# Generated by pormake.
# Topology wgc, (5)-cn, num edge types: 1
# Building blocks:
#     Node 0, Type 0, BuildingBlock: BEQFEK_clean_sbu_0, # of connection points: 5
#     Node 1, Type 0, BuildingBlock: BEQFEK_clean_sbu_0, # of connection points: 5
#     Node 2, Type 0, BuildingBlock: BEQFEK_clean_sbu_0, # of connection points: 5
#     Node 3, Type 0, BuildingBlock: BEQFEK_clean_sbu_0, # of connection points: 5
#     Node 4, Type 0, BuildingBlock: BEQFEK_clean_sbu_0, # of connection points: 5
#     Node 5, Type 0, BuildingBlock: BEQFEK_clean_sbu_0, # of connection points: 5
#     Node 6, Type 0, BuildingBlock: BEQFEK_clean_sbu_0, # of connection points: 5
#     Node 7, Type 0, BuildingBlock: BEQFEK_clean_sbu_0, # of connection points: 5
#     Node 8, Type 0, BuildingBlock: BEQFEK_clean_sbu_0, # of connection points: 5
#     Node 9, Type 0, BuildingBlock: BEQFEK_clean_sbu_0, # of connection points: 5
#     Node 10, Type 0, BuildingBlock: BEQFEK_clean_sbu_0, # of connection points: 5
#     Node 11, Type 0, BuildingBlock: BEQFEK_clean_sbu_0, # of connection points: 5
#     Node 12, Type 0, BuildingBlock: BEQFEK_clean_sbu_0, # of connection points: 5
#     Node 13, Type 0, BuildingBlock: BEQFEK_clean_sbu_0, # of connection points: 5
#     Node 14, Type 0, BuildingBlock: BEQFEK_clean_sbu_0, # of connection points: 5
#     Node 15, Type 0, BuildingBlock: BEQFEK_clean_sbu_0, # of connection points: 5
#     Edge 16, Type (0, 0), BuildingBlock: XIVTED_clean_linker_0, # of connection points: 2
#     Edge 17, Type (0, 0), BuildingBlock: XIVTED_clean_linker_0, # of connection points: 2
#     Edge 18, Type (0, 0), BuildingBlock: XIVTED_clean_linker_0, # of connection points: 2
#     Edge 19, Type (0, 0), BuildingBlock: XIVTED_clean_linker_0, # of connection points: 2
#     Edge 20, Type (0, 0), BuildingBlock: XIVTED_clean_linker_0, # of connection points: 2
#     Edge 21, Type (0, 0), BuildingBlock: XIVTED_clean_linker_0, # of connection points: 2
#     Edge 22, Type (0, 0), BuildingBlock: XIVTED_clean_linker_0, # of connection points: 2
#     Edge 23, Type (0, 0), BuildingBlock: XIVTED_clean_linker_0, # of connection points: 2
#     Edge 24, Type (0, 0), BuildingBlock: XIVTED_clean_linker_0, # of connection points: 2
#     Edge 25, Type (0, 0), BuildingBlock: XIVTED_clean_linker_0, # of connection points: 2
#     Edge 26, Type (0, 0), BuildingBlock: XIVTED_clean_linker_0, # of connection points: 2
#     Edge 27, Type (0, 0), BuildingBlock: XIVTED_clean_linker_0, # of connection points: 2
#     Edge 28, Type (0, 0), BuildingBlock: XIVTED_clean_linker_0, # of connection points: 2
#     Edge 29, Type (0, 0), BuildingBlock: XIVTED_clean_linker_0, # of connection points: 2
#     Edge 30, Type (0, 0), BuildingBlock: XIVTED_clean_linker_0, # of connection points: 2
#     Edge 31, Type (0, 0), BuildingBlock: XIVTED_clean_linker_0, # of connection points: 2
#     Edge 32, Type (0, 0), BuildingBlock: XIVTED_clean_linker_0, # of connection points: 2
#     Edge 33, Type (0, 0), BuildingBlock: XIVTED_clean_linker_0, # of connection points: 2
#     Edge 34, Type (0, 0), BuildingBlock: XIVTED_clean_linker_0, # of connection points: 2
#     Edge 35, Type (0, 0), BuildingBlock: XIVTED_clean_linker_0, # of connection points: 2
#     Edge 36, Type (0, 0), BuildingBlock: XIVTED_clean_linker_0, # of connection points: 2
#     Edge 37, Type (0, 0), BuildingBlock: XIVTED_clean_linker_0, # of connection points: 2
#     Edge 38, Type (0, 0), BuildingBlock: XIVTED_clean_linker_0, # of connection points: 2
#     Edge 39, Type (0, 0), BuildingBlock: XIVTED_clean_linker_0, # of connection points: 2
#     Edge 40, Type (0, 0), BuildingBlock: XIVTED_clean_linker_0, # of connection points: 2
#     Edge 41, Type (0, 0), BuildingBlock: XIVTED_clean_linker_0, # of connection points: 2
#     Edge 42, Type (0, 0), BuildingBlock: XIVTED_clean_linker_0, # of connection points: 2
#     Edge 43, Type (0, 0), BuildingBlock: XIVTED_clean_linker_0, # of connection points: 2
#     Edge 44, Type (0, 0), BuildingBlock: XIVTED_clean_linker_0, # of connection points: 2
#     Edge 45, Type (0, 0), BuildingBlock: XIVTED_clean_linker_0, # of connection points: 2
#     Edge 46, Type (0, 0), BuildingBlock: XIVTED_clean_linker_0, # of connection points: 2
#     Edge 47, Type (0, 0), BuildingBlock: XIVTED_clean_linker_0, # of connection points: 2
#     Edge 48, Type (0, 0), BuildingBlock: XIVTED_clean_linker_0, # of connection points: 2
#     Edge 49, Type (0, 0), BuildingBlock: XIVTED_clean_linker_0, # of connection points: 2
#     Edge 50, Type (0, 0), BuildingBlock: XIVTED_clean_linker_0, # of connection points: 2
#     Edge 51, Type (0, 0), BuildingBlock: XIVTED_clean_linker_0, # of connection points: 2
#     Edge 52, Type (0, 0), BuildingBlock: XIVTED_clean_linker_0, # of connection points: 2
#     Edge 53, Type (0, 0), BuildingBlock: XIVTED_clean_linker_0, # of connection points: 2
#     Edge 54, Type (0, 0), BuildingBlock: XIVTED_clean_linker_0, # of connection points: 2
#     Edge 55, Type (0, 0), BuildingBlock: XIVTED_clean_linker_0, # of connection points: 2
# Relax obj value: 0.141
# Max RMSD: 0.131
# Mean RMSD: 0.131
data_MOF--net-wgc--node1-BEQFEK_clean_sbu_0--edge1-XIVTED_clean_linker_0
_symmetry_space_group_name_H-M    P1
_symmetry_Int_Tables_number       1
_symmetry_cell_setting            triclinic
loop_
_symmetry_equiv_pos_as_xyz
'x, y, z'
_cell_length_a     40.651573
_cell_length_b     40.639034
_cell_length_c     55.582008
_cell_angle_alpha  90.048288
_cell_angle_beta   89.986359
_cell_angle_gamma 89.96725
loop_
_atom_site_label
_atom_site_type_symbol
_atom_site_fract_x
_atom_site_fract_y
_atom_site_fract_z
_atom_type_partial_charge
Co0 Co 0.22392 0.11434 0.00869 0.0
Co1 Co 0.29764 0.0936 0.00415 0.0
C2 C 0.26111 0.11309 0.9611 0.0
O3 O 0.23613 0.11658 0.9746 0.0
O4 O 0.28908 0.10517 0.96976 0.0
C5 C 0.17512 0.16115 -0.00115 0.0
O6 O 0.19994 0.17586 0.98821 0.0
C7 C 0.36765 0.07545 0.99523 0.0
C8 C 0.38245 0.06254 0.03233 0.0
C9 C 0.39394 0.06431 0.00895 0.0
N10 N 0.34188 0.08038 0.01002 0.0
N11 N 0.35088 0.07222 0.03207 0.0
C12 C 0.36694 0.08164 0.96873 0.0
H13 H 0.35153 0.06257 0.95994 0.0
H14 H 0.3554 0.1059 0.96516 0.0
H15 H 0.39203 0.08108 0.96088 0.0
C16 C 0.25095 0.15821 0.04573 0.0
N17 N 0.25478 0.13589 0.02812 0.0
N18 N 0.28623 0.12915 0.02541 0.0
C19 C 0.30357 0.14826 0.04077 0.0
C20 C 0.28172 0.16685 0.05436 0.0
C21 C 0.21825 0.17081 0.05406 0.0
H22 H 0.20068 0.15006 0.05573 0.0
H23 H 0.20845 0.18809 0.04039 0.0
H24 H 0.22007 0.18409 0.07143 0.0
O25 O 0.21995 0.06817 0.01731 0.0
O26 O 0.27171 0.05302 0.01144 0.0
H27 H 0.3475 0.13084 0.05754 0.0
H28 H 0.34927 0.17298 0.04831 0.0
C29 C 0.34023 0.14822 0.04313 0.0
H30 H 0.35192 0.14079 0.02594 0.0
H31 H 0.33525 0.07294 0.04695 0.0
O32 O 0.18018 0.13468 0.0104 0.0
C33 C 0.24197 0.04602 0.01654 0.0
Co34 Co 0.11332 0.76943 0.98297 0.0
Co35 Co 0.08865 0.69646 0.98465 0.0
C36 C 0.11033 0.72859 0.02894 0.0
O37 O 0.11523 0.75416 0.01631 0.0
O38 O 0.10059 0.70169 0.01938 0.0
C39 C 0.16271 0.81609 0.99419 0.0
O40 O 0.17706 0.79058 0.00421 0.0
C41 C 0.06663 0.62591 0.98783 0.0
C42 C 0.04683 0.62116 0.95095 0.0
C43 C 0.05079 0.6041 0.9723 0.0
N44 N 0.07167 0.65439 0.97595 0.0
N45 N 0.05961 0.65125 0.95402 0.0
C46 C 0.07745 0.61985 0.01313 0.0
H47 H 0.09906 0.6354 0.01752 0.0
H48 H 0.08369 0.59351 0.01581 0.0
H49 H 0.05714 0.62651 0.02556 0.0
C50 C 0.15514 0.7426 0.94456 0.0
N51 N 0.13283 0.73882 0.96217 0.0
N52 N 0.12426 0.70767 0.96363 0.0
C53 C 0.14177 0.6904 0.94725 0.0
C54 C 0.16158 0.71207 0.9345 0.0
C55 C 0.16985 0.77501 0.93766 0.0
H56 H 0.15024 0.79396 0.93659 0.0
H57 H 0.18746 0.78269 0.95181 0.0
H58 H 0.18324 0.77366 0.92031 0.0
O59 O 0.06713 0.7769 0.97505 0.0
O60 O 0.05012 0.72541 0.97884 0.0
H61 H 0.11874 0.65001 0.92941 0.0
H62 H 0.16158 0.64379 0.93563 0.0
C63 C 0.1384 0.65424 0.94289 0.0
H64 H 0.13184 0.64139 0.95982 0.0
H65 H 0.0598 0.66996 0.94117 0.0
O66 O 0.13591 0.81212 0.9828 0.0
C67 C 0.0442 0.75571 0.97509 0.0
Co68 Co 0.7634 0.87559 0.00961 0.0
Co69 Co 0.68992 0.89719 0.00578 0.0
C70 C 0.72521 0.87717 0.96237 0.0
O71 O 0.75037 0.87349 0.97567 0.0
O72 O 0.69745 0.8854 0.97128 0.0
C73 C 0.81238 0.82903 -0.00131 0.0
O74 O 0.78785 0.81469 0.98743 0.0
C75 C 0.62444 0.9266 -0.00265 0.0
C76 C 0.61018 0.93731 0.03495 0.0
C77 C 0.6008 0.94233 0.01132 0.0
N78 N 0.64659 0.91273 0.01224 0.0
N79 N 0.63775 0.91915 0.03464 0.0
C80 C 0.62911 0.92921 0.97073 0.0
H81 H 0.65403 0.93905 0.9669 0.0
H82 H 0.62772 0.90426 0.96268 0.0
H83 H 0.61035 0.94533 0.96231 0.0
C84 C 0.7366 0.83225 0.04692 0.0
N85 N 0.73259 0.85458 0.02937 0.0
N86 N 0.70113 0.8615 0.02696 0.0
C87 C 0.68395 0.84243 0.04244 0.0
C88 C 0.70595 0.82378 0.05581 0.0
C89 C 0.76938 0.81948 0.0549 0.0
H90 H 0.7869 0.84023 0.05687 0.0
H91 H 0.77916 0.80268 0.04088 0.0
H92 H 0.76769 0.80568 0.07206 0.0
O93 O 0.7685 0.92161 0.01827 0.0
O94 O 0.71687 0.93711 0.01271 0.0
H95 H 0.64004 0.85732 0.06057 0.0
H96 H 0.63848 0.81672 0.04821 0.0
C97 C 0.64731 0.84214 0.04485 0.0
H98 H 0.63549 0.85181 0.02834 0.0
H99 H 0.65195 0.91339 0.04967 0.0
O100 O 0.80694 0.85485 0.01095 0.0
C101 C 0.74667 0.94392 0.01762 0.0
Co102 Co 0.87356 0.22208 0.98748 0.0
Co103 Co 0.89885 0.29476 0.98885 0.0
C104 C 0.87713 0.26328 0.03335 0.0
O105 O 0.87202 0.2376 0.02082 0.0
O106 O 0.8869 0.29005 0.02363 0.0
C107 C 0.82441 0.17499 -0.00118 0.0
O108 O 0.8101 0.20009 0.00946 0.0
C109 C 0.92187 0.36511 0.99131 0.0
C110 C 0.9414 0.36872 0.95429 0.0
C111 C 0.938 0.38632 0.97548 0.0
N112 N 0.9162 0.33649 0.97975 0.0
N113 N 0.92807 0.33896 0.95771 0.0
C114 C 0.9114 0.37184 0.01662 0.0
H115 H 0.88991 0.35636 0.02141 0.0
H116 H 0.90511 0.39823 0.01897 0.0
H117 H 0.93192 0.36562 0.02897 0.0
C118 C 0.83155 0.24892 0.94925 0.0
N119 N 0.85411 0.25263 0.96669 0.0
N120 N 0.86299 0.28371 0.968 0.0
C121 C 0.84539 0.30101 0.95172 0.0
C122 C 0.82521 0.27944 0.9392 0.0
C123 C 0.81663 0.21659 0.94238 0.0
H124 H 0.83613 0.19753 0.94124 0.0
H125 H 0.79904 0.20902 0.95658 0.0
H126 H 0.80321 0.21803 0.92505 0.0
O127 O 0.91951 0.21413 0.9793 0.0
O128 O 0.93718 0.26537 0.98311 0.0
H129 H 0.86841 0.34121 0.93368 0.0
H130 H 0.82564 0.3476 0.94015 0.0
C131 C 0.84888 0.33713 0.94729 0.0
H132 H 0.85569 0.35003 0.96415 0.0
H133 H 0.92741 0.31999 0.94505 0.0
O134 O 0.85094 0.17947 0.98722 0.0
C135 C 0.94273 0.235 0.97932 0.0
Co136 Co 0.22309 0.37287 0.23762 0.0
Co137 Co 0.2959 0.39682 0.23976 0.0
C138 C 0.26205 0.37999 0.28431 0.0
O139 O 0.23677 0.37476 0.27141 0.0
O140 O 0.28961 0.38769 0.27483 0.0
C141 C 0.17593 0.32477 0.25004 0.0
O142 O 0.20134 0.31051 0.26028 0.0
C143 C 0.36639 0.41833 0.24358 0.0
C144 C 0.37395 0.43226 0.20554 0.0
C145 C 0.38947 0.43149 0.22771 0.0
N146 N 0.33869 0.4118 0.23113 0.0
N147 N 0.34351 0.42029 0.20848 0.0
C148 C 0.37056 0.41132 0.2698 0.0
H149 H 0.35489 0.39023 0.27517 0.0
H150 H 0.39666 0.40581 0.27404 0.0
H151 H 0.36274 0.43321 0.2803 0.0
C152 C 0.25103 0.32514 0.20353 0.0
N153 N 0.25412 0.3503 0.21905 0.0
N154 N 0.28517 0.35919 0.22041 0.0
C155 C 0.30304 0.33924 0.20598 0.0
C156 C 0.28195 0.3171 0.19479 0.0
C157 C 0.21872 0.31088 0.1959 0.0
H158 H 0.19931 0.33005 0.19639 0.0
H159 H 0.2118 0.29091 0.20852 0.0
H160 H 0.2202 0.30046 0.17747 0.0
O161 O 0.2168 0.41756 0.22604 0.0
O162 O 0.26766 0.43551 0.23159 0.0
H163 H 0.34639 0.3576 0.18899 0.0
H164 H 0.34954 0.31566 0.19889 0.0
C165 C 0.33968 0.34031 0.20361 0.0
H166 H 0.35102 0.34888 0.22064 0.0
H167 H 0.32571 0.41828 0.19504 0.0
O168 O 0.18014 0.35104 0.23808 0.0
C169 C 0.23774 0.4407 0.22598 0.0
Co170 Co 0.3764 0.76515 0.75401 0.0
Co171 Co 0.39371 0.69041 0.75011 0.0
C172 C 0.37409 0.72508 0.70707 0.0
O173 O 0.37299 0.75061 0.72032 0.0
O174 O 0.38063 0.69681 0.7159 0.0
C175 C 0.32952 0.8141 0.74405 0.0
O176 O 0.31361 0.78878 0.73507 0.0
C177 C 0.41477 0.61956 0.74656 0.0
C178 C 0.42439 0.61104 0.78519 0.0
C179 C 0.42617 0.59605 0.76286 0.0
N180 N 0.40672 0.64694 0.75896 0.0
N181 N 0.41269 0.64154 0.78197 0.0
C182 C 0.41138 0.61628 0.71989 0.0
H183 H 0.39142 0.6325 0.71323 0.0
H184 H 0.40612 0.59039 0.71482 0.0
H185 H 0.43473 0.62397 0.71122 0.0
C186 C 0.32988 0.74064 0.79034 0.0
N187 N 0.35375 0.73591 0.77397 0.0
N188 N 0.35929 0.70421 0.77145 0.0
C189 C 0.33823 0.68763 0.78581 0.0
C190 C 0.31908 0.7102 0.79833 0.0
C191 C 0.31876 0.77378 0.79886 0.0
H192 H 0.33921 0.79174 0.79763 0.0
H193 H 0.29826 0.7824 0.7873 0.0
H194 H 0.30986 0.77259 0.81772 0.0
O195 O 0.42278 0.7681 0.7627 0.0
O196 O 0.43506 0.71602 0.75483 0.0
H197 H 0.34953 0.64066 0.80094 0.0
H198 H 0.30844 0.64413 0.78947 0.0
C199 C 0.33447 0.651 0.78613 0.0
H200 H 0.34272 0.64021 0.76881 0.0
H201 H 0.40947 0.65909 0.79548 0.0
O202 O 0.35699 0.80947 0.75441 0.0
C203 C 0.44373 0.74516 0.76032 0.0
Co204 Co 0.76778 0.61286 0.23625 0.0
Co205 Co 0.69467 0.58923 0.23793 0.0
C206 C 0.72885 0.60516 0.28279 0.0
O207 O 0.75423 0.61093 0.27011 0.0
O208 O 0.70149 0.59731 0.27305 0.0
C209 C 0.81708 0.65826 0.24993 0.0
O210 O 0.7929 0.67158 0.26224 0.0
C211 C 0.62462 0.56708 0.24245 0.0
C212 C 0.61639 0.55288 0.20454 0.0
C213 C 0.60149 0.55311 0.22695 0.0
N214 N 0.65174 0.57441 0.22956 0.0
N215 N 0.64649 0.56585 0.20698 0.0
C216 C 0.62117 0.57394 0.26876 0.0
H217 H 0.6367 0.59522 0.27394 0.0
H218 H 0.59514 0.57916 0.27344 0.0
H219 H 0.62957 0.55212 0.27907 0.0
C220 C 0.7399 0.66113 0.2024 0.0
N221 N 0.73675 0.6358 0.21776 0.0
N222 N 0.70566 0.627 0.21903 0.0
C223 C 0.68785 0.64707 0.20471 0.0
C224 C 0.70899 0.66924 0.19362 0.0
C225 C 0.77228 0.6755 0.19506 0.0
H226 H 0.79153 0.65616 0.19505 0.0
H227 H 0.77943 0.69475 0.20823 0.0
H228 H 0.77088 0.68677 0.17692 0.0
O229 O 0.77365 0.56794 0.22481 0.0
O230 O 0.72236 0.55073 0.22909 0.0
H231 H 0.64443 0.6288 0.18772 0.0
H232 H 0.64134 0.67072 0.19778 0.0
C233 C 0.6512 0.64604 0.20238 0.0
H234 H 0.63989 0.63741 0.2194 0.0
H235 H 0.6639 0.5682 0.19329 0.0
O236 O 0.81123 0.63383 0.23634 0.0
C237 C 0.75235 0.54514 0.224 0.0
Co238 Co 0.61701 0.22117 0.75529 0.0
Co239 Co 0.59115 0.29404 0.75606 0.0
C240 C 0.61436 0.26425 0.71087 0.0
O241 O 0.6207 0.23797 0.72236 0.0
O242 O 0.60226 0.28957 0.72121 0.0
C243 C 0.66499 0.17259 0.74353 0.0
O244 O 0.68021 0.1975 0.7334 0.0
C245 C 0.56804 0.36382 0.75232 0.0
C246 C 0.5506 0.37037 0.78967 0.0
C247 C 0.55215 0.38606 0.76757 0.0
N248 N 0.57507 0.33643 0.76499 0.0
N249 N 0.56463 0.3407 0.78727 0.0
C250 C 0.57702 0.3684 0.72646 0.0
H251 H 0.59921 0.35372 0.72202 0.0
H252 H 0.58185 0.39472 0.72251 0.0
H253 H 0.55644 0.3597 0.71499 0.0
C254 C 0.66116 0.24727 0.79273 0.0
N255 N 0.63661 0.25097 0.77677 0.0
N256 N 0.6273 0.282 0.77632 0.0
C257 C 0.64628 0.29921 0.79179 0.0
C258 C 0.66829 0.27775 0.80273 0.0
C259 C 0.67632 0.21481 0.79899 0.0
H260 H 0.65768 0.19499 0.79766 0.0
H261 H 0.69642 0.20939 0.78607 0.0
H262 H 0.68668 0.21512 0.81745 0.0
O263 O 0.57035 0.21402 0.76257 0.0
O264 O 0.55258 0.2655 0.76203 0.0
H265 H 0.62673 0.3418 0.80918 0.0
H266 H 0.66916 0.34558 0.8005 0.0
C267 C 0.64486 0.33575 0.79493 0.0
H268 H 0.63711 0.34773 0.77793 0.0
H269 H 0.5663 0.32286 0.8007 0.0
O270 O 0.63845 0.17766 0.75502 0.0
C271 C 0.54716 0.23486 0.76423 0.0
Co272 Co 0.72186 0.61798 0.50679 0.0
Co273 Co 0.79332 0.58879 0.50738 0.0
C274 C 0.76292 0.60352 0.46156 0.0
O275 O 0.7376 0.61113 0.47375 0.0
O276 O 0.78987 0.59574 0.47187 0.0
C277 C 0.67337 0.65928 0.48523 0.0
O278 O 0.69295 0.65741 0.46651 0.0
C279 C 0.86279 0.56421 0.50625 0.0
C280 C 0.86582 0.54569 0.54357 0.0
C281 C 0.88361 0.54821 0.52239 0.0
N282 N 0.83414 0.57054 0.51757 0.0
N283 N 0.83626 0.55936 0.53981 0.0
C284 C 0.87008 0.57452 0.481 0.0
H285 H 0.85527 0.59647 0.47617 0.0
H286 H 0.89663 0.58012 0.47881 0.0
H287 H 0.86341 0.55421 0.46857 0.0
C288 C 0.75177 0.66494 0.54044 0.0
N289 N 0.75399 0.6391 0.52543 0.0
N290 N 0.78436 0.62794 0.5253 0.0
C291 C 0.80265 0.64678 0.54019 0.0
C292 C 0.78259 0.67086 0.55028 0.0
C293 C 0.72 0.68157 0.54665 0.0
H294 H 0.69983 0.66322 0.54721 0.0
H295 H 0.71408 0.69989 0.5325 0.0
H296 H 0.7214 0.69428 0.56429 0.0
O297 O 0.71122 0.57444 0.51969 0.0
O298 O 0.76131 0.55356 0.51572 0.0
H299 H 0.84224 0.6234 0.55871 0.0
H300 H 0.8503 0.66545 0.55043 0.0
C301 C 0.83868 0.64213 0.54444 0.0
H302 H 0.85085 0.63334 0.52777 0.0
H303 H 0.81725 0.56084 0.55238 0.0
O304 O 0.68119 0.64485 0.50471 0.0
C305 C 0.73091 0.55016 0.52065 0.0
Co306 Co 0.62027 0.26417 0.49427 0.0
Co307 Co 0.59231 0.19255 0.48963 0.0
C308 C 0.61564 0.21724 0.53635 0.0
O309 O 0.62307 0.24431 0.52632 0.0
O310 O 0.60284 0.19341 0.52469 0.0
C311 C 0.63056 0.32721 0.51095 0.0
O312 O 0.60326 0.31926 0.52219 0.0
C313 C 0.56931 0.12272 0.48957 0.0
C314 C 0.54776 0.12133 0.45307 0.0
C315 C 0.55197 0.10264 0.47366 0.0
N316 N 0.57475 0.15183 0.4787 0.0
N317 N 0.56179 0.1507 0.45694 0.0
C318 C 0.58113 0.11453 0.51431 0.0
H319 H 0.60385 0.12853 0.51845 0.0
H320 H 0.58607 0.08777 0.516 0.0
H321 H 0.56197 0.12163 0.52756 0.0
C322 C 0.66237 0.24109 0.45465 0.0
N323 N 0.63908 0.23591 0.47136 0.0
N324 N 0.62895 0.2052 0.47012 0.0
C325 C 0.64623 0.18961 0.45276 0.0
C326 C 0.66768 0.21196 0.44225 0.0
C327 C 0.67892 0.27353 0.45072 0.0
H328 H 0.69064 0.28161 0.46775 0.0
H329 H 0.69792 0.27214 0.43642 0.0
H330 H 0.66017 0.29222 0.44585 0.0
O331 O 0.57391 0.27367 0.48695 0.0
O332 O 0.55488 0.22276 0.48471 0.0
H333 H 0.62061 0.15369 0.43195 0.0
H334 H 0.66324 0.14427 0.4367 0.0
C335 C 0.64088 0.15465 0.44527 0.0
H336 H 0.63412 0.13944 0.46106 0.0
H337 H 0.56192 0.17038 0.44489 0.0
O338 O 0.64352 0.30654 0.49662 0.0
C339 C 0.55027 0.25366 0.48397 0.0
Co340 Co 0.26741 0.3739 0.50884 0.0
Co341 Co 0.19469 0.39924 0.50752 0.0
C342 C 0.22674 0.37802 0.46286 0.0
O343 O 0.25243 0.37277 0.47534 0.0
O344 O 0.19993 0.38765 0.47265 0.0
C345 C 0.31651 0.32703 0.49663 0.0
O346 O 0.29259 0.31352 0.48418 0.0
C347 C 0.124 0.42097 0.50489 0.0
C348 C 0.11965 0.44019 0.54198 0.0
C349 C 0.1023 0.43647 0.52072 0.0
N350 N 0.15267 0.41594 0.51651 0.0
N351 N 0.14976 0.42761 0.53858 0.0
C352 C 0.11765 0.41036 0.47956 0.0
H353 H 0.13356 0.38912 0.47483 0.0
H354 H 0.09141 0.40361 0.47712 0.0
H355 H 0.12361 0.43097 0.46723 0.0
C356 C 0.23948 0.32872 0.54493 0.0
N357 N 0.23656 0.35337 0.52894 0.0
N358 N 0.20573 0.36318 0.5281 0.0
C359 C 0.18797 0.3448 0.54361 0.0
C360 C 0.2088 0.32248 0.55474 0.0
C361 C 0.27134 0.3125 0.55133 0.0
H362 H 0.2912 0.33116 0.55225 0.0
H363 H 0.27782 0.2945 0.53707 0.0
H364 H 0.26964 0.29937 0.56879 0.0
O365 O 0.27465 0.41997 0.51748 0.0
O366 O 0.22346 0.43769 0.51361 0.0
H367 H 0.14669 0.36706 0.5609 0.0
H368 H 0.14123 0.32419 0.55404 0.0
C369 C 0.15164 0.3477 0.5473 0.0
H370 H 0.13936 0.35456 0.53021 0.0
H371 H 0.16862 0.42725 0.55131 0.0
O372 O 0.31055 0.35216 0.5095 0.0
C373 C 0.25376 0.4432 0.51754 0.0
Co374 Co 0.37602 0.72284 0.48183 0.0
Co375 Co 0.39477 0.79695 0.48654 0.0
C376 C 0.37484 0.76193 0.52926 0.0
O377 O 0.37317 0.73669 0.51576 0.0
O378 O 0.38179 0.79024 0.52069 0.0
C379 C 0.32986 0.6738 0.49276 0.0
O380 O 0.31503 0.69874 0.50322 0.0
C381 C 0.41642 0.86739 0.49079 0.0
C382 C 0.42988 0.8752 0.45268 0.0
C383 C 0.42968 0.89046 0.47495 0.0
N384 N 0.40921 0.83998 0.47819 0.0
N385 N 0.41747 0.84494 0.45551 0.0
C386 C 0.41045 0.87111 0.51719 0.0
H387 H 0.38955 0.8554 0.52287 0.0
H388 H 0.40523 0.89717 0.5218 0.0
H389 H 0.43271 0.86305 0.52712 0.0
C390 C 0.33132 0.74895 0.44483 0.0
N391 N 0.35406 0.75295 0.46212 0.0
N392 N 0.36008 0.78449 0.46508 0.0
C393 C 0.34024 0.80173 0.45021 0.0
C394 C 0.32178 0.77974 0.43669 0.0
C395 C 0.31845 0.71616 0.43695 0.0
H396 H 0.30124 0.70679 0.45083 0.0
H397 H 0.30502 0.71772 0.41964 0.0
H398 H 0.33906 0.69838 0.43536 0.0
O399 O 0.42225 0.71895 0.47292 0.0
O400 O 0.43542 0.77059 0.48129 0.0
H401 H 0.31446 0.84734 0.44398 0.0
H402 H 0.34755 0.84981 0.4656 0.0
C403 C 0.33952 0.83847 0.44843 0.0
H404 H 0.35619 0.84643 0.43376 0.0
H405 H 0.41527 0.82723 0.442 0.0
O406 O 0.35607 0.67887 0.4809 0.0
C407 C 0.4436 0.74146 0.47541 0.0
Co408 Co 0.72317 0.87052 0.73696 0.0
Co409 Co 0.7962 0.89554 0.73987 0.0
C410 C 0.7619 0.87791 0.78396 0.0
O411 O 0.73701 0.8727 0.77071 0.0
O412 O 0.78963 0.88573 0.77484 0.0
C413 C 0.67403 0.82689 0.75385 0.0
O414 O 0.69534 0.82272 0.77132 0.0
C415 C 0.86638 0.91588 0.74597 0.0
C416 C 0.87681 0.93203 0.70876 0.0
C417 C 0.89083 0.9289 0.73131 0.0
N418 N 0.83921 0.91136 0.73249 0.0
N419 N 0.84563 0.92141 0.71038 0.0
C420 C 0.8689 0.90698 0.77199 0.0
H421 H 0.85662 0.92632 0.78288 0.0
H422 H 0.85596 0.8834 0.77533 0.0
H423 H 0.89496 0.90487 0.77774 0.0
C424 C 0.75204 0.82628 0.70105 0.0
N425 N 0.75514 0.84961 0.71803 0.0
N426 N 0.78619 0.85839 0.71984 0.0
C427 C 0.80403 0.84001 0.70428 0.0
C428 C 0.78288 0.81941 0.6917 0.0
C429 C 0.71985 0.81152 0.69369 0.0
H430 H 0.70237 0.83145 0.68888 0.0
H431 H 0.70928 0.79794 0.70917 0.0
H432 H 0.7226 0.79429 0.67833 0.0
O433 O 0.71597 0.91596 0.7266 0.0
O434 O 0.76713 0.93359 0.73185 0.0
H435 H 0.8448 0.862 0.68623 0.0
H436 H 0.85097 0.81967 0.69409 0.0
C437 C 0.84028 0.84329 0.70036 0.0
H438 H 0.85264 0.85099 0.71722 0.0
H439 H 0.82859 0.921 0.69635 0.0
O440 O 0.68101 0.84586 0.73638 0.0
C441 C 0.73706 0.93908 0.72674 0.0
Co442 Co 0.876 0.26832 0.25802 0.0
Co443 Co 0.89811 0.19473 0.25645 0.0
C444 C 0.88082 0.22796 0.21178 0.0
O445 O 0.87649 0.25352 0.22456 0.0
O446 O 0.88832 0.2004 0.22135 0.0
C447 C 0.82804 0.31496 0.24517 0.0
O448 O 0.81359 0.28891 0.23599 0.0
C449 C 0.91946 0.12416 0.25305 0.0
C450 C 0.93365 0.11697 0.29107 0.0
C451 C 0.93304 0.1013 0.26894 0.0
N452 N 0.91266 0.15187 0.26545 0.0
N453 N 0.92125 0.14725 0.2881 0.0
C454 C 0.91242 0.11984 0.22685 0.0
H455 H 0.89134 0.1355 0.22143 0.0
H456 H 0.90685 0.09371 0.22268 0.0
H457 H 0.9343 0.12753 0.21632 0.0
C458 C 0.82895 0.2424 0.29331 0.0
N459 N 0.85351 0.23827 0.27743 0.0
N460 N 0.86132 0.20691 0.27611 0.0
C461 C 0.8412 0.18987 0.29089 0.0
C462 C 0.82009 0.21184 0.30232 0.0
C463 C 0.81611 0.27532 0.30097 0.0
H464 H 0.83575 0.29415 0.29958 0.0
H465 H 0.79555 0.28253 0.28894 0.0
H466 H 0.80688 0.27459 0.31975 0.0
O467 O 0.92126 0.27408 0.26841 0.0
O468 O 0.9374 0.22238 0.26387 0.0
H469 H 0.85828 0.14595 0.30787 0.0
H470 H 0.8162 0.14417 0.29805 0.0
C471 C 0.84113 0.1532 0.29329 0.0
H472 H 0.84926 0.14154 0.27625 0.0
H473 H 0.91922 0.16517 0.30148 0.0
O474 O 0.85461 0.31151 0.25692 0.0
C475 C 0.94372 0.25237 0.26864 0.0
Co476 Co 0.26543 0.11491 0.73606 0.0
Co477 Co 0.1927 0.09002 0.73884 0.0
C478 C 0.2261 0.11168 0.78273 0.0
O479 O 0.25139 0.11636 0.76973 0.0
O480 O 0.19889 0.1022 0.77352 0.0
C481 C 0.31374 0.16269 0.74743 0.0
O482 O 0.28926 0.17665 0.75902 0.0
C483 C 0.12693 0.05866 0.74485 0.0
C484 C 0.11528 0.04965 0.70655 0.0
C485 C 0.10421 0.04362 0.72967 0.0
N486 N 0.15016 0.07307 0.73112 0.0
N487 N 0.14289 0.06754 0.70831 0.0
C488 C 0.12922 0.05541 0.7716 0.0
H489 H 0.15535 0.05371 0.77719 0.0
H490 H 0.11843 0.07768 0.78005 0.0
H491 H 0.11563 0.03345 0.77807 0.0
C492 C 0.23689 0.16015 0.70051 0.0
N493 N 0.23409 0.13541 0.71642 0.0
N494 N 0.20306 0.12638 0.71807 0.0
C495 C 0.18501 0.14582 0.70339 0.0
C496 C 0.20592 0.16758 0.69177 0.0
C497 C 0.26881 0.17556 0.6933 0.0
H498 H 0.28846 0.15664 0.69266 0.0
H499 H 0.27573 0.19431 0.7069 0.0
H500 H 0.26683 0.18777 0.6755 0.0
O501 O 0.27242 0.06902 0.72723 0.0
O502 O 0.22142 0.05133 0.73226 0.0
H503 H 0.14099 0.13033 0.68574 0.0
H504 H 0.13881 0.17069 0.69856 0.0
C505 C 0.14831 0.14539 0.7015 0.0
H506 H 0.13718 0.13501 0.71804 0.0
H507 H 0.15796 0.07419 0.69393 0.0
O508 O 0.30844 0.13685 0.73517 0.0
C509 C 0.25158 0.0458 0.72766 0.0
Co510 Co 0.11719 0.72217 0.25351 0.0
Co511 Co 0.08951 0.79417 0.25261 0.0
C512 C 0.10673 0.76229 0.20753 0.0
O513 O 0.11363 0.73727 0.22024 0.0
O514 O 0.09804 0.78946 0.21722 0.0
C515 C 0.13127 0.65991 0.23712 0.0
O516 O 0.10344 0.66621 0.22601 0.0
C517 C 0.06528 0.86414 0.25136 0.0
C518 C 0.04644 0.86669 0.28863 0.0
C519 C 0.04919 0.88481 0.26764 0.0
N520 N 0.07147 0.83531 0.26246 0.0
N521 N 0.06008 0.83717 0.28466 0.0
C522 C 0.07561 0.87165 0.22615 0.0
H523 H 0.09689 0.85609 0.22094 0.0
H524 H 0.0822 0.89803 0.22433 0.0
H525 H 0.05492 0.86615 0.21377 0.0
C526 C 0.16282 0.75174 0.28824 0.0
N527 N 0.13795 0.7541 0.27244 0.0
N528 N 0.12757 0.78473 0.2715 0.0
C529 C 0.14598 0.80305 0.28663 0.0
C530 C 0.16889 0.78273 0.29776 0.0
C531 C 0.17834 0.71981 0.29543 0.0
H532 H 0.19847 0.71392 0.28264 0.0
H533 H 0.18869 0.72113 0.31388 0.0
H534 H 0.15993 0.69971 0.29462 0.0
O535 O 0.07271 0.71261 0.26487 0.0
O536 O 0.05336 0.76328 0.26078 0.0
H537 H 0.12299 0.84385 0.30407 0.0
H538 H 0.16544 0.8506 0.29633 0.0
C539 C 0.14204 0.83934 0.29016 0.0
H540 H 0.13409 0.85113 0.27314 0.0
H541 H 0.06136 0.81797 0.2971 0.0
O542 O 0.14276 0.68112 0.25165 0.0
C543 C 0.04903 0.73299 0.26561 0.0
H544 H 0.20286 0.12129 0.93751 0.0
H545 H 0.28199 0.12852 0.80681 0.0
H546 H 0.30729 0.11185 0.92468 0.0
H547 H 0.17995 0.10362 0.81885 0.0
H548 H 0.29053 0.131 0.84998 0.0
H549 H 0.19353 0.12318 0.89431 0.0
C550 C 0.22396 0.11983 0.92564 0.0
C551 C 0.25603 0.11632 0.93483 0.0
C552 C 0.26627 0.12506 0.84321 0.0
C553 C 0.24521 0.11857 0.88517 0.0
C554 C 0.2612 0.12374 0.81849 0.0
C555 C 0.23011 0.11563 0.80906 0.0
C556 C 0.24006 0.11858 0.85881 0.0
C557 C 0.20429 0.10988 0.82527 0.0
C558 C 0.21847 0.12077 0.90094 0.0
C559 C 0.28221 0.11453 0.91844 0.0
N560 N 0.20986 0.11145 0.84941 0.0
N561 N 0.27621 0.11572 0.89437 0.0
H562 H 0.13093 0.7827 0.05376 0.0
H563 H 0.10473 0.70444 0.18325 0.0
H564 H 0.09595 0.68339 0.0645 0.0
H565 H 0.11007 0.80937 0.1716 0.0
H566 H 0.10715 0.69553 0.14016 0.0
H567 H 0.12993 0.79145 0.097 0.0
C568 C 0.12325 0.76254 0.06519 0.0
C569 C 0.1133 0.73219 0.05536 0.0
C570 C 0.10776 0.72051 0.14695 0.0
C571 C 0.11211 0.74239 0.10512 0.0
C572 C 0.10653 0.72573 0.17163 0.0
C573 C 0.10744 0.75781 0.18113 0.0
C574 C 0.11027 0.74748 0.13146 0.0
C575 C 0.10934 0.78428 0.16506 0.0
C576 C 0.12253 0.76775 0.08992 0.0
C577 C 0.10382 0.70712 0.07122 0.0
N578 N 0.11092 0.77851 0.14093 0.0
N579 N 0.10341 0.71282 0.09535 0.0
H580 H 0.78216 0.86273 0.9386 0.0
H581 H 0.70361 0.87278 0.80774 0.0
H582 H 0.67958 0.88468 0.92599 0.0
H583 H 0.8083 0.87907 0.82039 0.0
H584 H 0.69431 0.87061 0.85081 0.0
H585 H 0.79153 0.86186 0.89541 0.0
C586 C 0.76145 0.86717 0.92678 0.0
C587 C 0.72993 0.87394 0.93605 0.0
C588 C 0.71932 0.87244 0.84422 0.0
C589 C 0.7408 0.87292 0.88635 0.0
C590 C 0.72479 0.87353 0.81955 0.0
C591 C 0.75693 0.87602 0.81032 0.0
C592 C 0.74611 0.8736 0.85999 0.0
C593 C 0.78317 0.87716 0.82667 0.0
C594 C 0.76697 0.8668 0.90207 0.0
C595 C 0.70423 0.87938 0.91971 0.0
N596 N 0.77717 0.87585 0.85077 0.0
N597 N 0.71025 0.87877 0.89562 0.0
H598 H 0.8871 0.31034 0.0685 0.0
H599 H 0.88122 0.18021 0.17628 0.0
H600 H 0.86104 0.20812 0.05859 0.0
H601 H 0.87517 0.28538 0.187 0.0
H602 H 0.87831 0.18944 0.13264 0.0
H603 H 0.88677 0.30144 0.11217 0.0
C604 C 0.88105 0.28619 0.07545 0.0
C605 C 0.87419 0.26001 0.0598 0.0
C606 C 0.87749 0.2104 0.14467 0.0
C607 C 0.8743 0.24951 0.10955 0.0
C608 C 0.87921 0.20512 0.16952 0.0
C609 C 0.87837 0.23197 0.18536 0.0
C610 C 0.87537 0.24274 0.13569 0.0
C611 C 0.8758 0.26382 0.17556 0.0
C612 C 0.88093 0.28108 0.10034 0.0
C613 C 0.86661 0.22913 0.06987 0.0
N614 N 0.87457 0.26829 0.15143 0.0
N615 N 0.86714 0.2247 0.09403 0.0
H616 H 0.3096 0.38051 0.31981 0.0
H617 H 0.17963 0.38824 0.4278 0.0
H618 H 0.20444 0.37574 0.30908 0.0
H619 H 0.28179 0.36187 0.43747 0.0
H620 H 0.18838 0.38773 0.38409 0.0
H621 H 0.3003 0.37827 0.36344 0.0
C622 C 0.28466 0.37895 0.32658 0.0
C623 C 0.25784 0.37821 0.31074 0.0
C624 C 0.20876 0.38189 0.39588 0.0
C625 C 0.24699 0.37594 0.36043 0.0
C626 C 0.20374 0.38211 0.42079 0.0
C627 C 0.22995 0.37519 0.43639 0.0
C628 C 0.24027 0.37508 0.3866 0.0
C629 C 0.26077 0.36748 0.42625 0.0
C630 C 0.27934 0.3776 0.35143 0.0
C631 C 0.22596 0.37622 0.32054 0.0
N632 N 0.26511 0.36789 0.40207 0.0
N633 N 0.22144 0.37533 0.34469 0.0
H634 H 0.36063 0.78247 0.6837 0.0
H635 H 0.36278 0.70404 0.55243 0.0
H636 H 0.3769 0.67888 0.67063 0.0
H637 H 0.37643 0.80791 0.56585 0.0
H638 H 0.35914 0.69456 0.5955 0.0
H639 H 0.35749 0.79171 0.6406 0.0
C640 C 0.36336 0.76152 0.6718 0.0
C641 C 0.36935 0.72976 0.68089 0.0
C642 C 0.36283 0.71942 0.58904 0.0
C643 C 0.36565 0.74049 0.63129 0.0
C644 C 0.36483 0.72499 0.5644 0.0
C645 C 0.37018 0.75692 0.55542 0.0
C646 C 0.3659 0.74592 0.60497 0.0
C647 C 0.37243 0.78293 0.57193 0.0
C648 C 0.36164 0.76695 0.64714 0.0
C649 C 0.37239 0.70373 0.66446 0.0
N650 N 0.37034 0.77683 0.59595 0.0
N651 N 0.3706 0.7097 0.6404 0.0
H652 H 0.8114 0.6026 0.42664 0.0
H653 H 0.68185 0.59502 0.3178 0.0
H654 H 0.70593 0.60254 0.43613 0.0
H655 H 0.78513 0.61643 0.3082 0.0
H656 H 0.69071 0.59372 0.3614 0.0
H657 H 0.80296 0.60303 0.38283 0.0
C658 C 0.78658 0.60264 0.41955 0.0
C659 C 0.7594 0.6029 0.43508 0.0
C660 C 0.71138 0.5988 0.34969 0.0
C661 C 0.74953 0.60322 0.38525 0.0
C662 C 0.70628 0.59959 0.32482 0.0
C663 C 0.73269 0.60589 0.30927 0.0
C664 C 0.74314 0.60406 0.35902 0.0
C665 C 0.76393 0.61152 0.31942 0.0
C666 C 0.78174 0.60299 0.39461 0.0
C667 C 0.7277 0.60283 0.42491 0.0
N668 N 0.76829 0.61034 0.3436 0.0
N669 N 0.72367 0.60297 0.40072 0.0
H670 H 0.6706 0.22481 0.56334 0.0
H671 H 0.57043 0.28452 0.67694 0.0
H672 H 0.56568 0.21152 0.56823 0.0
H673 H 0.66527 0.23847 0.68564 0.0
H674 H 0.57136 0.26941 0.63407 0.0
H675 H 0.67206 0.23845 0.60641 0.0
C676 C 0.64807 0.22381 0.57374 0.0
C677 C 0.61809 0.21631 0.5626 0.0
C678 C 0.5921 0.26306 0.64539 0.0
C679 C 0.61926 0.2338 0.61101 0.0
C680 C 0.59183 0.27214 0.66963 0.0
C681 C 0.61792 0.26287 0.68461 0.0
C682 C 0.61893 0.24527 0.63617 0.0
C683 C 0.6448 0.24616 0.67451 0.0
C684 C 0.64884 0.23194 0.59811 0.0
C685 C 0.58933 0.21637 0.57646 0.0
N686 N 0.64469 0.23792 0.65084 0.0
N687 N 0.5905 0.22557 0.59997 0.0
H688 H 0.28115 0.99078 0.01618 0.0
H689 H 0.1308 0.87406 0.98664 0.0
H690 H 0.17962 0.02177 0.02058 0.0
H691 H 0.22339 0.83433 0.01129 0.0
H692 H 0.15064 0.92924 0.99552 0.0
H693 H 0.26258 0.93361 0.01243 0.0
C694 C 0.25503 0.98558 0.01672 0.0
C695 C 0.2319 0.01118 0.01842 0.0
C696 C 0.16662 0.90846 -0.00095 0.0
C697 C 0.21069 0.94617 0.01372 0.0
C698 C 0.15543 0.87695 0.99378 0.0
C699 C 0.17552 0.84957 -0.00179 0.0
C700 C 0.19831 0.91276 0.00852 0.0
C701 C 0.20713 0.85483 0.00764 0.0
C702 C 0.2445 0.95299 0.01455 0.0
C703 C 0.19838 0.00295 0.01912 0.0
N704 N 0.2177 0.88592 0.01237 0.0
N705 N 0.1888 0.97123 0.01643 0.0
H706 H 0.98911 0.71805 0.96835 0.0
H707 H 0.86907 0.86063 0.01113 0.0
H708 H 0.0206 0.81839 0.97959 0.0
H709 H 0.83319 0.772 0.97719 0.0
H710 H 0.92523 0.84349 0.00227 0.0
H711 H 0.93194 0.73584 0.97277 0.0
C712 C 0.98399 0.74388 0.97142 0.0
C713 C 0.00967 0.76675 0.97379 0.0
C714 C 0.90507 0.82781 -0.00329 0.0
C715 C 0.94452 0.78703 0.97928 0.0
C716 C 0.873 0.83743 0.00195 0.0
C717 C 0.84642 0.81766 0.99491 0.0
C718 C 0.91067 0.79804 0.98459 0.0
C719 C 0.853 0.78796 0.98294 0.0
C720 C 0.95139 0.75397 0.97397 0.0
C721 C 0.00162 0.7999 0.97767 0.0
N722 N 0.88455 0.77895 0.97822 0.0
N723 N 0.96975 0.80897 0.98061 0.0
H724 H 0.70747 -0.00098 0.01918 0.0
H725 H 0.85627 0.11757 0.9892 0.0
H726 H 0.80918 0.96811 0.02016 0.0
H727 H 0.76444 0.1557 0.01667 0.0
H728 H 0.83698 0.06194 -0.00301 0.0
H729 H 0.72573 0.05635 0.01624 0.0
C730 C 0.73359 0.00427 0.01911 0.0
C731 C 0.75684 0.97868 0.01967 0.0
C732 C 0.82105 0.08246 0.00139 0.0
C733 C 0.77768 0.04389 0.01591 0.0
C734 C 0.83192 0.11424 -0.00325 0.0
C735 C 0.81189 0.1413 0.00229 0.0
C736 C 0.78973 0.07757 0.01134 0.0
C737 C 0.78065 0.13546 0.01217 0.0
C738 C 0.74394 0.03695 0.01741 0.0
C739 C 0.79035 0.98694 0.01963 0.0
N740 N 0.77039 0.10411 0.01628 0.0
N741 N 0.79974 0.01879 0.01743 0.0
H742 H 0.15542 0.22009 0.97983 0.0
H743 H 0.96514 0.1716 0.98113 0.0
H744 H 0.11781 0.12931 0.00932 0.0
H745 H -0.00138 0.27205 0.97437 0.0
H746 H 0.02222 0.15365 0.98444 0.0
H747 H 0.09886 0.23789 0.97193 0.0
C748 C 0.13529 0.20398 0.98473 0.0
C749 C 0.14128 0.17325 0.99533 0.0
C750 C 0.01705 0.17959 0.98208 0.0
C751 C 0.07684 0.19317 0.98599 0.0
C752 C 0.98449 0.18985 0.98 0.0
C753 C 0.97708 0.22343 0.97771 0.0
C754 C 0.04239 0.20302 0.98169 0.0
C755 C 0.00321 0.24595 0.97634 0.0
C756 C 0.10309 0.21413 0.98017 0.0
C757 C 0.11432 0.1533 0.00126 0.0
N758 N 0.03476 0.23534 0.97847 0.0
N759 N 0.08327 0.16355 0.9964 0.0
H760 H 0.1116 0.60888 0.20864 0.0
H761 H 0.26957 0.49826 0.23683 0.0
H762 H 0.19155 0.64065 0.25422 0.0
H763 H 0.17929 0.46055 0.20656 0.0
H764 H 0.24596 0.55364 0.2363 0.0
H765 H 0.1406 0.55728 0.20136 0.0
C766 C 0.1353 0.60504 0.2171 0.0
C767 C 0.14902 0.62894 0.23229 0.0
C768 C 0.23151 0.53325 0.22954 0.0
C769 C 0.18241 0.56999 0.22389 0.0
C770 C 0.24502 0.50168 0.22968 0.0
C771 C 0.22618 0.47469 0.22202 0.0
C772 C 0.19908 0.53781 0.22152 0.0
C773 C 0.19453 0.48059 0.21293 0.0
C774 C 0.15185 0.57558 0.21289 0.0
C775 C 0.17993 0.62273 0.24258 0.0
N776 N 0.18188 0.51148 0.2131 0.0
N777 N 0.19556 0.59376 0.23826 0.0
H778 H 0.63936 0.81503 0.79465 0.0
H779 H 0.49325 0.71814 0.734 0.0
H780 H 0.63445 0.80509 0.71744 0.0
H781 H 0.47388 0.7909 0.78881 0.0
H782 H 0.55089 0.73606 0.73283 0.0
H783 H 0.58353 0.79244 0.79767 0.0
C784 C 0.62662 0.80774 0.77838 0.0
C785 C 0.64126 0.81194 0.75574 0.0
C786 C 0.53397 0.74777 0.74523 0.0
C787 C 0.57824 0.7857 0.75917 0.0
C788 C 0.5013 0.73747 0.74607 0.0
C789 C 0.47894 0.75318 0.76152 0.0
C790 C 0.54438 0.77323 0.76042 0.0
C791 C 0.49043 0.77832 0.77661 0.0
C792 C 0.59488 0.79507 0.78013 0.0
C793 C 0.62376 0.80238 0.73518 0.0
N794 N 0.52254 0.7875 0.7758 0.0
N795 N 0.59311 0.78939 0.73738 0.0
H796 H 0.76777 0.33245 0.22708 0.0
H797 H 0.81542 0.52271 0.21923 0.0
H798 H 0.86057 0.37304 0.25047 0.0
H799 H 0.71454 0.48934 0.22115 0.0
H800 H 0.83369 0.46568 0.22122 0.0
H801 H 0.74906 0.3882 0.21696 0.0
C802 C 0.78415 0.35305 0.23011 0.0
C803 C 0.81565 0.34821 0.2398 0.0
C804 C 0.80755 0.47086 0.22097 0.0
C805 C 0.79476 0.41151 0.22785 0.0
C806 C 0.79707 0.50341 0.21966 0.0
C807 C 0.76338 0.51087 0.22045 0.0
C808 C 0.78423 0.44559 0.22294 0.0
C809 C 0.74077 0.48473 0.22082 0.0
C810 C 0.77351 0.38474 0.22428 0.0
C811 C 0.83597 0.37568 0.24327 0.0
N812 N 0.75162 0.45317 0.22231 0.0
N813 N 0.8252 0.40613 0.23723 0.0
H814 H 0.33433 0.22021 0.76839 0.0
H815 H 0.52446 0.17177 0.75994 0.0
H816 H 0.37053 0.13179 0.7343 0.0
H817 H 0.49158 0.27151 0.7722 0.0
H818 H 0.46721 0.15423 0.75734 0.0
H819 H 0.3913 0.23746 0.77552 0.0
C820 C 0.35422 0.20451 0.76233 0.0
C821 C 0.34771 0.17459 0.75066 0.0
C822 C 0.47255 0.17992 0.76074 0.0
C823 C 0.4126 0.19384 0.7591 0.0
C824 C 0.50523 0.18993 0.76242 0.0
C825 C 0.51285 0.22323 0.76606 0.0
C826 C 0.44729 0.2033 0.7629 0.0
C827 C 0.48684 0.24563 0.76915 0.0
C828 C 0.38665 0.21433 0.76645 0.0
C829 C 0.37439 0.15514 0.74324 0.0
N830 N 0.45516 0.23527 0.76738 0.0
N831 N 0.40565 0.16504 0.74769 0.0
H832 H 0.76413 0.49177 0.51758 0.0
H833 H 0.60409 0.38025 0.53418 0.0
H834 H 0.66784 0.53203 0.53245 0.0
H835 H 0.69201 0.34773 0.49757 0.0
H836 H 0.62966 0.43399 0.54062 0.0
H837 H 0.74058 0.43662 0.51804 0.0
C838 C 0.73811 0.48905 0.52128 0.0
C839 C 0.71784 0.51667 0.52469 0.0
C840 C 0.64334 0.41503 0.53125 0.0
C841 C 0.69081 0.45352 0.5251 0.0
C842 C 0.62882 0.38437 0.52757 0.0
C843 C 0.6459 0.35957 0.51517 0.0
C844 C 0.6753 0.42079 0.52272 0.0
C845 C 0.67787 0.36624 0.50704 0.0
C846 C 0.72469 0.45753 0.52139 0.0
C847 C 0.68434 0.51149 0.52952 0.0
N848 N 0.69156 0.39624 0.51098 0.0
N849 N 0.6718 0.4805 0.52942 0.0
H850 H 0.52816 0.31627 0.49234 0.0
H851 H 0.33838 0.27142 0.47369 0.0
H852 H 0.4949 0.21941 0.47152 0.0
H853 H 0.37248 0.35651 0.51301 0.0
H854 H 0.39565 0.25444 0.4678 0.0
H855 H 0.47096 0.33452 0.49402 0.0
C856 C 0.50888 0.29895 0.48781 0.0
C857 C 0.5163 0.26619 0.48197 0.0
C858 C 0.3905 0.27679 0.47774 0.0
C859 C 0.45087 0.28685 0.48406 0.0
C860 C 0.35787 0.28645 0.48115 0.0
C861 C 0.35067 0.31534 0.49393 0.0
C862 C 0.41601 0.29638 0.48697 0.0
C863 C 0.37688 0.33395 0.50315 0.0
C864 C 0.47623 0.30932 0.48895 0.0
C865 C 0.49027 0.24482 0.47631 0.0
N866 N 0.40838 0.32421 0.49941 0.0
N867 N 0.45867 0.2555 0.47759 0.0
H868 H 0.36181 0.61656 0.48202 0.0
H869 H 0.21674 0.4989 0.52371 0.0
H870 H 0.27203 0.6539 0.51341 0.0
H871 H 0.31685 0.46588 0.5138 0.0
H872 H 0.23532 0.55576 0.51912 0.0
H873 H 0.34405 0.56072 0.49135 0.0
C874 C 0.33824 0.61301 0.49074 0.0
C875 C 0.31831 0.63991 0.49691 0.0
C876 C 0.25324 0.53606 0.51826 0.0
C877 C 0.29797 0.57605 0.50778 0.0
C878 C 0.24269 0.50362 0.52091 0.0
C879 C 0.26525 0.47758 0.51894 0.0
C880 C 0.28647 0.54241 0.51327 0.0
C881 C 0.29858 0.48514 0.5154 0.0
C882 C 0.32826 0.58113 0.49625 0.0
C883 C 0.28813 0.63383 0.50833 0.0
N884 N 0.30811 0.51686 0.51236 0.0
N885 N 0.27878 0.60248 0.51332 0.0
H886 H 0.47227 0.69328 0.44819 0.0
H887 H 0.63697 0.68887 0.52044 0.0
H888 H 0.4944 0.76994 0.49948 0.0
H889 H 0.6366 0.66564 0.44466 0.0
H890 H 0.58175 0.71275 0.51612 0.0
H891 H 0.53027 0.67641 0.44909 0.0
C892 C 0.48941 0.70668 0.45945 0.0
C893 C 0.4787 0.733 0.47376 0.0
C894 C 0.594 0.70265 0.50046 0.0
C895 C 0.54431 0.71345 0.4753 0.0
C896 C 0.62528 0.68894 0.50293 0.0
C897 C 0.64116 0.67535 0.48287 0.0
C898 C 0.57836 0.7018 0.47797 0.0
C899 C 0.62515 0.67607 0.46052 0.0
C900 C 0.52235 0.69715 0.4599 0.0
C901 C 0.50179 0.74963 0.48807 0.0
N902 N 0.59431 0.68865 0.45871 0.0
N903 N 0.5335 0.73921 0.4888 0.0
H904 H 0.67381 0.96217 0.72605 0.0
H905 H 0.72428 0.15223 0.7252 0.0
H906 H 0.77483 -0.00545 0.72175 0.0
H907 H 0.63196 0.11553 0.75264 0.0
H908 H 0.74171 0.09541 0.71744 0.0
H909 H 0.65627 0.01953 0.72812 0.0
C910 C 0.6923 0.98131 0.72515 0.0
C911 C 0.72589 0.9735 0.72398 0.0
C912 C 0.71766 0.09991 0.72516 0.0
C913 C 0.70592 0.03919 0.72656 0.0
C914 C 0.70773 0.13226 0.72963 0.0
C915 C 0.6767 0.13859 0.7397 0.0
C916 C 0.6962 0.07385 0.7305 0.0
C917 C 0.65619 0.1118 0.74503 0.0
C918 C 0.68226 0.01405 0.72653 0.0
C919 C 0.74869 -0.00057 0.72287 0.0
N920 N 0.66626 0.08064 0.74028 0.0
N921 N 0.7383 0.03116 0.72433 0.0
H922 H 0.15704 0.26491 0.26818 0.0
H923 H 0.96732 0.31511 0.27219 0.0
H924 H 0.11843 0.35737 0.24235 0.0
H925 H -0.00104 0.21358 0.27123 0.0
H926 H 0.02462 0.33231 0.27013 0.0
H927 H 0.10061 0.24679 0.27678 0.0
C928 C 0.13674 0.28133 0.26429 0.0
C929 C 0.14235 0.31259 0.25441 0.0
C930 C 0.019 0.30627 0.27056 0.0
C931 C 0.07828 0.29239 0.26461 0.0
C932 C 0.9863 0.29639 0.2719 0.0
C933 C 0.97828 0.26282 0.27152 0.0
C934 C 0.0439 0.28246 0.26899 0.0
C935 C 0.00402 0.23973 0.27128 0.0
C936 C 0.10466 0.27101 0.26923 0.0
C937 C 0.11523 0.33296 0.24977 0.0
N938 N 0.03577 0.24999 0.26983 0.0
N939 N 0.0844 0.32255 0.25501 0.0
H940 H 0.26846 0.83301 0.72843 0.0
H941 H 0.31511 0.02384 0.72562 0.0
H942 H 0.36226 0.87186 0.75126 0.0
H943 H 0.21457 0.98943 0.72529 0.0
H944 H 0.33391 0.96697 0.72788 0.0
H945 H 0.24924 0.88932 0.72123 0.0
C946 C 0.28497 0.85336 0.73197 0.0
C947 C 0.31695 0.84779 0.74055 0.0
C948 C 0.30774 0.97188 0.72716 0.0
C949 C 0.29534 0.91195 0.73202 0.0
C950 C 0.29696 0.00434 0.72569 0.0
C951 C 0.26317 0.01146 0.7255 0.0
C952 C 0.28462 0.9463 0.72828 0.0
C953 C 0.24084 0.98509 0.7256 0.0
C954 C 0.274 0.88541 0.72783 0.0
C955 C 0.33734 0.87502 0.74479 0.0
N956 N 0.25197 0.95363 0.72711 0.0
N957 N 0.32622 0.90591 0.74039 0.0
H958 H -0.00572 0.76894 0.27693 0.0
H959 H 0.87322 0.62728 0.23546 0.0
H960 H 0.02654 0.66987 0.26153 0.0
H961 H 0.83883 0.71345 0.27343 0.0
H962 H 0.92974 0.64398 0.24336 0.0
H963 H 0.93721 0.75011 0.27552 0.0
C964 C 0.98937 0.74313 0.27361 0.0
C965 C 0.01516 0.72097 0.26911 0.0
C966 C 0.90985 0.65918 0.25006 0.0
C967 C 0.95007 0.6995 0.26705 0.0
C968 C 0.87756 0.64983 0.24537 0.0
C969 C 0.85128 0.66912 0.25371 0.0
C970 C 0.91598 0.68825 0.26292 0.0
C971 C 0.85839 0.69792 0.26663 0.0
C972 C 0.95682 0.73243 0.27279 0.0
C973 C 0.00743 0.6878 0.26505 0.0
N974 N 0.89014 0.70677 0.27072 0.0
N975 N 0.97552 0.67816 0.26375 0.0
H976 H 0.41113 0.02116 0.97303 0.0
H977 H 0.59168 0.00405 0.0279 0.0
H978 H 0.45154 0.08211 0.02918 0.0
H979 H 0.55071 0.93304 0.9787 0.0
H980 H 0.54451 0.03975 0.02106 0.0
H981 H 0.46552 -0.00446 0.96759 0.0
C982 C 0.43172 0.02981 0.98366 0.0
C983 C 0.42708 0.05373 0.00155 0.0
C984 C 0.54585 0.01657 0.01148 0.0
C985 C 0.48876 0.02443 0.99577 0.0
C986 C 0.57279 -0.00379 0.01539 0.0
C987 C 0.5748 0.96555 0.00399 0.0
C988 C 0.52025 0.00596 0.99639 0.0
C989 C 0.54993 0.9566 0.98779 0.0
C990 C 0.4626 0.01503 0.98072 0.0
C991 C 0.4542 0.06366 0.01524 0.0
N992 N 0.52328 0.97655 0.98473 0.0
N993 N 0.48377 0.04883 0.01218 0.0
H994 H 0.04745 0.55588 0.93908 0.0
H995 H 0.96382 0.41591 0.01666 0.0
H996 H 0.02442 0.57555 0.01354 0.0
H997 H 0.94415 0.43302 0.94135 0.0
H998 H 0.99269 0.46909 0.01842 0.0
H999 H 0.01913 0.50344 0.94215 0.0
C1000 C 0.0368 0.54898 0.95622 0.0
C1001 C 0.03837 0.57023 0.97607 0.0
C1002 C 0.98158 0.46118 0.00168 0.0
C1003 C 0.00551 0.51005 0.97964 0.0
C1004 C 0.96475 0.43105 0.00069 0.0
C1005 C 0.9513 0.41998 0.97882 0.0
C1006 C 0.98544 0.47972 0.98056 0.0
C1007 C 0.95432 0.44031 0.95855 0.0
C1008 C 0.02049 0.51909 0.95791 0.0
C1009 C 0.02431 0.55975 -0.00211 0.0
N1010 N 0.97129 0.46889 0.95987 0.0
N1011 N 0.00824 0.53031 -0.0009 0.0
H1012 H 0.57761 0.5225 0.26841 0.0
H1013 H 0.43981 0.43147 0.1961 0.0
H1014 H 0.55124 0.54794 0.19545 0.0
H1015 H 0.41494 0.46335 0.26798 0.0
H1016 H 0.4912 0.46192 0.19888 0.0
H1017 H 0.52592 0.4915 0.2719 0.0
C1018 C 0.56075 0.52248 0.25338 0.0
C1019 C 0.56878 0.53824 0.23162 0.0
C1020 C 0.47465 0.46182 0.21417 0.0
C1021 C 0.51089 0.50145 0.23524 0.0
C1022 C 0.44538 0.44438 0.21267 0.0
C1023 C 0.42292 0.44481 0.23181 0.0
C1024 C 0.48186 0.47973 0.23502 0.0
C1025 C 0.4317 0.46181 0.25293 0.0
C1026 C 0.53148 0.50441 0.25536 0.0
C1027 C 0.54633 0.53607 0.21251 0.0
N1028 N 0.46058 0.47885 0.25396 0.0
N1029 N 0.51874 0.51766 0.21465 0.0
H1030 H 0.5251 0.41072 0.725 0.0
H1031 H 0.4238 0.5451 0.79389 0.0
H1032 H 0.54159 0.43479 0.79976 0.0
H1033 H 0.46258 0.5717 0.72422 0.0
H1034 H 0.45541 0.49427 0.79238 0.0
H1035 H 0.49342 0.46183 0.72064 0.0
C1036 C 0.52301 0.42696 0.74031 0.0
C1037 C 0.53656 0.41846 0.76277 0.0
C1038 C 0.45658 0.51106 0.77727 0.0
C1039 C 0.49882 0.47571 0.75806 0.0
C1040 C 0.43848 0.54003 0.77804 0.0
C1041 C 0.44046 0.56284 0.75917 0.0
C1042 C 0.4767 0.50448 0.75741 0.0
C1043 C 0.45977 0.55468 0.739 0.0
C1044 C 0.50451 0.45591 0.73781 0.0
C1045 C 0.53156 0.44009 0.78214 0.0
N1046 N 0.47737 0.52608 0.73866 0.0
N1047 N 0.51279 0.46737 0.77942 0.0
H1048 H 0.93017 0.54242 0.55673 0.0
H1049 H 0.0727 0.46221 0.47963 0.0
H1050 H 0.91322 0.52165 0.48154 0.0
H1051 H 0.05501 0.44081 0.5546 0.0
H1052 H 0.01897 0.48999 0.47778 0.0
H1053 H 0.98245 0.5137 0.55422 0.0
C1054 C 0.93759 0.53215 0.53956 0.0
C1055 C 0.91721 0.53466 0.5193 0.0
C1056 C 0.02685 0.47871 0.49446 0.0
C1057 C 0.97729 0.50141 0.51637 0.0
C1058 C 0.05731 0.46252 0.49549 0.0
C1059 C 0.06837 0.44894 0.51731 0.0
C1060 C 0.00793 0.48181 0.51548 0.0
C1061 C 0.0477 0.45112 0.53746 0.0
C1062 C 0.96742 0.51561 0.5382 0.0
C1063 C 0.92837 0.52099 0.4975 0.0
N1064 N 0.01877 0.46751 0.53611 0.0
N1065 N 0.95776 0.50482 0.49659 0.0
H1066 H 0.54207 0.05728 0.43895 0.0
H1067 H 0.46307 0.91447 0.51503 0.0
H1068 H 0.52756 0.07287 0.51508 0.0
H1069 H 0.4306 0.94113 0.44368 0.0
H1070 H 0.49391 0.96644 0.51723 0.0
H1071 H 0.5109 0.00638 0.44177 0.0
C1072 C 0.53276 0.04978 0.45637 0.0
C1073 C 0.53766 0.06941 0.47681 0.0
C1074 C 0.47951 0.96092 0.50133 0.0
C1075 C 0.50173 0.01104 0.4801 0.0
C1076 C 0.46157 0.9315 0.50014 0.0
C1077 C 0.44399 0.92346 0.47916 0.0
C1078 C 0.48035 0.98174 0.48121 0.0
C1079 C 0.44398 0.94611 0.46013 0.0
C1080 C 0.51484 0.0208 0.45792 0.0
C1081 C 0.5251 0.05825 0.49895 0.0
N1082 N 0.4622 0.97391 0.46149 0.0
N1083 N 0.50756 0.02969 0.50003 0.0
H1084 H 0.9129 0.9665 0.76925 0.0
H1085 H 0.08946 0.98632 0.70755 0.0
H1086 H 0.94547 0.91519 0.70566 0.0
H1087 H 0.05593 0.05053 0.7643 0.0
H1088 H 0.04046 0.95281 0.71266 0.0
H1089 H 0.9683 0.99033 0.77352 0.0
C1090 C 0.93196 0.95959 0.75661 0.0
C1091 C 0.92481 0.93886 0.7371 0.0
C1092 C 0.04379 0.97402 0.72421 0.0
C1093 C 0.98763 0.96614 0.74162 0.0
C1094 C 0.07181 0.99318 0.72129 0.0
C1095 C 0.07659 0.02134 0.73541 0.0
C1096 C 0.01988 0.98327 0.74115 0.0
C1097 C 0.05315 0.02888 0.75312 0.0
C1098 C 0.96341 0.97339 0.75891 0.0
C1099 C 0.95003 0.93118 0.7209 0.0
N1100 N 0.02546 0.01017 0.7553 0.0
N1101 N 0.9802 0.94491 0.72346 0.0
H1102 H 0.96384 0.0756 0.22821 0.0
H1103 H 0.04179 0.93016 0.30273 0.0
H1104 H 0.93566 0.05153 0.30102 0.0
H1105 H 0.02401 0.91588 0.22683 0.0
H1106 H 0.01234 0.98208 0.30082 0.0
H1107 H 0.99287 0.02266 0.2255 0.0
C1108 C 0.96289 0.05899 0.24337 0.0
C1109 C 0.94691 0.068 0.26484 0.0
C1110 C 0.01512 0.96771 0.28452 0.0
C1111 C 0.98137 0.00848 0.26213 0.0
C1112 C 0.03207 0.93809 0.28554 0.0
C1113 C 0.03556 0.91848 0.26491 0.0
C1114 C 0.00158 0.97823 0.26267 0.0
C1115 C 0.02258 0.93035 0.2431 0.0
C1116 C 0.97983 0.02897 0.24186 0.0
C1117 C 0.94774 0.04582 0.28416 0.0
N1118 N 0.00602 0.95957 0.24254 0.0
N1119 N 0.96495 0.01738 0.28244 0.0
H1120 H 0.26388 0.25277 0.19452 0.0
H1121 H 0.31516 0.22513 0.0571 0.0
H1122 H 0.31678 0.32503 0.1531 0.0
H1123 H 0.26405 0.15353 0.10023 0.0
H1124 H 0.32187 0.2599 0.09301 0.0
H1125 H 0.26964 0.21367 0.16138 0.0
C1126 C 0.27705 0.26018 0.17847 0.0
C1127 C 0.28964 0.2921 0.17635 0.0
C1128 C 0.3095 0.23643 0.09468 0.0
C1129 C 0.29612 0.24777 0.13824 0.0
C1130 C 0.30578 0.21665 0.07425 0.0
C1131 C 0.28885 0.18675 0.0759 0.0
C1132 C 0.29609 0.22607 0.11675 0.0
C1133 C 0.27699 0.17667 0.09834 0.0
C1134 C 0.28036 0.23792 0.15956 0.0
C1135 C 0.30682 0.30053 0.15537 0.0
N1136 N 0.28061 0.19639 0.11787 0.0
N1137 N 0.30922 0.2786 0.13694 0.0
H1138 H 0.32235 0.67007 0.8377 0.0
H1139 H 0.15014 0.73429 0.88943 0.0
H1140 H 0.25728 0.73587 0.79987 0.0
H1141 H 0.21754 0.67512 0.93067 0.0
H1142 H 0.18581 0.72835 0.85425 0.0
H1143 H 0.28109 0.66466 0.86969 0.0
C1144 C 0.29914 0.68296 0.836 0.0
C1145 C 0.29321 0.70373 0.81636 0.0
C1146 C 0.19276 0.71636 0.87088 0.0
C1147 C 0.24621 0.69797 0.85276 0.0
C1148 C 0.17241 0.71975 0.89089 0.0
C1149 C 0.18126 0.70537 0.91281 0.0
C1150 C 0.22229 0.69857 0.8729 0.0
C1151 C 0.21008 0.68658 0.91395 0.0
C1152 C 0.27572 0.68004 0.85428 0.0
C1153 C 0.26295 0.72008 0.81499 0.0
N1154 N 0.22984 0.68395 0.89428 0.0
N1155 N 0.24066 0.71704 0.83303 0.0
H1156 H 0.72355 0.83805 0.1015 0.0
H1157 H 0.67287 0.66125 0.15256 0.0
H1158 H 0.67374 0.76484 0.05895 0.0
H1159 H 0.72783 0.7335 0.19263 0.0
H1160 H 0.66574 0.70127 0.11997 0.0
H1161 H 0.71829 0.80269 0.13687 0.0
C1162 C 0.71115 0.81456 0.09979 0.0
C1163 C 0.69923 0.80404 0.07746 0.0
C1164 C 0.67906 0.70849 0.136 0.0
C1165 C 0.69334 0.76331 0.1176 0.0
C1166 C 0.68293 0.68576 0.15463 0.0
C1167 C 0.70117 0.69415 0.17514 0.0
C1168 C 0.69353 0.73978 0.13799 0.0
C1169 C 0.714 0.72602 0.17691 0.0
C1170 C 0.70818 0.79437 0.1199 0.0
C1171 C 0.68322 0.77362 0.07598 0.0
N1172 N 0.71014 0.74761 0.1585 0.0
N1173 N 0.681 0.75407 0.09578 0.0
H1174 H 0.66077 0.31262 0.84447 0.0
H1175 H 0.83754 0.25917 0.89376 0.0
H1176 H 0.73269 0.25942 0.80278 0.0
H1177 H 0.76782 0.31416 0.93608 0.0
H1178 H 0.80155 0.26459 0.85874 0.0
H1179 H 0.70146 0.31928 0.8767 0.0
C1180 C 0.68531 0.30279 0.842 0.0
C1181 C 0.69341 0.28512 0.82116 0.0
C1182 C 0.79414 0.27582 0.87557 0.0
C1183 C 0.73981 0.29226 0.85784 0.0
C1184 C 0.8147 0.27274 0.89548 0.0
C1185 C 0.80533 0.28611 0.91763 0.0
C1186 C 0.76383 0.29215 0.87794 0.0
C1187 C 0.77569 0.30353 0.91916 0.0
C1188 C 0.70845 0.30643 0.86041 0.0
C1189 C 0.72537 0.27267 0.81881 0.0
N1190 N 0.75572 0.30579 0.89958 0.0
N1191 N 0.74733 0.27624 0.83701 0.0
H1192 H 0.76894 0.73635 0.54998 0.0
H1193 H 0.81932 0.76299 0.68802 0.0
H1194 H 0.81412 0.6608 0.59317 0.0
H1195 H 0.76226 0.83166 0.64634 0.0
H1196 H 0.82599 0.72846 0.65193 0.0
H1197 H 0.77498 0.77505 0.58339 0.0
C1198 C 0.7805 0.7281 0.56647 0.0
C1199 C 0.79075 0.69539 0.569 0.0
C1200 C 0.81231 0.75125 0.65062 0.0
C1201 C 0.79761 0.73931 0.60736 0.0
C1202 C 0.80863 0.7709 0.67114 0.0
C1203 C 0.79009 0.79989 0.66996 0.0
C1204 C 0.7974 0.76092 0.6289 0.0
C1205 C 0.77655 0.80927 0.64786 0.0
C1206 C 0.78393 0.75012 0.58554 0.0
C1207 C 0.80596 0.68591 0.59056 0.0
N1208 N 0.78032 0.78976 0.62822 0.0
N1209 N 0.80861 0.70769 0.60906 0.0
H1210 H 0.82667 0.17451 0.343 0.0
H1211 H 0.65964 0.24282 0.39956 0.0
H1212 H 0.75714 0.23445 0.3042 0.0
H1213 H 0.72056 0.1714 0.4355 0.0
H1214 H 0.69425 0.23799 0.36374 0.0
H1215 H 0.78716 0.16996 0.37618 0.0
C1216 C 0.80284 0.1862 0.34132 0.0
C1217 C 0.79515 0.20514 0.32102 0.0
C1218 C 0.69999 0.22311 0.37933 0.0
C1219 C 0.75023 0.2006 0.35889 0.0
C1220 C 0.68031 0.22597 0.39974 0.0
C1221 C 0.68751 0.20753 0.42032 0.0
C1222 C 0.72731 0.20189 0.37963 0.0
C1223 C 0.71434 0.18592 0.41982 0.0
C1224 C 0.7804 0.18379 0.36029 0.0
C1225 C 0.76416 0.2201 0.31977 0.0
N1226 N 0.73353 0.18386 0.39982 0.0
N1227 N 0.74295 0.21778 0.33854 0.0
H1228 H 0.21291 0.23404 0.69332 0.0
H1229 H 0.2142 0.25584 0.55371 0.0
H1230 H 0.1824 0.1547 0.64702 0.0
H1231 H 0.18663 0.33662 0.59971 0.0
H1232 H 0.20644 0.21782 0.58761 0.0
H1233 H 0.20695 0.27251 0.6595 0.0
C1234 C 0.20441 0.22496 0.67608 0.0
C1235 C 0.19795 0.19145 0.67275 0.0
C1236 C 0.20161 0.2438 0.59017 0.0
C1237 C 0.19205 0.23467 0.63413 0.0
C1238 C 0.20611 0.26537 0.57093 0.0
C1239 C 0.20095 0.29914 0.57414 0.0
C1240 C 0.1928 0.25636 0.61282 0.0
C1241 C 0.19067 0.3106 0.59668 0.0
C1242 C 0.20101 0.24678 0.65687 0.0
C1243 C 0.18734 0.18053 0.65015 0.0
N1244 N 0.18743 0.28928 0.61537 0.0
N1245 N 0.18525 0.20204 0.63149 0.0
H1246 H 0.26403 0.81412 0.43738 0.0
H1247 H 0.15602 0.81581 0.33948 0.0
H1248 H 0.32977 0.76184 0.39013 0.0
H1249 H 0.2339 0.76738 0.30058 0.0
H1250 H 0.1925 0.82229 0.37381 0.0
H1251 H 0.22655 0.82305 0.40379 0.0
C1252 C 0.27055 0.8048 0.41974 0.0
C1253 C 0.29971 0.78708 0.41638 0.0
C1254 C 0.2021 0.81058 0.35785 0.0
C1255 C 0.25684 0.79646 0.37771 0.0
C1256 C 0.18114 0.80712 0.3381 0.0
C1257 C 0.19201 0.79087 0.31734 0.0
C1258 C 0.23419 0.79755 0.35675 0.0
C1259 C 0.22454 0.77971 0.31645 0.0
C1260 C 0.24903 0.80966 0.40047 0.0
C1261 C 0.30722 0.77532 0.39338 0.0
N1262 N 0.24437 0.78301 0.33594 0.0
N1263 N 0.28583 0.78005 0.37497 0.0
loop_
_geom_bond_atom_site_label_1
_geom_bond_atom_site_label_2
_geom_bond_distance
_geom_bond_site_symmetry_2
_ccdc_geom_bond_type
Co0 O3 1.970 1_554 S
Co0 N17 1.989 . S
Co0 O25 1.967 . S
Co0 O32 1.920 . S
Co1 O4 1.966 1_554 S
Co1 N10 2.022 . S
Co1 N18 1.993 . S
Co1 O26 1.941 . S
C2 O3 1.258 . S
C2 O4 1.263 . S
O3 Co0 1.970 1_556 S
O3 C2 1.258 . S
O4 Co1 1.966 1_556 S
O4 C2 1.263 . S
C5 O6 1.228 1_554 S
C5 O32 1.297 . S
O6 C5 1.228 1_556 S
C7 C9 1.400 . S
C7 N10 1.351 . S
C7 C12 1.501 1_554 S
C8 C9 1.387 . S
C8 N11 1.341 . S
C9 C7 1.400 . S
C9 C8 1.387 . S
N10 Co1 2.022 . S
N10 C7 1.351 . S
N10 N11 1.365 . S
N11 C8 1.341 . S
N11 N10 1.365 . S
N11 H31 0.862 . S
C12 C7 1.501 1_556 S
C12 H13 0.961 . S
C12 H14 0.961 . S
C12 H15 0.960 . S
H13 C12 0.961 . S
H14 C12 0.961 . S
H15 C12 0.960 . S
C16 N17 1.342 . S
C16 C20 1.401 . S
C16 C21 1.499 . S
N17 Co0 1.989 . S
N17 C16 1.342 . S
N17 N18 1.388 . S
N18 Co1 1.993 . S
N18 N17 1.388 . S
N18 C19 1.346 . S
C19 N18 1.346 . S
C19 C20 1.396 . S
C19 C29 1.510 . S
C20 C16 1.401 . S
C20 C19 1.396 . S
C21 C16 1.499 . S
C21 H22 0.959 . S
C21 H23 0.960 . S
C21 H24 0.961 . S
H22 C21 0.959 . S
H23 C21 0.960 . S
H24 C21 0.961 . S
O25 Co0 1.967 . S
O25 C33 1.258 . S
O26 Co1 1.941 . S
O26 C33 1.266 . S
H27 C29 0.959 . S
H28 C29 0.961 . S
C29 C19 1.510 . S
C29 H27 0.959 . S
C29 H28 0.961 . S
C29 H30 0.960 . S
H30 C29 0.960 . S
H31 N11 0.862 . S
O32 Co0 1.920 . S
O32 C5 1.297 . S
C33 O25 1.258 . S
C33 O26 1.266 . S
Co34 O37 1.970 1_556 S
Co34 N51 1.989 . S
Co34 O59 1.967 . S
Co34 O66 1.920 . S
Co35 O38 1.966 1_556 S
Co35 N44 2.022 . S
Co35 N52 1.993 . S
Co35 O60 1.941 . S
C36 O37 1.258 . S
C36 O38 1.263 . S
O37 Co34 1.970 1_554 S
O37 C36 1.258 . S
O38 Co35 1.966 1_554 S
O38 C36 1.263 . S
C39 O40 1.228 1_556 S
C39 O66 1.297 . S
O40 C39 1.228 1_554 S
C41 C43 1.400 . S
C41 N44 1.351 . S
C41 C46 1.501 1_556 S
C42 C43 1.387 . S
C42 N45 1.341 . S
C43 C41 1.400 . S
C43 C42 1.387 . S
N44 Co35 2.022 . S
N44 C41 1.351 . S
N44 N45 1.365 . S
N45 C42 1.341 . S
N45 N44 1.365 . S
N45 H65 0.862 . S
C46 C41 1.501 1_554 S
C46 H47 0.961 . S
C46 H48 0.961 . S
C46 H49 0.960 . S
H47 C46 0.961 . S
H48 C46 0.961 . S
H49 C46 0.960 . S
C50 N51 1.342 . S
C50 C54 1.401 . S
C50 C55 1.499 . S
N51 Co34 1.989 . S
N51 C50 1.342 . S
N51 N52 1.388 . S
N52 Co35 1.993 . S
N52 N51 1.388 . S
N52 C53 1.346 . S
C53 N52 1.346 . S
C53 C54 1.396 . S
C53 C63 1.510 . S
C54 C50 1.401 . S
C54 C53 1.396 . S
C55 C50 1.499 . S
C55 H56 0.959 . S
C55 H57 0.960 . S
C55 H58 0.961 . S
H56 C55 0.959 . S
H57 C55 0.960 . S
H58 C55 0.961 . S
O59 Co34 1.967 . S
O59 C67 1.258 . S
O60 Co35 1.941 . S
O60 C67 1.266 . S
H61 C63 0.959 . S
H62 C63 0.961 . S
C63 C53 1.510 . S
C63 H61 0.959 . S
C63 H62 0.961 . S
C63 H64 0.960 . S
H64 C63 0.960 . S
H65 N45 0.862 . S
O66 Co34 1.920 . S
O66 C39 1.297 . S
C67 O59 1.258 . S
C67 O60 1.266 . S
Co68 O71 1.970 1_554 S
Co68 N85 1.989 . S
Co68 O93 1.967 . S
Co68 O100 1.920 . S
Co69 O72 1.966 1_554 S
Co69 N78 2.022 . S
Co69 N86 1.993 . S
Co69 O94 1.941 . S
C70 O71 1.258 . S
C70 O72 1.263 . S
O71 Co68 1.970 1_556 S
O71 C70 1.258 . S
O72 Co69 1.966 1_556 S
O72 C70 1.263 . S
C73 O74 1.228 1_554 S
C73 O100 1.297 . S
O74 C73 1.228 1_556 S
C75 C77 1.400 . S
C75 N78 1.351 . S
C75 C80 1.501 1_554 S
C76 C77 1.387 . S
C76 N79 1.341 . S
C77 C75 1.400 . S
C77 C76 1.387 . S
N78 Co69 2.022 . S
N78 C75 1.351 . S
N78 N79 1.365 . S
N79 C76 1.341 . S
N79 N78 1.365 . S
N79 H99 0.862 . S
C80 C75 1.501 1_556 S
C80 H81 0.961 . S
C80 H82 0.961 . S
C80 H83 0.960 . S
H81 C80 0.961 . S
H82 C80 0.961 . S
H83 C80 0.960 . S
C84 N85 1.342 . S
C84 C88 1.401 . S
C84 C89 1.499 . S
N85 Co68 1.989 . S
N85 C84 1.342 . S
N85 N86 1.388 . S
N86 Co69 1.993 . S
N86 N85 1.388 . S
N86 C87 1.346 . S
C87 N86 1.346 . S
C87 C88 1.396 . S
C87 C97 1.510 . S
C88 C84 1.401 . S
C88 C87 1.396 . S
C89 C84 1.499 . S
C89 H90 0.959 . S
C89 H91 0.960 . S
C89 H92 0.961 . S
H90 C89 0.959 . S
H91 C89 0.960 . S
H92 C89 0.961 . S
O93 Co68 1.967 . S
O93 C101 1.258 . S
O94 Co69 1.941 . S
O94 C101 1.266 . S
H95 C97 0.959 . S
H96 C97 0.961 . S
C97 C87 1.510 . S
C97 H95 0.959 . S
C97 H96 0.961 . S
C97 H98 0.960 . S
H98 C97 0.960 . S
H99 N79 0.862 . S
O100 Co68 1.920 . S
O100 C73 1.297 . S
C101 O93 1.258 . S
C101 O94 1.266 . S
Co102 O105 1.970 1_556 S
Co102 N119 1.989 . S
Co102 O127 1.967 . S
Co102 O134 1.920 . S
Co103 O106 1.966 1_556 S
Co103 N112 2.022 . S
Co103 N120 1.993 . S
Co103 O128 1.941 . S
C104 O105 1.258 . S
C104 O106 1.263 . S
O105 Co102 1.970 1_554 S
O105 C104 1.258 . S
O106 Co103 1.966 1_554 S
O106 C104 1.263 . S
C107 O108 1.228 1_556 S
C107 O134 1.297 . S
O108 C107 1.228 1_554 S
C109 C111 1.400 . S
C109 N112 1.351 . S
C109 C114 1.501 1_556 S
C110 C111 1.387 . S
C110 N113 1.341 . S
C111 C109 1.400 . S
C111 C110 1.387 . S
N112 Co103 2.022 . S
N112 C109 1.351 . S
N112 N113 1.365 . S
N113 C110 1.341 . S
N113 N112 1.365 . S
N113 H133 0.862 . S
C114 C109 1.501 1_554 S
C114 H115 0.961 . S
C114 H116 0.961 . S
C114 H117 0.960 . S
H115 C114 0.961 . S
H116 C114 0.961 . S
H117 C114 0.960 . S
C118 N119 1.342 . S
C118 C122 1.401 . S
C118 C123 1.499 . S
N119 Co102 1.989 . S
N119 C118 1.342 . S
N119 N120 1.388 . S
N120 Co103 1.993 . S
N120 N119 1.388 . S
N120 C121 1.346 . S
C121 N120 1.346 . S
C121 C122 1.396 . S
C121 C131 1.510 . S
C122 C118 1.401 . S
C122 C121 1.396 . S
C123 C118 1.499 . S
C123 H124 0.959 . S
C123 H125 0.960 . S
C123 H126 0.961 . S
H124 C123 0.959 . S
H125 C123 0.960 . S
H126 C123 0.961 . S
O127 Co102 1.967 . S
O127 C135 1.258 . S
O128 Co103 1.941 . S
O128 C135 1.266 . S
H129 C131 0.959 . S
H130 C131 0.961 . S
C131 C121 1.510 . S
C131 H129 0.959 . S
C131 H130 0.961 . S
C131 H132 0.960 . S
H132 C131 0.960 . S
H133 N113 0.862 . S
O134 Co102 1.920 . S
O134 C107 1.297 . S
C135 O127 1.258 . S
C135 O128 1.266 . S
Co136 O139 1.970 . S
Co136 N153 1.989 . S
Co136 O161 1.967 . S
Co136 O168 1.920 . S
Co137 O140 1.966 . S
Co137 N146 2.022 . S
Co137 N154 1.993 . S
Co137 O162 1.941 . S
C138 O139 1.258 . S
C138 O140 1.263 . S
O139 Co136 1.970 . S
O139 C138 1.258 . S
O140 Co137 1.966 . S
O140 C138 1.263 . S
C141 O142 1.235 . S
C141 O168 1.289 . S
O142 C141 1.235 . S
C143 C145 1.400 . S
C143 N146 1.351 . S
C143 C148 1.501 . S
C144 C145 1.387 . S
C144 N147 1.341 . S
C145 C143 1.400 . S
C145 C144 1.387 . S
N146 Co137 2.022 . S
N146 C143 1.351 . S
N146 N147 1.365 . S
N147 C144 1.341 . S
N147 N146 1.365 . S
N147 H167 0.862 . S
C148 C143 1.501 . S
C148 H149 0.961 . S
C148 H150 0.961 . S
C148 H151 0.960 . S
H149 C148 0.961 . S
H150 C148 0.961 . S
H151 C148 0.960 . S
C152 N153 1.342 . S
C152 C156 1.401 . S
C152 C157 1.499 . S
N153 Co136 1.989 . S
N153 C152 1.342 . S
N153 N154 1.388 . S
N154 Co137 1.993 . S
N154 N153 1.388 . S
N154 C155 1.346 . S
C155 N154 1.346 . S
C155 C156 1.396 . S
C155 C165 1.510 . S
C156 C152 1.401 . S
C156 C155 1.396 . S
C157 C152 1.499 . S
C157 H158 0.959 . S
C157 H159 0.960 . S
C157 H160 0.961 . S
H158 C157 0.959 . S
H159 C157 0.960 . S
H160 C157 0.961 . S
O161 Co136 1.967 . S
O161 C169 1.258 . S
O162 Co137 1.941 . S
O162 C169 1.266 . S
H163 C165 0.959 . S
H164 C165 0.961 . S
C165 C155 1.510 . S
C165 H163 0.959 . S
C165 H164 0.961 . S
C165 H166 0.960 . S
H166 C165 0.960 . S
H167 N147 0.862 . S
O168 Co136 1.920 . S
O168 C141 1.289 . S
C169 O161 1.258 . S
C169 O162 1.266 . S
Co170 O173 1.970 . S
Co170 N187 1.989 . S
Co170 O195 1.967 . S
Co170 O202 1.920 . S
Co171 O174 1.966 . S
Co171 N180 2.022 . S
Co171 N188 1.993 . S
Co171 O196 1.941 . S
C172 O173 1.258 . S
C172 O174 1.263 . S
O173 Co170 1.970 . S
O173 C172 1.258 . S
O174 Co171 1.966 . S
O174 C172 1.263 . S
C175 O176 1.235 . S
C175 O202 1.289 . S
O176 C175 1.235 . S
C177 C179 1.400 . S
C177 N180 1.351 . S
C177 C182 1.501 . S
C178 C179 1.387 . S
C178 N181 1.341 . S
C179 C177 1.400 . S
C179 C178 1.387 . S
N180 Co171 2.022 . S
N180 C177 1.351 . S
N180 N181 1.365 . S
N181 C178 1.341 . S
N181 N180 1.365 . S
N181 H201 0.862 . S
C182 C177 1.501 . S
C182 H183 0.961 . S
C182 H184 0.961 . S
C182 H185 0.960 . S
H183 C182 0.961 . S
H184 C182 0.961 . S
H185 C182 0.960 . S
C186 N187 1.342 . S
C186 C190 1.401 . S
C186 C191 1.499 . S
N187 Co170 1.989 . S
N187 C186 1.342 . S
N187 N188 1.388 . S
N188 Co171 1.993 . S
N188 N187 1.388 . S
N188 C189 1.346 . S
C189 N188 1.346 . S
C189 C190 1.396 . S
C189 C199 1.510 . S
C190 C186 1.401 . S
C190 C189 1.396 . S
C191 C186 1.499 . S
C191 H192 0.959 . S
C191 H193 0.960 . S
C191 H194 0.961 . S
H192 C191 0.959 . S
H193 C191 0.960 . S
H194 C191 0.961 . S
O195 Co170 1.967 . S
O195 C203 1.258 . S
O196 Co171 1.941 . S
O196 C203 1.266 . S
H197 C199 0.959 . S
H198 C199 0.961 . S
C199 C189 1.510 . S
C199 H197 0.959 . S
C199 H198 0.961 . S
C199 H200 0.960 . S
H200 C199 0.960 . S
H201 N181 0.862 . S
O202 Co170 1.920 . S
O202 C175 1.289 . S
C203 O195 1.258 . S
C203 O196 1.266 . S
Co204 O207 1.970 . S
Co204 N221 1.989 . S
Co204 O229 1.967 . S
Co204 O236 1.920 . S
Co205 O208 1.966 . S
Co205 N214 2.022 . S
Co205 N222 1.993 . S
Co205 O230 1.941 . S
C206 O207 1.258 . S
C206 O208 1.263 . S
O207 Co204 1.970 . S
O207 C206 1.258 . S
O208 Co205 1.966 . S
O208 C206 1.263 . S
C209 O210 1.235 . S
C209 O236 1.289 . S
O210 C209 1.235 . S
C211 C213 1.400 . S
C211 N214 1.351 . S
C211 C216 1.501 . S
C212 C213 1.387 . S
C212 N215 1.341 . S
C213 C211 1.400 . S
C213 C212 1.387 . S
N214 Co205 2.022 . S
N214 C211 1.351 . S
N214 N215 1.365 . S
N215 C212 1.341 . S
N215 N214 1.365 . S
N215 H235 0.862 . S
C216 C211 1.501 . S
C216 H217 0.961 . S
C216 H218 0.961 . S
C216 H219 0.960 . S
H217 C216 0.961 . S
H218 C216 0.961 . S
H219 C216 0.960 . S
C220 N221 1.342 . S
C220 C224 1.401 . S
C220 C225 1.499 . S
N221 Co204 1.989 . S
N221 C220 1.342 . S
N221 N222 1.388 . S
N222 Co205 1.993 . S
N222 N221 1.388 . S
N222 C223 1.346 . S
C223 N222 1.346 . S
C223 C224 1.396 . S
C223 C233 1.510 . S
C224 C220 1.401 . S
C224 C223 1.396 . S
C225 C220 1.499 . S
C225 H226 0.959 . S
C225 H227 0.960 . S
C225 H228 0.961 . S
H226 C225 0.959 . S
H227 C225 0.960 . S
H228 C225 0.961 . S
O229 Co204 1.967 . S
O229 C237 1.258 . S
O230 Co205 1.941 . S
O230 C237 1.266 . S
H231 C233 0.959 . S
H232 C233 0.961 . S
C233 C223 1.510 . S
C233 H231 0.959 . S
C233 H232 0.961 . S
C233 H234 0.960 . S
H234 C233 0.960 . S
H235 N215 0.862 . S
O236 Co204 1.920 . S
O236 C209 1.289 . S
C237 O229 1.258 . S
C237 O230 1.266 . S
Co238 O241 1.970 . S
Co238 N255 1.989 . S
Co238 O263 1.967 . S
Co238 O270 1.920 . S
Co239 O242 1.966 . S
Co239 N248 2.022 . S
Co239 N256 1.993 . S
Co239 O264 1.941 . S
C240 O241 1.258 . S
C240 O242 1.263 . S
O241 Co238 1.970 . S
O241 C240 1.258 . S
O242 Co239 1.966 . S
O242 C240 1.263 . S
C243 O244 1.235 . S
C243 O270 1.289 . S
O244 C243 1.235 . S
C245 C247 1.400 . S
C245 N248 1.351 . S
C245 C250 1.501 . S
C246 C247 1.387 . S
C246 N249 1.341 . S
C247 C245 1.400 . S
C247 C246 1.387 . S
N248 Co239 2.022 . S
N248 C245 1.351 . S
N248 N249 1.365 . S
N249 C246 1.341 . S
N249 N248 1.365 . S
N249 H269 0.862 . S
C250 C245 1.501 . S
C250 H251 0.961 . S
C250 H252 0.961 . S
C250 H253 0.960 . S
H251 C250 0.961 . S
H252 C250 0.961 . S
H253 C250 0.960 . S
C254 N255 1.342 . S
C254 C258 1.401 . S
C254 C259 1.499 . S
N255 Co238 1.989 . S
N255 C254 1.342 . S
N255 N256 1.388 . S
N256 Co239 1.993 . S
N256 N255 1.388 . S
N256 C257 1.346 . S
C257 N256 1.346 . S
C257 C258 1.396 . S
C257 C267 1.510 . S
C258 C254 1.401 . S
C258 C257 1.396 . S
C259 C254 1.499 . S
C259 H260 0.959 . S
C259 H261 0.960 . S
C259 H262 0.961 . S
H260 C259 0.959 . S
H261 C259 0.960 . S
H262 C259 0.961 . S
O263 Co238 1.967 . S
O263 C271 1.258 . S
O264 Co239 1.941 . S
O264 C271 1.266 . S
H265 C267 0.959 . S
H266 C267 0.961 . S
C267 C257 1.510 . S
C267 H265 0.959 . S
C267 H266 0.961 . S
C267 H268 0.960 . S
H268 C267 0.960 . S
H269 N249 0.862 . S
O270 Co238 1.920 . S
O270 C243 1.289 . S
C271 O263 1.258 . S
C271 O264 1.266 . S
Co272 O275 1.970 . S
Co272 N289 1.989 . S
Co272 O297 1.967 . S
Co272 O304 1.920 . S
Co273 O276 1.966 . S
Co273 N282 2.022 . S
Co273 N290 1.993 . S
Co273 O298 1.941 . S
C274 O275 1.258 . S
C274 O276 1.263 . S
O275 Co272 1.970 . S
O275 C274 1.258 . S
O276 Co273 1.966 . S
O276 C274 1.263 . S
C277 O278 1.235 . S
C277 O304 1.289 . S
O278 C277 1.235 . S
C279 C281 1.400 . S
C279 N282 1.351 . S
C279 C284 1.501 . S
C280 C281 1.387 . S
C280 N283 1.341 . S
C281 C279 1.400 . S
C281 C280 1.387 . S
N282 Co273 2.022 . S
N282 C279 1.351 . S
N282 N283 1.365 . S
N283 C280 1.341 . S
N283 N282 1.365 . S
N283 H303 0.862 . S
C284 C279 1.501 . S
C284 H285 0.961 . S
C284 H286 0.961 . S
C284 H287 0.960 . S
H285 C284 0.961 . S
H286 C284 0.961 . S
H287 C284 0.960 . S
C288 N289 1.342 . S
C288 C292 1.401 . S
C288 C293 1.499 . S
N289 Co272 1.989 . S
N289 C288 1.342 . S
N289 N290 1.388 . S
N290 Co273 1.993 . S
N290 N289 1.388 . S
N290 C291 1.346 . S
C291 N290 1.346 . S
C291 C292 1.396 . S
C291 C301 1.510 . S
C292 C288 1.401 . S
C292 C291 1.396 . S
C293 C288 1.499 . S
C293 H294 0.959 . S
C293 H295 0.960 . S
C293 H296 0.961 . S
H294 C293 0.959 . S
H295 C293 0.960 . S
H296 C293 0.961 . S
O297 Co272 1.967 . S
O297 C305 1.258 . S
O298 Co273 1.941 . S
O298 C305 1.266 . S
H299 C301 0.959 . S
H300 C301 0.961 . S
C301 C291 1.510 . S
C301 H299 0.959 . S
C301 H300 0.961 . S
C301 H302 0.960 . S
H302 C301 0.960 . S
H303 N283 0.862 . S
O304 Co272 1.920 . S
O304 C277 1.289 . S
C305 O297 1.258 . S
C305 O298 1.266 . S
Co306 O309 1.970 . S
Co306 N323 1.989 . S
Co306 O331 1.967 . S
Co306 O338 1.920 . S
Co307 O310 1.966 . S
Co307 N316 2.022 . S
Co307 N324 1.993 . S
Co307 O332 1.941 . S
C308 O309 1.258 . S
C308 O310 1.263 . S
O309 Co306 1.970 . S
O309 C308 1.258 . S
O310 Co307 1.966 . S
O310 C308 1.263 . S
C311 O312 1.235 . S
C311 O338 1.289 . S
O312 C311 1.235 . S
C313 C315 1.400 . S
C313 N316 1.351 . S
C313 C318 1.501 . S
C314 C315 1.387 . S
C314 N317 1.341 . S
C315 C313 1.400 . S
C315 C314 1.387 . S
N316 Co307 2.022 . S
N316 C313 1.351 . S
N316 N317 1.365 . S
N317 C314 1.341 . S
N317 N316 1.365 . S
N317 H337 0.862 . S
C318 C313 1.501 . S
C318 H319 0.961 . S
C318 H320 0.961 . S
C318 H321 0.960 . S
H319 C318 0.961 . S
H320 C318 0.961 . S
H321 C318 0.960 . S
C322 N323 1.342 . S
C322 C326 1.401 . S
C322 C327 1.499 . S
N323 Co306 1.989 . S
N323 C322 1.342 . S
N323 N324 1.388 . S
N324 Co307 1.993 . S
N324 N323 1.388 . S
N324 C325 1.346 . S
C325 N324 1.346 . S
C325 C326 1.396 . S
C325 C335 1.510 . S
C326 C322 1.401 . S
C326 C325 1.396 . S
C327 C322 1.499 . S
C327 H328 0.959 . S
C327 H329 0.960 . S
C327 H330 0.961 . S
H328 C327 0.959 . S
H329 C327 0.960 . S
H330 C327 0.961 . S
O331 Co306 1.967 . S
O331 C339 1.258 . S
O332 Co307 1.941 . S
O332 C339 1.266 . S
H333 C335 0.959 . S
H334 C335 0.961 . S
C335 C325 1.510 . S
C335 H333 0.959 . S
C335 H334 0.961 . S
C335 H336 0.960 . S
H336 C335 0.960 . S
H337 N317 0.862 . S
O338 Co306 1.920 . S
O338 C311 1.289 . S
C339 O331 1.258 . S
C339 O332 1.266 . S
Co340 O343 1.970 . S
Co340 N357 1.989 . S
Co340 O365 1.967 . S
Co340 O372 1.920 . S
Co341 O344 1.966 . S
Co341 N350 2.022 . S
Co341 N358 1.993 . S
Co341 O366 1.941 . S
C342 O343 1.258 . S
C342 O344 1.263 . S
O343 Co340 1.970 . S
O343 C342 1.258 . S
O344 Co341 1.966 . S
O344 C342 1.263 . S
C345 O346 1.235 . S
C345 O372 1.289 . S
O346 C345 1.235 . S
C347 C349 1.400 . S
C347 N350 1.351 . S
C347 C352 1.501 . S
C348 C349 1.387 . S
C348 N351 1.341 . S
C349 C347 1.400 . S
C349 C348 1.387 . S
N350 Co341 2.022 . S
N350 C347 1.351 . S
N350 N351 1.365 . S
N351 C348 1.341 . S
N351 N350 1.365 . S
N351 H371 0.862 . S
C352 C347 1.501 . S
C352 H353 0.961 . S
C352 H354 0.961 . S
C352 H355 0.960 . S
H353 C352 0.961 . S
H354 C352 0.961 . S
H355 C352 0.960 . S
C356 N357 1.342 . S
C356 C360 1.401 . S
C356 C361 1.499 . S
N357 Co340 1.989 . S
N357 C356 1.342 . S
N357 N358 1.388 . S
N358 Co341 1.993 . S
N358 N357 1.388 . S
N358 C359 1.346 . S
C359 N358 1.346 . S
C359 C360 1.396 . S
C359 C369 1.510 . S
C360 C356 1.401 . S
C360 C359 1.396 . S
C361 C356 1.499 . S
C361 H362 0.959 . S
C361 H363 0.960 . S
C361 H364 0.961 . S
H362 C361 0.959 . S
H363 C361 0.960 . S
H364 C361 0.961 . S
O365 Co340 1.967 . S
O365 C373 1.258 . S
O366 Co341 1.941 . S
O366 C373 1.266 . S
H367 C369 0.959 . S
H368 C369 0.961 . S
C369 C359 1.510 . S
C369 H367 0.959 . S
C369 H368 0.961 . S
C369 H370 0.960 . S
H370 C369 0.960 . S
H371 N351 0.862 . S
O372 Co340 1.920 . S
O372 C345 1.289 . S
C373 O365 1.258 . S
C373 O366 1.266 . S
Co374 O377 1.970 . S
Co374 N391 1.989 . S
Co374 O399 1.967 . S
Co374 O406 1.920 . S
Co375 O378 1.966 . S
Co375 N384 2.022 . S
Co375 N392 1.993 . S
Co375 O400 1.941 . S
C376 O377 1.258 . S
C376 O378 1.263 . S
O377 Co374 1.970 . S
O377 C376 1.258 . S
O378 Co375 1.966 . S
O378 C376 1.263 . S
C379 O380 1.235 . S
C379 O406 1.289 . S
O380 C379 1.235 . S
C381 C383 1.400 . S
C381 N384 1.351 . S
C381 C386 1.501 . S
C382 C383 1.387 . S
C382 N385 1.341 . S
C383 C381 1.400 . S
C383 C382 1.387 . S
N384 Co375 2.022 . S
N384 C381 1.351 . S
N384 N385 1.365 . S
N385 C382 1.341 . S
N385 N384 1.365 . S
N385 H405 0.862 . S
C386 C381 1.501 . S
C386 H387 0.961 . S
C386 H388 0.961 . S
C386 H389 0.960 . S
H387 C386 0.961 . S
H388 C386 0.961 . S
H389 C386 0.960 . S
C390 N391 1.342 . S
C390 C394 1.401 . S
C390 C395 1.499 . S
N391 Co374 1.989 . S
N391 C390 1.342 . S
N391 N392 1.388 . S
N392 Co375 1.993 . S
N392 N391 1.388 . S
N392 C393 1.346 . S
C393 N392 1.346 . S
C393 C394 1.396 . S
C393 C403 1.510 . S
C394 C390 1.401 . S
C394 C393 1.396 . S
C395 C390 1.499 . S
C395 H396 0.959 . S
C395 H397 0.960 . S
C395 H398 0.961 . S
H396 C395 0.959 . S
H397 C395 0.960 . S
H398 C395 0.961 . S
O399 Co374 1.967 . S
O399 C407 1.258 . S
O400 Co375 1.941 . S
O400 C407 1.266 . S
H401 C403 0.959 . S
H402 C403 0.961 . S
C403 C393 1.510 . S
C403 H401 0.959 . S
C403 H402 0.961 . S
C403 H404 0.960 . S
H404 C403 0.960 . S
H405 N385 0.862 . S
O406 Co374 1.920 . S
O406 C379 1.289 . S
C407 O399 1.258 . S
C407 O400 1.266 . S
Co408 O411 1.970 . S
Co408 N425 1.989 . S
Co408 O433 1.967 . S
Co408 O440 1.920 . S
Co409 O412 1.966 . S
Co409 N418 2.022 . S
Co409 N426 1.993 . S
Co409 O434 1.941 . S
C410 O411 1.258 . S
C410 O412 1.263 . S
O411 Co408 1.970 . S
O411 C410 1.258 . S
O412 Co409 1.966 . S
O412 C410 1.263 . S
C413 O414 1.235 . S
C413 O440 1.289 . S
O414 C413 1.235 . S
C415 C417 1.400 . S
C415 N418 1.351 . S
C415 C420 1.501 . S
C416 C417 1.387 . S
C416 N419 1.341 . S
C417 C415 1.400 . S
C417 C416 1.387 . S
N418 Co409 2.022 . S
N418 C415 1.351 . S
N418 N419 1.365 . S
N419 C416 1.341 . S
N419 N418 1.365 . S
N419 H439 0.862 . S
C420 C415 1.501 . S
C420 H421 0.961 . S
C420 H422 0.961 . S
C420 H423 0.960 . S
H421 C420 0.961 . S
H422 C420 0.961 . S
H423 C420 0.960 . S
C424 N425 1.342 . S
C424 C428 1.401 . S
C424 C429 1.499 . S
N425 Co408 1.989 . S
N425 C424 1.342 . S
N425 N426 1.388 . S
N426 Co409 1.993 . S
N426 N425 1.388 . S
N426 C427 1.346 . S
C427 N426 1.346 . S
C427 C428 1.396 . S
C427 C437 1.510 . S
C428 C424 1.401 . S
C428 C427 1.396 . S
C429 C424 1.499 . S
C429 H430 0.959 . S
C429 H431 0.960 . S
C429 H432 0.961 . S
H430 C429 0.959 . S
H431 C429 0.960 . S
H432 C429 0.961 . S
O433 Co408 1.967 . S
O433 C441 1.258 . S
O434 Co409 1.941 . S
O434 C441 1.266 . S
H435 C437 0.959 . S
H436 C437 0.961 . S
C437 C427 1.510 . S
C437 H435 0.959 . S
C437 H436 0.961 . S
C437 H438 0.960 . S
H438 C437 0.960 . S
H439 N419 0.862 . S
O440 Co408 1.920 . S
O440 C413 1.289 . S
C441 O433 1.258 . S
C441 O434 1.266 . S
Co442 O445 1.970 . S
Co442 N459 1.989 . S
Co442 O467 1.967 . S
Co442 O474 1.920 . S
Co443 O446 1.966 . S
Co443 N452 2.022 . S
Co443 N460 1.993 . S
Co443 O468 1.941 . S
C444 O445 1.258 . S
C444 O446 1.263 . S
O445 Co442 1.970 . S
O445 C444 1.258 . S
O446 Co443 1.966 . S
O446 C444 1.263 . S
C447 O448 1.235 . S
C447 O474 1.289 . S
O448 C447 1.235 . S
C449 C451 1.400 . S
C449 N452 1.351 . S
C449 C454 1.501 . S
C450 C451 1.387 . S
C450 N453 1.341 . S
C451 C449 1.400 . S
C451 C450 1.387 . S
N452 Co443 2.022 . S
N452 C449 1.351 . S
N452 N453 1.365 . S
N453 C450 1.341 . S
N453 N452 1.365 . S
N453 H473 0.862 . S
C454 C449 1.501 . S
C454 H455 0.961 . S
C454 H456 0.961 . S
C454 H457 0.960 . S
H455 C454 0.961 . S
H456 C454 0.961 . S
H457 C454 0.960 . S
C458 N459 1.342 . S
C458 C462 1.401 . S
C458 C463 1.499 . S
N459 Co442 1.989 . S
N459 C458 1.342 . S
N459 N460 1.388 . S
N460 Co443 1.993 . S
N460 N459 1.388 . S
N460 C461 1.346 . S
C461 N460 1.346 . S
C461 C462 1.396 . S
C461 C471 1.510 . S
C462 C458 1.401 . S
C462 C461 1.396 . S
C463 C458 1.499 . S
C463 H464 0.959 . S
C463 H465 0.960 . S
C463 H466 0.961 . S
H464 C463 0.959 . S
H465 C463 0.960 . S
H466 C463 0.961 . S
O467 Co442 1.967 . S
O467 C475 1.258 . S
O468 Co443 1.941 . S
O468 C475 1.266 . S
H469 C471 0.959 . S
H470 C471 0.961 . S
C471 C461 1.510 . S
C471 H469 0.959 . S
C471 H470 0.961 . S
C471 H472 0.960 . S
H472 C471 0.960 . S
H473 N453 0.862 . S
O474 Co442 1.920 . S
O474 C447 1.289 . S
C475 O467 1.258 . S
C475 O468 1.266 . S
Co476 O479 1.970 . S
Co476 N493 1.989 . S
Co476 O501 1.967 . S
Co476 O508 1.920 . S
Co477 O480 1.966 . S
Co477 N486 2.022 . S
Co477 N494 1.993 . S
Co477 O502 1.941 . S
C478 O479 1.258 . S
C478 O480 1.263 . S
O479 Co476 1.970 . S
O479 C478 1.258 . S
O480 Co477 1.966 . S
O480 C478 1.263 . S
C481 O482 1.235 . S
C481 O508 1.289 . S
O482 C481 1.235 . S
C483 C485 1.400 . S
C483 N486 1.351 . S
C483 C488 1.501 . S
C484 C485 1.387 . S
C484 N487 1.341 . S
C485 C483 1.400 . S
C485 C484 1.387 . S
N486 Co477 2.022 . S
N486 C483 1.351 . S
N486 N487 1.365 . S
N487 C484 1.341 . S
N487 N486 1.365 . S
N487 H507 0.862 . S
C488 C483 1.501 . S
C488 H489 0.961 . S
C488 H490 0.961 . S
C488 H491 0.960 . S
H489 C488 0.961 . S
H490 C488 0.961 . S
H491 C488 0.960 . S
C492 N493 1.342 . S
C492 C496 1.401 . S
C492 C497 1.499 . S
N493 Co476 1.989 . S
N493 C492 1.342 . S
N493 N494 1.388 . S
N494 Co477 1.993 . S
N494 N493 1.388 . S
N494 C495 1.346 . S
C495 N494 1.346 . S
C495 C496 1.396 . S
C495 C505 1.510 . S
C496 C492 1.401 . S
C496 C495 1.396 . S
C497 C492 1.499 . S
C497 H498 0.959 . S
C497 H499 0.960 . S
C497 H500 0.961 . S
H498 C497 0.959 . S
H499 C497 0.960 . S
H500 C497 0.961 . S
O501 Co476 1.967 . S
O501 C509 1.258 . S
O502 Co477 1.941 . S
O502 C509 1.266 . S
H503 C505 0.959 . S
H504 C505 0.961 . S
C505 C495 1.510 . S
C505 H503 0.959 . S
C505 H504 0.961 . S
C505 H506 0.960 . S
H506 C505 0.960 . S
H507 N487 0.862 . S
O508 Co476 1.920 . S
O508 C481 1.289 . S
C509 O501 1.258 . S
C509 O502 1.266 . S
Co510 O513 1.970 . S
Co510 N527 1.989 . S
Co510 O535 1.967 . S
Co510 O542 1.920 . S
Co511 O514 1.966 . S
Co511 N520 2.022 . S
Co511 N528 1.993 . S
Co511 O536 1.941 . S
C512 O513 1.258 . S
C512 O514 1.263 . S
O513 Co510 1.970 . S
O513 C512 1.258 . S
O514 Co511 1.966 . S
O514 C512 1.263 . S
C515 O516 1.235 . S
C515 O542 1.289 . S
O516 C515 1.235 . S
C517 C519 1.400 . S
C517 N520 1.351 . S
C517 C522 1.501 . S
C518 C519 1.387 . S
C518 N521 1.341 . S
C519 C517 1.400 . S
C519 C518 1.387 . S
N520 Co511 2.022 . S
N520 C517 1.351 . S
N520 N521 1.365 . S
N521 C518 1.341 . S
N521 N520 1.365 . S
N521 H541 0.862 . S
C522 C517 1.501 . S
C522 H523 0.961 . S
C522 H524 0.961 . S
C522 H525 0.960 . S
H523 C522 0.961 . S
H524 C522 0.961 . S
H525 C522 0.960 . S
C526 N527 1.342 . S
C526 C530 1.401 . S
C526 C531 1.499 . S
N527 Co510 1.989 . S
N527 C526 1.342 . S
N527 N528 1.388 . S
N528 Co511 1.993 . S
N528 N527 1.388 . S
N528 C529 1.346 . S
C529 N528 1.346 . S
C529 C530 1.396 . S
C529 C539 1.510 . S
C530 C526 1.401 . S
C530 C529 1.396 . S
C531 C526 1.499 . S
C531 H532 0.959 . S
C531 H533 0.960 . S
C531 H534 0.961 . S
H532 C531 0.959 . S
H533 C531 0.960 . S
H534 C531 0.961 . S
O535 Co510 1.967 . S
O535 C543 1.258 . S
O536 Co511 1.941 . S
O536 C543 1.266 . S
H537 C539 0.959 . S
H538 C539 0.961 . S
C539 C529 1.510 . S
C539 H537 0.959 . S
C539 H538 0.961 . S
C539 H540 0.960 . S
H540 C539 0.960 . S
H541 N521 0.862 . S
O542 Co510 1.920 . S
O542 C515 1.289 . S
C543 O535 1.258 . S
C543 O536 1.266 . S
H544 C550 0.930 . S
H545 C554 0.930 . S
H546 C559 0.929 . S
H547 C557 0.929 . S
H548 C552 0.929 . S
H549 C558 0.929 . S
C550 H544 0.930 . S
C550 C551 1.367 . S
C550 C558 1.378 . S
C551 C550 1.367 . S
C551 C559 1.433 . S
C552 H548 0.929 . S
C552 C554 1.378 . S
C552 C556 1.350 . S
C553 C556 1.463 . S
C553 C558 1.350 . S
C553 N561 1.427 . S
C554 H545 0.930 . S
C554 C552 1.378 . S
C554 C555 1.367 . S
C555 C554 1.367 . S
C555 C557 1.433 . S
C556 C552 1.350 . S
C556 C553 1.463 . S
C556 N560 1.427 . S
C557 H547 0.929 . S
C557 C555 1.433 . S
C557 N560 1.384 . S
C558 H549 0.929 . S
C558 C550 1.378 . S
C558 C553 1.350 . S
C559 H546 0.929 . S
C559 C551 1.433 . S
C559 N561 1.384 . S
N560 C556 1.427 . S
N560 C557 1.384 . S
N561 C553 1.427 . S
N561 C559 1.384 . S
H562 C568 0.930 . S
H563 C572 0.930 . S
H564 C577 0.929 . S
H565 C575 0.929 . S
H566 C570 0.929 . S
H567 C576 0.929 . S
C568 H562 0.930 . S
C568 C569 1.367 . S
C568 C576 1.378 . S
C569 C568 1.367 . S
C569 C577 1.433 . S
C570 H566 0.929 . S
C570 C572 1.378 . S
C570 C574 1.350 . S
C571 C574 1.463 . S
C571 C576 1.350 . S
C571 N579 1.427 . S
C572 H563 0.930 . S
C572 C570 1.378 . S
C572 C573 1.367 . S
C573 C572 1.367 . S
C573 C575 1.433 . S
C574 C570 1.350 . S
C574 C571 1.463 . S
C574 N578 1.427 . S
C575 H565 0.929 . S
C575 C573 1.433 . S
C575 N578 1.384 . S
C576 H567 0.929 . S
C576 C568 1.378 . S
C576 C571 1.350 . S
C577 H564 0.929 . S
C577 C569 1.433 . S
C577 N579 1.384 . S
N578 C574 1.427 . S
N578 C575 1.384 . S
N579 C571 1.427 . S
N579 C577 1.384 . S
H580 C586 0.930 . S
H581 C590 0.930 . S
H582 C595 0.929 . S
H583 C593 0.929 . S
H584 C588 0.929 . S
H585 C594 0.929 . S
C586 H580 0.930 . S
C586 C587 1.367 . S
C586 C594 1.378 . S
C587 C586 1.367 . S
C587 C595 1.433 . S
C588 H584 0.929 . S
C588 C590 1.378 . S
C588 C592 1.350 . S
C589 C592 1.463 . S
C589 C594 1.350 . S
C589 N597 1.427 . S
C590 H581 0.930 . S
C590 C588 1.378 . S
C590 C591 1.367 . S
C591 C590 1.367 . S
C591 C593 1.433 . S
C592 C588 1.350 . S
C592 C589 1.463 . S
C592 N596 1.427 . S
C593 H583 0.929 . S
C593 C591 1.433 . S
C593 N596 1.384 . S
C594 H585 0.929 . S
C594 C586 1.378 . S
C594 C589 1.350 . S
C595 H582 0.929 . S
C595 C587 1.433 . S
C595 N597 1.384 . S
N596 C592 1.427 . S
N596 C593 1.384 . S
N597 C589 1.427 . S
N597 C595 1.384 . S
H598 C604 0.930 . S
H599 C608 0.930 . S
H600 C613 0.929 . S
H601 C611 0.929 . S
H602 C606 0.929 . S
H603 C612 0.929 . S
C604 H598 0.930 . S
C604 C605 1.367 . S
C604 C612 1.378 . S
C605 C604 1.367 . S
C605 C613 1.433 . S
C606 H602 0.929 . S
C606 C608 1.378 . S
C606 C610 1.350 . S
C607 C610 1.463 . S
C607 C612 1.350 . S
C607 N615 1.427 . S
C608 H599 0.930 . S
C608 C606 1.378 . S
C608 C609 1.367 . S
C609 C608 1.367 . S
C609 C611 1.433 . S
C610 C606 1.350 . S
C610 C607 1.463 . S
C610 N614 1.427 . S
C611 H601 0.929 . S
C611 C609 1.433 . S
C611 N614 1.384 . S
C612 H603 0.929 . S
C612 C604 1.378 . S
C612 C607 1.350 . S
C613 H600 0.929 . S
C613 C605 1.433 . S
C613 N615 1.384 . S
N614 C610 1.427 . S
N614 C611 1.384 . S
N615 C607 1.427 . S
N615 C613 1.384 . S
H616 C622 0.930 . S
H617 C626 0.930 . S
H618 C631 0.929 . S
H619 C629 0.929 . S
H620 C624 0.929 . S
H621 C630 0.929 . S
C622 H616 0.930 . S
C622 C623 1.367 . S
C622 C630 1.378 . S
C623 C622 1.367 . S
C623 C631 1.433 . S
C624 H620 0.929 . S
C624 C626 1.378 . S
C624 C628 1.350 . S
C625 C628 1.463 . S
C625 C630 1.350 . S
C625 N633 1.427 . S
C626 H617 0.930 . S
C626 C624 1.378 . S
C626 C627 1.367 . S
C627 C626 1.367 . S
C627 C629 1.433 . S
C628 C624 1.350 . S
C628 C625 1.463 . S
C628 N632 1.427 . S
C629 H619 0.929 . S
C629 C627 1.433 . S
C629 N632 1.384 . S
C630 H621 0.929 . S
C630 C622 1.378 . S
C630 C625 1.350 . S
C631 H618 0.929 . S
C631 C623 1.433 . S
C631 N633 1.384 . S
N632 C628 1.427 . S
N632 C629 1.384 . S
N633 C625 1.427 . S
N633 C631 1.384 . S
H634 C640 0.930 . S
H635 C644 0.930 . S
H636 C649 0.929 . S
H637 C647 0.929 . S
H638 C642 0.929 . S
H639 C648 0.929 . S
C640 H634 0.930 . S
C640 C641 1.367 . S
C640 C648 1.378 . S
C641 C640 1.367 . S
C641 C649 1.433 . S
C642 H638 0.929 . S
C642 C644 1.378 . S
C642 C646 1.350 . S
C643 C646 1.463 . S
C643 C648 1.350 . S
C643 N651 1.427 . S
C644 H635 0.930 . S
C644 C642 1.378 . S
C644 C645 1.367 . S
C645 C644 1.367 . S
C645 C647 1.433 . S
C646 C642 1.350 . S
C646 C643 1.463 . S
C646 N650 1.427 . S
C647 H637 0.929 . S
C647 C645 1.433 . S
C647 N650 1.384 . S
C648 H639 0.929 . S
C648 C640 1.378 . S
C648 C643 1.350 . S
C649 H636 0.929 . S
C649 C641 1.433 . S
C649 N651 1.384 . S
N650 C646 1.427 . S
N650 C647 1.384 . S
N651 C643 1.427 . S
N651 C649 1.384 . S
H652 C658 0.930 . S
H653 C662 0.930 . S
H654 C667 0.929 . S
H655 C665 0.929 . S
H656 C660 0.929 . S
H657 C666 0.929 . S
C658 H652 0.930 . S
C658 C659 1.367 . S
C658 C666 1.378 . S
C659 C658 1.367 . S
C659 C667 1.433 . S
C660 H656 0.929 . S
C660 C662 1.378 . S
C660 C664 1.350 . S
C661 C664 1.463 . S
C661 C666 1.350 . S
C661 N669 1.427 . S
C662 H653 0.930 . S
C662 C660 1.378 . S
C662 C663 1.367 . S
C663 C662 1.367 . S
C663 C665 1.433 . S
C664 C660 1.350 . S
C664 C661 1.463 . S
C664 N668 1.427 . S
C665 H655 0.929 . S
C665 C663 1.433 . S
C665 N668 1.384 . S
C666 H657 0.929 . S
C666 C658 1.378 . S
C666 C661 1.350 . S
C667 H654 0.929 . S
C667 C659 1.433 . S
C667 N669 1.384 . S
N668 C664 1.427 . S
N668 C665 1.384 . S
N669 C661 1.427 . S
N669 C667 1.384 . S
H670 C676 0.930 . S
H671 C680 0.930 . S
H672 C685 0.929 . S
H673 C683 0.929 . S
H674 C678 0.929 . S
H675 C684 0.929 . S
C676 H670 0.930 . S
C676 C677 1.367 . S
C676 C684 1.378 . S
C677 C676 1.367 . S
C677 C685 1.433 . S
C678 H674 0.929 . S
C678 C680 1.378 . S
C678 C682 1.350 . S
C679 C682 1.463 . S
C679 C684 1.350 . S
C679 N687 1.427 . S
C680 H671 0.930 . S
C680 C678 1.378 . S
C680 C681 1.367 . S
C681 C680 1.367 . S
C681 C683 1.433 . S
C682 C678 1.350 . S
C682 C679 1.463 . S
C682 N686 1.427 . S
C683 H673 0.929 . S
C683 C681 1.433 . S
C683 N686 1.384 . S
C684 H675 0.929 . S
C684 C676 1.378 . S
C684 C679 1.350 . S
C685 H672 0.929 . S
C685 C677 1.433 . S
C685 N687 1.384 . S
N686 C682 1.427 . S
N686 C683 1.384 . S
N687 C679 1.427 . S
N687 C685 1.384 . S
H688 C694 0.934 . S
H689 C698 0.930 . S
H690 C703 0.929 . S
H691 C701 0.929 . S
H692 C696 0.929 . S
H693 C702 0.929 . S
C694 H688 0.934 . S
C694 C695 1.367 1_566 S
C694 C702 1.378 . S
C695 C694 1.367 1_544 S
C695 C703 1.433 . S
C696 H692 0.929 . S
C696 C698 1.378 . S
C696 C700 1.350 . S
C697 C700 1.463 . S
C697 C702 1.350 1_554 S
C697 N705 1.427 . S
C698 H689 0.930 . S
C698 C696 1.378 . S
C698 C699 1.365 1_554 S
C699 C698 1.365 1_556 S
C699 C701 1.435 . S
C700 C696 1.350 . S
C700 C697 1.463 . S
C700 N704 1.427 1_554 S
C701 H691 0.929 . S
C701 C699 1.435 . S
C701 N704 1.384 . S
C702 H693 0.929 . S
C702 C694 1.378 . S
C702 C697 1.350 1_556 S
C703 H690 0.929 . S
C703 C695 1.433 . S
C703 N705 1.384 1_545 S
N704 C700 1.427 1_556 S
N704 C701 1.384 . S
N705 C697 1.427 . S
N705 C703 1.384 1_565 S
H706 C712 0.930 . S
H707 C716 0.930 . S
H708 C721 0.929 . S
H709 C719 0.929 . S
H710 C714 0.929 . S
H711 C720 0.929 . S
C712 H706 0.930 . S
C712 C713 1.367 1_655 S
C712 C720 1.378 . S
C713 C712 1.367 1_455 S
C713 C721 1.433 1_556 S
C714 H710 0.929 . S
C714 C716 1.378 . S
C714 C718 1.350 1_554 S
C715 C718 1.463 . S
C715 C720 1.350 . S
C715 N723 1.427 1_556 S
C716 H707 0.930 . S
C716 C714 1.378 . S
C716 C717 1.394 . S
C717 C716 1.394 . S
C717 C719 1.401 1_554 S
C718 C714 1.350 1_556 S
C718 C715 1.463 . S
C718 N722 1.427 . S
C719 H709 0.929 . S
C719 C717 1.401 1_556 S
C719 N722 1.384 . S
C720 H711 0.929 . S
C720 C712 1.378 . S
C720 C715 1.350 . S
C721 H708 0.929 . S
C721 C713 1.433 1_554 S
C721 N723 1.384 1_455 S
N722 C718 1.427 . S
N722 C719 1.384 . S
N723 C715 1.427 1_554 S
N723 C721 1.384 1_655 S
H724 C730 0.930 . S
H725 C734 0.930 . S
H726 C739 0.929 . S
H727 C737 0.929 . S
H728 C732 0.929 . S
H729 C738 0.929 . S
C730 H724 0.930 . S
C730 C731 1.367 1_546 S
C730 C738 1.378 . S
C731 C730 1.367 1_564 S
C731 C739 1.433 . S
C732 H728 0.929 . S
C732 C734 1.378 . S
C732 C736 1.350 . S
C733 C736 1.463 . S
C733 C738 1.350 1_554 S
C733 N741 1.427 . S
C734 H725 0.930 . S
C734 C732 1.378 . S
C734 C735 1.364 1_554 S
C735 C734 1.364 1_556 S
C735 C737 1.436 . S
C736 C732 1.350 . S
C736 C733 1.463 . S
C736 N740 1.427 1_554 S
C737 H727 0.929 . S
C737 C735 1.436 . S
C737 N740 1.384 . S
C738 H729 0.929 . S
C738 C730 1.378 . S
C738 C733 1.350 1_556 S
C739 H726 0.929 . S
C739 C731 1.433 . S
C739 N741 1.384 1_565 S
N740 C736 1.427 1_556 S
N740 C737 1.384 . S
N741 C733 1.427 . S
N741 C739 1.384 1_545 S
H742 C748 0.930 . S
H743 C752 0.930 . S
H744 C757 0.929 . S
H745 C755 0.929 1_554 S
H746 C750 0.929 . S
H747 C756 0.929 . S
C748 H742 0.930 . S
C748 C749 1.382 . S
C748 C756 1.378 . S
C749 C748 1.382 . S
C749 C757 1.414 1_554 S
C750 H746 0.929 . S
C750 C752 1.378 1_455 S
C750 C754 1.350 . S
C751 C754 1.463 . S
C751 C756 1.350 1_556 S
C751 N759 1.427 . S
C752 H743 0.930 . S
C752 C750 1.378 1_655 S
C752 C753 1.367 . S
C753 C752 1.367 . S
C753 C755 1.433 1_655 S
C754 C750 1.350 . S
C754 C751 1.463 . S
C754 N758 1.427 1_556 S
C755 H745 0.929 1_556 S
C755 C753 1.433 1_455 S
C755 N758 1.384 1_556 S
C756 H747 0.929 . S
C756 C748 1.378 . S
C756 C751 1.350 1_554 S
C757 H744 0.929 . S
C757 C749 1.414 1_556 S
C757 N759 1.384 . S
N758 C754 1.427 1_554 S
N758 C755 1.384 1_554 S
N759 C751 1.427 . S
N759 C757 1.384 . S
H760 C766 0.930 . S
H761 C770 0.930 . S
H762 C775 0.929 . S
H763 C773 0.929 . S
H764 C768 0.929 . S
H765 C774 0.929 . S
C766 H760 0.930 . S
C766 C767 1.367 . S
C766 C774 1.378 . S
C767 C766 1.367 . S
C767 C775 1.433 . S
C768 H764 0.929 . S
C768 C770 1.378 . S
C768 C772 1.350 . S
C769 C772 1.463 . S
C769 C774 1.350 . S
C769 N777 1.427 . S
C770 H761 0.930 . S
C770 C768 1.378 . S
C770 C771 1.367 . S
C771 C770 1.367 . S
C771 C773 1.433 . S
C772 C768 1.350 . S
C772 C769 1.463 . S
C772 N776 1.427 . S
C773 H763 0.929 . S
C773 C771 1.433 . S
C773 N776 1.384 . S
C774 H765 0.929 . S
C774 C766 1.378 . S
C774 C769 1.350 . S
C775 H762 0.929 . S
C775 C767 1.433 . S
C775 N777 1.384 . S
N776 C772 1.427 . S
N776 C773 1.384 . S
N777 C769 1.427 . S
N777 C775 1.384 . S
H778 C784 0.930 . S
H779 C788 0.930 . S
H780 C793 0.929 . S
H781 C791 0.929 . S
H782 C786 0.929 . S
H783 C792 0.929 . S
C784 H778 0.930 . S
C784 C785 1.367 . S
C784 C792 1.378 . S
C785 C784 1.367 . S
C785 C793 1.433 . S
C786 H782 0.929 . S
C786 C788 1.378 . S
C786 C790 1.350 . S
C787 C790 1.463 . S
C787 C792 1.350 . S
C787 N795 1.427 . S
C788 H779 0.930 . S
C788 C786 1.378 . S
C788 C789 1.367 . S
C789 C788 1.367 . S
C789 C791 1.433 . S
C790 C786 1.350 . S
C790 C787 1.463 . S
C790 N794 1.427 . S
C791 H781 0.929 . S
C791 C789 1.433 . S
C791 N794 1.384 . S
C792 H783 0.929 . S
C792 C784 1.378 . S
C792 C787 1.350 . S
C793 H780 0.929 . S
C793 C785 1.433 . S
C793 N795 1.384 . S
N794 C790 1.427 . S
N794 C791 1.384 . S
N795 C787 1.427 . S
N795 C793 1.384 . S
H796 C802 0.930 . S
H797 C806 0.930 . S
H798 C811 0.929 . S
H799 C809 0.929 . S
H800 C804 0.929 . S
H801 C810 0.929 . S
C802 H796 0.930 . S
C802 C803 1.367 . S
C802 C810 1.378 . S
C803 C802 1.367 . S
C803 C811 1.433 . S
C804 H800 0.929 . S
C804 C806 1.378 . S
C804 C808 1.350 . S
C805 C808 1.463 . S
C805 C810 1.350 . S
C805 N813 1.427 . S
C806 H797 0.930 . S
C806 C804 1.378 . S
C806 C807 1.367 . S
C807 C806 1.367 . S
C807 C809 1.433 . S
C808 C804 1.350 . S
C808 C805 1.463 . S
C808 N812 1.427 . S
C809 H799 0.929 . S
C809 C807 1.433 . S
C809 N812 1.384 . S
C810 H801 0.929 . S
C810 C802 1.378 . S
C810 C805 1.350 . S
C811 H798 0.929 . S
C811 C803 1.433 . S
C811 N813 1.384 . S
N812 C808 1.427 . S
N812 C809 1.384 . S
N813 C805 1.427 . S
N813 C811 1.384 . S
H814 C820 0.930 . S
H815 C824 0.930 . S
H816 C829 0.929 . S
H817 C827 0.929 . S
H818 C822 0.929 . S
H819 C828 0.929 . S
C820 H814 0.930 . S
C820 C821 1.367 . S
C820 C828 1.378 . S
C821 C820 1.367 . S
C821 C829 1.433 . S
C822 H818 0.929 . S
C822 C824 1.378 . S
C822 C826 1.350 . S
C823 C826 1.463 . S
C823 C828 1.350 . S
C823 N831 1.427 . S
C824 H815 0.930 . S
C824 C822 1.378 . S
C824 C825 1.367 . S
C825 C824 1.367 . S
C825 C827 1.433 . S
C826 C822 1.350 . S
C826 C823 1.463 . S
C826 N830 1.427 . S
C827 H817 0.929 . S
C827 C825 1.433 . S
C827 N830 1.384 . S
C828 H819 0.929 . S
C828 C820 1.378 . S
C828 C823 1.350 . S
C829 H816 0.929 . S
C829 C821 1.433 . S
C829 N831 1.384 . S
N830 C826 1.427 . S
N830 C827 1.384 . S
N831 C823 1.427 . S
N831 C829 1.384 . S
H832 C838 0.930 . S
H833 C842 0.930 . S
H834 C847 0.929 . S
H835 C845 0.929 . S
H836 C840 0.929 . S
H837 C846 0.929 . S
C838 H832 0.930 . S
C838 C839 1.367 . S
C838 C846 1.378 . S
C839 C838 1.367 . S
C839 C847 1.433 . S
C840 H836 0.929 . S
C840 C842 1.378 . S
C840 C844 1.350 . S
C841 C844 1.463 . S
C841 C846 1.350 . S
C841 N849 1.427 . S
C842 H833 0.930 . S
C842 C840 1.378 . S
C842 C843 1.367 . S
C843 C842 1.367 . S
C843 C845 1.433 . S
C844 C840 1.350 . S
C844 C841 1.463 . S
C844 N848 1.427 . S
C845 H835 0.929 . S
C845 C843 1.433 . S
C845 N848 1.384 . S
C846 H837 0.929 . S
C846 C838 1.378 . S
C846 C841 1.350 . S
C847 H834 0.929 . S
C847 C839 1.433 . S
C847 N849 1.384 . S
N848 C844 1.427 . S
N848 C845 1.384 . S
N849 C841 1.427 . S
N849 C847 1.384 . S
H850 C856 0.930 . S
H851 C860 0.930 . S
H852 C865 0.929 . S
H853 C863 0.929 . S
H854 C858 0.929 . S
H855 C864 0.929 . S
C856 H850 0.930 . S
C856 C857 1.367 . S
C856 C864 1.378 . S
C857 C856 1.367 . S
C857 C865 1.433 . S
C858 H854 0.929 . S
C858 C860 1.378 . S
C858 C862 1.350 . S
C859 C862 1.463 . S
C859 C864 1.350 . S
C859 N867 1.427 . S
C860 H851 0.930 . S
C860 C858 1.378 . S
C860 C861 1.367 . S
C861 C860 1.367 . S
C861 C863 1.433 . S
C862 C858 1.350 . S
C862 C859 1.463 . S
C862 N866 1.427 . S
C863 H853 0.929 . S
C863 C861 1.433 . S
C863 N866 1.384 . S
C864 H855 0.929 . S
C864 C856 1.378 . S
C864 C859 1.350 . S
C865 H852 0.929 . S
C865 C857 1.433 . S
C865 N867 1.384 . S
N866 C862 1.427 . S
N866 C863 1.384 . S
N867 C859 1.427 . S
N867 C865 1.384 . S
H868 C874 0.930 . S
H869 C878 0.930 . S
H870 C883 0.929 . S
H871 C881 0.929 . S
H872 C876 0.929 . S
H873 C882 0.929 . S
C874 H868 0.930 . S
C874 C875 1.367 . S
C874 C882 1.378 . S
C875 C874 1.367 . S
C875 C883 1.433 . S
C876 H872 0.929 . S
C876 C878 1.378 . S
C876 C880 1.350 . S
C877 C880 1.463 . S
C877 C882 1.350 . S
C877 N885 1.427 . S
C878 H869 0.930 . S
C878 C876 1.378 . S
C878 C879 1.367 . S
C879 C878 1.367 . S
C879 C881 1.433 . S
C880 C876 1.350 . S
C880 C877 1.463 . S
C880 N884 1.427 . S
C881 H871 0.929 . S
C881 C879 1.433 . S
C881 N884 1.384 . S
C882 H873 0.929 . S
C882 C874 1.378 . S
C882 C877 1.350 . S
C883 H870 0.929 . S
C883 C875 1.433 . S
C883 N885 1.384 . S
N884 C880 1.427 . S
N884 C881 1.384 . S
N885 C877 1.427 . S
N885 C883 1.384 . S
H886 C892 0.930 . S
H887 C896 0.930 . S
H888 C901 0.929 . S
H889 C899 0.929 . S
H890 C894 0.929 . S
H891 C900 0.929 . S
C892 H886 0.930 . S
C892 C893 1.367 . S
C892 C900 1.378 . S
C893 C892 1.367 . S
C893 C901 1.433 . S
C894 H890 0.929 . S
C894 C896 1.378 . S
C894 C898 1.350 . S
C895 C898 1.463 . S
C895 C900 1.350 . S
C895 N903 1.427 . S
C896 H887 0.930 . S
C896 C894 1.378 . S
C896 C897 1.367 . S
C897 C896 1.367 . S
C897 C899 1.433 . S
C898 C894 1.350 . S
C898 C895 1.463 . S
C898 N902 1.427 . S
C899 H889 0.929 . S
C899 C897 1.433 . S
C899 N902 1.384 . S
C900 H891 0.929 . S
C900 C892 1.378 . S
C900 C895 1.350 . S
C901 H888 0.929 . S
C901 C893 1.433 . S
C901 N903 1.384 . S
N902 C898 1.427 . S
N902 C899 1.384 . S
N903 C895 1.427 . S
N903 C901 1.384 . S
H904 C910 0.930 . S
H905 C914 0.930 . S
H906 C919 0.929 . S
H907 C917 0.929 . S
H908 C912 0.929 . S
H909 C918 0.929 . S
C910 H904 0.930 . S
C910 C911 1.367 . S
C910 C918 1.378 1_565 S
C911 C910 1.367 . S
C911 C919 1.433 1_565 S
C912 H908 0.929 . S
C912 C914 1.378 . S
C912 C916 1.350 . S
C913 C916 1.463 . S
C913 C918 1.350 . S
C913 N921 1.427 . S
C914 H905 0.930 . S
C914 C912 1.378 . S
C914 C915 1.367 . S
C915 C914 1.367 . S
C915 C917 1.433 . S
C916 C912 1.350 . S
C916 C913 1.463 . S
C916 N920 1.427 . S
C917 H907 0.929 . S
C917 C915 1.433 . S
C917 N920 1.384 . S
C918 H909 0.929 . S
C918 C910 1.378 1_545 S
C918 C913 1.350 . S
C919 H906 0.929 . S
C919 C911 1.433 1_545 S
C919 N921 1.384 . S
N920 C916 1.427 . S
N920 C917 1.384 . S
N921 C913 1.427 . S
N921 C919 1.384 . S
H922 C928 0.930 . S
H923 C932 0.930 . S
H924 C937 0.929 . S
H925 C935 0.929 . S
H926 C930 0.929 . S
H927 C936 0.929 . S
C928 H922 0.930 . S
C928 C929 1.367 . S
C928 C936 1.378 . S
C929 C928 1.367 . S
C929 C937 1.433 . S
C930 H926 0.929 . S
C930 C932 1.378 1_455 S
C930 C934 1.350 . S
C931 C934 1.463 . S
C931 C936 1.350 . S
C931 N939 1.427 . S
C932 H923 0.930 . S
C932 C930 1.378 1_655 S
C932 C933 1.367 . S
C933 C932 1.367 . S
C933 C935 1.433 1_655 S
C934 C930 1.350 . S
C934 C931 1.463 . S
C934 N938 1.427 . S
C935 H925 0.929 . S
C935 C933 1.433 1_455 S
C935 N938 1.384 . S
C936 H927 0.929 . S
C936 C928 1.378 . S
C936 C931 1.350 . S
C937 H924 0.929 . S
C937 C929 1.433 . S
C937 N939 1.384 . S
N938 C934 1.427 . S
N938 C935 1.384 . S
N939 C931 1.427 . S
N939 C937 1.384 . S
H940 C946 0.930 . S
H941 C950 0.930 . S
H942 C955 0.929 . S
H943 C953 0.934 . S
H944 C948 0.929 . S
H945 C954 0.929 . S
C946 H940 0.930 . S
C946 C947 1.367 . S
C946 C954 1.378 . S
C947 C946 1.367 . S
C947 C955 1.433 . S
C948 H944 0.929 . S
C948 C950 1.378 1_565 S
C948 C952 1.350 . S
C949 C952 1.463 . S
C949 C954 1.350 . S
C949 N957 1.427 . S
C950 H941 0.930 . S
C950 C948 1.378 1_545 S
C950 C951 1.367 . S
C951 C950 1.367 . S
C951 C953 1.433 1_545 S
C952 C948 1.350 . S
C952 C949 1.463 . S
C952 N956 1.427 . S
C953 H943 0.934 . S
C953 C951 1.433 1_565 S
C953 N956 1.384 . S
C954 H945 0.929 . S
C954 C946 1.378 . S
C954 C949 1.350 . S
C955 H942 0.929 . S
C955 C947 1.433 . S
C955 N957 1.384 . S
N956 C952 1.427 . S
N956 C953 1.384 . S
N957 C949 1.427 . S
N957 C955 1.384 . S
H958 C964 0.930 . S
H959 C968 0.930 . S
H960 C973 0.929 . S
H961 C971 0.929 . S
H962 C966 0.929 . S
H963 C972 0.929 . S
C964 H958 0.930 . S
C964 C965 1.367 1_655 S
C964 C972 1.378 . S
C965 C964 1.367 1_455 S
C965 C973 1.433 . S
C966 H962 0.929 . S
C966 C968 1.378 . S
C966 C970 1.350 . S
C967 C970 1.463 . S
C967 C972 1.350 . S
C967 N975 1.427 . S
C968 H959 0.930 . S
C968 C966 1.378 . S
C968 C969 1.367 . S
C969 C968 1.367 . S
C969 C971 1.433 . S
C970 C966 1.350 . S
C970 C967 1.463 . S
C970 N974 1.427 . S
C971 H961 0.929 . S
C971 C969 1.433 . S
C971 N974 1.384 . S
C972 H963 0.929 . S
C972 C964 1.378 . S
C972 C967 1.350 . S
C973 H960 0.929 . S
C973 C965 1.433 . S
C973 N975 1.384 1_455 S
N974 C970 1.427 . S
N974 C971 1.384 . S
N975 C967 1.427 . S
N975 C973 1.384 1_655 S
H976 C982 0.930 . S
H977 C986 0.930 . S
H978 C991 0.929 . S
H979 C989 0.929 . S
H980 C984 0.929 1_545 S
H981 C990 0.929 1_565 S
C982 H976 0.930 . S
C982 C983 1.367 1_556 S
C982 C990 1.378 . S
C983 C982 1.367 1_554 S
C983 C991 1.433 . S
C984 H980 0.929 1_565 S
C984 C986 1.378 . S
C984 C988 1.350 . S
C985 C988 1.463 1_545 S
C985 C990 1.350 1_554 S
C985 N993 1.427 . S
C986 H977 0.930 . S
C986 C984 1.378 . S
C986 C987 1.367 . S
C987 C986 1.367 . S
C987 C989 1.433 1_554 S
C988 C984 1.350 . S
C988 C985 1.463 1_565 S
C988 N992 1.427 1_554 S
C989 H979 0.929 . S
C989 C987 1.433 1_556 S
C989 N992 1.384 . S
C990 H981 0.929 1_545 S
C990 C982 1.378 . S
C990 C985 1.350 1_556 S
C991 H978 0.929 . S
C991 C983 1.433 . S
C991 N993 1.384 . S
N992 C988 1.427 1_556 S
N992 C989 1.384 . S
N993 C985 1.427 . S
N993 C991 1.384 . S
H994 C1000 0.930 . S
H995 C1004 0.930 . S
H996 C1009 0.929 . S
H997 C1007 0.929 . S
H998 C1002 0.929 . S
H999 C1008 0.929 . S
C1000 H994 0.930 . S
C1000 C1001 1.367 . S
C1000 C1008 1.378 . S
C1001 C1000 1.367 . S
C1001 C1009 1.433 1_556 S
C1002 H998 0.929 . S
C1002 C1004 1.378 . S
C1002 C1006 1.350 1_554 S
C1003 C1006 1.463 1_455 S
C1003 C1008 1.350 . S
C1003 N1011 1.427 1_556 S
C1004 H995 0.930 . S
C1004 C1002 1.378 . S
C1004 C1005 1.367 1_554 S
C1005 C1004 1.367 1_556 S
C1005 C1007 1.433 . S
C1006 C1002 1.350 1_556 S
C1006 C1003 1.463 1_655 S
C1006 N1010 1.427 . S
C1007 H997 0.929 . S
C1007 C1005 1.433 . S
C1007 N1010 1.384 . S
C1008 H999 0.929 . S
C1008 C1000 1.378 . S
C1008 C1003 1.350 . S
C1009 H996 0.929 . S
C1009 C1001 1.433 1_554 S
C1009 N1011 1.384 . S
N1010 C1006 1.427 . S
N1010 C1007 1.384 . S
N1011 C1003 1.427 1_554 S
N1011 C1009 1.384 . S
H1012 C1018 0.930 . S
H1013 C1022 0.930 . S
H1014 C1027 0.929 . S
H1015 C1025 0.929 . S
H1016 C1020 0.929 . S
H1017 C1026 0.929 . S
C1018 H1012 0.930 . S
C1018 C1019 1.367 . S
C1018 C1026 1.378 . S
C1019 C1018 1.367 . S
C1019 C1027 1.433 . S
C1020 H1016 0.929 . S
C1020 C1022 1.378 . S
C1020 C1024 1.350 . S
C1021 C1024 1.463 . S
C1021 C1026 1.350 . S
C1021 N1029 1.427 . S
C1022 H1013 0.930 . S
C1022 C1020 1.378 . S
C1022 C1023 1.367 . S
C1023 C1022 1.367 . S
C1023 C1025 1.433 . S
C1024 C1020 1.350 . S
C1024 C1021 1.463 . S
C1024 N1028 1.427 . S
C1025 H1015 0.929 . S
C1025 C1023 1.433 . S
C1025 N1028 1.384 . S
C1026 H1017 0.929 . S
C1026 C1018 1.378 . S
C1026 C1021 1.350 . S
C1027 H1014 0.929 . S
C1027 C1019 1.433 . S
C1027 N1029 1.384 . S
N1028 C1024 1.427 . S
N1028 C1025 1.384 . S
N1029 C1021 1.427 . S
N1029 C1027 1.384 . S
H1030 C1036 0.930 . S
H1031 C1040 0.930 . S
H1032 C1045 0.929 . S
H1033 C1043 0.929 . S
H1034 C1038 0.929 . S
H1035 C1044 0.929 . S
C1036 H1030 0.930 . S
C1036 C1037 1.367 . S
C1036 C1044 1.378 . S
C1037 C1036 1.367 . S
C1037 C1045 1.433 . S
C1038 H1034 0.929 . S
C1038 C1040 1.378 . S
C1038 C1042 1.350 . S
C1039 C1042 1.463 . S
C1039 C1044 1.350 . S
C1039 N1047 1.427 . S
C1040 H1031 0.930 . S
C1040 C1038 1.378 . S
C1040 C1041 1.367 . S
C1041 C1040 1.367 . S
C1041 C1043 1.433 . S
C1042 C1038 1.350 . S
C1042 C1039 1.463 . S
C1042 N1046 1.427 . S
C1043 H1033 0.929 . S
C1043 C1041 1.433 . S
C1043 N1046 1.384 . S
C1044 H1035 0.929 . S
C1044 C1036 1.378 . S
C1044 C1039 1.350 . S
C1045 H1032 0.929 . S
C1045 C1037 1.433 . S
C1045 N1047 1.384 . S
N1046 C1042 1.427 . S
N1046 C1043 1.384 . S
N1047 C1039 1.427 . S
N1047 C1045 1.384 . S
H1048 C1054 0.930 . S
H1049 C1058 0.930 . S
H1050 C1063 0.929 . S
H1051 C1061 0.929 . S
H1052 C1056 0.929 . S
H1053 C1062 0.929 . S
C1054 H1048 0.930 . S
C1054 C1055 1.367 . S
C1054 C1062 1.378 . S
C1055 C1054 1.367 . S
C1055 C1063 1.433 . S
C1056 H1052 0.929 . S
C1056 C1058 1.378 . S
C1056 C1060 1.350 . S
C1057 C1060 1.463 1_655 S
C1057 C1062 1.350 . S
C1057 N1065 1.427 . S
C1058 H1049 0.930 . S
C1058 C1056 1.378 . S
C1058 C1059 1.367 . S
C1059 C1058 1.367 . S
C1059 C1061 1.433 . S
C1060 C1056 1.350 . S
C1060 C1057 1.463 1_455 S
C1060 N1064 1.427 . S
C1061 H1051 0.929 . S
C1061 C1059 1.433 . S
C1061 N1064 1.384 . S
C1062 H1053 0.929 . S
C1062 C1054 1.378 . S
C1062 C1057 1.350 . S
C1063 H1050 0.929 . S
C1063 C1055 1.433 . S
C1063 N1065 1.384 . S
N1064 C1060 1.427 . S
N1064 C1061 1.384 . S
N1065 C1057 1.427 . S
N1065 C1063 1.384 . S
H1066 C1072 0.930 . S
H1067 C1076 0.930 . S
H1068 C1081 0.929 . S
H1069 C1079 0.929 . S
H1070 C1074 0.929 . S
H1071 C1080 0.929 . S
C1072 H1066 0.930 . S
C1072 C1073 1.367 . S
C1072 C1080 1.378 . S
C1073 C1072 1.367 . S
C1073 C1081 1.433 . S
C1074 H1070 0.929 . S
C1074 C1076 1.378 . S
C1074 C1078 1.350 . S
C1075 C1078 1.463 1_545 S
C1075 C1080 1.350 . S
C1075 N1083 1.427 . S
C1076 H1067 0.930 . S
C1076 C1074 1.378 . S
C1076 C1077 1.367 . S
C1077 C1076 1.367 . S
C1077 C1079 1.433 . S
C1078 C1074 1.350 . S
C1078 C1075 1.463 1_565 S
C1078 N1082 1.427 . S
C1079 H1069 0.929 . S
C1079 C1077 1.433 . S
C1079 N1082 1.384 . S
C1080 H1071 0.929 . S
C1080 C1072 1.378 . S
C1080 C1075 1.350 . S
C1081 H1068 0.929 . S
C1081 C1073 1.433 . S
C1081 N1083 1.384 . S
N1082 C1078 1.427 . S
N1082 C1079 1.384 . S
N1083 C1075 1.427 . S
N1083 C1081 1.384 . S
H1084 C1090 0.930 . S
H1085 C1094 0.930 . S
H1086 C1099 0.929 . S
H1087 C1097 0.929 . S
H1088 C1092 0.929 1_565 S
H1089 C1098 0.929 1_545 S
C1090 H1084 0.930 . S
C1090 C1091 1.367 . S
C1090 C1098 1.378 . S
C1091 C1090 1.367 . S
C1091 C1099 1.433 . S
C1092 H1088 0.929 1_545 S
C1092 C1094 1.378 . S
C1092 C1096 1.350 . S
C1093 C1096 1.463 1_665 S
C1093 C1098 1.350 . S
C1093 N1101 1.427 . S
C1094 H1085 0.930 . S
C1094 C1092 1.378 . S
C1094 C1095 1.367 . S
C1095 C1094 1.367 . S
C1095 C1097 1.433 . S
C1096 C1092 1.350 . S
C1096 C1093 1.463 1_445 S
C1096 N1100 1.427 . S
C1097 H1087 0.929 . S
C1097 C1095 1.433 . S
C1097 N1100 1.384 . S
C1098 H1089 0.929 1_565 S
C1098 C1090 1.378 . S
C1098 C1093 1.350 . S
C1099 H1086 0.929 . S
C1099 C1091 1.433 . S
C1099 N1101 1.384 . S
N1100 C1096 1.427 . S
N1100 C1097 1.384 . S
N1101 C1093 1.427 . S
N1101 C1099 1.384 . S
H1102 C1108 0.930 . S
H1103 C1112 0.930 . S
H1104 C1117 0.929 . S
H1105 C1115 0.929 . S
H1106 C1110 0.929 . S
H1107 C1116 0.929 . S
C1108 H1102 0.930 . S
C1108 C1109 1.367 . S
C1108 C1116 1.378 . S
C1109 C1108 1.367 . S
C1109 C1117 1.433 . S
C1110 H1106 0.929 . S
C1110 C1112 1.378 . S
C1110 C1114 1.350 . S
C1111 C1114 1.463 1_645 S
C1111 C1116 1.350 . S
C1111 N1119 1.427 . S
C1112 H1103 0.930 . S
C1112 C1110 1.378 . S
C1112 C1113 1.367 . S
C1113 C1112 1.367 . S
C1113 C1115 1.433 . S
C1114 C1110 1.350 . S
C1114 C1111 1.463 1_465 S
C1114 N1118 1.427 . S
C1115 H1105 0.929 . S
C1115 C1113 1.433 . S
C1115 N1118 1.384 . S
C1116 H1107 0.929 . S
C1116 C1108 1.378 . S
C1116 C1111 1.350 . S
C1117 H1104 0.929 . S
C1117 C1109 1.433 . S
C1117 N1119 1.384 . S
N1118 C1114 1.427 . S
N1118 C1115 1.384 . S
N1119 C1111 1.427 . S
N1119 C1117 1.384 . S
H1120 C1126 0.930 . S
H1121 C1130 0.930 . S
H1122 C1135 0.929 . S
H1123 C1133 0.929 . S
H1124 C1128 0.929 . S
H1125 C1134 0.929 . S
C1126 H1120 0.930 . S
C1126 C1127 1.367 . S
C1126 C1134 1.378 . S
C1127 C1126 1.367 . S
C1127 C1135 1.433 . S
C1128 H1124 0.929 . S
C1128 C1130 1.378 . S
C1128 C1132 1.350 . S
C1129 C1132 1.463 . S
C1129 C1134 1.350 . S
C1129 N1137 1.427 . S
C1130 H1121 0.930 . S
C1130 C1128 1.378 . S
C1130 C1131 1.367 . S
C1131 C1130 1.367 . S
C1131 C1133 1.433 . S
C1132 C1128 1.350 . S
C1132 C1129 1.463 . S
C1132 N1136 1.427 . S
C1133 H1123 0.929 . S
C1133 C1131 1.433 . S
C1133 N1136 1.384 . S
C1134 H1125 0.929 . S
C1134 C1126 1.378 . S
C1134 C1129 1.350 . S
C1135 H1122 0.929 . S
C1135 C1127 1.433 . S
C1135 N1137 1.384 . S
N1136 C1132 1.427 . S
N1136 C1133 1.384 . S
N1137 C1129 1.427 . S
N1137 C1135 1.384 . S
H1138 C1144 0.930 . S
H1139 C1148 0.930 . S
H1140 C1153 0.929 . S
H1141 C1151 0.929 . S
H1142 C1146 0.929 . S
H1143 C1152 0.929 . S
C1144 H1138 0.930 . S
C1144 C1145 1.367 . S
C1144 C1152 1.378 . S
C1145 C1144 1.367 . S
C1145 C1153 1.433 . S
C1146 H1142 0.929 . S
C1146 C1148 1.378 . S
C1146 C1150 1.350 . S
C1147 C1150 1.463 . S
C1147 C1152 1.350 . S
C1147 N1155 1.427 . S
C1148 H1139 0.930 . S
C1148 C1146 1.378 . S
C1148 C1149 1.367 . S
C1149 C1148 1.367 . S
C1149 C1151 1.433 . S
C1150 C1146 1.350 . S
C1150 C1147 1.463 . S
C1150 N1154 1.427 . S
C1151 H1141 0.929 . S
C1151 C1149 1.433 . S
C1151 N1154 1.384 . S
C1152 H1143 0.929 . S
C1152 C1144 1.378 . S
C1152 C1147 1.350 . S
C1153 H1140 0.929 . S
C1153 C1145 1.433 . S
C1153 N1155 1.384 . S
N1154 C1150 1.427 . S
N1154 C1151 1.384 . S
N1155 C1147 1.427 . S
N1155 C1153 1.384 . S
H1156 C1162 0.930 . S
H1157 C1166 0.930 . S
H1158 C1171 0.929 . S
H1159 C1169 0.929 . S
H1160 C1164 0.929 . S
H1161 C1170 0.929 . S
C1162 H1156 0.930 . S
C1162 C1163 1.367 . S
C1162 C1170 1.378 . S
C1163 C1162 1.367 . S
C1163 C1171 1.433 . S
C1164 H1160 0.929 . S
C1164 C1166 1.378 . S
C1164 C1168 1.350 . S
C1165 C1168 1.463 . S
C1165 C1170 1.350 . S
C1165 N1173 1.427 . S
C1166 H1157 0.930 . S
C1166 C1164 1.378 . S
C1166 C1167 1.367 . S
C1167 C1166 1.367 . S
C1167 C1169 1.433 . S
C1168 C1164 1.350 . S
C1168 C1165 1.463 . S
C1168 N1172 1.427 . S
C1169 H1159 0.929 . S
C1169 C1167 1.433 . S
C1169 N1172 1.384 . S
C1170 H1161 0.929 . S
C1170 C1162 1.378 . S
C1170 C1165 1.350 . S
C1171 H1158 0.929 . S
C1171 C1163 1.433 . S
C1171 N1173 1.384 . S
N1172 C1168 1.427 . S
N1172 C1169 1.384 . S
N1173 C1165 1.427 . S
N1173 C1171 1.384 . S
H1174 C1180 0.930 . S
H1175 C1184 0.930 . S
H1176 C1189 0.929 . S
H1177 C1187 0.929 . S
H1178 C1182 0.929 . S
H1179 C1188 0.929 . S
C1180 H1174 0.930 . S
C1180 C1181 1.367 . S
C1180 C1188 1.378 . S
C1181 C1180 1.367 . S
C1181 C1189 1.433 . S
C1182 H1178 0.929 . S
C1182 C1184 1.378 . S
C1182 C1186 1.350 . S
C1183 C1186 1.463 . S
C1183 C1188 1.350 . S
C1183 N1191 1.427 . S
C1184 H1175 0.930 . S
C1184 C1182 1.378 . S
C1184 C1185 1.367 . S
C1185 C1184 1.367 . S
C1185 C1187 1.433 . S
C1186 C1182 1.350 . S
C1186 C1183 1.463 . S
C1186 N1190 1.427 . S
C1187 H1177 0.929 . S
C1187 C1185 1.433 . S
C1187 N1190 1.384 . S
C1188 H1179 0.929 . S
C1188 C1180 1.378 . S
C1188 C1183 1.350 . S
C1189 H1176 0.929 . S
C1189 C1181 1.433 . S
C1189 N1191 1.384 . S
N1190 C1186 1.427 . S
N1190 C1187 1.384 . S
N1191 C1183 1.427 . S
N1191 C1189 1.384 . S
H1192 C1198 0.930 . S
H1193 C1202 0.930 . S
H1194 C1207 0.929 . S
H1195 C1205 0.929 . S
H1196 C1200 0.929 . S
H1197 C1206 0.929 . S
C1198 H1192 0.930 . S
C1198 C1199 1.367 . S
C1198 C1206 1.378 . S
C1199 C1198 1.367 . S
C1199 C1207 1.433 . S
C1200 H1196 0.929 . S
C1200 C1202 1.378 . S
C1200 C1204 1.350 . S
C1201 C1204 1.463 . S
C1201 C1206 1.350 . S
C1201 N1209 1.427 . S
C1202 H1193 0.930 . S
C1202 C1200 1.378 . S
C1202 C1203 1.367 . S
C1203 C1202 1.367 . S
C1203 C1205 1.433 . S
C1204 C1200 1.350 . S
C1204 C1201 1.463 . S
C1204 N1208 1.427 . S
C1205 H1195 0.929 . S
C1205 C1203 1.433 . S
C1205 N1208 1.384 . S
C1206 H1197 0.929 . S
C1206 C1198 1.378 . S
C1206 C1201 1.350 . S
C1207 H1194 0.929 . S
C1207 C1199 1.433 . S
C1207 N1209 1.384 . S
N1208 C1204 1.427 . S
N1208 C1205 1.384 . S
N1209 C1201 1.427 . S
N1209 C1207 1.384 . S
H1210 C1216 0.930 . S
H1211 C1220 0.930 . S
H1212 C1225 0.929 . S
H1213 C1223 0.929 . S
H1214 C1218 0.929 . S
H1215 C1224 0.929 . S
C1216 H1210 0.930 . S
C1216 C1217 1.367 . S
C1216 C1224 1.378 . S
C1217 C1216 1.367 . S
C1217 C1225 1.433 . S
C1218 H1214 0.929 . S
C1218 C1220 1.378 . S
C1218 C1222 1.350 . S
C1219 C1222 1.463 . S
C1219 C1224 1.350 . S
C1219 N1227 1.427 . S
C1220 H1211 0.930 . S
C1220 C1218 1.378 . S
C1220 C1221 1.367 . S
C1221 C1220 1.367 . S
C1221 C1223 1.433 . S
C1222 C1218 1.350 . S
C1222 C1219 1.463 . S
C1222 N1226 1.427 . S
C1223 H1213 0.929 . S
C1223 C1221 1.433 . S
C1223 N1226 1.384 . S
C1224 H1215 0.929 . S
C1224 C1216 1.378 . S
C1224 C1219 1.350 . S
C1225 H1212 0.929 . S
C1225 C1217 1.433 . S
C1225 N1227 1.384 . S
N1226 C1222 1.427 . S
N1226 C1223 1.384 . S
N1227 C1219 1.427 . S
N1227 C1225 1.384 . S
H1228 C1234 0.930 . S
H1229 C1238 0.930 . S
H1230 C1243 0.929 . S
H1231 C1241 0.929 . S
H1232 C1236 0.929 . S
H1233 C1242 0.929 . S
C1234 H1228 0.930 . S
C1234 C1235 1.367 . S
C1234 C1242 1.378 . S
C1235 C1234 1.367 . S
C1235 C1243 1.433 . S
C1236 H1232 0.929 . S
C1236 C1238 1.378 . S
C1236 C1240 1.350 . S
C1237 C1240 1.463 . S
C1237 C1242 1.350 . S
C1237 N1245 1.427 . S
C1238 H1229 0.930 . S
C1238 C1236 1.378 . S
C1238 C1239 1.367 . S
C1239 C1238 1.367 . S
C1239 C1241 1.433 . S
C1240 C1236 1.350 . S
C1240 C1237 1.463 . S
C1240 N1244 1.427 . S
C1241 H1231 0.929 . S
C1241 C1239 1.433 . S
C1241 N1244 1.384 . S
C1242 H1233 0.929 . S
C1242 C1234 1.378 . S
C1242 C1237 1.350 . S
C1243 H1230 0.929 . S
C1243 C1235 1.433 . S
C1243 N1245 1.384 . S
N1244 C1240 1.427 . S
N1244 C1241 1.384 . S
N1245 C1237 1.427 . S
N1245 C1243 1.384 . S
H1246 C1252 0.930 . S
H1247 C1256 0.930 . S
H1248 C1261 0.929 . S
H1249 C1259 0.929 . S
H1250 C1254 0.929 . S
H1251 C1260 0.929 . S
C1252 H1246 0.930 . S
C1252 C1253 1.367 . S
C1252 C1260 1.378 . S
C1253 C1252 1.367 . S
C1253 C1261 1.433 . S
C1254 H1250 0.929 . S
C1254 C1256 1.378 . S
C1254 C1258 1.350 . S
C1255 C1258 1.463 . S
C1255 C1260 1.350 . S
C1255 N1263 1.427 . S
C1256 H1247 0.930 . S
C1256 C1254 1.378 . S
C1256 C1257 1.367 . S
C1257 C1256 1.367 . S
C1257 C1259 1.433 . S
C1258 C1254 1.350 . S
C1258 C1255 1.463 . S
C1258 N1262 1.427 . S
C1259 H1249 0.929 . S
C1259 C1257 1.433 . S
C1259 N1262 1.384 . S
C1260 H1251 0.929 . S
C1260 C1252 1.378 . S
C1260 C1255 1.350 . S
C1261 H1248 0.929 . S
C1261 C1253 1.433 . S
C1261 N1263 1.384 . S
N1262 C1258 1.427 . S
N1262 C1259 1.384 . S
N1263 C1255 1.427 . S
N1263 C1261 1.384 . S
C551 C2 1.510 . S
C555 C478 1.510 . S
C569 C36 1.508 . S
C573 C512 1.508 . S
C587 C70 1.508 . S
C591 C410 1.508 . S
C605 C104 1.512 . S
C609 C444 1.512 . S
C623 C138 1.514 . S
C627 C342 1.514 . S
C641 C172 1.508 . S
C645 C376 1.509 . S
C659 C274 1.513 . S
C663 C206 1.514 . S
C677 C308 1.511 . S
C681 C240 1.512 . S
C695 C33 0.918 . S
C699 C39 0.926 . S
C713 C67 0.926 . S
C717 C73 0.932 . S
C731 C101 0.918 . S
C735 C107 0.927 . S
C749 C5 0.926 . S
C753 C135 0.930 . S
C767 C515 0.924 . S
C771 C169 0.919 . S
C785 C413 0.926 . S
C789 C203 0.918 . S
C803 C447 0.922 . S
C807 C237 0.923 . S
C821 C481 0.927 . S
C825 C271 0.931 . S
C839 C305 0.918 . S
C843 C311 0.925 . S
C857 C339 0.931 . S
C861 C345 0.928 . S
C875 C379 0.932 . S
C879 C373 0.925 . S
C893 C407 0.930 . S
C897 C277 0.930 . S
C911 C441 0.924 . S
C915 C243 0.922 . S
C929 C141 0.925 . S
C933 C475 0.930 . S
C947 C175 0.923 . S
C951 C509 0.919 . S
C965 C543 0.923 . S
C969 C209 0.932 . S
C983 C9 1.486 . S
C987 C77 1.481 . S
C1001 C43 1.491 . S
C1005 C111 1.498 . S
C1019 C213 1.494 . S
C1023 C145 1.486 . S
C1037 C247 1.497 . S
C1041 C179 1.489 . S
C1055 C281 1.483 . S
C1059 C349 1.490 . S
C1073 C315 1.494 . S
C1077 C383 1.500 . S
C1091 C417 1.488 . S
C1095 C485 1.482 . S
C1109 C451 1.492 . S
C1113 C519 1.485 . S
C1127 C156 1.992 . S
C1131 C20 1.993 . S
C1145 C190 2.001 . S
C1149 C54 1.999 . S
C1163 C88 2.001 . S
C1167 C224 2.001 . S
C1181 C258 2.001 . S
C1185 C122 2.001 . S
C1199 C292 1.992 . S
C1203 C428 1.994 . S
C1217 C462 1.999 . S
C1221 C326 1.996 . S
C1235 C496 1.992 . S
C1239 C360 1.992 . S
C1253 C394 1.999 . S
C1257 C530 1.995 . S
