# Generated by pormake.
# Topology fna, (5)-cn, num edge types: 1
# Building blocks:
#     Node 0, Type 0, BuildingBlock: BEQFEK_clean_sbu_0, # of connection points: 5
#     Node 1, Type 0, BuildingBlock: BEQFEK_clean_sbu_0, # of connection points: 5
#     Node 2, Type 0, BuildingBlock: BEQFEK_clean_sbu_0, # of connection points: 5
#     Node 3, Type 0, BuildingBlock: BEQFEK_clean_sbu_0, # of connection points: 5
#     Node 4, Type 0, BuildingBlock: BEQFEK_clean_sbu_0, # of connection points: 5
#     Node 5, Type 0, BuildingBlock: BEQFEK_clean_sbu_0, # of connection points: 5
#     Node 6, Type 0, BuildingBlock: BEQFEK_clean_sbu_0, # of connection points: 5
#     Node 7, Type 0, BuildingBlock: BEQFEK_clean_sbu_0, # of connection points: 5
#     Node 8, Type 0, BuildingBlock: BEQFEK_clean_sbu_0, # of connection points: 5
#     Node 9, Type 0, BuildingBlock: BEQFEK_clean_sbu_0, # of connection points: 5
#     Node 10, Type 0, BuildingBlock: BEQFEK_clean_sbu_0, # of connection points: 5
#     Node 11, Type 0, BuildingBlock: BEQFEK_clean_sbu_0, # of connection points: 5
#     Edge 12, Type (0, 0), BuildingBlock: KIFKEQ_clean_linker_1, # of connection points: 2
#     Edge 13, Type (0, 0), BuildingBlock: KIFKEQ_clean_linker_1, # of connection points: 2
#     Edge 14, Type (0, 0), BuildingBlock: KIFKEQ_clean_linker_1, # of connection points: 2
#     Edge 15, Type (0, 0), BuildingBlock: KIFKEQ_clean_linker_1, # of connection points: 2
#     Edge 16, Type (0, 0), BuildingBlock: KIFKEQ_clean_linker_1, # of connection points: 2
#     Edge 17, Type (0, 0), BuildingBlock: KIFKEQ_clean_linker_1, # of connection points: 2
#     Edge 18, Type (0, 0), BuildingBlock: KIFKEQ_clean_linker_1, # of connection points: 2
#     Edge 19, Type (0, 0), BuildingBlock: KIFKEQ_clean_linker_1, # of connection points: 2
#     Edge 20, Type (0, 0), BuildingBlock: KIFKEQ_clean_linker_1, # of connection points: 2
#     Edge 21, Type (0, 0), BuildingBlock: KIFKEQ_clean_linker_1, # of connection points: 2
#     Edge 22, Type (0, 0), BuildingBlock: KIFKEQ_clean_linker_1, # of connection points: 2
#     Edge 23, Type (0, 0), BuildingBlock: KIFKEQ_clean_linker_1, # of connection points: 2
#     Edge 24, Type (0, 0), BuildingBlock: KIFKEQ_clean_linker_1, # of connection points: 2
#     Edge 25, Type (0, 0), BuildingBlock: KIFKEQ_clean_linker_1, # of connection points: 2
#     Edge 26, Type (0, 0), BuildingBlock: KIFKEQ_clean_linker_1, # of connection points: 2
#     Edge 27, Type (0, 0), BuildingBlock: KIFKEQ_clean_linker_1, # of connection points: 2
#     Edge 28, Type (0, 0), BuildingBlock: KIFKEQ_clean_linker_1, # of connection points: 2
#     Edge 29, Type (0, 0), BuildingBlock: KIFKEQ_clean_linker_1, # of connection points: 2
#     Edge 30, Type (0, 0), BuildingBlock: KIFKEQ_clean_linker_1, # of connection points: 2
#     Edge 31, Type (0, 0), BuildingBlock: KIFKEQ_clean_linker_1, # of connection points: 2
#     Edge 32, Type (0, 0), BuildingBlock: KIFKEQ_clean_linker_1, # of connection points: 2
#     Edge 33, Type (0, 0), BuildingBlock: KIFKEQ_clean_linker_1, # of connection points: 2
#     Edge 34, Type (0, 0), BuildingBlock: KIFKEQ_clean_linker_1, # of connection points: 2
#     Edge 35, Type (0, 0), BuildingBlock: KIFKEQ_clean_linker_1, # of connection points: 2
#     Edge 36, Type (0, 0), BuildingBlock: KIFKEQ_clean_linker_1, # of connection points: 2
#     Edge 37, Type (0, 0), BuildingBlock: KIFKEQ_clean_linker_1, # of connection points: 2
#     Edge 38, Type (0, 0), BuildingBlock: KIFKEQ_clean_linker_1, # of connection points: 2
#     Edge 39, Type (0, 0), BuildingBlock: KIFKEQ_clean_linker_1, # of connection points: 2
#     Edge 40, Type (0, 0), BuildingBlock: KIFKEQ_clean_linker_1, # of connection points: 2
#     Edge 41, Type (0, 0), BuildingBlock: KIFKEQ_clean_linker_1, # of connection points: 2
# Relax obj value: 0.680
# Max RMSD: 0.271
# Mean RMSD: 0.271
data_MOF--net-fna--node1-BEQFEK_clean_sbu_0--edge1-KIFKEQ_clean_linker_1
_symmetry_space_group_name_H-M    P1
_symmetry_Int_Tables_number       1
_symmetry_cell_setting            triclinic
loop_
_symmetry_equiv_pos_as_xyz
'x, y, z'
_cell_length_a     45.34516
_cell_length_b     45.281006
_cell_length_c     41.282794
_cell_angle_alpha  89.909913
_cell_angle_beta   90.048545
_cell_angle_gamma 119.9709
loop_
_atom_site_label
_atom_site_type_symbol
_atom_site_fract_x
_atom_site_fract_y
_atom_site_fract_z
_atom_type_partial_charge
Co0 Co 0.34782 0.35345 0.4888 0.0
Co1 Co 0.33423 0.31417 0.4235 0.0
C2 C 0.39804 0.38184 0.43587 0.0
O3 O 0.38751 0.38312 0.46389 0.0
O4 O 0.38047 0.35673 0.41701 0.0
C5 C 0.3832 0.39593 0.54309 0.0
O6 O 0.40893 0.41178 0.52305 0.0
C7 C 0.34587 0.27383 0.3746 0.0
C8 C 0.29687 0.24909 0.34832 0.0
C9 C 0.32814 0.25067 0.35002 0.0
N10 N 0.32571 0.28484 0.38714 0.0
N11 N 0.29662 0.27026 0.37105 0.0
C12 C 0.3818 0.28638 0.38525 0.0
H13 H 0.39379 0.31324 0.39327 0.0
H14 H 0.38199 0.27105 0.40611 0.0
H15 H 0.39706 0.28427 0.36533 0.0
C16 C 0.34026 0.2896 0.51489 0.0
N17 N 0.34089 0.30881 0.48973 0.0
N18 N 0.33352 0.29095 0.46283 0.0
C19 C 0.32676 0.25906 0.47041 0.0
C20 C 0.33095 0.25724 0.50367 0.0
C21 C 0.35056 0.30296 0.54865 0.0
H22 H 0.37432 0.32802 0.54783 0.0
H23 H 0.35512 0.28556 0.56404 0.0
H24 H 0.33032 0.30662 0.55972 0.0
O25 O 0.30816 0.35408 0.47144 0.0
O26 O 0.29629 0.32514 0.42529 0.0
H27 H 0.29787 0.23288 0.4281 0.0
H28 H 0.29795 0.2053 0.45976 0.0
C29 C 0.31354 0.22996 0.44705 0.0
H30 H 0.33522 0.22938 0.43535 0.0
H31 H 0.27627 0.27415 0.37608 0.0
O32 O 0.35516 0.37145 0.53292 0.0
C33 C 0.28989 0.34182 0.44629 0.0
Co34 Co 0.00948 0.36439 0.6623 0.0
Co35 Co 0.02686 0.34462 0.59573 0.0
C36 C 0.03057 0.41227 0.60692 0.0
O37 O 0.02123 0.40365 0.63589 0.0
O38 O 0.03337 0.39192 0.58747 0.0
C39 C 0.02047 0.40743 0.71578 0.0
O40 O 0.04538 0.43013 0.69775 0.0
C41 C 0.07437 0.35033 0.54467 0.0
C42 C 0.04745 0.29932 0.52211 0.0
C43 C 0.07791 0.33 0.52154 0.0
N44 N 0.04367 0.33217 0.55873 0.0
N45 N 0.02747 0.3019 0.54476 0.0
C46 C 0.09927 0.38669 0.55294 0.0
H47 H 0.11262 0.38772 0.57579 0.0
H48 H 0.11826 0.39931 0.53335 0.0
H49 H 0.08565 0.40097 0.5569 0.0
C50 C 0.06245 0.3504 0.68553 0.0
N51 N 0.0441 0.35328 0.66142 0.0
N52 N 0.05144 0.34387 0.63383 0.0
C53 C 0.07461 0.33398 0.63989 0.0
C54 C 0.08232 0.33789 0.67282 0.0
C55 C 0.0617 0.36084 0.7198 0.0
H56 H 0.06894 0.38809 0.72018 0.0
H57 H 0.07959 0.35769 0.73574 0.0
H58 H 0.03547 0.34573 0.72952 0.0
O59 O 0.96661 0.32517 0.6487 0.0
O60 O 0.9772 0.30928 0.60135 0.0
H61 H 0.06576 0.30132 0.59902 0.0
H62 H 0.09662 0.30274 0.62763 0.0
C63 C 0.08679 0.31801 0.61555 0.0
H64 H 0.10771 0.33826 0.60109 0.0
H65 H 0.00325 0.28255 0.55148 0.0
O66 O 0.00261 0.377 0.70572 0.0
C67 C 0.95682 0.30515 0.62451 0.0
Co68 Co 0.6421 1.00152 0.82391 0.0
Co69 Co 0.68514 0.029 0.7604 0.0
C70 C 0.61986 0.03 0.77064 0.0
O71 O 0.61687 0.0172 0.79856 0.0
O72 O 0.64426 0.03503 0.75178 0.0
C73 C 0.59786 0.99504 0.87675 0.0
O74 O 0.58609 0.00984 0.85745 0.0
C75 C 0.72565 0.07662 0.70719 0.0
C76 C 0.76606 0.06338 0.70139 0.0
C77 C 0.75625 0.08637 0.69106 0.0
N78 N 0.71871 0.05007 0.72678 0.0
N79 N 0.74259 0.04187 0.72254 0.0
C80 C 0.70266 0.09126 0.70354 0.0
H81 H 0.70732 0.10927 0.72369 0.0
H82 H 0.70677 0.10458 0.67998 0.0
H83 H 0.67574 0.07067 0.70466 0.0
C84 C 0.70549 0.0544 0.85361 0.0
N85 N 0.68735 0.03704 0.82754 0.0
N86 N 0.7058 0.04972 0.80118 0.0
C87 C 0.73664 0.0758 0.80993 0.0
C88 C 0.73734 0.07957 0.84342 0.0
C89 C 0.69256 0.04641 0.88769 0.0
H90 H 0.68141 0.01871 0.89226 0.0
H91 H 0.67213 0.05286 0.89093 0.0
H92 H 0.71305 0.06075 0.90562 0.0
O93 O 0.63991 0.96077 0.80557 0.0
O94 O 0.67259 0.97947 0.76176 0.0
H95 H 0.77447 0.0827 0.77526 0.0
H96 H 0.78533 0.12027 0.79893 0.0
C97 C 0.76424 0.09787 0.78667 0.0
H98 H 0.75362 0.10688 0.76736 0.0
H99 H 0.7437 0.02251 0.73526 0.0
O100 O 0.621 0.98923 0.86684 0.0
C101 C 0.65383 0.95547 0.78129 0.0
Co102 Co 0.63891 0.64678 0.98854 0.0
Co103 Co 0.65978 0.68793 0.92386 0.0
C104 C 0.59734 0.61805 0.92986 0.0
O105 O 0.60473 0.61645 0.95907 0.0
O106 O 0.61559 0.64439 0.91254 0.0
C107 C 0.59515 0.60603 0.03971 0.0
O108 O 0.57033 0.60005 0.01958 0.0
C109 C 0.65194 0.73082 0.87507 0.0
C110 C 0.70294 0.75787 0.85265 0.0
C111 C 0.6715 0.75606 0.85262 0.0
N112 N 0.6712 0.71895 0.88818 0.0
N113 N 0.70151 0.7349 0.87431 0.0
C114 C 0.61525 0.71731 0.88344 0.0
H115 H 0.60286 0.6898 0.88939 0.0
H116 H 0.61332 0.73065 0.9051 0.0
H117 H 0.60152 0.72115 0.86307 0.0
C118 C 0.64154 0.70838 0.01318 0.0
N119 N 0.64306 0.68997 0.98844 0.0
N120 N 0.65419 0.70902 0.96223 0.0
C121 C 0.66102 0.74089 0.97 0.0
C122 C 0.6531 0.74132 0.00249 0.0
C123 C 0.62924 0.69442 0.04644 0.0
H124 H 0.60423 0.67075 0.04457 0.0
H125 H 0.62619 0.71262 0.06204 0.0
H126 H 0.64748 0.68802 0.05792 0.0
O127 O 0.68247 0.6511 0.97812 0.0
O128 O 0.699 0.67892 0.93139 0.0
H129 H 0.69652 0.76859 0.93186 0.0
H130 H 0.6932 0.79504 0.96276 0.0
C131 C 0.67879 0.77137 0.94833 0.0
H132 H 0.65972 0.77393 0.93366 0.0
H133 H 0.72159 0.7309 0.88038 0.0
O134 O 0.62586 0.6256 0.03123 0.0
C135 C 0.70408 0.66409 0.95537 0.0
Co136 Co 0.01058 0.65213 0.15271 0.0
Co137 Co 0.98135 0.66483 0.08857 0.0
C138 C 0.98615 0.60192 0.09851 0.0
O139 O 0.99974 0.61337 0.1258 0.0
O140 O 0.97657 0.61844 0.08042 0.0
C141 C 0.00577 0.61043 0.20532 0.0
O142 O 0.982 0.58681 0.18703 0.0
C143 C 0.93139 0.6569 0.03768 0.0
C144 C 0.95007 0.71079 0.02505 0.0
C145 C 0.92361 0.678 0.01919 0.0
N146 N 0.96032 0.67658 0.05427 0.0
N147 N 0.97167 0.70867 0.04599 0.0
C148 C 0.91254 0.61876 0.03907 0.0
H149 H 0.89514 0.61004 0.06023 0.0
H150 H 0.8977 0.60765 0.01657 0.0
H151 H 0.93062 0.60927 0.04206 0.0
C152 C 0.95638 0.66133 0.18172 0.0
N153 N 0.97347 0.65979 0.15573 0.0
N154 N 0.96042 0.66473 0.12916 0.0
C155 C 0.93425 0.66946 0.13761 0.0
C156 C 0.93095 0.66756 0.17118 0.0
C157 C 0.963 0.65456 0.21572 0.0
H158 H 0.95606 0.62744 0.21782 0.0
H159 H 0.94793 0.65941 0.23382 0.0
H160 H 0.99048 0.6706 0.22134 0.0
O161 O 0.05027 0.69187 0.13531 0.0
O162 O 0.03076 0.70222 0.08975 0.0
H163 H 0.89589 0.68327 0.12688 0.0
H164 H 0.89877 0.65447 0.09852 0.0
C165 C 0.91362 0.67697 0.11423 0.0
H166 H 0.93084 0.69879 0.09867 0.0
H167 H 0.99344 0.72931 0.05576 0.0
O168 O 0.02174 0.64108 0.19533 0.0
C169 C 0.05485 0.70941 0.10984 0.0
Co170 Co 0.34968 0.00525 0.31989 0.0
Co171 Co 0.31404 0.98196 0.25291 0.0
C172 C 0.37735 0.97884 0.27074 0.0
O173 O 0.37728 0.98992 0.29883 0.0
O174 O 0.35539 0.97559 0.2495 0.0
C175 C 0.39381 0.02095 0.37459 0.0
O176 O 0.4162 0.02199 0.35379 0.0
C177 C 0.27495 0.93137 0.20271 0.0
C178 C 0.24998 0.95591 0.17713 0.0
C179 C 0.25147 0.92611 0.17848 0.0
N180 N 0.28606 0.96245 0.21551 0.0
N181 N 0.27147 0.9772 0.19975 0.0
C182 C 0.28748 0.90785 0.21313 0.0
H183 H 0.27475 0.89492 0.23599 0.0
H184 H 0.28248 0.88842 0.19431 0.0
H185 H 0.31519 0.92259 0.2179 0.0
C186 C 0.28332 0.95203 0.34344 0.0
N187 N 0.30411 0.9703 0.31907 0.0
N188 N 0.28786 0.96027 0.2913 0.0
C189 C 0.25536 0.93574 0.29746 0.0
C190 C 0.2515 0.92973 0.33074 0.0
C191 C 0.29495 0.95387 0.37775 0.0
H192 H 0.31995 0.95501 0.37807 0.0
H193 H 0.27677 0.93148 0.39222 0.0
H194 H 0.29807 0.97744 0.38916 0.0
O195 O 0.35546 0.04724 0.3006 0.0
O196 O 0.32762 0.03148 0.25386 0.0
H197 H 0.23128 0.93877 0.25377 0.0
H198 H 0.20236 0.90937 0.28367 0.0
C199 C 0.2279 0.91975 0.27247 0.0
H200 H 0.2292 0.89849 0.26065 0.0
H201 H 0.27524 1.00134 0.20521 0.0
O202 O 0.36499 0.01544 0.36466 0.0
C203 C 0.34498 0.05431 0.27481 0.0
Co204 Co 0.65059 0.63332 0.32555 0.0
Co205 Co 0.68636 0.65437 0.39262 0.0
C206 C 0.62213 0.58729 0.38197 0.0
O207 O 0.62217 0.59529 0.35263 0.0
O208 O 0.64505 0.60774 0.40154 0.0
C209 C 0.6033 0.61223 0.27409 0.0
O210 O 0.58562 0.62006 0.29393 0.0
C211 C 0.72645 0.64934 0.44565 0.0
C212 C 0.75367 0.70194 0.46461 0.0
C213 C 0.7515 0.67041 0.46754 0.0
N214 N 0.71516 0.66782 0.42999 0.0
N215 N 0.73102 0.69908 0.4419 0.0
C216 C 0.71287 0.6121 0.43978 0.0
H217 H 0.68467 0.59859 0.43967 0.0
H218 H 0.72116 0.60838 0.41561 0.0
H219 H 0.72136 0.60059 0.45872 0.0
C220 C 0.71624 0.64299 0.30488 0.0
N221 N 0.6955 0.64291 0.32809 0.0
N222 N 0.71206 0.65313 0.35572 0.0
C223 C 0.74471 0.66106 0.35043 0.0
C224 C 0.74808 0.65433 0.31817 0.0
C225 C 0.70597 0.63412 0.27019 0.0
H226 H 0.6955 0.65003 0.26094 0.0
H227 H 0.68555 0.60703 0.26861 0.0
H228 H 0.72767 0.63824 0.25468 0.0
O229 O 0.64751 0.67365 0.33638 0.0
O230 O 0.67244 0.68975 0.38449 0.0
H231 H 0.77012 0.69446 0.3904 0.0
H232 H 0.79793 0.68781 0.36375 0.0
C233 C 0.77242 0.67552 0.37527 0.0
H234 H 0.77014 0.65472 0.3911 0.0
H235 H 0.72756 0.71887 0.43347 0.0
O236 O 0.6325 0.61758 0.28237 0.0
C237 C 0.65723 0.69397 0.36037 0.0
Co238 Co 0.00214 0.65117 0.494 0.0
Co239 Co 0.02876 0.69174 0.55883 0.0
C240 C 0.02536 0.62461 0.54858 0.0
O241 O 0.01274 0.62307 0.52091 0.0
O242 O 0.03376 0.65017 0.56707 0.0
C243 C 0.01344 0.61952 0.44164 0.0
O244 O 0.03897 0.62431 0.46024 0.0
C245 C 0.07885 0.73295 0.60914 0.0
C246 C 0.05643 0.7627 0.6288 0.0
C247 C 0.08466 0.75862 0.63108 0.0
N248 N 0.04893 0.72294 0.59421 0.0
N249 N 0.03545 0.7405 0.60645 0.0
C250 C 0.10042 0.71698 0.6033 0.0
H251 H 0.11121 0.72321 0.5785 0.0
H252 H 0.12126 0.7255 0.6213 0.0
H253 H 0.08433 0.68888 0.60482 0.0
C254 C 0.0561 0.71572 0.46651 0.0
N255 N 0.03887 0.69623 0.49205 0.0
N256 N 0.05055 0.71403 0.51891 0.0
C257 C 0.07557 0.74583 0.511 0.0
C258 C 0.08008 0.74762 0.47758 0.0
C259 C 0.04827 0.7048 0.43186 0.0
H260 H 0.02036 0.68948 0.42826 0.0
H261 H 0.05977 0.68894 0.42558 0.0
H262 H 0.05877 0.72707 0.41527 0.0
O263 O 0.96141 0.65015 0.51038 0.0
O264 O 0.97925 0.67925 0.55652 0.0
H265 H 0.07632 0.77603 0.55121 0.0
H266 H 0.11045 0.79884 0.52246 0.0
C267 C 0.09456 0.77403 0.53477 0.0
H268 H 0.11145 0.76828 0.54956 0.0
H269 H 0.01238 0.73803 0.59884 0.0
O270 O 0.99331 0.6296 0.45125 0.0
C271 C 0.95585 0.66249 0.53575 0.0
Co272 Co 0.35652 0.00516 0.6678 0.0
Co273 Co 0.33866 0.0291 0.73189 0.0
C274 C 0.40576 0.03163 0.72203 0.0
O275 O 0.3969 0.02006 0.69365 0.0
O276 O 0.38562 0.0355 0.74086 0.0
C277 C 0.39742 0.00998 0.61367 0.0
O278 O 0.42252 0.03247 0.6316 0.0
C279 C 0.34642 0.07828 0.78244 0.0
C280 C 0.29392 0.05594 0.80114 0.0
C281 C 0.3263 0.08396 0.80412 0.0
N282 N 0.32665 0.04865 0.76702 0.0
N283 N 0.2954 0.03521 0.77865 0.0
C284 C 0.38406 0.09962 0.77728 0.0
H285 H 0.39595 0.08363 0.78105 0.0
H286 H 0.38931 0.10891 0.75191 0.0
H287 H 0.39601 0.12145 0.79427 0.0
C288 C 0.34446 0.05801 0.63971 0.0
N289 N 0.34579 0.04023 0.66525 0.0
N290 N 0.33841 0.05112 0.69192 0.0
C291 C 0.33168 0.07617 0.68387 0.0
C292 C 0.33571 0.08153 0.65053 0.0
C293 C 0.35031 0.05168 0.60534 0.0
H294 H 0.33625 0.02392 0.60035 0.0
H295 H 0.37786 0.06127 0.60165 0.0
H296 H 0.34181 0.06459 0.58793 0.0
O297 O 0.318 0.96322 0.68463 0.0
O298 O 0.30246 0.97951 0.72907 0.0
H299 H 0.30147 0.07668 0.72345 0.0
H300 H 0.31426 0.11165 0.69528 0.0
C301 C 0.32232 0.09507 0.70759 0.0
H302 H 0.34463 0.11129 0.72302 0.0
H303 H 0.27485 0.01232 0.77058 0.0
O304 O 0.36726 0.99517 0.62476 0.0
C305 C 0.29819 0.95652 0.70869 0.0
Co306 Co 0.35382 0.35357 0.83647 0.0
Co307 Co 0.31288 0.33962 0.90073 0.0
C308 C 0.37709 0.40628 0.88745 0.0
O309 O 0.37935 0.3956 0.85979 0.0
O310 O 0.35355 0.38724 0.90726 0.0
C311 C 0.39722 0.3889 0.7824 0.0
O312 O 0.41235 0.41522 0.80188 0.0
C313 C 0.27122 0.35007 0.94886 0.0
C314 C 0.24269 0.29918 0.9716 0.0
C315 C 0.24593 0.33126 0.97146 0.0
N316 N 0.28187 0.32979 0.9359 0.0
N317 N 0.26506 0.29955 0.94993 0.0
C318 C 0.28639 0.38707 0.94057 0.0
H319 H 0.31422 0.40019 0.94498 0.0
H320 H 0.28275 0.38993 0.91443 0.0
H321 H 0.27544 0.39967 0.95533 0.0
C322 C 0.28935 0.34086 0.80794 0.0
N323 N 0.30824 0.34282 0.83382 0.0
N324 N 0.2901 0.33678 0.86042 0.0
C325 C 0.25845 0.32996 0.85194 0.0
C326 C 0.25722 0.33277 0.81844 0.0
C327 C 0.30192 0.34622 0.7737 0.0
H328 H 0.3125 0.32931 0.76852 0.0
H329 H 0.32267 0.373 0.77064 0.0
H330 H 0.28136 0.34069 0.75603 0.0
O331 O 0.35758 0.31633 0.85608 0.0
O332 O 0.32613 0.30324 0.90068 0.0
H333 H 0.2291 0.30334 0.89373 0.0
H334 H 0.20522 0.31069 0.86279 0.0
C335 C 0.23014 0.32166 0.87531 0.0
H336 H 0.23485 0.34525 0.88781 0.0
H337 H 0.26812 0.27884 0.94402 0.0
O338 O 0.37302 0.36082 0.79288 0.0
C339 C 0.34472 0.29791 0.88108 0.0
Co340 Co 0.99507 0.35434 0.00224 0.0
Co341 Co 0.97368 0.31405 0.06745 0.0
C342 C 0.96991 0.3779 0.05699 0.0
O343 O 0.98059 0.37994 0.02832 0.0
O344 O 0.96707 0.35454 0.07625 0.0
C345 C 0.99014 0.39125 0.94895 0.0
O346 O 0.96627 0.39171 0.96653 0.0
C347 C 0.92607 0.27214 0.11887 0.0
C348 C 0.94912 0.24186 0.13557 0.0
C349 C 0.92063 0.24535 0.13931 0.0
N350 N 0.95573 0.28302 0.10321 0.0
N351 N 0.96975 0.26534 0.11387 0.0
C352 C 0.90404 0.28785 0.11455 0.0
H353 H 0.89014 0.27934 0.09123 0.0
H354 H 0.88565 0.28103 0.13477 0.0
H355 H 0.92006 0.31595 0.11367 0.0
C356 C 0.94169 0.28884 0.97609 0.0
N357 N 0.96028 0.30849 0.00096 0.0
N358 N 0.9507 0.29079 0.02807 0.0
C359 C 0.92581 0.25872 0.02097 0.0
C360 C 0.91928 0.25646 0.98779 0.0
C361 C 0.9437 0.30207 0.9424 0.0
H362 H 0.96961 0.31129 0.93254 0.0
H363 H 0.93923 0.32397 0.94326 0.0
H364 H 0.92455 0.28272 0.92593 0.0
O365 O 0.03758 0.35839 0.01827 0.0
O366 O 0.02315 0.32802 0.06366 0.0
H367 H 0.92974 0.23068 0.06097 0.0
H368 H 0.89612 0.20506 0.03284 0.0
C369 C 0.90987 0.23022 0.04502 0.0
H370 H 0.89158 0.23352 0.06021 0.0
H371 H 0.99265 0.2682 0.10521 0.0
O372 O 0.00488 0.37545 0.95919 0.0
C373 C 0.04532 0.34626 0.04248 0.0
Co374 Co 0.63778 0.99275 0.1689 0.0
Co375 Co 0.65527 0.97037 0.23427 0.0
C376 C 0.59592 0.9824 0.2272 0.0
O377 O 0.60417 0.99121 0.19801 0.0
O378 O 0.61271 0.97284 0.24497 0.0
C379 C 0.59714 0.99374 0.11584 0.0
O380 O 0.57112 0.97912 0.13576 0.0
C381 C 0.64604 0.92145 0.28625 0.0
C382 C 0.69948 0.93866 0.29905 0.0
C383 C 0.66639 0.91272 0.30475 0.0
N384 N 0.6664 0.95027 0.26974 0.0
N385 N 0.69824 0.96082 0.27815 0.0
C386 C 0.608 0.90331 0.2842 0.0
H387 H 0.59928 0.88535 0.26348 0.0
H388 H 0.5963 0.88907 0.30689 0.0
H389 H 0.5992 0.92182 0.27998 0.0
C390 C 0.63606 0.93134 0.14499 0.0
N391 N 0.63876 0.95204 0.16949 0.0
N392 N 0.64775 0.94266 0.1962 0.0
C393 C 0.65157 0.91556 0.18912 0.0
C394 C 0.64387 0.9074 0.15655 0.0
C395 C 0.63014 0.93712 0.11042 0.0
H396 H 0.64895 0.96361 0.10329 0.0
H397 H 0.6043 0.93384 0.10806 0.0
H398 H 0.63253 0.9194 0.09357 0.0
O399 O 0.6825 0.02986 0.17903 0.0
O400 O 0.69642 0.01727 0.22655 0.0
H401 H 0.68685 0.91815 0.22507 0.0
H402 H 0.66915 0.88012 0.20033 0.0
C403 C 0.66363 0.89862 0.21255 0.0
H404 H 0.64362 0.88467 0.23093 0.0
H405 H 0.71928 0.98217 0.26828 0.0
O406 O 0.62666 1.00147 0.12566 0.0
C407 C 0.70342 0.03708 0.20217 0.0
H408 H 0.38565 0.13033 0.61378 0.0
H409 H 0.2809 0.09043 0.64161 0.0
H410 H 0.38191 0.17064 0.57711 0.0
H411 H 0.27658 0.13031 0.60433 0.0
H412 H 0.29554 0.23244 0.55989 0.0
H413 H 0.29559 0.18965 0.59589 0.0
H414 H 0.35676 0.17231 0.5266 0.0
H415 H 0.35783 0.2163 0.49139 0.0
C416 C 0.36183 0.13039 0.61203 0.0
C417 C 0.33364 0.10759 0.63058 0.0
C418 C 0.35951 0.15317 0.59078 0.0
C419 C 0.32882 0.15354 0.58741 0.0
C420 C 0.3007 0.13096 0.60648 0.0
C421 C 0.30311 0.1082 0.62787 0.0
C422 C 0.30889 0.21934 0.55241 0.0
C423 C 0.3271 0.22797 0.52314 0.0
C424 C 0.3087 0.19462 0.57289 0.0
C425 C 0.32655 0.17777 0.56441 0.0
C426 C 0.34336 0.18529 0.53426 0.0
C427 C 0.34363 0.21015 0.51386 0.0
H428 H 0.06946 0.29809 0.72628 0.0
H429 H 0.1494 0.36234 0.65984 0.0
H430 H 0.11105 0.2949 0.76154 0.0
H431 H 0.19111 0.35817 0.69429 0.0
H432 H 0.2595 0.38402 0.78305 0.0
H433 H 0.21662 0.38159 0.74572 0.0
H434 H 0.15088 0.2752 0.76952 0.0
H435 H 0.19391 0.27823 0.80754 0.0
C436 C 0.09596 0.31101 0.71901 0.0
C437 C 0.10647 0.33098 0.69078 0.0
C438 C 0.11977 0.30903 0.73906 0.0
C439 C 0.15457 0.32678 0.73109 0.0
C440 C 0.16464 0.34489 0.7016 0.0
C441 C 0.14079 0.34697 0.68164 0.0
C442 C 0.2357 0.36026 0.7804 0.0
C443 C 0.22972 0.33138 0.79817 0.0
C444 C 0.2113 0.35868 0.75876 0.0
C445 C 0.18041 0.32807 0.75423 0.0
C446 C 0.17427 0.29924 0.77253 0.0
C447 C 0.19876 0.30091 0.79434 0.0
H448 H 0.73471 0.12619 0.88253 0.0
H449 H 0.80158 0.09009 0.85069 0.0
H450 H 0.779 0.167 0.91852 0.0
H451 H 0.84575 0.12979 0.88773 0.0
H452 H 0.92874 0.23021 0.93207 0.0
H453 H 0.88529 0.18734 0.89692 0.0
H454 H 0.80805 0.17197 0.96708 0.0
H455 H 0.85159 0.21659 0.00104 0.0
C456 C 0.75901 0.12704 0.88344 0.0
C457 C 0.76496 0.10525 0.86393 0.0
C458 C 0.7843 0.15011 0.90431 0.0
C459 C 0.81602 0.15161 0.90644 0.0
C460 C 0.82189 0.12977 0.88656 0.0
C461 C 0.79665 0.10697 0.86537 0.0
C462 C 0.90241 0.21758 0.93986 0.0
C463 C 0.89339 0.22703 0.96895 0.0
C464 C 0.87748 0.19273 0.91989 0.0
C465 C 0.84292 0.17631 0.92883 0.0
C466 C 0.83423 0.18461 0.95891 0.0
C467 C 0.85919 0.20981 0.97867 0.0
H468 H 0.62623 0.78245 0.99222 0.0
H469 H 0.68982 0.76477 0.05786 0.0
H470 H 0.62599 0.82392 0.03016 0.0
H471 H 0.68914 0.80551 0.09616 0.0
H472 H 0.7006 0.9027 0.14518 0.0
H473 H 0.70661 0.86549 0.10586 0.0
H474 H 0.59943 0.81859 0.08329 0.0
H475 H 0.5938 0.85598 0.12233 0.0
C476 C 0.6406 0.78795 0.01455 0.0
C477 C 0.65772 0.77035 0.02244 0.0
C478 C 0.64017 0.8113 0.03642 0.0
C479 C 0.65705 0.81752 0.06644 0.0
C480 C 0.67592 0.80134 0.0733 0.0
C481 C 0.67624 0.77798 0.05147 0.0
C482 C 0.67832 0.88388 0.13222 0.0
C483 C 0.64669 0.88179 0.13681 0.0
C484 C 0.68173 0.86278 0.10961 0.0
C485 C 0.65358 0.83943 0.09113 0.0
C486 C 0.62176 0.8368 0.09659 0.0
C487 C 0.61838 0.8578 0.1192 0.0
H488 H 0.94129 0.71008 0.22184 0.0
H489 H 0.86221 0.62851 0.16607 0.0
H490 H 0.89866 0.7078 0.25963 0.0
H491 H 0.81927 0.62695 0.20289 0.0
H492 H 0.75554 0.6035 0.29315 0.0
H493 H 0.80065 0.60855 0.25733 0.0
H494 H 0.85178 0.71828 0.26637 0.0
H495 H 0.80675 0.71276 0.30303 0.0
C496 C 0.91464 0.69197 0.21754 0.0
C497 C 0.90491 0.6692 0.1914 0.0
C498 C 0.89023 0.69076 0.23901 0.0
C499 C 0.85554 0.66684 0.23461 0.0
C500 C 0.84581 0.64513 0.20748 0.0
C501 C 0.87028 0.64627 0.18613 0.0
C502 C 0.77686 0.62858 0.28791 0.0
C503 C 0.77807 0.65773 0.30091 0.0
C504 C 0.80243 0.63158 0.26706 0.0
C505 C 0.82961 0.66386 0.25851 0.0
C506 C 0.83135 0.69303 0.27257 0.0
C507 C 0.80573 0.68996 0.29361 0.0
H508 H 0.21146 0.86195 0.31759 0.0
H509 H 0.22435 0.93984 0.38543 0.0
H510 H 0.16769 0.81848 0.3524 0.0
H511 H 0.18207 0.89651 0.42119 0.0
H512 H 0.08664 0.81048 0.46921 0.0
H513 H 0.12432 0.85488 0.43103 0.0
H514 H 0.16703 0.79221 0.40235 0.0
H515 H 0.12861 0.74782 0.43967 0.0
C516 C 0.20453 0.86976 0.33975 0.0
C517 C 0.22146 0.90411 0.34905 0.0
C518 C 0.17985 0.84487 0.35998 0.0
C519 C 0.17178 0.85384 0.39001 0.0
C520 C 0.18746 0.88855 0.3983 0.0
C521 C 0.21187 0.9134 0.37793 0.0
C522 C 0.10448 0.80662 0.45494 0.0
C523 C 0.10515 0.77609 0.45744 0.0
C524 C 0.12597 0.8319 0.43302 0.0
C525 C 0.14858 0.82707 0.4133 0.0
C526 C 0.14947 0.79658 0.41648 0.0
C527 C 0.12785 0.77132 0.43816 0.0
H528 H 0.31248 0.22872 0.28756 0.0
H529 H 0.36223 0.21952 0.37302 0.0
H530 H 0.32233 0.18655 0.25996 0.0
H531 H 0.37202 0.17791 0.3459 0.0
H532 H 0.40013 0.11359 0.29319 0.0
H533 H 0.40181 0.16726 0.30402 0.0
H534 H 0.30057 0.12569 0.26421 0.0
H535 H 0.29967 0.07244 0.25213 0.0
C536 C 0.32608 0.21818 0.3002 0.0
C537 C 0.33737 0.22812 0.33217 0.0
C538 C 0.33162 0.19399 0.28446 0.0
C539 C 0.34834 0.17909 0.30052 0.0
C540 C 0.36004 0.18957 0.33233 0.0
C541 C 0.35455 0.21366 0.34796 0.0
C542 C 0.37876 0.11642 0.28572 0.0
C543 C 0.34963 0.08885 0.27217 0.0
C544 C 0.37955 0.14702 0.2922 0.0
C545 C 0.35094 0.15045 0.28589 0.0
C546 C 0.32307 0.12397 0.2694 0.0
C547 C 0.32252 0.09343 0.26241 0.0
H548 H 0.22587 0.29316 0.42766 0.0
H549 H 0.28448 0.39694 0.4613 0.0
H550 H 0.17316 0.29346 0.43998 0.0
H551 H 0.23222 0.39782 0.47246 0.0
H552 H 0.14326 0.36249 0.54381 0.0
H553 H 0.19361 0.36922 0.51691 0.0
H554 H 0.13328 0.3154 0.43337 0.0
H555 H 0.08228 0.30896 0.46061 0.0
C556 C 0.22742 0.31645 0.43639 0.0
C557 C 0.2591 0.34488 0.44396 0.0
C558 C 0.19728 0.31665 0.4435 0.0
C559 C 0.19855 0.34542 0.45798 0.0
C560 C 0.23038 0.37496 0.46218 0.0
C561 C 0.26031 0.37458 0.45554 0.0
C562 C 0.14077 0.35323 0.51925 0.0
C563 C 0.10894 0.33625 0.5039 0.0
C564 C 0.16973 0.35691 0.50381 0.0
C565 C 0.16765 0.34339 0.47269 0.0
C566 C 0.13575 0.32622 0.45728 0.0
C567 C 0.10664 0.32264 0.4728 0.0
H568 H 0.80554 0.09566 0.64787 0.0
H569 H 0.75964 0.14919 0.69258 0.0
H570 H 0.84976 0.14908 0.62514 0.0
H571 H 0.80085 0.20124 0.6667 0.0
H572 H 0.9081 0.29169 0.66952 0.0
H573 H 0.85597 0.2393 0.67865 0.0
H574 H 0.87256 0.19702 0.59122 0.0
H575 H 0.92677 0.24981 0.58308 0.0
C576 C 0.80401 0.1185 0.65186 0.0
C577 C 0.77845 0.11763 0.67184 0.0
C578 C 0.82927 0.14922 0.63844 0.0
C579 C 0.82939 0.17988 0.64432 0.0
C580 C 0.80227 0.17843 0.6622 0.0
C581 C 0.77769 0.14799 0.67641 0.0
C582 C 0.90065 0.2715 0.65188 0.0
C583 C 0.92204 0.27494 0.62577 0.0
C584 C 0.87021 0.24126 0.65695 0.0
C585 C 0.85967 0.21349 0.63576 0.0
C586 C 0.88004 0.21757 0.60842 0.0
C587 C 0.91099 0.24797 0.60353 0.0
H588 H 0.70276 0.94072 0.762 0.0
H589 H 0.59954 0.89432 0.79726 0.0
H590 H 0.70355 0.88819 0.77379 0.0
H591 H 0.59968 0.84149 0.80783 0.0
H592 H 0.63519 0.78492 0.87557 0.0
H593 H 0.62697 0.8285 0.85029 0.0
H594 H 0.68419 0.82817 0.76676 0.0
H595 H 0.69249 0.78406 0.79252 0.0
C596 C 0.6798 0.91883 0.77103 0.0
C597 C 0.65124 0.92168 0.77909 0.0
C598 C 0.68022 0.88869 0.77787 0.0
C599 C 0.65194 0.86082 0.79255 0.0
C600 C 0.62226 0.86275 0.79746 0.0
C601 C 0.62203 0.89291 0.7911 0.0
C602 C 0.64497 0.7931 0.85135 0.0
C603 C 0.66367 0.78026 0.8357 0.0
C604 C 0.6404 0.81836 0.8368 0.0
C605 C 0.65455 0.83169 0.80621 0.0
C606 C 0.67301 0.81859 0.79034 0.0
C607 C 0.67763 0.79324 0.80501 0.0
H608 H 0.72459 0.6444 0.00861 0.0
H609 H 0.7568 0.68225 0.91129 0.0
H610 H 0.7768 0.64461 0.01792 0.0
H611 H 0.80985 0.68106 0.92041 0.0
H612 H 0.91577 0.7153 0.97144 0.0
H613 H 0.86263 0.70935 0.9508 0.0
H614 H 0.80622 0.61642 0.00598 0.0
H615 H 0.85829 0.62434 0.02913 0.0
C616 C 0.7426 0.65222 0.98879 0.0
C617 C 0.73619 0.66313 0.95903 0.0
C618 C 0.7727 0.65199 0.99411 0.0
C619 C 0.79748 0.66213 0.96974 0.0
C620 C 0.7913 0.67304 0.93975 0.0
C621 C 0.7609 0.67361 0.93445 0.0
C622 C 0.89198 0.69335 0.97885 0.0
C623 C 0.89172 0.6701 0.00176 0.0
C624 C 0.86148 0.68978 0.96673 0.0
C625 C 0.82999 0.6627 0.97707 0.0
C626 C 0.82992 0.63808 -0.00202 0.0
C627 C 0.86022 0.64213 0.01071 0.0
H628 H 0.22062 0.86129 0.20252 0.0
H629 H 0.22663 0.91901 0.11696 0.0
H630 H 0.17822 0.80947 0.17659 0.0
H631 H 0.18313 0.86653 0.09081 0.0
H632 H 0.11625 0.71646 0.12375 0.0
H633 H 0.16909 0.76974 0.13286 0.0
H634 H 0.12127 0.82607 0.09903 0.0
H635 H 0.06851 0.77235 0.08891 0.0
C636 C 0.21389 0.86277 0.17767 0.0
C637 C 0.22792 0.89413 0.16139 0.0
C638 C 0.18928 0.83297 0.16279 0.0
C639 C 0.17766 0.83375 0.13138 0.0
C640 C 0.19168 0.86511 0.11497 0.0
C641 C 0.21658 0.89505 0.12988 0.0
C642 C 0.11742 0.74022 0.11723 0.0
C643 C 0.0883 0.74043 0.10603 0.0
C644 C 0.14757 0.77072 0.12266 0.0
C645 C 0.14906 0.80211 0.11751 0.0
C646 C 0.12092 0.80229 0.10325 0.0
C647 C 0.09072 0.77157 0.0974 0.0
H648 H 0.89521 0.60653 0.52312 0.0
H649 H 0.94041 0.71118 0.5541 0.0
H650 H 0.84106 0.60436 0.51436 0.0
H651 H 0.88647 0.7097 0.54392 0.0
H652 H 0.78012 0.69414 0.52699 0.0
H653 H 0.82592 0.68858 0.55274 0.0
H654 H 0.82674 0.62964 0.47086 0.0
H655 H 0.78169 0.63522 0.44563 0.0
C656 C 0.89325 0.62886 0.52873 0.0
C657 C 0.92194 0.65911 0.53896 0.0
C658 C 0.86235 0.62775 0.52345 0.0
C659 C 0.85966 0.65714 0.52753 0.0
C660 C 0.88761 0.68659 0.54054 0.0
C661 C 0.91852 0.68749 0.5464 0.0
C662 C 0.78977 0.67945 0.51495 0.0
C663 C 0.77651 0.66416 0.48479 0.0
C664 C 0.81605 0.67639 0.52959 0.0
C665 C 0.8297 0.6582 0.51416 0.0
C666 C 0.81615 0.64284 0.48406 0.0
C667 C 0.79006 0.64589 0.46955 0.0
H668 H 0.23385 0.93989 0.72725 0.0
H669 H 0.29309 0.8965 0.69092 0.0
H670 H 0.1815 0.88727 0.71393 0.0
H671 H 0.24104 0.8434 0.67896 0.0
H672 H 0.15016 0.78686 0.60992 0.0
H673 H 0.20132 0.82993 0.63654 0.0
H674 H 0.14157 0.82765 0.71906 0.0
H675 H 0.08995 0.78447 0.69179 0.0
C676 C 0.23564 0.91858 0.71764 0.0
C677 C 0.26746 0.92237 0.70974 0.0
C678 C 0.20562 0.88837 0.70994 0.0
C679 C 0.20698 0.86128 0.69458 0.0
C680 C 0.23898 0.86406 0.68979 0.0
C681 C 0.26884 0.89436 0.69697 0.0
C682 C 0.14803 0.79463 0.6342 0.0
C683 C 0.11614 0.78165 0.64911 0.0
C684 C 0.17745 0.8195 0.64953 0.0
C685 C 0.17578 0.83218 0.68021 0.0
C686 C 0.14384 0.81867 0.69541 0.0
C687 C 0.11431 0.79382 0.67991 0.0
H688 H 0.39973 0.29199 0.86622 0.0
H689 H 0.29612 0.23415 0.90025 0.0
H690 H 0.39989 0.23931 0.85489 0.0
H691 H 0.2956 0.18119 0.88764 0.0
H692 H 0.30539 0.08852 0.86492 0.0
H693 H 0.3145 0.14009 0.893 0.0
H694 H 0.37279 0.2008 0.81115 0.0
H695 H 0.36382 0.14971 0.78363 0.0
C696 C 0.37727 0.26791 0.87208 0.0
C697 C 0.34782 0.26708 0.88383 0.0
C698 C 0.3772 0.23771 0.86525 0.0
C699 C 0.34744 0.20598 0.86941 0.0
C700 C 0.31899 0.20513 0.88412 0.0
C701 C 0.31926 0.23549 0.89145 0.0
C702 C 0.32071 0.11308 0.85336 0.0
C703 C 0.33475 0.11523 0.82252 0.0
C704 C 0.3258 0.14256 0.86934 0.0
C705 C 0.34475 0.17474 0.85458 0.0
C706 C 0.359 0.17669 0.82381 0.0
C707 C 0.35397 0.14734 0.80797 0.0
H708 H 0.10376 0.40008 0.02006 0.0
H709 H 0.06429 0.30139 0.06513 0.0
H710 H 0.15729 0.40174 0.00909 0.0
H711 H 0.11739 0.30221 0.05291 0.0
H712 H 0.22158 0.31573 0.03319 0.0
H713 H 0.17755 0.32456 0.05807 0.0
H714 H 0.17098 0.37245 0.96978 0.0
H715 H 0.21488 0.36399 0.94551 0.0
C716 C 0.10682 0.37899 0.02814 0.0
C717 C 0.07978 0.35045 0.04313 0.0
C718 C 0.13738 0.37977 0.02159 0.0
C719 C 0.14141 0.35173 0.02931 0.0
C720 C 0.1153 0.32433 0.04667 0.0
C721 C 0.08481 0.3238 0.0537 0.0
C722 C 0.21109 0.32877 0.0195 0.0
C723 C 0.2223 0.34004 0.98778 0.0
C724 C 0.18576 0.33365 0.03363 0.0
C725 C 0.17084 0.34951 0.01611 0.0
C726 C 0.1825 0.36108 0.98446 0.0
C727 C 0.20784 0.35635 0.97048 0.0
H728 H 0.74886 0.07953 0.24902 0.0
H729 H 0.73452 0.06393 0.14566 0.0
H730 H 0.80223 0.13367 0.23904 0.0
H731 H 0.7869 0.11636 0.13598 0.0
H732 H 0.85494 0.22298 0.1202 0.0
H733 H 0.80354 0.176 0.14188 0.0
H734 H 0.86208 0.15816 0.21381 0.0
H735 H 0.91417 0.20774 0.19347 0.0
C736 C 0.7572 0.08747 0.22435 0.0
C737 C 0.73716 0.06795 0.19814 0.0
C738 C 0.7876 0.11832 0.21864 0.0
C739 C 0.79816 0.12973 0.1867 0.0
C740 C 0.77888 0.10903 0.16083 0.0
C741 C 0.74884 0.07879 0.16645 0.0
C742 C 0.85704 0.21059 0.14174 0.0
C743 C 0.8888 0.21992 0.1556 0.0
C744 C 0.82744 0.18294 0.15377 0.0
C745 C 0.82881 0.16301 0.17923 0.0
C746 C 0.86023 0.17314 0.19427 0.0
C747 C 0.89001 0.20135 0.18247 0.0
H748 H 0.6113 0.84792 0.29451 0.0
H749 H 0.70328 0.90275 0.35116 0.0
H750 H 0.60285 0.79482 0.31578 0.0
H751 H 0.69674 0.84884 0.3698 0.0
H752 H 0.67404 0.74509 0.40545 0.0
H753 H 0.67011 0.79678 0.39876 0.0
H754 H 0.62787 0.76301 0.30302 0.0
H755 H 0.63018 0.71153 0.31028 0.0
C756 C 0.62927 0.84906 0.31228 0.0
C757 C 0.65774 0.88015 0.32143 0.0
C758 C 0.62487 0.81815 0.32391 0.0
C759 C 0.64951 0.81722 0.34396 0.0
C760 C 0.67705 0.84832 0.35456 0.0
C761 C 0.68097 0.87935 0.34357 0.0
C762 C 0.66338 0.74858 0.38326 0.0
C763 C 0.65255 0.72413 0.35841 0.0
C764 C 0.66132 0.77831 0.37931 0.0
C765 C 0.64858 0.78427 0.35035 0.0
C766 C 0.63703 0.75926 0.32601 0.0
C767 C 0.63874 0.72963 0.33007 0.0
H768 H 0.44363 0.38164 0.39192 0.0
H769 H 0.42934 0.44593 0.4598 0.0
H770 H 0.50192 0.42792 0.38191 0.0
H771 H 0.48655 0.49193 0.44939 0.0
H772 H 0.5979 0.56418 0.44368 0.0
H773 H 0.54573 0.51115 0.45765 0.0
H774 H 0.53059 0.48234 0.35661 0.0
H775 H 0.58258 0.53392 0.34304 0.0
C776 C 0.45277 0.40573 0.40433 0.0
C777 C 0.43194 0.41014 0.42659 0.0
C778 C 0.48617 0.43217 0.3988 0.0
C779 C 0.49914 0.46355 0.41525 0.0
C780 C 0.47791 0.4679 0.43704 0.0
C781 C 0.44485 0.44158 0.44267 0.0
C782 C 0.58373 0.5461 0.42469 0.0
C783 C 0.59401 0.55358 0.39226 0.0
C784 C 0.55373 0.51588 0.43256 0.0
C785 C 0.53364 0.4927 0.40813 0.0
C786 C 0.54535 0.49933 0.37609 0.0
C787 C 0.57512 0.52927 0.36829 0.0
H788 H 0.03839 0.46358 0.64632 0.0
H789 H 0.03908 0.43924 0.54521 0.0
H790 H 0.04256 0.51708 0.63172 0.0
H791 H 0.04433 0.49414 0.5304 0.0
H792 H 0.99692 0.56265 0.51992 0.0
H793 H 0.00528 0.51525 0.53212 0.0
H794 H 0.07439 0.57319 0.60942 0.0
H795 H 0.0653 0.62117 0.5975 0.0
C796 C 0.03994 0.46984 0.62083 0.0
C797 C 0.03768 0.44666 0.59686 0.0
C798 C 0.04276 0.50093 0.6125 0.0
C799 C 0.0435 0.50991 0.57992 0.0
C800 C 0.04324 0.48768 0.5558 0.0
C801 C 0.04039 0.45632 0.56421 0.0
C802 C 0.01405 0.56556 0.53954 0.0
C803 C 0.03036 0.59579 0.55787 0.0
C804 C 0.01916 0.53835 0.54624 0.0
C805 C 0.04084 0.54044 0.57143 0.0
C806 C 0.05736 0.5707 0.58987 0.0
C807 C 0.05209 0.59813 0.5832 0.0
H808 H 0.59211 0.05694 0.81 0.0
H809 H 0.5897 0.02433 0.71139 0.0
H810 H 0.54335 0.06415 0.79945 0.0
H811 H 0.53994 0.03065 0.7008 0.0
H812 H 0.46198 0.06205 0.68476 0.0
H813 H 0.5175 0.06835 0.69576 0.0
H814 H 0.48357 0.0271 0.79181 0.0
H815 H 0.42797 0.02165 0.78079 0.0
C816 C 0.58117 0.05153 0.7859 0.0
C817 C 0.59434 0.03966 0.76156 0.0
C818 C 0.55309 0.05546 0.77995 0.0
C819 C 0.53726 0.04739 0.74951 0.0
C820 C 0.55163 0.03731 0.72453 0.0
C821 C 0.58011 0.03367 0.73047 0.0
C822 C 0.46658 0.05477 0.70841 0.0
C823 C 0.44063 0.04099 0.73185 0.0
C824 C 0.49834 0.05818 0.71461 0.0
C825 C 0.50489 0.04765 0.7444 0.0
C826 C 0.47949 0.03566 0.76862 0.0
C827 C 0.44764 0.03254 0.76244 0.0
H828 H 0.57415 0.55231 0.94466 0.0
H829 H 0.54843 0.61763 0.88992 0.0
H830 H 0.51727 0.50446 0.93638 0.0
H831 H 0.4906 0.56922 0.88171 0.0
H832 H 0.40711 0.45973 0.84639 0.0
H833 H 0.45955 0.51332 0.85503 0.0
H834 H 0.45954 0.48634 0.95548 0.0
H835 H 0.40706 0.43191 0.94646 0.0
C836 C 0.55632 0.55626 0.9304 0.0
C837 C 0.56566 0.58864 0.91786 0.0
C838 C 0.52354 0.52896 0.92614 0.0
C839 C 0.4991 0.53326 0.90926 0.0
C840 C 0.50887 0.56522 0.89509 0.0
C841 C 0.54199 0.5928 0.89939 0.0
C842 C 0.418 0.46551 0.87051 0.0
C843 C 0.40346 0.44142 0.89566 0.0
C844 C 0.44794 0.49636 0.87546 0.0
C845 C 0.46409 0.50377 0.90571 0.0
C846 C 0.44799 0.48093 0.93165 0.0
C847 C 0.4178 0.44997 0.92669 0.0
H848 H 0.94344 0.40748 0.01914 0.0
H849 H 0.97769 0.40779 0.11676 0.0
H850 H 0.94301 0.45989 0.02949 0.0
H851 H 0.97592 0.46008 0.12784 0.0
H852 H 0.02514 0.57528 0.11629 0.0
H853 H 0.01347 0.51732 0.10981 0.0
H854 H 0.92197 0.49252 0.0563 0.0
H855 H 0.93433 0.55159 0.06233 0.0
C856 C 0.95017 0.41846 0.04314 0.0
C857 C 0.96151 0.40413 0.06691 0.0
C858 C 0.94956 0.44839 0.04916 0.0
C859 C 0.96016 0.46467 0.07923 0.0
C860 C 0.96844 0.44857 0.10409 0.0
C861 C 0.96909 0.41845 0.09797 0.0
C862 C 0.00262 0.55756 0.10288 0.0
C863 C 0.98067 0.56797 0.0897 0.0
C864 C 0.99563 0.52411 0.09964 0.0
C865 C 0.96634 0.49995 0.08326 0.0
C866 C 0.94474 0.51052 0.06917 0.0
C867 C 0.95191 0.54434 0.0723 0.0
H868 H 0.41205 0.96277 0.31402 0.0
H869 H 0.40475 0.97778 0.21157 0.0
H870 H 0.46391 0.96082 0.30503 0.0
H871 H 0.45674 0.97504 0.20241 0.0
H872 H 0.5719 0.02299 0.20701 0.0
H873 H 0.51599 0.01594 0.21636 0.0
H874 H 0.49187 0.93161 0.28087 0.0
H875 H 0.5487 0.93898 0.27157 0.0
C876 C 0.42124 0.96505 0.2894 0.0
C877 C 0.40471 0.97113 0.2635 0.0
C878 C 0.45088 0.96364 0.28429 0.0
C879 C 0.46475 0.96835 0.25315 0.0
C880 C 0.44694 0.97201 0.22684 0.0
C881 C 0.41705 0.97329 0.23196 0.0
C882 C 0.55485 0.00314 0.22352 0.0
C883 C 0.56463 0.98147 0.23855 0.0
C884 C 0.5226 0.9988 0.22848 0.0
C885 C 0.49915 0.97263 0.24861 0.0
C886 C 0.50938 0.95189 0.26501 0.0
C887 C 0.54196 0.95628 0.26001 0.0
H888 H 0.37524 0.33869 0.7375 0.0
H889 H 0.43305 0.44834 0.74812 0.0
H890 H 0.37549 0.34515 0.67908 0.0
H891 H 0.43307 0.45464 0.68915 0.0
H892 H 0.44278 0.43652 0.57558 0.0
H893 H 0.45161 0.43795 0.63427 0.0
H894 H 0.3438 0.37024 0.64793 0.0
H895 H 0.33483 0.36862 0.58985 0.0
C896 C 0.38848 0.36417 0.72733 0.0
C897 C 0.40359 0.39304 0.74734 0.0
C898 C 0.38848 0.36782 0.69395 0.0
C899 C 0.4036 0.40038 0.67995 0.0
C900 C 0.4211 0.4293 0.6996 0.0
C901 C 0.42109 0.42565 0.73322 0.0
C902 C 0.42093 0.42247 0.59121 0.0
C903 C 0.38819 0.402 0.57816 0.0
C904 C 0.42603 0.42329 0.62466 0.0
C905 C 0.39847 0.40357 0.64524 0.0
C906 C 0.36554 0.38501 0.63234 0.0
C907 C 0.36042 0.38426 0.59913 0.0
H908 H 0.06641 0.45914 0.75398 0.0
H909 H 0.96316 0.37454 0.75196 0.0
H910 H 0.06048 0.46677 0.81185 0.0
H911 H 0.95725 0.38233 0.8094 0.0
H912 H 0.95051 0.40723 0.91146 0.0
H913 H 0.95874 0.4226 0.85402 0.0
H914 H 0.05433 0.4233 0.85549 0.0
H915 H 0.04614 0.40783 0.91259 0.0
C916 C 0.04223 0.44279 0.76571 0.0
C917 C 0.01542 0.41588 0.74883 0.0
C918 C 0.03887 0.44719 0.79869 0.0
C919 C 0.00847 0.42509 0.8149 0.0
C920 C 0.98082 0.39993 0.79735 0.0
C921 C 0.98434 0.39523 0.76461 0.0
C922 C 0.97362 0.41145 0.89965 0.0
C923 C 0.9974 0.40573 0.91616 0.0
C924 C 0.97831 0.42028 0.86691 0.0
C925 C 0.00709 0.42402 0.85051 0.0
C926 C 0.03211 0.42092 0.86771 0.0
C927 C 0.02721 0.41166 0.90025 0.0
H928 H 0.61274 0.95962 0.92041 0.0
H929 H 0.5613 0.01795 0.91078 0.0
H930 H 0.6065 0.95916 0.97891 0.0
H931 H 0.55508 0.01723 0.96989 0.0
H932 H 0.53686 0.97029 0.08272 0.0
H933 H 0.52981 0.96797 0.02354 0.0
H934 H 0.63894 0.02112 0.01191 0.0
H935 H 0.64626 0.02389 0.07022 0.0
C936 C 0.59952 0.97177 0.93072 0.0
C937 C 0.5881 0.9894 0.91112 0.0
C938 C 0.5959 0.9714 0.96413 0.0
C939 C 0.58071 0.9885 0.97851 0.0
C940 C 0.56682 0.00386 0.95903 0.0
C941 C 0.5705 0.00432 0.92537 0.0
C942 C 0.55928 0.98203 0.06747 0.0
C943 C 0.59209 0.99677 0.08104 0.0
C944 C 0.5552 0.98068 0.03379 0.0
C945 C 0.58388 0.99388 0.01364 0.0
C946 C 0.61653 0.01039 0.02722 0.0
C947 C 0.62063 0.01196 0.06057 0.0
H948 H 0.63901 0.60311 0.08214 0.0
H949 H 0.53537 0.5823 0.07328 0.0
H950 H 0.63138 0.59309 0.1398 0.0
H951 H 0.52737 0.57147 0.13167 0.0
H952 H 0.56167 0.62443 0.2355 0.0
H953 H 0.55072 0.6108 0.17794 0.0
H954 H 0.60364 0.55367 0.18336 0.0
H955 H 0.6159 0.56871 0.2403 0.0
C956 C 0.6143 0.59563 0.09249 0.0
C957 C 0.58796 0.59399 0.07338 0.0
C958 C 0.60976 0.58947 0.12556 0.0
C959 C 0.57873 0.58151 0.14031 0.0
C960 C 0.55161 0.57781 0.12091 0.0
C961 C 0.55614 0.58385 0.08757 0.0
C962 C 0.57022 0.60834 0.22443 0.0
C963 C 0.59039 0.59838 0.24181 0.0
C964 C 0.56373 0.60026 0.19159 0.0
C965 C 0.57695 0.58173 0.17605 0.0
C966 C 0.59389 0.5687 0.19454 0.0
C967 C 0.60093 0.57733 0.22705 0.0
H968 H 0.96197 0.555 0.24108 0.0
H969 H 0.0585 0.64894 0.24582 0.0
H970 H 0.964 0.54781 0.29956 0.0
H971 H 0.06052 0.64156 0.30408 0.0
H972 H 0.06214 0.61446 0.40746 0.0
H973 H 0.06157 0.60325 0.34954 0.0
H974 H 0.9592 0.58624 0.34264 0.0
H975 H 0.9597 0.59757 0.40038 0.0
C976 C 0.984 0.57362 0.25446 0.0
C977 C 0.00987 0.6028 0.23909 0.0
C978 C 0.98509 0.5695 0.28785 0.0
C979 C 0.01231 0.5942 0.30617 0.0
C980 C 0.0394 0.62199 0.29041 0.0
C981 C 0.0381 0.62636 0.25714 0.0
C982 C 0.03925 0.60759 0.39371 0.0
C983 C 0.01112 0.60736 0.40823 0.0
C984 C 0.03899 0.60121 0.36065 0.0
C985 C 0.01042 0.59401 0.34179 0.0
C986 C 0.98142 0.5914 0.35677 0.0
C987 C 0.98183 0.59819 0.38971 0.0
H988 H 0.35221 0.96304 0.57175 0.0
H989 H 0.45444 0.04932 0.57744 0.0
H990 H 0.35592 0.96489 0.51297 0.0
H991 H 0.45788 0.05114 0.51826 0.0
H992 H 0.44778 0.02211 0.40604 0.0
H993 H 0.45303 0.01613 0.46457 0.0
H994 H 0.35816 0.01466 0.4801 0.0
H995 H 0.35285 0.02077 0.42243 0.0
C996 C 0.37572 0.98196 0.56048 0.0
C997 C 0.40274 0.00655 0.57909 0.0
C998 C 0.3778 0.98299 0.5269 0.0
C999 C 0.4069 0.0086 0.51137 0.0
C1000 C 0.43517 0.03124 0.52986 0.0
C1001 C 0.43312 0.03022 0.56364 0.0
C1002 C 0.4283 0.0209 0.42207 0.0
C1003 C 0.39971 0.02151 0.40967 0.0
C1004 C 0.4313 0.01739 0.45539 0.0
C1005 C 0.40559 0.01416 0.47645 0.0
C1006 C 0.37786 0.01623 0.46414 0.0
C1007 C 0.37498 0.01995 0.43113 0.0
loop_
_geom_bond_atom_site_label_1
_geom_bond_atom_site_label_2
_geom_bond_distance
_geom_bond_site_symmetry_2
_ccdc_geom_bond_type
Co0 O3 1.970 . S
Co0 N17 1.989 . S
Co0 O25 1.967 . S
Co0 O32 1.920 . S
Co1 O4 1.966 . S
Co1 N10 2.022 . S
Co1 N18 1.993 . S
Co1 O26 1.941 . S
C2 O3 1.258 . S
C2 O4 1.263 . S
O3 Co0 1.970 . S
O3 C2 1.258 . S
O4 Co1 1.966 . S
O4 C2 1.263 . S
C5 O6 1.235 . S
C5 O32 1.289 . S
O6 C5 1.235 . S
C7 C9 1.400 . S
C7 N10 1.351 . S
C7 C12 1.501 . S
C8 C9 1.387 . S
C8 N11 1.341 . S
C9 C7 1.400 . S
C9 C8 1.387 . S
N10 Co1 2.022 . S
N10 C7 1.351 . S
N10 N11 1.365 . S
N11 C8 1.341 . S
N11 N10 1.365 . S
N11 H31 0.862 . S
C12 C7 1.501 . S
C12 H13 0.961 . S
C12 H14 0.961 . S
C12 H15 0.960 . S
H13 C12 0.961 . S
H14 C12 0.961 . S
H15 C12 0.960 . S
C16 N17 1.342 . S
C16 C20 1.401 . S
C16 C21 1.499 . S
N17 Co0 1.989 . S
N17 C16 1.342 . S
N17 N18 1.388 . S
N18 Co1 1.993 . S
N18 N17 1.388 . S
N18 C19 1.346 . S
C19 N18 1.346 . S
C19 C20 1.396 . S
C19 C29 1.510 . S
C20 C16 1.401 . S
C20 C19 1.396 . S
C21 C16 1.499 . S
C21 H22 0.959 . S
C21 H23 0.960 . S
C21 H24 0.961 . S
H22 C21 0.959 . S
H23 C21 0.960 . S
H24 C21 0.961 . S
O25 Co0 1.967 . S
O25 C33 1.258 . S
O26 Co1 1.941 . S
O26 C33 1.266 . S
H27 C29 0.959 . S
H28 C29 0.961 . S
C29 C19 1.510 . S
C29 H27 0.959 . S
C29 H28 0.961 . S
C29 H30 0.960 . S
H30 C29 0.960 . S
H31 N11 0.862 . S
O32 Co0 1.920 . S
O32 C5 1.289 . S
C33 O25 1.258 . S
C33 O26 1.266 . S
Co34 O37 1.970 . S
Co34 N51 1.989 . S
Co34 O59 1.967 1_455 S
Co34 O66 1.920 . S
Co35 O38 1.966 . S
Co35 N44 2.022 . S
Co35 N52 1.993 . S
Co35 O60 1.941 . S
C36 O37 1.258 . S
C36 O38 1.263 . S
O37 Co34 1.970 . S
O37 C36 1.258 . S
O38 Co35 1.966 . S
O38 C36 1.263 . S
C39 O40 1.235 . S
C39 O66 1.289 . S
O40 C39 1.235 . S
C41 C43 1.400 . S
C41 N44 1.351 . S
C41 C46 1.501 . S
C42 C43 1.387 . S
C42 N45 1.341 . S
C43 C41 1.400 . S
C43 C42 1.387 . S
N44 Co35 2.022 . S
N44 C41 1.351 . S
N44 N45 1.365 . S
N45 C42 1.341 . S
N45 N44 1.365 . S
N45 H65 0.862 . S
C46 C41 1.501 . S
C46 H47 0.961 . S
C46 H48 0.961 . S
C46 H49 0.960 . S
H47 C46 0.961 . S
H48 C46 0.961 . S
H49 C46 0.960 . S
C50 N51 1.342 . S
C50 C54 1.401 . S
C50 C55 1.499 . S
N51 Co34 1.989 . S
N51 C50 1.342 . S
N51 N52 1.388 . S
N52 Co35 1.993 . S
N52 N51 1.388 . S
N52 C53 1.346 . S
C53 N52 1.346 . S
C53 C54 1.396 . S
C53 C63 1.510 . S
C54 C50 1.401 . S
C54 C53 1.396 . S
C55 C50 1.499 . S
C55 H56 0.959 . S
C55 H57 0.960 . S
C55 H58 0.961 . S
H56 C55 0.959 . S
H57 C55 0.960 . S
H58 C55 0.961 . S
O59 Co34 1.967 1_655 S
O59 C67 1.258 . S
O60 Co35 1.941 . S
O60 C67 1.266 1_455 S
H61 C63 0.959 . S
H62 C63 0.961 . S
C63 C53 1.510 . S
C63 H61 0.959 . S
C63 H62 0.961 . S
C63 H64 0.960 . S
H64 C63 0.960 . S
H65 N45 0.862 . S
O66 Co34 1.920 . S
O66 C39 1.289 . S
C67 O59 1.258 . S
C67 O60 1.266 1_655 S
Co68 O71 1.970 . S
Co68 N85 1.989 . S
Co68 O93 1.967 1_545 S
Co68 O100 1.920 . S
Co69 O72 1.966 . S
Co69 N78 2.022 . S
Co69 N86 1.993 . S
Co69 O94 1.941 . S
C70 O71 1.258 . S
C70 O72 1.263 . S
O71 Co68 1.970 . S
O71 C70 1.258 . S
O72 Co69 1.966 . S
O72 C70 1.263 . S
C73 O74 1.235 . S
C73 O100 1.289 . S
O74 C73 1.235 . S
C75 C77 1.400 . S
C75 N78 1.351 . S
C75 C80 1.501 . S
C76 C77 1.387 . S
C76 N79 1.341 . S
C77 C75 1.400 . S
C77 C76 1.387 . S
N78 Co69 2.022 . S
N78 C75 1.351 . S
N78 N79 1.365 . S
N79 C76 1.341 . S
N79 N78 1.365 . S
N79 H99 0.862 . S
C80 C75 1.501 . S
C80 H81 0.961 . S
C80 H82 0.961 . S
C80 H83 0.960 . S
H81 C80 0.961 . S
H82 C80 0.961 . S
H83 C80 0.960 . S
C84 N85 1.342 . S
C84 C88 1.401 . S
C84 C89 1.499 . S
N85 Co68 1.989 . S
N85 C84 1.342 . S
N85 N86 1.388 . S
N86 Co69 1.993 . S
N86 N85 1.388 . S
N86 C87 1.346 . S
C87 N86 1.346 . S
C87 C88 1.396 . S
C87 C97 1.510 . S
C88 C84 1.401 . S
C88 C87 1.396 . S
C89 C84 1.499 . S
C89 H90 0.959 . S
C89 H91 0.960 . S
C89 H92 0.961 . S
H90 C89 0.959 . S
H91 C89 0.960 . S
H92 C89 0.961 . S
O93 Co68 1.967 1_565 S
O93 C101 1.258 . S
O94 Co69 1.941 . S
O94 C101 1.266 1_545 S
H95 C97 0.959 . S
H96 C97 0.961 . S
C97 C87 1.510 . S
C97 H95 0.959 . S
C97 H96 0.961 . S
C97 H98 0.960 . S
H98 C97 0.960 . S
H99 N79 0.862 . S
O100 Co68 1.920 . S
O100 C73 1.289 . S
C101 O93 1.258 . S
C101 O94 1.266 1_565 S
Co102 O105 1.970 . S
Co102 N119 1.989 . S
Co102 O127 1.967 . S
Co102 O134 1.920 1_556 S
Co103 O106 1.966 . S
Co103 N112 2.022 . S
Co103 N120 1.993 . S
Co103 O128 1.941 . S
C104 O105 1.258 . S
C104 O106 1.263 . S
O105 Co102 1.970 . S
O105 C104 1.258 . S
O106 Co103 1.966 . S
O106 C104 1.263 . S
C107 O108 1.235 . S
C107 O134 1.289 . S
O108 C107 1.235 . S
C109 C111 1.400 . S
C109 N112 1.351 . S
C109 C114 1.501 . S
C110 C111 1.387 . S
C110 N113 1.341 . S
C111 C109 1.400 . S
C111 C110 1.387 . S
N112 Co103 2.022 . S
N112 C109 1.351 . S
N112 N113 1.365 . S
N113 C110 1.341 . S
N113 N112 1.365 . S
N113 H133 0.862 . S
C114 C109 1.501 . S
C114 H115 0.961 . S
C114 H116 0.961 . S
C114 H117 0.960 . S
H115 C114 0.961 . S
H116 C114 0.961 . S
H117 C114 0.960 . S
C118 N119 1.342 1_554 S
C118 C122 1.401 . S
C118 C123 1.499 . S
N119 Co102 1.989 . S
N119 C118 1.342 1_556 S
N119 N120 1.388 . S
N120 Co103 1.993 . S
N120 N119 1.388 . S
N120 C121 1.346 . S
C121 N120 1.346 . S
C121 C122 1.396 1_556 S
C121 C131 1.510 . S
C122 C118 1.401 . S
C122 C121 1.396 1_554 S
C123 C118 1.499 . S
C123 H124 0.959 . S
C123 H125 0.960 . S
C123 H126 0.961 . S
H124 C123 0.959 . S
H125 C123 0.960 . S
H126 C123 0.961 . S
O127 Co102 1.967 . S
O127 C135 1.258 . S
O128 Co103 1.941 . S
O128 C135 1.266 . S
H129 C131 0.959 . S
H130 C131 0.961 . S
C131 C121 1.510 . S
C131 H129 0.959 . S
C131 H130 0.961 . S
C131 H132 0.960 . S
H132 C131 0.960 . S
H133 N113 0.862 . S
O134 Co102 1.920 1_554 S
O134 C107 1.289 . S
C135 O127 1.258 . S
C135 O128 1.266 . S
Co136 O139 1.970 . S
Co136 N153 1.989 . S
Co136 O161 1.967 1_655 S
Co136 O168 1.920 . S
Co137 O140 1.966 . S
Co137 N146 2.022 . S
Co137 N154 1.993 . S
Co137 O162 1.941 . S
C138 O139 1.258 . S
C138 O140 1.263 . S
O139 Co136 1.970 . S
O139 C138 1.258 . S
O140 Co137 1.966 . S
O140 C138 1.263 . S
C141 O142 1.235 . S
C141 O168 1.289 . S
O142 C141 1.235 . S
C143 C145 1.400 . S
C143 N146 1.351 . S
C143 C148 1.501 . S
C144 C145 1.387 . S
C144 N147 1.341 . S
C145 C143 1.400 . S
C145 C144 1.387 . S
N146 Co137 2.022 . S
N146 C143 1.351 . S
N146 N147 1.365 . S
N147 C144 1.341 . S
N147 N146 1.365 . S
N147 H167 0.862 . S
C148 C143 1.501 . S
C148 H149 0.961 . S
C148 H150 0.961 . S
C148 H151 0.960 . S
H149 C148 0.961 . S
H150 C148 0.961 . S
H151 C148 0.960 . S
C152 N153 1.342 . S
C152 C156 1.401 . S
C152 C157 1.499 . S
N153 Co136 1.989 . S
N153 C152 1.342 . S
N153 N154 1.388 . S
N154 Co137 1.993 . S
N154 N153 1.388 . S
N154 C155 1.346 . S
C155 N154 1.346 . S
C155 C156 1.396 . S
C155 C165 1.510 . S
C156 C152 1.401 . S
C156 C155 1.396 . S
C157 C152 1.499 . S
C157 H158 0.959 . S
C157 H159 0.960 . S
C157 H160 0.961 . S
H158 C157 0.959 . S
H159 C157 0.960 . S
H160 C157 0.961 . S
O161 Co136 1.967 1_455 S
O161 C169 1.258 . S
O162 Co137 1.941 . S
O162 C169 1.266 1_655 S
H163 C165 0.959 . S
H164 C165 0.961 . S
C165 C155 1.510 . S
C165 H163 0.959 . S
C165 H164 0.961 . S
C165 H166 0.960 . S
H166 C165 0.960 . S
H167 N147 0.862 . S
O168 Co136 1.920 . S
O168 C141 1.289 . S
C169 O161 1.258 . S
C169 O162 1.266 1_455 S
Co170 O173 1.970 . S
Co170 N187 1.989 . S
Co170 O195 1.967 1_565 S
Co170 O202 1.920 . S
Co171 O174 1.966 . S
Co171 N180 2.022 . S
Co171 N188 1.993 . S
Co171 O196 1.941 . S
C172 O173 1.258 . S
C172 O174 1.263 . S
O173 Co170 1.970 . S
O173 C172 1.258 . S
O174 Co171 1.966 . S
O174 C172 1.263 . S
C175 O176 1.235 . S
C175 O202 1.289 . S
O176 C175 1.235 . S
C177 C179 1.400 . S
C177 N180 1.351 . S
C177 C182 1.501 . S
C178 C179 1.387 . S
C178 N181 1.341 . S
C179 C177 1.400 . S
C179 C178 1.387 . S
N180 Co171 2.022 . S
N180 C177 1.351 . S
N180 N181 1.365 . S
N181 C178 1.341 . S
N181 N180 1.365 . S
N181 H201 0.862 . S
C182 C177 1.501 . S
C182 H183 0.961 . S
C182 H184 0.961 . S
C182 H185 0.960 . S
H183 C182 0.961 . S
H184 C182 0.961 . S
H185 C182 0.960 . S
C186 N187 1.342 . S
C186 C190 1.401 . S
C186 C191 1.499 . S
N187 Co170 1.989 . S
N187 C186 1.342 . S
N187 N188 1.388 . S
N188 Co171 1.993 . S
N188 N187 1.388 . S
N188 C189 1.346 . S
C189 N188 1.346 . S
C189 C190 1.396 . S
C189 C199 1.510 . S
C190 C186 1.401 . S
C190 C189 1.396 . S
C191 C186 1.499 . S
C191 H192 0.959 . S
C191 H193 0.960 . S
C191 H194 0.961 . S
H192 C191 0.959 . S
H193 C191 0.960 . S
H194 C191 0.961 . S
O195 Co170 1.967 1_545 S
O195 C203 1.258 . S
O196 Co171 1.941 . S
O196 C203 1.266 1_565 S
H197 C199 0.959 . S
H198 C199 0.961 . S
C199 C189 1.510 . S
C199 H197 0.959 . S
C199 H198 0.961 . S
C199 H200 0.960 . S
H200 C199 0.960 . S
H201 N181 0.862 . S
O202 Co170 1.920 . S
O202 C175 1.289 . S
C203 O195 1.258 . S
C203 O196 1.266 1_545 S
Co204 O207 1.970 . S
Co204 N221 1.989 . S
Co204 O229 1.967 . S
Co204 O236 1.920 . S
Co205 O208 1.966 . S
Co205 N214 2.022 . S
Co205 N222 1.993 . S
Co205 O230 1.941 . S
C206 O207 1.258 . S
C206 O208 1.263 . S
O207 Co204 1.970 . S
O207 C206 1.258 . S
O208 Co205 1.966 . S
O208 C206 1.263 . S
C209 O210 1.235 . S
C209 O236 1.289 . S
O210 C209 1.235 . S
C211 C213 1.400 . S
C211 N214 1.351 . S
C211 C216 1.501 . S
C212 C213 1.387 . S
C212 N215 1.341 . S
C213 C211 1.400 . S
C213 C212 1.387 . S
N214 Co205 2.022 . S
N214 C211 1.351 . S
N214 N215 1.365 . S
N215 C212 1.341 . S
N215 N214 1.365 . S
N215 H235 0.862 . S
C216 C211 1.501 . S
C216 H217 0.961 . S
C216 H218 0.961 . S
C216 H219 0.960 . S
H217 C216 0.961 . S
H218 C216 0.961 . S
H219 C216 0.960 . S
C220 N221 1.342 . S
C220 C224 1.401 . S
C220 C225 1.499 . S
N221 Co204 1.989 . S
N221 C220 1.342 . S
N221 N222 1.388 . S
N222 Co205 1.993 . S
N222 N221 1.388 . S
N222 C223 1.346 . S
C223 N222 1.346 . S
C223 C224 1.396 . S
C223 C233 1.510 . S
C224 C220 1.401 . S
C224 C223 1.396 . S
C225 C220 1.499 . S
C225 H226 0.959 . S
C225 H227 0.960 . S
C225 H228 0.961 . S
H226 C225 0.959 . S
H227 C225 0.960 . S
H228 C225 0.961 . S
O229 Co204 1.967 . S
O229 C237 1.258 . S
O230 Co205 1.941 . S
O230 C237 1.266 . S
H231 C233 0.959 . S
H232 C233 0.961 . S
C233 C223 1.510 . S
C233 H231 0.959 . S
C233 H232 0.961 . S
C233 H234 0.960 . S
H234 C233 0.960 . S
H235 N215 0.862 . S
O236 Co204 1.920 . S
O236 C209 1.289 . S
C237 O229 1.258 . S
C237 O230 1.266 . S
Co238 O241 1.970 . S
Co238 N255 1.989 . S
Co238 O263 1.967 1_455 S
Co238 O270 1.920 . S
Co239 O242 1.966 . S
Co239 N248 2.022 . S
Co239 N256 1.993 . S
Co239 O264 1.941 . S
C240 O241 1.258 . S
C240 O242 1.263 . S
O241 Co238 1.970 . S
O241 C240 1.258 . S
O242 Co239 1.966 . S
O242 C240 1.263 . S
C243 O244 1.235 . S
C243 O270 1.289 . S
O244 C243 1.235 . S
C245 C247 1.400 . S
C245 N248 1.351 . S
C245 C250 1.501 . S
C246 C247 1.387 . S
C246 N249 1.341 . S
C247 C245 1.400 . S
C247 C246 1.387 . S
N248 Co239 2.022 . S
N248 C245 1.351 . S
N248 N249 1.365 . S
N249 C246 1.341 . S
N249 N248 1.365 . S
N249 H269 0.862 . S
C250 C245 1.501 . S
C250 H251 0.961 . S
C250 H252 0.961 . S
C250 H253 0.960 . S
H251 C250 0.961 . S
H252 C250 0.961 . S
H253 C250 0.960 . S
C254 N255 1.342 . S
C254 C258 1.401 . S
C254 C259 1.499 . S
N255 Co238 1.989 . S
N255 C254 1.342 . S
N255 N256 1.388 . S
N256 Co239 1.993 . S
N256 N255 1.388 . S
N256 C257 1.346 . S
C257 N256 1.346 . S
C257 C258 1.396 . S
C257 C267 1.510 . S
C258 C254 1.401 . S
C258 C257 1.396 . S
C259 C254 1.499 . S
C259 H260 0.959 . S
C259 H261 0.960 . S
C259 H262 0.961 . S
H260 C259 0.959 . S
H261 C259 0.960 . S
H262 C259 0.961 . S
O263 Co238 1.967 1_655 S
O263 C271 1.258 . S
O264 Co239 1.941 . S
O264 C271 1.266 1_455 S
H265 C267 0.959 . S
H266 C267 0.961 . S
C267 C257 1.510 . S
C267 H265 0.959 . S
C267 H266 0.961 . S
C267 H268 0.960 . S
H268 C267 0.960 . S
H269 N249 0.862 . S
O270 Co238 1.920 . S
O270 C243 1.289 . S
C271 O263 1.258 . S
C271 O264 1.266 1_655 S
Co272 O275 1.970 . S
Co272 N289 1.989 . S
Co272 O297 1.967 1_545 S
Co272 O304 1.920 . S
Co273 O276 1.966 . S
Co273 N282 2.022 . S
Co273 N290 1.993 . S
Co273 O298 1.941 . S
C274 O275 1.258 . S
C274 O276 1.263 . S
O275 Co272 1.970 . S
O275 C274 1.258 . S
O276 Co273 1.966 . S
O276 C274 1.263 . S
C277 O278 1.235 . S
C277 O304 1.289 . S
O278 C277 1.235 . S
C279 C281 1.400 . S
C279 N282 1.351 . S
C279 C284 1.501 . S
C280 C281 1.387 . S
C280 N283 1.341 . S
C281 C279 1.400 . S
C281 C280 1.387 . S
N282 Co273 2.022 . S
N282 C279 1.351 . S
N282 N283 1.365 . S
N283 C280 1.341 . S
N283 N282 1.365 . S
N283 H303 0.862 . S
C284 C279 1.501 . S
C284 H285 0.961 . S
C284 H286 0.961 . S
C284 H287 0.960 . S
H285 C284 0.961 . S
H286 C284 0.961 . S
H287 C284 0.960 . S
C288 N289 1.342 . S
C288 C292 1.401 . S
C288 C293 1.499 . S
N289 Co272 1.989 . S
N289 C288 1.342 . S
N289 N290 1.388 . S
N290 Co273 1.993 . S
N290 N289 1.388 . S
N290 C291 1.346 . S
C291 N290 1.346 . S
C291 C292 1.396 . S
C291 C301 1.510 . S
C292 C288 1.401 . S
C292 C291 1.396 . S
C293 C288 1.499 . S
C293 H294 0.959 . S
C293 H295 0.960 . S
C293 H296 0.961 . S
H294 C293 0.959 . S
H295 C293 0.960 . S
H296 C293 0.961 . S
O297 Co272 1.967 1_565 S
O297 C305 1.258 . S
O298 Co273 1.941 . S
O298 C305 1.266 1_545 S
H299 C301 0.959 . S
H300 C301 0.961 . S
C301 C291 1.510 . S
C301 H299 0.959 . S
C301 H300 0.961 . S
C301 H302 0.960 . S
H302 C301 0.960 . S
H303 N283 0.862 . S
O304 Co272 1.920 . S
O304 C277 1.289 . S
C305 O297 1.258 . S
C305 O298 1.266 1_565 S
Co306 O309 1.970 . S
Co306 N323 1.989 . S
Co306 O331 1.967 . S
Co306 O338 1.920 . S
Co307 O310 1.966 . S
Co307 N316 2.022 . S
Co307 N324 1.993 . S
Co307 O332 1.941 . S
C308 O309 1.258 . S
C308 O310 1.263 . S
O309 Co306 1.970 . S
O309 C308 1.258 . S
O310 Co307 1.966 . S
O310 C308 1.263 . S
C311 O312 1.235 . S
C311 O338 1.289 . S
O312 C311 1.235 . S
C313 C315 1.400 . S
C313 N316 1.351 . S
C313 C318 1.501 . S
C314 C315 1.387 . S
C314 N317 1.341 . S
C315 C313 1.400 . S
C315 C314 1.387 . S
N316 Co307 2.022 . S
N316 C313 1.351 . S
N316 N317 1.365 . S
N317 C314 1.341 . S
N317 N316 1.365 . S
N317 H337 0.862 . S
C318 C313 1.501 . S
C318 H319 0.961 . S
C318 H320 0.961 . S
C318 H321 0.960 . S
H319 C318 0.961 . S
H320 C318 0.961 . S
H321 C318 0.960 . S
C322 N323 1.342 . S
C322 C326 1.401 . S
C322 C327 1.499 . S
N323 Co306 1.989 . S
N323 C322 1.342 . S
N323 N324 1.388 . S
N324 Co307 1.993 . S
N324 N323 1.388 . S
N324 C325 1.346 . S
C325 N324 1.346 . S
C325 C326 1.396 . S
C325 C335 1.510 . S
C326 C322 1.401 . S
C326 C325 1.396 . S
C327 C322 1.499 . S
C327 H328 0.959 . S
C327 H329 0.960 . S
C327 H330 0.961 . S
H328 C327 0.959 . S
H329 C327 0.960 . S
H330 C327 0.961 . S
O331 Co306 1.967 . S
O331 C339 1.258 . S
O332 Co307 1.941 . S
O332 C339 1.266 . S
H333 C335 0.959 . S
H334 C335 0.961 . S
C335 C325 1.510 . S
C335 H333 0.959 . S
C335 H334 0.961 . S
C335 H336 0.960 . S
H336 C335 0.960 . S
H337 N317 0.862 . S
O338 Co306 1.920 . S
O338 C311 1.289 . S
C339 O331 1.258 . S
C339 O332 1.266 . S
Co340 O343 1.970 . S
Co340 N357 1.989 . S
Co340 O365 1.967 1_655 S
Co340 O372 1.920 1_554 S
Co341 O344 1.966 . S
Co341 N350 2.022 . S
Co341 N358 1.993 . S
Co341 O366 1.941 . S
C342 O343 1.258 . S
C342 O344 1.263 . S
O343 Co340 1.970 . S
O343 C342 1.258 . S
O344 Co341 1.966 . S
O344 C342 1.263 . S
C345 O346 1.235 . S
C345 O372 1.289 . S
O346 C345 1.235 . S
C347 C349 1.400 . S
C347 N350 1.351 . S
C347 C352 1.501 . S
C348 C349 1.387 . S
C348 N351 1.341 . S
C349 C347 1.400 . S
C349 C348 1.387 . S
N350 Co341 2.022 . S
N350 C347 1.351 . S
N350 N351 1.365 . S
N351 C348 1.341 . S
N351 N350 1.365 . S
N351 H371 0.862 . S
C352 C347 1.501 . S
C352 H353 0.961 . S
C352 H354 0.961 . S
C352 H355 0.960 . S
H353 C352 0.961 . S
H354 C352 0.961 . S
H355 C352 0.960 . S
C356 N357 1.342 1_556 S
C356 C360 1.401 . S
C356 C361 1.499 . S
N357 Co340 1.989 . S
N357 C356 1.342 1_554 S
N357 N358 1.388 . S
N358 Co341 1.993 . S
N358 N357 1.388 . S
N358 C359 1.346 . S
C359 N358 1.346 . S
C359 C360 1.396 1_554 S
C359 C369 1.510 . S
C360 C356 1.401 . S
C360 C359 1.396 1_556 S
C361 C356 1.499 . S
C361 H362 0.959 . S
C361 H363 0.960 . S
C361 H364 0.961 . S
H362 C361 0.959 . S
H363 C361 0.960 . S
H364 C361 0.961 . S
O365 Co340 1.967 1_455 S
O365 C373 1.258 . S
O366 Co341 1.941 . S
O366 C373 1.266 1_655 S
H367 C369 0.959 . S
H368 C369 0.961 . S
C369 C359 1.510 . S
C369 H367 0.959 . S
C369 H368 0.961 . S
C369 H370 0.960 . S
H370 C369 0.960 . S
H371 N351 0.862 . S
O372 Co340 1.920 1_556 S
O372 C345 1.289 . S
C373 O365 1.258 . S
C373 O366 1.266 1_455 S
Co374 O377 1.970 . S
Co374 N391 1.989 . S
Co374 O399 1.967 1_565 S
Co374 O406 1.920 . S
Co375 O378 1.966 . S
Co375 N384 2.022 . S
Co375 N392 1.993 . S
Co375 O400 1.941 . S
C376 O377 1.258 . S
C376 O378 1.263 . S
O377 Co374 1.970 . S
O377 C376 1.258 . S
O378 Co375 1.966 . S
O378 C376 1.263 . S
C379 O380 1.235 . S
C379 O406 1.289 . S
O380 C379 1.235 . S
C381 C383 1.400 . S
C381 N384 1.351 . S
C381 C386 1.501 . S
C382 C383 1.387 . S
C382 N385 1.341 . S
C383 C381 1.400 . S
C383 C382 1.387 . S
N384 Co375 2.022 . S
N384 C381 1.351 . S
N384 N385 1.365 . S
N385 C382 1.341 . S
N385 N384 1.365 . S
N385 H405 0.862 . S
C386 C381 1.501 . S
C386 H387 0.961 . S
C386 H388 0.961 . S
C386 H389 0.960 . S
H387 C386 0.961 . S
H388 C386 0.961 . S
H389 C386 0.960 . S
C390 N391 1.342 . S
C390 C394 1.401 . S
C390 C395 1.499 . S
N391 Co374 1.989 . S
N391 C390 1.342 . S
N391 N392 1.388 . S
N392 Co375 1.993 . S
N392 N391 1.388 . S
N392 C393 1.346 . S
C393 N392 1.346 . S
C393 C394 1.396 . S
C393 C403 1.510 . S
C394 C390 1.401 . S
C394 C393 1.396 . S
C395 C390 1.499 . S
C395 H396 0.959 . S
C395 H397 0.960 . S
C395 H398 0.961 . S
H396 C395 0.959 . S
H397 C395 0.960 . S
H398 C395 0.961 . S
O399 Co374 1.967 1_545 S
O399 C407 1.258 . S
O400 Co375 1.941 . S
O400 C407 1.266 1_565 S
H401 C403 0.959 . S
H402 C403 0.961 . S
C403 C393 1.510 . S
C403 H401 0.959 . S
C403 H402 0.961 . S
C403 H404 0.960 . S
H404 C403 0.960 . S
H405 N385 0.862 . S
O406 Co374 1.920 . S
O406 C379 1.289 . S
C407 O399 1.258 . S
C407 O400 1.266 1_545 S
H408 C416 0.950 . S
H409 C421 0.950 . S
H410 C418 0.950 . S
H411 C420 0.950 . S
H412 C422 0.950 . S
H413 C424 0.950 . S
H414 C426 0.950 . S
H415 C427 0.950 . S
C416 H408 0.950 . S
C416 C417 1.386 . S
C416 C418 1.391 . S
C417 C416 1.386 . S
C417 C421 1.393 . S
C418 H410 0.950 . S
C418 C416 1.391 . S
C418 C419 1.400 . S
C419 C418 1.400 . S
C419 C420 1.398 . S
C419 C425 1.491 . S
C420 H411 0.950 . S
C420 C419 1.398 . S
C420 C421 1.391 . S
C421 H409 0.950 . S
C421 C417 1.393 . S
C421 C420 1.391 . S
C422 H412 0.950 . S
C422 C423 1.386 . S
C422 C424 1.391 . S
C423 C422 1.386 . S
C423 C427 1.393 . S
C424 H413 0.950 . S
C424 C422 1.391 . S
C424 C425 1.400 . S
C425 C419 1.491 . S
C425 C424 1.400 . S
C425 C426 1.398 . S
C426 H414 0.950 . S
C426 C425 1.398 . S
C426 C427 1.391 . S
C427 H415 0.950 . S
C427 C423 1.393 . S
C427 C426 1.391 . S
H428 C436 0.950 . S
H429 C441 0.950 . S
H430 C438 0.950 . S
H431 C440 0.950 . S
H432 C442 0.950 . S
H433 C444 0.950 . S
H434 C446 0.950 . S
H435 C447 0.950 . S
C436 H428 0.950 . S
C436 C437 1.386 . S
C436 C438 1.391 . S
C437 C436 1.386 . S
C437 C441 1.393 . S
C438 H430 0.950 . S
C438 C436 1.391 . S
C438 C439 1.400 . S
C439 C438 1.400 . S
C439 C440 1.398 . S
C439 C445 1.491 . S
C440 H431 0.950 . S
C440 C439 1.398 . S
C440 C441 1.391 . S
C441 H429 0.950 . S
C441 C437 1.393 . S
C441 C440 1.391 . S
C442 H432 0.950 . S
C442 C443 1.386 . S
C442 C444 1.391 . S
C443 C442 1.386 . S
C443 C447 1.393 . S
C444 H433 0.950 . S
C444 C442 1.391 . S
C444 C445 1.400 . S
C445 C439 1.491 . S
C445 C444 1.400 . S
C445 C446 1.398 . S
C446 H434 0.950 . S
C446 C445 1.398 . S
C446 C447 1.391 . S
C447 H435 0.950 . S
C447 C443 1.393 . S
C447 C446 1.391 . S
H448 C456 0.950 . S
H449 C461 0.950 . S
H450 C458 0.950 . S
H451 C460 0.950 . S
H452 C462 0.950 . S
H453 C464 0.950 . S
H454 C466 0.950 . S
H455 C467 0.950 . S
C456 H448 0.950 . S
C456 C457 1.386 . S
C456 C458 1.391 . S
C457 C456 1.386 . S
C457 C461 1.393 . S
C458 H450 0.950 . S
C458 C456 1.391 . S
C458 C459 1.400 . S
C459 C458 1.400 . S
C459 C460 1.398 . S
C459 C465 1.491 . S
C460 H451 0.950 . S
C460 C459 1.398 . S
C460 C461 1.391 . S
C461 H449 0.950 . S
C461 C457 1.393 . S
C461 C460 1.391 . S
C462 H452 0.950 . S
C462 C463 1.386 . S
C462 C464 1.391 . S
C463 C462 1.386 . S
C463 C467 1.393 . S
C464 H453 0.950 . S
C464 C462 1.391 . S
C464 C465 1.400 . S
C465 C459 1.491 . S
C465 C464 1.400 . S
C465 C466 1.398 . S
C466 H454 0.950 . S
C466 C465 1.398 . S
C466 C467 1.391 . S
C467 H455 0.950 . S
C467 C463 1.393 . S
C467 C466 1.391 . S
H468 C476 0.950 . S
H469 C481 0.950 . S
H470 C478 0.950 . S
H471 C480 0.950 . S
H472 C482 0.950 . S
H473 C484 0.950 . S
H474 C486 0.950 . S
H475 C487 0.950 . S
C476 H468 0.950 . S
C476 C477 1.386 . S
C476 C478 1.391 . S
C477 C476 1.386 . S
C477 C481 1.393 . S
C478 H470 0.950 . S
C478 C476 1.391 . S
C478 C479 1.400 . S
C479 C478 1.400 . S
C479 C480 1.398 . S
C479 C485 1.491 . S
C480 H471 0.950 . S
C480 C479 1.398 . S
C480 C481 1.391 . S
C481 H469 0.950 . S
C481 C477 1.393 . S
C481 C480 1.391 . S
C482 H472 0.950 . S
C482 C483 1.386 . S
C482 C484 1.391 . S
C483 C482 1.386 . S
C483 C487 1.393 . S
C484 H473 0.950 . S
C484 C482 1.391 . S
C484 C485 1.400 . S
C485 C479 1.491 . S
C485 C484 1.400 . S
C485 C486 1.398 . S
C486 H474 0.950 . S
C486 C485 1.398 . S
C486 C487 1.391 . S
C487 H475 0.950 . S
C487 C483 1.393 . S
C487 C486 1.391 . S
H488 C496 0.950 . S
H489 C501 0.950 . S
H490 C498 0.950 . S
H491 C500 0.950 . S
H492 C502 0.950 . S
H493 C504 0.950 . S
H494 C506 0.950 . S
H495 C507 0.950 . S
C496 H488 0.950 . S
C496 C497 1.386 . S
C496 C498 1.391 . S
C497 C496 1.386 . S
C497 C501 1.393 . S
C498 H490 0.950 . S
C498 C496 1.391 . S
C498 C499 1.400 . S
C499 C498 1.400 . S
C499 C500 1.398 . S
C499 C505 1.491 . S
C500 H491 0.950 . S
C500 C499 1.398 . S
C500 C501 1.391 . S
C501 H489 0.950 . S
C501 C497 1.393 . S
C501 C500 1.391 . S
C502 H492 0.950 . S
C502 C503 1.386 . S
C502 C504 1.391 . S
C503 C502 1.386 . S
C503 C507 1.393 . S
C504 H493 0.950 . S
C504 C502 1.391 . S
C504 C505 1.400 . S
C505 C499 1.491 . S
C505 C504 1.400 . S
C505 C506 1.398 . S
C506 H494 0.950 . S
C506 C505 1.398 . S
C506 C507 1.391 . S
C507 H495 0.950 . S
C507 C503 1.393 . S
C507 C506 1.391 . S
H508 C516 0.950 . S
H509 C521 0.950 . S
H510 C518 0.950 . S
H511 C520 0.950 . S
H512 C522 0.950 . S
H513 C524 0.950 . S
H514 C526 0.950 . S
H515 C527 0.950 . S
C516 H508 0.950 . S
C516 C517 1.386 . S
C516 C518 1.391 . S
C517 C516 1.386 . S
C517 C521 1.393 . S
C518 H510 0.950 . S
C518 C516 1.391 . S
C518 C519 1.400 . S
C519 C518 1.400 . S
C519 C520 1.398 . S
C519 C525 1.491 . S
C520 H511 0.950 . S
C520 C519 1.398 . S
C520 C521 1.391 . S
C521 H509 0.950 . S
C521 C517 1.393 . S
C521 C520 1.391 . S
C522 H512 0.950 . S
C522 C523 1.386 . S
C522 C524 1.391 . S
C523 C522 1.386 . S
C523 C527 1.393 . S
C524 H513 0.950 . S
C524 C522 1.391 . S
C524 C525 1.400 . S
C525 C519 1.491 . S
C525 C524 1.400 . S
C525 C526 1.398 . S
C526 H514 0.950 . S
C526 C525 1.398 . S
C526 C527 1.391 . S
C527 H515 0.950 . S
C527 C523 1.393 . S
C527 C526 1.391 . S
H528 C536 0.950 . S
H529 C541 0.950 . S
H530 C538 0.950 . S
H531 C540 0.950 . S
H532 C542 0.950 . S
H533 C544 0.950 . S
H534 C546 0.950 . S
H535 C547 0.950 . S
C536 H528 0.950 . S
C536 C537 1.386 . S
C536 C538 1.391 . S
C537 C536 1.386 . S
C537 C541 1.393 . S
C538 H530 0.950 . S
C538 C536 1.391 . S
C538 C539 1.400 . S
C539 C538 1.400 . S
C539 C540 1.398 . S
C539 C545 1.491 . S
C540 H531 0.950 . S
C540 C539 1.398 . S
C540 C541 1.391 . S
C541 H529 0.950 . S
C541 C537 1.393 . S
C541 C540 1.391 . S
C542 H532 0.950 . S
C542 C543 1.386 . S
C542 C544 1.391 . S
C543 C542 1.386 . S
C543 C547 1.393 . S
C544 H533 0.950 . S
C544 C542 1.391 . S
C544 C545 1.400 . S
C545 C539 1.491 . S
C545 C544 1.400 . S
C545 C546 1.398 . S
C546 H534 0.950 . S
C546 C545 1.398 . S
C546 C547 1.391 . S
C547 H535 0.950 . S
C547 C543 1.393 . S
C547 C546 1.391 . S
H548 C556 0.950 . S
H549 C561 0.950 . S
H550 C558 0.950 . S
H551 C560 0.950 . S
H552 C562 0.950 . S
H553 C564 0.950 . S
H554 C566 0.950 . S
H555 C567 0.950 . S
C556 H548 0.950 . S
C556 C557 1.386 . S
C556 C558 1.391 . S
C557 C556 1.386 . S
C557 C561 1.393 . S
C558 H550 0.950 . S
C558 C556 1.391 . S
C558 C559 1.400 . S
C559 C558 1.400 . S
C559 C560 1.398 . S
C559 C565 1.491 . S
C560 H551 0.950 . S
C560 C559 1.398 . S
C560 C561 1.391 . S
C561 H549 0.950 . S
C561 C557 1.393 . S
C561 C560 1.391 . S
C562 H552 0.950 . S
C562 C563 1.386 . S
C562 C564 1.391 . S
C563 C562 1.386 . S
C563 C567 1.393 . S
C564 H553 0.950 . S
C564 C562 1.391 . S
C564 C565 1.400 . S
C565 C559 1.491 . S
C565 C564 1.400 . S
C565 C566 1.398 . S
C566 H554 0.950 . S
C566 C565 1.398 . S
C566 C567 1.391 . S
C567 H555 0.950 . S
C567 C563 1.393 . S
C567 C566 1.391 . S
H568 C576 0.950 . S
H569 C581 0.950 . S
H570 C578 0.950 . S
H571 C580 0.950 . S
H572 C582 0.950 . S
H573 C584 0.950 . S
H574 C586 0.950 . S
H575 C587 0.950 . S
C576 H568 0.950 . S
C576 C577 1.386 . S
C576 C578 1.391 . S
C577 C576 1.386 . S
C577 C581 1.393 . S
C578 H570 0.950 . S
C578 C576 1.391 . S
C578 C579 1.400 . S
C579 C578 1.400 . S
C579 C580 1.398 . S
C579 C585 1.491 . S
C580 H571 0.950 . S
C580 C579 1.398 . S
C580 C581 1.391 . S
C581 H569 0.950 . S
C581 C577 1.393 . S
C581 C580 1.391 . S
C582 H572 0.950 . S
C582 C583 1.386 . S
C582 C584 1.391 . S
C583 C582 1.386 . S
C583 C587 1.393 . S
C584 H573 0.950 . S
C584 C582 1.391 . S
C584 C585 1.400 . S
C585 C579 1.491 . S
C585 C584 1.400 . S
C585 C586 1.398 . S
C586 H574 0.950 . S
C586 C585 1.398 . S
C586 C587 1.391 . S
C587 H575 0.950 . S
C587 C583 1.393 . S
C587 C586 1.391 . S
H588 C596 0.950 . S
H589 C601 0.950 . S
H590 C598 0.950 . S
H591 C600 0.950 . S
H592 C602 0.950 . S
H593 C604 0.950 . S
H594 C606 0.950 . S
H595 C607 0.950 . S
C596 H588 0.950 . S
C596 C597 1.386 . S
C596 C598 1.391 . S
C597 C596 1.386 . S
C597 C601 1.393 . S
C598 H590 0.950 . S
C598 C596 1.391 . S
C598 C599 1.400 . S
C599 C598 1.400 . S
C599 C600 1.398 . S
C599 C605 1.491 . S
C600 H591 0.950 . S
C600 C599 1.398 . S
C600 C601 1.391 . S
C601 H589 0.950 . S
C601 C597 1.393 . S
C601 C600 1.391 . S
C602 H592 0.950 . S
C602 C603 1.386 . S
C602 C604 1.391 . S
C603 C602 1.386 . S
C603 C607 1.393 . S
C604 H593 0.950 . S
C604 C602 1.391 . S
C604 C605 1.400 . S
C605 C599 1.491 . S
C605 C604 1.400 . S
C605 C606 1.398 . S
C606 H594 0.950 . S
C606 C605 1.398 . S
C606 C607 1.391 . S
C607 H595 0.950 . S
C607 C603 1.393 . S
C607 C606 1.391 . S
H608 C616 0.950 1_554 S
H609 C621 0.950 . S
H610 C618 0.950 1_554 S
H611 C620 0.950 . S
H612 C622 0.950 . S
H613 C624 0.950 . S
H614 C626 0.950 . S
H615 C627 0.950 . S
C616 H608 0.950 1_556 S
C616 C617 1.386 . S
C616 C618 1.391 . S
C617 C616 1.386 . S
C617 C621 1.393 . S
C618 H610 0.950 1_556 S
C618 C616 1.391 . S
C618 C619 1.400 . S
C619 C618 1.400 . S
C619 C620 1.398 . S
C619 C625 1.491 . S
C620 H611 0.950 . S
C620 C619 1.398 . S
C620 C621 1.391 . S
C621 H609 0.950 . S
C621 C617 1.393 . S
C621 C620 1.391 . S
C622 H612 0.950 . S
C622 C623 1.386 . S
C622 C624 1.391 . S
C623 C622 1.386 . S
C623 C627 1.393 1_556 S
C624 H613 0.950 . S
C624 C622 1.391 . S
C624 C625 1.400 . S
C625 C619 1.491 . S
C625 C624 1.400 . S
C625 C626 1.398 1_556 S
C626 H614 0.950 . S
C626 C625 1.398 1_554 S
C626 C627 1.391 . S
C627 H615 0.950 . S
C627 C623 1.393 1_554 S
C627 C626 1.391 . S
H628 C636 0.950 . S
H629 C641 0.950 . S
H630 C638 0.950 . S
H631 C640 0.950 . S
H632 C642 0.950 . S
H633 C644 0.950 . S
H634 C646 0.950 . S
H635 C647 0.950 . S
C636 H628 0.950 . S
C636 C637 1.386 . S
C636 C638 1.391 . S
C637 C636 1.386 . S
C637 C641 1.393 . S
C638 H630 0.950 . S
C638 C636 1.391 . S
C638 C639 1.400 . S
C639 C638 1.400 . S
C639 C640 1.398 . S
C639 C645 1.491 . S
C640 H631 0.950 . S
C640 C639 1.398 . S
C640 C641 1.391 . S
C641 H629 0.950 . S
C641 C637 1.393 . S
C641 C640 1.391 . S
C642 H632 0.950 . S
C642 C643 1.386 . S
C642 C644 1.391 . S
C643 C642 1.386 . S
C643 C647 1.393 . S
C644 H633 0.950 . S
C644 C642 1.391 . S
C644 C645 1.400 . S
C645 C639 1.491 . S
C645 C644 1.400 . S
C645 C646 1.398 . S
C646 H634 0.950 . S
C646 C645 1.398 . S
C646 C647 1.391 . S
C647 H635 0.950 . S
C647 C643 1.393 . S
C647 C646 1.391 . S
H648 C656 0.950 . S
H649 C661 0.950 . S
H650 C658 0.950 . S
H651 C660 0.950 . S
H652 C662 0.950 . S
H653 C664 0.950 . S
H654 C666 0.950 . S
H655 C667 0.950 . S
C656 H648 0.950 . S
C656 C657 1.386 . S
C656 C658 1.391 . S
C657 C656 1.386 . S
C657 C661 1.393 . S
C658 H650 0.950 . S
C658 C656 1.391 . S
C658 C659 1.400 . S
C659 C658 1.400 . S
C659 C660 1.398 . S
C659 C665 1.491 . S
C660 H651 0.950 . S
C660 C659 1.398 . S
C660 C661 1.391 . S
C661 H649 0.950 . S
C661 C657 1.393 . S
C661 C660 1.391 . S
C662 H652 0.950 . S
C662 C663 1.386 . S
C662 C664 1.391 . S
C663 C662 1.386 . S
C663 C667 1.393 . S
C664 H653 0.950 . S
C664 C662 1.391 . S
C664 C665 1.400 . S
C665 C659 1.491 . S
C665 C664 1.400 . S
C665 C666 1.398 . S
C666 H654 0.950 . S
C666 C665 1.398 . S
C666 C667 1.391 . S
C667 H655 0.950 . S
C667 C663 1.393 . S
C667 C666 1.391 . S
H668 C676 0.950 . S
H669 C681 0.950 . S
H670 C678 0.950 . S
H671 C680 0.950 . S
H672 C682 0.950 . S
H673 C684 0.950 . S
H674 C686 0.950 . S
H675 C687 0.950 . S
C676 H668 0.950 . S
C676 C677 1.386 . S
C676 C678 1.391 . S
C677 C676 1.386 . S
C677 C681 1.393 . S
C678 H670 0.950 . S
C678 C676 1.391 . S
C678 C679 1.400 . S
C679 C678 1.400 . S
C679 C680 1.398 . S
C679 C685 1.491 . S
C680 H671 0.950 . S
C680 C679 1.398 . S
C680 C681 1.391 . S
C681 H669 0.950 . S
C681 C677 1.393 . S
C681 C680 1.391 . S
C682 H672 0.950 . S
C682 C683 1.386 . S
C682 C684 1.391 . S
C683 C682 1.386 . S
C683 C687 1.393 . S
C684 H673 0.950 . S
C684 C682 1.391 . S
C684 C685 1.400 . S
C685 C679 1.491 . S
C685 C684 1.400 . S
C685 C686 1.398 . S
C686 H674 0.950 . S
C686 C685 1.398 . S
C686 C687 1.391 . S
C687 H675 0.950 . S
C687 C683 1.393 . S
C687 C686 1.391 . S
H688 C696 0.950 . S
H689 C701 0.950 . S
H690 C698 0.950 . S
H691 C700 0.950 . S
H692 C702 0.950 . S
H693 C704 0.950 . S
H694 C706 0.950 . S
H695 C707 0.950 . S
C696 H688 0.950 . S
C696 C697 1.386 . S
C696 C698 1.391 . S
C697 C696 1.386 . S
C697 C701 1.393 . S
C698 H690 0.950 . S
C698 C696 1.391 . S
C698 C699 1.400 . S
C699 C698 1.400 . S
C699 C700 1.398 . S
C699 C705 1.491 . S
C700 H691 0.950 . S
C700 C699 1.398 . S
C700 C701 1.391 . S
C701 H689 0.950 . S
C701 C697 1.393 . S
C701 C700 1.391 . S
C702 H692 0.950 . S
C702 C703 1.386 . S
C702 C704 1.391 . S
C703 C702 1.386 . S
C703 C707 1.393 . S
C704 H693 0.950 . S
C704 C702 1.391 . S
C704 C705 1.400 . S
C705 C699 1.491 . S
C705 C704 1.400 . S
C705 C706 1.398 . S
C706 H694 0.950 . S
C706 C705 1.398 . S
C706 C707 1.391 . S
C707 H695 0.950 . S
C707 C703 1.393 . S
C707 C706 1.391 . S
H708 C716 0.950 . S
H709 C721 0.950 . S
H710 C718 0.950 . S
H711 C720 0.950 . S
H712 C722 0.950 . S
H713 C724 0.950 . S
H714 C726 0.950 . S
H715 C727 0.950 . S
C716 H708 0.950 . S
C716 C717 1.386 . S
C716 C718 1.391 . S
C717 C716 1.386 . S
C717 C721 1.393 . S
C718 H710 0.950 . S
C718 C716 1.391 . S
C718 C719 1.400 . S
C719 C718 1.400 . S
C719 C720 1.398 . S
C719 C725 1.491 . S
C720 H711 0.950 . S
C720 C719 1.398 . S
C720 C721 1.391 . S
C721 H709 0.950 . S
C721 C717 1.393 . S
C721 C720 1.391 . S
C722 H712 0.950 . S
C722 C723 1.390 . S
C722 C724 1.391 . S
C723 C722 1.390 . S
C723 C727 1.392 1_554 S
C724 H713 0.950 . S
C724 C722 1.391 . S
C724 C725 1.400 . S
C725 C719 1.491 . S
C725 C724 1.400 . S
C725 C726 1.398 . S
C726 H714 0.950 . S
C726 C725 1.398 . S
C726 C727 1.391 1_554 S
C727 H715 0.950 . S
C727 C723 1.392 1_556 S
C727 C726 1.391 1_556 S
H728 C736 0.950 . S
H729 C741 0.950 . S
H730 C738 0.950 . S
H731 C740 0.950 . S
H732 C742 0.950 . S
H733 C744 0.950 . S
H734 C746 0.950 . S
H735 C747 0.950 . S
C736 H728 0.950 . S
C736 C737 1.386 . S
C736 C738 1.391 . S
C737 C736 1.386 . S
C737 C741 1.393 . S
C738 H730 0.950 . S
C738 C736 1.391 . S
C738 C739 1.400 . S
C739 C738 1.400 . S
C739 C740 1.398 . S
C739 C745 1.491 . S
C740 H731 0.950 . S
C740 C739 1.398 . S
C740 C741 1.391 . S
C741 H729 0.950 . S
C741 C737 1.393 . S
C741 C740 1.391 . S
C742 H732 0.950 . S
C742 C743 1.386 . S
C742 C744 1.391 . S
C743 C742 1.386 . S
C743 C747 1.393 . S
C744 H733 0.950 . S
C744 C742 1.391 . S
C744 C745 1.400 . S
C745 C739 1.491 . S
C745 C744 1.400 . S
C745 C746 1.398 . S
C746 H734 0.950 . S
C746 C745 1.398 . S
C746 C747 1.391 . S
C747 H735 0.950 . S
C747 C743 1.393 . S
C747 C746 1.391 . S
H748 C756 0.950 . S
H749 C761 0.950 . S
H750 C758 0.950 . S
H751 C760 0.950 . S
H752 C762 0.950 . S
H753 C764 0.950 . S
H754 C766 0.950 . S
H755 C767 0.950 . S
C756 H748 0.950 . S
C756 C757 1.386 . S
C756 C758 1.391 . S
C757 C756 1.386 . S
C757 C761 1.393 . S
C758 H750 0.950 . S
C758 C756 1.391 . S
C758 C759 1.400 . S
C759 C758 1.400 . S
C759 C760 1.398 . S
C759 C765 1.491 . S
C760 H751 0.950 . S
C760 C759 1.398 . S
C760 C761 1.391 . S
C761 H749 0.950 . S
C761 C757 1.393 . S
C761 C760 1.391 . S
C762 H752 0.950 . S
C762 C763 1.386 . S
C762 C764 1.391 . S
C763 C762 1.386 . S
C763 C767 1.393 . S
C764 H753 0.950 . S
C764 C762 1.391 . S
C764 C765 1.400 . S
C765 C759 1.491 . S
C765 C764 1.400 . S
C765 C766 1.398 . S
C766 H754 0.950 . S
C766 C765 1.398 . S
C766 C767 1.391 . S
C767 H755 0.950 . S
C767 C763 1.393 . S
C767 C766 1.391 . S
H768 C776 0.950 . S
H769 C781 0.950 . S
H770 C778 0.950 . S
H771 C780 0.950 . S
H772 C782 0.950 . S
H773 C784 0.950 . S
H774 C786 0.950 . S
H775 C787 0.950 . S
C776 H768 0.950 . S
C776 C777 1.386 . S
C776 C778 1.391 . S
C777 C776 1.386 . S
C777 C781 1.393 . S
C778 H770 0.950 . S
C778 C776 1.391 . S
C778 C779 1.400 . S
C779 C778 1.400 . S
C779 C780 1.398 . S
C779 C785 1.491 . S
C780 H771 0.950 . S
C780 C779 1.398 . S
C780 C781 1.391 . S
C781 H769 0.950 . S
C781 C777 1.393 . S
C781 C780 1.391 . S
C782 H772 0.950 . S
C782 C783 1.386 . S
C782 C784 1.391 . S
C783 C782 1.386 . S
C783 C787 1.393 . S
C784 H773 0.950 . S
C784 C782 1.391 . S
C784 C785 1.400 . S
C785 C779 1.491 . S
C785 C784 1.400 . S
C785 C786 1.398 . S
C786 H774 0.950 . S
C786 C785 1.398 . S
C786 C787 1.391 . S
C787 H775 0.950 . S
C787 C783 1.393 . S
C787 C786 1.391 . S
H788 C796 0.950 . S
H789 C801 0.950 . S
H790 C798 0.950 . S
H791 C800 0.950 . S
H792 C802 0.950 . S
H793 C804 0.950 . S
H794 C806 0.950 . S
H795 C807 0.950 . S
C796 H788 0.950 . S
C796 C797 1.386 . S
C796 C798 1.391 . S
C797 C796 1.386 . S
C797 C801 1.393 . S
C798 H790 0.950 . S
C798 C796 1.391 . S
C798 C799 1.400 . S
C799 C798 1.400 . S
C799 C800 1.398 . S
C799 C805 1.491 . S
C800 H791 0.950 . S
C800 C799 1.398 . S
C800 C801 1.391 . S
C801 H789 0.950 . S
C801 C797 1.393 . S
C801 C800 1.391 . S
C802 H792 0.950 . S
C802 C803 1.386 . S
C802 C804 1.391 . S
C803 C802 1.386 . S
C803 C807 1.393 . S
C804 H793 0.950 . S
C804 C802 1.391 . S
C804 C805 1.400 . S
C805 C799 1.491 . S
C805 C804 1.400 . S
C805 C806 1.398 . S
C806 H794 0.950 . S
C806 C805 1.398 . S
C806 C807 1.391 . S
C807 H795 0.950 . S
C807 C803 1.393 . S
C807 C806 1.391 . S
H808 C816 0.950 . S
H809 C821 0.950 . S
H810 C818 0.950 . S
H811 C820 0.950 . S
H812 C822 0.950 . S
H813 C824 0.950 . S
H814 C826 0.950 . S
H815 C827 0.950 . S
C816 H808 0.950 . S
C816 C817 1.386 . S
C816 C818 1.391 . S
C817 C816 1.386 . S
C817 C821 1.393 . S
C818 H810 0.950 . S
C818 C816 1.391 . S
C818 C819 1.400 . S
C819 C818 1.400 . S
C819 C820 1.398 . S
C819 C825 1.491 . S
C820 H811 0.950 . S
C820 C819 1.398 . S
C820 C821 1.391 . S
C821 H809 0.950 . S
C821 C817 1.393 . S
C821 C820 1.391 . S
C822 H812 0.950 . S
C822 C823 1.386 . S
C822 C824 1.391 . S
C823 C822 1.386 . S
C823 C827 1.393 . S
C824 H813 0.950 . S
C824 C822 1.391 . S
C824 C825 1.400 . S
C825 C819 1.491 . S
C825 C824 1.400 . S
C825 C826 1.398 . S
C826 H814 0.950 . S
C826 C825 1.398 . S
C826 C827 1.391 . S
C827 H815 0.950 . S
C827 C823 1.393 . S
C827 C826 1.391 . S
H828 C836 0.950 . S
H829 C841 0.950 . S
H830 C838 0.950 . S
H831 C840 0.950 . S
H832 C842 0.950 . S
H833 C844 0.950 . S
H834 C846 0.950 . S
H835 C847 0.950 . S
C836 H828 0.950 . S
C836 C837 1.386 . S
C836 C838 1.391 . S
C837 C836 1.386 . S
C837 C841 1.393 . S
C838 H830 0.950 . S
C838 C836 1.391 . S
C838 C839 1.400 . S
C839 C838 1.400 . S
C839 C840 1.398 . S
C839 C845 1.491 . S
C840 H831 0.950 . S
C840 C839 1.398 . S
C840 C841 1.391 . S
C841 H829 0.950 . S
C841 C837 1.393 . S
C841 C840 1.391 . S
C842 H832 0.950 . S
C842 C843 1.386 . S
C842 C844 1.391 . S
C843 C842 1.386 . S
C843 C847 1.393 . S
C844 H833 0.950 . S
C844 C842 1.391 . S
C844 C845 1.400 . S
C845 C839 1.491 . S
C845 C844 1.400 . S
C845 C846 1.398 . S
C846 H834 0.950 . S
C846 C845 1.398 . S
C846 C847 1.391 . S
C847 H835 0.950 . S
C847 C843 1.393 . S
C847 C846 1.391 . S
H848 C856 0.950 . S
H849 C861 0.950 1_455 S
H850 C858 0.950 . S
H851 C860 0.950 1_455 S
H852 C862 0.950 1_455 S
H853 C864 0.950 1_455 S
H854 C866 0.950 . S
H855 C867 0.950 . S
C856 H848 0.950 . S
C856 C857 1.386 . S
C856 C858 1.391 . S
C857 C856 1.386 . S
C857 C861 1.393 . S
C858 H850 0.950 . S
C858 C856 1.391 . S
C858 C859 1.400 . S
C859 C858 1.400 . S
C859 C860 1.398 . S
C859 C865 1.491 . S
C860 H851 0.950 1_655 S
C860 C859 1.398 . S
C860 C861 1.391 . S
C861 H849 0.950 1_655 S
C861 C857 1.393 . S
C861 C860 1.391 . S
C862 H852 0.950 1_655 S
C862 C863 1.386 . S
C862 C864 1.391 . S
C863 C862 1.386 . S
C863 C867 1.393 . S
C864 H853 0.950 1_655 S
C864 C862 1.391 . S
C864 C865 1.400 . S
C865 C859 1.491 . S
C865 C864 1.400 . S
C865 C866 1.398 . S
C866 H854 0.950 . S
C866 C865 1.398 . S
C866 C867 1.391 . S
C867 H855 0.950 . S
C867 C863 1.393 . S
C867 C866 1.391 . S
H868 C876 0.950 . S
H869 C881 0.950 1_545 S
H870 C878 0.950 . S
H871 C880 0.950 1_545 S
H872 C882 0.950 1_545 S
H873 C884 0.950 1_545 S
H874 C886 0.950 . S
H875 C887 0.950 . S
C876 H868 0.950 . S
C876 C877 1.386 . S
C876 C878 1.391 . S
C877 C876 1.386 . S
C877 C881 1.393 . S
C878 H870 0.950 . S
C878 C876 1.391 . S
C878 C879 1.400 . S
C879 C878 1.400 . S
C879 C880 1.398 . S
C879 C885 1.491 . S
C880 H871 0.950 1_565 S
C880 C879 1.398 . S
C880 C881 1.391 . S
C881 H869 0.950 1_565 S
C881 C877 1.393 . S
C881 C880 1.391 . S
C882 H872 0.950 1_565 S
C882 C883 1.386 . S
C882 C884 1.391 . S
C883 C882 1.386 . S
C883 C887 1.393 . S
C884 H873 0.950 1_565 S
C884 C882 1.391 . S
C884 C885 1.400 . S
C885 C879 1.491 . S
C885 C884 1.400 . S
C885 C886 1.398 . S
C886 H874 0.950 . S
C886 C885 1.398 . S
C886 C887 1.391 . S
C887 H875 0.950 . S
C887 C883 1.393 . S
C887 C886 1.391 . S
H888 C896 0.950 . S
H889 C901 0.950 . S
H890 C898 0.950 . S
H891 C900 0.950 . S
H892 C902 0.950 . S
H893 C904 0.950 . S
H894 C906 0.950 . S
H895 C907 0.950 . S
C896 H888 0.950 . S
C896 C897 1.386 . S
C896 C898 1.391 . S
C897 C896 1.386 . S
C897 C901 1.393 . S
C898 H890 0.950 . S
C898 C896 1.391 . S
C898 C899 1.400 . S
C899 C898 1.400 . S
C899 C900 1.398 . S
C899 C905 1.491 . S
C900 H891 0.950 . S
C900 C899 1.398 . S
C900 C901 1.391 . S
C901 H889 0.950 . S
C901 C897 1.393 . S
C901 C900 1.391 . S
C902 H892 0.950 . S
C902 C903 1.386 . S
C902 C904 1.391 . S
C903 C902 1.386 . S
C903 C907 1.393 . S
C904 H893 0.950 . S
C904 C902 1.391 . S
C904 C905 1.400 . S
C905 C899 1.491 . S
C905 C904 1.400 . S
C905 C906 1.398 . S
C906 H894 0.950 . S
C906 C905 1.398 . S
C906 C907 1.391 . S
C907 H895 0.950 . S
C907 C903 1.393 . S
C907 C906 1.391 . S
H908 C916 0.950 . S
H909 C921 0.950 . S
H910 C918 0.950 . S
H911 C920 0.950 . S
H912 C922 0.950 . S
H913 C924 0.950 . S
H914 C926 0.950 . S
H915 C927 0.950 . S
C916 H908 0.950 . S
C916 C917 1.386 . S
C916 C918 1.391 . S
C917 C916 1.386 . S
C917 C921 1.393 1_455 S
C918 H910 0.950 . S
C918 C916 1.391 . S
C918 C919 1.419 . S
C919 C918 1.419 . S
C919 C920 1.383 1_455 S
C919 C925 1.487 1_455 S
C920 H911 0.950 . S
C920 C919 1.383 1_655 S
C920 C921 1.391 . S
C921 H909 0.950 . S
C921 C917 1.393 1_655 S
C921 C920 1.391 . S
C922 H912 0.950 . S
C922 C923 1.386 . S
C922 C924 1.391 . S
C923 C922 1.386 . S
C923 C927 1.393 1_655 S
C924 H913 0.950 . S
C924 C922 1.391 . S
C924 C925 1.400 . S
C925 C919 1.487 1_655 S
C925 C924 1.400 . S
C925 C926 1.398 1_655 S
C926 H914 0.950 . S
C926 C925 1.398 1_455 S
C926 C927 1.391 . S
C927 H915 0.950 . S
C927 C923 1.393 1_455 S
C927 C926 1.391 . S
H928 C936 0.929 1_565 S
H929 C941 0.950 . S
H930 C938 0.950 . S
H931 C940 0.950 . S
H932 C942 0.929 1_545 S
H933 C944 0.950 . S
H934 C946 0.950 . S
H935 C947 0.950 . S
C936 H928 0.929 1_545 S
C936 C937 1.386 . S
C936 C938 1.391 1_545 S
C937 C936 1.386 . S
C937 C941 1.393 . S
C938 H930 0.950 . S
C938 C936 1.391 1_565 S
C938 C939 1.400 1_565 S
C939 C938 1.400 1_545 S
C939 C940 1.398 . S
C939 C945 1.491 1_546 S
C940 H931 0.950 . S
C940 C939 1.398 . S
C940 C941 1.391 . S
C941 H929 0.950 . S
C941 C937 1.393 . S
C941 C940 1.391 . S
C942 H932 0.929 1_565 S
C942 C943 1.386 . S
C942 C944 1.391 1_565 S
C943 C942 1.386 . S
C943 C947 1.393 . S
C944 H933 0.950 . S
C944 C942 1.391 1_545 S
C944 C945 1.400 1_545 S
C945 C939 1.491 1_564 S
C945 C944 1.400 1_565 S
C945 C946 1.398 . S
C946 H934 0.950 . S
C946 C945 1.398 . S
C946 C947 1.391 . S
C947 H935 0.950 . S
C947 C943 1.393 . S
C947 C946 1.391 . S
H948 C956 0.950 . S
H949 C961 0.950 . S
H950 C958 0.950 . S
H951 C960 0.950 . S
H952 C962 0.950 . S
H953 C964 0.950 . S
H954 C966 0.950 . S
H955 C967 0.950 . S
C956 H948 0.950 . S
C956 C957 1.386 . S
C956 C958 1.391 . S
C957 C956 1.386 . S
C957 C961 1.393 . S
C958 H950 0.950 . S
C958 C956 1.391 . S
C958 C959 1.400 . S
C959 C958 1.400 . S
C959 C960 1.398 . S
C959 C965 1.491 . S
C960 H951 0.950 . S
C960 C959 1.398 . S
C960 C961 1.391 . S
C961 H949 0.950 . S
C961 C957 1.393 . S
C961 C960 1.391 . S
C962 H952 0.950 . S
C962 C963 1.386 . S
C962 C964 1.391 . S
C963 C962 1.386 . S
C963 C967 1.393 . S
C964 H953 0.950 . S
C964 C962 1.391 . S
C964 C965 1.400 . S
C965 C959 1.491 . S
C965 C964 1.400 . S
C965 C966 1.398 . S
C966 H954 0.950 . S
C966 C965 1.398 . S
C966 C967 1.391 . S
C967 H955 0.950 . S
C967 C963 1.393 . S
C967 C966 1.391 . S
H968 C976 0.950 . S
H969 C981 0.950 . S
H970 C978 0.950 . S
H971 C980 0.950 . S
H972 C982 0.950 . S
H973 C984 0.950 . S
H974 C986 0.950 . S
H975 C987 0.950 . S
C976 H968 0.950 . S
C976 C977 1.386 . S
C976 C978 1.391 . S
C977 C976 1.386 . S
C977 C981 1.393 1_655 S
C978 H970 0.950 . S
C978 C976 1.391 . S
C978 C979 1.400 . S
C979 C978 1.400 . S
C979 C980 1.398 1_655 S
C979 C985 1.489 1_655 S
C980 H971 0.950 . S
C980 C979 1.398 1_455 S
C980 C981 1.391 . S
C981 H969 0.950 . S
C981 C977 1.393 1_455 S
C981 C980 1.391 . S
C982 H972 0.950 . S
C982 C983 1.386 . S
C982 C984 1.391 . S
C983 C982 1.386 . S
C983 C987 1.393 1_455 S
C984 H973 0.950 . S
C984 C982 1.391 . S
C984 C985 1.408 . S
C985 C979 1.489 1_455 S
C985 C984 1.408 . S
C985 C986 1.393 1_455 S
C986 H974 0.950 . S
C986 C985 1.393 1_655 S
C986 C987 1.391 . S
C987 H975 0.950 . S
C987 C983 1.393 1_655 S
C987 C986 1.391 . S
H988 C996 0.950 . S
H989 C1001 0.950 . S
H990 C998 0.952 1_565 S
H991 C1000 0.950 . S
H992 C1002 0.950 . S
H993 C1004 0.952 1_545 S
H994 C1006 0.950 . S
H995 C1007 0.950 . S
C996 H988 0.950 . S
C996 C997 1.386 . S
C996 C998 1.394 . S
C997 C996 1.386 . S
C997 C1001 1.393 . S
C998 H990 0.952 1_545 S
C998 C996 1.394 . S
C998 C999 1.395 . S
C999 C998 1.395 . S
C999 C1000 1.398 . S
C999 C1005 1.491 1_545 S
C1000 H991 0.950 . S
C1000 C999 1.398 . S
C1000 C1001 1.391 . S
C1001 H989 0.950 . S
C1001 C997 1.393 . S
C1001 C1000 1.391 . S
C1002 H992 0.950 . S
C1002 C1003 1.386 . S
C1002 C1004 1.394 . S
C1003 C1002 1.386 . S
C1003 C1007 1.393 . S
C1004 H993 0.952 1_565 S
C1004 C1002 1.394 . S
C1004 C1005 1.396 . S
C1005 C999 1.491 1_565 S
C1005 C1004 1.396 . S
C1005 C1006 1.398 . S
C1006 H994 0.950 . S
C1006 C1005 1.398 . S
C1006 C1007 1.391 . S
C1007 H995 0.950 . S
C1007 C1003 1.393 . S
C1007 C1006 1.391 . S
C417 C292 0.874 . S
C423 C20 0.862 . S
C437 C54 0.889 . S
C443 C326 0.880 . S
C457 C88 0.867 . S
C463 C360 0.860 . S
C477 C122 0.860 . S
C483 C394 0.869 . S
C497 C156 0.887 . S
C503 C224 0.874 . S
C517 C190 0.863 . S
C523 C258 0.862 . S
C537 C9 1.629 . S
C543 C203 1.778 . S
C557 C33 1.779 . S
C563 C43 1.629 . S
C577 C77 1.623 . S
C583 C67 1.785 . S
C597 C101 1.777 . S
C603 C111 1.626 . S
C617 C135 1.779 . S
C623 C145 1.600 1_556 S
C637 C179 1.611 . S
C643 C169 1.777 . S
C657 C271 1.789 . S
C663 C213 1.604 . S
C677 C305 1.780 . S
C683 C247 1.630 . S
C697 C339 1.789 . S
C703 C281 1.606 . S
C717 C373 1.789 . S
C723 C315 1.592 1_554 S
C737 C407 1.783 . S
C743 C349 1.627 . S
C757 C383 1.599 . S
C763 C237 1.780 . S
C777 C2 1.103 . S
C783 C206 1.093 . S
C797 C36 1.093 . S
C803 C240 1.102 . S
C817 C70 1.089 . S
C823 C274 1.099 . S
C837 C104 1.076 . S
C843 C308 1.080 . S
C857 C342 1.104 . S
C863 C138 1.108 . S
C877 C172 1.104 . S
C883 C376 1.108 . S
C897 C311 1.280 . S
C903 C5 1.273 . S
C917 C39 1.295 . S
C923 C345 1.281 . S
C937 C73 1.274 . S
C943 C379 1.277 . S
C957 C107 1.273 . S
C963 C209 1.280 . S
C977 C141 1.296 . S
C983 C243 1.285 . S
C997 C277 1.275 . S
C1003 C175 1.276 . S
