# Generated by pormake.
# Topology uom, (4)-cn, num edge types: 1
# Building blocks:
#     Node 0, Type 0, BuildingBlock: ESEHIV_clean_sbu_0, # of connection points: 4
#     Node 1, Type 0, BuildingBlock: ESEHIV_clean_sbu_0, # of connection points: 4
#     Node 2, Type 0, BuildingBlock: ESEHIV_clean_sbu_0, # of connection points: 4
#     Node 3, Type 0, BuildingBlock: ESEHIV_clean_sbu_0, # of connection points: 4
#     Node 4, Type 0, BuildingBlock: ESEHIV_clean_sbu_0, # of connection points: 4
#     Node 5, Type 0, BuildingBlock: ESEHIV_clean_sbu_0, # of connection points: 4
#     Edge 6, Type (0, 0), BuildingBlock: CIFDUS_clean_linker_0, # of connection points: 2
#     Edge 7, Type (0, 0), BuildingBlock: CIFDUS_clean_linker_0, # of connection points: 2
#     Edge 8, Type (0, 0), BuildingBlock: CIFDUS_clean_linker_0, # of connection points: 2
#     Edge 9, Type (0, 0), BuildingBlock: CIFDUS_clean_linker_0, # of connection points: 2
#     Edge 10, Type (0, 0), BuildingBlock: CIFDUS_clean_linker_0, # of connection points: 2
#     Edge 11, Type (0, 0), BuildingBlock: CIFDUS_clean_linker_0, # of connection points: 2
#     Edge 12, Type (0, 0), BuildingBlock: CIFDUS_clean_linker_0, # of connection points: 2
#     Edge 13, Type (0, 0), BuildingBlock: CIFDUS_clean_linker_0, # of connection points: 2
#     Edge 14, Type (0, 0), BuildingBlock: CIFDUS_clean_linker_0, # of connection points: 2
#     Edge 15, Type (0, 0), BuildingBlock: CIFDUS_clean_linker_0, # of connection points: 2
#     Edge 16, Type (0, 0), BuildingBlock: CIFDUS_clean_linker_0, # of connection points: 2
#     Edge 17, Type (0, 0), BuildingBlock: CIFDUS_clean_linker_0, # of connection points: 2
# Relax obj value: 0.097
# Max RMSD: 0.201
# Mean RMSD: 0.159
data_MOF--net-uom--node1-ESEHIV_clean_sbu_0--edge1-CIFDUS_clean_linker_0
_symmetry_space_group_name_H-M    P1
_symmetry_Int_Tables_number       1
_symmetry_cell_setting            triclinic
loop_
_symmetry_equiv_pos_as_xyz
'x, y, z'
_cell_length_a     25.729531
_cell_length_b     25.284193
_cell_length_c     41.687795
_cell_angle_alpha  90.018077
_cell_angle_beta   89.68014
_cell_angle_gamma 123.50231
loop_
_atom_site_label
_atom_site_type_symbol
_atom_site_fract_x
_atom_site_fract_y
_atom_site_fract_z
_atom_type_partial_charge
Cu0 Cu 0.39148 0.06684 0.05999 0.0
N1 N 0.3562 -0.00225 1.03186 0.0
N2 N 0.336 0.94814 0.98451 0.0
C3 C 0.36751 0.00428 1.00004 0.0
C4 C 0.30338 0.9044 1.00769 0.0
C5 C 0.31603 0.93513 1.03688 0.0
O6 O 0.48129 0.11149 0.05209 0.0
C7 C 0.29327 0.07787 0.05655 0.0
O8 O 0.26824 0.01827 0.06462 0.0
H9 H 0.39741 0.04991 0.98851 0.0
H10 H 0.29674 0.91338 0.05997 0.0
N11 N 0.37265 0.045 0.1035 0.0
N12 N 0.34638 0.05459 0.15352 0.0
C13 C 0.36543 0.08139 0.1242 0.0
C14 C 0.35853 -0.00675 0.12035 0.0
C15 C 0.34245 -0.00086 0.15131 0.0
C16 C 0.52045 0.11815 0.07306 0.0
O17 O 0.50357 0.10733 0.10337 0.0
H18 H 0.37331 0.12661 0.1175 0.0
H19 H 0.35847 0.95352 0.11071 0.0
O20 O 0.3518 0.11257 0.05094 0.0
H21 H 0.27278 0.85379 1.00396 0.0
H22 H 0.32704 0.9643 0.1703 0.0
Cu23 Cu 0.32806 0.24416 0.40687 0.0
N24 N 0.29689 0.21728 0.36545 0.0
N25 N 0.28565 0.17306 0.3173 0.0
C26 C 0.31402 0.18677 0.34607 0.0
C27 C 0.24906 0.19594 0.31867 0.0
C28 C 0.25591 0.22301 0.34848 0.0
O29 O 0.41273 0.31792 0.4025 0.0
C30 C 0.2903 0.11434 0.4257 0.0
O31 O 0.30732 0.0789 0.43874 0.0
H32 H 0.34776 0.17599 0.35285 0.0
H33 H 0.23265 0.24517 0.35709 0.0
N34 N 0.28408 0.26932 0.43183 0.0
N35 N 0.22558 0.27015 0.47157 0.0
C36 C 0.26139 0.24928 0.46176 0.0
C37 C 0.26334 0.30552 0.4227 0.0
C38 C 0.22709 0.30596 0.44709 0.0
C39 C 0.45861 0.32512 0.41806 0.0
O40 O 0.4495 0.28047 0.43798 0.0
H41 H 0.26784 0.21666 0.47514 0.0
H42 H 0.27246 0.32848 0.39957 0.0
O43 O 0.32895 0.1746 0.42664 0.0
H44 H 0.21916 0.19298 0.29962 0.0
H45 H 0.20307 0.33009 0.44659 0.0
Cu46 Cu 0.99234 0.19307 0.71406 0.0
N47 N 0.9244 0.1472 0.74191 0.0
N48 N 0.87873 0.10686 0.78944 0.0
C49 C 0.9307 0.15226 0.77396 0.0
C50 C 0.83775 0.07181 0.76609 0.0
C51 C 0.86608 0.09691 0.73671 0.0
O52 O 0.03062 0.28301 0.72199 0.0
C53 C 0.01967 0.10337 0.71842 0.0
O54 O 0.96153 0.06962 0.70874 0.0
H55 H 0.97437 0.18588 0.7856 0.0
H56 H 0.84689 0.07745 0.71338 0.0
N57 N 0.97316 0.17963 0.67052 0.0
N58 N 0.99288 0.18524 0.61782 0.0
C59 C 1.01607 0.19338 0.6477 0.0
C60 C 0.92061 0.16217 0.65472 0.0
C61 C 0.93261 0.16547 0.62215 0.0
C62 C 0.99437 0.30259 0.72163 0.0
O63 O 0.93451 0.26116 0.7171 0.0
H64 H 0.06426 0.21178 0.65311 0.0
H65 H 0.87732 0.14985 0.66598 0.0
O66 O 0.04587 0.16286 0.72243 0.0
H67 H 0.79156 0.02975 0.76992 0.0
H68 H 0.89965 0.15493 0.60322 0.0
Cu69 Cu 0.8861 0.03571 0.06084 0.0
N70 N 0.86543 -0.00255 1.02032 0.0
N71 N 0.84802 -0.01663 0.96748 0.0
C72 C 0.86288 0.02314 0.99253 0.0
C73 C 0.84084 0.93053 0.98015 0.0
C74 C 0.85169 0.93942 1.01269 0.0
O75 O 0.84506 0.08129 0.06777 0.0
C76 C 1.01373 0.11877 1.0405 0.0
O77 O 0.99096 0.12563 1.01389 0.0
H78 H 0.87134 0.06999 0.9909 0.0
H79 H 0.8504 0.90623 1.02957 0.0
N80 N 0.85843 0.97313 0.09259 0.0
N81 N 0.85827 0.91836 0.13494 0.0
C82 C 0.89325 0.96847 0.1151 0.0
C83 C 0.79953 0.92431 0.09824 0.0
C84 C 0.79924 0.89051 0.1243 0.0
C85 C 0.79193 0.06018 0.05516 0.0
O86 O 0.76608 0.00868 1.0376 0.0
H87 H 0.94308 0.00198 0.11722 0.0
H88 H 0.75959 0.91418 0.08441 0.0
O89 O 0.97687 0.08781 0.06379 0.0
H90 H 0.83009 0.88896 0.96681 0.0
H91 H 0.75864 0.84835 0.1344 0.0
Cu92 Cu 0.90102 0.7474 0.39004 0.0
N93 N 0.92153 0.76267 0.34616 0.0
N94 N 0.91797 0.79066 0.29559 0.0
C95 C 0.89597 0.78347 0.32585 0.0
C96 C 0.95986 0.77439 0.29697 0.0
C97 C 0.96184 0.75695 0.32822 0.0
O98 O 0.81958 0.66856 0.39372 0.0
C99 C 0.92754 0.87528 0.40645 0.0
O100 O 0.90238 0.90542 0.41682 0.0
H101 H 0.8623 0.79398 0.33329 0.0
H102 H 0.99048 0.74115 0.33718 0.0
N103 N 0.95628 0.73896 0.41569 0.0
N104 N 1.01796 0.74994 0.45647 0.0
C105 C 0.98311 0.76931 0.44342 0.0
C106 C 0.9745 0.69882 0.41117 0.0
C107 C 1.01244 0.7054 0.43626 0.0
C108 C 0.77058 0.66551 0.38519 0.0
O109 O 0.77558 0.71662 0.3739 0.0
H110 H 0.97639 0.8042 0.45404 0.0
H111 H 0.96063 0.66658 0.39115 0.0
O112 O 0.89214 0.81482 0.40518 0.0
H113 H 0.98617 0.77382 0.27678 0.0
H114 H 0.03461 0.67974 0.43926 0.0
Cu115 Cu 0.17658 0.7919 0.71894 0.0
N116 N 0.2389 0.82936 0.75021 0.0
N117 N 0.27859 0.85672 0.79973 0.0
C118 C 0.22636 0.8251 0.78185 0.0
C119 C 0.32609 0.88201 0.77827 0.0
C120 C 0.30144 0.8649 0.74772 0.0
O121 O 0.13596 0.70058 0.72274 0.0
C122 C 0.14996 0.88175 0.72908 0.0
O123 O 0.21115 0.91724 0.72802 0.0
H124 H 0.17939 0.80023 0.79142 0.0
H125 H 0.32721 0.87759 0.72536 0.0
N126 N 0.2038 0.8145 0.67637 0.0
N127 N 0.19017 0.81305 0.62324 0.0
C128 C 0.16943 0.78001 0.65101 0.0
C129 C 0.24827 0.8714 0.6642 0.0
C130 C 0.23994 0.87064 0.63141 0.0
C131 C 0.17174 0.68074 0.71956 0.0
O132 O 0.23132 0.72244 0.71399 0.0
H133 H 0.12681 0.73342 0.65329 0.0
H134 H 0.28154 0.91195 0.67837 0.0
O135 O 0.12239 0.82176 0.72658 0.0
H136 H 0.37513 0.91037 0.78414 0.0
H137 H 0.26671 0.91017 0.61508 0.0
H138 H 0.34683 0.02881 0.21664 0.0
H139 H 0.30938 0.13642 0.15151 0.0
H140 H 0.28523 0.18071 0.19637 0.0
H141 H 0.27751 0.19202 0.25435 0.0
H142 H 0.3149 0.08535 0.31997 0.0
H143 H 0.33593 0.03774 0.27493 0.0
C144 C 0.33283 0.06145 0.21223 0.0
C145 C 0.33038 0.07918 0.18051 0.0
C146 C 0.31912 0.08732 0.23836 0.0
C147 C 0.31268 0.12224 0.17546 0.0
C148 C 0.29847 0.14757 0.20121 0.0
C149 C 0.2895 0.15779 0.2588 0.0
C150 C 0.29484 0.1426 0.29055 0.0
C151 C 0.30194 0.13086 0.23277 0.0
C152 C 0.31131 0.09868 0.29582 0.0
C153 C 0.32311 0.07119 0.27004 0.0
H154 H 0.11802 0.26369 0.48097 0.0
H155 H 0.25089 0.2374 0.52835 0.0
H156 H 0.18893 0.20617 0.5776 0.0
H157 H 0.09757 0.18698 0.60733 0.0
H158 H 0.96601 0.21614 0.56062 0.0
H159 H 0.02655 0.24489 0.51095 0.0
C160 C 0.13387 0.25186 0.50214 0.0
C161 C 0.18935 0.25319 0.50086 0.0
C162 C 0.09797 0.23398 0.53048 0.0
C163 C 0.20825 0.23632 0.52846 0.0
C164 C 0.17291 0.21865 0.55671 0.0
C165 C 0.08226 0.20012 0.58644 0.0
C166 C 0.02723 0.1996 0.58798 0.0
C167 C 0.11774 0.21738 0.55801 0.0
C168 C 1.00766 0.21542 0.56024 0.0
C169 C 0.04259 0.23239 0.53181 0.0
H170 H 0.90374 0.09778 0.93836 0.0
H171 H 0.78192 0.89678 0.92095 0.0
H172 H 0.77776 0.91732 0.86412 0.0
H173 H 0.8123 -0.00754 0.81883 0.0
H174 H 0.93345 0.19318 0.83672 0.0
H175 H 0.93344 0.1727 0.89395 0.0
C176 C 0.87544 0.05839 0.92234 0.0
C177 C 0.8434 -0.00425 0.9341 0.0
C178 C 0.87314 0.07053 0.88966 0.0
C179 C 0.80787 0.94542 0.91262 0.0
C180 C 0.80514 0.95715 0.88008 0.0
C181 C 0.83776 0.0317 0.83533 0.0
C182 C 0.87303 0.09429 0.82347 0.0
C183 C 0.83804 0.01951 0.86826 0.0
C184 C 0.90655 0.14458 0.84518 0.0
C185 C 0.90648 0.1329 0.87792 0.0
H186 H 0.79113 0.85434 0.18757 0.0
H187 H 0.97278 0.93932 0.14392 0.0
H188 H 1.00772 0.90675 0.18979 0.0
H189 H 0.98648 0.85377 0.24274 0.0
H190 H 0.80412 0.769 0.28559 0.0
H191 H 0.76976 0.80136 0.23969 0.0
C192 C 0.83818 0.86525 0.18785 0.0
C193 C 0.87905 0.89916 0.16212 0.0
C194 C 0.85798 0.84639 0.21433 0.0
C195 C 0.94035 0.91387 0.16341 0.0
C196 C 0.96032 0.89491 0.18962 0.0
C197 C 0.93915 0.84204 0.24188 0.0
C198 C 0.89814 0.8092 0.26778 0.0
C199 C 0.91952 0.86108 0.21526 0.0
C200 C 0.83707 0.79502 0.26636 0.0
C201 C 0.81718 0.81323 0.23997 0.0
H202 H 0.17727 0.8846 0.57996 0.0
H203 H 0.13301 0.6961 0.59768 0.0
H204 H 0.07657 0.65976 0.54691 0.0
H205 H 0.03752 0.68098 0.49802 0.0
H206 H 0.07797 0.86835 0.48118 0.0
H207 H 0.13781 0.90578 0.53095 0.0
C208 C 0.1559 0.83581 0.57247 0.0
C209 C 0.15969 0.79314 0.59247 0.0
C210 C 0.12239 0.81499 0.5435 0.0
C211 C 0.1306 0.72971 0.58275 0.0
C212 C 0.09839 0.70898 0.55372 0.0
C213 C 0.05986 0.7301 0.50514 0.0
C214 C 0.05329 0.7718 0.48586 0.0
C215 C 0.09361 0.75106 0.53398 0.0
C216 C 0.08172 0.83513 0.49572 0.0
C217 C 0.11624 0.85662 0.5241 0.0
H218 H 0.24571 0.84973 0.94971 0.0
H219 H 0.42737 0.02398 0.94167 0.0
H220 H 0.42623 0.01065 0.88374 0.0
H221 H 0.37245 0.95119 0.83486 0.0
H222 H 0.19203 0.77551 0.84315 0.0
H223 H 0.19421 0.78771 0.90118 0.0
C224 C 0.28542 0.88445 0.93542 0.0
C225 C 0.33628 0.93811 0.9503 0.0
C226 C 0.28465 0.87644 0.90193 0.0
C227 C 0.38698 -0.01718 0.93105 0.0
C228 C 0.38659 -0.02494 0.89781 0.0
C229 C 0.33391 0.91515 0.84933 0.0
C230 C 0.28191 0.86278 0.83434 0.0
C231 C 0.33546 0.92232 0.88291 0.0
C232 C 0.23219 0.81698 0.85372 0.0
C233 C 0.23351 0.82369 0.88706 0.0
H234 H 0.2641 0.13738 1.01219 0.0
H235 H 0.23264 0.0717 0.11009 0.0
H236 H 0.14858 0.0887 0.11564 0.0
H237 H 0.07362 0.10558 0.09029 0.0
H238 H 0.09913 0.1648 0.99123 0.0
H239 H 0.19567 0.16791 0.98859 0.0
C240 C 0.24007 0.12898 1.03495 0.0
C241 C 0.25477 0.10403 0.06084 0.0
C242 C 0.18974 0.1365 1.03758 0.0
C243 C 0.22249 0.09176 0.09003 0.0
C244 C 0.17401 0.10088 0.09312 0.0
C245 C 0.10086 0.12046 0.06828 0.0
C246 C 0.07842 0.13394 1.0409 0.0
C247 C 0.15557 0.12073 0.06669 0.0
C248 C 0.11485 0.15365 1.01267 0.0
C249 C 0.17008 0.15517 1.01107 0.0
H250 H 1.00703 0.00299 0.40814 0.0
H251 H 1.00388 0.83558 0.38537 0.0
H252 H 0.11655 0.89465 0.38801 0.0
H253 H 0.21603 -0.00681 0.4036 0.0
H254 H 0.21804 0.16216 0.4179 0.0
H255 H 0.107 0.1049 0.41065 0.0
C256 C 0.03059 -0.02094 0.40341 0.0
C257 C 0.99585 0.9128 0.39944 0.0
C258 C 0.09593 0.01452 0.40336 0.0
C259 C 0.02819 0.88449 0.39145 0.0
C260 C 0.09329 0.919 0.39231 0.0
C261 C 0.19237 0.01778 0.40462 0.0
C262 C 0.22589 0.08256 0.41284 0.0
C263 C 0.12759 -0.01626 0.39963 0.0
C264 C 0.19427 0.11318 0.4129 0.0
C265 C 0.13009 0.07986 0.40859 0.0
H266 H 0.9701 -0.02301 0.71867 0.0
H267 H 0.14394 0.15821 0.73052 0.0
H268 H 0.1987 0.10471 0.73673 0.0
H269 H 0.19768 0.00714 0.73625 0.0
H270 H 0.02388 0.82604 0.7239 0.0
H271 H 0.96834 0.87914 0.72072 0.0
C272 C 0.02 0.00495 0.72268 0.0
C273 C 0.05301 0.07164 0.72385 0.0
C274 C 0.05105 -0.02608 0.72616 0.0
C275 C 0.11748 0.10691 0.72942 0.0
C276 C 0.14878 0.07633 0.73293 0.0
C277 C 0.14755 -0.02092 0.73306 0.0
C278 C 0.11502 0.91262 0.7301 0.0
C279 C 0.1161 0.00994 0.73098 0.0
C280 C 0.05006 0.87716 0.72621 0.0
C281 C 0.01833 0.90754 0.72428 0.0
H282 H 0.71482 0.06772 1.01462 0.0
H283 H 0.78754 0.11583 0.11063 0.0
H284 H 0.71339 0.14486 0.12402 0.0
H285 H 0.61959 0.14415 0.10994 0.0
H286 H 0.54998 0.0988 1.01305 0.0
H287 H 0.63185 0.08233 0.99838 0.0
C288 C 0.71511 0.08561 1.03833 0.0
C289 C 0.75603 0.08897 0.06174 0.0
C290 C 0.67266 0.10243 0.04572 0.0
C291 C 0.75655 0.11294 0.09221 0.0
C292 C 0.71386 0.12913 0.0999 0.0
C293 C 0.62307 0.13191 0.08545 0.0
C294 C 0.57797 0.12199 0.06278 0.0
C295 C 0.67047 0.1223 0.07709 0.0
C296 C 0.58373 0.10673 1.03107 0.0
C297 C 0.63039 0.09681 1.02266 0.0
H298 H 0.74048 0.55661 0.41581 0.0
H299 H 0.6607 0.63944 0.3609 0.0
H300 H 0.55779 0.54137 0.36566 0.0
H301 H 0.49001 0.43253 0.38581 0.0
H302 H 0.56876 0.35014 0.44193 0.0
H303 H 0.67229 0.44749 0.43625 0.0
C304 C 0.70062 0.55315 0.4048 0.0
C305 C 0.70843 0.60538 0.38801 0.0
C306 C 0.64126 0.49667 0.40787 0.0
C307 C 0.65613 0.60012 0.37405 0.0
C308 C 0.59717 0.54398 0.37672 0.0
C309 C 0.52981 0.43571 0.39673 0.0
C310 C 0.52153 0.38397 0.41422 0.0
C311 C 0.58915 0.49202 0.39363 0.0
C312 C 0.57367 0.3892 0.42836 0.0
C313 C 0.63298 0.44488 0.42511 0.0
H314 H 0.05086 0.57969 0.72605 0.0
H315 H 0.23954 0.62786 0.71735 0.0
H316 H 0.20212 0.51596 0.71872 0.0
H317 H 0.11564 0.4037 0.7206 0.0
H318 H 0.92677 0.35521 0.72831 0.0
H319 H 0.96444 0.4673 0.72931 0.0
C320 C 0.08378 0.56571 0.72459 0.0
C321 C 0.14788 0.61232 0.72148 0.0
C322 C 0.06194 0.50093 0.72519 0.0
C323 C 0.18986 0.59318 0.71962 0.0
C324 C 0.16856 0.52904 0.72042 0.0
C325 C 0.08277 0.41765 0.72275 0.0
C326 C 0.01849 0.37095 0.72429 0.0
C327 C 0.10467 0.48242 0.72296 0.0
C328 C 0.97655 0.39002 0.72694 0.0
C329 C 0.99801 0.45424 0.7275 0.0
loop_
_geom_bond_atom_site_label_1
_geom_bond_atom_site_label_2
_geom_bond_distance
_geom_bond_site_symmetry_2
_ccdc_geom_bond_type
Cu0 N1 1.999 1_554 S
Cu0 O6 1.974 . S
Cu0 N11 1.985 . S
Cu0 O20 1.959 . S
N1 Cu0 1.999 1_556 S
N1 C3 1.263 . S
N1 C5 1.389 . S
N2 C3 1.358 . S
N2 C4 1.400 . S
C3 N1 1.263 . S
C3 N2 1.358 . S
C3 H9 0.930 1_545 S
C4 N2 1.400 . S
C4 C5 1.351 . S
C4 H21 0.930 . S
C5 N1 1.389 . S
C5 C4 1.351 . S
C5 H10 0.930 . S
O6 Cu0 1.974 . S
O6 C16 1.282 . S
C7 O8 1.261 1_545 S
C7 O20 1.251 . S
O8 C7 1.261 1_565 S
H9 C3 0.930 1_565 S
H10 C5 0.930 . S
N11 Cu0 1.985 . S
N11 C13 1.335 . S
N11 C14 1.390 . S
N12 C13 1.345 . S
N12 C15 1.336 . S
C13 N11 1.335 . S
C13 N12 1.345 . S
C13 H18 0.930 . S
C14 N11 1.390 . S
C14 C15 1.346 . S
C14 H19 0.930 . S
C15 N12 1.336 . S
C15 C14 1.346 . S
C15 H22 0.929 . S
C16 O6 1.282 . S
C16 O17 1.216 1_545 S
O17 C16 1.216 1_565 S
H18 C13 0.930 . S
H19 C14 0.930 . S
O20 Cu0 1.959 . S
O20 C7 1.251 . S
H21 C4 0.930 . S
H22 C15 0.929 . S
Cu23 N24 1.999 . S
Cu23 O29 1.974 . S
Cu23 N34 1.985 . S
Cu23 O43 1.959 . S
N24 Cu23 1.999 . S
N24 C26 1.263 . S
N24 C28 1.389 . S
N25 C26 1.358 . S
N25 C27 1.400 . S
C26 N24 1.263 . S
C26 N25 1.358 . S
C26 H32 0.930 . S
C27 N25 1.400 . S
C27 C28 1.351 . S
C27 H44 0.930 . S
C28 N24 1.389 . S
C28 C27 1.351 . S
C28 H33 0.930 . S
O29 Cu23 1.974 . S
O29 C39 1.282 . S
C30 O31 1.261 . S
C30 O43 1.251 . S
O31 C30 1.261 . S
H32 C26 0.930 . S
H33 C28 0.930 . S
N34 Cu23 1.985 . S
N34 C36 1.335 . S
N34 C37 1.390 . S
N35 C36 1.345 . S
N35 C38 1.336 . S
C36 N34 1.335 . S
C36 N35 1.345 . S
C36 H41 0.930 . S
C37 N34 1.390 . S
C37 C38 1.346 . S
C37 H42 0.930 . S
C38 N35 1.336 . S
C38 C37 1.346 . S
C38 H45 0.929 . S
C39 O29 1.282 . S
C39 O40 1.216 . S
O40 C39 1.216 . S
H41 C36 0.930 . S
H42 C37 0.930 . S
O43 Cu23 1.959 . S
O43 C30 1.251 . S
H44 C27 0.930 . S
H45 C38 0.929 . S
Cu46 N47 1.999 . S
Cu46 O52 1.974 . S
Cu46 N57 1.985 . S
Cu46 O66 1.959 . S
N47 Cu46 1.999 . S
N47 C49 1.263 1_455 S
N47 C51 1.389 . S
N48 C49 1.358 . S
N48 C50 1.400 1_655 S
C49 N47 1.263 1_655 S
C49 N48 1.358 . S
C49 H55 0.930 . S
C50 N48 1.400 1_455 S
C50 C51 1.351 . S
C50 H67 0.930 . S
C51 N47 1.389 . S
C51 C50 1.351 . S
C51 H56 0.930 . S
O52 Cu46 1.974 . S
O52 C62 1.282 1_455 S
C53 O54 1.261 . S
C53 O66 1.251 1_655 S
O54 C53 1.261 . S
H55 C49 0.930 . S
H56 C51 0.930 . S
N57 Cu46 1.985 . S
N57 C59 1.335 . S
N57 C60 1.390 . S
N58 C59 1.345 . S
N58 C61 1.336 . S
C59 N57 1.335 . S
C59 N58 1.345 . S
C59 H64 0.930 . S
C60 N57 1.390 . S
C60 C61 1.346 . S
C60 H65 0.930 . S
C61 N58 1.336 . S
C61 C60 1.346 . S
C61 H68 0.929 . S
C62 O52 1.282 1_655 S
C62 O63 1.216 . S
O63 C62 1.216 . S
H64 C59 0.930 . S
H65 C60 0.930 . S
O66 Cu46 1.959 . S
O66 C53 1.251 1_455 S
H67 C50 0.930 . S
H68 C61 0.929 . S
Cu69 N70 2.001 1_554 S
Cu69 O75 1.982 . S
Cu69 N80 1.984 1_545 S
Cu69 O89 1.951 1_545 S
N70 Cu69 2.001 1_556 S
N70 C72 1.263 . S
N70 C74 1.389 1_545 S
N71 C72 1.358 . S
N71 C73 1.400 . S
C72 N70 1.263 . S
C72 N71 1.358 . S
C72 H78 0.930 . S
C73 N71 1.400 . S
C73 C74 1.351 1_545 S
C73 H90 0.930 . S
C74 N70 1.389 1_565 S
C74 C73 1.351 1_565 S
C74 H79 0.930 . S
O75 Cu69 1.982 . S
O75 C85 1.282 . S
C76 O77 1.261 . S
C76 O89 1.251 1_545 S
O77 C76 1.261 . S
H78 C72 0.930 . S
H79 C74 0.930 . S
N80 Cu69 1.984 1_565 S
N80 C82 1.335 . S
N80 C83 1.390 1_565 S
N81 C82 1.345 . S
N81 C84 1.336 . S
C82 N80 1.335 . S
C82 N81 1.345 . S
C82 H87 0.930 . S
C83 N80 1.390 1_545 S
C83 C84 1.346 1_545 S
C83 H88 0.930 . S
C84 N81 1.336 . S
C84 C83 1.346 1_565 S
C84 H91 0.929 . S
C85 O75 1.282 . S
C85 O86 1.216 . S
O86 C85 1.216 . S
H87 C82 0.930 . S
H88 C83 0.930 . S
O89 Cu69 1.951 1_565 S
O89 C76 1.251 1_565 S
H90 C73 0.930 . S
H91 C84 0.929 . S
Cu92 N93 1.999 . S
Cu92 O98 1.974 . S
Cu92 N103 1.985 . S
Cu92 O112 1.959 . S
N93 Cu92 1.999 . S
N93 C95 1.263 . S
N93 C97 1.389 . S
N94 C95 1.358 . S
N94 C96 1.400 . S
C95 N93 1.263 . S
C95 N94 1.358 . S
C95 H101 0.930 . S
C96 N94 1.400 . S
C96 C97 1.351 . S
C96 H113 0.930 . S
C97 N93 1.389 . S
C97 C96 1.351 . S
C97 H102 0.930 . S
O98 Cu92 1.974 . S
O98 C108 1.282 . S
C99 O100 1.261 . S
C99 O112 1.251 . S
O100 C99 1.261 . S
H101 C95 0.930 . S
H102 C97 0.930 . S
N103 Cu92 1.985 . S
N103 C105 1.335 . S
N103 C106 1.390 . S
N104 C105 1.345 . S
N104 C107 1.336 . S
C105 N103 1.335 . S
C105 N104 1.345 . S
C105 H110 0.930 . S
C106 N103 1.390 . S
C106 C107 1.346 . S
C106 H111 0.930 . S
C107 N104 1.336 . S
C107 C106 1.346 . S
C107 H114 0.929 . S
C108 O98 1.282 . S
C108 O109 1.216 . S
O109 C108 1.216 . S
H110 C105 0.930 . S
H111 C106 0.930 . S
O112 Cu92 1.959 . S
O112 C99 1.251 . S
H113 C96 0.930 . S
H114 C107 0.929 . S
Cu115 N116 1.999 . S
Cu115 O121 1.974 . S
Cu115 N126 1.985 . S
Cu115 O135 1.959 . S
N116 Cu115 1.999 . S
N116 C118 1.263 . S
N116 C120 1.389 . S
N117 C118 1.358 . S
N117 C119 1.400 . S
C118 N116 1.263 . S
C118 N117 1.358 . S
C118 H124 0.930 . S
C119 N117 1.400 . S
C119 C120 1.351 . S
C119 H136 0.930 . S
C120 N116 1.389 . S
C120 C119 1.351 . S
C120 H125 0.930 . S
O121 Cu115 1.974 . S
O121 C131 1.282 . S
C122 O123 1.261 . S
C122 O135 1.251 . S
O123 C122 1.261 . S
H124 C118 0.930 . S
H125 C120 0.930 . S
N126 Cu115 1.985 . S
N126 C128 1.335 . S
N126 C129 1.390 . S
N127 C128 1.345 . S
N127 C130 1.336 . S
C128 N126 1.335 . S
C128 N127 1.345 . S
C128 H133 0.930 . S
C129 N126 1.390 . S
C129 C130 1.346 . S
C129 H134 0.930 . S
C130 N127 1.336 . S
C130 C129 1.346 . S
C130 H137 0.929 . S
C131 O121 1.282 . S
C131 O132 1.216 . S
O132 C131 1.216 . S
H133 C128 0.930 . S
H134 C129 0.930 . S
O135 Cu115 1.959 . S
O135 C122 1.251 . S
H136 C119 0.930 . S
H137 C130 0.929 . S
H138 C144 0.930 . S
H139 C147 0.930 . S
H140 C148 0.930 . S
H141 C149 0.930 . S
H142 C152 0.930 . S
H143 C153 0.930 . S
C144 H138 0.930 . S
C144 C145 1.355 . S
C144 C146 1.415 . S
C145 C144 1.355 . S
C145 C147 1.419 . S
C146 C144 1.415 . S
C146 C151 1.425 . S
C146 C153 1.409 . S
C147 H139 0.930 . S
C147 C145 1.419 . S
C147 C148 1.362 . S
C148 H140 0.930 . S
C148 C147 1.362 . S
C148 C151 1.409 . S
C149 H141 0.930 . S
C149 C150 1.355 . S
C149 C151 1.415 . S
C150 C149 1.355 . S
C150 C152 1.419 . S
C151 C146 1.425 . S
C151 C148 1.409 . S
C151 C149 1.415 . S
C152 H142 0.930 . S
C152 C150 1.419 . S
C152 C153 1.362 . S
C153 H143 0.930 . S
C153 C146 1.409 . S
C153 C152 1.362 . S
H154 C160 0.930 . S
H155 C163 0.930 . S
H156 C164 0.930 . S
H157 C165 0.930 . S
H158 C168 0.930 . S
H159 C169 0.930 . S
C160 H154 0.930 . S
C160 C161 1.355 . S
C160 C162 1.415 . S
C161 C160 1.355 . S
C161 C163 1.419 . S
C162 C160 1.415 . S
C162 C167 1.425 . S
C162 C169 1.409 . S
C163 H155 0.930 . S
C163 C161 1.419 . S
C163 C164 1.362 . S
C164 H156 0.930 . S
C164 C163 1.362 . S
C164 C167 1.409 . S
C165 H157 0.930 . S
C165 C166 1.355 . S
C165 C167 1.415 . S
C166 C165 1.355 . S
C166 C168 1.419 . S
C167 C162 1.425 . S
C167 C164 1.409 . S
C167 C165 1.415 . S
C168 H158 0.930 . S
C168 C166 1.419 . S
C168 C169 1.362 . S
C169 H159 0.930 . S
C169 C162 1.409 . S
C169 C168 1.362 . S
H170 C176 0.930 . S
H171 C179 0.930 . S
H172 C180 0.930 . S
H173 C181 0.930 . S
H174 C184 0.930 . S
H175 C185 0.930 . S
C176 H170 0.930 . S
C176 C177 1.355 . S
C176 C178 1.415 . S
C177 C176 1.355 . S
C177 C179 1.419 . S
C178 C176 1.415 . S
C178 C183 1.425 . S
C178 C185 1.409 . S
C179 H171 0.930 . S
C179 C177 1.419 . S
C179 C180 1.362 . S
C180 H172 0.930 . S
C180 C179 1.362 . S
C180 C183 1.409 . S
C181 H173 0.930 . S
C181 C182 1.355 . S
C181 C183 1.415 . S
C182 C181 1.355 . S
C182 C184 1.419 . S
C183 C178 1.425 . S
C183 C180 1.409 . S
C183 C181 1.415 . S
C184 H174 0.930 . S
C184 C182 1.419 . S
C184 C185 1.362 . S
C185 H175 0.930 . S
C185 C178 1.409 . S
C185 C184 1.362 . S
H186 C192 0.930 . S
H187 C195 0.930 . S
H188 C196 0.930 . S
H189 C197 0.930 . S
H190 C200 0.930 . S
H191 C201 0.930 . S
C192 H186 0.930 . S
C192 C193 1.355 . S
C192 C194 1.415 . S
C193 C192 1.355 . S
C193 C195 1.419 . S
C194 C192 1.415 . S
C194 C199 1.425 . S
C194 C201 1.409 . S
C195 H187 0.930 . S
C195 C193 1.419 . S
C195 C196 1.362 . S
C196 H188 0.930 . S
C196 C195 1.362 . S
C196 C199 1.409 . S
C197 H189 0.930 . S
C197 C198 1.355 . S
C197 C199 1.415 . S
C198 C197 1.355 . S
C198 C200 1.419 . S
C199 C194 1.425 . S
C199 C196 1.409 . S
C199 C197 1.415 . S
C200 H190 0.930 . S
C200 C198 1.419 . S
C200 C201 1.362 . S
C201 H191 0.930 . S
C201 C194 1.409 . S
C201 C200 1.362 . S
H202 C208 0.930 . S
H203 C211 0.930 1_655 S
H204 C212 0.930 . S
H205 C213 0.930 . S
H206 C216 0.930 . S
H207 C217 0.930 . S
C208 H202 0.930 . S
C208 C209 1.355 . S
C208 C210 1.415 . S
C209 C208 1.355 . S
C209 C211 1.419 . S
C210 C208 1.415 . S
C210 C215 1.425 1_455 S
C210 C217 1.409 . S
C211 H203 0.930 1_455 S
C211 C209 1.419 . S
C211 C212 1.362 1_455 S
C212 H204 0.930 . S
C212 C211 1.362 1_655 S
C212 C215 1.409 . S
C213 H205 0.930 . S
C213 C214 1.355 . S
C213 C215 1.415 . S
C214 C213 1.355 . S
C214 C216 1.419 1_655 S
C215 C210 1.425 1_655 S
C215 C212 1.409 . S
C215 C213 1.415 . S
C216 H206 0.930 . S
C216 C214 1.419 1_455 S
C216 C217 1.362 . S
C217 H207 0.930 . S
C217 C210 1.409 . S
C217 C216 1.362 . S
H218 C224 0.930 1_545 S
H219 C227 0.930 . S
H220 C228 0.930 . S
H221 C229 0.930 . S
H222 C232 0.930 . S
H223 C233 0.930 1_545 S
C224 H218 0.930 1_565 S
C224 C225 1.355 . S
C224 C226 1.415 . S
C225 C224 1.355 . S
C225 C227 1.419 . S
C226 C224 1.415 . S
C226 C231 1.425 . S
C226 C233 1.409 . S
C227 H219 0.930 . S
C227 C225 1.419 . S
C227 C228 1.362 . S
C228 H220 0.930 . S
C228 C227 1.362 . S
C228 C231 1.409 . S
C229 H221 0.930 . S
C229 C230 1.355 . S
C229 C231 1.415 . S
C230 C229 1.355 . S
C230 C232 1.419 . S
C231 C226 1.425 . S
C231 C228 1.409 . S
C231 C229 1.415 . S
C232 H222 0.930 . S
C232 C230 1.419 . S
C232 C233 1.362 . S
C233 H223 0.930 1_565 S
C233 C226 1.409 . S
C233 C232 1.362 . S
H234 C240 0.930 . S
H235 C243 0.930 . S
H236 C244 0.930 . S
H237 C245 0.930 1_655 S
H238 C248 0.930 . S
H239 C249 0.930 1_556 S
C240 H234 0.930 . S
C240 C241 1.355 . S
C240 C242 1.415 . S
C241 C240 1.355 . S
C241 C243 1.419 1_545 S
C242 C240 1.415 . S
C242 C247 1.425 . S
C242 C249 1.409 . S
C243 H235 0.930 . S
C243 C241 1.419 1_565 S
C243 C244 1.362 . S
C244 H236 0.930 . S
C244 C243 1.362 . S
C244 C247 1.409 1_565 S
C245 H237 0.930 1_455 S
C245 C246 1.355 1_565 S
C245 C247 1.415 1_565 S
C246 C245 1.355 1_545 S
C246 C248 1.419 . S
C247 C242 1.425 . S
C247 C244 1.409 1_545 S
C247 C245 1.415 1_545 S
C248 H238 0.930 . S
C248 C246 1.419 . S
C248 C249 1.362 . S
C249 H239 0.930 1_554 S
C249 C242 1.409 . S
C249 C248 1.362 . S
H250 C256 0.930 1_645 S
H251 C259 0.930 1_655 S
H252 C260 0.930 . S
H253 C261 0.930 . S
H254 C264 0.930 . S
H255 C265 0.930 . S
C256 H250 0.930 1_465 S
C256 C257 1.355 1_455 S
C256 C258 1.415 1_565 S
C257 C256 1.355 1_655 S
C257 C259 1.419 1_655 S
C258 C256 1.415 1_545 S
C258 C263 1.425 . S
C258 C265 1.409 . S
C259 H251 0.930 1_455 S
C259 C257 1.419 1_455 S
C259 C260 1.362 . S
C260 H252 0.930 . S
C260 C259 1.362 . S
C260 C263 1.409 1_565 S
C261 H253 0.930 . S
C261 C262 1.355 . S
C261 C263 1.415 . S
C262 C261 1.355 . S
C262 C264 1.419 . S
C263 C258 1.425 . S
C263 C260 1.409 1_545 S
C263 C261 1.415 . S
C264 H254 0.930 . S
C264 C262 1.419 . S
C264 C265 1.362 . S
C265 H255 0.930 . S
C265 C258 1.409 . S
C265 C264 1.362 . S
H266 C272 0.930 1_665 S
H267 C275 0.930 . S
H268 C276 0.930 . S
H269 C277 0.930 . S
H270 C280 0.930 . S
H271 C281 0.930 . S
C272 H266 0.930 1_445 S
C272 C273 1.355 . S
C272 C274 1.415 . S
C273 C272 1.355 . S
C273 C275 1.419 . S
C274 C272 1.415 . S
C274 C279 1.425 . S
C274 C281 1.409 1_545 S
C275 H267 0.930 . S
C275 C273 1.419 . S
C275 C276 1.362 . S
C276 H268 0.930 . S
C276 C275 1.362 . S
C276 C279 1.409 . S
C277 H269 0.930 . S
C277 C278 1.355 1_545 S
C277 C279 1.415 . S
C278 C277 1.355 1_565 S
C278 C280 1.419 . S
C279 C274 1.425 . S
C279 C276 1.409 . S
C279 C277 1.415 . S
C280 H270 0.930 . S
C280 C278 1.419 . S
C280 C281 1.362 . S
C281 H271 0.930 . S
C281 C274 1.409 1_565 S
C281 C280 1.362 . S
H282 C288 0.930 . S
H283 C291 0.943 . S
H284 C292 0.930 . S
H285 C293 0.930 . S
H286 C296 0.930 . S
H287 C297 0.930 . S
C288 H282 0.930 . S
C288 C289 1.355 1_556 S
C288 C290 1.414 1_556 S
C289 C288 1.355 1_554 S
C289 C291 1.419 . S
C290 C288 1.414 1_554 S
C290 C295 1.428 . S
C290 C297 1.406 1_554 S
C291 H283 0.943 . S
C291 C289 1.419 . S
C291 C292 1.362 1_545 S
C292 H284 0.930 . S
C292 C291 1.362 1_565 S
C292 C295 1.409 1_565 S
C293 H285 0.930 . S
C293 C294 1.355 1_565 S
C293 C295 1.415 1_565 S
C294 C293 1.355 1_545 S
C294 C296 1.419 1_554 S
C295 C290 1.428 . S
C295 C292 1.409 1_545 S
C295 C293 1.415 1_545 S
C296 H286 0.930 . S
C296 C294 1.419 1_556 S
C296 C297 1.362 . S
C297 H287 0.930 . S
C297 C290 1.406 1_556 S
C297 C296 1.362 . S
H298 C304 0.930 . S
H299 C307 0.930 . S
H300 C308 0.930 . S
H301 C309 0.930 . S
H302 C312 0.930 . S
H303 C313 0.930 . S
C304 H298 0.930 . S
C304 C305 1.355 . S
C304 C306 1.415 . S
C305 C304 1.355 . S
C305 C307 1.419 . S
C306 C304 1.415 . S
C306 C311 1.425 . S
C306 C313 1.409 . S
C307 H299 0.930 . S
C307 C305 1.419 . S
C307 C308 1.362 . S
C308 H300 0.930 . S
C308 C307 1.362 . S
C308 C311 1.409 . S
C309 H301 0.930 . S
C309 C310 1.355 . S
C309 C311 1.415 . S
C310 C309 1.355 . S
C310 C312 1.419 . S
C311 C306 1.425 . S
C311 C308 1.409 . S
C311 C309 1.415 . S
C312 H302 0.930 . S
C312 C310 1.419 . S
C312 C313 1.362 . S
C313 H303 0.930 . S
C313 C306 1.409 . S
C313 C312 1.362 . S
H314 C320 0.930 . S
H315 C323 0.930 . S
H316 C324 0.930 . S
H317 C325 0.930 . S
H318 C328 0.930 1_655 S
H319 C329 0.930 . S
C320 H314 0.930 . S
C320 C321 1.355 . S
C320 C322 1.415 . S
C321 C320 1.355 . S
C321 C323 1.419 . S
C322 C320 1.415 . S
C322 C327 1.425 . S
C322 C329 1.409 . S
C323 H315 0.930 . S
C323 C321 1.419 . S
C323 C324 1.362 . S
C324 H316 0.930 . S
C324 C323 1.362 . S
C324 C327 1.409 . S
C325 H317 0.930 . S
C325 C326 1.355 . S
C325 C327 1.415 . S
C326 C325 1.355 . S
C326 C328 1.419 . S
C327 C322 1.425 . S
C327 C324 1.409 . S
C327 C325 1.415 . S
C328 H318 0.930 1_455 S
C328 C326 1.419 . S
C328 C329 1.362 . S
C329 H319 0.930 . S
C329 C322 1.409 . S
C329 C328 1.362 . S
C145 N12 1.693 . S
C150 N25 1.578 . S
C161 N35 1.622 . S
C166 N58 1.634 . S
C177 N71 1.673 . S
C182 N48 1.696 . S
C193 N81 1.708 . S
C198 N94 1.632 . S
C209 N127 1.634 . S
C214 N104 1.645 . S
C225 N2 1.703 1_565 S
C230 N117 1.658 . S
C241 C7 1.749 . S
C246 C76 1.735 1_455 S
C257 C99 0.230 . S
C262 C30 0.278 . S
C273 C53 1.607 1_455 S
C278 C122 1.611 . S
C289 C85 1.754 . S
C294 C16 1.781 . S
C305 C108 1.296 . S
C310 C39 1.257 . S
C321 C131 2.090 . S
C326 C62 2.109 1_455 S
