# Generated by pormake.
# Topology mdf, (4)-cn, num edge types: 1
# Building blocks:
#     Node 0, Type 0, BuildingBlock: AZAVOO_clean_sbu_0, # of connection points: 4
#     Node 1, Type 0, BuildingBlock: AZAVOO_clean_sbu_0, # of connection points: 4
#     Node 2, Type 0, BuildingBlock: AZAVOO_clean_sbu_0, # of connection points: 4
#     Node 3, Type 0, BuildingBlock: AZAVOO_clean_sbu_0, # of connection points: 4
#     Node 4, Type 0, BuildingBlock: AZAVOO_clean_sbu_0, # of connection points: 4
#     Node 5, Type 0, BuildingBlock: AZAVOO_clean_sbu_0, # of connection points: 4
#     Node 6, Type 0, BuildingBlock: AZAVOO_clean_sbu_0, # of connection points: 4
#     Node 7, Type 0, BuildingBlock: AZAVOO_clean_sbu_0, # of connection points: 4
#     Edge 8, Type (0, 0), BuildingBlock: TEMPAE_clean_linker_10, # of connection points: 2
#     Edge 9, Type (0, 0), BuildingBlock: TEMPAE_clean_linker_10, # of connection points: 2
#     Edge 10, Type (0, 0), BuildingBlock: TEMPAE_clean_linker_10, # of connection points: 2
#     Edge 11, Type (0, 0), BuildingBlock: TEMPAE_clean_linker_10, # of connection points: 2
#     Edge 12, Type (0, 0), BuildingBlock: TEMPAE_clean_linker_10, # of connection points: 2
#     Edge 13, Type (0, 0), BuildingBlock: TEMPAE_clean_linker_10, # of connection points: 2
#     Edge 14, Type (0, 0), BuildingBlock: TEMPAE_clean_linker_10, # of connection points: 2
#     Edge 15, Type (0, 0), BuildingBlock: TEMPAE_clean_linker_10, # of connection points: 2
#     Edge 16, Type (0, 0), BuildingBlock: TEMPAE_clean_linker_10, # of connection points: 2
#     Edge 17, Type (0, 0), BuildingBlock: TEMPAE_clean_linker_10, # of connection points: 2
#     Edge 18, Type (0, 0), BuildingBlock: TEMPAE_clean_linker_10, # of connection points: 2
#     Edge 19, Type (0, 0), BuildingBlock: TEMPAE_clean_linker_10, # of connection points: 2
#     Edge 20, Type (0, 0), BuildingBlock: TEMPAE_clean_linker_10, # of connection points: 2
#     Edge 21, Type (0, 0), BuildingBlock: TEMPAE_clean_linker_10, # of connection points: 2
#     Edge 22, Type (0, 0), BuildingBlock: TEMPAE_clean_linker_10, # of connection points: 2
#     Edge 23, Type (0, 0), BuildingBlock: TEMPAE_clean_linker_10, # of connection points: 2
# Relax obj value: 0.038
# Max RMSD: 0.047
# Mean RMSD: 0.047
data_MOF--net-mdf--node1-AZAVOO_clean_sbu_0--edge1-TEMPAE_clean_linker_10
_symmetry_space_group_name_H-M    P1
_symmetry_Int_Tables_number       1
_symmetry_cell_setting            triclinic
loop_
_symmetry_equiv_pos_as_xyz
'x, y, z'
_cell_length_a     34.49924
_cell_length_b     34.50552
_cell_length_c     16.061496
_cell_angle_alpha  89.914702
_cell_angle_beta   89.987955
_cell_angle_gamma 95.474094
loop_
_atom_site_label
_atom_site_type_symbol
_atom_site_fract_x
_atom_site_fract_y
_atom_site_fract_z
_atom_type_partial_charge
Mg0 Mg 0.29112 0.57644 0.43621 0.0
O1 O 0.24642 0.5332 0.37146 0.0
O2 O 0.27581 0.50765 0.26353 0.0
Mg3 Mg 0.33909 0.53503 0.25899 0.0
C4 C 0.24576 0.51034 0.30892 0.0
C5 C 0.25343 0.62606 0.56398 0.0
O6 O 0.29008 0.64047 0.56621 0.0
O7 O 0.28433 0.62149 0.33372 0.0
O8 O 0.31857 0.5953 0.23346 0.0
O9 O 0.3107 0.52814 0.51368 0.0
O10 O 0.33675 0.54634 0.39271 0.0
C11 C 0.29959 0.62257 0.26133 0.0
C12 C 0.33507 0.52255 0.45462 0.0
O13 O 0.2433 0.59898 0.51285 0.0
Mg14 Mg 0.40531 0.70045 0.5697 0.0
O15 O 0.4511 0.74424 0.62924 0.0
O16 O 0.47936 0.71442 0.73324 0.0
Mg17 Mg 0.45152 0.65146 0.74037 0.0
C18 C 0.47575 0.74453 0.68856 0.0
C19 C 0.35961 0.73992 0.43632 0.0
O20 O 0.34818 0.70297 0.42366 0.0
O21 O 0.36367 0.70765 0.67834 0.0
O22 O 0.39241 0.67258 0.77374 0.0
O23 O 0.45064 0.68027 0.48526 0.0
O24 O 0.43606 0.65468 0.6091 0.0
C25 C 0.36461 0.69199 0.75023 0.0
C26 C 0.45788 0.65642 0.54415 0.0
O27 O 0.3824 0.74921 0.49654 0.0
Mg28 Mg 0.24863 0.96957 0.86821 0.0
O29 O 0.298 0.0114 0.81107 0.0
O30 O 0.26855 0.04676 0.71778 0.0
Mg31 Mg 0.20341 0.02831 0.71322 0.0
C32 C 0.29912 0.03832 0.75596 0.0
C33 C 0.27476 0.92646 0.0091 0.0
O34 O 0.24087 0.93934 0.02461 0.0
O35 O 0.24569 0.93034 0.75276 0.0
O36 O 0.21516 0.96773 0.66558 0.0
O37 O 0.23802 0.01481 0.96221 0.0
O38 O 0.20734 0.00835 0.84182 0.0
C39 C 0.23011 0.93608 0.68213 0.0
C40 C 0.21318 0.02708 0.91062 0.0
O41 O 0.29018 0.93355 0.93802 0.0
Mg42 Mg 0.03439 0.7544 0.13205 0.0
O43 O 0.99306 0.70619 0.19461 0.0
O44 O 0.95807 0.7376 0.28527 0.0
Mg45 Mg 0.97637 0.80271 0.28295 0.0
C46 C 0.96647 0.70627 0.25024 0.0
C47 C 0.07736 0.72672 0.99392 0.0
O48 O 0.06505 0.76079 0.97737 0.0
O49 O 0.07398 0.7595 0.24667 0.0
O50 O 0.03694 0.7913 0.33202 0.0
O51 O 0.98888 0.762 0.03752 0.0
O52 O 0.99513 0.79576 0.15422 0.0
C53 C 0.06842 0.77591 0.31636 0.0
C54 C 0.97608 0.78758 0.08647 0.0
O55 O 0.07024 0.71187 0.06556 0.0
Mg56 Mg 0.74854 0.02203 0.84773 0.0
O57 O 0.69764 0.98194 0.79301 0.0
O58 O 0.72425 0.94735 0.69436 0.0
Mg59 Mg 0.78949 0.96508 0.68474 0.0
C60 C 0.69481 0.95574 0.73651 0.0
C61 C 0.72611 0.06423 0.99197 0.0
O62 O 0.76041 0.05138 0.00283 0.0
O63 O 0.75012 0.06298 0.73563 0.0
O64 O 0.77868 0.02705 0.64256 0.0
O65 O 0.7593 0.97558 0.93774 0.0
O66 O 0.78863 0.98277 0.81567 0.0
C67 C 0.76458 0.05861 0.66344 0.0
C68 C 0.78308 0.96327 0.88386 0.0
O69 O 0.70888 0.05755 0.92272 0.0
Mg70 Mg 0.96302 0.2428 0.13649 0.0
O71 O 0.00468 0.29299 0.19074 0.0
O72 O 0.04008 0.26483 0.28599 0.0
Mg73 Mg 0.02148 0.19986 0.29528 0.0
C74 C 0.03169 0.29483 0.24565 0.0
C75 C 0.9203 0.26767 0.99271 0.0
O76 O 0.93306 0.23362 0.97833 0.0
O77 O 0.92341 0.24133 0.25158 0.0
O78 O 0.96068 0.21216 0.34122 0.0
O79 O 0.00862 0.23172 0.04408 0.0
O80 O 0.00218 0.2021 0.16591 0.0
C81 C 0.92901 0.22678 0.32334 0.0
C82 C 0.02129 0.20786 0.0974 0.0
O83 O 0.92723 0.28342 0.06347 0.0
Mg84 Mg 0.70485 0.42134 0.44464 0.0
O85 O 0.74941 0.46926 0.393 0.0
O86 O 0.71808 0.50375 0.30126 0.0
Mg87 Mg 0.65394 0.47989 0.29662 0.0
C88 C 0.74907 0.49685 0.33986 0.0
C89 C 0.74279 0.36592 0.56037 0.0
O90 O 0.70543 0.35603 0.57175 0.0
O91 O 0.7078 0.38691 0.32237 0.0
O92 O 0.67141 0.4228 0.24342 0.0
O93 O 0.68705 0.46111 0.54579 0.0
O94 O 0.66029 0.45633 0.42098 0.0
C95 C 0.6901 0.39297 0.25433 0.0
C96 C 0.66295 0.47319 0.49221 0.0
O97 O 0.75322 0.39144 0.50569 0.0
Mg98 Mg 0.58831 0.28837 0.54364 0.0
O99 O 0.54278 0.24588 0.60911 0.0
O100 O 0.51411 0.27893 0.70729 0.0
Mg101 Mg 0.5419 0.34196 0.70623 0.0
C102 C 0.51796 0.24742 0.66776 0.0
C103 C 0.63909 0.2471 0.424 0.0
O104 O 0.65234 0.28386 0.41497 0.0
O105 O 0.63013 0.28497 0.65363 0.0
O106 O 0.60031 0.3211 0.74518 0.0
O107 O 0.54216 0.30562 0.45694 0.0
O108 O 0.55769 0.3353 0.57566 0.0
C109 C 0.62836 0.3015 0.72437 0.0
C110 C 0.53543 0.33177 0.5114 0.0
O111 O 0.61255 0.23822 0.47736 0.0
C112 C 0.32397 0.73043 0.84193 0.0
C113 C 0.33258 0.69459 0.80954 0.0
C114 C 0.3036 0.73181 0.91772 0.0
C115 C 0.29374 0.69686 0.96241 0.0
C116 C 0.29641 0.66073 0.92192 0.0
C117 C 0.31611 0.6601 0.84602 0.0
C118 C 0.29524 0.77053 0.9527 0.0
C119 C 0.28349 0.62241 0.9637 0.0
C120 C 0.33059 0.67372 0.17041 0.0
C121 C 0.29642 0.65606 0.206 0.0
C122 C 0.32952 0.6944 0.0957 0.0
C123 C 0.29326 0.6966 0.05515 0.0
C124 C 0.25839 0.68521 0.09913 0.0
C125 C 0.26033 0.66451 0.17451 0.0
C126 C 0.36769 0.70823 0.05436 0.0
C127 C 0.21924 0.69274 0.06438 0.0
H128 H 0.33563 0.75721 0.81196 0.0
H129 H 0.32182 0.6324 0.81902 0.0
H130 H 0.26762 0.76773 0.98866 0.0
H131 H 0.31908 0.78129 0.99506 0.0
H132 H 0.29329 0.79244 0.9025 0.0
H133 H 0.28273 0.5976 0.91951 0.0
H134 H 0.30396 0.61705 0.01486 0.0
H135 H 0.25407 0.6231 0.9911 0.0
H136 H 0.35847 0.66804 0.1967 0.0
H137 H 0.2338 0.65198 0.20418 0.0
H138 H 0.36652 0.73767 0.02744 0.0
H139 H 0.37353 0.68812 0.00292 0.0
H140 H 0.39248 0.70928 0.09873 0.0
H141 H 0.21412 0.72338 0.07774 0.0
H142 H 0.19524 0.67348 0.0931 0.0
H143 H 0.21818 0.6891 0.99599 0.0
C144 C 0.3695 0.80699 0.37636 0.0
C145 C 0.34899 0.76985 0.37701 0.0
C146 C 0.36121 0.83496 0.31716 0.0
C147 C 0.33137 0.82569 0.2582 0.0
C148 C 0.30993 0.78858 0.25997 0.0
C149 C 0.31934 0.76092 0.31866 0.0
C150 C 0.38404 0.87451 0.3183 0.0
C151 C 0.27717 0.77796 0.19955 0.0
C152 C 0.27902 0.9044 0.15565 0.0
C153 C 0.293 0.90364 0.07369 0.0
C154 C 0.2926 0.88055 0.21747 0.0
C155 C 0.32098 0.85516 0.19684 0.0
C156 C 0.33707 0.85595 0.11556 0.0
C157 C 0.32279 0.88021 0.05457 0.0
C158 C 0.27636 0.8832 0.3045 0.0
C159 C 0.36943 0.83129 0.09341 0.0
H160 H 0.39252 0.81406 0.42131 0.0
H161 H 0.30329 0.73232 0.31906 0.0
H162 H 0.39568 0.88211 0.25535 0.0
H163 H 0.36448 0.89687 0.33591 0.0
H164 H 0.40867 0.8759 0.3631 0.0
H165 H 0.25985 0.75036 0.21691 0.0
H166 H 0.25728 0.80136 0.1961 0.0
H167 H 0.28955 0.77464 0.13666 0.0
H168 H 0.25688 0.92341 0.1717 0.0
H169 H 0.33422 0.88008 0.99171 0.0
H170 H 0.29324 0.90739 0.33782 0.0
H171 H 0.27804 0.85627 0.34144 0.0
H172 H 0.24558 0.89003 0.30261 0.0
H173 H 0.39606 0.84172 0.1286 0.0
H174 H 0.37637 0.83245 0.02586 0.0
H175 H 0.36161 0.80052 0.1118 0.0
C176 C 0.13945 0.77896 0.35454 0.0
C177 C 0.10059 0.78184 0.37781 0.0
C178 C 0.1703 0.79423 0.40577 0.0
C179 C 0.1619 0.81327 0.48082 0.0
C180 C 0.12291 0.81135 0.50937 0.0
C181 C 0.09279 0.79562 0.45759 0.0
C182 C 0.2114 0.7929 0.37501 0.0
C183 C 0.11253 0.82959 0.59085 0.0
C184 C 0.22647 0.86492 0.64464 0.0
C185 C 0.22388 0.9038 0.62101 0.0
C186 C 0.21052 0.83407 0.59418 0.0
C187 C 0.19101 0.84248 0.51963 0.0
C188 C 0.19282 0.88145 0.49092 0.0
C189 C 0.20944 0.91153 0.54166 0.0
C190 C 0.21171 0.79296 0.62511 0.0
C191 C 0.17314 0.89203 0.41112 0.0
H192 H 0.14594 0.76738 0.29393 0.0
H193 H 0.06288 0.79665 0.47752 0.0
H194 H 0.2334 0.79938 0.42472 0.0
H195 H 0.21511 0.76375 0.34863 0.0
H196 H 0.21689 0.81437 0.32392 0.0
H197 H 0.08144 0.82233 0.60765 0.0
H198 H 0.13082 0.81965 0.64191 0.0
H199 H 0.11824 0.86174 0.58635 0.0
H200 H 0.2384 0.85846 0.70498 0.0
H201 H 0.20837 0.94141 0.52154 0.0
H202 H 0.20602 0.77108 0.57493 0.0
H203 H 0.18949 0.78722 0.6746 0.0
H204 H 0.24051 0.78933 0.65345 0.0
H205 H 0.17985 0.87225 0.35992 0.0
H206 H 0.18211 0.92247 0.39157 0.0
H207 H 0.1411 0.88889 0.42034 0.0
C208 C 0.12167 0.67694 0.94899 0.0
C209 C 0.09901 0.70729 0.92931 0.0
C210 C 0.14456 0.66106 0.88771 0.0
C211 C 0.14443 0.67581 0.8053 0.0
C212 C 0.12019 0.70516 0.78447 0.0
C213 C 0.09783 0.72052 0.84674 0.0
C214 C 0.16934 0.62895 0.91113 0.0
C215 C 0.11802 0.72069 0.69666 0.0
C216 C 0.23552 0.67133 0.67551 0.0
C217 C 0.22499 0.63945 0.62364 0.0
C218 C 0.20931 0.68357 0.73429 0.0
C219 C 0.17199 0.66299 0.74249 0.0
C220 C 0.16098 0.63108 0.68973 0.0
C221 C 0.18761 0.61974 0.63063 0.0
C222 C 0.22165 0.71842 0.78802 0.0
C223 C 0.1211 0.60907 0.69545 0.0
H224 H 0.12235 0.66639 0.01252 0.0
H225 H 0.07966 0.74337 0.83065 0.0
H226 H 0.15905 0.60196 0.87717 0.0
H227 H 0.20002 0.63687 0.89234 0.0
H228 H 0.16839 0.6226 0.97896 0.0
H229 H 0.10308 0.74779 0.69386 0.0
H230 H 0.14746 0.72664 0.66915 0.0
H231 H 0.10165 0.69847 0.65708 0.0
H232 H 0.26428 0.6868 0.67027 0.0
H233 H 0.17926 0.59509 0.59058 0.0
H234 H 0.22505 0.70865 0.85309 0.0
H235 H 0.19905 0.73921 0.78812 0.0
H236 H 0.24949 0.73409 0.76678 0.0
H237 H 0.11586 0.59767 0.75947 0.0
H238 H 0.11742 0.58432 0.65107 0.0
H239 H 0.09846 0.629 0.68227 0.0
C240 C 0.76714 0.13057 0.63439 0.0
C241 C 0.77111 0.09259 0.60641 0.0
C242 C 0.78353 0.16315 0.5894 0.0
C243 C 0.8047 0.15744 0.51552 0.0
C244 C 0.80435 0.1194 0.48205 0.0
C245 C 0.78734 0.08757 0.52758 0.0
C246 C 0.78099 0.20297 0.62619 0.0
C247 C 0.8263 0.11142 0.40342 0.0
C248 C 0.85783 0.22543 0.36096 0.0
C249 C 0.89646 0.22106 0.38423 0.0
C250 C 0.82646 0.20961 0.41048 0.0
C251 C 0.83414 0.18812 0.48277 0.0
C252 C 0.87282 0.18883 0.51237 0.0
C253 C 0.90347 0.20546 0.46298 0.0
C254 C 0.78526 0.21307 0.38244 0.0
C255 C 0.88228 0.16813 0.59167 0.0
H256 H 0.75379 0.13498 0.69432 0.0
H257 H 0.78964 0.05844 0.50407 0.0
H258 H 0.79858 0.20549 0.68407 0.0
H259 H 0.79129 0.22694 0.58317 0.0
H260 H 0.75042 0.20644 0.64416 0.0
H261 H 0.81638 0.08249 0.37665 0.0
H262 H 0.82301 0.13399 0.3555 0.0
H263 H 0.85779 0.11186 0.4181 0.0
H264 H 0.85197 0.23871 0.30165 0.0
H265 H 0.93314 0.20335 0.48342 0.0
H266 H 0.76754 0.22222 0.43531 0.0
H267 H 0.77186 0.18431 0.36152 0.0
H268 H 0.78393 0.23431 0.33073 0.0
H269 H 0.86213 0.17488 0.64232 0.0
H270 H 0.91266 0.17634 0.61249 0.0
H271 H 0.87859 0.13619 0.58126 0.0
C272 C 0.87648 0.31739 0.94457 0.0
C273 C 0.89809 0.28599 0.92711 0.0
C274 C 0.85332 0.33258 0.88275 0.0
C275 C 0.852 0.31604 0.80194 0.0
C276 C 0.87519 0.28557 0.78319 0.0
C277 C 0.89783 0.27089 0.84599 0.0
C278 C 0.83017 0.36617 0.90388 0.0
C279 C 0.87604 0.26827 0.6969 0.0
C280 C 0.76041 0.32114 0.67348 0.0
C281 C 0.77169 0.35143 0.61779 0.0
C282 C 0.78623 0.3096 0.73403 0.0
C283 C 0.82444 0.32857 0.73845 0.0
C284 C 0.83636 0.35854 0.68113 0.0
C285 C 0.80982 0.36962 0.6214 0.0
C286 C 0.77233 0.27765 0.79444 0.0
C287 C 0.87678 0.37953 0.68412 0.0
H288 H 0.87696 0.32949 0.00684 0.0
H289 H 0.91516 0.24718 0.83143 0.0
H290 H 0.84245 0.39259 0.87009 0.0
H291 H 0.79958 0.35991 0.88325 0.0
H292 H 0.83052 0.37264 0.97163 0.0
H293 H 0.89187 0.24175 0.69524 0.0
H294 H 0.8461 0.26089 0.67325 0.0
H295 H 0.89068 0.28999 0.65347 0.0
H296 H 0.73115 0.3067 0.67045 0.0
H297 H 0.8187 0.39321 0.5788 0.0
H298 H 0.77102 0.28998 0.85804 0.0
H299 H 0.79311 0.25504 0.79634 0.0
H300 H 0.74303 0.26356 0.77811 0.0
H301 H 0.88075 0.39581 0.74348 0.0
H302 H 0.88229 0.40038 0.63172 0.0
H303 H 0.89903 0.35839 0.68238 0.0
C304 C 0.65594 0.36038 0.13519 0.0
C305 C 0.68935 0.36486 0.18497 0.0
C306 C 0.65552 0.34008 0.06014 0.0
C307 C 0.6896 0.32382 0.03354 0.0
C308 C 0.72234 0.32499 0.08711 0.0
C309 C 0.72189 0.34565 0.16285 0.0
C310 C 0.61919 0.33831 0.00699 0.0
C311 C 0.7583 0.30621 0.0623 0.0
C312 C 0.65696 0.26848 0.84281 0.0
C313 C 0.65936 0.29935 0.78601 0.0
C314 C 0.67308 0.27366 0.92278 0.0
C315 C 0.69138 0.31063 0.94556 0.0
C316 C 0.69945 0.33942 0.88326 0.0
C317 C 0.68287 0.33353 0.8042 0.0
C318 C 0.66481 0.2415 0.9855 0.0
C319 C 0.71933 0.37915 0.90332 0.0
H320 H 0.63033 0.37424 0.15352 0.0
H321 H 0.74758 0.34859 0.20202 0.0
H322 H 0.62535 0.35492 0.94848 0.0
H323 H 0.60976 0.30773 0.98993 0.0
H324 H 0.59462 0.35059 0.03917 0.0
H325 H 0.77954 0.30589 0.11422 0.0
H326 H 0.7503 0.2759 0.04112 0.0
H327 H 0.77259 0.32231 0.00917 0.0
H328 H 0.63868 0.24198 0.82854 0.0
H329 H 0.68468 0.35738 0.75983 0.0
H330 H 0.63338 0.23903 0.00165 0.0
H331 H 0.68196 0.24662 0.04337 0.0
H332 H 0.67121 0.21327 0.95805 0.0
H333 H 0.69706 0.39837 0.92348 0.0
H334 H 0.73431 0.39252 0.84756 0.0
H335 H 0.74081 0.37791 0.95433 0.0
C336 C 0.67735 0.10773 0.04544 0.0
C337 C 0.70936 0.08647 0.05932 0.0
C338 C 0.66401 0.13141 0.10838 0.0
C339 C 0.68299 0.13345 0.18681 0.0
C340 C 0.71385 0.11026 0.2023 0.0
C341 C 0.72679 0.08735 0.13825 0.0
C342 C 0.62993 0.15453 0.09068 0.0
C343 C 0.73507 0.11058 0.28448 0.0
C344 C 0.68174 0.2271 0.30921 0.0
C345 C 0.652 0.21722 0.36713 0.0
C346 C 0.69234 0.19989 0.25078 0.0
C347 C 0.67258 0.162 0.25002 0.0
C348 C 0.64342 0.15145 0.3099 0.0
C349 C 0.63343 0.17922 0.36782 0.0
C350 C 0.72491 0.21154 0.19029 0.0
C351 C 0.62311 0.11075 0.31317 0.0
H352 H 0.66344 0.10673 0.98487 0.0
H353 H 0.75122 0.07053 0.15012 0.0
H354 H 0.60416 0.14178 0.12601 0.0
H355 H 0.63619 0.18509 0.1117 0.0
H356 H 0.62231 0.15447 0.02347 0.0
H357 H 0.74152 0.08065 0.30157 0.0
H358 H 0.76338 0.12826 0.27702 0.0
H359 H 0.71887 0.12267 0.33647 0.0
H360 H 0.6966 0.25624 0.30897 0.0
H361 H 0.61064 0.17125 0.41286 0.0
H362 H 0.7158 0.20387 0.12573 0.0
H363 H 0.75019 0.1951 0.20481 0.0
H364 H 0.73449 0.24317 0.19311 0.0
H365 H 0.60835 0.10356 0.25304 0.0
H366 H 0.60119 0.10711 0.36395 0.0
H367 H 0.64492 0.08949 0.32276 0.0
C368 C 0.35393 0.46082 0.51846 0.0
C369 C 0.35982 0.48983 0.45732 0.0
C370 C 0.37899 0.43119 0.52494 0.0
C371 C 0.41103 0.43104 0.4699 0.0
C372 C 0.41624 0.45941 0.40609 0.0
C373 C 0.39047 0.48836 0.40038 0.0
C374 C 0.37177 0.4007 0.59209 0.0
C375 C 0.44974 0.45991 0.34531 0.0
C376 C 0.50241 0.39034 0.54864 0.0
C377 C 0.50256 0.35591 0.50258 0.0
C378 C 0.47247 0.4147 0.53936 0.0
C379 C 0.44138 0.40392 0.48396 0.0
C380 C 0.44062 0.36847 0.4394 0.0
C381 C 0.47159 0.3451 0.44832 0.0
C382 C 0.47438 0.45202 0.58895 0.0
C383 C 0.40726 0.35528 0.38219 0.0
H384 H 0.33003 0.46152 0.56208 0.0
H385 H 0.39516 0.51061 0.3528 0.0
H386 H 0.37453 0.37122 0.56651 0.0
H387 H 0.39393 0.40597 0.64183 0.0
H388 H 0.34248 0.4011 0.62062 0.0
H389 H 0.45209 0.48629 0.30517 0.0
H390 H 0.47766 0.45859 0.37901 0.0
H391 H 0.44572 0.43395 0.30457 0.0
H392 H 0.52625 0.3988 0.59081 0.0
H393 H 0.4714 0.31825 0.41332 0.0
H394 H 0.45302 0.44863 0.64064 0.0
H395 H 0.46676 0.47669 0.54985 0.0
H396 H 0.5037 0.45955 0.6162 0.0
H397 H 0.37899 0.35787 0.4137 0.0
H398 H 0.40831 0.32468 0.36155 0.0
H399 H 0.4082 0.37419 0.32623 0.0
C400 C 0.62583 0.93431 0.77883 0.0
C401 C 0.65734 0.93139 0.72455 0.0
C402 C 0.59245 0.90757 0.77474 0.0
C403 C 0.59068 0.87719 0.71528 0.0
C404 C 0.62148 0.87535 0.65767 0.0
C405 C 0.65428 0.90249 0.66281 0.0
C406 C 0.55993 0.91076 0.83648 0.0
C407 C 0.62071 0.84347 0.5931 0.0
C408 C 0.53435 0.77931 0.75695 0.0
C409 C 0.50262 0.78017 0.70254 0.0
C410 C 0.56229 0.81143 0.76442 0.0
C411 C 0.55834 0.84539 0.71677 0.0
C412 C 0.5254 0.84723 0.66496 0.0
C413 C 0.49801 0.81455 0.65818 0.0
C414 C 0.59707 0.80826 0.82029 0.0
C415 C 0.51993 0.88308 0.61394 0.0
H416 H 0.62776 0.95658 0.82656 0.0
H417 H 0.67821 0.90009 0.61998 0.0
H418 H 0.53136 0.90855 0.80426 0.0
H419 H 0.55927 0.88631 0.88153 0.0
H420 H 0.5635 0.93856 0.8717 0.0
H421 H 0.64582 0.84757 0.5496 0.0
H422 H 0.62134 0.81486 0.62448 0.0
H423 H 0.59342 0.84235 0.55634 0.0
H424 H 0.53819 0.75302 0.79175 0.0
H425 H 0.47342 0.8157 0.61653 0.0
H426 H 0.60081 0.83346 0.86327 0.0
H427 H 0.62387 0.80881 0.78189 0.0
H428 H 0.59438 0.78105 0.85777 0.0
H429 H 0.52402 0.90955 0.65329 0.0
H430 H 0.49065 0.88165 0.58466 0.0
H431 H 0.54221 0.88631 0.56397 0.0
C432 C 0.05972 0.15095 0.11625 0.0
C433 C 0.05543 0.18682 0.07819 0.0
C434 C 0.08863 0.12781 0.08969 0.0
C435 C 0.11437 0.14141 0.02499 0.0
C436 C 0.11169 0.17873 0.99007 0.0
C437 C 0.08187 0.20081 0.01637 0.0
C438 C 0.0902 0.08791 0.12764 0.0
C439 C 0.13932 0.19467 0.92271 0.0
C440 C 0.20272 0.08506 0.99769 0.0
C441 C 0.19052 0.05975 0.93261 0.0
C442 C 0.17901 0.11318 0.02601 0.0
C443 C 0.14191 0.11524 0.98962 0.0
C444 C 0.13003 0.09058 0.92205 0.0
C445 C 0.15472 0.06342 0.8937 0.0
C446 C 0.19308 0.13973 0.09659 0.0
C447 C 0.09044 0.09153 0.88234 0.0
H448 H 0.0392 0.14001 0.16383 0.0
H449 H 0.0788 0.22875 0.98738 0.0
H450 H 0.08321 0.06532 0.0794 0.0
H451 H 0.11997 0.0844 0.15064 0.0
H452 H 0.06938 0.08248 0.18009 0.0
H453 H 0.13641 0.22588 0.90952 0.0
H454 H 0.16988 0.19143 0.94082 0.0
H455 H 0.13339 0.17792 0.86447 0.0
H456 H 0.23053 0.08244 0.02756 0.0
H457 H 0.14511 0.04374 0.84367 0.0
H458 H 0.17547 0.13223 0.15314 0.0
H459 H 0.18928 0.17045 0.08072 0.0
H460 H 0.2242 0.1374 0.11165 0.0
H461 H 0.0674 0.08344 0.92917 0.0
H462 H 0.08616 0.07126 0.82874 0.0
H463 H 0.08644 0.12137 0.86044 0.0
C464 C 0.94206 0.63666 0.21987 0.0
C465 C 0.94193 0.66977 0.27053 0.0
C466 C 0.91455 0.60433 0.23179 0.0
C467 C 0.88632 0.60524 0.29566 0.0
C468 C 0.88766 0.63753 0.3501 0.0
C469 C 0.91544 0.66928 0.337 0.0
C470 C 0.91432 0.57019 0.17312 0.0
C471 C 0.85822 0.63967 0.41922 0.0
C472 C 0.78501 0.55403 0.26857 0.0
C473 C 0.78539 0.52255 0.32393 0.0
C474 C 0.81818 0.58019 0.25648 0.0
C475 C 0.85279 0.57479 0.30055 0.0
C476 C 0.85395 0.54231 0.35412 0.0
C477 C 0.8202 0.5166 0.36537 0.0
C478 C 0.81568 0.61452 0.19886 0.0
C479 C 0.89041 0.53546 0.40168 0.0
H480 H 0.96248 0.63665 0.16859 0.0
H481 H 0.91537 0.69444 0.37731 0.0
H482 H 0.91127 0.54235 0.20823 0.0
H483 H 0.88893 0.57008 0.13069 0.0
H484 H 0.94122 0.57139 0.1348 0.0
H485 H 0.86536 0.66513 0.46057 0.0
H486 H 0.82895 0.64189 0.39199 0.0
H487 H 0.85647 0.61281 0.45758 0.0
H488 H 0.75844 0.55887 0.23577 0.0
H489 H 0.82095 0.49226 0.40786 0.0
H490 H 0.8395 0.6158 0.15225 0.0
H491 H 0.81932 0.64196 0.23521 0.0
H492 H 0.78741 0.61324 0.16538 0.0
H493 H 0.91586 0.53703 0.35914 0.0
H494 H 0.88788 0.50677 0.43372 0.0
H495 H 0.89637 0.5586 0.44911 0.0
C496 C 0.33731 0.0917 0.6774 0.0
C497 C 0.33611 0.0629 0.73949 0.0
C498 C 0.37009 0.11848 0.66678 0.0
C499 C 0.40281 0.11644 0.71913 0.0
C500 C 0.40271 0.08633 0.77921 0.0
C501 C 0.3693 0.05992 0.78885 0.0
C502 C 0.36897 0.15007 0.60178 0.0
C503 C 0.43725 0.08297 0.83552 0.0
C504 C 0.49379 0.17723 0.64402 0.0
C505 C 0.49129 0.21219 0.68758 0.0
C506 C 0.46638 0.14494 0.65685 0.0
C507 C 0.43564 0.14771 0.71427 0.0
C508 C 0.43401 0.18223 0.76118 0.0
C509 C 0.46184 0.21396 0.74741 0.0
C510 C 0.46932 0.10852 0.6062 0.0
C511 C 0.40169 0.18639 0.82304 0.0
H512 H 0.31207 0.09417 0.63828 0.0
H513 H 0.36879 0.03775 0.83681 0.0
H514 H 0.37017 0.17891 0.63267 0.0
H515 H 0.39469 0.15041 0.56026 0.0
H516 H 0.34223 0.14629 0.56298 0.0
H517 H 0.43439 0.05555 0.87229 0.0
H518 H 0.46451 0.08422 0.79855 0.0
H519 H 0.44012 0.1079 0.87935 0.0
H520 H 0.51657 0.17535 0.59813 0.0
H521 H 0.45971 0.24064 0.78193 0.0
H522 H 0.44524 0.1053 0.56022 0.0
H523 H 0.46627 0.0824 0.6469 0.0
H524 H 0.49739 0.10919 0.57206 0.0
H525 H 0.37352 0.18616 0.78959 0.0
H526 H 0.40635 0.2138 0.8594 0.0
H527 H 0.39917 0.16146 0.867 0.0
C528 C 0.79344 0.90483 0.96924 0.0
C529 C 0.80552 0.93022 0.90401 0.0
C530 C 0.81753 0.87727 0.99854 0.0
C531 C 0.85483 0.87575 0.9628 0.0
C532 C 0.86635 0.90002 0.89419 0.0
C533 C 0.84132 0.92674 0.86499 0.0
C534 C 0.80382 0.85113 0.07026 0.0
C535 C 0.90608 0.89947 0.8549 0.0
C536 C 0.93682 0.84435 0.09648 0.0
C537 C 0.94197 0.8078 0.0628 0.0
C538 C 0.90788 0.86643 0.06568 0.0
C539 C 0.88304 0.85111 0.00101 0.0
C540 C 0.88671 0.81328 0.97013 0.0
C541 C 0.91646 0.79221 0.0008 0.0
C542 C 0.9051 0.90687 0.09962 0.0
C543 C 0.86009 0.79561 0.90281 0.0
H544 H 0.76559 0.90726 -0.0009 0.0
H545 H 0.85078 0.94644 0.81476 0.0
H546 H 0.80895 0.82051 0.05678 0.0
H547 H 0.82067 0.86004 0.12702 0.0
H548 H 0.77239 0.85243 0.08378 0.0
H549 H 0.90965 0.91848 0.799 0.0
H550 H 0.92885 0.90951 0.90088 0.0
H551 H 0.91119 0.8694 0.83666 0.0
H552 H 0.95662 0.85653 0.14414 0.0
H553 H 0.92021 0.76377 0.97509 0.0
H554 H 0.87513 0.90989 0.12201 0.0
H555 H 0.91145 0.92864 0.04929 0.0
H556 H 0.92575 0.91395 0.1517 0.0
H557 H 0.82921 0.7981 0.91943 0.0
H558 H 0.86408 0.76444 0.89199 0.0
H559 H 0.86595 0.81173 0.84364 0.0
C560 C 0.05418 0.36403 0.20595 0.0
C561 C 0.05678 0.33181 0.25848 0.0
C562 C 0.08135 0.39706 0.21156 0.0
C563 C 0.11186 0.39773 0.27069 0.0
C564 C 0.11352 0.36609 0.32629 0.0
C565 C 0.08595 0.33371 0.31974 0.0
C566 C 0.07834 0.43051 0.152 0.0
C567 C 0.14553 0.36559 0.39039 0.0
C568 C 0.2103 0.45393 0.23408 0.0
C569 C 0.20976 0.48442 0.2917 0.0
C570 C 0.17785 0.4266 0.22367 0.0
C571 C 0.14383 0.42995 0.27147 0.0
C572 C 0.14228 0.46184 0.32629 0.0
C573 C 0.17531 0.48858 0.33608 0.0
C574 C 0.18077 0.39293 0.16474 0.0
C575 C 0.10638 0.46672 0.37751 0.0
H576 H 0.03174 0.36298 0.15857 0.0
H577 H 0.08814 0.30922 0.36126 0.0
H578 H 0.08066 0.45857 0.18613 0.0
H579 H 0.10282 0.43175 0.10698 0.0
H580 H 0.05055 0.42759 0.1166 0.0
H581 H 0.14152 0.33968 0.43176 0.0
H582 H 0.17409 0.36557 0.35858 0.0
H583 H 0.14672 0.39214 0.42949 0.0
H584 H 0.23663 0.45046 0.19918 0.0
H585 H 0.17438 0.51225 0.38011 0.0
H586 H 0.15547 0.39009 0.12185 0.0
H587 H 0.18021 0.36542 0.2008 0.0
H588 H 0.20792 0.39625 0.12713 0.0
H589 H 0.07995 0.46341 0.33782 0.0
H590 H 0.10795 0.49552 0.4088 0.0
H591 H 0.10295 0.44368 0.42593 0.0
C592 C 0.52574 0.64509 0.58128 0.0
C593 C 0.49114 0.63326 0.53922 0.0
C594 C 0.55737 0.62231 0.57856 0.0
C595 C 0.5536 0.58666 0.53436 0.0
C596 C 0.51836 0.57473 0.4923 0.0
C597 C 0.48763 0.59846 0.49462 0.0
C598 C 0.59479 0.63651 0.62215 0.0
C599 C 0.513 0.537 0.44446 0.0
C600 C 0.6378 0.53551 0.45163 0.0
C601 C 0.63977 0.50573 0.51024 0.0
C602 C 0.61171 0.56386 0.46189 0.0
C603 C 0.58624 0.56154 0.53119 0.0
C604 C 0.58931 0.53235 0.59244 0.0
C605 C 0.61662 0.50507 0.58181 0.0
C606 C 0.6102 0.5952 0.39659 0.0
C607 C 0.56241 0.5287 0.66678 0.0
H608 H 0.52806 0.6722 0.61578 0.0
H609 H 0.46056 0.58955 0.46257 0.0
H610 H 0.60115 0.61575 0.67193 0.0
H611 H 0.61942 0.6379 0.57744 0.0
H612 H 0.59353 0.66574 0.65038 0.0
H613 H 0.48197 0.52907 0.42844 0.0
H614 H 0.52998 0.53995 0.3858 0.0
H615 H 0.52382 0.51286 0.48073 0.0
H616 H 0.65632 0.53629 0.39703 0.0
H617 H 0.61825 0.48185 0.62688 0.0
H618 H 0.60928 0.62411 0.42632 0.0
H619 H 0.58329 0.58945 0.35906 0.0
H620 H 0.63561 0.59645 0.35384 0.0
H621 H 0.56818 0.55457 0.70734 0.0
H622 H 0.5661 0.50223 0.70433 0.0
H623 H 0.53161 0.52774 0.64629 0.0
loop_
_geom_bond_atom_site_label_1
_geom_bond_atom_site_label_2
_geom_bond_distance
_geom_bond_site_symmetry_2
_ccdc_geom_bond_type
Mg0 O1 2.028 . S
Mg0 O7 1.986 . S
Mg0 O9 2.114 . S
Mg0 O10 2.251 . S
Mg0 O13 2.010 . S
O1 Mg0 2.028 . S
O1 C4 1.250 . S
O2 Mg3 2.028 . S
O2 C4 1.248 . S
Mg3 O2 2.028 . S
Mg3 O8 2.032 . S
Mg3 O10 2.079 . S
C4 O1 1.250 . S
C4 O2 1.248 . S
C5 O6 1.264 . S
C5 O13 1.249 . S
O6 C5 1.264 . S
O7 Mg0 1.986 . S
O7 C11 1.246 . S
O8 Mg3 2.032 . S
O8 C11 1.259 . S
O9 Mg0 2.114 . S
O9 C12 1.252 . S
O10 Mg0 2.251 . S
O10 Mg3 2.079 . S
O10 C12 1.273 . S
C11 O7 1.246 . S
C11 O8 1.259 . S
C12 O9 1.252 . S
C12 O10 1.273 . S
O13 Mg0 2.010 . S
O13 C5 1.249 . S
Mg14 O15 2.028 . S
Mg14 O21 1.986 . S
Mg14 O23 2.114 . S
Mg14 O24 2.251 . S
Mg14 O27 2.010 . S
O15 Mg14 2.028 . S
O15 C18 1.250 . S
O16 Mg17 2.028 . S
O16 C18 1.248 . S
Mg17 O16 2.028 . S
Mg17 O22 2.032 . S
Mg17 O24 2.079 . S
C18 O15 1.250 . S
C18 O16 1.248 . S
C19 O20 1.264 . S
C19 O27 1.249 . S
O20 C19 1.264 . S
O21 Mg14 1.986 . S
O21 C25 1.246 . S
O22 Mg17 2.032 . S
O22 C25 1.259 . S
O23 Mg14 2.114 . S
O23 C26 1.252 . S
O24 Mg14 2.251 . S
O24 Mg17 2.079 . S
O24 C26 1.273 . S
C25 O21 1.246 . S
C25 O22 1.259 . S
C26 O23 1.252 . S
C26 O24 1.273 . S
O27 Mg14 2.010 . S
O27 C19 1.249 . S
Mg28 O29 2.028 . S
Mg28 O35 1.986 . S
Mg28 O37 2.114 . S
Mg28 O38 2.251 . S
Mg28 O41 2.010 . S
O29 Mg28 2.028 . S
O29 C32 1.250 1_565 S
O30 Mg31 2.028 . S
O30 C32 1.248 . S
Mg31 O30 2.028 . S
Mg31 O36 2.032 1_545 S
Mg31 O38 2.079 1_545 S
C32 O29 1.250 1_545 S
C32 O30 1.248 . S
C33 O34 1.264 . S
C33 O41 1.249 1_554 S
O34 C33 1.264 . S
O35 Mg28 1.986 . S
O35 C39 1.246 . S
O36 Mg31 2.032 1_565 S
O36 C39 1.259 . S
O37 Mg28 2.114 . S
O37 C40 1.252 1_565 S
O38 Mg28 2.251 . S
O38 Mg31 2.079 1_565 S
O38 C40 1.273 1_565 S
C39 O35 1.246 . S
C39 O36 1.259 . S
C40 O37 1.252 1_545 S
C40 O38 1.273 1_545 S
O41 Mg28 2.010 . S
O41 C33 1.249 1_556 S
Mg42 O43 2.028 . S
Mg42 O49 1.986 . S
Mg42 O51 2.114 . S
Mg42 O52 2.251 . S
Mg42 O55 2.010 . S
O43 Mg42 2.028 . S
O43 C46 1.250 1_455 S
O44 Mg45 2.028 . S
O44 C46 1.248 . S
Mg45 O44 2.028 . S
Mg45 O50 2.032 1_655 S
Mg45 O52 2.079 1_655 S
C46 O43 1.250 1_655 S
C46 O44 1.248 . S
C47 O48 1.264 . S
C47 O55 1.249 1_556 S
O48 C47 1.264 . S
O49 Mg42 1.986 . S
O49 C53 1.246 . S
O50 Mg45 2.032 1_455 S
O50 C53 1.259 . S
O51 Mg42 2.114 . S
O51 C54 1.252 1_455 S
O52 Mg42 2.251 . S
O52 Mg45 2.079 1_455 S
O52 C54 1.273 1_455 S
C53 O49 1.246 . S
C53 O50 1.259 . S
C54 O51 1.252 1_655 S
C54 O52 1.273 1_655 S
O55 Mg42 2.010 . S
O55 C47 1.249 1_554 S
Mg56 O57 2.028 . S
Mg56 O63 1.986 . S
Mg56 O65 2.114 . S
Mg56 O66 2.251 . S
Mg56 O69 2.010 . S
O57 Mg56 2.028 . S
O57 C60 1.250 1_545 S
O58 Mg59 2.028 . S
O58 C60 1.248 . S
Mg59 O58 2.028 . S
Mg59 O64 2.032 1_565 S
Mg59 O66 2.079 1_565 S
C60 O57 1.250 1_565 S
C60 O58 1.248 . S
C61 O62 1.264 . S
C61 O69 1.249 1_554 S
O62 C61 1.264 . S
O63 Mg56 1.986 . S
O63 C67 1.246 . S
O64 Mg59 2.032 1_545 S
O64 C67 1.259 . S
O65 Mg56 2.114 . S
O65 C68 1.252 1_545 S
O66 Mg56 2.251 . S
O66 Mg59 2.079 1_545 S
O66 C68 1.273 1_545 S
C67 O63 1.246 . S
C67 O64 1.259 . S
C68 O65 1.252 1_565 S
C68 O66 1.273 1_565 S
O69 Mg56 2.010 . S
O69 C61 1.249 1_556 S
Mg70 O71 2.028 . S
Mg70 O77 1.986 . S
Mg70 O79 2.114 . S
Mg70 O80 2.251 . S
Mg70 O83 2.010 . S
O71 Mg70 2.028 . S
O71 C74 1.250 1_655 S
O72 Mg73 2.028 . S
O72 C74 1.248 . S
Mg73 O72 2.028 . S
Mg73 O78 2.032 1_455 S
Mg73 O80 2.079 1_455 S
C74 O71 1.250 1_455 S
C74 O72 1.248 . S
C75 O76 1.264 . S
C75 O83 1.249 1_556 S
O76 C75 1.264 . S
O77 Mg70 1.986 . S
O77 C81 1.246 . S
O78 Mg73 2.032 1_655 S
O78 C81 1.259 . S
O79 Mg70 2.114 . S
O79 C82 1.252 1_655 S
O80 Mg70 2.251 . S
O80 Mg73 2.079 1_655 S
O80 C82 1.273 1_655 S
C81 O77 1.246 . S
C81 O78 1.259 . S
C82 O79 1.252 1_455 S
C82 O80 1.273 1_455 S
O83 Mg70 2.010 . S
O83 C75 1.249 1_554 S
Mg84 O85 2.028 . S
Mg84 O91 1.986 . S
Mg84 O93 2.114 . S
Mg84 O94 2.251 . S
Mg84 O97 2.010 . S
O85 Mg84 2.028 . S
O85 C88 1.250 . S
O86 Mg87 2.028 . S
O86 C88 1.248 . S
Mg87 O86 2.028 . S
Mg87 O92 2.032 . S
Mg87 O94 2.079 . S
C88 O85 1.250 . S
C88 O86 1.248 . S
C89 O90 1.264 . S
C89 O97 1.249 . S
O90 C89 1.264 . S
O91 Mg84 1.986 . S
O91 C95 1.246 . S
O92 Mg87 2.032 . S
O92 C95 1.259 . S
O93 Mg84 2.114 . S
O93 C96 1.252 . S
O94 Mg84 2.251 . S
O94 Mg87 2.079 . S
O94 C96 1.273 . S
C95 O91 1.246 . S
C95 O92 1.259 . S
C96 O93 1.252 . S
C96 O94 1.273 . S
O97 Mg84 2.010 . S
O97 C89 1.249 . S
Mg98 O99 2.028 . S
Mg98 O105 1.986 . S
Mg98 O107 2.114 . S
Mg98 O108 2.251 . S
Mg98 O111 2.010 . S
O99 Mg98 2.028 . S
O99 C102 1.250 . S
O100 Mg101 2.028 . S
O100 C102 1.248 . S
Mg101 O100 2.028 . S
Mg101 O106 2.032 . S
Mg101 O108 2.079 . S
C102 O99 1.250 . S
C102 O100 1.248 . S
C103 O104 1.264 . S
C103 O111 1.249 . S
O104 C103 1.264 . S
O105 Mg98 1.986 . S
O105 C109 1.246 . S
O106 Mg101 2.032 . S
O106 C109 1.259 . S
O107 Mg98 2.114 . S
O107 C110 1.252 . S
O108 Mg98 2.251 . S
O108 Mg101 2.079 . S
O108 C110 1.273 . S
C109 O105 1.246 . S
C109 O106 1.259 . S
C110 O107 1.252 . S
C110 O108 1.273 . S
O111 Mg98 2.010 . S
O111 C103 1.249 . S
C112 C113 1.391 . S
C112 C114 1.394 . S
C112 H128 0.931 . S
C113 C112 1.391 . S
C113 C117 1.376 . S
C114 C112 1.394 . S
C114 C115 1.369 . S
C114 C118 1.531 1_556 S
C115 C114 1.369 . S
C115 C116 1.410 . S
C115 C123 1.503 1_556 S
C116 C115 1.410 . S
C116 C117 1.392 . S
C116 C119 1.511 . S
C117 C113 1.376 . S
C117 C116 1.392 . S
C117 H129 0.929 . S
C118 C114 1.531 1_554 S
C118 H130 0.960 . S
C118 H131 0.962 . S
C118 H132 0.960 . S
C119 C116 1.511 . S
C119 H133 0.961 . S
C119 H134 0.961 . S
C119 H135 0.961 . S
C120 C121 1.370 . S
C120 C122 1.363 . S
C120 H136 0.931 . S
C121 C120 1.370 . S
C121 C125 1.408 . S
C122 C120 1.363 . S
C122 C123 1.370 . S
C122 C126 1.524 . S
C123 C115 1.503 1_554 S
C123 C122 1.370 . S
C123 C124 1.403 . S
C124 C123 1.403 . S
C124 C125 1.404 . S
C124 C127 1.539 1_554 S
C125 C121 1.408 . S
C125 C124 1.404 . S
C125 H137 0.930 . S
C126 C122 1.524 . S
C126 H138 0.956 . S
C126 H139 0.961 . S
C126 H140 0.961 . S
C127 C124 1.539 1_556 S
C127 H141 0.958 . S
C127 H142 0.961 . S
C127 H143 0.960 . S
H128 C112 0.931 . S
H129 C117 0.929 . S
H130 C118 0.960 . S
H131 C118 0.962 . S
H132 C118 0.960 . S
H133 C119 0.961 . S
H134 C119 0.961 . S
H135 C119 0.961 . S
H136 C120 0.931 . S
H137 C125 0.930 . S
H138 C126 0.956 . S
H139 C126 0.961 . S
H140 C126 0.961 . S
H141 C127 0.958 . S
H142 C127 0.961 . S
H143 C127 0.960 . S
C144 C145 1.391 . S
C144 C146 1.394 . S
C144 H160 0.931 . S
C145 C144 1.391 . S
C145 C149 1.376 . S
C146 C144 1.394 . S
C146 C147 1.369 . S
C146 C150 1.531 . S
C147 C146 1.369 . S
C147 C148 1.410 . S
C147 C155 1.503 . S
C148 C147 1.410 . S
C148 C149 1.392 . S
C148 C151 1.511 . S
C149 C145 1.376 . S
C149 C148 1.392 . S
C149 H161 0.929 . S
C150 C146 1.531 . S
C150 H162 0.960 . S
C150 H163 0.962 . S
C150 H164 0.960 . S
C151 C148 1.511 . S
C151 H165 0.961 . S
C151 H166 0.961 . S
C151 H167 0.961 . S
C152 C153 1.370 . S
C152 C154 1.363 . S
C152 H168 0.931 . S
C153 C152 1.370 . S
C153 C157 1.408 . S
C154 C152 1.363 . S
C154 C155 1.370 . S
C154 C158 1.524 . S
C155 C147 1.503 . S
C155 C154 1.370 . S
C155 C156 1.403 . S
C156 C155 1.403 . S
C156 C157 1.404 . S
C156 C159 1.539 . S
C157 C153 1.408 . S
C157 C156 1.404 . S
C157 H169 0.930 . S
C158 C154 1.524 . S
C158 H170 0.956 . S
C158 H171 0.961 . S
C158 H172 0.961 . S
C159 C156 1.539 . S
C159 H173 0.958 . S
C159 H174 0.961 . S
C159 H175 0.960 . S
H160 C144 0.931 . S
H161 C149 0.929 . S
H162 C150 0.960 . S
H163 C150 0.962 . S
H164 C150 0.960 . S
H165 C151 0.961 . S
H166 C151 0.961 . S
H167 C151 0.961 . S
H168 C152 0.931 . S
H169 C157 0.930 . S
H170 C158 0.956 . S
H171 C158 0.961 . S
H172 C158 0.961 . S
H173 C159 0.958 . S
H174 C159 0.961 . S
H175 C159 0.960 . S
C176 C177 1.391 . S
C176 C178 1.394 . S
C176 H192 0.931 . S
C177 C176 1.391 . S
C177 C181 1.376 . S
C178 C176 1.394 . S
C178 C179 1.369 . S
C178 C182 1.531 . S
C179 C178 1.369 . S
C179 C180 1.410 . S
C179 C187 1.503 . S
C180 C179 1.410 . S
C180 C181 1.392 . S
C180 C183 1.511 . S
C181 C177 1.376 . S
C181 C180 1.392 . S
C181 H193 0.929 . S
C182 C178 1.531 . S
C182 H194 0.960 . S
C182 H195 0.962 . S
C182 H196 0.960 . S
C183 C180 1.511 . S
C183 H197 0.961 . S
C183 H198 0.961 . S
C183 H199 0.961 . S
C184 C185 1.370 . S
C184 C186 1.363 . S
C184 H200 0.931 . S
C185 C184 1.370 . S
C185 C189 1.408 . S
C186 C184 1.363 . S
C186 C187 1.370 . S
C186 C190 1.524 . S
C187 C179 1.503 . S
C187 C186 1.370 . S
C187 C188 1.403 . S
C188 C187 1.403 . S
C188 C189 1.404 . S
C188 C191 1.539 . S
C189 C185 1.408 . S
C189 C188 1.404 . S
C189 H201 0.930 . S
C190 C186 1.524 . S
C190 H202 0.956 . S
C190 H203 0.961 . S
C190 H204 0.961 . S
C191 C188 1.539 . S
C191 H205 0.958 . S
C191 H206 0.961 . S
C191 H207 0.960 . S
H192 C176 0.931 . S
H193 C181 0.929 . S
H194 C182 0.960 . S
H195 C182 0.962 . S
H196 C182 0.960 . S
H197 C183 0.961 . S
H198 C183 0.961 . S
H199 C183 0.961 . S
H200 C184 0.931 . S
H201 C189 0.930 . S
H202 C190 0.956 . S
H203 C190 0.961 . S
H204 C190 0.961 . S
H205 C191 0.958 . S
H206 C191 0.961 . S
H207 C191 0.960 . S
C208 C209 1.391 . S
C208 C210 1.394 . S
C208 H224 0.931 . S
C209 C208 1.391 . S
C209 C213 1.376 . S
C210 C208 1.394 . S
C210 C211 1.369 . S
C210 C214 1.531 . S
C211 C210 1.369 . S
C211 C212 1.410 . S
C211 C219 1.503 . S
C212 C211 1.410 . S
C212 C213 1.392 . S
C212 C215 1.511 . S
C213 C209 1.376 . S
C213 C212 1.392 . S
C213 H225 0.929 . S
C214 C210 1.531 . S
C214 H226 0.960 . S
C214 H227 0.962 . S
C214 H228 0.960 . S
C215 C212 1.511 . S
C215 H229 0.961 . S
C215 H230 0.961 . S
C215 H231 0.961 . S
C216 C217 1.370 . S
C216 C218 1.363 . S
C216 H232 0.931 . S
C217 C216 1.370 . S
C217 C221 1.408 . S
C218 C216 1.363 . S
C218 C219 1.370 . S
C218 C222 1.524 . S
C219 C211 1.503 . S
C219 C218 1.370 . S
C219 C220 1.403 . S
C220 C219 1.403 . S
C220 C221 1.404 . S
C220 C223 1.539 . S
C221 C217 1.408 . S
C221 C220 1.404 . S
C221 H233 0.930 . S
C222 C218 1.524 . S
C222 H234 0.956 . S
C222 H235 0.961 . S
C222 H236 0.961 . S
C223 C220 1.539 . S
C223 H237 0.958 . S
C223 H238 0.961 . S
C223 H239 0.960 . S
H224 C208 0.931 . S
H225 C213 0.929 . S
H226 C214 0.960 . S
H227 C214 0.962 . S
H228 C214 0.960 . S
H229 C215 0.961 . S
H230 C215 0.961 . S
H231 C215 0.961 . S
H232 C216 0.931 . S
H233 C221 0.930 . S
H234 C222 0.956 . S
H235 C222 0.961 . S
H236 C222 0.961 . S
H237 C223 0.958 . S
H238 C223 0.961 . S
H239 C223 0.960 . S
C240 C241 1.391 . S
C240 C242 1.394 . S
C240 H256 0.931 . S
C241 C240 1.391 . S
C241 C245 1.376 . S
C242 C240 1.394 . S
C242 C243 1.369 . S
C242 C246 1.531 . S
C243 C242 1.369 . S
C243 C244 1.410 . S
C243 C251 1.503 . S
C244 C243 1.410 . S
C244 C245 1.392 . S
C244 C247 1.511 . S
C245 C241 1.376 . S
C245 C244 1.392 . S
C245 H257 0.929 . S
C246 C242 1.531 . S
C246 H258 0.960 . S
C246 H259 0.962 . S
C246 H260 0.960 . S
C247 C244 1.511 . S
C247 H261 0.961 . S
C247 H262 0.961 . S
C247 H263 0.961 . S
C248 C249 1.370 . S
C248 C250 1.363 . S
C248 H264 0.931 . S
C249 C248 1.370 . S
C249 C253 1.408 . S
C250 C248 1.363 . S
C250 C251 1.370 . S
C250 C254 1.524 . S
C251 C243 1.503 . S
C251 C250 1.370 . S
C251 C252 1.403 . S
C252 C251 1.403 . S
C252 C253 1.404 . S
C252 C255 1.539 . S
C253 C249 1.408 . S
C253 C252 1.404 . S
C253 H265 0.930 . S
C254 C250 1.524 . S
C254 H266 0.956 . S
C254 H267 0.961 . S
C254 H268 0.961 . S
C255 C252 1.539 . S
C255 H269 0.958 . S
C255 H270 0.961 . S
C255 H271 0.960 . S
H256 C240 0.931 . S
H257 C245 0.929 . S
H258 C246 0.960 . S
H259 C246 0.962 . S
H260 C246 0.960 . S
H261 C247 0.961 . S
H262 C247 0.961 . S
H263 C247 0.961 . S
H264 C248 0.931 . S
H265 C253 0.930 . S
H266 C254 0.956 . S
H267 C254 0.961 . S
H268 C254 0.961 . S
H269 C255 0.958 . S
H270 C255 0.961 . S
H271 C255 0.960 . S
C272 C273 1.391 . S
C272 C274 1.394 . S
C272 H288 0.931 . S
C273 C272 1.391 . S
C273 C277 1.376 . S
C274 C272 1.394 . S
C274 C275 1.369 . S
C274 C278 1.531 . S
C275 C274 1.369 . S
C275 C276 1.410 . S
C275 C283 1.503 . S
C276 C275 1.410 . S
C276 C277 1.392 . S
C276 C279 1.511 . S
C277 C273 1.376 . S
C277 C276 1.392 . S
C277 H289 0.929 . S
C278 C274 1.531 . S
C278 H290 0.960 . S
C278 H291 0.962 . S
C278 H292 0.960 . S
C279 C276 1.511 . S
C279 H293 0.961 . S
C279 H294 0.961 . S
C279 H295 0.961 . S
C280 C281 1.370 . S
C280 C282 1.363 . S
C280 H296 0.931 . S
C281 C280 1.370 . S
C281 C285 1.408 . S
C282 C280 1.363 . S
C282 C283 1.370 . S
C282 C286 1.524 . S
C283 C275 1.503 . S
C283 C282 1.370 . S
C283 C284 1.403 . S
C284 C283 1.403 . S
C284 C285 1.404 . S
C284 C287 1.539 . S
C285 C281 1.408 . S
C285 C284 1.404 . S
C285 H297 0.930 . S
C286 C282 1.524 . S
C286 H298 0.956 . S
C286 H299 0.961 . S
C286 H300 0.961 . S
C287 C284 1.539 . S
C287 H301 0.958 . S
C287 H302 0.961 . S
C287 H303 0.960 . S
H288 C272 0.931 . S
H289 C277 0.929 . S
H290 C278 0.960 . S
H291 C278 0.962 . S
H292 C278 0.960 . S
H293 C279 0.961 . S
H294 C279 0.961 . S
H295 C279 0.961 . S
H296 C280 0.931 . S
H297 C285 0.930 . S
H298 C286 0.956 . S
H299 C286 0.961 . S
H300 C286 0.961 . S
H301 C287 0.958 . S
H302 C287 0.961 . S
H303 C287 0.960 . S
C304 C305 1.391 . S
C304 C306 1.394 . S
C304 H320 0.931 . S
C305 C304 1.391 . S
C305 C309 1.376 . S
C306 C304 1.394 . S
C306 C307 1.369 . S
C306 C310 1.531 . S
C307 C306 1.369 . S
C307 C308 1.410 . S
C307 C315 1.503 1_554 S
C308 C307 1.410 . S
C308 C309 1.392 . S
C308 C311 1.511 . S
C309 C305 1.376 . S
C309 C308 1.392 . S
C309 H321 0.929 . S
C310 C306 1.531 . S
C310 H322 0.960 1_554 S
C310 H323 0.962 . S
C310 H324 0.960 . S
C311 C308 1.511 . S
C311 H325 0.961 . S
C311 H326 0.961 . S
C311 H327 0.961 1_554 S
C312 C313 1.370 . S
C312 C314 1.363 . S
C312 H328 0.931 . S
C313 C312 1.370 . S
C313 C317 1.408 . S
C314 C312 1.363 . S
C314 C315 1.370 . S
C314 C318 1.524 1_556 S
C315 C307 1.503 1_556 S
C315 C314 1.370 . S
C315 C316 1.403 . S
C316 C315 1.403 . S
C316 C317 1.404 . S
C316 C319 1.539 . S
C317 C313 1.408 . S
C317 C316 1.404 . S
C317 H329 0.930 . S
C318 C314 1.524 1_554 S
C318 H330 0.956 . S
C318 H331 0.961 . S
C318 H332 0.961 . S
C319 C316 1.539 . S
C319 H333 0.958 . S
C319 H334 0.961 . S
C319 H335 0.960 . S
H320 C304 0.931 . S
H321 C309 0.929 . S
H322 C310 0.960 1_556 S
H323 C310 0.962 . S
H324 C310 0.960 . S
H325 C311 0.961 . S
H326 C311 0.961 . S
H327 C311 0.961 1_556 S
H328 C312 0.931 . S
H329 C317 0.930 . S
H330 C318 0.956 . S
H331 C318 0.961 . S
H332 C318 0.961 . S
H333 C319 0.958 . S
H334 C319 0.961 . S
H335 C319 0.960 . S
C336 C337 1.391 . S
C336 C338 1.394 . S
C336 H352 0.931 . S
C337 C336 1.391 . S
C337 C341 1.376 . S
C338 C336 1.394 . S
C338 C339 1.369 . S
C338 C342 1.531 . S
C339 C338 1.369 . S
C339 C340 1.410 . S
C339 C347 1.503 . S
C340 C339 1.410 . S
C340 C341 1.392 . S
C340 C343 1.511 . S
C341 C337 1.376 . S
C341 C340 1.392 . S
C341 H353 0.929 . S
C342 C338 1.531 . S
C342 H354 0.960 . S
C342 H355 0.962 . S
C342 H356 0.960 . S
C343 C340 1.511 . S
C343 H357 0.961 . S
C343 H358 0.961 . S
C343 H359 0.961 . S
C344 C345 1.370 . S
C344 C346 1.363 . S
C344 H360 0.931 . S
C345 C344 1.370 . S
C345 C349 1.408 . S
C346 C344 1.363 . S
C346 C347 1.370 . S
C346 C350 1.524 . S
C347 C339 1.503 . S
C347 C346 1.370 . S
C347 C348 1.403 . S
C348 C347 1.403 . S
C348 C349 1.404 . S
C348 C351 1.539 . S
C349 C345 1.408 . S
C349 C348 1.404 . S
C349 H361 0.930 . S
C350 C346 1.524 . S
C350 H362 0.956 . S
C350 H363 0.961 . S
C350 H364 0.961 . S
C351 C348 1.539 . S
C351 H365 0.958 . S
C351 H366 0.961 . S
C351 H367 0.960 . S
H352 C336 0.931 . S
H353 C341 0.929 . S
H354 C342 0.960 . S
H355 C342 0.962 . S
H356 C342 0.960 . S
H357 C343 0.961 . S
H358 C343 0.961 . S
H359 C343 0.961 . S
H360 C344 0.931 . S
H361 C349 0.930 . S
H362 C350 0.956 . S
H363 C350 0.961 . S
H364 C350 0.961 . S
H365 C351 0.958 . S
H366 C351 0.961 . S
H367 C351 0.960 . S
C368 C369 1.391 . S
C368 C370 1.394 . S
C368 H384 0.931 . S
C369 C368 1.391 . S
C369 C373 1.376 . S
C370 C368 1.394 . S
C370 C371 1.369 . S
C370 C374 1.531 . S
C371 C370 1.369 . S
C371 C372 1.410 . S
C371 C379 1.503 . S
C372 C371 1.410 . S
C372 C373 1.392 . S
C372 C375 1.511 . S
C373 C369 1.376 . S
C373 C372 1.392 . S
C373 H385 0.929 . S
C374 C370 1.531 . S
C374 H386 0.960 . S
C374 H387 0.962 . S
C374 H388 0.960 . S
C375 C372 1.511 . S
C375 H389 0.961 . S
C375 H390 0.961 . S
C375 H391 0.961 . S
C376 C377 1.370 . S
C376 C378 1.363 . S
C376 H392 0.931 . S
C377 C376 1.370 . S
C377 C381 1.408 . S
C378 C376 1.363 . S
C378 C379 1.370 . S
C378 C382 1.524 . S
C379 C371 1.503 . S
C379 C378 1.370 . S
C379 C380 1.403 . S
C380 C379 1.403 . S
C380 C381 1.404 . S
C380 C383 1.539 . S
C381 C377 1.408 . S
C381 C380 1.404 . S
C381 H393 0.930 . S
C382 C378 1.524 . S
C382 H394 0.956 . S
C382 H395 0.961 . S
C382 H396 0.961 . S
C383 C380 1.539 . S
C383 H397 0.958 . S
C383 H398 0.961 . S
C383 H399 0.960 . S
H384 C368 0.931 . S
H385 C373 0.929 . S
H386 C374 0.960 . S
H387 C374 0.962 . S
H388 C374 0.960 . S
H389 C375 0.961 . S
H390 C375 0.961 . S
H391 C375 0.961 . S
H392 C376 0.931 . S
H393 C381 0.930 . S
H394 C382 0.956 . S
H395 C382 0.961 . S
H396 C382 0.961 . S
H397 C383 0.958 . S
H398 C383 0.961 . S
H399 C383 0.960 . S
C400 C401 1.391 . S
C400 C402 1.394 . S
C400 H416 0.931 . S
C401 C400 1.391 . S
C401 C405 1.376 . S
C402 C400 1.394 . S
C402 C403 1.369 . S
C402 C406 1.531 . S
C403 C402 1.369 . S
C403 C404 1.410 . S
C403 C411 1.503 . S
C404 C403 1.410 . S
C404 C405 1.392 . S
C404 C407 1.511 . S
C405 C401 1.376 . S
C405 C404 1.392 . S
C405 H417 0.929 . S
C406 C402 1.531 . S
C406 H418 0.960 . S
C406 H419 0.962 . S
C406 H420 0.960 . S
C407 C404 1.511 . S
C407 H421 0.961 . S
C407 H422 0.961 . S
C407 H423 0.961 . S
C408 C409 1.370 . S
C408 C410 1.363 . S
C408 H424 0.931 . S
C409 C408 1.370 . S
C409 C413 1.408 . S
C410 C408 1.363 . S
C410 C411 1.370 . S
C410 C414 1.524 . S
C411 C403 1.503 . S
C411 C410 1.370 . S
C411 C412 1.403 . S
C412 C411 1.403 . S
C412 C413 1.404 . S
C412 C415 1.539 . S
C413 C409 1.408 . S
C413 C412 1.404 . S
C413 H425 0.930 . S
C414 C410 1.524 . S
C414 H426 0.956 . S
C414 H427 0.961 . S
C414 H428 0.961 . S
C415 C412 1.539 . S
C415 H429 0.958 . S
C415 H430 0.961 . S
C415 H431 0.960 . S
H416 C400 0.931 . S
H417 C405 0.929 . S
H418 C406 0.960 . S
H419 C406 0.962 . S
H420 C406 0.960 . S
H421 C407 0.961 . S
H422 C407 0.961 . S
H423 C407 0.961 . S
H424 C408 0.931 . S
H425 C413 0.930 . S
H426 C414 0.956 . S
H427 C414 0.961 . S
H428 C414 0.961 . S
H429 C415 0.958 . S
H430 C415 0.961 . S
H431 C415 0.960 . S
C432 C433 1.391 . S
C432 C434 1.394 1_554 S
C432 H448 0.931 1_454 S
C433 C432 1.391 . S
C433 C437 1.376 . S
C434 C432 1.394 1_556 S
C434 C435 1.369 . S
C434 C438 1.531 . S
C435 C434 1.369 . S
C435 C436 1.410 1_556 S
C435 C443 1.503 . S
C436 C435 1.410 1_554 S
C436 C437 1.392 . S
C436 C439 1.511 . S
C437 C433 1.376 . S
C437 C436 1.392 . S
C437 H449 0.929 . S
C438 C434 1.531 . S
C438 H450 0.960 . S
C438 H451 0.962 . S
C438 H452 0.960 . S
C439 C436 1.511 . S
C439 H453 0.961 . S
C439 H454 0.961 . S
C439 H455 0.961 1_554 S
C440 C441 1.370 1_554 S
C440 C442 1.363 . S
C440 H456 0.931 . S
C441 C440 1.370 1_556 S
C441 C445 1.408 . S
C442 C440 1.363 . S
C442 C443 1.370 1_554 S
C442 C446 1.524 . S
C443 C435 1.503 . S
C443 C442 1.370 1_556 S
C443 C444 1.403 . S
C444 C443 1.403 . S
C444 C445 1.404 . S
C444 C447 1.539 . S
C445 C441 1.408 . S
C445 C444 1.404 . S
C445 H457 0.930 . S
C446 C442 1.524 . S
C446 H458 0.956 . S
C446 H459 0.961 . S
C446 H460 0.961 . S
C447 C444 1.539 . S
C447 H461 0.958 . S
C447 H462 0.961 . S
C447 H463 0.960 . S
H448 C432 0.931 1_656 S
H449 C437 0.929 . S
H450 C438 0.960 . S
H451 C438 0.962 . S
H452 C438 0.960 . S
H453 C439 0.961 . S
H454 C439 0.961 . S
H455 C439 0.961 1_556 S
H456 C440 0.931 . S
H457 C445 0.930 . S
H458 C446 0.956 . S
H459 C446 0.961 . S
H460 C446 0.961 . S
H461 C447 0.958 . S
H462 C447 0.961 . S
H463 C447 0.960 . S
C464 C465 1.391 . S
C464 C466 1.394 . S
C464 H480 0.931 1_655 S
C465 C464 1.391 . S
C465 C469 1.376 . S
C466 C464 1.394 . S
C466 C467 1.369 . S
C466 C470 1.531 . S
C467 C466 1.369 . S
C467 C468 1.410 . S
C467 C475 1.503 . S
C468 C467 1.410 . S
C468 C469 1.392 . S
C468 C471 1.511 . S
C469 C465 1.376 . S
C469 C468 1.392 . S
C469 H481 0.929 . S
C470 C466 1.531 . S
C470 H482 0.960 . S
C470 H483 0.962 . S
C470 H484 0.960 . S
C471 C468 1.511 . S
C471 H485 0.961 . S
C471 H486 0.961 . S
C471 H487 0.961 . S
C472 C473 1.370 . S
C472 C474 1.363 . S
C472 H488 0.931 . S
C473 C472 1.370 . S
C473 C477 1.408 . S
C474 C472 1.363 . S
C474 C475 1.370 . S
C474 C478 1.524 . S
C475 C467 1.503 . S
C475 C474 1.370 . S
C475 C476 1.403 . S
C476 C475 1.403 . S
C476 C477 1.404 . S
C476 C479 1.539 . S
C477 C473 1.408 . S
C477 C476 1.404 . S
C477 H489 0.930 . S
C478 C474 1.524 . S
C478 H490 0.956 . S
C478 H491 0.961 . S
C478 H492 0.961 . S
C479 C476 1.539 . S
C479 H493 0.958 . S
C479 H494 0.961 . S
C479 H495 0.960 . S
H480 C464 0.931 1_455 S
H481 C469 0.929 . S
H482 C470 0.960 . S
H483 C470 0.962 . S
H484 C470 0.960 . S
H485 C471 0.961 . S
H486 C471 0.961 . S
H487 C471 0.961 . S
H488 C472 0.931 . S
H489 C477 0.930 . S
H490 C478 0.956 . S
H491 C478 0.961 . S
H492 C478 0.961 . S
H493 C479 0.958 . S
H494 C479 0.961 . S
H495 C479 0.960 . S
C496 C497 1.391 . S
C496 C498 1.394 . S
C496 H512 0.931 . S
C497 C496 1.391 . S
C497 C501 1.376 . S
C498 C496 1.394 . S
C498 C499 1.369 . S
C498 C502 1.531 . S
C499 C498 1.369 . S
C499 C500 1.410 . S
C499 C507 1.503 . S
C500 C499 1.410 . S
C500 C501 1.392 . S
C500 C503 1.511 . S
C501 C497 1.376 . S
C501 C500 1.392 . S
C501 H513 0.929 1_545 S
C502 C498 1.531 . S
C502 H514 0.960 . S
C502 H515 0.962 . S
C502 H516 0.960 . S
C503 C500 1.511 . S
C503 H517 0.961 . S
C503 H518 0.961 . S
C503 H519 0.961 . S
C504 C505 1.370 . S
C504 C506 1.363 . S
C504 H520 0.931 . S
C505 C504 1.370 . S
C505 C509 1.408 . S
C506 C504 1.363 . S
C506 C507 1.370 . S
C506 C510 1.524 . S
C507 C499 1.503 . S
C507 C506 1.370 . S
C507 C508 1.403 . S
C508 C507 1.403 . S
C508 C509 1.404 . S
C508 C511 1.539 . S
C509 C505 1.408 . S
C509 C508 1.404 . S
C509 H521 0.930 . S
C510 C506 1.524 . S
C510 H522 0.956 . S
C510 H523 0.961 . S
C510 H524 0.961 . S
C511 C508 1.539 . S
C511 H525 0.958 . S
C511 H526 0.961 . S
C511 H527 0.960 . S
H512 C496 0.931 . S
H513 C501 0.929 1_565 S
H514 C502 0.960 . S
H515 C502 0.962 . S
H516 C502 0.960 . S
H517 C503 0.961 . S
H518 C503 0.961 . S
H519 C503 0.961 . S
H520 C504 0.931 . S
H521 C509 0.930 . S
H522 C510 0.956 . S
H523 C510 0.961 . S
H524 C510 0.961 . S
H525 C511 0.958 . S
H526 C511 0.961 . S
H527 C511 0.960 . S
C528 C529 1.391 1_554 S
C528 C530 1.394 . S
C528 H544 0.931 . S
C529 C528 1.391 1_556 S
C529 C533 1.376 . S
C530 C528 1.394 . S
C530 C531 1.369 1_554 S
C530 C534 1.531 . S
C531 C530 1.369 1_556 S
C531 C532 1.410 . S
C531 C539 1.503 1_556 S
C532 C531 1.410 . S
C532 C533 1.392 . S
C532 C535 1.511 . S
C533 C529 1.376 . S
C533 C532 1.392 . S
C533 H545 0.929 . S
C534 C530 1.531 . S
C534 H546 0.960 . S
C534 H547 0.962 . S
C534 H548 0.960 . S
C535 C532 1.511 . S
C535 H549 0.961 . S
C535 H550 0.961 . S
C535 H551 0.961 . S
C536 C537 1.370 . S
C536 C538 1.363 . S
C536 H552 0.931 . S
C537 C536 1.370 . S
C537 C541 1.408 . S
C538 C536 1.363 . S
C538 C539 1.370 . S
C538 C542 1.524 . S
C539 C531 1.503 1_554 S
C539 C538 1.370 . S
C539 C540 1.403 1_554 S
C540 C539 1.403 1_556 S
C540 C541 1.404 1_556 S
C540 C543 1.539 . S
C541 C537 1.408 . S
C541 C540 1.404 1_554 S
C541 H553 0.930 1_554 S
C542 C538 1.524 . S
C542 H554 0.956 . S
C542 H555 0.961 . S
C542 H556 0.961 . S
C543 C540 1.539 . S
C543 H557 0.958 . S
C543 H558 0.961 . S
C543 H559 0.960 . S
H544 C528 0.931 . S
H545 C533 0.929 . S
H546 C534 0.960 . S
H547 C534 0.962 . S
H548 C534 0.960 . S
H549 C535 0.961 . S
H550 C535 0.961 . S
H551 C535 0.961 . S
H552 C536 0.931 . S
H553 C541 0.930 1_556 S
H554 C542 0.956 . S
H555 C542 0.961 . S
H556 C542 0.961 . S
H557 C543 0.958 . S
H558 C543 0.961 . S
H559 C543 0.960 . S
C560 C561 1.391 . S
C560 C562 1.394 . S
C560 H576 0.931 . S
C561 C560 1.391 . S
C561 C565 1.376 . S
C562 C560 1.394 . S
C562 C563 1.369 . S
C562 C566 1.531 . S
C563 C562 1.369 . S
C563 C564 1.410 . S
C563 C571 1.503 . S
C564 C563 1.410 . S
C564 C565 1.392 . S
C564 C567 1.511 . S
C565 C561 1.376 . S
C565 C564 1.392 . S
C565 H577 0.929 . S
C566 C562 1.531 . S
C566 H578 0.960 . S
C566 H579 0.962 . S
C566 H580 0.960 . S
C567 C564 1.511 . S
C567 H581 0.961 . S
C567 H582 0.961 . S
C567 H583 0.961 . S
C568 C569 1.370 . S
C568 C570 1.363 . S
C568 H584 0.931 . S
C569 C568 1.370 . S
C569 C573 1.408 . S
C570 C568 1.363 . S
C570 C571 1.370 . S
C570 C574 1.524 . S
C571 C563 1.503 . S
C571 C570 1.370 . S
C571 C572 1.403 . S
C572 C571 1.403 . S
C572 C573 1.404 . S
C572 C575 1.539 . S
C573 C569 1.408 . S
C573 C572 1.404 . S
C573 H585 0.930 . S
C574 C570 1.524 . S
C574 H586 0.956 . S
C574 H587 0.961 . S
C574 H588 0.961 . S
C575 C572 1.539 . S
C575 H589 0.958 . S
C575 H590 0.961 . S
C575 H591 0.960 . S
H576 C560 0.931 . S
H577 C565 0.929 . S
H578 C566 0.960 . S
H579 C566 0.962 . S
H580 C566 0.960 . S
H581 C567 0.961 . S
H582 C567 0.961 . S
H583 C567 0.961 . S
H584 C568 0.931 . S
H585 C573 0.930 . S
H586 C574 0.956 . S
H587 C574 0.961 . S
H588 C574 0.961 . S
H589 C575 0.958 . S
H590 C575 0.961 . S
H591 C575 0.960 . S
C592 C593 1.391 . S
C592 C594 1.394 . S
C592 H608 0.931 . S
C593 C592 1.391 . S
C593 C597 1.376 . S
C594 C592 1.394 . S
C594 C595 1.369 . S
C594 C598 1.531 . S
C595 C594 1.369 . S
C595 C596 1.410 . S
C595 C603 1.503 . S
C596 C595 1.410 . S
C596 C597 1.392 . S
C596 C599 1.511 . S
C597 C593 1.376 . S
C597 C596 1.392 . S
C597 H609 0.929 . S
C598 C594 1.531 . S
C598 H610 0.960 . S
C598 H611 0.962 . S
C598 H612 0.960 . S
C599 C596 1.511 . S
C599 H613 0.961 . S
C599 H614 0.961 . S
C599 H615 0.961 . S
C600 C601 1.370 . S
C600 C602 1.363 . S
C600 H616 0.931 . S
C601 C600 1.370 . S
C601 C605 1.408 . S
C602 C600 1.363 . S
C602 C603 1.370 . S
C602 C606 1.524 . S
C603 C595 1.503 . S
C603 C602 1.370 . S
C603 C604 1.403 . S
C604 C603 1.403 . S
C604 C605 1.404 . S
C604 C607 1.539 . S
C605 C601 1.408 . S
C605 C604 1.404 . S
C605 H617 0.930 . S
C606 C602 1.524 . S
C606 H618 0.956 . S
C606 H619 0.961 . S
C606 H620 0.961 . S
C607 C604 1.539 . S
C607 H621 0.958 . S
C607 H622 0.961 . S
C607 H623 0.960 . S
H608 C592 0.931 . S
H609 C597 0.929 . S
H610 C598 0.960 . S
H611 C598 0.962 . S
H612 C598 0.960 . S
H613 C599 0.961 . S
H614 C599 0.961 . S
H615 C599 0.961 . S
H616 C600 0.931 . S
H617 C605 0.930 . S
H618 C606 0.956 . S
H619 C606 0.961 . S
H620 C606 0.961 . S
H621 C607 0.958 . S
H622 C607 0.961 . S
H623 C607 0.960 . S
C113 C25 1.387 . S
C121 C11 1.363 . S
C145 C19 1.217 . S
C153 C33 1.245 . S
C177 C53 1.334 . S
C185 C39 1.350 . S
C209 C47 1.294 . S
C217 C5 1.252 . S
C241 C67 1.340 . S
C249 C81 1.348 . S
C273 C75 1.271 . S
C281 C89 1.259 . S
C305 C95 1.343 . S
C313 C109 1.370 . S
C337 C61 1.246 . S
C345 C103 1.254 . S
C369 C12 1.467 . S
C377 C110 1.480 . S
C401 C60 1.435 . S
C409 C18 1.424 . S
C433 C82 1.479 . S
C441 C40 1.475 . S
C465 C46 1.384 . S
C473 C88 1.409 . S
C497 C32 1.432 . S
C505 C102 1.415 . S
C529 C68 1.469 . S
C537 C54 1.478 . S
C561 C74 1.423 . S
C569 C4 1.424 . S
C593 C26 1.470 . S
C601 C96 1.480 . S
