# Generated by pormake.
# Topology uki, (4)-cn, num edge types: 1
# Building blocks:
#     Node 0, Type 0, BuildingBlock: CEKHIL_clean_sbu_0, # of connection points: 4
#     Node 1, Type 0, BuildingBlock: CEKHIL_clean_sbu_0, # of connection points: 4
#     Node 2, Type 0, BuildingBlock: CEKHIL_clean_sbu_0, # of connection points: 4
#     Node 3, Type 0, BuildingBlock: CEKHIL_clean_sbu_0, # of connection points: 4
#     Node 4, Type 0, BuildingBlock: CEKHIL_clean_sbu_0, # of connection points: 4
#     Node 5, Type 0, BuildingBlock: CEKHIL_clean_sbu_0, # of connection points: 4
#     Node 6, Type 0, BuildingBlock: CEKHIL_clean_sbu_0, # of connection points: 4
#     Node 7, Type 0, BuildingBlock: CEKHIL_clean_sbu_0, # of connection points: 4
#     Node 8, Type 0, BuildingBlock: CEKHIL_clean_sbu_0, # of connection points: 4
#     Node 9, Type 0, BuildingBlock: CEKHIL_clean_sbu_0, # of connection points: 4
#     Node 10, Type 0, BuildingBlock: CEKHIL_clean_sbu_0, # of connection points: 4
#     Node 11, Type 0, BuildingBlock: CEKHIL_clean_sbu_0, # of connection points: 4
#     Node 12, Type 0, BuildingBlock: CEKHIL_clean_sbu_0, # of connection points: 4
#     Node 13, Type 0, BuildingBlock: CEKHIL_clean_sbu_0, # of connection points: 4
#     Node 14, Type 0, BuildingBlock: CEKHIL_clean_sbu_0, # of connection points: 4
#     Node 15, Type 0, BuildingBlock: CEKHIL_clean_sbu_0, # of connection points: 4
#     Edge 16, Type (0, 0), BuildingBlock: KIFKEQ_clean_linker_1, # of connection points: 2
#     Edge 17, Type (0, 0), BuildingBlock: KIFKEQ_clean_linker_1, # of connection points: 2
#     Edge 18, Type (0, 0), BuildingBlock: KIFKEQ_clean_linker_1, # of connection points: 2
#     Edge 19, Type (0, 0), BuildingBlock: KIFKEQ_clean_linker_1, # of connection points: 2
#     Edge 20, Type (0, 0), BuildingBlock: KIFKEQ_clean_linker_1, # of connection points: 2
#     Edge 21, Type (0, 0), BuildingBlock: KIFKEQ_clean_linker_1, # of connection points: 2
#     Edge 22, Type (0, 0), BuildingBlock: KIFKEQ_clean_linker_1, # of connection points: 2
#     Edge 23, Type (0, 0), BuildingBlock: KIFKEQ_clean_linker_1, # of connection points: 2
#     Edge 24, Type (0, 0), BuildingBlock: KIFKEQ_clean_linker_1, # of connection points: 2
#     Edge 25, Type (0, 0), BuildingBlock: KIFKEQ_clean_linker_1, # of connection points: 2
#     Edge 26, Type (0, 0), BuildingBlock: KIFKEQ_clean_linker_1, # of connection points: 2
#     Edge 27, Type (0, 0), BuildingBlock: KIFKEQ_clean_linker_1, # of connection points: 2
#     Edge 28, Type (0, 0), BuildingBlock: KIFKEQ_clean_linker_1, # of connection points: 2
#     Edge 29, Type (0, 0), BuildingBlock: KIFKEQ_clean_linker_1, # of connection points: 2
#     Edge 30, Type (0, 0), BuildingBlock: KIFKEQ_clean_linker_1, # of connection points: 2
#     Edge 31, Type (0, 0), BuildingBlock: KIFKEQ_clean_linker_1, # of connection points: 2
#     Edge 32, Type (0, 0), BuildingBlock: KIFKEQ_clean_linker_1, # of connection points: 2
#     Edge 33, Type (0, 0), BuildingBlock: KIFKEQ_clean_linker_1, # of connection points: 2
#     Edge 34, Type (0, 0), BuildingBlock: KIFKEQ_clean_linker_1, # of connection points: 2
#     Edge 35, Type (0, 0), BuildingBlock: KIFKEQ_clean_linker_1, # of connection points: 2
#     Edge 36, Type (0, 0), BuildingBlock: KIFKEQ_clean_linker_1, # of connection points: 2
#     Edge 37, Type (0, 0), BuildingBlock: KIFKEQ_clean_linker_1, # of connection points: 2
#     Edge 38, Type (0, 0), BuildingBlock: KIFKEQ_clean_linker_1, # of connection points: 2
#     Edge 39, Type (0, 0), BuildingBlock: KIFKEQ_clean_linker_1, # of connection points: 2
#     Edge 40, Type (0, 0), BuildingBlock: KIFKEQ_clean_linker_1, # of connection points: 2
#     Edge 41, Type (0, 0), BuildingBlock: KIFKEQ_clean_linker_1, # of connection points: 2
#     Edge 42, Type (0, 0), BuildingBlock: KIFKEQ_clean_linker_1, # of connection points: 2
#     Edge 43, Type (0, 0), BuildingBlock: KIFKEQ_clean_linker_1, # of connection points: 2
#     Edge 44, Type (0, 0), BuildingBlock: KIFKEQ_clean_linker_1, # of connection points: 2
#     Edge 45, Type (0, 0), BuildingBlock: KIFKEQ_clean_linker_1, # of connection points: 2
#     Edge 46, Type (0, 0), BuildingBlock: KIFKEQ_clean_linker_1, # of connection points: 2
#     Edge 47, Type (0, 0), BuildingBlock: KIFKEQ_clean_linker_1, # of connection points: 2
# Relax obj value: 0.100
# Max RMSD: 0.196
# Mean RMSD: 0.196
data_MOF--net-uki--node1-CEKHIL_clean_sbu_0--edge1-KIFKEQ_clean_linker_1
_symmetry_space_group_name_H-M    P1
_symmetry_Int_Tables_number       1
_symmetry_cell_setting            triclinic
loop_
_symmetry_equiv_pos_as_xyz
'x, y, z'
_cell_length_a     30.832417
_cell_length_b     30.844447
_cell_length_c     73.690635
_cell_angle_alpha  89.998639
_cell_angle_beta   89.999105
_cell_angle_gamma 89.999112
loop_
_atom_site_label
_atom_site_type_symbol
_atom_site_fract_x
_atom_site_fract_y
_atom_site_fract_z
_atom_type_partial_charge
Co0 Co 0.12301 0.21428 0.29398 0.0
O1 O 0.17601 0.19083 0.30368 0.0
O2 O 0.11675 0.2028 0.31979 0.0
C3 C 0.1532 0.27014 0.27868 0.0
O4 O 0.06316 0.23967 0.28834 0.0
Co5 Co 0.10983 0.21403 0.25209 0.0
O6 O 0.06427 0.25673 0.25859 0.0
C7 C 0.09155 0.13441 0.27296 0.0
C8 C 0.15717 0.19052 0.3194 0.0
C9 C 0.04684 0.25842 0.27427 0.0
O10 O 0.10076 0.15447 0.28779 0.0
O11 O 0.09596 0.15153 0.25722 0.0
O12 O 0.14605 0.27272 0.29599 0.0
O13 O 0.14722 0.23213 0.27168 0.0
Co14 Co 0.21534 0.87566 0.70801 0.0
O15 O 0.19163 0.82272 0.69837 0.0
O16 O 0.2038 0.88181 0.6822 0.0
C17 C 0.27114 0.84513 0.72328 0.0
O18 O 0.24103 0.93541 0.71351 0.0
Co19 Co 0.21579 0.88928 0.74986 0.0
O20 O 0.25866 0.93453 0.74318 0.0
C21 C 0.13595 0.908 0.72915 0.0
C22 C 0.19146 0.84142 0.68263 0.0
C23 C 0.26009 0.95185 0.72748 0.0
O24 O 0.15564 0.89836 0.71426 0.0
O25 O 0.15333 0.90365 0.74484 0.0
O26 O 0.2737 0.85229 0.70598 0.0
O27 O 0.23321 0.85146 0.73033 0.0
Co28 Co 0.87265 0.78531 0.29446 0.0
O29 O 0.82098 0.8116 0.3041 0.0
O30 O 0.87972 0.79722 0.3202 0.0
C31 C 0.83956 0.73052 0.27955 0.0
O32 O 0.93113 0.75692 0.28883 0.0
Co33 Co 0.88545 0.78366 0.25257 0.0
O34 O 0.9286 0.73869 0.25922 0.0
C35 C 0.90823 0.86276 0.27302 0.0
C36 C 0.83991 0.81137 0.31979 0.0
C37 C 0.94626 0.73682 0.27485 0.0
O38 O 0.89778 0.84372 0.28794 0.0
O39 O 0.90303 0.8454 0.25737 0.0
O40 O 0.84674 0.72823 0.29686 0.0
O41 O 0.84739 0.76793 0.27229 0.0
Co42 Co 0.78711 0.12761 0.70885 0.0
O43 O 0.81172 0.18034 0.69949 0.0
O44 O 0.80006 0.12131 0.68317 0.0
C45 C 0.73093 0.15884 0.72357 0.0
O46 O 0.76024 0.06829 0.71408 0.0
Co47 Co 0.78475 0.11345 0.75058 0.0
O48 O 0.74036 0.0701 0.74349 0.0
C49 C 0.86477 0.09256 0.73038 0.0
C50 C 0.81235 0.1617 0.68374 0.0
C51 C 0.73951 0.05272 0.7278 0.0
O52 O 0.8461 0.10396 0.71549 0.0
O53 O 0.84678 0.09634 0.74598 0.0
O54 O 0.72939 0.1518 0.70624 0.0
O55 O 0.76833 0.1519 0.73105 0.0
Co56 Co 0.12699 0.28666 0.95631 0.0
O57 O 0.17828 0.31271 0.94622 0.0
O58 O 0.11883 0.29828 0.9306 0.0
C59 C 0.16076 0.23203 0.97103 0.0
O60 O 0.0687 0.2584 0.96246 0.0
Co61 Co 0.11612 0.28516 0.99831 0.0
O62 O 0.07249 0.24033 0.99205 0.0
C63 C 0.0925 0.36423 0.97795 0.0
C64 C 0.15872 0.31225 0.93066 0.0
C65 C 0.05412 0.23842 0.97658 0.0
O66 O 0.10225 0.34518 0.96294 0.0
O67 O 0.09841 0.34688 0.99356 0.0
O68 O 0.15268 0.22953 0.9538 0.0
O69 O 0.15328 0.2695 0.9783 0.0
Co70 Co 0.28847 0.87291 0.04184 0.0
O71 O 0.31079 0.82054 0.05252 0.0
O72 O 0.29643 0.88037 0.06786 0.0
C73 C 0.23511 0.84145 0.02551 0.0
O74 O 0.2636 0.93233 0.03511 0.0
Co75 Co 0.29414 0.88389 0.9999 0.0
O76 O 0.25135 0.93038 0.00494 0.0
C77 C 0.37082 0.90375 0.02242 0.0
C78 C 0.30905 0.84005 0.06806 0.0
C79 C 0.24722 0.94826 0.02045 0.0
O80 O 0.34899 0.89521 0.0369 0.0
O81 O 0.35575 0.89827 0.00638 0.0
O82 O 0.22974 0.84991 0.04259 0.0
O83 O 0.27396 0.84731 0.01939 0.0
Co84 Co 0.87216 0.71243 0.96039 0.0
O85 O 0.81975 0.69034 0.94979 0.0
O86 O 0.88024 0.70219 0.93448 0.0
C87 C 0.84134 0.76769 0.97577 0.0
O88 O 0.93151 0.73733 0.96743 0.0
Co89 Co 0.88014 0.70755 0.00246 0.0
O90 O 0.92696 0.74991 0.99752 0.0
C91 C 0.90191 0.63057 0.98068 0.0
C92 C 0.83951 0.69083 0.9343 0.0
C93 C 0.94622 0.754 0.98229 0.0
O94 O 0.89367 0.65209 0.96611 0.0
O95 O 0.89576 0.64588 0.99663 0.0
O96 O 0.84982 0.77105 0.95859 0.0
O97 O 0.846 0.72914 0.98245 0.0
Co98 Co 0.717 0.12729 0.04384 0.0
O99 O 0.69177 0.17978 0.05324 0.0
O100 O 0.70579 0.12142 0.06964 0.0
C101 C 0.7717 0.15888 0.0283 0.0
O102 O 0.74439 0.06817 0.03865 0.0
Co103 Co 0.71785 0.11199 0.00208 0.0
O104 O 0.76225 0.06844 0.009 0.0
C105 C 0.63866 0.09173 0.02303 0.0
C106 C 0.69218 0.16138 0.06905 0.0
C107 C 0.76407 0.05182 0.02482 0.0
O108 O 0.65802 0.1027 0.03782 0.0
O109 O 0.65594 0.09577 0.0073 0.0
O110 O 0.7746 0.15249 0.04565 0.0
O111 O 0.73395 0.15115 0.02135 0.0
Co112 Co 0.62933 0.71477 0.79325 0.0
O113 O 0.68242 0.69178 0.80299 0.0
O114 O 0.62298 0.70315 0.81908 0.0
C115 C 0.65974 0.77035 0.77794 0.0
O116 O 0.56951 0.74029 0.78745 0.0
Co117 Co 0.61645 0.71455 0.75131 0.0
O118 O 0.57162 0.75802 0.75778 0.0
C119 C 0.59741 0.63513 0.77223 0.0
C120 C 0.66362 0.69155 0.81871 0.0
C121 C 0.55384 0.75967 0.77338 0.0
O122 O 0.60706 0.65496 0.78708 0.0
O123 O 0.60178 0.65231 0.75651 0.0
O124 O 0.65238 0.7732 0.79522 0.0
O125 O 0.65369 0.73233 0.77098 0.0
Co126 Co 0.71085 0.37361 0.20828 0.0
O127 O 0.68539 0.32279 0.19757 0.0
O128 O 0.70128 0.38267 0.18249 0.0
C129 C 0.76423 0.3393 0.22358 0.0
O130 O 0.73882 0.43158 0.21512 0.0
Co131 Co 0.70878 0.38325 0.25031 0.0
O132 O 0.7541 0.42708 0.24497 0.0
C133 C 0.63134 0.40709 0.22896 0.0
C134 C 0.68703 0.34291 0.18215 0.0
C135 C 0.75751 0.44579 0.22961 0.0
O136 O 0.65186 0.39822 0.21421 0.0
O137 O 0.64728 0.40057 0.24479 0.0
O138 O 0.76808 0.34782 0.20643 0.0
O139 O 0.7262 0.34664 0.23036 0.0
Co140 Co 0.37108 0.2901 0.79133 0.0
O141 O 0.3202 0.31659 0.80162 0.0
O142 O 0.37903 0.29954 0.81719 0.0
C143 C 0.33618 0.2375 0.77579 0.0
O144 O 0.42886 0.26093 0.78504 0.0
Co145 Co 0.383 0.29156 0.74939 0.0
O146 O 0.42596 0.24571 0.75515 0.0
C147 C 0.40737 0.36863 0.77088 0.0
C148 C 0.33949 0.31444 0.81721 0.0
C149 C 0.44371 0.24207 0.7707 0.0
O150 O 0.39725 0.34847 0.78559 0.0
O151 O 0.40134 0.35269 0.75502 0.0
O152 O 0.34388 0.23354 0.79301 0.0
O153 O 0.34491 0.27522 0.76901 0.0
Co154 Co 0.28245 0.62673 0.20764 0.0
O155 O 0.30736 0.67855 0.19747 0.0
O156 O 0.29277 0.61925 0.1818 0.0
C157 C 0.22823 0.65932 0.22307 0.0
O158 O 0.2551 0.568 0.21381 0.0
Co159 Co 0.28327 0.61478 0.24962 0.0
O160 O 0.23855 0.57085 0.24359 0.0
C161 C 0.36175 0.59325 0.22846 0.0
C162 C 0.30633 0.65926 0.18186 0.0
C163 C 0.23592 0.55294 0.22804 0.0
O164 O 0.34168 0.60264 0.21364 0.0
O165 O 0.34511 0.59869 0.24423 0.0
O166 O 0.22482 0.6518 0.20582 0.0
O167 O 0.26623 0.65219 0.2299 0.0
Co168 Co 0.62186 0.78525 0.45668 0.0
O169 O 0.67257 0.81376 0.44721 0.0
O170 O 0.61471 0.79702 0.43096 0.0
C171 C 0.65831 0.7325 0.47154 0.0
O172 O 0.56434 0.75443 0.46191 0.0
Co173 Co 0.60728 0.77933 0.49841 0.0
O174 O 0.56728 0.73233 0.49098 0.0
C175 C 0.58117 0.8589 0.47852 0.0
C176 C 0.65397 0.81257 0.43145 0.0
C177 C 0.54971 0.73197 0.47534 0.0
O178 O 0.59442 0.84257 0.46341 0.0
O179 O 0.58531 0.83964 0.49384 0.0
O180 O 0.65069 0.72941 0.45429 0.0
O181 O 0.64754 0.76898 0.4789 0.0
Co182 Co 0.7898 0.37323 0.54262 0.0
O183 O 0.80547 0.31853 0.55318 0.0
O184 O 0.80018 0.37989 0.56855 0.0
C185 C 0.73228 0.34893 0.52659 0.0
O186 O 0.77265 0.43519 0.53583 0.0
Co187 Co 0.79734 0.38121 0.50052 0.0
O188 O 0.76971 0.43807 0.50519 0.0
C189 C 0.87517 0.39438 0.52305 0.0
C190 C 0.80743 0.33826 0.56866 0.0
C191 C 0.76489 0.4552 0.52081 0.0
O192 O 0.85238 0.38804 0.53745 0.0
O193 O 0.86002 0.38984 0.50698 0.0
O194 O 0.72873 0.35772 0.54374 0.0
O195 O 0.77145 0.3495 0.52032 0.0
Co196 Co 0.37686 0.21643 0.45663 0.0
O197 O 0.32436 0.19165 0.44702 0.0
O198 O 0.38362 0.20394 0.43094 0.0
C199 C 0.3453 0.27226 0.47144 0.0
O200 O 0.43627 0.24322 0.46208 0.0
Co201 Co 0.39049 0.22026 0.49852 0.0
O202 O 0.43432 0.26408 0.49138 0.0
C203 C 0.41011 0.1391 0.47863 0.0
C204 C 0.34337 0.19111 0.43133 0.0
C205 C 0.45186 0.26428 0.47572 0.0
O206 O 0.39981 0.15719 0.46346 0.0
O207 O 0.40624 0.15806 0.49401 0.0
O208 O 0.35268 0.27438 0.45413 0.0
O209 O 0.35226 0.2348 0.47875 0.0
Co210 Co 0.21603 0.62612 0.54393 0.0
O211 O 0.18938 0.67684 0.55427 0.0
O212 O 0.20708 0.61822 0.56984 0.0
C213 C 0.26841 0.66065 0.52811 0.0
O214 O 0.24544 0.56861 0.53752 0.0
Co215 Co 0.21403 0.61436 0.5019 0.0
O216 O 0.26069 0.57227 0.50763 0.0
C217 C 0.1378 0.58844 0.52367 0.0
C218 C 0.19187 0.65763 0.56987 0.0
C219 C 0.26456 0.55435 0.52314 0.0
O220 O 0.15771 0.59936 0.53835 0.0
O221 O 0.15358 0.59455 0.50779 0.0
O222 O 0.27265 0.65354 0.54536 0.0
O223 O 0.23041 0.65217 0.52157 0.0
H224 H 0.17141 0.27684 0.24211 0.0
H225 H 0.15337 0.35294 0.29075 0.0
H226 H 0.18413 0.34388 0.22476 0.0
H227 H 0.16593 0.41876 0.2737 0.0
H228 H 0.15685 0.53431 0.24159 0.0
H229 H 0.13062 0.46262 0.25014 0.0
H230 H 0.24102 0.40416 0.22364 0.0
H231 H 0.26652 0.47633 0.21457 0.0
C232 C 0.1701 0.30775 0.24906 0.0
C233 C 0.16149 0.30961 0.2678 0.0
C234 C 0.17733 0.34602 0.23915 0.0
C235 C 0.17535 0.38666 0.24779 0.0
C236 C 0.16666 0.38814 0.2665 0.0
C237 C 0.1599 0.35024 0.27635 0.0
C238 C 0.17449 0.506 0.23695 0.0
C239 C 0.21373 0.51068 0.22752 0.0
C240 C 0.15975 0.46499 0.24198 0.0
C241 C 0.18442 0.42785 0.238 0.0
C242 C 0.22135 0.43217 0.22692 0.0
C243 C 0.23587 0.47343 0.22166 0.0
H244 H 0.53486 0.83966 0.76104 0.0
H245 H 0.47719 0.72731 0.78615 0.0
H246 H 0.46311 0.8661 0.75265 0.0
H247 H 0.40492 0.75315 0.77727 0.0
H248 H 0.2775 0.82475 0.75966 0.0
H249 H 0.34438 0.81067 0.77697 0.0
H250 H 0.4198 0.83186 0.72838 0.0
H251 H 0.3541 0.84565 0.71136 0.0
C252 C 0.50658 0.82144 0.76532 0.0
C253 C 0.51138 0.78145 0.77415 0.0
C254 C 0.46555 0.83632 0.76038 0.0
C255 C 0.42849 0.81112 0.76387 0.0
C256 C 0.43288 0.77326 0.77439 0.0
C257 C 0.47418 0.75854 0.77954 0.0
C258 C 0.30849 0.82643 0.75278 0.0
C259 C 0.31054 0.83621 0.73415 0.0
C260 C 0.34666 0.81841 0.76266 0.0
C261 C 0.38739 0.82081 0.75411 0.0
C262 C 0.38908 0.83072 0.73551 0.0
C263 C 0.35126 0.83821 0.72568 0.0
H264 H 0.83317 0.46499 0.24613 0.0
H265 H 0.73072 0.52193 0.21417 0.0
H266 H 0.85805 0.537 0.25484 0.0
H267 H 0.75508 0.59457 0.22327 0.0
H268 H 0.82859 0.72163 0.24251 0.0
H269 H 0.81558 0.65379 0.2257 0.0
H270 H 0.81548 0.5831 0.27628 0.0
H271 H 0.82821 0.64965 0.29282 0.0
C272 C 0.81689 0.49307 0.24049 0.0
C273 C 0.77987 0.48803 0.22963 0.0
C274 C 0.83089 0.53427 0.24557 0.0
C275 C 0.80777 0.57131 0.24012 0.0
C276 C 0.77345 0.56656 0.2277 0.0
C277 C 0.75961 0.52505 0.22244 0.0
C278 C 0.82562 0.6915 0.24995 0.0
C279 C 0.82959 0.69096 0.26898 0.0
C280 C 0.81827 0.6528 0.24035 0.0
C281 C 0.81539 0.61307 0.24965 0.0
C282 C 0.81866 0.61298 0.26866 0.0
C283 C 0.8256 0.65131 0.27817 0.0
H284 H 0.46337 0.16648 0.7542 0.0
H285 H 0.51911 0.26793 0.78706 0.0
H286 H 0.53573 0.14107 0.74628 0.0
H287 H 0.59213 0.24305 0.77874 0.0
H288 H 0.71999 0.16911 0.7606 0.0
H289 H 0.65121 0.18226 0.77676 0.0
H290 H 0.58345 0.18339 0.72548 0.0
H291 H 0.65083 0.17051 0.70961 0.0
C292 C 0.49122 0.18243 0.76021 0.0
C293 C 0.48578 0.21933 0.7711 0.0
C294 C 0.53264 0.16811 0.75558 0.0
C295 C 0.56954 0.1908 0.76151 0.0
C296 C 0.56426 0.22499 0.77395 0.0
C297 C 0.52252 0.23914 0.77877 0.0
C298 C 0.69029 0.1723 0.75287 0.0
C299 C 0.69082 0.16858 0.73384 0.0
C300 C 0.65104 0.17974 0.7621 0.0
C301 C 0.61184 0.18298 0.75241 0.0
C302 C 0.61285 0.17992 0.7334 0.0
C303 C 0.65168 0.17287 0.72427 0.0
H304 H 0.2762 0.02458 0.03493 0.0
H305 H 0.17005 0.96736 0.00527 0.0
H306 H 0.25094 0.09714 0.02609 0.0
H307 H 0.14404 0.03919 0.99702 0.0
H308 H 0.169 0.1506 0.95799 0.0
H309 H 0.18335 0.08447 0.97455 0.0
H310 H 0.19095 0.15665 0.02466 0.0
H311 H 0.17633 0.22412 0.00782 0.0
C312 C 0.24636 0.02766 0.02727 0.0
C313 C 0.22516 0.99058 0.02065 0.0
C314 C 0.23198 0.0691 0.02217 0.0
C315 C 0.19613 0.07369 0.01051 0.0
C316 C 0.17232 0.03659 0.00569 0.0
C317 C 0.18695 0.99547 0.01053 0.0
C318 C 0.17364 0.15268 0.97254 0.0
C319 C 0.17139 0.19265 0.98159 0.0
C320 C 0.18149 0.11459 0.98208 0.0
C321 C 0.18744 0.11521 0.00097 0.0
C322 C 0.1862 0.15524 0.01011 0.0
C323 C 0.17791 0.19372 0.00049 0.0
H324 H 0.16762 0.89588 0.02205 0.0
H325 H 0.21735 0.77392 0.00262 0.0
H326 H 0.10053 0.88428 0.00553 0.0
H327 H 0.14806 0.75948 0.98746 0.0
H328 H 0.01817 0.74204 0.96045 0.0
H329 H 0.09144 0.77016 0.96617 0.0
H330 H 0.0419 0.8425 0.01203 0.0
H331 H 0.96999 0.81667 0.00572 0.0
C332 C 0.16411 0.86664 0.01405 0.0
C333 C 0.19732 0.83573 0.01359 0.0
C334 C 0.12541 0.85959 0.00475 0.0
C335 C 0.11798 0.82025 0.99555 0.0
C336 C 0.15242 0.79025 0.99428 0.0
C337 C 0.19202 0.79823 0.00308 0.0
C338 C 0.02305 0.76511 0.97134 0.0
C339 C 0.98846 0.77679 0.98275 0.0
C340 C 0.06509 0.78079 0.97479 0.0
C341 C 0.07307 0.80846 0.98968 0.0
C342 C 0.03757 0.822 1.00025 0.0
C343 C 0.99602 0.80669 0.99675 0.0
H344 H 0.84177 0.85044 0.96391 0.0
H345 H 0.82323 0.77405 0.01246 0.0
H346 H 0.83075 0.91618 0.98108 0.0
H347 H 0.81188 0.84126 0.02996 0.0
H348 H 0.73096 0.97688 0.03875 0.0
H349 H 0.75522 0.90369 0.03056 0.0
H350 H 0.86883 0.95816 0.00497 0.0
H351 H 0.84383 0.03089 0.0126 0.0
C352 C 0.83544 0.84763 0.97833 0.0
C353 C 0.83337 0.80695 0.98681 0.0
C354 C 0.82957 0.88551 0.98823 0.0
C355 C 0.82128 0.884 0.00695 0.0
C356 C 0.81854 0.84334 0.01555 0.0
C357 C 0.82493 0.80501 0.00556 0.0
C358 C 0.76204 0.97289 0.03209 0.0
C359 C 0.78544 0.00929 0.02613 0.0
C360 C 0.77587 0.93105 0.02736 0.0
C361 C 0.81335 0.92536 0.01674 0.0
C362 C 0.83931 0.96165 0.01282 0.0
C363 C 0.82525 0.00324 0.0173 0.0
H364 H 0.7778 0.17409 0.99148 0.0
H365 H 0.85446 0.16304 0.04034 0.0
H366 H 0.84454 0.18633 0.97383 0.0
H367 H 0.92001 0.17493 0.02296 0.0
H368 H 0.9778 0.26915 0.9628 0.0
H369 H 0.90535 0.24487 0.97214 0.0
H370 H 0.96274 0.13517 0.9995 0.0
H371 H 0.03469 0.16 0.99059 0.0
C372 C 0.80875 0.17427 0.99842 0.0
C373 C 0.81089 0.1676 0.01729 0.0
C374 C 0.84683 0.1812 0.98833 0.0
C375 C 0.88753 0.1808 0.99696 0.0
C376 C 0.88929 0.17438 0.01582 0.0
C377 C 0.85157 0.16798 0.02583 0.0
C378 C 0.9746 0.23885 0.97012 0.0
C379 C 0.01165 0.21657 0.97614 0.0
C380 C 0.93319 0.22505 0.97553 0.0
C381 C 0.92857 0.18874 0.98693 0.0
C382 C 0.96542 0.16381 0.99106 0.0
C383 C 0.00656 0.17777 0.98584 0.0
H384 H 0.67903 0.77614 0.74149 0.0
H385 H 0.65825 0.85343 0.78961 0.0
H386 H 0.69105 0.84282 0.72382 0.0
H387 H 0.66998 0.91894 0.77222 0.0
H388 H 0.65919 0.03284 0.73961 0.0
H389 H 0.63362 0.96064 0.74777 0.0
H390 H 0.74779 0.9044 0.72331 0.0
H391 H 0.77271 0.97703 0.71464 0.0
C392 C 0.67696 0.80724 0.74825 0.0
C393 C 0.6678 0.80959 0.76693 0.0
C394 C 0.68375 0.84527 0.73816 0.0
C395 C 0.68071 0.88609 0.74657 0.0
C396 C 0.67151 0.88808 0.76522 0.0
C397 C 0.66525 0.85041 0.77526 0.0
C398 C 0.67781 0.00488 0.73528 0.0
C399 C 0.71795 0.01029 0.72663 0.0
C400 C 0.66342 0.96362 0.74008 0.0
C401 C 0.68933 0.92705 0.73662 0.0
C402 C 0.72719 0.93201 0.72616 0.0
C403 C 0.74139 0.97352 0.72114 0.0
H404 H 0.9715 0.22484 0.28784 0.0
H405 H 0.0255 0.33727 0.26138 0.0
H406 H 0.89829 0.24826 0.27901 0.0
H407 H 0.95286 0.36108 0.25294 0.0
H408 H 0.76964 0.32371 0.26047 0.0
H409 H 0.83615 0.3098 0.27815 0.0
H410 H 0.91168 0.31758 0.22894 0.0
H411 H 0.84652 0.33089 0.21152 0.0
C412 C 0.96748 0.25562 0.28096 0.0
C413 C 0.00393 0.2792 0.27514 0.0
C414 C 0.92567 0.26892 0.27585 0.0
C415 C 0.92013 0.30596 0.26497 0.0
C416 C 0.95633 0.33201 0.26107 0.0
C417 C 0.99784 0.31858 0.26599 0.0
C418 C 0.80054 0.32222 0.25351 0.0
C419 C 0.80287 0.3286 0.23462 0.0
C420 C 0.83845 0.31437 0.26361 0.0
C421 C 0.87909 0.31352 0.25494 0.0
C422 C 0.88097 0.3191 0.23606 0.0
C423 C 0.84346 0.32642 0.22605 0.0
H424 H 0.22851 0.02525 0.71127 0.0
H425 H 0.33605 0.97586 0.74253 0.0
H426 H 0.2498 0.09973 0.71923 0.0
H427 H 0.35744 0.04968 0.75021 0.0
H428 H 0.33218 0.22922 0.73841 0.0
H429 H 0.31902 0.16182 0.72119 0.0
H430 H 0.30091 0.09267 0.77152 0.0
H431 H 0.31345 0.15874 0.7885 0.0
C432 C 0.25786 0.03042 0.71907 0.0
C433 C 0.28047 0.995 0.72647 0.0
C434 C 0.26993 0.07295 0.72364 0.0
C435 C 0.30477 0.08017 0.73556 0.0
C436 C 0.33018 0.04484 0.74115 0.0
C437 C 0.31803 0.00266 0.73672 0.0
C438 C 0.32492 0.19962 0.7457 0.0
C439 C 0.32432 0.19914 0.76481 0.0
C440 C 0.3175 0.16123 0.73587 0.0
C441 C 0.30987 0.12208 0.7451 0.0
C442 C 0.30765 0.12226 0.7641 0.0
C443 C 0.31469 0.16022 0.77382 0.0
H444 H 0.02205 0.76817 0.2888 0.0
H445 H 0.9662 0.65805 0.26133 0.0
H446 H 0.09473 0.74437 0.27957 0.0
H447 H 0.0384 0.63372 0.25252 0.0
H448 H 0.22279 0.67446 0.25993 0.0
H449 H 0.15627 0.68599 0.27781 0.0
H450 H 0.08003 0.67478 0.22888 0.0
H451 H 0.14532 0.66362 0.21127 0.0
C452 C 0.02554 0.73774 0.28161 0.0
C453 C 0.98872 0.71506 0.27561 0.0
C454 C 0.06708 0.72421 0.27626 0.0
C455 C 0.07202 0.68782 0.26495 0.0
C456 C 0.03543 0.66241 0.26091 0.0
C457 C 0.99416 0.67609 0.26607 0.0
C458 C 0.19172 0.67458 0.25308 0.0
C459 C 0.18927 0.6681 0.2342 0.0
C460 C 0.15378 0.68107 0.2633 0.0
C461 C 0.11295 0.68043 0.25479 0.0
C462 C 0.11088 0.67436 0.23592 0.0
C463 C 0.14845 0.66838 0.22578 0.0
H464 H 0.69034 0.49436 0.5328 0.0
H465 H 0.81406 0.51913 0.50756 0.0
H466 H 0.66565 0.56735 0.52392 0.0
H467 H 0.78977 0.59141 0.49878 0.0
H468 H 0.69899 0.66195 0.45801 0.0
H469 H 0.72719 0.59969 0.47448 0.0
H470 H 0.68444 0.65572 0.52507 0.0
H471 H 0.65657 0.7192 0.50848 0.0
C472 C 0.71275 0.51613 0.52608 0.0
C473 C 0.75402 0.50154 0.52085 0.0
C474 C 0.69867 0.55767 0.52095 0.0
C475 C 0.72572 0.58459 0.51048 0.0
C476 C 0.76823 0.57111 0.50671 0.0
C477 C 0.78218 0.52994 0.51181 0.0
C478 C 0.6957 0.66123 0.47265 0.0
C479 C 0.67573 0.6955 0.48196 0.0
C480 C 0.71201 0.62567 0.48207 0.0
C481 C 0.70825 0.62317 0.50103 0.0
C482 C 0.68777 0.65706 0.51045 0.0
C483 C 0.67205 0.6933 0.50098 0.0
H484 H 0.72803 0.32241 0.49089 0.0
H485 H 0.64863 0.35959 0.53661 0.0
H486 H 0.6621 0.30901 0.47294 0.0
H487 H 0.5838 0.34615 0.51902 0.0
H488 H 0.47088 0.34639 0.48542 0.0
H489 H 0.54253 0.37375 0.49347 0.0
H490 H 0.60047 0.2556 0.47337 0.0
H491 H 0.52848 0.22908 0.46467 0.0
C492 C 0.69661 0.32797 0.49704 0.0
C493 C 0.69347 0.34187 0.51517 0.0
C494 C 0.65896 0.32029 0.48679 0.0
C495 C 0.61769 0.32704 0.49446 0.0
C496 C 0.61496 0.34158 0.5125 0.0
C497 C 0.65225 0.34884 0.5227 0.0
C498 C 0.49917 0.32719 0.482 0.0
C499 C 0.49437 0.2857 0.47449 0.0
C500 C 0.54014 0.34257 0.48677 0.0
C501 C 0.57704 0.3163 0.48454 0.0
C502 C 0.5727 0.27662 0.47528 0.0
C503 C 0.53154 0.26146 0.47022 0.0
H504 H 0.34237 0.5367 0.5081 0.0
H505 H 0.23669 0.47767 0.53743 0.0
H506 H 0.3681 0.46527 0.49893 0.0
H507 H 0.26166 0.4058 0.52779 0.0
H508 H 0.33001 0.27937 0.50812 0.0
H509 H 0.31849 0.34639 0.52552 0.0
H510 H 0.33057 0.42085 0.47613 0.0
H511 H 0.34208 0.35484 0.45899 0.0
C512 C 0.32559 0.50823 0.51311 0.0
C513 C 0.28749 0.51252 0.52335 0.0
C514 C 0.34 0.46738 0.50772 0.0
C515 C 0.31615 0.43005 0.5122 0.0
C516 C 0.28066 0.43399 0.5241 0.0
C517 C 0.26646 0.47508 0.52969 0.0
C518 C 0.33017 0.31016 0.50106 0.0
C519 C 0.33689 0.31186 0.48219 0.0
C520 C 0.32365 0.34842 0.51101 0.0
C521 C 0.32435 0.38894 0.50226 0.0
C522 C 0.33092 0.3903 0.48339 0.0
C523 C 0.33704 0.35233 0.4735 0.0
H524 H 0.47472 0.76491 0.46132 0.0
H525 H 0.52828 0.6528 0.4882 0.0
H526 H 0.40164 0.74262 0.47059 0.0
H527 H 0.45559 0.63005 0.49707 0.0
H528 H 0.27243 0.67469 0.49114 0.0
H529 H 0.33839 0.68446 0.47268 0.0
H530 H 0.4165 0.67414 0.52111 0.0
H531 H 0.35181 0.66493 0.53929 0.0
C532 C 0.47062 0.73433 0.46835 0.0
C533 C 0.507 0.71073 0.47423 0.0
C534 C 0.42884 0.72168 0.47372 0.0
C535 C 0.42319 0.68523 0.48494 0.0
C536 C 0.45917 0.65878 0.48874 0.0
C537 C 0.50071 0.67157 0.48354 0.0
C538 C 0.30379 0.67472 0.49776 0.0
C539 C 0.30694 0.66902 0.51666 0.0
C540 C 0.34139 0.68014 0.48721 0.0
C541 C 0.38255 0.67913 0.49542 0.0
C542 C 0.38533 0.67397 0.51432 0.0
C543 C 0.34811 0.66914 0.52478 0.0
H544 H 0.26204 0.15684 0.4291 0.0
H545 H 0.3674 0.20384 0.3959 0.0
H546 H 0.21663 0.14953 0.40224 0.0
H547 H 0.3216 0.19766 0.36901 0.0
H548 H 0.23913 0.15779 0.32152 0.0
H549 H 0.28466 0.15065 0.34835 0.0
H550 H 0.17902 0.19656 0.38175 0.0
H551 H 0.13309 0.20259 0.35489 0.0
C552 C 0.27569 0.16523 0.41602 0.0
C553 C 0.31835 0.18107 0.41465 0.0
C554 C 0.24946 0.16138 0.40061 0.0
C555 C 0.26512 0.17346 0.38342 0.0
C556 C 0.30846 0.18762 0.38197 0.0
C557 C 0.3348 0.19127 0.3974 0.0
C558 C 0.22537 0.16577 0.33463 0.0
C559 C 0.18246 0.18092 0.33605 0.0
C560 C 0.25167 0.162 0.35002 0.0
C561 C 0.23584 0.17346 0.36725 0.0
C562 C 0.1923 0.18699 0.36875 0.0
C563 C 0.16589 0.19058 0.35334 0.0
H564 H 0.20884 0.63343 0.60501 0.0
H565 H 0.15451 0.73736 0.57301 0.0
H566 H 0.20296 0.67836 0.63219 0.0
H567 H 0.14771 0.78186 0.60015 0.0
H568 H 0.16178 0.7583 0.68049 0.0
H569 H 0.15516 0.71296 0.65358 0.0
H570 H 0.19555 0.82073 0.62015 0.0
H571 H 0.20126 0.86639 0.64711 0.0
C572 C 0.19479 0.6655 0.60384 0.0
C573 C 0.18237 0.68184 0.58682 0.0
C574 C 0.19132 0.69132 0.61943 0.0
C575 C 0.17522 0.73403 0.61838 0.0
C576 C 0.16105 0.74953 0.60145 0.0
C577 C 0.16462 0.72381 0.58589 0.0
C578 C 0.16866 0.77255 0.66737 0.0
C579 C 0.18217 0.816 0.66596 0.0
C580 C 0.1652 0.74638 0.65193 0.0
C581 C 0.17521 0.76292 0.63466 0.0
C582 C 0.18714 0.80691 0.63319 0.0
C583 C 0.19053 0.83315 0.64866 0.0
H584 H 0.73493 0.8478 0.42933 0.0
H585 H 0.63013 0.80014 0.39597 0.0
H586 H 0.7806 0.85516 0.40253 0.0
H587 H 0.67612 0.80669 0.36914 0.0
H588 H 0.86383 0.7992 0.35531 0.0
H589 H 0.81795 0.80648 0.38215 0.0
H590 H 0.71359 0.85485 0.34867 0.0
H591 H 0.75908 0.84673 0.32188 0.0
C592 C 0.72141 0.83939 0.41623 0.0
C593 C 0.67888 0.82321 0.4148 0.0
C594 C 0.74779 0.84328 0.40087 0.0
C595 C 0.73233 0.83108 0.38367 0.0
C596 C 0.68906 0.81678 0.38213 0.0
C597 C 0.66263 0.81293 0.39752 0.0
C598 C 0.83137 0.81209 0.35374 0.0
C599 C 0.81507 0.82211 0.33644 0.0
C600 C 0.80501 0.81637 0.36914 0.0
C601 C 0.7618 0.83086 0.36758 0.0
C602 C 0.74634 0.8428 0.35035 0.0
C603 C 0.77261 0.83845 0.33499 0.0
H604 H 0.83277 0.13238 0.64959 0.0
H605 H 0.81044 0.24928 0.68036 0.0
H606 H 0.83943 0.17533 0.62194 0.0
H607 H 0.81371 0.29191 0.65283 0.0
H608 H 0.8391 0.36644 0.60154 0.0
H609 H 0.84915 0.32352 0.62911 0.0
H610 H 0.79773 0.211 0.60134 0.0
H611 H 0.79099 0.25306 0.57381 0.0
C612 C 0.82937 0.16727 0.65043 0.0
C613 C 0.821 0.18737 0.66713 0.0
C614 C 0.83267 0.19205 0.63453 0.0
C615 C 0.82642 0.23743 0.63488 0.0
C616 C 0.81943 0.25739 0.65181 0.0
C617 C 0.81724 0.23276 0.6677 0.0
C618 C 0.83044 0.33241 0.6014 0.0
C619 C 0.81439 0.31311 0.58553 0.0
C620 C 0.83587 0.3077 0.61724 0.0
C621 C 0.82427 0.26337 0.61768 0.0
C622 C 0.80825 0.24445 0.60165 0.0
C623 C 0.8039 0.26881 0.58579 0.0
H624 H 0.13282 0.30066 0.89534 0.0
H625 H 0.24024 0.34568 0.92788 0.0
H626 H 0.17746 0.30726 0.86809 0.0
H627 H 0.28451 0.35307 0.9007 0.0
H628 H 0.25871 0.34958 0.82034 0.0
H629 H 0.21442 0.35596 0.84758 0.0
H630 H 0.32004 0.30486 0.87963 0.0
H631 H 0.36469 0.2993 0.85236 0.0
C632 C 0.16563 0.31282 0.89664 0.0
C633 C 0.18298 0.32241 0.9138 0.0
C634 C 0.19128 0.3167 0.88101 0.0
C635 C 0.23484 0.33032 0.88219 0.0
C636 C 0.25145 0.3417 0.8993 0.0
C637 C 0.22587 0.33778 0.91488 0.0
C638 C 0.27276 0.3403 0.83324 0.0
C639 C 0.31525 0.32381 0.83416 0.0
C640 C 0.24717 0.34364 0.84885 0.0
C641 C 0.26338 0.33053 0.86581 0.0
C642 C 0.30655 0.31567 0.86684 0.0
C643 C 0.33221 0.3124 0.85119 0.0
H644 H 0.33932 0.74099 0.17896 0.0
H645 H 0.29339 0.6337 0.1466 0.0
H646 H 0.34616 0.78525 0.15173 0.0
H647 H 0.2993 0.67831 0.11934 0.0
H648 H 0.34177 0.7584 0.07137 0.0
H649 H 0.34751 0.71438 0.09867 0.0
H650 H 0.29887 0.82135 0.13058 0.0
H651 H 0.29406 0.86581 0.10321 0.0
C652 C 0.33105 0.72667 0.16599 0.0
C653 C 0.31569 0.68378 0.16497 0.0
C654 C 0.33463 0.75224 0.15038 0.0
C655 C 0.32288 0.73565 0.13331 0.0
C656 C 0.30907 0.69214 0.13221 0.0
C657 C 0.30557 0.6665 0.14785 0.0
C658 C 0.3328 0.77278 0.08424 0.0
C659 C 0.31728 0.81564 0.08509 0.0
C660 C 0.33578 0.74735 0.0999 0.0
C661 C 0.32323 0.764 0.11686 0.0
C662 C 0.30922 0.80747 0.1178 0.0
C663 C 0.30635 0.83302 0.1021 0.0
H664 H 0.75303 0.70022 0.92976 0.0
H665 H 0.86943 0.6663 0.90056 0.0
H666 H 0.71127 0.69571 0.90213 0.0
H667 H 0.82697 0.65815 0.87276 0.0
H668 H 0.75064 0.69942 0.82267 0.0
H669 H 0.7931 0.69471 0.85019 0.0
H670 H 0.67779 0.6579 0.87998 0.0
H671 H 0.63481 0.66628 0.85241 0.0
C672 C 0.76958 0.69071 0.91742 0.0
C673 C 0.81461 0.68371 0.91735 0.0
C674 C 0.74539 0.68768 0.90146 0.0
C675 C 0.76522 0.67643 0.88491 0.0
C676 C 0.81031 0.6679 0.88502 0.0
C677 C 0.8348 0.67214 0.901 0.0
C678 C 0.73438 0.69002 0.83509 0.0
C679 C 0.68927 0.68347 0.83538 0.0
C680 C 0.75894 0.68693 0.85098 0.0
C681 C 0.73933 0.67611 0.86763 0.0
C682 C 0.69426 0.66756 0.86767 0.0
C683 C 0.66946 0.67187 0.85181 0.0
H684 H 0.66139 0.24417 0.07101 0.0
H685 H 0.7009 0.1364 0.10457 0.0
H686 H 0.65295 0.28921 0.09794 0.0
H687 H 0.69335 0.18172 0.13152 0.0
H688 H 0.7045 0.36837 0.14722 0.0
H689 H 0.6996 0.3241 0.11981 0.0
H690 H 0.64376 0.21963 0.15111 0.0
H691 H 0.64959 0.26344 0.17847 0.0
C692 C 0.66788 0.22992 0.08417 0.0
C693 C 0.68195 0.18666 0.08564 0.0
C694 C 0.66336 0.25592 0.09961 0.0
C695 C 0.6728 0.23934 0.11693 0.0
C696 C 0.68532 0.19553 0.11844 0.0
C697 C 0.68979 0.16949 0.10297 0.0
C698 C 0.69049 0.33625 0.14817 0.0
C699 C 0.67772 0.31936 0.16504 0.0
C700 C 0.68759 0.31082 0.13244 0.0
C701 C 0.67172 0.26799 0.13325 0.0
C702 C 0.65698 0.25205 0.15002 0.0
C703 C 0.66001 0.27736 0.1657 0.0
H704 H 0.9515 0.8967 0.30211 0.0
H705 H 0.91989 0.92281 0.24606 0.0
H706 H 0.99889 0.95966 0.30263 0.0
H707 H 0.96567 0.98705 0.24678 0.0
H708 H 0.08299 0.07317 0.24627 0.0
H709 H 0.03875 0.00785 0.24698 0.0
H710 H 0.00373 0.0352 0.30264 0.0
H711 H 0.04957 0.09928 0.30214 0.0
C712 C 0.95386 0.91647 0.29 0.0
C713 C 0.93186 0.90462 0.27403 0.0
C714 C 0.98115 0.95271 0.29029 0.0
C715 C 0.98671 0.97845 0.27469 0.0
C716 C 0.96328 0.96747 0.25893 0.0
C717 C 0.9365 0.93087 0.25857 0.0
C718 C 0.06639 0.06483 0.25875 0.0
C719 C 0.06986 0.09154 0.27413 0.0
C720 C 0.04051 0.0276 0.25911 0.0
C721 C 0.01684 0.01641 0.27477 0.0
C722 C 0.02164 0.04235 0.29036 0.0
C723 C 0.04803 0.07924 0.29008 0.0
H724 H 0.89991 0.05198 0.70087 0.0
H725 H 0.92409 0.07874 0.7575 0.0
H726 H 0.96281 0.0046 0.70002 0.0
H727 H 0.9884 0.03303 0.75647 0.0
H728 H 0.07446 0.91553 0.75578 0.0
H729 H 0.00952 0.96038 0.75543 0.0
H730 H 0.038 0.99872 0.70025 0.0
H731 H 0.10162 0.95218 0.70038 0.0
C732 C 0.91928 0.04861 0.71305 0.0
C733 C 0.90685 0.06923 0.72927 0.0
C734 C 0.95552 0.02131 0.71257 0.0
C735 C 0.98074 0.01435 0.72822 0.0
C736 C 0.96924 0.03648 0.74425 0.0
C737 C 0.9326 0.06324 0.7448 0.0
C738 C 0.06642 0.93299 0.74348 0.0
C739 C 0.09327 0.93017 0.72811 0.0
C740 C 0.02941 0.95925 0.74333 0.0
C741 C 0.01862 0.98402 0.72792 0.0
C742 C 0.04478 0.97997 0.71234 0.0
C743 C 0.08141 0.95316 0.71239 0.0
H744 H 0.08078 0.42352 0.00518 0.0
H745 H 0.04859 0.39863 0.94909 0.0
H746 H 0.03348 0.48667 0.00503 0.0
H747 H 0.99984 0.4606 0.94912 0.0
H748 H 0.91259 0.56784 0.00665 0.0
H749 H 0.95924 0.50428 0.0052 0.0
H750 H 0.99291 0.53629 0.94985 0.0
H751 H 0.94484 0.59864 0.95107 0.0
C752 C 0.06378 0.43166 0.99278 0.0
C753 C 0.06856 0.40595 0.97716 0.0
C754 C 0.03616 0.46761 0.99274 0.0
C755 C 0.01206 0.47851 0.97716 0.0
C756 C 0.018 0.45359 0.96135 0.0
C757 C 0.04609 0.41794 0.96132 0.0
C758 C 0.92939 0.5609 0.99408 0.0
C759 C 0.9249 0.58844 0.979 0.0
C760 C 0.95666 0.5247 0.9933 0.0
C761 C 0.98065 0.51538 0.97751 0.0
C762 C 0.97483 0.54206 0.96221 0.0
C763 C 0.94713 0.57795 0.96291 0.0
H764 H 0.40174 0.94899 0.05165 0.0
H765 H 0.43511 0.91067 0.99702 0.0
H766 H 0.46468 0.99664 0.05254 0.0
H767 H 0.49895 0.95689 0.99815 0.0
H768 H 0.57916 0.07812 0.99607 0.0
H769 H 0.51563 0.03144 0.99701 0.0
H770 H 0.54101 0.00332 0.05349 0.0
H771 H 0.60357 0.05144 0.05271 0.0
C772 C 0.42312 0.94985 0.03999 0.0
C773 C 0.4132 0.92615 0.02422 0.0
C774 C 0.45928 0.97731 0.04049 0.0
C775 C 0.48664 0.98137 0.02529 0.0
C776 C 0.47796 0.95572 0.00991 0.0
C777 C 0.44158 0.92872 0.00934 0.0
C778 C 0.57083 0.06249 0.00876 0.0
C779 C 0.59658 0.06853 0.02429 0.0
C780 C 0.53464 0.03522 0.00926 0.0
C781 C 0.52352 0.01276 0.02523 0.0
C782 C 0.54832 0.02016 0.04096 0.0
C783 C 0.58427 0.04787 0.04052 0.0
H784 H 0.4523 0.39946 0.80016 0.0
H785 H 0.41874 0.43074 0.74477 0.0
H786 H 0.50116 0.46132 0.80115 0.0
H787 H 0.46612 0.49377 0.74598 0.0
H788 H 0.58671 0.5749 0.74533 0.0
H789 H 0.54044 0.51104 0.74585 0.0
H790 H 0.50805 0.53719 0.80188 0.0
H791 H 0.55579 0.59996 0.80154 0.0
C792 C 0.45456 0.42013 0.78831 0.0
C793 C 0.43167 0.41001 0.77235 0.0
C794 C 0.48269 0.45571 0.78888 0.0
C795 C 0.48824 0.4824 0.77356 0.0
C796 C 0.46375 0.47332 0.75788 0.0
C797 C 0.4361 0.43743 0.75724 0.0
C798 C 0.57028 0.5666 0.75785 0.0
C799 C 0.57496 0.59266 0.77337 0.0
C800 C 0.54324 0.53023 0.7581 0.0
C801 C 0.51965 0.51925 0.7738 0.0
C802 C 0.52579 0.54432 0.78955 0.0
C803 C 0.55329 0.58041 0.78937 0.0
H804 H 0.56931 0.41674 0.25526 0.0
H805 H 0.59896 0.45156 0.19984 0.0
H806 H 0.50514 0.46262 0.25429 0.0
H807 H 0.53588 0.49889 0.1991 0.0
H808 H 0.39644 0.55114 0.19915 0.0
H809 H 0.45972 0.50403 0.19864 0.0
H810 H 0.48647 0.53666 0.25458 0.0
H811 H 0.42219 0.58233 0.25529 0.0
C812 C 0.56203 0.43404 0.24283 0.0
C813 C 0.58935 0.43043 0.22765 0.0
C814 C 0.52546 0.46082 0.24233 0.0
C815 C 0.51555 0.48522 0.22672 0.0
C816 C 0.54213 0.48045 0.21132 0.0
C817 C 0.57842 0.45321 0.21175 0.0
C818 C 0.41617 0.54877 0.21127 0.0
C819 C 0.40405 0.57043 0.22729 0.0
C820 C 0.45256 0.52165 0.21098 0.0
C821 C 0.47804 0.51586 0.22665 0.0
C822 C 0.46701 0.53923 0.2424 0.0
C823 C 0.43037 0.56591 0.24275 0.0
H824 H 0.42158 0.08383 0.44959 0.0
H825 H 0.44813 0.09673 0.50694 0.0
H826 H 0.46214 0.01575 0.44914 0.0
H827 H 0.48976 0.03043 0.50632 0.0
H828 H 0.52806 0.89064 0.50486 0.0
H829 H 0.48386 0.95539 0.50413 0.0
H830 H 0.53406 0.98668 0.45094 0.0
H831 H 0.57722 0.92014 0.45135 0.0
C832 C 0.43583 0.07213 0.46212 0.0
C833 C 0.43126 0.09579 0.47833 0.0
C834 C 0.4595 0.0333 0.4618 0.0
C835 C 0.47938 0.01742 0.47768 0.0
C836 C 0.47431 0.04098 0.49387 0.0
C837 C 0.45041 0.07934 0.49423 0.0
C838 C 0.53009 0.9114 0.49302 0.0
C839 C 0.55667 0.90033 0.47823 0.0
C840 C 0.50466 0.94876 0.49263 0.0
C841 C 0.5055 0.97669 0.47755 0.0
C842 C 0.53213 0.96571 0.46271 0.0
C843 C 0.55725 0.9278 0.463 0.0
H844 H 0.93946 0.4012 0.49755 0.0
H845 H 0.9082 0.43579 0.55284 0.0
H846 H 0.0032 0.44764 0.49879 0.0
H847 H 0.97089 0.48352 0.55385 0.0
H848 H 0.07744 0.5733 0.49723 0.0
H849 H 0.01668 0.52315 0.49826 0.0
H850 H 0.04713 0.49268 0.55408 0.0
H851 H 0.10702 0.54416 0.55323 0.0
C852 C 0.94648 0.41825 0.51006 0.0
C853 C 0.91848 0.41487 0.52504 0.0
C854 C 0.98275 0.4454 0.5107 0.0
C855 C 0.99171 0.47031 0.52627 0.0
C856 C 0.96519 0.46487 0.54164 0.0
C857 C 0.92917 0.43731 0.54106 0.0
C858 C 0.07084 0.55637 0.50981 0.0
C859 C 0.09718 0.56283 0.52513 0.0
C860 C 0.03628 0.52709 0.51034 0.0
C861 C 0.02739 0.50303 0.52614 0.0
C862 C 0.05279 0.51067 0.54168 0.0
C863 C 0.08714 0.54035 0.54121 0.0
loop_
_geom_bond_atom_site_label_1
_geom_bond_atom_site_label_2
_geom_bond_distance
_geom_bond_site_symmetry_2
_ccdc_geom_bond_type
Co0 O1 2.216 . S
Co0 O2 2.091 . S
Co0 O4 2.004 . S
Co0 O10 2.021 . S
Co0 O12 2.137 . S
Co0 O13 2.244 . S
O1 Co0 2.216 . S
O1 C8 1.247 . S
O2 Co0 2.091 . S
O2 C8 1.261 . S
C3 O12 1.247 . S
C3 O13 1.272 . S
O4 Co0 2.004 . S
O4 C9 1.259 . S
Co5 O6 2.061 . S
Co5 O11 2.052 . S
Co5 O13 2.135 . S
O6 Co5 2.061 . S
O6 C9 1.235 . S
C7 O10 1.238 . S
C7 O11 1.241 . S
C8 O1 1.247 . S
C8 O2 1.261 . S
C9 O4 1.259 . S
C9 O6 1.235 . S
O10 Co0 2.021 . S
O10 C7 1.238 . S
O11 Co5 2.052 . S
O11 C7 1.241 . S
O12 Co0 2.137 . S
O12 C3 1.247 . S
O13 Co0 2.244 . S
O13 C3 1.272 . S
O13 Co5 2.135 . S
Co14 O15 2.216 . S
Co14 O16 2.091 . S
Co14 O18 2.004 . S
Co14 O24 2.021 . S
Co14 O26 2.137 . S
Co14 O27 2.244 . S
O15 Co14 2.216 . S
O15 C22 1.247 . S
O16 Co14 2.091 . S
O16 C22 1.261 . S
C17 O26 1.247 . S
C17 O27 1.272 . S
O18 Co14 2.004 . S
O18 C23 1.259 . S
Co19 O20 2.061 . S
Co19 O25 2.052 . S
Co19 O27 2.135 . S
O20 Co19 2.061 . S
O20 C23 1.235 . S
C21 O24 1.238 . S
C21 O25 1.241 . S
C22 O15 1.247 . S
C22 O16 1.261 . S
C23 O18 1.259 . S
C23 O20 1.235 . S
O24 Co14 2.021 . S
O24 C21 1.238 . S
O25 Co19 2.052 . S
O25 C21 1.241 . S
O26 Co14 2.137 . S
O26 C17 1.247 . S
O27 Co14 2.244 . S
O27 C17 1.272 . S
O27 Co19 2.135 . S
Co28 O29 2.216 . S
Co28 O30 2.091 . S
Co28 O32 2.004 . S
Co28 O38 2.021 . S
Co28 O40 2.137 . S
Co28 O41 2.244 . S
O29 Co28 2.216 . S
O29 C36 1.247 . S
O30 Co28 2.091 . S
O30 C36 1.261 . S
C31 O40 1.247 . S
C31 O41 1.272 . S
O32 Co28 2.004 . S
O32 C37 1.259 . S
Co33 O34 2.061 . S
Co33 O39 2.052 . S
Co33 O41 2.135 . S
O34 Co33 2.061 . S
O34 C37 1.235 . S
C35 O38 1.238 . S
C35 O39 1.241 . S
C36 O29 1.247 . S
C36 O30 1.261 . S
C37 O32 1.259 . S
C37 O34 1.235 . S
O38 Co28 2.021 . S
O38 C35 1.238 . S
O39 Co33 2.052 . S
O39 C35 1.241 . S
O40 Co28 2.137 . S
O40 C31 1.247 . S
O41 Co28 2.244 . S
O41 C31 1.272 . S
O41 Co33 2.135 . S
Co42 O43 2.216 . S
Co42 O44 2.091 . S
Co42 O46 2.004 . S
Co42 O52 2.021 . S
Co42 O54 2.137 . S
Co42 O55 2.244 . S
O43 Co42 2.216 . S
O43 C50 1.247 . S
O44 Co42 2.091 . S
O44 C50 1.261 . S
C45 O54 1.247 . S
C45 O55 1.272 . S
O46 Co42 2.004 . S
O46 C51 1.259 . S
Co47 O48 2.061 . S
Co47 O53 2.052 . S
Co47 O55 2.135 . S
O48 Co47 2.061 . S
O48 C51 1.235 . S
C49 O52 1.238 . S
C49 O53 1.241 . S
C50 O43 1.247 . S
C50 O44 1.261 . S
C51 O46 1.259 . S
C51 O48 1.235 . S
O52 Co42 2.021 . S
O52 C49 1.238 . S
O53 Co47 2.052 . S
O53 C49 1.241 . S
O54 Co42 2.137 . S
O54 C45 1.247 . S
O55 Co42 2.244 . S
O55 C45 1.272 . S
O55 Co47 2.135 . S
Co56 O57 2.216 . S
Co56 O58 2.091 . S
Co56 O60 2.004 . S
Co56 O66 2.021 . S
Co56 O68 2.137 . S
Co56 O69 2.244 . S
O57 Co56 2.216 . S
O57 C64 1.247 . S
O58 Co56 2.091 . S
O58 C64 1.261 . S
C59 O68 1.247 . S
C59 O69 1.272 . S
O60 Co56 2.004 . S
O60 C65 1.259 . S
Co61 O62 2.044 1_554 S
Co61 O67 2.032 1_554 S
Co61 O69 2.114 1_554 S
O62 Co61 2.044 1_556 S
O62 C65 1.235 . S
C63 O66 1.238 . S
C63 O67 1.241 . S
C64 O57 1.247 . S
C64 O58 1.261 . S
C65 O60 1.259 . S
C65 O62 1.235 . S
O66 Co56 2.021 . S
O66 C63 1.238 . S
O67 Co61 2.032 1_556 S
O67 C63 1.241 . S
O68 Co56 2.137 . S
O68 C59 1.247 . S
O69 Co56 2.244 . S
O69 C59 1.272 . S
O69 Co61 2.114 1_556 S
Co70 O71 2.216 . S
Co70 O72 2.091 . S
Co70 O74 2.004 . S
Co70 O80 2.021 . S
Co70 O82 2.137 . S
Co70 O83 2.244 . S
O71 Co70 2.216 . S
O71 C78 1.247 . S
O72 Co70 2.091 . S
O72 C78 1.261 . S
C73 O82 1.247 . S
C73 O83 1.272 . S
O74 Co70 2.004 . S
O74 C79 1.259 . S
Co75 O76 2.044 1_556 S
Co75 O81 2.032 1_556 S
Co75 O83 2.114 1_556 S
O76 Co75 2.044 1_554 S
O76 C79 1.235 . S
C77 O80 1.238 . S
C77 O81 1.241 . S
C78 O71 1.247 . S
C78 O72 1.261 . S
C79 O74 1.259 . S
C79 O76 1.235 . S
O80 Co70 2.021 . S
O80 C77 1.238 . S
O81 Co75 2.032 1_554 S
O81 C77 1.241 . S
O82 Co70 2.137 . S
O82 C73 1.247 . S
O83 Co70 2.244 . S
O83 C73 1.272 . S
O83 Co75 2.114 1_554 S
Co84 O85 2.216 . S
Co84 O86 2.091 . S
Co84 O88 2.004 . S
Co84 O94 2.021 . S
Co84 O96 2.137 . S
Co84 O97 2.244 . S
O85 Co84 2.216 . S
O85 C92 1.247 . S
O86 Co84 2.091 . S
O86 C92 1.261 . S
C87 O96 1.247 . S
C87 O97 1.272 . S
O88 Co84 2.004 . S
O88 C93 1.259 . S
Co89 O90 2.044 1_554 S
Co89 O95 2.032 1_554 S
Co89 O97 2.113 1_554 S
O90 Co89 2.044 1_556 S
O90 C93 1.235 . S
C91 O94 1.238 . S
C91 O95 1.241 . S
C92 O85 1.247 . S
C92 O86 1.261 . S
C93 O88 1.259 . S
C93 O90 1.235 . S
O94 Co84 2.021 . S
O94 C91 1.238 . S
O95 Co89 2.032 1_556 S
O95 C91 1.241 . S
O96 Co84 2.137 . S
O96 C87 1.247 . S
O97 Co84 2.244 . S
O97 C87 1.272 . S
O97 Co89 2.113 1_556 S
Co98 O99 2.216 . S
Co98 O100 2.091 . S
Co98 O102 2.004 . S
Co98 O108 2.021 . S
Co98 O110 2.137 . S
Co98 O111 2.244 . S
O99 Co98 2.216 . S
O99 C106 1.247 . S
O100 Co98 2.091 . S
O100 C106 1.261 . S
C101 O110 1.247 . S
C101 O111 1.272 . S
O102 Co98 2.004 . S
O102 C107 1.259 . S
Co103 O104 2.044 1_556 S
Co103 O109 2.032 1_556 S
Co103 O111 2.113 1_556 S
O104 Co103 2.044 1_554 S
O104 C107 1.235 . S
C105 O108 1.238 . S
C105 O109 1.241 . S
C106 O99 1.247 . S
C106 O100 1.261 . S
C107 O102 1.259 . S
C107 O104 1.235 . S
O108 Co98 2.021 . S
O108 C105 1.238 . S
O109 Co103 2.032 1_554 S
O109 C105 1.241 . S
O110 Co98 2.137 . S
O110 C101 1.247 . S
O111 Co98 2.244 . S
O111 C101 1.272 . S
O111 Co103 2.113 1_554 S
Co112 O113 2.216 . S
Co112 O114 2.091 . S
Co112 O116 2.004 . S
Co112 O122 2.021 . S
Co112 O124 2.137 . S
Co112 O125 2.244 . S
O113 Co112 2.216 . S
O113 C120 1.247 . S
O114 Co112 2.091 . S
O114 C120 1.261 . S
C115 O124 1.247 . S
C115 O125 1.272 . S
O116 Co112 2.004 . S
O116 C121 1.259 . S
Co117 O118 2.061 . S
Co117 O123 2.052 . S
Co117 O125 2.135 . S
O118 Co117 2.061 . S
O118 C121 1.235 . S
C119 O122 1.238 . S
C119 O123 1.241 . S
C120 O113 1.247 . S
C120 O114 1.261 . S
C121 O116 1.259 . S
C121 O118 1.235 . S
O122 Co112 2.021 . S
O122 C119 1.238 . S
O123 Co117 2.052 . S
O123 C119 1.241 . S
O124 Co112 2.137 . S
O124 C115 1.247 . S
O125 Co112 2.244 . S
O125 C115 1.272 . S
O125 Co117 2.135 . S
Co126 O127 2.216 . S
Co126 O128 2.091 . S
Co126 O130 2.004 . S
Co126 O136 2.021 . S
Co126 O138 2.137 . S
Co126 O139 2.244 . S
O127 Co126 2.216 . S
O127 C134 1.247 . S
O128 Co126 2.091 . S
O128 C134 1.261 . S
C129 O138 1.247 . S
C129 O139 1.272 . S
O130 Co126 2.004 . S
O130 C135 1.259 . S
Co131 O132 2.061 . S
Co131 O137 2.052 . S
Co131 O139 2.135 . S
O132 Co131 2.061 . S
O132 C135 1.235 . S
C133 O136 1.238 . S
C133 O137 1.241 . S
C134 O127 1.247 . S
C134 O128 1.261 . S
C135 O130 1.259 . S
C135 O132 1.235 . S
O136 Co126 2.021 . S
O136 C133 1.238 . S
O137 Co131 2.052 . S
O137 C133 1.241 . S
O138 Co126 2.137 . S
O138 C129 1.247 . S
O139 Co126 2.244 . S
O139 C129 1.272 . S
O139 Co131 2.135 . S
Co140 O141 2.216 . S
Co140 O142 2.091 . S
Co140 O144 2.004 . S
Co140 O150 2.021 . S
Co140 O152 2.137 . S
Co140 O153 2.244 . S
O141 Co140 2.216 . S
O141 C148 1.247 . S
O142 Co140 2.091 . S
O142 C148 1.261 . S
C143 O152 1.247 . S
C143 O153 1.272 . S
O144 Co140 2.004 . S
O144 C149 1.259 . S
Co145 O146 2.061 . S
Co145 O151 2.052 . S
Co145 O153 2.135 . S
O146 Co145 2.061 . S
O146 C149 1.235 . S
C147 O150 1.238 . S
C147 O151 1.241 . S
C148 O141 1.247 . S
C148 O142 1.261 . S
C149 O144 1.259 . S
C149 O146 1.235 . S
O150 Co140 2.021 . S
O150 C147 1.238 . S
O151 Co145 2.052 . S
O151 C147 1.241 . S
O152 Co140 2.137 . S
O152 C143 1.247 . S
O153 Co140 2.244 . S
O153 C143 1.272 . S
O153 Co145 2.135 . S
Co154 O155 2.216 . S
Co154 O156 2.091 . S
Co154 O158 2.004 . S
Co154 O164 2.021 . S
Co154 O166 2.137 . S
Co154 O167 2.244 . S
O155 Co154 2.216 . S
O155 C162 1.247 . S
O156 Co154 2.091 . S
O156 C162 1.261 . S
C157 O166 1.247 . S
C157 O167 1.272 . S
O158 Co154 2.004 . S
O158 C163 1.259 . S
Co159 O160 2.061 . S
Co159 O165 2.052 . S
Co159 O167 2.135 . S
O160 Co159 2.061 . S
O160 C163 1.235 . S
C161 O164 1.238 . S
C161 O165 1.241 . S
C162 O155 1.247 . S
C162 O156 1.261 . S
C163 O158 1.259 . S
C163 O160 1.235 . S
O164 Co154 2.021 . S
O164 C161 1.238 . S
O165 Co159 2.052 . S
O165 C161 1.241 . S
O166 Co154 2.137 . S
O166 C157 1.247 . S
O167 Co154 2.244 . S
O167 C157 1.272 . S
O167 Co159 2.135 . S
Co168 O169 2.216 . S
Co168 O170 2.091 . S
Co168 O172 2.004 . S
Co168 O178 2.021 . S
Co168 O180 2.137 . S
Co168 O181 2.244 . S
O169 Co168 2.216 . S
O169 C176 1.247 . S
O170 Co168 2.091 . S
O170 C176 1.261 . S
C171 O180 1.247 . S
C171 O181 1.272 . S
O172 Co168 2.004 . S
O172 C177 1.259 . S
Co173 O174 2.061 . S
Co173 O179 2.052 . S
Co173 O181 2.135 . S
O174 Co173 2.061 . S
O174 C177 1.235 . S
C175 O178 1.238 . S
C175 O179 1.241 . S
C176 O169 1.247 . S
C176 O170 1.261 . S
C177 O172 1.259 . S
C177 O174 1.235 . S
O178 Co168 2.021 . S
O178 C175 1.238 . S
O179 Co173 2.052 . S
O179 C175 1.241 . S
O180 Co168 2.137 . S
O180 C171 1.247 . S
O181 Co168 2.244 . S
O181 C171 1.272 . S
O181 Co173 2.135 . S
Co182 O183 2.216 . S
Co182 O184 2.091 . S
Co182 O186 2.004 . S
Co182 O192 2.021 . S
Co182 O194 2.137 . S
Co182 O195 2.244 . S
O183 Co182 2.216 . S
O183 C190 1.247 . S
O184 Co182 2.091 . S
O184 C190 1.261 . S
C185 O194 1.247 . S
C185 O195 1.272 . S
O186 Co182 2.004 . S
O186 C191 1.259 . S
Co187 O188 2.061 . S
Co187 O193 2.052 . S
Co187 O195 2.135 . S
O188 Co187 2.061 . S
O188 C191 1.235 . S
C189 O192 1.238 . S
C189 O193 1.241 . S
C190 O183 1.247 . S
C190 O184 1.261 . S
C191 O186 1.259 . S
C191 O188 1.235 . S
O192 Co182 2.021 . S
O192 C189 1.238 . S
O193 Co187 2.052 . S
O193 C189 1.241 . S
O194 Co182 2.137 . S
O194 C185 1.247 . S
O195 Co182 2.244 . S
O195 C185 1.272 . S
O195 Co187 2.135 . S
Co196 O197 2.216 . S
Co196 O198 2.091 . S
Co196 O200 2.004 . S
Co196 O206 2.021 . S
Co196 O208 2.137 . S
Co196 O209 2.244 . S
O197 Co196 2.216 . S
O197 C204 1.247 . S
O198 Co196 2.091 . S
O198 C204 1.261 . S
C199 O208 1.247 . S
C199 O209 1.272 . S
O200 Co196 2.004 . S
O200 C205 1.259 . S
Co201 O202 2.061 . S
Co201 O207 2.052 . S
Co201 O209 2.135 . S
O202 Co201 2.061 . S
O202 C205 1.235 . S
C203 O206 1.238 . S
C203 O207 1.241 . S
C204 O197 1.247 . S
C204 O198 1.261 . S
C205 O200 1.259 . S
C205 O202 1.235 . S
O206 Co196 2.021 . S
O206 C203 1.238 . S
O207 Co201 2.052 . S
O207 C203 1.241 . S
O208 Co196 2.137 . S
O208 C199 1.247 . S
O209 Co196 2.244 . S
O209 C199 1.272 . S
O209 Co201 2.135 . S
Co210 O211 2.216 . S
Co210 O212 2.091 . S
Co210 O214 2.004 . S
Co210 O220 2.021 . S
Co210 O222 2.137 . S
Co210 O223 2.244 . S
O211 Co210 2.216 . S
O211 C218 1.247 . S
O212 Co210 2.091 . S
O212 C218 1.261 . S
C213 O222 1.247 . S
C213 O223 1.272 . S
O214 Co210 2.004 . S
O214 C219 1.259 . S
Co215 O216 2.061 . S
Co215 O221 2.052 . S
Co215 O223 2.135 . S
O216 Co215 2.061 . S
O216 C219 1.235 . S
C217 O220 1.238 . S
C217 O221 1.241 . S
C218 O211 1.247 . S
C218 O212 1.261 . S
C219 O214 1.259 . S
C219 O216 1.235 . S
O220 Co210 2.021 . S
O220 C217 1.238 . S
O221 Co215 2.052 . S
O221 C217 1.241 . S
O222 Co210 2.137 . S
O222 C213 1.247 . S
O223 Co210 2.244 . S
O223 C213 1.272 . S
O223 Co215 2.135 . S
H224 C232 0.950 . S
H225 C237 0.950 . S
H226 C234 0.950 . S
H227 C236 0.950 . S
H228 C238 0.950 . S
H229 C240 0.950 . S
H230 C242 0.950 . S
H231 C243 0.950 . S
C232 H224 0.950 . S
C232 C233 1.386 . S
C232 C234 1.391 . S
C233 C232 1.386 . S
C233 C237 1.393 . S
C234 H226 0.950 . S
C234 C232 1.391 . S
C234 C235 1.400 . S
C235 C234 1.400 . S
C235 C236 1.398 . S
C235 C241 1.491 . S
C236 H227 0.950 . S
C236 C235 1.398 . S
C236 C237 1.391 . S
C237 H225 0.950 . S
C237 C233 1.393 . S
C237 C236 1.391 . S
C238 H228 0.950 . S
C238 C239 1.386 . S
C238 C240 1.391 . S
C239 C238 1.386 . S
C239 C243 1.393 . S
C240 H229 0.950 . S
C240 C238 1.391 . S
C240 C241 1.400 . S
C241 C235 1.491 . S
C241 C240 1.400 . S
C241 C242 1.398 . S
C242 H230 0.950 . S
C242 C241 1.398 . S
C242 C243 1.391 . S
C243 H231 0.950 . S
C243 C239 1.393 . S
C243 C242 1.391 . S
H244 C252 0.950 . S
H245 C257 0.950 . S
H246 C254 0.950 . S
H247 C256 0.950 . S
H248 C258 0.950 . S
H249 C260 0.950 . S
H250 C262 0.950 . S
H251 C263 0.950 . S
C252 H244 0.950 . S
C252 C253 1.386 . S
C252 C254 1.391 . S
C253 C252 1.386 . S
C253 C257 1.393 . S
C254 H246 0.950 . S
C254 C252 1.391 . S
C254 C255 1.400 . S
C255 C254 1.400 . S
C255 C256 1.398 . S
C255 C261 1.491 . S
C256 H247 0.950 . S
C256 C255 1.398 . S
C256 C257 1.391 . S
C257 H245 0.950 . S
C257 C253 1.393 . S
C257 C256 1.391 . S
C258 H248 0.950 . S
C258 C259 1.386 . S
C258 C260 1.391 . S
C259 C258 1.386 . S
C259 C263 1.393 . S
C260 H249 0.950 . S
C260 C258 1.391 . S
C260 C261 1.400 . S
C261 C255 1.491 . S
C261 C260 1.400 . S
C261 C262 1.398 . S
C262 H250 0.950 . S
C262 C261 1.398 . S
C262 C263 1.391 . S
C263 H251 0.950 . S
C263 C259 1.393 . S
C263 C262 1.391 . S
H264 C272 0.950 . S
H265 C277 0.950 . S
H266 C274 0.950 . S
H267 C276 0.950 . S
H268 C278 0.950 . S
H269 C280 0.950 . S
H270 C282 0.950 . S
H271 C283 0.950 . S
C272 H264 0.950 . S
C272 C273 1.386 . S
C272 C274 1.391 . S
C273 C272 1.386 . S
C273 C277 1.393 . S
C274 H266 0.950 . S
C274 C272 1.391 . S
C274 C275 1.400 . S
C275 C274 1.400 . S
C275 C276 1.398 . S
C275 C281 1.491 . S
C276 H267 0.950 . S
C276 C275 1.398 . S
C276 C277 1.391 . S
C277 H265 0.950 . S
C277 C273 1.393 . S
C277 C276 1.391 . S
C278 H268 0.950 . S
C278 C279 1.386 . S
C278 C280 1.391 . S
C279 C278 1.386 . S
C279 C283 1.393 . S
C280 H269 0.950 . S
C280 C278 1.391 . S
C280 C281 1.400 . S
C281 C275 1.491 . S
C281 C280 1.400 . S
C281 C282 1.398 . S
C282 H270 0.950 . S
C282 C281 1.398 . S
C282 C283 1.391 . S
C283 H271 0.950 . S
C283 C279 1.393 . S
C283 C282 1.391 . S
H284 C292 0.950 . S
H285 C297 0.950 . S
H286 C294 0.950 . S
H287 C296 0.950 . S
H288 C298 0.950 . S
H289 C300 0.950 . S
H290 C302 0.950 . S
H291 C303 0.950 . S
C292 H284 0.950 . S
C292 C293 1.386 . S
C292 C294 1.391 . S
C293 C292 1.386 . S
C293 C297 1.393 . S
C294 H286 0.950 . S
C294 C292 1.391 . S
C294 C295 1.400 . S
C295 C294 1.400 . S
C295 C296 1.398 . S
C295 C301 1.491 . S
C296 H287 0.950 . S
C296 C295 1.398 . S
C296 C297 1.391 . S
C297 H285 0.950 . S
C297 C293 1.393 . S
C297 C296 1.391 . S
C298 H288 0.950 . S
C298 C299 1.386 . S
C298 C300 1.391 . S
C299 C298 1.386 . S
C299 C303 1.393 . S
C300 H289 0.950 . S
C300 C298 1.391 . S
C300 C301 1.400 . S
C301 C295 1.491 . S
C301 C300 1.400 . S
C301 C302 1.398 . S
C302 H290 0.950 . S
C302 C301 1.398 . S
C302 C303 1.391 . S
C303 H291 0.950 . S
C303 C299 1.393 . S
C303 C302 1.391 . S
H304 C312 0.950 . S
H305 C317 0.950 1_566 S
H306 C314 0.950 . S
H307 C316 1.014 . S
H308 C318 0.950 . S
H309 C320 0.950 . S
H310 C322 0.950 . S
H311 C323 0.950 . S
C312 H304 0.950 . S
C312 C313 1.386 . S
C312 C314 1.391 . S
C313 C312 1.386 . S
C313 C317 1.393 . S
C314 H306 0.950 . S
C314 C312 1.391 . S
C314 C315 1.400 . S
C315 C314 1.400 . S
C315 C316 1.361 1_554 S
C315 C321 1.491 . S
C316 H307 1.014 . S
C316 C315 1.361 1_556 S
C316 C317 1.367 1_556 S
C317 H305 0.950 1_544 S
C317 C313 1.393 . S
C317 C316 1.367 1_554 S
C318 H308 0.950 . S
C318 C319 1.386 . S
C318 C320 1.391 . S
C319 C318 1.386 . S
C319 C323 1.393 1_556 S
C320 H309 0.950 . S
C320 C318 1.391 . S
C320 C321 1.400 1_556 S
C321 C315 1.491 . S
C321 C320 1.400 1_554 S
C321 C322 1.398 . S
C322 H310 0.950 . S
C322 C321 1.398 . S
C322 C323 1.391 . S
C323 H311 0.950 . S
C323 C319 1.393 1_554 S
C323 C322 1.391 . S
H324 C332 0.950 . S
H325 C337 0.950 . S
H326 C334 0.950 . S
H327 C336 0.950 . S
H328 C338 0.950 . S
H329 C340 0.950 . S
H330 C342 0.950 1_554 S
H331 C343 0.950 1_655 S
C332 H324 0.950 . S
C332 C333 1.386 . S
C332 C334 1.391 . S
C333 C332 1.386 . S
C333 C337 1.393 1_554 S
C334 H326 0.950 . S
C334 C332 1.391 . S
C334 C335 1.400 1_554 S
C335 C334 1.400 1_556 S
C335 C336 1.398 . S
C335 C341 1.491 . S
C336 H327 0.950 . S
C336 C335 1.398 . S
C336 C337 1.391 . S
C337 H325 0.950 . S
C337 C333 1.393 1_556 S
C337 C336 1.391 . S
C338 H328 0.950 . S
C338 C339 1.386 . S
C338 C340 1.391 . S
C339 C338 1.386 . S
C339 C343 1.393 . S
C340 H329 0.950 . S
C340 C338 1.391 . S
C340 C341 1.400 . S
C341 C335 1.491 . S
C341 C340 1.400 . S
C341 C342 1.398 . S
C342 H330 0.950 1_556 S
C342 C341 1.398 . S
C342 C343 1.391 . S
C343 H331 0.950 1_455 S
C343 C339 1.393 . S
C343 C342 1.391 . S
H344 C352 0.950 . S
H345 C357 0.950 . S
H346 C354 0.950 . S
H347 C356 0.950 . S
H348 C358 0.950 . S
H349 C360 0.950 . S
H350 C362 1.005 . S
H351 C363 0.950 1_546 S
C352 H344 0.950 . S
C352 C353 1.386 . S
C352 C354 1.391 . S
C353 C352 1.386 . S
C353 C357 1.393 1_556 S
C354 H346 0.950 . S
C354 C352 1.391 . S
C354 C355 1.400 1_556 S
C355 C354 1.400 1_554 S
C355 C356 1.398 . S
C355 C361 1.491 . S
C356 H347 0.950 . S
C356 C355 1.398 . S
C356 C357 1.391 . S
C357 H345 0.950 . S
C357 C353 1.393 1_554 S
C357 C356 1.391 . S
C358 H348 0.950 . S
C358 C359 1.386 . S
C358 C360 1.391 . S
C359 C358 1.386 . S
C359 C363 1.393 . S
C360 H349 0.950 . S
C360 C358 1.391 . S
C360 C361 1.400 . S
C361 C355 1.491 . S
C361 C360 1.400 . S
C361 C362 1.367 1_554 S
C362 H350 1.005 . S
C362 C361 1.367 1_556 S
C362 C363 1.370 1_556 S
C363 H351 0.950 1_564 S
C363 C359 1.393 . S
C363 C362 1.370 1_554 S
H364 C372 0.950 . S
H365 C377 0.950 . S
H366 C374 0.950 . S
H367 C376 0.950 . S
H368 C378 0.950 . S
H369 C380 0.973 . S
H370 C382 0.950 . S
H371 C383 0.950 . S
C372 H364 0.950 . S
C372 C373 1.386 . S
C372 C374 1.391 1_554 S
C373 C372 1.386 . S
C373 C377 1.393 . S
C374 H366 0.950 . S
C374 C372 1.391 1_556 S
C374 C375 1.400 . S
C375 C374 1.400 . S
C375 C376 1.398 1_556 S
C375 C381 1.491 . S
C376 H367 0.950 . S
C376 C375 1.398 1_554 S
C376 C377 1.391 . S
C377 H365 0.950 . S
C377 C373 1.393 . S
C377 C376 1.391 . S
C378 H368 0.950 . S
C378 C379 1.386 . S
C378 C380 1.391 . S
C379 C378 1.386 . S
C379 C383 1.393 . S
C380 H369 0.973 . S
C380 C378 1.391 . S
C380 C381 1.400 . S
C381 C375 1.491 . S
C381 C380 1.400 . S
C381 C382 1.398 . S
C382 H370 0.950 . S
C382 C381 1.398 . S
C382 C383 1.391 . S
C383 H371 0.950 . S
C383 C379 1.393 . S
C383 C382 1.391 . S
H384 C392 0.950 . S
H385 C397 0.950 . S
H386 C394 0.950 . S
H387 C396 0.950 . S
H388 C398 0.950 1_545 S
H389 C400 0.950 . S
H390 C402 0.950 . S
H391 C403 0.950 . S
C392 H384 0.950 . S
C392 C393 1.386 . S
C392 C394 1.391 . S
C393 C392 1.386 . S
C393 C397 1.393 . S
C394 H386 0.950 . S
C394 C392 1.391 . S
C394 C395 1.400 . S
C395 C394 1.400 . S
C395 C396 1.398 . S
C395 C401 1.491 . S
C396 H387 0.950 . S
C396 C395 1.398 . S
C396 C397 1.391 . S
C397 H385 0.950 . S
C397 C393 1.393 . S
C397 C396 1.391 . S
C398 H388 0.950 1_565 S
C398 C399 1.386 . S
C398 C400 1.391 . S
C399 C398 1.386 . S
C399 C403 1.393 . S
C400 H389 0.950 . S
C400 C398 1.391 . S
C400 C401 1.400 . S
C401 C395 1.491 . S
C401 C400 1.400 . S
C401 C402 1.398 . S
C402 H390 0.950 . S
C402 C401 1.398 . S
C402 C403 1.391 . S
C403 H391 0.950 . S
C403 C399 1.393 . S
C403 C402 1.391 . S
H404 C412 0.950 . S
H405 C417 0.950 . S
H406 C414 0.950 . S
H407 C416 0.950 . S
H408 C418 0.950 . S
H409 C420 0.950 . S
H410 C422 0.950 . S
H411 C423 0.950 . S
C412 H404 0.950 . S
C412 C413 1.386 . S
C412 C414 1.391 . S
C413 C412 1.386 . S
C413 C417 1.393 . S
C414 H406 0.950 . S
C414 C412 1.391 . S
C414 C415 1.400 . S
C415 C414 1.400 . S
C415 C416 1.398 . S
C415 C421 1.491 . S
C416 H407 0.950 . S
C416 C415 1.398 . S
C416 C417 1.391 . S
C417 H405 0.950 . S
C417 C413 1.393 . S
C417 C416 1.391 . S
C418 H408 0.950 . S
C418 C419 1.386 . S
C418 C420 1.391 . S
C419 C418 1.386 . S
C419 C423 1.393 . S
C420 H409 0.950 . S
C420 C418 1.391 . S
C420 C421 1.400 . S
C421 C415 1.491 . S
C421 C420 1.400 . S
C421 C422 1.398 . S
C422 H410 0.950 . S
C422 C421 1.398 . S
C422 C423 1.391 . S
C423 H411 0.950 . S
C423 C419 1.393 . S
C423 C422 1.391 . S
H424 C432 0.950 . S
H425 C437 0.950 . S
H426 C434 0.950 . S
H427 C436 0.950 . S
H428 C438 0.950 . S
H429 C440 0.950 . S
H430 C442 0.950 . S
H431 C443 0.950 . S
C432 H424 0.950 . S
C432 C433 1.386 . S
C432 C434 1.391 . S
C433 C432 1.386 . S
C433 C437 1.393 . S
C434 H426 0.950 . S
C434 C432 1.391 . S
C434 C435 1.400 . S
C435 C434 1.400 . S
C435 C436 1.398 . S
C435 C441 1.491 . S
C436 H427 0.950 . S
C436 C435 1.398 . S
C436 C437 1.391 . S
C437 H425 0.950 . S
C437 C433 1.393 . S
C437 C436 1.391 . S
C438 H428 0.950 . S
C438 C439 1.386 . S
C438 C440 1.391 . S
C439 C438 1.386 . S
C439 C443 1.393 . S
C440 H429 0.950 . S
C440 C438 1.391 . S
C440 C441 1.400 . S
C441 C435 1.491 . S
C441 C440 1.400 . S
C441 C442 1.398 . S
C442 H430 0.950 . S
C442 C441 1.398 . S
C442 C443 1.391 . S
C443 H431 0.950 . S
C443 C439 1.393 . S
C443 C442 1.391 . S
H444 C452 0.950 . S
H445 C457 0.950 . S
H446 C454 0.950 . S
H447 C456 0.950 . S
H448 C458 0.950 . S
H449 C460 0.950 . S
H450 C462 0.950 . S
H451 C463 0.950 . S
C452 H444 0.950 . S
C452 C453 1.386 . S
C452 C454 1.391 . S
C453 C452 1.386 . S
C453 C457 1.393 . S
C454 H446 0.950 . S
C454 C452 1.391 . S
C454 C455 1.400 . S
C455 C454 1.400 . S
C455 C456 1.398 . S
C455 C461 1.491 . S
C456 H447 0.950 . S
C456 C455 1.398 . S
C456 C457 1.391 . S
C457 H445 0.950 . S
C457 C453 1.393 . S
C457 C456 1.391 . S
C458 H448 0.950 . S
C458 C459 1.386 . S
C458 C460 1.391 . S
C459 C458 1.386 . S
C459 C463 1.393 . S
C460 H449 0.950 . S
C460 C458 1.391 . S
C460 C461 1.400 . S
C461 C455 1.491 . S
C461 C460 1.400 . S
C461 C462 1.398 . S
C462 H450 0.950 . S
C462 C461 1.398 . S
C462 C463 1.391 . S
C463 H451 0.950 . S
C463 C459 1.393 . S
C463 C462 1.391 . S
H464 C472 0.950 . S
H465 C477 0.950 . S
H466 C474 0.950 . S
H467 C476 0.950 . S
H468 C478 0.950 . S
H469 C480 0.950 . S
H470 C482 0.950 . S
H471 C483 0.950 . S
C472 H464 0.950 . S
C472 C473 1.386 . S
C472 C474 1.391 . S
C473 C472 1.386 . S
C473 C477 1.393 . S
C474 H466 0.950 . S
C474 C472 1.391 . S
C474 C475 1.400 . S
C475 C474 1.400 . S
C475 C476 1.398 . S
C475 C481 1.491 . S
C476 H467 0.950 . S
C476 C475 1.398 . S
C476 C477 1.391 . S
C477 H465 0.950 . S
C477 C473 1.393 . S
C477 C476 1.391 . S
C478 H468 0.950 . S
C478 C479 1.386 . S
C478 C480 1.391 . S
C479 C478 1.386 . S
C479 C483 1.393 . S
C480 H469 0.950 . S
C480 C478 1.391 . S
C480 C481 1.400 . S
C481 C475 1.491 . S
C481 C480 1.400 . S
C481 C482 1.398 . S
C482 H470 0.950 . S
C482 C481 1.398 . S
C482 C483 1.391 . S
C483 H471 0.950 . S
C483 C479 1.393 . S
C483 C482 1.391 . S
H484 C492 0.950 . S
H485 C497 0.950 . S
H486 C494 0.950 . S
H487 C496 0.950 . S
H488 C498 0.950 . S
H489 C500 0.950 . S
H490 C502 0.950 . S
H491 C503 0.950 . S
C492 H484 0.950 . S
C492 C493 1.386 . S
C492 C494 1.391 . S
C493 C492 1.386 . S
C493 C497 1.393 . S
C494 H486 0.950 . S
C494 C492 1.391 . S
C494 C495 1.400 . S
C495 C494 1.400 . S
C495 C496 1.398 . S
C495 C501 1.491 . S
C496 H487 0.950 . S
C496 C495 1.398 . S
C496 C497 1.391 . S
C497 H485 0.950 . S
C497 C493 1.393 . S
C497 C496 1.391 . S
C498 H488 0.950 . S
C498 C499 1.386 . S
C498 C500 1.391 . S
C499 C498 1.386 . S
C499 C503 1.393 . S
C500 H489 0.950 . S
C500 C498 1.391 . S
C500 C501 1.400 . S
C501 C495 1.491 . S
C501 C500 1.400 . S
C501 C502 1.398 . S
C502 H490 0.950 . S
C502 C501 1.398 . S
C502 C503 1.391 . S
C503 H491 0.950 . S
C503 C499 1.393 . S
C503 C502 1.391 . S
H504 C512 0.950 . S
H505 C517 0.950 . S
H506 C514 0.950 . S
H507 C516 0.950 . S
H508 C518 0.950 . S
H509 C520 0.950 . S
H510 C522 0.950 . S
H511 C523 0.950 . S
C512 H504 0.950 . S
C512 C513 1.386 . S
C512 C514 1.391 . S
C513 C512 1.386 . S
C513 C517 1.393 . S
C514 H506 0.950 . S
C514 C512 1.391 . S
C514 C515 1.400 . S
C515 C514 1.400 . S
C515 C516 1.398 . S
C515 C521 1.491 . S
C516 H507 0.950 . S
C516 C515 1.398 . S
C516 C517 1.391 . S
C517 H505 0.950 . S
C517 C513 1.393 . S
C517 C516 1.391 . S
C518 H508 0.950 . S
C518 C519 1.386 . S
C518 C520 1.391 . S
C519 C518 1.386 . S
C519 C523 1.393 . S
C520 H509 0.950 . S
C520 C518 1.391 . S
C520 C521 1.400 . S
C521 C515 1.491 . S
C521 C520 1.400 . S
C521 C522 1.398 . S
C522 H510 0.950 . S
C522 C521 1.398 . S
C522 C523 1.391 . S
C523 H511 0.950 . S
C523 C519 1.393 . S
C523 C522 1.391 . S
H524 C532 0.950 . S
H525 C537 0.950 . S
H526 C534 0.950 . S
H527 C536 0.950 . S
H528 C538 0.950 . S
H529 C540 0.950 . S
H530 C542 0.950 . S
H531 C543 0.950 . S
C532 H524 0.950 . S
C532 C533 1.386 . S
C532 C534 1.391 . S
C533 C532 1.386 . S
C533 C537 1.393 . S
C534 H526 0.950 . S
C534 C532 1.391 . S
C534 C535 1.400 . S
C535 C534 1.400 . S
C535 C536 1.398 . S
C535 C541 1.491 . S
C536 H527 0.950 . S
C536 C535 1.398 . S
C536 C537 1.391 . S
C537 H525 0.950 . S
C537 C533 1.393 . S
C537 C536 1.391 . S
C538 H528 0.950 . S
C538 C539 1.386 . S
C538 C540 1.391 . S
C539 C538 1.386 . S
C539 C543 1.393 . S
C540 H529 0.950 . S
C540 C538 1.391 . S
C540 C541 1.400 . S
C541 C535 1.491 . S
C541 C540 1.400 . S
C541 C542 1.398 . S
C542 H530 0.950 . S
C542 C541 1.398 . S
C542 C543 1.391 . S
C543 H531 0.950 . S
C543 C539 1.393 . S
C543 C542 1.391 . S
H544 C552 0.950 . S
H545 C557 0.950 . S
H546 C554 0.950 . S
H547 C556 0.950 . S
H548 C558 0.950 . S
H549 C560 0.950 . S
H550 C562 0.950 . S
H551 C563 0.950 . S
C552 H544 0.950 . S
C552 C553 1.386 . S
C552 C554 1.391 . S
C553 C552 1.386 . S
C553 C557 1.393 . S
C554 H546 0.950 . S
C554 C552 1.391 . S
C554 C555 1.400 . S
C555 C554 1.400 . S
C555 C556 1.398 . S
C555 C561 1.491 . S
C556 H547 0.950 . S
C556 C555 1.398 . S
C556 C557 1.391 . S
C557 H545 0.950 . S
C557 C553 1.393 . S
C557 C556 1.391 . S
C558 H548 0.950 . S
C558 C559 1.386 . S
C558 C560 1.391 . S
C559 C558 1.386 . S
C559 C563 1.393 . S
C560 H549 0.950 . S
C560 C558 1.391 . S
C560 C561 1.400 . S
C561 C555 1.491 . S
C561 C560 1.400 . S
C561 C562 1.398 . S
C562 H550 0.950 . S
C562 C561 1.398 . S
C562 C563 1.391 . S
C563 H551 0.950 . S
C563 C559 1.393 . S
C563 C562 1.391 . S
H564 C572 0.950 . S
H565 C577 0.950 . S
H566 C574 0.950 . S
H567 C576 0.950 . S
H568 C578 0.950 . S
H569 C580 0.950 . S
H570 C582 0.950 . S
H571 C583 0.950 . S
C572 H564 0.950 . S
C572 C573 1.386 . S
C572 C574 1.391 . S
C573 C572 1.386 . S
C573 C577 1.393 . S
C574 H566 0.950 . S
C574 C572 1.391 . S
C574 C575 1.400 . S
C575 C574 1.400 . S
C575 C576 1.398 . S
C575 C581 1.491 . S
C576 H567 0.950 . S
C576 C575 1.398 . S
C576 C577 1.391 . S
C577 H565 0.950 . S
C577 C573 1.393 . S
C577 C576 1.391 . S
C578 H568 0.950 . S
C578 C579 1.386 . S
C578 C580 1.391 . S
C579 C578 1.386 . S
C579 C583 1.393 . S
C580 H569 0.950 . S
C580 C578 1.391 . S
C580 C581 1.400 . S
C581 C575 1.491 . S
C581 C580 1.400 . S
C581 C582 1.398 . S
C582 H570 0.950 . S
C582 C581 1.398 . S
C582 C583 1.391 . S
C583 H571 0.950 . S
C583 C579 1.393 . S
C583 C582 1.391 . S
H584 C592 0.950 . S
H585 C597 0.950 . S
H586 C594 0.950 . S
H587 C596 0.950 . S
H588 C598 0.950 . S
H589 C600 0.950 . S
H590 C602 0.950 . S
H591 C603 0.950 . S
C592 H584 0.950 . S
C592 C593 1.386 . S
C592 C594 1.391 . S
C593 C592 1.386 . S
C593 C597 1.393 . S
C594 H586 0.950 . S
C594 C592 1.391 . S
C594 C595 1.400 . S
C595 C594 1.400 . S
C595 C596 1.398 . S
C595 C601 1.491 . S
C596 H587 0.950 . S
C596 C595 1.398 . S
C596 C597 1.391 . S
C597 H585 0.950 . S
C597 C593 1.393 . S
C597 C596 1.391 . S
C598 H588 0.950 . S
C598 C599 1.386 . S
C598 C600 1.391 . S
C599 C598 1.386 . S
C599 C603 1.393 . S
C600 H589 0.950 . S
C600 C598 1.391 . S
C600 C601 1.400 . S
C601 C595 1.491 . S
C601 C600 1.400 . S
C601 C602 1.398 . S
C602 H590 0.950 . S
C602 C601 1.398 . S
C602 C603 1.391 . S
C603 H591 0.950 . S
C603 C599 1.393 . S
C603 C602 1.391 . S
H604 C612 0.950 . S
H605 C617 0.950 . S
H606 C614 0.950 . S
H607 C616 0.950 . S
H608 C618 0.950 . S
H609 C620 0.950 . S
H610 C622 0.950 . S
H611 C623 0.950 . S
C612 H604 0.950 . S
C612 C613 1.386 . S
C612 C614 1.391 . S
C613 C612 1.386 . S
C613 C617 1.393 . S
C614 H606 0.950 . S
C614 C612 1.391 . S
C614 C615 1.400 . S
C615 C614 1.400 . S
C615 C616 1.398 . S
C615 C621 1.491 . S
C616 H607 0.950 . S
C616 C615 1.398 . S
C616 C617 1.391 . S
C617 H605 0.950 . S
C617 C613 1.393 . S
C617 C616 1.391 . S
C618 H608 0.950 . S
C618 C619 1.386 . S
C618 C620 1.391 . S
C619 C618 1.386 . S
C619 C623 1.393 . S
C620 H609 0.950 . S
C620 C618 1.391 . S
C620 C621 1.400 . S
C621 C615 1.491 . S
C621 C620 1.400 . S
C621 C622 1.398 . S
C622 H610 0.950 . S
C622 C621 1.398 . S
C622 C623 1.391 . S
C623 H611 0.950 . S
C623 C619 1.393 . S
C623 C622 1.391 . S
H624 C632 0.950 . S
H625 C637 0.950 . S
H626 C634 0.950 . S
H627 C636 0.950 . S
H628 C638 0.950 . S
H629 C640 0.950 . S
H630 C642 0.950 . S
H631 C643 0.950 . S
C632 H624 0.950 . S
C632 C633 1.386 . S
C632 C634 1.391 . S
C633 C632 1.386 . S
C633 C637 1.393 . S
C634 H626 0.950 . S
C634 C632 1.391 . S
C634 C635 1.400 . S
C635 C634 1.400 . S
C635 C636 1.398 . S
C635 C641 1.491 . S
C636 H627 0.950 . S
C636 C635 1.398 . S
C636 C637 1.391 . S
C637 H625 0.950 . S
C637 C633 1.393 . S
C637 C636 1.391 . S
C638 H628 0.950 . S
C638 C639 1.386 . S
C638 C640 1.391 . S
C639 C638 1.386 . S
C639 C643 1.393 . S
C640 H629 0.950 . S
C640 C638 1.391 . S
C640 C641 1.400 . S
C641 C635 1.491 . S
C641 C640 1.400 . S
C641 C642 1.398 . S
C642 H630 0.950 . S
C642 C641 1.398 . S
C642 C643 1.391 . S
C643 H631 0.950 . S
C643 C639 1.393 . S
C643 C642 1.391 . S
H644 C652 0.950 . S
H645 C657 0.950 . S
H646 C654 0.950 . S
H647 C656 0.950 . S
H648 C658 0.950 . S
H649 C660 0.950 . S
H650 C662 0.950 . S
H651 C663 0.950 . S
C652 H644 0.950 . S
C652 C653 1.386 . S
C652 C654 1.391 . S
C653 C652 1.386 . S
C653 C657 1.393 . S
C654 H646 0.950 . S
C654 C652 1.391 . S
C654 C655 1.400 . S
C655 C654 1.400 . S
C655 C656 1.398 . S
C655 C661 1.491 . S
C656 H647 0.950 . S
C656 C655 1.398 . S
C656 C657 1.391 . S
C657 H645 0.950 . S
C657 C653 1.393 . S
C657 C656 1.391 . S
C658 H648 0.950 . S
C658 C659 1.386 . S
C658 C660 1.391 . S
C659 C658 1.386 . S
C659 C663 1.393 . S
C660 H649 0.950 . S
C660 C658 1.391 . S
C660 C661 1.400 . S
C661 C655 1.491 . S
C661 C660 1.400 . S
C661 C662 1.398 . S
C662 H650 0.950 . S
C662 C661 1.398 . S
C662 C663 1.391 . S
C663 H651 0.950 . S
C663 C659 1.393 . S
C663 C662 1.391 . S
H664 C672 0.950 . S
H665 C677 0.950 . S
H666 C674 0.950 . S
H667 C676 0.950 . S
H668 C678 0.950 . S
H669 C680 0.950 . S
H670 C682 0.950 . S
H671 C683 0.950 . S
C672 H664 0.950 . S
C672 C673 1.386 . S
C672 C674 1.391 . S
C673 C672 1.386 . S
C673 C677 1.393 . S
C674 H666 0.950 . S
C674 C672 1.391 . S
C674 C675 1.400 . S
C675 C674 1.400 . S
C675 C676 1.398 . S
C675 C681 1.491 . S
C676 H667 0.950 . S
C676 C675 1.398 . S
C676 C677 1.391 . S
C677 H665 0.950 . S
C677 C673 1.393 . S
C677 C676 1.391 . S
C678 H668 0.950 . S
C678 C679 1.386 . S
C678 C680 1.391 . S
C679 C678 1.386 . S
C679 C683 1.393 . S
C680 H669 0.950 . S
C680 C678 1.391 . S
C680 C681 1.400 . S
C681 C675 1.491 . S
C681 C680 1.400 . S
C681 C682 1.398 . S
C682 H670 0.950 . S
C682 C681 1.398 . S
C682 C683 1.391 . S
C683 H671 0.950 . S
C683 C679 1.393 . S
C683 C682 1.391 . S
H684 C692 0.950 . S
H685 C697 0.950 . S
H686 C694 0.950 . S
H687 C696 0.950 . S
H688 C698 0.950 . S
H689 C700 0.950 . S
H690 C702 0.950 . S
H691 C703 0.950 . S
C692 H684 0.950 . S
C692 C693 1.386 . S
C692 C694 1.391 . S
C693 C692 1.386 . S
C693 C697 1.393 . S
C694 H686 0.950 . S
C694 C692 1.391 . S
C694 C695 1.400 . S
C695 C694 1.400 . S
C695 C696 1.398 . S
C695 C701 1.491 . S
C696 H687 0.950 . S
C696 C695 1.398 . S
C696 C697 1.391 . S
C697 H685 0.950 . S
C697 C693 1.393 . S
C697 C696 1.391 . S
C698 H688 0.950 . S
C698 C699 1.386 . S
C698 C700 1.391 . S
C699 C698 1.386 . S
C699 C703 1.393 . S
C700 H689 0.950 . S
C700 C698 1.391 . S
C700 C701 1.400 . S
C701 C695 1.491 . S
C701 C700 1.400 . S
C701 C702 1.398 . S
C702 H690 0.950 . S
C702 C701 1.398 . S
C702 C703 1.391 . S
C703 H691 0.950 . S
C703 C699 1.393 . S
C703 C702 1.391 . S
H704 C712 0.950 . S
H705 C717 0.950 . S
H706 C714 0.950 . S
H707 C716 0.950 1_455 S
H708 C718 0.950 . S
H709 C720 0.950 . S
H710 C722 0.950 1_655 S
H711 C723 0.950 . S
C712 H704 0.950 . S
C712 C713 1.386 . S
C712 C714 1.391 . S
C713 C712 1.386 . S
C713 C717 1.393 . S
C714 H706 0.950 . S
C714 C712 1.391 . S
C714 C715 1.400 . S
C715 C714 1.400 . S
C715 C716 1.398 . S
C715 C721 1.491 1_665 S
C716 H707 0.950 1_655 S
C716 C715 1.398 . S
C716 C717 1.391 . S
C717 H705 0.950 . S
C717 C713 1.393 . S
C717 C716 1.391 . S
C718 H708 0.950 . S
C718 C719 1.386 . S
C718 C720 1.391 . S
C719 C718 1.386 . S
C719 C723 1.393 . S
C720 H709 0.950 . S
C720 C718 1.391 . S
C720 C721 1.400 . S
C721 C715 1.491 1_445 S
C721 C720 1.400 . S
C721 C722 1.398 . S
C722 H710 0.950 1_455 S
C722 C721 1.398 . S
C722 C723 1.391 . S
C723 H711 0.950 . S
C723 C719 1.393 . S
C723 C722 1.391 . S
H724 C732 0.950 . S
H725 C737 0.950 . S
H726 C734 0.950 . S
H727 C736 0.953 . S
H728 C738 0.950 . S
H729 C740 0.950 . S
H730 C742 0.953 . S
H731 C743 0.950 . S
C732 H724 0.950 . S
C732 C733 1.386 . S
C732 C734 1.391 . S
C733 C732 1.386 . S
C733 C737 1.393 . S
C734 H726 0.950 . S
C734 C732 1.391 . S
C734 C735 1.400 . S
C735 C734 1.400 . S
C735 C736 1.398 . S
C735 C741 1.491 1_645 S
C736 H727 0.953 . S
C736 C735 1.398 . S
C736 C737 1.391 . S
C737 H725 0.950 . S
C737 C733 1.393 . S
C737 C736 1.391 . S
C738 H728 0.950 . S
C738 C739 1.386 . S
C738 C740 1.391 . S
C739 C738 1.386 . S
C739 C743 1.393 . S
C740 H729 0.950 . S
C740 C738 1.391 . S
C740 C741 1.400 . S
C741 C735 1.491 1_465 S
C741 C740 1.400 . S
C741 C742 1.398 . S
C742 H730 0.953 . S
C742 C741 1.398 . S
C742 C743 1.391 . S
C743 H731 0.950 . S
C743 C739 1.393 . S
C743 C742 1.391 . S
H744 C752 0.950 . S
H745 C757 0.950 . S
H746 C754 0.950 . S
H747 C756 0.950 . S
H748 C758 0.950 . S
H749 C760 0.950 . S
H750 C762 0.950 . S
H751 C763 0.950 . S
C752 H744 0.950 . S
C752 C753 1.386 . S
C752 C754 1.391 . S
C753 C752 1.386 . S
C753 C757 1.393 . S
C754 H746 0.950 . S
C754 C752 1.391 . S
C754 C755 1.400 . S
C755 C754 1.400 . S
C755 C756 1.398 1_455 S
C755 C761 1.491 1_455 S
C756 H747 0.950 . S
C756 C755 1.398 1_655 S
C756 C757 1.391 1_655 S
C757 H745 0.950 . S
C757 C753 1.393 . S
C757 C756 1.391 1_455 S
C758 H748 0.950 . S
C758 C759 1.386 . S
C758 C760 1.391 . S
C759 C758 1.386 . S
C759 C763 1.393 . S
C760 H749 0.950 . S
C760 C758 1.391 . S
C760 C761 1.400 . S
C761 C755 1.491 1_655 S
C761 C760 1.400 . S
C761 C762 1.398 1_655 S
C762 H750 0.950 . S
C762 C761 1.398 1_455 S
C762 C763 1.391 1_455 S
C763 H751 0.950 . S
C763 C759 1.393 . S
C763 C762 1.391 1_655 S
H764 C772 0.950 . S
H765 C777 0.950 . S
H766 C774 0.950 . S
H767 C776 0.950 . S
H768 C778 0.950 . S
H769 C780 0.950 . S
H770 C782 0.950 . S
H771 C783 0.950 . S
C772 H764 0.950 . S
C772 C773 1.386 . S
C772 C774 1.391 . S
C773 C772 1.386 . S
C773 C777 1.393 . S
C774 H766 0.950 . S
C774 C772 1.391 . S
C774 C775 1.400 . S
C775 C774 1.400 . S
C775 C776 1.398 . S
C775 C781 1.491 1_565 S
C776 H767 0.950 . S
C776 C775 1.398 . S
C776 C777 1.391 . S
C777 H765 0.950 . S
C777 C773 1.393 . S
C777 C776 1.391 . S
C778 H768 0.950 . S
C778 C779 1.386 . S
C778 C780 1.391 . S
C779 C778 1.386 . S
C779 C783 1.393 . S
C780 H769 0.950 . S
C780 C778 1.391 . S
C780 C781 1.400 . S
C781 C775 1.491 1_545 S
C781 C780 1.400 . S
C781 C782 1.398 . S
C782 H770 0.950 . S
C782 C781 1.398 . S
C782 C783 1.391 . S
C783 H771 0.950 . S
C783 C779 1.393 . S
C783 C782 1.391 . S
H784 C792 0.950 . S
H785 C797 0.950 . S
H786 C794 0.950 . S
H787 C796 0.950 . S
H788 C798 0.950 . S
H789 C800 0.950 . S
H790 C802 0.950 . S
H791 C803 0.950 . S
C792 H784 0.950 . S
C792 C793 1.386 . S
C792 C794 1.391 . S
C793 C792 1.386 . S
C793 C797 1.393 . S
C794 H786 0.950 . S
C794 C792 1.391 . S
C794 C795 1.400 . S
C795 C794 1.400 . S
C795 C796 1.398 . S
C795 C801 1.491 . S
C796 H787 0.950 . S
C796 C795 1.398 . S
C796 C797 1.391 . S
C797 H785 0.950 . S
C797 C793 1.393 . S
C797 C796 1.391 . S
C798 H788 0.950 . S
C798 C799 1.386 . S
C798 C800 1.391 . S
C799 C798 1.386 . S
C799 C803 1.393 . S
C800 H789 0.950 . S
C800 C798 1.391 . S
C800 C801 1.400 . S
C801 C795 1.491 . S
C801 C800 1.400 . S
C801 C802 1.398 . S
C802 H790 0.950 . S
C802 C801 1.398 . S
C802 C803 1.391 . S
C803 H791 0.950 . S
C803 C799 1.393 . S
C803 C802 1.391 . S
H804 C812 0.950 . S
H805 C817 0.950 . S
H806 C814 0.950 . S
H807 C816 0.950 . S
H808 C818 0.950 . S
H809 C820 0.950 . S
H810 C822 0.950 . S
H811 C823 0.950 . S
C812 H804 0.950 . S
C812 C813 1.386 . S
C812 C814 1.391 . S
C813 C812 1.386 . S
C813 C817 1.393 . S
C814 H806 0.950 . S
C814 C812 1.391 . S
C814 C815 1.400 . S
C815 C814 1.400 . S
C815 C816 1.398 . S
C815 C821 1.491 . S
C816 H807 0.950 . S
C816 C815 1.398 . S
C816 C817 1.391 . S
C817 H805 0.950 . S
C817 C813 1.393 . S
C817 C816 1.391 . S
C818 H808 0.950 . S
C818 C819 1.386 . S
C818 C820 1.391 . S
C819 C818 1.386 . S
C819 C823 1.393 . S
C820 H809 0.950 . S
C820 C818 1.391 . S
C820 C821 1.400 . S
C821 C815 1.491 . S
C821 C820 1.400 . S
C821 C822 1.398 . S
C822 H810 0.950 . S
C822 C821 1.398 . S
C822 C823 1.391 . S
C823 H811 0.950 . S
C823 C819 1.393 . S
C823 C822 1.391 . S
H824 C832 0.950 . S
H825 C837 0.950 . S
H826 C834 0.950 . S
H827 C836 0.934 1_565 S
H828 C838 0.950 . S
H829 C840 0.950 . S
H830 C842 0.934 1_545 S
H831 C843 0.950 . S
C832 H824 0.950 . S
C832 C833 1.386 . S
C832 C834 1.391 . S
C833 C832 1.386 . S
C833 C837 1.393 . S
C834 H826 0.950 . S
C834 C832 1.391 . S
C834 C835 1.400 . S
C835 C834 1.400 . S
C835 C836 1.398 . S
C835 C841 1.491 1_545 S
C836 H827 0.934 1_545 S
C836 C835 1.398 . S
C836 C837 1.391 . S
C837 H825 0.950 . S
C837 C833 1.393 . S
C837 C836 1.391 . S
C838 H828 0.950 . S
C838 C839 1.386 . S
C838 C840 1.391 . S
C839 C838 1.386 . S
C839 C843 1.393 . S
C840 H829 0.950 . S
C840 C838 1.391 . S
C840 C841 1.400 . S
C841 C835 1.491 1_565 S
C841 C840 1.400 . S
C841 C842 1.398 . S
C842 H830 0.934 1_565 S
C842 C841 1.398 . S
C842 C843 1.391 . S
C843 H831 0.950 . S
C843 C839 1.393 . S
C843 C842 1.391 . S
H844 C852 0.950 . S
H845 C857 0.950 . S
H846 C854 0.950 1_455 S
H847 C856 0.950 . S
H848 C858 0.950 . S
H849 C860 0.950 1_655 S
H850 C862 0.950 . S
H851 C863 0.950 . S
C852 H844 0.950 . S
C852 C853 1.386 . S
C852 C854 1.391 . S
C853 C852 1.386 . S
C853 C857 1.393 . S
C854 H846 0.950 1_655 S
C854 C852 1.391 . S
C854 C855 1.400 . S
C855 C854 1.400 . S
C855 C856 1.398 . S
C855 C861 1.491 1_655 S
C856 H847 0.950 . S
C856 C855 1.398 . S
C856 C857 1.391 . S
C857 H845 0.950 . S
C857 C853 1.393 . S
C857 C856 1.391 . S
C858 H848 0.950 . S
C858 C859 1.386 . S
C858 C860 1.391 . S
C859 C858 1.386 . S
C859 C863 1.393 . S
C860 H849 0.950 1_455 S
C860 C858 1.391 . S
C860 C861 1.400 . S
C861 C855 1.491 1_455 S
C861 C860 1.400 . S
C861 C862 1.398 . S
C862 H850 0.950 . S
C862 C861 1.398 . S
C862 C863 1.391 . S
C863 H851 0.950 . S
C863 C859 1.393 . S
C863 C862 1.391 . S
C233 C3 1.154 . S
C239 C163 1.168 . S
C253 C121 1.165 . S
C259 C17 1.156 . S
C273 C135 1.167 . S
C279 C31 1.177 . S
C293 C149 1.173 . S
C299 C45 1.151 . S
C313 C79 1.165 1_545 S
C319 C59 1.157 . S
C333 C73 1.163 . S
C339 C93 1.159 1_455 S
C353 C87 1.175 . S
C359 C107 1.170 1_565 S
C373 C101 1.178 . S
C379 C65 1.159 1_655 S
C393 C115 1.170 . S
C399 C51 1.156 1_565 S
C413 C9 1.175 1_655 S
C419 C129 1.150 . S
C433 C23 1.158 1_545 S
C439 C143 1.178 . S
C453 C37 1.182 1_455 S
C459 C157 1.153 . S
C473 C191 1.177 . S
C479 C171 1.150 . S
C493 C185 1.160 . S
C499 C205 1.182 . S
C513 C219 1.182 . S
C519 C199 1.156 . S
C533 C177 1.179 . S
C539 C213 1.150 . S
C553 C204 1.588 . S
C559 C8 1.592 . S
C573 C218 1.585 . S
C579 C22 1.582 . S
C593 C176 1.582 . S
C599 C36 1.585 . S
C613 C50 1.583 . S
C619 C190 1.584 . S
C633 C64 1.592 . S
C639 C148 1.591 . S
C653 C162 1.591 . S
C659 C78 1.585 . S
C673 C92 1.590 . S
C679 C120 1.593 . S
C693 C106 1.592 . S
C699 C134 1.591 . S
C713 C35 1.194 . S
C719 C7 1.187 . S
C733 C49 1.213 . S
C739 C21 1.220 . S
C753 C63 1.207 . S
C759 C91 1.193 . S
C773 C77 1.218 . S
C779 C105 1.218 . S
C793 C147 1.188 . S
C799 C119 1.197 . S
C813 C133 1.188 . S
C819 C161 1.197 . S
C833 C203 1.190 . S
C839 C175 1.202 . S
C853 C189 1.192 . S
C859 C217 1.206 . S
