# Generated by pormake.
# Topology sou, (8)-cn, num edge types: 1
# Building blocks:
#     Node 0, Type 0, BuildingBlock: HISSIN_clean_sbu_1, # of connection points: 8
#     Node 1, Type 0, BuildingBlock: HISSIN_clean_sbu_1, # of connection points: 8
#     Node 2, Type 0, BuildingBlock: HISSIN_clean_sbu_1, # of connection points: 8
#     Node 3, Type 0, BuildingBlock: HISSIN_clean_sbu_1, # of connection points: 8
#     Node 4, Type 0, BuildingBlock: HISSIN_clean_sbu_1, # of connection points: 8
#     Node 5, Type 0, BuildingBlock: HISSIN_clean_sbu_1, # of connection points: 8
#     Node 6, Type 0, BuildingBlock: HISSIN_clean_sbu_1, # of connection points: 8
#     Node 7, Type 0, BuildingBlock: HISSIN_clean_sbu_1, # of connection points: 8
#     Node 8, Type 0, BuildingBlock: HISSIN_clean_sbu_1, # of connection points: 8
#     Node 9, Type 0, BuildingBlock: HISSIN_clean_sbu_1, # of connection points: 8
#     Node 10, Type 0, BuildingBlock: HISSIN_clean_sbu_1, # of connection points: 8
#     Node 11, Type 0, BuildingBlock: HISSIN_clean_sbu_1, # of connection points: 8
#     Node 12, Type 0, BuildingBlock: HISSIN_clean_sbu_1, # of connection points: 8
#     Node 13, Type 0, BuildingBlock: HISSIN_clean_sbu_1, # of connection points: 8
#     Node 14, Type 0, BuildingBlock: HISSIN_clean_sbu_1, # of connection points: 8
#     Node 15, Type 0, BuildingBlock: HISSIN_clean_sbu_1, # of connection points: 8
#     Node 16, Type 0, BuildingBlock: HISSIN_clean_sbu_1, # of connection points: 8
#     Node 17, Type 0, BuildingBlock: HISSIN_clean_sbu_1, # of connection points: 8
#     Node 18, Type 0, BuildingBlock: HISSIN_clean_sbu_1, # of connection points: 8
#     Node 19, Type 0, BuildingBlock: HISSIN_clean_sbu_1, # of connection points: 8
#     Node 20, Type 0, BuildingBlock: HISSIN_clean_sbu_1, # of connection points: 8
#     Node 21, Type 0, BuildingBlock: HISSIN_clean_sbu_1, # of connection points: 8
#     Node 22, Type 0, BuildingBlock: HISSIN_clean_sbu_1, # of connection points: 8
#     Node 23, Type 0, BuildingBlock: HISSIN_clean_sbu_1, # of connection points: 8
#     Node 24, Type 0, BuildingBlock: HISSIN_clean_sbu_1, # of connection points: 8
#     Node 25, Type 0, BuildingBlock: HISSIN_clean_sbu_1, # of connection points: 8
#     Node 26, Type 0, BuildingBlock: HISSIN_clean_sbu_1, # of connection points: 8
#     Node 27, Type 0, BuildingBlock: HISSIN_clean_sbu_1, # of connection points: 8
#     Node 28, Type 0, BuildingBlock: HISSIN_clean_sbu_1, # of connection points: 8
#     Node 29, Type 0, BuildingBlock: HISSIN_clean_sbu_1, # of connection points: 8
#     Node 30, Type 0, BuildingBlock: HISSIN_clean_sbu_1, # of connection points: 8
#     Node 31, Type 0, BuildingBlock: HISSIN_clean_sbu_1, # of connection points: 8
#     Edge 32, Type (0, 0), BuildingBlock: OJICUG_clean_linker_0, # of connection points: 2
#     Edge 33, Type (0, 0), BuildingBlock: OJICUG_clean_linker_0, # of connection points: 2
#     Edge 34, Type (0, 0), BuildingBlock: OJICUG_clean_linker_0, # of connection points: 2
#     Edge 35, Type (0, 0), BuildingBlock: OJICUG_clean_linker_0, # of connection points: 2
#     Edge 36, Type (0, 0), BuildingBlock: OJICUG_clean_linker_0, # of connection points: 2
#     Edge 37, Type (0, 0), BuildingBlock: OJICUG_clean_linker_0, # of connection points: 2
#     Edge 38, Type (0, 0), BuildingBlock: OJICUG_clean_linker_0, # of connection points: 2
#     Edge 39, Type (0, 0), BuildingBlock: OJICUG_clean_linker_0, # of connection points: 2
#     Edge 40, Type (0, 0), BuildingBlock: OJICUG_clean_linker_0, # of connection points: 2
#     Edge 41, Type (0, 0), BuildingBlock: OJICUG_clean_linker_0, # of connection points: 2
#     Edge 42, Type (0, 0), BuildingBlock: OJICUG_clean_linker_0, # of connection points: 2
#     Edge 43, Type (0, 0), BuildingBlock: OJICUG_clean_linker_0, # of connection points: 2
#     Edge 44, Type (0, 0), BuildingBlock: OJICUG_clean_linker_0, # of connection points: 2
#     Edge 45, Type (0, 0), BuildingBlock: OJICUG_clean_linker_0, # of connection points: 2
#     Edge 46, Type (0, 0), BuildingBlock: OJICUG_clean_linker_0, # of connection points: 2
#     Edge 47, Type (0, 0), BuildingBlock: OJICUG_clean_linker_0, # of connection points: 2
#     Edge 48, Type (0, 0), BuildingBlock: OJICUG_clean_linker_0, # of connection points: 2
#     Edge 49, Type (0, 0), BuildingBlock: OJICUG_clean_linker_0, # of connection points: 2
#     Edge 50, Type (0, 0), BuildingBlock: OJICUG_clean_linker_0, # of connection points: 2
#     Edge 51, Type (0, 0), BuildingBlock: OJICUG_clean_linker_0, # of connection points: 2
#     Edge 52, Type (0, 0), BuildingBlock: OJICUG_clean_linker_0, # of connection points: 2
#     Edge 53, Type (0, 0), BuildingBlock: OJICUG_clean_linker_0, # of connection points: 2
#     Edge 54, Type (0, 0), BuildingBlock: OJICUG_clean_linker_0, # of connection points: 2
#     Edge 55, Type (0, 0), BuildingBlock: OJICUG_clean_linker_0, # of connection points: 2
#     Edge 56, Type (0, 0), BuildingBlock: OJICUG_clean_linker_0, # of connection points: 2
#     Edge 57, Type (0, 0), BuildingBlock: OJICUG_clean_linker_0, # of connection points: 2
#     Edge 58, Type (0, 0), BuildingBlock: OJICUG_clean_linker_0, # of connection points: 2
#     Edge 59, Type (0, 0), BuildingBlock: OJICUG_clean_linker_0, # of connection points: 2
#     Edge 60, Type (0, 0), BuildingBlock: OJICUG_clean_linker_0, # of connection points: 2
#     Edge 61, Type (0, 0), BuildingBlock: OJICUG_clean_linker_0, # of connection points: 2
#     Edge 62, Type (0, 0), BuildingBlock: OJICUG_clean_linker_0, # of connection points: 2
#     Edge 63, Type (0, 0), BuildingBlock: OJICUG_clean_linker_0, # of connection points: 2
#     Edge 64, Type (0, 0), BuildingBlock: OJICUG_clean_linker_0, # of connection points: 2
#     Edge 65, Type (0, 0), BuildingBlock: OJICUG_clean_linker_0, # of connection points: 2
#     Edge 66, Type (0, 0), BuildingBlock: OJICUG_clean_linker_0, # of connection points: 2
#     Edge 67, Type (0, 0), BuildingBlock: OJICUG_clean_linker_0, # of connection points: 2
#     Edge 68, Type (0, 0), BuildingBlock: OJICUG_clean_linker_0, # of connection points: 2
#     Edge 69, Type (0, 0), BuildingBlock: OJICUG_clean_linker_0, # of connection points: 2
#     Edge 70, Type (0, 0), BuildingBlock: OJICUG_clean_linker_0, # of connection points: 2
#     Edge 71, Type (0, 0), BuildingBlock: OJICUG_clean_linker_0, # of connection points: 2
#     Edge 72, Type (0, 0), BuildingBlock: OJICUG_clean_linker_0, # of connection points: 2
#     Edge 73, Type (0, 0), BuildingBlock: OJICUG_clean_linker_0, # of connection points: 2
#     Edge 74, Type (0, 0), BuildingBlock: OJICUG_clean_linker_0, # of connection points: 2
#     Edge 75, Type (0, 0), BuildingBlock: OJICUG_clean_linker_0, # of connection points: 2
#     Edge 76, Type (0, 0), BuildingBlock: OJICUG_clean_linker_0, # of connection points: 2
#     Edge 77, Type (0, 0), BuildingBlock: OJICUG_clean_linker_0, # of connection points: 2
#     Edge 78, Type (0, 0), BuildingBlock: OJICUG_clean_linker_0, # of connection points: 2
#     Edge 79, Type (0, 0), BuildingBlock: OJICUG_clean_linker_0, # of connection points: 2
#     Edge 80, Type (0, 0), BuildingBlock: OJICUG_clean_linker_0, # of connection points: 2
#     Edge 81, Type (0, 0), BuildingBlock: OJICUG_clean_linker_0, # of connection points: 2
#     Edge 82, Type (0, 0), BuildingBlock: OJICUG_clean_linker_0, # of connection points: 2
#     Edge 83, Type (0, 0), BuildingBlock: OJICUG_clean_linker_0, # of connection points: 2
#     Edge 84, Type (0, 0), BuildingBlock: OJICUG_clean_linker_0, # of connection points: 2
#     Edge 85, Type (0, 0), BuildingBlock: OJICUG_clean_linker_0, # of connection points: 2
#     Edge 86, Type (0, 0), BuildingBlock: OJICUG_clean_linker_0, # of connection points: 2
#     Edge 87, Type (0, 0), BuildingBlock: OJICUG_clean_linker_0, # of connection points: 2
#     Edge 88, Type (0, 0), BuildingBlock: OJICUG_clean_linker_0, # of connection points: 2
#     Edge 89, Type (0, 0), BuildingBlock: OJICUG_clean_linker_0, # of connection points: 2
#     Edge 90, Type (0, 0), BuildingBlock: OJICUG_clean_linker_0, # of connection points: 2
#     Edge 91, Type (0, 0), BuildingBlock: OJICUG_clean_linker_0, # of connection points: 2
#     Edge 92, Type (0, 0), BuildingBlock: OJICUG_clean_linker_0, # of connection points: 2
#     Edge 93, Type (0, 0), BuildingBlock: OJICUG_clean_linker_0, # of connection points: 2
#     Edge 94, Type (0, 0), BuildingBlock: OJICUG_clean_linker_0, # of connection points: 2
#     Edge 95, Type (0, 0), BuildingBlock: OJICUG_clean_linker_0, # of connection points: 2
#     Edge 96, Type (0, 0), BuildingBlock: OJICUG_clean_linker_0, # of connection points: 2
#     Edge 97, Type (0, 0), BuildingBlock: OJICUG_clean_linker_0, # of connection points: 2
#     Edge 98, Type (0, 0), BuildingBlock: OJICUG_clean_linker_0, # of connection points: 2
#     Edge 99, Type (0, 0), BuildingBlock: OJICUG_clean_linker_0, # of connection points: 2
#     Edge 100, Type (0, 0), BuildingBlock: OJICUG_clean_linker_0, # of connection points: 2
#     Edge 101, Type (0, 0), BuildingBlock: OJICUG_clean_linker_0, # of connection points: 2
#     Edge 102, Type (0, 0), BuildingBlock: OJICUG_clean_linker_0, # of connection points: 2
#     Edge 103, Type (0, 0), BuildingBlock: OJICUG_clean_linker_0, # of connection points: 2
#     Edge 104, Type (0, 0), BuildingBlock: OJICUG_clean_linker_0, # of connection points: 2
#     Edge 105, Type (0, 0), BuildingBlock: OJICUG_clean_linker_0, # of connection points: 2
#     Edge 106, Type (0, 0), BuildingBlock: OJICUG_clean_linker_0, # of connection points: 2
#     Edge 107, Type (0, 0), BuildingBlock: OJICUG_clean_linker_0, # of connection points: 2
#     Edge 108, Type (0, 0), BuildingBlock: OJICUG_clean_linker_0, # of connection points: 2
#     Edge 109, Type (0, 0), BuildingBlock: OJICUG_clean_linker_0, # of connection points: 2
#     Edge 110, Type (0, 0), BuildingBlock: OJICUG_clean_linker_0, # of connection points: 2
#     Edge 111, Type (0, 0), BuildingBlock: OJICUG_clean_linker_0, # of connection points: 2
#     Edge 112, Type (0, 0), BuildingBlock: OJICUG_clean_linker_0, # of connection points: 2
#     Edge 113, Type (0, 0), BuildingBlock: OJICUG_clean_linker_0, # of connection points: 2
#     Edge 114, Type (0, 0), BuildingBlock: OJICUG_clean_linker_0, # of connection points: 2
#     Edge 115, Type (0, 0), BuildingBlock: OJICUG_clean_linker_0, # of connection points: 2
#     Edge 116, Type (0, 0), BuildingBlock: OJICUG_clean_linker_0, # of connection points: 2
#     Edge 117, Type (0, 0), BuildingBlock: OJICUG_clean_linker_0, # of connection points: 2
#     Edge 118, Type (0, 0), BuildingBlock: OJICUG_clean_linker_0, # of connection points: 2
#     Edge 119, Type (0, 0), BuildingBlock: OJICUG_clean_linker_0, # of connection points: 2
#     Edge 120, Type (0, 0), BuildingBlock: OJICUG_clean_linker_0, # of connection points: 2
#     Edge 121, Type (0, 0), BuildingBlock: OJICUG_clean_linker_0, # of connection points: 2
#     Edge 122, Type (0, 0), BuildingBlock: OJICUG_clean_linker_0, # of connection points: 2
#     Edge 123, Type (0, 0), BuildingBlock: OJICUG_clean_linker_0, # of connection points: 2
#     Edge 124, Type (0, 0), BuildingBlock: OJICUG_clean_linker_0, # of connection points: 2
#     Edge 125, Type (0, 0), BuildingBlock: OJICUG_clean_linker_0, # of connection points: 2
#     Edge 126, Type (0, 0), BuildingBlock: OJICUG_clean_linker_0, # of connection points: 2
#     Edge 127, Type (0, 0), BuildingBlock: OJICUG_clean_linker_0, # of connection points: 2
#     Edge 128, Type (0, 0), BuildingBlock: OJICUG_clean_linker_0, # of connection points: 2
#     Edge 129, Type (0, 0), BuildingBlock: OJICUG_clean_linker_0, # of connection points: 2
#     Edge 130, Type (0, 0), BuildingBlock: OJICUG_clean_linker_0, # of connection points: 2
#     Edge 131, Type (0, 0), BuildingBlock: OJICUG_clean_linker_0, # of connection points: 2
#     Edge 132, Type (0, 0), BuildingBlock: OJICUG_clean_linker_0, # of connection points: 2
#     Edge 133, Type (0, 0), BuildingBlock: OJICUG_clean_linker_0, # of connection points: 2
#     Edge 134, Type (0, 0), BuildingBlock: OJICUG_clean_linker_0, # of connection points: 2
#     Edge 135, Type (0, 0), BuildingBlock: OJICUG_clean_linker_0, # of connection points: 2
#     Edge 136, Type (0, 0), BuildingBlock: OJICUG_clean_linker_0, # of connection points: 2
#     Edge 137, Type (0, 0), BuildingBlock: OJICUG_clean_linker_0, # of connection points: 2
#     Edge 138, Type (0, 0), BuildingBlock: OJICUG_clean_linker_0, # of connection points: 2
#     Edge 139, Type (0, 0), BuildingBlock: OJICUG_clean_linker_0, # of connection points: 2
#     Edge 140, Type (0, 0), BuildingBlock: OJICUG_clean_linker_0, # of connection points: 2
#     Edge 141, Type (0, 0), BuildingBlock: OJICUG_clean_linker_0, # of connection points: 2
#     Edge 142, Type (0, 0), BuildingBlock: OJICUG_clean_linker_0, # of connection points: 2
#     Edge 143, Type (0, 0), BuildingBlock: OJICUG_clean_linker_0, # of connection points: 2
#     Edge 144, Type (0, 0), BuildingBlock: OJICUG_clean_linker_0, # of connection points: 2
#     Edge 145, Type (0, 0), BuildingBlock: OJICUG_clean_linker_0, # of connection points: 2
#     Edge 146, Type (0, 0), BuildingBlock: OJICUG_clean_linker_0, # of connection points: 2
#     Edge 147, Type (0, 0), BuildingBlock: OJICUG_clean_linker_0, # of connection points: 2
#     Edge 148, Type (0, 0), BuildingBlock: OJICUG_clean_linker_0, # of connection points: 2
#     Edge 149, Type (0, 0), BuildingBlock: OJICUG_clean_linker_0, # of connection points: 2
#     Edge 150, Type (0, 0), BuildingBlock: OJICUG_clean_linker_0, # of connection points: 2
#     Edge 151, Type (0, 0), BuildingBlock: OJICUG_clean_linker_0, # of connection points: 2
#     Edge 152, Type (0, 0), BuildingBlock: OJICUG_clean_linker_0, # of connection points: 2
#     Edge 153, Type (0, 0), BuildingBlock: OJICUG_clean_linker_0, # of connection points: 2
#     Edge 154, Type (0, 0), BuildingBlock: OJICUG_clean_linker_0, # of connection points: 2
#     Edge 155, Type (0, 0), BuildingBlock: OJICUG_clean_linker_0, # of connection points: 2
#     Edge 156, Type (0, 0), BuildingBlock: OJICUG_clean_linker_0, # of connection points: 2
#     Edge 157, Type (0, 0), BuildingBlock: OJICUG_clean_linker_0, # of connection points: 2
#     Edge 158, Type (0, 0), BuildingBlock: OJICUG_clean_linker_0, # of connection points: 2
#     Edge 159, Type (0, 0), BuildingBlock: OJICUG_clean_linker_0, # of connection points: 2
# Relax obj value: 0.059
# Max RMSD: 0.153
# Mean RMSD: 0.153
data_MOF--net-sou--node1-HISSIN_clean_sbu_1--edge1-OJICUG_clean_linker_0
_symmetry_space_group_name_H-M    P1
_symmetry_Int_Tables_number       1
_symmetry_cell_setting            triclinic
loop_
_symmetry_equiv_pos_as_xyz
'x, y, z'
_cell_length_a     70.342902
_cell_length_b     34.064306
_cell_length_c     29.845341
_cell_angle_alpha  90.009998
_cell_angle_beta   89.972595
_cell_angle_gamma 90.12174
loop_
_atom_site_label
_atom_site_type_symbol
_atom_site_fract_x
_atom_site_fract_y
_atom_site_fract_z
_atom_type_partial_charge
Eu0 Eu 0.99676 0.29454 0.06373 0.0
C1 C 0.01036 0.26844 0.9669 0.0
O2 O 0.99914 0.23911 0.10391 0.0
C3 C 0.08143 0.34214 0.00765 0.0
C4 C 0.12097 0.34544 0.02056 0.0
C5 C 0.09249 0.37113 0.98548 0.0
C6 C 0.11231 0.37327 0.993 0.0
C7 C 0.09031 0.31842 0.04018 0.0
C8 C 0.10999 0.3211 0.04777 0.0
Eu9 Eu 0.02512 0.35289 0.99355 0.0
O10 O 1.00674 0.34537 0.10811 0.0
O11 O 0.02212 0.41379 0.96476 0.0
O12 O 0.00926 0.30541 0.95365 0.0
O13 O 0.01503 0.3897 0.05297 0.0
C14 C 1.00623 0.43335 0.97142 0.0
O15 O 0.99079 0.41352 0.9818 0.0
O16 O 0.04888 0.32547 0.029 0.0
C17 C 0.061 0.33492 0.99684 0.0
C18 C 0.01506 0.21905 0.10469 0.0
O19 O 0.03059 0.23484 0.08808 0.0
O20 O 0.0532 0.35391 0.9631 0.0
O21 O 0.01265 0.26111 0.00974 0.0
C22 C 0.96125 0.30256 0.04367 0.0
O23 O 0.9748 0.31834 0.01886 0.0
C24 C 0.94153 0.29737 0.02747 0.0
C25 C 0.90304 0.29423 0.00415 0.0
C26 C 0.93161 0.26089 0.02839 0.0
C27 C 0.91212 0.25935 0.01607 0.0
C28 C 0.93175 0.33162 0.01554 0.0
C29 C 0.91255 0.32986 0.00439 0.0
C30 C 0.01034 0.38173 0.09477 0.0
O31 O 0.96716 0.28281 0.07878 0.0
H32 H 0.136 0.34877 0.02817 0.0
H33 H 0.08572 0.39264 0.96408 0.0
H34 H 0.08182 0.29929 0.06126 0.0
H35 H 0.88784 0.29443 0.99777 0.0
H36 H 0.93886 0.23442 0.03884 0.0
H37 H 0.93876 0.35997 0.01743 0.0
Eu38 Eu 0.27154 0.98343 0.06528 0.0
C39 C 0.25682 1.01053 0.97064 0.0
O40 O 0.26837 0.03723 0.10798 0.0
C41 C 0.18569 0.93385 0.0069 0.0
C42 C 0.14602 0.92974 0.00835 0.0
C43 C 0.17602 0.90479 0.98162 0.0
C44 C 0.15603 0.90215 0.98346 0.0
C45 C 0.17527 0.95538 0.03917 0.0
C46 C 0.15536 0.95126 0.04159 0.0
Eu47 Eu 0.24204 0.92639 0.99741 0.0
O48 O 0.26416 0.93073 0.10977 0.0
O49 O 0.24639 0.86606 0.96797 0.0
O50 O 0.2579 0.97365 0.95727 0.0
O51 O 0.25029 0.88905 0.05787 0.0
C52 C 0.26237 0.8474 0.97657 0.0
O53 O 0.27701 0.86791 0.9909 0.0
O54 O 0.21754 0.95273 0.03164 0.0
C55 C 0.20605 0.94349 0.99821 0.0
C56 C 0.25238 0.05705 0.10851 0.0
O57 O 0.23695 0.04103 0.09166 0.0
O58 O 0.21462 0.92578 0.96455 0.0
O59 O 0.25455 0.01723 0.01357 0.0
C60 C 0.30666 0.98245 0.04055 0.0
O61 O 0.2935 0.96233 0.01888 0.0
C62 C 0.32679 0.9835 0.02666 0.0
C63 C 0.36538 0.98292 0.00414 0.0
C64 C 0.3375 0.01885 0.02752 0.0
C65 C 0.35698 0.01861 0.01575 0.0
C66 C 0.33579 0.94816 0.01535 0.0
C67 C 0.35511 0.94806 0.00462 0.0
C68 C 0.25772 0.89565 0.09778 0.0
O69 O 0.30082 1.00153 0.07621 0.0
H70 H 0.13062 0.92714 0.00992 0.0
H71 H 0.18389 0.88389 0.96154 0.0
H72 H 0.18261 0.97387 0.06314 0.0
H73 H 0.38058 0.98147 0.99801 0.0
H74 H 0.33072 0.04612 0.03713 0.0
H75 H 0.32808 0.9206 0.01725 0.0
Eu76 Eu 0.99468 0.97921 0.18931 0.0
C77 C 0.0103 1.00809 0.2855 0.0
O78 O 0.99708 0.03496 0.1496 0.0
C79 C 0.08527 0.9375 0.24316 0.0
C80 C 0.12467 0.94416 0.23692 0.0
C81 C 0.09713 0.90976 0.26525 0.0
C82 C 0.11719 0.91142 0.2594 0.0
C83 C 0.0936 0.96223 0.21074 0.0
C84 C 0.11341 0.96392 0.20597 0.0
Eu85 Eu 0.02876 0.92582 0.25515 0.0
O86 O 1.00534 0.93001 0.14367 0.0
O87 O 0.02445 0.86445 0.2818 0.0
O88 O 0.01285 0.97121 0.29814 0.0
O89 O 0.0207 0.88932 0.19398 0.0
C90 C 1.00863 0.8455 0.27204 0.0
O91 O 0.99375 0.86597 0.25938 0.0
O92 O 0.05277 0.95563 0.22356 0.0
C93 C 0.06476 0.94302 0.25447 0.0
C94 C 0.01339 0.05377 0.14766 0.0
O95 O 0.02875 0.03667 0.16323 0.0
O96 O 0.05679 0.92136 0.28591 0.0
O97 O 1.00864 0.01696 0.24288 0.0
C98 C 0.95902 0.96715 0.20636 0.0
O99 O 0.97264 0.95439 0.23304 0.0
C100 C 0.94013 0.97756 0.22481 0.0
C101 C 0.90178 0.98988 0.24688 0.0
C102 C 0.93204 0.01545 0.2206 0.0
C103 C 0.91265 0.02138 0.23129 0.0
C104 C 0.92879 0.9465 0.24043 0.0
C105 C 0.90967 0.95262 0.25112 0.0
C106 C 0.0127 0.8956 0.15471 0.0
O107 O 0.96512 0.98603 0.17071 0.0
H108 H 0.13993 0.94817 0.23465 0.0
H109 H 0.09076 0.88684 0.28541 0.0
H110 H 0.08474 0.97894 0.18799 0.0
H111 H 0.88678 0.99404 0.25409 0.0
H112 H 0.94046 0.03961 0.20773 0.0
H113 H 0.93446 0.9169 0.24122 0.0
Eu114 Eu 0.27267 0.29786 0.18514 0.0
C115 C 0.25749 0.26788 0.28081 0.0
O116 O 0.2701 0.24259 0.14478 0.0
C117 C 0.18331 0.34719 0.24307 0.0
C118 C 0.1438 0.34976 0.24754 0.0
C119 C 0.17416 0.37637 0.26915 0.0
C120 C 0.15416 0.3784 0.27003 0.0
C121 C 0.17225 0.32612 0.21148 0.0
C122 C 0.15222 0.32982 0.21163 0.0
Eu123 Eu 0.23985 0.35158 0.25228 0.0
O124 O 0.26244 0.34802 0.1403 0.0
O125 O 0.24453 0.41253 0.28042 0.0
O126 O 0.25514 0.30458 0.29436 0.0
O127 O 0.24867 0.38927 0.19254 0.0
C128 C 0.26062 0.43103 0.27184 0.0
O129 O 0.2753 0.41026 0.25852 0.0
O130 O 0.21496 0.32685 0.21751 0.0
C131 C 0.20361 0.3365 0.25107 0.0
C132 C 0.25382 0.22367 0.14377 0.0
O133 O 0.23853 0.24093 0.15957 0.0
O134 O 0.21245 0.35325 0.285 0.0
O135 O 0.25839 0.26009 0.23781 0.0
C136 C 0.30807 0.3087 0.20462 0.0
O137 O 0.29421 0.32325 0.22938 0.0
C138 C 0.32698 0.30113 0.22436 0.0
C139 C 0.36491 0.29533 0.25172 0.0
C140 C 0.33632 0.26414 0.22336 0.0
C141 C 0.35553 0.26114 0.2377 0.0
C142 C 0.33698 0.3344 0.23871 0.0
C143 C 0.35593 0.33149 0.25159 0.0
C144 C 0.25602 0.38295 0.15255 0.0
O145 O 0.30247 0.28849 0.16948 0.0
H146 H 0.12843 0.35033 0.25057 0.0
H147 H 0.18242 0.39751 0.28807 0.0
H148 H 0.17921 0.30795 0.18667 0.0
H149 H 0.38002 0.29478 0.25892 0.0
H150 H 0.3289 0.23848 0.21091 0.0
H151 H 0.33049 0.36322 0.2365 0.0
Eu152 Eu 0.99071 0.67761 0.00416 0.0
C153 C 1.00611 0.64644 0.90344 0.0
O154 O 0.99408 0.61642 0.03184 0.0
C155 C 0.07686 0.73002 0.97418 0.0
C156 C 0.11523 0.7341 0.99835 0.0
C157 C 0.08654 0.76671 0.97356 0.0
C158 C 0.10596 0.76871 0.98622 0.0
C159 C 0.08682 0.69596 0.98608 0.0
C160 C 0.10598 0.69819 0.99765 0.0
Eu161 Eu 0.02196 0.73265 0.93585 0.0
O162 O 1.00737 0.72353 0.04459 0.0
O163 O 0.01964 0.78793 0.89534 0.0
O164 O 0.01285 0.68123 0.89135 0.0
O165 O 1.006 0.7679 0.98825 0.0
C166 C 1.00357 0.80747 0.89386 0.0
O167 O 0.988 0.79094 0.90931 0.0
O168 O 0.04353 0.7096 0.98223 0.0
C169 C 0.05728 0.72453 0.95736 0.0
C170 C 0.00992 0.59711 0.0237 0.0
O171 O 0.02512 0.6172 0.01209 0.0
O172 O 0.05166 0.74374 0.92158 0.0
O173 O 0.99859 0.64024 0.94336 0.0
C174 C 0.95498 0.69692 0.00415 0.0
O175 O 0.96678 0.7069 0.97157 0.0
C176 C 0.93455 0.68922 0.99377 0.0
C177 C 0.89497 0.68478 0.9823 0.0
C178 C 0.92382 0.66015 0.01656 0.0
C179 C 0.904 0.65739 0.00975 0.0
C180 C 0.92535 0.71231 0.9611 0.0
C181 C 0.90563 0.70905 0.95428 0.0
C182 C 1.00732 0.76053 0.03127 0.0
O183 O 0.9631 0.67704 0.03681 0.0
H184 H 0.1304 0.73436 0.00505 0.0
H185 H 0.07917 0.793 0.96297 0.0
H186 H 0.07999 0.66744 0.9838 0.0
H187 H 0.87992 0.68089 0.97523 0.0
H188 H 0.93085 0.63894 0.03791 0.0
H189 H 0.9336 0.73136 0.93942 0.0
Eu190 Eu 0.77519 0.10353 0.00153 0.0
C191 C 0.76034 0.13432 0.90146 0.0
O192 O 0.77258 0.16357 0.03237 0.0
C193 C 0.6919 0.05085 0.97092 0.0
C194 C 0.65378 0.04424 0.99672 0.0
C195 C 0.68283 1.01346 0.97107 0.0
C196 C 0.66352 1.01014 0.98458 0.0
C197 C 0.68144 0.08423 0.98309 0.0
C198 C 0.66241 0.08075 0.99543 0.0
Eu199 Eu 0.7465 0.0473 0.93237 0.0
O200 O 0.75952 0.05608 0.04207 0.0
O201 O 0.74862 0.9911 0.89335 0.0
O202 O 0.75706 0.09785 0.88791 0.0
O203 O 0.76169 1.01168 0.98583 0.0
C204 C 0.76475 0.97176 0.89208 0.0
O205 O 0.78026 0.98876 0.90721 0.0
O206 O 0.72498 0.07193 0.97754 0.0
C207 C 0.71109 0.05818 0.95225 0.0
C208 C 0.75662 0.18318 0.02759 0.0
O209 O 0.74109 0.16365 0.01732 0.0
O210 O 0.71668 0.03858 0.91668 0.0
O211 O 0.76474 0.14192 0.94356 0.0
C212 C 0.81121 0.08669 0.99822 0.0
O213 O 0.79964 0.07967 0.96421 0.0
C214 C 0.83166 0.09661 0.99097 0.0
C215 C 0.87129 0.09896 0.99428 0.0
C216 C 0.84107 0.12519 0.01757 0.0
C217 C 0.86111 0.12704 0.01801 0.0
C218 C 0.8425 0.07549 0.95917 0.0
C219 C 0.86249 0.07902 0.95892 0.0
C220 C 0.76015 0.01907 0.02883 0.0
O221 O 0.80272 0.10198 0.03345 0.0
H222 H 0.63864 0.04313 0.00369 0.0
H223 H 0.69055 0.98768 0.9602 0.0
H224 H 0.68774 0.11324 0.98018 0.0
H225 H 0.88672 0.10023 0.99541 0.0
H226 H 0.83297 0.14616 0.03705 0.0
H227 H 0.83543 0.05767 0.93413 0.0
Eu228 Eu 0.98897 0.09963 0.74599 0.0
C229 C 1.00506 0.13169 0.84618 0.0
O230 O 0.99386 0.16113 0.71998 0.0
C231 C 0.07823 0.0492 0.77594 0.0
C232 C 0.11656 0.04283 0.75255 0.0
C233 C 0.08729 1.01194 0.77685 0.0
C234 C 0.10671 1.00873 0.76449 0.0
C235 C 0.0887 0.08253 0.76367 0.0
C236 C 0.10783 0.07917 0.75254 0.0
Eu237 Eu 0.0235 0.04738 0.81307 0.0
O238 O 1.0052 0.05389 0.70437 0.0
O239 O 0.02066 0.99281 0.85467 0.0
O240 O 0.01419 0.09898 0.85657 0.0
O241 O 1.0089 1.00962 0.76108 0.0
C242 C 1.00442 0.97371 0.85591 0.0
O243 O 0.98911 0.99047 0.83956 0.0
O244 O 0.04533 0.07053 0.76772 0.0
C245 C 0.05896 0.05649 0.79352 0.0
C246 C 0.00964 0.17983 0.73077 0.0
O247 O 0.02412 0.15928 0.74561 0.0
O248 O 0.05311 0.03747 0.8293 0.0
O249 O 0.99551 0.13596 0.80842 0.0
C250 C 0.95302 0.08205 0.74261 0.0
O251 O 0.96444 0.06955 0.77476 0.0
C252 C 0.93267 0.09004 0.75327 0.0
C253 C 0.89317 0.09495 0.76582 0.0
C254 C 0.92195 0.11904 0.73045 0.0
C255 C 0.90216 0.12204 0.73778 0.0
C256 C 0.92353 0.06731 0.7864 0.0
C257 C 0.9039 0.0709 0.79381 0.0
C258 C 1.00786 0.01736 0.71812 0.0
O259 O 0.96165 0.1035 0.71195 0.0
H260 H 0.13178 0.04191 0.74655 0.0
H261 H 0.07946 0.9862 0.78762 0.0
H262 H 0.08232 0.11148 0.76567 0.0
H263 H 0.87819 0.09903 0.77341 0.0
H264 H 0.92897 0.14 0.70868 0.0
H265 H 0.93178 0.04838 0.80813 0.0
Eu266 Eu 0.77535 0.66857 0.74601 0.0
C267 C 0.76138 0.64232 0.8475 0.0
O268 O 0.77379 0.60545 0.71999 0.0
C269 C 0.69297 0.72588 0.77984 0.0
C270 C 0.65575 0.73631 0.74924 0.0
C271 C 0.68485 0.76407 0.77931 0.0
C272 C 0.66604 0.76913 0.76335 0.0
C273 C 0.68199 0.69367 0.76628 0.0
C274 C 0.66338 0.69898 0.75178 0.0
Eu275 Eu 0.74714 0.72849 0.81633 0.0
O276 O 0.76069 0.71715 0.70499 0.0
O277 O 0.74938 0.78517 0.85449 0.0
O278 O 0.75842 0.67897 0.86045 0.0
O279 O 0.76129 0.76312 0.76075 0.0
C280 C 0.76529 0.80542 0.85405 0.0
O281 O 0.7807 0.78928 0.83741 0.0
O282 O 0.72519 0.70197 0.77432 0.0
C283 C 0.71156 0.71636 0.79987 0.0
C284 C 0.75788 0.58465 0.72222 0.0
O285 O 0.74178 0.60344 0.72822 0.0
O286 O 0.71755 0.73685 0.83442 0.0
O287 O 0.76452 0.63307 0.80533 0.0
C288 C 0.81085 0.68858 0.75321 0.0
O289 O 0.79876 0.69312 0.7867 0.0
C290 C 0.83129 0.67973 0.7611 0.0
C291 C 0.87079 0.68001 0.75582 0.0
C292 C 0.84079 0.65187 0.73415 0.0
C293 C 0.86074 0.65126 0.73277 0.0
C294 C 0.84208 0.70124 0.79285 0.0
C295 C 0.86217 0.69892 0.79216 0.0
C296 C 0.76082 0.75446 0.71789 0.0
O297 O 0.80314 0.67381 0.71667 0.0
H298 H 0.64092 0.73939 0.73966 0.0
H299 H 0.69286 0.78908 0.79146 0.0
H300 H 0.68747 0.66406 0.76989 0.0
H301 H 0.88618 0.68009 0.75302 0.0
H302 H 0.83283 0.63038 0.71499 0.0
H303 H 0.83493 0.71854 0.81819 0.0
Eu304 Eu 0.99718 0.79632 0.56733 0.0
C305 C 0.01163 0.76655 0.47001 0.0
O306 O 0.99911 0.74019 0.60608 0.0
C307 C 0.08342 0.8476 0.50772 0.0
C308 C 0.12328 0.84365 0.51113 0.0
C309 C 0.09475 0.87354 0.48186 0.0
C310 C 0.11476 0.87264 0.48498 0.0
C311 C 0.09251 0.82388 0.54 0.0
C312 C 0.1125 0.82339 0.54308 0.0
Eu313 Eu 0.02562 0.85407 0.49713 0.0
O314 O 0.01022 0.84465 0.61084 0.0
O315 O 0.01984 0.9127 0.46445 0.0
O316 O 0.01328 0.8032 0.45553 0.0
O317 O 0.0125 0.88954 0.55414 0.0
C318 C 1.00395 0.93171 0.47297 0.0
O319 O 0.98915 0.91174 0.48737 0.0
O320 O 0.05064 0.83381 0.53505 0.0
C321 C 0.06223 0.84912 0.50479 0.0
C322 C 0.01531 0.72116 0.60703 0.0
O323 O 0.03071 0.73855 0.59183 0.0
O324 O 0.05377 0.86594 0.47048 0.0
O325 O 0.01074 0.75909 0.51316 0.0
C326 C 0.96167 0.81021 0.55086 0.0
O327 O 0.9755 0.82341 0.52495 0.0
C328 C 0.9427 0.80191 0.53141 0.0
C329 C 0.90514 0.7939 0.50186 0.0
C330 C 0.93393 0.76416 0.53069 0.0
C331 C 0.91492 0.76019 0.51521 0.0
C332 C 0.93214 0.83489 0.51842 0.0
C333 C 0.91339 0.83074 0.50426 0.0
C334 C 0.0113 0.88142 0.59706 0.0
O335 O 0.96743 0.78997 0.5858 0.0
H336 H 0.13863 0.84465 0.51535 0.0
H337 H 0.08806 0.8964 0.46218 0.0
H338 H 0.08414 0.8086 0.56502 0.0
H339 H 0.89018 0.79213 0.49313 0.0
H340 H 0.94162 0.73865 0.54242 0.0
H341 H 0.93811 0.86413 0.52196 0.0
Eu342 Eu 0.27207 0.48079 0.56854 0.0
C343 C 0.25868 0.51098 0.47272 0.0
O344 O 0.26982 0.53654 0.60795 0.0
C345 C 0.18549 0.4399 0.50626 0.0
C346 C 0.14579 0.43459 0.51003 0.0
C347 C 0.17568 0.41187 0.47996 0.0
C348 C 0.15578 0.40846 0.483 0.0
C349 C 0.17527 0.46036 0.53972 0.0
C350 C 0.15542 0.45587 0.54303 0.0
Eu351 Eu 0.2415 0.42854 0.49868 0.0
O352 O 0.2611 0.43091 0.61253 0.0
O353 O 0.24502 0.36762 0.47031 0.0
O354 O 0.25859 0.47411 0.45913 0.0
O355 O 0.24867 0.38975 0.55855 0.0
C356 C 0.26076 0.34835 0.47958 0.0
O357 O 0.27571 0.36855 0.49267 0.0
O358 O 0.21734 0.4568 0.53209 0.0
C359 C 0.20594 0.44885 0.49806 0.0
C360 C 0.25353 0.55523 0.60959 0.0
O361 O 0.23811 0.53759 0.59492 0.0
O362 O 0.21442 0.43082 0.4645 0.0
O363 O 0.25764 0.51823 0.51578 0.0
C364 C 0.30757 0.46869 0.55066 0.0
O365 O 0.29383 0.45657 0.52386 0.0
C366 C 0.32645 0.47889 0.53221 0.0
C367 C 0.36444 0.49137 0.50737 0.0
C368 C 0.33444 0.51711 0.53461 0.0
C369 C 0.35365 0.52303 0.52222 0.0
C370 C 0.33788 0.44746 0.51823 0.0
C371 C 0.35686 0.45376 0.50646 0.0
C372 C 0.25509 0.39594 0.5994 0.0
O373 O 0.30169 0.48713 0.58679 0.0
H374 H 0.13052 0.43064 0.51347 0.0
H375 H 0.18344 0.39181 0.45854 0.0
H376 H 0.18278 0.47795 0.56429 0.0
H377 H 0.37938 0.49564 0.49932 0.0
H378 H 0.32607 0.5415 0.5469 0.0
H379 H 0.3324 0.41766 0.51945 0.0
Eu380 Eu 0.99659 0.48269 0.68782 0.0
C381 C 0.01216 0.51009 0.7815 0.0
O382 O 1.00015 0.53502 0.64305 0.0
C383 C 0.08421 0.43687 0.74707 0.0
C384 C 0.12388 0.43219 0.73999 0.0
C385 C 0.09443 0.40845 0.77196 0.0
C386 C 0.11433 0.40551 0.76738 0.0
C387 C 0.09398 0.45834 0.71367 0.0
C388 C 0.11377 0.45445 0.70882 0.0
Eu389 Eu 0.02795 0.427 0.75412 0.0
O390 O 1.00254 0.4287 0.64448 0.0
O391 O 0.02347 0.36548 0.78037 0.0
O392 O 0.01153 0.47313 0.79483 0.0
O393 O 0.02124 0.39081 0.69156 0.0
C394 C 1.00767 0.34667 0.77006 0.0
O395 O 0.9931 0.36713 0.75553 0.0
O396 O 0.05245 0.45618 0.72341 0.0
C397 C 0.0638 0.44546 0.75647 0.0
C398 C 0.01622 0.55466 0.64228 0.0
O399 O 0.03151 0.53886 0.65987 0.0
O400 O 0.05515 0.42552 0.78839 0.0
O401 O 0.01402 0.51685 0.7385 0.0
C402 C 0.96158 0.48336 0.71303 0.0
O403 O 0.9746 0.46293 0.73464 0.0
C404 C 0.94155 0.48464 0.72728 0.0
C405 C 0.90292 0.48425 0.74895 0.0
C406 C 0.93097 0.51999 0.726 0.0
C407 C 0.91147 0.51981 0.73735 0.0
C408 C 0.93243 0.44936 0.73863 0.0
C409 C 0.91308 0.44942 0.74892 0.0
C410 C 0.01142 0.39549 0.65423 0.0
O411 O 0.96751 0.50232 0.67734 0.0
H412 H 0.13908 0.42841 0.73498 0.0
H413 H 0.08698 0.38793 0.79347 0.0
H414 H 0.08616 0.47642 0.6902 0.0
H415 H 0.88768 0.48284 0.75463 0.0
H416 H 0.93783 0.54718 0.71624 0.0
H417 H 0.94005 0.42175 0.73695 0.0
Eu418 Eu 0.27083 0.79664 0.68486 0.0
C419 C 0.2569 0.768 0.78019 0.0
O420 O 0.26864 0.74161 0.64411 0.0
C421 C 0.18444 0.84107 0.74563 0.0
C422 C 0.14475 0.84554 0.74141 0.0
C423 C 0.17449 0.86914 0.7716 0.0
C424 C 0.15456 0.87213 0.76832 0.0
C425 C 0.17436 0.8205 0.71193 0.0
C426 C 0.15451 0.82464 0.70834 0.0
Eu427 Eu 0.24063 0.85096 0.7539 0.0
O428 O 0.26159 0.8478 0.64044 0.0
O429 O 0.2448 0.91197 0.78182 0.0
O430 O 0.25735 0.80491 0.79364 0.0
O431 O 0.24799 0.88871 0.69322 0.0
C432 C 0.26058 0.931 0.77181 0.0
O433 O 0.27524 0.91064 0.75755 0.0
O434 O 0.21629 0.82288 0.72095 0.0
C435 C 0.20483 0.83198 0.75448 0.0
C436 C 0.25255 0.72207 0.64259 0.0
O437 O 0.237 0.73864 0.65793 0.0
O438 O 0.21338 0.85043 0.78771 0.0
O439 O 0.25509 0.76092 0.73723 0.0
C440 C 0.30608 0.80603 0.70643 0.0
O441 O 0.29217 0.82066 0.73094 0.0
C442 C 0.32519 0.79929 0.72534 0.0
C443 C 0.36312 0.7939 0.75257 0.0
C444 C 0.33454 0.76235 0.72483 0.0
C445 C 0.35373 0.75969 0.73904 0.0
C446 C 0.33527 0.83291 0.7384 0.0
C447 C 0.35423 0.83012 0.75125 0.0
C448 C 0.25514 0.88261 0.65299 0.0
O449 O 0.30063 0.78629 0.67084 0.0
H450 H 0.12945 0.84896 0.73799 0.0
H451 H 0.18215 0.88943 0.79299 0.0
H452 H 0.18196 0.80297 0.68751 0.0
H453 H 0.3782 0.79312 0.76032 0.0
H454 H 0.32717 0.73643 0.71292 0.0
H455 H 0.32877 0.86168 0.73557 0.0
Eu456 Eu 0.98831 0.1784 0.50132 0.0
C457 C 1.00581 0.14628 0.40347 0.0
O458 O 0.99375 0.11671 0.52547 0.0
C459 C 0.07808 0.23551 0.4776 0.0
C460 C 0.11711 0.23603 0.49475 0.0
C461 C 0.0884 0.2712 0.47617 0.0
C462 C 0.10811 0.27156 0.48524 0.0
C463 C 0.08756 0.20035 0.48746 0.0
C464 C 0.10712 0.20086 0.49556 0.0
Eu465 Eu 0.02297 0.23186 0.43912 0.0
O466 O 1.00504 0.22273 0.54417 0.0
O467 O 0.01894 0.28368 0.39343 0.0
O468 O 0.01821 0.17534 0.39907 0.0
O469 O 1.00544 0.26731 0.48845 0.0
C470 C 1.00286 0.30328 0.39294 0.0
O471 O 0.98759 0.28736 0.41073 0.0
O472 O 0.04498 0.21483 0.48703 0.0
C473 C 0.05802 0.23378 0.46368 0.0
C474 C 0.00911 0.09818 0.5117 0.0
O475 O 0.02311 0.11887 0.49448 0.0
O476 O 0.05205 0.2512 0.42706 0.0
O477 O 0.99277 0.14561 0.43537 0.0
C478 C 0.95237 0.19508 0.5074 0.0
O479 O 0.96325 0.20836 0.47463 0.0
C480 C 0.93214 0.18461 0.49808 0.0
C481 C 0.89257 0.18022 0.4974 0.0
C482 C 0.92262 0.15546 0.52357 0.0
C483 C 0.90265 0.15258 0.52196 0.0
C484 C 0.92163 0.20526 0.46516 0.0
C485 C 0.9017 0.20076 0.46294 0.0
C486 C 1.00575 0.2598 0.53145 0.0
O487 O 0.96165 0.17438 0.53757 0.0
H488 H 0.13244 0.235 0.49868 0.0
H489 H 0.08116 0.29826 0.46781 0.0
H490 H 0.08004 0.17255 0.48618 0.0
H491 H 0.87715 0.17825 0.49734 0.0
H492 H 0.93057 0.13481 0.54377 0.0
H493 H 0.92891 0.22351 0.44086 0.0
Eu494 Eu 0.77167 0.62141 0.50625 0.0
C495 C 0.75616 0.64002 0.40938 0.0
O496 O 0.76314 0.66454 0.56133 0.0
C497 C 0.69127 0.55239 0.47018 0.0
C498 C 0.65299 0.53906 0.49261 0.0
C499 C 0.68309 0.51446 0.46456 0.0
C500 C 0.66364 0.50817 0.47509 0.0
C501 C 0.67976 0.58313 0.4858 0.0
C502 C 0.66067 0.57647 0.49641 0.0
Eu503 Eu 0.74622 0.55209 0.43686 0.0
O504 O 0.76494 0.56512 0.54739 0.0
O505 O 0.74821 0.49477 0.39915 0.0
O506 O 0.75897 0.60319 0.39699 0.0
O507 O 0.7615 0.51851 0.49156 0.0
C508 C 0.76412 0.47452 0.39871 0.0
O509 O 0.77969 0.49079 0.41444 0.0
O510 O 0.72389 0.57453 0.48138 0.0
C511 C 0.71041 0.56356 0.45326 0.0
C512 C 0.75744 0.7017 0.5656 0.0
O513 O 0.75173 0.71162 0.60592 0.0
O514 O 0.71672 0.54702 0.41636 0.0
O515 O 0.75333 0.64826 0.45191 0.0
C516 C 0.80773 0.62678 0.48441 0.0
O517 O 0.79593 0.60133 0.46607 0.0
C518 C 0.82831 0.61615 0.49048 0.0
C519 C 0.86761 0.60079 0.49609 0.0
C520 C 0.8404 0.64019 0.51688 0.0
C521 C 0.86025 0.63363 0.51801 0.0
C522 C 0.83705 0.58877 0.4613 0.0
C523 C 0.85693 0.58269 0.46239 0.0
C524 C 0.76386 0.52787 0.53395 0.0
O525 O 0.79945 0.64939 0.51433 0.0
H526 H 0.63802 0.53471 0.50013 0.0
H527 H 0.69145 0.4908 0.4505 0.0
H528 H 0.68528 0.61291 0.48667 0.0
H529 H 0.88298 0.59739 0.49521 0.0
H530 H 0.83476 0.66631 0.53272 0.0
H531 H 0.82885 0.57572 0.4344 0.0
Eu532 Eu 0.9913 0.60285 0.2492 0.0
C533 C 1.00764 0.63109 0.34696 0.0
O534 O 0.99615 0.66186 0.21637 0.0
C535 C 0.07595 0.55249 0.27958 0.0
C536 C 0.11387 0.54668 0.25167 0.0
C537 C 0.0853 0.5155 0.28027 0.0
C538 C 0.10449 0.51258 0.26574 0.0
C539 C 0.08606 0.58591 0.26581 0.0
C540 C 0.105 0.58295 0.25253 0.0
Eu541 Eu 0.02141 0.54563 0.31651 0.0
O542 O 1.00326 0.55268 0.20592 0.0
O543 O 0.01958 0.48934 0.35535 0.0
O544 O 0.00913 0.59434 0.36074 0.0
O545 O 1.00751 0.50824 0.26269 0.0
C546 C 1.00342 0.46995 0.35672 0.0
O547 O 0.98792 0.487 0.34179 0.0
O548 O 0.0429 0.57261 0.27315 0.0
C549 C 0.05683 0.55968 0.29881 0.0
C550 C 0.01225 0.68108 0.22196 0.0
O551 O 0.02758 0.66115 0.23262 0.0
O552 O 0.05124 0.53936 0.3339 0.0
O553 O 1.00552 0.63889 0.30415 0.0
C554 C 0.95481 0.59836 0.26074 0.0
O555 O 0.96678 0.5835 0.29038 0.0
C556 C 0.93359 0.59746 0.26492 0.0
C557 C 0.89382 0.59577 0.26977 0.0
C558 C 0.92235 0.61913 0.23417 0.0
C559 C 0.90234 0.6205 0.23822 0.0
C560 C 0.92443 0.57973 0.30209 0.0
C561 C 0.90441 0.5802 0.30518 0.0
C562 C 1.00569 0.51604 0.21975 0.0
O563 O 0.96286 0.61377 0.22498 0.0
H564 H 0.12893 0.54585 0.24375 0.0
H565 H 0.07791 0.48972 0.29253 0.0
H566 H 0.0796 0.61474 0.26833 0.0
H567 H 0.87851 0.59571 0.27352 0.0
H568 H 0.92924 0.63676 0.20867 0.0
H569 H 0.93276 0.56802 0.32952 0.0
Eu570 Eu 0.77469 0.172 0.24876 0.0
C571 C 0.75881 0.14257 0.34773 0.0
O572 O 0.76984 0.11448 0.21358 0.0
C573 C 0.69194 0.22753 0.28153 0.0
C574 C 0.65409 0.23689 0.25454 0.0
C575 C 0.68361 0.26555 0.28099 0.0
C576 C 0.66448 0.27014 0.26681 0.0
C577 C 0.68083 0.19487 0.26957 0.0
C578 C 0.66193 0.19973 0.25662 0.0
Eu579 Eu 0.74663 0.23076 0.31837 0.0
O580 O 0.76154 0.22182 0.207 0.0
O581 O 0.74845 0.28773 0.35677 0.0
O582 O 0.75743 0.17945 0.36182 0.0
O583 O 0.76162 0.26644 0.26407 0.0
C584 C 0.76431 0.30828 0.35716 0.0
O585 O 0.77992 0.29228 0.34138 0.0
O586 O 0.72486 0.20645 0.27354 0.0
C587 C 0.71107 0.21902 0.29987 0.0
C588 C 0.75392 0.09504 0.22023 0.0
O589 O 0.73879 0.11461 0.23313 0.0
O590 O 0.71687 0.23793 0.33574 0.0
O591 O 0.76166 0.13492 0.30496 0.0
C592 C 0.81123 0.17865 0.25771 0.0
O593 O 0.79919 0.19387 0.28699 0.0
C594 C 0.83235 0.1818 0.26221 0.0
C595 C 0.87179 0.19187 0.2678 0.0
C596 C 0.84477 0.15528 0.23998 0.0
C597 C 0.86477 0.15879 0.24516 0.0
C598 C 0.84025 0.20861 0.29296 0.0
C599 C 0.86008 0.21192 0.2977 0.0
C600 C 0.76116 0.25871 0.22091 0.0
O601 O 0.80328 0.16104 0.22323 0.0
H602 H 0.6391 0.23949 0.24629 0.0
H603 H 0.69175 0.29088 0.29172 0.0
H604 H 0.68655 0.16544 0.27273 0.0
H605 H 0.88702 0.19608 0.27079 0.0
H606 H 0.83885 0.13076 0.22154 0.0
H607 H 0.8311 0.22429 0.31603 0.0
Eu608 Eu 0.49675 0.30143 0.56634 0.0
C609 C 0.51432 0.27702 0.47006 0.0
O610 O 0.49864 0.24405 0.60474 0.0
C611 C 0.57863 0.36574 0.51657 0.0
C612 C 0.61672 0.34367 0.50913 0.0
C613 C 0.59137 0.38769 0.48908 0.0
C614 C 0.61109 0.37849 0.488 0.0
C615 C 0.58683 0.33979 0.54827 0.0
C616 C 0.60639 0.33075 0.54625 0.0
Eu617 Eu 0.52205 0.37095 0.49663 0.0
O618 O 0.50697 0.35551 0.60619 0.0
O619 O 0.51469 0.41366 0.44014 0.0
O620 O 0.51484 0.31417 0.45599 0.0
O621 O 0.50322 0.40002 0.54924 0.0
C622 C 0.50976 0.45126 0.43552 0.0
O623 O 0.50503 0.46204 0.39479 0.0
O624 O 0.54583 0.35241 0.53929 0.0
C625 C 0.55796 0.37679 0.52019 0.0
C626 C 0.51424 0.22268 0.60468 0.0
O627 O 0.53003 0.23806 0.58895 0.0
O628 O 0.55016 0.39764 0.48805 0.0
O629 O 0.51357 0.26887 0.51311 0.0
C630 C 0.4613 0.30877 0.54509 0.0
O631 O 0.47502 0.32146 0.51859 0.0
C632 C 0.44164 0.30215 0.52894 0.0
C633 C 0.40321 0.2969 0.5054 0.0
C634 C 0.43221 0.2651 0.52979 0.0
C635 C 0.41274 0.26244 0.5172 0.0
C636 C 0.43143 0.3358 0.51686 0.0
C637 C 0.41226 0.33304 0.5056 0.0
C638 C 0.50436 0.39225 0.59247 0.0
O639 O 0.46699 0.29244 0.58263 0.0
H640 H 0.63129 0.33383 0.50603 0.0
H641 H 0.58614 0.41338 0.47174 0.0
H642 H 0.57852 0.32967 0.57661 0.0
H643 H 0.38802 0.2963 0.49894 0.0
H644 H 0.43981 0.23906 0.54023 0.0
H645 H 0.43808 0.36453 0.51872 0.0
Eu646 Eu 0.77164 0.97807 0.56854 0.0
C647 C 0.75404 1.00548 0.47119 0.0
O648 O 0.76985 0.03571 0.60628 0.0
C649 C 0.68793 0.91444 0.51659 0.0
C650 C 0.64894 0.92749 0.50442 0.0
C651 C 0.6773 0.89184 0.48546 0.0
C652 C 0.65745 0.89649 0.4817 0.0
C653 C 0.67751 0.93715 0.54823 0.0
C654 C 0.65751 0.94138 0.54373 0.0
Eu655 Eu 0.74452 0.91155 0.49845 0.0
O656 O 0.75913 0.92605 0.60784 0.0
O657 O 0.75138 0.86901 0.44106 0.0
O658 O 0.7508 0.96868 0.45751 0.0
O659 O 0.7634 0.88251 0.55066 0.0
C660 C 0.75626 0.83137 0.4356 0.0
O661 O 0.76029 0.82084 0.39434 0.0
O662 O 0.72033 0.93334 0.53872 0.0
C663 C 0.70874 0.90606 0.52323 0.0
C664 C 0.75425 0.05703 0.60499 0.0
O665 O 0.73869 0.04142 0.58833 0.0
O666 O 0.7171 0.88237 0.49464 0.0
O667 O 0.75791 1.01366 0.51334 0.0
C668 C 0.8072 0.96526 0.5516 0.0
O669 O 0.79347 0.95362 0.52453 0.0
C670 C 0.82627 0.97426 0.53323 0.0
C671 C 0.86397 0.98348 0.50508 0.0
C672 C 0.83489 1.01212 0.53384 0.0
C673 C 0.85398 0.0167 0.51908 0.0
C674 C 0.83701 0.94176 0.51953 0.0
C675 C 0.85582 0.94651 0.50604 0.0
C676 C 0.76147 0.88942 0.59385 0.0
O677 O 0.80133 0.98351 0.58788 0.0
H678 H 0.63373 0.93149 0.50021 0.0
H679 H 0.68398 0.86777 0.46775 0.0
H680 H 0.68457 0.9482 0.57794 0.0
H681 H 0.87898 0.98564 0.49691 0.0
H682 H 0.82701 0.03725 0.54597 0.0
H683 H 0.83111 0.91237 0.52193 0.0
Eu684 Eu 0.4948 0.97735 0.68174 0.0
C685 C 0.51152 1.00586 0.7782 0.0
O686 O 0.49689 0.03498 0.64393 0.0
C687 C 0.58145 0.91936 0.73745 0.0
C688 C 0.62117 0.9285 0.73175 0.0
C689 C 0.59374 0.89467 0.76235 0.0
C690 C 0.61367 0.89827 0.75797 0.0
C691 C 0.58969 0.94415 0.70457 0.0
C692 C 0.60968 0.94746 0.70052 0.0
Eu693 Eu 0.52344 0.91351 0.75361 0.0
O694 O 0.50603 0.9254 0.64032 0.0
O695 O 0.51413 0.87034 0.80856 0.0
O696 O 0.51353 0.96912 0.79286 0.0
O697 O 0.50985 0.87904 0.69656 0.0
C698 C 0.50817 0.83329 0.81362 0.0
O699 O 0.50177 0.82438 0.85371 0.0
O700 O 0.54833 0.93849 0.7194 0.0
C701 C 0.56023 0.91724 0.74334 0.0
C702 C 0.51282 0.05544 0.64387 0.0
O703 O 0.52838 0.03896 0.65921 0.0
O704 O 0.55201 0.8936 0.7724 0.0
O705 O 0.50967 1.01327 0.73521 0.0
C706 C 0.45923 0.9662 0.69997 0.0
O707 O 0.47295 0.95401 0.72671 0.0
C708 C 0.4403 0.97585 0.71853 0.0
C709 C 0.40276 0.98666 0.74716 0.0
C710 C 0.43222 1.01411 0.71854 0.0
C711 C 0.41325 0.01943 0.73361 0.0
C712 C 0.42914 0.94376 0.73187 0.0
C713 C 0.41041 0.94931 0.74562 0.0
C714 C 0.50764 0.88836 0.65384 0.0
O715 O 0.46511 0.98418 0.66351 0.0
H716 H 0.6365 0.92975 0.72731 0.0
H717 H 0.58789 0.87123 0.78271 0.0
H718 H 0.5807 0.95886 0.68038 0.0
H719 H 0.38788 0.98981 0.7562 0.0
H720 H 0.44043 0.03903 0.70692 0.0
H721 H 0.43467 0.91413 0.7292 0.0
Eu722 Eu 0.77291 0.30161 0.68224 0.0
C723 C 0.75568 0.27011 0.77718 0.0
O724 O 0.77095 0.24496 0.6427 0.0
C725 C 0.68465 0.35684 0.73646 0.0
C726 C 0.64479 0.35088 0.73382 0.0
C727 C 0.67315 0.38147 0.76345 0.0
C728 C 0.65315 0.37957 0.76074 0.0
C729 C 0.67557 0.33398 0.70294 0.0
C730 C 0.6555 0.33228 0.70059 0.0
Eu731 Eu 0.74264 0.36058 0.75169 0.0
O732 O 0.76229 0.35465 0.64113 0.0
O733 O 0.75083 0.40102 0.80907 0.0
O734 O 0.75296 0.30648 0.79173 0.0
O735 O 0.75652 0.39882 0.69839 0.0
C736 C 0.75714 0.43775 0.81062 0.0
O737 O 0.7623 0.45131 0.84999 0.0
O738 O 0.71756 0.33598 0.71707 0.0
C739 C 0.7059 0.35765 0.74128 0.0
C740 C 0.75502 0.22455 0.64188 0.0
O741 O 0.73938 0.24092 0.657 0.0
O742 O 0.71435 0.38077 0.77046 0.0
O743 O 0.75838 0.26309 0.73432 0.0
C744 C 0.80841 0.31233 0.7015 0.0
O745 O 0.7946 0.32381 0.72846 0.0
C746 C 0.82744 0.30288 0.71957 0.0
C747 C 0.86521 0.29223 0.74639 0.0
C748 C 0.83549 0.26458 0.71976 0.0
C749 C 0.85459 0.25932 0.73396 0.0
C750 C 0.83873 0.33507 0.73203 0.0
C751 C 0.85757 0.32956 0.74489 0.0
C752 C 0.75999 0.39127 0.65577 0.0
O753 O 0.80266 0.29517 0.66443 0.0
H754 H 0.62939 0.3509 0.73054 0.0
H755 H 0.67966 0.40379 0.78433 0.0
H756 H 0.68398 0.31968 0.67729 0.0
H757 H 0.8802 0.28925 0.75448 0.0
H758 H 0.82716 0.23959 0.70882 0.0
H759 H 0.83319 0.36469 0.72932 0.0
Eu760 Eu 0.49669 0.65909 0.50661 0.0
C761 C 0.51212 0.63971 0.40892 0.0
O762 O 0.5047 0.61659 0.56283 0.0
C763 C 0.57535 0.72733 0.4732 0.0
C764 C 0.61376 0.73232 0.49699 0.0
C765 C 0.58484 0.76432 0.47241 0.0
C766 C 0.60429 0.76685 0.48511 0.0
C767 C 0.58552 0.69358 0.48535 0.0
C768 C 0.60468 0.69622 0.49676 0.0
Eu769 Eu 0.52033 0.72936 0.43523 0.0
O770 O 0.50424 0.71622 0.54538 0.0
O771 O 0.51841 0.78655 0.39719 0.0
O772 O 0.50923 0.67639 0.39582 0.0
O773 O 0.50298 0.76094 0.48784 0.0
C774 C 0.50247 0.80663 0.39578 0.0
O775 O 0.48669 0.78996 0.40983 0.0
O776 O 0.54185 0.70893 0.48328 0.0
C777 C 0.55572 0.72088 0.45674 0.0
C778 C 0.50965 0.57902 0.56753 0.0
O779 O 0.51461 0.56843 0.60819 0.0
O780 O 0.55019 0.73724 0.41907 0.0
O781 O 0.51469 0.63166 0.45172 0.0
C782 C 0.4606 0.65388 0.48533 0.0
O783 O 0.47267 0.67774 0.46529 0.0
C784 C 0.4401 0.66561 0.48962 0.0
C785 C 0.40116 0.68422 0.49177 0.0
C786 C 0.42707 0.64173 0.51386 0.0
C787 C 0.40736 0.6499 0.51282 0.0
C788 C 0.43246 0.69446 0.46061 0.0
C789 C 0.41275 0.70219 0.45988 0.0
C790 C 0.50333 0.7531 0.53086 0.0
O791 O 0.46855 0.63287 0.51714 0.0
H792 H 0.62895 0.73284 0.5035 0.0
H793 H 0.5773 0.79042 0.46186 0.0
H794 H 0.57883 0.6649 0.4834 0.0
H795 H 0.38595 0.6897 0.49028 0.0
H796 H 0.43197 0.61497 0.52968 0.0
H797 H 0.4414 0.70761 0.43508 0.0
Eu798 Eu 0.27577 0.10413 0.50575 0.0
C799 C 0.26172 0.13303 0.40448 0.0
O800 O 0.27182 0.1645 0.53552 0.0
C801 C 0.19197 0.05074 0.47082 0.0
C802 C 0.15371 0.04223 0.49502 0.0
C803 C 0.18344 1.01278 0.47157 0.0
C804 C 0.16409 1.00851 0.48443 0.0
C805 C 0.18093 0.08364 0.48186 0.0
C806 C 0.16185 0.07921 0.49346 0.0
Eu807 Eu 0.24681 0.0472 0.43494 0.0
O808 O 0.2602 0.05601 0.54547 0.0
O809 O 0.24867 0.99092 0.39623 0.0
O810 O 0.25866 0.09657 0.39094 0.0
O811 O 0.26176 1.01173 0.48866 0.0
C812 C 0.26472 0.97135 0.39487 0.0
O813 O 0.28032 0.9881 0.4098 0.0
O814 O 0.22495 0.07197 0.47918 0.0
C815 C 0.21123 0.05899 0.45286 0.0
C816 C 0.25592 0.18372 0.52778 0.0
O817 O 0.24085 0.16365 0.51525 0.0
O818 O 0.21711 0.03986 0.41723 0.0
O819 O 0.26546 0.14119 0.44672 0.0
C820 C 0.31195 0.08837 0.5034 0.0
O821 O 0.30031 0.07918 0.4702 0.0
C822 C 0.3325 0.09687 0.49485 0.0
C823 C 0.3723 0.10024 0.49027 0.0
C824 C 0.34272 0.12547 0.51978 0.0
C825 C 0.36275 0.12777 0.51641 0.0
C826 C 0.34244 0.07481 0.46234 0.0
C827 C 0.36231 0.07811 0.4586 0.0
C828 C 0.26048 0.01908 0.53171 0.0
O829 O 0.30351 0.10578 0.53742 0.0
H830 H 0.13857 0.04023 0.50171 0.0
H831 H 0.19162 0.98727 0.46182 0.0
H832 H 0.18688 0.11296 0.47892 0.0
H833 H 0.3876 0.10332 0.48625 0.0
H834 H 0.33521 0.14646 0.54048 0.0
H835 H 0.33471 0.0567 0.43866 0.0
Eu836 Eu 0.49045 0.10329 0.2526 0.0
C837 C 0.50756 0.1371 0.35131 0.0
O838 O 0.49536 0.16342 0.22371 0.0
C839 C 0.57713 0.0464 0.27706 0.0
C840 C 0.61563 0.04482 0.25395 0.0
C841 C 0.58726 1.0105 0.27757 0.0
C842 C 0.6067 1.00964 0.26558 0.0
C843 C 0.58662 0.08126 0.26561 0.0
C844 C 0.60592 0.08024 0.25456 0.0
Eu845 Eu 0.52235 0.04861 0.3188 0.0
O846 O 0.50701 0.05765 0.21162 0.0
O847 O 0.51894 0.99411 0.3611 0.0
O848 O 0.51669 0.10403 0.3611 0.0
O849 O 0.50492 1.01415 0.26811 0.0
C850 C 0.5029 0.97415 0.36124 0.0
O851 O 0.48749 0.99057 0.345 0.0
O852 O 0.54384 0.06735 0.26977 0.0
C853 C 0.55718 0.04844 0.29206 0.0
C854 C 0.51103 0.18215 0.23493 0.0
O855 O 0.52524 0.16174 0.25143 0.0
O856 O 0.55167 0.03099 0.32912 0.0
O857 O 0.49712 0.14072 0.31465 0.0
C858 C 0.45453 0.08543 0.24861 0.0
O859 O 0.46555 0.07449 0.28219 0.0
C860 C 0.43399 0.09388 0.25664 0.0
C861 C 0.39424 0.09782 0.26042 0.0
C862 C 0.42402 0.1222 0.23102 0.0
C863 C 0.40404 0.12493 0.2341 0.0
C864 C 0.42385 0.07246 0.28946 0.0
C865 C 0.404 0.07622 0.29287 0.0
C866 C 0.5067 0.02076 0.22505 0.0
O867 O 0.46352 0.1054 0.21726 0.0
H868 H 0.63084 0.04542 0.24771 0.0
H869 H 0.58009 0.98364 0.28725 0.0
H870 H 0.57933 0.10923 0.26771 0.0
H871 H 0.37895 0.10127 0.26413 0.0
H872 H 0.4317 0.14289 0.21018 0.0
H873 H 0.43142 0.0547 0.31369 0.0
Eu874 Eu 0.27979 0.67685 0.25065 0.0
C875 C 0.26325 0.64598 0.34977 0.0
O876 O 0.27509 0.61602 0.22219 0.0
C877 C 0.19154 0.72834 0.27988 0.0
C878 C 0.15314 0.74153 0.25899 0.0
C879 C 0.18371 0.76654 0.28371 0.0
C880 C 0.16426 0.77282 0.27383 0.0
C881 C 0.17982 0.69733 0.26568 0.0
C882 C 0.16068 0.70397 0.25566 0.0
Eu883 Eu 0.24596 0.72999 0.31646 0.0
O884 O 0.26457 0.72372 0.20813 0.0
O885 O 0.24771 0.78598 0.35581 0.0
O886 O 0.2569 0.68097 0.3618 0.0
O887 O 0.26077 0.76811 0.26463 0.0
C888 C 0.26396 0.80485 0.35874 0.0
O889 O 0.27957 0.78748 0.34496 0.0
O890 O 0.22427 0.70634 0.27084 0.0
C891 C 0.21046 0.71768 0.29789 0.0
C892 C 0.25894 0.59759 0.23039 0.0
O893 O 0.24422 0.61842 0.24338 0.0
O894 O 0.21631 0.7353 0.33458 0.0
O895 O 0.27043 0.63933 0.30976 0.0
C896 C 0.316 0.69202 0.25537 0.0
O897 O 0.30388 0.70296 0.28684 0.0
C898 C 0.33644 0.68408 0.26612 0.0
C899 C 0.37553 0.69274 0.26551 0.0
C900 C 0.34781 0.65921 0.23869 0.0
C901 C 0.36799 0.66128 0.2411 0.0
C902 C 0.34555 0.70434 0.30167 0.0
C903 C 0.36554 0.70651 0.30262 0.0
C904 C 0.26229 0.76045 0.22166 0.0
O905 O 0.30801 0.67365 0.22132 0.0
H906 H 0.13814 0.74602 0.25212 0.0
H907 H 0.19236 0.79061 0.2959 0.0
H908 H 0.18522 0.6675 0.26552 0.0
H909 H 0.39048 0.69987 0.26359 0.0
H910 H 0.34093 0.63878 0.21619 0.0
H911 H 0.33729 0.7179 0.32811 0.0
Eu912 Eu 0.49514 0.80018 0.07025 0.0
C913 C 0.5103 0.7704 0.9742 0.0
O914 O 0.49674 0.74326 0.10836 0.0
C915 C 0.58453 0.84384 0.00618 0.0
C916 C 0.62428 0.84714 0.00817 0.0
C917 C 0.59444 0.87226 0.98041 0.0
C918 C 0.61446 0.87459 0.98256 0.0
C919 C 0.59476 0.82216 0.03843 0.0
C920 C 0.61462 0.82582 0.04113 0.0
Eu921 Eu 0.52811 0.85271 0.00247 0.0
O922 O 0.50624 0.84978 0.11499 0.0
O923 O 0.52343 0.91288 0.9736 0.0
O924 O 0.51185 0.8073 0.96117 0.0
O925 O 0.52082 0.89051 0.06329 0.0
C926 C 0.5077 0.93169 0.9839 0.0
O927 O 0.49311 0.91129 0.99874 0.0
O928 O 0.55302 0.8247 0.03263 0.0
C929 C 0.564 0.83536 0.99874 0.0
C930 C 0.51282 0.7237 0.10981 0.0
O931 O 0.52844 0.74077 0.09542 0.0
O932 O 0.555 0.85488 0.96712 0.0
O933 O 0.50903 0.76217 0.01706 0.0
C934 C 0.45976 0.81389 0.05244 0.0
O935 O 0.4736 0.82472 0.0252 0.0
C936 C 0.44092 0.8032 0.0342 0.0
C937 C 0.40295 0.78883 0.01051 0.0
C938 C 0.43359 0.76443 0.03515 0.0
C939 C 0.4144 0.75759 0.02354 0.0
C940 C 0.42893 0.83421 0.02166 0.0
C941 C 0.40998 0.82688 0.01017 0.0
C942 C 0.5132 0.88444 0.1031 0.0
O943 O 0.4655 0.79592 0.08897 0.0
H944 H 0.63962 0.85008 0.01097 0.0
H945 H 0.58672 0.89319 0.96008 0.0
H946 H 0.58727 0.80429 0.06278 0.0
H947 H 0.3881 0.78365 0.00233 0.0
H948 H 0.44251 0.74021 0.04562 0.0
H949 H 0.43399 0.86429 0.02334 0.0
Eu950 Eu 0.77324 0.48137 0.06676 0.0
C951 C 0.75804 0.50896 0.97115 0.0
O952 O 0.77095 0.53704 0.10687 0.0
C953 C 0.68341 0.43551 0.00582 0.0
C954 C 0.6438 0.4315 0.00537 0.0
C955 C 0.67395 0.4067 0.97966 0.0
C956 C 0.65394 0.404 0.98066 0.0
C957 C 0.67278 0.45603 0.03849 0.0
C958 C 0.65286 0.45163 0.0402 0.0
Eu959 Eu 0.73961 0.42797 0.00082 0.0
O960 O 0.76427 0.42943 0.1109 0.0
O961 O 0.74343 0.36697 0.97364 0.0
O962 O 0.75676 0.47186 0.95887 0.0
O963 O 0.74648 0.39091 0.06236 0.0
C964 C 0.75935 0.34816 0.98202 0.0
O965 O 0.77435 0.36854 0.99434 0.0
O966 O 0.71481 0.45618 0.03158 0.0
C967 C 0.70375 0.44585 0.99774 0.0
C968 C 0.75497 0.55699 0.10745 0.0
O969 O 0.73945 0.54067 0.09145 0.0
O970 O 0.71277 0.42733 0.96538 0.0
O971 O 0.75815 0.51784 0.01387 0.0
C972 C 0.80868 0.4716 0.04685 0.0
O973 O 0.7949 0.458 0.02111 0.0
C974 C 0.82783 0.4795 0.0286 0.0
C975 C 0.86578 0.4879 0.00204 0.0
C976 C 0.83643 0.51725 0.0282 0.0
C977 C 0.85559 0.52135 0.01428 0.0
C978 C 0.83865 0.44657 0.01671 0.0
C979 C 0.85761 0.45094 0.00401 0.0
C980 C 0.7557 0.39593 0.10046 0.0
O981 O 0.80296 0.49077 0.08259 0.0
H982 H 0.62838 0.42954 0.00534 0.0
H983 H 0.68198 0.38613 0.95949 0.0
H984 H 0.67999 0.47394 0.06323 0.0
H985 H 0.8808 0.49021 0.99392 0.0
H986 H 0.82846 0.54277 0.03888 0.0
H987 H 0.83268 0.41729 0.01986 0.0
Eu988 Eu 0.49563 0.47952 0.18417 0.0
C989 C 0.51032 0.50848 0.28155 0.0
O990 O 0.49745 0.53647 0.14614 0.0
C991 C 0.58466 0.43588 0.24719 0.0
C992 C 0.62428 0.43332 0.23595 0.0
C993 C 0.59559 0.40707 0.26978 0.0
C994 C 0.61548 0.4053 0.26315 0.0
C995 C 0.59373 0.45984 0.21519 0.0
C996 C 0.61339 0.45727 0.20816 0.0
Eu997 Eu 0.52811 0.42586 0.253 0.0
O998 O 0.50728 0.43041 0.13954 0.0
O999 O 0.52247 0.36664 0.28345 0.0
O1000 O 0.5123 0.47164 0.29446 0.0
O1001 O 0.5206 0.38857 0.19184 0.0
C1002 C 0.50661 0.34835 0.27278 0.0
O1003 O 0.4926 0.36896 0.25569 0.0
O1004 O 0.55285 0.45544 0.22461 0.0
C1005 C 0.56412 0.44253 0.25681 0.0
C1006 C 0.51336 0.5568 0.14596 0.0
O1007 O 0.5289 0.54059 0.16182 0.0
O1008 O 0.55543 0.42052 0.2868 0.0
O1009 O 0.50872 0.5172 0.23884 0.0
C1010 C 0.46002 0.46596 0.19987 0.0
O1011 O 0.47358 0.45429 0.22738 0.0
C1012 C 0.44124 0.47732 0.21795 0.0
C1013 C 0.40304 0.49122 0.23987 0.0
C1014 C 0.43335 0.51528 0.2124 0.0
C1015 C 0.41397 0.52194 0.22268 0.0
C1016 C 0.42971 0.44691 0.23427 0.0
C1017 C 0.41066 0.45388 0.24472 0.0
C1018 C 0.51364 0.39534 0.15152 0.0
O1019 O 0.46621 0.48411 0.16381 0.0
H1020 H 0.63934 0.43009 0.22861 0.0
H1021 H 0.58869 0.38532 0.29072 0.0
H1022 H 0.58538 0.47873 0.19362 0.0
H1023 H 0.3881 0.4958 0.24736 0.0
H1024 H 0.4419 0.53881 0.19852 0.0
H1025 H 0.43513 0.41712 0.23562 0.0
Eu1026 Eu 0.77412 0.79904 0.18525 0.0
C1027 C 0.75898 0.77045 0.28174 0.0
O1028 O 0.77184 0.74313 0.14556 0.0
C1029 C 0.68414 0.83994 0.24635 0.0
C1030 C 0.64456 0.84654 0.23926 0.0
C1031 C 0.67429 0.86919 0.27072 0.0
C1032 C 0.65445 0.87302 0.26621 0.0
C1033 C 0.67411 0.81809 0.2139 0.0
C1034 C 0.65442 0.82293 0.2089 0.0
Eu1035 Eu 0.74009 0.85079 0.25135 0.0
O1036 O 0.76381 0.84922 0.14036 0.0
O1037 O 0.7437 0.91172 0.27893 0.0
O1038 O 0.75678 0.80739 0.29386 0.0
O1039 O 0.74687 0.88813 0.18994 0.0
C1040 C 0.75934 0.93117 0.26922 0.0
O1041 O 0.7743 0.91127 0.25586 0.0
O1042 O 0.71567 0.82074 0.22147 0.0
C1043 C 0.70449 0.8311 0.25506 0.0
C1044 C 0.75571 0.72356 0.14483 0.0
O1045 O 0.74033 0.74023 0.16092 0.0
O1046 O 0.71322 0.85119 0.28668 0.0
O1047 O 0.76059 0.76129 0.23919 0.0
C1048 C 0.80954 0.81122 0.20408 0.0
O1049 O 0.79557 0.82518 0.22894 0.0
C1050 C 0.82776 0.80065 0.22567 0.0
C1051 C 0.86472 0.78932 0.25811 0.0
C1052 C 0.83702 0.76416 0.21902 0.0
C1053 C 0.85592 0.75855 0.23443 0.0
C1054 C 0.83769 0.83141 0.24616 0.0
C1055 C 0.85636 0.82626 0.26067 0.0
C1056 C 0.75557 0.88289 0.15122 0.0
O1057 O 0.80392 0.79142 0.16863 0.0
H1058 H 0.62945 0.85128 0.23384 0.0
H1059 H 0.68199 0.88976 0.29169 0.0
H1060 H 0.68173 0.79923 0.19081 0.0
H1061 H 0.87909 0.78622 0.27063 0.0
H1062 H 0.82997 0.74138 0.19993 0.0
H1063 H 0.83162 0.86069 0.24661 0.0
Eu1064 Eu 0.49334 0.17586 0.99944 0.0
C1065 C 0.508 0.14417 0.89992 0.0
O1066 O 0.49638 0.11659 0.03206 0.0
C1067 C 0.57641 0.22791 0.96774 0.0
C1068 C 0.6143 0.23503 0.99524 0.0
C1069 C 0.58544 0.26536 0.96772 0.0
C1070 C 0.60463 0.2689 0.9821 0.0
C1071 C 0.58683 0.19473 0.98075 0.0
C1072 C 0.60574 0.19845 0.99393 0.0
Eu1073 Eu 0.52184 0.23177 0.92951 0.0
O1074 O 0.50877 0.22365 0.03991 0.0
O1075 O 0.51984 0.28849 0.89107 0.0
O1076 O 0.5108 0.18071 0.88582 0.0
O1077 O 0.50726 0.26809 0.98352 0.0
C1078 C 0.50383 0.30833 0.8905 0.0
O1079 O 0.48827 0.29157 0.90575 0.0
O1080 O 0.54337 0.20694 0.97436 0.0
C1081 C 0.55729 0.22018 0.94878 0.0
C1082 C 0.51237 0.09711 0.02685 0.0
O1083 O 0.52766 0.11668 0.01476 0.0
O1084 O 0.5517 0.23957 0.91307 0.0
O1085 O 0.50415 0.13686 0.94236 0.0
C1086 C 0.45724 0.19201 0.99517 0.0
O1087 O 0.46885 0.19855 0.96111 0.0
C1088 C 0.4368 0.18167 0.98826 0.0
C1089 C 0.39726 0.17927 0.99414 0.0
C1090 C 0.42772 0.15303 0.0153 0.0
C1091 C 0.40772 0.15111 0.01697 0.0
C1092 C 0.42559 0.20256 0.95691 0.0
C1093 C 0.40556 0.19897 0.9579 0.0
C1094 C 0.50854 0.26065 0.02659 0.0
O1095 O 0.46573 0.17753 0.03081 0.0
H1096 H 0.62937 0.23638 0.00306 0.0
H1097 H 0.5778 0.291 0.95615 0.0
H1098 H 0.5806 0.16565 0.97797 0.0
H1099 H 0.38188 0.17846 0.99714 0.0
H1100 H 0.43603 0.13212 0.03434 0.0
H1101 H 0.43242 0.22041 0.93153 0.0
Eu1102 Eu 0.27978 0.6012 0.00159 0.0
C1103 C 0.26303 0.63208 0.90169 0.0
O1104 O 0.2751 0.66247 0.0282 0.0
C1105 C 0.19072 0.54748 0.97379 0.0
C1106 C 0.15247 0.54064 0.99856 0.0
C1107 C 0.18173 0.51008 0.97381 0.0
C1108 C 0.16242 0.5068 0.98683 0.0
C1109 C 0.18012 0.58089 0.98512 0.0
C1110 C 0.16102 0.57727 0.99699 0.0
Eu1111 Eu 0.24568 0.54718 0.936 0.0
O1112 O 0.26347 0.5557 0.0438 0.0
O1113 O 0.24847 0.4924 0.89489 0.0
O1114 O 0.25428 0.59878 0.89154 0.0
O1115 O 0.26192 0.51129 0.98722 0.0
C1116 C 0.26479 0.47384 0.89274 0.0
O1117 O 0.28021 0.49127 0.90769 0.0
O1118 O 0.22384 0.56897 0.98253 0.0
C1119 C 0.21024 0.55424 0.95706 0.0
C1120 C 0.25933 0.68104 0.01737 0.0
O1121 O 0.24483 0.6603 0.00268 0.0
O1122 O 0.21609 0.53557 0.92111 0.0
O1123 O 0.27246 0.63713 0.93948 0.0
C1124 C 0.31577 0.58363 0.00115 0.0
O1125 O 0.3036 0.57041 0.97095 0.0
C1126 C 0.33594 0.59107 0.98755 0.0
C1127 C 0.37525 0.59187 0.97237 0.0
C1128 C 0.34764 0.61934 0.00928 0.0
C1129 C 0.36734 0.62098 0.99959 0.0
C1130 C 0.34405 0.56787 0.95324 0.0
C1131 C 0.36372 0.56913 0.94482 0.0
C1132 C 0.262 0.51882 0.0303 0.0
O1133 O 0.30787 0.60567 0.03232 0.0
H1134 H 0.1374 0.53886 0.0063 0.0
H1135 H 0.18956 0.48418 0.96375 0.0
H1136 H 0.18642 0.6099 0.98241 0.0
H1137 H 0.39043 0.59239 0.96586 0.0
H1138 H 0.34145 0.64048 0.03212 0.0
H1139 H 0.3351 0.54954 0.93232 0.0
Eu1140 Eu 0.49437 0.61898 0.7504 0.0
C1141 C 0.51102 0.63941 0.84592 0.0
O1142 O 0.50257 0.66179 0.69476 0.0
C1143 C 0.57632 0.55658 0.78597 0.0
C1144 C 0.61331 0.54604 0.754 0.0
C1145 C 0.58434 0.51825 0.78471 0.0
C1146 C 0.60306 0.51302 0.76793 0.0
C1147 C 0.58721 0.58872 0.77184 0.0
C1148 C 0.60565 0.58332 0.75641 0.0
Eu1149 Eu 0.52191 0.55281 0.81793 0.0
O1150 O 0.49873 0.56225 0.70811 0.0
O1151 O 0.51903 0.49606 0.85607 0.0
O1152 O 0.50865 0.60254 0.85861 0.0
O1153 O 0.51067 0.51752 0.75962 0.0
C1154 C 0.50345 0.4749 0.85248 0.0
O1155 O 0.48854 0.49018 0.83262 0.0
O1156 O 0.54446 0.58128 0.7799 0.0
C1157 C 0.55773 0.5664 0.80604 0.0
C1158 C 0.50842 0.69892 0.69067 0.0
O1159 O 0.51345 0.70944 0.65013 0.0
O1160 O 0.55122 0.54513 0.83946 0.0
O1161 O 0.51314 0.6473 0.80306 0.0
C1162 C 0.45866 0.62619 0.77374 0.0
O1163 O 0.47001 0.59942 0.79104 0.0
C1164 C 0.43828 0.6163 0.76466 0.0
C1165 C 0.39998 0.59994 0.74763 0.0
C1166 C 0.42763 0.63999 0.73492 0.0
C1167 C 0.40802 0.6335 0.72896 0.0
C1168 C 0.42807 0.5901 0.79283 0.0
C1169 C 0.40832 0.58401 0.78621 0.0
C1170 C 0.50408 0.52602 0.7195 0.0
O1171 O 0.46738 0.64922 0.74496 0.0
H1172 H 0.62813 0.54329 0.74425 0.0
H1173 H 0.57629 0.49326 0.79678 0.0
H1174 H 0.58175 0.61835 0.77533 0.0
H1175 H 0.38507 0.59424 0.74092 0.0
H1176 H 0.43398 0.66606 0.72037 0.0
H1177 H 0.43506 0.5776 0.82181 0.0
Eu1178 Eu 0.27741 0.17601 0.74594 0.0
C1179 C 0.26271 0.14609 0.84791 0.0
O1180 O 0.27243 0.11539 0.71781 0.0
C1181 C 0.19218 0.23113 0.77785 0.0
C1182 C 0.15384 0.23618 0.75401 0.0
C1183 C 0.18277 0.26805 0.77884 0.0
C1184 C 0.16336 0.27057 0.76622 0.0
C1185 C 0.18202 0.19744 0.7654 0.0
C1186 C 0.16289 0.20016 0.75398 0.0
Eu1187 Eu 0.24707 0.23231 0.81581 0.0
O1188 O 0.26092 0.22259 0.70635 0.0
O1189 O 0.24967 0.28763 0.85609 0.0
O1190 O 0.25616 0.18094 0.86008 0.0
O1191 O 0.26322 0.26657 0.76296 0.0
C1192 C 0.26574 0.30731 0.857 0.0
O1193 O 0.28124 0.29087 0.84121 0.0
O1194 O 0.22524 0.20948 0.76995 0.0
C1195 C 0.21164 0.22477 0.79493 0.0
C1196 C 0.25663 0.09674 0.72855 0.0
O1197 O 0.24227 0.11735 0.74397 0.0
O1198 O 0.21747 0.24396 0.83056 0.0
O1199 O 0.26996 0.13959 0.80778 0.0
C1200 C 0.31341 0.19364 0.74414 0.0
O1201 O 0.30179 0.20556 0.77617 0.0
C1202 C 0.33383 0.18623 0.75497 0.0
C1203 C 0.37336 0.18279 0.76776 0.0
C1204 C 0.34483 0.15744 0.73243 0.0
C1205 C 0.36464 0.15513 0.73998 0.0
C1206 C 0.34277 0.20951 0.78796 0.0
C1207 C 0.36244 0.2068 0.79538 0.0
C1208 C 0.26127 0.25949 0.72002 0.0
O1209 O 0.305 0.17256 0.71283 0.0
H1210 H 0.13865 0.23668 0.74756 0.0
H1211 H 0.19034 0.2941 0.78965 0.0
H1212 H 0.18865 0.16875 0.76722 0.0
H1213 H 0.3884 0.17943 0.77529 0.0
H1214 H 0.33801 0.13614 0.71074 0.0
H1215 H 0.33435 0.22839 0.8094 0.0
C1216 C 0.87833 0.40496 0.96194 0.0
C1217 C 0.87055 0.41767 0.00268 0.0
H1218 H 0.89856 0.3666 0.93054 0.0
C1219 C 0.87809 0.40446 0.04333 0.0
H1220 H 0.87295 0.41603 0.93037 0.0
C1221 C 0.89319 0.37836 0.04343 0.0
C1222 C 0.90074 0.36486 0.00287 0.0
H1223 H 0.87255 0.41509 0.07497 0.0
H1224 H 0.89848 0.36738 0.07514 0.0
C1225 C 0.89322 0.37794 0.96203 0.0
C1226 C 0.37448 0.89866 0.96416 0.0
C1227 C 0.36624 0.91204 0.00417 0.0
H1228 H 0.39538 0.86054 0.93472 0.0
C1229 C 0.37281 0.89809 0.04545 0.0
H1230 H 0.36993 0.91033 0.93215 0.0
C1231 C 0.38777 0.87167 0.04696 0.0
C1232 C 0.39616 0.85855 0.0072 0.0
H1233 H 0.36703 0.90932 0.07659 0.0
H1234 H 0.39276 0.86123 0.07918 0.0
C1235 C 0.38925 0.87134 0.96566 0.0
C1236 C 0.87766 0.87442 0.30037 0.0
C1237 C 0.86918 0.86019 0.261 0.0
H1238 H 0.89755 0.91604 0.32815 0.0
C1239 C 0.87462 0.87544 0.21931 0.0
H1240 H 0.87379 0.86236 0.3327 0.0
C1241 C 0.88832 0.90461 0.21667 0.0
C1242 C 0.8967 0.91927 0.2557 0.0
H1243 H 0.86849 0.8641 0.18858 0.0
H1244 H 0.89226 0.91611 0.18409 0.0
C1245 C 0.89129 0.90443 0.29773 0.0
C1246 C 0.37652 0.37945 0.29195 0.0
C1247 C 0.36814 0.36607 0.25209 0.0
H1248 H 0.3971 0.4188 0.32092 0.0
C1249 C 0.37437 0.38038 0.21068 0.0
H1250 H 0.37212 0.36763 0.32403 0.0
C1251 C 0.38894 0.40771 0.20886 0.0
C1252 C 0.39728 0.4214 0.24844 0.0
H1253 H 0.36842 0.36926 0.17966 0.0
H1254 H 0.3936 0.41859 0.17652 0.0
C1255 C 0.39093 0.40772 0.29015 0.0
C1256 C 0.14075 0.6238 0.03941 0.0
C1257 C 0.14838 0.61103 0.99852 0.0
H1258 H 0.12053 0.66191 0.0712 0.0
C1259 C 0.14069 0.62425 0.95802 0.0
H1260 H 0.14623 0.61272 0.07087 0.0
C1261 C 0.12553 0.6502 0.95822 0.0
C1262 C 0.11805 0.66355 0.99892 0.0
H1263 H 0.14611 0.61358 0.92627 0.0
H1264 H 0.12008 0.66108 0.92661 0.0
C1265 C 0.1258 0.65066 0.0396 0.0
C1266 C 0.64189 0.12678 0.95572 0.0
C1267 C 0.64972 0.11449 0.99647 0.0
H1268 H 0.62067 0.16163 0.9236 0.0
C1269 C 0.64182 0.12722 0.03709 0.0
H1270 H 0.64746 0.11601 0.92417 0.0
C1271 C 0.62643 0.15301 0.03677 0.0
C1272 C 0.61848 0.16481 0.99584 0.0
H1273 H 0.64737 0.11674 0.06876 0.0
H1274 H 0.6209 0.1642 0.06816 0.0
C1275 C 0.62627 0.15159 0.95542 0.0
C1276 C 0.14318 0.15188 0.79254 0.0
C1277 C 0.15068 0.16572 0.75208 0.0
H1278 H 0.12257 0.11478 0.82381 0.0
C1279 C 0.14293 0.15338 0.71114 0.0
H1280 H 0.14866 0.16232 0.82434 0.0
C1281 C 0.12796 0.12648 0.71084 0.0
C1282 C 0.12033 0.11318 0.7515 0.0
H1283 H 0.14826 0.16502 0.67976 0.0
H1284 H 0.12249 0.11571 0.67919 0.0
C1285 C 0.12799 0.12593 0.79225 0.0
C1286 C 0.64257 0.65421 0.79242 0.0
C1287 C 0.65 0.66647 0.75123 0.0
H1288 H 0.62163 0.61938 0.82571 0.0
C1289 C 0.6418 0.65366 0.71099 0.0
H1290 H 0.64848 0.66492 0.82367 0.0
C1291 C 0.62644 0.6277 0.71217 0.0
C1292 C 0.61892 0.61596 0.75358 0.0
H1293 H 0.64716 0.66398 0.67905 0.0
H1294 H 0.62058 0.61649 0.68112 0.0
C1295 C 0.627 0.6293 0.79358 0.0
C1296 C 0.89227 0.87618 0.4625 0.0
C1297 C 0.90039 0.86396 0.50307 0.0
H1298 H 0.87102 0.91244 0.43159 0.0
C1299 C 0.89266 0.8764 0.54388 0.0
H1300 H 0.89776 0.86561 0.4308 0.0
C1301 C 0.87691 0.90079 0.54432 0.0
C1302 C 0.8689 0.91349 0.50396 0.0
H1303 H 0.89842 0.86603 0.57541 0.0
H1304 H 0.87135 0.91088 0.57618 0.0
C1305 C 0.87674 0.90164 0.46294 0.0
C1306 C 0.3776 0.40795 0.46362 0.0
C1307 C 0.37028 0.4213 0.50456 0.0
H1308 H 0.39737 0.36877 0.43181 0.0
C1309 C 0.37807 0.40821 0.54501 0.0
H1310 H 0.37193 0.41867 0.43219 0.0
C1311 C 0.39298 0.38167 0.54477 0.0
C1312 C 0.40012 0.36761 0.50407 0.0
H1313 H 0.37277 0.41906 0.57679 0.0
H1314 H 0.39848 0.3709 0.57638 0.0
C1315 C 0.39233 0.38049 0.46339 0.0
C1316 C 0.87852 0.37399 0.78862 0.0
C1317 C 0.87097 0.36209 0.74732 0.0
H1318 H 0.89875 0.41143 0.8216 0.0
C1319 C 0.87915 0.37517 0.70727 0.0
H1320 H 0.87265 0.36293 0.81975 0.0
C1321 C 0.89457 0.40059 0.70832 0.0
C1322 C 0.90177 0.41363 0.74944 0.0
H1323 H 0.87379 0.3651 0.6752 0.0
H1324 H 0.90022 0.41181 0.67703 0.0
C1325 C 0.89371 0.40038 0.78969 0.0
C1326 C 0.37474 0.87788 0.79154 0.0
C1327 C 0.36662 0.86441 0.75148 0.0
H1328 H 0.39565 0.91603 0.82104 0.0
C1329 C 0.37371 0.87726 0.71017 0.0
H1330 H 0.36969 0.86715 0.82359 0.0
C1331 C 0.38897 0.90304 0.70873 0.0
C1332 C 0.39711 0.91664 0.74858 0.0
H1333 H 0.36791 0.86606 0.67903 0.0
H1334 H 0.39417 0.91311 0.67651 0.0
C1335 C 0.38978 0.90464 0.79009 0.0
C1336 C 0.12611 0.15151 0.5367 0.0
C1337 C 0.11854 0.16522 0.49618 0.0
H1338 H 0.14649 0.11318 0.56758 0.0
C1339 C 0.12605 0.15219 0.45535 0.0
H1340 H 0.12084 0.16246 0.56844 0.0
C1341 C 0.14119 0.1261 0.45489 0.0
C1342 C 0.14885 0.11248 0.49525 0.0
H1343 H 0.12074 0.16363 0.42387 0.0
H1344 H 0.14669 0.11588 0.42304 0.0
C1345 C 0.14105 0.1246 0.53623 0.0
C1346 C 0.62466 0.64869 0.45781 0.0
C1347 C 0.61688 0.66167 0.49832 0.0
H1348 H 0.64555 0.61265 0.42623 0.0
C1349 C 0.62426 0.64813 0.53917 0.0
H1350 H 0.61952 0.65999 0.42611 0.0
C1351 C 0.6392 0.62109 0.53926 0.0
C1352 C 0.64716 0.60887 0.49851 0.0
H1353 H 0.61874 0.65905 0.57068 0.0
H1354 H 0.64451 0.60979 0.57078 0.0
C1355 C 0.63979 0.62266 0.45792 0.0
C1356 C 0.13926 0.65792 0.29316 0.0
C1357 C 0.14719 0.67148 0.25303 0.0
H1358 H 0.11876 0.62017 0.32375 0.0
C1359 C 0.14009 0.65824 0.2118 0.0
H1360 H 0.14444 0.66853 0.32516 0.0
C1361 C 0.12537 0.63058 0.21099 0.0
C1362 C 0.11738 0.61736 0.25138 0.0
H1363 H 0.1459 0.66923 0.1806 0.0
H1364 H 0.12045 0.61905 0.1792 0.0
C1365 C 0.12437 0.63121 0.29234 0.0
C1366 C 0.62575 0.12824 0.21306 0.0
C1367 C 0.61766 0.11552 0.25353 0.0
H1368 H 0.64683 0.16526 0.18233 0.0
C1369 C 0.62499 0.12888 0.2944 0.0
H1370 H 0.62061 0.11701 0.18132 0.0
C1371 C 0.64048 0.1542 0.29499 0.0
C1372 C 0.64864 0.16687 0.25473 0.0
H1373 H 0.6193 0.11816 0.32587 0.0
H1374 H 0.64585 0.16464 0.32688 0.0
C1375 C 0.64101 0.15452 0.21365 0.0
C1376 C 0.14018 0.4619 0.0258 0.0
C1377 C 0.15131 0.46968 0.98769 0.0
H1378 H 0.11812 0.42751 0.05535 0.0
C1379 C 0.14843 0.44688 0.94892 0.0
H1380 H 0.14194 0.47917 0.05605 0.0
C1381 C 0.1347 0.41665 0.94871 0.0
C1382 C 0.12336 0.40987 0.98677 0.0
H1383 H 0.15646 0.45296 0.91873 0.0
H1384 H 0.13316 0.39826 0.91934 0.0
C1385 C 0.12621 0.43304 0.02505 0.0
C1386 C 0.13158 0.86054 0.94416 0.0
C1387 C 0.14578 0.8647 0.97705 0.0
H1388 H 0.10763 0.82657 0.92084 0.0
C1389 C 0.14582 0.83895 0.01363 0.0
H1390 H 0.13072 0.88132 0.9168 0.0
C1391 C 0.13181 0.81039 0.01803 0.0
C1392 C 0.11793 0.80487 0.98458 0.0
H1393 H 0.15592 0.84284 0.04072 0.0
H1394 H 0.13202 0.79205 0.0477 0.0
C1395 C 0.11797 0.83026 0.9474 0.0
C1396 C 0.12678 0.84898 0.3014 0.0
C1397 C 0.13038 0.87743 0.26826 0.0
H1398 H 0.13507 0.79349 0.32975 0.0
C1399 C 0.14649 0.87186 0.24029 0.0
H1400 H 0.11455 0.85145 0.32321 0.0
C1401 C 0.15863 0.83994 0.2456 0.0
C1402 C 0.15475 0.8114 0.27772 0.0
H1403 H 0.14945 0.89095 0.2122 0.0
H1404 H 0.17027 0.83603 0.22219 0.0
C1405 C 0.13874 0.81612 0.30573 0.0
C1406 C 0.13003 0.42113 0.30907 0.0
C1407 C 0.14388 0.41593 0.27551 0.0
H1408 H 0.10653 0.45605 0.33275 0.0
C1409 C 0.14356 0.44063 0.23799 0.0
H1410 H 0.12938 0.40109 0.33718 0.0
C1411 C 0.12969 0.46939 0.23358 0.0
C1412 C 0.11624 0.4761 0.26774 0.0
H1413 H 0.15332 0.43586 0.21038 0.0
H1414 H 0.12968 0.48695 0.2033 0.0
C1415 C 0.11654 0.45154 0.30568 0.0
C1416 C 0.86834 0.58237 0.0523 0.0
C1417 C 0.86638 0.55886 0.01377 0.0
H1418 H 0.88246 0.6323 0.08217 0.0
C1419 C 0.87794 0.56684 0.9764 0.0
H1420 H 0.85992 0.57629 0.0819 0.0
C1421 C 0.89151 0.59645 0.97779 0.0
C1422 C 0.89346 0.62024 0.01585 0.0
H1423 H 0.87681 0.54926 0.94624 0.0
H1424 H 0.89996 0.60209 0.94806 0.0
C1425 C 0.88163 0.61339 0.05306 0.0
C1426 C 0.88583 0.21861 0.98435 0.0
C1427 C 0.89988 0.22345 0.01757 0.0
H1428 H 0.86146 0.18701 0.96162 0.0
C1429 C 0.89981 0.19762 0.05438 0.0
H1430 H 0.88564 0.2372 0.95489 0.0
C1431 C 0.88599 0.1677 0.05751 0.0
C1432 C 0.87161 0.16424 0.02486 0.0
H1433 H 0.91028 0.20071 0.08073 0.0
H1434 H 0.88681 0.14663 0.0846 0.0
C1435 C 0.87165 0.19037 0.98863 0.0
C1436 C 0.8661 0.19677 0.6967 0.0
C1437 C 0.86498 0.22127 0.7346 0.0
H1438 H 0.87928 0.14566 0.66731 0.0
C1439 C 0.87705 0.21357 0.77116 0.0
H1440 H 0.85722 0.20231 0.66776 0.0
C1441 C 0.8905 0.18384 0.76922 0.0
C1442 C 0.89169 0.15926 0.73169 0.0
H1443 H 0.87651 0.23162 0.80106 0.0
H1444 H 0.89943 0.17871 0.79824 0.0
C1445 C 0.87915 0.1654 0.69567 0.0
C1446 C 0.8861 0.61138 0.69505 0.0
C1447 C 0.87125 0.61434 0.72643 0.0
H1448 H 0.91065 0.5788 0.67352 0.0
C1449 C 0.87041 0.58753 0.76193 0.0
H1450 H 0.88751 0.633 0.66866 0.0
C1451 C 0.88429 0.55897 0.76678 0.0
C1452 C 0.89892 0.55486 0.73492 0.0
H1453 H 0.85976 0.59055 0.788 0.0
H1454 H 0.88352 0.53989 0.79578 0.0
C1455 C 0.89968 0.58135 0.69879 0.0
C1456 C 0.13942 0.9651 0.51855 0.0
C1457 C 0.15321 0.97073 0.48486 0.0
H1458 H 0.11535 0.93271 0.54153 0.0
C1459 C 0.15378 0.94386 0.44901 0.0
H1460 H 0.13874 0.98452 0.54729 0.0
C1461 C 0.14061 0.91257 0.44689 0.0
C1462 C 0.12622 0.90889 0.47948 0.0
H1463 H 0.16408 0.94746 0.42235 0.0
H1464 H 0.14168 0.89126 0.42009 0.0
C1465 C 0.12581 0.93565 0.51507 0.0
C1466 C 0.13575 0.31117 0.51228 0.0
C1467 C 0.12021 0.30743 0.4828 0.0
H1468 H 0.16007 0.34431 0.53213 0.0
C1469 C 0.11771 0.33609 0.44937 0.0
H1470 H 0.13785 0.29059 0.53949 0.0
C1471 C 0.13037 0.36794 0.44613 0.0
C1472 C 0.14606 0.37073 0.47515 0.0
H1473 H 0.10601 0.33401 0.42593 0.0
H1474 H 0.12756 0.39106 0.42216 0.0
C1475 C 0.14872 0.34169 0.50773 0.0
C1476 C 0.12395 0.34152 0.73856 0.0
C1477 C 0.12451 0.36811 0.7743 0.0
H1478 H 0.13708 0.29364 0.70518 0.0
C1479 C 0.13885 0.36415 0.80687 0.0
H1480 H 0.11361 0.34495 0.71193 0.0
C1481 C 0.15211 0.33325 0.80409 0.0
C1482 C 0.15166 0.30708 0.76759 0.0
H1483 H 0.14006 0.38543 0.83368 0.0
H1484 H 0.16254 0.32972 0.83044 0.0
C1485 C 0.13765 0.31247 0.73443 0.0
C1486 C 0.11674 0.94521 0.80239 0.0
C1487 C 0.11811 0.97185 0.76647 0.0
H1488 H 0.12773 0.89216 0.83213 0.0
C1489 C 0.13266 0.96628 0.73461 0.0
H1490 H 0.10583 0.94872 0.82766 0.0
C1491 C 0.14606 0.93679 0.73973 0.0
C1492 C 0.14462 0.90982 0.77495 0.0
H1493 H 0.13388 0.98523 0.70559 0.0
H1494 H 0.15682 0.93321 0.714 0.0
C1495 C 0.12967 0.91382 0.80598 0.0
C1496 C 0.86561 0.07831 0.55862 0.0
C1497 C 0.86513 0.05404 0.52046 0.0
H1498 H 0.87841 0.12905 0.58979 0.0
C1499 C 0.87821 0.06147 0.48567 0.0
H1500 H 0.85589 0.0732 0.58616 0.0
C1501 C 0.89205 0.09038 0.48987 0.0
C1502 C 0.89253 0.11484 0.52758 0.0
H1503 H 0.87806 0.04406 0.45527 0.0
H1504 H 0.90163 0.09549 0.46197 0.0
C1505 C 0.87895 0.10914 0.56161 0.0
C1506 C 0.87587 0.69045 0.48314 0.0
C1507 C 0.87369 0.66716 0.52147 0.0
H1508 H 0.89204 0.73391 0.44889 0.0
C1509 C 0.88706 0.6709 0.55633 0.0
H1510 H 0.86612 0.68762 0.45531 0.0
C1511 C 0.90162 0.69947 0.55377 0.0
C1512 C 0.90351 0.72313 0.51529 0.0
H1513 H 0.88614 0.65206 0.58545 0.0
H1514 H 0.91092 0.7039 0.58223 0.0
C1515 C 0.89093 0.7167 0.47933 0.0
C1516 C 0.87065 0.65164 0.21768 0.0
C1517 C 0.8907 0.65436 0.22091 0.0
H1518 H 0.84392 0.68156 0.22231 0.0
C1519 C 0.89885 0.692 0.21853 0.0
H1520 H 0.86366 0.62333 0.21677 0.0
C1521 C 0.88742 0.72549 0.2188 0.0
C1522 C 0.86746 0.72268 0.22354 0.0
H1523 H 0.91409 0.69611 0.22014 0.0
H1524 H 0.89448 0.75372 0.2177 0.0
C1525 C 0.85918 0.68525 0.22027 0.0
C1526 C 0.87573 0.09815 0.20173 0.0
C1527 C 0.87831 0.12537 0.23671 0.0
H1528 H 0.88501 0.04384 0.17198 0.0
C1529 C 0.89362 0.11908 0.26672 0.0
H1530 H 0.86411 0.10143 0.17827 0.0
C1531 C 0.90593 0.08733 0.26186 0.0
C1532 C 0.90306 0.05992 0.22783 0.0
H1533 H 0.89572 0.13754 0.2958 0.0
H1534 H 0.91691 0.08268 0.28677 0.0
C1535 C 0.88789 0.06555 0.19764 0.0
C1536 C 0.64417 0.40774 0.49871 0.0
C1537 C 0.62635 0.40823 0.47611 0.0
H1538 H 0.67005 0.43802 0.51483 0.0
C1539 C 0.62289 0.43982 0.44688 0.0
H1540 H 0.64773 0.38531 0.52278 0.0
C1541 C 0.63612 0.47062 0.4428 0.0
C1542 C 0.65323 0.47068 0.46759 0.0
H1543 H 0.60967 0.44174 0.42852 0.0
H1544 H 0.63243 0.49582 0.42246 0.0
C1545 C 0.65736 0.43825 0.49427 0.0
C1546 C 0.62996 0.80831 0.5181 0.0
C1547 C 0.61614 0.80339 0.48438 0.0
H1548 H 0.6547 0.83863 0.54071 0.0
C1549 C 0.61642 0.82936 0.44765 0.0
H1550 H 0.62996 0.78976 0.54761 0.0
C1551 C 0.63051 0.85885 0.44459 0.0
C1552 C 0.64498 0.86151 0.47711 0.0
H1553 H 0.60606 0.8264 0.42104 0.0
H1554 H 0.63007 0.87964 0.41718 0.0
C1555 C 0.64444 0.83586 0.51378 0.0
C1556 C 0.65105 0.82725 0.80234 0.0
C1557 C 0.6555 0.80683 0.76263 0.0
H1558 H 0.6338 0.8725 0.83275 0.0
C1559 C 0.64566 0.81633 0.72318 0.0
H1560 H 0.65809 0.81979 0.83345 0.0
C1561 C 0.6311 0.84374 0.72362 0.0
C1562 C 0.62642 0.86402 0.76303 0.0
H1563 H 0.64857 0.80078 0.69223 0.0
H1564 H 0.62371 0.84997 0.69254 0.0
C1565 C 0.63676 0.85627 0.80235 0.0
C1566 C 0.61532 0.45026 0.80378 0.0
C1567 C 0.61354 0.47503 0.76622 0.0
H1568 H 0.62963 0.3999 0.83215 0.0
C1569 C 0.62529 0.46806 0.72887 0.0
H1570 H 0.60666 0.45511 0.83326 0.0
C1571 C 0.63941 0.43976 0.73022 0.0
C1572 C 0.64135 0.41503 0.76738 0.0
H1573 H 0.6242 0.48612 0.69907 0.0
H1574 H 0.6485 0.43623 0.70123 0.0
C1575 C 0.62887 0.41971 0.80387 0.0
C1576 C 0.38927 0.59935 0.55926 0.0
C1577 C 0.39274 0.61848 0.5184 0.0
H1578 H 0.37311 0.55444 0.59314 0.0
C1579 C 0.38141 0.60868 0.48103 0.0
H1580 H 0.39776 0.60621 0.58849 0.0
C1581 C 0.36707 0.58062 0.48408 0.0
C1582 C 0.36369 0.56106 0.52447 0.0
H1583 H 0.38392 0.62224 0.44878 0.0
H1584 H 0.3594 0.57233 0.45401 0.0
C1585 C 0.37487 0.57063 0.56218 0.0
C1586 C 0.37322 0.19161 0.48781 0.0
C1587 C 0.37338 0.1649 0.52347 0.0
H1588 H 0.38674 0.2396 0.45518 0.0
C1589 C 0.3877 0.16843 0.55625 0.0
H1590 H 0.36297 0.18852 0.46092 0.0
C1591 C 0.40116 0.19918 0.55401 0.0
C1592 C 0.401 0.22571 0.51782 0.0
H1593 H 0.38868 0.147 0.5829 0.0
H1594 H 0.41151 0.20239 0.58061 0.0
C1595 C 0.38711 0.22056 0.48425 0.0
C1596 C 0.39501 0.18929 0.26315 0.0
C1597 C 0.39395 0.16258 0.2276 0.0
H1598 H 0.38242 0.23728 0.29734 0.0
C1599 C 0.37929 0.16681 0.19587 0.0
H1600 H 0.40558 0.18567 0.28925 0.0
C1601 C 0.36628 0.19814 0.19918 0.0
C1602 C 0.36724 0.22451 0.23549 0.0
H1603 H 0.37766 0.14544 0.16928 0.0
H1604 H 0.35561 0.20176 0.1734 0.0
C1605 C 0.38151 0.2187 0.26795 0.0
C1606 C 0.39989 0.62589 0.24575 0.0
C1607 C 0.38128 0.62842 0.22712 0.0
H1608 H 0.4247 0.59122 0.25792 0.0
C1609 C 0.37515 0.5966 0.20057 0.0
H1610 H 0.40576 0.64792 0.2676 0.0
C1611 C 0.38655 0.56301 0.19573 0.0
C1612 C 0.40444 0.56041 0.21687 0.0
H1613 H 0.36128 0.59656 0.18502 0.0
H1614 H 0.38093 0.5381 0.1774 0.0
C1615 C 0.41122 0.59275 0.24039 0.0
C1616 C 0.65266 0.94686 0.94709 0.0
C1617 C 0.652 0.97321 0.9834 0.0
H1618 H 0.64077 0.89453 0.91732 0.0
C1619 C 0.63783 0.96767 0.01624 0.0
H1620 H 0.66325 0.95036 0.92105 0.0
C1621 C 0.62408 0.93861 0.01169 0.0
C1622 C 0.62478 0.91202 0.97596 0.0
H1623 H 0.63711 0.98647 0.04549 0.0
H1624 H 0.6136 0.93513 0.03807 0.0
C1625 C 0.63939 0.91589 0.94398 0.0
C1626 C 0.61635 0.33104 0.94366 0.0
C1627 C 0.61616 0.30581 0.981 0.0
H1628 H 0.62903 0.3823 0.9133 0.0
C1629 C 0.62967 0.31211 0.01514 0.0
H1630 H 0.60629 0.32686 0.91661 0.0
C1631 C 0.64357 0.34095 0.0111 0.0
C1632 C 0.64375 0.3664 0.97424 0.0
H1633 H 0.62975 0.29403 0.04502 0.0
H1634 H 0.65343 0.34525 0.03861 0.0
C1635 C 0.62979 0.36171 0.94083 0.0
C1636 C 0.65204 0.33165 0.30456 0.0
C1637 C 0.65382 0.30786 0.2662 0.0
H1638 H 0.63791 0.38142 0.3346 0.0
C1639 C 0.64202 0.31555 0.22917 0.0
H1640 H 0.66066 0.32596 0.33389 0.0
C1641 C 0.62826 0.3447 0.23096 0.0
C1642 C 0.6264 0.36857 0.26896 0.0
H1643 H 0.64301 0.29787 0.19905 0.0
H1644 H 0.61956 0.34988 0.20157 0.0
C1645 C 0.63861 0.36235 0.30561 0.0
C1646 C 0.64635 0.93856 0.23904 0.0
C1647 C 0.64477 0.91084 0.27349 0.0
H1648 H 0.63452 0.98855 0.20694 0.0
C1649 C 0.63008 0.91471 0.30511 0.0
H1650 H 0.65697 0.93515 0.213 0.0
C1651 C 0.61732 0.94635 0.30252 0.0
C1652 C 0.61871 0.97368 0.26729 0.0
H1653 H 0.62814 0.89266 0.33084 0.0
H1654 H 0.60644 0.94941 0.32794 0.0
C1655 C 0.63326 0.96886 0.23531 0.0
C1656 C 0.39791 0.08679 0.98892 0.0
C1657 C 0.39742 0.11381 0.02429 0.0
H1658 H 0.38455 0.03866 0.9561 0.0
C1659 C 0.3828 0.11076 0.05636 0.0
H1660 H 0.40828 0.08986 0.96225 0.0
C1661 C 0.36917 0.08053 0.05342 0.0
C1662 C 0.36963 0.05379 0.01749 0.0
H1663 H 0.38156 0.1325 0.08266 0.0
H1664 H 0.35839 0.07805 0.07917 0.0
C1665 C 0.38401 0.05791 0.98498 0.0
C1666 C 0.3912 0.67007 0.9735 0.0
C1667 C 0.37962 0.65589 0.00866 0.0
H1668 H 0.41227 0.71126 0.95211 0.0
C1669 C 0.3808 0.67425 0.05073 0.0
H1670 H 0.39014 0.65796 0.94001 0.0
C1671 C 0.39353 0.70571 0.05725 0.0
C1672 C 0.40545 0.71852 0.02212 0.0
H1673 H 0.37191 0.6645 0.07821 0.0
H1674 H 0.39359 0.721 0.08907 0.0
C1675 C 0.40412 0.70034 0.98036 0.0
C1676 C 0.38123 0.67206 0.69333 0.0
C1677 C 0.39494 0.66743 0.72724 0.0
H1678 H 0.35708 0.70533 0.67021 0.0
C1679 C 0.39333 0.68984 0.76646 0.0
H1680 H 0.38169 0.65377 0.66367 0.0
C1681 C 0.37863 0.71661 0.77166 0.0
C1682 C 0.36556 0.72348 0.73688 0.0
H1683 H 0.40309 0.68545 0.79412 0.0
H1684 H 0.37794 0.73326 0.80258 0.0
C1685 C 0.36682 0.70052 0.69773 0.0
C1686 C 0.38671 0.11103 0.69565 0.0
C1687 C 0.37555 0.11838 0.73387 0.0
H1688 H 0.40789 0.07361 0.66536 0.0
C1689 C 0.37839 0.09545 0.7723 0.0
H1690 H 0.38523 0.12929 0.66619 0.0
C1691 C 0.39211 0.06619 0.773 0.0
C1692 C 0.40288 0.05746 0.73457 0.0
H1693 H 0.37046 0.10138 0.80272 0.0
H1694 H 0.39381 0.04916 0.80341 0.0
C1695 C 0.4001 0.08022 0.69574 0.0
C1696 C 0.01591 0.16466 0.91857 0.0
C1697 C 1.0062 0.16671 0.87737 0.0
H1698 H 0.02484 0.19451 0.97838 0.0
C1699 C 0.99845 0.20352 0.86509 0.0
H1700 H 0.02241 0.13741 0.92919 0.0
C1701 C 1.00019 0.23678 0.89313 0.0
C1702 C 0.00951 0.2343 0.93474 0.0
H1703 H 0.99104 0.20682 0.83355 0.0
H1704 H 0.99387 0.26423 0.88259 0.0
C1705 C 0.01739 0.19769 0.94684 0.0
C1706 C 0.2541 0.08343 0.95357 0.0
C1707 C 0.25802 0.04487 0.93865 0.0
H1708 H 0.25232 0.14494 0.9376 0.0
C1709 C 0.26348 0.04018 0.89359 0.0
H1710 H 0.24978 0.08854 0.98792 0.0
C1711 C 0.26525 0.07288 0.86479 0.0
C1712 C 0.26137 0.11151 0.87971 0.0
H1713 H 0.26662 1.01122 0.88058 0.0
H1714 H 0.2696 0.0677 0.83053 0.0
C1715 C 0.2556 0.11606 0.92461 0.0
C1716 C 0.99093 0.08716 0.36452 0.0
C1717 C 1.00701 0.11101 0.37274 0.0
H1718 H 0.97934 0.03646 0.3308 0.0
C1719 C 0.02444 0.09901 0.35375 0.0
H1720 H 0.97726 0.09515 0.37842 0.0
C1721 C 0.02568 0.0647 0.3272 0.0
C1722 C 0.00955 0.04121 0.31878 0.0
H1723 H 0.03724 0.11592 0.35985 0.0
H1724 H 0.03926 0.05677 0.31269 0.0
C1725 C 0.99215 0.05314 0.33759 0.0
C1726 C 0.26713 0.16467 0.32811 0.0
C1727 C 0.2603 0.16708 0.37227 0.0
H1728 H 0.27206 0.1943 0.26562 0.0
C1729 C 0.25251 0.20328 0.38629 0.0
H1730 H 0.27342 0.13764 0.31613 0.0
C1731 C 0.2517 0.23608 0.35735 0.0
C1732 C 0.25867 0.23379 0.3132 0.0
H1733 H 0.24676 0.20604 0.41971 0.0
H1734 H 0.24534 0.26303 0.36939 0.0
C1735 C 0.26639 0.19745 0.29918 0.0
C1736 C 1.00431 0.86531 0.07884 0.0
C1737 C 0.01145 0.86117 0.12266 0.0
H1738 H 0.99749 0.83748 0.01624 0.0
C1739 C 0.01675 0.82295 0.13646 0.0
H1740 H 0.99984 0.89381 0.06678 0.0
C1741 C 0.01502 0.79024 0.10766 0.0
C1742 C 1.00825 0.7946 0.06361 0.0
H1743 H 0.02225 0.8181 0.16982 0.0
H1744 H 0.01933 0.76163 0.11973 0.0
C1745 C 1.0029 0.83272 0.04977 0.0
C1746 C 0.76657 0.94776 0.04843 0.0
C1747 C 0.75951 0.98494 0.06123 0.0
H1748 H 0.77113 0.8872 0.06589 0.0
C1749 C 0.75124 0.98811 0.10403 0.0
H1750 H 0.77321 0.94398 0.01597 0.0
C1751 C 0.74968 0.95506 0.13248 0.0
C1752 C 0.75661 0.91769 0.11955 0.0
H1753 H 0.74559 0.01598 0.11528 0.0
H1754 H 0.74302 0.95896 0.16485 0.0
C1755 C 0.7653 0.91489 0.07713 0.0
C1756 C 0.99888 0.94862 0.61818 0.0
C1757 C 0.0099 0.91536 0.62916 0.0
H1758 H 0.9895 1.00663 0.63686 0.0
C1759 C 0.02039 0.91647 0.66917 0.0
H1760 H 0.99036 0.9485 0.58803 0.0
C1761 C 0.01994 0.94985 0.69717 0.0
C1762 C 1.00901 0.98326 0.68608 0.0
H1763 H 0.02931 0.89187 0.67836 0.0
H1764 H 0.02835 0.94964 0.72757 0.0
C1765 C 0.99844 0.98208 0.6461 0.0
C1766 C 0.77019 0.78656 0.64348 0.0
C1767 C 0.76081 0.78832 0.6851 0.0
H1768 H 0.77797 0.81665 0.58271 0.0
C1769 C 0.75237 0.82447 0.69713 0.0
H1770 H 0.77763 0.76012 0.63374 0.0
C1771 C 0.75286 0.85727 0.66823 0.0
C1772 C 0.7618 0.85521 0.62612 0.0
H1773 H 0.74521 0.8274 0.72909 0.0
H1774 H 0.74592 0.88412 0.67864 0.0
C1775 C 0.77059 0.81935 0.61442 0.0
C1776 C 0.01361 0.73645 0.39169 0.0
C1777 C 0.01101 0.73202 0.43816 0.0
H1778 H 0.01475 0.70863 0.32727 0.0
C1779 C 1.00768 0.69356 0.45447 0.0
H1780 H 0.01635 0.7652 0.37757 0.0
C1781 C 1.00685 0.66086 0.42546 0.0
C1782 C 0.0092 0.66537 0.37896 0.0
H1783 H 1.00553 0.68855 0.48995 0.0
H1784 H 1.00406 0.6321 0.43947 0.0
C1785 C 0.01268 0.70375 0.36271 0.0
C1786 C 0.26601 0.57299 0.36655 0.0
C1787 C 0.26195 0.61152 0.38152 0.0
H1788 H 0.26791 0.51145 0.38248 0.0
C1789 C 0.25625 0.61607 0.42642 0.0
H1790 H 0.27033 0.56785 0.33226 0.0
C1791 C 0.25511 0.5835 0.45547 0.0
C1792 C 0.25934 0.54509 0.44056 0.0
H1793 H 0.25279 0.64489 0.43934 0.0
H1794 H 0.25085 0.58855 0.48987 0.0
C1795 C 0.26458 0.54034 0.39542 0.0
C1796 C 0.0159 0.58276 0.799 0.0
C1797 C 0.01097 0.54451 0.81345 0.0
H1798 H 0.01848 0.64417 0.81509 0.0
C1799 C 1.00443 0.54036 0.85778 0.0
H1800 H 0.02109 0.58745 0.76524 0.0
C1801 C 1.0026 0.57331 0.88625 0.0
C1802 C 1.00751 0.61163 0.87184 0.0
H1803 H 1.00042 0.51169 0.87037 0.0
H1804 H 0.99733 0.56858 0.91985 0.0
C1805 C 0.01435 0.61559 0.8277 0.0
C1806 C 0.25369 0.66321 0.82714 0.0
C1807 C 0.26164 0.66682 0.87025 0.0
H1808 H 0.24608 0.69163 0.7655 0.0
C1809 C 0.26754 0.70474 0.88394 0.0
H1810 H 0.24876 0.63494 0.81525 0.0
C1811 C 0.2656 0.7377 0.85562 0.0
C1812 C 0.25803 0.73381 0.8122 0.0
H1813 H 0.27361 0.70916 0.91685 0.0
H1814 H 0.27036 0.76611 0.86749 0.0
C1815 C 0.2521 0.69599 0.79854 0.0
C1816 C 0.99986 0.33116 0.55137 0.0
C1817 C 1.00652 0.29368 0.56413 0.0
H1818 H 0.99583 0.39185 0.56899 0.0
C1819 C 0.01465 0.29006 0.60702 0.0
H1820 H 0.99338 0.33529 0.51879 0.0
C1821 C 0.01647 0.32299 0.6356 0.0
C1822 C 0.00989 0.36063 0.62275 0.0
H1823 H 0.02005 0.26195 0.61814 0.0
H1824 H 0.02304 0.31878 0.66803 0.0
C1825 C 1.00132 0.36387 0.58025 0.0
C1826 C 0.75218 0.46184 0.63478 0.0
C1827 C 0.76134 0.42611 0.62419 0.0
H1828 H 0.74601 0.52164 0.61606 0.0
C1829 C 0.77209 0.42511 0.58435 0.0
H1830 H 0.74332 0.46366 0.66424 0.0
C1831 C 0.77341 0.45845 0.55613 0.0
C1832 C 0.76429 0.49419 0.567 0.0
H1833 H 0.77957 0.39859 0.575 0.0
H1834 H 0.7816 0.45621 0.52549 0.0
C1835 C 0.75374 0.49532 0.60703 0.0
C1836 C 1.00792 0.44285 0.20328 0.0
C1837 C 1.00627 0.48185 0.1873 0.0
H1838 H 0.01037 0.38131 0.18767 0.0
C1839 C 1.00559 0.48717 0.14054 0.0
H1840 H 1.00849 0.4371 0.23894 0.0
C1841 C 1.00689 0.45483 0.11105 0.0
C1842 C 1.00871 0.41589 0.12704 0.0
H1843 H 1.00424 0.51637 0.12658 0.0
H1844 H 1.00637 0.46043 0.07545 0.0
C1845 C 1.009 0.41052 0.17376 0.0
C1846 C 0.77009 0.35991 0.1676 0.0
C1847 C 0.75698 0.36094 0.13185 0.0
H1848 H 0.78179 0.32723 0.22291 0.0
C1849 C 0.74585 0.32683 0.12465 0.0
H1850 H 0.77929 0.38483 0.17387 0.0
C1851 C 0.74761 0.29331 0.1523 0.0
C1852 C 0.76044 0.29272 0.18847 0.0
H1853 H 0.73561 0.32597 0.09757 0.0
H1854 H 0.73852 0.2682 0.14609 0.0
C1855 C 0.77165 0.32658 0.1956 0.0
C1856 C 0.52114 0.2053 0.45062 0.0
C1857 C 0.51389 0.24236 0.43769 0.0
H1858 H 0.52525 0.14415 0.43454 0.0
C1859 C 0.50465 0.24422 0.39582 0.0
H1860 H 0.52833 0.20222 0.48251 0.0
C1861 C 0.50235 0.21029 0.36868 0.0
C1862 C 0.50955 0.1731 0.38168 0.0
H1863 H 0.49859 0.27171 0.38457 0.0
H1864 H 0.49484 0.21335 0.33723 0.0
C1865 C 0.51925 0.1716 0.42304 0.0
C1866 C 0.75275 0.03611 0.39207 0.0
C1867 C 0.754 0.04039 0.43895 0.0
H1868 H 0.75334 0.06401 0.32742 0.0
C1869 C 0.75631 0.07925 0.45541 0.0
H1870 H 0.751 1.0072 0.37752 0.0
C1871 C 0.75756 0.11214 0.42649 0.0
C1872 C 0.75675 0.10778 0.37963 0.0
H1873 H 0.75739 0.08452 0.4911 0.0
H1874 H 0.75951 0.14101 0.441 0.0
C1875 C 0.75418 0.06905 0.36312 0.0
C1876 C 0.50555 0.11226 0.82214 0.0
C1877 C 0.5095 0.1092 0.86823 0.0
H1878 H 0.50273 0.08305 0.7587 0.0
C1879 C 0.51449 0.0715 0.88443 0.0
H1880 H 0.50151 0.14032 0.80807 0.0
C1881 C 0.51535 0.03818 0.85595 0.0
C1882 C 0.51112 0.0411 0.8099 0.0
H1883 H 0.51789 0.06775 0.91945 0.0
H1884 H 0.51934 1.01013 0.87015 0.0
C1885 C 0.50625 0.07897 0.79371 0.0
C1886 C 0.75574 0.24033 0.85623 0.0
C1887 C 0.75606 0.2354 0.80933 0.0
H1888 H 0.75689 0.21328 0.92124 0.0
C1889 C 0.7574 0.19639 0.79312 0.0
H1890 H 0.75469 0.26949 0.87049 0.0
C1891 C 0.75853 0.16381 0.82246 0.0
C1892 C 0.75864 0.16882 0.86932 0.0
H1893 H 0.75767 0.19084 0.75739 0.0
H1894 H 0.75962 0.13464 0.80827 0.0
C1895 C 0.75711 0.20778 0.88555 0.0
C1896 C 0.49473 0.85516 0.58304 0.0
C1897 C 0.50684 0.85489 0.62065 0.0
H1898 H 0.48382 0.82329 0.52602 0.0
C1899 C 0.51789 0.82099 0.62776 0.0
H1900 H 0.48606 0.88068 0.57611 0.0
C1901 C 0.51658 0.7881 0.59922 0.0
C1902 C 0.50392 0.78751 0.5628 0.0
H1903 H 0.52801 0.82036 0.65498 0.0
H1904 H 0.52612 0.76373 0.60457 0.0
C1905 C 0.49332 0.822 0.55453 0.0
C1906 C 0.25308 0.98869 0.60801 0.0
C1907 C 0.25967 0.98477 0.56372 0.0
H1908 H 0.24602 0.96015 0.66993 0.0
C1909 C 0.2649 0.94676 0.5492 0.0
H1910 H 0.24889 0.0172 0.62062 0.0
C1911 C 0.26347 0.91385 0.5777 0.0
C1912 C 0.25647 0.91752 0.6217 0.0
H1913 H 0.27021 0.94232 0.5155 0.0
H1914 H 0.26781 0.88545 0.56507 0.0
C1915 C 0.25138 0.95564 0.63633 0.0
C1916 C 0.50458 0.91533 0.17856 0.0
C1917 C 0.51182 0.91923 0.13475 0.0
H1918 H 0.49737 0.94352 0.24073 0.0
C1919 C 0.5169 0.95753 0.12055 0.0
H1920 H 0.50022 0.88681 0.19091 0.0
C1921 C 0.51491 0.99047 0.14902 0.0
C1922 C 0.50802 0.98635 0.19308 0.0
H1923 H 0.52239 0.96227 0.0871 0.0
H1924 H 0.51907 0.01912 0.13664 0.0
C1925 C 0.50287 0.94815 0.20724 0.0
C1926 C 0.25852 0.78946 0.14303 0.0
C1927 C 0.26171 0.79464 0.18922 0.0
H1928 H 0.25432 0.81655 0.07884 0.0
C1929 C 0.26379 0.83364 0.20491 0.0
H1930 H 0.2568 0.76021 0.12937 0.0
C1931 C 0.26272 0.86616 0.17567 0.0
C1932 C 0.25914 0.86108 0.12963 0.0
H1933 H 0.26632 0.83921 0.24015 0.0
H1934 H 0.26445 0.89538 0.18937 0.0
C1935 C 0.25706 0.82207 0.11392 0.0
C1936 C 0.50524 0.66723 0.92375 0.0
C1937 C 0.51137 0.67254 0.87927 0.0
H1938 H 0.4999 0.6935 0.98792 0.0
C1939 C 0.51752 0.71042 0.86653 0.0
H1940 H 0.50047 0.63865 0.93504 0.0
C1941 C 0.51726 0.74202 0.89699 0.0
C1942 C 0.51066 0.73698 0.94113 0.0
H1943 H 0.52275 0.71567 0.83293 0.0
H1944 H 0.52259 0.77025 0.88615 0.0
C1945 C 0.50488 0.6989 0.95413 0.0
C1946 C 0.74307 0.56782 0.93364 0.0
C1947 C 0.75849 0.5417 0.93757 0.0
H1948 H 0.73182 0.61997 0.90239 0.0
C1949 C 0.775 0.5497 0.91254 0.0
H1950 H 0.73015 0.56252 0.95249 0.0
C1951 C 0.776 0.58276 0.88415 0.0
C1952 C 0.76066 0.60914 0.88053 0.0
H1953 H 0.78728 0.53076 0.91556 0.0
H1954 H 0.78891 0.58797 0.86521 0.0
C1955 C 0.74411 0.60103 0.90541 0.0
C1956 C 0.52143 0.53959 0.35445 0.0
C1957 C 0.51064 0.54162 0.31482 0.0
H1958 H 0.53053 0.56875 0.4147 0.0
C1959 C 0.50084 0.57684 0.30582 0.0
H1960 H 0.52968 0.51361 0.36187 0.0
C1961 C 0.50155 0.60878 0.33577 0.0
C1962 C 0.51209 0.60654 0.37574 0.0
H1963 H 0.49242 0.57964 0.2756 0.0
H1964 H 0.49354 0.63502 0.32798 0.0
C1965 C 0.52207 0.57148 0.38454 0.0
C1966 C 0.74597 0.7383 0.35204 0.0
C1967 C 0.7586 0.73785 0.31548 0.0
H1968 H 0.73508 0.70767 0.40968 0.0
C1969 C 0.77014 0.70444 0.30959 0.0
H1970 H 0.73653 0.76299 0.35699 0.0
C1971 C 0.76917 0.6725 0.33948 0.0
C1972 C 0.7566 0.67299 0.37612 0.0
H1973 H 0.78008 0.70313 0.28188 0.0
H1974 H 0.77854 0.6477 0.33437 0.0
C1975 C 0.74503 0.70637 0.382 0.0
C1976 C 0.51625 0.32216 0.13372 0.0
C1977 C 0.51245 0.36096 0.11922 0.0
H1978 H 0.51777 0.26062 0.11714 0.0
C1979 C 0.50682 0.36582 0.07426 0.0
H1980 H 0.52043 0.31668 0.16805 0.0
C1981 C 0.50549 0.33342 0.04481 0.0
C1982 C 0.50944 0.29472 0.05923 0.0
H1983 H 0.5035 0.39478 0.06158 0.0
H1984 H 0.50127 0.33884 0.01047 0.0
C1985 C 0.51465 0.28968 0.10442 0.0
C1986 C 0.26477 0.44604 0.04735 0.0
C1987 C 0.26105 0.48462 0.06252 0.0
H1988 H 0.26637 0.38443 0.0629 0.0
C1989 C 0.25578 0.48924 0.1077 0.0
H1990 H 0.26896 0.44098 0.0129 0.0
C1991 C 0.25389 0.45638 0.13629 0.0
C1992 C 0.25757 0.41773 0.12107 0.0
H1993 H 0.25273 0.5182 0.12084 0.0
H1994 H 0.24955 0.46144 0.17057 0.0
C1995 C 0.26323 0.4133 0.07612 0.0
C1996 C 0.51258 0.42394 0.66719 0.0
C1997 C 0.50337 0.42599 0.6255 0.0
H1998 H 0.52036 0.45304 0.72806 0.0
C1999 C 0.49389 0.46145 0.61499 0.0
H2000 H 0.52018 0.39758 0.6766 0.0
C2001 C 0.49379 0.49375 0.64502 0.0
C2002 C 0.5034 0.49197 0.68643 0.0
H2003 H 0.48648 0.46428 0.58336 0.0
H2004 H 0.48616 0.52008 0.63571 0.0
C2005 C 0.51269 0.45621 0.69683 0.0
C2006 C 0.26546 0.33178 0.70253 0.0
C2007 C 0.26003 0.29382 0.68823 0.0
H2008 H 0.26835 0.39306 0.6866 0.0
C2009 C 0.25288 0.28994 0.64442 0.0
H2010 H 0.27117 0.33617 0.73586 0.0
C2011 C 0.25095 0.32301 0.61625 0.0
C2012 C 0.25634 0.36106 0.63063 0.0
H2013 H 0.24847 0.26144 0.63207 0.0
H2014 H 0.24524 0.31858 0.58297 0.0
C2015 C 0.26377 0.3647 0.67421 0.0
C2016 C 0.14406 0.29199 0.14001 0.0
C2017 C 0.14004 0.32172 0.17145 0.0
H2018 H 0.13728 0.26764 0.07515 0.0
C2019 C 0.12466 0.34719 0.16254 0.0
H2020 H 0.15589 0.27225 0.14508 0.0
C2021 C 0.11347 0.34276 0.12477 0.0
C2022 C 0.11781 0.31422 0.09284 0.0
H2023 H 0.12165 0.37245 0.18334 0.0
H2024 H 0.10248 0.36435 0.11838 0.0
C2025 C 0.13319 0.28873 0.10051 0.0
C2026 C 0.1223 0.93034 0.13739 0.0
C2027 C 0.1218 0.96589 0.16083 0.0
H2028 H 0.13441 0.89741 0.08459 0.0
C2029 C 0.1329 0.99766 0.14575 0.0
H2030 H 0.11464 0.90483 0.14964 0.0
C2031 C 0.14408 0.99381 0.10674 0.0
C2032 C 0.14454 0.95782 0.08364 0.0
H2033 H 0.13325 0.02483 0.16457 0.0
H2034 H 0.15235 0.01855 0.09487 0.0
C2035 C 0.13382 0.92608 0.10027 0.0
C2036 C 0.88229 0.74118 0.90161 0.0
C2037 C 0.89741 0.71503 0.9094 0.0
H2038 H 0.8594 0.75775 0.85744 0.0
C2039 C 0.90102 0.6853 0.87837 0.0
H2040 H 0.87876 0.76323 0.92636 0.0
C2041 C 0.88944 0.68054 0.84133 0.0
C2042 C 0.87439 0.70677 0.83224 0.0
H2043 H 0.91179 0.66328 0.88498 0.0
H2044 H 0.89193 0.65476 0.82093 0.0
C2045 C 0.871 0.73747 0.8628 0.0
C2046 C 0.89859 0.09783 0.86799 0.0
C2047 C 0.89612 0.06591 0.83918 0.0
H2048 H 0.88903 0.12836 0.92513 0.0
C2049 C 0.88268 0.03676 0.84991 0.0
H2050 H 0.90811 0.12172 0.85917 0.0
C2051 C 0.87188 0.03971 0.88955 0.0
C2052 C 0.87415 0.07239 0.91792 0.0
H2053 H 0.88008 1.01272 0.82697 0.0
H2054 H 0.86155 0.01714 0.89742 0.0
C2055 C 0.88751 0.10152 0.90597 0.0
C2056 C 0.14083 0.78543 0.64304 0.0
C2057 C 0.14457 0.82128 0.66476 0.0
H2058 H 0.12722 0.75738 0.58638 0.0
C2059 C 0.13706 0.85606 0.64684 0.0
H2060 H 0.14642 0.75827 0.65641 0.0
C2061 C 0.12545 0.85522 0.6096 0.0
C2062 C 0.12172 0.81988 0.5873 0.0
H2063 H 0.1399 0.88422 0.66234 0.0
H2064 H 0.11987 0.88272 0.59707 0.0
C2065 C 0.12958 0.78481 0.60385 0.0
C2066 C 0.13885 0.42324 0.605 0.0
C2067 C 0.1455 0.45861 0.58663 0.0
H2068 H 0.1225 0.39521 0.6555 0.0
C2069 C 0.1409 0.49425 0.6078 0.0
H2070 H 0.14226 0.39528 0.58961 0.0
C2071 C 0.12974 0.49407 0.64713 0.0
C2072 C 0.12294 0.45832 0.66454 0.0
H2073 H 0.14577 0.52185 0.59389 0.0
H2074 H 0.1267 0.52141 0.66415 0.0
C2075 C 0.1274 0.42318 0.64256 0.0
C2076 C 0.866 0.18327 0.37082 0.0
C2077 C 0.86823 0.21594 0.34298 0.0
H2078 H 0.87577 0.15143 0.42672 0.0
C2079 C 0.88188 0.24464 0.35414 0.0
H2080 H 0.85651 0.15947 0.36154 0.0
C2081 C 0.89278 0.24085 0.39358 0.0
C2082 C 0.89048 0.20771 0.42126 0.0
H2083 H 0.88446 0.26912 0.33181 0.0
H2084 H 0.90311 0.26327 0.40196 0.0
C2085 C 0.87723 0.1787 0.40839 0.0
C2086 C 0.88437 0.61261 0.36156 0.0
C2087 C 0.89405 0.57838 0.3486 0.0
H2088 H 0.86341 0.63859 0.40323 0.0
C2089 C 0.89074 0.54347 0.37264 0.0
H2090 H 0.88665 0.64007 0.34393 0.0
C2091 C 0.87789 0.54332 0.40912 0.0
C2092 C 0.86756 0.57747 0.41991 0.0
H2093 H 0.89784 0.51659 0.36301 0.0
H2094 H 0.87604 0.51687 0.42877 0.0
C2095 C 0.87086 0.61173 0.39522 0.0
C2096 C 0.62684 0.36294 0.60201 0.0
C2097 C 0.61793 0.32815 0.58787 0.0
H2098 H 0.64731 0.38992 0.64442 0.0
C2099 C 0.62285 0.29263 0.60894 0.0
H2100 H 0.6234 0.39078 0.5864 0.0
C2101 C 0.63613 0.29254 0.64454 0.0
C2102 C 0.64533 0.32758 0.65736 0.0
H2103 H 0.61645 0.26531 0.59809 0.0
H2104 H 0.63897 0.26552 0.66238 0.0
C2105 C 0.64076 0.36241 0.63484 0.0
C2106 C 0.63436 0.98085 0.65163 0.0
C2107 C 0.61895 0.95452 0.65653 0.0
H2108 H 0.6587 0.99812 0.61185 0.0
C2109 C 0.61639 0.92533 0.62415 0.0
H2110 H 0.63716 1.00253 0.67733 0.0
C2111 C 0.62907 0.92152 0.58874 0.0
C2112 C 0.64448 0.94773 0.58296 0.0
H2113 H 0.60548 0.90309 0.62833 0.0
H2114 H 0.62702 0.89674 0.56656 0.0
C2115 C 0.64693 0.97775 0.61483 0.0
C2116 C 0.39122 0.74173 0.40861 0.0
C2117 C 0.40302 0.70902 0.41662 0.0
H2118 H 0.36998 0.76751 0.36511 0.0
C2119 C 0.40134 0.67613 0.38881 0.0
H2120 H 0.39166 0.76675 0.43096 0.0
C2121 C 0.38797 0.67516 0.35485 0.0
C2122 C 0.37678 0.70818 0.34482 0.0
H2123 H 0.40947 0.64975 0.39554 0.0
H2124 H 0.38652 0.64826 0.33578 0.0
C2125 C 0.37845 0.74172 0.37202 0.0
C2126 C 0.38889 0.03773 0.35693 0.0
C2127 C 0.39434 0.07335 0.33675 0.0
H2128 H 0.37399 1.01078 0.41252 0.0
C2129 C 0.38865 0.10888 0.35622 0.0
H2130 H 0.39302 1.01001 0.34214 0.0
C2131 C 0.3772 0.10925 0.39372 0.0
C2132 C 0.37185 0.07415 0.41473 0.0
H2133 H 0.3927 0.13676 0.34159 0.0
H2134 H 0.37292 0.1374 0.40723 0.0
C2135 C 0.37776 0.03815 0.39634 0.0
C2136 C 0.64319 0.85516 0.14116 0.0
C2137 C 0.64569 0.81981 0.16427 0.0
H2138 H 0.63042 0.88458 0.08657 0.0
C2139 C 0.63762 0.78507 0.14724 0.0
H2140 H 0.649 0.88242 0.15405 0.0
C2141 C 0.62712 0.78611 0.10703 0.0
C2142 C 0.62458 0.82195 0.08447 0.0
H2143 H 0.63916 0.75769 0.16526 0.0
H2144 H 0.6211 0.7593 0.09363 0.0
C2145 C 0.63247 0.85636 0.10256 0.0
C2146 C 0.6288 0.42785 0.09476 0.0
C2147 C 0.64177 0.45749 0.08218 0.0
H2148 H 0.60898 0.40664 0.14279 0.0
C2149 C 0.64434 0.48981 0.11096 0.0
H2150 H 0.62712 0.40122 0.07532 0.0
C2151 C 0.63413 0.49202 0.1515 0.0
C2152 C 0.621 0.46245 0.16272 0.0
H2153 H 0.65443 0.51272 0.10264 0.0
H2154 H 0.63689 0.5159 0.17456 0.0
C2155 C 0.61829 0.4308 0.13367 0.0
C2156 C 0.39628 0.23734 0.8876 0.0
C2157 C 0.39319 0.20638 0.91802 0.0
H2158 H 0.38845 0.26267 0.82394 0.0
C2159 C 0.37844 0.17935 0.90873 0.0
H2160 H 0.40762 0.2583 0.89319 0.0
C2161 C 0.36696 0.18341 0.87143 0.0
C2162 C 0.37036 0.2133 0.84044 0.0
H2163 H 0.37618 0.15343 0.92907 0.0
H2164 H 0.35647 0.16077 0.86459 0.0
C2165 C 0.3851 0.24039 0.84859 0.0
C2166 C 0.3661 0.58623 0.86563 0.0
C2167 C 0.37169 0.56087 0.89994 0.0
H2168 H 0.37355 0.61562 0.80606 0.0
C2169 C 0.38871 0.5395 0.89486 0.0
H2170 H 0.35368 0.60474 0.86964 0.0
C2171 C 0.4003 0.54491 0.85686 0.0
C2172 C 0.39522 0.57232 0.82371 0.0
H2173 H 0.39368 0.52084 0.92178 0.0
H2174 H 0.41359 0.52908 0.85452 0.0
C2175 C 0.37779 0.59251 0.82882 0.0
C2176 C 0.02473 0.49514 0.98646 0.0
C2177 C 1.0071 0.47601 0.9817 0.0
H2178 H 0.0395 0.54779 0.00489 0.0
C2179 C 0.99047 0.49665 0.99293 0.0
H2180 H 0.03788 0.47999 0.97899 0.0
C2181 C 0.99143 0.5353 0.00878 0.0
C2182 C 0.00906 0.55447 0.01335 0.0
H2183 H 0.97666 0.48276 0.9901 0.0
H2184 H 0.97829 0.55043 0.01635 0.0
C2185 C 0.02569 0.53386 0.00207 0.0
C2186 C 0.27653 0.74577 0.01635 0.0
C2187 C 0.25981 0.72405 0.00896 0.0
H2188 H 0.29067 0.80121 0.01067 0.0
C2189 C 0.24428 0.74286 0.98847 0.0
H2190 H 0.28886 0.73217 0.03149 0.0
C2191 C 0.24539 0.78242 0.97596 0.0
C2192 C 0.26206 0.80422 0.98367 0.0
H2193 H 0.23127 0.72693 0.98155 0.0
H2194 H 0.23305 0.79605 0.9609 0.0
C2195 C 0.27766 0.78528 0.00372 0.0
C2196 C 0.9942 0.74425 0.2308 0.0
C2197 C 0.01162 0.724 0.23115 0.0
H2198 H 0.97948 0.79788 0.24459 0.0
C2199 C 0.02794 0.74391 0.24634 0.0
H2200 H 0.98129 0.72985 0.21977 0.0
C2201 C 0.02682 0.78272 0.2616 0.0
C2202 C 0.00938 0.80286 0.26151 0.0
H2203 H 0.04157 0.72921 0.24751 0.0
H2204 H 0.03971 0.79711 0.27276 0.0
C2205 C 0.99311 0.78315 0.24575 0.0
C2206 C 0.2432 0.53595 0.25844 0.0
C2207 C 0.25899 0.55446 0.2384 0.0
H2208 H 0.23148 0.48306 0.28599 0.0
C2209 C 0.27553 0.53227 0.23123 0.0
H2210 H 0.23029 0.5522 0.26513 0.0
C2211 C 0.2763 0.49271 0.24389 0.0
C2212 C 0.26052 0.47418 0.26391 0.0
H2213 H 0.28802 0.54556 0.2163 0.0
H2214 H 0.28921 0.47648 0.2372 0.0
C2215 C 0.24397 0.49637 0.27109 0.0
C2216 C 0.77557 0.28441 0.99879 0.0
C2217 C 0.75871 0.30547 0.99135 0.0
H2218 H 0.78819 0.22956 0.01692 0.0
C2219 C 0.74119 0.28645 0.99819 0.0
H2220 H 0.78929 0.29831 0.99412 0.0
C2221 C 0.74053 0.24727 0.0121 0.0
C2222 C 0.75737 0.22608 0.01928 0.0
H2223 H 0.72791 0.30201 0.99371 0.0
H2224 H 0.72679 0.23344 0.01668 0.0
C2225 C 0.77492 0.24515 0.01256 0.0
C2226 C 0.02517 0.28255 0.76455 0.0
C2227 C 1.00799 0.3035 0.76266 0.0
H2228 H 0.0393 0.22758 0.75468 0.0
C2229 C 0.99149 0.28365 0.74848 0.0
H2230 H 0.03823 0.29698 0.77456 0.0
C2231 C 0.99215 0.24394 0.73641 0.0
C2232 C 0.00934 0.22299 0.73829 0.0
H2233 H 0.97802 0.2989 0.74628 0.0
H2234 H 0.97909 0.22953 0.72638 0.0
C2235 C 0.02584 0.24283 0.75249 0.0
C2236 C 0.74153 0.51927 0.73466 0.0
C2237 C 0.7585 0.54134 0.73135 0.0
H2238 H 0.72785 0.46743 0.76068 0.0
C2239 C 0.77553 0.52331 0.74484 0.0
H2240 H 0.72813 0.53198 0.72437 0.0
C2241 C 0.7753 0.48624 0.76547 0.0
C2242 C 0.75813 0.46576 0.77247 0.0
H2243 H 0.78886 0.53923 0.74327 0.0
H2244 H 0.7884 0.47515 0.77971 0.0
C2245 C 0.74136 0.48191 0.75496 0.0
C2246 C 0.02235 0.03651 0.47785 0.0
C2247 C 1.00836 0.05513 0.50404 0.0
H2248 H 0.03173 0.9833 0.44654 0.0
C2249 C 0.9926 0.03306 0.51838 0.0
H2250 H 0.03455 0.05272 0.46558 0.0
C2251 C 0.99074 0.99353 0.50637 0.0
C2252 C 1.00477 0.97481 0.48043 0.0
H2253 H 0.98153 0.04643 0.53843 0.0
H2254 H 0.97844 0.97747 0.51828 0.0
C2255 C 0.02061 0.99681 0.46633 0.0
C2256 C 0.2753 0.28659 0.50992 0.0
C2257 C 0.25978 0.30568 0.48973 0.0
H2258 H 0.28614 0.23369 0.53899 0.0
C2259 C 0.24266 0.28483 0.48462 0.0
H2260 H 0.28863 0.3019 0.51519 0.0
C2261 C 0.2411 0.24593 0.49932 0.0
C2262 C 0.25672 0.22663 0.51884 0.0
H2263 H 0.23034 0.29867 0.46972 0.0
H2264 H 0.22776 0.23064 0.49413 0.0
C2265 C 0.27379 0.24758 0.52427 0.0
C2266 C 0.24333 0.99556 0.77186 0.0
C2267 C 0.2599 0.97391 0.76301 0.0
H2268 H 0.22908 0.05082 0.76688 0.0
C2269 C 0.27504 0.99266 0.74067 0.0
H2270 H 0.23131 0.982 0.78852 0.0
C2271 C 0.27365 0.032 0.72757 0.0
C2272 C 0.25713 0.05372 0.73665 0.0
H2273 H 0.28791 0.97679 0.73259 0.0
H2274 H 0.28568 0.04554 0.71091 0.0
C2275 C 0.24195 0.03493 0.75879 0.0
C2276 C 0.74646 0.76822 0.53944 0.0
C2277 C 0.75679 0.73334 0.53029 0.0
H2278 H 0.73856 0.82642 0.51889 0.0
C2279 C 0.76741 0.73218 0.49061 0.0
H2280 H 0.73808 0.77073 0.56975 0.0
C2281 C 0.76757 0.76466 0.46125 0.0
C2282 C 0.75731 0.79963 0.47068 0.0
H2283 H 0.77583 0.70661 0.4825 0.0
H2284 H 0.77581 0.76222 0.4307 0.0
C2285 C 0.74681 0.80079 0.51043 0.0
C2286 C 0.74048 0.99297 0.25946 0.0
C2287 C 0.75814 0.97367 0.25899 0.0
H2288 H 0.72514 0.04582 0.24588 0.0
C2289 C 0.77418 0.99406 0.24313 0.0
H2290 H 0.72776 0.97798 0.27075 0.0
C2291 C 0.77262 0.03286 0.22832 0.0
C2292 C 0.75499 0.05226 0.22905 0.0
H2293 H 0.78795 0.97996 0.24178 0.0
H2294 H 0.78537 0.04786 0.2172 0.0
C2295 C 0.73891 0.03171 0.24444 0.0
C2296 C 0.52017 0.51237 0.54063 0.0
C2297 C 0.51009 0.54766 0.53205 0.0
H2298 H 0.52795 0.45446 0.51837 0.0
C2299 C 0.49949 0.54976 0.49248 0.0
H2300 H 0.52848 0.50922 0.57096 0.0
C2301 C 0.49903 0.51775 0.46261 0.0
C2302 C 0.50914 0.48249 0.47116 0.0
H2303 H 0.49126 0.5757 0.48489 0.0
H2304 H 0.49072 0.52086 0.43228 0.0
C2305 C 0.51973 0.48038 0.51075 0.0
C2306 C 0.49533 0.73509 0.75881 0.0
C2307 C 0.50942 0.73035 0.72612 0.0
H2308 H 0.48357 0.77162 0.81021 0.0
C2309 C 0.52294 0.76105 0.72128 0.0
H2310 H 0.48449 0.71296 0.76327 0.0
C2311 C 0.52221 0.79559 0.74746 0.0
C2312 C 0.50791 0.80058 0.77961 0.0
H2313 H 0.53408 0.75858 0.69638 0.0
H2314 H 0.53308 0.81786 0.74319 0.0
C2315 C 0.49464 0.76949 0.78508 0.0
C2316 C 0.49459 0.24714 0.22832 0.0
C2317 C 0.51033 0.22511 0.24254 0.0
H2318 H 0.4808 0.30303 0.22764 0.0
C2319 C 0.52433 0.24359 0.26884 0.0
H2320 H 0.48347 0.23374 0.20837 0.0
C2321 C 0.52265 0.28315 0.28057 0.0
C2322 C 0.50699 0.30527 0.26606 0.0
H2323 H 0.53646 0.22733 0.28121 0.0
H2324 H 0.53377 0.29652 0.30055 0.0
C2325 C 0.49292 0.28674 0.24001 0.0
C2326 C 0.52731 0.03424 0.00134 0.0
C2327 C 0.51159 0.05403 0.01968 0.0
H2328 H 0.53818 0.98089 0.97365 0.0
C2329 C 0.49445 0.03332 0.02527 0.0
H2330 H 0.54069 0.04933 0.99608 0.0
C2331 C 0.49297 0.994 0.0121 0.0
C2332 C 0.50858 0.97447 0.99291 0.0
H2333 H 0.48203 0.04764 0.03913 0.0
H2334 H 0.47961 0.97883 0.01737 0.0
C2335 C 0.52577 0.99509 0.98772 0.0
C2336 C 0.03128 0.11557 0.13042 0.0
C2337 C 0.01385 0.09572 0.13506 0.0
H2338 H 0.04534 0.17023 0.11747 0.0
C2339 C 0.99686 0.11698 0.13072 0.0
H2340 H 0.04461 0.10003 0.13386 0.0
C2341 C 0.99728 0.15728 0.12217 0.0
C2342 C 0.01471 0.1771 0.11728 0.0
H2343 H 0.98319 0.10267 0.13457 0.0
H2344 H 0.98391 0.17273 0.11874 0.0
C2345 C 0.0317 0.15582 0.12134 0.0
C2346 C 0.23603 0.16113 0.13009 0.0
C2347 C 0.25341 0.18133 0.13308 0.0
H2348 H 0.22205 0.10588 0.12036 0.0
C2349 C 0.27045 0.16011 0.12934 0.0
H2350 H 0.22267 0.17664 0.1332 0.0
C2351 C 0.27009 0.11951 0.1229 0.0
C2352 C 0.25269 0.09932 0.11958 0.0
H2353 H 0.2841 0.17471 0.13203 0.0
H2354 H 0.28349 0.10411 0.11973 0.0
C2355 C 0.23567 0.12057 0.12311 0.0
C2356 C 0.98663 0.87064 0.87869 0.0
C2357 C 1.00373 0.8497 0.88252 0.0
H2358 H 0.97342 0.92638 0.86764 0.0
C2359 C 0.02105 0.87011 0.87886 0.0
H2360 H 0.97306 0.85579 0.88168 0.0
C2361 C 0.02126 0.91062 0.87168 0.0
C2362 C 1.00414 0.93154 0.86755 0.0
H2363 H 0.0345 0.85494 0.88216 0.0
H2364 H 0.03485 0.92537 0.86865 0.0
C2365 C 0.98683 0.91112 0.87101 0.0
C2366 C 0.78214 0.90918 0.87666 0.0
C2367 C 0.76487 0.9295 0.8808 0.0
H2368 H 0.79582 0.854 0.86527 0.0
C2369 C 0.74772 0.90845 0.87727 0.0
H2370 H 0.79559 0.92451 0.87955 0.0
C2371 C 0.74786 0.86793 0.86989 0.0
C2372 C 0.76515 0.84767 0.86544 0.0
H2373 H 0.73415 0.92314 0.88082 0.0
H2374 H 0.73439 0.85264 0.867 0.0
C2375 C 0.78228 0.86874 0.86878 0.0
C2376 C 0.9987 0.61698 0.62686 0.0
C2377 C 0.01604 0.59681 0.63073 0.0
H2378 H 0.98485 0.67219 0.61743 0.0
C2379 C 0.03313 0.61804 0.62764 0.0
H2380 H 0.98526 0.60158 0.62967 0.0
C2381 C 0.03289 0.65859 0.62071 0.0
C2382 C 0.01556 0.67878 0.6173 0.0
H2383 H 0.0467 0.60336 0.63084 0.0
H2384 H 0.04629 0.67412 0.61806 0.0
C2385 C 0.99846 0.65757 0.62045 0.0
C2386 C 0.27007 0.65953 0.62866 0.0
C2387 C 0.25272 0.67972 0.6321 0.0
H2388 H 0.28392 0.60428 0.61993 0.0
C2389 C 0.23563 0.65848 0.62917 0.0
H2390 H 0.2835 0.67496 0.63129 0.0
C2391 C 0.23588 0.61785 0.62276 0.0
C2392 C 0.25322 0.59765 0.61966 0.0
H2393 H 0.22205 0.67319 0.63201 0.0
H2394 H 0.22248 0.60231 0.62015 0.0
C2395 C 0.27031 0.6189 0.62272 0.0
C2396 C 0.02025 0.36602 0.3773 0.0
C2397 C 1.00296 0.34552 0.38133 0.0
H2398 H 0.03398 0.42147 0.36746 0.0
C2399 C 0.98584 0.36651 0.37833 0.0
H2400 H 0.03372 0.35086 0.38012 0.0
C2401 C 0.98599 0.40707 0.37115 0.0
C2402 C 1.00327 0.42757 0.36741 0.0
H2403 H 0.97229 0.35164 0.38173 0.0
H2404 H 0.97255 0.42235 0.36854 0.0
C2405 C 0.02041 0.40663 0.37064 0.0
C2406 C 0.78127 0.37143 0.37334 0.0
C2407 C 0.76411 0.35053 0.3692 0.0
H2408 H 0.79472 0.42681 0.38557 0.0
C2409 C 0.74687 0.37101 0.37366 0.0
H2410 H 0.7948 0.35664 0.36979 0.0
C2411 C 0.74682 0.4115 0.38199 0.0
C2412 C 0.76402 0.4323 0.38646 0.0
H2413 H 0.73338 0.3559 0.37013 0.0
H2414 H 0.7333 0.42636 0.38556 0.0
C2415 C 0.78122 0.41175 0.38212 0.0
C2416 C 0.53023 0.11838 0.62876 0.0
C2417 C 0.5129 0.09799 0.63245 0.0
H2418 H 0.54423 0.17334 0.61756 0.0
C2419 C 0.49586 0.11928 0.62821 0.0
H2420 H 0.54363 0.10306 0.63215 0.0
C2421 C 0.4962 0.15997 0.6205 0.0
C2422 C 0.5136 0.18022 0.61649 0.0
H2423 H 0.48224 0.10462 0.63139 0.0
H2424 H 0.48284 0.17542 0.61701 0.0
C2425 C 0.53058 0.15883 0.62065 0.0
C2426 C 0.73764 0.12088 0.61912 0.0
C2427 C 0.75469 0.0996 0.61611 0.0
H2428 H 0.72438 0.17667 0.62918 0.0
C2429 C 0.77201 0.12003 0.62053 0.0
H2430 H 0.72405 0.10619 0.61565 0.0
C2431 C 0.77221 0.1608 0.62759 0.0
C2432 C 0.75509 0.18198 0.63075 0.0
H2433 H 0.78543 0.10465 0.61789 0.0
H2434 H 0.78577 0.1756 0.63118 0.0
C2435 C 0.73784 0.16142 0.62659 0.0
C2436 C 0.52008 0.91074 0.37576 0.0
C2437 C 0.5029 0.93159 0.37187 0.0
H2438 H 0.53345 0.85487 0.38535 0.0
C2439 C 0.48568 0.91072 0.37448 0.0
H2440 H 0.53362 0.92578 0.37322 0.0
C2441 C 0.48559 0.8701 0.38128 0.0
C2442 C 0.50272 0.84921 0.38515 0.0
H2443 H 0.47221 0.92578 0.37118 0.0
H2444 H 0.47204 0.85508 0.38362 0.0
C2445 C 0.51999 0.86998 0.38214 0.0
C2446 C 0.28167 0.90804 0.38079 0.0
C2447 C 0.26456 0.92904 0.38401 0.0
H2448 H 0.29491 0.85223 0.37067 0.0
C2449 C 0.24724 0.90866 0.38008 0.0
H2450 H 0.29524 0.92288 0.38397 0.0
C2451 C 0.24705 0.86811 0.37322 0.0
C2452 C 0.26417 0.84713 0.36976 0.0
H2453 H 0.23379 0.9239 0.3829 0.0
H2454 H 0.23346 0.85336 0.37001 0.0
C2455 C 0.28148 0.86752 0.37351 0.0
C2456 C 0.49572 0.66014 0.12377 0.0
C2457 C 0.51287 0.68125 0.12054 0.0
H2458 H 0.48241 0.60416 0.13342 0.0
C2459 C 0.53013 0.66086 0.12446 0.0
H2460 H 0.48217 0.67488 0.12038 0.0
C2461 C 0.53027 0.62034 0.13181 0.0
C2462 C 0.51315 0.59919 0.13493 0.0
H2463 H 0.54359 0.67619 0.12179 0.0
H2464 H 0.54383 0.60561 0.13515 0.0
C2465 C 0.49586 0.61951 0.1307 0.0
C2466 C 0.77248 0.61973 0.12266 0.0
C2467 C 0.75516 0.59932 0.11861 0.0
H2468 H 0.78625 0.67508 0.1331 0.0
C2469 C 0.73806 0.62036 0.1219 0.0
H2470 H 0.78592 0.6045 0.11973 0.0
C2471 C 0.73825 0.66086 0.12949 0.0
C2472 C 0.75554 0.68129 0.1334 0.0
H2473 H 0.72449 0.60556 0.11856 0.0
H2474 H 0.72482 0.67615 0.1324 0.0
C2475 C 0.77267 0.66031 0.12976 0.0
C2476 C 0.48648 0.41143 0.86649 0.0
C2477 C 0.5036 0.43266 0.86417 0.0
H2478 H 0.47314 0.35558 0.87646 0.0
C2479 C 0.52086 0.41251 0.86977 0.0
H2480 H 0.47296 0.42608 0.86213 0.0
C2481 C 0.52099 0.37192 0.87709 0.0
C2482 C 0.50383 0.35072 0.87949 0.0
H2483 H 0.53432 0.42793 0.86768 0.0
H2484 H 0.53452 0.35728 0.88144 0.0
C2485 C 0.48659 0.37098 0.87441 0.0
C2486 C 0.28267 0.37083 0.87104 0.0
C2487 C 0.26558 0.34961 0.8679 0.0
H2488 H 0.29584 0.42689 0.88099 0.0
C2489 C 0.24824 0.36978 0.87173 0.0
H2490 H 0.29625 0.35615 0.86791 0.0
C2491 C 0.24801 0.41034 0.87835 0.0
C2492 C 0.2651 0.43156 0.88174 0.0
H2493 H 0.2348 0.35438 0.86895 0.0
H2494 H 0.23439 0.4249 0.88148 0.0
C2495 C 0.28243 0.41139 0.87816 0.0
loop_
_geom_bond_atom_site_label_1
_geom_bond_atom_site_label_2
_geom_bond_distance
_geom_bond_site_symmetry_2
_ccdc_geom_bond_type
Eu0 O2 2.323 1_655 S
Eu0 O10 2.328 . S
Eu0 O21 2.316 . S
Eu0 C22 2.837 . S
Eu0 O23 2.488 . S
Eu0 O31 2.461 . S
C1 O12 1.251 . S
C1 O21 1.238 1_456 S
O2 Eu0 2.323 1_455 S
O2 C18 1.279 . S
C3 C5 1.383 . S
C3 C7 1.388 . S
C3 C17 1.491 . S
C4 C6 1.403 . S
C4 C8 1.385 . S
C4 H32 0.931 . S
C5 C3 1.383 . S
C5 C6 1.393 . S
C5 H33 0.930 . S
C6 C4 1.403 . S
C6 C5 1.393 . S
C7 C3 1.388 . S
C7 C8 1.394 . S
C7 H34 0.930 . S
C8 C4 1.385 . S
C8 C7 1.394 . S
Eu9 O11 2.323 . S
Eu9 O12 2.328 . S
Eu9 O13 2.316 1_556 S
Eu9 O16 2.488 1_556 S
Eu9 C17 2.837 1_556 S
Eu9 O20 2.461 . S
O10 Eu0 2.328 . S
O10 C30 1.251 1_655 S
O11 Eu9 2.323 . S
O11 C14 1.279 1_455 S
O12 C1 1.251 . S
O12 Eu9 2.328 . S
O13 Eu9 2.316 1_554 S
O13 C30 1.237 . S
C14 O11 1.279 1_655 S
C14 O15 1.244 . S
O15 C14 1.244 . S
O16 Eu9 2.488 1_554 S
O16 C17 1.271 . S
C17 C3 1.491 . S
C17 Eu9 2.837 1_554 S
C17 O16 1.271 . S
C17 O20 1.261 1_554 S
C18 O2 1.279 . S
C18 O19 1.244 . S
O19 C18 1.244 . S
O20 Eu9 2.461 . S
O20 C17 1.261 1_556 S
O21 Eu0 2.316 . S
O21 C1 1.238 1_654 S
C22 Eu0 2.837 . S
C22 O23 1.271 . S
C22 C24 1.491 . S
C22 O31 1.261 . S
O23 Eu0 2.488 . S
O23 C22 1.271 . S
C24 C22 1.491 . S
C24 C26 1.383 . S
C24 C28 1.388 . S
C25 C27 1.403 1_556 S
C25 C29 1.385 . S
C25 H35 0.931 . S
C26 C24 1.383 . S
C26 C27 1.393 . S
C26 H36 0.930 . S
C27 C25 1.403 1_554 S
C27 C26 1.393 . S
C28 C24 1.388 . S
C28 C29 1.394 1_554 S
C28 H37 0.930 . S
C29 C25 1.385 . S
C29 C28 1.394 1_556 S
C30 O10 1.251 1_455 S
C30 O13 1.237 . S
O31 Eu0 2.461 . S
O31 C22 1.261 . S
H32 C4 0.931 . S
H33 C5 0.930 . S
H34 C7 0.930 . S
H35 C25 0.931 . S
H36 C26 0.930 . S
H37 C28 0.930 . S
Eu38 O40 2.323 1_565 S
Eu38 O48 2.328 . S
Eu38 O59 2.316 . S
Eu38 C60 2.837 . S
Eu38 O61 2.488 . S
Eu38 O69 2.461 1_565 S
C39 O50 1.251 . S
C39 O59 1.237 1_556 S
O40 Eu38 2.323 1_545 S
O40 C56 1.279 . S
C41 C43 1.383 . S
C41 C45 1.388 . S
C41 C55 1.491 . S
C42 C44 1.403 . S
C42 C46 1.385 . S
C42 H70 0.931 . S
C43 C41 1.383 . S
C43 C44 1.393 . S
C43 H71 0.930 . S
C44 C42 1.403 . S
C44 C43 1.393 . S
C45 C41 1.388 . S
C45 C46 1.394 . S
C45 H72 0.930 . S
C46 C42 1.385 . S
C46 C45 1.394 . S
Eu47 O49 2.323 . S
Eu47 O50 2.328 . S
Eu47 O51 2.316 1_556 S
Eu47 O54 2.488 1_556 S
Eu47 C55 2.837 1_556 S
Eu47 O58 2.461 . S
O48 Eu38 2.328 . S
O48 C68 1.251 . S
O49 Eu47 2.323 . S
O49 C52 1.279 . S
O50 C39 1.251 . S
O50 Eu47 2.328 . S
O51 Eu47 2.316 1_554 S
O51 C68 1.237 . S
C52 O49 1.279 . S
C52 O53 1.244 . S
O53 C52 1.244 . S
O54 Eu47 2.488 1_554 S
O54 C55 1.271 . S
C55 C41 1.491 . S
C55 Eu47 2.837 1_554 S
C55 O54 1.271 . S
C55 O58 1.261 1_554 S
C56 O40 1.279 . S
C56 O57 1.244 . S
O57 C56 1.244 . S
O58 Eu47 2.461 . S
O58 C55 1.261 1_556 S
O59 Eu38 2.316 . S
O59 C39 1.237 1_554 S
C60 Eu38 2.837 . S
C60 O61 1.271 . S
C60 C62 1.491 . S
C60 O69 1.261 1_565 S
O61 Eu38 2.488 . S
O61 C60 1.271 . S
C62 C60 1.491 . S
C62 C64 1.383 1_565 S
C62 C66 1.388 . S
C63 C65 1.403 1_566 S
C63 C67 1.385 . S
C63 H73 0.931 . S
C64 C62 1.383 1_545 S
C64 C65 1.393 . S
C64 H74 0.930 . S
C65 C63 1.403 1_544 S
C65 C64 1.393 . S
C66 C62 1.388 . S
C66 C67 1.394 1_554 S
C66 H75 0.930 . S
C67 C63 1.385 . S
C67 C66 1.394 1_556 S
C68 O48 1.251 . S
C68 O51 1.237 . S
O69 Eu38 2.461 1_545 S
O69 C60 1.261 1_545 S
H70 C42 0.931 . S
H71 C43 0.930 . S
H72 C45 0.930 . S
H73 C63 0.931 . S
H74 C64 0.930 . S
H75 C66 0.930 . S
Eu76 O78 2.323 1_665 S
Eu76 O86 2.328 . S
Eu76 O97 2.316 . S
Eu76 C98 2.837 . S
Eu76 O99 2.488 . S
Eu76 O107 2.461 1_565 S
C77 O88 1.251 . S
C77 O97 1.238 1_455 S
O78 Eu76 2.323 1_445 S
O78 C94 1.279 . S
C79 C81 1.383 . S
C79 C83 1.388 . S
C79 C93 1.491 . S
C80 C82 1.403 . S
C80 C84 1.385 . S
C80 H108 0.931 . S
C81 C79 1.383 . S
C81 C82 1.393 . S
C81 H109 0.930 . S
C82 C80 1.403 . S
C82 C81 1.393 . S
C83 C79 1.388 . S
C83 C84 1.394 . S
C83 H110 0.930 . S
C84 C80 1.385 . S
C84 C83 1.394 . S
Eu85 O87 2.323 . S
Eu85 O88 2.328 . S
Eu85 O89 2.316 . S
Eu85 O92 2.488 . S
Eu85 C93 2.837 . S
Eu85 O96 2.461 . S
O86 Eu76 2.328 . S
O86 C106 1.251 1_655 S
O87 Eu85 2.323 . S
O87 C90 1.279 1_455 S
O88 C77 1.251 . S
O88 Eu85 2.328 . S
O89 Eu85 2.316 . S
O89 C106 1.237 . S
C90 O87 1.279 1_655 S
C90 O91 1.244 . S
O91 C90 1.244 . S
O92 Eu85 2.488 . S
O92 C93 1.271 . S
C93 C79 1.491 . S
C93 Eu85 2.837 . S
C93 O92 1.271 . S
C93 O96 1.261 . S
C94 O78 1.279 . S
C94 O95 1.244 . S
O95 C94 1.244 . S
O96 Eu85 2.461 . S
O96 C93 1.261 . S
O97 Eu76 2.316 . S
O97 C77 1.238 1_655 S
C98 Eu76 2.837 . S
C98 O99 1.271 . S
C98 C100 1.491 . S
C98 O107 1.261 1_565 S
O99 Eu76 2.488 . S
O99 C98 1.271 . S
C100 C98 1.491 . S
C100 C102 1.383 1_565 S
C100 C104 1.388 . S
C101 C103 1.403 1_565 S
C101 C105 1.385 . S
C101 H111 0.931 . S
C102 C100 1.383 1_545 S
C102 C103 1.393 . S
C102 H112 0.930 . S
C103 C101 1.403 1_545 S
C103 C102 1.393 . S
C104 C100 1.388 . S
C104 C105 1.394 . S
C104 H113 0.930 . S
C105 C101 1.385 . S
C105 C104 1.394 . S
C106 O86 1.251 1_455 S
C106 O89 1.237 . S
O107 Eu76 2.461 1_545 S
O107 C98 1.261 1_545 S
H108 C80 0.931 . S
H109 C81 0.930 . S
H110 C83 0.930 . S
H111 C101 0.931 . S
H112 C102 0.930 . S
H113 C104 0.930 . S
Eu114 O116 2.323 . S
Eu114 O124 2.328 . S
Eu114 O135 2.316 . S
Eu114 C136 2.837 . S
Eu114 O137 2.488 . S
Eu114 O145 2.461 . S
C115 O126 1.251 . S
C115 O135 1.237 . S
O116 Eu114 2.323 . S
O116 C132 1.279 . S
C117 C119 1.383 . S
C117 C121 1.388 . S
C117 C131 1.491 . S
C118 C120 1.403 . S
C118 C122 1.385 . S
C118 H146 0.931 . S
C119 C117 1.383 . S
C119 C120 1.393 . S
C119 H147 0.930 . S
C120 C118 1.403 . S
C120 C119 1.393 . S
C121 C117 1.388 . S
C121 C122 1.394 . S
C121 H148 0.930 . S
C122 C118 1.385 . S
C122 C121 1.394 . S
Eu123 O125 2.323 . S
Eu123 O126 2.328 . S
Eu123 O127 2.316 . S
Eu123 O130 2.488 . S
Eu123 C131 2.837 . S
Eu123 O134 2.461 . S
O124 Eu114 2.328 . S
O124 C144 1.251 . S
O125 Eu123 2.323 . S
O125 C128 1.279 . S
O126 C115 1.251 . S
O126 Eu123 2.328 . S
O127 Eu123 2.316 . S
O127 C144 1.237 . S
C128 O125 1.279 . S
C128 O129 1.244 . S
O129 C128 1.244 . S
O130 Eu123 2.488 . S
O130 C131 1.271 . S
C131 C117 1.491 . S
C131 Eu123 2.837 . S
C131 O130 1.271 . S
C131 O134 1.261 . S
C132 O116 1.279 . S
C132 O133 1.244 . S
O133 C132 1.244 . S
O134 Eu123 2.461 . S
O134 C131 1.261 . S
O135 Eu114 2.316 . S
O135 C115 1.237 . S
C136 Eu114 2.837 . S
C136 O137 1.271 . S
C136 C138 1.491 . S
C136 O145 1.261 . S
O137 Eu114 2.488 . S
O137 C136 1.271 . S
C138 C136 1.491 . S
C138 C140 1.383 . S
C138 C142 1.388 . S
C139 C141 1.403 . S
C139 C143 1.385 . S
C139 H149 0.931 . S
C140 C138 1.383 . S
C140 C141 1.393 . S
C140 H150 0.930 . S
C141 C139 1.403 . S
C141 C140 1.393 . S
C142 C138 1.388 . S
C142 C143 1.394 . S
C142 H151 0.930 . S
C143 C139 1.385 . S
C143 C142 1.394 . S
C144 O124 1.251 . S
C144 O127 1.237 . S
O145 Eu114 2.461 . S
O145 C136 1.261 . S
H146 C118 0.931 . S
H147 C119 0.930 . S
H148 C121 0.930 . S
H149 C139 0.931 . S
H150 C140 0.930 . S
H151 C142 0.930 . S
Eu152 O154 2.323 . S
Eu152 O162 2.328 . S
Eu152 O173 2.316 1_554 S
Eu152 C174 2.837 1_554 S
Eu152 O175 2.488 1_554 S
Eu152 O183 2.461 . S
C153 O164 1.251 1_655 S
C153 O173 1.237 . S
O154 Eu152 2.323 . S
O154 C170 1.279 1_655 S
C155 C157 1.383 . S
C155 C159 1.388 . S
C155 C169 1.491 . S
C156 C158 1.403 1_554 S
C156 C160 1.385 . S
C156 H184 0.931 . S
C157 C155 1.383 . S
C157 C158 1.393 . S
C157 H185 0.930 . S
C158 C156 1.403 1_556 S
C158 C157 1.393 . S
C159 C155 1.388 . S
C159 C160 1.394 1_556 S
C159 H186 0.930 . S
C160 C156 1.385 . S
C160 C159 1.394 1_554 S
Eu161 O163 2.323 1_455 S
Eu161 O164 2.328 . S
Eu161 O165 2.316 . S
Eu161 O168 2.488 . S
Eu161 C169 2.837 . S
Eu161 O172 2.461 . S
O162 Eu152 2.328 . S
O162 C182 1.251 . S
O163 Eu161 2.323 1_655 S
O163 C166 1.279 . S
O164 C153 1.251 1_455 S
O164 Eu161 2.328 . S
O165 Eu161 2.316 . S
O165 C182 1.238 1_456 S
C166 O163 1.279 . S
C166 O167 1.244 . S
O167 C166 1.244 . S
O168 Eu161 2.488 . S
O168 C169 1.271 . S
C169 C155 1.491 . S
C169 Eu161 2.837 . S
C169 O168 1.271 . S
C169 O172 1.261 . S
C170 O154 1.279 1_455 S
C170 O171 1.244 . S
O171 C170 1.244 . S
O172 Eu161 2.461 . S
O172 C169 1.261 . S
O173 Eu152 2.316 1_556 S
O173 C153 1.237 . S
C174 Eu152 2.837 1_556 S
C174 O175 1.271 . S
C174 C176 1.491 . S
C174 O183 1.261 1_556 S
O175 Eu152 2.488 1_556 S
O175 C174 1.271 . S
C176 C174 1.491 . S
C176 C178 1.383 . S
C176 C180 1.388 . S
C177 C179 1.403 . S
C177 C181 1.385 . S
C177 H187 0.931 . S
C178 C176 1.383 . S
C178 C179 1.393 . S
C178 H188 0.930 . S
C179 C177 1.403 . S
C179 C178 1.393 . S
C180 C176 1.388 . S
C180 C181 1.394 . S
C180 H189 0.930 . S
C181 C177 1.385 . S
C181 C180 1.394 . S
C182 O162 1.251 . S
C182 O165 1.238 1_654 S
O183 Eu152 2.461 . S
O183 C174 1.261 1_554 S
H184 C156 0.931 . S
H185 C157 0.930 . S
H186 C159 0.930 . S
H187 C177 0.931 . S
H188 C178 0.930 . S
H189 C180 0.930 . S
Eu190 O192 2.323 . S
Eu190 O200 2.328 . S
Eu190 O211 2.316 1_554 S
Eu190 C212 2.837 1_554 S
Eu190 O213 2.488 1_554 S
Eu190 O221 2.461 . S
C191 O202 1.251 . S
C191 O211 1.237 . S
O192 Eu190 2.323 . S
O192 C208 1.279 . S
C193 C195 1.383 1_545 S
C193 C197 1.388 . S
C193 C207 1.491 . S
C194 C196 1.403 1_544 S
C194 C198 1.385 . S
C194 H222 0.931 . S
C195 C193 1.383 1_565 S
C195 C196 1.393 . S
C195 H223 0.930 . S
C196 C194 1.403 1_566 S
C196 C195 1.393 . S
C197 C193 1.388 . S
C197 C198 1.394 1_556 S
C197 H224 0.930 . S
C198 C194 1.385 . S
C198 C197 1.394 1_554 S
Eu199 O201 2.323 1_545 S
Eu199 O202 2.328 . S
Eu199 O203 2.316 . S
Eu199 O206 2.488 . S
Eu199 C207 2.837 . S
Eu199 O210 2.461 1_545 S
O200 Eu190 2.328 . S
O200 C220 1.251 . S
O201 Eu199 2.323 1_565 S
O201 C204 1.279 . S
O202 C191 1.251 . S
O202 Eu199 2.328 . S
O203 Eu199 2.316 . S
O203 C220 1.237 1_556 S
C204 O201 1.279 . S
C204 O205 1.244 . S
O205 C204 1.244 . S
O206 Eu199 2.488 . S
O206 C207 1.271 . S
C207 C193 1.491 . S
C207 Eu199 2.837 . S
C207 O206 1.271 . S
C207 O210 1.261 1_545 S
C208 O192 1.279 . S
C208 O209 1.244 . S
O209 C208 1.244 . S
O210 Eu199 2.461 1_565 S
O210 C207 1.261 1_565 S
O211 Eu190 2.316 1_556 S
O211 C191 1.237 . S
C212 Eu190 2.837 1_556 S
C212 O213 1.271 . S
C212 C214 1.491 . S
C212 O221 1.261 1_556 S
O213 Eu190 2.488 1_556 S
O213 C212 1.271 . S
C214 C212 1.491 . S
C214 C216 1.383 . S
C214 C218 1.388 . S
C215 C217 1.403 . S
C215 C219 1.385 . S
C215 H225 0.931 . S
C216 C214 1.383 . S
C216 C217 1.393 . S
C216 H226 0.930 . S
C217 C215 1.403 . S
C217 C216 1.393 . S
C218 C214 1.388 . S
C218 C219 1.394 . S
C218 H227 0.930 . S
C219 C215 1.385 . S
C219 C218 1.394 . S
C220 O200 1.251 . S
C220 O203 1.237 1_554 S
O221 Eu190 2.461 . S
O221 C212 1.261 1_554 S
H222 C194 0.931 . S
H223 C195 0.930 . S
H224 C197 0.930 . S
H225 C215 0.931 . S
H226 C216 0.930 . S
H227 C218 0.930 . S
Eu228 O230 2.323 . S
Eu228 O238 2.328 . S
Eu228 O249 2.316 . S
Eu228 C250 2.837 . S
Eu228 O251 2.488 . S
Eu228 O259 2.461 . S
C229 O240 1.251 1_655 S
C229 O249 1.237 . S
O230 Eu228 2.323 . S
O230 C246 1.279 1_655 S
C231 C233 1.383 1_545 S
C231 C235 1.388 . S
C231 C245 1.491 . S
C232 C234 1.403 1_545 S
C232 C236 1.385 . S
C232 H260 0.931 . S
C233 C231 1.383 1_565 S
C233 C234 1.393 . S
C233 H261 0.930 . S
C234 C232 1.403 1_565 S
C234 C233 1.393 . S
C235 C231 1.388 . S
C235 C236 1.394 . S
C235 H262 0.930 . S
C236 C232 1.385 . S
C236 C235 1.394 . S
Eu237 O239 2.323 1_445 S
Eu237 O240 2.328 . S
Eu237 O241 2.316 . S
Eu237 O244 2.488 . S
Eu237 C245 2.837 . S
Eu237 O248 2.461 1_545 S
O238 Eu228 2.328 . S
O238 C258 1.251 . S
O239 Eu237 2.323 1_665 S
O239 C242 1.279 . S
O240 C229 1.251 1_455 S
O240 Eu237 2.328 . S
O241 Eu237 2.316 . S
O241 C258 1.238 1_455 S
C242 O239 1.279 . S
C242 O243 1.244 . S
O243 C242 1.244 . S
O244 Eu237 2.488 . S
O244 C245 1.271 . S
C245 C231 1.491 . S
C245 Eu237 2.837 . S
C245 O244 1.271 . S
C245 O248 1.261 1_545 S
C246 O230 1.279 1_455 S
C246 O247 1.244 . S
O247 C246 1.244 . S
O248 Eu237 2.461 1_565 S
O248 C245 1.261 1_565 S
O249 Eu228 2.316 . S
O249 C229 1.237 . S
C250 Eu228 2.837 . S
C250 O251 1.271 . S
C250 C252 1.491 . S
C250 O259 1.261 . S
O251 Eu228 2.488 . S
O251 C250 1.271 . S
C252 C250 1.491 . S
C252 C254 1.383 . S
C252 C256 1.388 . S
C253 C255 1.403 . S
C253 C257 1.385 . S
C253 H263 0.931 . S
C254 C252 1.383 . S
C254 C255 1.393 . S
C254 H264 0.930 . S
C255 C253 1.403 . S
C255 C254 1.393 . S
C256 C252 1.388 . S
C256 C257 1.394 . S
C256 H265 0.930 . S
C257 C253 1.385 . S
C257 C256 1.394 . S
C258 O238 1.251 . S
C258 O241 1.238 1_655 S
O259 Eu228 2.461 . S
O259 C250 1.261 . S
H260 C232 0.931 . S
H261 C233 0.930 . S
H262 C235 0.930 . S
H263 C253 0.931 . S
H264 C254 0.930 . S
H265 C256 0.930 . S
Eu266 O268 2.323 . S
Eu266 O276 2.328 . S
Eu266 O287 2.316 . S
Eu266 C288 2.837 . S
Eu266 O289 2.488 . S
Eu266 O297 2.461 . S
C267 O278 1.251 . S
C267 O287 1.237 . S
O268 Eu266 2.323 . S
O268 C284 1.279 . S
C269 C271 1.383 . S
C269 C273 1.388 . S
C269 C283 1.491 . S
C270 C272 1.403 . S
C270 C274 1.385 . S
C270 H298 0.931 . S
C271 C269 1.383 . S
C271 C272 1.393 . S
C271 H299 0.930 . S
C272 C270 1.403 . S
C272 C271 1.393 . S
C273 C269 1.388 . S
C273 C274 1.394 . S
C273 H300 0.930 . S
C274 C270 1.385 . S
C274 C273 1.394 . S
Eu275 O277 2.323 . S
Eu275 O278 2.328 . S
Eu275 O279 2.316 . S
Eu275 O282 2.488 . S
Eu275 C283 2.837 . S
Eu275 O286 2.461 . S
O276 Eu266 2.328 . S
O276 C296 1.251 . S
O277 Eu275 2.323 . S
O277 C280 1.279 . S
O278 C267 1.251 . S
O278 Eu275 2.328 . S
O279 Eu275 2.316 . S
O279 C296 1.237 . S
C280 O277 1.279 . S
C280 O281 1.244 . S
O281 C280 1.244 . S
O282 Eu275 2.488 . S
O282 C283 1.271 . S
C283 C269 1.491 . S
C283 Eu275 2.837 . S
C283 O282 1.271 . S
C283 O286 1.261 . S
C284 O268 1.279 . S
C284 O285 1.244 . S
O285 C284 1.244 . S
O286 Eu275 2.461 . S
O286 C283 1.261 . S
O287 Eu266 2.316 . S
O287 C267 1.237 . S
C288 Eu266 2.837 . S
C288 O289 1.271 . S
C288 C290 1.491 . S
C288 O297 1.261 . S
O289 Eu266 2.488 . S
O289 C288 1.271 . S
C290 C288 1.491 . S
C290 C292 1.383 . S
C290 C294 1.388 . S
C291 C293 1.403 . S
C291 C295 1.385 . S
C291 H301 0.931 . S
C292 C290 1.383 . S
C292 C293 1.393 . S
C292 H302 0.930 . S
C293 C291 1.403 . S
C293 C292 1.393 . S
C294 C290 1.388 . S
C294 C295 1.394 . S
C294 H303 0.930 . S
C295 C291 1.385 . S
C295 C294 1.394 . S
C296 O276 1.251 . S
C296 O279 1.237 . S
O297 Eu266 2.461 . S
O297 C288 1.261 . S
H298 C270 0.931 . S
H299 C271 0.930 . S
H300 C273 0.930 . S
H301 C291 0.931 . S
H302 C292 0.930 . S
H303 C294 0.930 . S
Eu304 O306 2.323 1_655 S
Eu304 O314 2.328 . S
Eu304 O325 2.316 . S
Eu304 C326 2.837 . S
Eu304 O327 2.488 . S
Eu304 O335 2.461 . S
C305 O316 1.251 . S
C305 O325 1.238 1_455 S
O306 Eu304 2.323 1_455 S
O306 C322 1.279 . S
C307 C309 1.383 . S
C307 C311 1.388 . S
C307 C321 1.491 . S
C308 C310 1.403 . S
C308 C312 1.385 . S
C308 H336 0.931 . S
C309 C307 1.383 . S
C309 C310 1.393 . S
C309 H337 0.930 . S
C310 C308 1.403 . S
C310 C309 1.393 . S
C311 C307 1.388 . S
C311 C312 1.394 . S
C311 H338 0.930 . S
C312 C308 1.385 . S
C312 C311 1.394 . S
Eu313 O315 2.323 . S
Eu313 O316 2.328 . S
Eu313 O317 2.316 . S
Eu313 O320 2.488 . S
Eu313 C321 2.837 . S
Eu313 O324 2.461 . S
O314 Eu304 2.328 . S
O314 C334 1.251 1_655 S
O315 Eu313 2.323 . S
O315 C318 1.279 1_455 S
O316 C305 1.251 . S
O316 Eu313 2.328 . S
O317 Eu313 2.316 . S
O317 C334 1.237 . S
C318 O315 1.279 1_655 S
C318 O319 1.244 . S
O319 C318 1.244 . S
O320 Eu313 2.488 . S
O320 C321 1.271 . S
C321 C307 1.491 . S
C321 Eu313 2.837 . S
C321 O320 1.271 . S
C321 O324 1.261 . S
C322 O306 1.279 . S
C322 O323 1.244 . S
O323 C322 1.244 . S
O324 Eu313 2.461 . S
O324 C321 1.261 . S
O325 Eu304 2.316 . S
O325 C305 1.238 1_655 S
C326 Eu304 2.837 . S
C326 O327 1.271 . S
C326 C328 1.491 . S
C326 O335 1.261 . S
O327 Eu304 2.488 . S
O327 C326 1.271 . S
C328 C326 1.491 . S
C328 C330 1.383 . S
C328 C332 1.388 . S
C329 C331 1.403 . S
C329 C333 1.385 . S
C329 H339 0.931 . S
C330 C328 1.383 . S
C330 C331 1.393 . S
C330 H340 0.930 . S
C331 C329 1.403 . S
C331 C330 1.393 . S
C332 C328 1.388 . S
C332 C333 1.394 . S
C332 H341 0.930 . S
C333 C329 1.385 . S
C333 C332 1.394 . S
C334 O314 1.251 1_455 S
C334 O317 1.237 . S
O335 Eu304 2.461 . S
O335 C326 1.261 . S
H336 C308 0.931 . S
H337 C309 0.930 . S
H338 C311 0.930 . S
H339 C329 0.931 . S
H340 C330 0.930 . S
H341 C332 0.930 . S
Eu342 O344 2.323 . S
Eu342 O352 2.328 . S
Eu342 O363 2.316 . S
Eu342 C364 2.837 . S
Eu342 O365 2.488 . S
Eu342 O373 2.461 . S
C343 O354 1.251 . S
C343 O363 1.237 . S
O344 Eu342 2.323 . S
O344 C360 1.279 . S
C345 C347 1.383 . S
C345 C349 1.388 . S
C345 C359 1.491 . S
C346 C348 1.403 . S
C346 C350 1.385 . S
C346 H374 0.931 . S
C347 C345 1.383 . S
C347 C348 1.393 . S
C347 H375 0.930 . S
C348 C346 1.403 . S
C348 C347 1.393 . S
C349 C345 1.388 . S
C349 C350 1.394 . S
C349 H376 0.930 . S
C350 C346 1.385 . S
C350 C349 1.394 . S
Eu351 O353 2.323 . S
Eu351 O354 2.328 . S
Eu351 O355 2.316 . S
Eu351 O358 2.488 . S
Eu351 C359 2.837 . S
Eu351 O362 2.461 . S
O352 Eu342 2.328 . S
O352 C372 1.251 . S
O353 Eu351 2.323 . S
O353 C356 1.279 . S
O354 C343 1.251 . S
O354 Eu351 2.328 . S
O355 Eu351 2.316 . S
O355 C372 1.237 . S
C356 O353 1.279 . S
C356 O357 1.244 . S
O357 C356 1.244 . S
O358 Eu351 2.488 . S
O358 C359 1.271 . S
C359 C345 1.491 . S
C359 Eu351 2.837 . S
C359 O358 1.271 . S
C359 O362 1.261 . S
C360 O344 1.279 . S
C360 O361 1.244 . S
O361 C360 1.244 . S
O362 Eu351 2.461 . S
O362 C359 1.261 . S
O363 Eu342 2.316 . S
O363 C343 1.237 . S
C364 Eu342 2.837 . S
C364 O365 1.271 . S
C364 C366 1.491 . S
C364 O373 1.261 . S
O365 Eu342 2.488 . S
O365 C364 1.271 . S
C366 C364 1.491 . S
C366 C368 1.383 . S
C366 C370 1.388 . S
C367 C369 1.403 . S
C367 C371 1.385 . S
C367 H377 0.931 . S
C368 C366 1.383 . S
C368 C369 1.393 . S
C368 H378 0.930 . S
C369 C367 1.403 . S
C369 C368 1.393 . S
C370 C366 1.388 . S
C370 C371 1.394 . S
C370 H379 0.930 . S
C371 C367 1.385 . S
C371 C370 1.394 . S
C372 O352 1.251 . S
C372 O355 1.237 . S
O373 Eu342 2.461 . S
O373 C364 1.261 . S
H374 C346 0.931 . S
H375 C347 0.930 . S
H376 C349 0.930 . S
H377 C367 0.931 . S
H378 C368 0.930 . S
H379 C370 0.930 . S
Eu380 O382 2.323 1_655 S
Eu380 O390 2.328 . S
Eu380 O401 2.316 . S
Eu380 C402 2.837 . S
Eu380 O403 2.488 . S
Eu380 O411 2.461 . S
C381 O392 1.251 . S
C381 O401 1.238 1_455 S
O382 Eu380 2.323 1_455 S
O382 C398 1.279 . S
C383 C385 1.383 . S
C383 C387 1.388 . S
C383 C397 1.491 . S
C384 C386 1.403 . S
C384 C388 1.385 . S
C384 H412 0.931 . S
C385 C383 1.383 . S
C385 C386 1.393 . S
C385 H413 0.930 . S
C386 C384 1.403 . S
C386 C385 1.393 . S
C387 C383 1.388 . S
C387 C388 1.394 . S
C387 H414 0.930 . S
C388 C384 1.385 . S
C388 C387 1.394 . S
Eu389 O391 2.323 . S
Eu389 O392 2.328 . S
Eu389 O393 2.316 . S
Eu389 O396 2.488 . S
Eu389 C397 2.837 . S
Eu389 O400 2.461 . S
O390 Eu380 2.328 . S
O390 C410 1.251 1_655 S
O391 Eu389 2.323 . S
O391 C394 1.279 1_455 S
O392 C381 1.251 . S
O392 Eu389 2.328 . S
O393 Eu389 2.316 . S
O393 C410 1.237 . S
C394 O391 1.279 1_655 S
C394 O395 1.244 . S
O395 C394 1.244 . S
O396 Eu389 2.488 . S
O396 C397 1.271 . S
C397 C383 1.491 . S
C397 Eu389 2.837 . S
C397 O396 1.271 . S
C397 O400 1.261 . S
C398 O382 1.279 . S
C398 O399 1.244 . S
O399 C398 1.244 . S
O400 Eu389 2.461 . S
O400 C397 1.261 . S
O401 Eu380 2.316 . S
O401 C381 1.238 1_655 S
C402 Eu380 2.837 . S
C402 O403 1.271 . S
C402 C404 1.491 . S
C402 O411 1.261 . S
O403 Eu380 2.488 . S
O403 C402 1.271 . S
C404 C402 1.491 . S
C404 C406 1.383 . S
C404 C408 1.388 . S
C405 C407 1.403 . S
C405 C409 1.385 . S
C405 H415 0.931 . S
C406 C404 1.383 . S
C406 C407 1.393 . S
C406 H416 0.930 . S
C407 C405 1.403 . S
C407 C406 1.393 . S
C408 C404 1.388 . S
C408 C409 1.394 . S
C408 H417 0.930 . S
C409 C405 1.385 . S
C409 C408 1.394 . S
C410 O390 1.251 1_455 S
C410 O393 1.237 . S
O411 Eu380 2.461 . S
O411 C402 1.261 . S
H412 C384 0.931 . S
H413 C385 0.930 . S
H414 C387 0.930 . S
H415 C405 0.931 . S
H416 C406 0.930 . S
H417 C408 0.930 . S
Eu418 O420 2.323 . S
Eu418 O428 2.328 . S
Eu418 O439 2.316 . S
Eu418 C440 2.837 . S
Eu418 O441 2.488 . S
Eu418 O449 2.461 . S
C419 O430 1.251 . S
C419 O439 1.237 . S
O420 Eu418 2.323 . S
O420 C436 1.279 . S
C421 C423 1.383 . S
C421 C425 1.388 . S
C421 C435 1.491 . S
C422 C424 1.403 . S
C422 C426 1.385 . S
C422 H450 0.931 . S
C423 C421 1.383 . S
C423 C424 1.393 . S
C423 H451 0.930 . S
C424 C422 1.403 . S
C424 C423 1.393 . S
C425 C421 1.388 . S
C425 C426 1.394 . S
C425 H452 0.930 . S
C426 C422 1.385 . S
C426 C425 1.394 . S
Eu427 O429 2.323 . S
Eu427 O430 2.328 . S
Eu427 O431 2.316 . S
Eu427 O434 2.488 . S
Eu427 C435 2.837 . S
Eu427 O438 2.461 . S
O428 Eu418 2.328 . S
O428 C448 1.251 . S
O429 Eu427 2.323 . S
O429 C432 1.279 . S
O430 C419 1.251 . S
O430 Eu427 2.328 . S
O431 Eu427 2.316 . S
O431 C448 1.237 . S
C432 O429 1.279 . S
C432 O433 1.244 . S
O433 C432 1.244 . S
O434 Eu427 2.488 . S
O434 C435 1.271 . S
C435 C421 1.491 . S
C435 Eu427 2.837 . S
C435 O434 1.271 . S
C435 O438 1.261 . S
C436 O420 1.279 . S
C436 O437 1.244 . S
O437 C436 1.244 . S
O438 Eu427 2.461 . S
O438 C435 1.261 . S
O439 Eu418 2.316 . S
O439 C419 1.237 . S
C440 Eu418 2.837 . S
C440 O441 1.271 . S
C440 C442 1.491 . S
C440 O449 1.261 . S
O441 Eu418 2.488 . S
O441 C440 1.271 . S
C442 C440 1.491 . S
C442 C444 1.383 . S
C442 C446 1.388 . S
C443 C445 1.403 . S
C443 C447 1.385 . S
C443 H453 0.931 . S
C444 C442 1.383 . S
C444 C445 1.393 . S
C444 H454 0.930 . S
C445 C443 1.403 . S
C445 C444 1.393 . S
C446 C442 1.388 . S
C446 C447 1.394 . S
C446 H455 0.930 . S
C447 C443 1.385 . S
C447 C446 1.394 . S
C448 O428 1.251 . S
C448 O431 1.237 . S
O449 Eu418 2.461 . S
O449 C440 1.261 . S
H450 C422 0.931 . S
H451 C423 0.930 . S
H452 C425 0.930 . S
H453 C443 0.931 . S
H454 C444 0.930 . S
H455 C446 0.930 . S
Eu456 O458 2.323 . S
Eu456 O466 2.328 . S
Eu456 O477 2.316 . S
Eu456 C478 2.837 . S
Eu456 O479 2.488 . S
Eu456 O487 2.461 . S
C457 O468 1.251 1_655 S
C457 O477 1.237 . S
O458 Eu456 2.323 . S
O458 C474 1.279 1_655 S
C459 C461 1.383 . S
C459 C463 1.388 . S
C459 C473 1.491 . S
C460 C462 1.403 . S
C460 C464 1.385 . S
C460 H488 0.931 . S
C461 C459 1.383 . S
C461 C462 1.393 . S
C461 H489 0.930 . S
C462 C460 1.403 . S
C462 C461 1.393 . S
C463 C459 1.388 . S
C463 C464 1.394 . S
C463 H490 0.930 . S
C464 C460 1.385 . S
C464 C463 1.394 . S
Eu465 O467 2.323 1_455 S
Eu465 O468 2.328 . S
Eu465 O469 2.316 . S
Eu465 O472 2.488 . S
Eu465 C473 2.837 . S
Eu465 O476 2.461 . S
O466 Eu456 2.328 . S
O466 C486 1.251 . S
O467 Eu465 2.323 1_655 S
O467 C470 1.279 . S
O468 C457 1.251 1_455 S
O468 Eu465 2.328 . S
O469 Eu465 2.316 . S
O469 C486 1.238 1_455 S
C470 O467 1.279 . S
C470 O471 1.244 . S
O471 C470 1.244 . S
O472 Eu465 2.488 . S
O472 C473 1.271 . S
C473 C459 1.491 . S
C473 Eu465 2.837 . S
C473 O472 1.271 . S
C473 O476 1.261 . S
C474 O458 1.279 1_455 S
C474 O475 1.244 . S
O475 C474 1.244 . S
O476 Eu465 2.461 . S
O476 C473 1.261 . S
O477 Eu456 2.316 . S
O477 C457 1.237 . S
C478 Eu456 2.837 . S
C478 O479 1.271 . S
C478 C480 1.491 . S
C478 O487 1.261 . S
O479 Eu456 2.488 . S
O479 C478 1.271 . S
C480 C478 1.491 . S
C480 C482 1.383 . S
C480 C484 1.388 . S
C481 C483 1.403 . S
C481 C485 1.385 . S
C481 H491 0.931 . S
C482 C480 1.383 . S
C482 C483 1.393 . S
C482 H492 0.930 . S
C483 C481 1.403 . S
C483 C482 1.393 . S
C484 C480 1.388 . S
C484 C485 1.394 . S
C484 H493 0.930 . S
C485 C481 1.385 . S
C485 C484 1.394 . S
C486 O466 1.251 . S
C486 O469 1.238 1_655 S
O487 Eu456 2.461 . S
O487 C478 1.261 . S
H488 C460 0.931 . S
H489 C461 0.930 . S
H490 C463 0.930 . S
H491 C481 0.931 . S
H492 C482 0.930 . S
H493 C484 0.930 . S
Eu494 O496 2.323 . S
Eu494 O504 2.328 . S
Eu494 O515 2.316 . S
Eu494 C516 2.837 . S
Eu494 O517 2.488 . S
Eu494 O525 2.461 . S
C495 O506 1.251 . S
C495 O515 1.237 . S
O496 Eu494 2.323 . S
O496 C512 1.279 . S
C497 C499 1.383 . S
C497 C501 1.388 . S
C497 C511 1.491 . S
C498 C500 1.403 . S
C498 C502 1.385 . S
C498 H526 0.931 . S
C499 C497 1.383 . S
C499 C500 1.393 . S
C499 H527 0.930 . S
C500 C498 1.403 . S
C500 C499 1.393 . S
C501 C497 1.388 . S
C501 C502 1.394 . S
C501 H528 0.930 . S
C502 C498 1.385 . S
C502 C501 1.394 . S
Eu503 O505 2.323 . S
Eu503 O506 2.328 . S
Eu503 O507 2.316 . S
Eu503 O510 2.488 . S
Eu503 C511 2.837 . S
Eu503 O514 2.461 . S
O504 Eu494 2.328 . S
O504 C524 1.251 . S
O505 Eu503 2.323 . S
O505 C508 1.279 . S
O506 C495 1.251 . S
O506 Eu503 2.328 . S
O507 Eu503 2.316 . S
O507 C524 1.237 . S
C508 O505 1.279 . S
C508 O509 1.244 . S
O509 C508 1.244 . S
O510 Eu503 2.488 . S
O510 C511 1.271 . S
C511 C497 1.491 . S
C511 Eu503 2.837 . S
C511 O510 1.271 . S
C511 O514 1.261 . S
C512 O496 1.279 . S
C512 O513 1.244 . S
O513 C512 1.244 . S
O514 Eu503 2.461 . S
O514 C511 1.261 . S
O515 Eu494 2.316 . S
O515 C495 1.237 . S
C516 Eu494 2.837 . S
C516 O517 1.271 . S
C516 C518 1.491 . S
C516 O525 1.261 . S
O517 Eu494 2.488 . S
O517 C516 1.271 . S
C518 C516 1.491 . S
C518 C520 1.383 . S
C518 C522 1.388 . S
C519 C521 1.403 . S
C519 C523 1.385 . S
C519 H529 0.931 . S
C520 C518 1.383 . S
C520 C521 1.393 . S
C520 H530 0.930 . S
C521 C519 1.403 . S
C521 C520 1.393 . S
C522 C518 1.388 . S
C522 C523 1.394 . S
C522 H531 0.930 . S
C523 C519 1.385 . S
C523 C522 1.394 . S
C524 O504 1.251 . S
C524 O507 1.237 . S
O525 Eu494 2.461 . S
O525 C516 1.261 . S
H526 C498 0.931 . S
H527 C499 0.930 . S
H528 C501 0.930 . S
H529 C519 0.931 . S
H530 C520 0.930 . S
H531 C522 0.930 . S
Eu532 O534 2.323 . S
Eu532 O542 2.328 . S
Eu532 O553 2.316 . S
Eu532 C554 2.837 . S
Eu532 O555 2.488 . S
Eu532 O563 2.461 . S
C533 O544 1.251 1_655 S
C533 O553 1.237 . S
O534 Eu532 2.323 . S
O534 C550 1.279 1_655 S
C535 C537 1.383 . S
C535 C539 1.388 . S
C535 C549 1.491 . S
C536 C538 1.403 . S
C536 C540 1.385 . S
C536 H564 0.931 . S
C537 C535 1.383 . S
C537 C538 1.393 . S
C537 H565 0.930 . S
C538 C536 1.403 . S
C538 C537 1.393 . S
C539 C535 1.388 . S
C539 C540 1.394 . S
C539 H566 0.930 . S
C540 C536 1.385 . S
C540 C539 1.394 . S
Eu541 O543 2.323 1_455 S
Eu541 O544 2.328 . S
Eu541 O545 2.316 . S
Eu541 O548 2.488 . S
Eu541 C549 2.837 . S
Eu541 O552 2.461 . S
O542 Eu532 2.328 . S
O542 C562 1.251 . S
O543 Eu541 2.323 1_655 S
O543 C546 1.279 . S
O544 C533 1.251 1_455 S
O544 Eu541 2.328 . S
O545 Eu541 2.316 . S
O545 C562 1.238 1_455 S
C546 O543 1.279 . S
C546 O547 1.244 . S
O547 C546 1.244 . S
O548 Eu541 2.488 . S
O548 C549 1.271 . S
C549 C535 1.491 . S
C549 Eu541 2.837 . S
C549 O548 1.271 . S
C549 O552 1.261 . S
C550 O534 1.279 1_455 S
C550 O551 1.244 . S
O551 C550 1.244 . S
O552 Eu541 2.461 . S
O552 C549 1.261 . S
O553 Eu532 2.316 . S
O553 C533 1.237 . S
C554 Eu532 2.837 . S
C554 O555 1.271 . S
C554 C556 1.491 . S
C554 O563 1.261 . S
O555 Eu532 2.488 . S
O555 C554 1.271 . S
C556 C554 1.491 . S
C556 C558 1.383 . S
C556 C560 1.388 . S
C557 C559 1.403 . S
C557 C561 1.385 . S
C557 H567 0.931 . S
C558 C556 1.383 . S
C558 C559 1.393 . S
C558 H568 0.930 . S
C559 C557 1.403 . S
C559 C558 1.393 . S
C560 C556 1.388 . S
C560 C561 1.394 . S
C560 H569 0.930 . S
C561 C557 1.385 . S
C561 C560 1.394 . S
C562 O542 1.251 . S
C562 O545 1.238 1_655 S
O563 Eu532 2.461 . S
O563 C554 1.261 . S
H564 C536 0.931 . S
H565 C537 0.930 . S
H566 C539 0.930 . S
H567 C557 0.931 . S
H568 C558 0.930 . S
H569 C560 0.930 . S
Eu570 O572 2.323 . S
Eu570 O580 2.328 . S
Eu570 O591 2.316 . S
Eu570 C592 2.837 . S
Eu570 O593 2.488 . S
Eu570 O601 2.461 . S
C571 O582 1.251 . S
C571 O591 1.237 . S
O572 Eu570 2.323 . S
O572 C588 1.279 . S
C573 C575 1.383 . S
C573 C577 1.388 . S
C573 C587 1.491 . S
C574 C576 1.403 . S
C574 C578 1.385 . S
C574 H602 0.931 . S
C575 C573 1.383 . S
C575 C576 1.393 . S
C575 H603 0.930 . S
C576 C574 1.403 . S
C576 C575 1.393 . S
C577 C573 1.388 . S
C577 C578 1.394 . S
C577 H604 0.930 . S
C578 C574 1.385 . S
C578 C577 1.394 . S
Eu579 O581 2.323 . S
Eu579 O582 2.328 . S
Eu579 O583 2.316 . S
Eu579 O586 2.488 . S
Eu579 C587 2.837 . S
Eu579 O590 2.461 . S
O580 Eu570 2.328 . S
O580 C600 1.251 . S
O581 Eu579 2.323 . S
O581 C584 1.279 . S
O582 C571 1.251 . S
O582 Eu579 2.328 . S
O583 Eu579 2.316 . S
O583 C600 1.237 . S
C584 O581 1.279 . S
C584 O585 1.244 . S
O585 C584 1.244 . S
O586 Eu579 2.488 . S
O586 C587 1.271 . S
C587 C573 1.491 . S
C587 Eu579 2.837 . S
C587 O586 1.271 . S
C587 O590 1.261 . S
C588 O572 1.279 . S
C588 O589 1.244 . S
O589 C588 1.244 . S
O590 Eu579 2.461 . S
O590 C587 1.261 . S
O591 Eu570 2.316 . S
O591 C571 1.237 . S
C592 Eu570 2.837 . S
C592 O593 1.271 . S
C592 C594 1.491 . S
C592 O601 1.261 . S
O593 Eu570 2.488 . S
O593 C592 1.271 . S
C594 C592 1.491 . S
C594 C596 1.383 . S
C594 C598 1.388 . S
C595 C597 1.403 . S
C595 C599 1.385 . S
C595 H605 0.931 . S
C596 C594 1.383 . S
C596 C597 1.393 . S
C596 H606 0.930 . S
C597 C595 1.403 . S
C597 C596 1.393 . S
C598 C594 1.388 . S
C598 C599 1.394 . S
C598 H607 0.930 . S
C599 C595 1.385 . S
C599 C598 1.394 . S
C600 O580 1.251 . S
C600 O583 1.237 . S
O601 Eu570 2.461 . S
O601 C592 1.261 . S
H602 C574 0.931 . S
H603 C575 0.930 . S
H604 C577 0.930 . S
H605 C595 0.931 . S
H606 C596 0.930 . S
H607 C598 0.930 . S
Eu608 O610 2.323 . S
Eu608 O618 2.328 . S
Eu608 O629 2.316 . S
Eu608 C630 2.837 . S
Eu608 O631 2.488 . S
Eu608 O639 2.461 . S
C609 O620 1.251 . S
C609 O629 1.237 . S
O610 Eu608 2.323 . S
O610 C626 1.279 . S
C611 C613 1.383 . S
C611 C615 1.388 . S
C611 C625 1.491 . S
C612 C614 1.403 . S
C612 C616 1.385 . S
C612 H640 0.931 . S
C613 C611 1.383 . S
C613 C614 1.393 . S
C613 H641 0.930 . S
C614 C612 1.403 . S
C614 C613 1.393 . S
C615 C611 1.388 . S
C615 C616 1.394 . S
C615 H642 0.930 . S
C616 C612 1.385 . S
C616 C615 1.394 . S
Eu617 O619 2.323 . S
Eu617 O620 2.328 . S
Eu617 O621 2.316 . S
Eu617 O624 2.488 . S
Eu617 C625 2.837 . S
Eu617 O628 2.461 . S
O618 Eu608 2.328 . S
O618 C638 1.251 . S
O619 Eu617 2.323 . S
O619 C622 1.279 . S
O620 C609 1.251 . S
O620 Eu617 2.328 . S
O621 Eu617 2.316 . S
O621 C638 1.237 . S
C622 O619 1.279 . S
C622 O623 1.244 . S
O623 C622 1.244 . S
O624 Eu617 2.488 . S
O624 C625 1.271 . S
C625 C611 1.491 . S
C625 Eu617 2.837 . S
C625 O624 1.271 . S
C625 O628 1.261 . S
C626 O610 1.279 . S
C626 O627 1.244 . S
O627 C626 1.244 . S
O628 Eu617 2.461 . S
O628 C625 1.261 . S
O629 Eu608 2.316 . S
O629 C609 1.237 . S
C630 Eu608 2.837 . S
C630 O631 1.271 . S
C630 C632 1.491 . S
C630 O639 1.261 . S
O631 Eu608 2.488 . S
O631 C630 1.271 . S
C632 C630 1.491 . S
C632 C634 1.383 . S
C632 C636 1.388 . S
C633 C635 1.403 . S
C633 C637 1.385 . S
C633 H643 0.931 . S
C634 C632 1.383 . S
C634 C635 1.393 . S
C634 H644 0.930 . S
C635 C633 1.403 . S
C635 C634 1.393 . S
C636 C632 1.388 . S
C636 C637 1.394 . S
C636 H645 0.930 . S
C637 C633 1.385 . S
C637 C636 1.394 . S
C638 O618 1.251 . S
C638 O621 1.237 . S
O639 Eu608 2.461 . S
O639 C630 1.261 . S
H640 C612 0.931 . S
H641 C613 0.930 . S
H642 C615 0.930 . S
H643 C633 0.931 . S
H644 C634 0.930 . S
H645 C636 0.930 . S
Eu646 O648 2.323 1_565 S
Eu646 O656 2.328 . S
Eu646 O667 2.316 . S
Eu646 C668 2.837 . S
Eu646 O669 2.488 . S
Eu646 O677 2.461 1_565 S
C647 O658 1.251 . S
C647 O667 1.237 . S
O648 Eu646 2.323 1_545 S
O648 C664 1.279 . S
C649 C651 1.383 . S
C649 C653 1.388 . S
C649 C663 1.491 . S
C650 C652 1.403 . S
C650 C654 1.385 . S
C650 H678 0.931 . S
C651 C649 1.383 . S
C651 C652 1.393 . S
C651 H679 0.930 . S
C652 C650 1.403 . S
C652 C651 1.393 . S
C653 C649 1.388 . S
C653 C654 1.394 . S
C653 H680 0.930 . S
C654 C650 1.385 . S
C654 C653 1.394 . S
Eu655 O657 2.323 . S
Eu655 O658 2.328 . S
Eu655 O659 2.316 . S
Eu655 O662 2.488 . S
Eu655 C663 2.837 . S
Eu655 O666 2.461 . S
O656 Eu646 2.328 . S
O656 C676 1.251 . S
O657 Eu655 2.323 . S
O657 C660 1.279 . S
O658 C647 1.251 . S
O658 Eu655 2.328 . S
O659 Eu655 2.316 . S
O659 C676 1.237 . S
C660 O657 1.279 . S
C660 O661 1.244 . S
O661 C660 1.244 . S
O662 Eu655 2.488 . S
O662 C663 1.271 . S
C663 C649 1.491 . S
C663 Eu655 2.837 . S
C663 O662 1.271 . S
C663 O666 1.261 . S
C664 O648 1.279 . S
C664 O665 1.244 . S
O665 C664 1.244 . S
O666 Eu655 2.461 . S
O666 C663 1.261 . S
O667 Eu646 2.316 . S
O667 C647 1.237 . S
C668 Eu646 2.837 . S
C668 O669 1.271 . S
C668 C670 1.491 . S
C668 O677 1.261 1_565 S
O669 Eu646 2.488 . S
O669 C668 1.271 . S
C670 C668 1.491 . S
C670 C672 1.383 1_565 S
C670 C674 1.388 . S
C671 C673 1.403 1_565 S
C671 C675 1.385 . S
C671 H681 0.931 . S
C672 C670 1.383 1_545 S
C672 C673 1.393 . S
C672 H682 0.930 . S
C673 C671 1.403 1_545 S
C673 C672 1.393 . S
C674 C670 1.388 . S
C674 C675 1.394 . S
C674 H683 0.930 . S
C675 C671 1.385 . S
C675 C674 1.394 . S
C676 O656 1.251 . S
C676 O659 1.237 . S
O677 Eu646 2.461 1_545 S
O677 C668 1.261 1_545 S
H678 C650 0.931 . S
H679 C651 0.930 . S
H680 C653 0.930 . S
H681 C671 0.931 . S
H682 C672 0.930 . S
H683 C674 0.930 . S
Eu684 O686 2.323 1_565 S
Eu684 O694 2.328 . S
Eu684 O705 2.316 . S
Eu684 C706 2.837 . S
Eu684 O707 2.488 . S
Eu684 O715 2.461 1_565 S
C685 O696 1.251 . S
C685 O705 1.237 . S
O686 Eu684 2.323 1_545 S
O686 C702 1.279 . S
C687 C689 1.383 . S
C687 C691 1.388 . S
C687 C701 1.491 . S
C688 C690 1.403 . S
C688 C692 1.385 . S
C688 H716 0.931 . S
C689 C687 1.383 . S
C689 C690 1.393 . S
C689 H717 0.930 . S
C690 C688 1.403 . S
C690 C689 1.393 . S
C691 C687 1.388 . S
C691 C692 1.394 . S
C691 H718 0.930 . S
C692 C688 1.385 . S
C692 C691 1.394 . S
Eu693 O695 2.323 . S
Eu693 O696 2.328 . S
Eu693 O697 2.316 . S
Eu693 O700 2.488 . S
Eu693 C701 2.837 . S
Eu693 O704 2.461 . S
O694 Eu684 2.328 . S
O694 C714 1.251 . S
O695 Eu693 2.323 . S
O695 C698 1.279 . S
O696 C685 1.251 . S
O696 Eu693 2.328 . S
O697 Eu693 2.316 . S
O697 C714 1.237 . S
C698 O695 1.279 . S
C698 O699 1.244 . S
O699 C698 1.244 . S
O700 Eu693 2.488 . S
O700 C701 1.271 . S
C701 C687 1.491 . S
C701 Eu693 2.837 . S
C701 O700 1.271 . S
C701 O704 1.261 . S
C702 O686 1.279 . S
C702 O703 1.244 . S
O703 C702 1.244 . S
O704 Eu693 2.461 . S
O704 C701 1.261 . S
O705 Eu684 2.316 . S
O705 C685 1.237 . S
C706 Eu684 2.837 . S
C706 O707 1.271 . S
C706 C708 1.491 . S
C706 O715 1.261 1_565 S
O707 Eu684 2.488 . S
O707 C706 1.271 . S
C708 C706 1.491 . S
C708 C710 1.383 1_565 S
C708 C712 1.388 . S
C709 C711 1.403 1_565 S
C709 C713 1.385 . S
C709 H719 0.931 . S
C710 C708 1.383 1_545 S
C710 C711 1.393 . S
C710 H720 0.930 . S
C711 C709 1.403 1_545 S
C711 C710 1.393 . S
C712 C708 1.388 . S
C712 C713 1.394 . S
C712 H721 0.930 . S
C713 C709 1.385 . S
C713 C712 1.394 . S
C714 O694 1.251 . S
C714 O697 1.237 . S
O715 Eu684 2.461 1_545 S
O715 C706 1.261 1_545 S
H716 C688 0.931 . S
H717 C689 0.930 . S
H718 C691 0.930 . S
H719 C709 0.931 . S
H720 C710 0.930 . S
H721 C712 0.930 . S
Eu722 O724 2.323 . S
Eu722 O732 2.328 . S
Eu722 O743 2.316 . S
Eu722 C744 2.837 . S
Eu722 O745 2.488 . S
Eu722 O753 2.461 . S
C723 O734 1.251 . S
C723 O743 1.237 . S
O724 Eu722 2.323 . S
O724 C740 1.279 . S
C725 C727 1.383 . S
C725 C729 1.388 . S
C725 C739 1.491 . S
C726 C728 1.403 . S
C726 C730 1.385 . S
C726 H754 0.931 . S
C727 C725 1.383 . S
C727 C728 1.393 . S
C727 H755 0.930 . S
C728 C726 1.403 . S
C728 C727 1.393 . S
C729 C725 1.388 . S
C729 C730 1.394 . S
C729 H756 0.930 . S
C730 C726 1.385 . S
C730 C729 1.394 . S
Eu731 O733 2.323 . S
Eu731 O734 2.328 . S
Eu731 O735 2.316 . S
Eu731 O738 2.488 . S
Eu731 C739 2.837 . S
Eu731 O742 2.461 . S
O732 Eu722 2.328 . S
O732 C752 1.251 . S
O733 Eu731 2.323 . S
O733 C736 1.279 . S
O734 C723 1.251 . S
O734 Eu731 2.328 . S
O735 Eu731 2.316 . S
O735 C752 1.237 . S
C736 O733 1.279 . S
C736 O737 1.244 . S
O737 C736 1.244 . S
O738 Eu731 2.488 . S
O738 C739 1.271 . S
C739 C725 1.491 . S
C739 Eu731 2.837 . S
C739 O738 1.271 . S
C739 O742 1.261 . S
C740 O724 1.279 . S
C740 O741 1.244 . S
O741 C740 1.244 . S
O742 Eu731 2.461 . S
O742 C739 1.261 . S
O743 Eu722 2.316 . S
O743 C723 1.237 . S
C744 Eu722 2.837 . S
C744 O745 1.271 . S
C744 C746 1.491 . S
C744 O753 1.261 . S
O745 Eu722 2.488 . S
O745 C744 1.271 . S
C746 C744 1.491 . S
C746 C748 1.383 . S
C746 C750 1.388 . S
C747 C749 1.403 . S
C747 C751 1.385 . S
C747 H757 0.931 . S
C748 C746 1.383 . S
C748 C749 1.393 . S
C748 H758 0.930 . S
C749 C747 1.403 . S
C749 C748 1.393 . S
C750 C746 1.388 . S
C750 C751 1.394 . S
C750 H759 0.930 . S
C751 C747 1.385 . S
C751 C750 1.394 . S
C752 O732 1.251 . S
C752 O735 1.237 . S
O753 Eu722 2.461 . S
O753 C744 1.261 . S
H754 C726 0.931 . S
H755 C727 0.930 . S
H756 C729 0.930 . S
H757 C747 0.931 . S
H758 C748 0.930 . S
H759 C750 0.930 . S
Eu760 O762 2.323 . S
Eu760 O770 2.328 . S
Eu760 O781 2.316 . S
Eu760 C782 2.837 . S
Eu760 O783 2.488 . S
Eu760 O791 2.461 . S
C761 O772 1.251 . S
C761 O781 1.237 . S
O762 Eu760 2.323 . S
O762 C778 1.279 . S
C763 C765 1.383 . S
C763 C767 1.388 . S
C763 C777 1.491 . S
C764 C766 1.403 . S
C764 C768 1.385 . S
C764 H792 0.931 . S
C765 C763 1.383 . S
C765 C766 1.393 . S
C765 H793 0.930 . S
C766 C764 1.403 . S
C766 C765 1.393 . S
C767 C763 1.388 . S
C767 C768 1.394 . S
C767 H794 0.930 . S
C768 C764 1.385 . S
C768 C767 1.394 . S
Eu769 O771 2.323 . S
Eu769 O772 2.328 . S
Eu769 O773 2.316 . S
Eu769 O776 2.488 . S
Eu769 C777 2.837 . S
Eu769 O780 2.461 . S
O770 Eu760 2.328 . S
O770 C790 1.251 . S
O771 Eu769 2.323 . S
O771 C774 1.279 . S
O772 C761 1.251 . S
O772 Eu769 2.328 . S
O773 Eu769 2.316 . S
O773 C790 1.237 . S
C774 O771 1.279 . S
C774 O775 1.244 . S
O775 C774 1.244 . S
O776 Eu769 2.488 . S
O776 C777 1.271 . S
C777 C763 1.491 . S
C777 Eu769 2.837 . S
C777 O776 1.271 . S
C777 O780 1.261 . S
C778 O762 1.279 . S
C778 O779 1.244 . S
O779 C778 1.244 . S
O780 Eu769 2.461 . S
O780 C777 1.261 . S
O781 Eu760 2.316 . S
O781 C761 1.237 . S
C782 Eu760 2.837 . S
C782 O783 1.271 . S
C782 C784 1.491 . S
C782 O791 1.261 . S
O783 Eu760 2.488 . S
O783 C782 1.271 . S
C784 C782 1.491 . S
C784 C786 1.383 . S
C784 C788 1.388 . S
C785 C787 1.403 . S
C785 C789 1.385 . S
C785 H795 0.931 . S
C786 C784 1.383 . S
C786 C787 1.393 . S
C786 H796 0.930 . S
C787 C785 1.403 . S
C787 C786 1.393 . S
C788 C784 1.388 . S
C788 C789 1.394 . S
C788 H797 0.930 . S
C789 C785 1.385 . S
C789 C788 1.394 . S
C790 O770 1.251 . S
C790 O773 1.237 . S
O791 Eu760 2.461 . S
O791 C782 1.261 . S
H792 C764 0.931 . S
H793 C765 0.930 . S
H794 C767 0.930 . S
H795 C785 0.931 . S
H796 C786 0.930 . S
H797 C788 0.930 . S
Eu798 O800 2.323 . S
Eu798 O808 2.328 . S
Eu798 O819 2.316 . S
Eu798 C820 2.837 . S
Eu798 O821 2.488 . S
Eu798 O829 2.461 . S
C799 O810 1.251 . S
C799 O819 1.237 . S
O800 Eu798 2.323 . S
O800 C816 1.279 . S
C801 C803 1.383 1_545 S
C801 C805 1.388 . S
C801 C815 1.491 . S
C802 C804 1.403 1_545 S
C802 C806 1.385 . S
C802 H830 0.931 . S
C803 C801 1.383 1_565 S
C803 C804 1.393 . S
C803 H831 0.930 . S
C804 C802 1.403 1_565 S
C804 C803 1.393 . S
C805 C801 1.388 . S
C805 C806 1.394 . S
C805 H832 0.930 . S
C806 C802 1.385 . S
C806 C805 1.394 . S
Eu807 O809 2.323 1_545 S
Eu807 O810 2.328 . S
Eu807 O811 2.316 . S
Eu807 O814 2.488 . S
Eu807 C815 2.837 . S
Eu807 O818 2.461 1_545 S
O808 Eu798 2.328 . S
O808 C828 1.251 . S
O809 Eu807 2.323 1_565 S
O809 C812 1.279 . S
O810 C799 1.251 . S
O810 Eu807 2.328 . S
O811 Eu807 2.316 . S
O811 C828 1.237 . S
C812 O809 1.279 . S
C812 O813 1.244 . S
O813 C812 1.244 . S
O814 Eu807 2.488 . S
O814 C815 1.271 . S
C815 C801 1.491 . S
C815 Eu807 2.837 . S
C815 O814 1.271 . S
C815 O818 1.261 1_545 S
C816 O800 1.279 . S
C816 O817 1.244 . S
O817 C816 1.244 . S
O818 Eu807 2.461 1_565 S
O818 C815 1.261 1_565 S
O819 Eu798 2.316 . S
O819 C799 1.237 . S
C820 Eu798 2.837 . S
C820 O821 1.271 . S
C820 C822 1.491 . S
C820 O829 1.261 . S
O821 Eu798 2.488 . S
O821 C820 1.271 . S
C822 C820 1.491 . S
C822 C824 1.383 . S
C822 C826 1.388 . S
C823 C825 1.403 . S
C823 C827 1.385 . S
C823 H833 0.931 . S
C824 C822 1.383 . S
C824 C825 1.393 . S
C824 H834 0.930 . S
C825 C823 1.403 . S
C825 C824 1.393 . S
C826 C822 1.388 . S
C826 C827 1.394 . S
C826 H835 0.930 . S
C827 C823 1.385 . S
C827 C826 1.394 . S
C828 O808 1.251 . S
C828 O811 1.237 . S
O829 Eu798 2.461 . S
O829 C820 1.261 . S
H830 C802 0.931 . S
H831 C803 0.930 . S
H832 C805 0.930 . S
H833 C823 0.931 . S
H834 C824 0.930 . S
H835 C826 0.930 . S
Eu836 O838 2.323 . S
Eu836 O846 2.328 . S
Eu836 O857 2.316 . S
Eu836 C858 2.837 . S
Eu836 O859 2.488 . S
Eu836 O867 2.461 . S
C837 O848 1.251 . S
C837 O857 1.237 . S
O838 Eu836 2.323 . S
O838 C854 1.279 . S
C839 C841 1.383 1_545 S
C839 C843 1.388 . S
C839 C853 1.491 . S
C840 C842 1.403 1_545 S
C840 C844 1.385 . S
C840 H868 0.931 . S
C841 C839 1.383 1_565 S
C841 C842 1.393 . S
C841 H869 0.930 . S
C842 C840 1.403 1_565 S
C842 C841 1.393 . S
C843 C839 1.388 . S
C843 C844 1.394 . S
C843 H870 0.930 . S
C844 C840 1.385 . S
C844 C843 1.394 . S
Eu845 O847 2.323 1_545 S
Eu845 O848 2.328 . S
Eu845 O849 2.316 . S
Eu845 O852 2.488 . S
Eu845 C853 2.837 . S
Eu845 O856 2.461 1_545 S
O846 Eu836 2.328 . S
O846 C866 1.251 . S
O847 Eu845 2.323 1_565 S
O847 C850 1.279 . S
O848 C837 1.251 . S
O848 Eu845 2.328 . S
O849 Eu845 2.316 . S
O849 C866 1.237 . S
C850 O847 1.279 . S
C850 O851 1.244 . S
O851 C850 1.244 . S
O852 Eu845 2.488 . S
O852 C853 1.271 . S
C853 C839 1.491 . S
C853 Eu845 2.837 . S
C853 O852 1.271 . S
C853 O856 1.261 1_545 S
C854 O838 1.279 . S
C854 O855 1.244 . S
O855 C854 1.244 . S
O856 Eu845 2.461 1_565 S
O856 C853 1.261 1_565 S
O857 Eu836 2.316 . S
O857 C837 1.237 . S
C858 Eu836 2.837 . S
C858 O859 1.271 . S
C858 C860 1.491 . S
C858 O867 1.261 . S
O859 Eu836 2.488 . S
O859 C858 1.271 . S
C860 C858 1.491 . S
C860 C862 1.383 . S
C860 C864 1.388 . S
C861 C863 1.403 . S
C861 C865 1.385 . S
C861 H871 0.931 . S
C862 C860 1.383 . S
C862 C863 1.393 . S
C862 H872 0.930 . S
C863 C861 1.403 . S
C863 C862 1.393 . S
C864 C860 1.388 . S
C864 C865 1.394 . S
C864 H873 0.930 . S
C865 C861 1.385 . S
C865 C864 1.394 . S
C866 O846 1.251 . S
C866 O849 1.237 . S
O867 Eu836 2.461 . S
O867 C858 1.261 . S
H868 C840 0.931 . S
H869 C841 0.930 . S
H870 C843 0.930 . S
H871 C861 0.931 . S
H872 C862 0.930 . S
H873 C864 0.930 . S
Eu874 O876 2.323 . S
Eu874 O884 2.328 . S
Eu874 O895 2.316 . S
Eu874 C896 2.837 . S
Eu874 O897 2.488 . S
Eu874 O905 2.461 . S
C875 O886 1.251 . S
C875 O895 1.237 . S
O876 Eu874 2.323 . S
O876 C892 1.279 . S
C877 C879 1.383 . S
C877 C881 1.388 . S
C877 C891 1.491 . S
C878 C880 1.403 . S
C878 C882 1.385 . S
C878 H906 0.931 . S
C879 C877 1.383 . S
C879 C880 1.393 . S
C879 H907 0.930 . S
C880 C878 1.403 . S
C880 C879 1.393 . S
C881 C877 1.388 . S
C881 C882 1.394 . S
C881 H908 0.930 . S
C882 C878 1.385 . S
C882 C881 1.394 . S
Eu883 O885 2.323 . S
Eu883 O886 2.328 . S
Eu883 O887 2.316 . S
Eu883 O890 2.488 . S
Eu883 C891 2.837 . S
Eu883 O894 2.461 . S
O884 Eu874 2.328 . S
O884 C904 1.251 . S
O885 Eu883 2.323 . S
O885 C888 1.279 . S
O886 C875 1.251 . S
O886 Eu883 2.328 . S
O887 Eu883 2.316 . S
O887 C904 1.237 . S
C888 O885 1.279 . S
C888 O889 1.244 . S
O889 C888 1.244 . S
O890 Eu883 2.488 . S
O890 C891 1.271 . S
C891 C877 1.491 . S
C891 Eu883 2.837 . S
C891 O890 1.271 . S
C891 O894 1.261 . S
C892 O876 1.279 . S
C892 O893 1.244 . S
O893 C892 1.244 . S
O894 Eu883 2.461 . S
O894 C891 1.261 . S
O895 Eu874 2.316 . S
O895 C875 1.237 . S
C896 Eu874 2.837 . S
C896 O897 1.271 . S
C896 C898 1.491 . S
C896 O905 1.261 . S
O897 Eu874 2.488 . S
O897 C896 1.271 . S
C898 C896 1.491 . S
C898 C900 1.383 . S
C898 C902 1.388 . S
C899 C901 1.403 . S
C899 C903 1.385 . S
C899 H909 0.931 . S
C900 C898 1.383 . S
C900 C901 1.393 . S
C900 H910 0.930 . S
C901 C899 1.403 . S
C901 C900 1.393 . S
C902 C898 1.388 . S
C902 C903 1.394 . S
C902 H911 0.930 . S
C903 C899 1.385 . S
C903 C902 1.394 . S
C904 O884 1.251 . S
C904 O887 1.237 . S
O905 Eu874 2.461 . S
O905 C896 1.261 . S
H906 C878 0.931 . S
H907 C879 0.930 . S
H908 C881 0.930 . S
H909 C899 0.931 . S
H910 C900 0.930 . S
H911 C902 0.930 . S
Eu912 O914 2.323 . S
Eu912 O922 2.328 . S
Eu912 O933 2.316 . S
Eu912 C934 2.837 . S
Eu912 O935 2.488 . S
Eu912 O943 2.461 . S
C913 O924 1.251 . S
C913 O933 1.237 1_556 S
O914 Eu912 2.323 . S
O914 C930 1.279 . S
C915 C917 1.383 . S
C915 C919 1.388 . S
C915 C929 1.491 . S
C916 C918 1.403 . S
C916 C920 1.385 . S
C916 H944 0.931 . S
C917 C915 1.383 . S
C917 C918 1.393 . S
C917 H945 0.930 . S
C918 C916 1.403 . S
C918 C917 1.393 . S
C919 C915 1.388 . S
C919 C920 1.394 . S
C919 H946 0.930 . S
C920 C916 1.385 . S
C920 C919 1.394 . S
Eu921 O923 2.323 . S
Eu921 O924 2.328 . S
Eu921 O925 2.316 1_556 S
Eu921 O928 2.488 1_556 S
Eu921 C929 2.837 1_556 S
Eu921 O932 2.461 . S
O922 Eu912 2.328 . S
O922 C942 1.251 . S
O923 Eu921 2.323 . S
O923 C926 1.279 . S
O924 C913 1.251 . S
O924 Eu921 2.328 . S
O925 Eu921 2.316 1_554 S
O925 C942 1.237 . S
C926 O923 1.279 . S
C926 O927 1.244 . S
O927 C926 1.244 . S
O928 Eu921 2.488 1_554 S
O928 C929 1.271 . S
C929 C915 1.491 . S
C929 Eu921 2.837 1_554 S
C929 O928 1.271 . S
C929 O932 1.261 1_554 S
C930 O914 1.279 . S
C930 O931 1.244 . S
O931 C930 1.244 . S
O932 Eu921 2.461 . S
O932 C929 1.261 1_556 S
O933 Eu912 2.316 . S
O933 C913 1.237 1_554 S
C934 Eu912 2.837 . S
C934 O935 1.271 . S
C934 C936 1.491 . S
C934 O943 1.261 . S
O935 Eu912 2.488 . S
O935 C934 1.271 . S
C936 C934 1.491 . S
C936 C938 1.383 . S
C936 C940 1.388 . S
C937 C939 1.403 1_556 S
C937 C941 1.385 . S
C937 H947 0.931 . S
C938 C936 1.383 . S
C938 C939 1.393 . S
C938 H948 0.930 . S
C939 C937 1.403 1_554 S
C939 C938 1.393 . S
C940 C936 1.388 . S
C940 C941 1.394 1_554 S
C940 H949 0.930 . S
C941 C937 1.385 . S
C941 C940 1.394 1_556 S
C942 O922 1.251 . S
C942 O925 1.237 . S
O943 Eu912 2.461 . S
O943 C934 1.261 . S
H944 C916 0.931 . S
H945 C917 0.930 . S
H946 C919 0.930 . S
H947 C937 0.931 . S
H948 C938 0.930 . S
H949 C940 0.930 . S
Eu950 O952 2.323 . S
Eu950 O960 2.328 . S
Eu950 O971 2.316 . S
Eu950 C972 2.837 . S
Eu950 O973 2.488 . S
Eu950 O981 2.461 . S
C951 O962 1.251 . S
C951 O971 1.237 1_556 S
O952 Eu950 2.323 . S
O952 C968 1.279 . S
C953 C955 1.383 . S
C953 C957 1.388 . S
C953 C967 1.491 . S
C954 C956 1.403 . S
C954 C958 1.385 . S
C954 H982 0.931 . S
C955 C953 1.383 . S
C955 C956 1.393 . S
C955 H983 0.930 . S
C956 C954 1.403 . S
C956 C955 1.393 . S
C957 C953 1.388 . S
C957 C958 1.394 . S
C957 H984 0.930 . S
C958 C954 1.385 . S
C958 C957 1.394 . S
Eu959 O961 2.323 . S
Eu959 O962 2.328 . S
Eu959 O963 2.316 1_556 S
Eu959 O966 2.488 1_556 S
Eu959 C967 2.837 1_556 S
Eu959 O970 2.461 . S
O960 Eu950 2.328 . S
O960 C980 1.251 . S
O961 Eu959 2.323 . S
O961 C964 1.279 . S
O962 C951 1.251 . S
O962 Eu959 2.328 . S
O963 Eu959 2.316 1_554 S
O963 C980 1.237 . S
C964 O961 1.279 . S
C964 O965 1.244 . S
O965 C964 1.244 . S
O966 Eu959 2.488 1_554 S
O966 C967 1.271 . S
C967 C953 1.491 . S
C967 Eu959 2.837 1_554 S
C967 O966 1.271 . S
C967 O970 1.261 1_554 S
C968 O952 1.279 . S
C968 O969 1.244 . S
O969 C968 1.244 . S
O970 Eu959 2.461 . S
O970 C967 1.261 1_556 S
O971 Eu950 2.316 . S
O971 C951 1.237 1_554 S
C972 Eu950 2.837 . S
C972 O973 1.271 . S
C972 C974 1.491 . S
C972 O981 1.261 . S
O973 Eu950 2.488 . S
O973 C972 1.271 . S
C974 C972 1.491 . S
C974 C976 1.383 . S
C974 C978 1.388 . S
C975 C977 1.403 1_556 S
C975 C979 1.385 . S
C975 H985 0.931 . S
C976 C974 1.383 . S
C976 C977 1.393 . S
C976 H986 0.930 . S
C977 C975 1.403 1_554 S
C977 C976 1.393 . S
C978 C974 1.388 . S
C978 C979 1.394 1_554 S
C978 H987 0.930 . S
C979 C975 1.385 . S
C979 C978 1.394 1_556 S
C980 O960 1.251 . S
C980 O963 1.237 . S
O981 Eu950 2.461 . S
O981 C972 1.261 . S
H982 C954 0.931 . S
H983 C955 0.930 . S
H984 C957 0.930 . S
H985 C975 0.931 . S
H986 C976 0.930 . S
H987 C978 0.930 . S
Eu988 O990 2.323 . S
Eu988 O998 2.328 . S
Eu988 O1009 2.316 . S
Eu988 C1010 2.837 . S
Eu988 O1011 2.488 . S
Eu988 O1019 2.461 . S
C989 O1000 1.251 . S
C989 O1009 1.237 . S
O990 Eu988 2.323 . S
O990 C1006 1.279 . S
C991 C993 1.383 . S
C991 C995 1.388 . S
C991 C1005 1.491 . S
C992 C994 1.403 . S
C992 C996 1.385 . S
C992 H1020 0.931 . S
C993 C991 1.383 . S
C993 C994 1.393 . S
C993 H1021 0.930 . S
C994 C992 1.403 . S
C994 C993 1.393 . S
C995 C991 1.388 . S
C995 C996 1.394 . S
C995 H1022 0.930 . S
C996 C992 1.385 . S
C996 C995 1.394 . S
Eu997 O999 2.323 . S
Eu997 O1000 2.328 . S
Eu997 O1001 2.316 . S
Eu997 O1004 2.488 . S
Eu997 C1005 2.837 . S
Eu997 O1008 2.461 . S
O998 Eu988 2.328 . S
O998 C1018 1.251 . S
O999 Eu997 2.323 . S
O999 C1002 1.279 . S
O1000 C989 1.251 . S
O1000 Eu997 2.328 . S
O1001 Eu997 2.316 . S
O1001 C1018 1.237 . S
C1002 O999 1.279 . S
C1002 O1003 1.244 . S
O1003 C1002 1.244 . S
O1004 Eu997 2.488 . S
O1004 C1005 1.271 . S
C1005 C991 1.491 . S
C1005 Eu997 2.837 . S
C1005 O1004 1.271 . S
C1005 O1008 1.261 . S
C1006 O990 1.279 . S
C1006 O1007 1.244 . S
O1007 C1006 1.244 . S
O1008 Eu997 2.461 . S
O1008 C1005 1.261 . S
O1009 Eu988 2.316 . S
O1009 C989 1.237 . S
C1010 Eu988 2.837 . S
C1010 O1011 1.271 . S
C1010 C1012 1.491 . S
C1010 O1019 1.261 . S
O1011 Eu988 2.488 . S
O1011 C1010 1.271 . S
C1012 C1010 1.491 . S
C1012 C1014 1.383 . S
C1012 C1016 1.388 . S
C1013 C1015 1.403 . S
C1013 C1017 1.385 . S
C1013 H1023 0.931 . S
C1014 C1012 1.383 . S
C1014 C1015 1.393 . S
C1014 H1024 0.930 . S
C1015 C1013 1.403 . S
C1015 C1014 1.393 . S
C1016 C1012 1.388 . S
C1016 C1017 1.394 . S
C1016 H1025 0.930 . S
C1017 C1013 1.385 . S
C1017 C1016 1.394 . S
C1018 O998 1.251 . S
C1018 O1001 1.237 . S
O1019 Eu988 2.461 . S
O1019 C1010 1.261 . S
H1020 C992 0.931 . S
H1021 C993 0.930 . S
H1022 C995 0.930 . S
H1023 C1013 0.931 . S
H1024 C1014 0.930 . S
H1025 C1016 0.930 . S
Eu1026 O1028 2.323 . S
Eu1026 O1036 2.328 . S
Eu1026 O1047 2.316 . S
Eu1026 C1048 2.837 . S
Eu1026 O1049 2.488 . S
Eu1026 O1057 2.461 . S
C1027 O1038 1.251 . S
C1027 O1047 1.237 . S
O1028 Eu1026 2.323 . S
O1028 C1044 1.279 . S
C1029 C1031 1.383 . S
C1029 C1033 1.388 . S
C1029 C1043 1.491 . S
C1030 C1032 1.403 . S
C1030 C1034 1.385 . S
C1030 H1058 0.931 . S
C1031 C1029 1.383 . S
C1031 C1032 1.393 . S
C1031 H1059 0.930 . S
C1032 C1030 1.403 . S
C1032 C1031 1.393 . S
C1033 C1029 1.388 . S
C1033 C1034 1.394 . S
C1033 H1060 0.930 . S
C1034 C1030 1.385 . S
C1034 C1033 1.394 . S
Eu1035 O1037 2.323 . S
Eu1035 O1038 2.328 . S
Eu1035 O1039 2.316 . S
Eu1035 O1042 2.488 . S
Eu1035 C1043 2.837 . S
Eu1035 O1046 2.461 . S
O1036 Eu1026 2.328 . S
O1036 C1056 1.251 . S
O1037 Eu1035 2.323 . S
O1037 C1040 1.279 . S
O1038 C1027 1.251 . S
O1038 Eu1035 2.328 . S
O1039 Eu1035 2.316 . S
O1039 C1056 1.237 . S
C1040 O1037 1.279 . S
C1040 O1041 1.244 . S
O1041 C1040 1.244 . S
O1042 Eu1035 2.488 . S
O1042 C1043 1.271 . S
C1043 C1029 1.491 . S
C1043 Eu1035 2.837 . S
C1043 O1042 1.271 . S
C1043 O1046 1.261 . S
C1044 O1028 1.279 . S
C1044 O1045 1.244 . S
O1045 C1044 1.244 . S
O1046 Eu1035 2.461 . S
O1046 C1043 1.261 . S
O1047 Eu1026 2.316 . S
O1047 C1027 1.237 . S
C1048 Eu1026 2.837 . S
C1048 O1049 1.271 . S
C1048 C1050 1.491 . S
C1048 O1057 1.261 . S
O1049 Eu1026 2.488 . S
O1049 C1048 1.271 . S
C1050 C1048 1.491 . S
C1050 C1052 1.383 . S
C1050 C1054 1.388 . S
C1051 C1053 1.403 . S
C1051 C1055 1.385 . S
C1051 H1061 0.931 . S
C1052 C1050 1.383 . S
C1052 C1053 1.393 . S
C1052 H1062 0.930 . S
C1053 C1051 1.403 . S
C1053 C1052 1.393 . S
C1054 C1050 1.388 . S
C1054 C1055 1.394 . S
C1054 H1063 0.930 . S
C1055 C1051 1.385 . S
C1055 C1054 1.394 . S
C1056 O1036 1.251 . S
C1056 O1039 1.237 . S
O1057 Eu1026 2.461 . S
O1057 C1048 1.261 . S
H1058 C1030 0.931 . S
H1059 C1031 0.930 . S
H1060 C1033 0.930 . S
H1061 C1051 0.931 . S
H1062 C1052 0.930 . S
H1063 C1054 0.930 . S
Eu1064 O1066 2.323 . S
Eu1064 O1074 2.328 . S
Eu1064 O1085 2.316 1_554 S
Eu1064 C1086 2.837 1_554 S
Eu1064 O1087 2.488 1_554 S
Eu1064 O1095 2.461 . S
C1065 O1076 1.251 . S
C1065 O1085 1.237 . S
O1066 Eu1064 2.323 . S
O1066 C1082 1.279 . S
C1067 C1069 1.383 . S
C1067 C1071 1.388 . S
C1067 C1081 1.491 . S
C1068 C1070 1.403 1_554 S
C1068 C1072 1.385 . S
C1068 H1096 0.931 . S
C1069 C1067 1.383 . S
C1069 C1070 1.393 . S
C1069 H1097 0.930 . S
C1070 C1068 1.403 1_556 S
C1070 C1069 1.393 . S
C1071 C1067 1.388 . S
C1071 C1072 1.394 1_556 S
C1071 H1098 0.930 . S
C1072 C1068 1.385 . S
C1072 C1071 1.394 1_554 S
Eu1073 O1075 2.323 . S
Eu1073 O1076 2.328 . S
Eu1073 O1077 2.316 . S
Eu1073 O1080 2.488 . S
Eu1073 C1081 2.837 . S
Eu1073 O1084 2.461 . S
O1074 Eu1064 2.328 . S
O1074 C1094 1.251 . S
O1075 Eu1073 2.323 . S
O1075 C1078 1.279 . S
O1076 C1065 1.251 . S
O1076 Eu1073 2.328 . S
O1077 Eu1073 2.316 . S
O1077 C1094 1.237 1_556 S
C1078 O1075 1.279 . S
C1078 O1079 1.244 . S
O1079 C1078 1.244 . S
O1080 Eu1073 2.488 . S
O1080 C1081 1.271 . S
C1081 C1067 1.491 . S
C1081 Eu1073 2.837 . S
C1081 O1080 1.271 . S
C1081 O1084 1.261 . S
C1082 O1066 1.279 . S
C1082 O1083 1.244 . S
O1083 C1082 1.244 . S
O1084 Eu1073 2.461 . S
O1084 C1081 1.261 . S
O1085 Eu1064 2.316 1_556 S
O1085 C1065 1.237 . S
C1086 Eu1064 2.837 1_556 S
C1086 O1087 1.271 . S
C1086 C1088 1.491 . S
C1086 O1095 1.261 1_556 S
O1087 Eu1064 2.488 1_556 S
O1087 C1086 1.271 . S
C1088 C1086 1.491 . S
C1088 C1090 1.383 . S
C1088 C1092 1.388 . S
C1089 C1091 1.403 . S
C1089 C1093 1.385 . S
C1089 H1099 0.931 . S
C1090 C1088 1.383 . S
C1090 C1091 1.393 . S
C1090 H1100 0.930 . S
C1091 C1089 1.403 . S
C1091 C1090 1.393 . S
C1092 C1088 1.388 . S
C1092 C1093 1.394 . S
C1092 H1101 0.930 . S
C1093 C1089 1.385 . S
C1093 C1092 1.394 . S
C1094 O1074 1.251 . S
C1094 O1077 1.237 1_554 S
O1095 Eu1064 2.461 . S
O1095 C1086 1.261 1_554 S
H1096 C1068 0.931 . S
H1097 C1069 0.930 . S
H1098 C1071 0.930 . S
H1099 C1089 0.931 . S
H1100 C1090 0.930 . S
H1101 C1092 0.930 . S
Eu1102 O1104 2.323 . S
Eu1102 O1112 2.328 . S
Eu1102 O1123 2.316 1_554 S
Eu1102 C1124 2.837 1_554 S
Eu1102 O1125 2.488 1_554 S
Eu1102 O1133 2.461 . S
C1103 O1114 1.251 . S
C1103 O1123 1.237 . S
O1104 Eu1102 2.323 . S
O1104 C1120 1.279 . S
C1105 C1107 1.383 . S
C1105 C1109 1.388 . S
C1105 C1119 1.491 . S
C1106 C1108 1.403 1_554 S
C1106 C1110 1.385 . S
C1106 H1134 0.931 . S
C1107 C1105 1.383 . S
C1107 C1108 1.393 . S
C1107 H1135 0.930 . S
C1108 C1106 1.403 1_556 S
C1108 C1107 1.393 . S
C1109 C1105 1.388 . S
C1109 C1110 1.394 1_556 S
C1109 H1136 0.930 . S
C1110 C1106 1.385 . S
C1110 C1109 1.394 1_554 S
Eu1111 O1113 2.323 . S
Eu1111 O1114 2.328 . S
Eu1111 O1115 2.316 . S
Eu1111 O1118 2.488 . S
Eu1111 C1119 2.837 . S
Eu1111 O1122 2.461 . S
O1112 Eu1102 2.328 . S
O1112 C1132 1.251 . S
O1113 Eu1111 2.323 . S
O1113 C1116 1.279 . S
O1114 C1103 1.251 . S
O1114 Eu1111 2.328 . S
O1115 Eu1111 2.316 . S
O1115 C1132 1.237 1_556 S
C1116 O1113 1.279 . S
C1116 O1117 1.244 . S
O1117 C1116 1.244 . S
O1118 Eu1111 2.488 . S
O1118 C1119 1.271 . S
C1119 C1105 1.491 . S
C1119 Eu1111 2.837 . S
C1119 O1118 1.271 . S
C1119 O1122 1.261 . S
C1120 O1104 1.279 . S
C1120 O1121 1.244 . S
O1121 C1120 1.244 . S
O1122 Eu1111 2.461 . S
O1122 C1119 1.261 . S
O1123 Eu1102 2.316 1_556 S
O1123 C1103 1.237 . S
C1124 Eu1102 2.837 1_556 S
C1124 O1125 1.271 . S
C1124 C1126 1.491 . S
C1124 O1133 1.261 1_556 S
O1125 Eu1102 2.488 1_556 S
O1125 C1124 1.271 . S
C1126 C1124 1.491 . S
C1126 C1128 1.383 . S
C1126 C1130 1.388 . S
C1127 C1129 1.403 . S
C1127 C1131 1.385 . S
C1127 H1137 0.931 . S
C1128 C1126 1.383 . S
C1128 C1129 1.393 . S
C1128 H1138 0.930 . S
C1129 C1127 1.403 . S
C1129 C1128 1.393 . S
C1130 C1126 1.388 . S
C1130 C1131 1.394 . S
C1130 H1139 0.930 . S
C1131 C1127 1.385 . S
C1131 C1130 1.394 . S
C1132 O1112 1.251 . S
C1132 O1115 1.237 1_554 S
O1133 Eu1102 2.461 . S
O1133 C1124 1.261 1_554 S
H1134 C1106 0.931 . S
H1135 C1107 0.930 . S
H1136 C1109 0.930 . S
H1137 C1127 0.931 . S
H1138 C1128 0.930 . S
H1139 C1130 0.930 . S
Eu1140 O1142 2.323 . S
Eu1140 O1150 2.328 . S
Eu1140 O1161 2.316 . S
Eu1140 C1162 2.837 . S
Eu1140 O1163 2.488 . S
Eu1140 O1171 2.461 . S
C1141 O1152 1.251 . S
C1141 O1161 1.237 . S
O1142 Eu1140 2.323 . S
O1142 C1158 1.279 . S
C1143 C1145 1.383 . S
C1143 C1147 1.388 . S
C1143 C1157 1.491 . S
C1144 C1146 1.403 . S
C1144 C1148 1.385 . S
C1144 H1172 0.931 . S
C1145 C1143 1.383 . S
C1145 C1146 1.393 . S
C1145 H1173 0.930 . S
C1146 C1144 1.403 . S
C1146 C1145 1.393 . S
C1147 C1143 1.388 . S
C1147 C1148 1.394 . S
C1147 H1174 0.930 . S
C1148 C1144 1.385 . S
C1148 C1147 1.394 . S
Eu1149 O1151 2.323 . S
Eu1149 O1152 2.328 . S
Eu1149 O1153 2.316 . S
Eu1149 O1156 2.488 . S
Eu1149 C1157 2.837 . S
Eu1149 O1160 2.461 . S
O1150 Eu1140 2.328 . S
O1150 C1170 1.251 . S
O1151 Eu1149 2.323 . S
O1151 C1154 1.279 . S
O1152 C1141 1.251 . S
O1152 Eu1149 2.328 . S
O1153 Eu1149 2.316 . S
O1153 C1170 1.237 . S
C1154 O1151 1.279 . S
C1154 O1155 1.244 . S
O1155 C1154 1.244 . S
O1156 Eu1149 2.488 . S
O1156 C1157 1.271 . S
C1157 C1143 1.491 . S
C1157 Eu1149 2.837 . S
C1157 O1156 1.271 . S
C1157 O1160 1.261 . S
C1158 O1142 1.279 . S
C1158 O1159 1.244 . S
O1159 C1158 1.244 . S
O1160 Eu1149 2.461 . S
O1160 C1157 1.261 . S
O1161 Eu1140 2.316 . S
O1161 C1141 1.237 . S
C1162 Eu1140 2.837 . S
C1162 O1163 1.271 . S
C1162 C1164 1.491 . S
C1162 O1171 1.261 . S
O1163 Eu1140 2.488 . S
O1163 C1162 1.271 . S
C1164 C1162 1.491 . S
C1164 C1166 1.383 . S
C1164 C1168 1.388 . S
C1165 C1167 1.403 . S
C1165 C1169 1.385 . S
C1165 H1175 0.931 . S
C1166 C1164 1.383 . S
C1166 C1167 1.393 . S
C1166 H1176 0.930 . S
C1167 C1165 1.403 . S
C1167 C1166 1.393 . S
C1168 C1164 1.388 . S
C1168 C1169 1.394 . S
C1168 H1177 0.930 . S
C1169 C1165 1.385 . S
C1169 C1168 1.394 . S
C1170 O1150 1.251 . S
C1170 O1153 1.237 . S
O1171 Eu1140 2.461 . S
O1171 C1162 1.261 . S
H1172 C1144 0.931 . S
H1173 C1145 0.930 . S
H1174 C1147 0.930 . S
H1175 C1165 0.931 . S
H1176 C1166 0.930 . S
H1177 C1168 0.930 . S
Eu1178 O1180 2.323 . S
Eu1178 O1188 2.328 . S
Eu1178 O1199 2.316 . S
Eu1178 C1200 2.837 . S
Eu1178 O1201 2.488 . S
Eu1178 O1209 2.461 . S
C1179 O1190 1.251 . S
C1179 O1199 1.237 . S
O1180 Eu1178 2.323 . S
O1180 C1196 1.279 . S
C1181 C1183 1.383 . S
C1181 C1185 1.388 . S
C1181 C1195 1.491 . S
C1182 C1184 1.403 . S
C1182 C1186 1.385 . S
C1182 H1210 0.931 . S
C1183 C1181 1.383 . S
C1183 C1184 1.393 . S
C1183 H1211 0.930 . S
C1184 C1182 1.403 . S
C1184 C1183 1.393 . S
C1185 C1181 1.388 . S
C1185 C1186 1.394 . S
C1185 H1212 0.930 . S
C1186 C1182 1.385 . S
C1186 C1185 1.394 . S
Eu1187 O1189 2.323 . S
Eu1187 O1190 2.328 . S
Eu1187 O1191 2.316 . S
Eu1187 O1194 2.488 . S
Eu1187 C1195 2.837 . S
Eu1187 O1198 2.461 . S
O1188 Eu1178 2.328 . S
O1188 C1208 1.251 . S
O1189 Eu1187 2.323 . S
O1189 C1192 1.279 . S
O1190 C1179 1.251 . S
O1190 Eu1187 2.328 . S
O1191 Eu1187 2.316 . S
O1191 C1208 1.237 . S
C1192 O1189 1.279 . S
C1192 O1193 1.244 . S
O1193 C1192 1.244 . S
O1194 Eu1187 2.488 . S
O1194 C1195 1.271 . S
C1195 C1181 1.491 . S
C1195 Eu1187 2.837 . S
C1195 O1194 1.271 . S
C1195 O1198 1.261 . S
C1196 O1180 1.279 . S
C1196 O1197 1.244 . S
O1197 C1196 1.244 . S
O1198 Eu1187 2.461 . S
O1198 C1195 1.261 . S
O1199 Eu1178 2.316 . S
O1199 C1179 1.237 . S
C1200 Eu1178 2.837 . S
C1200 O1201 1.271 . S
C1200 C1202 1.491 . S
C1200 O1209 1.261 . S
O1201 Eu1178 2.488 . S
O1201 C1200 1.271 . S
C1202 C1200 1.491 . S
C1202 C1204 1.383 . S
C1202 C1206 1.388 . S
C1203 C1205 1.403 . S
C1203 C1207 1.385 . S
C1203 H1213 0.931 . S
C1204 C1202 1.383 . S
C1204 C1205 1.393 . S
C1204 H1214 0.930 . S
C1205 C1203 1.403 . S
C1205 C1204 1.393 . S
C1206 C1202 1.388 . S
C1206 C1207 1.394 . S
C1206 H1215 0.930 . S
C1207 C1203 1.385 . S
C1207 C1206 1.394 . S
C1208 O1188 1.251 . S
C1208 O1191 1.237 . S
O1209 Eu1178 2.461 . S
O1209 C1200 1.261 . S
H1210 C1182 0.931 . S
H1211 C1183 0.930 . S
H1212 C1185 0.930 . S
H1213 C1203 0.931 . S
H1214 C1204 0.930 . S
H1215 C1206 0.930 . S
C1216 C1217 1.387 . S
C1216 H1220 0.950 . S
C1216 C1225 1.390 . S
C1217 C1216 1.387 . S
C1217 C1219 1.387 1_556 S
H1218 C1225 0.950 . S
C1219 C1217 1.387 1_554 S
C1219 C1221 1.390 . S
C1219 H1223 0.950 . S
H1220 C1216 0.950 . S
C1221 C1219 1.390 . S
C1221 C1222 1.387 1_554 S
C1221 H1224 0.950 . S
C1222 C1221 1.387 1_556 S
C1222 C1225 1.387 . S
H1223 C1219 0.950 . S
H1224 C1221 0.950 . S
C1225 C1216 1.390 . S
C1225 H1218 0.950 . S
C1225 C1222 1.387 . S
C1226 C1227 1.387 . S
C1226 H1230 0.950 . S
C1226 C1235 1.390 . S
C1227 C1226 1.387 . S
C1227 C1229 1.387 1_556 S
H1228 C1235 0.950 . S
C1229 C1227 1.387 1_554 S
C1229 C1231 1.390 . S
C1229 H1233 0.950 . S
H1230 C1226 0.950 . S
C1231 C1229 1.390 . S
C1231 C1232 1.387 1_554 S
C1231 H1234 0.950 . S
C1232 C1231 1.387 1_556 S
C1232 C1235 1.387 . S
H1233 C1229 0.950 . S
H1234 C1231 0.950 . S
C1235 C1226 1.390 . S
C1235 H1228 0.950 . S
C1235 C1232 1.387 . S
C1236 C1237 1.387 . S
C1236 H1240 0.950 . S
C1236 C1245 1.390 . S
C1237 C1236 1.387 . S
C1237 C1239 1.387 . S
H1238 C1245 0.950 . S
C1239 C1237 1.387 . S
C1239 C1241 1.390 . S
C1239 H1243 0.950 . S
H1240 C1236 0.950 . S
C1241 C1239 1.390 . S
C1241 C1242 1.387 . S
C1241 H1244 0.950 . S
C1242 C1241 1.387 . S
C1242 C1245 1.387 . S
H1243 C1239 0.950 . S
H1244 C1241 0.950 . S
C1245 C1236 1.390 . S
C1245 H1238 0.950 . S
C1245 C1242 1.387 . S
C1246 C1247 1.387 . S
C1246 H1250 0.950 . S
C1246 C1255 1.390 . S
C1247 C1246 1.387 . S
C1247 C1249 1.387 . S
H1248 C1255 0.950 . S
C1249 C1247 1.387 . S
C1249 C1251 1.390 . S
C1249 H1253 0.950 . S
H1250 C1246 0.950 . S
C1251 C1249 1.390 . S
C1251 C1252 1.387 . S
C1251 H1254 0.950 . S
C1252 C1251 1.387 . S
C1252 C1255 1.387 . S
H1253 C1249 0.950 . S
H1254 C1251 0.950 . S
C1255 C1246 1.390 . S
C1255 H1248 0.950 . S
C1255 C1252 1.387 . S
C1256 C1257 1.387 . S
C1256 H1260 0.950 . S
C1256 C1265 1.390 . S
C1257 C1256 1.387 . S
C1257 C1259 1.387 1_554 S
H1258 C1265 0.950 . S
C1259 C1257 1.387 1_556 S
C1259 C1261 1.390 . S
C1259 H1263 0.950 . S
H1260 C1256 0.950 . S
C1261 C1259 1.390 . S
C1261 C1262 1.387 1_556 S
C1261 H1264 0.950 . S
C1262 C1261 1.387 1_554 S
C1262 C1265 1.387 . S
H1263 C1259 0.950 . S
H1264 C1261 0.950 . S
C1265 C1256 1.390 . S
C1265 H1258 0.950 . S
C1265 C1262 1.387 . S
C1266 C1267 1.387 1_556 S
C1266 H1270 0.950 . S
C1266 C1275 1.390 . S
C1267 C1266 1.387 1_554 S
C1267 C1269 1.387 . S
H1268 C1275 0.950 . S
C1269 C1267 1.387 . S
C1269 C1271 1.390 . S
C1269 H1273 0.950 . S
H1270 C1266 0.950 . S
C1271 C1269 1.390 . S
C1271 C1272 1.387 . S
C1271 H1274 0.950 . S
C1272 C1271 1.387 . S
C1272 C1275 1.387 1_554 S
H1273 C1269 0.950 . S
H1274 C1271 0.950 . S
C1275 C1266 1.390 . S
C1275 H1268 0.950 . S
C1275 C1272 1.387 1_556 S
C1276 C1277 1.387 . S
C1276 H1280 0.950 . S
C1276 C1285 1.390 . S
C1277 C1276 1.387 . S
C1277 C1279 1.387 . S
H1278 C1285 0.950 . S
C1279 C1277 1.387 . S
C1279 C1281 1.390 . S
C1279 H1283 0.950 . S
H1280 C1276 0.950 . S
C1281 C1279 1.390 . S
C1281 C1282 1.387 . S
C1281 H1284 0.950 . S
C1282 C1281 1.387 . S
C1282 C1285 1.387 . S
H1283 C1279 0.950 . S
H1284 C1281 0.950 . S
C1285 C1276 1.390 . S
C1285 H1278 0.950 . S
C1285 C1282 1.387 . S
C1286 C1287 1.387 . S
C1286 H1290 0.950 . S
C1286 C1295 1.390 . S
C1287 C1286 1.387 . S
C1287 C1289 1.387 . S
H1288 C1295 0.950 . S
C1289 C1287 1.387 . S
C1289 C1291 1.390 . S
C1289 H1293 0.950 . S
H1290 C1286 0.950 . S
C1291 C1289 1.390 . S
C1291 C1292 1.387 . S
C1291 H1294 0.950 . S
C1292 C1291 1.387 . S
C1292 C1295 1.387 . S
H1293 C1289 0.950 . S
H1294 C1291 0.950 . S
C1295 C1286 1.390 . S
C1295 H1288 0.950 . S
C1295 C1292 1.387 . S
C1296 C1297 1.387 . S
C1296 H1300 0.950 . S
C1296 C1305 1.390 . S
C1297 C1296 1.387 . S
C1297 C1299 1.387 . S
H1298 C1305 0.950 . S
C1299 C1297 1.387 . S
C1299 C1301 1.390 . S
C1299 H1303 0.950 . S
H1300 C1296 0.950 . S
C1301 C1299 1.390 . S
C1301 C1302 1.387 . S
C1301 H1304 0.950 . S
C1302 C1301 1.387 . S
C1302 C1305 1.387 . S
H1303 C1299 0.950 . S
H1304 C1301 0.950 . S
C1305 C1296 1.390 . S
C1305 H1298 0.950 . S
C1305 C1302 1.387 . S
C1306 C1307 1.387 . S
C1306 H1310 0.950 . S
C1306 C1315 1.390 . S
C1307 C1306 1.387 . S
C1307 C1309 1.387 . S
H1308 C1315 0.950 . S
C1309 C1307 1.387 . S
C1309 C1311 1.390 . S
C1309 H1313 0.950 . S
H1310 C1306 0.950 . S
C1311 C1309 1.390 . S
C1311 C1312 1.387 . S
C1311 H1314 0.950 . S
C1312 C1311 1.387 . S
C1312 C1315 1.387 . S
H1313 C1309 0.950 . S
H1314 C1311 0.950 . S
C1315 C1306 1.390 . S
C1315 H1308 0.950 . S
C1315 C1312 1.387 . S
C1316 C1317 1.387 . S
C1316 H1320 0.950 . S
C1316 C1325 1.390 . S
C1317 C1316 1.387 . S
C1317 C1319 1.387 . S
H1318 C1325 0.950 . S
C1319 C1317 1.387 . S
C1319 C1321 1.390 . S
C1319 H1323 0.950 . S
H1320 C1316 0.950 . S
C1321 C1319 1.390 . S
C1321 C1322 1.387 . S
C1321 H1324 0.950 . S
C1322 C1321 1.387 . S
C1322 C1325 1.387 . S
H1323 C1319 0.950 . S
H1324 C1321 0.950 . S
C1325 C1316 1.390 . S
C1325 H1318 0.950 . S
C1325 C1322 1.387 . S
C1326 C1327 1.387 . S
C1326 H1330 0.950 . S
C1326 C1335 1.390 . S
C1327 C1326 1.387 . S
C1327 C1329 1.387 . S
H1328 C1335 0.950 . S
C1329 C1327 1.387 . S
C1329 C1331 1.390 . S
C1329 H1333 0.950 . S
H1330 C1326 0.950 . S
C1331 C1329 1.390 . S
C1331 C1332 1.387 . S
C1331 H1334 0.950 . S
C1332 C1331 1.387 . S
C1332 C1335 1.387 . S
H1333 C1329 0.950 . S
H1334 C1331 0.950 . S
C1335 C1326 1.390 . S
C1335 H1328 0.950 . S
C1335 C1332 1.387 . S
C1336 C1337 1.387 . S
C1336 H1340 0.950 . S
C1336 C1345 1.390 . S
C1337 C1336 1.387 . S
C1337 C1339 1.387 . S
H1338 C1345 0.950 . S
C1339 C1337 1.387 . S
C1339 C1341 1.390 . S
C1339 H1343 0.950 . S
H1340 C1336 0.950 . S
C1341 C1339 1.390 . S
C1341 C1342 1.387 . S
C1341 H1344 0.950 . S
C1342 C1341 1.387 . S
C1342 C1345 1.387 . S
H1343 C1339 0.950 . S
H1344 C1341 0.950 . S
C1345 C1336 1.390 . S
C1345 H1338 0.950 . S
C1345 C1342 1.387 . S
C1346 C1347 1.387 . S
C1346 H1350 0.950 . S
C1346 C1355 1.390 . S
C1347 C1346 1.387 . S
C1347 C1349 1.387 . S
H1348 C1355 0.950 . S
C1349 C1347 1.387 . S
C1349 C1351 1.390 . S
C1349 H1353 0.950 . S
H1350 C1346 0.950 . S
C1351 C1349 1.390 . S
C1351 C1352 1.387 . S
C1351 H1354 0.950 . S
C1352 C1351 1.387 . S
C1352 C1355 1.387 . S
H1353 C1349 0.950 . S
H1354 C1351 0.950 . S
C1355 C1346 1.390 . S
C1355 H1348 0.950 . S
C1355 C1352 1.387 . S
C1356 C1357 1.387 . S
C1356 H1360 0.950 . S
C1356 C1365 1.390 . S
C1357 C1356 1.387 . S
C1357 C1359 1.387 . S
H1358 C1365 0.950 . S
C1359 C1357 1.387 . S
C1359 C1361 1.390 . S
C1359 H1363 0.950 . S
H1360 C1356 0.950 . S
C1361 C1359 1.390 . S
C1361 C1362 1.387 . S
C1361 H1364 0.950 . S
C1362 C1361 1.387 . S
C1362 C1365 1.387 . S
H1363 C1359 0.950 . S
H1364 C1361 0.950 . S
C1365 C1356 1.390 . S
C1365 H1358 0.950 . S
C1365 C1362 1.387 . S
C1366 C1367 1.387 . S
C1366 H1370 0.950 . S
C1366 C1375 1.390 . S
C1367 C1366 1.387 . S
C1367 C1369 1.387 . S
H1368 C1375 0.950 . S
C1369 C1367 1.387 . S
C1369 C1371 1.390 . S
C1369 H1373 0.950 . S
H1370 C1366 0.950 . S
C1371 C1369 1.390 . S
C1371 C1372 1.387 . S
C1371 H1374 0.950 . S
C1372 C1371 1.387 . S
C1372 C1375 1.387 . S
H1373 C1369 0.950 . S
H1374 C1371 0.950 . S
C1375 C1366 1.390 . S
C1375 H1368 0.950 . S
C1375 C1372 1.387 . S
C1376 C1377 1.387 . S
C1376 H1380 0.950 . S
C1376 C1385 1.390 . S
C1377 C1376 1.387 . S
C1377 C1379 1.387 1_554 S
H1378 C1385 0.950 . S
C1379 C1377 1.387 1_556 S
C1379 C1381 1.390 . S
C1379 H1383 0.950 . S
H1380 C1376 0.950 . S
C1381 C1379 1.390 . S
C1381 C1382 1.387 1_556 S
C1381 H1384 0.950 . S
C1382 C1381 1.387 1_554 S
C1382 C1385 1.387 . S
H1383 C1379 0.950 . S
H1384 C1381 0.950 . S
C1385 C1376 1.390 . S
C1385 H1378 0.950 . S
C1385 C1382 1.387 . S
C1386 C1387 1.387 1_556 S
C1386 H1390 0.950 . S
C1386 C1395 1.390 . S
C1387 C1386 1.387 1_554 S
C1387 C1389 1.387 . S
H1388 C1395 0.950 . S
C1389 C1387 1.387 . S
C1389 C1391 1.390 . S
C1389 H1393 0.950 . S
H1390 C1386 0.950 . S
C1391 C1389 1.390 . S
C1391 C1392 1.387 . S
C1391 H1394 0.950 . S
C1392 C1391 1.387 . S
C1392 C1395 1.387 1_554 S
H1393 C1389 0.950 . S
H1394 C1391 0.950 . S
C1395 C1386 1.390 . S
C1395 H1388 0.950 . S
C1395 C1392 1.387 1_556 S
C1396 C1397 1.387 . S
C1396 H1400 0.950 . S
C1396 C1405 1.390 . S
C1397 C1396 1.387 . S
C1397 C1399 1.387 . S
H1398 C1405 0.950 . S
C1399 C1397 1.387 . S
C1399 C1401 1.390 . S
C1399 H1403 0.950 . S
H1400 C1396 0.950 . S
C1401 C1399 1.390 . S
C1401 C1402 1.387 . S
C1401 H1404 0.950 . S
C1402 C1401 1.387 . S
C1402 C1405 1.387 . S
H1403 C1399 0.950 . S
H1404 C1401 0.950 . S
C1405 C1396 1.390 . S
C1405 H1398 0.950 . S
C1405 C1402 1.387 . S
C1406 C1407 1.387 . S
C1406 H1410 0.950 . S
C1406 C1415 1.390 . S
C1407 C1406 1.387 . S
C1407 C1409 1.387 . S
H1408 C1415 0.950 . S
C1409 C1407 1.387 . S
C1409 C1411 1.390 . S
C1409 H1413 0.950 . S
H1410 C1406 0.950 . S
C1411 C1409 1.390 . S
C1411 C1412 1.387 . S
C1411 H1414 0.950 . S
C1412 C1411 1.387 . S
C1412 C1415 1.387 . S
H1413 C1409 0.950 . S
H1414 C1411 0.950 . S
C1415 C1406 1.390 . S
C1415 H1408 0.950 . S
C1415 C1412 1.387 . S
C1416 C1417 1.387 1_554 S
C1416 H1420 0.950 . S
C1416 C1425 1.390 . S
C1417 C1416 1.387 1_556 S
C1417 C1419 1.387 . S
H1418 C1425 0.950 . S
C1419 C1417 1.387 . S
C1419 C1421 1.390 . S
C1419 H1423 0.950 . S
H1420 C1416 0.950 . S
C1421 C1419 1.390 . S
C1421 C1422 1.387 . S
C1421 H1424 0.950 . S
C1422 C1421 1.387 . S
C1422 C1425 1.387 1_556 S
H1423 C1419 0.950 . S
H1424 C1421 0.950 . S
C1425 C1416 1.390 . S
C1425 H1418 0.950 . S
C1425 C1422 1.387 1_554 S
C1426 C1427 1.387 . S
C1426 H1430 0.950 . S
C1426 C1435 1.390 . S
C1427 C1426 1.387 . S
C1427 C1429 1.387 1_556 S
H1428 C1435 0.950 . S
C1429 C1427 1.387 1_554 S
C1429 C1431 1.390 . S
C1429 H1433 0.950 . S
H1430 C1426 0.950 . S
C1431 C1429 1.390 . S
C1431 C1432 1.387 1_554 S
C1431 H1434 0.950 . S
C1432 C1431 1.387 1_556 S
C1432 C1435 1.387 . S
H1433 C1429 0.950 . S
H1434 C1431 0.950 . S
C1435 C1426 1.390 . S
C1435 H1428 0.950 . S
C1435 C1432 1.387 . S
C1436 C1437 1.387 . S
C1436 H1440 0.950 . S
C1436 C1445 1.390 . S
C1437 C1436 1.387 . S
C1437 C1439 1.387 . S
H1438 C1445 0.950 . S
C1439 C1437 1.387 . S
C1439 C1441 1.390 . S
C1439 H1443 0.950 . S
H1440 C1436 0.950 . S
C1441 C1439 1.390 . S
C1441 C1442 1.387 . S
C1441 H1444 0.950 . S
C1442 C1441 1.387 . S
C1442 C1445 1.387 . S
H1443 C1439 0.950 . S
H1444 C1441 0.950 . S
C1445 C1436 1.390 . S
C1445 H1438 0.950 . S
C1445 C1442 1.387 . S
C1446 C1447 1.387 . S
C1446 H1450 0.950 . S
C1446 C1455 1.390 . S
C1447 C1446 1.387 . S
C1447 C1449 1.387 . S
H1448 C1455 0.950 . S
C1449 C1447 1.387 . S
C1449 C1451 1.390 . S
C1449 H1453 0.950 . S
H1450 C1446 0.950 . S
C1451 C1449 1.390 . S
C1451 C1452 1.387 . S
C1451 H1454 0.950 . S
C1452 C1451 1.387 . S
C1452 C1455 1.387 . S
H1453 C1449 0.950 . S
H1454 C1451 0.950 . S
C1455 C1446 1.390 . S
C1455 H1448 0.950 . S
C1455 C1452 1.387 . S
C1456 C1457 1.387 . S
C1456 H1460 0.950 1_565 S
C1456 C1465 1.390 . S
C1457 C1456 1.387 . S
C1457 C1459 1.387 . S
H1458 C1465 0.950 . S
C1459 C1457 1.387 . S
C1459 C1461 1.390 . S
C1459 H1463 0.950 . S
H1460 C1456 0.950 1_545 S
C1461 C1459 1.390 . S
C1461 C1462 1.387 . S
C1461 H1464 0.950 . S
C1462 C1461 1.387 . S
C1462 C1465 1.387 . S
H1463 C1459 0.950 . S
H1464 C1461 0.950 . S
C1465 C1456 1.390 . S
C1465 H1458 0.950 . S
C1465 C1462 1.387 . S
C1466 C1467 1.387 . S
C1466 H1470 0.950 . S
C1466 C1475 1.390 . S
C1467 C1466 1.387 . S
C1467 C1469 1.387 . S
H1468 C1475 0.950 . S
C1469 C1467 1.387 . S
C1469 C1471 1.390 . S
C1469 H1473 0.950 . S
H1470 C1466 0.950 . S
C1471 C1469 1.390 . S
C1471 C1472 1.387 . S
C1471 H1474 0.950 . S
C1472 C1471 1.387 . S
C1472 C1475 1.387 . S
H1473 C1469 0.950 . S
H1474 C1471 0.950 . S
C1475 C1466 1.390 . S
C1475 H1468 0.950 . S
C1475 C1472 1.387 . S
C1476 C1477 1.387 . S
C1476 H1480 0.950 . S
C1476 C1485 1.390 . S
C1477 C1476 1.387 . S
C1477 C1479 1.387 . S
H1478 C1485 0.950 . S
C1479 C1477 1.387 . S
C1479 C1481 1.390 . S
C1479 H1483 0.950 . S
H1480 C1476 0.950 . S
C1481 C1479 1.390 . S
C1481 C1482 1.387 . S
C1481 H1484 0.950 . S
C1482 C1481 1.387 . S
C1482 C1485 1.387 . S
H1483 C1479 0.950 . S
H1484 C1481 0.950 . S
C1485 C1476 1.390 . S
C1485 H1478 0.950 . S
C1485 C1482 1.387 . S
C1486 C1487 1.387 . S
C1486 H1490 0.950 . S
C1486 C1495 1.390 . S
C1487 C1486 1.387 . S
C1487 C1489 1.387 . S
H1488 C1495 0.950 . S
C1489 C1487 1.387 . S
C1489 C1491 1.390 . S
C1489 H1493 0.950 1_565 S
H1490 C1486 0.950 . S
C1491 C1489 1.390 . S
C1491 C1492 1.387 . S
C1491 H1494 0.950 . S
C1492 C1491 1.387 . S
C1492 C1495 1.387 . S
H1493 C1489 0.950 1_545 S
H1494 C1491 0.950 . S
C1495 C1486 1.390 . S
C1495 H1488 0.950 . S
C1495 C1492 1.387 . S
C1496 C1497 1.387 . S
C1496 H1500 0.950 . S
C1496 C1505 1.390 . S
C1497 C1496 1.387 . S
C1497 C1499 1.387 . S
H1498 C1505 0.950 . S
C1499 C1497 1.387 . S
C1499 C1501 1.390 . S
C1499 H1503 0.950 . S
H1500 C1496 0.950 . S
C1501 C1499 1.390 . S
C1501 C1502 1.387 . S
C1501 H1504 0.950 . S
C1502 C1501 1.387 . S
C1502 C1505 1.387 . S
H1503 C1499 0.950 . S
H1504 C1501 0.950 . S
C1505 C1496 1.390 . S
C1505 H1498 0.950 . S
C1505 C1502 1.387 . S
C1506 C1507 1.387 . S
C1506 H1510 0.950 . S
C1506 C1515 1.390 . S
C1507 C1506 1.387 . S
C1507 C1509 1.387 . S
H1508 C1515 0.950 . S
C1509 C1507 1.387 . S
C1509 C1511 1.390 . S
C1509 H1513 0.950 . S
H1510 C1506 0.950 . S
C1511 C1509 1.390 . S
C1511 C1512 1.387 . S
C1511 H1514 0.950 . S
C1512 C1511 1.387 . S
C1512 C1515 1.387 . S
H1513 C1509 0.950 . S
H1514 C1511 0.950 . S
C1515 C1506 1.390 . S
C1515 H1508 0.950 . S
C1515 C1512 1.387 . S
C1516 C1517 1.387 . S
C1516 H1520 0.950 . S
C1516 C1525 1.390 . S
C1517 C1516 1.387 . S
C1517 C1519 1.387 . S
H1518 C1525 0.950 . S
C1519 C1517 1.387 . S
C1519 C1521 1.390 . S
C1519 H1523 0.950 . S
H1520 C1516 0.950 . S
C1521 C1519 1.390 . S
C1521 C1522 1.387 . S
C1521 H1524 0.950 . S
C1522 C1521 1.387 . S
C1522 C1525 1.387 . S
H1523 C1519 0.950 . S
H1524 C1521 0.950 . S
C1525 C1516 1.390 . S
C1525 H1518 0.950 . S
C1525 C1522 1.387 . S
C1526 C1527 1.387 . S
C1526 H1530 0.950 . S
C1526 C1535 1.390 . S
C1527 C1526 1.387 . S
C1527 C1529 1.387 . S
H1528 C1535 0.950 . S
C1529 C1527 1.387 . S
C1529 C1531 1.390 . S
C1529 H1533 0.950 . S
H1530 C1526 0.950 . S
C1531 C1529 1.390 . S
C1531 C1532 1.387 . S
C1531 H1534 0.950 . S
C1532 C1531 1.387 . S
C1532 C1535 1.387 . S
H1533 C1529 0.950 . S
H1534 C1531 0.950 . S
C1535 C1526 1.390 . S
C1535 H1528 0.950 . S
C1535 C1532 1.387 . S
C1536 C1537 1.387 . S
C1536 H1540 0.950 . S
C1536 C1545 1.390 . S
C1537 C1536 1.387 . S
C1537 C1539 1.387 . S
H1538 C1545 0.950 . S
C1539 C1537 1.387 . S
C1539 C1541 1.390 . S
C1539 H1543 0.950 . S
H1540 C1536 0.950 . S
C1541 C1539 1.390 . S
C1541 C1542 1.387 . S
C1541 H1544 0.950 . S
C1542 C1541 1.387 . S
C1542 C1545 1.387 . S
H1543 C1539 0.950 . S
H1544 C1541 0.950 . S
C1545 C1536 1.390 . S
C1545 H1538 0.950 . S
C1545 C1542 1.387 . S
C1546 C1547 1.387 . S
C1546 H1550 0.950 . S
C1546 C1555 1.390 . S
C1547 C1546 1.387 . S
C1547 C1549 1.387 . S
H1548 C1555 0.950 . S
C1549 C1547 1.387 . S
C1549 C1551 1.390 . S
C1549 H1553 0.950 . S
H1550 C1546 0.950 . S
C1551 C1549 1.390 . S
C1551 C1552 1.387 . S
C1551 H1554 0.950 . S
C1552 C1551 1.387 . S
C1552 C1555 1.387 . S
H1553 C1549 0.950 . S
H1554 C1551 0.950 . S
C1555 C1546 1.390 . S
C1555 H1548 0.950 . S
C1555 C1552 1.387 . S
C1556 C1557 1.387 . S
C1556 H1560 0.950 . S
C1556 C1565 1.390 . S
C1557 C1556 1.387 . S
C1557 C1559 1.387 . S
H1558 C1565 0.950 . S
C1559 C1557 1.387 . S
C1559 C1561 1.390 . S
C1559 H1563 0.950 . S
H1560 C1556 0.950 . S
C1561 C1559 1.390 . S
C1561 C1562 1.387 . S
C1561 H1564 0.950 . S
C1562 C1561 1.387 . S
C1562 C1565 1.387 . S
H1563 C1559 0.950 . S
H1564 C1561 0.950 . S
C1565 C1556 1.390 . S
C1565 H1558 0.950 . S
C1565 C1562 1.387 . S
C1566 C1567 1.387 . S
C1566 H1570 0.950 . S
C1566 C1575 1.390 . S
C1567 C1566 1.387 . S
C1567 C1569 1.387 . S
H1568 C1575 0.950 . S
C1569 C1567 1.387 . S
C1569 C1571 1.390 . S
C1569 H1573 0.950 . S
H1570 C1566 0.950 . S
C1571 C1569 1.390 . S
C1571 C1572 1.387 . S
C1571 H1574 0.950 . S
C1572 C1571 1.387 . S
C1572 C1575 1.387 . S
H1573 C1569 0.950 . S
H1574 C1571 0.950 . S
C1575 C1566 1.390 . S
C1575 H1568 0.950 . S
C1575 C1572 1.387 . S
C1576 C1577 1.387 . S
C1576 H1580 0.950 . S
C1576 C1585 1.390 . S
C1577 C1576 1.387 . S
C1577 C1579 1.387 . S
H1578 C1585 0.950 . S
C1579 C1577 1.387 . S
C1579 C1581 1.390 . S
C1579 H1583 0.950 . S
H1580 C1576 0.950 . S
C1581 C1579 1.390 . S
C1581 C1582 1.387 . S
C1581 H1584 0.950 . S
C1582 C1581 1.387 . S
C1582 C1585 1.387 . S
H1583 C1579 0.950 . S
H1584 C1581 0.950 . S
C1585 C1576 1.390 . S
C1585 H1578 0.950 . S
C1585 C1582 1.387 . S
C1586 C1587 1.387 . S
C1586 H1590 0.950 . S
C1586 C1595 1.390 . S
C1587 C1586 1.387 . S
C1587 C1589 1.387 . S
H1588 C1595 0.950 . S
C1589 C1587 1.387 . S
C1589 C1591 1.390 . S
C1589 H1593 0.950 . S
H1590 C1586 0.950 . S
C1591 C1589 1.390 . S
C1591 C1592 1.387 . S
C1591 H1594 0.950 . S
C1592 C1591 1.387 . S
C1592 C1595 1.387 . S
H1593 C1589 0.950 . S
H1594 C1591 0.950 . S
C1595 C1586 1.390 . S
C1595 H1588 0.950 . S
C1595 C1592 1.387 . S
C1596 C1597 1.387 . S
C1596 H1600 0.950 . S
C1596 C1605 1.390 . S
C1597 C1596 1.387 . S
C1597 C1599 1.387 . S
H1598 C1605 0.950 . S
C1599 C1597 1.387 . S
C1599 C1601 1.390 . S
C1599 H1603 0.950 . S
H1600 C1596 0.950 . S
C1601 C1599 1.390 . S
C1601 C1602 1.387 . S
C1601 H1604 0.950 . S
C1602 C1601 1.387 . S
C1602 C1605 1.387 . S
H1603 C1599 0.950 . S
H1604 C1601 0.950 . S
C1605 C1596 1.390 . S
C1605 H1598 0.950 . S
C1605 C1602 1.387 . S
C1606 C1607 1.387 . S
C1606 H1610 0.950 . S
C1606 C1615 1.390 . S
C1607 C1606 1.387 . S
C1607 C1609 1.387 . S
H1608 C1615 0.950 . S
C1609 C1607 1.387 . S
C1609 C1611 1.390 . S
C1609 H1613 0.950 . S
H1610 C1606 0.950 . S
C1611 C1609 1.390 . S
C1611 C1612 1.387 . S
C1611 H1614 0.950 . S
C1612 C1611 1.387 . S
C1612 C1615 1.387 . S
H1613 C1609 0.950 . S
H1614 C1611 0.950 . S
C1615 C1606 1.390 . S
C1615 H1608 0.950 . S
C1615 C1612 1.387 . S
C1616 C1617 1.387 1_556 S
C1616 H1620 0.950 . S
C1616 C1625 1.382 1_556 S
C1617 C1616 1.387 1_554 S
C1617 C1619 1.387 . S
H1618 C1625 0.939 1_556 S
C1619 C1617 1.387 . S
C1619 C1621 1.390 . S
C1619 H1623 0.950 1_565 S
H1620 C1616 0.950 . S
C1621 C1619 1.390 . S
C1621 C1622 1.387 . S
C1621 H1624 0.950 . S
C1622 C1621 1.387 . S
C1622 C1625 1.408 . S
H1623 C1619 0.950 1_545 S
H1624 C1621 0.950 . S
C1625 C1616 1.382 1_554 S
C1625 H1618 0.939 1_554 S
C1625 C1622 1.408 . S
C1626 C1627 1.387 1_556 S
C1626 H1630 0.950 . S
C1626 C1635 1.390 . S
C1627 C1626 1.387 1_554 S
C1627 C1629 1.387 . S
H1628 C1635 0.950 . S
C1629 C1627 1.387 . S
C1629 C1631 1.390 . S
C1629 H1633 0.950 . S
H1630 C1626 0.950 . S
C1631 C1629 1.390 . S
C1631 C1632 1.387 . S
C1631 H1634 0.950 . S
C1632 C1631 1.387 . S
C1632 C1635 1.387 1_554 S
H1633 C1629 0.950 . S
H1634 C1631 0.950 . S
C1635 C1626 1.390 . S
C1635 H1628 0.950 . S
C1635 C1632 1.387 1_556 S
C1636 C1637 1.387 . S
C1636 H1640 0.950 . S
C1636 C1645 1.390 . S
C1637 C1636 1.387 . S
C1637 C1639 1.387 . S
H1638 C1645 0.950 . S
C1639 C1637 1.387 . S
C1639 C1641 1.390 . S
C1639 H1643 0.950 . S
H1640 C1636 0.950 . S
C1641 C1639 1.390 . S
C1641 C1642 1.387 . S
C1641 H1644 0.950 . S
C1642 C1641 1.387 . S
C1642 C1645 1.387 . S
H1643 C1639 0.950 . S
H1644 C1641 0.950 . S
C1645 C1636 1.390 . S
C1645 H1638 0.950 . S
C1645 C1642 1.387 . S
C1646 C1647 1.387 . S
C1646 H1650 0.950 . S
C1646 C1655 1.390 . S
C1647 C1646 1.387 . S
C1647 C1649 1.387 . S
H1648 C1655 0.950 . S
C1649 C1647 1.387 . S
C1649 C1651 1.390 . S
C1649 H1653 0.950 . S
H1650 C1646 0.950 . S
C1651 C1649 1.390 . S
C1651 C1652 1.387 . S
C1651 H1654 0.950 . S
C1652 C1651 1.387 . S
C1652 C1655 1.387 . S
H1653 C1649 0.950 . S
H1654 C1651 0.950 . S
C1655 C1646 1.390 . S
C1655 H1648 0.950 . S
C1655 C1652 1.387 . S
C1656 C1657 1.387 . S
C1656 H1660 0.950 . S
C1656 C1665 1.390 . S
C1657 C1656 1.387 . S
C1657 C1659 1.387 . S
H1658 C1665 0.950 1_565 S
C1659 C1657 1.387 . S
C1659 C1661 1.390 1_556 S
C1659 H1663 0.950 1_556 S
H1660 C1656 0.950 . S
C1661 C1659 1.390 1_554 S
C1661 C1662 1.387 1_554 S
C1661 H1664 0.950 . S
C1662 C1661 1.387 1_556 S
C1662 C1665 1.387 . S
H1663 C1659 0.950 1_554 S
H1664 C1661 0.950 . S
C1665 C1656 1.390 . S
C1665 H1658 0.950 1_545 S
C1665 C1662 1.387 . S
C1666 C1667 1.387 . S
C1666 H1670 0.950 . S
C1666 C1675 1.390 . S
C1667 C1666 1.387 . S
C1667 C1669 1.387 1_556 S
H1668 C1675 0.950 . S
C1669 C1667 1.387 1_554 S
C1669 C1671 1.390 . S
C1669 H1673 0.950 . S
H1670 C1666 0.950 . S
C1671 C1669 1.390 . S
C1671 C1672 1.387 1_554 S
C1671 H1674 0.950 . S
C1672 C1671 1.387 1_556 S
C1672 C1675 1.387 . S
H1673 C1669 0.950 . S
H1674 C1671 0.950 . S
C1675 C1666 1.390 . S
C1675 H1668 0.950 . S
C1675 C1672 1.387 . S
C1676 C1677 1.387 . S
C1676 H1680 0.950 . S
C1676 C1685 1.390 . S
C1677 C1676 1.387 . S
C1677 C1679 1.387 . S
H1678 C1685 0.950 . S
C1679 C1677 1.387 . S
C1679 C1681 1.390 . S
C1679 H1683 0.950 . S
H1680 C1676 0.950 . S
C1681 C1679 1.390 . S
C1681 C1682 1.387 . S
C1681 H1684 0.950 . S
C1682 C1681 1.387 . S
C1682 C1685 1.387 . S
H1683 C1679 0.950 . S
H1684 C1681 0.950 . S
C1685 C1676 1.390 . S
C1685 H1678 0.950 . S
C1685 C1682 1.387 . S
C1686 C1687 1.387 . S
C1686 H1690 0.950 . S
C1686 C1695 1.390 . S
C1687 C1686 1.387 . S
C1687 C1689 1.387 . S
H1688 C1695 0.950 . S
C1689 C1687 1.387 . S
C1689 C1691 1.390 . S
C1689 H1693 0.950 . S
H1690 C1686 0.950 . S
C1691 C1689 1.390 . S
C1691 C1692 1.387 . S
C1691 H1694 0.950 . S
C1692 C1691 1.387 . S
C1692 C1695 1.387 . S
H1693 C1689 0.950 . S
H1694 C1691 0.950 . S
C1695 C1686 1.390 . S
C1695 H1688 0.950 . S
C1695 C1692 1.387 . S
C1696 C1697 1.387 1_455 S
C1696 H1700 0.950 . S
C1696 C1705 1.390 . S
C1697 C1696 1.387 1_655 S
C1697 C1699 1.387 . S
H1698 C1705 0.950 . S
C1699 C1697 1.387 . S
C1699 C1701 1.390 . S
C1699 H1703 0.950 . S
H1700 C1696 0.950 . S
C1701 C1699 1.390 . S
C1701 C1702 1.387 . S
C1701 H1704 0.950 . S
C1702 C1701 1.387 . S
C1702 C1705 1.387 1_655 S
H1703 C1699 0.950 . S
H1704 C1701 0.950 . S
C1705 C1696 1.390 . S
C1705 H1698 0.950 . S
C1705 C1702 1.387 1_455 S
C1706 C1707 1.387 . S
C1706 H1710 0.950 . S
C1706 C1715 1.390 . S
C1707 C1706 1.387 . S
C1707 C1709 1.387 . S
H1708 C1715 0.950 . S
C1709 C1707 1.387 . S
C1709 C1711 1.390 . S
C1709 H1713 0.950 1_545 S
H1710 C1706 0.950 . S
C1711 C1709 1.390 . S
C1711 C1712 1.387 . S
C1711 H1714 0.950 . S
C1712 C1711 1.387 . S
C1712 C1715 1.387 . S
H1713 C1709 0.950 1_565 S
H1714 C1711 0.950 . S
C1715 C1706 1.390 . S
C1715 H1708 0.950 . S
C1715 C1712 1.387 . S
C1716 C1717 1.387 . S
C1716 H1720 0.950 . S
C1716 C1725 1.390 . S
C1717 C1716 1.387 . S
C1717 C1719 1.387 1_655 S
H1718 C1725 0.950 . S
C1719 C1717 1.387 1_455 S
C1719 C1721 1.390 . S
C1719 H1723 0.950 . S
H1720 C1716 0.950 . S
C1721 C1719 1.390 . S
C1721 C1722 1.387 1_455 S
C1721 H1724 0.950 . S
C1722 C1721 1.387 1_655 S
C1722 C1725 1.387 . S
H1723 C1719 0.950 . S
H1724 C1721 0.950 . S
C1725 C1716 1.390 . S
C1725 H1718 0.950 . S
C1725 C1722 1.387 . S
C1726 C1727 1.387 . S
C1726 H1730 0.950 . S
C1726 C1735 1.390 . S
C1727 C1726 1.387 . S
C1727 C1729 1.387 . S
H1728 C1735 0.950 . S
C1729 C1727 1.387 . S
C1729 C1731 1.390 . S
C1729 H1733 0.950 . S
H1730 C1726 0.950 . S
C1731 C1729 1.390 . S
C1731 C1732 1.387 . S
C1731 H1734 0.950 . S
C1732 C1731 1.387 . S
C1732 C1735 1.387 . S
H1733 C1729 0.950 . S
H1734 C1731 0.950 . S
C1735 C1726 1.390 . S
C1735 H1728 0.950 . S
C1735 C1732 1.387 . S
C1736 C1737 1.387 1_655 S
C1736 H1740 0.950 . S
C1736 C1745 1.390 . S
C1737 C1736 1.387 1_455 S
C1737 C1739 1.387 . S
H1738 C1745 0.950 . S
C1739 C1737 1.387 . S
C1739 C1741 1.390 . S
C1739 H1743 0.950 . S
H1740 C1736 0.950 . S
C1741 C1739 1.390 . S
C1741 C1742 1.387 . S
C1741 H1744 0.950 . S
C1742 C1741 1.387 . S
C1742 C1745 1.387 1_455 S
H1743 C1739 0.950 . S
H1744 C1741 0.950 . S
C1745 C1736 1.390 . S
C1745 H1738 0.950 . S
C1745 C1742 1.387 1_655 S
C1746 C1747 1.387 . S
C1746 H1750 0.950 . S
C1746 C1755 1.390 . S
C1747 C1746 1.387 . S
C1747 C1749 1.387 . S
H1748 C1755 0.950 . S
C1749 C1747 1.387 . S
C1749 C1751 1.390 . S
C1749 H1753 0.950 . S
H1750 C1746 0.950 . S
C1751 C1749 1.390 . S
C1751 C1752 1.387 . S
C1751 H1754 0.950 . S
C1752 C1751 1.387 . S
C1752 C1755 1.387 . S
H1753 C1749 0.950 . S
H1754 C1751 0.950 . S
C1755 C1746 1.390 . S
C1755 H1748 0.950 . S
C1755 C1752 1.387 . S
C1756 C1757 1.387 1_655 S
C1756 H1760 0.950 . S
C1756 C1765 1.390 . S
C1757 C1756 1.387 1_455 S
C1757 C1759 1.387 . S
H1758 C1765 0.950 . S
C1759 C1757 1.387 . S
C1759 C1761 1.390 . S
C1759 H1763 0.950 . S
H1760 C1756 0.950 . S
C1761 C1759 1.390 . S
C1761 C1762 1.387 . S
C1761 H1764 0.950 . S
C1762 C1761 1.387 . S
C1762 C1765 1.387 1_455 S
H1763 C1759 0.950 . S
H1764 C1761 0.950 . S
C1765 C1756 1.390 . S
C1765 H1758 0.950 . S
C1765 C1762 1.387 1_655 S
C1766 C1767 1.387 . S
C1766 H1770 0.950 . S
C1766 C1775 1.390 . S
C1767 C1766 1.387 . S
C1767 C1769 1.387 . S
H1768 C1775 0.950 . S
C1769 C1767 1.387 . S
C1769 C1771 1.390 . S
C1769 H1773 0.950 . S
H1770 C1766 0.950 . S
C1771 C1769 1.390 . S
C1771 C1772 1.387 . S
C1771 H1774 0.950 . S
C1772 C1771 1.387 . S
C1772 C1775 1.387 . S
H1773 C1769 0.950 . S
H1774 C1771 0.950 . S
C1775 C1766 1.390 . S
C1775 H1768 0.950 . S
C1775 C1772 1.387 . S
C1776 C1777 1.387 1_455 S
C1776 H1780 0.950 . S
C1776 C1785 1.390 . S
C1777 C1776 1.387 1_655 S
C1777 C1779 1.387 . S
H1778 C1785 0.950 . S
C1779 C1777 1.387 . S
C1779 C1781 1.390 . S
C1779 H1783 0.950 . S
H1780 C1776 0.950 . S
C1781 C1779 1.390 . S
C1781 C1782 1.387 . S
C1781 H1784 0.950 . S
C1782 C1781 1.387 . S
C1782 C1785 1.387 1_655 S
H1783 C1779 0.950 . S
H1784 C1781 0.950 . S
C1785 C1776 1.390 . S
C1785 H1778 0.950 . S
C1785 C1782 1.387 1_455 S
C1786 C1787 1.387 . S
C1786 H1790 0.950 . S
C1786 C1795 1.390 . S
C1787 C1786 1.387 . S
C1787 C1789 1.387 . S
H1788 C1795 0.950 . S
C1789 C1787 1.387 . S
C1789 C1791 1.390 . S
C1789 H1793 0.950 . S
H1790 C1786 0.950 . S
C1791 C1789 1.390 . S
C1791 C1792 1.387 . S
C1791 H1794 0.950 . S
C1792 C1791 1.387 . S
C1792 C1795 1.387 . S
H1793 C1789 0.950 . S
H1794 C1791 0.950 . S
C1795 C1786 1.390 . S
C1795 H1788 0.950 . S
C1795 C1792 1.387 . S
C1796 C1797 1.387 1_455 S
C1796 H1800 0.950 . S
C1796 C1805 1.390 . S
C1797 C1796 1.387 1_655 S
C1797 C1799 1.387 . S
H1798 C1805 0.950 . S
C1799 C1797 1.387 . S
C1799 C1801 1.390 . S
C1799 H1803 0.950 . S
H1800 C1796 0.950 . S
C1801 C1799 1.390 . S
C1801 C1802 1.387 . S
C1801 H1804 0.950 . S
C1802 C1801 1.387 . S
C1802 C1805 1.387 1_655 S
H1803 C1799 0.950 . S
H1804 C1801 0.950 . S
C1805 C1796 1.390 . S
C1805 H1798 0.950 . S
C1805 C1802 1.387 1_455 S
C1806 C1807 1.387 . S
C1806 H1810 0.950 . S
C1806 C1815 1.390 . S
C1807 C1806 1.387 . S
C1807 C1809 1.387 . S
H1808 C1815 0.950 . S
C1809 C1807 1.387 . S
C1809 C1811 1.390 . S
C1809 H1813 0.950 . S
H1810 C1806 0.950 . S
C1811 C1809 1.390 . S
C1811 C1812 1.387 . S
C1811 H1814 0.950 . S
C1812 C1811 1.387 . S
C1812 C1815 1.387 . S
H1813 C1809 0.950 . S
H1814 C1811 0.950 . S
C1815 C1806 1.390 . S
C1815 H1808 0.950 . S
C1815 C1812 1.387 . S
C1816 C1817 1.387 1_655 S
C1816 H1820 0.950 . S
C1816 C1825 1.390 . S
C1817 C1816 1.387 1_455 S
C1817 C1819 1.387 . S
H1818 C1825 0.950 . S
C1819 C1817 1.387 . S
C1819 C1821 1.390 . S
C1819 H1823 0.950 . S
H1820 C1816 0.950 . S
C1821 C1819 1.390 . S
C1821 C1822 1.387 . S
C1821 H1824 0.950 . S
C1822 C1821 1.387 . S
C1822 C1825 1.387 1_455 S
H1823 C1819 0.950 . S
H1824 C1821 0.950 . S
C1825 C1816 1.390 . S
C1825 H1818 0.950 . S
C1825 C1822 1.387 1_655 S
C1826 C1827 1.387 . S
C1826 H1830 0.950 . S
C1826 C1835 1.390 . S
C1827 C1826 1.387 . S
C1827 C1829 1.387 . S
H1828 C1835 0.950 . S
C1829 C1827 1.387 . S
C1829 C1831 1.390 . S
C1829 H1833 0.950 . S
H1830 C1826 0.950 . S
C1831 C1829 1.390 . S
C1831 C1832 1.387 . S
C1831 H1834 0.950 . S
C1832 C1831 1.387 . S
C1832 C1835 1.387 . S
H1833 C1829 0.950 . S
H1834 C1831 0.950 . S
C1835 C1826 1.390 . S
C1835 H1828 0.950 . S
C1835 C1832 1.387 . S
C1836 C1837 1.387 . S
C1836 H1840 0.950 . S
C1836 C1845 1.390 . S
C1837 C1836 1.387 . S
C1837 C1839 1.387 1_455 S
H1838 C1845 0.950 . S
C1839 C1837 1.387 1_655 S
C1839 C1841 1.390 . S
C1839 H1843 0.950 . S
H1840 C1836 0.950 . S
C1841 C1839 1.390 . S
C1841 C1842 1.387 1_655 S
C1841 H1844 0.950 . S
C1842 C1841 1.387 1_455 S
C1842 C1845 1.387 . S
H1843 C1839 0.950 . S
H1844 C1841 0.950 . S
C1845 C1836 1.390 . S
C1845 H1838 0.950 . S
C1845 C1842 1.387 . S
C1846 C1847 1.387 . S
C1846 H1850 0.950 . S
C1846 C1855 1.390 . S
C1847 C1846 1.387 . S
C1847 C1849 1.387 . S
H1848 C1855 0.950 . S
C1849 C1847 1.387 . S
C1849 C1851 1.390 . S
C1849 H1853 0.950 . S
H1850 C1846 0.950 . S
C1851 C1849 1.390 . S
C1851 C1852 1.387 . S
C1851 H1854 0.950 . S
C1852 C1851 1.387 . S
C1852 C1855 1.387 . S
H1853 C1849 0.950 . S
H1854 C1851 0.950 . S
C1855 C1846 1.390 . S
C1855 H1848 0.950 . S
C1855 C1852 1.387 . S
C1856 C1857 1.387 . S
C1856 H1860 0.950 . S
C1856 C1865 1.390 . S
C1857 C1856 1.387 . S
C1857 C1859 1.387 . S
H1858 C1865 0.950 . S
C1859 C1857 1.387 . S
C1859 C1861 1.390 . S
C1859 H1863 0.950 . S
H1860 C1856 0.950 . S
C1861 C1859 1.390 . S
C1861 C1862 1.387 . S
C1861 H1864 0.950 . S
C1862 C1861 1.387 . S
C1862 C1865 1.387 . S
H1863 C1859 0.950 . S
H1864 C1861 0.950 . S
C1865 C1856 1.390 . S
C1865 H1858 0.950 . S
C1865 C1862 1.387 . S
C1866 C1867 1.387 . S
C1866 H1870 0.950 . S
C1866 C1875 1.390 . S
C1867 C1866 1.387 . S
C1867 C1869 1.387 . S
H1868 C1875 0.950 . S
C1869 C1867 1.387 . S
C1869 C1871 1.390 . S
C1869 H1873 0.950 . S
H1870 C1866 0.950 . S
C1871 C1869 1.390 . S
C1871 C1872 1.387 . S
C1871 H1874 0.950 . S
C1872 C1871 1.387 . S
C1872 C1875 1.387 . S
H1873 C1869 0.950 . S
H1874 C1871 0.950 . S
C1875 C1866 1.390 . S
C1875 H1868 0.950 . S
C1875 C1872 1.387 . S
C1876 C1877 1.387 . S
C1876 H1880 0.950 . S
C1876 C1885 1.390 . S
C1877 C1876 1.387 . S
C1877 C1879 1.387 . S
H1878 C1885 0.950 . S
C1879 C1877 1.387 . S
C1879 C1881 1.390 . S
C1879 H1883 0.950 . S
H1880 C1876 0.950 . S
C1881 C1879 1.390 . S
C1881 C1882 1.387 . S
C1881 H1884 0.950 . S
C1882 C1881 1.387 . S
C1882 C1885 1.387 . S
H1883 C1879 0.950 . S
H1884 C1881 0.950 . S
C1885 C1876 1.390 . S
C1885 H1878 0.950 . S
C1885 C1882 1.387 . S
C1886 C1887 1.387 . S
C1886 H1890 0.950 . S
C1886 C1895 1.390 . S
C1887 C1886 1.387 . S
C1887 C1889 1.387 . S
H1888 C1895 0.950 . S
C1889 C1887 1.387 . S
C1889 C1891 1.390 . S
C1889 H1893 0.950 . S
H1890 C1886 0.950 . S
C1891 C1889 1.390 . S
C1891 C1892 1.387 . S
C1891 H1894 0.950 . S
C1892 C1891 1.387 . S
C1892 C1895 1.387 . S
H1893 C1889 0.950 . S
H1894 C1891 0.950 . S
C1895 C1886 1.390 . S
C1895 H1888 0.950 . S
C1895 C1892 1.387 . S
C1896 C1897 1.387 . S
C1896 H1900 0.950 . S
C1896 C1905 1.390 . S
C1897 C1896 1.387 . S
C1897 C1899 1.387 . S
H1898 C1905 0.950 . S
C1899 C1897 1.387 . S
C1899 C1901 1.390 . S
C1899 H1903 0.950 . S
H1900 C1896 0.950 . S
C1901 C1899 1.390 . S
C1901 C1902 1.387 . S
C1901 H1904 0.950 . S
C1902 C1901 1.387 . S
C1902 C1905 1.387 . S
H1903 C1899 0.950 . S
H1904 C1901 0.950 . S
C1905 C1896 1.390 . S
C1905 H1898 0.950 . S
C1905 C1902 1.387 . S
C1906 C1907 1.387 . S
C1906 H1910 0.950 . S
C1906 C1915 1.390 . S
C1907 C1906 1.387 . S
C1907 C1909 1.387 . S
H1908 C1915 0.950 . S
C1909 C1907 1.387 . S
C1909 C1911 1.390 . S
C1909 H1913 0.950 . S
H1910 C1906 0.950 . S
C1911 C1909 1.390 . S
C1911 C1912 1.387 . S
C1911 H1914 0.950 . S
C1912 C1911 1.387 . S
C1912 C1915 1.387 . S
H1913 C1909 0.950 . S
H1914 C1911 0.950 . S
C1915 C1906 1.390 . S
C1915 H1908 0.950 . S
C1915 C1912 1.387 . S
C1916 C1917 1.387 . S
C1916 H1920 0.950 . S
C1916 C1925 1.390 . S
C1917 C1916 1.387 . S
C1917 C1919 1.387 . S
H1918 C1925 0.950 . S
C1919 C1917 1.387 . S
C1919 C1921 1.390 . S
C1919 H1923 0.950 . S
H1920 C1916 0.950 . S
C1921 C1919 1.390 . S
C1921 C1922 1.387 . S
C1921 H1924 0.950 . S
C1922 C1921 1.387 . S
C1922 C1925 1.387 . S
H1923 C1919 0.950 . S
H1924 C1921 0.950 . S
C1925 C1916 1.390 . S
C1925 H1918 0.950 . S
C1925 C1922 1.387 . S
C1926 C1927 1.387 . S
C1926 H1930 0.950 . S
C1926 C1935 1.390 . S
C1927 C1926 1.387 . S
C1927 C1929 1.387 . S
H1928 C1935 0.950 . S
C1929 C1927 1.387 . S
C1929 C1931 1.390 . S
C1929 H1933 0.950 . S
H1930 C1926 0.950 . S
C1931 C1929 1.390 . S
C1931 C1932 1.387 . S
C1931 H1934 0.950 . S
C1932 C1931 1.387 . S
C1932 C1935 1.387 . S
H1933 C1929 0.950 . S
H1934 C1931 0.950 . S
C1935 C1926 1.390 . S
C1935 H1928 0.950 . S
C1935 C1932 1.387 . S
C1936 C1937 1.387 . S
C1936 H1940 0.950 . S
C1936 C1945 1.390 . S
C1937 C1936 1.387 . S
C1937 C1939 1.387 . S
H1938 C1945 0.950 . S
C1939 C1937 1.387 . S
C1939 C1941 1.390 . S
C1939 H1943 0.950 . S
H1940 C1936 0.950 . S
C1941 C1939 1.390 . S
C1941 C1942 1.387 . S
C1941 H1944 0.950 . S
C1942 C1941 1.387 . S
C1942 C1945 1.387 . S
H1943 C1939 0.950 . S
H1944 C1941 0.950 . S
C1945 C1936 1.390 . S
C1945 H1938 0.950 . S
C1945 C1942 1.387 . S
C1946 C1947 1.387 . S
C1946 H1950 0.950 . S
C1946 C1955 1.390 . S
C1947 C1946 1.387 . S
C1947 C1949 1.387 . S
H1948 C1955 0.950 . S
C1949 C1947 1.387 . S
C1949 C1951 1.390 . S
C1949 H1953 0.950 . S
H1950 C1946 0.950 . S
C1951 C1949 1.390 . S
C1951 C1952 1.387 . S
C1951 H1954 0.950 . S
C1952 C1951 1.387 . S
C1952 C1955 1.387 . S
H1953 C1949 0.950 . S
H1954 C1951 0.950 . S
C1955 C1946 1.390 . S
C1955 H1948 0.950 . S
C1955 C1952 1.387 . S
C1956 C1957 1.387 . S
C1956 H1960 0.950 . S
C1956 C1965 1.390 . S
C1957 C1956 1.387 . S
C1957 C1959 1.387 . S
H1958 C1965 0.950 . S
C1959 C1957 1.387 . S
C1959 C1961 1.390 . S
C1959 H1963 0.950 . S
H1960 C1956 0.950 . S
C1961 C1959 1.390 . S
C1961 C1962 1.387 . S
C1961 H1964 0.950 . S
C1962 C1961 1.387 . S
C1962 C1965 1.387 . S
H1963 C1959 0.950 . S
H1964 C1961 0.950 . S
C1965 C1956 1.390 . S
C1965 H1958 0.950 . S
C1965 C1962 1.387 . S
C1966 C1967 1.387 . S
C1966 H1970 0.950 . S
C1966 C1975 1.390 . S
C1967 C1966 1.387 . S
C1967 C1969 1.387 . S
H1968 C1975 0.950 . S
C1969 C1967 1.387 . S
C1969 C1971 1.390 . S
C1969 H1973 0.950 . S
H1970 C1966 0.950 . S
C1971 C1969 1.390 . S
C1971 C1972 1.387 . S
C1971 H1974 0.950 . S
C1972 C1971 1.387 . S
C1972 C1975 1.387 . S
H1973 C1969 0.950 . S
H1974 C1971 0.950 . S
C1975 C1966 1.390 . S
C1975 H1968 0.950 . S
C1975 C1972 1.387 . S
C1976 C1977 1.387 . S
C1976 H1980 0.950 . S
C1976 C1985 1.390 . S
C1977 C1976 1.387 . S
C1977 C1979 1.387 . S
H1978 C1985 0.950 . S
C1979 C1977 1.387 . S
C1979 C1981 1.390 . S
C1979 H1983 0.950 . S
H1980 C1976 0.950 . S
C1981 C1979 1.390 . S
C1981 C1982 1.387 . S
C1981 H1984 0.950 . S
C1982 C1981 1.387 . S
C1982 C1985 1.387 . S
H1983 C1979 0.950 . S
H1984 C1981 0.950 . S
C1985 C1976 1.390 . S
C1985 H1978 0.950 . S
C1985 C1982 1.387 . S
C1986 C1987 1.387 . S
C1986 H1990 0.950 . S
C1986 C1995 1.390 . S
C1987 C1986 1.387 . S
C1987 C1989 1.387 . S
H1988 C1995 0.950 . S
C1989 C1987 1.387 . S
C1989 C1991 1.390 . S
C1989 H1993 0.950 . S
H1990 C1986 0.950 . S
C1991 C1989 1.390 . S
C1991 C1992 1.387 . S
C1991 H1994 0.950 . S
C1992 C1991 1.387 . S
C1992 C1995 1.387 . S
H1993 C1989 0.950 . S
H1994 C1991 0.950 . S
C1995 C1986 1.390 . S
C1995 H1988 0.950 . S
C1995 C1992 1.387 . S
C1996 C1997 1.387 . S
C1996 H2000 0.950 . S
C1996 C2005 1.390 . S
C1997 C1996 1.387 . S
C1997 C1999 1.387 . S
H1998 C2005 0.950 . S
C1999 C1997 1.387 . S
C1999 C2001 1.390 . S
C1999 H2003 0.950 . S
H2000 C1996 0.950 . S
C2001 C1999 1.390 . S
C2001 C2002 1.387 . S
C2001 H2004 0.950 . S
C2002 C2001 1.387 . S
C2002 C2005 1.387 . S
H2003 C1999 0.950 . S
H2004 C2001 0.950 . S
C2005 C1996 1.390 . S
C2005 H1998 0.950 . S
C2005 C2002 1.387 . S
C2006 C2007 1.387 . S
C2006 H2010 0.950 . S
C2006 C2015 1.390 . S
C2007 C2006 1.387 . S
C2007 C2009 1.387 . S
H2008 C2015 0.950 . S
C2009 C2007 1.387 . S
C2009 C2011 1.390 . S
C2009 H2013 0.950 . S
H2010 C2006 0.950 . S
C2011 C2009 1.390 . S
C2011 C2012 1.387 . S
C2011 H2014 0.950 . S
C2012 C2011 1.387 . S
C2012 C2015 1.387 . S
H2013 C2009 0.950 . S
H2014 C2011 0.950 . S
C2015 C2006 1.390 . S
C2015 H2008 0.950 . S
C2015 C2012 1.387 . S
C2016 C2017 1.387 . S
C2016 H2020 0.950 . S
C2016 C2025 1.390 . S
C2017 C2016 1.387 . S
C2017 C2019 1.387 . S
H2018 C2025 0.950 . S
C2019 C2017 1.387 . S
C2019 C2021 1.390 . S
C2019 H2023 0.950 . S
H2020 C2016 0.950 . S
C2021 C2019 1.390 . S
C2021 C2022 1.387 . S
C2021 H2024 0.950 . S
C2022 C2021 1.387 . S
C2022 C2025 1.387 . S
H2023 C2019 0.950 . S
H2024 C2021 0.950 . S
C2025 C2016 1.390 . S
C2025 H2018 0.950 . S
C2025 C2022 1.387 . S
C2026 C2027 1.387 . S
C2026 H2030 0.950 . S
C2026 C2035 1.390 . S
C2027 C2026 1.387 . S
C2027 C2029 1.387 . S
H2028 C2035 0.950 . S
C2029 C2027 1.387 . S
C2029 C2031 1.390 . S
C2029 H2033 0.950 1_565 S
H2030 C2026 0.950 . S
C2031 C2029 1.390 . S
C2031 C2032 1.387 . S
C2031 H2034 0.950 1_565 S
C2032 C2031 1.387 . S
C2032 C2035 1.387 . S
H2033 C2029 0.950 1_545 S
H2034 C2031 0.950 1_545 S
C2035 C2026 1.390 . S
C2035 H2028 0.950 . S
C2035 C2032 1.387 . S
C2036 C2037 1.387 . S
C2036 H2040 0.950 . S
C2036 C2045 1.390 . S
C2037 C2036 1.387 . S
C2037 C2039 1.387 . S
H2038 C2045 0.950 . S
C2039 C2037 1.387 . S
C2039 C2041 1.390 . S
C2039 H2043 0.950 . S
H2040 C2036 0.950 . S
C2041 C2039 1.390 . S
C2041 C2042 1.387 . S
C2041 H2044 0.950 . S
C2042 C2041 1.387 . S
C2042 C2045 1.387 . S
H2043 C2039 0.950 . S
H2044 C2041 0.950 . S
C2045 C2036 1.390 . S
C2045 H2038 0.950 . S
C2045 C2042 1.387 . S
C2046 C2047 1.387 . S
C2046 H2050 0.950 . S
C2046 C2055 1.390 . S
C2047 C2046 1.387 . S
C2047 C2049 1.387 . S
H2048 C2055 0.950 . S
C2049 C2047 1.387 . S
C2049 C2051 1.390 . S
C2049 H2053 0.950 1_545 S
H2050 C2046 0.950 . S
C2051 C2049 1.390 . S
C2051 C2052 1.387 . S
C2051 H2054 0.950 1_545 S
C2052 C2051 1.387 . S
C2052 C2055 1.387 . S
H2053 C2049 0.950 1_565 S
H2054 C2051 0.950 1_565 S
C2055 C2046 1.390 . S
C2055 H2048 0.950 . S
C2055 C2052 1.387 . S
C2056 C2057 1.387 . S
C2056 H2060 0.950 . S
C2056 C2065 1.390 . S
C2057 C2056 1.387 . S
C2057 C2059 1.387 . S
H2058 C2065 0.950 . S
C2059 C2057 1.387 . S
C2059 C2061 1.390 . S
C2059 H2063 0.950 . S
H2060 C2056 0.950 . S
C2061 C2059 1.390 . S
C2061 C2062 1.387 . S
C2061 H2064 0.950 . S
C2062 C2061 1.387 . S
C2062 C2065 1.387 . S
H2063 C2059 0.950 . S
H2064 C2061 0.950 . S
C2065 C2056 1.390 . S
C2065 H2058 0.950 . S
C2065 C2062 1.387 . S
C2066 C2067 1.387 . S
C2066 H2070 0.950 . S
C2066 C2075 1.390 . S
C2067 C2066 1.387 . S
C2067 C2069 1.387 . S
H2068 C2075 0.950 . S
C2069 C2067 1.387 . S
C2069 C2071 1.390 . S
C2069 H2073 0.950 . S
H2070 C2066 0.950 . S
C2071 C2069 1.390 . S
C2071 C2072 1.387 . S
C2071 H2074 0.950 . S
C2072 C2071 1.387 . S
C2072 C2075 1.387 . S
H2073 C2069 0.950 . S
H2074 C2071 0.950 . S
C2075 C2066 1.390 . S
C2075 H2068 0.950 . S
C2075 C2072 1.387 . S
C2076 C2077 1.387 . S
C2076 H2080 0.950 . S
C2076 C2085 1.390 . S
C2077 C2076 1.387 . S
C2077 C2079 1.387 . S
H2078 C2085 0.950 . S
C2079 C2077 1.387 . S
C2079 C2081 1.390 . S
C2079 H2083 0.950 . S
H2080 C2076 0.950 . S
C2081 C2079 1.390 . S
C2081 C2082 1.387 . S
C2081 H2084 0.950 . S
C2082 C2081 1.387 . S
C2082 C2085 1.387 . S
H2083 C2079 0.950 . S
H2084 C2081 0.950 . S
C2085 C2076 1.390 . S
C2085 H2078 0.950 . S
C2085 C2082 1.387 . S
C2086 C2087 1.387 . S
C2086 H2090 0.950 . S
C2086 C2095 1.390 . S
C2087 C2086 1.387 . S
C2087 C2089 1.387 . S
H2088 C2095 0.950 . S
C2089 C2087 1.387 . S
C2089 C2091 1.390 . S
C2089 H2093 0.950 . S
H2090 C2086 0.950 . S
C2091 C2089 1.390 . S
C2091 C2092 1.387 . S
C2091 H2094 0.950 . S
C2092 C2091 1.387 . S
C2092 C2095 1.387 . S
H2093 C2089 0.950 . S
H2094 C2091 0.950 . S
C2095 C2086 1.390 . S
C2095 H2088 0.950 . S
C2095 C2092 1.387 . S
C2096 C2097 1.387 . S
C2096 H2100 0.950 . S
C2096 C2105 1.390 . S
C2097 C2096 1.387 . S
C2097 C2099 1.387 . S
H2098 C2105 0.950 . S
C2099 C2097 1.387 . S
C2099 C2101 1.390 . S
C2099 H2103 0.950 . S
H2100 C2096 0.950 . S
C2101 C2099 1.390 . S
C2101 C2102 1.387 . S
C2101 H2104 0.950 . S
C2102 C2101 1.387 . S
C2102 C2105 1.387 . S
H2103 C2099 0.950 . S
H2104 C2101 0.950 . S
C2105 C2096 1.390 . S
C2105 H2098 0.950 . S
C2105 C2102 1.387 . S
C2106 C2107 1.387 . S
C2106 H2110 0.950 1_565 S
C2106 C2115 1.390 . S
C2107 C2106 1.387 . S
C2107 C2109 1.387 . S
H2108 C2115 0.950 1_545 S
C2109 C2107 1.387 . S
C2109 C2111 1.390 . S
C2109 H2113 0.950 . S
H2110 C2106 0.950 1_545 S
C2111 C2109 1.390 . S
C2111 C2112 1.387 . S
C2111 H2114 0.950 . S
C2112 C2111 1.387 . S
C2112 C2115 1.387 . S
H2113 C2109 0.950 . S
H2114 C2111 0.950 . S
C2115 C2106 1.390 . S
C2115 H2108 0.950 1_565 S
C2115 C2112 1.387 . S
C2116 C2117 1.387 . S
C2116 H2120 0.950 . S
C2116 C2125 1.390 . S
C2117 C2116 1.387 . S
C2117 C2119 1.387 . S
H2118 C2125 0.950 . S
C2119 C2117 1.387 . S
C2119 C2121 1.390 . S
C2119 H2123 0.950 . S
H2120 C2116 0.950 . S
C2121 C2119 1.390 . S
C2121 C2122 1.387 . S
C2121 H2124 0.950 . S
C2122 C2121 1.387 . S
C2122 C2125 1.387 . S
H2123 C2119 0.950 . S
H2124 C2121 0.950 . S
C2125 C2116 1.390 . S
C2125 H2118 0.950 . S
C2125 C2122 1.387 . S
C2126 C2127 1.387 . S
C2126 H2130 0.950 1_545 S
C2126 C2135 1.390 . S
C2127 C2126 1.387 . S
C2127 C2129 1.387 . S
H2128 C2135 0.950 1_565 S
C2129 C2127 1.387 . S
C2129 C2131 1.390 . S
C2129 H2133 0.950 . S
H2130 C2126 0.950 1_565 S
C2131 C2129 1.390 . S
C2131 C2132 1.387 . S
C2131 H2134 0.950 . S
C2132 C2131 1.387 . S
C2132 C2135 1.387 . S
H2133 C2129 0.950 . S
H2134 C2131 0.950 . S
C2135 C2126 1.390 . S
C2135 H2128 0.950 1_545 S
C2135 C2132 1.387 . S
C2136 C2137 1.387 . S
C2136 H2140 0.950 . S
C2136 C2145 1.390 . S
C2137 C2136 1.387 . S
C2137 C2139 1.387 . S
H2138 C2145 0.950 . S
C2139 C2137 1.387 . S
C2139 C2141 1.390 . S
C2139 H2143 0.950 . S
H2140 C2136 0.950 . S
C2141 C2139 1.390 . S
C2141 C2142 1.387 . S
C2141 H2144 0.950 . S
C2142 C2141 1.387 . S
C2142 C2145 1.387 . S
H2143 C2139 0.950 . S
H2144 C2141 0.950 . S
C2145 C2136 1.390 . S
C2145 H2138 0.950 . S
C2145 C2142 1.387 . S
C2146 C2147 1.387 . S
C2146 H2150 0.950 . S
C2146 C2155 1.390 . S
C2147 C2146 1.387 . S
C2147 C2149 1.387 . S
H2148 C2155 0.950 . S
C2149 C2147 1.387 . S
C2149 C2151 1.390 . S
C2149 H2153 0.950 . S
H2150 C2146 0.950 . S
C2151 C2149 1.390 . S
C2151 C2152 1.387 . S
C2151 H2154 0.950 . S
C2152 C2151 1.387 . S
C2152 C2155 1.387 . S
H2153 C2149 0.950 . S
H2154 C2151 0.950 . S
C2155 C2146 1.390 . S
C2155 H2148 0.950 . S
C2155 C2152 1.387 . S
C2156 C2157 1.387 . S
C2156 H2160 0.950 . S
C2156 C2165 1.390 . S
C2157 C2156 1.387 . S
C2157 C2159 1.387 . S
H2158 C2165 0.950 . S
C2159 C2157 1.387 . S
C2159 C2161 1.390 . S
C2159 H2163 0.950 . S
H2160 C2156 0.950 . S
C2161 C2159 1.390 . S
C2161 C2162 1.387 . S
C2161 H2164 0.950 . S
C2162 C2161 1.387 . S
C2162 C2165 1.387 . S
H2163 C2159 0.950 . S
H2164 C2161 0.950 . S
C2165 C2156 1.390 . S
C2165 H2158 0.950 . S
C2165 C2162 1.387 . S
C2166 C2167 1.387 . S
C2166 H2170 0.950 . S
C2166 C2175 1.390 . S
C2167 C2166 1.387 . S
C2167 C2169 1.387 . S
H2168 C2175 0.950 . S
C2169 C2167 1.387 . S
C2169 C2171 1.390 . S
C2169 H2173 0.950 . S
H2170 C2166 0.950 . S
C2171 C2169 1.390 . S
C2171 C2172 1.387 . S
C2171 H2174 0.950 . S
C2172 C2171 1.387 . S
C2172 C2175 1.387 . S
H2173 C2169 0.950 . S
H2174 C2171 0.950 . S
C2175 C2166 1.390 . S
C2175 H2168 0.950 . S
C2175 C2172 1.387 . S
C2176 C2177 1.387 1_455 S
C2176 H2180 0.950 . S
C2176 C2185 1.390 1_556 S
C2177 C2176 1.387 1_655 S
C2177 C2179 1.387 . S
H2178 C2185 0.950 . S
C2179 C2177 1.387 . S
C2179 C2181 1.390 1_556 S
C2179 H2183 0.950 . S
H2180 C2176 0.950 . S
C2181 C2179 1.390 1_554 S
C2181 C2182 1.387 1_655 S
C2181 H2184 0.950 . S
C2182 C2181 1.387 1_455 S
C2182 C2185 1.387 . S
H2183 C2179 0.950 . S
H2184 C2181 0.950 . S
C2185 C2176 1.390 1_554 S
C2185 H2178 0.950 . S
C2185 C2182 1.387 . S
C2186 C2187 1.387 . S
C2186 H2190 0.950 . S
C2186 C2195 1.390 . S
C2187 C2186 1.387 . S
C2187 C2189 1.387 1_554 S
H2188 C2195 0.950 . S
C2189 C2187 1.387 1_556 S
C2189 C2191 1.390 . S
C2189 H2193 0.950 . S
H2190 C2186 0.950 . S
C2191 C2189 1.390 . S
C2191 C2192 1.387 . S
C2191 H2194 0.950 . S
C2192 C2191 1.387 . S
C2192 C2195 1.387 1_556 S
H2193 C2189 0.950 . S
H2194 C2191 0.950 . S
C2195 C2186 1.390 . S
C2195 H2188 0.950 . S
C2195 C2192 1.387 1_554 S
C2196 C2197 1.387 1_655 S
C2196 H2200 0.950 . S
C2196 C2205 1.390 . S
C2197 C2196 1.387 1_455 S
C2197 C2199 1.387 . S
H2198 C2205 0.950 . S
C2199 C2197 1.387 . S
C2199 C2201 1.390 . S
C2199 H2203 0.950 . S
H2200 C2196 0.950 . S
C2201 C2199 1.390 . S
C2201 C2202 1.387 1_455 S
C2201 H2204 0.950 . S
C2202 C2201 1.387 1_655 S
C2202 C2205 1.387 . S
H2203 C2199 0.950 . S
H2204 C2201 0.950 . S
C2205 C2196 1.390 . S
C2205 H2198 0.950 . S
C2205 C2202 1.387 . S
C2206 C2207 1.387 . S
C2206 H2210 0.950 . S
C2206 C2215 1.390 . S
C2207 C2206 1.387 . S
C2207 C2209 1.387 . S
H2208 C2215 0.950 . S
C2209 C2207 1.387 . S
C2209 C2211 1.390 . S
C2209 H2213 0.950 . S
H2210 C2206 0.950 . S
C2211 C2209 1.390 . S
C2211 C2212 1.387 . S
C2211 H2214 0.950 . S
C2212 C2211 1.387 . S
C2212 C2215 1.387 . S
H2213 C2209 0.950 . S
H2214 C2211 0.950 . S
C2215 C2206 1.390 . S
C2215 H2208 0.950 . S
C2215 C2212 1.387 . S
C2216 C2217 1.387 . S
C2216 H2220 0.950 . S
C2216 C2225 1.390 1_556 S
C2217 C2216 1.387 . S
C2217 C2219 1.387 . S
H2218 C2225 0.950 . S
C2219 C2217 1.387 . S
C2219 C2221 1.390 1_556 S
C2219 H2223 0.950 . S
H2220 C2216 0.950 . S
C2221 C2219 1.390 1_554 S
C2221 C2222 1.387 . S
C2221 H2224 0.950 . S
C2222 C2221 1.387 . S
C2222 C2225 1.387 . S
H2223 C2219 0.950 . S
H2224 C2221 0.950 . S
C2225 C2216 1.390 1_554 S
C2225 H2218 0.950 . S
C2225 C2222 1.387 . S
C2226 C2227 1.387 1_455 S
C2226 H2230 0.950 . S
C2226 C2235 1.390 . S
C2227 C2226 1.387 1_655 S
C2227 C2229 1.387 . S
H2228 C2235 0.950 . S
C2229 C2227 1.387 . S
C2229 C2231 1.390 . S
C2229 H2233 0.950 . S
H2230 C2226 0.950 . S
C2231 C2229 1.390 . S
C2231 C2232 1.387 1_655 S
C2231 H2234 0.950 . S
C2232 C2231 1.387 1_455 S
C2232 C2235 1.387 . S
H2233 C2229 0.950 . S
H2234 C2231 0.950 . S
C2235 C2226 1.390 . S
C2235 H2228 0.950 . S
C2235 C2232 1.387 . S
C2236 C2237 1.387 . S
C2236 H2240 0.950 . S
C2236 C2245 1.390 . S
C2237 C2236 1.387 . S
C2237 C2239 1.387 . S
H2238 C2245 0.950 . S
C2239 C2237 1.387 . S
C2239 C2241 1.390 . S
C2239 H2243 0.950 . S
H2240 C2236 0.950 . S
C2241 C2239 1.390 . S
C2241 C2242 1.387 . S
C2241 H2244 0.950 . S
C2242 C2241 1.387 . S
C2242 C2245 1.387 . S
H2243 C2239 0.950 . S
H2244 C2241 0.950 . S
C2245 C2236 1.390 . S
C2245 H2238 0.950 . S
C2245 C2242 1.387 . S
C2246 C2247 1.387 . S
C2246 H2250 0.950 . S
C2246 C2255 1.390 . S
C2247 C2246 1.387 . S
C2247 C2249 1.387 1_445 S
H2248 C2255 0.950 . S
C2249 C2247 1.387 1_665 S
C2249 C2251 1.390 . S
C2249 H2253 0.950 . S
H2250 C2246 0.950 . S
C2251 C2249 1.390 . S
C2251 C2252 1.387 . S
C2251 H2254 0.950 . S
C2252 C2251 1.387 . S
C2252 C2255 1.387 1_665 S
H2253 C2249 0.950 . S
H2254 C2251 0.950 . S
C2255 C2246 1.390 . S
C2255 H2248 0.950 . S
C2255 C2252 1.387 1_445 S
C2256 C2257 1.387 . S
C2256 H2260 0.950 . S
C2256 C2265 1.390 . S
C2257 C2256 1.387 . S
C2257 C2259 1.387 . S
H2258 C2265 0.950 . S
C2259 C2257 1.387 . S
C2259 C2261 1.390 . S
C2259 H2263 0.950 . S
H2260 C2256 0.950 . S
C2261 C2259 1.390 . S
C2261 C2262 1.387 . S
C2261 H2264 0.950 . S
C2262 C2261 1.387 . S
C2262 C2265 1.387 . S
H2263 C2259 0.950 . S
H2264 C2261 0.950 . S
C2265 C2256 1.390 . S
C2265 H2258 0.950 . S
C2265 C2262 1.387 . S
C2266 C2267 1.387 1_545 S
C2266 H2270 0.950 . S
C2266 C2275 1.390 . S
C2267 C2266 1.387 1_565 S
C2267 C2269 1.387 . S
H2268 C2275 0.950 . S
C2269 C2267 1.387 . S
C2269 C2271 1.390 . S
C2269 H2273 0.950 . S
H2270 C2266 0.950 . S
C2271 C2269 1.390 . S
C2271 C2272 1.387 1_565 S
C2271 H2274 0.950 . S
C2272 C2271 1.387 1_545 S
C2272 C2275 1.387 . S
H2273 C2269 0.950 . S
H2274 C2271 0.950 . S
C2275 C2266 1.390 . S
C2275 H2268 0.950 . S
C2275 C2272 1.387 . S
C2276 C2277 1.387 . S
C2276 H2280 0.950 . S
C2276 C2285 1.390 . S
C2277 C2276 1.387 . S
C2277 C2279 1.387 . S
H2278 C2285 0.950 . S
C2279 C2277 1.387 . S
C2279 C2281 1.390 . S
C2279 H2283 0.950 . S
H2280 C2276 0.950 . S
C2281 C2279 1.390 . S
C2281 C2282 1.387 . S
C2281 H2284 0.950 . S
C2282 C2281 1.387 . S
C2282 C2285 1.387 . S
H2283 C2279 0.950 . S
H2284 C2281 0.950 . S
C2285 C2276 1.390 . S
C2285 H2278 0.950 . S
C2285 C2282 1.387 . S
C2286 C2287 1.387 . S
C2286 H2290 0.950 . S
C2286 C2295 1.390 1_565 S
C2287 C2286 1.387 . S
C2287 C2289 1.387 . S
H2288 C2295 0.950 . S
C2289 C2287 1.387 . S
C2289 C2291 1.390 1_565 S
C2289 H2293 0.950 . S
H2290 C2286 0.950 . S
C2291 C2289 1.390 1_545 S
C2291 C2292 1.387 . S
C2291 H2294 0.950 . S
C2292 C2291 1.387 . S
C2292 C2295 1.387 . S
H2293 C2289 0.950 . S
H2294 C2291 0.950 . S
C2295 C2286 1.390 1_545 S
C2295 H2288 0.950 . S
C2295 C2292 1.387 . S
C2296 C2297 1.387 . S
C2296 H2300 0.950 . S
C2296 C2305 1.390 . S
C2297 C2296 1.387 . S
C2297 C2299 1.387 . S
H2298 C2305 0.950 . S
C2299 C2297 1.387 . S
C2299 C2301 1.390 . S
C2299 H2303 0.950 . S
H2300 C2296 0.950 . S
C2301 C2299 1.390 . S
C2301 C2302 1.387 . S
C2301 H2304 0.950 . S
C2302 C2301 1.387 . S
C2302 C2305 1.387 . S
H2303 C2299 0.950 . S
H2304 C2301 0.950 . S
C2305 C2296 1.390 . S
C2305 H2298 0.950 . S
C2305 C2302 1.387 . S
C2306 C2307 1.387 . S
C2306 H2310 0.950 . S
C2306 C2315 1.390 . S
C2307 C2306 1.387 . S
C2307 C2309 1.387 . S
H2308 C2315 0.950 . S
C2309 C2307 1.387 . S
C2309 C2311 1.390 . S
C2309 H2313 0.950 . S
H2310 C2306 0.950 . S
C2311 C2309 1.390 . S
C2311 C2312 1.387 . S
C2311 H2314 0.950 . S
C2312 C2311 1.387 . S
C2312 C2315 1.387 . S
H2313 C2309 0.950 . S
H2314 C2311 0.950 . S
C2315 C2306 1.390 . S
C2315 H2308 0.950 . S
C2315 C2312 1.387 . S
C2316 C2317 1.387 . S
C2316 H2320 0.950 . S
C2316 C2325 1.390 . S
C2317 C2316 1.387 . S
C2317 C2319 1.387 . S
H2318 C2325 0.950 . S
C2319 C2317 1.387 . S
C2319 C2321 1.390 . S
C2319 H2323 0.950 . S
H2320 C2316 0.950 . S
C2321 C2319 1.390 . S
C2321 C2322 1.387 . S
C2321 H2324 0.950 . S
C2322 C2321 1.387 . S
C2322 C2325 1.387 . S
H2323 C2319 0.950 . S
H2324 C2321 0.950 . S
C2325 C2316 1.390 . S
C2325 H2318 0.950 . S
C2325 C2322 1.387 . S
C2326 C2327 1.387 1_556 S
C2326 H2330 0.950 . S
C2326 C2335 1.390 . S
C2327 C2326 1.387 1_554 S
C2327 C2329 1.387 1_545 S
H2328 C2335 0.950 . S
C2329 C2327 1.387 1_565 S
C2329 C2331 1.390 . S
C2329 H2333 0.950 . S
H2330 C2326 0.950 . S
C2331 C2329 1.390 . S
C2331 C2332 1.387 1_554 S
C2331 H2334 0.950 . S
C2332 C2331 1.387 1_556 S
C2332 C2335 1.387 1_565 S
H2333 C2329 0.950 . S
H2334 C2331 0.950 . S
C2335 C2326 1.390 . S
C2335 H2328 0.950 . S
C2335 C2332 1.387 1_545 S
C2336 C2337 1.387 . S
C2336 H2340 0.950 . S
C2336 C2345 1.390 . S
C2337 C2336 1.387 . S
C2337 C2339 1.387 1_455 S
H2338 C2345 0.950 . S
C2339 C2337 1.387 1_655 S
C2339 C2341 1.390 . S
C2339 H2343 0.950 . S
H2340 C2336 0.950 . S
C2341 C2339 1.390 . S
C2341 C2342 1.387 1_655 S
C2341 H2344 0.950 . S
C2342 C2341 1.387 1_455 S
C2342 C2345 1.387 . S
H2343 C2339 0.950 . S
H2344 C2341 0.950 . S
C2345 C2336 1.390 . S
C2345 H2338 0.950 . S
C2345 C2342 1.387 . S
C2346 C2347 1.387 . S
C2346 H2350 0.950 . S
C2346 C2355 1.390 . S
C2347 C2346 1.387 . S
C2347 C2349 1.387 . S
H2348 C2355 0.950 . S
C2349 C2347 1.387 . S
C2349 C2351 1.390 . S
C2349 H2353 0.950 . S
H2350 C2346 0.950 . S
C2351 C2349 1.390 . S
C2351 C2352 1.387 . S
C2351 H2354 0.950 . S
C2352 C2351 1.387 . S
C2352 C2355 1.387 . S
H2353 C2349 0.950 . S
H2354 C2351 0.950 . S
C2355 C2346 1.390 . S
C2355 H2348 0.950 . S
C2355 C2352 1.387 . S
C2356 C2357 1.387 . S
C2356 H2360 0.950 . S
C2356 C2365 1.390 . S
C2357 C2356 1.387 . S
C2357 C2359 1.387 1_655 S
H2358 C2365 0.950 . S
C2359 C2357 1.387 1_455 S
C2359 C2361 1.390 . S
C2359 H2363 0.950 . S
H2360 C2356 0.950 . S
C2361 C2359 1.390 . S
C2361 C2362 1.387 1_455 S
C2361 H2364 0.950 . S
C2362 C2361 1.387 1_655 S
C2362 C2365 1.387 . S
H2363 C2359 0.950 . S
H2364 C2361 0.950 . S
C2365 C2356 1.390 . S
C2365 H2358 0.950 . S
C2365 C2362 1.387 . S
C2366 C2367 1.387 . S
C2366 H2370 0.950 . S
C2366 C2375 1.390 . S
C2367 C2366 1.387 . S
C2367 C2369 1.387 . S
H2368 C2375 0.950 . S
C2369 C2367 1.387 . S
C2369 C2371 1.390 . S
C2369 H2373 0.950 . S
H2370 C2366 0.950 . S
C2371 C2369 1.390 . S
C2371 C2372 1.387 . S
C2371 H2374 0.950 . S
C2372 C2371 1.387 . S
C2372 C2375 1.387 . S
H2373 C2369 0.950 . S
H2374 C2371 0.950 . S
C2375 C2366 1.390 . S
C2375 H2368 0.950 . S
C2375 C2372 1.387 . S
C2376 C2377 1.387 1_655 S
C2376 H2380 0.950 . S
C2376 C2385 1.390 . S
C2377 C2376 1.387 1_455 S
C2377 C2379 1.387 . S
H2378 C2385 0.950 . S
C2379 C2377 1.387 . S
C2379 C2381 1.390 . S
C2379 H2383 0.950 . S
H2380 C2376 0.950 . S
C2381 C2379 1.390 . S
C2381 C2382 1.387 . S
C2381 H2384 0.950 . S
C2382 C2381 1.387 . S
C2382 C2385 1.387 1_455 S
H2383 C2379 0.950 . S
H2384 C2381 0.950 . S
C2385 C2376 1.390 . S
C2385 H2378 0.950 . S
C2385 C2382 1.387 1_655 S
C2386 C2387 1.387 . S
C2386 H2390 0.950 . S
C2386 C2395 1.390 . S
C2387 C2386 1.387 . S
C2387 C2389 1.387 . S
H2388 C2395 0.950 . S
C2389 C2387 1.387 . S
C2389 C2391 1.390 . S
C2389 H2393 0.950 . S
H2390 C2386 0.950 . S
C2391 C2389 1.390 . S
C2391 C2392 1.387 . S
C2391 H2394 0.950 . S
C2392 C2391 1.387 . S
C2392 C2395 1.387 . S
H2393 C2389 0.950 . S
H2394 C2391 0.950 . S
C2395 C2386 1.390 . S
C2395 H2388 0.950 . S
C2395 C2392 1.387 . S
C2396 C2397 1.387 1_455 S
C2396 H2400 0.950 . S
C2396 C2405 1.390 . S
C2397 C2396 1.387 1_655 S
C2397 C2399 1.387 . S
H2398 C2405 0.950 . S
C2399 C2397 1.387 . S
C2399 C2401 1.390 . S
C2399 H2403 0.950 . S
H2400 C2396 0.950 . S
C2401 C2399 1.390 . S
C2401 C2402 1.387 . S
C2401 H2404 0.950 . S
C2402 C2401 1.387 . S
C2402 C2405 1.387 1_655 S
H2403 C2399 0.950 . S
H2404 C2401 0.950 . S
C2405 C2396 1.390 . S
C2405 H2398 0.950 . S
C2405 C2402 1.387 1_455 S
C2406 C2407 1.387 . S
C2406 H2410 0.950 . S
C2406 C2415 1.390 . S
C2407 C2406 1.387 . S
C2407 C2409 1.387 . S
H2408 C2415 0.950 . S
C2409 C2407 1.387 . S
C2409 C2411 1.390 . S
C2409 H2413 0.950 . S
H2410 C2406 0.950 . S
C2411 C2409 1.390 . S
C2411 C2412 1.387 . S
C2411 H2414 0.950 . S
C2412 C2411 1.387 . S
C2412 C2415 1.387 . S
H2413 C2409 0.950 . S
H2414 C2411 0.950 . S
C2415 C2406 1.390 . S
C2415 H2408 0.950 . S
C2415 C2412 1.387 . S
C2416 C2417 1.387 . S
C2416 H2420 0.950 . S
C2416 C2425 1.390 . S
C2417 C2416 1.387 . S
C2417 C2419 1.387 . S
H2418 C2425 0.950 . S
C2419 C2417 1.387 . S
C2419 C2421 1.390 . S
C2419 H2423 0.950 . S
H2420 C2416 0.950 . S
C2421 C2419 1.390 . S
C2421 C2422 1.387 . S
C2421 H2424 0.950 . S
C2422 C2421 1.387 . S
C2422 C2425 1.387 . S
H2423 C2419 0.950 . S
H2424 C2421 0.950 . S
C2425 C2416 1.390 . S
C2425 H2418 0.950 . S
C2425 C2422 1.387 . S
C2426 C2427 1.387 . S
C2426 H2430 0.950 . S
C2426 C2435 1.390 . S
C2427 C2426 1.387 . S
C2427 C2429 1.387 . S
H2428 C2435 0.950 . S
C2429 C2427 1.387 . S
C2429 C2431 1.390 . S
C2429 H2433 0.950 . S
H2430 C2426 0.950 . S
C2431 C2429 1.390 . S
C2431 C2432 1.387 . S
C2431 H2434 0.950 . S
C2432 C2431 1.387 . S
C2432 C2435 1.387 . S
H2433 C2429 0.950 . S
H2434 C2431 0.950 . S
C2435 C2426 1.390 . S
C2435 H2428 0.950 . S
C2435 C2432 1.387 . S
C2436 C2437 1.387 . S
C2436 H2440 0.950 . S
C2436 C2445 1.390 . S
C2437 C2436 1.387 . S
C2437 C2439 1.387 . S
H2438 C2445 0.950 . S
C2439 C2437 1.387 . S
C2439 C2441 1.390 . S
C2439 H2443 0.950 . S
H2440 C2436 0.950 . S
C2441 C2439 1.390 . S
C2441 C2442 1.387 . S
C2441 H2444 0.950 . S
C2442 C2441 1.387 . S
C2442 C2445 1.387 . S
H2443 C2439 0.950 . S
H2444 C2441 0.950 . S
C2445 C2436 1.390 . S
C2445 H2438 0.950 . S
C2445 C2442 1.387 . S
C2446 C2447 1.387 . S
C2446 H2450 0.950 . S
C2446 C2455 1.390 . S
C2447 C2446 1.387 . S
C2447 C2449 1.387 . S
H2448 C2455 0.950 . S
C2449 C2447 1.387 . S
C2449 C2451 1.390 . S
C2449 H2453 0.950 . S
H2450 C2446 0.950 . S
C2451 C2449 1.390 . S
C2451 C2452 1.387 . S
C2451 H2454 0.950 . S
C2452 C2451 1.387 . S
C2452 C2455 1.387 . S
H2453 C2449 0.950 . S
H2454 C2451 0.950 . S
C2455 C2446 1.390 . S
C2455 H2448 0.950 . S
C2455 C2452 1.387 . S
C2456 C2457 1.387 . S
C2456 H2460 0.950 . S
C2456 C2465 1.390 . S
C2457 C2456 1.387 . S
C2457 C2459 1.387 . S
H2458 C2465 0.950 . S
C2459 C2457 1.387 . S
C2459 C2461 1.390 . S
C2459 H2463 0.950 . S
H2460 C2456 0.950 . S
C2461 C2459 1.390 . S
C2461 C2462 1.387 . S
C2461 H2464 0.950 . S
C2462 C2461 1.387 . S
C2462 C2465 1.387 . S
H2463 C2459 0.950 . S
H2464 C2461 0.950 . S
C2465 C2456 1.390 . S
C2465 H2458 0.950 . S
C2465 C2462 1.387 . S
C2466 C2467 1.387 . S
C2466 H2470 0.950 . S
C2466 C2475 1.390 . S
C2467 C2466 1.387 . S
C2467 C2469 1.387 . S
H2468 C2475 0.950 . S
C2469 C2467 1.387 . S
C2469 C2471 1.390 . S
C2469 H2473 0.950 . S
H2470 C2466 0.950 . S
C2471 C2469 1.390 . S
C2471 C2472 1.387 . S
C2471 H2474 0.950 . S
C2472 C2471 1.387 . S
C2472 C2475 1.387 . S
H2473 C2469 0.950 . S
H2474 C2471 0.950 . S
C2475 C2466 1.390 . S
C2475 H2468 0.950 . S
C2475 C2472 1.387 . S
C2476 C2477 1.387 . S
C2476 H2480 0.950 . S
C2476 C2485 1.390 . S
C2477 C2476 1.387 . S
C2477 C2479 1.387 . S
H2478 C2485 0.950 . S
C2479 C2477 1.387 . S
C2479 C2481 1.390 . S
C2479 H2483 0.950 . S
H2480 C2476 0.950 . S
C2481 C2479 1.390 . S
C2481 C2482 1.387 . S
C2481 H2484 0.950 . S
C2482 C2481 1.387 . S
C2482 C2485 1.387 . S
H2483 C2479 0.950 . S
H2484 C2481 0.950 . S
C2485 C2476 1.390 . S
C2485 H2478 0.950 . S
C2485 C2482 1.387 . S
C2486 C2487 1.387 . S
C2486 H2490 0.950 . S
C2486 C2495 1.390 . S
C2487 C2486 1.387 . S
C2487 C2489 1.387 . S
H2488 C2495 0.950 . S
C2489 C2487 1.387 . S
C2489 C2491 1.390 . S
C2489 H2493 0.950 . S
H2490 C2486 0.950 . S
C2491 C2489 1.390 . S
C2491 C2492 1.387 . S
C2491 H2494 0.950 . S
C2492 C2491 1.387 . S
C2492 C2495 1.387 . S
H2493 C2489 0.950 . S
H2494 C2491 0.950 . S
C2495 C2486 1.390 . S
C2495 H2488 0.950 . S
C2495 C2492 1.387 . S
C1217 C979 2.126 . S
C1222 C29 2.126 . S
C1227 C67 2.126 . S
C1232 C941 2.126 . S
C1237 C1055 2.126 . S
C1242 C105 2.126 . S
C1247 C143 2.127 . S
C1252 C1017 2.127 . S
C1257 C1110 2.124 . S
C1262 C160 2.124 . S
C1267 C198 2.126 . S
C1272 C1072 2.126 . S
C1277 C1186 2.126 . S
C1282 C236 2.126 . S
C1287 C274 2.127 . S
C1292 C1148 2.127 . S
C1297 C333 2.126 . S
C1302 C675 2.126 . S
C1307 C371 2.127 . S
C1312 C637 2.127 . S
C1317 C751 2.126 . S
C1322 C409 2.126 . S
C1327 C447 2.127 . S
C1332 C713 2.127 . S
C1337 C464 2.124 . S
C1342 C806 2.124 . S
C1347 C768 2.127 . S
C1352 C502 2.127 . S
C1357 C882 2.126 . S
C1362 C540 2.126 . S
C1367 C844 2.124 . S
C1372 C578 2.124 . S
C1377 C1108 1.659 1_554 S
C1382 C6 1.632 . S
C1387 C44 1.630 . S
C1392 C158 1.657 1_554 S
C1397 C82 1.629 . S
C1402 C880 1.656 . S
C1407 C120 1.629 . S
C1412 C538 1.656 . S
C1417 C977 1.659 1_556 S
C1422 C179 1.632 . S
C1427 C27 1.657 1_556 S
C1432 C217 1.630 . S
C1437 C749 1.658 . S
C1442 C255 1.631 . S
C1447 C293 1.630 . S
C1452 C407 1.657 . S
C1457 C804 1.659 . S
C1462 C310 1.631 . S
C1467 C462 1.658 . S
C1472 C348 1.630 . S
C1477 C386 1.632 . S
C1482 C1184 1.659 . S
C1487 C234 1.657 . S
C1492 C424 1.630 . S
C1497 C673 1.659 . S
C1502 C483 1.632 . S
C1507 C521 1.630 . S
C1512 C331 1.657 . S
C1517 C559 1.630 . S
C1522 C1053 1.658 . S
C1527 C597 1.632 . S
C1532 C103 1.659 . S
C1537 C614 1.633 . S
C1542 C500 1.660 . S
C1547 C766 1.658 . S
C1552 C652 1.631 . S
C1557 C272 1.657 . S
C1562 C690 1.630 . S
C1567 C1146 1.657 . S
C1572 C728 1.630 . S
C1577 C787 1.633 . S
C1582 C369 1.660 . S
C1587 C825 1.630 . S
C1592 C635 1.657 . S
C1597 C863 1.630 . S
C1602 C141 1.657 . S
C1607 C901 1.629 . S
C1612 C1015 1.657 . S
C1617 C196 1.658 1_554 S
C1622 C918 1.631 . S
C1627 C1070 1.657 1_554 S
C1632 C956 1.630 . S
C1637 C576 1.657 . S
C1642 C994 1.630 . S
C1647 C1032 1.631 . S
C1652 C842 1.658 . S
C1657 C1091 1.631 . S
C1662 C65 1.658 1_556 S
C1667 C1129 1.629 . S
C1672 C939 1.656 1_556 S
C1677 C1167 1.631 . S
C1682 C445 1.659 . S
C1687 C1205 1.631 . S
C1692 C711 1.658 . S
C1697 C229 2.028 . S
C1702 C1 2.059 1_655 S
C1707 C39 2.059 1_545 S
C1712 C1179 2.029 . S
C1717 C457 2.028 . S
C1722 C77 2.058 1_645 S
C1727 C799 2.028 . S
C1732 C115 2.059 . S
C1737 C106 2.027 . S
C1742 C182 2.059 1_455 S
C1747 C220 2.059 1_565 S
C1752 C1056 2.028 . S
C1757 C334 2.028 . S
C1762 C258 2.058 1_465 S
C1767 C296 2.059 . S
C1772 C676 2.028 . S
C1777 C305 2.060 1_655 S
C1782 C533 2.028 . S
C1787 C875 2.028 . S
C1792 C343 2.060 . S
C1797 C381 2.058 1_655 S
C1802 C153 2.028 . S
C1807 C1103 2.029 . S
C1812 C419 2.059 . S
C1817 C486 2.060 1_455 S
C1822 C410 2.028 . S
C1827 C752 2.029 . S
C1832 C524 2.060 . S
C1837 C562 2.059 1_455 S
C1842 C30 2.027 . S
C1847 C980 2.028 . S
C1852 C600 2.059 . S
C1857 C609 2.060 . S
C1862 C837 2.029 . S
C1867 C647 2.061 1_545 S
C1872 C571 2.028 . S
C1877 C1065 2.028 . S
C1882 C685 2.058 1_545 S
C1887 C723 2.060 . S
C1892 C191 2.027 . S
C1897 C714 2.028 . S
C1902 C790 2.060 . S
C1907 C828 2.060 1_565 S
C1912 C448 2.030 . S
C1917 C942 2.027 . S
C1922 C866 2.058 1_565 S
C1927 C904 2.059 . S
C1932 C68 2.029 . S
C1937 C1141 2.029 . S
C1942 C913 2.059 . S
C1947 C951 2.060 . S
C1952 C267 2.029 . S
C1957 C989 2.059 . S
C1962 C761 2.028 . S
C1967 C1027 2.060 . S
C1972 C495 2.029 . S
C1977 C1018 2.029 . S
C1982 C1094 2.059 . S
C1987 C1132 2.060 . S
C1992 C144 2.028 . S
C1997 C638 2.028 . S
C2002 C1170 2.059 . S
C2007 C1208 2.060 . S
C2012 C372 2.028 . S
C2017 C122 1.658 . S
C2022 C8 1.658 . S
C2027 C84 1.658 . S
C2032 C46 1.658 . S
C2037 C181 1.658 . S
C2042 C295 1.658 . S
C2047 C257 1.658 . S
C2052 C219 1.658 . S
C2057 C426 1.658 . S
C2062 C312 1.658 . S
C2067 C350 1.658 . S
C2072 C388 1.658 . S
C2077 C599 1.658 . S
C2082 C485 1.658 . S
C2087 C561 1.659 . S
C2092 C523 1.658 . S
C2097 C616 1.658 . S
C2102 C730 1.658 . S
C2107 C692 1.658 . S
C2112 C654 1.658 . S
C2117 C789 1.658 . S
C2122 C903 1.658 . S
C2127 C865 1.658 . S
C2132 C827 1.658 . S
C2137 C1034 1.657 . S
C2142 C920 1.657 . S
C2147 C958 1.658 . S
C2152 C996 1.658 . S
C2157 C1093 1.657 . S
C2162 C1207 1.657 . S
C2167 C1131 1.658 . S
C2172 C1169 1.658 . S
C2177 C14 0.983 . S
C2182 C170 0.983 . S
C2187 C1120 0.988 . S
C2192 C52 0.988 . S
C2197 C550 0.988 . S
C2202 C90 0.988 . S
C2207 C892 0.983 . S
C2212 C128 0.983 . S
C2217 C964 0.988 . S
C2222 C208 0.988 . S
C2227 C394 0.983 . S
C2232 C246 0.983 . S
C2237 C284 0.984 . S
C2242 C736 0.984 . S
C2247 C474 0.983 . S
C2252 C318 0.983 . S
C2257 C356 0.988 . S
C2262 C816 0.988 . S
C2267 C432 0.983 . S
C2272 C1196 0.983 . S
C2277 C512 0.985 . S
C2282 C660 0.985 . S
C2287 C1040 0.982 . S
C2292 C588 0.982 . S
C2297 C778 0.985 . S
C2302 C622 0.985 . S
C2307 C1158 0.986 . S
C2312 C698 0.986 . S
C2317 C854 0.987 . S
C2322 C1002 0.987 . S
C2327 C1082 0.983 . S
C2332 C926 0.983 . S
C2337 C94 1.003 . S
C2342 C18 1.003 . S
C2347 C132 1.003 . S
C2352 C56 1.003 . S
C2357 C166 0.997 . S
C2362 C242 0.997 . S
C2367 C204 0.997 . S
C2372 C280 0.997 . S
C2377 C398 0.997 . S
C2382 C322 0.997 . S
C2387 C436 0.997 . S
C2392 C360 0.997 . S
C2397 C470 1.003 . S
C2402 C546 1.003 . S
C2407 C584 0.997 . S
C2412 C508 0.997 . S
C2417 C702 1.003 . S
C2422 C626 1.003 . S
C2427 C664 1.003 . S
C2432 C740 1.003 . S
C2437 C850 1.003 . S
C2442 C774 1.003 . S
C2447 C812 0.997 . S
C2452 C888 0.997 . S
C2457 C930 0.996 . S
C2462 C1006 0.996 . S
C2467 C968 0.997 . S
C2472 C1044 0.997 . S
C2477 C1154 0.996 . S
C2482 C1078 0.996 . S
C2487 C1192 0.997 . S
C2492 C1116 0.997 . S
