# Generated by pormake.
# Topology snp, (6)-cn, num edge types: 1
# Building blocks:
#     Node 0, Type 0, BuildingBlock: PAMTOO_clean_sbu_0, # of connection points: 6
#     Node 1, Type 0, BuildingBlock: PAMTOO_clean_sbu_0, # of connection points: 6
#     Node 2, Type 0, BuildingBlock: PAMTOO_clean_sbu_0, # of connection points: 6
#     Node 3, Type 0, BuildingBlock: PAMTOO_clean_sbu_0, # of connection points: 6
#     Edge 4, Type (0, 0), BuildingBlock: TEMPAE_clean_linker_10, # of connection points: 2
#     Edge 5, Type (0, 0), BuildingBlock: TEMPAE_clean_linker_10, # of connection points: 2
#     Edge 6, Type (0, 0), BuildingBlock: TEMPAE_clean_linker_10, # of connection points: 2
#     Edge 7, Type (0, 0), BuildingBlock: TEMPAE_clean_linker_10, # of connection points: 2
#     Edge 8, Type (0, 0), BuildingBlock: TEMPAE_clean_linker_10, # of connection points: 2
#     Edge 9, Type (0, 0), BuildingBlock: TEMPAE_clean_linker_10, # of connection points: 2
#     Edge 10, Type (0, 0), BuildingBlock: TEMPAE_clean_linker_10, # of connection points: 2
#     Edge 11, Type (0, 0), BuildingBlock: TEMPAE_clean_linker_10, # of connection points: 2
#     Edge 12, Type (0, 0), BuildingBlock: TEMPAE_clean_linker_10, # of connection points: 2
#     Edge 13, Type (0, 0), BuildingBlock: TEMPAE_clean_linker_10, # of connection points: 2
#     Edge 14, Type (0, 0), BuildingBlock: TEMPAE_clean_linker_10, # of connection points: 2
#     Edge 15, Type (0, 0), BuildingBlock: TEMPAE_clean_linker_10, # of connection points: 2
# Relax obj value: 0.787
# Max RMSD: 0.188
# Mean RMSD: 0.188
data_MOF--net-snp--node1-PAMTOO_clean_sbu_0--edge1-TEMPAE_clean_linker_10
_symmetry_space_group_name_H-M    P1
_symmetry_Int_Tables_number       1
_symmetry_cell_setting            triclinic
loop_
_symmetry_equiv_pos_as_xyz
'x, y, z'
_cell_length_a     25.731417
_cell_length_b     25.394897
_cell_length_c     29.99307
_cell_angle_alpha  95.150184
_cell_angle_beta   94.642731
_cell_angle_gamma 92.780837
loop_
_atom_site_label
_atom_site_type_symbol
_atom_site_fract_x
_atom_site_fract_y
_atom_site_fract_z
_atom_type_partial_charge
Dy0 Dy 0.21671 0.98229 1.11863 0.0
Dy1 Dy 0.22771 0.10437 0.16263 0.0
C2 C 0.33135 0.04421 0.13062 0.0
O3 O 0.21643 0.9731 0.19509 0.0
O4 O 0.22122 0.05912 0.2271 0.0
O5 O 0.20679 0.89986 0.13072 0.0
O6 O 0.20939 0.92146 1.06299 0.0
O7 O 0.15302 0.07293 0.18398 0.0
O8 O 0.13768 1.01169 1.12446 0.0
O9 O 0.19745 0.11213 1.08879 0.0
O10 O 0.18996 0.02612 1.05696 0.0
O11 O 0.198 0.18259 0.17194 0.0
O12 O 0.27785 0.16903 0.19533 0.0
C13 C 0.21581 1.00707 0.23159 0.0
O14 O 0.30232 1.00156 1.11512 0.0
O15 O 0.31085 0.08541 0.1508 0.0
C16 C 0.25031 0.84488 1.08032 0.0
C17 C 0.33189 0.78724 1.04643 0.0
C18 C 0.34194 0.82495 1.08399 0.0
C19 C 0.30157 0.85409 1.10034 0.0
C20 C 0.23897 0.80305 1.04701 0.0
C21 C 0.27914 0.77434 1.03034 0.0
C22 C 0.21045 0.88303 1.08892 0.0
C23 C 0.12428 0.03318 0.16272 0.0
C24 C 0.18475 0.07751 1.05311 0.0
C25 C 0.23919 0.23909 0.2339 0.0
C26 C 0.2443 0.29939 0.31766 0.0
C27 C 0.19934 0.26696 0.30195 0.0
C28 C 0.19699 0.2366 0.26054 0.0
C29 C 0.28222 0.27437 0.24787 0.0
C30 C 0.28491 0.30414 0.28944 0.0
C31 C 0.24167 0.20312 0.19313 0.0
H32 H 0.38138 0.83502 1.09862 0.0
H33 H 0.31098 0.88609 0.1266 0.0
H34 H 0.19956 0.79526 1.03136 0.0
H35 H 0.26859 0.74598 1.00156 0.0
H36 H 0.16697 0.26318 0.3226 0.0
H37 H 0.16322 0.20986 0.25025 0.0
H38 H 0.31505 0.27693 0.22753 0.0
H39 H 0.32028 0.32818 0.30057 0.0
Dy40 Dy 0.06678 0.20176 0.63166 0.0
Dy41 Dy 0.9628 0.24969 0.65852 0.0
C42 C 0.05791 0.3308 0.64964 0.0
O43 O 0.07531 0.19712 0.70742 0.0
O44 O 1.00088 0.23374 0.72967 0.0
O45 O 0.13508 0.1613 0.65365 0.0
O46 O 0.1271 0.1874 0.58692 0.0
O47 O 0.95398 0.17111 0.68009 0.0
O48 O 1.00359 0.13507 0.62735 0.0
O49 O 0.94511 0.21381 0.58257 0.0
O50 O 0.02142 0.17877 0.56399 0.0
O51 O 0.89044 0.25686 0.69026 0.0
O52 O 0.90793 0.30599 0.63755 0.0
C53 C 0.04541 0.21035 0.73991 0.0
O54 O 0.07974 0.29159 0.62739 0.0
O55 O 0.01769 0.32048 0.67182 0.0
C56 C 0.20854 0.20232 0.62637 0.0
C57 C 0.28334 0.28233 0.61347 0.0
C58 C 0.24852 0.29067 0.64688 0.0
C59 C 0.21088 0.25102 0.65292 0.0
C60 C 0.24869 0.19083 0.59901 0.0
C61 C 0.28635 0.23037 0.59301 0.0
C62 C 0.15876 0.17101 0.61824 0.0
C63 C 0.96572 0.13101 0.6542 0.0
C64 C 0.97235 0.18768 0.55214 0.0
C65 C 0.85775 0.34223 0.69408 0.0
C66 C 0.82844 0.42358 0.75568 0.0
C67 C 0.79607 0.37703 0.74432 0.0
C68 C 0.81072 0.33682 0.71391 0.0
C69 C 0.88745 0.39054 0.70159 0.0
C70 C 0.87256 0.43118 0.73165 0.0
C71 C 0.87622 0.29616 0.66786 0.0
H72 H 0.24603 0.3297 0.66413 0.0
H73 H 0.18023 0.26053 0.67456 0.0
H74 H 0.24758 0.15341 0.57842 0.0
H75 H 0.31294 0.22179 0.56747 0.0
H76 H 0.76185 0.36906 0.7619 0.0
H77 H 0.78682 0.30013 0.70799 0.0
H78 H 0.92353 0.39593 0.68612 0.0
H79 H 0.89781 0.46683 0.73862 0.0
Dy80 Dy 0.81856 0.94695 1.12461 0.0
Dy81 Dy 0.84965 0.06731 1.11036 0.0
C82 C 0.72744 0.02741 1.11043 0.0
O83 O 0.83828 0.94094 1.04952 0.0
O84 O 0.87088 0.0251 1.04267 0.0
O85 O 0.77202 0.87664 1.09885 0.0
O86 O 0.8279 0.8752 0.15727 0.0
O87 O 0.91299 0.03388 0.15482 0.0
O88 O 0.90164 0.95635 1.11498 0.0
O89 O 0.84313 0.07491 0.18609 0.0
O90 O 0.83065 0.98777 0.19951 0.0
O91 O 0.90324 0.12635 1.08872 0.0
O92 O 0.83545 0.14972 1.12254 0.0
C93 C 0.86216 0.97499 1.02524 0.0
O94 O 0.74379 0.98601 0.12897 0.0
O95 O 0.76082 0.05926 1.09281 0.0
C96 C 0.74847 0.8243 0.15452 0.0
C97 C 0.67362 0.7746 0.20239 0.0
C98 C 0.68483 0.82974 0.20961 0.0
C99 C 0.72186 0.85433 0.18582 0.0
C100 C 0.73493 0.7702 0.14464 0.0
C101 C 0.69756 0.74547 0.1683 0.0
C102 C 0.78941 0.84978 0.13152 0.0
C103 C 0.92768 0.98545 0.1474 0.0
C104 C 0.83819 0.03925 0.21529 0.0
C105 C 0.86622 0.20781 1.07234 0.0
C106 C 0.84844 0.29014 1.01701 0.0
C107 C 0.88483 0.2522 1.00669 0.0
C108 C 0.89364 0.2114 1.03406 0.0
C109 C 0.83111 0.24673 1.08345 0.0
C110 C 0.82214 0.28741 1.05596 0.0
C111 C 0.8754 0.16553 1.10216 0.0
H112 H 0.66803 0.85353 0.23599 0.0
H113 H 0.73119 0.89647 0.19309 0.0
H114 H 0.75438 0.74684 1.11965 0.0
H115 H 0.68948 0.70312 0.16164 0.0
H116 H 0.90647 0.25398 0.97729 0.0
H117 H 0.92178 0.18274 1.02515 0.0
H118 H 0.81022 0.24552 1.11332 0.0
H119 H 0.79378 0.31595 1.06461 0.0
Dy120 Dy 0.10889 0.85963 0.64573 0.0
Dy121 Dy 1.00823 0.80201 0.59894 0.0
C122 C 0.0961 0.72905 0.63248 0.0
O123 O 0.1189 0.87424 0.57188 0.0
O124 O 0.04704 0.82858 0.53522 0.0
O125 O 0.19089 0.8721 0.63842 0.0
O126 O 0.15629 0.91607 0.69256 0.0
O127 O 1.00629 0.87931 0.57398 0.0
O128 O 0.04236 0.91631 0.64034 0.0
O129 O 0.99162 0.82649 0.67518 0.0
O130 O 0.06849 0.86297 0.71036 0.0
O131 O 0.92623 0.79162 0.60633 0.0
O132 O 0.96064 0.74308 0.55457 0.0
C133 C 0.09163 0.85781 0.53334 0.0
O134 O 0.11736 0.77138 0.65775 0.0
O135 O 0.05849 0.73439 0.60196 0.0
C136 C 0.24296 0.89134 0.70655 0.0
C137 C 0.31996 0.86702 0.77221 0.0
C138 C 0.29694 0.82713 0.74034 0.0
C139 C 0.25845 0.83912 0.70789 0.0
C140 C 0.26817 0.93171 0.73665 0.0
C141 C 0.30631 0.91963 0.76939 0.0
C142 C 0.19944 0.90383 0.67516 0.0
C143 C 1.00944 0.91832 0.60456 0.0
C144 C 0.01861 0.84995 0.71267 0.0
C145 C 0.87083 0.75917 0.54288 0.0
C146 C 0.77804 0.76443 0.48759 0.0
C147 C 0.79498 0.71534 0.49941 0.0
C148 C 0.8409 0.71283 0.52698 0.0
C149 C 0.8538 0.80841 0.532 0.0
C150 C 0.80746 0.81107 0.50491 0.0
C151 C 0.91794 0.75517 0.57281 0.0
H152 H 0.30612 0.78619 0.74243 0.0
H153 H 0.23947 0.80721 0.68501 0.0
H154 H 0.25695 0.97223 0.73592 0.0
H155 H 0.32336 0.95092 0.79392 0.0
H156 H 0.77395 0.67864 0.48593 0.0
H157 H 0.85342 0.67455 0.53547 0.0
H158 H 0.87634 0.84468 0.54429 0.0
H159 H 0.79526 0.84953 0.49672 0.0
C160 C 0.94662 0.97893 0.23047 0.0
C161 C 0.94843 0.95731 0.18553 0.0
C162 C 0.96147 0.94758 0.26529 0.0
C163 C 0.99734 0.90949 0.25499 0.0
C164 C 0.97654 0.87692 0.21634 0.0
C165 C 0.95809 0.90276 0.17892 0.0
C166 C 0.94159 0.95506 0.31086 0.0
C167 C 0.97018 0.81788 0.21613 0.0
C168 C 0.08211 1.02167 0.23262 0.0
C169 C 0.09691 0.99938 0.19159 0.0
C170 C 0.06303 0.98956 0.26375 0.0
C171 C 0.05171 0.93438 0.2506 0.0
C172 C 0.08107 0.91188 0.21641 0.0
C173 C 0.09887 0.94414 0.18478 0.0
C174 C 0.05104 1.0166 0.30816 0.0
C175 C 0.09161 0.85401 0.21169 0.0
H176 H 0.93322 1.01772 0.23841 0.0
H177 H 0.94855 0.8803 0.14661 0.0
H178 H 0.96545 0.93508 0.33599 0.0
H179 H 0.94076 0.99766 0.32201 0.0
H180 H 0.90103 0.93754 0.3088 0.0
H181 H 0.928 0.80633 0.21606 0.0
H182 H 0.98379 0.7982 0.18497 0.0
H183 H 0.99117 0.80377 0.24624 0.0
H184 H 0.08639 0.06421 0.24093 0.0
H185 H 0.11659 0.9261 0.1561 0.0
H186 H 0.04596 0.98829 0.33369 0.0
H187 H 1.01588 0.0396 0.30313 0.0
H188 H 0.08262 0.04663 0.3209 0.0
H189 H 0.13392 0.84948 0.20865 0.0
H190 H 0.07091 0.83461 0.18014 0.0
H191 H 0.08015 0.8339 0.24104 0.0
C192 C 0.94288 0.97257 0.57193 0.0
C193 C 0.95961 0.94302 0.60706 0.0
C194 C 0.8901 0.9834 0.56513 0.0
C195 C 0.85607 0.97203 0.59863 0.0
C196 C 0.86833 0.92763 0.62141 0.0
C197 C 0.92114 0.9177 0.62981 0.0
C198 C 0.87105 1.00527 0.52211 0.0
C199 C 0.82655 0.89419 0.63955 0.0
C200 C 0.91192 0.05765 0.67752 0.0
C201 C 0.92306 0.09124 0.6446 0.0
C202 C 0.86566 0.02553 0.67141 0.0
C203 C 0.83904 1.01873 0.62768 0.0
C204 C 0.83704 0.0661 0.6068 0.0
C205 C 0.88235 0.10001 0.61212 0.0
C206 C 0.848 0.99708 0.7098 0.0
C207 C 0.79078 0.07708 0.57586 0.0
H208 H 0.96991 0.98363 0.54796 0.0
H209 H 0.93122 0.88769 0.65151 0.0
H210 H 0.8279 1.00065 0.51607 0.0
H211 H 0.88428 0.04764 0.52303 0.0
H212 H 0.88836 0.98428 0.49325 0.0
H213 H 0.83818 0.88598 0.67458 0.0
H214 H 0.78835 0.91282 0.63766 0.0
H215 H 0.82178 0.85532 0.61917 0.0
H216 H 0.93705 0.05882 0.70847 0.0
H217 H 0.88483 0.13351 0.5924 0.0
H218 H 0.87555 0.96623 0.71768 0.0
H219 H 0.80773 0.9791 0.70224 0.0
H220 H 0.84906 0.02531 0.74042 0.0
H221 H 0.80349 0.09408 0.54538 0.0
H222 H 0.76788 0.1071 0.59354 0.0
H223 H 0.76495 0.04083 0.56623 0.0
C224 C 0.64199 0.0673 1.08221 0.0
C225 C 0.66978 0.0365 1.11165 0.0
C226 C 0.58701 0.07153 1.08294 0.0
C227 C 0.55882 0.04512 1.11425 0.0
C228 C 0.58711 1.01517 0.14458 0.0
C229 C 0.6414 1.0111 0.14275 0.0
C230 C 0.55882 0.10342 1.04952 0.0
C231 C 0.55993 0.98676 0.17908 0.0
C232 C 0.42365 0.08634 0.14772 0.0
C233 C 0.38938 0.04589 1.12507 0.0
C234 C 0.47823 0.08746 0.14358 0.0
C235 C 0.49993 0.04767 1.11549 0.0
C236 C 0.46533 1.00752 1.09168 0.0
C237 C 0.41107 1.00686 1.09699 0.0
C238 C 0.51295 0.13056 0.17045 0.0
C239 C 0.48569 0.96436 1.06103 0.0
H240 H 0.66288 0.08701 1.0579 0.0
H241 H 0.6618 0.98753 0.16621 0.0
H242 H 0.52939 0.07735 1.02776 0.0
H243 H 0.53746 0.13462 1.06736 0.0
H244 H 0.58588 0.12241 1.02791 0.0
H245 H 0.58752 0.96646 0.20129 0.0
H246 H 0.53896 1.0153 0.20028 0.0
H247 H 0.53037 0.95681 0.162 0.0
H248 H 0.40796 0.11682 0.16958 0.0
H249 H 0.38554 0.97544 1.07895 0.0
H250 H 0.53766 0.15116 0.14803 0.0
H251 H 0.5396 0.11281 0.19518 0.0
H252 H 0.49025 0.16027 0.18882 0.0
H253 H 0.51121 0.98171 1.03739 0.0
H254 H 0.45354 0.93959 1.04136 0.0
H255 H 0.50964 0.9384 1.08119 0.0
C256 C 0.03478 0.42575 0.648 0.0
C257 C 0.07375 0.38872 0.64726 0.0
C258 C 0.04618 0.48072 0.64812 0.0
C259 C 0.09848 0.50086 0.64753 0.0
C260 C 0.13846 0.46384 0.64673 0.0
C261 C 0.12569 0.4084 0.64617 0.0
C262 C 1.00161 0.5173 0.64828 0.0
C263 C 0.19485 0.48299 0.64693 0.0
C264 C 0.10697 0.63607 0.5995 0.0
C265 C 0.11023 0.67268 0.63798 0.0
C266 C 0.10695 0.58075 0.60226 0.0
C267 C 0.10971 0.56006 0.64472 0.0
C268 C 0.11627 0.59684 0.68388 0.0
C269 C 0.11655 0.65244 0.6801 0.0
C270 C 0.10031 0.54429 0.55933 0.0
C271 C 0.11968 0.57743 0.72999 0.0
H272 H 0.99449 0.41144 0.64767 0.0
H273 H 0.1564 0.3807 0.64592 0.0
H274 H 1.00838 0.54816 0.67706 0.0
H275 H 0.99946 0.53784 0.61711 0.0
H276 H 0.96335 0.49591 0.65055 0.0
H277 H 0.22177 0.45025 0.64891 0.0
H278 H 0.20071 0.50274 0.61606 0.0
H279 H 0.20545 0.51291 0.67593 0.0
H280 H 0.10193 0.65076 0.56667 0.0
H281 H 0.11828 0.67974 0.71018 0.0
H282 H 0.06094 0.52373 0.55605 0.0
H283 H 0.12938 0.51346 0.56004 0.0
H284 H 0.10455 0.56598 0.52915 0.0
H285 H 0.08063 0.56135 0.73704 0.0
H286 H 0.133 0.60963 0.7566 0.0
H287 H 0.1468 0.54487 0.73174 0.0
C288 C 0.34554 0.32222 0.56439 0.0
C289 C 0.30182 0.3274 0.58919 0.0
C290 C 0.34507 0.34093 0.52175 0.0
C291 C 0.30049 0.36582 0.50499 0.0
C292 C 0.26449 0.38412 0.53511 0.0
C293 C 0.26545 0.36448 0.57732 0.0
C294 C 0.38684 0.32478 0.4917 0.0
C295 C 0.21869 0.41469 0.51956 0.0
C296 C 0.27928 0.37056 0.37825 0.0
C297 C 0.25251 0.32127 0.36543 0.0
C298 C 0.29378 0.38717 0.42376 0.0
C299 C 0.2816 0.35335 0.45691 0.0
C300 C 0.25247 0.30465 0.44408 0.0
C301 C 0.23851 0.28937 0.39868 0.0
C302 C 0.324 0.43963 0.43554 0.0
C303 C 0.23799 0.26692 0.47796 0.0
H304 H 0.37564 0.29631 0.5747 0.0
H305 H 0.23242 0.37106 0.59688 0.0
H306 H 0.37322 0.28768 0.47069 0.0
H307 H 0.3949 0.35571 0.46892 0.0
H308 H 0.42366 0.3174 0.5116 0.0
H309 H 0.20229 0.43678 0.54833 0.0
H310 H 0.23017 0.44287 0.4954 0.0
H311 H 0.18748 0.38661 0.50229 0.0
H312 H 0.28993 0.39568 0.35269 0.0
H313 H 0.2189 0.25079 0.38916 0.0
H314 H 0.36608 0.43398 0.43242 0.0
H315 H 0.3194 0.45647 0.47033 0.0
H316 H 0.31155 0.46875 0.41186 0.0
H317 H 0.2136 0.23176 0.46229 0.0
H318 H 0.21599 0.28722 0.50411 0.0
H319 H 0.27396 0.25273 0.49472 0.0
C320 C 0.86945 0.46561 0.82889 0.0
C321 C 0.82397 0.45476 0.79959 0.0
C322 C 0.86759 0.46183 0.87502 0.0
C323 C 0.81943 0.44698 0.8911 0.0
C324 C 0.77271 0.45196 0.86404 0.0
C325 C 0.77545 0.45622 0.81795 0.0
C326 C 0.91817 0.46236 0.90422 0.0
C327 C 0.72024 0.44219 0.88157 0.0
C328 C 0.83036 0.31572 0.93972 0.0
C329 C 0.83647 0.33075 0.98586 0.0
C330 C 0.82254 0.35311 0.90888 0.0
C331 C 0.81997 0.40735 0.92459 0.0
C332 C 0.82294 0.42248 0.97135 0.0
C333 C 0.83155 0.3839 1.00156 0.0
C334 C 0.81876 0.33416 0.85936 0.0
C335 C 0.81896 0.47916 0.99003 0.0
H336 H 0.9074 0.46787 0.81578 0.0
H337 H 0.73975 0.45201 0.79579 0.0
H338 H 0.91348 0.48001 0.93873 0.0
H339 H 0.92981 0.42106 0.90635 0.0
H340 H 0.95008 0.48499 0.89021 0.0
H341 H 0.68955 0.46262 0.86267 0.0
H342 H 0.70946 0.39906 0.87729 0.0
H343 H 0.7213 0.45582 0.91787 0.0
H344 H 0.83237 0.27439 0.9276 0.0
H345 H 0.83586 0.39567 1.03737 0.0
H346 H 0.8506 0.35358 0.84287 0.0
H347 H 0.78095 0.34444 0.84291 0.0
H348 H 0.8216 0.29064 0.85326 0.0
H349 H 0.85874 0.49686 1.00092 0.0
H350 H 0.79647 0.4808 1.02017 0.0
H351 H 0.80014 0.50365 0.96518 0.0
C352 C 0.69047 0.73042 0.44976 0.0
C353 C 0.73445 0.76593 0.45235 0.0
C354 C 0.65564 0.72327 0.41089 0.0
C355 C 0.66573 0.75178 0.37383 0.0
C356 C 0.70684 0.79183 0.37839 0.0
C357 C 0.74055 0.79829 0.41758 0.0
C358 C 0.6106 0.68264 0.40897 0.0
C359 C 0.71891 0.82454 0.34033 0.0
C360 C 0.67297 0.70571 0.25586 0.0
C361 C 0.64788 0.74751 0.23728 0.0
C362 C 0.67034 0.69841 0.3013 0.0
C363 C 0.64213 0.73387 0.32789 0.0
C364 C 0.60617 0.76579 0.30656 0.0
C365 C 0.60963 0.77268 0.26097 0.0
C366 C 0.70591 0.66019 0.32227 0.0
C367 C 0.57099 0.79959 0.33327 0.0
H368 H 0.68461 0.70635 0.47721 0.0
H369 H 0.77435 0.8258 0.41924 0.0
H370 H 0.5808 0.68642 0.38074 0.0
H371 H 0.62557 0.64236 0.40534 0.0
H372 H 0.59158 0.68638 0.44097 0.0
H373 H 0.75067 0.85554 0.35046 0.0
H374 H 0.73113 0.79855 0.31176 0.0
H375 H 0.68377 0.84441 0.32826 0.0
H376 H 0.70106 0.68425 0.23744 0.0
H377 H 0.58764 0.80289 0.2459 0.0
H378 H 0.68596 0.63937 0.34758 0.0
H379 H 0.7412 0.68236 0.3396 0.0
H380 H 0.71865 0.63022 0.29671 0.0
H381 H 0.55958 0.78018 0.36303 0.0
H382 H 0.53529 0.80767 0.31217 0.0
H383 H 0.59192 0.83812 0.34528 0.0
C384 C 0.32983 0.86622 0.85438 0.0
C385 C 0.34918 0.85215 0.81312 0.0
C386 C 0.34953 0.84545 0.89338 0.0
C387 C 0.39128 0.81076 0.89143 0.0
C388 C 0.41352 0.79933 0.85017 0.0
C389 C 0.39132 0.81928 0.81113 0.0
C390 C 0.32302 0.85863 0.93591 0.0
C391 C 0.45951 0.76512 0.8462 0.0
C392 C 0.41497 0.80998 1.01211 0.0
C393 C 0.37427 0.77226 1.017 0.0
C394 C 0.43258 0.81528 0.96956 0.0
C395 C 0.40697 0.78409 0.93219 0.0
C396 C 0.37864 0.73699 0.93948 0.0
C397 C 0.36423 0.73047 0.98286 0.0
C398 C 0.47014 0.86083 0.96332 0.0
C399 C 0.35542 0.69894 0.90075 0.0
H400 H 0.29674 0.89105 0.85564 0.0
H401 H 0.40637 0.80855 0.77901 0.0
H402 H 0.30847 0.82174 0.94898 0.0
H403 H 0.35104 0.8803 0.96201 0.0
H404 H 0.2893 0.88372 0.93053 0.0
H405 H 0.48844 0.7838 0.82606 0.0
H406 H 0.4793 0.75822 0.87924 0.0
H407 H 0.4461 0.72637 0.82776 0.0
H408 H 0.42749 0.84041 1.03891 0.0
H409 H 0.33762 0.69748 0.98772 0.0
H410 H 0.44831 0.8971 0.95992 0.0
H411 H 0.4908 0.85268 0.93254 0.0
H412 H 0.4993 0.86858 0.99286 0.0
H413 H 0.33996 0.66132 0.91224 0.0
H414 H 0.3852 0.68983 0.87691 0.0
H415 H 0.32289 0.71739 0.88238 0.0
C416 C 0.89944 0.9915 0.94757 0.0
C417 C 0.88183 0.9559 0.97793 0.0
C418 C 0.91879 0.97454 0.90479 0.0
C419 C 0.92303 0.91969 0.88995 0.0
C420 C 0.90544 0.8836 0.92048 0.0
C421 C 0.88523 0.90158 0.96264 0.0
C422 C 0.93482 1.01612 0.87505 0.0
C423 C 0.90859 0.82498 0.9088 0.0
C424 C 0.93831 0.86979 0.76094 0.0
C425 C 0.99282 0.86511 0.75804 0.0
C426 C 0.91567 0.88736 0.80218 0.0
C427 C 0.94688 0.90053 0.84404 0.0
C428 C 1.00176 0.8952 0.84131 0.0
C429 C 0.02341 0.87868 0.79955 0.0
C430 C 0.85756 0.89279 0.80059 0.0
C431 C 0.03834 0.90656 0.88325 0.0
H432 H 0.89791 0.03351 0.95715 0.0
H433 H 0.87279 0.87236 0.98432 0.0
H434 H 0.97691 1.01408 0.87009 0.0
H435 H 0.91306 1.00845 0.84141 0.0
H436 H 0.92755 0.05672 0.88928 0.0
H437 H 0.8936 0.80125 0.93486 0.0
H438 H 0.8858 0.81266 0.87622 0.0
H439 H 0.94975 0.81572 0.90473 0.0
H440 H 0.91284 0.86075 0.73039 0.0
H441 H 0.06532 0.87612 0.79968 0.0
H442 H 0.83777 0.88061 0.76667 0.0
H443 H 0.84941 0.9346 0.81027 0.0
H444 H 0.84045 0.8684 0.8252 0.0
H445 H 0.03257 0.94652 0.89964 0.0
H446 H 0.07995 0.90414 0.87632 0.0
H447 H 0.02935 0.87762 0.90755 0.0
C448 C 0.1894 1.01795 0.31548 0.0
C449 C 0.20218 0.98526 0.2774 0.0
C450 C 0.17208 0.99744 0.35575 0.0
C451 C 0.16722 0.94157 0.36071 0.0
C452 C 0.18223 0.90862 0.32294 0.0
C453 C 0.19815 0.93021 0.28281 0.0
C454 C 0.158 0.03674 0.39298 0.0
C455 C 0.18232 0.84945 0.3242 0.0
C456 C 0.15933 0.90578 0.48745 0.0
C457 C 0.11057 0.87723 0.48834 0.0
C458 C 0.17817 0.92503 0.44746 0.0
C459 C 0.14775 0.91836 0.40477 0.0
C460 C 0.09865 0.88852 0.40537 0.0
C461 C 0.0813 0.86888 0.44594 0.0
C462 C 0.23248 0.9511 0.45212 0.0
C463 C 0.06322 0.87544 0.36303 0.0
H464 H 0.19145 0.06037 0.31351 0.0
H465 H 0.20768 0.90302 0.25512 0.0
H466 H 0.12375 1.02164 0.40926 0.0
H467 H 0.1915 0.04384 0.41879 0.0
H468 H 0.14929 0.07556 0.3806 0.0
H469 H 0.21367 0.83277 0.30477 0.0
H470 H 0.18779 0.83788 0.359 0.0
H471 H 0.1446 0.83118 0.30821 0.0
H472 H 0.18408 0.91292 0.51862 0.0
H473 H 0.04394 0.84686 0.44416 0.0
H474 H 0.23234 0.98993 0.47229 0.0
H475 H 0.24811 0.95709 0.41947 0.0
H476 H 0.25963 0.92668 0.47099 0.0
H477 H 0.07215 0.90074 0.33623 0.0
H478 H 0.02185 0.87901 0.37018 0.0
H479 H 0.06731 0.83353 0.35046 0.0
C480 C 0.11682 0.18558 0.7996 0.0
C481 C 0.06373 0.19536 0.78815 0.0
C482 C 0.13564 0.16792 0.84191 0.0
C483 C 0.10127 0.15739 0.87555 0.0
C484 C 0.04745 0.16698 0.86434 0.0
C485 C 0.02977 0.18603 0.82193 0.0
C486 C 0.19322 0.16038 0.85051 0.0
C487 C 1.00785 0.15661 0.89729 0.0
C488 C 0.1471 0.06306 0.96843 0.0
C489 C 0.16324 0.09761 1.00746 0.0
C490 C 0.12702 0.08145 0.92655 0.0
C491 C 0.12177 0.13657 0.92154 0.0
C492 C 0.13808 0.17158 0.96079 0.0
C493 C 0.15795 0.15218 1.00223 0.0
C494 C 0.11099 0.04119 0.88726 0.0
C495 C 0.13507 0.23047 0.95897 0.0
H496 H 0.14455 0.19189 0.77501 0.0
H497 H 0.98867 0.19216 0.81481 0.0
H498 H 0.20893 0.1839 0.88212 0.0
H499 H 0.19958 0.1182 0.8549 0.0
H500 H 0.2158 0.17239 0.82269 0.0
H501 H 0.96715 0.15824 0.88222 0.0
H502 H 1.01271 0.11722 0.90991 0.0
H503 H 1.0142 0.18669 0.92667 0.0
H504 H 0.15006 1.02092 0.97045 0.0
H505 H 0.16965 0.18046 1.03092 0.0
H506 H 0.13203 0.05031 0.8578 0.0
H507 H 0.06869 0.04313 0.87747 0.0
H508 H 0.119 1.00028 0.895 0.0
H509 H 0.14994 0.2532 0.99122 0.0
H510 H 0.09401 0.24007 0.95075 0.0
H511 H 0.15808 0.2437 0.93187 0.0
C512 C 0.87684 0.10993 0.2793 0.0
C513 C 0.85052 0.05957 0.26664 0.0
C514 C 0.89334 0.12971 0.32499 0.0
C515 C 0.88415 0.0997 0.36193 0.0
C516 C 0.8563 0.04932 0.34983 0.0
C517 C 0.8402 0.03025 0.3034 0.0
C518 C 0.92189 0.18338 0.33364 0.0
C519 C 0.84541 1.01398 0.38609 0.0
C520 C 0.97696 0.13329 0.47451 0.0
C521 C 0.94795 0.1649 0.50397 0.0
C522 C 0.95685 0.11161 0.43007 0.0
C523 C 0.90519 0.12054 0.41194 0.0
C524 C 0.8753 0.15192 0.44164 0.0
C525 C 0.8964 0.17302 0.48629 0.0
C526 C 0.99164 0.07848 0.40235 0.0
C527 C 0.82045 0.1639 0.42593 0.0
H528 H 0.88609 0.13426 0.25284 0.0
H529 H 0.82034 0.99149 0.29596 0.0
H530 H 0.90231 0.20879 0.35849 0.0
H531 H 0.9623 0.17901 0.34825 0.0
H532 H 0.92386 0.20383 0.30255 0.0
H533 H 0.88287 1.00096 0.40125 0.0
H534 H 0.82636 0.03608 0.41331 0.0
H535 H 0.82018 0.97832 0.37297 0.0
H536 H 1.0164 0.12512 0.48627 0.0
H537 H 0.87219 0.19646 0.50734 0.0
H538 H 0.99374 0.0936 0.36897 0.0
H539 H 0.97484 0.03714 0.39688 0.0
H540 H 0.03191 0.07815 0.41871 0.0
H541 H 0.82101 0.18613 0.39574 0.0
H542 H 0.80119 0.18752 0.45221 0.0
H543 H 0.79669 0.12643 0.416 0.0
loop_
_geom_bond_atom_site_label_1
_geom_bond_atom_site_label_2
_geom_bond_distance
_geom_bond_site_symmetry_2
_ccdc_geom_bond_type
Dy0 O3 2.324 . S
Dy0 O5 2.380 1_554 S
Dy0 O6 2.364 1_554 S
Dy0 O8 2.342 . S
Dy0 O10 2.288 1_564 S
Dy0 O14 2.280 1_565 S
Dy0 C22 2.722 1_554 S
Dy1 O4 2.298 . S
Dy1 O7 2.275 . S
Dy1 O9 2.307 . S
Dy1 O11 2.395 . S
Dy1 O12 2.379 . S
Dy1 O15 2.339 . S
Dy1 C31 2.738 . S
C2 O14 1.254 . S
C2 O15 1.257 . S
O3 Dy0 2.324 . S
O3 C13 1.266 . S
O4 Dy1 2.298 . S
O4 C13 1.236 1_545 S
O5 Dy0 2.380 1_556 S
O5 C22 1.255 . S
O6 Dy0 2.364 1_556 S
O6 C22 1.249 . S
O7 Dy1 2.275 . S
O7 C23 1.254 . S
O8 Dy0 2.342 . S
O8 C23 1.257 1_565 S
O9 Dy1 2.307 . S
O9 C24 1.266 1_554 S
O10 Dy0 2.288 1_546 S
O10 C24 1.236 . S
O11 Dy1 2.395 . S
O11 C31 1.255 . S
O12 Dy1 2.379 . S
O12 C31 1.249 . S
C13 O3 1.266 . S
C13 O4 1.236 1_565 S
O14 Dy0 2.280 1_545 S
O14 C2 1.254 . S
O15 Dy1 2.339 . S
O15 C2 1.257 . S
C16 C19 1.344 . S
C16 C20 1.328 . S
C16 C22 1.516 . S
C17 C18 1.304 . S
C17 C21 1.323 . S
C18 C17 1.304 . S
C18 C19 1.371 . S
C18 H32 0.930 . S
C19 C16 1.344 . S
C19 C18 1.371 . S
C19 H33 0.931 . S
C20 C16 1.328 . S
C20 C21 1.433 . S
C20 H34 0.931 . S
C21 C17 1.323 . S
C21 C20 1.433 . S
C21 H35 0.933 . S
C22 Dy0 2.722 1_556 S
C22 O5 1.255 . S
C22 O6 1.249 . S
C22 C16 1.516 . S
C23 O7 1.254 . S
C23 O8 1.257 1_545 S
C24 O9 1.266 1_556 S
C24 O10 1.236 . S
C25 C28 1.344 . S
C25 C29 1.328 . S
C25 C31 1.516 . S
C26 C27 1.304 . S
C26 C30 1.323 . S
C27 C26 1.304 . S
C27 C28 1.371 . S
C27 H36 0.930 . S
C28 C25 1.344 . S
C28 C27 1.371 . S
C28 H37 0.931 . S
C29 C25 1.328 . S
C29 C30 1.433 . S
C29 H38 0.931 . S
C30 C26 1.323 . S
C30 C29 1.433 . S
C30 H39 0.933 . S
C31 Dy1 2.738 . S
C31 O11 1.255 . S
C31 O12 1.249 . S
C31 C25 1.516 . S
H32 C18 0.930 . S
H33 C19 0.931 . S
H34 C20 0.931 . S
H35 C21 0.933 . S
H36 C27 0.930 . S
H37 C28 0.931 . S
H38 C29 0.931 . S
H39 C30 0.933 . S
Dy40 O43 2.307 . S
Dy40 O45 2.395 . S
Dy40 O46 2.379 . S
Dy40 O48 2.339 . S
Dy40 O50 2.298 . S
Dy40 O54 2.275 . S
Dy40 C62 2.738 . S
Dy41 O44 2.298 1_655 S
Dy41 O47 2.275 1_655 S
Dy41 O49 2.307 . S
Dy41 O51 2.395 . S
Dy41 O52 2.379 . S
Dy41 O55 2.339 . S
Dy41 C71 2.738 . S
C42 O54 1.254 . S
C42 O55 1.257 1_455 S
O43 Dy40 2.307 . S
O43 C53 1.266 . S
O44 Dy41 2.298 1_455 S
O44 C53 1.236 . S
O45 Dy40 2.395 . S
O45 C62 1.255 . S
O46 Dy40 2.379 . S
O46 C62 1.249 . S
O47 Dy41 2.275 1_455 S
O47 C63 1.254 . S
O48 Dy40 2.339 . S
O48 C63 1.257 . S
O49 Dy41 2.307 . S
O49 C64 1.266 . S
O50 Dy40 2.298 . S
O50 C64 1.236 1_455 S
O51 Dy41 2.395 . S
O51 C71 1.255 . S
O52 Dy41 2.379 . S
O52 C71 1.249 . S
C53 O43 1.266 . S
C53 O44 1.236 . S
O54 Dy40 2.275 . S
O54 C42 1.254 . S
O55 Dy41 2.339 . S
O55 C42 1.257 1_655 S
C56 C59 1.344 . S
C56 C60 1.328 . S
C56 C62 1.516 . S
C57 C58 1.304 . S
C57 C61 1.323 . S
C58 C57 1.304 . S
C58 C59 1.371 . S
C58 H72 0.930 . S
C59 C56 1.344 . S
C59 C58 1.371 . S
C59 H73 0.931 . S
C60 C56 1.328 . S
C60 C61 1.433 . S
C60 H74 0.931 . S
C61 C57 1.323 . S
C61 C60 1.433 . S
C61 H75 0.933 . S
C62 Dy40 2.738 . S
C62 O45 1.255 . S
C62 O46 1.249 . S
C62 C56 1.516 . S
C63 O47 1.254 . S
C63 O48 1.257 . S
C64 O49 1.266 . S
C64 O50 1.236 1_655 S
C65 C68 1.344 . S
C65 C69 1.328 . S
C65 C71 1.516 . S
C66 C67 1.304 . S
C66 C70 1.323 . S
C67 C66 1.304 . S
C67 C68 1.371 . S
C67 H76 0.930 . S
C68 C65 1.344 . S
C68 C67 1.371 . S
C68 H77 0.931 . S
C69 C65 1.328 . S
C69 C70 1.433 . S
C69 H78 0.931 . S
C70 C66 1.323 . S
C70 C69 1.433 . S
C70 H79 0.933 . S
C71 Dy41 2.738 . S
C71 O51 1.255 . S
C71 O52 1.249 . S
C71 C65 1.516 . S
H72 C58 0.930 . S
H73 C59 0.931 . S
H74 C60 0.931 . S
H75 C61 0.933 . S
H76 C67 0.930 . S
H77 C68 0.931 . S
H78 C69 0.931 . S
H79 C70 0.933 . S
Dy80 O83 2.307 1_554 S
Dy80 O85 2.395 . S
Dy80 O86 2.379 . S
Dy80 O88 2.339 . S
Dy80 O90 2.298 1_565 S
Dy80 O94 2.275 . S
Dy80 C102 2.738 . S
Dy81 O84 2.298 1_545 S
Dy81 O87 2.276 1_556 S
Dy81 O89 2.307 1_556 S
Dy81 O91 2.395 . S
Dy81 O92 2.379 . S
Dy81 O95 2.339 . S
Dy81 C111 2.738 . S
C82 O94 1.261 1_545 S
C82 O95 1.240 1_554 S
O83 Dy80 2.307 1_556 S
O83 C93 1.266 . S
O84 Dy81 2.298 1_565 S
O84 C93 1.236 . S
O85 Dy80 2.395 . S
O85 C102 1.255 . S
O86 Dy80 2.379 . S
O86 C102 1.249 . S
O87 Dy81 2.276 1_554 S
O87 C103 1.253 1_545 S
O88 Dy80 2.339 . S
O88 C103 1.257 . S
O89 Dy81 2.307 1_554 S
O89 C104 1.266 . S
O90 Dy80 2.298 1_545 S
O90 C104 1.236 . S
O91 Dy81 2.395 . S
O91 C111 1.255 . S
O92 Dy81 2.379 . S
O92 C111 1.249 . S
C93 O83 1.266 . S
C93 O84 1.236 . S
O94 Dy80 2.275 . S
O94 C82 1.261 1_565 S
O95 Dy81 2.339 . S
O95 C82 1.240 1_556 S
C96 C99 1.344 . S
C96 C100 1.328 . S
C96 C102 1.516 . S
C97 C98 1.304 . S
C97 C101 1.323 . S
C98 C97 1.304 . S
C98 C99 1.371 . S
C98 H112 0.930 . S
C99 C96 1.344 . S
C99 C98 1.371 . S
C99 H113 0.931 . S
C100 C96 1.328 . S
C100 C101 1.433 . S
C100 H114 0.931 . S
C101 C97 1.323 . S
C101 C100 1.433 . S
C101 H115 0.933 . S
C102 Dy80 2.738 . S
C102 O85 1.255 . S
C102 O86 1.249 . S
C102 C96 1.516 . S
C103 O87 1.253 1_565 S
C103 O88 1.257 . S
C104 O89 1.266 . S
C104 O90 1.236 . S
C105 C108 1.344 . S
C105 C109 1.328 . S
C105 C111 1.516 . S
C106 C107 1.304 . S
C106 C110 1.323 . S
C107 C106 1.304 . S
C107 C108 1.371 . S
C107 H116 0.930 . S
C108 C105 1.344 . S
C108 C107 1.371 . S
C108 H117 0.931 . S
C109 C105 1.328 . S
C109 C110 1.433 . S
C109 H118 0.931 . S
C110 C106 1.323 . S
C110 C109 1.433 . S
C110 H119 0.933 . S
C111 Dy81 2.738 . S
C111 O91 1.255 . S
C111 O92 1.249 . S
C111 C105 1.516 . S
H112 C98 0.930 . S
H113 C99 0.931 . S
H114 C100 0.931 . S
H115 C101 0.933 . S
H116 C107 0.930 . S
H117 C108 0.931 . S
H118 C109 0.931 . S
H119 C110 0.933 . S
Dy120 O123 2.307 . S
Dy120 O125 2.395 . S
Dy120 O126 2.379 . S
Dy120 O128 2.339 . S
Dy120 O130 2.298 1_455 S
Dy120 O134 2.275 . S
Dy120 C142 2.738 . S
Dy121 O124 2.298 1_655 S
Dy121 O127 2.275 . S
Dy121 O129 2.307 . S
Dy121 O131 2.395 . S
Dy121 O132 2.379 . S
Dy121 O135 2.339 . S
Dy121 C151 2.738 . S
C122 O134 1.254 1_655 S
C122 O135 1.257 . S
O123 Dy120 2.307 . S
O123 C133 1.266 . S
O124 Dy121 2.298 1_455 S
O124 C133 1.236 . S
O125 Dy120 2.395 . S
O125 C142 1.255 . S
O126 Dy120 2.379 . S
O126 C142 1.249 . S
O127 Dy121 2.275 . S
O127 C143 1.254 1_655 S
O128 Dy120 2.339 . S
O128 C143 1.257 . S
O129 Dy121 2.307 . S
O129 C144 1.266 . S
O130 Dy120 2.298 1_655 S
O130 C144 1.236 . S
O131 Dy121 2.395 . S
O131 C151 1.255 . S
O132 Dy121 2.379 . S
O132 C151 1.249 . S
C133 O123 1.266 . S
C133 O124 1.236 . S
O134 Dy120 2.275 . S
O134 C122 1.254 1_455 S
O135 Dy121 2.339 . S
O135 C122 1.257 . S
C136 C139 1.344 . S
C136 C140 1.328 . S
C136 C142 1.516 . S
C137 C138 1.304 . S
C137 C141 1.323 . S
C138 C137 1.304 . S
C138 C139 1.371 . S
C138 H152 0.930 . S
C139 C136 1.344 . S
C139 C138 1.371 . S
C139 H153 0.931 . S
C140 C136 1.328 . S
C140 C141 1.433 . S
C140 H154 0.931 . S
C141 C137 1.323 . S
C141 C140 1.433 . S
C141 H155 0.933 . S
C142 Dy120 2.738 . S
C142 O125 1.255 . S
C142 O126 1.249 . S
C142 C136 1.516 . S
C143 O127 1.254 1_455 S
C143 O128 1.257 . S
C144 O129 1.266 . S
C144 O130 1.236 . S
C145 C148 1.344 . S
C145 C149 1.328 . S
C145 C151 1.516 . S
C146 C147 1.304 . S
C146 C150 1.323 . S
C147 C146 1.304 . S
C147 C148 1.371 . S
C147 H156 0.930 . S
C148 C145 1.344 . S
C148 C147 1.371 . S
C148 H157 0.931 . S
C149 C145 1.328 . S
C149 C150 1.433 . S
C149 H158 0.931 . S
C150 C146 1.323 . S
C150 C149 1.433 . S
C150 H159 0.933 . S
C151 Dy121 2.738 . S
C151 O131 1.255 . S
C151 O132 1.249 . S
C151 C145 1.516 . S
H152 C138 0.930 . S
H153 C139 0.931 . S
H154 C140 0.931 . S
H155 C141 0.933 . S
H156 C147 0.930 . S
H157 C148 0.931 . S
H158 C149 0.931 . S
H159 C150 0.933 . S
C160 C161 1.391 . S
C160 C162 1.394 . S
C160 H176 0.931 . S
C161 C160 1.391 . S
C161 C165 1.376 1_554 S
C162 C160 1.394 . S
C162 C163 1.369 . S
C162 C166 1.532 1_565 S
C163 C162 1.369 . S
C163 C164 1.410 1_554 S
C163 C171 1.503 1_665 S
C164 C163 1.410 1_556 S
C164 C165 1.392 . S
C164 C167 1.511 . S
C165 C161 1.376 1_556 S
C165 C164 1.392 . S
C165 H177 0.929 . S
C166 C162 1.532 1_545 S
C166 H178 0.952 1_645 S
C166 H179 0.976 . S
C166 H180 0.953 1_545 S
C167 C164 1.511 . S
C167 H181 0.961 1_565 S
C167 H182 0.961 1_665 S
C167 H183 0.961 . S
C168 C169 1.370 . S
C168 C170 1.363 . S
C168 H184 0.931 . S
C169 C168 1.370 . S
C169 C173 1.408 1_545 S
C170 C168 1.363 . S
C170 C171 1.370 . S
C170 C174 1.524 . S
C171 C163 1.503 1_445 S
C171 C170 1.370 . S
C171 C172 1.403 1_545 S
C172 C171 1.403 1_565 S
C172 C173 1.404 . S
C172 C175 1.539 . S
C173 C169 1.408 1_565 S
C173 C172 1.404 . S
C173 H185 0.930 . S
C174 C170 1.524 . S
C174 H186 0.956 . S
C174 H187 0.961 . S
C174 H188 0.961 . S
C175 C172 1.539 . S
C175 H189 0.958 . S
C175 H190 0.961 . S
C175 H191 0.960 . S
H176 C160 0.931 . S
H177 C165 0.929 . S
H178 C166 0.952 1_465 S
H179 C166 0.976 . S
H180 C166 0.953 1_565 S
H181 C167 0.961 1_545 S
H182 C167 0.961 1_445 S
H183 C167 0.961 . S
H184 C168 0.931 . S
H185 C173 0.930 . S
H186 C174 0.956 . S
H187 C174 0.961 . S
H188 C174 0.961 . S
H189 C175 0.958 . S
H190 C175 0.961 . S
H191 C175 0.960 . S
C192 C193 1.391 1_455 S
C192 C194 1.394 . S
C192 H208 0.931 . S
C193 C192 1.391 1_655 S
C193 C197 1.376 . S
C194 C192 1.394 . S
C194 C195 1.369 1_455 S
C194 C198 1.531 . S
C195 C194 1.369 1_655 S
C195 C196 1.410 . S
C195 C203 1.503 1_665 S
C196 C195 1.410 . S
C196 C197 1.392 . S
C196 C199 1.511 . S
C197 C193 1.376 . S
C197 C196 1.392 . S
C197 H209 0.929 . S
C198 C194 1.531 . S
C198 H210 0.960 1_565 S
C198 H211 0.962 . S
C198 H212 0.960 . S
C199 C196 1.511 . S
C199 H213 0.961 . S
C199 H214 0.961 1_565 S
C199 H215 0.961 . S
C200 C201 1.370 . S
C200 C202 1.363 . S
C200 H216 0.931 . S
C201 C200 1.370 . S
C201 C205 1.408 1_455 S
C202 C200 1.363 . S
C202 C203 1.370 . S
C202 C206 1.524 . S
C203 C195 1.503 1_445 S
C203 C202 1.370 . S
C203 C204 1.403 1_455 S
C204 C203 1.403 1_655 S
C204 C205 1.404 . S
C204 C207 1.539 . S
C205 C201 1.408 1_655 S
C205 C204 1.404 . S
C205 H217 0.930 . S
C206 C202 1.524 . S
C206 H218 0.956 . S
C206 H219 0.961 . S
C206 H220 0.961 . S
C207 C204 1.539 . S
C207 H221 0.958 . S
C207 H222 0.961 . S
C207 H223 0.960 . S
H208 C192 0.931 . S
H209 C197 0.929 . S
H210 C198 0.960 1_545 S
H211 C198 0.962 . S
H212 C198 0.960 . S
H213 C199 0.961 . S
H214 C199 0.961 1_545 S
H215 C199 0.961 . S
H216 C200 0.931 . S
H217 C205 0.930 . S
H218 C206 0.956 . S
H219 C206 0.961 . S
H220 C206 0.961 . S
H221 C207 0.958 . S
H222 C207 0.961 . S
H223 C207 0.960 . S
C224 C225 1.393 . S
C224 C226 1.394 . S
C224 H240 0.931 . S
C225 C224 1.393 . S
C225 C229 1.374 1_544 S
C226 C224 1.394 . S
C226 C227 1.369 . S
C226 C230 1.531 . S
C227 C226 1.369 . S
C227 C228 1.410 1_544 S
C227 C235 1.503 . S
C228 C227 1.410 1_566 S
C228 C229 1.392 . S
C228 C231 1.511 . S
C229 C225 1.374 1_566 S
C229 C228 1.392 . S
C229 H241 0.929 . S
C230 C226 1.531 . S
C230 H242 0.960 . S
C230 H243 0.962 . S
C230 H244 0.960 . S
C231 C228 1.511 . S
C231 H245 0.961 . S
C231 H246 0.961 . S
C231 H247 0.961 . S
C232 C233 1.370 1_565 S
C232 C234 1.363 . S
C232 H248 0.931 . S
C233 C232 1.370 1_545 S
C233 C237 1.408 . S
C234 C232 1.363 . S
C234 C235 1.370 1_565 S
C234 C238 1.524 . S
C235 C227 1.503 . S
C235 C234 1.370 1_545 S
C235 C236 1.410 . S
C236 C235 1.410 . S
C236 C237 1.408 . S
C236 C239 1.526 1_554 S
C237 C233 1.408 . S
C237 C236 1.408 . S
C237 H249 0.930 1_554 S
C238 C234 1.524 . S
C238 H250 0.956 . S
C238 H251 0.961 . S
C238 H252 0.961 . S
C239 C236 1.526 1_556 S
C239 H253 0.958 . S
C239 H254 0.961 . S
C239 H255 0.960 . S
H240 C224 0.931 . S
H241 C229 0.929 . S
H242 C230 0.960 . S
H243 C230 0.962 . S
H244 C230 0.960 . S
H245 C231 0.961 . S
H246 C231 0.961 . S
H247 C231 0.961 . S
H248 C232 0.931 . S
H249 C237 0.930 1_556 S
H250 C238 0.956 . S
H251 C238 0.961 . S
H252 C238 0.961 . S
H253 C239 0.958 . S
H254 C239 0.961 . S
H255 C239 0.960 . S
C256 C257 1.391 . S
C256 C258 1.394 . S
C256 H272 0.931 1_455 S
C257 C256 1.391 . S
C257 C261 1.376 . S
C258 C256 1.394 . S
C258 C259 1.369 . S
C258 C262 1.531 1_455 S
C259 C258 1.369 . S
C259 C260 1.410 . S
C259 C267 1.503 . S
C260 C259 1.410 . S
C260 C261 1.392 . S
C260 C263 1.511 . S
C261 C257 1.376 . S
C261 C260 1.392 . S
C261 H273 0.929 . S
C262 C258 1.531 1_655 S
C262 H274 0.960 . S
C262 H275 0.962 . S
C262 H276 0.960 . S
C263 C260 1.511 . S
C263 H277 0.961 . S
C263 H278 0.961 . S
C263 H279 0.961 . S
C264 C265 1.358 1_655 S
C264 C266 1.363 . S
C264 H280 0.931 . S
C265 C264 1.358 1_455 S
C265 C269 1.424 . S
C266 C264 1.363 . S
C266 C267 1.370 1_655 S
C266 C270 1.524 . S
C267 C259 1.503 . S
C267 C266 1.370 1_455 S
C267 C268 1.403 . S
C268 C267 1.403 . S
C268 C269 1.404 . S
C268 C271 1.539 . S
C269 C265 1.424 . S
C269 C268 1.404 . S
C269 H281 0.930 . S
C270 C266 1.524 . S
C270 H282 0.956 . S
C270 H283 0.961 . S
C270 H284 0.961 . S
C271 C268 1.539 . S
C271 H285 0.958 . S
C271 H286 0.961 . S
C271 H287 0.960 . S
H272 C256 0.931 1_655 S
H273 C261 0.929 . S
H274 C262 0.960 . S
H275 C262 0.962 . S
H276 C262 0.960 . S
H277 C263 0.961 . S
H278 C263 0.961 . S
H279 C263 0.961 . S
H280 C264 0.931 . S
H281 C269 0.930 . S
H282 C270 0.956 . S
H283 C270 0.961 . S
H284 C270 0.961 . S
H285 C271 0.958 . S
H286 C271 0.961 . S
H287 C271 0.960 . S
C288 C289 1.391 . S
C288 C290 1.394 . S
C288 H304 0.931 . S
C289 C288 1.391 . S
C289 C293 1.376 . S
C290 C288 1.394 . S
C290 C291 1.369 . S
C290 C294 1.531 . S
C291 C290 1.369 . S
C291 C292 1.410 . S
C291 C299 1.503 . S
C292 C291 1.410 . S
C292 C293 1.392 . S
C292 C295 1.511 . S
C293 C289 1.376 . S
C293 C292 1.392 . S
C293 H305 0.929 . S
C294 C290 1.531 . S
C294 H306 0.960 . S
C294 H307 0.962 . S
C294 H308 0.960 . S
C295 C292 1.511 . S
C295 H309 0.961 . S
C295 H310 0.961 . S
C295 H311 0.961 . S
C296 C297 1.370 . S
C296 C298 1.363 . S
C296 H312 0.931 . S
C297 C296 1.370 . S
C297 C301 1.408 . S
C298 C296 1.363 . S
C298 C299 1.370 . S
C298 C302 1.524 . S
C299 C291 1.503 . S
C299 C298 1.370 . S
C299 C300 1.403 . S
C300 C299 1.403 . S
C300 C301 1.404 . S
C300 C303 1.539 . S
C301 C297 1.408 . S
C301 C300 1.404 . S
C301 H313 0.930 . S
C302 C298 1.524 . S
C302 H314 0.956 . S
C302 H315 0.961 . S
C302 H316 0.961 . S
C303 C300 1.539 . S
C303 H317 0.958 . S
C303 H318 0.961 . S
C303 H319 0.960 . S
H304 C288 0.931 . S
H305 C293 0.929 . S
H306 C294 0.960 . S
H307 C294 0.962 . S
H308 C294 0.960 . S
H309 C295 0.961 . S
H310 C295 0.961 . S
H311 C295 0.961 . S
H312 C296 0.931 . S
H313 C301 0.930 . S
H314 C302 0.956 . S
H315 C302 0.961 . S
H316 C302 0.961 . S
H317 C303 0.958 . S
H318 C303 0.961 . S
H319 C303 0.960 . S
C320 C321 1.391 . S
C320 C322 1.394 . S
C320 H336 0.931 . S
C321 C320 1.391 . S
C321 C325 1.376 . S
C322 C320 1.394 . S
C322 C323 1.369 . S
C322 C326 1.531 . S
C323 C322 1.369 . S
C323 C324 1.410 . S
C323 C331 1.503 . S
C324 C323 1.410 . S
C324 C325 1.392 . S
C324 C327 1.511 . S
C325 C321 1.376 . S
C325 C324 1.392 . S
C325 H337 0.929 . S
C326 C322 1.531 . S
C326 H338 0.960 . S
C326 H339 0.962 . S
C326 H340 0.960 . S
C327 C324 1.511 . S
C327 H341 0.961 . S
C327 H342 0.961 . S
C327 H343 0.961 . S
C328 C329 1.370 . S
C328 C330 1.363 . S
C328 H344 0.931 . S
C329 C328 1.370 . S
C329 C333 1.408 . S
C330 C328 1.363 . S
C330 C331 1.370 . S
C330 C334 1.524 . S
C331 C323 1.503 . S
C331 C330 1.370 . S
C331 C332 1.403 . S
C332 C331 1.403 . S
C332 C333 1.404 . S
C332 C335 1.539 . S
C333 C329 1.408 . S
C333 C332 1.404 . S
C333 H345 0.930 . S
C334 C330 1.524 . S
C334 H346 0.956 . S
C334 H347 0.961 . S
C334 H348 0.961 . S
C335 C332 1.539 . S
C335 H349 0.958 . S
C335 H350 0.961 . S
C335 H351 0.960 . S
H336 C320 0.931 . S
H337 C325 0.929 . S
H338 C326 0.960 . S
H339 C326 0.962 . S
H340 C326 0.960 . S
H341 C327 0.961 . S
H342 C327 0.961 . S
H343 C327 0.961 . S
H344 C328 0.931 . S
H345 C333 0.930 . S
H346 C334 0.956 . S
H347 C334 0.961 . S
H348 C334 0.961 . S
H349 C335 0.958 . S
H350 C335 0.961 . S
H351 C335 0.960 . S
C352 C353 1.391 . S
C352 C354 1.394 . S
C352 H368 0.931 . S
C353 C352 1.391 . S
C353 C357 1.376 . S
C354 C352 1.394 . S
C354 C355 1.369 . S
C354 C358 1.531 . S
C355 C354 1.369 . S
C355 C356 1.410 . S
C355 C363 1.503 . S
C356 C355 1.410 . S
C356 C357 1.392 . S
C356 C359 1.511 . S
C357 C353 1.376 . S
C357 C356 1.392 . S
C357 H369 0.929 . S
C358 C354 1.531 . S
C358 H370 0.960 . S
C358 H371 0.962 . S
C358 H372 0.960 . S
C359 C356 1.511 . S
C359 H373 0.961 . S
C359 H374 0.961 . S
C359 H375 0.961 . S
C360 C361 1.370 . S
C360 C362 1.363 . S
C360 H376 0.931 . S
C361 C360 1.370 . S
C361 C365 1.408 . S
C362 C360 1.363 . S
C362 C363 1.370 . S
C362 C366 1.524 . S
C363 C355 1.503 . S
C363 C362 1.370 . S
C363 C364 1.403 . S
C364 C363 1.403 . S
C364 C365 1.404 . S
C364 C367 1.539 . S
C365 C361 1.408 . S
C365 C364 1.404 . S
C365 H377 0.930 . S
C366 C362 1.524 . S
C366 H378 0.956 . S
C366 H379 0.961 . S
C366 H380 0.961 . S
C367 C364 1.539 . S
C367 H381 0.958 . S
C367 H382 0.961 . S
C367 H383 0.960 . S
H368 C352 0.931 . S
H369 C357 0.929 . S
H370 C358 0.960 . S
H371 C358 0.962 . S
H372 C358 0.960 . S
H373 C359 0.961 . S
H374 C359 0.961 . S
H375 C359 0.961 . S
H376 C360 0.931 . S
H377 C365 0.930 . S
H378 C366 0.956 . S
H379 C366 0.961 . S
H380 C366 0.961 . S
H381 C367 0.958 . S
H382 C367 0.961 . S
H383 C367 0.960 . S
C384 C385 1.391 . S
C384 C386 1.394 . S
C384 H400 0.931 . S
C385 C384 1.391 . S
C385 C389 1.376 . S
C386 C384 1.394 . S
C386 C387 1.369 . S
C386 C390 1.531 . S
C387 C386 1.369 . S
C387 C388 1.410 . S
C387 C395 1.503 . S
C388 C387 1.410 . S
C388 C389 1.392 . S
C388 C391 1.511 . S
C389 C385 1.376 . S
C389 C388 1.392 . S
C389 H401 0.929 . S
C390 C386 1.531 . S
C390 H402 0.960 . S
C390 H403 0.962 . S
C390 H404 0.960 . S
C391 C388 1.511 . S
C391 H405 0.961 . S
C391 H406 0.961 . S
C391 H407 0.961 . S
C392 C393 1.370 . S
C392 C394 1.363 . S
C392 H408 0.931 . S
C393 C392 1.370 . S
C393 C397 1.408 . S
C394 C392 1.363 . S
C394 C395 1.370 . S
C394 C398 1.524 . S
C395 C387 1.503 . S
C395 C394 1.370 . S
C395 C396 1.403 . S
C396 C395 1.403 . S
C396 C397 1.404 . S
C396 C399 1.539 . S
C397 C393 1.408 . S
C397 C396 1.404 . S
C397 H409 0.930 . S
C398 C394 1.524 . S
C398 H410 0.956 . S
C398 H411 0.961 . S
C398 H412 0.961 . S
C399 C396 1.539 . S
C399 H413 0.958 . S
C399 H414 0.961 . S
C399 H415 0.960 . S
H400 C384 0.931 . S
H401 C389 0.929 . S
H402 C390 0.960 . S
H403 C390 0.962 . S
H404 C390 0.960 . S
H405 C391 0.961 . S
H406 C391 0.961 . S
H407 C391 0.961 . S
H408 C392 0.931 . S
H409 C397 0.930 . S
H410 C398 0.956 . S
H411 C398 0.961 . S
H412 C398 0.961 . S
H413 C399 0.958 . S
H414 C399 0.961 . S
H415 C399 0.960 . S
C416 C417 1.391 . S
C416 C418 1.394 . S
C416 H432 0.931 . S
C417 C416 1.391 . S
C417 C421 1.376 . S
C418 C416 1.394 . S
C418 C419 1.369 . S
C418 C422 1.531 . S
C419 C418 1.369 . S
C419 C420 1.410 . S
C419 C427 1.503 . S
C420 C419 1.410 . S
C420 C421 1.392 . S
C420 C423 1.511 . S
C421 C417 1.376 . S
C421 C420 1.392 . S
C421 H433 0.929 . S
C422 C418 1.531 . S
C422 H434 0.960 . S
C422 H435 0.962 . S
C422 H436 0.960 . S
C423 C420 1.511 . S
C423 H437 0.961 . S
C423 H438 0.961 . S
C423 H439 0.961 . S
C424 C425 1.370 . S
C424 C426 1.363 . S
C424 H440 0.931 . S
C425 C424 1.370 . S
C425 C429 1.408 . S
C426 C424 1.363 . S
C426 C427 1.370 . S
C426 C430 1.524 . S
C427 C419 1.503 . S
C427 C426 1.370 . S
C427 C428 1.403 . S
C428 C427 1.403 . S
C428 C429 1.404 . S
C428 C431 1.539 . S
C429 C425 1.408 . S
C429 C428 1.404 . S
C429 H441 0.930 . S
C430 C426 1.524 . S
C430 H442 0.956 . S
C430 H443 0.961 . S
C430 H444 0.961 . S
C431 C428 1.539 . S
C431 H445 0.958 . S
C431 H446 0.961 . S
C431 H447 0.960 . S
H432 C416 0.931 . S
H433 C421 0.929 . S
H434 C422 0.960 . S
H435 C422 0.962 . S
H436 C422 0.960 . S
H437 C423 0.961 . S
H438 C423 0.961 . S
H439 C423 0.961 . S
H440 C424 0.931 . S
H441 C429 0.930 . S
H442 C430 0.956 . S
H443 C430 0.961 . S
H444 C430 0.961 . S
H445 C431 0.958 . S
H446 C431 0.961 . S
H447 C431 0.960 . S
C448 C449 1.391 . S
C448 C450 1.394 . S
C448 H464 0.931 . S
C449 C448 1.391 . S
C449 C453 1.376 . S
C450 C448 1.394 . S
C450 C451 1.369 . S
C450 C454 1.531 . S
C451 C450 1.369 . S
C451 C452 1.410 . S
C451 C459 1.503 . S
C452 C451 1.410 . S
C452 C453 1.392 . S
C452 C455 1.511 . S
C453 C449 1.376 . S
C453 C452 1.392 . S
C453 H465 0.929 . S
C454 C450 1.531 . S
C454 H466 0.960 . S
C454 H467 0.962 . S
C454 H468 0.960 . S
C455 C452 1.511 . S
C455 H469 0.961 . S
C455 H470 0.961 . S
C455 H471 0.961 . S
C456 C457 1.370 . S
C456 C458 1.363 . S
C456 H472 0.931 . S
C457 C456 1.370 . S
C457 C461 1.408 . S
C458 C456 1.363 . S
C458 C459 1.370 . S
C458 C462 1.524 . S
C459 C451 1.503 . S
C459 C458 1.370 . S
C459 C460 1.403 . S
C460 C459 1.403 . S
C460 C461 1.404 . S
C460 C463 1.539 . S
C461 C457 1.408 . S
C461 C460 1.404 . S
C461 H473 0.930 . S
C462 C458 1.524 . S
C462 H474 0.956 . S
C462 H475 0.961 . S
C462 H476 0.961 . S
C463 C460 1.539 . S
C463 H477 0.958 . S
C463 H478 0.961 . S
C463 H479 0.960 . S
H464 C448 0.931 . S
H465 C453 0.929 . S
H466 C454 0.960 . S
H467 C454 0.962 . S
H468 C454 0.960 . S
H469 C455 0.961 . S
H470 C455 0.961 . S
H471 C455 0.961 . S
H472 C456 0.931 . S
H473 C461 0.930 . S
H474 C462 0.956 . S
H475 C462 0.961 . S
H476 C462 0.961 . S
H477 C463 0.958 . S
H478 C463 0.961 . S
H479 C463 0.960 . S
C480 C481 1.391 . S
C480 C482 1.394 . S
C480 H496 0.931 . S
C481 C480 1.391 . S
C481 C485 1.376 . S
C482 C480 1.394 . S
C482 C483 1.369 . S
C482 C486 1.531 . S
C483 C482 1.369 . S
C483 C484 1.410 . S
C483 C491 1.503 . S
C484 C483 1.410 . S
C484 C485 1.392 . S
C484 C487 1.511 . S
C485 C481 1.376 . S
C485 C484 1.392 . S
C485 H497 0.929 . S
C486 C482 1.531 . S
C486 H498 0.960 . S
C486 H499 0.962 . S
C486 H500 0.960 . S
C487 C484 1.511 . S
C487 H501 0.961 . S
C487 H502 0.961 . S
C487 H503 0.961 . S
C488 C489 1.370 . S
C488 C490 1.363 . S
C488 H504 0.931 . S
C489 C488 1.370 . S
C489 C493 1.408 . S
C490 C488 1.363 . S
C490 C491 1.370 . S
C490 C494 1.524 . S
C491 C483 1.503 . S
C491 C490 1.370 . S
C491 C492 1.403 . S
C492 C491 1.403 . S
C492 C493 1.404 . S
C492 C495 1.539 . S
C493 C489 1.408 . S
C493 C492 1.404 . S
C493 H505 0.930 . S
C494 C490 1.524 . S
C494 H506 0.956 . S
C494 H507 0.961 . S
C494 H508 0.961 . S
C495 C492 1.539 . S
C495 H509 0.958 . S
C495 H510 0.961 . S
C495 H511 0.960 . S
H496 C480 0.931 . S
H497 C485 0.929 . S
H498 C486 0.960 . S
H499 C486 0.962 . S
H500 C486 0.960 . S
H501 C487 0.961 . S
H502 C487 0.961 . S
H503 C487 0.961 . S
H504 C488 0.931 . S
H505 C493 0.930 . S
H506 C494 0.956 . S
H507 C494 0.961 . S
H508 C494 0.961 . S
H509 C495 0.958 . S
H510 C495 0.961 . S
H511 C495 0.960 . S
C512 C513 1.391 . S
C512 C514 1.394 . S
C512 H528 0.931 . S
C513 C512 1.391 . S
C513 C517 1.376 . S
C514 C512 1.394 . S
C514 C515 1.369 . S
C514 C518 1.531 . S
C515 C514 1.369 . S
C515 C516 1.410 . S
C515 C523 1.503 . S
C516 C515 1.410 . S
C516 C517 1.392 . S
C516 C519 1.511 . S
C517 C513 1.376 . S
C517 C516 1.392 . S
C517 H529 0.929 . S
C518 C514 1.531 . S
C518 H530 0.960 . S
C518 H531 0.962 . S
C518 H532 0.960 . S
C519 C516 1.511 . S
C519 H533 0.961 . S
C519 H534 0.961 . S
C519 H535 0.961 . S
C520 C521 1.370 . S
C520 C522 1.363 . S
C520 H536 0.931 . S
C521 C520 1.370 . S
C521 C525 1.408 . S
C522 C520 1.363 . S
C522 C523 1.370 . S
C522 C526 1.524 . S
C523 C515 1.503 . S
C523 C522 1.370 . S
C523 C524 1.403 . S
C524 C523 1.403 . S
C524 C525 1.404 . S
C524 C527 1.539 . S
C525 C521 1.408 . S
C525 C524 1.404 . S
C525 H537 0.930 . S
C526 C522 1.524 . S
C526 H538 0.956 . S
C526 H539 0.961 . S
C526 H540 0.961 . S
C527 C524 1.539 . S
C527 H541 0.958 . S
C527 H542 0.961 . S
C527 H543 0.960 . S
H528 C512 0.931 . S
H529 C517 0.929 . S
H530 C518 0.960 . S
H531 C518 0.962 . S
H532 C518 0.960 . S
H533 C519 0.961 . S
H534 C519 0.961 . S
H535 C519 0.961 . S
H536 C520 0.931 . S
H537 C525 0.930 . S
H538 C526 0.956 . S
H539 C526 0.961 . S
H540 C526 0.961 . S
H541 C527 0.958 . S
H542 C527 0.961 . S
H543 C527 0.960 . S
C161 C103 0.546 . S
C169 C23 0.566 . S
C193 C143 0.675 1_655 S
C201 C63 0.578 . S
C225 C82 0.516 . S
C233 C2 0.551 . S
C257 C42 0.604 . S
C265 C122 0.554 1_455 S
C289 C57 1.044 . S
C297 C26 1.051 . S
C321 C66 0.978 . S
C329 C106 0.953 . S
C353 C146 1.079 . S
C361 C97 1.085 . S
C385 C137 1.246 . S
C393 C17 1.208 . S
C417 C93 4.561 . S
C425 C144 4.521 . S
C449 C13 4.838 . S
C457 C133 4.847 . S
C481 C53 4.569 . S
C489 C24 4.524 . S
C513 C104 4.286 . S
C521 C64 4.288 . S
