# Generated by pormake.
# Topology neb, (4)-cn, num edge types: 1
# Building blocks:
#     Node 0, Type 0, BuildingBlock: UXUYUI_clean_sbu_0, # of connection points: 4
#     Node 1, Type 0, BuildingBlock: UXUYUI_clean_sbu_0, # of connection points: 4
#     Node 2, Type 0, BuildingBlock: UXUYUI_clean_sbu_0, # of connection points: 4
#     Node 3, Type 0, BuildingBlock: UXUYUI_clean_sbu_0, # of connection points: 4
#     Node 4, Type 0, BuildingBlock: UXUYUI_clean_sbu_0, # of connection points: 4
#     Node 5, Type 0, BuildingBlock: UXUYUI_clean_sbu_0, # of connection points: 4
#     Node 6, Type 0, BuildingBlock: UXUYUI_clean_sbu_0, # of connection points: 4
#     Node 7, Type 0, BuildingBlock: UXUYUI_clean_sbu_0, # of connection points: 4
#     Node 8, Type 0, BuildingBlock: UXUYUI_clean_sbu_0, # of connection points: 4
#     Node 9, Type 0, BuildingBlock: UXUYUI_clean_sbu_0, # of connection points: 4
#     Node 10, Type 0, BuildingBlock: UXUYUI_clean_sbu_0, # of connection points: 4
#     Node 11, Type 0, BuildingBlock: UXUYUI_clean_sbu_0, # of connection points: 4
#     Node 12, Type 0, BuildingBlock: UXUYUI_clean_sbu_0, # of connection points: 4
#     Node 13, Type 0, BuildingBlock: UXUYUI_clean_sbu_0, # of connection points: 4
#     Node 14, Type 0, BuildingBlock: UXUYUI_clean_sbu_0, # of connection points: 4
#     Node 15, Type 0, BuildingBlock: UXUYUI_clean_sbu_0, # of connection points: 4
#     Edge 16, Type (0, 0), BuildingBlock: UVAHIK_clean_linker_0, # of connection points: 2
#     Edge 17, Type (0, 0), BuildingBlock: UVAHIK_clean_linker_0, # of connection points: 2
#     Edge 18, Type (0, 0), BuildingBlock: UVAHIK_clean_linker_0, # of connection points: 2
#     Edge 19, Type (0, 0), BuildingBlock: UVAHIK_clean_linker_0, # of connection points: 2
#     Edge 20, Type (0, 0), BuildingBlock: UVAHIK_clean_linker_0, # of connection points: 2
#     Edge 21, Type (0, 0), BuildingBlock: UVAHIK_clean_linker_0, # of connection points: 2
#     Edge 22, Type (0, 0), BuildingBlock: UVAHIK_clean_linker_0, # of connection points: 2
#     Edge 23, Type (0, 0), BuildingBlock: UVAHIK_clean_linker_0, # of connection points: 2
#     Edge 24, Type (0, 0), BuildingBlock: UVAHIK_clean_linker_0, # of connection points: 2
#     Edge 25, Type (0, 0), BuildingBlock: UVAHIK_clean_linker_0, # of connection points: 2
#     Edge 26, Type (0, 0), BuildingBlock: UVAHIK_clean_linker_0, # of connection points: 2
#     Edge 27, Type (0, 0), BuildingBlock: UVAHIK_clean_linker_0, # of connection points: 2
#     Edge 28, Type (0, 0), BuildingBlock: UVAHIK_clean_linker_0, # of connection points: 2
#     Edge 29, Type (0, 0), BuildingBlock: UVAHIK_clean_linker_0, # of connection points: 2
#     Edge 30, Type (0, 0), BuildingBlock: UVAHIK_clean_linker_0, # of connection points: 2
#     Edge 31, Type (0, 0), BuildingBlock: UVAHIK_clean_linker_0, # of connection points: 2
#     Edge 32, Type (0, 0), BuildingBlock: UVAHIK_clean_linker_0, # of connection points: 2
#     Edge 33, Type (0, 0), BuildingBlock: UVAHIK_clean_linker_0, # of connection points: 2
#     Edge 34, Type (0, 0), BuildingBlock: UVAHIK_clean_linker_0, # of connection points: 2
#     Edge 35, Type (0, 0), BuildingBlock: UVAHIK_clean_linker_0, # of connection points: 2
#     Edge 36, Type (0, 0), BuildingBlock: UVAHIK_clean_linker_0, # of connection points: 2
#     Edge 37, Type (0, 0), BuildingBlock: UVAHIK_clean_linker_0, # of connection points: 2
#     Edge 38, Type (0, 0), BuildingBlock: UVAHIK_clean_linker_0, # of connection points: 2
#     Edge 39, Type (0, 0), BuildingBlock: UVAHIK_clean_linker_0, # of connection points: 2
#     Edge 40, Type (0, 0), BuildingBlock: UVAHIK_clean_linker_0, # of connection points: 2
#     Edge 41, Type (0, 0), BuildingBlock: UVAHIK_clean_linker_0, # of connection points: 2
#     Edge 42, Type (0, 0), BuildingBlock: UVAHIK_clean_linker_0, # of connection points: 2
#     Edge 43, Type (0, 0), BuildingBlock: UVAHIK_clean_linker_0, # of connection points: 2
#     Edge 44, Type (0, 0), BuildingBlock: UVAHIK_clean_linker_0, # of connection points: 2
#     Edge 45, Type (0, 0), BuildingBlock: UVAHIK_clean_linker_0, # of connection points: 2
#     Edge 46, Type (0, 0), BuildingBlock: UVAHIK_clean_linker_0, # of connection points: 2
#     Edge 47, Type (0, 0), BuildingBlock: UVAHIK_clean_linker_0, # of connection points: 2
# Relax obj value: 0.156
# Max RMSD: 0.184
# Mean RMSD: 0.183
data_MOF--net-neb--node1-UXUYUI_clean_sbu_0--edge1-UVAHIK_clean_linker_0
_symmetry_space_group_name_H-M    P1
_symmetry_Int_Tables_number       1
_symmetry_cell_setting            triclinic
loop_
_symmetry_equiv_pos_as_xyz
'x, y, z'
_cell_length_a     80.483637
_cell_length_b     38.072455
_cell_length_c     129.34925
_cell_angle_alpha  90.004677
_cell_angle_beta   90.009127
_cell_angle_gamma 90.003358
loop_
_atom_site_label
_atom_site_type_symbol
_atom_site_fract_x
_atom_site_fract_y
_atom_site_fract_z
_atom_type_partial_charge
Li0 Li 0.10904 0.10934 0.44561 0.0
Li1 Li 0.13665 0.13561 0.44532 0.0
Li2 Li 0.11489 0.15482 0.43336 0.0
Li3 Li 0.12832 0.09747 0.43143 0.0
C4 C 0.11029 0.19222 0.45013 0.0
N5 N 0.10073 0.26155 0.45222 0.0
C6 C 0.12192 0.2177 0.453 0.0
C7 C 0.09378 0.20197 0.44838 0.0
C8 C 0.11684 0.25262 0.45402 0.0
C9 C 0.0892 0.23718 0.44945 0.0
C10 C 0.14109 0.07316 0.45363 0.0
C11 C 0.16833 0.05561 0.45942 0.0
N12 N 0.16237 0.05211 0.4692 0.0
C13 C 0.1352 0.06924 0.46373 0.0
C14 C 0.15776 0.06612 0.45143 0.0
C15 C 0.14616 0.0586 0.4715 0.0
C16 C 0.09136 0.05309 0.45444 0.0
N17 N 0.0925 0.08869 0.45413 0.0
C18 C 0.06951 0.09442 0.46566 0.0
C19 C 0.08201 0.10944 0.45964 0.0
C20 C 0.06786 0.05769 0.46605 0.0
C21 C 0.07903 0.03694 0.46035 0.0
H22 H 0.09999 0.03729 0.45003 0.0
H23 H 0.08327 0.13765 0.45929 0.0
C24 C 0.16874 0.16303 0.44878 0.0
N25 N 0.15479 0.15111 0.45353 0.0
C26 C 0.18205 0.17561 0.45461 0.0
C27 C 0.16637 0.16351 0.47014 0.0
C28 C 0.15332 0.15135 0.464 0.0
C29 C 0.18098 0.17601 0.46545 0.0
H30 H 0.16943 0.16336 0.44044 0.0
H31 H 0.14194 0.14236 0.46757 0.0
C32 C 0.09025 0.08997 0.43019 0.0
N33 N 0.06168 0.04976 0.43056 0.0
C34 C 0.09096 0.0542 0.42782 0.0
C35 C 0.075 0.10537 0.43269 0.0
C36 C 0.07638 0.03431 0.42805 0.0
C37 C 0.0607 0.08456 0.43286 0.0
C38 C 0.14841 0.14252 0.42192 0.0
C39 C 0.14374 0.15909 0.41272 0.0
C40 C 0.16302 0.1227 0.42223 0.0
C41 C 0.15371 0.15529 0.40396 0.0
C42 C 0.17264 0.11949 0.41329 0.0
N43 N 0.16783 0.1357 0.40442 0.0
C44 C 0.11495 0.22433 0.42591 0.0
C45 C 0.09335 0.18845 0.41927 0.0
C46 C 0.11009 0.25208 0.41955 0.0
N47 N 0.10659 0.19334 0.42563 0.0
C48 C 0.08816 0.21539 0.4127 0.0
C49 C 0.0967 0.24755 0.41272 0.0
H50 H 0.12573 0.22709 0.43083 0.0
H51 H 0.08715 0.1633 0.41907 0.0
C52 C 0.14206 0.03289 0.42441 0.0
N53 N 0.13505 0.06379 0.42149 0.0
C54 C 0.14632 0.00781 0.41699 0.0
C55 C 0.13639 0.04726 0.40371 0.0
C56 C 0.13199 0.07115 0.41139 0.0
C57 C 0.14348 0.01478 0.40644 0.0
H58 H 0.14403 0.02745 0.43252 0.0
H59 H 0.12606 0.09563 0.40932 0.0
O60 O 0.11506 0.15795 0.44898 0.0
O61 O 0.13062 0.08408 0.44595 0.0
O62 O 0.10445 0.1097 0.43028 0.0
O63 O 0.1387 0.14556 0.43056 0.0
H64 H 0.13475 0.21069 0.45436 0.0
H65 H 0.08466 0.18267 0.44604 0.0
H66 H 0.12571 0.27263 0.4562 0.0
H67 H 0.0765 0.24513 0.44804 0.0
H68 H 0.18129 0.05028 0.45784 0.0
H69 H 0.12235 0.07473 0.46558 0.0
H70 H 0.1625 0.06901 0.44365 0.0
H71 H 0.1418 0.05564 0.47936 0.0
H72 H 0.06106 0.11142 0.46984 0.0
H73 H 0.07837 0.00854 0.46054 0.0
H74 H 0.19289 0.18567 0.45064 0.0
H75 H 0.16503 0.16307 0.47847 0.0
H76 H 0.10267 0.04182 0.42592 0.0
H77 H 0.07426 0.13298 0.43462 0.0
H78 H 0.07675 0.00655 0.42627 0.0
H79 H 0.04884 0.09606 0.43486 0.0
H80 H 0.13245 0.17444 0.41232 0.0
H81 H 0.1668 0.10961 0.42927 0.0
H82 H 0.15021 0.16783 0.39678 0.0
H83 H 0.18392 0.10404 0.41341 0.0
H84 H 0.11718 0.27625 0.41966 0.0
H85 H 0.07777 0.21092 0.40754 0.0
H86 H 0.15139 0.98294 0.41953 0.0
H87 H 0.13418 0.05429 0.39572 0.0
Li88 Li 0.12926 0.14812 0.8107 0.0
Li89 Li 0.116 0.09393 0.81169 0.0
Li90 Li 0.13781 0.1028 0.79871 0.0
Li91 Li 0.10882 0.13206 0.79741 0.0
C92 C 0.1523 0.10964 0.82065 0.0
N93 N 0.17736 0.12445 0.83459 0.0
C94 C 0.14847 0.11726 0.83095 0.0
C95 C 0.1689 0.10927 0.81746 0.0
C96 C 0.16131 0.1248 0.83787 0.0
C97 C 0.18139 0.11687 0.82462 0.0
C98 C 0.09246 0.13606 0.81888 0.0
C99 C 0.0634 0.12584 0.82229 0.0
N100 N 0.06662 0.12594 0.83261 0.0
C101 C 0.09546 0.13642 0.82952 0.0
C102 C 0.0763 0.131 0.81522 0.0
C103 C 0.08224 0.13109 0.83634 0.0
C104 C 0.12415 0.20981 0.8219 0.0
N105 N 0.13648 0.18848 0.8184 0.0
C106 C 0.15705 0.22469 0.82646 0.0
C107 C 0.15275 0.19595 0.8203 0.0
C108 C 0.14451 0.24651 0.83035 0.0
C109 C 0.12791 0.23924 0.82787 0.0
H110 H 0.11135 0.20386 0.82011 0.0
H111 H 0.1624 0.17961 0.81711 0.0
C112 C 0.11815 0.04554 0.82793 0.0
N113 N 0.10726 0.05917 0.82098 0.0
C114 C 0.11288 0.02093 0.83519 0.0
C115 C 0.08535 0.02349 0.82778 0.0
C116 C 0.09112 0.04849 0.82073 0.0
C117 C 0.09628 0.00974 0.83519 0.0
H118 H 0.13099 0.05364 0.82784 0.0
H119 H 0.08269 0.05936 0.81509 0.0
C120 C 0.14005 0.18321 0.7947 0.0
N121 N 0.15692 0.24635 0.79415 0.0
C122 C 0.13126 0.21484 0.79441 0.0
C123 C 0.15741 0.18364 0.79466 0.0
C124 C 0.14002 0.2465 0.79416 0.0
C125 C 0.16572 0.21585 0.79438 0.0
C126 C 0.10788 0.04927 0.79681 0.0
C127 C 0.11725 0.01982 0.79955 0.0
C128 C 0.09102 0.04545 0.79446 0.0
C129 C 0.10955 0.98697 0.79998 0.0
C130 C 0.08379 0.01213 0.79495 0.0
N131 N 0.09312 0.98383 0.79769 0.0
C132 C 0.1629 0.05323 0.79438 0.0
C133 C 0.15906 0.09712 0.7816 0.0
C134 C 0.17556 0.03778 0.78858 0.0
N135 N 0.15501 0.08236 0.79081 0.0
C136 C 0.17171 0.08268 0.77557 0.0
C137 C 0.18014 0.05254 0.77903 0.0
H138 H 0.15938 0.0421 0.80175 0.0
H139 H 0.15251 0.12026 0.77896 0.0
C140 C 0.08471 0.17954 0.79069 0.0
N141 N 0.09237 0.14885 0.78827 0.0
C142 C 0.07243 0.19315 0.78422 0.0
C143 C 0.07612 0.14312 0.77292 0.0
C144 C 0.08846 0.13066 0.77956 0.0
C145 C 0.06796 0.17478 0.77522 0.0
H146 H 0.08808 0.19332 0.7977 0.0
H147 H 0.09492 0.10647 0.7778 0.0
O148 O 0.13991 0.10182 0.81378 0.0
O149 O 0.10525 0.14103 0.81209 0.0
O150 O 0.13171 0.15199 0.79523 0.0
O151 O 0.11514 0.08172 0.7965 0.0
H152 H 0.13571 0.11749 0.83356 0.0
H153 H 0.17211 0.1036 0.80952 0.0
H154 H 0.15851 0.13093 0.84585 0.0
H155 H 0.19427 0.11686 0.82225 0.0
H156 H 0.05085 0.12164 0.81957 0.0
H157 H 0.10787 0.14068 0.83247 0.0
H158 H 0.07377 0.13058 0.807 0.0
H159 H 0.08439 0.13108 0.8446 0.0
H160 H 0.17001 0.2299 0.82813 0.0
H161 H 0.11793 0.25562 0.83075 0.0
H162 H 0.12177 0.01038 0.84066 0.0
H163 H 0.07245 0.01539 0.82754 0.0
H164 H 0.11782 0.21493 0.79449 0.0
H165 H 0.1644 0.15938 0.795 0.0
H166 H 0.13338 0.27121 0.794 0.0
H167 H 0.17915 0.2166 0.79441 0.0
H168 H 0.13027 0.02239 0.80146 0.0
H169 H 0.08354 0.06803 0.79243 0.0
H170 H 0.11663 0.96397 0.80216 0.0
H171 H 0.07074 0.0088 0.79321 0.0
H172 H 0.18155 0.01432 0.79149 0.0
H173 H 0.17497 0.09526 0.76834 0.0
H174 H 0.0663 0.21745 0.78632 0.0
H175 H 0.07312 0.12839 0.766 0.0
Li176 Li 0.88721 0.88132 0.54595 0.0
Li177 Li 0.86718 0.90415 0.55844 0.0
Li178 Li 0.8778 0.84413 0.55969 0.0
Li179 Li 0.85852 0.86103 0.54602 0.0
C180 C 0.90512 0.90482 0.56137 0.0
N181 N 0.93539 0.93904 0.56096 0.0
C182 C 0.90581 0.94136 0.56233 0.0
C183 C 0.91983 0.88566 0.56029 0.0
C184 C 0.92123 0.95818 0.5621 0.0
C185 C 0.93501 0.90346 0.56006 0.0
C186 C 0.85806 0.91709 0.53467 0.0
C187 C 0.8326 0.93517 0.52641 0.0
N188 N 0.83961 0.92904 0.51702 0.0
C189 C 0.86503 0.91105 0.52494 0.0
C190 C 0.84174 0.92935 0.53543 0.0
C191 C 0.8555 0.91726 0.5161 0.0
C192 C 0.91566 0.87045 0.53319 0.0
N193 N 0.90546 0.89475 0.53754 0.0
C194 C 0.92155 0.94157 0.53043 0.0
C195 C 0.908 0.92972 0.53617 0.0
C196 C 0.93249 0.91714 0.52597 0.0
C197 C 0.92934 0.88113 0.52734 0.0
H198 H 0.91324 0.84281 0.53432 0.0
H199 H 0.89954 0.94841 0.53963 0.0
C200 C 0.86368 0.94093 0.5769 0.0
N201 N 0.86119 0.94366 0.56655 0.0
C202 C 0.85931 0.96847 0.58344 0.0
C203 C 0.85071 0.00199 0.56848 0.0
C204 C 0.85495 0.97342 0.56222 0.0
C205 C 0.85276 -0.00055 0.57923 0.0
H206 H 0.86904 0.91722 0.58008 0.0
H207 H 0.85335 0.975 0.55394 0.0
C208 C 0.88302 0.79798 0.54518 0.0
N209 N 0.89053 0.72744 0.54704 0.0
C210 C 0.8708 0.77263 0.54336 0.0
C211 C 0.89907 0.78745 0.54792 0.0
C212 C 0.87485 0.7371 0.54434 0.0
C213 C 0.90261 0.75167 0.54883 0.0
C214 C 0.84433 0.86954 0.56895 0.0
C215 C 0.84726 0.85667 0.5789 0.0
C216 C 0.83126 0.89312 0.56729 0.0
C217 C 0.83711 0.86768 0.58704 0.0
C218 C 0.82142 0.90355 0.57564 0.0
N219 N 0.82452 0.89071 0.58526 0.0
C220 C 0.89632 0.81252 0.57582 0.0
C221 C 0.87272 0.78056 0.57017 0.0
C222 C 0.89916 0.78825 0.58372 0.0
N223 N 0.88319 0.8084 0.56933 0.0
C224 C 0.87511 0.75565 0.57792 0.0
C225 C 0.88827 0.7597 0.58496 0.0
H226 H 0.90424 0.83532 0.57511 0.0
H227 H 0.86218 0.77839 0.56503 0.0
C228 C 0.84403 0.83246 0.52796 0.0
N229 N 0.84071 0.845 0.53758 0.0
C230 C 0.8312 0.81944 0.52178 0.0
C231 C 0.81179 0.83311 0.53545 0.0
C232 C 0.82499 0.84553 0.54139 0.0
C233 C 0.8148 0.81946 0.52553 0.0
H234 H 0.8567 0.83209 0.52517 0.0
H235 H 0.82269 0.85535 0.54908 0.0
O236 O 0.89012 0.88794 0.56132 0.0
O237 O 0.86702 0.91023 0.54342 0.0
O238 O 0.87925 0.83292 0.54441 0.0
O239 O 0.85428 0.85945 0.56089 0.0
H240 H 0.89455 0.95664 0.56312 0.0
H241 H 0.91952 0.85739 0.55947 0.0
H242 H 0.92195 0.98646 0.56277 0.0
H243 H 0.94648 0.88899 0.55914 0.0
H244 H 0.81992 0.94444 0.52688 0.0
H245 H 0.8776 0.90128 0.52422 0.0
H246 H 0.83612 0.93389 0.54291 0.0
H247 H 0.8607 0.91254 0.50852 0.0
H248 H 0.92336 0.96955 0.52943 0.0
H249 H 0.93752 0.86145 0.52408 0.0
H250 H 0.86134 0.96587 0.59169 0.0
H251 H 0.84578 0.02565 0.56499 0.0
H252 H 0.85828 0.78026 0.54134 0.0
H253 H 0.90863 0.8067 0.54947 0.0
H254 H 0.8655 0.7172 0.543 0.0
H255 H 0.91495 0.74316 0.55101 0.0
H256 H 0.85736 0.83866 0.58038 0.0
H257 H 0.82898 0.90389 0.55969 0.0
H258 H 0.83928 0.85801 0.59479 0.0
H259 H 0.81137 0.922 0.57447 0.0
H260 H 0.90931 0.79266 0.58906 0.0
H261 H 0.86653 0.73383 0.57853 0.0
H262 H 0.83419 0.80875 0.51425 0.0
H263 H 0.79935 0.83424 0.53862 0.0
Li264 Li 0.8816 0.90201 0.18284 0.0
Li265 Li 0.85911 0.88583 0.19538 0.0
Li266 Li 0.88765 0.85887 0.19564 0.0
Li267 Li 0.86877 0.84483 0.18226 0.0
C268 C 0.88556 0.94313 0.19896 0.0
N269 N 0.89418 0.01335 0.19992 0.0
C270 C 0.8737 0.96832 0.20167 0.0
C271 C 0.90185 0.95367 0.19681 0.0
C272 C 0.8783 0.00368 0.2021 0.0
C273 C 0.90595 0.98928 0.19731 0.0
C274 C 0.84886 0.88643 0.17159 0.0
C275 C 0.8235 0.86906 0.16307 0.0
N276 N 0.83103 0.87339 0.15375 0.0
C277 C 0.85633 0.89083 0.16192 0.0
C278 C 0.8323 0.87553 0.17219 0.0
C279 C 0.84711 0.88405 0.15299 0.0
C280 C 0.90311 0.93739 0.16877 0.0
N281 N 0.88914 0.94003 0.17462 0.0
C282 C 0.88398 -0.0021 0.16831 0.0
C283 C 0.87952 0.96934 0.17445 0.0
C284 C 0.89834 0.99606 0.16217 0.0
C285 C 0.90799 0.96531 0.16245 0.0
H286 H 0.9103 0.91345 0.16887 0.0
H287 H 0.86826 0.9703 0.179 0.0
C288 C 0.84109 0.89832 0.21362 0.0
N289 N 0.84117 0.90329 0.20322 0.0
C290 C 0.82819 0.91193 0.21962 0.0
C291 C 0.81576 0.93549 0.20406 0.0
C292 C 0.82894 0.92158 0.19838 0.0
C293 C 0.81528 0.93083 0.21484 0.0
H294 H 0.85113 0.88399 0.21724 0.0
H295 H 0.82951 0.92562 0.19012 0.0
C296 C 0.90731 0.83921 0.18125 0.0
N297 N 0.93712 0.8039 0.18336 0.0
C298 C 0.90787 0.80266 0.18026 0.0
C299 C 0.92193 0.8578 0.18327 0.0
C300 C 0.92306 0.7853 0.18135 0.0
C301 C 0.93687 0.83946 0.18433 0.0
C302 C 0.8562 0.80588 0.19775 0.0
C303 C 0.86314 0.77349 0.19503 0.0
C304 C 0.83966 0.80743 0.20102 0.0
C305 C 0.85337 0.74321 0.19558 0.0
C306 C 0.83031 0.77654 0.20148 0.0
N307 N 0.8373 0.74535 0.19877 0.0
C308 C 0.91467 0.8651 0.20954 0.0
C309 C 0.90618 0.80661 0.20621 0.0
C310 C 0.9276 0.85325 0.21583 0.0
N311 N 0.90442 0.84177 0.20478 0.0
C312 C 0.91893 0.79358 0.21243 0.0
C313 C 0.92992 0.81702 0.21728 0.0
H314 H 0.91289 0.89291 0.20839 0.0
H315 H 0.89791 0.7886 0.20236 0.0
C316 C 0.87137 0.80597 0.1641 0.0
N317 N 0.86122 0.81076 0.17238 0.0
C318 C 0.86679 0.78336 0.15613 0.0
C319 C 0.84119 0.77119 0.16521 0.0
C320 C 0.8462 0.79443 0.17297 0.0
C321 C 0.85156 0.76554 0.15665 0.0
H322 H 0.88297 0.82017 0.16361 0.0
H323 H 0.83793 0.79991 0.17933 0.0
O324 O 0.88122 0.90842 0.19832 0.0
O325 O 0.85784 0.89191 0.18041 0.0
O326 O 0.89248 0.85662 0.18046 0.0
O327 O 0.86559 0.83582 0.19739 0.0
H328 H 0.86105 0.96075 0.20337 0.0
H329 H 0.91116 0.93465 0.1946 0.0
H330 H 0.86922 0.02345 0.20415 0.0
H331 H 0.91846 0.99781 0.19558 0.0
H332 H 0.81071 0.86039 0.16342 0.0
H333 H 0.86919 0.89892 0.16132 0.0
H334 H 0.82641 0.87149 0.17961 0.0
H335 H 0.85276 0.88714 0.14546 0.0
H336 H 0.87599 0.0208 0.16816 0.0
H337 H 0.91914 0.96284 0.15782 0.0
H338 H 0.82848 0.90819 0.22791 0.0
H339 H 0.80602 0.94954 0.20004 0.0
H340 H 0.89667 0.78776 0.17881 0.0
H341 H 0.92173 0.88602 0.18418 0.0
H342 H 0.92365 0.75701 0.18065 0.0
H343 H 0.94826 0.8535 0.18598 0.0
H344 H 0.8758 0.77178 0.19231 0.0
H345 H 0.83405 0.83219 0.20314 0.0
H346 H 0.85855 0.71803 0.19342 0.0
H347 H 0.81749 0.77738 0.20397 0.0
H348 H 0.93563 0.87225 0.21956 0.0
H349 H 0.92037 0.76544 0.21324 0.0
H350 H 0.87515 0.77964 0.14966 0.0
H351 H 0.82921 0.75838 0.16579 0.0
Li352 Li 0.13504 0.63721 0.94515 0.0
Li353 Li 0.10779 0.60935 0.94507 0.0
Li354 Li 0.12876 0.59476 0.93204 0.0
Li355 Li 0.11443 0.65149 0.93193 0.0
C356 C 0.13521 0.55338 0.94788 0.0
N357 N 0.14587 0.48443 0.94849 0.0
C358 C 0.1242 0.52665 0.95071 0.0
C359 C 0.15166 0.54507 0.94542 0.0
C360 C 0.12984 0.49195 0.95097 0.0
C361 C 0.1568 0.51005 0.94575 0.0
C362 C 0.10339 0.66893 0.95507 0.0
C363 C 0.07643 0.68141 0.96233 0.0
N364 N 0.08344 0.68405 0.97187 0.0
C365 C 0.11035 0.67188 0.96493 0.0
C366 C 0.08632 0.6739 0.95373 0.0
C367 C 0.10004 0.67952 0.97333 0.0
C368 C 0.15349 0.6916 0.95449 0.0
N369 N 0.1521 0.65616 0.95361 0.0
C370 C 0.17564 0.64757 0.96454 0.0
C371 C 0.16274 0.6341 0.95853 0.0
C372 C 0.17756 0.68411 0.96551 0.0
C373 C 0.16625 0.70624 0.9604 0.0
H374 H 0.14471 0.70847 0.95056 0.0
H375 H 0.16126 0.60604 0.95775 0.0
C376 C 0.07621 0.58012 0.94894 0.0
N377 N 0.09053 0.59095 0.95348 0.0
C378 C 0.06321 0.56711 0.95494 0.0
C379 C 0.08003 0.57618 0.9702 0.0
C380 C 0.09276 0.58879 0.96388 0.0
C381 C 0.06496 0.56523 0.96574 0.0
H382 H 0.07491 0.58142 0.94064 0.0
H383 H 0.1044 0.59711 0.96726 0.0
C384 C 0.15234 0.66147 0.92961 0.0
N385 N 0.18064 0.7025 0.92982 0.0
C386 C 0.15118 0.69771 0.92805 0.0
C387 C 0.16789 0.64604 0.9312 0.0
C388 C 0.16564 0.71801 0.92819 0.0
C389 C 0.18205 0.66726 0.93131 0.0
C390 C 0.09469 0.60869 0.92175 0.0
C391 C 0.09962 0.59667 0.91201 0.0
C392 C 0.07968 0.62682 0.9228 0.0
C393 C 0.08949 0.60327 0.90346 0.0
C394 C 0.06992 0.63296 0.91406 0.0
N395 N 0.07499 0.62116 0.90464 0.0
C396 C 0.1299 0.52688 0.92321 0.0
C397 C 0.14897 0.56787 0.91615 0.0
C398 C 0.13472 0.50159 0.916 0.0
N399 N 0.13705 0.55922 0.92314 0.0
C400 C 0.15398 0.54357 0.9087 0.0
C401 C 0.14669 0.5101 0.90852 0.0
H402 H 0.12007 0.52112 0.92864 0.0
H403 H 0.15417 0.59403 0.91612 0.0
C404 C 0.09711 0.71427 0.9267 0.0
N405 N 0.10633 0.6871 0.92302 0.0
C406 C 0.09139 0.74029 0.91996 0.0
C407 C 0.10471 0.70965 0.90583 0.0
C408 C 0.11032 0.68451 0.91284 0.0
C409 C 0.09516 0.73805 0.90938 0.0
H410 H 0.09431 0.71588 0.93485 0.0
H411 H 0.11793 0.6629 0.91019 0.0
O412 O 0.1299 0.58749 0.94752 0.0
O413 O 0.11323 0.66095 0.94677 0.0
O414 O 0.1383 0.64126 0.92975 0.0
O415 O 0.10459 0.6031 0.93019 0.0
H416 H 0.11143 0.53256 0.95262 0.0
H417 H 0.1603 0.56539 0.94312 0.0
H418 H 0.12145 0.47098 0.95311 0.0
H419 H 0.16946 0.50321 0.94379 0.0
H420 H 0.06318 0.68505 0.96142 0.0
H421 H 0.12352 0.66796 0.96612 0.0
H422 H 0.08072 0.67149 0.94616 0.0
H423 H 0.10524 0.68173 0.98102 0.0
H424 H 0.18417 0.62957 0.96826 0.0
H425 H 0.16714 0.73454 0.96105 0.0
H426 H 0.05198 0.55824 0.95114 0.0
H427 H 0.08191 0.57547 0.97848 0.0
H428 H 0.13923 0.71009 0.92687 0.0
H429 H 0.16898 0.61804 0.93246 0.0
H430 H 0.16493 0.74612 0.92706 0.0
H431 H 0.19416 0.65573 0.93261 0.0
H432 H 0.11121 0.5827 0.91103 0.0
H433 H 0.07573 0.63651 0.93027 0.0
H434 H 0.09319 0.59427 0.89586 0.0
H435 H 0.05834 0.64719 0.91475 0.0
H436 H 0.12861 0.47624 0.91598 0.0
H437 H 0.1632 0.55106 0.90301 0.0
H438 H 0.08407 0.76184 0.92298 0.0
H439 H 0.10815 0.70734 0.89777 0.0
Li440 Li 0.13033 0.65018 0.30995 0.0
Li441 Li 0.11663 0.59277 0.31011 0.0
Li442 Li 0.13736 0.60756 0.29698 0.0
Li443 Li 0.10981 0.63409 0.29683 0.0
C444 C 0.15088 0.60844 0.32016 0.0
N445 N 0.17123 0.62146 0.33694 0.0
C446 C 0.1466 0.59571 0.32994 0.0
C447 C 0.16556 0.62757 0.3189 0.0
C448 C 0.15705 0.6026 0.33833 0.0
C449 C 0.17566 0.63396 0.32748 0.0
C450 C 0.09244 0.6589 0.31226 0.0
C451 C 0.06275 0.66426 0.31028 0.0
N452 N 0.06401 0.69951 0.31181 0.0
C453 C 0.09344 0.69515 0.31385 0.0
C454 C 0.07698 0.64326 0.31051 0.0
C455 C 0.07891 0.71523 0.31359 0.0
C456 C 0.14509 0.71621 0.31439 0.0
N457 N 0.13801 0.68706 0.31856 0.0
C458 C 0.1405 0.71075 0.33557 0.0
C459 C 0.1355 0.684 0.32891 0.0
C460 C 0.14771 0.74129 0.33149 0.0
C461 C 0.14999 0.74396 0.32076 0.0
H462 H 0.14664 0.71818 0.30611 0.0
H463 H 0.1294 0.66094 0.33196 0.0
C464 C 0.11705 0.52614 0.31964 0.0
N465 N 0.10871 0.55713 0.31909 0.0
C466 C 0.11222 0.50058 0.32677 0.0
C467 C 0.09039 0.5394 0.33263 0.0
C468 C 0.09556 0.56411 0.32535 0.0
C469 C 0.09887 0.5073 0.33347 0.0
H470 H 0.12771 0.5217 0.31474 0.0
H471 H 0.08936 0.58921 0.32487 0.0
C472 C 0.14112 0.66706 0.28679 0.0
N473 N 0.161 0.68287 0.27001 0.0
C474 C 0.13428 0.66854 0.27686 0.0
C475 C 0.15804 0.67388 0.28819 0.0
C476 C 0.14454 0.67656 0.26848 0.0
C477 C 0.16789 0.68172 0.27961 0.0
C478 C 0.11068 0.55004 0.29468 0.0
C479 C 0.12216 0.52366 0.29236 0.0
C480 C 0.0943 0.541 0.2971 0.0
C481 C 0.11707 0.48858 0.29254 0.0
C482 C 0.0897 0.50562 0.29723 0.0
N483 N 0.10109 0.48036 0.29496 0.0
C484 C 0.16924 0.57967 0.29316 0.0
C485 C 0.15247 0.58669 0.27824 0.0
C486 C 0.1823 0.56675 0.28718 0.0
N487 N 0.15478 0.58962 0.28861 0.0
C488 C 0.16525 0.57416 0.27194 0.0
C489 C 0.18045 0.56405 0.2764 0.0
H490 H 0.17061 0.58153 0.30144 0.0
H491 H 0.14072 0.59425 0.27486 0.0
C492 C 0.09119 0.6875 0.28729 0.0
N493 N 0.09258 0.65211 0.28835 0.0
C494 C 0.07822 0.70183 0.28152 0.0
C495 C 0.06858 0.64296 0.27785 0.0
C496 C 0.08175 0.62978 0.2837 0.0
C497 C 0.06663 0.67945 0.27676 0.0
H498 H 0.10006 0.70457 0.29107 0.0
H499 H 0.08327 0.60176 0.28458 0.0
O500 O 0.1407 0.60237 0.31188 0.0
O501 O 0.10656 0.6389 0.31223 0.0
O502 O 0.13134 0.65871 0.29507 0.0
O503 O 0.11547 0.58451 0.29466 0.0
H504 H 0.13526 0.58098 0.33109 0.0
H505 H 0.16903 0.63775 0.3114 0.0
H506 H 0.15385 0.59305 0.34595 0.0
H507 H 0.187 0.64894 0.32663 0.0
H508 H 0.05072 0.65256 0.30884 0.0
H509 H 0.1053 0.70772 0.31517 0.0
H510 H 0.07601 0.61528 0.30917 0.0
H511 H 0.0795 0.74333 0.31476 0.0
H512 H 0.13826 0.7081 0.3438 0.0
H513 H 0.15542 0.76729 0.31736 0.0
H514 H 0.11927 0.47642 0.32729 0.0
H515 H 0.08 0.54552 0.33764 0.0
H516 H 0.12123 0.66318 0.27563 0.0
H517 H 0.16353 0.67278 0.29582 0.0
H518 H 0.13944 0.67762 0.26075 0.0
H519 H 0.18102 0.68682 0.28057 0.0
H520 H 0.1349 0.53014 0.2905 0.0
H521 H 0.08529 0.56105 0.29903 0.0
H522 H 0.12584 0.46788 0.2908 0.0
H523 H 0.0771 0.49823 0.29916 0.0
H524 H 0.19363 0.55853 0.29098 0.0
H525 H 0.16329 0.5728 0.26367 0.0
H526 H 0.07709 0.73011 0.28096 0.0
H527 H 0.0601 0.62476 0.27417 0.0
Li528 Li 0.88692 0.38485 0.04721 0.0
Li529 Li 0.8648 0.40177 0.05993 0.0
Li530 Li 0.87723 0.34419 0.06041 0.0
Li531 Li 0.85815 0.35888 0.04718 0.0
C532 C 0.89757 0.38518 0.07097 0.0
N533 N 0.91549 0.37158 0.08874 0.0
C534 C 0.89026 0.39 0.08066 0.0
C535 C 0.91401 0.37358 0.0703 0.0
C536 C 0.89952 0.38294 0.08956 0.0
C537 C 0.92286 0.36684 0.07938 0.0
C538 C 0.86085 0.44305 0.04385 0.0
C539 C 0.84083 0.48986 0.04559 0.0
N540 N 0.85277 0.51356 0.043 0.0
C541 C 0.8729 0.46787 0.04117 0.0
C542 C 0.84465 0.4541 0.04603 0.0
C543 C 0.86857 0.50339 0.04079 0.0
C544 C 0.90458 0.3968 0.0288 0.0
N545 N 0.90485 0.40156 0.03921 0.0
C546 C 0.93064 0.43229 0.03815 0.0
C547 C 0.91744 0.41903 0.04394 0.0
C548 C 0.93077 0.42785 0.02736 0.0
C549 C 0.91749 0.4098 0.02269 0.0
H550 H 0.89426 0.38311 0.02526 0.0
H551 H 0.91716 0.42291 0.05222 0.0
C552 C 0.84358 0.43771 0.07402 0.0
N553 N 0.85758 0.44 0.06818 0.0
C554 C 0.8388 0.46577 0.08031 0.0
C555 C 0.86301 0.49777 0.07448 0.0
C556 C 0.86735 0.46908 0.06836 0.0
C557 C 0.8486 0.4963 0.08059 0.0
H558 H 0.83625 0.41395 0.07391 0.0
H559 H 0.87862 0.46977 0.06382 0.0
C560 C 0.88901 0.30468 0.04478 0.0
N561 N 0.90718 0.24321 0.04356 0.0
C562 C 0.88178 0.27267 0.04758 0.0
C563 C 0.90547 0.30539 0.04133 0.0
C564 C 0.89118 0.2419 0.04692 0.0
C565 C 0.91445 0.27404 0.04077 0.0
C566 C 0.83867 0.33977 0.06177 0.0
C567 C 0.83786 0.3033 0.06295 0.0
C568 C 0.82415 0.35872 0.05975 0.0
C569 C 0.82252 0.28639 0.06205 0.0
C570 C 0.80906 0.34083 0.05887 0.0
N571 N 0.80856 0.30534 0.06003 0.0
C572 C 0.87484 0.30561 0.07864 0.0
C573 C 0.8996 0.29293 0.06946 0.0
C574 C 0.87947 0.2829 0.08657 0.0
N575 N 0.88475 0.30988 0.07023 0.0
C576 C 0.90465 0.26959 0.07718 0.0
C577 C 0.89452 0.26445 0.08588 0.0
H578 H 0.86339 0.32031 0.07926 0.0
H579 H 0.90771 0.29801 0.06299 0.0
C580 C 0.83121 0.36629 0.03329 0.0
N581 N 0.84103 0.34246 0.03818 0.0
C582 C 0.8179 0.35512 0.0272 0.0
C583 C 0.82532 0.29502 0.03106 0.0
C584 C 0.8385 0.30738 0.03705 0.0
C585 C 0.81472 0.31903 0.02612 0.0
H586 H 0.83355 0.39401 0.03424 0.0
H587 H 0.84651 0.28896 0.04095 0.0
O588 O 0.88854 0.39094 0.06218 0.0
O589 O 0.86493 0.40819 0.04445 0.0
O590 O 0.87999 0.3351 0.04525 0.0
O591 O 0.85364 0.35673 0.06239 0.0
H592 H 0.87749 0.39863 0.08131 0.0
H593 H 0.91978 0.3692 0.06285 0.0
H594 H 0.89399 0.38634 0.09711 0.0
H595 H 0.93556 0.35761 0.07898 0.0
H596 H 0.82838 0.49878 0.04735 0.0
H597 H 0.88548 0.4599 0.03945 0.0
H598 H 0.8352 0.43536 0.04823 0.0
H599 H 0.87779 0.52288 0.03876 0.0
H600 H 0.94067 0.44567 0.0421 0.0
H601 H 0.91691 0.40626 0.01439 0.0
H602 H 0.82761 0.46358 0.0849 0.0
H603 H 0.87111 0.52049 0.07464 0.0
H604 H 0.86918 0.27161 0.05043 0.0
H605 H 0.91129 0.32987 0.03914 0.0
H606 H 0.88578 0.21699 0.04914 0.0
H607 H 0.9272 0.27422 0.03813 0.0
H608 H 0.84896 0.28811 0.06441 0.0
H609 H 0.82456 0.38686 0.05868 0.0
H610 H 0.82172 0.25818 0.0629 0.0
H611 H 0.79776 0.35514 0.05722 0.0
H612 H 0.87128 0.2796 0.09314 0.0
H613 H 0.91649 0.2563 0.07647 0.0
H614 H 0.80997 0.37454 0.02359 0.0
H615 H 0.82347 0.26696 0.0303 0.0
Li616 Li 0.86733 0.34578 0.68278 0.0
Li617 Li 0.88722 0.35832 0.69658 0.0
Li618 Li 0.85837 0.37738 0.69781 0.0
Li619 Li 0.87767 0.40534 0.68576 0.0
C620 C 0.85828 0.31319 0.70487 0.0
N621 N 0.84004 0.2851 0.72095 0.0
C622 C 0.86552 0.30898 0.71461 0.0
C623 C 0.84181 0.3029 0.70328 0.0
C624 C 0.85608 0.29474 0.72265 0.0
C625 C 0.83278 0.28884 0.71152 0.0
C626 C 0.90542 0.34896 0.67989 0.0
C627 C 0.93528 0.35092 0.68135 0.0
N628 N 0.93615 0.3176 0.67759 0.0
C629 C 0.90661 0.3148 0.676 0.0
C630 C 0.91986 0.36728 0.68253 0.0
C631 C 0.92226 0.29939 0.67491 0.0
C632 C 0.86392 0.32365 0.66227 0.0
N633 N 0.86154 0.31349 0.67222 0.0
C634 C 0.85199 0.25713 0.66673 0.0
C635 C 0.85572 0.281 0.6746 0.0
C636 C 0.85417 0.26694 0.65633 0.0
C637 C 0.86008 0.30092 0.65417 0.0
H638 H 0.86884 0.34949 0.66063 0.0
H639 H 0.85424 0.27344 0.6826 0.0
C640 C 0.91382 0.36069 0.71086 0.0
N641 N 0.90552 0.3399 0.70406 0.0
C642 C 0.9274 0.34749 0.71633 0.0
C643 C 0.92353 0.29165 0.70776 0.0
C644 C 0.90994 0.30585 0.70252 0.0
C645 C 0.93249 0.31255 0.71477 0.0
H646 H 0.90983 0.38746 0.71208 0.0
H647 H 0.90294 0.28981 0.69717 0.0
C648 C 0.84431 0.38744 0.67495 0.0
N649 N 0.82446 0.37971 0.65766 0.0
C650 C 0.84745 0.40728 0.66607 0.0
C651 C 0.831 0.36383 0.67506 0.0
C652 C 0.83728 0.40297 0.65741 0.0
C653 C 0.82115 0.36023 0.66623 0.0
C654 C 0.88231 0.43845 0.70329 0.0
C655 C 0.86982 0.46081 0.70691 0.0
C656 C 0.89829 0.45165 0.7016 0.0
C657 C 0.87352 0.49614 0.70872 0.0
C658 C 0.90148 0.48714 0.70348 0.0
N659 N 0.88914 0.50847 0.70697 0.0
C660 C 0.84358 0.38703 0.71738 0.0
C661 C 0.82524 0.39361 0.70317 0.0
C662 C 0.83092 0.39579 0.72429 0.0
N663 N 0.84053 0.38624 0.70705 0.0
C664 C 0.81222 0.40246 0.70979 0.0
C665 C 0.81502 0.404 0.7205 0.0
H666 H 0.85594 0.38153 0.72023 0.0
H667 H 0.82324 0.3935 0.69492 0.0
C668 C 0.89591 0.44834 0.67209 0.0
N669 N 0.88307 0.44783 0.67891 0.0
C670 C 0.89885 0.47811 0.66607 0.0
C671 C 0.87559 0.50654 0.67442 0.0
C672 C 0.87302 0.47613 0.68021 0.0
C673 C 0.88843 0.50756 0.66706 0.0
H674 H 0.90347 0.42517 0.67104 0.0
H675 H 0.86267 0.47466 0.68552 0.0
O676 O 0.86721 0.32772 0.69696 0.0
O677 O 0.8902 0.36428 0.6812 0.0
O678 O 0.85426 0.39093 0.68346 0.0
O679 O 0.8789 0.40388 0.70136 0.0
H680 H 0.87824 0.31695 0.71598 0.0
H681 H 0.83602 0.30609 0.69579 0.0
H682 H 0.86149 0.29149 0.73024 0.0
H683 H 0.81998 0.28097 0.71042 0.0
H684 H 0.94655 0.36469 0.68343 0.0
H685 H 0.89556 0.30019 0.67395 0.0
H686 H 0.91915 0.3937 0.68558 0.0
H687 H 0.92337 0.2729 0.67196 0.0
H688 H 0.84782 0.23104 0.66881 0.0
H689 H 0.86175 0.30998 0.6463 0.0
H690 H 0.93367 0.36437 0.72182 0.0
H691 H 0.92707 0.26471 0.70622 0.0
H692 H 0.85772 0.42558 0.66581 0.0
H693 H 0.82847 0.34806 0.68183 0.0
H694 H 0.83961 0.41804 0.65047 0.0
H695 H 0.81089 0.34186 0.66618 0.0
H696 H 0.85737 0.45114 0.70821 0.0
H697 H 0.90807 0.43475 0.69875 0.0
H698 H 0.86396 0.51378 0.71147 0.0
H699 H 0.91376 0.49775 0.70215 0.0
H700 H 0.83358 0.39643 0.7325 0.0
H701 H 0.80025 0.40922 0.70652 0.0
H702 H 0.9087 0.47741 0.66037 0.0
H703 H 0.86736 0.52872 0.67554 0.0
Li704 Li 0.60915 0.10665 0.94511 0.0
Li705 Li 0.63616 0.13528 0.9459 0.0
Li706 Li 0.61654 0.14833 0.93204 0.0
Li707 Li 0.63114 0.09212 0.93278 0.0
C708 C 0.60363 0.16632 0.95479 0.0
N709 N 0.58245 0.18107 0.97103 0.0
C710 C 0.60993 0.17047 0.96479 0.0
C711 C 0.58657 0.16986 0.95304 0.0
C712 C 0.59901 0.17792 0.97289 0.0
C713 C 0.57606 0.17722 0.96136 0.0
C714 C 0.63655 0.05146 0.94877 0.0
C715 C 0.65844 0.00849 0.94727 0.0
N716 N 0.64735 0.98261 0.94949 0.0
C717 C 0.62537 0.02446 0.95106 0.0
C718 C 0.65324 0.04347 0.9469 0.0
C719 C 0.63108 0.98981 0.95138 0.0
C720 C 0.57747 0.07657 0.9484 0.0
N721 N 0.59151 0.08799 0.95316 0.0
C722 C 0.58037 0.07348 0.96973 0.0
C723 C 0.59329 0.08625 0.96359 0.0
C724 C 0.56558 0.06191 0.96505 0.0
C725 C 0.56429 0.06338 0.95422 0.0
H726 H 0.57654 0.07754 0.94007 0.0
H727 H 0.60471 0.09506 0.96715 0.0
C728 C 0.65354 0.19069 0.95544 0.0
N729 N 0.65246 0.15515 0.95473 0.0
C730 C 0.66594 0.20614 0.96145 0.0
C731 C 0.67557 0.14808 0.96611 0.0
C732 C 0.66301 0.13377 0.95998 0.0
C733 C 0.67722 0.18474 0.96684 0.0
H734 H 0.64484 0.20699 0.95125 0.0
H735 H 0.66179 0.10562 0.95932 0.0
C736 C 0.59808 0.10533 0.92136 0.0
N737 N 0.58029 0.11846 0.9035 0.0
C738 C 0.60444 0.09514 0.91176 0.0
C739 C 0.58263 0.12204 0.92188 0.0
C740 C 0.59525 0.10202 0.90282 0.0
C741 C 0.57385 0.12851 0.91276 0.0
C742 C 0.65457 0.15921 0.93084 0.0
C743 C 0.65338 0.19536 0.9291 0.0
C744 C 0.67004 0.14423 0.93302 0.0
C745 C 0.66772 0.21599 0.92963 0.0
C746 C 0.68407 0.16578 0.93351 0.0
N747 N 0.68263 0.2009 0.93182 0.0
C748 C 0.59756 0.20769 0.92534 0.0
C749 C 0.61557 0.18188 0.91299 0.0
C750 C 0.59219 0.23242 0.91809 0.0
N751 N 0.60899 0.18306 0.92265 0.0
C752 C 0.61058 0.206 0.90551 0.0
C753 C 0.59872 0.23171 0.90801 0.0
H754 H 0.59261 0.20812 0.9331 0.0
H755 H 0.62475 0.16213 0.91111 0.0
C756 C 0.63234 0.0246 0.92392 0.0
N757 N 0.6402 0.05616 0.92433 0.0
C758 C 0.63771 -0.00122 0.91704 0.0
C759 C 0.65911 0.03852 0.91108 0.0
C760 C 0.65341 0.06346 0.91815 0.0
C761 C 0.65109 0.00585 0.91039 0.0
H762 H 0.62156 0.01992 0.92872 0.0
H763 H 0.65919 0.08905 0.91847 0.0
O764 O 0.61409 0.15853 0.94678 0.0
O765 O 0.63118 0.08551 0.9483 0.0
O766 O 0.60708 0.09968 0.93018 0.0
O767 O 0.64063 0.13868 0.9306 0.0
H768 H 0.62308 0.16764 0.9663 0.0
H769 H 0.58146 0.16634 0.94538 0.0
H770 H 0.6037 0.18106 0.98068 0.0
H771 H 0.56282 0.17974 0.96013 0.0
H772 H 0.67129 0.0019 0.94577 0.0
H773 H 0.61241 0.0301 0.95249 0.0
H774 H 0.66202 0.06399 0.94501 0.0
H775 H 0.62256 0.96864 0.95311 0.0
H776 H 0.58189 0.07314 0.97804 0.0
H777 H 0.55328 0.05406 0.95026 0.0
H778 H 0.66663 0.2345 0.96192 0.0
H779 H 0.68409 0.13062 0.97005 0.0
H780 H 0.61641 0.08242 0.91119 0.0
H781 H 0.57761 0.13046 0.92923 0.0
H782 H 0.60006 0.09442 0.89534 0.0
H783 H 0.56195 0.14167 0.91304 0.0
H784 H 0.6415 0.20744 0.92749 0.0
H785 H 0.67115 0.11635 0.93448 0.0
H786 H 0.66697 0.24402 0.92835 0.0
H787 H 0.69609 0.15459 0.93527 0.0
H788 H 0.58297 0.25168 0.92032 0.0
H789 H 0.6162 0.20489 0.89791 0.0
H790 H 0.631 0.97416 0.91661 0.0
H791 H 0.66946 0.04494 0.90608 0.0
Li792 Li 0.63116 0.15261 0.31078 0.0
Li793 Li 0.61796 0.09477 0.30964 0.0
Li794 Li 0.63846 0.11411 0.29685 0.0
Li795 Li 0.61065 0.13967 0.29744 0.0
C796 C 0.65177 0.10954 0.32009 0.0
N797 N 0.67133 0.12007 0.33736 0.0
C798 C 0.64708 0.09528 0.32961 0.0
C799 C 0.66647 0.12893 0.31934 0.0
C800 C 0.65714 0.10093 0.33825 0.0
C801 C 0.67616 0.13406 0.32817 0.0
C802 C 0.59307 0.15836 0.31357 0.0
C803 C 0.56321 0.16124 0.31241 0.0
N804 N 0.56386 0.19629 0.31441 0.0
C805 C 0.59346 0.19436 0.31566 0.0
C806 C 0.57784 0.14157 0.31199 0.0
C807 C 0.57854 0.21309 0.31604 0.0
C808 C 0.64756 0.21531 0.3169 0.0
N809 N 0.63879 0.18703 0.32024 0.0
C810 C 0.64027 0.20709 0.3377 0.0
C811 C 0.63498 0.18261 0.33039 0.0
C812 C 0.64932 0.23666 0.33449 0.0
C813 C 0.65297 0.24066 0.32394 0.0
H814 H 0.65024 0.21833 0.30876 0.0
H815 H 0.62774 0.1601 0.33279 0.0
C816 C 0.61823 0.02449 0.3162 0.0
N817 N 0.61069 0.05601 0.31764 0.0
C818 C 0.61404 0.99587 0.32239 0.0
C819 C 0.59483 0.03301 0.3317 0.0
C820 C 0.59912 0.06074 0.32516 0.0
C821 C 0.60244 0.0 0.33043 0.0
H822 H 0.62772 0.02172 0.31035 0.0
H823 H 0.59362 0.08637 0.32628 0.0
C824 C 0.64151 0.17566 0.28789 0.0
N825 N 0.66073 0.19539 0.27117 0.0
C826 C 0.63422 0.18019 0.27817 0.0
C827 C 0.65855 0.18136 0.28912 0.0
C828 C 0.64415 0.19017 0.26981 0.0
C829 C 0.66807 0.19123 0.28057 0.0
C830 C 0.61164 0.05723 0.29273 0.0
C831 C 0.62263 0.0321 0.28882 0.0
C832 C 0.59539 0.04745 0.29526 0.0
C833 C 0.61721 0.99749 0.28758 0.0
C834 C 0.59046 0.01257 0.29392 0.0
N835 N 0.60138 0.98852 0.29014 0.0
C836 C 0.66999 0.08593 0.29273 0.0
C837 C 0.65406 0.09812 0.27774 0.0
C838 C 0.68299 0.07302 0.28671 0.0
N839 N 0.65594 0.09823 0.28818 0.0
C840 C 0.66682 0.08571 0.2714 0.0
C841 C 0.68147 0.07276 0.2759 0.0
H842 H 0.67105 0.08575 0.30105 0.0
H843 H 0.64258 0.10731 0.27434 0.0
C844 C 0.59096 0.19432 0.28923 0.0
N845 N 0.59311 0.15892 0.28944 0.0
C846 C 0.578 0.20901 0.2835 0.0
C847 C 0.56993 0.15054 0.2782 0.0
C848 C 0.58301 0.13701 0.28404 0.0
C849 C 0.56729 0.187 0.27788 0.0
H850 H 0.59934 0.21111 0.29351 0.0
H851 H 0.5851 0.10903 0.28426 0.0
O852 O 0.64193 0.10491 0.31157 0.0
O853 O 0.60755 0.13973 0.31292 0.0
O854 O 0.63204 0.16546 0.29613 0.0
O855 O 0.61674 0.09121 0.29406 0.0
H856 H 0.63574 0.08027 0.33034 0.0
H857 H 0.67023 0.14032 0.31204 0.0
H858 H 0.65362 0.09019 0.34568 0.0
H859 H 0.6875 0.14924 0.32772 0.0
H860 H 0.55133 0.14865 0.31113 0.0
H861 H 0.60515 0.20778 0.31686 0.0
H862 H 0.57735 0.11372 0.31034 0.0
H863 H 0.57865 0.24101 0.3176 0.0
H864 H 0.63695 0.20337 0.34574 0.0
H865 H 0.65994 0.2631 0.32117 0.0
H866 H 0.62005 0.97093 0.32093 0.0
H867 H 0.58609 0.03783 0.3379 0.0
H868 H 0.62107 0.17573 0.27706 0.0
H869 H 0.66441 0.17774 0.29657 0.0
H870 H 0.6387 0.19363 0.26224 0.0
H871 H 0.68129 0.19549 0.28139 0.0
H872 H 0.63525 0.03914 0.28684 0.0
H873 H 0.58676 0.06649 0.29837 0.0
H874 H 0.62561 0.97775 0.2846 0.0
H875 H 0.57796 0.00459 0.29591 0.0
H876 H 0.69413 0.06346 0.29047 0.0
H877 H 0.66509 0.08549 0.26309 0.0
H878 H 0.57655 0.23728 0.28335 0.0
H879 H 0.56187 0.13259 0.27407 0.0
Li880 Li 0.358 0.85835 0.04643 0.0
Li881 Li 0.37704 0.84381 0.05969 0.0
Li882 Li 0.3647 0.90146 0.05911 0.0
Li883 Li 0.38678 0.88416 0.04641 0.0
C884 C 0.3385 0.83963 0.06101 0.0
N885 N 0.30837 0.80529 0.05921 0.0
C886 C 0.33767 0.80313 0.06208 0.0
C887 C 0.32397 0.85866 0.05906 0.0
C888 C 0.32233 0.78627 0.06115 0.0
C889 C 0.30888 0.84082 0.05815 0.0
C890 C 0.38898 0.80411 0.04419 0.0
C891 C 0.41461 0.77388 0.04036 0.0
N892 N 0.40744 0.74297 0.04316 0.0
C893 C 0.38186 0.772 0.047 0.0
C894 C 0.40549 0.80507 0.04083 0.0
C895 C 0.3914 0.7414 0.04644 0.0
C896 C 0.33077 0.86528 0.03269 0.0
N897 N 0.34088 0.84171 0.03745 0.0
C898 C 0.32566 0.79384 0.03019 0.0
C899 C 0.33872 0.80658 0.0362 0.0
C900 C 0.31477 0.81753 0.02535 0.0
C901 C 0.31755 0.85372 0.02658 0.0
H902 H 0.33281 0.89306 0.03374 0.0
H903 H 0.34696 0.78839 0.04 0.0
C904 C 0.37439 0.80549 0.07795 0.0
N905 N 0.38444 0.80964 0.0696 0.0
C906 C 0.37886 0.78284 0.08593 0.0
C907 C 0.40419 0.76935 0.07672 0.0
C908 C 0.39929 0.79263 0.06894 0.0
C909 C 0.39391 0.76433 0.08535 0.0
H910 H 0.36294 0.82022 0.07849 0.0
H911 H 0.40751 0.79759 0.06252 0.0
C912 C 0.36076 0.94245 0.04299 0.0
N913 N 0.35274 0.01298 0.04206 0.0
C914 C 0.3728 0.96717 0.04021 0.0
C915 C 0.3446 0.95362 0.04522 0.0
C916 C 0.3685 0.0027 0.0398 0.0
C917 C 0.3408 0.98939 0.04474 0.0
C918 C 0.39757 0.88479 0.07011 0.0
C919 C 0.39036 0.8897 0.07983 0.0
C920 C 0.41399 0.87316 0.06937 0.0
C921 C 0.39973 0.8827 0.08869 0.0
C922 C 0.42295 0.86649 0.07842 0.0
N923 N 0.41569 0.87132 0.0878 0.0
C924 C 0.34374 0.93758 0.07331 0.0
C925 C 0.36745 0.96883 0.06749 0.0
C926 C 0.33918 0.96557 0.07968 0.0
N927 N 0.35763 0.93983 0.06736 0.0
C928 C 0.36332 0.99745 0.0737 0.0
C929 C 0.34905 0.99598 0.07994 0.0
H930 H 0.33638 0.91387 0.07324 0.0
H931 H 0.37863 0.96948 0.06286 0.0
C932 C 0.40439 0.89558 0.02795 0.0
N933 N 0.40468 0.9007 0.03834 0.0
C934 C 0.41726 0.90843 0.02179 0.0
C935 C 0.43042 0.93155 0.03716 0.0
C936 C 0.41726 0.91841 0.04301 0.0
C937 C 0.43053 0.92673 0.02638 0.0
H938 H 0.39408 0.88171 0.02446 0.0
H939 H 0.41699 0.92258 0.05127 0.0
O940 O 0.35347 0.85655 0.06164 0.0
O941 O 0.37982 0.83435 0.04455 0.0
O942 O 0.3648 0.90759 0.04362 0.0
O943 O 0.38843 0.8905 0.06135 0.0
H944 H 0.34878 0.78788 0.06348 0.0
H945 H 0.32438 0.88685 0.05807 0.0
H946 H 0.32153 0.75802 0.06191 0.0
H947 H 0.29757 0.8552 0.05656 0.0
H948 H 0.4274 0.77427 0.0378 0.0
H949 H 0.36922 0.77074 0.04978 0.0
H950 H 0.41124 0.82961 0.03863 0.0
H951 H 0.38607 0.71643 0.04867 0.0
H952 H 0.32412 0.76573 0.02932 0.0
H953 H 0.3094 0.8729 0.02305 0.0
H954 H 0.37056 0.77962 0.09245 0.0
H955 H 0.41604 0.75602 0.07609 0.0
H956 H 0.38536 0.95911 0.03845 0.0
H957 H 0.33515 0.93496 0.04749 0.0
H958 H 0.37772 0.02211 0.0377 0.0
H959 H 0.32839 -0.0016 0.04654 0.0
H960 H 0.37761 0.89837 0.08053 0.0
H961 H 0.41967 0.86872 0.0619 0.0
H962 H 0.39429 0.88618 0.09627 0.0
H963 H 0.43564 0.85724 0.07797 0.0
H964 H 0.32809 0.96339 0.08438 0.0
H965 H 0.37147 0.02007 0.07383 0.0
H966 H 0.41668 0.90459 0.0135 0.0
H967 H 0.44045 0.94514 0.04106 0.0
Li968 Li 0.37975 0.89878 0.68561 0.0
Li969 Li 0.35996 0.87932 0.69773 0.0
Li970 Li 0.38818 0.85618 0.69838 0.0
Li971 Li 0.36807 0.8405 0.68377 0.0
C972 C 0.39051 0.93079 0.7046 0.0
N973 N 0.41039 0.98393 0.7123 0.0
C974 C 0.38335 0.96163 0.70843 0.0
C975 C 0.40778 0.92689 0.70479 0.0
C976 C 0.39361 0.98822 0.71226 0.0
C977 C 0.41762 0.95407 0.70869 0.0
C978 C 0.34648 0.91436 0.68107 0.0
C979 C 0.32276 0.94158 0.67296 0.0
N980 N 0.32642 0.97225 0.67785 0.0
C981 C 0.34997 0.94612 0.68603 0.0
C982 C 0.33274 0.91202 0.67449 0.0
C983 C 0.3397 0.97509 0.68429 0.0
C984 C 0.38169 0.93312 0.66687 0.0
N985 N 0.38675 0.93664 0.67685 0.0
C986 C 0.40041 0.9907 0.67281 0.0
C987 C 0.39597 0.96474 0.67992 0.0
C988 C 0.39548 0.98739 0.66245 0.0
C989 C 0.38605 0.95811 0.65949 0.0
H990 H 0.37425 0.9107 0.66465 0.0
H991 H 0.39991 0.96728 0.68782 0.0
C992 C 0.34451 0.90807 0.71535 0.0
N993 N 0.34163 0.89256 0.70607 0.0
C994 C 0.33123 0.91899 0.72149 0.0
C995 C 0.3123 0.89699 0.70849 0.0
C996 C 0.32595 0.88669 0.70258 0.0
C997 C 0.31484 0.91367 0.71806 0.0
H998 H 0.35713 0.91214 0.71794 0.0
H999 H 0.32406 0.87398 0.69519 0.0
C1000 C 0.40226 0.86243 0.67516 0.0
N1001 N 0.42259 0.88148 0.65887 0.0
C1002 C 0.39818 0.85261 0.66505 0.0
C1003 C 0.4168 0.88153 0.67698 0.0
C1004 C 0.40859 0.86258 0.65693 0.0
C1005 C 0.42687 0.89105 0.66865 0.0
C1006 C 0.35391 0.81604 0.70445 0.0
C1007 C 0.35438 0.8177 0.71524 0.0
C1008 C 0.33988 0.8024 0.6995 0.0
C1009 C 0.34071 0.80588 0.72091 0.0
C1010 C 0.32648 0.79078 0.70545 0.0
N1011 N 0.32716 0.79279 0.71594 0.0
C1012 C 0.4042 0.83955 0.71718 0.0
C1013 C 0.41945 0.82611 0.70199 0.0
C1014 C 0.41717 0.82727 0.72338 0.0
N1015 N 0.40557 0.8386 0.70672 0.0
C1016 C 0.43282 0.81415 0.70788 0.0
C1017 C 0.43173 0.81461 0.7187 0.0
H1018 H 0.39311 0.85019 0.72071 0.0
H1019 H 0.42017 0.8257 0.69365 0.0
C1020 C 0.35253 0.81436 0.66594 0.0
N1021 N 0.36141 0.80519 0.67446 0.0
C1022 C 0.348 0.78892 0.65871 0.0
C1023 C 0.36173 0.74511 0.66923 0.0
C1024 C 0.36598 0.77142 0.67626 0.0
C1025 C 0.35272 0.75377 0.66027 0.0
H1026 H 0.3492 0.84154 0.6647 0.0
H1027 H 0.37313 0.76508 0.68309 0.0
O1028 O 0.38058 0.90434 0.70096 0.0
O1029 O 0.35626 0.88546 0.68271 0.0
O1030 O 0.392 0.85361 0.68318 0.0
O1031 O 0.36694 0.82849 0.69874 0.0
H1032 H 0.37 0.96503 0.70845 0.0
H1033 H 0.41359 0.90332 0.7019 0.0
H1034 H 0.38823 0.01226 0.7152 0.0
H1035 H 0.431 0.95143 0.70884 0.0
H1036 H 0.31209 0.94013 0.66789 0.0
H1037 H 0.36049 0.94843 0.69114 0.0
H1038 H 0.32977 0.88757 0.67065 0.0
H1039 H 0.34229 -0.00016 0.68808 0.0
H1040 H 0.40772 0.01297 0.67535 0.0
H1041 H 0.38182 0.95491 0.6516 0.0
H1042 H 0.3338 0.93207 0.72875 0.0
H1043 H 0.29991 0.8918 0.70561 0.0
H1044 H 0.38701 0.83776 0.66349 0.0
H1045 H 0.4202 0.88926 0.68474 0.0
H1046 H 0.40552 0.85537 0.64907 0.0
H1047 H 0.43808 0.90609 0.66995 0.0
H1048 H 0.36508 0.82842 0.71918 0.0
H1049 H 0.33925 0.80122 0.69115 0.0
H1050 H 0.34085 0.80722 0.72926 0.0
H1051 H 0.31551 0.78033 0.70172 0.0
H1052 H 0.41599 0.82828 0.73171 0.0
H1053 H 0.44382 0.80432 0.70402 0.0
H1054 H 0.34093 0.79669 0.65197 0.0
H1055 H 0.36584 0.71847 0.67066 0.0
Li1056 Li 0.60606 0.60595 0.4451 0.0
Li1057 Li 0.6353 0.63416 0.44596 0.0
Li1058 Li 0.61529 0.64751 0.43218 0.0
Li1059 Li 0.62798 0.59237 0.43259 0.0
C1060 C 0.60491 0.68786 0.44708 0.0
N1061 N 0.58951 0.75253 0.44577 0.0
C1062 C 0.61441 0.71856 0.4468 0.0
C1063 C 0.58759 0.69001 0.44673 0.0
C1064 C 0.60639 0.75102 0.44612 0.0
C1065 C 0.58003 0.72297 0.44607 0.0
C1066 C 0.63668 0.55287 0.44845 0.0
C1067 C 0.66193 0.51958 0.45069 0.0
N1068 N 0.65327 0.48937 0.44911 0.0
C1069 C 0.62803 0.52149 0.44689 0.0
C1070 C 0.65377 0.55195 0.45039 0.0
C1071 C 0.63665 0.48966 0.44723 0.0
C1072 C 0.58179 0.55625 0.45004 0.0
N1073 N 0.5882 0.58778 0.45292 0.0
C1074 C 0.56829 0.593 0.46652 0.0
C1075 C 0.58186 0.60616 0.46102 0.0
C1076 C 0.56146 0.56041 0.46373 0.0
C1077 C 0.56841 0.54185 0.45542 0.0
H1078 H 0.58694 0.54255 0.44346 0.0
H1079 H 0.58728 0.63112 0.46316 0.0
C1080 C 0.66028 0.68166 0.45113 0.0
N1081 N 0.65207 0.65279 0.45458 0.0
C1082 C 0.67327 0.69592 0.45689 0.0
C1083 C 0.66905 0.65054 0.46971 0.0
C1084 C 0.65601 0.63736 0.46373 0.0
C1085 C 0.67797 0.68012 0.46628 0.0
H1086 H 0.65682 0.69336 0.44382 0.0
H1087 H 0.64921 0.61443 0.46628 0.0
C1088 C 0.59181 0.60751 0.42316 0.0
N1089 N 0.56659 0.61943 0.40909 0.0
C1090 C 0.59546 0.61129 0.41265 0.0
C1091 C 0.57532 0.60949 0.42651 0.0
C1092 C 0.58254 0.61742 0.40567 0.0
C1093 C 0.56275 0.61558 0.41927 0.0
C1094 C 0.65182 0.63166 0.42438 0.0
C1095 C 0.64855 0.62907 0.4138 0.0
C1096 C 0.66807 0.62751 0.428 0.0
C1097 C 0.66159 0.6218 0.407 0.0
C1098 C 0.68078 0.62035 0.42095 0.0
N1099 N 0.6773 0.61761 0.41069 0.0
C1100 C 0.62152 0.70385 0.41903 0.0
C1101 C 0.5927 0.69347 0.42101 0.0
C1102 C 0.61844 0.72988 0.41172 0.0
N1103 N 0.60877 0.68548 0.42328 0.0
C1104 C 0.58903 0.7191 0.41363 0.0
C1105 C 0.60203 0.73711 0.40869 0.0
H1106 H 0.63418 0.69796 0.42121 0.0
H1107 H 0.5827 0.67949 0.42472 0.0
C1108 C 0.62507 0.53987 0.4176 0.0
N1109 N 0.6363 0.55495 0.42407 0.0
C1110 C 0.63005 0.51428 0.41056 0.0
C1111 C 0.65797 0.51848 0.41731 0.0
C1112 C 0.65248 0.54444 0.42415 0.0
C1113 C 0.64671 0.50361 0.41029 0.0
H1114 H 0.61223 0.54788 0.41782 0.0
H1115 H 0.6612 0.55648 0.4294 0.0
O1116 O 0.61255 0.65582 0.44752 0.0
O1117 O 0.6285 0.58433 0.44802 0.0
O1118 O 0.60428 0.60114 0.43011 0.0
O1119 O 0.6392 0.63862 0.43115 0.0
H1120 H 0.62783 0.71732 0.44702 0.0
H1121 H 0.58006 0.66646 0.44679 0.0
H1122 H 0.61358 0.77501 0.44584 0.0
H1123 H 0.56664 0.72503 0.44573 0.0
H1124 H 0.67516 0.5185 0.45212 0.0
H1125 H 0.61484 0.52173 0.44533 0.0
H1126 H 0.66072 0.57598 0.45146 0.0
H1127 H 0.63012 0.46519 0.44597 0.0
H1128 H 0.56329 0.6079 0.47294 0.0
H1129 H 0.56334 0.51682 0.45299 0.0
H1130 H 0.67953 0.71913 0.45402 0.0
H1131 H 0.67232 0.63721 0.47682 0.0
H1132 H 0.60813 0.60964 0.40993 0.0
H1133 H 0.57224 0.60676 0.4346 0.0
H1134 H 0.5852 0.62059 0.39752 0.0
H1135 H 0.54994 0.61736 0.42175 0.0
H1136 H 0.63607 0.63251 0.41087 0.0
H1137 H 0.67081 0.62931 0.43617 0.0
H1138 H 0.65923 0.6195 0.39879 0.0
H1139 H 0.69339 0.61683 0.42364 0.0
H1140 H 0.62885 0.74391 0.4084 0.0
H1141 H 0.57618 0.72386 0.41158 0.0
H1142 H 0.62094 0.50287 0.40539 0.0
H1143 H 0.67093 0.51081 0.41733 0.0
Li1144 Li 0.6171 0.5959 0.81215 0.0
Li1145 Li 0.63206 0.64967 0.81199 0.0
Li1146 Li 0.61187 0.63718 0.79838 0.0
Li1147 Li 0.63938 0.60427 0.79975 0.0
C1148 C 0.59256 0.65006 0.81714 0.0
N1149 N 0.56133 0.66293 0.82516 0.0
C1150 C 0.59082 0.66874 0.82638 0.0
C1151 C 0.57841 0.6381 0.81195 0.0
C1152 C 0.57492 0.67491 0.83032 0.0
C1153 C 0.56273 0.64484 0.81614 0.0
C1154 C 0.6441 0.59794 0.82531 0.0
C1155 C 0.66003 0.57285 0.83928 0.0
N1156 N 0.64961 0.5882 0.84622 0.0
C1157 C 0.63351 0.61332 0.83259 0.0
C1158 C 0.65743 0.5774 0.82869 0.0
C1159 C 0.63652 0.60816 0.84311 0.0
C1160 C 0.61702 0.53011 0.82122 0.0
N1161 N 0.60789 0.56011 0.82085 0.0
C1162 C 0.58854 0.53665 0.83307 0.0
C1163 C 0.59389 0.5639 0.82664 0.0
C1164 C 0.59765 0.50526 0.83346 0.0
C1165 C 0.61201 0.50209 0.8274 0.0
H1166 H 0.62836 0.52814 0.81678 0.0
H1167 H 0.58694 0.58804 0.82645 0.0
C1168 C 0.63103 0.71668 0.82068 0.0
N1169 N 0.64054 0.68728 0.82008 0.0
C1170 C 0.63602 0.74478 0.82686 0.0
C1171 C 0.66057 0.71189 0.83162 0.0
C1172 C 0.65523 0.68461 0.82521 0.0
C1173 C 0.65083 0.7423 0.83255 0.0
H1174 H 0.61946 0.71805 0.81645 0.0
H1175 H 0.66269 0.66114 0.82445 0.0
C1176 C 0.61054 0.55235 0.79661 0.0
N1177 N 0.59847 0.48439 0.79634 0.0
C1178 C 0.62142 0.52403 0.7954 0.0
C1179 C 0.59349 0.5461 0.79757 0.0
C1180 C 0.61508 0.48987 0.7953 0.0
C1181 C 0.58764 0.51156 0.79746 0.0
C1182 C 0.64582 0.68264 0.79657 0.0
C1183 C 0.63985 0.7165 0.79469 0.0
C1184 C 0.66268 0.67755 0.79869 0.0
C1185 C 0.65087 0.74485 0.79506 0.0
C1186 C 0.67329 0.70657 0.79898 0.0
N1187 N 0.66721 0.73934 0.79719 0.0
C1188 C 0.59146 0.69053 0.79037 0.0
C1189 C 0.58786 0.63459 0.7826 0.0
C1190 C 0.57871 0.70456 0.78434 0.0
N1191 N 0.59572 0.65615 0.78939 0.0
C1192 C 0.57485 0.64737 0.77654 0.0
C1193 C 0.57012 0.68273 0.77742 0.0
H1194 H 0.59771 0.70677 0.79602 0.0
H1195 H 0.59147 0.6073 0.78205 0.0
C1196 C 0.67099 0.57436 0.79716 0.0
N1197 N 0.65676 0.58326 0.79217 0.0
C1198 C 0.68401 0.55861 0.79176 0.0
C1199 C 0.66745 0.56159 0.77618 0.0
C1200 C 0.65475 0.57732 0.78189 0.0
C1201 C 0.68234 0.55202 0.78112 0.0
H1202 H 0.67222 0.57959 0.80533 0.0
H1203 H 0.64326 0.58481 0.77815 0.0
O1204 O 0.60805 0.64423 0.81314 0.0
O1205 O 0.64129 0.60212 0.81494 0.0
O1206 O 0.61656 0.58596 0.79689 0.0
O1207 O 0.63517 0.65466 0.7966 0.0
H1208 H 0.60163 0.67836 0.83047 0.0
H1209 H 0.57949 0.62364 0.80481 0.0
H1210 H 0.5734 0.68926 0.83748 0.0
H1211 H 0.55169 0.63566 0.81221 0.0
H1212 H 0.67031 0.55703 0.84199 0.0
H1213 H 0.62306 0.62906 0.83017 0.0
H1214 H 0.66566 0.56495 0.82318 0.0
H1215 H 0.62843 0.61998 0.84881 0.0
H1216 H 0.57743 0.54007 0.83768 0.0
H1217 H 0.61956 0.47855 0.82766 0.0
H1218 H 0.62811 0.76772 0.82744 0.0
H1219 H 0.67213 0.70923 0.83583 0.0
H1220 H 0.63465 0.52829 0.79468 0.0
H1221 H 0.58487 0.56762 0.79846 0.0
H1222 H 0.62338 0.46771 0.79444 0.0
H1223 H 0.57449 0.50635 0.79826 0.0
H1224 H 0.62685 0.7209 0.79306 0.0
H1225 H 0.66746 0.65153 0.80025 0.0
H1226 H 0.64641 0.77124 0.79368 0.0
H1227 H 0.68634 0.70305 0.80069 0.0
H1228 H 0.57524 0.73186 0.78531 0.0
H1229 H 0.56853 0.62984 0.77124 0.0
H1230 H 0.69519 0.55132 0.79591 0.0
H1231 H 0.66573 0.5574 0.76797 0.0
Li1232 Li 0.38649 0.37866 0.54672 0.0
Li1233 Li 0.36765 0.39791 0.55978 0.0
Li1234 Li 0.37686 0.33788 0.56071 0.0
Li1235 Li 0.35826 0.35886 0.54702 0.0
C1236 C 0.40635 0.37294 0.56479 0.0
N1237 N 0.43832 0.35548 0.57063 0.0
C1238 C 0.41507 0.39431 0.57169 0.0
C1239 C 0.41385 0.34254 0.56089 0.0
C1240 C 0.43124 0.38509 0.57453 0.0
C1241 C 0.43003 0.3342 0.56394 0.0
C1242 C 0.37068 0.44105 0.54272 0.0
C1243 C 0.36744 0.49461 0.53297 0.0
N1244 N 0.38017 0.50924 0.53838 0.0
C1245 C 0.38376 0.45662 0.54819 0.0
C1246 C 0.36247 0.46017 0.53505 0.0
C1247 C 0.38836 0.49111 0.54587 0.0
C1248 C 0.3995 0.39786 0.52754 0.0
N1249 N 0.40398 0.39293 0.53758 0.0
C1250 C 0.43172 0.4115 0.53387 0.0
C1251 C 0.4197 0.40004 0.54085 0.0
C1252 C 0.42743 0.41666 0.52348 0.0
C1253 C 0.41107 0.40995 0.52032 0.0
H1254 H 0.38682 0.39283 0.52518 0.0
H1255 H 0.42299 0.39764 0.54887 0.0
C1256 C 0.36829 0.4336 0.57843 0.0
N1257 N 0.36189 0.43546 0.56873 0.0
C1258 C 0.36414 0.45884 0.58578 0.0
C1259 C 0.34711 0.48792 0.57296 0.0
C1260 C 0.35148 0.46185 0.56586 0.0
C1261 C 0.35339 0.4864 0.58308 0.0
H1262 H 0.37645 0.41212 0.58048 0.0
H1263 H 0.34638 0.46234 0.55813 0.0
C1264 C 0.37341 0.30528 0.53851 0.0
N1265 N 0.3611 0.25811 0.52419 0.0
C1266 C 0.36203 0.27952 0.54154 0.0
C1267 C 0.37865 0.30684 0.52822 0.0
C1268 C 0.35591 0.25599 0.53418 0.0
C1269 C 0.37226 0.28278 0.52109 0.0
C1270 C 0.3422 0.3676 0.56844 0.0
C1271 C 0.34353 0.36166 0.57907 0.0
C1272 C 0.32904 0.38771 0.56461 0.0
C1273 C 0.33174 0.37633 0.58572 0.0
C1274 C 0.31749 0.40189 0.57151 0.0
N1275 N 0.31909 0.39599 0.58184 0.0
C1276 C 0.38643 0.31245 0.57987 0.0
C1277 C 0.38398 0.2676 0.56725 0.0
C1278 C 0.39103 0.28799 0.58735 0.0
N1279 N 0.38292 0.30189 0.57008 0.0
C1280 C 0.38832 0.24212 0.57453 0.0
C1281 C 0.39182 0.25216 0.58478 0.0
H1282 H 0.38569 0.34001 0.58184 0.0
H1283 H 0.38142 0.25998 0.55937 0.0
C1284 C 0.3406 0.35211 0.52823 0.0
N1285 N 0.34013 0.34534 0.53854 0.0
C1286 C 0.32779 0.34034 0.52182 0.0
C1287 C 0.31414 0.31572 0.53682 0.0
C1288 C 0.32727 0.32765 0.54292 0.0
C1289 C 0.31436 0.32184 0.52612 0.0
H1290 H 0.35106 0.36612 0.52498 0.0
H1291 H 0.32737 0.3222 0.55112 0.0
O1292 O 0.39037 0.38132 0.56217 0.0
O1293 O 0.36595 0.40719 0.54472 0.0
O1294 O 0.3792 0.32916 0.54554 0.0
O1295 O 0.35388 0.35435 0.56183 0.0
H1296 H 0.40939 0.41778 0.57483 0.0
H1297 H 0.40731 0.3256 0.55556 0.0
H1298 H 0.43815 0.40143 0.57985 0.0
H1299 H 0.436 0.31082 0.56098 0.0
H1300 H 0.36118 0.5097 0.52705 0.0
H1301 H 0.39033 0.44236 0.55413 0.0
H1302 H 0.35236 0.44845 0.53074 0.0
H1303 H 0.39845 0.50346 0.55004 0.0
H1304 H 0.44415 0.41718 0.53662 0.0
H1305 H 0.40731 0.41384 0.51236 0.0
H1306 H 0.36941 0.45699 0.59346 0.0
H1307 H 0.33869 0.50865 0.57063 0.0
H1308 H 0.35765 0.27829 0.54944 0.0
H1309 H 0.38752 0.32643 0.52575 0.0
H1310 H 0.34695 0.23619 0.53639 0.0
H1311 H 0.37615 0.28377 0.51309 0.0
H1312 H 0.35364 0.34617 0.58216 0.0
H1313 H 0.32792 0.39278 0.55641 0.0
H1314 H 0.33268 0.37215 0.59397 0.0
H1315 H 0.30732 0.41773 0.56866 0.0
H1316 H 0.39397 0.29716 0.59506 0.0
H1317 H 0.38861 0.21482 0.57219 0.0
H1318 H 0.32835 0.34574 0.5136 0.0
H1319 H 0.30414 0.30112 0.54041 0.0
Li1320 Li 0.38152 0.40205 0.1828 0.0
Li1321 Li 0.35924 0.38467 0.19536 0.0
Li1322 Li 0.3881 0.35916 0.19557 0.0
Li1323 Li 0.36932 0.34426 0.1822 0.0
C1324 C 0.38509 0.44323 0.19893 0.0
N1325 N 0.393 0.51381 0.19988 0.0
C1326 C 0.37292 0.46792 0.20151 0.0
C1327 C 0.40132 0.45444 0.19692 0.0
C1328 C 0.37717 0.50348 0.20194 0.0
C1329 C 0.40506 0.49023 0.1974 0.0
C1330 C 0.349 0.38495 0.17153 0.0
C1331 C 0.32393 0.36619 0.16294 0.0
N1332 N 0.33145 0.37112 0.15363 0.0
C1333 C 0.35647 0.38994 0.16189 0.0
C1334 C 0.3326 0.37305 0.17208 0.0
C1335 C 0.34739 0.38276 0.15293 0.0
C1336 C 0.40273 0.43828 0.16877 0.0
N1337 N 0.38871 0.44044 0.17459 0.0
C1338 C 0.38304 0.49798 0.16819 0.0
C1339 C 0.37883 0.46935 0.17437 0.0
C1340 C 0.39744 0.4966 0.16206 0.0
C1341 C 0.40737 0.46628 0.16242 0.0
H1342 H 0.41014 0.41464 0.16891 0.0
H1343 H 0.36754 0.46991 0.1789 0.0
C1344 C 0.3414 0.39649 0.2137 0.0
N1345 N 0.34115 0.40105 0.20329 0.0
C1346 C 0.3284 0.4093 0.21977 0.0
C1347 C 0.31519 0.43115 0.20425 0.0
C1348 C 0.32849 0.41811 0.1985 0.0
C1349 C 0.31504 0.42694 0.21505 0.0
H1350 H 0.35178 0.38314 0.21728 0.0
H1351 H 0.32879 0.42186 0.19022 0.0
C1352 C 0.40793 0.34059 0.1811 0.0
N1353 N 0.43819 0.30686 0.18303 0.0
C1354 C 0.40896 0.30415 0.17991 0.0
C1355 C 0.42232 0.35987 0.18323 0.0
C1356 C 0.42437 0.2876 0.18091 0.0
C1357 C 0.43748 0.34232 0.1842 0.0
C1358 C 0.35735 0.30451 0.19771 0.0
C1359 C 0.36468 0.27258 0.19493 0.0
C1360 C 0.34083 0.30503 0.20107 0.0
C1361 C 0.35534 0.24172 0.19551 0.0
C1362 C 0.33192 0.27358 0.20156 0.0
N1363 N 0.33929 0.24285 0.19878 0.0
C1364 C 0.41465 0.3666 0.2098 0.0
C1365 C 0.40762 0.30775 0.20577 0.0
C1366 C 0.42771 0.35532 0.21608 0.0
N1367 N 0.40507 0.34284 0.2047 0.0
C1368 C 0.42056 0.29529 0.21193 0.0
C1369 C 0.4309 0.31922 0.21712 0.0
H1370 H 0.41229 0.39433 0.2089 0.0
H1371 H 0.39979 0.28939 0.20171 0.0
C1372 C 0.37223 0.3057 0.16398 0.0
N1373 N 0.36211 0.30986 0.1723 0.0
C1374 C 0.36785 0.28288 0.15602 0.0
C1375 C 0.34251 0.26924 0.16519 0.0
C1376 C 0.34731 0.29268 0.17295 0.0
C1377 C 0.35285 0.26421 0.15658 0.0
H1378 H 0.38364 0.32057 0.16345 0.0
H1379 H 0.33904 0.29765 0.17935 0.0
O1380 O 0.38111 0.40834 0.19829 0.0
O1381 O 0.35786 0.39082 0.18039 0.0
O1382 O 0.39289 0.35721 0.18039 0.0
O1383 O 0.36631 0.33502 0.19733 0.0
H1384 H 0.36031 0.45982 0.20309 0.0
H1385 H 0.41087 0.43579 0.19482 0.0
H1386 H 0.36785 0.52287 0.20388 0.0
H1387 H 0.41753 0.49928 0.19578 0.0
H1388 H 0.31127 0.35674 0.16324 0.0
H1389 H 0.36921 0.3988 0.16133 0.0
H1390 H 0.32672 0.36851 0.17949 0.0
H1391 H 0.35304 0.3863 0.14541 0.0
H1392 H 0.37485 0.52053 0.16798 0.0
H1393 H 0.41856 0.46418 0.15781 0.0
H1394 H 0.32896 0.40595 0.22807 0.0
H1395 H 0.3051 0.4442 0.20026 0.0
H1396 H 0.39796 0.2887 0.17838 0.0
H1397 H 0.42175 0.388 0.1843 0.0
H1398 H 0.42532 0.2594 0.18006 0.0
H1399 H 0.44869 0.3569 0.18592 0.0
H1400 H 0.37732 0.27168 0.19215 0.0
H1401 H 0.33493 0.32943 0.20325 0.0
H1402 H 0.36083 0.21688 0.19331 0.0
H1403 H 0.31913 0.27362 0.20412 0.0
H1404 H 0.43544 0.37466 0.2199 0.0
H1405 H 0.42242 0.26723 0.21264 0.0
H1406 H 0.3762 0.27967 0.14952 0.0
H1407 H 0.33069 0.25579 0.16581 0.0
C1408 C 0.28411 0.3119 0.5226 0.0
C1409 C 0.30076 0.30836 0.51949 0.0
C1410 C 0.2713 0.29819 0.51654 0.0
C1411 C 0.26272 0.23084 0.49701 0.0
H1412 H 0.22271 0.28498 0.492 0.0
C1413 C 0.21146 0.18399 0.46896 0.0
C1414 C 0.19484 0.19025 0.47178 0.0
C1415 C 0.22448 0.19837 0.47471 0.0
C1416 C 0.23371 0.26932 0.49343 0.0
H1417 H 0.31706 0.28765 0.50763 0.0
H1418 H 0.29462 0.26374 0.497 0.0
H1419 H 0.24527 0.31062 0.50206 0.0
H1420 H 0.17894 0.21659 0.48289 0.0
H1421 H 0.20164 0.24067 0.4931 0.0
H1422 H 0.25111 0.18933 0.48852 0.0
C1423 C 0.29152 0.27706 0.50414 0.0
C1424 C 0.24664 0.28407 0.49917 0.0
C1425 C 0.30433 0.29103 0.51016 0.0
C1426 C 0.19158 0.21089 0.48056 0.0
C1427 C 0.20461 0.22513 0.48634 0.0
C1428 C 0.24974 0.21598 0.49132 0.0
C1429 C 0.27488 0.28041 0.50729 0.0
C1430 C 0.26127 0.26498 0.50103 0.0
C1431 C 0.22122 0.21924 0.48345 0.0
C1432 C 0.23506 0.23502 0.48948 0.0
H1433 H 0.28099 0.32536 0.52972 0.0
H1434 H 0.25861 0.30093 0.5192 0.0
H1435 H 0.27377 0.21533 0.49844 0.0
H1436 H 0.21443 0.16787 0.46232 0.0
H1437 H 0.23712 0.19356 0.4722 0.0
C1438 C 0.95141 0.9129 0.51059 0.0
C1439 C 0.94709 0.92929 0.51995 0.0
C1440 C 0.96494 0.92497 0.50482 0.0
C1441 C 0.00354 0.97693 0.50688 0.0
H1442 H -0.00149 0.98779 0.47723 0.0
C1443 C 0.05048 0.05454 0.48214 0.0
C1444 C 0.05453 0.04117 0.47233 0.0
C1445 C 0.03777 0.03937 0.48798 0.0
C1446 C 0.00021 0.98446 0.48548 0.0
H1447 H 0.95379 0.97062 0.53071 0.0
H1448 H 0.97724 0.99196 0.52057 0.0
H1449 H 0.97568 0.96373 0.48739 0.0
H1450 H 0.04835 0.00139 0.46095 0.0
H1451 H 0.02639 0.97446 0.47124 0.0
H1452 H 0.02804 0.99778 0.50498 0.0
C1453 C 0.97024 0.96967 0.51772 0.0
C1454 C 0.98712 0.97069 0.4913 0.0
C1455 C 0.9567 0.9577 0.52347 0.0
C1456 C 0.04565 0.01211 0.46852 0.0
C1457 C 0.03294 0.99693 0.47437 0.0
C1458 C 0.01664 0.99065 0.50106 0.0
C1459 C 0.97447 0.95356 0.5083 0.0
C1460 C 0.9886 0.96699 0.50207 0.0
C1461 C 0.02882 0.01044 0.48415 0.0
C1462 C 0.01509 0.9948 0.4903 0.0
H1463 H 0.94417 0.89111 0.50764 0.0
H1464 H 0.96798 0.9118 0.49764 0.0
H1465 H 0.00515 0.9739 0.51514 0.0
H1466 H 0.0572 0.07665 0.48534 0.0
H1467 H 0.0348 0.05067 0.49544 0.0
C1468 C 0.30072 0.92337 0.73515 0.0
C1469 C 0.30052 0.92608 0.72431 0.0
C1470 C 0.28744 0.93597 0.74103 0.0
C1471 C 0.25183 0.99724 0.73964 0.0
H1472 H 0.23694 0.94699 0.76402 0.0
C1473 C 0.19241 0.03537 0.7619 0.0
C1474 C 0.19366 0.03674 0.77273 0.0
C1475 C 0.20523 0.02109 0.75597 0.0
C1476 C 0.24106 0.96143 0.75728 0.0
H1477 H 0.28612 0.94421 0.71117 0.0
H1478 H 0.26275 0.96509 0.72139 0.0
H1479 H 0.2596 0.9231 0.75365 0.0
H1480 H 0.2095 0.02425 0.78581 0.0
H1481 H 0.23177 -0.00114 0.77545 0.0
H1482 H 0.23317 0.03539 0.74324 0.0
C1483 C 0.2733 0.95375 0.72536 0.0
C1484 C 0.25406 0.94781 0.75134 0.0
C1485 C 0.28662 0.94131 0.71949 0.0
C1486 C 0.20799 0.02312 0.7775 0.0
C1487 C 0.22077 0.00863 0.77157 0.0
C1488 C 0.23877 0.01072 0.74554 0.0
C1489 C 0.2736 0.95145 0.73621 0.0
C1490 C 0.25963 0.9656 0.74246 0.0
C1491 C 0.21956 0.00764 0.76074 0.0
C1492 C 0.23328 0.99301 0.75443 0.0
H1493 H 0.31114 0.9114 0.73911 0.0
H1494 H 0.28816 0.93409 0.74937 0.0
H1495 H 0.25599 0.01197 0.73297 0.0
H1496 H 0.18142 0.04501 0.75798 0.0
H1497 H 0.20386 0.02021 0.74764 0.0
C1498 C 0.04219 0.16621 0.76465 0.0
C1499 C 0.05474 0.18852 0.76835 0.0
C1500 C 0.02938 0.17947 0.75849 0.0
C1501 C 0.00844 0.26306 0.75165 0.0
H1502 H 0.98997 0.20763 0.72927 0.0
C1503 C 0.961 0.31894 0.72251 0.0
C1504 C 0.94696 0.29798 0.7205 0.0
C1505 C 0.97445 0.3055 0.72806 0.0
C1506 C 0.99495 0.22328 0.73554 0.0
H1507 H 0.06407 0.24191 0.76826 0.0
H1508 H 0.04195 0.26498 0.75733 0.0
H1509 H 0.01314 0.18442 0.73934 0.0
H1510 H 0.93613 0.24635 0.72284 0.0
H1511 H 0.95978 0.22276 0.73236 0.0
H1512 H 0.99034 0.30207 0.74774 0.0
C1513 C 0.0417 0.23743 0.75939 0.0
C1514 C 0.00819 0.20998 0.74133 0.0
C1515 C 0.05441 0.22422 0.76563 0.0
C1516 C 0.94683 0.26309 0.72409 0.0
C1517 C 0.96035 0.24956 0.72956 0.0
C1518 C 0.99531 0.27646 0.7458 0.0
C1519 C 0.02893 0.21529 0.75582 0.0
C1520 C 0.01506 0.22965 0.74949 0.0
C1521 C 0.97425 0.2707 0.73166 0.0
C1522 C 0.98839 0.25666 0.73772 0.0
H1523 H 0.04204 0.13866 0.76673 0.0
H1524 H 0.01963 0.16176 0.75602 0.0
H1525 H 0.01318 0.27867 0.758 0.0
H1526 H 0.96168 0.3457 0.7197 0.0
H1527 H 0.9851 0.32223 0.72945 0.0
C1528 C 0.78806 0.7858 0.52404 0.0
C1529 C 0.80095 0.80473 0.51926 0.0
C1530 C 0.77497 0.77215 0.51821 0.0
C1531 C 0.75394 0.78097 0.49282 0.0
H1532 H 0.73487 0.69091 0.5003 0.0
C1533 C 0.70634 0.70756 0.46728 0.0
C1534 C 0.69222 0.69416 0.47234 0.0
C1535 C 0.71969 0.72096 0.47293 0.0
C1536 C 0.74001 0.7162 0.49818 0.0
H1537 H 0.8101 0.82409 0.50454 0.0
H1538 H 0.78761 0.79908 0.49433 0.0
H1539 H 0.7583 0.71397 0.51013 0.0
H1540 H 0.68112 0.68467 0.48738 0.0
H1541 H 0.70464 0.70733 0.49723 0.0
H1542 H 0.73577 0.7827 0.48073 0.0
C1543 C 0.78744 0.79542 0.50263 0.0
C1544 C 0.7534 0.72951 0.50382 0.0
C1545 C 0.80048 0.80936 0.50848 0.0
C1546 C 0.69187 0.69423 0.48321 0.0
C1547 C 0.70531 0.70731 0.48887 0.0
C1548 C 0.74066 0.76746 0.48711 0.0
C1549 C 0.77449 0.77671 0.50743 0.0
C1550 C 0.76048 0.76217 0.50126 0.0
C1551 C 0.71932 0.72091 0.48378 0.0
C1552 C 0.73352 0.73504 0.48977 0.0
H1553 H 0.78812 0.7812 0.5323 0.0
H1554 H 0.76512 0.75832 0.5222 0.0
H1555 H 0.75888 0.80645 0.49073 0.0
H1556 H 0.70722 0.70728 0.45892 0.0
H1557 H 0.73044 0.73086 0.46882 0.0
C1558 C 0.70288 0.02683 0.27216 0.0
C1559 C 0.69502 0.0584 0.2694 0.0
C1560 C 0.71579 0.01338 0.26615 0.0
C1561 C 0.73476 0.01897 0.24013 0.0
H1562 H 0.77243 0.97592 0.25389 0.0
C1563 C 0.79484 0.97903 0.21865 0.0
C1564 C 0.80147 0.94582 0.22106 0.0
C1565 C 0.78183 0.99307 0.22448 0.0
C1566 C 0.76193 0.9876 0.24994 0.0
H1567 H 0.69453 0.10074 0.25821 0.0
H1568 H 0.71728 0.07754 0.24776 0.0
H1569 H 0.74982 0.00023 0.26417 0.0
H1570 H 0.7994 0.90119 0.23142 0.0
H1571 H 0.77685 0.926 0.24167 0.0
H1572 H 0.74705 0.0066 0.2259 0.0
C1573 C 0.71327 0.06282 0.25447 0.0
C1574 C 0.74895 0.00147 0.25582 0.0
C1575 C 0.70026 0.07616 0.26046 0.0
C1576 C 0.79479 0.92707 0.22945 0.0
C1577 C 0.78185 0.94122 0.23532 0.0
C1578 C 0.74781 0.00528 0.23425 0.0
C1579 C 0.72122 0.03131 0.25727 0.0
C1580 C 0.73516 0.01716 0.25099 0.0
C1581 C 0.77522 0.97434 0.23288 0.0
C1582 C 0.76148 0.98931 0.2391 0.0
H1583 H 0.69891 0.01227 0.27892 0.0
H1584 H 0.7214 0.98869 0.26841 0.0
H1585 H 0.72423 0.0304 0.23615 0.0
H1586 H 0.79988 0.99447 0.21236 0.0
H1587 H 0.77711 0.01886 0.22251 0.0
C1588 C 0.94145 0.77519 0.23045 0.0
C1589 C 0.94384 0.8037 0.22371 0.0
C1590 C 0.95464 0.76221 0.23634 0.0
C1591 C 0.99602 0.78594 0.24651 0.0
H1592 H 0.00152 0.6851 0.24902 0.0
C1593 C 0.05483 0.72295 0.26415 0.0
C1594 C 0.05251 0.69405 0.27075 0.0
C1595 C 0.04152 0.73662 0.2585 0.0
C1596 C 5e-05 0.71332 0.24849 0.0
H1597 H 0.96197 0.84074 0.2178 0.0
H1598 H 0.985 0.81808 0.22808 0.0
H1599 H 0.97834 0.70854 0.23906 0.0
H1600 H 0.03432 0.65731 0.27677 0.0
H1601 H 0.01111 0.68113 0.2669 0.0
H1602 H 0.01776 0.79068 0.25594 0.0
C1603 C 0.97287 0.8061 0.22893 0.0
C1604 C 0.98676 0.72675 0.24279 0.0
C1605 C 0.95968 0.81909 0.22304 0.0
C1606 C 0.03658 0.6792 0.27161 0.0
C1607 C 0.02328 0.69286 0.26596 0.0
C1608 C 0.00931 0.77249 0.25222 0.0
C1609 C 0.97051 0.77743 0.23561 0.0
C1610 C 0.98459 0.76321 0.24173 0.0
C1611 C 0.0256 0.7217 0.25933 0.0
C1612 C 0.01148 0.73603 0.25328 0.0
H1613 H 0.92934 0.76311 0.23126 0.0
H1614 H 0.95236 0.74045 0.24154 0.0
H1615 H 0.99455 0.81415 0.24597 0.0
H1616 H 0.067 0.73468 0.26321 0.0
H1617 H 0.04377 0.75854 0.25335 0.0
C1618 C 0.29103 0.77588 0.02268 0.0
C1619 C 0.3005 0.80451 0.01918 0.0
C1620 C 0.27764 0.76345 0.01688 0.0
C1621 C 0.24816 0.78908 0.99637 0.0
H1622 H 0.24193 0.68851 0.99359 0.0
C1623 C 0.20039 0.72809 0.9682 0.0
C1624 C 0.19132 0.69895 0.97177 0.0
C1625 C 0.21359 0.74153 0.974 0.0
C1626 C 0.24339 0.71666 0.99439 0.0
H1627 H 0.3034 0.84242 0.00679 0.0
H1628 H 0.28001 0.82066 0.99664 0.0
H1629 H 0.26523 0.71089 0.00365 0.0
H1630 H 0.18871 0.66168 0.98434 0.0
H1631 H 0.21172 0.68514 0.99446 0.0
H1632 H 0.2263 0.7948 0.98709 0.0
C1633 C 0.28282 0.80813 0.00395 0.0
C1634 C 0.25674 0.72949 0.00015 0.0
C1635 C 0.29622 0.82058 0.00976 0.0
C1636 C 0.19564 0.68378 0.9813 0.0
C1637 C 0.20882 0.69721 0.9871 0.0
C1638 C 0.23479 0.77624 0.9906 0.0
C1639 C 0.2734 0.77936 0.00743 0.0
C1640 C 0.25926 0.76583 0.00123 0.0
C1641 C 0.218 0.72612 0.98349 0.0
C1642 C 0.23224 0.73988 0.98957 0.0
H1643 H 0.29382 0.76335 0.03 0.0
H1644 H 0.27046 0.74163 0.01986 0.0
H1645 H 0.24964 0.81722 0.99717 0.0
H1646 H 0.19752 0.74006 0.96082 0.0
H1647 H 0.22056 0.76354 0.97095 0.0
C1648 C 0.03457 0.55996 0.96988 0.0
C1649 C 0.05117 0.55176 0.97227 0.0
C1650 C 0.02158 0.54677 0.97589 0.0
C1651 C 0.01186 0.51185 0.00162 0.0
H1652 H 0.97331 0.47184 0.98799 0.0
C1653 C 0.95175 0.47489 0.02345 0.0
C1654 C 0.9446 0.4422 0.02102 0.0
C1655 C 0.96482 0.48829 0.01755 0.0
C1656 C 0.98403 0.48279 0.99189 0.0
H1657 H 0.06708 0.52308 0.98288 0.0
H1658 H 0.04437 0.50056 0.99346 0.0
H1659 H 0.99615 0.49518 0.97762 0.0
H1660 H 0.94574 0.39786 0.0105 0.0
H1661 H 0.96838 0.4216 9e-05 0.0
H1662 H -0.00025 0.49932 0.0159 0.0
C1663 C 0.04147 0.51739 0.98695 0.0
C1664 C 0.99702 0.49643 0.98597 0.0
C1665 C 0.05447 0.53037 0.9809 0.0
C1666 C 0.95077 0.42336 0.01249 0.0
C1667 C 0.96376 0.43689 0.00654 0.0
C1668 C -0.0012 0.49848 0.00755 0.0
C1669 C 0.02489 0.52531 0.98447 0.0
C1670 C 0.01108 0.51103 0.99077 0.0
C1671 C 0.97094 0.46945 0.00903 0.0
C1672 C 0.98477 0.48375 0.00274 0.0
H1673 H 0.03159 0.57689 0.96341 0.0
H1674 H 0.00893 0.55373 0.97389 0.0
H1675 H 0.02249 0.5232 0.00553 0.0
H1676 H 0.94711 0.49042 0.02984 0.0
H1677 H 0.96997 0.51368 0.01955 0.0
C1678 C 0.29379 0.47357 0.21882 0.0
C1679 C 0.30112 0.44114 0.22135 0.0
C1680 C 0.28066 0.48686 0.2247 0.0
C1681 C 0.2616 0.48196 0.25039 0.0
H1682 H 0.22285 0.52081 0.2367 0.0
C1683 C 0.21084 0.55929 0.27218 0.0
C1684 C 0.19426 0.55052 0.26989 0.0
C1685 C 0.22385 0.54604 0.2662 0.0
C1686 C 0.23356 0.50991 0.24062 0.0
H1687 H 0.30022 0.39712 0.232 0.0
H1688 H 0.27749 0.4207 0.24236 0.0
H1689 H 0.24564 0.49698 0.22636 0.0
H1690 H 0.17844 0.52074 0.2595 0.0
H1691 H 0.20118 0.49815 0.24896 0.0
H1692 H 0.24951 0.4948 0.26465 0.0
C1693 C 0.28201 0.43587 0.23585 0.0
C1694 C 0.24665 0.49656 0.23471 0.0
C1695 C 0.29506 0.42243 0.22993 0.0
C1696 C 0.19102 0.52849 0.26139 0.0
C1697 C 0.20404 0.51546 0.25537 0.0
C1698 C 0.24858 0.4956 0.2563 0.0
C1699 C 0.27466 0.46817 0.23328 0.0
C1700 C 0.26078 0.48239 0.23954 0.0
C1701 C 0.22059 0.52396 0.25774 0.0
C1702 C 0.23442 0.50965 0.25147 0.0
H1703 H 0.29834 0.48901 0.21239 0.0
H1704 H 0.27538 0.51206 0.22263 0.0
H1705 H 0.2724 0.47145 0.25432 0.0
H1706 H 0.21378 0.57672 0.27854 0.0
H1707 H 0.23648 0.55343 0.26812 0.0
C1708 C 0.69496 0.18636 0.98278 0.0
C1709 C 0.69077 0.20047 0.97309 0.0
C1710 C 0.70797 0.20064 0.98855 0.0
C1711 C 0.74614 0.25314 0.98584 0.0
H1712 H 0.74197 0.2641 0.01553 0.0
C1713 C 0.79621 0.32234 0.01052 0.0
C1714 C 0.8003 0.30649 0.02 0.0
C1715 C 0.7826 0.3105 0.00479 0.0
C1716 C 0.74338 0.26089 0.00726 0.0
H1717 H 0.69699 0.24061 0.96183 0.0
H1718 H 0.71956 0.26591 0.97199 0.0
H1719 H 0.71854 0.24167 0.00556 0.0
H1720 H 0.79315 0.26616 0.03098 0.0
H1721 H 0.7696 0.24507 0.02089 0.0
H1722 H 0.77101 0.27214 0.98754 0.0
C1723 C 0.71285 0.2436 0.97509 0.0
C1724 C 0.72996 0.24806 0.00155 0.0
C1725 C 0.69981 0.22936 0.96932 0.0
C1726 C 0.79044 0.27864 0.02364 0.0
C1727 C 0.77683 0.26685 0.01792 0.0
C1728 C 0.75956 0.26596 0.99155 0.0
C1729 C 0.71712 0.22931 0.98475 0.0
C1730 C 0.73122 0.24387 0.99078 0.0
C1731 C 0.77276 0.28262 0.00843 0.0
C1732 C 0.75836 0.26981 0.00233 0.0
H1733 H 0.68812 0.16432 0.98594 0.0
H1734 H 0.71106 0.18881 0.99592 0.0
H1735 H 0.74758 0.24974 0.97757 0.0
H1736 H 0.80365 0.34367 0.00747 0.0
H1737 H 0.7797 0.32341 -0.00245 0.0
C1738 C 0.69278 0.50983 0.76768 0.0
C1739 C 0.6961 0.53548 0.77522 0.0
C1740 C 0.70575 0.49434 0.76212 0.0
C1741 C 0.7493 0.50905 0.75438 0.0
H1742 H 0.74886 0.40914 0.74853 0.0
C1743 C 0.80518 0.43967 0.73561 0.0
C1744 C 0.80164 0.41591 0.72758 0.0
C1745 C 0.79245 0.45281 0.74184 0.0
C1746 C 0.74908 0.43712 0.75003 0.0
H1747 H 0.71564 0.56516 0.78278 0.0
H1748 H 0.73826 0.53769 0.77323 0.0
H1749 H 0.72627 0.43517 0.75852 0.0
H1750 H 0.78203 0.38641 0.72004 0.0
H1751 H 0.75976 0.40978 0.73083 0.0
H1752 H 0.77204 0.51109 0.74587 0.0
C1753 C 0.72562 0.52977 0.77154 0.0
C1754 C 0.73614 0.45204 0.75574 0.0
C1755 C 0.71267 0.54523 0.7771 0.0
C1756 C 0.78513 0.40496 0.72609 0.0
C1757 C 0.7724 0.41807 0.73234 0.0
C1758 C 0.76223 0.49415 0.74868 0.0
C1759 C 0.72231 0.5042 0.76398 0.0
C1760 C 0.7361 0.48819 0.75797 0.0
C1761 C 0.77589 0.44249 0.74019 0.0
C1762 C 0.76227 0.45803 0.74643 0.0
H1763 H 0.68016 0.50147 0.76612 0.0
H1764 H 0.70277 0.47498 0.75627 0.0
H1765 H 0.74949 0.53708 0.75582 0.0
H1766 H 0.81774 0.44891 0.7369 0.0
H1767 H 0.79557 0.47126 0.74791 0.0
C1768 C 0.53507 0.05606 0.96877 0.0
C1769 C 0.55162 0.04829 0.97141 0.0
C1770 C 0.52193 0.04303 0.97469 0.0
C1771 C 0.5117 0.00978 0.00055 0.0
H1772 H 0.47338 0.96895 0.98688 0.0
C1773 C 0.45143 0.97374 0.0223 0.0
C1774 C 0.44433 0.94091 0.01999 0.0
C1775 C 0.4645 0.98694 0.01636 0.0
C1776 C 0.48403 0.98013 0.9908 0.0
H1777 H 0.56728 0.02037 0.98232 0.0
H1778 H 0.54433 -0.00189 0.99274 0.0
H1779 H 0.4964 0.99166 0.97654 0.0
H1780 H 0.44555 0.89612 0.00964 0.0
H1781 H 0.46821 0.91948 -0.00082 0.0
H1782 H 0.49938 -0.00191 0.01481 0.0
C1783 C 0.54157 0.01452 0.98612 0.0
C1784 C 0.49713 0.99341 0.98489 0.0
C1785 C 0.55471 0.02735 0.98016 0.0
C1786 C 0.45055 0.92173 0.01154 0.0
C1787 C 0.46355 0.93505 0.00556 0.0
C1788 C 0.49855 0.99677 0.00646 0.0
C1789 C 0.52505 0.02215 0.98343 0.0
C1790 C 0.51111 0.00829 0.9897 0.0
C1791 C 0.47069 0.96774 0.00793 0.0
C1792 C 0.4846 0.98174 0.00165 0.0
H1793 H 0.53224 0.07262 0.96219 0.0
H1794 H 0.50933 0.04973 0.97251 0.0
H1795 H 0.52226 0.02137 0.00447 0.0
H1796 H 0.44676 0.98953 0.02863 0.0
H1797 H 0.46962 0.01245 0.01828 0.0
C1798 C 0.45507 0.27887 0.21992 0.0
C1799 C 0.44501 0.30651 0.22348 0.0
C1800 C 0.4683 0.26664 0.22591 0.0
C1801 C 0.49618 0.2916 0.24735 0.0
H1802 H 0.50384 0.1912 0.24905 0.0
C1803 C 0.54374 0.22957 0.27552 0.0
C1804 C 0.55347 0.20185 0.27166 0.0
C1805 C 0.53053 0.24299 0.26973 0.0
C1806 C 0.50197 0.21933 0.24857 0.0
H1807 H 0.4409 0.34291 0.23611 0.0
H1808 H 0.46399 0.32145 0.24659 0.0
H1809 H 0.4807 0.21338 0.23882 0.0
H1810 H 0.55725 0.16719 0.25856 0.0
H1811 H 0.5342 0.19053 0.24847 0.0
H1812 H 0.51748 0.29746 0.25712 0.0
C1813 C 0.46177 0.30956 0.23911 0.0
C1814 C 0.48872 0.23204 0.2427 0.0
C1815 C 0.44854 0.32183 0.23312 0.0
C1816 C 0.5498 0.18811 0.26184 0.0
C1817 C 0.5366 0.20148 0.25606 0.0
C1818 C 0.50945 0.27886 0.25323 0.0
C1819 C 0.47176 0.28174 0.23559 0.0
C1820 C 0.48571 0.26832 0.24198 0.0
C1821 C 0.52675 0.22894 0.25996 0.0
C1822 C 0.51253 0.24259 0.25386 0.0
H1823 H 0.45286 0.26696 0.21244 0.0
H1824 H 0.47594 0.24561 0.22288 0.0
H1825 H 0.49433 0.31972 0.24684 0.0
H1826 H 0.54613 0.24043 0.28312 0.0
H1827 H 0.52305 0.26388 0.273 0.0
C1828 C 0.44314 0.77728 0.73295 0.0
C1829 C 0.44577 0.80202 0.72506 0.0
C1830 C 0.45651 0.7646 0.73874 0.0
C1831 C 0.49816 0.78635 0.74758 0.0
H1832 H 0.50464 0.6857 0.74973 0.0
C1833 C 0.55746 0.7277 0.76572 0.0
C1834 C 0.55593 0.69648 0.7714 0.0
C1835 C 0.544 0.74067 0.76006 0.0
C1836 C 0.5029 0.71387 0.74937 0.0
H1837 H 0.46424 0.83358 0.71718 0.0
H1838 H 0.48764 0.81189 0.72747 0.0
H1839 H 0.48086 0.70857 0.7402 0.0
H1840 H 0.53916 0.65469 0.77585 0.0
H1841 H 0.51546 0.67784 0.76632 0.0
H1842 H 0.51984 0.79192 0.75697 0.0
C1843 C 0.47526 0.80213 0.72909 0.0
C1844 C 0.48931 0.7269 0.74387 0.0
C1845 C 0.46194 0.81434 0.72318 0.0
C1846 C 0.54069 0.67859 0.77141 0.0
C1847 C 0.52715 0.69183 0.7659 0.0
C1848 C 0.51161 0.77334 0.75323 0.0
C1849 C 0.47268 0.77695 0.73686 0.0
C1850 C 0.48687 0.76323 0.74288 0.0
C1851 C 0.52863 0.72298 0.76011 0.0
C1852 C 0.51422 0.73691 0.75417 0.0
H1853 H 0.43078 0.76729 0.7345 0.0
H1854 H 0.45422 0.74531 0.74472 0.0
H1855 H 0.49644 0.8145 0.747 0.0
H1856 H 0.56915 0.74179 0.76553 0.0
H1857 H 0.54574 0.76434 0.75555 0.0
C1858 C 0.43667 0.45957 0.51 0.0
C1859 C 0.43998 0.42987 0.5161 0.0
C1860 C 0.44902 0.47358 0.50362 0.0
C1861 C 0.48745 0.45238 0.48999 0.0
H1862 H 0.4985 0.55077 0.49355 0.0
C1863 C 0.54738 0.51102 0.47296 0.0
C1864 C 0.54708 0.54583 0.46941 0.0
C1865 C 0.53377 0.49706 0.47824 0.0
C1866 C 0.49542 0.52343 0.4923 0.0
H1867 H 0.45845 0.39078 0.5201 0.0
H1868 H 0.47995 0.41485 0.50876 0.0
H1869 H 0.4752 0.52567 0.50306 0.0
H1870 H 0.53233 0.59324 0.4684 0.0
H1871 H 0.50829 0.56865 0.47732 0.0
H1872 H 0.50737 0.45001 0.4791 0.0
C1873 C 0.46788 0.42741 0.50898 0.0
C1874 C 0.48209 0.50907 0.49778 0.0
C1875 C 0.45564 0.41378 0.51549 0.0
C1876 C 0.53291 0.56642 0.47118 0.0
C1877 C 0.51918 0.55232 0.47632 0.0
C1878 C 0.50061 0.46682 0.48438 0.0
C1879 C 0.46475 0.4577 0.5031 0.0
C1880 C 0.47813 0.47334 0.49676 0.0
C1881 C 0.51944 0.51745 0.47995 0.0
C1882 C 0.50492 0.50245 0.48556 0.0
H1883 H 0.4247 0.47253 0.51041 0.0
H1884 H 0.44631 0.49688 0.49912 0.0
H1885 H 0.48452 0.42481 0.48901 0.0
H1886 H 0.55826 0.49474 0.47178 0.0
H1887 H 0.53462 0.47041 0.48111 0.0
C1888 C 0.16113 0.76545 0.34743 0.0
C1889 C 0.15181 0.77096 0.3384 0.0
C1890 C 0.16375 0.79294 0.3544 0.0
C1891 C 0.15872 0.89022 0.35754 0.0
H1892 H 0.15567 0.86619 0.38662 0.0
C1893 C 0.13724 0.98513 0.3895 0.0
C1894 C 0.14731 0.98804 0.39836 0.0
C1895 C 0.14061 0.9599 0.38197 0.0
C1896 C 0.15677 0.87319 0.37853 0.0
H1897 H 0.1381 0.8093 0.32947 0.0
H1898 H 0.14204 0.85691 0.34177 0.0
H1899 H 0.15646 0.81957 0.37373 0.0
H1900 H 0.16903 0.96654 0.40609 0.0
H1901 H 0.17432 0.92124 0.39311 0.0
H1902 H 0.15793 0.94401 0.36244 0.0
C1903 C 0.14785 0.83186 0.34338 0.0
C1904 C 0.15731 0.84652 0.37112 0.0
C1905 C 0.14549 0.80454 0.33633 0.0
C1906 C 0.16082 0.96481 0.39948 0.0
C1907 C 0.16396 0.93904 0.39203 0.0
C1908 C 0.15786 0.91685 0.36495 0.0
C1909 C 0.15683 0.82634 0.35259 0.0
C1910 C 0.158 0.85467 0.3605 0.0
C1911 C 0.15389 0.93648 0.38321 0.0
C1912 C 0.15663 0.90852 0.37548 0.0
H1913 H 0.16625 0.73978 0.34913 0.0
H1914 H 0.17103 0.78782 0.36128 0.0
H1915 H 0.15967 0.89758 0.34948 0.0
H1916 H 0.12647 0.00178 0.38844 0.0
H1917 H 0.1325 0.958 0.3753 0.0
C1918 C 0.09189 0.31074 0.40814 0.0
C1919 C 0.09253 0.27533 0.40513 0.0
C1920 C 0.08944 0.33711 0.40079 0.0
C1921 C 0.07705 0.35272 0.37338 0.0
H1922 H 0.1052 0.43478 0.37627 0.0
C1923 C 0.09402 0.44566 0.33964 0.0
C1924 C 0.09454 0.48187 0.34172 0.0
C1925 C 0.09117 0.42162 0.34761 0.0
C1926 C 0.09707 0.41229 0.37542 0.0
H1927 H 0.09085 0.23968 0.39211 0.0
H1928 H 0.0869 0.28558 0.37926 0.0
H1929 H 0.10482 0.39076 0.38988 0.0
H1930 H 0.09222 0.52133 0.35373 0.0
H1931 H 0.08722 0.47932 0.36764 0.0
H1932 H 0.06983 0.37392 0.3587 0.0
C1933 C 0.08789 0.29309 0.38731 0.0
C1934 C 0.0968 0.38705 0.38324 0.0
C1935 C 0.09019 0.26673 0.39467 0.0
C1936 C 0.09175 0.4936 0.35188 0.0
C1937 C 0.08903 0.46957 0.35985 0.0
C1938 C 0.07742 0.37788 0.36551 0.0
C1939 C 0.08775 0.32866 0.39025 0.0
C1940 C 0.08693 0.35675 0.38228 0.0
C1941 C 0.08895 0.43332 0.35782 0.0
C1942 C 0.08757 0.40774 0.36642 0.0
H1943 H 0.09346 0.31805 0.41618 0.0
H1944 H 0.08908 0.36418 0.40335 0.0
H1945 H 0.0691 0.32999 0.37245 0.0
H1946 H 0.096 0.43591 0.33187 0.0
H1947 H 0.0913 0.39381 0.34584 0.0
C1948 C 0.15693 0.26992 0.84661 0.0
C1949 C 0.14852 0.27604 0.83729 0.0
C1950 C 0.1591 0.29711 0.85374 0.0
C1951 C 0.14111 0.38401 0.86051 0.0
H1952 H 0.17805 0.38712 0.87975 0.0
C1953 C 0.14956 0.4964 0.88973 0.0
C1954 C 0.15044 0.48519 0.90006 0.0
C1955 C 0.15139 0.47234 0.88167 0.0
C1956 C 0.1677 0.38648 0.8744 0.0
H1957 H 0.13656 0.31531 0.82777 0.0
H1958 H 0.14107 0.36336 0.83993 0.0
H1959 H 0.17783 0.34317 0.86597 0.0
H1960 H 0.15461 0.44051 0.9101 0.0
H1961 H 0.15815 0.39835 0.89593 0.0
H1962 H 0.13119 0.42777 0.86886 0.0
C1963 C 0.14543 0.33739 0.84199 0.0
C1964 C 0.16748 0.36123 0.86654 0.0
C1965 C 0.14296 0.31003 0.83497 0.0
C1966 C 0.15384 0.44973 0.90219 0.0
C1967 C 0.15595 0.42574 0.89411 0.0
C1968 C 0.1415 0.40958 0.86822 0.0
C1969 C 0.15314 0.33114 0.8516 0.0
C1970 C 0.15407 0.35939 0.85956 0.0
C1971 C 0.1544 0.43675 0.8838 0.0
C1972 C 0.15468 0.41081 0.8753 0.0
H1973 H 0.16118 0.24375 0.84856 0.0
H1974 H 0.16487 0.29102 0.86108 0.0
H1975 H 0.13036 0.38303 0.85548 0.0
H1976 H 0.14681 0.52354 0.88789 0.0
H1977 H 0.15019 0.48142 0.87377 0.0
C1978 C 0.09219 0.80143 0.90461 0.0
C1979 C 0.08987 0.7659 0.9021 0.0
C1980 C 0.08871 0.82763 0.89737 0.0
C1981 C 0.08553 0.83998 0.86918 0.0
H1982 H 0.07117 0.9334 0.87711 0.0
C1983 C 0.08187 0.95345 0.83972 0.0
C1984 C 0.09065 0.9835 0.84286 0.0
C1985 C 0.07811 0.92702 0.84686 0.0
C1986 C 0.07514 0.90738 0.87478 0.0
H1987 H 0.08121 0.72994 0.89028 0.0
H1988 H 0.07479 0.77572 0.87769 0.0
H1989 H 0.07094 0.88617 0.88988 0.0
H1990 H 0.10158 0.01049 0.85595 0.0
H1991 H 0.09496 0.96448 0.86841 0.0
H1992 H 0.08996 0.86138 0.85413 0.0
C1993 C 0.07971 0.78336 0.88515 0.0
C1994 C 0.07508 0.88036 0.8821 0.0
C1995 C 0.08334 0.75714 0.89236 0.0
C1996 C 0.09492 0.98742 0.85332 0.0
C1997 C 0.091 0.96125 0.86047 0.0
C1998 C 0.08545 0.86691 0.86185 0.0
C1999 C 0.08268 0.8189 0.88748 0.0
C2000 C 0.08068 0.84653 0.87945 0.0
C2001 C 0.08286 0.93046 0.85727 0.0
C2002 C 0.08064 0.90107 0.86465 0.0
H2003 H 0.09738 0.80892 0.91202 0.0
H2004 H 0.09141 0.85463 0.8994 0.0
H2005 H 0.09016 0.81444 0.86688 0.0
H2006 H 0.0785 0.94978 0.83169 0.0
H2007 H 0.07175 0.90361 0.84421 0.0
C2008 C 0.83793 0.21681 0.64857 0.0
C2009 C 0.85086 0.24159 0.6478 0.0
C2010 C 0.83536 0.1921 0.64073 0.0
C2011 C 0.84297 0.17392 0.61335 0.0
H2012 H 0.84339 0.07593 0.62147 0.0
C2013 C 0.85563 0.06249 0.58428 0.0
C2014 C 0.84871 0.02926 0.58609 0.0
C2015 C 0.85332 0.08966 0.59139 0.0
C2016 C 0.84285 0.10311 0.61903 0.0
H2017 H 0.87119 0.25955 0.63808 0.0
H2018 H 0.86628 0.21727 0.62432 0.0
H2019 H 0.8437 0.12139 0.63468 0.0
H2020 H 0.83321 -0.00135 0.59638 0.0
H2021 H 0.82855 0.0464 0.60862 0.0
H2022 H 0.842 0.15588 0.59771 0.0
C2023 C 0.85814 0.21716 0.63099 0.0
C2024 C 0.8431 0.12914 0.62663 0.0
C2025 C 0.86089 0.24147 0.63888 0.0
C2026 C 0.83882 0.02403 0.59489 0.0
C2027 C 0.83627 0.05133 0.60192 0.0
C2028 C 0.84244 0.1479 0.60574 0.0
C2029 C 0.84548 0.19203 0.6319 0.0
C2030 C 0.84349 0.16473 0.62385 0.0
C2031 C 0.84383 0.08427 0.60041 0.0
C2032 C 0.84271 0.11211 0.60847 0.0
H2033 H 0.82975 0.21647 0.65521 0.0
H2034 H 0.82545 0.17307 0.64156 0.0
H2035 H 0.84309 0.20126 0.61103 0.0
H2036 H 0.86343 0.067 0.57758 0.0
H2037 H 0.85957 0.1144 0.59002 0.0
C2038 C 0.87592 0.55441 0.6559 0.0
C2039 C 0.89016 0.53797 0.65994 0.0
C2040 C 0.87736 0.58145 0.64869 0.0
C2041 C 0.90504 0.61501 0.62863 0.0
H2042 H 0.87581 0.6959 0.62958 0.0
C2043 C 0.90565 0.72408 0.59729 0.0
C2044 C 0.88996 0.73561 0.59392 0.0
C2045 C 0.90708 0.70209 0.60591 0.0
C2046 C 0.88399 0.67335 0.62917 0.0
H2047 H 0.91712 0.53787 0.65973 0.0
H2048 H 0.91959 0.58495 0.64697 0.0
H2049 H 0.87588 0.65422 0.64388 0.0
H2050 H 0.8635 0.73352 0.59709 0.0
H2051 H 0.86595 0.69461 0.61189 0.0
H2052 H 0.91283 0.63366 0.61378 0.0
C2053 C 0.90733 0.57662 0.64939 0.0
C2054 C 0.88405 0.64955 0.63737 0.0
C2055 C 0.9059 0.54965 0.65668 0.0
C2056 C 0.87576 0.72471 0.59937 0.0
C2057 C 0.87718 0.70282 0.60796 0.0
C2058 C 0.90494 0.63879 0.62039 0.0
C2059 C 0.89306 0.59261 0.64527 0.0
C2060 C 0.89434 0.61977 0.6371 0.0
C2061 C 0.89285 0.69135 0.61136 0.0
C2062 C 0.89416 0.66784 0.62048 0.0
H2063 H 0.86359 0.54563 0.65804 0.0
H2064 H 0.86612 0.59283 0.64552 0.0
H2065 H 0.913 0.59211 0.62816 0.0
H2066 H 0.91682 0.73187 0.59322 0.0
H2067 H 0.91934 0.69384 0.60837 0.0
C2068 C 0.8393 0.51963 0.09778 0.0
C2069 C 0.84433 0.52593 0.08754 0.0
C2070 C 0.83691 0.54756 0.10463 0.0
C2071 C 0.85137 0.63759 0.10876 0.0
H2072 H 0.81732 0.64009 0.12996 0.0
C2073 C 0.84891 0.75062 0.1379 0.0
C2074 C 0.84671 0.74105 0.14829 0.0
C2075 C 0.84589 0.72645 0.13001 0.0
C2076 C 0.82695 0.63965 0.12411 0.0
H2077 H 0.84976 0.56648 0.07627 0.0
H2078 H 0.84557 0.61525 0.08821 0.0
H2079 H 0.81682 0.5937 0.11688 0.0
H2080 H 0.83905 0.6992 0.15859 0.0
H2081 H 0.83404 0.65663 0.14481 0.0
H2082 H 0.86181 0.68272 0.11607 0.0
C2083 C 0.84379 0.58869 0.091 0.0
C2084 C 0.82665 0.61313 0.11663 0.0
C2085 C 0.8462 0.56079 0.08417 0.0
C2086 C 0.84076 0.7073 0.15063 0.0
C2087 C 0.83785 0.68298 0.14273 0.0
C2088 C 0.85169 0.66396 0.11623 0.0
C2089 C 0.83949 0.58236 0.10137 0.0
C2090 C 0.83894 0.61168 0.10892 0.0
C2091 C 0.84074 0.69206 0.13235 0.0
C2092 C 0.83958 0.66518 0.12405 0.0
H2093 H 0.83791 0.49304 0.10063 0.0
H2094 H 0.83377 0.54179 0.11259 0.0
H2095 H 0.86122 0.63683 0.10306 0.0
H2096 H 0.85318 0.77671 0.13588 0.0
H2097 H 0.84788 0.73454 0.12208 0.0
C2098 C 0.90101 0.06043 0.15851 0.0
C2099 C 0.90267 0.0255 0.15517 0.0
C2100 C 0.90337 0.08819 0.15162 0.0
C2101 C 0.91987 0.11197 0.12577 0.0
H2102 H 0.88499 0.18213 0.12664 0.0
C2103 C 0.90511 0.20595 0.09183 0.0
C2104 C 0.89942 0.23988 0.0942 0.0
C2105 C 0.90812 0.18165 0.09971 0.0
C2106 C 0.89503 0.1632 0.12639 0.0
H2107 H 0.90867 0.9923 0.14207 0.0
H2108 H 0.91271 0.04081 0.13001 0.0
H2109 H 0.8858 0.13643 0.13971 0.0
H2110 H 0.89353 0.27583 0.10666 0.0
H2111 H 0.899 0.23366 0.12043 0.0
H2112 H 0.92888 0.13858 0.11229 0.0
C2113 C 0.90978 0.04675 0.13799 0.0
C2114 C 0.89548 0.13694 0.13389 0.0
C2115 C 0.90745 0.01896 0.1449 0.0
C2116 C 0.89759 0.24961 0.10461 0.0
C2117 C 0.9007 0.22544 0.11249 0.0
C2118 C 0.91944 0.13837 0.11825 0.0
C2119 C 0.90739 0.08164 0.14122 0.0
C2120 C 0.90781 0.11083 0.13363 0.0
C2121 C 0.9056 0.19092 0.11012 0.0
C2122 C 0.90691 0.16411 0.11843 0.0
H2123 H 0.89764 0.06629 0.16643 0.0
H2124 H 0.90175 0.11482 0.15439 0.0
H2125 H 0.92962 0.09239 0.12543 0.0
H2126 H 0.90654 0.19772 0.08386 0.0
H2127 H 0.91173 0.15519 0.09762 0.0
C2128 C 0.65956 0.76258 0.8501 0.0
C2129 C 0.65551 0.77061 0.83982 0.0
C2130 C 0.66221 0.78941 0.85728 0.0
C2131 C 0.65168 0.88286 0.86146 0.0
H2132 H 0.68122 0.87312 0.88498 0.0
C2133 C 0.65801 0.99161 0.89201 0.0
C2134 C 0.65574 0.98028 0.90225 0.0
C2135 C 0.66066 0.96727 0.8841 0.0
C2136 C 0.67293 0.87613 0.87844 0.0
H2137 H 0.65199 0.81274 0.82879 0.0
H2138 H 0.65716 0.85971 0.84122 0.0
H2139 H 0.6814 0.82857 0.87138 0.0
H2140 H 0.65526 0.93485 0.91234 0.0
H2141 H 0.65995 0.89221 0.89849 0.0
H2142 H 0.64322 0.93037 0.86853 0.0
C2143 C 0.65777 0.83275 0.84386 0.0
C2144 C 0.67297 0.85059 0.87067 0.0
C2145 C 0.65489 0.80591 0.83672 0.0
C2146 C 0.65685 0.94425 0.9045 0.0
C2147 C 0.65967 0.91992 0.8966 0.0
C2148 C 0.65179 0.90852 0.86916 0.0
C2149 C 0.66105 0.82487 0.8543 0.0
C2150 C 0.66216 0.85337 0.86215 0.0
C2151 C 0.66124 0.93116 0.8863 0.0
C2152 C 0.66224 0.90519 0.87779 0.0
H2153 H 0.65994 0.73554 0.8527 0.0
H2154 H 0.66447 0.78226 0.86526 0.0
H2155 H 0.64293 0.88561 0.85516 0.0
H2156 H 0.65708 0.01918 0.89003 0.0
H2157 H 0.66195 0.97665 0.87624 0.0
C2158 C 0.59194 0.29375 0.90294 0.0
C2159 C 0.59371 0.25821 0.90019 0.0
C2160 C 0.58883 0.31914 0.89537 0.0
C2161 C 0.59648 0.33466 0.86799 0.0
H2162 H 0.56722 0.41464 0.87159 0.0
C2163 C 0.59261 0.44154 0.83692 0.0
C2164 C 0.59275 0.47637 0.84047 0.0
C2165 C 0.58968 0.41389 0.84376 0.0
C2166 C 0.57552 0.39257 0.8705 0.0
H2167 H 0.59251 0.2212 0.88746 0.0
H2168 H 0.58728 0.26559 0.87426 0.0
H2169 H 0.56757 0.36794 0.88457 0.0
H2170 H 0.58946 0.50981 0.85386 0.0
H2171 H 0.58474 0.46154 0.8659 0.0
H2172 H 0.60497 0.35954 0.8542 0.0
C2173 C 0.58854 0.27382 0.88224 0.0
C2174 C 0.57568 0.36583 0.87792 0.0
C2175 C 0.59158 0.24845 0.88979 0.0
C2176 C 0.58928 0.48318 0.85092 0.0
C2177 C 0.58653 0.45549 0.8578 0.0
C2178 C 0.59642 0.36143 0.86064 0.0
C2179 C 0.58748 0.3095 0.88492 0.0
C2180 C 0.58628 0.33676 0.87677 0.0
C2181 C 0.58704 0.42045 0.85434 0.0
C2182 C 0.58606 0.39089 0.86183 0.0
H2183 H 0.59366 0.30218 0.91086 0.0
H2184 H 0.58823 0.34648 0.89766 0.0
H2185 H 0.605 0.31289 0.86698 0.0
H2186 H 0.59502 0.43567 0.82886 0.0
H2187 H 0.58978 0.3873 0.84079 0.0
C2188 C 0.66084 0.25443 0.35173 0.0
C2189 C 0.65421 0.26391 0.34208 0.0
C2190 C 0.66426 0.28006 0.35917 0.0
C2191 C 0.6683 0.37686 0.36292 0.0
H2192 H 0.65373 0.35547 0.39079 0.0
C2193 C 0.64758 0.48129 0.39217 0.0
C2194 C 0.65217 0.47738 0.40258 0.0
C2195 C 0.65159 0.45548 0.38495 0.0
C2196 C 0.65815 0.36166 0.3831 0.0
H2197 H 0.6462 0.30761 0.33257 0.0
H2198 H 0.65182 0.35223 0.34557 0.0
H2199 H 0.6538 0.30938 0.37775 0.0
H2200 H 0.66493 0.44404 0.41358 0.0
H2201 H 0.67179 0.39833 0.4009 0.0
H2202 H 0.67182 0.42967 0.36821 0.0
C2203 C 0.65478 0.32516 0.34736 0.0
C2204 C 0.65822 0.33523 0.37561 0.0
C2205 C 0.6515 0.29957 0.3399 0.0
C2206 C 0.66129 0.44764 0.40559 0.0
C2207 C 0.66513 0.42151 0.39836 0.0
C2208 C 0.66808 0.40335 0.37039 0.0
C2209 C 0.66099 0.3157 0.35714 0.0
C2210 C 0.66293 0.3427 0.36536 0.0
C2211 C 0.66015 0.42504 0.388 0.0
C2212 C 0.66265 0.39616 0.38049 0.0
H2213 H 0.66327 0.22714 0.35356 0.0
H2214 H 0.6693 0.2719 0.36655 0.0
H2215 H 0.67234 0.38336 0.35517 0.0
H2216 H 0.64066 0.50416 0.38965 0.0
H2217 H 0.64744 0.45874 0.37704 0.0
C2218 C 0.58494 0.78498 0.4004 0.0
C2219 C 0.5987 0.76222 0.40014 0.0
C2220 C 0.5821 0.80866 0.39231 0.0
C2221 C 0.59476 0.82759 0.36512 0.0
H2222 H 0.58227 0.92327 0.37188 0.0
C2223 C 0.61177 0.947 0.34043 0.0
C2224 C 0.59903 0.97064 0.33775 0.0
C2225 C 0.60883 0.91985 0.34742 0.0
C2226 C 0.5855 0.89649 0.36988 0.0
H2227 H 0.61993 0.7458 0.39098 0.0
H2228 H 0.61547 0.78785 0.37724 0.0
H2229 H 0.58248 0.87857 0.38544 0.0
H2230 H 0.57308 0.98372 0.34038 0.0
H2231 H 0.56828 0.93699 0.35302 0.0
H2232 H 0.59877 0.84621 0.3497 0.0
C2233 C 0.60664 0.78713 0.38355 0.0
C2234 C 0.58559 0.87084 0.37762 0.0
C2235 C 0.60939 0.76338 0.39156 0.0
C2236 C 0.58327 0.96642 0.34234 0.0
C2237 C 0.58044 0.93957 0.34952 0.0
C2238 C 0.59492 0.85331 0.35745 0.0
C2239 C 0.59298 0.81012 0.3838 0.0
C2240 C 0.59067 0.83628 0.37539 0.0
C2241 C 0.59321 0.91603 0.35207 0.0
C2242 C 0.59067 0.88809 0.35982 0.0
H2243 H 0.5765 0.78491 0.40692 0.0
H2244 H 0.57138 0.82579 0.39272 0.0
H2245 H 0.59829 0.80106 0.36306 0.0
H2246 H 0.62419 0.94982 0.33734 0.0
H2247 H 0.61895 0.90232 0.34941 0.0
C2248 C 0.34248 0.20559 0.15056 0.0
C2249 C 0.34821 0.23952 0.14822 0.0
C2250 C 0.33964 0.18125 0.14266 0.0
C2251 C 0.35316 0.16264 0.11606 0.0
H2252 H 0.31833 0.0923 0.11678 0.0
C2253 C 0.34698 0.06039 0.08375 0.0
C2254 C 0.34506 0.02544 0.08702 0.0
C2255 C 0.34481 0.08808 0.0907 0.0
C2256 C 0.32815 0.11174 0.11651 0.0
H2257 H 0.3544 0.27539 0.1358 0.0
H2258 H 0.34925 0.23314 0.122 0.0
H2259 H 0.31902 0.13838 0.12995 0.0
H2260 H 0.33884 0.99216 0.10007 0.0
H2261 H 0.33511 0.04052 0.11221 0.0
H2262 H 0.36248 0.13584 0.10277 0.0
C2263 C 0.34737 0.22496 0.12994 0.0
C2264 C 0.32856 0.13808 0.12405 0.0
C2265 C 0.3503 0.24917 0.13783 0.0
C2266 C 0.34025 0.01883 0.09729 0.0
C2267 C 0.3381 0.04654 0.10425 0.0
C2268 C 0.35273 0.13643 0.10854 0.0
C2269 C 0.34239 0.19046 0.13227 0.0
C2270 C 0.34117 0.16366 0.12395 0.0
C2271 C 0.3407 0.08142 0.10108 0.0
C2272 C 0.34032 0.1105 0.10872 0.0
H2273 H 0.34085 0.19742 0.15852 0.0
H2274 H 0.33597 0.15481 0.14474 0.0
H2275 H 0.36325 0.18145 0.11587 0.0
H2276 H 0.35038 0.06633 0.07584 0.0
H2277 H 0.3466 0.11471 0.08798 0.0
C2278 C 0.39951 0.561 0.15826 0.0
C2279 C 0.40152 0.52605 0.155 0.0
C2280 C 0.40176 0.58868 0.15132 0.0
C2281 C 0.41868 0.61232 0.12556 0.0
H2282 H 0.38352 0.68191 0.12606 0.0
C2283 C 0.40442 0.70588 0.09142 0.0
C2284 C 0.39865 0.73979 0.09373 0.0
C2285 C 0.40728 0.68162 0.09934 0.0
C2286 C 0.39363 0.66313 0.12591 0.0
H2287 H 0.40798 0.49276 0.142 0.0
H2288 H 0.41182 0.5411 0.12987 0.0
H2289 H 0.38421 0.63636 0.13917 0.0
H2290 H 0.39241 0.77573 0.10613 0.0
H2291 H 0.39759 0.73363 0.11996 0.0
H2292 H 0.42789 0.63892 0.11213 0.0
C2293 C 0.40871 0.54714 0.13782 0.0
C2294 C 0.39402 0.63696 0.13344 0.0
C2295 C 0.4065 0.51943 0.14477 0.0
C2296 C 0.39654 0.74953 0.10412 0.0
C2297 C 0.39949 0.7254 0.11203 0.0
C2298 C 0.41831 0.63862 0.11801 0.0
C2299 C 0.40602 0.58202 0.14096 0.0
C2300 C 0.40645 0.61107 0.13331 0.0
C2301 C 0.4045 0.6909 0.10972 0.0
C2302 C 0.40569 0.66415 0.11805 0.0
H2303 H 0.39598 0.56694 0.16615 0.0
H2304 H 0.39989 0.61531 0.15402 0.0
H2305 H 0.42852 0.59292 0.12532 0.0
H2306 H 0.40605 0.69763 0.08347 0.0
H2307 H 0.41098 0.65517 0.09729 0.0
C2308 C 0.34416 0.6925 0.65544 0.0
C2309 C 0.34887 0.72653 0.65241 0.0
C2310 C 0.34163 0.66628 0.64805 0.0
C2311 C 0.33471 0.65084 0.62011 0.0
H2312 H 0.35638 0.56185 0.62563 0.0
C2313 C 0.3497 0.54934 0.58826 0.0
C2314 C 0.34903 0.51353 0.59082 0.0
C2315 C 0.34707 0.57494 0.59583 0.0
C2316 C 0.34998 0.58626 0.62402 0.0
H2317 H 0.35437 0.75982 0.63923 0.0
H2318 H 0.34991 0.71411 0.62635 0.0
H2319 H 0.35633 0.60729 0.63883 0.0
H2320 H 0.34408 0.47634 0.60313 0.0
H2321 H 0.33927 0.52095 0.61632 0.0
H2322 H 0.32859 0.62989 0.60522 0.0
C2323 C 0.34796 0.70782 0.63443 0.0
C2324 C 0.34997 0.61234 0.6316 0.0
C2325 C 0.35052 0.73401 0.64182 0.0
C2326 C 0.34498 0.50378 0.60099 0.0
C2327 C 0.34225 0.52933 0.60854 0.0
C2328 C 0.33467 0.62466 0.61253 0.0
C2329 C 0.34373 0.67354 0.63747 0.0
C2330 C 0.34252 0.64506 0.62968 0.0
C2331 C 0.34362 0.5652 0.6061 0.0
C2332 C 0.34249 0.59221 0.61436 0.0
H2333 H 0.3425 0.68606 0.66352 0.0
H2334 H 0.33814 0.64023 0.65061 0.0
H2335 H 0.3287 0.67566 0.61847 0.0
H2336 H 0.35292 0.55758 0.5805 0.0
H2337 H 0.3484 0.60231 0.59371 0.0
C2338 C 0.39004 0.22964 0.60299 0.0
C2339 C 0.39583 0.22547 0.5928 0.0
C2340 C 0.39333 0.20423 0.61048 0.0
C2341 C 0.4006 0.11096 0.61335 0.0
H2342 H 0.41448 0.13561 0.64114 0.0
C2343 C 0.40585 0.0056 0.64502 0.0
C2344 C 0.3996 0.01484 0.65478 0.0
C2345 C 0.40848 0.03128 0.63749 0.0
C2346 C 0.41047 0.1283 0.63344 0.0
H2347 H 0.41004 0.19148 0.58262 0.0
H2348 H 0.41529 0.1465 0.59568 0.0
H2349 H 0.41316 0.18094 0.62782 0.0
H2350 H 0.39145 0.05804 0.66442 0.0
H2351 H 0.39553 0.10281 0.65121 0.0
H2352 H 0.39708 0.05881 0.619 0.0
C2353 C 0.40823 0.16963 0.59781 0.0
C2354 C 0.40981 0.15423 0.62582 0.0
C2355 C 0.40513 0.19529 0.59032 0.0
C2356 C 0.39644 0.0503 0.65698 0.0
C2357 C 0.39886 0.07594 0.64941 0.0
C2358 C 0.40106 0.0851 0.621 0.0
C2359 C 0.4023 0.17384 0.60794 0.0
C2360 C 0.40462 0.14588 0.61575 0.0
C2361 C 0.40468 0.06669 0.63951 0.0
C2362 C 0.40575 0.09354 0.63119 0.0
H2363 H 0.38255 0.2521 0.60515 0.0
H2364 H 0.38838 0.20783 0.6182 0.0
H2365 H 0.39638 0.10392 0.60567 0.0
H2366 H 0.40859 0.97844 0.6432 0.0
H2367 H 0.4133 0.02329 0.63004 0.0
loop_
_geom_bond_atom_site_label_1
_geom_bond_atom_site_label_2
_geom_bond_distance
_geom_bond_site_symmetry_2
_ccdc_geom_bond_type
Li0 N17 1.990 . S
Li0 O60 1.956 . S
Li0 O61 1.970 . S
Li0 O62 1.961 . S
Li1 N25 1.990 . S
Li1 O60 1.970 . S
Li1 O61 1.956 . S
Li1 O63 1.961 . S
Li2 N47 1.990 . S
Li2 O60 1.961 . S
Li2 O62 1.956 . S
Li2 O63 1.970 . S
Li3 N53 1.990 . S
Li3 O61 1.961 . S
Li3 O62 1.970 . S
Li3 O63 1.956 . S
C4 C6 1.348 . S
C4 C7 1.356 . S
C4 O60 1.325 . S
N5 C8 1.314 . S
N5 C9 1.279 . S
C6 C4 1.348 . S
C6 C8 1.353 . S
C6 H64 0.929 . S
C7 C4 1.356 . S
C7 C9 1.358 . S
C7 H65 0.930 . S
C8 N5 1.314 . S
C8 C6 1.353 . S
C8 H66 0.930 . S
C9 N5 1.279 . S
C9 C7 1.358 . S
C9 H67 0.930 . S
C10 C13 1.348 . S
C10 C14 1.356 . S
C10 O61 1.325 . S
C11 N12 1.279 . S
C11 C14 1.358 . S
C11 H68 0.930 1_545 S
N12 C11 1.279 . S
N12 C15 1.314 . S
C13 C10 1.348 . S
C13 C15 1.353 . S
C13 H69 0.929 . S
C14 C10 1.356 . S
C14 C11 1.358 . S
C14 H70 0.930 . S
C15 N12 1.314 . S
C15 C13 1.353 . S
C15 H71 0.930 . S
C16 N17 1.314 . S
C16 C21 1.353 . S
C16 H22 0.930 . S
N17 Li0 1.990 . S
N17 C16 1.314 . S
N17 C19 1.279 . S
C18 C19 1.358 . S
C18 C20 1.356 . S
C18 H72 0.930 . S
C19 N17 1.279 . S
C19 C18 1.358 . S
C19 H23 0.930 . S
C20 C18 1.356 . S
C20 C21 1.348 . S
C21 C16 1.353 . S
C21 C20 1.348 . S
C21 H73 0.929 . S
H22 C16 0.930 . S
H23 C19 0.930 . S
C24 N25 1.314 . S
C24 C26 1.353 . S
C24 H30 0.930 . S
N25 Li1 1.990 . S
N25 C24 1.314 . S
N25 C28 1.279 . S
C26 C24 1.353 . S
C26 C29 1.348 . S
C26 H74 0.929 . S
C27 C28 1.358 . S
C27 C29 1.356 . S
C27 H75 0.930 . S
C28 N25 1.279 . S
C28 C27 1.358 . S
C28 H31 0.930 . S
C29 C26 1.348 . S
C29 C27 1.356 . S
H30 C24 0.930 . S
H31 C28 0.930 . S
C32 C34 1.348 . S
C32 C35 1.356 . S
C32 O62 1.325 . S
N33 C36 1.314 . S
N33 C37 1.279 . S
C34 C32 1.348 . S
C34 C36 1.353 . S
C34 H76 0.929 . S
C35 C32 1.356 . S
C35 C37 1.358 . S
C35 H77 0.930 . S
C36 N33 1.314 . S
C36 C34 1.353 . S
C36 H78 0.930 . S
C37 N33 1.279 . S
C37 C35 1.358 . S
C37 H79 0.930 . S
C38 C39 1.348 . S
C38 C40 1.356 . S
C38 O63 1.325 . S
C39 C38 1.348 . S
C39 C41 1.353 . S
C39 H80 0.929 . S
C40 C38 1.356 . S
C40 C42 1.358 . S
C40 H81 0.930 . S
C41 C39 1.353 . S
C41 N43 1.314 . S
C41 H82 0.930 . S
C42 C40 1.358 . S
C42 N43 1.279 . S
C42 H83 0.930 . S
N43 C41 1.314 . S
N43 C42 1.279 . S
C44 C46 1.353 . S
C44 N47 1.314 . S
C44 H50 0.930 . S
C45 N47 1.279 . S
C45 C48 1.358 . S
C45 H51 0.930 . S
C46 C44 1.353 . S
C46 C49 1.348 . S
C46 H84 0.929 . S
N47 Li2 1.990 . S
N47 C44 1.314 . S
N47 C45 1.279 . S
C48 C45 1.358 . S
C48 C49 1.356 . S
C48 H85 0.930 . S
C49 C46 1.348 . S
C49 C48 1.356 . S
H50 C44 0.930 . S
H51 C45 0.930 . S
C52 N53 1.314 . S
C52 C54 1.353 1_545 S
C52 H58 0.930 . S
N53 Li3 1.990 . S
N53 C52 1.314 . S
N53 C56 1.279 . S
C54 C52 1.353 1_565 S
C54 C57 1.348 . S
C54 H86 0.929 . S
C55 C56 1.358 . S
C55 C57 1.356 1_545 S
C55 H87 0.930 . S
C56 N53 1.279 . S
C56 C55 1.358 . S
C56 H59 0.930 . S
C57 C54 1.348 . S
C57 C55 1.356 1_565 S
H58 C52 0.930 . S
H59 C56 0.930 . S
O60 Li0 1.956 . S
O60 Li1 1.970 . S
O60 Li2 1.961 . S
O60 C4 1.325 . S
O61 Li0 1.970 . S
O61 Li1 1.956 . S
O61 Li3 1.961 . S
O61 C10 1.325 . S
O62 Li0 1.961 . S
O62 Li2 1.956 . S
O62 Li3 1.970 . S
O62 C32 1.325 . S
O63 Li1 1.961 . S
O63 Li2 1.970 . S
O63 Li3 1.956 . S
O63 C38 1.325 . S
H64 C6 0.929 . S
H65 C7 0.930 . S
H66 C8 0.930 . S
H67 C9 0.930 . S
H68 C11 0.930 1_565 S
H69 C13 0.929 . S
H70 C14 0.930 . S
H71 C15 0.930 . S
H72 C18 0.930 . S
H73 C21 0.929 . S
H74 C26 0.929 . S
H75 C27 0.930 . S
H76 C34 0.929 . S
H77 C35 0.930 . S
H78 C36 0.930 . S
H79 C37 0.930 . S
H80 C39 0.929 . S
H81 C40 0.930 . S
H82 C41 0.930 . S
H83 C42 0.930 . S
H84 C46 0.929 . S
H85 C48 0.930 . S
H86 C54 0.929 . S
H87 C55 0.930 . S
Li88 N105 1.990 . S
Li88 O148 1.956 . S
Li88 O149 1.970 . S
Li88 O150 1.961 . S
Li89 N113 1.990 . S
Li89 O148 1.970 . S
Li89 O149 1.956 . S
Li89 O151 1.961 . S
Li90 N135 1.990 . S
Li90 O148 1.961 . S
Li90 O150 1.956 . S
Li90 O151 1.970 . S
Li91 N141 1.990 . S
Li91 O149 1.961 . S
Li91 O150 1.970 . S
Li91 O151 1.956 . S
C92 C94 1.348 . S
C92 C95 1.356 . S
C92 O148 1.325 . S
N93 C96 1.314 . S
N93 C97 1.279 . S
C94 C92 1.348 . S
C94 C96 1.353 . S
C94 H152 0.929 . S
C95 C92 1.356 . S
C95 C97 1.358 . S
C95 H153 0.930 . S
C96 N93 1.314 . S
C96 C94 1.353 . S
C96 H154 0.930 . S
C97 N93 1.279 . S
C97 C95 1.358 . S
C97 H155 0.930 . S
C98 C101 1.348 . S
C98 C102 1.356 . S
C98 O149 1.325 . S
C99 N100 1.279 . S
C99 C102 1.358 . S
C99 H156 0.930 . S
N100 C99 1.279 . S
N100 C103 1.314 . S
C101 C98 1.348 . S
C101 C103 1.353 . S
C101 H157 0.929 . S
C102 C98 1.356 . S
C102 C99 1.358 . S
C102 H158 0.930 . S
C103 N100 1.314 . S
C103 C101 1.353 . S
C103 H159 0.930 . S
C104 N105 1.314 . S
C104 C109 1.353 . S
C104 H110 0.930 . S
N105 Li88 1.990 . S
N105 C104 1.314 . S
N105 C107 1.279 . S
C106 C107 1.358 . S
C106 C108 1.356 . S
C106 H160 0.930 . S
C107 N105 1.279 . S
C107 C106 1.358 . S
C107 H111 0.930 . S
C108 C106 1.356 . S
C108 C109 1.348 . S
C109 C104 1.353 . S
C109 C108 1.348 . S
C109 H161 0.929 . S
H110 C104 0.930 . S
H111 C107 0.930 . S
C112 N113 1.314 . S
C112 C114 1.353 1_545 S
C112 H118 0.930 . S
N113 Li89 1.990 . S
N113 C112 1.314 . S
N113 C116 1.279 . S
C114 C112 1.353 1_565 S
C114 C117 1.348 . S
C114 H162 0.929 . S
C115 C116 1.358 . S
C115 C117 1.356 1_545 S
C115 H163 0.930 . S
C116 N113 1.279 . S
C116 C115 1.358 . S
C116 H119 0.930 . S
C117 C114 1.348 . S
C117 C115 1.356 1_565 S
H118 C112 0.930 . S
H119 C116 0.930 . S
C120 C122 1.348 . S
C120 C123 1.356 . S
C120 O150 1.325 . S
N121 C124 1.314 . S
N121 C125 1.279 . S
C122 C120 1.348 . S
C122 C124 1.353 . S
C122 H164 0.929 . S
C123 C120 1.356 . S
C123 C125 1.358 . S
C123 H165 0.930 . S
C124 N121 1.314 . S
C124 C122 1.353 . S
C124 H166 0.930 . S
C125 N121 1.279 . S
C125 C123 1.358 . S
C125 H167 0.930 . S
C126 C127 1.348 . S
C126 C128 1.356 . S
C126 O151 1.325 . S
C127 C126 1.348 . S
C127 C129 1.353 . S
C127 H168 0.929 . S
C128 C126 1.356 . S
C128 C130 1.358 . S
C128 H169 0.930 . S
C129 C127 1.353 . S
C129 N131 1.314 . S
C129 H170 0.930 . S
C130 C128 1.358 . S
C130 N131 1.279 . S
C130 H171 0.930 1_545 S
N131 C129 1.314 . S
N131 C130 1.279 . S
C132 C134 1.353 . S
C132 N135 1.314 . S
C132 H138 0.930 . S
C133 N135 1.279 . S
C133 C136 1.358 . S
C133 H139 0.930 . S
C134 C132 1.353 . S
C134 C137 1.348 . S
C134 H172 0.929 . S
N135 Li90 1.990 . S
N135 C132 1.314 . S
N135 C133 1.279 . S
C136 C133 1.358 . S
C136 C137 1.356 . S
C136 H173 0.930 . S
C137 C134 1.348 . S
C137 C136 1.356 . S
H138 C132 0.930 . S
H139 C133 0.930 . S
C140 N141 1.314 . S
C140 C142 1.353 . S
C140 H146 0.930 . S
N141 Li91 1.990 . S
N141 C140 1.314 . S
N141 C144 1.279 . S
C142 C140 1.353 . S
C142 C145 1.348 . S
C142 H174 0.929 . S
C143 C144 1.358 . S
C143 C145 1.356 . S
C143 H175 0.930 . S
C144 N141 1.279 . S
C144 C143 1.358 . S
C144 H147 0.930 . S
C145 C142 1.348 . S
C145 C143 1.356 . S
H146 C140 0.930 . S
H147 C144 0.930 . S
O148 Li88 1.956 . S
O148 Li89 1.970 . S
O148 Li90 1.961 . S
O148 C92 1.325 . S
O149 Li88 1.970 . S
O149 Li89 1.956 . S
O149 Li91 1.961 . S
O149 C98 1.325 . S
O150 Li88 1.961 . S
O150 Li90 1.956 . S
O150 Li91 1.970 . S
O150 C120 1.325 . S
O151 Li89 1.961 . S
O151 Li90 1.970 . S
O151 Li91 1.956 . S
O151 C126 1.325 . S
H152 C94 0.929 . S
H153 C95 0.930 . S
H154 C96 0.930 . S
H155 C97 0.930 . S
H156 C99 0.930 . S
H157 C101 0.929 . S
H158 C102 0.930 . S
H159 C103 0.930 . S
H160 C106 0.930 . S
H161 C109 0.929 . S
H162 C114 0.929 . S
H163 C115 0.930 . S
H164 C122 0.929 . S
H165 C123 0.930 . S
H166 C124 0.930 . S
H167 C125 0.930 . S
H168 C127 0.929 . S
H169 C128 0.930 . S
H170 C129 0.930 . S
H171 C130 0.930 1_565 S
H172 C134 0.929 . S
H173 C136 0.930 . S
H174 C142 0.929 . S
H175 C143 0.930 . S
Li176 N193 1.990 . S
Li176 O236 1.956 . S
Li176 O237 1.970 . S
Li176 O238 1.961 . S
Li177 N201 1.990 . S
Li177 O236 1.970 . S
Li177 O237 1.956 . S
Li177 O239 1.961 . S
Li178 N223 1.990 . S
Li178 O236 1.961 . S
Li178 O238 1.956 . S
Li178 O239 1.970 . S
Li179 N229 1.990 . S
Li179 O237 1.961 . S
Li179 O238 1.970 . S
Li179 O239 1.956 . S
C180 C182 1.348 . S
C180 C183 1.356 . S
C180 O236 1.325 . S
N181 C184 1.314 . S
N181 C185 1.279 . S
C182 C180 1.348 . S
C182 C184 1.353 . S
C182 H240 0.929 . S
C183 C180 1.356 . S
C183 C185 1.358 . S
C183 H241 0.930 . S
C184 N181 1.314 . S
C184 C182 1.353 . S
C184 H242 0.930 . S
C185 N181 1.279 . S
C185 C183 1.358 . S
C185 H243 0.930 . S
C186 C189 1.348 . S
C186 C190 1.356 . S
C186 O237 1.325 . S
C187 N188 1.269 1_565 S
C187 C190 1.358 . S
C187 H244 0.930 . S
N188 C187 1.269 1_545 S
N188 C191 1.307 1_545 S
C189 C186 1.348 . S
C189 C191 1.353 . S
C189 H245 0.929 . S
C190 C186 1.356 . S
C190 C187 1.358 . S
C190 H246 0.930 . S
C191 N188 1.307 1_565 S
C191 C189 1.353 . S
C191 H247 0.938 . S
C192 N193 1.314 . S
C192 C197 1.353 . S
C192 H198 0.930 . S
N193 Li176 1.990 . S
N193 C192 1.314 . S
N193 C195 1.279 . S
C194 C195 1.358 . S
C194 C196 1.356 . S
C194 H248 0.930 . S
C195 N193 1.279 . S
C195 C194 1.358 . S
C195 H199 0.930 . S
C196 C194 1.356 . S
C196 C197 1.348 . S
C197 C192 1.353 . S
C197 C196 1.348 . S
C197 H249 0.929 . S
H198 C192 0.930 . S
H199 C195 0.930 . S
C200 N201 1.314 . S
C200 C202 1.353 . S
C200 H206 0.930 . S
N201 Li177 1.990 . S
N201 C200 1.314 . S
N201 C204 1.279 . S
C202 C200 1.353 . S
C202 C205 1.348 1_565 S
C202 H250 0.929 . S
C203 C204 1.358 1_545 S
C203 C205 1.356 . S
C203 H251 0.930 . S
C204 N201 1.279 . S
C204 C203 1.358 1_565 S
C204 H207 0.930 . S
C205 C202 1.348 1_545 S
C205 C203 1.356 . S
H206 C200 0.930 . S
H207 C204 0.930 . S
C208 C210 1.348 . S
C208 C211 1.356 . S
C208 O238 1.325 . S
N209 C212 1.314 . S
N209 C213 1.279 . S
C210 C208 1.348 . S
C210 C212 1.353 . S
C210 H252 0.929 . S
C211 C208 1.356 . S
C211 C213 1.358 . S
C211 H253 0.930 . S
C212 N209 1.314 . S
C212 C210 1.353 . S
C212 H254 0.930 . S
C213 N209 1.279 . S
C213 C211 1.358 . S
C213 H255 0.930 . S
C214 C215 1.348 . S
C214 C216 1.356 . S
C214 O239 1.325 . S
C215 C214 1.348 . S
C215 C217 1.353 . S
C215 H256 0.929 . S
C216 C214 1.356 . S
C216 C218 1.358 . S
C216 H257 0.930 . S
C217 C215 1.353 . S
C217 N219 1.314 . S
C217 H258 0.930 . S
C218 C216 1.358 . S
C218 N219 1.279 . S
C218 H259 0.930 . S
N219 C217 1.314 . S
N219 C218 1.279 . S
C220 C222 1.353 . S
C220 N223 1.314 . S
C220 H226 0.930 . S
C221 N223 1.279 . S
C221 C224 1.358 . S
C221 H227 0.930 . S
C222 C220 1.353 . S
C222 C225 1.348 . S
C222 H260 0.929 . S
N223 Li178 1.990 . S
N223 C220 1.314 . S
N223 C221 1.279 . S
C224 C221 1.358 . S
C224 C225 1.356 . S
C224 H261 0.930 . S
C225 C222 1.348 . S
C225 C224 1.356 . S
H226 C220 0.930 . S
H227 C221 0.930 . S
C228 N229 1.314 . S
C228 C230 1.353 . S
C228 H234 0.930 . S
N229 Li179 1.990 . S
N229 C228 1.314 . S
N229 C232 1.279 . S
C230 C228 1.353 . S
C230 C233 1.348 . S
C230 H262 0.929 . S
C231 C232 1.358 . S
C231 C233 1.356 . S
C231 H263 0.930 . S
C232 N229 1.279 . S
C232 C231 1.358 . S
C232 H235 0.930 . S
C233 C230 1.348 . S
C233 C231 1.356 . S
H234 C228 0.930 . S
H235 C232 0.930 . S
O236 Li176 1.956 . S
O236 Li177 1.970 . S
O236 Li178 1.961 . S
O236 C180 1.325 . S
O237 Li176 1.970 . S
O237 Li177 1.956 . S
O237 Li179 1.961 . S
O237 C186 1.325 . S
O238 Li176 1.961 . S
O238 Li178 1.956 . S
O238 Li179 1.970 . S
O238 C208 1.325 . S
O239 Li177 1.961 . S
O239 Li178 1.970 . S
O239 Li179 1.956 . S
O239 C214 1.325 . S
H240 C182 0.929 . S
H241 C183 0.930 . S
H242 C184 0.930 . S
H243 C185 0.930 . S
H244 C187 0.930 . S
H245 C189 0.929 . S
H246 C190 0.930 . S
H247 C191 0.938 . S
H248 C194 0.930 . S
H249 C197 0.929 . S
H250 C202 0.929 . S
H251 C203 0.930 . S
H252 C210 0.929 . S
H253 C211 0.930 . S
H254 C212 0.930 . S
H255 C213 0.930 . S
H256 C215 0.929 . S
H257 C216 0.930 . S
H258 C217 0.930 . S
H259 C218 0.930 . S
H260 C222 0.929 . S
H261 C224 0.930 . S
H262 C230 0.929 . S
H263 C231 0.930 . S
Li264 N281 1.990 . S
Li264 O324 1.956 . S
Li264 O325 1.970 . S
Li264 O326 1.961 . S
Li265 N289 1.990 . S
Li265 O324 1.970 . S
Li265 O325 1.956 . S
Li265 O327 1.961 . S
Li266 N311 1.990 . S
Li266 O324 1.961 . S
Li266 O326 1.956 . S
Li266 O327 1.970 . S
Li267 N317 1.990 . S
Li267 O325 1.961 . S
Li267 O326 1.970 . S
Li267 O327 1.956 . S
C268 C270 1.348 . S
C268 C271 1.356 . S
C268 O324 1.325 . S
N269 C272 1.307 1_545 S
N269 C273 1.269 1_545 S
C270 C268 1.348 . S
C270 C272 1.353 . S
C270 H328 0.929 . S
C271 C268 1.356 . S
C271 C273 1.358 . S
C271 H329 0.930 . S
C272 N269 1.307 1_565 S
C272 C270 1.353 . S
C272 H330 0.938 . S
C273 N269 1.269 1_565 S
C273 C271 1.358 . S
C273 H331 0.930 . S
C274 C277 1.348 . S
C274 C278 1.356 . S
C274 O325 1.325 . S
C275 N276 1.279 . S
C275 C278 1.358 . S
C275 H332 0.930 . S
N276 C275 1.279 . S
N276 C279 1.314 . S
C277 C274 1.348 . S
C277 C279 1.353 . S
C277 H333 0.929 . S
C278 C274 1.356 . S
C278 C275 1.358 . S
C278 H334 0.930 . S
C279 N276 1.314 . S
C279 C277 1.353 . S
C279 H335 0.930 . S
C280 N281 1.314 . S
C280 C285 1.353 . S
C280 H286 0.930 . S
N281 Li264 1.990 . S
N281 C280 1.314 . S
N281 C283 1.279 . S
C282 C283 1.358 1_545 S
C282 C284 1.356 . S
C282 H336 0.930 . S
C283 N281 1.279 . S
C283 C282 1.358 1_565 S
C283 H287 0.930 . S
C284 C282 1.356 . S
C284 C285 1.348 1_545 S
C285 C280 1.353 . S
C285 C284 1.348 1_565 S
C285 H337 0.929 . S
H286 C280 0.930 . S
H287 C283 0.930 . S
C288 N289 1.314 . S
C288 C290 1.353 . S
C288 H294 0.930 . S
N289 Li265 1.990 . S
N289 C288 1.314 . S
N289 C292 1.279 . S
C290 C288 1.353 . S
C290 C293 1.348 . S
C290 H338 0.929 . S
C291 C292 1.358 . S
C291 C293 1.356 . S
C291 H339 0.930 . S
C292 N289 1.279 . S
C292 C291 1.358 . S
C292 H295 0.930 . S
C293 C290 1.348 . S
C293 C291 1.356 . S
H294 C288 0.930 . S
H295 C292 0.930 . S
C296 C298 1.348 . S
C296 C299 1.356 . S
C296 O326 1.325 . S
N297 C300 1.314 . S
N297 C301 1.279 . S
C298 C296 1.348 . S
C298 C300 1.353 . S
C298 H340 0.929 . S
C299 C296 1.356 . S
C299 C301 1.358 . S
C299 H341 0.930 . S
C300 N297 1.314 . S
C300 C298 1.353 . S
C300 H342 0.930 . S
C301 N297 1.279 . S
C301 C299 1.358 . S
C301 H343 0.930 . S
C302 C303 1.348 . S
C302 C304 1.356 . S
C302 O327 1.325 . S
C303 C302 1.348 . S
C303 C305 1.353 . S
C303 H344 0.929 . S
C304 C302 1.356 . S
C304 C306 1.358 . S
C304 H345 0.930 . S
C305 C303 1.353 . S
C305 N307 1.314 . S
C305 H346 0.930 . S
C306 C304 1.358 . S
C306 N307 1.279 . S
C306 H347 0.930 . S
N307 C305 1.314 . S
N307 C306 1.279 . S
C308 C310 1.353 . S
C308 N311 1.314 . S
C308 H314 0.930 . S
C309 N311 1.279 . S
C309 C312 1.358 . S
C309 H315 0.930 . S
C310 C308 1.353 . S
C310 C313 1.348 . S
C310 H348 0.929 . S
N311 Li266 1.990 . S
N311 C308 1.314 . S
N311 C309 1.279 . S
C312 C309 1.358 . S
C312 C313 1.356 . S
C312 H349 0.930 . S
C313 C310 1.348 . S
C313 C312 1.356 . S
H314 C308 0.930 . S
H315 C309 0.930 . S
C316 N317 1.314 . S
C316 C318 1.353 . S
C316 H322 0.930 . S
N317 Li267 1.990 . S
N317 C316 1.314 . S
N317 C320 1.279 . S
C318 C316 1.353 . S
C318 C321 1.348 . S
C318 H350 0.929 . S
C319 C320 1.358 . S
C319 C321 1.356 . S
C319 H351 0.930 . S
C320 N317 1.279 . S
C320 C319 1.358 . S
C320 H323 0.930 . S
C321 C318 1.348 . S
C321 C319 1.356 . S
H322 C316 0.930 . S
H323 C320 0.930 . S
O324 Li264 1.956 . S
O324 Li265 1.970 . S
O324 Li266 1.961 . S
O324 C268 1.325 . S
O325 Li264 1.970 . S
O325 Li265 1.956 . S
O325 Li267 1.961 . S
O325 C274 1.325 . S
O326 Li264 1.961 . S
O326 Li266 1.956 . S
O326 Li267 1.970 . S
O326 C296 1.325 . S
O327 Li265 1.961 . S
O327 Li266 1.970 . S
O327 Li267 1.956 . S
O327 C302 1.325 . S
H328 C270 0.929 . S
H329 C271 0.930 . S
H330 C272 0.938 . S
H331 C273 0.930 . S
H332 C275 0.930 . S
H333 C277 0.929 . S
H334 C278 0.930 . S
H335 C279 0.930 . S
H336 C282 0.930 . S
H337 C285 0.929 . S
H338 C290 0.929 . S
H339 C291 0.930 . S
H340 C298 0.929 . S
H341 C299 0.930 . S
H342 C300 0.930 . S
H343 C301 0.930 . S
H344 C303 0.929 . S
H345 C304 0.930 . S
H346 C305 0.930 . S
H347 C306 0.930 . S
H348 C310 0.929 . S
H349 C312 0.930 . S
H350 C318 0.929 . S
H351 C319 0.930 . S
Li352 N369 1.990 . S
Li352 O412 1.956 . S
Li352 O413 1.970 . S
Li352 O414 1.961 . S
Li353 N377 1.990 . S
Li353 O412 1.970 . S
Li353 O413 1.956 . S
Li353 O415 1.961 . S
Li354 N399 1.990 . S
Li354 O412 1.961 . S
Li354 O414 1.956 . S
Li354 O415 1.970 . S
Li355 N405 1.990 . S
Li355 O413 1.961 . S
Li355 O414 1.970 . S
Li355 O415 1.956 . S
C356 C358 1.348 . S
C356 C359 1.356 . S
C356 O412 1.325 . S
N357 C360 1.314 . S
N357 C361 1.279 . S
C358 C356 1.348 . S
C358 C360 1.353 . S
C358 H416 0.929 . S
C359 C356 1.356 . S
C359 C361 1.358 . S
C359 H417 0.930 . S
C360 N357 1.314 . S
C360 C358 1.353 . S
C360 H418 0.930 . S
C361 N357 1.279 . S
C361 C359 1.358 . S
C361 H419 0.930 . S
C362 C365 1.348 . S
C362 C366 1.356 . S
C362 O413 1.325 . S
C363 N364 1.279 . S
C363 C366 1.358 . S
C363 H420 0.930 . S
N364 C363 1.279 . S
N364 C367 1.314 . S
C365 C362 1.348 . S
C365 C367 1.353 . S
C365 H421 0.929 . S
C366 C362 1.356 . S
C366 C363 1.358 . S
C366 H422 0.930 . S
C367 N364 1.314 . S
C367 C365 1.353 . S
C367 H423 0.930 . S
C368 N369 1.314 . S
C368 C373 1.353 . S
C368 H374 0.930 . S
N369 Li352 1.990 . S
N369 C368 1.314 . S
N369 C371 1.279 . S
C370 C371 1.358 . S
C370 C372 1.356 . S
C370 H424 0.930 . S
C371 N369 1.279 . S
C371 C370 1.358 . S
C371 H375 0.930 . S
C372 C370 1.356 . S
C372 C373 1.348 . S
C373 C368 1.353 . S
C373 C372 1.348 . S
C373 H425 0.929 . S
H374 C368 0.930 . S
H375 C371 0.930 . S
C376 N377 1.314 . S
C376 C378 1.353 . S
C376 H382 0.930 . S
N377 Li353 1.990 . S
N377 C376 1.314 . S
N377 C380 1.279 . S
C378 C376 1.353 . S
C378 C381 1.348 . S
C378 H426 0.929 . S
C379 C380 1.358 . S
C379 C381 1.356 . S
C379 H427 0.930 . S
C380 N377 1.279 . S
C380 C379 1.358 . S
C380 H383 0.930 . S
C381 C378 1.348 . S
C381 C379 1.356 . S
H382 C376 0.930 . S
H383 C380 0.930 . S
C384 C386 1.348 . S
C384 C387 1.356 . S
C384 O414 1.325 . S
N385 C388 1.314 . S
N385 C389 1.279 . S
C386 C384 1.348 . S
C386 C388 1.353 . S
C386 H428 0.929 . S
C387 C384 1.356 . S
C387 C389 1.358 . S
C387 H429 0.930 . S
C388 N385 1.314 . S
C388 C386 1.353 . S
C388 H430 0.930 . S
C389 N385 1.279 . S
C389 C387 1.358 . S
C389 H431 0.930 . S
C390 C391 1.348 . S
C390 C392 1.356 . S
C390 O415 1.325 . S
C391 C390 1.348 . S
C391 C393 1.353 . S
C391 H432 0.929 . S
C392 C390 1.356 . S
C392 C394 1.358 . S
C392 H433 0.930 . S
C393 C391 1.353 . S
C393 N395 1.314 . S
C393 H434 0.930 . S
C394 C392 1.358 . S
C394 N395 1.279 . S
C394 H435 0.930 . S
N395 C393 1.314 . S
N395 C394 1.279 . S
C396 C398 1.353 . S
C396 N399 1.314 . S
C396 H402 0.930 . S
C397 N399 1.279 . S
C397 C400 1.358 . S
C397 H403 0.930 . S
C398 C396 1.353 . S
C398 C401 1.348 . S
C398 H436 0.929 . S
N399 Li354 1.990 . S
N399 C396 1.314 . S
N399 C397 1.279 . S
C400 C397 1.358 . S
C400 C401 1.356 . S
C400 H437 0.930 . S
C401 C398 1.348 . S
C401 C400 1.356 . S
H402 C396 0.930 . S
H403 C397 0.930 . S
C404 N405 1.314 . S
C404 C406 1.353 . S
C404 H410 0.930 . S
N405 Li355 1.990 . S
N405 C404 1.314 . S
N405 C408 1.279 . S
C406 C404 1.353 . S
C406 C409 1.348 . S
C406 H438 0.929 . S
C407 C408 1.358 . S
C407 C409 1.356 . S
C407 H439 0.930 . S
C408 N405 1.279 . S
C408 C407 1.358 . S
C408 H411 0.930 . S
C409 C406 1.348 . S
C409 C407 1.356 . S
H410 C404 0.930 . S
H411 C408 0.930 . S
O412 Li352 1.956 . S
O412 Li353 1.970 . S
O412 Li354 1.961 . S
O412 C356 1.325 . S
O413 Li352 1.970 . S
O413 Li353 1.956 . S
O413 Li355 1.961 . S
O413 C362 1.325 . S
O414 Li352 1.961 . S
O414 Li354 1.956 . S
O414 Li355 1.970 . S
O414 C384 1.325 . S
O415 Li353 1.961 . S
O415 Li354 1.970 . S
O415 Li355 1.956 . S
O415 C390 1.325 . S
H416 C358 0.929 . S
H417 C359 0.930 . S
H418 C360 0.930 . S
H419 C361 0.930 . S
H420 C363 0.930 . S
H421 C365 0.929 . S
H422 C366 0.930 . S
H423 C367 0.930 . S
H424 C370 0.930 . S
H425 C373 0.929 . S
H426 C378 0.929 . S
H427 C379 0.930 . S
H428 C386 0.929 . S
H429 C387 0.930 . S
H430 C388 0.930 . S
H431 C389 0.930 . S
H432 C391 0.929 . S
H433 C392 0.930 . S
H434 C393 0.930 . S
H435 C394 0.930 . S
H436 C398 0.929 . S
H437 C400 0.930 . S
H438 C406 0.929 . S
H439 C407 0.930 . S
Li440 N457 1.990 . S
Li440 O500 1.956 . S
Li440 O501 1.970 . S
Li440 O502 1.961 . S
Li441 N465 1.990 . S
Li441 O500 1.970 . S
Li441 O501 1.956 . S
Li441 O503 1.961 . S
Li442 N487 1.990 . S
Li442 O500 1.961 . S
Li442 O502 1.956 . S
Li442 O503 1.970 . S
Li443 N493 1.990 . S
Li443 O501 1.961 . S
Li443 O502 1.970 . S
Li443 O503 1.956 . S
C444 C446 1.348 . S
C444 C447 1.356 . S
C444 O500 1.325 . S
N445 C448 1.314 . S
N445 C449 1.279 . S
C446 C444 1.348 . S
C446 C448 1.353 . S
C446 H504 0.929 . S
C447 C444 1.356 . S
C447 C449 1.358 . S
C447 H505 0.930 . S
C448 N445 1.314 . S
C448 C446 1.353 . S
C448 H506 0.930 . S
C449 N445 1.279 . S
C449 C447 1.358 . S
C449 H507 0.930 . S
C450 C453 1.348 . S
C450 C454 1.356 . S
C450 O501 1.325 . S
C451 N452 1.279 . S
C451 C454 1.358 . S
C451 H508 0.930 . S
N452 C451 1.279 . S
N452 C455 1.314 . S
C453 C450 1.348 . S
C453 C455 1.353 . S
C453 H509 0.929 . S
C454 C450 1.356 . S
C454 C451 1.358 . S
C454 H510 0.930 . S
C455 N452 1.314 . S
C455 C453 1.353 . S
C455 H511 0.930 . S
C456 N457 1.314 . S
C456 C461 1.353 . S
C456 H462 0.930 . S
N457 Li440 1.990 . S
N457 C456 1.314 . S
N457 C459 1.279 . S
C458 C459 1.358 . S
C458 C460 1.356 . S
C458 H512 0.930 . S
C459 N457 1.279 . S
C459 C458 1.358 . S
C459 H463 0.930 . S
C460 C458 1.356 . S
C460 C461 1.348 . S
C461 C456 1.353 . S
C461 C460 1.348 . S
C461 H513 0.929 . S
H462 C456 0.930 . S
H463 C459 0.930 . S
C464 N465 1.314 . S
C464 C466 1.353 . S
C464 H470 0.930 . S
N465 Li441 1.990 . S
N465 C464 1.314 . S
N465 C468 1.279 . S
C466 C464 1.353 . S
C466 C469 1.348 . S
C466 H514 0.929 . S
C467 C468 1.358 . S
C467 C469 1.356 . S
C467 H515 0.930 . S
C468 N465 1.279 . S
C468 C467 1.358 . S
C468 H471 0.930 . S
C469 C466 1.348 . S
C469 C467 1.356 . S
H470 C464 0.930 . S
H471 C468 0.930 . S
C472 C474 1.348 . S
C472 C475 1.356 . S
C472 O502 1.325 . S
N473 C476 1.314 . S
N473 C477 1.279 . S
C474 C472 1.348 . S
C474 C476 1.353 . S
C474 H516 0.929 . S
C475 C472 1.356 . S
C475 C477 1.358 . S
C475 H517 0.930 . S
C476 N473 1.314 . S
C476 C474 1.353 . S
C476 H518 0.930 . S
C477 N473 1.279 . S
C477 C475 1.358 . S
C477 H519 0.930 . S
C478 C479 1.348 . S
C478 C480 1.356 . S
C478 O503 1.325 . S
C479 C478 1.348 . S
C479 C481 1.353 . S
C479 H520 0.929 . S
C480 C478 1.356 . S
C480 C482 1.358 . S
C480 H521 0.930 . S
C481 C479 1.353 . S
C481 N483 1.314 . S
C481 H522 0.930 . S
C482 C480 1.358 . S
C482 N483 1.279 . S
C482 H523 0.930 . S
N483 C481 1.314 . S
N483 C482 1.279 . S
C484 C486 1.353 . S
C484 N487 1.314 . S
C484 H490 0.930 . S
C485 N487 1.279 . S
C485 C488 1.358 . S
C485 H491 0.930 . S
C486 C484 1.353 . S
C486 C489 1.348 . S
C486 H524 0.929 . S
N487 Li442 1.990 . S
N487 C484 1.314 . S
N487 C485 1.279 . S
C488 C485 1.358 . S
C488 C489 1.356 . S
C488 H525 0.930 . S
C489 C486 1.348 . S
C489 C488 1.356 . S
H490 C484 0.930 . S
H491 C485 0.930 . S
C492 N493 1.314 . S
C492 C494 1.353 . S
C492 H498 0.930 . S
N493 Li443 1.990 . S
N493 C492 1.314 . S
N493 C496 1.279 . S
C494 C492 1.353 . S
C494 C497 1.348 . S
C494 H526 0.929 . S
C495 C496 1.358 . S
C495 C497 1.356 . S
C495 H527 0.930 . S
C496 N493 1.279 . S
C496 C495 1.358 . S
C496 H499 0.930 . S
C497 C494 1.348 . S
C497 C495 1.356 . S
H498 C492 0.930 . S
H499 C496 0.930 . S
O500 Li440 1.956 . S
O500 Li441 1.970 . S
O500 Li442 1.961 . S
O500 C444 1.325 . S
O501 Li440 1.970 . S
O501 Li441 1.956 . S
O501 Li443 1.961 . S
O501 C450 1.325 . S
O502 Li440 1.961 . S
O502 Li442 1.956 . S
O502 Li443 1.970 . S
O502 C472 1.325 . S
O503 Li441 1.961 . S
O503 Li442 1.970 . S
O503 Li443 1.956 . S
O503 C478 1.325 . S
H504 C446 0.929 . S
H505 C447 0.930 . S
H506 C448 0.930 . S
H507 C449 0.930 . S
H508 C451 0.930 . S
H509 C453 0.929 . S
H510 C454 0.930 . S
H511 C455 0.930 . S
H512 C458 0.930 . S
H513 C461 0.929 . S
H514 C466 0.929 . S
H515 C467 0.930 . S
H516 C474 0.929 . S
H517 C475 0.930 . S
H518 C476 0.930 . S
H519 C477 0.930 . S
H520 C479 0.929 . S
H521 C480 0.930 . S
H522 C481 0.930 . S
H523 C482 0.930 . S
H524 C486 0.929 . S
H525 C488 0.930 . S
H526 C494 0.929 . S
H527 C495 0.930 . S
Li528 N545 1.990 . S
Li528 O588 1.956 . S
Li528 O589 1.970 . S
Li528 O590 1.961 . S
Li529 N553 1.990 . S
Li529 O588 1.970 . S
Li529 O589 1.956 . S
Li529 O591 1.961 . S
Li530 N575 1.990 . S
Li530 O588 1.961 . S
Li530 O590 1.956 . S
Li530 O591 1.970 . S
Li531 N581 1.990 . S
Li531 O589 1.961 . S
Li531 O590 1.970 . S
Li531 O591 1.956 . S
C532 C534 1.348 . S
C532 C535 1.356 . S
C532 O588 1.325 . S
N533 C536 1.314 . S
N533 C537 1.279 . S
C534 C532 1.348 . S
C534 C536 1.353 . S
C534 H592 0.929 . S
C535 C532 1.356 . S
C535 C537 1.358 . S
C535 H593 0.930 . S
C536 N533 1.314 . S
C536 C534 1.353 . S
C536 H594 0.930 . S
C537 N533 1.279 . S
C537 C535 1.358 . S
C537 H595 0.930 . S
C538 C541 1.348 . S
C538 C542 1.356 . S
C538 O589 1.325 . S
C539 N540 1.279 . S
C539 C542 1.358 . S
C539 H596 0.930 . S
N540 C539 1.279 . S
N540 C543 1.314 . S
C541 C538 1.348 . S
C541 C543 1.353 . S
C541 H597 0.929 . S
C542 C538 1.356 . S
C542 C539 1.358 . S
C542 H598 0.930 . S
C543 N540 1.314 . S
C543 C541 1.353 . S
C543 H599 0.930 . S
C544 N545 1.314 . S
C544 C549 1.353 . S
C544 H550 0.930 . S
N545 Li528 1.990 . S
N545 C544 1.314 . S
N545 C547 1.279 . S
C546 C547 1.358 . S
C546 C548 1.356 . S
C546 H600 0.930 . S
C547 N545 1.279 . S
C547 C546 1.358 . S
C547 H551 0.930 . S
C548 C546 1.356 . S
C548 C549 1.348 . S
C549 C544 1.353 . S
C549 C548 1.348 . S
C549 H601 0.929 . S
H550 C544 0.930 . S
H551 C547 0.930 . S
C552 N553 1.314 . S
C552 C554 1.353 . S
C552 H558 0.930 . S
N553 Li529 1.990 . S
N553 C552 1.314 . S
N553 C556 1.279 . S
C554 C552 1.353 . S
C554 C557 1.348 . S
C554 H602 0.929 . S
C555 C556 1.358 . S
C555 C557 1.356 . S
C555 H603 0.930 . S
C556 N553 1.279 . S
C556 C555 1.358 . S
C556 H559 0.930 . S
C557 C554 1.348 . S
C557 C555 1.356 . S
H558 C552 0.930 . S
H559 C556 0.930 . S
C560 C562 1.348 . S
C560 C563 1.356 . S
C560 O590 1.325 . S
N561 C564 1.314 . S
N561 C565 1.279 . S
C562 C560 1.348 . S
C562 C564 1.353 . S
C562 H604 0.929 . S
C563 C560 1.356 . S
C563 C565 1.358 . S
C563 H605 0.930 . S
C564 N561 1.314 . S
C564 C562 1.353 . S
C564 H606 0.930 . S
C565 N561 1.279 . S
C565 C563 1.358 . S
C565 H607 0.930 . S
C566 C567 1.348 . S
C566 C568 1.356 . S
C566 O591 1.325 . S
C567 C566 1.348 . S
C567 C569 1.353 . S
C567 H608 0.929 . S
C568 C566 1.356 . S
C568 C570 1.358 . S
C568 H609 0.930 . S
C569 C567 1.353 . S
C569 N571 1.314 . S
C569 H610 0.930 . S
C570 C568 1.358 . S
C570 N571 1.279 . S
C570 H611 0.930 . S
N571 C569 1.314 . S
N571 C570 1.279 . S
C572 C574 1.353 . S
C572 N575 1.314 . S
C572 H578 0.930 . S
C573 N575 1.279 . S
C573 C576 1.358 . S
C573 H579 0.930 . S
C574 C572 1.353 . S
C574 C577 1.348 . S
C574 H612 0.929 . S
N575 Li530 1.990 . S
N575 C572 1.314 . S
N575 C573 1.279 . S
C576 C573 1.358 . S
C576 C577 1.356 . S
C576 H613 0.930 . S
C577 C574 1.348 . S
C577 C576 1.356 . S
H578 C572 0.930 . S
H579 C573 0.930 . S
C580 N581 1.314 . S
C580 C582 1.353 . S
C580 H586 0.930 . S
N581 Li531 1.990 . S
N581 C580 1.314 . S
N581 C584 1.279 . S
C582 C580 1.353 . S
C582 C585 1.348 . S
C582 H614 0.929 . S
C583 C584 1.358 . S
C583 C585 1.356 . S
C583 H615 0.930 . S
C584 N581 1.279 . S
C584 C583 1.358 . S
C584 H587 0.930 . S
C585 C582 1.348 . S
C585 C583 1.356 . S
H586 C580 0.930 . S
H587 C584 0.930 . S
O588 Li528 1.956 . S
O588 Li529 1.970 . S
O588 Li530 1.961 . S
O588 C532 1.325 . S
O589 Li528 1.970 . S
O589 Li529 1.956 . S
O589 Li531 1.961 . S
O589 C538 1.325 . S
O590 Li528 1.961 . S
O590 Li530 1.956 . S
O590 Li531 1.970 . S
O590 C560 1.325 . S
O591 Li529 1.961 . S
O591 Li530 1.970 . S
O591 Li531 1.956 . S
O591 C566 1.325 . S
H592 C534 0.929 . S
H593 C535 0.930 . S
H594 C536 0.930 . S
H595 C537 0.930 . S
H596 C539 0.930 . S
H597 C541 0.929 . S
H598 C542 0.930 . S
H599 C543 0.930 . S
H600 C546 0.930 . S
H601 C549 0.929 . S
H602 C554 0.929 . S
H603 C555 0.930 . S
H604 C562 0.929 . S
H605 C563 0.930 . S
H606 C564 0.930 . S
H607 C565 0.930 . S
H608 C567 0.929 . S
H609 C568 0.930 . S
H610 C569 0.930 . S
H611 C570 0.930 . S
H612 C574 0.929 . S
H613 C576 0.930 . S
H614 C582 0.929 . S
H615 C583 0.930 . S
Li616 N633 1.990 . S
Li616 O676 1.956 . S
Li616 O677 1.970 . S
Li616 O678 1.961 . S
Li617 N641 1.990 . S
Li617 O676 1.970 . S
Li617 O677 1.956 . S
Li617 O679 1.961 . S
Li618 N663 1.990 . S
Li618 O676 1.961 . S
Li618 O678 1.956 . S
Li618 O679 1.970 . S
Li619 N669 1.990 . S
Li619 O677 1.961 . S
Li619 O678 1.970 . S
Li619 O679 1.956 . S
C620 C622 1.348 . S
C620 C623 1.356 . S
C620 O676 1.325 . S
N621 C624 1.314 . S
N621 C625 1.279 . S
C622 C620 1.348 . S
C622 C624 1.353 . S
C622 H680 0.929 . S
C623 C620 1.356 . S
C623 C625 1.358 . S
C623 H681 0.930 . S
C624 N621 1.314 . S
C624 C622 1.353 . S
C624 H682 0.930 . S
C625 N621 1.279 . S
C625 C623 1.358 . S
C625 H683 0.930 . S
C626 C629 1.348 . S
C626 C630 1.356 . S
C626 O677 1.325 . S
C627 N628 1.279 . S
C627 C630 1.358 . S
C627 H684 0.930 . S
N628 C627 1.279 . S
N628 C631 1.314 . S
C629 C626 1.348 . S
C629 C631 1.353 . S
C629 H685 0.929 . S
C630 C626 1.356 . S
C630 C627 1.358 . S
C630 H686 0.930 . S
C631 N628 1.314 . S
C631 C629 1.353 . S
C631 H687 0.930 . S
C632 N633 1.314 . S
C632 C637 1.353 . S
C632 H638 0.930 . S
N633 Li616 1.990 . S
N633 C632 1.314 . S
N633 C635 1.279 . S
C634 C635 1.358 . S
C634 C636 1.356 . S
C634 H688 0.930 . S
C635 N633 1.279 . S
C635 C634 1.358 . S
C635 H639 0.930 . S
C636 C634 1.356 . S
C636 C637 1.348 . S
C637 C632 1.353 . S
C637 C636 1.348 . S
C637 H689 0.929 . S
H638 C632 0.930 . S
H639 C635 0.930 . S
C640 N641 1.314 . S
C640 C642 1.353 . S
C640 H646 0.930 . S
N641 Li617 1.990 . S
N641 C640 1.314 . S
N641 C644 1.279 . S
C642 C640 1.353 . S
C642 C645 1.348 . S
C642 H690 0.929 . S
C643 C644 1.358 . S
C643 C645 1.356 . S
C643 H691 0.930 . S
C644 N641 1.279 . S
C644 C643 1.358 . S
C644 H647 0.930 . S
C645 C642 1.348 . S
C645 C643 1.356 . S
H646 C640 0.930 . S
H647 C644 0.930 . S
C648 C650 1.348 . S
C648 C651 1.356 . S
C648 O678 1.325 . S
N649 C652 1.314 . S
N649 C653 1.279 . S
C650 C648 1.348 . S
C650 C652 1.353 . S
C650 H692 0.929 . S
C651 C648 1.356 . S
C651 C653 1.358 . S
C651 H693 0.930 . S
C652 N649 1.314 . S
C652 C650 1.353 . S
C652 H694 0.930 . S
C653 N649 1.279 . S
C653 C651 1.358 . S
C653 H695 0.930 . S
C654 C655 1.348 . S
C654 C656 1.356 . S
C654 O679 1.325 . S
C655 C654 1.348 . S
C655 C657 1.353 . S
C655 H696 0.929 . S
C656 C654 1.356 . S
C656 C658 1.358 . S
C656 H697 0.930 . S
C657 C655 1.353 . S
C657 N659 1.314 . S
C657 H698 0.930 . S
C658 C656 1.358 . S
C658 N659 1.279 . S
C658 H699 0.930 . S
N659 C657 1.314 . S
N659 C658 1.279 . S
C660 C662 1.353 . S
C660 N663 1.314 . S
C660 H666 0.930 . S
C661 N663 1.279 . S
C661 C664 1.358 . S
C661 H667 0.930 . S
C662 C660 1.353 . S
C662 C665 1.348 . S
C662 H700 0.929 . S
N663 Li618 1.990 . S
N663 C660 1.314 . S
N663 C661 1.279 . S
C664 C661 1.358 . S
C664 C665 1.356 . S
C664 H701 0.930 . S
C665 C662 1.348 . S
C665 C664 1.356 . S
H666 C660 0.930 . S
H667 C661 0.930 . S
C668 N669 1.314 . S
C668 C670 1.353 . S
C668 H674 0.930 . S
N669 Li619 1.990 . S
N669 C668 1.314 . S
N669 C672 1.279 . S
C670 C668 1.353 . S
C670 C673 1.348 . S
C670 H702 0.929 . S
C671 C672 1.358 . S
C671 C673 1.356 . S
C671 H703 0.930 . S
C672 N669 1.279 . S
C672 C671 1.358 . S
C672 H675 0.930 . S
C673 C670 1.348 . S
C673 C671 1.356 . S
H674 C668 0.930 . S
H675 C672 0.930 . S
O676 Li616 1.956 . S
O676 Li617 1.970 . S
O676 Li618 1.961 . S
O676 C620 1.325 . S
O677 Li616 1.970 . S
O677 Li617 1.956 . S
O677 Li619 1.961 . S
O677 C626 1.325 . S
O678 Li616 1.961 . S
O678 Li618 1.956 . S
O678 Li619 1.970 . S
O678 C648 1.325 . S
O679 Li617 1.961 . S
O679 Li618 1.970 . S
O679 Li619 1.956 . S
O679 C654 1.325 . S
H680 C622 0.929 . S
H681 C623 0.930 . S
H682 C624 0.930 . S
H683 C625 0.930 . S
H684 C627 0.930 . S
H685 C629 0.929 . S
H686 C630 0.930 . S
H687 C631 0.930 . S
H688 C634 0.930 . S
H689 C637 0.929 . S
H690 C642 0.929 . S
H691 C643 0.930 . S
H692 C650 0.929 . S
H693 C651 0.930 . S
H694 C652 0.930 . S
H695 C653 0.930 . S
H696 C655 0.929 . S
H697 C656 0.930 . S
H698 C657 0.930 . S
H699 C658 0.930 . S
H700 C662 0.929 . S
H701 C664 0.930 . S
H702 C670 0.929 . S
H703 C671 0.930 . S
Li704 N721 1.990 . S
Li704 O764 1.956 . S
Li704 O765 1.970 . S
Li704 O766 1.961 . S
Li705 N729 1.990 . S
Li705 O764 1.970 . S
Li705 O765 1.956 . S
Li705 O767 1.961 . S
Li706 N751 1.990 . S
Li706 O764 1.961 . S
Li706 O766 1.956 . S
Li706 O767 1.970 . S
Li707 N757 1.990 . S
Li707 O765 1.961 . S
Li707 O766 1.970 . S
Li707 O767 1.956 . S
C708 C710 1.348 . S
C708 C711 1.356 . S
C708 O764 1.325 . S
N709 C712 1.314 . S
N709 C713 1.279 . S
C710 C708 1.348 . S
C710 C712 1.353 . S
C710 H768 0.929 . S
C711 C708 1.356 . S
C711 C713 1.358 . S
C711 H769 0.930 . S
C712 N709 1.314 . S
C712 C710 1.353 . S
C712 H770 0.930 . S
C713 N709 1.279 . S
C713 C711 1.358 . S
C713 H771 0.930 . S
C714 C717 1.348 . S
C714 C718 1.356 . S
C714 O765 1.325 . S
C715 N716 1.279 . S
C715 C718 1.358 . S
C715 H772 0.930 1_545 S
N716 C715 1.279 . S
N716 C719 1.314 . S
C717 C714 1.348 . S
C717 C719 1.353 . S
C717 H773 0.929 . S
C718 C714 1.356 . S
C718 C715 1.358 . S
C718 H774 0.930 . S
C719 N716 1.314 . S
C719 C717 1.353 . S
C719 H775 0.930 . S
C720 N721 1.314 . S
C720 C725 1.353 . S
C720 H726 0.930 . S
N721 Li704 1.990 . S
N721 C720 1.314 . S
N721 C723 1.279 . S
C722 C723 1.358 . S
C722 C724 1.356 . S
C722 H776 0.930 . S
C723 N721 1.279 . S
C723 C722 1.358 . S
C723 H727 0.930 . S
C724 C722 1.356 . S
C724 C725 1.348 . S
C725 C720 1.353 . S
C725 C724 1.348 . S
C725 H777 0.929 . S
H726 C720 0.930 . S
H727 C723 0.930 . S
C728 N729 1.314 . S
C728 C730 1.353 . S
C728 H734 0.930 . S
N729 Li705 1.990 . S
N729 C728 1.314 . S
N729 C732 1.279 . S
C730 C728 1.353 . S
C730 C733 1.348 . S
C730 H778 0.929 . S
C731 C732 1.358 . S
C731 C733 1.356 . S
C731 H779 0.930 . S
C732 N729 1.279 . S
C732 C731 1.358 . S
C732 H735 0.930 . S
C733 C730 1.348 . S
C733 C731 1.356 . S
H734 C728 0.930 . S
H735 C732 0.930 . S
C736 C738 1.348 . S
C736 C739 1.356 . S
C736 O766 1.325 . S
N737 C740 1.314 . S
N737 C741 1.279 . S
C738 C736 1.348 . S
C738 C740 1.353 . S
C738 H780 0.929 . S
C739 C736 1.356 . S
C739 C741 1.358 . S
C739 H781 0.930 . S
C740 N737 1.314 . S
C740 C738 1.353 . S
C740 H782 0.930 . S
C741 N737 1.279 . S
C741 C739 1.358 . S
C741 H783 0.930 . S
C742 C743 1.348 . S
C742 C744 1.356 . S
C742 O767 1.325 . S
C743 C742 1.348 . S
C743 C745 1.353 . S
C743 H784 0.929 . S
C744 C742 1.356 . S
C744 C746 1.358 . S
C744 H785 0.930 . S
C745 C743 1.353 . S
C745 N747 1.314 . S
C745 H786 0.930 . S
C746 C744 1.358 . S
C746 N747 1.279 . S
C746 H787 0.930 . S
N747 C745 1.314 . S
N747 C746 1.279 . S
C748 C750 1.353 . S
C748 N751 1.314 . S
C748 H754 0.930 . S
C749 N751 1.279 . S
C749 C752 1.358 . S
C749 H755 0.930 . S
C750 C748 1.353 . S
C750 C753 1.348 . S
C750 H788 0.929 . S
N751 Li706 1.990 . S
N751 C748 1.314 . S
N751 C749 1.279 . S
C752 C749 1.358 . S
C752 C753 1.356 . S
C752 H789 0.930 . S
C753 C750 1.348 . S
C753 C752 1.356 . S
H754 C748 0.930 . S
H755 C749 0.930 . S
C756 N757 1.314 . S
C756 C758 1.353 1_545 S
C756 H762 0.930 . S
N757 Li707 1.990 . S
N757 C756 1.314 . S
N757 C760 1.279 . S
C758 C756 1.353 1_565 S
C758 C761 1.348 . S
C758 H790 0.929 . S
C759 C760 1.358 . S
C759 C761 1.356 1_545 S
C759 H791 0.930 . S
C760 N757 1.279 . S
C760 C759 1.358 . S
C760 H763 0.930 . S
C761 C758 1.348 . S
C761 C759 1.356 1_565 S
H762 C756 0.930 . S
H763 C760 0.930 . S
O764 Li704 1.956 . S
O764 Li705 1.970 . S
O764 Li706 1.961 . S
O764 C708 1.325 . S
O765 Li704 1.970 . S
O765 Li705 1.956 . S
O765 Li707 1.961 . S
O765 C714 1.325 . S
O766 Li704 1.961 . S
O766 Li706 1.956 . S
O766 Li707 1.970 . S
O766 C736 1.325 . S
O767 Li705 1.961 . S
O767 Li706 1.970 . S
O767 Li707 1.956 . S
O767 C742 1.325 . S
H768 C710 0.929 . S
H769 C711 0.930 . S
H770 C712 0.930 . S
H771 C713 0.930 . S
H772 C715 0.930 1_565 S
H773 C717 0.929 . S
H774 C718 0.930 . S
H775 C719 0.930 . S
H776 C722 0.930 . S
H777 C725 0.929 . S
H778 C730 0.929 . S
H779 C731 0.930 . S
H780 C738 0.929 . S
H781 C739 0.930 . S
H782 C740 0.930 . S
H783 C741 0.930 . S
H784 C743 0.929 . S
H785 C744 0.930 . S
H786 C745 0.930 . S
H787 C746 0.930 . S
H788 C750 0.929 . S
H789 C752 0.930 . S
H790 C758 0.929 . S
H791 C759 0.930 . S
Li792 N809 1.990 . S
Li792 O852 1.956 . S
Li792 O853 1.970 . S
Li792 O854 1.961 . S
Li793 N817 1.990 . S
Li793 O852 1.970 . S
Li793 O853 1.956 . S
Li793 O855 1.961 . S
Li794 N839 1.990 . S
Li794 O852 1.961 . S
Li794 O854 1.956 . S
Li794 O855 1.970 . S
Li795 N845 1.990 . S
Li795 O853 1.961 . S
Li795 O854 1.970 . S
Li795 O855 1.956 . S
C796 C798 1.348 . S
C796 C799 1.356 . S
C796 O852 1.325 . S
N797 C800 1.314 . S
N797 C801 1.279 . S
C798 C796 1.348 . S
C798 C800 1.353 . S
C798 H856 0.929 . S
C799 C796 1.356 . S
C799 C801 1.358 . S
C799 H857 0.930 . S
C800 N797 1.314 . S
C800 C798 1.353 . S
C800 H858 0.930 . S
C801 N797 1.279 . S
C801 C799 1.358 . S
C801 H859 0.930 . S
C802 C805 1.348 . S
C802 C806 1.356 . S
C802 O853 1.325 . S
C803 N804 1.279 . S
C803 C806 1.358 . S
C803 H860 0.930 . S
N804 C803 1.279 . S
N804 C807 1.314 . S
C805 C802 1.348 . S
C805 C807 1.353 . S
C805 H861 0.929 . S
C806 C802 1.356 . S
C806 C803 1.358 . S
C806 H862 0.930 . S
C807 N804 1.314 . S
C807 C805 1.353 . S
C807 H863 0.930 . S
C808 N809 1.314 . S
C808 C813 1.353 . S
C808 H814 0.930 . S
N809 Li792 1.990 . S
N809 C808 1.314 . S
N809 C811 1.279 . S
C810 C811 1.358 . S
C810 C812 1.356 . S
C810 H864 0.930 . S
C811 N809 1.279 . S
C811 C810 1.358 . S
C811 H815 0.930 . S
C812 C810 1.356 . S
C812 C813 1.348 . S
C813 C808 1.353 . S
C813 C812 1.348 . S
C813 H865 0.929 . S
H814 C808 0.930 . S
H815 C811 0.930 . S
C816 N817 1.314 . S
C816 C818 1.353 1_545 S
C816 H822 0.930 . S
N817 Li793 1.990 . S
N817 C816 1.314 . S
N817 C820 1.279 . S
C818 C816 1.353 1_565 S
C818 C821 1.348 . S
C818 H866 0.929 . S
C819 C820 1.358 . S
C819 C821 1.356 1_545 S
C819 H867 0.930 . S
C820 N817 1.279 . S
C820 C819 1.358 . S
C820 H823 0.930 . S
C821 C818 1.348 . S
C821 C819 1.356 1_565 S
H822 C816 0.930 . S
H823 C820 0.930 . S
C824 C826 1.348 . S
C824 C827 1.356 . S
C824 O854 1.325 . S
N825 C828 1.314 . S
N825 C829 1.279 . S
C826 C824 1.348 . S
C826 C828 1.353 . S
C826 H868 0.929 . S
C827 C824 1.356 . S
C827 C829 1.358 . S
C827 H869 0.930 . S
C828 N825 1.314 . S
C828 C826 1.353 . S
C828 H870 0.930 . S
C829 N825 1.279 . S
C829 C827 1.358 . S
C829 H871 0.930 . S
C830 C831 1.348 . S
C830 C832 1.356 . S
C830 O855 1.325 . S
C831 C830 1.348 . S
C831 C833 1.353 . S
C831 H872 0.929 . S
C832 C830 1.356 . S
C832 C834 1.358 . S
C832 H873 0.930 . S
C833 C831 1.353 . S
C833 N835 1.314 . S
C833 H874 0.930 . S
C834 C832 1.358 . S
C834 N835 1.279 . S
C834 H875 0.930 1_545 S
N835 C833 1.314 . S
N835 C834 1.279 . S
C836 C838 1.353 . S
C836 N839 1.314 . S
C836 H842 0.930 . S
C837 N839 1.279 . S
C837 C840 1.358 . S
C837 H843 0.930 . S
C838 C836 1.353 . S
C838 C841 1.348 . S
C838 H876 0.929 . S
N839 Li794 1.990 . S
N839 C836 1.314 . S
N839 C837 1.279 . S
C840 C837 1.358 . S
C840 C841 1.356 . S
C840 H877 0.930 . S
C841 C838 1.348 . S
C841 C840 1.356 . S
H842 C836 0.930 . S
H843 C837 0.930 . S
C844 N845 1.314 . S
C844 C846 1.353 . S
C844 H850 0.930 . S
N845 Li795 1.990 . S
N845 C844 1.314 . S
N845 C848 1.279 . S
C846 C844 1.353 . S
C846 C849 1.348 . S
C846 H878 0.929 . S
C847 C848 1.358 . S
C847 C849 1.356 . S
C847 H879 0.930 . S
C848 N845 1.279 . S
C848 C847 1.358 . S
C848 H851 0.930 . S
C849 C846 1.348 . S
C849 C847 1.356 . S
H850 C844 0.930 . S
H851 C848 0.930 . S
O852 Li792 1.956 . S
O852 Li793 1.970 . S
O852 Li794 1.961 . S
O852 C796 1.325 . S
O853 Li792 1.970 . S
O853 Li793 1.956 . S
O853 Li795 1.961 . S
O853 C802 1.325 . S
O854 Li792 1.961 . S
O854 Li794 1.956 . S
O854 Li795 1.970 . S
O854 C824 1.325 . S
O855 Li793 1.961 . S
O855 Li794 1.970 . S
O855 Li795 1.956 . S
O855 C830 1.325 . S
H856 C798 0.929 . S
H857 C799 0.930 . S
H858 C800 0.930 . S
H859 C801 0.930 . S
H860 C803 0.930 . S
H861 C805 0.929 . S
H862 C806 0.930 . S
H863 C807 0.930 . S
H864 C810 0.930 . S
H865 C813 0.929 . S
H866 C818 0.929 . S
H867 C819 0.930 . S
H868 C826 0.929 . S
H869 C827 0.930 . S
H870 C828 0.930 . S
H871 C829 0.930 . S
H872 C831 0.929 . S
H873 C832 0.930 . S
H874 C833 0.930 . S
H875 C834 0.930 1_565 S
H876 C838 0.929 . S
H877 C840 0.930 . S
H878 C846 0.929 . S
H879 C847 0.930 . S
Li880 N897 1.990 . S
Li880 O940 1.956 . S
Li880 O941 1.970 . S
Li880 O942 1.961 . S
Li881 N905 1.990 . S
Li881 O940 1.970 . S
Li881 O941 1.956 . S
Li881 O943 1.961 . S
Li882 N927 1.990 . S
Li882 O940 1.961 . S
Li882 O942 1.956 . S
Li882 O943 1.970 . S
Li883 N933 1.990 . S
Li883 O941 1.961 . S
Li883 O942 1.970 . S
Li883 O943 1.956 . S
C884 C886 1.348 . S
C884 C887 1.356 . S
C884 O940 1.325 . S
N885 C888 1.314 . S
N885 C889 1.279 . S
C886 C884 1.348 . S
C886 C888 1.353 . S
C886 H944 0.929 . S
C887 C884 1.356 . S
C887 C889 1.358 . S
C887 H945 0.930 . S
C888 N885 1.314 . S
C888 C886 1.353 . S
C888 H946 0.930 . S
C889 N885 1.279 . S
C889 C887 1.358 . S
C889 H947 0.930 . S
C890 C893 1.348 . S
C890 C894 1.356 . S
C890 O941 1.325 . S
C891 N892 1.279 . S
C891 C894 1.358 . S
C891 H948 0.930 . S
N892 C891 1.279 . S
N892 C895 1.314 . S
C893 C890 1.348 . S
C893 C895 1.353 . S
C893 H949 0.929 . S
C894 C890 1.356 . S
C894 C891 1.358 . S
C894 H950 0.930 . S
C895 N892 1.314 . S
C895 C893 1.353 . S
C895 H951 0.930 . S
C896 N897 1.314 . S
C896 C901 1.353 . S
C896 H902 0.930 . S
N897 Li880 1.990 . S
N897 C896 1.314 . S
N897 C899 1.279 . S
C898 C899 1.358 . S
C898 C900 1.356 . S
C898 H952 0.930 . S
C899 N897 1.279 . S
C899 C898 1.358 . S
C899 H903 0.930 . S
C900 C898 1.356 . S
C900 C901 1.348 . S
C901 C896 1.353 . S
C901 C900 1.348 . S
C901 H953 0.929 . S
H902 C896 0.930 . S
H903 C899 0.930 . S
C904 N905 1.314 . S
C904 C906 1.353 . S
C904 H910 0.930 . S
N905 Li881 1.990 . S
N905 C904 1.314 . S
N905 C908 1.279 . S
C906 C904 1.353 . S
C906 C909 1.348 . S
C906 H954 0.929 . S
C907 C908 1.358 . S
C907 C909 1.356 . S
C907 H955 0.930 . S
C908 N905 1.279 . S
C908 C907 1.358 . S
C908 H911 0.930 . S
C909 C906 1.348 . S
C909 C907 1.356 . S
H910 C904 0.930 . S
H911 C908 0.930 . S
C912 C914 1.348 . S
C912 C915 1.356 . S
C912 O942 1.325 . S
N913 C916 1.307 1_545 S
N913 C917 1.269 1_545 S
C914 C912 1.348 . S
C914 C916 1.353 . S
C914 H956 0.929 . S
C915 C912 1.356 . S
C915 C917 1.358 . S
C915 H957 0.930 . S
C916 N913 1.307 1_565 S
C916 C914 1.353 . S
C916 H958 0.938 . S
C917 N913 1.269 1_565 S
C917 C915 1.358 . S
C917 H959 0.930 . S
C918 C919 1.348 . S
C918 C920 1.356 . S
C918 O943 1.325 . S
C919 C918 1.348 . S
C919 C921 1.353 . S
C919 H960 0.929 . S
C920 C918 1.356 . S
C920 C922 1.358 . S
C920 H961 0.930 . S
C921 C919 1.353 . S
C921 N923 1.314 . S
C921 H962 0.930 . S
C922 C920 1.358 . S
C922 N923 1.279 . S
C922 H963 0.930 . S
N923 C921 1.314 . S
N923 C922 1.279 . S
C924 C926 1.353 . S
C924 N927 1.314 . S
C924 H930 0.930 . S
C925 N927 1.279 . S
C925 C928 1.358 1_565 S
C925 H931 0.930 . S
C926 C924 1.353 . S
C926 C929 1.348 1_565 S
C926 H964 0.929 . S
N927 Li882 1.990 . S
N927 C924 1.314 . S
N927 C925 1.279 . S
C928 C925 1.358 1_545 S
C928 C929 1.356 . S
C928 H965 0.930 . S
C929 C926 1.348 1_545 S
C929 C928 1.356 . S
H930 C924 0.930 . S
H931 C925 0.930 . S
C932 N933 1.314 . S
C932 C934 1.353 . S
C932 H938 0.930 . S
N933 Li883 1.990 . S
N933 C932 1.314 . S
N933 C936 1.279 . S
C934 C932 1.353 . S
C934 C937 1.348 . S
C934 H966 0.929 . S
C935 C936 1.358 . S
C935 C937 1.356 . S
C935 H967 0.930 . S
C936 N933 1.279 . S
C936 C935 1.358 . S
C936 H939 0.930 . S
C937 C934 1.348 . S
C937 C935 1.356 . S
H938 C932 0.930 . S
H939 C936 0.930 . S
O940 Li880 1.956 . S
O940 Li881 1.970 . S
O940 Li882 1.961 . S
O940 C884 1.325 . S
O941 Li880 1.970 . S
O941 Li881 1.956 . S
O941 Li883 1.961 . S
O941 C890 1.325 . S
O942 Li880 1.961 . S
O942 Li882 1.956 . S
O942 Li883 1.970 . S
O942 C912 1.325 . S
O943 Li881 1.961 . S
O943 Li882 1.970 . S
O943 Li883 1.956 . S
O943 C918 1.325 . S
H944 C886 0.929 . S
H945 C887 0.930 . S
H946 C888 0.930 . S
H947 C889 0.930 . S
H948 C891 0.930 . S
H949 C893 0.929 . S
H950 C894 0.930 . S
H951 C895 0.930 . S
H952 C898 0.930 . S
H953 C901 0.929 . S
H954 C906 0.929 . S
H955 C907 0.930 . S
H956 C914 0.929 . S
H957 C915 0.930 . S
H958 C916 0.938 . S
H959 C917 0.930 . S
H960 C919 0.929 . S
H961 C920 0.930 . S
H962 C921 0.930 . S
H963 C922 0.930 . S
H964 C926 0.929 . S
H965 C928 0.930 . S
H966 C934 0.929 . S
H967 C935 0.930 . S
Li968 N985 1.990 . S
Li968 O1028 1.956 . S
Li968 O1029 1.970 . S
Li968 O1030 1.961 . S
Li969 N993 1.990 . S
Li969 O1028 1.970 . S
Li969 O1029 1.956 . S
Li969 O1031 1.961 . S
Li970 N1015 1.990 . S
Li970 O1028 1.961 . S
Li970 O1030 1.956 . S
Li970 O1031 1.970 . S
Li971 N1021 1.990 . S
Li971 O1029 1.961 . S
Li971 O1030 1.970 . S
Li971 O1031 1.956 . S
C972 C974 1.348 . S
C972 C975 1.356 . S
C972 O1028 1.325 . S
N973 C976 1.307 1_545 S
N973 C977 1.269 1_545 S
C974 C972 1.348 . S
C974 C976 1.353 . S
C974 H1032 0.929 . S
C975 C972 1.356 . S
C975 C977 1.358 . S
C975 H1033 0.930 . S
C976 N973 1.307 1_565 S
C976 C974 1.353 . S
C976 H1034 0.938 . S
C977 N973 1.269 1_565 S
C977 C975 1.358 . S
C977 H1035 0.930 . S
C978 C981 1.348 . S
C978 C982 1.356 . S
C978 O1029 1.325 . S
C979 N980 1.279 . S
C979 C982 1.358 . S
C979 H1036 0.930 . S
N980 C979 1.279 . S
N980 C983 1.314 . S
C981 C978 1.348 . S
C981 C983 1.353 . S
C981 H1037 0.929 . S
C982 C978 1.356 . S
C982 C979 1.358 . S
C982 H1038 0.930 . S
C983 N980 1.314 . S
C983 C981 1.353 . S
C983 H1039 0.930 . S
C984 N985 1.314 . S
C984 C989 1.353 . S
C984 H990 0.930 . S
N985 Li968 1.990 . S
N985 C984 1.314 . S
N985 C987 1.279 . S
C986 C987 1.358 1_545 S
C986 C988 1.356 . S
C986 H1040 0.930 . S
C987 N985 1.279 . S
C987 C986 1.358 1_565 S
C987 H991 0.930 . S
C988 C986 1.356 . S
C988 C989 1.348 1_545 S
C989 C984 1.353 . S
C989 C988 1.348 1_565 S
C989 H1041 0.929 . S
H990 C984 0.930 . S
H991 C987 0.930 . S
C992 N993 1.314 . S
C992 C994 1.353 . S
C992 H998 0.930 . S
N993 Li969 1.990 . S
N993 C992 1.314 . S
N993 C996 1.279 . S
C994 C992 1.353 . S
C994 C997 1.348 . S
C994 H1042 0.929 . S
C995 C996 1.358 . S
C995 C997 1.356 . S
C995 H1043 0.930 . S
C996 N993 1.279 . S
C996 C995 1.358 . S
C996 H999 0.930 . S
C997 C994 1.348 . S
C997 C995 1.356 . S
H998 C992 0.930 . S
H999 C996 0.930 . S
C1000 C1002 1.348 . S
C1000 C1003 1.356 . S
C1000 O1030 1.325 . S
N1001 C1004 1.314 . S
N1001 C1005 1.279 . S
C1002 C1000 1.348 . S
C1002 C1004 1.353 . S
C1002 H1044 0.929 . S
C1003 C1000 1.356 . S
C1003 C1005 1.358 . S
C1003 H1045 0.930 . S
C1004 N1001 1.314 . S
C1004 C1002 1.353 . S
C1004 H1046 0.930 . S
C1005 N1001 1.279 . S
C1005 C1003 1.358 . S
C1005 H1047 0.930 . S
C1006 C1007 1.348 . S
C1006 C1008 1.356 . S
C1006 O1031 1.325 . S
C1007 C1006 1.348 . S
C1007 C1009 1.353 . S
C1007 H1048 0.929 . S
C1008 C1006 1.356 . S
C1008 C1010 1.358 . S
C1008 H1049 0.930 . S
C1009 C1007 1.353 . S
C1009 N1011 1.314 . S
C1009 H1050 0.930 . S
C1010 C1008 1.358 . S
C1010 N1011 1.279 . S
C1010 H1051 0.930 . S
N1011 C1009 1.314 . S
N1011 C1010 1.279 . S
C1012 C1014 1.353 . S
C1012 N1015 1.314 . S
C1012 H1018 0.930 . S
C1013 N1015 1.279 . S
C1013 C1016 1.358 . S
C1013 H1019 0.930 . S
C1014 C1012 1.353 . S
C1014 C1017 1.348 . S
C1014 H1052 0.929 . S
N1015 Li970 1.990 . S
N1015 C1012 1.314 . S
N1015 C1013 1.279 . S
C1016 C1013 1.358 . S
C1016 C1017 1.356 . S
C1016 H1053 0.930 . S
C1017 C1014 1.348 . S
C1017 C1016 1.356 . S
H1018 C1012 0.930 . S
H1019 C1013 0.930 . S
C1020 N1021 1.314 . S
C1020 C1022 1.353 . S
C1020 H1026 0.930 . S
N1021 Li971 1.990 . S
N1021 C1020 1.314 . S
N1021 C1024 1.279 . S
C1022 C1020 1.353 . S
C1022 C1025 1.348 . S
C1022 H1054 0.929 . S
C1023 C1024 1.358 . S
C1023 C1025 1.356 . S
C1023 H1055 0.930 . S
C1024 N1021 1.279 . S
C1024 C1023 1.358 . S
C1024 H1027 0.930 . S
C1025 C1022 1.348 . S
C1025 C1023 1.356 . S
H1026 C1020 0.930 . S
H1027 C1024 0.930 . S
O1028 Li968 1.956 . S
O1028 Li969 1.970 . S
O1028 Li970 1.961 . S
O1028 C972 1.325 . S
O1029 Li968 1.970 . S
O1029 Li969 1.956 . S
O1029 Li971 1.961 . S
O1029 C978 1.325 . S
O1030 Li968 1.961 . S
O1030 Li970 1.956 . S
O1030 Li971 1.970 . S
O1030 C1000 1.325 . S
O1031 Li969 1.961 . S
O1031 Li970 1.970 . S
O1031 Li971 1.956 . S
O1031 C1006 1.325 . S
H1032 C974 0.929 . S
H1033 C975 0.930 . S
H1034 C976 0.938 . S
H1035 C977 0.930 . S
H1036 C979 0.930 . S
H1037 C981 0.929 . S
H1038 C982 0.930 . S
H1039 C983 0.930 . S
H1040 C986 0.930 . S
H1041 C989 0.929 . S
H1042 C994 0.929 . S
H1043 C995 0.930 . S
H1044 C1002 0.929 . S
H1045 C1003 0.930 . S
H1046 C1004 0.930 . S
H1047 C1005 0.930 . S
H1048 C1007 0.929 . S
H1049 C1008 0.930 . S
H1050 C1009 0.930 . S
H1051 C1010 0.930 . S
H1052 C1014 0.929 . S
H1053 C1016 0.930 . S
H1054 C1022 0.929 . S
H1055 C1023 0.930 . S
Li1056 N1073 1.990 . S
Li1056 O1116 1.956 . S
Li1056 O1117 1.970 . S
Li1056 O1118 1.961 . S
Li1057 N1081 1.990 . S
Li1057 O1116 1.970 . S
Li1057 O1117 1.956 . S
Li1057 O1119 1.961 . S
Li1058 N1103 1.990 . S
Li1058 O1116 1.961 . S
Li1058 O1118 1.956 . S
Li1058 O1119 1.970 . S
Li1059 N1109 1.990 . S
Li1059 O1117 1.961 . S
Li1059 O1118 1.970 . S
Li1059 O1119 1.956 . S
C1060 C1062 1.348 . S
C1060 C1063 1.356 . S
C1060 O1116 1.325 . S
N1061 C1064 1.314 . S
N1061 C1065 1.279 . S
C1062 C1060 1.348 . S
C1062 C1064 1.353 . S
C1062 H1120 0.929 . S
C1063 C1060 1.356 . S
C1063 C1065 1.358 . S
C1063 H1121 0.930 . S
C1064 N1061 1.314 . S
C1064 C1062 1.353 . S
C1064 H1122 0.930 . S
C1065 N1061 1.279 . S
C1065 C1063 1.358 . S
C1065 H1123 0.930 . S
C1066 C1069 1.348 . S
C1066 C1070 1.356 . S
C1066 O1117 1.325 . S
C1067 N1068 1.279 . S
C1067 C1070 1.358 . S
C1067 H1124 0.930 . S
N1068 C1067 1.279 . S
N1068 C1071 1.314 . S
C1069 C1066 1.348 . S
C1069 C1071 1.353 . S
C1069 H1125 0.929 . S
C1070 C1066 1.356 . S
C1070 C1067 1.358 . S
C1070 H1126 0.930 . S
C1071 N1068 1.314 . S
C1071 C1069 1.353 . S
C1071 H1127 0.930 . S
C1072 N1073 1.314 . S
C1072 C1077 1.353 . S
C1072 H1078 0.930 . S
N1073 Li1056 1.990 . S
N1073 C1072 1.314 . S
N1073 C1075 1.279 . S
C1074 C1075 1.358 . S
C1074 C1076 1.356 . S
C1074 H1128 0.930 . S
C1075 N1073 1.279 . S
C1075 C1074 1.358 . S
C1075 H1079 0.930 . S
C1076 C1074 1.356 . S
C1076 C1077 1.348 . S
C1077 C1072 1.353 . S
C1077 C1076 1.348 . S
C1077 H1129 0.929 . S
H1078 C1072 0.930 . S
H1079 C1075 0.930 . S
C1080 N1081 1.314 . S
C1080 C1082 1.353 . S
C1080 H1086 0.930 . S
N1081 Li1057 1.990 . S
N1081 C1080 1.314 . S
N1081 C1084 1.279 . S
C1082 C1080 1.353 . S
C1082 C1085 1.348 . S
C1082 H1130 0.929 . S
C1083 C1084 1.358 . S
C1083 C1085 1.356 . S
C1083 H1131 0.930 . S
C1084 N1081 1.279 . S
C1084 C1083 1.358 . S
C1084 H1087 0.930 . S
C1085 C1082 1.348 . S
C1085 C1083 1.356 . S
H1086 C1080 0.930 . S
H1087 C1084 0.930 . S
C1088 C1090 1.348 . S
C1088 C1091 1.356 . S
C1088 O1118 1.325 . S
N1089 C1092 1.314 . S
N1089 C1093 1.279 . S
C1090 C1088 1.348 . S
C1090 C1092 1.353 . S
C1090 H1132 0.929 . S
C1091 C1088 1.356 . S
C1091 C1093 1.358 . S
C1091 H1133 0.930 . S
C1092 N1089 1.314 . S
C1092 C1090 1.353 . S
C1092 H1134 0.930 . S
C1093 N1089 1.279 . S
C1093 C1091 1.358 . S
C1093 H1135 0.930 . S
C1094 C1095 1.348 . S
C1094 C1096 1.356 . S
C1094 O1119 1.325 . S
C1095 C1094 1.348 . S
C1095 C1097 1.353 . S
C1095 H1136 0.929 . S
C1096 C1094 1.356 . S
C1096 C1098 1.358 . S
C1096 H1137 0.930 . S
C1097 C1095 1.353 . S
C1097 N1099 1.314 . S
C1097 H1138 0.930 . S
C1098 C1096 1.358 . S
C1098 N1099 1.279 . S
C1098 H1139 0.930 . S
N1099 C1097 1.314 . S
N1099 C1098 1.279 . S
C1100 C1102 1.353 . S
C1100 N1103 1.314 . S
C1100 H1106 0.930 . S
C1101 N1103 1.279 . S
C1101 C1104 1.358 . S
C1101 H1107 0.930 . S
C1102 C1100 1.353 . S
C1102 C1105 1.348 . S
C1102 H1140 0.929 . S
N1103 Li1058 1.990 . S
N1103 C1100 1.314 . S
N1103 C1101 1.279 . S
C1104 C1101 1.358 . S
C1104 C1105 1.356 . S
C1104 H1141 0.930 . S
C1105 C1102 1.348 . S
C1105 C1104 1.356 . S
H1106 C1100 0.930 . S
H1107 C1101 0.930 . S
C1108 N1109 1.314 . S
C1108 C1110 1.353 . S
C1108 H1114 0.930 . S
N1109 Li1059 1.990 . S
N1109 C1108 1.314 . S
N1109 C1112 1.279 . S
C1110 C1108 1.353 . S
C1110 C1113 1.348 . S
C1110 H1142 0.929 . S
C1111 C1112 1.358 . S
C1111 C1113 1.356 . S
C1111 H1143 0.930 . S
C1112 N1109 1.279 . S
C1112 C1111 1.358 . S
C1112 H1115 0.930 . S
C1113 C1110 1.348 . S
C1113 C1111 1.356 . S
H1114 C1108 0.930 . S
H1115 C1112 0.930 . S
O1116 Li1056 1.956 . S
O1116 Li1057 1.970 . S
O1116 Li1058 1.961 . S
O1116 C1060 1.325 . S
O1117 Li1056 1.970 . S
O1117 Li1057 1.956 . S
O1117 Li1059 1.961 . S
O1117 C1066 1.325 . S
O1118 Li1056 1.961 . S
O1118 Li1058 1.956 . S
O1118 Li1059 1.970 . S
O1118 C1088 1.325 . S
O1119 Li1057 1.961 . S
O1119 Li1058 1.970 . S
O1119 Li1059 1.956 . S
O1119 C1094 1.325 . S
H1120 C1062 0.929 . S
H1121 C1063 0.930 . S
H1122 C1064 0.930 . S
H1123 C1065 0.930 . S
H1124 C1067 0.930 . S
H1125 C1069 0.929 . S
H1126 C1070 0.930 . S
H1127 C1071 0.930 . S
H1128 C1074 0.930 . S
H1129 C1077 0.929 . S
H1130 C1082 0.929 . S
H1131 C1083 0.930 . S
H1132 C1090 0.929 . S
H1133 C1091 0.930 . S
H1134 C1092 0.930 . S
H1135 C1093 0.930 . S
H1136 C1095 0.929 . S
H1137 C1096 0.930 . S
H1138 C1097 0.930 . S
H1139 C1098 0.930 . S
H1140 C1102 0.929 . S
H1141 C1104 0.930 . S
H1142 C1110 0.929 . S
H1143 C1111 0.930 . S
Li1144 N1161 1.990 . S
Li1144 O1204 1.956 . S
Li1144 O1205 1.970 . S
Li1144 O1206 1.961 . S
Li1145 N1169 1.990 . S
Li1145 O1204 1.970 . S
Li1145 O1205 1.956 . S
Li1145 O1207 1.961 . S
Li1146 N1191 1.990 . S
Li1146 O1204 1.961 . S
Li1146 O1206 1.956 . S
Li1146 O1207 1.970 . S
Li1147 N1197 1.990 . S
Li1147 O1205 1.961 . S
Li1147 O1206 1.970 . S
Li1147 O1207 1.956 . S
C1148 C1150 1.348 . S
C1148 C1151 1.356 . S
C1148 O1204 1.325 . S
N1149 C1152 1.314 . S
N1149 C1153 1.279 . S
C1150 C1148 1.348 . S
C1150 C1152 1.353 . S
C1150 H1208 0.929 . S
C1151 C1148 1.356 . S
C1151 C1153 1.358 . S
C1151 H1209 0.930 . S
C1152 N1149 1.314 . S
C1152 C1150 1.353 . S
C1152 H1210 0.930 . S
C1153 N1149 1.279 . S
C1153 C1151 1.358 . S
C1153 H1211 0.930 . S
C1154 C1157 1.348 . S
C1154 C1158 1.356 . S
C1154 O1205 1.325 . S
C1155 N1156 1.279 . S
C1155 C1158 1.358 . S
C1155 H1212 0.930 . S
N1156 C1155 1.279 . S
N1156 C1159 1.314 . S
C1157 C1154 1.348 . S
C1157 C1159 1.353 . S
C1157 H1213 0.929 . S
C1158 C1154 1.356 . S
C1158 C1155 1.358 . S
C1158 H1214 0.930 . S
C1159 N1156 1.314 . S
C1159 C1157 1.353 . S
C1159 H1215 0.930 . S
C1160 N1161 1.314 . S
C1160 C1165 1.353 . S
C1160 H1166 0.930 . S
N1161 Li1144 1.990 . S
N1161 C1160 1.314 . S
N1161 C1163 1.279 . S
C1162 C1163 1.358 . S
C1162 C1164 1.356 . S
C1162 H1216 0.930 . S
C1163 N1161 1.279 . S
C1163 C1162 1.358 . S
C1163 H1167 0.930 . S
C1164 C1162 1.356 . S
C1164 C1165 1.348 . S
C1165 C1160 1.353 . S
C1165 C1164 1.348 . S
C1165 H1217 0.929 . S
H1166 C1160 0.930 . S
H1167 C1163 0.930 . S
C1168 N1169 1.314 . S
C1168 C1170 1.353 . S
C1168 H1174 0.930 . S
N1169 Li1145 1.990 . S
N1169 C1168 1.314 . S
N1169 C1172 1.279 . S
C1170 C1168 1.353 . S
C1170 C1173 1.348 . S
C1170 H1218 0.929 . S
C1171 C1172 1.358 . S
C1171 C1173 1.356 . S
C1171 H1219 0.930 . S
C1172 N1169 1.279 . S
C1172 C1171 1.358 . S
C1172 H1175 0.930 . S
C1173 C1170 1.348 . S
C1173 C1171 1.356 . S
H1174 C1168 0.930 . S
H1175 C1172 0.930 . S
C1176 C1178 1.348 . S
C1176 C1179 1.356 . S
C1176 O1206 1.325 . S
N1177 C1180 1.314 . S
N1177 C1181 1.279 . S
C1178 C1176 1.348 . S
C1178 C1180 1.353 . S
C1178 H1220 0.929 . S
C1179 C1176 1.356 . S
C1179 C1181 1.358 . S
C1179 H1221 0.930 . S
C1180 N1177 1.314 . S
C1180 C1178 1.353 . S
C1180 H1222 0.930 . S
C1181 N1177 1.279 . S
C1181 C1179 1.358 . S
C1181 H1223 0.930 . S
C1182 C1183 1.348 . S
C1182 C1184 1.356 . S
C1182 O1207 1.325 . S
C1183 C1182 1.348 . S
C1183 C1185 1.353 . S
C1183 H1224 0.929 . S
C1184 C1182 1.356 . S
C1184 C1186 1.358 . S
C1184 H1225 0.930 . S
C1185 C1183 1.353 . S
C1185 N1187 1.314 . S
C1185 H1226 0.930 . S
C1186 C1184 1.358 . S
C1186 N1187 1.279 . S
C1186 H1227 0.930 . S
N1187 C1185 1.314 . S
N1187 C1186 1.279 . S
C1188 C1190 1.353 . S
C1188 N1191 1.314 . S
C1188 H1194 0.930 . S
C1189 N1191 1.279 . S
C1189 C1192 1.358 . S
C1189 H1195 0.930 . S
C1190 C1188 1.353 . S
C1190 C1193 1.348 . S
C1190 H1228 0.929 . S
N1191 Li1146 1.990 . S
N1191 C1188 1.314 . S
N1191 C1189 1.279 . S
C1192 C1189 1.358 . S
C1192 C1193 1.356 . S
C1192 H1229 0.930 . S
C1193 C1190 1.348 . S
C1193 C1192 1.356 . S
H1194 C1188 0.930 . S
H1195 C1189 0.930 . S
C1196 N1197 1.314 . S
C1196 C1198 1.353 . S
C1196 H1202 0.930 . S
N1197 Li1147 1.990 . S
N1197 C1196 1.314 . S
N1197 C1200 1.279 . S
C1198 C1196 1.353 . S
C1198 C1201 1.348 . S
C1198 H1230 0.929 . S
C1199 C1200 1.358 . S
C1199 C1201 1.356 . S
C1199 H1231 0.930 . S
C1200 N1197 1.279 . S
C1200 C1199 1.358 . S
C1200 H1203 0.930 . S
C1201 C1198 1.348 . S
C1201 C1199 1.356 . S
H1202 C1196 0.930 . S
H1203 C1200 0.930 . S
O1204 Li1144 1.956 . S
O1204 Li1145 1.970 . S
O1204 Li1146 1.961 . S
O1204 C1148 1.325 . S
O1205 Li1144 1.970 . S
O1205 Li1145 1.956 . S
O1205 Li1147 1.961 . S
O1205 C1154 1.325 . S
O1206 Li1144 1.961 . S
O1206 Li1146 1.956 . S
O1206 Li1147 1.970 . S
O1206 C1176 1.325 . S
O1207 Li1145 1.961 . S
O1207 Li1146 1.970 . S
O1207 Li1147 1.956 . S
O1207 C1182 1.325 . S
H1208 C1150 0.929 . S
H1209 C1151 0.930 . S
H1210 C1152 0.930 . S
H1211 C1153 0.930 . S
H1212 C1155 0.930 . S
H1213 C1157 0.929 . S
H1214 C1158 0.930 . S
H1215 C1159 0.930 . S
H1216 C1162 0.930 . S
H1217 C1165 0.929 . S
H1218 C1170 0.929 . S
H1219 C1171 0.930 . S
H1220 C1178 0.929 . S
H1221 C1179 0.930 . S
H1222 C1180 0.930 . S
H1223 C1181 0.930 . S
H1224 C1183 0.929 . S
H1225 C1184 0.930 . S
H1226 C1185 0.930 . S
H1227 C1186 0.930 . S
H1228 C1190 0.929 . S
H1229 C1192 0.930 . S
H1230 C1198 0.929 . S
H1231 C1199 0.930 . S
Li1232 N1249 1.990 . S
Li1232 O1292 1.956 . S
Li1232 O1293 1.970 . S
Li1232 O1294 1.961 . S
Li1233 N1257 1.990 . S
Li1233 O1292 1.970 . S
Li1233 O1293 1.956 . S
Li1233 O1295 1.961 . S
Li1234 N1279 1.990 . S
Li1234 O1292 1.961 . S
Li1234 O1294 1.956 . S
Li1234 O1295 1.970 . S
Li1235 N1285 1.990 . S
Li1235 O1293 1.961 . S
Li1235 O1294 1.970 . S
Li1235 O1295 1.956 . S
C1236 C1238 1.348 . S
C1236 C1239 1.356 . S
C1236 O1292 1.325 . S
N1237 C1240 1.314 . S
N1237 C1241 1.279 . S
C1238 C1236 1.348 . S
C1238 C1240 1.353 . S
C1238 H1296 0.929 . S
C1239 C1236 1.356 . S
C1239 C1241 1.358 . S
C1239 H1297 0.930 . S
C1240 N1237 1.314 . S
C1240 C1238 1.353 . S
C1240 H1298 0.930 . S
C1241 N1237 1.279 . S
C1241 C1239 1.358 . S
C1241 H1299 0.930 . S
C1242 C1245 1.348 . S
C1242 C1246 1.356 . S
C1242 O1293 1.325 . S
C1243 N1244 1.279 . S
C1243 C1246 1.358 . S
C1243 H1300 0.930 . S
N1244 C1243 1.279 . S
N1244 C1247 1.314 . S
C1245 C1242 1.348 . S
C1245 C1247 1.353 . S
C1245 H1301 0.929 . S
C1246 C1242 1.356 . S
C1246 C1243 1.358 . S
C1246 H1302 0.930 . S
C1247 N1244 1.314 . S
C1247 C1245 1.353 . S
C1247 H1303 0.930 . S
C1248 N1249 1.314 . S
C1248 C1253 1.353 . S
C1248 H1254 0.930 . S
N1249 Li1232 1.990 . S
N1249 C1248 1.314 . S
N1249 C1251 1.279 . S
C1250 C1251 1.358 . S
C1250 C1252 1.356 . S
C1250 H1304 0.930 . S
C1251 N1249 1.279 . S
C1251 C1250 1.358 . S
C1251 H1255 0.930 . S
C1252 C1250 1.356 . S
C1252 C1253 1.348 . S
C1253 C1248 1.353 . S
C1253 C1252 1.348 . S
C1253 H1305 0.929 . S
H1254 C1248 0.930 . S
H1255 C1251 0.930 . S
C1256 N1257 1.314 . S
C1256 C1258 1.353 . S
C1256 H1262 0.930 . S
N1257 Li1233 1.990 . S
N1257 C1256 1.314 . S
N1257 C1260 1.279 . S
C1258 C1256 1.353 . S
C1258 C1261 1.348 . S
C1258 H1306 0.929 . S
C1259 C1260 1.358 . S
C1259 C1261 1.356 . S
C1259 H1307 0.930 . S
C1260 N1257 1.279 . S
C1260 C1259 1.358 . S
C1260 H1263 0.930 . S
C1261 C1258 1.348 . S
C1261 C1259 1.356 . S
H1262 C1256 0.930 . S
H1263 C1260 0.930 . S
C1264 C1266 1.348 . S
C1264 C1267 1.356 . S
C1264 O1294 1.325 . S
N1265 C1268 1.314 . S
N1265 C1269 1.279 . S
C1266 C1264 1.348 . S
C1266 C1268 1.353 . S
C1266 H1308 0.929 . S
C1267 C1264 1.356 . S
C1267 C1269 1.358 . S
C1267 H1309 0.930 . S
C1268 N1265 1.314 . S
C1268 C1266 1.353 . S
C1268 H1310 0.930 . S
C1269 N1265 1.279 . S
C1269 C1267 1.358 . S
C1269 H1311 0.930 . S
C1270 C1271 1.348 . S
C1270 C1272 1.356 . S
C1270 O1295 1.325 . S
C1271 C1270 1.348 . S
C1271 C1273 1.353 . S
C1271 H1312 0.929 . S
C1272 C1270 1.356 . S
C1272 C1274 1.358 . S
C1272 H1313 0.930 . S
C1273 C1271 1.353 . S
C1273 N1275 1.314 . S
C1273 H1314 0.930 . S
C1274 C1272 1.358 . S
C1274 N1275 1.279 . S
C1274 H1315 0.930 . S
N1275 C1273 1.314 . S
N1275 C1274 1.279 . S
C1276 C1278 1.353 . S
C1276 N1279 1.314 . S
C1276 H1282 0.930 . S
C1277 N1279 1.279 . S
C1277 C1280 1.358 . S
C1277 H1283 0.930 . S
C1278 C1276 1.353 . S
C1278 C1281 1.348 . S
C1278 H1316 0.929 . S
N1279 Li1234 1.990 . S
N1279 C1276 1.314 . S
N1279 C1277 1.279 . S
C1280 C1277 1.358 . S
C1280 C1281 1.356 . S
C1280 H1317 0.930 . S
C1281 C1278 1.348 . S
C1281 C1280 1.356 . S
H1282 C1276 0.930 . S
H1283 C1277 0.930 . S
C1284 N1285 1.314 . S
C1284 C1286 1.353 . S
C1284 H1290 0.930 . S
N1285 Li1235 1.990 . S
N1285 C1284 1.314 . S
N1285 C1288 1.279 . S
C1286 C1284 1.353 . S
C1286 C1289 1.348 . S
C1286 H1318 0.929 . S
C1287 C1288 1.358 . S
C1287 C1289 1.356 . S
C1287 H1319 0.930 . S
C1288 N1285 1.279 . S
C1288 C1287 1.358 . S
C1288 H1291 0.930 . S
C1289 C1286 1.348 . S
C1289 C1287 1.356 . S
H1290 C1284 0.930 . S
H1291 C1288 0.930 . S
O1292 Li1232 1.956 . S
O1292 Li1233 1.970 . S
O1292 Li1234 1.961 . S
O1292 C1236 1.325 . S
O1293 Li1232 1.970 . S
O1293 Li1233 1.956 . S
O1293 Li1235 1.961 . S
O1293 C1242 1.325 . S
O1294 Li1232 1.961 . S
O1294 Li1234 1.956 . S
O1294 Li1235 1.970 . S
O1294 C1264 1.325 . S
O1295 Li1233 1.961 . S
O1295 Li1234 1.970 . S
O1295 Li1235 1.956 . S
O1295 C1270 1.325 . S
H1296 C1238 0.929 . S
H1297 C1239 0.930 . S
H1298 C1240 0.930 . S
H1299 C1241 0.930 . S
H1300 C1243 0.930 . S
H1301 C1245 0.929 . S
H1302 C1246 0.930 . S
H1303 C1247 0.930 . S
H1304 C1250 0.930 . S
H1305 C1253 0.929 . S
H1306 C1258 0.929 . S
H1307 C1259 0.930 . S
H1308 C1266 0.929 . S
H1309 C1267 0.930 . S
H1310 C1268 0.930 . S
H1311 C1269 0.930 . S
H1312 C1271 0.929 . S
H1313 C1272 0.930 . S
H1314 C1273 0.930 . S
H1315 C1274 0.930 . S
H1316 C1278 0.929 . S
H1317 C1280 0.930 . S
H1318 C1286 0.929 . S
H1319 C1287 0.930 . S
Li1320 N1337 1.990 . S
Li1320 O1380 1.956 . S
Li1320 O1381 1.970 . S
Li1320 O1382 1.961 . S
Li1321 N1345 1.990 . S
Li1321 O1380 1.970 . S
Li1321 O1381 1.956 . S
Li1321 O1383 1.961 . S
Li1322 N1367 1.990 . S
Li1322 O1380 1.961 . S
Li1322 O1382 1.956 . S
Li1322 O1383 1.970 . S
Li1323 N1373 1.990 . S
Li1323 O1381 1.961 . S
Li1323 O1382 1.970 . S
Li1323 O1383 1.956 . S
C1324 C1326 1.348 . S
C1324 C1327 1.356 . S
C1324 O1380 1.325 . S
N1325 C1328 1.314 . S
N1325 C1329 1.279 . S
C1326 C1324 1.348 . S
C1326 C1328 1.353 . S
C1326 H1384 0.929 . S
C1327 C1324 1.356 . S
C1327 C1329 1.358 . S
C1327 H1385 0.930 . S
C1328 N1325 1.314 . S
C1328 C1326 1.353 . S
C1328 H1386 0.930 . S
C1329 N1325 1.279 . S
C1329 C1327 1.358 . S
C1329 H1387 0.930 . S
C1330 C1333 1.348 . S
C1330 C1334 1.356 . S
C1330 O1381 1.325 . S
C1331 N1332 1.279 . S
C1331 C1334 1.358 . S
C1331 H1388 0.930 . S
N1332 C1331 1.279 . S
N1332 C1335 1.314 . S
C1333 C1330 1.348 . S
C1333 C1335 1.353 . S
C1333 H1389 0.929 . S
C1334 C1330 1.356 . S
C1334 C1331 1.358 . S
C1334 H1390 0.930 . S
C1335 N1332 1.314 . S
C1335 C1333 1.353 . S
C1335 H1391 0.930 . S
C1336 N1337 1.314 . S
C1336 C1341 1.353 . S
C1336 H1342 0.930 . S
N1337 Li1320 1.990 . S
N1337 C1336 1.314 . S
N1337 C1339 1.279 . S
C1338 C1339 1.358 . S
C1338 C1340 1.356 . S
C1338 H1392 0.930 . S
C1339 N1337 1.279 . S
C1339 C1338 1.358 . S
C1339 H1343 0.930 . S
C1340 C1338 1.356 . S
C1340 C1341 1.348 . S
C1341 C1336 1.353 . S
C1341 C1340 1.348 . S
C1341 H1393 0.929 . S
H1342 C1336 0.930 . S
H1343 C1339 0.930 . S
C1344 N1345 1.314 . S
C1344 C1346 1.353 . S
C1344 H1350 0.930 . S
N1345 Li1321 1.990 . S
N1345 C1344 1.314 . S
N1345 C1348 1.279 . S
C1346 C1344 1.353 . S
C1346 C1349 1.348 . S
C1346 H1394 0.929 . S
C1347 C1348 1.358 . S
C1347 C1349 1.356 . S
C1347 H1395 0.930 . S
C1348 N1345 1.279 . S
C1348 C1347 1.358 . S
C1348 H1351 0.930 . S
C1349 C1346 1.348 . S
C1349 C1347 1.356 . S
H1350 C1344 0.930 . S
H1351 C1348 0.930 . S
C1352 C1354 1.348 . S
C1352 C1355 1.356 . S
C1352 O1382 1.325 . S
N1353 C1356 1.314 . S
N1353 C1357 1.279 . S
C1354 C1352 1.348 . S
C1354 C1356 1.353 . S
C1354 H1396 0.929 . S
C1355 C1352 1.356 . S
C1355 C1357 1.358 . S
C1355 H1397 0.930 . S
C1356 N1353 1.314 . S
C1356 C1354 1.353 . S
C1356 H1398 0.930 . S
C1357 N1353 1.279 . S
C1357 C1355 1.358 . S
C1357 H1399 0.930 . S
C1358 C1359 1.348 . S
C1358 C1360 1.356 . S
C1358 O1383 1.325 . S
C1359 C1358 1.348 . S
C1359 C1361 1.353 . S
C1359 H1400 0.929 . S
C1360 C1358 1.356 . S
C1360 C1362 1.358 . S
C1360 H1401 0.930 . S
C1361 C1359 1.353 . S
C1361 N1363 1.314 . S
C1361 H1402 0.930 . S
C1362 C1360 1.358 . S
C1362 N1363 1.279 . S
C1362 H1403 0.930 . S
N1363 C1361 1.314 . S
N1363 C1362 1.279 . S
C1364 C1366 1.353 . S
C1364 N1367 1.314 . S
C1364 H1370 0.930 . S
C1365 N1367 1.279 . S
C1365 C1368 1.358 . S
C1365 H1371 0.930 . S
C1366 C1364 1.353 . S
C1366 C1369 1.348 . S
C1366 H1404 0.929 . S
N1367 Li1322 1.990 . S
N1367 C1364 1.314 . S
N1367 C1365 1.279 . S
C1368 C1365 1.358 . S
C1368 C1369 1.356 . S
C1368 H1405 0.930 . S
C1369 C1366 1.348 . S
C1369 C1368 1.356 . S
H1370 C1364 0.930 . S
H1371 C1365 0.930 . S
C1372 N1373 1.314 . S
C1372 C1374 1.353 . S
C1372 H1378 0.930 . S
N1373 Li1323 1.990 . S
N1373 C1372 1.314 . S
N1373 C1376 1.279 . S
C1374 C1372 1.353 . S
C1374 C1377 1.348 . S
C1374 H1406 0.929 . S
C1375 C1376 1.358 . S
C1375 C1377 1.356 . S
C1375 H1407 0.930 . S
C1376 N1373 1.279 . S
C1376 C1375 1.358 . S
C1376 H1379 0.930 . S
C1377 C1374 1.348 . S
C1377 C1375 1.356 . S
H1378 C1372 0.930 . S
H1379 C1376 0.930 . S
O1380 Li1320 1.956 . S
O1380 Li1321 1.970 . S
O1380 Li1322 1.961 . S
O1380 C1324 1.325 . S
O1381 Li1320 1.970 . S
O1381 Li1321 1.956 . S
O1381 Li1323 1.961 . S
O1381 C1330 1.325 . S
O1382 Li1320 1.961 . S
O1382 Li1322 1.956 . S
O1382 Li1323 1.970 . S
O1382 C1352 1.325 . S
O1383 Li1321 1.961 . S
O1383 Li1322 1.970 . S
O1383 Li1323 1.956 . S
O1383 C1358 1.325 . S
H1384 C1326 0.929 . S
H1385 C1327 0.930 . S
H1386 C1328 0.930 . S
H1387 C1329 0.930 . S
H1388 C1331 0.930 . S
H1389 C1333 0.929 . S
H1390 C1334 0.930 . S
H1391 C1335 0.930 . S
H1392 C1338 0.930 . S
H1393 C1341 0.929 . S
H1394 C1346 0.929 . S
H1395 C1347 0.930 . S
H1396 C1354 0.929 . S
H1397 C1355 0.930 . S
H1398 C1356 0.930 . S
H1399 C1357 0.930 . S
H1400 C1359 0.929 . S
H1401 C1360 0.930 . S
H1402 C1361 0.930 . S
H1403 C1362 0.930 . S
H1404 C1366 0.929 . S
H1405 C1368 0.930 . S
H1406 C1374 0.929 . S
H1407 C1375 0.930 . S
C1408 C1409 1.349 . S
C1408 C1410 1.327 . S
C1408 H1433 0.950 . S
C1409 C1408 1.349 . S
C1409 C1425 1.349 . S
C1410 C1408 1.327 . S
C1410 C1429 1.429 . S
C1410 H1434 0.950 . S
C1411 C1428 1.574 . S
C1411 C1430 1.368 . S
C1411 H1435 0.949 . S
H1412 C1416 0.949 . S
C1413 C1414 1.349 . S
C1413 C1415 1.327 . S
C1413 H1436 0.950 . S
C1414 C1413 1.349 . S
C1414 C1426 1.349 . S
C1415 C1413 1.327 . S
C1415 C1431 1.429 . S
C1415 H1437 0.950 . S
C1416 H1412 0.949 . S
C1416 C1424 1.574 . S
C1416 C1432 1.368 . S
H1417 C1425 0.950 . S
H1418 C1423 0.950 . S
H1419 C1424 0.949 . S
H1420 C1426 0.950 . S
H1421 C1427 0.950 . S
H1422 C1428 0.949 . S
C1423 H1418 0.950 . S
C1423 C1425 1.327 . S
C1423 C1429 1.429 . S
C1424 C1416 1.574 . S
C1424 H1419 0.949 . S
C1424 C1430 1.368 . S
C1425 C1409 1.349 . S
C1425 H1417 0.950 . S
C1425 C1423 1.327 . S
C1426 C1414 1.349 . S
C1426 H1420 0.950 . S
C1426 C1427 1.327 . S
C1427 H1421 0.950 . S
C1427 C1426 1.327 . S
C1427 C1431 1.429 . S
C1428 C1411 1.574 . S
C1428 H1422 0.949 . S
C1428 C1432 1.368 . S
C1429 C1410 1.429 . S
C1429 C1423 1.429 . S
C1429 C1430 1.523 . S
C1430 C1411 1.368 . S
C1430 C1424 1.368 . S
C1430 C1429 1.523 . S
C1431 C1415 1.429 . S
C1431 C1427 1.429 . S
C1431 C1432 1.523 . S
C1432 C1416 1.368 . S
C1432 C1428 1.368 . S
C1432 C1431 1.523 . S
H1433 C1408 0.950 . S
H1434 C1410 0.950 . S
H1435 C1411 0.949 . S
H1436 C1413 0.950 . S
H1437 C1415 0.950 . S
C1438 C1439 1.349 . S
C1438 C1440 1.327 . S
C1438 H1463 0.950 . S
C1439 C1438 1.349 . S
C1439 C1455 1.349 . S
C1440 C1438 1.327 . S
C1440 C1459 1.429 . S
C1440 H1464 0.950 . S
C1441 C1458 1.574 1_565 S
C1441 C1460 1.368 1_455 S
C1441 H1465 0.949 . S
H1442 C1446 0.949 . S
C1443 C1444 1.349 . S
C1443 C1445 1.327 . S
C1443 H1466 0.950 . S
C1444 C1443 1.349 . S
C1444 C1456 1.349 . S
C1445 C1443 1.327 . S
C1445 C1461 1.429 . S
C1445 H1467 0.950 . S
C1446 H1442 0.949 . S
C1446 C1454 1.574 1_545 S
C1446 C1462 1.368 1_655 S
H1447 C1455 0.950 . S
H1448 C1453 0.950 . S
H1449 C1454 0.949 . S
H1450 C1456 0.950 . S
H1451 C1457 0.950 . S
H1452 C1458 0.949 . S
C1453 H1448 0.950 . S
C1453 C1455 1.327 . S
C1453 C1459 1.429 . S
C1454 C1446 1.574 1_565 S
C1454 H1449 0.949 . S
C1454 C1460 1.368 . S
C1455 C1439 1.349 . S
C1455 H1447 0.950 . S
C1455 C1453 1.327 . S
C1456 C1444 1.349 . S
C1456 H1450 0.950 . S
C1456 C1457 1.327 . S
C1457 H1451 0.950 . S
C1457 C1456 1.327 . S
C1457 C1461 1.429 . S
C1458 C1441 1.574 1_545 S
C1458 H1452 0.949 . S
C1458 C1462 1.368 . S
C1459 C1440 1.429 . S
C1459 C1453 1.429 . S
C1459 C1460 1.523 . S
C1460 C1441 1.368 1_655 S
C1460 C1454 1.368 . S
C1460 C1459 1.523 . S
C1461 C1445 1.429 . S
C1461 C1457 1.429 . S
C1461 C1462 1.523 . S
C1462 C1446 1.368 1_455 S
C1462 C1458 1.368 . S
C1462 C1461 1.523 . S
H1463 C1438 0.950 . S
H1464 C1440 0.950 . S
H1465 C1441 0.949 . S
H1466 C1443 0.950 . S
H1467 C1445 0.950 . S
C1468 C1469 1.349 . S
C1468 C1470 1.327 . S
C1468 H1493 0.950 . S
C1469 C1468 1.349 . S
C1469 C1485 1.349 . S
C1470 C1468 1.327 . S
C1470 C1489 1.429 . S
C1470 H1494 0.950 . S
C1471 C1488 1.574 . S
C1471 C1490 1.368 1_545 S
C1471 H1495 0.949 . S
H1472 C1476 0.949 . S
C1473 C1474 1.349 . S
C1473 C1475 1.327 . S
C1473 H1496 0.950 . S
C1474 C1473 1.349 . S
C1474 C1486 1.349 . S
C1475 C1473 1.327 . S
C1475 C1491 1.429 . S
C1475 H1497 0.950 . S
C1476 H1472 0.949 . S
C1476 C1484 1.574 . S
C1476 C1492 1.368 1_565 S
H1477 C1485 0.950 . S
H1478 C1483 0.950 . S
H1479 C1484 0.949 . S
H1480 C1486 0.950 . S
H1481 C1487 0.950 . S
H1482 C1488 0.949 . S
C1483 H1478 0.950 . S
C1483 C1485 1.327 . S
C1483 C1489 1.429 . S
C1484 C1476 1.574 . S
C1484 H1479 0.949 . S
C1484 C1490 1.368 . S
C1485 C1469 1.349 . S
C1485 H1477 0.950 . S
C1485 C1483 1.327 . S
C1486 C1474 1.349 . S
C1486 H1480 0.950 . S
C1486 C1487 1.327 . S
C1487 H1481 0.950 . S
C1487 C1486 1.327 . S
C1487 C1491 1.429 . S
C1488 C1471 1.574 . S
C1488 H1482 0.949 . S
C1488 C1492 1.368 . S
C1489 C1470 1.429 . S
C1489 C1483 1.429 . S
C1489 C1490 1.523 . S
C1490 C1471 1.368 1_565 S
C1490 C1484 1.368 . S
C1490 C1489 1.523 . S
C1491 C1475 1.429 . S
C1491 C1487 1.429 . S
C1491 C1492 1.523 . S
C1492 C1476 1.368 1_545 S
C1492 C1488 1.368 . S
C1492 C1491 1.523 . S
H1493 C1468 0.950 . S
H1494 C1470 0.950 . S
H1495 C1471 0.949 . S
H1496 C1473 0.950 . S
H1497 C1475 0.950 . S
C1498 C1499 1.349 . S
C1498 C1500 1.327 . S
C1498 H1523 0.950 . S
C1499 C1498 1.349 . S
C1499 C1515 1.349 . S
C1500 C1498 1.327 . S
C1500 C1519 1.429 . S
C1500 H1524 0.950 . S
C1501 C1518 1.574 . S
C1501 C1520 1.368 . S
C1501 H1525 0.949 . S
H1502 C1506 0.949 . S
C1503 C1504 1.349 . S
C1503 C1505 1.327 . S
C1503 H1526 0.950 . S
C1504 C1503 1.349 . S
C1504 C1516 1.349 . S
C1505 C1503 1.327 . S
C1505 C1521 1.429 . S
C1505 H1527 0.950 . S
C1506 H1502 0.949 . S
C1506 C1514 1.574 . S
C1506 C1522 1.368 . S
H1507 C1515 0.950 . S
H1508 C1513 0.950 . S
H1509 C1514 0.949 . S
H1510 C1516 0.950 . S
H1511 C1517 0.950 . S
H1512 C1518 0.949 . S
C1513 H1508 0.950 . S
C1513 C1515 1.327 . S
C1513 C1519 1.429 . S
C1514 C1506 1.574 . S
C1514 H1509 0.949 . S
C1514 C1520 1.368 1_655 S
C1515 C1499 1.349 . S
C1515 H1507 0.950 . S
C1515 C1513 1.327 . S
C1516 C1504 1.349 . S
C1516 H1510 0.950 . S
C1516 C1517 1.327 . S
C1517 H1511 0.950 . S
C1517 C1516 1.327 . S
C1517 C1521 1.429 . S
C1518 C1501 1.574 . S
C1518 H1512 0.949 . S
C1518 C1522 1.368 1_455 S
C1519 C1500 1.429 . S
C1519 C1513 1.429 . S
C1519 C1520 1.523 . S
C1520 C1501 1.368 . S
C1520 C1514 1.368 1_455 S
C1520 C1519 1.523 . S
C1521 C1505 1.429 . S
C1521 C1517 1.429 . S
C1521 C1522 1.523 . S
C1522 C1506 1.368 . S
C1522 C1518 1.368 1_655 S
C1522 C1521 1.523 . S
H1523 C1498 0.950 . S
H1524 C1500 0.950 . S
H1525 C1501 0.949 . S
H1526 C1503 0.950 . S
H1527 C1505 0.950 . S
C1528 C1529 1.349 . S
C1528 C1530 1.327 . S
C1528 H1553 0.950 . S
C1529 C1528 1.349 . S
C1529 C1545 1.349 . S
C1530 C1528 1.327 . S
C1530 C1549 1.429 . S
C1530 H1554 0.950 . S
C1531 C1548 1.574 . S
C1531 C1550 1.368 . S
C1531 H1555 0.949 . S
H1532 C1536 0.949 . S
C1533 C1534 1.349 . S
C1533 C1535 1.327 . S
C1533 H1556 0.950 . S
C1534 C1533 1.349 . S
C1534 C1546 1.349 . S
C1535 C1533 1.327 . S
C1535 C1551 1.429 . S
C1535 H1557 0.950 . S
C1536 H1532 0.949 . S
C1536 C1544 1.574 . S
C1536 C1552 1.368 . S
H1537 C1545 0.950 . S
H1538 C1543 0.950 . S
H1539 C1544 0.949 . S
H1540 C1546 0.950 . S
H1541 C1547 0.950 . S
H1542 C1548 0.949 . S
C1543 H1538 0.950 . S
C1543 C1545 1.327 . S
C1543 C1549 1.429 . S
C1544 C1536 1.574 . S
C1544 H1539 0.949 . S
C1544 C1550 1.368 . S
C1545 C1529 1.349 . S
C1545 H1537 0.950 . S
C1545 C1543 1.327 . S
C1546 C1534 1.349 . S
C1546 H1540 0.950 . S
C1546 C1547 1.327 . S
C1547 H1541 0.950 . S
C1547 C1546 1.327 . S
C1547 C1551 1.429 . S
C1548 C1531 1.574 . S
C1548 H1542 0.949 . S
C1548 C1552 1.368 . S
C1549 C1530 1.429 . S
C1549 C1543 1.429 . S
C1549 C1550 1.523 . S
C1550 C1531 1.368 . S
C1550 C1544 1.368 . S
C1550 C1549 1.523 . S
C1551 C1535 1.429 . S
C1551 C1547 1.429 . S
C1551 C1552 1.523 . S
C1552 C1536 1.368 . S
C1552 C1548 1.368 . S
C1552 C1551 1.523 . S
H1553 C1528 0.950 . S
H1554 C1530 0.950 . S
H1555 C1531 0.949 . S
H1556 C1533 0.950 . S
H1557 C1535 0.950 . S
C1558 C1559 1.349 . S
C1558 C1560 1.327 . S
C1558 H1583 0.950 . S
C1559 C1558 1.349 . S
C1559 C1575 1.349 . S
C1560 C1558 1.327 . S
C1560 C1579 1.429 . S
C1560 H1584 0.950 1_545 S
C1561 C1578 1.574 . S
C1561 C1580 1.368 . S
C1561 H1585 0.949 . S
H1562 C1566 0.949 . S
C1563 C1564 1.349 . S
C1563 C1565 1.327 . S
C1563 H1586 0.950 . S
C1564 C1563 1.349 . S
C1564 C1576 1.349 . S
C1565 C1563 1.327 . S
C1565 C1581 1.429 . S
C1565 H1587 0.950 1_565 S
C1566 H1562 0.949 . S
C1566 C1574 1.574 . S
C1566 C1582 1.368 . S
H1567 C1575 0.950 . S
H1568 C1573 0.950 . S
H1569 C1574 0.949 . S
H1570 C1576 0.950 . S
H1571 C1577 0.950 . S
H1572 C1578 0.949 . S
C1573 H1568 0.950 . S
C1573 C1575 1.327 . S
C1573 C1579 1.429 . S
C1574 C1566 1.574 . S
C1574 H1569 0.949 . S
C1574 C1580 1.368 1_565 S
C1575 C1559 1.349 . S
C1575 H1567 0.950 . S
C1575 C1573 1.327 . S
C1576 C1564 1.349 . S
C1576 H1570 0.950 . S
C1576 C1577 1.327 . S
C1577 H1571 0.950 . S
C1577 C1576 1.327 . S
C1577 C1581 1.429 . S
C1578 C1561 1.574 . S
C1578 H1572 0.949 . S
C1578 C1582 1.368 1_545 S
C1579 C1560 1.429 . S
C1579 C1573 1.429 . S
C1579 C1580 1.523 . S
C1580 C1561 1.368 . S
C1580 C1574 1.368 1_545 S
C1580 C1579 1.523 . S
C1581 C1565 1.429 . S
C1581 C1577 1.429 . S
C1581 C1582 1.523 . S
C1582 C1566 1.368 . S
C1582 C1578 1.368 1_565 S
C1582 C1581 1.523 . S
H1583 C1558 0.950 . S
H1584 C1560 0.950 1_565 S
H1585 C1561 0.949 . S
H1586 C1563 0.950 . S
H1587 C1565 0.950 1_545 S
C1588 C1589 1.349 . S
C1588 C1590 1.327 . S
C1588 H1613 0.950 . S
C1589 C1588 1.349 . S
C1589 C1605 1.349 . S
C1590 C1588 1.327 . S
C1590 C1609 1.429 . S
C1590 H1614 0.950 . S
C1591 C1608 1.574 1_655 S
C1591 C1610 1.368 . S
C1591 H1615 0.949 . S
H1592 C1596 0.956 . S
C1593 C1594 1.349 . S
C1593 C1595 1.327 . S
C1593 H1616 0.950 . S
C1594 C1593 1.349 . S
C1594 C1606 1.349 . S
C1595 C1593 1.327 . S
C1595 C1611 1.429 . S
C1595 H1617 0.950 . S
C1596 H1592 0.956 . S
C1596 C1604 1.530 1_455 S
C1596 C1612 1.409 . S
H1597 C1605 0.950 . S
H1598 C1603 0.950 . S
H1599 C1604 0.949 . S
H1600 C1606 0.950 . S
H1601 C1607 0.950 . S
H1602 C1608 0.949 . S
C1603 H1598 0.950 . S
C1603 C1605 1.327 . S
C1603 C1609 1.429 . S
C1604 C1596 1.530 1_655 S
C1604 H1599 0.949 . S
C1604 C1610 1.368 . S
C1605 C1589 1.349 . S
C1605 H1597 0.950 . S
C1605 C1603 1.327 . S
C1606 C1594 1.349 . S
C1606 H1600 0.950 . S
C1606 C1607 1.327 . S
C1607 H1601 0.950 . S
C1607 C1606 1.327 . S
C1607 C1611 1.429 . S
C1608 C1591 1.574 1_455 S
C1608 H1602 0.949 . S
C1608 C1612 1.368 . S
C1609 C1590 1.429 . S
C1609 C1603 1.429 . S
C1609 C1610 1.523 . S
C1610 C1591 1.368 . S
C1610 C1604 1.368 . S
C1610 C1609 1.523 . S
C1611 C1595 1.429 . S
C1611 C1607 1.429 . S
C1611 C1612 1.523 . S
C1612 C1596 1.409 . S
C1612 C1608 1.368 . S
C1612 C1611 1.523 . S
H1613 C1588 0.950 . S
H1614 C1590 0.950 . S
H1615 C1591 0.949 . S
H1616 C1593 0.950 . S
H1617 C1595 0.950 . S
C1618 C1619 1.349 . S
C1618 C1620 1.327 . S
C1618 H1643 0.950 . S
C1619 C1618 1.349 . S
C1619 C1635 1.349 . S
C1620 C1618 1.327 . S
C1620 C1639 1.429 . S
C1620 H1644 0.950 . S
C1621 C1638 1.574 . S
C1621 C1640 1.368 1_556 S
C1621 H1645 0.949 . S
H1622 C1626 0.949 . S
C1623 C1624 1.349 . S
C1623 C1625 1.327 . S
C1623 H1646 0.950 . S
C1624 C1623 1.349 . S
C1624 C1636 1.349 . S
C1625 C1623 1.327 . S
C1625 C1641 1.429 . S
C1625 H1647 0.950 . S
C1626 H1622 0.949 . S
C1626 C1634 1.574 . S
C1626 C1642 1.368 1_554 S
H1627 C1635 0.950 . S
H1628 C1633 0.845 1_556 S
H1629 C1634 0.949 . S
H1630 C1636 0.950 . S
H1631 C1637 1.050 . S
H1632 C1638 0.949 . S
C1633 H1628 0.845 1_554 S
C1633 C1635 1.327 . S
C1633 C1639 1.429 . S
C1634 C1626 1.574 . S
C1634 H1629 0.949 . S
C1634 C1640 1.368 . S
C1635 C1619 1.349 . S
C1635 H1627 0.950 . S
C1635 C1633 1.327 . S
C1636 C1624 1.349 . S
C1636 H1630 0.950 . S
C1636 C1637 1.327 . S
C1637 H1631 1.050 . S
C1637 C1636 1.327 . S
C1637 C1641 1.429 . S
C1638 C1621 1.574 . S
C1638 H1632 0.949 . S
C1638 C1642 1.368 . S
C1639 C1620 1.429 . S
C1639 C1633 1.429 . S
C1639 C1640 1.523 . S
C1640 C1621 1.368 1_554 S
C1640 C1634 1.368 . S
C1640 C1639 1.523 . S
C1641 C1625 1.429 . S
C1641 C1637 1.429 . S
C1641 C1642 1.523 . S
C1642 C1626 1.368 1_556 S
C1642 C1638 1.368 . S
C1642 C1641 1.523 . S
H1643 C1618 0.950 . S
H1644 C1620 0.950 . S
H1645 C1621 0.949 . S
H1646 C1623 0.950 . S
H1647 C1625 0.950 . S
C1648 C1649 1.349 . S
C1648 C1650 1.327 . S
C1648 H1673 0.950 . S
C1649 C1648 1.349 . S
C1649 C1665 1.349 . S
C1650 C1648 1.327 . S
C1650 C1669 1.429 . S
C1650 H1674 0.950 . S
C1651 C1668 1.574 1_455 S
C1651 C1670 1.368 1_554 S
C1651 H1675 0.949 . S
H1652 C1656 0.949 . S
C1653 C1654 1.349 . S
C1653 C1655 1.327 . S
C1653 H1676 0.950 . S
C1654 C1653 1.349 . S
C1654 C1666 1.349 . S
C1655 C1653 1.327 . S
C1655 C1671 1.429 . S
C1655 H1677 0.950 . S
C1656 H1652 0.949 . S
C1656 C1664 1.574 1_655 S
C1656 C1672 1.368 1_556 S
H1657 C1665 0.950 . S
H1658 C1663 0.950 . S
H1659 C1664 0.949 . S
H1660 C1666 0.950 . S
H1661 C1667 0.915 1_556 S
H1662 C1668 0.949 . S
C1663 H1658 0.950 . S
C1663 C1665 1.327 . S
C1663 C1669 1.429 . S
C1664 C1656 1.574 1_455 S
C1664 H1659 0.949 . S
C1664 C1670 1.368 . S
C1665 C1649 1.349 . S
C1665 H1657 0.950 . S
C1665 C1663 1.327 . S
C1666 C1654 1.349 . S
C1666 H1660 0.950 . S
C1666 C1667 1.327 . S
C1667 H1661 0.915 1_554 S
C1667 C1666 1.327 . S
C1667 C1671 1.429 . S
C1668 C1651 1.574 1_655 S
C1668 H1662 0.949 . S
C1668 C1672 1.368 . S
C1669 C1650 1.429 . S
C1669 C1663 1.429 . S
C1669 C1670 1.523 . S
C1670 C1651 1.368 1_556 S
C1670 C1664 1.368 . S
C1670 C1669 1.523 . S
C1671 C1655 1.429 . S
C1671 C1667 1.429 . S
C1671 C1672 1.523 . S
C1672 C1656 1.368 1_554 S
C1672 C1668 1.368 . S
C1672 C1671 1.523 . S
H1673 C1648 0.950 . S
H1674 C1650 0.950 . S
H1675 C1651 0.949 . S
H1676 C1653 0.950 . S
H1677 C1655 0.950 . S
C1678 C1679 1.349 . S
C1678 C1680 1.327 . S
C1678 H1703 0.950 . S
C1679 C1678 1.349 . S
C1679 C1695 1.349 . S
C1680 C1678 1.327 . S
C1680 C1699 1.429 . S
C1680 H1704 0.950 . S
C1681 C1698 1.574 . S
C1681 C1700 1.368 . S
C1681 H1705 0.949 . S
H1682 C1686 0.949 . S
C1683 C1684 1.349 . S
C1683 C1685 1.327 . S
C1683 H1706 0.950 . S
C1684 C1683 1.349 . S
C1684 C1696 1.349 . S
C1685 C1683 1.327 . S
C1685 C1701 1.429 . S
C1685 H1707 0.950 . S
C1686 H1682 0.949 . S
C1686 C1694 1.574 . S
C1686 C1702 1.368 . S
H1687 C1695 0.950 . S
H1688 C1693 0.950 . S
H1689 C1694 0.949 . S
H1690 C1696 0.950 . S
H1691 C1697 0.950 . S
H1692 C1698 0.949 . S
C1693 H1688 0.950 . S
C1693 C1695 1.327 . S
C1693 C1699 1.429 . S
C1694 C1686 1.574 . S
C1694 H1689 0.949 . S
C1694 C1700 1.368 . S
C1695 C1679 1.349 . S
C1695 H1687 0.950 . S
C1695 C1693 1.327 . S
C1696 C1684 1.349 . S
C1696 H1690 0.950 . S
C1696 C1697 1.327 . S
C1697 H1691 0.950 . S
C1697 C1696 1.327 . S
C1697 C1701 1.429 . S
C1698 C1681 1.574 . S
C1698 H1692 0.949 . S
C1698 C1702 1.368 . S
C1699 C1680 1.429 . S
C1699 C1693 1.429 . S
C1699 C1700 1.523 . S
C1700 C1681 1.368 . S
C1700 C1694 1.368 . S
C1700 C1699 1.523 . S
C1701 C1685 1.429 . S
C1701 C1697 1.429 . S
C1701 C1702 1.523 . S
C1702 C1686 1.368 . S
C1702 C1698 1.368 . S
C1702 C1701 1.523 . S
H1703 C1678 0.950 . S
H1704 C1680 0.950 . S
H1705 C1681 0.949 . S
H1706 C1683 0.950 . S
H1707 C1685 0.950 . S
C1708 C1709 1.349 . S
C1708 C1710 1.327 . S
C1708 H1733 0.950 . S
C1709 C1708 1.349 . S
C1709 C1725 1.349 . S
C1710 C1708 1.327 . S
C1710 C1729 1.429 . S
C1710 H1734 0.950 . S
C1711 C1728 1.574 . S
C1711 C1730 1.368 . S
C1711 H1735 0.949 . S
H1712 C1716 0.949 . S
C1713 C1714 1.349 . S
C1713 C1715 1.327 . S
C1713 H1736 0.950 . S
C1714 C1713 1.349 . S
C1714 C1726 1.349 . S
C1715 C1713 1.327 . S
C1715 C1731 1.429 . S
C1715 H1737 0.950 . S
C1716 H1712 0.949 . S
C1716 C1724 1.574 . S
C1716 C1732 1.368 . S
H1717 C1725 0.950 . S
H1718 C1723 0.950 . S
H1719 C1724 0.949 . S
H1720 C1726 0.950 . S
H1721 C1727 0.950 . S
H1722 C1728 0.949 . S
C1723 H1718 0.950 . S
C1723 C1725 1.327 . S
C1723 C1729 1.429 . S
C1724 C1716 1.574 . S
C1724 H1719 0.949 . S
C1724 C1730 1.368 1_554 S
C1725 C1709 1.349 . S
C1725 H1717 0.950 . S
C1725 C1723 1.327 . S
C1726 C1714 1.349 . S
C1726 H1720 0.950 . S
C1726 C1727 1.327 . S
C1727 H1721 0.950 . S
C1727 C1726 1.327 . S
C1727 C1731 1.429 . S
C1728 C1711 1.574 . S
C1728 H1722 0.949 . S
C1728 C1732 1.368 1_556 S
C1729 C1710 1.429 . S
C1729 C1723 1.429 . S
C1729 C1730 1.523 . S
C1730 C1711 1.368 . S
C1730 C1724 1.368 1_556 S
C1730 C1729 1.523 . S
C1731 C1715 1.429 . S
C1731 C1727 1.429 . S
C1731 C1732 1.523 . S
C1732 C1716 1.368 . S
C1732 C1728 1.368 1_554 S
C1732 C1731 1.523 . S
H1733 C1708 0.950 . S
H1734 C1710 0.950 . S
H1735 C1711 0.949 . S
H1736 C1713 0.950 . S
H1737 C1715 0.950 . S
C1738 C1739 1.349 . S
C1738 C1740 1.327 . S
C1738 H1763 0.950 . S
C1739 C1738 1.349 . S
C1739 C1755 1.349 . S
C1740 C1738 1.327 . S
C1740 C1759 1.429 . S
C1740 H1764 0.950 . S
C1741 C1758 1.574 . S
C1741 C1760 1.368 . S
C1741 H1765 0.949 . S
H1742 C1746 0.949 . S
C1743 C1744 1.349 . S
C1743 C1745 1.327 . S
C1743 H1766 0.950 . S
C1744 C1743 1.349 . S
C1744 C1756 1.349 . S
C1745 C1743 1.327 . S
C1745 C1761 1.429 . S
C1745 H1767 0.950 . S
C1746 H1742 0.949 . S
C1746 C1754 1.574 . S
C1746 C1762 1.368 . S
H1747 C1755 0.950 . S
H1748 C1753 0.950 . S
H1749 C1754 0.949 . S
H1750 C1756 0.950 . S
H1751 C1757 0.950 . S
H1752 C1758 0.949 . S
C1753 H1748 0.950 . S
C1753 C1755 1.327 . S
C1753 C1759 1.429 . S
C1754 C1746 1.574 . S
C1754 H1749 0.949 . S
C1754 C1760 1.368 . S
C1755 C1739 1.349 . S
C1755 H1747 0.950 . S
C1755 C1753 1.327 . S
C1756 C1744 1.349 . S
C1756 H1750 0.950 . S
C1756 C1757 1.327 . S
C1757 H1751 0.950 . S
C1757 C1756 1.327 . S
C1757 C1761 1.429 . S
C1758 C1741 1.574 . S
C1758 H1752 0.949 . S
C1758 C1762 1.368 . S
C1759 C1740 1.429 . S
C1759 C1753 1.429 . S
C1759 C1760 1.523 . S
C1760 C1741 1.368 . S
C1760 C1754 1.368 . S
C1760 C1759 1.523 . S
C1761 C1745 1.429 . S
C1761 C1757 1.429 . S
C1761 C1762 1.523 . S
C1762 C1746 1.368 . S
C1762 C1758 1.368 . S
C1762 C1761 1.523 . S
H1763 C1738 0.950 . S
H1764 C1740 0.950 . S
H1765 C1741 0.949 . S
H1766 C1743 0.950 . S
H1767 C1745 0.950 . S
C1768 C1769 1.349 . S
C1768 C1770 1.327 . S
C1768 H1793 0.950 . S
C1769 C1768 1.349 . S
C1769 C1785 1.349 . S
C1770 C1768 1.327 . S
C1770 C1789 1.429 . S
C1770 H1794 0.950 . S
C1771 C1788 1.574 . S
C1771 C1790 1.368 1_554 S
C1771 H1795 0.949 . S
H1772 C1776 0.949 . S
C1773 C1774 1.349 . S
C1773 C1775 1.327 . S
C1773 H1796 0.950 . S
C1774 C1773 1.349 . S
C1774 C1786 1.349 . S
C1775 C1773 1.327 . S
C1775 C1791 1.429 . S
C1775 H1797 0.950 . S
C1776 H1772 0.949 . S
C1776 C1784 1.574 . S
C1776 C1792 1.368 1_556 S
H1777 C1785 0.950 . S
H1778 C1783 0.950 . S
H1779 C1784 0.949 . S
H1780 C1786 0.950 . S
H1781 C1787 0.894 1_556 S
H1782 C1788 0.949 . S
C1783 H1778 0.950 . S
C1783 C1785 1.327 . S
C1783 C1789 1.429 . S
C1784 C1776 1.574 . S
C1784 H1779 0.949 . S
C1784 C1790 1.368 1_565 S
C1785 C1769 1.349 . S
C1785 H1777 0.950 . S
C1785 C1783 1.327 . S
C1786 C1774 1.349 . S
C1786 H1780 0.950 . S
C1786 C1787 1.327 . S
C1787 H1781 0.894 1_554 S
C1787 C1786 1.327 . S
C1787 C1791 1.429 . S
C1788 C1771 1.574 . S
C1788 H1782 0.949 . S
C1788 C1792 1.368 1_545 S
C1789 C1770 1.429 . S
C1789 C1783 1.429 . S
C1789 C1790 1.523 . S
C1790 C1771 1.368 1_556 S
C1790 C1784 1.368 1_545 S
C1790 C1789 1.523 . S
C1791 C1775 1.429 . S
C1791 C1787 1.429 . S
C1791 C1792 1.523 . S
C1792 C1776 1.368 1_554 S
C1792 C1788 1.368 1_565 S
C1792 C1791 1.523 . S
H1793 C1768 0.950 . S
H1794 C1770 0.950 . S
H1795 C1771 0.949 . S
H1796 C1773 0.950 . S
H1797 C1775 0.950 . S
C1798 C1799 1.349 . S
C1798 C1800 1.327 . S
C1798 H1823 0.950 . S
C1799 C1798 1.349 . S
C1799 C1815 1.349 . S
C1800 C1798 1.327 . S
C1800 C1819 1.429 . S
C1800 H1824 0.950 . S
C1801 C1818 1.574 . S
C1801 C1820 1.368 . S
C1801 H1825 0.949 . S
H1802 C1806 0.949 . S
C1803 C1804 1.349 . S
C1803 C1805 1.327 . S
C1803 H1826 0.950 . S
C1804 C1803 1.349 . S
C1804 C1816 1.349 . S
C1805 C1803 1.327 . S
C1805 C1821 1.429 . S
C1805 H1827 0.950 . S
C1806 H1802 0.949 . S
C1806 C1814 1.574 . S
C1806 C1822 1.368 . S
H1807 C1815 0.950 . S
H1808 C1813 0.950 . S
H1809 C1814 0.949 . S
H1810 C1816 0.950 . S
H1811 C1817 0.950 . S
H1812 C1818 0.949 . S
C1813 H1808 0.950 . S
C1813 C1815 1.327 . S
C1813 C1819 1.429 . S
C1814 C1806 1.574 . S
C1814 H1809 0.949 . S
C1814 C1820 1.368 . S
C1815 C1799 1.349 . S
C1815 H1807 0.950 . S
C1815 C1813 1.327 . S
C1816 C1804 1.349 . S
C1816 H1810 0.950 . S
C1816 C1817 1.327 . S
C1817 H1811 0.950 . S
C1817 C1816 1.327 . S
C1817 C1821 1.429 . S
C1818 C1801 1.574 . S
C1818 H1812 0.949 . S
C1818 C1822 1.368 . S
C1819 C1800 1.429 . S
C1819 C1813 1.429 . S
C1819 C1820 1.523 . S
C1820 C1801 1.368 . S
C1820 C1814 1.368 . S
C1820 C1819 1.523 . S
C1821 C1805 1.429 . S
C1821 C1817 1.429 . S
C1821 C1822 1.523 . S
C1822 C1806 1.368 . S
C1822 C1818 1.368 . S
C1822 C1821 1.523 . S
H1823 C1798 0.950 . S
H1824 C1800 0.950 . S
H1825 C1801 0.949 . S
H1826 C1803 0.950 . S
H1827 C1805 0.950 . S
C1828 C1829 1.349 . S
C1828 C1830 1.327 . S
C1828 H1853 0.950 . S
C1829 C1828 1.349 . S
C1829 C1845 1.349 . S
C1830 C1828 1.327 . S
C1830 C1849 1.429 . S
C1830 H1854 0.950 . S
C1831 C1848 1.574 . S
C1831 C1850 1.368 . S
C1831 H1855 0.949 . S
H1832 C1836 0.949 . S
C1833 C1834 1.349 . S
C1833 C1835 1.327 . S
C1833 H1856 0.950 . S
C1834 C1833 1.349 . S
C1834 C1846 1.349 . S
C1835 C1833 1.327 . S
C1835 C1851 1.429 . S
C1835 H1857 0.950 . S
C1836 H1832 0.949 . S
C1836 C1844 1.574 . S
C1836 C1852 1.368 . S
H1837 C1845 0.950 . S
H1838 C1843 0.950 . S
H1839 C1844 0.949 . S
H1840 C1846 0.950 . S
H1841 C1847 0.950 . S
H1842 C1848 0.949 . S
C1843 H1838 0.950 . S
C1843 C1845 1.327 . S
C1843 C1849 1.429 . S
C1844 C1836 1.574 . S
C1844 H1839 0.949 . S
C1844 C1850 1.368 . S
C1845 C1829 1.349 . S
C1845 H1837 0.950 . S
C1845 C1843 1.327 . S
C1846 C1834 1.349 . S
C1846 H1840 0.950 . S
C1846 C1847 1.327 . S
C1847 H1841 0.950 . S
C1847 C1846 1.327 . S
C1847 C1851 1.429 . S
C1848 C1831 1.574 . S
C1848 H1842 0.949 . S
C1848 C1852 1.368 . S
C1849 C1830 1.429 . S
C1849 C1843 1.429 . S
C1849 C1850 1.523 . S
C1850 C1831 1.368 . S
C1850 C1844 1.368 . S
C1850 C1849 1.523 . S
C1851 C1835 1.429 . S
C1851 C1847 1.429 . S
C1851 C1852 1.523 . S
C1852 C1836 1.368 . S
C1852 C1848 1.368 . S
C1852 C1851 1.523 . S
H1853 C1828 0.950 . S
H1854 C1830 0.950 . S
H1855 C1831 0.949 . S
H1856 C1833 0.950 . S
H1857 C1835 0.950 . S
C1858 C1859 1.349 . S
C1858 C1860 1.327 . S
C1858 H1883 0.950 . S
C1859 C1858 1.349 . S
C1859 C1875 1.349 . S
C1860 C1858 1.327 . S
C1860 C1879 1.429 . S
C1860 H1884 0.950 . S
C1861 C1878 1.574 . S
C1861 C1880 1.368 . S
C1861 H1885 0.949 . S
H1862 C1866 0.949 . S
C1863 C1864 1.349 . S
C1863 C1865 1.327 . S
C1863 H1886 0.950 . S
C1864 C1863 1.349 . S
C1864 C1876 1.349 . S
C1865 C1863 1.327 . S
C1865 C1881 1.429 . S
C1865 H1887 0.950 . S
C1866 H1862 0.949 . S
C1866 C1874 1.574 . S
C1866 C1882 1.368 . S
H1867 C1875 0.950 . S
H1868 C1873 0.950 . S
H1869 C1874 0.949 . S
H1870 C1876 0.950 . S
H1871 C1877 0.950 . S
H1872 C1878 0.949 . S
C1873 H1868 0.950 . S
C1873 C1875 1.327 . S
C1873 C1879 1.429 . S
C1874 C1866 1.574 . S
C1874 H1869 0.949 . S
C1874 C1880 1.368 . S
C1875 C1859 1.349 . S
C1875 H1867 0.950 . S
C1875 C1873 1.327 . S
C1876 C1864 1.349 . S
C1876 H1870 0.950 . S
C1876 C1877 1.327 . S
C1877 H1871 0.950 . S
C1877 C1876 1.327 . S
C1877 C1881 1.429 . S
C1878 C1861 1.574 . S
C1878 H1872 0.949 . S
C1878 C1882 1.368 . S
C1879 C1860 1.429 . S
C1879 C1873 1.429 . S
C1879 C1880 1.523 . S
C1880 C1861 1.368 . S
C1880 C1874 1.368 . S
C1880 C1879 1.523 . S
C1881 C1865 1.429 . S
C1881 C1877 1.429 . S
C1881 C1882 1.523 . S
C1882 C1866 1.368 . S
C1882 C1878 1.368 . S
C1882 C1881 1.523 . S
H1883 C1858 0.950 . S
H1884 C1860 0.950 . S
H1885 C1861 0.949 . S
H1886 C1863 0.950 . S
H1887 C1865 0.950 . S
C1888 C1889 1.349 . S
C1888 C1890 1.327 . S
C1888 H1913 0.950 . S
C1889 C1888 1.349 . S
C1889 C1905 1.349 . S
C1890 C1888 1.327 . S
C1890 C1909 1.429 . S
C1890 H1914 0.950 . S
C1891 C1908 1.574 . S
C1891 C1910 1.368 . S
C1891 H1915 0.949 . S
H1892 C1896 0.949 . S
C1893 C1894 1.349 . S
C1893 C1895 1.327 . S
C1893 H1916 0.936 1_565 S
C1894 C1893 1.349 . S
C1894 C1906 1.349 . S
C1895 C1893 1.327 . S
C1895 C1911 1.429 . S
C1895 H1917 0.950 . S
C1896 H1892 0.949 . S
C1896 C1904 1.574 . S
C1896 C1912 1.368 . S
H1897 C1905 0.950 . S
H1898 C1903 0.950 . S
H1899 C1904 0.949 . S
H1900 C1906 0.950 . S
H1901 C1907 0.950 . S
H1902 C1908 0.949 . S
C1903 H1898 0.950 . S
C1903 C1905 1.327 . S
C1903 C1909 1.429 . S
C1904 C1896 1.574 . S
C1904 H1899 0.949 . S
C1904 C1910 1.368 . S
C1905 C1889 1.349 . S
C1905 H1897 0.950 . S
C1905 C1903 1.327 . S
C1906 C1894 1.349 . S
C1906 H1900 0.950 . S
C1906 C1907 1.327 . S
C1907 H1901 0.950 . S
C1907 C1906 1.327 . S
C1907 C1911 1.429 . S
C1908 C1891 1.574 . S
C1908 H1902 0.949 . S
C1908 C1912 1.368 . S
C1909 C1890 1.429 . S
C1909 C1903 1.429 . S
C1909 C1910 1.523 . S
C1910 C1891 1.368 . S
C1910 C1904 1.368 . S
C1910 C1909 1.523 . S
C1911 C1895 1.429 . S
C1911 C1907 1.429 . S
C1911 C1912 1.523 . S
C1912 C1896 1.368 . S
C1912 C1908 1.368 . S
C1912 C1911 1.523 . S
H1913 C1888 0.950 . S
H1914 C1890 0.950 . S
H1915 C1891 0.949 . S
H1916 C1893 0.936 1_545 S
H1917 C1895 0.950 . S
C1918 C1919 1.349 . S
C1918 C1920 1.327 . S
C1918 H1943 0.950 . S
C1919 C1918 1.349 . S
C1919 C1935 1.349 . S
C1920 C1918 1.327 . S
C1920 C1939 1.429 . S
C1920 H1944 0.950 . S
C1921 C1938 1.574 . S
C1921 C1940 1.368 . S
C1921 H1945 0.949 . S
H1922 C1926 0.949 . S
C1923 C1924 1.349 . S
C1923 C1925 1.327 . S
C1923 H1946 0.950 . S
C1924 C1923 1.349 . S
C1924 C1936 1.349 . S
C1925 C1923 1.327 . S
C1925 C1941 1.429 . S
C1925 H1947 0.950 . S
C1926 H1922 0.949 . S
C1926 C1934 1.574 . S
C1926 C1942 1.368 . S
H1927 C1935 0.950 . S
H1928 C1933 0.950 . S
H1929 C1934 0.949 . S
H1930 C1936 0.950 . S
H1931 C1937 0.950 . S
H1932 C1938 0.949 . S
C1933 H1928 0.950 . S
C1933 C1935 1.327 . S
C1933 C1939 1.429 . S
C1934 C1926 1.574 . S
C1934 H1929 0.949 . S
C1934 C1940 1.368 . S
C1935 C1919 1.349 . S
C1935 H1927 0.950 . S
C1935 C1933 1.327 . S
C1936 C1924 1.349 . S
C1936 H1930 0.950 . S
C1936 C1937 1.327 . S
C1937 H1931 0.950 . S
C1937 C1936 1.327 . S
C1937 C1941 1.429 . S
C1938 C1921 1.574 . S
C1938 H1932 0.949 . S
C1938 C1942 1.368 . S
C1939 C1920 1.429 . S
C1939 C1933 1.429 . S
C1939 C1940 1.523 . S
C1940 C1921 1.368 . S
C1940 C1934 1.368 . S
C1940 C1939 1.523 . S
C1941 C1925 1.429 . S
C1941 C1937 1.429 . S
C1941 C1942 1.523 . S
C1942 C1926 1.368 . S
C1942 C1938 1.368 . S
C1942 C1941 1.523 . S
H1943 C1918 0.950 . S
H1944 C1920 0.950 . S
H1945 C1921 0.949 . S
H1946 C1923 0.950 . S
H1947 C1925 0.950 . S
C1948 C1949 1.349 . S
C1948 C1950 1.327 . S
C1948 H1973 0.950 . S
C1949 C1948 1.349 . S
C1949 C1965 1.349 . S
C1950 C1948 1.327 . S
C1950 C1969 1.429 . S
C1950 H1974 0.950 . S
C1951 C1968 1.574 . S
C1951 C1970 1.368 . S
C1951 H1975 0.949 . S
H1952 C1956 0.949 . S
C1953 C1954 1.349 . S
C1953 C1955 1.327 . S
C1953 H1976 0.950 . S
C1954 C1953 1.349 . S
C1954 C1966 1.349 . S
C1955 C1953 1.327 . S
C1955 C1971 1.429 . S
C1955 H1977 0.950 . S
C1956 H1952 0.949 . S
C1956 C1964 1.574 . S
C1956 C1972 1.368 . S
H1957 C1965 0.950 . S
H1958 C1963 0.950 . S
H1959 C1964 0.949 . S
H1960 C1966 0.950 . S
H1961 C1967 0.950 . S
H1962 C1968 0.949 . S
C1963 H1958 0.950 . S
C1963 C1965 1.327 . S
C1963 C1969 1.429 . S
C1964 C1956 1.574 . S
C1964 H1959 0.949 . S
C1964 C1970 1.368 . S
C1965 C1949 1.349 . S
C1965 H1957 0.950 . S
C1965 C1963 1.327 . S
C1966 C1954 1.349 . S
C1966 H1960 0.950 . S
C1966 C1967 1.327 . S
C1967 H1961 0.950 . S
C1967 C1966 1.327 . S
C1967 C1971 1.429 . S
C1968 C1951 1.574 . S
C1968 H1962 0.949 . S
C1968 C1972 1.368 . S
C1969 C1950 1.429 . S
C1969 C1963 1.429 . S
C1969 C1970 1.523 . S
C1970 C1951 1.368 . S
C1970 C1964 1.368 . S
C1970 C1969 1.523 . S
C1971 C1955 1.429 . S
C1971 C1967 1.429 . S
C1971 C1972 1.523 . S
C1972 C1956 1.368 . S
C1972 C1968 1.368 . S
C1972 C1971 1.523 . S
H1973 C1948 0.950 . S
H1974 C1950 0.950 . S
H1975 C1951 0.949 . S
H1976 C1953 0.950 . S
H1977 C1955 0.950 . S
C1978 C1979 1.349 . S
C1978 C1980 1.327 . S
C1978 H2003 0.950 . S
C1979 C1978 1.349 . S
C1979 C1995 1.349 . S
C1980 C1978 1.327 . S
C1980 C1999 1.429 . S
C1980 H2004 0.950 . S
C1981 C1998 1.574 . S
C1981 C2000 1.368 . S
C1981 H2005 0.949 . S
H1982 C1986 0.949 . S
C1983 C1984 1.349 . S
C1983 C1985 1.327 . S
C1983 H2006 0.950 . S
C1984 C1983 1.349 . S
C1984 C1996 1.349 . S
C1985 C1983 1.327 . S
C1985 C2001 1.429 . S
C1985 H2007 0.950 . S
C1986 H1982 0.949 . S
C1986 C1994 1.574 . S
C1986 C2002 1.368 . S
H1987 C1995 0.950 . S
H1988 C1993 0.950 . S
H1989 C1994 0.949 . S
H1990 C1996 0.950 . S
H1991 C1997 0.950 . S
H1992 C1998 0.949 . S
C1993 H1988 0.950 . S
C1993 C1995 1.327 . S
C1993 C1999 1.429 . S
C1994 C1986 1.574 . S
C1994 H1989 0.949 . S
C1994 C2000 1.368 . S
C1995 C1979 1.349 . S
C1995 H1987 0.950 . S
C1995 C1993 1.327 . S
C1996 C1984 1.349 . S
C1996 H1990 0.950 . S
C1996 C1997 1.327 . S
C1997 H1991 0.950 . S
C1997 C1996 1.327 . S
C1997 C2001 1.429 . S
C1998 C1981 1.574 . S
C1998 H1992 0.949 . S
C1998 C2002 1.368 . S
C1999 C1980 1.429 . S
C1999 C1993 1.429 . S
C1999 C2000 1.523 . S
C2000 C1981 1.368 . S
C2000 C1994 1.368 . S
C2000 C1999 1.523 . S
C2001 C1985 1.429 . S
C2001 C1997 1.429 . S
C2001 C2002 1.523 . S
C2002 C1986 1.368 . S
C2002 C1998 1.368 . S
C2002 C2001 1.523 . S
H2003 C1978 0.950 . S
H2004 C1980 0.950 . S
H2005 C1981 0.949 . S
H2006 C1983 0.950 . S
H2007 C1985 0.950 . S
C2008 C2009 1.349 . S
C2008 C2010 1.327 . S
C2008 H2033 0.950 . S
C2009 C2008 1.349 . S
C2009 C2025 1.349 . S
C2010 C2008 1.327 . S
C2010 C2029 1.429 . S
C2010 H2034 0.950 . S
C2011 C2028 1.574 . S
C2011 C2030 1.368 . S
C2011 H2035 0.949 . S
H2012 C2016 0.949 . S
C2013 C2014 1.349 . S
C2013 C2015 1.327 . S
C2013 H2036 0.950 . S
C2014 C2013 1.349 . S
C2014 C2026 1.349 . S
C2015 C2013 1.327 . S
C2015 C2031 1.429 . S
C2015 H2037 0.950 . S
C2016 H2012 0.949 . S
C2016 C2024 1.574 . S
C2016 C2032 1.368 . S
H2017 C2025 0.950 . S
H2018 C2023 0.950 . S
H2019 C2024 0.949 . S
H2020 C2026 0.950 1_565 S
H2021 C2027 0.950 . S
H2022 C2028 0.949 . S
C2023 H2018 0.950 . S
C2023 C2025 1.327 . S
C2023 C2029 1.429 . S
C2024 C2016 1.574 . S
C2024 H2019 0.949 . S
C2024 C2030 1.368 . S
C2025 C2009 1.349 . S
C2025 H2017 0.950 . S
C2025 C2023 1.327 . S
C2026 C2014 1.349 . S
C2026 H2020 0.950 1_545 S
C2026 C2027 1.327 . S
C2027 H2021 0.950 . S
C2027 C2026 1.327 . S
C2027 C2031 1.429 . S
C2028 C2011 1.574 . S
C2028 H2022 0.949 . S
C2028 C2032 1.368 . S
C2029 C2010 1.429 . S
C2029 C2023 1.429 . S
C2029 C2030 1.523 . S
C2030 C2011 1.368 . S
C2030 C2024 1.368 . S
C2030 C2029 1.523 . S
C2031 C2015 1.429 . S
C2031 C2027 1.429 . S
C2031 C2032 1.523 . S
C2032 C2016 1.368 . S
C2032 C2028 1.368 . S
C2032 C2031 1.523 . S
H2033 C2008 0.950 . S
H2034 C2010 0.950 . S
H2035 C2011 0.949 . S
H2036 C2013 0.950 . S
H2037 C2015 0.950 . S
C2038 C2039 1.349 . S
C2038 C2040 1.327 . S
C2038 H2063 0.950 . S
C2039 C2038 1.349 . S
C2039 C2055 1.349 . S
C2040 C2038 1.327 . S
C2040 C2059 1.429 . S
C2040 H2064 0.950 . S
C2041 C2058 1.574 . S
C2041 C2060 1.368 . S
C2041 H2065 0.949 . S
H2042 C2046 0.949 . S
C2043 C2044 1.349 . S
C2043 C2045 1.327 . S
C2043 H2066 0.950 . S
C2044 C2043 1.349 . S
C2044 C2056 1.349 . S
C2045 C2043 1.327 . S
C2045 C2061 1.429 . S
C2045 H2067 0.950 . S
C2046 H2042 0.949 . S
C2046 C2054 1.574 . S
C2046 C2062 1.368 . S
H2047 C2055 0.950 . S
H2048 C2053 0.950 . S
H2049 C2054 0.949 . S
H2050 C2056 0.950 . S
H2051 C2057 0.950 . S
H2052 C2058 0.949 . S
C2053 H2048 0.950 . S
C2053 C2055 1.327 . S
C2053 C2059 1.429 . S
C2054 C2046 1.574 . S
C2054 H2049 0.949 . S
C2054 C2060 1.368 . S
C2055 C2039 1.349 . S
C2055 H2047 0.950 . S
C2055 C2053 1.327 . S
C2056 C2044 1.349 . S
C2056 H2050 0.950 . S
C2056 C2057 1.327 . S
C2057 H2051 0.950 . S
C2057 C2056 1.327 . S
C2057 C2061 1.429 . S
C2058 C2041 1.574 . S
C2058 H2052 0.949 . S
C2058 C2062 1.368 . S
C2059 C2040 1.429 . S
C2059 C2053 1.429 . S
C2059 C2060 1.523 . S
C2060 C2041 1.368 . S
C2060 C2054 1.368 . S
C2060 C2059 1.523 . S
C2061 C2045 1.429 . S
C2061 C2057 1.429 . S
C2061 C2062 1.523 . S
C2062 C2046 1.368 . S
C2062 C2058 1.368 . S
C2062 C2061 1.523 . S
H2063 C2038 0.950 . S
H2064 C2040 0.950 . S
H2065 C2041 0.949 . S
H2066 C2043 0.950 . S
H2067 C2045 0.950 . S
C2068 C2069 1.349 . S
C2068 C2070 1.327 . S
C2068 H2093 0.950 . S
C2069 C2068 1.349 . S
C2069 C2085 1.349 . S
C2070 C2068 1.327 . S
C2070 C2089 1.429 . S
C2070 H2094 0.950 . S
C2071 C2088 1.574 . S
C2071 C2090 1.368 . S
C2071 H2095 0.949 . S
H2072 C2076 0.949 . S
C2073 C2074 1.349 . S
C2073 C2075 1.327 . S
C2073 H2096 0.950 . S
C2074 C2073 1.349 . S
C2074 C2086 1.349 . S
C2075 C2073 1.327 . S
C2075 C2091 1.429 . S
C2075 H2097 0.950 . S
C2076 H2072 0.949 . S
C2076 C2084 1.574 . S
C2076 C2092 1.368 . S
H2077 C2085 0.950 . S
H2078 C2083 0.950 . S
H2079 C2084 0.949 . S
H2080 C2086 0.950 . S
H2081 C2087 0.950 . S
H2082 C2088 0.949 . S
C2083 H2078 0.950 . S
C2083 C2085 1.327 . S
C2083 C2089 1.429 . S
C2084 C2076 1.574 . S
C2084 H2079 0.949 . S
C2084 C2090 1.368 . S
C2085 C2069 1.349 . S
C2085 H2077 0.950 . S
C2085 C2083 1.327 . S
C2086 C2074 1.349 . S
C2086 H2080 0.950 . S
C2086 C2087 1.327 . S
C2087 H2081 0.950 . S
C2087 C2086 1.327 . S
C2087 C2091 1.429 . S
C2088 C2071 1.574 . S
C2088 H2082 0.949 . S
C2088 C2092 1.368 . S
C2089 C2070 1.429 . S
C2089 C2083 1.429 . S
C2089 C2090 1.523 . S
C2090 C2071 1.368 . S
C2090 C2084 1.368 . S
C2090 C2089 1.523 . S
C2091 C2075 1.429 . S
C2091 C2087 1.429 . S
C2091 C2092 1.523 . S
C2092 C2076 1.368 . S
C2092 C2088 1.368 . S
C2092 C2091 1.523 . S
H2093 C2068 0.950 . S
H2094 C2070 0.950 . S
H2095 C2071 0.949 . S
H2096 C2073 0.950 . S
H2097 C2075 0.950 . S
C2098 C2099 1.349 . S
C2098 C2100 1.327 . S
C2098 H2123 0.950 . S
C2099 C2098 1.349 . S
C2099 C2115 1.349 . S
C2100 C2098 1.327 . S
C2100 C2119 1.429 . S
C2100 H2124 0.950 . S
C2101 C2118 1.574 . S
C2101 C2120 1.368 . S
C2101 H2125 0.949 . S
H2102 C2106 0.949 . S
C2103 C2104 1.349 . S
C2103 C2105 1.327 . S
C2103 H2126 0.950 . S
C2104 C2103 1.349 . S
C2104 C2116 1.349 . S
C2105 C2103 1.327 . S
C2105 C2121 1.429 . S
C2105 H2127 0.950 . S
C2106 H2102 0.949 . S
C2106 C2114 1.574 . S
C2106 C2122 1.368 . S
H2107 C2115 0.950 1_565 S
H2108 C2113 0.950 . S
H2109 C2114 0.949 . S
H2110 C2116 0.950 . S
H2111 C2117 0.950 . S
H2112 C2118 0.949 . S
C2113 H2108 0.950 . S
C2113 C2115 1.327 . S
C2113 C2119 1.429 . S
C2114 C2106 1.574 . S
C2114 H2109 0.949 . S
C2114 C2120 1.368 . S
C2115 C2099 1.349 . S
C2115 H2107 0.950 1_545 S
C2115 C2113 1.327 . S
C2116 C2104 1.349 . S
C2116 H2110 0.950 . S
C2116 C2117 1.327 . S
C2117 H2111 0.950 . S
C2117 C2116 1.327 . S
C2117 C2121 1.429 . S
C2118 C2101 1.574 . S
C2118 H2112 0.949 . S
C2118 C2122 1.368 . S
C2119 C2100 1.429 . S
C2119 C2113 1.429 . S
C2119 C2120 1.523 . S
C2120 C2101 1.368 . S
C2120 C2114 1.368 . S
C2120 C2119 1.523 . S
C2121 C2105 1.429 . S
C2121 C2117 1.429 . S
C2121 C2122 1.523 . S
C2122 C2106 1.368 . S
C2122 C2118 1.368 . S
C2122 C2121 1.523 . S
H2123 C2098 0.950 . S
H2124 C2100 0.950 . S
H2125 C2101 0.949 . S
H2126 C2103 0.950 . S
H2127 C2105 0.950 . S
C2128 C2129 1.349 . S
C2128 C2130 1.327 . S
C2128 H2153 0.950 . S
C2129 C2128 1.349 . S
C2129 C2145 1.349 . S
C2130 C2128 1.327 . S
C2130 C2149 1.429 . S
C2130 H2154 0.950 . S
C2131 C2148 1.574 . S
C2131 C2150 1.368 . S
C2131 H2155 0.949 . S
H2132 C2136 0.949 . S
C2133 C2134 1.349 . S
C2133 C2135 1.327 . S
C2133 H2156 0.950 1_565 S
C2134 C2133 1.349 . S
C2134 C2146 1.349 . S
C2135 C2133 1.327 . S
C2135 C2151 1.429 . S
C2135 H2157 0.950 . S
C2136 H2132 0.949 . S
C2136 C2144 1.574 . S
C2136 C2152 1.368 . S
H2137 C2145 0.950 . S
H2138 C2143 0.950 . S
H2139 C2144 0.949 . S
H2140 C2146 0.950 . S
H2141 C2147 0.950 . S
H2142 C2148 0.949 . S
C2143 H2138 0.950 . S
C2143 C2145 1.327 . S
C2143 C2149 1.429 . S
C2144 C2136 1.574 . S
C2144 H2139 0.949 . S
C2144 C2150 1.368 . S
C2145 C2129 1.349 . S
C2145 H2137 0.950 . S
C2145 C2143 1.327 . S
C2146 C2134 1.349 . S
C2146 H2140 0.950 . S
C2146 C2147 1.327 . S
C2147 H2141 0.950 . S
C2147 C2146 1.327 . S
C2147 C2151 1.429 . S
C2148 C2131 1.574 . S
C2148 H2142 0.949 . S
C2148 C2152 1.368 . S
C2149 C2130 1.429 . S
C2149 C2143 1.429 . S
C2149 C2150 1.523 . S
C2150 C2131 1.368 . S
C2150 C2144 1.368 . S
C2150 C2149 1.523 . S
C2151 C2135 1.429 . S
C2151 C2147 1.429 . S
C2151 C2152 1.523 . S
C2152 C2136 1.368 . S
C2152 C2148 1.368 . S
C2152 C2151 1.523 . S
H2153 C2128 0.950 . S
H2154 C2130 0.950 . S
H2155 C2131 0.949 . S
H2156 C2133 0.950 1_545 S
H2157 C2135 0.950 . S
C2158 C2159 1.349 . S
C2158 C2160 1.327 . S
C2158 H2183 0.950 . S
C2159 C2158 1.349 . S
C2159 C2175 1.349 . S
C2160 C2158 1.327 . S
C2160 C2179 1.429 . S
C2160 H2184 0.950 . S
C2161 C2178 1.574 . S
C2161 C2180 1.368 . S
C2161 H2185 0.949 . S
H2162 C2166 0.949 . S
C2163 C2164 1.349 . S
C2163 C2165 1.327 . S
C2163 H2186 0.950 . S
C2164 C2163 1.349 . S
C2164 C2176 1.349 . S
C2165 C2163 1.327 . S
C2165 C2181 1.429 . S
C2165 H2187 0.950 . S
C2166 H2162 0.949 . S
C2166 C2174 1.574 . S
C2166 C2182 1.368 . S
H2167 C2175 0.950 . S
H2168 C2173 0.950 . S
H2169 C2174 0.949 . S
H2170 C2176 0.950 . S
H2171 C2177 0.950 . S
H2172 C2178 0.949 . S
C2173 H2168 0.950 . S
C2173 C2175 1.327 . S
C2173 C2179 1.429 . S
C2174 C2166 1.574 . S
C2174 H2169 0.949 . S
C2174 C2180 1.368 . S
C2175 C2159 1.349 . S
C2175 H2167 0.950 . S
C2175 C2173 1.327 . S
C2176 C2164 1.349 . S
C2176 H2170 0.950 . S
C2176 C2177 1.327 . S
C2177 H2171 0.950 . S
C2177 C2176 1.327 . S
C2177 C2181 1.429 . S
C2178 C2161 1.574 . S
C2178 H2172 0.949 . S
C2178 C2182 1.368 . S
C2179 C2160 1.429 . S
C2179 C2173 1.429 . S
C2179 C2180 1.523 . S
C2180 C2161 1.368 . S
C2180 C2174 1.368 . S
C2180 C2179 1.523 . S
C2181 C2165 1.429 . S
C2181 C2177 1.429 . S
C2181 C2182 1.523 . S
C2182 C2166 1.368 . S
C2182 C2178 1.368 . S
C2182 C2181 1.523 . S
H2183 C2158 0.950 . S
H2184 C2160 0.950 . S
H2185 C2161 0.949 . S
H2186 C2163 0.950 . S
H2187 C2165 0.950 . S
C2188 C2189 1.349 . S
C2188 C2190 1.327 . S
C2188 H2213 0.950 . S
C2189 C2188 1.349 . S
C2189 C2205 1.349 . S
C2190 C2188 1.327 . S
C2190 C2209 1.429 . S
C2190 H2214 0.950 . S
C2191 C2208 1.574 . S
C2191 C2210 1.368 . S
C2191 H2215 0.949 . S
H2192 C2196 0.949 . S
C2193 C2194 1.349 . S
C2193 C2195 1.327 . S
C2193 H2216 0.950 . S
C2194 C2193 1.349 . S
C2194 C2206 1.349 . S
C2195 C2193 1.327 . S
C2195 C2211 1.429 . S
C2195 H2217 0.950 . S
C2196 H2192 0.949 . S
C2196 C2204 1.574 . S
C2196 C2212 1.368 . S
H2197 C2205 0.950 . S
H2198 C2203 0.950 . S
H2199 C2204 0.949 . S
H2200 C2206 0.950 . S
H2201 C2207 0.950 . S
H2202 C2208 0.949 . S
C2203 H2198 0.950 . S
C2203 C2205 1.327 . S
C2203 C2209 1.429 . S
C2204 C2196 1.574 . S
C2204 H2199 0.949 . S
C2204 C2210 1.368 . S
C2205 C2189 1.349 . S
C2205 H2197 0.950 . S
C2205 C2203 1.327 . S
C2206 C2194 1.349 . S
C2206 H2200 0.950 . S
C2206 C2207 1.327 . S
C2207 H2201 0.950 . S
C2207 C2206 1.327 . S
C2207 C2211 1.429 . S
C2208 C2191 1.574 . S
C2208 H2202 0.949 . S
C2208 C2212 1.368 . S
C2209 C2190 1.429 . S
C2209 C2203 1.429 . S
C2209 C2210 1.523 . S
C2210 C2191 1.368 . S
C2210 C2204 1.368 . S
C2210 C2209 1.523 . S
C2211 C2195 1.429 . S
C2211 C2207 1.429 . S
C2211 C2212 1.523 . S
C2212 C2196 1.368 . S
C2212 C2208 1.368 . S
C2212 C2211 1.523 . S
H2213 C2188 0.950 . S
H2214 C2190 0.950 . S
H2215 C2191 0.949 . S
H2216 C2193 0.950 . S
H2217 C2195 0.950 . S
C2218 C2219 1.349 . S
C2218 C2220 1.327 . S
C2218 H2243 0.950 . S
C2219 C2218 1.349 . S
C2219 C2235 1.349 . S
C2220 C2218 1.327 . S
C2220 C2239 1.429 . S
C2220 H2244 0.950 . S
C2221 C2238 1.574 . S
C2221 C2240 1.368 . S
C2221 H2245 0.949 . S
H2222 C2226 0.949 . S
C2223 C2224 1.349 . S
C2223 C2225 1.327 . S
C2223 H2246 0.950 . S
C2224 C2223 1.349 . S
C2224 C2236 1.349 . S
C2225 C2223 1.327 . S
C2225 C2241 1.429 . S
C2225 H2247 0.950 . S
C2226 H2222 0.949 . S
C2226 C2234 1.574 . S
C2226 C2242 1.368 . S
H2227 C2235 0.950 . S
H2228 C2233 0.950 . S
H2229 C2234 0.949 . S
H2230 C2236 0.950 . S
H2231 C2237 0.950 . S
H2232 C2238 0.949 . S
C2233 H2228 0.950 . S
C2233 C2235 1.327 . S
C2233 C2239 1.429 . S
C2234 C2226 1.574 . S
C2234 H2229 0.949 . S
C2234 C2240 1.368 . S
C2235 C2219 1.349 . S
C2235 H2227 0.950 . S
C2235 C2233 1.327 . S
C2236 C2224 1.349 . S
C2236 H2230 0.950 . S
C2236 C2237 1.327 . S
C2237 H2231 0.950 . S
C2237 C2236 1.327 . S
C2237 C2241 1.429 . S
C2238 C2221 1.574 . S
C2238 H2232 0.949 . S
C2238 C2242 1.368 . S
C2239 C2220 1.429 . S
C2239 C2233 1.429 . S
C2239 C2240 1.523 . S
C2240 C2221 1.368 . S
C2240 C2234 1.368 . S
C2240 C2239 1.523 . S
C2241 C2225 1.429 . S
C2241 C2237 1.429 . S
C2241 C2242 1.523 . S
C2242 C2226 1.368 . S
C2242 C2238 1.368 . S
C2242 C2241 1.523 . S
H2243 C2218 0.950 . S
H2244 C2220 0.950 . S
H2245 C2221 0.949 . S
H2246 C2223 0.950 . S
H2247 C2225 0.950 . S
C2248 C2249 1.349 . S
C2248 C2250 1.327 . S
C2248 H2273 0.950 . S
C2249 C2248 1.349 . S
C2249 C2265 1.349 . S
C2250 C2248 1.327 . S
C2250 C2269 1.429 . S
C2250 H2274 0.950 . S
C2251 C2268 1.574 . S
C2251 C2270 1.368 . S
C2251 H2275 0.949 . S
H2252 C2256 0.949 . S
C2253 C2254 1.349 . S
C2253 C2255 1.327 . S
C2253 H2276 0.950 . S
C2254 C2253 1.349 . S
C2254 C2266 1.349 . S
C2255 C2253 1.327 . S
C2255 C2271 1.429 . S
C2255 H2277 0.950 . S
C2256 H2252 0.949 . S
C2256 C2264 1.574 . S
C2256 C2272 1.368 . S
H2257 C2265 0.950 . S
H2258 C2263 0.950 . S
H2259 C2264 0.949 . S
H2260 C2266 0.950 1_565 S
H2261 C2267 0.950 . S
H2262 C2268 0.949 . S
C2263 H2258 0.950 . S
C2263 C2265 1.327 . S
C2263 C2269 1.429 . S
C2264 C2256 1.574 . S
C2264 H2259 0.949 . S
C2264 C2270 1.368 . S
C2265 C2249 1.349 . S
C2265 H2257 0.950 . S
C2265 C2263 1.327 . S
C2266 C2254 1.349 . S
C2266 H2260 0.950 1_545 S
C2266 C2267 1.327 . S
C2267 H2261 0.950 . S
C2267 C2266 1.327 . S
C2267 C2271 1.429 . S
C2268 C2251 1.574 . S
C2268 H2262 0.949 . S
C2268 C2272 1.368 . S
C2269 C2250 1.429 . S
C2269 C2263 1.429 . S
C2269 C2270 1.523 . S
C2270 C2251 1.368 . S
C2270 C2264 1.368 . S
C2270 C2269 1.523 . S
C2271 C2255 1.429 . S
C2271 C2267 1.429 . S
C2271 C2272 1.523 . S
C2272 C2256 1.368 . S
C2272 C2268 1.368 . S
C2272 C2271 1.523 . S
H2273 C2248 0.950 . S
H2274 C2250 0.950 . S
H2275 C2251 0.949 . S
H2276 C2253 0.950 . S
H2277 C2255 0.950 . S
C2278 C2279 1.349 . S
C2278 C2280 1.327 . S
C2278 H2303 0.950 . S
C2279 C2278 1.349 . S
C2279 C2295 1.349 . S
C2280 C2278 1.327 . S
C2280 C2299 1.429 . S
C2280 H2304 0.950 . S
C2281 C2298 1.574 . S
C2281 C2300 1.368 . S
C2281 H2305 0.949 . S
H2282 C2286 0.949 . S
C2283 C2284 1.349 . S
C2283 C2285 1.327 . S
C2283 H2306 0.950 . S
C2284 C2283 1.349 . S
C2284 C2296 1.349 . S
C2285 C2283 1.327 . S
C2285 C2301 1.429 . S
C2285 H2307 0.950 . S
C2286 H2282 0.949 . S
C2286 C2294 1.574 . S
C2286 C2302 1.368 . S
H2287 C2295 0.950 . S
H2288 C2293 0.950 . S
H2289 C2294 0.949 . S
H2290 C2296 0.950 . S
H2291 C2297 0.950 . S
H2292 C2298 0.949 . S
C2293 H2288 0.950 . S
C2293 C2295 1.327 . S
C2293 C2299 1.429 . S
C2294 C2286 1.574 . S
C2294 H2289 0.949 . S
C2294 C2300 1.368 . S
C2295 C2279 1.349 . S
C2295 H2287 0.950 . S
C2295 C2293 1.327 . S
C2296 C2284 1.349 . S
C2296 H2290 0.950 . S
C2296 C2297 1.327 . S
C2297 H2291 0.950 . S
C2297 C2296 1.327 . S
C2297 C2301 1.429 . S
C2298 C2281 1.574 . S
C2298 H2292 0.949 . S
C2298 C2302 1.368 . S
C2299 C2280 1.429 . S
C2299 C2293 1.429 . S
C2299 C2300 1.523 . S
C2300 C2281 1.368 . S
C2300 C2294 1.368 . S
C2300 C2299 1.523 . S
C2301 C2285 1.429 . S
C2301 C2297 1.429 . S
C2301 C2302 1.523 . S
C2302 C2286 1.368 . S
C2302 C2298 1.368 . S
C2302 C2301 1.523 . S
H2303 C2278 0.950 . S
H2304 C2280 0.950 . S
H2305 C2281 0.949 . S
H2306 C2283 0.950 . S
H2307 C2285 0.950 . S
C2308 C2309 1.349 . S
C2308 C2310 1.327 . S
C2308 H2333 0.950 . S
C2309 C2308 1.349 . S
C2309 C2325 1.349 . S
C2310 C2308 1.327 . S
C2310 C2329 1.429 . S
C2310 H2334 0.950 . S
C2311 C2328 1.574 . S
C2311 C2330 1.368 . S
C2311 H2335 0.949 . S
H2312 C2316 0.949 . S
C2313 C2314 1.349 . S
C2313 C2315 1.327 . S
C2313 H2336 0.950 . S
C2314 C2313 1.349 . S
C2314 C2326 1.349 . S
C2315 C2313 1.327 . S
C2315 C2331 1.429 . S
C2315 H2337 0.950 . S
C2316 H2312 0.949 . S
C2316 C2324 1.574 . S
C2316 C2332 1.368 . S
H2317 C2325 0.950 . S
H2318 C2323 0.950 . S
H2319 C2324 0.949 . S
H2320 C2326 0.950 . S
H2321 C2327 0.950 . S
H2322 C2328 0.949 . S
C2323 H2318 0.950 . S
C2323 C2325 1.327 . S
C2323 C2329 1.429 . S
C2324 C2316 1.574 . S
C2324 H2319 0.949 . S
C2324 C2330 1.368 . S
C2325 C2309 1.349 . S
C2325 H2317 0.950 . S
C2325 C2323 1.327 . S
C2326 C2314 1.349 . S
C2326 H2320 0.950 . S
C2326 C2327 1.327 . S
C2327 H2321 0.950 . S
C2327 C2326 1.327 . S
C2327 C2331 1.429 . S
C2328 C2311 1.574 . S
C2328 H2322 0.949 . S
C2328 C2332 1.368 . S
C2329 C2310 1.429 . S
C2329 C2323 1.429 . S
C2329 C2330 1.523 . S
C2330 C2311 1.368 . S
C2330 C2324 1.368 . S
C2330 C2329 1.523 . S
C2331 C2315 1.429 . S
C2331 C2327 1.429 . S
C2331 C2332 1.523 . S
C2332 C2316 1.368 . S
C2332 C2328 1.368 . S
C2332 C2331 1.523 . S
H2333 C2308 0.950 . S
H2334 C2310 0.950 . S
H2335 C2311 0.949 . S
H2336 C2313 0.950 . S
H2337 C2315 0.950 . S
C2338 C2339 1.349 . S
C2338 C2340 1.327 . S
C2338 H2363 0.950 . S
C2339 C2338 1.349 . S
C2339 C2355 1.349 . S
C2340 C2338 1.327 . S
C2340 C2359 1.429 . S
C2340 H2364 0.950 . S
C2341 C2358 1.574 . S
C2341 C2360 1.368 . S
C2341 H2365 0.949 . S
H2342 C2346 0.949 . S
C2343 C2344 1.349 . S
C2343 C2345 1.327 . S
C2343 H2366 0.950 1_545 S
C2344 C2343 1.349 . S
C2344 C2356 1.349 . S
C2345 C2343 1.327 . S
C2345 C2361 1.429 . S
C2345 H2367 0.950 . S
C2346 H2342 0.949 . S
C2346 C2354 1.574 . S
C2346 C2362 1.368 . S
H2347 C2355 0.950 . S
H2348 C2353 0.950 . S
H2349 C2354 0.949 . S
H2350 C2356 0.950 . S
H2351 C2357 0.950 . S
H2352 C2358 0.949 . S
C2353 H2348 0.950 . S
C2353 C2355 1.327 . S
C2353 C2359 1.429 . S
C2354 C2346 1.574 . S
C2354 H2349 0.949 . S
C2354 C2360 1.368 . S
C2355 C2339 1.349 . S
C2355 H2347 0.950 . S
C2355 C2353 1.327 . S
C2356 C2344 1.349 . S
C2356 H2350 0.950 . S
C2356 C2357 1.327 . S
C2357 H2351 0.950 . S
C2357 C2356 1.327 . S
C2357 C2361 1.429 . S
C2358 C2341 1.574 . S
C2358 H2352 0.949 . S
C2358 C2362 1.368 . S
C2359 C2340 1.429 . S
C2359 C2353 1.429 . S
C2359 C2360 1.523 . S
C2360 C2341 1.368 . S
C2360 C2354 1.368 . S
C2360 C2359 1.523 . S
C2361 C2345 1.429 . S
C2361 C2357 1.429 . S
C2361 C2362 1.523 . S
C2362 C2346 1.368 . S
C2362 C2358 1.368 . S
C2362 C2361 1.523 . S
H2363 C2338 0.950 . S
H2364 C2340 0.950 . S
H2365 C2341 0.949 . S
H2366 C2343 0.950 1_565 S
H2367 C2345 0.950 . S
C1409 C1289 1.639 . S
C1414 C29 1.641 . S
C1439 C196 1.639 . S
C1444 C20 1.641 . S
C1469 C997 1.639 . S
C1474 C137 1.641 . S
C1499 C145 1.641 . S
C1504 C645 1.639 . S
C1529 C233 1.639 . S
C1534 C1085 1.641 . S
C1559 C841 1.641 . S
C1564 C293 1.639 . S
C1589 C313 1.639 . S
C1594 C497 1.641 . S
C1619 C900 1.639 . S
C1624 C372 1.641 . S
C1649 C381 1.641 . S
C1654 C548 1.639 . S
C1679 C1349 1.639 . S
C1684 C489 1.641 . S
C1709 C733 1.641 . S
C1714 C585 1.639 . S
C1739 C1201 1.641 . S
C1744 C665 1.639 . S
C1769 C724 1.641 . S
C1774 C937 1.639 . S
C1799 C1369 1.639 . S
C1804 C849 1.641 . S
C1829 C1017 1.639 . S
C1834 C1193 1.641 . S
C1859 C1252 1.639 . S
C1864 C1076 1.641 . S
C1889 C460 0.795 . S
C1894 C57 0.795 . S
C1919 C49 0.795 . S
C1924 C469 0.795 . S
C1949 C108 0.795 . S
C1954 C401 0.795 . S
C1979 C409 0.795 . S
C1984 C117 0.795 . S
C2009 C636 0.807 . S
C2014 C205 0.807 . S
C2039 C673 0.807 . S
C2044 C225 0.807 . S
C2069 C557 0.807 . S
C2074 C321 0.807 . S
C2099 C284 0.807 . S
C2104 C577 0.807 . S
C2129 C1173 0.795 . S
C2134 C761 0.795 . S
C2159 C753 0.795 . S
C2164 C1164 0.795 . S
C2189 C812 0.795 . S
C2194 C1113 0.795 . S
C2219 C1105 0.795 . S
C2224 C821 0.795 . S
C2249 C1377 0.807 . S
C2254 C929 0.807 . S
C2279 C1340 0.807 . S
C2284 C909 0.807 . S
C2309 C1025 0.807 . S
C2314 C1261 0.807 . S
C2339 C1281 0.807 . S
C2344 C988 0.807 . S
