# Generated by pormake.
# Topology crb, (4)-cn, num edge types: 1
# Building blocks:
#     Node 0, Type 0, BuildingBlock: KUFVIS_clean_sbu_0, # of connection points: 4
#     Node 1, Type 0, BuildingBlock: KUFVIS_clean_sbu_0, # of connection points: 4
#     Node 2, Type 0, BuildingBlock: KUFVIS_clean_sbu_0, # of connection points: 4
#     Node 3, Type 0, BuildingBlock: KUFVIS_clean_sbu_0, # of connection points: 4
#     Node 4, Type 0, BuildingBlock: KUFVIS_clean_sbu_0, # of connection points: 4
#     Node 5, Type 0, BuildingBlock: KUFVIS_clean_sbu_0, # of connection points: 4
#     Node 6, Type 0, BuildingBlock: KUFVIS_clean_sbu_0, # of connection points: 4
#     Node 7, Type 0, BuildingBlock: KUFVIS_clean_sbu_0, # of connection points: 4
#     Edge 8, Type (0, 0), BuildingBlock: AJUNOK_clean_linker_0, # of connection points: 2
#     Edge 9, Type (0, 0), BuildingBlock: AJUNOK_clean_linker_0, # of connection points: 2
#     Edge 10, Type (0, 0), BuildingBlock: AJUNOK_clean_linker_0, # of connection points: 2
#     Edge 11, Type (0, 0), BuildingBlock: AJUNOK_clean_linker_0, # of connection points: 2
#     Edge 12, Type (0, 0), BuildingBlock: AJUNOK_clean_linker_0, # of connection points: 2
#     Edge 13, Type (0, 0), BuildingBlock: AJUNOK_clean_linker_0, # of connection points: 2
#     Edge 14, Type (0, 0), BuildingBlock: AJUNOK_clean_linker_0, # of connection points: 2
#     Edge 15, Type (0, 0), BuildingBlock: AJUNOK_clean_linker_0, # of connection points: 2
#     Edge 16, Type (0, 0), BuildingBlock: AJUNOK_clean_linker_0, # of connection points: 2
#     Edge 17, Type (0, 0), BuildingBlock: AJUNOK_clean_linker_0, # of connection points: 2
#     Edge 18, Type (0, 0), BuildingBlock: AJUNOK_clean_linker_0, # of connection points: 2
#     Edge 19, Type (0, 0), BuildingBlock: AJUNOK_clean_linker_0, # of connection points: 2
#     Edge 20, Type (0, 0), BuildingBlock: AJUNOK_clean_linker_0, # of connection points: 2
#     Edge 21, Type (0, 0), BuildingBlock: AJUNOK_clean_linker_0, # of connection points: 2
#     Edge 22, Type (0, 0), BuildingBlock: AJUNOK_clean_linker_0, # of connection points: 2
#     Edge 23, Type (0, 0), BuildingBlock: AJUNOK_clean_linker_0, # of connection points: 2
# Relax obj value: 0.084
# Max RMSD: 0.128
# Mean RMSD: 0.128
data_MOF--net-crb--node1-KUFVIS_clean_sbu_0--edge1-AJUNOK_clean_linker_0
_symmetry_space_group_name_H-M    P1
_symmetry_Int_Tables_number       1
_symmetry_cell_setting            triclinic
loop_
_symmetry_equiv_pos_as_xyz
'x, y, z'
_cell_length_a     30.904645
_cell_length_b     31.475652
_cell_length_c     16.658153
_cell_angle_alpha  89.750194
_cell_angle_beta   90.032787
_cell_angle_gamma 90.010594
loop_
_atom_site_label
_atom_site_type_symbol
_atom_site_fract_x
_atom_site_fract_y
_atom_site_fract_z
_atom_type_partial_charge
Mn0 Mn 0.32972 0.37592 0.09407 0.0
Mn1 Mn 0.35948 0.27282 0.08929 0.0
C2 C 0.40277 0.35787 0.09776 0.0
C3 C 0.31537 0.44629 0.0538 0.0
C4 C 0.31633 0.3128 0.23267 0.0
O5 O 0.27898 0.34782 0.03464 0.0
O6 O 0.30109 0.27897 0.03873 0.0
C7 C 0.35853 0.23575 0.92596 0.0
N8 N 0.3822 0.24764 0.99123 0.0
C9 C 0.43843 0.18876 0.94708 0.0
C10 C 0.4104 0.17984 0.88409 0.0
C11 C 0.37211 0.20329 0.87339 0.0
C12 C 0.42006 0.22835 1.00747 0.0
H13 H 0.32766 0.25043 0.91416 0.0
C14 C 0.27431 0.30824 1.0169 0.0
O15 O 0.29777 0.42932 0.11618 0.0
O16 O 0.33891 0.42138 1.00939 0.0
N17 N 0.41606 0.26854 0.13592 0.0
C18 C 0.42871 0.2816 0.21 0.0
C19 C 0.47162 0.27772 0.23592 0.0
C20 C 0.50397 0.25853 0.18997 0.0
C21 C 0.49366 0.23721 0.11592 0.0
C22 C 0.44346 0.24971 0.0858 0.0
H23 H 0.40613 0.29726 0.24936 0.0
O24 O 0.38821 0.39084 0.13608 0.0
O25 O 0.37371 0.33357 0.06344 0.0
O26 O 0.31169 0.34905 0.2012 0.0
O27 O 0.33487 0.28317 0.1956 0.0
C28 C 0.52523 0.17644 1.02347 0.0
C29 C 0.48753 0.16363 0.95145 0.0
H30 H 0.41879 0.15555 0.84103 0.0
H31 H 0.35152 0.19552 0.82294 0.0
H32 H 0.48016 0.29047 0.29408 0.0
H33 H 0.53556 0.25875 0.21769 0.0
H34 H 0.55578 0.15886 1.0244 0.0
H35 H 0.49525 0.13945 0.90782 0.0
Mn36 Mn 0.65896 0.37413 1.00316 0.0
Mn37 Mn 0.63146 0.27058 1.01342 0.0
C38 C 0.58617 0.35519 1.00543 0.0
C39 C 0.67354 0.44485 0.03994 0.0
C40 C 0.67299 0.31064 0.86722 0.0
O41 O 0.71142 0.34662 0.05916 0.0
O42 O 0.68915 0.27782 0.06569 0.0
C43 C 0.63102 0.23433 0.17801 0.0
N44 N 0.608 0.24566 0.1114 0.0
C45 C 0.55032 0.18864 0.15837 0.0
C46 C 0.57774 0.18013 0.22259 0.0
C47 C 0.61648 0.20291 0.23244 0.0
C48 C 0.57008 0.2266 0.09516 0.0
H49 H 0.66205 0.24868 0.18958 0.0
C50 C 0.71601 0.30781 0.08292 0.0
O51 O 0.68902 0.42788 0.97597 0.0
O52 O 0.65245 0.41958 0.08827 0.0
N53 N 0.57537 0.26561 0.96479 0.0
C54 C 0.56326 0.27803 0.88978 0.0
C55 C 0.52046 0.27412 0.863 0.0
C56 C 0.48745 0.25615 0.90964 0.0
C57 C 0.49683 0.23607 0.98569 0.0
C58 C 0.54747 0.24747 1.01518 0.0
H59 H 0.58619 0.29311 0.85011 0.0
O60 O 0.59948 0.38843 0.96595 0.0
O61 O 0.61625 0.33127 0.03818 0.0
O62 O 0.6744 0.34778 0.89501 0.0
O63 O 0.65748 0.28041 0.90773 0.0
C64 C 0.46326 0.17791 0.08266 0.0
C65 C 0.50044 0.16509 0.15564 0.0
H66 H 0.56848 0.15681 0.26733 0.0
H67 H 0.63654 0.19556 0.28395 0.0
H68 H 0.51237 0.28651 0.80413 0.0
H69 H 0.45599 0.25659 0.88142 0.0
H70 H 0.43217 0.16125 0.08294 0.0
H71 H 0.49185 0.14194 0.20108 0.0
Mn72 Mn 0.6593 0.70144 0.09606 0.0
Mn73 Mn 0.63001 0.80453 0.08367 0.0
C74 C 0.58637 0.71938 0.09551 0.0
C75 C 0.67412 0.63028 0.06275 0.0
C76 C 0.67246 0.76617 0.23032 0.0
O77 O 0.71074 0.72915 0.03776 0.0
O78 O 0.68798 0.79783 0.0322 0.0
C79 C 0.62984 0.84057 0.919 0.0
N80 N 0.60656 0.82891 0.98505 0.0
C81 C 0.54983 0.88733 0.93972 0.0
C82 C 0.57744 0.89597 0.87588 0.0
C83 C 0.61578 0.87263 0.86541 0.0
C84 C 0.56876 0.84822 1.00133 0.0
H85 H 0.66078 0.82605 0.90737 0.0
C86 C 0.71493 0.76805 1.01433 0.0
O87 O 0.69046 0.64856 0.12465 0.0
O88 O 0.65248 0.6546 1.01352 0.0
N89 N 0.57373 0.80897 0.13126 0.0
C90 C 0.56153 0.79623 0.20598 0.0
C91 C 0.51871 0.79995 0.23237 0.0
C92 C 0.48596 0.81855 0.18611 0.0
C93 C 0.49573 0.83947 0.11108 0.0
C94 C 0.54591 0.82719 0.08077 0.0
H95 H 0.58441 0.78099 0.24558 0.0
O96 O 0.60051 0.68673 0.13584 0.0
O97 O 0.61573 0.7434 0.06081 0.0
O98 O 0.67538 0.72914 0.20251 0.0
O99 O 0.65564 0.79578 0.19001 0.0
C100 C 0.46327 0.89945 1.01681 0.0
C101 C 0.50055 0.91212 0.94382 0.0
H102 H 0.56866 0.91993 0.83201 0.0
H103 H 0.63603 0.88018 0.8143 0.0
H104 H 0.51055 0.7875 0.29113 0.0
H105 H 0.4545 0.81822 0.21426 0.0
H106 H 0.43259 0.91681 1.0175 0.0
H107 H 0.49245 0.93598 0.89937 0.0
Mn108 Mn 0.33042 0.701 1.00566 0.0
Mn109 Mn 0.35769 0.80473 1.01119 0.0
C110 C 0.40302 0.72038 1.00365 0.0
C111 C 0.31677 0.63081 0.04729 0.0
C112 C 0.31514 0.7638 0.86768 0.0
O113 O 0.27881 0.72838 0.06333 0.0
O114 O 0.30011 0.79751 0.06424 0.0
C115 C 0.35861 0.84158 0.17474 0.0
N116 N 0.38141 0.83013 0.10819 0.0
C117 C 0.43886 0.88781 0.15245 0.0
C118 C 0.41164 0.89644 0.21673 0.0
C119 C 0.37315 0.87338 0.22791 0.0
C120 C 0.41914 0.84934 0.09089 0.0
H121 H 0.32778 0.82702 0.18725 0.0
C122 C 0.27375 0.76746 0.08412 0.0
O123 O 0.2996 0.64694 0.9837 0.0
O124 O 0.33965 0.65631 0.09173 0.0
N125 N 0.41358 0.80977 0.96186 0.0
C126 C 0.42543 0.79717 0.88704 0.0
C127 C 0.4681 0.80113 0.85967 0.0
C128 C 0.50119 0.81942 0.9054 0.0
C129 C 0.49198 0.83983 0.98087 0.0
C130 C 0.44158 0.82821 1.0114 0.0
H131 H 0.40242 0.78185 0.84805 0.0
O132 O 0.38939 0.68694 0.96559 0.0
O133 O 0.37327 0.74424 0.03697 0.0
O134 O 0.31288 0.72697 0.89752 0.0
O135 O 0.33166 0.79406 0.9062 0.0
C136 C 0.52551 0.89879 0.07522 0.0
C137 C 0.48853 0.91175 0.14822 0.0
H138 H 0.4209 0.92006 0.26053 0.0
H139 H 0.35326 0.88082 0.27945 0.0
H140 H 0.47602 0.78854 0.8011 0.0
H141 H 0.53255 0.81897 0.87687 0.0
H142 H 0.55647 0.9157 0.07446 0.0
H143 H 0.49712 0.93522 0.1927 0.0
Mn144 Mn 0.8301 0.87585 0.59231 0.0
Mn145 Mn 0.85787 0.77232 0.5845 0.0
C146 C 0.903 0.85647 0.59462 0.0
C147 C 0.81753 0.94651 0.55189 0.0
C148 C 0.81461 0.81178 0.72834 0.0
O149 O 0.77862 0.84894 0.53255 0.0
O150 O 0.80034 0.77992 0.53212 0.0
C151 C 0.85819 0.73601 0.42065 0.0
N152 N 0.88127 0.74728 0.48706 0.0
C153 C 0.93838 0.68954 0.44186 0.0
C154 C 0.91104 0.68128 0.37753 0.0
C155 C 0.87253 0.70439 0.36697 0.0
C156 C 0.91886 0.72775 0.50416 0.0
H157 H 0.82721 0.75049 0.40876 0.0
C158 C 0.77369 0.80969 0.51251 0.0
O159 O 0.79959 0.93018 0.61458 0.0
O160 O 0.84024 0.92093 0.50746 0.0
N161 N 0.91365 0.76683 0.6338 0.0
C162 C 0.92554 0.77897 0.70892 0.0
C163 C 0.96815 0.77454 0.73641 0.0
C164 C 0.00108 0.75624 0.69048 0.0
C165 C 0.99173 0.73627 0.61462 0.0
C166 C 0.94143 0.74832 0.58415 0.0
H167 H 0.90263 0.79428 0.74808 0.0
O168 O 0.88912 0.88942 0.6338 0.0
O169 O 0.87335 0.83289 0.56031 0.0
O170 O 0.81154 0.84893 0.69988 0.0
O171 O 0.83223 0.78257 0.68905 0.0
C172 C 0.02499 0.67774 0.51908 0.0
C173 C 0.98795 0.66538 0.44571 0.0
H174 H 0.92016 0.65782 0.33334 0.0
H175 H 0.85245 0.69711 0.31556 0.0
H176 H 0.97613 0.78678 0.79525 0.0
H177 H 0.03243 0.75632 0.71915 0.0
H178 H 0.05587 0.66072 0.51954 0.0
H179 H -0.00357 0.64212 0.40079 0.0
Mn180 Mn 0.16024 0.87453 0.50296 0.0
Mn181 Mn 0.12966 0.77182 0.51319 0.0
C182 C 0.08684 0.85731 0.50351 0.0
C183 C 0.17558 0.94509 0.53971 0.0
C184 C 0.1725 0.81043 0.36726 0.0
O185 O 0.21171 0.84599 0.56062 0.0
O186 O 0.18768 0.77772 0.5643 0.0
C187 C 0.12953 0.73467 0.67692 0.0
N188 N 0.10624 0.74686 0.61117 0.0
C189 C 0.04935 0.68827 0.65489 0.0
C190 C 0.07694 0.67912 0.71857 0.0
C191 C 0.11539 0.70225 0.72964 0.0
C192 C 0.06846 0.72769 0.59419 0.0
H193 H 0.16053 0.74903 0.68891 0.0
C194 C 0.21543 0.80673 0.58224 0.0
O195 O 0.19159 0.92771 0.47654 0.0
O196 O 0.1537 0.92018 0.58745 0.0
N197 N 0.07342 0.76807 0.46544 0.0
C198 C 0.06125 0.78149 0.3911 0.0
C199 C 0.01847 0.77798 0.36441 0.0
C200 C 0.98574 0.75891 0.40993 0.0
C201 C -0.00452 0.73739 0.4844 0.0
C202 C 0.04567 0.74931 0.51516 0.0
H203 H 0.08414 0.79712 0.35207 0.0
O204 O 0.10134 0.89002 0.46387 0.0
O205 O 0.11605 0.83281 0.53741 0.0
O206 O 0.17619 0.84744 0.3952 0.0
O207 O 0.15505 0.78127 0.40753 0.0
C208 C 0.96273 0.677 0.57731 0.0
C209 C -5e-05 0.66372 0.65012 0.0
H210 H 0.06809 0.6549 0.76185 0.0
H211 H 0.13566 0.69425 0.78053 0.0
H212 H 0.01033 0.79094 0.30602 0.0
H213 H 0.9543 0.75944 0.38163 0.0
H214 H 0.93195 0.65981 0.57621 0.0
H215 H 0.99172 0.63964 0.69403 0.0
Mn216 Mn 0.1613 0.20128 0.59592 0.0
Mn217 Mn 0.13139 0.30419 0.58826 0.0
C218 C 0.08804 0.21891 0.59602 0.0
C219 C 0.17604 0.13051 0.5605 0.0
C220 C 0.17395 0.26443 0.73329 0.0
O221 O 0.21276 0.22965 0.53816 0.0
O222 O 0.18958 0.29822 0.53755 0.0
C223 C 0.13189 0.34195 0.42497 0.0
N224 N 0.10838 0.32967 0.49034 0.0
C225 C 0.05185 0.38857 0.4465 0.0
C226 C 0.07969 0.39785 0.38332 0.0
C227 C 0.11807 0.3746 0.37246 0.0
C228 C 0.07057 0.34887 0.50696 0.0
H229 H 0.16281 0.32746 0.41309 0.0
C230 C 0.2169 0.26909 0.51805 0.0
O231 O 0.19255 0.14826 0.62277 0.0
O232 O 0.15434 0.15516 0.51196 0.0
N233 N 0.07496 0.30803 0.6353 0.0
C234 C 0.06247 0.29434 0.70925 0.0
C235 C 0.01961 0.29796 0.7354 0.0
C236 C 0.98712 0.31739 0.68976 0.0
C237 C -0.0028 0.33913 0.6157 0.0
C238 C 0.04744 0.32708 0.58544 0.0
H239 H 0.08516 0.27844 0.74833 0.0
O240 O 0.10241 0.18606 0.63539 0.0
O241 O 0.11734 0.2434 0.56237 0.0
O242 O 0.17768 0.22791 0.70345 0.0
O243 O 0.15644 0.29421 0.69456 0.0
C244 C 0.96507 0.40001 0.52312 0.0
C245 C 0.00257 0.41334 0.45095 0.0
H246 H 0.07109 0.42226 0.34023 0.0
H247 H 0.13852 0.38268 0.3219 0.0
H248 H 0.0112 0.28479 0.7935 0.0
H249 H 0.95558 0.31693 0.71765 0.0
H250 H 0.93438 0.41735 0.52404 0.0
H251 H 0.99461 0.43762 0.40724 0.0
Mn252 Mn 0.83126 0.20192 0.50573 0.0
Mn253 Mn 0.85958 0.30533 0.51341 0.0
C254 C 0.90428 0.2209 0.50377 0.0
C255 C 0.81807 0.13127 0.54579 0.0
C256 C 0.81652 0.26591 0.36906 0.0
O257 O 0.77986 0.22911 0.56505 0.0
O258 O 0.80177 0.29806 0.56516 0.0
C259 C 0.85966 0.34118 0.67768 0.0
N260 N 0.88283 0.33002 0.61137 0.0
C261 C 0.94026 0.38715 0.65812 0.0
C262 C 0.91276 0.39538 0.72219 0.0
C263 C 0.87406 0.37249 0.73196 0.0
C264 C 0.92068 0.34927 0.59512 0.0
H265 H 0.82858 0.32682 0.68908 0.0
C266 C 0.77502 0.26838 0.58494 0.0
O267 O 0.80031 0.14789 0.48315 0.0
O268 O 0.84089 0.15667 0.59054 0.0
N269 N 0.91561 0.31061 0.46494 0.0
C270 C 0.92767 0.29868 0.38983 0.0
C271 C 0.97039 0.30298 0.36293 0.0
C272 C 0.0033 0.32097 0.40948 0.0
C273 C 0.99385 0.34072 0.48547 0.0
C274 C 0.94337 0.32883 0.51517 0.0
H275 H 0.90479 0.28364 0.35018 0.0
O276 O 0.89024 0.18797 0.46466 0.0
O277 O 0.87471 0.24466 0.53784 0.0
O278 O 0.81314 0.22892 0.39812 0.0
O279 O 0.83417 0.29525 0.40816 0.0
C280 C 0.02714 0.39875 0.58213 0.0
C281 C 0.98997 0.41105 0.65518 0.0
H282 H 0.9219 0.41863 0.76677 0.0
H283 H 0.85388 0.37972 0.78322 0.0
H284 H 0.97848 0.29092 0.30404 0.0
H285 H 0.03473 0.32083 0.38119 0.0
H286 H 0.05811 0.41562 0.58226 0.0
H287 H -0.00156 0.43412 0.70048 0.0
C288 C 0.3534 0.51605 0.03669 0.0
C289 C 0.31445 0.49323 0.04497 0.0
C290 C 0.35432 0.56067 0.04336 0.0
C291 C 0.31628 0.58408 0.0575 0.0
H292 H 0.38355 0.49922 1.02743 0.0
H293 H 0.38484 0.57707 0.03512 0.0
S294 S 0.20599 0.53976 0.08142 0.0
N295 N 0.23703 0.49758 0.06862 0.0
N296 N 0.23857 0.58134 0.07672 0.0
C297 C 0.27716 0.56174 0.06445 0.0
C298 C 0.27632 0.51637 0.05958 0.0
C299 C 0.46243 0.35106 0.99596 0.0
C300 C 0.44982 0.35562 0.07663 0.0
C301 C 0.50638 0.35267 0.9733 0.0
C302 C 0.53976 0.35333 1.03075 0.0
H303 H 0.43807 0.34849 0.94946 0.0
H304 H 0.51426 0.35345 0.91011 0.0
S305 S 0.52439 0.37673 0.24663 0.0
N306 N 0.4746 0.37295 0.21107 0.0
N307 N 0.55696 0.3667 0.1704 0.0
C308 C 0.52763 0.35975 0.11114 0.0
C309 C 0.48282 0.36286 0.13336 0.0
C310 C 0.6753 0.51767 0.97876 0.0
C311 C 0.67484 0.49189 0.04855 0.0
C312 C 0.67476 0.56232 0.98306 0.0
C313 C 0.67505 0.58303 0.05742 0.0
H314 H 0.67513 0.50321 0.91986 0.0
H315 H 0.67453 0.58068 0.9279 0.0
S316 S 0.674 0.5304 0.25808 0.0
N317 N 0.67404 0.49056 0.19392 0.0
N318 N 0.67459 0.57415 0.20297 0.0
C319 C 0.67505 0.55758 0.12775 0.0
C320 C 0.6745 0.51216 0.12314 0.0
C321 C 0.48276 0.72282 0.97068 0.0
C322 C 0.44949 0.72237 1.0283 0.0
C323 C 0.52672 0.72512 0.99319 0.0
C324 C 0.53941 0.72156 0.07408 0.0
H325 H 0.47477 0.7215 0.90755 0.0
H326 H 0.55103 0.72743 0.94656 0.0
S327 S 0.46526 0.70135 0.24531 0.0
N328 N 0.43254 0.71033 0.16865 0.0
N329 N 0.51497 0.70524 0.20941 0.0
C330 C 0.50656 0.71454 0.13124 0.0
C331 C 0.46174 0.71696 0.10898 0.0
C332 C 0.77969 1.01655 0.53814 0.0
C333 C 0.81851 0.99338 0.54315 0.0
C334 C 0.77958 0.06125 0.54181 0.0
C335 C 0.818 0.08432 0.55495 0.0
H336 H 0.7492 0.99997 0.53112 0.0
H337 H 0.74916 0.07793 0.53445 0.0
S338 S 0.92797 0.03844 0.57564 0.0
N339 N 0.89628 0.99672 0.56273 0.0
N340 N 0.89587 0.08042 0.57316 0.0
C341 C 0.85687 0.06141 0.56189 0.0
C342 C 0.85717 1.01605 0.55524 0.0
C343 C 0.02691 0.85138 0.6056 0.0
C344 C 0.03975 0.85536 0.52483 0.0
C345 C 0.9829 0.85377 0.62797 0.0
C346 C 0.94963 0.85478 0.57024 0.0
H347 H 0.05117 0.84861 0.65229 0.0
H348 H 0.97488 0.85465 0.69109 0.0
S349 S 0.96579 0.87709 0.35378 0.0
N350 N 0.01544 0.87267 0.38981 0.0
N351 N 0.93295 0.86782 0.43008 0.0
C352 C 0.96204 0.86066 0.48976 0.0
C353 C 0.00693 0.86294 0.46775 0.0
C354 C 0.18172 0.06242 0.48188 0.0
C355 C 0.17617 0.08335 0.55522 0.0
C356 C 0.18276 1.01774 0.47848 0.0
C357 C 0.17707 0.99221 0.5479 0.0
H358 H 0.18587 0.0806 0.42707 0.0
H359 H 0.18715 1.00309 0.42034 0.0
S360 S 0.15923 1.03184 0.75419 0.0
N361 N 0.16412 0.07529 0.69901 0.0
N362 N 0.16462 0.99166 0.69158 0.0
C363 C 0.17076 1.01285 0.62128 0.0
C364 C 0.1707 0.05828 0.62514 0.0
C365 C 0.98424 0.22341 0.47101 0.0
C366 C 0.95089 0.2223 0.5285 0.0
C367 C 0.02823 0.22551 0.4937 0.0
C368 C 0.04097 0.22108 0.57447 0.0
H369 H 0.97629 0.22282 0.40783 0.0
H370 H 0.05255 0.22839 0.44719 0.0
S371 S 0.96669 0.19882 0.74466 0.0
N372 N 0.93398 0.2086 0.66832 0.0
N373 N 0.01641 0.20322 0.70903 0.0
C374 C 0.00804 0.21336 0.63121 0.0
C375 C 0.96318 0.21594 0.60895 0.0
C376 C 0.26939 0.24981 0.4086 0.0
C377 C 0.25046 0.28123 0.45721 0.0
C378 C 0.29227 0.26052 0.33846 0.0
C379 C 0.29715 0.30315 0.31321 0.0
H380 H 0.26439 0.21646 0.42194 0.0
H381 H 0.30439 0.23483 0.30174 0.0
S382 S 0.26059 0.39799 0.42616 0.0
N383 N 0.24368 0.35733 0.48063 0.0
N384 N 0.28569 0.37716 0.34827 0.0
C385 C 0.2812 0.33501 0.36425 0.0
C386 C 0.25828 0.32415 0.43626 0.0
C387 C 0.75527 0.25495 0.17081 0.0
C388 C 0.74974 0.29744 0.14479 0.0
C389 C 0.7782 0.24481 0.24129 0.0
C390 C 0.79722 0.27659 0.28883 0.0
H391 H 0.73985 0.22919 0.13874 0.0
H392 H 0.77966 0.21184 0.25998 0.0
S393 S 0.79766 0.39247 0.24214 0.0
N394 N 0.76917 0.37118 0.16887 0.0
N395 N 0.81272 0.35236 0.29974 0.0
C396 C 0.79478 0.31896 0.26031 0.0
C397 C 0.77113 0.32928 0.18877 0.0
C398 C 0.72233 0.82984 0.40144 0.0
C399 C 0.73968 0.79833 0.45235 0.0
C400 C 0.69885 0.81911 0.33212 0.0
C401 C 0.69177 0.77638 0.31028 0.0
H402 H 0.72911 0.86309 0.41228 0.0
H403 H 0.68807 0.8447 0.29331 0.0
S404 S 0.72358 0.6818 0.4305 0.0
N405 N 0.74273 0.72247 0.48165 0.0
N406 N 0.69938 0.70251 0.35114 0.0
C407 C 0.70609 0.74464 0.36379 0.0
C408 C 0.7297 0.75555 0.43476 0.0
C409 C 0.2116 0.83116 0.24011 0.0
C410 C 0.19157 0.79961 0.28725 0.0
C411 C 0.23489 0.82078 0.17047 0.0
C412 C 0.23984 0.77827 0.14506 0.0
H413 H 0.21074 0.86409 0.25861 0.0
H414 H 0.25107 0.84635 0.13875 0.0
S415 S 0.18843 0.68402 0.24057 0.0
N416 N 0.17393 0.72424 0.29773 0.0
N417 N 0.21823 0.7049 0.16836 0.0
C418 C 0.21725 0.74673 0.1883 0.0
C419 C 0.19318 0.75732 0.25896 0.0
C420 C 0.26794 0.82634 0.69138 0.0
C421 C 0.24906 0.7948 0.64303 0.0
C422 C 0.29084 0.8158 0.76159 0.0
C423 C 0.29584 0.77322 0.7871 0.0
H424 H 0.26284 0.85966 0.67783 0.0
H425 H 0.30295 0.84161 0.79807 0.0
S426 S 0.25927 0.67812 0.6748 0.0
N427 N 0.24227 0.71866 0.62011 0.0
N428 N 0.28445 0.69911 0.7525 0.0
C429 C 0.27994 0.74123 0.73625 0.0
C430 C 0.25692 0.75193 0.66424 0.0
C431 C 0.22154 0.32743 0.90748 0.0
C432 C 0.24064 0.29602 0.95646 0.0
C433 C 0.1983 0.31672 0.83792 0.0
C434 C 0.19318 0.2741 0.81364 0.0
H435 H 0.22664 0.36079 0.92008 0.0
H436 H 0.1861 0.34241 0.80083 0.0
S437 S 0.23002 0.17926 0.92803 0.0
N438 N 0.24733 0.21993 0.98139 0.0
N439 N 0.20458 0.20008 0.85011 0.0
C440 C 0.20926 0.24224 0.86516 0.0
C441 C 0.23259 0.25311 0.93658 0.0
C442 C 0.69918 0.25844 0.76383 0.0
C443 C 0.69258 0.30104 0.78712 0.0
C444 C 0.72287 0.24805 0.69461 0.0
C445 C 0.74099 0.27977 0.64513 0.0
H446 H 0.68777 0.2326 0.8014 0.0
H447 H 0.72912 0.21481 0.68272 0.0
S448 S 0.72666 0.39629 0.67096 0.0
N449 N 0.70167 0.37517 0.74904 0.0
N450 N 0.74541 0.35586 0.61871 0.0
C451 C 0.73158 0.32252 0.66409 0.0
C452 C 0.70772 0.33308 0.735 0.0
C453 C 0.75443 0.82143 0.92795 0.0
C454 C 0.74824 0.77872 0.95205 0.0
C455 C 0.77714 0.83208 0.85748 0.0
C456 C 0.79514 0.80057 0.80807 0.0
H457 H 0.73977 0.84701 0.96167 0.0
H458 H 0.77932 0.86525 0.84039 0.0
S459 S 0.79245 0.68398 0.84805 0.0
N460 N 0.76529 0.7049 0.92331 0.0
N461 N 0.80824 0.72457 0.79243 0.0
C462 C 0.79169 0.75784 0.83428 0.0
C463 C 0.76838 0.74704 0.90581 0.0
loop_
_geom_bond_atom_site_label_1
_geom_bond_atom_site_label_2
_geom_bond_distance
_geom_bond_site_symmetry_2
_ccdc_geom_bond_type
Mn0 O5 2.095 1_554 S
Mn0 O15 2.162 . S
Mn0 O16 2.297 1_554 S
Mn0 O24 2.385 . S
Mn0 O25 2.209 . S
Mn0 O26 2.094 . S
Mn1 O6 2.121 1_554 S
Mn1 N8 2.257 1_554 S
Mn1 N17 2.282 . S
Mn1 O25 2.215 . S
Mn1 O27 2.117 . S
C2 O24 1.234 . S
C2 O25 1.283 . S
C3 O15 1.281 . S
C3 O16 1.236 1_554 S
C4 O26 1.240 . S
C4 O27 1.264 . S
O5 Mn0 2.095 1_556 S
O5 C14 1.250 . S
O6 Mn1 2.121 1_556 S
O6 C14 1.258 . S
C7 N8 1.326 . S
C7 C11 1.460 . S
C7 H13 0.929 . S
N8 Mn1 2.257 1_556 S
N8 C7 1.326 . S
N8 C12 1.362 . S
C9 C10 1.258 . S
C9 C12 1.431 . S
C9 C29 1.449 . S
C10 C9 1.258 . S
C10 C11 1.477 . S
C10 H30 0.931 . S
C11 C7 1.460 . S
C11 C10 1.477 . S
C11 H31 0.930 . S
C12 N8 1.362 . S
C12 C9 1.431 . S
C12 C22 1.476 1_556 S
H13 C7 0.929 . S
C14 O5 1.250 . S
C14 O6 1.258 . S
O15 Mn0 2.162 . S
O15 C3 1.281 . S
O16 Mn0 2.297 1_556 S
O16 C3 1.236 1_556 S
N17 Mn1 2.282 . S
N17 C18 1.328 . S
N17 C22 1.318 . S
C18 N17 1.328 . S
C18 C19 1.457 . S
C18 H23 0.929 . S
C19 C18 1.457 . S
C19 C20 1.291 . S
C19 H32 0.931 . S
C20 C19 1.291 . S
C20 C21 1.373 . S
C20 H33 0.929 . S
C21 C20 1.373 . S
C21 C22 1.396 . S
C21 C28 1.403 . S
C22 C12 1.476 1_554 S
C22 N17 1.318 . S
C22 C21 1.396 . S
H23 C18 0.929 . S
O24 Mn0 2.385 . S
O24 C2 1.234 . S
O25 Mn0 2.209 . S
O25 Mn1 2.215 . S
O25 C2 1.283 . S
O26 Mn0 2.094 . S
O26 C4 1.240 . S
O27 Mn1 2.117 . S
O27 C4 1.264 . S
C28 C21 1.403 . S
C28 C29 1.399 1_554 S
C28 H34 0.929 . S
C29 C9 1.449 . S
C29 C28 1.399 1_556 S
C29 H35 0.930 . S
H30 C10 0.931 . S
H31 C11 0.930 . S
H32 C19 0.931 . S
H33 C20 0.929 . S
H34 C28 0.929 . S
H35 C29 0.930 . S
Mn36 O41 2.095 1_556 S
Mn36 O51 2.162 . S
Mn36 O52 2.297 1_556 S
Mn36 O60 2.385 . S
Mn36 O61 2.209 1_556 S
Mn36 O62 2.094 . S
Mn37 O42 2.121 . S
Mn37 N44 2.257 . S
Mn37 N53 2.282 1_554 S
Mn37 O61 2.215 . S
Mn37 O63 2.117 1_554 S
C38 O60 1.234 . S
C38 O61 1.283 1_556 S
C39 O51 1.281 1_554 S
C39 O52 1.236 . S
C40 O62 1.240 . S
C40 O63 1.264 . S
O41 Mn36 2.095 1_554 S
O41 C50 1.250 . S
O42 Mn37 2.121 . S
O42 C50 1.258 . S
C43 N44 1.326 . S
C43 C47 1.460 . S
C43 H49 0.929 . S
N44 Mn37 2.257 . S
N44 C43 1.326 . S
N44 C48 1.362 . S
C45 C46 1.258 . S
C45 C48 1.431 . S
C45 C65 1.449 . S
C46 C45 1.258 . S
C46 C47 1.477 . S
C46 H66 0.931 . S
C47 C43 1.460 . S
C47 C46 1.477 . S
C47 H67 0.930 . S
C48 N44 1.362 . S
C48 C45 1.431 . S
C48 C58 1.476 1_554 S
H49 C43 0.929 . S
C50 O41 1.250 . S
C50 O42 1.258 . S
O51 Mn36 2.162 . S
O51 C39 1.281 1_556 S
O52 Mn36 2.297 1_554 S
O52 C39 1.236 . S
N53 Mn37 2.282 1_556 S
N53 C54 1.328 . S
N53 C58 1.318 . S
C54 N53 1.328 . S
C54 C55 1.457 . S
C54 H59 0.929 . S
C55 C54 1.457 . S
C55 C56 1.291 . S
C55 H68 0.931 . S
C56 C55 1.291 . S
C56 C57 1.373 . S
C56 H69 0.929 . S
C57 C56 1.373 . S
C57 C58 1.396 . S
C57 C64 1.403 . S
C58 C48 1.476 1_556 S
C58 N53 1.318 . S
C58 C57 1.396 . S
H59 C54 0.929 . S
O60 Mn36 2.385 . S
O60 C38 1.234 . S
O61 Mn36 2.209 1_554 S
O61 Mn37 2.215 . S
O61 C38 1.283 1_554 S
O62 Mn36 2.094 . S
O62 C40 1.240 . S
O63 Mn37 2.117 1_556 S
O63 C40 1.264 . S
C64 C57 1.403 . S
C64 C65 1.399 1_556 S
C64 H70 0.929 . S
C65 C45 1.449 . S
C65 C64 1.399 1_554 S
C65 H71 0.930 . S
H66 C46 0.931 . S
H67 C47 0.930 . S
H68 C55 0.931 . S
H69 C56 0.929 . S
H70 C64 0.929 . S
H71 C65 0.930 . S
Mn72 O77 2.095 1_554 S
Mn72 O87 2.162 . S
Mn72 O88 2.297 1_554 S
Mn72 O96 2.385 . S
Mn72 O97 2.209 . S
Mn72 O98 2.094 . S
Mn73 O78 2.121 1_554 S
Mn73 N80 2.257 1_554 S
Mn73 N89 2.282 . S
Mn73 O97 2.215 . S
Mn73 O99 2.117 . S
C74 O96 1.234 . S
C74 O97 1.283 . S
C75 O87 1.281 . S
C75 O88 1.236 1_554 S
C76 O98 1.240 . S
C76 O99 1.264 . S
O77 Mn72 2.095 1_556 S
O77 C86 1.250 . S
O78 Mn73 2.121 1_556 S
O78 C86 1.258 . S
C79 N80 1.326 . S
C79 C83 1.460 . S
C79 H85 0.929 . S
N80 Mn73 2.257 1_556 S
N80 C79 1.326 . S
N80 C84 1.362 . S
C81 C82 1.258 . S
C81 C84 1.431 . S
C81 C101 1.449 . S
C82 C81 1.258 . S
C82 C83 1.477 . S
C82 H102 0.931 . S
C83 C79 1.460 . S
C83 C82 1.477 . S
C83 H103 0.930 . S
C84 N80 1.362 . S
C84 C81 1.431 . S
C84 C94 1.476 1_556 S
H85 C79 0.929 . S
C86 O77 1.250 . S
C86 O78 1.258 . S
O87 Mn72 2.162 . S
O87 C75 1.281 . S
O88 Mn72 2.297 1_556 S
O88 C75 1.236 1_556 S
N89 Mn73 2.282 . S
N89 C90 1.328 . S
N89 C94 1.318 . S
C90 N89 1.328 . S
C90 C91 1.457 . S
C90 H95 0.929 . S
C91 C90 1.457 . S
C91 C92 1.291 . S
C91 H104 0.931 . S
C92 C91 1.291 . S
C92 C93 1.373 . S
C92 H105 0.929 . S
C93 C92 1.373 . S
C93 C94 1.396 . S
C93 C100 1.403 . S
C94 C84 1.476 1_554 S
C94 N89 1.318 . S
C94 C93 1.396 . S
H95 C90 0.929 . S
O96 Mn72 2.385 . S
O96 C74 1.234 . S
O97 Mn72 2.209 . S
O97 Mn73 2.215 . S
O97 C74 1.283 . S
O98 Mn72 2.094 . S
O98 C76 1.240 . S
O99 Mn73 2.117 . S
O99 C76 1.264 . S
C100 C93 1.403 . S
C100 C101 1.399 1_554 S
C100 H106 0.929 . S
C101 C81 1.449 . S
C101 C100 1.399 1_556 S
C101 H107 0.930 . S
H102 C82 0.931 . S
H103 C83 0.930 . S
H104 C91 0.931 . S
H105 C92 0.929 . S
H106 C100 0.929 . S
H107 C101 0.930 . S
Mn108 O113 2.095 1_556 S
Mn108 O123 2.162 . S
Mn108 O124 2.297 1_556 S
Mn108 O132 2.385 . S
Mn108 O133 2.209 1_556 S
Mn108 O134 2.094 . S
Mn109 O114 2.121 . S
Mn109 N116 2.257 . S
Mn109 N125 2.282 1_554 S
Mn109 O133 2.215 . S
Mn109 O135 2.117 1_554 S
C110 O132 1.234 . S
C110 O133 1.283 1_556 S
C111 O123 1.281 1_554 S
C111 O124 1.236 . S
C112 O134 1.240 . S
C112 O135 1.264 . S
O113 Mn108 2.095 1_554 S
O113 C122 1.250 . S
O114 Mn109 2.121 . S
O114 C122 1.258 . S
C115 N116 1.326 . S
C115 C119 1.460 . S
C115 H121 0.929 . S
N116 Mn109 2.257 . S
N116 C115 1.326 . S
N116 C120 1.362 . S
C117 C118 1.258 . S
C117 C120 1.431 . S
C117 C137 1.449 . S
C118 C117 1.258 . S
C118 C119 1.477 . S
C118 H138 0.931 . S
C119 C115 1.460 . S
C119 C118 1.477 . S
C119 H139 0.930 . S
C120 N116 1.362 . S
C120 C117 1.431 . S
C120 C130 1.476 1_554 S
H121 C115 0.929 . S
C122 O113 1.250 . S
C122 O114 1.258 . S
O123 Mn108 2.162 . S
O123 C111 1.281 1_556 S
O124 Mn108 2.297 1_554 S
O124 C111 1.236 . S
N125 Mn109 2.282 1_556 S
N125 C126 1.328 . S
N125 C130 1.318 . S
C126 N125 1.328 . S
C126 C127 1.457 . S
C126 H131 0.929 . S
C127 C126 1.457 . S
C127 C128 1.291 . S
C127 H140 0.931 . S
C128 C127 1.291 . S
C128 C129 1.373 . S
C128 H141 0.929 . S
C129 C128 1.373 . S
C129 C130 1.396 . S
C129 C136 1.403 . S
C130 C120 1.476 1_556 S
C130 N125 1.318 . S
C130 C129 1.396 . S
H131 C126 0.929 . S
O132 Mn108 2.385 . S
O132 C110 1.234 . S
O133 Mn108 2.209 1_554 S
O133 Mn109 2.215 . S
O133 C110 1.283 1_554 S
O134 Mn108 2.094 . S
O134 C112 1.240 . S
O135 Mn109 2.117 1_556 S
O135 C112 1.264 . S
C136 C129 1.403 . S
C136 C137 1.399 1_556 S
C136 H142 0.929 . S
C137 C117 1.449 . S
C137 C136 1.399 1_554 S
C137 H143 0.930 . S
H138 C118 0.931 . S
H139 C119 0.930 . S
H140 C127 0.931 . S
H141 C128 0.929 . S
H142 C136 0.929 . S
H143 C137 0.930 . S
Mn144 O149 2.095 . S
Mn144 O159 2.162 . S
Mn144 O160 2.297 . S
Mn144 O168 2.385 . S
Mn144 O169 2.209 . S
Mn144 O170 2.094 . S
Mn145 O150 2.121 . S
Mn145 N152 2.257 . S
Mn145 N161 2.282 . S
Mn145 O169 2.215 . S
Mn145 O171 2.117 . S
C146 O168 1.234 . S
C146 O169 1.283 . S
C147 O159 1.281 . S
C147 O160 1.236 . S
C148 O170 1.240 . S
C148 O171 1.264 . S
O149 Mn144 2.095 . S
O149 C158 1.250 . S
O150 Mn145 2.121 . S
O150 C158 1.258 . S
C151 N152 1.326 . S
C151 C155 1.460 . S
C151 H157 0.929 . S
N152 Mn145 2.257 . S
N152 C151 1.326 . S
N152 C156 1.362 . S
C153 C154 1.258 . S
C153 C156 1.431 . S
C153 C173 1.449 1_655 S
C154 C153 1.258 . S
C154 C155 1.477 . S
C154 H174 0.935 . S
C155 C151 1.460 . S
C155 C154 1.477 . S
C155 H175 0.930 . S
C156 N152 1.362 . S
C156 C153 1.431 . S
C156 C166 1.476 . S
H157 C151 0.929 . S
C158 O149 1.250 . S
C158 O150 1.258 . S
O159 Mn144 2.162 . S
O159 C147 1.281 . S
O160 Mn144 2.297 . S
O160 C147 1.236 . S
N161 Mn145 2.282 . S
N161 C162 1.328 . S
N161 C166 1.318 . S
C162 N161 1.328 . S
C162 C163 1.457 . S
C162 H167 0.929 . S
C163 C162 1.457 . S
C163 C164 1.291 . S
C163 H176 0.931 . S
C164 C163 1.291 . S
C164 C165 1.373 . S
C164 H177 0.929 1_655 S
C165 C164 1.373 . S
C165 C166 1.396 . S
C165 C172 1.403 1_655 S
C166 C156 1.476 . S
C166 N161 1.318 . S
C166 C165 1.396 . S
H167 C162 0.929 . S
O168 Mn144 2.385 . S
O168 C146 1.234 . S
O169 Mn144 2.209 . S
O169 Mn145 2.215 . S
O169 C146 1.283 . S
O170 Mn144 2.094 . S
O170 C148 1.240 . S
O171 Mn145 2.117 . S
O171 C148 1.264 . S
C172 C165 1.403 1_455 S
C172 C173 1.399 . S
C172 H178 0.929 . S
C173 C153 1.449 1_455 S
C173 C172 1.399 . S
C173 H179 0.930 . S
H174 C154 0.935 . S
H175 C155 0.930 . S
H176 C163 0.931 . S
H177 C164 0.929 1_455 S
H178 C172 0.929 . S
H179 C173 0.930 . S
Mn180 O185 2.095 . S
Mn180 O195 2.162 . S
Mn180 O196 2.297 . S
Mn180 O204 2.385 . S
Mn180 O205 2.209 . S
Mn180 O206 2.094 . S
Mn181 O186 2.121 . S
Mn181 N188 2.257 . S
Mn181 N197 2.282 . S
Mn181 O205 2.215 . S
Mn181 O207 2.117 . S
C182 O204 1.234 . S
C182 O205 1.283 . S
C183 O195 1.281 . S
C183 O196 1.236 . S
C184 O206 1.240 . S
C184 O207 1.264 . S
O185 Mn180 2.095 . S
O185 C194 1.250 . S
O186 Mn181 2.121 . S
O186 C194 1.258 . S
C187 N188 1.326 . S
C187 C191 1.460 . S
C187 H193 0.929 . S
N188 Mn181 2.257 . S
N188 C187 1.326 . S
N188 C192 1.362 . S
C189 C190 1.258 . S
C189 C192 1.431 . S
C189 C209 1.449 1_455 S
C190 C189 1.258 . S
C190 C191 1.477 . S
C190 H210 0.935 . S
C191 C187 1.460 . S
C191 C190 1.477 . S
C191 H211 0.930 . S
C192 N188 1.362 . S
C192 C189 1.431 . S
C192 C202 1.476 . S
H193 C187 0.929 . S
C194 O185 1.250 . S
C194 O186 1.258 . S
O195 Mn180 2.162 . S
O195 C183 1.281 . S
O196 Mn180 2.297 . S
O196 C183 1.236 . S
N197 Mn181 2.282 . S
N197 C198 1.328 . S
N197 C202 1.318 . S
C198 N197 1.328 . S
C198 C199 1.457 . S
C198 H203 0.929 . S
C199 C198 1.457 . S
C199 C200 1.291 . S
C199 H212 0.931 . S
C200 C199 1.291 . S
C200 C201 1.373 . S
C200 H213 0.929 1_455 S
C201 C200 1.373 . S
C201 C202 1.396 . S
C201 C208 1.403 1_455 S
C202 C192 1.476 . S
C202 N197 1.318 . S
C202 C201 1.396 . S
H203 C198 0.929 . S
O204 Mn180 2.385 . S
O204 C182 1.234 . S
O205 Mn180 2.209 . S
O205 Mn181 2.215 . S
O205 C182 1.283 . S
O206 Mn180 2.094 . S
O206 C184 1.240 . S
O207 Mn181 2.117 . S
O207 C184 1.264 . S
C208 C201 1.403 1_655 S
C208 C209 1.399 . S
C208 H214 0.929 . S
C209 C189 1.449 1_655 S
C209 C208 1.399 . S
C209 H215 0.930 . S
H210 C190 0.935 . S
H211 C191 0.930 . S
H212 C199 0.931 . S
H213 C200 0.929 1_655 S
H214 C208 0.929 . S
H215 C209 0.930 . S
Mn216 O221 2.095 . S
Mn216 O231 2.162 . S
Mn216 O232 2.297 . S
Mn216 O240 2.385 . S
Mn216 O241 2.209 . S
Mn216 O242 2.094 . S
Mn217 O222 2.121 . S
Mn217 N224 2.257 . S
Mn217 N233 2.282 . S
Mn217 O241 2.215 . S
Mn217 O243 2.117 . S
C218 O240 1.234 . S
C218 O241 1.283 . S
C219 O231 1.281 . S
C219 O232 1.236 . S
C220 O242 1.240 . S
C220 O243 1.264 . S
O221 Mn216 2.095 . S
O221 C230 1.250 . S
O222 Mn217 2.121 . S
O222 C230 1.258 . S
C223 N224 1.326 . S
C223 C227 1.460 . S
C223 H229 0.929 . S
N224 Mn217 2.257 . S
N224 C223 1.326 . S
N224 C228 1.362 . S
C225 C226 1.258 . S
C225 C228 1.431 . S
C225 C245 1.449 1_455 S
C226 C225 1.258 . S
C226 C227 1.477 . S
C226 H246 0.935 . S
C227 C223 1.460 . S
C227 C226 1.477 . S
C227 H247 0.930 . S
C228 N224 1.362 . S
C228 C225 1.431 . S
C228 C238 1.476 . S
H229 C223 0.929 . S
C230 O221 1.250 . S
C230 O222 1.258 . S
O231 Mn216 2.162 . S
O231 C219 1.281 . S
O232 Mn216 2.297 . S
O232 C219 1.236 . S
N233 Mn217 2.282 . S
N233 C234 1.328 . S
N233 C238 1.318 . S
C234 N233 1.328 . S
C234 C235 1.457 . S
C234 H239 0.929 . S
C235 C234 1.457 . S
C235 C236 1.291 . S
C235 H248 0.931 . S
C236 C235 1.291 . S
C236 C237 1.373 . S
C236 H249 0.929 1_455 S
C237 C236 1.373 . S
C237 C238 1.396 . S
C237 C244 1.403 1_455 S
C238 C228 1.476 . S
C238 N233 1.318 . S
C238 C237 1.396 . S
H239 C234 0.929 . S
O240 Mn216 2.385 . S
O240 C218 1.234 . S
O241 Mn216 2.209 . S
O241 Mn217 2.215 . S
O241 C218 1.283 . S
O242 Mn216 2.094 . S
O242 C220 1.240 . S
O243 Mn217 2.117 . S
O243 C220 1.264 . S
C244 C237 1.403 1_655 S
C244 C245 1.399 . S
C244 H250 0.929 . S
C245 C225 1.449 1_655 S
C245 C244 1.399 . S
C245 H251 0.930 . S
H246 C226 0.935 . S
H247 C227 0.930 . S
H248 C235 0.931 . S
H249 C236 0.929 1_655 S
H250 C244 0.929 . S
H251 C245 0.930 . S
Mn252 O257 2.095 . S
Mn252 O267 2.162 . S
Mn252 O268 2.297 . S
Mn252 O276 2.385 . S
Mn252 O277 2.209 . S
Mn252 O278 2.094 . S
Mn253 O258 2.121 . S
Mn253 N260 2.257 . S
Mn253 N269 2.282 . S
Mn253 O277 2.215 . S
Mn253 O279 2.117 . S
C254 O276 1.234 . S
C254 O277 1.283 . S
C255 O267 1.281 . S
C255 O268 1.236 . S
C256 O278 1.240 . S
C256 O279 1.264 . S
O257 Mn252 2.095 . S
O257 C266 1.250 . S
O258 Mn253 2.121 . S
O258 C266 1.258 . S
C259 N260 1.326 . S
C259 C263 1.460 . S
C259 H265 0.929 . S
N260 Mn253 2.257 . S
N260 C259 1.326 . S
N260 C264 1.362 . S
C261 C262 1.258 . S
C261 C264 1.431 . S
C261 C281 1.449 1_655 S
C262 C261 1.258 . S
C262 C263 1.477 . S
C262 H282 0.935 . S
C263 C259 1.460 . S
C263 C262 1.477 . S
C263 H283 0.930 . S
C264 N260 1.362 . S
C264 C261 1.431 . S
C264 C274 1.476 . S
H265 C259 0.929 . S
C266 O257 1.250 . S
C266 O258 1.258 . S
O267 Mn252 2.162 . S
O267 C255 1.281 . S
O268 Mn252 2.297 . S
O268 C255 1.236 . S
N269 Mn253 2.282 . S
N269 C270 1.328 . S
N269 C274 1.318 . S
C270 N269 1.328 . S
C270 C271 1.457 . S
C270 H275 0.929 . S
C271 C270 1.457 . S
C271 C272 1.291 . S
C271 H284 0.931 . S
C272 C271 1.291 . S
C272 C273 1.373 . S
C272 H285 0.929 1_655 S
C273 C272 1.373 . S
C273 C274 1.396 . S
C273 C280 1.403 1_655 S
C274 C264 1.476 . S
C274 N269 1.318 . S
C274 C273 1.396 . S
H275 C270 0.929 . S
O276 Mn252 2.385 . S
O276 C254 1.234 . S
O277 Mn252 2.209 . S
O277 Mn253 2.215 . S
O277 C254 1.283 . S
O278 Mn252 2.094 . S
O278 C256 1.240 . S
O279 Mn253 2.117 . S
O279 C256 1.264 . S
C280 C273 1.403 1_455 S
C280 C281 1.399 . S
C280 H286 0.929 . S
C281 C261 1.449 1_455 S
C281 C280 1.399 . S
C281 H287 0.930 . S
H282 C262 0.935 . S
H283 C263 0.930 . S
H284 C271 0.931 . S
H285 C272 0.929 1_455 S
H286 C280 0.929 . S
H287 C281 0.930 . S
C288 C289 1.369 1_556 S
C288 C290 1.419 . S
C288 H292 0.930 . S
C289 C288 1.369 1_554 S
C289 C298 1.429 . S
C290 C288 1.419 . S
C290 C291 1.363 1_556 S
C290 H293 0.929 . S
C291 C290 1.363 1_554 S
C291 C297 1.428 . S
H292 C288 0.930 . S
H293 C290 0.929 . S
S294 N295 1.613 . S
S294 N296 1.610 . S
N295 S294 1.613 . S
N295 C298 1.350 . S
N296 S294 1.610 . S
N296 C297 1.351 . S
C297 C291 1.428 . S
C297 N296 1.351 . S
C297 C298 1.434 . S
C298 C289 1.429 . S
C298 N295 1.350 . S
C298 C297 1.434 . S
C299 C300 1.369 1_556 S
C299 C301 1.419 . S
C299 H303 0.930 . S
C300 C299 1.369 1_554 S
C300 C309 1.429 . S
C301 C299 1.419 . S
C301 C302 1.355 1_556 S
C301 H304 0.929 . S
C302 C301 1.355 1_554 S
C302 C308 1.439 . S
H303 C299 0.930 . S
H304 C301 0.929 . S
S305 N306 1.613 . S
S305 N307 1.610 . S
N306 S305 1.613 . S
N306 C309 1.350 . S
N307 S305 1.610 . S
N307 C308 1.351 . S
C308 C302 1.439 . S
C308 N307 1.351 . S
C308 C309 1.434 . S
C309 C300 1.429 . S
C309 N306 1.350 . S
C309 C308 1.434 . S
C310 C311 1.369 1_556 S
C310 C312 1.419 . S
C310 H314 0.930 . S
C311 C310 1.369 1_554 S
C311 C320 1.429 . S
C312 C310 1.419 . S
C312 C313 1.363 1_556 S
C312 H315 0.929 . S
C313 C312 1.363 1_554 S
C313 C319 1.428 . S
H314 C310 0.930 . S
H315 C312 0.929 . S
S316 N317 1.613 . S
S316 N318 1.610 . S
N317 S316 1.613 . S
N317 C320 1.350 . S
N318 S316 1.610 . S
N318 C319 1.351 . S
C319 C313 1.428 . S
C319 N318 1.351 . S
C319 C320 1.434 . S
C320 C311 1.429 . S
C320 N317 1.350 . S
C320 C319 1.434 . S
C321 C322 1.369 1_556 S
C321 C323 1.419 . S
C321 H325 0.930 . S
C322 C321 1.369 1_554 S
C322 C331 1.429 . S
C323 C321 1.419 . S
C323 C324 1.363 1_556 S
C323 H326 0.929 . S
C324 C323 1.363 1_554 S
C324 C330 1.428 . S
H325 C321 0.930 . S
H326 C323 0.929 . S
S327 N328 1.613 . S
S327 N329 1.610 . S
N328 S327 1.613 . S
N328 C331 1.350 . S
N329 S327 1.610 . S
N329 C330 1.351 . S
C330 C324 1.428 . S
C330 N329 1.351 . S
C330 C331 1.434 . S
C331 C322 1.429 . S
C331 N328 1.350 . S
C331 C330 1.434 . S
C332 C333 1.369 . S
C332 C334 1.419 1_565 S
C332 H336 0.930 . S
C333 C332 1.369 . S
C333 C342 1.429 . S
C334 C332 1.419 1_545 S
C334 C335 1.363 . S
C334 H337 0.929 . S
C335 C334 1.363 . S
C335 C341 1.428 . S
H336 C332 0.930 . S
H337 C334 0.929 . S
S338 N339 1.613 . S
S338 N340 1.610 1_565 S
N339 S338 1.613 . S
N339 C342 1.350 . S
N340 S338 1.610 1_545 S
N340 C341 1.351 . S
C341 C335 1.428 . S
C341 N340 1.351 . S
C341 C342 1.434 1_545 S
C342 C333 1.429 . S
C342 N339 1.350 . S
C342 C341 1.434 1_565 S
C343 C344 1.369 . S
C343 C345 1.419 1_455 S
C343 H347 0.930 . S
C344 C343 1.369 . S
C344 C353 1.429 . S
C345 C343 1.419 1_655 S
C345 C346 1.363 . S
C345 H348 0.929 . S
C346 C345 1.363 . S
C346 C352 1.428 . S
H347 C343 0.930 . S
H348 C345 0.929 . S
S349 N350 1.613 1_655 S
S349 N351 1.610 . S
N350 S349 1.613 1_455 S
N350 C353 1.350 . S
N351 S349 1.610 . S
N351 C352 1.351 . S
C352 C346 1.428 . S
C352 N351 1.351 . S
C352 C353 1.434 1_655 S
C353 C344 1.429 . S
C353 N350 1.350 . S
C353 C352 1.434 1_455 S
C354 C355 1.369 . S
C354 C356 1.419 1_545 S
C354 H358 0.930 . S
C355 C354 1.369 . S
C355 C364 1.429 . S
C356 C354 1.419 1_565 S
C356 C357 1.363 . S
C356 H359 0.929 . S
C357 C356 1.363 . S
C357 C363 1.428 . S
H358 C354 0.930 . S
H359 C356 0.929 . S
S360 N361 1.613 . S
S360 N362 1.610 1_545 S
N361 S360 1.613 . S
N361 C364 1.350 . S
N362 S360 1.610 1_565 S
N362 C363 1.351 . S
C363 C357 1.428 . S
C363 N362 1.351 . S
C363 C364 1.434 1_565 S
C364 C355 1.429 . S
C364 N361 1.350 . S
C364 C363 1.434 1_545 S
C365 C366 1.369 . S
C365 C367 1.419 1_655 S
C365 H369 0.930 . S
C366 C365 1.369 . S
C366 C375 1.429 . S
C367 C365 1.419 1_455 S
C367 C368 1.363 . S
C367 H370 0.929 . S
C368 C367 1.363 . S
C368 C374 1.428 . S
H369 C365 0.930 . S
H370 C367 0.929 . S
S371 N372 1.613 . S
S371 N373 1.610 1_655 S
N372 S371 1.613 . S
N372 C375 1.350 . S
N373 S371 1.610 1_455 S
N373 C374 1.351 . S
C374 C368 1.428 . S
C374 N373 1.351 . S
C374 C375 1.434 1_455 S
C375 C366 1.429 . S
C375 N372 1.350 . S
C375 C374 1.434 1_655 S
C376 C377 1.369 . S
C376 C378 1.419 . S
C376 H380 0.930 . S
C377 C376 1.369 . S
C377 C386 1.429 . S
C378 C376 1.419 . S
C378 C379 1.363 . S
C378 H381 0.929 . S
C379 C378 1.363 . S
C379 C385 1.428 . S
H380 C376 0.930 . S
H381 C378 0.929 . S
S382 N383 1.613 . S
S382 N384 1.610 . S
N383 S382 1.613 . S
N383 C386 1.350 . S
N384 S382 1.610 . S
N384 C385 1.351 . S
C385 C379 1.428 . S
C385 N384 1.351 . S
C385 C386 1.434 . S
C386 C377 1.429 . S
C386 N383 1.350 . S
C386 C385 1.434 . S
C387 C388 1.369 . S
C387 C389 1.419 . S
C387 H391 0.930 . S
C388 C387 1.369 . S
C388 C397 1.429 . S
C389 C387 1.419 . S
C389 C390 1.363 . S
C389 H392 0.929 . S
C390 C389 1.363 . S
C390 C396 1.428 . S
H391 C387 0.930 . S
H392 C389 0.929 . S
S393 N394 1.613 . S
S393 N395 1.610 . S
N394 S393 1.613 . S
N394 C397 1.350 . S
N395 S393 1.610 . S
N395 C396 1.351 . S
C396 C390 1.428 . S
C396 N395 1.351 . S
C396 C397 1.434 . S
C397 C388 1.429 . S
C397 N394 1.350 . S
C397 C396 1.434 . S
C398 C399 1.369 . S
C398 C400 1.419 . S
C398 H402 0.930 . S
C399 C398 1.369 . S
C399 C408 1.429 . S
C400 C398 1.419 . S
C400 C401 1.363 . S
C400 H403 0.929 . S
C401 C400 1.363 . S
C401 C407 1.428 . S
H402 C398 0.930 . S
H403 C400 0.929 . S
S404 N405 1.613 . S
S404 N406 1.610 . S
N405 S404 1.613 . S
N405 C408 1.350 . S
N406 S404 1.610 . S
N406 C407 1.351 . S
C407 C401 1.428 . S
C407 N406 1.351 . S
C407 C408 1.434 . S
C408 C399 1.429 . S
C408 N405 1.350 . S
C408 C407 1.434 . S
C409 C410 1.369 . S
C409 C411 1.419 . S
C409 H413 0.930 . S
C410 C409 1.369 . S
C410 C419 1.429 . S
C411 C409 1.419 . S
C411 C412 1.363 . S
C411 H414 0.929 . S
C412 C411 1.363 . S
C412 C418 1.428 . S
H413 C409 0.930 . S
H414 C411 0.929 . S
S415 N416 1.613 . S
S415 N417 1.610 . S
N416 S415 1.613 . S
N416 C419 1.350 . S
N417 S415 1.610 . S
N417 C418 1.351 . S
C418 C412 1.428 . S
C418 N417 1.351 . S
C418 C419 1.434 . S
C419 C410 1.429 . S
C419 N416 1.350 . S
C419 C418 1.434 . S
C420 C421 1.369 . S
C420 C422 1.419 . S
C420 H424 0.930 . S
C421 C420 1.369 . S
C421 C430 1.429 . S
C422 C420 1.419 . S
C422 C423 1.363 . S
C422 H425 0.929 . S
C423 C422 1.363 . S
C423 C429 1.428 . S
H424 C420 0.930 . S
H425 C422 0.929 . S
S426 N427 1.613 . S
S426 N428 1.610 . S
N427 S426 1.613 . S
N427 C430 1.350 . S
N428 S426 1.610 . S
N428 C429 1.351 . S
C429 C423 1.428 . S
C429 N428 1.351 . S
C429 C430 1.434 . S
C430 C421 1.429 . S
C430 N427 1.350 . S
C430 C429 1.434 . S
C431 C432 1.369 . S
C431 C433 1.419 . S
C431 H435 0.930 . S
C432 C431 1.369 . S
C432 C441 1.429 . S
C433 C431 1.419 . S
C433 C434 1.363 . S
C433 H436 0.929 . S
C434 C433 1.363 . S
C434 C440 1.428 . S
H435 C431 0.930 . S
H436 C433 0.929 . S
S437 N438 1.613 . S
S437 N439 1.610 . S
N438 S437 1.613 . S
N438 C441 1.350 . S
N439 S437 1.610 . S
N439 C440 1.351 . S
C440 C434 1.428 . S
C440 N439 1.351 . S
C440 C441 1.434 . S
C441 C432 1.429 . S
C441 N438 1.350 . S
C441 C440 1.434 . S
C442 C443 1.369 . S
C442 C444 1.419 . S
C442 H446 0.930 . S
C443 C442 1.369 . S
C443 C452 1.429 . S
C444 C442 1.419 . S
C444 C445 1.363 . S
C444 H447 0.929 . S
C445 C444 1.363 . S
C445 C451 1.428 . S
H446 C442 0.930 . S
H447 C444 0.929 . S
S448 N449 1.613 . S
S448 N450 1.610 . S
N449 S448 1.613 . S
N449 C452 1.350 . S
N450 S448 1.610 . S
N450 C451 1.351 . S
C451 C445 1.428 . S
C451 N450 1.351 . S
C451 C452 1.434 . S
C452 C443 1.429 . S
C452 N449 1.350 . S
C452 C451 1.434 . S
C453 C454 1.369 . S
C453 C455 1.419 . S
C453 H457 0.930 . S
C454 C453 1.369 . S
C454 C463 1.429 . S
C455 C453 1.419 . S
C455 C456 1.363 . S
C455 H458 0.929 . S
C456 C455 1.363 . S
C456 C462 1.428 . S
H457 C453 0.930 . S
H458 C455 0.929 . S
S459 N460 1.613 . S
S459 N461 1.610 . S
N460 S459 1.613 . S
N460 C463 1.350 . S
N461 S459 1.610 . S
N461 C462 1.351 . S
C462 C456 1.428 . S
C462 N461 1.351 . S
C462 C463 1.434 . S
C463 C454 1.429 . S
C463 N460 1.350 . S
C463 C462 1.434 . S
C289 C3 1.530 . S
C291 C111 1.531 . S
C300 C2 1.533 . S
C302 C38 1.530 1_554 S
C311 C39 1.533 . S
C313 C75 1.528 . S
C322 C110 1.532 1_554 S
C324 C74 1.534 . S
C333 C147 1.528 . S
C335 C255 1.532 . S
C344 C182 1.536 . S
C346 C146 1.535 . S
C355 C219 1.528 . S
C357 C183 1.533 . S
C366 C254 1.533 . S
C368 C218 1.534 . S
C377 C230 1.422 . S
C379 C4 1.487 . S
C388 C50 1.430 . S
C390 C256 1.487 . S
C399 C158 1.424 . S
C401 C76 1.487 . S
C410 C184 1.487 . S
C412 C122 1.429 . S
C421 C194 1.422 . S
C423 C112 1.487 . S
C432 C14 1.420 . S
C434 C220 1.488 . S
C443 C40 1.487 . S
C445 C266 1.423 . S
C454 C86 1.425 . S
C456 C148 1.488 . S
