# Generated by pormake.
# Topology zni, (4)-cn, num edge types: 1
# Building blocks:
#     Node 0, Type 0, BuildingBlock: GALJAG_clean_sbu_0, # of connection points: 4
#     Node 1, Type 0, BuildingBlock: GALJAG_clean_sbu_0, # of connection points: 4
#     Node 2, Type 0, BuildingBlock: GALJAG_clean_sbu_0, # of connection points: 4
#     Node 3, Type 0, BuildingBlock: GALJAG_clean_sbu_0, # of connection points: 4
#     Node 4, Type 0, BuildingBlock: GALJAG_clean_sbu_0, # of connection points: 4
#     Node 5, Type 0, BuildingBlock: GALJAG_clean_sbu_0, # of connection points: 4
#     Node 6, Type 0, BuildingBlock: GALJAG_clean_sbu_0, # of connection points: 4
#     Node 7, Type 0, BuildingBlock: GALJAG_clean_sbu_0, # of connection points: 4
#     Node 8, Type 0, BuildingBlock: GALJAG_clean_sbu_0, # of connection points: 4
#     Node 9, Type 0, BuildingBlock: GALJAG_clean_sbu_0, # of connection points: 4
#     Node 10, Type 0, BuildingBlock: GALJAG_clean_sbu_0, # of connection points: 4
#     Node 11, Type 0, BuildingBlock: GALJAG_clean_sbu_0, # of connection points: 4
#     Node 12, Type 0, BuildingBlock: GALJAG_clean_sbu_0, # of connection points: 4
#     Node 13, Type 0, BuildingBlock: GALJAG_clean_sbu_0, # of connection points: 4
#     Node 14, Type 0, BuildingBlock: GALJAG_clean_sbu_0, # of connection points: 4
#     Node 15, Type 0, BuildingBlock: GALJAG_clean_sbu_0, # of connection points: 4
#     Node 16, Type 0, BuildingBlock: GALJAG_clean_sbu_0, # of connection points: 4
#     Node 17, Type 0, BuildingBlock: GALJAG_clean_sbu_0, # of connection points: 4
#     Node 18, Type 0, BuildingBlock: GALJAG_clean_sbu_0, # of connection points: 4
#     Node 19, Type 0, BuildingBlock: GALJAG_clean_sbu_0, # of connection points: 4
#     Node 20, Type 0, BuildingBlock: GALJAG_clean_sbu_0, # of connection points: 4
#     Node 21, Type 0, BuildingBlock: GALJAG_clean_sbu_0, # of connection points: 4
#     Node 22, Type 0, BuildingBlock: GALJAG_clean_sbu_0, # of connection points: 4
#     Node 23, Type 0, BuildingBlock: GALJAG_clean_sbu_0, # of connection points: 4
#     Node 24, Type 0, BuildingBlock: GALJAG_clean_sbu_0, # of connection points: 4
#     Node 25, Type 0, BuildingBlock: GALJAG_clean_sbu_0, # of connection points: 4
#     Node 26, Type 0, BuildingBlock: GALJAG_clean_sbu_0, # of connection points: 4
#     Node 27, Type 0, BuildingBlock: GALJAG_clean_sbu_0, # of connection points: 4
#     Node 28, Type 0, BuildingBlock: GALJAG_clean_sbu_0, # of connection points: 4
#     Node 29, Type 0, BuildingBlock: GALJAG_clean_sbu_0, # of connection points: 4
#     Node 30, Type 0, BuildingBlock: GALJAG_clean_sbu_0, # of connection points: 4
#     Node 31, Type 0, BuildingBlock: GALJAG_clean_sbu_0, # of connection points: 4
#     Edge 32, Type (0, 0), BuildingBlock: OJICUG_clean_linker_0, # of connection points: 2
#     Edge 33, Type (0, 0), BuildingBlock: OJICUG_clean_linker_0, # of connection points: 2
#     Edge 34, Type (0, 0), BuildingBlock: OJICUG_clean_linker_0, # of connection points: 2
#     Edge 35, Type (0, 0), BuildingBlock: OJICUG_clean_linker_0, # of connection points: 2
#     Edge 36, Type (0, 0), BuildingBlock: OJICUG_clean_linker_0, # of connection points: 2
#     Edge 37, Type (0, 0), BuildingBlock: OJICUG_clean_linker_0, # of connection points: 2
#     Edge 38, Type (0, 0), BuildingBlock: OJICUG_clean_linker_0, # of connection points: 2
#     Edge 39, Type (0, 0), BuildingBlock: OJICUG_clean_linker_0, # of connection points: 2
#     Edge 40, Type (0, 0), BuildingBlock: OJICUG_clean_linker_0, # of connection points: 2
#     Edge 41, Type (0, 0), BuildingBlock: OJICUG_clean_linker_0, # of connection points: 2
#     Edge 42, Type (0, 0), BuildingBlock: OJICUG_clean_linker_0, # of connection points: 2
#     Edge 43, Type (0, 0), BuildingBlock: OJICUG_clean_linker_0, # of connection points: 2
#     Edge 44, Type (0, 0), BuildingBlock: OJICUG_clean_linker_0, # of connection points: 2
#     Edge 45, Type (0, 0), BuildingBlock: OJICUG_clean_linker_0, # of connection points: 2
#     Edge 46, Type (0, 0), BuildingBlock: OJICUG_clean_linker_0, # of connection points: 2
#     Edge 47, Type (0, 0), BuildingBlock: OJICUG_clean_linker_0, # of connection points: 2
#     Edge 48, Type (0, 0), BuildingBlock: OJICUG_clean_linker_0, # of connection points: 2
#     Edge 49, Type (0, 0), BuildingBlock: OJICUG_clean_linker_0, # of connection points: 2
#     Edge 50, Type (0, 0), BuildingBlock: OJICUG_clean_linker_0, # of connection points: 2
#     Edge 51, Type (0, 0), BuildingBlock: OJICUG_clean_linker_0, # of connection points: 2
#     Edge 52, Type (0, 0), BuildingBlock: OJICUG_clean_linker_0, # of connection points: 2
#     Edge 53, Type (0, 0), BuildingBlock: OJICUG_clean_linker_0, # of connection points: 2
#     Edge 54, Type (0, 0), BuildingBlock: OJICUG_clean_linker_0, # of connection points: 2
#     Edge 55, Type (0, 0), BuildingBlock: OJICUG_clean_linker_0, # of connection points: 2
#     Edge 56, Type (0, 0), BuildingBlock: OJICUG_clean_linker_0, # of connection points: 2
#     Edge 57, Type (0, 0), BuildingBlock: OJICUG_clean_linker_0, # of connection points: 2
#     Edge 58, Type (0, 0), BuildingBlock: OJICUG_clean_linker_0, # of connection points: 2
#     Edge 59, Type (0, 0), BuildingBlock: OJICUG_clean_linker_0, # of connection points: 2
#     Edge 60, Type (0, 0), BuildingBlock: OJICUG_clean_linker_0, # of connection points: 2
#     Edge 61, Type (0, 0), BuildingBlock: OJICUG_clean_linker_0, # of connection points: 2
#     Edge 62, Type (0, 0), BuildingBlock: OJICUG_clean_linker_0, # of connection points: 2
#     Edge 63, Type (0, 0), BuildingBlock: OJICUG_clean_linker_0, # of connection points: 2
#     Edge 64, Type (0, 0), BuildingBlock: OJICUG_clean_linker_0, # of connection points: 2
#     Edge 65, Type (0, 0), BuildingBlock: OJICUG_clean_linker_0, # of connection points: 2
#     Edge 66, Type (0, 0), BuildingBlock: OJICUG_clean_linker_0, # of connection points: 2
#     Edge 67, Type (0, 0), BuildingBlock: OJICUG_clean_linker_0, # of connection points: 2
#     Edge 68, Type (0, 0), BuildingBlock: OJICUG_clean_linker_0, # of connection points: 2
#     Edge 69, Type (0, 0), BuildingBlock: OJICUG_clean_linker_0, # of connection points: 2
#     Edge 70, Type (0, 0), BuildingBlock: OJICUG_clean_linker_0, # of connection points: 2
#     Edge 71, Type (0, 0), BuildingBlock: OJICUG_clean_linker_0, # of connection points: 2
#     Edge 72, Type (0, 0), BuildingBlock: OJICUG_clean_linker_0, # of connection points: 2
#     Edge 73, Type (0, 0), BuildingBlock: OJICUG_clean_linker_0, # of connection points: 2
#     Edge 74, Type (0, 0), BuildingBlock: OJICUG_clean_linker_0, # of connection points: 2
#     Edge 75, Type (0, 0), BuildingBlock: OJICUG_clean_linker_0, # of connection points: 2
#     Edge 76, Type (0, 0), BuildingBlock: OJICUG_clean_linker_0, # of connection points: 2
#     Edge 77, Type (0, 0), BuildingBlock: OJICUG_clean_linker_0, # of connection points: 2
#     Edge 78, Type (0, 0), BuildingBlock: OJICUG_clean_linker_0, # of connection points: 2
#     Edge 79, Type (0, 0), BuildingBlock: OJICUG_clean_linker_0, # of connection points: 2
#     Edge 80, Type (0, 0), BuildingBlock: OJICUG_clean_linker_0, # of connection points: 2
#     Edge 81, Type (0, 0), BuildingBlock: OJICUG_clean_linker_0, # of connection points: 2
#     Edge 82, Type (0, 0), BuildingBlock: OJICUG_clean_linker_0, # of connection points: 2
#     Edge 83, Type (0, 0), BuildingBlock: OJICUG_clean_linker_0, # of connection points: 2
#     Edge 84, Type (0, 0), BuildingBlock: OJICUG_clean_linker_0, # of connection points: 2
#     Edge 85, Type (0, 0), BuildingBlock: OJICUG_clean_linker_0, # of connection points: 2
#     Edge 86, Type (0, 0), BuildingBlock: OJICUG_clean_linker_0, # of connection points: 2
#     Edge 87, Type (0, 0), BuildingBlock: OJICUG_clean_linker_0, # of connection points: 2
#     Edge 88, Type (0, 0), BuildingBlock: OJICUG_clean_linker_0, # of connection points: 2
#     Edge 89, Type (0, 0), BuildingBlock: OJICUG_clean_linker_0, # of connection points: 2
#     Edge 90, Type (0, 0), BuildingBlock: OJICUG_clean_linker_0, # of connection points: 2
#     Edge 91, Type (0, 0), BuildingBlock: OJICUG_clean_linker_0, # of connection points: 2
#     Edge 92, Type (0, 0), BuildingBlock: OJICUG_clean_linker_0, # of connection points: 2
#     Edge 93, Type (0, 0), BuildingBlock: OJICUG_clean_linker_0, # of connection points: 2
#     Edge 94, Type (0, 0), BuildingBlock: OJICUG_clean_linker_0, # of connection points: 2
#     Edge 95, Type (0, 0), BuildingBlock: OJICUG_clean_linker_0, # of connection points: 2
# Relax obj value: 0.235
# Max RMSD: 0.125
# Mean RMSD: 0.125
data_MOF--net-zni--node1-GALJAG_clean_sbu_0--edge1-OJICUG_clean_linker_0
_symmetry_space_group_name_H-M    P1
_symmetry_Int_Tables_number       1
_symmetry_cell_setting            triclinic
loop_
_symmetry_equiv_pos_as_xyz
'x, y, z'
_cell_length_a     42.972372
_cell_length_b     42.97537
_cell_length_c     22.522618
_cell_angle_alpha  90.008514
_cell_angle_beta   90.015344
_cell_angle_gamma 89.995831
loop_
_atom_site_label
_atom_site_type_symbol
_atom_site_fract_x
_atom_site_fract_y
_atom_site_fract_z
_atom_type_partial_charge
In0 In 0.10182 0.09826 0.39536 0.0
O1 O 0.13107 0.07111 0.32666 0.0
O2 O 0.08856 0.05167 0.35738 0.0
C3 C 0.11689 0.15841 0.37801 0.0
C4 C 0.04006 0.10712 0.38509 0.0
C5 C 0.13111 0.08468 0.49784 0.0
O6 O 0.12232 0.13787 0.33909 0.0
O7 O 0.10428 0.14839 0.42479 0.0
O8 O 0.10268 0.0788 0.48936 0.0
O9 O 0.14504 0.09605 0.45364 0.0
C10 C 0.11172 0.04906 0.32367 0.0
O11 O 0.05236 0.09788 0.43296 0.0
O12 O 0.05894 0.11187 0.34309 0.0
In13 In 0.1475 0.85169 0.64513 0.0
O14 O 0.17487 0.88032 0.57582 0.0
O15 O 0.19401 0.83789 0.60757 0.0
C16 C 0.08753 0.86756 0.62809 0.0
C17 C 0.13797 0.78999 0.63555 0.0
C18 C 0.16161 0.88104 0.74725 0.0
O19 O 0.10799 0.87231 0.58872 0.0
O20 O 0.09753 0.85521 0.67515 0.0
O21 O 0.16691 0.85248 0.73913 0.0
O22 O 0.15053 0.89507 0.70286 0.0
C23 C 0.1968 0.86082 0.57333 0.0
O24 O 0.14766 0.8023 0.68308 0.0
O25 O 0.13305 0.80883 0.59355 0.0
In26 In 0.39475 0.89863 0.89529 0.0
O27 O 0.44417 0.8989 0.93321 0.0
O28 O 0.43775 0.88541 0.84301 0.0
C29 C 0.36465 0.91145 -0.0028 0.0
C30 C 0.38507 0.94835 0.82485 0.0
C31 C 0.38006 0.83844 0.87755 0.0
O32 O 0.39312 0.91746 0.98967 0.0
O33 O 0.35107 0.90032 0.95235 0.0
O34 O 0.37448 0.85899 0.83871 0.0
O35 O 0.39261 0.84848 0.92439 0.0
C36 C 0.45655 0.88991 0.88525 0.0
O37 O 0.36632 0.92572 0.8253 0.0
O38 O 0.40751 0.94599 0.8604 0.0
In39 In 0.34734 0.14475 0.14613 0.0
O40 O 0.31981 0.11571 0.07764 0.0
O41 O 0.30072 0.15832 0.10863 0.0
C42 C 0.40733 0.12928 0.12822 0.0
C43 C 0.3567 0.20644 0.13595 0.0
C44 C 0.33395 0.11554 0.24875 0.0
O45 O 0.38668 0.12407 0.0894 0.0
O46 O 0.3975 0.14185 0.17518 0.0
O47 O 0.32819 0.144 0.24037 0.0
O48 O 0.34507 0.10154 0.20439 0.0
C49 C 0.29786 0.13519 0.0749 0.0
O50 O 0.34724 0.19423 0.18373 0.0
O51 O 0.36138 0.18752 0.09398 0.0
In52 In 0.10289 0.8982 0.08667 0.0
O53 O 0.05347 0.89806 0.04884 0.0
O54 O 0.05973 0.8868 0.14015 0.0
C55 C 0.13336 0.91026 0.98486 0.0
C56 C 0.11278 0.94843 0.15558 0.0
C57 C 0.11692 0.83793 0.10505 0.0
O58 O 0.105 0.91675 -0.00775 0.0
O59 O 0.14672 0.89892 0.02977 0.0
O60 O 0.12342 0.85865 0.14306 0.0
O61 O 0.10376 0.84784 0.05872 0.0
C62 C 0.04098 0.89047 0.09754 0.0
O63 O 0.13035 0.9249 0.15855 0.0
O64 O 0.09153 0.94666 0.11733 0.0
In65 In 0.34772 0.85171 0.33616 0.0
O66 O 0.32061 0.87951 0.40697 0.0
O67 O 0.29983 0.83934 0.36876 0.0
C68 C 0.40781 0.86657 0.35431 0.0
C69 C 0.35648 0.78996 0.347 0.0
C70 C 0.33516 0.88186 0.23419 0.0
O71 O 0.38712 0.87236 0.39278 0.0
O72 O 0.39795 0.85374 0.30761 0.0
O73 O 0.32927 0.85335 0.24156 0.0
O74 O 0.34608 0.89546 0.2792 0.0
C75 C 0.29763 0.86119 0.40566 0.0
O76 O 0.34789 0.80222 0.29867 0.0
O77 O 0.36057 0.80885 0.38922 0.0
In78 In 0.39394 0.09943 0.58792 0.0
O79 O 0.44328 0.0992 0.54972 0.0
O80 O 0.4371 0.11197 0.64035 0.0
C81 C 0.36335 0.08697 0.48634 0.0
C82 C 0.38442 0.04952 0.65792 0.0
C83 C 0.37979 0.15969 0.60595 0.0
O84 O 0.39176 0.0806 0.49363 0.0
O85 O 0.35004 0.09834 0.53125 0.0
O86 O 0.37377 0.13911 0.64448 0.0
O87 O 0.39249 0.14965 0.55927 0.0
C88 C 0.4558 0.10771 0.59787 0.0
O89 O 0.36609 0.0725 0.65898 0.0
O90 O 0.40629 0.05164 0.62107 0.0
In91 In 0.147 0.14385 0.83746 0.0
O92 O 0.1738 0.11632 0.90915 0.0
O93 O 0.19511 0.1558 0.86943 0.0
C94 C 0.0868 0.12928 0.85511 0.0
C95 C 0.13875 0.20571 0.84799 0.0
C96 C 0.15956 0.1135 0.73569 0.0
O97 O 0.1074 0.12331 0.89368 0.0
O98 O 0.0968 0.1422 0.80862 0.0
O99 O 0.1657 0.14194 0.74312 0.0
O100 O 0.14835 0.10002 0.78056 0.0
C101 C 0.19704 0.13429 0.90711 0.0
O102 O 0.14708 0.19327 0.79967 0.0
O103 O 0.13458 0.18693 0.89036 0.0
In104 In 0.89416 0.8982 0.58758 0.0
O105 O 0.94362 0.89842 0.55003 0.0
O106 O 0.93726 0.88654 0.64104 0.0
C107 C 0.86395 0.91006 0.4853 0.0
C108 C 0.88388 0.94827 0.65684 0.0
C109 C 0.88046 0.83785 0.60599 0.0
O110 O 0.89221 0.91686 0.49313 0.0
O111 O 0.85056 0.89857 0.53 0.0
O112 O 0.87379 0.85854 0.64396 0.0
O113 O 0.89359 0.84784 0.55971 0.0
C114 C 0.95606 0.8905 0.59861 0.0
O115 O 0.86591 0.92501 0.65826 0.0
O116 O 0.90577 0.94633 0.61998 0.0
In117 In 0.8485 0.14518 0.33744 0.0
O118 O 0.84815 0.19464 0.29981 0.0
O119 O 0.86268 0.18799 0.38937 0.0
C120 C 0.83501 0.11596 0.23481 0.0
C121 C 0.79917 0.13567 0.40904 0.0
C122 C 0.90857 0.12985 0.35512 0.0
O123 O 0.8292 0.1444 0.24327 0.0
O124 O 0.84624 0.10198 0.27909 0.0
O125 O 0.88797 0.12453 0.39399 0.0
O126 O 0.89864 0.14246 0.30827 0.0
C127 C 0.85777 0.20689 0.34747 0.0
O128 O 0.82095 0.11603 0.40575 0.0
O129 O 0.80211 0.15894 0.3757 0.0
In130 In 0.60045 0.09763 0.08604 0.0
O131 O 0.62876 0.07057 0.15622 0.0
O132 O 0.58786 0.0501 0.12033 0.0
C133 C 0.61562 0.15771 0.10377 0.0
C134 C 0.53871 0.10639 0.09721 0.0
C135 C 0.63005 0.08471 0.9836 0.0
O136 O 0.62136 0.13705 0.14229 0.0
O137 O 0.60263 0.14786 0.05723 0.0
O138 O 0.60154 0.07903 -0.00855 0.0
O139 O 0.64392 0.09556 0.02838 0.0
C140 C 0.61014 0.04783 0.15628 0.0
O141 O 0.55089 0.09763 0.04893 0.0
O142 O 0.55769 0.11072 0.13922 0.0
In143 In 0.64816 0.85211 0.8378 0.0
O144 O 0.64793 0.80266 0.80025 0.0
O145 O 0.63628 0.80904 0.89132 0.0
C146 C 0.66009 0.88236 0.73567 0.0
C147 C 0.69875 0.862 0.90592 0.0
C148 C 0.58802 0.86677 0.85603 0.0
O149 O 0.66627 0.85392 0.74304 0.0
O150 O 0.64915 0.89589 0.78075 0.0
O151 O 0.60874 0.87285 0.89432 0.0
O152 O 0.59787 0.85366 0.8096 0.0
C153 C 0.64004 0.79024 0.84883 0.0
O154 O 0.67516 0.87947 0.90946 0.0
O155 O 0.69682 0.8408 0.8676 0.0
In156 In 0.89331 0.09904 0.89455 0.0
O157 O 0.86486 0.07207 0.82429 0.0
O158 O 0.90577 0.05153 0.86006 0.0
C159 C 0.87932 0.15936 0.87653 0.0
C160 C 0.95517 0.1072 0.88432 0.0
C161 C 0.86321 0.08678 -0.00327 0.0
O162 O 0.87316 0.13877 0.83805 0.0
O163 O 0.89207 0.14928 0.92313 0.0
O164 O 0.89152 0.08017 0.98886 0.0
O165 O 0.84972 0.0982 0.95206 0.0
C166 C 0.88347 0.04931 0.82415 0.0
O167 O 0.94273 0.09846 0.93238 0.0
O168 O 0.9364 0.11176 0.84207 0.0
In169 In 0.64758 0.14472 0.64464 0.0
O170 O 0.64768 0.19419 0.68222 0.0
O171 O 0.63517 0.18776 0.59155 0.0
C172 C 0.65964 0.11428 0.7465 0.0
C173 C 0.69792 0.13504 0.57583 0.0
C174 C 0.5874 0.13014 0.62676 0.0
O175 O 0.66573 0.14275 0.7394 0.0
O176 O 0.64877 0.10082 0.70129 0.0
O177 O 0.60801 0.12419 0.58822 0.0
O178 O 0.59737 0.14306 0.67329 0.0
C179 C 0.63932 0.20657 0.63388 0.0
O180 O 0.67449 0.11734 0.57292 0.0
O181 O 0.69599 0.15636 0.61391 0.0
In182 In 0.60102 0.89788 0.39591 0.0
O183 O 0.55152 0.89791 0.43328 0.0
O184 O 0.55822 0.8844 0.34319 0.0
C185 C 0.63058 0.9112 0.49822 0.0
C186 C 0.61041 0.94751 0.3251 0.0
C187 C 0.61635 0.83781 0.37841 0.0
O188 O 0.60205 0.91677 0.49028 0.0
O189 O 0.64449 0.90025 0.45358 0.0
O190 O 0.6218 0.85842 0.33963 0.0
O191 O 0.60358 0.84772 0.42512 0.0
C192 C 0.53929 0.8889 0.38519 0.0
O193 O 0.62931 0.925 0.32577 0.0
O194 O 0.58802 0.94512 0.36074 0.0
In195 In 0.84946 0.85239 0.14439 0.0
O196 O 0.82162 0.88175 0.07672 0.0
O197 O 0.80365 0.83805 0.10438 0.0
C198 C 0.90943 0.8682 0.12716 0.0
C199 C 0.85918 0.79073 0.13506 0.0
C200 C 0.83556 0.88132 0.24708 0.0
O201 O 0.88896 0.87287 0.08774 0.0
O202 O 0.89943 0.856 0.17433 0.0
O203 O 0.83001 0.85285 0.23842 0.0
O204 O 0.84669 0.89548 0.20292 0.0
C205 C 0.80033 0.86165 0.07205 0.0
O206 O 0.84886 0.80296 0.18218 0.0
O207 O 0.86459 0.80962 0.09337 0.0
In208 In 0.60265 0.5985 0.89523 0.0
O209 O 0.55319 0.59807 0.93291 0.0
O210 O 0.55973 0.61224 0.84314 0.0
C211 C 0.63213 0.58514 -0.0024 0.0
C212 C 0.61237 0.54919 0.82363 0.0
C213 C 0.61771 0.65866 0.87807 0.0
O214 O 0.60369 0.57922 0.98935 0.0
O215 O 0.64599 0.59637 0.95319 0.0
O216 O 0.62302 0.63818 0.83897 0.0
O217 O 0.60521 0.64858 0.9249 0.0
C218 C 0.54088 0.60742 0.88514 0.0
O219 O 0.6316 0.57138 0.82597 0.0
O220 O 0.58944 0.55173 0.85796 0.0
In221 In 0.64846 0.35076 0.14429 0.0
O222 O 0.67571 0.37937 0.07482 0.0
O223 O 0.69574 0.33787 0.10907 0.0
C224 C 0.58838 0.36605 0.12689 0.0
C225 C 0.63936 0.28903 0.1336 0.0
C226 C 0.66166 0.38032 0.24663 0.0
O227 O 0.6089 0.37132 0.08786 0.0
O228 O 0.59838 0.35349 0.17374 0.0
O229 O 0.66727 0.3518 0.23875 0.0
O230 O 0.65072 0.3942 0.20196 0.0
C231 C 0.69824 0.36049 0.074 0.0
O232 O 0.64846 0.30125 0.18164 0.0
O233 O 0.63492 0.30796 0.09156 0.0
In234 In 0.89524 0.39856 0.3953 0.0
O235 O 0.94467 0.39873 0.43316 0.0
O236 O 0.9382 0.38535 0.34291 0.0
C237 C 0.86556 0.41175 0.49754 0.0
C238 C 0.88554 0.44804 0.32424 0.0
C239 C 0.88045 0.3384 0.37742 0.0
O240 O 0.89397 0.41781 0.48945 0.0
O241 O 0.85182 0.40038 0.4531 0.0
O242 O 0.87467 0.35903 0.33885 0.0
O243 O 0.89323 0.34834 0.4241 0.0
C244 C 0.95703 0.38981 0.38513 0.0
O245 O 0.86649 0.42569 0.32581 0.0
O246 O 0.90829 0.44557 0.35905 0.0
In247 In 0.8491 0.64448 0.64496 0.0
O248 O 0.84872 0.69388 0.68289 0.0
O249 O 0.86382 0.68732 0.59367 0.0
C250 C 0.83536 0.61529 0.74741 0.0
C251 C 0.79974 0.63532 0.57316 0.0
C252 C 0.90906 0.62867 0.62766 0.0
O253 O 0.82985 0.64379 0.73909 0.0
O254 O 0.84637 0.60122 0.70303 0.0
O255 O 0.88856 0.6239 0.58834 0.0
O256 O 0.8991 0.641 0.67474 0.0
C257 C 0.85868 0.70617 0.63556 0.0
O258 O 0.82145 0.61558 0.57633 0.0
O259 O 0.80278 0.6585 0.60671 0.0
In260 In 0.60291 0.39843 0.58619 0.0
O261 O 0.55338 0.3986 0.54887 0.0
O262 O 0.55991 0.38638 0.63965 0.0
C263 C 0.63311 0.41038 0.48403 0.0
C264 C 0.61289 0.44861 0.65529 0.0
C265 C 0.61722 0.33818 0.60419 0.0
O266 O 0.60471 0.4167 0.49152 0.0
O267 O 0.64663 0.39936 0.52905 0.0
O268 O 0.62341 0.35883 0.64254 0.0
O269 O 0.6042 0.34814 0.55776 0.0
C270 C 0.54104 0.39048 0.59738 0.0
O271 O 0.63068 0.42523 0.65756 0.0
O272 O 0.59137 0.44675 0.61762 0.0
In273 In 0.84949 0.35293 0.83713 0.0
O274 O 0.82222 0.38073 0.90786 0.0
O275 O 0.80201 0.33995 0.87094 0.0
C276 C 0.90963 0.36776 0.85506 0.0
C277 C 0.85823 0.29113 0.84698 0.0
C278 C 0.83664 0.38304 0.73523 0.0
O279 O 0.88902 0.3734 0.89376 0.0
O280 O 0.89967 0.35508 0.80828 0.0
O281 O 0.83067 0.35458 0.74281 0.0
O282 O 0.84777 0.39666 0.78004 0.0
C283 C 0.79958 0.36198 0.90738 0.0
O284 O 0.84939 0.30358 0.79899 0.0
O285 O 0.86269 0.30988 0.88932 0.0
In286 In 0.89506 0.59878 0.08695 0.0
O287 O 0.94451 0.59866 0.04929 0.0
O288 O 0.93818 0.61039 0.14038 0.0
C289 C 0.86455 0.5867 0.9851 0.0
C290 C 0.88509 0.54874 0.15632 0.0
C291 C 0.88125 0.6591 0.10529 0.0
O292 O 0.8929 0.58013 -0.00748 0.0
O293 O 0.85125 0.59812 0.02998 0.0
O294 O 0.87453 0.6384 0.14318 0.0
O295 O 0.89448 0.64914 0.05909 0.0
C296 C 0.95696 0.6065 0.09791 0.0
O297 O 0.86729 0.57212 0.15842 0.0
O298 O 0.90664 0.55054 0.1187 0.0
In299 In 0.64813 0.64462 0.33737 0.0
O300 O 0.67524 0.61697 0.40846 0.0
O301 O 0.69629 0.65666 0.36903 0.0
C302 C 0.58803 0.62977 0.35534 0.0
C303 C 0.63953 0.70641 0.34839 0.0
C304 C 0.6606 0.61449 0.23532 0.0
O305 O 0.60869 0.62396 0.39387 0.0
O306 O 0.59791 0.64264 0.30872 0.0
O307 O 0.66659 0.64296 0.24281 0.0
O308 O 0.64958 0.60089 0.28024 0.0
C309 C 0.69842 0.63501 0.40639 0.0
O310 O 0.64783 0.69411 0.29993 0.0
O311 O 0.63561 0.68754 0.3907 0.0
In312 In 0.39508 0.3979 0.08792 0.0
O313 O 0.36668 0.42506 0.15785 0.0
O314 O 0.40802 0.44515 0.12308 0.0
C315 C 0.3801 0.3378 0.10596 0.0
C316 C 0.45687 0.38907 0.09795 0.0
C317 C 0.36524 0.41105 0.98582 0.0
O318 O 0.37442 0.35848 0.1445 0.0
O319 O 0.39291 0.34766 0.05926 0.0
O320 O 0.39366 0.41712 -0.00619 0.0
O321 O 0.35156 0.39965 0.03029 0.0
C322 C 0.38555 0.44759 0.15853 0.0
O323 O 0.44443 0.39773 0.04983 0.0
O324 O 0.43812 0.38488 0.14037 0.0
In325 In 0.34921 0.64504 0.83773 0.0
O326 O 0.32207 0.61685 0.908 0.0
O327 O 0.30175 0.65782 0.8721 0.0
C328 C 0.40935 0.63011 0.85552 0.0
C329 C 0.35793 0.70683 0.848 0.0
C330 C 0.33621 0.61516 0.73563 0.0
O331 O 0.38873 0.62445 0.89419 0.0
O332 O 0.3994 0.64288 0.80883 0.0
O333 O 0.33031 0.64363 0.74341 0.0
O334 O 0.34736 0.60146 0.78031 0.0
C335 C 0.29939 0.63555 0.90802 0.0
O336 O 0.34917 0.69445 0.7999 0.0
O337 O 0.36228 0.68803 0.89029 0.0
In338 In 0.10243 0.59797 0.58749 0.0
O339 O 0.13067 0.57125 0.65828 0.0
O340 O 0.09071 0.54995 0.62028 0.0
C341 C 0.11626 0.65831 0.60577 0.0
C342 C 0.04054 0.60576 0.59826 0.0
C343 C 0.1327 0.58585 0.48543 0.0
O344 O 0.12271 0.63766 0.64394 0.0
O345 O 0.1033 0.6483 0.55933 0.0
O346 O 0.10436 0.57929 0.49304 0.0
O347 O 0.14611 0.59722 0.53024 0.0
C348 C 0.11263 0.54805 0.6571 0.0
O349 O 0.05299 0.59773 0.54976 0.0
O350 O 0.05931 0.60978 0.64071 0.0
In351 In 0.14858 0.35167 0.33796 0.0
O352 O 0.1485 0.30221 0.30037 0.0
O353 O 0.13541 0.30876 0.39072 0.0
C354 C 0.16161 0.38127 0.23559 0.0
C355 C 0.19845 0.36138 0.40809 0.0
C356 C 0.0885 0.36682 0.35568 0.0
O357 O 0.16745 0.3528 0.2436 0.0
O358 O 0.15051 0.39511 0.28017 0.0
O359 O 0.10911 0.37229 0.39448 0.0
O360 O 0.09842 0.35413 0.30891 0.0
C361 C 0.1397 0.2899 0.3485 0.0
O362 O 0.1758 0.38011 0.40779 0.0
O363 O 0.19602 0.33894 0.37254 0.0
In364 In 0.39472 0.59856 0.39579 0.0
O365 O 0.36661 0.57132 0.32552 0.0
O366 O 0.40739 0.55094 0.3621 0.0
C367 C 0.37971 0.65861 0.37751 0.0
C368 C 0.45651 0.60729 0.3853 0.0
C369 C 0.36486 0.58588 0.49803 0.0
O370 O 0.37404 0.63789 0.33904 0.0
O371 O 0.39256 0.64881 0.42424 0.0
O372 O 0.3933 0.57986 0.49024 0.0
O373 O 0.35116 0.59697 0.45328 0.0
C374 C 0.38523 0.54858 0.32592 0.0
O375 O 0.44417 0.59866 0.43352 0.0
O376 O 0.43767 0.6115 0.34302 0.0
In377 In 0.14843 0.64466 0.14557 0.0
O378 O 0.14846 0.69413 0.18314 0.0
O379 O 0.13446 0.68746 0.09331 0.0
C380 C 0.16168 0.61513 0.24791 0.0
C381 C 0.19825 0.63543 0.07509 0.0
C382 C 0.08845 0.62906 0.12792 0.0
O383 O 0.16718 0.64367 0.24002 0.0
O384 O 0.15085 0.60119 0.2032 0.0
O385 O 0.10903 0.62403 0.08886 0.0
O386 O 0.09836 0.64155 0.17492 0.0
C387 C 0.13911 0.70636 0.13531 0.0
O388 O 0.1759 0.61635 0.07586 0.0
O389 O 0.19558 0.65795 0.11037 0.0
In390 In 0.10313 0.39771 0.89561 0.0
O391 O 0.13158 0.42463 0.82537 0.0
O392 O 0.09065 0.44518 0.86097 0.0
C393 C 0.11747 0.33744 0.87783 0.0
C394 C 0.04128 0.38949 0.88516 0.0
C395 C 0.1331 0.41038 -0.00222 0.0
O396 O 0.12334 0.358 0.83917 0.0
O397 O 0.1048 0.3475 0.92452 0.0
O398 O 0.10472 0.41665 0.9899 0.0
O399 O 0.14671 0.39907 0.95313 0.0
C400 C 0.11296 0.44737 0.82511 0.0
O401 O 0.05368 0.39814 0.93332 0.0
O402 O 0.06009 0.38499 0.84295 0.0
In403 In 0.34944 0.35317 0.64572 0.0
O404 O 0.34943 0.3038 0.6837 0.0
O405 O 0.36292 0.3102 0.59353 0.0
C406 C 0.3363 0.3829 0.74789 0.0
C407 C 0.29963 0.36231 0.57515 0.0
C408 C 0.40949 0.36836 0.62788 0.0
O409 O 0.33045 0.35444 0.73993 0.0
O410 O 0.34744 0.3967 0.70331 0.0
O411 O 0.38887 0.37371 0.58904 0.0
O412 O 0.39959 0.35577 0.67476 0.0
C413 C 0.35842 0.29141 0.63577 0.0
O414 O 0.32205 0.38132 0.57563 0.0
O415 O 0.30222 0.33995 0.6108 0.0
C416 C 0.14171 0.00961 0.26408 0.0
C417 C 0.11344 0.02381 0.27984 0.0
H418 H 0.16373 0.97345 0.2128 0.0
C419 C 0.08568 0.01344 0.25389 0.0
H420 H 0.16337 0.0173 0.28382 0.0
C421 C 0.08599 0.98942 0.21266 0.0
C422 C 0.11396 0.97456 0.19769 0.0
H423 H 0.06362 0.02416 0.26511 0.0
H424 H 0.06409 0.98198 0.19343 0.0
C425 C 0.1419 0.98462 0.22386 0.0
C426 C 0.23375 0.83426 0.50673 0.0
C427 C 0.22229 0.86226 0.52993 0.0
H428 H 0.26608 0.8123 0.44844 0.0
C429 C 0.23552 0.89058 0.51162 0.0
H430 H 0.22381 0.81213 0.5199 0.0
C431 C 0.26054 0.89064 0.47152 0.0
C432 C 0.27163 0.86245 0.448 0.0
H433 H 0.22698 0.91244 0.52918 0.0
H434 H 0.2709 0.91255 0.45836 0.0
C435 C 0.25783 0.83437 0.46562 0.0
C436 C 0.4114 0.01056 0.71957 0.0
C437 C 0.38323 0.02365 0.70053 0.0
H438 H 0.43375 0.97696 0.77465 0.0
C439 C 0.35501 0.01182 0.72256 0.0
H440 H 0.43347 0.0194 0.70352 0.0
C441 C 0.35516 0.98668 0.76243 0.0
C442 C 0.38355 0.9741 0.78202 0.0
H443 H 0.33303 0.02162 0.70827 0.0
H444 H 0.33329 0.97751 0.7787 0.0
C445 C 0.41157 0.98639 0.76048 0.0
C446 C 0.23751 0.16117 0.96544 0.0
C447 C 0.22308 0.13313 0.94944 0.0
H448 H 0.27201 0.18353 0.01849 0.0
C449 C 0.23356 0.1051 0.97461 0.0
H450 H 0.22975 0.18313 0.94697 0.0
C451 C 0.25859 0.10526 0.01475 0.0
C452 C 0.27242 0.13357 0.03144 0.0
H453 H 0.22272 0.08321 0.96275 0.0
H454 H 0.26664 0.08352 0.03363 0.0
C455 C 0.26158 0.16143 0.00658 0.0
C456 C 0.91039 0.98776 0.71801 0.0
C457 C 0.88238 0.97423 0.69927 0.0
H458 H 0.93238 0.02164 0.77302 0.0
C459 C 0.85405 0.98563 0.72161 0.0
H460 H 0.93256 0.97927 0.70173 0.0
C461 C 0.85392 0.01074 0.76158 0.0
C462 C 0.88217 0.0237 0.78097 0.0
H463 H 0.83218 0.97548 0.70757 0.0
H464 H 0.83196 0.01955 0.77817 0.0
C465 C 0.9103 0.01189 0.75902 0.0
C466 C 0.76366 0.16182 0.47891 0.0
C467 C 0.77381 0.13406 0.45266 0.0
H468 H 0.73221 0.18352 0.53924 0.0
C469 C 0.75923 0.10589 0.4678 0.0
H470 H 0.77467 0.18381 0.46817 0.0
C471 C 0.73409 0.10582 0.50767 0.0
C472 C 0.72423 0.13377 0.5341 0.0
H473 H 0.76674 0.08423 0.44781 0.0
H474 H 0.72263 0.08407 0.51822 0.0
C475 C 0.73947 0.16162 0.51978 0.0
C476 C 0.63996 0.98539 0.2611 0.0
C477 C 0.61168 0.97309 0.28185 0.0
H478 H 0.66179 0.01986 0.20551 0.0
C479 C 0.58354 0.9854 0.26089 0.0
H480 H 0.66192 0.97617 0.27686 0.0
C481 C 0.58348 0.00933 0.21945 0.0
C482 C 0.61154 0.02213 0.19926 0.0
H483 H 0.56143 0.97618 0.27593 0.0
H484 H 0.56131 0.0182 0.20391 0.0
C485 C 0.63988 0.01027 0.22068 0.0
C486 C 0.74137 0.8358 0.95976 0.0
C487 C 0.72529 0.86342 0.94713 0.0
H488 H 0.77729 0.81384 0.00995 0.0
C489 C 0.73449 0.89123 0.97495 0.0
H490 H 0.73467 0.814 0.93922 0.0
C491 C 0.75971 0.89125 0.01465 0.0
C492 C 0.77507 0.86328 0.02821 0.0
H493 H 0.72239 0.9128 0.96573 0.0
H494 H 0.76663 0.91279 0.03586 0.0
C495 C 0.76567 0.83566 0.00043 0.0
C496 C 0.58617 0.48905 0.71393 0.0
C497 C 0.61417 0.47466 0.69759 0.0
H498 H 0.56392 0.52342 0.76744 0.0
C499 C 0.64227 0.48515 0.72252 0.0
H500 H 0.56416 0.48128 0.69567 0.0
C501 C 0.6422 0.51012 0.7628 0.0
C502 C 0.61392 0.52387 0.77988 0.0
H503 H 0.66414 0.47434 0.7104 0.0
H504 H 0.66398 0.51816 0.78151 0.0
C505 C 0.586 0.51305 0.75522 0.0
C506 C 0.76111 0.33467 0.9696 0.0
C507 C 0.77374 0.36295 0.95011 0.0
H508 H 0.72781 0.31202 0.02486 0.0
C509 C 0.76145 0.39107 0.97168 0.0
H510 H 0.77031 0.31267 0.95392 0.0
C511 C 0.73628 0.3907 0.01147 0.0
C512 C 0.72412 0.36221 0.03143 0.0
H513 H 0.77089 0.41314 0.95704 0.0
H514 H 0.72674 0.4125 0.02733 0.0
C515 C 0.7369 0.3343 0.01041 0.0
C516 C 0.85572 0.48688 0.26286 0.0
C517 C 0.88404 0.47351 0.28082 0.0
H518 H 0.83375 0.52238 0.20981 0.0
C519 C 0.91202 0.48479 0.25724 0.0
H520 H 0.83389 0.47848 0.28074 0.0
C521 C 0.91188 0.50883 0.21604 0.0
C522 C 0.88382 0.52279 0.19876 0.0
H523 H 0.93414 0.47472 0.27015 0.0
H524 H 0.93393 0.51693 0.19853 0.0
C525 C 0.85566 0.51189 0.22271 0.0
C526 C 0.73935 0.66164 0.46402 0.0
C527 C 0.72466 0.6337 0.44827 0.0
H528 H 0.77415 0.68379 0.51667 0.0
C529 C 0.73507 0.6056 0.47331 0.0
H530 H 0.73166 0.68365 0.44566 0.0
C531 C 0.76022 0.60561 0.51316 0.0
C532 C 0.77428 0.63384 0.52969 0.0
H533 H 0.72404 0.58378 0.46162 0.0
H534 H 0.76817 0.58383 0.53201 0.0
C535 C 0.76356 0.66175 0.50487 0.0
C536 C 0.41218 0.48565 0.2227 0.0
C537 C 0.38412 0.4733 0.20148 0.0
H538 H 0.4342 0.51867 0.27951 0.0
C539 C 0.35577 0.48574 0.22155 0.0
H540 H 0.43435 0.47633 0.20817 0.0
C541 C 0.3557 0.51081 0.26157 0.0
C542 C 0.38396 0.52272 0.28326 0.0
H543 H 0.33386 0.47651 0.20554 0.0
H544 H 0.33374 0.52051 0.27623 0.0
C545 C 0.41209 0.50977 0.26375 0.0
C546 C 0.23648 0.60583 0.01191 0.0
C547 C 0.22404 0.63412 0.03229 0.0
H548 H 0.27127 0.58394 0.95706 0.0
C549 C 0.23646 0.66224 0.0115 0.0
H550 H 0.22721 0.58388 0.02758 0.0
C551 C 0.26063 0.66226 0.97057 0.0
C552 C 0.27355 0.63418 0.95071 0.0
H553 H 0.22715 0.68436 0.02625 0.0
H554 H 0.26956 0.68441 0.95511 0.0
C555 C 0.26159 0.60586 0.97199 0.0
C556 C 0.08614 0.48482 0.76001 0.0
C557 C 0.11427 0.47293 0.78185 0.0
H558 H 0.06391 0.5174 0.7026 0.0
C559 C 0.14254 0.48573 0.76217 0.0
H560 H 0.06405 0.4752 0.77423 0.0
C561 C 0.14243 0.51074 0.72201 0.0
C562 C 0.1141 0.5222 0.69976 0.0
H563 H 0.16449 0.47685 0.77866 0.0
H564 H 0.16431 0.52075 0.70772 0.0
C565 C 0.08607 0.50885 0.7188 0.0
C566 C 0.23749 0.33499 0.47053 0.0
C567 C 0.22435 0.36296 0.45064 0.0
H568 H 0.27114 0.31316 0.52628 0.0
C569 C 0.23614 0.39138 0.47181 0.0
H570 H 0.22871 0.31276 0.45515 0.0
C571 C 0.26126 0.39162 0.51174 0.0
C572 C 0.27389 0.36343 0.53221 0.0
H573 H 0.22631 0.41322 0.45685 0.0
H574 H 0.27039 0.41364 0.52737 0.0
C575 C 0.26167 0.33521 0.51145 0.0
C576 C 0.13492 0.20341 0.31558 0.0
C577 C 0.1238 0.1918 0.3699 0.0
H578 H 0.14862 0.24379 0.26596 0.0
C579 C 0.11848 0.2126 0.41693 0.0
H580 H 0.13918 0.18789 0.27856 0.0
C581 C 0.12387 0.24436 0.40982 0.0
C582 C 0.13463 0.25611 0.35544 0.0
H583 H 0.10996 0.20439 0.4594 0.0
H584 H 0.11937 0.25974 0.44696 0.0
C585 C 0.14025 0.23535 0.30837 0.0
C586 C 0.01052 0.89046 0.55806 0.0
C587 C 0.98989 0.88575 0.60569 0.0
H588 H 0.05787 0.88855 0.52777 0.0
C589 C 0.00179 0.87598 0.66065 0.0
H590 H 0.00197 0.89805 0.51521 0.0
C591 C 0.03355 0.87054 0.66774 0.0
C592 C 0.0542 0.87483 0.6201 0.0
H593 H 0.98652 0.87223 0.69823 0.0
H594 H 0.04187 0.86273 0.71063 0.0
C595 C 0.04247 0.88509 0.56525 0.0
C596 C 0.37878 0.78425 0.91638 0.0
C597 C 0.37334 0.80501 0.86935 0.0
H598 H 0.37813 0.73712 0.94641 0.0
C599 C 0.3623 0.79335 0.815 0.0
H600 H 0.38725 0.79251 0.95886 0.0
C601 C 0.35714 0.76137 0.80778 0.0
C602 C 0.36286 0.74065 0.85487 0.0
H603 H 0.35795 0.80884 0.77799 0.0
H604 H 0.34882 0.75287 0.76537 0.0
C605 C 0.37357 0.75246 0.90925 0.0
C606 C 0.4616 0.12736 0.16668 0.0
C607 C 0.44067 0.12224 0.11976 0.0
H608 H 0.50881 0.12632 0.19625 0.0
C609 C 0.45212 0.11127 0.0652 0.0
H610 H 0.4535 0.13575 0.20933 0.0
C611 C 0.48404 0.10593 0.05761 0.0
C612 C 0.50493 0.11139 0.10455 0.0
H613 H 0.4365 0.10717 0.02827 0.0
H614 H 0.49236 0.09771 0.01502 0.0
C615 C 0.49333 0.12196 0.15919 0.0
C616 C 0.1405 0.76104 0.17478 0.0
C617 C 0.13397 0.74014 0.12836 0.0
H618 H 0.14037 0.80865 0.20383 0.0
C619 C 0.12236 0.75175 0.0745 0.0
H620 H 0.14953 0.75271 0.21677 0.0
C621 C 0.11712 0.78352 0.0672 0.0
C622 C 0.12346 0.80448 0.11352 0.0
H623 H 0.11715 0.73627 0.03787 0.0
H624 H 0.108 0.79163 0.02512 0.0
C625 C 0.13533 0.79301 0.16737 0.0
C626 C 0.49388 0.87304 0.32358 0.0
C627 C 0.5055 0.88392 0.37798 0.0
H628 H 0.45401 0.85919 0.27363 0.0
C629 C 0.48463 0.88979 0.42474 0.0
H630 H 0.50935 0.86837 0.28666 0.0
C631 C 0.45267 0.8846 0.41718 0.0
C632 C 0.4412 0.87337 0.36283 0.0
H633 H 0.49297 0.89825 0.46715 0.0
H634 H 0.43705 0.88905 0.45394 0.0
C635 C 0.46212 0.86779 0.31612 0.0
C636 C 0.37929 0.21398 0.56754 0.0
C637 C 0.37337 0.19317 0.61429 0.0
H638 H 0.37918 0.26115 0.53779 0.0
C639 C 0.3621 0.20483 0.66846 0.0
H640 H 0.38795 0.20572 0.5252 0.0
C641 C 0.35716 0.23684 0.67577 0.0
C642 C 0.36331 0.25759 0.62893 0.0
H643 H 0.3574 0.18931 0.70526 0.0
H644 H 0.34861 0.24533 0.71801 0.0
C645 C 0.37428 0.24578 0.57475 0.0
C646 C 0.04171 0.1113 0.9174 0.0
C647 C 0.05338 0.12251 0.8632 0.0
H648 H 0.00122 0.09773 0.96686 0.0
C649 C 0.03262 0.12806 0.81619 0.0
H650 H 0.0572 0.10687 0.95439 0.0
C651 C 0.00084 0.12282 0.82322 0.0
C652 C 0.98901 0.11201 0.87749 0.0
H653 H 0.04089 0.13663 0.7738 0.0
H654 H 0.9855 0.1275 0.78609 0.0
C655 C 0.00972 0.10614 0.92454 0.0
C656 C 0.85684 0.76083 0.67515 0.0
C657 C 0.86384 0.73997 0.62892 0.0
H658 H 0.85648 0.80845 0.70419 0.0
C659 C 0.87585 0.75164 0.57545 0.0
H660 H 0.8475 0.75245 0.71685 0.0
C661 C 0.88097 0.78343 0.5683 0.0
C662 C 0.87413 0.80436 0.6144 0.0
H663 H 0.88144 0.73618 0.53897 0.0
H664 H 0.89039 0.79157 0.52649 0.0
C665 C 0.86191 0.79283 0.6679 0.0
C666 C 0.96278 0.12824 0.31645 0.0
C667 C 0.94194 0.12288 0.36339 0.0
H668 H 0.00993 0.12743 0.28661 0.0
C669 C 0.95351 0.11173 0.41773 0.0
H670 H 0.9546 0.13678 0.27396 0.0
C671 C 0.98546 0.10642 0.42506 0.0
C672 C 0.00626 0.11212 0.3781 0.0
H673 H 0.93796 0.10744 0.45468 0.0
H674 H 0.99388 0.09804 0.46748 0.0
C675 C 0.99453 0.1229 0.32369 0.0
C676 C 0.63985 0.23442 0.17341 0.0
C677 C 0.63406 0.25528 0.12659 0.0
H678 H 0.63869 0.18691 0.20294 0.0
C679 C 0.62287 0.24368 0.0724 0.0
H680 H 0.64854 0.24274 0.21567 0.0
C681 C 0.61723 0.21197 0.06522 0.0
C682 C 0.62274 0.19106 0.11199 0.0
H683 H 0.61823 0.25913 0.03545 0.0
H684 H 0.60839 0.20387 0.0229 0.0
C685 C 0.63428 0.20251 0.16613 0.0
C686 C 0.54308 0.88522 0.9183 0.0
C687 C 0.55464 0.87372 0.86423 0.0
H688 H 0.50271 0.89932 0.96764 0.0
C689 C 0.5338 0.86812 0.81737 0.0
H690 H 0.55863 0.88971 0.95518 0.0
C691 C 0.50207 0.87362 0.82438 0.0
C692 C 0.49035 0.88478 0.8785 0.0
H693 H 0.54197 0.85932 0.77508 0.0
H694 H 0.48668 0.86892 0.78734 0.0
C695 C 0.51113 0.89066 0.92543 0.0
C696 C 0.85684 0.23658 0.80685 0.0
C697 C 0.86303 0.25729 0.85374 0.0
H698 H 0.85697 0.18906 0.77726 0.0
C699 C 0.87399 0.24544 0.9079 0.0
H700 H 0.84831 0.2451 0.76462 0.0
C701 C 0.87893 0.21362 0.91503 0.0
C702 C 0.87296 0.19285 0.86824 0.0
H703 H 0.87893 0.26078 0.9449 0.0
H704 H 0.88758 0.20533 0.95736 0.0
C705 C 0.86171 0.20456 0.81409 0.0
C706 C 0.54227 0.11221 0.56441 0.0
C707 C 0.55399 0.12331 0.61868 0.0
H708 H 0.50175 0.09863 0.51499 0.0
C709 C 0.53327 0.12866 0.66583 0.0
H710 H 0.55773 0.10792 0.52732 0.0
C711 C 0.5015 0.12333 0.65889 0.0
C712 C 0.48963 0.11262 0.60456 0.0
H713 H 0.54157 0.13714 0.70827 0.0
H714 H 0.48621 0.12785 0.69614 0.0
C715 C 0.51029 0.10696 0.55736 0.0
C716 C 0.63978 0.76098 0.30837 0.0
C717 C 0.63447 0.7402 0.35551 0.0
H718 H 0.63837 0.80844 0.27862 0.0
C719 C 0.62394 0.75191 0.4101 0.0
H720 H 0.64796 0.75257 0.2658 0.0
C721 C 0.61844 0.78364 0.41733 0.0
C722 C 0.62344 0.80446 0.37021 0.0
H723 H 0.61968 0.73651 0.44731 0.0
H724 H 0.61009 0.79182 0.45994 0.0
C725 C 0.63437 0.79291 0.3157 0.0
C726 C 0.95457 0.88521 0.06405 0.0
C727 C 0.94278 0.87532 0.11908 0.0
H728 H 0.99514 0.89771 0.01383 0.0
C729 C 0.9634 0.87121 0.16685 0.0
H730 H 0.93919 0.88852 0.02646 0.0
C731 C 0.99518 0.87646 0.15972 0.0
C732 C 0.00713 0.88586 0.10459 0.0
H733 H 0.95503 0.86368 0.20988 0.0
H734 H 0.01042 0.87286 0.19742 0.0
C735 C 0.98654 0.89039 0.05682 0.0
C736 C 0.64039 0.73578 0.80835 0.0
C737 C 0.63524 0.75642 0.85581 0.0
H738 H 0.63904 0.68839 0.77816 0.0
C739 C 0.6251 0.74452 0.91051 0.0
H740 H 0.64827 0.74433 0.76569 0.0
C741 C 0.61981 0.71274 0.91753 0.0
C742 C 0.62463 0.69206 0.87009 0.0
H743 H 0.62098 0.7598 0.94794 0.0
H744 H 0.61174 0.7044 0.96023 0.0
C745 C 0.63518 0.70381 0.81548 0.0
C746 C 0.50255 0.37359 0.15924 0.0
C747 C 0.49068 0.38401 0.1047 0.0
H748 H 0.5426 0.3599 0.20881 0.0
C749 C 0.51133 0.38927 0.05732 0.0
H750 H 0.48726 0.36939 0.19663 0.0
C751 C 0.54329 0.3839 0.06439 0.0
C752 C 0.555 0.37309 0.11887 0.0
H753 H 0.5028 0.39737 0.01478 0.0
H754 H 0.55873 0.38785 0.02714 0.0
C755 C 0.5343 0.36816 0.16621 0.0
C756 C 0.87434 0.25231 0.40837 0.0
C757 C 0.86293 0.24067 0.35437 0.0
H758 H 0.88867 0.29219 0.4578 0.0
C759 C 0.85667 0.26154 0.30777 0.0
H760 H 0.87934 0.23686 0.44515 0.0
C761 C 0.86197 0.29349 0.31511 0.0
C762 C 0.87367 0.30499 0.36908 0.0
H763 H 0.8478 0.25318 0.26567 0.0
H764 H 0.85717 0.3091 0.27848 0.0
C765 C 0.87968 0.28407 0.41561 0.0
C766 C 0.95412 0.61116 0.56478 0.0
C767 C 0.94239 0.62142 0.61962 0.0
H768 H 0.99462 0.59819 0.51477 0.0
C769 C 0.96305 0.62573 0.66727 0.0
H770 H 0.93871 0.60768 0.5273 0.0
C771 C 0.9948 0.6203 0.6602 0.0
C772 C 0.0067 0.61052 0.60526 0.0
H773 H 0.95474 0.63354 0.71016 0.0
H774 H 0.01007 0.62407 0.6978 0.0
C775 C 0.98607 0.60579 0.55761 0.0
C776 C 0.62361 0.25217 0.5726 0.0
C777 C 0.63445 0.2404 0.62691 0.0
H778 H 0.60978 0.29219 0.52306 0.0
C779 C 0.6403 0.26115 0.6739 0.0
H780 H 0.61894 0.2368 0.53553 0.0
C781 C 0.63514 0.29313 0.66665 0.0
C782 C 0.62393 0.30475 0.61241 0.0
H783 H 0.64873 0.25268 0.71625 0.0
H784 H 0.63959 0.30865 0.70359 0.0
C785 C 0.61836 0.28395 0.56548 0.0
C786 C 0.9867 0.39042 0.92522 0.0
C787 C 0.00743 0.38479 0.87813 0.0
H788 H 0.9392 0.3896 0.9549 0.0
C789 C 0.99562 0.37433 0.82357 0.0
H790 H 0.99519 0.39856 0.96776 0.0
C791 C 0.96383 0.36922 0.81631 0.0
C792 C 0.94304 0.37452 0.86337 0.0
H793 H 0.01096 0.36985 0.78638 0.0
H794 H 0.95557 0.36092 0.7737 0.0
C795 C 0.9547 0.38537 0.91786 0.0
C796 C 0.87671 0.74535 0.07507 0.0
C797 C 0.86442 0.75695 0.12838 0.0
H798 H 0.89154 0.70548 0.02618 0.0
C799 C 0.85722 0.73603 0.17438 0.0
H800 H 0.88246 0.76085 0.03876 0.0
C801 C 0.86236 0.70405 0.16708 0.0
C802 C 0.87486 0.69258 0.11374 0.0
H803 H 0.84766 0.74435 0.21594 0.0
H804 H 0.85677 0.68838 0.20319 0.0
C805 C 0.8819 0.71357 0.06786 0.0
C806 C 0.53381 0.62822 0.31663 0.0
C807 C 0.55464 0.62291 0.36363 0.0
H808 H 0.48666 0.62739 0.28671 0.0
C809 C 0.54306 0.61187 0.41803 0.0
H810 H 0.54201 0.63666 0.2741 0.0
C811 C 0.51109 0.60663 0.42535 0.0
C812 C 0.49031 0.61225 0.3783 0.0
H813 H 0.5586 0.60761 0.45501 0.0
H814 H 0.50266 0.59834 0.46781 0.0
C815 C 0.50205 0.62291 0.32385 0.0
C816 C 0.37889 0.28349 0.06771 0.0
C817 C 0.37313 0.30444 0.11432 0.0
H818 H 0.37817 0.2363 0.0381 0.0
C819 C 0.36148 0.29301 0.16837 0.0
H820 H 0.38783 0.29156 0.02546 0.0
C821 C 0.356 0.26109 0.1757 0.0
C822 C 0.36201 0.24019 0.12902 0.0
H823 H 0.35688 0.30864 0.20505 0.0
H824 H 0.34718 0.25278 0.21786 0.0
C825 C 0.37336 0.25177 0.07495 0.0
C826 C 0.46358 0.62882 0.81689 0.0
C827 C 0.44274 0.62323 0.86374 0.0
H828 H 0.51072 0.62817 0.78701 0.0
C829 C 0.45433 0.61187 0.91791 0.0
H830 H 0.45538 0.63752 0.77453 0.0
C831 C 0.48629 0.60657 0.92515 0.0
C832 C 0.50707 0.61247 0.87826 0.0
H833 H 0.43878 0.6074 0.95478 0.0
H834 H 0.49472 0.59801 0.96743 0.0
C835 C 0.49534 0.62347 0.82404 0.0
C836 C 0.13453 0.70336 0.66794 0.0
C837 C 0.12262 0.6918 0.61418 0.0
H838 H 0.14866 0.74376 0.71714 0.0
C839 C 0.11609 0.7127 0.56788 0.0
H840 H 0.13972 0.68777 0.7044 0.0
C841 C 0.12119 0.74449 0.57508 0.0
C842 C 0.13286 0.75619 0.62882 0.0
H843 H 0.10692 0.70453 0.52587 0.0
H844 H 0.11583 0.75992 0.53844 0.0
C845 C 0.13957 0.73536 0.67524 0.0
C846 C 0.03434 0.36864 0.31674 0.0
C847 C 0.05513 0.37384 0.36385 0.0
H848 H 0.98723 0.36968 0.28663 0.0
C849 C 0.04352 0.3849 0.41822 0.0
H850 H 0.04255 0.36019 0.27423 0.0
C851 C 0.01158 0.39028 0.42542 0.0
C852 C 0.99083 0.38476 0.37827 0.0
H853 H 0.05904 0.38906 0.45529 0.0
H854 H 0.00312 0.39858 0.46786 0.0
C855 C 0.00259 0.37408 0.32384 0.0
C856 C 0.378 0.71288 0.41591 0.0
C857 C 0.3727 0.69196 0.36906 0.0
H858 H 0.37696 0.76006 0.44559 0.0
C859 C 0.36148 0.7034 0.31468 0.0
H860 H 0.38659 0.70479 0.45842 0.0
C861 C 0.35604 0.73532 0.30723 0.0
C862 C 0.36162 0.75619 0.35414 0.0
H863 H 0.35723 0.68778 0.27781 0.0
H864 H 0.34761 0.74365 0.26478 0.0
C865 C 0.37248 0.74459 0.40857 0.0
C866 C 0.00266 0.62096 0.16003 0.0
C867 C 0.9908 0.6112 0.10504 0.0
H868 H 0.04271 0.6341 0.21017 0.0
C869 C 0.01146 0.6064 0.0575 0.0
H870 H 0.98736 0.62478 0.19755 0.0
C871 C 0.04342 0.61167 0.06482 0.0
C872 C 0.05511 0.62192 0.11971 0.0
H873 H 0.00294 0.59881 0.01462 0.0
H874 H 0.05887 0.60814 0.02742 0.0
C875 C 0.03442 0.6263 0.16725 0.0
C876 C 0.12356 0.25142 0.90944 0.0
C877 C 0.13406 0.23956 0.85496 0.0
H878 H 0.11021 0.29153 0.95917 0.0
C879 C 0.13982 0.26025 0.80787 0.0
H880 H 0.11897 0.23609 0.9466 0.0
C881 C 0.13488 0.29226 0.81517 0.0
C882 C 0.12401 0.30398 0.86958 0.0
H883 H 0.148 0.25172 0.76539 0.0
H884 H 0.13924 0.30774 0.77814 0.0
C885 C 0.11854 0.28323 0.91663 0.0
C886 C 0.46366 0.37045 0.66678 0.0
C887 C 0.44287 0.3753 0.61955 0.0
H888 H 0.51081 0.37152 0.69674 0.0
C889 C 0.45448 0.38585 0.56483 0.0
H890 H 0.45544 0.3624 0.70957 0.0
C891 C 0.48645 0.391 0.55738 0.0
C892 C 0.50721 0.38578 0.60463 0.0
H893 H 0.43896 0.38974 0.52765 0.0
H894 H 0.4949 0.39887 0.51464 0.0
C895 C 0.49543 0.37568 0.65944 0.0
C896 C 0.13002 0.06894 0.60431 0.0
C897 C 0.14479 0.08485 0.55777 0.0
H898 H 0.12407 0.06496 0.69831 0.0
C899 C 0.16915 0.10555 0.57086 0.0
H900 H 0.11128 0.05275 0.59528 0.0
C901 C 0.17602 0.11304 0.62974 0.0
C902 C 0.15914 0.09935 0.67621 0.0
H903 H 0.18096 0.11811 0.53577 0.0
H904 H 0.193 0.13107 0.63872 0.0
C905 C 0.13742 0.07588 0.66323 0.0
C906 C 0.17751 0.88002 0.85361 0.0
C907 C 0.16172 0.89489 0.80702 0.0
H908 H 0.18149 0.87419 0.94763 0.0
C909 C 0.14134 0.91953 0.81998 0.0
H910 H 0.19346 0.86107 0.84467 0.0
C911 C 0.13398 0.92659 0.87884 0.0
C912 C 0.14749 0.90961 0.92538 0.0
H913 H 0.12888 0.93142 0.78484 0.0
H914 H 0.11615 0.94379 0.88775 0.0
C915 C 0.1707 0.88761 0.91249 0.0
C916 C 0.36464 0.92711 0.10369 0.0
C917 C 0.35055 0.91093 0.05672 0.0
H918 H 0.36982 0.93117 0.19782 0.0
C919 C 0.32656 0.88968 0.06908 0.0
H920 H 0.38308 0.94372 0.0952 0.0
C921 C 0.31944 0.88199 0.12776 0.0
C922 C 0.33569 0.89601 0.17472 0.0
H923 H 0.3153 0.87688 0.03363 0.0
H924 H 0.30281 0.86358 0.13624 0.0
C925 C 0.35697 0.91997 0.16237 0.0
C926 C 0.32564 0.10927 0.41422 0.0
C927 C 0.34909 0.08747 0.42695 0.0
H928 H 0.30238 0.13548 0.34656 0.0
C929 C 0.36259 0.07056 0.38032 0.0
H930 H 0.31485 0.12264 0.44943 0.0
C931 C 0.35495 0.07745 0.32153 0.0
C932 C 0.33427 0.10187 0.30867 0.0
H933 H 0.3806 0.05353 0.38911 0.0
H934 H 0.36737 0.06561 0.2863 0.0
C935 C 0.31855 0.11669 0.35539 0.0
C936 C 0.81996 0.87987 0.35362 0.0
C937 C 0.83566 0.89488 0.30712 0.0
H938 H 0.81601 0.87384 0.4476 0.0
C939 C 0.85611 0.91945 0.3203 0.0
H940 H 0.80398 0.86096 0.34453 0.0
C941 C 0.8635 0.92637 0.3792 0.0
C942 C 0.84998 0.90933 0.42564 0.0
H943 H 0.86853 0.93144 0.28524 0.0
H944 H 0.88132 0.94357 0.38824 0.0
C945 C 0.8268 0.88732 0.41256 0.0
C946 C 0.86305 0.07072 0.10298 0.0
C947 C 0.84931 0.08753 0.05644 0.0
H948 H 0.8683 0.06599 0.19696 0.0
C949 C 0.82601 0.10943 0.06942 0.0
H950 H 0.88096 0.05361 0.09402 0.0
C951 C 0.81924 0.11701 0.12832 0.0
C952 C 0.83514 0.10225 0.17489 0.0
H953 H 0.81506 0.12273 0.03431 0.0
H954 H 0.80315 0.13585 0.13729 0.0
C955 C 0.85572 0.07778 0.16186 0.0
C956 C 0.67548 0.11364 0.85284 0.0
C957 C 0.65888 0.10003 0.80589 0.0
H958 H 0.67994 0.11845 0.94696 0.0
C959 C 0.63712 0.07651 0.81821 0.0
H960 H 0.69247 0.13173 0.84437 0.0
C961 C 0.62944 0.06939 0.87691 0.0
C962 C 0.64397 0.08516 0.9239 0.0
H963 H 0.62398 0.06566 0.78276 0.0
H964 H 0.61069 0.05314 0.8854 0.0
C965 C 0.66834 0.10596 0.91151 0.0
C966 C 0.66889 0.89025 0.57063 0.0
C967 C 0.64448 0.91097 0.55795 0.0
H968 H 0.69303 0.86472 0.6381 0.0
C969 C 0.62989 0.92685 0.60474 0.0
H970 H 0.68054 0.8777 0.53533 0.0
C971 C 0.63755 0.9199 0.66353 0.0
C972 C 0.65934 0.89645 0.67615 0.0
H973 H 0.61111 0.94303 0.59602 0.0
H974 H 0.62435 0.93082 0.69883 0.0
C975 C 0.67601 0.88276 0.6294 0.0
C976 C 0.63132 0.56954 0.10415 0.0
C977 C 0.64587 0.58554 0.05748 0.0
H978 H 0.62553 0.56559 0.19818 0.0
C979 C 0.66999 0.60655 0.07038 0.0
H980 H 0.61275 0.55312 0.09526 0.0
C981 C 0.67683 0.6142 0.12921 0.0
C982 C 0.66017 0.60036 0.17581 0.0
H983 H 0.6816 0.61921 0.03519 0.0
H984 H 0.69362 0.63243 0.13805 0.0
C985 C 0.6387 0.57663 0.163 0.0
C986 C 0.67049 0.38757 0.4119 0.0
C987 C 0.64713 0.40947 0.42445 0.0
H988 H 0.69347 0.36091 0.34453 0.0
C989 C 0.63342 0.42607 0.37761 0.0
H990 H 0.68141 0.37443 0.44727 0.0
C991 C 0.64082 0.41879 0.31887 0.0
C992 C 0.66146 0.39429 0.30631 0.0
H993 H 0.61545 0.44316 0.38624 0.0
H994 H 0.62827 0.4304 0.28353 0.0
C995 C 0.67734 0.37976 0.35315 0.0
C996 C 0.82054 0.38309 0.62903 0.0
C997 C 0.83708 0.39708 0.67564 0.0
H998 H 0.81601 0.37775 0.53503 0.0
C999 C 0.85856 0.42078 0.66278 0.0
H1000 H 0.80375 0.36487 0.63791 0.0
C1001 C 0.86609 0.42768 0.60392 0.0
C1002 C 0.85168 0.4115 0.55729 0.0
H1003 H 0.87165 0.43194 0.69797 0.0
H1004 H 0.88467 0.44408 0.59504 0.0
C1005 C 0.82753 0.39053 0.57019 0.0
C1006 C 0.86382 0.57028 0.87907 0.0
C1007 C 0.85034 0.58726 0.92566 0.0
H1008 H 0.86862 0.56527 0.78506 0.0
C1009 C 0.82696 0.6091 0.91286 0.0
H1010 H 0.88178 0.5532 0.88792 0.0
C1011 C 0.81989 0.6165 0.854 0.0
C1012 C 0.83559 0.60161 0.80733 0.0
H1013 H 0.81618 0.62251 0.94802 0.0
H1014 H 0.80378 0.63532 0.8451 0.0
C1015 C 0.8562 0.57715 0.82025 0.0
C1016 C 0.35796 0.42058 0.82076 0.0
C1017 C 0.33666 0.39674 0.80766 0.0
H1018 H 0.38394 0.44387 0.88871 0.0
C1019 C 0.32029 0.38246 0.85414 0.0
H1020 H 0.3709 0.43198 0.78568 0.0
C1021 C 0.32729 0.38976 0.91306 0.0
C1022 C 0.35128 0.41089 0.92614 0.0
H1023 H 0.30365 0.36412 0.84509 0.0
H1024 H 0.31593 0.37676 0.9481 0.0
C1025 C 0.3655 0.42734 0.87968 0.0
C1026 C 0.32023 0.61541 0.62931 0.0
C1027 C 0.33651 0.60116 0.67599 0.0
H1028 H 0.31587 0.62076 0.53526 0.0
C1029 C 0.35761 0.5771 0.66321 0.0
H1030 H 0.30374 0.63391 0.63812 0.0
C1031 C 0.36505 0.57003 0.60439 0.0
C1032 C 0.35093 0.58641 0.5577 0.0
H1033 H 0.37047 0.56572 0.69843 0.0
H1034 H 0.38335 0.55332 0.59557 0.0
C1035 C 0.32713 0.6078 0.57049 0.0
C1036 C 0.13303 0.56987 0.37912 0.0
C1037 C 0.14676 0.58653 0.42587 0.0
H1038 H 0.12799 0.5653 0.28505 0.0
C1039 C 0.17029 0.60824 0.41322 0.0
H1040 H 0.11495 0.55291 0.38783 0.0
C1041 C 0.17728 0.61582 0.35443 0.0
C1042 C 0.16137 0.60125 0.30765 0.0
H1043 H 0.18126 0.62141 0.4485 0.0
H1044 H 0.19354 0.63454 0.3457 0.0
C1045 C 0.14057 0.57693 0.32034 0.0
C1046 C 0.14041 0.41933 0.16294 0.0
C1047 C 0.16136 0.39515 0.17585 0.0
H1048 H 0.11483 0.44319 0.09518 0.0
C1049 C 0.17753 0.38073 0.12925 0.0
H1050 H 0.12763 0.43084 0.19811 0.0
C1051 C 0.17067 0.3883 0.07039 0.0
C1052 C 0.14702 0.40984 0.05748 0.0
H1053 H 0.1939 0.36213 0.13815 0.0
H1054 H 0.18185 0.37522 0.03523 0.0
C1055 C 0.13301 0.42636 0.10408 0.0
loop_
_geom_bond_atom_site_label_1
_geom_bond_atom_site_label_2
_geom_bond_distance
_geom_bond_site_symmetry_2
_ccdc_geom_bond_type
In0 O1 2.294 . S
In0 O2 2.326 . S
In0 O6 2.266 . S
In0 O7 2.326 . S
In0 O8 2.266 . S
In0 O9 2.326 . S
In0 O11 2.294 . S
In0 O12 2.326 . S
O1 In0 2.294 . S
O1 C10 1.240 . S
O2 In0 2.326 . S
O2 C10 1.252 . S
C3 O6 1.252 . S
C3 O7 1.260 . S
C4 O11 1.240 . S
C4 O12 1.252 . S
C5 O8 1.252 . S
C5 O9 1.260 . S
O6 In0 2.266 . S
O6 C3 1.252 . S
O7 In0 2.326 . S
O7 C3 1.260 . S
O8 In0 2.266 . S
O8 C5 1.252 . S
O9 In0 2.326 . S
O9 C5 1.260 . S
C10 O1 1.240 . S
C10 O2 1.252 . S
O11 In0 2.294 . S
O11 C4 1.240 . S
O12 In0 2.326 . S
O12 C4 1.252 . S
In13 O14 2.294 . S
In13 O15 2.326 . S
In13 O19 2.266 . S
In13 O20 2.326 . S
In13 O21 2.266 . S
In13 O22 2.326 . S
In13 O24 2.294 . S
In13 O25 2.326 . S
O14 In13 2.294 . S
O14 C23 1.240 . S
O15 In13 2.326 . S
O15 C23 1.252 . S
C16 O19 1.252 . S
C16 O20 1.260 . S
C17 O24 1.240 . S
C17 O25 1.252 . S
C18 O21 1.252 . S
C18 O22 1.260 . S
O19 In13 2.266 . S
O19 C16 1.252 . S
O20 In13 2.326 . S
O20 C16 1.260 . S
O21 In13 2.266 . S
O21 C18 1.252 . S
O22 In13 2.326 . S
O22 C18 1.260 . S
C23 O14 1.240 . S
C23 O15 1.252 . S
O24 In13 2.294 . S
O24 C17 1.240 . S
O25 In13 2.326 . S
O25 C17 1.252 . S
In26 O27 2.294 . S
In26 O28 2.326 . S
In26 O32 2.266 1_556 S
In26 O33 2.326 . S
In26 O34 2.266 . S
In26 O35 2.326 . S
In26 O37 2.294 . S
In26 O38 2.326 . S
O27 In26 2.294 . S
O27 C36 1.240 . S
O28 In26 2.326 . S
O28 C36 1.252 . S
C29 O32 1.252 . S
C29 O33 1.260 1_554 S
C30 O37 1.240 . S
C30 O38 1.252 . S
C31 O34 1.252 . S
C31 O35 1.260 . S
O32 In26 2.266 1_554 S
O32 C29 1.252 . S
O33 In26 2.326 . S
O33 C29 1.260 1_556 S
O34 In26 2.266 . S
O34 C31 1.252 . S
O35 In26 2.326 . S
O35 C31 1.260 . S
C36 O27 1.240 . S
C36 O28 1.252 . S
O37 In26 2.294 . S
O37 C30 1.240 . S
O38 In26 2.326 . S
O38 C30 1.252 . S
In39 O40 2.294 . S
In39 O41 2.326 . S
In39 O45 2.266 . S
In39 O46 2.326 . S
In39 O47 2.266 . S
In39 O48 2.326 . S
In39 O50 2.294 . S
In39 O51 2.326 . S
O40 In39 2.294 . S
O40 C49 1.240 . S
O41 In39 2.326 . S
O41 C49 1.252 . S
C42 O45 1.252 . S
C42 O46 1.260 . S
C43 O50 1.240 . S
C43 O51 1.252 . S
C44 O47 1.252 . S
C44 O48 1.260 . S
O45 In39 2.266 . S
O45 C42 1.252 . S
O46 In39 2.326 . S
O46 C42 1.260 . S
O47 In39 2.266 . S
O47 C44 1.252 . S
O48 In39 2.326 . S
O48 C44 1.260 . S
C49 O40 1.240 . S
C49 O41 1.252 . S
O50 In39 2.294 . S
O50 C43 1.240 . S
O51 In39 2.326 . S
O51 C43 1.252 . S
In52 O53 2.294 . S
In52 O54 2.326 . S
In52 O58 2.266 1_554 S
In52 O59 2.326 . S
In52 O60 2.266 . S
In52 O61 2.326 . S
In52 O63 2.294 . S
In52 O64 2.326 . S
O53 In52 2.294 . S
O53 C62 1.240 . S
O54 In52 2.326 . S
O54 C62 1.252 . S
C55 O58 1.252 . S
C55 O59 1.260 1_556 S
C56 O63 1.240 . S
C56 O64 1.252 . S
C57 O60 1.252 . S
C57 O61 1.260 . S
O58 In52 2.266 1_556 S
O58 C55 1.252 . S
O59 In52 2.326 . S
O59 C55 1.260 1_554 S
O60 In52 2.266 . S
O60 C57 1.252 . S
O61 In52 2.326 . S
O61 C57 1.260 . S
C62 O53 1.240 . S
C62 O54 1.252 . S
O63 In52 2.294 . S
O63 C56 1.240 . S
O64 In52 2.326 . S
O64 C56 1.252 . S
In65 O66 2.294 . S
In65 O67 2.326 . S
In65 O71 2.266 . S
In65 O72 2.326 . S
In65 O73 2.266 . S
In65 O74 2.326 . S
In65 O76 2.294 . S
In65 O77 2.326 . S
O66 In65 2.294 . S
O66 C75 1.240 . S
O67 In65 2.326 . S
O67 C75 1.252 . S
C68 O71 1.252 . S
C68 O72 1.260 . S
C69 O76 1.240 . S
C69 O77 1.252 . S
C70 O73 1.252 . S
C70 O74 1.260 . S
O71 In65 2.266 . S
O71 C68 1.252 . S
O72 In65 2.326 . S
O72 C68 1.260 . S
O73 In65 2.266 . S
O73 C70 1.252 . S
O74 In65 2.326 . S
O74 C70 1.260 . S
C75 O66 1.240 . S
C75 O67 1.252 . S
O76 In65 2.294 . S
O76 C69 1.240 . S
O77 In65 2.326 . S
O77 C69 1.252 . S
In78 O79 2.294 . S
In78 O80 2.326 . S
In78 O84 2.266 . S
In78 O85 2.326 . S
In78 O86 2.266 . S
In78 O87 2.326 . S
In78 O89 2.294 . S
In78 O90 2.326 . S
O79 In78 2.294 . S
O79 C88 1.240 . S
O80 In78 2.326 . S
O80 C88 1.252 . S
C81 O84 1.252 . S
C81 O85 1.260 . S
C82 O89 1.240 . S
C82 O90 1.252 . S
C83 O86 1.252 . S
C83 O87 1.260 . S
O84 In78 2.266 . S
O84 C81 1.252 . S
O85 In78 2.326 . S
O85 C81 1.260 . S
O86 In78 2.266 . S
O86 C83 1.252 . S
O87 In78 2.326 . S
O87 C83 1.260 . S
C88 O79 1.240 . S
C88 O80 1.252 . S
O89 In78 2.294 . S
O89 C82 1.240 . S
O90 In78 2.326 . S
O90 C82 1.252 . S
In91 O92 2.294 . S
In91 O93 2.326 . S
In91 O97 2.266 . S
In91 O98 2.326 . S
In91 O99 2.266 . S
In91 O100 2.326 . S
In91 O102 2.294 . S
In91 O103 2.326 . S
O92 In91 2.294 . S
O92 C101 1.240 . S
O93 In91 2.326 . S
O93 C101 1.252 . S
C94 O97 1.252 . S
C94 O98 1.260 . S
C95 O102 1.240 . S
C95 O103 1.252 . S
C96 O99 1.252 . S
C96 O100 1.260 . S
O97 In91 2.266 . S
O97 C94 1.252 . S
O98 In91 2.326 . S
O98 C94 1.260 . S
O99 In91 2.266 . S
O99 C96 1.252 . S
O100 In91 2.326 . S
O100 C96 1.260 . S
C101 O92 1.240 . S
C101 O93 1.252 . S
O102 In91 2.294 . S
O102 C95 1.240 . S
O103 In91 2.326 . S
O103 C95 1.252 . S
In104 O105 2.294 . S
In104 O106 2.326 . S
In104 O110 2.266 . S
In104 O111 2.326 . S
In104 O112 2.266 . S
In104 O113 2.326 . S
In104 O115 2.294 . S
In104 O116 2.326 . S
O105 In104 2.294 . S
O105 C114 1.240 . S
O106 In104 2.326 . S
O106 C114 1.252 . S
C107 O110 1.252 . S
C107 O111 1.260 . S
C108 O115 1.240 . S
C108 O116 1.252 . S
C109 O112 1.252 . S
C109 O113 1.260 . S
O110 In104 2.266 . S
O110 C107 1.252 . S
O111 In104 2.326 . S
O111 C107 1.260 . S
O112 In104 2.266 . S
O112 C109 1.252 . S
O113 In104 2.326 . S
O113 C109 1.260 . S
C114 O105 1.240 . S
C114 O106 1.252 . S
O115 In104 2.294 . S
O115 C108 1.240 . S
O116 In104 2.326 . S
O116 C108 1.252 . S
In117 O118 2.294 . S
In117 O119 2.326 . S
In117 O123 2.266 . S
In117 O124 2.326 . S
In117 O125 2.266 . S
In117 O126 2.326 . S
In117 O128 2.294 . S
In117 O129 2.326 . S
O118 In117 2.294 . S
O118 C127 1.240 . S
O119 In117 2.326 . S
O119 C127 1.252 . S
C120 O123 1.252 . S
C120 O124 1.260 . S
C121 O128 1.240 . S
C121 O129 1.252 . S
C122 O125 1.252 . S
C122 O126 1.260 . S
O123 In117 2.266 . S
O123 C120 1.252 . S
O124 In117 2.326 . S
O124 C120 1.260 . S
O125 In117 2.266 . S
O125 C122 1.252 . S
O126 In117 2.326 . S
O126 C122 1.260 . S
C127 O118 1.240 . S
C127 O119 1.252 . S
O128 In117 2.294 . S
O128 C121 1.240 . S
O129 In117 2.326 . S
O129 C121 1.252 . S
In130 O131 2.294 . S
In130 O132 2.326 . S
In130 O136 2.266 . S
In130 O137 2.326 . S
In130 O138 2.266 1_554 S
In130 O139 2.326 . S
In130 O141 2.294 . S
In130 O142 2.326 . S
O131 In130 2.294 . S
O131 C140 1.240 . S
O132 In130 2.326 . S
O132 C140 1.252 . S
C133 O136 1.252 . S
C133 O137 1.260 . S
C134 O141 1.240 . S
C134 O142 1.252 . S
C135 O138 1.252 . S
C135 O139 1.260 1_556 S
O136 In130 2.266 . S
O136 C133 1.252 . S
O137 In130 2.326 . S
O137 C133 1.260 . S
O138 In130 2.266 1_556 S
O138 C135 1.252 . S
O139 In130 2.326 . S
O139 C135 1.260 1_554 S
C140 O131 1.240 . S
C140 O132 1.252 . S
O141 In130 2.294 . S
O141 C134 1.240 . S
O142 In130 2.326 . S
O142 C134 1.252 . S
In143 O144 2.294 . S
In143 O145 2.326 . S
In143 O149 2.266 . S
In143 O150 2.326 . S
In143 O151 2.266 . S
In143 O152 2.326 . S
In143 O154 2.294 . S
In143 O155 2.326 . S
O144 In143 2.294 . S
O144 C153 1.240 . S
O145 In143 2.326 . S
O145 C153 1.252 . S
C146 O149 1.252 . S
C146 O150 1.260 . S
C147 O154 1.240 . S
C147 O155 1.252 . S
C148 O151 1.252 . S
C148 O152 1.260 . S
O149 In143 2.266 . S
O149 C146 1.252 . S
O150 In143 2.326 . S
O150 C146 1.260 . S
O151 In143 2.266 . S
O151 C148 1.252 . S
O152 In143 2.326 . S
O152 C148 1.260 . S
C153 O144 1.240 . S
C153 O145 1.252 . S
O154 In143 2.294 . S
O154 C147 1.240 . S
O155 In143 2.326 . S
O155 C147 1.252 . S
In156 O157 2.294 . S
In156 O158 2.326 . S
In156 O162 2.266 . S
In156 O163 2.326 . S
In156 O164 2.266 1_556 S
In156 O165 2.326 . S
In156 O167 2.294 . S
In156 O168 2.326 . S
O157 In156 2.294 . S
O157 C166 1.240 . S
O158 In156 2.326 . S
O158 C166 1.252 . S
C159 O162 1.252 . S
C159 O163 1.260 . S
C160 O167 1.240 . S
C160 O168 1.252 . S
C161 O164 1.252 . S
C161 O165 1.260 1_554 S
O162 In156 2.266 . S
O162 C159 1.252 . S
O163 In156 2.326 . S
O163 C159 1.260 . S
O164 In156 2.266 1_554 S
O164 C161 1.252 . S
O165 In156 2.326 . S
O165 C161 1.260 1_556 S
C166 O157 1.240 . S
C166 O158 1.252 . S
O167 In156 2.294 . S
O167 C160 1.240 . S
O168 In156 2.326 . S
O168 C160 1.252 . S
In169 O170 2.294 . S
In169 O171 2.326 . S
In169 O175 2.266 . S
In169 O176 2.326 . S
In169 O177 2.266 . S
In169 O178 2.326 . S
In169 O180 2.294 . S
In169 O181 2.326 . S
O170 In169 2.294 . S
O170 C179 1.240 . S
O171 In169 2.326 . S
O171 C179 1.252 . S
C172 O175 1.252 . S
C172 O176 1.260 . S
C173 O180 1.240 . S
C173 O181 1.252 . S
C174 O177 1.252 . S
C174 O178 1.260 . S
O175 In169 2.266 . S
O175 C172 1.252 . S
O176 In169 2.326 . S
O176 C172 1.260 . S
O177 In169 2.266 . S
O177 C174 1.252 . S
O178 In169 2.326 . S
O178 C174 1.260 . S
C179 O170 1.240 . S
C179 O171 1.252 . S
O180 In169 2.294 . S
O180 C173 1.240 . S
O181 In169 2.326 . S
O181 C173 1.252 . S
In182 O183 2.294 . S
In182 O184 2.326 . S
In182 O188 2.266 . S
In182 O189 2.326 . S
In182 O190 2.266 . S
In182 O191 2.326 . S
In182 O193 2.294 . S
In182 O194 2.326 . S
O183 In182 2.294 . S
O183 C192 1.240 . S
O184 In182 2.326 . S
O184 C192 1.252 . S
C185 O188 1.252 . S
C185 O189 1.260 . S
C186 O193 1.240 . S
C186 O194 1.252 . S
C187 O190 1.252 . S
C187 O191 1.260 . S
O188 In182 2.266 . S
O188 C185 1.252 . S
O189 In182 2.326 . S
O189 C185 1.260 . S
O190 In182 2.266 . S
O190 C187 1.252 . S
O191 In182 2.326 . S
O191 C187 1.260 . S
C192 O183 1.240 . S
C192 O184 1.252 . S
O193 In182 2.294 . S
O193 C186 1.240 . S
O194 In182 2.326 . S
O194 C186 1.252 . S
In195 O196 2.294 . S
In195 O197 2.326 . S
In195 O201 2.266 . S
In195 O202 2.326 . S
In195 O203 2.266 . S
In195 O204 2.326 . S
In195 O206 2.294 . S
In195 O207 2.326 . S
O196 In195 2.294 . S
O196 C205 1.240 . S
O197 In195 2.326 . S
O197 C205 1.252 . S
C198 O201 1.252 . S
C198 O202 1.260 . S
C199 O206 1.240 . S
C199 O207 1.252 . S
C200 O203 1.252 . S
C200 O204 1.260 . S
O201 In195 2.266 . S
O201 C198 1.252 . S
O202 In195 2.326 . S
O202 C198 1.260 . S
O203 In195 2.266 . S
O203 C200 1.252 . S
O204 In195 2.326 . S
O204 C200 1.260 . S
C205 O196 1.240 . S
C205 O197 1.252 . S
O206 In195 2.294 . S
O206 C199 1.240 . S
O207 In195 2.326 . S
O207 C199 1.252 . S
In208 O209 2.294 . S
In208 O210 2.326 . S
In208 O214 2.266 1_556 S
In208 O215 2.326 . S
In208 O216 2.266 . S
In208 O217 2.326 . S
In208 O219 2.294 . S
In208 O220 2.326 . S
O209 In208 2.294 . S
O209 C218 1.240 . S
O210 In208 2.326 . S
O210 C218 1.252 . S
C211 O214 1.252 . S
C211 O215 1.260 1_554 S
C212 O219 1.240 . S
C212 O220 1.252 . S
C213 O216 1.252 . S
C213 O217 1.260 . S
O214 In208 2.266 1_554 S
O214 C211 1.252 . S
O215 In208 2.326 . S
O215 C211 1.260 1_556 S
O216 In208 2.266 . S
O216 C213 1.252 . S
O217 In208 2.326 . S
O217 C213 1.260 . S
C218 O209 1.240 . S
C218 O210 1.252 . S
O219 In208 2.294 . S
O219 C212 1.240 . S
O220 In208 2.326 . S
O220 C212 1.252 . S
In221 O222 2.294 . S
In221 O223 2.326 . S
In221 O227 2.266 . S
In221 O228 2.326 . S
In221 O229 2.266 . S
In221 O230 2.326 . S
In221 O232 2.294 . S
In221 O233 2.326 . S
O222 In221 2.294 . S
O222 C231 1.240 . S
O223 In221 2.326 . S
O223 C231 1.252 . S
C224 O227 1.252 . S
C224 O228 1.260 . S
C225 O232 1.240 . S
C225 O233 1.252 . S
C226 O229 1.252 . S
C226 O230 1.260 . S
O227 In221 2.266 . S
O227 C224 1.252 . S
O228 In221 2.326 . S
O228 C224 1.260 . S
O229 In221 2.266 . S
O229 C226 1.252 . S
O230 In221 2.326 . S
O230 C226 1.260 . S
C231 O222 1.240 . S
C231 O223 1.252 . S
O232 In221 2.294 . S
O232 C225 1.240 . S
O233 In221 2.326 . S
O233 C225 1.252 . S
In234 O235 2.294 . S
In234 O236 2.326 . S
In234 O240 2.266 . S
In234 O241 2.326 . S
In234 O242 2.266 . S
In234 O243 2.326 . S
In234 O245 2.294 . S
In234 O246 2.326 . S
O235 In234 2.294 . S
O235 C244 1.240 . S
O236 In234 2.326 . S
O236 C244 1.252 . S
C237 O240 1.252 . S
C237 O241 1.260 . S
C238 O245 1.240 . S
C238 O246 1.252 . S
C239 O242 1.252 . S
C239 O243 1.260 . S
O240 In234 2.266 . S
O240 C237 1.252 . S
O241 In234 2.326 . S
O241 C237 1.260 . S
O242 In234 2.266 . S
O242 C239 1.252 . S
O243 In234 2.326 . S
O243 C239 1.260 . S
C244 O235 1.240 . S
C244 O236 1.252 . S
O245 In234 2.294 . S
O245 C238 1.240 . S
O246 In234 2.326 . S
O246 C238 1.252 . S
In247 O248 2.294 . S
In247 O249 2.326 . S
In247 O253 2.266 . S
In247 O254 2.326 . S
In247 O255 2.266 . S
In247 O256 2.326 . S
In247 O258 2.294 . S
In247 O259 2.326 . S
O248 In247 2.294 . S
O248 C257 1.240 . S
O249 In247 2.326 . S
O249 C257 1.252 . S
C250 O253 1.252 . S
C250 O254 1.260 . S
C251 O258 1.240 . S
C251 O259 1.252 . S
C252 O255 1.252 . S
C252 O256 1.260 . S
O253 In247 2.266 . S
O253 C250 1.252 . S
O254 In247 2.326 . S
O254 C250 1.260 . S
O255 In247 2.266 . S
O255 C252 1.252 . S
O256 In247 2.326 . S
O256 C252 1.260 . S
C257 O248 1.240 . S
C257 O249 1.252 . S
O258 In247 2.294 . S
O258 C251 1.240 . S
O259 In247 2.326 . S
O259 C251 1.252 . S
In260 O261 2.294 . S
In260 O262 2.326 . S
In260 O266 2.266 . S
In260 O267 2.326 . S
In260 O268 2.266 . S
In260 O269 2.326 . S
In260 O271 2.294 . S
In260 O272 2.326 . S
O261 In260 2.294 . S
O261 C270 1.240 . S
O262 In260 2.326 . S
O262 C270 1.252 . S
C263 O266 1.252 . S
C263 O267 1.260 . S
C264 O271 1.240 . S
C264 O272 1.252 . S
C265 O268 1.252 . S
C265 O269 1.260 . S
O266 In260 2.266 . S
O266 C263 1.252 . S
O267 In260 2.326 . S
O267 C263 1.260 . S
O268 In260 2.266 . S
O268 C265 1.252 . S
O269 In260 2.326 . S
O269 C265 1.260 . S
C270 O261 1.240 . S
C270 O262 1.252 . S
O271 In260 2.294 . S
O271 C264 1.240 . S
O272 In260 2.326 . S
O272 C264 1.252 . S
In273 O274 2.294 . S
In273 O275 2.326 . S
In273 O279 2.266 . S
In273 O280 2.326 . S
In273 O281 2.266 . S
In273 O282 2.326 . S
In273 O284 2.294 . S
In273 O285 2.326 . S
O274 In273 2.294 . S
O274 C283 1.240 . S
O275 In273 2.326 . S
O275 C283 1.252 . S
C276 O279 1.252 . S
C276 O280 1.260 . S
C277 O284 1.240 . S
C277 O285 1.252 . S
C278 O281 1.252 . S
C278 O282 1.260 . S
O279 In273 2.266 . S
O279 C276 1.252 . S
O280 In273 2.326 . S
O280 C276 1.260 . S
O281 In273 2.266 . S
O281 C278 1.252 . S
O282 In273 2.326 . S
O282 C278 1.260 . S
C283 O274 1.240 . S
C283 O275 1.252 . S
O284 In273 2.294 . S
O284 C277 1.240 . S
O285 In273 2.326 . S
O285 C277 1.252 . S
In286 O287 2.294 . S
In286 O288 2.326 . S
In286 O292 2.266 1_554 S
In286 O293 2.326 . S
In286 O294 2.266 . S
In286 O295 2.326 . S
In286 O297 2.294 . S
In286 O298 2.326 . S
O287 In286 2.294 . S
O287 C296 1.240 . S
O288 In286 2.326 . S
O288 C296 1.252 . S
C289 O292 1.252 . S
C289 O293 1.260 1_556 S
C290 O297 1.240 . S
C290 O298 1.252 . S
C291 O294 1.252 . S
C291 O295 1.260 . S
O292 In286 2.266 1_556 S
O292 C289 1.252 . S
O293 In286 2.326 . S
O293 C289 1.260 1_554 S
O294 In286 2.266 . S
O294 C291 1.252 . S
O295 In286 2.326 . S
O295 C291 1.260 . S
C296 O287 1.240 . S
C296 O288 1.252 . S
O297 In286 2.294 . S
O297 C290 1.240 . S
O298 In286 2.326 . S
O298 C290 1.252 . S
In299 O300 2.294 . S
In299 O301 2.326 . S
In299 O305 2.266 . S
In299 O306 2.326 . S
In299 O307 2.266 . S
In299 O308 2.326 . S
In299 O310 2.294 . S
In299 O311 2.326 . S
O300 In299 2.294 . S
O300 C309 1.240 . S
O301 In299 2.326 . S
O301 C309 1.252 . S
C302 O305 1.252 . S
C302 O306 1.260 . S
C303 O310 1.240 . S
C303 O311 1.252 . S
C304 O307 1.252 . S
C304 O308 1.260 . S
O305 In299 2.266 . S
O305 C302 1.252 . S
O306 In299 2.326 . S
O306 C302 1.260 . S
O307 In299 2.266 . S
O307 C304 1.252 . S
O308 In299 2.326 . S
O308 C304 1.260 . S
C309 O300 1.240 . S
C309 O301 1.252 . S
O310 In299 2.294 . S
O310 C303 1.240 . S
O311 In299 2.326 . S
O311 C303 1.252 . S
In312 O313 2.294 . S
In312 O314 2.326 . S
In312 O318 2.266 . S
In312 O319 2.326 . S
In312 O320 2.266 1_554 S
In312 O321 2.326 . S
In312 O323 2.294 . S
In312 O324 2.326 . S
O313 In312 2.294 . S
O313 C322 1.240 . S
O314 In312 2.326 . S
O314 C322 1.252 . S
C315 O318 1.252 . S
C315 O319 1.260 . S
C316 O323 1.240 . S
C316 O324 1.252 . S
C317 O320 1.252 . S
C317 O321 1.260 1_556 S
O318 In312 2.266 . S
O318 C315 1.252 . S
O319 In312 2.326 . S
O319 C315 1.260 . S
O320 In312 2.266 1_556 S
O320 C317 1.252 . S
O321 In312 2.326 . S
O321 C317 1.260 1_554 S
C322 O313 1.240 . S
C322 O314 1.252 . S
O323 In312 2.294 . S
O323 C316 1.240 . S
O324 In312 2.326 . S
O324 C316 1.252 . S
In325 O326 2.294 . S
In325 O327 2.326 . S
In325 O331 2.266 . S
In325 O332 2.326 . S
In325 O333 2.266 . S
In325 O334 2.326 . S
In325 O336 2.294 . S
In325 O337 2.326 . S
O326 In325 2.294 . S
O326 C335 1.240 . S
O327 In325 2.326 . S
O327 C335 1.252 . S
C328 O331 1.252 . S
C328 O332 1.260 . S
C329 O336 1.240 . S
C329 O337 1.252 . S
C330 O333 1.252 . S
C330 O334 1.260 . S
O331 In325 2.266 . S
O331 C328 1.252 . S
O332 In325 2.326 . S
O332 C328 1.260 . S
O333 In325 2.266 . S
O333 C330 1.252 . S
O334 In325 2.326 . S
O334 C330 1.260 . S
C335 O326 1.240 . S
C335 O327 1.252 . S
O336 In325 2.294 . S
O336 C329 1.240 . S
O337 In325 2.326 . S
O337 C329 1.252 . S
In338 O339 2.294 . S
In338 O340 2.326 . S
In338 O344 2.266 . S
In338 O345 2.326 . S
In338 O346 2.266 . S
In338 O347 2.326 . S
In338 O349 2.294 . S
In338 O350 2.326 . S
O339 In338 2.294 . S
O339 C348 1.240 . S
O340 In338 2.326 . S
O340 C348 1.252 . S
C341 O344 1.252 . S
C341 O345 1.260 . S
C342 O349 1.240 . S
C342 O350 1.252 . S
C343 O346 1.252 . S
C343 O347 1.260 . S
O344 In338 2.266 . S
O344 C341 1.252 . S
O345 In338 2.326 . S
O345 C341 1.260 . S
O346 In338 2.266 . S
O346 C343 1.252 . S
O347 In338 2.326 . S
O347 C343 1.260 . S
C348 O339 1.240 . S
C348 O340 1.252 . S
O349 In338 2.294 . S
O349 C342 1.240 . S
O350 In338 2.326 . S
O350 C342 1.252 . S
In351 O352 2.294 . S
In351 O353 2.326 . S
In351 O357 2.266 . S
In351 O358 2.326 . S
In351 O359 2.266 . S
In351 O360 2.326 . S
In351 O362 2.294 . S
In351 O363 2.326 . S
O352 In351 2.294 . S
O352 C361 1.240 . S
O353 In351 2.326 . S
O353 C361 1.252 . S
C354 O357 1.252 . S
C354 O358 1.260 . S
C355 O362 1.240 . S
C355 O363 1.252 . S
C356 O359 1.252 . S
C356 O360 1.260 . S
O357 In351 2.266 . S
O357 C354 1.252 . S
O358 In351 2.326 . S
O358 C354 1.260 . S
O359 In351 2.266 . S
O359 C356 1.252 . S
O360 In351 2.326 . S
O360 C356 1.260 . S
C361 O352 1.240 . S
C361 O353 1.252 . S
O362 In351 2.294 . S
O362 C355 1.240 . S
O363 In351 2.326 . S
O363 C355 1.252 . S
In364 O365 2.294 . S
In364 O366 2.326 . S
In364 O370 2.266 . S
In364 O371 2.326 . S
In364 O372 2.266 . S
In364 O373 2.326 . S
In364 O375 2.294 . S
In364 O376 2.326 . S
O365 In364 2.294 . S
O365 C374 1.240 . S
O366 In364 2.326 . S
O366 C374 1.252 . S
C367 O370 1.252 . S
C367 O371 1.260 . S
C368 O375 1.240 . S
C368 O376 1.252 . S
C369 O372 1.252 . S
C369 O373 1.260 . S
O370 In364 2.266 . S
O370 C367 1.252 . S
O371 In364 2.326 . S
O371 C367 1.260 . S
O372 In364 2.266 . S
O372 C369 1.252 . S
O373 In364 2.326 . S
O373 C369 1.260 . S
C374 O365 1.240 . S
C374 O366 1.252 . S
O375 In364 2.294 . S
O375 C368 1.240 . S
O376 In364 2.326 . S
O376 C368 1.252 . S
In377 O378 2.294 . S
In377 O379 2.326 . S
In377 O383 2.266 . S
In377 O384 2.326 . S
In377 O385 2.266 . S
In377 O386 2.326 . S
In377 O388 2.294 . S
In377 O389 2.326 . S
O378 In377 2.294 . S
O378 C387 1.240 . S
O379 In377 2.326 . S
O379 C387 1.252 . S
C380 O383 1.252 . S
C380 O384 1.260 . S
C381 O388 1.240 . S
C381 O389 1.252 . S
C382 O385 1.252 . S
C382 O386 1.260 . S
O383 In377 2.266 . S
O383 C380 1.252 . S
O384 In377 2.326 . S
O384 C380 1.260 . S
O385 In377 2.266 . S
O385 C382 1.252 . S
O386 In377 2.326 . S
O386 C382 1.260 . S
C387 O378 1.240 . S
C387 O379 1.252 . S
O388 In377 2.294 . S
O388 C381 1.240 . S
O389 In377 2.326 . S
O389 C381 1.252 . S
In390 O391 2.294 . S
In390 O392 2.326 . S
In390 O396 2.266 . S
In390 O397 2.326 . S
In390 O398 2.266 1_556 S
In390 O399 2.326 . S
In390 O401 2.294 . S
In390 O402 2.326 . S
O391 In390 2.294 . S
O391 C400 1.240 . S
O392 In390 2.326 . S
O392 C400 1.252 . S
C393 O396 1.252 . S
C393 O397 1.260 . S
C394 O401 1.240 . S
C394 O402 1.252 . S
C395 O398 1.252 . S
C395 O399 1.260 1_554 S
O396 In390 2.266 . S
O396 C393 1.252 . S
O397 In390 2.326 . S
O397 C393 1.260 . S
O398 In390 2.266 1_554 S
O398 C395 1.252 . S
O399 In390 2.326 . S
O399 C395 1.260 1_556 S
C400 O391 1.240 . S
C400 O392 1.252 . S
O401 In390 2.294 . S
O401 C394 1.240 . S
O402 In390 2.326 . S
O402 C394 1.252 . S
In403 O404 2.294 . S
In403 O405 2.326 . S
In403 O409 2.266 . S
In403 O410 2.326 . S
In403 O411 2.266 . S
In403 O412 2.326 . S
In403 O414 2.294 . S
In403 O415 2.326 . S
O404 In403 2.294 . S
O404 C413 1.240 . S
O405 In403 2.326 . S
O405 C413 1.252 . S
C406 O409 1.252 . S
C406 O410 1.260 . S
C407 O414 1.240 . S
C407 O415 1.252 . S
C408 O411 1.252 . S
C408 O412 1.260 . S
O409 In403 2.266 . S
O409 C406 1.252 . S
O410 In403 2.326 . S
O410 C406 1.260 . S
O411 In403 2.266 . S
O411 C408 1.252 . S
O412 In403 2.326 . S
O412 C408 1.260 . S
C413 O404 1.240 . S
C413 O405 1.252 . S
O414 In403 2.294 . S
O414 C407 1.240 . S
O415 In403 2.326 . S
O415 C407 1.252 . S
C416 C417 1.387 . S
C416 H420 0.950 . S
C416 C425 1.390 1_545 S
C417 C416 1.387 . S
C417 C419 1.387 . S
H418 C425 0.950 . S
C419 C417 1.387 . S
C419 C421 1.390 1_545 S
C419 H423 0.950 . S
H420 C416 0.950 . S
C421 C419 1.390 1_565 S
C421 C422 1.387 . S
C421 H424 0.950 . S
C422 C421 1.387 . S
C422 C425 1.387 . S
H423 C419 0.950 . S
H424 C421 0.950 . S
C425 C416 1.390 1_565 S
C425 H418 0.950 . S
C425 C422 1.387 . S
C426 C427 1.387 . S
C426 H430 0.950 . S
C426 C435 1.390 . S
C427 C426 1.387 . S
C427 C429 1.387 . S
H428 C435 0.950 . S
C429 C427 1.387 . S
C429 C431 1.390 . S
C429 H433 0.950 . S
H430 C426 0.950 . S
C431 C429 1.390 . S
C431 C432 1.387 . S
C431 H434 0.950 . S
C432 C431 1.387 . S
C432 C435 1.387 . S
H433 C429 0.950 . S
H434 C431 0.950 . S
C435 C426 1.390 . S
C435 H428 0.950 . S
C435 C432 1.387 . S
C436 C437 1.387 . S
C436 H440 0.950 . S
C436 C445 1.390 1_545 S
C437 C436 1.387 . S
C437 C439 1.387 . S
H438 C445 0.950 . S
C439 C437 1.387 . S
C439 C441 1.390 1_545 S
C439 H443 0.950 . S
H440 C436 0.950 . S
C441 C439 1.390 1_565 S
C441 C442 1.387 . S
C441 H444 0.950 . S
C442 C441 1.387 . S
C442 C445 1.387 . S
H443 C439 0.950 . S
H444 C441 0.950 . S
C445 C436 1.390 1_565 S
C445 H438 0.950 . S
C445 C442 1.387 . S
C446 C447 1.387 . S
C446 H450 0.950 . S
C446 C455 1.390 1_556 S
C447 C446 1.387 . S
C447 C449 1.387 . S
H448 C455 0.950 . S
C449 C447 1.387 . S
C449 C451 1.390 1_556 S
C449 H453 0.950 . S
H450 C446 0.950 . S
C451 C449 1.390 1_554 S
C451 C452 1.387 . S
C451 H454 0.950 . S
C452 C451 1.387 . S
C452 C455 1.387 . S
H453 C449 0.950 . S
H454 C451 0.950 . S
C455 C446 1.390 1_554 S
C455 H448 0.950 . S
C455 C452 1.387 . S
C456 C457 1.387 . S
C456 H460 0.950 . S
C456 C465 1.390 1_565 S
C457 C456 1.387 . S
C457 C459 1.387 . S
H458 C465 0.950 . S
C459 C457 1.387 . S
C459 C461 1.390 1_565 S
C459 H463 0.950 . S
H460 C456 0.950 . S
C461 C459 1.390 1_545 S
C461 C462 1.387 . S
C461 H464 0.950 . S
C462 C461 1.387 . S
C462 C465 1.387 . S
H463 C459 0.950 . S
H464 C461 0.950 . S
C465 C456 1.390 1_545 S
C465 H458 0.950 . S
C465 C462 1.387 . S
C466 C467 1.387 . S
C466 H470 0.950 . S
C466 C475 1.390 . S
C467 C466 1.387 . S
C467 C469 1.387 . S
H468 C475 0.950 . S
C469 C467 1.387 . S
C469 C471 1.390 . S
C469 H473 0.950 . S
H470 C466 0.950 . S
C471 C469 1.390 . S
C471 C472 1.387 . S
C471 H474 0.950 . S
C472 C471 1.387 . S
C472 C475 1.387 . S
H473 C469 0.950 . S
H474 C471 0.950 . S
C475 C466 1.390 . S
C475 H468 0.950 . S
C475 C472 1.387 . S
C476 C477 1.387 . S
C476 H480 0.950 . S
C476 C485 1.390 1_565 S
C477 C476 1.387 . S
C477 C479 1.387 . S
H478 C485 0.950 . S
C479 C477 1.387 . S
C479 C481 1.390 1_565 S
C479 H483 0.950 . S
H480 C476 0.950 . S
C481 C479 1.390 1_545 S
C481 C482 1.387 . S
C481 H484 0.950 . S
C482 C481 1.387 . S
C482 C485 1.387 . S
H483 C479 0.950 . S
H484 C481 0.950 . S
C485 C476 1.390 1_545 S
C485 H478 0.950 . S
C485 C482 1.387 . S
C486 C487 1.387 . S
C486 H490 0.950 . S
C486 C495 1.390 1_556 S
C487 C486 1.387 . S
C487 C489 1.387 . S
H488 C495 0.950 . S
C489 C487 1.387 . S
C489 C491 1.390 1_556 S
C489 H493 0.950 . S
H490 C486 0.950 . S
C491 C489 1.390 1_554 S
C491 C492 1.387 . S
C491 H494 0.950 . S
C492 C491 1.387 . S
C492 C495 1.387 . S
H493 C489 0.950 . S
H494 C491 0.950 . S
C495 C486 1.390 1_554 S
C495 H488 0.950 . S
C495 C492 1.387 . S
C496 C497 1.387 . S
C496 H500 0.950 . S
C496 C505 1.390 . S
C497 C496 1.387 . S
C497 C499 1.387 . S
H498 C505 0.950 . S
C499 C497 1.387 . S
C499 C501 1.390 . S
C499 H503 0.950 . S
H500 C496 0.950 . S
C501 C499 1.390 . S
C501 C502 1.387 . S
C501 H504 0.950 . S
C502 C501 1.387 . S
C502 C505 1.387 . S
H503 C499 0.950 . S
H504 C501 0.950 . S
C505 C496 1.390 . S
C505 H498 0.950 . S
C505 C502 1.387 . S
C506 C507 1.387 . S
C506 H510 0.950 . S
C506 C515 1.390 1_556 S
C507 C506 1.387 . S
C507 C509 1.387 . S
H508 C515 0.950 . S
C509 C507 1.387 . S
C509 C511 1.390 1_556 S
C509 H513 0.950 . S
H510 C506 0.950 . S
C511 C509 1.390 1_554 S
C511 C512 1.387 . S
C511 H514 0.950 . S
C512 C511 1.387 . S
C512 C515 1.387 . S
H513 C509 0.950 . S
H514 C511 0.950 . S
C515 C506 1.390 1_554 S
C515 H508 0.950 . S
C515 C512 1.387 . S
C516 C517 1.387 . S
C516 H520 0.950 . S
C516 C525 1.390 . S
C517 C516 1.387 . S
C517 C519 1.387 . S
H518 C525 0.950 . S
C519 C517 1.387 . S
C519 C521 1.390 . S
C519 H523 0.950 . S
H520 C516 0.950 . S
C521 C519 1.390 . S
C521 C522 1.387 . S
C521 H524 0.950 . S
C522 C521 1.387 . S
C522 C525 1.387 . S
H523 C519 0.950 . S
H524 C521 0.950 . S
C525 C516 1.390 . S
C525 H518 0.950 . S
C525 C522 1.387 . S
C526 C527 1.387 . S
C526 H530 0.950 . S
C526 C535 1.390 . S
C527 C526 1.387 . S
C527 C529 1.387 . S
H528 C535 0.950 . S
C529 C527 1.387 . S
C529 C531 1.390 . S
C529 H533 0.950 . S
H530 C526 0.950 . S
C531 C529 1.390 . S
C531 C532 1.387 . S
C531 H534 0.950 . S
C532 C531 1.387 . S
C532 C535 1.387 . S
H533 C529 0.950 . S
H534 C531 0.950 . S
C535 C526 1.390 . S
C535 H528 0.950 . S
C535 C532 1.387 . S
C536 C537 1.387 . S
C536 H540 0.950 . S
C536 C545 1.390 . S
C537 C536 1.387 . S
C537 C539 1.387 . S
H538 C545 0.950 . S
C539 C537 1.387 . S
C539 C541 1.390 . S
C539 H543 0.950 . S
H540 C536 0.950 . S
C541 C539 1.390 . S
C541 C542 1.387 . S
C541 H544 0.950 . S
C542 C541 1.387 . S
C542 C545 1.387 . S
H543 C539 0.950 . S
H544 C541 0.950 . S
C545 C536 1.390 . S
C545 H538 0.950 . S
C545 C542 1.387 . S
C546 C547 1.387 . S
C546 H550 0.950 . S
C546 C555 1.390 1_554 S
C547 C546 1.387 . S
C547 C549 1.387 . S
H548 C555 0.950 . S
C549 C547 1.387 . S
C549 C551 1.390 1_554 S
C549 H553 0.950 . S
H550 C546 0.950 . S
C551 C549 1.390 1_556 S
C551 C552 1.387 . S
C551 H554 0.950 . S
C552 C551 1.387 . S
C552 C555 1.387 . S
H553 C549 0.950 . S
H554 C551 0.950 . S
C555 C546 1.390 1_556 S
C555 H548 0.950 . S
C555 C552 1.387 . S
C556 C557 1.387 . S
C556 H560 0.950 . S
C556 C565 1.390 . S
C557 C556 1.387 . S
C557 C559 1.387 . S
H558 C565 0.950 . S
C559 C557 1.387 . S
C559 C561 1.390 . S
C559 H563 0.950 . S
H560 C556 0.950 . S
C561 C559 1.390 . S
C561 C562 1.387 . S
C561 H564 0.950 . S
C562 C561 1.387 . S
C562 C565 1.387 . S
H563 C559 0.950 . S
H564 C561 0.950 . S
C565 C556 1.390 . S
C565 H558 0.950 . S
C565 C562 1.387 . S
C566 C567 1.387 . S
C566 H570 0.950 . S
C566 C575 1.390 . S
C567 C566 1.387 . S
C567 C569 1.387 . S
H568 C575 0.950 . S
C569 C567 1.387 . S
C569 C571 1.390 . S
C569 H573 0.950 . S
H570 C566 0.950 . S
C571 C569 1.390 . S
C571 C572 1.387 . S
C571 H574 0.950 . S
C572 C571 1.387 . S
C572 C575 1.387 . S
H573 C569 0.950 . S
H574 C571 0.950 . S
C575 C566 1.390 . S
C575 H568 0.950 . S
C575 C572 1.387 . S
C576 C577 1.387 . S
C576 H580 0.950 . S
C576 C585 1.390 . S
C577 C576 1.387 . S
C577 C579 1.387 . S
H578 C585 0.950 . S
C579 C577 1.387 . S
C579 C581 1.390 . S
C579 H583 0.950 . S
H580 C576 0.950 . S
C581 C579 1.390 . S
C581 C582 1.387 . S
C581 H584 0.950 . S
C582 C581 1.387 . S
C582 C585 1.387 . S
H583 C579 0.950 . S
H584 C581 0.950 . S
C585 C576 1.390 . S
C585 H578 0.950 . S
C585 C582 1.387 . S
C586 C587 1.387 1_455 S
C586 H590 0.950 1_455 S
C586 C595 1.390 . S
C587 C586 1.387 1_655 S
C587 C589 1.387 1_655 S
H588 C595 0.950 . S
C589 C587 1.387 1_455 S
C589 C591 1.390 . S
C589 H593 0.950 1_455 S
H590 C586 0.950 1_655 S
C591 C589 1.390 . S
C591 C592 1.387 . S
C591 H594 0.950 . S
C592 C591 1.387 . S
C592 C595 1.387 . S
H593 C589 0.950 1_655 S
H594 C591 0.950 . S
C595 C586 1.390 . S
C595 H588 0.950 . S
C595 C592 1.387 . S
C596 C597 1.387 . S
C596 H600 0.950 . S
C596 C605 1.390 . S
C597 C596 1.387 . S
C597 C599 1.387 . S
H598 C605 0.950 . S
C599 C597 1.387 . S
C599 C601 1.390 . S
C599 H603 0.950 . S
H600 C596 0.950 . S
C601 C599 1.390 . S
C601 C602 1.387 . S
C601 H604 0.950 . S
C602 C601 1.387 . S
C602 C605 1.387 . S
H603 C599 0.950 . S
H604 C601 0.950 . S
C605 C596 1.390 . S
C605 H598 0.950 . S
C605 C602 1.387 . S
C606 C607 1.387 . S
C606 H610 0.950 . S
C606 C615 1.390 . S
C607 C606 1.387 . S
C607 C609 1.387 . S
H608 C615 0.950 . S
C609 C607 1.387 . S
C609 C611 1.390 . S
C609 H613 0.950 . S
H610 C606 0.950 . S
C611 C609 1.390 . S
C611 C612 1.387 . S
C611 H614 0.950 . S
C612 C611 1.387 . S
C612 C615 1.387 . S
H613 C609 0.950 . S
H614 C611 0.950 . S
C615 C606 1.390 . S
C615 H608 0.950 . S
C615 C612 1.387 . S
C616 C617 1.387 . S
C616 H620 0.950 . S
C616 C625 1.390 . S
C617 C616 1.387 . S
C617 C619 1.387 . S
H618 C625 0.950 . S
C619 C617 1.387 . S
C619 C621 1.390 . S
C619 H623 0.950 . S
H620 C616 0.950 . S
C621 C619 1.390 . S
C621 C622 1.387 . S
C621 H624 0.950 . S
C622 C621 1.387 . S
C622 C625 1.387 . S
H623 C619 0.950 . S
H624 C621 0.950 . S
C625 C616 1.390 . S
C625 H618 0.950 . S
C625 C622 1.387 . S
C626 C627 1.387 . S
C626 H630 0.950 . S
C626 C635 1.390 . S
C627 C626 1.387 . S
C627 C629 1.387 . S
H628 C635 0.950 . S
C629 C627 1.387 . S
C629 C631 1.390 . S
C629 H633 0.950 . S
H630 C626 0.950 . S
C631 C629 1.390 . S
C631 C632 1.387 . S
C631 H634 0.950 . S
C632 C631 1.387 . S
C632 C635 1.387 . S
H633 C629 0.950 . S
H634 C631 0.950 . S
C635 C626 1.390 . S
C635 H628 0.950 . S
C635 C632 1.387 . S
C636 C637 1.387 . S
C636 H640 0.950 . S
C636 C645 1.390 . S
C637 C636 1.387 . S
C637 C639 1.387 . S
H638 C645 0.950 . S
C639 C637 1.387 . S
C639 C641 1.390 . S
C639 H643 0.950 . S
H640 C636 0.950 . S
C641 C639 1.390 . S
C641 C642 1.387 . S
C641 H644 0.950 . S
C642 C641 1.387 . S
C642 C645 1.387 . S
H643 C639 0.950 . S
H644 C641 0.950 . S
C645 C636 1.390 . S
C645 H638 0.950 . S
C645 C642 1.387 . S
C646 C647 1.387 . S
C646 H650 0.950 . S
C646 C655 1.390 . S
C647 C646 1.387 . S
C647 C649 1.387 . S
H648 C655 0.950 1_655 S
C649 C647 1.387 . S
C649 C651 1.390 . S
C649 H653 0.950 . S
H650 C646 0.950 . S
C651 C649 1.390 . S
C651 C652 1.387 1_455 S
C651 H654 0.950 1_455 S
C652 C651 1.387 1_655 S
C652 C655 1.387 1_655 S
H653 C649 0.950 . S
H654 C651 0.950 1_655 S
C655 C646 1.390 . S
C655 H648 0.950 1_455 S
C655 C652 1.387 1_455 S
C656 C657 1.387 . S
C656 H660 0.950 . S
C656 C665 1.390 . S
C657 C656 1.387 . S
C657 C659 1.387 . S
H658 C665 0.950 . S
C659 C657 1.387 . S
C659 C661 1.390 . S
C659 H663 0.950 . S
H660 C656 0.950 . S
C661 C659 1.390 . S
C661 C662 1.387 . S
C661 H664 0.950 . S
C662 C661 1.387 . S
C662 C665 1.387 . S
H663 C659 0.950 . S
H664 C661 0.950 . S
C665 C656 1.390 . S
C665 H658 0.950 . S
C665 C662 1.387 . S
C666 C667 1.387 . S
C666 H670 0.950 . S
C666 C675 1.390 . S
C667 C666 1.387 . S
C667 C669 1.387 . S
H668 C675 0.950 1_455 S
C669 C667 1.387 . S
C669 C671 1.390 . S
C669 H673 0.950 . S
H670 C666 0.950 . S
C671 C669 1.390 . S
C671 C672 1.387 1_655 S
C671 H674 0.950 1_655 S
C672 C671 1.387 1_455 S
C672 C675 1.387 1_455 S
H673 C669 0.950 . S
H674 C671 0.950 1_455 S
C675 C666 1.390 . S
C675 H668 0.950 1_655 S
C675 C672 1.387 1_655 S
C676 C677 1.387 . S
C676 H680 0.950 . S
C676 C685 1.390 . S
C677 C676 1.387 . S
C677 C679 1.387 . S
H678 C685 0.950 . S
C679 C677 1.387 . S
C679 C681 1.390 . S
C679 H683 0.950 . S
H680 C676 0.950 . S
C681 C679 1.390 . S
C681 C682 1.387 . S
C681 H684 0.950 . S
C682 C681 1.387 . S
C682 C685 1.387 . S
H683 C679 0.950 . S
H684 C681 0.950 . S
C685 C676 1.390 . S
C685 H678 0.950 . S
C685 C682 1.387 . S
C686 C687 1.387 . S
C686 H690 0.950 . S
C686 C695 1.390 . S
C687 C686 1.387 . S
C687 C689 1.387 . S
H688 C695 0.950 . S
C689 C687 1.387 . S
C689 C691 1.390 . S
C689 H693 0.950 . S
H690 C686 0.950 . S
C691 C689 1.390 . S
C691 C692 1.387 . S
C691 H694 0.950 . S
C692 C691 1.387 . S
C692 C695 1.387 . S
H693 C689 0.950 . S
H694 C691 0.950 . S
C695 C686 1.390 . S
C695 H688 0.950 . S
C695 C692 1.387 . S
C696 C697 1.387 . S
C696 H700 0.950 . S
C696 C705 1.390 . S
C697 C696 1.387 . S
C697 C699 1.387 . S
H698 C705 0.950 . S
C699 C697 1.387 . S
C699 C701 1.390 . S
C699 H703 0.950 . S
H700 C696 0.950 . S
C701 C699 1.390 . S
C701 C702 1.387 . S
C701 H704 0.950 . S
C702 C701 1.387 . S
C702 C705 1.387 . S
H703 C699 0.950 . S
H704 C701 0.950 . S
C705 C696 1.390 . S
C705 H698 0.950 . S
C705 C702 1.387 . S
C706 C707 1.387 . S
C706 H710 0.950 . S
C706 C715 1.390 . S
C707 C706 1.387 . S
C707 C709 1.387 . S
H708 C715 0.950 . S
C709 C707 1.387 . S
C709 C711 1.390 . S
C709 H713 0.950 . S
H710 C706 0.950 . S
C711 C709 1.390 . S
C711 C712 1.387 . S
C711 H714 0.950 . S
C712 C711 1.387 . S
C712 C715 1.387 . S
H713 C709 0.950 . S
H714 C711 0.950 . S
C715 C706 1.390 . S
C715 H708 0.950 . S
C715 C712 1.387 . S
C716 C717 1.387 . S
C716 H720 0.950 . S
C716 C725 1.390 . S
C717 C716 1.387 . S
C717 C719 1.387 . S
H718 C725 0.950 . S
C719 C717 1.387 . S
C719 C721 1.390 . S
C719 H723 0.950 . S
H720 C716 0.950 . S
C721 C719 1.390 . S
C721 C722 1.387 . S
C721 H724 0.950 . S
C722 C721 1.387 . S
C722 C725 1.387 . S
H723 C719 0.950 . S
H724 C721 0.950 . S
C725 C716 1.390 . S
C725 H718 0.950 . S
C725 C722 1.387 . S
C726 C727 1.387 . S
C726 H730 0.950 . S
C726 C735 1.390 . S
C727 C726 1.387 . S
C727 C729 1.387 . S
H728 C735 0.950 1_455 S
C729 C727 1.387 . S
C729 C731 1.390 . S
C729 H733 0.950 . S
H730 C726 0.950 . S
C731 C729 1.390 . S
C731 C732 1.387 1_655 S
C731 H734 0.950 1_655 S
C732 C731 1.387 1_455 S
C732 C735 1.387 1_455 S
H733 C729 0.950 . S
H734 C731 0.950 1_455 S
C735 C726 1.390 . S
C735 H728 0.950 1_655 S
C735 C732 1.387 1_655 S
C736 C737 1.387 . S
C736 H740 0.950 . S
C736 C745 1.390 . S
C737 C736 1.387 . S
C737 C739 1.387 . S
H738 C745 0.950 . S
C739 C737 1.387 . S
C739 C741 1.390 . S
C739 H743 0.950 . S
H740 C736 0.950 . S
C741 C739 1.390 . S
C741 C742 1.387 . S
C741 H744 0.950 . S
C742 C741 1.387 . S
C742 C745 1.387 . S
H743 C739 0.950 . S
H744 C741 0.950 . S
C745 C736 1.390 . S
C745 H738 0.950 . S
C745 C742 1.387 . S
C746 C747 1.387 . S
C746 H750 0.950 . S
C746 C755 1.390 . S
C747 C746 1.387 . S
C747 C749 1.387 . S
H748 C755 0.950 . S
C749 C747 1.387 . S
C749 C751 1.390 . S
C749 H753 0.950 . S
H750 C746 0.950 . S
C751 C749 1.390 . S
C751 C752 1.387 . S
C751 H754 0.950 . S
C752 C751 1.387 . S
C752 C755 1.387 . S
H753 C749 0.950 . S
H754 C751 0.950 . S
C755 C746 1.390 . S
C755 H748 0.950 . S
C755 C752 1.387 . S
C756 C757 1.387 . S
C756 H760 0.950 . S
C756 C765 1.390 . S
C757 C756 1.387 . S
C757 C759 1.387 . S
H758 C765 0.950 . S
C759 C757 1.387 . S
C759 C761 1.390 . S
C759 H763 0.950 . S
H760 C756 0.950 . S
C761 C759 1.390 . S
C761 C762 1.387 . S
C761 H764 0.950 . S
C762 C761 1.387 . S
C762 C765 1.387 . S
H763 C759 0.950 . S
H764 C761 0.950 . S
C765 C756 1.390 . S
C765 H758 0.950 . S
C765 C762 1.387 . S
C766 C767 1.387 . S
C766 H770 0.950 . S
C766 C775 1.390 . S
C767 C766 1.387 . S
C767 C769 1.387 . S
H768 C775 0.950 1_455 S
C769 C767 1.387 . S
C769 C771 1.390 . S
C769 H773 0.950 . S
H770 C766 0.950 . S
C771 C769 1.390 . S
C771 C772 1.387 1_655 S
C771 H774 0.950 1_655 S
C772 C771 1.387 1_455 S
C772 C775 1.387 1_455 S
H773 C769 0.950 . S
H774 C771 0.950 1_455 S
C775 C766 1.390 . S
C775 H768 0.950 1_655 S
C775 C772 1.387 1_655 S
C776 C777 1.387 . S
C776 H780 0.950 . S
C776 C785 1.390 . S
C777 C776 1.387 . S
C777 C779 1.387 . S
H778 C785 0.950 . S
C779 C777 1.387 . S
C779 C781 1.390 . S
C779 H783 0.950 . S
H780 C776 0.950 . S
C781 C779 1.390 . S
C781 C782 1.387 . S
C781 H784 0.950 . S
C782 C781 1.387 . S
C782 C785 1.387 . S
H783 C779 0.950 . S
H784 C781 0.950 . S
C785 C776 1.390 . S
C785 H778 0.950 . S
C785 C782 1.387 . S
C786 C787 1.387 1_655 S
C786 H790 0.950 1_655 S
C786 C795 1.390 . S
C787 C786 1.387 1_455 S
C787 C789 1.387 1_455 S
H788 C795 0.950 . S
C789 C787 1.387 1_655 S
C789 C791 1.390 . S
C789 H793 0.950 1_655 S
H790 C786 0.950 1_455 S
C791 C789 1.390 . S
C791 C792 1.387 . S
C791 H794 0.950 . S
C792 C791 1.387 . S
C792 C795 1.387 . S
H793 C789 0.950 1_455 S
H794 C791 0.950 . S
C795 C786 1.390 . S
C795 H788 0.950 . S
C795 C792 1.387 . S
C796 C797 1.387 . S
C796 H800 0.950 . S
C796 C805 1.390 . S
C797 C796 1.387 . S
C797 C799 1.387 . S
H798 C805 0.950 . S
C799 C797 1.387 . S
C799 C801 1.390 . S
C799 H803 0.950 . S
H800 C796 0.950 . S
C801 C799 1.390 . S
C801 C802 1.387 . S
C801 H804 0.950 . S
C802 C801 1.387 . S
C802 C805 1.387 . S
H803 C799 0.950 . S
H804 C801 0.950 . S
C805 C796 1.390 . S
C805 H798 0.950 . S
C805 C802 1.387 . S
C806 C807 1.387 . S
C806 H810 0.950 . S
C806 C815 1.390 . S
C807 C806 1.387 . S
C807 C809 1.387 . S
H808 C815 0.950 . S
C809 C807 1.387 . S
C809 C811 1.390 . S
C809 H813 0.950 . S
H810 C806 0.950 . S
C811 C809 1.390 . S
C811 C812 1.387 . S
C811 H814 0.950 . S
C812 C811 1.387 . S
C812 C815 1.387 . S
H813 C809 0.950 . S
H814 C811 0.950 . S
C815 C806 1.390 . S
C815 H808 0.950 . S
C815 C812 1.387 . S
C816 C817 1.387 . S
C816 H820 0.950 . S
C816 C825 1.390 . S
C817 C816 1.387 . S
C817 C819 1.387 . S
H818 C825 0.950 . S
C819 C817 1.387 . S
C819 C821 1.390 . S
C819 H823 0.950 . S
H820 C816 0.950 . S
C821 C819 1.390 . S
C821 C822 1.387 . S
C821 H824 0.950 . S
C822 C821 1.387 . S
C822 C825 1.387 . S
H823 C819 0.950 . S
H824 C821 0.950 . S
C825 C816 1.390 . S
C825 H818 0.950 . S
C825 C822 1.387 . S
C826 C827 1.387 . S
C826 H830 0.950 . S
C826 C835 1.390 . S
C827 C826 1.387 . S
C827 C829 1.387 . S
H828 C835 0.950 . S
C829 C827 1.387 . S
C829 C831 1.390 . S
C829 H833 0.950 . S
H830 C826 0.950 . S
C831 C829 1.390 . S
C831 C832 1.387 . S
C831 H834 0.950 . S
C832 C831 1.387 . S
C832 C835 1.387 . S
H833 C829 0.950 . S
H834 C831 0.950 . S
C835 C826 1.390 . S
C835 H828 0.950 . S
C835 C832 1.387 . S
C836 C837 1.387 . S
C836 H840 0.950 . S
C836 C845 1.390 . S
C837 C836 1.387 . S
C837 C839 1.387 . S
H838 C845 0.950 . S
C839 C837 1.387 . S
C839 C841 1.390 . S
C839 H843 0.950 . S
H840 C836 0.950 . S
C841 C839 1.390 . S
C841 C842 1.387 . S
C841 H844 0.950 . S
C842 C841 1.387 . S
C842 C845 1.387 . S
H843 C839 0.950 . S
H844 C841 0.950 . S
C845 C836 1.390 . S
C845 H838 0.950 . S
C845 C842 1.387 . S
C846 C847 1.387 . S
C846 H850 0.950 . S
C846 C855 1.390 . S
C847 C846 1.387 . S
C847 C849 1.387 . S
H848 C855 0.950 1_655 S
C849 C847 1.387 . S
C849 C851 1.390 . S
C849 H853 0.950 . S
H850 C846 0.950 . S
C851 C849 1.390 . S
C851 C852 1.387 1_455 S
C851 H854 0.950 1_455 S
C852 C851 1.387 1_655 S
C852 C855 1.387 1_655 S
H853 C849 0.950 . S
H854 C851 0.950 1_655 S
C855 C846 1.390 . S
C855 H848 0.950 1_455 S
C855 C852 1.387 1_455 S
C856 C857 1.387 . S
C856 H860 0.950 . S
C856 C865 1.390 . S
C857 C856 1.387 . S
C857 C859 1.387 . S
H858 C865 0.950 . S
C859 C857 1.387 . S
C859 C861 1.390 . S
C859 H863 0.950 . S
H860 C856 0.950 . S
C861 C859 1.390 . S
C861 C862 1.387 . S
C861 H864 0.950 . S
C862 C861 1.387 . S
C862 C865 1.387 . S
H863 C859 0.950 . S
H864 C861 0.950 . S
C865 C856 1.390 . S
C865 H858 0.950 . S
C865 C862 1.387 . S
C866 C867 1.387 1_455 S
C866 H870 0.950 1_455 S
C866 C875 1.390 . S
C867 C866 1.387 1_655 S
C867 C869 1.387 1_655 S
H868 C875 0.950 . S
C869 C867 1.387 1_455 S
C869 C871 1.390 . S
C869 H873 0.950 1_455 S
H870 C866 0.950 1_655 S
C871 C869 1.390 . S
C871 C872 1.387 . S
C871 H874 0.950 . S
C872 C871 1.387 . S
C872 C875 1.387 . S
H873 C869 0.950 1_655 S
H874 C871 0.950 . S
C875 C866 1.390 . S
C875 H868 0.950 . S
C875 C872 1.387 . S
C876 C877 1.387 . S
C876 H880 0.950 . S
C876 C885 1.390 . S
C877 C876 1.387 . S
C877 C879 1.387 . S
H878 C885 0.950 . S
C879 C877 1.387 . S
C879 C881 1.390 . S
C879 H883 0.950 . S
H880 C876 0.950 . S
C881 C879 1.390 . S
C881 C882 1.387 . S
C881 H884 0.950 . S
C882 C881 1.387 . S
C882 C885 1.387 . S
H883 C879 0.950 . S
H884 C881 0.950 . S
C885 C876 1.390 . S
C885 H878 0.950 . S
C885 C882 1.387 . S
C886 C887 1.387 . S
C886 H890 0.950 . S
C886 C895 1.390 . S
C887 C886 1.387 . S
C887 C889 1.387 . S
H888 C895 0.950 . S
C889 C887 1.387 . S
C889 C891 1.390 . S
C889 H893 0.950 . S
H890 C886 0.950 . S
C891 C889 1.390 . S
C891 C892 1.387 . S
C891 H894 0.950 . S
C892 C891 1.387 . S
C892 C895 1.387 . S
H893 C889 0.950 . S
H894 C891 0.950 . S
C895 C886 1.390 . S
C895 H888 0.950 . S
C895 C892 1.387 . S
C896 C897 1.387 . S
C896 H900 0.950 . S
C896 C905 1.390 . S
C897 C896 1.387 . S
C897 C899 1.387 . S
H898 C905 0.950 . S
C899 C897 1.387 . S
C899 C901 1.390 . S
C899 H903 0.950 . S
H900 C896 0.950 . S
C901 C899 1.390 . S
C901 C902 1.387 . S
C901 H904 0.950 . S
C902 C901 1.387 . S
C902 C905 1.387 . S
H903 C899 0.950 . S
H904 C901 0.950 . S
C905 C896 1.390 . S
C905 H898 0.950 . S
C905 C902 1.387 . S
C906 C907 1.387 . S
C906 H910 0.950 . S
C906 C915 1.390 . S
C907 C906 1.387 . S
C907 C909 1.387 . S
H908 C915 0.950 . S
C909 C907 1.387 . S
C909 C911 1.390 . S
C909 H913 0.950 . S
H910 C906 0.950 . S
C911 C909 1.390 . S
C911 C912 1.387 . S
C911 H914 0.950 . S
C912 C911 1.387 . S
C912 C915 1.387 . S
H913 C909 0.950 . S
H914 C911 0.950 . S
C915 C906 1.390 . S
C915 H908 0.950 . S
C915 C912 1.387 . S
C916 C917 1.387 . S
C916 H920 0.950 . S
C916 C925 1.390 . S
C917 C916 1.387 . S
C917 C919 1.387 . S
H918 C925 0.950 . S
C919 C917 1.387 . S
C919 C921 1.390 . S
C919 H923 0.950 . S
H920 C916 0.950 . S
C921 C919 1.390 . S
C921 C922 1.387 . S
C921 H924 0.950 . S
C922 C921 1.387 . S
C922 C925 1.387 . S
H923 C919 0.950 . S
H924 C921 0.950 . S
C925 C916 1.390 . S
C925 H918 0.950 . S
C925 C922 1.387 . S
C926 C927 1.387 . S
C926 H930 0.950 . S
C926 C935 1.390 . S
C927 C926 1.387 . S
C927 C929 1.387 . S
H928 C935 0.950 . S
C929 C927 1.387 . S
C929 C931 1.390 . S
C929 H933 0.950 . S
H930 C926 0.950 . S
C931 C929 1.390 . S
C931 C932 1.387 . S
C931 H934 0.950 . S
C932 C931 1.387 . S
C932 C935 1.387 . S
H933 C929 0.950 . S
H934 C931 0.950 . S
C935 C926 1.390 . S
C935 H928 0.950 . S
C935 C932 1.387 . S
C936 C937 1.387 . S
C936 H940 0.950 . S
C936 C945 1.390 . S
C937 C936 1.387 . S
C937 C939 1.387 . S
H938 C945 0.950 . S
C939 C937 1.387 . S
C939 C941 1.390 . S
C939 H943 0.950 . S
H940 C936 0.950 . S
C941 C939 1.390 . S
C941 C942 1.387 . S
C941 H944 0.950 . S
C942 C941 1.387 . S
C942 C945 1.387 . S
H943 C939 0.950 . S
H944 C941 0.950 . S
C945 C936 1.390 . S
C945 H938 0.950 . S
C945 C942 1.387 . S
C946 C947 1.387 . S
C946 H950 0.950 . S
C946 C955 1.390 . S
C947 C946 1.387 . S
C947 C949 1.387 . S
H948 C955 0.950 . S
C949 C947 1.387 . S
C949 C951 1.390 . S
C949 H953 0.950 . S
H950 C946 0.950 . S
C951 C949 1.390 . S
C951 C952 1.387 . S
C951 H954 0.950 . S
C952 C951 1.387 . S
C952 C955 1.387 . S
H953 C949 0.950 . S
H954 C951 0.950 . S
C955 C946 1.390 . S
C955 H948 0.950 . S
C955 C952 1.387 . S
C956 C957 1.387 . S
C956 H960 0.950 . S
C956 C965 1.390 . S
C957 C956 1.387 . S
C957 C959 1.387 . S
H958 C965 0.950 . S
C959 C957 1.387 . S
C959 C961 1.390 . S
C959 H963 0.950 . S
H960 C956 0.950 . S
C961 C959 1.390 . S
C961 C962 1.387 . S
C961 H964 0.950 . S
C962 C961 1.387 . S
C962 C965 1.387 . S
H963 C959 0.950 . S
H964 C961 0.950 . S
C965 C956 1.390 . S
C965 H958 0.950 . S
C965 C962 1.387 . S
C966 C967 1.387 . S
C966 H970 0.950 . S
C966 C975 1.390 . S
C967 C966 1.387 . S
C967 C969 1.387 . S
H968 C975 0.950 . S
C969 C967 1.387 . S
C969 C971 1.390 . S
C969 H973 0.950 . S
H970 C966 0.950 . S
C971 C969 1.390 . S
C971 C972 1.387 . S
C971 H974 0.950 . S
C972 C971 1.387 . S
C972 C975 1.387 . S
H973 C969 0.950 . S
H974 C971 0.950 . S
C975 C966 1.390 . S
C975 H968 0.950 . S
C975 C972 1.387 . S
C976 C977 1.387 . S
C976 H980 0.950 . S
C976 C985 1.390 . S
C977 C976 1.387 . S
C977 C979 1.387 . S
H978 C985 0.950 . S
C979 C977 1.387 . S
C979 C981 1.390 . S
C979 H983 0.950 . S
H980 C976 0.950 . S
C981 C979 1.390 . S
C981 C982 1.387 . S
C981 H984 0.950 . S
C982 C981 1.387 . S
C982 C985 1.387 . S
H983 C979 0.950 . S
H984 C981 0.950 . S
C985 C976 1.390 . S
C985 H978 0.950 . S
C985 C982 1.387 . S
C986 C987 1.387 . S
C986 H990 0.950 . S
C986 C995 1.390 . S
C987 C986 1.387 . S
C987 C989 1.387 . S
H988 C995 0.950 . S
C989 C987 1.387 . S
C989 C991 1.390 . S
C989 H993 0.950 . S
H990 C986 0.950 . S
C991 C989 1.390 . S
C991 C992 1.387 . S
C991 H994 0.950 . S
C992 C991 1.387 . S
C992 C995 1.387 . S
H993 C989 0.950 . S
H994 C991 0.950 . S
C995 C986 1.390 . S
C995 H988 0.950 . S
C995 C992 1.387 . S
C996 C997 1.387 . S
C996 H1000 0.950 . S
C996 C1005 1.390 . S
C997 C996 1.387 . S
C997 C999 1.387 . S
H998 C1005 0.950 . S
C999 C997 1.387 . S
C999 C1001 1.390 . S
C999 H1003 0.950 . S
H1000 C996 0.950 . S
C1001 C999 1.390 . S
C1001 C1002 1.387 . S
C1001 H1004 0.950 . S
C1002 C1001 1.387 . S
C1002 C1005 1.387 . S
H1003 C999 0.950 . S
H1004 C1001 0.950 . S
C1005 C996 1.390 . S
C1005 H998 0.950 . S
C1005 C1002 1.387 . S
C1006 C1007 1.387 . S
C1006 H1010 0.950 . S
C1006 C1015 1.390 . S
C1007 C1006 1.387 . S
C1007 C1009 1.387 . S
H1008 C1015 0.950 . S
C1009 C1007 1.387 . S
C1009 C1011 1.390 . S
C1009 H1013 0.950 . S
H1010 C1006 0.950 . S
C1011 C1009 1.390 . S
C1011 C1012 1.387 . S
C1011 H1014 0.950 . S
C1012 C1011 1.387 . S
C1012 C1015 1.387 . S
H1013 C1009 0.950 . S
H1014 C1011 0.950 . S
C1015 C1006 1.390 . S
C1015 H1008 0.950 . S
C1015 C1012 1.387 . S
C1016 C1017 1.387 . S
C1016 H1020 0.950 . S
C1016 C1025 1.390 . S
C1017 C1016 1.387 . S
C1017 C1019 1.387 . S
H1018 C1025 0.950 . S
C1019 C1017 1.387 . S
C1019 C1021 1.390 . S
C1019 H1023 0.950 . S
H1020 C1016 0.950 . S
C1021 C1019 1.390 . S
C1021 C1022 1.387 . S
C1021 H1024 0.950 . S
C1022 C1021 1.387 . S
C1022 C1025 1.387 . S
H1023 C1019 0.950 . S
H1024 C1021 0.950 . S
C1025 C1016 1.390 . S
C1025 H1018 0.950 . S
C1025 C1022 1.387 . S
C1026 C1027 1.387 . S
C1026 H1030 0.950 . S
C1026 C1035 1.390 . S
C1027 C1026 1.387 . S
C1027 C1029 1.387 . S
H1028 C1035 0.950 . S
C1029 C1027 1.387 . S
C1029 C1031 1.390 . S
C1029 H1033 0.950 . S
H1030 C1026 0.950 . S
C1031 C1029 1.390 . S
C1031 C1032 1.387 . S
C1031 H1034 0.950 . S
C1032 C1031 1.387 . S
C1032 C1035 1.387 . S
H1033 C1029 0.950 . S
H1034 C1031 0.950 . S
C1035 C1026 1.390 . S
C1035 H1028 0.950 . S
C1035 C1032 1.387 . S
C1036 C1037 1.387 . S
C1036 H1040 0.950 . S
C1036 C1045 1.390 . S
C1037 C1036 1.387 . S
C1037 C1039 1.387 . S
H1038 C1045 0.950 . S
C1039 C1037 1.387 . S
C1039 C1041 1.390 . S
C1039 H1043 0.950 . S
H1040 C1036 0.950 . S
C1041 C1039 1.390 . S
C1041 C1042 1.387 . S
C1041 H1044 0.950 . S
C1042 C1041 1.387 . S
C1042 C1045 1.387 . S
H1043 C1039 0.950 . S
H1044 C1041 0.950 . S
C1045 C1036 1.390 . S
C1045 H1038 0.950 . S
C1045 C1042 1.387 . S
C1046 C1047 1.387 . S
C1046 H1050 0.950 . S
C1046 C1055 1.390 . S
C1047 C1046 1.387 . S
C1047 C1049 1.387 . S
H1048 C1055 0.950 . S
C1049 C1047 1.387 . S
C1049 C1051 1.390 . S
C1049 H1053 0.950 . S
H1050 C1046 0.950 . S
C1051 C1049 1.390 . S
C1051 C1052 1.387 . S
C1051 H1054 0.950 . S
C1052 C1051 1.387 . S
C1052 C1055 1.387 . S
H1053 C1049 0.950 . S
H1054 C1051 0.950 . S
C1055 C1046 1.390 . S
C1055 H1048 0.950 . S
C1055 C1052 1.387 . S
C417 C10 1.525 . S
C422 C56 1.525 . S
C427 C23 1.527 . S
C432 C75 1.527 . S
C437 C82 1.527 . S
C442 C30 1.527 . S
C447 C101 1.527 . S
C452 C49 1.527 . S
C457 C108 1.525 . S
C462 C166 1.525 . S
C467 C121 1.525 . S
C472 C173 1.525 . S
C477 C186 1.527 . S
C482 C140 1.527 . S
C487 C147 1.525 . S
C492 C205 1.525 . S
C497 C264 1.527 . S
C502 C212 1.527 . S
C507 C283 1.527 . S
C512 C231 1.527 . S
C517 C238 1.525 . S
C522 C290 1.525 . S
C527 C309 1.527 . S
C532 C251 1.527 . S
C537 C322 1.525 . S
C542 C374 1.525 . S
C547 C381 1.527 . S
C552 C335 1.527 . S
C557 C400 1.525 . S
C562 C348 1.525 . S
C567 C355 1.525 . S
C572 C407 1.525 . S
C577 C3 1.653 . S
C582 C361 1.648 . S
C587 C114 1.648 . S
C592 C16 1.653 . S
C597 C31 1.652 . S
C602 C329 1.648 . S
C607 C42 1.652 . S
C612 C134 1.648 . S
C617 C387 1.648 . S
C622 C57 1.653 . S
C627 C192 1.648 . S
C632 C68 1.652 . S
C637 C83 1.652 . S
C642 C413 1.648 . S
C647 C94 1.653 . S
C652 C160 1.648 . S
C657 C257 1.648 . S
C662 C109 1.652 . S
C667 C122 1.653 . S
C672 C4 1.648 . S
C677 C225 1.648 . S
C682 C133 1.652 . S
C687 C148 1.652 . S
C692 C36 1.648 . S
C697 C277 1.648 . S
C702 C159 1.652 . S
C707 C174 1.652 . S
C712 C88 1.648 . S
C717 C303 1.648 . S
C722 C187 1.652 . S
C727 C198 1.652 . S
C732 C62 1.648 . S
C737 C153 1.648 . S
C742 C213 1.653 . S
C747 C316 1.648 . S
C752 C224 1.652 . S
C757 C127 1.648 . S
C762 C239 1.652 . S
C767 C252 1.653 . S
C772 C342 1.648 . S
C777 C179 1.648 . S
C782 C265 1.652 . S
C787 C394 1.648 . S
C792 C276 1.653 . S
C797 C199 1.648 . S
C802 C291 1.652 . S
C807 C302 1.652 . S
C812 C368 1.648 . S
C817 C315 1.653 . S
C822 C43 1.648 . S
C827 C328 1.653 . S
C832 C218 1.648 . S
C837 C341 1.652 . S
C842 C17 1.648 . S
C847 C356 1.653 . S
C852 C244 1.648 . S
C857 C367 1.653 . S
C862 C69 1.648 . S
C867 C296 1.648 . S
C872 C382 1.653 . S
C877 C95 1.648 . S
C882 C393 1.653 . S
C887 C408 1.653 . S
C892 C270 1.648 . S
C897 C5 1.272 . S
C902 C96 1.273 . S
C907 C18 1.272 . S
C912 C55 1.274 . S
C917 C29 1.271 . S
C922 C70 1.273 . S
C927 C81 1.274 . S
C932 C44 1.272 . S
C937 C200 1.272 . S
C942 C107 1.271 . S
C947 C161 1.273 . S
C952 C120 1.272 . S
C957 C172 1.273 . S
C962 C135 1.273 . S
C967 C185 1.273 . S
C972 C146 1.273 . S
C977 C211 1.271 . S
C982 C304 1.273 . S
C987 C263 1.273 . S
C992 C226 1.273 . S
C997 C278 1.271 . S
C1002 C237 1.274 . S
C1007 C289 1.271 . S
C1012 C250 1.272 . S
C1017 C406 1.272 . S
C1022 C317 1.274 . S
C1027 C330 1.272 . S
C1032 C369 1.271 . S
C1037 C343 1.273 . S
C1042 C380 1.272 . S
C1047 C354 1.272 . S
C1052 C395 1.274 . S
