# Generated by pormake.
# Topology ukr, (4)-cn, num edge types: 1
# Building blocks:
#     Node 0, Type 0, BuildingBlock: CEKHIL_clean_sbu_0, # of connection points: 4
#     Node 1, Type 0, BuildingBlock: CEKHIL_clean_sbu_0, # of connection points: 4
#     Node 2, Type 0, BuildingBlock: CEKHIL_clean_sbu_0, # of connection points: 4
#     Node 3, Type 0, BuildingBlock: CEKHIL_clean_sbu_0, # of connection points: 4
#     Node 4, Type 0, BuildingBlock: CEKHIL_clean_sbu_0, # of connection points: 4
#     Node 5, Type 0, BuildingBlock: CEKHIL_clean_sbu_0, # of connection points: 4
#     Node 6, Type 0, BuildingBlock: CEKHIL_clean_sbu_0, # of connection points: 4
#     Node 7, Type 0, BuildingBlock: CEKHIL_clean_sbu_0, # of connection points: 4
#     Node 8, Type 0, BuildingBlock: CEKHIL_clean_sbu_0, # of connection points: 4
#     Node 9, Type 0, BuildingBlock: CEKHIL_clean_sbu_0, # of connection points: 4
#     Node 10, Type 0, BuildingBlock: CEKHIL_clean_sbu_0, # of connection points: 4
#     Node 11, Type 0, BuildingBlock: CEKHIL_clean_sbu_0, # of connection points: 4
#     Node 12, Type 0, BuildingBlock: CEKHIL_clean_sbu_0, # of connection points: 4
#     Node 13, Type 0, BuildingBlock: CEKHIL_clean_sbu_0, # of connection points: 4
#     Node 14, Type 0, BuildingBlock: CEKHIL_clean_sbu_0, # of connection points: 4
#     Node 15, Type 0, BuildingBlock: CEKHIL_clean_sbu_0, # of connection points: 4
#     Node 16, Type 0, BuildingBlock: CEKHIL_clean_sbu_0, # of connection points: 4
#     Node 17, Type 0, BuildingBlock: CEKHIL_clean_sbu_0, # of connection points: 4
#     Node 18, Type 0, BuildingBlock: CEKHIL_clean_sbu_0, # of connection points: 4
#     Node 19, Type 0, BuildingBlock: CEKHIL_clean_sbu_0, # of connection points: 4
#     Node 20, Type 0, BuildingBlock: CEKHIL_clean_sbu_0, # of connection points: 4
#     Node 21, Type 0, BuildingBlock: CEKHIL_clean_sbu_0, # of connection points: 4
#     Node 22, Type 0, BuildingBlock: CEKHIL_clean_sbu_0, # of connection points: 4
#     Node 23, Type 0, BuildingBlock: CEKHIL_clean_sbu_0, # of connection points: 4
#     Node 24, Type 0, BuildingBlock: CEKHIL_clean_sbu_0, # of connection points: 4
#     Node 25, Type 0, BuildingBlock: CEKHIL_clean_sbu_0, # of connection points: 4
#     Node 26, Type 0, BuildingBlock: CEKHIL_clean_sbu_0, # of connection points: 4
#     Node 27, Type 0, BuildingBlock: CEKHIL_clean_sbu_0, # of connection points: 4
#     Node 28, Type 0, BuildingBlock: CEKHIL_clean_sbu_0, # of connection points: 4
#     Node 29, Type 0, BuildingBlock: CEKHIL_clean_sbu_0, # of connection points: 4
#     Node 30, Type 0, BuildingBlock: CEKHIL_clean_sbu_0, # of connection points: 4
#     Node 31, Type 0, BuildingBlock: CEKHIL_clean_sbu_0, # of connection points: 4
#     Node 32, Type 0, BuildingBlock: CEKHIL_clean_sbu_0, # of connection points: 4
#     Node 33, Type 0, BuildingBlock: CEKHIL_clean_sbu_0, # of connection points: 4
#     Node 34, Type 0, BuildingBlock: CEKHIL_clean_sbu_0, # of connection points: 4
#     Node 35, Type 0, BuildingBlock: CEKHIL_clean_sbu_0, # of connection points: 4
#     Node 36, Type 0, BuildingBlock: CEKHIL_clean_sbu_0, # of connection points: 4
#     Node 37, Type 0, BuildingBlock: CEKHIL_clean_sbu_0, # of connection points: 4
#     Node 38, Type 0, BuildingBlock: CEKHIL_clean_sbu_0, # of connection points: 4
#     Node 39, Type 0, BuildingBlock: CEKHIL_clean_sbu_0, # of connection points: 4
#     Node 40, Type 0, BuildingBlock: CEKHIL_clean_sbu_0, # of connection points: 4
#     Node 41, Type 0, BuildingBlock: CEKHIL_clean_sbu_0, # of connection points: 4
#     Node 42, Type 0, BuildingBlock: CEKHIL_clean_sbu_0, # of connection points: 4
#     Node 43, Type 0, BuildingBlock: CEKHIL_clean_sbu_0, # of connection points: 4
#     Node 44, Type 0, BuildingBlock: CEKHIL_clean_sbu_0, # of connection points: 4
#     Node 45, Type 0, BuildingBlock: CEKHIL_clean_sbu_0, # of connection points: 4
#     Node 46, Type 0, BuildingBlock: CEKHIL_clean_sbu_0, # of connection points: 4
#     Node 47, Type 0, BuildingBlock: CEKHIL_clean_sbu_0, # of connection points: 4
#     Edge 48, Type (0, 0), BuildingBlock: XIVTED_clean_linker_0, # of connection points: 2
#     Edge 49, Type (0, 0), BuildingBlock: XIVTED_clean_linker_0, # of connection points: 2
#     Edge 50, Type (0, 0), BuildingBlock: XIVTED_clean_linker_0, # of connection points: 2
#     Edge 51, Type (0, 0), BuildingBlock: XIVTED_clean_linker_0, # of connection points: 2
#     Edge 52, Type (0, 0), BuildingBlock: XIVTED_clean_linker_0, # of connection points: 2
#     Edge 53, Type (0, 0), BuildingBlock: XIVTED_clean_linker_0, # of connection points: 2
#     Edge 54, Type (0, 0), BuildingBlock: XIVTED_clean_linker_0, # of connection points: 2
#     Edge 55, Type (0, 0), BuildingBlock: XIVTED_clean_linker_0, # of connection points: 2
#     Edge 56, Type (0, 0), BuildingBlock: XIVTED_clean_linker_0, # of connection points: 2
#     Edge 57, Type (0, 0), BuildingBlock: XIVTED_clean_linker_0, # of connection points: 2
#     Edge 58, Type (0, 0), BuildingBlock: XIVTED_clean_linker_0, # of connection points: 2
#     Edge 59, Type (0, 0), BuildingBlock: XIVTED_clean_linker_0, # of connection points: 2
#     Edge 60, Type (0, 0), BuildingBlock: XIVTED_clean_linker_0, # of connection points: 2
#     Edge 61, Type (0, 0), BuildingBlock: XIVTED_clean_linker_0, # of connection points: 2
#     Edge 62, Type (0, 0), BuildingBlock: XIVTED_clean_linker_0, # of connection points: 2
#     Edge 63, Type (0, 0), BuildingBlock: XIVTED_clean_linker_0, # of connection points: 2
#     Edge 64, Type (0, 0), BuildingBlock: XIVTED_clean_linker_0, # of connection points: 2
#     Edge 65, Type (0, 0), BuildingBlock: XIVTED_clean_linker_0, # of connection points: 2
#     Edge 66, Type (0, 0), BuildingBlock: XIVTED_clean_linker_0, # of connection points: 2
#     Edge 67, Type (0, 0), BuildingBlock: XIVTED_clean_linker_0, # of connection points: 2
#     Edge 68, Type (0, 0), BuildingBlock: XIVTED_clean_linker_0, # of connection points: 2
#     Edge 69, Type (0, 0), BuildingBlock: XIVTED_clean_linker_0, # of connection points: 2
#     Edge 70, Type (0, 0), BuildingBlock: XIVTED_clean_linker_0, # of connection points: 2
#     Edge 71, Type (0, 0), BuildingBlock: XIVTED_clean_linker_0, # of connection points: 2
#     Edge 72, Type (0, 0), BuildingBlock: XIVTED_clean_linker_0, # of connection points: 2
#     Edge 73, Type (0, 0), BuildingBlock: XIVTED_clean_linker_0, # of connection points: 2
#     Edge 74, Type (0, 0), BuildingBlock: XIVTED_clean_linker_0, # of connection points: 2
#     Edge 75, Type (0, 0), BuildingBlock: XIVTED_clean_linker_0, # of connection points: 2
#     Edge 76, Type (0, 0), BuildingBlock: XIVTED_clean_linker_0, # of connection points: 2
#     Edge 77, Type (0, 0), BuildingBlock: XIVTED_clean_linker_0, # of connection points: 2
#     Edge 78, Type (0, 0), BuildingBlock: XIVTED_clean_linker_0, # of connection points: 2
#     Edge 79, Type (0, 0), BuildingBlock: XIVTED_clean_linker_0, # of connection points: 2
#     Edge 80, Type (0, 0), BuildingBlock: XIVTED_clean_linker_0, # of connection points: 2
#     Edge 81, Type (0, 0), BuildingBlock: XIVTED_clean_linker_0, # of connection points: 2
#     Edge 82, Type (0, 0), BuildingBlock: XIVTED_clean_linker_0, # of connection points: 2
#     Edge 83, Type (0, 0), BuildingBlock: XIVTED_clean_linker_0, # of connection points: 2
#     Edge 84, Type (0, 0), BuildingBlock: XIVTED_clean_linker_0, # of connection points: 2
#     Edge 85, Type (0, 0), BuildingBlock: XIVTED_clean_linker_0, # of connection points: 2
#     Edge 86, Type (0, 0), BuildingBlock: XIVTED_clean_linker_0, # of connection points: 2
#     Edge 87, Type (0, 0), BuildingBlock: XIVTED_clean_linker_0, # of connection points: 2
#     Edge 88, Type (0, 0), BuildingBlock: XIVTED_clean_linker_0, # of connection points: 2
#     Edge 89, Type (0, 0), BuildingBlock: XIVTED_clean_linker_0, # of connection points: 2
#     Edge 90, Type (0, 0), BuildingBlock: XIVTED_clean_linker_0, # of connection points: 2
#     Edge 91, Type (0, 0), BuildingBlock: XIVTED_clean_linker_0, # of connection points: 2
#     Edge 92, Type (0, 0), BuildingBlock: XIVTED_clean_linker_0, # of connection points: 2
#     Edge 93, Type (0, 0), BuildingBlock: XIVTED_clean_linker_0, # of connection points: 2
#     Edge 94, Type (0, 0), BuildingBlock: XIVTED_clean_linker_0, # of connection points: 2
#     Edge 95, Type (0, 0), BuildingBlock: XIVTED_clean_linker_0, # of connection points: 2
#     Edge 96, Type (0, 0), BuildingBlock: XIVTED_clean_linker_0, # of connection points: 2
#     Edge 97, Type (0, 0), BuildingBlock: XIVTED_clean_linker_0, # of connection points: 2
#     Edge 98, Type (0, 0), BuildingBlock: XIVTED_clean_linker_0, # of connection points: 2
#     Edge 99, Type (0, 0), BuildingBlock: XIVTED_clean_linker_0, # of connection points: 2
#     Edge 100, Type (0, 0), BuildingBlock: XIVTED_clean_linker_0, # of connection points: 2
#     Edge 101, Type (0, 0), BuildingBlock: XIVTED_clean_linker_0, # of connection points: 2
#     Edge 102, Type (0, 0), BuildingBlock: XIVTED_clean_linker_0, # of connection points: 2
#     Edge 103, Type (0, 0), BuildingBlock: XIVTED_clean_linker_0, # of connection points: 2
#     Edge 104, Type (0, 0), BuildingBlock: XIVTED_clean_linker_0, # of connection points: 2
#     Edge 105, Type (0, 0), BuildingBlock: XIVTED_clean_linker_0, # of connection points: 2
#     Edge 106, Type (0, 0), BuildingBlock: XIVTED_clean_linker_0, # of connection points: 2
#     Edge 107, Type (0, 0), BuildingBlock: XIVTED_clean_linker_0, # of connection points: 2
#     Edge 108, Type (0, 0), BuildingBlock: XIVTED_clean_linker_0, # of connection points: 2
#     Edge 109, Type (0, 0), BuildingBlock: XIVTED_clean_linker_0, # of connection points: 2
#     Edge 110, Type (0, 0), BuildingBlock: XIVTED_clean_linker_0, # of connection points: 2
#     Edge 111, Type (0, 0), BuildingBlock: XIVTED_clean_linker_0, # of connection points: 2
#     Edge 112, Type (0, 0), BuildingBlock: XIVTED_clean_linker_0, # of connection points: 2
#     Edge 113, Type (0, 0), BuildingBlock: XIVTED_clean_linker_0, # of connection points: 2
#     Edge 114, Type (0, 0), BuildingBlock: XIVTED_clean_linker_0, # of connection points: 2
#     Edge 115, Type (0, 0), BuildingBlock: XIVTED_clean_linker_0, # of connection points: 2
#     Edge 116, Type (0, 0), BuildingBlock: XIVTED_clean_linker_0, # of connection points: 2
#     Edge 117, Type (0, 0), BuildingBlock: XIVTED_clean_linker_0, # of connection points: 2
#     Edge 118, Type (0, 0), BuildingBlock: XIVTED_clean_linker_0, # of connection points: 2
#     Edge 119, Type (0, 0), BuildingBlock: XIVTED_clean_linker_0, # of connection points: 2
#     Edge 120, Type (0, 0), BuildingBlock: XIVTED_clean_linker_0, # of connection points: 2
#     Edge 121, Type (0, 0), BuildingBlock: XIVTED_clean_linker_0, # of connection points: 2
#     Edge 122, Type (0, 0), BuildingBlock: XIVTED_clean_linker_0, # of connection points: 2
#     Edge 123, Type (0, 0), BuildingBlock: XIVTED_clean_linker_0, # of connection points: 2
#     Edge 124, Type (0, 0), BuildingBlock: XIVTED_clean_linker_0, # of connection points: 2
#     Edge 125, Type (0, 0), BuildingBlock: XIVTED_clean_linker_0, # of connection points: 2
#     Edge 126, Type (0, 0), BuildingBlock: XIVTED_clean_linker_0, # of connection points: 2
#     Edge 127, Type (0, 0), BuildingBlock: XIVTED_clean_linker_0, # of connection points: 2
#     Edge 128, Type (0, 0), BuildingBlock: XIVTED_clean_linker_0, # of connection points: 2
#     Edge 129, Type (0, 0), BuildingBlock: XIVTED_clean_linker_0, # of connection points: 2
#     Edge 130, Type (0, 0), BuildingBlock: XIVTED_clean_linker_0, # of connection points: 2
#     Edge 131, Type (0, 0), BuildingBlock: XIVTED_clean_linker_0, # of connection points: 2
#     Edge 132, Type (0, 0), BuildingBlock: XIVTED_clean_linker_0, # of connection points: 2
#     Edge 133, Type (0, 0), BuildingBlock: XIVTED_clean_linker_0, # of connection points: 2
#     Edge 134, Type (0, 0), BuildingBlock: XIVTED_clean_linker_0, # of connection points: 2
#     Edge 135, Type (0, 0), BuildingBlock: XIVTED_clean_linker_0, # of connection points: 2
#     Edge 136, Type (0, 0), BuildingBlock: XIVTED_clean_linker_0, # of connection points: 2
#     Edge 137, Type (0, 0), BuildingBlock: XIVTED_clean_linker_0, # of connection points: 2
#     Edge 138, Type (0, 0), BuildingBlock: XIVTED_clean_linker_0, # of connection points: 2
#     Edge 139, Type (0, 0), BuildingBlock: XIVTED_clean_linker_0, # of connection points: 2
#     Edge 140, Type (0, 0), BuildingBlock: XIVTED_clean_linker_0, # of connection points: 2
#     Edge 141, Type (0, 0), BuildingBlock: XIVTED_clean_linker_0, # of connection points: 2
#     Edge 142, Type (0, 0), BuildingBlock: XIVTED_clean_linker_0, # of connection points: 2
#     Edge 143, Type (0, 0), BuildingBlock: XIVTED_clean_linker_0, # of connection points: 2
# Relax obj value: 0.467
# Max RMSD: 0.181
# Mean RMSD: 0.181
data_MOF--net-ukr--node1-CEKHIL_clean_sbu_0--edge1-XIVTED_clean_linker_0
_symmetry_space_group_name_H-M    P1
_symmetry_Int_Tables_number       1
_symmetry_cell_setting            triclinic
loop_
_symmetry_equiv_pos_as_xyz
'x, y, z'
_cell_length_a     68.233084
_cell_length_b     68.2616
_cell_length_c     68.310327
_cell_angle_alpha  89.994802
_cell_angle_beta   90.005812
_cell_angle_gamma 90.070985
loop_
_atom_site_label
_atom_site_type_symbol
_atom_site_fract_x
_atom_site_fract_y
_atom_site_fract_z
_atom_type_partial_charge
Co0 Co 0.09125 0.26417 0.1937 0.0
O1 O 0.06579 0.27328 0.20098 0.0
O2 O 0.08022 0.27936 0.17244 0.0
C3 C 0.08745 0.23295 0.20376 0.0
O4 O 0.11702 0.25658 0.18078 0.0
Co5 Co 0.1203 0.24874 0.22514 0.0
O6 O 0.13434 0.23815 0.20189 0.0
C7 C 0.11082 0.29081 0.22298 0.0
C8 C 0.06517 0.28157 0.18389 0.0
C9 C 0.13122 0.24482 0.18473 0.0
O10 O 0.10318 0.28836 0.20591 0.0
O11 O 0.11661 0.2766 0.23375 0.0
O12 O 0.08094 0.23825 0.18666 0.0
O13 O 0.09409 0.24689 0.2146 0.0
Co14 Co 0.2274 0.59033 0.69515 0.0
O15 O 0.21907 0.56438 0.70166 0.0
O16 O 0.21248 0.57955 0.67362 0.0
C17 C 0.25879 0.5874 0.70495 0.0
O18 O 0.23414 0.61659 0.68287 0.0
Co19 Co 0.24211 0.61919 0.72707 0.0
O20 O 0.25255 0.63381 0.70407 0.0
C21 C 0.20036 0.60813 0.7251 0.0
C22 C 0.21076 0.56406 0.68456 0.0
C23 C 0.24583 0.63083 0.6869 0.0
O24 O 0.2029 0.60106 0.70781 0.0
O25 O 0.21449 0.61422 0.73585 0.0
O26 O 0.25359 0.58111 0.68774 0.0
O27 O 0.2447 0.59323 0.71605 0.0
Co28 Co 0.90135 0.73015 0.19539 0.0
O29 O 0.92723 0.72205 0.20237 0.0
O30 O 0.9124 0.71463 0.17437 0.0
C31 C 0.9043 0.7618 0.20426 0.0
O32 O 0.87508 0.73671 0.18282 0.0
Co33 Co 0.87266 0.74564 0.22714 0.0
O34 O 0.85809 0.75547 0.2039 0.0
C35 C 0.8834 0.70387 0.22608 0.0
C36 C 0.92779 0.7133 0.18552 0.0
C37 C 0.86094 0.74854 0.1868 0.0
O38 O 0.89045 0.706 0.20871 0.0
O39 O 0.87747 0.71826 0.23653 0.0
O40 O 0.9107 0.7561 0.18726 0.0
O41 O 0.89847 0.74803 0.21576 0.0
Co42 Co 0.76875 0.39985 0.69807 0.0
O43 O 0.77566 0.42544 0.70704 0.0
O44 O 0.77829 0.41509 0.67626 0.0
C45 C 0.73981 0.39737 0.71374 0.0
O46 O 0.76236 0.3749 0.68323 0.0
Co47 Co 0.76391 0.36549 0.72762 0.0
O48 O 0.7554 0.35041 0.70424 0.0
C49 C 0.80209 0.38426 0.72134 0.0
C50 C 0.78079 0.42896 0.68906 0.0
C51 C 0.75664 0.35735 0.68695 0.0
O52 O 0.79617 0.39077 0.70468 0.0
O53 O 0.79065 0.37601 0.73369 0.0
O54 O 0.74072 0.40664 0.6971 0.0
O55 O 0.75637 0.39192 0.72088 0.0
Co56 Co 0.09034 0.72617 0.79594 0.0
O57 O 0.06403 0.71857 0.79003 0.0
O58 O 0.07913 0.71296 0.81833 0.0
C59 C 0.08935 0.75717 0.78472 0.0
O60 O 0.11693 0.73256 0.80757 0.0
Co61 Co 0.11901 0.73692 0.76218 0.0
O62 O 0.13671 0.74457 0.78401 0.0
C63 C 0.1067 0.69613 0.76779 0.0
C64 C 0.06352 0.71119 0.80755 0.0
C65 C 0.13301 0.74054 0.80186 0.0
O66 O 0.10009 0.70045 0.78491 0.0
O67 O 0.11258 0.70908 0.75558 0.0
O68 O 0.08242 0.75307 0.80199 0.0
O69 O 0.09391 0.74224 0.77412 0.0
Co70 Co 0.76476 0.59249 0.29833 0.0
O71 O 0.77442 0.5673 0.2906 0.0
O72 O 0.77576 0.57924 0.3208 0.0
C73 C 0.73587 0.59039 0.28239 0.0
O74 O 0.75577 0.61731 0.31214 0.0
Co75 Co 0.7547 0.62494 0.26798 0.0
O76 O 0.74113 0.63739 0.29056 0.0
C77 C 0.79572 0.61281 0.27496 0.0
C78 C 0.7795 0.56498 0.30877 0.0
C79 C 0.74523 0.6324 0.30808 0.0
O80 O 0.79091 0.60449 0.2912 0.0
O81 O 0.78319 0.6198 0.26289 0.0
O82 O 0.73766 0.58253 0.29966 0.0
O83 O 0.7516 0.59778 0.27514 0.0
Co84 Co 0.90369 0.26804 0.79404 0.0
O85 O 0.92993 0.27526 0.78735 0.0
O86 O 0.91644 0.27917 0.81673 0.0
C87 C 0.90347 0.23826 0.77978 0.0
O88 O 0.87746 0.26175 0.80664 0.0
Co89 Co 0.8726 0.2606 0.76155 0.0
O90 O 0.85545 0.2528 0.78374 0.0
C91 C 0.88938 0.29972 0.76763 0.0
C92 C 0.93146 0.28147 0.80526 0.0
C93 C 0.86051 0.25526 0.80155 0.0
O94 O 0.89463 0.29478 0.78505 0.0
O95 O 0.8827 0.28742 0.75516 0.0
O96 O 0.91094 0.24028 0.79721 0.0
O97 O 0.89843 0.25426 0.77125 0.0
Co98 Co 0.22867 0.4017 0.29678 0.0
O99 O 0.2208 0.42782 0.29049 0.0
O100 O 0.21467 0.41286 0.31874 0.0
C101 C 0.2599 0.40323 0.2863 0.0
O102 O 0.23521 0.37523 0.30865 0.0
Co103 Co 0.24063 0.37322 0.26329 0.0
O104 O 0.24802 0.3557 0.28534 0.0
C105 C 0.19963 0.38501 0.26779 0.0
C106 C 0.21292 0.42834 0.30778 0.0
C107 C 0.24355 0.35929 0.30312 0.0
O108 O 0.2034 0.39141 0.28513 0.0
O109 O 0.21297 0.37953 0.25584 0.0
O110 O 0.25531 0.41012 0.30345 0.0
O111 O 0.24529 0.39837 0.27538 0.0
Co112 Co 0.19194 0.09706 0.27058 0.0
O113 O 0.20209 0.07192 0.27781 0.0
O114 O 0.17071 0.08043 0.27913 0.0
C115 C 0.20894 0.1004 0.24245 0.0
O116 O 0.17574 0.12115 0.2635 0.0
Co117 Co 0.21873 0.13376 0.26602 0.0
O118 O 0.1961 0.14363 0.25065 0.0
C119 C 0.21204 0.11548 0.30468 0.0
C120 C 0.18413 0.06727 0.28213 0.0
C121 C 0.17897 0.13665 0.25325 0.0
O122 O 0.19688 0.10628 0.29826 0.0
O123 O 0.22339 0.12569 0.2938 0.0
O124 O 0.19278 0.09021 0.24259 0.0
O125 O 0.21478 0.10653 0.25927 0.0
Co126 Co 0.39642 0.69205 0.76853 0.0
O127 O 0.4221 0.70049 0.77589 0.0
O128 O 0.41073 0.67015 0.77928 0.0
C129 C 0.39559 0.70688 0.73905 0.0
O130 O 0.37115 0.67763 0.76184 0.0
Co131 Co 0.3628 0.72178 0.76059 0.0
O132 O 0.35072 0.69887 0.74718 0.0
C133 C 0.37986 0.717 0.80005 0.0
C134 C 0.42497 0.68259 0.78165 0.0
C135 C 0.35607 0.68144 0.75119 0.0
O136 O 0.38674 0.7001 0.79531 0.0
O137 O 0.37161 0.72852 0.78778 0.0
O138 O 0.40415 0.68993 0.74082 0.0
O139 O 0.38963 0.71463 0.75513 0.0
Co140 Co 0.79673 0.89665 0.26802 0.0
O141 O 0.78744 0.92173 0.27647 0.0
O142 O 0.81832 0.91165 0.27844 0.0
C143 C 0.78104 0.89592 0.23895 0.0
O144 O 0.8121 0.87243 0.26017 0.0
Co145 Co 0.7685 0.86178 0.25988 0.0
O146 O 0.79165 0.85102 0.24574 0.0
C147 C 0.77468 0.87653 0.30007 0.0
C148 C 0.80544 0.92529 0.28158 0.0
C149 C 0.80887 0.85722 0.24955 0.0
O150 O 0.79036 0.88556 0.2947 0.0
O151 O 0.76305 0.86799 0.28807 0.0
O152 O 0.79758 0.90532 0.24054 0.0
O153 O 0.77403 0.88911 0.25505 0.0
Co154 Co 0.59359 0.2956 0.76824 0.0
O155 O 0.56757 0.28653 0.77316 0.0
O156 O 0.57779 0.31716 0.77754 0.0
C157 C 0.59794 0.28083 0.73904 0.0
O158 O 0.61908 0.31045 0.76399 0.0
Co159 Co 0.62782 0.26568 0.76497 0.0
O160 O 0.64362 0.28916 0.75815 0.0
C161 C 0.60676 0.27124 0.80195 0.0
C162 C 0.56377 0.3043 0.77878 0.0
C163 C 0.63693 0.30656 0.75939 0.0
O164 O 0.60084 0.28812 0.79599 0.0
O165 O 0.61551 0.25904 0.79075 0.0
O166 O 0.58865 0.29747 0.73987 0.0
O167 O 0.60217 0.27315 0.75569 0.0
Co168 Co 0.19526 0.89836 0.72511 0.0
O169 O 0.20422 0.92332 0.71615 0.0
O170 O 0.17402 0.91185 0.712 0.0
C171 C 0.20835 0.9007 0.75528 0.0
O172 O 0.18056 0.87358 0.73301 0.0
Co173 Co 0.22475 0.86611 0.73795 0.0
O174 O 0.20104 0.85428 0.75014 0.0
C175 C 0.2212 0.87777 0.69639 0.0
C176 C 0.18664 0.92592 0.70942 0.0
C177 C 0.18387 0.85895 0.74443 0.0
O178 O 0.20469 0.88623 0.69983 0.0
O179 O 0.23215 0.87074 0.70989 0.0
O180 O 0.19134 0.90853 0.75179 0.0
O181 O 0.2171 0.89317 0.74041 0.0
Co182 Co 0.6001 0.6991 0.22083 0.0
O183 O 0.57586 0.71295 0.21741 0.0
O184 O 0.57956 0.68081 0.21429 0.0
C185 C 0.60992 0.71388 0.24863 0.0
O186 O 0.62231 0.67949 0.22431 0.0
Co187 Co 0.64003 0.7212 0.21951 0.0
O188 O 0.65111 0.69546 0.22713 0.0
C189 C 0.61529 0.7182 0.1846 0.0
C190 C 0.56808 0.69598 0.21363 0.0
C191 C 0.64088 0.67982 0.22757 0.0
O192 O 0.60627 0.70346 0.19215 0.0
O193 O 0.62749 0.72873 0.19415 0.0
O194 O 0.59719 0.69969 0.24943 0.0
O195 O 0.6143 0.71986 0.23129 0.0
Co196 Co 0.79779 0.09552 0.72334 0.0
O197 O 0.7869 0.07029 0.71787 0.0
O198 O 0.81846 0.07793 0.71536 0.0
C199 C 0.78148 0.10096 0.75152 0.0
O200 O 0.81453 0.11966 0.72857 0.0
Co201 Co 0.77098 0.13235 0.72516 0.0
O202 O 0.79533 0.14611 0.73319 0.0
C203 C 0.77633 0.11036 0.68864 0.0
C204 C 0.80462 0.06497 0.71339 0.0
C205 C 0.81207 0.13782 0.73295 0.0
O206 O 0.7925 0.10325 0.69524 0.0
O207 O 0.76448 0.12023 0.69926 0.0
O208 O 0.79742 0.09048 0.75177 0.0
O209 O 0.77538 0.10599 0.73445 0.0
Co210 Co 0.40313 0.30149 0.22708 0.0
O211 O 0.42865 0.29457 0.21778 0.0
O212 O 0.41397 0.3231 0.21229 0.0
C213 C 0.40701 0.29092 0.25811 0.0
O214 O 0.37736 0.31421 0.23488 0.0
Co215 Co 0.37405 0.2699 0.24222 0.0
O216 O 0.36017 0.29302 0.25334 0.0
C217 C 0.38349 0.27258 0.20012 0.0
C218 C 0.42913 0.31186 0.20987 0.0
C219 C 0.36327 0.31022 0.24675 0.0
O220 O 0.39123 0.28959 0.20274 0.0
O221 O 0.37762 0.26169 0.21423 0.0
O222 O 0.41345 0.30814 0.25306 0.0
O223 O 0.40035 0.28027 0.24404 0.0
Co224 Co 0.26582 0.19508 0.09246 0.0
O225 O 0.27321 0.20136 0.06617 0.0
O226 O 0.2797 0.17315 0.0811 0.0
C227 C 0.23452 0.20538 0.09144 0.0
O228 O 0.25978 0.18307 0.11897 0.0
Co229 Co 0.25399 0.22824 0.12134 0.0
O230 O 0.24691 0.20605 0.13884 0.0
C231 C 0.29481 0.22442 0.10855 0.0
C232 C 0.28107 0.18405 0.06556 0.0
C233 C 0.25152 0.18835 0.13503 0.0
O234 O 0.29119 0.207 0.10224 0.0
O235 O 0.28139 0.23612 0.11438 0.0
O236 O 0.23909 0.18823 0.08451 0.0
O237 O 0.24914 0.21638 0.09612 0.0
Co238 Co 0.26816 0.79841 0.89726 0.0
O239 O 0.27338 0.78648 0.92205 0.0
O240 O 0.27687 0.81817 0.91545 0.0
C241 C 0.23943 0.7833 0.89136 0.0
O242 O 0.26322 0.81623 0.87391 0.0
Co243 Co 0.26506 0.77334 0.85928 0.0
O244 O 0.25668 0.79829 0.84698 0.0
C245 C 0.30189 0.77634 0.88137 0.0
C246 C 0.27834 0.80389 0.92795 0.0
C247 C 0.25786 0.81461 0.85594 0.0
O248 O 0.29604 0.79246 0.88918 0.0
O249 O 0.29079 0.76545 0.87091 0.0
O250 O 0.23979 0.79877 0.90252 0.0
O251 O 0.25626 0.77683 0.88596 0.0
Co252 Co 0.69779 0.76306 0.40464 0.0
O253 O 0.70057 0.76957 0.43174 0.0
O254 O 0.67535 0.77817 0.41296 0.0
C255 C 0.7058 0.73112 0.40606 0.0
O256 O 0.68943 0.75829 0.37657 0.0
Co257 Co 0.73395 0.74982 0.3804 0.0
O258 O 0.71399 0.7438 0.36 0.0
C259 C 0.73056 0.79072 0.39291 0.0
C260 C 0.6839 0.77857 0.42994 0.0
C261 C 0.69627 0.74961 0.36133 0.0
O262 O 0.71243 0.78779 0.39728 0.0
O263 O 0.74225 0.77686 0.38819 0.0
O264 O 0.68821 0.73674 0.41079 0.0
O265 O 0.71833 0.74505 0.40355 0.0
Co266 Co 0.7251 0.20169 0.89797 0.0
O267 O 0.72042 0.21066 0.92403 0.0
O268 O 0.71611 0.18002 0.91382 0.0
C269 C 0.75425 0.21648 0.89322 0.0
O270 O 0.72919 0.18695 0.87243 0.0
Co271 Co 0.72787 0.23175 0.8638 0.0
O272 O 0.73519 0.20841 0.84808 0.0
C273 C 0.69108 0.22589 0.88517 0.0
C274 C 0.71503 0.19282 0.92787 0.0
C275 C 0.73398 0.19096 0.85466 0.0
O276 O 0.69721 0.20905 0.89103 0.0
O277 O 0.70212 0.23817 0.87629 0.0
O278 O 0.75352 0.19989 0.90261 0.0
O279 O 0.73754 0.22422 0.88927 0.0
Co280 Co 0.3033 0.223 0.39514 0.0
O281 O 0.29153 0.21634 0.4197 0.0
O282 O 0.32343 0.21514 0.41341 0.0
C283 C 0.28628 0.25083 0.39007 0.0
O284 O 0.32097 0.22961 0.3719 0.0
Co285 Co 0.27881 0.2262 0.35677 0.0
O286 O 0.30175 0.24183 0.34812 0.0
C287 C 0.28537 0.1879 0.37587 0.0
C288 C 0.30914 0.21235 0.42569 0.0
C289 C 0.31849 0.23951 0.35604 0.0
O290 O 0.29925 0.19498 0.38648 0.0
O291 O 0.27473 0.1982 0.36441 0.0
O292 O 0.30177 0.25114 0.4012 0.0
O293 O 0.28101 0.23379 0.38396 0.0
Co294 Co 0.72913 0.79867 0.08928 0.0
O295 O 0.72358 0.79149 0.06283 0.0
O296 O 0.71577 0.82006 0.07639 0.0
C297 C 0.76041 0.7884 0.09055 0.0
O298 O 0.73329 0.81153 0.11577 0.0
Co299 Co 0.73892 0.7665 0.11991 0.0
O300 O 0.74451 0.78918 0.13731 0.0
C301 C 0.69971 0.76887 0.10259 0.0
C302 C 0.71532 0.80854 0.06124 0.0
C303 C 0.7403 0.80676 0.13258 0.0
O304 O 0.70326 0.78665 0.0974 0.0
O305 O 0.71289 0.75755 0.10962 0.0
O306 O 0.75636 0.80544 0.083 0.0
O307 O 0.74551 0.77758 0.0947 0.0
Co308 Co 0.69955 0.22542 0.59267 0.0
O309 O 0.70805 0.21978 0.5667 0.0
O310 O 0.67789 0.2146 0.57792 0.0
C311 C 0.71329 0.25531 0.59501 0.0
O312 O 0.68538 0.23029 0.61844 0.0
Co313 Co 0.73044 0.23166 0.62564 0.0
O314 O 0.70725 0.23865 0.64173 0.0
C315 C 0.72587 0.19349 0.60641 0.0
C316 C 0.6904 0.2134 0.5636 0.0
C317 C 0.68969 0.23623 0.63579 0.0
O318 O 0.70851 0.19837 0.60083 0.0
O319 O 0.73778 0.20563 0.61431 0.0
O320 O 0.6963 0.25342 0.58653 0.0
O321 O 0.72177 0.23922 0.59982 0.0
Co322 Co 0.29843 0.76084 0.58998 0.0
O323 O 0.29114 0.76764 0.56381 0.0
O324 O 0.31995 0.7744 0.57744 0.0
C325 C 0.28783 0.72964 0.59002 0.0
O326 O 0.31146 0.75534 0.61612 0.0
Co327 Co 0.2664 0.74977 0.62044 0.0
O328 O 0.28923 0.74305 0.63724 0.0
C329 C 0.26959 0.79009 0.60604 0.0
C330 C 0.30841 0.7755 0.56233 0.0
C331 C 0.30679 0.74746 0.63257 0.0
O332 O 0.28693 0.78645 0.59956 0.0
O333 O 0.25812 0.77676 0.61257 0.0
O334 O 0.3048 0.73389 0.58242 0.0
O335 O 0.27718 0.74442 0.59484 0.0
Co336 Co 0.90099 0.72397 0.80081 0.0
O337 O 0.92706 0.71623 0.79414 0.0
O338 O 0.91328 0.71205 0.82336 0.0
C339 C 0.90216 0.75395 0.787 0.0
O340 O 0.87483 0.73063 0.81342 0.0
Co341 Co 0.87001 0.73398 0.76894 0.0
O342 O 0.85575 0.74594 0.7914 0.0
C343 C 0.8854 0.69381 0.77358 0.0
C344 C 0.92835 0.70973 0.81196 0.0
C345 C 0.85977 0.74102 0.80895 0.0
O346 O 0.89125 0.69778 0.79105 0.0
O347 O 0.87849 0.70673 0.76188 0.0
O348 O 0.90916 0.75143 0.80456 0.0
O349 O 0.89636 0.73831 0.77828 0.0
Co350 Co 0.76422 0.40262 0.29757 0.0
O351 O 0.76997 0.42988 0.29434 0.0
O352 O 0.7776 0.41225 0.32064 0.0
C353 C 0.73283 0.4029 0.28738 0.0
O354 O 0.75969 0.37462 0.30647 0.0
Co355 Co 0.75405 0.37708 0.26124 0.0
O356 O 0.74712 0.35722 0.28141 0.0
C357 C 0.79446 0.39039 0.26729 0.0
C358 C 0.77785 0.429 0.31161 0.0
C359 C 0.75176 0.35905 0.29941 0.0
O360 O 0.79014 0.39553 0.28492 0.0
O361 O 0.78157 0.38495 0.25481 0.0
O362 O 0.73712 0.40821 0.30516 0.0
O363 O 0.74763 0.40039 0.27594 0.0
Co364 Co 0.09342 0.26606 0.79947 0.0
O365 O 0.0683 0.27569 0.79178 0.0
O366 O 0.08159 0.27985 0.8212 0.0
C367 C 0.08961 0.23583 0.78685 0.0
O368 O 0.11863 0.25763 0.81297 0.0
Co369 Co 0.1239 0.25189 0.76874 0.0
O370 O 0.13646 0.2396 0.79198 0.0
C371 C 0.11316 0.29374 0.7719 0.0
C372 C 0.06699 0.28283 0.80934 0.0
C373 C 0.1327 0.24568 0.80923 0.0
O374 O 0.10572 0.29086 0.789 0.0
O375 O 0.11929 0.27984 0.76092 0.0
O376 O 0.08271 0.23966 0.80419 0.0
O377 O 0.0971 0.25043 0.77761 0.0
Co378 Co 0.22698 0.58831 0.29934 0.0
O379 O 0.21732 0.5628 0.29291 0.0
O380 O 0.21202 0.57807 0.32115 0.0
C381 C 0.25797 0.58372 0.28885 0.0
O382 O 0.23515 0.61425 0.31153 0.0
Co383 Co 0.24255 0.61648 0.2672 0.0
O384 O 0.25371 0.63089 0.29 0.0
C385 C 0.20026 0.60771 0.27007 0.0
C386 C 0.20942 0.56272 0.31019 0.0
C387 C 0.24705 0.62824 0.30724 0.0
O388 O 0.20279 0.60028 0.28722 0.0
O389 O 0.21446 0.61314 0.25906 0.0
O390 O 0.25283 0.57776 0.30619 0.0
O391 O 0.244 0.59041 0.27809 0.0
Co392 Co 0.90314 0.26777 0.20197 0.0
O393 O 0.92934 0.27554 0.20831 0.0
O394 O 0.91459 0.28138 0.1799 0.0
C395 C 0.90444 0.23664 0.21283 0.0
O396 O 0.87672 0.26123 0.18992 0.0
Co397 Co 0.87419 0.25625 0.23522 0.0
O398 O 0.85708 0.24825 0.21307 0.0
C399 C 0.88575 0.29738 0.23016 0.0
C400 C 0.93007 0.28309 0.19087 0.0
C401 C 0.86079 0.25269 0.19532 0.0
O402 O 0.89302 0.29329 0.21324 0.0
O403 O 0.87961 0.28425 0.24205 0.0
O404 O 0.91143 0.24105 0.19567 0.0
O405 O 0.89951 0.25136 0.22355 0.0
Co406 Co 0.22827 0.40324 0.69329 0.0
O407 O 0.21858 0.42852 0.70045 0.0
O408 O 0.21537 0.41499 0.671 0.0
C409 C 0.25824 0.40628 0.70684 0.0
O410 O 0.23689 0.37793 0.68023 0.0
Co411 Co 0.2408 0.37264 0.72462 0.0
O412 O 0.2535 0.35954 0.70188 0.0
C413 C 0.1993 0.38391 0.71983 0.0
C414 C 0.21198 0.42966 0.68265 0.0
C415 C 0.24827 0.36351 0.68441 0.0
O416 O 0.20294 0.39122 0.70283 0.0
O417 O 0.21269 0.37777 0.73143 0.0
O418 O 0.255 0.41349 0.68949 0.0
O419 O 0.24312 0.39936 0.71567 0.0
Co420 Co 0.09123 0.7269 0.19716 0.0
O421 O 0.06485 0.72005 0.20374 0.0
O422 O 0.07922 0.71335 0.17531 0.0
C423 C 0.09107 0.75818 0.20765 0.0
O424 O 0.11786 0.7324 0.18506 0.0
Co425 Co 0.12036 0.73766 0.23058 0.0
O426 O 0.13809 0.74414 0.2084 0.0
C427 C 0.10701 0.69716 0.22594 0.0
C428 C 0.06381 0.71221 0.18646 0.0
C429 C 0.13424 0.7399 0.19061 0.0
O430 O 0.10062 0.70124 0.20868 0.0
O431 O 0.11304 0.71023 0.23794 0.0
O432 O 0.08383 0.75385 0.19057 0.0
O433 O 0.09544 0.7434 0.21852 0.0
Co434 Co 0.76859 0.59821 0.69291 0.0
O435 O 0.77514 0.57324 0.70373 0.0
O436 O 0.77726 0.5811 0.6722 0.0
C437 C 0.74018 0.60256 0.70904 0.0
O438 O 0.76228 0.62199 0.67617 0.0
Co439 Co 0.76516 0.63513 0.71942 0.0
O440 O 0.75612 0.64828 0.69513 0.0
C441 C 0.80251 0.61446 0.71446 0.0
C442 C 0.77975 0.5682 0.68597 0.0
C443 C 0.75681 0.63985 0.67849 0.0
O444 O 0.79634 0.60713 0.69824 0.0
O445 O 0.79146 0.62403 0.72616 0.0
O446 O 0.74043 0.59191 0.69322 0.0
O447 O 0.75703 0.6083 0.71524 0.0
Co448 Co 0.79838 0.89593 0.72827 0.0
O449 O 0.78827 0.9213 0.72221 0.0
O450 O 0.81824 0.91094 0.71472 0.0
C451 C 0.78813 0.89452 0.75944 0.0
O452 O 0.8142 0.87118 0.73308 0.0
Co453 Co 0.77003 0.86196 0.73916 0.0
O454 O 0.79457 0.84757 0.74528 0.0
C455 C 0.77006 0.87875 0.69965 0.0
C456 C 0.80516 0.92477 0.71417 0.0
C457 C 0.81145 0.8542 0.74076 0.0
O458 O 0.78726 0.8859 0.7027 0.0
O459 O 0.75978 0.87078 0.71314 0.0
O460 O 0.80436 0.90363 0.75527 0.0
O461 O 0.77799 0.88859 0.74471 0.0
Co462 Co 0.59093 0.30028 0.22497 0.0
O463 O 0.56528 0.29358 0.21593 0.0
O464 O 0.5791 0.32289 0.2126 0.0
C465 C 0.58795 0.2862 0.25465 0.0
O466 O 0.61679 0.31288 0.23311 0.0
Co467 Co 0.62123 0.26827 0.23641 0.0
O468 O 0.63496 0.2906 0.24915 0.0
C469 C 0.60796 0.27317 0.19548 0.0
C470 C 0.56416 0.31144 0.20953 0.0
C471 C 0.63131 0.30824 0.24421 0.0
O472 O 0.6019 0.29063 0.19926 0.0
O473 O 0.61424 0.26144 0.20869 0.0
O474 O 0.58134 0.30388 0.25196 0.0
O475 O 0.59471 0.27761 0.23935 0.0
Co476 Co 0.19251 0.09666 0.72356 0.0
O477 O 0.20406 0.0718 0.71749 0.0
O478 O 0.17218 0.07827 0.71663 0.0
C479 C 0.20963 0.1033 0.75104 0.0
O480 O 0.17508 0.11999 0.72962 0.0
Co481 Co 0.21782 0.13467 0.72374 0.0
O482 O 0.19332 0.14735 0.73291 0.0
C483 C 0.21078 0.11303 0.68741 0.0
C484 C 0.18632 0.06581 0.71395 0.0
C485 C 0.177 0.13827 0.73367 0.0
O486 O 0.19576 0.10468 0.6952 0.0
O487 O 0.22292 0.12344 0.69718 0.0
O488 O 0.19448 0.09171 0.7519 0.0
O489 O 0.21493 0.10832 0.73368 0.0
Co490 Co 0.39117 0.69032 0.21934 0.0
O491 O 0.41413 0.70557 0.21377 0.0
O492 O 0.41276 0.67311 0.21323 0.0
C493 C 0.38237 0.70718 0.24625 0.0
O494 O 0.37048 0.66937 0.22542 0.0
Co495 Co 0.34927 0.70811 0.21998 0.0
O496 O 0.3442 0.68532 0.23713 0.0
C497 C 0.37026 0.70261 0.18244 0.0
C498 C 0.42307 0.68901 0.21106 0.0
C499 C 0.35448 0.66988 0.23544 0.0
O500 O 0.38365 0.69231 0.19079 0.0
O501 O 0.35615 0.71079 0.19167 0.0
O502 O 0.39555 0.69348 0.24752 0.0
O503 O 0.37611 0.71094 0.22885 0.0
Co504 Co 0.80137 0.09236 0.27015 0.0
O505 O 0.79249 0.06684 0.27741 0.0
O506 O 0.82303 0.07763 0.281 0.0
C507 C 0.78642 0.09299 0.24074 0.0
O508 O 0.81604 0.1176 0.26367 0.0
Co509 Co 0.77177 0.12609 0.26212 0.0
O510 O 0.79492 0.13864 0.24963 0.0
C511 C 0.77636 0.1088 0.30154 0.0
C512 C 0.81027 0.06365 0.28333 0.0
C513 C 0.81231 0.13321 0.25375 0.0
O514 O 0.79332 0.102 0.2969 0.0
O515 O 0.76488 0.11706 0.28923 0.0
O516 O 0.80347 0.08461 0.24241 0.0
O517 O 0.77883 0.09926 0.25676 0.0
Co518 Co 0.39572 0.29797 0.76531 0.0
O519 O 0.42105 0.2881 0.77208 0.0
O520 O 0.41094 0.31863 0.77721 0.0
C521 C 0.39384 0.28542 0.73494 0.0
O522 O 0.37123 0.31376 0.75948 0.0
Co523 Co 0.3611 0.26964 0.75679 0.0
O524 O 0.34698 0.2939 0.74907 0.0
C525 C 0.37801 0.27245 0.7962 0.0
C526 C 0.42465 0.30553 0.77881 0.0
C527 C 0.35408 0.31089 0.75227 0.0
O528 O 0.38567 0.2891 0.79171 0.0
O529 O 0.36966 0.26135 0.78361 0.0
O530 O 0.40334 0.3017 0.7379 0.0
O531 O 0.38789 0.27648 0.75044 0.0
Co532 Co 0.19225 0.90355 0.26586 0.0
O533 O 0.20006 0.92862 0.27549 0.0
O534 O 0.17109 0.91479 0.28106 0.0
C535 C 0.20267 0.90799 0.2349 0.0
O536 O 0.17887 0.87814 0.25765 0.0
Co537 Co 0.22327 0.87431 0.25001 0.0
O538 O 0.1998 0.86095 0.23891 0.0
C539 C 0.22089 0.8829 0.29229 0.0
C540 C 0.18288 0.92956 0.28355 0.0
C541 C 0.18266 0.86412 0.24563 0.0
O542 O 0.204 0.89093 0.28986 0.0
O543 O 0.23167 0.87716 0.27805 0.0
O544 O 0.1856 0.91457 0.24019 0.0
O545 O 0.21325 0.90072 0.24871 0.0
Co546 Co 0.58838 0.69561 0.7628 0.0
O547 O 0.56193 0.70169 0.76965 0.0
O548 O 0.57692 0.67353 0.77632 0.0
C549 C 0.5881 0.70615 0.73162 0.0
O550 O 0.6151 0.68393 0.75736 0.0
Co551 Co 0.61723 0.72926 0.7522 0.0
O552 O 0.6352 0.70732 0.74553 0.0
C553 C 0.60361 0.72462 0.79257 0.0
C554 C 0.56134 0.6844 0.77756 0.0
C555 C 0.6314 0.68951 0.74976 0.0
O556 O 0.59749 0.70726 0.78845 0.0
O557 O 0.60968 0.73666 0.77956 0.0
O558 O 0.58113 0.68892 0.73588 0.0
O559 O 0.5923 0.71709 0.74641 0.0
Co560 Co 0.72547 0.79295 0.89947 0.0
O561 O 0.71749 0.7868 0.92559 0.0
O562 O 0.7117 0.81508 0.91048 0.0
C563 C 0.75661 0.78217 0.90132 0.0
O564 O 0.73206 0.80488 0.87309 0.0
Co565 Co 0.73784 0.76023 0.87041 0.0
O566 O 0.74904 0.78277 0.85558 0.0
C567 C 0.6965 0.76443 0.88201 0.0
C568 C 0.70988 0.80423 0.92601 0.0
C569 C 0.74324 0.80026 0.85867 0.0
O570 O 0.70019 0.78144 0.88925 0.0
O571 O 0.70983 0.7529 0.87562 0.0
O572 O 0.75209 0.79942 0.90802 0.0
O573 O 0.74196 0.77142 0.8961 0.0
Co574 Co 0.72475 0.1957 0.09949 0.0
O575 O 0.72044 0.20679 0.07416 0.0
O576 O 0.71674 0.1753 0.0816 0.0
C577 C 0.75329 0.21096 0.10612 0.0
O578 O 0.72873 0.17879 0.12368 0.0
Co579 Co 0.72605 0.22242 0.13643 0.0
O580 O 0.73317 0.19788 0.15024 0.0
C581 C 0.69019 0.21817 0.1132 0.0
C582 C 0.71565 0.18921 0.06865 0.0
C583 C 0.73272 0.18117 0.14192 0.0
O584 O 0.69654 0.2018 0.10633 0.0
O585 O 0.70084 0.22973 0.1234 0.0
O586 O 0.75333 0.1952 0.09537 0.0
O587 O 0.73625 0.21768 0.11048 0.0
Co588 Co 0.29185 0.2287 0.59143 0.0
O589 O 0.28552 0.22261 0.56488 0.0
O590 O 0.31264 0.21304 0.58018 0.0
C591 C 0.28445 0.26081 0.59041 0.0
O592 O 0.30366 0.23299 0.61847 0.0
Co593 Co 0.25958 0.24334 0.61993 0.0
O594 O 0.28273 0.25188 0.63551 0.0
C595 C 0.25942 0.20249 0.60609 0.0
C596 C 0.30198 0.21313 0.5644 0.0
C597 C 0.29967 0.24444 0.63291 0.0
O598 O 0.27721 0.20444 0.6001 0.0
O599 O 0.24923 0.21679 0.61266 0.0
O600 O 0.30142 0.2548 0.58417 0.0
O601 O 0.27212 0.2472 0.59484 0.0
Co602 Co 0.2712 0.80304 0.10098 0.0
O603 O 0.27834 0.78977 0.07735 0.0
O604 O 0.27825 0.82207 0.08134 0.0
C605 C 0.24408 0.78519 0.10701 0.0
O606 O 0.26381 0.82213 0.12279 0.0
Co607 Co 0.2687 0.78184 0.14115 0.0
O608 O 0.25127 0.80419 0.14734 0.0
C609 C 0.30707 0.78887 0.12217 0.0
C610 C 0.28151 0.80707 0.07008 0.0
C611 C 0.25322 0.82038 0.13829 0.0
O612 O 0.29934 0.8008 0.10982 0.0
O613 O 0.29721 0.77917 0.13483 0.0
O614 O 0.24324 0.7999 0.09492 0.0
O615 O 0.26124 0.78116 0.11378 0.0
Co616 Co 0.69147 0.76631 0.5903 0.0
O617 O 0.69818 0.77571 0.5648 0.0
O618 O 0.6687 0.77825 0.57841 0.0
C619 C 0.70597 0.73678 0.58752 0.0
O620 O 0.67885 0.75777 0.61587 0.0
Co621 Co 0.72347 0.75526 0.6208 0.0
O622 O 0.70118 0.74222 0.63441 0.0
C623 C 0.71733 0.79638 0.60879 0.0
C624 C 0.68015 0.78164 0.56357 0.0
C625 C 0.6835 0.74688 0.63052 0.0
O626 O 0.70034 0.79212 0.60177 0.0
O627 O 0.72942 0.78347 0.615 0.0
O628 O 0.6884 0.73931 0.58054 0.0
O629 O 0.71436 0.75225 0.59424 0.0
Co630 Co 0.26562 0.19593 0.90331 0.0
O631 O 0.27252 0.20151 0.92984 0.0
O632 O 0.27921 0.17363 0.91441 0.0
C633 C 0.23439 0.20646 0.90411 0.0
O634 O 0.26 0.18479 0.87628 0.0
Co635 Co 0.25468 0.23019 0.87537 0.0
O636 O 0.24747 0.20861 0.85718 0.0
C637 C 0.29515 0.22558 0.88896 0.0
C638 C 0.28039 0.18421 0.9302 0.0
C639 C 0.25192 0.19073 0.86032 0.0
O640 O 0.29125 0.20794 0.89441 0.0
O641 O 0.28195 0.23761 0.8833 0.0
O642 O 0.23869 0.18906 0.91058 0.0
O643 O 0.24918 0.21744 0.9 0.0
Co644 Co 0.29488 0.76448 0.40003 0.0
O645 O 0.29019 0.7708 0.42687 0.0
O646 O 0.31728 0.77847 0.41045 0.0
C647 C 0.28532 0.73292 0.40045 0.0
O648 O 0.30495 0.75961 0.37252 0.0
Co649 Co 0.25943 0.75329 0.37357 0.0
O650 O 0.28034 0.7473 0.35422 0.0
C651 C 0.26449 0.79388 0.38639 0.0
C652 C 0.30732 0.77907 0.42667 0.0
C653 C 0.29829 0.75199 0.35663 0.0
O654 O 0.28212 0.78994 0.39183 0.0
O655 O 0.25225 0.7807 0.38109 0.0
O656 O 0.30275 0.73768 0.40654 0.0
O657 O 0.27366 0.74742 0.39728 0.0
Co658 Co 0.69166 0.22044 0.39191 0.0
O659 O 0.70417 0.2157 0.41655 0.0
O660 O 0.67214 0.21337 0.411 0.0
C661 C 0.70755 0.24828 0.38404 0.0
O662 O 0.67324 0.22513 0.36898 0.0
Co663 Co 0.71538 0.22042 0.35298 0.0
O664 O 0.69033 0.2289 0.341 0.0
C665 C 0.71178 0.18507 0.37711 0.0
C666 C 0.68673 0.21166 0.42309 0.0
C667 C 0.67434 0.22918 0.35063 0.0
O668 O 0.69615 0.192 0.38502 0.0
O669 O 0.72273 0.19506 0.36566 0.0
O670 O 0.69265 0.24894 0.39594 0.0
O671 O 0.71329 0.23099 0.37922 0.0
H672 H 0.9469 0.28094 0.15449 0.0
H673 H 0.04706 0.31037 0.20386 0.0
H674 H 0.95442 0.30613 0.21184 0.0
H675 H 0.04296 0.27613 0.15107 0.0
H676 H 0.01305 0.32048 0.19967 0.0
H677 H 0.98098 0.28977 0.14662 0.0
C678 C 0.95556 0.28888 0.16516 0.0
C679 C 0.94819 0.29243 0.18399 0.0
C680 C 0.01964 0.31112 0.18869 0.0
C681 C 0.98678 0.30256 0.17519 0.0
C682 C 0.03906 0.30545 0.19106 0.0
C683 C 0.04751 0.2922 0.17796 0.0
C684 C 0.00842 0.30279 0.17357 0.0
C685 C 0.03675 0.28629 0.16153 0.0
C686 C 0.97497 0.29386 0.16071 0.0
C687 C 0.95982 0.30276 0.19732 0.0
N688 N 0.01746 0.29117 0.16008 0.0
N689 N 0.97861 0.30723 0.19276 0.0
H690 H 0.21305 0.54631 0.64871 0.0
H691 H 0.18328 0.44874 0.70191 0.0
H692 H 0.18619 0.54137 0.70558 0.0
H693 H 0.21769 0.45072 0.64908 0.0
H694 H 0.17265 0.48231 0.69597 0.0
H695 H 0.2039 0.51212 0.64188 0.0
C696 C 0.20462 0.53821 0.65945 0.0
C697 C 0.20073 0.54628 0.6779 0.0
C698 C 0.1822 0.47535 0.6854 0.0
C699 C 0.19035 0.50758 0.67033 0.0
C700 C 0.18823 0.4562 0.6888 0.0
C701 C 0.20169 0.44733 0.6762 0.0
C702 C 0.1904 0.48591 0.66975 0.0
C703 C 0.20747 0.45732 0.65925 0.0
C704 C 0.19947 0.51874 0.65559 0.0
C705 C 0.1898 0.53539 0.69134 0.0
N706 N 0.20226 0.4764 0.65678 0.0
N707 N 0.18523 0.51649 0.6874 0.0
H708 H 0.04295 0.6854 0.20656 0.0
H709 H 0.94691 0.71563 0.15033 0.0
H710 H 0.04324 0.7179 0.15251 0.0
H711 H 0.94965 0.68874 0.20732 0.0
H712 H 0.98138 0.70663 0.14485 0.0
H713 H 0.00901 0.67601 0.20054 0.0
C714 C 0.03589 0.69019 0.19318 0.0
C715 C 0.0456 0.70269 0.18018 0.0
C716 C 0.97425 0.70217 0.1583 0.0
C717 C 0.00656 0.69282 0.17356 0.0
C718 C 0.95459 0.70721 0.16136 0.0
C719 C 0.94576 0.70321 0.17945 0.0
C720 C 0.98484 0.69307 0.17345 0.0
C721 C 0.95617 0.69237 0.19332 0.0
C722 C 0.01652 0.68489 0.18973 0.0
C723 C 0.03604 0.70836 0.16294 0.0
N724 N 0.97524 0.68791 0.19015 0.0
N725 N 0.01676 0.70384 0.16036 0.0
H726 H 0.80524 0.45116 0.71075 0.0
H727 H 0.77712 0.54699 0.65194 0.0
H728 H 0.77479 0.45003 0.65547 0.0
H729 H 0.79989 0.54492 0.71081 0.0
H730 H 0.78522 0.51211 0.64803 0.0
H731 H 0.81327 0.48551 0.7054 0.0
C732 C 0.80047 0.45818 0.69734 0.0
C733 C 0.78891 0.4481 0.68377 0.0
C734 C 0.78879 0.51944 0.66164 0.0
C735 C 0.79742 0.48746 0.67781 0.0
C736 C 0.78417 0.53927 0.66387 0.0
C737 C 0.78735 0.54852 0.68192 0.0
C738 C 0.79675 0.50909 0.67754 0.0
C739 C 0.7967 0.5381 0.69685 0.0
C740 C 0.80506 0.47776 0.69426 0.0
C741 C 0.78349 0.45755 0.66639 0.0
N742 N 0.80087 0.51889 0.6944 0.0
N743 N 0.78734 0.47698 0.66411 0.0
H744 H 0.94771 0.68046 0.79398 0.0
H745 H 0.04614 0.71482 0.84352 0.0
H746 H 0.95006 0.71812 0.84452 0.0
H747 H 0.04021 0.68644 0.78748 0.0
H748 H 0.01214 0.7056 0.8513 0.0
H749 H 0.98177 0.67123 0.79957 0.0
C750 C 0.95538 0.68642 0.80655 0.0
C751 C 0.94644 0.70035 0.81857 0.0
C752 C 0.0185 0.7009 0.83756 0.0
C753 C 0.98552 0.69066 0.82455 0.0
C754 C 0.03785 0.70611 0.83316 0.0
C755 C 0.0456 0.70174 0.81467 0.0
C756 C 0.00716 0.69117 0.82336 0.0
C757 C 0.03449 0.69043 0.80172 0.0
C758 C 0.9748 0.6812 0.80974 0.0
C759 C 0.95671 0.70748 0.83483 0.0
N760 N 0.01574 0.68575 0.80621 0.0
N761 N 0.97601 0.70301 0.83704 0.0
H762 H 0.80368 0.54123 0.2883 0.0
H763 H 0.81328 0.44501 0.30376 0.0
H764 H 0.77404 0.54621 0.34377 0.0
H765 H 0.761 0.45336 0.33802 0.0
H766 H 0.82244 0.47919 0.30982 0.0
H767 H 0.81147 0.50736 0.29571 0.0
C768 C 0.79929 0.53525 0.30232 0.0
C769 C 0.78799 0.54632 0.31532 0.0
C770 C 0.80908 0.47353 0.31624 0.0
C771 C 0.79675 0.50741 0.32405 0.0
C772 C 0.80404 0.45399 0.31302 0.0
C773 C 0.78632 0.44666 0.32027 0.0
C774 C 0.79585 0.48585 0.32609 0.0
C775 C 0.77476 0.45868 0.33215 0.0
C776 C 0.80393 0.5159 0.30671 0.0
C777 C 0.78272 0.53801 0.33334 0.0
N778 N 0.7795 0.47789 0.33437 0.0
N779 N 0.78664 0.5188 0.33694 0.0
H780 H 0.04718 0.27925 0.84401 0.0
H781 H 0.95257 0.30851 0.78572 0.0
H782 H 0.04569 0.30836 0.78806 0.0
H783 H 0.95139 0.2757 0.83959 0.0
H784 H 0.98596 0.31887 0.79296 0.0
H785 H 0.01254 0.28778 0.84894 0.0
C786 C 0.03972 0.28805 0.83312 0.0
C787 C 0.04894 0.29273 0.8154 0.0
C788 C 0.97839 0.30967 0.80344 0.0
C789 C 0.00968 0.30233 0.82077 0.0
C790 C 0.95935 0.30375 0.79926 0.0
C791 C 0.94961 0.29087 0.81185 0.0
C792 C 0.988 0.30196 0.81992 0.0
C793 C 0.9587 0.28542 0.8294 0.0
C794 C 0.01998 0.29283 0.83588 0.0
C795 C 0.03884 0.30413 0.80173 0.0
N796 N 0.9777 0.29054 0.83269 0.0
N797 N 0.01966 0.30827 0.80456 0.0
H798 H 0.21486 0.44624 0.34367 0.0
H799 H 0.1806 0.5431 0.29154 0.0
H800 H 0.18838 0.45082 0.28659 0.0
H801 H 0.21578 0.54222 0.34387 0.0
H802 H 0.17155 0.509 0.29728 0.0
H803 H 0.20449 0.48004 0.35074 0.0
C804 C 0.20632 0.45417 0.33291 0.0
C805 C 0.20282 0.44611 0.31437 0.0
C806 C 0.18087 0.51632 0.30783 0.0
C807 C 0.19096 0.48434 0.32226 0.0
C808 C 0.18593 0.53579 0.30458 0.0
C809 C 0.19919 0.54516 0.31707 0.0
C810 C 0.18984 0.50598 0.3232 0.0
C811 C 0.20563 0.53528 0.33384 0.0
C812 C 0.20046 0.47341 0.33691 0.0
C813 C 0.19172 0.45679 0.3009 0.0
N814 N 0.20138 0.51593 0.33614 0.0
N815 N 0.1864 0.47544 0.30501 0.0
H816 H 0.20398 0.94975 0.31016 0.0
H817 H 0.14914 0.0474 0.2805 0.0
H818 H 0.14913 0.95052 0.27895 0.0
H819 H 0.20845 0.04297 0.30188 0.0
H820 H 0.14371 0.01296 0.28957 0.0
H821 H 0.19964 0.98426 0.31825 0.0
C822 C 0.19071 0.95714 0.30552 0.0
C823 C 0.17704 0.94756 0.29363 0.0
C824 C 0.15776 0.01969 0.29261 0.0
C825 C 0.17242 0.98715 0.30193 0.0
C826 C 0.16088 0.03927 0.28742 0.0
C827 C 0.17944 0.04776 0.28998 0.0
C828 C 0.17329 0.00877 0.30057 0.0
C829 C 0.19408 0.03678 0.29919 0.0
C830 C 0.18828 0.97684 0.31001 0.0
C831 C 0.16003 0.95758 0.28806 0.0
N832 N 0.19076 0.01781 0.30396 0.0
N833 N 0.15843 0.9771 0.29178 0.0
H834 H 0.54153 0.70384 0.80549 0.0
H835 H 0.44461 0.64783 0.77739 0.0
H836 H 0.54074 0.65051 0.7718 0.0
H837 H 0.44828 0.70461 0.80475 0.0
H838 H 0.47939 0.64237 0.78509 0.0
H839 H 0.50796 0.69748 0.81591 0.0
C840 C 0.53431 0.69054 0.80065 0.0
C841 C 0.54354 0.67786 0.78753 0.0
C842 C 0.47242 0.65579 0.78986 0.0
C843 C 0.50496 0.6709 0.79854 0.0
C844 C 0.45263 0.65888 0.7855 0.0
C845 C 0.44393 0.67692 0.78998 0.0
C846 C 0.48328 0.67083 0.79884 0.0
C847 C 0.45471 0.69073 0.80059 0.0
C848 C 0.51516 0.6869 0.80654 0.0
C849 C 0.53385 0.6607 0.78181 0.0
N850 N 0.4739 0.6875 0.80443 0.0
N851 N 0.51477 0.65796 0.78691 0.0
H852 H 0.78879 0.04325 0.30938 0.0
H853 H 0.84094 0.94408 0.27963 0.0
H854 H 0.84275 0.04103 0.2767 0.0
H855 H 0.78222 0.94989 0.30223 0.0
H856 H 0.84723 0.97852 0.28813 0.0
H857 H 0.79243 0.00866 0.3174 0.0
C858 C 0.80163 0.03547 0.30423 0.0
C859 C 0.81527 0.04469 0.29203 0.0
C860 C 0.83314 0.97209 0.2916 0.0
C861 C 0.81918 0.00504 0.30045 0.0
C862 C 0.82955 0.95249 0.28679 0.0
C863 C 0.81088 0.94443 0.2898 0.0
C864 C 0.81796 0.98343 0.29963 0.0
C865 C 0.79666 0.95577 0.29922 0.0
C866 C 0.80371 0.01574 0.30876 0.0
C867 C 0.83183 0.03422 0.28598 0.0
N868 N 0.80043 0.97475 0.3036 0.0
N869 N 0.83309 0.01469 0.28981 0.0
H870 H 0.54361 0.33905 0.77602 0.0
H871 H 0.44616 0.28217 0.80228 0.0
H872 H 0.53997 0.28048 0.79938 0.0
H873 H 0.44649 0.33895 0.77469 0.0
H874 H 0.48055 0.28639 0.81078 0.0
H875 H 0.50878 0.3439 0.78406 0.0
C876 C 0.53556 0.32741 0.78321 0.0
C877 C 0.54432 0.30914 0.78653 0.0
C878 C 0.47313 0.29812 0.80311 0.0
C879 C 0.50496 0.31455 0.79585 0.0
C880 C 0.45351 0.29567 0.79827 0.0
C881 C 0.4438 0.31003 0.78739 0.0
C882 C 0.48328 0.31472 0.79634 0.0
C883 C 0.4537 0.32745 0.78288 0.0
C884 C 0.51576 0.33016 0.78779 0.0
C885 C 0.5335 0.29458 0.79606 0.0
N886 N 0.47317 0.32912 0.78691 0.0
N887 N 0.51434 0.29752 0.80017 0.0
H888 H 0.15195 0.04482 0.71516 0.0
H889 H 0.20868 0.94784 0.68501 0.0
H890 H 0.21225 0.04136 0.69649 0.0
H891 H 0.15312 0.94718 0.71498 0.0
H892 H 0.20475 0.9828 0.67889 0.0
H893 H 0.14763 0.01015 0.70634 0.0
C894 C 0.16418 0.03683 0.70898 0.0
C895 C 0.18262 0.04574 0.70698 0.0
C896 C 0.19319 0.975 0.68648 0.0
C897 C 0.17772 0.00649 0.69662 0.0
C898 C 0.1954 0.95505 0.68986 0.0
C899 C 0.18138 0.94487 0.70081 0.0
C900 C 0.17712 0.98491 0.69464 0.0
C901 C 0.16431 0.95469 0.7066 0.0
C902 C 0.16169 0.01712 0.70391 0.0
C903 C 0.19792 0.0349 0.6987 0.0
N904 N 0.16287 0.97439 0.70391 0.0
N905 N 0.19516 0.01582 0.69398 0.0
H906 H 0.44773 0.65724 0.21094 0.0
H907 H 0.54267 0.72524 0.20441 0.0
H908 H 0.44652 0.7197 0.20124 0.0
H909 H 0.54569 0.6626 0.21233 0.0
H910 H 0.50746 0.72257 0.19933 0.0
H911 H 0.48351 0.65788 0.20755 0.0
C912 C 0.45497 0.67103 0.20787 0.0
C913 C 0.44422 0.6885 0.20671 0.0
C914 C 0.51578 0.70935 0.20207 0.0
C915 C 0.48497 0.68936 0.20289 0.0
C916 C 0.5359 0.71089 0.20502 0.0
C917 C 0.54704 0.69415 0.20909 0.0
C918 C 0.50663 0.69096 0.20342 0.0
C919 C 0.53757 0.67589 0.20939 0.0
C920 C 0.47537 0.6714 0.20596 0.0
C921 C 0.45427 0.70594 0.20258 0.0
N922 N 0.51783 0.67479 0.20684 0.0
N923 N 0.47407 0.70594 0.201 0.0
H924 H 0.83899 0.04403 0.71501 0.0
H925 H 0.78016 0.94649 0.69272 0.0
H926 H 0.77896 0.04069 0.69547 0.0
H927 H 0.8388 0.94663 0.71615 0.0
H928 H 0.78356 0.98106 0.68466 0.0
H929 H 0.84288 0.00901 0.70747 0.0
C930 C 0.82677 0.03599 0.70883 0.0
C931 C 0.80846 0.045 0.70636 0.0
C932 C 0.79586 0.97356 0.6913 0.0
C933 C 0.8128 0.00534 0.6976 0.0
C934 C 0.7939 0.95383 0.69586 0.0
C935 C 0.80907 0.94399 0.70545 0.0
C936 C 0.81288 0.98367 0.69701 0.0
C937 C 0.82672 0.95392 0.70892 0.0
C938 C 0.82899 0.01607 0.70452 0.0
C939 C 0.79316 0.03413 0.6981 0.0
N940 N 0.82799 0.97346 0.70516 0.0
N941 N 0.79561 0.01485 0.69422 0.0
H942 H 0.54525 0.34661 0.21375 0.0
H943 H 0.44918 0.29211 0.18216 0.0
H944 H 0.5422 0.29119 0.18371 0.0
H945 H 0.44937 0.34602 0.21491 0.0
H946 H 0.48291 0.29834 0.17219 0.0
H947 H 0.51099 0.35297 0.20458 0.0
C948 C 0.53753 0.33611 0.20467 0.0
C949 C 0.54618 0.31814 0.19987 0.0
C950 C 0.47554 0.3091 0.18122 0.0
C951 C 0.50735 0.32515 0.18947 0.0
C952 C 0.45628 0.30553 0.18683 0.0
C953 C 0.44682 0.3184 0.19961 0.0
C954 C 0.48564 0.3252 0.18919 0.0
C955 C 0.4564 0.33569 0.20516 0.0
C956 C 0.51801 0.33969 0.1995 0.0
C957 C 0.53577 0.30501 0.18809 0.0
N958 N 0.47559 0.33833 0.2004 0.0
N959 N 0.51681 0.30864 0.18354 0.0
H960 H 0.30909 0.20291 0.04509 0.0
H961 H 0.27539 0.14917 0.94914 0.0
H962 H 0.27413 0.15034 0.04514 0.0
H963 H 0.30659 0.20399 0.95204 0.0
H964 H 0.2843 0.14275 0.98345 0.0
H965 H 0.31845 0.19642 0.01127 0.0
C966 C 0.30377 0.18973 0.038 0.0
C967 C 0.2906 0.17731 0.04758 0.0
C968 C 0.2897 0.15589 0.97638 0.0
C969 C 0.30036 0.17024 0.00868 0.0
C970 C 0.28469 0.15949 0.95683 0.0
C971 C 0.28996 0.17731 0.94811 0.0
C972 C 0.30003 0.17025 0.98699 0.0
C973 C 0.30195 0.19026 0.9585 0.0
C974 C 0.30904 0.18601 0.0187 0.0
C975 C 0.28421 0.16032 0.03802 0.0
N976 N 0.30635 0.18661 0.97748 0.0
N977 N 0.28869 0.15754 0.0188 0.0
H978 H 0.29973 0.77996 0.04757 0.0
H979 H 0.27927 0.83826 0.9488 0.0
H980 H 0.27799 0.83927 0.04633 0.0
H981 H 0.29296 0.77669 0.95283 0.0
H982 H 0.28655 0.84173 0.98385 0.0
H983 H 0.3057 0.7817 0.01248 0.0
C984 C 0.29636 0.79342 0.03988 0.0
C985 C 0.28789 0.80931 0.04966 0.0
C986 C 0.28822 0.82754 0.97695 0.0
C987 C 0.29435 0.81133 0.00948 0.0
C988 C 0.28408 0.82556 0.957 0.0
C989 C 0.28506 0.80706 0.94813 0.0
C990 C 0.29349 0.81091 0.98787 0.0
C991 C 0.29155 0.79112 0.95926 0.0
C992 C 0.2998 0.79444 0.01986 0.0
C993 C 0.28427 0.82659 0.03917 0.0
N994 N 0.29534 0.79338 0.97858 0.0
N995 N 0.28715 0.82703 0.01948 0.0
H996 H 0.6453 0.77573 0.54459 0.0
H997 H 0.69891 0.80987 0.44874 0.0
H998 H 0.69946 0.80809 0.54143 0.0
H999 H 0.65032 0.76958 0.44955 0.0
H1000 H 0.69046 0.82038 0.48184 0.0
H1001 H 0.63883 0.78394 0.51014 0.0
C1002 C 0.65545 0.78513 0.53681 0.0
C1003 C 0.67317 0.79085 0.54549 0.0
C1004 C 0.68129 0.80959 0.47467 0.0
C1005 C 0.666 0.8002 0.50648 0.0
C1006 C 0.6861 0.80367 0.45579 0.0
C1007 C 0.67543 0.78871 0.44677 0.0
C1008 C 0.66625 0.79981 0.48481 0.0
C1009 C 0.65892 0.7811 0.45627 0.0
C1010 C 0.65182 0.78975 0.51719 0.0
C1011 C 0.68586 0.80303 0.53498 0.0
N1012 N 0.65512 0.78634 0.4751 0.0
N1013 N 0.68218 0.80706 0.51593 0.0
H1014 H 0.71867 0.1554 0.04696 0.0
H1015 H 0.69174 0.21494 0.9507 0.0
H1016 H 0.69747 0.21486 0.04474 0.0
H1017 H 0.7218 0.15947 0.94926 0.0
H1018 H 0.68464 0.20996 0.98526 0.0
H1019 H 0.71172 0.15209 0.01173 0.0
C1020 C 0.71225 0.1676 0.03911 0.0
C1021 C 0.70909 0.1856 0.0485 0.0
C1022 C 0.69261 0.19871 0.97742 0.0
C1023 C 0.70095 0.18188 0.00869 0.0
C1024 C 0.69666 0.20158 0.95772 0.0
C1025 C 0.70777 0.18782 0.94743 0.0
C1026 C 0.70029 0.18224 0.98706 0.0
C1027 C 0.71341 0.17052 0.95692 0.0
C1028 C 0.7083 0.16571 0.01909 0.0
C1029 C 0.70059 0.2009 0.03788 0.0
N1030 N 0.71003 0.1684 0.97645 0.0
N1031 N 0.69698 0.19874 0.01853 0.0
H1032 H 0.28057 0.18835 0.54242 0.0
H1033 H 0.34254 0.21486 0.44806 0.0
H1034 H 0.3368 0.21699 0.54498 0.0
H1035 H 0.2832 0.19303 0.44862 0.0
H1036 H 0.34532 0.20692 0.48307 0.0
H1037 H 0.28659 0.18004 0.50824 0.0
C1038 C 0.29442 0.19245 0.53581 0.0
C1039 C 0.3081 0.20357 0.54623 0.0
C1040 C 0.33184 0.20354 0.4754 0.0
C1041 C 0.31474 0.19502 0.50699 0.0
C1042 C 0.33025 0.20808 0.45548 0.0
C1043 C 0.31243 0.20507 0.44569 0.0
C1044 C 0.31553 0.19582 0.48535 0.0
C1045 C 0.29702 0.19607 0.4558 0.0
C1046 C 0.29785 0.18781 0.5163 0.0
C1047 C 0.32589 0.20846 0.53723 0.0
N1048 N 0.29886 0.19196 0.4751 0.0
N1049 N 0.32852 0.20461 0.51786 0.0
H1050 H 0.71717 0.84332 0.04115 0.0
H1051 H 0.68265 0.78543 0.94761 0.0
H1052 H 0.6912 0.78577 0.04001 0.0
H1053 H 0.71635 0.83876 0.94511 0.0
H1054 H 0.67425 0.79258 0.98156 0.0
H1055 H 0.70655 0.84831 0.00704 0.0
C1056 C 0.70874 0.83201 0.03387 0.0
C1057 C 0.70544 0.81392 0.04298 0.0
C1058 C 0.68315 0.803 0.97354 0.0
C1059 C 0.69326 0.81946 0.00449 0.0
C1060 C 0.68787 0.79891 0.95418 0.0
C1061 C 0.7005 0.81133 0.94391 0.0
C1062 C 0.69186 0.81916 0.98288 0.0
C1063 C 0.70673 0.82875 0.9528 0.0
C1064 C 0.70272 0.83483 0.01447 0.0
C1065 C 0.69441 0.79973 0.03318 0.0
N1066 N 0.70284 0.8319 0.97208 0.0
N1067 N 0.68892 0.8027 0.01438 0.0
H1068 H 0.65569 0.21665 0.54347 0.0
H1069 H 0.71272 0.19225 0.44579 0.0
H1070 H 0.7137 0.1919 0.54022 0.0
H1071 H 0.65417 0.21595 0.44619 0.0
H1072 H 0.70968 0.18479 0.48046 0.0
H1073 H 0.65109 0.20938 0.50849 0.0
C1074 C 0.66721 0.20923 0.53548 0.0
C1075 C 0.68529 0.20532 0.54439 0.0
C1076 C 0.69736 0.19147 0.47303 0.0
C1077 C 0.68025 0.19707 0.50481 0.0
C1078 C 0.69917 0.19581 0.45325 0.0
C1079 C 0.68387 0.20518 0.44337 0.0
C1080 C 0.68034 0.19707 0.48316 0.0
C1081 C 0.6664 0.20899 0.45348 0.0
C1082 C 0.66463 0.20514 0.51557 0.0
C1083 C 0.69974 0.19561 0.53363 0.0
N1084 N 0.66525 0.20532 0.47303 0.0
N1085 N 0.69701 0.19205 0.51435 0.0
H1086 H 0.28996 0.80796 0.44706 0.0
H1087 H 0.34374 0.77304 0.54334 0.0
H1088 H 0.3408 0.77065 0.44691 0.0
H1089 H 0.28635 0.79905 0.53965 0.0
H1090 H 0.34983 0.78261 0.5091 0.0
H1091 H 0.29641 0.81624 0.4812 0.0
C1092 C 0.30284 0.80198 0.45416 0.0
C1093 C 0.31473 0.78844 0.44447 0.0
C1094 C 0.33614 0.78669 0.516 0.0
C1095 C 0.32167 0.79698 0.48365 0.0
C1096 C 0.3327 0.78128 0.53548 0.0
C1097 C 0.31436 0.78492 0.54397 0.0
C1098 C 0.32117 0.79593 0.50529 0.0
C1099 C 0.30051 0.79563 0.53337 0.0
C1100 C 0.30649 0.80661 0.47364 0.0
C1101 C 0.33128 0.78109 0.4541 0.0
N1102 N 0.30411 0.80057 0.51451 0.0
N1103 N 0.33399 0.78502 0.47345 0.0
H1104 H 0.18384 0.38662 0.23124 0.0
H1105 H 0.11252 0.30317 0.26082 0.0
H1106 H 0.16929 0.37315 0.29117 0.0
H1107 H 0.11866 0.32387 0.20148 0.0
H1108 H 0.12675 0.33369 0.27266 0.0
H1109 H 0.15411 0.3699 0.22055 0.0
C1110 C 0.17406 0.38058 0.24219 0.0
C1111 C 0.17923 0.38079 0.26206 0.0
C1112 C 0.12462 0.33182 0.25706 0.0
C1113 C 0.14549 0.36114 0.24993 0.0
C1114 C 0.11655 0.31434 0.25029 0.0
C1115 C 0.11494 0.3108 0.23012 0.0
C1116 C 0.13159 0.34567 0.24355 0.0
C1117 C 0.11995 0.3259 0.21714 0.0
C1118 C 0.15708 0.37101 0.23609 0.0
C1119 C 0.16594 0.37307 0.27568 0.0
N1120 N 0.12854 0.34251 0.22406 0.0
N1121 N 0.14993 0.36304 0.26932 0.0
H1122 H 0.11249 0.66474 0.79241 0.0
H1123 H 0.18864 0.60977 0.76313 0.0
H1124 H 0.10978 0.68039 0.73128 0.0
H1125 H 0.16649 0.61391 0.70415 0.0
H1126 H 0.15819 0.62323 0.77533 0.0
H1127 H 0.12846 0.634 0.78341 0.0
C1128 C 0.11489 0.66153 0.77707 0.0
C1129 C 0.11058 0.67548 0.76262 0.0
C1130 C 0.15948 0.62062 0.75977 0.0
C1131 C 0.12963 0.64086 0.75226 0.0
C1132 C 0.17708 0.61307 0.75276 0.0
C1133 C 0.1803 0.61129 0.73256 0.0
C1134 C 0.14505 0.62674 0.74643 0.0
C1135 C 0.16473 0.61538 0.71983 0.0
C1136 C 0.12432 0.64408 0.77193 0.0
C1137 C 0.11357 0.67035 0.74296 0.0
N1138 N 0.14796 0.62345 0.72695 0.0
N1139 N 0.1233 0.65367 0.73839 0.0
H1140 H 0.82523 0.62522 0.29922 0.0
H1141 H 0.87786 0.6694 0.206 0.0
H1142 H 0.81294 0.60906 0.23948 0.0
H1143 H 0.88128 0.69318 0.26442 0.0
H1144 H 0.86422 0.6391 0.21962 0.0
H1145 H 0.85554 0.64119 0.28823 0.0
C1146 C 0.82931 0.6244 0.28392 0.0
C1147 C 0.81645 0.61632 0.27013 0.0
C1148 C 0.86841 0.65079 0.22949 0.0
C1149 C 0.85066 0.6347 0.25744 0.0
C1150 C 0.87623 0.66806 0.22172 0.0
C1151 C 0.88006 0.68403 0.23405 0.0
C1152 C 0.86442 0.6496 0.24968 0.0
C1153 C 0.87791 0.68142 0.25433 0.0
C1154 C 0.84651 0.63362 0.27761 0.0
C1155 C 0.82234 0.61559 0.25047 0.0
N1156 N 0.86988 0.6647 0.26148 0.0
N1157 N 0.83882 0.62504 0.24463 0.0
H1158 H 0.89722 0.31522 0.73192 0.0
H1159 H 0.81857 0.3936 0.75613 0.0
H1160 H 0.87866 0.33124 0.79005 0.0
H1161 H 0.83296 0.37352 0.69811 0.0
H1162 H 0.85013 0.38165 0.76789 0.0
H1163 H 0.88445 0.34618 0.71952 0.0
C1164 C 0.89098 0.3256 0.74218 0.0
C1165 C 0.88838 0.32049 0.76191 0.0
C1166 C 0.84672 0.38037 0.75245 0.0
C1167 C 0.87325 0.35562 0.74776 0.0
C1168 C 0.82874 0.38725 0.74573 0.0
C1169 C 0.82306 0.38401 0.72627 0.0
C1170 C 0.8588 0.3697 0.73971 0.0
C1171 C 0.83675 0.37602 0.71329 0.0
C1172 C 0.88366 0.34326 0.73509 0.0
C1173 C 0.88061 0.33452 0.77466 0.0
N1174 N 0.85381 0.36856 0.72038 0.0
N1175 N 0.87275 0.35125 0.76726 0.0
H1176 H 0.2581 0.17319 0.40032 0.0
H1177 H 0.19669 0.13404 0.33649 0.0
H1178 H 0.29804 0.1569 0.35438 0.0
H1179 H 0.24234 0.09452 0.31844 0.0
H1180 H 0.21623 0.14303 0.36503 0.0
H1181 H 0.23753 0.14488 0.3922 0.0
C1182 C 0.26304 0.16302 0.38919 0.0
C1183 C 0.27961 0.16734 0.37783 0.0
C1184 C 0.22161 0.13156 0.35551 0.0
C1185 C 0.25587 0.13571 0.36792 0.0
C1186 C 0.21034 0.1264 0.33921 0.0
C1187 C 0.21807 0.11367 0.32518 0.0
C1188 C 0.24087 0.12429 0.35727 0.0
C1189 C 0.23601 0.10449 0.32903 0.0
C1190 C 0.25115 0.14708 0.38437 0.0
C1191 C 0.28533 0.154 0.36342 0.0
N1192 N 0.24715 0.11048 0.34436 0.0
N1193 N 0.27322 0.13895 0.35856 0.0
H1194 H 0.33499 0.79694 0.87193 0.0
H1195 H 0.37036 0.69675 0.83349 0.0
H1196 H 0.31496 0.74097 0.89308 0.0
H1197 H 0.3903 0.75295 0.81276 0.0
H1198 H 0.36075 0.71209 0.86448 0.0
H1199 H 0.36532 0.78145 0.86074 0.0
C1200 C 0.33741 0.78157 0.87504 0.0
C1201 C 0.32239 0.77004 0.88288 0.0
C1202 C 0.36783 0.72098 0.85341 0.0
C1203 C 0.35641 0.75207 0.86947 0.0
C1204 C 0.37338 0.71216 0.83577 0.0
C1205 C 0.38046 0.7238 0.82046 0.0
C1206 C 0.36918 0.74151 0.85542 0.0
C1207 C 0.38427 0.74365 0.82412 0.0
C1208 C 0.35463 0.77263 0.86848 0.0
C1209 C 0.32615 0.7502 0.88661 0.0
N1210 N 0.37814 0.752 0.84104 0.0
N1211 N 0.34255 0.74169 0.87936 0.0
H1212 H 0.76839 0.80378 0.39423 0.0
H1213 H 0.73934 0.88176 0.31718 0.0
H1214 H 0.70921 0.82366 0.38448 0.0
H1215 H 0.79905 0.86593 0.33009 0.0
H1216 H 0.72921 0.86881 0.34885 0.0
H1217 H 0.78069 0.83367 0.37904 0.0
C1218 C 0.75797 0.8147 0.38933 0.0
C1219 C 0.73775 0.81093 0.38995 0.0
C1220 C 0.74462 0.86859 0.34509 0.0
C1221 C 0.75172 0.84498 0.37216 0.0
C1222 C 0.7504 0.87601 0.32701 0.0
C1223 C 0.76996 0.87446 0.32096 0.0
C1224 C 0.75843 0.85895 0.3569 0.0
C1225 C 0.78378 0.86716 0.33421 0.0
C1226 C 0.76501 0.83179 0.38065 0.0
C1227 C 0.72492 0.82577 0.3839 0.0
N1228 N 0.77766 0.85913 0.35139 0.0
N1229 N 0.73213 0.84191 0.37472 0.0
H1230 H 0.65933 0.20203 0.87883 0.0
H1231 H 0.61327 0.29493 0.83373 0.0
H1232 H 0.67532 0.26145 0.89298 0.0
H1233 H 0.59927 0.23552 0.81758 0.0
H1234 H 0.62466 0.28314 0.86561 0.0
H1235 H 0.62726 0.21369 0.86781 0.0
C1236 C 0.65578 0.21742 0.88036 0.0
C1237 C 0.67013 0.23094 0.88607 0.0
C1238 C 0.61847 0.27272 0.85536 0.0
C1239 C 0.63391 0.24444 0.87305 0.0
C1240 C 0.61186 0.27951 0.83721 0.0
C1241 C 0.60609 0.26605 0.82286 0.0
C1242 C 0.61952 0.25239 0.85884 0.0
C1243 C 0.60431 0.24626 0.82812 0.0
C1244 C 0.63752 0.22413 0.87395 0.0
C1245 C 0.66478 0.25067 0.888 0.0
N1246 N 0.61152 0.23993 0.84549 0.0
N1247 N 0.64729 0.25694 0.88098 0.0
H1248 H 0.29204 0.82235 0.61449 0.0
H1249 H 0.19878 0.87001 0.66388 0.0
H1250 H 0.23232 0.80411 0.60461 0.0
H1251 H 0.25855 0.87787 0.68285 0.0
H1252 H 0.21091 0.85605 0.63305 0.0
H1253 H 0.27987 0.85254 0.62956 0.0
C1254 C 0.2764 0.82501 0.61486 0.0
C1255 C 0.26313 0.8105 0.6089 0.0
C1256 C 0.22136 0.86134 0.64377 0.0
C1257 C 0.24915 0.8447 0.62628 0.0
C1258 C 0.21443 0.86935 0.6613 0.0
C1259 C 0.22771 0.8745 0.67607 0.0
C1260 C 0.24163 0.85859 0.64114 0.0
C1261 C 0.24784 0.87352 0.67199 0.0
C1262 C 0.26944 0.84218 0.62357 0.0
C1263 C 0.24301 0.81474 0.60958 0.0
N1264 N 0.25419 0.86535 0.65506 0.0
N1265 N 0.23661 0.83126 0.61856 0.0
H1266 H 0.68751 0.73161 0.09572 0.0
H1267 H 0.60336 0.75209 0.16804 0.0
H1268 H 0.66585 0.78905 0.11038 0.0
H1269 H 0.62555 0.69479 0.15403 0.0
H1270 H 0.61592 0.76439 0.13694 0.0
H1271 H 0.65638 0.71744 0.10607 0.0
C1272 C 0.67595 0.74129 0.10068 0.0
C1273 C 0.67942 0.76143 0.10287 0.0
C1274 C 0.61744 0.74894 0.14023 0.0
C1275 C 0.64398 0.74528 0.11526 0.0
C1276 C 0.61008 0.74189 0.15791 0.0
C1277 C 0.61379 0.72253 0.16363 0.0
C1278 C 0.62912 0.73665 0.12861 0.0
C1279 C 0.62256 0.70987 0.15014 0.0
C1280 C 0.65815 0.7332 0.10657 0.0
C1281 C 0.66387 0.77338 0.10886 0.0
N1282 N 0.63053 0.7173 0.13347 0.0
N1283 N 0.64699 0.76506 0.11543 0.0
H1284 H 0.79972 0.11886 0.65718 0.0
H1285 H 0.70401 0.16039 0.61334 0.0
H1286 H 0.74142 0.10039 0.67284 0.0
H1287 H 0.76236 0.17983 0.59892 0.0
H1288 H 0.71757 0.12896 0.62402 0.0
H1289 H 0.78714 0.13044 0.62567 0.0
C1290 C 0.78444 0.11644 0.6536 0.0
C1291 C 0.77142 0.10928 0.66772 0.0
C1292 C 0.72738 0.13985 0.61793 0.0
C1293 C 0.75679 0.12304 0.63226 0.0
C1294 C 0.71958 0.15776 0.61174 0.0
C1295 C 0.73221 0.17288 0.606 0.0
C1296 C 0.74788 0.13736 0.61856 0.0
C1297 C 0.75223 0.16869 0.60396 0.0
C1298 C 0.77717 0.1232 0.63569 0.0
C1299 C 0.75178 0.10638 0.66242 0.0
N1300 N 0.75953 0.15151 0.61072 0.0
N1301 N 0.74492 0.11377 0.64532 0.0
H1302 H 0.32646 0.20158 0.11797 0.0
H1303 H 0.37627 0.29433 0.16707 0.0
H1304 H 0.30942 0.26154 0.10775 0.0
H1305 H 0.38142 0.23479 0.18761 0.0
H1306 H 0.36186 0.28203 0.13654 0.0
H1307 H 0.35645 0.21331 0.13386 0.0
C1308 C 0.32935 0.21718 0.11846 0.0
C1309 C 0.31521 0.23065 0.11211 0.0
C1310 C 0.36661 0.27165 0.14755 0.0
C1311 C 0.3492 0.24412 0.13039 0.0
C1312 C 0.37487 0.27866 0.16494 0.0
C1313 C 0.37945 0.26557 0.18007 0.0
C1314 C 0.36306 0.25146 0.14538 0.0
C1315 C 0.37753 0.24541 0.1765 0.0
C1316 C 0.3464 0.22388 0.12764 0.0
C1317 C 0.31974 0.2507 0.11299 0.0
N1318 N 0.36917 0.23899 0.15966 0.0
N1319 N 0.33615 0.25685 0.12237 0.0
H1320 H 0.83419 0.62576 0.69277 0.0
H1321 H 0.89977 0.68016 0.73929 0.0
H1322 H 0.81762 0.60227 0.74886 0.0
H1323 H 0.86957 0.66168 0.79146 0.0
H1324 H 0.88919 0.65036 0.7228 0.0
H1325 H 0.86492 0.63701 0.7068 0.0
C1326 C 0.83752 0.62217 0.70786 0.0
C1327 C 0.82331 0.61358 0.71985 0.0
C1328 C 0.88489 0.65256 0.73786 0.0
C1329 C 0.8582 0.62683 0.73644 0.0
C1330 C 0.89122 0.66949 0.74738 0.0
C1331 C 0.88501 0.67351 0.76652 0.0
C1332 C 0.87157 0.64006 0.74738 0.0
C1333 C 0.87438 0.65919 0.77657 0.0
C1334 C 0.85511 0.62874 0.71607 0.0
C1335 C 0.82818 0.60927 0.7393 0.0
N1336 N 0.8675 0.64332 0.76668 0.0
N1337 N 0.84499 0.61638 0.74713 0.0
H1338 H 0.88345 0.32971 0.20607 0.0
H1339 H 0.81031 0.39148 0.23068 0.0
H1340 H 0.87935 0.31226 0.26665 0.0
H1341 H 0.82561 0.38172 0.29113 0.0
H1342 H 0.84055 0.37586 0.22069 0.0
H1343 H 0.86891 0.36126 0.21461 0.0
C1344 C 0.87977 0.33262 0.22122 0.0
C1345 C 0.88187 0.31803 0.23553 0.0
C1346 C 0.83788 0.37768 0.23617 0.0
C1347 C 0.86448 0.35377 0.24533 0.0
C1348 C 0.82042 0.38659 0.24189 0.0
C1349 C 0.81518 0.38737 0.26174 0.0
C1350 C 0.85007 0.36922 0.25044 0.0
C1351 C 0.82893 0.38114 0.27565 0.0
C1352 C 0.87119 0.35059 0.22608 0.0
C1353 C 0.87732 0.32281 0.25499 0.0
N1354 N 0.84549 0.37179 0.26971 0.0
N1355 N 0.86849 0.34008 0.25923 0.0
H1356 H 0.12106 0.32719 0.79292 0.0
H1357 H 0.16773 0.37287 0.6975 0.0
H1358 H 0.11222 0.30591 0.73412 0.0
H1359 H 0.18481 0.38693 0.75663 0.0
H1360 H 0.13771 0.35773 0.71023 0.0
H1361 H 0.13434 0.35773 0.77938 0.0
C1362 C 0.1214 0.32917 0.77719 0.0
C1363 C 0.11621 0.31383 0.76459 0.0
C1364 C 0.14777 0.36463 0.72037 0.0
C1365 C 0.13138 0.34844 0.74906 0.0
C1366 C 0.16483 0.37335 0.71309 0.0
C1367 C 0.17894 0.38054 0.72613 0.0
C1368 C 0.14502 0.36314 0.74076 0.0
C1369 C 0.17447 0.38098 0.74617 0.0
C1370 C 0.12901 0.34656 0.76945 0.0
C1371 C 0.1167 0.3172 0.74433 0.0
N1372 N 0.15809 0.37199 0.75293 0.0
N1373 N 0.12455 0.33398 0.73718 0.0
H1374 H 0.18752 0.60911 0.23233 0.0
H1375 H 0.10473 0.68101 0.2623 0.0
H1376 H 0.16749 0.61606 0.2918 0.0
H1377 H 0.11842 0.66686 0.20234 0.0
H1378 H 0.12106 0.65106 0.27284 0.0
H1379 H 0.15698 0.62342 0.22064 0.0
C1380 C 0.1765 0.61335 0.24293 0.0
C1381 C 0.18024 0.61194 0.26308 0.0
C1382 C 0.12008 0.65417 0.25732 0.0
C1383 C 0.14536 0.62868 0.24982 0.0
C1384 C 0.11071 0.67126 0.2513 0.0
C1385 C 0.1107 0.67662 0.23148 0.0
C1386 C 0.12996 0.64265 0.24345 0.0
C1387 C 0.11835 0.66338 0.2178 0.0
C1388 C 0.15901 0.62147 0.23624 0.0
C1389 C 0.16531 0.6172 0.27615 0.0
N1390 N 0.1282 0.64725 0.22409 0.0
N1391 N 0.1487 0.62583 0.2693 0.0
H1392 H 0.73211 0.88288 0.68865 0.0
H1393 H 0.7529 0.81265 0.60201 0.0
H1394 H 0.78971 0.87161 0.66536 0.0
H1395 H 0.69507 0.82642 0.62322 0.0
H1396 H 0.76542 0.84248 0.61716 0.0
H1397 H 0.71767 0.87144 0.65809 0.0
C1398 C 0.74173 0.87843 0.67684 0.0
C1399 C 0.76208 0.87762 0.67965 0.0
C1400 C 0.74988 0.83936 0.61809 0.0
C1401 C 0.74567 0.86399 0.64485 0.0
C1402 C 0.74273 0.82234 0.60939 0.0
C1403 C 0.72306 0.81692 0.61185 0.0
C1404 C 0.73735 0.85067 0.62981 0.0
C1405 C 0.7104 0.83001 0.62124 0.0
C1406 C 0.73349 0.8719 0.65938 0.0
C1407 C 0.77392 0.87216 0.66384 0.0
N1408 N 0.71789 0.84605 0.63041 0.0
N1409 N 0.76551 0.86499 0.64726 0.0
H1410 H 0.61694 0.29382 0.16205 0.0
H1411 H 0.65803 0.19587 0.12194 0.0
H1412 H 0.60134 0.2362 0.18273 0.0
H1413 H 0.67548 0.25321 0.10221 0.0
H1414 H 0.62713 0.20972 0.1337 0.0
H1415 H 0.62782 0.27925 0.1311 0.0
C1416 C 0.61524 0.27819 0.15983 0.0
C1417 C 0.609 0.26606 0.17514 0.0
C1418 C 0.63739 0.2192 0.12615 0.0
C1419 C 0.62156 0.24929 0.14011 0.0
C1420 C 0.65493 0.2112 0.11925 0.0
C1421 C 0.66942 0.22359 0.11169 0.0
C1422 C 0.63472 0.23968 0.12575 0.0
C1423 C 0.66475 0.24333 0.10847 0.0
C1424 C 0.62148 0.26984 0.14219 0.0
C1425 C 0.60679 0.24596 0.17147 0.0
N1426 N 0.64804 0.25092 0.11605 0.0
N1427 N 0.61349 0.23813 0.15451 0.0
H1428 H 0.22067 0.19307 0.60419 0.0
H1429 H 0.24275 0.1016 0.66704 0.0
H1430 H 0.27786 0.16703 0.61062 0.0
H1431 H 0.18548 0.12703 0.65999 0.0
H1432 H 0.25311 0.11687 0.63645 0.0
H1433 H 0.20572 0.16223 0.61421 0.0
C1434 C 0.23008 0.1807 0.60738 0.0
C1435 C 0.25055 0.18278 0.60727 0.0
C1436 C 0.23805 0.11858 0.64113 0.0
C1437 C 0.23353 0.14751 0.61911 0.0
C1438 C 0.23208 0.10967 0.65849 0.0
C1439 C 0.21339 0.11344 0.66611 0.0
C1440 C 0.22538 0.1318 0.63177 0.0
C1441 C 0.20009 0.12395 0.65462 0.0
C1442 C 0.22153 0.16305 0.61303 0.0
C1443 C 0.26202 0.16617 0.61095 0.0
N1444 N 0.20654 0.13335 0.63829 0.0
N1445 N 0.25336 0.14935 0.61726 0.0
H1446 H 0.33836 0.79696 0.1455 0.0
H1447 H 0.39921 0.72581 0.1688 0.0
H1448 H 0.32071 0.76458 0.0944 0.0
H1449 H 0.34625 0.69632 0.15122 0.0
H1450 H 0.39332 0.75075 0.14366 0.0
H1451 H 0.36532 0.77399 0.15039 0.0
C1452 C 0.34092 0.78568 0.13465 0.0
C1453 C 0.32742 0.78258 0.11956 0.0
C1454 C 0.38356 0.73826 0.14465 0.0
C1455 C 0.35741 0.75565 0.12559 0.0
C1456 C 0.38703 0.72388 0.1588 0.0
C1457 C 0.37298 0.70924 0.1622 0.0
C1458 C 0.36606 0.73768 0.13388 0.0
C1459 C 0.3573 0.70752 0.14909 0.0
C1460 C 0.35628 0.77247 0.13744 0.0
C1461 C 0.33097 0.76741 0.10618 0.0
N1462 N 0.354 0.72188 0.13574 0.0
N1463 N 0.3451 0.75393 0.11001 0.0
H1464 H 0.74474 0.17256 0.39482 0.0
H1465 H 0.74222 0.09317 0.31379 0.0
H1466 H 0.69322 0.15187 0.36487 0.0
H1467 H 0.79386 0.12276 0.33483 0.0
H1468 H 0.72503 0.10211 0.34383 0.0
H1469 H 0.76197 0.14266 0.38546 0.0
C1470 C 0.73676 0.16119 0.3871 0.0
C1471 C 0.71772 0.1647 0.38024 0.0
C1472 C 0.74032 0.1061 0.34225 0.0
C1473 C 0.7375 0.13101 0.36879 0.0
C1474 C 0.75014 0.10096 0.32514 0.0
C1475 C 0.76926 0.10769 0.32178 0.0
C1476 C 0.74955 0.11855 0.35574 0.0
C1477 C 0.77901 0.11753 0.33686 0.0
C1478 C 0.74665 0.14421 0.38161 0.0
C1479 C 0.70798 0.14969 0.37027 0.0
N1480 N 0.76884 0.12321 0.35302 0.0
N1481 N 0.71819 0.13368 0.3643 0.0
H1482 H 0.32697 0.2027 0.88011 0.0
H1483 H 0.37288 0.29526 0.82892 0.0
H1484 H 0.31002 0.26258 0.89087 0.0
H1485 H 0.38006 0.23536 0.81027 0.0
H1486 H 0.36113 0.28344 0.86075 0.0
H1487 H 0.35715 0.2145 0.86472 0.0
C1488 C 0.32991 0.21829 0.87985 0.0
C1489 C 0.3157 0.23173 0.88607 0.0
C1490 C 0.36583 0.27289 0.84988 0.0
C1491 C 0.34989 0.2453 0.86831 0.0
C1492 C 0.3726 0.27965 0.83176 0.0
C1493 C 0.37677 0.26622 0.81682 0.0
C1494 C 0.36329 0.25264 0.85289 0.0
C1495 C 0.37636 0.24616 0.82127 0.0
C1496 C 0.34709 0.22504 0.87098 0.0
C1497 C 0.32035 0.25177 0.88562 0.0
N1498 N 0.36931 0.23996 0.83876 0.0
N1499 N 0.33684 0.25798 0.87641 0.0
H1500 H 0.22788 0.80975 0.38801 0.0
H1501 H 0.25866 0.88055 0.30487 0.0
H1502 H 0.28807 0.82443 0.37546 0.0
H1503 H 0.19903 0.87512 0.3251 0.0
H1504 H 0.27011 0.8664 0.33553 0.0
H1505 H 0.21743 0.83951 0.37127 0.0
C1506 C 0.23894 0.81957 0.3822 0.0
C1507 C 0.25882 0.81438 0.3826 0.0
C1508 C 0.25453 0.86865 0.33352 0.0
C1509 C 0.24697 0.84815 0.36294 0.0
C1510 C 0.24799 0.87666 0.31595 0.0
C1511 C 0.22785 0.87849 0.31226 0.0
C1512 C 0.24082 0.86194 0.34731 0.0
C1513 C 0.21468 0.87367 0.32727 0.0
C1514 C 0.23297 0.83657 0.37261 0.0
C1515 C 0.27256 0.82774 0.3752 0.0
N1516 N 0.22137 0.86512 0.34396 0.0
N1517 N 0.26634 0.84376 0.36514 0.0
H1518 H 0.60284 0.7613 0.8083 0.0
H1519 H 0.68165 0.72739 0.8817 0.0
H1520 H 0.61219 0.70074 0.8236 0.0
H1521 H 0.66474 0.78782 0.87462 0.0
H1522 H 0.65038 0.71723 0.86778 0.0
H1523 H 0.61827 0.77118 0.83892 0.0
C1524 C 0.60769 0.75006 0.81839 0.0
C1525 C 0.60684 0.7302 0.81317 0.0
C1526 C 0.65323 0.73273 0.86967 0.0
C1527 C 0.625 0.74138 0.84798 0.0
C1528 C 0.67113 0.73852 0.87758 0.0
C1529 C 0.67598 0.75846 0.87872 0.0
C1530 C 0.64034 0.74698 0.86233 0.0
C1531 C 0.66169 0.77228 0.87364 0.0
C1532 C 0.61651 0.7557 0.83591 0.0
C1533 C 0.61291 0.71623 0.82692 0.0
N1534 N 0.6447 0.76629 0.86512 0.0
N1535 N 0.6223 0.72211 0.84347 0.0
H1536 H 0.08419 0.21451 0.23861 0.0
H1537 H 0.17921 0.15709 0.2191 0.0
H1538 H 0.10517 0.20648 0.17968 0.0
H1539 H 0.14086 0.13896 0.26595 0.0
H1540 H 0.1521 0.17528 0.20439 0.0
H1541 H 0.10339 0.1861 0.24903 0.0
C1542 C 0.09229 0.20626 0.22775 0.0
C1543 C 0.09313 0.21271 0.2083 0.0
C1544 C 0.14953 0.16709 0.21774 0.0
C1545 C 0.11578 0.18095 0.22022 0.0
C1546 C 0.16504 0.15692 0.22626 0.0
C1547 C 0.16231 0.1468 0.24393 0.0
C1548 C 0.13128 0.16753 0.22718 0.0
C1549 C 0.14358 0.14673 0.2524 0.0
C1550 C 0.10332 0.19015 0.2337 0.0
C1551 C 0.10403 0.20179 0.19478 0.0
N1552 N 0.12883 0.1573 0.24415 0.0
N1553 N 0.11543 0.18674 0.20111 0.0
H1554 H 0.33451 0.6812 0.71758 0.0
H1555 H 0.27739 0.58553 0.73983 0.0
H1556 H 0.35227 0.64409 0.76555 0.0
H1557 H 0.28459 0.60577 0.68051 0.0
H1558 H 0.30516 0.60591 0.74983 0.0
H1559 H 0.31554 0.65396 0.70401 0.0
C1560 C 0.33437 0.66732 0.72528 0.0
C1561 C 0.34472 0.66497 0.74288 0.0
C1562 C 0.30105 0.60547 0.73452 0.0
C1563 C 0.32316 0.63377 0.72738 0.0
C1564 C 0.28532 0.59376 0.7288 0.0
C1565 C 0.27881 0.594 0.70935 0.0
C1566 C 0.30983 0.61799 0.72079 0.0
C1567 C 0.28933 0.60507 0.69562 0.0
C1568 C 0.32377 0.65173 0.71739 0.0
C1569 C 0.34436 0.64656 0.75204 0.0
N1570 N 0.30403 0.6171 0.70171 0.0
N1571 N 0.33347 0.63173 0.74435 0.0
H1572 H 0.84592 0.85493 0.26461 0.0
H1573 H 0.88636 0.78671 0.17863 0.0
H1574 H 0.81057 0.83574 0.21583 0.0
H1575 H 0.90525 0.78141 0.23861 0.0
H1576 H 0.86504 0.81406 0.1882 0.0
H1577 H 0.87368 0.83643 0.25127 0.0
C1578 C 0.84405 0.84694 0.25103 0.0
C1579 C 0.82585 0.84655 0.24147 0.0
C1580 C 0.87434 0.80727 0.1991 0.0
C1581 C 0.85759 0.82593 0.22596 0.0
C1582 C 0.8867 0.7919 0.19362 0.0
C1583 C 0.89746 0.78186 0.20793 0.0
C1584 C 0.87319 0.81275 0.21888 0.0
C1585 C 0.8971 0.78883 0.22721 0.0
C1586 C 0.85988 0.83648 0.24344 0.0
C1587 C 0.82425 0.83608 0.22385 0.0
N1588 N 0.88498 0.80376 0.2322 0.0
N1589 N 0.83993 0.82615 0.21665 0.0
H1590 H 0.67528 0.30959 0.76934 0.0
H1591 H 0.7033 0.39342 0.69655 0.0
H1592 H 0.6291 0.34026 0.73908 0.0
H1593 H 0.73504 0.38306 0.75021 0.0
H1594 H 0.67585 0.37386 0.70965 0.0
H1595 H 0.69818 0.33547 0.76 0.0
C1596 C 0.66998 0.32188 0.76081 0.0
C1597 C 0.65035 0.32288 0.75498 0.0
C1598 C 0.68871 0.37629 0.71863 0.0
C1599 C 0.67647 0.35233 0.74394 0.0
C1600 C 0.7043 0.38746 0.71121 0.0
C1601 C 0.72153 0.38958 0.72223 0.0
C1602 C 0.69068 0.36712 0.73696 0.0
C1603 C 0.72214 0.3815 0.7411 0.0
C1604 C 0.68299 0.33667 0.75556 0.0
C1605 C 0.64415 0.33911 0.74395 0.0
N1606 N 0.70712 0.37037 0.74772 0.0
N1607 N 0.65728 0.35313 0.73847 0.0
H1608 H 0.10545 0.78375 0.80994 0.0
H1609 H 0.14951 0.85141 0.72508 0.0
H1610 H 0.09366 0.77353 0.74877 0.0
H1611 H 0.18024 0.83907 0.77888 0.0
H1612 H 0.12283 0.82972 0.73581 0.0
H1613 H 0.12648 0.81152 0.80085 0.0
C1614 C 0.10675 0.78778 0.79465 0.0
C1615 C 0.0978 0.77646 0.78004 0.0
C1616 C 0.13537 0.83194 0.74529 0.0
C1617 C 0.1218 0.80792 0.76962 0.0
C1618 C 0.15054 0.84429 0.73921 0.0
C1619 C 0.16719 0.8468 0.75101 0.0
C1620 C 0.13667 0.82246 0.76348 0.0
C1621 C 0.16779 0.83727 0.76922 0.0
C1622 C 0.11891 0.80344 0.78948 0.0
C1623 C 0.10031 0.78199 0.76043 0.0
N1624 N 0.15274 0.82552 0.77492 0.0
N1625 N 0.11215 0.79731 0.75576 0.0
H1626 H 0.62879 0.65204 0.25378 0.0
H1627 H 0.72892 0.59281 0.24378 0.0
H1628 H 0.67593 0.66659 0.21434 0.0
H1629 H 0.7006 0.59976 0.29975 0.0
H1630 H 0.7019 0.61019 0.2282 0.0
H1631 H 0.64836 0.62434 0.26628 0.0
C1632 C 0.64304 0.64908 0.24745 0.0
C1633 C 0.65087 0.66153 0.23307 0.0
C1634 C 0.70134 0.6075 0.24382 0.0
C1635 C 0.67292 0.63003 0.24695 0.0
C1636 C 0.71666 0.59748 0.2527 0.0
C1637 C 0.71701 0.59506 0.27307 0.0
C1638 C 0.68628 0.61526 0.25539 0.0
C1639 C 0.70078 0.60133 0.28398 0.0
C1640 C 0.65417 0.63343 0.25464 0.0
C1641 C 0.66945 0.65735 0.22548 0.0
N1642 N 0.68613 0.61154 0.27503 0.0
N1643 N 0.67983 0.64194 0.2325 0.0
H1644 H 0.89584 0.23057 0.74189 0.0
H1645 H 0.84249 0.12798 0.75718 0.0
H1646 H 0.89496 0.2036 0.79901 0.0
H1647 H 0.82043 0.17474 0.72095 0.0
H1648 H 0.8694 0.14967 0.768 0.0
H1649 H 0.87685 0.20323 0.72898 0.0
C1650 C 0.89202 0.21862 0.75163 0.0
C1651 C 0.8967 0.21945 0.7716 0.0
C1652 C 0.85875 0.15498 0.75752 0.0
C1653 C 0.87486 0.18821 0.75689 0.0
C1654 C 0.84354 0.14268 0.75128 0.0
C1655 C 0.82929 0.14971 0.73822 0.0
C1656 C 0.85992 0.17411 0.7501 0.0
C1657 C 0.83108 0.16886 0.73111 0.0
C1658 C 0.88112 0.2031 0.74425 0.0
C1659 C 0.89157 0.20349 0.78352 0.0
N1660 N 0.84616 0.18036 0.73707 0.0
N1661 N 0.88061 0.18854 0.77602 0.0
H1662 H 0.35486 0.34431 0.22741 0.0
H1663 H 0.28561 0.38641 0.31189 0.0
H1664 H 0.3425 0.31292 0.28086 0.0
H1665 H 0.27746 0.40019 0.25084 0.0
H1666 H 0.31346 0.36545 0.30303 0.0
H1667 H 0.33281 0.37052 0.23818 0.0
C1668 C 0.34759 0.34298 0.24144 0.0
C1669 C 0.35027 0.3263 0.25314 0.0
C1670 C 0.30582 0.37344 0.29166 0.0
C1671 C 0.32547 0.35635 0.26567 0.0
C1672 C 0.29014 0.38558 0.29672 0.0
C1673 C 0.27937 0.39507 0.28204 0.0
C1674 C 0.31086 0.3711 0.27186 0.0
C1675 C 0.2855 0.39313 0.26255 0.0
C1676 C 0.33505 0.35792 0.24756 0.0
C1677 C 0.34056 0.32538 0.27124 0.0
N1678 N 0.30081 0.3813 0.25799 0.0
N1679 N 0.32859 0.34021 0.27697 0.0
H1680 H 0.23823 0.15115 0.12837 0.0
H1681 H 0.24296 0.1205 0.23994 0.0
H1682 H 0.25353 0.19133 0.17466 0.0
H1683 H 0.19463 0.10021 0.20449 0.0
H1684 H 0.25447 0.14023 0.21261 0.0
H1685 H 0.22882 0.12668 0.15323 0.0
C1686 C 0.2398 0.1547 0.14375 0.0
C1687 C 0.24669 0.17319 0.14958 0.0
C1688 C 0.24149 0.13127 0.21075 0.0
C1689 C 0.23636 0.14543 0.17771 0.0
C1690 C 0.23491 0.11993 0.22628 0.0
C1691 C 0.21761 0.10892 0.22457 0.0
C1692 C 0.23092 0.13143 0.19321 0.0
C1693 C 0.20798 0.10857 0.20641 0.0
C1694 C 0.23433 0.14084 0.15782 0.0
C1695 C 0.24824 0.17724 0.16961 0.0
N1696 N 0.21471 0.11985 0.19135 0.0
N1697 N 0.24329 0.16339 0.18297 0.0
H1698 H 0.34252 0.73128 0.62471 0.0
H1699 H 0.38141 0.74317 0.73279 0.0
H1700 H 0.30648 0.75251 0.672 0.0
H1701 H 0.39209 0.68838 0.70312 0.0
H1702 H 0.36177 0.75405 0.7051 0.0
H1703 H 0.36785 0.7219 0.64875 0.0
C1704 C 0.34009 0.73417 0.64011 0.0
C1705 C 0.32251 0.74272 0.6465 0.0
C1706 C 0.36872 0.73979 0.70453 0.0
C1707 C 0.35125 0.73249 0.67361 0.0
C1708 C 0.37999 0.73357 0.72024 0.0
C1709 C 0.38814 0.71471 0.72036 0.0
C1710 C 0.36579 0.72724 0.68863 0.0
C1711 C 0.386 0.703 0.70359 0.0
C1712 C 0.35441 0.72872 0.65371 0.0
C1713 C 0.31985 0.74595 0.66655 0.0
N1714 N 0.37479 0.7094 0.68835 0.0
N1715 N 0.33417 0.741 0.6794 0.0
H1716 H 0.79936 0.89343 0.20291 0.0
H1717 H 0.73218 0.80653 0.17147 0.0
H1718 H 0.74508 0.88072 0.23277 0.0
H1719 H 0.75805 0.84203 0.12609 0.0
H1720 H 0.74053 0.83186 0.19547 0.0
H1721 H 0.78779 0.87379 0.17487 0.0
C1722 C 0.78486 0.88698 0.20335 0.0
C1723 C 0.77322 0.8885 0.22023 0.0
C1724 C 0.74423 0.83418 0.18022 0.0
C1725 C 0.7603 0.86583 0.18876 0.0
C1726 C 0.73954 0.81974 0.1666 0.0
C1727 C 0.74431 0.82237 0.14687 0.0
C1728 C 0.75429 0.85108 0.17414 0.0
C1729 C 0.75393 0.83968 0.14122 0.0
C1730 C 0.77833 0.87573 0.18745 0.0
C1731 C 0.75462 0.8797 0.22015 0.0
N1732 N 0.7589 0.85334 0.15487 0.0
N1733 N 0.74891 0.86845 0.20486 0.0
H1734 H 0.60189 0.29813 0.70257 0.0
H1735 H 0.68835 0.22813 0.6746 0.0
H1736 H 0.61461 0.24526 0.73481 0.0
H1737 H 0.6551 0.25516 0.62823 0.0
H1738 H 0.66293 0.23765 0.69791 0.0
H1739 H 0.62213 0.28566 0.67533 0.0
C1740 C 0.60859 0.2838 0.70376 0.0
C1741 C 0.60681 0.27281 0.72104 0.0
C1742 C 0.66109 0.24136 0.6826 0.0
C1743 C 0.63002 0.25882 0.69042 0.0
C1744 C 0.6756 0.23599 0.66935 0.0
C1745 C 0.6737 0.2408 0.64953 0.0
C1746 C 0.64479 0.25209 0.67611 0.0
C1747 C 0.65692 0.25104 0.64342 0.0
C1748 C 0.62012 0.27674 0.68829 0.0
C1749 C 0.61583 0.25437 0.72189 0.0
N1750 N 0.64316 0.25664 0.65675 0.0
N1751 N 0.62727 0.24812 0.70697 0.0
H1752 H 0.24612 0.90045 0.7663 0.0
H1753 H 0.22691 0.83853 0.86351 0.0
H1754 H 0.1878 0.89027 0.78833 0.0
H1755 H 0.27536 0.83022 0.82395 0.0
H1756 H 0.21499 0.86553 0.84267 0.0
H1757 H 0.25961 0.88401 0.79499 0.0
C1758 C 0.23619 0.89523 0.77754 0.0
C1759 C 0.21587 0.89651 0.77497 0.0
C1760 C 0.22841 0.85801 0.83882 0.0
C1761 C 0.23114 0.87725 0.80749 0.0
C1762 C 0.23523 0.84274 0.85066 0.0
C1763 C 0.25209 0.83232 0.84528 0.0
C1764 C 0.23885 0.86299 0.82182 0.0
C1765 C 0.26229 0.83798 0.82848 0.0
C1766 C 0.24388 0.88574 0.7938 0.0
C1767 C 0.20358 0.88959 0.7899 0.0
N1768 N 0.25551 0.85296 0.81733 0.0
N1769 N 0.21142 0.87984 0.80545 0.0
H1770 H 0.64147 0.73824 0.24863 0.0
H1771 H 0.6568 0.74332 0.36332 0.0
H1772 H 0.60456 0.70467 0.28754 0.0
H1773 H 0.70501 0.74576 0.3225 0.0
H1774 H 0.63471 0.73493 0.33621 0.0
H1775 H 0.66207 0.74726 0.27627 0.0
C1776 C 0.63762 0.7328 0.263 0.0
C1777 C 0.62136 0.72048 0.26575 0.0
C1778 C 0.65012 0.73736 0.33327 0.0
C1779 C 0.64481 0.73109 0.2975 0.0
C1780 C 0.66269 0.74228 0.34863 0.0
C1781 C 0.68273 0.74534 0.34507 0.0
C1782 C 0.65761 0.73594 0.31423 0.0
C1783 C 0.68966 0.74353 0.32585 0.0
C1784 C 0.64945 0.73794 0.27875 0.0
C1785 C 0.61702 0.71411 0.28479 0.0
N1786 N 0.67708 0.7391 0.3111 0.0
N1787 N 0.62869 0.71955 0.30004 0.0
H1788 H 0.746 0.11817 0.75339 0.0
H1789 H 0.75255 0.1564 0.86324 0.0
H1790 H 0.79596 0.10369 0.78933 0.0
H1791 H 0.72682 0.18894 0.8156 0.0
H1792 H 0.76295 0.13104 0.83973 0.0
H1793 H 0.73263 0.13748 0.78011 0.0
C1794 C 0.75407 0.11886 0.76704 0.0
C1795 C 0.77229 0.10959 0.76905 0.0
C1796 C 0.75488 0.14368 0.83457 0.0
C1797 C 0.75696 0.13175 0.79973 0.0
C1798 C 0.74885 0.15804 0.8479 0.0
C1799 C 0.73885 0.17475 0.84127 0.0
C1800 C 0.75037 0.14593 0.81466 0.0
C1801 C 0.73458 0.17633 0.82128 0.0
C1802 C 0.74642 0.12993 0.78225 0.0
C1803 C 0.78192 0.11073 0.78718 0.0
N1804 N 0.74029 0.16207 0.80871 0.0
N1805 N 0.7742 0.12185 0.80187 0.0
H1806 H 0.39087 0.31494 0.28564 0.0
H1807 H 0.35594 0.22522 0.35251 0.0
H1808 H 0.40936 0.25543 0.27562 0.0
H1809 H 0.31963 0.27476 0.33782 0.0
H1810 H 0.38281 0.23983 0.33331 0.0
H1811 H 0.37242 0.30388 0.31447 0.0
C1812 C 0.39175 0.29971 0.29003 0.0
C1813 C 0.40157 0.28601 0.27834 0.0
C1814 C 0.36903 0.24758 0.33461 0.0
C1815 C 0.38056 0.27334 0.31097 0.0
C1816 C 0.35376 0.23929 0.34551 0.0
C1817 C 0.33552 0.24867 0.34639 0.0
C1818 C 0.36608 0.26557 0.32505 0.0
C1819 C 0.3334 0.26691 0.33715 0.0
C1820 C 0.38106 0.29339 0.3063 0.0
C1821 C 0.40191 0.26637 0.28434 0.0
N1822 N 0.34848 0.27474 0.32681 0.0
N1823 N 0.39138 0.26055 0.30018 0.0
H1824 H 0.20907 0.17975 0.10869 0.0
H1825 H 0.13946 0.26411 0.15053 0.0
H1826 H 0.21685 0.24079 0.09442 0.0
H1827 H 0.15226 0.21089 0.18215 0.0
H1828 H 0.16157 0.25336 0.12434 0.0
H1829 H 0.18129 0.1886 0.12976 0.0
C1830 C 0.20446 0.19491 0.10944 0.0
C1831 C 0.2151 0.20959 0.09978 0.0
C1832 C 0.15941 0.24403 0.13699 0.0
C1833 C 0.1837 0.21978 0.12387 0.0
C1834 C 0.14684 0.25014 0.15191 0.0
C1835 C 0.14425 0.23849 0.16865 0.0
C1836 C 0.16911 0.22598 0.13863 0.0
C1837 C 0.1541 0.22046 0.16965 0.0
C1838 C 0.18883 0.19998 0.12165 0.0
C1839 C 0.20891 0.22908 0.10162 0.0
N1840 N 0.16608 0.21474 0.15482 0.0
N1841 N 0.19363 0.23364 0.11351 0.0
H1842 H 0.20186 0.79858 0.89125 0.0
H1843 H 0.17249 0.73732 0.79856 0.0
H1844 H 0.23658 0.75019 0.87001 0.0
H1845 H 0.12705 0.75545 0.83851 0.0
H1846 H 0.19711 0.74656 0.82288 0.0
H1847 H 0.1743 0.78691 0.87091 0.0
C1848 C 0.20357 0.78539 0.88261 0.0
C1849 C 0.22156 0.77547 0.88209 0.0
C1850 C 0.18174 0.74843 0.82636 0.0
C1851 C 0.19061 0.76247 0.85879 0.0
C1852 C 0.16775 0.74324 0.81249 0.0
C1853 C 0.14782 0.74555 0.81667 0.0
C1854 C 0.17577 0.75644 0.84432 0.0
C1855 C 0.14235 0.75329 0.83492 0.0
C1856 C 0.18793 0.77879 0.87104 0.0
C1857 C 0.22308 0.75848 0.87063 0.0
N1858 N 0.15631 0.75872 0.84809 0.0
N1859 N 0.20793 0.75271 0.85922 0.0
H1860 H 0.74 0.71092 0.40559 0.0
H1861 H 0.71326 0.65656 0.30823 0.0
H1862 H 0.68048 0.70885 0.38452 0.0
H1863 H 0.76023 0.63582 0.34512 0.0
H1864 H 0.70171 0.67718 0.33522 0.0
H1865 H 0.74841 0.68397 0.38347 0.0
C1866 C 0.72859 0.70436 0.3967 0.0
C1867 C 0.70952 0.71194 0.39696 0.0
C1868 C 0.71442 0.66795 0.33744 0.0
C1869 C 0.71916 0.68181 0.3711 0.0
C1870 C 0.72113 0.65634 0.322 0.0
C1871 C 0.73782 0.64458 0.32439 0.0
C1872 C 0.7247 0.6681 0.35524 0.0
C1873 C 0.74732 0.64469 0.34263 0.0
C1874 C 0.7334 0.68909 0.38402 0.0
C1875 C 0.6953 0.7032 0.38495 0.0
N1876 N 0.74079 0.65648 0.35728 0.0
N1877 N 0.70051 0.68885 0.37216 0.0
H1878 H 0.75799 0.25068 0.87356 0.0
H1879 H 0.86764 0.23894 0.83748 0.0
H1880 H 0.791 0.19954 0.89068 0.0
H1881 H 0.82103 0.26044 0.80065 0.0
H1882 H 0.84316 0.23015 0.86255 0.0
H1883 H 0.78511 0.26095 0.85285 0.0
C1884 C 0.77106 0.2417 0.87317 0.0
C1885 C 0.77211 0.22403 0.88362 0.0
C1886 C 0.83842 0.23685 0.84898 0.0
C1887 C 0.80327 0.2359 0.85998 0.0
C1888 C 0.85229 0.24195 0.83477 0.0
C1889 C 0.84625 0.25039 0.81701 0.0
C1890 C 0.81857 0.24082 0.84554 0.0
C1891 C 0.82624 0.25385 0.81409 0.0
C1892 C 0.78649 0.24758 0.86129 0.0
C1893 C 0.78957 0.21319 0.88275 0.0
N1894 N 0.81313 0.24921 0.82829 0.0
N1895 N 0.80453 0.21925 0.87097 0.0
H1896 H 0.25378 0.25237 0.36752 0.0
H1897 H 0.25605 0.36527 0.34074 0.0
H1898 H 0.29909 0.28931 0.3918 0.0
H1899 H 0.24246 0.31972 0.2991 0.0
H1900 H 0.26548 0.33993 0.36469 0.0
H1901 H 0.24222 0.27981 0.34802 0.0
C1902 C 0.26118 0.26635 0.36896 0.0
C1903 C 0.27764 0.26849 0.38109 0.0
C1904 C 0.26035 0.33561 0.35032 0.0
C1905 C 0.26428 0.29999 0.35881 0.0
C1906 C 0.25487 0.34995 0.33675 0.0
C1907 C 0.24845 0.34448 0.31799 0.0
C1908 C 0.25882 0.31579 0.34516 0.0
C1909 C 0.24739 0.32452 0.31339 0.0
C1910 C 0.25458 0.28196 0.35775 0.0
C1911 C 0.28642 0.28705 0.38254 0.0
N1912 N 0.25236 0.31089 0.32694 0.0
N1913 N 0.27968 0.30217 0.37137 0.0
H1914 H 0.77769 0.75283 0.0928 0.0
H1915 H 0.83926 0.78207 0.18516 0.0
H1916 H 0.78542 0.81322 0.10954 0.0
H1917 H 0.85343 0.73033 0.15172 0.0
H1918 H 0.81826 0.79319 0.15841 0.0
H1919 H 0.8049 0.7437 0.11431 0.0
C1920 C 0.78553 0.76422 0.10062 0.0
C1921 C 0.77952 0.78379 0.09933 0.0
C1922 C 0.82608 0.77948 0.15688 0.0
C1923 C 0.80998 0.77342 0.12449 0.0
C1924 C 0.8379 0.773 0.17221 0.0
C1925 C 0.84797 0.75513 0.17075 0.0
C1926 C 0.82395 0.76782 0.1401 0.0
C1927 C 0.84587 0.74415 0.1535 0.0
C1928 C 0.80096 0.75901 0.11293 0.0
C1929 C 0.78986 0.798 0.10995 0.0
N1930 N 0.83387 0.75054 0.13893 0.0
N1931 N 0.80438 0.79248 0.12243 0.0
H1932 H 0.73459 0.36664 0.65483 0.0
H1933 H 0.75056 0.26267 0.60563 0.0
H1934 H 0.76628 0.31918 0.68186 0.0
H1935 H 0.69365 0.28999 0.60221 0.0
H1936 H 0.76225 0.28999 0.62537 0.0
H1937 H 0.72451 0.34422 0.62828 0.0
C1938 C 0.73958 0.35158 0.65501 0.0
C1939 C 0.75121 0.34461 0.67047 0.0
C1940 C 0.7473 0.29016 0.62002 0.0
C1941 C 0.74026 0.31941 0.64028 0.0
C1942 C 0.74062 0.27466 0.60871 0.0
C1943 C 0.72102 0.27396 0.60259 0.0
C1944 C 0.73436 0.30517 0.6252 0.0
C1945 C 0.70885 0.29 0.60675 0.0
C1946 C 0.73378 0.33889 0.63999 0.0
C1947 C 0.75721 0.32503 0.67024 0.0
N1948 N 0.71567 0.30496 0.6181 0.0
N1949 N 0.75179 0.31314 0.65529 0.0
H1950 H 0.22731 0.63792 0.65209 0.0
H1951 H 0.31308 0.70531 0.60921 0.0
H1952 H 0.27952 0.65248 0.68471 0.0
H1953 H 0.25256 0.71167 0.59228 0.0
H1954 H 0.30355 0.67883 0.63165 0.0
H1955 H 0.23889 0.65868 0.62519 0.0
C1956 C 0.24121 0.64547 0.65359 0.0
C1957 C 0.25235 0.6437 0.67076 0.0
C1958 C 0.29246 0.68573 0.62265 0.0
C1959 C 0.26584 0.667 0.63992 0.0
C1960 C 0.29792 0.70059 0.60966 0.0
C1961 C 0.28355 0.71049 0.59885 0.0
C1962 C 0.27259 0.68063 0.62449 0.0
C1963 C 0.26404 0.70425 0.60033 0.0
C1964 C 0.2478 0.65725 0.63824 0.0
C1965 C 0.27032 0.65371 0.67186 0.0
N1966 N 0.25909 0.68974 0.61301 0.0
N1967 N 0.27654 0.6649 0.65662 0.0
H1968 H 0.84393 0.86515 0.76127 0.0
H1969 H 0.89607 0.76241 0.74905 0.0
H1970 H 0.8175 0.81597 0.73173 0.0
H1971 H 0.89362 0.78838 0.80657 0.0
H1972 H 0.87698 0.7897 0.73618 0.0
H1973 H 0.87091 0.84363 0.77215 0.0
C1974 C 0.84405 0.84992 0.7568 0.0
C1975 C 0.82862 0.84219 0.74558 0.0
C1976 C 0.88106 0.78965 0.75152 0.0
C1977 C 0.85926 0.818 0.75748 0.0
C1978 C 0.892 0.77418 0.75888 0.0
C1979 C 0.89615 0.77304 0.77895 0.0
C1980 C 0.87439 0.80422 0.76426 0.0
C1981 C 0.89067 0.78875 0.79101 0.0
C1982 C 0.85928 0.83774 0.76308 0.0
C1983 C 0.82917 0.8224 0.74035 0.0
N1984 N 0.87973 0.80369 0.7835 0.0
N1985 N 0.84434 0.81098 0.74622 0.0
H1986 H 0.65365 0.30798 0.27741 0.0
H1987 H 0.7153 0.4017 0.25174 0.0
H1988 H 0.6383 0.34441 0.2281 0.0
H1989 H 0.70833 0.38224 0.31137 0.0
H1990 H 0.68805 0.3804 0.24198 0.0
H1991 H 0.67535 0.33396 0.28935 0.0
C1992 C 0.65488 0.32143 0.26907 0.0
C1993 C 0.64429 0.32397 0.25163 0.0
C1994 C 0.6922 0.38112 0.25727 0.0
C1995 C 0.66908 0.3537 0.26522 0.0
C1996 C 0.70766 0.3933 0.26284 0.0
C1997 C 0.71388 0.39382 0.28238 0.0
C1998 C 0.68334 0.36893 0.27126 0.0
C1999 C 0.70375 0.38247 0.2962 0.0
C2000 C 0.6671 0.33631 0.276 0.0
C2001 C 0.64623 0.34182 0.24158 0.0
N2002 N 0.6892 0.37016 0.2903 0.0
N2003 N 0.6586 0.35591 0.24838 0.0
H2004 H 0.16481 0.1734 0.71993 0.0
H2005 H 0.10108 0.2032 0.80752 0.0
H2006 H 0.15023 0.12833 0.76169 0.0
H2007 H 0.08858 0.22423 0.74934 0.0
H2008 H 0.11866 0.17519 0.79308 0.0
H2009 H 0.13751 0.19309 0.73218 0.0
C2010 C 0.15569 0.16763 0.73158 0.0
C2011 C 0.15961 0.14932 0.73984 0.0
C2012 C 0.11142 0.18559 0.78355 0.0
C2013 C 0.12875 0.1718 0.75418 0.0
C2014 C 0.10127 0.20142 0.79176 0.0
C2015 C 0.09356 0.216 0.77953 0.0
C2016 C 0.11396 0.18475 0.76313 0.0
C2017 C 0.09452 0.21333 0.75922 0.0
C2018 C 0.14009 0.17876 0.73848 0.0
C2019 C 0.14746 0.1424 0.75493 0.0
N2020 N 0.10496 0.19828 0.75164 0.0
N2021 N 0.13272 0.15386 0.76196 0.0
H2022 H 0.35048 0.63278 0.22036 0.0
H2023 H 0.28681 0.59825 0.31248 0.0
H2024 H 0.34137 0.66701 0.27259 0.0
H2025 H 0.27473 0.58075 0.25307 0.0
H2026 H 0.31659 0.61496 0.30109 0.0
H2027 H 0.33217 0.60558 0.23555 0.0
C2028 C 0.34508 0.63433 0.23519 0.0
C2029 C 0.34711 0.65212 0.2452 0.0
C2030 C 0.30774 0.6069 0.29067 0.0
C2031 C 0.32659 0.62132 0.26261 0.0
C2032 C 0.29089 0.59722 0.29718 0.0
C2033 C 0.27837 0.58824 0.28362 0.0
C2034 C 0.31209 0.6073 0.27055 0.0
C2035 C 0.28405 0.58763 0.26391 0.0
C2036 C 0.33463 0.61891 0.2438 0.0
C2037 C 0.33982 0.65354 0.26434 0.0
N2038 N 0.30041 0.59725 0.25789 0.0
N2039 N 0.32976 0.63839 0.27239 0.0
H2040 H 0.84801 0.13914 0.27127 0.0
H2041 H 0.88786 0.21054 0.18747 0.0
H2042 H 0.81409 0.15496 0.22038 0.0
H2043 H 0.90168 0.21921 0.24845 0.0
H2044 H 0.86756 0.18221 0.1965 0.0
H2045 H 0.87427 0.16119 0.26009 0.0
C2046 C 0.84619 0.1471 0.25768 0.0
C2047 C 0.82877 0.14549 0.24687 0.0
C2048 C 0.87544 0.19006 0.20781 0.0
C2049 C 0.85878 0.17017 0.23385 0.0
C2050 C 0.88718 0.20604 0.20267 0.0
C2051 C 0.89646 0.2171 0.21728 0.0
C2052 C 0.87334 0.18497 0.22762 0.0
C2053 C 0.89475 0.21097 0.2368 0.0
C2054 C 0.86112 0.15963 0.25134 0.0
C2055 C 0.82716 0.15606 0.22931 0.0
N2056 N 0.88333 0.19532 0.24144 0.0
N2057 N 0.84199 0.16794 0.22332 0.0
H2058 H 0.29086 0.39604 0.68533 0.0
H2059 H 0.31643 0.31856 0.76246 0.0
H2060 H 0.26901 0.4013 0.74433 0.0
H2061 H 0.36506 0.34173 0.72946 0.0
H2062 H 0.29662 0.34674 0.75229 0.0
H2063 H 0.31763 0.37518 0.69768 0.0
C2064 C 0.29219 0.39352 0.70093 0.0
C2065 C 0.2777 0.40023 0.71387 0.0
C2066 C 0.31169 0.34571 0.74742 0.0
C2067 C 0.30748 0.37607 0.72776 0.0
C2068 C 0.32289 0.32966 0.75312 0.0
C2069 C 0.34232 0.32805 0.74685 0.0
C2070 C 0.31981 0.35986 0.73487 0.0
C2071 C 0.35012 0.34271 0.7347 0.0
C2072 C 0.30729 0.38149 0.70791 0.0
C2073 C 0.27982 0.39623 0.73389 0.0
N2074 N 0.33871 0.35795 0.72878 0.0
N2075 N 0.2941 0.38399 0.74017 0.0
H2076 H 0.14938 0.85446 0.26589 0.0
H2077 H 0.10654 0.78477 0.18199 0.0
H2078 H 0.17924 0.84412 0.21117 0.0
H2079 H 0.09594 0.77479 0.24341 0.0
H2080 H 0.12695 0.81319 0.19053 0.0
H2081 H 0.12368 0.83138 0.25577 0.0
C2082 C 0.15044 0.84746 0.2517 0.0
C2083 C 0.16657 0.85098 0.23945 0.0
C2084 C 0.11981 0.80498 0.20208 0.0
C2085 C 0.13713 0.82498 0.22769 0.0
C2086 C 0.108 0.78895 0.19722 0.0
C2087 C 0.09952 0.77755 0.21206 0.0
C2088 C 0.12282 0.80975 0.22187 0.0
C2089 C 0.10222 0.78329 0.23158 0.0
C2090 C 0.13581 0.83431 0.24596 0.0
C2091 C 0.1672 0.84156 0.22118 0.0
N2092 N 0.11369 0.79898 0.23595 0.0
N2093 N 0.15267 0.829 0.21584 0.0
H2094 H 0.73752 0.62349 0.74248 0.0
H2095 H 0.62535 0.65228 0.73637 0.0
H2096 H 0.70226 0.6017 0.69469 0.0
H2097 H 0.67098 0.69294 0.75262 0.0
H2098 H 0.65063 0.62808 0.72755 0.0
H2099 H 0.70985 0.64286 0.75372 0.0
C2100 C 0.72385 0.62256 0.73446 0.0
C2101 C 0.72227 0.61123 0.7174 0.0
C2102 C 0.65498 0.64229 0.73314 0.0
C2103 C 0.69054 0.63332 0.73037 0.0
C2104 C 0.64067 0.65599 0.73827 0.0
C2105 C 0.6462 0.67455 0.74523 0.0
C2106 C 0.6748 0.6471 0.73559 0.0
C2107 C 0.66616 0.67882 0.74724 0.0
C2108 C 0.70812 0.63368 0.74089 0.0
C2109 C 0.70409 0.61037 0.70783 0.0
N2110 N 0.67976 0.66511 0.74258 0.0
N2111 N 0.68884 0.62146 0.71439 0.0
H2112 H 0.72659 0.83609 0.85229 0.0
H2113 H 0.81309 0.87488 0.78358 0.0
H2114 H 0.77655 0.80074 0.83641 0.0
H2115 H 0.75327 0.89423 0.77801 0.0
H2116 H 0.80308 0.85309 0.81047 0.0
H2117 H 0.73932 0.86257 0.8317 0.0
C2118 C 0.74023 0.8339 0.84448 0.0
C2119 C 0.75039 0.8161 0.84581 0.0
C2120 C 0.79228 0.86251 0.80367 0.0
C2121 C 0.76521 0.84645 0.82274 0.0
C2122 C 0.79803 0.8751 0.78858 0.0
C2123 C 0.78394 0.88636 0.77882 0.0
C2124 C 0.77243 0.86156 0.80907 0.0
C2125 C 0.76451 0.88581 0.78537 0.0
C2126 C 0.74749 0.84902 0.83282 0.0
C2127 C 0.76808 0.81411 0.83551 0.0
N2128 N 0.75928 0.87351 0.80007 0.0
N2129 N 0.77497 0.82914 0.82441 0.0
H2130 H 0.58702 0.24791 0.26341 0.0
H2131 H 0.64754 0.25627 0.36262 0.0
H2132 H 0.59905 0.30442 0.28895 0.0
H2133 H 0.66126 0.217 0.31515 0.0
H2134 H 0.62046 0.26994 0.34295 0.0
H2135 H 0.60374 0.23222 0.29079 0.0
C2136 C 0.59262 0.25698 0.27518 0.0
C2137 C 0.59188 0.27745 0.2739 0.0
C2138 C 0.62922 0.25809 0.3371 0.0
C2139 C 0.61122 0.25962 0.30501 0.0
C2140 C 0.64452 0.25025 0.34825 0.0
C2141 C 0.65653 0.23555 0.34036 0.0
C2142 C 0.62571 0.25068 0.31828 0.0
C2143 C 0.65232 0.22836 0.32166 0.0
C2144 C 0.60224 0.24802 0.29069 0.0
C2145 C 0.59931 0.28857 0.2895 0.0
N2146 N 0.63721 0.23597 0.31126 0.0
N2147 N 0.60908 0.27949 0.30435 0.0
H2148 H 0.23882 0.13028 0.75107 0.0
H2149 H 0.24223 0.152 0.86499 0.0
H2150 H 0.19933 0.09993 0.7901 0.0
H2151 H 0.25028 0.1966 0.82093 0.0
H2152 H 0.23267 0.12874 0.83911 0.0
H2153 H 0.24994 0.15038 0.77825 0.0
C2154 C 0.23255 0.1277 0.7654 0.0
C2155 C 0.21787 0.11356 0.76825 0.0
C2156 C 0.2366 0.14361 0.83522 0.0
C2157 C 0.23087 0.13648 0.79953 0.0
C2158 C 0.24218 0.15682 0.84988 0.0
C2159 C 0.2471 0.17621 0.84503 0.0
C2160 C 0.23646 0.1498 0.81565 0.0
C2161 C 0.24657 0.1818 0.8253 0.0
C2162 C 0.23892 0.13925 0.78089 0.0
C2163 C 0.21058 0.11075 0.78727 0.0
N2164 N 0.24149 0.16862 0.81132 0.0
N2165 N 0.21715 0.12219 0.80228 0.0
H2166 H 0.29089 0.75282 0.31756 0.0
H2167 H 0.38839 0.69913 0.28535 0.0
H2168 H 0.33679 0.74117 0.35939 0.0
H2169 H 0.35389 0.7348 0.24617 0.0
H2170 H 0.36923 0.71201 0.31303 0.0
H2171 H 0.31312 0.74362 0.29113 0.0
C2172 C 0.30571 0.74841 0.32114 0.0
C2173 C 0.31208 0.74779 0.34061 0.0
C2174 C 0.36608 0.71711 0.29835 0.0
C2175 C 0.33748 0.73695 0.31054 0.0
C2176 C 0.37696 0.70978 0.2826 0.0
C2177 C 0.37258 0.71578 0.26345 0.0
C2178 C 0.35067 0.73027 0.29476 0.0
C2179 C 0.35764 0.7296 0.26066 0.0
C2180 C 0.31841 0.74323 0.30608 0.0
C2181 C 0.33143 0.742 0.3445 0.0
N2182 N 0.3471 0.7362 0.2761 0.0
N2183 N 0.34345 0.73655 0.32957 0.0
H2184 H 0.7202 0.17259 0.17858 0.0
H2185 H 0.80425 0.1008 0.20526 0.0
H2186 H 0.7574 0.15117 0.13231 0.0
H2187 H 0.7481 0.0991 0.2342 0.0
H2188 H 0.78896 0.11873 0.17788 0.0
H2189 H 0.73166 0.14605 0.19965 0.0
C2190 C 0.73063 0.16211 0.17283 0.0
C2191 C 0.73786 0.16394 0.15377 0.0
C2192 C 0.77996 0.11391 0.19002 0.0
C2193 C 0.75142 0.13388 0.17783 0.0
C2194 C 0.78864 0.10362 0.20554 0.0
C2195 C 0.77742 0.09875 0.22203 0.0
C2196 C 0.76013 0.11941 0.19135 0.0
C2197 C 0.7573 0.10289 0.22184 0.0
C2198 C 0.73712 0.14694 0.18478 0.0
C2199 C 0.75141 0.15005 0.14695 0.0
N2200 N 0.74939 0.1133 0.20695 0.0
N2201 N 0.7581 0.13574 0.15913 0.0
H2202 H 0.37861 0.30993 0.70731 0.0
H2203 H 0.33301 0.22398 0.64222 0.0
H2204 H 0.38857 0.24895 0.72032 0.0
H2205 H 0.30289 0.27836 0.65368 0.0
H2206 H 0.3595 0.23459 0.66421 0.0
H2207 H 0.35725 0.30014 0.68001 0.0
C2208 C 0.37684 0.29451 0.70395 0.0
C2209 C 0.38535 0.28017 0.7159 0.0
C2210 C 0.34709 0.24417 0.66177 0.0
C2211 C 0.36102 0.26897 0.68507 0.0
C2212 C 0.33199 0.23813 0.64932 0.0
C2213 C 0.31562 0.2502 0.64636 0.0
C2214 C 0.346 0.26258 0.67086 0.0
C2215 C 0.3151 0.26847 0.6558 0.0
C2216 C 0.36449 0.28895 0.6886 0.0
C2217 C 0.38226 0.26039 0.71132 0.0
N2218 N 0.33011 0.27414 0.66757 0.0
N2219 N 0.37028 0.25533 0.69627 0.0
H2220 H 0.23819 0.91131 0.21772 0.0
H2221 H 0.21686 0.82168 0.15401 0.0
H2222 H 0.17871 0.89327 0.20653 0.0
H2223 H 0.26693 0.85809 0.14122 0.0
H2224 H 0.20186 0.84894 0.17164 0.0
H2225 H 0.24865 0.89441 0.18794 0.0
C2226 C 0.22725 0.90435 0.20855 0.0
C2227 C 0.20762 0.90359 0.21447 0.0
C2228 C 0.21594 0.85115 0.16465 0.0
C2229 C 0.21951 0.88361 0.181 0.0
C2230 C 0.22457 0.83555 0.15476 0.0
C2231 C 0.24326 0.83763 0.14649 0.0
C2232 C 0.22633 0.86877 0.16677 0.0
C2233 C 0.25254 0.85593 0.14756 0.0
C2234 C 0.23321 0.89468 0.19161 0.0
C2235 C 0.19397 0.89426 0.20231 0.0
N2236 N 0.24418 0.87071 0.15799 0.0
N2237 N 0.20027 0.88411 0.18638 0.0
H2238 H 0.68366 0.7141 0.65359 0.0
H2239 H 0.5896 0.74133 0.71338 0.0
H2240 H 0.64724 0.76284 0.63648 0.0
H2241 H 0.60811 0.68127 0.70762 0.0
H2242 H 0.61112 0.75028 0.68609 0.0
H2243 H 0.6573 0.70249 0.67507 0.0
C2244 C 0.67014 0.72237 0.65438 0.0
C2245 C 0.66768 0.73957 0.64339 0.0
C2246 C 0.61013 0.73507 0.69049 0.0
C2247 C 0.63759 0.72638 0.66785 0.0
C2248 C 0.59781 0.72996 0.70596 0.0
C2249 C 0.59696 0.71054 0.71251 0.0
C2250 C 0.62217 0.72074 0.68201 0.0
C2251 C 0.60813 0.69635 0.70272 0.0
C2252 C 0.65506 0.71563 0.66647 0.0
C2253 C 0.64976 0.74955 0.64475 0.0
N2254 N 0.62063 0.7018 0.68818 0.0
N2255 N 0.63549 0.74296 0.65697 0.0
H2256 H 0.8528 0.72315 0.84413 0.0
H2257 H 0.78285 0.80751 0.88479 0.0
H2258 H 0.8374 0.77419 0.81019 0.0
H2259 H 0.77392 0.74654 0.89872 0.0
H2260 H 0.81056 0.79826 0.8638 0.0
H2261 H 0.83081 0.73438 0.87023 0.0
C2262 C 0.84487 0.73675 0.84222 0.0
C2263 C 0.8467 0.74763 0.82488 0.0
C2264 C 0.80281 0.787 0.87187 0.0
C2265 C 0.82205 0.76074 0.85481 0.0
C2266 C 0.78721 0.79227 0.88404 0.0
C2267 C 0.7762 0.77772 0.89349 0.0
C2268 C 0.80759 0.76713 0.86958 0.0
C2269 C 0.78213 0.75815 0.89166 0.0
C2270 C 0.83238 0.74313 0.8571 0.0
C2271 C 0.83615 0.76521 0.8232 0.0
N2272 N 0.79741 0.75339 0.87985 0.0
N2273 N 0.8243 0.77126 0.83801 0.0
H2274 H 0.86717 0.24021 0.15774 0.0
H2275 H 0.75488 0.24297 0.12935 0.0
H2276 H 0.82119 0.25327 0.19906 0.0
H2277 H 0.79143 0.19708 0.10575 0.0
H2278 H 0.78205 0.25388 0.14958 0.0
H2279 H 0.84206 0.23052 0.1336 0.0
C2280 C 0.85181 0.24121 0.16162 0.0
C2281 C 0.84614 0.24758 0.18034 0.0
C2282 C 0.78417 0.24151 0.13987 0.0
C2283 C 0.81773 0.2369 0.15298 0.0
C2284 C 0.7687 0.23525 0.12826 0.0
C2285 C 0.7708 0.21885 0.11606 0.0
C2286 C 0.80205 0.23154 0.13913 0.0
C2287 C 0.78919 0.20969 0.11507 0.0
C2288 C 0.8376 0.23557 0.14796 0.0
C2289 C 0.82614 0.2484 0.18481 0.0
N2290 N 0.80421 0.21614 0.12659 0.0
N2291 N 0.81264 0.24329 0.17116 0.0
H2292 H 0.28114 0.34053 0.6837 0.0
H2293 H 0.25049 0.28114 0.59094 0.0
H2294 H 0.2319 0.35831 0.64823 0.0
H2295 H 0.31101 0.2846 0.60869 0.0
H2296 H 0.24314 0.30947 0.61156 0.0
H2297 H 0.29217 0.31926 0.65698 0.0
C2298 C 0.27266 0.33995 0.6703 0.0
C2299 C 0.25543 0.351 0.66827 0.0
C2300 C 0.25813 0.30436 0.61059 0.0
C2301 C 0.268 0.32683 0.63772 0.0
C2302 C 0.26233 0.28829 0.59875 0.0
C2303 C 0.28136 0.28067 0.5981 0.0
C2304 C 0.27296 0.31243 0.62232 0.0
C2305 C 0.29618 0.29023 0.60866 0.0
C2306 C 0.27908 0.32801 0.655 0.0
C2307 C 0.2452 0.34996 0.65047 0.0
N2308 N 0.29158 0.30538 0.62075 0.0
N2309 N 0.25148 0.33786 0.63599 0.0
H2310 H 0.24342 0.75311 0.1302 0.0
H2311 H 0.129 0.75328 0.15316 0.0
H2312 H 0.20514 0.79573 0.10345 0.0
H2313 H 0.17364 0.73655 0.19461 0.0
H2314 H 0.15489 0.76262 0.12976 0.0
H2315 H 0.21569 0.73994 0.14829 0.0
C2316 C 0.2291 0.7596 0.12797 0.0
C2317 C 0.22661 0.77574 0.11553 0.0
C2318 C 0.1589 0.75675 0.14393 0.0
C2319 C 0.19479 0.76065 0.13627 0.0
C2320 C 0.14423 0.75133 0.15719 0.0
C2321 C 0.1493 0.74419 0.17579 0.0
C2322 C 0.17863 0.7545 0.14926 0.0
C2323 C 0.16916 0.74212 0.18045 0.0
C2324 C 0.21331 0.75207 0.13835 0.0
C2325 C 0.20767 0.78334 0.11301 0.0
N2326 N 0.1831 0.74717 0.16724 0.0
N2327 N 0.1924 0.7758 0.12346 0.0
H2328 H 0.73208 0.62816 0.64928 0.0
H2329 H 0.74416 0.72784 0.59069 0.0
H2330 H 0.76713 0.67699 0.6688 0.0
H2331 H 0.68653 0.70277 0.59763 0.0
H2332 H 0.75789 0.70087 0.60966 0.0
H2333 H 0.71991 0.64839 0.62187 0.0
C2334 C 0.73742 0.64301 0.64757 0.0
C2335 C 0.75058 0.65104 0.6612 0.0
C2336 C 0.74231 0.701 0.60657 0.0
C2337 C 0.73725 0.67373 0.63 0.0
C2338 C 0.73448 0.71626 0.59566 0.0
C2339 C 0.71418 0.71758 0.59281 0.0
C2340 C 0.72978 0.6869 0.61463 0.0
C2341 C 0.70227 0.7022 0.5995 0.0
C2342 C 0.73044 0.65447 0.63207 0.0
C2343 C 0.75695 0.67035 0.6586 0.0
N2344 N 0.71024 0.68754 0.61048 0.0
N2345 N 0.75032 0.68101 0.64321 0.0
H2346 H 0.15229 0.21096 0.8121 0.0
H2347 H 0.21785 0.24238 0.90092 0.0
H2348 H 0.14114 0.26461 0.84356 0.0
H2349 H 0.20802 0.18153 0.88715 0.0
H2350 H 0.19006 0.25125 0.88009 0.0
H2351 H 0.17359 0.20014 0.83885 0.0
C2352 C 0.15436 0.22046 0.82464 0.0
C2353 C 0.14514 0.2388 0.82554 0.0
C2354 C 0.19368 0.23592 0.88198 0.0
C2355 C 0.16944 0.22653 0.85611 0.0
C2356 C 0.20945 0.23086 0.89392 0.0
C2357 C 0.21508 0.21122 0.89581 0.0
C2358 C 0.18385 0.22126 0.87144 0.0
C2359 C 0.20395 0.19683 0.88624 0.0
C2360 C 0.16633 0.21419 0.83996 0.0
C2361 C 0.14803 0.25039 0.84227 0.0
N2362 N 0.18908 0.20217 0.87411 0.0
N2363 N 0.16018 0.24419 0.85678 0.0
H2364 H 0.31109 0.7084 0.38214 0.0
H2365 H 0.22764 0.63704 0.34118 0.0
H2366 H 0.25001 0.7149 0.39694 0.0
H2367 H 0.28073 0.64994 0.3093 0.0
H2368 H 0.23802 0.65992 0.36682 0.0
H2369 H 0.30252 0.68076 0.36079 0.0
C2370 C 0.29597 0.70359 0.38139 0.0
C2371 C 0.2812 0.7138 0.39136 0.0
C2372 C 0.2474 0.65765 0.35423 0.0
C2373 C 0.27134 0.68249 0.36695 0.0
C2374 C 0.24152 0.64461 0.33962 0.0
C2375 C 0.25324 0.64178 0.32298 0.0
C2376 C 0.26531 0.66762 0.35238 0.0
C2377 C 0.27111 0.65194 0.32175 0.0
C2378 C 0.29107 0.68802 0.36903 0.0
C2379 C 0.26179 0.70731 0.38951 0.0
N2380 N 0.27663 0.66439 0.33628 0.0
N2381 N 0.25739 0.69208 0.37749 0.0
H2382 H 0.74966 0.3201 0.29097 0.0
H2383 H 0.698 0.28724 0.38914 0.0
H2384 H 0.74236 0.36136 0.33827 0.0
H2385 H 0.73518 0.2487 0.35552 0.0
H2386 H 0.71008 0.31504 0.36948 0.0
H2387 H 0.73985 0.29363 0.31303 0.0
C2388 C 0.74607 0.32355 0.30603 0.0
C2389 C 0.74695 0.34287 0.31288 0.0
C2390 C 0.71561 0.30045 0.36661 0.0
C2391 C 0.73539 0.3128 0.33802 0.0
C2392 C 0.70874 0.28465 0.37776 0.0
C2393 C 0.71545 0.26563 0.37384 0.0
C2394 C 0.72893 0.29701 0.3513 0.0
C2395 C 0.72941 0.26305 0.35895 0.0
C2396 C 0.74053 0.30847 0.3186 0.0
C2397 C 0.74208 0.34658 0.33252 0.0
N2398 N 0.73548 0.2785 0.34809 0.0
N2399 N 0.73629 0.33167 0.34441 0.0
loop_
_geom_bond_atom_site_label_1
_geom_bond_atom_site_label_2
_geom_bond_distance
_geom_bond_site_symmetry_2
_ccdc_geom_bond_type
Co0 O1 2.216 . S
Co0 O2 2.091 . S
Co0 O4 2.004 . S
Co0 O10 2.021 . S
Co0 O12 2.137 . S
Co0 O13 2.244 . S
O1 Co0 2.216 . S
O1 C8 1.247 . S
O2 Co0 2.091 . S
O2 C8 1.261 . S
C3 O12 1.247 . S
C3 O13 1.272 . S
O4 Co0 2.004 . S
O4 C9 1.259 . S
Co5 O6 2.061 . S
Co5 O11 2.052 . S
Co5 O13 2.135 . S
O6 Co5 2.061 . S
O6 C9 1.235 . S
C7 O10 1.238 . S
C7 O11 1.241 . S
C8 O1 1.247 . S
C8 O2 1.261 . S
C9 O4 1.259 . S
C9 O6 1.235 . S
O10 Co0 2.021 . S
O10 C7 1.238 . S
O11 Co5 2.052 . S
O11 C7 1.241 . S
O12 Co0 2.137 . S
O12 C3 1.247 . S
O13 Co0 2.244 . S
O13 C3 1.272 . S
O13 Co5 2.135 . S
Co14 O15 2.216 . S
Co14 O16 2.091 . S
Co14 O18 2.004 . S
Co14 O24 2.021 . S
Co14 O26 2.137 . S
Co14 O27 2.244 . S
O15 Co14 2.216 . S
O15 C22 1.247 . S
O16 Co14 2.091 . S
O16 C22 1.261 . S
C17 O26 1.247 . S
C17 O27 1.272 . S
O18 Co14 2.004 . S
O18 C23 1.259 . S
Co19 O20 2.061 . S
Co19 O25 2.052 . S
Co19 O27 2.135 . S
O20 Co19 2.061 . S
O20 C23 1.235 . S
C21 O24 1.238 . S
C21 O25 1.241 . S
C22 O15 1.247 . S
C22 O16 1.261 . S
C23 O18 1.259 . S
C23 O20 1.235 . S
O24 Co14 2.021 . S
O24 C21 1.238 . S
O25 Co19 2.052 . S
O25 C21 1.241 . S
O26 Co14 2.137 . S
O26 C17 1.247 . S
O27 Co14 2.244 . S
O27 C17 1.272 . S
O27 Co19 2.135 . S
Co28 O29 2.216 . S
Co28 O30 2.091 . S
Co28 O32 2.004 . S
Co28 O38 2.021 . S
Co28 O40 2.137 . S
Co28 O41 2.244 . S
O29 Co28 2.216 . S
O29 C36 1.247 . S
O30 Co28 2.091 . S
O30 C36 1.261 . S
C31 O40 1.247 . S
C31 O41 1.272 . S
O32 Co28 2.004 . S
O32 C37 1.259 . S
Co33 O34 2.061 . S
Co33 O39 2.052 . S
Co33 O41 2.135 . S
O34 Co33 2.061 . S
O34 C37 1.235 . S
C35 O38 1.238 . S
C35 O39 1.241 . S
C36 O29 1.247 . S
C36 O30 1.261 . S
C37 O32 1.259 . S
C37 O34 1.235 . S
O38 Co28 2.021 . S
O38 C35 1.238 . S
O39 Co33 2.052 . S
O39 C35 1.241 . S
O40 Co28 2.137 . S
O40 C31 1.247 . S
O41 Co28 2.244 . S
O41 C31 1.272 . S
O41 Co33 2.135 . S
Co42 O43 2.216 . S
Co42 O44 2.091 . S
Co42 O46 2.004 . S
Co42 O52 2.021 . S
Co42 O54 2.137 . S
Co42 O55 2.244 . S
O43 Co42 2.216 . S
O43 C50 1.247 . S
O44 Co42 2.091 . S
O44 C50 1.261 . S
C45 O54 1.247 . S
C45 O55 1.272 . S
O46 Co42 2.004 . S
O46 C51 1.259 . S
Co47 O48 2.061 . S
Co47 O53 2.052 . S
Co47 O55 2.135 . S
O48 Co47 2.061 . S
O48 C51 1.235 . S
C49 O52 1.238 . S
C49 O53 1.241 . S
C50 O43 1.247 . S
C50 O44 1.261 . S
C51 O46 1.259 . S
C51 O48 1.235 . S
O52 Co42 2.021 . S
O52 C49 1.238 . S
O53 Co47 2.052 . S
O53 C49 1.241 . S
O54 Co42 2.137 . S
O54 C45 1.247 . S
O55 Co42 2.244 . S
O55 C45 1.272 . S
O55 Co47 2.135 . S
Co56 O57 2.216 . S
Co56 O58 2.091 . S
Co56 O60 2.004 . S
Co56 O66 2.021 . S
Co56 O68 2.137 . S
Co56 O69 2.244 . S
O57 Co56 2.216 . S
O57 C64 1.247 . S
O58 Co56 2.091 . S
O58 C64 1.261 . S
C59 O68 1.247 . S
C59 O69 1.272 . S
O60 Co56 2.004 . S
O60 C65 1.259 . S
Co61 O62 2.061 . S
Co61 O67 2.052 . S
Co61 O69 2.135 . S
O62 Co61 2.061 . S
O62 C65 1.235 . S
C63 O66 1.238 . S
C63 O67 1.241 . S
C64 O57 1.247 . S
C64 O58 1.261 . S
C65 O60 1.259 . S
C65 O62 1.235 . S
O66 Co56 2.021 . S
O66 C63 1.238 . S
O67 Co61 2.052 . S
O67 C63 1.241 . S
O68 Co56 2.137 . S
O68 C59 1.247 . S
O69 Co56 2.244 . S
O69 C59 1.272 . S
O69 Co61 2.135 . S
Co70 O71 2.216 . S
Co70 O72 2.091 . S
Co70 O74 2.004 . S
Co70 O80 2.021 . S
Co70 O82 2.137 . S
Co70 O83 2.244 . S
O71 Co70 2.216 . S
O71 C78 1.247 . S
O72 Co70 2.091 . S
O72 C78 1.261 . S
C73 O82 1.247 . S
C73 O83 1.272 . S
O74 Co70 2.004 . S
O74 C79 1.259 . S
Co75 O76 2.061 . S
Co75 O81 2.052 . S
Co75 O83 2.135 . S
O76 Co75 2.061 . S
O76 C79 1.235 . S
C77 O80 1.238 . S
C77 O81 1.241 . S
C78 O71 1.247 . S
C78 O72 1.261 . S
C79 O74 1.259 . S
C79 O76 1.235 . S
O80 Co70 2.021 . S
O80 C77 1.238 . S
O81 Co75 2.052 . S
O81 C77 1.241 . S
O82 Co70 2.137 . S
O82 C73 1.247 . S
O83 Co70 2.244 . S
O83 C73 1.272 . S
O83 Co75 2.135 . S
Co84 O85 2.216 . S
Co84 O86 2.091 . S
Co84 O88 2.004 . S
Co84 O94 2.021 . S
Co84 O96 2.137 . S
Co84 O97 2.244 . S
O85 Co84 2.216 . S
O85 C92 1.247 . S
O86 Co84 2.091 . S
O86 C92 1.261 . S
C87 O96 1.247 . S
C87 O97 1.272 . S
O88 Co84 2.004 . S
O88 C93 1.259 . S
Co89 O90 2.061 . S
Co89 O95 2.052 . S
Co89 O97 2.135 . S
O90 Co89 2.061 . S
O90 C93 1.235 . S
C91 O94 1.238 . S
C91 O95 1.241 . S
C92 O85 1.247 . S
C92 O86 1.261 . S
C93 O88 1.259 . S
C93 O90 1.235 . S
O94 Co84 2.021 . S
O94 C91 1.238 . S
O95 Co89 2.052 . S
O95 C91 1.241 . S
O96 Co84 2.137 . S
O96 C87 1.247 . S
O97 Co84 2.244 . S
O97 C87 1.272 . S
O97 Co89 2.135 . S
Co98 O99 2.216 . S
Co98 O100 2.091 . S
Co98 O102 2.004 . S
Co98 O108 2.021 . S
Co98 O110 2.137 . S
Co98 O111 2.244 . S
O99 Co98 2.216 . S
O99 C106 1.247 . S
O100 Co98 2.091 . S
O100 C106 1.261 . S
C101 O110 1.247 . S
C101 O111 1.272 . S
O102 Co98 2.004 . S
O102 C107 1.259 . S
Co103 O104 2.061 . S
Co103 O109 2.052 . S
Co103 O111 2.135 . S
O104 Co103 2.061 . S
O104 C107 1.235 . S
C105 O108 1.238 . S
C105 O109 1.241 . S
C106 O99 1.247 . S
C106 O100 1.261 . S
C107 O102 1.259 . S
C107 O104 1.235 . S
O108 Co98 2.021 . S
O108 C105 1.238 . S
O109 Co103 2.052 . S
O109 C105 1.241 . S
O110 Co98 2.137 . S
O110 C101 1.247 . S
O111 Co98 2.244 . S
O111 C101 1.272 . S
O111 Co103 2.135 . S
Co112 O113 2.216 . S
Co112 O114 2.091 . S
Co112 O116 2.004 . S
Co112 O122 2.021 . S
Co112 O124 2.137 . S
Co112 O125 2.244 . S
O113 Co112 2.216 . S
O113 C120 1.247 . S
O114 Co112 2.091 . S
O114 C120 1.261 . S
C115 O124 1.247 . S
C115 O125 1.272 . S
O116 Co112 2.004 . S
O116 C121 1.259 . S
Co117 O118 2.061 . S
Co117 O123 2.052 . S
Co117 O125 2.135 . S
O118 Co117 2.061 . S
O118 C121 1.235 . S
C119 O122 1.238 . S
C119 O123 1.241 . S
C120 O113 1.247 . S
C120 O114 1.261 . S
C121 O116 1.259 . S
C121 O118 1.235 . S
O122 Co112 2.021 . S
O122 C119 1.238 . S
O123 Co117 2.052 . S
O123 C119 1.241 . S
O124 Co112 2.137 . S
O124 C115 1.247 . S
O125 Co112 2.244 . S
O125 C115 1.272 . S
O125 Co117 2.135 . S
Co126 O127 2.216 . S
Co126 O128 2.091 . S
Co126 O130 2.004 . S
Co126 O136 2.021 . S
Co126 O138 2.137 . S
Co126 O139 2.244 . S
O127 Co126 2.216 . S
O127 C134 1.247 . S
O128 Co126 2.091 . S
O128 C134 1.261 . S
C129 O138 1.247 . S
C129 O139 1.272 . S
O130 Co126 2.004 . S
O130 C135 1.259 . S
Co131 O132 2.061 . S
Co131 O137 2.052 . S
Co131 O139 2.135 . S
O132 Co131 2.061 . S
O132 C135 1.235 . S
C133 O136 1.238 . S
C133 O137 1.241 . S
C134 O127 1.247 . S
C134 O128 1.261 . S
C135 O130 1.259 . S
C135 O132 1.235 . S
O136 Co126 2.021 . S
O136 C133 1.238 . S
O137 Co131 2.052 . S
O137 C133 1.241 . S
O138 Co126 2.137 . S
O138 C129 1.247 . S
O139 Co126 2.244 . S
O139 C129 1.272 . S
O139 Co131 2.135 . S
Co140 O141 2.216 . S
Co140 O142 2.091 . S
Co140 O144 2.004 . S
Co140 O150 2.021 . S
Co140 O152 2.137 . S
Co140 O153 2.244 . S
O141 Co140 2.216 . S
O141 C148 1.247 . S
O142 Co140 2.091 . S
O142 C148 1.261 . S
C143 O152 1.247 . S
C143 O153 1.272 . S
O144 Co140 2.004 . S
O144 C149 1.259 . S
Co145 O146 2.061 . S
Co145 O151 2.052 . S
Co145 O153 2.135 . S
O146 Co145 2.061 . S
O146 C149 1.235 . S
C147 O150 1.238 . S
C147 O151 1.241 . S
C148 O141 1.247 . S
C148 O142 1.261 . S
C149 O144 1.259 . S
C149 O146 1.235 . S
O150 Co140 2.021 . S
O150 C147 1.238 . S
O151 Co145 2.052 . S
O151 C147 1.241 . S
O152 Co140 2.137 . S
O152 C143 1.247 . S
O153 Co140 2.244 . S
O153 C143 1.272 . S
O153 Co145 2.135 . S
Co154 O155 2.216 . S
Co154 O156 2.091 . S
Co154 O158 2.004 . S
Co154 O164 2.021 . S
Co154 O166 2.137 . S
Co154 O167 2.244 . S
O155 Co154 2.216 . S
O155 C162 1.247 . S
O156 Co154 2.091 . S
O156 C162 1.261 . S
C157 O166 1.247 . S
C157 O167 1.272 . S
O158 Co154 2.004 . S
O158 C163 1.259 . S
Co159 O160 2.061 . S
Co159 O165 2.052 . S
Co159 O167 2.135 . S
O160 Co159 2.061 . S
O160 C163 1.235 . S
C161 O164 1.238 . S
C161 O165 1.241 . S
C162 O155 1.247 . S
C162 O156 1.261 . S
C163 O158 1.259 . S
C163 O160 1.235 . S
O164 Co154 2.021 . S
O164 C161 1.238 . S
O165 Co159 2.052 . S
O165 C161 1.241 . S
O166 Co154 2.137 . S
O166 C157 1.247 . S
O167 Co154 2.244 . S
O167 C157 1.272 . S
O167 Co159 2.135 . S
Co168 O169 2.216 . S
Co168 O170 2.091 . S
Co168 O172 2.004 . S
Co168 O178 2.021 . S
Co168 O180 2.137 . S
Co168 O181 2.244 . S
O169 Co168 2.216 . S
O169 C176 1.247 . S
O170 Co168 2.091 . S
O170 C176 1.261 . S
C171 O180 1.247 . S
C171 O181 1.272 . S
O172 Co168 2.004 . S
O172 C177 1.259 . S
Co173 O174 2.061 . S
Co173 O179 2.052 . S
Co173 O181 2.135 . S
O174 Co173 2.061 . S
O174 C177 1.235 . S
C175 O178 1.238 . S
C175 O179 1.241 . S
C176 O169 1.247 . S
C176 O170 1.261 . S
C177 O172 1.259 . S
C177 O174 1.235 . S
O178 Co168 2.021 . S
O178 C175 1.238 . S
O179 Co173 2.052 . S
O179 C175 1.241 . S
O180 Co168 2.137 . S
O180 C171 1.247 . S
O181 Co168 2.244 . S
O181 C171 1.272 . S
O181 Co173 2.135 . S
Co182 O183 2.216 . S
Co182 O184 2.091 . S
Co182 O186 2.004 . S
Co182 O192 2.021 . S
Co182 O194 2.137 . S
Co182 O195 2.244 . S
O183 Co182 2.216 . S
O183 C190 1.247 . S
O184 Co182 2.091 . S
O184 C190 1.261 . S
C185 O194 1.247 . S
C185 O195 1.272 . S
O186 Co182 2.004 . S
O186 C191 1.259 . S
Co187 O188 2.061 . S
Co187 O193 2.052 . S
Co187 O195 2.135 . S
O188 Co187 2.061 . S
O188 C191 1.235 . S
C189 O192 1.238 . S
C189 O193 1.241 . S
C190 O183 1.247 . S
C190 O184 1.261 . S
C191 O186 1.259 . S
C191 O188 1.235 . S
O192 Co182 2.021 . S
O192 C189 1.238 . S
O193 Co187 2.052 . S
O193 C189 1.241 . S
O194 Co182 2.137 . S
O194 C185 1.247 . S
O195 Co182 2.244 . S
O195 C185 1.272 . S
O195 Co187 2.135 . S
Co196 O197 2.216 . S
Co196 O198 2.091 . S
Co196 O200 2.004 . S
Co196 O206 2.021 . S
Co196 O208 2.137 . S
Co196 O209 2.244 . S
O197 Co196 2.216 . S
O197 C204 1.247 . S
O198 Co196 2.091 . S
O198 C204 1.261 . S
C199 O208 1.247 . S
C199 O209 1.272 . S
O200 Co196 2.004 . S
O200 C205 1.259 . S
Co201 O202 2.061 . S
Co201 O207 2.052 . S
Co201 O209 2.135 . S
O202 Co201 2.061 . S
O202 C205 1.235 . S
C203 O206 1.238 . S
C203 O207 1.241 . S
C204 O197 1.247 . S
C204 O198 1.261 . S
C205 O200 1.259 . S
C205 O202 1.235 . S
O206 Co196 2.021 . S
O206 C203 1.238 . S
O207 Co201 2.052 . S
O207 C203 1.241 . S
O208 Co196 2.137 . S
O208 C199 1.247 . S
O209 Co196 2.244 . S
O209 C199 1.272 . S
O209 Co201 2.135 . S
Co210 O211 2.216 . S
Co210 O212 2.091 . S
Co210 O214 2.004 . S
Co210 O220 2.021 . S
Co210 O222 2.137 . S
Co210 O223 2.244 . S
O211 Co210 2.216 . S
O211 C218 1.247 . S
O212 Co210 2.091 . S
O212 C218 1.261 . S
C213 O222 1.247 . S
C213 O223 1.272 . S
O214 Co210 2.004 . S
O214 C219 1.259 . S
Co215 O216 2.061 . S
Co215 O221 2.052 . S
Co215 O223 2.135 . S
O216 Co215 2.061 . S
O216 C219 1.235 . S
C217 O220 1.238 . S
C217 O221 1.241 . S
C218 O211 1.247 . S
C218 O212 1.261 . S
C219 O214 1.259 . S
C219 O216 1.235 . S
O220 Co210 2.021 . S
O220 C217 1.238 . S
O221 Co215 2.052 . S
O221 C217 1.241 . S
O222 Co210 2.137 . S
O222 C213 1.247 . S
O223 Co210 2.244 . S
O223 C213 1.272 . S
O223 Co215 2.135 . S
Co224 O225 2.216 . S
Co224 O226 2.091 . S
Co224 O228 2.004 . S
Co224 O234 2.021 . S
Co224 O236 2.137 . S
Co224 O237 2.244 . S
O225 Co224 2.216 . S
O225 C232 1.247 . S
O226 Co224 2.091 . S
O226 C232 1.261 . S
C227 O236 1.247 . S
C227 O237 1.272 . S
O228 Co224 2.004 . S
O228 C233 1.259 . S
Co229 O230 2.061 . S
Co229 O235 2.052 . S
Co229 O237 2.135 . S
O230 Co229 2.061 . S
O230 C233 1.235 . S
C231 O234 1.238 . S
C231 O235 1.241 . S
C232 O225 1.247 . S
C232 O226 1.261 . S
C233 O228 1.259 . S
C233 O230 1.235 . S
O234 Co224 2.021 . S
O234 C231 1.238 . S
O235 Co229 2.052 . S
O235 C231 1.241 . S
O236 Co224 2.137 . S
O236 C227 1.247 . S
O237 Co224 2.244 . S
O237 C227 1.272 . S
O237 Co229 2.135 . S
Co238 O239 2.216 . S
Co238 O240 2.091 . S
Co238 O242 2.004 . S
Co238 O248 2.021 . S
Co238 O250 2.137 . S
Co238 O251 2.244 . S
O239 Co238 2.216 . S
O239 C246 1.247 . S
O240 Co238 2.091 . S
O240 C246 1.261 . S
C241 O250 1.247 . S
C241 O251 1.272 . S
O242 Co238 2.004 . S
O242 C247 1.259 . S
Co243 O244 2.061 . S
Co243 O249 2.052 . S
Co243 O251 2.135 . S
O244 Co243 2.061 . S
O244 C247 1.235 . S
C245 O248 1.238 . S
C245 O249 1.241 . S
C246 O239 1.247 . S
C246 O240 1.261 . S
C247 O242 1.259 . S
C247 O244 1.235 . S
O248 Co238 2.021 . S
O248 C245 1.238 . S
O249 Co243 2.052 . S
O249 C245 1.241 . S
O250 Co238 2.137 . S
O250 C241 1.247 . S
O251 Co238 2.244 . S
O251 C241 1.272 . S
O251 Co243 2.135 . S
Co252 O253 2.216 . S
Co252 O254 2.091 . S
Co252 O256 2.004 . S
Co252 O262 2.021 . S
Co252 O264 2.137 . S
Co252 O265 2.244 . S
O253 Co252 2.216 . S
O253 C260 1.247 . S
O254 Co252 2.091 . S
O254 C260 1.261 . S
C255 O264 1.247 . S
C255 O265 1.272 . S
O256 Co252 2.004 . S
O256 C261 1.259 . S
Co257 O258 2.061 . S
Co257 O263 2.052 . S
Co257 O265 2.135 . S
O258 Co257 2.061 . S
O258 C261 1.235 . S
C259 O262 1.238 . S
C259 O263 1.241 . S
C260 O253 1.247 . S
C260 O254 1.261 . S
C261 O256 1.259 . S
C261 O258 1.235 . S
O262 Co252 2.021 . S
O262 C259 1.238 . S
O263 Co257 2.052 . S
O263 C259 1.241 . S
O264 Co252 2.137 . S
O264 C255 1.247 . S
O265 Co252 2.244 . S
O265 C255 1.272 . S
O265 Co257 2.135 . S
Co266 O267 2.216 . S
Co266 O268 2.091 . S
Co266 O270 2.004 . S
Co266 O276 2.021 . S
Co266 O278 2.137 . S
Co266 O279 2.244 . S
O267 Co266 2.216 . S
O267 C274 1.247 . S
O268 Co266 2.091 . S
O268 C274 1.261 . S
C269 O278 1.247 . S
C269 O279 1.272 . S
O270 Co266 2.004 . S
O270 C275 1.259 . S
Co271 O272 2.061 . S
Co271 O277 2.052 . S
Co271 O279 2.135 . S
O272 Co271 2.061 . S
O272 C275 1.235 . S
C273 O276 1.238 . S
C273 O277 1.241 . S
C274 O267 1.247 . S
C274 O268 1.261 . S
C275 O270 1.259 . S
C275 O272 1.235 . S
O276 Co266 2.021 . S
O276 C273 1.238 . S
O277 Co271 2.052 . S
O277 C273 1.241 . S
O278 Co266 2.137 . S
O278 C269 1.247 . S
O279 Co266 2.244 . S
O279 C269 1.272 . S
O279 Co271 2.135 . S
Co280 O281 2.216 . S
Co280 O282 2.091 . S
Co280 O284 2.004 . S
Co280 O290 2.021 . S
Co280 O292 2.137 . S
Co280 O293 2.244 . S
O281 Co280 2.216 . S
O281 C288 1.247 . S
O282 Co280 2.091 . S
O282 C288 1.261 . S
C283 O292 1.247 . S
C283 O293 1.272 . S
O284 Co280 2.004 . S
O284 C289 1.259 . S
Co285 O286 2.061 . S
Co285 O291 2.052 . S
Co285 O293 2.135 . S
O286 Co285 2.061 . S
O286 C289 1.235 . S
C287 O290 1.238 . S
C287 O291 1.241 . S
C288 O281 1.247 . S
C288 O282 1.261 . S
C289 O284 1.259 . S
C289 O286 1.235 . S
O290 Co280 2.021 . S
O290 C287 1.238 . S
O291 Co285 2.052 . S
O291 C287 1.241 . S
O292 Co280 2.137 . S
O292 C283 1.247 . S
O293 Co280 2.244 . S
O293 C283 1.272 . S
O293 Co285 2.135 . S
Co294 O295 2.216 . S
Co294 O296 2.091 . S
Co294 O298 2.004 . S
Co294 O304 2.021 . S
Co294 O306 2.137 . S
Co294 O307 2.244 . S
O295 Co294 2.216 . S
O295 C302 1.247 . S
O296 Co294 2.091 . S
O296 C302 1.261 . S
C297 O306 1.247 . S
C297 O307 1.272 . S
O298 Co294 2.004 . S
O298 C303 1.259 . S
Co299 O300 2.061 . S
Co299 O305 2.052 . S
Co299 O307 2.135 . S
O300 Co299 2.061 . S
O300 C303 1.235 . S
C301 O304 1.238 . S
C301 O305 1.241 . S
C302 O295 1.247 . S
C302 O296 1.261 . S
C303 O298 1.259 . S
C303 O300 1.235 . S
O304 Co294 2.021 . S
O304 C301 1.238 . S
O305 Co299 2.052 . S
O305 C301 1.241 . S
O306 Co294 2.137 . S
O306 C297 1.247 . S
O307 Co294 2.244 . S
O307 C297 1.272 . S
O307 Co299 2.135 . S
Co308 O309 2.216 . S
Co308 O310 2.091 . S
Co308 O312 2.004 . S
Co308 O318 2.021 . S
Co308 O320 2.137 . S
Co308 O321 2.244 . S
O309 Co308 2.216 . S
O309 C316 1.247 . S
O310 Co308 2.091 . S
O310 C316 1.261 . S
C311 O320 1.247 . S
C311 O321 1.272 . S
O312 Co308 2.004 . S
O312 C317 1.259 . S
Co313 O314 2.061 . S
Co313 O319 2.052 . S
Co313 O321 2.135 . S
O314 Co313 2.061 . S
O314 C317 1.235 . S
C315 O318 1.238 . S
C315 O319 1.241 . S
C316 O309 1.247 . S
C316 O310 1.261 . S
C317 O312 1.259 . S
C317 O314 1.235 . S
O318 Co308 2.021 . S
O318 C315 1.238 . S
O319 Co313 2.052 . S
O319 C315 1.241 . S
O320 Co308 2.137 . S
O320 C311 1.247 . S
O321 Co308 2.244 . S
O321 C311 1.272 . S
O321 Co313 2.135 . S
Co322 O323 2.216 . S
Co322 O324 2.091 . S
Co322 O326 2.004 . S
Co322 O332 2.021 . S
Co322 O334 2.137 . S
Co322 O335 2.244 . S
O323 Co322 2.216 . S
O323 C330 1.247 . S
O324 Co322 2.091 . S
O324 C330 1.261 . S
C325 O334 1.247 . S
C325 O335 1.272 . S
O326 Co322 2.004 . S
O326 C331 1.259 . S
Co327 O328 2.061 . S
Co327 O333 2.052 . S
Co327 O335 2.135 . S
O328 Co327 2.061 . S
O328 C331 1.235 . S
C329 O332 1.238 . S
C329 O333 1.241 . S
C330 O323 1.247 . S
C330 O324 1.261 . S
C331 O326 1.259 . S
C331 O328 1.235 . S
O332 Co322 2.021 . S
O332 C329 1.238 . S
O333 Co327 2.052 . S
O333 C329 1.241 . S
O334 Co322 2.137 . S
O334 C325 1.247 . S
O335 Co322 2.244 . S
O335 C325 1.272 . S
O335 Co327 2.135 . S
Co336 O337 2.216 . S
Co336 O338 2.091 . S
Co336 O340 2.004 . S
Co336 O346 2.021 . S
Co336 O348 2.137 . S
Co336 O349 2.244 . S
O337 Co336 2.216 . S
O337 C344 1.247 . S
O338 Co336 2.091 . S
O338 C344 1.261 . S
C339 O348 1.247 . S
C339 O349 1.272 . S
O340 Co336 2.004 . S
O340 C345 1.259 . S
Co341 O342 2.061 . S
Co341 O347 2.052 . S
Co341 O349 2.135 . S
O342 Co341 2.061 . S
O342 C345 1.235 . S
C343 O346 1.238 . S
C343 O347 1.241 . S
C344 O337 1.247 . S
C344 O338 1.261 . S
C345 O340 1.259 . S
C345 O342 1.235 . S
O346 Co336 2.021 . S
O346 C343 1.238 . S
O347 Co341 2.052 . S
O347 C343 1.241 . S
O348 Co336 2.137 . S
O348 C339 1.247 . S
O349 Co336 2.244 . S
O349 C339 1.272 . S
O349 Co341 2.135 . S
Co350 O351 2.216 . S
Co350 O352 2.091 . S
Co350 O354 2.004 . S
Co350 O360 2.021 . S
Co350 O362 2.137 . S
Co350 O363 2.244 . S
O351 Co350 2.216 . S
O351 C358 1.247 . S
O352 Co350 2.091 . S
O352 C358 1.261 . S
C353 O362 1.247 . S
C353 O363 1.272 . S
O354 Co350 2.004 . S
O354 C359 1.259 . S
Co355 O356 2.061 . S
Co355 O361 2.052 . S
Co355 O363 2.135 . S
O356 Co355 2.061 . S
O356 C359 1.235 . S
C357 O360 1.238 . S
C357 O361 1.241 . S
C358 O351 1.247 . S
C358 O352 1.261 . S
C359 O354 1.259 . S
C359 O356 1.235 . S
O360 Co350 2.021 . S
O360 C357 1.238 . S
O361 Co355 2.052 . S
O361 C357 1.241 . S
O362 Co350 2.137 . S
O362 C353 1.247 . S
O363 Co350 2.244 . S
O363 C353 1.272 . S
O363 Co355 2.135 . S
Co364 O365 2.216 . S
Co364 O366 2.091 . S
Co364 O368 2.004 . S
Co364 O374 2.021 . S
Co364 O376 2.137 . S
Co364 O377 2.244 . S
O365 Co364 2.216 . S
O365 C372 1.247 . S
O366 Co364 2.091 . S
O366 C372 1.261 . S
C367 O376 1.247 . S
C367 O377 1.272 . S
O368 Co364 2.004 . S
O368 C373 1.259 . S
Co369 O370 2.061 . S
Co369 O375 2.052 . S
Co369 O377 2.135 . S
O370 Co369 2.061 . S
O370 C373 1.235 . S
C371 O374 1.238 . S
C371 O375 1.241 . S
C372 O365 1.247 . S
C372 O366 1.261 . S
C373 O368 1.259 . S
C373 O370 1.235 . S
O374 Co364 2.021 . S
O374 C371 1.238 . S
O375 Co369 2.052 . S
O375 C371 1.241 . S
O376 Co364 2.137 . S
O376 C367 1.247 . S
O377 Co364 2.244 . S
O377 C367 1.272 . S
O377 Co369 2.135 . S
Co378 O379 2.216 . S
Co378 O380 2.091 . S
Co378 O382 2.004 . S
Co378 O388 2.021 . S
Co378 O390 2.137 . S
Co378 O391 2.244 . S
O379 Co378 2.216 . S
O379 C386 1.247 . S
O380 Co378 2.091 . S
O380 C386 1.261 . S
C381 O390 1.247 . S
C381 O391 1.272 . S
O382 Co378 2.004 . S
O382 C387 1.259 . S
Co383 O384 2.061 . S
Co383 O389 2.052 . S
Co383 O391 2.135 . S
O384 Co383 2.061 . S
O384 C387 1.235 . S
C385 O388 1.238 . S
C385 O389 1.241 . S
C386 O379 1.247 . S
C386 O380 1.261 . S
C387 O382 1.259 . S
C387 O384 1.235 . S
O388 Co378 2.021 . S
O388 C385 1.238 . S
O389 Co383 2.052 . S
O389 C385 1.241 . S
O390 Co378 2.137 . S
O390 C381 1.247 . S
O391 Co378 2.244 . S
O391 C381 1.272 . S
O391 Co383 2.135 . S
Co392 O393 2.216 . S
Co392 O394 2.091 . S
Co392 O396 2.004 . S
Co392 O402 2.021 . S
Co392 O404 2.137 . S
Co392 O405 2.244 . S
O393 Co392 2.216 . S
O393 C400 1.247 . S
O394 Co392 2.091 . S
O394 C400 1.261 . S
C395 O404 1.247 . S
C395 O405 1.272 . S
O396 Co392 2.004 . S
O396 C401 1.259 . S
Co397 O398 2.061 . S
Co397 O403 2.052 . S
Co397 O405 2.135 . S
O398 Co397 2.061 . S
O398 C401 1.235 . S
C399 O402 1.238 . S
C399 O403 1.241 . S
C400 O393 1.247 . S
C400 O394 1.261 . S
C401 O396 1.259 . S
C401 O398 1.235 . S
O402 Co392 2.021 . S
O402 C399 1.238 . S
O403 Co397 2.052 . S
O403 C399 1.241 . S
O404 Co392 2.137 . S
O404 C395 1.247 . S
O405 Co392 2.244 . S
O405 C395 1.272 . S
O405 Co397 2.135 . S
Co406 O407 2.216 . S
Co406 O408 2.091 . S
Co406 O410 2.004 . S
Co406 O416 2.021 . S
Co406 O418 2.137 . S
Co406 O419 2.244 . S
O407 Co406 2.216 . S
O407 C414 1.247 . S
O408 Co406 2.091 . S
O408 C414 1.261 . S
C409 O418 1.247 . S
C409 O419 1.272 . S
O410 Co406 2.004 . S
O410 C415 1.259 . S
Co411 O412 2.061 . S
Co411 O417 2.052 . S
Co411 O419 2.135 . S
O412 Co411 2.061 . S
O412 C415 1.235 . S
C413 O416 1.238 . S
C413 O417 1.241 . S
C414 O407 1.247 . S
C414 O408 1.261 . S
C415 O410 1.259 . S
C415 O412 1.235 . S
O416 Co406 2.021 . S
O416 C413 1.238 . S
O417 Co411 2.052 . S
O417 C413 1.241 . S
O418 Co406 2.137 . S
O418 C409 1.247 . S
O419 Co406 2.244 . S
O419 C409 1.272 . S
O419 Co411 2.135 . S
Co420 O421 2.216 . S
Co420 O422 2.091 . S
Co420 O424 2.004 . S
Co420 O430 2.021 . S
Co420 O432 2.137 . S
Co420 O433 2.244 . S
O421 Co420 2.216 . S
O421 C428 1.247 . S
O422 Co420 2.091 . S
O422 C428 1.261 . S
C423 O432 1.247 . S
C423 O433 1.272 . S
O424 Co420 2.004 . S
O424 C429 1.259 . S
Co425 O426 2.061 . S
Co425 O431 2.052 . S
Co425 O433 2.135 . S
O426 Co425 2.061 . S
O426 C429 1.235 . S
C427 O430 1.238 . S
C427 O431 1.241 . S
C428 O421 1.247 . S
C428 O422 1.261 . S
C429 O424 1.259 . S
C429 O426 1.235 . S
O430 Co420 2.021 . S
O430 C427 1.238 . S
O431 Co425 2.052 . S
O431 C427 1.241 . S
O432 Co420 2.137 . S
O432 C423 1.247 . S
O433 Co420 2.244 . S
O433 C423 1.272 . S
O433 Co425 2.135 . S
Co434 O435 2.216 . S
Co434 O436 2.091 . S
Co434 O438 2.004 . S
Co434 O444 2.021 . S
Co434 O446 2.137 . S
Co434 O447 2.244 . S
O435 Co434 2.216 . S
O435 C442 1.247 . S
O436 Co434 2.091 . S
O436 C442 1.261 . S
C437 O446 1.247 . S
C437 O447 1.272 . S
O438 Co434 2.004 . S
O438 C443 1.259 . S
Co439 O440 2.061 . S
Co439 O445 2.052 . S
Co439 O447 2.135 . S
O440 Co439 2.061 . S
O440 C443 1.235 . S
C441 O444 1.238 . S
C441 O445 1.241 . S
C442 O435 1.247 . S
C442 O436 1.261 . S
C443 O438 1.259 . S
C443 O440 1.235 . S
O444 Co434 2.021 . S
O444 C441 1.238 . S
O445 Co439 2.052 . S
O445 C441 1.241 . S
O446 Co434 2.137 . S
O446 C437 1.247 . S
O447 Co434 2.244 . S
O447 C437 1.272 . S
O447 Co439 2.135 . S
Co448 O449 2.216 . S
Co448 O450 2.091 . S
Co448 O452 2.004 . S
Co448 O458 2.021 . S
Co448 O460 2.137 . S
Co448 O461 2.244 . S
O449 Co448 2.216 . S
O449 C456 1.247 . S
O450 Co448 2.091 . S
O450 C456 1.261 . S
C451 O460 1.247 . S
C451 O461 1.272 . S
O452 Co448 2.004 . S
O452 C457 1.259 . S
Co453 O454 2.061 . S
Co453 O459 2.052 . S
Co453 O461 2.135 . S
O454 Co453 2.061 . S
O454 C457 1.235 . S
C455 O458 1.238 . S
C455 O459 1.241 . S
C456 O449 1.247 . S
C456 O450 1.261 . S
C457 O452 1.259 . S
C457 O454 1.235 . S
O458 Co448 2.021 . S
O458 C455 1.238 . S
O459 Co453 2.052 . S
O459 C455 1.241 . S
O460 Co448 2.137 . S
O460 C451 1.247 . S
O461 Co448 2.244 . S
O461 C451 1.272 . S
O461 Co453 2.135 . S
Co462 O463 2.216 . S
Co462 O464 2.091 . S
Co462 O466 2.004 . S
Co462 O472 2.021 . S
Co462 O474 2.137 . S
Co462 O475 2.244 . S
O463 Co462 2.216 . S
O463 C470 1.247 . S
O464 Co462 2.091 . S
O464 C470 1.261 . S
C465 O474 1.247 . S
C465 O475 1.272 . S
O466 Co462 2.004 . S
O466 C471 1.259 . S
Co467 O468 2.061 . S
Co467 O473 2.052 . S
Co467 O475 2.135 . S
O468 Co467 2.061 . S
O468 C471 1.235 . S
C469 O472 1.238 . S
C469 O473 1.241 . S
C470 O463 1.247 . S
C470 O464 1.261 . S
C471 O466 1.259 . S
C471 O468 1.235 . S
O472 Co462 2.021 . S
O472 C469 1.238 . S
O473 Co467 2.052 . S
O473 C469 1.241 . S
O474 Co462 2.137 . S
O474 C465 1.247 . S
O475 Co462 2.244 . S
O475 C465 1.272 . S
O475 Co467 2.135 . S
Co476 O477 2.216 . S
Co476 O478 2.091 . S
Co476 O480 2.004 . S
Co476 O486 2.021 . S
Co476 O488 2.137 . S
Co476 O489 2.244 . S
O477 Co476 2.216 . S
O477 C484 1.247 . S
O478 Co476 2.091 . S
O478 C484 1.261 . S
C479 O488 1.247 . S
C479 O489 1.272 . S
O480 Co476 2.004 . S
O480 C485 1.259 . S
Co481 O482 2.061 . S
Co481 O487 2.052 . S
Co481 O489 2.135 . S
O482 Co481 2.061 . S
O482 C485 1.235 . S
C483 O486 1.238 . S
C483 O487 1.241 . S
C484 O477 1.247 . S
C484 O478 1.261 . S
C485 O480 1.259 . S
C485 O482 1.235 . S
O486 Co476 2.021 . S
O486 C483 1.238 . S
O487 Co481 2.052 . S
O487 C483 1.241 . S
O488 Co476 2.137 . S
O488 C479 1.247 . S
O489 Co476 2.244 . S
O489 C479 1.272 . S
O489 Co481 2.135 . S
Co490 O491 2.216 . S
Co490 O492 2.091 . S
Co490 O494 2.004 . S
Co490 O500 2.021 . S
Co490 O502 2.137 . S
Co490 O503 2.244 . S
O491 Co490 2.216 . S
O491 C498 1.247 . S
O492 Co490 2.091 . S
O492 C498 1.261 . S
C493 O502 1.247 . S
C493 O503 1.272 . S
O494 Co490 2.004 . S
O494 C499 1.259 . S
Co495 O496 2.061 . S
Co495 O501 2.052 . S
Co495 O503 2.135 . S
O496 Co495 2.061 . S
O496 C499 1.235 . S
C497 O500 1.238 . S
C497 O501 1.241 . S
C498 O491 1.247 . S
C498 O492 1.261 . S
C499 O494 1.259 . S
C499 O496 1.235 . S
O500 Co490 2.021 . S
O500 C497 1.238 . S
O501 Co495 2.052 . S
O501 C497 1.241 . S
O502 Co490 2.137 . S
O502 C493 1.247 . S
O503 Co490 2.244 . S
O503 C493 1.272 . S
O503 Co495 2.135 . S
Co504 O505 2.216 . S
Co504 O506 2.091 . S
Co504 O508 2.004 . S
Co504 O514 2.021 . S
Co504 O516 2.137 . S
Co504 O517 2.244 . S
O505 Co504 2.216 . S
O505 C512 1.247 . S
O506 Co504 2.091 . S
O506 C512 1.261 . S
C507 O516 1.247 . S
C507 O517 1.272 . S
O508 Co504 2.004 . S
O508 C513 1.259 . S
Co509 O510 2.061 . S
Co509 O515 2.052 . S
Co509 O517 2.135 . S
O510 Co509 2.061 . S
O510 C513 1.235 . S
C511 O514 1.238 . S
C511 O515 1.241 . S
C512 O505 1.247 . S
C512 O506 1.261 . S
C513 O508 1.259 . S
C513 O510 1.235 . S
O514 Co504 2.021 . S
O514 C511 1.238 . S
O515 Co509 2.052 . S
O515 C511 1.241 . S
O516 Co504 2.137 . S
O516 C507 1.247 . S
O517 Co504 2.244 . S
O517 C507 1.272 . S
O517 Co509 2.135 . S
Co518 O519 2.216 . S
Co518 O520 2.091 . S
Co518 O522 2.004 . S
Co518 O528 2.021 . S
Co518 O530 2.137 . S
Co518 O531 2.244 . S
O519 Co518 2.216 . S
O519 C526 1.247 . S
O520 Co518 2.091 . S
O520 C526 1.261 . S
C521 O530 1.247 . S
C521 O531 1.272 . S
O522 Co518 2.004 . S
O522 C527 1.259 . S
Co523 O524 2.061 . S
Co523 O529 2.052 . S
Co523 O531 2.135 . S
O524 Co523 2.061 . S
O524 C527 1.235 . S
C525 O528 1.238 . S
C525 O529 1.241 . S
C526 O519 1.247 . S
C526 O520 1.261 . S
C527 O522 1.259 . S
C527 O524 1.235 . S
O528 Co518 2.021 . S
O528 C525 1.238 . S
O529 Co523 2.052 . S
O529 C525 1.241 . S
O530 Co518 2.137 . S
O530 C521 1.247 . S
O531 Co518 2.244 . S
O531 C521 1.272 . S
O531 Co523 2.135 . S
Co532 O533 2.216 . S
Co532 O534 2.091 . S
Co532 O536 2.004 . S
Co532 O542 2.021 . S
Co532 O544 2.137 . S
Co532 O545 2.244 . S
O533 Co532 2.216 . S
O533 C540 1.247 . S
O534 Co532 2.091 . S
O534 C540 1.261 . S
C535 O544 1.247 . S
C535 O545 1.272 . S
O536 Co532 2.004 . S
O536 C541 1.259 . S
Co537 O538 2.061 . S
Co537 O543 2.052 . S
Co537 O545 2.135 . S
O538 Co537 2.061 . S
O538 C541 1.235 . S
C539 O542 1.238 . S
C539 O543 1.241 . S
C540 O533 1.247 . S
C540 O534 1.261 . S
C541 O536 1.259 . S
C541 O538 1.235 . S
O542 Co532 2.021 . S
O542 C539 1.238 . S
O543 Co537 2.052 . S
O543 C539 1.241 . S
O544 Co532 2.137 . S
O544 C535 1.247 . S
O545 Co532 2.244 . S
O545 C535 1.272 . S
O545 Co537 2.135 . S
Co546 O547 2.216 . S
Co546 O548 2.091 . S
Co546 O550 2.004 . S
Co546 O556 2.021 . S
Co546 O558 2.137 . S
Co546 O559 2.244 . S
O547 Co546 2.216 . S
O547 C554 1.247 . S
O548 Co546 2.091 . S
O548 C554 1.261 . S
C549 O558 1.247 . S
C549 O559 1.272 . S
O550 Co546 2.004 . S
O550 C555 1.259 . S
Co551 O552 2.061 . S
Co551 O557 2.052 . S
Co551 O559 2.135 . S
O552 Co551 2.061 . S
O552 C555 1.235 . S
C553 O556 1.238 . S
C553 O557 1.241 . S
C554 O547 1.247 . S
C554 O548 1.261 . S
C555 O550 1.259 . S
C555 O552 1.235 . S
O556 Co546 2.021 . S
O556 C553 1.238 . S
O557 Co551 2.052 . S
O557 C553 1.241 . S
O558 Co546 2.137 . S
O558 C549 1.247 . S
O559 Co546 2.244 . S
O559 C549 1.272 . S
O559 Co551 2.135 . S
Co560 O561 2.216 . S
Co560 O562 2.091 . S
Co560 O564 2.004 . S
Co560 O570 2.021 . S
Co560 O572 2.137 . S
Co560 O573 2.244 . S
O561 Co560 2.216 . S
O561 C568 1.247 . S
O562 Co560 2.091 . S
O562 C568 1.261 . S
C563 O572 1.247 . S
C563 O573 1.272 . S
O564 Co560 2.004 . S
O564 C569 1.259 . S
Co565 O566 2.061 . S
Co565 O571 2.052 . S
Co565 O573 2.135 . S
O566 Co565 2.061 . S
O566 C569 1.235 . S
C567 O570 1.238 . S
C567 O571 1.241 . S
C568 O561 1.247 . S
C568 O562 1.261 . S
C569 O564 1.259 . S
C569 O566 1.235 . S
O570 Co560 2.021 . S
O570 C567 1.238 . S
O571 Co565 2.052 . S
O571 C567 1.241 . S
O572 Co560 2.137 . S
O572 C563 1.247 . S
O573 Co560 2.244 . S
O573 C563 1.272 . S
O573 Co565 2.135 . S
Co574 O575 2.216 . S
Co574 O576 2.091 . S
Co574 O578 2.004 . S
Co574 O584 2.021 . S
Co574 O586 2.137 . S
Co574 O587 2.244 . S
O575 Co574 2.216 . S
O575 C582 1.247 . S
O576 Co574 2.091 . S
O576 C582 1.261 . S
C577 O586 1.247 . S
C577 O587 1.272 . S
O578 Co574 2.004 . S
O578 C583 1.259 . S
Co579 O580 2.061 . S
Co579 O585 2.052 . S
Co579 O587 2.135 . S
O580 Co579 2.061 . S
O580 C583 1.235 . S
C581 O584 1.238 . S
C581 O585 1.241 . S
C582 O575 1.247 . S
C582 O576 1.261 . S
C583 O578 1.259 . S
C583 O580 1.235 . S
O584 Co574 2.021 . S
O584 C581 1.238 . S
O585 Co579 2.052 . S
O585 C581 1.241 . S
O586 Co574 2.137 . S
O586 C577 1.247 . S
O587 Co574 2.244 . S
O587 C577 1.272 . S
O587 Co579 2.135 . S
Co588 O589 2.216 . S
Co588 O590 2.091 . S
Co588 O592 2.004 . S
Co588 O598 2.021 . S
Co588 O600 2.137 . S
Co588 O601 2.244 . S
O589 Co588 2.216 . S
O589 C596 1.247 . S
O590 Co588 2.091 . S
O590 C596 1.261 . S
C591 O600 1.247 . S
C591 O601 1.272 . S
O592 Co588 2.004 . S
O592 C597 1.259 . S
Co593 O594 2.061 . S
Co593 O599 2.052 . S
Co593 O601 2.135 . S
O594 Co593 2.061 . S
O594 C597 1.235 . S
C595 O598 1.238 . S
C595 O599 1.241 . S
C596 O589 1.247 . S
C596 O590 1.261 . S
C597 O592 1.259 . S
C597 O594 1.235 . S
O598 Co588 2.021 . S
O598 C595 1.238 . S
O599 Co593 2.052 . S
O599 C595 1.241 . S
O600 Co588 2.137 . S
O600 C591 1.247 . S
O601 Co588 2.244 . S
O601 C591 1.272 . S
O601 Co593 2.135 . S
Co602 O603 2.216 . S
Co602 O604 2.091 . S
Co602 O606 2.004 . S
Co602 O612 2.021 . S
Co602 O614 2.137 . S
Co602 O615 2.244 . S
O603 Co602 2.216 . S
O603 C610 1.247 . S
O604 Co602 2.091 . S
O604 C610 1.261 . S
C605 O614 1.247 . S
C605 O615 1.272 . S
O606 Co602 2.004 . S
O606 C611 1.259 . S
Co607 O608 2.061 . S
Co607 O613 2.052 . S
Co607 O615 2.135 . S
O608 Co607 2.061 . S
O608 C611 1.235 . S
C609 O612 1.238 . S
C609 O613 1.241 . S
C610 O603 1.247 . S
C610 O604 1.261 . S
C611 O606 1.259 . S
C611 O608 1.235 . S
O612 Co602 2.021 . S
O612 C609 1.238 . S
O613 Co607 2.052 . S
O613 C609 1.241 . S
O614 Co602 2.137 . S
O614 C605 1.247 . S
O615 Co602 2.244 . S
O615 C605 1.272 . S
O615 Co607 2.135 . S
Co616 O617 2.216 . S
Co616 O618 2.091 . S
Co616 O620 2.004 . S
Co616 O626 2.021 . S
Co616 O628 2.137 . S
Co616 O629 2.244 . S
O617 Co616 2.216 . S
O617 C624 1.247 . S
O618 Co616 2.091 . S
O618 C624 1.261 . S
C619 O628 1.247 . S
C619 O629 1.272 . S
O620 Co616 2.004 . S
O620 C625 1.259 . S
Co621 O622 2.061 . S
Co621 O627 2.052 . S
Co621 O629 2.135 . S
O622 Co621 2.061 . S
O622 C625 1.235 . S
C623 O626 1.238 . S
C623 O627 1.241 . S
C624 O617 1.247 . S
C624 O618 1.261 . S
C625 O620 1.259 . S
C625 O622 1.235 . S
O626 Co616 2.021 . S
O626 C623 1.238 . S
O627 Co621 2.052 . S
O627 C623 1.241 . S
O628 Co616 2.137 . S
O628 C619 1.247 . S
O629 Co616 2.244 . S
O629 C619 1.272 . S
O629 Co621 2.135 . S
Co630 O631 2.216 . S
Co630 O632 2.091 . S
Co630 O634 2.004 . S
Co630 O640 2.021 . S
Co630 O642 2.137 . S
Co630 O643 2.244 . S
O631 Co630 2.216 . S
O631 C638 1.247 . S
O632 Co630 2.091 . S
O632 C638 1.261 . S
C633 O642 1.247 . S
C633 O643 1.272 . S
O634 Co630 2.004 . S
O634 C639 1.259 . S
Co635 O636 2.061 . S
Co635 O641 2.052 . S
Co635 O643 2.135 . S
O636 Co635 2.061 . S
O636 C639 1.235 . S
C637 O640 1.238 . S
C637 O641 1.241 . S
C638 O631 1.247 . S
C638 O632 1.261 . S
C639 O634 1.259 . S
C639 O636 1.235 . S
O640 Co630 2.021 . S
O640 C637 1.238 . S
O641 Co635 2.052 . S
O641 C637 1.241 . S
O642 Co630 2.137 . S
O642 C633 1.247 . S
O643 Co630 2.244 . S
O643 C633 1.272 . S
O643 Co635 2.135 . S
Co644 O645 2.216 . S
Co644 O646 2.091 . S
Co644 O648 2.004 . S
Co644 O654 2.021 . S
Co644 O656 2.137 . S
Co644 O657 2.244 . S
O645 Co644 2.216 . S
O645 C652 1.247 . S
O646 Co644 2.091 . S
O646 C652 1.261 . S
C647 O656 1.247 . S
C647 O657 1.272 . S
O648 Co644 2.004 . S
O648 C653 1.259 . S
Co649 O650 2.061 . S
Co649 O655 2.052 . S
Co649 O657 2.135 . S
O650 Co649 2.061 . S
O650 C653 1.235 . S
C651 O654 1.238 . S
C651 O655 1.241 . S
C652 O645 1.247 . S
C652 O646 1.261 . S
C653 O648 1.259 . S
C653 O650 1.235 . S
O654 Co644 2.021 . S
O654 C651 1.238 . S
O655 Co649 2.052 . S
O655 C651 1.241 . S
O656 Co644 2.137 . S
O656 C647 1.247 . S
O657 Co644 2.244 . S
O657 C647 1.272 . S
O657 Co649 2.135 . S
Co658 O659 2.216 . S
Co658 O660 2.091 . S
Co658 O662 2.004 . S
Co658 O668 2.021 . S
Co658 O670 2.137 . S
Co658 O671 2.244 . S
O659 Co658 2.216 . S
O659 C666 1.247 . S
O660 Co658 2.091 . S
O660 C666 1.261 . S
C661 O670 1.247 . S
C661 O671 1.272 . S
O662 Co658 2.004 . S
O662 C667 1.259 . S
Co663 O664 2.061 . S
Co663 O669 2.052 . S
Co663 O671 2.135 . S
O664 Co663 2.061 . S
O664 C667 1.235 . S
C665 O668 1.238 . S
C665 O669 1.241 . S
C666 O659 1.247 . S
C666 O660 1.261 . S
C667 O662 1.259 . S
C667 O664 1.235 . S
O668 Co658 2.021 . S
O668 C665 1.238 . S
O669 Co663 2.052 . S
O669 C665 1.241 . S
O670 Co658 2.137 . S
O670 C661 1.247 . S
O671 Co658 2.244 . S
O671 C661 1.272 . S
O671 Co663 2.135 . S
H672 C678 0.930 . S
H673 C682 0.930 . S
H674 C687 0.929 . S
H675 C685 0.929 . S
H676 C680 0.929 . S
H677 C686 0.929 . S
C678 H672 0.930 . S
C678 C679 1.367 . S
C678 C686 1.378 . S
C679 C678 1.367 . S
C679 C687 1.433 . S
C680 H676 0.929 . S
C680 C682 1.378 . S
C680 C684 1.350 . S
C681 C684 1.463 1_655 S
C681 C686 1.350 . S
C681 N689 1.427 . S
C682 H673 0.930 . S
C682 C680 1.378 . S
C682 C683 1.367 . S
C683 C682 1.367 . S
C683 C685 1.433 . S
C684 C680 1.350 . S
C684 C681 1.463 1_455 S
C684 N688 1.427 . S
C685 H675 0.929 . S
C685 C683 1.433 . S
C685 N688 1.384 . S
C686 H677 0.929 . S
C686 C678 1.378 . S
C686 C681 1.350 . S
C687 H674 0.929 . S
C687 C679 1.433 . S
C687 N689 1.384 . S
N688 C684 1.427 . S
N688 C685 1.384 . S
N689 C681 1.427 . S
N689 C687 1.384 . S
H690 C696 0.930 . S
H691 C700 0.930 . S
H692 C705 0.929 . S
H693 C703 0.929 . S
H694 C698 0.929 . S
H695 C704 0.929 . S
C696 H690 0.930 . S
C696 C697 1.367 . S
C696 C704 1.378 . S
C697 C696 1.367 . S
C697 C705 1.433 . S
C698 H694 0.929 . S
C698 C700 1.378 . S
C698 C702 1.350 . S
C699 C702 1.463 . S
C699 C704 1.350 . S
C699 N707 1.427 . S
C700 H691 0.930 . S
C700 C698 1.378 . S
C700 C701 1.367 . S
C701 C700 1.367 . S
C701 C703 1.433 . S
C702 C698 1.350 . S
C702 C699 1.463 . S
C702 N706 1.427 . S
C703 H693 0.929 . S
C703 C701 1.433 . S
C703 N706 1.384 . S
C704 H695 0.929 . S
C704 C696 1.378 . S
C704 C699 1.350 . S
C705 H692 0.929 . S
C705 C697 1.433 . S
C705 N707 1.384 . S
N706 C702 1.427 . S
N706 C703 1.384 . S
N707 C699 1.427 . S
N707 C705 1.384 . S
H708 C714 0.930 . S
H709 C718 0.930 . S
H710 C723 0.929 . S
H711 C721 0.929 . S
H712 C716 0.929 . S
H713 C722 0.929 . S
C714 H708 0.930 . S
C714 C715 1.367 . S
C714 C722 1.378 . S
C715 C714 1.367 . S
C715 C723 1.433 . S
C716 H712 0.929 . S
C716 C718 1.378 . S
C716 C720 1.350 . S
C717 C720 1.463 1_455 S
C717 C722 1.350 . S
C717 N725 1.427 . S
C718 H709 0.930 . S
C718 C716 1.378 . S
C718 C719 1.367 . S
C719 C718 1.367 . S
C719 C721 1.433 . S
C720 C716 1.350 . S
C720 C717 1.463 1_655 S
C720 N724 1.427 . S
C721 H711 0.929 . S
C721 C719 1.433 . S
C721 N724 1.384 . S
C722 H713 0.929 . S
C722 C714 1.378 . S
C722 C717 1.350 . S
C723 H710 0.929 . S
C723 C715 1.433 . S
C723 N725 1.384 . S
N724 C720 1.427 . S
N724 C721 1.384 . S
N725 C717 1.427 . S
N725 C723 1.384 . S
H726 C732 0.930 . S
H727 C736 0.930 . S
H728 C741 0.929 . S
H729 C739 0.929 . S
H730 C734 0.929 . S
H731 C740 0.929 . S
C732 H726 0.930 . S
C732 C733 1.367 . S
C732 C740 1.378 . S
C733 C732 1.367 . S
C733 C741 1.433 . S
C734 H730 0.929 . S
C734 C736 1.378 . S
C734 C738 1.350 . S
C735 C738 1.463 . S
C735 C740 1.350 . S
C735 N743 1.427 . S
C736 H727 0.930 . S
C736 C734 1.378 . S
C736 C737 1.367 . S
C737 C736 1.367 . S
C737 C739 1.433 . S
C738 C734 1.350 . S
C738 C735 1.463 . S
C738 N742 1.427 . S
C739 H729 0.929 . S
C739 C737 1.433 . S
C739 N742 1.384 . S
C740 H731 0.929 . S
C740 C732 1.378 . S
C740 C735 1.350 . S
C741 H728 0.929 . S
C741 C733 1.433 . S
C741 N743 1.384 . S
N742 C738 1.427 . S
N742 C739 1.384 . S
N743 C735 1.427 . S
N743 C741 1.384 . S
H744 C750 0.930 . S
H745 C754 0.930 . S
H746 C759 0.929 . S
H747 C757 0.929 . S
H748 C752 0.929 . S
H749 C758 0.929 . S
C750 H744 0.930 . S
C750 C751 1.367 . S
C750 C758 1.378 . S
C751 C750 1.367 . S
C751 C759 1.433 . S
C752 H748 0.929 . S
C752 C754 1.378 . S
C752 C756 1.350 . S
C753 C756 1.463 1_655 S
C753 C758 1.350 . S
C753 N761 1.427 . S
C754 H745 0.930 . S
C754 C752 1.378 . S
C754 C755 1.367 . S
C755 C754 1.367 . S
C755 C757 1.433 . S
C756 C752 1.350 . S
C756 C753 1.463 1_455 S
C756 N760 1.427 . S
C757 H747 0.929 . S
C757 C755 1.433 . S
C757 N760 1.384 . S
C758 H749 0.929 . S
C758 C750 1.378 . S
C758 C753 1.350 . S
C759 H746 0.929 . S
C759 C751 1.433 . S
C759 N761 1.384 . S
N760 C756 1.427 . S
N760 C757 1.384 . S
N761 C753 1.427 . S
N761 C759 1.384 . S
H762 C768 0.930 . S
H763 C772 0.930 . S
H764 C777 0.929 . S
H765 C775 0.929 . S
H766 C770 0.929 . S
H767 C776 0.929 . S
C768 H762 0.930 . S
C768 C769 1.367 . S
C768 C776 1.378 . S
C769 C768 1.367 . S
C769 C777 1.433 . S
C770 H766 0.929 . S
C770 C772 1.378 . S
C770 C774 1.350 . S
C771 C774 1.463 . S
C771 C776 1.350 . S
C771 N779 1.427 . S
C772 H763 0.930 . S
C772 C770 1.378 . S
C772 C773 1.367 . S
C773 C772 1.367 . S
C773 C775 1.433 . S
C774 C770 1.350 . S
C774 C771 1.463 . S
C774 N778 1.427 . S
C775 H765 0.929 . S
C775 C773 1.433 . S
C775 N778 1.384 . S
C776 H767 0.929 . S
C776 C768 1.378 . S
C776 C771 1.350 . S
C777 H764 0.929 . S
C777 C769 1.433 . S
C777 N779 1.384 . S
N778 C774 1.427 . S
N778 C775 1.384 . S
N779 C771 1.427 . S
N779 C777 1.384 . S
H780 C786 0.930 . S
H781 C790 0.930 . S
H782 C795 0.929 . S
H783 C793 0.929 . S
H784 C788 0.929 . S
H785 C794 0.929 . S
C786 H780 0.930 . S
C786 C787 1.367 . S
C786 C794 1.378 . S
C787 C786 1.367 . S
C787 C795 1.433 . S
C788 H784 0.929 . S
C788 C790 1.378 . S
C788 C792 1.350 . S
C789 C792 1.463 1_455 S
C789 C794 1.350 . S
C789 N797 1.427 . S
C790 H781 0.930 . S
C790 C788 1.378 . S
C790 C791 1.367 . S
C791 C790 1.367 . S
C791 C793 1.433 . S
C792 C788 1.350 . S
C792 C789 1.463 1_655 S
C792 N796 1.427 . S
C793 H783 0.929 . S
C793 C791 1.433 . S
C793 N796 1.384 . S
C794 H785 0.929 . S
C794 C786 1.378 . S
C794 C789 1.350 . S
C795 H782 0.929 . S
C795 C787 1.433 . S
C795 N797 1.384 . S
N796 C792 1.427 . S
N796 C793 1.384 . S
N797 C789 1.427 . S
N797 C795 1.384 . S
H798 C804 0.930 . S
H799 C808 0.930 . S
H800 C813 0.929 . S
H801 C811 0.929 . S
H802 C806 0.929 . S
H803 C812 0.929 . S
C804 H798 0.930 . S
C804 C805 1.367 . S
C804 C812 1.378 . S
C805 C804 1.367 . S
C805 C813 1.433 . S
C806 H802 0.929 . S
C806 C808 1.378 . S
C806 C810 1.350 . S
C807 C810 1.463 . S
C807 C812 1.350 . S
C807 N815 1.427 . S
C808 H799 0.930 . S
C808 C806 1.378 . S
C808 C809 1.367 . S
C809 C808 1.367 . S
C809 C811 1.433 . S
C810 C806 1.350 . S
C810 C807 1.463 . S
C810 N814 1.427 . S
C811 H801 0.929 . S
C811 C809 1.433 . S
C811 N814 1.384 . S
C812 H803 0.929 . S
C812 C804 1.378 . S
C812 C807 1.350 . S
C813 H800 0.929 . S
C813 C805 1.433 . S
C813 N815 1.384 . S
N814 C810 1.427 . S
N814 C811 1.384 . S
N815 C807 1.427 . S
N815 C813 1.384 . S
H816 C822 0.930 . S
H817 C826 0.930 . S
H818 C831 0.929 . S
H819 C829 0.929 . S
H820 C824 0.929 . S
H821 C830 0.929 . S
C822 H816 0.930 . S
C822 C823 1.367 . S
C822 C830 1.378 . S
C823 C822 1.367 . S
C823 C831 1.433 . S
C824 H820 0.929 . S
C824 C826 1.378 . S
C824 C828 1.350 . S
C825 C828 1.463 1_565 S
C825 C830 1.350 . S
C825 N833 1.427 . S
C826 H817 0.930 . S
C826 C824 1.378 . S
C826 C827 1.367 . S
C827 C826 1.367 . S
C827 C829 1.433 . S
C828 C824 1.350 . S
C828 C825 1.463 1_545 S
C828 N832 1.427 . S
C829 H819 0.929 . S
C829 C827 1.433 . S
C829 N832 1.384 . S
C830 H821 0.929 . S
C830 C822 1.378 . S
C830 C825 1.350 . S
C831 H818 0.929 . S
C831 C823 1.433 . S
C831 N833 1.384 . S
N832 C828 1.427 . S
N832 C829 1.384 . S
N833 C825 1.427 . S
N833 C831 1.384 . S
H834 C840 0.930 . S
H835 C844 0.930 . S
H836 C849 0.929 . S
H837 C847 0.929 . S
H838 C842 0.929 . S
H839 C848 0.929 . S
C840 H834 0.930 . S
C840 C841 1.367 . S
C840 C848 1.378 . S
C841 C840 1.367 . S
C841 C849 1.433 . S
C842 H838 0.929 . S
C842 C844 1.378 . S
C842 C846 1.350 . S
C843 C846 1.463 . S
C843 C848 1.350 . S
C843 N851 1.427 . S
C844 H835 0.930 . S
C844 C842 1.378 . S
C844 C845 1.367 . S
C845 C844 1.367 . S
C845 C847 1.433 . S
C846 C842 1.350 . S
C846 C843 1.463 . S
C846 N850 1.427 . S
C847 H837 0.929 . S
C847 C845 1.433 . S
C847 N850 1.384 . S
C848 H839 0.929 . S
C848 C840 1.378 . S
C848 C843 1.350 . S
C849 H836 0.929 . S
C849 C841 1.433 . S
C849 N851 1.384 . S
N850 C846 1.427 . S
N850 C847 1.384 . S
N851 C843 1.427 . S
N851 C849 1.384 . S
H852 C858 0.930 . S
H853 C862 0.930 . S
H854 C867 0.929 . S
H855 C865 0.929 . S
H856 C860 0.929 . S
H857 C866 0.929 . S
C858 H852 0.930 . S
C858 C859 1.367 . S
C858 C866 1.378 . S
C859 C858 1.367 . S
C859 C867 1.433 . S
C860 H856 0.929 . S
C860 C862 1.378 . S
C860 C864 1.350 . S
C861 C864 1.463 1_545 S
C861 C866 1.350 . S
C861 N869 1.427 . S
C862 H853 0.930 . S
C862 C860 1.378 . S
C862 C863 1.367 . S
C863 C862 1.367 . S
C863 C865 1.433 . S
C864 C860 1.350 . S
C864 C861 1.463 1_565 S
C864 N868 1.427 . S
C865 H855 0.929 . S
C865 C863 1.433 . S
C865 N868 1.384 . S
C866 H857 0.929 . S
C866 C858 1.378 . S
C866 C861 1.350 . S
C867 H854 0.929 . S
C867 C859 1.433 . S
C867 N869 1.384 . S
N868 C864 1.427 . S
N868 C865 1.384 . S
N869 C861 1.427 . S
N869 C867 1.384 . S
H870 C876 0.930 . S
H871 C880 0.930 . S
H872 C885 0.929 . S
H873 C883 0.929 . S
H874 C878 0.929 . S
H875 C884 0.929 . S
C876 H870 0.930 . S
C876 C877 1.367 . S
C876 C884 1.378 . S
C877 C876 1.367 . S
C877 C885 1.433 . S
C878 H874 0.929 . S
C878 C880 1.378 . S
C878 C882 1.350 . S
C879 C882 1.463 . S
C879 C884 1.350 . S
C879 N887 1.427 . S
C880 H871 0.930 . S
C880 C878 1.378 . S
C880 C881 1.367 . S
C881 C880 1.367 . S
C881 C883 1.433 . S
C882 C878 1.350 . S
C882 C879 1.463 . S
C882 N886 1.427 . S
C883 H873 0.929 . S
C883 C881 1.433 . S
C883 N886 1.384 . S
C884 H875 0.929 . S
C884 C876 1.378 . S
C884 C879 1.350 . S
C885 H872 0.929 . S
C885 C877 1.433 . S
C885 N887 1.384 . S
N886 C882 1.427 . S
N886 C883 1.384 . S
N887 C879 1.427 . S
N887 C885 1.384 . S
H888 C894 0.930 . S
H889 C898 0.930 . S
H890 C903 0.929 . S
H891 C901 0.929 . S
H892 C896 0.929 . S
H893 C902 0.929 . S
C894 H888 0.930 . S
C894 C895 1.367 . S
C894 C902 1.378 . S
C895 C894 1.367 . S
C895 C903 1.433 . S
C896 H892 0.929 . S
C896 C898 1.378 . S
C896 C900 1.350 . S
C897 C900 1.463 1_545 S
C897 C902 1.350 . S
C897 N905 1.427 . S
C898 H889 0.930 . S
C898 C896 1.378 . S
C898 C899 1.367 . S
C899 C898 1.367 . S
C899 C901 1.433 . S
C900 C896 1.350 . S
C900 C897 1.463 1_565 S
C900 N904 1.427 . S
C901 H891 0.929 . S
C901 C899 1.433 . S
C901 N904 1.384 . S
C902 H893 0.929 . S
C902 C894 1.378 . S
C902 C897 1.350 . S
C903 H890 0.929 . S
C903 C895 1.433 . S
C903 N905 1.384 . S
N904 C900 1.427 . S
N904 C901 1.384 . S
N905 C897 1.427 . S
N905 C903 1.384 . S
H906 C912 0.930 . S
H907 C916 0.930 . S
H908 C921 0.929 . S
H909 C919 0.929 . S
H910 C914 0.929 . S
H911 C920 0.929 . S
C912 H906 0.930 . S
C912 C913 1.367 . S
C912 C920 1.378 . S
C913 C912 1.367 . S
C913 C921 1.433 . S
C914 H910 0.929 . S
C914 C916 1.378 . S
C914 C918 1.350 . S
C915 C918 1.463 . S
C915 C920 1.350 . S
C915 N923 1.427 . S
C916 H907 0.930 . S
C916 C914 1.378 . S
C916 C917 1.367 . S
C917 C916 1.367 . S
C917 C919 1.433 . S
C918 C914 1.350 . S
C918 C915 1.463 . S
C918 N922 1.427 . S
C919 H909 0.929 . S
C919 C917 1.433 . S
C919 N922 1.384 . S
C920 H911 0.929 . S
C920 C912 1.378 . S
C920 C915 1.350 . S
C921 H908 0.929 . S
C921 C913 1.433 . S
C921 N923 1.384 . S
N922 C918 1.427 . S
N922 C919 1.384 . S
N923 C915 1.427 . S
N923 C921 1.384 . S
H924 C930 0.930 . S
H925 C934 0.930 . S
H926 C939 0.929 . S
H927 C937 0.929 . S
H928 C932 0.929 . S
H929 C938 0.929 . S
C930 H924 0.930 . S
C930 C931 1.367 . S
C930 C938 1.378 . S
C931 C930 1.367 . S
C931 C939 1.433 . S
C932 H928 0.929 . S
C932 C934 1.378 . S
C932 C936 1.350 . S
C933 C936 1.463 1_545 S
C933 C938 1.350 . S
C933 N941 1.427 . S
C934 H925 0.930 . S
C934 C932 1.378 . S
C934 C935 1.367 . S
C935 C934 1.367 . S
C935 C937 1.433 . S
C936 C932 1.350 . S
C936 C933 1.463 1_565 S
C936 N940 1.427 . S
C937 H927 0.929 . S
C937 C935 1.433 . S
C937 N940 1.384 . S
C938 H929 0.929 . S
C938 C930 1.378 . S
C938 C933 1.350 . S
C939 H926 0.929 . S
C939 C931 1.433 . S
C939 N941 1.384 . S
N940 C936 1.427 . S
N940 C937 1.384 . S
N941 C933 1.427 . S
N941 C939 1.384 . S
H942 C948 0.930 . S
H943 C952 0.930 . S
H944 C957 0.929 . S
H945 C955 0.929 . S
H946 C950 0.929 . S
H947 C956 0.929 . S
C948 H942 0.930 . S
C948 C949 1.367 . S
C948 C956 1.378 . S
C949 C948 1.367 . S
C949 C957 1.433 . S
C950 H946 0.929 . S
C950 C952 1.378 . S
C950 C954 1.350 . S
C951 C954 1.463 . S
C951 C956 1.350 . S
C951 N959 1.427 . S
C952 H943 0.930 . S
C952 C950 1.378 . S
C952 C953 1.367 . S
C953 C952 1.367 . S
C953 C955 1.433 . S
C954 C950 1.350 . S
C954 C951 1.463 . S
C954 N958 1.427 . S
C955 H945 0.929 . S
C955 C953 1.433 . S
C955 N958 1.384 . S
C956 H947 0.929 . S
C956 C948 1.378 . S
C956 C951 1.350 . S
C957 H944 0.929 . S
C957 C949 1.433 . S
C957 N959 1.384 . S
N958 C954 1.427 . S
N958 C955 1.384 . S
N959 C951 1.427 . S
N959 C957 1.384 . S
H960 C966 0.930 . S
H961 C970 0.930 . S
H962 C975 0.929 . S
H963 C973 0.929 . S
H964 C968 0.929 . S
H965 C974 0.929 . S
C966 H960 0.930 . S
C966 C967 1.367 . S
C966 C974 1.378 . S
C967 C966 1.367 . S
C967 C975 1.433 . S
C968 H964 0.929 . S
C968 C970 1.378 . S
C968 C972 1.350 . S
C969 C972 1.463 1_554 S
C969 C974 1.350 . S
C969 N977 1.427 . S
C970 H961 0.930 . S
C970 C968 1.378 . S
C970 C971 1.367 . S
C971 C970 1.367 . S
C971 C973 1.433 . S
C972 C968 1.350 . S
C972 C969 1.463 1_556 S
C972 N976 1.427 . S
C973 H963 0.929 . S
C973 C971 1.433 . S
C973 N976 1.384 . S
C974 H965 0.929 . S
C974 C966 1.378 . S
C974 C969 1.350 . S
C975 H962 0.929 . S
C975 C967 1.433 . S
C975 N977 1.384 . S
N976 C972 1.427 . S
N976 C973 1.384 . S
N977 C969 1.427 . S
N977 C975 1.384 . S
H978 C984 0.930 . S
H979 C988 0.930 . S
H980 C993 0.929 . S
H981 C991 0.929 . S
H982 C986 0.929 . S
H983 C992 0.929 . S
C984 H978 0.930 . S
C984 C985 1.367 . S
C984 C992 1.378 . S
C985 C984 1.367 . S
C985 C993 1.433 . S
C986 H982 0.929 . S
C986 C988 1.378 . S
C986 C990 1.350 . S
C987 C990 1.463 1_554 S
C987 C992 1.350 . S
C987 N995 1.427 . S
C988 H979 0.930 . S
C988 C986 1.378 . S
C988 C989 1.367 . S
C989 C988 1.367 . S
C989 C991 1.433 . S
C990 C986 1.350 . S
C990 C987 1.463 1_556 S
C990 N994 1.427 . S
C991 H981 0.929 . S
C991 C989 1.433 . S
C991 N994 1.384 . S
C992 H983 0.929 . S
C992 C984 1.378 . S
C992 C987 1.350 . S
C993 H980 0.929 . S
C993 C985 1.433 . S
C993 N995 1.384 . S
N994 C990 1.427 . S
N994 C991 1.384 . S
N995 C987 1.427 . S
N995 C993 1.384 . S
H996 C1002 0.930 . S
H997 C1006 0.930 . S
H998 C1011 0.929 . S
H999 C1009 0.929 . S
H1000 C1004 0.929 . S
H1001 C1010 0.929 . S
C1002 H996 0.930 . S
C1002 C1003 1.367 . S
C1002 C1010 1.378 . S
C1003 C1002 1.367 . S
C1003 C1011 1.433 . S
C1004 H1000 0.929 . S
C1004 C1006 1.378 . S
C1004 C1008 1.350 . S
C1005 C1008 1.463 . S
C1005 C1010 1.350 . S
C1005 N1013 1.427 . S
C1006 H997 0.930 . S
C1006 C1004 1.378 . S
C1006 C1007 1.367 . S
C1007 C1006 1.367 . S
C1007 C1009 1.433 . S
C1008 C1004 1.350 . S
C1008 C1005 1.463 . S
C1008 N1012 1.427 . S
C1009 H999 0.929 . S
C1009 C1007 1.433 . S
C1009 N1012 1.384 . S
C1010 H1001 0.929 . S
C1010 C1002 1.378 . S
C1010 C1005 1.350 . S
C1011 H998 0.929 . S
C1011 C1003 1.433 . S
C1011 N1013 1.384 . S
N1012 C1008 1.427 . S
N1012 C1009 1.384 . S
N1013 C1005 1.427 . S
N1013 C1011 1.384 . S
H1014 C1020 0.930 . S
H1015 C1024 0.930 . S
H1016 C1029 0.929 . S
H1017 C1027 0.929 . S
H1018 C1022 0.929 . S
H1019 C1028 0.929 . S
C1020 H1014 0.930 . S
C1020 C1021 1.367 . S
C1020 C1028 1.378 . S
C1021 C1020 1.367 . S
C1021 C1029 1.433 . S
C1022 H1018 0.929 . S
C1022 C1024 1.378 . S
C1022 C1026 1.350 . S
C1023 C1026 1.463 1_554 S
C1023 C1028 1.350 . S
C1023 N1031 1.427 . S
C1024 H1015 0.930 . S
C1024 C1022 1.378 . S
C1024 C1025 1.367 . S
C1025 C1024 1.367 . S
C1025 C1027 1.433 . S
C1026 C1022 1.350 . S
C1026 C1023 1.463 1_556 S
C1026 N1030 1.427 . S
C1027 H1017 0.929 . S
C1027 C1025 1.433 . S
C1027 N1030 1.384 . S
C1028 H1019 0.929 . S
C1028 C1020 1.378 . S
C1028 C1023 1.350 . S
C1029 H1016 0.929 . S
C1029 C1021 1.433 . S
C1029 N1031 1.384 . S
N1030 C1026 1.427 . S
N1030 C1027 1.384 . S
N1031 C1023 1.427 . S
N1031 C1029 1.384 . S
H1032 C1038 0.930 . S
H1033 C1042 0.930 . S
H1034 C1047 0.929 . S
H1035 C1045 0.929 . S
H1036 C1040 0.929 . S
H1037 C1046 0.929 . S
C1038 H1032 0.930 . S
C1038 C1039 1.367 . S
C1038 C1046 1.378 . S
C1039 C1038 1.367 . S
C1039 C1047 1.433 . S
C1040 H1036 0.929 . S
C1040 C1042 1.378 . S
C1040 C1044 1.350 . S
C1041 C1044 1.463 . S
C1041 C1046 1.350 . S
C1041 N1049 1.427 . S
C1042 H1033 0.930 . S
C1042 C1040 1.378 . S
C1042 C1043 1.367 . S
C1043 C1042 1.367 . S
C1043 C1045 1.433 . S
C1044 C1040 1.350 . S
C1044 C1041 1.463 . S
C1044 N1048 1.427 . S
C1045 H1035 0.929 . S
C1045 C1043 1.433 . S
C1045 N1048 1.384 . S
C1046 H1037 0.929 . S
C1046 C1038 1.378 . S
C1046 C1041 1.350 . S
C1047 H1034 0.929 . S
C1047 C1039 1.433 . S
C1047 N1049 1.384 . S
N1048 C1044 1.427 . S
N1048 C1045 1.384 . S
N1049 C1041 1.427 . S
N1049 C1047 1.384 . S
H1050 C1056 0.930 . S
H1051 C1060 0.930 . S
H1052 C1065 0.929 . S
H1053 C1063 0.929 . S
H1054 C1058 0.929 . S
H1055 C1064 0.929 . S
C1056 H1050 0.930 . S
C1056 C1057 1.367 . S
C1056 C1064 1.378 . S
C1057 C1056 1.367 . S
C1057 C1065 1.433 . S
C1058 H1054 0.929 . S
C1058 C1060 1.378 . S
C1058 C1062 1.350 . S
C1059 C1062 1.463 1_554 S
C1059 C1064 1.350 . S
C1059 N1067 1.427 . S
C1060 H1051 0.930 . S
C1060 C1058 1.378 . S
C1060 C1061 1.367 . S
C1061 C1060 1.367 . S
C1061 C1063 1.433 . S
C1062 C1058 1.350 . S
C1062 C1059 1.463 1_556 S
C1062 N1066 1.427 . S
C1063 H1053 0.929 . S
C1063 C1061 1.433 . S
C1063 N1066 1.384 . S
C1064 H1055 0.929 . S
C1064 C1056 1.378 . S
C1064 C1059 1.350 . S
C1065 H1052 0.929 . S
C1065 C1057 1.433 . S
C1065 N1067 1.384 . S
N1066 C1062 1.427 . S
N1066 C1063 1.384 . S
N1067 C1059 1.427 . S
N1067 C1065 1.384 . S
H1068 C1074 0.930 . S
H1069 C1078 0.930 . S
H1070 C1083 0.929 . S
H1071 C1081 0.929 . S
H1072 C1076 0.929 . S
H1073 C1082 0.929 . S
C1074 H1068 0.930 . S
C1074 C1075 1.367 . S
C1074 C1082 1.378 . S
C1075 C1074 1.367 . S
C1075 C1083 1.433 . S
C1076 H1072 0.929 . S
C1076 C1078 1.378 . S
C1076 C1080 1.350 . S
C1077 C1080 1.463 . S
C1077 C1082 1.350 . S
C1077 N1085 1.427 . S
C1078 H1069 0.930 . S
C1078 C1076 1.378 . S
C1078 C1079 1.367 . S
C1079 C1078 1.367 . S
C1079 C1081 1.433 . S
C1080 C1076 1.350 . S
C1080 C1077 1.463 . S
C1080 N1084 1.427 . S
C1081 H1071 0.929 . S
C1081 C1079 1.433 . S
C1081 N1084 1.384 . S
C1082 H1073 0.929 . S
C1082 C1074 1.378 . S
C1082 C1077 1.350 . S
C1083 H1070 0.929 . S
C1083 C1075 1.433 . S
C1083 N1085 1.384 . S
N1084 C1080 1.427 . S
N1084 C1081 1.384 . S
N1085 C1077 1.427 . S
N1085 C1083 1.384 . S
H1086 C1092 0.930 . S
H1087 C1096 0.930 . S
H1088 C1101 0.929 . S
H1089 C1099 0.929 . S
H1090 C1094 0.929 . S
H1091 C1100 0.929 . S
C1092 H1086 0.930 . S
C1092 C1093 1.367 . S
C1092 C1100 1.378 . S
C1093 C1092 1.367 . S
C1093 C1101 1.433 . S
C1094 H1090 0.929 . S
C1094 C1096 1.378 . S
C1094 C1098 1.350 . S
C1095 C1098 1.463 . S
C1095 C1100 1.350 . S
C1095 N1103 1.427 . S
C1096 H1087 0.930 . S
C1096 C1094 1.378 . S
C1096 C1097 1.367 . S
C1097 C1096 1.367 . S
C1097 C1099 1.433 . S
C1098 C1094 1.350 . S
C1098 C1095 1.463 . S
C1098 N1102 1.427 . S
C1099 H1089 0.929 . S
C1099 C1097 1.433 . S
C1099 N1102 1.384 . S
C1100 H1091 0.929 . S
C1100 C1092 1.378 . S
C1100 C1095 1.350 . S
C1101 H1088 0.929 . S
C1101 C1093 1.433 . S
C1101 N1103 1.384 . S
N1102 C1098 1.427 . S
N1102 C1099 1.384 . S
N1103 C1095 1.427 . S
N1103 C1101 1.384 . S
H1104 C1110 0.930 . S
H1105 C1114 0.930 . S
H1106 C1119 0.929 . S
H1107 C1117 0.929 . S
H1108 C1112 0.929 . S
H1109 C1118 0.929 . S
C1110 H1104 0.930 . S
C1110 C1111 1.367 . S
C1110 C1118 1.378 . S
C1111 C1110 1.367 . S
C1111 C1119 1.433 . S
C1112 H1108 0.929 . S
C1112 C1114 1.378 . S
C1112 C1116 1.350 . S
C1113 C1116 1.463 . S
C1113 C1118 1.350 . S
C1113 N1121 1.427 . S
C1114 H1105 0.930 . S
C1114 C1112 1.378 . S
C1114 C1115 1.367 . S
C1115 C1114 1.367 . S
C1115 C1117 1.433 . S
C1116 C1112 1.350 . S
C1116 C1113 1.463 . S
C1116 N1120 1.427 . S
C1117 H1107 0.929 . S
C1117 C1115 1.433 . S
C1117 N1120 1.384 . S
C1118 H1109 0.929 . S
C1118 C1110 1.378 . S
C1118 C1113 1.350 . S
C1119 H1106 0.929 . S
C1119 C1111 1.433 . S
C1119 N1121 1.384 . S
N1120 C1116 1.427 . S
N1120 C1117 1.384 . S
N1121 C1113 1.427 . S
N1121 C1119 1.384 . S
H1122 C1128 0.930 . S
H1123 C1132 0.930 . S
H1124 C1137 0.929 . S
H1125 C1135 0.929 . S
H1126 C1130 0.929 . S
H1127 C1136 0.929 . S
C1128 H1122 0.930 . S
C1128 C1129 1.367 . S
C1128 C1136 1.378 . S
C1129 C1128 1.367 . S
C1129 C1137 1.433 . S
C1130 H1126 0.929 . S
C1130 C1132 1.378 . S
C1130 C1134 1.350 . S
C1131 C1134 1.463 . S
C1131 C1136 1.350 . S
C1131 N1139 1.427 . S
C1132 H1123 0.930 . S
C1132 C1130 1.378 . S
C1132 C1133 1.367 . S
C1133 C1132 1.367 . S
C1133 C1135 1.433 . S
C1134 C1130 1.350 . S
C1134 C1131 1.463 . S
C1134 N1138 1.427 . S
C1135 H1125 0.929 . S
C1135 C1133 1.433 . S
C1135 N1138 1.384 . S
C1136 H1127 0.929 . S
C1136 C1128 1.378 . S
C1136 C1131 1.350 . S
C1137 H1124 0.929 . S
C1137 C1129 1.433 . S
C1137 N1139 1.384 . S
N1138 C1134 1.427 . S
N1138 C1135 1.384 . S
N1139 C1131 1.427 . S
N1139 C1137 1.384 . S
H1140 C1146 0.930 . S
H1141 C1150 0.930 . S
H1142 C1155 0.929 . S
H1143 C1153 0.929 . S
H1144 C1148 0.929 . S
H1145 C1154 0.929 . S
C1146 H1140 0.930 . S
C1146 C1147 1.367 . S
C1146 C1154 1.378 . S
C1147 C1146 1.367 . S
C1147 C1155 1.433 . S
C1148 H1144 0.929 . S
C1148 C1150 1.378 . S
C1148 C1152 1.350 . S
C1149 C1152 1.463 . S
C1149 C1154 1.350 . S
C1149 N1157 1.427 . S
C1150 H1141 0.930 . S
C1150 C1148 1.378 . S
C1150 C1151 1.367 . S
C1151 C1150 1.367 . S
C1151 C1153 1.433 . S
C1152 C1148 1.350 . S
C1152 C1149 1.463 . S
C1152 N1156 1.427 . S
C1153 H1143 0.929 . S
C1153 C1151 1.433 . S
C1153 N1156 1.384 . S
C1154 H1145 0.929 . S
C1154 C1146 1.378 . S
C1154 C1149 1.350 . S
C1155 H1142 0.929 . S
C1155 C1147 1.433 . S
C1155 N1157 1.384 . S
N1156 C1152 1.427 . S
N1156 C1153 1.384 . S
N1157 C1149 1.427 . S
N1157 C1155 1.384 . S
H1158 C1164 0.930 . S
H1159 C1168 0.930 . S
H1160 C1173 0.929 . S
H1161 C1171 0.929 . S
H1162 C1166 0.929 . S
H1163 C1172 0.929 . S
C1164 H1158 0.930 . S
C1164 C1165 1.367 . S
C1164 C1172 1.378 . S
C1165 C1164 1.367 . S
C1165 C1173 1.433 . S
C1166 H1162 0.929 . S
C1166 C1168 1.378 . S
C1166 C1170 1.350 . S
C1167 C1170 1.463 . S
C1167 C1172 1.350 . S
C1167 N1175 1.427 . S
C1168 H1159 0.930 . S
C1168 C1166 1.378 . S
C1168 C1169 1.367 . S
C1169 C1168 1.367 . S
C1169 C1171 1.433 . S
C1170 C1166 1.350 . S
C1170 C1167 1.463 . S
C1170 N1174 1.427 . S
C1171 H1161 0.929 . S
C1171 C1169 1.433 . S
C1171 N1174 1.384 . S
C1172 H1163 0.929 . S
C1172 C1164 1.378 . S
C1172 C1167 1.350 . S
C1173 H1160 0.929 . S
C1173 C1165 1.433 . S
C1173 N1175 1.384 . S
N1174 C1170 1.427 . S
N1174 C1171 1.384 . S
N1175 C1167 1.427 . S
N1175 C1173 1.384 . S
H1176 C1182 0.930 . S
H1177 C1186 0.930 . S
H1178 C1191 0.929 . S
H1179 C1189 0.929 . S
H1180 C1184 0.929 . S
H1181 C1190 0.929 . S
C1182 H1176 0.930 . S
C1182 C1183 1.367 . S
C1182 C1190 1.378 . S
C1183 C1182 1.367 . S
C1183 C1191 1.433 . S
C1184 H1180 0.929 . S
C1184 C1186 1.378 . S
C1184 C1188 1.350 . S
C1185 C1188 1.463 . S
C1185 C1190 1.350 . S
C1185 N1193 1.427 . S
C1186 H1177 0.930 . S
C1186 C1184 1.378 . S
C1186 C1187 1.367 . S
C1187 C1186 1.367 . S
C1187 C1189 1.433 . S
C1188 C1184 1.350 . S
C1188 C1185 1.463 . S
C1188 N1192 1.427 . S
C1189 H1179 0.929 . S
C1189 C1187 1.433 . S
C1189 N1192 1.384 . S
C1190 H1181 0.929 . S
C1190 C1182 1.378 . S
C1190 C1185 1.350 . S
C1191 H1178 0.929 . S
C1191 C1183 1.433 . S
C1191 N1193 1.384 . S
N1192 C1188 1.427 . S
N1192 C1189 1.384 . S
N1193 C1185 1.427 . S
N1193 C1191 1.384 . S
H1194 C1200 0.930 . S
H1195 C1204 0.930 . S
H1196 C1209 0.929 . S
H1197 C1207 0.929 . S
H1198 C1202 0.929 . S
H1199 C1208 0.929 . S
C1200 H1194 0.930 . S
C1200 C1201 1.367 . S
C1200 C1208 1.378 . S
C1201 C1200 1.367 . S
C1201 C1209 1.433 . S
C1202 H1198 0.929 . S
C1202 C1204 1.378 . S
C1202 C1206 1.350 . S
C1203 C1206 1.463 . S
C1203 C1208 1.350 . S
C1203 N1211 1.427 . S
C1204 H1195 0.930 . S
C1204 C1202 1.378 . S
C1204 C1205 1.367 . S
C1205 C1204 1.367 . S
C1205 C1207 1.433 . S
C1206 C1202 1.350 . S
C1206 C1203 1.463 . S
C1206 N1210 1.427 . S
C1207 H1197 0.929 . S
C1207 C1205 1.433 . S
C1207 N1210 1.384 . S
C1208 H1199 0.929 . S
C1208 C1200 1.378 . S
C1208 C1203 1.350 . S
C1209 H1196 0.929 . S
C1209 C1201 1.433 . S
C1209 N1211 1.384 . S
N1210 C1206 1.427 . S
N1210 C1207 1.384 . S
N1211 C1203 1.427 . S
N1211 C1209 1.384 . S
H1212 C1218 0.930 . S
H1213 C1222 0.930 . S
H1214 C1227 0.929 . S
H1215 C1225 0.929 . S
H1216 C1220 0.929 . S
H1217 C1226 0.929 . S
C1218 H1212 0.930 . S
C1218 C1219 1.367 . S
C1218 C1226 1.378 . S
C1219 C1218 1.367 . S
C1219 C1227 1.433 . S
C1220 H1216 0.929 . S
C1220 C1222 1.378 . S
C1220 C1224 1.350 . S
C1221 C1224 1.463 . S
C1221 C1226 1.350 . S
C1221 N1229 1.427 . S
C1222 H1213 0.930 . S
C1222 C1220 1.378 . S
C1222 C1223 1.367 . S
C1223 C1222 1.367 . S
C1223 C1225 1.433 . S
C1224 C1220 1.350 . S
C1224 C1221 1.463 . S
C1224 N1228 1.427 . S
C1225 H1215 0.929 . S
C1225 C1223 1.433 . S
C1225 N1228 1.384 . S
C1226 H1217 0.929 . S
C1226 C1218 1.378 . S
C1226 C1221 1.350 . S
C1227 H1214 0.929 . S
C1227 C1219 1.433 . S
C1227 N1229 1.384 . S
N1228 C1224 1.427 . S
N1228 C1225 1.384 . S
N1229 C1221 1.427 . S
N1229 C1227 1.384 . S
H1230 C1236 0.930 . S
H1231 C1240 0.930 . S
H1232 C1245 0.929 . S
H1233 C1243 0.929 . S
H1234 C1238 0.929 . S
H1235 C1244 0.929 . S
C1236 H1230 0.930 . S
C1236 C1237 1.367 . S
C1236 C1244 1.378 . S
C1237 C1236 1.367 . S
C1237 C1245 1.433 . S
C1238 H1234 0.929 . S
C1238 C1240 1.378 . S
C1238 C1242 1.350 . S
C1239 C1242 1.463 . S
C1239 C1244 1.350 . S
C1239 N1247 1.427 . S
C1240 H1231 0.930 . S
C1240 C1238 1.378 . S
C1240 C1241 1.367 . S
C1241 C1240 1.367 . S
C1241 C1243 1.433 . S
C1242 C1238 1.350 . S
C1242 C1239 1.463 . S
C1242 N1246 1.427 . S
C1243 H1233 0.929 . S
C1243 C1241 1.433 . S
C1243 N1246 1.384 . S
C1244 H1235 0.929 . S
C1244 C1236 1.378 . S
C1244 C1239 1.350 . S
C1245 H1232 0.929 . S
C1245 C1237 1.433 . S
C1245 N1247 1.384 . S
N1246 C1242 1.427 . S
N1246 C1243 1.384 . S
N1247 C1239 1.427 . S
N1247 C1245 1.384 . S
H1248 C1254 0.930 . S
H1249 C1258 0.930 . S
H1250 C1263 0.929 . S
H1251 C1261 0.929 . S
H1252 C1256 0.929 . S
H1253 C1262 0.929 . S
C1254 H1248 0.930 . S
C1254 C1255 1.367 . S
C1254 C1262 1.378 . S
C1255 C1254 1.367 . S
C1255 C1263 1.433 . S
C1256 H1252 0.929 . S
C1256 C1258 1.378 . S
C1256 C1260 1.350 . S
C1257 C1260 1.463 . S
C1257 C1262 1.350 . S
C1257 N1265 1.427 . S
C1258 H1249 0.930 . S
C1258 C1256 1.378 . S
C1258 C1259 1.367 . S
C1259 C1258 1.367 . S
C1259 C1261 1.433 . S
C1260 C1256 1.350 . S
C1260 C1257 1.463 . S
C1260 N1264 1.427 . S
C1261 H1251 0.929 . S
C1261 C1259 1.433 . S
C1261 N1264 1.384 . S
C1262 H1253 0.929 . S
C1262 C1254 1.378 . S
C1262 C1257 1.350 . S
C1263 H1250 0.929 . S
C1263 C1255 1.433 . S
C1263 N1265 1.384 . S
N1264 C1260 1.427 . S
N1264 C1261 1.384 . S
N1265 C1257 1.427 . S
N1265 C1263 1.384 . S
H1266 C1272 0.930 . S
H1267 C1276 0.930 . S
H1268 C1281 0.929 . S
H1269 C1279 0.929 . S
H1270 C1274 0.929 . S
H1271 C1280 0.929 . S
C1272 H1266 0.930 . S
C1272 C1273 1.367 . S
C1272 C1280 1.378 . S
C1273 C1272 1.367 . S
C1273 C1281 1.433 . S
C1274 H1270 0.929 . S
C1274 C1276 1.378 . S
C1274 C1278 1.350 . S
C1275 C1278 1.463 . S
C1275 C1280 1.350 . S
C1275 N1283 1.427 . S
C1276 H1267 0.930 . S
C1276 C1274 1.378 . S
C1276 C1277 1.367 . S
C1277 C1276 1.367 . S
C1277 C1279 1.433 . S
C1278 C1274 1.350 . S
C1278 C1275 1.463 . S
C1278 N1282 1.427 . S
C1279 H1269 0.929 . S
C1279 C1277 1.433 . S
C1279 N1282 1.384 . S
C1280 H1271 0.929 . S
C1280 C1272 1.378 . S
C1280 C1275 1.350 . S
C1281 H1268 0.929 . S
C1281 C1273 1.433 . S
C1281 N1283 1.384 . S
N1282 C1278 1.427 . S
N1282 C1279 1.384 . S
N1283 C1275 1.427 . S
N1283 C1281 1.384 . S
H1284 C1290 0.930 . S
H1285 C1294 0.930 . S
H1286 C1299 0.929 . S
H1287 C1297 0.929 . S
H1288 C1292 0.929 . S
H1289 C1298 0.929 . S
C1290 H1284 0.930 . S
C1290 C1291 1.367 . S
C1290 C1298 1.378 . S
C1291 C1290 1.367 . S
C1291 C1299 1.433 . S
C1292 H1288 0.929 . S
C1292 C1294 1.378 . S
C1292 C1296 1.350 . S
C1293 C1296 1.463 . S
C1293 C1298 1.350 . S
C1293 N1301 1.427 . S
C1294 H1285 0.930 . S
C1294 C1292 1.378 . S
C1294 C1295 1.367 . S
C1295 C1294 1.367 . S
C1295 C1297 1.433 . S
C1296 C1292 1.350 . S
C1296 C1293 1.463 . S
C1296 N1300 1.427 . S
C1297 H1287 0.929 . S
C1297 C1295 1.433 . S
C1297 N1300 1.384 . S
C1298 H1289 0.929 . S
C1298 C1290 1.378 . S
C1298 C1293 1.350 . S
C1299 H1286 0.929 . S
C1299 C1291 1.433 . S
C1299 N1301 1.384 . S
N1300 C1296 1.427 . S
N1300 C1297 1.384 . S
N1301 C1293 1.427 . S
N1301 C1299 1.384 . S
H1302 C1308 0.930 . S
H1303 C1312 0.930 . S
H1304 C1317 0.929 . S
H1305 C1315 0.929 . S
H1306 C1310 0.929 . S
H1307 C1316 0.929 . S
C1308 H1302 0.930 . S
C1308 C1309 1.367 . S
C1308 C1316 1.378 . S
C1309 C1308 1.367 . S
C1309 C1317 1.433 . S
C1310 H1306 0.929 . S
C1310 C1312 1.378 . S
C1310 C1314 1.350 . S
C1311 C1314 1.463 . S
C1311 C1316 1.350 . S
C1311 N1319 1.427 . S
C1312 H1303 0.930 . S
C1312 C1310 1.378 . S
C1312 C1313 1.367 . S
C1313 C1312 1.367 . S
C1313 C1315 1.433 . S
C1314 C1310 1.350 . S
C1314 C1311 1.463 . S
C1314 N1318 1.427 . S
C1315 H1305 0.929 . S
C1315 C1313 1.433 . S
C1315 N1318 1.384 . S
C1316 H1307 0.929 . S
C1316 C1308 1.378 . S
C1316 C1311 1.350 . S
C1317 H1304 0.929 . S
C1317 C1309 1.433 . S
C1317 N1319 1.384 . S
N1318 C1314 1.427 . S
N1318 C1315 1.384 . S
N1319 C1311 1.427 . S
N1319 C1317 1.384 . S
H1320 C1326 0.930 . S
H1321 C1330 0.930 . S
H1322 C1335 0.929 . S
H1323 C1333 0.929 . S
H1324 C1328 0.929 . S
H1325 C1334 0.929 . S
C1326 H1320 0.930 . S
C1326 C1327 1.367 . S
C1326 C1334 1.378 . S
C1327 C1326 1.367 . S
C1327 C1335 1.433 . S
C1328 H1324 0.929 . S
C1328 C1330 1.378 . S
C1328 C1332 1.350 . S
C1329 C1332 1.463 . S
C1329 C1334 1.350 . S
C1329 N1337 1.427 . S
C1330 H1321 0.930 . S
C1330 C1328 1.378 . S
C1330 C1331 1.367 . S
C1331 C1330 1.367 . S
C1331 C1333 1.433 . S
C1332 C1328 1.350 . S
C1332 C1329 1.463 . S
C1332 N1336 1.427 . S
C1333 H1323 0.929 . S
C1333 C1331 1.433 . S
C1333 N1336 1.384 . S
C1334 H1325 0.929 . S
C1334 C1326 1.378 . S
C1334 C1329 1.350 . S
C1335 H1322 0.929 . S
C1335 C1327 1.433 . S
C1335 N1337 1.384 . S
N1336 C1332 1.427 . S
N1336 C1333 1.384 . S
N1337 C1329 1.427 . S
N1337 C1335 1.384 . S
H1338 C1344 0.930 . S
H1339 C1348 0.930 . S
H1340 C1353 0.929 . S
H1341 C1351 0.929 . S
H1342 C1346 0.929 . S
H1343 C1352 0.929 . S
C1344 H1338 0.930 . S
C1344 C1345 1.367 . S
C1344 C1352 1.378 . S
C1345 C1344 1.367 . S
C1345 C1353 1.433 . S
C1346 H1342 0.929 . S
C1346 C1348 1.378 . S
C1346 C1350 1.350 . S
C1347 C1350 1.463 . S
C1347 C1352 1.350 . S
C1347 N1355 1.427 . S
C1348 H1339 0.930 . S
C1348 C1346 1.378 . S
C1348 C1349 1.367 . S
C1349 C1348 1.367 . S
C1349 C1351 1.433 . S
C1350 C1346 1.350 . S
C1350 C1347 1.463 . S
C1350 N1354 1.427 . S
C1351 H1341 0.929 . S
C1351 C1349 1.433 . S
C1351 N1354 1.384 . S
C1352 H1343 0.929 . S
C1352 C1344 1.378 . S
C1352 C1347 1.350 . S
C1353 H1340 0.929 . S
C1353 C1345 1.433 . S
C1353 N1355 1.384 . S
N1354 C1350 1.427 . S
N1354 C1351 1.384 . S
N1355 C1347 1.427 . S
N1355 C1353 1.384 . S
H1356 C1362 0.930 . S
H1357 C1366 0.930 . S
H1358 C1371 0.929 . S
H1359 C1369 0.929 . S
H1360 C1364 0.929 . S
H1361 C1370 0.929 . S
C1362 H1356 0.930 . S
C1362 C1363 1.367 . S
C1362 C1370 1.378 . S
C1363 C1362 1.367 . S
C1363 C1371 1.433 . S
C1364 H1360 0.929 . S
C1364 C1366 1.378 . S
C1364 C1368 1.350 . S
C1365 C1368 1.463 . S
C1365 C1370 1.350 . S
C1365 N1373 1.427 . S
C1366 H1357 0.930 . S
C1366 C1364 1.378 . S
C1366 C1367 1.367 . S
C1367 C1366 1.367 . S
C1367 C1369 1.433 . S
C1368 C1364 1.350 . S
C1368 C1365 1.463 . S
C1368 N1372 1.427 . S
C1369 H1359 0.929 . S
C1369 C1367 1.433 . S
C1369 N1372 1.384 . S
C1370 H1361 0.929 . S
C1370 C1362 1.378 . S
C1370 C1365 1.350 . S
C1371 H1358 0.929 . S
C1371 C1363 1.433 . S
C1371 N1373 1.384 . S
N1372 C1368 1.427 . S
N1372 C1369 1.384 . S
N1373 C1365 1.427 . S
N1373 C1371 1.384 . S
H1374 C1380 0.930 . S
H1375 C1384 0.930 . S
H1376 C1389 0.929 . S
H1377 C1387 0.929 . S
H1378 C1382 0.929 . S
H1379 C1388 0.929 . S
C1380 H1374 0.930 . S
C1380 C1381 1.367 . S
C1380 C1388 1.378 . S
C1381 C1380 1.367 . S
C1381 C1389 1.433 . S
C1382 H1378 0.929 . S
C1382 C1384 1.378 . S
C1382 C1386 1.350 . S
C1383 C1386 1.463 . S
C1383 C1388 1.350 . S
C1383 N1391 1.427 . S
C1384 H1375 0.930 . S
C1384 C1382 1.378 . S
C1384 C1385 1.367 . S
C1385 C1384 1.367 . S
C1385 C1387 1.433 . S
C1386 C1382 1.350 . S
C1386 C1383 1.463 . S
C1386 N1390 1.427 . S
C1387 H1377 0.929 . S
C1387 C1385 1.433 . S
C1387 N1390 1.384 . S
C1388 H1379 0.929 . S
C1388 C1380 1.378 . S
C1388 C1383 1.350 . S
C1389 H1376 0.929 . S
C1389 C1381 1.433 . S
C1389 N1391 1.384 . S
N1390 C1386 1.427 . S
N1390 C1387 1.384 . S
N1391 C1383 1.427 . S
N1391 C1389 1.384 . S
H1392 C1398 0.930 . S
H1393 C1402 0.930 . S
H1394 C1407 0.929 . S
H1395 C1405 0.929 . S
H1396 C1400 0.929 . S
H1397 C1406 0.929 . S
C1398 H1392 0.930 . S
C1398 C1399 1.367 . S
C1398 C1406 1.378 . S
C1399 C1398 1.367 . S
C1399 C1407 1.433 . S
C1400 H1396 0.929 . S
C1400 C1402 1.378 . S
C1400 C1404 1.350 . S
C1401 C1404 1.463 . S
C1401 C1406 1.350 . S
C1401 N1409 1.427 . S
C1402 H1393 0.930 . S
C1402 C1400 1.378 . S
C1402 C1403 1.367 . S
C1403 C1402 1.367 . S
C1403 C1405 1.433 . S
C1404 C1400 1.350 . S
C1404 C1401 1.463 . S
C1404 N1408 1.427 . S
C1405 H1395 0.929 . S
C1405 C1403 1.433 . S
C1405 N1408 1.384 . S
C1406 H1397 0.929 . S
C1406 C1398 1.378 . S
C1406 C1401 1.350 . S
C1407 H1394 0.929 . S
C1407 C1399 1.433 . S
C1407 N1409 1.384 . S
N1408 C1404 1.427 . S
N1408 C1405 1.384 . S
N1409 C1401 1.427 . S
N1409 C1407 1.384 . S
H1410 C1416 0.930 . S
H1411 C1420 0.930 . S
H1412 C1425 0.929 . S
H1413 C1423 0.929 . S
H1414 C1418 0.929 . S
H1415 C1424 0.929 . S
C1416 H1410 0.930 . S
C1416 C1417 1.367 . S
C1416 C1424 1.378 . S
C1417 C1416 1.367 . S
C1417 C1425 1.433 . S
C1418 H1414 0.929 . S
C1418 C1420 1.378 . S
C1418 C1422 1.350 . S
C1419 C1422 1.463 . S
C1419 C1424 1.350 . S
C1419 N1427 1.427 . S
C1420 H1411 0.930 . S
C1420 C1418 1.378 . S
C1420 C1421 1.367 . S
C1421 C1420 1.367 . S
C1421 C1423 1.433 . S
C1422 C1418 1.350 . S
C1422 C1419 1.463 . S
C1422 N1426 1.427 . S
C1423 H1413 0.929 . S
C1423 C1421 1.433 . S
C1423 N1426 1.384 . S
C1424 H1415 0.929 . S
C1424 C1416 1.378 . S
C1424 C1419 1.350 . S
C1425 H1412 0.929 . S
C1425 C1417 1.433 . S
C1425 N1427 1.384 . S
N1426 C1422 1.427 . S
N1426 C1423 1.384 . S
N1427 C1419 1.427 . S
N1427 C1425 1.384 . S
H1428 C1434 0.930 . S
H1429 C1438 0.930 . S
H1430 C1443 0.929 . S
H1431 C1441 0.929 . S
H1432 C1436 0.929 . S
H1433 C1442 0.929 . S
C1434 H1428 0.930 . S
C1434 C1435 1.367 . S
C1434 C1442 1.378 . S
C1435 C1434 1.367 . S
C1435 C1443 1.433 . S
C1436 H1432 0.929 . S
C1436 C1438 1.378 . S
C1436 C1440 1.350 . S
C1437 C1440 1.463 . S
C1437 C1442 1.350 . S
C1437 N1445 1.427 . S
C1438 H1429 0.930 . S
C1438 C1436 1.378 . S
C1438 C1439 1.367 . S
C1439 C1438 1.367 . S
C1439 C1441 1.433 . S
C1440 C1436 1.350 . S
C1440 C1437 1.463 . S
C1440 N1444 1.427 . S
C1441 H1431 0.929 . S
C1441 C1439 1.433 . S
C1441 N1444 1.384 . S
C1442 H1433 0.929 . S
C1442 C1434 1.378 . S
C1442 C1437 1.350 . S
C1443 H1430 0.929 . S
C1443 C1435 1.433 . S
C1443 N1445 1.384 . S
N1444 C1440 1.427 . S
N1444 C1441 1.384 . S
N1445 C1437 1.427 . S
N1445 C1443 1.384 . S
H1446 C1452 0.930 . S
H1447 C1456 0.930 . S
H1448 C1461 0.929 . S
H1449 C1459 0.929 . S
H1450 C1454 0.929 . S
H1451 C1460 0.929 . S
C1452 H1446 0.930 . S
C1452 C1453 1.367 . S
C1452 C1460 1.378 . S
C1453 C1452 1.367 . S
C1453 C1461 1.433 . S
C1454 H1450 0.929 . S
C1454 C1456 1.378 . S
C1454 C1458 1.350 . S
C1455 C1458 1.463 . S
C1455 C1460 1.350 . S
C1455 N1463 1.427 . S
C1456 H1447 0.930 . S
C1456 C1454 1.378 . S
C1456 C1457 1.367 . S
C1457 C1456 1.367 . S
C1457 C1459 1.433 . S
C1458 C1454 1.350 . S
C1458 C1455 1.463 . S
C1458 N1462 1.427 . S
C1459 H1449 0.929 . S
C1459 C1457 1.433 . S
C1459 N1462 1.384 . S
C1460 H1451 0.929 . S
C1460 C1452 1.378 . S
C1460 C1455 1.350 . S
C1461 H1448 0.929 . S
C1461 C1453 1.433 . S
C1461 N1463 1.384 . S
N1462 C1458 1.427 . S
N1462 C1459 1.384 . S
N1463 C1455 1.427 . S
N1463 C1461 1.384 . S
H1464 C1470 0.930 . S
H1465 C1474 0.930 . S
H1466 C1479 0.929 . S
H1467 C1477 0.929 . S
H1468 C1472 0.929 . S
H1469 C1478 0.929 . S
C1470 H1464 0.930 . S
C1470 C1471 1.367 . S
C1470 C1478 1.378 . S
C1471 C1470 1.367 . S
C1471 C1479 1.433 . S
C1472 H1468 0.929 . S
C1472 C1474 1.378 . S
C1472 C1476 1.350 . S
C1473 C1476 1.463 . S
C1473 C1478 1.350 . S
C1473 N1481 1.427 . S
C1474 H1465 0.930 . S
C1474 C1472 1.378 . S
C1474 C1475 1.367 . S
C1475 C1474 1.367 . S
C1475 C1477 1.433 . S
C1476 C1472 1.350 . S
C1476 C1473 1.463 . S
C1476 N1480 1.427 . S
C1477 H1467 0.929 . S
C1477 C1475 1.433 . S
C1477 N1480 1.384 . S
C1478 H1469 0.929 . S
C1478 C1470 1.378 . S
C1478 C1473 1.350 . S
C1479 H1466 0.929 . S
C1479 C1471 1.433 . S
C1479 N1481 1.384 . S
N1480 C1476 1.427 . S
N1480 C1477 1.384 . S
N1481 C1473 1.427 . S
N1481 C1479 1.384 . S
H1482 C1488 0.930 . S
H1483 C1492 0.930 . S
H1484 C1497 0.929 . S
H1485 C1495 0.929 . S
H1486 C1490 0.929 . S
H1487 C1496 0.929 . S
C1488 H1482 0.930 . S
C1488 C1489 1.367 . S
C1488 C1496 1.378 . S
C1489 C1488 1.367 . S
C1489 C1497 1.433 . S
C1490 H1486 0.929 . S
C1490 C1492 1.378 . S
C1490 C1494 1.350 . S
C1491 C1494 1.463 . S
C1491 C1496 1.350 . S
C1491 N1499 1.427 . S
C1492 H1483 0.930 . S
C1492 C1490 1.378 . S
C1492 C1493 1.367 . S
C1493 C1492 1.367 . S
C1493 C1495 1.433 . S
C1494 C1490 1.350 . S
C1494 C1491 1.463 . S
C1494 N1498 1.427 . S
C1495 H1485 0.929 . S
C1495 C1493 1.433 . S
C1495 N1498 1.384 . S
C1496 H1487 0.929 . S
C1496 C1488 1.378 . S
C1496 C1491 1.350 . S
C1497 H1484 0.929 . S
C1497 C1489 1.433 . S
C1497 N1499 1.384 . S
N1498 C1494 1.427 . S
N1498 C1495 1.384 . S
N1499 C1491 1.427 . S
N1499 C1497 1.384 . S
H1500 C1506 0.930 . S
H1501 C1510 0.930 . S
H1502 C1515 0.929 . S
H1503 C1513 0.929 . S
H1504 C1508 0.929 . S
H1505 C1514 0.929 . S
C1506 H1500 0.930 . S
C1506 C1507 1.367 . S
C1506 C1514 1.378 . S
C1507 C1506 1.367 . S
C1507 C1515 1.433 . S
C1508 H1504 0.929 . S
C1508 C1510 1.378 . S
C1508 C1512 1.350 . S
C1509 C1512 1.463 . S
C1509 C1514 1.350 . S
C1509 N1517 1.427 . S
C1510 H1501 0.930 . S
C1510 C1508 1.378 . S
C1510 C1511 1.367 . S
C1511 C1510 1.367 . S
C1511 C1513 1.433 . S
C1512 C1508 1.350 . S
C1512 C1509 1.463 . S
C1512 N1516 1.427 . S
C1513 H1503 0.929 . S
C1513 C1511 1.433 . S
C1513 N1516 1.384 . S
C1514 H1505 0.929 . S
C1514 C1506 1.378 . S
C1514 C1509 1.350 . S
C1515 H1502 0.929 . S
C1515 C1507 1.433 . S
C1515 N1517 1.384 . S
N1516 C1512 1.427 . S
N1516 C1513 1.384 . S
N1517 C1509 1.427 . S
N1517 C1515 1.384 . S
H1518 C1524 0.930 . S
H1519 C1528 0.930 . S
H1520 C1533 0.929 . S
H1521 C1531 0.929 . S
H1522 C1526 0.929 . S
H1523 C1532 0.929 . S
C1524 H1518 0.930 . S
C1524 C1525 1.367 . S
C1524 C1532 1.378 . S
C1525 C1524 1.367 . S
C1525 C1533 1.433 . S
C1526 H1522 0.929 . S
C1526 C1528 1.378 . S
C1526 C1530 1.350 . S
C1527 C1530 1.463 . S
C1527 C1532 1.350 . S
C1527 N1535 1.427 . S
C1528 H1519 0.930 . S
C1528 C1526 1.378 . S
C1528 C1529 1.367 . S
C1529 C1528 1.367 . S
C1529 C1531 1.433 . S
C1530 C1526 1.350 . S
C1530 C1527 1.463 . S
C1530 N1534 1.427 . S
C1531 H1521 0.929 . S
C1531 C1529 1.433 . S
C1531 N1534 1.384 . S
C1532 H1523 0.929 . S
C1532 C1524 1.378 . S
C1532 C1527 1.350 . S
C1533 H1520 0.929 . S
C1533 C1525 1.433 . S
C1533 N1535 1.384 . S
N1534 C1530 1.427 . S
N1534 C1531 1.384 . S
N1535 C1527 1.427 . S
N1535 C1533 1.384 . S
H1536 C1542 0.930 . S
H1537 C1546 0.930 . S
H1538 C1551 0.929 . S
H1539 C1549 0.929 . S
H1540 C1544 0.929 . S
H1541 C1550 0.929 . S
C1542 H1536 0.930 . S
C1542 C1543 1.367 . S
C1542 C1550 1.378 . S
C1543 C1542 1.367 . S
C1543 C1551 1.433 . S
C1544 H1540 0.929 . S
C1544 C1546 1.378 . S
C1544 C1548 1.350 . S
C1545 C1548 1.463 . S
C1545 C1550 1.350 . S
C1545 N1553 1.427 . S
C1546 H1537 0.930 . S
C1546 C1544 1.378 . S
C1546 C1547 1.367 . S
C1547 C1546 1.367 . S
C1547 C1549 1.433 . S
C1548 C1544 1.350 . S
C1548 C1545 1.463 . S
C1548 N1552 1.427 . S
C1549 H1539 0.929 . S
C1549 C1547 1.433 . S
C1549 N1552 1.384 . S
C1550 H1541 0.929 . S
C1550 C1542 1.378 . S
C1550 C1545 1.350 . S
C1551 H1538 0.929 . S
C1551 C1543 1.433 . S
C1551 N1553 1.384 . S
N1552 C1548 1.427 . S
N1552 C1549 1.384 . S
N1553 C1545 1.427 . S
N1553 C1551 1.384 . S
H1554 C1560 0.930 . S
H1555 C1564 0.930 . S
H1556 C1569 0.929 . S
H1557 C1567 0.929 . S
H1558 C1562 0.929 . S
H1559 C1568 0.929 . S
C1560 H1554 0.930 . S
C1560 C1561 1.367 . S
C1560 C1568 1.378 . S
C1561 C1560 1.367 . S
C1561 C1569 1.433 . S
C1562 H1558 0.929 . S
C1562 C1564 1.378 . S
C1562 C1566 1.350 . S
C1563 C1566 1.463 . S
C1563 C1568 1.350 . S
C1563 N1571 1.427 . S
C1564 H1555 0.930 . S
C1564 C1562 1.378 . S
C1564 C1565 1.367 . S
C1565 C1564 1.367 . S
C1565 C1567 1.433 . S
C1566 C1562 1.350 . S
C1566 C1563 1.463 . S
C1566 N1570 1.427 . S
C1567 H1557 0.929 . S
C1567 C1565 1.433 . S
C1567 N1570 1.384 . S
C1568 H1559 0.929 . S
C1568 C1560 1.378 . S
C1568 C1563 1.350 . S
C1569 H1556 0.929 . S
C1569 C1561 1.433 . S
C1569 N1571 1.384 . S
N1570 C1566 1.427 . S
N1570 C1567 1.384 . S
N1571 C1563 1.427 . S
N1571 C1569 1.384 . S
H1572 C1578 0.930 . S
H1573 C1582 0.930 . S
H1574 C1587 0.929 . S
H1575 C1585 0.929 . S
H1576 C1580 0.929 . S
H1577 C1586 0.929 . S
C1578 H1572 0.930 . S
C1578 C1579 1.367 . S
C1578 C1586 1.378 . S
C1579 C1578 1.367 . S
C1579 C1587 1.433 . S
C1580 H1576 0.929 . S
C1580 C1582 1.378 . S
C1580 C1584 1.350 . S
C1581 C1584 1.463 . S
C1581 C1586 1.350 . S
C1581 N1589 1.427 . S
C1582 H1573 0.930 . S
C1582 C1580 1.378 . S
C1582 C1583 1.367 . S
C1583 C1582 1.367 . S
C1583 C1585 1.433 . S
C1584 C1580 1.350 . S
C1584 C1581 1.463 . S
C1584 N1588 1.427 . S
C1585 H1575 0.929 . S
C1585 C1583 1.433 . S
C1585 N1588 1.384 . S
C1586 H1577 0.929 . S
C1586 C1578 1.378 . S
C1586 C1581 1.350 . S
C1587 H1574 0.929 . S
C1587 C1579 1.433 . S
C1587 N1589 1.384 . S
N1588 C1584 1.427 . S
N1588 C1585 1.384 . S
N1589 C1581 1.427 . S
N1589 C1587 1.384 . S
H1590 C1596 0.930 . S
H1591 C1600 0.930 . S
H1592 C1605 0.929 . S
H1593 C1603 0.929 . S
H1594 C1598 0.929 . S
H1595 C1604 0.929 . S
C1596 H1590 0.930 . S
C1596 C1597 1.367 . S
C1596 C1604 1.378 . S
C1597 C1596 1.367 . S
C1597 C1605 1.433 . S
C1598 H1594 0.929 . S
C1598 C1600 1.378 . S
C1598 C1602 1.350 . S
C1599 C1602 1.463 . S
C1599 C1604 1.350 . S
C1599 N1607 1.427 . S
C1600 H1591 0.930 . S
C1600 C1598 1.378 . S
C1600 C1601 1.367 . S
C1601 C1600 1.367 . S
C1601 C1603 1.433 . S
C1602 C1598 1.350 . S
C1602 C1599 1.463 . S
C1602 N1606 1.427 . S
C1603 H1593 0.929 . S
C1603 C1601 1.433 . S
C1603 N1606 1.384 . S
C1604 H1595 0.929 . S
C1604 C1596 1.378 . S
C1604 C1599 1.350 . S
C1605 H1592 0.929 . S
C1605 C1597 1.433 . S
C1605 N1607 1.384 . S
N1606 C1602 1.427 . S
N1606 C1603 1.384 . S
N1607 C1599 1.427 . S
N1607 C1605 1.384 . S
H1608 C1614 0.930 . S
H1609 C1618 0.930 . S
H1610 C1623 0.929 . S
H1611 C1621 0.929 . S
H1612 C1616 0.929 . S
H1613 C1622 0.929 . S
C1614 H1608 0.930 . S
C1614 C1615 1.367 . S
C1614 C1622 1.378 . S
C1615 C1614 1.367 . S
C1615 C1623 1.433 . S
C1616 H1612 0.929 . S
C1616 C1618 1.378 . S
C1616 C1620 1.350 . S
C1617 C1620 1.463 . S
C1617 C1622 1.350 . S
C1617 N1625 1.427 . S
C1618 H1609 0.930 . S
C1618 C1616 1.378 . S
C1618 C1619 1.367 . S
C1619 C1618 1.367 . S
C1619 C1621 1.433 . S
C1620 C1616 1.350 . S
C1620 C1617 1.463 . S
C1620 N1624 1.427 . S
C1621 H1611 0.929 . S
C1621 C1619 1.433 . S
C1621 N1624 1.384 . S
C1622 H1613 0.929 . S
C1622 C1614 1.378 . S
C1622 C1617 1.350 . S
C1623 H1610 0.929 . S
C1623 C1615 1.433 . S
C1623 N1625 1.384 . S
N1624 C1620 1.427 . S
N1624 C1621 1.384 . S
N1625 C1617 1.427 . S
N1625 C1623 1.384 . S
H1626 C1632 0.930 . S
H1627 C1636 0.930 . S
H1628 C1641 0.929 . S
H1629 C1639 0.929 . S
H1630 C1634 0.929 . S
H1631 C1640 0.929 . S
C1632 H1626 0.930 . S
C1632 C1633 1.367 . S
C1632 C1640 1.378 . S
C1633 C1632 1.367 . S
C1633 C1641 1.433 . S
C1634 H1630 0.929 . S
C1634 C1636 1.378 . S
C1634 C1638 1.350 . S
C1635 C1638 1.463 . S
C1635 C1640 1.350 . S
C1635 N1643 1.427 . S
C1636 H1627 0.930 . S
C1636 C1634 1.378 . S
C1636 C1637 1.367 . S
C1637 C1636 1.367 . S
C1637 C1639 1.433 . S
C1638 C1634 1.350 . S
C1638 C1635 1.463 . S
C1638 N1642 1.427 . S
C1639 H1629 0.929 . S
C1639 C1637 1.433 . S
C1639 N1642 1.384 . S
C1640 H1631 0.929 . S
C1640 C1632 1.378 . S
C1640 C1635 1.350 . S
C1641 H1628 0.929 . S
C1641 C1633 1.433 . S
C1641 N1643 1.384 . S
N1642 C1638 1.427 . S
N1642 C1639 1.384 . S
N1643 C1635 1.427 . S
N1643 C1641 1.384 . S
H1644 C1650 0.930 . S
H1645 C1654 0.930 . S
H1646 C1659 0.929 . S
H1647 C1657 0.929 . S
H1648 C1652 0.929 . S
H1649 C1658 0.929 . S
C1650 H1644 0.930 . S
C1650 C1651 1.367 . S
C1650 C1658 1.378 . S
C1651 C1650 1.367 . S
C1651 C1659 1.433 . S
C1652 H1648 0.929 . S
C1652 C1654 1.378 . S
C1652 C1656 1.350 . S
C1653 C1656 1.463 . S
C1653 C1658 1.350 . S
C1653 N1661 1.427 . S
C1654 H1645 0.930 . S
C1654 C1652 1.378 . S
C1654 C1655 1.367 . S
C1655 C1654 1.367 . S
C1655 C1657 1.433 . S
C1656 C1652 1.350 . S
C1656 C1653 1.463 . S
C1656 N1660 1.427 . S
C1657 H1647 0.929 . S
C1657 C1655 1.433 . S
C1657 N1660 1.384 . S
C1658 H1649 0.929 . S
C1658 C1650 1.378 . S
C1658 C1653 1.350 . S
C1659 H1646 0.929 . S
C1659 C1651 1.433 . S
C1659 N1661 1.384 . S
N1660 C1656 1.427 . S
N1660 C1657 1.384 . S
N1661 C1653 1.427 . S
N1661 C1659 1.384 . S
H1662 C1668 0.930 . S
H1663 C1672 0.930 . S
H1664 C1677 0.929 . S
H1665 C1675 0.929 . S
H1666 C1670 0.929 . S
H1667 C1676 0.929 . S
C1668 H1662 0.930 . S
C1668 C1669 1.367 . S
C1668 C1676 1.378 . S
C1669 C1668 1.367 . S
C1669 C1677 1.433 . S
C1670 H1666 0.929 . S
C1670 C1672 1.378 . S
C1670 C1674 1.350 . S
C1671 C1674 1.463 . S
C1671 C1676 1.350 . S
C1671 N1679 1.427 . S
C1672 H1663 0.930 . S
C1672 C1670 1.378 . S
C1672 C1673 1.367 . S
C1673 C1672 1.367 . S
C1673 C1675 1.433 . S
C1674 C1670 1.350 . S
C1674 C1671 1.463 . S
C1674 N1678 1.427 . S
C1675 H1665 0.929 . S
C1675 C1673 1.433 . S
C1675 N1678 1.384 . S
C1676 H1667 0.929 . S
C1676 C1668 1.378 . S
C1676 C1671 1.350 . S
C1677 H1664 0.929 . S
C1677 C1669 1.433 . S
C1677 N1679 1.384 . S
N1678 C1674 1.427 . S
N1678 C1675 1.384 . S
N1679 C1671 1.427 . S
N1679 C1677 1.384 . S
H1680 C1686 0.930 . S
H1681 C1690 0.930 . S
H1682 C1695 0.929 . S
H1683 C1693 0.929 . S
H1684 C1688 0.929 . S
H1685 C1694 0.929 . S
C1686 H1680 0.930 . S
C1686 C1687 1.367 . S
C1686 C1694 1.378 . S
C1687 C1686 1.367 . S
C1687 C1695 1.433 . S
C1688 H1684 0.929 . S
C1688 C1690 1.378 . S
C1688 C1692 1.350 . S
C1689 C1692 1.463 . S
C1689 C1694 1.350 . S
C1689 N1697 1.427 . S
C1690 H1681 0.930 . S
C1690 C1688 1.378 . S
C1690 C1691 1.367 . S
C1691 C1690 1.367 . S
C1691 C1693 1.433 . S
C1692 C1688 1.350 . S
C1692 C1689 1.463 . S
C1692 N1696 1.427 . S
C1693 H1683 0.929 . S
C1693 C1691 1.433 . S
C1693 N1696 1.384 . S
C1694 H1685 0.929 . S
C1694 C1686 1.378 . S
C1694 C1689 1.350 . S
C1695 H1682 0.929 . S
C1695 C1687 1.433 . S
C1695 N1697 1.384 . S
N1696 C1692 1.427 . S
N1696 C1693 1.384 . S
N1697 C1689 1.427 . S
N1697 C1695 1.384 . S
H1698 C1704 0.930 . S
H1699 C1708 0.930 . S
H1700 C1713 0.929 . S
H1701 C1711 0.929 . S
H1702 C1706 0.929 . S
H1703 C1712 0.929 . S
C1704 H1698 0.930 . S
C1704 C1705 1.367 . S
C1704 C1712 1.378 . S
C1705 C1704 1.367 . S
C1705 C1713 1.433 . S
C1706 H1702 0.929 . S
C1706 C1708 1.378 . S
C1706 C1710 1.350 . S
C1707 C1710 1.463 . S
C1707 C1712 1.350 . S
C1707 N1715 1.427 . S
C1708 H1699 0.930 . S
C1708 C1706 1.378 . S
C1708 C1709 1.367 . S
C1709 C1708 1.367 . S
C1709 C1711 1.433 . S
C1710 C1706 1.350 . S
C1710 C1707 1.463 . S
C1710 N1714 1.427 . S
C1711 H1701 0.929 . S
C1711 C1709 1.433 . S
C1711 N1714 1.384 . S
C1712 H1703 0.929 . S
C1712 C1704 1.378 . S
C1712 C1707 1.350 . S
C1713 H1700 0.929 . S
C1713 C1705 1.433 . S
C1713 N1715 1.384 . S
N1714 C1710 1.427 . S
N1714 C1711 1.384 . S
N1715 C1707 1.427 . S
N1715 C1713 1.384 . S
H1716 C1722 0.930 . S
H1717 C1726 0.930 . S
H1718 C1731 0.929 . S
H1719 C1729 0.929 . S
H1720 C1724 0.929 . S
H1721 C1730 0.929 . S
C1722 H1716 0.930 . S
C1722 C1723 1.367 . S
C1722 C1730 1.378 . S
C1723 C1722 1.367 . S
C1723 C1731 1.433 . S
C1724 H1720 0.929 . S
C1724 C1726 1.378 . S
C1724 C1728 1.350 . S
C1725 C1728 1.463 . S
C1725 C1730 1.350 . S
C1725 N1733 1.427 . S
C1726 H1717 0.930 . S
C1726 C1724 1.378 . S
C1726 C1727 1.367 . S
C1727 C1726 1.367 . S
C1727 C1729 1.433 . S
C1728 C1724 1.350 . S
C1728 C1725 1.463 . S
C1728 N1732 1.427 . S
C1729 H1719 0.929 . S
C1729 C1727 1.433 . S
C1729 N1732 1.384 . S
C1730 H1721 0.929 . S
C1730 C1722 1.378 . S
C1730 C1725 1.350 . S
C1731 H1718 0.929 . S
C1731 C1723 1.433 . S
C1731 N1733 1.384 . S
N1732 C1728 1.427 . S
N1732 C1729 1.384 . S
N1733 C1725 1.427 . S
N1733 C1731 1.384 . S
H1734 C1740 0.930 . S
H1735 C1744 0.930 . S
H1736 C1749 0.929 . S
H1737 C1747 0.929 . S
H1738 C1742 0.929 . S
H1739 C1748 0.929 . S
C1740 H1734 0.930 . S
C1740 C1741 1.367 . S
C1740 C1748 1.378 . S
C1741 C1740 1.367 . S
C1741 C1749 1.433 . S
C1742 H1738 0.929 . S
C1742 C1744 1.378 . S
C1742 C1746 1.350 . S
C1743 C1746 1.463 . S
C1743 C1748 1.350 . S
C1743 N1751 1.427 . S
C1744 H1735 0.930 . S
C1744 C1742 1.378 . S
C1744 C1745 1.367 . S
C1745 C1744 1.367 . S
C1745 C1747 1.433 . S
C1746 C1742 1.350 . S
C1746 C1743 1.463 . S
C1746 N1750 1.427 . S
C1747 H1737 0.929 . S
C1747 C1745 1.433 . S
C1747 N1750 1.384 . S
C1748 H1739 0.929 . S
C1748 C1740 1.378 . S
C1748 C1743 1.350 . S
C1749 H1736 0.929 . S
C1749 C1741 1.433 . S
C1749 N1751 1.384 . S
N1750 C1746 1.427 . S
N1750 C1747 1.384 . S
N1751 C1743 1.427 . S
N1751 C1749 1.384 . S
H1752 C1758 0.930 . S
H1753 C1762 0.930 . S
H1754 C1767 0.929 . S
H1755 C1765 0.929 . S
H1756 C1760 0.929 . S
H1757 C1766 0.929 . S
C1758 H1752 0.930 . S
C1758 C1759 1.367 . S
C1758 C1766 1.378 . S
C1759 C1758 1.367 . S
C1759 C1767 1.433 . S
C1760 H1756 0.929 . S
C1760 C1762 1.378 . S
C1760 C1764 1.350 . S
C1761 C1764 1.463 . S
C1761 C1766 1.350 . S
C1761 N1769 1.427 . S
C1762 H1753 0.930 . S
C1762 C1760 1.378 . S
C1762 C1763 1.367 . S
C1763 C1762 1.367 . S
C1763 C1765 1.433 . S
C1764 C1760 1.350 . S
C1764 C1761 1.463 . S
C1764 N1768 1.427 . S
C1765 H1755 0.929 . S
C1765 C1763 1.433 . S
C1765 N1768 1.384 . S
C1766 H1757 0.929 . S
C1766 C1758 1.378 . S
C1766 C1761 1.350 . S
C1767 H1754 0.929 . S
C1767 C1759 1.433 . S
C1767 N1769 1.384 . S
N1768 C1764 1.427 . S
N1768 C1765 1.384 . S
N1769 C1761 1.427 . S
N1769 C1767 1.384 . S
H1770 C1776 0.930 . S
H1771 C1780 0.930 . S
H1772 C1785 0.929 . S
H1773 C1783 0.929 . S
H1774 C1778 0.929 . S
H1775 C1784 0.929 . S
C1776 H1770 0.930 . S
C1776 C1777 1.367 . S
C1776 C1784 1.378 . S
C1777 C1776 1.367 . S
C1777 C1785 1.433 . S
C1778 H1774 0.929 . S
C1778 C1780 1.378 . S
C1778 C1782 1.350 . S
C1779 C1782 1.463 . S
C1779 C1784 1.350 . S
C1779 N1787 1.427 . S
C1780 H1771 0.930 . S
C1780 C1778 1.378 . S
C1780 C1781 1.367 . S
C1781 C1780 1.367 . S
C1781 C1783 1.433 . S
C1782 C1778 1.350 . S
C1782 C1779 1.463 . S
C1782 N1786 1.427 . S
C1783 H1773 0.929 . S
C1783 C1781 1.433 . S
C1783 N1786 1.384 . S
C1784 H1775 0.929 . S
C1784 C1776 1.378 . S
C1784 C1779 1.350 . S
C1785 H1772 0.929 . S
C1785 C1777 1.433 . S
C1785 N1787 1.384 . S
N1786 C1782 1.427 . S
N1786 C1783 1.384 . S
N1787 C1779 1.427 . S
N1787 C1785 1.384 . S
H1788 C1794 0.930 . S
H1789 C1798 0.930 . S
H1790 C1803 0.929 . S
H1791 C1801 0.929 . S
H1792 C1796 0.929 . S
H1793 C1802 0.929 . S
C1794 H1788 0.930 . S
C1794 C1795 1.367 . S
C1794 C1802 1.378 . S
C1795 C1794 1.367 . S
C1795 C1803 1.433 . S
C1796 H1792 0.929 . S
C1796 C1798 1.378 . S
C1796 C1800 1.350 . S
C1797 C1800 1.463 . S
C1797 C1802 1.350 . S
C1797 N1805 1.427 . S
C1798 H1789 0.930 . S
C1798 C1796 1.378 . S
C1798 C1799 1.367 . S
C1799 C1798 1.367 . S
C1799 C1801 1.433 . S
C1800 C1796 1.350 . S
C1800 C1797 1.463 . S
C1800 N1804 1.427 . S
C1801 H1791 0.929 . S
C1801 C1799 1.433 . S
C1801 N1804 1.384 . S
C1802 H1793 0.929 . S
C1802 C1794 1.378 . S
C1802 C1797 1.350 . S
C1803 H1790 0.929 . S
C1803 C1795 1.433 . S
C1803 N1805 1.384 . S
N1804 C1800 1.427 . S
N1804 C1801 1.384 . S
N1805 C1797 1.427 . S
N1805 C1803 1.384 . S
H1806 C1812 0.930 . S
H1807 C1816 0.930 . S
H1808 C1821 0.929 . S
H1809 C1819 0.929 . S
H1810 C1814 0.929 . S
H1811 C1820 0.929 . S
C1812 H1806 0.930 . S
C1812 C1813 1.367 . S
C1812 C1820 1.378 . S
C1813 C1812 1.367 . S
C1813 C1821 1.433 . S
C1814 H1810 0.929 . S
C1814 C1816 1.378 . S
C1814 C1818 1.350 . S
C1815 C1818 1.463 . S
C1815 C1820 1.350 . S
C1815 N1823 1.427 . S
C1816 H1807 0.930 . S
C1816 C1814 1.378 . S
C1816 C1817 1.367 . S
C1817 C1816 1.367 . S
C1817 C1819 1.433 . S
C1818 C1814 1.350 . S
C1818 C1815 1.463 . S
C1818 N1822 1.427 . S
C1819 H1809 0.929 . S
C1819 C1817 1.433 . S
C1819 N1822 1.384 . S
C1820 H1811 0.929 . S
C1820 C1812 1.378 . S
C1820 C1815 1.350 . S
C1821 H1808 0.929 . S
C1821 C1813 1.433 . S
C1821 N1823 1.384 . S
N1822 C1818 1.427 . S
N1822 C1819 1.384 . S
N1823 C1815 1.427 . S
N1823 C1821 1.384 . S
H1824 C1830 0.930 . S
H1825 C1834 0.930 . S
H1826 C1839 0.929 . S
H1827 C1837 0.929 . S
H1828 C1832 0.929 . S
H1829 C1838 0.929 . S
C1830 H1824 0.930 . S
C1830 C1831 1.367 . S
C1830 C1838 1.378 . S
C1831 C1830 1.367 . S
C1831 C1839 1.433 . S
C1832 H1828 0.929 . S
C1832 C1834 1.378 . S
C1832 C1836 1.350 . S
C1833 C1836 1.463 . S
C1833 C1838 1.350 . S
C1833 N1841 1.427 . S
C1834 H1825 0.930 . S
C1834 C1832 1.378 . S
C1834 C1835 1.367 . S
C1835 C1834 1.367 . S
C1835 C1837 1.433 . S
C1836 C1832 1.350 . S
C1836 C1833 1.463 . S
C1836 N1840 1.427 . S
C1837 H1827 0.929 . S
C1837 C1835 1.433 . S
C1837 N1840 1.384 . S
C1838 H1829 0.929 . S
C1838 C1830 1.378 . S
C1838 C1833 1.350 . S
C1839 H1826 0.929 . S
C1839 C1831 1.433 . S
C1839 N1841 1.384 . S
N1840 C1836 1.427 . S
N1840 C1837 1.384 . S
N1841 C1833 1.427 . S
N1841 C1839 1.384 . S
H1842 C1848 0.930 . S
H1843 C1852 0.930 . S
H1844 C1857 0.929 . S
H1845 C1855 0.929 . S
H1846 C1850 0.929 . S
H1847 C1856 0.929 . S
C1848 H1842 0.930 . S
C1848 C1849 1.367 . S
C1848 C1856 1.378 . S
C1849 C1848 1.367 . S
C1849 C1857 1.433 . S
C1850 H1846 0.929 . S
C1850 C1852 1.378 . S
C1850 C1854 1.350 . S
C1851 C1854 1.463 . S
C1851 C1856 1.350 . S
C1851 N1859 1.427 . S
C1852 H1843 0.930 . S
C1852 C1850 1.378 . S
C1852 C1853 1.367 . S
C1853 C1852 1.367 . S
C1853 C1855 1.433 . S
C1854 C1850 1.350 . S
C1854 C1851 1.463 . S
C1854 N1858 1.427 . S
C1855 H1845 0.929 . S
C1855 C1853 1.433 . S
C1855 N1858 1.384 . S
C1856 H1847 0.929 . S
C1856 C1848 1.378 . S
C1856 C1851 1.350 . S
C1857 H1844 0.929 . S
C1857 C1849 1.433 . S
C1857 N1859 1.384 . S
N1858 C1854 1.427 . S
N1858 C1855 1.384 . S
N1859 C1851 1.427 . S
N1859 C1857 1.384 . S
H1860 C1866 0.930 . S
H1861 C1870 0.930 . S
H1862 C1875 0.929 . S
H1863 C1873 0.929 . S
H1864 C1868 0.929 . S
H1865 C1874 0.929 . S
C1866 H1860 0.930 . S
C1866 C1867 1.367 . S
C1866 C1874 1.378 . S
C1867 C1866 1.367 . S
C1867 C1875 1.433 . S
C1868 H1864 0.929 . S
C1868 C1870 1.378 . S
C1868 C1872 1.350 . S
C1869 C1872 1.463 . S
C1869 C1874 1.350 . S
C1869 N1877 1.427 . S
C1870 H1861 0.930 . S
C1870 C1868 1.378 . S
C1870 C1871 1.367 . S
C1871 C1870 1.367 . S
C1871 C1873 1.433 . S
C1872 C1868 1.350 . S
C1872 C1869 1.463 . S
C1872 N1876 1.427 . S
C1873 H1863 0.929 . S
C1873 C1871 1.433 . S
C1873 N1876 1.384 . S
C1874 H1865 0.929 . S
C1874 C1866 1.378 . S
C1874 C1869 1.350 . S
C1875 H1862 0.929 . S
C1875 C1867 1.433 . S
C1875 N1877 1.384 . S
N1876 C1872 1.427 . S
N1876 C1873 1.384 . S
N1877 C1869 1.427 . S
N1877 C1875 1.384 . S
H1878 C1884 0.930 . S
H1879 C1888 0.930 . S
H1880 C1893 0.929 . S
H1881 C1891 0.929 . S
H1882 C1886 0.929 . S
H1883 C1892 0.929 . S
C1884 H1878 0.930 . S
C1884 C1885 1.367 . S
C1884 C1892 1.378 . S
C1885 C1884 1.367 . S
C1885 C1893 1.433 . S
C1886 H1882 0.929 . S
C1886 C1888 1.378 . S
C1886 C1890 1.350 . S
C1887 C1890 1.463 . S
C1887 C1892 1.350 . S
C1887 N1895 1.427 . S
C1888 H1879 0.930 . S
C1888 C1886 1.378 . S
C1888 C1889 1.367 . S
C1889 C1888 1.367 . S
C1889 C1891 1.433 . S
C1890 C1886 1.350 . S
C1890 C1887 1.463 . S
C1890 N1894 1.427 . S
C1891 H1881 0.929 . S
C1891 C1889 1.433 . S
C1891 N1894 1.384 . S
C1892 H1883 0.929 . S
C1892 C1884 1.378 . S
C1892 C1887 1.350 . S
C1893 H1880 0.929 . S
C1893 C1885 1.433 . S
C1893 N1895 1.384 . S
N1894 C1890 1.427 . S
N1894 C1891 1.384 . S
N1895 C1887 1.427 . S
N1895 C1893 1.384 . S
H1896 C1902 0.930 . S
H1897 C1906 0.930 . S
H1898 C1911 0.929 . S
H1899 C1909 0.929 . S
H1900 C1904 0.929 . S
H1901 C1910 0.929 . S
C1902 H1896 0.930 . S
C1902 C1903 1.367 . S
C1902 C1910 1.378 . S
C1903 C1902 1.367 . S
C1903 C1911 1.433 . S
C1904 H1900 0.929 . S
C1904 C1906 1.378 . S
C1904 C1908 1.350 . S
C1905 C1908 1.463 . S
C1905 C1910 1.350 . S
C1905 N1913 1.427 . S
C1906 H1897 0.930 . S
C1906 C1904 1.378 . S
C1906 C1907 1.367 . S
C1907 C1906 1.367 . S
C1907 C1909 1.433 . S
C1908 C1904 1.350 . S
C1908 C1905 1.463 . S
C1908 N1912 1.427 . S
C1909 H1899 0.929 . S
C1909 C1907 1.433 . S
C1909 N1912 1.384 . S
C1910 H1901 0.929 . S
C1910 C1902 1.378 . S
C1910 C1905 1.350 . S
C1911 H1898 0.929 . S
C1911 C1903 1.433 . S
C1911 N1913 1.384 . S
N1912 C1908 1.427 . S
N1912 C1909 1.384 . S
N1913 C1905 1.427 . S
N1913 C1911 1.384 . S
H1914 C1920 0.930 . S
H1915 C1924 0.930 . S
H1916 C1929 0.929 . S
H1917 C1927 0.929 . S
H1918 C1922 0.929 . S
H1919 C1928 0.929 . S
C1920 H1914 0.930 . S
C1920 C1921 1.367 . S
C1920 C1928 1.378 . S
C1921 C1920 1.367 . S
C1921 C1929 1.433 . S
C1922 H1918 0.929 . S
C1922 C1924 1.378 . S
C1922 C1926 1.350 . S
C1923 C1926 1.463 . S
C1923 C1928 1.350 . S
C1923 N1931 1.427 . S
C1924 H1915 0.930 . S
C1924 C1922 1.378 . S
C1924 C1925 1.367 . S
C1925 C1924 1.367 . S
C1925 C1927 1.433 . S
C1926 C1922 1.350 . S
C1926 C1923 1.463 . S
C1926 N1930 1.427 . S
C1927 H1917 0.929 . S
C1927 C1925 1.433 . S
C1927 N1930 1.384 . S
C1928 H1919 0.929 . S
C1928 C1920 1.378 . S
C1928 C1923 1.350 . S
C1929 H1916 0.929 . S
C1929 C1921 1.433 . S
C1929 N1931 1.384 . S
N1930 C1926 1.427 . S
N1930 C1927 1.384 . S
N1931 C1923 1.427 . S
N1931 C1929 1.384 . S
H1932 C1938 0.930 . S
H1933 C1942 0.930 . S
H1934 C1947 0.929 . S
H1935 C1945 0.929 . S
H1936 C1940 0.929 . S
H1937 C1946 0.929 . S
C1938 H1932 0.930 . S
C1938 C1939 1.367 . S
C1938 C1946 1.378 . S
C1939 C1938 1.367 . S
C1939 C1947 1.433 . S
C1940 H1936 0.929 . S
C1940 C1942 1.378 . S
C1940 C1944 1.350 . S
C1941 C1944 1.463 . S
C1941 C1946 1.350 . S
C1941 N1949 1.427 . S
C1942 H1933 0.930 . S
C1942 C1940 1.378 . S
C1942 C1943 1.367 . S
C1943 C1942 1.367 . S
C1943 C1945 1.433 . S
C1944 C1940 1.350 . S
C1944 C1941 1.463 . S
C1944 N1948 1.427 . S
C1945 H1935 0.929 . S
C1945 C1943 1.433 . S
C1945 N1948 1.384 . S
C1946 H1937 0.929 . S
C1946 C1938 1.378 . S
C1946 C1941 1.350 . S
C1947 H1934 0.929 . S
C1947 C1939 1.433 . S
C1947 N1949 1.384 . S
N1948 C1944 1.427 . S
N1948 C1945 1.384 . S
N1949 C1941 1.427 . S
N1949 C1947 1.384 . S
H1950 C1956 0.930 . S
H1951 C1960 0.930 . S
H1952 C1965 0.929 . S
H1953 C1963 0.929 . S
H1954 C1958 0.929 . S
H1955 C1964 0.929 . S
C1956 H1950 0.930 . S
C1956 C1957 1.367 . S
C1956 C1964 1.378 . S
C1957 C1956 1.367 . S
C1957 C1965 1.433 . S
C1958 H1954 0.929 . S
C1958 C1960 1.378 . S
C1958 C1962 1.350 . S
C1959 C1962 1.463 . S
C1959 C1964 1.350 . S
C1959 N1967 1.427 . S
C1960 H1951 0.930 . S
C1960 C1958 1.378 . S
C1960 C1961 1.367 . S
C1961 C1960 1.367 . S
C1961 C1963 1.433 . S
C1962 C1958 1.350 . S
C1962 C1959 1.463 . S
C1962 N1966 1.427 . S
C1963 H1953 0.929 . S
C1963 C1961 1.433 . S
C1963 N1966 1.384 . S
C1964 H1955 0.929 . S
C1964 C1956 1.378 . S
C1964 C1959 1.350 . S
C1965 H1952 0.929 . S
C1965 C1957 1.433 . S
C1965 N1967 1.384 . S
N1966 C1962 1.427 . S
N1966 C1963 1.384 . S
N1967 C1959 1.427 . S
N1967 C1965 1.384 . S
H1968 C1974 0.930 . S
H1969 C1978 0.930 . S
H1970 C1983 0.929 . S
H1971 C1981 0.929 . S
H1972 C1976 0.929 . S
H1973 C1982 0.929 . S
C1974 H1968 0.930 . S
C1974 C1975 1.367 . S
C1974 C1982 1.378 . S
C1975 C1974 1.367 . S
C1975 C1983 1.433 . S
C1976 H1972 0.929 . S
C1976 C1978 1.378 . S
C1976 C1980 1.350 . S
C1977 C1980 1.463 . S
C1977 C1982 1.350 . S
C1977 N1985 1.427 . S
C1978 H1969 0.930 . S
C1978 C1976 1.378 . S
C1978 C1979 1.367 . S
C1979 C1978 1.367 . S
C1979 C1981 1.433 . S
C1980 C1976 1.350 . S
C1980 C1977 1.463 . S
C1980 N1984 1.427 . S
C1981 H1971 0.929 . S
C1981 C1979 1.433 . S
C1981 N1984 1.384 . S
C1982 H1973 0.929 . S
C1982 C1974 1.378 . S
C1982 C1977 1.350 . S
C1983 H1970 0.929 . S
C1983 C1975 1.433 . S
C1983 N1985 1.384 . S
N1984 C1980 1.427 . S
N1984 C1981 1.384 . S
N1985 C1977 1.427 . S
N1985 C1983 1.384 . S
H1986 C1992 0.930 . S
H1987 C1996 0.930 . S
H1988 C2001 0.929 . S
H1989 C1999 0.929 . S
H1990 C1994 0.929 . S
H1991 C2000 0.929 . S
C1992 H1986 0.930 . S
C1992 C1993 1.367 . S
C1992 C2000 1.378 . S
C1993 C1992 1.367 . S
C1993 C2001 1.433 . S
C1994 H1990 0.929 . S
C1994 C1996 1.378 . S
C1994 C1998 1.350 . S
C1995 C1998 1.463 . S
C1995 C2000 1.350 . S
C1995 N2003 1.427 . S
C1996 H1987 0.930 . S
C1996 C1994 1.378 . S
C1996 C1997 1.367 . S
C1997 C1996 1.367 . S
C1997 C1999 1.433 . S
C1998 C1994 1.350 . S
C1998 C1995 1.463 . S
C1998 N2002 1.427 . S
C1999 H1989 0.929 . S
C1999 C1997 1.433 . S
C1999 N2002 1.384 . S
C2000 H1991 0.929 . S
C2000 C1992 1.378 . S
C2000 C1995 1.350 . S
C2001 H1988 0.929 . S
C2001 C1993 1.433 . S
C2001 N2003 1.384 . S
N2002 C1998 1.427 . S
N2002 C1999 1.384 . S
N2003 C1995 1.427 . S
N2003 C2001 1.384 . S
H2004 C2010 0.930 . S
H2005 C2014 0.930 . S
H2006 C2019 0.929 . S
H2007 C2017 0.929 . S
H2008 C2012 0.929 . S
H2009 C2018 0.929 . S
C2010 H2004 0.930 . S
C2010 C2011 1.367 . S
C2010 C2018 1.378 . S
C2011 C2010 1.367 . S
C2011 C2019 1.433 . S
C2012 H2008 0.929 . S
C2012 C2014 1.378 . S
C2012 C2016 1.350 . S
C2013 C2016 1.463 . S
C2013 C2018 1.350 . S
C2013 N2021 1.427 . S
C2014 H2005 0.930 . S
C2014 C2012 1.378 . S
C2014 C2015 1.367 . S
C2015 C2014 1.367 . S
C2015 C2017 1.433 . S
C2016 C2012 1.350 . S
C2016 C2013 1.463 . S
C2016 N2020 1.427 . S
C2017 H2007 0.929 . S
C2017 C2015 1.433 . S
C2017 N2020 1.384 . S
C2018 H2009 0.929 . S
C2018 C2010 1.378 . S
C2018 C2013 1.350 . S
C2019 H2006 0.929 . S
C2019 C2011 1.433 . S
C2019 N2021 1.384 . S
N2020 C2016 1.427 . S
N2020 C2017 1.384 . S
N2021 C2013 1.427 . S
N2021 C2019 1.384 . S
H2022 C2028 0.930 . S
H2023 C2032 0.930 . S
H2024 C2037 0.929 . S
H2025 C2035 0.929 . S
H2026 C2030 0.929 . S
H2027 C2036 0.929 . S
C2028 H2022 0.930 . S
C2028 C2029 1.367 . S
C2028 C2036 1.378 . S
C2029 C2028 1.367 . S
C2029 C2037 1.433 . S
C2030 H2026 0.929 . S
C2030 C2032 1.378 . S
C2030 C2034 1.350 . S
C2031 C2034 1.463 . S
C2031 C2036 1.350 . S
C2031 N2039 1.427 . S
C2032 H2023 0.930 . S
C2032 C2030 1.378 . S
C2032 C2033 1.367 . S
C2033 C2032 1.367 . S
C2033 C2035 1.433 . S
C2034 C2030 1.350 . S
C2034 C2031 1.463 . S
C2034 N2038 1.427 . S
C2035 H2025 0.929 . S
C2035 C2033 1.433 . S
C2035 N2038 1.384 . S
C2036 H2027 0.929 . S
C2036 C2028 1.378 . S
C2036 C2031 1.350 . S
C2037 H2024 0.929 . S
C2037 C2029 1.433 . S
C2037 N2039 1.384 . S
N2038 C2034 1.427 . S
N2038 C2035 1.384 . S
N2039 C2031 1.427 . S
N2039 C2037 1.384 . S
H2040 C2046 0.930 . S
H2041 C2050 0.930 . S
H2042 C2055 0.929 . S
H2043 C2053 0.929 . S
H2044 C2048 0.929 . S
H2045 C2054 0.929 . S
C2046 H2040 0.930 . S
C2046 C2047 1.367 . S
C2046 C2054 1.378 . S
C2047 C2046 1.367 . S
C2047 C2055 1.433 . S
C2048 H2044 0.929 . S
C2048 C2050 1.378 . S
C2048 C2052 1.350 . S
C2049 C2052 1.463 . S
C2049 C2054 1.350 . S
C2049 N2057 1.427 . S
C2050 H2041 0.930 . S
C2050 C2048 1.378 . S
C2050 C2051 1.367 . S
C2051 C2050 1.367 . S
C2051 C2053 1.433 . S
C2052 C2048 1.350 . S
C2052 C2049 1.463 . S
C2052 N2056 1.427 . S
C2053 H2043 0.929 . S
C2053 C2051 1.433 . S
C2053 N2056 1.384 . S
C2054 H2045 0.929 . S
C2054 C2046 1.378 . S
C2054 C2049 1.350 . S
C2055 H2042 0.929 . S
C2055 C2047 1.433 . S
C2055 N2057 1.384 . S
N2056 C2052 1.427 . S
N2056 C2053 1.384 . S
N2057 C2049 1.427 . S
N2057 C2055 1.384 . S
H2058 C2064 0.930 . S
H2059 C2068 0.930 . S
H2060 C2073 0.929 . S
H2061 C2071 0.929 . S
H2062 C2066 0.929 . S
H2063 C2072 0.929 . S
C2064 H2058 0.930 . S
C2064 C2065 1.367 . S
C2064 C2072 1.378 . S
C2065 C2064 1.367 . S
C2065 C2073 1.433 . S
C2066 H2062 0.929 . S
C2066 C2068 1.378 . S
C2066 C2070 1.350 . S
C2067 C2070 1.463 . S
C2067 C2072 1.350 . S
C2067 N2075 1.427 . S
C2068 H2059 0.930 . S
C2068 C2066 1.378 . S
C2068 C2069 1.367 . S
C2069 C2068 1.367 . S
C2069 C2071 1.433 . S
C2070 C2066 1.350 . S
C2070 C2067 1.463 . S
C2070 N2074 1.427 . S
C2071 H2061 0.929 . S
C2071 C2069 1.433 . S
C2071 N2074 1.384 . S
C2072 H2063 0.929 . S
C2072 C2064 1.378 . S
C2072 C2067 1.350 . S
C2073 H2060 0.929 . S
C2073 C2065 1.433 . S
C2073 N2075 1.384 . S
N2074 C2070 1.427 . S
N2074 C2071 1.384 . S
N2075 C2067 1.427 . S
N2075 C2073 1.384 . S
H2076 C2082 0.930 . S
H2077 C2086 0.930 . S
H2078 C2091 0.929 . S
H2079 C2089 0.929 . S
H2080 C2084 0.929 . S
H2081 C2090 0.929 . S
C2082 H2076 0.930 . S
C2082 C2083 1.367 . S
C2082 C2090 1.378 . S
C2083 C2082 1.367 . S
C2083 C2091 1.433 . S
C2084 H2080 0.929 . S
C2084 C2086 1.378 . S
C2084 C2088 1.350 . S
C2085 C2088 1.463 . S
C2085 C2090 1.350 . S
C2085 N2093 1.427 . S
C2086 H2077 0.930 . S
C2086 C2084 1.378 . S
C2086 C2087 1.367 . S
C2087 C2086 1.367 . S
C2087 C2089 1.433 . S
C2088 C2084 1.350 . S
C2088 C2085 1.463 . S
C2088 N2092 1.427 . S
C2089 H2079 0.929 . S
C2089 C2087 1.433 . S
C2089 N2092 1.384 . S
C2090 H2081 0.929 . S
C2090 C2082 1.378 . S
C2090 C2085 1.350 . S
C2091 H2078 0.929 . S
C2091 C2083 1.433 . S
C2091 N2093 1.384 . S
N2092 C2088 1.427 . S
N2092 C2089 1.384 . S
N2093 C2085 1.427 . S
N2093 C2091 1.384 . S
H2094 C2100 0.930 . S
H2095 C2104 0.930 . S
H2096 C2109 0.929 . S
H2097 C2107 0.929 . S
H2098 C2102 0.929 . S
H2099 C2108 0.929 . S
C2100 H2094 0.930 . S
C2100 C2101 1.367 . S
C2100 C2108 1.378 . S
C2101 C2100 1.367 . S
C2101 C2109 1.433 . S
C2102 H2098 0.929 . S
C2102 C2104 1.378 . S
C2102 C2106 1.350 . S
C2103 C2106 1.463 . S
C2103 C2108 1.350 . S
C2103 N2111 1.427 . S
C2104 H2095 0.930 . S
C2104 C2102 1.378 . S
C2104 C2105 1.367 . S
C2105 C2104 1.367 . S
C2105 C2107 1.433 . S
C2106 C2102 1.350 . S
C2106 C2103 1.463 . S
C2106 N2110 1.427 . S
C2107 H2097 0.929 . S
C2107 C2105 1.433 . S
C2107 N2110 1.384 . S
C2108 H2099 0.929 . S
C2108 C2100 1.378 . S
C2108 C2103 1.350 . S
C2109 H2096 0.929 . S
C2109 C2101 1.433 . S
C2109 N2111 1.384 . S
N2110 C2106 1.427 . S
N2110 C2107 1.384 . S
N2111 C2103 1.427 . S
N2111 C2109 1.384 . S
H2112 C2118 0.930 . S
H2113 C2122 0.930 . S
H2114 C2127 0.929 . S
H2115 C2125 0.929 . S
H2116 C2120 0.929 . S
H2117 C2126 0.929 . S
C2118 H2112 0.930 . S
C2118 C2119 1.367 . S
C2118 C2126 1.378 . S
C2119 C2118 1.367 . S
C2119 C2127 1.433 . S
C2120 H2116 0.929 . S
C2120 C2122 1.378 . S
C2120 C2124 1.350 . S
C2121 C2124 1.463 . S
C2121 C2126 1.350 . S
C2121 N2129 1.427 . S
C2122 H2113 0.930 . S
C2122 C2120 1.378 . S
C2122 C2123 1.367 . S
C2123 C2122 1.367 . S
C2123 C2125 1.433 . S
C2124 C2120 1.350 . S
C2124 C2121 1.463 . S
C2124 N2128 1.427 . S
C2125 H2115 0.929 . S
C2125 C2123 1.433 . S
C2125 N2128 1.384 . S
C2126 H2117 0.929 . S
C2126 C2118 1.378 . S
C2126 C2121 1.350 . S
C2127 H2114 0.929 . S
C2127 C2119 1.433 . S
C2127 N2129 1.384 . S
N2128 C2124 1.427 . S
N2128 C2125 1.384 . S
N2129 C2121 1.427 . S
N2129 C2127 1.384 . S
H2130 C2136 0.930 . S
H2131 C2140 0.930 . S
H2132 C2145 0.929 . S
H2133 C2143 0.929 . S
H2134 C2138 0.929 . S
H2135 C2144 0.929 . S
C2136 H2130 0.930 . S
C2136 C2137 1.367 . S
C2136 C2144 1.378 . S
C2137 C2136 1.367 . S
C2137 C2145 1.433 . S
C2138 H2134 0.929 . S
C2138 C2140 1.378 . S
C2138 C2142 1.350 . S
C2139 C2142 1.463 . S
C2139 C2144 1.350 . S
C2139 N2147 1.427 . S
C2140 H2131 0.930 . S
C2140 C2138 1.378 . S
C2140 C2141 1.367 . S
C2141 C2140 1.367 . S
C2141 C2143 1.433 . S
C2142 C2138 1.350 . S
C2142 C2139 1.463 . S
C2142 N2146 1.427 . S
C2143 H2133 0.929 . S
C2143 C2141 1.433 . S
C2143 N2146 1.384 . S
C2144 H2135 0.929 . S
C2144 C2136 1.378 . S
C2144 C2139 1.350 . S
C2145 H2132 0.929 . S
C2145 C2137 1.433 . S
C2145 N2147 1.384 . S
N2146 C2142 1.427 . S
N2146 C2143 1.384 . S
N2147 C2139 1.427 . S
N2147 C2145 1.384 . S
H2148 C2154 0.930 . S
H2149 C2158 0.930 . S
H2150 C2163 0.929 . S
H2151 C2161 0.929 . S
H2152 C2156 0.929 . S
H2153 C2162 0.929 . S
C2154 H2148 0.930 . S
C2154 C2155 1.367 . S
C2154 C2162 1.378 . S
C2155 C2154 1.367 . S
C2155 C2163 1.433 . S
C2156 H2152 0.929 . S
C2156 C2158 1.378 . S
C2156 C2160 1.350 . S
C2157 C2160 1.463 . S
C2157 C2162 1.350 . S
C2157 N2165 1.427 . S
C2158 H2149 0.930 . S
C2158 C2156 1.378 . S
C2158 C2159 1.367 . S
C2159 C2158 1.367 . S
C2159 C2161 1.433 . S
C2160 C2156 1.350 . S
C2160 C2157 1.463 . S
C2160 N2164 1.427 . S
C2161 H2151 0.929 . S
C2161 C2159 1.433 . S
C2161 N2164 1.384 . S
C2162 H2153 0.929 . S
C2162 C2154 1.378 . S
C2162 C2157 1.350 . S
C2163 H2150 0.929 . S
C2163 C2155 1.433 . S
C2163 N2165 1.384 . S
N2164 C2160 1.427 . S
N2164 C2161 1.384 . S
N2165 C2157 1.427 . S
N2165 C2163 1.384 . S
H2166 C2172 0.930 . S
H2167 C2176 0.930 . S
H2168 C2181 0.929 . S
H2169 C2179 0.929 . S
H2170 C2174 0.929 . S
H2171 C2180 0.929 . S
C2172 H2166 0.930 . S
C2172 C2173 1.367 . S
C2172 C2180 1.378 . S
C2173 C2172 1.367 . S
C2173 C2181 1.433 . S
C2174 H2170 0.929 . S
C2174 C2176 1.378 . S
C2174 C2178 1.350 . S
C2175 C2178 1.463 . S
C2175 C2180 1.350 . S
C2175 N2183 1.427 . S
C2176 H2167 0.930 . S
C2176 C2174 1.378 . S
C2176 C2177 1.367 . S
C2177 C2176 1.367 . S
C2177 C2179 1.433 . S
C2178 C2174 1.350 . S
C2178 C2175 1.463 . S
C2178 N2182 1.427 . S
C2179 H2169 0.929 . S
C2179 C2177 1.433 . S
C2179 N2182 1.384 . S
C2180 H2171 0.929 . S
C2180 C2172 1.378 . S
C2180 C2175 1.350 . S
C2181 H2168 0.929 . S
C2181 C2173 1.433 . S
C2181 N2183 1.384 . S
N2182 C2178 1.427 . S
N2182 C2179 1.384 . S
N2183 C2175 1.427 . S
N2183 C2181 1.384 . S
H2184 C2190 0.930 . S
H2185 C2194 0.930 . S
H2186 C2199 0.929 . S
H2187 C2197 0.929 . S
H2188 C2192 0.929 . S
H2189 C2198 0.929 . S
C2190 H2184 0.930 . S
C2190 C2191 1.367 . S
C2190 C2198 1.378 . S
C2191 C2190 1.367 . S
C2191 C2199 1.433 . S
C2192 H2188 0.929 . S
C2192 C2194 1.378 . S
C2192 C2196 1.350 . S
C2193 C2196 1.463 . S
C2193 C2198 1.350 . S
C2193 N2201 1.427 . S
C2194 H2185 0.930 . S
C2194 C2192 1.378 . S
C2194 C2195 1.367 . S
C2195 C2194 1.367 . S
C2195 C2197 1.433 . S
C2196 C2192 1.350 . S
C2196 C2193 1.463 . S
C2196 N2200 1.427 . S
C2197 H2187 0.929 . S
C2197 C2195 1.433 . S
C2197 N2200 1.384 . S
C2198 H2189 0.929 . S
C2198 C2190 1.378 . S
C2198 C2193 1.350 . S
C2199 H2186 0.929 . S
C2199 C2191 1.433 . S
C2199 N2201 1.384 . S
N2200 C2196 1.427 . S
N2200 C2197 1.384 . S
N2201 C2193 1.427 . S
N2201 C2199 1.384 . S
H2202 C2208 0.930 . S
H2203 C2212 0.930 . S
H2204 C2217 0.929 . S
H2205 C2215 0.929 . S
H2206 C2210 0.929 . S
H2207 C2216 0.929 . S
C2208 H2202 0.930 . S
C2208 C2209 1.367 . S
C2208 C2216 1.378 . S
C2209 C2208 1.367 . S
C2209 C2217 1.433 . S
C2210 H2206 0.929 . S
C2210 C2212 1.378 . S
C2210 C2214 1.350 . S
C2211 C2214 1.463 . S
C2211 C2216 1.350 . S
C2211 N2219 1.427 . S
C2212 H2203 0.930 . S
C2212 C2210 1.378 . S
C2212 C2213 1.367 . S
C2213 C2212 1.367 . S
C2213 C2215 1.433 . S
C2214 C2210 1.350 . S
C2214 C2211 1.463 . S
C2214 N2218 1.427 . S
C2215 H2205 0.929 . S
C2215 C2213 1.433 . S
C2215 N2218 1.384 . S
C2216 H2207 0.929 . S
C2216 C2208 1.378 . S
C2216 C2211 1.350 . S
C2217 H2204 0.929 . S
C2217 C2209 1.433 . S
C2217 N2219 1.384 . S
N2218 C2214 1.427 . S
N2218 C2215 1.384 . S
N2219 C2211 1.427 . S
N2219 C2217 1.384 . S
H2220 C2226 0.930 . S
H2221 C2230 0.930 . S
H2222 C2235 0.929 . S
H2223 C2233 0.929 . S
H2224 C2228 0.929 . S
H2225 C2234 0.929 . S
C2226 H2220 0.930 . S
C2226 C2227 1.367 . S
C2226 C2234 1.378 . S
C2227 C2226 1.367 . S
C2227 C2235 1.433 . S
C2228 H2224 0.929 . S
C2228 C2230 1.378 . S
C2228 C2232 1.350 . S
C2229 C2232 1.463 . S
C2229 C2234 1.350 . S
C2229 N2237 1.427 . S
C2230 H2221 0.930 . S
C2230 C2228 1.378 . S
C2230 C2231 1.367 . S
C2231 C2230 1.367 . S
C2231 C2233 1.433 . S
C2232 C2228 1.350 . S
C2232 C2229 1.463 . S
C2232 N2236 1.427 . S
C2233 H2223 0.929 . S
C2233 C2231 1.433 . S
C2233 N2236 1.384 . S
C2234 H2225 0.929 . S
C2234 C2226 1.378 . S
C2234 C2229 1.350 . S
C2235 H2222 0.929 . S
C2235 C2227 1.433 . S
C2235 N2237 1.384 . S
N2236 C2232 1.427 . S
N2236 C2233 1.384 . S
N2237 C2229 1.427 . S
N2237 C2235 1.384 . S
H2238 C2244 0.930 . S
H2239 C2248 0.930 . S
H2240 C2253 0.929 . S
H2241 C2251 0.929 . S
H2242 C2246 0.929 . S
H2243 C2252 0.929 . S
C2244 H2238 0.930 . S
C2244 C2245 1.367 . S
C2244 C2252 1.378 . S
C2245 C2244 1.367 . S
C2245 C2253 1.433 . S
C2246 H2242 0.929 . S
C2246 C2248 1.378 . S
C2246 C2250 1.350 . S
C2247 C2250 1.463 . S
C2247 C2252 1.350 . S
C2247 N2255 1.427 . S
C2248 H2239 0.930 . S
C2248 C2246 1.378 . S
C2248 C2249 1.367 . S
C2249 C2248 1.367 . S
C2249 C2251 1.433 . S
C2250 C2246 1.350 . S
C2250 C2247 1.463 . S
C2250 N2254 1.427 . S
C2251 H2241 0.929 . S
C2251 C2249 1.433 . S
C2251 N2254 1.384 . S
C2252 H2243 0.929 . S
C2252 C2244 1.378 . S
C2252 C2247 1.350 . S
C2253 H2240 0.929 . S
C2253 C2245 1.433 . S
C2253 N2255 1.384 . S
N2254 C2250 1.427 . S
N2254 C2251 1.384 . S
N2255 C2247 1.427 . S
N2255 C2253 1.384 . S
H2256 C2262 0.930 . S
H2257 C2266 0.930 . S
H2258 C2271 0.929 . S
H2259 C2269 0.929 . S
H2260 C2264 0.929 . S
H2261 C2270 0.929 . S
C2262 H2256 0.930 . S
C2262 C2263 1.367 . S
C2262 C2270 1.378 . S
C2263 C2262 1.367 . S
C2263 C2271 1.433 . S
C2264 H2260 0.929 . S
C2264 C2266 1.378 . S
C2264 C2268 1.350 . S
C2265 C2268 1.463 . S
C2265 C2270 1.350 . S
C2265 N2273 1.427 . S
C2266 H2257 0.930 . S
C2266 C2264 1.378 . S
C2266 C2267 1.367 . S
C2267 C2266 1.367 . S
C2267 C2269 1.433 . S
C2268 C2264 1.350 . S
C2268 C2265 1.463 . S
C2268 N2272 1.427 . S
C2269 H2259 0.929 . S
C2269 C2267 1.433 . S
C2269 N2272 1.384 . S
C2270 H2261 0.929 . S
C2270 C2262 1.378 . S
C2270 C2265 1.350 . S
C2271 H2258 0.929 . S
C2271 C2263 1.433 . S
C2271 N2273 1.384 . S
N2272 C2268 1.427 . S
N2272 C2269 1.384 . S
N2273 C2265 1.427 . S
N2273 C2271 1.384 . S
H2274 C2280 0.930 . S
H2275 C2284 0.930 . S
H2276 C2289 0.929 . S
H2277 C2287 0.929 . S
H2278 C2282 0.929 . S
H2279 C2288 0.929 . S
C2280 H2274 0.930 . S
C2280 C2281 1.367 . S
C2280 C2288 1.378 . S
C2281 C2280 1.367 . S
C2281 C2289 1.433 . S
C2282 H2278 0.929 . S
C2282 C2284 1.378 . S
C2282 C2286 1.350 . S
C2283 C2286 1.463 . S
C2283 C2288 1.350 . S
C2283 N2291 1.427 . S
C2284 H2275 0.930 . S
C2284 C2282 1.378 . S
C2284 C2285 1.367 . S
C2285 C2284 1.367 . S
C2285 C2287 1.433 . S
C2286 C2282 1.350 . S
C2286 C2283 1.463 . S
C2286 N2290 1.427 . S
C2287 H2277 0.929 . S
C2287 C2285 1.433 . S
C2287 N2290 1.384 . S
C2288 H2279 0.929 . S
C2288 C2280 1.378 . S
C2288 C2283 1.350 . S
C2289 H2276 0.929 . S
C2289 C2281 1.433 . S
C2289 N2291 1.384 . S
N2290 C2286 1.427 . S
N2290 C2287 1.384 . S
N2291 C2283 1.427 . S
N2291 C2289 1.384 . S
H2292 C2298 0.930 . S
H2293 C2302 0.930 . S
H2294 C2307 0.929 . S
H2295 C2305 0.929 . S
H2296 C2300 0.929 . S
H2297 C2306 0.929 . S
C2298 H2292 0.930 . S
C2298 C2299 1.367 . S
C2298 C2306 1.378 . S
C2299 C2298 1.367 . S
C2299 C2307 1.433 . S
C2300 H2296 0.929 . S
C2300 C2302 1.378 . S
C2300 C2304 1.350 . S
C2301 C2304 1.463 . S
C2301 C2306 1.350 . S
C2301 N2309 1.427 . S
C2302 H2293 0.930 . S
C2302 C2300 1.378 . S
C2302 C2303 1.367 . S
C2303 C2302 1.367 . S
C2303 C2305 1.433 . S
C2304 C2300 1.350 . S
C2304 C2301 1.463 . S
C2304 N2308 1.427 . S
C2305 H2295 0.929 . S
C2305 C2303 1.433 . S
C2305 N2308 1.384 . S
C2306 H2297 0.929 . S
C2306 C2298 1.378 . S
C2306 C2301 1.350 . S
C2307 H2294 0.929 . S
C2307 C2299 1.433 . S
C2307 N2309 1.384 . S
N2308 C2304 1.427 . S
N2308 C2305 1.384 . S
N2309 C2301 1.427 . S
N2309 C2307 1.384 . S
H2310 C2316 0.930 . S
H2311 C2320 0.930 . S
H2312 C2325 0.929 . S
H2313 C2323 0.929 . S
H2314 C2318 0.929 . S
H2315 C2324 0.929 . S
C2316 H2310 0.930 . S
C2316 C2317 1.367 . S
C2316 C2324 1.378 . S
C2317 C2316 1.367 . S
C2317 C2325 1.433 . S
C2318 H2314 0.929 . S
C2318 C2320 1.378 . S
C2318 C2322 1.350 . S
C2319 C2322 1.463 . S
C2319 C2324 1.350 . S
C2319 N2327 1.427 . S
C2320 H2311 0.930 . S
C2320 C2318 1.378 . S
C2320 C2321 1.367 . S
C2321 C2320 1.367 . S
C2321 C2323 1.433 . S
C2322 C2318 1.350 . S
C2322 C2319 1.463 . S
C2322 N2326 1.427 . S
C2323 H2313 0.929 . S
C2323 C2321 1.433 . S
C2323 N2326 1.384 . S
C2324 H2315 0.929 . S
C2324 C2316 1.378 . S
C2324 C2319 1.350 . S
C2325 H2312 0.929 . S
C2325 C2317 1.433 . S
C2325 N2327 1.384 . S
N2326 C2322 1.427 . S
N2326 C2323 1.384 . S
N2327 C2319 1.427 . S
N2327 C2325 1.384 . S
H2328 C2334 0.930 . S
H2329 C2338 0.930 . S
H2330 C2343 0.929 . S
H2331 C2341 0.929 . S
H2332 C2336 0.929 . S
H2333 C2342 0.929 . S
C2334 H2328 0.930 . S
C2334 C2335 1.367 . S
C2334 C2342 1.378 . S
C2335 C2334 1.367 . S
C2335 C2343 1.433 . S
C2336 H2332 0.929 . S
C2336 C2338 1.378 . S
C2336 C2340 1.350 . S
C2337 C2340 1.463 . S
C2337 C2342 1.350 . S
C2337 N2345 1.427 . S
C2338 H2329 0.930 . S
C2338 C2336 1.378 . S
C2338 C2339 1.367 . S
C2339 C2338 1.367 . S
C2339 C2341 1.433 . S
C2340 C2336 1.350 . S
C2340 C2337 1.463 . S
C2340 N2344 1.427 . S
C2341 H2331 0.929 . S
C2341 C2339 1.433 . S
C2341 N2344 1.384 . S
C2342 H2333 0.929 . S
C2342 C2334 1.378 . S
C2342 C2337 1.350 . S
C2343 H2330 0.929 . S
C2343 C2335 1.433 . S
C2343 N2345 1.384 . S
N2344 C2340 1.427 . S
N2344 C2341 1.384 . S
N2345 C2337 1.427 . S
N2345 C2343 1.384 . S
H2346 C2352 0.930 . S
H2347 C2356 0.930 . S
H2348 C2361 0.929 . S
H2349 C2359 0.929 . S
H2350 C2354 0.929 . S
H2351 C2360 0.929 . S
C2352 H2346 0.930 . S
C2352 C2353 1.367 . S
C2352 C2360 1.378 . S
C2353 C2352 1.367 . S
C2353 C2361 1.433 . S
C2354 H2350 0.929 . S
C2354 C2356 1.378 . S
C2354 C2358 1.350 . S
C2355 C2358 1.463 . S
C2355 C2360 1.350 . S
C2355 N2363 1.427 . S
C2356 H2347 0.930 . S
C2356 C2354 1.378 . S
C2356 C2357 1.367 . S
C2357 C2356 1.367 . S
C2357 C2359 1.433 . S
C2358 C2354 1.350 . S
C2358 C2355 1.463 . S
C2358 N2362 1.427 . S
C2359 H2349 0.929 . S
C2359 C2357 1.433 . S
C2359 N2362 1.384 . S
C2360 H2351 0.929 . S
C2360 C2352 1.378 . S
C2360 C2355 1.350 . S
C2361 H2348 0.929 . S
C2361 C2353 1.433 . S
C2361 N2363 1.384 . S
N2362 C2358 1.427 . S
N2362 C2359 1.384 . S
N2363 C2355 1.427 . S
N2363 C2361 1.384 . S
H2364 C2370 0.930 . S
H2365 C2374 0.930 . S
H2366 C2379 0.929 . S
H2367 C2377 0.929 . S
H2368 C2372 0.929 . S
H2369 C2378 0.929 . S
C2370 H2364 0.930 . S
C2370 C2371 1.367 . S
C2370 C2378 1.378 . S
C2371 C2370 1.367 . S
C2371 C2379 1.433 . S
C2372 H2368 0.929 . S
C2372 C2374 1.378 . S
C2372 C2376 1.350 . S
C2373 C2376 1.463 . S
C2373 C2378 1.350 . S
C2373 N2381 1.427 . S
C2374 H2365 0.930 . S
C2374 C2372 1.378 . S
C2374 C2375 1.367 . S
C2375 C2374 1.367 . S
C2375 C2377 1.433 . S
C2376 C2372 1.350 . S
C2376 C2373 1.463 . S
C2376 N2380 1.427 . S
C2377 H2367 0.929 . S
C2377 C2375 1.433 . S
C2377 N2380 1.384 . S
C2378 H2369 0.929 . S
C2378 C2370 1.378 . S
C2378 C2373 1.350 . S
C2379 H2366 0.929 . S
C2379 C2371 1.433 . S
C2379 N2381 1.384 . S
N2380 C2376 1.427 . S
N2380 C2377 1.384 . S
N2381 C2373 1.427 . S
N2381 C2379 1.384 . S
H2382 C2388 0.930 . S
H2383 C2392 0.930 . S
H2384 C2397 0.929 . S
H2385 C2395 0.929 . S
H2386 C2390 0.929 . S
H2387 C2396 0.929 . S
C2388 H2382 0.930 . S
C2388 C2389 1.367 . S
C2388 C2396 1.378 . S
C2389 C2388 1.367 . S
C2389 C2397 1.433 . S
C2390 H2386 0.929 . S
C2390 C2392 1.378 . S
C2390 C2394 1.350 . S
C2391 C2394 1.463 . S
C2391 C2396 1.350 . S
C2391 N2399 1.427 . S
C2392 H2383 0.930 . S
C2392 C2390 1.378 . S
C2392 C2393 1.367 . S
C2393 C2392 1.367 . S
C2393 C2395 1.433 . S
C2394 C2390 1.350 . S
C2394 C2391 1.463 . S
C2394 N2398 1.427 . S
C2395 H2385 0.929 . S
C2395 C2393 1.433 . S
C2395 N2398 1.384 . S
C2396 H2387 0.929 . S
C2396 C2388 1.378 . S
C2396 C2391 1.350 . S
C2397 H2384 0.929 . S
C2397 C2389 1.433 . S
C2397 N2399 1.384 . S
N2398 C2394 1.427 . S
N2398 C2395 1.384 . S
N2399 C2391 1.427 . S
N2399 C2397 1.384 . S
C679 C400 1.051 . S
C683 C8 1.060 . S
C697 C22 1.053 . S
C701 C414 1.058 . S
C715 C428 1.058 . S
C719 C36 1.053 . S
C733 C50 1.058 . S
C737 C442 1.053 . S
C751 C344 1.060 . S
C755 C64 1.051 . S
C769 C78 1.052 . S
C773 C358 1.059 . S
C787 C372 1.055 . S
C791 C92 1.056 . S
C805 C106 1.054 . S
C809 C386 1.057 . S
C823 C540 1.055 . S
C827 C120 1.056 . S
C841 C554 1.060 . S
C845 C134 1.052 . S
C859 C512 1.060 . S
C863 C148 1.052 . S
C877 C162 1.053 . S
C881 C526 1.058 . S
C895 C484 1.051 . S
C899 C176 1.060 . S
C913 C498 1.059 . S
C917 C190 1.052 . S
C931 C204 1.060 . S
C935 C456 1.051 . S
C949 C470 1.055 . S
C953 C218 1.056 . S
C967 C232 1.058 . S
C971 C638 1.053 . S
C985 C610 1.053 . S
C989 C246 1.058 . S
C1003 C624 1.053 . S
C1007 C260 1.058 . S
C1021 C582 1.057 . S
C1025 C274 1.054 . S
C1039 C596 1.060 . S
C1043 C288 1.052 . S
C1057 C302 1.054 . S
C1061 C568 1.057 . S
C1075 C316 1.051 . S
C1079 C666 1.060 . S
C1093 C652 1.060 . S
C1097 C330 1.051 . S
C1111 C105 1.334 . S
C1115 C7 1.318 . S
C1129 C63 1.317 . S
C1133 C21 1.340 . S
C1147 C77 1.325 . S
C1151 C35 1.339 . S
C1165 C91 1.324 . S
C1169 C49 1.326 . S
C1183 C287 1.339 . S
C1187 C119 1.317 . S
C1201 C245 1.335 . S
C1205 C133 1.330 . S
C1219 C259 1.338 . S
C1223 C147 1.317 . S
C1237 C273 1.325 . S
C1241 C161 1.339 . S
C1255 C329 1.320 . S
C1259 C175 1.341 . S
C1273 C301 1.322 . S
C1277 C189 1.328 . S
C1291 C203 1.320 . S
C1295 C315 1.341 . S
C1309 C231 1.333 . S
C1313 C217 1.332 . S
C1327 C441 1.317 . S
C1331 C343 1.339 . S
C1345 C399 1.318 . S
C1349 C357 1.341 . S
C1363 C371 1.341 . S
C1367 C413 1.321 . S
C1381 C385 1.332 . S
C1385 C427 1.319 . S
C1399 C455 1.317 . S
C1403 C623 1.337 . S
C1417 C469 1.337 . S
C1421 C581 1.327 . S
C1435 C595 1.318 . S
C1439 C483 1.334 . S
C1453 C609 1.317 . S
C1457 C497 1.340 . S
C1471 C665 1.321 . S
C1475 C511 1.330 . S
C1489 C637 1.332 . S
C1493 C525 1.333 . S
C1507 C651 1.336 . S
C1511 C539 1.317 . S
C1525 C553 1.321 . S
C1529 C567 1.330 . S
C1543 C3 1.166 . S
C1547 C121 1.086 . S
C1561 C135 1.085 . S
C1565 C17 1.165 . S
C1579 C149 1.109 . S
C1583 C31 1.159 . S
C1597 C163 1.091 . S
C1601 C45 1.166 . S
C1615 C59 1.166 . S
C1619 C177 1.091 . S
C1633 C191 1.088 . S
C1637 C73 1.162 . S
C1651 C87 1.159 . S
C1655 C205 1.094 . S
C1669 C219 1.109 . S
C1673 C101 1.159 . S
C1687 C233 1.107 . S
C1691 C115 1.156 . S
C1705 C331 1.096 . S
C1709 C129 1.158 . S
C1723 C143 1.166 . S
C1727 C303 1.091 . S
C1741 C157 1.166 . S
C1745 C317 1.089 . S
C1759 C171 1.159 . S
C1763 C247 1.093 . S
C1777 C185 1.156 . S
C1781 C261 1.109 . S
C1795 C199 1.156 . S
C1799 C275 1.106 . S
C1813 C213 1.160 . S
C1817 C289 1.109 . S
C1831 C227 1.161 . S
C1835 C9 1.106 . S
C1849 C241 1.164 . S
C1853 C65 1.100 . S
C1867 C255 1.166 . S
C1871 C79 1.086 . S
C1885 C269 1.157 . S
C1889 C93 1.102 . S
C1903 C283 1.156 . S
C1907 C107 1.105 . S
C1921 C297 1.164 . S
C1925 C37 1.086 . S
C1939 C51 1.100 . S
C1943 C311 1.157 . S
C1957 C23 1.111 . S
C1961 C325 1.156 . S
C1975 C457 1.086 . S
C1979 C339 1.163 . S
C1993 C471 1.086 . S
C1997 C353 1.166 . S
C2011 C485 1.105 . S
C2015 C367 1.162 . S
C2029 C499 1.110 . S
C2033 C381 1.159 . S
C2047 C513 1.109 . S
C2051 C395 1.159 . S
C2065 C409 1.163 . S
C2069 C527 1.102 . S
C2083 C541 1.093 . S
C2087 C423 1.165 . S
C2101 C437 1.156 . S
C2105 C555 1.103 . S
C2119 C569 1.110 . S
C2123 C451 1.156 . S
C2137 C465 1.162 . S
C2141 C667 1.088 . S
C2155 C479 1.156 . S
C2159 C639 1.109 . S
C2173 C653 1.110 . S
C2177 C493 1.159 . S
C2191 C583 1.099 . S
C2195 C507 1.164 . S
C2209 C521 1.165 . S
C2213 C597 1.095 . S
C2227 C535 1.160 . S
C2231 C611 1.092 . S
C2245 C625 1.086 . S
C2249 C549 1.166 . S
C2263 C345 1.109 . S
C2267 C563 1.156 . S
C2281 C401 1.106 . S
C2285 C577 1.156 . S
C2299 C415 1.085 . S
C2303 C591 1.164 . S
C2317 C605 1.157 . S
C2321 C429 1.102 . S
C2335 C443 1.089 . S
C2339 C619 1.162 . S
C2353 C373 1.092 . S
C2357 C633 1.160 . S
C2371 C647 1.156 . S
C2375 C387 1.110 . S
C2389 C359 1.087 . S
C2393 C661 1.166 . S
