# Generated by pormake.
# Topology rkf, (6)-cn, num edge types: 1
# Building blocks:
#     Node 0, Type 0, BuildingBlock: HISSIN_clean_sbu_0, # of connection points: 6
#     Node 1, Type 0, BuildingBlock: HISSIN_clean_sbu_0, # of connection points: 6
#     Node 2, Type 0, BuildingBlock: HISSIN_clean_sbu_0, # of connection points: 6
#     Node 3, Type 0, BuildingBlock: HISSIN_clean_sbu_0, # of connection points: 6
#     Node 4, Type 0, BuildingBlock: HISSIN_clean_sbu_0, # of connection points: 6
#     Node 5, Type 0, BuildingBlock: HISSIN_clean_sbu_0, # of connection points: 6
#     Edge 6, Type (0, 0), BuildingBlock: MIFKUJ_clean_linker_0, # of connection points: 2
#     Edge 7, Type (0, 0), BuildingBlock: MIFKUJ_clean_linker_0, # of connection points: 2
#     Edge 8, Type (0, 0), BuildingBlock: MIFKUJ_clean_linker_0, # of connection points: 2
#     Edge 9, Type (0, 0), BuildingBlock: MIFKUJ_clean_linker_0, # of connection points: 2
#     Edge 10, Type (0, 0), BuildingBlock: MIFKUJ_clean_linker_0, # of connection points: 2
#     Edge 11, Type (0, 0), BuildingBlock: MIFKUJ_clean_linker_0, # of connection points: 2
#     Edge 12, Type (0, 0), BuildingBlock: MIFKUJ_clean_linker_0, # of connection points: 2
#     Edge 13, Type (0, 0), BuildingBlock: MIFKUJ_clean_linker_0, # of connection points: 2
#     Edge 14, Type (0, 0), BuildingBlock: MIFKUJ_clean_linker_0, # of connection points: 2
#     Edge 15, Type (0, 0), BuildingBlock: MIFKUJ_clean_linker_0, # of connection points: 2
#     Edge 16, Type (0, 0), BuildingBlock: MIFKUJ_clean_linker_0, # of connection points: 2
#     Edge 17, Type (0, 0), BuildingBlock: MIFKUJ_clean_linker_0, # of connection points: 2
#     Edge 18, Type (0, 0), BuildingBlock: MIFKUJ_clean_linker_0, # of connection points: 2
#     Edge 19, Type (0, 0), BuildingBlock: MIFKUJ_clean_linker_0, # of connection points: 2
#     Edge 20, Type (0, 0), BuildingBlock: MIFKUJ_clean_linker_0, # of connection points: 2
#     Edge 21, Type (0, 0), BuildingBlock: MIFKUJ_clean_linker_0, # of connection points: 2
#     Edge 22, Type (0, 0), BuildingBlock: MIFKUJ_clean_linker_0, # of connection points: 2
#     Edge 23, Type (0, 0), BuildingBlock: MIFKUJ_clean_linker_0, # of connection points: 2
# Relax obj value: 0.536
# Max RMSD: 0.256
# Mean RMSD: 0.256
data_MOF--net-rkf--node1-HISSIN_clean_sbu_0--edge1-MIFKUJ_clean_linker_0
_symmetry_space_group_name_H-M    P1
_symmetry_Int_Tables_number       1
_symmetry_cell_setting            triclinic
loop_
_symmetry_equiv_pos_as_xyz
'x, y, z'
_cell_length_a     31.694199
_cell_length_b     32.013187
_cell_length_c     59.331591
_cell_angle_alpha  90.525074
_cell_angle_beta   90.101735
_cell_angle_gamma 120.24518
loop_
_atom_site_label
_atom_site_type_symbol
_atom_site_fract_x
_atom_site_fract_y
_atom_site_fract_z
_atom_type_partial_charge
Eu0 Eu 0.27852 0.11086 0.11378 0.0
Eu1 Eu 0.36054 0.22287 0.10448 0.0
C2 C 0.39294 0.14622 0.11895 0.0
C3 C 0.20787 0.98324 0.13812 0.0
C4 C 0.24909 0.98502 0.14792 0.0
C5 C 0.15607 0.90624 0.15604 0.0
C6 C 0.2438 0.94751 0.16172 0.0
C7 C 0.16144 0.94367 0.14222 0.0
C8 C 0.19719 0.90768 0.16595 0.0
C9 C 0.21286 0.02145 0.12298 0.0
O10 O 0.34537 0.18675 1.06836 0.0
O11 O 0.28217 0.10967 1.07535 0.0
C12 C 0.31142 0.14279 1.06095 0.0
O13 O 0.23757 0.14651 0.09989 0.0
O14 O 0.4346 0.27517 0.09435 0.0
O15 O 0.38806 0.30004 0.10886 0.0
O16 O 0.29867 0.21597 1.08422 0.0
C17 C 0.25285 0.18217 1.08535 0.0
O18 O 0.29765 0.14669 0.14916 0.0
O19 O 0.32744 0.22493 0.13875 0.0
O20 O 0.40095 0.19033 0.12087 0.0
O21 O 0.21356 0.05889 0.13227 0.0
O22 O 0.24555 0.0337 0.1073 0.0
O23 O 0.34947 0.11007 0.1138 0.0
C24 C 0.44558 0.35014 1.08224 0.0
C25 C 0.44246 0.33862 1.05923 0.0
C26 C 0.47197 0.43345 1.07301 0.0
C27 C 0.45372 0.3742 1.04322 0.0
C28 C 0.46122 0.39786 0.08906 0.0
C29 C 0.46774 0.42172 1.04996 0.0
C30 C 0.42971 0.3124 0.09927 0.0
C31 C 0.31056 0.19176 0.1546 0.0
H32 H 0.28532 0.01532 0.14484 0.0
H33 H 0.11958 0.87672 0.15938 0.0
H34 H 0.27617 0.94963 0.16903 0.0
H35 H 0.12927 0.94178 0.13476 0.0
H36 H 0.42981 0.30186 1.0536 0.0
H37 H 0.48221 0.4697 1.07855 0.0
H38 H 0.44884 0.36387 1.02555 0.0
H39 H 0.46358 0.4072 0.1068 0.0
Eu40 Eu 0.28647 0.29946 0.44656 0.0
Eu41 Eu 0.25388 0.37829 0.43593 0.0
C42 C 0.36458 0.41118 0.44513 0.0
C43 C 0.35007 0.23701 0.4718 0.0
C44 C 0.37219 0.2094 0.46743 0.0
C45 C 0.39239 0.26219 0.50775 0.0
C46 C 0.40419 0.20796 0.48321 0.0
C47 C 0.36056 0.26369 0.49194 0.0
C48 C 0.41455 0.23427 0.50357 0.0
C49 C 0.31909 0.2407 0.45458 0.0
O50 O 0.25855 0.35199 0.39982 0.0
O51 O 0.29884 0.31106 0.4083 0.0
C52 C 0.28066 0.32805 0.39316 0.0
O53 O 0.21732 0.2616 0.42599 0.0
O54 O 0.26946 0.45268 0.43988 0.0
O55 O 0.20226 0.39872 0.42364 0.0
O56 O 0.18651 0.30643 0.43973 0.0
C57 C 0.18149 0.27077 0.42703 0.0
O58 O 0.24663 0.2989 0.47908 0.0
O59 O 0.24835 0.37083 0.47478 0.0
O60 O 0.33503 0.41441 0.43079 0.0
O61 O 0.27612 0.23244 0.46099 0.0
O62 O 0.34142 0.27867 0.44189 0.0
O63 O 0.34833 0.37287 0.45782 0.0
C64 C 0.23666 0.478 0.41094 0.0
C65 C 0.25887 0.4771 0.3907 0.0
C66 C 0.2121 0.53127 0.39416 0.0
C67 C 0.25588 0.50152 0.37198 0.0
C68 C 0.21508 0.50674 0.41289 0.0
C69 C 0.23035 0.52693 0.37321 0.0
C70 C 0.23021 0.44435 0.4289 0.0
C71 C 0.23985 0.33351 0.48749 0.0
H72 H 0.36499 0.18926 0.45174 0.0
H73 H 0.39879 0.28211 0.52344 0.0
H74 H 0.42092 0.18642 0.47945 0.0
H75 H 0.34417 0.2857 0.49541 0.0
H76 H 0.27561 0.45492 0.38897 0.0
H77 H 0.1926 0.55087 0.39565 0.0
H78 H 0.26983 0.49684 0.35609 0.0
H79 H 0.19793 0.50784 0.4285 0.0
Eu80 Eu 0.09713 0.2966 0.7768 0.0
Eu81 Eu -0.01541 0.26286 0.76624 0.0
C82 C 0.05817 0.37236 0.78145 0.0
C83 C 0.2172 0.34591 0.80784 0.0
C84 C 0.26263 0.38867 0.80684 0.0
C85 C 0.22611 0.34469 0.84836 0.0
C86 C 0.28954 0.40962 0.82654 0.0
C87 C 0.19901 0.32412 0.82875 0.0
C88 C 0.27145 0.38766 0.84741 0.0
C89 C 0.18781 0.32633 0.78723 0.0
O90 O 0.01797 0.2756 0.73019 0.0
O91 O 0.09968 0.31619 0.73949 0.0
C92 C 0.06464 0.29967 0.72401 0.0
O93 O 0.07241 0.23391 0.75267 0.0
O94 O 0.92652 0.27138 0.75121 0.0
O95 O 0.90852 0.21353 0.77467 0.0
O96 O -0.01061 0.19777 0.75588 0.0
C97 C 0.02819 0.19886 0.74757 0.0
O98 O 0.05708 0.2515 0.80778 0.0
O99 O -0.00985 0.25985 0.80517 0.0
O100 O 0.02037 0.34326 0.76902 0.0
O101 O 0.15336 0.28093 0.78754 0.0
O102 O 0.17343 0.35394 0.77801 0.0
O103 O 0.08764 0.35847 0.78965 0.0
C104 C 0.85501 0.19734 0.74457 0.0
C105 C 0.86909 0.17515 0.72821 0.0
C106 C 0.77159 0.15233 0.73062 0.0
C107 C 0.83477 0.14153 0.71324 0.0
C108 C 0.80611 0.18559 0.74592 0.0
C109 C 0.78574 0.13007 0.71413 0.0
C110 C 0.8917 0.23213 0.76025 0.0
C111 C 0.01772 0.24795 0.81714 0.0
H112 H 0.27695 0.40617 0.79085 0.0
H113 H 0.21123 0.32749 0.86435 0.0
H114 H 0.32456 0.44266 0.82547 0.0
H115 H 0.16362 0.29157 0.83003 0.0
H116 H 0.9069 0.18457 0.72684 0.0
H117 H 0.73414 0.14439 0.73148 0.0
H118 H 0.8471 0.12597 0.70039 0.0
H119 H 0.79483 0.20254 0.75856 0.0
Eu120 Eu 0.92752 0.11911 0.10995 0.0
Eu121 Eu 0.84461 0.00788 0.09886 0.0
C122 C 0.81355 0.08412 0.11511 0.0
C123 C 0.00542 0.2436 0.13871 0.0
C124 C 0.02795 0.29266 0.13323 0.0
C125 C 0.00691 0.26469 0.17818 0.0
C126 C 0.04022 0.32767 0.15011 0.0
C127 C -0.00559 0.2297 0.16126 0.0
C128 C 0.03026 0.31414 0.17282 0.0
C129 C -0.00607 0.20778 0.12064 0.0
O130 O 0.85851 0.04624 1.06371 0.0
O131 O 0.92482 0.12134 1.07166 0.0
C132 C 0.89406 0.08948 1.05686 0.0
O133 O 0.96815 0.08536 0.09355 0.0
O134 O 0.77074 0.95673 0.08725 0.0
O135 O 0.81598 0.9304 0.10162 0.0
O136 O 0.9063 0.01382 1.07887 0.0
C137 C 0.95208 0.048 1.0796 0.0
O138 O 0.90873 0.08272 0.14472 0.0
O139 O 0.87657 0.00416 0.13335 0.0
O140 O 0.80608 0.04035 0.1173 0.0
O141 O -0.00245 0.16998 0.12546 0.0
O142 O 0.95542 0.19677 0.10844 0.0
O143 O 0.85636 0.11962 0.10905 0.0
C144 C 0.76111 0.88344 1.07303 0.0
C145 C 0.7778 0.8985 1.0511 0.0
C146 C 0.72336 0.79965 1.06065 0.0
C147 C 0.76738 0.86437 1.03405 0.0
C148 C 0.73355 0.83394 1.07771 0.0
C149 C 0.74042 0.8146 1.03868 0.0
C150 C 0.77505 0.91899 0.09135 0.0
C151 C 0.89438 0.0373 0.14961 0.0
H152 H 0.03633 0.30394 0.11585 0.0
H153 H -0.00064 0.25303 0.19552 0.0
H154 H 0.05755 0.36531 0.14538 0.0
H155 H 0.97674 0.19191 0.16582 0.0
H156 H 0.79981 0.93662 1.04729 0.0
H157 H 0.70258 0.76157 1.06464 0.0
H158 H 0.78195 0.877 1.0174 0.0
H159 H 0.72077 0.82185 0.09464 0.0
Eu160 Eu 0.92525 0.93791 0.44402 0.0
Eu161 Eu 0.97125 0.86941 0.43045 0.0
C162 C 0.85546 0.82186 0.44515 0.0
C163 C 0.86473 0.00456 0.46888 0.0
C164 C 0.85193 0.04005 0.46595 0.0
C165 C 0.81574 0.97794 0.50267 0.0
C166 C 0.82111 0.04459 0.48126 0.0
C167 C 0.84601 0.97304 0.48713 0.0
C168 C 0.80327 0.01411 0.50003 0.0
C169 C 0.89669 3e-05 0.45256 0.0
O170 O 0.9499 0.88424 0.39507 0.0
O171 O 0.91705 0.93159 0.40517 0.0
C172 C 0.92908 0.90992 0.3894 0.0
O173 O 0.00669 0.97728 0.4402 0.0
O174 O 0.96116 0.79893 0.42103 0.0
O175 O 0.03336 0.85767 0.43022 0.0
O176 O 0.0178 0.93839 0.41183 0.0
C177 C 0.02556 0.97923 0.42046 0.0
O178 O 0.93924 0.91731 0.47911 0.0
O179 O -0.00684 0.89322 0.46806 0.0
O180 O 0.89094 0.81679 0.43658 0.0
O181 O 0.93704 0.00418 0.46052 0.0
O182 O 0.87484 0.96421 0.43826 0.0
O183 O 0.86124 0.86423 0.45069 0.0
C184 C 0.02794 0.79873 0.40385 0.0
C185 C 0.0142 0.74985 0.40134 0.0
C186 C 0.07678 0.81707 0.37002 0.0
C187 C 0.03109 0.7345 0.38312 0.0
C188 C 0.05953 0.83232 0.38812 0.0
C189 C 0.0624 0.76794 0.36723 0.0
C190 C 0.00758 0.81332 0.42256 0.0
C191 C 0.97276 0.90586 0.48435 0.0
H192 H 0.86623 0.06461 0.45196 0.0
H193 H 0.80358 0.95446 0.51714 0.0
H194 H 0.81187 0.07246 0.47856 0.0
H195 H 0.85548 0.94522 0.48953 0.0
H196 H -0.01023 0.7234 0.41332 0.0
H197 H 0.10013 0.84354 0.3578 0.0
H198 H 0.01949 0.69648 0.38139 0.0
H199 H 0.07023 0.87016 0.38959 0.0
Eu200 Eu 0.09459 0.93114 0.77945 0.0
Eu201 Eu 0.20773 0.96603 0.76818 0.0
C202 C 0.13524 0.85667 0.78384 0.0
C203 C 0.97523 0.87348 0.81006 0.0
C204 C -0.00164 0.87248 0.83005 0.0
C205 C 0.89659 0.81711 0.82614 0.0
C206 C 0.9708 0.84467 0.84809 0.0
C207 C 0.92429 0.84533 0.80808 0.0
C208 C 0.91966 0.81702 0.84638 0.0
C209 C 0.00455 0.90181 0.79094 0.0
O210 O 0.16748 0.93726 0.73322 0.0
O211 O 0.09144 0.92647 0.74096 0.0
C212 C 0.12328 0.92772 0.72624 0.0
O213 O 0.12919 0.00836 0.76744 0.0
O214 O 0.26335 0.9495 0.7574 0.0
O215 O 0.28464 0.02186 0.76945 0.0
O216 O 0.19361 0.01533 0.74736 0.0
C217 C 0.16003 0.0269 0.75064 0.0
O218 O 0.13144 0.95006 0.81448 0.0
O219 O 0.21069 -0.00181 0.80373 0.0
O220 O 0.17981 0.8936 0.78429 0.0
O221 O 0.04106 0.9448 0.79578 0.0
O222 O 0.01677 0.87839 0.77684 0.0
O223 O 0.09779 0.8622 0.77947 0.0
C224 C 0.33223 0.01506 0.74108 0.0
C225 C 0.31387 0.00819 0.71901 0.0
C226 C 0.41427 0.06686 0.72714 0.0
C227 C 0.34554 0.03048 0.70111 0.0
C228 C 0.38253 0.04416 0.74506 0.0
C229 C 0.39597 0.06035 0.70502 0.0
C230 C 0.29897 -0.00593 0.76009 0.0
C231 C 0.17721 0.982 0.81974 0.0
H232 H 0.03776 0.89324 0.83174 0.0
H233 H 0.85719 0.79632 0.8245 0.0
H234 H -0.01051 0.84479 0.86343 0.0
H235 H 0.90601 0.84526 0.79262 0.0
H236 H 0.275 0.98636 0.71568 0.0
H237 H 0.45296 0.08979 0.73057 0.0
H238 H 0.33035 0.02571 0.68428 0.0
H239 H 0.3971 0.04998 0.76207 0.0
H240 H 0.92732 0.98419 1.04403 0.0
H241 H 0.96861 -0.00071 1.00791 0.0
H242 H 0.08358 0.13674 1.03364 0.0
H243 H 0.0427 0.12205 1.06935 0.0
H244 H 0.06179 0.14342 0.98685 0.0
H245 H 0.10493 -0.00021 1.02478 0.0
H246 H 0.06049 0.91142 1.02916 0.0
H247 H 0.96292 0.8961 0.97529 0.0
H248 H 0.00729 0.9846 0.97033 0.0
H249 H 0.27709 0.24074 1.04837 0.0
H250 H 0.24162 0.21604 1.0109 0.0
H251 H 0.1274 0.08163 1.03828 0.0
H252 H 0.16295 0.10577 1.07522 0.0
H253 H 0.15662 0.06136 0.99736 0.0
H254 H 0.21856 0.20115 0.96646 0.0
H255 H 0.26233 0.28716 0.95605 0.0
H256 H 0.15406 0.3076 0.98953 0.0
H257 H 0.1103 0.22226 1.00075 0.0
C258 C 0.96214 0.01714 1.04214 0.0
C259 C -0.01782 0.05156 1.05987 0.0
C260 C -0.01449 0.02587 1.02128 0.0
C261 C 0.02955 0.069 1.01775 0.0
C262 C 0.04952 0.10306 1.03559 0.0
C263 C 0.02653 0.09429 1.05636 0.0
C264 C 0.05899 0.07769 0.99697 0.0
C265 C 0.08271 0.1255 0.98915 0.0
C266 C 0.08456 0.0522 0.99479 0.0
C267 C 0.05925 -0.00104 0.99726 0.0
C268 C 0.07429 0.9777 1.01371 0.0
C269 C 0.04904 0.92753 1.01634 0.0
C270 C 0.00875 0.8982 1.0026 0.0
C271 C -0.00603 0.91891 0.98601 0.0
C272 C 0.01923 0.96906 0.98325 0.0
C273 C 0.2435 0.2064 1.04644 0.0
C274 C 0.22298 0.17507 1.06492 0.0
C275 C 0.2235 0.19202 1.02476 0.0
C276 C 0.18238 0.14618 1.02111 0.0
C277 C 0.16022 0.11655 1.04 0.0
C278 C 0.17991 0.13089 1.06152 0.0
C279 C 0.15874 0.12957 0.99846 0.0
C280 C 0.13592 0.07942 0.9946 0.0
C281 C 0.1341 0.15267 0.99001 0.0
C282 C 0.16092 0.20488 0.98439 0.0
C283 C 0.20422 0.22401 0.97179 0.0
C284 C 0.2291 0.27274 0.96576 0.0
C285 C 0.21081 0.3027 0.97201 0.0
C286 C 0.16799 0.28421 0.98458 0.0
C287 C 0.14312 0.23559 0.99081 0.0
H288 H 0.2298 0.34026 0.96712 0.0
H289 H -0.01104 0.85943 1.00486 0.0
H290 H 0.02511 0.06181 0.43101 0.0
H291 H 0.01466 0.11406 0.40533 0.0
H292 H 0.02439 0.03389 0.34852 0.0
H293 H 0.03895 0.98354 0.37456 0.0
H294 H 0.05557 0.11162 0.33275 0.0
H295 H 0.91202 0.03402 0.36223 0.0
H296 H 0.83443 -0.01219 0.38237 0.0
H297 H 0.86467 0.11469 0.42037 0.0
H298 H 0.94343 0.16127 0.40146 0.0
H299 H 0.10446 0.28614 0.4208 0.0
H300 H 0.05075 0.26379 0.38788 0.0
H301 H 0.13201 0.20342 0.35643 0.0
H302 H 0.18313 0.22416 0.38896 0.0
H303 H -0.0176 0.19864 0.36945 0.0
H304 H 0.05238 0.13474 0.29517 0.0
H305 H 0.09632 0.17417 0.26077 0.0
H306 H 0.16133 0.31277 0.29373 0.0
H307 H 0.11769 0.27479 0.32842 0.0
C308 C 0.02579 0.05563 0.41306 0.0
C309 C 0.03131 0.0175 0.40485 0.0
C310 C 0.01842 0.08481 0.39826 0.0
C311 C 0.01545 0.07618 0.37482 0.0
C312 C 0.02487 0.04052 0.36647 0.0
C313 C 0.03345 0.01188 0.38139 0.0
C314 C 0.00763 0.10844 0.35964 0.0
C315 C 0.03859 0.1296 0.34105 0.0
C316 C 0.98019 0.12976 0.36719 0.0
C317 C 0.93405 0.10155 0.38008 0.0
C318 C 0.90273 0.05207 0.37515 0.0
C319 C 0.85839 0.02568 0.3864 0.0
C320 C 0.84463 0.04826 0.40264 0.0
C321 C 0.87535 0.09722 0.40775 0.0
C322 C 0.91999 0.12369 0.39674 0.0
C323 C 0.11002 0.26739 0.40686 0.0
C324 C 0.14657 0.25486 0.40796 0.0
C325 C 0.07978 0.25531 0.38781 0.0
C326 C 0.08527 0.23021 0.36944 0.0
C327 C 0.12475 0.22146 0.37009 0.0
C328 C 0.15412 0.23269 0.38915 0.0
C329 C 0.04491 0.20442 0.35234 0.0
C330 C -0.00124 0.17895 0.36233 0.0
C331 C 0.05273 0.17764 0.33546 0.0
C332 C 0.08206 0.20129 0.31496 0.0
C333 C 0.07675 0.17352 0.29547 0.0
C334 C 0.10157 0.19577 0.27573 0.0
C335 C 0.13234 0.24581 0.27514 0.0
C336 C 0.13783 0.27388 0.29424 0.0
C337 C 0.11282 0.25193 0.314 0.0
H338 H 0.15158 0.26286 0.25982 0.0
H339 H 0.8102 0.02782 0.41129 0.0
H340 H 0.19189 0.03531 0.707 0.0
H341 H 0.14752 0.03632 0.67348 0.0
H342 H 0.05038 0.05941 0.71589 0.0
H343 H 0.09257 0.05577 0.74929 0.0
H344 H -0.00201 0.9839 0.68352 0.0
H345 H 0.16843 0.14376 0.68157 0.0
H346 H 0.2526 0.18352 0.66706 0.0
H347 H 0.19811 0.12279 0.60129 0.0
H348 H 0.11364 0.0824 0.61556 0.0
H349 H 0.09979 0.19286 0.72544 0.0
H350 H 0.09417 0.15275 0.69045 0.0
H351 H 0.93879 0.09978 0.68713 0.0
H352 H 0.94446 0.13861 0.72338 0.0
H353 H 0.07218 0.14204 0.64601 0.0
H354 H 0.91259 0.03082 0.64424 0.0
H355 H 0.82524 -0.00713 0.65384 0.0
H356 H 0.85462 0.95528 0.71895 0.0
H357 H 0.94222 -0.00611 0.70991 0.0
C358 C 0.16171 0.04174 0.70918 0.0
C359 C 0.1452 0.04469 0.73095 0.0
C360 C 0.13604 0.04163 0.68993 0.0
C361 C 0.09466 0.0463 0.69212 0.0
C362 C 0.08127 0.05404 0.71372 0.0
C363 C 0.10603 0.053 0.73289 0.0
C364 C 0.06531 0.0455 0.67247 0.0
C365 C 0.01431 0.01827 0.67493 0.0
C366 C 0.08415 0.08556 0.65788 0.0
C367 C 0.13491 0.10967 0.64966 0.0
C368 C 0.17446 0.13876 0.66404 0.0
C369 C 0.22222 0.16139 0.65588 0.0
C370 C 0.23076 0.15561 0.63328 0.0
C371 C 0.19151 0.12717 0.61881 0.0
C372 C 0.14372 0.10433 0.62694 0.0
C373 C 0.0642 0.17223 0.71748 0.0
C374 C 0.0225 0.16837 0.72757 0.0
C375 C 0.06096 0.14992 0.69685 0.0
C376 C 0.0158 0.12262 0.68543 0.0
C377 C 0.97409 0.11973 0.69531 0.0
C378 C 0.97731 0.14183 0.71625 0.0
C379 C 0.0122 0.09035 0.66613 0.0
C380 C 0.05521 0.10653 0.65355 0.0
C381 C -0.01348 0.04046 0.67092 0.0
C382 C 0.93388 0.01518 0.67634 0.0
C383 C 0.90036 0.01452 0.66061 0.0
C384 C 0.85085 -0.00703 0.66596 0.0
C385 C 0.8344 0.97167 0.68698 0.0
C386 C 0.86741 0.9717 0.70265 0.0
C387 C 0.91699 -0.0067 0.69739 0.0
H388 H 0.79609 0.95516 0.69113 0.0
H389 H 0.26776 0.17321 0.62699 0.0
H390 H 0.42215 0.47437 1.05063 0.0
H391 H 0.40089 0.50422 1.01729 0.0
H392 H 0.49562 0.47376 0.97703 0.0
H393 H 0.51749 0.4445 1.01036 0.0
H394 H 0.4793 0.54449 0.95759 0.0
H395 H 0.38749 0.37834 0.98716 0.0
H396 H 0.34263 0.31811 1.01661 0.0
H397 H 0.24706 0.37561 1.02545 0.0
H398 H 0.29157 0.43627 0.99608 0.0
H399 H 0.29386 0.34206 0.87933 0.0
H400 H 0.33652 0.37542 0.91498 0.0
H401 H 0.35377 0.51437 0.89862 0.0
H402 H 0.31196 0.48108 0.8624 0.0
H403 H 0.30927 0.40804 0.94868 0.0
H404 H 0.45019 0.59974 0.92636 0.0
H405 H 0.49907 0.64826 0.89417 0.0
H406 H 0.50146 0.5247 0.86695 0.0
H407 H 0.4529 0.47567 0.89909 0.0
C408 C 0.44055 0.47661 1.03494 0.0
C409 C 0.47043 0.45602 1.03282 0.0
C410 C 0.42835 0.49368 1.0159 0.0
C411 C 0.44576 0.48994 0.9947 0.0
C412 C 0.4816 0.47663 0.99326 0.0
C413 C 0.49376 0.45953 1.01225 0.0
C414 C 0.41772 0.48606 0.97417 0.0
C415 C 0.44173 0.51552 0.95571 0.0
C416 C 0.36906 0.44748 0.97164 0.0
C417 C 0.34315 0.41211 0.98971 0.0
C418 C 0.35715 0.37833 0.99555 0.0
C419 C 0.33175 0.34408 1.01216 0.0
C420 C 0.29214 0.34317 1.02295 0.0
C421 C 0.27791 0.37654 1.01716 0.0
C422 C 0.30317 0.41083 1.00053 0.0
C423 C 0.30702 0.37977 0.88331 0.0
C424 C 0.29965 0.40906 0.86829 0.0
C425 C 0.33128 0.39881 0.90364 0.0
C426 C 0.34818 0.44735 0.90946 0.0
C427 C 0.3415 0.477 0.89433 0.0
C428 C 0.31766 0.45801 0.87374 0.0
C429 C 0.37126 0.46546 0.93178 0.0
C430 C 0.34607 0.43856 0.95067 0.0
C431 C 0.41915 0.50529 0.93441 0.0
C432 C 0.44788 0.53417 0.915 0.0
C433 C 0.4612 0.58303 0.91348 0.0
C434 C 0.48881 0.61058 0.89527 0.0
C435 C 0.50331 0.58956 0.87851 0.0
C436 C 0.49017 0.54092 0.87993 0.0
C437 C 0.4626 0.51325 0.89812 0.0
H438 H 0.52475 0.61096 0.86444 0.0
H439 H 0.27236 0.31654 1.03574 0.0
H440 H 0.13929 0.51038 0.36356 0.0
H441 H 0.10424 0.49847 0.32603 0.0
H442 H 0.24689 0.55465 0.29691 0.0
H443 H 0.28289 0.56743 0.33468 0.0
H444 H 0.15957 0.56099 0.27041 0.0
H445 H 0.215 0.45404 0.30231 0.0
H446 H 0.22424 0.41071 0.33442 0.0
H447 H 0.06946 0.3371 0.34531 0.0
H448 H 0.05943 0.38042 0.31333 0.0
H449 H 0.11575 0.40103 0.17574 0.0
H450 H 0.14568 0.45765 0.20763 0.0
H451 H 0.01167 0.36771 0.24315 0.0
H452 H 0.98085 0.31143 0.21111 0.0
H453 H 0.09306 0.38354 0.26631 0.0
H454 H 0.03777 0.47689 0.22717 0.0
H455 H 0.0295 0.52215 0.19575 0.0
H456 H 0.18382 0.62275 0.19801 0.0
H457 H 0.19321 0.5776 0.2292 0.0
C458 C 0.16385 0.52296 0.34934 0.0
C459 C 0.21378 0.53867 0.35206 0.0
C460 C 0.14358 0.51605 0.32784 0.0
C461 C 0.17296 0.52488 0.30885 0.0
C462 C 0.22376 0.54759 0.31147 0.0
C463 C 0.24417 0.55443 0.33304 0.0
C464 C 0.14992 0.49821 0.28785 0.0
C465 C 0.1454 0.52232 0.26925 0.0
C466 C 0.13087 0.44771 0.28675 0.0
C467 C 0.13657 0.42093 0.30568 0.0
C468 C 0.18301 0.4289 0.31168 0.0
C469 C 0.18839 0.40436 0.32983 0.0
C470 C 0.14753 0.37161 0.34205 0.0
C471 C 0.10112 0.36283 0.33594 0.0
C472 C 0.09555 0.38728 0.31778 0.0
C473 C 0.09201 0.39394 0.19004 0.0
C474 C 0.04607 0.35138 0.19098 0.0
C475 C 0.10921 0.42641 0.20825 0.0
C476 C 0.08083 0.41687 0.22769 0.0
C477 C 0.0341 0.37565 0.22827 0.0
C478 C 0.01676 0.34333 0.21004 0.0
C479 C 0.10236 0.44601 0.24843 0.0
C480 C 0.10687 0.42219 0.2672 0.0
C481 C 0.12165 0.49671 0.24942 0.0
C482 C 0.11627 0.52345 0.23037 0.0
C483 C 0.07007 0.50828 0.22079 0.0
C484 C 0.06515 0.53402 0.20306 0.0
C485 C 0.10613 0.57521 0.19484 0.0
C486 C 0.15212 0.59077 0.20436 0.0
C487 C 0.15725 0.56512 0.22207 0.0
H488 H 0.10223 0.59514 0.18114 0.0
H489 H 0.15177 0.35269 0.35612 0.0
H490 H 0.7722 0.04442 0.69759 0.0
H491 H 0.74424 0.01392 0.65942 0.0
H492 H 0.69595 0.11696 0.65108 0.0
H493 H 0.72478 0.14844 0.68912 0.0
H494 H 0.64545 0.02187 0.62208 0.0
H495 H 0.79978 0.16584 0.64186 0.0
H496 H 0.87537 0.21163 0.66432 0.0
H497 H 0.9205 0.11072 0.64495 0.0
H498 H 0.84398 0.06289 0.62316 0.0
H499 H 0.81885 0.1013 0.51572 0.0
H500 H 0.78629 0.1166 0.54983 0.0
H501 H 0.69625 0.96312 0.56027 0.0
H502 H 0.72675 0.94727 0.52535 0.0
H503 H 0.80935 0.09072 0.58745 0.0
H504 H 0.60428 0.94293 0.59796 0.0
H505 H 0.52916 0.90216 0.57482 0.0
H506 H 0.58791 0.02259 0.52981 0.0
H507 H 0.66293 0.06452 0.5529 0.0
C508 C 0.75364 0.05911 0.68799 0.0
C509 C 0.75198 0.09972 0.69595 0.0
C510 C 0.7373 0.04137 0.66628 0.0
C511 C 0.71901 0.06396 0.65244 0.0
C512 C 0.70999 0.09918 0.66162 0.0
C513 C 0.72663 0.11721 0.68335 0.0
C514 C 0.72313 0.06102 0.62786 0.0
C515 C 0.68107 0.03677 0.61434 0.0
C516 C 0.76984 0.08204 0.61792 0.0
C517 C 0.81565 0.11027 0.63124 0.0
C518 C 0.82532 0.15282 0.64274 0.0
C519 C 0.86837 0.17916 0.65532 0.0
C520 C 0.90246 0.16376 0.65622 0.0
C521 C 0.89366 0.1221 0.64447 0.0
C522 C 0.85042 0.09531 0.63205 0.0
C523 C 0.79058 0.07065 0.52465 0.0
C524 C 0.77609 0.02298 0.51799 0.0
C525 C 0.77213 0.07954 0.54425 0.0
C526 C 0.73922 0.04104 0.55766 0.0
C527 C 0.72142 -0.00662 0.5501 0.0
C528 C 0.73951 0.98441 0.53032 0.0
C529 C 0.73159 0.05059 0.58128 0.0
C530 C 0.7734 0.07607 0.59485 0.0
C531 C 0.68473 0.03147 0.59097 0.0
C532 C 0.6395 0.00665 0.57707 0.0
C533 C 0.6011 0.96083 0.58319 0.0
C534 C 0.55851 0.93751 0.57008 0.0
C535 C 0.55382 0.95972 0.55083 0.0
C536 C 0.59166 0.00534 0.54468 0.0
C537 C 0.63426 0.02888 0.55776 0.0
H538 H 0.52082 0.9416 0.5407 0.0
H539 H 0.9358 0.18419 0.66592 0.0
H540 H 0.71292 0.8134 0.99515 0.0
H541 H 0.7212 0.76867 0.96395 0.0
H542 H 0.75979 0.68992 1.01037 0.0
H543 H 0.75353 0.73662 1.04177 0.0
H544 H 0.82645 0.72765 0.9818 0.0
H545 H 0.66188 0.6268 0.97174 0.0
H546 H 0.57384 0.59876 0.97165 0.0
H547 H 0.59309 0.6918 0.91619 0.0
H548 H 0.68138 0.72112 0.91613 0.0
H549 H 0.84366 0.72326 0.84842 0.0
H550 H 0.79662 0.68078 0.88202 0.0
H551 H 0.88269 0.81041 0.92187 0.0
H552 H 0.92993 0.85188 0.88891 0.0
H553 H 0.73903 0.69412 0.90851 0.0
H554 H 0.9071 0.79608 0.97037 0.0
H555 H -0.0063 0.81794 0.97054 0.0
H556 H 0.96135 0.7024 0.92383 0.0
H557 H 0.87457 0.6796 0.92333 0.0
C558 C 0.72207 0.78578 0.99876 0.0
C559 C 0.73351 0.77915 1.02079 0.0
C560 C 0.72604 0.7595 0.98091 0.0
C561 C 0.74093 0.72554 0.98472 0.0
C562 C 0.74817 0.71582 1.00699 0.0
C563 C 0.74442 0.74241 1.02493 0.0
C564 C 0.75825 0.70878 0.96532 0.0
C565 C 0.80683 0.71896 0.96588 0.0
C566 C 0.73198 0.69452 0.94468 0.0
C567 C 0.67852 0.67619 0.94394 0.0
C568 C 0.64744 0.6414 0.95953 0.0
C569 C 0.59745 0.62529 0.95951 0.0
C570 C 0.57797 0.64361 0.94397 0.0
C571 C 0.6083 0.67765 0.92822 0.0
C572 C 0.65836 0.69392 0.92815 0.0
C573 C 0.85251 0.74228 0.86447 0.0
C574 C 0.89075 0.79058 0.86621 0.0
C575 C 0.82582 0.71802 0.88359 0.0
C576 C 0.83706 0.74191 0.9046 0.0
C577 C 0.87455 0.79049 0.90608 0.0
C578 C 0.90139 0.81436 0.88719 0.0
C579 C 0.80828 0.71849 0.92503 0.0
C580 C 0.7577 0.70036 0.92458 0.0
C581 C 0.83206 0.72324 0.94589 0.0
C582 C 0.8841 0.7359 0.94692 0.0
C583 C 0.91823 0.77486 0.96037 0.0
C584 C 0.96742 0.78757 0.96045 0.0
C585 C -0.01709 0.76144 0.94732 0.0
C586 C 0.94928 0.72257 0.93402 0.0
C587 C 0.90011 0.7098 0.93379 0.0
H588 H 0.02102 0.77148 0.94738 0.0
H589 H 0.53944 0.63165 0.94425 0.0
H590 H 0.00524 0.69124 0.33941 0.0
H591 H 0.02647 0.67497 0.302 0.0
H592 H 0.17422 0.79276 0.31152 0.0
H593 H 0.15337 0.80847 0.34893 0.0
H594 H 0.04739 0.738 0.27107 0.0
H595 H 0.25368 0.78574 0.27897 0.0
H596 H 0.3005 0.75693 0.3005 0.0
H597 H 0.1684 0.6243 0.31465 0.0
H598 H 0.12076 0.65204 0.29309 0.0
H599 H 0.24426 0.91908 0.20611 0.0
H600 H 0.22225 0.85909 0.2355 0.0
H601 H 0.11298 0.74973 0.1917 0.0
H602 H 0.13518 0.80967 0.16196 0.0
H603 H 0.20566 0.76238 0.24319 0.0
H604 H 0.01011 0.69655 0.22336 0.0
H605 H 0.95902 0.71596 0.1991 0.0
H606 H 0.06107 0.86769 0.20799 0.0
H607 H 0.11216 0.84907 0.23257 0.0
C608 C 0.04268 0.71247 0.33382 0.0
C609 C 0.07751 0.75168 0.34688 0.0
C610 C 0.05477 0.7031 0.31245 0.0
C611 C 0.10193 0.73257 0.30388 0.0
C612 C 0.13777 0.76898 0.31779 0.0
C613 C 0.12566 0.77848 0.33907 0.0
C614 C 0.11124 0.73332 0.27935 0.0
C615 C 0.08112 0.74137 0.26483 0.0
C616 C 0.15485 0.73725 0.27095 0.0
C617 C 0.18355 0.72116 0.28444 0.0
C618 C 0.23457 0.75037 0.2866 0.0
C619 C 0.26127 0.73424 0.29886 0.0
C620 C 0.23743 0.68885 0.30896 0.0
C621 C 0.18681 0.65954 0.3069 0.0
C622 C 0.15992 0.67555 0.29473 0.0
C623 C 0.21679 0.88194 0.20237 0.0
C624 C 0.19074 0.86937 0.18186 0.0
C625 C 0.20439 0.84756 0.21919 0.0
C626 C 0.16566 0.80013 0.21585 0.0
C627 C 0.14281 0.78625 0.19463 0.0
C628 C 0.15514 0.82068 0.17778 0.0
C629 C 0.14318 0.76964 0.23583 0.0
C630 C 0.17092 0.7565 0.24935 0.0
C631 C 0.0966 0.75952 0.24322 0.0
C632 C 0.06506 0.77139 0.22953 0.0
C633 C 0.02135 0.73402 0.22023 0.0
C634 C -0.00756 0.74487 0.20644 0.0
C635 C 0.00688 0.793 0.20192 0.0
C636 C 0.04992 0.83042 0.21145 0.0
C637 C 0.07883 0.81975 0.22535 0.0
H638 H -0.01532 0.80118 0.19102 0.0
H639 H 0.25819 0.67635 0.31836 0.0
H640 H 0.46459 0.15625 0.70383 0.0
H641 H 0.50507 0.20334 0.67029 0.0
H642 H 0.43911 0.07237 0.63005 0.0
H643 H 0.39935 0.02514 0.66353 0.0
H644 H 0.52974 0.13916 0.61413 0.0
H645 H 0.37822 0.13051 0.6369 0.0
H646 H 0.32353 0.1418 0.66259 0.0
H647 H 0.42768 0.29377 0.66746 0.0
H648 H 0.48317 0.28322 0.64191 0.0
H649 H 0.41487 0.15281 0.51646 0.0
H650 H 0.45201 0.14257 0.55027 0.0
H651 H 0.51989 0.29528 0.56499 0.0
H652 H 0.48333 0.30604 0.5308 0.0
H653 H 0.45677 0.24065 0.59671 0.0
H654 H 0.59117 0.24391 0.56038 0.0
H655 H 0.63554 0.22495 0.53177 0.0
H656 H 0.55399 0.07485 0.54921 0.0
H657 H 0.50863 0.09265 0.57767 0.0
C658 C 0.46016 0.1374 0.68797 0.0
C659 C 0.42828 0.08721 0.68612 0.0
C660 C 0.48319 0.16432 0.66885 0.0
C661 C 0.47447 0.14133 0.64771 0.0
C662 C 0.44628 0.09076 0.64624 0.0
C663 C 0.4232 0.06389 0.6653 0.0
C664 C 0.48731 0.16958 0.62676 0.0
C665 C 0.51426 0.16174 0.61024 0.0
C666 C 0.4678 0.19974 0.62201 0.0
C667 C 0.43516 0.20596 0.63784 0.0
C668 C 0.38968 0.16622 0.64367 0.0
C669 C 0.35848 0.1725 0.65814 0.0
C670 C 0.37223 0.21844 0.66674 0.0
C671 C 0.41718 0.25819 0.66085 0.0
C672 C 0.44851 0.25209 0.64639 0.0
C673 C 0.43928 0.18461 0.52634 0.0
C674 C 0.4454 0.23009 0.5212 0.0
C675 C 0.46077 0.17873 0.54567 0.0
C676 C 0.48879 0.2182 0.56014 0.0
C677 C 0.49846 0.2644 0.554 0.0
C678 C 0.47708 0.27035 0.53463 0.0
C679 C 0.4978 0.20895 0.58353 0.0
C680 C 0.47448 0.22007 0.60066 0.0
C681 C 0.51951 0.1808 0.58851 0.0
C682 C 0.54638 0.1697 0.57119 0.0
C683 C 0.5824 0.20678 0.55801 0.0
C684 C 0.60782 0.19624 0.54183 0.0
C685 C 0.59765 0.14873 0.53868 0.0
C686 C 0.56198 0.11165 0.55169 0.0
C687 C 0.53645 0.12198 0.56789 0.0
H688 H 0.6174 0.14063 0.52617 0.0
H689 H 0.34799 0.22327 0.67789 0.0
H690 H 0.39288 0.06014 0.12157 0.0
H691 H 0.46429 0.04929 0.12309 0.0
H692 H 0.55987 0.20394 0.12275 0.0
H693 H 0.48941 0.21517 0.12145 0.0
H694 H 0.58567 0.15567 0.09115 0.0
H695 H 0.54558 0.14595 0.17007 0.0
H696 H 0.49121 0.1134 0.20286 0.0
H697 H 0.47089 0.97243 0.18921 0.0
H698 H 0.52465 0.00404 0.15613 0.0
H699 H 0.81244 0.16951 0.11286 0.0
H700 H 0.74142 0.18035 0.11575 0.0
H701 H 0.64854 0.02749 0.12694 0.0
H702 H 0.7191 0.01661 0.1247 0.0
H703 H 0.62028 0.07407 0.15313 0.0
H704 H 0.65665 0.0796 1.07465 0.0
H705 H 0.70771 0.10796 1.04063 0.0
H706 H 0.73077 0.2508 1.05148 0.0
H707 H 0.68036 0.22343 1.08576 0.0
C708 C 0.42909 0.0918 0.12202 0.0
C709 C 0.43525 0.1385 0.12143 0.0
C710 C 0.46987 0.08556 0.12291 0.0
C711 C 0.51746 0.12586 0.12302 0.0
C712 C 0.52357 0.17235 0.12262 0.0
C713 C 0.48306 0.17863 0.122 0.0
C714 C 0.56118 0.12 0.12302 0.0
C715 C 0.59358 0.13835 0.10483 0.0
C716 C 0.57081 0.09623 0.14055 0.0
C717 C 0.53871 0.07725 0.16049 0.0
C718 C 0.52918 0.10792 0.17395 0.0
C719 C 0.49854 0.08966 0.19261 0.0
C720 C 0.47749 0.04084 0.19808 0.0
C721 C 0.48716 0.01022 0.18493 0.0
C722 C 0.51774 0.0283 0.16624 0.0
C723 C 0.77698 0.13829 0.11614 0.0
C724 C 0.77163 0.09218 0.11844 0.0
C725 C 0.73627 0.14447 0.11766 0.0
C726 C 0.68928 0.10458 0.1212 0.0
C727 C 0.68422 0.05885 0.12417 0.0
C728 C 0.7248 0.05271 0.12282 0.0
C729 C 0.64514 0.10999 0.12127 0.0
C730 C 0.61254 0.09147 0.13943 0.0
C731 C 0.6349 0.13299 0.10353 0.0
C732 C 0.66517 0.14958 1.08291 0.0
C733 C 0.67293 0.11715 1.06988 0.0
C734 C 0.7017 0.13303 1.05054 0.0
C735 C 0.72259 0.18118 1.04394 0.0
C736 C 0.71464 0.21353 1.05664 0.0
C737 C 0.68595 0.19785 1.07602 0.0
H738 H 0.74484 0.1934 1.02895 0.0
H739 H 0.45378 0.02677 0.21253 0.0
H740 H 0.43278 0.42802 0.47812 0.0
H741 H 0.51651 0.49672 0.48122 0.0
H742 H 0.49725 0.55221 0.41843 0.0
H743 H 0.41354 0.48506 0.4157 0.0
H744 H 0.59642 0.52968 0.45833 0.0
H745 H 0.55852 0.67215 0.41735 0.0
H746 H 0.49103 0.68924 0.4143 0.0
H747 H 0.42916 0.61211 0.4755 0.0
H748 H 0.49661 0.59514 0.47909 0.0
H749 H 0.81983 0.73278 0.4251 0.0
H750 H 0.73789 0.66248 0.42792 0.0
H751 H 0.69825 0.74063 0.47479 0.0
H752 H 0.77958 0.81182 0.47123 0.0
H753 H 0.62776 0.69649 0.44787 0.0
H754 H 0.71976 0.64471 0.49062 0.0
H755 H 0.78625 0.62822 0.49887 0.0
H756 H 0.73904 0.52617 0.44383 0.0
H757 H 0.67263 0.54252 0.43506 0.0
C758 C 0.44643 0.45494 0.46501 0.0
C759 C 0.41618 0.45128 0.44681 0.0
C760 C 0.4944 0.49418 0.46676 0.0
C761 C 0.51318 0.53041 0.4503 0.0
C762 C 0.48345 0.52568 0.43172 0.0
C763 C 0.43548 0.48698 0.43012 0.0
C764 C 0.56353 0.57335 0.45246 0.0
C765 C 0.60324 0.56616 0.45609 0.0
C766 C 0.5727 0.62127 0.45019 0.0
C767 C 0.53242 0.63203 0.44837 0.0
C768 C 0.53065 0.65906 0.43022 0.0
C769 C 0.49237 0.66867 0.42838 0.0
C770 C 0.45576 0.65165 0.44465 0.0
C771 C 0.45745 0.62514 0.46286 0.0
C772 C 0.49568 0.61548 0.46479 0.0
C773 C 0.79382 0.73493 0.43616 0.0
C774 C 0.80645 0.77805 0.44796 0.0
C775 C 0.74687 0.69446 0.43787 0.0
C776 C 0.71164 0.69561 0.45185 0.0
C777 C 0.72446 0.73855 0.46385 0.0
C778 C 0.77115 0.77931 0.46185 0.0
C779 C 0.66099 0.6529 0.45323 0.0
C780 C 0.62111 0.66011 0.45023 0.0
C781 C 0.65165 0.60522 0.45683 0.0
C782 C 0.69146 0.59516 0.46208 0.0
C783 C 0.72376 0.619 0.48018 0.0
C784 C 0.7614 0.60963 0.48496 0.0
C785 C 0.76693 0.57625 0.47185 0.0
C786 C 0.73474 0.55205 0.45396 0.0
C787 C 0.69705 0.56131 0.44909 0.0
H788 H 0.7961 0.56905 0.47558 0.0
H789 H 0.42612 0.65907 0.44318 0.0
H790 H 0.14426 0.45399 0.79404 0.0
H791 H 0.15976 0.53712 0.79693 0.0
H792 H 0.00825 0.48598 0.78145 0.0
H793 H -0.00692 0.40373 0.77786 0.0
H794 H 0.06146 0.56037 0.75714 0.0
H795 H 0.0617 0.52558 0.83613 0.0
H796 H 0.08899 0.50109 0.86991 0.0
H797 H 0.23512 0.61915 0.86082 0.0
H798 H 0.2088 0.644 0.82682 0.0
H799 H 0.049 0.76979 0.7823 0.0
H800 H 0.03785 0.68861 0.78472 0.0
H801 H 0.19282 0.75 0.79485 0.0
H802 H 0.2043 0.83127 0.79273 0.0
H803 H 0.14199 0.67264 0.82174 0.0
H804 H 0.14205 0.70786 0.74334 0.0
H805 H 0.11565 0.73291 0.70947 0.0
H806 H 0.96963 0.6138 0.71729 0.0
H807 H -0.00499 0.58841 0.75141 0.0
C808 C 0.11421 0.46049 0.79152 0.0
C809 C 0.0675 0.42219 0.78563 0.0
C810 C 0.12305 0.50806 0.79323 0.0
C811 C 0.08512 0.51809 0.7895 0.0
C812 C 0.03827 0.47952 0.78426 0.0
C813 C 0.02961 0.43233 0.78227 0.0
C814 C 0.09403 0.56862 0.79001 0.0
C815 C 0.07845 0.58455 0.77145 0.0
C816 C 0.1176 0.60108 0.8083 0.0
C817 C 0.13337 0.58635 0.82881 0.0
C818 C 0.09971 0.54612 0.84125 0.0
C819 C 0.115 0.5322 0.86045 0.0
C820 C 0.16378 0.55847 0.86747 0.0
C821 C 0.19736 0.5988 0.85534 0.0
C822 C 0.18227 0.61284 0.83613 0.0
C823 C 0.08071 0.76614 0.78525 0.0
C824 C 0.1276 0.80726 0.78715 0.0
C825 C 0.07429 0.7196 0.78654 0.0
C826 C 0.11459 0.71307 0.78964 0.0
C827 C 0.16117 0.75402 0.7924 0.0
C828 C 0.16764 0.80056 0.79111 0.0
C829 C 0.10843 0.66369 0.78911 0.0
C830 C 0.12483 0.64822 0.80752 0.0
C831 C 0.08563 0.63154 0.77067 0.0
C832 C 0.07034 0.64651 0.75005 0.0
C833 C 0.10423 0.68721 0.73793 0.0
C834 C 0.08946 0.70144 0.71867 0.0
C835 C 0.04097 0.67504 0.71126 0.0
C836 C 0.00717 0.63425 0.72306 0.0
C837 C 0.02173 0.6199 0.74235 0.0
H838 H 0.02961 0.68612 0.69635 0.0
H839 H 0.17554 0.54763 0.88233 0.0
H840 H 0.26986 0.133 0.19224 0.0
H841 H 0.26315 0.15578 0.23115 0.0
H842 H 0.33449 0.3055 0.21227 0.0
H843 H 0.34142 0.28287 0.17341 0.0
H844 H 0.36904 0.30264 0.25214 0.0
H845 H 0.20504 0.23043 0.22322 0.0
H846 H 0.13007 0.16519 0.20535 0.0
H847 H 0.11273 0.07039 0.25975 0.0
H848 H 0.18813 0.13483 0.27775 0.0
H849 H 0.33882 0.29708 0.37271 0.0
H850 H 0.3416 0.27544 0.33326 0.0
H851 H 0.23025 0.30922 0.31628 0.0
H852 H 0.22743 0.33134 0.35594 0.0
H853 H 0.2127 0.22301 0.29377 0.0
H854 H 0.421 0.30431 0.28836 0.0
H855 H 0.49646 0.37078 0.30535 0.0
H856 H 0.42342 0.45065 0.31851 0.0
H857 H 0.34776 0.38498 0.30133 0.0
C858 C 0.28415 0.17088 0.19621 0.0
C859 C 0.30614 0.20573 0.17905 0.0
C860 C 0.28001 0.18406 0.21876 0.0
C861 C 0.29768 0.2328 0.22536 0.0
C862 C 0.32022 0.26763 0.20826 0.0
C863 C 0.32406 0.25445 0.1857 0.0
C864 C 0.2932 0.2476 0.24977 0.0
C865 C 0.33466 0.28476 0.26108 0.0
C866 C 0.24862 0.22561 0.26215 0.0
C867 C 0.20258 0.18729 0.25169 0.0
C868 C 0.18545 0.19556 0.23128 0.0
C869 C 0.14291 0.1587 0.22112 0.0
C870 C 0.11684 0.11356 0.23132 0.0
C871 C 0.13311 0.10529 0.2518 0.0
C872 C 0.17573 0.14198 0.262 0.0
C873 C 0.31487 0.3003 0.3607 0.0
C874 C 0.28322 0.31678 0.36808 0.0
C875 C 0.31652 0.2877 0.33783 0.0
C876 C 0.28615 0.29025 0.32108 0.0
C877 C 0.25405 0.30623 0.32841 0.0
C878 C 0.25285 0.31955 0.35132 0.0
C879 C 0.28886 0.27712 0.2962 0.0
C880 C 0.24708 0.24052 0.28482 0.0
C881 C 0.33314 0.29949 0.28372 0.0
C882 C 0.37862 0.33951 0.29375 0.0
C883 C 0.42112 0.33615 0.2948 0.0
C884 C 0.46391 0.37367 0.30447 0.0
C885 C 0.46469 0.41484 0.31307 0.0
C886 C 0.42272 0.41867 0.31193 0.0
C887 C 0.37987 0.38128 0.30224 0.0
H888 H 0.49783 0.44382 0.32057 0.0
H889 H 0.0839 0.08511 0.22344 0.0
H890 H 0.22186 0.26433 0.52016 0.0
H891 H 0.19066 0.25741 0.55861 0.0
H892 H 0.18466 0.38758 0.54949 0.0
H893 H 0.21529 0.39426 0.51098 0.0
H894 H 0.21778 0.30346 0.59675 0.0
H895 H 0.09976 0.39196 0.58309 0.0
H896 H 0.05171 0.40143 0.55287 0.0
H897 H 0.03059 0.27171 0.52046 0.0
H898 H 0.07804 0.26119 0.5506 0.0
H899 H 0.15605 0.35641 0.70529 0.0
H900 H 0.18253 0.36109 0.66628 0.0
H901 H 0.03521 0.25743 0.64615 0.0
H902 H 0.00825 0.25353 0.68541 0.0
H903 H 0.07404 0.32084 0.61312 0.0
H904 H 0.13222 0.234 0.65531 0.0
H905 H 0.17673 0.22324 0.68667 0.0
H906 H 0.31239 0.33737 0.66133 0.0
H907 H 0.26851 0.3517 0.63082 0.0
C908 C 0.21394 0.29166 0.52619 0.0
C909 C 0.22144 0.32989 0.51182 0.0
C910 C 0.19598 0.28769 0.54853 0.0
C911 C 0.18401 0.32142 0.55764 0.0
C912 C 0.1921 0.36 0.54336 0.0
C913 C 0.21023 0.36408 0.52106 0.0
C914 C 0.16361 0.31639 0.58179 0.0
C915 C 0.18648 0.30759 0.60017 0.0
C916 C 0.12184 0.3204 0.58704 0.0
C917 C 0.09285 0.3261 0.56898 0.0
C918 C 0.0847 0.36538 0.56955 0.0
C919 C 0.05762 0.37095 0.55243 0.0
C920 C 0.03825 0.33728 0.53472 0.0
C921 C 0.04577 0.29787 0.53414 0.0
C922 C 0.07281 0.29212 0.55122 0.0
C923 C 0.12883 0.3347 0.69267 0.0
C924 C 0.07953 0.30465 0.69908 0.0
C925 C 0.14433 0.3372 0.67005 0.0
C926 C 0.11161 0.30911 0.65256 0.0
C927 C 0.062 0.27979 0.6588 0.0
C928 C 0.04635 0.27753 0.68152 0.0
C929 C 0.12938 0.30983 0.62821 0.0
C930 C 0.1057 0.31727 0.60977 0.0
C931 C 0.17026 0.3042 0.62292 0.0
C932 C 0.19686 0.29433 0.64083 0.0
C933 C 0.17148 0.25724 0.65651 0.0
C934 C 0.19659 0.25062 0.67421 0.0
C935 C 0.24733 0.27929 0.67588 0.0
C936 C 0.27306 0.31514 0.66001 0.0
C937 C 0.24802 0.32288 0.64262 0.0
H938 H 0.26669 0.27371 0.68949 0.0
H939 H 0.01732 0.34168 0.52148 0.0
H940 H 0.94912 0.25049 0.84587 0.0
H941 H 0.92944 0.22394 0.88504 0.0
H942 H 0.03432 0.17595 0.88352 0.0
H943 H 0.05581 0.20493 0.8449 0.0
H944 H 0.89034 0.15124 0.90828 0.0
H945 H 0.06913 0.15855 0.935 0.0
H946 H 0.15717 0.20419 0.92658 0.0
H947 H 0.14522 0.32654 0.90686 0.0
H948 H 0.05693 0.28147 0.91501 0.0
H949 H 0.84637 0.0356 1.01748 0.0
H950 H 0.86607 0.05907 0.97776 0.0
H951 H -0.01535 0.19805 0.99899 0.0
H952 H 0.96576 0.17464 1.03824 0.0
H953 H 0.01699 0.17806 0.9648 0.0
H954 H 0.86493 0.173 0.975 0.0
H955 H 0.77795 0.13681 0.98486 0.0
H956 H 0.73943 0.02697 0.93396 0.0
H957 H 0.82631 0.0622 0.92399 0.0
C958 C 0.96846 0.23467 0.85385 0.0
C959 C 0.00466 0.23068 0.84166 0.0
C960 C 0.95689 0.21902 0.87658 0.0
C961 C 0.98058 0.19815 0.88839 0.0
C962 C 0.01599 0.19315 0.87593 0.0
C963 C 0.02813 0.20953 0.85335 0.0
C964 C 0.96775 0.18132 0.91322 0.0
C965 C 0.9185 0.15724 0.92042 0.0
C966 C 0.00326 0.18879 0.9301 0.0
C967 C 0.05631 0.21639 0.92533 0.0
C968 C 0.08528 0.19519 0.92887 0.0
C969 C 0.13521 0.22094 0.92412 0.0
C970 C 0.15678 0.26823 0.91618 0.0
C971 C 0.12842 0.28986 0.91295 0.0
C972 C 0.07839 0.26416 0.91754 0.0
C973 C 0.87639 0.07136 1.01379 0.0
C974 C 0.90363 0.10304 1.03175 0.0
C975 C 0.8878 0.0851 0.99075 0.0
C976 C 0.92688 0.13126 0.98452 0.0
C977 C 0.95432 0.16236 1.00254 0.0
C978 C 0.943 0.14875 1.0254 0.0
C979 C 0.93967 0.14755 0.9597 0.0
C980 C -0.01111 0.1717 0.95255 0.0
C981 C 0.90431 0.14112 0.94303 0.0
C982 C 0.85213 0.11992 0.94892 0.0
C983 C 0.83793 0.14094 0.96602 0.0
C984 C 0.78865 0.12063 0.97161 0.0
C985 C 0.7532 0.07954 0.96008 0.0
C986 C 0.76694 0.05875 0.9429 0.0
C987 C 0.81619 0.07888 0.93726 0.0
H988 H 0.71507 0.06386 0.96443 0.0
H989 H 0.19548 0.28815 0.91259 0.0
H990 H 0.93123 0.09583 0.18807 0.0
H991 H 0.93696 0.07375 0.22695 0.0
H992 H 0.87057 0.92422 0.20655 0.0
H993 H 0.86582 0.94642 0.16756 0.0
H994 H 0.88169 0.02801 0.25898 0.0
H995 H 0.89627 0.85748 0.24173 0.0
H996 H 0.9297 0.82716 0.21247 0.0
H997 H 0.03381 0.97294 0.19411 0.0
H998 H 0.00121 0.00404 0.22336 0.0
H999 H 0.86147 0.9297 0.36989 0.0
H1000 H 0.85245 0.94698 0.33102 0.0
H1001 H 0.97755 0.935 0.31277 0.0
H1002 H -0.01783 0.91134 0.35136 0.0
H1003 H 0.93826 0.9142 0.27849 0.0
H1004 H 0.96001 0.07959 0.30434 0.0
H1005 H 0.9395 0.13388 0.32524 0.0
H1006 H 0.78807 0.02407 0.32477 0.0
H1007 H 0.8072 0.97099 0.30182 0.0
C1008 C 0.91796 0.05814 0.19168 0.0
C1009 C 0.89815 0.02328 0.17402 0.0
C1010 C 0.92111 0.0453 0.21428 0.0
C1011 C 0.90485 -0.00307 0.22051 0.0
C1012 C 0.88472 0.96201 0.20286 0.0
C1013 C 0.88164 0.97486 0.18024 0.0
C1014 C 0.90814 0.98335 0.24523 0.0
C1015 C 0.8942 0.00306 0.26309 0.0
C1016 C 0.92523 0.95156 0.25159 0.0
C1017 C 0.9459 0.933 0.23453 0.0
C1018 C 0.92644 0.88301 0.23152 0.0
C1019 C 0.9452 0.86571 0.21491 0.0
C1020 C -0.01635 0.89812 0.20134 0.0
C1021 C 0.00383 0.94788 0.20453 0.0
C1022 C -0.0148 0.96534 0.22109 0.0
C1023 C 0.88708 0.93048 0.35762 0.0
C1024 C 0.92281 0.91909 0.36445 0.0
C1025 C 0.88274 0.942 0.33492 0.0
C1026 C 0.91546 0.94536 0.31775 0.0
C1027 C 0.95101 0.93332 0.32471 0.0
C1028 C 0.95396 0.9197 0.34725 0.0
C1029 C 0.91196 0.95912 0.29284 0.0
C1030 C 0.92584 0.93928 0.27471 0.0
C1031 C 0.89637 -0.00772 0.28622 0.0
C1032 C 0.88534 0.02043 0.30251 0.0
C1033 C 0.92254 0.06667 0.30919 0.0
C1034 C 0.91107 0.09752 0.32105 0.0
C1035 C 0.86281 0.08188 0.32706 0.0
C1036 C 0.82557 0.03588 0.32047 0.0
C1037 C 0.83658 0.00571 0.30771 0.0
H1038 H 0.8542 0.10569 0.3365 0.0
H1039 H -0.00214 0.88475 0.18834 0.0
H1040 H 0.93496 0.92301 0.52374 0.0
H1041 H 0.96062 0.92715 0.56307 0.0
H1042 H 0.07512 0.90089 0.54175 0.0
H1043 H 0.04823 0.89494 0.50249 0.0
H1044 H 0.05005 0.85807 0.57773 0.0
H1045 H 0.08402 0.01829 0.56374 0.0
H1046 H 0.0727 0.08704 0.55473 0.0
H1047 H 0.971 0.0494 0.60907 0.0
H1048 H 0.9808 0.97979 0.61812 0.0
H1049 H 0.1745 0.92659 0.6875 0.0
H1050 H 0.15187 0.92354 0.64745 0.0
H1051 H 0.01867 0.91839 0.66696 0.0
H1052 H 0.04057 0.92079 0.70662 0.0
H1053 H 0.05686 0.97929 0.63231 0.0
H1054 H 0.02291 0.8171 0.64497 0.0
H1055 H 0.04331 0.7553 0.65616 0.0
H1056 H 0.15393 0.80465 0.6053 0.0
H1057 H 0.13465 0.86722 0.59402 0.0
C1058 C 0.96571 0.9181 0.52725 0.0
C1059 C -0.01092 0.9086 0.5092 0.0
C1060 C 0.981 0.92101 0.55015 0.0
C1061 C 0.02115 0.91543 0.55638 0.0
C1062 C 0.04422 0.90557 0.53829 0.0
C1063 C 0.02867 0.90224 0.51542 0.0
C1064 C 0.03824 0.9185 0.58132 0.0
C1065 C 0.05196 0.88534 0.58932 0.0
C1066 C 0.04077 0.95307 0.59761 0.0
C1067 C 0.03244 -0.00688 0.59131 0.0
C1068 C 0.05851 0.02406 0.5735 0.0
C1069 C 0.0525 0.06334 0.56844 0.0
C1070 C 0.02092 0.0724 0.58123 0.0
C1071 C -0.0048 0.04216 0.59908 0.0
C1072 C 0.00088 0.00271 0.60414 0.0
C1073 C 0.14005 0.92418 0.68338 0.0
C1074 C 0.10947 0.92329 0.70099 0.0
C1075 C 0.12693 0.92246 0.66018 0.0
C1076 C 0.08287 0.92033 0.65342 0.0
C1077 C 0.05273 0.91989 0.67103 0.0
C1078 C 0.0654 0.9209 0.69408 0.0
C1079 C 0.06794 0.91884 0.62841 0.0
C1080 C 0.05469 0.95219 0.62051 0.0
C1081 C 0.06633 0.88496 0.61219 0.0
C1082 C 0.07767 0.84715 0.6188 0.0
C1083 C 0.05182 0.81499 0.63628 0.0
C1084 C 0.06314 0.77979 0.64262 0.0
C1085 C 0.09998 0.77614 0.63149 0.0
C1086 C 0.12546 0.80757 0.61393 0.0
C1087 C 0.11433 0.84289 0.60755 0.0
H1088 H 0.1087 0.74887 0.63643 0.0
H1089 H 0.01656 0.103 0.57736 0.0
H1090 H 0.11804 0.98064 0.85477 0.0
H1091 H 0.13968 0.0107 0.89352 0.0
H1092 H 0.2897 0.05292 0.8807 0.0
H1093 H 0.26841 0.02606 0.84134 0.0
H1094 H 0.29881 0.11383 0.90799 0.0
H1095 H 0.10903 0.00205 0.9475 0.0
H1096 H 0.0326 0.92444 0.94098 0.0
H1097 H 0.11343 0.86476 0.9103 0.0
H1098 H 0.19026 0.94207 0.91637 0.0
H1099 H 0.33094 0.20245 1.02321 0.0
H1100 H 0.30635 0.17899 0.98377 0.0
H1101 H 0.24561 0.02908 1.00105 0.0
H1102 H 0.26643 0.05243 1.04053 0.0
H1103 H 0.19166 0.02228 0.97142 0.0
H1104 H 0.36809 0.11707 0.9672 0.0
H1105 H 0.44902 0.19 0.9729 0.0
H1106 H 0.40351 0.27328 0.93416 0.0
H1107 H 0.32222 0.20088 0.92838 0.0
C1108 C 0.15577 -0.00374 0.86008 0.0
C1109 C 0.19108 0.00022 0.84432 0.0
C1110 C 0.16833 0.01321 0.88276 0.0
C1111 C 0.21668 0.03348 0.89133 0.0
C1112 C 0.25203 0.03775 0.87542 0.0
C1113 C 0.23966 0.02193 0.85255 0.0
C1114 C 0.23056 0.05048 0.91634 0.0
C1115 C 0.27497 0.09332 0.92169 0.0
C1116 C 0.20097 0.02497 0.9352 0.0
C1117 C 0.15527 0.97795 0.93219 0.0
C1118 C 0.11049 0.97227 0.93947 0.0
C1119 C 0.06713 0.9284 0.93583 0.0
C1120 C 0.06819 0.88976 0.92527 0.0
C1121 C 0.11265 0.89478 0.91842 0.0
C1122 C 0.15609 0.93864 0.92188 0.0
C1123 C 0.31289 0.16447 1.01864 0.0
C1124 C 0.30172 0.12978 1.03564 0.0
C1125 C 0.29886 0.1507 0.99564 0.0
C1126 C 0.27471 0.10157 0.9882 0.0
C1127 C 0.26388 0.06719 1.00536 0.0
C1128 C 0.27651 0.08083 1.02834 0.0
C1129 C 0.26025 0.08544 0.96313 0.0
C1130 C 0.2156 0.0428 0.95776 0.0
C1131 C 0.29019 0.11045 0.9443 0.0
C1132 C 0.33907 0.15373 0.94752 0.0
C1133 C 0.37537 0.15099 0.95995 0.0
C1134 C 0.42127 0.19221 0.9632 0.0
C1135 C 0.43136 0.23626 0.95394 0.0
C1136 C 0.39563 0.23915 0.94134 0.0
C1137 C 0.34968 0.19803 0.93804 0.0
H1138 H 0.46688 0.26814 0.9565 0.0
H1139 H 0.03454 0.85598 0.92234 0.0
loop_
_geom_bond_atom_site_label_1
_geom_bond_atom_site_label_2
_geom_bond_distance
_geom_bond_site_symmetry_2
_ccdc_geom_bond_type
Eu0 C9 2.828 . S
Eu0 O11 2.392 1_554 S
Eu0 O13 2.418 . S
Eu0 O18 2.373 . S
Eu0 O21 2.488 . S
Eu0 O22 2.471 . S
Eu0 O23 2.349 . S
Eu1 O10 2.373 . S
Eu1 O14 2.488 . S
Eu1 O15 2.471 . S
Eu1 O16 2.349 1_556 S
Eu1 O19 2.392 1_556 S
Eu1 O20 2.418 . S
Eu1 C30 2.828 . S
C2 O20 1.244 1_554 S
C2 O23 1.265 . S
C3 C4 1.379 . S
C3 C7 1.373 . S
C3 C9 1.505 . S
C4 C3 1.379 . S
C4 C6 1.369 . S
C4 H32 0.930 . S
C5 C7 1.383 . S
C5 C8 1.382 . S
C5 H33 0.930 . S
C6 C4 1.369 . S
C6 C8 1.392 . S
C6 H34 0.930 . S
C7 C3 1.373 . S
C7 C5 1.383 . S
C7 H35 0.931 . S
C8 C5 1.382 . S
C8 C6 1.392 . S
C9 Eu0 2.828 . S
C9 C3 1.505 . S
C9 O21 1.249 . S
C9 O22 1.244 . S
O10 Eu1 2.373 . S
O10 C12 1.258 . S
O11 Eu0 2.392 1_556 S
O11 C12 1.242 . S
C12 O10 1.258 . S
C12 O11 1.242 . S
O13 Eu0 2.418 . S
O13 C17 1.244 . S
O14 Eu1 2.488 . S
O14 C30 1.249 . S
O15 Eu1 2.471 . S
O15 C30 1.244 . S
O16 Eu1 2.349 1_554 S
O16 C17 1.265 . S
C17 O13 1.244 . S
C17 O16 1.265 . S
O18 Eu0 2.373 . S
O18 C31 1.258 . S
O19 Eu1 2.392 1_554 S
O19 C31 1.242 . S
O20 Eu1 2.418 . S
O20 C2 1.244 1_556 S
O21 Eu0 2.488 . S
O21 C9 1.249 . S
O22 Eu0 2.471 . S
O22 C9 1.244 . S
O23 Eu0 2.349 . S
O23 C2 1.265 . S
C24 C25 1.379 . S
C24 C28 1.373 . S
C24 C30 1.505 . S
C25 C24 1.379 . S
C25 C27 1.369 . S
C25 H36 0.930 . S
C26 C28 1.383 . S
C26 C29 1.382 . S
C26 H37 0.930 . S
C27 C25 1.369 . S
C27 C29 1.392 . S
C27 H38 0.930 . S
C28 C24 1.373 . S
C28 C26 1.383 . S
C28 H39 0.931 . S
C29 C26 1.382 . S
C29 C27 1.392 . S
C30 Eu1 2.828 . S
C30 O14 1.249 . S
C30 O15 1.244 . S
C30 C24 1.505 . S
C31 O18 1.258 . S
C31 O19 1.242 . S
H32 C4 0.930 . S
H33 C5 0.930 . S
H34 C6 0.930 . S
H35 C7 0.931 . S
H36 C25 0.930 . S
H37 C26 0.930 . S
H38 C27 0.930 . S
H39 C28 0.931 . S
Eu40 C49 2.828 . S
Eu40 O51 2.392 . S
Eu40 O53 2.418 . S
Eu40 O58 2.373 . S
Eu40 O61 2.488 . S
Eu40 O62 2.471 . S
Eu40 O63 2.349 . S
Eu41 O50 2.373 . S
Eu41 O54 2.488 . S
Eu41 O55 2.471 . S
Eu41 O56 2.349 . S
Eu41 O59 2.392 . S
Eu41 O60 2.418 . S
Eu41 C70 2.828 . S
C42 O60 1.244 . S
C42 O63 1.265 . S
C43 C44 1.379 . S
C43 C47 1.373 . S
C43 C49 1.505 . S
C44 C43 1.379 . S
C44 C46 1.369 . S
C44 H72 0.930 . S
C45 C47 1.383 . S
C45 C48 1.382 . S
C45 H73 0.930 . S
C46 C44 1.369 . S
C46 C48 1.392 . S
C46 H74 0.930 . S
C47 C43 1.373 . S
C47 C45 1.383 . S
C47 H75 0.931 . S
C48 C45 1.382 . S
C48 C46 1.392 . S
C49 Eu40 2.828 . S
C49 C43 1.505 . S
C49 O61 1.249 . S
C49 O62 1.244 . S
O50 Eu41 2.373 . S
O50 C52 1.258 . S
O51 Eu40 2.392 . S
O51 C52 1.242 . S
C52 O50 1.258 . S
C52 O51 1.242 . S
O53 Eu40 2.418 . S
O53 C57 1.244 . S
O54 Eu41 2.488 . S
O54 C70 1.249 . S
O55 Eu41 2.471 . S
O55 C70 1.244 . S
O56 Eu41 2.349 . S
O56 C57 1.265 . S
C57 O53 1.244 . S
C57 O56 1.265 . S
O58 Eu40 2.373 . S
O58 C71 1.258 . S
O59 Eu41 2.392 . S
O59 C71 1.242 . S
O60 Eu41 2.418 . S
O60 C42 1.244 . S
O61 Eu40 2.488 . S
O61 C49 1.249 . S
O62 Eu40 2.471 . S
O62 C49 1.244 . S
O63 Eu40 2.349 . S
O63 C42 1.265 . S
C64 C65 1.379 . S
C64 C68 1.373 . S
C64 C70 1.505 . S
C65 C64 1.379 . S
C65 C67 1.369 . S
C65 H76 0.930 . S
C66 C68 1.383 . S
C66 C69 1.382 . S
C66 H77 0.930 . S
C67 C65 1.369 . S
C67 C69 1.392 . S
C67 H78 0.930 . S
C68 C64 1.373 . S
C68 C66 1.383 . S
C68 H79 0.931 . S
C69 C66 1.382 . S
C69 C67 1.392 . S
C70 Eu41 2.828 . S
C70 O54 1.249 . S
C70 O55 1.244 . S
C70 C64 1.505 . S
C71 O58 1.258 . S
C71 O59 1.242 . S
H72 C44 0.930 . S
H73 C45 0.930 . S
H74 C46 0.930 . S
H75 C47 0.931 . S
H76 C65 0.930 . S
H77 C66 0.930 . S
H78 C67 0.930 . S
H79 C68 0.931 . S
Eu80 C89 2.828 . S
Eu80 O91 2.392 . S
Eu80 O93 2.418 . S
Eu80 O98 2.373 . S
Eu80 O101 2.488 . S
Eu80 O102 2.471 . S
Eu80 O103 2.349 . S
Eu81 O90 2.373 1_655 S
Eu81 O94 2.488 . S
Eu81 O95 2.471 . S
Eu81 O96 2.349 . S
Eu81 O99 2.392 . S
Eu81 O100 2.418 . S
Eu81 C110 2.828 . S
C82 O100 1.244 . S
C82 O103 1.265 1_655 S
C83 C84 1.379 . S
C83 C87 1.373 . S
C83 C89 1.505 . S
C84 C83 1.379 . S
C84 C86 1.369 . S
C84 H112 0.930 . S
C85 C87 1.383 . S
C85 C88 1.382 . S
C85 H113 0.930 . S
C86 C84 1.369 . S
C86 C88 1.392 . S
C86 H114 0.930 . S
C87 C83 1.373 . S
C87 C85 1.383 . S
C87 H115 0.931 . S
C88 C85 1.382 . S
C88 C86 1.392 . S
C89 Eu80 2.828 . S
C89 C83 1.505 . S
C89 O101 1.249 . S
C89 O102 1.244 . S
O90 Eu81 2.373 1_455 S
O90 C92 1.258 . S
O91 Eu80 2.392 . S
O91 C92 1.242 . S
C92 O90 1.258 . S
C92 O91 1.242 . S
O93 Eu80 2.418 . S
O93 C97 1.244 . S
O94 Eu81 2.488 . S
O94 C110 1.249 . S
O95 Eu81 2.471 . S
O95 C110 1.244 . S
O96 Eu81 2.349 . S
O96 C97 1.265 1_655 S
C97 O93 1.244 . S
C97 O96 1.265 1_455 S
O98 Eu80 2.373 . S
O98 C111 1.258 1_455 S
O99 Eu81 2.392 . S
O99 C111 1.242 . S
O100 Eu81 2.418 . S
O100 C82 1.244 . S
O101 Eu80 2.488 . S
O101 C89 1.249 . S
O102 Eu80 2.471 . S
O102 C89 1.244 . S
O103 Eu80 2.349 . S
O103 C82 1.265 1_455 S
C104 C105 1.379 . S
C104 C108 1.373 . S
C104 C110 1.505 . S
C105 C104 1.379 . S
C105 C107 1.369 . S
C105 H116 0.930 . S
C106 C108 1.383 . S
C106 C109 1.382 . S
C106 H117 0.930 . S
C107 C105 1.369 . S
C107 C109 1.392 . S
C107 H118 0.930 . S
C108 C104 1.373 . S
C108 C106 1.383 . S
C108 H119 0.931 . S
C109 C106 1.382 . S
C109 C107 1.392 . S
C110 Eu81 2.828 . S
C110 O94 1.249 . S
C110 O95 1.244 . S
C110 C104 1.505 . S
C111 O98 1.258 1_655 S
C111 O99 1.242 . S
H112 C84 0.930 . S
H113 C85 0.930 . S
H114 C86 0.930 . S
H115 C87 0.931 . S
H116 C105 0.930 . S
H117 C106 0.930 . S
H118 C107 0.930 . S
H119 C108 0.931 . S
Eu120 C129 2.828 . S
Eu120 O131 2.392 1_554 S
Eu120 O133 2.418 . S
Eu120 O138 2.373 . S
Eu120 O141 2.488 . S
Eu120 O142 2.471 . S
Eu120 O143 2.349 . S
Eu121 O130 2.373 1_565 S
Eu121 O134 2.488 . S
Eu121 O135 2.471 . S
Eu121 O136 2.349 1_566 S
Eu121 O139 2.392 1_556 S
Eu121 O140 2.418 . S
Eu121 C150 2.828 . S
C122 O140 1.244 1_554 S
C122 O143 1.265 1_565 S
C123 C124 1.379 . S
C123 C127 1.373 . S
C123 C129 1.505 . S
C124 C123 1.379 . S
C124 C126 1.369 . S
C124 H152 0.930 . S
C125 C127 1.383 . S
C125 C128 1.382 . S
C125 H153 0.930 . S
C126 C124 1.369 . S
C126 C128 1.392 . S
C126 H154 0.930 . S
C127 C123 1.373 . S
C127 C125 1.383 . S
C127 H155 0.931 . S
C128 C125 1.382 . S
C128 C126 1.392 . S
C129 Eu120 2.828 . S
C129 C123 1.505 . S
C129 O141 1.249 . S
C129 O142 1.244 . S
O130 Eu121 2.373 1_545 S
O130 C132 1.258 . S
O131 Eu120 2.392 1_556 S
O131 C132 1.242 . S
C132 O130 1.258 . S
C132 O131 1.242 . S
O133 Eu120 2.418 . S
O133 C137 1.244 . S
O134 Eu121 2.488 . S
O134 C150 1.249 . S
O135 Eu121 2.471 . S
O135 C150 1.244 . S
O136 Eu121 2.349 1_544 S
O136 C137 1.265 . S
C137 O133 1.244 . S
C137 O136 1.265 . S
O138 Eu120 2.373 . S
O138 C151 1.258 1_545 S
O139 Eu121 2.392 1_554 S
O139 C151 1.242 . S
O140 Eu121 2.418 . S
O140 C122 1.244 1_556 S
O141 Eu120 2.488 . S
O141 C129 1.249 . S
O142 Eu120 2.471 . S
O142 C129 1.244 . S
O143 Eu120 2.349 . S
O143 C122 1.265 1_545 S
C144 C145 1.379 . S
C144 C148 1.373 . S
C144 C150 1.505 . S
C145 C144 1.379 . S
C145 C147 1.369 . S
C145 H156 0.930 . S
C146 C148 1.383 . S
C146 C149 1.382 . S
C146 H157 0.930 . S
C147 C145 1.369 . S
C147 C149 1.392 . S
C147 H158 0.930 . S
C148 C144 1.373 . S
C148 C146 1.383 . S
C148 H159 0.931 . S
C149 C146 1.382 . S
C149 C147 1.392 . S
C150 Eu121 2.828 . S
C150 O134 1.249 . S
C150 O135 1.244 . S
C150 C144 1.505 . S
C151 O138 1.258 1_565 S
C151 O139 1.242 . S
H152 C124 0.930 . S
H153 C125 0.930 . S
H154 C126 0.930 . S
H155 C127 0.931 . S
H156 C145 0.930 . S
H157 C146 0.930 . S
H158 C147 0.930 . S
H159 C148 0.931 . S
Eu160 C169 2.828 . S
Eu160 O171 2.392 . S
Eu160 O173 2.418 1_655 S
Eu160 O178 2.373 . S
Eu160 O181 2.488 . S
Eu160 O182 2.471 . S
Eu160 O183 2.349 . S
Eu161 O170 2.373 . S
Eu161 O174 2.488 . S
Eu161 O175 2.471 1_655 S
Eu161 O176 2.349 1_655 S
Eu161 O179 2.392 . S
Eu161 O180 2.418 . S
Eu161 C190 2.828 1_655 S
C162 O180 1.244 . S
C162 O183 1.265 . S
C163 C164 1.379 . S
C163 C167 1.373 . S
C163 C169 1.505 . S
C164 C163 1.379 . S
C164 C166 1.369 . S
C164 H192 0.930 . S
C165 C167 1.383 . S
C165 C168 1.382 . S
C165 H193 0.930 . S
C166 C164 1.369 . S
C166 C168 1.392 . S
C166 H194 0.930 . S
C167 C163 1.373 . S
C167 C165 1.383 . S
C167 H195 0.931 . S
C168 C165 1.382 . S
C168 C166 1.392 . S
C169 Eu160 2.828 . S
C169 C163 1.505 . S
C169 O181 1.249 . S
C169 O182 1.244 . S
O170 Eu161 2.373 . S
O170 C172 1.258 . S
O171 Eu160 2.392 . S
O171 C172 1.242 . S
C172 O170 1.258 . S
C172 O171 1.242 . S
O173 Eu160 2.418 1_455 S
O173 C177 1.244 . S
O174 Eu161 2.488 . S
O174 C190 1.249 1_655 S
O175 Eu161 2.471 1_455 S
O175 C190 1.244 . S
O176 Eu161 2.349 1_455 S
O176 C177 1.265 . S
C177 O173 1.244 . S
C177 O176 1.265 . S
O178 Eu160 2.373 . S
O178 C191 1.258 . S
O179 Eu161 2.392 . S
O179 C191 1.242 . S
O180 Eu161 2.418 . S
O180 C162 1.244 . S
O181 Eu160 2.488 . S
O181 C169 1.249 . S
O182 Eu160 2.471 . S
O182 C169 1.244 . S
O183 Eu160 2.349 . S
O183 C162 1.265 . S
C184 C185 1.379 . S
C184 C188 1.373 . S
C184 C190 1.505 . S
C185 C184 1.379 . S
C185 C187 1.369 . S
C185 H196 0.930 . S
C186 C188 1.383 . S
C186 C189 1.382 . S
C186 H197 0.930 . S
C187 C185 1.369 . S
C187 C189 1.392 . S
C187 H198 0.930 . S
C188 C184 1.373 . S
C188 C186 1.383 . S
C188 H199 0.931 . S
C189 C186 1.382 . S
C189 C187 1.392 . S
C190 Eu161 2.828 1_455 S
C190 O174 1.249 1_455 S
C190 O175 1.244 . S
C190 C184 1.505 . S
C191 O178 1.258 . S
C191 O179 1.242 . S
H192 C164 0.930 . S
H193 C165 0.930 . S
H194 C166 0.930 . S
H195 C167 0.931 . S
H196 C185 0.930 . S
H197 C186 0.930 . S
H198 C187 0.930 . S
H199 C188 0.931 . S
Eu200 C209 2.828 . S
Eu200 O211 2.392 . S
Eu200 O213 2.418 1_565 S
Eu200 O218 2.373 . S
Eu200 O221 2.488 . S
Eu200 O222 2.471 . S
Eu200 O223 2.349 . S
Eu201 O210 2.373 . S
Eu201 O214 2.483 . S
Eu201 O215 2.471 1_565 S
Eu201 O216 2.349 1_565 S
Eu201 O219 2.392 1_565 S
Eu201 O220 2.418 . S
Eu201 C230 2.828 1_565 S
C202 O220 1.244 . S
C202 O223 1.265 . S
C203 C204 1.379 . S
C203 C207 1.373 . S
C203 C209 1.505 . S
C204 C203 1.379 . S
C204 C206 1.369 . S
C204 H232 0.930 . S
C205 C207 1.383 . S
C205 C208 1.382 . S
C205 H233 0.930 . S
C206 C204 1.369 . S
C206 C208 1.392 . S
C206 H234 0.930 . S
C207 C203 1.373 . S
C207 C205 1.383 . S
C207 H235 0.931 . S
C208 C205 1.382 . S
C208 C206 1.392 . S
C209 Eu200 2.828 . S
C209 C203 1.505 . S
C209 O221 1.249 . S
C209 O222 1.244 . S
O210 Eu201 2.373 . S
O210 C212 1.258 . S
O211 Eu200 2.392 . S
O211 C212 1.242 . S
C212 O210 1.258 . S
C212 O211 1.242 . S
O213 Eu200 2.418 1_545 S
O213 C217 1.244 . S
O214 Eu201 2.483 . S
O214 C230 1.229 1_565 S
O215 Eu201 2.471 1_545 S
O215 C230 1.244 . S
O216 Eu201 2.349 1_545 S
O216 C217 1.265 . S
C217 O213 1.244 . S
C217 O216 1.265 . S
O218 Eu200 2.373 . S
O218 C231 1.258 . S
O219 Eu201 2.392 1_545 S
O219 C231 1.242 1_545 S
O220 Eu201 2.418 . S
O220 C202 1.244 . S
O221 Eu200 2.488 . S
O221 C209 1.249 . S
O222 Eu200 2.471 . S
O222 C209 1.244 . S
O223 Eu200 2.349 . S
O223 C202 1.265 . S
C224 C225 1.379 . S
C224 C228 1.373 . S
C224 C230 1.505 . S
C225 C224 1.379 . S
C225 C227 1.369 . S
C225 H236 0.930 . S
C226 C228 1.383 . S
C226 C229 1.382 . S
C226 H237 0.930 . S
C227 C225 1.369 . S
C227 C229 1.392 . S
C227 H238 0.930 . S
C228 C224 1.373 . S
C228 C226 1.383 . S
C228 H239 0.931 . S
C229 C226 1.382 . S
C229 C227 1.392 . S
C230 Eu201 2.828 1_545 S
C230 O214 1.229 1_545 S
C230 O215 1.244 . S
C230 C224 1.505 . S
C231 O218 1.258 . S
C231 O219 1.242 1_565 S
H232 C204 0.930 . S
H233 C205 0.930 . S
H234 C206 0.930 . S
H235 C207 0.931 . S
H236 C225 0.930 . S
H237 C226 0.930 . S
H238 C227 0.930 . S
H239 C228 0.931 . S
H240 C258 0.951 . S
H241 C260 0.951 1_455 S
H242 C262 0.950 . S
H243 C263 0.950 . S
H244 C265 0.950 . S
H245 C268 0.950 . S
H246 C269 0.950 1_655 S
H247 C271 0.950 . S
H248 C272 0.950 . S
H249 C273 0.951 . S
H250 C275 0.951 . S
H251 C277 0.950 . S
H252 C278 0.950 . S
H253 C280 0.950 . S
H254 C283 0.950 . S
H255 C284 0.950 . S
H256 C286 0.950 . S
H257 C287 0.950 . S
C258 H240 0.951 . S
C258 C259 1.366 . S
C258 C260 1.388 1_565 S
C259 C258 1.366 . S
C259 C263 1.385 1_564 S
C260 H241 0.951 1_655 S
C260 C258 1.388 1_545 S
C260 C261 1.366 1_655 S
C261 C260 1.366 1_455 S
C261 C262 1.414 1_454 S
C261 C264 1.499 . S
C262 H242 0.950 . S
C262 C261 1.414 1_656 S
C262 C263 1.374 . S
C263 H243 0.950 . S
C263 C259 1.385 1_546 S
C263 C262 1.374 . S
C264 C261 1.499 . S
C264 C265 1.373 1_554 S
C264 C266 1.389 . S
C265 H244 0.950 . S
C265 C264 1.373 1_556 S
C265 C281 1.377 . S
C266 C264 1.389 . S
C266 C267 1.524 . S
C266 C280 1.377 . S
C267 C266 1.524 . S
C267 C268 1.397 . S
C267 C272 1.363 . S
C268 H245 0.950 . S
C268 C267 1.397 . S
C268 C269 1.334 . S
C269 H246 0.950 1_455 S
C269 C268 1.334 . S
C269 C270 1.287 . S
C270 C269 1.287 . S
C270 C271 1.524 . S
C270 H289 0.913 . S
C271 H247 0.950 . S
C271 C270 1.524 . S
C271 C272 1.415 . S
C272 H248 0.950 . S
C272 C267 1.363 . S
C272 C271 1.415 . S
C273 H249 0.951 . S
C273 C274 1.366 1_556 S
C273 C275 1.388 . S
C274 C273 1.366 1_554 S
C274 C278 1.385 . S
C275 H250 0.951 . S
C275 C273 1.388 . S
C275 C276 1.366 1_556 S
C276 C275 1.366 1_554 S
C276 C277 1.414 . S
C276 C279 1.499 . S
C277 H251 0.950 . S
C277 C276 1.414 . S
C277 C278 1.374 . S
C278 H252 0.950 . S
C278 C274 1.385 . S
C278 C277 1.374 . S
C279 C276 1.499 . S
C279 C280 1.373 . S
C279 C281 1.389 1_554 S
C280 H253 0.950 . S
C280 C266 1.377 . S
C280 C279 1.373 . S
C281 C265 1.377 . S
C281 C279 1.389 1_556 S
C281 C282 1.524 . S
C282 C281 1.524 . S
C282 C283 1.397 . S
C282 C287 1.363 . S
C283 H254 0.950 . S
C283 C282 1.397 . S
C283 C284 1.334 . S
C284 H255 0.950 . S
C284 C283 1.334 . S
C284 C285 1.287 . S
C285 C284 1.287 . S
C285 C286 1.524 . S
C285 H288 0.999 . S
C286 H256 0.950 . S
C286 C285 1.524 . S
C286 C287 1.415 . S
C287 H257 0.950 . S
C287 C282 1.363 . S
C287 C286 1.415 . S
H288 C285 0.999 . S
H289 C270 0.913 . S
H290 C308 0.951 . S
H291 C310 0.955 . S
H292 C312 0.950 . S
H293 C313 0.950 1_655 S
H294 C315 0.950 . S
H295 C318 0.950 . S
H296 C319 0.950 . S
H297 C321 0.950 . S
H298 C322 0.950 . S
H299 C323 0.951 . S
H300 C325 0.951 . S
H301 C327 0.950 . S
H302 C328 0.950 . S
H303 C330 0.950 . S
H304 C333 0.950 . S
H305 C334 0.950 . S
H306 C336 0.950 . S
H307 C337 0.950 . S
C308 H290 0.951 . S
C308 C309 1.366 . S
C308 C310 1.364 1_565 S
C309 C308 1.366 . S
C309 C313 1.385 . S
C310 H291 0.955 . S
C310 C308 1.364 1_545 S
C310 C311 1.385 . S
C311 C310 1.385 . S
C311 C312 1.414 1_545 S
C311 C314 1.499 . S
C312 H292 0.950 . S
C312 C311 1.414 1_565 S
C312 C313 1.374 . S
C313 H293 0.950 1_455 S
C313 C309 1.385 . S
C313 C312 1.374 . S
C314 C311 1.499 . S
C314 C315 1.373 . S
C314 C316 1.389 . S
C315 H294 0.950 . S
C315 C314 1.373 . S
C315 C331 1.377 . S
C316 C314 1.389 . S
C316 C317 1.524 . S
C316 C330 1.377 . S
C317 C316 1.524 . S
C317 C318 1.397 . S
C317 C322 1.363 . S
C318 H295 0.950 . S
C318 C317 1.397 . S
C318 C319 1.334 . S
C319 H296 0.950 . S
C319 C318 1.334 . S
C319 C320 1.287 . S
C320 C319 1.287 . S
C320 C321 1.524 . S
C320 H339 0.913 . S
C321 H297 0.950 . S
C321 C320 1.524 . S
C321 C322 1.415 . S
C322 H298 0.950 . S
C322 C317 1.363 . S
C322 C321 1.415 . S
C323 H299 0.951 . S
C323 C324 1.366 . S
C323 C325 1.388 . S
C324 C323 1.366 . S
C324 C328 1.385 . S
C325 H300 0.951 . S
C325 C323 1.388 . S
C325 C326 1.366 . S
C326 C325 1.366 . S
C326 C327 1.414 . S
C326 C329 1.499 . S
C327 H301 0.950 . S
C327 C326 1.414 . S
C327 C328 1.374 . S
C328 H302 0.950 . S
C328 C324 1.385 . S
C328 C327 1.374 . S
C329 C326 1.499 . S
C329 C330 1.373 . S
C329 C331 1.389 . S
C330 H303 0.950 . S
C330 C316 1.377 . S
C330 C329 1.373 . S
C331 C315 1.377 . S
C331 C329 1.389 . S
C331 C332 1.524 . S
C332 C331 1.524 . S
C332 C333 1.397 . S
C332 C337 1.363 . S
C333 H304 0.950 . S
C333 C332 1.397 . S
C333 C334 1.334 . S
C334 H305 0.950 . S
C334 C333 1.334 . S
C334 C335 1.287 . S
C335 C334 1.287 . S
C335 C336 1.524 . S
C335 H338 0.999 . S
C336 H306 0.950 . S
C336 C335 1.524 . S
C336 C337 1.415 . S
C337 H307 0.950 . S
C337 C332 1.363 . S
C337 C336 1.415 . S
H338 C335 0.999 . S
H339 C320 0.913 . S
H340 C358 0.951 1_565 S
H341 C360 0.951 . S
H342 C362 0.950 . S
H343 C363 0.950 . S
H344 C365 0.950 . S
H345 C368 0.950 . S
H346 C369 0.950 . S
H347 C371 0.950 . S
H348 C372 0.950 . S
H349 C373 0.951 . S
H350 C375 0.951 . S
H351 C377 0.950 . S
H352 C378 0.950 . S
H353 C380 0.950 . S
H354 C383 0.950 . S
H355 C384 0.950 . S
H356 C386 0.950 . S
H357 C387 0.950 . S
C358 H340 0.951 1_545 S
C358 C359 1.366 . S
C358 C360 1.388 . S
C359 C358 1.366 . S
C359 C363 1.385 . S
C360 H341 0.951 . S
C360 C358 1.388 . S
C360 C361 1.366 . S
C361 C360 1.366 . S
C361 C362 1.414 . S
C361 C364 1.499 . S
C362 H342 0.950 . S
C362 C361 1.414 . S
C362 C363 1.374 . S
C363 H343 0.950 . S
C363 C359 1.385 . S
C363 C362 1.374 . S
C364 C361 1.499 . S
C364 C365 1.373 . S
C364 C366 1.389 . S
C365 H344 0.950 . S
C365 C364 1.373 . S
C365 C381 1.377 . S
C366 C364 1.389 . S
C366 C367 1.524 . S
C366 C380 1.377 . S
C367 C366 1.524 . S
C367 C368 1.397 . S
C367 C372 1.363 . S
C368 H345 0.950 . S
C368 C367 1.397 . S
C368 C369 1.334 . S
C369 H346 0.950 . S
C369 C368 1.334 . S
C369 C370 1.287 1_545 S
C370 C369 1.287 1_565 S
C370 C371 1.524 . S
C370 H389 0.913 . S
C371 H347 0.950 . S
C371 C370 1.524 . S
C371 C372 1.415 1_565 S
C372 H348 0.950 . S
C372 C367 1.363 . S
C372 C371 1.415 1_545 S
C373 H349 0.951 . S
C373 C374 1.366 1_455 S
C373 C375 1.388 . S
C374 C373 1.366 1_655 S
C374 C378 1.385 . S
C375 H350 0.951 . S
C375 C373 1.388 . S
C375 C376 1.366 . S
C376 C375 1.366 . S
C376 C377 1.414 1_455 S
C376 C379 1.499 . S
C377 H351 0.950 . S
C377 C376 1.414 1_655 S
C377 C378 1.374 . S
C378 H352 0.950 . S
C378 C374 1.385 . S
C378 C377 1.374 . S
C379 C376 1.499 . S
C379 C380 1.373 . S
C379 C381 1.389 . S
C380 H353 0.950 . S
C380 C366 1.377 . S
C380 C379 1.373 . S
C381 C365 1.377 . S
C381 C379 1.389 . S
C381 C382 1.524 . S
C382 C381 1.524 . S
C382 C383 1.397 . S
C382 C387 1.363 . S
C383 H354 0.950 . S
C383 C382 1.397 . S
C383 C384 1.334 . S
C384 H355 0.950 . S
C384 C383 1.334 . S
C384 C385 1.287 . S
C385 C384 1.287 . S
C385 C386 1.524 . S
C385 H388 0.999 . S
C386 H356 0.950 . S
C386 C385 1.524 . S
C386 C387 1.415 . S
C387 H357 0.950 . S
C387 C382 1.363 . S
C387 C386 1.415 . S
H388 C385 0.999 . S
H389 C370 0.913 . S
H390 C408 0.951 . S
H391 C410 0.951 . S
H392 C412 0.950 . S
H393 C413 0.950 . S
H394 C415 0.950 . S
H395 C418 0.950 . S
H396 C419 0.950 . S
H397 C421 0.950 . S
H398 C422 0.950 . S
H399 C423 0.951 . S
H400 C425 0.951 . S
H401 C427 0.950 . S
H402 C428 0.950 . S
H403 C430 0.950 . S
H404 C433 0.950 . S
H405 C434 0.950 . S
H406 C436 0.950 . S
H407 C437 0.950 . S
C408 H390 0.951 . S
C408 C409 1.366 . S
C408 C410 1.388 . S
C409 C408 1.366 . S
C409 C413 1.385 . S
C410 H391 0.951 . S
C410 C408 1.388 . S
C410 C411 1.366 . S
C411 C410 1.366 . S
C411 C412 1.414 . S
C411 C414 1.499 . S
C412 H392 0.950 . S
C412 C411 1.414 . S
C412 C413 1.374 . S
C413 H393 0.950 . S
C413 C409 1.385 . S
C413 C412 1.374 . S
C414 C411 1.499 . S
C414 C415 1.373 . S
C414 C416 1.389 . S
C415 H394 0.950 . S
C415 C414 1.373 . S
C415 C431 1.377 . S
C416 C414 1.389 . S
C416 C417 1.524 . S
C416 C430 1.377 . S
C417 C416 1.524 . S
C417 C418 1.397 . S
C417 C422 1.363 . S
C418 H395 0.950 . S
C418 C417 1.397 . S
C418 C419 1.334 . S
C419 H396 0.950 . S
C419 C418 1.334 . S
C419 C420 1.287 . S
C420 C419 1.287 . S
C420 C421 1.524 . S
C420 H439 0.913 . S
C421 H397 0.950 . S
C421 C420 1.524 . S
C421 C422 1.415 . S
C422 H398 0.950 . S
C422 C417 1.363 . S
C422 C421 1.415 . S
C423 H399 0.951 . S
C423 C424 1.366 . S
C423 C425 1.388 . S
C424 C423 1.366 . S
C424 C428 1.385 . S
C425 H400 0.951 . S
C425 C423 1.388 . S
C425 C426 1.366 . S
C426 C425 1.366 . S
C426 C427 1.414 . S
C426 C429 1.499 . S
C427 H401 0.950 . S
C427 C426 1.414 . S
C427 C428 1.374 . S
C428 H402 0.950 . S
C428 C424 1.385 . S
C428 C427 1.374 . S
C429 C426 1.499 . S
C429 C430 1.373 . S
C429 C431 1.389 . S
C430 H403 0.950 . S
C430 C416 1.377 . S
C430 C429 1.373 . S
C431 C415 1.377 . S
C431 C429 1.389 . S
C431 C432 1.524 . S
C432 C431 1.524 . S
C432 C433 1.397 . S
C432 C437 1.363 . S
C433 H404 0.950 . S
C433 C432 1.397 . S
C433 C434 1.334 . S
C434 H405 0.950 . S
C434 C433 1.334 . S
C434 C435 1.287 . S
C435 C434 1.287 . S
C435 C436 1.524 . S
C435 H438 0.999 . S
C436 H406 0.950 . S
C436 C435 1.524 . S
C436 C437 1.415 . S
C437 H407 0.950 . S
C437 C432 1.363 . S
C437 C436 1.415 . S
H438 C435 0.999 . S
H439 C420 0.913 . S
H440 C458 0.951 . S
H441 C460 0.951 . S
H442 C462 0.950 . S
H443 C463 0.950 . S
H444 C465 0.950 . S
H445 C468 0.950 . S
H446 C469 0.950 . S
H447 C471 0.950 . S
H448 C472 0.950 1_655 S
H449 C473 0.951 . S
H450 C475 0.951 . S
H451 C477 0.950 . S
H452 C478 0.950 . S
H453 C480 0.950 . S
H454 C483 0.950 . S
H455 C484 0.950 . S
H456 C486 0.950 . S
H457 C487 0.950 . S
C458 H440 0.951 . S
C458 C459 1.366 . S
C458 C460 1.388 . S
C459 C458 1.366 . S
C459 C463 1.385 . S
C460 H441 0.951 . S
C460 C458 1.388 . S
C460 C461 1.366 . S
C461 C460 1.366 . S
C461 C462 1.414 . S
C461 C464 1.499 . S
C462 H442 0.950 . S
C462 C461 1.414 . S
C462 C463 1.374 . S
C463 H443 0.950 . S
C463 C459 1.385 . S
C463 C462 1.374 . S
C464 C461 1.499 . S
C464 C465 1.373 . S
C464 C466 1.389 . S
C465 H444 0.950 . S
C465 C464 1.373 . S
C465 C481 1.377 . S
C466 C464 1.389 . S
C466 C467 1.524 . S
C466 C480 1.377 1_455 S
C467 C466 1.524 . S
C467 C468 1.397 . S
C467 C472 1.363 . S
C468 H445 0.950 . S
C468 C467 1.397 . S
C468 C469 1.334 . S
C469 H446 0.950 . S
C469 C468 1.334 . S
C469 C470 1.287 . S
C470 C469 1.287 . S
C470 C471 1.524 . S
C470 H489 0.913 . S
C471 H447 0.950 . S
C471 C470 1.524 . S
C471 C472 1.415 . S
C472 H448 0.950 1_455 S
C472 C467 1.363 . S
C472 C471 1.415 . S
C473 H449 0.951 . S
C473 C474 1.366 . S
C473 C475 1.388 . S
C474 C473 1.366 . S
C474 C478 1.385 . S
C475 H450 0.951 . S
C475 C473 1.388 . S
C475 C476 1.366 . S
C476 C475 1.366 . S
C476 C477 1.414 . S
C476 C479 1.499 . S
C477 H451 0.950 . S
C477 C476 1.414 . S
C477 C478 1.374 . S
C478 H452 0.950 . S
C478 C474 1.385 . S
C478 C477 1.374 . S
C479 C476 1.499 . S
C479 C480 1.373 . S
C479 C481 1.389 1_655 S
C480 H453 0.950 . S
C480 C466 1.377 1_655 S
C480 C479 1.373 . S
C481 C465 1.377 . S
C481 C479 1.389 1_455 S
C481 C482 1.524 1_455 S
C482 C481 1.524 1_655 S
C482 C483 1.397 . S
C482 C487 1.363 1_655 S
C483 H454 0.950 . S
C483 C482 1.397 . S
C483 C484 1.334 . S
C484 H455 0.950 . S
C484 C483 1.334 . S
C484 C485 1.287 . S
C485 C484 1.287 . S
C485 C486 1.524 1_655 S
C485 H488 0.999 . S
C486 H456 0.950 . S
C486 C485 1.524 1_455 S
C486 C487 1.415 . S
C487 H457 0.950 . S
C487 C482 1.363 1_455 S
C487 C486 1.415 . S
H488 C485 0.999 . S
H489 C470 0.913 . S
H490 C508 0.951 . S
H491 C510 0.951 . S
H492 C512 0.950 . S
H493 C513 0.950 . S
H494 C515 0.950 . S
H495 C518 0.950 . S
H496 C519 0.950 1_455 S
H497 C521 0.950 . S
H498 C522 0.950 . S
H499 C523 0.951 . S
H500 C525 0.951 . S
H501 C527 0.950 . S
H502 C528 0.950 . S
H503 C530 0.950 . S
H504 C533 0.950 . S
H505 C534 0.950 . S
H506 C536 0.950 . S
H507 C537 0.950 . S
C508 H490 0.951 . S
C508 C509 1.366 . S
C508 C510 1.388 . S
C509 C508 1.366 . S
C509 C513 1.385 . S
C510 H491 0.951 . S
C510 C508 1.388 . S
C510 C511 1.366 . S
C511 C510 1.366 . S
C511 C512 1.414 . S
C511 C514 1.499 . S
C512 H492 0.950 . S
C512 C511 1.414 . S
C512 C513 1.374 . S
C513 H493 0.950 . S
C513 C509 1.385 . S
C513 C512 1.374 . S
C514 C511 1.499 . S
C514 C515 1.373 . S
C514 C516 1.389 . S
C515 H494 0.950 . S
C515 C514 1.373 . S
C515 C531 1.377 1_545 S
C516 C514 1.389 . S
C516 C517 1.524 . S
C516 C530 1.377 . S
C517 C516 1.524 . S
C517 C518 1.397 . S
C517 C522 1.363 . S
C518 H495 0.950 . S
C518 C517 1.397 . S
C518 C519 1.334 . S
C519 H496 0.950 1_655 S
C519 C518 1.334 . S
C519 C520 1.287 1_655 S
C520 C519 1.287 1_455 S
C520 C521 1.524 . S
C520 H539 0.913 . S
C521 H497 0.950 . S
C521 C520 1.524 . S
C521 C522 1.415 1_455 S
C522 H498 0.950 . S
C522 C517 1.363 . S
C522 C521 1.415 1_655 S
C523 H499 0.951 . S
C523 C524 1.366 . S
C523 C525 1.388 . S
C524 C523 1.366 . S
C524 C528 1.385 . S
C525 H500 0.951 . S
C525 C523 1.388 . S
C525 C526 1.366 . S
C526 C525 1.366 . S
C526 C527 1.414 . S
C526 C529 1.499 . S
C527 H501 0.950 . S
C527 C526 1.414 . S
C527 C528 1.374 . S
C528 H502 0.950 . S
C528 C524 1.385 . S
C528 C527 1.374 . S
C529 C526 1.499 . S
C529 C530 1.373 1_565 S
C529 C531 1.389 . S
C530 H503 0.950 . S
C530 C516 1.377 . S
C530 C529 1.373 1_545 S
C531 C515 1.377 1_565 S
C531 C529 1.389 . S
C531 C532 1.524 . S
C532 C531 1.524 . S
C532 C533 1.397 . S
C532 C537 1.363 . S
C533 H504 0.950 . S
C533 C532 1.397 . S
C533 C534 1.334 . S
C534 H505 0.950 . S
C534 C533 1.334 . S
C534 C535 1.287 . S
C535 C534 1.287 . S
C535 C536 1.524 . S
C535 H538 0.999 . S
C536 H506 0.950 . S
C536 C535 1.524 . S
C536 C537 1.415 . S
C537 H507 0.950 . S
C537 C532 1.363 . S
C537 C536 1.415 . S
H538 C535 0.999 . S
H539 C520 0.913 . S
H540 C558 0.951 . S
H541 C560 0.951 . S
H542 C562 0.950 . S
H543 C563 0.950 . S
H544 C565 0.950 . S
H545 C568 0.950 . S
H546 C569 0.950 . S
H547 C571 0.950 . S
H548 C572 0.950 . S
H549 C573 0.951 . S
H550 C575 0.951 1_655 S
H551 C577 0.950 . S
H552 C578 0.950 . S
H553 C580 0.950 . S
H554 C583 0.950 . S
H555 C584 0.950 . S
H556 C586 0.950 . S
H557 C587 0.950 . S
C558 H540 0.951 . S
C558 C559 1.366 . S
C558 C560 1.388 . S
C559 C558 1.366 . S
C559 C563 1.385 . S
C560 H541 0.951 . S
C560 C558 1.388 . S
C560 C561 1.366 . S
C561 C560 1.366 . S
C561 C562 1.414 . S
C561 C564 1.499 . S
C562 H542 0.950 . S
C562 C561 1.414 . S
C562 C563 1.374 . S
C563 H543 0.950 . S
C563 C559 1.385 . S
C563 C562 1.374 . S
C564 C561 1.499 . S
C564 C565 1.373 . S
C564 C566 1.389 . S
C565 H544 0.950 . S
C565 C564 1.373 . S
C565 C581 1.377 . S
C566 C564 1.389 . S
C566 C567 1.524 . S
C566 C580 1.377 . S
C567 C566 1.524 . S
C567 C568 1.397 . S
C567 C572 1.363 . S
C568 H545 0.950 . S
C568 C567 1.397 . S
C568 C569 1.334 . S
C569 H546 0.950 . S
C569 C568 1.334 . S
C569 C570 1.287 . S
C570 C569 1.287 . S
C570 C571 1.524 . S
C570 H589 0.913 . S
C571 H547 0.950 . S
C571 C570 1.524 . S
C571 C572 1.415 . S
C572 H548 0.950 . S
C572 C567 1.363 . S
C572 C571 1.415 . S
C573 H549 0.951 . S
C573 C574 1.366 . S
C573 C575 1.388 . S
C574 C573 1.366 . S
C574 C578 1.385 . S
C575 H550 0.951 1_455 S
C575 C573 1.388 . S
C575 C576 1.366 . S
C576 C575 1.366 . S
C576 C577 1.414 . S
C576 C579 1.499 1_455 S
C577 H551 0.950 . S
C577 C576 1.414 . S
C577 C578 1.374 . S
C578 H552 0.950 . S
C578 C574 1.385 . S
C578 C577 1.374 . S
C579 C576 1.499 1_655 S
C579 C580 1.373 . S
C579 C581 1.389 . S
C580 H553 0.950 . S
C580 C566 1.377 . S
C580 C579 1.373 . S
C581 C565 1.377 . S
C581 C579 1.389 . S
C581 C582 1.524 . S
C582 C581 1.524 . S
C582 C583 1.397 1_655 S
C582 C587 1.363 . S
C583 H554 0.950 . S
C583 C582 1.397 1_455 S
C583 C584 1.334 . S
C584 H555 0.950 . S
C584 C583 1.334 . S
C584 C585 1.287 . S
C585 C584 1.287 . S
C585 C586 1.524 1_455 S
C585 H588 0.999 . S
C586 H556 0.950 . S
C586 C585 1.524 1_655 S
C586 C587 1.415 . S
C587 H557 0.950 . S
C587 C582 1.363 . S
C587 C586 1.415 . S
H588 C585 0.999 . S
H589 C570 0.913 . S
H590 C608 0.951 . S
H591 C610 0.951 . S
H592 C612 0.950 . S
H593 C613 0.950 . S
H594 C615 0.950 . S
H595 C618 0.950 . S
H596 C619 0.950 . S
H597 C621 0.950 . S
H598 C622 0.950 . S
H599 C623 0.951 . S
H600 C625 0.951 . S
H601 C627 0.950 1_565 S
H602 C628 0.950 . S
H603 C630 0.950 . S
H604 C633 0.950 . S
H605 C634 0.950 . S
H606 C636 0.969 . S
H607 C637 0.950 . S
C608 H590 0.951 . S
C608 C609 1.366 . S
C608 C610 1.388 . S
C609 C608 1.366 . S
C609 C613 1.385 . S
C610 H591 0.951 . S
C610 C608 1.388 . S
C610 C611 1.366 . S
C611 C610 1.366 . S
C611 C612 1.414 . S
C611 C614 1.499 . S
C612 H592 0.950 . S
C612 C611 1.414 . S
C612 C613 1.374 . S
C613 H593 0.950 . S
C613 C609 1.385 . S
C613 C612 1.374 . S
C614 C611 1.499 . S
C614 C615 1.373 . S
C614 C616 1.389 . S
C615 H594 0.950 . S
C615 C614 1.373 . S
C615 C631 1.377 . S
C616 C614 1.389 . S
C616 C617 1.524 . S
C616 C630 1.377 . S
C617 C616 1.524 . S
C617 C618 1.397 . S
C617 C622 1.363 . S
C618 H595 0.950 . S
C618 C617 1.397 . S
C618 C619 1.334 . S
C619 H596 0.950 . S
C619 C618 1.334 . S
C619 C620 1.287 . S
C620 C619 1.287 . S
C620 C621 1.524 . S
C620 H639 0.913 . S
C621 H597 0.950 . S
C621 C620 1.524 . S
C621 C622 1.415 . S
C622 H598 0.950 . S
C622 C617 1.363 . S
C622 C621 1.415 . S
C623 H599 0.951 . S
C623 C624 1.366 . S
C623 C625 1.388 . S
C624 C623 1.366 . S
C624 C628 1.385 . S
C625 H600 0.951 . S
C625 C623 1.388 . S
C625 C626 1.366 . S
C626 C625 1.366 . S
C626 C627 1.414 . S
C626 C629 1.499 1_545 S
C627 H601 0.950 1_545 S
C627 C626 1.414 . S
C627 C628 1.374 . S
C628 H602 0.950 . S
C628 C624 1.385 . S
C628 C627 1.374 . S
C629 C626 1.499 1_565 S
C629 C630 1.373 . S
C629 C631 1.389 . S
C630 H603 0.950 . S
C630 C616 1.377 . S
C630 C629 1.373 . S
C631 C615 1.377 . S
C631 C629 1.389 . S
C631 C632 1.524 . S
C632 C631 1.524 . S
C632 C633 1.397 . S
C632 C637 1.363 . S
C633 H604 0.950 . S
C633 C632 1.397 . S
C633 C634 1.334 . S
C634 H605 0.950 . S
C634 C633 1.334 . S
C634 C635 1.287 . S
C635 C634 1.287 . S
C635 C636 1.524 . S
C635 H638 0.999 . S
C636 H606 0.969 . S
C636 C635 1.524 . S
C636 C637 1.415 . S
C637 H607 0.950 . S
C637 C632 1.363 . S
C637 C636 1.415 . S
H638 C635 0.999 . S
H639 C620 0.913 . S
H640 C658 0.951 . S
H641 C660 0.951 . S
H642 C662 0.950 . S
H643 C663 0.950 . S
H644 C665 0.950 . S
H645 C668 0.950 . S
H646 C669 0.950 . S
H647 C671 0.950 . S
H648 C672 0.950 . S
H649 C673 0.951 . S
H650 C675 0.951 . S
H651 C677 0.950 . S
H652 C678 0.950 . S
H653 C680 0.950 . S
H654 C683 0.950 . S
H655 C684 0.950 . S
H656 C686 0.950 . S
H657 C687 0.950 . S
C658 H640 0.951 . S
C658 C659 1.366 . S
C658 C660 1.388 . S
C659 C658 1.366 . S
C659 C663 1.385 . S
C660 H641 0.951 . S
C660 C658 1.388 . S
C660 C661 1.366 . S
C661 C660 1.366 . S
C661 C662 1.414 . S
C661 C664 1.499 . S
C662 H642 0.950 . S
C662 C661 1.414 . S
C662 C663 1.374 . S
C663 H643 0.950 . S
C663 C659 1.385 . S
C663 C662 1.374 . S
C664 C661 1.499 . S
C664 C665 1.373 . S
C664 C666 1.389 . S
C665 H644 0.950 . S
C665 C664 1.373 . S
C665 C681 1.377 . S
C666 C664 1.389 . S
C666 C667 1.524 . S
C666 C680 1.377 . S
C667 C666 1.524 . S
C667 C668 1.397 . S
C667 C672 1.363 . S
C668 H645 0.950 . S
C668 C667 1.397 . S
C668 C669 1.334 . S
C669 H646 0.950 . S
C669 C668 1.334 . S
C669 C670 1.287 . S
C670 C669 1.287 . S
C670 C671 1.524 . S
C670 H689 0.913 . S
C671 H647 0.950 . S
C671 C670 1.524 . S
C671 C672 1.415 . S
C672 H648 0.950 . S
C672 C667 1.363 . S
C672 C671 1.415 . S
C673 H649 0.951 . S
C673 C674 1.366 . S
C673 C675 1.388 . S
C674 C673 1.366 . S
C674 C678 1.385 . S
C675 H650 0.951 . S
C675 C673 1.388 . S
C675 C676 1.366 . S
C676 C675 1.366 . S
C676 C677 1.414 . S
C676 C679 1.499 . S
C677 H651 0.950 . S
C677 C676 1.414 . S
C677 C678 1.374 . S
C678 H652 0.950 . S
C678 C674 1.385 . S
C678 C677 1.374 . S
C679 C676 1.499 . S
C679 C680 1.373 . S
C679 C681 1.389 . S
C680 H653 0.950 . S
C680 C666 1.377 . S
C680 C679 1.373 . S
C681 C665 1.377 . S
C681 C679 1.389 . S
C681 C682 1.524 . S
C682 C681 1.524 . S
C682 C683 1.397 . S
C682 C687 1.363 . S
C683 H654 0.950 . S
C683 C682 1.397 . S
C683 C684 1.334 . S
C684 H655 0.950 . S
C684 C683 1.334 . S
C684 C685 1.287 . S
C685 C684 1.287 . S
C685 C686 1.524 . S
C685 H688 0.999 . S
C686 H656 0.950 . S
C686 C685 1.524 . S
C686 C687 1.415 . S
C687 H657 0.950 . S
C687 C682 1.363 . S
C687 C686 1.415 . S
H688 C685 0.999 . S
H689 C670 0.913 . S
H690 C708 0.951 1_556 S
H691 C710 0.951 1_556 S
H692 C712 0.950 . S
H693 C713 0.950 . S
H694 C715 0.950 . S
H695 C718 0.950 . S
H696 C719 0.950 . S
H697 C721 0.950 1_565 S
H698 C722 0.950 . S
H699 C723 0.951 . S
H700 C725 0.951 . S
H701 C727 0.950 1_556 S
H702 C728 0.950 1_556 S
H703 C730 0.950 . S
H704 C733 0.950 . S
H705 C734 0.950 . S
H706 C736 0.950 . S
H707 C737 0.950 . S
C708 H690 0.951 1_554 S
C708 C709 1.366 . S
C708 C710 1.388 . S
C709 C708 1.366 . S
C709 C713 1.385 . S
C710 H691 0.951 1_554 S
C710 C708 1.388 . S
C710 C711 1.366 . S
C711 C710 1.366 . S
C711 C712 1.414 . S
C711 C714 1.499 . S
C712 H692 0.950 . S
C712 C711 1.414 . S
C712 C713 1.374 . S
C713 H693 0.950 . S
C713 C709 1.385 . S
C713 C712 1.374 . S
C714 C711 1.499 . S
C714 C715 1.373 . S
C714 C716 1.389 . S
C715 H694 0.950 . S
C715 C714 1.373 . S
C715 C731 1.377 . S
C716 C714 1.389 . S
C716 C717 1.524 . S
C716 C730 1.377 . S
C717 C716 1.524 . S
C717 C718 1.397 . S
C717 C722 1.363 . S
C718 H695 0.950 . S
C718 C717 1.397 . S
C718 C719 1.334 . S
C719 H696 0.950 . S
C719 C718 1.334 . S
C719 C720 1.287 . S
C720 C719 1.287 . S
C720 C721 1.524 . S
C720 H739 0.913 . S
C721 H697 0.950 1_545 S
C721 C720 1.524 . S
C721 C722 1.415 . S
C722 H698 0.950 . S
C722 C717 1.363 . S
C722 C721 1.415 . S
C723 H699 0.951 . S
C723 C724 1.366 . S
C723 C725 1.388 . S
C724 C723 1.366 . S
C724 C728 1.385 1_545 S
C725 H700 0.951 . S
C725 C723 1.388 . S
C725 C726 1.366 . S
C726 C725 1.366 . S
C726 C727 1.414 . S
C726 C729 1.499 . S
C727 H701 0.950 1_554 S
C727 C726 1.414 . S
C727 C728 1.374 1_545 S
C728 H702 0.950 1_554 S
C728 C724 1.385 1_565 S
C728 C727 1.374 1_565 S
C729 C726 1.499 . S
C729 C730 1.373 . S
C729 C731 1.389 . S
C730 H703 0.950 . S
C730 C716 1.377 . S
C730 C729 1.373 . S
C731 C715 1.377 . S
C731 C729 1.389 . S
C731 C732 1.524 1_554 S
C732 C731 1.524 1_556 S
C732 C733 1.397 . S
C732 C737 1.363 1_556 S
C733 H704 0.950 . S
C733 C732 1.397 . S
C733 C734 1.334 . S
C734 H705 0.950 . S
C734 C733 1.334 . S
C734 C735 1.287 . S
C735 C734 1.287 . S
C735 C736 1.524 . S
C735 H738 0.999 . S
C736 H706 0.950 . S
C736 C735 1.524 . S
C736 C737 1.415 1_556 S
C737 H707 0.950 . S
C737 C732 1.363 1_554 S
C737 C736 1.415 1_554 S
H738 C735 0.999 . S
H739 C720 0.913 . S
H740 C758 0.951 . S
H741 C760 0.951 . S
H742 C762 0.950 . S
H743 C763 0.950 . S
H744 C765 0.950 . S
H745 C768 0.950 . S
H746 C769 0.950 . S
H747 C771 0.950 . S
H748 C772 0.950 . S
H749 C773 0.951 . S
H750 C775 0.951 . S
H751 C777 0.950 . S
H752 C778 0.950 . S
H753 C780 0.950 . S
H754 C783 0.950 . S
H755 C784 0.950 . S
H756 C786 0.950 . S
H757 C787 0.950 . S
C758 H740 0.951 . S
C758 C759 1.366 . S
C758 C760 1.388 . S
C759 C758 1.366 . S
C759 C763 1.385 . S
C760 H741 0.951 . S
C760 C758 1.388 . S
C760 C761 1.366 . S
C761 C760 1.366 . S
C761 C762 1.414 . S
C761 C764 1.499 . S
C762 H742 0.950 . S
C762 C761 1.414 . S
C762 C763 1.374 . S
C763 H743 0.950 . S
C763 C759 1.385 . S
C763 C762 1.374 . S
C764 C761 1.499 . S
C764 C765 1.373 . S
C764 C766 1.389 . S
C765 H744 0.950 . S
C765 C764 1.373 . S
C765 C781 1.377 . S
C766 C764 1.389 . S
C766 C767 1.524 . S
C766 C780 1.377 . S
C767 C766 1.524 . S
C767 C768 1.397 . S
C767 C772 1.363 . S
C768 H745 0.950 . S
C768 C767 1.397 . S
C768 C769 1.334 . S
C769 H746 0.950 . S
C769 C768 1.334 . S
C769 C770 1.287 . S
C770 C769 1.287 . S
C770 C771 1.524 . S
C770 H789 0.913 . S
C771 H747 0.950 . S
C771 C770 1.524 . S
C771 C772 1.415 . S
C772 H748 0.950 . S
C772 C767 1.363 . S
C772 C771 1.415 . S
C773 H749 0.951 . S
C773 C774 1.366 . S
C773 C775 1.388 . S
C774 C773 1.366 . S
C774 C778 1.385 . S
C775 H750 0.951 . S
C775 C773 1.388 . S
C775 C776 1.366 . S
C776 C775 1.366 . S
C776 C777 1.414 . S
C776 C779 1.499 . S
C777 H751 0.950 . S
C777 C776 1.414 . S
C777 C778 1.374 . S
C778 H752 0.950 . S
C778 C774 1.385 . S
C778 C777 1.374 . S
C779 C776 1.499 . S
C779 C780 1.373 . S
C779 C781 1.389 . S
C780 H753 0.950 . S
C780 C766 1.377 . S
C780 C779 1.373 . S
C781 C765 1.377 . S
C781 C779 1.389 . S
C781 C782 1.524 . S
C782 C781 1.524 . S
C782 C783 1.397 . S
C782 C787 1.363 . S
C783 H754 0.950 . S
C783 C782 1.397 . S
C783 C784 1.334 . S
C784 H755 0.950 . S
C784 C783 1.334 . S
C784 C785 1.287 . S
C785 C784 1.287 . S
C785 C786 1.524 . S
C785 H788 0.999 . S
C786 H756 0.950 . S
C786 C785 1.524 . S
C786 C787 1.415 . S
C787 H757 0.950 . S
C787 C782 1.363 . S
C787 C786 1.415 . S
H788 C785 0.999 . S
H789 C770 0.913 . S
H790 C808 0.951 . S
H791 C810 0.951 . S
H792 C812 0.950 1_655 S
H793 C813 0.950 . S
H794 C815 0.950 . S
H795 C818 0.950 . S
H796 C819 0.950 . S
H797 C821 0.950 . S
H798 C822 0.950 . S
H799 C823 0.951 . S
H800 C825 0.951 . S
H801 C827 0.950 . S
H802 C828 0.950 . S
H803 C830 0.950 . S
H804 C833 0.950 . S
H805 C834 0.950 . S
H806 C836 0.950 1_655 S
H807 C837 0.950 . S
C808 H790 0.951 . S
C808 C809 1.366 . S
C808 C810 1.388 . S
C809 C808 1.366 . S
C809 C813 1.385 1_455 S
C810 H791 0.951 . S
C810 C808 1.388 . S
C810 C811 1.366 . S
C811 C810 1.366 . S
C811 C812 1.414 . S
C811 C814 1.499 . S
C812 H792 0.950 1_455 S
C812 C811 1.414 . S
C812 C813 1.374 1_455 S
C813 H793 0.950 . S
C813 C809 1.385 1_655 S
C813 C812 1.374 1_655 S
C814 C811 1.499 . S
C814 C815 1.373 . S
C814 C816 1.389 . S
C815 H794 0.950 . S
C815 C814 1.373 . S
C815 C831 1.377 . S
C816 C814 1.389 . S
C816 C817 1.524 . S
C816 C830 1.377 . S
C817 C816 1.524 . S
C817 C818 1.397 . S
C817 C822 1.363 . S
C818 H795 0.950 . S
C818 C817 1.397 . S
C818 C819 1.334 . S
C819 H796 0.950 . S
C819 C818 1.334 . S
C819 C820 1.287 . S
C820 C819 1.287 . S
C820 C821 1.524 . S
C820 H839 0.913 . S
C821 H797 0.950 . S
C821 C820 1.524 . S
C821 C822 1.415 . S
C822 H798 0.950 . S
C822 C817 1.363 . S
C822 C821 1.415 . S
C823 H799 0.951 . S
C823 C824 1.366 . S
C823 C825 1.388 . S
C824 C823 1.366 . S
C824 C828 1.385 . S
C825 H800 0.951 . S
C825 C823 1.388 . S
C825 C826 1.366 . S
C826 C825 1.366 . S
C826 C827 1.414 . S
C826 C829 1.499 . S
C827 H801 0.950 . S
C827 C826 1.414 . S
C827 C828 1.374 . S
C828 H802 0.950 . S
C828 C824 1.385 . S
C828 C827 1.374 . S
C829 C826 1.499 . S
C829 C830 1.373 . S
C829 C831 1.389 . S
C830 H803 0.950 . S
C830 C816 1.377 . S
C830 C829 1.373 . S
C831 C815 1.377 . S
C831 C829 1.389 . S
C831 C832 1.524 . S
C832 C831 1.524 . S
C832 C833 1.397 . S
C832 C837 1.363 . S
C833 H804 0.950 . S
C833 C832 1.397 . S
C833 C834 1.334 . S
C834 H805 0.950 . S
C834 C833 1.334 . S
C834 C835 1.287 . S
C835 C834 1.287 . S
C835 C836 1.524 . S
C835 H838 0.999 . S
C836 H806 0.950 1_455 S
C836 C835 1.524 . S
C836 C837 1.415 . S
C837 H807 0.950 . S
C837 C832 1.363 . S
C837 C836 1.415 . S
H838 C835 0.999 . S
H839 C820 0.913 . S
H840 C858 0.951 . S
H841 C860 0.951 . S
H842 C862 0.950 . S
H843 C863 0.950 . S
H844 C865 0.950 . S
H845 C868 0.950 . S
H846 C869 0.950 . S
H847 C871 0.950 . S
H848 C872 0.950 . S
H849 C873 0.951 . S
H850 C875 0.951 . S
H851 C877 0.950 . S
H852 C878 0.950 . S
H853 C880 0.950 . S
H854 C883 0.950 . S
H855 C884 0.950 . S
H856 C886 0.950 . S
H857 C887 0.950 . S
C858 H840 0.951 . S
C858 C859 1.366 . S
C858 C860 1.388 . S
C859 C858 1.366 . S
C859 C863 1.385 . S
C860 H841 0.951 . S
C860 C858 1.388 . S
C860 C861 1.366 . S
C861 C860 1.366 . S
C861 C862 1.414 . S
C861 C864 1.499 . S
C862 H842 0.950 . S
C862 C861 1.414 . S
C862 C863 1.374 . S
C863 H843 0.950 . S
C863 C859 1.385 . S
C863 C862 1.374 . S
C864 C861 1.499 . S
C864 C865 1.373 . S
C864 C866 1.389 . S
C865 H844 0.950 . S
C865 C864 1.373 . S
C865 C881 1.377 . S
C866 C864 1.389 . S
C866 C867 1.524 . S
C866 C880 1.377 . S
C867 C866 1.524 . S
C867 C868 1.397 . S
C867 C872 1.363 . S
C868 H845 0.950 . S
C868 C867 1.397 . S
C868 C869 1.334 . S
C869 H846 0.950 . S
C869 C868 1.334 . S
C869 C870 1.287 . S
C870 C869 1.287 . S
C870 C871 1.524 . S
C870 H889 0.913 . S
C871 H847 0.950 . S
C871 C870 1.524 . S
C871 C872 1.415 . S
C872 H848 0.950 . S
C872 C867 1.363 . S
C872 C871 1.415 . S
C873 H849 0.951 . S
C873 C874 1.366 . S
C873 C875 1.388 . S
C874 C873 1.366 . S
C874 C878 1.385 . S
C875 H850 0.951 . S
C875 C873 1.388 . S
C875 C876 1.366 . S
C876 C875 1.366 . S
C876 C877 1.414 . S
C876 C879 1.499 . S
C877 H851 0.950 . S
C877 C876 1.414 . S
C877 C878 1.374 . S
C878 H852 0.950 . S
C878 C874 1.385 . S
C878 C877 1.374 . S
C879 C876 1.499 . S
C879 C880 1.373 . S
C879 C881 1.389 . S
C880 H853 0.950 . S
C880 C866 1.377 . S
C880 C879 1.373 . S
C881 C865 1.377 . S
C881 C879 1.389 . S
C881 C882 1.524 . S
C882 C881 1.524 . S
C882 C883 1.397 . S
C882 C887 1.363 . S
C883 H854 0.950 . S
C883 C882 1.397 . S
C883 C884 1.334 . S
C884 H855 0.950 . S
C884 C883 1.334 . S
C884 C885 1.287 . S
C885 C884 1.287 . S
C885 C886 1.524 . S
C885 H888 0.999 . S
C886 H856 0.950 . S
C886 C885 1.524 . S
C886 C887 1.415 . S
C887 H857 0.950 . S
C887 C882 1.363 . S
C887 C886 1.415 . S
H888 C885 0.999 . S
H889 C870 0.913 . S
H890 C908 0.951 . S
H891 C910 0.951 . S
H892 C912 0.950 . S
H893 C913 0.950 . S
H894 C915 0.950 . S
H895 C918 0.950 . S
H896 C919 0.950 . S
H897 C921 0.950 . S
H898 C922 0.950 . S
H899 C923 0.951 . S
H900 C925 0.951 . S
H901 C927 0.950 . S
H902 C928 0.950 . S
H903 C930 0.950 . S
H904 C933 0.950 . S
H905 C934 0.950 . S
H906 C936 0.950 . S
H907 C937 0.950 . S
C908 H890 0.951 . S
C908 C909 1.366 . S
C908 C910 1.388 . S
C909 C908 1.366 . S
C909 C913 1.385 . S
C910 H891 0.951 . S
C910 C908 1.388 . S
C910 C911 1.366 . S
C911 C910 1.366 . S
C911 C912 1.414 . S
C911 C914 1.499 . S
C912 H892 0.950 . S
C912 C911 1.414 . S
C912 C913 1.374 . S
C913 H893 0.950 . S
C913 C909 1.385 . S
C913 C912 1.374 . S
C914 C911 1.499 . S
C914 C915 1.373 . S
C914 C916 1.389 . S
C915 H894 0.950 . S
C915 C914 1.373 . S
C915 C931 1.377 . S
C916 C914 1.389 . S
C916 C917 1.524 . S
C916 C930 1.377 . S
C917 C916 1.524 . S
C917 C918 1.397 . S
C917 C922 1.363 . S
C918 H895 0.950 . S
C918 C917 1.397 . S
C918 C919 1.334 . S
C919 H896 0.950 . S
C919 C918 1.334 . S
C919 C920 1.287 . S
C920 C919 1.287 . S
C920 C921 1.524 . S
C920 H939 0.913 . S
C921 H897 0.950 . S
C921 C920 1.524 . S
C921 C922 1.415 . S
C922 H898 0.950 . S
C922 C917 1.363 . S
C922 C921 1.415 . S
C923 H899 0.951 . S
C923 C924 1.366 . S
C923 C925 1.388 . S
C924 C923 1.366 . S
C924 C928 1.385 . S
C925 H900 0.951 . S
C925 C923 1.388 . S
C925 C926 1.366 . S
C926 C925 1.366 . S
C926 C927 1.414 . S
C926 C929 1.499 . S
C927 H901 0.950 . S
C927 C926 1.414 . S
C927 C928 1.374 . S
C928 H902 0.950 . S
C928 C924 1.385 . S
C928 C927 1.374 . S
C929 C926 1.499 . S
C929 C930 1.373 . S
C929 C931 1.389 . S
C930 H903 0.950 . S
C930 C916 1.377 . S
C930 C929 1.373 . S
C931 C915 1.377 . S
C931 C929 1.389 . S
C931 C932 1.524 . S
C932 C931 1.524 . S
C932 C933 1.397 . S
C932 C937 1.363 . S
C933 H904 0.950 . S
C933 C932 1.397 . S
C933 C934 1.334 . S
C934 H905 0.950 . S
C934 C933 1.334 . S
C934 C935 1.287 . S
C935 C934 1.287 . S
C935 C936 1.524 . S
C935 H938 0.999 . S
C936 H906 0.950 . S
C936 C935 1.524 . S
C936 C937 1.415 . S
C937 H907 0.950 . S
C937 C932 1.363 . S
C937 C936 1.415 . S
H938 C935 0.999 . S
H939 C920 0.913 . S
H940 C958 0.951 . S
H941 C960 0.951 . S
H942 C962 0.950 . S
H943 C963 0.950 . S
H944 C965 0.950 . S
H945 C968 0.950 1_455 S
H946 C969 0.950 . S
H947 C971 0.950 . S
H948 C972 0.950 . S
H949 C973 0.951 . S
H950 C975 0.951 . S
H951 C977 0.950 . S
H952 C978 0.950 . S
H953 C980 0.950 . S
H954 C983 0.950 . S
H955 C984 0.950 . S
H956 C986 0.950 . S
H957 C987 0.950 . S
C958 H940 0.951 . S
C958 C959 1.366 . S
C958 C960 1.388 . S
C959 C958 1.366 . S
C959 C963 1.385 . S
C960 H941 0.951 . S
C960 C958 1.388 . S
C960 C961 1.366 . S
C961 C960 1.366 . S
C961 C962 1.414 . S
C961 C964 1.499 . S
C962 H942 0.950 . S
C962 C961 1.414 . S
C962 C963 1.374 . S
C963 H943 0.950 . S
C963 C959 1.385 . S
C963 C962 1.374 . S
C964 C961 1.499 . S
C964 C965 1.373 . S
C964 C966 1.389 . S
C965 H944 0.950 . S
C965 C964 1.373 . S
C965 C981 1.377 . S
C966 C964 1.389 . S
C966 C967 1.524 . S
C966 C980 1.377 . S
C967 C966 1.524 . S
C967 C968 1.397 . S
C967 C972 1.363 . S
C968 H945 0.950 1_655 S
C968 C967 1.397 . S
C968 C969 1.334 1_655 S
C969 H946 0.950 . S
C969 C968 1.334 1_455 S
C969 C970 1.287 . S
C970 C969 1.287 . S
C970 C971 1.524 1_455 S
C970 H989 0.913 . S
C971 H947 0.950 . S
C971 C970 1.524 1_655 S
C971 C972 1.415 . S
C972 H948 0.950 . S
C972 C967 1.363 . S
C972 C971 1.415 . S
C973 H949 0.951 . S
C973 C974 1.366 . S
C973 C975 1.388 . S
C974 C973 1.366 . S
C974 C978 1.385 . S
C975 H950 0.951 . S
C975 C973 1.388 . S
C975 C976 1.366 . S
C976 C975 1.366 . S
C976 C977 1.414 . S
C976 C979 1.499 . S
C977 H951 0.950 . S
C977 C976 1.414 . S
C977 C978 1.374 . S
C978 H952 0.950 . S
C978 C974 1.385 . S
C978 C977 1.374 . S
C979 C976 1.499 . S
C979 C980 1.373 . S
C979 C981 1.389 . S
C980 H953 0.950 . S
C980 C966 1.377 . S
C980 C979 1.373 . S
C981 C965 1.377 . S
C981 C979 1.389 . S
C981 C982 1.524 . S
C982 C981 1.524 . S
C982 C983 1.397 . S
C982 C987 1.363 . S
C983 H954 0.950 . S
C983 C982 1.397 . S
C983 C984 1.334 1_545 S
C984 H955 0.950 . S
C984 C983 1.334 1_565 S
C984 C985 1.287 . S
C985 C984 1.287 . S
C985 C986 1.524 . S
C985 H988 0.999 . S
C986 H956 0.950 . S
C986 C985 1.524 . S
C986 C987 1.415 1_565 S
C987 H957 0.950 . S
C987 C982 1.363 . S
C987 C986 1.415 1_545 S
H988 C985 0.999 . S
H989 C970 0.913 . S
H990 C1008 0.951 . S
H991 C1010 0.951 . S
H992 C1012 0.950 . S
H993 C1013 0.950 . S
H994 C1015 0.950 . S
H995 C1018 0.950 . S
H996 C1019 0.950 . S
H997 C1021 0.969 . S
H998 C1022 0.950 . S
H999 C1023 0.951 . S
H1000 C1025 0.951 . S
H1001 C1027 0.950 . S
H1002 C1028 0.950 . S
H1003 C1030 0.950 . S
H1004 C1033 0.950 . S
H1005 C1034 0.950 1_545 S
H1006 C1036 0.950 . S
H1007 C1037 0.950 . S
C1008 H990 0.951 . S
C1008 C1009 1.366 . S
C1008 C1010 1.388 . S
C1009 C1008 1.366 . S
C1009 C1013 1.385 . S
C1010 H991 0.951 . S
C1010 C1008 1.388 . S
C1010 C1011 1.366 . S
C1011 C1010 1.366 . S
C1011 C1012 1.414 . S
C1011 C1014 1.499 . S
C1012 H992 0.950 . S
C1012 C1011 1.414 . S
C1012 C1013 1.374 . S
C1013 H993 0.950 . S
C1013 C1009 1.385 . S
C1013 C1012 1.374 . S
C1014 C1011 1.499 . S
C1014 C1015 1.373 . S
C1014 C1016 1.389 . S
C1015 H994 0.950 . S
C1015 C1014 1.373 . S
C1015 C1031 1.377 . S
C1016 C1014 1.389 . S
C1016 C1017 1.524 . S
C1016 C1030 1.377 . S
C1017 C1016 1.524 . S
C1017 C1018 1.397 . S
C1017 C1022 1.363 . S
C1018 H995 0.950 . S
C1018 C1017 1.397 . S
C1018 C1019 1.334 . S
C1019 H996 0.950 . S
C1019 C1018 1.334 . S
C1019 C1020 1.287 . S
C1020 C1019 1.287 . S
C1020 C1021 1.518 1_655 S
C1020 H1039 0.913 . S
C1021 H997 0.969 . S
C1021 C1020 1.518 1_455 S
C1021 C1022 1.400 1_455 S
C1022 H998 0.950 . S
C1022 C1017 1.363 . S
C1022 C1021 1.400 1_655 S
C1023 H999 0.951 . S
C1023 C1024 1.366 . S
C1023 C1025 1.388 . S
C1024 C1023 1.366 . S
C1024 C1028 1.385 . S
C1025 H1000 0.951 . S
C1025 C1023 1.388 . S
C1025 C1026 1.366 . S
C1026 C1025 1.366 . S
C1026 C1027 1.414 . S
C1026 C1029 1.499 . S
C1027 H1001 0.950 . S
C1027 C1026 1.414 . S
C1027 C1028 1.374 . S
C1028 H1002 0.950 . S
C1028 C1024 1.385 . S
C1028 C1027 1.374 . S
C1029 C1026 1.499 . S
C1029 C1030 1.373 . S
C1029 C1031 1.389 . S
C1030 H1003 0.950 . S
C1030 C1016 1.377 . S
C1030 C1029 1.373 . S
C1031 C1015 1.377 . S
C1031 C1029 1.389 . S
C1031 C1032 1.524 . S
C1032 C1031 1.524 . S
C1032 C1033 1.397 . S
C1032 C1037 1.363 . S
C1033 H1004 0.950 . S
C1033 C1032 1.397 . S
C1033 C1034 1.334 . S
C1034 H1005 0.950 1_565 S
C1034 C1033 1.334 . S
C1034 C1035 1.287 . S
C1035 C1034 1.287 . S
C1035 C1036 1.524 . S
C1035 H1038 0.999 . S
C1036 H1006 0.950 . S
C1036 C1035 1.524 . S
C1036 C1037 1.415 . S
C1037 H1007 0.950 . S
C1037 C1032 1.363 . S
C1037 C1036 1.415 . S
H1038 C1035 0.999 . S
H1039 C1020 0.913 . S
H1040 C1058 0.951 . S
H1041 C1060 0.951 1_655 S
H1042 C1062 0.950 . S
H1043 C1063 0.950 . S
H1044 C1065 0.950 . S
H1045 C1068 0.950 . S
H1046 C1069 0.950 1_545 S
H1047 C1071 0.950 . S
H1048 C1072 0.948 1_655 S
H1049 C1073 0.951 . S
H1050 C1075 0.951 . S
H1051 C1077 0.950 . S
H1052 C1078 0.950 . S
H1053 C1080 0.950 . S
H1054 C1083 0.950 . S
H1055 C1084 0.950 . S
H1056 C1086 0.950 . S
H1057 C1087 0.950 . S
C1058 H1040 0.951 . S
C1058 C1059 1.366 1_655 S
C1058 C1060 1.388 1_655 S
C1059 C1058 1.366 1_455 S
C1059 C1063 1.385 . S
C1060 H1041 0.951 1_455 S
C1060 C1058 1.388 1_455 S
C1060 C1061 1.366 . S
C1061 C1060 1.366 . S
C1061 C1062 1.414 . S
C1061 C1064 1.499 . S
C1062 H1042 0.950 . S
C1062 C1061 1.414 . S
C1062 C1063 1.374 . S
C1063 H1043 0.950 . S
C1063 C1059 1.385 . S
C1063 C1062 1.374 . S
C1064 C1061 1.499 . S
C1064 C1065 1.373 . S
C1064 C1066 1.389 . S
C1065 H1044 0.950 . S
C1065 C1064 1.373 . S
C1065 C1081 1.377 . S
C1066 C1064 1.389 . S
C1066 C1067 1.524 . S
C1066 C1080 1.377 . S
C1067 C1066 1.524 . S
C1067 C1068 1.397 . S
C1067 C1072 1.385 . S
C1068 H1045 0.950 . S
C1068 C1067 1.397 . S
C1068 C1069 1.334 . S
C1069 H1046 0.950 1_565 S
C1069 C1068 1.334 . S
C1069 C1070 1.287 . S
C1070 C1069 1.287 . S
C1070 C1071 1.524 1_455 S
C1070 H1089 0.913 1_565 S
C1071 H1047 0.950 . S
C1071 C1070 1.524 1_655 S
C1071 C1072 1.396 1_655 S
C1072 H1048 0.948 1_455 S
C1072 C1067 1.385 . S
C1072 C1071 1.396 1_455 S
C1073 H1049 0.951 . S
C1073 C1074 1.366 . S
C1073 C1075 1.388 . S
C1074 C1073 1.366 . S
C1074 C1078 1.385 . S
C1075 H1050 0.951 . S
C1075 C1073 1.388 . S
C1075 C1076 1.366 . S
C1076 C1075 1.366 . S
C1076 C1077 1.414 . S
C1076 C1079 1.499 . S
C1077 H1051 0.950 . S
C1077 C1076 1.414 . S
C1077 C1078 1.374 . S
C1078 H1052 0.950 . S
C1078 C1074 1.385 . S
C1078 C1077 1.374 . S
C1079 C1076 1.499 . S
C1079 C1080 1.373 . S
C1079 C1081 1.389 . S
C1080 H1053 0.950 . S
C1080 C1066 1.377 . S
C1080 C1079 1.373 . S
C1081 C1065 1.377 . S
C1081 C1079 1.389 . S
C1081 C1082 1.524 . S
C1082 C1081 1.524 . S
C1082 C1083 1.397 . S
C1082 C1087 1.363 . S
C1083 H1054 0.950 . S
C1083 C1082 1.397 . S
C1083 C1084 1.334 . S
C1084 H1055 0.950 . S
C1084 C1083 1.334 . S
C1084 C1085 1.287 . S
C1085 C1084 1.287 . S
C1085 C1086 1.524 . S
C1085 H1088 0.999 . S
C1086 H1056 0.950 . S
C1086 C1085 1.524 . S
C1086 C1087 1.415 . S
C1087 H1057 0.950 . S
C1087 C1082 1.363 . S
C1087 C1086 1.415 . S
H1088 C1085 0.999 . S
H1089 C1070 0.913 1_545 S
H1090 C1108 0.951 1_565 S
H1091 C1110 0.951 1_565 S
H1092 C1112 0.950 . S
H1093 C1113 0.950 . S
H1094 C1115 0.950 . S
H1095 C1118 0.950 . S
H1096 C1119 0.950 . S
H1097 C1121 0.950 . S
H1098 C1122 0.950 . S
H1099 C1123 0.951 . S
H1100 C1125 0.951 . S
H1101 C1127 0.950 . S
H1102 C1128 0.950 . S
H1103 C1130 0.950 . S
H1104 C1133 0.950 . S
H1105 C1134 0.950 . S
H1106 C1136 0.950 . S
H1107 C1137 0.950 . S
C1108 H1090 0.951 1_545 S
C1108 C1109 1.366 . S
C1108 C1110 1.388 . S
C1109 C1108 1.366 . S
C1109 C1113 1.385 . S
C1110 H1091 0.951 1_545 S
C1110 C1108 1.388 . S
C1110 C1111 1.366 . S
C1111 C1110 1.366 . S
C1111 C1112 1.414 . S
C1111 C1114 1.499 . S
C1112 H1092 0.950 . S
C1112 C1111 1.414 . S
C1112 C1113 1.374 . S
C1113 H1093 0.950 . S
C1113 C1109 1.385 . S
C1113 C1112 1.374 . S
C1114 C1111 1.499 . S
C1114 C1115 1.373 . S
C1114 C1116 1.389 . S
C1115 H1094 0.950 . S
C1115 C1114 1.373 . S
C1115 C1131 1.377 . S
C1116 C1114 1.389 . S
C1116 C1117 1.524 . S
C1116 C1130 1.377 . S
C1117 C1116 1.524 . S
C1117 C1118 1.397 . S
C1117 C1122 1.363 1_545 S
C1118 H1095 0.950 . S
C1118 C1117 1.397 . S
C1118 C1119 1.334 1_545 S
C1119 H1096 0.950 . S
C1119 C1118 1.334 1_565 S
C1119 C1120 1.287 . S
C1120 C1119 1.287 . S
C1120 C1121 1.524 . S
C1120 H1139 0.913 . S
C1121 H1097 0.950 . S
C1121 C1120 1.524 . S
C1121 C1122 1.415 . S
C1122 H1098 0.950 . S
C1122 C1117 1.363 1_565 S
C1122 C1121 1.415 . S
C1123 H1099 0.951 . S
C1123 C1124 1.366 . S
C1123 C1125 1.388 . S
C1124 C1123 1.366 . S
C1124 C1128 1.385 . S
C1125 H1100 0.951 . S
C1125 C1123 1.388 . S
C1125 C1126 1.366 . S
C1126 C1125 1.366 . S
C1126 C1127 1.414 . S
C1126 C1129 1.499 . S
C1127 H1101 0.950 . S
C1127 C1126 1.414 . S
C1127 C1128 1.374 . S
C1128 H1102 0.950 . S
C1128 C1124 1.385 . S
C1128 C1127 1.374 . S
C1129 C1126 1.499 . S
C1129 C1130 1.373 . S
C1129 C1131 1.389 . S
C1130 H1103 0.950 . S
C1130 C1116 1.377 . S
C1130 C1129 1.373 . S
C1131 C1115 1.377 . S
C1131 C1129 1.389 . S
C1131 C1132 1.524 . S
C1132 C1131 1.524 . S
C1132 C1133 1.397 . S
C1132 C1137 1.363 . S
C1133 H1104 0.950 . S
C1133 C1132 1.397 . S
C1133 C1134 1.334 . S
C1134 H1105 0.950 . S
C1134 C1133 1.334 . S
C1134 C1135 1.287 . S
C1135 C1134 1.287 . S
C1135 C1136 1.524 . S
C1135 H1138 0.999 . S
C1136 H1106 0.950 . S
C1136 C1135 1.524 . S
C1136 C1137 1.415 . S
C1137 H1107 0.950 . S
C1137 C1132 1.363 . S
C1137 C1136 1.415 . S
H1138 C1135 0.999 . S
H1139 C1120 0.913 . S
C259 C137 0.971 1_565 S
C274 C17 0.970 . S
C309 C177 0.970 . S
C324 C57 0.969 . S
C359 C217 0.970 . S
C374 C97 0.970 1_655 S
C409 C29 0.605 . S
C424 C88 0.614 . S
C459 C69 0.605 . S
C474 C128 0.614 . S
C509 C109 0.604 . S
C524 C168 0.613 . S
C559 C149 0.602 . S
C574 C208 0.612 . S
C609 C189 0.605 . S
C624 C8 0.616 . S
C659 C229 0.604 . S
C674 C48 0.612 . S
C709 C2 1.447 . S
C724 C122 1.447 1_545 S
C759 C42 1.447 . S
C774 C162 1.447 . S
C809 C82 1.447 1_455 S
C824 C202 1.447 . S
C859 C31 3.862 . S
C874 C52 3.884 . S
C909 C71 3.862 . S
C924 C92 3.885 . S
C959 C111 3.862 . S
C974 C132 3.884 . S
C1009 C151 3.861 . S
C1024 C172 3.884 . S
C1059 C191 3.862 1_455 S
C1074 C212 3.884 . S
C1109 C231 3.862 1_545 S
C1124 C12 3.884 . S
