# Generated by pormake.
# Topology wmt, (6)-cn, num edge types: 1
# Building blocks:
#     Node 0, Type 0, BuildingBlock: GEDQOX_clean_sbu_0, # of connection points: 6
#     Node 1, Type 0, BuildingBlock: GEDQOX_clean_sbu_0, # of connection points: 6
#     Node 2, Type 0, BuildingBlock: GEDQOX_clean_sbu_0, # of connection points: 6
#     Node 3, Type 0, BuildingBlock: GEDQOX_clean_sbu_0, # of connection points: 6
#     Node 4, Type 0, BuildingBlock: GEDQOX_clean_sbu_0, # of connection points: 6
#     Node 5, Type 0, BuildingBlock: GEDQOX_clean_sbu_0, # of connection points: 6
#     Node 6, Type 0, BuildingBlock: GEDQOX_clean_sbu_0, # of connection points: 6
#     Node 7, Type 0, BuildingBlock: GEDQOX_clean_sbu_0, # of connection points: 6
#     Node 8, Type 0, BuildingBlock: GEDQOX_clean_sbu_0, # of connection points: 6
#     Node 9, Type 0, BuildingBlock: GEDQOX_clean_sbu_0, # of connection points: 6
#     Node 10, Type 0, BuildingBlock: GEDQOX_clean_sbu_0, # of connection points: 6
#     Node 11, Type 0, BuildingBlock: GEDQOX_clean_sbu_0, # of connection points: 6
#     Node 12, Type 0, BuildingBlock: GEDQOX_clean_sbu_0, # of connection points: 6
#     Node 13, Type 0, BuildingBlock: GEDQOX_clean_sbu_0, # of connection points: 6
#     Node 14, Type 0, BuildingBlock: GEDQOX_clean_sbu_0, # of connection points: 6
#     Node 15, Type 0, BuildingBlock: GEDQOX_clean_sbu_0, # of connection points: 6
#     Node 16, Type 0, BuildingBlock: GEDQOX_clean_sbu_0, # of connection points: 6
#     Node 17, Type 0, BuildingBlock: GEDQOX_clean_sbu_0, # of connection points: 6
#     Node 18, Type 0, BuildingBlock: GEDQOX_clean_sbu_0, # of connection points: 6
#     Node 19, Type 0, BuildingBlock: GEDQOX_clean_sbu_0, # of connection points: 6
#     Node 20, Type 0, BuildingBlock: GEDQOX_clean_sbu_0, # of connection points: 6
#     Node 21, Type 0, BuildingBlock: GEDQOX_clean_sbu_0, # of connection points: 6
#     Node 22, Type 0, BuildingBlock: GEDQOX_clean_sbu_0, # of connection points: 6
#     Node 23, Type 0, BuildingBlock: GEDQOX_clean_sbu_0, # of connection points: 6
#     Node 24, Type 0, BuildingBlock: GEDQOX_clean_sbu_0, # of connection points: 6
#     Node 25, Type 0, BuildingBlock: GEDQOX_clean_sbu_0, # of connection points: 6
#     Node 26, Type 0, BuildingBlock: GEDQOX_clean_sbu_0, # of connection points: 6
#     Node 27, Type 0, BuildingBlock: GEDQOX_clean_sbu_0, # of connection points: 6
#     Node 28, Type 0, BuildingBlock: GEDQOX_clean_sbu_0, # of connection points: 6
#     Node 29, Type 0, BuildingBlock: GEDQOX_clean_sbu_0, # of connection points: 6
#     Node 30, Type 0, BuildingBlock: GEDQOX_clean_sbu_0, # of connection points: 6
#     Node 31, Type 0, BuildingBlock: GEDQOX_clean_sbu_0, # of connection points: 6
#     Node 32, Type 0, BuildingBlock: GEDQOX_clean_sbu_0, # of connection points: 6
#     Node 33, Type 0, BuildingBlock: GEDQOX_clean_sbu_0, # of connection points: 6
#     Node 34, Type 0, BuildingBlock: GEDQOX_clean_sbu_0, # of connection points: 6
#     Node 35, Type 0, BuildingBlock: GEDQOX_clean_sbu_0, # of connection points: 6
#     Edge 36, Type (0, 0), BuildingBlock: CIFDUS_clean_linker_0, # of connection points: 2
#     Edge 37, Type (0, 0), BuildingBlock: CIFDUS_clean_linker_0, # of connection points: 2
#     Edge 38, Type (0, 0), BuildingBlock: CIFDUS_clean_linker_0, # of connection points: 2
#     Edge 39, Type (0, 0), BuildingBlock: CIFDUS_clean_linker_0, # of connection points: 2
#     Edge 40, Type (0, 0), BuildingBlock: CIFDUS_clean_linker_0, # of connection points: 2
#     Edge 41, Type (0, 0), BuildingBlock: CIFDUS_clean_linker_0, # of connection points: 2
#     Edge 42, Type (0, 0), BuildingBlock: CIFDUS_clean_linker_0, # of connection points: 2
#     Edge 43, Type (0, 0), BuildingBlock: CIFDUS_clean_linker_0, # of connection points: 2
#     Edge 44, Type (0, 0), BuildingBlock: CIFDUS_clean_linker_0, # of connection points: 2
#     Edge 45, Type (0, 0), BuildingBlock: CIFDUS_clean_linker_0, # of connection points: 2
#     Edge 46, Type (0, 0), BuildingBlock: CIFDUS_clean_linker_0, # of connection points: 2
#     Edge 47, Type (0, 0), BuildingBlock: CIFDUS_clean_linker_0, # of connection points: 2
#     Edge 48, Type (0, 0), BuildingBlock: CIFDUS_clean_linker_0, # of connection points: 2
#     Edge 49, Type (0, 0), BuildingBlock: CIFDUS_clean_linker_0, # of connection points: 2
#     Edge 50, Type (0, 0), BuildingBlock: CIFDUS_clean_linker_0, # of connection points: 2
#     Edge 51, Type (0, 0), BuildingBlock: CIFDUS_clean_linker_0, # of connection points: 2
#     Edge 52, Type (0, 0), BuildingBlock: CIFDUS_clean_linker_0, # of connection points: 2
#     Edge 53, Type (0, 0), BuildingBlock: CIFDUS_clean_linker_0, # of connection points: 2
#     Edge 54, Type (0, 0), BuildingBlock: CIFDUS_clean_linker_0, # of connection points: 2
#     Edge 55, Type (0, 0), BuildingBlock: CIFDUS_clean_linker_0, # of connection points: 2
#     Edge 56, Type (0, 0), BuildingBlock: CIFDUS_clean_linker_0, # of connection points: 2
#     Edge 57, Type (0, 0), BuildingBlock: CIFDUS_clean_linker_0, # of connection points: 2
#     Edge 58, Type (0, 0), BuildingBlock: CIFDUS_clean_linker_0, # of connection points: 2
#     Edge 59, Type (0, 0), BuildingBlock: CIFDUS_clean_linker_0, # of connection points: 2
#     Edge 60, Type (0, 0), BuildingBlock: CIFDUS_clean_linker_0, # of connection points: 2
#     Edge 61, Type (0, 0), BuildingBlock: CIFDUS_clean_linker_0, # of connection points: 2
#     Edge 62, Type (0, 0), BuildingBlock: CIFDUS_clean_linker_0, # of connection points: 2
#     Edge 63, Type (0, 0), BuildingBlock: CIFDUS_clean_linker_0, # of connection points: 2
#     Edge 64, Type (0, 0), BuildingBlock: CIFDUS_clean_linker_0, # of connection points: 2
#     Edge 65, Type (0, 0), BuildingBlock: CIFDUS_clean_linker_0, # of connection points: 2
#     Edge 66, Type (0, 0), BuildingBlock: CIFDUS_clean_linker_0, # of connection points: 2
#     Edge 67, Type (0, 0), BuildingBlock: CIFDUS_clean_linker_0, # of connection points: 2
#     Edge 68, Type (0, 0), BuildingBlock: CIFDUS_clean_linker_0, # of connection points: 2
#     Edge 69, Type (0, 0), BuildingBlock: CIFDUS_clean_linker_0, # of connection points: 2
#     Edge 70, Type (0, 0), BuildingBlock: CIFDUS_clean_linker_0, # of connection points: 2
#     Edge 71, Type (0, 0), BuildingBlock: CIFDUS_clean_linker_0, # of connection points: 2
#     Edge 72, Type (0, 0), BuildingBlock: CIFDUS_clean_linker_0, # of connection points: 2
#     Edge 73, Type (0, 0), BuildingBlock: CIFDUS_clean_linker_0, # of connection points: 2
#     Edge 74, Type (0, 0), BuildingBlock: CIFDUS_clean_linker_0, # of connection points: 2
#     Edge 75, Type (0, 0), BuildingBlock: CIFDUS_clean_linker_0, # of connection points: 2
#     Edge 76, Type (0, 0), BuildingBlock: CIFDUS_clean_linker_0, # of connection points: 2
#     Edge 77, Type (0, 0), BuildingBlock: CIFDUS_clean_linker_0, # of connection points: 2
#     Edge 78, Type (0, 0), BuildingBlock: CIFDUS_clean_linker_0, # of connection points: 2
#     Edge 79, Type (0, 0), BuildingBlock: CIFDUS_clean_linker_0, # of connection points: 2
#     Edge 80, Type (0, 0), BuildingBlock: CIFDUS_clean_linker_0, # of connection points: 2
#     Edge 81, Type (0, 0), BuildingBlock: CIFDUS_clean_linker_0, # of connection points: 2
#     Edge 82, Type (0, 0), BuildingBlock: CIFDUS_clean_linker_0, # of connection points: 2
#     Edge 83, Type (0, 0), BuildingBlock: CIFDUS_clean_linker_0, # of connection points: 2
#     Edge 84, Type (0, 0), BuildingBlock: CIFDUS_clean_linker_0, # of connection points: 2
#     Edge 85, Type (0, 0), BuildingBlock: CIFDUS_clean_linker_0, # of connection points: 2
#     Edge 86, Type (0, 0), BuildingBlock: CIFDUS_clean_linker_0, # of connection points: 2
#     Edge 87, Type (0, 0), BuildingBlock: CIFDUS_clean_linker_0, # of connection points: 2
#     Edge 88, Type (0, 0), BuildingBlock: CIFDUS_clean_linker_0, # of connection points: 2
#     Edge 89, Type (0, 0), BuildingBlock: CIFDUS_clean_linker_0, # of connection points: 2
#     Edge 90, Type (0, 0), BuildingBlock: CIFDUS_clean_linker_0, # of connection points: 2
#     Edge 91, Type (0, 0), BuildingBlock: CIFDUS_clean_linker_0, # of connection points: 2
#     Edge 92, Type (0, 0), BuildingBlock: CIFDUS_clean_linker_0, # of connection points: 2
#     Edge 93, Type (0, 0), BuildingBlock: CIFDUS_clean_linker_0, # of connection points: 2
#     Edge 94, Type (0, 0), BuildingBlock: CIFDUS_clean_linker_0, # of connection points: 2
#     Edge 95, Type (0, 0), BuildingBlock: CIFDUS_clean_linker_0, # of connection points: 2
#     Edge 96, Type (0, 0), BuildingBlock: CIFDUS_clean_linker_0, # of connection points: 2
#     Edge 97, Type (0, 0), BuildingBlock: CIFDUS_clean_linker_0, # of connection points: 2
#     Edge 98, Type (0, 0), BuildingBlock: CIFDUS_clean_linker_0, # of connection points: 2
#     Edge 99, Type (0, 0), BuildingBlock: CIFDUS_clean_linker_0, # of connection points: 2
#     Edge 100, Type (0, 0), BuildingBlock: CIFDUS_clean_linker_0, # of connection points: 2
#     Edge 101, Type (0, 0), BuildingBlock: CIFDUS_clean_linker_0, # of connection points: 2
#     Edge 102, Type (0, 0), BuildingBlock: CIFDUS_clean_linker_0, # of connection points: 2
#     Edge 103, Type (0, 0), BuildingBlock: CIFDUS_clean_linker_0, # of connection points: 2
#     Edge 104, Type (0, 0), BuildingBlock: CIFDUS_clean_linker_0, # of connection points: 2
#     Edge 105, Type (0, 0), BuildingBlock: CIFDUS_clean_linker_0, # of connection points: 2
#     Edge 106, Type (0, 0), BuildingBlock: CIFDUS_clean_linker_0, # of connection points: 2
#     Edge 107, Type (0, 0), BuildingBlock: CIFDUS_clean_linker_0, # of connection points: 2
#     Edge 108, Type (0, 0), BuildingBlock: CIFDUS_clean_linker_0, # of connection points: 2
#     Edge 109, Type (0, 0), BuildingBlock: CIFDUS_clean_linker_0, # of connection points: 2
#     Edge 110, Type (0, 0), BuildingBlock: CIFDUS_clean_linker_0, # of connection points: 2
#     Edge 111, Type (0, 0), BuildingBlock: CIFDUS_clean_linker_0, # of connection points: 2
#     Edge 112, Type (0, 0), BuildingBlock: CIFDUS_clean_linker_0, # of connection points: 2
#     Edge 113, Type (0, 0), BuildingBlock: CIFDUS_clean_linker_0, # of connection points: 2
#     Edge 114, Type (0, 0), BuildingBlock: CIFDUS_clean_linker_0, # of connection points: 2
#     Edge 115, Type (0, 0), BuildingBlock: CIFDUS_clean_linker_0, # of connection points: 2
#     Edge 116, Type (0, 0), BuildingBlock: CIFDUS_clean_linker_0, # of connection points: 2
#     Edge 117, Type (0, 0), BuildingBlock: CIFDUS_clean_linker_0, # of connection points: 2
#     Edge 118, Type (0, 0), BuildingBlock: CIFDUS_clean_linker_0, # of connection points: 2
#     Edge 119, Type (0, 0), BuildingBlock: CIFDUS_clean_linker_0, # of connection points: 2
#     Edge 120, Type (0, 0), BuildingBlock: CIFDUS_clean_linker_0, # of connection points: 2
#     Edge 121, Type (0, 0), BuildingBlock: CIFDUS_clean_linker_0, # of connection points: 2
#     Edge 122, Type (0, 0), BuildingBlock: CIFDUS_clean_linker_0, # of connection points: 2
#     Edge 123, Type (0, 0), BuildingBlock: CIFDUS_clean_linker_0, # of connection points: 2
#     Edge 124, Type (0, 0), BuildingBlock: CIFDUS_clean_linker_0, # of connection points: 2
#     Edge 125, Type (0, 0), BuildingBlock: CIFDUS_clean_linker_0, # of connection points: 2
#     Edge 126, Type (0, 0), BuildingBlock: CIFDUS_clean_linker_0, # of connection points: 2
#     Edge 127, Type (0, 0), BuildingBlock: CIFDUS_clean_linker_0, # of connection points: 2
#     Edge 128, Type (0, 0), BuildingBlock: CIFDUS_clean_linker_0, # of connection points: 2
#     Edge 129, Type (0, 0), BuildingBlock: CIFDUS_clean_linker_0, # of connection points: 2
#     Edge 130, Type (0, 0), BuildingBlock: CIFDUS_clean_linker_0, # of connection points: 2
#     Edge 131, Type (0, 0), BuildingBlock: CIFDUS_clean_linker_0, # of connection points: 2
#     Edge 132, Type (0, 0), BuildingBlock: CIFDUS_clean_linker_0, # of connection points: 2
#     Edge 133, Type (0, 0), BuildingBlock: CIFDUS_clean_linker_0, # of connection points: 2
#     Edge 134, Type (0, 0), BuildingBlock: CIFDUS_clean_linker_0, # of connection points: 2
#     Edge 135, Type (0, 0), BuildingBlock: CIFDUS_clean_linker_0, # of connection points: 2
#     Edge 136, Type (0, 0), BuildingBlock: CIFDUS_clean_linker_0, # of connection points: 2
#     Edge 137, Type (0, 0), BuildingBlock: CIFDUS_clean_linker_0, # of connection points: 2
#     Edge 138, Type (0, 0), BuildingBlock: CIFDUS_clean_linker_0, # of connection points: 2
#     Edge 139, Type (0, 0), BuildingBlock: CIFDUS_clean_linker_0, # of connection points: 2
#     Edge 140, Type (0, 0), BuildingBlock: CIFDUS_clean_linker_0, # of connection points: 2
#     Edge 141, Type (0, 0), BuildingBlock: CIFDUS_clean_linker_0, # of connection points: 2
#     Edge 142, Type (0, 0), BuildingBlock: CIFDUS_clean_linker_0, # of connection points: 2
#     Edge 143, Type (0, 0), BuildingBlock: CIFDUS_clean_linker_0, # of connection points: 2
# Relax obj value: 0.168
# Max RMSD: 0.206
# Mean RMSD: 0.206
data_MOF--net-wmt--node1-GEDQOX_clean_sbu_0--edge1-CIFDUS_clean_linker_0
_symmetry_space_group_name_H-M    P1
_symmetry_Int_Tables_number       1
_symmetry_cell_setting            triclinic
loop_
_symmetry_equiv_pos_as_xyz
'x, y, z'
_cell_length_a     74.445585
_cell_length_b     74.468071
_cell_length_c     33.472984
_cell_angle_alpha  90.007277
_cell_angle_beta   89.915872
_cell_angle_gamma 119.97624
loop_
_atom_site_label
_atom_site_type_symbol
_atom_site_fract_x
_atom_site_fract_y
_atom_site_fract_z
_atom_type_partial_charge
Nd0 Nd 0.03651 0.463 0.03606 0.0
Nd1 Nd 0.07217 0.49976 0.98953 0.0
C2 C 0.00937 0.44103 0.09311 0.0
C3 C 0.00734 0.44264 0.13731 0.0
C4 C 0.00945 0.46069 0.15515 0.0
C5 C 0.00742 0.46188 0.19673 0.0
C6 C 0.00345 0.4451 0.22197 0.0
C7 C 0.00145 0.42706 0.2039 0.0
C8 C 0.0033 0.42585 0.16227 0.0
C9 C 0.06808 0.45713 1.0117 0.0
C10 C 0.07318 0.50404 0.08373 0.0
C11 C 0.09992 0.52235 0.9346 0.0
C12 C 0.09729 0.52688 0.89262 0.0
C13 C 0.11189 0.52955 0.86316 0.0
C14 C 0.10848 0.5324 0.82292 0.0
C15 C 0.09035 0.53253 0.81146 0.0
C16 C 0.07608 0.53038 0.84144 0.0
C17 C 0.07942 0.52741 0.88134 0.0
C18 C 0.03824 0.50364 1.00714 0.0
C19 C 0.03249 0.46028 0.94047 0.0
O20 O 0.00755 0.45425 0.07003 0.0
O21 O 0.02396 0.4374 0.08086 0.0
O22 O 0.0487 0.44271 1.01102 0.0
O23 O 0.07067 0.47387 0.02655 0.0
O24 O 0.05347 0.48962 0.08092 0.0
O25 O 0.08586 0.50889 0.05278 0.0
O26 O 0.09471 0.5031 0.94229 0.0
O27 O 0.09332 0.53027 0.96197 0.0
O28 O 0.05708 0.51918 1.00883 0.0
O29 O 0.0384 0.48776 0.99582 0.0
O30 O 0.05202 0.47576 0.94077 0.0
O31 O 0.02151 0.45341 0.97396 0.0
H32 H 0.01272 0.47394 0.13695 0.0
H33 H 0.00873 0.47594 0.20898 0.0
H34 H -0.00123 0.41388 0.22194 0.0
H35 H 0.00168 0.41174 0.14956 0.0
H36 H 0.12571 0.52902 0.87115 0.0
H37 H 0.11971 0.53384 0.80069 0.0
H38 H 0.06214 0.5308 0.83406 0.0
H39 H 0.06781 0.52525 0.90335 0.0
Nd40 Nd 0.52348 0.56806 0.03604 0.0
Nd41 Nd 0.48715 0.56361 0.98086 0.0
C42 C 0.54803 0.56356 0.08728 0.0
C43 C 0.54794 0.56189 0.13165 0.0
C44 C 0.52944 0.549 0.15255 0.0
C45 C 0.52943 0.547 0.19419 0.0
C46 C 0.54786 0.55804 0.21639 0.0
C47 C 0.56633 0.57111 0.19534 0.0
C48 C 0.56636 0.57294 0.15354 0.0
C49 C 0.52204 0.60373 1.02164 0.0
C50 C 0.4822 0.56409 0.07669 0.0
C51 C 0.46434 0.56591 0.92254 0.0
C52 C 0.46368 0.56312 0.87879 0.0
C53 C 0.45509 0.57209 0.85405 0.0
C54 C 0.45368 0.56864 0.81264 0.0
C55 C 0.46087 0.55616 0.79532 0.0
C56 C 0.46946 0.54723 0.82047 0.0
C57 C 0.47093 0.55075 0.8616 0.0
C58 C 0.48228 0.52797 1.01393 0.0
C59 C 0.52786 0.56264 0.94053 0.0
O60 O 0.53259 0.54815 0.06878 0.0
O61 O 0.55276 0.58159 0.07184 0.0
O62 O 0.52718 0.59938 0.05574 0.0
O63 O 0.51868 0.58989 0.9965 0.0
O64 O 0.49608 0.55803 0.07785 0.0
O65 O 0.47782 0.57053 0.04293 0.0
O66 O 0.48059 0.58225 0.93723 0.0
O67 O 0.45895 0.54918 0.94355 0.0
O68 O 0.46698 0.53158 1.01048 0.0
O69 O 0.49858 0.54267 0.99971 0.0
O70 O 0.50927 0.56075 0.93578 0.0
O71 O 0.5372 0.56632 0.97574 0.0
H72 H 0.5149 0.54032 0.13673 0.0
H73 H 0.51491 0.53655 0.20883 0.0
H74 H 0.5808 0.58018 0.21115 0.0
H75 H 0.58081 0.58304 0.13829 0.0
H76 H 0.44936 0.58166 0.86677 0.0
H77 H 0.44715 0.5759 0.7942 0.0
H78 H 0.47478 0.53717 0.8085 0.0
H79 H 0.47748 0.54351 0.88007 0.0
Nd80 Nd 0.42043 0.95884 0.05155 0.0
Nd81 Nd 0.424 0.92638 0.99908 0.0
C82 C 0.4209 0.98267 0.11104 0.0
C83 C 0.42508 0.98476 0.15456 0.0
C84 C 0.43904 0.97957 0.17203 0.0
C85 C 0.44242 0.98137 0.21347 0.0
C86 C 0.43171 0.98816 0.2385 0.0
C87 C 0.41766 0.9932 0.22062 0.0
C88 C 0.41446 0.99158 0.17924 0.0
C89 C 0.38525 0.93151 1.01194 0.0
C90 C 0.42074 0.91888 0.09361 0.0
C91 C 0.42089 0.90173 0.93904 0.0
C92 C 0.42887 0.90514 0.89738 0.0
C93 C 0.4159 0.89332 0.86584 0.0
C94 C 0.42316 0.89696 0.82621 0.0
C95 C 0.4436 0.91254 0.81727 0.0
C96 C 0.45663 0.92403 0.8492 0.0
C97 C 0.44934 0.9205 0.88859 0.0
C98 C 0.45991 0.95539 0.03457 0.0
C99 C 0.4315 0.97154 0.95996 0.0
O100 O 0.43664 0.98783 0.08711 0.0
O101 O 0.40416 0.96592 0.0994 0.0
O102 O 0.39158 0.95113 1.01576 0.0
O103 O 0.39703 0.92644 0.02973 0.0
O104 O 0.42588 0.93856 0.09549 0.0
O105 O 0.41593 0.90867 0.05919 0.0
O106 O 0.40672 0.90676 0.94687 0.0
O107 O 0.43463 0.90716 0.96762 0.0
O108 O 0.45567 0.9364 0.02897 0.0
O109 O 0.44625 0.95822 1.019 0.0
O110 O 0.42732 0.95213 0.95437 0.0
O111 O 0.43206 0.97905 0.99599 0.0
H112 H 0.44724 0.97402 0.15369 0.0
H113 H 0.4535 0.9775 0.22579 0.0
H114 H 0.40873 -0.00198 0.23865 0.0
H115 H 0.40345 0.99546 0.1665 0.0
H116 H 0.40003 0.88143 0.8718 0.0
H117 H 0.4126 0.88794 0.80253 0.0
H118 H 0.47257 0.93588 0.84381 0.0
H119 H 0.45975 0.92993 0.91216 0.0
Nd120 Nd 0.46499 0.03858 0.65502 0.0
Nd121 Nd 0.50086 0.07121 0.70785 0.0
C122 C 0.44083 0.00845 0.60556 0.0
C123 C 0.43907 0.00783 0.5615 0.0
C124 C 0.42839 0.98883 0.54127 0.0
C125 C 0.42804 0.98822 0.49932 0.0
C126 C 0.43842 0.00663 0.47674 0.0
C127 C 0.44931 0.02561 0.49732 0.0
C128 C 0.44967 0.02619 0.53915 0.0
C129 C 0.46796 0.07705 0.65775 0.0
C130 C 0.50747 0.07348 0.61296 0.0
C131 C 0.52361 0.09709 0.7654 0.0
C132 C 0.5252 0.09433 0.80874 0.0
C133 C 0.53329 0.11135 0.83485 0.0
C134 C 0.53487 0.10856 0.87596 0.0
C135 C 0.52832 0.08867 0.89167 0.0
C136 C 0.52032 0.07173 0.86511 0.0
C137 C 0.51869 0.07452 0.82428 0.0
C138 C 0.50358 0.03722 0.68517 0.0
C139 C 0.45922 0.03165 0.75118 0.0
O140 O 0.45857 0.01126 0.61876 0.0
O141 O 0.4345 0.01964 0.62493 0.0
O142 O 0.46273 0.06536 0.62634 0.0
O143 O 0.4706 0.06789 0.68683 0.0
O144 O 0.49332 0.05367 0.61454 0.0
O145 O 0.51128 0.08566 0.64456 0.0
O146 O 0.50619 0.09541 0.75292 0.0
O147 O 0.53016 0.08747 0.7421 0.0
O148 O 0.5195 0.05588 0.68462 0.0
O149 O 0.48788 0.03771 0.69668 0.0
O150 O 0.47792 0.04829 0.75503 0.0
O151 O 0.45033 0.02495 0.71587 0.0
H152 H 0.42044 0.97445 0.55792 0.0
H153 H 0.4194 0.97335 0.48459 0.0
H154 H 0.45784 0.04005 0.48107 0.0
H155 H 0.45848 0.04099 0.5541 0.0
H156 H 0.53836 0.12677 0.82346 0.0
H157 H 0.54091 0.12193 0.89545 0.0
H158 H 0.51548 0.05623 0.87574 0.0
H159 H 0.51246 0.06114 0.80474 0.0
Nd160 Nd 0.95552 0.42537 0.64999 0.0
Nd161 Nd 0.91978 0.4251 0.69869 0.0
C162 C 0.98152 0.42915 0.59141 0.0
C163 C 0.98276 0.43061 0.54675 0.0
C164 C 0.98297 0.44706 0.52543 0.0
C165 C 0.98423 0.44785 0.48332 0.0
C166 C 0.98509 0.4321 0.46146 0.0
C167 C 0.98507 0.41584 0.48303 0.0
C168 C 0.98401 0.41516 0.52488 0.0
C169 C 0.9259 0.38768 0.67775 0.0
C170 C 0.91748 0.42795 0.60431 0.0
C171 C 0.89273 0.41946 0.75587 0.0
C172 C 0.89462 0.42755 0.79748 0.0
C173 C 0.8977 0.44755 0.80427 0.0
C174 C 0.9009 0.45575 0.84294 0.0
C175 C 0.901 0.4442 0.87615 0.0
C176 C 0.89704 0.42387 0.86972 0.0
C177 C 0.89393 0.41566 0.83083 0.0
C178 C 0.95135 0.46352 0.677 0.0
C179 C 0.96161 0.42817 0.74468 0.0
O180 O 0.98305 0.44484 0.61175 0.0
O181 O 0.96779 0.41136 0.60676 0.0
O182 O 0.9456 0.39402 0.67764 0.0
O183 O 0.92184 0.40075 0.66222 0.0
O184 O 0.93731 0.43369 0.60602 0.0
O185 O 0.90518 0.41981 0.63578 0.0
O186 O 0.89949 0.4065 0.74929 0.0
O187 O 0.89742 0.43278 0.72666 0.0
O188 O 0.93215 0.45903 0.67893 0.0
O189 O 0.95296 0.44842 0.68879 0.0
O190 O 0.94181 0.42322 0.74568 0.0
O191 O 0.97211 0.4326 0.71059 0.0
H192 H 0.98198 0.45923 0.54118 0.0
H193 H 0.98406 0.46054 0.46785 0.0
H194 H 0.98601 0.40358 0.46747 0.0
H195 H 0.9841 0.40241 0.54026 0.0
H196 H 0.89805 0.45713 0.7796 0.0
H197 H 0.90358 0.47134 0.8468 0.0
H198 H 0.89711 0.41459 0.89456 0.0
H199 H 0.89143 0.40014 0.82681 0.0
Nd200 Nd 0.56899 0.52967 0.64098 0.0
Nd201 Nd 0.56227 0.49193 0.69232 0.0
C202 C 0.57083 0.55439 0.58193 0.0
C203 C 0.56875 0.55371 0.53764 0.0
C204 C 0.5509 0.53845 0.51794 0.0
C205 C 0.54945 0.53839 0.47604 0.0
C206 C 0.56597 0.55339 0.4529 0.0
C207 C 0.58378 0.56855 0.47275 0.0
C208 C 0.58509 0.56876 0.5145 0.0
C209 C 0.60343 0.53301 0.67698 0.0
C210 C 0.56249 0.48711 0.59726 0.0
C211 C 0.56447 0.46836 0.74955 0.0
C212 C 0.55645 0.46128 0.7909 0.0
C213 C 0.53755 0.44279 0.79685 0.0
C214 C 0.52976 0.43604 0.83538 0.0
C215 C 0.54067 0.44744 0.86928 0.0
C216 C 0.55993 0.46558 0.86354 0.0
C217 C 0.56772 0.47243 0.82481 0.0
C218 C 0.52708 0.48877 0.66023 0.0
C219 C 0.55886 0.53172 0.73332 0.0
O220 O 0.55416 0.54325 0.60337 0.0
O221 O 0.58711 0.55429 0.59628 0.0
O222 O 0.59935 0.54802 0.67513 0.0
O223 O 0.58986 0.5169 0.65946 0.0
O224 O 0.55965 0.5032 0.59667 0.0
O225 O 0.56782 0.48131 0.63061 0.0
O226 O 0.57858 0.48787 0.74432 0.0
O227 O 0.55095 0.46116 0.72042 0.0
O228 O 0.52932 0.47274 0.66596 0.0
O229 O 0.54221 0.50468 0.67452 0.0
O230 O 0.56138 0.51535 0.7383 0.0
O231 O 0.55912 0.53938 0.69753 0.0
H232 H 0.53813 0.52649 0.5348 0.0
H233 H 0.53559 0.52638 0.46172 0.0
H234 H 0.5967 0.58044 0.45593 0.0
H235 H 0.59899 0.58073 0.52879 0.0
H236 H 0.52861 0.43353 0.77165 0.0
H237 H 0.51503 0.42183 0.83862 0.0
H238 H 0.56869 0.47482 0.88891 0.0
H239 H 0.58249 0.48657 0.82145 0.0
Nd240 Nd 0.92554 0.49116 0.19833 0.0
Nd241 Nd 0.95827 0.52704 0.14852 0.0
C242 C 0.89896 0.46873 0.25531 0.0
C243 C 0.90157 0.4647 0.29764 0.0
C244 C 0.88556 0.45937 0.32552 0.0
C245 C 0.88838 0.4562 0.36591 0.0
C246 C 0.90731 0.45835 0.37919 0.0
C247 C 0.92314 0.46337 0.35077 0.0
C248 C 0.92036 0.46665 0.31068 0.0
C249 C 0.95906 0.48773 0.1762 0.0
C250 C 0.96696 0.53154 0.24246 0.0
C251 C 0.9854 0.55009 0.09281 0.0
C252 C 0.98829 0.54863 0.04945 0.0
C253 C 0.98358 0.52973 0.03142 0.0
C254 C 0.98642 0.52868 0.99026 0.0
C255 C -0.00639 0.54646 0.96618 0.0
C256 C -0.00181 0.56532 0.98436 0.0
C257 C -0.00436 0.5664 1.02556 0.0
C258 C 0.92637 0.53254 0.17433 0.0
C259 C 0.92193 0.48528 0.10315 0.0
O260 O 0.90344 0.48768 0.24666 0.0
O261 O 0.90614 0.46102 0.22867 0.0
O262 O 0.94033 0.47196 0.17576 0.0
O263 O 0.95896 0.5035 0.18832 0.0
O264 O 0.94798 0.51514 0.24592 0.0
O265 O 0.97546 0.53855 0.20714 0.0
O266 O 0.98781 0.53735 0.11611 0.0
O267 O 0.96972 0.55233 0.1034 0.0
O268 O 0.94578 0.54689 0.17383 0.0
O269 O 0.92405 0.51565 0.16075 0.0
O270 O 0.94124 0.50074 0.10336 0.0
O271 O 0.91053 0.4797 0.13617 0.0
H272 H 0.87096 0.45789 0.31614 0.0
H273 H 0.87591 0.45257 0.38683 0.0
H274 H 0.93779 0.46476 0.35943 0.0
H275 H 0.93299 0.47082 0.28982 0.0
H276 H 0.97749 0.51574 0.04909 0.0
H277 H 0.98255 0.51388 0.97714 0.0
H278 H 0.00396 0.57934 0.96673 0.0
H279 H -0.00066 0.58113 0.03878 0.0
Nd280 Nd 0.50022 0.42682 0.19282 0.0
Nd281 Nd 0.46614 0.42772 0.14202 0.0
C282 C 0.52006 0.42052 0.25207 0.0
C283 C 0.52509 0.42856 0.29352 0.0
C284 C 0.52865 0.44848 0.3025 0.0
C285 C 0.53263 0.45589 0.34172 0.0
C286 C 0.53283 0.44348 0.37335 0.0
C287 C 0.52959 0.42361 0.36419 0.0
C288 C 0.52574 0.41622 0.32465 0.0
C289 C 0.50997 0.46478 0.16332 0.0
C290 C 0.46451 0.43711 0.23383 0.0
C291 C 0.44468 0.43167 0.08302 0.0
C292 C 0.44713 0.43472 0.03894 0.0
C293 C 0.45867 0.45464 1.02226 0.0
C294 C 0.46121 0.45742 0.9808 0.0
C295 C 0.45196 0.4403 0.95478 0.0
C296 C 0.44008 0.42038 0.97156 0.0
C297 C 0.43773 0.41763 1.01299 0.0
C298 C 0.45502 0.39093 0.17858 0.0
C299 C 0.50433 0.4253 0.0977 0.0
O300 O 0.50042 0.40796 0.24432 0.0
O301 O 0.52945 0.43406 0.22351 0.0
O302 O 0.52364 0.45886 0.16591 0.0
O303 O 0.49297 0.45129 0.17741 0.0
O304 O 0.47865 0.43127 0.2386 0.0
O305 O 0.45842 0.4393 0.1981 0.0
O306 O 0.45737 0.44715 0.1058 0.0
O307 O 0.44114 0.41374 0.09676 0.0
O308 O 0.44315 0.39902 0.17593 0.0
O309 O 0.47219 0.4018 0.16092 0.0
O310 O 0.49117 0.43221 0.09746 0.0
O311 O 0.50896 0.41899 0.13124 0.0
H312 H 0.52817 0.45832 0.27917 0.0
H313 H 0.53546 0.47142 0.34723 0.0
H314 H 0.52945 0.41354 0.38767 0.0
H315 H 0.52295 0.40076 0.31846 0.0
H316 H 0.46575 0.4681 0.0413 0.0
H317 H 0.47058 0.473 0.96925 0.0
H318 H 0.43228 0.40682 0.95267 0.0
H319 H 0.42844 0.40207 1.02468 0.0
Nd320 Nd 0.56438 0.07294 0.20791 0.0
Nd321 Nd 0.56127 0.03735 0.15174 0.0
C322 C 0.57238 0.10021 0.26586 0.0
C323 C 0.56419 0.09769 0.30714 0.0
C324 C 0.54337 0.08313 0.31525 0.0
C325 C 0.53582 0.07964 0.35438 0.0
C326 C 0.54893 0.09034 0.38671 0.0
C327 C 0.56969 0.10533 0.3785 0.0
C328 C 0.57724 0.10893 0.33905 0.0
C329 C 0.52491 0.04155 0.19124 0.0
C330 C 0.56411 0.03188 0.24904 0.0
C331 C 0.55153 0.00746 0.09819 0.0
C332 C 0.55058 0.00579 0.05321 0.0
C333 C 0.53407 0.00542 0.03185 0.0
C334 C 0.53255 0.00298 0.99009 0.0
C335 C 0.54745 0.00078 0.96784 0.0
C336 C 0.56414 0.00144 0.9891 0.0
C337 C 0.56563 0.0038 0.03108 0.0
C338 C 0.59878 0.07433 0.15021 0.0
C339 C 0.5566 0.07495 0.11495 0.0
O340 O 0.58407 0.09209 0.25855 0.0
O341 O 0.5592 0.09672 0.23703 0.0
O342 O 0.52962 0.06072 0.19545 0.0
O343 O 0.54059 0.03985 0.1975 0.0
O344 O 0.56453 0.0498 0.25324 0.0
O345 O 0.56272 0.02328 0.21331 0.0
O346 O 0.53804 0.01134 0.1154 0.0
O347 O 0.56973 0.01717 0.11579 0.0
O348 O 0.59055 0.06242 0.11958 0.0
O349 O 0.58778 0.06595 0.1805 0.0
O350 O 0.54821 0.05463 0.11686 0.0
O351 O 0.56812 0.08701 0.14463 0.0
H352 H 0.53292 0.07414 0.29136 0.0
H353 H 0.51966 0.06827 0.35934 0.0
H354 H 0.58025 0.11374 0.40263 0.0
H355 H 0.5934 0.12016 0.33356 0.0
H356 H 0.52211 0.00689 0.04739 0.0
H357 H 0.51962 0.00293 0.97521 0.0
H358 H 0.57586 -0.0004 0.97343 0.0
H359 H 0.57848 0.00384 0.04629 0.0
Nd360 Nd 0.48652 0.92467 0.49391 0.0
Nd361 Nd 0.52336 0.95884 0.54365 0.0
C362 C 0.46253 0.89738 0.43903 0.0
C363 C 0.45809 0.89929 0.39661 0.0
C364 C 0.44635 0.8816 0.373 0.0
C365 C 0.44061 0.88351 0.33388 0.0
C366 C 0.44636 0.90315 0.31794 0.0
C367 C 0.45882 0.92083 0.34127 0.0
C368 C 0.46463 0.91892 0.38008 0.0
C369 C 0.48452 0.95974 0.51158 0.0
C370 C 0.52808 0.9618 0.44582 0.0
C371 C 0.54696 0.98851 0.59487 0.0
C372 C 0.5486 0.98987 0.63982 0.0
C373 C 0.53291 0.98989 0.66355 0.0
C374 C 0.5347 0.99181 0.70543 0.0
C375 C 0.55226 0.99374 0.72538 0.0
C376 C 0.5678 0.99337 0.70158 0.0
C377 C 0.56603 0.99156 0.65963 0.0
C378 C 0.51966 0.91986 0.54535 0.0
C379 C 0.48121 0.92492 0.5884 0.0
O380 O 0.48122 0.90108 0.44739 0.0
O381 O 0.45592 0.90595 0.46481 0.0
O382 O 0.46846 0.94123 0.51288 0.0
O383 O 0.50014 0.95874 0.50135 0.0
O384 O 0.50936 0.94507 0.44473 0.0
O385 O 0.53738 0.97061 0.4802 0.0
O386 O 0.5299 0.98646 0.57928 0.0
O387 O 0.55354 0.97739 0.57593 0.0
O388 O 0.52516 0.93243 0.57536 0.0
O389 O 0.5169 0.92838 0.51541 0.0
O390 O 0.49487 0.94477 0.58417 0.0
O391 O 0.47728 0.91181 0.55839 0.0
H392 H 0.44115 0.8663 0.38518 0.0
H393 H 0.43096 0.86961 0.31678 0.0
H394 H 0.46375 0.9362 0.32975 0.0
H395 H 0.47376 0.93281 0.39761 0.0
H396 H 0.5192 0.98859 0.64976 0.0
H397 H 0.52244 0.99227 0.722 0.0
H398 H 0.58142 0.99439 0.71533 0.0
H399 H 0.57842 0.99156 0.64262 0.0
Nd400 Nd 0.07086 0.5599 0.49148 0.0
Nd401 Nd 0.03868 0.56369 0.54261 0.0
C402 C 0.0967 0.56409 0.43307 0.0
C403 C 0.09346 0.55659 0.39129 0.0
C404 C 0.10749 0.56854 0.36111 0.0
C405 C 0.10382 0.56186 0.32117 0.0
C406 C 0.08598 0.54311 0.31068 0.0
C407 C 0.07222 0.53104 0.34133 0.0
C408 C 0.07582 0.53776 0.381 0.0
C409 C 0.03948 0.52319 0.51975 0.0
C410 C 0.02732 0.55571 0.45046 0.0
C411 C 0.0139 0.56365 0.59973 0.0
C412 C 0.01142 0.56171 0.64379 0.0
C413 C 0.00708 0.54344 0.66422 0.0
C414 C 0.00367 0.54178 0.70566 0.0
C415 C 0.00458 0.55838 0.72757 0.0
C416 C 0.00952 0.57679 0.70704 0.0
C417 C 0.01275 0.57837 0.66576 0.0
C418 C 0.06957 0.59985 0.51045 0.0
C419 C 0.07546 0.5587 0.58624 0.0
O420 O 0.09154 0.57813 0.44117 0.0
O421 O 0.09082 0.5499 0.46092 0.0
O422 O 0.05833 0.52669 0.51574 0.0
O423 O 0.03803 0.53815 0.50652 0.0
O424 O 0.04666 0.55943 0.44551 0.0
O425 O 0.0194 0.55439 0.48628 0.0
O426 O 0.01003 0.54718 0.57918 0.0
O427 O 0.02985 0.58053 0.58597 0.0
O428 O 0.05008 0.59444 0.51024 0.0
O429 O 0.0724 0.58626 0.52705 0.0
O430 O 0.05605 0.55453 0.58671 0.0
O431 O 0.08681 0.56519 0.5532 0.0
H432 H 0.12113 0.58319 0.36834 0.0
H433 H 0.11464 0.57167 0.29843 0.0
H434 H 0.05854 0.51633 0.33469 0.0
H435 H 0.06467 0.52828 0.40364 0.0
H436 H 0.00606 0.53036 0.64821 0.0
H437 H -0.0002 0.52732 0.72029 0.0
H438 H 0.01087 0.59009 0.72287 0.0
H439 H 0.01613 0.59264 0.65087 0.0
Nd440 Nd 0.42712 0.5048 0.48033 0.0
Nd441 Nd 0.42992 0.47339 0.53477 0.0
C442 C 0.41842 0.52318 0.42172 0.0
C443 C 0.42527 0.52774 0.37969 0.0
C444 C 0.41986 0.5398 0.35577 0.0
C445 C 0.42781 0.54541 0.31683 0.0
C446 C 0.44142 0.53915 0.30138 0.0
C447 C 0.44615 0.52644 0.32512 0.0
C448 C 0.43824 0.52089 0.36383 0.0
C449 C 0.46665 0.51465 0.50088 0.0
C450 C 0.4327 0.46578 0.44215 0.0
C451 C 0.43674 0.45432 0.59483 0.0
C452 C 0.44262 0.45856 0.63746 0.0
C453 C 0.45653 0.45304 0.65378 0.0
C454 C 0.46097 0.45539 0.69475 0.0
C455 C 0.45144 0.46317 0.72043 0.0
C456 C 0.43817 0.46952 0.70352 0.0
C457 C 0.4339 0.46734 0.66252 0.0
C458 C 0.39056 0.46228 0.51054 0.0
C459 C 0.43178 0.51453 0.57324 0.0
O460 O 0.40664 0.50357 0.43091 0.0
O461 O 0.43286 0.53327 0.44835 0.0
O462 O 0.46106 0.52855 0.4978 0.0
O463 O 0.45186 0.49721 0.49173 0.0
O464 O 0.42726 0.48015 0.43677 0.0
O465 O 0.43654 0.46124 0.47804 0.0
O466 O 0.45087 0.46562 0.56854 0.0
O467 O 0.41835 0.45108 0.58512 0.0
O468 O 0.39799 0.44981 0.51217 0.0
O469 O 0.40386 0.48032 0.5218 0.0
O470 O 0.43931 0.50188 0.57362 0.0
O471 O 0.42199 0.51598 0.5415 0.0
H472 H 0.40989 0.54528 0.36753 0.0
H473 H 0.42396 0.55528 0.29943 0.0
H474 H 0.4563 0.52105 0.31397 0.0
H475 H 0.44265 0.51161 0.38176 0.0
H476 H 0.46364 0.44648 0.63494 0.0
H477 H 0.47167 0.45082 0.70634 0.0
H478 H 0.4304 0.47545 0.72212 0.0
H479 H 0.42332 0.472 0.65065 0.0
Nd480 Nd 0.69013 0.79375 0.39328 0.0
Nd481 Nd 0.72583 0.82208 0.33843 0.0
C482 C 0.66192 0.778 0.45096 0.0
C483 C 0.6611 0.77898 0.49517 0.0
C484 C 0.66829 0.79788 0.51557 0.0
C485 C 0.66712 0.79827 0.55737 0.0
C486 C 0.6589 0.77979 0.57972 0.0
C487 C 0.65179 0.76096 0.55916 0.0
C488 C 0.65282 0.76056 0.51744 0.0
C489 C 0.71703 0.77966 0.37781 0.0
C490 C 0.73091 0.83393 0.4318 0.0
C491 C 0.75319 0.83903 0.27927 0.0
C492 C 0.75138 0.84287 0.23627 0.0
C493 C 0.73236 0.83157 0.21639 0.0
C494 C 0.73005 0.83638 0.17697 0.0
C495 C 0.74664 0.85287 0.15636 0.0
C496 C 0.76592 0.86374 0.17588 0.0
C497 C 0.76824 0.85882 0.21546 0.0
C498 C 0.69628 0.83335 0.35056 0.0
C499 C 0.68155 0.78261 0.30135 0.0
O500 O 0.66601 0.79464 0.43075 0.0
O501 O 0.67111 0.76842 0.43615 0.0
O502 O 0.69705 0.76812 0.38 0.0
O503 O 0.72287 0.79854 0.38469 0.0
O504 O 0.71071 0.82151 0.43245 0.0
O505 O 0.74199 0.83486 0.3999 0.0
O506 O 0.74527 0.81967 0.29046 0.0
O507 O 0.74886 0.84976 0.30443 0.0
O508 O 0.71598 0.84666 0.35063 0.0
O509 O 0.69349 0.81562 0.34447 0.0
O510 O 0.70188 0.79528 0.29681 0.0
O511 O 0.67239 0.78129 0.3358 0.0
H512 H 0.67487 0.81236 0.49932 0.0
H513 H 0.6729 0.81307 0.57221 0.0
H514 H 0.6451 0.74642 0.57531 0.0
H515 H 0.64707 0.74579 0.50249 0.0
H516 H 0.71907 0.81933 0.23171 0.0
H517 H 0.71504 0.82739 0.16287 0.0
H518 H 0.77898 0.87661 0.1612 0.0
H519 H 0.78306 0.86786 0.23022 0.0
Nd520 Nd 0.19173 0.90059 0.37533 0.0
Nd521 Nd 0.15515 0.89488 0.32311 0.0
C522 C 0.21547 0.89899 0.43243 0.0
C523 C 0.21351 0.89413 0.47556 0.0
C524 C 0.19531 0.8776 0.49154 0.0
C525 C 0.19373 0.87313 0.53243 0.0
C526 C 0.21018 0.88545 0.55854 0.0
C527 C 0.22826 0.90228 0.54231 0.0
C528 C 0.22994 0.90644 0.50129 0.0
C529 C 0.19469 0.93647 0.34705 0.0
C530 C 0.14843 0.89239 0.41826 0.0
C531 C 0.13227 0.89779 0.2655 0.0
C532 C 0.13 0.89349 0.22205 0.0
C533 C 0.14633 0.89419 0.19983 0.0
C534 C 0.14361 0.88835 0.15961 0.0
C535 C 0.12443 0.88159 0.14057 0.0
C536 C 0.10829 0.88165 0.16247 0.0
C537 C 0.11105 0.88747 0.2029 0.0
C538 C 0.15357 0.85921 0.34792 0.0
C539 C 0.19777 0.89664 0.28247 0.0
O540 O 0.2045 0.8836 0.408 0.0
O541 O 0.2157 0.91606 0.4223 0.0
O542 O 0.21013 0.93304 0.34945 0.0
O543 O 0.17828 0.92137 0.36079 0.0
O544 O 0.1646 0.88965 0.41884 0.0
O545 O 0.14248 0.8975 0.38484 0.0
O546 O 0.14994 0.91343 0.27748 0.0
O547 O 0.12573 0.88159 0.28877 0.0
O548 O 0.13714 0.86109 0.34644 0.0
O549 O 0.16908 0.87537 0.33573 0.0
O550 O 0.1809 0.89834 0.2777 0.0
O551 O 0.20448 0.89538 0.31814 0.0
H552 H 0.18227 0.86824 0.47242 0.0
H553 H 0.1796 0.85997 0.54341 0.0
H554 H 0.24108 0.91254 0.5613 0.0
H555 H 0.24404 0.91946 0.4897 0.0
H556 H 0.16109 0.89885 0.21379 0.0
H557 H 0.15646 0.88875 0.14357 0.0
H558 H 0.09329 0.87637 0.14885 0.0
H559 H 0.0982 0.88675 0.2195 0.0
Nd560 Nd 0.08296 0.29158 0.3754 0.0
Nd561 Nd 0.08556 0.25733 0.32574 0.0
C562 C 0.08849 0.3183 0.43357 0.0
C563 C 0.08907 0.31905 0.47846 0.0
C564 C 0.10669 0.32229 0.50018 0.0
C565 C 0.10738 0.32419 0.54216 0.0
C566 C 0.09053 0.323 0.56381 0.0
C567 C 0.0728 0.31931 0.54195 0.0
C568 C 0.07213 0.31748 0.50012 0.0
C569 C 0.04601 0.25723 0.35771 0.0
C570 C 0.09246 0.25724 0.42044 0.0
C571 C 0.08052 0.22974 0.26995 0.0
C572 C 0.08493 0.2312 0.22636 0.0
C573 C 0.08704 0.24815 0.20425 0.0
C574 C 0.0929 0.2506 0.164 0.0
C575 C 0.09719 0.23633 0.14467 0.0
C576 C 0.0944 0.21892 0.16648 0.0
C577 C 0.08838 0.21643 0.20696 0.0
C578 C 0.12258 0.29272 0.33997 0.0
C579 C 0.08159 0.29569 0.28012 0.0
O580 O 0.10373 0.3179 0.41485 0.0
O581 O 0.07057 0.30652 0.41626 0.0
O582 O 0.04885 0.27591 0.35781 0.0
O583 O 0.06196 0.25672 0.36867 0.0
O584 O 0.09452 0.27586 0.41873 0.0
O585 O 0.08572 0.24454 0.3892 0.0
O586 O 0.06569 0.2332 0.28156 0.0
O587 O 0.09676 0.23872 0.29323 0.0
O588 O 0.12067 0.27442 0.33848 0.0
O589 O 0.10564 0.29154 0.33179 0.0
O590 O 0.07781 0.27623 0.2798 0.0
O591 O 0.08674 0.30667 0.31366 0.0
H592 H 0.12013 0.3237 0.48474 0.0
H593 H 0.12141 0.32718 0.55748 0.0
H594 H 0.05928 0.31783 0.55716 0.0
H595 H 0.05833 0.31504 0.48462 0.0
H596 H 0.08468 0.25983 0.21837 0.0
H597 H 0.09453 0.26403 0.14821 0.0
H598 H 0.0977 0.20771 0.1528 0.0
H599 H 0.08697 0.20326 0.2234 0.0
Nd600 Nd 0.13115 0.36774 0.98581 0.0
Nd601 Nd 0.1689 0.39943 0.03741 0.0
C602 C 0.10607 0.33868 0.93494 0.0
C603 C 0.10547 0.33681 0.8902 0.0
C604 C 0.12286 0.33935 0.86861 0.0
C605 C 0.12216 0.33686 0.82694 0.0
C606 C 0.10405 0.33184 0.80515 0.0
C607 C 0.08673 0.32965 0.82667 0.0
C608 C 0.08742 0.33203 0.86857 0.0
C609 C 0.13779 0.40786 0.98673 0.0
C610 C 0.17477 0.39991 0.94289 0.0
C611 C 0.19362 0.42469 0.09395 0.0
C612 C 0.19716 0.42144 0.13631 0.0
C613 C 0.20159 0.43679 0.16523 0.0
C614 C 0.20441 0.43338 0.20551 0.0
C615 C 0.2028 0.41452 0.21763 0.0
C616 C 0.19878 0.39941 0.18822 0.0
C617 C 0.19583 0.40275 0.14827 0.0
C618 C 0.16766 0.36286 1.01847 0.0
C619 C 0.12518 0.36428 0.08303 0.0
O620 O 0.12169 0.33866 0.95282 0.0
O621 O 0.10142 0.35192 0.95117 0.0
O622 O 0.1316 0.39576 0.9559 0.0
O623 O 0.13971 0.39835 1.01596 0.0
O624 O 0.15983 0.38042 0.94583 0.0
O625 O 0.17932 0.4128 0.97353 0.0
O626 O 0.17562 0.4228 0.08536 0.0
O627 O 0.19953 0.4159 0.06723 0.0
O628 O 0.18467 0.38066 1.0181 0.0
O629 O 0.15286 0.36531 0.02854 0.0
O630 O 0.14467 0.37967 0.08526 0.0
O631 O 0.11584 0.3565 0.04824 0.0
H632 H 0.1371 0.34319 0.88393 0.0
H633 H 0.13595 0.33903 0.81175 0.0
H634 H 0.07243 0.32562 0.81124 0.0
H635 H 0.07373 0.32991 0.88414 0.0
H636 H 0.20263 0.45132 0.15674 0.0
H637 H 0.2073 0.44529 0.22725 0.0
H638 H 0.19785 0.38485 0.19604 0.0
H639 H 0.1924 0.39059 0.12672 0.0
Nd640 Nd 0.61799 0.75837 0.99701 0.0
Nd641 Nd 0.58714 0.76394 0.05245 0.0
C642 C 0.64744 0.7626 0.94733 0.0
C643 C 0.64967 0.76325 0.90299 0.0
C644 C 0.65659 0.78198 0.88203 0.0
C645 C 0.65847 0.78275 0.84038 0.0
C646 C 0.65355 0.7648 0.81833 0.0
C647 C 0.64666 0.74605 0.8393 0.0
C648 C 0.64481 0.7453 0.88105 0.0
C649 C 0.57857 0.72434 1.00314 0.0
C650 C 0.58526 0.76943 0.95717 0.0
C651 C 0.56202 0.7625 0.11059 0.0
C652 C 0.56398 0.76622 0.1542 0.0
C653 C 0.5496 0.76979 0.17479 0.0
C654 C 0.55301 0.77627 0.21486 0.0
C655 C 0.57098 0.77944 0.2349 0.0
C656 C 0.58478 0.77483 0.21463 0.0
C657 C 0.58135 0.76839 0.17475 0.0
C658 C 0.62245 0.79949 0.03064 0.0
C659 C 0.62473 0.75692 0.09196 0.0
O660 O 0.64683 0.77828 0.96367 0.0
O661 O 0.63441 0.74478 0.96406 0.0
O662 O 0.58943 0.72973 0.97047 0.0
O663 O 0.58895 0.73641 0.03088 0.0
O664 O 0.60465 0.77368 0.9582 0.0
O665 O 0.573 0.7615 0.98898 0.0
O666 O 0.56236 0.74612 0.09739 0.0
O667 O 0.57324 0.77884 0.08861 0.0
O668 O 0.60439 0.79817 0.03152 0.0
O669 O 0.62086 0.78256 0.04042 0.0
O670 O 0.60914 0.7606 0.09736 0.0
O671 O 0.631 0.75492 0.05615 0.0
H672 H 0.66061 0.79614 0.89782 0.0
H673 H 0.66414 0.79755 0.82558 0.0
H674 H 0.64247 0.73182 0.82342 0.0
H675 H 0.63948 0.73062 0.89611 0.0
H676 H 0.53615 0.76837 0.15942 0.0
H677 H 0.54217 0.77983 0.22946 0.0
H678 H 0.59865 0.77685 0.22925 0.0
H679 H 0.59271 0.76588 0.15957 0.0
Nd680 Nd 0.22695 0.85769 0.98116 0.0
Nd681 Nd 0.22543 0.8235 0.03344 0.0
C682 C 0.22153 0.87914 0.92412 0.0
C683 C 0.22112 0.87906 0.87989 0.0
C684 C 0.20599 0.86199 0.85817 0.0
C685 C 0.20623 0.8622 0.81632 0.0
C686 C 0.2217 0.87938 0.79542 0.0
C687 C 0.23666 0.89645 0.81722 0.0
C688 C 0.23631 0.89632 0.85895 0.0
C689 C 0.26512 0.86392 1.00281 0.0
C690 C 0.2212 0.81538 0.93868 0.0
C691 C 0.23 0.8016 0.091 0.0
C692 C 0.22236 0.7955 0.13285 0.0
C693 C 0.23421 0.80718 0.1658 0.0
C694 C 0.22645 0.80176 0.20496 0.0
C695 C 0.20666 0.78458 0.21201 0.0
C696 C 0.19518 0.77254 0.17916 0.0
C697 C 0.20293 0.77785 0.14024 0.0
C698 C 0.18766 0.81922 1.01439 0.0
C699 C 0.22569 0.86521 0.07406 0.0
O700 O 0.20622 0.8635 0.94259 0.0
O701 O 0.23949 0.885 0.94082 0.0
O702 O 0.26018 0.87831 1.00102 0.0
O703 O 0.2502 0.84656 0.9921 0.0
O704 O 0.21711 0.83064 0.93827 0.0
O705 O 0.22849 0.81116 0.97137 0.0
O706 O 0.24353 0.82113 0.08412 0.0
O707 O 0.21621 0.79339 0.0625 0.0
O708 O 0.19087 0.80363 1.01499 0.0
O709 O 0.20377 0.83535 1.02442 0.0
O710 O 0.22943 0.84958 0.07858 0.0
O711 O 0.22169 0.87007 0.03868 0.0
H712 H 0.19408 0.84842 0.87339 0.0
H713 H 0.19455 0.84878 0.80033 0.0
H714 H 0.24858 0.91003 0.80196 0.0
H715 H 0.24804 0.90972 0.87491 0.0
H716 H 0.24933 0.82073 0.16131 0.0
H717 H 0.23564 0.81142 0.22956 0.0
H718 H 0.18 0.75904 0.18354 0.0
H719 H 0.19348 0.76823 0.11585 0.0
Nd720 Nd 0.59244 0.83355 0.55099 0.0
Nd721 Nd 0.62478 0.86978 0.49821 0.0
C722 C 0.56619 0.81173 0.6091 0.0
C723 C 0.5679 0.80877 0.65243 0.0
C724 C 0.55333 0.79036 0.6715 0.0
C725 C 0.55588 0.78674 0.71176 0.0
C726 C 0.57316 0.80143 0.73356 0.0
C727 C 0.58727 0.82017 0.71464 0.0
C728 C 0.58469 0.82376 0.67459 0.0
C729 C 0.62508 0.82976 0.52445 0.0
C730 C 0.63544 0.87443 0.59086 0.0
C731 C 0.64986 0.89111 0.43869 0.0
C732 C 0.65254 0.8871 0.3961 0.0
C733 C 0.66816 0.8827 0.38512 0.0
C734 C 0.67117 0.87941 0.34505 0.0
C735 C 0.65893 0.8809 0.3146 0.0
C736 C 0.64315 0.88513 0.32575 0.0
C737 C 0.63996 0.88812 0.36589 0.0
C738 C 0.59393 0.87495 0.52975 0.0
C739 C 0.58808 0.82685 0.45633 0.0
O740 O 0.56969 0.83005 0.59772 0.0
O741 O 0.57477 0.80422 0.58525 0.0
O742 O 0.60641 0.81392 0.52698 0.0
O743 O 0.62548 0.84576 0.53678 0.0
O744 O 0.6164 0.85824 0.59592 0.0
O745 O 0.64336 0.88121 0.55508 0.0
O746 O 0.6546 0.88149 0.46579 0.0
O747 O 0.63327 0.89207 0.44805 0.0
O748 O 0.61307 0.88983 0.52684 0.0
O749 O 0.59121 0.85827 0.51455 0.0
O750 O 0.60727 0.84249 0.45584 0.0
O751 O 0.57676 0.82161 0.48946 0.0
H752 H 0.54027 0.77854 0.65495 0.0
H753 H 0.54484 0.77209 0.72525 0.0
H754 H 0.60063 0.83195 0.73061 0.0
H755 H 0.59611 0.83808 0.66071 0.0
H756 H 0.67829 0.88206 0.40754 0.0
H757 H 0.68326 0.87587 0.33801 0.0
H758 H 0.6336 0.88681 0.30339 0.0
H759 H 0.62785 0.89162 0.37309 0.0
Nd760 Nd 0.16129 0.75791 0.53464 0.0
Nd761 Nd 0.12684 0.75874 0.48648 0.0
C762 C 0.183 0.75206 0.59063 0.0
C763 C 0.18795 0.75964 0.63247 0.0
C764 C 0.191 0.77928 0.6425 0.0
C765 C 0.19457 0.78617 0.68209 0.0
C766 C 0.19487 0.77351 0.71311 0.0
C767 C 0.19227 0.75399 0.70294 0.0
C768 C 0.1888 0.74712 0.66301 0.0
C769 C 0.16595 0.79651 0.52239 0.0
C770 C 0.12004 0.75533 0.581 0.0
C771 C 0.10627 0.76609 0.42981 0.0
C772 C 0.10713 0.76819 0.38523 0.0
C773 C 0.12405 0.78477 0.36576 0.0
C774 C 0.12447 0.78683 0.324 0.0
C775 C 0.10805 0.7722 0.30011 0.0
C776 C 0.09117 0.75551 0.31973 0.0
C777 C 0.09069 0.75361 0.36159 0.0
C778 C 0.12018 0.71969 0.50138 0.0
C779 C 0.16833 0.76345 0.44036 0.0
O780 O 0.16356 0.7386 0.58312 0.0
O781 O 0.19142 0.76615 0.56263 0.0
O782 O 0.1813 0.79296 0.52094 0.0
O783 O 0.14967 0.7802 0.53107 0.0
O784 O 0.13507 0.75066 0.58083 0.0
O785 O 0.11504 0.76169 0.54807 0.0
O786 O 0.12147 0.78068 0.45048 0.0
O787 O 0.10008 0.74765 0.44458 0.0
O788 O 0.10612 0.7251 0.50347 0.0
O789 O 0.13755 0.73489 0.49135 0.0
O790 O 0.15376 0.76856 0.44228 0.0
O791 O 0.17287 0.75566 0.47179 0.0
H792 H 0.19035 0.78928 0.61973 0.0
H793 H 0.1969 0.80145 0.68842 0.0
H794 H 0.19225 0.74377 0.72596 0.0
H795 H 0.1864 0.73186 0.65608 0.0
H796 H 0.13702 0.79624 0.3828 0.0
H797 H 0.13767 0.8001 0.31059 0.0
H798 H 0.07836 0.74365 0.30279 0.0
H799 H 0.0774 0.74062 0.37551 0.0
Nd800 Nd 0.23258 0.39398 0.53604 0.0
Nd801 Nd 0.23216 0.36013 0.48218 0.0
C802 C 0.23899 0.42006 0.59552 0.0
C803 C 0.2309 0.4174 0.63696 0.0
C804 C 0.24376 0.42957 0.66834 0.0
C805 C 0.23628 0.42646 0.70782 0.0
C806 C 0.21576 0.41106 0.71672 0.0
C807 C 0.20285 0.39928 0.68488 0.0
C808 C 0.21035 0.40229 0.64569 0.0
C809 C 0.19426 0.3636 0.51195 0.0
C810 C 0.22615 0.34892 0.57497 0.0
C811 C 0.22751 0.33508 0.42165 0.0
C812 C 0.22292 0.33378 0.37836 0.0
C813 C 0.21742 0.31542 0.35754 0.0
C814 C 0.2143 0.3143 0.31611 0.0
C815 C 0.21657 0.33154 0.29446 0.0
C816 C 0.22153 0.34979 0.31571 0.0
C817 C 0.22475 0.35091 0.35716 0.0
C818 C 0.26989 0.38805 0.51295 0.0
C819 C 0.22948 0.399 0.4422 0.0
O820 O 0.25133 0.41266 0.58797 0.0
O821 O 0.22561 0.41616 0.5668 0.0
O822 O 0.19887 0.38283 0.51489 0.0
O823 O 0.20919 0.36162 0.52273 0.0
O824 O 0.23107 0.36863 0.5805 0.0
O825 O 0.22362 0.34089 0.53881 0.0
O826 O 0.2125 0.33178 0.44628 0.0
O827 O 0.24543 0.35046 0.43298 0.0
O828 O 0.26301 0.36828 0.51031 0.0
O829 O 0.25725 0.39298 0.49849 0.0
O830 O 0.22317 0.37906 0.44198 0.0
O831 O 0.238 0.41037 0.47459 0.0
H832 H 0.2597 0.44129 0.66238 0.0
H833 H 0.24673 0.43571 0.73146 0.0
H834 H 0.18685 0.38757 0.69021 0.0
H835 H 0.20005 0.39262 0.62221 0.0
H836 H 0.21583 0.30198 0.37328 0.0
H837 H 0.21013 0.29987 0.301 0.0
H838 H 0.22355 0.36344 0.30018 0.0
H839 H 0.22911 0.36531 0.37248 0.0
Nd840 Nd 0.14726 0.24963 0.82382 0.0
Nd841 Nd 0.18332 0.28091 0.87786 0.0
C842 C 0.12379 0.22387 0.76631 0.0
C843 C 0.12026 0.22515 0.72292 0.0
C844 C 0.11503 0.20813 0.69778 0.0
C845 C 0.11073 0.20885 0.65709 0.0
C846 C 0.1115 0.22663 0.64052 0.0
C847 C 0.11686 0.24368 0.66602 0.0
C848 C 0.12129 0.24299 0.7065 0.0
C849 C 0.14639 0.28478 0.84486 0.0
C850 C 0.19064 0.28775 0.78212 0.0
C851 C 0.20879 0.31063 0.92683 0.0
C852 C 0.21086 0.31293 0.97108 0.0
C853 C 0.19429 0.31065 0.99517 0.0
C854 C 0.19633 0.3127 0.03681 0.0
C855 C 0.21494 0.31696 0.05558 0.0
C856 C 0.23156 0.31943 0.03139 0.0
C857 C 0.22954 0.31749 0.98971 0.0
C858 C 0.17842 0.24153 0.87512 0.0
C859 C 0.13986 0.24832 0.9191 0.0
O860 O 0.1416 0.22592 0.77705 0.0
O861 O 0.11766 0.23356 0.79042 0.0
O862 O 0.12982 0.26658 0.84463 0.0
O863 O 0.16178 0.28335 0.83475 0.0
O864 O 0.17135 0.27213 0.77736 0.0
O865 O 0.19927 0.29369 0.81778 0.0
O866 O 0.19217 0.30963 0.91138 0.0
O867 O 0.21368 0.29776 0.90976 0.0
O868 O 0.18317 0.25292 0.90693 0.0
O869 O 0.17668 0.25128 0.84604 0.0
O870 O 0.15471 0.26782 0.91726 0.0
O871 O 0.13578 0.23584 0.88776 0.0
H872 H 0.11414 0.19418 0.70969 0.0
H873 H 0.10696 0.1955 0.63859 0.0
H874 H 0.11726 0.25754 0.65498 0.0
H875 H 0.12525 0.25637 0.72511 0.0
H876 H 0.17962 0.3071 0.98197 0.0
H877 H 0.18313 0.31048 0.05435 0.0
H878 H 0.24622 0.32299 0.04469 0.0
H879 H 0.24261 0.31948 0.972 0.0
Nd880 Nd 0.73486 0.8944 0.8386 0.0
Nd881 Nd 0.70325 0.89832 0.89154 0.0
C882 C 0.76021 0.89771 0.77948 0.0
C883 C 0.75665 0.89092 0.73707 0.0
C884 C 0.73721 0.87476 0.72493 0.0
C885 C 0.73358 0.8684 0.68497 0.0
C886 C 0.74918 0.8782 0.65568 0.0
C887 C 0.76877 0.89425 0.66804 0.0
C888 C 0.77244 0.90055 0.70832 0.0
C889 C 0.69992 0.85792 0.85715 0.0
C890 C 0.69495 0.89819 0.79859 0.0
C891 C 0.67681 0.89366 0.94919 0.0
C892 C 0.67386 0.88838 0.99241 0.0
C893 C 0.65595 0.87043 1.00536 0.0
C894 C 0.6523 0.86569 0.04612 0.0
C895 C 0.66626 0.87906 0.07519 0.0
C896 C 0.68445 0.89684 0.06197 0.0
C897 C 0.68825 0.90137 1.02116 0.0
C898 C 0.73638 0.93535 0.8685 0.0
C899 C 0.73743 0.8886 0.93349 0.0
O900 O 0.75644 0.91256 0.78913 0.0
O901 O 0.75316 0.88291 0.80623 0.0
O902 O 0.71816 0.85967 0.85627 0.0
O903 O 0.70114 0.87472 0.84788 0.0
O904 O 0.71343 0.89966 0.79386 0.0
O905 O 0.68639 0.89562 0.83411 0.0
O906 O 0.67378 0.87882 0.92442 0.0
O907 O 0.69251 0.91163 0.93884 0.0
O908 O 0.71743 0.93165 0.87122 0.0
O909 O 0.73787 0.91988 0.8796 0.0
O910 O 0.71866 0.88609 0.93329 0.0
O911 O 0.74925 0.89502 0.9009 0.0
H912 H 0.72474 0.86704 0.74642 0.0
H913 H 0.71841 0.85571 0.67708 0.0
H914 H 0.78112 0.90229 0.64647 0.0
H915 H 0.78757 0.91309 0.71694 0.0
H916 H 0.64455 0.86022 0.9839 0.0
H917 H 0.63834 0.85162 0.05475 0.0
H918 H 0.6955 0.90774 0.08312 0.0
H919 H 0.70226 0.91534 1.01229 0.0
Nd920 Nd 0.08926 0.83128 0.8225 0.0
Nd921 Nd 0.08551 0.79416 0.87304 0.0
C922 C 0.08586 0.85453 0.76629 0.0
C923 C 0.09179 0.85777 0.72357 0.0
C924 C 0.08819 0.87119 0.69979 0.0
C925 C 0.09538 0.87542 0.66012 0.0
C926 C 0.10647 0.86642 0.64378 0.0
C927 C 0.1093 0.85236 0.66736 0.0
C928 C 0.10205 0.84809 0.70675 0.0
C929 C 0.12564 0.83177 0.83855 0.0
C930 C 0.08357 0.7884 0.77771 0.0
C931 C 0.09102 0.7727 0.93052 0.0
C932 C 0.09162 0.77263 0.97523 0.0
C933 C 0.10762 0.789 0.99704 0.0
C934 C 0.10798 0.7885 0.03905 0.0
C935 C 0.09231 0.77165 0.06052 0.0
C936 C 0.07645 0.75524 0.03853 0.0
C937 C 0.07615 0.75571 0.99662 0.0
C938 C 0.04889 0.79211 0.85472 0.0
C939 C 0.09409 0.83786 0.91703 0.0
O940 O 0.07073 0.83611 0.77609 0.0
O941 O 0.1013 0.8615 0.79157 0.0
O942 O 0.12418 0.84842 0.83788 0.0
O943 O 0.10861 0.81639 0.8294 0.0
O944 O 0.08058 0.80454 0.77705 0.0
O945 O 0.08842 0.78231 0.81126 0.0
O946 O 0.10625 0.78835 0.91186 0.0
O947 O 0.07306 0.7667 0.91351 0.0
O948 O 0.05109 0.77592 0.85755 0.0
O949 O 0.06511 0.80853 0.86474 0.0
O950 O 0.09662 0.82153 0.91642 0.0
O951 O 0.08762 0.84349 0.88503 0.0
H952 H 0.08028 0.87881 0.7122 0.0
H953 H 0.09307 0.8864 0.64285 0.0
H954 H 0.11755 0.84496 0.65558 0.0
H955 H 0.10495 0.83762 0.72444 0.0
H956 H 0.11986 0.80226 0.98172 0.0
H957 H 0.12039 0.8015 0.0547 0.0
H958 H 0.0643 0.7418 0.05372 0.0
H959 H 0.06376 0.74273 0.98086 0.0
Nd960 Nd 0.37097 0.13569 0.71112 0.0
Nd961 Nd 0.4027 0.17173 0.6573 0.0
C962 C 0.3471 0.11207 0.77015 0.0
C963 C 0.34386 0.11394 0.81319 0.0
C964 C 0.34559 0.13212 0.82961 0.0
C965 C 0.34277 0.13345 0.87077 0.0
C966 C 0.3383 0.11666 0.89633 0.0
C967 C 0.33677 0.0986 0.87951 0.0
C968 C 0.33943 0.09726 0.8385 0.0
C969 C 0.40077 0.12997 0.67581 0.0
C970 C 0.40737 0.17898 0.75181 0.0
C971 C 0.42817 0.19277 0.59772 0.0
C972 C 0.4258 0.19417 0.55401 0.0
C973 C 0.43734 0.21321 0.5341 0.0
C974 C 0.43382 0.21512 0.49349 0.0
C975 C 0.41856 0.19802 0.47208 0.0
C976 C 0.40759 0.17879 0.49187 0.0
C977 C 0.41116 0.1769 0.5323 0.0
C978 C 0.37141 0.17677 0.68727 0.0
C979 C 0.35894 0.13138 0.61936 0.0
O980 O 0.34138 0.1217 0.74499 0.0
O981 O 0.36468 0.1133 0.7603 0.0
O982 O 0.38149 0.11558 0.67882 0.0
O983 O 0.40419 0.14668 0.6921 0.0
O984 O 0.38829 0.16314 0.75312 0.0
O985 O 0.41864 0.18393 0.71859 0.0
O986 O 0.42584 0.17524 0.61145 0.0
O987 O 0.41916 0.20028 0.62036 0.0
O988 O 0.39006 0.19231 0.68191 0.0
O989 O 0.37009 0.16033 0.67455 0.0
O990 O 0.37813 0.14708 0.61344 0.0
O991 O 0.35129 0.12503 0.65546 0.0
H992 H 0.34921 0.14531 0.81071 0.0
H993 H 0.34396 0.14756 0.88245 0.0
H994 H 0.33387 0.08553 0.89813 0.0
H995 H 0.33824 0.08317 0.82654 0.0
H996 H 0.44868 0.22676 0.55025 0.0
H997 H 0.44241 0.23018 0.47937 0.0
H998 H 0.3959 0.16523 0.47626 0.0
H999 H 0.40213 0.16202 0.54678 0.0
Nd1000 Nd 0.85308 0.22946 0.70383 0.0
Nd1001 Nd 0.81839 0.22817 0.65053 0.0
C1002 C 0.87367 0.2233 0.76187 0.0
C1003 C 0.87415 0.22383 0.8061 0.0
C1004 C 0.87573 0.2084 0.82724 0.0
C1005 C 0.87628 0.2086 0.8691 0.0
C1006 C 0.87523 0.22425 0.89085 0.0
C1007 C 0.87328 0.23949 0.86945 0.0
C1008 C 0.87269 0.23926 0.82759 0.0
C1009 C 0.85996 0.26735 0.67845 0.0
C1010 C 0.81181 0.22714 0.74632 0.0
C1011 C 0.7974 0.23413 0.59309 0.0
C1012 C 0.79479 0.23011 0.54952 0.0
C1013 C 0.81143 0.23265 0.52569 0.0
C1014 C 0.80834 0.22673 0.48549 0.0
C1015 C 0.7885 0.21803 0.46811 0.0
C1016 C 0.77204 0.21637 0.49155 0.0
C1017 C 0.77515 0.2223 0.53191 0.0
C1018 C 0.81237 0.19065 0.67542 0.0
C1019 C 0.85838 0.22498 0.61009 0.0
O1020 O 0.85682 0.20848 0.74573 0.0
O1021 O 0.88078 0.24095 0.74292 0.0
O1022 O 0.87429 0.26237 0.68209 0.0
O1023 O 0.84261 0.2528 0.69015 0.0
O1024 O 0.82751 0.2237 0.74827 0.0
O1025 O 0.80603 0.23174 0.71207 0.0
O1026 O 0.81568 0.24857 0.60548 0.0
O1027 O 0.78936 0.21769 0.61599 0.0
O1028 O 0.79726 0.19459 0.67258 0.0
O1029 O 0.82898 0.20585 0.66362 0.0
O1030 O 0.84326 0.22943 0.60512 0.0
O1031 O 0.86371 0.22192 0.64595 0.0
H1032 H 0.87668 0.19623 0.8113 0.0
H1033 H 0.87799 0.19672 0.88435 0.0
H1034 H 0.87208 0.25159 0.88505 0.0
H1035 H 0.8711 0.25115 0.81206 0.0
H1036 H 0.82675 0.23871 0.53837 0.0
H1037 H 0.82145 0.22848 0.46822 0.0
H1038 H 0.75655 0.20958 0.47925 0.0
H1039 H 0.76206 0.22016 0.54973 0.0
Nd1040 Nd 0.75974 0.61816 0.70253 0.0
Nd1041 Nd 0.76293 0.58558 0.64925 0.0
C1042 C 0.76604 0.64879 0.75109 0.0
C1043 C 0.76625 0.65138 0.79515 0.0
C1044 C 0.77466 0.64239 0.8205 0.0
C1045 C 0.77632 0.64621 0.86174 0.0
C1046 C 0.76922 0.65881 0.87898 0.0
C1047 C 0.76012 0.66716 0.85351 0.0
C1048 C 0.7588 0.66361 0.81215 0.0
C1049 C 0.72336 0.58083 0.69536 0.0
C1050 C 0.76356 0.58114 0.74494 0.0
C1051 C 0.76121 0.56018 0.59149 0.0
C1052 C 0.76441 0.56153 0.54758 0.0
C1053 C 0.77315 0.55072 0.52911 0.0
C1054 C 0.77884 0.55397 0.48858 0.0
C1055 C 0.77613 0.56832 0.4658 0.0
C1056 C 0.76656 0.57846 0.48406 0.0
C1057 C 0.76072 0.57505 0.5244 0.0
C1058 C 0.79925 0.61733 0.67813 0.0
C1059 C 0.76288 0.62653 0.60712 0.0
O1060 O 0.78094 0.64626 0.73641 0.0
O1061 O 0.74808 0.63684 0.7339 0.0
O1062 O 0.72952 0.59176 0.7278 0.0
O1063 O 0.73612 0.59003 0.6674 0.0
O1064 O 0.76974 0.60109 0.74511 0.0
O1065 O 0.75681 0.5699 0.71174 0.0
O1066 O 0.74483 0.56035 0.60542 0.0
O1067 O 0.77778 0.57174 0.61261 0.0
O1068 O 0.79529 0.59826 0.67916 0.0
O1069 O 0.78429 0.61839 0.66391 0.0
O1070 O 0.7648 0.6098 0.60272 0.0
O1071 O 0.75979 0.63254 0.64236 0.0
H1072 H 0.78031 0.63267 0.80832 0.0
H1073 H 0.78366 0.63966 0.87986 0.0
H1074 H 0.75396 0.6765 0.86544 0.0
H1075 H 0.7521 0.67058 0.79337 0.0
H1076 H 0.77624 0.54027 0.54643 0.0
H1077 H 0.7863 0.54603 0.47563 0.0
H1078 H 0.76402 0.58944 0.46732 0.0
H1079 H 0.75386 0.58342 0.53783 0.0
Nd1080 Nd 0.79546 0.70038 0.30745 0.0
Nd1081 Nd 0.82899 0.73467 0.36125 0.0
C1082 C 0.77434 0.67517 0.24756 0.0
C1083 C 0.77602 0.67319 0.20348 0.0
C1084 C 0.78665 0.66364 0.18753 0.0
C1085 C 0.78698 0.6606 0.14621 0.0
C1086 C 0.7766 0.66698 0.11959 0.0
C1087 C 0.76621 0.6768 0.13553 0.0
C1088 C 0.76586 0.67978 0.17685 0.0
C1089 C 0.78566 0.72832 0.33872 0.0
C1090 C 0.83617 0.7399 0.26664 0.0
C1091 C 0.84819 0.76216 0.41902 0.0
C1092 C 0.85404 0.76173 0.46112 0.0
C1093 C 0.86013 0.77906 0.48589 0.0
C1094 C 0.86701 0.77925 0.52505 0.0
C1095 C 0.8681 0.76216 0.53998 0.0
C1096 C 0.86132 0.74458 0.51538 0.0
C1097 C 0.85433 0.74435 0.47647 0.0
C1098 C 0.83831 0.70563 0.33426 0.0
C1099 C 0.79169 0.68912 0.40049 0.0
O1100 O 0.78668 0.67218 0.27099 0.0
O1101 O 0.77147 0.69018 0.26012 0.0
O1102 O 0.77282 0.70851 0.33658 0.0
O1103 O 0.80314 0.73313 0.32404 0.0
O1104 O 0.82252 0.71995 0.26575 0.0
O1105 O 0.83929 0.75098 0.2996 0.0
O1106 O 0.82838 0.754 0.41143 0.0
O1107 O 0.85783 0.75728 0.39216 0.0
O1108 O 0.85241 0.72495 0.33918 0.0
O1109 O 0.82104 0.70264 0.3459 0.0
O1110 O 0.8062 0.7089 0.40608 0.0
O1111 O 0.78587 0.68119 0.36433 0.0
H1112 H 0.79448 0.65822 0.20702 0.0
H1113 H 0.79533 0.65317 0.13513 0.0
H1114 H 0.75778 0.68166 0.11617 0.0
H1115 H 0.75725 0.68693 0.18799 0.0
H1116 H 0.85998 0.79262 0.47466 0.0
H1117 H 0.87217 0.79303 0.54311 0.0
H1118 H 0.86163 0.73101 0.52613 0.0
H1119 H 0.84952 0.73072 0.45806 0.0
Nd1120 Nd 0.28963 0.09207 0.31862 0.0
Nd1121 Nd 0.25662 0.09516 0.36969 0.0
C1122 C 0.31553 0.09501 0.26123 0.0
C1123 C 0.31692 0.09721 0.21708 0.0
C1124 C 0.31663 0.11379 0.19749 0.0
C1125 C 0.31762 0.11528 0.15567 0.0
C1126 C 0.31857 0.1 0.13256 0.0
C1127 C 0.31901 0.08353 0.15227 0.0
C1128 C 0.3183 0.08223 0.19398 0.0
C1129 C 0.25897 0.05567 0.34879 0.0
C1130 C 0.25271 0.09734 0.27491 0.0
C1131 C 0.23023 0.09065 0.42735 0.0
C1132 C 0.23272 0.0968 0.46994 0.0
C1133 C 0.21672 0.08559 0.49754 0.0
C1134 C 0.21936 0.0911 0.53815 0.0
C1135 C 0.23809 0.10794 0.55193 0.0
C1136 C 0.25393 0.11929 0.52382 0.0
C1137 C 0.25133 0.1137 0.48348 0.0
C1138 C 0.28972 0.13205 0.34603 0.0
C1139 C 0.29891 0.09704 0.41193 0.0
O1140 O 0.31795 0.11088 0.28232 0.0
O1141 O 0.30087 0.0773 0.27528 0.0
O1142 O 0.27832 0.0606 0.34723 0.0
O1143 O 0.25584 0.06935 0.33334 0.0
O1144 O 0.27193 0.10096 0.27467 0.0
O1145 O 0.24125 0.09115 0.30783 0.0
O1146 O 0.23467 0.07624 0.41792 0.0
O1147 O 0.23744 0.1058 0.40131 0.0
O1148 O 0.27096 0.12905 0.34695 0.0
O1149 O 0.28988 0.1163 0.35808 0.0
O1150 O 0.27968 0.09382 0.41597 0.0
O1151 O 0.30752 0.09923 0.37647 0.0
H1152 H 0.31538 0.12546 0.2144 0.0
H1153 H 0.31715 0.12809 0.14139 0.0
H1154 H 0.31999 0.07165 0.13535 0.0
H1155 H 0.31865 0.06934 0.20825 0.0
H1156 H 0.20226 0.07242 0.48775 0.0
H1157 H 0.20691 0.08187 0.55884 0.0
H1158 H 0.26843 0.1326 0.53294 0.0
H1159 H 0.26395 0.12257 0.46283 0.0
Nd1160 Nd 0.8907 0.18754 0.30725 0.0
Nd1161 Nd 0.89422 0.15662 0.3639 0.0
C1162 C 0.88173 0.20947 0.25725 0.0
C1163 C 0.88149 0.21058 0.21319 0.0
C1164 C 0.88317 0.19579 0.18991 0.0
C1165 C 0.88106 0.19553 0.14833 0.0
C1166 C 0.87728 0.21012 0.12899 0.0
C1167 C 0.87598 0.22516 0.15243 0.0
C1168 C 0.87797 0.22531 0.19415 0.0
C1169 C 0.92854 0.18897 0.30513 0.0
C1170 C 0.88547 0.14551 0.2704 0.0
C1171 C 0.90333 0.13805 0.42182 0.0
C1172 C 0.89669 0.13311 0.46395 0.0
C1173 C 0.90237 0.12096 0.48693 0.0
C1174 C 0.89442 0.1147 0.52573 0.0
C1175 C 0.88052 0.12039 0.542 0.0
C1176 C 0.87555 0.13323 0.51928 0.0
C1177 C 0.88348 0.13945 0.48071 0.0
C1178 C 0.85445 0.14731 0.34655 0.0
C1179 C 0.89143 0.19655 0.40264 0.0
O1180 O 0.86801 0.19161 0.27219 0.0
O1181 O 0.89987 0.21705 0.27465 0.0
O1182 O 0.91915 0.1907 0.27416 0.0
O1183 O 0.91807 0.18689 0.33614 0.0
O1184 O 0.87724 0.15756 0.27195 0.0
O1185 O 0.897 0.14518 0.30044 0.0
O1186 O 0.91495 0.15768 0.41286 0.0
O1187 O 0.88881 0.1281 0.39535 0.0
O1188 O 0.85974 0.13322 0.35001 0.0
O1189 O 0.86979 0.16482 0.35332 0.0
O1190 O 0.8917 0.17905 0.40874 0.0
O1191 O 0.8918 0.20371 0.36629 0.0
H1192 H 0.88577 0.18418 0.20399 0.0
H1193 H 0.8824 0.18388 0.13131 0.0
H1194 H 0.87287 0.23647 0.13864 0.0
H1195 H 0.87636 0.23668 0.2116 0.0
H1196 H 0.9125 0.11585 0.47449 0.0
H1197 H 0.89847 0.10474 0.54231 0.0
H1198 H 0.86516 0.13818 0.53107 0.0
H1199 H 0.87883 0.14877 0.46356 0.0
Nd1200 Nd 0.25182 0.15667 0.8704 0.0
Nd1201 Nd 0.28382 0.19155 0.81536 0.0
C1202 C 0.22586 0.13633 0.92974 0.0
C1203 C 0.22831 0.13391 0.973 0.0
C1204 C 0.24444 0.14996 0.99479 0.0
C1205 C 0.248 0.14691 0.03458 0.0
C1206 C 0.23557 0.12769 0.05359 0.0
C1207 C 0.21888 0.11189 0.03223 0.0
C1208 C 0.21535 0.11496 0.99225 0.0
C1209 C 0.28356 0.15119 0.84469 0.0
C1210 C 0.29535 0.19798 0.9075 0.0
C1211 C 0.30795 0.2131 0.75483 0.0
C1212 C 0.31099 0.20897 0.7129 0.0
C1213 C 0.33029 0.22121 0.69453 0.0
C1214 C 0.33296 0.21877 0.65387 0.0
C1215 C 0.31634 0.204 0.63067 0.0
C1216 C 0.29727 0.19102 0.64975 0.0
C1217 C 0.29462 0.1935 0.69044 0.0
C1218 C 0.25339 0.19766 0.8466 0.0
C1219 C 0.2477 0.14798 0.77645 0.0
O1220 O 0.2299 0.15471 0.91757 0.0
O1221 O 0.23335 0.12784 0.90566 0.0
O1222 O 0.26486 0.13574 0.84992 0.0
O1223 O 0.28465 0.16786 0.85517 0.0
O1224 O 0.27626 0.1821 0.9137 0.0
O1225 O 0.30305 0.20383 0.87128 0.0
O1226 O 0.31377 0.2047 0.7825 0.0
O1227 O 0.29034 0.2122 0.76323 0.0
O1228 O 0.27266 0.21216 0.84379 0.0
O1229 O 0.25039 0.18072 0.83223 0.0
O1230 O 0.26716 0.163 0.77579 0.0
O1231 O 0.23606 0.14416 0.8089 0.0
H1232 H 0.25464 0.16472 0.9808 0.0
H1233 H 0.26083 0.15952 0.05024 0.0
H1234 H 0.20913 0.09687 0.04581 0.0
H1235 H 0.20285 0.10233 0.97599 0.0
H1236 H 0.34319 0.23303 0.71142 0.0
H1237 H 0.34798 0.2287 0.64042 0.0
H1238 H 0.28412 0.17952 0.63292 0.0
H1239 H 0.27959 0.18375 0.70403 0.0
Nd1240 Nd 0.83526 0.09326 0.86086 0.0
Nd1241 Nd 0.79886 0.09014 0.81011 0.0
C1242 C 0.85698 0.08941 0.91961 0.0
C1243 C 0.85801 0.09239 0.96357 0.0
C1244 C 0.83995 0.08602 0.98634 0.0
C1245 C 0.84124 0.09055 0.0272 0.0
C1246 C 0.86063 0.10168 0.04637 0.0
C1247 C 0.87866 0.10743 1.02374 0.0
C1248 C 0.87735 0.10285 0.98278 0.0
C1249 C 0.84189 0.12918 0.82625 0.0
C1250 C 0.79813 0.10106 0.90179 0.0
C1251 C 0.77548 0.09172 0.75192 0.0
C1252 C 0.77535 0.09257 0.70739 0.0
C1253 C 0.78505 0.11162 0.68677 0.0
C1254 C 0.78356 0.1123 0.64502 0.0
C1255 C 0.77212 0.09395 0.62288 0.0
C1256 C 0.76291 0.07491 0.64347 0.0
C1257 C 0.76444 0.07423 0.68506 0.0
C1258 C 0.79115 0.05488 0.84925 0.0
C1259 C 0.83896 0.09036 0.76581 0.0
O1260 O 0.84005 0.07376 0.90498 0.0
O1261 O 0.86373 0.10623 0.89809 0.0
O1262 O 0.85652 0.12454 0.82932 0.0
O1263 O 0.82554 0.11561 0.84252 0.0
O1264 O 0.81278 0.09596 0.90667 0.0
O1265 O 0.79142 0.10235 0.866 0.0
O1266 O 0.78941 0.10812 0.77102 0.0
O1267 O 0.77227 0.07442 0.76843 0.0
O1268 O 0.77785 0.06125 0.84615 0.0
O1269 O 0.80781 0.06658 0.83072 0.0
O1270 O 0.82332 0.09392 0.7645 0.0
O1271 O 0.84568 0.08684 0.8 0.0
H1272 H 0.82482 0.07789 0.97243 0.0
H1273 H 0.827 0.08558 0.04369 0.0
H1274 H 0.89384 0.11619 0.03726 0.0
H1275 H 0.8915 0.108 0.96584 0.0
H1276 H 0.7934 0.12606 0.70295 0.0
H1277 H 0.79072 0.12725 0.63029 0.0
H1278 H 0.75424 0.06043 0.62743 0.0
H1279 H 0.7567 0.05928 0.69979 0.0
Nd1280 Nd 0.88852 0.73935 0.86193 0.0
Nd1281 Nd 0.89354 0.71102 0.80028 0.0
C1282 C 0.89007 0.76624 0.91554 0.0
C1283 C 0.88846 0.76569 0.95968 0.0
C1284 C 0.89506 0.75418 0.98231 0.0
C1285 C 0.89121 0.75153 1.02343 0.0
C1286 C 0.88049 0.76015 0.04295 0.0
C1287 C 0.87471 0.77244 1.0205 0.0
C1288 C 0.87861 0.77512 0.97923 0.0
C1289 C 0.85316 0.70671 0.83152 0.0
C1290 C 0.88658 0.69764 0.89573 0.0
C1291 C 0.88982 0.68306 0.74672 0.0
C1292 C 0.88559 0.68071 0.70326 0.0
C1293 C 0.88511 0.69653 0.68132 0.0
C1294 C 0.88236 0.69489 0.63984 0.0
C1295 C 0.88005 0.67738 0.61921 0.0
C1296 C 0.87975 0.66119 0.64153 0.0
C1297 C 0.88253 0.66286 0.68314 0.0
C1298 C 0.92989 0.74417 0.82674 0.0
C1299 C 0.892 0.75039 0.76473 0.0
O1300 O 0.90666 0.76702 0.90017 0.0
O1301 O 0.8731 0.75328 0.89662 0.0
O1302 O 0.85511 0.71088 0.86949 0.0
O1303 O 0.86923 0.71912 0.81325 0.0
O1304 O 0.89102 0.71672 0.90448 0.0
O1305 O 0.88494 0.6912 0.85825 0.0
O1306 O 0.87461 0.68077 0.76971 0.0
O1307 O 0.90766 0.69879 0.75752 0.0
O1308 O 0.92663 0.73746 0.79023 0.0
O1309 O 0.91447 0.73284 0.84855 0.0
O1310 O 0.88779 0.73125 0.75828 0.0
O1311 O 0.89471 0.75814 0.80163 0.0
H1312 H 0.90263 0.74667 0.96801 0.0
H1313 H 0.89615 0.7422 0.03978 0.0
H1314 H 0.86625 0.77912 0.03439 0.0
H1315 H 0.87326 0.78395 0.96233 0.0
H1316 H 0.88719 0.71033 0.69616 0.0
H1317 H 0.88227 0.70748 0.62383 0.0
H1318 H 0.87814 0.64754 0.62669 0.0
H1319 H 0.88273 0.65041 0.69948 0.0
Nd1320 Nd 0.82736 0.59127 0.14753 0.0
Nd1321 Nd 0.86159 0.6266 0.19699 0.0
C1322 C 0.8071 0.56354 0.09081 0.0
C1323 C 0.80177 0.56525 0.04901 0.0
C1324 C 0.79034 0.54749 1.02546 0.0
C1325 C 0.78422 0.5492 0.9866 0.0
C1326 C 0.78937 0.56872 0.97079 0.0
C1327 C 0.80142 0.58648 0.99422 0.0
C1328 C 0.80745 0.58475 0.03289 0.0
C1329 C 0.81762 0.61979 0.17581 0.0
C1330 C 0.86299 0.63635 0.10374 0.0
C1331 C 0.8822 0.65216 0.25638 0.0
C1332 C 0.87783 0.65279 0.29958 0.0
C1333 C 0.87961 0.67086 0.31646 0.0
C1334 C 0.87607 0.6718 0.35742 0.0
C1335 C 0.87084 0.65471 0.38266 0.0
C1336 C 0.86858 0.63644 0.36531 0.0
C1337 C 0.87191 0.63546 0.32437 0.0
C1338 C 0.87191 0.59924 0.16481 0.0
C1339 C 0.8223 0.5873 0.24251 0.0
O1340 O 0.82682 0.5709 0.09841 0.0
O1341 O 0.79795 0.5688 0.11799 0.0
O1342 O 0.80393 0.60024 0.17255 0.0
O1343 O 0.83468 0.62325 0.16179 0.0
O1344 O 0.84845 0.61647 0.1001 0.0
O1345 O 0.86982 0.64492 0.13914 0.0
O1346 O 0.87094 0.65566 0.23109 0.0
O1347 O 0.88537 0.6372 0.24465 0.0
O1348 O 0.8842 0.61919 0.16558 0.0
O1349 O 0.85473 0.59399 0.18157 0.0
O1350 O 0.83586 0.60726 0.24155 0.0
O1351 O 0.81832 0.57569 0.21003 0.0
H1352 H 0.78578 0.53228 0.03741 0.0
H1353 H 0.77488 0.53522 0.96949 0.0
H1354 H 0.806 0.6018 0.98283 0.0
H1355 H 0.81621 0.59866 0.05049 0.0
H1356 H 0.88392 0.68436 0.29799 0.0
H1357 H 0.87748 0.68599 0.36924 0.0
H1358 H 0.86478 0.62298 0.38348 0.0
H1359 H 0.87012 0.62116 0.3123 0.0
Nd1360 Nd 0.39749 0.23181 0.15468 0.0
Nd1361 Nd 0.36366 0.23166 0.20808 0.0
C1362 C 0.4254 0.23909 0.09834 0.0
C1363 C 0.42471 0.23576 0.05457 0.0
C1364 C 0.41218 0.2402 0.02991 0.0
C1365 C 0.41002 0.23511 0.9893 0.0
C1366 C 0.42033 0.22543 0.9723 0.0
C1367 C 0.43358 0.22181 0.99665 0.0
C1368 C 0.43569 0.22687 0.03742 0.0
C1369 C 0.3641 0.19362 0.17055 0.0
C1370 C 0.3561 0.23231 0.11431 0.0
C1371 C 0.33577 0.22409 0.26468 0.0
C1372 C 0.33442 0.22253 0.3089 0.0
C1373 C 0.33798 0.20824 0.32996 0.0
C1374 C 0.33677 0.20722 0.3718 0.0
C1375 C 0.33219 0.22063 0.39347 0.0
C1376 C 0.32841 0.23472 0.37225 0.0
C1377 C 0.32944 0.2356 0.33051 0.0
C1378 C 0.39589 0.27023 0.18982 0.0
C1379 C 0.40047 0.22554 0.24921 0.0
O1380 O 0.42104 0.25311 0.11121 0.0
O1381 O 0.417 0.22234 0.12039 0.0
O1382 O 0.38297 0.19695 0.16991 0.0
O1383 O 0.36395 0.20992 0.16254 0.0
O1384 O 0.37553 0.23616 0.10993 0.0
O1385 O 0.34697 0.2279 0.14958 0.0
O1386 O 0.33707 0.20956 0.2452 0.0
O1387 O 0.3477 0.24254 0.24955 0.0
O1388 O 0.37665 0.2656 0.1924 0.0
O1389 O 0.39799 0.25491 0.19878 0.0
O1390 O 0.38116 0.22162 0.25002 0.0
O1391 O 0.41207 0.23302 0.21663 0.0
H1392 H 0.40364 0.24718 0.04217 0.0
H1393 H 0.39989 0.23836 0.97132 0.0
H1394 H 0.44159 0.21422 0.98462 0.0
H1395 H 0.44544 0.22328 0.05584 0.0
H1396 H 0.34189 0.19801 0.31419 0.0
H1397 H 0.33988 0.19627 0.3872 0.0
H1398 H 0.32455 0.24507 0.38795 0.0
H1399 H 0.32646 0.24663 0.31507 0.0
Nd1400 Nd 0.75793 0.16603 0.15284 0.0
Nd1401 Nd 0.75387 0.12879 0.20254 0.0
C1402 C 0.75362 0.18845 0.09602 0.0
C1403 C 0.76048 0.19484 0.05395 0.0
C1404 C 0.77654 0.2151 0.0459 0.0
C1405 C 0.78373 0.22132 1.00687 0.0
C1406 C 0.77495 0.20752 0.9746 0.0
C1407 C 0.75835 0.18746 0.9823 0.0
C1408 C 0.75122 0.18116 1.02156 0.0
C1409 C 0.79391 0.17193 0.18639 0.0
C1410 C 0.7655 0.12907 0.11041 0.0
C1411 C 0.7539 0.10374 0.25907 0.0
C1412 C 0.75967 0.10489 0.30168 0.0
C1413 C 0.77286 0.12393 0.32024 0.0
C1414 C 0.77755 0.12476 0.36105 0.0
C1415 C 0.76897 0.10652 0.38426 0.0
C1416 C 0.75598 0.08746 0.3652 0.0
C1417 C 0.75139 0.08668 0.32444 0.0
C1418 C 0.71887 0.12272 0.1643 0.0
C1419 C 0.75684 0.16964 0.24782 0.0
O1420 O 0.73989 0.16898 0.1029 0.0
O1421 O 0.76796 0.19634 0.12362 0.0
O1422 O 0.79008 0.18701 0.18138 0.0
O1423 O 0.77984 0.15561 0.17093 0.0
O1424 O 0.76183 0.14474 0.10612 0.0
O1425 O 0.76519 0.12101 0.14572 0.0
O1426 O 0.769 0.11341 0.23336 0.0
O1427 O 0.73789 0.10592 0.2512 0.0
O1428 O 0.72452 0.10884 0.16633 0.0
O1429 O 0.73109 0.13893 0.18325 0.0
O1430 O 0.76133 0.15459 0.2478 0.0
O1431 O 0.75088 0.17499 0.21473 0.0
H1432 H 0.78379 0.22615 0.06996 0.0
H1433 H 0.79639 0.23695 1.00196 0.0
H1434 H 0.75136 0.17642 0.95817 0.0
H1435 H 0.73868 0.16548 0.02652 0.0
H1436 H 0.77933 0.13814 0.30321 0.0
H1437 H 0.7875 0.13972 0.37458 0.0
H1438 H 0.74937 0.07305 0.38176 0.0
H1439 H 0.74122 0.07181 0.31073 0.0
H1440 H 0.11697 0.41861 0.93494 0.0
H1441 H 0.14596 0.43337 0.05094 0.0
H1442 H 0.12961 0.45407 0.06628 0.0
H1443 H 0.10208 0.46244 0.05118 0.0
H1444 H 0.07 0.44335 0.93864 0.0
H1445 H 0.09261 0.43013 0.91705 0.0
C1446 C 0.12013 0.42677 0.9632 0.0
C1447 C 0.13238 0.42426 0.99202 0.0
C1448 C 0.10985 0.43768 0.97252 0.0
C1449 C 0.13641 0.43497 0.02843 0.0
C1450 C 0.12697 0.44669 0.03729 0.0
C1451 C 0.10058 0.45593 1.02155 0.0
C1452 C 0.08459 0.4538 0.99634 0.0
C1453 C 0.11291 0.44735 1.01028 0.0
C1454 C 0.08231 0.44505 0.95831 0.0
C1455 C 0.09515 0.43744 0.94609 0.0
H1456 H 0.55965 0.69278 0.94986 0.0
H1457 H 0.56112 0.70766 0.07485 0.0
H1458 H 0.54098 0.67091 0.09137 0.0
H1459 H 0.52811 0.63477 0.07148 0.0
H1460 H 0.52664 0.6197 0.9467 0.0
H1461 H 0.54136 0.65621 0.92884 0.0
C1462 C 0.55512 0.68795 0.98056 0.0
C1463 C 0.56223 0.70282 1.01117 0.0
C1464 C 0.54381 0.66676 0.98996 0.0
C1465 C 0.55604 0.69645 0.05079 0.0
C1466 C 0.54462 0.67543 0.06032 0.0
C1467 C 0.53066 0.63948 0.04036 0.0
C1468 C 0.5268 0.62477 1.01053 0.0
C1469 C 0.53925 0.66048 0.03036 0.0
C1470 C 0.52976 0.63088 0.97023 0.0
C1471 C 0.53824 0.65174 0.96 0.0
H1472 H 0.35804 0.89254 0.03909 0.0
H1473 H 0.36575 0.93869 0.95231 0.0
H1474 H 0.32883 0.91939 0.93706 0.0
H1475 H 0.29402 0.89304 0.9565 0.0
H1476 H 0.28489 0.84745 0.04538 0.0
H1477 H 0.32268 0.86261 0.05163 0.0
C1478 C 0.35163 0.89794 1.01606 0.0
C1479 C 0.36438 0.91704 0.99704 0.0
C1480 C 0.33016 0.88707 1.00842 0.0
C1481 C 0.35606 0.92408 0.96746 0.0
C1482 C 0.33499 0.91312 0.95886 0.0
C1483 C 0.30035 0.88618 0.97663 0.0
C1484 C 0.28697 0.86945 1.00087 0.0
C1485 C 0.32182 0.89517 0.98044 0.0
C1486 C 0.2951 0.86041 0.02653 0.0
C1487 C 0.31664 0.86916 0.03023 0.0
H1488 H 0.44744 0.08762 0.60498 0.0
H1489 H 0.47517 0.10227 0.72211 0.0
H1490 H 0.45964 0.12393 0.73526 0.0
H1491 H 0.43357 0.13387 0.71738 0.0
H1492 H 0.40254 0.11499 0.60381 0.0
H1493 H 0.42408 0.10007 0.58484 0.0
C1494 C 0.45044 0.09589 0.63308 0.0
C1495 C 0.46221 0.09321 0.66274 0.0
C1496 C 0.44068 0.10744 0.64105 0.0
C1497 C 0.46601 0.10403 0.69896 0.0
C1498 C 0.45707 0.11633 0.70653 0.0
C1499 C 0.43208 0.12703 0.68808 0.0
C1500 C 0.41677 0.12556 0.66174 0.0
C1501 C 0.44371 0.11748 0.6784 0.0
C1502 C 0.41442 0.11629 0.62424 0.0
C1503 C 0.42661 0.10769 0.61356 0.0
H1504 H 0.88938 0.36052 0.64177 0.0
H1505 H 0.92929 0.36776 0.74105 0.0
H1506 H 0.90991 0.33056 0.75368 0.0
H1507 H 0.88577 0.29585 0.72961 0.0
H1508 H 0.8466 0.28738 0.62862 0.0
H1509 H 0.86129 0.32511 0.62338 0.0
C1510 C 0.89329 0.35391 0.66686 0.0
C1511 C 0.91071 0.36662 0.69037 0.0
C1512 C 0.8825 0.33232 0.67302 0.0
C1513 C 0.91595 0.35808 0.72255 0.0
C1514 C 0.90497 0.33685 0.72963 0.0
C1515 C 0.88021 0.30232 0.70696 0.0
C1516 C 0.86544 0.28917 0.67922 0.0
C1517 C 0.8889 0.32379 0.70395 0.0
C1518 C 0.85805 0.29743 0.65019 0.0
C1519 C 0.86651 0.31894 0.64714 0.0
H1520 H 0.63198 0.53003 0.63198 0.0
H1521 H 0.62026 0.545 0.74992 0.0
H1522 H 0.65647 0.55791 0.76844 0.0
H1523 H 0.69205 0.56953 0.74793 0.0
H1524 H 0.70501 0.55888 0.62735 0.0
H1525 H 0.66776 0.53934 0.61296 0.0
C1526 C 0.63736 0.5356 0.662 0.0
C1527 C 0.6237 0.53648 0.68984 0.0
C1528 C 0.65843 0.544 0.67164 0.0
C1529 C 0.63067 0.54413 0.72834 0.0
C1530 C 0.65133 0.55158 0.73878 0.0
C1531 C 0.68674 0.56262 0.71869 0.0
C1532 C 0.70121 0.56582 0.68857 0.0
C1533 C 0.66548 0.5523 0.71021 0.0
C1534 C 0.69411 0.55671 0.65091 0.0
C1535 C 0.67284 0.54564 0.64265 0.0
H1536 H 0.86089 0.56144 0.19775 0.0
H1537 H 0.90083 0.60601 0.10993 0.0
H1538 H 0.91957 0.58722 0.10136 0.0
H1539 H 0.9278 0.56141 0.12558 0.0
H1540 H 0.88967 0.51731 0.21532 0.0
H1541 H 0.8668 0.53239 0.21639 0.0
C1542 C 0.87335 0.56664 0.17608 0.0
C1543 C 0.87968 0.58513 0.1547 0.0
C1544 C 0.88453 0.55606 0.17219 0.0
C1545 C 0.89589 0.59189 0.12688 0.0
C1546 C 0.90664 0.58122 0.12207 0.0
C1547 C 0.91427 0.55491 0.14491 0.0
C1548 C 0.91043 0.53856 0.1707 0.0
C1549 C 0.90162 0.56382 0.14567 0.0
C1550 C 0.89282 0.52998 0.1953 0.0
C1551 C 0.87987 0.53867 0.19601 0.0
H1552 H 0.39607 0.30046 0.23248 0.0
H1553 H 0.43315 0.28822 0.15022 0.0
H1554 H 0.45753 0.32561 0.1436 0.0
H1555 H 0.46491 0.36182 0.15409 0.0
H1556 H 0.42659 0.37271 0.23607 0.0
H1557 H 0.40636 0.33584 0.25091 0.0
C1558 C 0.4097 0.30601 0.21361 0.0
C1559 C 0.41271 0.29187 0.19116 0.0
C1560 C 0.42337 0.32728 0.20998 0.0
C1561 C 0.43054 0.299 0.16744 0.0
C1562 C 0.44439 0.32034 0.1636 0.0
C1563 C 0.4525 0.35608 0.17599 0.0
C1564 C 0.44693 0.36975 0.19356 0.0
C1565 C 0.44052 0.33466 0.18366 0.0
C1566 C 0.43088 0.36231 0.22186 0.0
C1567 C 0.41927 0.34126 0.23025 0.0
H1568 H 0.62863 0.07916 0.09838 0.0
H1569 H 0.61871 0.1031 0.20835 0.0
H1570 H 0.65623 0.12376 0.21886 0.0
H1571 H 0.69139 0.13071 0.20167 0.0
H1572 H 0.70026 0.10263 0.09654 0.0
H1573 H 0.66374 0.08812 0.07866 0.0
C1574 C 0.63471 0.08925 0.12419 0.0
C1575 C 0.62105 0.08957 0.15274 0.0
C1576 C 0.65614 0.10019 0.13094 0.0
C1577 C 0.62904 0.10258 0.18616 0.0
C1578 C 0.65045 0.11431 0.19221 0.0
C1579 C 0.68534 0.12186 0.17436 0.0
C1580 C 0.69825 0.11769 0.15026 0.0
C1581 C 0.66411 0.11263 0.16555 0.0
C1582 C 0.6904 0.10593 0.11535 0.0
C1583 C 0.66957 0.0976 0.10527 0.0
H1584 H 0.55942 0.86731 0.48939 0.0
H1585 H 0.59222 0.89141 0.60006 0.0
H1586 H 0.56849 0.9038 0.6187 0.0
H1587 H 0.5424 0.9126 0.59863 0.0
H1588 H 0.51282 0.89318 0.48364 0.0
H1589 H 0.53083 0.8737 0.47169 0.0
C1590 C 0.5609 0.87479 0.51798 0.0
C1591 C 0.57731 0.87849 0.54354 0.0
C1592 C 0.54792 0.88288 0.52737 0.0
C1593 C 0.57957 0.88849 0.58016 0.0
C1594 C 0.56608 0.8956 0.59069 0.0
C1595 C 0.53954 0.90373 0.57131 0.0
C1596 C 0.52653 0.90448 0.54182 0.0
C1597 C 0.55077 0.89362 0.56381 0.0
C1598 C 0.52291 0.89291 0.50663 0.0
C1599 C 0.53329 0.88189 0.49972 0.0
H1600 H 0.06838 0.62636 0.45868 0.0
H1601 H 0.10647 0.62176 0.5502 0.0
H1602 H 0.1283 0.65966 0.55162 0.0
H1603 H 0.13252 0.69412 0.53439 0.0
H1604 H 0.09305 0.69752 0.44414 0.0
H1605 H 0.07601 0.66018 0.434 0.0
C1606 C 0.08179 0.6337 0.47819 0.0
C1607 C 0.08573 0.62155 0.50466 0.0
C1608 C 0.09387 0.6553 0.4793 0.0
C1609 C 0.1032 0.63097 0.52959 0.0
C1610 C 0.11555 0.65262 0.53063 0.0
C1611 C 0.12057 0.68662 0.51187 0.0
C1612 C 0.11374 0.69827 0.49041 0.0
C1613 C 0.11047 0.66497 0.5068 0.0
C1614 C 0.09828 0.68863 0.46127 0.0
C1615 C 0.08852 0.66734 0.4555 0.0
H1616 H 0.36384 0.429 0.55174 0.0
H1617 H 0.36726 0.47714 0.47538 0.0
H1618 H 0.32911 0.45959 0.47325 0.0
H1619 H 0.29497 0.42799 0.48715 0.0
H1620 H 0.29314 0.38019 0.56284 0.0
H1621 H 0.33052 0.40036 0.57203 0.0
C1622 C 0.35621 0.43575 0.53493 0.0
C1623 C 0.36809 0.45399 0.51309 0.0
C1624 C 0.33459 0.42561 0.53385 0.0
C1625 C 0.35823 0.46295 0.49215 0.0
C1626 C 0.33649 0.45289 0.49088 0.0
C1627 C 0.30279 0.42232 0.50634 0.0
C1628 C 0.2915 0.40257 0.52393 0.0
C1629 C 0.3245 0.43386 0.51076 0.0
C1630 C 0.30165 0.39527 0.54868 0.0
C1631 C 0.323 0.40674 0.55386 0.0
H1632 H 0.75309 0.72007 0.38423 0.0
H1633 H 0.80285 0.76944 0.31783 0.0
H1634 H 0.78714 0.79135 0.32793 0.0
H1635 H 0.75658 0.79447 0.34919 0.0
H1636 H 0.70684 0.74354 0.41323 0.0
H1637 H 0.72527 0.72437 0.41098 0.0
C1638 C 0.76065 0.73574 0.37241 0.0
C1639 C 0.77883 0.74308 0.34988 0.0
C1640 C 0.75141 0.74791 0.37774 0.0
C1641 C 0.78872 0.76349 0.3352 0.0
C1642 C 0.77968 0.77593 0.34078 0.0
C1643 C 0.75008 0.77935 0.36318 0.0
C1644 C 0.7303 0.77028 0.38083 0.0
C1645 C 0.76064 0.76806 0.36102 0.0
C1646 C 0.72191 0.75069 0.3989 0.0
C1647 C 0.73243 0.73969 0.3977 0.0
H1648 H 0.21568 0.96433 0.40312 0.0
H1649 H 0.1833 0.95598 0.29217 0.0
H1650 H 0.1975 0.99363 0.28686 0.0
H1651 H 0.22428 0.02892 0.30816 0.0
H1652 H 0.25877 0.03623 0.41608 0.0
H1653 H 0.23826 -0.00093 0.42918 0.0
C1654 C 0.21133 0.97082 0.37841 0.0
C1655 C 0.19869 0.95777 0.34797 0.0
C1656 C 0.22004 0.99228 0.3751 0.0
C1657 C 0.19303 0.96599 0.31592 0.0
C1658 C 0.20125 0.98745 0.31281 0.0
C1659 C 0.22667 0.02234 0.33517 0.0
C1660 C 0.24287 0.035 0.36123 0.0
C1661 C 0.21549 0.00079 0.34139 0.0
C1662 C 0.24629 0.02655 0.39581 0.0
C1663 C 0.2347 0.00536 0.40312 0.0
H1664 H 0.95241 0.18997 0.36749 0.0
H1665 H 0.95549 0.20775 0.24386 0.0
H1666 H 0.99312 0.22886 0.24808 0.0
H1667 H 0.02438 0.24641 0.28971 0.0
H1668 H 0.02203 0.22819 0.41249 0.0
H1669 H 0.98491 0.20292 0.40594 0.0
C1670 C 0.9614 0.19813 0.34132 0.0
C1671 C 0.95121 0.19772 0.30573 0.0
C1672 C 0.9831 0.21028 0.34394 0.0
C1673 C 0.96298 0.20805 0.27178 0.0
C1674 C 0.9845 0.2202 0.27417 0.0
C1675 C 0.01577 0.23644 0.31458 0.0
C1676 C 0.02558 0.239 0.35147 0.0
C1677 C -0.0054 0.22206 0.31049 0.0
C1678 C 0.01457 0.22621 0.38376 0.0
C1679 C -0.00661 0.21193 0.38007 0.0
H1680 H 0.21782 0.19001 0.81018 0.0
H1681 H 0.2536 0.2145 0.91772 0.0
H1682 H 0.23026 0.2267 0.94021 0.0
H1683 H 0.20324 0.23496 0.9245 0.0
H1684 H 0.17047 0.21509 0.81259 0.0
H1685 H 0.18862 0.19613 0.79673 0.0
C1686 C 0.22007 0.19756 0.83893 0.0
C1687 C 0.23719 0.20137 0.86251 0.0
C1688 C 0.20724 0.20551 0.85057 0.0
C1689 C 0.24041 0.21148 0.89932 0.0
C1690 C 0.22714 0.21848 0.91205 0.0
C1691 C 0.19969 0.22608 0.89706 0.0
C1692 C 0.18564 0.22649 0.86961 0.0
C1693 C 0.21099 0.21626 0.88725 0.0
C1694 C 0.18129 0.21502 0.83409 0.0
C1695 C 0.19176 0.2043 0.82494 0.0
H1696 H 0.80102 0.02639 0.82134 0.0
H1697 H 0.76729 0.03758 0.91355 0.0
H1698 H 0.74986 0.00115 0.93278 0.0
H1699 H 0.73964 0.96561 0.91543 0.0
H1700 H 0.77095 0.95298 0.8208 0.0
H1701 H 0.79418 0.9904 0.81057 0.0
C1702 C 0.79033 0.02086 0.84638 0.0
C1703 C 0.7852 0.03443 0.86589 0.0
C1704 C 0.77974 -0.00037 0.8563 0.0
C1705 C 0.77125 0.02724 0.89805 0.0
C1706 C 0.76124 0.00644 0.90893 0.0
C1707 C 0.75193 0.97111 0.89327 0.0
C1708 C 0.75362 0.95682 0.86862 0.0
C1709 C 0.76464 0.9924 0.88705 0.0
C1710 C 0.76954 0.96387 0.84012 0.0
C1711 C 0.78264 0.98522 0.83411 0.0
H1712 H 0.01691 0.77874 0.90584 0.0
H1713 H 0.03604 0.80041 0.78556 0.0
H1714 H 0.00036 0.79029 0.76769 0.0
H1715 H 0.96334 0.7704 0.78381 0.0
H1716 H 0.94373 0.74733 0.90345 0.0
H1717 H 0.97998 0.76324 0.9246 0.0
C1718 C 0.01322 0.78177 0.87614 0.0
C1719 C 0.02885 0.7905 0.84704 0.0
C1720 C 0.99262 0.77543 0.866 0.0
C1721 C 0.02417 0.79413 0.80845 0.0
C1722 C 0.00378 0.78813 0.79819 0.0
C1723 C 0.96704 0.76925 0.81471 0.0
C1724 C 0.95105 0.75744 0.8419 0.0
C1725 C 0.98781 0.77807 0.82633 0.0
C1726 C 0.95589 0.75625 0.88197 0.0
C1727 C 0.97658 0.76522 0.89398 0.0
H1728 H 0.99112 0.43603 0.92411 0.0
H1729 H 0.05118 0.46841 0.86721 0.0
H1730 H 0.03481 0.46036 0.80166 0.0
H1731 H 0.0033 0.44616 0.76008 0.0
H1732 H 0.9433 0.41461 0.81744 0.0
H1733 H 0.95975 0.42018 0.88252 0.0
C1734 C 0.00065 0.44103 0.8974 0.0
C1735 C 0.02237 0.45284 0.90087 0.0
C1736 C 0.99112 0.43662 0.85953 0.0
C1737 C 0.03442 0.45932 0.86571 0.0
C1738 C 0.02507 0.45477 0.82803 0.0
C1739 C -0.00617 0.44027 0.78675 0.0
C1740 C 0.97207 0.43006 0.7836 0.0
C1741 C 0.00341 0.44374 0.82452 0.0
C1742 C 0.96008 0.42265 0.8187 0.0
C1743 C 0.96948 0.42581 0.85614 0.0
H1744 H 0.52072 0.5654 0.86166 0.0
H1745 H 0.5562 0.5495 0.94122 0.0
H1746 H 0.56908 0.53859 0.88437 0.0
H1747 H 0.56904 0.53204 0.81188 0.0
H1748 H 0.5349 0.54974 0.73256 0.0
H1749 H 0.52275 0.56137 0.78929 0.0
C1750 C 0.53142 0.55972 0.86655 0.0
C1751 C 0.53743 0.55824 0.90569 0.0
C1752 C 0.53895 0.55366 0.83368 0.0
C1753 C 0.55142 0.55097 0.91142 0.0
C1754 C 0.55871 0.54458 0.87891 0.0
C1755 C 0.55907 0.53858 0.80709 0.0
C1756 C 0.55289 0.54 0.76805 0.0
C1757 C 0.55239 0.54563 0.8399 0.0
C1758 C 0.54005 0.54862 0.76224 0.0
C1759 C 0.533 0.55521 0.7947 0.0
H1760 H 0.41982 0.96133 0.88231 0.0
H1761 H 0.45591 0.01359 0.95955 0.0
H1762 H 0.4667 0.037 0.90218 0.0
H1763 H 0.46743 0.04249 0.82966 0.0
H1764 H 0.43007 0.99049 0.75265 0.0
H1765 H 0.41817 0.96728 0.81024 0.0
C1766 C 0.43001 0.97785 0.88656 0.0
C1767 C 0.43714 0.98566 0.92512 0.0
C1768 C 0.43594 0.99132 0.85348 0.0
C1769 C 0.45014 0.00715 0.93022 0.0
C1770 C 0.4564 0.02056 0.89742 0.0
C1771 C 0.45646 0.02612 0.82552 0.0
C1772 C 0.4497 0.0183 0.7868 0.0
C1773 C 0.44957 0.01281 0.85885 0.0
C1774 C 0.43543 -0.00297 0.78207 0.0
C1775 C 0.42872 0.98367 0.81501 0.0
H1776 H 0.95615 0.52201 0.32103 0.0
H1777 H 0.00839 0.55962 0.24426 0.0
H1778 H 0.03166 0.57028 0.3013 0.0
H1779 H 0.03768 0.56791 0.37294 0.0
H1780 H 0.98536 0.5315 0.45011 0.0
H1781 H 0.96186 0.52145 0.39325 0.0
C1782 C 0.97258 0.53275 0.31683 0.0
C1783 C 0.9804 0.53992 0.27826 0.0
C1784 C 0.98601 0.53897 0.34992 0.0
C1785 C 0.0018 0.55384 0.27352 0.0
C1786 C 0.01523 0.55991 0.30616 0.0
C1787 C 0.02113 0.55786 0.37724 0.0
C1788 C 0.01333 0.5505 0.41565 0.0
C1789 C 0.00758 0.55238 0.34444 0.0
C1790 C 0.9918 0.53756 0.42087 0.0
C1791 C 0.97831 0.53173 0.38834 0.0
H1792 H 0.46642 0.42833 0.31241 0.0
H1793 H 0.44438 0.45919 0.23394 0.0
H1794 H 0.43169 0.46988 0.29102 0.0
H1795 H 0.42767 0.47144 0.36334 0.0
H1796 H 0.44923 0.44025 0.44208 0.0
H1797 H 0.46095 0.4286 0.38491 0.0
C1798 C 0.45878 0.43733 0.30783 0.0
C1799 C 0.45641 0.44294 0.26894 0.0
C1800 C 0.45129 0.44333 0.34086 0.0
C1801 C 0.44636 0.45453 0.26352 0.0
C1802 C 0.43909 0.46071 0.29617 0.0
C1803 C 0.43473 0.46192 0.36804 0.0
C1804 C 0.43756 0.45681 0.40705 0.0
C1805 C 0.44154 0.45527 0.33499 0.0
C1806 C 0.44676 0.44442 0.41243 0.0
C1807 C 0.45359 0.43779 0.37972 0.0
H1808 H 0.54478 0.98989 0.26453 0.0
H1809 H 0.58131 0.0497 0.31999 0.0
H1810 H 0.57543 0.03346 0.38552 0.0
H1811 H 0.55676 0.00254 0.42857 0.0
H1812 H 0.51922 0.94281 0.3733 0.0
H1813 H 0.52874 0.95855 0.30728 0.0
C1814 C 0.55187 -0.0007 0.29082 0.0
C1815 C 0.56344 0.02103 0.28706 0.0
C1816 C 0.54803 0.98984 0.329 0.0
C1817 C 0.57224 0.03295 0.32179 0.0
C1818 C 0.56885 0.02367 0.35949 0.0
C1819 C 0.55105 0.99291 0.40211 0.0
C1820 C 0.5372 0.97149 0.40628 0.0
C1821 C 0.5563 0.00216 0.36373 0.0
C1822 C 0.52981 0.95936 0.37133 0.0
C1823 C 0.53522 0.96836 0.33331 0.0
H1824 H 0.69323 0.78201 0.22385 0.0
H1825 H 0.63938 0.76073 0.29981 0.0
H1826 H 0.61688 0.74923 0.24179 0.0
H1827 H 0.61251 0.74825 0.16926 0.0
H1828 H 0.66594 0.76938 0.09262 0.0
H1829 H 0.68841 0.77758 0.15091 0.0
C1830 C 0.67658 0.77463 0.22773 0.0
C1831 C 0.66815 0.77263 0.26619 0.0
C1832 C 0.66356 0.76806 0.19404 0.0
C1833 C 0.64644 0.7627 0.27063 0.0
C1834 C 0.63346 0.75612 0.2374 0.0
C1835 C 0.62904 0.75445 0.16536 0.0
C1836 C 0.63756 0.75843 0.1268 0.0
C1837 C 0.64188 0.75923 0.19895 0.0
C1838 C 0.65896 0.7661 0.12207 0.0
C1839 C 0.67186 0.77094 0.1554 0.0
H1840 H 0.23368 0.86177 0.1526 0.0
H1841 H 0.20987 0.89119 0.07453 0.0
H1842 H 0.20016 0.9045 0.1318 0.0
H1843 H 0.19618 0.90598 0.20426 0.0
H1844 H 0.2205 0.87723 0.28257 0.0
H1845 H 0.23248 0.86592 0.2253 0.0
C1846 C 0.22661 0.87131 0.14814 0.0
C1847 C 0.2224 0.87527 0.10928 0.0
C1848 C 0.22107 0.87908 0.18134 0.0
C1849 C 0.21332 0.88779 0.10406 0.0
C1850 C 0.20766 0.89542 0.13685 0.0
C1851 C 0.20419 0.89735 0.20875 0.0
C1852 C 0.20721 0.89231 0.24758 0.0
C1853 C 0.21109 0.89085 0.17563 0.0
C1854 C 0.21799 0.88142 0.25297 0.0
C1855 C 0.22477 0.8748 0.2202 0.0
H1856 H 0.10305 0.3371 0.26303 0.0
H1857 H 0.06494 0.2774 0.20823 0.0
H1858 H 0.07339 0.29339 0.14203 0.0
H1859 H 0.09455 0.32408 0.09901 0.0
H1860 H 0.13317 0.38343 0.15495 0.0
H1861 H 0.12138 0.36798 0.22067 0.0
C1862 C 0.09619 0.32762 0.23671 0.0
C1863 C 0.08356 0.306 0.24081 0.0
C1864 C 0.10135 0.3369 0.19853 0.0
C1865 C 0.07498 0.29403 0.20611 0.0
C1866 C 0.07979 0.30318 0.1681 0.0
C1867 C 0.09999 0.33369 0.12554 0.0
C1868 C 0.11482 0.35491 0.12181 0.0
C1869 C 0.09341 0.32457 0.16379 0.0
C1870 C 0.12187 0.36704 0.15673 0.0
C1871 C 0.11515 0.35821 0.19451 0.0
H1872 H 0.62525 0.87426 0.66906 0.0
H1873 H 0.67748 0.89288 0.59007 0.0
H1874 H 0.70086 0.90293 0.64705 0.0
H1875 H 0.70625 0.90429 0.71976 0.0
H1876 H 0.65395 0.88648 0.79846 0.0
H1877 H 0.63107 0.87841 0.74143 0.0
C1878 C 0.64176 0.88067 0.66439 0.0
C1879 C 0.64955 0.88271 0.62548 0.0
C1880 C 0.65521 0.88655 0.69731 0.0
C1881 C 0.67105 0.89128 0.61977 0.0
C1882 C 0.68447 0.89694 0.65237 0.0
C1883 C 0.68991 0.89891 0.72441 0.0
C1884 C 0.68192 0.89592 0.76341 0.0
C1885 C 0.67669 0.89436 0.69134 0.0
C1886 C 0.66066 0.88899 0.76884 0.0
C1887 C 0.64744 0.88426 0.73619 0.0
H1888 H 0.09446 0.77096 0.59754 0.0
H1889 H 0.12577 0.74193 0.65332 0.0
H1890 H 0.11539 0.74759 0.71904 0.0
H1891 H 0.10033 0.76378 0.76132 0.0
H1892 H 0.06996 0.79375 0.70549 0.0
H1893 H 0.07686 0.78453 0.6397 0.0
C1894 C 0.09872 0.76553 0.62399 0.0
C1895 C 0.111 0.75613 0.62024 0.0
C1896 C 0.09295 0.76912 0.662 0.0
C1897 C 0.1164 0.74929 0.65506 0.0
C1898 C 0.1105 0.75256 0.69284 0.0
C1899 C 0.09482 0.76791 0.73483 0.0
C1900 C 0.0847 0.77953 0.73857 0.0
C1901 C 0.09918 0.76288 0.69677 0.0
C1902 C 0.07786 0.78488 0.70371 0.0
C1903 C 0.08185 0.77966 0.66591 0.0
H1904 H 0.18419 0.27751 0.7032 0.0
H1905 H 0.22132 0.3283 0.78282 0.0
H1906 H 0.23612 0.35174 0.72601 0.0
H1907 H 0.23691 0.35841 0.65355 0.0
H1908 H 0.20089 0.30711 0.57413 0.0
H1909 H 0.18745 0.28347 0.63071 0.0
C1910 C 0.19573 0.29365 0.70808 0.0
C1911 C 0.20157 0.30109 0.74724 0.0
C1912 C 0.20435 0.30708 0.67521 0.0
C1913 C 0.21662 0.32205 0.753 0.0
C1914 C 0.22502 0.33556 0.7205 0.0
C1915 C 0.2263 0.34203 0.64866 0.0
C1916 C 0.21992 0.33462 0.60962 0.0
C1917 C 0.21876 0.32833 0.68146 0.0
C1918 C 0.20622 0.31329 0.60379 0.0
C1919 C 0.19841 0.2997 0.63619 0.0
H1920 H 0.36917 0.12912 0.54234 0.0
H1921 H 0.31692 0.11328 0.61969 0.0
H1922 H 0.29343 0.10022 0.56273 0.0
H1923 H 0.2879 0.09481 0.49038 0.0
H1924 H 0.34025 0.1101 0.41335 0.0
H1925 H 0.36337 0.1217 0.47064 0.0
C1926 C 0.35265 0.12276 0.54666 0.0
C1927 C 0.34483 0.12227 0.58503 0.0
C1928 C 0.33918 0.11512 0.51382 0.0
C1929 C 0.32333 0.11372 0.59039 0.0
C1930 C 0.30987 0.10631 0.55783 0.0
C1931 C 0.30431 0.10043 0.48617 0.0
C1932 C 0.31226 0.10163 0.44754 0.0
C1933 C 0.31764 0.1071 0.51933 0.0
C1934 C 0.33361 0.10895 0.4427 0.0
C1935 C 0.34694 0.11569 0.47546 0.0
H1936 H 0.89671 0.19173 0.48146 0.0
H1937 H 0.87587 0.223 0.40152 0.0
H1938 H 0.86419 0.23512 0.45838 0.0
H1939 H 0.85797 0.23508 0.53111 0.0
H1940 H 0.87979 0.20425 0.6102 0.0
H1941 H 0.89297 0.1939 0.55362 0.0
C1942 C 0.88987 0.20142 0.47645 0.0
C1943 C 0.88717 0.20638 0.43722 0.0
C1944 C 0.88319 0.20837 0.50926 0.0
C1945 C 0.87831 0.21904 0.43137 0.0
C1946 C 0.87147 0.22588 0.46392 0.0
C1947 C 0.86572 0.22622 0.53595 0.0
C1948 C 0.86772 0.22042 0.575 0.0
C1949 C 0.87352 0.22036 0.50304 0.0
C1950 C 0.87802 0.20907 0.58063 0.0
C1951 C 0.88556 0.20304 0.5482 0.0
H1952 H 0.7589 0.61678 0.52773 0.0
H1953 H 0.77659 0.668 0.60857 0.0
H1954 H 0.78681 0.69195 0.55224 0.0
H1955 H 0.79226 0.69868 0.47973 0.0
H1956 H 0.77323 0.64703 0.39913 0.0
H1957 H 0.7621 0.62312 0.45536 0.0
C1958 C 0.76488 0.63314 0.53302 0.0
C1959 C 0.76701 0.6405 0.57239 0.0
C1960 C 0.77061 0.64686 0.50041 0.0
C1961 C 0.7746 0.6618 0.5786 0.0
C1962 C 0.78059 0.67558 0.54637 0.0
C1963 C 0.78554 0.68218 0.47449 0.0
C1964 C 0.78365 0.67475 0.43517 0.0
C1965 C 0.77889 0.66833 0.5071 0.0
C1966 C 0.7748 0.65327 0.42897 0.0
C1967 C 0.76848 0.63951 0.46118 0.0
H1968 H 0.28535 0.20065 0.98485 0.0
H1969 H 0.33742 0.21703 0.90661 0.0
H1970 H 0.36116 0.23068 0.963 0.0
H1971 H 0.36699 0.23589 0.03531 0.0
H1972 H 0.31494 0.22019 0.11338 0.0
H1973 H 0.29159 0.20867 0.05648 0.0
C1974 C 0.30189 0.20731 0.9802 0.0
C1975 C 0.30954 0.20769 0.94168 0.0
C1976 C 0.31557 0.21532 1.01278 0.0
C1977 C 0.33108 0.21662 0.93597 0.0
C1978 C 0.34472 0.22439 0.96824 0.0
C1979 C 0.35062 0.23028 0.03986 0.0
C1980 C 0.34284 0.22878 0.07875 0.0
C1981 C 0.33712 0.22358 1.0069 0.0
C1982 C 0.32149 0.22149 0.08389 0.0
C1983 C 0.30801 0.21478 0.05133 0.0
H1984 H 0.80164 0.09393 0.98063 0.0
H1985 H 0.77671 0.12192 0.90178 0.0
H1986 H 0.76442 0.13301 0.95899 0.0
H1987 H 0.76102 0.13521 0.03159 0.0
H1988 H 0.78509 0.10639 0.11043 0.0
H1989 H 0.79733 0.09522 0.05323 0.0
C1990 C 0.7935 0.10242 0.97596 0.0
C1991 C 0.79014 0.10705 0.93691 0.0
C1992 C 0.78626 0.10863 1.00906 0.0
C1993 C 0.77943 0.11799 0.93146 0.0
C1994 C 0.77242 0.12442 0.96419 0.0
C1995 C 0.76889 0.12643 0.03624 0.0
C1996 C 0.77206 0.12163 0.07527 0.0
C1997 C 0.77577 0.11987 1.00314 0.0
C1998 C 0.78225 0.11018 0.08073 0.0
C1999 C 0.78936 0.10383 0.04801 0.0
H2000 H 0.89741 0.70725 0.97346 0.0
H2001 H 0.86566 0.65502 0.89407 0.0
H2002 H 0.85587 0.63123 0.95104 0.0
H2003 H 0.85512 0.62541 1.02425 0.0
H2004 H 0.88754 0.67835 0.10218 0.0
H2005 H 0.89816 0.70153 0.04504 0.0
C2006 C 0.88847 0.69065 0.96844 0.0
C2007 C 0.8823 0.68298 0.92943 0.0
C2008 C 0.88291 0.67711 1.00125 0.0
C2009 C 0.8708 0.66139 0.92368 0.0
C2010 C 0.86508 0.64777 0.95632 0.0
C2011 C 0.86463 0.642 0.02871 0.0
C2012 C 0.87042 0.64999 0.06776 0.0
C2013 C 0.87088 0.65546 0.99538 0.0
C2014 C 0.88282 0.67159 0.07272 0.0
C2015 C 0.88892 0.68496 0.03996 0.0
H2016 H 0.05237 0.53183 0.64332 0.0
H2017 H 0.1158 0.5767 0.61507 0.0
H2018 H 0.12645 0.57205 0.68223 0.0
H2019 H 0.1168 0.55672 0.75086 0.0
H2020 H 0.0529 0.51088 0.77484 0.0
H2021 H 0.04339 0.51456 0.7073 0.0
C2022 C 0.06863 0.54048 0.65141 0.0
C2023 C 0.08326 0.55471 0.62418 0.0
C2024 C 0.07448 0.53771 0.68959 0.0
C2025 C 0.10423 0.56563 0.63538 0.0
C2026 C 0.11026 0.56303 0.67387 0.0
C2027 C 0.10087 0.54736 0.74113 0.0
C2028 C 0.08552 0.53392 0.76856 0.0
C2029 C 0.09541 0.54934 0.70155 0.0
C2030 C 0.06496 0.52185 0.75513 0.0
C2031 C 0.05948 0.5238 0.71629 0.0
H2032 H 0.4293 0.54931 0.74345 0.0
H2033 H 0.48974 0.55448 0.74783 0.0
H2034 H 0.48657 0.5441 0.67825 0.0
H2035 H 0.46571 0.53066 0.61848 0.0
H2036 H 0.4056 0.52553 0.61092 0.0
H2037 H 0.40982 0.53951 0.67914 0.0
C2038 C 0.44194 0.54856 0.72897 0.0
C2039 C 0.45956 0.55225 0.75137 0.0
C2040 C 0.44012 0.5427 0.68841 0.0
C2041 C 0.47575 0.55116 0.73192 0.0
C2042 C 0.47405 0.54538 0.69195 0.0
C2043 C 0.4537 0.53304 0.63132 0.0
C2044 C 0.43538 0.52707 0.60976 0.0
C2045 C 0.45615 0.54068 0.67028 0.0
C2046 C 0.41993 0.53021 0.62681 0.0
C2047 C 0.42228 0.53797 0.66595 0.0
H2048 H 0.4357 0.88585 0.75356 0.0
H2049 H 0.46856 0.95082 0.78515 0.0
H2050 H 0.4826 0.9598 0.71801 0.0
H2051 H 0.48628 0.94969 0.65128 0.0
H2052 H 0.45328 0.88536 0.61606 0.0
H2053 H 0.43836 0.87572 0.68361 0.0
C2054 C 0.44576 0.90198 0.74566 0.0
C2055 C 0.45125 0.91757 0.77501 0.0
C2056 C 0.45373 0.9072 0.70633 0.0
C2057 C 0.46441 0.93839 0.76392 0.0
C2058 C 0.47236 0.94361 0.72527 0.0
C2059 C 0.47567 0.9335 0.65787 0.0
C2060 C 0.47089 0.91829 0.62824 0.0
C2061 C 0.46724 0.92817 0.69641 0.0
C2062 C 0.45721 0.89743 0.63804 0.0
C2063 C 0.44872 0.89193 0.67675 0.0
H2064 H 0.55899 0.11332 0.94535 0.0
H2065 H 0.50021 0.05636 0.93709 0.0
H2066 H 0.50323 0.04827 1.00614 0.0
H2067 H 0.52345 0.0558 0.06699 0.0
H2068 H 0.58185 0.1126 0.07825 0.0
H2069 H 0.57779 0.12268 1.01031 0.0
C2070 C 0.54667 0.09933 0.95883 0.0
C2071 C 0.52958 0.08527 0.93541 0.0
C2072 C 0.54839 0.09478 0.99915 0.0
C2073 C 0.51382 0.0672 0.95368 0.0
C2074 C 0.51544 0.06261 0.99341 0.0
C2075 C 0.53518 0.07058 0.05495 0.0
C2076 C 0.55297 0.08339 0.0776 0.0
C2077 C 0.53282 0.07605 1.01608 0.0
C2078 C 0.56794 0.10252 0.06154 0.0
C2079 C 0.56569 0.10817 1.02256 0.0
H2080 H 0.88239 0.42837 0.94933 0.0
H2081 H 0.93287 0.48246 0.89394 0.0
H2082 H 0.94294 0.49973 0.9584 0.0
H2083 H 0.93797 0.4997 0.03004 0.0
H2084 H 0.8879 0.44648 0.08807 0.0
H2085 H 0.87702 0.42873 1.02315 0.0
C2086 C 0.89563 0.44389 0.9515 0.0
C2087 C 0.90676 0.45412 0.91655 0.0
C2088 C 0.90139 0.45392 0.98912 0.0
C2089 C 0.92382 0.4743 0.92 0.0
C2090 C 0.92968 0.48418 0.95698 0.0
C2091 C 0.92468 0.48417 0.02881 0.0
C2092 C 0.91388 0.47442 0.06418 0.0
C2093 C 0.91862 0.47418 0.99165 0.0
C2094 C 0.89648 0.45442 0.06145 0.0
C2095 C 0.89034 0.44424 1.0243 0.0
H2096 H 0.48643 0.42041 0.02627 0.0
H2097 H 0.54397 0.43264 0.08034 0.0
H2098 H 0.56053 0.44035 1.01389 0.0
H2099 H 0.55892 0.44606 0.94045 0.0
H2100 H 0.5008 0.43463 0.88977 0.0
H2101 H 0.48435 0.42447 0.955 0.0
C2102 C 0.50258 0.42452 1.02366 0.0
C2103 C 0.51396 0.42596 0.05833 0.0
C2104 C 0.51197 0.42939 0.98587 0.0
C2105 C 0.53479 0.43117 0.05418 0.0
C2106 C 0.54429 0.43583 1.0162 0.0
C2107 C 0.54266 0.44133 0.94376 0.0
C2108 C 0.53112 0.44103 0.90992 0.0
C2109 C 0.53313 0.43544 0.98185 0.0
C2110 C 0.51002 0.43472 0.91487 0.0
C2111 C 0.50057 0.42896 0.95227 0.0
H2112 H 0.88014 0.43077 0.43543 0.0
H2113 H 0.94301 0.48135 0.42117 0.0
H2114 H 0.95088 0.47668 0.48938 0.0
H2115 H 0.94088 0.45759 0.55155 0.0
H2116 H 0.87825 0.4078 0.5699 0.0
H2117 H 0.86915 0.4132 0.5019 0.0
C2118 C 0.89547 0.44095 0.44738 0.0
C2119 C 0.91107 0.4561 0.42243 0.0
C2120 C 0.89993 0.4384 0.48739 0.0
C2121 C 0.93084 0.46912 0.43882 0.0
C2122 C 0.93535 0.46661 0.4781 0.0
C2123 C 0.92512 0.44797 0.54106 0.0
C2124 C 0.9103 0.4322 0.56581 0.0
C2125 C 0.92015 0.45114 0.50235 0.0
C2126 C 0.88994 0.42008 0.55159 0.0
C2127 C 0.88481 0.42311 0.5126 0.0
H2128 H 0.53905 0.48777 0.53711 0.0
H2129 H 0.57551 0.45991 0.57101 0.0
H2130 H 0.56916 0.44328 0.50481 0.0
H2131 H 0.55443 0.43836 0.43574 0.0
H2132 H 0.51655 0.46554 0.40676 0.0
H2133 H 0.5224 0.48078 0.47285 0.0
C2134 C 0.54556 0.47793 0.53052 0.0
C2135 C 0.5579 0.47524 0.55915 0.0
C2136 C 0.5417 0.46844 0.49299 0.0
C2137 C 0.56598 0.46227 0.54966 0.0
C2138 C 0.56238 0.45284 0.51173 0.0
C2139 C 0.54727 0.44742 0.44404 0.0
C2140 C 0.53547 0.45118 0.41553 0.0
C2141 C 0.55043 0.45602 0.48289 0.0
C2142 C 0.52627 0.46291 0.4272 0.0
C2143 C 0.52944 0.47152 0.46525 0.0
H2144 H 0.5561 0.11599 0.45198 0.0
H2145 H 0.52417 0.05163 0.41615 0.0
H2146 H 0.50908 0.04135 0.48225 0.0
H2147 H 0.50408 0.05012 0.54892 0.0
H2148 H 0.53583 0.11371 0.58885 0.0
H2149 H 0.5521 0.12476 0.52252 0.0
C2150 C 0.54601 0.09972 0.45882 0.0
C2151 C 0.54101 0.08467 0.42858 0.0
C2152 C 0.5374 0.09375 0.49758 0.0
C2153 C 0.52789 0.06364 0.43818 0.0
C2154 C 0.51935 0.05768 0.4762 0.0
C2155 C 0.51469 0.06646 0.54367 0.0
C2156 C 0.5187 0.08105 0.57418 0.0
C2157 C 0.52384 0.07257 0.5059 0.0
C2158 C 0.53247 0.10211 0.56612 0.0
C2159 C 0.54172 0.10841 0.52812 0.0
H2160 H 0.44505 0.88466 0.24536 0.0
H2161 H 0.42872 0.92649 0.30255 0.0
H2162 H 0.41741 0.93312 0.23879 0.0
H2163 H 0.4144 0.9292 0.16682 0.0
H2164 H 0.43084 0.88822 0.1068 0.0
H2165 H 0.4393 0.87861 0.17162 0.0
C2166 C 0.43884 0.89506 0.2438 0.0
C2167 C 0.43821 0.90547 0.27867 0.0
C2168 C 0.43231 0.89889 0.20661 0.0
C2169 C 0.42997 0.91879 0.27612 0.0
C2170 C 0.42335 0.92248 0.2397 0.0
C2171 C 0.41959 0.91793 0.1678 0.0
C2172 C 0.42206 0.9095 0.13194 0.0
C2173 C 0.42482 0.91295 0.20475 0.0
C2174 C 0.42862 0.8948 0.13393 0.0
C2175 C 0.43367 0.88951 0.171 0.0
H2176 H 0.04882 0.50516 0.142 0.0
H2177 H 0.11301 0.52688 0.11402 0.0
H2178 H 0.12291 0.54151 0.18164 0.0
H2179 H 0.11272 0.54632 0.25009 0.0
H2180 H 0.04811 0.52495 0.27469 0.0
H2181 H 0.03905 0.51182 0.20705 0.0
C2182 C 0.06504 0.51315 0.1504 0.0
C2183 C 0.08013 0.51474 0.12294 0.0
C2184 C 0.07051 0.52141 0.18898 0.0
C2185 C 0.10107 0.52543 0.13447 0.0
C2186 C 0.10669 0.5337 0.17322 0.0
C2187 C 0.09669 0.53899 0.24053 0.0
C2188 C 0.08111 0.53632 0.26806 0.0
C2189 C 0.09148 0.53155 0.20095 0.0
C2190 C 0.06041 0.52674 0.25486 0.0
C2191 C 0.05518 0.51933 0.21594 0.0
H2192 H 0.49881 0.56874 0.14924 0.0
H2193 H 0.44209 0.55603 0.09084 0.0
H2194 H 0.42436 0.54813 0.15611 0.0
H2195 H 0.42464 0.54186 0.22956 0.0
H2196 H 0.4821 0.5542 0.28482 0.0
H2197 H 0.49979 0.56495 0.22077 0.0
C2198 C 0.48257 0.56441 0.15064 0.0
C2199 C 0.47172 0.56281 0.11519 0.0
C2200 C 0.47255 0.55949 0.18774 0.0
C2201 C 0.45081 0.55749 0.11771 0.0
C2202 C 0.44066 0.55278 0.155 0.0
C2203 C 0.44106 0.5471 0.22755 0.0
C2204 C 0.45192 0.54683 0.26198 0.0
C2205 C 0.45128 0.55325 0.1902 0.0
C2206 C 0.47323 0.55372 0.25881 0.0
C2207 C 0.48342 0.56001 0.22221 0.0
H2208 H 0.7154 0.87726 1.00204 0.0
H2209 H 0.77363 0.88788 0.95317 0.0
H2210 H 0.78196 0.87804 1.018 0.0
H2211 H 0.77195 0.86569 0.08886 0.0
H2212 H 0.71323 0.85584 0.13378 0.0
H2213 H 0.70585 0.86593 0.06974 0.0
C2214 C 0.73004 0.87753 1.00496 0.0
C2215 C 0.74386 0.88336 0.97219 0.0
C2216 C 0.73456 0.87179 0.0418 0.0
C2217 C 0.76267 0.88352 0.97758 0.0
C2218 C 0.76739 0.87785 1.01472 0.0
C2219 C 0.7576 0.86585 0.08462 0.0
C2220 C 0.74303 0.85961 0.11633 0.0
C2221 C 0.75338 0.87186 0.04713 0.0
C2222 C 0.72452 0.85997 0.11002 0.0
C2223 C 0.72033 0.86592 0.07336 0.0
H2224 H 0.11525 0.8345 0.97895 0.0
H2225 H 0.08385 0.86718 0.94205 0.0
H2226 H 0.09053 0.88387 1.00806 0.0
H2227 H 0.10464 0.8882 0.07734 0.0
H2228 H 0.1361 0.85502 0.1111 0.0
H2229 H 0.13016 0.83964 0.04495 0.0
C2230 C 0.10987 0.84533 0.98498 0.0
C2231 C 0.09893 0.84946 0.95545 0.0
C2232 C 0.1138 0.85478 1.02259 0.0
C2233 C 0.09231 0.86371 0.9641 0.0
C2234 C 0.09607 0.87318 1.00193 0.0
C2235 C 0.11015 0.87759 0.07013 0.0
C2236 C 0.12091 0.87289 0.09928 0.0
C2237 C 0.10666 0.86867 0.03161 0.0
C2238 C 0.12808 0.85921 0.08928 0.0
C2239 C 0.12457 0.85026 0.05147 0.0
H2240 H 0.14537 0.2725 0.98306 0.0
H2241 H 0.10898 0.20899 0.94403 0.0
H2242 H 0.09243 0.19939 1.01045 0.0
H2243 H 0.08883 0.20949 0.0805 0.0
H2244 H 0.12672 0.27356 0.11585 0.0
H2245 H 0.14203 0.28239 0.04974 0.0
C2246 C 0.13376 0.25647 0.98851 0.0
C2247 C 0.12849 0.24151 0.9581 0.0
C2248 C 0.12453 0.25117 0.02639 0.0
C2249 C 0.11337 0.22089 0.96657 0.0
C2250 C 0.10395 0.21541 1.00467 0.0
C2251 C 0.10047 0.22535 0.07369 0.0
C2252 C 0.10631 0.24087 0.10338 0.0
C2253 C 0.1095 0.23045 0.035 0.0
C2254 C 0.12146 0.26134 0.09375 0.0
C2255 C 0.13039 0.26643 0.05588 0.0
H2256 H 0.20023 0.37726 0.38777 0.0
H2257 H 0.25024 0.43914 0.41138 0.0
H2258 H 0.24586 0.44994 0.34411 0.0
H2259 H 0.2293 0.44055 0.27642 0.0
H2260 H 0.17932 0.37796 0.25645 0.0
H2261 H 0.18271 0.36861 0.32419 0.0
C2262 C 0.21015 0.39323 0.37863 0.0
C2263 C 0.22567 0.40734 0.40466 0.0
C2264 C 0.20777 0.39908 0.34014 0.0
C2265 C 0.23813 0.42798 0.39211 0.0
C2266 C 0.23571 0.43406 0.3535 0.0
C2267 C 0.21896 0.42496 0.2871 0.0
C2268 C 0.20433 0.4099 0.26068 0.0
C2269 C 0.22081 0.4196 0.32689 0.0
C2270 C 0.19111 0.38977 0.27533 0.0
C2271 C 0.19286 0.38441 0.31438 0.0
H2272 H 0.54626 0.77126 0.3019 0.0
H2273 H 0.60844 0.81095 0.25766 0.0
H2274 H 0.61869 0.82854 0.32169 0.0
H2275 H 0.61043 0.83303 0.3891 0.0
H2276 H 0.54892 0.79412 0.43692 0.0
H2277 H 0.53796 0.77586 0.37245 0.0
C2278 C 0.56202 0.78376 0.3064 0.0
C2279 C 0.57661 0.78958 0.27497 0.0
C2280 C 0.56793 0.79395 0.34378 0.0
C2281 C 0.597 0.80581 0.28136 0.0
C2282 C 0.60286 0.81601 0.31796 0.0
C2283 C 0.59453 0.82057 0.38591 0.0
C2284 C 0.5805 0.81506 0.41815 0.0
C2285 C 0.5885 0.81021 0.34925 0.0
C2286 C 0.56007 0.79875 0.41278 0.0
C2287 C 0.55382 0.78832 0.37587 0.0
H2288 H 0.15261 0.76419 0.36857 0.0
H2289 H 0.2074 0.76936 0.4233 0.0
H2290 H 0.22451 0.77682 0.35749 0.0
H2291 H 0.22383 0.78261 0.28393 0.0
H2292 H 0.16791 0.7761 0.23167 0.0
H2293 H 0.15132 0.7683 0.29708 0.0
C2294 C 0.16833 0.76692 0.36633 0.0
C2295 C 0.17876 0.76635 0.40097 0.0
C2296 C 0.17788 0.77103 0.3287 0.0
C2297 C 0.19898 0.76963 0.39715 0.0
C2298 C 0.20878 0.77401 0.35953 0.0
C2299 C 0.20806 0.77958 0.28699 0.0
C2300 C 0.19714 0.77994 0.25275 0.0
C2301 C 0.19842 0.77492 0.32503 0.0
C2302 C 0.17662 0.77576 0.25726 0.0
C2303 C 0.16714 0.77141 0.2947 0.0
H2304 H 0.60913 0.78704 0.89235 0.0
H2305 H 0.54621 0.76245 0.93394 0.0
H2306 H 0.53664 0.77004 0.86815 0.0
H2307 H 0.54662 0.78368 0.79811 0.0
H2308 H 0.61018 0.80792 0.76056 0.0
H2309 H 0.61897 0.80047 0.82589 0.0
C2310 C 0.59323 0.78334 0.88766 0.0
C2311 C 0.57843 0.77419 0.91855 0.0
C2312 C 0.58799 0.78775 0.85028 0.0
C2313 C 0.55798 0.76955 0.91099 0.0
C2314 C 0.55252 0.77387 0.87329 0.0
C2315 C 0.56236 0.7873 0.80435 0.0
C2316 C 0.57777 0.79662 0.77437 0.0
C2317 C 0.56744 0.78294 0.84257 0.0
C2318 C 0.5981 0.8012 0.78305 0.0
C2319 C 0.60314 0.79681 0.82043 0.0
H2320 H 0.21685 0.76906 0.77571 0.0
H2321 H 0.17649 0.79341 0.74709 0.0
H2322 H 0.18074 0.80747 0.81393 0.0
H2323 H 0.19649 0.81411 0.87917 0.0
H2324 H 0.23646 0.79007 0.91184 0.0
H2325 H 0.23131 0.77414 0.84516 0.0
C2326 C 0.2088 0.77723 0.78429 0.0
C2327 C 0.1967 0.78051 0.7557 0.0
C2328 C 0.21112 0.78523 0.82357 0.0
C2329 C 0.18638 0.79112 0.76767 0.0
C2330 C 0.18863 0.79904 0.80617 0.0
C2331 C 0.20406 0.80528 0.87214 0.0
C2332 C 0.21699 0.80345 0.90064 0.0
C2333 C 0.20113 0.79642 0.83409 0.0
C2334 C 0.2264 0.79173 0.89066 0.0
C2335 C 0.22352 0.78272 0.85241 0.0
H2336 H 0.22308 0.43822 0.77953 0.0
H2337 H 0.1909 0.37304 0.74956 0.0
H2338 H 0.17593 0.36445 0.81596 0.0
H2339 H 0.17111 0.37493 0.88151 0.0
H2340 H 0.20343 0.43936 0.9156 0.0
H2341 H 0.21949 0.4487 0.84885 0.0
C2342 C 0.21298 0.42213 0.78768 0.0
C2343 C 0.20787 0.40636 0.75887 0.0
C2344 C 0.2045 0.41712 0.82671 0.0
C2345 C 0.1947 0.38561 0.77029 0.0
C2346 C 0.18624 0.3806 0.80856 0.0
C2347 C 0.1818 0.39106 0.87483 0.0
C2348 C 0.18601 0.40638 0.90387 0.0
C2349 C 0.19087 0.3962 0.83679 0.0
C2350 C 0.19991 0.42719 0.89406 0.0
C2351 C 0.20904 0.43252 0.85579 0.0
H2352 H 0.07791 0.21958 0.46169 0.0
H2353 H 0.12244 0.28494 0.46722 0.0
H2354 H 0.13364 0.28098 0.53248 0.0
H2355 H 0.12962 0.25999 0.59057 0.0
H2356 H 0.08266 0.19532 0.59185 0.0
H2357 H 0.07393 0.19786 0.52231 0.0
C2358 C 0.09032 0.23279 0.47693 0.0
C2359 C 0.09971 0.25251 0.45858 0.0
C2360 C 0.09615 0.2306 0.51636 0.0
C2361 C 0.11537 0.26951 0.47962 0.0
C2362 C 0.12166 0.26733 0.51747 0.0
C2363 C 0.11729 0.24641 0.57604 0.0
C2364 C 0.10673 0.22758 0.59711 0.0
C2365 C 0.11192 0.24809 0.53652 0.0
C2366 C 0.09126 0.21008 0.57669 0.0
C2367 C 0.08612 0.21154 0.53679 0.0
H2368 H 0.77406 0.87488 0.59729 0.0
H2369 H 0.71346 0.86801 0.61596 0.0
H2370 H 0.70354 0.85508 0.54851 0.0
H2371 H 0.71096 0.84421 0.48558 0.0
H2372 H 0.77094 0.85083 0.46286 0.0
H2373 H 0.78247 0.8661 0.52987 0.0
C2374 C 0.7588 0.87084 0.5864 0.0
C2375 C 0.7444 0.87203 0.61253 0.0
C2376 C 0.75313 0.86357 0.54665 0.0
C2377 C 0.7247 0.86671 0.59747 0.0
C2378 C 0.71904 0.8595 0.55853 0.0
C2379 C 0.7267 0.84921 0.49482 0.0
C2380 C 0.74001 0.84627 0.46903 0.0
C2381 C 0.73297 0.85761 0.53314 0.0
C2382 C 0.76037 0.85299 0.48182 0.0
C2383 C 0.76687 0.86156 0.52033 0.0
H2384 H 0.09034 0.87029 0.57183 0.0
H2385 H 0.14619 0.87774 0.62636 0.0
H2386 H 0.1639 0.88754 0.56213 0.0
H2387 H 0.16349 0.89244 0.49116 0.0
H2388 H 0.1085 0.88504 0.43316 0.0
H2389 H 0.09054 0.87691 0.4982 0.0
C2390 C 0.10639 0.8741 0.56955 0.0
C2391 C 0.1168 0.87291 0.6039 0.0
C2392 C 0.11659 0.87959 0.53204 0.0
C2393 C 0.13764 0.87801 0.60042 0.0
C2394 C 0.14783 0.88368 0.56373 0.0
C2395 C 0.14753 0.88905 0.49237 0.0
C2396 C 0.13732 0.88917 0.45704 0.0
C2397 C 0.1374 0.88422 0.52939 0.0
C2398 C 0.11677 0.88509 0.45978 0.0
C2399 C 0.10649 0.88033 0.49698 0.0
H2400 H 0.444 0.21946 0.40831 0.0
H2401 H 0.37964 0.18242 0.44262 0.0
H2402 H 0.36893 0.18686 0.37658 0.0
H2403 H 0.37738 0.20219 0.31074 0.0
H2404 H 0.44108 0.23928 0.2732 0.0
H2405 H 0.45253 0.23386 0.33885 0.0
C2406 C 0.42765 0.21237 0.40123 0.0
C2407 C 0.41267 0.2005 0.4306 0.0
C2408 C 0.42148 0.21501 0.36273 0.0
C2409 C 0.39154 0.19132 0.4207 0.0
C2410 C 0.38536 0.19397 0.38293 0.0
C2411 C 0.39383 0.20904 0.31649 0.0
C2412 C 0.40833 0.22124 0.2869 0.0
C2413 C 0.40016 0.20587 0.35392 0.0
C2414 C 0.42955 0.2298 0.29526 0.0
C2415 C 0.43607 0.22677 0.3329 0.0
H2416 H 0.7651 0.22065 0.40651 0.0
H2417 H 0.80328 0.19418 0.43794 0.0
H2418 H 0.79711 0.1778 0.37285 0.0
H2419 H 0.78033 0.1699 0.30878 0.0
H2420 H 0.74254 0.19596 0.2731 0.0
H2421 H 0.74896 0.21351 0.33834 0.0
C2422 C 0.77203 0.21128 0.39902 0.0
C2423 C 0.78478 0.20881 0.42723 0.0
C2424 C 0.76838 0.20173 0.36103 0.0
C2425 C 0.79373 0.1967 0.41685 0.0
C2426 C 0.79007 0.18714 0.37967 0.0
C2427 C 0.77339 0.17938 0.31487 0.0
C2428 C 0.76077 0.18138 0.28597 0.0
C2429 C 0.77735 0.18943 0.35178 0.0
C2430 C 0.75227 0.19407 0.29471 0.0
C2431 C 0.75593 0.20406 0.33207 0.0
H2432 H 0.82211 0.61008 0.30497 0.0
H2433 H 0.79724 0.54649 0.26793 0.0
H2434 H 0.78061 0.5348 0.33384 0.0
H2435 H 0.77381 0.54308 0.40292 0.0
H2436 H 0.79901 0.60726 0.43629 0.0
H2437 H 0.81485 0.61822 0.37066 0.0
C2438 C 0.81307 0.59357 0.31088 0.0
C2439 C 0.8111 0.57918 0.28125 0.0
C2440 C 0.80358 0.58709 0.34837 0.0
C2441 C 0.79907 0.55793 0.28998 0.0
C2442 C 0.78961 0.55127 0.32775 0.0
C2443 C 0.78275 0.55944 0.3957 0.0
C2444 C 0.78504 0.57431 0.42463 0.0
C2445 C 0.79185 0.56575 0.35735 0.0
C2446 C 0.79663 0.59546 0.41463 0.0
C2447 C 0.80582 0.60177 0.3771 0.0
H2448 H 0.90939 0.751 0.69496 0.0
H2449 H 0.87218 0.77295 0.7522 0.0
H2450 H 0.86257 0.78033 0.68635 0.0
H2451 H 0.86089 0.7755 0.61216 0.0
H2452 H 0.8964 0.75058 0.55766 0.0
H2453 H 0.91014 0.74896 0.6226 0.0
C2454 C 0.89962 0.75796 0.69306 0.0
C2455 C 0.89159 0.76154 0.72837 0.0
C2456 C 0.89334 0.76099 0.65541 0.0
C2457 C 0.87888 0.77043 0.72553 0.0
C2458 C 0.87309 0.77426 0.68781 0.0
C2459 C 0.87185 0.76999 0.61454 0.0
C2460 C 0.87733 0.76286 0.57999 0.0
C2461 C 0.87958 0.76881 0.65248 0.0
C2462 C 0.89155 0.75574 0.58368 0.0
C2463 C 0.89957 0.75496 0.62082 0.0
H2464 H 0.21055 0.10736 0.60839 0.0
H2465 H 0.27373 0.12056 0.59401 0.0
H2466 H 0.28123 0.13229 0.66274 0.0
H2467 H 0.27092 0.14083 0.72511 0.0
H2468 H 0.20824 0.12788 0.74309 0.0
H2469 H 0.19924 0.1133 0.67512 0.0
C2470 C 0.22586 0.11251 0.62045 0.0
C2471 C 0.24165 0.11345 0.59538 0.0
C2472 C 0.23012 0.11912 0.66069 0.0
C2473 C 0.26141 0.12021 0.61183 0.0
C2474 C 0.2657 0.12676 0.6514 0.0
C2475 C 0.25513 0.13451 0.71463 0.0
C2476 C 0.24028 0.1355 0.73922 0.0
C2477 C 0.25031 0.12659 0.67578 0.0
C2478 C 0.21992 0.12717 0.72496 0.0
C2479 C 0.21488 0.11904 0.68594 0.0
H2480 H 0.82241 0.08632 0.69286 0.0
H2481 H 0.87946 0.09978 0.75101 0.0
H2482 H 0.89743 0.10931 0.68606 0.0
H2483 H 0.89727 0.11682 0.61321 0.0
H2484 H 0.83967 0.1044 0.55848 0.0
H2485 H 0.82173 0.09197 0.6219 0.0
C2486 C 0.83878 0.09115 0.69155 0.0
C2487 C 0.84958 0.09243 0.72695 0.0
C2488 C 0.849 0.09721 0.65468 0.0
C2489 C 0.87071 0.0985 0.7243 0.0
C2490 C 0.88101 0.10416 0.68717 0.0
C2491 C 0.88076 0.11119 0.61519 0.0
C2492 C 0.86993 0.11188 0.58108 0.0
C2493 C 0.8704 0.10406 0.65223 0.0
C2494 C 0.84852 0.10452 0.58424 0.0
C2495 C 0.83818 0.09723 0.62049 0.0
H2496 H 0.21014 0.10779 0.11827 0.0
H2497 H 0.27409 0.13839 0.0797 0.0
H2498 H 0.28453 0.13199 0.14439 0.0
H2499 H 0.27594 0.11751 0.21075 0.0
H2500 H 0.21263 0.08687 0.2527 0.0
H2501 H 0.20151 0.0935 0.18777 0.0
C2502 C 0.22634 0.11302 0.12412 0.0
C2503 C 0.24132 0.12374 0.09405 0.0
C2504 C 0.23236 0.10928 0.16188 0.0
C2505 C 0.26226 0.13047 0.10228 0.0
C2506 C 0.26826 0.1267 0.13927 0.0
C2507 C 0.25963 0.11218 0.20608 0.0
C2508 C 0.24512 0.10153 0.23676 0.0
C2509 C 0.25348 0.11611 0.16914 0.0
C2510 C 0.22414 0.09507 0.22975 0.0
C2511 C 0.2178 0.09883 0.19256 0.0
H2512 H 0.85676 0.13816 0.21413 0.0
H2513 H 0.90676 0.12658 0.24083 0.0
H2514 H 0.90313 0.11128 0.17406 0.0
H2515 H 0.88678 0.10309 0.10646 0.0
H2516 H 0.8377 0.11648 0.0818 0.0
H2517 H 0.84002 0.12918 0.14952 0.0
C2518 C 0.86686 0.13218 0.20575 0.0
C2519 C 0.88211 0.13364 0.23263 0.0
C2520 C 0.86489 0.12382 0.16742 0.0
C2521 C 0.89483 0.12559 0.22096 0.0
C2522 C 0.89284 0.11699 0.18263 0.0
C2523 C 0.87659 0.10878 0.11594 0.0
C2524 C 0.86196 0.10863 0.0888 0.0
C2525 C 0.87813 0.11635 0.15529 0.0
C2526 C 0.84881 0.11596 0.10192 0.0
C2527 C 0.85022 0.12339 0.14069 0.0
H2528 H 0.88012 0.78496 0.10429 0.0
H2529 H 0.86455 0.7221 0.07678 0.0
H2530 H 0.85129 0.71125 0.144 0.0
H2531 H 0.84225 0.71867 0.20863 0.0
H2532 H 0.85668 0.7807 0.23942 0.0
H2533 H 0.8724 0.79286 0.1729 0.0
C2534 C 0.87387 0.76892 0.11312 0.0
C2535 C 0.87351 0.75442 0.08528 0.0
C2536 C 0.86605 0.76262 0.15229 0.0
C2537 C 0.86544 0.73371 0.09746 0.0
C2538 C 0.85769 0.72742 0.13592 0.0
C2539 C 0.84896 0.73495 0.20123 0.0
C2540 C 0.84812 0.74873 0.22905 0.0
C2541 C 0.85772 0.74165 0.16331 0.0
C2542 C 0.85713 0.76977 0.2187 0.0
C2543 C 0.86599 0.77665 0.18055 0.0
H2544 H 0.78719 0.54872 0.89984 0.0
H2545 H 0.77308 0.59318 0.95272 0.0
H2546 H 0.7619 0.59895 0.88822 0.0
H2547 H 0.7581 0.59327 0.81673 0.0
H2548 H 0.77261 0.54993 0.76082 0.0
H2549 H 0.78093 0.54121 0.82673 0.0
C2550 C 0.78145 0.55949 0.89725 0.0
C2551 C 0.78137 0.57078 0.93116 0.0
C2552 C 0.775 0.56283 0.85962 0.0
C2553 C 0.77385 0.58467 0.92716 0.0
C2554 C 0.76729 0.58789 0.89027 0.0
C2555 C 0.76294 0.58177 0.81885 0.0
C2556 C 0.76493 0.5724 0.7839 0.0
C2557 C 0.76815 0.57735 0.85631 0.0
C2558 C 0.77085 0.55727 0.7873 0.0
C2559 C 0.77581 0.55248 0.82494 0.0
H2560 H 0.38329 0.182 0.80775 0.0
H2561 H 0.44756 0.20402 0.77991 0.0
H2562 H 0.45754 0.22092 0.84588 0.0
H2563 H 0.44731 0.22766 0.91314 0.0
H2564 H 0.38242 0.20464 0.93777 0.0
H2565 H 0.37338 0.18985 0.87113 0.0
C2566 C 0.39957 0.19058 0.81574 0.0
C2567 C 0.41466 0.19156 0.78895 0.0
C2568 C 0.40502 0.19999 0.85332 0.0
C2569 C 0.43564 0.20303 0.79989 0.0
C2570 C 0.44129 0.21256 0.83771 0.0
C2571 C 0.43123 0.21945 0.90378 0.0
C2572 C 0.41558 0.21739 0.93054 0.0
C2573 C 0.42604 0.21085 0.86498 0.0
C2574 C 0.39481 0.20679 0.91781 0.0
C2575 C 0.38959 0.1982 0.87972 0.0
H2576 H 0.82968 0.23673 0.81842 0.0
H2577 H 0.77025 0.21324 0.76143 0.0
H2578 H 0.75325 0.20514 0.82744 0.0
H2579 H 0.75548 0.20265 0.90181 0.0
H2580 H 0.81573 0.22612 0.9559 0.0
H2581 H 0.83215 0.23604 0.89058 0.0
C2582 C 0.81298 0.23002 0.82029 0.0
C2583 C 0.80123 0.22553 0.78498 0.0
C2584 C 0.80346 0.22514 0.85796 0.0
C2585 C 0.77967 0.21704 0.7881 0.0
C2586 C 0.76997 0.2122 0.82586 0.0
C2587 C 0.77219 0.20997 0.89915 0.0
C2588 C 0.78435 0.21369 0.93391 0.0
C2589 C 0.78169 0.21578 0.86105 0.0
C2590 C 0.80601 0.2233 0.92993 0.0
C2591 C 0.81544 0.22893 0.8925 0.0
H2592 H 0.97819 0.41427 0.2747 0.0
H2593 H 0.02477 0.47914 0.27115 0.0
H2594 H 0.02241 0.48131 0.34355 0.0
H2595 H 0.00815 0.46443 0.4092 0.0
H2596 H 0.96254 0.39929 0.41195 0.0
H2597 H 0.96383 0.39765 0.33934 0.0
C2598 C 0.98804 0.42889 0.28958 0.0
C2599 C 0.00169 0.44647 0.26675 0.0
C2600 C 0.98687 0.43001 0.33161 0.0
C2601 C 0.01388 0.46532 0.28724 0.0
C2602 C 0.01266 0.46658 0.32897 0.0
C2603 C -0.00164 0.44992 0.39388 0.0
C2604 C 0.98539 0.43195 0.41647 0.0
C2605 C -0.0007 0.44899 0.35163 0.0
C2606 C 0.97293 0.4133 0.39576 0.0
C2607 C 0.9736 0.41235 0.35404 0.0
H2608 H 0.5343 0.54951 0.40509 0.0
H2609 H 0.59561 0.55713 0.4002 0.0
H2610 H 0.59533 0.5588 0.32734 0.0
H2611 H 0.57801 0.55867 0.26484 0.0
H2612 H 0.51733 0.55279 0.26964 0.0
H2613 H 0.51691 0.54947 0.34205 0.0
C2614 C 0.54751 0.55136 0.38802 0.0
C2615 C 0.565 0.55328 0.40825 0.0
C2616 C 0.54738 0.55261 0.3459 0.0
C2617 C 0.58205 0.55585 0.38556 0.0
C2618 C 0.58189 0.55676 0.34381 0.0
C2619 C 0.56475 0.55692 0.28158 0.0
C2620 C 0.54774 0.55603 0.26116 0.0
C2621 C 0.56473 0.55538 0.32361 0.0
C2622 C 0.53058 0.55326 0.28393 0.0
C2623 C 0.53036 0.55149 0.32563 0.0
H2624 H 0.43171 0.01681 0.29015 0.0
H2625 H 0.43863 0.96266 0.28777 0.0
H2626 H 0.44164 0.96365 0.36038 0.0
H2627 H 0.44129 0.97935 0.42533 0.0
H2628 H 0.4335 0.03302 0.42717 0.0
H2629 H 0.43171 0.03261 0.35444 0.0
C2630 C 0.43365 0.00505 0.30538 0.0
C2631 C 0.43465 0.9895 0.28303 0.0
C2632 C 0.4352 0.00561 0.34738 0.0
C2633 C 0.43783 0.97485 0.30374 0.0
C2634 C 0.43944 0.97534 0.34549 0.0
C2635 C 0.43906 0.99088 0.40985 0.0
C2636 C 0.43754 0.0062 0.43201 0.0
C2637 C 0.43795 0.99053 0.36772 0.0
C2638 C 0.43499 0.02119 0.41115 0.0
C2639 C 0.43385 0.02091 0.36943 0.0
H2640 H 0.98104 0.56291 0.90767 0.0
H2641 H 0.01181 0.52757 0.92596 0.0
H2642 H 0.0175 0.52752 0.85382 0.0
H2643 H 0.01506 0.539 0.7856 0.0
H2644 H 0.98307 0.57339 0.76837 0.0
H2645 H 0.97688 0.5726 0.83985 0.0
C2646 C 0.98905 0.55525 0.89588 0.0
C2647 C -0.00383 0.54545 0.92221 0.0
C2648 C 0.99221 0.55525 0.85447 0.0
C2649 C 0.00613 0.5352 0.90635 0.0
C2650 C 0.00947 0.53524 0.8651 0.0
C2651 C 0.00653 0.54611 0.79738 0.0
C2652 C -0.0001 0.55657 0.77136 0.0
C2653 C 0.00273 0.54539 0.83884 0.0
C2654 C 0.9889 0.56573 0.7875 0.0
C2655 C 0.98519 0.56516 0.82848 0.0
H2656 H 0.45489 0.43474 0.76651 0.0
H2657 H 0.45406 0.49219 0.77478 0.0
H2658 H 0.45473 0.49055 0.84757 0.0
H2659 H 0.45332 0.47163 0.90903 0.0
H2660 H 0.45616 0.41523 0.90006 0.0
H2661 H 0.45714 0.41785 0.82754 0.0
C2662 C 0.4553 0.44718 0.78403 0.0
C2663 C 0.45418 0.46344 0.76479 0.0
C2664 C 0.45584 0.44624 0.82596 0.0
C2665 C 0.45443 0.47921 0.78849 0.0
C2666 C 0.45492 0.47835 0.83024 0.0
C2667 C 0.4545 0.46006 0.89136 0.0
C2668 C 0.45431 0.44305 0.9104 0.0
C2669 C 0.45526 0.46173 0.84936 0.0
C2670 C 0.4557 0.4282 0.88656 0.0
C2671 C 0.45641 0.42975 0.84492 0.0
H2672 H 0.5778 0.01593 0.90905 0.0
H2673 H 0.51166 0.9775 0.92477 0.0
H2674 H 0.50726 0.97205 0.85278 0.0
H2675 H 0.52199 0.97773 0.78463 0.0
H2676 H 0.5881 0.0168 0.76878 0.0
H2677 H 0.59251 0.02181 0.84073 0.0
C2678 C 0.56241 0.00621 0.8969 0.0
C2679 C 0.54513 -0.00271 0.92305 0.0
C2680 C 0.5599 0.00304 0.85496 0.0
C2681 C 0.52533 0.98494 0.90597 0.0
C2682 C 0.52276 0.98166 0.86453 0.0
C2683 C 0.5374 0.98752 0.79664 0.0
C2684 C 0.55467 -0.00332 0.77036 0.0
C2685 C 0.53991 0.99066 0.83858 0.0
C2686 C 0.57444 0.00907 0.7875 0.0
C2687 C 0.57702 0.01214 0.82899 0.0
H2688 H 0.64514 0.78753 0.76461 0.0
H2689 H 0.66762 0.74421 0.77147 0.0
H2690 H 0.67122 0.74508 0.69903 0.0
H2691 H 0.66814 0.75809 0.63347 0.0
H2692 H 0.64652 0.80201 0.62617 0.0
H2693 H 0.64304 0.80139 0.69893 0.0
C2694 C 0.65105 0.77843 0.75039 0.0
C2695 C 0.65593 0.76568 0.77382 0.0
C2696 C 0.65338 0.7792 0.7085 0.0
C2697 C 0.6633 0.75383 0.75445 0.0
C2698 C 0.66554 0.75444 0.71291 0.0
C2699 C 0.66256 0.76745 0.64775 0.0
C2700 C 0.65752 0.78 0.62423 0.0
C2701 C 0.66056 0.76699 0.68962 0.0
C2702 C 0.65069 0.79233 0.64344 0.0
C2703 C 0.64857 0.79189 0.68509 0.0
H2704 H 0.18969 0.86856 0.74348 0.0
H2705 H 0.25543 0.89095 0.74781 0.0
H2706 H 0.25745 0.89371 0.67506 0.0
H2707 H 0.24086 0.89087 0.61057 0.0
H2708 H 0.17531 0.8699 0.60621 0.0
H2709 H 0.17284 0.86493 0.6782 0.0
C2710 C 0.20439 0.87382 0.72841 0.0
C2711 C 0.22241 0.87968 0.75103 0.0
C2712 C 0.2055 0.87562 0.6865 0.0
C2713 C 0.24139 0.88662 0.73111 0.0
C2714 C 0.24255 0.88814 0.68951 0.0
C2715 C 0.22603 0.88546 0.62522 0.0
C2716 C 0.2084 0.88119 0.60252 0.0
C2717 C 0.22476 0.88297 0.66694 0.0
C2718 C 0.18923 0.87342 0.6224 0.0
C2719 C 0.18778 0.87063 0.66384 0.0
H2720 H 0.08542 0.34351 0.74741 0.0
H2721 H 0.12094 0.31258 0.76155 0.0
H2722 H 0.12027 0.30739 0.68945 0.0
H2723 H 0.10922 0.31111 0.62164 0.0
H2724 H 0.07424 0.34268 0.6078 0.0
H2725 H 0.07479 0.34762 0.67975 0.0
C2726 C 0.09289 0.33548 0.73487 0.0
C2727 C 0.10327 0.32854 0.76048 0.0
C2728 C 0.09247 0.33249 0.69298 0.0
C2729 C 0.11307 0.31842 0.74303 0.0
C2730 C 0.11261 0.31531 0.70157 0.0
C2731 C 0.10184 0.31923 0.63418 0.0
C2732 C 0.09149 0.32625 0.60859 0.0
C2733 C 0.10238 0.3223 0.67611 0.0
C2734 C 0.08193 0.33659 0.62616 0.0
C2735 C 0.08236 0.33961 0.66759 0.0
H2736 H 0.69308 0.88781 0.13824 0.0
H2737 H 0.62801 0.86192 0.11139 0.0
H2738 H 0.61991 0.85816 0.18236 0.0
H2739 H 0.63132 0.86451 0.25231 0.0
H2740 H 0.69676 0.89397 0.27883 0.0
H2741 H 0.70446 0.89387 0.20821 0.0
C2742 C 0.67712 0.8815 0.14773 0.0
C2743 C 0.66128 0.87531 0.11892 0.0
C2744 C 0.67254 0.88003 0.18887 0.0
C2745 C 0.64063 0.8666 0.13236 0.0
C2746 C 0.63593 0.86462 0.17318 0.0
C2747 C 0.64731 0.87109 0.24278 0.0
C2748 C 0.66337 0.87935 0.27138 0.0
C2749 C 0.65179 0.87167 0.20172 0.0
C2750 C 0.68393 0.88722 0.25804 0.0
C2751 C 0.68843 0.88738 0.2174 0.0
H2752 H 0.07557 0.76139 0.24787 0.0
H2753 H 0.14205 0.78785 0.24993 0.0
H2754 H 0.1432 0.79046 0.1774 0.0
H2755 H 0.1253 0.78441 0.11236 0.0
H2756 H 0.05883 0.75796 0.11064 0.0
H2757 H 0.05782 0.75587 0.18335 0.0
C2758 C 0.09034 0.76752 0.23265 0.0
C2759 C 0.10866 0.77417 0.25513 0.0
C2760 C 0.09094 0.76894 0.19049 0.0
C2761 C 0.12762 0.7826 0.23415 0.0
C2762 C 0.12832 0.78405 0.19233 0.0
C2763 C 0.11059 0.77835 0.12782 0.0
C2764 C 0.09214 0.77118 0.10551 0.0
C2765 C 0.11007 0.77721 0.17007 0.0
C2766 C 0.07327 0.76324 0.12654 0.0
C2767 C 0.07267 0.76214 0.16834 0.0
H2768 H 0.20087 0.33544 0.1086 0.0
H2769 H 0.23321 0.3009 0.10329 0.0
H2770 H 0.23655 0.30243 0.17582 0.0
H2771 H 0.23047 0.31352 0.24097 0.0
H2772 H 0.19789 0.34779 0.24726 0.0
H2773 H 0.19458 0.34648 0.17447 0.0
C2774 C 0.20854 0.32813 0.12331 0.0
C2775 C 0.21686 0.31813 0.10019 0.0
C2776 C 0.21041 0.32904 0.16536 0.0
C2777 C 0.22694 0.30898 0.11999 0.0
C2778 C 0.22875 0.30973 0.16162 0.0
C2779 C 0.22241 0.32051 0.22656 0.0
C2780 C 0.21435 0.33063 0.24989 0.0
C2781 C 0.22055 0.3197 0.18463 0.0
C2782 C 0.2044 0.34001 0.23029 0.0
C2783 C 0.20241 0.33918 0.18856 0.0
H2784 H 0.3421 0.13305 0.08335 0.0
H2785 H 0.29487 0.06844 0.08179 0.0
H2786 H 0.29588 0.06832 1.00895 0.0
H2787 H 0.311 0.08598 0.94587 0.0
H2788 H 0.35957 0.15013 0.94646 0.0
H2789 H 0.35675 0.15117 1.0191 0.0
C2790 C 0.33191 0.11903 0.06697 0.0
C2791 C 0.31856 0.10072 0.08805 0.0
C2792 C 0.33276 0.11898 1.02485 0.0
C2793 C 0.30551 0.08264 0.06638 0.0
C2794 C 0.30602 0.08258 1.02469 0.0
C2795 C 0.32113 0.10019 0.96178 0.0
C2796 C 0.33563 0.11786 0.94042 0.0
C2797 C 0.3198 0.10055 1.00364 0.0
C2798 C 0.34814 0.13628 0.96179 0.0
C2799 C 0.34666 0.13685 1.0035 0.0
H2800 H 0.85822 0.19184 0.94404 0.0
H2801 H 0.8959 0.25852 0.93855 0.0
H2802 H 0.89923 0.26009 1.01109 0.0
H2803 H 0.89254 0.24257 0.07629 0.0
H2804 H 0.85541 0.17588 0.08182 0.0
H2805 H 0.85121 0.17432 1.00934 0.0
C2806 C 0.86729 0.20673 0.95861 0.0
C2807 C 0.87676 0.22503 0.9355 0.0
C2808 C 0.86941 0.20754 1.00053 0.0
C2809 C 0.88815 0.24417 0.9553 0.0
C2810 C 0.89022 0.24509 0.99691 0.0
C2811 C 0.88337 0.2277 0.06171 0.0
C2812 C 0.87442 0.20937 0.08468 0.0
C2813 C 0.881 0.22688 1.01985 0.0
C2814 C 0.86277 0.19023 0.06501 0.0
C2815 C 0.86026 0.18932 1.02349 0.0
H2816 H 0.76724 0.63376 0.94167 0.0
H2817 H 0.77706 0.69492 0.91624 0.0
H2818 H 0.78009 0.70268 0.98733 0.0
H2819 H 0.78 0.69236 0.05721 0.0
H2820 H 0.77146 0.6318 0.08278 0.0
H2821 H 0.76873 0.62401 1.01141 0.0
C2822 C 0.7703 0.64891 0.95142 0.0
C2823 C 0.77161 0.66357 0.923 0.0
C2824 C 0.77247 0.65353 0.99267 0.0
C2825 C 0.77538 0.68301 0.93695 0.0
C2826 C 0.77734 0.6876 0.97781 0.0
C2827 C 0.77744 0.67741 0.04725 0.0
C2828 C 0.77587 0.6627 0.07566 0.0
C2829 C 0.7758 0.67297 1.00599 0.0
C2830 C 0.77294 0.64355 0.06184 0.0
C2831 C 0.77122 0.639 1.02092 0.0
H2832 H 0.31451 0.18713 0.44413 0.0
H2833 H 0.34947 0.25401 0.44309 0.0
H2834 H 0.34814 0.25462 0.5158 0.0
H2835 H 0.33608 0.23647 0.5795 0.0
H2836 H 0.30109 0.16961 0.58199 0.0
H2837 H 0.30333 0.1687 0.50909 0.0
C2838 C 0.32199 0.20181 0.45989 0.0
C2839 C 0.33193 0.22051 0.43804 0.0
C2840 C 0.32108 0.20207 0.50199 0.0
C2841 C 0.34142 0.2394 0.45899 0.0
C2842 C 0.34075 0.23977 0.50064 0.0
C2843 C 0.32923 0.22165 0.56427 0.0
C2844 C 0.31852 0.20315 0.58642 0.0
C2845 C 0.33049 0.22124 0.52242 0.0
C2846 C 0.30931 0.18413 0.56582 0.0
C2847 C 0.31065 0.18359 0.52408 0.0
H2848 H 0.80004 0.1181 0.56463 0.0
H2849 H 0.73599 0.07114 0.58217 0.0
H2850 H 0.72953 0.071 0.51088 0.0
H2851 H 0.7417 0.08404 0.44344 0.0
H2852 H 0.80561 0.13082 0.42436 0.0
H2853 H 0.81228 0.13152 0.49611 0.0
C2854 C 0.78465 0.10793 0.55286 0.0
C2855 C 0.7686 0.09448 0.57896 0.0
C2856 C 0.78094 0.10794 0.51145 0.0
C2857 C 0.74878 0.08135 0.56294 0.0
C2858 C 0.74499 0.08134 0.52209 0.0
C2859 C 0.75717 0.09426 0.45478 0.0
C2860 C 0.77312 0.10726 0.42821 0.0
C2861 C 0.76095 0.09447 0.49602 0.0
C2862 C 0.79295 0.12074 0.44394 0.0
C2863 C 0.79681 0.12107 0.48504 0.0
H2864 H 0.8553 0.64452 0.57034 0.0
H2865 H 0.90343 0.70881 0.56721 0.0
H2866 H 0.90409 0.70778 0.49448 0.0
H2867 H 0.89269 0.68822 0.4318 0.0
H2868 H 0.8438 0.62418 0.4341 0.0
H2869 H 0.8421 0.6255 0.50672 0.0
C2870 C 0.86594 0.6583 0.55374 0.0
C2871 C 0.87935 0.67669 0.57451 0.0
C2872 C 0.8663 0.65762 0.5116 0.0
C2873 C 0.89279 0.69447 0.55227 0.0
C2874 C 0.89329 0.69388 0.51054 0.0
C2875 C 0.88136 0.6746 0.44792 0.0
C2876 C 0.86856 0.65606 0.42699 0.0
C2877 C 0.88029 0.67549 0.48987 0.0
C2878 C 0.85421 0.63858 0.44904 0.0
C2879 C 0.85313 0.63933 0.49075 0.0
H2880 H 0.04037 0.52231 0.07703 0.0
H2881 H -0.00225 0.47953 0.99031 0.0
H2882 H 0.96899 0.46853 0.03748 0.0
H2883 H 0.95651 0.46997 0.10469 0.0
H2884 H -0.00057 0.51233 0.19161 0.0
H2885 H 0.02782 0.52426 0.14351 0.0
C2886 C 0.02467 0.51104 0.06824 0.0
C2887 C 0.02093 0.50179 0.03058 0.0
C2888 C 0.00853 0.50416 0.09599 0.0
C2889 C 0.00071 0.4869 1.01937 0.0
C2890 C 0.98442 0.48035 0.04645 0.0
C2891 C 0.97223 0.48127 0.11332 0.0
C2892 C 0.97616 0.49004 0.15147 0.0
C2893 C 0.98829 0.4884 0.08527 0.0
C2894 C -0.00366 0.50518 0.16232 0.0
C2895 C 0.01244 0.51223 0.13475 0.0
H2896 H 0.50882 0.51378 1.0137 0.0
H2897 H 0.4584 0.51218 0.08039 0.0
H2898 H 0.4653 0.49529 0.13621 0.0
H2899 H 0.48577 0.48144 0.16558 0.0
H2900 H 0.53525 0.4815 0.09831 0.0
H2901 H 0.52956 0.49996 0.04354 0.0
C2902 C 0.4992 0.50941 0.04033 0.0
C2903 C 0.48316 0.51404 0.04334 0.0
C2904 C 0.50363 0.5003 0.07241 0.0
C2905 C 0.47066 0.50843 0.07756 0.0
C2906 C 0.47485 0.49919 0.10961 0.0
C2907 C 0.49554 0.48587 0.13916 0.0
C2908 C 0.51085 0.48025 0.13555 0.0
C2909 C 0.49145 0.49535 0.10745 0.0
C2910 C 0.52354 0.48598 0.1016 0.0
C2911 C 0.52002 0.49612 0.07014 0.0
H2912 H 0.51034 0.00061 0.18818 0.0
H2913 H 0.50182 0.04932 0.13872 0.0
H2914 H 0.48168 0.02667 0.08371 0.0
H2915 H 0.47055 0.99486 0.04582 0.0
H2916 H 0.47794 0.94549 0.09537 0.0
H2917 H 0.49578 0.96711 0.1535 0.0
C2918 C 0.50353 0.00598 0.16587 0.0
C2919 C 0.50775 0.02656 0.1667 0.0
C2920 C 0.49267 0.99316 0.13375 0.0
C2921 C 0.49877 0.03349 0.13832 0.0
C2922 C 0.48761 0.0207 0.10658 0.0
C2923 C 0.47602 0.98884 0.06949 0.0
C2924 C 0.47309 0.96879 0.0666 0.0
C2925 C 0.48532 0.00091 0.10318 0.0
C2926 C 0.48036 0.96108 0.09694 0.0
C2927 C 0.49017 0.97325 0.13037 0.0
H2928 H 0.46578 0.95755 0.58164 0.0
H2929 H 0.50984 0.0003 0.49642 0.0
H2930 H 0.52232 0.02829 0.54556 0.0
H2931 H 0.5219 0.03991 0.61401 0.0
H2932 H 0.47852 -0.00328 0.69963 0.0
H2933 H 0.46549 0.96904 0.64993 0.0
C2934 C 0.4777 0.97314 0.57363 0.0
C2935 C 0.4869 0.97707 0.5358 0.0
C2936 C 0.48563 0.98869 0.60265 0.0
C2937 C 0.50248 -0.00282 0.52553 0.0
C2938 C 0.50985 0.01302 0.55374 0.0
C2939 C 0.51001 0.02429 0.62192 0.0
C2940 C 0.50116 0.02016 0.6601 0.0
C2941 C 0.50199 0.00877 0.59276 0.0
C2942 C 0.48563 1e-05 0.67027 0.0
C2943 C 0.47792 0.98434 0.64174 0.0
H2944 H 0.99163 0.47547 0.67293 0.0
H2945 H 0.94447 0.48498 0.61886 0.0
H2946 H 0.96748 0.50273 0.56243 0.0
H2947 H -0.00015 0.51308 0.52669 0.0
H2948 H 0.04683 0.503 0.57991 0.0
H2949 H 0.02435 0.48645 0.6377 0.0
C2950 C 0.9866 0.48179 0.64906 0.0
C2951 C 0.96646 0.4788 0.64945 0.0
C2952 C -0.00056 0.49097 0.61606 0.0
C2953 C 0.96 0.48718 0.61896 0.0
C2954 C 0.97297 0.49695 0.58645 0.0
C2955 C 0.00502 0.50702 0.55081 0.0
C2956 C 0.02484 0.50923 0.5495 0.0
C2957 C 0.9924 0.49828 0.58419 0.0
C2958 C 0.03147 0.50123 0.58038 0.0
C2959 C 0.01883 0.49217 0.61364 0.0
H2960 H 0.51866 0.51945 0.64942 0.0
H2961 H 0.50793 0.46148 0.59961 0.0
H2962 H 0.49205 0.46707 0.54059 0.0
H2963 H 0.48048 0.48791 0.50457 0.0
H2964 H 0.48944 0.54499 0.55545 0.0
H2965 H 0.50834 0.54116 0.61165 0.0
C2966 C 0.51265 0.508 0.62568 0.0
C2967 C 0.51436 0.49012 0.62852 0.0
C2968 C 0.50394 0.51151 0.59176 0.0
C2969 C 0.50652 0.47525 0.59804 0.0
C2970 C 0.4978 0.47861 0.56411 0.0
C2971 C 0.48695 0.49971 0.52764 0.0
C2972 C 0.4833 0.51644 0.52669 0.0
C2973 C 0.49655 0.49673 0.56066 0.0
C2974 C 0.49203 0.53191 0.55595 0.0
C2975 C 0.50244 0.52951 0.58835 0.0
H2976 H 0.61909 0.81086 0.45322 0.0
H2977 H 0.6661 0.85429 0.53309 0.0
H2978 H 0.69257 0.86336 0.48162 0.0
H2979 H 0.70255 0.85681 0.4158 0.0
H2980 H 0.65541 0.81395 0.33544 0.0
H2981 H 0.6285 0.80738 0.38457 0.0
C2982 C 0.63522 0.82189 0.45948 0.0
C2983 C 0.64094 0.83148 0.49685 0.0
C2984 C 0.65014 0.82752 0.42945 0.0
C2985 C 0.66167 0.84633 0.50459 0.0
C2986 C 0.67669 0.85169 0.47515 0.0
C2987 C 0.68632 0.84663 0.40866 0.0
C2988 C 0.68077 0.83579 0.37254 0.0
C2989 C 0.67113 0.84227 0.43759 0.0
C2990 C 0.6598 0.82249 0.36332 0.0
C2991 C 0.64451 0.81846 0.39156 0.0
H2992 H 0.13471 0.84448 0.41869 0.0
H2993 H 0.17957 0.84451 0.33705 0.0
H2994 H 0.19009 0.82772 0.38722 0.0
H2995 H 0.18649 0.81328 0.45417 0.0
H2996 H 0.14172 0.81321 0.53606 0.0
H2997 H 0.13197 0.83107 0.4867 0.0
C2998 C 0.1464 0.8403 0.41175 0.0
C2999 C 0.15615 0.84521 0.37442 0.0
C3000 C 0.15289 0.83149 0.44115 0.0
C3001 C 0.17171 0.84042 0.36571 0.0
C3002 C 0.17796 0.83121 0.39447 0.0
C3003 C 0.17505 0.81775 0.4615 0.0
C3004 C 0.16489 0.81223 0.49839 0.0
C3005 C 0.16888 0.82699 0.43247 0.0
C3006 C 0.14981 0.81764 0.50766 0.0
C3007 C 0.14397 0.82742 0.47931 0.0
H3008 H 0.17432 0.36967 0.44992 0.0
H3009 H 0.17988 0.32292 0.51593 0.0
H3010 H 0.16155 0.29766 0.46373 0.0
H3011 H 0.14369 0.28866 0.40017 0.0
H3012 H 0.13476 0.33367 0.33573 0.0
H3013 H 0.15505 0.3601 0.38603 0.0
C3014 C 0.17084 0.35376 0.45328 0.0
C3015 C 0.17834 0.34801 0.48634 0.0
C3016 C 0.16015 0.33922 0.42316 0.0
C3017 C 0.1741 0.32752 0.49051 0.0
C3018 C 0.16389 0.31317 0.46054 0.0
C3019 C 0.14655 0.30437 0.39677 0.0
C3020 C 0.13799 0.30942 0.36463 0.0
C3021 C 0.15705 0.31891 0.42662 0.0
C3022 C 0.14144 0.32966 0.36051 0.0
C3023 C 0.15273 0.3446 0.38942 0.0
H3024 H 0.12712 0.28306 0.91434 0.0
H3025 H 0.17347 0.32488 0.83121 0.0
H3026 H 0.18713 0.35235 0.88128 0.0
H3027 H 0.18643 0.36408 0.94911 0.0
H3028 H 0.13979 0.32269 0.03219 0.0
H3029 H 0.1264 0.29486 0.98254 0.0
C3030 C 0.13975 0.29841 0.90695 0.0
C3031 C 0.14929 0.30216 0.86945 0.0
C3032 C 0.14801 0.3138 0.93633 0.0
C3033 C 0.16582 0.32192 0.86001 0.0
C3034 C 0.17384 0.33746 0.88875 0.0
C3035 C 0.17367 0.3488 0.95653 0.0
C3036 C 0.16405 0.34522 0.99387 0.0
C3037 C 0.16538 0.3334 0.92726 0.0
C3038 C 0.14743 0.32553 1.00342 0.0
C3039 C 0.13957 0.30981 0.9749 0.0
H3040 H 0.70291 0.84331 0.92874 0.0
H3041 H 0.65946 0.84227 0.84249 0.0
H3042 H 0.63161 0.82712 0.89197 0.0
H3043 H 0.62003 0.81511 0.96007 0.0
H3044 H 0.66304 0.815 0.04592 0.0
H3045 H 0.69129 0.83133 0.99719 0.0
C3046 C 0.6872 0.8392 0.92068 0.0
C3047 C 0.68293 0.84345 0.88228 0.0
C3048 C 0.67158 0.83137 0.94963 0.0
C3049 C 0.66275 0.83858 0.87194 0.0
C3050 C 0.64699 0.83031 0.90029 0.0
C3051 C 0.63568 0.81901 0.96814 0.0
C3052 C 0.63971 0.81408 1.00609 0.0
C3053 C 0.65134 0.82703 0.93939 0.0
C3054 C 0.65988 0.819 1.01665 0.0
C3055 C 0.67586 0.82793 0.98872 0.0
H3056 H 0.14167 0.85147 0.90765 0.0
H3057 H 0.13982 0.80514 0.82792 0.0
H3058 H 0.15649 0.79462 0.8785 0.0
H3059 H 0.17118 0.79856 0.94577 0.0
H3060 H 0.17202 0.84437 1.02572 0.0
H3061 H 0.15538 0.85474 0.97516 0.0
C3062 C 0.14546 0.83947 0.9011 0.0
C3063 C 0.13998 0.82925 0.86429 0.0
C3064 C 0.15411 0.83297 0.93075 0.0
C3065 C 0.14437 0.81337 0.85612 0.0
C3066 C 0.15356 0.80718 0.88512 0.0
C3067 C 0.16706 0.81032 0.95238 0.0
C3068 C 0.1725 0.82061 0.98916 0.0
C3069 C 0.15813 0.81661 0.9228 0.0
C3070 C 0.16761 0.83613 0.9975 0.0
C3071 C 0.15845 0.84228 0.96848 0.0
H3072 H 0.32278 0.18146 0.8353 0.0
H3073 H 0.27784 0.1208 0.79206 0.0
H3074 H 0.30077 0.12459 0.73624 0.0
H3075 H 0.3325 0.14607 0.69814 0.0
H3076 H 0.37758 0.20663 0.74163 0.0
H3077 H 0.35484 0.20267 0.79791 0.0
C3078 C 0.31814 0.16901 0.81378 0.0
C3079 C 0.29869 0.15102 0.81714 0.0
C3080 C 0.33095 0.17167 0.78126 0.0
C3081 C 0.29285 0.13476 0.78989 0.0
C3082 C 0.30576 0.13708 0.75773 0.0
C3083 C 0.33726 0.15842 0.71992 0.0
C3084 C 0.35662 0.1765 0.71629 0.0
C3085 C 0.32456 0.15568 0.75268 0.0
C3086 C 0.36262 0.19262 0.74395 0.0
C3087 C 0.34981 0.19022 0.77633 0.0
H3088 H 0.83847 0.17586 0.67383 0.0
H3089 H 0.78761 0.17346 0.74025 0.0
H3090 H 0.79429 0.15616 0.79556 0.0
H3091 H 0.81563 0.14351 0.82585 0.0
H3092 H 0.86601 0.14492 0.75948 0.0
H3093 H 0.85928 0.16205 0.7036 0.0
C3094 C 0.8286 0.17107 0.70012 0.0
C3095 C 0.81261 0.17578 0.70334 0.0
C3096 C 0.83296 0.1618 0.73206 0.0
C3097 C 0.79985 0.1697 0.73724 0.0
C3098 C 0.80392 0.16022 0.76904 0.0
C3099 C 0.82529 0.14784 0.79928 0.0
C3100 C 0.84126 0.14313 0.79644 0.0
C3101 C 0.82074 0.15672 0.76706 0.0
C3102 C 0.85378 0.14872 0.76222 0.0
C3103 C 0.84969 0.15811 0.73014 0.0
H3104 H 0.84278 0.70276 0.7562 0.0
H3105 H 0.83357 0.6671 0.86335 0.0
H3106 H 0.81901 0.63506 0.82328 0.0
H3107 H 0.80977 0.61787 0.75645 0.0
H3108 H 0.82249 0.65559 0.65084 0.0
H3109 H 0.83696 0.68677 0.69155 0.0
C3110 C 0.83722 0.68789 0.77089 0.0
C3111 C 0.83888 0.68705 0.81239 0.0
C3112 C 0.83066 0.67024 0.74776 0.0
C3113 C 0.83191 0.6679 0.83136 0.0
C3114 C 0.8242 0.64977 0.80838 0.0
C3115 C 0.81632 0.633 0.74255 0.0
C3116 C 0.81502 0.63465 0.70094 0.0
C3117 C 0.82389 0.65085 0.76639 0.0
C3118 C 0.82351 0.65418 0.68289 0.0
C3119 C 0.83128 0.67189 0.70613 0.0
H3120 H 0.84324 0.66057 0.18154 0.0
H3121 H 0.79073 0.60918 0.23858 0.0
H3122 H 0.79452 0.63107 0.29618 0.0
H3123 H 0.81309 0.66469 0.33001 0.0
H3124 H 0.86616 0.71575 0.27361 0.0
H3125 H 0.86263 0.69369 0.21652 0.0
C3126 C 0.8325 0.65428 0.20647 0.0
C3127 C 0.81675 0.63345 0.20611 0.0
C3128 C 0.83534 0.66663 0.23985 0.0
C3129 C 0.80281 0.62531 0.2382 0.0
C3130 C 0.80522 0.63768 0.27133 0.0
C3131 C 0.8241 0.6708 0.30549 0.0
C3132 C 0.83977 0.69168 0.30553 0.0
C3133 C 0.82161 0.65825 0.27261 0.0
C3134 C 0.85408 0.6996 0.27406 0.0
C3135 C 0.85184 0.68713 0.24125 0.0
H3136 H 0.36816 0.17723 0.23895 0.0
H3137 H 0.32324 0.17651 0.15693 0.0
H3138 H 0.29587 0.15955 0.20704 0.0
H3139 H 0.28531 0.14664 0.27537 0.0
H3140 H 0.33044 0.14777 0.35742 0.0
H3141 H 0.35745 0.16349 0.3065 0.0
C3142 C 0.35224 0.1727 0.23177 0.0
C3143 C 0.34747 0.17779 0.19462 0.0
C3144 C 0.33693 0.16395 0.26119 0.0
C3145 C 0.32698 0.17235 0.1855 0.0
C3146 C 0.31148 0.16307 0.21427 0.0
C3147 C 0.30122 0.15101 0.2823 0.0
C3148 C 0.30617 0.14653 0.31985 0.0
C3149 C 0.31644 0.15944 0.25262 0.0
C3150 C 0.32659 0.15157 0.32859 0.0
C3151 C 0.3419 0.1602 0.29942 0.0
H3152 H 0.83955 0.1733 0.34409 0.0
H3153 H 0.83209 0.11694 0.29234 0.0
H3154 H 0.81353 0.12069 0.23571 0.0
H3155 H 0.8037 0.14239 0.19737 0.0
H3156 H 0.81189 0.19927 0.24792 0.0
H3157 H 0.82737 0.19376 0.30783 0.0
C3158 C 0.83327 0.16155 0.32091 0.0
C3159 C 0.83738 0.14512 0.32163 0.0
C3160 C 0.82374 0.16445 0.28762 0.0
C3161 C 0.82908 0.12975 0.29209 0.0
C3162 C 0.81891 0.13214 0.25939 0.0
C3163 C 0.80892 0.15357 0.22158 0.0
C3164 C 0.80668 0.17112 0.21864 0.0
C3165 C 0.81709 0.14994 0.25606 0.0
C3166 C 0.81373 0.18575 0.24957 0.0
C3167 C 0.82216 0.18239 0.28402 0.0
loop_
_geom_bond_atom_site_label_1
_geom_bond_atom_site_label_2
_geom_bond_distance
_geom_bond_site_symmetry_2
_ccdc_geom_bond_type
Nd0 C2 2.836 . S
Nd0 O20 2.500 . S
Nd0 O21 2.492 . S
Nd0 O22 2.487 . S
Nd0 O23 2.682 1_554 S
Nd0 O24 2.410 . S
Nd0 O29 2.414 . S
Nd0 O31 2.424 1_554 S
Nd1 C11 2.836 . S
Nd1 O23 2.414 . S
Nd1 O25 2.424 1_556 S
Nd1 O26 2.500 . S
Nd1 O27 2.492 . S
Nd1 O28 2.487 . S
Nd1 O29 2.682 1_556 S
Nd1 O30 2.410 . S
C2 Nd0 2.836 . S
C2 C3 1.498 . S
C2 O20 1.258 . S
C2 O21 1.239 . S
C3 C2 1.498 . S
C3 C4 1.366 . S
C3 C8 1.407 . S
C4 C3 1.366 . S
C4 C5 1.392 . S
C4 H32 0.930 . S
C5 C4 1.392 . S
C5 C6 1.398 . S
C5 H33 0.929 . S
C6 C5 1.398 . S
C6 C7 1.352 . S
C7 C6 1.352 . S
C7 C8 1.384 . S
C7 H34 0.930 . S
C8 C3 1.407 . S
C8 C7 1.384 . S
C8 H35 0.929 . S
C9 O22 1.241 1_556 S
C9 O23 1.273 . S
C10 O24 1.251 . S
C10 O25 1.268 . S
C11 Nd1 2.836 . S
C11 C12 1.498 . S
C11 O26 1.258 . S
C11 O27 1.239 . S
C12 C11 1.498 . S
C12 C13 1.366 . S
C12 C17 1.407 . S
C13 C12 1.366 . S
C13 C14 1.392 . S
C13 H36 0.930 . S
C14 C13 1.392 . S
C14 C15 1.398 . S
C14 H37 0.929 . S
C15 C14 1.398 . S
C15 C16 1.352 . S
C16 C15 1.352 . S
C16 C17 1.384 . S
C16 H38 0.930 . S
C17 C12 1.407 . S
C17 C16 1.384 . S
C17 H39 0.929 . S
C18 O28 1.241 1_554 S
C18 O29 1.273 . S
C19 O30 1.251 . S
C19 O31 1.268 . S
O20 Nd0 2.500 . S
O20 C2 1.258 . S
O21 Nd0 2.492 . S
O21 C2 1.239 . S
O22 Nd0 2.487 . S
O22 C9 1.241 1_554 S
O23 Nd0 2.682 1_556 S
O23 Nd1 2.414 . S
O23 C9 1.273 . S
O24 Nd0 2.410 . S
O24 C10 1.251 . S
O25 Nd1 2.424 1_554 S
O25 C10 1.268 . S
O26 Nd1 2.500 . S
O26 C11 1.258 . S
O27 Nd1 2.492 . S
O27 C11 1.239 . S
O28 Nd1 2.487 . S
O28 C18 1.241 1_556 S
O29 Nd0 2.414 . S
O29 Nd1 2.682 1_554 S
O29 C18 1.273 . S
O30 Nd1 2.410 . S
O30 C19 1.251 . S
O31 Nd0 2.424 1_556 S
O31 C19 1.268 . S
H32 C4 0.930 . S
H33 C5 0.929 . S
H34 C7 0.930 . S
H35 C8 0.929 . S
H36 C13 0.930 . S
H37 C14 0.929 . S
H38 C16 0.930 . S
H39 C17 0.929 . S
Nd40 C42 2.836 . S
Nd40 O60 2.500 . S
Nd40 O61 2.492 . S
Nd40 O62 2.487 . S
Nd40 O63 2.682 1_554 S
Nd40 O64 2.410 . S
Nd40 O69 2.414 . S
Nd40 O71 2.424 1_554 S
Nd41 C51 2.836 . S
Nd41 O63 2.414 . S
Nd41 O65 2.424 1_556 S
Nd41 O66 2.500 . S
Nd41 O67 2.492 . S
Nd41 O68 2.487 . S
Nd41 O69 2.682 1_556 S
Nd41 O70 2.410 . S
C42 Nd40 2.836 . S
C42 C43 1.498 . S
C42 O60 1.258 . S
C42 O61 1.239 . S
C43 C42 1.498 . S
C43 C44 1.366 . S
C43 C48 1.407 . S
C44 C43 1.366 . S
C44 C45 1.392 . S
C44 H72 0.930 . S
C45 C44 1.392 . S
C45 C46 1.398 . S
C45 H73 0.929 . S
C46 C45 1.398 . S
C46 C47 1.352 . S
C47 C46 1.352 . S
C47 C48 1.384 . S
C47 H74 0.930 . S
C48 C43 1.407 . S
C48 C47 1.384 . S
C48 H75 0.929 . S
C49 O62 1.241 1_556 S
C49 O63 1.273 . S
C50 O64 1.251 . S
C50 O65 1.268 . S
C51 Nd41 2.836 . S
C51 C52 1.498 . S
C51 O66 1.258 . S
C51 O67 1.239 . S
C52 C51 1.498 . S
C52 C53 1.366 . S
C52 C57 1.407 . S
C53 C52 1.366 . S
C53 C54 1.392 . S
C53 H76 0.930 . S
C54 C53 1.392 . S
C54 C55 1.398 . S
C54 H77 0.929 . S
C55 C54 1.398 . S
C55 C56 1.352 . S
C56 C55 1.352 . S
C56 C57 1.384 . S
C56 H78 0.930 . S
C57 C52 1.407 . S
C57 C56 1.384 . S
C57 H79 0.929 . S
C58 O68 1.241 1_554 S
C58 O69 1.273 . S
C59 O70 1.251 . S
C59 O71 1.268 . S
O60 Nd40 2.500 . S
O60 C42 1.258 . S
O61 Nd40 2.492 . S
O61 C42 1.239 . S
O62 Nd40 2.487 . S
O62 C49 1.241 1_554 S
O63 Nd40 2.682 1_556 S
O63 Nd41 2.414 . S
O63 C49 1.273 . S
O64 Nd40 2.410 . S
O64 C50 1.251 . S
O65 Nd41 2.424 1_554 S
O65 C50 1.268 . S
O66 Nd41 2.500 . S
O66 C51 1.258 . S
O67 Nd41 2.492 . S
O67 C51 1.239 . S
O68 Nd41 2.487 . S
O68 C58 1.241 1_556 S
O69 Nd40 2.414 . S
O69 Nd41 2.682 1_554 S
O69 C58 1.273 . S
O70 Nd41 2.410 . S
O70 C59 1.251 . S
O71 Nd40 2.424 1_556 S
O71 C59 1.268 . S
H72 C44 0.930 . S
H73 C45 0.929 . S
H74 C47 0.930 . S
H75 C48 0.929 . S
H76 C53 0.930 . S
H77 C54 0.929 . S
H78 C56 0.930 . S
H79 C57 0.929 . S
Nd80 C82 2.836 . S
Nd80 O100 2.500 . S
Nd80 O101 2.492 . S
Nd80 O102 2.487 . S
Nd80 O103 2.682 1_554 S
Nd80 O104 2.410 . S
Nd80 O109 2.414 . S
Nd80 O111 2.424 1_554 S
Nd81 C91 2.836 . S
Nd81 O103 2.414 . S
Nd81 O105 2.424 1_556 S
Nd81 O106 2.500 . S
Nd81 O107 2.492 . S
Nd81 O108 2.487 . S
Nd81 O109 2.682 1_556 S
Nd81 O110 2.410 . S
C82 Nd80 2.836 . S
C82 C83 1.498 . S
C82 O100 1.258 . S
C82 O101 1.239 . S
C83 C82 1.498 . S
C83 C84 1.366 . S
C83 C88 1.407 . S
C84 C83 1.366 . S
C84 C85 1.392 . S
C84 H112 0.930 . S
C85 C84 1.392 . S
C85 C86 1.398 . S
C85 H113 0.929 . S
C86 C85 1.398 . S
C86 C87 1.352 . S
C87 C86 1.352 . S
C87 C88 1.384 . S
C87 H114 0.930 . S
C88 C83 1.407 . S
C88 C87 1.384 . S
C88 H115 0.929 . S
C89 O102 1.241 1_556 S
C89 O103 1.273 . S
C90 O104 1.251 . S
C90 O105 1.268 . S
C91 Nd81 2.836 . S
C91 C92 1.498 . S
C91 O106 1.258 . S
C91 O107 1.239 . S
C92 C91 1.498 . S
C92 C93 1.366 . S
C92 C97 1.407 . S
C93 C92 1.366 . S
C93 C94 1.392 . S
C93 H116 0.930 . S
C94 C93 1.392 . S
C94 C95 1.398 . S
C94 H117 0.929 . S
C95 C94 1.398 . S
C95 C96 1.352 . S
C96 C95 1.352 . S
C96 C97 1.384 . S
C96 H118 0.930 . S
C97 C92 1.407 . S
C97 C96 1.384 . S
C97 H119 0.929 . S
C98 O108 1.241 1_554 S
C98 O109 1.273 . S
C99 O110 1.251 . S
C99 O111 1.268 . S
O100 Nd80 2.500 . S
O100 C82 1.258 . S
O101 Nd80 2.492 . S
O101 C82 1.239 . S
O102 Nd80 2.487 . S
O102 C89 1.241 1_554 S
O103 Nd80 2.682 1_556 S
O103 Nd81 2.414 . S
O103 C89 1.273 . S
O104 Nd80 2.410 . S
O104 C90 1.251 . S
O105 Nd81 2.424 1_554 S
O105 C90 1.268 . S
O106 Nd81 2.500 . S
O106 C91 1.258 . S
O107 Nd81 2.492 . S
O107 C91 1.239 . S
O108 Nd81 2.487 . S
O108 C98 1.241 1_556 S
O109 Nd80 2.414 . S
O109 Nd81 2.682 1_554 S
O109 C98 1.273 . S
O110 Nd81 2.410 . S
O110 C99 1.251 . S
O111 Nd80 2.424 1_556 S
O111 C99 1.268 . S
H112 C84 0.930 . S
H113 C85 0.929 . S
H114 C87 0.930 . S
H115 C88 0.929 . S
H116 C93 0.930 . S
H117 C94 0.929 . S
H118 C96 0.930 . S
H119 C97 0.929 . S
Nd120 C122 2.836 . S
Nd120 O140 2.500 . S
Nd120 O141 2.492 . S
Nd120 O142 2.487 . S
Nd120 O143 2.682 . S
Nd120 O144 2.410 . S
Nd120 O149 2.414 . S
Nd120 O151 2.424 . S
Nd121 C131 2.836 . S
Nd121 O143 2.414 . S
Nd121 O145 2.424 . S
Nd121 O146 2.500 . S
Nd121 O147 2.492 . S
Nd121 O148 2.487 . S
Nd121 O149 2.682 . S
Nd121 O150 2.410 . S
C122 Nd120 2.836 . S
C122 C123 1.498 . S
C122 O140 1.258 . S
C122 O141 1.239 . S
C123 C122 1.498 . S
C123 C124 1.366 . S
C123 C128 1.407 . S
C124 C123 1.366 . S
C124 C125 1.392 . S
C124 H152 0.930 . S
C125 C124 1.392 . S
C125 C126 1.398 . S
C125 H153 0.929 . S
C126 C125 1.398 . S
C126 C127 1.352 . S
C127 C126 1.352 . S
C127 C128 1.384 . S
C127 H154 0.930 . S
C128 C123 1.407 . S
C128 C127 1.384 . S
C128 H155 0.929 . S
C129 O142 1.241 . S
C129 O143 1.273 . S
C130 O144 1.251 . S
C130 O145 1.268 . S
C131 Nd121 2.836 . S
C131 C132 1.498 . S
C131 O146 1.258 . S
C131 O147 1.239 . S
C132 C131 1.498 . S
C132 C133 1.366 . S
C132 C137 1.407 . S
C133 C132 1.366 . S
C133 C134 1.392 . S
C133 H156 0.930 . S
C134 C133 1.392 . S
C134 C135 1.398 . S
C134 H157 0.929 . S
C135 C134 1.398 . S
C135 C136 1.352 . S
C136 C135 1.352 . S
C136 C137 1.384 . S
C136 H158 0.930 . S
C137 C132 1.407 . S
C137 C136 1.384 . S
C137 H159 0.929 . S
C138 O148 1.241 . S
C138 O149 1.273 . S
C139 O150 1.251 . S
C139 O151 1.268 . S
O140 Nd120 2.500 . S
O140 C122 1.258 . S
O141 Nd120 2.492 . S
O141 C122 1.239 . S
O142 Nd120 2.487 . S
O142 C129 1.241 . S
O143 Nd120 2.682 . S
O143 Nd121 2.414 . S
O143 C129 1.273 . S
O144 Nd120 2.410 . S
O144 C130 1.251 . S
O145 Nd121 2.424 . S
O145 C130 1.268 . S
O146 Nd121 2.500 . S
O146 C131 1.258 . S
O147 Nd121 2.492 . S
O147 C131 1.239 . S
O148 Nd121 2.487 . S
O148 C138 1.241 . S
O149 Nd120 2.414 . S
O149 Nd121 2.682 . S
O149 C138 1.273 . S
O150 Nd121 2.410 . S
O150 C139 1.251 . S
O151 Nd120 2.424 . S
O151 C139 1.268 . S
H152 C124 0.930 . S
H153 C125 0.929 . S
H154 C127 0.930 . S
H155 C128 0.929 . S
H156 C133 0.930 . S
H157 C134 0.929 . S
H158 C136 0.930 . S
H159 C137 0.929 . S
Nd160 C162 2.836 . S
Nd160 O180 2.500 . S
Nd160 O181 2.492 . S
Nd160 O182 2.487 . S
Nd160 O183 2.682 . S
Nd160 O184 2.410 . S
Nd160 O189 2.414 . S
Nd160 O191 2.424 . S
Nd161 C171 2.836 . S
Nd161 O183 2.414 . S
Nd161 O185 2.424 . S
Nd161 O186 2.500 . S
Nd161 O187 2.492 . S
Nd161 O188 2.487 . S
Nd161 O189 2.682 . S
Nd161 O190 2.410 . S
C162 Nd160 2.836 . S
C162 C163 1.498 . S
C162 O180 1.258 . S
C162 O181 1.239 . S
C163 C162 1.498 . S
C163 C164 1.366 . S
C163 C168 1.407 . S
C164 C163 1.366 . S
C164 C165 1.392 . S
C164 H192 0.930 . S
C165 C164 1.392 . S
C165 C166 1.398 . S
C165 H193 0.929 . S
C166 C165 1.398 . S
C166 C167 1.352 . S
C167 C166 1.352 . S
C167 C168 1.384 . S
C167 H194 0.930 . S
C168 C163 1.407 . S
C168 C167 1.384 . S
C168 H195 0.929 . S
C169 O182 1.241 . S
C169 O183 1.273 . S
C170 O184 1.251 . S
C170 O185 1.268 . S
C171 Nd161 2.836 . S
C171 C172 1.498 . S
C171 O186 1.258 . S
C171 O187 1.239 . S
C172 C171 1.498 . S
C172 C173 1.366 . S
C172 C177 1.407 . S
C173 C172 1.366 . S
C173 C174 1.392 . S
C173 H196 0.930 . S
C174 C173 1.392 . S
C174 C175 1.398 . S
C174 H197 0.929 . S
C175 C174 1.398 . S
C175 C176 1.352 . S
C176 C175 1.352 . S
C176 C177 1.384 . S
C176 H198 0.930 . S
C177 C172 1.407 . S
C177 C176 1.384 . S
C177 H199 0.929 . S
C178 O188 1.241 . S
C178 O189 1.273 . S
C179 O190 1.251 . S
C179 O191 1.268 . S
O180 Nd160 2.500 . S
O180 C162 1.258 . S
O181 Nd160 2.492 . S
O181 C162 1.239 . S
O182 Nd160 2.487 . S
O182 C169 1.241 . S
O183 Nd160 2.682 . S
O183 Nd161 2.414 . S
O183 C169 1.273 . S
O184 Nd160 2.410 . S
O184 C170 1.251 . S
O185 Nd161 2.424 . S
O185 C170 1.268 . S
O186 Nd161 2.500 . S
O186 C171 1.258 . S
O187 Nd161 2.492 . S
O187 C171 1.239 . S
O188 Nd161 2.487 . S
O188 C178 1.241 . S
O189 Nd160 2.414 . S
O189 Nd161 2.682 . S
O189 C178 1.273 . S
O190 Nd161 2.410 . S
O190 C179 1.251 . S
O191 Nd160 2.424 . S
O191 C179 1.268 . S
H192 C164 0.930 . S
H193 C165 0.929 . S
H194 C167 0.930 . S
H195 C168 0.929 . S
H196 C173 0.930 . S
H197 C174 0.929 . S
H198 C176 0.930 . S
H199 C177 0.929 . S
Nd200 C202 2.836 . S
Nd200 O220 2.500 . S
Nd200 O221 2.492 . S
Nd200 O222 2.487 . S
Nd200 O223 2.682 . S
Nd200 O224 2.410 . S
Nd200 O229 2.414 . S
Nd200 O231 2.424 . S
Nd201 C211 2.836 . S
Nd201 O223 2.414 . S
Nd201 O225 2.424 . S
Nd201 O226 2.500 . S
Nd201 O227 2.492 . S
Nd201 O228 2.487 . S
Nd201 O229 2.682 . S
Nd201 O230 2.410 . S
C202 Nd200 2.836 . S
C202 C203 1.498 . S
C202 O220 1.258 . S
C202 O221 1.239 . S
C203 C202 1.498 . S
C203 C204 1.366 . S
C203 C208 1.407 . S
C204 C203 1.366 . S
C204 C205 1.392 . S
C204 H232 0.930 . S
C205 C204 1.392 . S
C205 C206 1.398 . S
C205 H233 0.929 . S
C206 C205 1.398 . S
C206 C207 1.352 . S
C207 C206 1.352 . S
C207 C208 1.384 . S
C207 H234 0.930 . S
C208 C203 1.407 . S
C208 C207 1.384 . S
C208 H235 0.929 . S
C209 O222 1.241 . S
C209 O223 1.273 . S
C210 O224 1.251 . S
C210 O225 1.268 . S
C211 Nd201 2.836 . S
C211 C212 1.498 . S
C211 O226 1.258 . S
C211 O227 1.239 . S
C212 C211 1.498 . S
C212 C213 1.366 . S
C212 C217 1.407 . S
C213 C212 1.366 . S
C213 C214 1.392 . S
C213 H236 0.930 . S
C214 C213 1.392 . S
C214 C215 1.398 . S
C214 H237 0.929 . S
C215 C214 1.398 . S
C215 C216 1.352 . S
C216 C215 1.352 . S
C216 C217 1.384 . S
C216 H238 0.930 . S
C217 C212 1.407 . S
C217 C216 1.384 . S
C217 H239 0.929 . S
C218 O228 1.241 . S
C218 O229 1.273 . S
C219 O230 1.251 . S
C219 O231 1.268 . S
O220 Nd200 2.500 . S
O220 C202 1.258 . S
O221 Nd200 2.492 . S
O221 C202 1.239 . S
O222 Nd200 2.487 . S
O222 C209 1.241 . S
O223 Nd200 2.682 . S
O223 Nd201 2.414 . S
O223 C209 1.273 . S
O224 Nd200 2.410 . S
O224 C210 1.251 . S
O225 Nd201 2.424 . S
O225 C210 1.268 . S
O226 Nd201 2.500 . S
O226 C211 1.258 . S
O227 Nd201 2.492 . S
O227 C211 1.239 . S
O228 Nd201 2.487 . S
O228 C218 1.241 . S
O229 Nd200 2.414 . S
O229 Nd201 2.682 . S
O229 C218 1.273 . S
O230 Nd201 2.410 . S
O230 C219 1.251 . S
O231 Nd200 2.424 . S
O231 C219 1.268 . S
H232 C204 0.930 . S
H233 C205 0.929 . S
H234 C207 0.930 . S
H235 C208 0.929 . S
H236 C213 0.930 . S
H237 C214 0.929 . S
H238 C216 0.930 . S
H239 C217 0.929 . S
Nd240 C242 2.836 . S
Nd240 O260 2.500 . S
Nd240 O261 2.492 . S
Nd240 O262 2.487 . S
Nd240 O263 2.682 . S
Nd240 O264 2.410 . S
Nd240 O269 2.414 . S
Nd240 O271 2.424 . S
Nd241 C251 2.836 . S
Nd241 O263 2.414 . S
Nd241 O265 2.424 . S
Nd241 O266 2.500 . S
Nd241 O267 2.492 . S
Nd241 O268 2.487 . S
Nd241 O269 2.682 . S
Nd241 O270 2.410 . S
C242 Nd240 2.836 . S
C242 C243 1.498 . S
C242 O260 1.258 . S
C242 O261 1.239 . S
C243 C242 1.498 . S
C243 C244 1.366 . S
C243 C248 1.407 . S
C244 C243 1.366 . S
C244 C245 1.392 . S
C244 H272 0.930 . S
C245 C244 1.392 . S
C245 C246 1.398 . S
C245 H273 0.929 . S
C246 C245 1.398 . S
C246 C247 1.352 . S
C247 C246 1.352 . S
C247 C248 1.384 . S
C247 H274 0.930 . S
C248 C243 1.407 . S
C248 C247 1.384 . S
C248 H275 0.929 . S
C249 O262 1.241 . S
C249 O263 1.273 . S
C250 O264 1.251 . S
C250 O265 1.268 . S
C251 Nd241 2.836 . S
C251 C252 1.498 1_554 S
C251 O266 1.258 . S
C251 O267 1.239 . S
C252 C251 1.498 1_556 S
C252 C253 1.366 . S
C252 C257 1.407 . S
C253 C252 1.366 . S
C253 C254 1.392 . S
C253 H276 0.930 . S
C254 C253 1.392 . S
C254 C255 1.398 . S
C254 H277 0.929 . S
C255 C254 1.398 . S
C255 C256 1.352 . S
C256 C255 1.352 . S
C256 C257 1.384 . S
C256 H278 0.930 . S
C257 C252 1.407 . S
C257 C256 1.384 . S
C257 H279 0.929 . S
C258 O268 1.241 . S
C258 O269 1.273 . S
C259 O270 1.251 . S
C259 O271 1.268 . S
O260 Nd240 2.500 . S
O260 C242 1.258 . S
O261 Nd240 2.492 . S
O261 C242 1.239 . S
O262 Nd240 2.487 . S
O262 C249 1.241 . S
O263 Nd240 2.682 . S
O263 Nd241 2.414 . S
O263 C249 1.273 . S
O264 Nd240 2.410 . S
O264 C250 1.251 . S
O265 Nd241 2.424 . S
O265 C250 1.268 . S
O266 Nd241 2.500 . S
O266 C251 1.258 . S
O267 Nd241 2.492 . S
O267 C251 1.239 . S
O268 Nd241 2.487 . S
O268 C258 1.241 . S
O269 Nd240 2.414 . S
O269 Nd241 2.682 . S
O269 C258 1.273 . S
O270 Nd241 2.410 . S
O270 C259 1.251 . S
O271 Nd240 2.424 . S
O271 C259 1.268 . S
H272 C244 0.930 . S
H273 C245 0.929 . S
H274 C247 0.930 . S
H275 C248 0.929 . S
H276 C253 0.930 . S
H277 C254 0.929 . S
H278 C256 0.930 . S
H279 C257 0.929 . S
Nd280 C282 2.836 . S
Nd280 O300 2.500 . S
Nd280 O301 2.492 . S
Nd280 O302 2.487 . S
Nd280 O303 2.682 . S
Nd280 O304 2.410 . S
Nd280 O309 2.414 . S
Nd280 O311 2.424 . S
Nd281 C291 2.836 . S
Nd281 O303 2.414 . S
Nd281 O305 2.424 . S
Nd281 O306 2.500 . S
Nd281 O307 2.492 . S
Nd281 O308 2.487 . S
Nd281 O309 2.682 . S
Nd281 O310 2.410 . S
C282 Nd280 2.836 . S
C282 C283 1.498 . S
C282 O300 1.258 . S
C282 O301 1.239 . S
C283 C282 1.498 . S
C283 C284 1.366 . S
C283 C288 1.407 . S
C284 C283 1.366 . S
C284 C285 1.392 . S
C284 H312 0.930 . S
C285 C284 1.392 . S
C285 C286 1.398 . S
C285 H313 0.929 . S
C286 C285 1.398 . S
C286 C287 1.352 . S
C287 C286 1.352 . S
C287 C288 1.384 . S
C287 H314 0.930 . S
C288 C283 1.407 . S
C288 C287 1.384 . S
C288 H315 0.929 . S
C289 O302 1.241 . S
C289 O303 1.273 . S
C290 O304 1.251 . S
C290 O305 1.268 . S
C291 Nd281 2.836 . S
C291 C292 1.498 1_554 S
C291 O306 1.258 . S
C291 O307 1.239 . S
C292 C291 1.498 1_556 S
C292 C293 1.366 . S
C292 C297 1.407 . S
C293 C292 1.366 . S
C293 C294 1.392 . S
C293 H316 0.930 . S
C294 C293 1.392 . S
C294 C295 1.398 . S
C294 H317 0.929 . S
C295 C294 1.398 . S
C295 C296 1.352 . S
C296 C295 1.352 . S
C296 C297 1.384 . S
C296 H318 0.930 . S
C297 C292 1.407 . S
C297 C296 1.384 . S
C297 H319 0.929 . S
C298 O308 1.241 . S
C298 O309 1.273 . S
C299 O310 1.251 . S
C299 O311 1.268 . S
O300 Nd280 2.500 . S
O300 C282 1.258 . S
O301 Nd280 2.492 . S
O301 C282 1.239 . S
O302 Nd280 2.487 . S
O302 C289 1.241 . S
O303 Nd280 2.682 . S
O303 Nd281 2.414 . S
O303 C289 1.273 . S
O304 Nd280 2.410 . S
O304 C290 1.251 . S
O305 Nd281 2.424 . S
O305 C290 1.268 . S
O306 Nd281 2.500 . S
O306 C291 1.258 . S
O307 Nd281 2.492 . S
O307 C291 1.239 . S
O308 Nd281 2.487 . S
O308 C298 1.241 . S
O309 Nd280 2.414 . S
O309 Nd281 2.682 . S
O309 C298 1.273 . S
O310 Nd281 2.410 . S
O310 C299 1.251 . S
O311 Nd280 2.424 . S
O311 C299 1.268 . S
H312 C284 0.930 . S
H313 C285 0.929 . S
H314 C287 0.930 . S
H315 C288 0.929 . S
H316 C293 0.930 . S
H317 C294 0.929 . S
H318 C296 0.930 . S
H319 C297 0.929 . S
Nd320 C322 2.836 . S
Nd320 O340 2.500 . S
Nd320 O341 2.492 . S
Nd320 O342 2.487 . S
Nd320 O343 2.682 . S
Nd320 O344 2.410 . S
Nd320 O349 2.414 . S
Nd320 O351 2.424 . S
Nd321 C331 2.836 . S
Nd321 O343 2.414 . S
Nd321 O345 2.424 . S
Nd321 O346 2.500 . S
Nd321 O347 2.492 . S
Nd321 O348 2.487 . S
Nd321 O349 2.682 . S
Nd321 O350 2.410 . S
C322 Nd320 2.836 . S
C322 C323 1.498 . S
C322 O340 1.258 . S
C322 O341 1.239 . S
C323 C322 1.498 . S
C323 C324 1.366 . S
C323 C328 1.407 . S
C324 C323 1.366 . S
C324 C325 1.392 . S
C324 H352 0.930 . S
C325 C324 1.392 . S
C325 C326 1.398 . S
C325 H353 0.929 . S
C326 C325 1.398 . S
C326 C327 1.352 . S
C327 C326 1.352 . S
C327 C328 1.384 . S
C327 H354 0.930 . S
C328 C323 1.407 . S
C328 C327 1.384 . S
C328 H355 0.929 . S
C329 O342 1.241 . S
C329 O343 1.273 . S
C330 O344 1.251 . S
C330 O345 1.268 . S
C331 Nd321 2.836 . S
C331 C332 1.498 1_554 S
C331 O346 1.258 . S
C331 O347 1.239 . S
C332 C331 1.498 1_556 S
C332 C333 1.366 . S
C332 C337 1.407 . S
C333 C332 1.366 . S
C333 C334 1.392 . S
C333 H356 0.930 . S
C334 C333 1.392 . S
C334 C335 1.398 . S
C334 H357 0.929 . S
C335 C334 1.398 . S
C335 C336 1.352 . S
C336 C335 1.352 . S
C336 C337 1.384 . S
C336 H358 0.930 . S
C337 C332 1.407 . S
C337 C336 1.384 . S
C337 H359 0.929 . S
C338 O348 1.241 . S
C338 O349 1.273 . S
C339 O350 1.251 . S
C339 O351 1.268 . S
O340 Nd320 2.500 . S
O340 C322 1.258 . S
O341 Nd320 2.492 . S
O341 C322 1.239 . S
O342 Nd320 2.487 . S
O342 C329 1.241 . S
O343 Nd320 2.682 . S
O343 Nd321 2.414 . S
O343 C329 1.273 . S
O344 Nd320 2.410 . S
O344 C330 1.251 . S
O345 Nd321 2.424 . S
O345 C330 1.268 . S
O346 Nd321 2.500 . S
O346 C331 1.258 . S
O347 Nd321 2.492 . S
O347 C331 1.239 . S
O348 Nd321 2.487 . S
O348 C338 1.241 . S
O349 Nd320 2.414 . S
O349 Nd321 2.682 . S
O349 C338 1.273 . S
O350 Nd321 2.410 . S
O350 C339 1.251 . S
O351 Nd320 2.424 . S
O351 C339 1.268 . S
H352 C324 0.930 . S
H353 C325 0.929 . S
H354 C327 0.930 . S
H355 C328 0.929 . S
H356 C333 0.930 . S
H357 C334 0.929 . S
H358 C336 0.930 . S
H359 C337 0.929 . S
Nd360 C362 2.836 . S
Nd360 O380 2.500 . S
Nd360 O381 2.492 . S
Nd360 O382 2.487 . S
Nd360 O383 2.682 . S
Nd360 O384 2.410 . S
Nd360 O389 2.414 . S
Nd360 O391 2.424 . S
Nd361 C371 2.836 . S
Nd361 O383 2.414 . S
Nd361 O385 2.424 . S
Nd361 O386 2.500 . S
Nd361 O387 2.492 . S
Nd361 O388 2.487 . S
Nd361 O389 2.682 . S
Nd361 O390 2.410 . S
C362 Nd360 2.836 . S
C362 C363 1.498 . S
C362 O380 1.258 . S
C362 O381 1.239 . S
C363 C362 1.498 . S
C363 C364 1.366 . S
C363 C368 1.407 . S
C364 C363 1.366 . S
C364 C365 1.392 . S
C364 H392 0.930 . S
C365 C364 1.392 . S
C365 C366 1.398 . S
C365 H393 0.929 . S
C366 C365 1.398 . S
C366 C367 1.352 . S
C367 C366 1.352 . S
C367 C368 1.384 . S
C367 H394 0.930 . S
C368 C363 1.407 . S
C368 C367 1.384 . S
C368 H395 0.929 . S
C369 O382 1.241 . S
C369 O383 1.273 . S
C370 O384 1.251 . S
C370 O385 1.268 . S
C371 Nd361 2.836 . S
C371 C372 1.498 . S
C371 O386 1.258 . S
C371 O387 1.239 . S
C372 C371 1.498 . S
C372 C373 1.366 . S
C372 C377 1.407 . S
C373 C372 1.366 . S
C373 C374 1.392 . S
C373 H396 0.930 . S
C374 C373 1.392 . S
C374 C375 1.398 . S
C374 H397 0.929 . S
C375 C374 1.398 . S
C375 C376 1.352 . S
C376 C375 1.352 . S
C376 C377 1.384 . S
C376 H398 0.930 . S
C377 C372 1.407 . S
C377 C376 1.384 . S
C377 H399 0.929 . S
C378 O388 1.241 . S
C378 O389 1.273 . S
C379 O390 1.251 . S
C379 O391 1.268 . S
O380 Nd360 2.500 . S
O380 C362 1.258 . S
O381 Nd360 2.492 . S
O381 C362 1.239 . S
O382 Nd360 2.487 . S
O382 C369 1.241 . S
O383 Nd360 2.682 . S
O383 Nd361 2.414 . S
O383 C369 1.273 . S
O384 Nd360 2.410 . S
O384 C370 1.251 . S
O385 Nd361 2.424 . S
O385 C370 1.268 . S
O386 Nd361 2.500 . S
O386 C371 1.258 . S
O387 Nd361 2.492 . S
O387 C371 1.239 . S
O388 Nd361 2.487 . S
O388 C378 1.241 . S
O389 Nd360 2.414 . S
O389 Nd361 2.682 . S
O389 C378 1.273 . S
O390 Nd361 2.410 . S
O390 C379 1.251 . S
O391 Nd360 2.424 . S
O391 C379 1.268 . S
H392 C364 0.930 . S
H393 C365 0.929 . S
H394 C367 0.930 . S
H395 C368 0.929 . S
H396 C373 0.930 . S
H397 C374 0.929 . S
H398 C376 0.930 . S
H399 C377 0.929 . S
Nd400 C402 2.836 . S
Nd400 O420 2.500 . S
Nd400 O421 2.492 . S
Nd400 O422 2.487 . S
Nd400 O423 2.682 . S
Nd400 O424 2.410 . S
Nd400 O429 2.414 . S
Nd400 O431 2.424 . S
Nd401 C411 2.836 . S
Nd401 O423 2.414 . S
Nd401 O425 2.424 . S
Nd401 O426 2.500 . S
Nd401 O427 2.492 . S
Nd401 O428 2.487 . S
Nd401 O429 2.682 . S
Nd401 O430 2.410 . S
C402 Nd400 2.836 . S
C402 C403 1.498 . S
C402 O420 1.258 . S
C402 O421 1.239 . S
C403 C402 1.498 . S
C403 C404 1.366 . S
C403 C408 1.407 . S
C404 C403 1.366 . S
C404 C405 1.392 . S
C404 H432 0.930 . S
C405 C404 1.392 . S
C405 C406 1.398 . S
C405 H433 0.929 . S
C406 C405 1.398 . S
C406 C407 1.352 . S
C407 C406 1.352 . S
C407 C408 1.384 . S
C407 H434 0.930 . S
C408 C403 1.407 . S
C408 C407 1.384 . S
C408 H435 0.929 . S
C409 O422 1.241 . S
C409 O423 1.273 . S
C410 O424 1.251 . S
C410 O425 1.268 . S
C411 Nd401 2.836 . S
C411 C412 1.498 . S
C411 O426 1.258 . S
C411 O427 1.239 . S
C412 C411 1.498 . S
C412 C413 1.366 . S
C412 C417 1.407 . S
C413 C412 1.366 . S
C413 C414 1.392 . S
C413 H436 0.930 . S
C414 C413 1.392 . S
C414 C415 1.398 . S
C414 H437 0.929 . S
C415 C414 1.398 . S
C415 C416 1.352 . S
C416 C415 1.352 . S
C416 C417 1.384 . S
C416 H438 0.930 . S
C417 C412 1.407 . S
C417 C416 1.384 . S
C417 H439 0.929 . S
C418 O428 1.241 . S
C418 O429 1.273 . S
C419 O430 1.251 . S
C419 O431 1.268 . S
O420 Nd400 2.500 . S
O420 C402 1.258 . S
O421 Nd400 2.492 . S
O421 C402 1.239 . S
O422 Nd400 2.487 . S
O422 C409 1.241 . S
O423 Nd400 2.682 . S
O423 Nd401 2.414 . S
O423 C409 1.273 . S
O424 Nd400 2.410 . S
O424 C410 1.251 . S
O425 Nd401 2.424 . S
O425 C410 1.268 . S
O426 Nd401 2.500 . S
O426 C411 1.258 . S
O427 Nd401 2.492 . S
O427 C411 1.239 . S
O428 Nd401 2.487 . S
O428 C418 1.241 . S
O429 Nd400 2.414 . S
O429 Nd401 2.682 . S
O429 C418 1.273 . S
O430 Nd401 2.410 . S
O430 C419 1.251 . S
O431 Nd400 2.424 . S
O431 C419 1.268 . S
H432 C404 0.930 . S
H433 C405 0.929 . S
H434 C407 0.930 . S
H435 C408 0.929 . S
H436 C413 0.930 . S
H437 C414 0.929 . S
H438 C416 0.930 . S
H439 C417 0.929 . S
Nd440 C442 2.836 . S
Nd440 O460 2.500 . S
Nd440 O461 2.492 . S
Nd440 O462 2.487 . S
Nd440 O463 2.682 . S
Nd440 O464 2.410 . S
Nd440 O469 2.414 . S
Nd440 O471 2.424 . S
Nd441 C451 2.836 . S
Nd441 O463 2.414 . S
Nd441 O465 2.424 . S
Nd441 O466 2.500 . S
Nd441 O467 2.492 . S
Nd441 O468 2.487 . S
Nd441 O469 2.682 . S
Nd441 O470 2.410 . S
C442 Nd440 2.836 . S
C442 C443 1.498 . S
C442 O460 1.258 . S
C442 O461 1.239 . S
C443 C442 1.498 . S
C443 C444 1.366 . S
C443 C448 1.407 . S
C444 C443 1.366 . S
C444 C445 1.392 . S
C444 H472 0.930 . S
C445 C444 1.392 . S
C445 C446 1.398 . S
C445 H473 0.929 . S
C446 C445 1.398 . S
C446 C447 1.352 . S
C447 C446 1.352 . S
C447 C448 1.384 . S
C447 H474 0.930 . S
C448 C443 1.407 . S
C448 C447 1.384 . S
C448 H475 0.929 . S
C449 O462 1.241 . S
C449 O463 1.273 . S
C450 O464 1.251 . S
C450 O465 1.268 . S
C451 Nd441 2.836 . S
C451 C452 1.498 . S
C451 O466 1.258 . S
C451 O467 1.239 . S
C452 C451 1.498 . S
C452 C453 1.366 . S
C452 C457 1.407 . S
C453 C452 1.366 . S
C453 C454 1.392 . S
C453 H476 0.930 . S
C454 C453 1.392 . S
C454 C455 1.398 . S
C454 H477 0.929 . S
C455 C454 1.398 . S
C455 C456 1.352 . S
C456 C455 1.352 . S
C456 C457 1.384 . S
C456 H478 0.930 . S
C457 C452 1.407 . S
C457 C456 1.384 . S
C457 H479 0.929 . S
C458 O468 1.241 . S
C458 O469 1.273 . S
C459 O470 1.251 . S
C459 O471 1.268 . S
O460 Nd440 2.500 . S
O460 C442 1.258 . S
O461 Nd440 2.492 . S
O461 C442 1.239 . S
O462 Nd440 2.487 . S
O462 C449 1.241 . S
O463 Nd440 2.682 . S
O463 Nd441 2.414 . S
O463 C449 1.273 . S
O464 Nd440 2.410 . S
O464 C450 1.251 . S
O465 Nd441 2.424 . S
O465 C450 1.268 . S
O466 Nd441 2.500 . S
O466 C451 1.258 . S
O467 Nd441 2.492 . S
O467 C451 1.239 . S
O468 Nd441 2.487 . S
O468 C458 1.241 . S
O469 Nd440 2.414 . S
O469 Nd441 2.682 . S
O469 C458 1.273 . S
O470 Nd441 2.410 . S
O470 C459 1.251 . S
O471 Nd440 2.424 . S
O471 C459 1.268 . S
H472 C444 0.930 . S
H473 C445 0.929 . S
H474 C447 0.930 . S
H475 C448 0.929 . S
H476 C453 0.930 . S
H477 C454 0.929 . S
H478 C456 0.930 . S
H479 C457 0.929 . S
Nd480 C482 2.836 . S
Nd480 O500 2.500 . S
Nd480 O501 2.492 . S
Nd480 O502 2.487 . S
Nd480 O503 2.682 . S
Nd480 O504 2.410 . S
Nd480 O509 2.414 . S
Nd480 O511 2.424 . S
Nd481 C491 2.836 . S
Nd481 O503 2.414 . S
Nd481 O505 2.424 . S
Nd481 O506 2.500 . S
Nd481 O507 2.492 . S
Nd481 O508 2.487 . S
Nd481 O509 2.682 . S
Nd481 O510 2.410 . S
C482 Nd480 2.836 . S
C482 C483 1.498 . S
C482 O500 1.258 . S
C482 O501 1.239 . S
C483 C482 1.498 . S
C483 C484 1.366 . S
C483 C488 1.407 . S
C484 C483 1.366 . S
C484 C485 1.392 . S
C484 H512 0.930 . S
C485 C484 1.392 . S
C485 C486 1.398 . S
C485 H513 0.929 . S
C486 C485 1.398 . S
C486 C487 1.352 . S
C487 C486 1.352 . S
C487 C488 1.384 . S
C487 H514 0.930 . S
C488 C483 1.407 . S
C488 C487 1.384 . S
C488 H515 0.929 . S
C489 O502 1.241 . S
C489 O503 1.273 . S
C490 O504 1.251 . S
C490 O505 1.268 . S
C491 Nd481 2.836 . S
C491 C492 1.498 . S
C491 O506 1.258 . S
C491 O507 1.239 . S
C492 C491 1.498 . S
C492 C493 1.366 . S
C492 C497 1.407 . S
C493 C492 1.366 . S
C493 C494 1.392 . S
C493 H516 0.930 . S
C494 C493 1.392 . S
C494 C495 1.398 . S
C494 H517 0.929 . S
C495 C494 1.398 . S
C495 C496 1.352 . S
C496 C495 1.352 . S
C496 C497 1.384 . S
C496 H518 0.930 . S
C497 C492 1.407 . S
C497 C496 1.384 . S
C497 H519 0.929 . S
C498 O508 1.241 . S
C498 O509 1.273 . S
C499 O510 1.251 . S
C499 O511 1.268 . S
O500 Nd480 2.500 . S
O500 C482 1.258 . S
O501 Nd480 2.492 . S
O501 C482 1.239 . S
O502 Nd480 2.487 . S
O502 C489 1.241 . S
O503 Nd480 2.682 . S
O503 Nd481 2.414 . S
O503 C489 1.273 . S
O504 Nd480 2.410 . S
O504 C490 1.251 . S
O505 Nd481 2.424 . S
O505 C490 1.268 . S
O506 Nd481 2.500 . S
O506 C491 1.258 . S
O507 Nd481 2.492 . S
O507 C491 1.239 . S
O508 Nd481 2.487 . S
O508 C498 1.241 . S
O509 Nd480 2.414 . S
O509 Nd481 2.682 . S
O509 C498 1.273 . S
O510 Nd481 2.410 . S
O510 C499 1.251 . S
O511 Nd480 2.424 . S
O511 C499 1.268 . S
H512 C484 0.930 . S
H513 C485 0.929 . S
H514 C487 0.930 . S
H515 C488 0.929 . S
H516 C493 0.930 . S
H517 C494 0.929 . S
H518 C496 0.930 . S
H519 C497 0.929 . S
Nd520 C522 2.836 . S
Nd520 O540 2.500 . S
Nd520 O541 2.492 . S
Nd520 O542 2.487 . S
Nd520 O543 2.682 . S
Nd520 O544 2.410 . S
Nd520 O549 2.414 . S
Nd520 O551 2.424 . S
Nd521 C531 2.836 . S
Nd521 O543 2.414 . S
Nd521 O545 2.424 . S
Nd521 O546 2.500 . S
Nd521 O547 2.492 . S
Nd521 O548 2.487 . S
Nd521 O549 2.682 . S
Nd521 O550 2.410 . S
C522 Nd520 2.836 . S
C522 C523 1.498 . S
C522 O540 1.258 . S
C522 O541 1.239 . S
C523 C522 1.498 . S
C523 C524 1.366 . S
C523 C528 1.407 . S
C524 C523 1.366 . S
C524 C525 1.392 . S
C524 H552 0.930 . S
C525 C524 1.392 . S
C525 C526 1.398 . S
C525 H553 0.929 . S
C526 C525 1.398 . S
C526 C527 1.352 . S
C527 C526 1.352 . S
C527 C528 1.384 . S
C527 H554 0.930 . S
C528 C523 1.407 . S
C528 C527 1.384 . S
C528 H555 0.929 . S
C529 O542 1.241 . S
C529 O543 1.273 . S
C530 O544 1.251 . S
C530 O545 1.268 . S
C531 Nd521 2.836 . S
C531 C532 1.498 . S
C531 O546 1.258 . S
C531 O547 1.239 . S
C532 C531 1.498 . S
C532 C533 1.366 . S
C532 C537 1.407 . S
C533 C532 1.366 . S
C533 C534 1.392 . S
C533 H556 0.930 . S
C534 C533 1.392 . S
C534 C535 1.398 . S
C534 H557 0.929 . S
C535 C534 1.398 . S
C535 C536 1.352 . S
C536 C535 1.352 . S
C536 C537 1.384 . S
C536 H558 0.930 . S
C537 C532 1.407 . S
C537 C536 1.384 . S
C537 H559 0.929 . S
C538 O548 1.241 . S
C538 O549 1.273 . S
C539 O550 1.251 . S
C539 O551 1.268 . S
O540 Nd520 2.500 . S
O540 C522 1.258 . S
O541 Nd520 2.492 . S
O541 C522 1.239 . S
O542 Nd520 2.487 . S
O542 C529 1.241 . S
O543 Nd520 2.682 . S
O543 Nd521 2.414 . S
O543 C529 1.273 . S
O544 Nd520 2.410 . S
O544 C530 1.251 . S
O545 Nd521 2.424 . S
O545 C530 1.268 . S
O546 Nd521 2.500 . S
O546 C531 1.258 . S
O547 Nd521 2.492 . S
O547 C531 1.239 . S
O548 Nd521 2.487 . S
O548 C538 1.241 . S
O549 Nd520 2.414 . S
O549 Nd521 2.682 . S
O549 C538 1.273 . S
O550 Nd521 2.410 . S
O550 C539 1.251 . S
O551 Nd520 2.424 . S
O551 C539 1.268 . S
H552 C524 0.930 . S
H553 C525 0.929 . S
H554 C527 0.930 . S
H555 C528 0.929 . S
H556 C533 0.930 . S
H557 C534 0.929 . S
H558 C536 0.930 . S
H559 C537 0.929 . S
Nd560 C562 2.836 . S
Nd560 O580 2.500 . S
Nd560 O581 2.492 . S
Nd560 O582 2.487 . S
Nd560 O583 2.682 . S
Nd560 O584 2.410 . S
Nd560 O589 2.414 . S
Nd560 O591 2.424 . S
Nd561 C571 2.836 . S
Nd561 O583 2.414 . S
Nd561 O585 2.424 . S
Nd561 O586 2.500 . S
Nd561 O587 2.492 . S
Nd561 O588 2.487 . S
Nd561 O589 2.682 . S
Nd561 O590 2.410 . S
C562 Nd560 2.836 . S
C562 C563 1.498 . S
C562 O580 1.258 . S
C562 O581 1.239 . S
C563 C562 1.498 . S
C563 C564 1.366 . S
C563 C568 1.407 . S
C564 C563 1.366 . S
C564 C565 1.392 . S
C564 H592 0.930 . S
C565 C564 1.392 . S
C565 C566 1.398 . S
C565 H593 0.929 . S
C566 C565 1.398 . S
C566 C567 1.352 . S
C567 C566 1.352 . S
C567 C568 1.384 . S
C567 H594 0.930 . S
C568 C563 1.407 . S
C568 C567 1.384 . S
C568 H595 0.929 . S
C569 O582 1.241 . S
C569 O583 1.273 . S
C570 O584 1.251 . S
C570 O585 1.268 . S
C571 Nd561 2.836 . S
C571 C572 1.498 . S
C571 O586 1.258 . S
C571 O587 1.239 . S
C572 C571 1.498 . S
C572 C573 1.366 . S
C572 C577 1.407 . S
C573 C572 1.366 . S
C573 C574 1.392 . S
C573 H596 0.930 . S
C574 C573 1.392 . S
C574 C575 1.398 . S
C574 H597 0.929 . S
C575 C574 1.398 . S
C575 C576 1.352 . S
C576 C575 1.352 . S
C576 C577 1.384 . S
C576 H598 0.930 . S
C577 C572 1.407 . S
C577 C576 1.384 . S
C577 H599 0.929 . S
C578 O588 1.241 . S
C578 O589 1.273 . S
C579 O590 1.251 . S
C579 O591 1.268 . S
O580 Nd560 2.500 . S
O580 C562 1.258 . S
O581 Nd560 2.492 . S
O581 C562 1.239 . S
O582 Nd560 2.487 . S
O582 C569 1.241 . S
O583 Nd560 2.682 . S
O583 Nd561 2.414 . S
O583 C569 1.273 . S
O584 Nd560 2.410 . S
O584 C570 1.251 . S
O585 Nd561 2.424 . S
O585 C570 1.268 . S
O586 Nd561 2.500 . S
O586 C571 1.258 . S
O587 Nd561 2.492 . S
O587 C571 1.239 . S
O588 Nd561 2.487 . S
O588 C578 1.241 . S
O589 Nd560 2.414 . S
O589 Nd561 2.682 . S
O589 C578 1.273 . S
O590 Nd561 2.410 . S
O590 C579 1.251 . S
O591 Nd560 2.424 . S
O591 C579 1.268 . S
H592 C564 0.930 . S
H593 C565 0.929 . S
H594 C567 0.930 . S
H595 C568 0.929 . S
H596 C573 0.930 . S
H597 C574 0.929 . S
H598 C576 0.930 . S
H599 C577 0.929 . S
Nd600 C602 2.836 . S
Nd600 O620 2.500 . S
Nd600 O621 2.492 . S
Nd600 O622 2.487 . S
Nd600 O623 2.682 . S
Nd600 O624 2.410 . S
Nd600 O629 2.414 . S
Nd600 O631 2.424 1_556 S
Nd601 C611 2.825 1_556 S
Nd601 O623 2.416 . S
Nd601 O625 2.436 . S
Nd601 O626 2.489 1_556 S
Nd601 O627 2.482 1_556 S
Nd601 O628 2.489 . S
Nd601 O629 2.688 . S
Nd601 O630 2.403 1_556 S
C602 Nd600 2.836 . S
C602 C603 1.498 . S
C602 O620 1.258 . S
C602 O621 1.239 . S
C603 C602 1.498 . S
C603 C604 1.366 . S
C603 C608 1.407 . S
C604 C603 1.366 . S
C604 C605 1.392 . S
C604 H632 0.930 . S
C605 C604 1.392 . S
C605 C606 1.398 . S
C605 H633 0.929 . S
C606 C605 1.398 . S
C606 C607 1.352 . S
C607 C606 1.352 . S
C607 C608 1.384 . S
C607 H634 0.930 . S
C608 C603 1.407 . S
C608 C607 1.384 . S
C608 H635 0.929 . S
C609 O622 1.241 . S
C609 O623 1.273 . S
C610 O624 1.251 . S
C610 O625 1.268 . S
C611 Nd601 2.825 1_554 S
C611 C612 1.498 . S
C611 O626 1.258 . S
C611 O627 1.239 . S
C612 C611 1.498 . S
C612 C613 1.366 . S
C612 C617 1.407 . S
C613 C612 1.366 . S
C613 C614 1.392 . S
C613 H636 0.930 . S
C614 C613 1.392 . S
C614 C615 1.398 . S
C614 H637 0.929 . S
C615 C614 1.398 . S
C615 C616 1.352 . S
C616 C615 1.352 . S
C616 C617 1.384 . S
C616 H638 0.930 . S
C617 C612 1.407 . S
C617 C616 1.384 . S
C617 H639 0.929 . S
C618 O628 1.241 . S
C618 O629 1.273 . S
C619 O630 1.251 . S
C619 O631 1.268 . S
O620 Nd600 2.500 . S
O620 C602 1.258 . S
O621 Nd600 2.492 . S
O621 C602 1.239 . S
O622 Nd600 2.487 . S
O622 C609 1.241 . S
O623 Nd600 2.682 . S
O623 Nd601 2.416 . S
O623 C609 1.273 . S
O624 Nd600 2.410 . S
O624 C610 1.251 . S
O625 Nd601 2.436 . S
O625 C610 1.268 . S
O626 Nd601 2.489 1_554 S
O626 C611 1.258 . S
O627 Nd601 2.482 1_554 S
O627 C611 1.239 . S
O628 Nd601 2.489 . S
O628 C618 1.241 . S
O629 Nd600 2.414 . S
O629 Nd601 2.688 . S
O629 C618 1.273 . S
O630 Nd601 2.403 1_554 S
O630 C619 1.251 . S
O631 Nd600 2.424 1_554 S
O631 C619 1.268 . S
H632 C604 0.930 . S
H633 C605 0.929 . S
H634 C607 0.930 . S
H635 C608 0.929 . S
H636 C613 0.930 . S
H637 C614 0.929 . S
H638 C616 0.930 . S
H639 C617 0.929 . S
Nd640 C642 2.836 . S
Nd640 O660 2.500 . S
Nd640 O661 2.492 . S
Nd640 O662 2.487 . S
Nd640 O663 2.682 . S
Nd640 O664 2.410 . S
Nd640 O669 2.414 . S
Nd640 O671 2.424 1_556 S
Nd641 C651 2.825 1_556 S
Nd641 O663 2.416 . S
Nd641 O665 2.436 . S
Nd641 O666 2.489 1_556 S
Nd641 O667 2.482 1_556 S
Nd641 O668 2.489 . S
Nd641 O669 2.689 . S
Nd641 O670 2.403 1_556 S
C642 Nd640 2.836 . S
C642 C643 1.498 . S
C642 O660 1.258 . S
C642 O661 1.239 . S
C643 C642 1.498 . S
C643 C644 1.366 . S
C643 C648 1.407 . S
C644 C643 1.366 . S
C644 C645 1.392 . S
C644 H672 0.930 . S
C645 C644 1.392 . S
C645 C646 1.398 . S
C645 H673 0.929 . S
C646 C645 1.398 . S
C646 C647 1.352 . S
C647 C646 1.352 . S
C647 C648 1.384 . S
C647 H674 0.930 . S
C648 C643 1.407 . S
C648 C647 1.384 . S
C648 H675 0.929 . S
C649 O662 1.241 . S
C649 O663 1.273 . S
C650 O664 1.251 . S
C650 O665 1.268 . S
C651 Nd641 2.825 1_554 S
C651 C652 1.498 . S
C651 O666 1.258 . S
C651 O667 1.239 . S
C652 C651 1.498 . S
C652 C653 1.366 . S
C652 C657 1.407 . S
C653 C652 1.366 . S
C653 C654 1.392 . S
C653 H676 0.930 . S
C654 C653 1.392 . S
C654 C655 1.398 . S
C654 H677 0.929 . S
C655 C654 1.398 . S
C655 C656 1.352 . S
C656 C655 1.352 . S
C656 C657 1.384 . S
C656 H678 0.930 . S
C657 C652 1.407 . S
C657 C656 1.384 . S
C657 H679 0.929 . S
C658 O668 1.241 . S
C658 O669 1.273 . S
C659 O670 1.251 . S
C659 O671 1.268 . S
O660 Nd640 2.500 . S
O660 C642 1.258 . S
O661 Nd640 2.492 . S
O661 C642 1.239 . S
O662 Nd640 2.487 . S
O662 C649 1.241 . S
O663 Nd640 2.682 . S
O663 Nd641 2.416 . S
O663 C649 1.273 . S
O664 Nd640 2.410 . S
O664 C650 1.251 . S
O665 Nd641 2.436 . S
O665 C650 1.268 . S
O666 Nd641 2.489 1_554 S
O666 C651 1.258 . S
O667 Nd641 2.482 1_554 S
O667 C651 1.239 . S
O668 Nd641 2.489 . S
O668 C658 1.241 . S
O669 Nd640 2.414 . S
O669 Nd641 2.689 . S
O669 C658 1.273 . S
O670 Nd641 2.403 1_554 S
O670 C659 1.251 . S
O671 Nd640 2.424 1_554 S
O671 C659 1.268 . S
H672 C644 0.930 . S
H673 C645 0.929 . S
H674 C647 0.930 . S
H675 C648 0.929 . S
H676 C653 0.930 . S
H677 C654 0.929 . S
H678 C656 0.930 . S
H679 C657 0.929 . S
Nd680 C682 2.836 . S
Nd680 O700 2.500 . S
Nd680 O701 2.492 . S
Nd680 O702 2.487 . S
Nd680 O703 2.682 . S
Nd680 O704 2.410 . S
Nd680 O709 2.414 . S
Nd680 O711 2.424 1_556 S
Nd681 C691 2.825 1_556 S
Nd681 O703 2.416 . S
Nd681 O705 2.435 . S
Nd681 O706 2.490 1_556 S
Nd681 O707 2.482 1_556 S
Nd681 O708 2.489 . S
Nd681 O709 2.688 . S
Nd681 O710 2.403 1_556 S
C682 Nd680 2.836 . S
C682 C683 1.498 . S
C682 O700 1.258 . S
C682 O701 1.239 . S
C683 C682 1.498 . S
C683 C684 1.366 . S
C683 C688 1.407 . S
C684 C683 1.366 . S
C684 C685 1.392 . S
C684 H712 0.930 . S
C685 C684 1.392 . S
C685 C686 1.398 . S
C685 H713 0.929 . S
C686 C685 1.398 . S
C686 C687 1.352 . S
C687 C686 1.352 . S
C687 C688 1.384 . S
C687 H714 0.930 . S
C688 C683 1.407 . S
C688 C687 1.384 . S
C688 H715 0.929 . S
C689 O702 1.241 . S
C689 O703 1.273 . S
C690 O704 1.251 . S
C690 O705 1.268 . S
C691 Nd681 2.825 1_554 S
C691 C692 1.498 . S
C691 O706 1.258 . S
C691 O707 1.239 . S
C692 C691 1.498 . S
C692 C693 1.366 . S
C692 C697 1.407 . S
C693 C692 1.366 . S
C693 C694 1.392 . S
C693 H716 0.930 . S
C694 C693 1.392 . S
C694 C695 1.398 . S
C694 H717 0.929 . S
C695 C694 1.398 . S
C695 C696 1.352 . S
C696 C695 1.352 . S
C696 C697 1.384 . S
C696 H718 0.930 . S
C697 C692 1.407 . S
C697 C696 1.384 . S
C697 H719 0.929 . S
C698 O708 1.241 . S
C698 O709 1.273 . S
C699 O710 1.251 . S
C699 O711 1.268 . S
O700 Nd680 2.500 . S
O700 C682 1.258 . S
O701 Nd680 2.492 . S
O701 C682 1.239 . S
O702 Nd680 2.487 . S
O702 C689 1.241 . S
O703 Nd680 2.682 . S
O703 Nd681 2.416 . S
O703 C689 1.273 . S
O704 Nd680 2.410 . S
O704 C690 1.251 . S
O705 Nd681 2.435 . S
O705 C690 1.268 . S
O706 Nd681 2.490 1_554 S
O706 C691 1.258 . S
O707 Nd681 2.482 1_554 S
O707 C691 1.239 . S
O708 Nd681 2.489 . S
O708 C698 1.241 . S
O709 Nd680 2.414 . S
O709 Nd681 2.688 . S
O709 C698 1.273 . S
O710 Nd681 2.403 1_554 S
O710 C699 1.251 . S
O711 Nd680 2.424 1_554 S
O711 C699 1.268 . S
H712 C684 0.930 . S
H713 C685 0.929 . S
H714 C687 0.930 . S
H715 C688 0.929 . S
H716 C693 0.930 . S
H717 C694 0.929 . S
H718 C696 0.930 . S
H719 C697 0.929 . S
Nd720 C722 2.836 . S
Nd720 O740 2.500 . S
Nd720 O741 2.492 . S
Nd720 O742 2.487 . S
Nd720 O743 2.682 . S
Nd720 O744 2.410 . S
Nd720 O749 2.414 . S
Nd720 O751 2.424 . S
Nd721 C731 2.836 . S
Nd721 O743 2.414 . S
Nd721 O745 2.424 . S
Nd721 O746 2.500 . S
Nd721 O747 2.492 . S
Nd721 O748 2.487 . S
Nd721 O749 2.682 . S
Nd721 O750 2.410 . S
C722 Nd720 2.836 . S
C722 C723 1.498 . S
C722 O740 1.258 . S
C722 O741 1.239 . S
C723 C722 1.498 . S
C723 C724 1.366 . S
C723 C728 1.407 . S
C724 C723 1.366 . S
C724 C725 1.392 . S
C724 H752 0.930 . S
C725 C724 1.392 . S
C725 C726 1.398 . S
C725 H753 0.929 . S
C726 C725 1.398 . S
C726 C727 1.352 . S
C727 C726 1.352 . S
C727 C728 1.384 . S
C727 H754 0.930 . S
C728 C723 1.407 . S
C728 C727 1.384 . S
C728 H755 0.929 . S
C729 O742 1.241 . S
C729 O743 1.273 . S
C730 O744 1.251 . S
C730 O745 1.268 . S
C731 Nd721 2.836 . S
C731 C732 1.498 . S
C731 O746 1.258 . S
C731 O747 1.239 . S
C732 C731 1.498 . S
C732 C733 1.366 . S
C732 C737 1.407 . S
C733 C732 1.366 . S
C733 C734 1.392 . S
C733 H756 0.930 . S
C734 C733 1.392 . S
C734 C735 1.398 . S
C734 H757 0.929 . S
C735 C734 1.398 . S
C735 C736 1.352 . S
C736 C735 1.352 . S
C736 C737 1.384 . S
C736 H758 0.930 . S
C737 C732 1.407 . S
C737 C736 1.384 . S
C737 H759 0.929 . S
C738 O748 1.241 . S
C738 O749 1.273 . S
C739 O750 1.251 . S
C739 O751 1.268 . S
O740 Nd720 2.500 . S
O740 C722 1.258 . S
O741 Nd720 2.492 . S
O741 C722 1.239 . S
O742 Nd720 2.487 . S
O742 C729 1.241 . S
O743 Nd720 2.682 . S
O743 Nd721 2.414 . S
O743 C729 1.273 . S
O744 Nd720 2.410 . S
O744 C730 1.251 . S
O745 Nd721 2.424 . S
O745 C730 1.268 . S
O746 Nd721 2.500 . S
O746 C731 1.258 . S
O747 Nd721 2.492 . S
O747 C731 1.239 . S
O748 Nd721 2.487 . S
O748 C738 1.241 . S
O749 Nd720 2.414 . S
O749 Nd721 2.682 . S
O749 C738 1.273 . S
O750 Nd721 2.410 . S
O750 C739 1.251 . S
O751 Nd720 2.424 . S
O751 C739 1.268 . S
H752 C724 0.930 . S
H753 C725 0.929 . S
H754 C727 0.930 . S
H755 C728 0.929 . S
H756 C733 0.930 . S
H757 C734 0.929 . S
H758 C736 0.930 . S
H759 C737 0.929 . S
Nd760 C762 2.836 . S
Nd760 O780 2.500 . S
Nd760 O781 2.492 . S
Nd760 O782 2.487 . S
Nd760 O783 2.682 . S
Nd760 O784 2.410 . S
Nd760 O789 2.414 . S
Nd760 O791 2.424 . S
Nd761 C771 2.836 . S
Nd761 O783 2.414 . S
Nd761 O785 2.424 . S
Nd761 O786 2.500 . S
Nd761 O787 2.492 . S
Nd761 O788 2.487 . S
Nd761 O789 2.682 . S
Nd761 O790 2.410 . S
C762 Nd760 2.836 . S
C762 C763 1.498 . S
C762 O780 1.258 . S
C762 O781 1.239 . S
C763 C762 1.498 . S
C763 C764 1.366 . S
C763 C768 1.407 . S
C764 C763 1.366 . S
C764 C765 1.392 . S
C764 H792 0.930 . S
C765 C764 1.392 . S
C765 C766 1.398 . S
C765 H793 0.929 . S
C766 C765 1.398 . S
C766 C767 1.352 . S
C767 C766 1.352 . S
C767 C768 1.384 . S
C767 H794 0.930 . S
C768 C763 1.407 . S
C768 C767 1.384 . S
C768 H795 0.929 . S
C769 O782 1.241 . S
C769 O783 1.273 . S
C770 O784 1.251 . S
C770 O785 1.268 . S
C771 Nd761 2.836 . S
C771 C772 1.498 . S
C771 O786 1.258 . S
C771 O787 1.239 . S
C772 C771 1.498 . S
C772 C773 1.366 . S
C772 C777 1.407 . S
C773 C772 1.366 . S
C773 C774 1.392 . S
C773 H796 0.930 . S
C774 C773 1.392 . S
C774 C775 1.398 . S
C774 H797 0.929 . S
C775 C774 1.398 . S
C775 C776 1.352 . S
C776 C775 1.352 . S
C776 C777 1.384 . S
C776 H798 0.930 . S
C777 C772 1.407 . S
C777 C776 1.384 . S
C777 H799 0.929 . S
C778 O788 1.241 . S
C778 O789 1.273 . S
C779 O790 1.251 . S
C779 O791 1.268 . S
O780 Nd760 2.500 . S
O780 C762 1.258 . S
O781 Nd760 2.492 . S
O781 C762 1.239 . S
O782 Nd760 2.487 . S
O782 C769 1.241 . S
O783 Nd760 2.682 . S
O783 Nd761 2.414 . S
O783 C769 1.273 . S
O784 Nd760 2.410 . S
O784 C770 1.251 . S
O785 Nd761 2.424 . S
O785 C770 1.268 . S
O786 Nd761 2.500 . S
O786 C771 1.258 . S
O787 Nd761 2.492 . S
O787 C771 1.239 . S
O788 Nd761 2.487 . S
O788 C778 1.241 . S
O789 Nd760 2.414 . S
O789 Nd761 2.682 . S
O789 C778 1.273 . S
O790 Nd761 2.410 . S
O790 C779 1.251 . S
O791 Nd760 2.424 . S
O791 C779 1.268 . S
H792 C764 0.930 . S
H793 C765 0.929 . S
H794 C767 0.930 . S
H795 C768 0.929 . S
H796 C773 0.930 . S
H797 C774 0.929 . S
H798 C776 0.930 . S
H799 C777 0.929 . S
Nd800 C802 2.836 . S
Nd800 O820 2.500 . S
Nd800 O821 2.492 . S
Nd800 O822 2.487 . S
Nd800 O823 2.682 . S
Nd800 O824 2.410 . S
Nd800 O829 2.414 . S
Nd800 O831 2.424 . S
Nd801 C811 2.836 . S
Nd801 O823 2.414 . S
Nd801 O825 2.424 . S
Nd801 O826 2.500 . S
Nd801 O827 2.492 . S
Nd801 O828 2.487 . S
Nd801 O829 2.682 . S
Nd801 O830 2.410 . S
C802 Nd800 2.836 . S
C802 C803 1.498 . S
C802 O820 1.258 . S
C802 O821 1.239 . S
C803 C802 1.498 . S
C803 C804 1.366 . S
C803 C808 1.407 . S
C804 C803 1.366 . S
C804 C805 1.392 . S
C804 H832 0.930 . S
C805 C804 1.392 . S
C805 C806 1.398 . S
C805 H833 0.929 . S
C806 C805 1.398 . S
C806 C807 1.352 . S
C807 C806 1.352 . S
C807 C808 1.384 . S
C807 H834 0.930 . S
C808 C803 1.407 . S
C808 C807 1.384 . S
C808 H835 0.929 . S
C809 O822 1.241 . S
C809 O823 1.273 . S
C810 O824 1.251 . S
C810 O825 1.268 . S
C811 Nd801 2.836 . S
C811 C812 1.498 . S
C811 O826 1.258 . S
C811 O827 1.239 . S
C812 C811 1.498 . S
C812 C813 1.366 . S
C812 C817 1.407 . S
C813 C812 1.366 . S
C813 C814 1.392 . S
C813 H836 0.930 . S
C814 C813 1.392 . S
C814 C815 1.398 . S
C814 H837 0.929 . S
C815 C814 1.398 . S
C815 C816 1.352 . S
C816 C815 1.352 . S
C816 C817 1.384 . S
C816 H838 0.930 . S
C817 C812 1.407 . S
C817 C816 1.384 . S
C817 H839 0.929 . S
C818 O828 1.241 . S
C818 O829 1.273 . S
C819 O830 1.251 . S
C819 O831 1.268 . S
O820 Nd800 2.500 . S
O820 C802 1.258 . S
O821 Nd800 2.492 . S
O821 C802 1.239 . S
O822 Nd800 2.487 . S
O822 C809 1.241 . S
O823 Nd800 2.682 . S
O823 Nd801 2.414 . S
O823 C809 1.273 . S
O824 Nd800 2.410 . S
O824 C810 1.251 . S
O825 Nd801 2.424 . S
O825 C810 1.268 . S
O826 Nd801 2.500 . S
O826 C811 1.258 . S
O827 Nd801 2.492 . S
O827 C811 1.239 . S
O828 Nd801 2.487 . S
O828 C818 1.241 . S
O829 Nd800 2.414 . S
O829 Nd801 2.682 . S
O829 C818 1.273 . S
O830 Nd801 2.410 . S
O830 C819 1.251 . S
O831 Nd800 2.424 . S
O831 C819 1.268 . S
H832 C804 0.930 . S
H833 C805 0.929 . S
H834 C807 0.930 . S
H835 C808 0.929 . S
H836 C813 0.930 . S
H837 C814 0.929 . S
H838 C816 0.930 . S
H839 C817 0.929 . S
Nd840 C842 2.836 . S
Nd840 O860 2.500 . S
Nd840 O861 2.492 . S
Nd840 O862 2.487 . S
Nd840 O863 2.682 . S
Nd840 O864 2.410 . S
Nd840 O869 2.414 . S
Nd840 O871 2.424 . S
Nd841 C851 2.836 . S
Nd841 O863 2.414 . S
Nd841 O865 2.424 . S
Nd841 O866 2.500 . S
Nd841 O867 2.492 . S
Nd841 O868 2.487 . S
Nd841 O869 2.682 . S
Nd841 O870 2.410 . S
C842 Nd840 2.836 . S
C842 C843 1.498 . S
C842 O860 1.258 . S
C842 O861 1.239 . S
C843 C842 1.498 . S
C843 C844 1.366 . S
C843 C848 1.407 . S
C844 C843 1.366 . S
C844 C845 1.392 . S
C844 H872 0.930 . S
C845 C844 1.392 . S
C845 C846 1.398 . S
C845 H873 0.929 . S
C846 C845 1.398 . S
C846 C847 1.352 . S
C847 C846 1.352 . S
C847 C848 1.384 . S
C847 H874 0.930 . S
C848 C843 1.407 . S
C848 C847 1.384 . S
C848 H875 0.929 . S
C849 O862 1.241 . S
C849 O863 1.273 . S
C850 O864 1.251 . S
C850 O865 1.268 . S
C851 Nd841 2.836 . S
C851 C852 1.498 . S
C851 O866 1.258 . S
C851 O867 1.239 . S
C852 C851 1.498 . S
C852 C853 1.366 1_556 S
C852 C857 1.407 . S
C853 C852 1.366 1_554 S
C853 C854 1.392 . S
C853 H876 0.930 1_554 S
C854 C853 1.392 . S
C854 C855 1.398 . S
C854 H877 0.929 . S
C855 C854 1.398 . S
C855 C856 1.352 . S
C856 C855 1.352 . S
C856 C857 1.384 1_554 S
C856 H878 0.930 . S
C857 C852 1.407 . S
C857 C856 1.384 1_556 S
C857 H879 0.929 . S
C858 O868 1.241 . S
C858 O869 1.273 . S
C859 O870 1.251 . S
C859 O871 1.268 . S
O860 Nd840 2.500 . S
O860 C842 1.258 . S
O861 Nd840 2.492 . S
O861 C842 1.239 . S
O862 Nd840 2.487 . S
O862 C849 1.241 . S
O863 Nd840 2.682 . S
O863 Nd841 2.414 . S
O863 C849 1.273 . S
O864 Nd840 2.410 . S
O864 C850 1.251 . S
O865 Nd841 2.424 . S
O865 C850 1.268 . S
O866 Nd841 2.500 . S
O866 C851 1.258 . S
O867 Nd841 2.492 . S
O867 C851 1.239 . S
O868 Nd841 2.487 . S
O868 C858 1.241 . S
O869 Nd840 2.414 . S
O869 Nd841 2.682 . S
O869 C858 1.273 . S
O870 Nd841 2.410 . S
O870 C859 1.251 . S
O871 Nd840 2.424 . S
O871 C859 1.268 . S
H872 C844 0.930 . S
H873 C845 0.929 . S
H874 C847 0.930 . S
H875 C848 0.929 . S
H876 C853 0.930 1_556 S
H877 C854 0.929 . S
H878 C856 0.930 . S
H879 C857 0.929 . S
Nd880 C882 2.836 . S
Nd880 O900 2.500 . S
Nd880 O901 2.492 . S
Nd880 O902 2.487 . S
Nd880 O903 2.682 . S
Nd880 O904 2.410 . S
Nd880 O909 2.414 . S
Nd880 O911 2.424 . S
Nd881 C891 2.836 . S
Nd881 O903 2.414 . S
Nd881 O905 2.424 . S
Nd881 O906 2.500 . S
Nd881 O907 2.492 . S
Nd881 O908 2.487 . S
Nd881 O909 2.682 . S
Nd881 O910 2.410 . S
C882 Nd880 2.836 . S
C882 C883 1.498 . S
C882 O900 1.258 . S
C882 O901 1.239 . S
C883 C882 1.498 . S
C883 C884 1.366 . S
C883 C888 1.407 . S
C884 C883 1.366 . S
C884 C885 1.392 . S
C884 H912 0.930 . S
C885 C884 1.392 . S
C885 C886 1.398 . S
C885 H913 0.929 . S
C886 C885 1.398 . S
C886 C887 1.352 . S
C887 C886 1.352 . S
C887 C888 1.384 . S
C887 H914 0.930 . S
C888 C883 1.407 . S
C888 C887 1.384 . S
C888 H915 0.929 . S
C889 O902 1.241 . S
C889 O903 1.273 . S
C890 O904 1.251 . S
C890 O905 1.268 . S
C891 Nd881 2.836 . S
C891 C892 1.498 . S
C891 O906 1.258 . S
C891 O907 1.239 . S
C892 C891 1.498 . S
C892 C893 1.366 1_556 S
C892 C897 1.407 . S
C893 C892 1.366 1_554 S
C893 C894 1.392 . S
C893 H916 0.930 1_554 S
C894 C893 1.392 . S
C894 C895 1.398 . S
C894 H917 0.929 . S
C895 C894 1.398 . S
C895 C896 1.352 . S
C896 C895 1.352 . S
C896 C897 1.384 1_554 S
C896 H918 0.930 . S
C897 C892 1.407 . S
C897 C896 1.384 1_556 S
C897 H919 0.929 . S
C898 O908 1.241 . S
C898 O909 1.273 . S
C899 O910 1.251 . S
C899 O911 1.268 . S
O900 Nd880 2.500 . S
O900 C882 1.258 . S
O901 Nd880 2.492 . S
O901 C882 1.239 . S
O902 Nd880 2.487 . S
O902 C889 1.241 . S
O903 Nd880 2.682 . S
O903 Nd881 2.414 . S
O903 C889 1.273 . S
O904 Nd880 2.410 . S
O904 C890 1.251 . S
O905 Nd881 2.424 . S
O905 C890 1.268 . S
O906 Nd881 2.500 . S
O906 C891 1.258 . S
O907 Nd881 2.492 . S
O907 C891 1.239 . S
O908 Nd881 2.487 . S
O908 C898 1.241 . S
O909 Nd880 2.414 . S
O909 Nd881 2.682 . S
O909 C898 1.273 . S
O910 Nd881 2.410 . S
O910 C899 1.251 . S
O911 Nd880 2.424 . S
O911 C899 1.268 . S
H912 C884 0.930 . S
H913 C885 0.929 . S
H914 C887 0.930 . S
H915 C888 0.929 . S
H916 C893 0.930 1_556 S
H917 C894 0.929 . S
H918 C896 0.930 . S
H919 C897 0.929 . S
Nd920 C922 2.836 . S
Nd920 O940 2.500 . S
Nd920 O941 2.492 . S
Nd920 O942 2.487 . S
Nd920 O943 2.682 . S
Nd920 O944 2.410 . S
Nd920 O949 2.414 . S
Nd920 O951 2.424 . S
Nd921 C931 2.836 . S
Nd921 O943 2.414 . S
Nd921 O945 2.424 . S
Nd921 O946 2.500 . S
Nd921 O947 2.492 . S
Nd921 O948 2.487 . S
Nd921 O949 2.682 . S
Nd921 O950 2.410 . S
C922 Nd920 2.836 . S
C922 C923 1.498 . S
C922 O940 1.258 . S
C922 O941 1.239 . S
C923 C922 1.498 . S
C923 C924 1.366 . S
C923 C928 1.407 . S
C924 C923 1.366 . S
C924 C925 1.392 . S
C924 H952 0.930 . S
C925 C924 1.392 . S
C925 C926 1.398 . S
C925 H953 0.929 . S
C926 C925 1.398 . S
C926 C927 1.352 . S
C927 C926 1.352 . S
C927 C928 1.384 . S
C927 H954 0.930 . S
C928 C923 1.407 . S
C928 C927 1.384 . S
C928 H955 0.929 . S
C929 O942 1.241 . S
C929 O943 1.273 . S
C930 O944 1.251 . S
C930 O945 1.268 . S
C931 Nd921 2.836 . S
C931 C932 1.498 . S
C931 O946 1.258 . S
C931 O947 1.239 . S
C932 C931 1.498 . S
C932 C933 1.366 1_556 S
C932 C937 1.407 . S
C933 C932 1.366 1_554 S
C933 C934 1.392 . S
C933 H956 0.930 1_554 S
C934 C933 1.392 . S
C934 C935 1.398 . S
C934 H957 0.929 . S
C935 C934 1.398 . S
C935 C936 1.352 . S
C936 C935 1.352 . S
C936 C937 1.384 1_554 S
C936 H958 0.930 . S
C937 C932 1.407 . S
C937 C936 1.384 1_556 S
C937 H959 0.929 . S
C938 O948 1.241 . S
C938 O949 1.273 . S
C939 O950 1.251 . S
C939 O951 1.268 . S
O940 Nd920 2.500 . S
O940 C922 1.258 . S
O941 Nd920 2.492 . S
O941 C922 1.239 . S
O942 Nd920 2.487 . S
O942 C929 1.241 . S
O943 Nd920 2.682 . S
O943 Nd921 2.414 . S
O943 C929 1.273 . S
O944 Nd920 2.410 . S
O944 C930 1.251 . S
O945 Nd921 2.424 . S
O945 C930 1.268 . S
O946 Nd921 2.500 . S
O946 C931 1.258 . S
O947 Nd921 2.492 . S
O947 C931 1.239 . S
O948 Nd921 2.487 . S
O948 C938 1.241 . S
O949 Nd920 2.414 . S
O949 Nd921 2.682 . S
O949 C938 1.273 . S
O950 Nd921 2.410 . S
O950 C939 1.251 . S
O951 Nd920 2.424 . S
O951 C939 1.268 . S
H952 C924 0.930 . S
H953 C925 0.929 . S
H954 C927 0.930 . S
H955 C928 0.929 . S
H956 C933 0.930 1_556 S
H957 C934 0.929 . S
H958 C936 0.930 . S
H959 C937 0.929 . S
Nd960 C962 2.836 . S
Nd960 O980 2.500 . S
Nd960 O981 2.492 . S
Nd960 O982 2.487 . S
Nd960 O983 2.682 . S
Nd960 O984 2.410 . S
Nd960 O989 2.414 . S
Nd960 O991 2.424 . S
Nd961 C971 2.836 . S
Nd961 O983 2.414 . S
Nd961 O985 2.424 . S
Nd961 O986 2.500 . S
Nd961 O987 2.492 . S
Nd961 O988 2.487 . S
Nd961 O989 2.682 . S
Nd961 O990 2.410 . S
C962 Nd960 2.836 . S
C962 C963 1.498 . S
C962 O980 1.258 . S
C962 O981 1.239 . S
C963 C962 1.498 . S
C963 C964 1.366 . S
C963 C968 1.407 . S
C964 C963 1.366 . S
C964 C965 1.392 . S
C964 H992 0.930 . S
C965 C964 1.392 . S
C965 C966 1.398 . S
C965 H993 0.929 . S
C966 C965 1.398 . S
C966 C967 1.352 . S
C967 C966 1.352 . S
C967 C968 1.384 . S
C967 H994 0.930 . S
C968 C963 1.407 . S
C968 C967 1.384 . S
C968 H995 0.929 . S
C969 O982 1.241 . S
C969 O983 1.273 . S
C970 O984 1.251 . S
C970 O985 1.268 . S
C971 Nd961 2.836 . S
C971 C972 1.498 . S
C971 O986 1.258 . S
C971 O987 1.239 . S
C972 C971 1.498 . S
C972 C973 1.366 . S
C972 C977 1.407 . S
C973 C972 1.366 . S
C973 C974 1.392 . S
C973 H996 0.930 . S
C974 C973 1.392 . S
C974 C975 1.398 . S
C974 H997 0.929 . S
C975 C974 1.398 . S
C975 C976 1.352 . S
C976 C975 1.352 . S
C976 C977 1.384 . S
C976 H998 0.930 . S
C977 C972 1.407 . S
C977 C976 1.384 . S
C977 H999 0.929 . S
C978 O988 1.241 . S
C978 O989 1.273 . S
C979 O990 1.251 . S
C979 O991 1.268 . S
O980 Nd960 2.500 . S
O980 C962 1.258 . S
O981 Nd960 2.492 . S
O981 C962 1.239 . S
O982 Nd960 2.487 . S
O982 C969 1.241 . S
O983 Nd960 2.682 . S
O983 Nd961 2.414 . S
O983 C969 1.273 . S
O984 Nd960 2.410 . S
O984 C970 1.251 . S
O985 Nd961 2.424 . S
O985 C970 1.268 . S
O986 Nd961 2.500 . S
O986 C971 1.258 . S
O987 Nd961 2.492 . S
O987 C971 1.239 . S
O988 Nd961 2.487 . S
O988 C978 1.241 . S
O989 Nd960 2.414 . S
O989 Nd961 2.682 . S
O989 C978 1.273 . S
O990 Nd961 2.410 . S
O990 C979 1.251 . S
O991 Nd960 2.424 . S
O991 C979 1.268 . S
H992 C964 0.930 . S
H993 C965 0.929 . S
H994 C967 0.930 . S
H995 C968 0.929 . S
H996 C973 0.930 . S
H997 C974 0.929 . S
H998 C976 0.930 . S
H999 C977 0.929 . S
Nd1000 C1002 2.836 . S
Nd1000 O1020 2.500 . S
Nd1000 O1021 2.492 . S
Nd1000 O1022 2.487 . S
Nd1000 O1023 2.682 . S
Nd1000 O1024 2.410 . S
Nd1000 O1029 2.414 . S
Nd1000 O1031 2.424 . S
Nd1001 C1011 2.836 . S
Nd1001 O1023 2.414 . S
Nd1001 O1025 2.424 . S
Nd1001 O1026 2.500 . S
Nd1001 O1027 2.492 . S
Nd1001 O1028 2.487 . S
Nd1001 O1029 2.682 . S
Nd1001 O1030 2.410 . S
C1002 Nd1000 2.836 . S
C1002 C1003 1.498 . S
C1002 O1020 1.258 . S
C1002 O1021 1.239 . S
C1003 C1002 1.498 . S
C1003 C1004 1.366 . S
C1003 C1008 1.407 . S
C1004 C1003 1.366 . S
C1004 C1005 1.392 . S
C1004 H1032 0.930 . S
C1005 C1004 1.392 . S
C1005 C1006 1.398 . S
C1005 H1033 0.929 . S
C1006 C1005 1.398 . S
C1006 C1007 1.352 . S
C1007 C1006 1.352 . S
C1007 C1008 1.384 . S
C1007 H1034 0.930 . S
C1008 C1003 1.407 . S
C1008 C1007 1.384 . S
C1008 H1035 0.929 . S
C1009 O1022 1.241 . S
C1009 O1023 1.273 . S
C1010 O1024 1.251 . S
C1010 O1025 1.268 . S
C1011 Nd1001 2.836 . S
C1011 C1012 1.498 . S
C1011 O1026 1.258 . S
C1011 O1027 1.239 . S
C1012 C1011 1.498 . S
C1012 C1013 1.366 . S
C1012 C1017 1.407 . S
C1013 C1012 1.366 . S
C1013 C1014 1.392 . S
C1013 H1036 0.930 . S
C1014 C1013 1.392 . S
C1014 C1015 1.398 . S
C1014 H1037 0.929 . S
C1015 C1014 1.398 . S
C1015 C1016 1.352 . S
C1016 C1015 1.352 . S
C1016 C1017 1.384 . S
C1016 H1038 0.930 . S
C1017 C1012 1.407 . S
C1017 C1016 1.384 . S
C1017 H1039 0.929 . S
C1018 O1028 1.241 . S
C1018 O1029 1.273 . S
C1019 O1030 1.251 . S
C1019 O1031 1.268 . S
O1020 Nd1000 2.500 . S
O1020 C1002 1.258 . S
O1021 Nd1000 2.492 . S
O1021 C1002 1.239 . S
O1022 Nd1000 2.487 . S
O1022 C1009 1.241 . S
O1023 Nd1000 2.682 . S
O1023 Nd1001 2.414 . S
O1023 C1009 1.273 . S
O1024 Nd1000 2.410 . S
O1024 C1010 1.251 . S
O1025 Nd1001 2.424 . S
O1025 C1010 1.268 . S
O1026 Nd1001 2.500 . S
O1026 C1011 1.258 . S
O1027 Nd1001 2.492 . S
O1027 C1011 1.239 . S
O1028 Nd1001 2.487 . S
O1028 C1018 1.241 . S
O1029 Nd1000 2.414 . S
O1029 Nd1001 2.682 . S
O1029 C1018 1.273 . S
O1030 Nd1001 2.410 . S
O1030 C1019 1.251 . S
O1031 Nd1000 2.424 . S
O1031 C1019 1.268 . S
H1032 C1004 0.930 . S
H1033 C1005 0.929 . S
H1034 C1007 0.930 . S
H1035 C1008 0.929 . S
H1036 C1013 0.930 . S
H1037 C1014 0.929 . S
H1038 C1016 0.930 . S
H1039 C1017 0.929 . S
Nd1040 C1042 2.836 . S
Nd1040 O1060 2.500 . S
Nd1040 O1061 2.492 . S
Nd1040 O1062 2.487 . S
Nd1040 O1063 2.682 . S
Nd1040 O1064 2.410 . S
Nd1040 O1069 2.414 . S
Nd1040 O1071 2.424 . S
Nd1041 C1051 2.836 . S
Nd1041 O1063 2.414 . S
Nd1041 O1065 2.424 . S
Nd1041 O1066 2.500 . S
Nd1041 O1067 2.492 . S
Nd1041 O1068 2.487 . S
Nd1041 O1069 2.682 . S
Nd1041 O1070 2.410 . S
C1042 Nd1040 2.836 . S
C1042 C1043 1.498 . S
C1042 O1060 1.258 . S
C1042 O1061 1.239 . S
C1043 C1042 1.498 . S
C1043 C1044 1.366 . S
C1043 C1048 1.407 . S
C1044 C1043 1.366 . S
C1044 C1045 1.392 . S
C1044 H1072 0.930 . S
C1045 C1044 1.392 . S
C1045 C1046 1.398 . S
C1045 H1073 0.929 . S
C1046 C1045 1.398 . S
C1046 C1047 1.352 . S
C1047 C1046 1.352 . S
C1047 C1048 1.384 . S
C1047 H1074 0.930 . S
C1048 C1043 1.407 . S
C1048 C1047 1.384 . S
C1048 H1075 0.929 . S
C1049 O1062 1.241 . S
C1049 O1063 1.273 . S
C1050 O1064 1.251 . S
C1050 O1065 1.268 . S
C1051 Nd1041 2.836 . S
C1051 C1052 1.498 . S
C1051 O1066 1.258 . S
C1051 O1067 1.239 . S
C1052 C1051 1.498 . S
C1052 C1053 1.366 . S
C1052 C1057 1.407 . S
C1053 C1052 1.366 . S
C1053 C1054 1.392 . S
C1053 H1076 0.930 . S
C1054 C1053 1.392 . S
C1054 C1055 1.398 . S
C1054 H1077 0.929 . S
C1055 C1054 1.398 . S
C1055 C1056 1.352 . S
C1056 C1055 1.352 . S
C1056 C1057 1.384 . S
C1056 H1078 0.930 . S
C1057 C1052 1.407 . S
C1057 C1056 1.384 . S
C1057 H1079 0.929 . S
C1058 O1068 1.241 . S
C1058 O1069 1.273 . S
C1059 O1070 1.251 . S
C1059 O1071 1.268 . S
O1060 Nd1040 2.500 . S
O1060 C1042 1.258 . S
O1061 Nd1040 2.492 . S
O1061 C1042 1.239 . S
O1062 Nd1040 2.487 . S
O1062 C1049 1.241 . S
O1063 Nd1040 2.682 . S
O1063 Nd1041 2.414 . S
O1063 C1049 1.273 . S
O1064 Nd1040 2.410 . S
O1064 C1050 1.251 . S
O1065 Nd1041 2.424 . S
O1065 C1050 1.268 . S
O1066 Nd1041 2.500 . S
O1066 C1051 1.258 . S
O1067 Nd1041 2.492 . S
O1067 C1051 1.239 . S
O1068 Nd1041 2.487 . S
O1068 C1058 1.241 . S
O1069 Nd1040 2.414 . S
O1069 Nd1041 2.682 . S
O1069 C1058 1.273 . S
O1070 Nd1041 2.410 . S
O1070 C1059 1.251 . S
O1071 Nd1040 2.424 . S
O1071 C1059 1.268 . S
H1072 C1044 0.930 . S
H1073 C1045 0.929 . S
H1074 C1047 0.930 . S
H1075 C1048 0.929 . S
H1076 C1053 0.930 . S
H1077 C1054 0.929 . S
H1078 C1056 0.930 . S
H1079 C1057 0.929 . S
Nd1080 C1082 2.836 . S
Nd1080 O1100 2.500 . S
Nd1080 O1101 2.492 . S
Nd1080 O1102 2.487 . S
Nd1080 O1103 2.682 . S
Nd1080 O1104 2.410 . S
Nd1080 O1109 2.414 . S
Nd1080 O1111 2.424 . S
Nd1081 C1091 2.836 . S
Nd1081 O1103 2.414 . S
Nd1081 O1105 2.424 . S
Nd1081 O1106 2.500 . S
Nd1081 O1107 2.492 . S
Nd1081 O1108 2.487 . S
Nd1081 O1109 2.682 . S
Nd1081 O1110 2.410 . S
C1082 Nd1080 2.836 . S
C1082 C1083 1.498 . S
C1082 O1100 1.258 . S
C1082 O1101 1.239 . S
C1083 C1082 1.498 . S
C1083 C1084 1.366 . S
C1083 C1088 1.407 . S
C1084 C1083 1.366 . S
C1084 C1085 1.392 . S
C1084 H1112 0.930 . S
C1085 C1084 1.392 . S
C1085 C1086 1.398 . S
C1085 H1113 0.929 . S
C1086 C1085 1.398 . S
C1086 C1087 1.352 . S
C1087 C1086 1.352 . S
C1087 C1088 1.384 . S
C1087 H1114 0.930 . S
C1088 C1083 1.407 . S
C1088 C1087 1.384 . S
C1088 H1115 0.929 . S
C1089 O1102 1.241 . S
C1089 O1103 1.273 . S
C1090 O1104 1.251 . S
C1090 O1105 1.268 . S
C1091 Nd1081 2.836 . S
C1091 C1092 1.498 . S
C1091 O1106 1.258 . S
C1091 O1107 1.239 . S
C1092 C1091 1.498 . S
C1092 C1093 1.366 . S
C1092 C1097 1.407 . S
C1093 C1092 1.366 . S
C1093 C1094 1.392 . S
C1093 H1116 0.930 . S
C1094 C1093 1.392 . S
C1094 C1095 1.398 . S
C1094 H1117 0.929 . S
C1095 C1094 1.398 . S
C1095 C1096 1.352 . S
C1096 C1095 1.352 . S
C1096 C1097 1.384 . S
C1096 H1118 0.930 . S
C1097 C1092 1.407 . S
C1097 C1096 1.384 . S
C1097 H1119 0.929 . S
C1098 O1108 1.241 . S
C1098 O1109 1.273 . S
C1099 O1110 1.251 . S
C1099 O1111 1.268 . S
O1100 Nd1080 2.500 . S
O1100 C1082 1.258 . S
O1101 Nd1080 2.492 . S
O1101 C1082 1.239 . S
O1102 Nd1080 2.487 . S
O1102 C1089 1.241 . S
O1103 Nd1080 2.682 . S
O1103 Nd1081 2.414 . S
O1103 C1089 1.273 . S
O1104 Nd1080 2.410 . S
O1104 C1090 1.251 . S
O1105 Nd1081 2.424 . S
O1105 C1090 1.268 . S
O1106 Nd1081 2.500 . S
O1106 C1091 1.258 . S
O1107 Nd1081 2.492 . S
O1107 C1091 1.239 . S
O1108 Nd1081 2.487 . S
O1108 C1098 1.241 . S
O1109 Nd1080 2.414 . S
O1109 Nd1081 2.682 . S
O1109 C1098 1.273 . S
O1110 Nd1081 2.410 . S
O1110 C1099 1.251 . S
O1111 Nd1080 2.424 . S
O1111 C1099 1.268 . S
H1112 C1084 0.930 . S
H1113 C1085 0.929 . S
H1114 C1087 0.930 . S
H1115 C1088 0.929 . S
H1116 C1093 0.930 . S
H1117 C1094 0.929 . S
H1118 C1096 0.930 . S
H1119 C1097 0.929 . S
Nd1120 C1122 2.836 . S
Nd1120 O1140 2.500 . S
Nd1120 O1141 2.492 . S
Nd1120 O1142 2.487 . S
Nd1120 O1143 2.682 . S
Nd1120 O1144 2.410 . S
Nd1120 O1149 2.414 . S
Nd1120 O1151 2.424 . S
Nd1121 C1131 2.836 . S
Nd1121 O1143 2.414 . S
Nd1121 O1145 2.424 . S
Nd1121 O1146 2.500 . S
Nd1121 O1147 2.492 . S
Nd1121 O1148 2.487 . S
Nd1121 O1149 2.682 . S
Nd1121 O1150 2.410 . S
C1122 Nd1120 2.836 . S
C1122 C1123 1.498 . S
C1122 O1140 1.258 . S
C1122 O1141 1.239 . S
C1123 C1122 1.498 . S
C1123 C1124 1.366 . S
C1123 C1128 1.407 . S
C1124 C1123 1.366 . S
C1124 C1125 1.392 . S
C1124 H1152 0.930 . S
C1125 C1124 1.392 . S
C1125 C1126 1.398 . S
C1125 H1153 0.929 . S
C1126 C1125 1.398 . S
C1126 C1127 1.352 . S
C1127 C1126 1.352 . S
C1127 C1128 1.384 . S
C1127 H1154 0.930 . S
C1128 C1123 1.407 . S
C1128 C1127 1.384 . S
C1128 H1155 0.929 . S
C1129 O1142 1.241 . S
C1129 O1143 1.273 . S
C1130 O1144 1.251 . S
C1130 O1145 1.268 . S
C1131 Nd1121 2.836 . S
C1131 C1132 1.498 . S
C1131 O1146 1.258 . S
C1131 O1147 1.239 . S
C1132 C1131 1.498 . S
C1132 C1133 1.366 . S
C1132 C1137 1.407 . S
C1133 C1132 1.366 . S
C1133 C1134 1.392 . S
C1133 H1156 0.930 . S
C1134 C1133 1.392 . S
C1134 C1135 1.398 . S
C1134 H1157 0.929 . S
C1135 C1134 1.398 . S
C1135 C1136 1.352 . S
C1136 C1135 1.352 . S
C1136 C1137 1.384 . S
C1136 H1158 0.930 . S
C1137 C1132 1.407 . S
C1137 C1136 1.384 . S
C1137 H1159 0.929 . S
C1138 O1148 1.241 . S
C1138 O1149 1.273 . S
C1139 O1150 1.251 . S
C1139 O1151 1.268 . S
O1140 Nd1120 2.500 . S
O1140 C1122 1.258 . S
O1141 Nd1120 2.492 . S
O1141 C1122 1.239 . S
O1142 Nd1120 2.487 . S
O1142 C1129 1.241 . S
O1143 Nd1120 2.682 . S
O1143 Nd1121 2.414 . S
O1143 C1129 1.273 . S
O1144 Nd1120 2.410 . S
O1144 C1130 1.251 . S
O1145 Nd1121 2.424 . S
O1145 C1130 1.268 . S
O1146 Nd1121 2.500 . S
O1146 C1131 1.258 . S
O1147 Nd1121 2.492 . S
O1147 C1131 1.239 . S
O1148 Nd1121 2.487 . S
O1148 C1138 1.241 . S
O1149 Nd1120 2.414 . S
O1149 Nd1121 2.682 . S
O1149 C1138 1.273 . S
O1150 Nd1121 2.410 . S
O1150 C1139 1.251 . S
O1151 Nd1120 2.424 . S
O1151 C1139 1.268 . S
H1152 C1124 0.930 . S
H1153 C1125 0.929 . S
H1154 C1127 0.930 . S
H1155 C1128 0.929 . S
H1156 C1133 0.930 . S
H1157 C1134 0.929 . S
H1158 C1136 0.930 . S
H1159 C1137 0.929 . S
Nd1160 C1162 2.836 . S
Nd1160 O1180 2.500 . S
Nd1160 O1181 2.492 . S
Nd1160 O1182 2.487 . S
Nd1160 O1183 2.682 . S
Nd1160 O1184 2.410 . S
Nd1160 O1189 2.414 . S
Nd1160 O1191 2.424 . S
Nd1161 C1171 2.836 . S
Nd1161 O1183 2.414 . S
Nd1161 O1185 2.424 . S
Nd1161 O1186 2.500 . S
Nd1161 O1187 2.492 . S
Nd1161 O1188 2.487 . S
Nd1161 O1189 2.682 . S
Nd1161 O1190 2.410 . S
C1162 Nd1160 2.836 . S
C1162 C1163 1.498 . S
C1162 O1180 1.258 . S
C1162 O1181 1.239 . S
C1163 C1162 1.498 . S
C1163 C1164 1.366 . S
C1163 C1168 1.407 . S
C1164 C1163 1.366 . S
C1164 C1165 1.392 . S
C1164 H1192 0.930 . S
C1165 C1164 1.392 . S
C1165 C1166 1.398 . S
C1165 H1193 0.929 . S
C1166 C1165 1.398 . S
C1166 C1167 1.352 . S
C1167 C1166 1.352 . S
C1167 C1168 1.384 . S
C1167 H1194 0.930 . S
C1168 C1163 1.407 . S
C1168 C1167 1.384 . S
C1168 H1195 0.929 . S
C1169 O1182 1.241 . S
C1169 O1183 1.273 . S
C1170 O1184 1.251 . S
C1170 O1185 1.268 . S
C1171 Nd1161 2.836 . S
C1171 C1172 1.498 . S
C1171 O1186 1.258 . S
C1171 O1187 1.239 . S
C1172 C1171 1.498 . S
C1172 C1173 1.366 . S
C1172 C1177 1.407 . S
C1173 C1172 1.366 . S
C1173 C1174 1.392 . S
C1173 H1196 0.930 . S
C1174 C1173 1.392 . S
C1174 C1175 1.398 . S
C1174 H1197 0.929 . S
C1175 C1174 1.398 . S
C1175 C1176 1.352 . S
C1176 C1175 1.352 . S
C1176 C1177 1.384 . S
C1176 H1198 0.930 . S
C1177 C1172 1.407 . S
C1177 C1176 1.384 . S
C1177 H1199 0.929 . S
C1178 O1188 1.241 . S
C1178 O1189 1.273 . S
C1179 O1190 1.251 . S
C1179 O1191 1.268 . S
O1180 Nd1160 2.500 . S
O1180 C1162 1.258 . S
O1181 Nd1160 2.492 . S
O1181 C1162 1.239 . S
O1182 Nd1160 2.487 . S
O1182 C1169 1.241 . S
O1183 Nd1160 2.682 . S
O1183 Nd1161 2.414 . S
O1183 C1169 1.273 . S
O1184 Nd1160 2.410 . S
O1184 C1170 1.251 . S
O1185 Nd1161 2.424 . S
O1185 C1170 1.268 . S
O1186 Nd1161 2.500 . S
O1186 C1171 1.258 . S
O1187 Nd1161 2.492 . S
O1187 C1171 1.239 . S
O1188 Nd1161 2.487 . S
O1188 C1178 1.241 . S
O1189 Nd1160 2.414 . S
O1189 Nd1161 2.682 . S
O1189 C1178 1.273 . S
O1190 Nd1161 2.410 . S
O1190 C1179 1.251 . S
O1191 Nd1160 2.424 . S
O1191 C1179 1.268 . S
H1192 C1164 0.930 . S
H1193 C1165 0.929 . S
H1194 C1167 0.930 . S
H1195 C1168 0.929 . S
H1196 C1173 0.930 . S
H1197 C1174 0.929 . S
H1198 C1176 0.930 . S
H1199 C1177 0.929 . S
Nd1200 C1202 2.836 . S
Nd1200 O1220 2.500 . S
Nd1200 O1221 2.492 . S
Nd1200 O1222 2.487 . S
Nd1200 O1223 2.682 . S
Nd1200 O1224 2.410 . S
Nd1200 O1229 2.414 . S
Nd1200 O1231 2.424 . S
Nd1201 C1211 2.836 . S
Nd1201 O1223 2.414 . S
Nd1201 O1225 2.424 . S
Nd1201 O1226 2.500 . S
Nd1201 O1227 2.492 . S
Nd1201 O1228 2.487 . S
Nd1201 O1229 2.682 . S
Nd1201 O1230 2.410 . S
C1202 Nd1200 2.836 . S
C1202 C1203 1.498 . S
C1202 O1220 1.258 . S
C1202 O1221 1.239 . S
C1203 C1202 1.498 . S
C1203 C1204 1.366 . S
C1203 C1208 1.407 . S
C1204 C1203 1.366 . S
C1204 C1205 1.392 1_556 S
C1204 H1232 0.930 . S
C1205 C1204 1.392 1_554 S
C1205 C1206 1.398 . S
C1205 H1233 0.929 . S
C1206 C1205 1.398 . S
C1206 C1207 1.352 . S
C1207 C1206 1.352 . S
C1207 C1208 1.384 1_554 S
C1207 H1234 0.930 . S
C1208 C1203 1.407 . S
C1208 C1207 1.384 1_556 S
C1208 H1235 0.929 . S
C1209 O1222 1.241 . S
C1209 O1223 1.273 . S
C1210 O1224 1.251 . S
C1210 O1225 1.268 . S
C1211 Nd1201 2.836 . S
C1211 C1212 1.498 . S
C1211 O1226 1.258 . S
C1211 O1227 1.239 . S
C1212 C1211 1.498 . S
C1212 C1213 1.366 . S
C1212 C1217 1.407 . S
C1213 C1212 1.366 . S
C1213 C1214 1.392 . S
C1213 H1236 0.930 . S
C1214 C1213 1.392 . S
C1214 C1215 1.398 . S
C1214 H1237 0.929 . S
C1215 C1214 1.398 . S
C1215 C1216 1.352 . S
C1216 C1215 1.352 . S
C1216 C1217 1.384 . S
C1216 H1238 0.930 . S
C1217 C1212 1.407 . S
C1217 C1216 1.384 . S
C1217 H1239 0.929 . S
C1218 O1228 1.241 . S
C1218 O1229 1.273 . S
C1219 O1230 1.251 . S
C1219 O1231 1.268 . S
O1220 Nd1200 2.500 . S
O1220 C1202 1.258 . S
O1221 Nd1200 2.492 . S
O1221 C1202 1.239 . S
O1222 Nd1200 2.487 . S
O1222 C1209 1.241 . S
O1223 Nd1200 2.682 . S
O1223 Nd1201 2.414 . S
O1223 C1209 1.273 . S
O1224 Nd1200 2.410 . S
O1224 C1210 1.251 . S
O1225 Nd1201 2.424 . S
O1225 C1210 1.268 . S
O1226 Nd1201 2.500 . S
O1226 C1211 1.258 . S
O1227 Nd1201 2.492 . S
O1227 C1211 1.239 . S
O1228 Nd1201 2.487 . S
O1228 C1218 1.241 . S
O1229 Nd1200 2.414 . S
O1229 Nd1201 2.682 . S
O1229 C1218 1.273 . S
O1230 Nd1201 2.410 . S
O1230 C1219 1.251 . S
O1231 Nd1200 2.424 . S
O1231 C1219 1.268 . S
H1232 C1204 0.930 . S
H1233 C1205 0.929 . S
H1234 C1207 0.930 . S
H1235 C1208 0.929 . S
H1236 C1213 0.930 . S
H1237 C1214 0.929 . S
H1238 C1216 0.930 . S
H1239 C1217 0.929 . S
Nd1240 C1242 2.836 . S
Nd1240 O1260 2.500 . S
Nd1240 O1261 2.492 . S
Nd1240 O1262 2.487 . S
Nd1240 O1263 2.682 . S
Nd1240 O1264 2.410 . S
Nd1240 O1269 2.414 . S
Nd1240 O1271 2.424 . S
Nd1241 C1251 2.836 . S
Nd1241 O1263 2.414 . S
Nd1241 O1265 2.424 . S
Nd1241 O1266 2.500 . S
Nd1241 O1267 2.492 . S
Nd1241 O1268 2.487 . S
Nd1241 O1269 2.682 . S
Nd1241 O1270 2.410 . S
C1242 Nd1240 2.836 . S
C1242 C1243 1.498 . S
C1242 O1260 1.258 . S
C1242 O1261 1.239 . S
C1243 C1242 1.498 . S
C1243 C1244 1.366 . S
C1243 C1248 1.407 . S
C1244 C1243 1.366 . S
C1244 C1245 1.392 1_556 S
C1244 H1272 0.930 . S
C1245 C1244 1.392 1_554 S
C1245 C1246 1.398 . S
C1245 H1273 0.929 . S
C1246 C1245 1.398 . S
C1246 C1247 1.352 . S
C1247 C1246 1.352 . S
C1247 C1248 1.384 1_554 S
C1247 H1274 0.930 . S
C1248 C1243 1.407 . S
C1248 C1247 1.384 1_556 S
C1248 H1275 0.929 . S
C1249 O1262 1.241 . S
C1249 O1263 1.273 . S
C1250 O1264 1.251 . S
C1250 O1265 1.268 . S
C1251 Nd1241 2.836 . S
C1251 C1252 1.498 . S
C1251 O1266 1.258 . S
C1251 O1267 1.239 . S
C1252 C1251 1.498 . S
C1252 C1253 1.366 . S
C1252 C1257 1.407 . S
C1253 C1252 1.366 . S
C1253 C1254 1.392 . S
C1253 H1276 0.930 . S
C1254 C1253 1.392 . S
C1254 C1255 1.398 . S
C1254 H1277 0.929 . S
C1255 C1254 1.398 . S
C1255 C1256 1.352 . S
C1256 C1255 1.352 . S
C1256 C1257 1.384 . S
C1256 H1278 0.930 . S
C1257 C1252 1.407 . S
C1257 C1256 1.384 . S
C1257 H1279 0.929 . S
C1258 O1268 1.241 . S
C1258 O1269 1.273 . S
C1259 O1270 1.251 . S
C1259 O1271 1.268 . S
O1260 Nd1240 2.500 . S
O1260 C1242 1.258 . S
O1261 Nd1240 2.492 . S
O1261 C1242 1.239 . S
O1262 Nd1240 2.487 . S
O1262 C1249 1.241 . S
O1263 Nd1240 2.682 . S
O1263 Nd1241 2.414 . S
O1263 C1249 1.273 . S
O1264 Nd1240 2.410 . S
O1264 C1250 1.251 . S
O1265 Nd1241 2.424 . S
O1265 C1250 1.268 . S
O1266 Nd1241 2.500 . S
O1266 C1251 1.258 . S
O1267 Nd1241 2.492 . S
O1267 C1251 1.239 . S
O1268 Nd1241 2.487 . S
O1268 C1258 1.241 . S
O1269 Nd1240 2.414 . S
O1269 Nd1241 2.682 . S
O1269 C1258 1.273 . S
O1270 Nd1241 2.410 . S
O1270 C1259 1.251 . S
O1271 Nd1240 2.424 . S
O1271 C1259 1.268 . S
H1272 C1244 0.930 . S
H1273 C1245 0.929 . S
H1274 C1247 0.930 . S
H1275 C1248 0.929 . S
H1276 C1253 0.930 . S
H1277 C1254 0.929 . S
H1278 C1256 0.930 . S
H1279 C1257 0.929 . S
Nd1280 C1282 2.836 . S
Nd1280 O1300 2.500 . S
Nd1280 O1301 2.492 . S
Nd1280 O1302 2.487 . S
Nd1280 O1303 2.682 . S
Nd1280 O1304 2.410 . S
Nd1280 O1309 2.414 . S
Nd1280 O1311 2.424 . S
Nd1281 C1291 2.836 . S
Nd1281 O1303 2.414 . S
Nd1281 O1305 2.424 . S
Nd1281 O1306 2.500 . S
Nd1281 O1307 2.492 . S
Nd1281 O1308 2.487 . S
Nd1281 O1309 2.682 . S
Nd1281 O1310 2.410 . S
C1282 Nd1280 2.836 . S
C1282 C1283 1.498 . S
C1282 O1300 1.258 . S
C1282 O1301 1.239 . S
C1283 C1282 1.498 . S
C1283 C1284 1.366 . S
C1283 C1288 1.407 . S
C1284 C1283 1.366 . S
C1284 C1285 1.392 1_556 S
C1284 H1312 0.930 . S
C1285 C1284 1.392 1_554 S
C1285 C1286 1.398 . S
C1285 H1313 0.929 . S
C1286 C1285 1.398 . S
C1286 C1287 1.352 . S
C1287 C1286 1.352 . S
C1287 C1288 1.384 1_554 S
C1287 H1314 0.930 . S
C1288 C1283 1.407 . S
C1288 C1287 1.384 1_556 S
C1288 H1315 0.929 . S
C1289 O1302 1.241 . S
C1289 O1303 1.273 . S
C1290 O1304 1.251 . S
C1290 O1305 1.268 . S
C1291 Nd1281 2.836 . S
C1291 C1292 1.498 . S
C1291 O1306 1.258 . S
C1291 O1307 1.239 . S
C1292 C1291 1.498 . S
C1292 C1293 1.366 . S
C1292 C1297 1.407 . S
C1293 C1292 1.366 . S
C1293 C1294 1.392 . S
C1293 H1316 0.930 . S
C1294 C1293 1.392 . S
C1294 C1295 1.398 . S
C1294 H1317 0.929 . S
C1295 C1294 1.398 . S
C1295 C1296 1.352 . S
C1296 C1295 1.352 . S
C1296 C1297 1.384 . S
C1296 H1318 0.930 . S
C1297 C1292 1.407 . S
C1297 C1296 1.384 . S
C1297 H1319 0.929 . S
C1298 O1308 1.241 . S
C1298 O1309 1.273 . S
C1299 O1310 1.251 . S
C1299 O1311 1.268 . S
O1300 Nd1280 2.500 . S
O1300 C1282 1.258 . S
O1301 Nd1280 2.492 . S
O1301 C1282 1.239 . S
O1302 Nd1280 2.487 . S
O1302 C1289 1.241 . S
O1303 Nd1280 2.682 . S
O1303 Nd1281 2.414 . S
O1303 C1289 1.273 . S
O1304 Nd1280 2.410 . S
O1304 C1290 1.251 . S
O1305 Nd1281 2.424 . S
O1305 C1290 1.268 . S
O1306 Nd1281 2.500 . S
O1306 C1291 1.258 . S
O1307 Nd1281 2.492 . S
O1307 C1291 1.239 . S
O1308 Nd1281 2.487 . S
O1308 C1298 1.241 . S
O1309 Nd1280 2.414 . S
O1309 Nd1281 2.682 . S
O1309 C1298 1.273 . S
O1310 Nd1281 2.410 . S
O1310 C1299 1.251 . S
O1311 Nd1280 2.424 . S
O1311 C1299 1.268 . S
H1312 C1284 0.930 . S
H1313 C1285 0.929 . S
H1314 C1287 0.930 . S
H1315 C1288 0.929 . S
H1316 C1293 0.930 . S
H1317 C1294 0.929 . S
H1318 C1296 0.930 . S
H1319 C1297 0.929 . S
Nd1320 C1322 2.836 . S
Nd1320 O1340 2.500 . S
Nd1320 O1341 2.492 . S
Nd1320 O1342 2.487 . S
Nd1320 O1343 2.682 . S
Nd1320 O1344 2.410 . S
Nd1320 O1349 2.414 . S
Nd1320 O1351 2.424 . S
Nd1321 C1331 2.836 . S
Nd1321 O1343 2.414 . S
Nd1321 O1345 2.424 . S
Nd1321 O1346 2.500 . S
Nd1321 O1347 2.492 . S
Nd1321 O1348 2.487 . S
Nd1321 O1349 2.682 . S
Nd1321 O1350 2.410 . S
C1322 Nd1320 2.836 . S
C1322 C1323 1.498 . S
C1322 O1340 1.258 . S
C1322 O1341 1.239 . S
C1323 C1322 1.498 . S
C1323 C1324 1.366 1_554 S
C1323 C1328 1.407 . S
C1324 C1323 1.366 1_556 S
C1324 C1325 1.392 . S
C1324 H1352 0.930 1_556 S
C1325 C1324 1.392 . S
C1325 C1326 1.398 . S
C1325 H1353 0.929 . S
C1326 C1325 1.398 . S
C1326 C1327 1.352 . S
C1327 C1326 1.352 . S
C1327 C1328 1.384 1_556 S
C1327 H1354 0.930 . S
C1328 C1323 1.407 . S
C1328 C1327 1.384 1_554 S
C1328 H1355 0.929 . S
C1329 O1342 1.241 . S
C1329 O1343 1.273 . S
C1330 O1344 1.251 . S
C1330 O1345 1.268 . S
C1331 Nd1321 2.836 . S
C1331 C1332 1.498 . S
C1331 O1346 1.258 . S
C1331 O1347 1.239 . S
C1332 C1331 1.498 . S
C1332 C1333 1.366 . S
C1332 C1337 1.407 . S
C1333 C1332 1.366 . S
C1333 C1334 1.392 . S
C1333 H1356 0.930 . S
C1334 C1333 1.392 . S
C1334 C1335 1.398 . S
C1334 H1357 0.929 . S
C1335 C1334 1.398 . S
C1335 C1336 1.352 . S
C1336 C1335 1.352 . S
C1336 C1337 1.384 . S
C1336 H1358 0.930 . S
C1337 C1332 1.407 . S
C1337 C1336 1.384 . S
C1337 H1359 0.929 . S
C1338 O1348 1.241 . S
C1338 O1349 1.273 . S
C1339 O1350 1.251 . S
C1339 O1351 1.268 . S
O1340 Nd1320 2.500 . S
O1340 C1322 1.258 . S
O1341 Nd1320 2.492 . S
O1341 C1322 1.239 . S
O1342 Nd1320 2.487 . S
O1342 C1329 1.241 . S
O1343 Nd1320 2.682 . S
O1343 Nd1321 2.414 . S
O1343 C1329 1.273 . S
O1344 Nd1320 2.410 . S
O1344 C1330 1.251 . S
O1345 Nd1321 2.424 . S
O1345 C1330 1.268 . S
O1346 Nd1321 2.500 . S
O1346 C1331 1.258 . S
O1347 Nd1321 2.492 . S
O1347 C1331 1.239 . S
O1348 Nd1321 2.487 . S
O1348 C1338 1.241 . S
O1349 Nd1320 2.414 . S
O1349 Nd1321 2.682 . S
O1349 C1338 1.273 . S
O1350 Nd1321 2.410 . S
O1350 C1339 1.251 . S
O1351 Nd1320 2.424 . S
O1351 C1339 1.268 . S
H1352 C1324 0.930 1_554 S
H1353 C1325 0.929 . S
H1354 C1327 0.930 . S
H1355 C1328 0.929 . S
H1356 C1333 0.930 . S
H1357 C1334 0.929 . S
H1358 C1336 0.930 . S
H1359 C1337 0.929 . S
Nd1360 C1362 2.836 . S
Nd1360 O1380 2.500 . S
Nd1360 O1381 2.492 . S
Nd1360 O1382 2.487 . S
Nd1360 O1383 2.682 . S
Nd1360 O1384 2.410 . S
Nd1360 O1389 2.414 . S
Nd1360 O1391 2.424 . S
Nd1361 C1371 2.836 . S
Nd1361 O1383 2.414 . S
Nd1361 O1385 2.424 . S
Nd1361 O1386 2.500 . S
Nd1361 O1387 2.492 . S
Nd1361 O1388 2.487 . S
Nd1361 O1389 2.682 . S
Nd1361 O1390 2.410 . S
C1362 Nd1360 2.836 . S
C1362 C1363 1.498 . S
C1362 O1380 1.258 . S
C1362 O1381 1.239 . S
C1363 C1362 1.498 . S
C1363 C1364 1.366 1_554 S
C1363 C1368 1.407 . S
C1364 C1363 1.366 1_556 S
C1364 C1365 1.392 . S
C1364 H1392 0.930 1_556 S
C1365 C1364 1.392 . S
C1365 C1366 1.398 . S
C1365 H1393 0.929 . S
C1366 C1365 1.398 . S
C1366 C1367 1.352 . S
C1367 C1366 1.352 . S
C1367 C1368 1.384 1_556 S
C1367 H1394 0.930 . S
C1368 C1363 1.407 . S
C1368 C1367 1.384 1_554 S
C1368 H1395 0.929 . S
C1369 O1382 1.241 . S
C1369 O1383 1.273 . S
C1370 O1384 1.251 . S
C1370 O1385 1.268 . S
C1371 Nd1361 2.836 . S
C1371 C1372 1.498 . S
C1371 O1386 1.258 . S
C1371 O1387 1.239 . S
C1372 C1371 1.498 . S
C1372 C1373 1.366 . S
C1372 C1377 1.407 . S
C1373 C1372 1.366 . S
C1373 C1374 1.392 . S
C1373 H1396 0.930 . S
C1374 C1373 1.392 . S
C1374 C1375 1.398 . S
C1374 H1397 0.929 . S
C1375 C1374 1.398 . S
C1375 C1376 1.352 . S
C1376 C1375 1.352 . S
C1376 C1377 1.384 . S
C1376 H1398 0.930 . S
C1377 C1372 1.407 . S
C1377 C1376 1.384 . S
C1377 H1399 0.929 . S
C1378 O1388 1.241 . S
C1378 O1389 1.273 . S
C1379 O1390 1.251 . S
C1379 O1391 1.268 . S
O1380 Nd1360 2.500 . S
O1380 C1362 1.258 . S
O1381 Nd1360 2.492 . S
O1381 C1362 1.239 . S
O1382 Nd1360 2.487 . S
O1382 C1369 1.241 . S
O1383 Nd1360 2.682 . S
O1383 Nd1361 2.414 . S
O1383 C1369 1.273 . S
O1384 Nd1360 2.410 . S
O1384 C1370 1.251 . S
O1385 Nd1361 2.424 . S
O1385 C1370 1.268 . S
O1386 Nd1361 2.500 . S
O1386 C1371 1.258 . S
O1387 Nd1361 2.492 . S
O1387 C1371 1.239 . S
O1388 Nd1361 2.487 . S
O1388 C1378 1.241 . S
O1389 Nd1360 2.414 . S
O1389 Nd1361 2.682 . S
O1389 C1378 1.273 . S
O1390 Nd1361 2.410 . S
O1390 C1379 1.251 . S
O1391 Nd1360 2.424 . S
O1391 C1379 1.268 . S
H1392 C1364 0.930 1_554 S
H1393 C1365 0.929 . S
H1394 C1367 0.930 . S
H1395 C1368 0.929 . S
H1396 C1373 0.930 . S
H1397 C1374 0.929 . S
H1398 C1376 0.930 . S
H1399 C1377 0.929 . S
Nd1400 C1402 2.836 . S
Nd1400 O1420 2.500 . S
Nd1400 O1421 2.492 . S
Nd1400 O1422 2.487 . S
Nd1400 O1423 2.682 . S
Nd1400 O1424 2.410 . S
Nd1400 O1429 2.414 . S
Nd1400 O1431 2.424 . S
Nd1401 C1411 2.836 . S
Nd1401 O1423 2.414 . S
Nd1401 O1425 2.424 . S
Nd1401 O1426 2.500 . S
Nd1401 O1427 2.492 . S
Nd1401 O1428 2.487 . S
Nd1401 O1429 2.682 . S
Nd1401 O1430 2.410 . S
C1402 Nd1400 2.836 . S
C1402 C1403 1.498 . S
C1402 O1420 1.258 . S
C1402 O1421 1.239 . S
C1403 C1402 1.498 . S
C1403 C1404 1.366 1_554 S
C1403 C1408 1.407 . S
C1404 C1403 1.366 1_556 S
C1404 C1405 1.392 . S
C1404 H1432 0.930 1_556 S
C1405 C1404 1.392 . S
C1405 C1406 1.398 . S
C1405 H1433 0.929 . S
C1406 C1405 1.398 . S
C1406 C1407 1.352 . S
C1407 C1406 1.352 . S
C1407 C1408 1.384 1_556 S
C1407 H1434 0.930 . S
C1408 C1403 1.407 . S
C1408 C1407 1.384 1_554 S
C1408 H1435 0.929 . S
C1409 O1422 1.241 . S
C1409 O1423 1.273 . S
C1410 O1424 1.251 . S
C1410 O1425 1.268 . S
C1411 Nd1401 2.836 . S
C1411 C1412 1.498 . S
C1411 O1426 1.258 . S
C1411 O1427 1.239 . S
C1412 C1411 1.498 . S
C1412 C1413 1.366 . S
C1412 C1417 1.407 . S
C1413 C1412 1.366 . S
C1413 C1414 1.392 . S
C1413 H1436 0.930 . S
C1414 C1413 1.392 . S
C1414 C1415 1.398 . S
C1414 H1437 0.929 . S
C1415 C1414 1.398 . S
C1415 C1416 1.352 . S
C1416 C1415 1.352 . S
C1416 C1417 1.384 . S
C1416 H1438 0.930 . S
C1417 C1412 1.407 . S
C1417 C1416 1.384 . S
C1417 H1439 0.929 . S
C1418 O1428 1.241 . S
C1418 O1429 1.273 . S
C1419 O1430 1.251 . S
C1419 O1431 1.268 . S
O1420 Nd1400 2.500 . S
O1420 C1402 1.258 . S
O1421 Nd1400 2.492 . S
O1421 C1402 1.239 . S
O1422 Nd1400 2.487 . S
O1422 C1409 1.241 . S
O1423 Nd1400 2.682 . S
O1423 Nd1401 2.414 . S
O1423 C1409 1.273 . S
O1424 Nd1400 2.410 . S
O1424 C1410 1.251 . S
O1425 Nd1401 2.424 . S
O1425 C1410 1.268 . S
O1426 Nd1401 2.500 . S
O1426 C1411 1.258 . S
O1427 Nd1401 2.492 . S
O1427 C1411 1.239 . S
O1428 Nd1401 2.487 . S
O1428 C1418 1.241 . S
O1429 Nd1400 2.414 . S
O1429 Nd1401 2.682 . S
O1429 C1418 1.273 . S
O1430 Nd1401 2.410 . S
O1430 C1419 1.251 . S
O1431 Nd1400 2.424 . S
O1431 C1419 1.268 . S
H1432 C1404 0.930 1_554 S
H1433 C1405 0.929 . S
H1434 C1407 0.930 . S
H1435 C1408 0.929 . S
H1436 C1413 0.930 . S
H1437 C1414 0.929 . S
H1438 C1416 0.930 . S
H1439 C1417 0.929 . S
H1440 C1446 0.928 1_554 S
H1441 C1449 0.930 . S
H1442 C1450 0.930 . S
H1443 C1451 0.930 . S
H1444 C1454 0.938 . S
H1445 C1455 0.930 . S
C1446 H1440 0.928 1_556 S
C1446 C1447 1.356 . S
C1446 C1448 1.415 . S
C1447 C1446 1.356 . S
C1447 C1449 1.419 . S
C1448 C1446 1.415 . S
C1448 C1453 1.425 . S
C1448 C1455 1.409 1_556 S
C1449 H1441 0.930 . S
C1449 C1447 1.419 . S
C1449 C1450 1.362 . S
C1450 H1442 0.930 . S
C1450 C1449 1.362 . S
C1450 C1453 1.409 . S
C1451 H1443 0.930 . S
C1451 C1452 1.355 . S
C1451 C1453 1.415 . S
C1452 C1451 1.355 . S
C1452 C1454 1.409 1_556 S
C1453 C1448 1.425 . S
C1453 C1450 1.409 . S
C1453 C1451 1.415 . S
C1454 H1444 0.938 . S
C1454 C1452 1.409 1_554 S
C1454 C1455 1.365 . S
C1455 H1445 0.930 . S
C1455 C1448 1.409 1_554 S
C1455 C1454 1.365 . S
H1456 C1462 0.930 . S
H1457 C1465 0.930 . S
H1458 C1466 0.930 . S
H1459 C1467 0.930 . S
H1460 C1470 0.930 . S
H1461 C1471 0.930 . S
C1462 H1456 0.930 . S
C1462 C1463 1.355 . S
C1462 C1464 1.415 . S
C1463 C1462 1.355 . S
C1463 C1465 1.419 1_556 S
C1464 C1462 1.415 . S
C1464 C1469 1.425 . S
C1464 C1471 1.409 . S
C1465 H1457 0.930 . S
C1465 C1463 1.419 1_554 S
C1465 C1466 1.362 . S
C1466 H1458 0.930 . S
C1466 C1465 1.362 . S
C1466 C1469 1.409 1_554 S
C1467 H1459 0.930 . S
C1467 C1468 1.355 . S
C1467 C1469 1.415 . S
C1468 C1467 1.355 . S
C1468 C1470 1.419 . S
C1469 C1464 1.425 . S
C1469 C1466 1.409 1_556 S
C1469 C1467 1.415 . S
C1470 H1460 0.930 . S
C1470 C1468 1.419 . S
C1470 C1471 1.362 . S
C1471 H1461 0.930 . S
C1471 C1464 1.409 . S
C1471 C1470 1.362 . S
H1472 C1478 0.930 . S
H1473 C1481 0.930 . S
H1474 C1482 0.930 . S
H1475 C1483 0.930 . S
H1476 C1486 0.930 . S
H1477 C1487 0.930 . S
C1478 H1472 0.930 . S
C1478 C1479 1.355 1_554 S
C1478 C1480 1.415 . S
C1479 C1478 1.355 1_556 S
C1479 C1481 1.419 . S
C1480 C1478 1.415 . S
C1480 C1485 1.425 1_554 S
C1480 C1487 1.409 . S
C1481 H1473 0.930 . S
C1481 C1479 1.419 . S
C1481 C1482 1.362 . S
C1482 H1474 0.930 . S
C1482 C1481 1.362 . S
C1482 C1485 1.409 . S
C1483 H1475 0.930 . S
C1483 C1484 1.355 . S
C1483 C1485 1.415 . S
C1484 C1483 1.355 . S
C1484 C1486 1.419 1_556 S
C1485 C1480 1.425 1_556 S
C1485 C1482 1.409 . S
C1485 C1483 1.415 . S
C1486 H1476 0.930 . S
C1486 C1484 1.419 1_554 S
C1486 C1487 1.362 . S
C1487 H1477 0.930 . S
C1487 C1480 1.409 . S
C1487 C1486 1.362 . S
H1488 C1494 0.930 . S
H1489 C1497 0.930 . S
H1490 C1498 0.930 . S
H1491 C1499 0.930 . S
H1492 C1502 0.930 . S
H1493 C1503 0.930 . S
C1494 H1488 0.930 . S
C1494 C1495 1.355 . S
C1494 C1496 1.415 . S
C1495 C1494 1.355 . S
C1495 C1497 1.419 . S
C1496 C1494 1.415 . S
C1496 C1501 1.425 . S
C1496 C1503 1.409 . S
C1497 H1489 0.930 . S
C1497 C1495 1.419 . S
C1497 C1498 1.362 . S
C1498 H1490 0.930 . S
C1498 C1497 1.362 . S
C1498 C1501 1.409 . S
C1499 H1491 0.930 . S
C1499 C1500 1.355 . S
C1499 C1501 1.415 . S
C1500 C1499 1.355 . S
C1500 C1502 1.419 . S
C1501 C1496 1.425 . S
C1501 C1498 1.409 . S
C1501 C1499 1.415 . S
C1502 H1492 0.930 . S
C1502 C1500 1.419 . S
C1502 C1503 1.362 . S
C1503 H1493 0.930 . S
C1503 C1496 1.409 . S
C1503 C1502 1.362 . S
H1504 C1510 0.930 . S
H1505 C1513 0.930 . S
H1506 C1514 0.930 . S
H1507 C1515 0.930 . S
H1508 C1518 0.930 . S
H1509 C1519 0.930 . S
C1510 H1504 0.930 . S
C1510 C1511 1.355 . S
C1510 C1512 1.415 . S
C1511 C1510 1.355 . S
C1511 C1513 1.419 . S
C1512 C1510 1.415 . S
C1512 C1517 1.425 . S
C1512 C1519 1.409 . S
C1513 H1505 0.930 . S
C1513 C1511 1.419 . S
C1513 C1514 1.362 . S
C1514 H1506 0.930 . S
C1514 C1513 1.362 . S
C1514 C1517 1.409 . S
C1515 H1507 0.930 . S
C1515 C1516 1.355 . S
C1515 C1517 1.415 . S
C1516 C1515 1.355 . S
C1516 C1518 1.419 . S
C1517 C1512 1.425 . S
C1517 C1514 1.409 . S
C1517 C1515 1.415 . S
C1518 H1508 0.930 . S
C1518 C1516 1.419 . S
C1518 C1519 1.362 . S
C1519 H1509 0.930 . S
C1519 C1512 1.409 . S
C1519 C1518 1.362 . S
H1520 C1526 0.930 . S
H1521 C1529 0.930 . S
H1522 C1530 0.930 . S
H1523 C1531 0.930 . S
H1524 C1534 0.930 . S
H1525 C1535 0.930 . S
C1526 H1520 0.930 . S
C1526 C1527 1.355 . S
C1526 C1528 1.415 . S
C1527 C1526 1.355 . S
C1527 C1529 1.419 . S
C1528 C1526 1.415 . S
C1528 C1533 1.425 . S
C1528 C1535 1.409 . S
C1529 H1521 0.930 . S
C1529 C1527 1.419 . S
C1529 C1530 1.362 . S
C1530 H1522 0.930 . S
C1530 C1529 1.362 . S
C1530 C1533 1.409 . S
C1531 H1523 0.930 . S
C1531 C1532 1.355 . S
C1531 C1533 1.415 . S
C1532 C1531 1.355 . S
C1532 C1534 1.419 . S
C1533 C1528 1.425 . S
C1533 C1530 1.409 . S
C1533 C1531 1.415 . S
C1534 H1524 0.930 . S
C1534 C1532 1.419 . S
C1534 C1535 1.362 . S
C1535 H1525 0.930 . S
C1535 C1528 1.409 . S
C1535 C1534 1.362 . S
H1536 C1542 0.930 . S
H1537 C1545 0.930 . S
H1538 C1546 0.930 . S
H1539 C1547 0.930 . S
H1540 C1550 0.930 . S
H1541 C1551 0.930 . S
C1542 H1536 0.930 . S
C1542 C1543 1.355 . S
C1542 C1544 1.415 . S
C1543 C1542 1.355 . S
C1543 C1545 1.419 . S
C1544 C1542 1.415 . S
C1544 C1549 1.425 . S
C1544 C1551 1.409 . S
C1545 H1537 0.930 . S
C1545 C1543 1.419 . S
C1545 C1546 1.362 . S
C1546 H1538 0.930 . S
C1546 C1545 1.362 . S
C1546 C1549 1.409 . S
C1547 H1539 0.930 . S
C1547 C1548 1.355 . S
C1547 C1549 1.415 . S
C1548 C1547 1.355 . S
C1548 C1550 1.419 . S
C1549 C1544 1.425 . S
C1549 C1546 1.409 . S
C1549 C1547 1.415 . S
C1550 H1540 0.930 . S
C1550 C1548 1.419 . S
C1550 C1551 1.362 . S
C1551 H1541 0.930 . S
C1551 C1544 1.409 . S
C1551 C1550 1.362 . S
H1552 C1558 0.930 . S
H1553 C1561 0.930 . S
H1554 C1562 0.930 . S
H1555 C1563 0.930 . S
H1556 C1566 0.930 . S
H1557 C1567 0.930 . S
C1558 H1552 0.930 . S
C1558 C1559 1.355 . S
C1558 C1560 1.415 . S
C1559 C1558 1.355 . S
C1559 C1561 1.419 . S
C1560 C1558 1.415 . S
C1560 C1565 1.425 . S
C1560 C1567 1.409 . S
C1561 H1553 0.930 . S
C1561 C1559 1.419 . S
C1561 C1562 1.362 . S
C1562 H1554 0.930 . S
C1562 C1561 1.362 . S
C1562 C1565 1.409 . S
C1563 H1555 0.930 . S
C1563 C1564 1.355 . S
C1563 C1565 1.415 . S
C1564 C1563 1.355 . S
C1564 C1566 1.419 . S
C1565 C1560 1.425 . S
C1565 C1562 1.409 . S
C1565 C1563 1.415 . S
C1566 H1556 0.930 . S
C1566 C1564 1.419 . S
C1566 C1567 1.362 . S
C1567 H1557 0.930 . S
C1567 C1560 1.409 . S
C1567 C1566 1.362 . S
H1568 C1574 0.930 . S
H1569 C1577 0.930 . S
H1570 C1578 0.930 . S
H1571 C1579 0.930 . S
H1572 C1582 0.930 . S
H1573 C1583 0.930 . S
C1574 H1568 0.930 . S
C1574 C1575 1.355 . S
C1574 C1576 1.415 . S
C1575 C1574 1.355 . S
C1575 C1577 1.419 . S
C1576 C1574 1.415 . S
C1576 C1581 1.425 . S
C1576 C1583 1.409 . S
C1577 H1569 0.930 . S
C1577 C1575 1.419 . S
C1577 C1578 1.362 . S
C1578 H1570 0.930 . S
C1578 C1577 1.362 . S
C1578 C1581 1.409 . S
C1579 H1571 0.930 . S
C1579 C1580 1.355 . S
C1579 C1581 1.415 . S
C1580 C1579 1.355 . S
C1580 C1582 1.419 . S
C1581 C1576 1.425 . S
C1581 C1578 1.409 . S
C1581 C1579 1.415 . S
C1582 H1572 0.930 . S
C1582 C1580 1.419 . S
C1582 C1583 1.362 . S
C1583 H1573 0.930 . S
C1583 C1576 1.409 . S
C1583 C1582 1.362 . S
H1584 C1590 0.930 . S
H1585 C1593 0.930 . S
H1586 C1594 0.930 . S
H1587 C1595 0.930 . S
H1588 C1598 0.930 . S
H1589 C1599 0.930 . S
C1590 H1584 0.930 . S
C1590 C1591 1.355 . S
C1590 C1592 1.415 . S
C1591 C1590 1.355 . S
C1591 C1593 1.419 . S
C1592 C1590 1.415 . S
C1592 C1597 1.425 . S
C1592 C1599 1.409 . S
C1593 H1585 0.930 . S
C1593 C1591 1.419 . S
C1593 C1594 1.362 . S
C1594 H1586 0.930 . S
C1594 C1593 1.362 . S
C1594 C1597 1.409 . S
C1595 H1587 0.930 . S
C1595 C1596 1.355 . S
C1595 C1597 1.415 . S
C1596 C1595 1.355 . S
C1596 C1598 1.419 . S
C1597 C1592 1.425 . S
C1597 C1594 1.409 . S
C1597 C1595 1.415 . S
C1598 H1588 0.930 . S
C1598 C1596 1.419 . S
C1598 C1599 1.362 . S
C1599 H1589 0.930 . S
C1599 C1592 1.409 . S
C1599 C1598 1.362 . S
H1600 C1606 0.930 . S
H1601 C1609 0.930 . S
H1602 C1610 0.930 . S
H1603 C1611 0.930 . S
H1604 C1614 0.930 . S
H1605 C1615 0.930 . S
C1606 H1600 0.930 . S
C1606 C1607 1.355 . S
C1606 C1608 1.415 . S
C1607 C1606 1.355 . S
C1607 C1609 1.419 . S
C1608 C1606 1.415 . S
C1608 C1613 1.425 . S
C1608 C1615 1.409 . S
C1609 H1601 0.930 . S
C1609 C1607 1.419 . S
C1609 C1610 1.362 . S
C1610 H1602 0.930 . S
C1610 C1609 1.362 . S
C1610 C1613 1.409 . S
C1611 H1603 0.930 . S
C1611 C1612 1.355 . S
C1611 C1613 1.415 . S
C1612 C1611 1.355 . S
C1612 C1614 1.419 . S
C1613 C1608 1.425 . S
C1613 C1610 1.409 . S
C1613 C1611 1.415 . S
C1614 H1604 0.930 . S
C1614 C1612 1.419 . S
C1614 C1615 1.362 . S
C1615 H1605 0.930 . S
C1615 C1608 1.409 . S
C1615 C1614 1.362 . S
H1616 C1622 0.930 . S
H1617 C1625 0.930 . S
H1618 C1626 0.930 . S
H1619 C1627 0.930 . S
H1620 C1630 0.930 . S
H1621 C1631 0.930 . S
C1622 H1616 0.930 . S
C1622 C1623 1.355 . S
C1622 C1624 1.415 . S
C1623 C1622 1.355 . S
C1623 C1625 1.419 . S
C1624 C1622 1.415 . S
C1624 C1629 1.425 . S
C1624 C1631 1.409 . S
C1625 H1617 0.930 . S
C1625 C1623 1.419 . S
C1625 C1626 1.362 . S
C1626 H1618 0.930 . S
C1626 C1625 1.362 . S
C1626 C1629 1.409 . S
C1627 H1619 0.930 . S
C1627 C1628 1.355 . S
C1627 C1629 1.415 . S
C1628 C1627 1.355 . S
C1628 C1630 1.419 . S
C1629 C1624 1.425 . S
C1629 C1626 1.409 . S
C1629 C1627 1.415 . S
C1630 H1620 0.930 . S
C1630 C1628 1.419 . S
C1630 C1631 1.362 . S
C1631 H1621 0.930 . S
C1631 C1624 1.409 . S
C1631 C1630 1.362 . S
H1632 C1638 0.930 . S
H1633 C1641 0.930 . S
H1634 C1642 0.930 . S
H1635 C1643 0.930 . S
H1636 C1646 0.930 . S
H1637 C1647 0.930 . S
C1638 H1632 0.930 . S
C1638 C1639 1.355 . S
C1638 C1640 1.415 . S
C1639 C1638 1.355 . S
C1639 C1641 1.419 . S
C1640 C1638 1.415 . S
C1640 C1645 1.425 . S
C1640 C1647 1.409 . S
C1641 H1633 0.930 . S
C1641 C1639 1.419 . S
C1641 C1642 1.362 . S
C1642 H1634 0.930 . S
C1642 C1641 1.362 . S
C1642 C1645 1.409 . S
C1643 H1635 0.930 . S
C1643 C1644 1.355 . S
C1643 C1645 1.415 . S
C1644 C1643 1.355 . S
C1644 C1646 1.419 . S
C1645 C1640 1.425 . S
C1645 C1642 1.409 . S
C1645 C1643 1.415 . S
C1646 H1636 0.930 . S
C1646 C1644 1.419 . S
C1646 C1647 1.362 . S
C1647 H1637 0.930 . S
C1647 C1640 1.409 . S
C1647 C1646 1.362 . S
H1648 C1654 0.930 . S
H1649 C1657 0.930 . S
H1650 C1658 0.930 . S
H1651 C1659 0.930 . S
H1652 C1662 0.930 . S
H1653 C1663 0.930 . S
C1654 H1648 0.930 . S
C1654 C1655 1.355 . S
C1654 C1656 1.415 . S
C1655 C1654 1.355 . S
C1655 C1657 1.419 . S
C1656 C1654 1.415 . S
C1656 C1661 1.425 1_565 S
C1656 C1663 1.409 1_565 S
C1657 H1649 0.930 . S
C1657 C1655 1.419 . S
C1657 C1658 1.362 . S
C1658 H1650 0.930 . S
C1658 C1657 1.362 . S
C1658 C1661 1.409 1_565 S
C1659 H1651 0.930 . S
C1659 C1660 1.355 . S
C1659 C1661 1.415 . S
C1660 C1659 1.355 . S
C1660 C1662 1.419 . S
C1661 C1656 1.425 1_545 S
C1661 C1658 1.409 1_545 S
C1661 C1659 1.415 . S
C1662 H1652 0.930 . S
C1662 C1660 1.419 . S
C1662 C1663 1.362 . S
C1663 H1653 0.930 . S
C1663 C1656 1.409 1_545 S
C1663 C1662 1.362 . S
H1664 C1670 0.930 . S
H1665 C1673 0.930 . S
H1666 C1674 0.930 . S
H1667 C1675 0.930 . S
H1668 C1678 0.930 . S
H1669 C1679 0.930 . S
C1670 H1664 0.930 . S
C1670 C1671 1.355 . S
C1670 C1672 1.415 . S
C1671 C1670 1.355 . S
C1671 C1673 1.419 . S
C1672 C1670 1.415 . S
C1672 C1677 1.425 1_655 S
C1672 C1679 1.409 1_655 S
C1673 H1665 0.930 . S
C1673 C1671 1.419 . S
C1673 C1674 1.362 . S
C1674 H1666 0.930 . S
C1674 C1673 1.362 . S
C1674 C1677 1.409 1_655 S
C1675 H1667 0.930 . S
C1675 C1676 1.355 . S
C1675 C1677 1.415 . S
C1676 C1675 1.355 . S
C1676 C1678 1.419 . S
C1677 C1672 1.425 1_455 S
C1677 C1674 1.409 1_455 S
C1677 C1675 1.415 . S
C1678 H1668 0.930 . S
C1678 C1676 1.419 . S
C1678 C1679 1.362 . S
C1679 H1669 0.930 . S
C1679 C1672 1.409 1_455 S
C1679 C1678 1.362 . S
H1680 C1686 0.930 . S
H1681 C1689 0.930 . S
H1682 C1690 0.930 . S
H1683 C1691 0.930 . S
H1684 C1694 0.930 . S
H1685 C1695 0.930 . S
C1686 H1680 0.930 . S
C1686 C1687 1.355 . S
C1686 C1688 1.415 . S
C1687 C1686 1.355 . S
C1687 C1689 1.419 . S
C1688 C1686 1.415 . S
C1688 C1693 1.425 . S
C1688 C1695 1.409 . S
C1689 H1681 0.930 . S
C1689 C1687 1.419 . S
C1689 C1690 1.362 . S
C1690 H1682 0.930 . S
C1690 C1689 1.362 . S
C1690 C1693 1.409 . S
C1691 H1683 0.930 . S
C1691 C1692 1.355 . S
C1691 C1693 1.415 . S
C1692 C1691 1.355 . S
C1692 C1694 1.419 . S
C1693 C1688 1.425 . S
C1693 C1690 1.409 . S
C1693 C1691 1.415 . S
C1694 H1684 0.930 . S
C1694 C1692 1.419 . S
C1694 C1695 1.362 . S
C1695 H1685 0.930 . S
C1695 C1688 1.409 . S
C1695 C1694 1.362 . S
H1696 C1702 0.930 . S
H1697 C1705 0.930 . S
H1698 C1706 0.930 . S
H1699 C1707 0.930 . S
H1700 C1710 0.930 . S
H1701 C1711 0.930 . S
C1702 H1696 0.930 . S
C1702 C1703 1.355 . S
C1702 C1704 1.415 . S
C1703 C1702 1.355 . S
C1703 C1705 1.419 . S
C1704 C1702 1.415 . S
C1704 C1709 1.425 1_545 S
C1704 C1711 1.409 1_545 S
C1705 H1697 0.930 . S
C1705 C1703 1.419 . S
C1705 C1706 1.362 . S
C1706 H1698 0.930 . S
C1706 C1705 1.362 . S
C1706 C1709 1.409 1_545 S
C1707 H1699 0.930 . S
C1707 C1708 1.355 . S
C1707 C1709 1.415 . S
C1708 C1707 1.355 . S
C1708 C1710 1.419 . S
C1709 C1704 1.425 1_565 S
C1709 C1706 1.409 1_565 S
C1709 C1707 1.415 . S
C1710 H1700 0.930 . S
C1710 C1708 1.419 . S
C1710 C1711 1.362 . S
C1711 H1701 0.930 . S
C1711 C1704 1.409 1_565 S
C1711 C1710 1.362 . S
H1712 C1718 0.930 . S
H1713 C1721 0.930 . S
H1714 C1722 0.930 . S
H1715 C1723 0.930 . S
H1716 C1726 0.930 . S
H1717 C1727 0.930 . S
C1718 H1712 0.930 . S
C1718 C1719 1.355 . S
C1718 C1720 1.415 . S
C1719 C1718 1.355 . S
C1719 C1721 1.419 . S
C1720 C1718 1.415 . S
C1720 C1725 1.425 1_455 S
C1720 C1727 1.409 1_455 S
C1721 H1713 0.930 . S
C1721 C1719 1.419 . S
C1721 C1722 1.362 . S
C1722 H1714 0.930 . S
C1722 C1721 1.362 . S
C1722 C1725 1.409 1_455 S
C1723 H1715 0.930 . S
C1723 C1724 1.355 . S
C1723 C1725 1.415 . S
C1724 C1723 1.355 . S
C1724 C1726 1.419 . S
C1725 C1720 1.425 1_655 S
C1725 C1722 1.409 1_655 S
C1725 C1723 1.415 . S
C1726 H1716 0.930 . S
C1726 C1724 1.419 . S
C1726 C1727 1.362 . S
C1727 H1717 0.930 . S
C1727 C1720 1.409 1_655 S
C1727 C1726 1.362 . S
H1728 C1734 0.930 1_655 S
H1729 C1737 0.930 . S
H1730 C1738 0.930 . S
H1731 C1739 0.930 1_455 S
H1732 C1742 0.930 . S
H1733 C1743 0.930 . S
C1734 H1728 0.930 1_455 S
C1734 C1735 1.355 . S
C1734 C1736 1.415 1_455 S
C1735 C1734 1.355 . S
C1735 C1737 1.419 . S
C1736 C1734 1.415 1_655 S
C1736 C1741 1.425 1_655 S
C1736 C1743 1.409 . S
C1737 H1729 0.930 . S
C1737 C1735 1.419 . S
C1737 C1738 1.362 . S
C1738 H1730 0.930 . S
C1738 C1737 1.362 . S
C1738 C1741 1.409 . S
C1739 H1731 0.930 1_655 S
C1739 C1740 1.355 . S
C1739 C1741 1.415 1_655 S
C1740 C1739 1.355 . S
C1740 C1742 1.419 . S
C1741 C1736 1.425 1_455 S
C1741 C1738 1.409 . S
C1741 C1739 1.415 1_455 S
C1742 H1732 0.930 . S
C1742 C1740 1.419 . S
C1742 C1743 1.362 . S
C1743 H1733 0.930 . S
C1743 C1736 1.409 . S
C1743 C1742 1.362 . S
H1744 C1750 0.930 . S
H1745 C1753 0.930 . S
H1746 C1754 0.930 . S
H1747 C1755 0.930 . S
H1748 C1758 0.930 . S
H1749 C1759 0.930 . S
C1750 H1744 0.930 . S
C1750 C1751 1.355 . S
C1750 C1752 1.415 . S
C1751 C1750 1.355 . S
C1751 C1753 1.419 . S
C1752 C1750 1.415 . S
C1752 C1757 1.425 . S
C1752 C1759 1.409 . S
C1753 H1745 0.930 . S
C1753 C1751 1.419 . S
C1753 C1754 1.362 . S
C1754 H1746 0.930 . S
C1754 C1753 1.362 . S
C1754 C1757 1.409 . S
C1755 H1747 0.930 . S
C1755 C1756 1.355 . S
C1755 C1757 1.415 . S
C1756 C1755 1.355 . S
C1756 C1758 1.419 . S
C1757 C1752 1.425 . S
C1757 C1754 1.409 . S
C1757 C1755 1.415 . S
C1758 H1748 0.930 . S
C1758 C1756 1.419 . S
C1758 C1759 1.362 . S
C1759 H1749 0.930 . S
C1759 C1752 1.409 . S
C1759 C1758 1.362 . S
H1760 C1766 0.930 . S
H1761 C1769 0.930 . S
H1762 C1770 0.930 . S
H1763 C1771 0.930 . S
H1764 C1774 0.930 . S
H1765 C1775 0.930 . S
C1766 H1760 0.930 . S
C1766 C1767 1.355 . S
C1766 C1768 1.415 . S
C1767 C1766 1.355 . S
C1767 C1769 1.419 . S
C1768 C1766 1.415 . S
C1768 C1773 1.425 1_565 S
C1768 C1775 1.409 . S
C1769 H1761 0.930 . S
C1769 C1767 1.419 . S
C1769 C1770 1.362 1_565 S
C1770 H1762 0.930 . S
C1770 C1769 1.362 1_545 S
C1770 C1773 1.409 . S
C1771 H1763 0.930 . S
C1771 C1772 1.355 . S
C1771 C1773 1.415 . S
C1772 C1771 1.355 . S
C1772 C1774 1.419 . S
C1773 C1768 1.425 1_545 S
C1773 C1770 1.409 . S
C1773 C1771 1.415 . S
C1774 H1764 0.930 . S
C1774 C1772 1.419 . S
C1774 C1775 1.362 1_545 S
C1775 H1765 0.930 . S
C1775 C1768 1.409 . S
C1775 C1774 1.362 1_565 S
H1776 C1782 0.930 . S
H1777 C1785 0.930 . S
H1778 C1786 0.930 . S
H1779 C1787 0.930 . S
H1780 C1790 0.930 . S
H1781 C1791 0.930 . S
C1782 H1776 0.930 . S
C1782 C1783 1.355 . S
C1782 C1784 1.415 1_655 S
C1783 C1782 1.355 . S
C1783 C1785 1.419 . S
C1784 C1782 1.415 1_455 S
C1784 C1789 1.425 1_455 S
C1784 C1791 1.409 . S
C1785 H1777 0.930 . S
C1785 C1783 1.419 . S
C1785 C1786 1.362 . S
C1786 H1778 0.930 . S
C1786 C1785 1.362 . S
C1786 C1789 1.409 . S
C1787 H1779 0.930 . S
C1787 C1788 1.355 . S
C1787 C1789 1.415 1_455 S
C1788 C1787 1.355 . S
C1788 C1790 1.419 . S
C1789 C1784 1.425 1_655 S
C1789 C1786 1.409 . S
C1789 C1787 1.415 1_655 S
C1790 H1780 0.930 . S
C1790 C1788 1.419 . S
C1790 C1791 1.362 . S
C1791 H1781 0.930 . S
C1791 C1784 1.409 . S
C1791 C1790 1.362 . S
H1792 C1798 0.930 . S
H1793 C1801 0.930 . S
H1794 C1802 0.930 . S
H1795 C1803 0.930 . S
H1796 C1806 0.930 . S
H1797 C1807 0.930 . S
C1798 H1792 0.930 . S
C1798 C1799 1.355 . S
C1798 C1800 1.415 . S
C1799 C1798 1.355 . S
C1799 C1801 1.419 . S
C1800 C1798 1.415 . S
C1800 C1805 1.425 . S
C1800 C1807 1.409 . S
C1801 H1793 0.930 . S
C1801 C1799 1.419 . S
C1801 C1802 1.362 . S
C1802 H1794 0.930 . S
C1802 C1801 1.362 . S
C1802 C1805 1.409 . S
C1803 H1795 0.930 . S
C1803 C1804 1.355 . S
C1803 C1805 1.415 . S
C1804 C1803 1.355 . S
C1804 C1806 1.419 . S
C1805 C1800 1.425 . S
C1805 C1802 1.409 . S
C1805 C1803 1.415 . S
C1806 H1796 0.930 . S
C1806 C1804 1.419 . S
C1806 C1807 1.362 . S
C1807 H1797 0.930 . S
C1807 C1800 1.409 . S
C1807 C1806 1.362 . S
H1808 C1814 0.930 1_565 S
H1809 C1817 0.930 . S
H1810 C1818 0.930 . S
H1811 C1819 0.930 1_545 S
H1812 C1822 0.930 . S
H1813 C1823 0.930 . S
C1814 H1808 0.930 1_545 S
C1814 C1815 1.355 . S
C1814 C1816 1.415 1_545 S
C1815 C1814 1.355 . S
C1815 C1817 1.419 . S
C1816 C1814 1.415 1_565 S
C1816 C1821 1.425 1_565 S
C1816 C1823 1.409 . S
C1817 H1809 0.930 . S
C1817 C1815 1.419 . S
C1817 C1818 1.362 . S
C1818 H1810 0.930 . S
C1818 C1817 1.362 . S
C1818 C1821 1.409 . S
C1819 H1811 0.930 1_565 S
C1819 C1820 1.355 . S
C1819 C1821 1.415 1_565 S
C1820 C1819 1.355 . S
C1820 C1822 1.419 . S
C1821 C1816 1.425 1_545 S
C1821 C1818 1.409 . S
C1821 C1819 1.415 1_545 S
C1822 H1812 0.930 . S
C1822 C1820 1.419 . S
C1822 C1823 1.362 . S
C1823 H1813 0.930 . S
C1823 C1816 1.409 . S
C1823 C1822 1.362 . S
H1824 C1830 0.930 . S
H1825 C1833 0.930 . S
H1826 C1834 0.930 . S
H1827 C1835 0.930 . S
H1828 C1838 0.930 . S
H1829 C1839 0.930 . S
C1830 H1824 0.930 . S
C1830 C1831 1.355 . S
C1830 C1832 1.415 . S
C1831 C1830 1.355 . S
C1831 C1833 1.419 . S
C1832 C1830 1.415 . S
C1832 C1837 1.425 . S
C1832 C1839 1.409 . S
C1833 H1825 0.930 . S
C1833 C1831 1.419 . S
C1833 C1834 1.362 . S
C1834 H1826 0.930 . S
C1834 C1833 1.362 . S
C1834 C1837 1.409 . S
C1835 H1827 0.930 . S
C1835 C1836 1.355 . S
C1835 C1837 1.415 . S
C1836 C1835 1.355 . S
C1836 C1838 1.419 . S
C1837 C1832 1.425 . S
C1837 C1834 1.409 . S
C1837 C1835 1.415 . S
C1838 H1828 0.930 . S
C1838 C1836 1.419 . S
C1838 C1839 1.362 . S
C1839 H1829 0.930 . S
C1839 C1832 1.409 . S
C1839 C1838 1.362 . S
H1840 C1846 0.930 . S
H1841 C1849 0.930 . S
H1842 C1850 0.930 . S
H1843 C1851 0.930 . S
H1844 C1854 0.930 . S
H1845 C1855 0.930 . S
C1846 H1840 0.930 . S
C1846 C1847 1.355 . S
C1846 C1848 1.415 . S
C1847 C1846 1.355 . S
C1847 C1849 1.419 . S
C1848 C1846 1.415 . S
C1848 C1853 1.425 . S
C1848 C1855 1.409 . S
C1849 H1841 0.930 . S
C1849 C1847 1.419 . S
C1849 C1850 1.362 . S
C1850 H1842 0.930 . S
C1850 C1849 1.362 . S
C1850 C1853 1.409 . S
C1851 H1843 0.930 . S
C1851 C1852 1.355 . S
C1851 C1853 1.415 . S
C1852 C1851 1.355 . S
C1852 C1854 1.419 . S
C1853 C1848 1.425 . S
C1853 C1850 1.409 . S
C1853 C1851 1.415 . S
C1854 H1844 0.930 . S
C1854 C1852 1.419 . S
C1854 C1855 1.362 . S
C1855 H1845 0.930 . S
C1855 C1848 1.409 . S
C1855 C1854 1.362 . S
H1856 C1862 0.930 . S
H1857 C1865 0.930 . S
H1858 C1866 0.930 . S
H1859 C1867 0.930 . S
H1860 C1870 0.930 . S
H1861 C1871 0.930 . S
C1862 H1856 0.930 . S
C1862 C1863 1.355 . S
C1862 C1864 1.415 . S
C1863 C1862 1.355 . S
C1863 C1865 1.419 . S
C1864 C1862 1.415 . S
C1864 C1869 1.425 . S
C1864 C1871 1.409 . S
C1865 H1857 0.930 . S
C1865 C1863 1.419 . S
C1865 C1866 1.362 . S
C1866 H1858 0.930 . S
C1866 C1865 1.362 . S
C1866 C1869 1.409 . S
C1867 H1859 0.930 . S
C1867 C1868 1.355 . S
C1867 C1869 1.415 . S
C1868 C1867 1.355 . S
C1868 C1870 1.419 . S
C1869 C1864 1.425 . S
C1869 C1866 1.409 . S
C1869 C1867 1.415 . S
C1870 H1860 0.930 . S
C1870 C1868 1.419 . S
C1870 C1871 1.362 . S
C1871 H1861 0.930 . S
C1871 C1864 1.409 . S
C1871 C1870 1.362 . S
H1872 C1878 0.930 . S
H1873 C1881 0.930 . S
H1874 C1882 0.930 . S
H1875 C1883 0.930 . S
H1876 C1886 0.930 . S
H1877 C1887 0.930 . S
C1878 H1872 0.930 . S
C1878 C1879 1.355 . S
C1878 C1880 1.415 . S
C1879 C1878 1.355 . S
C1879 C1881 1.419 . S
C1880 C1878 1.415 . S
C1880 C1885 1.425 . S
C1880 C1887 1.409 . S
C1881 H1873 0.930 . S
C1881 C1879 1.419 . S
C1881 C1882 1.362 . S
C1882 H1874 0.930 . S
C1882 C1881 1.362 . S
C1882 C1885 1.409 . S
C1883 H1875 0.930 . S
C1883 C1884 1.355 . S
C1883 C1885 1.415 . S
C1884 C1883 1.355 . S
C1884 C1886 1.419 . S
C1885 C1880 1.425 . S
C1885 C1882 1.409 . S
C1885 C1883 1.415 . S
C1886 H1876 0.930 . S
C1886 C1884 1.419 . S
C1886 C1887 1.362 . S
C1887 H1877 0.930 . S
C1887 C1880 1.409 . S
C1887 C1886 1.362 . S
H1888 C1894 0.930 . S
H1889 C1897 0.930 . S
H1890 C1898 0.930 . S
H1891 C1899 0.930 . S
H1892 C1902 0.930 . S
H1893 C1903 0.930 . S
C1894 H1888 0.930 . S
C1894 C1895 1.355 . S
C1894 C1896 1.415 . S
C1895 C1894 1.355 . S
C1895 C1897 1.419 . S
C1896 C1894 1.415 . S
C1896 C1901 1.425 . S
C1896 C1903 1.409 . S
C1897 H1889 0.930 . S
C1897 C1895 1.419 . S
C1897 C1898 1.362 . S
C1898 H1890 0.930 . S
C1898 C1897 1.362 . S
C1898 C1901 1.409 . S
C1899 H1891 0.930 . S
C1899 C1900 1.355 . S
C1899 C1901 1.415 . S
C1900 C1899 1.355 . S
C1900 C1902 1.419 . S
C1901 C1896 1.425 . S
C1901 C1898 1.409 . S
C1901 C1899 1.415 . S
C1902 H1892 0.930 . S
C1902 C1900 1.419 . S
C1902 C1903 1.362 . S
C1903 H1893 0.930 . S
C1903 C1896 1.409 . S
C1903 C1902 1.362 . S
H1904 C1910 0.930 . S
H1905 C1913 0.930 . S
H1906 C1914 0.930 . S
H1907 C1915 0.930 . S
H1908 C1918 0.930 . S
H1909 C1919 0.930 . S
C1910 H1904 0.930 . S
C1910 C1911 1.355 . S
C1910 C1912 1.415 . S
C1911 C1910 1.355 . S
C1911 C1913 1.419 . S
C1912 C1910 1.415 . S
C1912 C1917 1.425 . S
C1912 C1919 1.409 . S
C1913 H1905 0.930 . S
C1913 C1911 1.419 . S
C1913 C1914 1.362 . S
C1914 H1906 0.930 . S
C1914 C1913 1.362 . S
C1914 C1917 1.409 . S
C1915 H1907 0.930 . S
C1915 C1916 1.355 . S
C1915 C1917 1.415 . S
C1916 C1915 1.355 . S
C1916 C1918 1.419 . S
C1917 C1912 1.425 . S
C1917 C1914 1.409 . S
C1917 C1915 1.415 . S
C1918 H1908 0.930 . S
C1918 C1916 1.419 . S
C1918 C1919 1.362 . S
C1919 H1909 0.930 . S
C1919 C1912 1.409 . S
C1919 C1918 1.362 . S
H1920 C1926 0.930 . S
H1921 C1929 0.930 . S
H1922 C1930 0.930 . S
H1923 C1931 0.930 . S
H1924 C1934 0.930 . S
H1925 C1935 0.930 . S
C1926 H1920 0.930 . S
C1926 C1927 1.355 . S
C1926 C1928 1.415 . S
C1927 C1926 1.355 . S
C1927 C1929 1.419 . S
C1928 C1926 1.415 . S
C1928 C1933 1.425 . S
C1928 C1935 1.409 . S
C1929 H1921 0.930 . S
C1929 C1927 1.419 . S
C1929 C1930 1.362 . S
C1930 H1922 0.930 . S
C1930 C1929 1.362 . S
C1930 C1933 1.409 . S
C1931 H1923 0.930 . S
C1931 C1932 1.355 . S
C1931 C1933 1.415 . S
C1932 C1931 1.355 . S
C1932 C1934 1.419 . S
C1933 C1928 1.425 . S
C1933 C1930 1.409 . S
C1933 C1931 1.415 . S
C1934 H1924 0.930 . S
C1934 C1932 1.419 . S
C1934 C1935 1.362 . S
C1935 H1925 0.930 . S
C1935 C1928 1.409 . S
C1935 C1934 1.362 . S
H1936 C1942 0.930 . S
H1937 C1945 0.930 . S
H1938 C1946 0.930 . S
H1939 C1947 0.930 . S
H1940 C1950 0.930 . S
H1941 C1951 0.930 . S
C1942 H1936 0.930 . S
C1942 C1943 1.355 . S
C1942 C1944 1.415 . S
C1943 C1942 1.355 . S
C1943 C1945 1.419 . S
C1944 C1942 1.415 . S
C1944 C1949 1.425 . S
C1944 C1951 1.409 . S
C1945 H1937 0.930 . S
C1945 C1943 1.419 . S
C1945 C1946 1.362 . S
C1946 H1938 0.930 . S
C1946 C1945 1.362 . S
C1946 C1949 1.409 . S
C1947 H1939 0.930 . S
C1947 C1948 1.355 . S
C1947 C1949 1.415 . S
C1948 C1947 1.355 . S
C1948 C1950 1.419 . S
C1949 C1944 1.425 . S
C1949 C1946 1.409 . S
C1949 C1947 1.415 . S
C1950 H1940 0.930 . S
C1950 C1948 1.419 . S
C1950 C1951 1.362 . S
C1951 H1941 0.930 . S
C1951 C1944 1.409 . S
C1951 C1950 1.362 . S
H1952 C1958 0.930 . S
H1953 C1961 0.930 . S
H1954 C1962 0.930 . S
H1955 C1963 0.930 . S
H1956 C1966 0.930 . S
H1957 C1967 0.930 . S
C1958 H1952 0.930 . S
C1958 C1959 1.355 . S
C1958 C1960 1.415 . S
C1959 C1958 1.355 . S
C1959 C1961 1.419 . S
C1960 C1958 1.415 . S
C1960 C1965 1.425 . S
C1960 C1967 1.409 . S
C1961 H1953 0.930 . S
C1961 C1959 1.419 . S
C1961 C1962 1.362 . S
C1962 H1954 0.930 . S
C1962 C1961 1.362 . S
C1962 C1965 1.409 . S
C1963 H1955 0.930 . S
C1963 C1964 1.355 . S
C1963 C1965 1.415 . S
C1964 C1963 1.355 . S
C1964 C1966 1.419 . S
C1965 C1960 1.425 . S
C1965 C1962 1.409 . S
C1965 C1963 1.415 . S
C1966 H1956 0.930 . S
C1966 C1964 1.419 . S
C1966 C1967 1.362 . S
C1967 H1957 0.930 . S
C1967 C1960 1.409 . S
C1967 C1966 1.362 . S
H1968 C1974 0.930 . S
H1969 C1977 0.930 . S
H1970 C1978 0.930 . S
H1971 C1979 0.930 . S
H1972 C1982 0.930 . S
H1973 C1983 0.930 . S
C1974 H1968 0.930 . S
C1974 C1975 1.355 . S
C1974 C1976 1.415 . S
C1975 C1974 1.355 . S
C1975 C1977 1.419 . S
C1976 C1974 1.415 . S
C1976 C1981 1.425 . S
C1976 C1983 1.409 1_556 S
C1977 H1969 0.930 . S
C1977 C1975 1.419 . S
C1977 C1978 1.362 . S
C1978 H1970 0.930 . S
C1978 C1977 1.362 . S
C1978 C1981 1.409 . S
C1979 H1971 0.930 . S
C1979 C1980 1.355 . S
C1979 C1981 1.415 1_554 S
C1980 C1979 1.355 . S
C1980 C1982 1.419 . S
C1981 C1976 1.425 . S
C1981 C1978 1.409 . S
C1981 C1979 1.415 1_556 S
C1982 H1972 0.930 . S
C1982 C1980 1.419 . S
C1982 C1983 1.362 . S
C1983 H1973 0.930 . S
C1983 C1976 1.409 1_554 S
C1983 C1982 1.362 . S
H1984 C1990 0.930 . S
H1985 C1993 0.930 . S
H1986 C1994 0.930 . S
H1987 C1995 0.930 . S
H1988 C1998 0.930 . S
H1989 C1999 0.930 . S
C1990 H1984 0.930 . S
C1990 C1991 1.355 . S
C1990 C1992 1.415 . S
C1991 C1990 1.355 . S
C1991 C1993 1.419 . S
C1992 C1990 1.415 . S
C1992 C1997 1.425 . S
C1992 C1999 1.409 1_556 S
C1993 H1985 0.930 . S
C1993 C1991 1.419 . S
C1993 C1994 1.362 . S
C1994 H1986 0.930 . S
C1994 C1993 1.362 . S
C1994 C1997 1.409 . S
C1995 H1987 0.930 . S
C1995 C1996 1.355 . S
C1995 C1997 1.415 1_554 S
C1996 C1995 1.355 . S
C1996 C1998 1.419 . S
C1997 C1992 1.425 . S
C1997 C1994 1.409 . S
C1997 C1995 1.415 1_556 S
C1998 H1988 0.930 . S
C1998 C1996 1.419 . S
C1998 C1999 1.362 . S
C1999 H1989 0.930 . S
C1999 C1992 1.409 1_554 S
C1999 C1998 1.362 . S
H2000 C2006 0.930 . S
H2001 C2009 0.930 . S
H2002 C2010 0.930 . S
H2003 C2011 0.930 . S
H2004 C2014 0.930 . S
H2005 C2015 0.930 . S
C2006 H2000 0.930 . S
C2006 C2007 1.355 . S
C2006 C2008 1.415 . S
C2007 C2006 1.355 . S
C2007 C2009 1.419 . S
C2008 C2006 1.415 . S
C2008 C2013 1.425 . S
C2008 C2015 1.409 1_556 S
C2009 H2001 0.930 . S
C2009 C2007 1.419 . S
C2009 C2010 1.362 . S
C2010 H2002 0.930 . S
C2010 C2009 1.362 . S
C2010 C2013 1.409 . S
C2011 H2003 0.930 . S
C2011 C2012 1.355 . S
C2011 C2013 1.415 1_554 S
C2012 C2011 1.355 . S
C2012 C2014 1.419 . S
C2013 C2008 1.425 . S
C2013 C2010 1.409 . S
C2013 C2011 1.415 1_556 S
C2014 H2004 0.930 . S
C2014 C2012 1.419 . S
C2014 C2015 1.362 . S
C2015 H2005 0.930 . S
C2015 C2008 1.409 1_554 S
C2015 C2014 1.362 . S
H2016 C2022 0.930 . S
H2017 C2025 0.930 . S
H2018 C2026 0.930 . S
H2019 C2027 0.930 . S
H2020 C2030 0.930 . S
H2021 C2031 0.930 . S
C2022 H2016 0.930 . S
C2022 C2023 1.355 . S
C2022 C2024 1.415 . S
C2023 C2022 1.355 . S
C2023 C2025 1.419 . S
C2024 C2022 1.415 . S
C2024 C2029 1.425 . S
C2024 C2031 1.409 . S
C2025 H2017 0.930 . S
C2025 C2023 1.419 . S
C2025 C2026 1.362 . S
C2026 H2018 0.930 . S
C2026 C2025 1.362 . S
C2026 C2029 1.409 . S
C2027 H2019 0.930 . S
C2027 C2028 1.355 . S
C2027 C2029 1.415 . S
C2028 C2027 1.355 . S
C2028 C2030 1.419 . S
C2029 C2024 1.425 . S
C2029 C2026 1.409 . S
C2029 C2027 1.415 . S
C2030 H2020 0.930 . S
C2030 C2028 1.419 . S
C2030 C2031 1.362 . S
C2031 H2021 0.930 . S
C2031 C2024 1.409 . S
C2031 C2030 1.362 . S
H2032 C2038 0.930 . S
H2033 C2041 0.930 . S
H2034 C2042 0.930 . S
H2035 C2043 0.930 . S
H2036 C2046 0.930 . S
H2037 C2047 0.930 . S
C2038 H2032 0.930 . S
C2038 C2039 1.355 . S
C2038 C2040 1.415 . S
C2039 C2038 1.355 . S
C2039 C2041 1.419 . S
C2040 C2038 1.415 . S
C2040 C2045 1.425 . S
C2040 C2047 1.409 . S
C2041 H2033 0.930 . S
C2041 C2039 1.419 . S
C2041 C2042 1.362 . S
C2042 H2034 0.930 . S
C2042 C2041 1.362 . S
C2042 C2045 1.409 . S
C2043 H2035 0.930 . S
C2043 C2044 1.355 . S
C2043 C2045 1.415 . S
C2044 C2043 1.355 . S
C2044 C2046 1.419 . S
C2045 C2040 1.425 . S
C2045 C2042 1.409 . S
C2045 C2043 1.415 . S
C2046 H2036 0.930 . S
C2046 C2044 1.419 . S
C2046 C2047 1.362 . S
C2047 H2037 0.930 . S
C2047 C2040 1.409 . S
C2047 C2046 1.362 . S
H2048 C2054 0.930 . S
H2049 C2057 0.930 . S
H2050 C2058 0.930 . S
H2051 C2059 0.930 . S
H2052 C2062 0.930 . S
H2053 C2063 0.930 . S
C2054 H2048 0.930 . S
C2054 C2055 1.355 . S
C2054 C2056 1.415 . S
C2055 C2054 1.355 . S
C2055 C2057 1.419 . S
C2056 C2054 1.415 . S
C2056 C2061 1.425 . S
C2056 C2063 1.409 . S
C2057 H2049 0.930 . S
C2057 C2055 1.419 . S
C2057 C2058 1.362 . S
C2058 H2050 0.930 . S
C2058 C2057 1.362 . S
C2058 C2061 1.409 . S
C2059 H2051 0.930 . S
C2059 C2060 1.355 . S
C2059 C2061 1.415 . S
C2060 C2059 1.355 . S
C2060 C2062 1.419 . S
C2061 C2056 1.425 . S
C2061 C2058 1.409 . S
C2061 C2059 1.415 . S
C2062 H2052 0.930 . S
C2062 C2060 1.419 . S
C2062 C2063 1.362 . S
C2063 H2053 0.930 . S
C2063 C2056 1.409 . S
C2063 C2062 1.362 . S
H2064 C2070 0.930 . S
H2065 C2073 0.930 . S
H2066 C2074 0.930 . S
H2067 C2075 0.929 . S
H2068 C2078 0.930 . S
H2069 C2079 0.930 . S
C2070 H2064 0.930 . S
C2070 C2071 1.355 . S
C2070 C2072 1.415 . S
C2071 C2070 1.355 . S
C2071 C2073 1.419 . S
C2072 C2070 1.415 . S
C2072 C2077 1.425 . S
C2072 C2079 1.406 1_556 S
C2073 H2065 0.930 . S
C2073 C2071 1.419 . S
C2073 C2074 1.362 . S
C2074 H2066 0.930 . S
C2074 C2073 1.362 . S
C2074 C2077 1.409 . S
C2075 H2067 0.929 . S
C2075 C2076 1.356 . S
C2075 C2077 1.414 1_554 S
C2076 C2075 1.356 . S
C2076 C2078 1.419 . S
C2077 C2072 1.425 . S
C2077 C2074 1.409 . S
C2077 C2075 1.414 1_556 S
C2078 H2068 0.930 . S
C2078 C2076 1.419 . S
C2078 C2079 1.365 . S
C2079 H2069 0.930 . S
C2079 C2072 1.406 1_554 S
C2079 C2078 1.365 . S
H2080 C2086 0.930 . S
H2081 C2089 0.930 . S
H2082 C2090 0.930 . S
H2083 C2091 0.930 . S
H2084 C2094 0.930 . S
H2085 C2095 0.930 . S
C2086 H2080 0.930 . S
C2086 C2087 1.355 . S
C2086 C2088 1.415 . S
C2087 C2086 1.355 . S
C2087 C2089 1.419 . S
C2088 C2086 1.415 . S
C2088 C2093 1.425 . S
C2088 C2095 1.409 . S
C2089 H2081 0.930 . S
C2089 C2087 1.419 . S
C2089 C2090 1.362 . S
C2090 H2082 0.930 . S
C2090 C2089 1.362 . S
C2090 C2093 1.409 . S
C2091 H2083 0.930 . S
C2091 C2092 1.355 . S
C2091 C2093 1.415 1_554 S
C2092 C2091 1.355 . S
C2092 C2094 1.419 . S
C2093 C2088 1.425 . S
C2093 C2090 1.409 . S
C2093 C2091 1.415 1_556 S
C2094 H2084 0.930 . S
C2094 C2092 1.419 . S
C2094 C2095 1.362 1_554 S
C2095 H2085 0.930 . S
C2095 C2088 1.409 . S
C2095 C2094 1.362 1_556 S
H2096 C2102 0.930 . S
H2097 C2105 0.930 . S
H2098 C2106 0.930 . S
H2099 C2107 0.930 . S
H2100 C2110 0.930 . S
H2101 C2111 0.930 . S
C2102 H2096 0.930 . S
C2102 C2103 1.355 . S
C2102 C2104 1.415 1_554 S
C2103 C2102 1.355 . S
C2103 C2105 1.419 . S
C2104 C2102 1.415 1_556 S
C2104 C2109 1.425 . S
C2104 C2111 1.409 . S
C2105 H2097 0.930 . S
C2105 C2103 1.419 . S
C2105 C2106 1.362 1_554 S
C2106 H2098 0.930 . S
C2106 C2105 1.362 1_556 S
C2106 C2109 1.409 . S
C2107 H2099 0.930 . S
C2107 C2108 1.355 . S
C2107 C2109 1.415 . S
C2108 C2107 1.355 . S
C2108 C2110 1.419 . S
C2109 C2104 1.425 . S
C2109 C2106 1.409 . S
C2109 C2107 1.415 . S
C2110 H2100 0.930 . S
C2110 C2108 1.419 . S
C2110 C2111 1.362 . S
C2111 H2101 0.930 . S
C2111 C2104 1.409 . S
C2111 C2110 1.362 . S
H2112 C2118 0.930 . S
H2113 C2121 0.930 . S
H2114 C2122 0.930 . S
H2115 C2123 0.930 . S
H2116 C2126 0.930 . S
H2117 C2127 0.930 . S
C2118 H2112 0.930 . S
C2118 C2119 1.355 . S
C2118 C2120 1.415 . S
C2119 C2118 1.355 . S
C2119 C2121 1.419 . S
C2120 C2118 1.415 . S
C2120 C2125 1.425 . S
C2120 C2127 1.409 . S
C2121 H2113 0.930 . S
C2121 C2119 1.419 . S
C2121 C2122 1.362 . S
C2122 H2114 0.930 . S
C2122 C2121 1.362 . S
C2122 C2125 1.409 . S
C2123 H2115 0.930 . S
C2123 C2124 1.355 . S
C2123 C2125 1.415 . S
C2124 C2123 1.355 . S
C2124 C2126 1.419 . S
C2125 C2120 1.425 . S
C2125 C2122 1.409 . S
C2125 C2123 1.415 . S
C2126 H2116 0.930 . S
C2126 C2124 1.419 . S
C2126 C2127 1.362 . S
C2127 H2117 0.930 . S
C2127 C2120 1.409 . S
C2127 C2126 1.362 . S
H2128 C2134 0.930 . S
H2129 C2137 0.930 . S
H2130 C2138 0.930 . S
H2131 C2139 0.930 . S
H2132 C2142 0.930 . S
H2133 C2143 0.930 . S
C2134 H2128 0.930 . S
C2134 C2135 1.355 . S
C2134 C2136 1.415 . S
C2135 C2134 1.355 . S
C2135 C2137 1.419 . S
C2136 C2134 1.415 . S
C2136 C2141 1.425 . S
C2136 C2143 1.409 . S
C2137 H2129 0.930 . S
C2137 C2135 1.419 . S
C2137 C2138 1.362 . S
C2138 H2130 0.930 . S
C2138 C2137 1.362 . S
C2138 C2141 1.409 . S
C2139 H2131 0.930 . S
C2139 C2140 1.355 . S
C2139 C2141 1.415 . S
C2140 C2139 1.355 . S
C2140 C2142 1.419 . S
C2141 C2136 1.425 . S
C2141 C2138 1.409 . S
C2141 C2139 1.415 . S
C2142 H2132 0.930 . S
C2142 C2140 1.419 . S
C2142 C2143 1.362 . S
C2143 H2133 0.930 . S
C2143 C2136 1.409 . S
C2143 C2142 1.362 . S
H2144 C2150 0.930 . S
H2145 C2153 0.930 . S
H2146 C2154 0.930 . S
H2147 C2155 0.930 . S
H2148 C2158 0.930 . S
H2149 C2159 0.930 . S
C2150 H2144 0.930 . S
C2150 C2151 1.355 . S
C2150 C2152 1.415 . S
C2151 C2150 1.355 . S
C2151 C2153 1.419 . S
C2152 C2150 1.415 . S
C2152 C2157 1.425 . S
C2152 C2159 1.409 . S
C2153 H2145 0.930 . S
C2153 C2151 1.419 . S
C2153 C2154 1.362 . S
C2154 H2146 0.930 . S
C2154 C2153 1.362 . S
C2154 C2157 1.409 . S
C2155 H2147 0.930 . S
C2155 C2156 1.355 . S
C2155 C2157 1.415 . S
C2156 C2155 1.355 . S
C2156 C2158 1.419 . S
C2157 C2152 1.425 . S
C2157 C2154 1.409 . S
C2157 C2155 1.415 . S
C2158 H2148 0.930 . S
C2158 C2156 1.419 . S
C2158 C2159 1.362 . S
C2159 H2149 0.930 . S
C2159 C2152 1.409 . S
C2159 C2158 1.362 . S
H2160 C2166 0.930 . S
H2161 C2169 0.930 . S
H2162 C2170 0.930 . S
H2163 C2171 0.930 . S
H2164 C2174 0.930 . S
H2165 C2175 0.930 . S
C2166 H2160 0.930 . S
C2166 C2167 1.355 . S
C2166 C2168 1.415 . S
C2167 C2166 1.355 . S
C2167 C2169 1.419 . S
C2168 C2166 1.415 . S
C2168 C2173 1.425 . S
C2168 C2175 1.409 . S
C2169 H2161 0.930 . S
C2169 C2167 1.419 . S
C2169 C2170 1.362 . S
C2170 H2162 0.930 . S
C2170 C2169 1.362 . S
C2170 C2173 1.409 . S
C2171 H2163 0.930 . S
C2171 C2172 1.355 . S
C2171 C2173 1.415 . S
C2172 C2171 1.355 . S
C2172 C2174 1.419 . S
C2173 C2168 1.425 . S
C2173 C2170 1.409 . S
C2173 C2171 1.415 . S
C2174 H2164 0.930 . S
C2174 C2172 1.419 . S
C2174 C2175 1.362 . S
C2175 H2165 0.930 . S
C2175 C2168 1.409 . S
C2175 C2174 1.362 . S
H2176 C2182 0.930 . S
H2177 C2185 0.930 . S
H2178 C2186 0.930 . S
H2179 C2187 0.930 . S
H2180 C2190 0.930 . S
H2181 C2191 0.930 . S
C2182 H2176 0.930 . S
C2182 C2183 1.355 . S
C2182 C2184 1.415 . S
C2183 C2182 1.355 . S
C2183 C2185 1.419 . S
C2184 C2182 1.415 . S
C2184 C2189 1.425 . S
C2184 C2191 1.409 . S
C2185 H2177 0.930 . S
C2185 C2183 1.419 . S
C2185 C2186 1.362 . S
C2186 H2178 0.930 . S
C2186 C2185 1.362 . S
C2186 C2189 1.409 . S
C2187 H2179 0.930 . S
C2187 C2188 1.355 . S
C2187 C2189 1.415 . S
C2188 C2187 1.355 . S
C2188 C2190 1.419 . S
C2189 C2184 1.425 . S
C2189 C2186 1.409 . S
C2189 C2187 1.415 . S
C2190 H2180 0.930 . S
C2190 C2188 1.419 . S
C2190 C2191 1.362 . S
C2191 H2181 0.930 . S
C2191 C2184 1.409 . S
C2191 C2190 1.362 . S
H2192 C2198 0.930 . S
H2193 C2201 0.930 . S
H2194 C2202 0.930 . S
H2195 C2203 0.930 . S
H2196 C2206 0.930 . S
H2197 C2207 0.930 . S
C2198 H2192 0.930 . S
C2198 C2199 1.355 . S
C2198 C2200 1.415 . S
C2199 C2198 1.355 . S
C2199 C2201 1.419 . S
C2200 C2198 1.415 . S
C2200 C2205 1.425 . S
C2200 C2207 1.409 . S
C2201 H2193 0.930 . S
C2201 C2199 1.419 . S
C2201 C2202 1.362 . S
C2202 H2194 0.930 . S
C2202 C2201 1.362 . S
C2202 C2205 1.409 . S
C2203 H2195 0.930 . S
C2203 C2204 1.355 . S
C2203 C2205 1.415 . S
C2204 C2203 1.355 . S
C2204 C2206 1.419 . S
C2205 C2200 1.425 . S
C2205 C2202 1.409 . S
C2205 C2203 1.415 . S
C2206 H2196 0.930 . S
C2206 C2204 1.419 . S
C2206 C2207 1.362 . S
C2207 H2197 0.930 . S
C2207 C2200 1.409 . S
C2207 C2206 1.362 . S
H2208 C2214 0.930 . S
H2209 C2217 0.930 . S
H2210 C2218 0.930 . S
H2211 C2219 0.930 . S
H2212 C2222 0.930 . S
H2213 C2223 0.930 1_556 S
C2214 H2208 0.930 . S
C2214 C2215 1.355 . S
C2214 C2216 1.415 . S
C2215 C2214 1.355 . S
C2215 C2217 1.419 . S
C2216 C2214 1.415 . S
C2216 C2221 1.425 1_556 S
C2216 C2223 1.409 1_556 S
C2217 H2209 0.930 . S
C2217 C2215 1.419 . S
C2217 C2218 1.362 1_556 S
C2218 H2210 0.930 . S
C2218 C2217 1.362 1_554 S
C2218 C2221 1.409 . S
C2219 H2211 0.930 . S
C2219 C2220 1.355 . S
C2219 C2221 1.415 . S
C2220 C2219 1.355 . S
C2220 C2222 1.419 . S
C2221 C2216 1.425 1_554 S
C2221 C2218 1.409 . S
C2221 C2219 1.415 . S
C2222 H2212 0.930 . S
C2222 C2220 1.419 . S
C2222 C2223 1.362 . S
C2223 H2213 0.930 1_554 S
C2223 C2216 1.409 1_554 S
C2223 C2222 1.362 . S
H2224 C2230 0.930 . S
H2225 C2233 0.930 . S
H2226 C2234 0.930 1_554 S
H2227 C2235 0.930 . S
H2228 C2238 0.930 . S
H2229 C2239 0.930 . S
C2230 H2224 0.930 . S
C2230 C2231 1.355 . S
C2230 C2232 1.420 . S
C2231 C2230 1.355 . S
C2231 C2233 1.419 . S
C2232 C2230 1.420 . S
C2232 C2237 1.423 1_556 S
C2232 C2239 1.406 1_556 S
C2233 H2225 0.930 . S
C2233 C2231 1.419 . S
C2233 C2234 1.362 . S
C2234 H2226 0.930 1_556 S
C2234 C2233 1.362 . S
C2234 C2237 1.409 1_556 S
C2235 H2227 0.930 . S
C2235 C2236 1.355 . S
C2235 C2237 1.415 . S
C2236 C2235 1.355 . S
C2236 C2238 1.419 . S
C2237 C2232 1.423 1_554 S
C2237 C2234 1.409 1_554 S
C2237 C2235 1.415 . S
C2238 H2228 0.930 . S
C2238 C2236 1.419 . S
C2238 C2239 1.362 . S
C2239 H2229 0.930 . S
C2239 C2232 1.406 1_554 S
C2239 C2238 1.362 . S
H2240 C2246 0.930 . S
H2241 C2249 0.930 . S
H2242 C2250 0.930 . S
H2243 C2251 0.930 . S
H2244 C2254 0.930 . S
H2245 C2255 0.930 1_556 S
C2246 H2240 0.930 . S
C2246 C2247 1.355 . S
C2246 C2248 1.415 . S
C2247 C2246 1.355 . S
C2247 C2249 1.419 . S
C2248 C2246 1.415 . S
C2248 C2253 1.425 1_556 S
C2248 C2255 1.409 1_556 S
C2249 H2241 0.930 . S
C2249 C2247 1.419 . S
C2249 C2250 1.362 1_556 S
C2250 H2242 0.930 . S
C2250 C2249 1.362 1_554 S
C2250 C2253 1.409 . S
C2251 H2243 0.930 . S
C2251 C2252 1.355 . S
C2251 C2253 1.415 . S
C2252 C2251 1.355 . S
C2252 C2254 1.419 . S
C2253 C2248 1.425 1_554 S
C2253 C2250 1.409 . S
C2253 C2251 1.415 . S
C2254 H2244 0.930 . S
C2254 C2252 1.419 . S
C2254 C2255 1.362 . S
C2255 H2245 0.930 1_554 S
C2255 C2248 1.409 1_554 S
C2255 C2254 1.362 . S
H2256 C2262 0.930 . S
H2257 C2265 0.930 . S
H2258 C2266 0.930 . S
H2259 C2267 0.930 . S
H2260 C2270 0.930 . S
H2261 C2271 0.930 . S
C2262 H2256 0.930 . S
C2262 C2263 1.355 . S
C2262 C2264 1.415 . S
C2263 C2262 1.355 . S
C2263 C2265 1.419 . S
C2264 C2262 1.415 . S
C2264 C2269 1.425 . S
C2264 C2271 1.409 . S
C2265 H2257 0.930 . S
C2265 C2263 1.419 . S
C2265 C2266 1.362 . S
C2266 H2258 0.930 . S
C2266 C2265 1.362 . S
C2266 C2269 1.409 . S
C2267 H2259 0.930 . S
C2267 C2268 1.355 . S
C2267 C2269 1.415 . S
C2268 C2267 1.355 . S
C2268 C2270 1.419 . S
C2269 C2264 1.425 . S
C2269 C2266 1.409 . S
C2269 C2267 1.415 . S
C2270 H2260 0.930 . S
C2270 C2268 1.419 . S
C2270 C2271 1.362 . S
C2271 H2261 0.930 . S
C2271 C2264 1.409 . S
C2271 C2270 1.362 . S
H2272 C2278 0.930 . S
H2273 C2281 0.930 . S
H2274 C2282 0.930 . S
H2275 C2283 0.930 . S
H2276 C2286 0.930 . S
H2277 C2287 0.930 . S
C2278 H2272 0.930 . S
C2278 C2279 1.355 . S
C2278 C2280 1.415 . S
C2279 C2278 1.355 . S
C2279 C2281 1.419 . S
C2280 C2278 1.415 . S
C2280 C2285 1.425 . S
C2280 C2287 1.409 . S
C2281 H2273 0.930 . S
C2281 C2279 1.419 . S
C2281 C2282 1.362 . S
C2282 H2274 0.930 . S
C2282 C2281 1.362 . S
C2282 C2285 1.409 . S
C2283 H2275 0.930 . S
C2283 C2284 1.355 . S
C2283 C2285 1.415 . S
C2284 C2283 1.355 . S
C2284 C2286 1.419 . S
C2285 C2280 1.425 . S
C2285 C2282 1.409 . S
C2285 C2283 1.415 . S
C2286 H2276 0.930 . S
C2286 C2284 1.419 . S
C2286 C2287 1.362 . S
C2287 H2277 0.930 . S
C2287 C2280 1.409 . S
C2287 C2286 1.362 . S
H2288 C2294 0.930 . S
H2289 C2297 0.930 . S
H2290 C2298 0.930 . S
H2291 C2299 0.930 . S
H2292 C2302 0.930 . S
H2293 C2303 0.930 . S
C2294 H2288 0.930 . S
C2294 C2295 1.355 . S
C2294 C2296 1.415 . S
C2295 C2294 1.355 . S
C2295 C2297 1.419 . S
C2296 C2294 1.415 . S
C2296 C2301 1.425 . S
C2296 C2303 1.409 . S
C2297 H2289 0.930 . S
C2297 C2295 1.419 . S
C2297 C2298 1.362 . S
C2298 H2290 0.930 . S
C2298 C2297 1.362 . S
C2298 C2301 1.409 . S
C2299 H2291 0.930 . S
C2299 C2300 1.355 . S
C2299 C2301 1.415 . S
C2300 C2299 1.355 . S
C2300 C2302 1.419 . S
C2301 C2296 1.425 . S
C2301 C2298 1.409 . S
C2301 C2299 1.415 . S
C2302 H2292 0.930 . S
C2302 C2300 1.419 . S
C2302 C2303 1.362 . S
C2303 H2293 0.930 . S
C2303 C2296 1.409 . S
C2303 C2302 1.362 . S
H2304 C2310 0.930 . S
H2305 C2313 0.930 . S
H2306 C2314 0.930 . S
H2307 C2315 0.930 . S
H2308 C2318 0.930 . S
H2309 C2319 0.930 . S
C2310 H2304 0.930 . S
C2310 C2311 1.355 . S
C2310 C2312 1.415 . S
C2311 C2310 1.355 . S
C2311 C2313 1.419 . S
C2312 C2310 1.415 . S
C2312 C2317 1.425 . S
C2312 C2319 1.409 . S
C2313 H2305 0.930 . S
C2313 C2311 1.419 . S
C2313 C2314 1.362 . S
C2314 H2306 0.930 . S
C2314 C2313 1.362 . S
C2314 C2317 1.409 . S
C2315 H2307 0.930 . S
C2315 C2316 1.355 . S
C2315 C2317 1.415 . S
C2316 C2315 1.355 . S
C2316 C2318 1.419 . S
C2317 C2312 1.425 . S
C2317 C2314 1.409 . S
C2317 C2315 1.415 . S
C2318 H2308 0.930 . S
C2318 C2316 1.419 . S
C2318 C2319 1.362 . S
C2319 H2309 0.930 . S
C2319 C2312 1.409 . S
C2319 C2318 1.362 . S
H2320 C2326 0.930 . S
H2321 C2329 0.930 . S
H2322 C2330 0.930 . S
H2323 C2331 0.930 . S
H2324 C2334 0.930 . S
H2325 C2335 0.930 . S
C2326 H2320 0.930 . S
C2326 C2327 1.355 . S
C2326 C2328 1.415 . S
C2327 C2326 1.355 . S
C2327 C2329 1.419 . S
C2328 C2326 1.415 . S
C2328 C2333 1.425 . S
C2328 C2335 1.409 . S
C2329 H2321 0.930 . S
C2329 C2327 1.419 . S
C2329 C2330 1.362 . S
C2330 H2322 0.930 . S
C2330 C2329 1.362 . S
C2330 C2333 1.409 . S
C2331 H2323 0.930 . S
C2331 C2332 1.355 . S
C2331 C2333 1.415 . S
C2332 C2331 1.355 . S
C2332 C2334 1.419 . S
C2333 C2328 1.425 . S
C2333 C2330 1.409 . S
C2333 C2331 1.415 . S
C2334 H2324 0.930 . S
C2334 C2332 1.419 . S
C2334 C2335 1.362 . S
C2335 H2325 0.930 . S
C2335 C2328 1.409 . S
C2335 C2334 1.362 . S
H2336 C2342 0.930 . S
H2337 C2345 0.930 . S
H2338 C2346 0.930 . S
H2339 C2347 0.930 . S
H2340 C2350 0.930 . S
H2341 C2351 0.930 . S
C2342 H2336 0.930 . S
C2342 C2343 1.355 . S
C2342 C2344 1.415 . S
C2343 C2342 1.355 . S
C2343 C2345 1.419 . S
C2344 C2342 1.415 . S
C2344 C2349 1.425 . S
C2344 C2351 1.409 . S
C2345 H2337 0.930 . S
C2345 C2343 1.419 . S
C2345 C2346 1.362 . S
C2346 H2338 0.930 . S
C2346 C2345 1.362 . S
C2346 C2349 1.409 . S
C2347 H2339 0.930 . S
C2347 C2348 1.355 . S
C2347 C2349 1.415 . S
C2348 C2347 1.355 . S
C2348 C2350 1.419 . S
C2349 C2344 1.425 . S
C2349 C2346 1.409 . S
C2349 C2347 1.415 . S
C2350 H2340 0.930 . S
C2350 C2348 1.419 . S
C2350 C2351 1.362 . S
C2351 H2341 0.930 . S
C2351 C2344 1.409 . S
C2351 C2350 1.362 . S
H2352 C2358 0.930 . S
H2353 C2361 0.930 . S
H2354 C2362 0.930 . S
H2355 C2363 0.930 . S
H2356 C2366 0.930 . S
H2357 C2367 0.930 . S
C2358 H2352 0.930 . S
C2358 C2359 1.355 . S
C2358 C2360 1.415 . S
C2359 C2358 1.355 . S
C2359 C2361 1.419 . S
C2360 C2358 1.415 . S
C2360 C2365 1.425 . S
C2360 C2367 1.409 . S
C2361 H2353 0.930 . S
C2361 C2359 1.419 . S
C2361 C2362 1.362 . S
C2362 H2354 0.930 . S
C2362 C2361 1.362 . S
C2362 C2365 1.409 . S
C2363 H2355 0.930 . S
C2363 C2364 1.355 . S
C2363 C2365 1.415 . S
C2364 C2363 1.355 . S
C2364 C2366 1.419 . S
C2365 C2360 1.425 . S
C2365 C2362 1.409 . S
C2365 C2363 1.415 . S
C2366 H2356 0.930 . S
C2366 C2364 1.419 . S
C2366 C2367 1.362 . S
C2367 H2357 0.930 . S
C2367 C2360 1.409 . S
C2367 C2366 1.362 . S
H2368 C2374 0.930 . S
H2369 C2377 0.930 . S
H2370 C2378 0.930 . S
H2371 C2379 0.930 . S
H2372 C2382 0.930 . S
H2373 C2383 0.930 . S
C2374 H2368 0.930 . S
C2374 C2375 1.355 . S
C2374 C2376 1.415 . S
C2375 C2374 1.355 . S
C2375 C2377 1.419 . S
C2376 C2374 1.415 . S
C2376 C2381 1.425 . S
C2376 C2383 1.409 . S
C2377 H2369 0.930 . S
C2377 C2375 1.419 . S
C2377 C2378 1.362 . S
C2378 H2370 0.930 . S
C2378 C2377 1.362 . S
C2378 C2381 1.409 . S
C2379 H2371 0.930 . S
C2379 C2380 1.355 . S
C2379 C2381 1.415 . S
C2380 C2379 1.355 . S
C2380 C2382 1.419 . S
C2381 C2376 1.425 . S
C2381 C2378 1.409 . S
C2381 C2379 1.415 . S
C2382 H2372 0.930 . S
C2382 C2380 1.419 . S
C2382 C2383 1.362 . S
C2383 H2373 0.930 . S
C2383 C2376 1.409 . S
C2383 C2382 1.362 . S
H2384 C2390 0.930 . S
H2385 C2393 0.930 . S
H2386 C2394 0.930 . S
H2387 C2395 0.930 . S
H2388 C2398 0.930 . S
H2389 C2399 0.930 . S
C2390 H2384 0.930 . S
C2390 C2391 1.355 . S
C2390 C2392 1.415 . S
C2391 C2390 1.355 . S
C2391 C2393 1.419 . S
C2392 C2390 1.415 . S
C2392 C2397 1.425 . S
C2392 C2399 1.409 . S
C2393 H2385 0.930 . S
C2393 C2391 1.419 . S
C2393 C2394 1.362 . S
C2394 H2386 0.930 . S
C2394 C2393 1.362 . S
C2394 C2397 1.409 . S
C2395 H2387 0.930 . S
C2395 C2396 1.355 . S
C2395 C2397 1.415 . S
C2396 C2395 1.355 . S
C2396 C2398 1.419 . S
C2397 C2392 1.425 . S
C2397 C2394 1.409 . S
C2397 C2395 1.415 . S
C2398 H2388 0.930 . S
C2398 C2396 1.419 . S
C2398 C2399 1.362 . S
C2399 H2389 0.930 . S
C2399 C2392 1.409 . S
C2399 C2398 1.362 . S
H2400 C2406 0.930 . S
H2401 C2409 0.930 . S
H2402 C2410 0.930 . S
H2403 C2411 0.930 . S
H2404 C2414 0.930 . S
H2405 C2415 0.930 . S
C2406 H2400 0.930 . S
C2406 C2407 1.355 . S
C2406 C2408 1.415 . S
C2407 C2406 1.355 . S
C2407 C2409 1.419 . S
C2408 C2406 1.415 . S
C2408 C2413 1.425 . S
C2408 C2415 1.409 . S
C2409 H2401 0.930 . S
C2409 C2407 1.419 . S
C2409 C2410 1.362 . S
C2410 H2402 0.930 . S
C2410 C2409 1.362 . S
C2410 C2413 1.409 . S
C2411 H2403 0.930 . S
C2411 C2412 1.355 . S
C2411 C2413 1.415 . S
C2412 C2411 1.355 . S
C2412 C2414 1.419 . S
C2413 C2408 1.425 . S
C2413 C2410 1.409 . S
C2413 C2411 1.415 . S
C2414 H2404 0.930 . S
C2414 C2412 1.419 . S
C2414 C2415 1.362 . S
C2415 H2405 0.930 . S
C2415 C2408 1.409 . S
C2415 C2414 1.362 . S
H2416 C2422 0.930 . S
H2417 C2425 0.930 . S
H2418 C2426 0.930 . S
H2419 C2427 0.930 . S
H2420 C2430 0.930 . S
H2421 C2431 0.930 . S
C2422 H2416 0.930 . S
C2422 C2423 1.355 . S
C2422 C2424 1.415 . S
C2423 C2422 1.355 . S
C2423 C2425 1.419 . S
C2424 C2422 1.415 . S
C2424 C2429 1.425 . S
C2424 C2431 1.409 . S
C2425 H2417 0.930 . S
C2425 C2423 1.419 . S
C2425 C2426 1.362 . S
C2426 H2418 0.930 . S
C2426 C2425 1.362 . S
C2426 C2429 1.409 . S
C2427 H2419 0.930 . S
C2427 C2428 1.355 . S
C2427 C2429 1.415 . S
C2428 C2427 1.355 . S
C2428 C2430 1.419 . S
C2429 C2424 1.425 . S
C2429 C2426 1.409 . S
C2429 C2427 1.415 . S
C2430 H2420 0.930 . S
C2430 C2428 1.419 . S
C2430 C2431 1.362 . S
C2431 H2421 0.930 . S
C2431 C2424 1.409 . S
C2431 C2430 1.362 . S
H2432 C2438 0.930 . S
H2433 C2441 0.930 . S
H2434 C2442 0.930 . S
H2435 C2443 0.930 . S
H2436 C2446 0.930 . S
H2437 C2447 0.930 . S
C2438 H2432 0.930 . S
C2438 C2439 1.355 . S
C2438 C2440 1.415 . S
C2439 C2438 1.355 . S
C2439 C2441 1.419 . S
C2440 C2438 1.415 . S
C2440 C2445 1.425 . S
C2440 C2447 1.409 . S
C2441 H2433 0.930 . S
C2441 C2439 1.419 . S
C2441 C2442 1.362 . S
C2442 H2434 0.930 . S
C2442 C2441 1.362 . S
C2442 C2445 1.409 . S
C2443 H2435 0.930 . S
C2443 C2444 1.355 . S
C2443 C2445 1.415 . S
C2444 C2443 1.355 . S
C2444 C2446 1.419 . S
C2445 C2440 1.425 . S
C2445 C2442 1.409 . S
C2445 C2443 1.415 . S
C2446 H2436 0.930 . S
C2446 C2444 1.419 . S
C2446 C2447 1.362 . S
C2447 H2437 0.930 . S
C2447 C2440 1.409 . S
C2447 C2446 1.362 . S
H2448 C2454 0.930 . S
H2449 C2457 0.930 . S
H2450 C2458 0.930 . S
H2451 C2459 0.930 . S
H2452 C2462 0.930 . S
H2453 C2463 0.930 . S
C2454 H2448 0.930 . S
C2454 C2455 1.355 . S
C2454 C2456 1.415 . S
C2455 C2454 1.355 . S
C2455 C2457 1.419 . S
C2456 C2454 1.415 . S
C2456 C2461 1.425 . S
C2456 C2463 1.409 . S
C2457 H2449 0.930 . S
C2457 C2455 1.419 . S
C2457 C2458 1.362 . S
C2458 H2450 0.930 . S
C2458 C2457 1.362 . S
C2458 C2461 1.409 . S
C2459 H2451 0.930 . S
C2459 C2460 1.355 . S
C2459 C2461 1.415 . S
C2460 C2459 1.355 . S
C2460 C2462 1.419 . S
C2461 C2456 1.425 . S
C2461 C2458 1.409 . S
C2461 C2459 1.415 . S
C2462 H2452 0.930 . S
C2462 C2460 1.419 . S
C2462 C2463 1.362 . S
C2463 H2453 0.930 . S
C2463 C2456 1.409 . S
C2463 C2462 1.362 . S
H2464 C2470 0.930 . S
H2465 C2473 0.930 . S
H2466 C2474 0.930 . S
H2467 C2475 0.930 . S
H2468 C2478 0.930 . S
H2469 C2479 0.930 . S
C2470 H2464 0.930 . S
C2470 C2471 1.355 . S
C2470 C2472 1.415 . S
C2471 C2470 1.355 . S
C2471 C2473 1.419 . S
C2472 C2470 1.415 . S
C2472 C2477 1.425 . S
C2472 C2479 1.409 . S
C2473 H2465 0.930 . S
C2473 C2471 1.419 . S
C2473 C2474 1.362 . S
C2474 H2466 0.930 . S
C2474 C2473 1.362 . S
C2474 C2477 1.409 . S
C2475 H2467 0.930 . S
C2475 C2476 1.355 . S
C2475 C2477 1.415 . S
C2476 C2475 1.355 . S
C2476 C2478 1.419 . S
C2477 C2472 1.425 . S
C2477 C2474 1.409 . S
C2477 C2475 1.415 . S
C2478 H2468 0.930 . S
C2478 C2476 1.419 . S
C2478 C2479 1.362 . S
C2479 H2469 0.930 . S
C2479 C2472 1.409 . S
C2479 C2478 1.362 . S
H2480 C2486 0.930 . S
H2481 C2489 0.930 . S
H2482 C2490 0.930 . S
H2483 C2491 0.930 . S
H2484 C2494 0.930 . S
H2485 C2495 0.930 . S
C2486 H2480 0.930 . S
C2486 C2487 1.355 . S
C2486 C2488 1.415 . S
C2487 C2486 1.355 . S
C2487 C2489 1.419 . S
C2488 C2486 1.415 . S
C2488 C2493 1.425 . S
C2488 C2495 1.409 . S
C2489 H2481 0.930 . S
C2489 C2487 1.419 . S
C2489 C2490 1.362 . S
C2490 H2482 0.930 . S
C2490 C2489 1.362 . S
C2490 C2493 1.409 . S
C2491 H2483 0.930 . S
C2491 C2492 1.355 . S
C2491 C2493 1.415 . S
C2492 C2491 1.355 . S
C2492 C2494 1.419 . S
C2493 C2488 1.425 . S
C2493 C2490 1.409 . S
C2493 C2491 1.415 . S
C2494 H2484 0.930 . S
C2494 C2492 1.419 . S
C2494 C2495 1.362 . S
C2495 H2485 0.930 . S
C2495 C2488 1.409 . S
C2495 C2494 1.362 . S
H2496 C2502 0.930 . S
H2497 C2505 0.930 . S
H2498 C2506 0.930 . S
H2499 C2507 0.930 . S
H2500 C2510 0.930 . S
H2501 C2511 0.930 . S
C2502 H2496 0.930 . S
C2502 C2503 1.355 . S
C2502 C2504 1.415 . S
C2503 C2502 1.355 . S
C2503 C2505 1.419 . S
C2504 C2502 1.415 . S
C2504 C2509 1.425 . S
C2504 C2511 1.409 . S
C2505 H2497 0.930 . S
C2505 C2503 1.419 . S
C2505 C2506 1.362 . S
C2506 H2498 0.930 . S
C2506 C2505 1.362 . S
C2506 C2509 1.409 . S
C2507 H2499 0.930 . S
C2507 C2508 1.355 . S
C2507 C2509 1.415 . S
C2508 C2507 1.355 . S
C2508 C2510 1.419 . S
C2509 C2504 1.425 . S
C2509 C2506 1.409 . S
C2509 C2507 1.415 . S
C2510 H2500 0.930 . S
C2510 C2508 1.419 . S
C2510 C2511 1.362 . S
C2511 H2501 0.930 . S
C2511 C2504 1.409 . S
C2511 C2510 1.362 . S
H2512 C2518 0.930 . S
H2513 C2521 0.930 . S
H2514 C2522 0.930 . S
H2515 C2523 0.930 . S
H2516 C2526 0.930 . S
H2517 C2527 0.930 . S
C2518 H2512 0.930 . S
C2518 C2519 1.355 . S
C2518 C2520 1.415 . S
C2519 C2518 1.355 . S
C2519 C2521 1.419 . S
C2520 C2518 1.415 . S
C2520 C2525 1.425 . S
C2520 C2527 1.409 . S
C2521 H2513 0.930 . S
C2521 C2519 1.419 . S
C2521 C2522 1.362 . S
C2522 H2514 0.930 . S
C2522 C2521 1.362 . S
C2522 C2525 1.409 . S
C2523 H2515 0.930 . S
C2523 C2524 1.355 . S
C2523 C2525 1.415 . S
C2524 C2523 1.355 . S
C2524 C2526 1.419 . S
C2525 C2520 1.425 . S
C2525 C2522 1.409 . S
C2525 C2523 1.415 . S
C2526 H2516 0.930 . S
C2526 C2524 1.419 . S
C2526 C2527 1.362 . S
C2527 H2517 0.930 . S
C2527 C2520 1.409 . S
C2527 C2526 1.362 . S
H2528 C2534 0.930 . S
H2529 C2537 0.930 . S
H2530 C2538 0.930 . S
H2531 C2539 0.930 . S
H2532 C2542 0.930 . S
H2533 C2543 0.930 . S
C2534 H2528 0.930 . S
C2534 C2535 1.355 . S
C2534 C2536 1.415 . S
C2535 C2534 1.355 . S
C2535 C2537 1.419 . S
C2536 C2534 1.415 . S
C2536 C2541 1.425 . S
C2536 C2543 1.409 . S
C2537 H2529 0.930 . S
C2537 C2535 1.419 . S
C2537 C2538 1.362 . S
C2538 H2530 0.930 . S
C2538 C2537 1.362 . S
C2538 C2541 1.409 . S
C2539 H2531 0.930 . S
C2539 C2540 1.355 . S
C2539 C2541 1.415 . S
C2540 C2539 1.355 . S
C2540 C2542 1.419 . S
C2541 C2536 1.425 . S
C2541 C2538 1.409 . S
C2541 C2539 1.415 . S
C2542 H2532 0.930 . S
C2542 C2540 1.419 . S
C2542 C2543 1.362 . S
C2543 H2533 0.930 . S
C2543 C2536 1.409 . S
C2543 C2542 1.362 . S
H2544 C2550 0.930 . S
H2545 C2553 0.930 . S
H2546 C2554 0.930 . S
H2547 C2555 0.930 . S
H2548 C2558 0.930 . S
H2549 C2559 0.930 . S
C2550 H2544 0.930 . S
C2550 C2551 1.355 . S
C2550 C2552 1.415 . S
C2551 C2550 1.355 . S
C2551 C2553 1.419 . S
C2552 C2550 1.415 . S
C2552 C2557 1.425 . S
C2552 C2559 1.409 . S
C2553 H2545 0.930 . S
C2553 C2551 1.419 . S
C2553 C2554 1.362 . S
C2554 H2546 0.930 . S
C2554 C2553 1.362 . S
C2554 C2557 1.409 . S
C2555 H2547 0.930 . S
C2555 C2556 1.355 . S
C2555 C2557 1.415 . S
C2556 C2555 1.355 . S
C2556 C2558 1.419 . S
C2557 C2552 1.425 . S
C2557 C2554 1.409 . S
C2557 C2555 1.415 . S
C2558 H2548 0.930 . S
C2558 C2556 1.419 . S
C2558 C2559 1.362 . S
C2559 H2549 0.930 . S
C2559 C2552 1.409 . S
C2559 C2558 1.362 . S
H2560 C2566 0.930 . S
H2561 C2569 0.930 . S
H2562 C2570 0.930 . S
H2563 C2571 0.930 . S
H2564 C2574 0.930 . S
H2565 C2575 0.930 . S
C2566 H2560 0.930 . S
C2566 C2567 1.355 . S
C2566 C2568 1.415 . S
C2567 C2566 1.355 . S
C2567 C2569 1.419 . S
C2568 C2566 1.415 . S
C2568 C2573 1.425 . S
C2568 C2575 1.409 . S
C2569 H2561 0.930 . S
C2569 C2567 1.419 . S
C2569 C2570 1.362 . S
C2570 H2562 0.930 . S
C2570 C2569 1.362 . S
C2570 C2573 1.409 . S
C2571 H2563 0.930 . S
C2571 C2572 1.355 . S
C2571 C2573 1.415 . S
C2572 C2571 1.355 . S
C2572 C2574 1.419 . S
C2573 C2568 1.425 . S
C2573 C2570 1.409 . S
C2573 C2571 1.415 . S
C2574 H2564 0.930 . S
C2574 C2572 1.419 . S
C2574 C2575 1.362 . S
C2575 H2565 0.930 . S
C2575 C2568 1.409 . S
C2575 C2574 1.362 . S
H2576 C2582 0.930 . S
H2577 C2585 0.930 . S
H2578 C2586 0.930 . S
H2579 C2587 0.930 . S
H2580 C2590 0.930 . S
H2581 C2591 0.930 . S
C2582 H2576 0.930 . S
C2582 C2583 1.355 . S
C2582 C2584 1.415 . S
C2583 C2582 1.355 . S
C2583 C2585 1.419 . S
C2584 C2582 1.415 . S
C2584 C2589 1.425 . S
C2584 C2591 1.409 . S
C2585 H2577 0.930 . S
C2585 C2583 1.419 . S
C2585 C2586 1.362 . S
C2586 H2578 0.930 . S
C2586 C2585 1.362 . S
C2586 C2589 1.409 . S
C2587 H2579 0.930 . S
C2587 C2588 1.355 . S
C2587 C2589 1.415 . S
C2588 C2587 1.355 . S
C2588 C2590 1.419 . S
C2589 C2584 1.425 . S
C2589 C2586 1.409 . S
C2589 C2587 1.415 . S
C2590 H2580 0.930 . S
C2590 C2588 1.419 . S
C2590 C2591 1.362 . S
C2591 H2581 0.930 . S
C2591 C2584 1.409 . S
C2591 C2590 1.362 . S
H2592 C2598 0.930 . S
H2593 C2601 0.930 . S
H2594 C2602 0.930 . S
H2595 C2603 0.930 . S
H2596 C2606 0.930 . S
H2597 C2607 0.930 . S
C2598 H2592 0.930 . S
C2598 C2599 1.355 1_655 S
C2598 C2600 1.415 . S
C2599 C2598 1.355 1_455 S
C2599 C2601 1.419 . S
C2600 C2598 1.415 . S
C2600 C2605 1.425 1_655 S
C2600 C2607 1.409 . S
C2601 H2593 0.930 . S
C2601 C2599 1.419 . S
C2601 C2602 1.362 . S
C2602 H2594 0.930 . S
C2602 C2601 1.362 . S
C2602 C2605 1.409 . S
C2603 H2595 0.930 . S
C2603 C2604 1.355 1_455 S
C2603 C2605 1.415 . S
C2604 C2603 1.355 1_655 S
C2604 C2606 1.419 . S
C2605 C2600 1.425 1_455 S
C2605 C2602 1.409 . S
C2605 C2603 1.415 . S
C2606 H2596 0.930 . S
C2606 C2604 1.419 . S
C2606 C2607 1.362 . S
C2607 H2597 0.930 . S
C2607 C2600 1.409 . S
C2607 C2606 1.362 . S
H2608 C2614 0.930 . S
H2609 C2617 0.930 . S
H2610 C2618 0.930 . S
H2611 C2619 0.930 . S
H2612 C2622 0.930 . S
H2613 C2623 0.930 . S
C2614 H2608 0.930 . S
C2614 C2615 1.355 . S
C2614 C2616 1.415 . S
C2615 C2614 1.355 . S
C2615 C2617 1.419 . S
C2616 C2614 1.415 . S
C2616 C2621 1.425 . S
C2616 C2623 1.409 . S
C2617 H2609 0.930 . S
C2617 C2615 1.419 . S
C2617 C2618 1.362 . S
C2618 H2610 0.930 . S
C2618 C2617 1.362 . S
C2618 C2621 1.409 . S
C2619 H2611 0.930 . S
C2619 C2620 1.355 . S
C2619 C2621 1.415 . S
C2620 C2619 1.355 . S
C2620 C2622 1.419 . S
C2621 C2616 1.425 . S
C2621 C2618 1.409 . S
C2621 C2619 1.415 . S
C2622 H2612 0.930 . S
C2622 C2620 1.419 . S
C2622 C2623 1.362 . S
C2623 H2613 0.930 . S
C2623 C2616 1.409 . S
C2623 C2622 1.362 . S
H2624 C2630 0.930 . S
H2625 C2633 0.930 . S
H2626 C2634 0.930 . S
H2627 C2635 0.930 . S
H2628 C2638 0.930 . S
H2629 C2639 0.930 . S
C2630 H2624 0.930 . S
C2630 C2631 1.355 . S
C2630 C2632 1.415 . S
C2631 C2630 1.355 . S
C2631 C2633 1.419 . S
C2632 C2630 1.415 . S
C2632 C2637 1.425 1_565 S
C2632 C2639 1.409 . S
C2633 H2625 0.930 . S
C2633 C2631 1.419 . S
C2633 C2634 1.362 1_565 S
C2634 H2626 0.930 . S
C2634 C2633 1.362 1_545 S
C2634 C2637 1.409 . S
C2635 H2627 0.930 . S
C2635 C2636 1.355 . S
C2635 C2637 1.415 . S
C2636 C2635 1.355 . S
C2636 C2638 1.419 . S
C2637 C2632 1.425 1_545 S
C2637 C2634 1.409 . S
C2637 C2635 1.415 . S
C2638 H2628 0.930 . S
C2638 C2636 1.419 . S
C2638 C2639 1.362 1_545 S
C2639 H2629 0.930 . S
C2639 C2632 1.409 . S
C2639 C2638 1.362 1_565 S
H2640 C2646 0.930 . S
H2641 C2649 0.948 . S
H2642 C2650 0.930 . S
H2643 C2651 0.930 . S
H2644 C2654 0.947 . S
H2645 C2655 0.930 . S
C2646 H2640 0.930 . S
C2646 C2647 1.355 . S
C2646 C2648 1.415 . S
C2647 C2646 1.355 . S
C2647 C2649 1.386 1_655 S
C2648 C2646 1.415 . S
C2648 C2653 1.425 1_655 S
C2648 C2655 1.409 . S
C2649 H2641 0.948 . S
C2649 C2647 1.386 1_455 S
C2649 C2650 1.379 . S
C2650 H2642 0.930 . S
C2650 C2649 1.379 . S
C2650 C2653 1.409 . S
C2651 H2643 0.930 . S
C2651 C2652 1.355 . S
C2651 C2653 1.415 . S
C2652 C2651 1.355 . S
C2652 C2654 1.388 1_455 S
C2653 C2648 1.425 1_455 S
C2653 C2650 1.409 . S
C2653 C2651 1.415 . S
C2654 H2644 0.947 . S
C2654 C2652 1.388 1_655 S
C2654 C2655 1.377 . S
C2655 H2645 0.930 . S
C2655 C2648 1.409 . S
C2655 C2654 1.377 . S
H2656 C2662 0.930 . S
H2657 C2665 0.930 . S
H2658 C2666 0.930 . S
H2659 C2667 0.930 . S
H2660 C2670 0.930 . S
H2661 C2671 0.930 . S
C2662 H2656 0.930 . S
C2662 C2663 1.355 . S
C2662 C2664 1.415 . S
C2663 C2662 1.355 . S
C2663 C2665 1.419 . S
C2664 C2662 1.415 . S
C2664 C2669 1.425 . S
C2664 C2671 1.409 . S
C2665 H2657 0.930 . S
C2665 C2663 1.419 . S
C2665 C2666 1.362 . S
C2666 H2658 0.930 . S
C2666 C2665 1.362 . S
C2666 C2669 1.409 . S
C2667 H2659 0.930 . S
C2667 C2668 1.355 . S
C2667 C2669 1.415 . S
C2668 C2667 1.355 . S
C2668 C2670 1.419 . S
C2669 C2664 1.425 . S
C2669 C2666 1.409 . S
C2669 C2667 1.415 . S
C2670 H2660 0.930 . S
C2670 C2668 1.419 . S
C2670 C2671 1.362 . S
C2671 H2661 0.930 . S
C2671 C2664 1.409 . S
C2671 C2670 1.362 . S
H2672 C2678 0.930 . S
H2673 C2681 0.930 . S
H2674 C2682 0.930 . S
H2675 C2683 0.930 . S
H2676 C2686 0.930 . S
H2677 C2687 0.930 . S
C2678 H2672 0.930 . S
C2678 C2679 1.355 . S
C2678 C2680 1.415 . S
C2679 C2678 1.355 . S
C2679 C2681 1.419 1_545 S
C2680 C2678 1.415 . S
C2680 C2685 1.425 1_545 S
C2680 C2687 1.409 . S
C2681 H2673 0.930 . S
C2681 C2679 1.419 1_565 S
C2681 C2682 1.362 . S
C2682 H2674 0.930 . S
C2682 C2681 1.362 . S
C2682 C2685 1.409 . S
C2683 H2675 0.930 . S
C2683 C2684 1.355 . S
C2683 C2685 1.415 . S
C2684 C2683 1.355 . S
C2684 C2686 1.419 1_565 S
C2685 C2680 1.425 1_565 S
C2685 C2682 1.409 . S
C2685 C2683 1.415 . S
C2686 H2676 0.930 . S
C2686 C2684 1.419 1_545 S
C2686 C2687 1.362 . S
C2687 H2677 0.930 . S
C2687 C2680 1.409 . S
C2687 C2686 1.362 . S
H2688 C2694 0.930 . S
H2689 C2697 0.930 . S
H2690 C2698 0.930 . S
H2691 C2699 0.930 . S
H2692 C2702 0.930 . S
H2693 C2703 0.930 . S
C2694 H2688 0.930 . S
C2694 C2695 1.355 . S
C2694 C2696 1.415 . S
C2695 C2694 1.355 . S
C2695 C2697 1.419 . S
C2696 C2694 1.415 . S
C2696 C2701 1.425 . S
C2696 C2703 1.409 . S
C2697 H2689 0.930 . S
C2697 C2695 1.419 . S
C2697 C2698 1.362 . S
C2698 H2690 0.930 . S
C2698 C2697 1.362 . S
C2698 C2701 1.409 . S
C2699 H2691 0.930 . S
C2699 C2700 1.355 . S
C2699 C2701 1.415 . S
C2700 C2699 1.355 . S
C2700 C2702 1.419 . S
C2701 C2696 1.425 . S
C2701 C2698 1.409 . S
C2701 C2699 1.415 . S
C2702 H2692 0.930 . S
C2702 C2700 1.419 . S
C2702 C2703 1.362 . S
C2703 H2693 0.930 . S
C2703 C2696 1.409 . S
C2703 C2702 1.362 . S
H2704 C2710 0.930 . S
H2705 C2713 0.930 . S
H2706 C2714 0.930 . S
H2707 C2715 0.930 . S
H2708 C2718 0.930 . S
H2709 C2719 0.930 . S
C2710 H2704 0.930 . S
C2710 C2711 1.355 . S
C2710 C2712 1.415 . S
C2711 C2710 1.355 . S
C2711 C2713 1.419 . S
C2712 C2710 1.415 . S
C2712 C2717 1.425 . S
C2712 C2719 1.409 . S
C2713 H2705 0.930 . S
C2713 C2711 1.419 . S
C2713 C2714 1.362 . S
C2714 H2706 0.930 . S
C2714 C2713 1.362 . S
C2714 C2717 1.409 . S
C2715 H2707 0.930 . S
C2715 C2716 1.355 . S
C2715 C2717 1.415 . S
C2716 C2715 1.355 . S
C2716 C2718 1.419 . S
C2717 C2712 1.425 . S
C2717 C2714 1.409 . S
C2717 C2715 1.415 . S
C2718 H2708 0.930 . S
C2718 C2716 1.419 . S
C2718 C2719 1.362 . S
C2719 H2709 0.930 . S
C2719 C2712 1.409 . S
C2719 C2718 1.362 . S
H2720 C2726 0.930 . S
H2721 C2729 0.930 . S
H2722 C2730 0.930 . S
H2723 C2731 0.930 . S
H2724 C2734 0.930 . S
H2725 C2735 0.930 . S
C2726 H2720 0.930 . S
C2726 C2727 1.355 . S
C2726 C2728 1.415 . S
C2727 C2726 1.355 . S
C2727 C2729 1.419 . S
C2728 C2726 1.415 . S
C2728 C2733 1.425 . S
C2728 C2735 1.409 . S
C2729 H2721 0.930 . S
C2729 C2727 1.419 . S
C2729 C2730 1.362 . S
C2730 H2722 0.930 . S
C2730 C2729 1.362 . S
C2730 C2733 1.409 . S
C2731 H2723 0.930 . S
C2731 C2732 1.355 . S
C2731 C2733 1.415 . S
C2732 C2731 1.355 . S
C2732 C2734 1.419 . S
C2733 C2728 1.425 . S
C2733 C2730 1.409 . S
C2733 C2731 1.415 . S
C2734 H2724 0.930 . S
C2734 C2732 1.419 . S
C2734 C2735 1.362 . S
C2735 H2725 0.930 . S
C2735 C2728 1.409 . S
C2735 C2734 1.362 . S
H2736 C2742 0.930 . S
H2737 C2745 0.930 . S
H2738 C2746 0.930 . S
H2739 C2747 0.930 . S
H2740 C2750 0.930 . S
H2741 C2751 0.930 . S
C2742 H2736 0.930 . S
C2742 C2743 1.355 . S
C2742 C2744 1.415 . S
C2743 C2742 1.355 . S
C2743 C2745 1.419 . S
C2744 C2742 1.415 . S
C2744 C2749 1.425 . S
C2744 C2751 1.409 . S
C2745 H2737 0.930 . S
C2745 C2743 1.419 . S
C2745 C2746 1.362 . S
C2746 H2738 0.930 . S
C2746 C2745 1.362 . S
C2746 C2749 1.409 . S
C2747 H2739 0.930 . S
C2747 C2748 1.355 . S
C2747 C2749 1.415 . S
C2748 C2747 1.355 . S
C2748 C2750 1.419 . S
C2749 C2744 1.425 . S
C2749 C2746 1.409 . S
C2749 C2747 1.415 . S
C2750 H2740 0.930 . S
C2750 C2748 1.419 . S
C2750 C2751 1.362 . S
C2751 H2741 0.930 . S
C2751 C2744 1.409 . S
C2751 C2750 1.362 . S
H2752 C2758 0.930 . S
H2753 C2761 0.930 . S
H2754 C2762 0.930 . S
H2755 C2763 0.930 . S
H2756 C2766 0.930 . S
H2757 C2767 0.930 . S
C2758 H2752 0.930 . S
C2758 C2759 1.355 . S
C2758 C2760 1.415 . S
C2759 C2758 1.355 . S
C2759 C2761 1.419 . S
C2760 C2758 1.415 . S
C2760 C2765 1.425 . S
C2760 C2767 1.409 . S
C2761 H2753 0.930 . S
C2761 C2759 1.419 . S
C2761 C2762 1.362 . S
C2762 H2754 0.930 . S
C2762 C2761 1.362 . S
C2762 C2765 1.409 . S
C2763 H2755 0.930 . S
C2763 C2764 1.355 . S
C2763 C2765 1.415 . S
C2764 C2763 1.355 . S
C2764 C2766 1.419 . S
C2765 C2760 1.425 . S
C2765 C2762 1.409 . S
C2765 C2763 1.415 . S
C2766 H2756 0.930 . S
C2766 C2764 1.419 . S
C2766 C2767 1.362 . S
C2767 H2757 0.930 . S
C2767 C2760 1.409 . S
C2767 C2766 1.362 . S
H2768 C2774 0.930 . S
H2769 C2777 0.930 . S
H2770 C2778 0.930 . S
H2771 C2779 0.930 . S
H2772 C2782 0.930 . S
H2773 C2783 0.930 . S
C2774 H2768 0.930 . S
C2774 C2775 1.355 . S
C2774 C2776 1.415 . S
C2775 C2774 1.355 . S
C2775 C2777 1.419 . S
C2776 C2774 1.415 . S
C2776 C2781 1.425 . S
C2776 C2783 1.409 . S
C2777 H2769 0.930 . S
C2777 C2775 1.419 . S
C2777 C2778 1.362 . S
C2778 H2770 0.930 . S
C2778 C2777 1.362 . S
C2778 C2781 1.409 . S
C2779 H2771 0.930 . S
C2779 C2780 1.355 . S
C2779 C2781 1.415 . S
C2780 C2779 1.355 . S
C2780 C2782 1.419 . S
C2781 C2776 1.425 . S
C2781 C2778 1.409 . S
C2781 C2779 1.415 . S
C2782 H2772 0.930 . S
C2782 C2780 1.419 . S
C2782 C2783 1.362 . S
C2783 H2773 0.930 . S
C2783 C2776 1.409 . S
C2783 C2782 1.362 . S
H2784 C2790 0.930 . S
H2785 C2793 0.930 . S
H2786 C2794 0.930 . S
H2787 C2795 0.930 . S
H2788 C2798 0.930 . S
H2789 C2799 0.930 . S
C2790 H2784 0.930 . S
C2790 C2791 1.355 . S
C2790 C2792 1.415 1_554 S
C2791 C2790 1.355 . S
C2791 C2793 1.419 . S
C2792 C2790 1.415 1_556 S
C2792 C2797 1.425 . S
C2792 C2799 1.409 . S
C2793 H2785 0.930 . S
C2793 C2791 1.419 . S
C2793 C2794 1.362 1_554 S
C2794 H2786 0.930 . S
C2794 C2793 1.362 1_556 S
C2794 C2797 1.409 . S
C2795 H2787 0.930 . S
C2795 C2796 1.355 . S
C2795 C2797 1.415 . S
C2796 C2795 1.355 . S
C2796 C2798 1.419 . S
C2797 C2792 1.425 . S
C2797 C2794 1.409 . S
C2797 C2795 1.415 . S
C2798 H2788 0.930 . S
C2798 C2796 1.419 . S
C2798 C2799 1.362 . S
C2799 H2789 0.930 . S
C2799 C2792 1.409 . S
C2799 C2798 1.362 . S
H2800 C2806 0.930 . S
H2801 C2809 0.930 . S
H2802 C2810 0.930 . S
H2803 C2811 0.930 . S
H2804 C2814 0.930 . S
H2805 C2815 0.930 . S
C2806 H2800 0.930 . S
C2806 C2807 1.355 . S
C2806 C2808 1.415 . S
C2807 C2806 1.355 . S
C2807 C2809 1.419 . S
C2808 C2806 1.415 . S
C2808 C2813 1.425 . S
C2808 C2815 1.409 1_556 S
C2809 H2801 0.930 . S
C2809 C2807 1.419 . S
C2809 C2810 1.362 . S
C2810 H2802 0.930 . S
C2810 C2809 1.362 . S
C2810 C2813 1.409 . S
C2811 H2803 0.930 . S
C2811 C2812 1.355 . S
C2811 C2813 1.415 1_554 S
C2812 C2811 1.355 . S
C2812 C2814 1.419 . S
C2813 C2808 1.425 . S
C2813 C2810 1.409 . S
C2813 C2811 1.415 1_556 S
C2814 H2804 0.930 . S
C2814 C2812 1.419 . S
C2814 C2815 1.362 . S
C2815 H2805 0.930 . S
C2815 C2808 1.409 1_554 S
C2815 C2814 1.362 . S
H2816 C2822 0.930 . S
H2817 C2825 0.930 . S
H2818 C2826 0.930 . S
H2819 C2827 0.930 . S
H2820 C2830 0.930 . S
H2821 C2831 0.930 . S
C2822 H2816 0.930 . S
C2822 C2823 1.355 . S
C2822 C2824 1.415 . S
C2823 C2822 1.355 . S
C2823 C2825 1.419 . S
C2824 C2822 1.415 . S
C2824 C2829 1.425 . S
C2824 C2831 1.409 1_556 S
C2825 H2817 0.930 . S
C2825 C2823 1.419 . S
C2825 C2826 1.362 . S
C2826 H2818 0.930 . S
C2826 C2825 1.362 . S
C2826 C2829 1.409 . S
C2827 H2819 0.930 . S
C2827 C2828 1.355 . S
C2827 C2829 1.415 1_554 S
C2828 C2827 1.355 . S
C2828 C2830 1.419 . S
C2829 C2824 1.425 . S
C2829 C2826 1.409 . S
C2829 C2827 1.415 1_556 S
C2830 H2820 0.930 . S
C2830 C2828 1.419 . S
C2830 C2831 1.362 . S
C2831 H2821 0.930 . S
C2831 C2824 1.409 1_554 S
C2831 C2830 1.362 . S
H2832 C2838 0.930 . S
H2833 C2841 0.930 . S
H2834 C2842 0.930 . S
H2835 C2843 0.930 . S
H2836 C2846 0.930 . S
H2837 C2847 0.930 . S
C2838 H2832 0.930 . S
C2838 C2839 1.355 . S
C2838 C2840 1.415 . S
C2839 C2838 1.355 . S
C2839 C2841 1.419 . S
C2840 C2838 1.415 . S
C2840 C2845 1.425 . S
C2840 C2847 1.409 . S
C2841 H2833 0.930 . S
C2841 C2839 1.419 . S
C2841 C2842 1.362 . S
C2842 H2834 0.930 . S
C2842 C2841 1.362 . S
C2842 C2845 1.409 . S
C2843 H2835 0.930 . S
C2843 C2844 1.355 . S
C2843 C2845 1.415 . S
C2844 C2843 1.355 . S
C2844 C2846 1.419 . S
C2845 C2840 1.425 . S
C2845 C2842 1.409 . S
C2845 C2843 1.415 . S
C2846 H2836 0.930 . S
C2846 C2844 1.419 . S
C2846 C2847 1.362 . S
C2847 H2837 0.930 . S
C2847 C2840 1.409 . S
C2847 C2846 1.362 . S
H2848 C2854 0.930 . S
H2849 C2857 0.930 . S
H2850 C2858 0.930 . S
H2851 C2859 0.930 . S
H2852 C2862 0.930 . S
H2853 C2863 0.930 . S
C2854 H2848 0.930 . S
C2854 C2855 1.355 . S
C2854 C2856 1.415 . S
C2855 C2854 1.355 . S
C2855 C2857 1.419 . S
C2856 C2854 1.415 . S
C2856 C2861 1.425 . S
C2856 C2863 1.409 . S
C2857 H2849 0.930 . S
C2857 C2855 1.419 . S
C2857 C2858 1.362 . S
C2858 H2850 0.930 . S
C2858 C2857 1.362 . S
C2858 C2861 1.409 . S
C2859 H2851 0.930 . S
C2859 C2860 1.355 . S
C2859 C2861 1.415 . S
C2860 C2859 1.355 . S
C2860 C2862 1.419 . S
C2861 C2856 1.425 . S
C2861 C2858 1.409 . S
C2861 C2859 1.415 . S
C2862 H2852 0.930 . S
C2862 C2860 1.419 . S
C2862 C2863 1.362 . S
C2863 H2853 0.930 . S
C2863 C2856 1.409 . S
C2863 C2862 1.362 . S
H2864 C2870 0.930 . S
H2865 C2873 0.930 . S
H2866 C2874 0.930 . S
H2867 C2875 0.930 . S
H2868 C2878 0.930 . S
H2869 C2879 0.930 . S
C2870 H2864 0.930 . S
C2870 C2871 1.355 . S
C2870 C2872 1.415 . S
C2871 C2870 1.355 . S
C2871 C2873 1.419 . S
C2872 C2870 1.415 . S
C2872 C2877 1.425 . S
C2872 C2879 1.409 . S
C2873 H2865 0.930 . S
C2873 C2871 1.419 . S
C2873 C2874 1.362 . S
C2874 H2866 0.930 . S
C2874 C2873 1.362 . S
C2874 C2877 1.409 . S
C2875 H2867 0.930 . S
C2875 C2876 1.355 . S
C2875 C2877 1.415 . S
C2876 C2875 1.355 . S
C2876 C2878 1.419 . S
C2877 C2872 1.425 . S
C2877 C2874 1.409 . S
C2877 C2875 1.415 . S
C2878 H2868 0.930 . S
C2878 C2876 1.419 . S
C2878 C2879 1.362 . S
C2879 H2869 0.930 . S
C2879 C2872 1.409 . S
C2879 C2878 1.362 . S
H2880 C2886 0.930 . S
H2881 C2889 0.927 1_556 S
H2882 C2890 0.930 . S
H2883 C2891 0.930 . S
H2884 C2894 0.927 . S
H2885 C2895 0.930 . S
C2886 H2880 0.930 . S
C2886 C2887 1.355 . S
C2886 C2888 1.415 . S
C2887 C2886 1.355 . S
C2887 C2889 1.419 . S
C2888 C2886 1.415 . S
C2888 C2893 1.425 1_455 S
C2888 C2895 1.409 . S
C2889 H2881 0.927 1_554 S
C2889 C2887 1.419 . S
C2889 C2890 1.362 1_455 S
C2890 H2882 0.930 . S
C2890 C2889 1.362 1_655 S
C2890 C2893 1.409 . S
C2891 H2883 0.930 . S
C2891 C2892 1.355 . S
C2891 C2893 1.415 . S
C2892 C2891 1.355 . S
C2892 C2894 1.419 . S
C2893 C2888 1.425 1_655 S
C2893 C2890 1.409 . S
C2893 C2891 1.415 . S
C2894 H2884 0.927 . S
C2894 C2892 1.419 . S
C2894 C2895 1.362 1_655 S
C2895 H2885 0.930 . S
C2895 C2888 1.409 . S
C2895 C2894 1.362 1_455 S
H2896 C2902 0.930 . S
H2897 C2905 0.930 . S
H2898 C2906 0.930 . S
H2899 C2907 0.930 . S
H2900 C2910 0.930 . S
H2901 C2911 0.930 . S
C2902 H2896 0.930 . S
C2902 C2903 1.355 . S
C2902 C2904 1.415 . S
C2903 C2902 1.355 . S
C2903 C2905 1.419 . S
C2904 C2902 1.415 . S
C2904 C2909 1.425 . S
C2904 C2911 1.409 . S
C2905 H2897 0.930 . S
C2905 C2903 1.419 . S
C2905 C2906 1.362 . S
C2906 H2898 0.930 . S
C2906 C2905 1.362 . S
C2906 C2909 1.409 . S
C2907 H2899 0.930 . S
C2907 C2908 1.355 . S
C2907 C2909 1.415 . S
C2908 C2907 1.355 . S
C2908 C2910 1.419 . S
C2909 C2904 1.425 . S
C2909 C2906 1.409 . S
C2909 C2907 1.415 . S
C2910 H2900 0.930 . S
C2910 C2908 1.419 . S
C2910 C2911 1.362 . S
C2911 H2901 0.930 . S
C2911 C2904 1.409 . S
C2911 C2910 1.362 . S
H2912 C2918 0.930 1_565 S
H2913 C2921 0.930 . S
H2914 C2922 0.930 . S
H2915 C2923 0.930 1_546 S
H2916 C2926 0.930 . S
H2917 C2927 0.930 . S
C2918 H2912 0.930 1_545 S
C2918 C2919 1.355 . S
C2918 C2920 1.415 1_545 S
C2919 C2918 1.355 . S
C2919 C2921 1.419 . S
C2920 C2918 1.415 1_565 S
C2920 C2925 1.425 1_565 S
C2920 C2927 1.409 . S
C2921 H2913 0.930 . S
C2921 C2919 1.419 . S
C2921 C2922 1.362 . S
C2922 H2914 0.930 . S
C2922 C2921 1.362 . S
C2922 C2925 1.409 . S
C2923 H2915 0.930 1_564 S
C2923 C2924 1.355 . S
C2923 C2925 1.415 1_565 S
C2924 C2923 1.355 . S
C2924 C2926 1.419 . S
C2925 C2920 1.425 1_545 S
C2925 C2922 1.409 . S
C2925 C2923 1.415 1_545 S
C2926 H2916 0.930 . S
C2926 C2924 1.419 . S
C2926 C2927 1.362 . S
C2927 H2917 0.930 . S
C2927 C2920 1.409 . S
C2927 C2926 1.362 . S
H2928 C2934 0.930 . S
H2929 C2937 0.930 . S
H2930 C2938 0.930 . S
H2931 C2939 0.930 . S
H2932 C2942 0.930 . S
H2933 C2943 0.930 . S
C2934 H2928 0.930 . S
C2934 C2935 1.355 . S
C2934 C2936 1.415 . S
C2935 C2934 1.355 . S
C2935 C2937 1.419 . S
C2936 C2934 1.415 . S
C2936 C2941 1.425 1_565 S
C2936 C2943 1.409 . S
C2937 H2929 0.930 . S
C2937 C2935 1.419 . S
C2937 C2938 1.362 1_565 S
C2938 H2930 0.930 . S
C2938 C2937 1.362 1_545 S
C2938 C2941 1.409 . S
C2939 H2931 0.930 . S
C2939 C2940 1.355 . S
C2939 C2941 1.415 . S
C2940 C2939 1.355 . S
C2940 C2942 1.419 . S
C2941 C2936 1.425 1_545 S
C2941 C2938 1.409 . S
C2941 C2939 1.415 . S
C2942 H2932 0.930 . S
C2942 C2940 1.419 . S
C2942 C2943 1.362 1_545 S
C2943 H2933 0.930 . S
C2943 C2936 1.409 . S
C2943 C2942 1.362 1_565 S
H2944 C2950 0.930 . S
H2945 C2953 0.930 . S
H2946 C2954 0.930 . S
H2947 C2955 0.930 . S
H2948 C2958 0.930 . S
H2949 C2959 0.930 . S
C2950 H2944 0.930 . S
C2950 C2951 1.355 . S
C2950 C2952 1.415 1_655 S
C2951 C2950 1.355 . S
C2951 C2953 1.419 . S
C2952 C2950 1.415 1_455 S
C2952 C2957 1.425 1_455 S
C2952 C2959 1.409 . S
C2953 H2945 0.930 . S
C2953 C2951 1.419 . S
C2953 C2954 1.362 . S
C2954 H2946 0.930 . S
C2954 C2953 1.362 . S
C2954 C2957 1.409 . S
C2955 H2947 0.930 . S
C2955 C2956 1.355 . S
C2955 C2957 1.415 1_455 S
C2956 C2955 1.355 . S
C2956 C2958 1.419 . S
C2957 C2952 1.425 1_655 S
C2957 C2954 1.409 . S
C2957 C2955 1.415 1_655 S
C2958 H2948 0.930 . S
C2958 C2956 1.419 . S
C2958 C2959 1.362 . S
C2959 H2949 0.930 . S
C2959 C2952 1.409 . S
C2959 C2958 1.362 . S
H2960 C2966 0.930 . S
H2961 C2969 0.930 . S
H2962 C2970 0.930 . S
H2963 C2971 0.930 . S
H2964 C2974 0.930 . S
H2965 C2975 0.930 . S
C2966 H2960 0.930 . S
C2966 C2967 1.355 . S
C2966 C2968 1.415 . S
C2967 C2966 1.355 . S
C2967 C2969 1.419 . S
C2968 C2966 1.415 . S
C2968 C2973 1.425 . S
C2968 C2975 1.409 . S
C2969 H2961 0.930 . S
C2969 C2967 1.419 . S
C2969 C2970 1.362 . S
C2970 H2962 0.930 . S
C2970 C2969 1.362 . S
C2970 C2973 1.409 . S
C2971 H2963 0.930 . S
C2971 C2972 1.355 . S
C2971 C2973 1.415 . S
C2972 C2971 1.355 . S
C2972 C2974 1.419 . S
C2973 C2968 1.425 . S
C2973 C2970 1.409 . S
C2973 C2971 1.415 . S
C2974 H2964 0.930 . S
C2974 C2972 1.419 . S
C2974 C2975 1.362 . S
C2975 H2965 0.930 . S
C2975 C2968 1.409 . S
C2975 C2974 1.362 . S
H2976 C2982 0.930 . S
H2977 C2985 0.930 . S
H2978 C2986 0.930 . S
H2979 C2987 0.930 . S
H2980 C2990 0.930 . S
H2981 C2991 0.930 . S
C2982 H2976 0.930 . S
C2982 C2983 1.355 . S
C2982 C2984 1.415 . S
C2983 C2982 1.355 . S
C2983 C2985 1.419 . S
C2984 C2982 1.415 . S
C2984 C2989 1.425 . S
C2984 C2991 1.409 . S
C2985 H2977 0.930 . S
C2985 C2983 1.419 . S
C2985 C2986 1.362 . S
C2986 H2978 0.930 . S
C2986 C2985 1.362 . S
C2986 C2989 1.409 . S
C2987 H2979 0.930 . S
C2987 C2988 1.355 . S
C2987 C2989 1.415 . S
C2988 C2987 1.355 . S
C2988 C2990 1.419 . S
C2989 C2984 1.425 . S
C2989 C2986 1.409 . S
C2989 C2987 1.415 . S
C2990 H2980 0.930 . S
C2990 C2988 1.419 . S
C2990 C2991 1.362 . S
C2991 H2981 0.930 . S
C2991 C2984 1.409 . S
C2991 C2990 1.362 . S
H2992 C2998 0.930 . S
H2993 C3001 0.930 . S
H2994 C3002 0.930 . S
H2995 C3003 0.930 . S
H2996 C3006 0.930 . S
H2997 C3007 0.930 . S
C2998 H2992 0.930 . S
C2998 C2999 1.355 . S
C2998 C3000 1.415 . S
C2999 C2998 1.355 . S
C2999 C3001 1.419 . S
C3000 C2998 1.415 . S
C3000 C3005 1.425 . S
C3000 C3007 1.409 . S
C3001 H2993 0.930 . S
C3001 C2999 1.419 . S
C3001 C3002 1.362 . S
C3002 H2994 0.930 . S
C3002 C3001 1.362 . S
C3002 C3005 1.409 . S
C3003 H2995 0.930 . S
C3003 C3004 1.355 . S
C3003 C3005 1.415 . S
C3004 C3003 1.355 . S
C3004 C3006 1.419 . S
C3005 C3000 1.425 . S
C3005 C3002 1.409 . S
C3005 C3003 1.415 . S
C3006 H2996 0.930 . S
C3006 C3004 1.419 . S
C3006 C3007 1.362 . S
C3007 H2997 0.930 . S
C3007 C3000 1.409 . S
C3007 C3006 1.362 . S
H3008 C3014 0.930 . S
H3009 C3017 0.930 . S
H3010 C3018 0.930 . S
H3011 C3019 0.930 . S
H3012 C3022 0.930 . S
H3013 C3023 0.930 . S
C3014 H3008 0.930 . S
C3014 C3015 1.355 . S
C3014 C3016 1.415 . S
C3015 C3014 1.355 . S
C3015 C3017 1.419 . S
C3016 C3014 1.415 . S
C3016 C3021 1.425 . S
C3016 C3023 1.409 . S
C3017 H3009 0.930 . S
C3017 C3015 1.419 . S
C3017 C3018 1.362 . S
C3018 H3010 0.930 . S
C3018 C3017 1.362 . S
C3018 C3021 1.409 . S
C3019 H3011 0.930 . S
C3019 C3020 1.355 . S
C3019 C3021 1.415 . S
C3020 C3019 1.355 . S
C3020 C3022 1.419 . S
C3021 C3016 1.425 . S
C3021 C3018 1.409 . S
C3021 C3019 1.415 . S
C3022 H3012 0.930 . S
C3022 C3020 1.419 . S
C3022 C3023 1.362 . S
C3023 H3013 0.930 . S
C3023 C3016 1.409 . S
C3023 C3022 1.362 . S
H3024 C3030 0.930 . S
H3025 C3033 0.930 . S
H3026 C3034 0.930 . S
H3027 C3035 0.930 . S
H3028 C3038 0.930 . S
H3029 C3039 0.930 . S
C3030 H3024 0.930 . S
C3030 C3031 1.355 . S
C3030 C3032 1.415 . S
C3031 C3030 1.355 . S
C3031 C3033 1.419 . S
C3032 C3030 1.415 . S
C3032 C3037 1.425 . S
C3032 C3039 1.409 . S
C3033 H3025 0.930 . S
C3033 C3031 1.419 . S
C3033 C3034 1.362 . S
C3034 H3026 0.930 . S
C3034 C3033 1.362 . S
C3034 C3037 1.409 . S
C3035 H3027 0.930 . S
C3035 C3036 1.355 . S
C3035 C3037 1.415 . S
C3036 C3035 1.355 . S
C3036 C3038 1.419 . S
C3037 C3032 1.425 . S
C3037 C3034 1.409 . S
C3037 C3035 1.415 . S
C3038 H3028 0.930 . S
C3038 C3036 1.419 . S
C3038 C3039 1.362 . S
C3039 H3029 0.930 . S
C3039 C3032 1.409 . S
C3039 C3038 1.362 . S
H3040 C3046 0.930 . S
H3041 C3049 0.930 . S
H3042 C3050 0.930 . S
H3043 C3051 0.930 . S
H3044 C3054 0.930 . S
H3045 C3055 0.930 . S
C3046 H3040 0.930 . S
C3046 C3047 1.355 . S
C3046 C3048 1.415 . S
C3047 C3046 1.355 . S
C3047 C3049 1.419 . S
C3048 C3046 1.415 . S
C3048 C3053 1.425 . S
C3048 C3055 1.409 . S
C3049 H3041 0.930 . S
C3049 C3047 1.419 . S
C3049 C3050 1.362 . S
C3050 H3042 0.930 . S
C3050 C3049 1.362 . S
C3050 C3053 1.409 . S
C3051 H3043 0.930 . S
C3051 C3052 1.355 . S
C3051 C3053 1.415 . S
C3052 C3051 1.355 . S
C3052 C3054 1.419 . S
C3053 C3048 1.425 . S
C3053 C3050 1.409 . S
C3053 C3051 1.415 . S
C3054 H3044 0.930 . S
C3054 C3052 1.419 . S
C3054 C3055 1.362 . S
C3055 H3045 0.930 . S
C3055 C3048 1.409 . S
C3055 C3054 1.362 . S
H3056 C3062 0.930 . S
H3057 C3065 0.930 . S
H3058 C3066 0.930 . S
H3059 C3067 0.930 . S
H3060 C3070 0.930 . S
H3061 C3071 0.930 . S
C3062 H3056 0.930 . S
C3062 C3063 1.355 . S
C3062 C3064 1.415 . S
C3063 C3062 1.355 . S
C3063 C3065 1.419 . S
C3064 C3062 1.415 . S
C3064 C3069 1.425 . S
C3064 C3071 1.409 . S
C3065 H3057 0.930 . S
C3065 C3063 1.419 . S
C3065 C3066 1.362 . S
C3066 H3058 0.930 . S
C3066 C3065 1.362 . S
C3066 C3069 1.409 . S
C3067 H3059 0.930 . S
C3067 C3068 1.355 . S
C3067 C3069 1.415 . S
C3068 C3067 1.355 . S
C3068 C3070 1.419 . S
C3069 C3064 1.425 . S
C3069 C3066 1.409 . S
C3069 C3067 1.415 . S
C3070 H3060 0.930 . S
C3070 C3068 1.419 . S
C3070 C3071 1.362 . S
C3071 H3061 0.930 . S
C3071 C3064 1.409 . S
C3071 C3070 1.362 . S
H3072 C3078 0.930 . S
H3073 C3081 0.930 . S
H3074 C3082 0.930 . S
H3075 C3083 0.930 . S
H3076 C3086 0.930 . S
H3077 C3087 0.930 . S
C3078 H3072 0.930 . S
C3078 C3079 1.355 . S
C3078 C3080 1.415 . S
C3079 C3078 1.355 . S
C3079 C3081 1.419 . S
C3080 C3078 1.415 . S
C3080 C3085 1.425 . S
C3080 C3087 1.409 . S
C3081 H3073 0.930 . S
C3081 C3079 1.419 . S
C3081 C3082 1.362 . S
C3082 H3074 0.930 . S
C3082 C3081 1.362 . S
C3082 C3085 1.409 . S
C3083 H3075 0.930 . S
C3083 C3084 1.355 . S
C3083 C3085 1.415 . S
C3084 C3083 1.355 . S
C3084 C3086 1.419 . S
C3085 C3080 1.425 . S
C3085 C3082 1.409 . S
C3085 C3083 1.415 . S
C3086 H3076 0.930 . S
C3086 C3084 1.419 . S
C3086 C3087 1.362 . S
C3087 H3077 0.930 . S
C3087 C3080 1.409 . S
C3087 C3086 1.362 . S
H3088 C3094 0.930 . S
H3089 C3097 0.930 . S
H3090 C3098 0.930 . S
H3091 C3099 0.930 . S
H3092 C3102 0.930 . S
H3093 C3103 0.930 . S
C3094 H3088 0.930 . S
C3094 C3095 1.355 . S
C3094 C3096 1.415 . S
C3095 C3094 1.355 . S
C3095 C3097 1.419 . S
C3096 C3094 1.415 . S
C3096 C3101 1.425 . S
C3096 C3103 1.409 . S
C3097 H3089 0.930 . S
C3097 C3095 1.419 . S
C3097 C3098 1.362 . S
C3098 H3090 0.930 . S
C3098 C3097 1.362 . S
C3098 C3101 1.409 . S
C3099 H3091 0.930 . S
C3099 C3100 1.355 . S
C3099 C3101 1.415 . S
C3100 C3099 1.355 . S
C3100 C3102 1.419 . S
C3101 C3096 1.425 . S
C3101 C3098 1.409 . S
C3101 C3099 1.415 . S
C3102 H3092 0.930 . S
C3102 C3100 1.419 . S
C3102 C3103 1.362 . S
C3103 H3093 0.930 . S
C3103 C3096 1.409 . S
C3103 C3102 1.362 . S
H3104 C3110 0.930 . S
H3105 C3113 0.930 . S
H3106 C3114 0.930 . S
H3107 C3115 0.930 . S
H3108 C3118 0.930 . S
H3109 C3119 0.930 . S
C3110 H3104 0.930 . S
C3110 C3111 1.355 . S
C3110 C3112 1.415 . S
C3111 C3110 1.355 . S
C3111 C3113 1.419 . S
C3112 C3110 1.415 . S
C3112 C3117 1.425 . S
C3112 C3119 1.409 . S
C3113 H3105 0.930 . S
C3113 C3111 1.419 . S
C3113 C3114 1.362 . S
C3114 H3106 0.930 . S
C3114 C3113 1.362 . S
C3114 C3117 1.409 . S
C3115 H3107 0.930 . S
C3115 C3116 1.355 . S
C3115 C3117 1.415 . S
C3116 C3115 1.355 . S
C3116 C3118 1.419 . S
C3117 C3112 1.425 . S
C3117 C3114 1.409 . S
C3117 C3115 1.415 . S
C3118 H3108 0.930 . S
C3118 C3116 1.419 . S
C3118 C3119 1.362 . S
C3119 H3109 0.930 . S
C3119 C3112 1.409 . S
C3119 C3118 1.362 . S
H3120 C3126 0.930 . S
H3121 C3129 0.930 . S
H3122 C3130 0.930 . S
H3123 C3131 0.930 . S
H3124 C3134 0.930 . S
H3125 C3135 0.930 . S
C3126 H3120 0.930 . S
C3126 C3127 1.355 . S
C3126 C3128 1.415 . S
C3127 C3126 1.355 . S
C3127 C3129 1.419 . S
C3128 C3126 1.415 . S
C3128 C3133 1.425 . S
C3128 C3135 1.409 . S
C3129 H3121 0.930 . S
C3129 C3127 1.419 . S
C3129 C3130 1.362 . S
C3130 H3122 0.930 . S
C3130 C3129 1.362 . S
C3130 C3133 1.409 . S
C3131 H3123 0.930 . S
C3131 C3132 1.355 . S
C3131 C3133 1.415 . S
C3132 C3131 1.355 . S
C3132 C3134 1.419 . S
C3133 C3128 1.425 . S
C3133 C3130 1.409 . S
C3133 C3131 1.415 . S
C3134 H3124 0.930 . S
C3134 C3132 1.419 . S
C3134 C3135 1.362 . S
C3135 H3125 0.930 . S
C3135 C3128 1.409 . S
C3135 C3134 1.362 . S
H3136 C3142 0.930 . S
H3137 C3145 0.930 . S
H3138 C3146 0.930 . S
H3139 C3147 0.930 . S
H3140 C3150 0.930 . S
H3141 C3151 0.930 . S
C3142 H3136 0.930 . S
C3142 C3143 1.355 . S
C3142 C3144 1.415 . S
C3143 C3142 1.355 . S
C3143 C3145 1.419 . S
C3144 C3142 1.415 . S
C3144 C3149 1.425 . S
C3144 C3151 1.409 . S
C3145 H3137 0.930 . S
C3145 C3143 1.419 . S
C3145 C3146 1.362 . S
C3146 H3138 0.930 . S
C3146 C3145 1.362 . S
C3146 C3149 1.409 . S
C3147 H3139 0.930 . S
C3147 C3148 1.355 . S
C3147 C3149 1.415 . S
C3148 C3147 1.355 . S
C3148 C3150 1.419 . S
C3149 C3144 1.425 . S
C3149 C3146 1.409 . S
C3149 C3147 1.415 . S
C3150 H3140 0.930 . S
C3150 C3148 1.419 . S
C3150 C3151 1.362 . S
C3151 H3141 0.930 . S
C3151 C3144 1.409 . S
C3151 C3150 1.362 . S
H3152 C3158 0.930 . S
H3153 C3161 0.930 . S
H3154 C3162 0.930 . S
H3155 C3163 0.930 . S
H3156 C3166 0.930 . S
H3157 C3167 0.930 . S
C3158 H3152 0.930 . S
C3158 C3159 1.355 . S
C3158 C3160 1.415 . S
C3159 C3158 1.355 . S
C3159 C3161 1.419 . S
C3160 C3158 1.415 . S
C3160 C3165 1.425 . S
C3160 C3167 1.409 . S
C3161 H3153 0.930 . S
C3161 C3159 1.419 . S
C3161 C3162 1.362 . S
C3162 H3154 0.930 . S
C3162 C3161 1.362 . S
C3162 C3165 1.409 . S
C3163 H3155 0.930 . S
C3163 C3164 1.355 . S
C3163 C3165 1.415 . S
C3164 C3163 1.355 . S
C3164 C3166 1.419 . S
C3165 C3160 1.425 . S
C3165 C3162 1.409 . S
C3165 C3163 1.415 . S
C3166 H3156 0.930 . S
C3166 C3164 1.419 . S
C3166 C3167 1.362 . S
C3167 H3157 0.930 . S
C3167 C3160 1.409 . S
C3167 C3166 1.362 . S
C1447 C609 0.999 . S
C1452 C9 1.099 . S
C1463 C649 1.044 . S
C1468 C49 1.120 . S
C1479 C89 1.116 . S
C1484 C689 1.073 . S
C1495 C129 1.008 . S
C1500 C969 1.107 . S
C1511 C169 1.097 . S
C1516 C1009 1.102 . S
C1527 C209 1.074 . S
C1532 C1049 0.988 . S
C1543 C1338 1.069 . S
C1548 C258 1.115 . S
C1559 C1378 1.077 . S
C1564 C298 1.115 . S
C1575 C338 0.987 . S
C1580 C1418 1.058 . S
C1591 C738 1.106 . S
C1596 C378 1.007 . S
C1607 C418 1.059 . S
C1612 C778 0.986 . S
C1623 C458 1.119 . S
C1628 C818 1.063 . S
C1639 C1089 1.008 . S
C1644 C489 1.008 . S
C1655 C529 1.118 . S
C1660 C1129 1.065 . S
C1671 C1169 0.994 . S
C1676 C569 1.091 . S
C1687 C1218 1.112 . S
C1692 C858 1.017 . S
C1703 C1258 1.012 . S
C1708 C898 1.110 . S
C1719 C938 1.111 . S
C1724 C1298 1.014 . S
C1735 C19 2.132 . S
C1740 C179 2.124 . S
C1751 C59 2.095 . S
C1756 C219 2.127 . S
C1767 C99 2.094 . S
C1772 C139 2.126 . S
C1783 C250 2.100 . S
C1788 C410 2.132 . S
C1799 C290 2.099 . S
C1804 C450 2.131 . S
C1815 C330 2.115 . S
C1820 C370 2.135 . S
C1831 C499 2.093 . S
C1836 C659 2.104 . S
C1847 C699 2.097 . S
C1852 C539 2.099 . S
C1863 C579 2.132 . S
C1868 C619 2.123 . S
C1879 C730 2.094 . S
C1884 C890 2.125 . S
C1895 C770 2.125 . S
C1900 C930 2.132 . S
C1911 C850 2.093 . S
C1916 C810 2.104 . S
C1927 C979 2.091 . S
C1932 C1139 2.112 . S
C1943 C1179 2.096 . S
C1948 C1019 2.100 . S
C1959 C1059 2.132 . S
C1964 C1099 2.101 . S
C1975 C1210 2.097 . S
C1980 C1370 2.099 . S
C1991 C1250 2.116 . S
C1996 C1410 2.091 . S
C2007 C1290 2.122 . S
C2012 C1330 2.092 . S
C2023 C419 1.583 . S
C2028 C15 1.519 . S
C2039 C55 1.529 . S
C2044 C459 1.582 . S
C2055 C95 1.522 . S
C2060 C379 1.583 . S
C2071 C135 1.520 . S
C2076 C339 1.583 . S
C2087 C175 1.574 . S
C2092 C259 1.584 . S
C2103 C299 1.582 . S
C2108 C215 1.564 . S
C2119 C246 1.519 . S
C2124 C170 1.586 . S
C2135 C210 1.589 . S
C2140 C286 1.559 . S
C2151 C326 1.574 . S
C2156 C130 1.586 . S
C2167 C366 1.571 . S
C2172 C90 1.583 . S
C2183 C10 1.584 . S
C2188 C406 1.519 . S
C2199 C50 1.582 . S
C2204 C446 1.567 . S
C2215 C899 1.588 . S
C2220 C495 1.566 . S
C2231 C939 1.589 . S
C2236 C535 1.538 . S
C2247 C859 1.589 . S
C2252 C575 1.555 . S
C2263 C819 1.587 . S
C2268 C615 1.523 . S
C2279 C655 1.573 . S
C2284 C739 1.584 . S
C2295 C779 1.584 . S
C2300 C695 1.519 . S
C2311 C650 1.581 . S
C2316 C726 1.543 . S
C2327 C766 1.573 . S
C2332 C690 1.587 . S
C2343 C806 1.519 . S
C2348 C610 1.586 . S
C2359 C570 1.586 . S
C2364 C846 1.575 . S
C2375 C886 1.573 . S
C2380 C490 1.584 . S
C2391 C926 1.526 . S
C2396 C530 1.582 . S
C2407 C975 1.554 . S
C2412 C1379 1.581 . S
C2423 C1015 1.526 . S
C2428 C1419 1.588 . S
C2439 C1339 1.582 . S
C2444 C1055 1.526 . S
C2455 C1299 1.582 . S
C2460 C1095 1.566 . S
C2471 C1135 1.518 . S
C2476 C1219 1.586 . S
C2487 C1259 1.581 . S
C2492 C1175 1.534 . S
C2503 C1206 1.558 . S
C2508 C1130 1.589 . S
C2519 C1170 1.589 . S
C2524 C1246 1.535 . S
C2535 C1286 1.542 . S
C2540 C1090 1.589 . S
C2551 C1326 1.546 . S
C2556 C1050 1.581 . S
C2567 C970 1.589 . S
C2572 C1366 1.539 . S
C2583 C1010 1.586 . S
C2588 C1406 1.575 . S
C2599 C6 1.064 . S
C2604 C166 1.103 . S
C2615 C206 1.090 . S
C2620 C46 1.084 . S
C2631 C86 1.057 . S
C2636 C126 1.096 . S
C2647 C255 1.057 . S
C2652 C415 1.101 . S
C2663 C455 1.096 . S
C2668 C295 1.078 . S
C2679 C335 1.065 . S
C2684 C375 1.082 . S
C2695 C646 1.084 . S
C2700 C486 1.063 . S
C2711 C686 1.103 . S
C2716 C526 1.065 . S
C2727 C606 1.076 . S
C2732 C566 1.070 . S
C2743 C895 1.067 . S
C2748 C735 1.080 . S
C2759 C775 1.085 . S
C2764 C935 1.089 . S
C2775 C855 1.092 . S
C2780 C815 1.083 . S
C2791 C1126 1.091 . S
C2796 C966 1.083 . S
C2807 C1006 1.102 . S
C2812 C1166 1.057 . S
C2823 C1046 1.086 . S
C2828 C1086 1.063 . S
C2839 C1375 1.099 . S
C2844 C1215 1.074 . S
C2855 C1255 1.080 . S
C2860 C1415 1.067 . S
C2871 C1295 1.083 . S
C2876 C1335 1.092 . S
C2887 C18 0.728 . S
C2892 C249 0.728 . S
C2903 C58 0.685 . S
C2908 C289 0.685 . S
C2919 C329 0.665 . S
C2924 C98 0.665 . S
C2935 C369 0.757 . S
C2940 C138 0.757 . S
C2951 C178 0.660 . S
C2956 C409 0.660 . S
C2967 C218 0.672 . S
C2972 C449 0.672 . S
C2983 C729 0.749 . S
C2988 C498 0.749 . S
C2999 C538 0.761 . S
C3004 C769 0.761 . S
C3015 C809 0.748 . S
C3020 C578 0.748 . S
C3031 C849 0.764 . S
C3036 C618 0.764 . S
C3047 C889 0.765 . S
C3052 C658 0.765 . S
C3063 C929 0.765 . S
C3068 C698 0.765 . S
C3079 C1209 0.681 . S
C3084 C978 0.681 . S
C3095 C1018 0.686 . S
C3100 C1249 0.686 . S
C3111 C1289 0.723 . S
C3116 C1058 0.723 . S
C3127 C1329 0.662 . S
C3132 C1098 0.662 . S
C3143 C1369 0.712 . S
C3148 C1138 0.712 . S
C3159 C1178 0.674 . S
C3164 C1409 0.674 . S
