# Generated by pormake.
# Topology qtz-x, (6)-cn, num edge types: 1
# Building blocks:
#     Node 0, Type 0, BuildingBlock: KUMJIN_clean_sbu_0, # of connection points: 6
#     Node 1, Type 0, BuildingBlock: KUMJIN_clean_sbu_0, # of connection points: 6
#     Node 2, Type 0, BuildingBlock: KUMJIN_clean_sbu_0, # of connection points: 6
#     Edge 3, Type (0, 0), BuildingBlock: TEMPAE_clean_linker_10, # of connection points: 2
#     Edge 4, Type (0, 0), BuildingBlock: TEMPAE_clean_linker_10, # of connection points: 2
#     Edge 5, Type (0, 0), BuildingBlock: TEMPAE_clean_linker_10, # of connection points: 2
#     Edge 6, Type (0, 0), BuildingBlock: TEMPAE_clean_linker_10, # of connection points: 2
#     Edge 7, Type (0, 0), BuildingBlock: TEMPAE_clean_linker_10, # of connection points: 2
#     Edge 8, Type (0, 0), BuildingBlock: TEMPAE_clean_linker_10, # of connection points: 2
#     Edge 9, Type (0, 0), BuildingBlock: TEMPAE_clean_linker_10, # of connection points: 2
#     Edge 10, Type (0, 0), BuildingBlock: TEMPAE_clean_linker_10, # of connection points: 2
#     Edge 11, Type (0, 0), BuildingBlock: TEMPAE_clean_linker_10, # of connection points: 2
# Relax obj value: 0.164
# Max RMSD: 0.279
# Mean RMSD: 0.279
data_MOF--net-qtz-x--node1-KUMJIN_clean_sbu_0--edge1-TEMPAE_clean_linker_10
_symmetry_space_group_name_H-M    P1
_symmetry_Int_Tables_number       1
_symmetry_cell_setting            triclinic
loop_
_symmetry_equiv_pos_as_xyz
'x, y, z'
_cell_length_a     15.323855
_cell_length_b     15.321034
_cell_length_c     51.587485
_cell_angle_alpha  90.118611
_cell_angle_beta   89.910678
_cell_angle_gamma 120.02639
loop_
_atom_site_label
_atom_site_type_symbol
_atom_site_fract_x
_atom_site_fract_y
_atom_site_fract_z
_atom_type_partial_charge
Eu0 Eu 0.25811 0.45823 0.19949 0.0
C1 C 0.83491 0.36506 0.15675 0.0
C2 C 0.71264 0.21418 0.1793 0.0
C3 C 0.66062 0.32576 0.16019 0.0
C4 C 0.81179 0.27823 0.17036 0.0
C5 C 0.75932 0.38931 0.15132 0.0
C6 C 0.6376 0.23904 0.17438 0.0
C7 C 0.88264 0.53353 0.12707 0.0
N8 N 0.93016 0.42329 0.14774 0.0
C9 C 0.9544 0.5052 0.13249 0.0
C10 C 0.78457 0.47526 0.1365 0.0
Eu11 Eu 0.0433 0.36329 0.15472 0.0
N12 N 0.88476 0.25366 0.17371 0.0
C13 C 0.86248 0.16406 0.18484 0.0
C14 C 0.69093 0.12504 0.19206 0.0
C15 C 0.76611 0.09962 0.1947 0.0
H16 H 0.02939 0.54881 0.12455 0.0
H17 H 0.74948 0.02962 0.20396 0.0
H18 H 0.56102 0.19049 0.18096 0.0
H19 H 0.90256 0.5993 0.1153 0.0
H20 H 0.91898 0.14197 0.18632 0.0
H21 H 0.5263 0.80879 0.14826 0.0
H22 H 0.61581 0.0741 0.1993 0.0
H23 H 0.30435 0.29117 0.2291 0.0
H24 H 0.36716 0.69207 0.1683 0.0
H25 H 0.44562 0.25967 0.2354 0.0
H26 H 0.60123 0.34236 0.15592 0.0
H27 H 0.66651 0.77344 0.14776 0.0
H28 H 0.73642 0.66603 0.1622 0.0
H29 H 0.72862 0.49632 0.13189 0.0
H30 H 0.71672 0.52105 0.18706 0.0
N31 N 0.4102 0.5833 0.17898 0.0
C32 C 0.42505 0.67214 0.16858 0.0
C33 C 0.59534 0.71981 0.15659 0.0
C34 C 0.58284 0.63258 0.16853 0.0
C35 C 0.51659 0.74022 0.15694 0.0
C36 C 0.48826 0.56439 0.17964 0.0
H37 H 0.60948 0.37002 0.21429 0.0
N38 N 0.3864 0.41687 0.20421 0.0
C39 C 0.45528 0.32167 0.22335 0.0
C40 C 0.47641 0.47995 0.19286 0.0
C41 C 0.37562 0.34018 0.21988 0.0
C42 C 0.5474 0.38375 0.21127 0.0
C43 C 0.55926 0.46438 0.196 0.0
O44 O 0.21015 0.50695 0.2343 0.0
O45 O 0.09096 0.37985 0.1962 0.0
O46 O 0.05089 0.49354 0.17664 0.0
O47 O 0.22174 0.57892 0.18759 0.0
O48 O 0.14944 0.31314 0.2197 0.0
O49 O 0.3584 0.52685 0.23282 0.0
O50 O 0.04172 0.36977 0.11247 0.0
O51 O 0.20963 0.43175 0.15834 0.0
O52 O 0.24036 0.31452 0.18205 0.0
O53 O 0.08036 0.23996 0.16295 0.0
O54 O 0.16103 0.4941 0.13087 0.0
O55 O 0.96949 0.22478 0.13187 0.0
C56 C 0.06713 0.31024 0.21257 0.0
C57 C 0.27861 0.48775 0.2737 0.0
C58 C 0.29674 0.50862 0.32105 0.0
C59 C 0.30113 0.54883 0.29599 0.0
C60 C 0.26809 0.40584 0.32302 0.0
C61 C 0.24862 0.38563 0.27668 0.0
C62 C 0.24286 0.34503 0.3011 0.0
C63 C 0.13482 0.57539 0.1835 0.0
C64 C 0.29148 0.53114 0.24736 0.0
C65 C 0.65231 0.53148 0.18464 0.0
C66 C 0.66364 0.61437 0.17061 0.0
C67 C 0.23951 0.49577 0.14041 0.0
C68 C 0.89574 0.23976 0.0927 0.0
C69 C 0.91104 0.2753 0.06703 0.0
C70 C 0.82881 0.24823 0.05031 0.0
C71 C 0.73069 0.18366 0.05962 0.0
C72 C 0.79703 0.17604 0.10161 0.0
C73 C 0.7152 0.14802 0.08508 0.0
C74 C 0.16186 0.23799 0.17058 0.0
C75 C 0.98356 0.27262 0.10993 0.0
H76 H 0.32235 0.62718 0.29361 0.0
H77 H 0.26744 0.37184 0.34141 0.0
H78 H 0.23154 0.33693 0.26022 0.0
H79 H 0.22091 0.2663 0.30299 0.0
H80 H 0.98709 0.32618 0.06034 0.0
H81 H 0.6658 0.16027 0.04719 0.0
H82 H 0.78287 0.14816 0.12133 0.0
H83 H 0.63935 0.0987 0.09204 0.0
Eu84 Eu 0.57453 0.93733 0.53506 0.0
C85 C 0.90289 0.35732 0.48962 0.0
C86 C 0.87218 0.48041 0.51103 0.0
C87 C 0.03565 0.53312 0.49166 0.0
C88 C 0.83838 0.38051 0.50285 0.0
C89 C 0.00212 0.4335 0.48376 0.0
C90 C 0.97133 0.55628 0.50557 0.0
C91 C 0.02596 0.30856 0.46119 0.0
N92 N 0.86736 0.26118 0.48147 0.0
C93 C 0.92626 0.23622 0.46691 0.0
C94 C 0.064 0.40773 0.46961 0.0
Eu95 Eu 0.6946 0.14656 0.48859 0.0
N96 N 0.74145 0.30658 0.50668 0.0
C97 C 0.67375 0.32846 0.51788 0.0
C98 C 0.80427 0.5019 0.52366 0.0
C99 C 0.70451 0.42559 0.52701 0.0
H100 H 0.89617 0.16002 0.45986 0.0
H101 H 0.65079 0.44185 0.53628 0.0
H102 H -0.00167 0.63352 0.51153 0.0
H103 H 0.07291 0.28814 0.45 0.0
H104 H 0.59573 0.27125 0.52007 0.0
H105 H 0.63558 0.65648 0.48328 0.0
H106 H 0.82745 0.57756 0.53033 0.0
H107 H 0.37053 0.89859 0.56823 0.0
H108 H 0.68614 0.81838 0.50333 0.0
H109 H 0.19235 0.76599 0.57369 0.0
H110 H 0.11107 0.59296 0.48699 0.0
H111 H 0.45661 0.52346 0.48265 0.0
H112 H 0.28081 0.46325 0.49711 0.0
H113 H 0.14069 0.46403 0.46481 0.0
H114 H 0.16209 0.48999 0.52315 0.0
N115 N 0.53738 0.78258 0.51437 0.0
C116 C 0.60782 0.76273 0.50388 0.0
C117 C 0.47827 0.59548 0.49164 0.0
C118 C 0.4069 0.61313 0.50371 0.0
C119 C 0.57931 0.67004 0.49212 0.0
C120 C 0.43867 0.70856 0.51505 0.0
H121 H 0.12709 0.6032 0.55078 0.0
N122 N 0.40266 0.81535 0.54061 0.0
C123 C 0.24104 0.7538 0.5608 0.0
C124 C 0.36983 0.72512 0.52869 0.0
C125 C 0.3415 0.82899 0.55748 0.0
C126 C 0.20454 0.66214 0.5478 0.0
C127 C 0.26949 0.646 0.53199 0.0
O128 O 0.67021 0.98043 0.56986 0.0
O129 O 0.66939 0.10383 0.53036 0.0
O130 O 0.81606 0.13781 0.51064 0.0
O131 O 0.73053 0.96872 0.52326 0.0
O132 O 0.54863 0.05377 0.55504 0.0
O133 O 0.53774 0.83506 0.56825 0.0
O134 O 0.70778 0.14628 0.44641 0.0
O135 O 0.5932 0.98072 0.49333 0.0
O136 O 0.45128 0.96321 0.52056 0.0
O137 O 0.53579 0.11404 0.49695 0.0
O138 O 0.706 0.02528 0.46619 0.0
O139 O 0.62687 0.21324 0.46431 0.0
C140 C 0.62912 0.13302 0.54699 0.0
C141 C 0.58206 0.91363 0.60941 0.0
C142 C 0.57111 0.87936 0.65616 0.0
C143 C 0.59829 0.86626 0.63077 0.0
C144 C 0.53024 0.94288 0.6597 0.0
C145 C 0.53634 0.97214 0.61367 0.0
C146 C 0.5119 0.9876 0.63858 0.0
C147 C 0.81444 0.05495 0.51849 0.0
C148 C 0.61029 0.89966 0.58282 0.0
C149 C 0.23816 0.55199 0.52042 0.0
C150 C 0.30606 0.53635 0.50586 0.0
C151 C 0.62706 0.94877 0.47571 0.0
C152 C 0.71729 0.2872 0.42535 0.0
C153 C 0.73504 0.27129 0.39947 0.0
C154 C 0.78861 0.35326 0.38254 0.0
C155 C 0.82293 0.45156 0.39185 0.0
C156 C 0.75287 0.38609 0.43423 0.0
C157 C 0.80501 0.46758 0.41749 0.0
C158 C 0.45434 0.0389 0.50759 0.0
C159 C 0.66444 0.19998 0.44287 0.0
H160 H 0.62982 0.81775 0.62747 0.0
H161 H 0.51193 0.95809 0.67884 0.0
H162 H 0.51874 0.00619 0.59798 0.0
H163 H 0.47839 0.03451 0.64152 0.0
H164 H 0.70937 0.19513 0.39275 0.0
H165 H 0.86344 0.51617 0.37927 0.0
H166 H 0.74086 0.40064 0.45409 0.0
H167 H 0.83209 0.54357 0.42446 0.0
Eu168 Eu 0.71092 0.58955 0.8628 0.0
C169 C 0.84881 0.27839 0.82863 0.0
C170 C 0.00185 0.32992 0.85314 0.0
C171 C 0.90843 0.15999 0.83577 0.0
C172 C 0.93055 0.35184 0.84223 0.0
C173 C 0.83774 0.18209 0.82489 0.0
C174 C 0.98941 0.23328 0.85018 0.0
C175 C 0.69187 0.13876 0.79828 0.0
N176 N 0.78332 0.30278 0.81777 0.0
C177 C 0.70678 0.2356 0.80225 0.0
C178 C 0.75786 0.11197 0.80959 0.0
Eu179 Eu 0.82233 0.47216 0.82165 0.0
N180 N 0.94344 0.44608 0.84358 0.0
C181 C 0.02844 0.52272 0.85464 0.0
C182 C 0.08585 0.40691 0.86581 0.0
C183 C 0.09948 0.50392 0.86641 0.0
H184 H 0.65731 0.25718 0.79291 0.0
H185 H 0.16546 0.56467 0.8756 0.0
H186 H 0.04375 0.21558 0.85832 0.0
H187 H 0.63058 0.08544 0.78617 0.0
H188 H 0.0418 0.59875 0.85482 0.0
H189 H 0.35405 0.45299 0.80793 0.0
H190 H 0.142 0.39293 0.87453 0.0
H191 H 0.85944 0.81826 0.88811 0.0
H192 H 0.48072 0.43442 0.83074 0.0
H193 H 0.87022 0.98424 0.89013 0.0
H194 H 0.90196 0.08693 0.83285 0.0
H195 H 0.3678 0.61957 0.80383 0.0
H196 H 0.45763 0.80165 0.81504 0.0
H197 H 0.74761 0.0377 0.80601 0.0
H198 H 0.59423 0.94431 0.8382 0.0
N199 N 0.57489 0.59181 0.83992 0.0
C200 C 0.49168 0.50906 0.82973 0.0
C201 C 0.42591 0.61276 0.81402 0.0
C202 C 0.50727 0.69646 0.82546 0.0
C203 C 0.41775 0.5187 0.81638 0.0
C204 C 0.58191 0.68407 0.83837 0.0
H205 H 0.74564 0.01189 0.8667 0.0
N206 N 0.73285 0.75375 0.86288 0.0
C207 C 0.81176 0.92398 0.87874 0.0
C208 C 0.66209 0.76654 0.85037 0.0
C209 C 0.80534 0.82987 0.87757 0.0
C210 C 0.74179 0.93947 0.86535 0.0
C211 C 0.666 0.86071 0.85093 0.0
O212 O 0.66302 0.50084 0.89895 0.0
O213 O 0.79681 0.50789 0.86199 0.0
O214 O 0.69052 0.34581 0.84226 0.0
O215 O 0.5997 0.42587 0.85384 0.0
O216 O 0.85519 0.63585 0.8847 0.0
O217 O 0.6433 0.62861 0.895 0.0
O218 O 0.8157 0.45676 0.77947 0.0
O219 O 0.74413 0.56202 0.82259 0.0
O220 O 0.85691 0.71872 0.84675 0.0
O221 O 0.93582 0.63623 0.82831 0.0
O222 O 0.6893 0.44344 0.79665 0.0
O223 O 0.96042 0.54152 0.79854 0.0
C224 C 0.86323 0.55804 0.87879 0.0
C225 C 0.68515 0.59879 0.93676 0.0
C226 C 0.66951 0.60142 0.98421 0.0
C227 C 0.62792 0.55951 0.95962 0.0
C228 C 0.76992 0.68174 0.9852 0.0
C229 C 0.78474 0.67857 0.93875 0.0
C230 C 0.82695 0.71873 0.96274 0.0
C231 C 0.60734 0.34475 0.84948 0.0
C232 C 0.63989 0.56131 0.91082 0.0
C233 C 0.59239 0.8727 0.83792 0.0
C234 C 0.51421 0.79126 0.82488 0.0
C235 C 0.68173 0.51938 0.80451 0.0
C236 C 0.95304 0.45561 0.7593 0.0
C237 C 0.92669 0.44419 0.7329 0.0
C238 C 0.9599 0.39497 0.71584 0.0
C239 C 0.02155 0.35873 0.72556 0.0
C240 C 0.01417 0.41836 0.76862 0.0
C241 C 0.04857 0.3707 0.75175 0.0
C242 C 0.93518 0.71854 0.83573 0.0
C243 C 0.91321 0.50388 0.77671 0.0
H244 H 0.5513 0.49741 0.95808 0.0
H245 H 0.8044 0.7191 1.00324 0.0
H246 H 0.82992 0.71232 0.92182 0.0
H247 H 0.90364 0.78096 0.96386 0.0
H248 H 0.87779 0.47113 0.72582 0.0
H249 H 0.04887 0.32111 0.7129 0.0
H250 H 0.03493 0.42554 0.7889 0.0
H251 H 0.09577 0.34223 0.75903 0.0
C252 C 0.09948 0.70545 0.20041 0.0
C253 C 0.13689 0.67051 0.18079 0.0
C254 C 0.10256 0.79784 0.19766 0.0
C255 C 0.14142 0.85359 0.17446 0.0
C256 C 0.17685 0.81646 0.15436 0.0
C257 C 0.17549 0.72553 0.15798 0.0
C258 C 0.06674 0.83695 0.21971 0.0
C259 C 0.21619 0.87266 0.12913 0.0
C260 C 0.07183 0.05338 0.16115 0.0
C261 C 0.15996 0.14102 0.1689 0.0
C262 C 0.06565 0.95917 0.16213 0.0
C263 C 0.14869 0.95272 0.17164 0.0
C264 C 0.23865 0.04095 0.17879 0.0
C265 C 0.244 0.13435 0.17662 0.0
C266 C 0.96971 0.86647 0.15353 0.0
C267 C 0.32864 0.03685 0.18923 0.0
H268 H 0.06962 0.66143 0.21796 0.0
H269 H 0.20367 0.69669 0.14287 0.0
H270 H 0.12936 0.9108 0.22639 0.0
H271 H 0.0051 0.84947 0.21304 0.0
H272 H 0.03905 0.78431 0.23644 0.0
H273 H 0.23396 0.82947 0.11482 0.0
H274 H 0.15977 0.88925 0.1205 0.0
H275 H 0.28554 0.94591 0.13273 0.0
H276 H 0.00677 0.05776 0.15478 0.0
H277 H 0.31365 0.20183 0.18151 0.0
H278 H 0.93333 0.81597 0.17033 0.0
H279 H 0.98702 0.82348 0.13908 0.0
H280 H 0.91492 0.88542 0.14487 0.0
H281 H 0.30503 0.97838 0.2045 0.0
H282 H 0.38622 0.11021 0.19756 0.0
H283 H 0.36421 0.0164 0.17341 0.0
C284 C 0.32484 0.04618 0.53377 0.0
C285 C 0.36535 0.049 0.5093 0.0
C286 C 0.23878 0.05435 0.53638 0.0
C287 C 0.19217 0.0641 0.51385 0.0
C288 C 0.2345 0.0697 0.48906 0.0
C289 C 0.32217 0.06319 0.48709 0.0
C290 C 0.19714 0.05125 0.56315 0.0
C291 C 0.18553 0.07942 0.4647 0.0
C292 C 0.91367 0.96718 0.51866 0.0
C293 C 0.9111 0.05718 0.5197 0.0
C294 C 0.0051 0.96857 0.5165 0.0
C295 C 0.09578 0.0623 0.51624 0.0
C296 C 0.09422 0.15336 0.51871 0.0
C297 C 0.00146 0.14976 0.52015 0.0
C298 C 0.0045 0.86989 0.51392 0.0
C299 C 0.18993 0.25452 0.51927 0.0
H300 H 0.36126 0.03871 0.55092 0.0
H301 H 0.35529 0.06631 0.46827 0.0
H302 H 0.18757 0.11774 0.56613 0.0
H303 H 0.12169 0.98303 0.56514 0.0
H304 H 0.24668 0.05014 0.57869 0.0
H305 H 0.2296 0.0852 0.44702 0.0
H306 H 0.10882 0.01289 0.46272 0.0
H307 H 0.17701 0.14706 0.46591 0.0
H308 H 0.84442 0.89547 0.51875 0.0
H309 H -0.00017 0.21961 0.52141 0.0
H310 H 0.04729 0.86143 0.53009 0.0
H311 H 0.04241 0.86929 0.49562 0.0
H312 H 0.92698 0.80364 0.51394 0.0
H313 H 0.17601 0.3153 0.5261 0.0
H314 H 0.22229 0.27367 0.49946 0.0
H315 H 0.2471 0.25266 0.53207 0.0
C316 C 0.04168 0.90413 0.84342 0.0
C317 C 0.03281 0.81345 0.83471 0.0
C318 C 0.13636 0.99097 0.84588 0.0
C319 C 0.22362 0.98734 0.83868 0.0
C320 C 0.21506 0.89754 0.82869 0.0
C321 C 0.11975 0.81162 0.82684 0.0
C322 C 0.1428 0.08599 0.85645 0.0
C323 C 0.30671 0.89151 0.8205 0.0
C324 C 0.45915 0.23301 0.82366 0.0
C325 C 0.5133 0.25034 0.84668 0.0
C326 C 0.36459 0.14708 0.82072 0.0
C327 C 0.32414 0.0777 0.84142 0.0
C328 C 0.37974 0.09448 0.86465 0.0
C329 C 0.4746 0.18141 0.86701 0.0
C330 C 0.30772 0.13114 0.79565 0.0
C331 C 0.33809 0.02179 0.88708 0.0
H332 H 0.97511 0.90718 0.84877 0.0
H333 H 0.11416 0.74237 0.81976 0.0
H334 H 0.20041 0.11899 0.87199 0.0
H335 H 0.16604 0.14279 0.84077 0.0
H336 H 0.06951 0.07192 0.86443 0.0
H337 H 0.28647 0.81673 0.8122 0.0
H338 H 0.35067 0.95033 0.80584 0.0
H339 H 0.35682 0.90604 0.83741 0.0
H340 H 0.49043 0.28764 0.80807 0.0
H341 H 0.51754 0.19651 0.88479 0.0
H342 H 0.23538 0.12888 0.79949 0.0
H343 H 0.28928 0.05758 0.78695 0.0
H344 H 0.35127 0.19162 0.78129 0.0
H345 H 0.26628 0.01541 0.8938 0.0
H346 H 0.39129 0.04571 0.90369 0.0
H347 H 0.32103 0.94559 0.88076 0.0
C348 C 0.65598 0.5778 0.03286 0.0
C349 C 0.60858 0.5677 1.00875 0.0
C350 C 0.60431 0.56457 0.05635 0.0
C351 C 0.50079 0.5345 0.0559 0.0
C352 C 0.45004 0.51503 0.0318 0.0
C353 C 0.50476 0.53387 1.00857 0.0
C354 C 0.66207 0.58873 0.08156 0.0
C355 C 0.3384 0.47799 0.03048 0.0
C356 C 0.34101 0.43483 0.11694 0.0
C357 C 0.32232 0.51346 0.12268 0.0
C358 C 0.40105 0.44113 0.09561 0.0
C359 C 0.44673 0.52997 0.08039 0.0
C360 C 0.43441 0.6126 0.08751 0.0
C361 C 0.36947 0.60194 0.108 0.0
C362 C 0.40839 0.34963 0.0882 0.0
C363 C 0.48636 0.71088 0.07283 0.0
H364 H 0.73489 0.59945 0.03353 0.0
H365 H 0.46636 0.52575 0.99036 0.0
H366 H 0.66606 0.65684 0.09036 0.0
H367 H 0.62291 0.52645 0.09567 0.0
H368 H 0.7401 0.60312 0.07881 0.0
H369 H 0.30757 0.45228 1.01069 0.0
H370 H 0.29661 0.41472 0.04422 0.0
H371 H 0.32415 0.53958 0.0362 0.0
H372 H 0.3025 0.36527 0.12788 0.0
H373 H 0.35392 0.66219 0.11229 0.0
H374 H 0.48695 0.37063 0.08332 0.0
H375 H 0.36189 0.31457 0.07066 0.0
H376 H 0.381 0.29241 0.10391 0.0
H377 H 0.56691 0.73485 0.06961 0.0
H378 H 0.48184 0.77203 0.08326 0.0
H379 H 0.45065 0.70086 0.05354 0.0
C380 C 0.90872 0.39878 0.34531 0.0
C381 C 0.81203 0.33685 0.35554 0.0
C382 C 0.93352 0.38351 0.32017 0.0
C383 C 0.85988 0.30434 0.30473 0.0
C384 C 0.76169 0.2422 0.31477 0.0
C385 C 0.73898 0.25897 0.3401 0.0
C386 C 0.03943 0.45105 0.31033 0.0
C387 C 0.68115 0.15749 0.29885 0.0
C388 C 0.9369 0.33942 0.23397 0.0
C389 C 0.98894 0.2859 0.23261 0.0
C390 C 0.88596 0.33883 0.2567 0.0
C391 C 0.88869 0.28475 0.27865 0.0
C392 C 0.93319 0.2233 0.27649 0.0
C393 C 0.98193 0.22395 0.2534 0.0
C394 C 0.83751 0.40359 0.25788 0.0
C395 C 0.93839 0.16469 0.29935 0.0
H396 H 0.96603 0.45808 0.35722 0.0
H397 H 0.66379 0.21147 0.34778 0.0
H398 H 0.074 0.40489 0.30504 0.0
H399 H 0.03767 0.49068 0.29253 0.0
H400 H 0.08832 0.50822 0.32488 0.0
H401 H 0.60731 0.11882 0.309 0.0
H402 H 0.6716 0.18692 0.28007 0.0
H403 H 0.70433 0.10113 0.29438 0.0
H404 H 0.94182 0.38753 0.21802 0.0
H405 H 0.02167 0.18206 0.25239 0.0
H406 H 0.88896 0.47525 0.26799 0.0
H407 H 0.76582 0.36567 0.26893 0.0
H408 H 0.82214 0.42206 0.23819 0.0
H409 H -0.00578 0.21783 0.31353 0.0
H410 H 0.96158 0.10942 0.2935 0.0
H411 H 0.8645 0.12395 0.30935 0.0
C412 C 0.69524 0.67794 0.78689 0.0
C413 C 0.65125 0.57283 0.78606 0.0
C414 C 0.67659 0.72989 0.76727 0.0
C415 C 0.61643 0.67568 0.74573 0.0
C416 C 0.56996 0.56924 0.74514 0.0
C417 C 0.58711 0.51909 0.76547 0.0
C418 C 0.72399 0.84295 0.76921 0.0
C419 C 0.50598 0.50857 0.72246 0.0
C420 C 0.512 0.79272 0.6993 0.0
C421 C 0.58307 0.82649 0.67902 0.0
C422 C 0.52341 0.74626 0.72143 0.0
C423 C 0.60625 0.73008 0.7231 0.0
C424 C 0.67755 0.76239 0.70265 0.0
C425 C 0.66567 0.81104 0.68099 0.0
C426 C 0.44675 0.71443 0.74304 0.0
C427 C 0.76615 0.74494 0.70357 0.0
H428 H 0.74627 0.71993 0.80255 0.0
H429 H 0.55341 0.43777 0.76475 0.0
H430 H 0.78262 0.87943 0.75403 0.0
H431 H 0.66659 0.86562 0.76584 0.0
H432 H 0.75931 0.87209 0.78845 0.0
H433 H 0.47187 0.42609 0.72552 0.0
H434 H 0.44464 0.52557 0.71898 0.0
H435 H 0.55289 0.52971 0.70465 0.0
H436 H 0.44649 0.80182 0.69787 0.0
H437 H 0.72182 0.83788 0.66574 0.0
H438 H 0.48494 0.75051 0.76151 0.0
H439 H 0.40927 0.63172 0.74595 0.0
H440 H 0.388 0.7349 0.73907 0.0
H441 H 0.81317 0.78277 0.72084 0.0
H442 H 0.81427 0.77359 0.686 0.0
H443 H 0.73891 0.66311 0.70545 0.0
C444 C 0.83972 0.4039 0.90171 0.0
C445 C 0.88918 0.50925 0.89976 0.0
C446 C 0.84157 0.35714 0.92492 0.0
C447 C 0.89366 0.41736 0.94667 0.0
C448 C 0.95121 0.52347 0.94398 0.0
C449 C 0.94854 0.56807 0.92051 0.0
C450 C 0.78016 0.24375 0.92677 0.0
C451 C 0.00815 0.59069 0.96658 0.0
C452 C 0.78158 0.32261 0.0134 0.0
C453 C 0.845 0.28953 0.02349 0.0
C454 C 0.79621 0.36313 0.98836 0.0
C455 C 0.87652 0.37124 0.97293 0.0
C456 C 0.94086 0.33796 0.98291 0.0
C457 C 0.9243 0.2974 1.00807 0.0
C458 C 0.72627 0.39847 0.97852 0.0
C459 C 0.02756 0.34602 0.9671 0.0
H460 H 0.79364 0.35785 0.88578 0.0
H461 H 0.98722 0.64959 0.91903 0.0
H462 H 0.82142 0.2134 0.93769 0.0
H463 H 0.7092 0.22216 0.93741 0.0
H464 H 0.76041 0.2077 0.90732 0.0
H465 H 0.06186 0.66899 0.96029 0.0
H466 H 0.95384 0.59326 0.98038 0.0
H467 H 0.05038 0.56059 0.97716 0.0
H468 H 0.7213 0.31858 0.0253 0.0
H469 H 0.97308 0.27114 0.01561 0.0
H470 H 0.68742 0.35622 0.96071 0.0
H471 H 0.77034 0.47937 0.97325 0.0
H472 H 0.66844 0.38847 0.99306 0.0
H473 H -0.00074 0.30459 0.94854 0.0
H474 H 0.06993 0.31553 0.97752 0.0
H475 H 0.08038 0.4261 0.9622 0.0
C476 C 0.40003 0.67562 0.34422 0.0
C477 C 0.32667 0.57276 0.3451 0.0
C478 C 0.43658 0.73309 0.36702 0.0
C479 C 0.40291 0.68591 0.39147 0.0
C480 C 0.32662 0.58349 0.39262 0.0
C481 C 0.2873 0.52934 0.36949 0.0
C482 C 0.51428 0.8437 0.36492 0.0
C483 C 0.29099 0.52903 0.41822 0.0
C484 C 0.60096 0.81704 0.4436 0.0
C485 C 0.56128 0.86701 0.4578 0.0
C486 C 0.54623 0.75152 0.42328 0.0
C487 C 0.45306 0.74205 0.41566 0.0
C488 C 0.41197 0.79159 0.43019 0.0
C489 C 0.46565 0.8517 0.45152 0.0
C490 C 0.59005 0.69534 0.40939 0.0
C491 C 0.31526 0.78736 0.42213 0.0
H492 H 0.43217 0.71116 0.32583 0.0
H493 H 0.22744 0.45159 0.37074 0.0
H494 H 0.49525 0.88894 0.37817 0.0
H495 H 0.58916 0.85579 0.37076 0.0
H496 H 0.52034 0.87246 0.34486 0.0
H497 H 0.2227 0.45352 0.41603 0.0
H498 H 0.35192 0.51911 0.42676 0.0
H499 H 0.27439 0.57366 0.43225 0.0
H500 H 0.67561 0.83021 0.44826 0.0
H501 H 0.43612 0.89261 0.46208 0.0
H502 H 0.61741 0.72883 0.38995 0.0
H503 H 0.53146 0.61518 0.40654 0.0
H504 H 0.65411 0.69832 0.42021 0.0
H505 H 0.32746 0.82766 0.40344 0.0
H506 H 0.28912 0.82271 0.43672 0.0
H507 H 0.25457 0.70841 0.41897 0.0
C508 C 0.92567 0.4534 0.67342 0.0
C509 C 0.92601 0.37694 0.68832 0.0
C510 C 0.88848 0.43487 0.64787 0.0
C511 C 0.8492 0.33718 0.63714 0.0
C512 C 0.85183 0.26054 0.6519 0.0
C513 C 0.89048 0.28147 0.6772 0.0
C514 C 0.88936 0.51916 0.63256 0.0
C515 C 0.81067 0.15519 0.64126 0.0
C516 C 0.63939 0.22486 0.58762 0.0
C517 C 0.689 0.21276 0.56626 0.0
C518 C 0.69212 0.27231 0.61034 0.0
C519 C 0.7976 0.31128 0.61144 0.0
C520 C 0.84969 0.31071 0.58877 0.0
C521 C 0.79459 0.26063 0.56647 0.0
C522 C 0.6334 0.27155 0.63396 0.0
C523 C 0.96248 0.35468 0.58866 0.0
H524 H 0.95434 0.52776 0.68179 0.0
H525 H 0.88966 0.22181 0.68865 0.0
H526 H 0.92187 0.52421 0.61301 0.0
H527 H 0.81103 0.50342 0.62981 0.0
H528 H 0.9332 0.59325 0.64242 0.0
H529 H 0.8161 0.10349 0.6554 0.0
H530 H 0.73052 0.12355 0.63583 0.0
H531 H 0.85226 0.15738 0.62343 0.0
H532 H 0.55787 0.1893 0.58739 0.0
H533 H 0.83391 0.25292 0.54996 0.0
H534 H 0.66736 0.34811 0.64251 0.0
H535 H 0.63657 0.22123 0.64892 0.0
H536 H 0.55304 0.24479 0.62943 0.0
H537 H 0.00063 0.42515 0.60024 0.0
H538 H -0.00664 0.37092 0.56863 0.0
H539 H 0.98088 0.29984 0.59748 0.0
loop_
_geom_bond_atom_site_label_1
_geom_bond_atom_site_label_2
_geom_bond_distance
_geom_bond_site_symmetry_2
_ccdc_geom_bond_type
Eu0 N31 2.657 . S
Eu0 N38 2.609 . S
Eu0 O44 2.558 . S
Eu0 O45 2.612 1_455 S
Eu0 O47 2.339 . S
Eu0 O48 2.564 . S
Eu0 O49 2.419 . S
Eu0 O51 2.380 . S
Eu0 O52 2.432 . S
Eu0 C64 2.848 . S
C1 C4 1.429 . S
C1 C5 1.411 . S
C1 N8 1.377 . S
C2 C4 1.420 . S
C2 C6 1.423 . S
C2 C14 1.392 . S
C3 C5 1.420 . S
C3 C6 1.351 . S
C3 H26 0.931 . S
C4 C1 1.429 . S
C4 C2 1.420 . S
C4 N12 1.362 . S
C5 C1 1.411 . S
C5 C3 1.420 . S
C5 C10 1.395 . S
C6 C2 1.423 . S
C6 C3 1.351 . S
C6 H18 0.930 . S
C7 C9 1.400 . S
C7 C10 1.386 . S
C7 H19 0.930 . S
N8 C1 1.377 . S
N8 C9 1.321 . S
N8 Eu11 2.609 . S
C9 C7 1.400 . S
C9 N8 1.321 . S
C9 H16 0.930 . S
C10 C5 1.395 . S
C10 C7 1.386 . S
C10 H29 0.930 . S
Eu11 N8 2.609 . S
Eu11 N12 2.657 . S
Eu11 O45 2.380 . S
Eu11 O46 2.432 . S
Eu11 O50 2.558 . S
Eu11 O51 2.612 1_655 S
Eu11 O53 2.339 . S
Eu11 O54 2.563 . S
Eu11 O55 2.419 . S
Eu11 C75 2.848 . S
N12 C4 1.362 . S
N12 Eu11 2.657 . S
N12 C13 1.334 . S
C13 N12 1.334 . S
C13 C15 1.413 . S
C13 H20 0.929 . S
C14 C2 1.392 . S
C14 C15 1.367 . S
C14 H22 0.930 . S
C15 C13 1.413 . S
C15 C14 1.367 . S
C15 H17 0.930 . S
H16 C9 0.930 . S
H17 C15 0.930 . S
H18 C6 0.930 . S
H19 C7 0.930 . S
H20 C13 0.929 . S
H21 C35 0.930 . S
H22 C14 0.930 . S
H23 C41 0.930 . S
H24 C32 0.929 . S
H25 C39 0.930 . S
H26 C3 0.931 . S
H27 C33 0.930 . S
H28 C66 0.930 . S
H29 C10 0.930 . S
H30 C65 0.931 . S
N31 Eu0 2.657 . S
N31 C32 1.334 . S
N31 C36 1.362 . S
C32 H24 0.929 . S
C32 N31 1.334 . S
C32 C35 1.413 . S
C33 H27 0.930 . S
C33 C34 1.392 . S
C33 C35 1.367 . S
C34 C33 1.392 . S
C34 C36 1.420 . S
C34 C66 1.423 . S
C35 H21 0.930 . S
C35 C32 1.413 . S
C35 C33 1.367 . S
C36 N31 1.362 . S
C36 C34 1.420 . S
C36 C40 1.429 . S
H37 C42 0.930 . S
N38 Eu0 2.609 . S
N38 C40 1.377 . S
N38 C41 1.321 . S
C39 H25 0.930 . S
C39 C41 1.400 . S
C39 C42 1.386 . S
C40 C36 1.429 . S
C40 N38 1.377 . S
C40 C43 1.411 . S
C41 H23 0.930 . S
C41 N38 1.321 . S
C41 C39 1.400 . S
C42 H37 0.930 . S
C42 C39 1.386 . S
C42 C43 1.395 . S
C43 C40 1.411 . S
C43 C42 1.395 . S
C43 C65 1.420 . S
O44 Eu0 2.558 . S
O44 C64 1.257 . S
O45 Eu0 2.612 1_655 S
O45 Eu11 2.380 . S
O45 C56 1.276 . S
O46 Eu11 2.432 . S
O46 C63 1.264 1_655 S
O47 Eu0 2.339 . S
O47 C63 1.254 . S
O48 Eu0 2.564 . S
O48 C56 1.234 1_455 S
O49 Eu0 2.419 . S
O49 C64 1.249 . S
O50 Eu11 2.558 . S
O50 C75 1.257 . S
O51 Eu0 2.380 . S
O51 Eu11 2.612 1_455 S
O51 C67 1.276 . S
O52 Eu0 2.432 . S
O52 C74 1.264 1_455 S
O53 Eu11 2.339 . S
O53 C74 1.254 . S
O54 Eu11 2.563 . S
O54 C67 1.236 1_655 S
O55 Eu11 2.419 . S
O55 C75 1.249 . S
C56 O45 1.276 . S
C56 O48 1.234 1_655 S
C57 C59 1.393 . S
C57 C61 1.395 . S
C57 C64 1.492 . S
C58 C59 1.392 . S
C58 C60 1.386 . S
C59 C57 1.393 . S
C59 C58 1.392 . S
C59 H76 0.930 . S
C60 C58 1.386 . S
C60 C62 1.395 . S
C60 H77 0.930 . S
C61 C57 1.395 . S
C61 C62 1.379 . S
C61 H78 0.930 . S
C62 C60 1.395 . S
C62 C61 1.379 . S
C62 H79 0.930 . S
C63 O46 1.264 1_455 S
C63 O47 1.254 . S
C64 Eu0 2.848 . S
C64 O44 1.257 . S
C64 O49 1.249 . S
C64 C57 1.492 . S
C65 H30 0.931 . S
C65 C43 1.420 . S
C65 C66 1.351 . S
C66 H28 0.930 . S
C66 C34 1.423 . S
C66 C65 1.351 . S
C67 O51 1.276 . S
C67 O54 1.236 1_455 S
C68 C69 1.393 . S
C68 C72 1.395 . S
C68 C75 1.492 . S
C69 C68 1.393 . S
C69 C70 1.392 . S
C69 H80 0.930 . S
C70 C69 1.392 . S
C70 C71 1.386 . S
C71 C70 1.386 . S
C71 C73 1.395 . S
C71 H81 0.930 . S
C72 C68 1.395 . S
C72 C73 1.379 . S
C72 H82 0.930 . S
C73 C71 1.395 . S
C73 C72 1.379 . S
C73 H83 0.930 . S
C74 O52 1.264 1_655 S
C74 O53 1.254 . S
C75 Eu11 2.848 . S
C75 O50 1.257 . S
C75 O55 1.249 . S
C75 C68 1.492 . S
H76 C59 0.930 . S
H77 C60 0.930 . S
H78 C61 0.930 . S
H79 C62 0.930 . S
H80 C69 0.930 . S
H81 C71 0.930 . S
H82 C72 0.930 . S
H83 C73 0.930 . S
Eu84 N115 2.657 1_545 S
Eu84 N122 2.609 1_545 S
Eu84 O128 2.558 1_545 S
Eu84 O129 2.612 . S
Eu84 O131 2.339 . S
Eu84 O132 2.563 . S
Eu84 O133 2.419 1_545 S
Eu84 O135 2.380 . S
Eu84 O136 2.432 . S
Eu84 C148 2.848 1_545 S
C85 C88 1.429 1_455 S
C85 C89 1.411 . S
C85 N92 1.377 . S
C86 C88 1.420 . S
C86 C90 1.423 1_655 S
C86 C98 1.392 . S
C87 C89 1.420 . S
C87 C90 1.351 . S
C87 H110 0.931 . S
C88 C85 1.429 1_655 S
C88 C86 1.420 . S
C88 N96 1.362 . S
C89 C85 1.411 . S
C89 C87 1.420 . S
C89 C94 1.395 . S
C90 C86 1.423 1_455 S
C90 C87 1.351 . S
C90 H102 0.930 . S
C91 C93 1.400 . S
C91 C94 1.386 . S
C91 H103 0.930 . S
N92 C85 1.377 . S
N92 C93 1.321 . S
N92 Eu95 2.609 1_455 S
C93 C91 1.400 . S
C93 N92 1.321 . S
C93 H100 0.930 . S
C94 C89 1.395 . S
C94 C91 1.386 . S
C94 H113 0.930 . S
Eu95 N92 2.609 1_655 S
Eu95 N96 2.657 . S
Eu95 O129 2.380 . S
Eu95 O130 2.432 . S
Eu95 O134 2.558 . S
Eu95 O135 2.612 . S
Eu95 O137 2.339 . S
Eu95 O138 2.563 . S
Eu95 O139 2.419 . S
Eu95 C159 2.848 . S
N96 C88 1.362 . S
N96 Eu95 2.657 . S
N96 C97 1.334 . S
C97 N96 1.334 . S
C97 C99 1.413 . S
C97 H104 0.929 . S
C98 C86 1.392 . S
C98 C99 1.367 . S
C98 H106 0.930 . S
C99 C97 1.413 . S
C99 C98 1.367 . S
C99 H101 0.930 . S
H100 C93 0.930 . S
H101 C99 0.930 . S
H102 C90 0.930 . S
H103 C91 0.930 . S
H104 C97 0.929 . S
H105 C119 0.930 . S
H106 C98 0.930 . S
H107 C125 0.930 . S
H108 C116 0.929 . S
H109 C123 0.930 . S
H110 C87 0.931 . S
H111 C117 0.930 . S
H112 C150 0.930 . S
H113 C94 0.930 . S
H114 C149 0.931 . S
N115 Eu84 2.657 1_565 S
N115 C116 1.334 . S
N115 C120 1.362 . S
C116 H108 0.929 . S
C116 N115 1.334 . S
C116 C119 1.413 . S
C117 H111 0.930 . S
C117 C118 1.392 . S
C117 C119 1.367 . S
C118 C117 1.392 . S
C118 C120 1.420 . S
C118 C150 1.423 . S
C119 H105 0.930 . S
C119 C116 1.413 . S
C119 C117 1.367 . S
C120 N115 1.362 . S
C120 C118 1.420 . S
C120 C124 1.429 . S
H121 C126 0.930 . S
N122 Eu84 2.609 1_565 S
N122 C124 1.377 . S
N122 C125 1.321 . S
C123 H109 0.930 . S
C123 C125 1.400 . S
C123 C126 1.386 . S
C124 C120 1.429 . S
C124 N122 1.377 . S
C124 C127 1.411 . S
C125 H107 0.930 . S
C125 N122 1.321 . S
C125 C123 1.400 . S
C126 H121 0.930 . S
C126 C123 1.386 . S
C126 C127 1.395 . S
C127 C124 1.411 . S
C127 C126 1.395 . S
C127 C149 1.420 . S
O128 Eu84 2.558 1_565 S
O128 C148 1.257 . S
O129 Eu84 2.612 . S
O129 Eu95 2.380 . S
O129 C140 1.276 . S
O130 Eu95 2.432 . S
O130 C147 1.264 . S
O131 Eu84 2.339 . S
O131 C147 1.254 . S
O132 Eu84 2.563 . S
O132 C140 1.235 . S
O133 Eu84 2.419 1_565 S
O133 C148 1.249 . S
O134 Eu95 2.558 . S
O134 C159 1.257 . S
O135 Eu84 2.380 . S
O135 Eu95 2.612 . S
O135 C151 1.276 . S
O136 Eu84 2.432 . S
O136 C158 1.264 . S
O137 Eu95 2.339 . S
O137 C158 1.254 . S
O138 Eu95 2.563 . S
O138 C151 1.235 . S
O139 Eu95 2.419 . S
O139 C159 1.249 . S
C140 O129 1.276 . S
C140 O132 1.235 . S
C141 C143 1.393 . S
C141 C145 1.395 . S
C141 C148 1.492 . S
C142 C143 1.392 . S
C142 C144 1.386 . S
C143 C141 1.393 . S
C143 C142 1.392 . S
C143 H160 0.930 . S
C144 C142 1.386 . S
C144 C146 1.395 . S
C144 H161 0.930 . S
C145 C141 1.395 . S
C145 C146 1.379 . S
C145 H162 0.930 . S
C146 C144 1.395 . S
C146 C145 1.379 . S
C146 H163 0.930 . S
C147 O130 1.264 . S
C147 O131 1.254 . S
C148 Eu84 2.848 1_565 S
C148 O128 1.257 . S
C148 O133 1.249 . S
C148 C141 1.492 . S
C149 H114 0.931 . S
C149 C127 1.420 . S
C149 C150 1.351 . S
C150 H112 0.930 . S
C150 C118 1.423 . S
C150 C149 1.351 . S
C151 O135 1.276 . S
C151 O138 1.235 . S
C152 C153 1.393 . S
C152 C156 1.395 1_655 S
C152 C159 1.492 . S
C153 C152 1.393 . S
C153 C154 1.392 . S
C153 H164 0.930 . S
C154 C153 1.392 . S
C154 C155 1.386 . S
C155 C154 1.386 . S
C155 C157 1.395 1_655 S
C155 H165 0.930 . S
C156 C152 1.395 1_455 S
C156 C157 1.379 . S
C156 H166 0.930 . S
C157 C155 1.395 1_455 S
C157 C156 1.379 . S
C157 H167 0.930 . S
C158 O136 1.264 . S
C158 O137 1.254 . S
C159 Eu95 2.848 . S
C159 O134 1.257 . S
C159 O139 1.249 . S
C159 C152 1.492 . S
H160 C143 0.930 . S
H161 C144 0.930 . S
H162 C145 0.930 . S
H163 C146 0.930 . S
H164 C153 0.930 . S
H165 C155 0.930 . S
H166 C156 0.930 . S
H167 C157 0.930 . S
Eu168 N199 2.657 . S
Eu168 N206 2.609 . S
Eu168 O212 2.558 . S
Eu168 O213 2.612 . S
Eu168 O215 2.339 . S
Eu168 O216 2.563 . S
Eu168 O217 2.419 . S
Eu168 O219 2.380 . S
Eu168 O220 2.432 . S
Eu168 C232 2.848 . S
C169 C172 1.429 . S
C169 C173 1.411 . S
C169 N176 1.377 . S
C170 C172 1.420 1_455 S
C170 C174 1.423 . S
C170 C182 1.392 . S
C171 C173 1.420 . S
C171 C174 1.351 1_655 S
C171 H194 0.931 1_545 S
C172 C169 1.429 . S
C172 C170 1.420 1_655 S
C172 N180 1.362 . S
C173 C169 1.411 . S
C173 C171 1.420 . S
C173 C178 1.395 1_545 S
C174 C170 1.423 . S
C174 C171 1.351 1_455 S
C174 H186 0.930 . S
C175 C177 1.400 1_565 S
C175 C178 1.386 . S
C175 H187 0.930 . S
N176 C169 1.377 . S
N176 C177 1.321 . S
N176 Eu179 2.609 . S
C177 C175 1.400 1_545 S
C177 N176 1.321 . S
C177 H184 0.930 . S
C178 C173 1.395 1_565 S
C178 C175 1.386 . S
C178 H197 0.930 . S
Eu179 N176 2.609 . S
Eu179 N180 2.657 . S
Eu179 O213 2.380 . S
Eu179 O214 2.432 . S
Eu179 O218 2.558 . S
Eu179 O219 2.612 . S
Eu179 O221 2.339 . S
Eu179 O222 2.563 . S
Eu179 O223 2.419 . S
Eu179 C243 2.848 . S
N180 C172 1.362 . S
N180 Eu179 2.657 . S
N180 C181 1.334 1_655 S
C181 N180 1.334 1_455 S
C181 C183 1.413 . S
C181 H188 0.929 . S
C182 C170 1.392 . S
C182 C183 1.367 . S
C182 H190 0.930 . S
C183 C181 1.413 . S
C183 C182 1.367 . S
C183 H185 0.930 . S
H184 C177 0.930 . S
H185 C183 0.930 . S
H186 C174 0.930 . S
H187 C175 0.930 . S
H188 C181 0.929 . S
H189 C203 0.930 . S
H190 C182 0.930 . S
H191 C209 0.930 . S
H192 C200 0.929 . S
H193 C207 0.930 . S
H194 C171 0.931 1_565 S
H195 C201 0.930 . S
H196 C234 0.930 . S
H197 C178 0.930 . S
H198 C233 0.931 . S
N199 Eu168 2.657 . S
N199 C200 1.334 . S
N199 C204 1.362 . S
C200 H192 0.929 . S
C200 N199 1.334 . S
C200 C203 1.413 . S
C201 H195 0.930 . S
C201 C202 1.392 . S
C201 C203 1.367 . S
C202 C201 1.392 . S
C202 C204 1.420 . S
C202 C234 1.423 . S
C203 H189 0.930 . S
C203 C200 1.413 . S
C203 C201 1.367 . S
C204 N199 1.362 . S
C204 C202 1.420 . S
C204 C208 1.429 . S
H205 C210 0.930 . S
N206 Eu168 2.609 . S
N206 C208 1.377 . S
N206 C209 1.321 . S
C207 H193 0.930 . S
C207 C209 1.400 . S
C207 C210 1.386 . S
C208 C204 1.429 . S
C208 N206 1.377 . S
C208 C211 1.411 . S
C209 H191 0.930 . S
C209 N206 1.321 . S
C209 C207 1.400 . S
C210 H205 0.930 . S
C210 C207 1.386 . S
C210 C211 1.395 . S
C211 C208 1.411 . S
C211 C210 1.395 . S
C211 C233 1.420 . S
O212 Eu168 2.558 . S
O212 C232 1.257 . S
O213 Eu168 2.612 . S
O213 Eu179 2.380 . S
O213 C224 1.276 . S
O214 Eu179 2.432 . S
O214 C231 1.264 . S
O215 Eu168 2.339 . S
O215 C231 1.254 . S
O216 Eu168 2.563 . S
O216 C224 1.235 . S
O217 Eu168 2.419 . S
O217 C232 1.249 . S
O218 Eu179 2.558 . S
O218 C243 1.257 . S
O219 Eu168 2.380 . S
O219 Eu179 2.612 . S
O219 C235 1.276 . S
O220 Eu168 2.432 . S
O220 C242 1.264 . S
O221 Eu179 2.339 . S
O221 C242 1.254 . S
O222 Eu179 2.563 . S
O222 C235 1.235 . S
O223 Eu179 2.419 . S
O223 C243 1.249 . S
C224 O213 1.276 . S
C224 O216 1.235 . S
C225 C227 1.393 . S
C225 C229 1.395 . S
C225 C232 1.492 . S
C226 C227 1.392 . S
C226 C228 1.386 . S
C227 C225 1.393 . S
C227 C226 1.392 . S
C227 H244 0.930 . S
C228 C226 1.386 . S
C228 C230 1.395 . S
C228 H245 0.930 . S
C229 C225 1.395 . S
C229 C230 1.379 . S
C229 H246 0.930 . S
C230 C228 1.395 . S
C230 C229 1.379 . S
C230 H247 0.930 . S
C231 O214 1.264 . S
C231 O215 1.254 . S
C232 Eu168 2.848 . S
C232 O212 1.257 . S
C232 O217 1.249 . S
C232 C225 1.492 . S
C233 H198 0.931 . S
C233 C211 1.420 . S
C233 C234 1.351 . S
C234 H196 0.930 . S
C234 C202 1.423 . S
C234 C233 1.351 . S
C235 O219 1.276 . S
C235 O222 1.235 . S
C236 C237 1.393 1_655 S
C236 C240 1.395 . S
C236 C243 1.492 . S
C237 C236 1.393 1_455 S
C237 C238 1.392 . S
C237 H248 0.930 . S
C238 C237 1.392 . S
C238 C239 1.386 . S
C239 C238 1.386 . S
C239 C241 1.395 1_455 S
C239 H249 0.930 . S
C240 C236 1.395 . S
C240 C241 1.379 . S
C240 H250 0.930 . S
C241 C239 1.395 1_655 S
C241 C240 1.379 . S
C241 H251 0.930 . S
C242 O220 1.264 . S
C242 O221 1.254 . S
C243 Eu179 2.848 . S
C243 O218 1.257 . S
C243 O223 1.249 . S
C243 C236 1.492 . S
H244 C227 0.930 . S
H245 C228 0.930 . S
H246 C229 0.930 . S
H247 C230 0.930 . S
H248 C237 0.930 . S
H249 C239 0.930 . S
H250 C240 0.930 . S
H251 C241 0.930 . S
C252 C253 1.391 1_655 S
C252 C254 1.394 . S
C252 H268 0.931 . S
C253 C252 1.391 1_455 S
C253 C257 1.376 . S
C254 C252 1.394 . S
C254 C255 1.369 1_655 S
C254 C258 1.531 . S
C255 C254 1.369 1_455 S
C255 C256 1.410 . S
C255 C263 1.503 . S
C256 C255 1.410 . S
C256 C257 1.392 . S
C256 C259 1.511 . S
C257 C253 1.376 . S
C257 C256 1.392 . S
C257 H269 0.929 . S
C258 C254 1.531 . S
C258 H270 0.960 . S
C258 H271 0.962 . S
C258 H272 0.960 . S
C259 C256 1.511 . S
C259 H273 0.961 . S
C259 H274 0.961 . S
C259 H275 0.961 . S
C260 C261 1.370 . S
C260 C262 1.363 1_545 S
C260 H276 0.931 . S
C261 C260 1.370 . S
C261 C265 1.408 1_655 S
C262 C260 1.363 1_565 S
C262 C263 1.370 1_655 S
C262 C266 1.524 . S
C263 C255 1.503 . S
C263 C262 1.370 1_455 S
C263 C264 1.403 1_565 S
C264 C263 1.403 1_545 S
C264 C265 1.404 . S
C264 C267 1.539 . S
C265 C261 1.408 1_455 S
C265 C264 1.404 . S
C265 H277 0.930 . S
C266 C262 1.524 . S
C266 H278 0.956 . S
C266 H279 0.961 . S
C266 H280 0.961 . S
C267 C264 1.539 . S
C267 H281 0.958 . S
C267 H282 0.961 . S
C267 H283 0.960 . S
H268 C252 0.931 . S
H269 C257 0.929 . S
H270 C258 0.960 . S
H271 C258 0.962 . S
H272 C258 0.960 . S
H273 C259 0.961 . S
H274 C259 0.961 . S
H275 C259 0.961 . S
H276 C260 0.931 . S
H277 C265 0.930 . S
H278 C266 0.956 . S
H279 C266 0.961 . S
H280 C266 0.961 . S
H281 C267 0.958 . S
H282 C267 0.961 . S
H283 C267 0.960 . S
C284 C285 1.391 . S
C284 C286 1.394 . S
C284 H300 0.931 . S
C285 C284 1.391 . S
C285 C289 1.376 . S
C286 C284 1.394 . S
C286 C287 1.369 . S
C286 C290 1.531 . S
C287 C286 1.369 . S
C287 C288 1.410 . S
C287 C295 1.503 . S
C288 C287 1.410 . S
C288 C289 1.392 . S
C288 C291 1.511 . S
C289 C285 1.376 . S
C289 C288 1.392 . S
C289 H301 0.929 . S
C290 C286 1.531 . S
C290 H302 0.960 . S
C290 H303 0.962 . S
C290 H304 0.960 . S
C291 C288 1.511 . S
C291 H305 0.961 . S
C291 H306 0.961 . S
C291 H307 0.961 . S
C292 C293 1.370 . S
C292 C294 1.363 . S
C292 H308 0.931 . S
C293 C292 1.370 . S
C293 C297 1.408 . S
C294 C292 1.363 . S
C294 C295 1.370 . S
C294 C298 1.524 . S
C295 C287 1.503 . S
C295 C294 1.370 . S
C295 C296 1.403 . S
C296 C295 1.403 . S
C296 C297 1.404 . S
C296 C299 1.539 . S
C297 C293 1.408 . S
C297 C296 1.404 . S
C297 H309 0.930 . S
C298 C294 1.524 . S
C298 H310 0.956 . S
C298 H311 0.961 . S
C298 H312 0.961 1_545 S
C299 C296 1.539 . S
C299 H313 0.958 . S
C299 H314 0.961 . S
C299 H315 0.960 . S
H300 C284 0.931 . S
H301 C289 0.929 . S
H302 C290 0.960 . S
H303 C290 0.962 . S
H304 C290 0.960 . S
H305 C291 0.961 . S
H306 C291 0.961 . S
H307 C291 0.961 . S
H308 C292 0.931 . S
H309 C297 0.930 . S
H310 C298 0.956 . S
H311 C298 0.961 . S
H312 C298 0.961 1_565 S
H313 C299 0.958 . S
H314 C299 0.961 . S
H315 C299 0.960 . S
C316 C317 1.391 . S
C316 C318 1.394 . S
C316 H332 0.931 1_455 S
C317 C316 1.391 . S
C317 C321 1.376 . S
C318 C316 1.394 . S
C318 C319 1.369 . S
C318 C322 1.531 . S
C319 C318 1.369 . S
C319 C320 1.410 . S
C319 C327 1.503 . S
C320 C319 1.410 . S
C320 C321 1.392 . S
C320 C323 1.511 . S
C321 C317 1.376 . S
C321 C320 1.392 . S
C321 H333 0.929 . S
C322 C318 1.531 . S
C322 H334 0.960 . S
C322 H335 0.962 . S
C322 H336 0.960 . S
C323 C320 1.511 . S
C323 H337 0.961 . S
C323 H338 0.961 . S
C323 H339 0.961 . S
C324 C325 1.370 . S
C324 C326 1.363 . S
C324 H340 0.931 . S
C325 C324 1.370 . S
C325 C329 1.408 . S
C326 C324 1.363 . S
C326 C327 1.370 1_545 S
C326 C330 1.524 . S
C327 C319 1.503 . S
C327 C326 1.370 1_565 S
C327 C328 1.403 . S
C328 C327 1.403 . S
C328 C329 1.404 1_565 S
C328 C331 1.539 . S
C329 C325 1.408 . S
C329 C328 1.404 1_545 S
C329 H341 0.930 . S
C330 C326 1.524 . S
C330 H342 0.956 1_545 S
C330 H343 0.961 1_545 S
C330 H344 0.961 . S
C331 C328 1.539 . S
C331 H345 0.958 . S
C331 H346 0.961 . S
C331 H347 0.960 . S
H332 C316 0.931 1_655 S
H333 C321 0.929 . S
H334 C322 0.960 . S
H335 C322 0.962 . S
H336 C322 0.960 . S
H337 C323 0.961 . S
H338 C323 0.961 . S
H339 C323 0.961 . S
H340 C324 0.931 . S
H341 C329 0.930 . S
H342 C330 0.956 1_565 S
H343 C330 0.961 1_565 S
H344 C330 0.961 . S
H345 C331 0.958 . S
H346 C331 0.961 . S
H347 C331 0.960 . S
C348 C349 1.391 1_554 S
C348 C350 1.394 . S
C348 H364 0.931 . S
C349 C348 1.391 1_556 S
C349 C353 1.376 . S
C350 C348 1.394 . S
C350 C351 1.369 . S
C350 C354 1.531 . S
C351 C350 1.369 . S
C351 C352 1.410 . S
C351 C359 1.503 . S
C352 C351 1.410 . S
C352 C353 1.392 1_554 S
C352 C355 1.511 . S
C353 C349 1.376 . S
C353 C352 1.392 1_556 S
C353 H365 0.929 . S
C354 C350 1.531 . S
C354 H366 0.960 . S
C354 H367 0.962 . S
C354 H368 0.960 . S
C355 C352 1.511 . S
C355 H369 0.961 1_554 S
C355 H370 0.961 . S
C355 H371 0.961 . S
C356 C357 1.370 . S
C356 C358 1.363 . S
C356 H372 0.931 . S
C357 C356 1.370 . S
C357 C361 1.408 . S
C358 C356 1.363 . S
C358 C359 1.370 . S
C358 C362 1.524 . S
C359 C351 1.503 . S
C359 C358 1.370 . S
C359 C360 1.403 . S
C360 C359 1.403 . S
C360 C361 1.404 . S
C360 C363 1.539 . S
C361 C357 1.408 . S
C361 C360 1.404 . S
C361 H373 0.930 . S
C362 C358 1.524 . S
C362 H374 0.956 . S
C362 H375 0.961 . S
C362 H376 0.961 . S
C363 C360 1.539 . S
C363 H377 0.958 . S
C363 H378 0.961 . S
C363 H379 0.960 . S
H364 C348 0.931 . S
H365 C353 0.929 . S
H366 C354 0.960 . S
H367 C354 0.962 . S
H368 C354 0.960 . S
H369 C355 0.961 1_556 S
H370 C355 0.961 . S
H371 C355 0.961 . S
H372 C356 0.931 . S
H373 C361 0.930 . S
H374 C362 0.956 . S
H375 C362 0.961 . S
H376 C362 0.961 . S
H377 C363 0.958 . S
H378 C363 0.961 . S
H379 C363 0.960 . S
C380 C381 1.391 . S
C380 C382 1.394 . S
C380 H396 0.931 . S
C381 C380 1.391 . S
C381 C385 1.376 . S
C382 C380 1.394 . S
C382 C383 1.369 . S
C382 C386 1.531 . S
C383 C382 1.369 . S
C383 C384 1.410 . S
C383 C391 1.503 . S
C384 C383 1.410 . S
C384 C385 1.392 . S
C384 C387 1.511 . S
C385 C381 1.376 . S
C385 C384 1.392 . S
C385 H397 0.929 . S
C386 C382 1.531 . S
C386 H398 0.960 . S
C386 H399 0.962 1_655 S
C386 H400 0.960 . S
C387 C384 1.511 . S
C387 H401 0.961 . S
C387 H402 0.961 . S
C387 H403 0.961 . S
C388 C389 1.370 . S
C388 C390 1.363 . S
C388 H404 0.931 . S
C389 C388 1.370 . S
C389 C393 1.408 . S
C390 C388 1.363 . S
C390 C391 1.370 . S
C390 C394 1.524 . S
C391 C383 1.503 . S
C391 C390 1.370 . S
C391 C392 1.403 . S
C392 C391 1.403 . S
C392 C393 1.404 . S
C392 C395 1.539 . S
C393 C389 1.408 . S
C393 C392 1.404 . S
C393 H405 0.930 . S
C394 C390 1.524 . S
C394 H406 0.956 . S
C394 H407 0.961 . S
C394 H408 0.961 . S
C395 C392 1.539 . S
C395 H409 0.958 . S
C395 H410 0.961 . S
C395 H411 0.960 . S
H396 C380 0.931 . S
H397 C385 0.929 . S
H398 C386 0.960 . S
H399 C386 0.962 1_455 S
H400 C386 0.960 . S
H401 C387 0.961 . S
H402 C387 0.961 . S
H403 C387 0.961 . S
H404 C388 0.931 . S
H405 C393 0.930 . S
H406 C394 0.956 . S
H407 C394 0.961 . S
H408 C394 0.961 . S
H409 C395 0.958 . S
H410 C395 0.961 . S
H411 C395 0.960 . S
C412 C413 1.391 . S
C412 C414 1.394 . S
C412 H428 0.931 . S
C413 C412 1.391 . S
C413 C417 1.376 . S
C414 C412 1.394 . S
C414 C415 1.369 . S
C414 C418 1.531 . S
C415 C414 1.369 . S
C415 C416 1.410 . S
C415 C423 1.503 . S
C416 C415 1.410 . S
C416 C417 1.392 . S
C416 C419 1.511 . S
C417 C413 1.376 . S
C417 C416 1.392 . S
C417 H429 0.929 . S
C418 C414 1.531 . S
C418 H430 0.960 . S
C418 H431 0.962 . S
C418 H432 0.960 . S
C419 C416 1.511 . S
C419 H433 0.961 . S
C419 H434 0.961 . S
C419 H435 0.961 . S
C420 C421 1.370 . S
C420 C422 1.363 . S
C420 H436 0.931 . S
C421 C420 1.370 . S
C421 C425 1.408 . S
C422 C420 1.363 . S
C422 C423 1.370 . S
C422 C426 1.524 . S
C423 C415 1.503 . S
C423 C422 1.370 . S
C423 C424 1.403 . S
C424 C423 1.403 . S
C424 C425 1.404 . S
C424 C427 1.539 . S
C425 C421 1.408 . S
C425 C424 1.404 . S
C425 H437 0.930 . S
C426 C422 1.524 . S
C426 H438 0.956 . S
C426 H439 0.961 . S
C426 H440 0.961 . S
C427 C424 1.539 . S
C427 H441 0.958 1_655 S
C427 H442 0.961 1_655 S
C427 H443 0.960 . S
H428 C412 0.931 . S
H429 C417 0.929 . S
H430 C418 0.960 . S
H431 C418 0.962 . S
H432 C418 0.960 . S
H433 C419 0.961 . S
H434 C419 0.961 . S
H435 C419 0.961 . S
H436 C420 0.931 . S
H437 C425 0.930 . S
H438 C426 0.956 . S
H439 C426 0.961 . S
H440 C426 0.961 . S
H441 C427 0.958 1_455 S
H442 C427 0.961 1_455 S
H443 C427 0.960 . S
C444 C445 1.391 . S
C444 C446 1.394 . S
C444 H460 0.931 . S
C445 C444 1.391 . S
C445 C449 1.376 . S
C446 C444 1.394 . S
C446 C447 1.369 . S
C446 C450 1.531 . S
C447 C446 1.369 . S
C447 C448 1.410 . S
C447 C455 1.503 . S
C448 C447 1.410 . S
C448 C449 1.392 . S
C448 C451 1.511 . S
C449 C445 1.376 . S
C449 C448 1.392 . S
C449 H461 0.929 . S
C450 C446 1.531 . S
C450 H462 0.960 . S
C450 H463 0.962 . S
C450 H464 0.960 . S
C451 C448 1.511 . S
C451 H465 0.961 . S
C451 H466 0.961 . S
C451 H467 0.961 . S
C452 C453 1.370 . S
C452 C454 1.363 1_554 S
C452 H468 0.931 . S
C453 C452 1.370 . S
C453 C457 1.408 . S
C454 C452 1.363 1_556 S
C454 C455 1.370 . S
C454 C458 1.524 . S
C455 C447 1.503 . S
C455 C454 1.370 . S
C455 C456 1.403 . S
C456 C455 1.403 . S
C456 C457 1.404 1_556 S
C456 C459 1.539 . S
C457 C453 1.408 . S
C457 C456 1.404 1_554 S
C457 H469 0.930 . S
C458 C454 1.524 . S
C458 H470 0.956 . S
C458 H471 0.961 . S
C458 H472 0.961 . S
C459 C456 1.539 . S
C459 H473 0.958 . S
C459 H474 0.961 . S
C459 H475 0.960 . S
H460 C444 0.931 . S
H461 C449 0.929 . S
H462 C450 0.960 . S
H463 C450 0.962 . S
H464 C450 0.960 . S
H465 C451 0.961 . S
H466 C451 0.961 . S
H467 C451 0.961 . S
H468 C452 0.931 . S
H469 C457 0.930 . S
H470 C458 0.956 . S
H471 C458 0.961 . S
H472 C458 0.961 . S
H473 C459 0.958 . S
H474 C459 0.961 . S
H475 C459 0.960 . S
C476 C477 1.391 . S
C476 C478 1.394 . S
C476 H492 0.931 . S
C477 C476 1.391 . S
C477 C481 1.376 . S
C478 C476 1.394 . S
C478 C479 1.369 . S
C478 C482 1.531 . S
C479 C478 1.369 . S
C479 C480 1.410 . S
C479 C487 1.503 . S
C480 C479 1.410 . S
C480 C481 1.392 . S
C480 C483 1.511 . S
C481 C477 1.376 . S
C481 C480 1.392 . S
C481 H493 0.929 . S
C482 C478 1.531 . S
C482 H494 0.960 . S
C482 H495 0.962 . S
C482 H496 0.960 . S
C483 C480 1.511 . S
C483 H497 0.961 . S
C483 H498 0.961 . S
C483 H499 0.961 . S
C484 C485 1.370 1_565 S
C484 C486 1.363 . S
C484 H500 0.931 . S
C485 C484 1.370 1_545 S
C485 C489 1.408 . S
C486 C484 1.363 . S
C486 C487 1.370 . S
C486 C490 1.524 . S
C487 C479 1.503 . S
C487 C486 1.370 . S
C487 C488 1.403 1_565 S
C488 C487 1.403 1_545 S
C488 C489 1.404 . S
C488 C491 1.539 . S
C489 C485 1.408 . S
C489 C488 1.404 . S
C489 H501 0.930 . S
C490 C486 1.524 . S
C490 H502 0.956 . S
C490 H503 0.961 . S
C490 H504 0.961 . S
C491 C488 1.539 . S
C491 H505 0.958 . S
C491 H506 0.961 . S
C491 H507 0.960 . S
H492 C476 0.931 . S
H493 C481 0.929 . S
H494 C482 0.960 . S
H495 C482 0.962 . S
H496 C482 0.960 . S
H497 C483 0.961 . S
H498 C483 0.961 . S
H499 C483 0.961 . S
H500 C484 0.931 . S
H501 C489 0.930 . S
H502 C490 0.956 . S
H503 C490 0.961 . S
H504 C490 0.961 . S
H505 C491 0.958 . S
H506 C491 0.961 . S
H507 C491 0.960 . S
C508 C509 1.391 . S
C508 C510 1.394 . S
C508 H524 0.931 . S
C509 C508 1.391 . S
C509 C513 1.376 1_455 S
C510 C508 1.394 . S
C510 C511 1.369 1_455 S
C510 C514 1.531 . S
C511 C510 1.369 1_655 S
C511 C512 1.410 . S
C511 C519 1.503 . S
C512 C511 1.410 . S
C512 C513 1.392 . S
C512 C515 1.511 . S
C513 C509 1.376 1_655 S
C513 C512 1.392 . S
C513 H525 0.929 . S
C514 C510 1.531 . S
C514 H526 0.960 . S
C514 H527 0.962 . S
C514 H528 0.960 . S
C515 C512 1.511 . S
C515 H529 0.961 . S
C515 H530 0.961 . S
C515 H531 0.961 . S
C516 C517 1.370 . S
C516 C518 1.363 . S
C516 H532 0.931 . S
C517 C516 1.370 . S
C517 C521 1.408 . S
C518 C516 1.363 . S
C518 C519 1.370 . S
C518 C522 1.524 1_655 S
C519 C511 1.503 . S
C519 C518 1.370 . S
C519 C520 1.403 . S
C520 C519 1.403 . S
C520 C521 1.404 . S
C520 C523 1.539 . S
C521 C517 1.408 . S
C521 C520 1.404 . S
C521 H533 0.930 . S
C522 C518 1.524 1_455 S
C522 H534 0.956 . S
C522 H535 0.961 . S
C522 H536 0.961 . S
C523 C520 1.539 . S
C523 H537 0.958 . S
C523 H538 0.961 . S
C523 H539 0.960 . S
H524 C508 0.931 . S
H525 C513 0.929 . S
H526 C514 0.960 . S
H527 C514 0.962 . S
H528 C514 0.960 . S
H529 C515 0.961 . S
H530 C515 0.961 . S
H531 C515 0.961 . S
H532 C516 0.931 . S
H533 C521 0.930 . S
H534 C522 0.956 . S
H535 C522 0.961 . S
H536 C522 0.961 . S
H537 C523 0.958 . S
H538 C523 0.961 . S
H539 C523 0.960 . S
C253 C63 1.448 . S
C261 C74 1.441 . S
C285 C158 1.436 . S
C293 C147 1.441 1_455 S
C317 C242 1.403 1_455 S
C325 C231 1.456 . S
C349 C226 1.736 . S
C357 C67 1.931 . S
C381 C154 1.106 . S
C389 C56 1.242 . S
C413 C235 1.911 . S
C421 C142 1.792 . S
C445 C224 1.281 . S
C453 C70 1.121 . S
C477 C58 1.796 . S
C485 C151 1.916 . S
C509 C238 1.024 . S
C517 C140 1.204 . S
