# Generated by pormake.
# Topology wkj, (6)-cn, num edge types: 1
# Building blocks:
#     Node 0, Type 0, BuildingBlock: PAMTOO_clean_sbu_0, # of connection points: 6
#     Node 1, Type 0, BuildingBlock: PAMTOO_clean_sbu_0, # of connection points: 6
#     Node 2, Type 0, BuildingBlock: PAMTOO_clean_sbu_0, # of connection points: 6
#     Node 3, Type 0, BuildingBlock: PAMTOO_clean_sbu_0, # of connection points: 6
#     Node 4, Type 0, BuildingBlock: PAMTOO_clean_sbu_0, # of connection points: 6
#     Node 5, Type 0, BuildingBlock: PAMTOO_clean_sbu_0, # of connection points: 6
#     Node 6, Type 0, BuildingBlock: PAMTOO_clean_sbu_0, # of connection points: 6
#     Node 7, Type 0, BuildingBlock: PAMTOO_clean_sbu_0, # of connection points: 6
#     Node 8, Type 0, BuildingBlock: PAMTOO_clean_sbu_0, # of connection points: 6
#     Node 9, Type 0, BuildingBlock: PAMTOO_clean_sbu_0, # of connection points: 6
#     Node 10, Type 0, BuildingBlock: PAMTOO_clean_sbu_0, # of connection points: 6
#     Node 11, Type 0, BuildingBlock: PAMTOO_clean_sbu_0, # of connection points: 6
#     Edge 12, Type (0, 0), BuildingBlock: XUDNAN_clean_linker_2, # of connection points: 2
#     Edge 13, Type (0, 0), BuildingBlock: XUDNAN_clean_linker_2, # of connection points: 2
#     Edge 14, Type (0, 0), BuildingBlock: XUDNAN_clean_linker_2, # of connection points: 2
#     Edge 15, Type (0, 0), BuildingBlock: XUDNAN_clean_linker_2, # of connection points: 2
#     Edge 16, Type (0, 0), BuildingBlock: XUDNAN_clean_linker_2, # of connection points: 2
#     Edge 17, Type (0, 0), BuildingBlock: XUDNAN_clean_linker_2, # of connection points: 2
#     Edge 18, Type (0, 0), BuildingBlock: XUDNAN_clean_linker_2, # of connection points: 2
#     Edge 19, Type (0, 0), BuildingBlock: XUDNAN_clean_linker_2, # of connection points: 2
#     Edge 20, Type (0, 0), BuildingBlock: XUDNAN_clean_linker_2, # of connection points: 2
#     Edge 21, Type (0, 0), BuildingBlock: XUDNAN_clean_linker_2, # of connection points: 2
#     Edge 22, Type (0, 0), BuildingBlock: XUDNAN_clean_linker_2, # of connection points: 2
#     Edge 23, Type (0, 0), BuildingBlock: XUDNAN_clean_linker_2, # of connection points: 2
#     Edge 24, Type (0, 0), BuildingBlock: XUDNAN_clean_linker_2, # of connection points: 2
#     Edge 25, Type (0, 0), BuildingBlock: XUDNAN_clean_linker_2, # of connection points: 2
#     Edge 26, Type (0, 0), BuildingBlock: XUDNAN_clean_linker_2, # of connection points: 2
#     Edge 27, Type (0, 0), BuildingBlock: XUDNAN_clean_linker_2, # of connection points: 2
#     Edge 28, Type (0, 0), BuildingBlock: XUDNAN_clean_linker_2, # of connection points: 2
#     Edge 29, Type (0, 0), BuildingBlock: XUDNAN_clean_linker_2, # of connection points: 2
#     Edge 30, Type (0, 0), BuildingBlock: XUDNAN_clean_linker_2, # of connection points: 2
#     Edge 31, Type (0, 0), BuildingBlock: XUDNAN_clean_linker_2, # of connection points: 2
#     Edge 32, Type (0, 0), BuildingBlock: XUDNAN_clean_linker_2, # of connection points: 2
#     Edge 33, Type (0, 0), BuildingBlock: XUDNAN_clean_linker_2, # of connection points: 2
#     Edge 34, Type (0, 0), BuildingBlock: XUDNAN_clean_linker_2, # of connection points: 2
#     Edge 35, Type (0, 0), BuildingBlock: XUDNAN_clean_linker_2, # of connection points: 2
#     Edge 36, Type (0, 0), BuildingBlock: XUDNAN_clean_linker_2, # of connection points: 2
#     Edge 37, Type (0, 0), BuildingBlock: XUDNAN_clean_linker_2, # of connection points: 2
#     Edge 38, Type (0, 0), BuildingBlock: XUDNAN_clean_linker_2, # of connection points: 2
#     Edge 39, Type (0, 0), BuildingBlock: XUDNAN_clean_linker_2, # of connection points: 2
#     Edge 40, Type (0, 0), BuildingBlock: XUDNAN_clean_linker_2, # of connection points: 2
#     Edge 41, Type (0, 0), BuildingBlock: XUDNAN_clean_linker_2, # of connection points: 2
#     Edge 42, Type (0, 0), BuildingBlock: XUDNAN_clean_linker_2, # of connection points: 2
#     Edge 43, Type (0, 0), BuildingBlock: XUDNAN_clean_linker_2, # of connection points: 2
#     Edge 44, Type (0, 0), BuildingBlock: XUDNAN_clean_linker_2, # of connection points: 2
#     Edge 45, Type (0, 0), BuildingBlock: XUDNAN_clean_linker_2, # of connection points: 2
#     Edge 46, Type (0, 0), BuildingBlock: XUDNAN_clean_linker_2, # of connection points: 2
#     Edge 47, Type (0, 0), BuildingBlock: XUDNAN_clean_linker_2, # of connection points: 2
# Relax obj value: 0.817
# Max RMSD: 0.190
# Mean RMSD: 0.190
data_MOF--net-wkj--node1-PAMTOO_clean_sbu_0--edge1-XUDNAN_clean_linker_2
_symmetry_space_group_name_H-M    P1
_symmetry_Int_Tables_number       1
_symmetry_cell_setting            triclinic
loop_
_symmetry_equiv_pos_as_xyz
'x, y, z'
_cell_length_a     49.263017
_cell_length_b     49.148522
_cell_length_c     30.026042
_cell_angle_alpha  90.445479
_cell_angle_beta   90.258322
_cell_angle_gamma 120.33497
loop_
_atom_site_label
_atom_site_type_symbol
_atom_site_fract_x
_atom_site_fract_y
_atom_site_fract_z
_atom_type_partial_charge
Dy0 Dy 0.54904 0.11983 0.34347 0.0
Dy1 Dy 0.48024 0.10513 0.37052 0.0
C2 C 0.52988 0.17439 0.33555 0.0
O3 O 0.55089 0.11661 0.42077 0.0
O4 O 0.5055 0.11504 0.44194 0.0
O5 O 0.59474 0.12674 0.36211 0.0
O6 O 0.58505 0.13328 0.29408 0.0
O7 O 0.49186 0.07059 0.3965 0.0
O8 O 0.51903 0.06741 0.34054 0.0
O9 O 0.47038 0.08145 0.29832 0.0
O10 O 0.52098 0.09813 0.27687 0.0
O11 O 0.43 0.07407 0.3708 0.0
O12 O 0.45085 0.12099 0.40047 0.0
C13 C 0.5327 0.1165 0.45376 0.0
O14 O 0.55226 0.16775 0.34302 0.0
O15 O 0.5004 0.15212 0.33767 0.0
C16 C 0.63367 0.17055 0.32271 0.0
C17 C 0.66939 0.2333 0.29471 0.0
C18 C 0.64975 0.22586 0.33188 0.0
C19 C 0.63189 0.19461 0.34571 0.0
C20 C 0.6566 0.1786 0.29005 0.0
C21 C 0.67453 0.20985 0.2763 0.0
C22 C 0.60668 0.13824 0.32335 0.0
C23 C 0.49503 0.05311 0.36703 0.0
C24 C 0.49017 0.08246 0.26679 0.0
C25 C 0.4027 0.08181 0.42927 0.0
C26 C 0.35879 0.05803 0.49817 0.0
C27 C 0.38086 0.04812 0.49312 0.0
C28 C 0.4029 0.0602 0.45913 0.0
C29 C 0.38087 0.09193 0.43437 0.0
C30 C 0.35914 0.08028 0.46892 0.0
C31 C 0.42506 0.09421 0.39271 0.0
H32 H 0.64553 0.2435 0.34686 0.0
H33 H 0.61429 0.1889 0.37105 0.0
H34 H 0.65817 0.16037 0.27175 0.0
H35 H 0.68933 0.21471 0.24743 0.0
H36 H 0.38135 0.0314 0.51594 0.0
H37 H 0.42007 0.05272 0.4562 0.0
H38 H 0.38068 0.10885 0.41164 0.0
H39 H 0.34244 0.08833 0.47251 0.0
Dy40 Dy 0.44257 0.55821 0.68176 0.0
Dy41 Dy 0.39734 0.48588 0.69895 0.0
C42 C 0.36812 0.52763 0.663 0.0
O43 O 0.44051 0.56047 0.75929 0.0
O44 O 0.40298 0.50881 0.77094 0.0
O45 O 0.46835 0.60729 0.70214 0.0
O46 O 0.46928 0.59458 0.63369 0.0
O47 O 0.43794 0.49745 0.74306 0.0
O48 O 0.47453 0.5429 0.70981 0.0
O49 O 0.42233 0.48242 0.63524 0.0
O50 O 0.44398 0.53359 0.61451 0.0
O51 O 0.38447 0.43715 0.69361 0.0
O52 O 0.35101 0.44976 0.71925 0.0
C53 C 0.42278 0.53786 0.78789 0.0
O54 O 0.39412 0.55253 0.67714 0.0
O55 O 0.36686 0.50036 0.66091 0.0
C56 C 0.46357 0.63843 0.64677 0.0
C57 C 0.43107 0.66385 0.60261 0.0
C58 C 0.46019 0.66924 0.58662 0.0
C59 C 0.47628 0.65654 0.60854 0.0
C60 C 0.43638 0.63612 0.66553 0.0
C61 C 0.42037 0.64891 0.64374 0.0
C62 C 0.47487 0.61731 0.66149 0.0
C63 C 0.46628 0.52222 0.7418 0.0
C64 C 0.43734 0.50417 0.60457 0.0
C65 C 0.3465 0.40231 0.74391 0.0
C66 C 0.32622 0.35383 0.80632 0.0
C67 C 0.35773 0.37856 0.8062 0.0
C68 C 0.36778 0.40269 0.77532 0.0
C69 C 0.31507 0.37774 0.74384 0.0
C70 C 0.3049 0.35369 0.77504 0.0
C71 C 0.35667 0.42703 0.71061 0.0
H72 H 0.46892 0.68035 0.55475 0.0
H73 H 0.49715 0.65852 0.59348 0.0
H74 H 0.42599 0.62224 0.69505 0.0
H75 H 0.3981 0.64456 0.65689 0.0
H76 H 0.37446 0.37966 0.83073 0.0
H77 H 0.39208 0.42165 0.77607 0.0
H78 H 0.2984 0.37723 0.71969 0.0
H79 H 0.2805 0.335 0.77474 0.0
Dy80 Dy 0.88244 0.41295 0.99645 0.0
Dy81 Dy 0.92878 0.39142 1.03209 0.0
C82 C 0.85623 0.339 0.99345 0.0
O83 O 0.88209 0.41964 1.07703 0.0
O84 O 0.91131 0.39816 1.10096 0.0
O85 O 0.84774 0.4265 1.01059 0.0
O86 O 0.86947 0.43571 0.94623 0.0
O87 O 0.94568 0.44031 1.06147 0.0
O88 O 0.93222 0.44886 0.99686 0.0
O89 O 0.94889 0.40915 0.96151 0.0
O90 O 0.90832 0.41195 0.92939 0.0
O91 O 0.97578 0.39834 1.03976 0.0
O92 O 0.93418 0.35337 1.05537 0.0
C93 C 0.89478 0.41207 1.11168 0.0
O94 O 0.84954 0.3614 0.98936 0.0
O95 O 0.88469 0.34578 1.00698 0.0
C96 C 0.81618 0.41994 0.94727 0.0
C97 C 0.76504 0.38721 0.88797 0.0
C98 C 0.76816 0.37203 0.92551 0.0
C99 C 0.79373 0.38817 0.95469 0.0
C100 C 0.81125 0.436 0.91278 0.0
C101 C 0.78591 0.41981 0.88334 0.0
C102 C 0.84702 0.43485 0.9698 0.0
C103 C 0.94236 0.45986 1.03607 0.0
C104 C 0.93622 0.41323 0.92474 0.0
C105 C 0.98218 0.36224 1.0852 0.0
C106 C 0.00722 0.33659 0.14456 0.0
C107 C 0.98807 0.34828 0.1602 0.0
C108 C 0.9755 0.3609 0.13064 0.0
C109 C 0.0024 0.35205 1.06979 0.0
C110 C 0.01488 0.33931 1.09924 0.0
C111 C 0.96476 0.36926 1.05231 0.0
H112 H 0.75216 0.34711 0.93042 0.0
H113 H 0.79704 0.37525 0.98118 0.0
H114 H 0.82838 0.46048 0.90647 0.0
H115 H 0.78453 0.43228 0.85464 0.0
H116 H 0.98246 0.34728 0.1952 0.0
H117 H 0.95974 0.36854 0.14293 0.0
H118 H 0.00741 0.35262 1.03459 0.0
H119 H 0.02953 0.33054 1.08626 0.0
Dy120 Dy 0.4408 0.86484 0.3475 0.0
Dy121 Dy 0.50746 0.91985 0.37143 0.0
C122 C 0.49525 0.84801 0.34622 0.0
O123 O 0.43782 0.86754 0.42693 0.0
O124 O 0.48878 0.90469 0.44324 0.0
O125 O 0.40272 0.81698 0.35261 0.0
O126 O 0.39811 0.84927 0.30886 0.0
O127 O 0.4712 0.93424 0.35316 0.0
O128 O 0.43264 0.89545 0.38996 0.0
O129 O 0.5096 0.93693 0.30049 0.0
O130 O 0.46256 0.89474 0.27922 0.0
O131 O 0.53667 0.96148 0.41133 0.0
O132 O 0.55728 0.94671 0.3595 0.0
C133 C 0.45991 0.885 0.45794 0.0
O134 O 0.46529 0.83792 0.34489 0.0
O135 O 0.5156 0.87818 0.3554 0.0
C136 C 0.37894 0.79671 0.28275 0.0
C137 C 0.38113 0.76078 0.21109 0.0
C138 C 0.37942 0.75027 0.25473 0.0
C139 C 0.37809 0.76801 0.29038 0.0
C140 C 0.37708 0.80514 0.23871 0.0
C141 C 0.37829 0.78733 0.20317 0.0
C142 C 0.38692 0.81976 0.31972 0.0
C143 C 0.44316 0.92197 0.37132 0.0
C144 C 0.48882 0.92243 0.26838 0.0
C145 C 0.58908 0.97263 0.42156 0.0
C146 C 0.64075 0.98634 0.47706 0.0
C147 C 0.64546 1.0005 0.43516 0.0
C148 C 0.61979 0.9937 0.40767 0.0
C149 C 0.58425 0.95757 0.46259 0.0
C150 C 0.60984 0.96449 0.4902 0.0
C151 C 0.56256 0.96629 0.39235 0.0
H152 H 0.38158 0.72982 0.2614 0.0
H153 H 0.37896 0.76054 0.32395 0.0
H154 H 0.37725 0.8268 0.2316 0.0
H155 H 0.37983 0.79587 0.16956 0.0
H156 H 0.66892 0.01726 0.42398 0.0
H157 H 0.62389 0.00519 0.37573 0.0
H158 H 0.5607 0.94095 0.47366 0.0
H159 H 0.60521 0.95364 0.52265 0.0
Dy160 Dy 0.56359 0.45038 0.68082 0.0
Dy161 Dy 0.61765 0.52296 0.69555 0.0
C162 C 0.63813 0.47433 0.65698 0.0
O163 O 0.56947 0.45119 0.75825 0.0
O164 O 0.61038 0.502 0.7683 0.0
O165 O 0.54401 0.40131 0.69616 0.0
O166 O 0.52268 0.41473 0.64446 0.0
O167 O 0.57007 0.51626 0.703 0.0
O168 O 0.54175 0.46757 0.72943 0.0
O169 O 0.6029 0.52471 0.62228 0.0
O170 O 0.55624 0.47786 0.62172 0.0
O171 O 0.62994 0.57166 0.70301 0.0
O172 O 0.66608 0.55917 0.70533 0.0
C173 C 0.58944 0.47402 0.78599 0.0
O174 O 0.60891 0.45106 0.66195 0.0
O175 O 0.64572 0.5035 0.66534 0.0
C176 C 0.52669 0.36947 0.63314 0.0
C177 C 0.53437 0.32833 0.57575 0.0
C178 C 0.55833 0.36003 0.58102 0.0
C179 C 0.55441 0.3803 0.60905 0.0
C180 C 0.50301 0.33767 0.6297 0.0
C181 C 0.50671 0.31721 0.6008 0.0
C182 C 0.52396 0.39153 0.66323 0.0
C183 C 0.55137 0.49749 0.73337 0.0
C184 C 0.57554 0.50548 0.60201 0.0
C185 C 0.67404 0.60207 0.74869 0.0
C186 C 0.70426 0.64026 0.82339 0.0
C187 C 0.67808 0.6098 0.82849 0.0
C188 C 0.66316 0.59082 0.79141 0.0
C189 C 0.69982 0.6325 0.74322 0.0
C190 C 0.71483 0.6516 0.78043 0.0
C191 C 0.6596 0.58161 0.70995 0.0
H192 H 0.57952 0.36997 0.56138 0.0
H193 H 0.57288 0.40474 0.61114 0.0
H194 H 0.48157 0.32889 0.64861 0.0
H195 H 0.48768 0.29307 0.59695 0.0
H196 H 0.66885 0.60076 0.86117 0.0
H197 H 0.6433 0.56731 0.79606 0.0
H198 H 0.70848 0.64133 0.71025 0.0
H199 H 0.73481 0.67503 0.77571 0.0
Dy200 Dy 0.0985 0.56265 1.00525 0.0
Dy201 Dy 0.09907 0.62401 1.03116 0.0
C202 C 0.16028 0.63291 0.98707 0.0
O203 O 0.09884 0.55706 1.08203 0.0
O204 O 0.11317 0.60801 1.09884 0.0
O205 O 0.10025 0.52086 1.02324 0.0
O206 O 0.09937 0.5321 0.95411 0.0
O207 O 0.06477 0.58784 1.07302 0.0
O208 O 0.04871 0.55269 1.01736 0.0
O209 O 0.06919 0.60798 0.96366 0.0
O210 O 0.07344 0.56585 0.94116 0.0
O211 O 0.07407 0.64934 1.03205 0.0
O212 O 0.12196 0.67139 1.05824 0.0
C213 C 0.10797 0.57956 1.11293 0.0
O214 O 0.15036 0.60351 0.99921 0.0
O215 O 0.14061 0.64307 0.98816 0.0
C216 C 0.13596 0.51794 0.97369 0.0
C217 C 0.19395 0.54406 0.93033 0.0
C218 C 0.19213 0.55533 0.97265 0.0
C219 C 0.16326 0.54232 0.99426 0.0
C220 C 0.13889 0.50329 0.93529 0.0
C221 C 0.16784 0.51619 0.91378 0.0
C222 C 0.1057 0.51603 0.98231 0.0
C223 C 0.04213 0.56483 1.05195 0.0
C224 C 0.06287 0.58544 0.93279 0.0
C225 C 0.08743 0.68652 1.08927 0.0
C226 C 0.0619 0.70643 0.1568 0.0
C227 C 0.06902 0.68251 0.16484 0.0
C228 C 0.08159 0.67253 0.13123 0.0
C229 C 0.08129 0.71099 1.08146 0.0
C230 C 0.06852 0.72086 1.11497 0.0
C231 C 0.09701 0.67395 1.05215 0.0
H232 H 0.21196 0.57666 0.9862 0.0
H233 H 0.16165 0.55406 1.02398 0.0
H234 H 0.11814 0.48461 0.91876 0.0
H235 H 0.1685 0.50699 0.88115 0.0
H236 H 0.06356 0.6705 0.19648 0.0
H237 H 0.08578 0.65326 0.1375 0.0
H238 H 0.08547 0.72179 1.04899 0.0
H239 H 0.06325 0.7393 1.10795 0.0
Dy240 Dy 0.90112 0.47861 0.55337 0.0
Dy241 Dy 0.90047 0.53828 0.53189 0.0
C242 C 0.84025 0.48541 0.57473 0.0
O243 O 0.90919 0.47733 0.47867 0.0
O244 O 0.89263 0.51113 0.46046 0.0
O245 O 0.89662 0.43429 0.53165 0.0
O246 O 0.90026 0.446 0.60168 0.0
O247 O 0.94917 0.55941 0.51482 0.0
O248 O 0.9517 0.51955 0.54998 0.0
O249 O 0.92578 0.54924 0.60446 0.0
O250 O 0.92382 0.50289 0.62003 0.0
O251 O 0.91367 0.58714 0.5373 0.0
O252 O 0.87245 0.55477 0.49873 0.0
C253 C 0.90032 0.48955 0.44669 0.0
O254 O 0.84943 0.46688 0.55665 0.0
O255 O 0.8612 0.51495 0.57928 0.0
C256 C 0.86293 0.39458 0.58186 0.0
C257 C 0.80355 0.35447 0.61939 0.0
C258 C 0.80581 0.36698 0.57666 0.0
C259 C 0.83526 0.38717 0.55827 0.0
C260 C 0.86068 0.37883 0.62151 0.0
C261 C 0.83133 0.35908 0.64025 0.0
C262 C 0.89264 0.42369 0.57219 0.0
C263 C 0.96517 0.54889 0.53457 0.0
C264 C 0.93269 0.53205 0.63273 0.0
C265 C 0.90473 0.60579 0.47137 0.0
C266 C 0.93523 0.6507 0.40492 0.0
C267 C 0.93981 0.62483 0.40856 0.0
C268 C 0.92463 0.60253 0.44141 0.0
C269 C 0.89921 0.63101 0.46714 0.0
C270 C 0.91424 0.65333 0.43366 0.0
C271 C 0.89228 0.58423 0.5089 0.0
H272 H 0.78499 0.36337 0.55908 0.0
H273 H 0.83629 0.39904 0.52754 0.0
H274 H 0.88171 0.38437 0.64039 0.0
H275 H 0.83096 0.35028 0.67329 0.0
H276 H 0.95549 0.62207 0.38619 0.0
H277 H 0.9291 0.58316 0.44423 0.0
H278 H 0.88394 0.6338 0.49024 0.0
H279 H 0.91031 0.67304 0.43108 0.0
Dy280 Dy 0.42592 0.89979 0.90329 0.0
Dy281 Dy 0.36483 0.90133 0.88251 0.0
C282 C 0.3549 0.83611 0.91892 0.0
O283 O 0.42462 0.89383 0.82693 0.0
O284 O 0.37786 0.89045 0.8095 0.0
O285 O 0.46887 0.90351 0.8781 0.0
O286 O 0.45784 0.89569 0.94812 0.0
O287 O 0.40136 0.93489 0.83984 0.0
O288 O 0.43426 0.94987 0.8963 0.0
O289 O 0.38267 0.92704 0.95485 0.0
O290 O 0.42912 0.92828 0.96572 0.0
O291 O 0.34372 0.93038 0.88815 0.0
O292 O 0.31689 0.88298 0.86053 0.0
C293 C 0.40374 0.88989 0.79565 0.0
O294 O 0.38601 0.84906 0.9199 0.0
O295 O 0.34231 0.85269 0.90682 0.0
C296 C 0.47832 0.86709 0.91584 0.0
C297 C 0.47373 0.81127 0.94783 0.0
C298 C 0.44901 0.81027 0.92255 0.0
C299 C 0.45143 0.83793 0.90649 0.0
C300 C 0.50474 0.8679 0.9347 0.0
C301 C 0.50273 0.83999 0.94952 0.0
C302 C 0.47548 0.8954 0.91611 0.0
C303 C 0.42166 0.95767 0.86375 0.0
C304 C 0.40873 0.93616 0.98047 0.0
C305 C 0.30772 0.92191 0.83146 0.0
C306 C 0.29212 0.94983 0.76241 0.0
C307 C 0.27996 0.94787 0.80523 0.0
C308 C 0.28766 0.93384 0.83958 0.0
C309 C 0.31979 0.92374 0.78879 0.0
C310 C 0.31197 0.93748 0.7545 0.0
C311 C 0.31779 0.90963 0.86815 0.0
H312 H 0.42629 0.78903 0.91949 0.0
H313 H 0.43091 0.83683 0.8913 0.0
H314 H 0.52592 0.89023 0.94153 0.0
H315 H 0.52295 0.84162 0.96644 0.0
H316 H 0.26483 0.95743 0.81215 0.0
H317 H 0.2785 0.93288 0.87264 0.0
H318 H 0.33581 0.91517 0.78223 0.0
H319 H 0.32239 0.93945 0.72213 0.0
Dy320 Dy 0.55784 0.44887 0.23356 0.0
Dy321 Dy 0.48673 0.39474 0.21242 0.0
C322 C 0.53403 0.37366 0.25298 0.0
O323 O 0.56059 0.44383 0.1573 0.0
O324 O 0.51004 0.405 0.13989 0.0
O325 O 0.60773 0.46751 0.22655 0.0
O326 O 0.59127 0.49013 0.27181 0.0
O327 O 0.49345 0.4425 0.20733 0.0
O328 O 0.54245 0.47153 0.18307 0.0
O329 O 0.48252 0.4084 0.2864 0.0
O330 O 0.52912 0.45503 0.29091 0.0
O331 O 0.43758 0.38092 0.20656 0.0
O332 O 0.45218 0.34672 0.19575 0.0
C333 C 0.53941 0.42594 0.1262 0.0
O334 O 0.557 0.40326 0.25074 0.0
O335 O 0.50514 0.36594 0.24315 0.0
C336 C 0.62781 0.47612 0.29937 0.0
C337 C 0.62032 0.42818 0.35655 0.0
C338 C 0.63815 0.43405 0.31792 0.0
C339 C 0.64234 0.45834 0.28965 0.0
C340 C 0.61595 0.47431 0.34246 0.0
C341 C 0.61184 0.45013 0.37069 0.0
C342 C 0.61433 0.48526 0.26203 0.0
C343 C 0.51255 0.46159 0.17764 0.0
C344 C 0.50114 0.43535 0.30862 0.0
C345 C 0.4077 0.33894 0.15676 0.0
C346 C 0.36706 0.31182 1.08329 0.0
C347 C 0.35598 0.30216 0.12664 0.0
C348 C 0.37625 0.31564 0.16318 0.0
C349 C 0.4189 0.34866 1.11368 0.0
C350 C 0.39871 0.33532 1.07722 0.0
C351 C 0.42886 0.35204 0.1951 0.0
H352 H 0.64518 0.41752 0.30673 0.0
H353 H 0.65247 0.45975 0.25719 0.0
H354 H 0.60549 0.48829 0.35176 0.0
H355 H 0.59844 0.44621 0.40089 0.0
H356 H 0.33174 0.28417 0.13223 0.0
H357 H 0.36743 0.30781 0.19642 0.0
H358 H 0.44322 0.36653 1.10828 0.0
H359 H 0.40778 0.3439 1.04431 0.0
Dy360 Dy 0.10516 0.51972 0.54944 0.0
Dy361 Dy 0.09517 0.45355 0.53021 0.0
C362 C 0.16147 0.50608 0.57154 0.0
O363 O 0.10461 0.52322 0.47443 0.0
O364 O 0.10413 0.4778 0.45696 0.0
O365 O 0.12739 0.56924 0.53425 0.0
O366 O 0.09512 0.55064 0.58899 0.0
O367 O 0.05196 0.44121 0.49611 0.0
O368 O 0.05632 0.48768 0.52098 0.0
O369 O 0.06416 0.44605 0.59551 0.0
O370 O 0.08525 0.49716 0.61728 0.0
O371 O 0.07461 0.40379 0.54166 0.0
O372 O 0.11805 0.42909 0.50472 0.0
C373 C 0.10525 0.50465 0.44309 0.0
O374 O 0.15428 0.52698 0.55793 0.0
O375 O 0.13948 0.47647 0.57178 0.0
C376 C 0.1433 0.59797 0.60204 0.0
C377 C 0.19121 0.62209 0.66763 0.0
C378 C 0.19881 0.6234 0.62241 0.0
C379 C 0.17512 0.61157 0.58988 0.0
C380 C 0.1362 0.60038 0.64661 0.0
C381 C 0.15993 0.61227 0.67915 0.0
C382 C 0.11802 0.57591 0.5711 0.0
C383 C 0.04078 0.45976 0.50019 0.0
C384 C 0.06584 0.46706 0.62616 0.0
C385 C 0.08468 0.37562 0.48696 0.0
C386 C 0.06722 0.3296 0.41971 0.0
C387 C 0.05032 0.34544 0.42575 0.0
C388 C 0.05904 0.36831 0.459 0.0
C389 C 0.1007 0.35893 0.48263 0.0
C390 C 0.09208 0.33607 0.4491 0.0
C391 C 0.09604 0.40175 0.51893 0.0
H392 H 0.22276 0.63129 0.61249 0.0
H393 H 0.1816 0.61068 0.55571 0.0
H394 H 0.11199 0.59043 0.65695 0.0
H395 H 0.15318 0.61083 0.71371 0.0
H396 H 0.03159 0.34169 0.40299 0.0
H397 H 0.04655 0.38113 0.46174 0.0
H398 H 0.12057 0.36438 0.50416 0.0
H399 H 0.10557 0.32436 0.44503 0.0
Dy400 Dy 0.58497 0.12203 0.90374 0.0
Dy401 Dy 0.59879 0.06919 0.87621 0.0
C402 C 0.65716 0.14014 0.90807 0.0
O403 O 0.58376 0.12351 0.82347 0.0
O404 O 0.59819 0.08742 0.80492 0.0
O405 O 0.5936 0.16926 0.89803 0.0
O406 O 0.55737 0.13672 0.94244 0.0
O407 O 0.54618 0.05169 0.88428 0.0
O408 O 0.55065 0.09456 0.85382 0.0
O409 O 0.58224 0.05095 0.94695 0.0
O410 O 0.56682 0.08602 0.9662 0.0
O411 O 0.58916 0.0298 0.83309 0.0
O412 O 0.62156 0.04241 0.88903 0.0
C413 C 0.58987 0.10796 0.79121 0.0
O414 O 0.63603 0.14767 0.91743 0.0
O415 O 0.64854 0.11194 0.89073 0.0
C416 C 0.58895 0.19003 0.96518 0.0
C417 C 0.62197 0.23975 1.02673 0.0
C418 C 0.63165 0.21778 1.01832 0.0
C419 C 0.61524 0.19313 0.98804 0.0
C420 C 0.57891 0.21168 0.97357 0.0
C421 C 0.59516 0.23627 1.00462 0.0
C422 C 0.57432 0.16603 0.92983 0.0
C423 C 0.53315 0.06562 0.86313 0.0
C424 C 0.56921 0.06049 0.97699 0.0
C425 C 0.6327 0.02271 0.82397 0.0
C426 C 0.67381 0.02039 0.76108 0.0
C427 C 0.64185 0.9966 0.76208 0.0
C428 C 0.6216 0.99771 0.79334 0.0
C429 C 0.66483 0.04577 0.82463 0.0
C430 C 0.68525 0.04449 0.79361 0.0
C431 C 0.61009 0.02518 0.85304 0.0
H432 H 0.65162 0.21926 1.0359 0.0
H433 H 0.62333 0.17664 0.98208 0.0
H434 H 0.55878 0.20975 0.95588 0.0
H435 H 0.58699 0.25265 1.01112 0.0
H436 H 0.63183 0.97805 0.73703 0.0
H437 H 0.59691 0.97972 0.79232 0.0
H438 H 0.67401 0.06534 0.8481 0.0
H439 H 0.7097 0.06303 0.79401 0.0
Dy440 Dy 0.46289 0.58117 0.23508 0.0
Dy441 Dy 0.53503 0.61565 0.21128 0.0
C442 C 0.50477 0.65602 0.25438 0.0
O443 O 0.46035 0.58384 0.15804 0.0
O444 O 0.5124 0.61107 0.13912 0.0
O445 O 0.41644 0.57321 0.22225 0.0
O446 O 0.42359 0.54787 0.27499 0.0
O447 O 0.51699 0.57226 0.17072 0.0
O448 O 0.46709 0.54357 0.19879 0.0
O449 O 0.53521 0.58976 0.27618 0.0
O450 O 0.48677 0.57735 0.3011 0.0
O451 O 0.58112 0.62084 0.21376 0.0
O452 O 0.57511 0.65927 0.19019 0.0
C453 C 0.48195 0.59587 0.12613 0.0
O454 O 0.47647 0.63209 0.24649 0.0
O455 O 0.52931 0.65266 0.24854 0.0
C456 C 0.38534 0.56346 0.28594 0.0
C457 C 0.35767 0.58766 0.34414 0.0
C458 C 0.35841 0.59296 0.2982 0.0
C459 C 0.37192 0.58079 0.26933 0.0
C460 C 0.38231 0.55603 0.33133 0.0
C461 C 0.36866 0.56804 0.36013 0.0
C462 C 0.40403 0.55505 0.2564 0.0
C463 C 0.48876 0.54728 0.17014 0.0
C464 C 0.51434 0.57889 0.30886 0.0
C465 C 0.61984 0.65806 0.16588 0.0
C466 C 0.6688 0.67639 1.10483 0.0
C467 C 0.64229 0.64579 1.10287 0.0
C468 C 0.6179 0.63669 0.13315 0.0
C469 C 0.64632 0.68843 0.16824 0.0
C470 C 0.67062 0.69763 0.13778 0.0
C471 C 0.59479 0.64945 0.19816 0.0
H472 H 0.34994 0.60778 0.28492 0.0
H473 H 0.37321 0.58628 0.23426 0.0
H474 H 0.39189 0.54229 0.34506 0.0
H475 H 0.36886 0.56379 0.39545 0.0
H476 H 0.63997 0.62919 1.07707 0.0
H477 H 0.59749 0.61321 0.13073 0.0
H478 H 0.64806 0.70513 0.1935 0.0
H479 H 0.69072 0.72132 0.13978 0.0
H480 H 0.48883 0.19617 0.31694 0.0
H481 H 0.58826 0.22874 0.33059 0.0
H482 H 0.60068 0.2829 0.31229 0.0
H483 H 0.49351 0.24407 0.22494 0.0
H484 H 0.46352 0.2516 0.2453 0.0
H485 H 0.46279 0.21581 0.26016 0.0
H486 H 0.46257 0.22907 0.34367 0.0
H487 H 0.4635 0.26506 0.32932 0.0
H488 H 0.49328 0.26626 0.36572 0.0
H489 H 0.60185 0.33443 0.28686 0.0
H490 H 0.59151 0.37678 0.26419 0.0
H491 H 0.49124 0.31084 0.27094 0.0
C492 C 0.5133 0.21458 0.31596 0.0
C493 C 0.53759 0.20764 0.32479 0.0
C494 C 0.56916 0.23296 0.32351 0.0
C495 C 0.57643 0.26398 0.31309 0.0
C496 C 0.55194 0.2698 0.3038 0.0
C497 C 0.52095 0.24571 0.30569 0.0
C498 C 0.4988 0.25804 0.2954 0.0
C499 C 0.47846 0.24139 0.25399 0.0
C500 C 0.47831 0.25439 0.33593 0.0
C501 C 0.52197 0.29266 0.28639 0.0
C502 C 0.55258 0.29911 0.29131 0.0
C503 C 0.57788 0.32942 0.28339 0.0
C504 C 0.57177 0.35351 0.27048 0.0
C505 C 0.54055 0.34775 0.26627 0.0
C506 C 0.51546 0.31656 0.27418 0.0
H507 H 0.30746 0.48044 0.63658 0.0
H508 H 0.36389 0.58139 0.6592 0.0
H509 H 0.31832 0.58699 0.63901 0.0
H510 H 0.26298 0.48357 0.5417 0.0
H511 H 0.22671 0.44908 0.55746 0.0
H512 H 0.26385 0.45298 0.57333 0.0
H513 H 0.24723 0.44555 0.656 0.0
H514 H 0.21005 0.44164 0.6404 0.0
H515 H 0.23499 0.47106 0.68098 0.0
H516 H 0.26521 0.58162 0.61531 0.0
H517 H 0.21107 0.56576 0.59095 0.0
H518 H 0.18787 0.46815 0.5856 0.0
C519 C 0.31036 0.50379 0.63717 0.0
C520 C 0.33984 0.5305 0.64963 0.0
C521 C 0.342 0.56046 0.64995 0.0
C522 C 0.31602 0.56389 0.63846 0.0
C523 C 0.28744 0.53719 0.62647 0.0
C524 C 0.28447 0.50766 0.62581 0.0
C525 C 0.25101 0.48269 0.6121 0.0
C526 C 0.25115 0.4661 0.56856 0.0
C527 C 0.23487 0.45882 0.6496 0.0
C528 C 0.23561 0.50265 0.60515 0.0
C529 C 0.25708 0.53409 0.61347 0.0
C530 C 0.24839 0.55701 0.60871 0.0
C531 C 0.21737 0.54775 0.59484 0.0
C532 C 0.19466 0.51564 0.58643 0.0
C533 C 0.20427 0.49291 0.59194 0.0
H534 H 0.7933 0.31667 0.97382 0.0
H535 H 0.86027 0.28445 0.98505 0.0
H536 H 0.81825 0.23043 0.963 0.0
H537 H 0.72643 0.24709 1.0181 0.0
H538 H 0.69897 0.24934 0.98061 0.0
H539 H 0.73455 0.28473 0.99714 0.0
H540 H 0.74876 0.2976 0.91439 0.0
H541 H 0.71336 0.26218 0.89757 0.0
H542 H 0.75107 0.26934 0.87852 0.0
H543 H 0.7658 0.17769 0.93676 0.0
H544 H 0.71163 0.13532 0.91542 0.0
H545 H 0.68044 0.20336 0.9241 0.0
C546 C 0.79938 0.29839 0.97184 0.0
C547 C 0.83065 0.30543 0.9814 0.0
C548 C 0.83684 0.28019 0.97818 0.0
C549 C 0.81293 0.24922 0.96547 0.0
C550 C 0.78244 0.24326 0.95612 0.0
C551 C 0.77578 0.26738 0.95961 0.0
C552 C 0.74137 0.25535 0.9484 0.0
C553 C 0.72434 0.25936 0.98848 0.0
C554 C 0.73844 0.27208 0.90723 0.0
C555 C 0.72937 0.22069 0.93833 0.0
C556 C 0.75325 0.21389 0.94241 0.0
C557 C 0.74714 0.18311 0.9338 0.0
C558 C 0.71615 0.15901 0.92143 0.0
C559 C 0.69115 0.1654 0.91801 0.0
C560 C 0.6985 0.19703 0.92647 0.0
H561 H 0.46061 0.67552 0.2664 0.0
H562 H 0.56046 0.70936 0.2785 0.0
H563 H 0.56973 0.76142 0.30341 0.0
H564 H 0.46928 0.74762 0.22414 0.0
H565 H 0.43655 0.74532 0.25378 0.0
H566 H 0.43629 0.70973 0.23821 0.0
H567 H 0.429 0.69127 0.31972 0.0
H568 H 0.42651 0.72543 0.33524 0.0
H569 H 0.4546 0.71775 0.3626 0.0
H570 H 0.56803 0.8121 0.32752 0.0
H571 H 0.55484 0.85339 0.34716 0.0
H572 H 0.45656 0.7862 0.31905 0.0
C573 C 0.48446 0.69376 0.27443 0.0
C574 C 0.50972 0.6877 0.27033 0.0
C575 C 0.54049 0.71282 0.28116 0.0
C576 C 0.54607 0.74275 0.29546 0.0
C577 C 0.52074 0.74791 0.29903 0.0
C578 C 0.49051 0.72397 0.28874 0.0
C579 C 0.46737 0.73561 0.29466 0.0
C580 C 0.45142 0.73446 0.25002 0.0
C581 C 0.44292 0.71639 0.33021 0.0
C582 C 0.48903 0.76956 0.31029 0.0
C583 C 0.51984 0.77646 0.31254 0.0
C584 C 0.54385 0.80668 0.32587 0.0
C585 C 0.53618 0.83016 0.33708 0.0
C586 C 0.50464 0.82359 0.33523 0.0
C587 C 0.48101 0.79257 0.32146 0.0
H588 H 0.70197 0.51686 0.65093 0.0
H589 H 0.63391 0.41775 0.63011 0.0
H590 H 0.67712 0.4085 0.60769 0.0
H591 H 0.75193 0.52546 0.55868 0.0
H592 H 0.78759 0.55238 0.5883 0.0
H593 H 0.75119 0.55051 0.60225 0.0
H594 H 0.75822 0.53937 0.68438 0.0
H595 H 0.79461 0.54112 0.67064 0.0
H596 H 0.76365 0.50662 0.69703 0.0
H597 H 0.73094 0.4111 0.58663 0.0
H598 H 0.78605 0.42553 0.5695 0.0
H599 H 0.81719 0.52249 0.606 0.0
C600 C 0.69588 0.4931 0.64162 0.0
C601 C 0.66404 0.46808 0.64246 0.0
C602 C 0.65781 0.43747 0.62997 0.0
C603 C 0.68239 0.43199 0.61714 0.0
C604 C 0.71349 0.45725 0.61695 0.0
C605 C 0.72008 0.48723 0.62895 0.0
C606 C 0.75517 0.51065 0.62626 0.0
C607 C 0.76185 0.53626 0.59183 0.0
C608 C 0.7687 0.5253 0.67232 0.0
C609 C 0.76758 0.48945 0.61081 0.0
C610 C 0.7434 0.45865 0.60548 0.0
C611 C 0.74982 0.43524 0.59087 0.0
C612 C 0.78134 0.4436 0.58128 0.0
C613 C 0.80648 0.47515 0.58643 0.0
C614 C 0.79898 0.49806 0.6017 0.0
H615 H 0.29065 0.8052 0.91182 0.0
H616 H 0.36544 0.78849 0.9528 0.0
H617 H 0.32502 0.73329 0.97213 0.0
H618 H 0.23665 0.76169 0.99686 0.0
H619 H 0.20283 0.74813 0.96072 0.0
H620 H 0.23799 0.78506 0.95003 0.0
H621 H 0.23939 0.76583 0.8702 0.0
H622 H 0.20457 0.72846 0.88052 0.0
H623 H 0.23998 0.72979 0.86208 0.0
H624 H 0.27164 0.67712 0.98908 0.0
H625 H 0.21697 0.63268 1.00133 0.0
H626 H 0.18071 0.68948 0.94663 0.0
C627 C 0.29903 0.79025 0.9248 0.0
C628 C 0.3318 0.80193 0.93074 0.0
C629 C 0.34078 0.78067 0.94778 0.0
C630 C 0.31776 0.74907 0.95887 0.0
C631 C 0.2856 0.73863 0.95263 0.0
C632 C 0.27663 0.75903 0.93574 0.0
C633 C 0.24112 0.74338 0.9321 0.0
C634 C 0.22894 0.76059 0.96169 0.0
C635 C 0.23065 0.74176 0.88334 0.0
C636 C 0.23093 0.7108 0.94968 0.0
C637 C 0.25656 0.70801 0.96162 0.0
C638 C 0.25175 0.67955 0.97963 0.0
C639 C 0.22044 0.65413 0.98626 0.0
C640 C 0.19397 0.65706 0.97511 0.0
C641 C 0.19995 0.68589 0.95582 0.0
H642 H 0.59589 0.25155 1.09793 0.0
H643 H 0.68509 0.28023 1.03581 0.0
H644 H 0.7126 0.3037 1.10652 0.0
H645 H 0.63381 0.3214 0.19279 0.0
H646 H 0.60524 0.2942 0.23115 0.0
H647 H 0.59432 0.29414 0.17382 0.0
H648 H 0.57513 0.23472 0.16734 0.0
H649 H 0.58552 0.23445 0.22408 0.0
H650 H 0.60176 0.22089 0.18143 0.0
H651 H 0.72649 0.30124 0.18278 0.0
H652 H 0.72442 0.27447 0.25258 0.0
H653 H 0.62807 0.25098 0.27055 0.0
C654 C 0.62134 0.26476 1.09887 0.0
C655 C 0.63844 0.26391 1.06199 0.0
C656 C 0.67165 0.28051 1.06404 0.0
C657 C 0.68746 0.29417 1.1041 0.0
C658 C 0.66977 0.29163 0.14166 0.0
C659 C 0.63735 0.27836 0.13901 0.0
C660 C 0.62313 0.27246 0.18505 0.0
C661 C 0.61359 0.29702 0.19635 0.0
C662 C 0.59483 0.23863 0.18968 0.0
C663 C 0.65132 0.27814 0.21297 0.0
C664 C 0.67851 0.2913 0.18786 0.0
C665 C 0.70577 0.29216 0.20332 0.0
C666 C 0.70447 0.27683 0.24309 0.0
C667 C 0.67607 0.26079 0.26691 0.0
C668 C 0.65027 0.26393 0.25361 0.0
H669 H 0.32428 0.56838 0.42109 0.0
H670 H 0.37885 0.65056 0.34038 0.0
H671 H 0.38874 0.68486 0.4054 0.0
H672 H 0.30065 0.61413 0.51217 0.0
H673 H 0.30437 0.59085 0.5551 0.0
H674 H 0.28773 0.57316 0.50163 0.0
H675 H 0.32815 0.55507 0.49317 0.0
H676 H 0.34444 0.57151 0.54642 0.0
H677 H 0.36959 0.58364 0.49837 0.0
H678 H 0.4124 0.70641 0.47744 0.0
H679 H 0.44208 0.71243 0.5466 0.0
H680 H 0.37151 0.61836 0.58519 0.0
C681 C 0.3367 0.59369 0.41698 0.0
C682 C 0.35142 0.60687 0.37628 0.0
C683 C 0.36749 0.63995 0.37139 0.0
C684 C 0.37314 0.65969 0.40834 0.0
C685 C 0.36179 0.64595 0.44968 0.0
C686 C 0.34259 0.61357 0.4539 0.0
C687 C 0.33889 0.60408 0.50235 0.0
C688 C 0.30593 0.59502 0.51872 0.0
C689 C 0.34577 0.57709 0.51047 0.0
C690 C 0.36346 0.63496 0.52353 0.0
C691 C 0.37514 0.65929 0.49315 0.0
C692 C 0.40253 0.68805 0.50213 0.0
C693 C 0.41943 0.6913 0.54146 0.0
C694 C 0.40885 0.66592 0.57131 0.0
C695 C 0.37946 0.63845 0.56361 0.0
H696 H 0.75946 0.33332 0.85499 0.0
H697 H 0.72974 0.40102 0.831 0.0
H698 H 0.71676 0.38224 0.7534 0.0
H699 H 0.80137 0.34541 0.77625 0.0
H700 H 0.79237 0.30653 0.75865 0.0
H701 H 0.78438 0.31282 0.81441 0.0
H702 H 0.72584 0.26972 0.80498 0.0
H703 H 0.73397 0.2626 0.74893 0.0
H704 H 0.70314 0.27137 0.75903 0.0
H705 H 0.72837 0.37363 0.67818 0.0
H706 H 0.76173 0.37587 0.617 0.0
H707 H 0.78066 0.30955 0.68466 0.0
C708 C 0.74785 0.34239 0.83442 0.0
C709 C 0.7456 0.36855 0.84903 0.0
C710 C 0.73176 0.38099 0.82047 0.0
C711 C 0.72406 0.37022 0.77632 0.0
C712 C 0.72967 0.3465 0.76145 0.0
C713 C 0.7402 0.33182 0.79024 0.0
C714 C 0.75095 0.31219 0.7648 0.0
C715 C 0.78423 0.31979 0.77937 0.0
C716 C 0.72705 0.27688 0.76972 0.0
C717 C 0.75026 0.32271 0.71774 0.0
C718 C 0.7361 0.34092 0.71616 0.0
C719 C 0.73835 0.35842 0.67859 0.0
C720 C 0.75751 0.35949 0.64355 0.0
C721 C 0.77443 0.34326 0.64624 0.0
C722 C 0.76835 0.32251 0.682 0.0
H723 H 0.50079 0.8179 1.03022 0.0
H724 H 0.4287 0.74722 0.9432 0.0
H725 H 0.40093 0.71614 1.00863 0.0
H726 H 0.49041 0.75743 0.12624 0.0
H727 H 0.49954 0.78883 0.16565 0.0
H728 H 0.51912 0.79751 1.11269 0.0
H729 H 0.50124 0.83823 1.09953 0.0
H730 H 0.48042 0.82837 0.15078 0.0
H731 H 0.45977 0.82512 1.09948 0.0
H732 H 0.37165 0.70612 1.07939 0.0
H733 H 0.34916 0.71338 0.14917 0.0
H734 H 0.4416 0.78667 0.19152 0.0
C735 C 0.48037 0.79498 1.02415 0.0
C736 C 0.46629 0.78603 0.98132 0.0
C737 C 0.43938 0.7556 0.97573 0.0
C738 C 0.42353 0.73745 1.01286 0.0
C739 C 0.43582 0.74917 1.0552 0.0
C740 C 0.46463 0.77653 1.0609 0.0
C741 C 0.47044 0.78714 1.10924 0.0
C742 C 0.4964 0.78241 0.12966 0.0
C743 C 0.47836 0.82169 1.11499 0.0
C744 C 0.43877 0.76419 0.12852 0.0
C745 C 0.41931 0.74174 1.09736 0.0
C746 C 0.38705 0.72238 1.10484 0.0
C747 C 0.37436 0.72667 0.14435 0.0
C748 C 0.39404 0.74998 0.17562 0.0
C749 C 0.42659 0.76794 0.16839 0.0
H750 H 0.64224 0.3969 0.40716 0.0
H751 H 0.55856 0.38844 0.34697 0.0
H752 H 0.5264 0.33648 0.38005 0.0
H753 H 0.60519 0.30191 0.42201 0.0
H754 H 0.62516 0.30984 0.47509 0.0
H755 H 0.64392 0.33589 0.42895 0.0
H756 H 0.65217 0.38308 0.47687 0.0
H757 H 0.63381 0.35785 0.52294 0.0
H758 H 0.61885 0.38236 0.5027 0.0
H759 H 0.5017 0.2985 0.43539 0.0
H760 H 0.48873 0.2945 0.51391 0.0
H761 H 0.5847 0.32353 0.54922 0.0
C762 C 0.61731 0.38308 0.3998 0.0
C763 C 0.60277 0.39592 0.37392 0.0
C764 C 0.57004 0.37847 0.36618 0.0
C765 C 0.55168 0.34867 0.38437 0.0
C766 C 0.5661 0.33682 0.41183 0.0
C767 C 0.59837 0.35365 0.41982 0.0
C768 C 0.60663 0.34094 0.46026 0.0
C769 C 0.62106 0.32095 0.4457 0.0
C770 C 0.62907 0.36762 0.49262 0.0
C771 C 0.57393 0.31992 0.47907 0.0
C772 C 0.55092 0.31485 0.44782 0.0
C773 C 0.51942 0.30191 0.45977 0.0
C774 C 0.51205 0.29944 0.50494 0.0
C775 C 0.53629 0.31029 0.53722 0.0
C776 C 0.5662 0.31581 0.52438 0.0
H777 H 0.20744 0.60308 0.91375 0.0
H778 H 0.22937 0.53217 0.87131 0.0
H779 H 0.25025 0.56046 0.80094 0.0
H780 H 0.17112 0.60152 0.8288 0.0
H781 H 0.18283 0.6425 0.82281 0.0
H782 H 0.18516 0.62809 0.8762 0.0
H783 H 0.24393 0.66979 0.88242 0.0
H784 H 0.24226 0.68492 0.8286 0.0
H785 H 0.27074 0.673 0.83946 0.0
H786 H 0.25103 0.58373 0.72936 0.0
H787 H 0.22866 0.59618 0.66505 0.0
H788 H 0.20223 0.6504 0.75001 0.0
C789 C 0.21881 0.59488 0.89095 0.0
C790 C 0.2174 0.56584 0.89814 0.0
C791 C 0.23084 0.55471 0.86669 0.0
C792 C 0.2428 0.57075 0.82664 0.0
C793 C 0.24098 0.59777 0.81851 0.0
C794 C 0.2297 0.61009 0.85028 0.0
C795 C 0.22232 0.63387 0.83008 0.0
C796 C 0.18836 0.62594 0.84002 0.0
C797 C 0.24627 0.6674 0.84609 0.0
C798 C 0.22693 0.62968 0.78126 0.0
C799 C 0.23971 0.61044 0.77554 0.0
C800 C 0.24198 0.59959 0.73348 0.0
C801 C 0.22919 0.60687 0.6969 0.0
C802 C 0.21364 0.62424 0.70262 0.0
C803 C 0.2142 0.63728 0.74486 0.0
H804 H 0.38242 0.94289 1.06812 0.0
H805 H 0.46428 0.99188 0.98455 0.0
H806 H 0.49056 0.03271 1.04296 0.0
H807 H 0.39223 0.02011 1.11573 0.0
H808 H 0.37795 0.00427 0.17014 0.0
H809 H 0.36401 0.97875 0.12166 0.0
H810 H 0.38184 0.94216 0.15619 0.0
H811 H 0.39364 0.96734 0.20477 0.0
H812 H 0.42151 0.95921 0.17744 0.0
H813 H 0.51278 0.06742 1.1162 0.0
H814 H 0.52477 0.09392 0.1896 0.0
H815 H 0.42886 0.03027 0.23 0.0
C816 C 0.40591 0.96212 1.06169 0.0
C817 C 0.42095 0.96238 1.01967 0.0
C818 C 0.4517 0.98927 1.01515 0.0
C819 C 0.46719 0.01311 1.0489 0.0
C820 C 0.45274 0.01132 1.08984 0.0
C821 C 0.42226 0.98692 1.09604 0.0
C822 C 0.41189 0.99244 0.14283 0.0
C823 C 0.38489 0.99927 0.13727 0.0
C824 C 0.40165 0.96352 0.17206 0.0
C825 C 0.44169 0.02208 0.16297 0.0
C826 C 0.4648 0.03255 0.13099 0.0
C827 C 0.49442 0.05905 0.14089 0.0
C828 C 0.50119 0.07435 0.18378 0.0
C829 C 0.47882 0.06492 0.21891 0.0
C830 C 0.44781 0.03845 0.20638 0.0
H831 H 0.48745 0.41526 0.40285 0.0
H832 H 0.48726 0.48313 0.31197 0.0
H833 H 0.4692 0.50418 0.37271 0.0
H834 H 0.41882 0.40382 0.47218 0.0
H835 H 0.43584 0.40154 0.52429 0.0
H836 H 0.44593 0.38935 0.47318 0.0
H837 H 0.50403 0.42723 0.49042 0.0
H838 H 0.49503 0.44138 0.54067 0.0
H839 H 0.51806 0.46855 0.49773 0.0
H840 H 0.44884 0.51868 0.44654 0.0
H841 H 0.43862 0.53049 0.5226 0.0
H842 H 0.45284 0.4563 0.57326 0.0
C843 C 0.48339 0.43441 0.39529 0.0
C844 C 0.48886 0.44671 0.35007 0.0
C845 C 0.48348 0.47242 0.34443 0.0
C846 C 0.4731 0.48485 0.37958 0.0
C847 C 0.46833 0.47265 0.42301 0.0
C848 C 0.47361 0.44802 0.43119 0.0
C849 C 0.46806 0.4405 0.48194 0.0
C850 C 0.44053 0.40678 0.48829 0.0
C851 C 0.49806 0.44462 0.50408 0.0
C852 C 0.45958 0.46494 0.50108 0.0
C853 C 0.45916 0.48265 0.46581 0.0
C854 C 0.45059 0.50557 0.47408 0.0
C855 C 0.44443 0.51213 0.51835 0.0
C856 C 0.445 0.49533 0.55655 0.0
C857 C 0.4523 0.47059 0.54643 0.0
H858 H 0.99981 0.42326 0.65642 0.0
H859 H 0.09156 0.49298 0.70785 0.0
H860 H 0.06933 0.48649 0.78294 0.0
H861 H 0.95559 0.44776 0.72338 0.0
H862 H 0.92261 0.41003 0.73826 0.0
H863 H 0.9435 0.41431 0.6872 0.0
H864 H 0.95626 0.37198 0.70675 0.0
H865 H 0.93325 0.36422 0.75656 0.0
H866 H 0.97334 0.37276 0.76029 0.0
H867 H 0.03708 0.47253 0.85727 0.0
H868 H 0.99945 0.45502 0.91893 0.0
H869 H 0.92396 0.39579 0.82691 0.0
C870 C 0.01558 0.43685 0.68345 0.0
C871 C 0.04881 0.45853 0.67379 0.0
C872 C 0.06683 0.47595 0.71194 0.0
C873 C 0.05409 0.47234 0.75576 0.0
C874 C 0.02199 0.45134 0.76391 0.0
C875 C 0.00273 0.43388 0.72862 0.0
C876 C 0.96857 0.41391 0.74741 0.0
C877 C 0.94621 0.42196 0.72268 0.0
C878 C 0.95716 0.37861 0.74243 0.0
C879 C 0.97152 0.4233 0.79808 0.0
C880 C 0.003 0.4446 0.80641 0.0
C881 C 0.01252 0.45594 0.85026 0.0
C882 C 0.9904 0.44563 0.88596 0.0
C883 C 0.95744 0.42396 0.88046 0.0
C884 C 0.9483 0.41284 0.83436 0.0
H885 H 0.53845 0.98377 0.23809 0.0
H886 H 0.45645 0.90049 0.18516 0.0
H887 H 0.46765 0.9253 1.11063 0.0
H888 H 0.53002 0.0391 0.17969 0.0
H889 H 0.56942 0.06718 0.16205 0.0
H890 H 0.56297 0.0446 0.21203 0.0
H891 H 0.59274 0.01798 0.18943 0.0
H892 H 0.60602 0.04336 0.14164 0.0
H893 H 0.58774 1.00125 0.13432 0.0
H894 H 0.49264 0.95967 1.03467 0.0
H895 H 0.51909 0.99945 0.97614 0.0
H896 H 0.5827 0.06541 1.07526 0.0
C897 C 0.52263 0.97032 0.21103 0.0
C898 C 0.49603 0.93887 0.22014 0.0
C899 C 0.47681 0.92381 0.18171 0.0
C900 C 0.48328 0.93811 0.1382 0.0
C901 C 0.50946 0.96859 0.13081 0.0
C902 C 0.52876 0.98461 0.16674 0.0
C903 C 0.55494 0.01761 0.15012 0.0
C904 C 0.55441 0.0438 0.17747 0.0
C905 C 0.58729 0.02022 0.15415 0.0
C906 C 0.5468 0.0186 1.0999 0.0
C907 C 0.52121 0.98926 1.08924 0.0
C908 C 0.5118 0.9828 1.04409 0.0
C909 C 0.52725 0.00618 1.01018 0.0
C910 C 0.55245 0.0376 1.01883 0.0
C911 C 0.56249 0.04304 1.06566 0.0
H912 H 0.594 0.51656 0.50722 0.0
H913 H 0.53025 0.52292 0.59982 0.0
H914 H 0.51174 0.544 0.53989 0.0
H915 H 0.61118 0.58693 0.43901 0.0
H916 H 0.61123 0.56899 0.38644 0.0
H917 H 0.62181 0.55682 0.43698 0.0
H918 H 0.57984 0.49981 0.4196 0.0
H919 H 0.56744 0.51105 0.36977 0.0
H920 H 0.53956 0.48959 0.4128 0.0
H921 H 0.50024 0.56763 0.46696 0.0
H922 H 0.49012 0.58025 0.39157 0.0
H923 H 0.55776 0.55719 0.3385 0.0
C924 C 0.57605 0.52228 0.51522 0.0
C925 C 0.56407 0.51753 0.5606 0.0
C926 C 0.54033 0.52563 0.56705 0.0
C927 C 0.52945 0.53787 0.53241 0.0
C928 C 0.54126 0.54183 0.48877 0.0
C929 C 0.56389 0.53383 0.47983 0.0
C930 C 0.57137 0.53911 0.42905 0.0
C931 C 0.60596 0.56446 0.42247 0.0
C932 C 0.56417 0.50806 0.40637 0.0
C933 C 0.54924 0.55071 0.41073 0.0
C934 C 0.53276 0.55284 0.44646 0.0
C935 C 0.51224 0.56451 0.43904 0.0
C936 C 0.50669 0.57206 0.39513 0.0
C937 C 0.52219 0.56977 0.35645 0.0
C938 C 0.54456 0.55923 0.36571 0.0
H939 H 0.03176 0.53487 0.86534 0.0
H940 H 0.04753 0.62811 0.89504 0.0
H941 H 0.01834 0.62559 0.82631 0.0
H942 H 0.03622 0.541 0.74194 0.0
H943 H 0.00522 0.50075 0.73363 0.0
H944 H 0.02892 0.51225 0.7839 0.0
H945 H 0.97706 0.48857 0.8289 0.0
H946 H 0.95364 0.47953 0.77878 0.0
H947 H 0.95133 0.50421 0.82118 0.0
H948 H 0.98578 0.6126 0.74685 0.0
H949 H 0.9551 0.59093 0.67673 0.0
H950 H 0.95676 0.50462 0.69637 0.0
C951 C 0.02937 0.55505 0.85769 0.0
C952 C 0.04332 0.58216 0.88802 0.0
C953 C 0.0381 0.60703 0.87449 0.0
C954 C 0.02117 0.60576 0.83449 0.0
C955 C 0.00804 0.57908 0.80583 0.0
C956 C 0.01182 0.55397 0.81743 0.0
C957 C 0.9943 0.52747 0.78175 0.0
C958 C 0.0175 0.51984 0.75891 0.0
C959 C 0.96754 0.49816 0.8039 0.0
C960 C 0.98077 0.54145 0.74771 0.0
C961 C 0.98902 0.57144 0.76235 0.0
C962 C 0.97945 0.58903 0.73615 0.0
C963 C 0.96159 0.57629 0.6954 0.0
C964 C 0.95216 0.54544 0.67861 0.0
C965 C 0.96254 0.52813 0.70653 0.0
H966 H 0.43741 0.0267 0.40338 0.0
H967 H 0.48672 0.02171 0.28799 0.0
H968 H 0.43751 0.98182 0.25529 0.0
H969 H 0.4091 0.97658 0.43926 0.0
H970 H 0.36707 0.95259 0.44532 0.0
H971 H 0.3855 0.9947 0.44215 0.0
H972 H 0.35366 0.99484 0.37885 0.0
H973 H 0.33046 0.95248 0.38233 0.0
H974 H 0.3466 0.97092 0.32995 0.0
H975 H 0.38844 0.92612 0.24949 0.0
H976 H 0.42459 0.9121 0.28373 0.0
H977 H 0.39915 0.92931 0.41271 0.0
C978 C 0.43715 0.0179 0.37016 0.0
C979 C 0.46565 0.02734 0.34808 0.0
C980 C 0.46516 0.01477 0.30585 0.0
C981 C 0.43675 0.99284 0.28618 0.0
C982 C 0.40857 0.98161 0.3099 0.0
C983 C 0.40863 0.995 0.35114 0.0
C984 C 0.3813 0.9711 0.37773 0.0
C985 C 0.38616 0.97387 0.42906 0.0
C986 C 0.35128 0.97237 0.36639 0.0
C987 C 0.37998 0.94242 0.35649 0.0
C988 C 0.38478 0.94771 0.31031 0.0
C989 C 0.39126 0.92761 0.28526 0.0
C990 C 0.41235 0.9202 0.30463 0.0
C991 C 0.41831 0.92533 0.35059 0.0
C992 C 0.39727 0.92982 0.37685 0.0
H993 H 0.5189 0.57825 0.76247 0.0
H994 H 0.4497 0.49073 0.82086 0.0
H995 H 0.48185 0.50346 0.88773 0.0
H996 H 0.56923 0.5908 0.75006 0.0
H997 H 0.60547 0.61471 0.77984 0.0
H998 H 0.57503 0.62477 0.78088 0.0
H999 H 0.57803 0.62701 0.86477 0.0
H1000 H 0.60813 0.61643 0.86362 0.0
H1001 H 0.57375 0.59442 0.89687 0.0
H1002 H 0.52077 0.48715 0.88076 0.0
H1003 H 0.52232 0.4648 0.80888 0.0
H1004 H 0.58797 0.55766 0.76215 0.0
C1005 C 0.51117 0.56195 0.78986 0.0
C1006 C 0.48408 0.53195 0.78439 0.0
C1007 C 0.47212 0.51254 0.822 0.0
C1008 C 0.48989 0.52042 0.86107 0.0
C1009 C 0.52152 0.5441 0.85879 0.0
C1010 C 0.53067 0.56839 0.82782 0.0
C1011 C 0.566 0.58507 0.82387 0.0
C1012 C 0.57961 0.60483 0.78105 0.0
C1013 C 0.58232 0.60687 0.86473 0.0
C1014 C 0.56852 0.55577 0.82693 0.0
C1015 C 0.5459 0.5351 0.8573 0.0
C1016 C 0.53598 0.50288 0.85531 0.0
C1017 C 0.5361 0.4901 0.81379 0.0
C1018 C 0.55298 0.51019 0.77863 0.0
C1019 C 0.57296 0.54246 0.78797 0.0
H1020 H 0.94378 0.48003 0.12265 0.0
H1021 H 0.91086 0.48329 0.99072 0.0
H1022 H 0.90113 0.52443 1.01404 0.0
H1023 H 0.92909 0.56912 0.1465 0.0
H1024 H 0.95357 0.57426 0.19372 0.0
H1025 H 0.91582 0.53896 0.18685 0.0
H1026 H 0.94926 0.51022 0.2001 0.0
H1027 H 0.98433 0.54855 0.20098 0.0
H1028 H 0.98125 0.51871 0.16343 0.0
H1029 H 0.95547 0.56836 1.00109 0.0
H1030 H 0.0051 0.56958 0.98825 0.0
H1031 H 0.01723 0.56501 0.12929 0.0
C1032 C 0.93387 0.48951 1.09961 0.0
C1033 C 0.93081 0.48033 1.05439 0.0
C1034 C 0.91552 0.49084 1.02516 0.0
C1035 C 0.90907 0.514 1.03877 0.0
C1036 C 0.92464 0.53096 1.07703 0.0
C1037 C 0.92978 0.51526 1.11208 0.0
C1038 C 0.95249 0.54031 0.14424 0.0
C1039 C 0.9369 0.55658 0.1692 0.0
C1040 C 0.96775 0.52871 0.17898 0.0
C1041 C 0.97385 0.56215 1.10908 0.0
C1042 C 0.95535 0.56009 1.07198 0.0
C1043 C 0.96903 0.56831 1.02954 0.0
C1044 C 0.99654 0.56756 1.02191 0.0
C1045 C 0.01239 0.56366 1.05789 0.0
C1046 C 0.00331 0.56543 1.10154 0.0
H1047 H 0.01411 0.46955 0.42343 0.0
H1048 H 0.98617 0.42243 0.54814 0.0
H1049 H 0.98692 0.46858 0.583 0.0
H1050 H 0.06724 0.54189 0.45648 0.0
H1051 H 0.0567 0.56366 0.41964 0.0
H1052 H 0.04765 0.52448 0.40416 0.0
H1053 H 0.98757 0.50677 0.39603 0.0
H1054 H 0.99945 0.54719 0.40741 0.0
H1055 H 0.96941 0.51655 0.44069 0.0
H1056 H 0.01435 0.52591 0.60801 0.0
H1057 H 0.00398 0.56984 0.61173 0.0
H1058 H 0.01099 0.58002 0.47096 0.0
C1059 C 0.00614 0.46842 0.45728 0.0
C1060 C 0.00791 0.44782 0.48781 0.0
C1061 C 0.99068 0.44223 0.52748 0.0
C1062 C 0.99174 0.46849 0.54788 0.0
C1063 C 0.00351 0.4956 0.52207 0.0
C1064 C 0.00639 0.49459 0.47623 0.0
C1065 C 0.01711 0.52632 0.45572 0.0
C1066 C 0.04904 0.53975 0.43258 0.0
C1067 C 0.99185 0.52407 0.4231 0.0
C1068 C 0.02032 0.54514 0.49757 0.0
C1069 C 0.01668 0.52766 0.53574 0.0
C1070 C 0.01584 0.53889 0.57826 0.0
C1071 C 0.01021 0.56402 0.57998 0.0
C1072 C 0.99926 0.5703 0.54011 0.0
C1073 C 0.01456 0.57014 0.50101 0.0
H1074 H 0.40798 0.98571 0.79844 0.0
H1075 H 0.41198 0.98307 0.94088 0.0
H1076 H 0.40282 0.02652 0.94632 0.0
H1077 H 0.45034 0.02496 0.76381 0.0
H1078 H 0.45724 0.061 0.73943 0.0
H1079 H 0.41822 0.02705 0.73877 0.0
H1080 H 0.39905 0.06219 0.77265 0.0
H1081 H 0.43888 0.09495 0.77442 0.0
H1082 H 0.41549 0.08357 0.82381 0.0
H1083 H 0.45824 0.06696 0.95024 0.0
H1084 H 0.50512 0.06251 0.94096 0.0
H1085 H 0.49613 0.0643 0.79875 0.0
C1086 C 0.40829 0.99578 0.83075 0.0
C1087 C 0.4147 0.9833 0.86884 0.0
C1088 C 0.4099 0.99305 0.91067 0.0
C1089 C 0.40414 0.01793 0.91353 0.0
C1090 C 0.4147 0.03849 0.87759 0.0
C1091 C 0.4106 0.0256 0.83418 0.0
C1092 C 0.43295 0.05147 0.8037 0.0
C1093 C 0.44013 0.04036 0.75897 0.0
C1094 C 0.42089 0.07437 0.79323 0.0
C1095 C 0.45994 0.06632 0.83653 0.0
C1096 C 0.44793 0.06384 0.8794 0.0
C1097 C 0.46659 0.067 0.91692 0.0
C1098 C 0.49208 0.06241 0.91175 0.0
C1099 C 0.50134 0.05904 0.86897 0.0
C1100 C 0.4869 0.06381 0.83162 0.0
H1101 H 0.52196 0.55978 1.09397 0.0
H1102 H 0.43051 0.49695 0.14787 0.0
H1103 H 0.41756 0.46319 1.08196 0.0
H1104 H 0.49186 0.49203 0.97301 0.0
H1105 H 0.53236 0.50225 0.97188 0.0
H1106 H 0.52217 0.53261 0.96996 0.0
H1107 H 0.5694 0.53062 1.03681 0.0
H1108 H 0.55653 0.54226 1.08544 0.0
H1109 H 0.55904 0.56084 1.03334 0.0
H1110 H 0.4314 0.422 1.07414 0.0
H1111 H 0.45362 0.4199 0.14526 0.0
H1112 H 0.54479 0.49358 1.10454 0.0
C1113 C 0.49934 0.53835 1.09155 0.0
C1114 C 0.47879 0.52864 0.12822 0.0
C1115 C 0.44802 0.50325 0.12223 0.0
C1116 C 0.44025 0.48464 1.0837 0.0
C1117 C 0.46476 0.48864 1.05567 0.0
C1118 C 0.49298 0.51776 1.05516 0.0
C1119 C 0.51844 0.51261 1.0364 0.0
C1120 C 0.51592 0.5096 0.98491 0.0
C1121 C 0.55278 0.538 1.04899 0.0
C1122 C 0.50666 0.4807 1.057 0.0
C1123 C 0.4736 0.46406 1.05404 0.0
C1124 C 0.45645 0.43712 1.07971 0.0
C1125 C 0.46897 0.43667 0.12111 0.0
C1126 C 0.50036 0.45923 0.13176 0.0
C1127 C 0.52006 0.47808 1.09739 0.0
H1128 H 0.27686 0.93093 0.67635 0.0
H1129 H 0.29731 0.00783 0.76738 0.0
H1130 H 0.30273 0.04165 0.70381 0.0
H1131 H 0.33433 0.97144 0.60981 0.0
H1132 H 0.31553 0.95314 0.55757 0.0
H1133 H 0.30129 0.9317 0.6082 0.0
H1134 H 0.24555 0.92251 0.59181 0.0
H1135 H 0.25958 0.94374 0.54041 0.0
H1136 H 0.24048 0.95567 0.58069 0.0
H1137 H 0.32056 0.0706 0.63306 0.0
H1138 H 0.34921 0.0916 0.56266 0.0
H1139 H 0.31949 0.99672 0.51739 0.0
C1140 C 0.28107 0.95447 0.68276 0.0
C1141 C 0.28659 0.96684 0.72646 0.0
C1142 C 0.29247 0.99779 0.73405 0.0
C1143 C 0.29558 0.01715 0.69808 0.0
C1144 C 0.29234 0.00499 0.65497 0.0
C1145 C 0.28468 0.97408 0.64722 0.0
C1146 C 0.28869 0.96834 0.5988 0.0
C1147 C 0.31132 0.95545 0.59334 0.0
C1148 C 0.25666 0.94626 0.57662 0.0
C1149 C 0.30273 1.00144 0.5814 0.0
C1150 C 0.30345 0.02206 0.6137 0.0
C1151 C 0.3192 0.05457 0.60707 0.0
C1152 C 0.33545 0.06632 0.56712 0.0
C1153 C 0.33626 0.04558 0.535 0.0
C1154 C 0.31874 0.01282 0.54151 0.0
H1155 H 0.37911 0.29509 1.00256 0.0
H1156 H 0.30748 0.30227 1.07595 0.0
H1157 H 0.27831 0.29565 1.00619 0.0
H1158 H 0.38859 0.34484 0.92825 0.0
H1159 H 0.39523 0.32673 0.88029 0.0
H1160 H 0.40307 0.31792 0.93483 0.0
H1161 H 0.36531 0.25828 0.92007 0.0
H1162 H 0.35746 0.26695 0.86482 0.0
H1163 H 0.3254 0.24435 0.90216 0.0
H1164 H 0.26695 0.30633 0.93128 0.0
H1165 H 0.27532 0.334 0.86016 0.0
H1166 H 0.35463 0.32161 0.83285 0.0
C1167 C 0.35658 0.29391 1.00392 0.0
C1168 C 0.34558 0.29931 1.04435 0.0
C1169 C 0.31614 0.29776 1.04531 0.0
C1170 C 0.29936 0.29393 1.00574 0.0
C1171 C 0.3122 0.29137 0.96568 0.0
C1172 C 0.33999 0.29074 0.96459 0.0
C1173 C 0.35265 0.29498 0.91778 0.0
C1174 C 0.38685 0.32277 0.9152 0.0
C1175 C 0.35003 0.2643 0.90017 0.0
C1176 C 0.32982 0.30188 0.89374 0.0
C1177 C 0.30574 0.29815 0.92133 0.0
C1178 C 0.28495 0.30824 0.90884 0.0
C1179 C 0.28986 0.32398 0.86837 0.0
C1180 C 0.31565 0.32983 0.84139 0.0
C1181 C 0.33463 0.31708 0.85303 0.0
H1182 H 0.97499 0.29579 0.21101 0.0
H1183 H 0.06641 0.34464 0.14885 0.0
H1184 H 0.0883 0.32752 0.20888 0.0
H1185 H 0.99785 0.32301 0.30907 0.0
H1186 H 0.97204 0.28864 0.34097 0.0
H1187 H 0.96093 0.29259 0.28581 0.0
H1188 H 0.95484 0.23864 0.26397 0.0
H1189 H 0.96643 0.23479 0.31958 0.0
H1190 H 0.98726 0.23195 0.27224 0.0
H1191 H 0.10386 0.32188 0.28305 0.0
H1192 H 0.11198 0.33321 0.36312 0.0
H1193 H 0.01134 0.2868 0.38167 0.0
C1194 C 0.99939 0.30194 0.20948 0.0
C1195 C 0.01906 0.32165 0.17564 0.0
C1196 C 0.05081 0.32925 0.17428 0.0
C1197 C 0.06339 0.3194 0.20818 0.0
C1198 C 0.04385 0.30165 0.2429 0.0
C1199 C 0.01228 0.29259 0.24344 0.0
C1200 C 0.99795 0.28 0.28847 0.0
C1201 C 0.9813 0.29713 0.30714 0.0
C1202 C 0.97529 0.24421 0.28589 0.0
C1203 C 0.02728 0.28768 0.31484 0.0
C1204 C 0.05318 0.29832 0.2874 0.0
C1205 C 0.08371 0.31262 0.30474 0.0
C1206 C 0.08815 0.31889 0.35054 0.0
C1207 C 0.06216 0.31111 0.37826 0.0
C1208 C 0.03143 0.29281 0.36082 0.0
H1209 H 0.674 0.97202 0.71571 0.0
H1210 H 0.71572 0.07351 0.71655 0.0
H1211 H 0.73101 0.07518 0.63898 0.0
H1212 H 0.72442 0.96761 0.61363 0.0
H1213 H 0.6895 0.93261 0.59412 0.0
H1214 H 0.69738 0.93978 0.65309 0.0
H1215 H 0.64259 0.93391 0.66361 0.0
H1216 H 0.63475 0.92719 0.6053 0.0
H1217 H 0.63244 0.95883 0.63242 0.0
H1218 H 0.72128 0.06574 0.56045 0.0
H1219 H 0.6887 0.04658 0.49291 0.0
H1220 H 0.6511 0.9503 0.53588 0.0
C1221 C 0.68766 0.99465 0.6999 0.0
C1222 C 0.69316 0.02246 0.72198 0.0
C1223 C 0.71137 0.05178 0.70074 0.0
C1224 C 0.7202 0.05295 0.65627 0.0
C1225 C 0.71076 0.02467 0.63345 0.0
C1226 C 0.69553 0.99592 0.65494 0.0
C1227 C 0.68075 0.96877 0.62167 0.0
C1228 C 0.69912 0.95116 0.62056 0.0
C1229 C 0.64558 0.94593 0.63132 0.0
C1230 C 0.68543 0.98678 0.579 0.0
C1231 C 0.70454 0.01894 0.58603 0.0
C1232 C 0.70733 0.04063 0.55404 0.0
C1233 C 0.68861 0.02949 0.51553 0.0
C1234 C 0.66714 0.99689 0.50942 0.0
C1235 C 0.66731 0.97533 0.54001 0.0
H1236 H 0.69669 0.64458 1.07397 0.0
H1237 H 0.69328 0.73005 1.05591 0.0
H1238 H 0.72102 0.73918 0.98479 0.0
H1239 H 0.77341 0.67058 1.00294 0.0
H1240 H 0.7561 0.63073 0.98196 0.0
H1241 H 0.749 0.63796 1.03853 0.0
H1242 H 0.68897 0.60477 1.02356 0.0
H1243 H 0.69578 0.59773 0.9674 0.0
H1244 H 0.67206 0.61541 0.97829 0.0
H1245 H 0.73002 0.72923 0.90832 0.0
H1246 H 0.72017 0.70172 0.83599 0.0
H1247 H 0.71951 0.62304 0.90078 0.0
C1248 C 0.70326 0.66596 1.05583 0.0
C1249 C 0.69293 0.68655 1.07001 0.0
C1250 C 0.70141 0.7142 1.04575 0.0
C1251 C 0.71727 0.71959 1.00531 0.0
C1252 C 0.72486 0.69737 0.99012 0.0
C1253 C 0.71881 0.67139 1.01527 0.0
C1254 C 0.72285 0.64764 0.98816 0.0
C1255 C 0.75209 0.64669 1.00383 0.0
C1256 C 0.69315 0.6145 0.98941 0.0
C1257 C 0.72793 0.66225 0.94263 0.0
C1258 C 0.73051 0.69163 0.94468 0.0
C1259 C 0.72933 0.7069 0.90631 0.0
C1260 C 0.72369 0.6911 0.86528 0.0
C1261 C 0.71901 0.66028 0.8632 0.0
C1262 C 0.72317 0.64669 0.90183 0.0
H1263 H 0.07458 0.71565 0.24572 0.0
H1264 H 0.00996 0.71205 0.14443 0.0
H1265 H 0.97496 0.7121 0.2028 0.0
H1266 H 0.02204 0.66108 0.30875 0.0
H1267 H 0.03921 0.67781 0.3624 0.0
H1268 H 0.06371 0.68837 0.31435 0.0
H1269 H 0.08341 0.7475 0.32963 0.0
H1270 H 0.05881 0.73703 0.37817 0.0
H1271 H 0.05539 0.76062 0.33529 0.0
H1272 H 0.94102 0.69766 0.26931 0.0
H1273 H 0.91195 0.66983 0.33686 0.0
H1274 H 0.99815 0.68293 0.39558 0.0
C1275 C 0.05365 0.71616 0.23601 0.0
C1276 C 0.04497 0.71396 0.1908 0.0
C1277 C 0.0173 0.71429 0.17897 0.0
C1278 C 0.99728 0.71435 0.21196 0.0
C1279 C 0.00557 0.71463 0.2565 0.0
C1280 C 0.03347 0.7161 0.26854 0.0
C1281 C 0.03454 0.71052 0.31778 0.0
C1282 C 0.04016 0.6828 0.32625 0.0
C1283 C 0.05952 0.74072 0.34162 0.0
C1284 C 0.00176 0.70263 0.33072 0.0
C1285 C 0.98573 0.70625 0.29542 0.0
C1286 C 0.9536 0.69578 0.29764 0.0
C1287 C 0.93724 0.68002 0.33605 0.0
C1288 C 0.95307 0.67461 0.3711 0.0
C1289 C 0.98585 0.6874 0.36924 0.0
H1290 H 0.51214 0.12497 0.54488 0.0
H1291 H 0.57907 0.10471 0.48161 0.0
H1292 H 0.59893 0.10116 0.55503 0.0
H1293 H 0.56631 0.17361 0.63777 0.0
H1294 H 0.53656 0.15973 0.68009 0.0
H1295 H 0.526 0.1602 0.62261 0.0
H1296 H 0.4849 0.10092 0.62594 0.0
H1297 H 0.49532 0.10058 0.68351 0.0
H1298 H 0.4969 0.07363 0.64399 0.0
H1299 H 0.61253 0.09769 0.63902 0.0
H1300 H 0.61919 0.09748 0.72039 0.0
H1301 H 0.5474 0.1227 0.73863 0.0
C1302 C 0.53098 0.11974 0.54604 0.0
C1303 C 0.54337 0.11514 0.50418 0.0
C1304 C 0.56832 0.10856 0.51049 0.0
C1305 C 0.58008 0.10638 0.5532 0.0
C1306 C 0.5677 0.111 0.59276 0.0
C1307 C 0.54371 0.11782 0.58976 0.0
C1308 C 0.53548 0.12238 0.63861 0.0
C1309 C 0.54142 0.15598 0.64516 0.0
C1310 C 0.50109 0.09793 0.64859 0.0
C1311 C 0.55825 0.11699 0.66903 0.0
C1312 C 0.57638 0.11019 0.64121 0.0
C1313 C 0.59839 0.10335 0.66041 0.0
C1314 C 0.60215 0.10333 0.7078 0.0
C1315 C 0.58476 0.11059 0.73886 0.0
C1316 C 0.56218 0.11762 0.71776 0.0
H1317 H 0.4741 0.58696 0.84258 0.0
H1318 H 0.38299 0.50258 0.85671 0.0
H1319 H 0.38839 0.50915 0.93855 0.0
H1320 H 0.51094 0.5721 0.93988 0.0
H1321 H 0.53413 0.61262 0.95794 0.0
H1322 H 0.52344 0.60338 0.90001 0.0
H1323 H 0.4982 0.63782 0.8995 0.0
H1324 H 0.50901 0.64786 0.95731 0.0
H1325 H 0.46856 0.63112 0.93992 0.0
H1326 H 0.40253 0.52616 1.02317 0.0
H1327 H 0.42457 0.54756 1.09712 0.0
H1328 H 0.51056 0.61948 1.03642 0.0
C1329 C 0.45497 0.56985 0.86263 0.0
C1330 C 0.42738 0.54409 0.84047 0.0
C1331 C 0.40408 0.5226 0.87032 0.0
C1332 C 0.40708 0.52623 0.91786 0.0
C1333 C 0.43407 0.55147 0.93808 0.0
C1334 C 0.45794 0.57283 0.91125 0.0
C1335 C 0.48496 0.59725 0.94242 0.0
C1336 C 0.51519 0.59628 0.9346 0.0
C1337 C 0.49053 0.6305 0.93429 0.0
C1338 C 0.47275 0.58647 0.99061 0.0
C1339 C 0.44296 0.56017 0.98672 0.0
C1340 C 0.42596 0.54654 1.02567 0.0
C1341 C 0.43904 0.55931 1.06862 0.0
C1342 C 0.47 0.58575 1.07568 0.0
C1343 C 0.487 0.5993 1.03455 0.0
H1344 H 0.86548 0.44369 0.16568 0.0
H1345 H 0.92724 0.40536 0.18171 0.0
H1346 H 0.93419 0.42042 0.26058 0.0
H1347 H 0.90596 0.51071 0.2495 0.0
H1348 H 0.8698 0.50617 0.27052 0.0
H1349 H 0.87105 0.49375 0.21422 0.0
H1350 H 0.82429 0.43872 0.23441 0.0
H1351 H 0.82529 0.45165 0.29113 0.0
H1352 H 0.82888 0.41755 0.27983 0.0
H1353 H 0.93573 0.4397 0.34316 0.0
H1354 H 0.93147 0.46007 0.41577 0.0
H1355 H 0.86953 0.48925 0.35778 0.0
C1356 C 0.88041 0.43813 0.18547 0.0
C1357 C 0.89557 0.42231 0.16372 0.0
C1358 C 0.91474 0.41669 0.19404 0.0
C1359 C 0.91908 0.42548 0.24034 0.0
C1360 C 0.90417 0.44053 0.26006 0.0
C1361 C 0.8849 0.44674 0.23362 0.0
C1362 C 0.87115 0.4625 0.2653 0.0
C1363 C 0.87998 0.49526 0.24874 0.0
C1364 C 0.83526 0.44137 0.2678 0.0
C1365 C 0.88656 0.46534 0.31235 0.0
C1366 C 0.9052 0.45186 0.30791 0.0
C1367 C 0.92128 0.45044 0.34586 0.0
C1368 C 0.91873 0.46264 0.38822 0.0
C1369 C 0.90084 0.47789 0.39595 0.0
C1370 C 0.88428 0.47883 0.35565 0.0
H1371 H 0.40309 0.87002 0.51155 0.0
H1372 H 0.50199 0.9006 0.52751 0.0
H1373 H 0.49723 0.90399 0.60861 0.0
H1374 H 0.40197 0.92206 0.60162 0.0
H1375 H 0.36339 0.89425 0.62182 0.0
H1376 H 0.37309 0.89262 0.56437 0.0
H1377 H 0.35757 0.83447 0.57339 0.0
H1378 H 0.3478 0.83594 0.63086 0.0
H1379 H 0.37572 0.82385 0.61688 0.0
H1380 H 0.4827 0.90408 0.69183 0.0
H1381 H 0.46152 0.90312 0.7655 0.0
H1382 H 0.37056 0.87519 0.70581 0.0
C1383 C 0.42382 0.87709 0.53191 0.0
C1384 C 0.45331 0.88452 0.51027 0.0
C1385 C 0.47913 0.89434 0.54056 0.0
C1386 C 0.4766 0.89642 0.58778 0.0
C1387 C 0.44787 0.88918 0.60749 0.0
C1388 C 0.42178 0.87986 0.58049 0.0
C1389 C 0.39405 0.87454 0.61157 0.0
C1390 C 0.38241 0.8972 0.59908 0.0
C1391 C 0.36716 0.84015 0.60794 0.0
C1392 C 0.40847 0.88203 0.6598 0.0
C1393 C 0.43967 0.89023 0.65583 0.0
C1394 C 0.4583 0.89772 0.6945 0.0
C1395 C 0.44557 0.89701 0.7374 0.0
C1396 C 0.41371 0.88912 0.74484 0.0
C1397 C 0.39498 0.88154 0.7038 0.0
H1398 H 0.53982 0.42623 0.84232 0.0
H1399 H 0.63067 0.51175 0.85363 0.0
H1400 H 0.62722 0.50771 0.93561 0.0
H1401 H 0.50551 0.44482 0.94142 0.0
H1402 H 0.48239 0.40446 0.95871 0.0
H1403 H 0.49194 0.41339 0.90071 0.0
H1404 H 0.51619 0.37746 0.90007 0.0
H1405 H 0.50702 0.36899 0.95821 0.0
H1406 H 0.54689 0.38482 0.93959 0.0
H1407 H 0.61497 0.49374 1.02045 0.0
H1408 H 0.59511 0.47468 1.09504 0.0
H1409 H 0.50864 0.39887 1.03734 0.0
C1410 C 0.55931 0.44411 0.86178 0.0
C1411 C 0.5862 0.46937 0.83876 0.0
C1412 C 0.61005 0.49197 0.86787 0.0
C1413 C 0.60817 0.48984 0.91549 0.0
C1414 C 0.5818 0.46506 0.93652 0.0
C1415 C 0.55743 0.44269 0.91046 0.0
C1416 C 0.53117 0.41921 0.94242 0.0
C1417 C 0.50094 0.42052 0.93536 0.0
C1418 C 0.52493 0.38561 0.93459 0.0
C1419 C 0.54477 0.43118 0.99025 0.0
C1420 C 0.57417 0.45775 0.98539 0.0
C1421 C 0.59192 0.47301 1.02374 0.0
C1422 C 0.58009 0.46154 1.06713 0.0
C1423 C 0.54982 0.43453 1.07526 0.0
C1424 C 0.53192 0.41934 1.03468 0.0
H1425 H 0.08903 0.47588 0.34949 0.0
H1426 H 0.12951 0.56603 0.41879 0.0
H1427 H 0.13383 0.59223 0.34826 0.0
H1428 H 0.13799 0.50768 0.2464 0.0
H1429 H 0.10688 0.48295 0.20782 0.0
H1430 H 0.10662 0.46973 0.26379 0.0
H1431 H 0.05117 0.46144 0.27519 0.0
H1432 H 0.05131 0.47469 0.21929 0.0
H1433 H 0.04435 0.4937 0.26581 0.0
H1434 H 0.13353 0.61175 0.26666 0.0
H1435 H 0.12966 0.62067 0.18657 0.0
H1436 H 0.0908 0.52084 0.16089 0.0
C1437 C 0.09927 0.50121 0.35022 0.0
C1438 C 0.10901 0.51799 0.39309 0.0
C1439 C 0.12157 0.55131 0.3891 0.0
C1440 C 0.12423 0.56698 0.34804 0.0
C1441 C 0.11443 0.55018 0.30756 0.0
C1442 C 0.10224 0.51785 0.30805 0.0
C1443 C 0.09343 0.50599 0.25863 0.0
C1444 C 0.11234 0.49065 0.24324 0.0
C1445 C 0.05795 0.48253 0.25448 0.0
C1446 C 0.10263 0.53633 0.23094 0.0
C1447 C 0.11459 0.56151 0.26047 0.0
C1448 C 0.12427 0.59186 0.24382 0.0
C1449 C 0.12197 0.59688 0.19718 0.0
C1450 C 0.11017 0.57217 0.1645 0.0
C1451 C 0.10032 0.54109 0.18308 0.0
loop_
_geom_bond_atom_site_label_1
_geom_bond_atom_site_label_2
_geom_bond_distance
_geom_bond_site_symmetry_2
_ccdc_geom_bond_type
Dy0 O3 2.307 . S
Dy0 O5 2.395 . S
Dy0 O6 2.379 . S
Dy0 O8 2.339 . S
Dy0 O10 2.298 . S
Dy0 O14 2.275 . S
Dy0 C22 2.738 . S
Dy1 O4 2.298 . S
Dy1 O7 2.275 . S
Dy1 O9 2.307 . S
Dy1 O11 2.395 . S
Dy1 O12 2.379 . S
Dy1 O15 2.339 . S
Dy1 C31 2.738 . S
C2 O14 1.254 . S
C2 O15 1.257 . S
O3 Dy0 2.307 . S
O3 C13 1.266 . S
O4 Dy1 2.298 . S
O4 C13 1.236 . S
O5 Dy0 2.395 . S
O5 C22 1.255 . S
O6 Dy0 2.379 . S
O6 C22 1.249 . S
O7 Dy1 2.275 . S
O7 C23 1.254 . S
O8 Dy0 2.339 . S
O8 C23 1.257 . S
O9 Dy1 2.307 . S
O9 C24 1.266 . S
O10 Dy0 2.298 . S
O10 C24 1.236 . S
O11 Dy1 2.395 . S
O11 C31 1.255 . S
O12 Dy1 2.379 . S
O12 C31 1.249 . S
C13 O3 1.266 . S
C13 O4 1.236 . S
O14 Dy0 2.275 . S
O14 C2 1.254 . S
O15 Dy1 2.339 . S
O15 C2 1.257 . S
C16 C19 1.344 . S
C16 C20 1.328 . S
C16 C22 1.516 . S
C17 C18 1.304 . S
C17 C21 1.323 . S
C18 C17 1.304 . S
C18 C19 1.371 . S
C18 H32 0.930 . S
C19 C16 1.344 . S
C19 C18 1.371 . S
C19 H33 0.931 . S
C20 C16 1.328 . S
C20 C21 1.433 . S
C20 H34 0.931 . S
C21 C17 1.323 . S
C21 C20 1.433 . S
C21 H35 0.933 . S
C22 Dy0 2.738 . S
C22 O5 1.255 . S
C22 O6 1.249 . S
C22 C16 1.516 . S
C23 O7 1.254 . S
C23 O8 1.257 . S
C24 O9 1.266 . S
C24 O10 1.236 . S
C25 C28 1.344 . S
C25 C29 1.328 . S
C25 C31 1.516 . S
C26 C27 1.304 . S
C26 C30 1.323 . S
C27 C26 1.304 . S
C27 C28 1.371 . S
C27 H36 0.930 . S
C28 C25 1.344 . S
C28 C27 1.371 . S
C28 H37 0.931 . S
C29 C25 1.328 . S
C29 C30 1.433 . S
C29 H38 0.931 . S
C30 C26 1.323 . S
C30 C29 1.433 . S
C30 H39 0.933 . S
C31 Dy1 2.738 . S
C31 O11 1.255 . S
C31 O12 1.249 . S
C31 C25 1.516 . S
H32 C18 0.930 . S
H33 C19 0.931 . S
H34 C20 0.931 . S
H35 C21 0.933 . S
H36 C27 0.930 . S
H37 C28 0.931 . S
H38 C29 0.931 . S
H39 C30 0.933 . S
Dy40 O43 2.307 . S
Dy40 O45 2.395 . S
Dy40 O46 2.379 . S
Dy40 O48 2.339 . S
Dy40 O50 2.298 . S
Dy40 O54 2.275 . S
Dy40 C62 2.738 . S
Dy41 O44 2.298 . S
Dy41 O47 2.275 . S
Dy41 O49 2.307 . S
Dy41 O51 2.395 . S
Dy41 O52 2.379 . S
Dy41 O55 2.339 . S
Dy41 C71 2.738 . S
C42 O54 1.254 . S
C42 O55 1.257 . S
O43 Dy40 2.307 . S
O43 C53 1.266 . S
O44 Dy41 2.298 . S
O44 C53 1.236 . S
O45 Dy40 2.395 . S
O45 C62 1.255 . S
O46 Dy40 2.379 . S
O46 C62 1.249 . S
O47 Dy41 2.275 . S
O47 C63 1.254 . S
O48 Dy40 2.339 . S
O48 C63 1.257 . S
O49 Dy41 2.307 . S
O49 C64 1.266 . S
O50 Dy40 2.298 . S
O50 C64 1.236 . S
O51 Dy41 2.395 . S
O51 C71 1.255 . S
O52 Dy41 2.379 . S
O52 C71 1.249 . S
C53 O43 1.266 . S
C53 O44 1.236 . S
O54 Dy40 2.275 . S
O54 C42 1.254 . S
O55 Dy41 2.339 . S
O55 C42 1.257 . S
C56 C59 1.344 . S
C56 C60 1.328 . S
C56 C62 1.516 . S
C57 C58 1.304 . S
C57 C61 1.323 . S
C58 C57 1.304 . S
C58 C59 1.371 . S
C58 H72 0.930 . S
C59 C56 1.344 . S
C59 C58 1.371 . S
C59 H73 0.931 . S
C60 C56 1.328 . S
C60 C61 1.433 . S
C60 H74 0.931 . S
C61 C57 1.323 . S
C61 C60 1.433 . S
C61 H75 0.933 . S
C62 Dy40 2.738 . S
C62 O45 1.255 . S
C62 O46 1.249 . S
C62 C56 1.516 . S
C63 O47 1.254 . S
C63 O48 1.257 . S
C64 O49 1.266 . S
C64 O50 1.236 . S
C65 C68 1.344 . S
C65 C69 1.328 . S
C65 C71 1.516 . S
C66 C67 1.304 . S
C66 C70 1.323 . S
C67 C66 1.304 . S
C67 C68 1.371 . S
C67 H76 0.930 . S
C68 C65 1.344 . S
C68 C67 1.371 . S
C68 H77 0.931 . S
C69 C65 1.328 . S
C69 C70 1.433 . S
C69 H78 0.931 . S
C70 C66 1.323 . S
C70 C69 1.433 . S
C70 H79 0.933 . S
C71 Dy41 2.738 . S
C71 O51 1.255 . S
C71 O52 1.249 . S
C71 C65 1.516 . S
H72 C58 0.930 . S
H73 C59 0.931 . S
H74 C60 0.931 . S
H75 C61 0.933 . S
H76 C67 0.930 . S
H77 C68 0.931 . S
H78 C69 0.931 . S
H79 C70 0.933 . S
Dy80 O83 2.307 . S
Dy80 O85 2.395 . S
Dy80 O86 2.379 . S
Dy80 O88 2.339 . S
Dy80 O90 2.298 . S
Dy80 O94 2.275 . S
Dy80 C102 2.738 . S
Dy81 O84 2.298 . S
Dy81 O87 2.275 . S
Dy81 O89 2.307 . S
Dy81 O91 2.395 . S
Dy81 O92 2.379 . S
Dy81 O95 2.339 . S
Dy81 C111 2.738 1_556 S
C82 O94 1.254 . S
C82 O95 1.257 . S
O83 Dy80 2.307 . S
O83 C93 1.266 . S
O84 Dy81 2.298 . S
O84 C93 1.236 . S
O85 Dy80 2.395 . S
O85 C102 1.255 . S
O86 Dy80 2.379 . S
O86 C102 1.249 . S
O87 Dy81 2.275 . S
O87 C103 1.254 . S
O88 Dy80 2.339 . S
O88 C103 1.257 . S
O89 Dy81 2.307 . S
O89 C104 1.266 . S
O90 Dy80 2.298 . S
O90 C104 1.236 . S
O91 Dy81 2.395 . S
O91 C111 1.255 1_556 S
O92 Dy81 2.379 . S
O92 C111 1.249 1_556 S
C93 O83 1.266 . S
C93 O84 1.236 . S
O94 Dy80 2.275 . S
O94 C82 1.254 . S
O95 Dy81 2.339 . S
O95 C82 1.257 . S
C96 C99 1.344 . S
C96 C100 1.328 . S
C96 C102 1.516 . S
C97 C98 1.304 . S
C97 C101 1.323 . S
C98 C97 1.304 . S
C98 C99 1.371 . S
C98 H112 0.930 . S
C99 C96 1.344 . S
C99 C98 1.371 . S
C99 H113 0.931 . S
C100 C96 1.328 . S
C100 C101 1.433 . S
C100 H114 0.931 . S
C101 C97 1.323 . S
C101 C100 1.433 . S
C101 H115 0.933 . S
C102 Dy80 2.738 . S
C102 O85 1.255 . S
C102 O86 1.249 . S
C102 C96 1.516 . S
C103 O87 1.254 . S
C103 O88 1.257 . S
C104 O89 1.266 . S
C104 O90 1.236 . S
C105 C108 1.344 . S
C105 C109 1.328 . S
C105 C111 1.516 . S
C106 C107 1.304 . S
C106 C110 1.323 . S
C107 C106 1.304 . S
C107 C108 1.371 . S
C107 H116 0.930 . S
C108 C105 1.344 . S
C108 C107 1.371 . S
C108 H117 0.931 . S
C109 C105 1.328 . S
C109 C110 1.433 . S
C109 H118 0.931 . S
C110 C106 1.323 . S
C110 C109 1.433 . S
C110 H119 0.933 . S
C111 Dy81 2.738 1_554 S
C111 O91 1.255 1_554 S
C111 O92 1.249 1_554 S
C111 C105 1.516 . S
H112 C98 0.930 . S
H113 C99 0.931 . S
H114 C100 0.931 . S
H115 C101 0.933 . S
H116 C107 0.930 . S
H117 C108 0.931 . S
H118 C109 0.931 . S
H119 C110 0.933 . S
Dy120 O123 2.307 . S
Dy120 O125 2.395 . S
Dy120 O126 2.379 . S
Dy120 O128 2.339 . S
Dy120 O130 2.298 . S
Dy120 O134 2.275 . S
Dy120 C142 2.738 . S
Dy121 O124 2.298 . S
Dy121 O127 2.275 . S
Dy121 O129 2.307 . S
Dy121 O131 2.395 . S
Dy121 O132 2.379 . S
Dy121 O135 2.339 . S
Dy121 C151 2.738 . S
C122 O134 1.254 . S
C122 O135 1.257 . S
O123 Dy120 2.307 . S
O123 C133 1.266 . S
O124 Dy121 2.298 . S
O124 C133 1.236 . S
O125 Dy120 2.395 . S
O125 C142 1.255 . S
O126 Dy120 2.379 . S
O126 C142 1.249 . S
O127 Dy121 2.275 . S
O127 C143 1.254 . S
O128 Dy120 2.339 . S
O128 C143 1.257 . S
O129 Dy121 2.307 . S
O129 C144 1.266 . S
O130 Dy120 2.298 . S
O130 C144 1.236 . S
O131 Dy121 2.395 . S
O131 C151 1.255 . S
O132 Dy121 2.379 . S
O132 C151 1.249 . S
C133 O123 1.266 . S
C133 O124 1.236 . S
O134 Dy120 2.275 . S
O134 C122 1.254 . S
O135 Dy121 2.339 . S
O135 C122 1.257 . S
C136 C139 1.344 . S
C136 C140 1.328 . S
C136 C142 1.516 . S
C137 C138 1.304 . S
C137 C141 1.323 . S
C138 C137 1.304 . S
C138 C139 1.371 . S
C138 H152 0.930 . S
C139 C136 1.344 . S
C139 C138 1.371 . S
C139 H153 0.931 . S
C140 C136 1.328 . S
C140 C141 1.433 . S
C140 H154 0.931 . S
C141 C137 1.323 . S
C141 C140 1.433 . S
C141 H155 0.933 . S
C142 Dy120 2.738 . S
C142 O125 1.255 . S
C142 O126 1.249 . S
C142 C136 1.516 . S
C143 O127 1.254 . S
C143 O128 1.257 . S
C144 O129 1.266 . S
C144 O130 1.236 . S
C145 C148 1.344 . S
C145 C149 1.328 . S
C145 C151 1.516 . S
C146 C147 1.304 . S
C146 C150 1.323 . S
C147 C146 1.304 . S
C147 C148 1.371 . S
C147 H156 0.930 . S
C148 C145 1.344 . S
C148 C147 1.371 . S
C148 H157 0.931 . S
C149 C145 1.328 . S
C149 C150 1.433 . S
C149 H158 0.931 . S
C150 C146 1.323 . S
C150 C149 1.433 . S
C150 H159 0.933 . S
C151 Dy121 2.738 . S
C151 O131 1.255 . S
C151 O132 1.249 . S
C151 C145 1.516 . S
H152 C138 0.930 . S
H153 C139 0.931 . S
H154 C140 0.931 . S
H155 C141 0.933 . S
H156 C147 0.930 . S
H157 C148 0.931 . S
H158 C149 0.931 . S
H159 C150 0.933 . S
Dy160 O163 2.307 . S
Dy160 O165 2.395 . S
Dy160 O166 2.379 . S
Dy160 O168 2.339 . S
Dy160 O170 2.298 . S
Dy160 O174 2.275 . S
Dy160 C182 2.738 . S
Dy161 O164 2.298 . S
Dy161 O167 2.275 . S
Dy161 O169 2.307 . S
Dy161 O171 2.395 . S
Dy161 O172 2.379 . S
Dy161 O175 2.339 . S
Dy161 C191 2.738 . S
C162 O174 1.254 . S
C162 O175 1.257 . S
O163 Dy160 2.307 . S
O163 C173 1.266 . S
O164 Dy161 2.298 . S
O164 C173 1.236 . S
O165 Dy160 2.395 . S
O165 C182 1.255 . S
O166 Dy160 2.379 . S
O166 C182 1.249 . S
O167 Dy161 2.275 . S
O167 C183 1.254 . S
O168 Dy160 2.339 . S
O168 C183 1.257 . S
O169 Dy161 2.307 . S
O169 C184 1.266 . S
O170 Dy160 2.298 . S
O170 C184 1.236 . S
O171 Dy161 2.395 . S
O171 C191 1.255 . S
O172 Dy161 2.379 . S
O172 C191 1.249 . S
C173 O163 1.266 . S
C173 O164 1.236 . S
O174 Dy160 2.275 . S
O174 C162 1.254 . S
O175 Dy161 2.339 . S
O175 C162 1.257 . S
C176 C179 1.344 . S
C176 C180 1.328 . S
C176 C182 1.516 . S
C177 C178 1.304 . S
C177 C181 1.323 . S
C178 C177 1.304 . S
C178 C179 1.371 . S
C178 H192 0.930 . S
C179 C176 1.344 . S
C179 C178 1.371 . S
C179 H193 0.931 . S
C180 C176 1.328 . S
C180 C181 1.433 . S
C180 H194 0.931 . S
C181 C177 1.323 . S
C181 C180 1.433 . S
C181 H195 0.933 . S
C182 Dy160 2.738 . S
C182 O165 1.255 . S
C182 O166 1.249 . S
C182 C176 1.516 . S
C183 O167 1.254 . S
C183 O168 1.257 . S
C184 O169 1.266 . S
C184 O170 1.236 . S
C185 C188 1.344 . S
C185 C189 1.328 . S
C185 C191 1.516 . S
C186 C187 1.304 . S
C186 C190 1.323 . S
C187 C186 1.304 . S
C187 C188 1.371 . S
C187 H196 0.930 . S
C188 C185 1.344 . S
C188 C187 1.371 . S
C188 H197 0.931 . S
C189 C185 1.328 . S
C189 C190 1.433 . S
C189 H198 0.931 . S
C190 C186 1.323 . S
C190 C189 1.433 . S
C190 H199 0.933 . S
C191 Dy161 2.738 . S
C191 O171 1.255 . S
C191 O172 1.249 . S
C191 C185 1.516 . S
H192 C178 0.930 . S
H193 C179 0.931 . S
H194 C180 0.931 . S
H195 C181 0.933 . S
H196 C187 0.930 . S
H197 C188 0.931 . S
H198 C189 0.931 . S
H199 C190 0.933 . S
Dy200 O203 2.307 . S
Dy200 O205 2.395 . S
Dy200 O206 2.379 . S
Dy200 O208 2.339 . S
Dy200 O210 2.298 . S
Dy200 O214 2.275 . S
Dy200 C222 2.738 . S
Dy201 O204 2.298 . S
Dy201 O207 2.275 . S
Dy201 O209 2.307 . S
Dy201 O211 2.395 . S
Dy201 O212 2.379 . S
Dy201 O215 2.339 . S
Dy201 C231 2.738 1_556 S
C202 O214 1.254 . S
C202 O215 1.257 . S
O203 Dy200 2.307 . S
O203 C213 1.266 . S
O204 Dy201 2.298 . S
O204 C213 1.236 . S
O205 Dy200 2.395 . S
O205 C222 1.255 . S
O206 Dy200 2.379 . S
O206 C222 1.249 . S
O207 Dy201 2.275 . S
O207 C223 1.254 . S
O208 Dy200 2.339 . S
O208 C223 1.257 . S
O209 Dy201 2.307 . S
O209 C224 1.266 . S
O210 Dy200 2.298 . S
O210 C224 1.236 . S
O211 Dy201 2.395 . S
O211 C231 1.255 1_556 S
O212 Dy201 2.379 . S
O212 C231 1.249 1_556 S
C213 O203 1.266 . S
C213 O204 1.236 . S
O214 Dy200 2.275 . S
O214 C202 1.254 . S
O215 Dy201 2.339 . S
O215 C202 1.257 . S
C216 C219 1.344 . S
C216 C220 1.328 . S
C216 C222 1.516 . S
C217 C218 1.304 . S
C217 C221 1.323 . S
C218 C217 1.304 . S
C218 C219 1.371 . S
C218 H232 0.930 . S
C219 C216 1.344 . S
C219 C218 1.371 . S
C219 H233 0.931 . S
C220 C216 1.328 . S
C220 C221 1.433 . S
C220 H234 0.931 . S
C221 C217 1.323 . S
C221 C220 1.433 . S
C221 H235 0.933 . S
C222 Dy200 2.738 . S
C222 O205 1.255 . S
C222 O206 1.249 . S
C222 C216 1.516 . S
C223 O207 1.254 . S
C223 O208 1.257 . S
C224 O209 1.266 . S
C224 O210 1.236 . S
C225 C228 1.344 . S
C225 C229 1.328 . S
C225 C231 1.516 . S
C226 C227 1.304 . S
C226 C230 1.323 . S
C227 C226 1.304 . S
C227 C228 1.371 . S
C227 H236 0.930 . S
C228 C225 1.344 . S
C228 C227 1.371 . S
C228 H237 0.931 . S
C229 C225 1.328 . S
C229 C230 1.433 . S
C229 H238 0.931 . S
C230 C226 1.323 . S
C230 C229 1.433 . S
C230 H239 0.933 . S
C231 Dy201 2.738 1_554 S
C231 O211 1.255 1_554 S
C231 O212 1.249 1_554 S
C231 C225 1.516 . S
H232 C218 0.930 . S
H233 C219 0.931 . S
H234 C220 0.931 . S
H235 C221 0.933 . S
H236 C227 0.930 . S
H237 C228 0.931 . S
H238 C229 0.931 . S
H239 C230 0.933 . S
Dy240 O243 2.307 . S
Dy240 O245 2.395 . S
Dy240 O246 2.379 . S
Dy240 O248 2.339 . S
Dy240 O250 2.298 . S
Dy240 O254 2.275 . S
Dy240 C262 2.738 . S
Dy241 O244 2.298 . S
Dy241 O247 2.275 . S
Dy241 O249 2.307 . S
Dy241 O251 2.395 . S
Dy241 O252 2.379 . S
Dy241 O255 2.339 . S
Dy241 C271 2.738 . S
C242 O254 1.254 . S
C242 O255 1.257 . S
O243 Dy240 2.307 . S
O243 C253 1.266 . S
O244 Dy241 2.298 . S
O244 C253 1.236 . S
O245 Dy240 2.395 . S
O245 C262 1.255 . S
O246 Dy240 2.379 . S
O246 C262 1.249 . S
O247 Dy241 2.275 . S
O247 C263 1.254 . S
O248 Dy240 2.339 . S
O248 C263 1.257 . S
O249 Dy241 2.307 . S
O249 C264 1.266 . S
O250 Dy240 2.298 . S
O250 C264 1.236 . S
O251 Dy241 2.395 . S
O251 C271 1.255 . S
O252 Dy241 2.379 . S
O252 C271 1.249 . S
C253 O243 1.266 . S
C253 O244 1.236 . S
O254 Dy240 2.275 . S
O254 C242 1.254 . S
O255 Dy241 2.339 . S
O255 C242 1.257 . S
C256 C259 1.344 . S
C256 C260 1.328 . S
C256 C262 1.516 . S
C257 C258 1.304 . S
C257 C261 1.323 . S
C258 C257 1.304 . S
C258 C259 1.371 . S
C258 H272 0.930 . S
C259 C256 1.344 . S
C259 C258 1.371 . S
C259 H273 0.931 . S
C260 C256 1.328 . S
C260 C261 1.433 . S
C260 H274 0.931 . S
C261 C257 1.323 . S
C261 C260 1.433 . S
C261 H275 0.933 . S
C262 Dy240 2.738 . S
C262 O245 1.255 . S
C262 O246 1.249 . S
C262 C256 1.516 . S
C263 O247 1.254 . S
C263 O248 1.257 . S
C264 O249 1.266 . S
C264 O250 1.236 . S
C265 C268 1.344 . S
C265 C269 1.328 . S
C265 C271 1.516 . S
C266 C267 1.304 . S
C266 C270 1.323 . S
C267 C266 1.304 . S
C267 C268 1.371 . S
C267 H276 0.930 . S
C268 C265 1.344 . S
C268 C267 1.371 . S
C268 H277 0.931 . S
C269 C265 1.328 . S
C269 C270 1.433 . S
C269 H278 0.931 . S
C270 C266 1.323 . S
C270 C269 1.433 . S
C270 H279 0.933 . S
C271 Dy241 2.738 . S
C271 O251 1.255 . S
C271 O252 1.249 . S
C271 C265 1.516 . S
H272 C258 0.930 . S
H273 C259 0.931 . S
H274 C260 0.931 . S
H275 C261 0.933 . S
H276 C267 0.930 . S
H277 C268 0.931 . S
H278 C269 0.931 . S
H279 C270 0.933 . S
Dy280 O283 2.307 . S
Dy280 O285 2.395 . S
Dy280 O286 2.379 . S
Dy280 O288 2.339 . S
Dy280 O290 2.298 . S
Dy280 O294 2.275 . S
Dy280 C302 2.738 . S
Dy281 O284 2.298 . S
Dy281 O287 2.275 . S
Dy281 O289 2.307 . S
Dy281 O291 2.395 . S
Dy281 O292 2.379 . S
Dy281 O295 2.339 . S
Dy281 C311 2.738 . S
C282 O294 1.254 . S
C282 O295 1.257 . S
O283 Dy280 2.307 . S
O283 C293 1.266 . S
O284 Dy281 2.298 . S
O284 C293 1.236 . S
O285 Dy280 2.395 . S
O285 C302 1.255 . S
O286 Dy280 2.379 . S
O286 C302 1.249 . S
O287 Dy281 2.275 . S
O287 C303 1.254 . S
O288 Dy280 2.339 . S
O288 C303 1.257 . S
O289 Dy281 2.307 . S
O289 C304 1.266 . S
O290 Dy280 2.298 . S
O290 C304 1.236 . S
O291 Dy281 2.395 . S
O291 C311 1.255 . S
O292 Dy281 2.379 . S
O292 C311 1.249 . S
C293 O283 1.266 . S
C293 O284 1.236 . S
O294 Dy280 2.275 . S
O294 C282 1.254 . S
O295 Dy281 2.339 . S
O295 C282 1.257 . S
C296 C299 1.344 . S
C296 C300 1.328 . S
C296 C302 1.516 . S
C297 C298 1.304 . S
C297 C301 1.323 . S
C298 C297 1.304 . S
C298 C299 1.371 . S
C298 H312 0.930 . S
C299 C296 1.344 . S
C299 C298 1.371 . S
C299 H313 0.931 . S
C300 C296 1.328 . S
C300 C301 1.433 . S
C300 H314 0.931 . S
C301 C297 1.323 . S
C301 C300 1.433 . S
C301 H315 0.933 . S
C302 Dy280 2.738 . S
C302 O285 1.255 . S
C302 O286 1.249 . S
C302 C296 1.516 . S
C303 O287 1.254 . S
C303 O288 1.257 . S
C304 O289 1.266 . S
C304 O290 1.236 . S
C305 C308 1.344 . S
C305 C309 1.328 . S
C305 C311 1.516 . S
C306 C307 1.304 . S
C306 C310 1.323 . S
C307 C306 1.304 . S
C307 C308 1.371 . S
C307 H316 0.930 . S
C308 C305 1.344 . S
C308 C307 1.371 . S
C308 H317 0.931 . S
C309 C305 1.328 . S
C309 C310 1.433 . S
C309 H318 0.931 . S
C310 C306 1.323 . S
C310 C309 1.433 . S
C310 H319 0.933 . S
C311 Dy281 2.738 . S
C311 O291 1.255 . S
C311 O292 1.249 . S
C311 C305 1.516 . S
H312 C298 0.930 . S
H313 C299 0.931 . S
H314 C300 0.931 . S
H315 C301 0.933 . S
H316 C307 0.930 . S
H317 C308 0.931 . S
H318 C309 0.931 . S
H319 C310 0.933 . S
Dy320 O323 2.307 . S
Dy320 O325 2.395 . S
Dy320 O326 2.379 . S
Dy320 O328 2.339 . S
Dy320 O330 2.298 . S
Dy320 O334 2.275 . S
Dy320 C342 2.738 . S
Dy321 O324 2.298 . S
Dy321 O327 2.275 . S
Dy321 O329 2.307 . S
Dy321 O331 2.395 . S
Dy321 O332 2.379 . S
Dy321 O335 2.339 . S
Dy321 C351 2.738 1_554 S
C322 O334 1.254 . S
C322 O335 1.257 . S
O323 Dy320 2.307 . S
O323 C333 1.266 . S
O324 Dy321 2.298 . S
O324 C333 1.236 . S
O325 Dy320 2.395 . S
O325 C342 1.255 . S
O326 Dy320 2.379 . S
O326 C342 1.249 . S
O327 Dy321 2.275 . S
O327 C343 1.254 . S
O328 Dy320 2.339 . S
O328 C343 1.257 . S
O329 Dy321 2.307 . S
O329 C344 1.266 . S
O330 Dy320 2.298 . S
O330 C344 1.236 . S
O331 Dy321 2.395 . S
O331 C351 1.255 1_554 S
O332 Dy321 2.379 . S
O332 C351 1.249 1_554 S
C333 O323 1.266 . S
C333 O324 1.236 . S
O334 Dy320 2.275 . S
O334 C322 1.254 . S
O335 Dy321 2.339 . S
O335 C322 1.257 . S
C336 C339 1.344 . S
C336 C340 1.328 . S
C336 C342 1.516 . S
C337 C338 1.304 . S
C337 C341 1.323 . S
C338 C337 1.304 . S
C338 C339 1.371 . S
C338 H352 0.930 . S
C339 C336 1.344 . S
C339 C338 1.371 . S
C339 H353 0.931 . S
C340 C336 1.328 . S
C340 C341 1.433 . S
C340 H354 0.931 . S
C341 C337 1.323 . S
C341 C340 1.433 . S
C341 H355 0.933 . S
C342 Dy320 2.738 . S
C342 O325 1.255 . S
C342 O326 1.249 . S
C342 C336 1.516 . S
C343 O327 1.254 . S
C343 O328 1.257 . S
C344 O329 1.266 . S
C344 O330 1.236 . S
C345 C348 1.344 . S
C345 C349 1.328 . S
C345 C351 1.516 . S
C346 C347 1.304 . S
C346 C350 1.323 . S
C347 C346 1.304 . S
C347 C348 1.371 . S
C347 H356 0.930 . S
C348 C345 1.344 . S
C348 C347 1.371 . S
C348 H357 0.931 . S
C349 C345 1.328 . S
C349 C350 1.433 . S
C349 H358 0.931 . S
C350 C346 1.323 . S
C350 C349 1.433 . S
C350 H359 0.933 . S
C351 Dy321 2.738 1_556 S
C351 O331 1.255 1_556 S
C351 O332 1.249 1_556 S
C351 C345 1.516 . S
H352 C338 0.930 . S
H353 C339 0.931 . S
H354 C340 0.931 . S
H355 C341 0.933 . S
H356 C347 0.930 . S
H357 C348 0.931 . S
H358 C349 0.931 . S
H359 C350 0.933 . S
Dy360 O363 2.307 . S
Dy360 O365 2.395 . S
Dy360 O366 2.379 . S
Dy360 O368 2.339 . S
Dy360 O370 2.298 . S
Dy360 O374 2.275 . S
Dy360 C382 2.738 . S
Dy361 O364 2.298 . S
Dy361 O367 2.275 . S
Dy361 O369 2.307 . S
Dy361 O371 2.395 . S
Dy361 O372 2.379 . S
Dy361 O375 2.339 . S
Dy361 C391 2.738 . S
C362 O374 1.254 . S
C362 O375 1.257 . S
O363 Dy360 2.307 . S
O363 C373 1.266 . S
O364 Dy361 2.298 . S
O364 C373 1.236 . S
O365 Dy360 2.395 . S
O365 C382 1.255 . S
O366 Dy360 2.379 . S
O366 C382 1.249 . S
O367 Dy361 2.275 . S
O367 C383 1.254 . S
O368 Dy360 2.339 . S
O368 C383 1.257 . S
O369 Dy361 2.307 . S
O369 C384 1.266 . S
O370 Dy360 2.298 . S
O370 C384 1.236 . S
O371 Dy361 2.395 . S
O371 C391 1.255 . S
O372 Dy361 2.379 . S
O372 C391 1.249 . S
C373 O363 1.266 . S
C373 O364 1.236 . S
O374 Dy360 2.275 . S
O374 C362 1.254 . S
O375 Dy361 2.339 . S
O375 C362 1.257 . S
C376 C379 1.344 . S
C376 C380 1.328 . S
C376 C382 1.516 . S
C377 C378 1.304 . S
C377 C381 1.323 . S
C378 C377 1.304 . S
C378 C379 1.371 . S
C378 H392 0.930 . S
C379 C376 1.344 . S
C379 C378 1.371 . S
C379 H393 0.931 . S
C380 C376 1.328 . S
C380 C381 1.433 . S
C380 H394 0.931 . S
C381 C377 1.323 . S
C381 C380 1.433 . S
C381 H395 0.933 . S
C382 Dy360 2.738 . S
C382 O365 1.255 . S
C382 O366 1.249 . S
C382 C376 1.516 . S
C383 O367 1.254 . S
C383 O368 1.257 . S
C384 O369 1.266 . S
C384 O370 1.236 . S
C385 C388 1.344 . S
C385 C389 1.328 . S
C385 C391 1.516 . S
C386 C387 1.304 . S
C386 C390 1.323 . S
C387 C386 1.304 . S
C387 C388 1.371 . S
C387 H396 0.930 . S
C388 C385 1.344 . S
C388 C387 1.371 . S
C388 H397 0.931 . S
C389 C385 1.328 . S
C389 C390 1.433 . S
C389 H398 0.931 . S
C390 C386 1.323 . S
C390 C389 1.433 . S
C390 H399 0.933 . S
C391 Dy361 2.738 . S
C391 O371 1.255 . S
C391 O372 1.249 . S
C391 C385 1.516 . S
H392 C378 0.930 . S
H393 C379 0.931 . S
H394 C380 0.931 . S
H395 C381 0.933 . S
H396 C387 0.930 . S
H397 C388 0.931 . S
H398 C389 0.931 . S
H399 C390 0.933 . S
Dy400 O403 2.307 . S
Dy400 O405 2.395 . S
Dy400 O406 2.379 . S
Dy400 O408 2.339 . S
Dy400 O410 2.298 . S
Dy400 O414 2.275 . S
Dy400 C422 2.738 . S
Dy401 O404 2.298 . S
Dy401 O407 2.275 . S
Dy401 O409 2.307 . S
Dy401 O411 2.395 . S
Dy401 O412 2.379 . S
Dy401 O415 2.339 . S
Dy401 C431 2.738 . S
C402 O414 1.254 . S
C402 O415 1.257 . S
O403 Dy400 2.307 . S
O403 C413 1.266 . S
O404 Dy401 2.298 . S
O404 C413 1.236 . S
O405 Dy400 2.395 . S
O405 C422 1.255 . S
O406 Dy400 2.379 . S
O406 C422 1.249 . S
O407 Dy401 2.275 . S
O407 C423 1.254 . S
O408 Dy400 2.339 . S
O408 C423 1.257 . S
O409 Dy401 2.307 . S
O409 C424 1.266 . S
O410 Dy400 2.298 . S
O410 C424 1.236 . S
O411 Dy401 2.395 . S
O411 C431 1.255 . S
O412 Dy401 2.379 . S
O412 C431 1.249 . S
C413 O403 1.266 . S
C413 O404 1.236 . S
O414 Dy400 2.275 . S
O414 C402 1.254 . S
O415 Dy401 2.339 . S
O415 C402 1.257 . S
C416 C419 1.344 . S
C416 C420 1.328 . S
C416 C422 1.516 . S
C417 C418 1.304 . S
C417 C421 1.323 . S
C418 C417 1.304 . S
C418 C419 1.371 . S
C418 H432 0.930 . S
C419 C416 1.344 . S
C419 C418 1.371 . S
C419 H433 0.931 . S
C420 C416 1.328 . S
C420 C421 1.433 . S
C420 H434 0.931 . S
C421 C417 1.323 . S
C421 C420 1.433 . S
C421 H435 0.933 . S
C422 Dy400 2.738 . S
C422 O405 1.255 . S
C422 O406 1.249 . S
C422 C416 1.516 . S
C423 O407 1.254 . S
C423 O408 1.257 . S
C424 O409 1.266 . S
C424 O410 1.236 . S
C425 C428 1.344 . S
C425 C429 1.328 . S
C425 C431 1.516 . S
C426 C427 1.304 . S
C426 C430 1.323 . S
C427 C426 1.304 . S
C427 C428 1.371 . S
C427 H436 0.930 . S
C428 C425 1.344 . S
C428 C427 1.371 . S
C428 H437 0.931 . S
C429 C425 1.328 . S
C429 C430 1.433 . S
C429 H438 0.931 . S
C430 C426 1.323 . S
C430 C429 1.433 . S
C430 H439 0.933 . S
C431 Dy401 2.738 . S
C431 O411 1.255 . S
C431 O412 1.249 . S
C431 C425 1.516 . S
H432 C418 0.930 . S
H433 C419 0.931 . S
H434 C420 0.931 . S
H435 C421 0.933 . S
H436 C427 0.930 . S
H437 C428 0.931 . S
H438 C429 0.931 . S
H439 C430 0.933 . S
Dy440 O443 2.307 . S
Dy440 O445 2.395 . S
Dy440 O446 2.379 . S
Dy440 O448 2.339 . S
Dy440 O450 2.298 . S
Dy440 O454 2.275 . S
Dy440 C462 2.738 . S
Dy441 O444 2.298 . S
Dy441 O447 2.275 . S
Dy441 O449 2.307 . S
Dy441 O451 2.395 . S
Dy441 O452 2.379 . S
Dy441 O455 2.339 . S
Dy441 C471 2.738 1_554 S
C442 O454 1.254 . S
C442 O455 1.257 . S
O443 Dy440 2.307 . S
O443 C453 1.266 . S
O444 Dy441 2.298 . S
O444 C453 1.236 . S
O445 Dy440 2.395 . S
O445 C462 1.255 . S
O446 Dy440 2.379 . S
O446 C462 1.249 . S
O447 Dy441 2.275 . S
O447 C463 1.254 . S
O448 Dy440 2.339 . S
O448 C463 1.257 . S
O449 Dy441 2.307 . S
O449 C464 1.266 . S
O450 Dy440 2.298 . S
O450 C464 1.236 . S
O451 Dy441 2.395 . S
O451 C471 1.255 1_554 S
O452 Dy441 2.379 . S
O452 C471 1.249 1_554 S
C453 O443 1.266 . S
C453 O444 1.236 . S
O454 Dy440 2.275 . S
O454 C442 1.254 . S
O455 Dy441 2.339 . S
O455 C442 1.257 . S
C456 C459 1.344 . S
C456 C460 1.328 . S
C456 C462 1.516 . S
C457 C458 1.304 . S
C457 C461 1.323 . S
C458 C457 1.304 . S
C458 C459 1.371 . S
C458 H472 0.930 . S
C459 C456 1.344 . S
C459 C458 1.371 . S
C459 H473 0.931 . S
C460 C456 1.328 . S
C460 C461 1.433 . S
C460 H474 0.931 . S
C461 C457 1.323 . S
C461 C460 1.433 . S
C461 H475 0.933 . S
C462 Dy440 2.738 . S
C462 O445 1.255 . S
C462 O446 1.249 . S
C462 C456 1.516 . S
C463 O447 1.254 . S
C463 O448 1.257 . S
C464 O449 1.266 . S
C464 O450 1.236 . S
C465 C468 1.344 . S
C465 C469 1.328 . S
C465 C471 1.516 . S
C466 C467 1.304 . S
C466 C470 1.323 . S
C467 C466 1.304 . S
C467 C468 1.371 . S
C467 H476 0.930 . S
C468 C465 1.344 . S
C468 C467 1.371 . S
C468 H477 0.931 . S
C469 C465 1.328 . S
C469 C470 1.433 . S
C469 H478 0.931 . S
C470 C466 1.323 . S
C470 C469 1.433 . S
C470 H479 0.933 . S
C471 Dy441 2.738 1_556 S
C471 O451 1.255 1_556 S
C471 O452 1.249 1_556 S
C471 C465 1.516 . S
H472 C458 0.930 . S
H473 C459 0.931 . S
H474 C460 0.931 . S
H475 C461 0.933 . S
H476 C467 0.930 . S
H477 C468 0.931 . S
H478 C469 0.931 . S
H479 C470 0.933 . S
H480 C492 0.930 . S
H481 C494 0.930 . S
H482 C495 0.930 . S
H483 C499 0.959 . S
H484 C499 0.959 . S
H485 C499 0.961 . S
H486 C500 0.960 . S
H487 C500 0.961 . S
H488 C500 0.959 . S
H489 C503 0.929 . S
H490 C504 0.931 . S
H491 C506 0.930 . S
C492 H480 0.930 . S
C492 C493 1.399 . S
C492 C497 1.399 . S
C493 C492 1.399 . S
C493 C494 1.376 . S
C494 H481 0.930 . S
C494 C493 1.376 . S
C494 C495 1.388 . S
C495 H482 0.930 . S
C495 C494 1.388 . S
C495 C496 1.390 . S
C496 C495 1.390 . S
C496 C497 1.394 . S
C496 C502 1.465 . S
C497 C492 1.399 . S
C497 C496 1.394 . S
C497 C498 1.516 . S
C498 C497 1.516 . S
C498 C499 1.502 . S
C498 C500 1.561 . S
C498 C501 1.526 . S
C499 H483 0.959 . S
C499 H484 0.959 . S
C499 H485 0.961 . S
C499 C498 1.502 . S
C500 H486 0.960 . S
C500 H487 0.961 . S
C500 H488 0.959 . S
C500 C498 1.561 . S
C501 C498 1.526 . S
C501 C502 1.396 . S
C501 C506 1.390 . S
C502 C496 1.465 . S
C502 C501 1.396 . S
C502 C503 1.399 . S
C503 H489 0.929 . S
C503 C502 1.399 . S
C503 C504 1.385 . S
C504 H490 0.931 . S
C504 C503 1.385 . S
C504 C505 1.389 . S
C505 C504 1.389 . S
C505 C506 1.387 . S
C506 H491 0.930 . S
C506 C501 1.390 . S
C506 C505 1.387 . S
H507 C519 0.930 . S
H508 C521 0.930 . S
H509 C522 0.930 . S
H510 C526 0.959 . S
H511 C526 0.959 . S
H512 C526 0.961 . S
H513 C527 0.960 . S
H514 C527 0.961 . S
H515 C527 0.959 . S
H516 C530 0.929 . S
H517 C531 0.931 . S
H518 C533 0.930 . S
C519 H507 0.930 . S
C519 C520 1.399 . S
C519 C524 1.399 . S
C520 C519 1.399 . S
C520 C521 1.376 . S
C521 H508 0.930 . S
C521 C520 1.376 . S
C521 C522 1.388 . S
C522 H509 0.930 . S
C522 C521 1.388 . S
C522 C523 1.390 . S
C523 C522 1.390 . S
C523 C524 1.394 . S
C523 C529 1.465 . S
C524 C519 1.399 . S
C524 C523 1.394 . S
C524 C525 1.516 . S
C525 C524 1.516 . S
C525 C526 1.502 . S
C525 C527 1.561 . S
C525 C528 1.526 . S
C526 H510 0.959 . S
C526 H511 0.959 . S
C526 H512 0.961 . S
C526 C525 1.502 . S
C527 H513 0.960 . S
C527 H514 0.961 . S
C527 H515 0.959 . S
C527 C525 1.561 . S
C528 C525 1.526 . S
C528 C529 1.396 . S
C528 C533 1.390 . S
C529 C523 1.465 . S
C529 C528 1.396 . S
C529 C530 1.399 . S
C530 H516 0.929 . S
C530 C529 1.399 . S
C530 C531 1.385 . S
C531 H517 0.931 . S
C531 C530 1.385 . S
C531 C532 1.389 . S
C532 C531 1.389 . S
C532 C533 1.387 . S
C533 H518 0.930 . S
C533 C528 1.390 . S
C533 C532 1.387 . S
H534 C546 0.930 . S
H535 C548 0.930 . S
H536 C549 0.930 . S
H537 C553 0.959 . S
H538 C553 0.959 . S
H539 C553 0.961 . S
H540 C554 0.960 . S
H541 C554 0.961 . S
H542 C554 0.959 . S
H543 C557 0.929 . S
H544 C558 0.931 . S
H545 C560 0.930 . S
C546 H534 0.930 . S
C546 C547 1.399 . S
C546 C551 1.399 . S
C547 C546 1.399 . S
C547 C548 1.376 . S
C548 H535 0.930 . S
C548 C547 1.376 . S
C548 C549 1.388 . S
C549 H536 0.930 . S
C549 C548 1.388 . S
C549 C550 1.390 . S
C550 C549 1.390 . S
C550 C551 1.394 . S
C550 C556 1.465 . S
C551 C546 1.399 . S
C551 C550 1.394 . S
C551 C552 1.516 . S
C552 C551 1.516 . S
C552 C553 1.502 . S
C552 C554 1.561 . S
C552 C555 1.526 . S
C553 H537 0.959 . S
C553 H538 0.959 . S
C553 H539 0.961 . S
C553 C552 1.502 . S
C554 H540 0.960 . S
C554 H541 0.961 . S
C554 H542 0.959 . S
C554 C552 1.561 . S
C555 C552 1.526 . S
C555 C556 1.396 . S
C555 C560 1.390 . S
C556 C550 1.465 . S
C556 C555 1.396 . S
C556 C557 1.399 . S
C557 H543 0.929 . S
C557 C556 1.399 . S
C557 C558 1.385 . S
C558 H544 0.931 . S
C558 C557 1.385 . S
C558 C559 1.389 . S
C559 C558 1.389 . S
C559 C560 1.387 . S
C560 H545 0.930 . S
C560 C555 1.390 . S
C560 C559 1.387 . S
H561 C573 0.930 . S
H562 C575 0.930 . S
H563 C576 0.930 . S
H564 C580 0.959 . S
H565 C580 0.959 . S
H566 C580 0.961 . S
H567 C581 0.960 . S
H568 C581 0.961 . S
H569 C581 0.959 . S
H570 C584 0.929 . S
H571 C585 0.931 . S
H572 C587 0.930 . S
C573 H561 0.930 . S
C573 C574 1.399 . S
C573 C578 1.399 . S
C574 C573 1.399 . S
C574 C575 1.376 . S
C575 H562 0.930 . S
C575 C574 1.376 . S
C575 C576 1.388 . S
C576 H563 0.930 . S
C576 C575 1.388 . S
C576 C577 1.390 . S
C577 C576 1.390 . S
C577 C578 1.394 . S
C577 C583 1.465 . S
C578 C573 1.399 . S
C578 C577 1.394 . S
C578 C579 1.516 . S
C579 C578 1.516 . S
C579 C580 1.502 . S
C579 C581 1.561 . S
C579 C582 1.526 . S
C580 H564 0.959 . S
C580 H565 0.959 . S
C580 H566 0.961 . S
C580 C579 1.502 . S
C581 H567 0.960 . S
C581 H568 0.961 . S
C581 H569 0.959 . S
C581 C579 1.561 . S
C582 C579 1.526 . S
C582 C583 1.396 . S
C582 C587 1.390 . S
C583 C577 1.465 . S
C583 C582 1.396 . S
C583 C584 1.399 . S
C584 H570 0.929 . S
C584 C583 1.399 . S
C584 C585 1.385 . S
C585 H571 0.931 . S
C585 C584 1.385 . S
C585 C586 1.389 . S
C586 C585 1.389 . S
C586 C587 1.387 . S
C587 H572 0.930 . S
C587 C582 1.390 . S
C587 C586 1.387 . S
H588 C600 0.930 . S
H589 C602 0.930 . S
H590 C603 0.930 . S
H591 C607 0.959 . S
H592 C607 0.959 . S
H593 C607 0.961 . S
H594 C608 0.960 . S
H595 C608 0.961 . S
H596 C608 0.959 . S
H597 C611 0.929 . S
H598 C612 0.931 . S
H599 C614 0.930 . S
C600 H588 0.930 . S
C600 C601 1.399 . S
C600 C605 1.399 . S
C601 C600 1.399 . S
C601 C602 1.376 . S
C602 H589 0.930 . S
C602 C601 1.376 . S
C602 C603 1.388 . S
C603 H590 0.930 . S
C603 C602 1.388 . S
C603 C604 1.390 . S
C604 C603 1.390 . S
C604 C605 1.394 . S
C604 C610 1.465 . S
C605 C600 1.399 . S
C605 C604 1.394 . S
C605 C606 1.516 . S
C606 C605 1.516 . S
C606 C607 1.502 . S
C606 C608 1.561 . S
C606 C609 1.526 . S
C607 H591 0.959 . S
C607 H592 0.959 . S
C607 H593 0.961 . S
C607 C606 1.502 . S
C608 H594 0.960 . S
C608 H595 0.961 . S
C608 H596 0.959 . S
C608 C606 1.561 . S
C609 C606 1.526 . S
C609 C610 1.396 . S
C609 C614 1.390 . S
C610 C604 1.465 . S
C610 C609 1.396 . S
C610 C611 1.399 . S
C611 H597 0.929 . S
C611 C610 1.399 . S
C611 C612 1.385 . S
C612 H598 0.931 . S
C612 C611 1.385 . S
C612 C613 1.389 . S
C613 C612 1.389 . S
C613 C614 1.387 . S
C614 H599 0.930 . S
C614 C609 1.390 . S
C614 C613 1.387 . S
H615 C627 0.930 . S
H616 C629 0.930 . S
H617 C630 0.930 . S
H618 C634 0.959 . S
H619 C634 0.959 . S
H620 C634 0.961 . S
H621 C635 0.960 . S
H622 C635 0.961 . S
H623 C635 0.959 . S
H624 C638 0.929 . S
H625 C639 0.931 . S
H626 C641 0.930 . S
C627 H615 0.930 . S
C627 C628 1.399 . S
C627 C632 1.399 . S
C628 C627 1.399 . S
C628 C629 1.376 . S
C629 H616 0.930 . S
C629 C628 1.376 . S
C629 C630 1.388 . S
C630 H617 0.930 . S
C630 C629 1.388 . S
C630 C631 1.390 . S
C631 C630 1.390 . S
C631 C632 1.394 . S
C631 C637 1.465 . S
C632 C627 1.399 . S
C632 C631 1.394 . S
C632 C633 1.516 . S
C633 C632 1.516 . S
C633 C634 1.502 . S
C633 C635 1.561 . S
C633 C636 1.526 . S
C634 H618 0.959 . S
C634 H619 0.959 . S
C634 H620 0.961 . S
C634 C633 1.502 . S
C635 H621 0.960 . S
C635 H622 0.961 . S
C635 H623 0.959 . S
C635 C633 1.561 . S
C636 C633 1.526 . S
C636 C637 1.396 . S
C636 C641 1.390 . S
C637 C631 1.465 . S
C637 C636 1.396 . S
C637 C638 1.399 . S
C638 H624 0.929 . S
C638 C637 1.399 . S
C638 C639 1.385 . S
C639 H625 0.931 . S
C639 C638 1.385 . S
C639 C640 1.389 . S
C640 C639 1.389 . S
C640 C641 1.387 . S
C641 H626 0.930 . S
C641 C636 1.390 . S
C641 C640 1.387 . S
H642 C654 0.930 . S
H643 C656 0.930 . S
H644 C657 0.930 . S
H645 C661 0.959 . S
H646 C661 0.959 . S
H647 C661 0.961 . S
H648 C662 0.960 1_556 S
H649 C662 0.961 . S
H650 C662 0.959 . S
H651 C665 0.929 . S
H652 C666 0.931 . S
H653 C668 0.930 . S
C654 H642 0.930 . S
C654 C655 1.399 . S
C654 C659 1.399 . S
C655 C654 1.399 . S
C655 C656 1.376 . S
C656 H643 0.930 . S
C656 C655 1.376 . S
C656 C657 1.388 . S
C657 H644 0.930 . S
C657 C656 1.388 . S
C657 C658 1.390 . S
C658 C657 1.390 . S
C658 C659 1.394 . S
C658 C664 1.465 1_556 S
C659 C654 1.399 . S
C659 C658 1.394 . S
C659 C660 1.516 . S
C660 C659 1.516 . S
C660 C661 1.502 . S
C660 C662 1.561 1_556 S
C660 C663 1.526 1_556 S
C661 H645 0.959 . S
C661 H646 0.959 . S
C661 H647 0.961 . S
C661 C660 1.502 . S
C662 H648 0.960 1_554 S
C662 H649 0.961 . S
C662 H650 0.959 . S
C662 C660 1.561 1_554 S
C663 C660 1.526 1_554 S
C663 C664 1.396 . S
C663 C668 1.390 . S
C664 C658 1.465 1_554 S
C664 C663 1.396 . S
C664 C665 1.399 . S
C665 H651 0.929 . S
C665 C664 1.399 . S
C665 C666 1.385 . S
C666 H652 0.931 . S
C666 C665 1.385 . S
C666 C667 1.389 . S
C667 C666 1.389 . S
C667 C668 1.387 . S
C668 H653 0.930 . S
C668 C663 1.390 . S
C668 C667 1.387 . S
H669 C681 0.930 . S
H670 C683 0.930 . S
H671 C684 0.930 . S
H672 C688 0.959 . S
H673 C688 0.959 . S
H674 C688 0.961 . S
H675 C689 0.960 . S
H676 C689 0.961 . S
H677 C689 0.959 . S
H678 C692 0.929 . S
H679 C693 0.931 . S
H680 C695 0.930 . S
C681 H669 0.930 . S
C681 C682 1.399 . S
C681 C686 1.399 . S
C682 C681 1.399 . S
C682 C683 1.376 . S
C683 H670 0.930 . S
C683 C682 1.376 . S
C683 C684 1.388 . S
C684 H671 0.930 . S
C684 C683 1.388 . S
C684 C685 1.390 . S
C685 C684 1.390 . S
C685 C686 1.394 . S
C685 C691 1.465 . S
C686 C681 1.399 . S
C686 C685 1.394 . S
C686 C687 1.516 . S
C687 C686 1.516 . S
C687 C688 1.502 . S
C687 C689 1.561 . S
C687 C690 1.526 . S
C688 H672 0.959 . S
C688 H673 0.959 . S
C688 H674 0.961 . S
C688 C687 1.502 . S
C689 H675 0.960 . S
C689 H676 0.961 . S
C689 H677 0.959 . S
C689 C687 1.561 . S
C690 C687 1.526 . S
C690 C691 1.396 . S
C690 C695 1.390 . S
C691 C685 1.465 . S
C691 C690 1.396 . S
C691 C692 1.399 . S
C692 H678 0.929 . S
C692 C691 1.399 . S
C692 C693 1.385 . S
C693 H679 0.931 . S
C693 C692 1.385 . S
C693 C694 1.389 . S
C694 C693 1.389 . S
C694 C695 1.387 . S
C695 H680 0.930 . S
C695 C690 1.390 . S
C695 C694 1.387 . S
H696 C708 0.930 . S
H697 C710 0.930 . S
H698 C711 0.930 . S
H699 C715 0.959 . S
H700 C715 0.959 . S
H701 C715 0.961 . S
H702 C716 0.960 . S
H703 C716 0.961 . S
H704 C716 0.959 . S
H705 C719 0.929 . S
H706 C720 0.931 . S
H707 C722 0.930 . S
C708 H696 0.930 . S
C708 C709 1.399 . S
C708 C713 1.399 . S
C709 C708 1.399 . S
C709 C710 1.376 . S
C710 H697 0.930 . S
C710 C709 1.376 . S
C710 C711 1.388 . S
C711 H698 0.930 . S
C711 C710 1.388 . S
C711 C712 1.390 . S
C712 C711 1.390 . S
C712 C713 1.394 . S
C712 C718 1.465 . S
C713 C708 1.399 . S
C713 C712 1.394 . S
C713 C714 1.516 . S
C714 C713 1.516 . S
C714 C715 1.502 . S
C714 C716 1.561 . S
C714 C717 1.526 . S
C715 H699 0.959 . S
C715 H700 0.959 . S
C715 H701 0.961 . S
C715 C714 1.502 . S
C716 H702 0.960 . S
C716 H703 0.961 . S
C716 H704 0.959 . S
C716 C714 1.561 . S
C717 C714 1.526 . S
C717 C718 1.396 . S
C717 C722 1.390 . S
C718 C712 1.465 . S
C718 C717 1.396 . S
C718 C719 1.399 . S
C719 H705 0.929 . S
C719 C718 1.399 . S
C719 C720 1.385 . S
C720 H706 0.931 . S
C720 C719 1.385 . S
C720 C721 1.389 . S
C721 C720 1.389 . S
C721 C722 1.387 . S
C722 H707 0.930 . S
C722 C717 1.390 . S
C722 C721 1.387 . S
H723 C735 0.930 . S
H724 C737 0.930 . S
H725 C738 0.930 . S
H726 C742 0.959 . S
H727 C742 0.959 1_554 S
H728 C742 0.961 . S
H729 C743 0.960 . S
H730 C743 0.961 . S
H731 C743 0.959 . S
H732 C746 0.929 . S
H733 C747 0.931 . S
H734 C749 0.930 . S
C735 H723 0.930 . S
C735 C736 1.399 . S
C735 C740 1.399 . S
C736 C735 1.399 . S
C736 C737 1.376 . S
C737 H724 0.930 . S
C737 C736 1.376 . S
C737 C738 1.388 . S
C738 H725 0.930 . S
C738 C737 1.388 . S
C738 C739 1.390 . S
C739 C738 1.390 . S
C739 C740 1.394 . S
C739 C745 1.465 1_556 S
C740 C735 1.399 . S
C740 C739 1.394 . S
C740 C741 1.516 1_556 S
C741 C740 1.516 1_554 S
C741 C742 1.502 1_554 S
C741 C743 1.561 . S
C741 C744 1.526 . S
C742 H726 0.959 . S
C742 H727 0.959 1_556 S
C742 H728 0.961 . S
C742 C741 1.502 1_556 S
C743 H729 0.960 . S
C743 H730 0.961 . S
C743 H731 0.959 . S
C743 C741 1.561 . S
C744 C741 1.526 . S
C744 C745 1.396 . S
C744 C749 1.390 . S
C745 C739 1.465 1_554 S
C745 C744 1.396 . S
C745 C746 1.399 . S
C746 H732 0.929 . S
C746 C745 1.399 . S
C746 C747 1.385 . S
C747 H733 0.931 . S
C747 C746 1.385 . S
C747 C748 1.389 . S
C748 C747 1.389 . S
C748 C749 1.387 . S
C749 H734 0.930 . S
C749 C744 1.390 . S
C749 C748 1.387 . S
H750 C762 0.930 . S
H751 C764 0.930 . S
H752 C765 0.930 . S
H753 C769 0.959 . S
H754 C769 0.959 . S
H755 C769 0.961 . S
H756 C770 0.960 . S
H757 C770 0.961 . S
H758 C770 0.959 . S
H759 C773 0.929 . S
H760 C774 0.931 . S
H761 C776 0.930 . S
C762 H750 0.930 . S
C762 C763 1.399 . S
C762 C767 1.399 . S
C763 C762 1.399 . S
C763 C764 1.376 . S
C764 H751 0.930 . S
C764 C763 1.376 . S
C764 C765 1.388 . S
C765 H752 0.930 . S
C765 C764 1.388 . S
C765 C766 1.390 . S
C766 C765 1.390 . S
C766 C767 1.394 . S
C766 C772 1.465 . S
C767 C762 1.399 . S
C767 C766 1.394 . S
C767 C768 1.516 . S
C768 C767 1.516 . S
C768 C769 1.502 . S
C768 C770 1.561 . S
C768 C771 1.526 . S
C769 H753 0.959 . S
C769 H754 0.959 . S
C769 H755 0.961 . S
C769 C768 1.502 . S
C770 H756 0.960 . S
C770 H757 0.961 . S
C770 H758 0.959 . S
C770 C768 1.561 . S
C771 C768 1.526 . S
C771 C772 1.396 . S
C771 C776 1.390 . S
C772 C766 1.465 . S
C772 C771 1.396 . S
C772 C773 1.399 . S
C773 H759 0.929 . S
C773 C772 1.399 . S
C773 C774 1.385 . S
C774 H760 0.931 . S
C774 C773 1.385 . S
C774 C775 1.389 . S
C775 C774 1.389 . S
C775 C776 1.387 . S
C776 H761 0.930 . S
C776 C771 1.390 . S
C776 C775 1.387 . S
H777 C789 0.930 . S
H778 C791 0.930 . S
H779 C792 0.930 . S
H780 C796 0.959 . S
H781 C796 0.959 . S
H782 C796 0.961 . S
H783 C797 0.960 . S
H784 C797 0.961 . S
H785 C797 0.959 . S
H786 C800 0.929 . S
H787 C801 0.931 . S
H788 C803 0.930 . S
C789 H777 0.930 . S
C789 C790 1.399 . S
C789 C794 1.399 . S
C790 C789 1.399 . S
C790 C791 1.376 . S
C791 H778 0.930 . S
C791 C790 1.376 . S
C791 C792 1.388 . S
C792 H779 0.930 . S
C792 C791 1.388 . S
C792 C793 1.390 . S
C793 C792 1.390 . S
C793 C794 1.394 . S
C793 C799 1.465 . S
C794 C789 1.399 . S
C794 C793 1.394 . S
C794 C795 1.516 . S
C795 C794 1.516 . S
C795 C796 1.502 . S
C795 C797 1.561 . S
C795 C798 1.526 . S
C796 H780 0.959 . S
C796 H781 0.959 . S
C796 H782 0.961 . S
C796 C795 1.502 . S
C797 H783 0.960 . S
C797 H784 0.961 . S
C797 H785 0.959 . S
C797 C795 1.561 . S
C798 C795 1.526 . S
C798 C799 1.396 . S
C798 C803 1.390 . S
C799 C793 1.465 . S
C799 C798 1.396 . S
C799 C800 1.399 . S
C800 H786 0.929 . S
C800 C799 1.399 . S
C800 C801 1.385 . S
C801 H787 0.931 . S
C801 C800 1.385 . S
C801 C802 1.389 . S
C802 C801 1.389 . S
C802 C803 1.387 . S
C803 H788 0.930 . S
C803 C798 1.390 . S
C803 C802 1.387 . S
H804 C816 0.930 . S
H805 C818 0.930 . S
H806 C819 0.930 . S
H807 C823 0.959 . S
H808 C823 0.959 . S
H809 C823 0.961 . S
H810 C824 0.960 . S
H811 C824 0.961 . S
H812 C824 0.959 . S
H813 C827 0.929 . S
H814 C828 0.931 . S
H815 C830 0.929 . S
C816 H804 0.930 . S
C816 C817 1.399 . S
C816 C821 1.399 . S
C817 C816 1.399 . S
C817 C818 1.376 . S
C818 H805 0.930 . S
C818 C817 1.376 . S
C818 C819 1.388 1_565 S
C819 H806 0.930 . S
C819 C818 1.388 1_545 S
C819 C820 1.390 . S
C820 C819 1.390 . S
C820 C821 1.394 1_545 S
C820 C826 1.465 1_556 S
C821 C816 1.399 . S
C821 C820 1.394 1_565 S
C821 C822 1.516 1_556 S
C822 C821 1.516 1_554 S
C822 C823 1.502 . S
C822 C824 1.561 . S
C822 C825 1.526 1_565 S
C823 H807 0.959 . S
C823 H808 0.959 . S
C823 H809 0.961 . S
C823 C822 1.502 . S
C824 H810 0.960 . S
C824 H811 0.961 . S
C824 H812 0.959 . S
C824 C822 1.561 . S
C825 C822 1.526 1_545 S
C825 C826 1.396 . S
C825 C830 1.390 . S
C826 C820 1.465 1_554 S
C826 C825 1.396 . S
C826 C827 1.399 . S
C827 H813 0.929 . S
C827 C826 1.399 . S
C827 C828 1.385 . S
C828 H814 0.931 . S
C828 C827 1.385 . S
C828 C829 1.389 . S
C829 C828 1.389 . S
C829 C830 1.387 . S
C830 H815 0.929 . S
C830 C825 1.390 . S
C830 C829 1.387 . S
H831 C843 0.930 . S
H832 C845 0.930 . S
H833 C846 0.930 . S
H834 C850 0.959 . S
H835 C850 0.959 . S
H836 C850 0.961 . S
H837 C851 0.960 . S
H838 C851 0.961 . S
H839 C851 0.959 . S
H840 C854 0.929 . S
H841 C855 0.931 . S
H842 C857 0.930 . S
C843 H831 0.930 . S
C843 C844 1.399 . S
C843 C848 1.399 . S
C844 C843 1.399 . S
C844 C845 1.376 . S
C845 H832 0.930 . S
C845 C844 1.376 . S
C845 C846 1.388 . S
C846 H833 0.930 . S
C846 C845 1.388 . S
C846 C847 1.390 . S
C847 C846 1.390 . S
C847 C848 1.394 . S
C847 C853 1.465 . S
C848 C843 1.399 . S
C848 C847 1.394 . S
C848 C849 1.516 . S
C849 C848 1.516 . S
C849 C850 1.502 . S
C849 C851 1.561 . S
C849 C852 1.526 . S
C850 H834 0.959 . S
C850 H835 0.959 . S
C850 H836 0.961 . S
C850 C849 1.502 . S
C851 H837 0.960 . S
C851 H838 0.961 . S
C851 H839 0.959 . S
C851 C849 1.561 . S
C852 C849 1.526 . S
C852 C853 1.396 . S
C852 C857 1.390 . S
C853 C847 1.465 . S
C853 C852 1.396 . S
C853 C854 1.399 . S
C854 H840 0.929 . S
C854 C853 1.399 . S
C854 C855 1.385 . S
C855 H841 0.931 . S
C855 C854 1.385 . S
C855 C856 1.389 . S
C856 C855 1.389 . S
C856 C857 1.387 . S
C857 H842 0.930 . S
C857 C852 1.390 . S
C857 C856 1.387 . S
H858 C870 0.930 . S
H859 C872 0.930 . S
H860 C873 0.930 . S
H861 C877 0.959 . S
H862 C877 0.959 . S
H863 C877 0.961 . S
H864 C878 0.960 . S
H865 C878 0.961 . S
H866 C878 0.959 . S
H867 C881 0.929 . S
H868 C882 0.931 . S
H869 C884 0.930 . S
C870 H858 0.930 . S
C870 C871 1.399 . S
C870 C875 1.399 . S
C871 C870 1.399 . S
C871 C872 1.376 . S
C872 H859 0.930 . S
C872 C871 1.376 . S
C872 C873 1.388 . S
C873 H860 0.930 . S
C873 C872 1.388 . S
C873 C874 1.390 . S
C874 C873 1.390 . S
C874 C875 1.394 . S
C874 C880 1.465 . S
C875 C870 1.399 . S
C875 C874 1.394 . S
C875 C876 1.516 1_455 S
C876 C875 1.516 1_655 S
C876 C877 1.502 . S
C876 C878 1.561 . S
C876 C879 1.526 . S
C877 H861 0.959 . S
C877 H862 0.959 . S
C877 H863 0.961 . S
C877 C876 1.502 . S
C878 H864 0.960 . S
C878 H865 0.961 . S
C878 H866 0.959 . S
C878 C876 1.561 . S
C879 C876 1.526 . S
C879 C880 1.396 1_655 S
C879 C884 1.390 . S
C880 C874 1.465 . S
C880 C879 1.396 1_455 S
C880 C881 1.399 . S
C881 H867 0.929 . S
C881 C880 1.399 . S
C881 C882 1.385 1_455 S
C882 H868 0.931 . S
C882 C881 1.385 1_655 S
C882 C883 1.389 . S
C883 C882 1.389 . S
C883 C884 1.387 . S
C884 H869 0.930 . S
C884 C879 1.390 . S
C884 C883 1.387 . S
H885 C897 0.930 1_545 S
H886 C899 0.930 . S
H887 C900 0.930 1_556 S
H888 C904 0.959 . S
H889 C904 0.959 . S
H890 C904 0.961 . S
H891 C905 0.960 . S
H892 C905 0.961 . S
H893 C905 0.959 . S
H894 C908 0.929 . S
H895 C909 0.933 . S
H896 C911 0.930 . S
C897 H885 0.930 1_565 S
C897 C898 1.399 . S
C897 C902 1.399 . S
C898 C897 1.399 . S
C898 C899 1.376 . S
C899 H886 0.930 . S
C899 C898 1.376 . S
C899 C900 1.388 . S
C900 H887 0.930 1_554 S
C900 C899 1.388 . S
C900 C901 1.390 . S
C901 C900 1.390 . S
C901 C902 1.394 . S
C901 C907 1.465 1_554 S
C902 C897 1.399 . S
C902 C901 1.394 . S
C902 C903 1.516 1_565 S
C903 C902 1.516 1_545 S
C903 C904 1.502 . S
C903 C905 1.561 . S
C903 C906 1.526 1_554 S
C904 H888 0.959 . S
C904 H889 0.959 . S
C904 H890 0.961 . S
C904 C903 1.502 . S
C905 H891 0.960 . S
C905 H892 0.961 . S
C905 H893 0.959 . S
C905 C903 1.561 . S
C906 C903 1.526 1_556 S
C906 C907 1.396 1_545 S
C906 C911 1.390 . S
C907 C901 1.465 1_556 S
C907 C906 1.396 1_565 S
C907 C908 1.399 . S
C908 H894 0.929 . S
C908 C907 1.399 . S
C908 C909 1.385 1_565 S
C909 H895 0.933 . S
C909 C908 1.385 1_545 S
C909 C910 1.389 . S
C910 C909 1.389 . S
C910 C911 1.387 . S
C911 H896 0.930 . S
C911 C906 1.390 . S
C911 C910 1.387 . S
H912 C924 0.930 . S
H913 C926 0.930 . S
H914 C927 0.930 . S
H915 C931 0.959 . S
H916 C931 0.959 . S
H917 C931 0.961 . S
H918 C932 0.960 . S
H919 C932 0.961 . S
H920 C932 0.959 . S
H921 C935 0.929 . S
H922 C936 0.931 . S
H923 C938 0.930 . S
C924 H912 0.930 . S
C924 C925 1.399 . S
C924 C929 1.399 . S
C925 C924 1.399 . S
C925 C926 1.376 . S
C926 H913 0.930 . S
C926 C925 1.376 . S
C926 C927 1.388 . S
C927 H914 0.930 . S
C927 C926 1.388 . S
C927 C928 1.390 . S
C928 C927 1.390 . S
C928 C929 1.394 . S
C928 C934 1.465 . S
C929 C924 1.399 . S
C929 C928 1.394 . S
C929 C930 1.516 . S
C930 C929 1.516 . S
C930 C931 1.502 . S
C930 C932 1.561 . S
C930 C933 1.526 . S
C931 H915 0.959 . S
C931 H916 0.959 . S
C931 H917 0.961 . S
C931 C930 1.502 . S
C932 H918 0.960 . S
C932 H919 0.961 . S
C932 H920 0.959 . S
C932 C930 1.561 . S
C933 C930 1.526 . S
C933 C934 1.396 . S
C933 C938 1.390 . S
C934 C928 1.465 . S
C934 C933 1.396 . S
C934 C935 1.399 . S
C935 H921 0.929 . S
C935 C934 1.399 . S
C935 C936 1.385 . S
C936 H922 0.931 . S
C936 C935 1.385 . S
C936 C937 1.389 . S
C937 C936 1.389 . S
C937 C938 1.387 . S
C938 H923 0.930 . S
C938 C933 1.390 . S
C938 C937 1.387 . S
H939 C951 0.930 . S
H940 C953 0.930 . S
H941 C954 0.930 1_655 S
H942 C958 0.959 . S
H943 C958 0.959 . S
H944 C958 0.961 . S
H945 C959 0.960 . S
H946 C959 0.961 . S
H947 C959 0.959 . S
H948 C962 0.929 . S
H949 C963 0.931 . S
H950 C965 0.930 . S
C951 H939 0.930 . S
C951 C952 1.399 . S
C951 C956 1.399 . S
C952 C951 1.399 . S
C952 C953 1.376 . S
C953 H940 0.930 . S
C953 C952 1.376 . S
C953 C954 1.388 . S
C954 H941 0.930 1_455 S
C954 C953 1.388 . S
C954 C955 1.390 . S
C955 C954 1.390 . S
C955 C956 1.394 . S
C955 C961 1.465 1_455 S
C956 C951 1.399 . S
C956 C955 1.394 . S
C956 C957 1.516 . S
C957 C956 1.516 . S
C957 C958 1.502 . S
C957 C959 1.561 1_455 S
C957 C960 1.526 1_455 S
C958 H942 0.959 . S
C958 H943 0.959 . S
C958 H944 0.961 . S
C958 C957 1.502 . S
C959 H945 0.960 . S
C959 H946 0.961 . S
C959 H947 0.959 . S
C959 C957 1.561 1_655 S
C960 C957 1.526 1_655 S
C960 C961 1.396 . S
C960 C965 1.390 . S
C961 C955 1.465 1_655 S
C961 C960 1.396 . S
C961 C962 1.399 . S
C962 H948 0.929 . S
C962 C961 1.399 . S
C962 C963 1.385 . S
C963 H949 0.931 . S
C963 C962 1.385 . S
C963 C964 1.389 . S
C964 C963 1.389 . S
C964 C965 1.387 . S
C965 H950 0.930 . S
C965 C960 1.390 . S
C965 C964 1.387 . S
H966 C978 0.930 . S
H967 C980 0.930 . S
H968 C981 0.930 . S
H969 C985 0.959 . S
H970 C985 0.959 . S
H971 C985 0.961 . S
H972 C986 0.960 1_545 S
H973 C986 0.961 . S
H974 C986 0.959 . S
H975 C989 0.929 . S
H976 C990 0.931 . S
H977 C992 0.930 . S
C978 H966 0.930 . S
C978 C979 1.399 . S
C978 C983 1.399 . S
C979 C978 1.399 . S
C979 C980 1.376 . S
C980 H967 0.930 . S
C980 C979 1.376 . S
C980 C981 1.388 . S
C981 H968 0.930 . S
C981 C980 1.388 . S
C981 C982 1.390 . S
C982 C981 1.390 . S
C982 C983 1.394 . S
C982 C988 1.465 1_545 S
C983 C978 1.399 . S
C983 C982 1.394 . S
C983 C984 1.516 . S
C984 C983 1.516 . S
C984 C985 1.502 . S
C984 C986 1.561 1_545 S
C984 C987 1.526 1_545 S
C985 H969 0.959 . S
C985 H970 0.959 . S
C985 H971 0.961 . S
C985 C984 1.502 . S
C986 H972 0.960 1_565 S
C986 H973 0.961 . S
C986 H974 0.959 . S
C986 C984 1.561 1_565 S
C987 C984 1.526 1_565 S
C987 C988 1.396 . S
C987 C992 1.390 . S
C988 C982 1.465 1_565 S
C988 C987 1.396 . S
C988 C989 1.399 . S
C989 H975 0.929 . S
C989 C988 1.399 . S
C989 C990 1.385 . S
C990 H976 0.931 . S
C990 C989 1.385 . S
C990 C991 1.389 . S
C991 C990 1.389 . S
C991 C992 1.387 . S
C992 H977 0.930 . S
C992 C987 1.390 . S
C992 C991 1.387 . S
H993 C1005 0.930 . S
H994 C1007 0.930 . S
H995 C1008 0.930 . S
H996 C1012 0.959 . S
H997 C1012 0.959 . S
H998 C1012 0.961 . S
H999 C1013 0.960 . S
H1000 C1013 0.961 . S
H1001 C1013 0.959 . S
H1002 C1016 0.929 . S
H1003 C1017 0.931 . S
H1004 C1019 0.930 . S
C1005 H993 0.930 . S
C1005 C1006 1.399 . S
C1005 C1010 1.399 . S
C1006 C1005 1.399 . S
C1006 C1007 1.376 . S
C1007 H994 0.930 . S
C1007 C1006 1.376 . S
C1007 C1008 1.388 . S
C1008 H995 0.930 . S
C1008 C1007 1.388 . S
C1008 C1009 1.390 . S
C1009 C1008 1.390 . S
C1009 C1010 1.394 . S
C1009 C1015 1.465 . S
C1010 C1005 1.399 . S
C1010 C1009 1.394 . S
C1010 C1011 1.516 . S
C1011 C1010 1.516 . S
C1011 C1012 1.502 . S
C1011 C1013 1.561 . S
C1011 C1014 1.526 . S
C1012 H996 0.959 . S
C1012 H997 0.959 . S
C1012 H998 0.961 . S
C1012 C1011 1.502 . S
C1013 H999 0.960 . S
C1013 H1000 0.961 . S
C1013 H1001 0.959 . S
C1013 C1011 1.561 . S
C1014 C1011 1.526 . S
C1014 C1015 1.396 . S
C1014 C1019 1.390 . S
C1015 C1009 1.465 . S
C1015 C1014 1.396 . S
C1015 C1016 1.399 . S
C1016 H1002 0.929 . S
C1016 C1015 1.399 . S
C1016 C1017 1.385 . S
C1017 H1003 0.931 . S
C1017 C1016 1.385 . S
C1017 C1018 1.389 . S
C1018 C1017 1.389 . S
C1018 C1019 1.387 . S
C1019 H1004 0.930 . S
C1019 C1014 1.390 . S
C1019 C1018 1.387 . S
H1020 C1032 0.930 . S
H1021 C1034 0.930 . S
H1022 C1035 0.930 . S
H1023 C1039 0.959 . S
H1024 C1039 0.959 1_554 S
H1025 C1039 0.954 1_554 S
H1026 C1040 0.960 1_655 S
H1027 C1040 0.961 . S
H1028 C1040 0.959 1_556 S
H1029 C1043 0.929 . S
H1030 C1044 0.931 . S
H1031 C1046 0.930 . S
C1032 H1020 0.930 . S
C1032 C1033 1.399 . S
C1032 C1037 1.399 . S
C1033 C1032 1.399 . S
C1033 C1034 1.376 . S
C1034 H1021 0.930 . S
C1034 C1033 1.376 . S
C1034 C1035 1.388 . S
C1035 H1022 0.930 . S
C1035 C1034 1.388 . S
C1035 C1036 1.390 . S
C1036 C1035 1.390 . S
C1036 C1037 1.394 . S
C1036 C1042 1.465 1_655 S
C1037 C1032 1.399 . S
C1037 C1036 1.394 . S
C1037 C1038 1.516 . S
C1038 C1037 1.516 . S
C1038 C1039 1.502 . S
C1038 C1040 1.561 1_656 S
C1038 C1041 1.526 1_655 S
C1039 H1023 0.959 . S
C1039 H1024 0.959 1_556 S
C1039 H1025 0.954 1_556 S
C1039 C1038 1.502 . S
C1040 H1026 0.960 1_455 S
C1040 H1027 0.961 . S
C1040 H1028 0.959 1_554 S
C1040 C1038 1.561 1_454 S
C1041 C1038 1.526 1_455 S
C1041 C1042 1.396 . S
C1041 C1046 1.390 . S
C1042 C1036 1.465 1_455 S
C1042 C1041 1.396 . S
C1042 C1043 1.399 . S
C1043 H1029 0.929 . S
C1043 C1042 1.399 . S
C1043 C1044 1.385 . S
C1044 H1030 0.931 . S
C1044 C1043 1.385 . S
C1044 C1045 1.389 . S
C1045 C1044 1.389 . S
C1045 C1046 1.387 . S
C1046 H1031 0.930 . S
C1046 C1041 1.390 . S
C1046 C1045 1.387 . S
H1047 C1059 0.930 . S
H1048 C1061 0.930 . S
H1049 C1062 0.930 . S
H1050 C1066 0.959 . S
H1051 C1066 0.959 . S
H1052 C1066 0.961 . S
H1053 C1067 0.960 1_455 S
H1054 C1067 0.961 . S
H1055 C1067 0.959 . S
H1056 C1070 0.929 . S
H1057 C1071 0.931 . S
H1058 C1073 0.930 . S
C1059 H1047 0.930 . S
C1059 C1060 1.399 . S
C1059 C1064 1.399 . S
C1060 C1059 1.399 . S
C1060 C1061 1.376 . S
C1061 H1048 0.930 . S
C1061 C1060 1.376 . S
C1061 C1062 1.388 . S
C1062 H1049 0.930 . S
C1062 C1061 1.388 . S
C1062 C1063 1.390 . S
C1063 C1062 1.390 . S
C1063 C1064 1.394 . S
C1063 C1069 1.465 1_455 S
C1064 C1059 1.399 . S
C1064 C1063 1.394 . S
C1064 C1065 1.516 . S
C1065 C1064 1.516 . S
C1065 C1066 1.502 . S
C1065 C1067 1.561 1_455 S
C1065 C1068 1.526 1_455 S
C1066 H1050 0.959 . S
C1066 H1051 0.959 . S
C1066 H1052 0.961 . S
C1066 C1065 1.502 . S
C1067 H1053 0.960 1_655 S
C1067 H1054 0.961 . S
C1067 H1055 0.959 . S
C1067 C1065 1.561 1_655 S
C1068 C1065 1.526 1_655 S
C1068 C1069 1.396 . S
C1068 C1073 1.390 . S
C1069 C1063 1.465 1_655 S
C1069 C1068 1.396 . S
C1069 C1070 1.399 . S
C1070 H1056 0.929 . S
C1070 C1069 1.399 . S
C1070 C1071 1.385 . S
C1071 H1057 0.931 . S
C1071 C1070 1.385 . S
C1071 C1072 1.389 . S
C1072 C1071 1.389 . S
C1072 C1073 1.387 . S
C1073 H1058 0.930 . S
C1073 C1068 1.390 . S
C1073 C1072 1.387 . S
H1074 C1086 0.930 . S
H1075 C1088 0.930 . S
H1076 C1089 0.930 1_545 S
H1077 C1093 0.959 . S
H1078 C1093 0.959 . S
H1079 C1093 0.961 . S
H1080 C1094 0.960 . S
H1081 C1094 0.961 1_545 S
H1082 C1094 0.959 1_545 S
H1083 C1097 0.929 . S
H1084 C1098 0.931 . S
H1085 C1100 0.930 . S
C1086 H1074 0.930 . S
C1086 C1087 1.399 . S
C1086 C1091 1.399 . S
C1087 C1086 1.399 . S
C1087 C1088 1.376 . S
C1088 H1075 0.930 . S
C1088 C1087 1.376 . S
C1088 C1089 1.388 . S
C1089 H1076 0.930 1_565 S
C1089 C1088 1.388 . S
C1089 C1090 1.390 . S
C1090 C1089 1.390 . S
C1090 C1091 1.394 . S
C1090 C1096 1.465 1_565 S
C1091 C1086 1.399 . S
C1091 C1090 1.394 . S
C1091 C1092 1.516 . S
C1092 C1091 1.516 . S
C1092 C1093 1.502 . S
C1092 C1094 1.561 . S
C1092 C1095 1.526 1_565 S
C1093 H1077 0.959 . S
C1093 H1078 0.959 . S
C1093 H1079 0.961 . S
C1093 C1092 1.502 . S
C1094 H1080 0.960 . S
C1094 H1081 0.961 1_565 S
C1094 H1082 0.959 1_565 S
C1094 C1092 1.561 . S
C1095 C1092 1.526 1_545 S
C1095 C1096 1.396 . S
C1095 C1100 1.390 . S
C1096 C1090 1.465 1_545 S
C1096 C1095 1.396 . S
C1096 C1097 1.399 . S
C1097 H1083 0.929 . S
C1097 C1096 1.399 . S
C1097 C1098 1.385 . S
C1098 H1084 0.931 . S
C1098 C1097 1.385 . S
C1098 C1099 1.389 . S
C1099 C1098 1.389 . S
C1099 C1100 1.387 . S
C1100 H1085 0.930 . S
C1100 C1095 1.390 . S
C1100 C1099 1.387 . S
H1101 C1113 0.930 . S
H1102 C1115 0.930 . S
H1103 C1116 0.930 . S
H1104 C1120 0.959 . S
H1105 C1120 0.959 1_556 S
H1106 C1120 0.961 1_556 S
H1107 C1121 0.960 1_556 S
H1108 C1121 0.961 1_556 S
H1109 C1121 0.959 . S
H1110 C1124 0.929 . S
H1111 C1125 0.931 . S
H1112 C1127 0.930 . S
C1113 H1101 0.930 . S
C1113 C1114 1.399 . S
C1113 C1118 1.399 . S
C1114 C1113 1.399 . S
C1114 C1115 1.376 . S
C1115 H1102 0.930 . S
C1115 C1114 1.376 . S
C1115 C1116 1.388 . S
C1116 H1103 0.930 . S
C1116 C1115 1.388 . S
C1116 C1117 1.390 . S
C1117 C1116 1.390 . S
C1117 C1118 1.394 . S
C1117 C1123 1.465 . S
C1118 C1113 1.399 . S
C1118 C1117 1.394 . S
C1118 C1119 1.516 . S
C1119 C1118 1.516 . S
C1119 C1120 1.502 . S
C1119 C1121 1.561 . S
C1119 C1122 1.526 . S
C1120 H1104 0.959 . S
C1120 H1105 0.959 1_554 S
C1120 H1106 0.961 1_554 S
C1120 C1119 1.502 . S
C1121 H1107 0.960 1_554 S
C1121 H1108 0.961 1_554 S
C1121 H1109 0.959 . S
C1121 C1119 1.561 . S
C1122 C1119 1.526 . S
C1122 C1123 1.396 . S
C1122 C1127 1.390 . S
C1123 C1117 1.465 . S
C1123 C1122 1.396 . S
C1123 C1124 1.399 . S
C1124 H1110 0.929 . S
C1124 C1123 1.399 . S
C1124 C1125 1.385 . S
C1125 H1111 0.931 . S
C1125 C1124 1.385 . S
C1125 C1126 1.389 . S
C1126 C1125 1.389 . S
C1126 C1127 1.387 . S
C1127 H1112 0.930 . S
C1127 C1122 1.390 . S
C1127 C1126 1.387 . S
H1128 C1140 0.930 . S
H1129 C1142 0.930 . S
H1130 C1143 0.930 . S
H1131 C1147 0.959 . S
H1132 C1147 0.959 1_545 S
H1133 C1147 0.961 . S
H1134 C1148 0.960 . S
H1135 C1148 0.961 . S
H1136 C1148 0.959 . S
H1137 C1151 0.929 . S
H1138 C1152 0.931 . S
H1139 C1154 0.930 . S
C1140 H1128 0.930 . S
C1140 C1141 1.399 . S
C1140 C1145 1.399 . S
C1141 C1140 1.399 . S
C1141 C1142 1.376 . S
C1142 H1129 0.930 . S
C1142 C1141 1.376 . S
C1142 C1143 1.388 . S
C1143 H1130 0.930 . S
C1143 C1142 1.388 . S
C1143 C1144 1.390 . S
C1144 C1143 1.390 . S
C1144 C1145 1.394 . S
C1144 C1150 1.465 1_565 S
C1145 C1140 1.399 . S
C1145 C1144 1.394 . S
C1145 C1146 1.516 1_565 S
C1146 C1145 1.516 1_545 S
C1146 C1147 1.502 1_545 S
C1146 C1148 1.561 . S
C1146 C1149 1.526 . S
C1147 H1131 0.959 . S
C1147 H1132 0.959 1_565 S
C1147 H1133 0.961 . S
C1147 C1146 1.502 1_565 S
C1148 H1134 0.960 . S
C1148 H1135 0.961 . S
C1148 H1136 0.959 . S
C1148 C1146 1.561 . S
C1149 C1146 1.526 . S
C1149 C1150 1.396 . S
C1149 C1154 1.390 . S
C1150 C1144 1.465 1_545 S
C1150 C1149 1.396 . S
C1150 C1151 1.399 . S
C1151 H1137 0.929 . S
C1151 C1150 1.399 . S
C1151 C1152 1.385 . S
C1152 H1138 0.931 . S
C1152 C1151 1.385 . S
C1152 C1153 1.389 . S
C1153 C1152 1.389 . S
C1153 C1154 1.387 . S
C1154 H1139 0.930 . S
C1154 C1149 1.390 . S
C1154 C1153 1.387 . S
H1155 C1167 0.930 . S
H1156 C1169 0.930 . S
H1157 C1170 0.930 . S
H1158 C1174 0.959 . S
H1159 C1174 0.959 . S
H1160 C1174 0.961 . S
H1161 C1175 0.960 . S
H1162 C1175 0.961 . S
H1163 C1175 0.959 . S
H1164 C1178 0.929 . S
H1165 C1179 0.931 . S
H1166 C1181 0.930 . S
C1167 H1155 0.930 . S
C1167 C1168 1.399 . S
C1167 C1172 1.399 . S
C1168 C1167 1.399 . S
C1168 C1169 1.376 . S
C1169 H1156 0.930 . S
C1169 C1168 1.376 . S
C1169 C1170 1.388 . S
C1170 H1157 0.930 . S
C1170 C1169 1.388 . S
C1170 C1171 1.390 . S
C1171 C1170 1.390 . S
C1171 C1172 1.394 . S
C1171 C1177 1.465 . S
C1172 C1167 1.399 . S
C1172 C1171 1.394 . S
C1172 C1173 1.516 . S
C1173 C1172 1.516 . S
C1173 C1174 1.502 . S
C1173 C1175 1.561 . S
C1173 C1176 1.526 . S
C1174 H1158 0.959 . S
C1174 H1159 0.959 . S
C1174 H1160 0.961 . S
C1174 C1173 1.502 . S
C1175 H1161 0.960 . S
C1175 H1162 0.961 . S
C1175 H1163 0.959 . S
C1175 C1173 1.561 . S
C1176 C1173 1.526 . S
C1176 C1177 1.396 . S
C1176 C1181 1.390 . S
C1177 C1171 1.465 . S
C1177 C1176 1.396 . S
C1177 C1178 1.399 . S
C1178 H1164 0.929 . S
C1178 C1177 1.399 . S
C1178 C1179 1.385 . S
C1179 H1165 0.931 . S
C1179 C1178 1.385 . S
C1179 C1180 1.389 . S
C1180 C1179 1.389 . S
C1180 C1181 1.387 . S
C1181 H1166 0.930 . S
C1181 C1176 1.390 . S
C1181 C1180 1.387 . S
H1182 C1194 0.930 . S
H1183 C1196 0.930 . S
H1184 C1197 0.930 1_455 S
H1185 C1201 0.959 . S
H1186 C1201 0.959 . S
H1187 C1201 0.961 . S
H1188 C1202 0.960 . S
H1189 C1202 0.961 . S
H1190 C1202 0.959 1_455 S
H1191 C1205 0.929 . S
H1192 C1206 0.931 . S
H1193 C1208 0.930 . S
C1194 H1182 0.930 . S
C1194 C1195 1.399 . S
C1194 C1199 1.399 . S
C1195 C1194 1.399 . S
C1195 C1196 1.376 . S
C1196 H1183 0.930 . S
C1196 C1195 1.376 . S
C1196 C1197 1.388 . S
C1197 H1184 0.930 1_655 S
C1197 C1196 1.388 . S
C1197 C1198 1.390 . S
C1198 C1197 1.390 . S
C1198 C1199 1.394 . S
C1198 C1204 1.465 1_655 S
C1199 C1194 1.399 . S
C1199 C1198 1.394 . S
C1199 C1200 1.516 . S
C1200 C1199 1.516 . S
C1200 C1201 1.502 . S
C1200 C1202 1.561 . S
C1200 C1203 1.526 1_655 S
C1201 H1185 0.959 . S
C1201 H1186 0.959 . S
C1201 H1187 0.961 . S
C1201 C1200 1.502 . S
C1202 H1188 0.960 . S
C1202 H1189 0.961 . S
C1202 H1190 0.959 1_655 S
C1202 C1200 1.561 . S
C1203 C1200 1.526 1_455 S
C1203 C1204 1.396 . S
C1203 C1208 1.390 . S
C1204 C1198 1.465 1_455 S
C1204 C1203 1.396 . S
C1204 C1205 1.399 . S
C1205 H1191 0.929 . S
C1205 C1204 1.399 . S
C1205 C1206 1.385 . S
C1206 H1192 0.931 . S
C1206 C1205 1.385 . S
C1206 C1207 1.389 . S
C1207 C1206 1.389 . S
C1207 C1208 1.387 . S
C1208 H1193 0.930 . S
C1208 C1203 1.390 . S
C1208 C1207 1.387 . S
H1209 C1221 0.930 . S
H1210 C1223 0.930 . S
H1211 C1224 0.930 . S
H1212 C1228 0.959 1_545 S
H1213 C1228 0.959 . S
H1214 C1228 0.961 1_545 S
H1215 C1229 0.960 . S
H1216 C1229 0.961 . S
H1217 C1229 0.959 . S
H1218 C1232 0.929 . S
H1219 C1233 0.931 . S
H1220 C1235 0.930 . S
C1221 H1209 0.930 . S
C1221 C1222 1.399 . S
C1221 C1226 1.399 . S
C1222 C1221 1.399 . S
C1222 C1223 1.376 . S
C1223 H1210 0.930 . S
C1223 C1222 1.376 . S
C1223 C1224 1.388 . S
C1224 H1211 0.930 . S
C1224 C1223 1.388 . S
C1224 C1225 1.390 . S
C1225 C1224 1.390 . S
C1225 C1226 1.394 . S
C1225 C1231 1.465 1_545 S
C1226 C1221 1.399 . S
C1226 C1225 1.394 . S
C1226 C1227 1.516 1_545 S
C1227 C1226 1.516 1_565 S
C1227 C1228 1.502 . S
C1227 C1229 1.561 . S
C1227 C1230 1.526 . S
C1228 H1212 0.959 1_565 S
C1228 H1213 0.959 . S
C1228 H1214 0.961 1_565 S
C1228 C1227 1.502 . S
C1229 H1215 0.960 . S
C1229 H1216 0.961 . S
C1229 H1217 0.959 . S
C1229 C1227 1.561 . S
C1230 C1227 1.526 . S
C1230 C1231 1.396 . S
C1230 C1235 1.390 . S
C1231 C1225 1.465 1_565 S
C1231 C1230 1.396 . S
C1231 C1232 1.399 . S
C1232 H1218 0.929 . S
C1232 C1231 1.399 . S
C1232 C1233 1.385 . S
C1233 H1219 0.931 . S
C1233 C1232 1.385 . S
C1233 C1234 1.389 . S
C1234 C1233 1.389 . S
C1234 C1235 1.387 . S
C1235 H1220 0.930 . S
C1235 C1230 1.390 . S
C1235 C1234 1.387 . S
H1236 C1248 0.930 . S
H1237 C1250 0.930 . S
H1238 C1251 0.930 . S
H1239 C1255 0.959 . S
H1240 C1255 0.959 . S
H1241 C1255 0.961 . S
H1242 C1256 0.960 . S
H1243 C1256 0.961 . S
H1244 C1256 0.959 . S
H1245 C1259 0.929 . S
H1246 C1260 0.931 . S
H1247 C1262 0.930 . S
C1248 H1236 0.930 . S
C1248 C1249 1.399 . S
C1248 C1253 1.399 . S
C1249 C1248 1.399 . S
C1249 C1250 1.376 . S
C1250 H1237 0.930 . S
C1250 C1249 1.376 . S
C1250 C1251 1.388 . S
C1251 H1238 0.930 . S
C1251 C1250 1.388 . S
C1251 C1252 1.390 . S
C1252 C1251 1.390 . S
C1252 C1253 1.394 . S
C1252 C1258 1.465 . S
C1253 C1248 1.399 . S
C1253 C1252 1.394 . S
C1253 C1254 1.516 . S
C1254 C1253 1.516 . S
C1254 C1255 1.502 . S
C1254 C1256 1.561 . S
C1254 C1257 1.526 . S
C1255 H1239 0.959 . S
C1255 H1240 0.959 . S
C1255 H1241 0.961 . S
C1255 C1254 1.502 . S
C1256 H1242 0.960 . S
C1256 H1243 0.961 . S
C1256 H1244 0.959 . S
C1256 C1254 1.561 . S
C1257 C1254 1.526 . S
C1257 C1258 1.396 . S
C1257 C1262 1.390 . S
C1258 C1252 1.465 . S
C1258 C1257 1.396 . S
C1258 C1259 1.399 . S
C1259 H1245 0.929 . S
C1259 C1258 1.399 . S
C1259 C1260 1.385 . S
C1260 H1246 0.931 . S
C1260 C1259 1.385 . S
C1260 C1261 1.389 . S
C1261 C1260 1.389 . S
C1261 C1262 1.387 . S
C1262 H1247 0.930 . S
C1262 C1257 1.390 . S
C1262 C1261 1.387 . S
H1263 C1275 0.930 . S
H1264 C1277 0.930 . S
H1265 C1278 0.930 1_655 S
H1266 C1282 0.959 . S
H1267 C1282 0.959 . S
H1268 C1282 0.961 . S
H1269 C1283 0.960 . S
H1270 C1283 0.961 1_655 S
H1271 C1283 0.959 1_655 S
H1272 C1286 0.929 . S
H1273 C1287 0.931 . S
H1274 C1289 0.930 . S
C1275 H1263 0.930 . S
C1275 C1276 1.399 . S
C1275 C1280 1.399 . S
C1276 C1275 1.399 . S
C1276 C1277 1.376 . S
C1277 H1264 0.930 . S
C1277 C1276 1.376 . S
C1277 C1278 1.388 . S
C1278 H1265 0.930 1_455 S
C1278 C1277 1.388 . S
C1278 C1279 1.390 . S
C1279 C1278 1.390 . S
C1279 C1280 1.394 . S
C1279 C1285 1.465 1_455 S
C1280 C1275 1.399 . S
C1280 C1279 1.394 . S
C1280 C1281 1.516 . S
C1281 C1280 1.516 . S
C1281 C1282 1.502 . S
C1281 C1283 1.561 . S
C1281 C1284 1.526 1_455 S
C1282 H1266 0.959 . S
C1282 H1267 0.959 . S
C1282 H1268 0.961 . S
C1282 C1281 1.502 . S
C1283 H1269 0.960 . S
C1283 H1270 0.961 1_455 S
C1283 H1271 0.959 1_455 S
C1283 C1281 1.561 . S
C1284 C1281 1.526 1_655 S
C1284 C1285 1.396 . S
C1284 C1289 1.390 . S
C1285 C1279 1.465 1_655 S
C1285 C1284 1.396 . S
C1285 C1286 1.399 . S
C1286 H1272 0.929 . S
C1286 C1285 1.399 . S
C1286 C1287 1.385 . S
C1287 H1273 0.931 . S
C1287 C1286 1.385 . S
C1287 C1288 1.389 . S
C1288 C1287 1.389 . S
C1288 C1289 1.387 . S
C1289 H1274 0.930 . S
C1289 C1284 1.390 . S
C1289 C1288 1.387 . S
H1290 C1302 0.930 . S
H1291 C1304 0.930 . S
H1292 C1305 0.930 . S
H1293 C1309 0.959 . S
H1294 C1309 0.959 . S
H1295 C1309 0.961 . S
H1296 C1310 0.960 . S
H1297 C1310 0.961 . S
H1298 C1310 0.959 . S
H1299 C1313 0.929 . S
H1300 C1314 0.931 . S
H1301 C1316 0.930 . S
C1302 H1290 0.930 . S
C1302 C1303 1.399 . S
C1302 C1307 1.399 . S
C1303 C1302 1.399 . S
C1303 C1304 1.376 . S
C1304 H1291 0.930 . S
C1304 C1303 1.376 . S
C1304 C1305 1.388 . S
C1305 H1292 0.930 . S
C1305 C1304 1.388 . S
C1305 C1306 1.390 . S
C1306 C1305 1.390 . S
C1306 C1307 1.394 . S
C1306 C1312 1.465 . S
C1307 C1302 1.399 . S
C1307 C1306 1.394 . S
C1307 C1308 1.516 . S
C1308 C1307 1.516 . S
C1308 C1309 1.502 . S
C1308 C1310 1.561 . S
C1308 C1311 1.526 . S
C1309 H1293 0.959 . S
C1309 H1294 0.959 . S
C1309 H1295 0.961 . S
C1309 C1308 1.502 . S
C1310 H1296 0.960 . S
C1310 H1297 0.961 . S
C1310 H1298 0.959 . S
C1310 C1308 1.561 . S
C1311 C1308 1.526 . S
C1311 C1312 1.396 . S
C1311 C1316 1.390 . S
C1312 C1306 1.465 . S
C1312 C1311 1.396 . S
C1312 C1313 1.399 . S
C1313 H1299 0.929 . S
C1313 C1312 1.399 . S
C1313 C1314 1.385 . S
C1314 H1300 0.931 . S
C1314 C1313 1.385 . S
C1314 C1315 1.389 . S
C1315 C1314 1.389 . S
C1315 C1316 1.387 . S
C1316 H1301 0.930 . S
C1316 C1311 1.390 . S
C1316 C1315 1.387 . S
H1317 C1329 0.930 . S
H1318 C1331 0.930 . S
H1319 C1332 0.930 . S
H1320 C1336 0.959 . S
H1321 C1336 0.959 . S
H1322 C1336 0.961 . S
H1323 C1337 0.960 . S
H1324 C1337 0.961 . S
H1325 C1337 0.959 . S
H1326 C1340 0.929 . S
H1327 C1341 0.931 . S
H1328 C1343 0.930 . S
C1329 H1317 0.930 . S
C1329 C1330 1.399 . S
C1329 C1334 1.399 . S
C1330 C1329 1.399 . S
C1330 C1331 1.376 . S
C1331 H1318 0.930 . S
C1331 C1330 1.376 . S
C1331 C1332 1.388 . S
C1332 H1319 0.930 . S
C1332 C1331 1.388 . S
C1332 C1333 1.390 . S
C1333 C1332 1.390 . S
C1333 C1334 1.394 . S
C1333 C1339 1.465 . S
C1334 C1329 1.399 . S
C1334 C1333 1.394 . S
C1334 C1335 1.516 . S
C1335 C1334 1.516 . S
C1335 C1336 1.502 . S
C1335 C1337 1.561 . S
C1335 C1338 1.526 . S
C1336 H1320 0.959 . S
C1336 H1321 0.959 . S
C1336 H1322 0.961 . S
C1336 C1335 1.502 . S
C1337 H1323 0.960 . S
C1337 H1324 0.961 . S
C1337 H1325 0.959 . S
C1337 C1335 1.561 . S
C1338 C1335 1.526 . S
C1338 C1339 1.396 . S
C1338 C1343 1.390 . S
C1339 C1333 1.465 . S
C1339 C1338 1.396 . S
C1339 C1340 1.399 . S
C1340 H1326 0.929 . S
C1340 C1339 1.399 . S
C1340 C1341 1.385 . S
C1341 H1327 0.931 . S
C1341 C1340 1.385 . S
C1341 C1342 1.389 . S
C1342 C1341 1.389 . S
C1342 C1343 1.387 . S
C1343 H1328 0.930 . S
C1343 C1338 1.390 . S
C1343 C1342 1.387 . S
H1344 C1356 0.930 . S
H1345 C1358 0.930 . S
H1346 C1359 0.930 . S
H1347 C1363 0.959 . S
H1348 C1363 0.959 . S
H1349 C1363 0.961 . S
H1350 C1364 0.960 . S
H1351 C1364 0.961 . S
H1352 C1364 0.959 . S
H1353 C1367 0.929 . S
H1354 C1368 0.931 . S
H1355 C1370 0.930 . S
C1356 H1344 0.930 . S
C1356 C1357 1.399 . S
C1356 C1361 1.399 . S
C1357 C1356 1.399 . S
C1357 C1358 1.376 . S
C1358 H1345 0.930 . S
C1358 C1357 1.376 . S
C1358 C1359 1.388 . S
C1359 H1346 0.930 . S
C1359 C1358 1.388 . S
C1359 C1360 1.390 . S
C1360 C1359 1.390 . S
C1360 C1361 1.394 . S
C1360 C1366 1.465 . S
C1361 C1356 1.399 . S
C1361 C1360 1.394 . S
C1361 C1362 1.516 . S
C1362 C1361 1.516 . S
C1362 C1363 1.502 . S
C1362 C1364 1.561 . S
C1362 C1365 1.526 . S
C1363 H1347 0.959 . S
C1363 H1348 0.959 . S
C1363 H1349 0.961 . S
C1363 C1362 1.502 . S
C1364 H1350 0.960 . S
C1364 H1351 0.961 . S
C1364 H1352 0.959 . S
C1364 C1362 1.561 . S
C1365 C1362 1.526 . S
C1365 C1366 1.396 . S
C1365 C1370 1.390 . S
C1366 C1360 1.465 . S
C1366 C1365 1.396 . S
C1366 C1367 1.399 . S
C1367 H1353 0.929 . S
C1367 C1366 1.399 . S
C1367 C1368 1.385 . S
C1368 H1354 0.931 . S
C1368 C1367 1.385 . S
C1368 C1369 1.389 . S
C1369 C1368 1.389 . S
C1369 C1370 1.387 . S
C1370 H1355 0.930 . S
C1370 C1365 1.390 . S
C1370 C1369 1.387 . S
H1371 C1383 0.930 . S
H1372 C1385 0.930 . S
H1373 C1386 0.930 . S
H1374 C1390 0.959 . S
H1375 C1390 0.959 . S
H1376 C1390 0.961 . S
H1377 C1391 0.960 . S
H1378 C1391 0.961 . S
H1379 C1391 0.959 . S
H1380 C1394 0.929 . S
H1381 C1395 0.931 . S
H1382 C1397 0.930 . S
C1383 H1371 0.930 . S
C1383 C1384 1.399 . S
C1383 C1388 1.399 . S
C1384 C1383 1.399 . S
C1384 C1385 1.376 . S
C1385 H1372 0.930 . S
C1385 C1384 1.376 . S
C1385 C1386 1.388 . S
C1386 H1373 0.930 . S
C1386 C1385 1.388 . S
C1386 C1387 1.390 . S
C1387 C1386 1.390 . S
C1387 C1388 1.394 . S
C1387 C1393 1.465 . S
C1388 C1383 1.399 . S
C1388 C1387 1.394 . S
C1388 C1389 1.516 . S
C1389 C1388 1.516 . S
C1389 C1390 1.502 . S
C1389 C1391 1.561 . S
C1389 C1392 1.526 . S
C1390 H1374 0.959 . S
C1390 H1375 0.959 . S
C1390 H1376 0.961 . S
C1390 C1389 1.502 . S
C1391 H1377 0.960 . S
C1391 H1378 0.961 . S
C1391 H1379 0.959 . S
C1391 C1389 1.561 . S
C1392 C1389 1.526 . S
C1392 C1393 1.396 . S
C1392 C1397 1.390 . S
C1393 C1387 1.465 . S
C1393 C1392 1.396 . S
C1393 C1394 1.399 . S
C1394 H1380 0.929 . S
C1394 C1393 1.399 . S
C1394 C1395 1.385 . S
C1395 H1381 0.931 . S
C1395 C1394 1.385 . S
C1395 C1396 1.389 . S
C1396 C1395 1.389 . S
C1396 C1397 1.387 . S
C1397 H1382 0.930 . S
C1397 C1392 1.390 . S
C1397 C1396 1.387 . S
H1398 C1410 0.930 . S
H1399 C1412 0.930 . S
H1400 C1413 0.930 . S
H1401 C1417 0.959 . S
H1402 C1417 0.959 . S
H1403 C1417 0.961 . S
H1404 C1418 0.960 . S
H1405 C1418 0.961 . S
H1406 C1418 0.959 . S
H1407 C1421 0.929 . S
H1408 C1422 0.931 . S
H1409 C1424 0.930 . S
C1410 H1398 0.930 . S
C1410 C1411 1.399 . S
C1410 C1415 1.399 . S
C1411 C1410 1.399 . S
C1411 C1412 1.376 . S
C1412 H1399 0.930 . S
C1412 C1411 1.376 . S
C1412 C1413 1.388 . S
C1413 H1400 0.930 . S
C1413 C1412 1.388 . S
C1413 C1414 1.390 . S
C1414 C1413 1.390 . S
C1414 C1415 1.394 . S
C1414 C1420 1.465 . S
C1415 C1410 1.399 . S
C1415 C1414 1.394 . S
C1415 C1416 1.516 . S
C1416 C1415 1.516 . S
C1416 C1417 1.502 . S
C1416 C1418 1.561 . S
C1416 C1419 1.526 . S
C1417 H1401 0.959 . S
C1417 H1402 0.959 . S
C1417 H1403 0.961 . S
C1417 C1416 1.502 . S
C1418 H1404 0.960 . S
C1418 H1405 0.961 . S
C1418 H1406 0.959 . S
C1418 C1416 1.561 . S
C1419 C1416 1.526 . S
C1419 C1420 1.396 . S
C1419 C1424 1.390 . S
C1420 C1414 1.465 . S
C1420 C1419 1.396 . S
C1420 C1421 1.399 . S
C1421 H1407 0.929 . S
C1421 C1420 1.399 . S
C1421 C1422 1.385 . S
C1422 H1408 0.931 . S
C1422 C1421 1.385 . S
C1422 C1423 1.389 . S
C1423 C1422 1.389 . S
C1423 C1424 1.387 . S
C1424 H1409 0.930 . S
C1424 C1419 1.390 . S
C1424 C1423 1.387 . S
H1425 C1437 0.930 . S
H1426 C1439 0.930 . S
H1427 C1440 0.930 . S
H1428 C1444 0.959 . S
H1429 C1444 0.959 . S
H1430 C1444 0.961 . S
H1431 C1445 0.960 . S
H1432 C1445 0.961 . S
H1433 C1445 0.959 . S
H1434 C1448 0.929 . S
H1435 C1449 0.931 . S
H1436 C1451 0.930 . S
C1437 H1425 0.930 . S
C1437 C1438 1.399 . S
C1437 C1442 1.399 . S
C1438 C1437 1.399 . S
C1438 C1439 1.376 . S
C1439 H1426 0.930 . S
C1439 C1438 1.376 . S
C1439 C1440 1.388 . S
C1440 H1427 0.930 . S
C1440 C1439 1.388 . S
C1440 C1441 1.390 . S
C1441 C1440 1.390 . S
C1441 C1442 1.394 . S
C1441 C1447 1.465 . S
C1442 C1437 1.399 . S
C1442 C1441 1.394 . S
C1442 C1443 1.516 . S
C1443 C1442 1.516 . S
C1443 C1444 1.502 . S
C1443 C1445 1.561 . S
C1443 C1446 1.526 . S
C1444 H1428 0.959 . S
C1444 H1429 0.959 . S
C1444 H1430 0.961 . S
C1444 C1443 1.502 . S
C1445 H1431 0.960 . S
C1445 H1432 0.961 . S
C1445 H1433 0.959 . S
C1445 C1443 1.561 . S
C1446 C1443 1.526 . S
C1446 C1447 1.396 . S
C1446 C1451 1.390 . S
C1447 C1441 1.465 . S
C1447 C1446 1.396 . S
C1447 C1448 1.399 . S
C1448 H1434 0.929 . S
C1448 C1447 1.399 . S
C1448 C1449 1.385 . S
C1449 H1435 0.931 . S
C1449 C1448 1.385 . S
C1449 C1450 1.389 . S
C1450 C1449 1.389 . S
C1450 C1451 1.387 . S
C1451 H1436 0.930 . S
C1451 C1446 1.390 . S
C1451 C1450 1.387 . S
C493 C2 0.901 . S
C505 C322 0.946 . S
C520 C42 0.963 . S
C532 C362 0.926 . S
C547 C82 0.922 . S
C559 C402 0.903 . S
C574 C442 0.921 . S
C586 C122 0.905 . S
C601 C162 0.963 . S
C613 C242 0.926 . S
C628 C282 0.922 . S
C640 C202 0.961 . S
C655 C417 1.430 . S
C667 C17 1.420 . S
C682 C457 1.384 . S
C694 C57 1.379 . S
C709 C97 1.409 . S
C721 C257 1.423 . S
C736 C297 1.431 . S
C748 C137 1.426 . S
C763 C337 1.382 . S
C775 C177 1.379 . S
C790 C217 1.393 . S
C802 C377 1.409 . S
C817 C304 4.413 . S
C829 C24 4.424 . S
C844 C344 4.418 . S
C856 C64 4.414 . S
C871 C384 4.429 . S
C883 C104 4.416 . S
C898 C144 4.432 . S
C910 C424 4.418 . S
C925 C184 4.420 . S
C937 C464 4.434 . S
C952 C224 4.429 . S
C964 C264 4.437 . S
C979 C23 0.729 . S
C991 C143 0.641 . S
C1006 C63 0.740 . S
C1018 C183 0.814 . S
C1033 C103 0.726 . S
C1045 C223 0.641 . S
C1060 C383 0.724 . S
C1072 C263 0.642 . S
C1087 C303 0.756 . S
C1099 C423 0.639 . S
C1114 C463 0.712 . S
C1126 C343 0.646 . S
C1141 C306 0.824 . S
C1153 C26 0.849 . S
C1168 C346 0.817 . S
C1180 C66 0.880 . S
C1195 C106 0.830 . S
C1207 C386 0.920 . S
C1222 C426 0.848 . S
C1234 C146 0.825 . S
C1249 C466 0.953 . S
C1261 C186 0.857 . S
C1276 C226 0.822 . S
C1288 C266 0.902 . S
C1303 C13 4.566 . S
C1315 C413 4.568 . S
C1330 C53 4.558 . S
C1342 C453 4.557 1_556 S
C1357 C93 4.568 1_554 S
C1369 C253 4.568 . S
C1384 C133 4.559 . S
C1396 C293 4.558 . S
C1411 C173 4.563 . S
C1423 C333 4.561 1_556 S
C1438 C373 4.562 . S
C1450 C213 4.564 1_554 S
