# Generated by pormake.
# Topology unu, (4)-cn, num edge types: 1
# Building blocks:
#     Node 0, Type 0, BuildingBlock: QUQFOY_clean_sbu_3, # of connection points: 4
#     Node 1, Type 0, BuildingBlock: QUQFOY_clean_sbu_3, # of connection points: 4
#     Node 2, Type 0, BuildingBlock: QUQFOY_clean_sbu_3, # of connection points: 4
#     Node 3, Type 0, BuildingBlock: QUQFOY_clean_sbu_3, # of connection points: 4
#     Node 4, Type 0, BuildingBlock: QUQFOY_clean_sbu_3, # of connection points: 4
#     Node 5, Type 0, BuildingBlock: QUQFOY_clean_sbu_3, # of connection points: 4
#     Node 6, Type 0, BuildingBlock: QUQFOY_clean_sbu_3, # of connection points: 4
#     Node 7, Type 0, BuildingBlock: QUQFOY_clean_sbu_3, # of connection points: 4
#     Node 8, Type 0, BuildingBlock: QUQFOY_clean_sbu_3, # of connection points: 4
#     Node 9, Type 0, BuildingBlock: QUQFOY_clean_sbu_3, # of connection points: 4
#     Node 10, Type 0, BuildingBlock: QUQFOY_clean_sbu_3, # of connection points: 4
#     Node 11, Type 0, BuildingBlock: QUQFOY_clean_sbu_3, # of connection points: 4
#     Node 12, Type 0, BuildingBlock: QUQFOY_clean_sbu_3, # of connection points: 4
#     Node 13, Type 0, BuildingBlock: QUQFOY_clean_sbu_3, # of connection points: 4
#     Node 14, Type 0, BuildingBlock: QUQFOY_clean_sbu_3, # of connection points: 4
#     Node 15, Type 0, BuildingBlock: QUQFOY_clean_sbu_3, # of connection points: 4
#     Node 16, Type 0, BuildingBlock: QUQFOY_clean_sbu_3, # of connection points: 4
#     Node 17, Type 0, BuildingBlock: QUQFOY_clean_sbu_3, # of connection points: 4
#     Node 18, Type 0, BuildingBlock: QUQFOY_clean_sbu_3, # of connection points: 4
#     Node 19, Type 0, BuildingBlock: QUQFOY_clean_sbu_3, # of connection points: 4
#     Node 20, Type 0, BuildingBlock: QUQFOY_clean_sbu_3, # of connection points: 4
#     Node 21, Type 0, BuildingBlock: QUQFOY_clean_sbu_3, # of connection points: 4
#     Node 22, Type 0, BuildingBlock: QUQFOY_clean_sbu_3, # of connection points: 4
#     Node 23, Type 0, BuildingBlock: QUQFOY_clean_sbu_3, # of connection points: 4
#     Node 24, Type 0, BuildingBlock: QUQFOY_clean_sbu_3, # of connection points: 4
#     Node 25, Type 0, BuildingBlock: QUQFOY_clean_sbu_3, # of connection points: 4
#     Node 26, Type 0, BuildingBlock: QUQFOY_clean_sbu_3, # of connection points: 4
#     Node 27, Type 0, BuildingBlock: QUQFOY_clean_sbu_3, # of connection points: 4
#     Node 28, Type 0, BuildingBlock: QUQFOY_clean_sbu_3, # of connection points: 4
#     Node 29, Type 0, BuildingBlock: QUQFOY_clean_sbu_3, # of connection points: 4
#     Node 30, Type 0, BuildingBlock: QUQFOY_clean_sbu_3, # of connection points: 4
#     Node 31, Type 0, BuildingBlock: QUQFOY_clean_sbu_3, # of connection points: 4
#     Node 32, Type 0, BuildingBlock: QUQFOY_clean_sbu_3, # of connection points: 4
#     Node 33, Type 0, BuildingBlock: QUQFOY_clean_sbu_3, # of connection points: 4
#     Node 34, Type 0, BuildingBlock: QUQFOY_clean_sbu_3, # of connection points: 4
#     Node 35, Type 0, BuildingBlock: QUQFOY_clean_sbu_3, # of connection points: 4
#     Edge 36, Type (0, 0), None
#     Edge 37, Type (0, 0), None
#     Edge 38, Type (0, 0), None
#     Edge 39, Type (0, 0), None
#     Edge 40, Type (0, 0), None
#     Edge 41, Type (0, 0), None
#     Edge 42, Type (0, 0), None
#     Edge 43, Type (0, 0), None
#     Edge 44, Type (0, 0), None
#     Edge 45, Type (0, 0), None
#     Edge 46, Type (0, 0), None
#     Edge 47, Type (0, 0), None
#     Edge 48, Type (0, 0), None
#     Edge 49, Type (0, 0), None
#     Edge 50, Type (0, 0), None
#     Edge 51, Type (0, 0), None
#     Edge 52, Type (0, 0), None
#     Edge 53, Type (0, 0), None
#     Edge 54, Type (0, 0), None
#     Edge 55, Type (0, 0), None
#     Edge 56, Type (0, 0), None
#     Edge 57, Type (0, 0), None
#     Edge 58, Type (0, 0), None
#     Edge 59, Type (0, 0), None
#     Edge 60, Type (0, 0), None
#     Edge 61, Type (0, 0), None
#     Edge 62, Type (0, 0), None
#     Edge 63, Type (0, 0), None
#     Edge 64, Type (0, 0), None
#     Edge 65, Type (0, 0), None
#     Edge 66, Type (0, 0), None
#     Edge 67, Type (0, 0), None
#     Edge 68, Type (0, 0), None
#     Edge 69, Type (0, 0), None
#     Edge 70, Type (0, 0), None
#     Edge 71, Type (0, 0), None
#     Edge 72, Type (0, 0), None
#     Edge 73, Type (0, 0), None
#     Edge 74, Type (0, 0), None
#     Edge 75, Type (0, 0), None
#     Edge 76, Type (0, 0), None
#     Edge 77, Type (0, 0), None
#     Edge 78, Type (0, 0), None
#     Edge 79, Type (0, 0), None
#     Edge 80, Type (0, 0), None
#     Edge 81, Type (0, 0), None
#     Edge 82, Type (0, 0), None
#     Edge 83, Type (0, 0), None
#     Edge 84, Type (0, 0), None
#     Edge 85, Type (0, 0), None
#     Edge 86, Type (0, 0), None
#     Edge 87, Type (0, 0), None
#     Edge 88, Type (0, 0), None
#     Edge 89, Type (0, 0), None
#     Edge 90, Type (0, 0), None
#     Edge 91, Type (0, 0), None
#     Edge 92, Type (0, 0), None
#     Edge 93, Type (0, 0), None
#     Edge 94, Type (0, 0), None
#     Edge 95, Type (0, 0), None
#     Edge 96, Type (0, 0), None
#     Edge 97, Type (0, 0), None
#     Edge 98, Type (0, 0), None
#     Edge 99, Type (0, 0), None
#     Edge 100, Type (0, 0), None
#     Edge 101, Type (0, 0), None
#     Edge 102, Type (0, 0), None
#     Edge 103, Type (0, 0), None
#     Edge 104, Type (0, 0), None
#     Edge 105, Type (0, 0), None
#     Edge 106, Type (0, 0), None
#     Edge 107, Type (0, 0), None
# Relax obj value: 0.182
# Max RMSD: 0.235
# Mean RMSD: 0.233
data_MOF--net-unu--node1-QUQFOY_clean_sbu_3--edge1-none
_symmetry_space_group_name_H-M    P1
_symmetry_Int_Tables_number       1
_symmetry_cell_setting            triclinic
loop_
_symmetry_equiv_pos_as_xyz
'x, y, z'
_cell_length_a     20.717077
_cell_length_b     20.716541
_cell_length_c     56.620743
_cell_angle_alpha  89.999595
_cell_angle_beta   89.998679
_cell_angle_gamma 119.9982
loop_
_atom_site_label
_atom_site_type_symbol
_atom_site_fract_x
_atom_site_fract_y
_atom_site_fract_z
_atom_type_partial_charge
C0 C 0.24137 0.11607 0.09945 0.0
O1 O 0.18765 0.06086 0.10963 0.0
Cd2 Cd 0.08022 0.98068 0.08827 0.0
O3 O 0.25024 0.11838 0.07711 0.0
Cd4 Cd 0.19858 0.03772 0.04142 0.0
C5 C 0.0976 0.11823 0.047 0.0
O6 O 0.11123 0.92296 0.05875 0.0
O7 O 0.08758 0.9329 0.0225 0.0
O8 O 0.30187 0.01495 0.04181 0.0
C9 C 0.06579 0.89661 0.04165 0.0
O10 O 0.07316 0.0749 0.06479 0.0
C11 C 0.31475 0.02573 0.01983 0.0
O12 O 0.14653 0.11874 0.03316 0.0
O13 O 0.27856 0.0501 0.00824 0.0
C14 C 0.84063 0.11627 0.09946 0.0
O15 O 0.89584 0.11776 0.10964 0.0
Cd16 Cd -0.02397 0.09051 0.08827 0.0
O17 O 0.83833 0.12284 0.07712 0.0
Cd18 Cd 0.919 0.15186 0.04143 0.0
C19 C 0.83849 0.97037 0.04701 0.0
O20 O 0.03376 0.17927 0.05876 0.0
O21 O 0.02379 0.14565 0.02249 0.0
O22 O 0.94177 0.27792 0.04182 0.0
C23 C 0.06005 0.16015 0.04165 0.0
O24 O 0.88181 -0.01076 0.0648 0.0
C25 C 0.93098 0.28001 0.01984 0.0
O26 O 0.83798 0.01879 0.03317 0.0
O27 O 0.90661 0.21947 0.00825 0.0
C28 C 0.84041 0.71533 0.09946 0.0
O29 O 0.83892 0.76905 0.10964 0.0
Cd30 Cd 0.86619 0.87649 0.08827 0.0
O31 O 0.83384 0.70645 0.07712 0.0
Cd32 Cd 0.80483 0.75812 0.04143 0.0
C33 C -0.01368 0.85906 0.04701 0.0
O34 O 0.77744 0.84549 0.05876 0.0
O35 O 0.81107 0.86914 0.02249 0.0
O36 O 0.67878 0.65486 0.04182 0.0
C37 C 0.79657 0.8909 0.04165 0.0
O38 O 0.96745 0.88352 0.0648 0.0
C39 C 0.67668 0.64197 0.01984 0.0
O40 O 0.9379 0.81015 0.03317 0.0
O41 O 0.73723 0.67814 0.00825 0.0
C42 C 0.10761 0.24977 0.26134 0.0
O43 O 0.05241 0.19605 0.25116 0.0
Cd44 Cd 0.97223 0.08863 0.27253 0.0
O45 O 0.10992 0.25866 0.28368 0.0
Cd46 Cd 0.02926 0.20701 0.31937 0.0
C47 C 0.10976 0.10603 0.31379 0.0
O48 O 0.9145 0.11965 0.30204 0.0
O49 O 0.92444 0.09601 0.3383 0.0
O50 O 0.00648 0.3103 0.31897 0.0
C51 C 0.88816 0.07422 0.31914 0.0
O52 O 0.06644 0.08157 0.29601 0.0
C53 C 0.01727 0.32318 0.34096 0.0
O54 O 0.11027 0.15496 0.32763 0.0
O55 O 0.04164 0.287 0.35255 0.0
C56 C 0.70688 0.84881 0.26134 0.0
O57 O 0.7606 0.84732 0.25117 0.0
Cd58 Cd 0.86803 0.87459 0.27253 0.0
O59 O 0.69801 0.84225 0.28369 0.0
Cd60 Cd 0.74967 0.81326 0.31938 0.0
C61 C 0.8506 -0.00526 0.31379 0.0
O62 O 0.83703 0.78586 0.30205 0.0
O63 O 0.86068 0.81947 0.3383 0.0
O64 O 0.64639 0.68721 0.31899 0.0
C65 C 0.88247 0.80497 0.31915 0.0
O66 O 0.87506 0.97587 0.296 0.0
C67 C 0.63352 0.68512 0.34098 0.0
O68 O 0.8017 0.94633 0.32764 0.0
O69 O 0.6697 0.74567 0.35256 0.0
C70 C 0.10786 0.84906 0.26135 0.0
O71 O 0.10935 0.90427 0.25117 0.0
Cd72 Cd 0.08208 -0.01555 0.27253 0.0
O73 O 0.11443 0.84676 0.28369 0.0
Cd74 Cd 0.14343 0.92744 0.31938 0.0
C75 C 0.96194 0.84689 0.31379 0.0
O76 O 0.17082 0.04219 0.30204 0.0
O77 O 0.13719 0.03222 0.33831 0.0
O78 O 0.26949 0.95023 0.31899 0.0
C79 C 0.15169 0.06848 0.31915 0.0
O80 O -0.01919 0.89021 0.296 0.0
C81 C 0.27158 0.93944 0.34097 0.0
O82 O 0.01036 0.8464 0.32764 0.0
O83 O 0.21103 0.91506 0.35256 0.0
C84 C 0.90935 0.08028 0.77615 0.0
O85 O 0.87718 0.06124 0.75611 0.0
Cd86 Cd 0.76265 0.94727 0.74558 0.0
O87 O 0.87598 0.04646 0.79483 0.0
Cd88 Cd 0.7511 0.94894 0.80443 0.0
C89 C 0.82753 0.85221 0.77684 0.0
O90 O 0.66624 0.90978 0.77308 0.0
O91 O 0.64523 0.82825 0.80097 0.0
O92 O 0.70764 0.03182 0.81662 0.0
C93 C 0.62937 0.84288 0.78067 0.0
O94 O 0.80676 0.86466 0.75701 0.0
C95 C 0.70608 0.01721 0.8385 0.0
O96 O 0.81876 0.87918 0.79625 0.0
O97 O 0.72834 0.97222 0.84483 0.0
C98 C 0.87642 0.82002 0.77615 0.0
O99 O 0.89547 0.8069 0.75611 0.0
Cd100 Cd 0.00944 0.80635 0.74558 0.0
O101 O 0.91023 0.82048 0.79483 0.0
Cd102 Cd 0.00776 0.79313 0.80444 0.0
C103 C 0.10448 0.96629 0.77684 0.0
O104 O 0.04692 0.74743 0.77309 0.0
O105 O 0.12845 0.80795 0.80098 0.0
O106 O 0.92488 0.6668 0.81663 0.0
C107 C 0.11382 0.77746 0.78068 0.0
O108 O 0.09204 0.93307 0.75702 0.0
C109 C 0.93948 0.67984 0.83851 0.0
O110 O 0.07751 0.93055 0.79625 0.0
O111 O -0.01554 0.74708 0.84484 0.0
C112 C 0.13667 0.04737 0.77615 0.0
O113 O 0.14978 0.07953 0.75612 0.0
Cd114 Cd 0.15035 0.19407 0.74558 0.0
O115 O 0.13621 0.08072 0.79484 0.0
Cd116 Cd 0.16356 0.2056 0.80444 0.0
C117 C -0.00959 0.1292 0.77684 0.0
O118 O 0.20925 0.29046 0.77309 0.0
O119 O 0.14873 0.31147 0.80098 0.0
O120 O 0.28989 0.24906 0.81663 0.0
C121 C 0.17922 0.32733 0.78068 0.0
O122 O 0.02363 0.14996 0.75701 0.0
C123 C 0.27684 0.25062 0.83851 0.0
O124 O 0.02615 0.13794 0.79625 0.0
O125 O 0.2096 0.22836 0.84484 0.0
C126 C 0.07183 0.91773 0.58466 0.0
O127 O 0.05279 0.88555 0.60469 0.0
Cd128 Cd 0.93881 0.77102 0.61523 0.0
O129 O 0.03801 0.88437 0.56598 0.0
Cd130 Cd 0.94049 0.7595 0.55636 0.0
C131 C 0.84377 0.83594 0.58397 0.0
O132 O 0.90132 0.67463 0.58772 0.0
O133 O 0.81979 0.65362 0.55983 0.0
O134 O 0.02336 0.71604 0.54418 0.0
C135 C 0.83443 0.63776 0.58013 0.0
O136 O 0.85622 0.81516 0.60379 0.0
C137 C 0.00877 0.71449 0.5223 0.0
O138 O 0.87074 0.82717 0.56456 0.0
O139 O 0.96378 0.73675 0.51597 0.0
C140 C 0.03892 0.14504 0.58466 0.0
O141 O 0.07109 0.15816 0.6047 0.0
Cd142 Cd 0.18562 0.15872 0.61523 0.0
O143 O 0.07229 0.14461 0.56598 0.0
Cd144 Cd 0.19716 0.17196 0.55637 0.0
C145 C 0.12076 -0.00121 0.58397 0.0
O146 O 0.28202 0.21765 0.58773 0.0
O147 O 0.30304 0.15713 0.55984 0.0
O148 O 0.24062 0.29829 0.54419 0.0
C149 C 0.31889 0.18762 0.58013 0.0
O150 O 0.14152 0.03201 0.60379 0.0
C151 C 0.24218 0.28525 0.5223 0.0
O152 O 0.12951 0.03454 0.56456 0.0
O153 O 0.21993 0.21801 0.51598 0.0
C154 C 0.81159 0.88483 0.58466 0.0
O155 O 0.79848 0.90388 0.6047 0.0
Cd156 Cd 0.79792 0.01785 0.61524 0.0
O157 O 0.81205 0.91865 0.56598 0.0
Cd158 Cd 0.78471 0.01619 0.55637 0.0
C159 C 0.95786 0.11291 0.58397 0.0
O160 O 0.73902 0.05536 0.58773 0.0
O161 O 0.79954 0.13689 0.55984 0.0
O162 O 0.65838 0.93332 0.54419 0.0
C163 C 0.76905 0.12226 0.58014 0.0
O164 O 0.92464 0.10045 0.6038 0.0
C165 C 0.67142 0.94792 0.52231 0.0
O166 O 0.92212 0.08593 0.56456 0.0
O167 O 0.73866 -0.0071 0.51598 0.0
C168 C 0.90804 0.44942 0.43279 0.0
O169 O 0.85432 0.39421 0.44297 0.0
Cd170 Cd 0.74688 0.31403 0.42161 0.0
O171 O 0.91691 0.45172 0.41045 0.0
Cd172 Cd 0.86524 0.37105 0.37476 0.0
C173 C 0.76426 0.45157 0.38035 0.0
O174 O 0.77789 0.2563 0.3921 0.0
O175 O 0.75423 0.26624 0.35584 0.0
O176 O 0.96852 0.34828 0.37516 0.0
C177 C 0.73244 0.22995 0.375 0.0
O178 O 0.73982 0.40825 0.39814 0.0
C179 C -0.01863 0.35906 0.35317 0.0
O180 O 0.81318 0.45208 0.3665 0.0
O181 O 0.94521 0.38343 0.34158 0.0
C182 C 0.50729 0.44961 0.43281 0.0
O183 O 0.5625 0.4511 0.44299 0.0
Cd184 Cd 0.64269 0.42386 0.42162 0.0
O185 O 0.50499 0.45619 0.41046 0.0
Cd186 Cd 0.58567 0.48521 0.37478 0.0
C187 C 0.50515 0.30371 0.38036 0.0
O188 O 0.70042 0.51261 0.39211 0.0
O189 O 0.69045 0.47899 0.35584 0.0
O190 O 0.60844 0.61126 0.37517 0.0
C191 C 0.72671 0.49349 0.375 0.0
O192 O 0.54847 0.32258 0.39815 0.0
C193 C 0.59765 0.61334 0.35319 0.0
O194 O 0.50464 0.35213 0.36652 0.0
O195 O 0.57326 0.5528 0.3416 0.0
C196 C 0.50707 0.04866 0.43281 0.0
O197 O 0.50558 0.10238 0.44299 0.0
Cd198 Cd 0.53285 0.20983 0.42162 0.0
O199 O 0.5005 0.03979 0.41046 0.0
Cd200 Cd 0.47149 0.09146 0.37478 0.0
C201 C 0.65297 0.1924 0.38036 0.0
O202 O 0.4441 0.17883 0.39211 0.0
O203 O 0.47772 0.20248 0.35584 0.0
O204 O 0.34542 -0.0118 0.37517 0.0
C205 C 0.46323 0.22424 0.375 0.0
O206 O 0.63411 0.21686 0.39815 0.0
C207 C 0.34335 0.97534 0.35318 0.0
O208 O 0.60456 0.14349 0.36651 0.0
O209 O 0.4039 0.01149 0.34159 0.0
C210 C 0.77431 0.5831 0.59468 0.0
O211 O 0.7191 0.52938 0.58451 0.0
Cd212 Cd 0.63891 0.42196 0.60588 0.0
O213 O 0.77662 0.59198 0.61702 0.0
Cd214 Cd 0.69595 0.54035 0.65272 0.0
C215 C 0.77644 0.43935 0.64714 0.0
O216 O 0.58119 0.453 0.63539 0.0
O217 O 0.59113 0.42935 0.67164 0.0
O218 O 0.67319 0.64364 0.65231 0.0
C219 C 0.55484 0.40756 0.65249 0.0
O220 O 0.73312 0.4149 0.62935 0.0
C221 C 0.68397 0.65653 0.6743 0.0
O222 O 0.77696 0.48828 0.66098 0.0
O223 O 0.70833 0.62035 0.68589 0.0
C224 C 0.37356 0.18218 0.59469 0.0
O225 O 0.42727 0.18067 0.58451 0.0
Cd226 Cd 0.5347 0.20793 0.60588 0.0
O227 O 0.36468 0.17561 0.61703 0.0
Cd228 Cd 0.41633 0.1466 0.65272 0.0
C229 C 0.51728 0.32809 0.64713 0.0
O230 O 0.50369 0.1192 0.6354 0.0
O231 O 0.52734 0.1528 0.67165 0.0
O232 O 0.31306 0.02055 0.65232 0.0
C233 C 0.54913 0.1383 0.65249 0.0
O234 O 0.54174 0.30921 0.62935 0.0
C235 C 0.30017 0.01845 0.67431 0.0
O236 O 0.46837 0.27968 0.66098 0.0
O237 O 0.33635 0.07899 0.6859 0.0
C238 C 0.7745 0.18237 0.59469 0.0
O239 O 0.776 0.23759 0.58451 0.0
Cd240 Cd 0.74874 0.31777 0.60588 0.0
O241 O 0.78107 0.18007 0.61703 0.0
Cd242 Cd 0.81009 0.26075 0.65272 0.0
C243 C 0.62861 0.18022 0.64714 0.0
O244 O 0.83749 0.37551 0.63539 0.0
O245 O 0.80386 0.36554 0.67166 0.0
O246 O 0.93614 0.28353 0.65232 0.0
C247 C 0.81836 0.4018 0.6525 0.0
O248 O 0.64747 0.22354 0.62935 0.0
C249 C 0.93825 0.27275 0.67431 0.0
O250 O 0.67702 0.17972 0.66098 0.0
O251 O 0.8777 0.24838 0.6859 0.0
C252 C 0.576 0.4136 0.10949 0.0
O253 O 0.54383 0.39456 0.08945 0.0
Cd254 Cd 0.42931 0.28059 0.07891 0.0
O255 O 0.54263 0.37978 0.12817 0.0
Cd256 Cd 0.41775 0.28225 0.13777 0.0
C257 C 0.4942 0.18553 0.11017 0.0
O258 O 0.3329 0.24309 0.10641 0.0
O259 O 0.31189 0.16155 0.1343 0.0
O260 O 0.37428 0.36512 0.14996 0.0
C261 C 0.29604 0.17619 0.11401 0.0
O262 O 0.47343 0.19799 0.09035 0.0
C263 C 0.37272 0.35052 0.17184 0.0
O264 O 0.48542 0.2125 0.12958 0.0
O265 O 0.39498 0.30553 0.17816 0.0
C266 C 0.54309 0.15335 0.10949 0.0
O267 O 0.56214 0.14024 0.08945 0.0
Cd268 Cd 0.67613 0.1397 0.07891 0.0
O269 O 0.57691 0.15382 0.12817 0.0
Cd270 Cd 0.67444 0.12647 0.13778 0.0
C271 C 0.77115 0.29964 0.11018 0.0
O272 O 0.71362 0.08079 0.10642 0.0
O273 O 0.79514 0.1413 0.13431 0.0
O274 O 0.59157 0.00013 0.14996 0.0
C275 C 0.78051 0.11082 0.11401 0.0
O276 O 0.75871 0.26641 0.09035 0.0
C277 C 0.60616 0.01317 0.17184 0.0
O278 O 0.74418 0.26389 0.12959 0.0
O279 O 0.65114 0.08041 0.17817 0.0
C280 C 0.80333 0.38071 0.10949 0.0
O281 O 0.81644 0.41287 0.08945 0.0
Cd282 Cd 0.817 0.5274 0.07891 0.0
O283 O 0.80287 0.41406 0.12817 0.0
Cd284 Cd 0.83021 0.53894 0.13778 0.0
C285 C 0.65706 0.46253 0.11018 0.0
O286 O 0.87589 0.62379 0.10642 0.0
O287 O 0.81537 0.64481 0.13431 0.0
O288 O 0.95654 0.58241 0.14996 0.0
C289 C 0.84585 0.66066 0.11401 0.0
O290 O 0.69028 0.48329 0.09035 0.0
C291 C 0.9435 0.58397 0.17185 0.0
O292 O 0.6928 0.47127 0.12959 0.0
O293 O 0.87625 0.5617 0.17817 0.0
C294 C 0.73851 0.25107 0.91798 0.0
O295 O 0.71946 0.21889 -0.06198 0.0
Cd296 Cd 0.60549 0.10436 -0.05145 0.0
O297 O 0.70469 0.2177 0.8993 0.0
Cd298 Cd 0.60717 0.09284 0.88969 0.0
C299 C 0.51045 0.16927 0.91729 0.0
O300 O 0.568 0.00797 0.92104 0.0
O301 O 0.48647 -0.01304 0.89315 0.0
O302 O 0.69004 0.04938 0.8775 0.0
C303 C 0.5011 0.9711 0.91345 0.0
O304 O 0.5229 0.14849 -0.06288 0.0
C305 C 0.67545 0.04782 0.85562 0.0
O306 O 0.53742 0.1605 0.89788 0.0
O307 O 0.63046 0.07009 0.84929 0.0
C308 C 0.70559 0.47838 0.91798 0.0
O309 O 0.73776 0.4915 -0.06198 0.0
Cd310 Cd 0.85229 0.49206 -0.05144 0.0
O311 O 0.73896 0.47794 0.8993 0.0
Cd312 Cd 0.86384 0.50529 0.88969 0.0
C313 C 0.78743 0.33213 0.91729 0.0
O314 O 0.94869 0.55098 0.92105 0.0
O315 O 0.96971 0.49047 0.89316 0.0
O316 O 0.90729 0.63163 0.87751 0.0
C317 C -0.01444 0.52096 0.91345 0.0
O318 O 0.80819 0.36535 -0.06288 0.0
C319 C 0.90885 0.61858 0.85563 0.0
O320 O 0.79618 0.36788 0.89788 0.0
O321 O 0.88659 0.55134 0.8493 0.0
C322 C 0.47827 0.21817 0.91798 0.0
O323 O 0.46515 0.23721 -0.06198 0.0
Cd324 Cd 0.46459 0.35119 -0.05144 0.0
O325 O 0.47873 0.25199 0.8993 0.0
Cd326 Cd 0.45138 0.34952 0.88969 0.0
C327 C 0.62453 0.44624 0.91729 0.0
O328 O 0.40569 0.38869 0.92105 0.0
O329 O 0.46621 0.47022 0.89316 0.0
O330 O 0.32505 0.26665 0.87751 0.0
C331 C 0.43573 0.45559 0.91346 0.0
O332 O 0.59131 0.43379 -0.06288 0.0
C333 C 0.33809 0.28125 0.85563 0.0
O334 O 0.58879 0.41926 0.89788 0.0
O335 O 0.40534 0.32623 0.8493 0.0
C336 C 0.5747 0.78277 0.76612 0.0
O337 O 0.52099 0.72756 0.7763 0.0
Cd338 Cd 0.41356 0.64737 0.75493 0.0
O339 O 0.58357 0.78508 0.74377 0.0
Cd340 Cd 0.53192 0.7044 0.70809 0.0
C341 C 0.43092 0.7849 0.71367 0.0
O342 O 0.44457 0.58964 0.72542 0.0
O343 O 0.42091 0.59958 0.68916 0.0
O344 O 0.6352 0.68163 0.70849 0.0
C345 C 0.39913 0.5633 0.70832 0.0
O346 O 0.40648 0.74158 0.73146 0.0
C347 C 0.64806 0.69241 0.6865 0.0
O348 O 0.47985 0.78542 0.69983 0.0
O349 O 0.6119 0.71678 0.67491 0.0
C350 C 0.17394 0.78291 0.76613 0.0
O351 O 0.22915 0.78441 0.7763 0.0
Cd352 Cd 0.30935 0.75718 0.75494 0.0
O353 O 0.17163 0.78948 0.74378 0.0
Cd354 Cd 0.25232 0.81852 0.7081 0.0
C355 C 0.17182 0.63703 0.71368 0.0
O356 O 0.36707 0.84593 0.72543 0.0
O357 O 0.35711 0.81232 0.68916 0.0
O358 O 0.27509 0.94457 0.7085 0.0
C359 C 0.39337 0.82682 0.70832 0.0
O360 O 0.21514 0.6559 0.73146 0.0
C361 C 0.2643 0.94666 0.68652 0.0
O362 O 0.1713 0.68545 0.69983 0.0
O363 O 0.23992 0.88613 0.67492 0.0
C364 C 0.17377 0.382 0.76613 0.0
O365 O 0.17227 0.43571 0.77631 0.0
Cd366 Cd 0.19952 0.54315 0.75494 0.0
O367 O 0.1672 0.37313 0.74378 0.0
Cd368 Cd 0.13817 0.42479 0.7081 0.0
C369 C 0.31966 0.52574 0.71368 0.0
O370 O 0.11078 0.51215 0.72543 0.0
O371 O 0.1444 0.5358 0.68916 0.0
O372 O 0.01212 0.32152 0.7085 0.0
C373 C 0.1299 0.55755 0.70832 0.0
O374 O 0.30079 0.55019 0.73147 0.0
C375 C 0.01003 0.30865 0.68651 0.0
O376 O 0.27124 0.47683 0.69983 0.0
O377 O 0.07056 0.3448 0.67492 0.0
C378 C 0.44099 0.91644 0.928 0.0
O379 O 0.38577 0.86272 0.91783 0.0
Cd380 Cd 0.30558 0.7553 -0.0608 0.0
O381 O 0.44329 0.92532 -0.04965 0.0
Cd382 Cd 0.36262 0.87368 -0.01396 0.0
C383 C 0.44311 0.77268 -0.01954 0.0
O384 O 0.24786 0.78633 -0.03129 0.0
O385 O 0.2578 0.76268 0.00496 0.0
O386 O 0.33985 0.97696 -0.01437 0.0
C387 C 0.22152 0.74089 -0.01419 0.0
O388 O 0.39979 0.74823 -0.03733 0.0
C389 C 0.35063 -0.01017 0.00762 0.0
O390 O 0.44363 0.82161 -0.0057 0.0
O391 O 0.37501 0.95367 0.01921 0.0
C392 C 0.04023 0.51551 0.92801 0.0
O393 O 0.09394 0.51401 0.91783 0.0
Cd394 Cd 0.20138 0.54127 -0.0608 0.0
O395 O 0.03136 0.50894 -0.04965 0.0
Cd396 Cd 0.08301 0.47993 -0.01396 0.0
C397 C 0.18396 0.66142 -0.01955 0.0
O398 O 0.17037 0.45253 -0.03129 0.0
O399 O 0.19402 0.48614 0.00497 0.0
O400 O -0.02026 0.35388 -0.01436 0.0
C401 C 0.21581 0.47164 -0.01419 0.0
O402 O 0.20841 0.64254 -0.03733 0.0
C403 C 0.96688 0.3518 0.00763 0.0
O404 O 0.13505 0.61301 -0.0057 0.0
O405 O 0.00303 0.41233 0.01922 0.0
C406 C 0.44118 0.51571 0.92801 0.0
O407 O 0.44268 0.57092 0.91783 0.0
Cd408 Cd 0.41542 0.65111 -0.06081 0.0
O409 O 0.44775 0.5134 -0.04965 0.0
Cd410 Cd 0.47677 0.59409 -0.01396 0.0
C411 C 0.29528 0.51355 -0.01955 0.0
O412 O 0.50416 0.70884 -0.03129 0.0
O413 O 0.47053 0.69887 0.00498 0.0
O414 O 0.60283 0.61688 -0.01436 0.0
C415 C 0.48504 0.73513 -0.01419 0.0
O416 O 0.31415 0.55688 -0.03733 0.0
C417 C 0.60491 0.6061 0.00763 0.0
O418 O 0.3437 0.51306 -0.0057 0.0
O419 O 0.54437 0.58171 0.01922 0.0
C420 C 0.24267 0.74694 0.44283 0.0
O421 O 0.2105 0.7279 0.42279 0.0
Cd422 Cd 0.09598 0.61393 0.41225 0.0
O423 O 0.2093 0.71312 0.46151 0.0
Cd424 Cd 0.08442 0.61559 0.47111 0.0
C425 C 0.16087 0.51887 0.44352 0.0
O426 O -0.00043 0.57643 0.43975 0.0
O427 O -0.02144 0.49489 0.46765 0.0
O428 O 0.04096 0.69847 0.4833 0.0
C429 C 0.96271 0.50953 0.44735 0.0
O430 O 0.1401 0.53132 0.42369 0.0
C431 C 0.03939 0.68386 0.50518 0.0
O432 O 0.15209 0.54584 0.46293 0.0
O433 O 0.06165 0.63888 0.51151 0.0
C434 C 0.20976 0.48669 0.44283 0.0
O435 O 0.22881 0.47357 0.42279 0.0
Cd436 Cd 0.34279 0.47303 0.41226 0.0
O437 O 0.24357 0.48715 0.46151 0.0
Cd438 Cd 0.3411 0.45981 0.47112 0.0
C439 C 0.43782 0.63297 0.44352 0.0
O440 O 0.38028 0.41413 0.43977 0.0
O441 O 0.4618 0.47464 0.46766 0.0
O442 O 0.25823 0.33347 0.48331 0.0
C443 C 0.44717 0.44416 0.44736 0.0
O444 O 0.42537 0.59975 0.4237 0.0
C445 C 0.27282 0.34651 0.50519 0.0
O446 O 0.41084 0.59722 0.46293 0.0
O447 O 0.31779 0.41375 0.51152 0.0
C448 C 0.47 0.71404 0.44284 0.0
O449 O 0.48311 0.74621 0.4228 0.0
Cd450 Cd 0.48367 0.86074 0.41226 0.0
O451 O 0.46953 0.7474 0.46152 0.0
Cd452 Cd 0.49688 0.87228 0.47112 0.0
C453 C 0.32373 0.79587 0.44352 0.0
O454 O 0.54256 0.95713 0.43977 0.0
O455 O 0.48204 0.97814 0.46766 0.0
O456 O 0.62321 0.91574 0.48331 0.0
C457 C 0.51252 -0.00601 0.44736 0.0
O458 O 0.35695 0.81663 0.42369 0.0
C459 C 0.61017 0.9173 0.50519 0.0
O460 O 0.35947 0.80461 0.46293 0.0
O461 O 0.54292 0.89503 0.51152 0.0
C462 C 0.40515 0.58439 0.25131 0.0
O463 O 0.38611 0.55221 0.27134 0.0
Cd464 Cd 0.27213 0.43769 0.28188 0.0
O465 O 0.37133 0.55102 0.23263 0.0
Cd466 Cd 0.2738 0.42616 0.22302 0.0
C467 C 0.1771 0.50261 0.25062 0.0
O468 O 0.23463 0.34129 0.25437 0.0
O469 O 0.1531 0.32029 0.22648 0.0
O470 O 0.35668 0.38269 0.21083 0.0
C471 C 0.16773 0.30444 0.24678 0.0
O472 O 0.18955 0.48183 0.27045 0.0
C473 C 0.34208 0.38114 0.18895 0.0
O474 O 0.20407 0.49384 0.23121 0.0
O475 O 0.29711 0.40341 0.18262 0.0
C476 C 0.37226 0.81171 0.25131 0.0
O477 O 0.40443 0.82483 0.27135 0.0
Cd478 Cd 0.51895 0.82538 0.28189 0.0
O479 O 0.40563 0.81127 0.23263 0.0
Cd480 Cd 0.5305 0.83861 0.22302 0.0
C481 C 0.45408 0.66545 0.25062 0.0
O482 O 0.61535 0.88429 0.25438 0.0
O483 O 0.63637 0.82378 0.22649 0.0
O484 O 0.57397 0.96495 0.21084 0.0
C485 C 0.65222 0.85426 0.24679 0.0
O486 O 0.47484 0.69866 0.27045 0.0
C487 C 0.57553 0.95191 0.18896 0.0
O488 O 0.46283 0.70119 0.23121 0.0
O489 O 0.55327 0.88467 0.18263 0.0
C490 C 0.14492 0.55151 0.25131 0.0
O491 O 0.13181 0.57055 0.27135 0.0
Cd492 Cd 0.13127 0.68453 0.28189 0.0
O493 O 0.14539 0.58533 0.23263 0.0
Cd494 Cd 0.11805 0.68287 0.22303 0.0
C495 C 0.2912 0.77958 0.25062 0.0
O496 O 0.07237 0.72205 0.25439 0.0
O497 O 0.13289 0.80358 0.22649 0.0
O498 O -0.00829 0.6 0.21084 0.0
C499 C 0.10242 0.78895 0.24679 0.0
O500 O 0.25798 0.76712 0.27045 0.0
C501 C 0.00475 0.6146 0.18896 0.0
O502 O 0.25546 0.7526 0.23121 0.0
O503 O 0.072 0.65958 0.18263 0.0
loop_
_geom_bond_atom_site_label_1
_geom_bond_atom_site_label_2
_geom_bond_distance
_geom_bond_site_symmetry_2
_ccdc_geom_bond_type
C0 O1 1.306 . S
C0 O3 1.160 . S
O1 C0 1.306 . S
O1 Cd2 2.228 . S
Cd2 O1 2.228 . S
Cd2 O6 2.273 1_545 S
Cd2 O10 2.277 . S
O3 C0 1.160 . S
O3 Cd4 2.203 . S
Cd4 O3 2.203 . S
Cd4 O6 2.411 1_545 S
Cd4 O7 2.333 1_545 S
Cd4 O8 2.352 1_545 S
Cd4 O12 2.277 . S
Cd4 O13 2.356 . S
C5 O10 1.209 . S
C5 O12 1.226 . S
O6 Cd2 2.273 1_565 S
O6 Cd4 2.411 1_565 S
O6 C9 1.320 . S
O7 Cd4 2.333 1_565 S
O7 C9 1.214 . S
O8 Cd4 2.352 1_565 S
O8 C11 1.258 . S
C9 O6 1.320 . S
C9 O7 1.214 . S
O10 Cd2 2.277 . S
O10 C5 1.209 . S
C11 O8 1.258 . S
C11 O13 1.282 1_565 S
O12 Cd4 2.277 . S
O12 C5 1.226 . S
O13 Cd4 2.356 . S
O13 C11 1.282 1_545 S
C14 O15 1.306 . S
C14 O17 1.160 . S
O15 C14 1.306 . S
O15 Cd16 2.228 . S
Cd16 O15 2.228 . S
Cd16 O20 2.273 1_655 S
Cd16 O24 2.277 . S
O17 C14 1.160 . S
O17 Cd18 2.203 . S
Cd18 O17 2.203 . S
Cd18 O20 2.411 1_655 S
Cd18 O21 2.333 1_655 S
Cd18 O22 2.352 1_655 S
Cd18 O26 2.277 . S
Cd18 O27 2.356 . S
C19 O24 1.209 1_565 S
C19 O26 1.223 1_565 S
O20 Cd16 2.273 1_455 S
O20 Cd18 2.411 1_455 S
O20 C23 1.320 . S
O21 Cd18 2.333 1_455 S
O21 C23 1.214 . S
O22 Cd18 2.352 1_455 S
O22 C25 1.258 . S
C23 O20 1.320 . S
C23 O21 1.214 . S
O24 Cd16 2.277 . S
O24 C19 1.209 1_545 S
C25 O22 1.258 . S
C25 O27 1.282 1_455 S
O26 Cd18 2.277 . S
O26 C19 1.223 1_545 S
O27 Cd18 2.356 . S
O27 C25 1.282 1_655 S
C28 O29 1.306 . S
C28 O31 1.160 . S
O29 C28 1.306 . S
O29 Cd30 2.228 . S
Cd30 O29 2.228 . S
Cd30 O34 2.273 . S
Cd30 O38 2.277 . S
O31 C28 1.160 . S
O31 Cd32 2.203 . S
Cd32 O31 2.203 . S
Cd32 O34 2.411 . S
Cd32 O35 2.333 . S
Cd32 O36 2.352 . S
Cd32 O40 2.277 . S
Cd32 O41 2.356 . S
C33 O38 1.202 1_455 S
C33 O40 1.219 1_455 S
O34 Cd30 2.273 . S
O34 Cd32 2.411 . S
O34 C37 1.320 . S
O35 Cd32 2.333 . S
O35 C37 1.214 . S
O36 Cd32 2.352 . S
O36 C39 1.258 . S
C37 O34 1.320 . S
C37 O35 1.214 . S
O38 Cd30 2.277 . S
O38 C33 1.202 1_655 S
C39 O36 1.258 . S
C39 O41 1.282 . S
O40 Cd32 2.277 . S
O40 C33 1.219 1_655 S
O41 Cd32 2.356 . S
O41 C39 1.282 . S
C42 O43 1.306 . S
C42 O45 1.160 . S
O43 C42 1.306 . S
O43 Cd44 2.228 . S
Cd44 O43 2.228 . S
Cd44 O48 2.273 1_455 S
Cd44 O52 2.277 . S
O45 C42 1.160 . S
O45 Cd46 2.203 . S
Cd46 O45 2.203 . S
Cd46 O48 2.411 1_455 S
Cd46 O49 2.333 1_455 S
Cd46 O50 2.352 1_455 S
Cd46 O54 2.277 . S
Cd46 O55 2.356 . S
C47 O52 1.209 . S
C47 O54 1.226 . S
O48 Cd44 2.273 1_655 S
O48 Cd46 2.411 1_655 S
O48 C51 1.320 . S
O49 Cd46 2.333 1_655 S
O49 C51 1.214 . S
O50 Cd46 2.352 1_655 S
O50 C53 1.258 . S
C51 O48 1.320 . S
C51 O49 1.214 . S
O52 Cd44 2.277 . S
O52 C47 1.209 . S
C53 O50 1.258 . S
C53 O55 1.282 1_655 S
O54 Cd46 2.277 . S
O54 C47 1.226 . S
O55 Cd46 2.356 . S
O55 C53 1.282 1_455 S
C56 O57 1.306 . S
C56 O59 1.160 . S
O57 C56 1.306 . S
O57 Cd58 2.228 . S
Cd58 O57 2.228 . S
Cd58 O62 2.273 . S
Cd58 O66 2.277 . S
O59 C56 1.160 . S
O59 Cd60 2.203 . S
Cd60 O59 2.203 . S
Cd60 O62 2.411 . S
Cd60 O63 2.333 . S
Cd60 O64 2.352 . S
Cd60 O68 2.277 . S
Cd60 O69 2.356 . S
C61 O66 1.205 1_545 S
C61 O68 1.222 1_545 S
O62 Cd58 2.273 . S
O62 Cd60 2.411 . S
O62 C65 1.320 . S
O63 Cd60 2.333 . S
O63 C65 1.214 . S
O64 Cd60 2.352 . S
O64 C67 1.258 . S
C65 O62 1.320 . S
C65 O63 1.214 . S
O66 Cd58 2.277 . S
O66 C61 1.205 1_565 S
C67 O64 1.258 . S
C67 O69 1.282 . S
O68 Cd60 2.277 . S
O68 C61 1.222 1_565 S
O69 Cd60 2.356 . S
O69 C67 1.282 . S
C70 O71 1.306 . S
C70 O73 1.160 . S
O71 C70 1.306 . S
O71 Cd72 2.228 . S
Cd72 O71 2.228 . S
Cd72 O76 2.273 1_565 S
Cd72 O80 2.277 . S
O73 C70 1.160 . S
O73 Cd74 2.203 . S
Cd74 O73 2.203 . S
Cd74 O76 2.411 1_565 S
Cd74 O77 2.333 1_565 S
Cd74 O78 2.352 1_565 S
Cd74 O82 2.277 . S
Cd74 O83 2.356 . S
C75 O80 1.209 1_655 S
C75 O82 1.227 1_655 S
O76 Cd72 2.273 1_545 S
O76 Cd74 2.411 1_545 S
O76 C79 1.320 . S
O77 Cd74 2.333 1_545 S
O77 C79 1.214 . S
O78 Cd74 2.352 1_545 S
O78 C81 1.258 . S
C79 O76 1.320 . S
C79 O77 1.214 . S
O80 Cd72 2.277 . S
O80 C75 1.209 1_455 S
C81 O78 1.258 . S
C81 O83 1.282 1_545 S
O82 Cd74 2.277 . S
O82 C75 1.227 1_455 S
O83 Cd74 2.356 . S
O83 C81 1.282 1_565 S
C84 O85 1.306 . S
C84 O87 1.160 . S
O85 C84 1.306 . S
O85 Cd86 2.228 1_545 S
Cd86 O85 2.228 1_565 S
Cd86 O90 2.273 . S
Cd86 O94 2.277 . S
O87 C84 1.160 . S
O87 Cd88 2.203 1_545 S
Cd88 O87 2.203 1_565 S
Cd88 O90 2.411 . S
Cd88 O91 2.333 . S
Cd88 O92 2.352 1_565 S
Cd88 O96 2.277 . S
Cd88 O97 2.356 . S
C89 O94 1.209 . S
C89 O96 1.226 . S
O90 Cd86 2.273 . S
O90 Cd88 2.411 . S
O90 C93 1.320 . S
O91 Cd88 2.333 . S
O91 C93 1.214 . S
O92 Cd88 2.352 1_545 S
O92 C95 1.262 . S
C93 O90 1.320 . S
C93 O91 1.214 . S
O94 Cd86 2.277 . S
O94 C89 1.209 . S
C95 O92 1.262 . S
C95 O97 1.271 1_545 S
O96 Cd88 2.277 . S
O96 C89 1.226 . S
O97 Cd88 2.356 . S
O97 C95 1.271 1_565 S
C98 O99 1.306 . S
C98 O101 1.160 . S
O99 C98 1.306 . S
O99 Cd100 2.228 1_655 S
Cd100 O99 2.228 1_455 S
Cd100 O104 2.273 . S
Cd100 O108 2.277 . S
O101 C98 1.160 . S
O101 Cd102 2.203 1_655 S
Cd102 O101 2.203 1_455 S
Cd102 O104 2.411 . S
Cd102 O105 2.333 . S
Cd102 O106 2.352 1_455 S
Cd102 O110 2.277 . S
Cd102 O111 2.356 . S
C103 O108 1.207 1_545 S
C103 O110 1.217 1_545 S
O104 Cd100 2.273 . S
O104 Cd102 2.411 . S
O104 C107 1.320 . S
O105 Cd102 2.333 . S
O105 C107 1.214 . S
O106 Cd102 2.352 1_655 S
O106 C109 1.259 . S
C107 O104 1.320 . S
C107 O105 1.214 . S
O108 Cd100 2.277 . S
O108 C103 1.207 1_565 S
C109 O106 1.259 . S
C109 O111 1.282 1_655 S
O110 Cd102 2.277 . S
O110 C103 1.217 1_565 S
O111 Cd102 2.356 . S
O111 C109 1.282 1_455 S
C112 O113 1.306 . S
C112 O115 1.160 . S
O113 C112 1.306 . S
O113 Cd114 2.228 . S
Cd114 O113 2.228 . S
Cd114 O118 2.273 . S
Cd114 O122 2.277 . S
O115 C112 1.160 . S
O115 Cd116 2.203 . S
Cd116 O115 2.203 . S
Cd116 O118 2.411 . S
Cd116 O119 2.333 . S
Cd116 O120 2.352 . S
Cd116 O124 2.277 . S
Cd116 O125 2.356 . S
C117 O122 1.207 1_655 S
C117 O124 1.223 1_655 S
O118 Cd114 2.273 . S
O118 Cd116 2.411 . S
O118 C121 1.320 . S
O119 Cd116 2.333 . S
O119 C121 1.214 . S
O120 Cd116 2.352 . S
O120 C123 1.258 . S
C121 O118 1.320 . S
C121 O119 1.214 . S
O122 Cd114 2.277 . S
O122 C117 1.207 1_455 S
C123 O120 1.258 . S
C123 O125 1.282 . S
O124 Cd116 2.277 . S
O124 C117 1.223 1_455 S
O125 Cd116 2.356 . S
O125 C123 1.282 . S
C126 O127 1.306 . S
C126 O129 1.160 . S
O127 C126 1.306 . S
O127 Cd128 2.228 1_455 S
Cd128 O127 2.228 1_655 S
Cd128 O132 2.273 . S
Cd128 O136 2.277 . S
O129 C126 1.160 . S
O129 Cd130 2.203 1_455 S
Cd130 O129 2.203 1_655 S
Cd130 O132 2.411 . S
Cd130 O133 2.333 . S
Cd130 O134 2.352 1_655 S
Cd130 O138 2.277 . S
Cd130 O139 2.356 . S
C131 O136 1.209 . S
C131 O138 1.226 . S
O132 Cd128 2.273 . S
O132 Cd130 2.411 . S
O132 C135 1.320 . S
O133 Cd130 2.333 . S
O133 C135 1.214 . S
O134 Cd130 2.352 1_455 S
O134 C137 1.258 . S
C135 O132 1.320 . S
C135 O133 1.214 . S
O136 Cd128 2.277 . S
O136 C131 1.209 . S
C137 O134 1.258 . S
C137 O139 1.282 1_455 S
O138 Cd130 2.277 . S
O138 C131 1.226 . S
O139 Cd130 2.356 . S
O139 C137 1.282 1_655 S
C140 O141 1.306 . S
C140 O143 1.160 . S
O141 C140 1.306 . S
O141 Cd142 2.228 . S
Cd142 O141 2.228 . S
Cd142 O146 2.273 . S
Cd142 O150 2.277 . S
O143 C140 1.160 . S
O143 Cd144 2.203 . S
Cd144 O143 2.203 . S
Cd144 O146 2.411 . S
Cd144 O147 2.333 . S
Cd144 O148 2.352 . S
Cd144 O152 2.277 . S
Cd144 O153 2.356 . S
C145 O150 1.205 1_565 S
C145 O152 1.221 1_565 S
O146 Cd142 2.273 . S
O146 Cd144 2.411 . S
O146 C149 1.320 . S
O147 Cd144 2.333 . S
O147 C149 1.214 . S
O148 Cd144 2.352 . S
O148 C151 1.258 . S
C149 O146 1.320 . S
C149 O147 1.214 . S
O150 Cd142 2.277 . S
O150 C145 1.205 1_545 S
C151 O148 1.258 . S
C151 O153 1.282 . S
O152 Cd144 2.277 . S
O152 C145 1.221 1_545 S
O153 Cd144 2.356 . S
O153 C151 1.282 . S
C154 O155 1.306 . S
C154 O157 1.160 . S
O155 C154 1.306 . S
O155 Cd156 2.228 1_565 S
Cd156 O155 2.228 1_545 S
Cd156 O160 2.273 . S
Cd156 O164 2.277 . S
O157 C154 1.160 . S
O157 Cd158 2.203 1_565 S
Cd158 O157 2.203 1_545 S
Cd158 O160 2.411 . S
Cd158 O161 2.333 . S
Cd158 O162 2.352 1_545 S
Cd158 O166 2.277 . S
Cd158 O167 2.356 . S
C159 O164 1.209 1_455 S
C159 O166 1.226 1_455 S
O160 Cd156 2.273 . S
O160 Cd158 2.411 . S
O160 C163 1.320 . S
O161 Cd158 2.333 . S
O161 C163 1.214 . S
O162 Cd158 2.352 1_565 S
O162 C165 1.261 . S
C163 O160 1.320 . S
C163 O161 1.214 . S
O164 Cd156 2.277 . S
O164 C159 1.209 1_655 S
C165 O162 1.261 . S
C165 O167 1.280 1_565 S
O166 Cd158 2.277 . S
O166 C159 1.226 1_655 S
O167 Cd158 2.356 . S
O167 C165 1.280 1_545 S
C168 O169 1.306 . S
C168 O171 1.160 . S
O169 C168 1.306 . S
O169 Cd170 2.228 . S
Cd170 O169 2.228 . S
Cd170 O174 2.273 . S
Cd170 O178 2.277 . S
O171 C168 1.160 . S
O171 Cd172 2.203 . S
Cd172 O171 2.203 . S
Cd172 O174 2.411 . S
Cd172 O175 2.333 . S
Cd172 O176 2.352 . S
Cd172 O180 2.277 . S
Cd172 O181 2.356 . S
C173 O178 1.209 . S
C173 O180 1.226 . S
O174 Cd170 2.273 . S
O174 Cd172 2.411 . S
O174 C177 1.320 . S
O175 Cd172 2.333 . S
O175 C177 1.214 . S
O176 Cd172 2.352 . S
O176 C179 1.258 . S
C177 O174 1.320 . S
C177 O175 1.214 . S
O178 Cd170 2.277 . S
O178 C173 1.209 . S
C179 O176 1.258 . S
C179 O181 1.282 . S
O180 Cd172 2.277 . S
O180 C173 1.226 . S
O181 Cd172 2.356 . S
O181 C179 1.282 . S
C182 O183 1.306 . S
C182 O185 1.160 . S
O183 C182 1.306 . S
O183 Cd184 2.228 . S
Cd184 O183 2.228 . S
Cd184 O188 2.273 . S
Cd184 O192 2.277 . S
O185 C182 1.160 . S
O185 Cd186 2.203 . S
Cd186 O185 2.203 . S
Cd186 O188 2.411 . S
Cd186 O189 2.333 . S
Cd186 O190 2.352 . S
Cd186 O194 2.277 . S
Cd186 O195 2.356 . S
C187 O192 1.209 . S
C187 O194 1.226 . S
O188 Cd184 2.273 . S
O188 Cd186 2.411 . S
O188 C191 1.320 . S
O189 Cd186 2.333 . S
O189 C191 1.214 . S
O190 Cd186 2.352 . S
O190 C193 1.258 . S
C191 O188 1.320 . S
C191 O189 1.214 . S
O192 Cd184 2.277 . S
O192 C187 1.209 . S
C193 O190 1.258 . S
C193 O195 1.282 . S
O194 Cd186 2.277 . S
O194 C187 1.226 . S
O195 Cd186 2.356 . S
O195 C193 1.282 . S
C196 O197 1.306 . S
C196 O199 1.160 . S
O197 C196 1.306 . S
O197 Cd198 2.228 . S
Cd198 O197 2.228 . S
Cd198 O202 2.273 . S
Cd198 O206 2.277 . S
O199 C196 1.160 . S
O199 Cd200 2.203 . S
Cd200 O199 2.203 . S
Cd200 O202 2.411 . S
Cd200 O203 2.333 . S
Cd200 O204 2.352 . S
Cd200 O208 2.277 . S
Cd200 O209 2.356 . S
C201 O206 1.209 . S
C201 O208 1.226 . S
O202 Cd198 2.273 . S
O202 Cd200 2.411 . S
O202 C205 1.320 . S
O203 Cd200 2.333 . S
O203 C205 1.214 . S
O204 Cd200 2.352 . S
O204 C207 1.258 . S
C205 O202 1.320 . S
C205 O203 1.214 . S
O206 Cd198 2.277 . S
O206 C201 1.209 . S
C207 O204 1.258 . S
C207 O209 1.282 . S
O208 Cd200 2.277 . S
O208 C201 1.226 . S
O209 Cd200 2.356 . S
O209 C207 1.282 . S
C210 O211 1.306 . S
C210 O213 1.160 . S
O211 C210 1.306 . S
O211 Cd212 2.228 . S
Cd212 O211 2.228 . S
Cd212 O216 2.273 . S
Cd212 O220 2.277 . S
O213 C210 1.160 . S
O213 Cd214 2.203 . S
Cd214 O213 2.203 . S
Cd214 O216 2.411 . S
Cd214 O217 2.333 . S
Cd214 O218 2.352 . S
Cd214 O222 2.277 . S
Cd214 O223 2.356 . S
C215 O220 1.209 . S
C215 O222 1.226 . S
O216 Cd212 2.273 . S
O216 Cd214 2.411 . S
O216 C219 1.320 . S
O217 Cd214 2.333 . S
O217 C219 1.214 . S
O218 Cd214 2.352 . S
O218 C221 1.258 . S
C219 O216 1.320 . S
C219 O217 1.214 . S
O220 Cd212 2.277 . S
O220 C215 1.209 . S
C221 O218 1.258 . S
C221 O223 1.282 . S
O222 Cd214 2.277 . S
O222 C215 1.226 . S
O223 Cd214 2.356 . S
O223 C221 1.282 . S
C224 O225 1.306 . S
C224 O227 1.160 . S
O225 C224 1.306 . S
O225 Cd226 2.228 . S
Cd226 O225 2.228 . S
Cd226 O230 2.273 . S
Cd226 O234 2.277 . S
O227 C224 1.160 . S
O227 Cd228 2.203 . S
Cd228 O227 2.203 . S
Cd228 O230 2.411 . S
Cd228 O231 2.333 . S
Cd228 O232 2.352 . S
Cd228 O236 2.277 . S
Cd228 O237 2.356 . S
C229 O234 1.209 . S
C229 O236 1.226 . S
O230 Cd226 2.273 . S
O230 Cd228 2.411 . S
O230 C233 1.320 . S
O231 Cd228 2.333 . S
O231 C233 1.214 . S
O232 Cd228 2.352 . S
O232 C235 1.258 . S
C233 O230 1.320 . S
C233 O231 1.214 . S
O234 Cd226 2.277 . S
O234 C229 1.209 . S
C235 O232 1.258 . S
C235 O237 1.282 . S
O236 Cd228 2.277 . S
O236 C229 1.226 . S
O237 Cd228 2.356 . S
O237 C235 1.282 . S
C238 O239 1.306 . S
C238 O241 1.160 . S
O239 C238 1.306 . S
O239 Cd240 2.228 . S
Cd240 O239 2.228 . S
Cd240 O244 2.273 . S
Cd240 O248 2.277 . S
O241 C238 1.160 . S
O241 Cd242 2.203 . S
Cd242 O241 2.203 . S
Cd242 O244 2.411 . S
Cd242 O245 2.333 . S
Cd242 O246 2.352 . S
Cd242 O250 2.277 . S
Cd242 O251 2.356 . S
C243 O248 1.209 . S
C243 O250 1.226 . S
O244 Cd240 2.273 . S
O244 Cd242 2.411 . S
O244 C247 1.320 . S
O245 Cd242 2.333 . S
O245 C247 1.214 . S
O246 Cd242 2.352 . S
O246 C249 1.258 . S
C247 O244 1.320 . S
C247 O245 1.214 . S
O248 Cd240 2.277 . S
O248 C243 1.209 . S
C249 O246 1.258 . S
C249 O251 1.282 . S
O250 Cd242 2.277 . S
O250 C243 1.226 . S
O251 Cd242 2.356 . S
O251 C249 1.282 . S
C252 O253 1.306 . S
C252 O255 1.160 . S
O253 C252 1.306 . S
O253 Cd254 2.228 . S
Cd254 O253 2.228 . S
Cd254 O258 2.273 . S
Cd254 O262 2.277 . S
O255 C252 1.160 . S
O255 Cd256 2.203 . S
Cd256 O255 2.203 . S
Cd256 O258 2.411 . S
Cd256 O259 2.333 . S
Cd256 O260 2.352 . S
Cd256 O264 2.277 . S
Cd256 O265 2.356 . S
C257 O262 1.209 . S
C257 O264 1.226 . S
O258 Cd254 2.273 . S
O258 Cd256 2.411 . S
O258 C261 1.320 . S
O259 Cd256 2.333 . S
O259 C261 1.214 . S
O260 Cd256 2.352 . S
O260 C263 1.258 . S
C261 O258 1.320 . S
C261 O259 1.214 . S
O262 Cd254 2.277 . S
O262 C257 1.209 . S
C263 O260 1.258 . S
C263 O265 1.282 . S
O264 Cd256 2.277 . S
O264 C257 1.226 . S
O265 Cd256 2.356 . S
O265 C263 1.282 . S
C266 O267 1.306 . S
C266 O269 1.160 . S
O267 C266 1.306 . S
O267 Cd268 2.228 . S
Cd268 O267 2.228 . S
Cd268 O272 2.273 . S
Cd268 O276 2.277 . S
O269 C266 1.160 . S
O269 Cd270 2.203 . S
Cd270 O269 2.203 . S
Cd270 O272 2.411 . S
Cd270 O273 2.333 . S
Cd270 O274 2.352 . S
Cd270 O278 2.277 . S
Cd270 O279 2.356 . S
C271 O276 1.209 . S
C271 O278 1.226 . S
O272 Cd268 2.273 . S
O272 Cd270 2.411 . S
O272 C275 1.320 . S
O273 Cd270 2.333 . S
O273 C275 1.214 . S
O274 Cd270 2.352 . S
O274 C277 1.258 . S
C275 O272 1.320 . S
C275 O273 1.214 . S
O276 Cd268 2.277 . S
O276 C271 1.209 . S
C277 O274 1.258 . S
C277 O279 1.282 . S
O278 Cd270 2.277 . S
O278 C271 1.226 . S
O279 Cd270 2.356 . S
O279 C277 1.282 . S
C280 O281 1.306 . S
C280 O283 1.160 . S
O281 C280 1.306 . S
O281 Cd282 2.228 . S
Cd282 O281 2.228 . S
Cd282 O286 2.273 . S
Cd282 O290 2.277 . S
O283 C280 1.160 . S
O283 Cd284 2.203 . S
Cd284 O283 2.203 . S
Cd284 O286 2.411 . S
Cd284 O287 2.333 . S
Cd284 O288 2.352 . S
Cd284 O292 2.277 . S
Cd284 O293 2.356 . S
C285 O290 1.209 . S
C285 O292 1.226 . S
O286 Cd282 2.273 . S
O286 Cd284 2.411 . S
O286 C289 1.320 . S
O287 Cd284 2.333 . S
O287 C289 1.214 . S
O288 Cd284 2.352 . S
O288 C291 1.258 . S
C289 O286 1.320 . S
C289 O287 1.214 . S
O290 Cd282 2.277 . S
O290 C285 1.209 . S
C291 O288 1.258 . S
C291 O293 1.282 . S
O292 Cd284 2.277 . S
O292 C285 1.226 . S
O293 Cd284 2.356 . S
O293 C291 1.282 . S
C294 O295 1.306 . S
C294 O297 1.160 . S
O295 C294 1.306 . S
O295 Cd296 2.228 1_556 S
Cd296 O295 2.228 1_554 S
Cd296 O300 2.273 1_554 S
Cd296 O304 2.277 1_554 S
O297 C294 1.160 . S
O297 Cd298 2.203 . S
Cd298 O297 2.203 . S
Cd298 O300 2.411 . S
Cd298 O301 2.333 . S
Cd298 O302 2.352 . S
Cd298 O306 2.277 . S
Cd298 O307 2.356 . S
C299 O304 1.209 . S
C299 O306 1.226 . S
O300 Cd296 2.273 1_556 S
O300 Cd298 2.411 . S
O300 C303 1.320 . S
O301 Cd298 2.333 . S
O301 C303 1.214 . S
O302 Cd298 2.352 . S
O302 C305 1.258 . S
C303 O300 1.320 . S
C303 O301 1.214 . S
O304 Cd296 2.277 1_556 S
O304 C299 1.209 . S
C305 O302 1.258 . S
C305 O307 1.282 . S
O306 Cd298 2.277 . S
O306 C299 1.226 . S
O307 Cd298 2.356 . S
O307 C305 1.282 . S
C308 O309 1.306 . S
C308 O311 1.160 . S
O309 C308 1.306 . S
O309 Cd310 2.228 1_556 S
Cd310 O309 2.228 1_554 S
Cd310 O314 2.273 1_554 S
Cd310 O318 2.277 1_554 S
O311 C308 1.160 . S
O311 Cd312 2.203 . S
Cd312 O311 2.203 . S
Cd312 O314 2.411 . S
Cd312 O315 2.333 . S
Cd312 O316 2.352 . S
Cd312 O320 2.277 . S
Cd312 O321 2.356 . S
C313 O318 1.209 . S
C313 O320 1.226 . S
O314 Cd310 2.273 1_556 S
O314 Cd312 2.411 . S
O314 C317 1.320 . S
O315 Cd312 2.333 . S
O315 C317 1.214 . S
O316 Cd312 2.352 . S
O316 C319 1.258 . S
C317 O314 1.320 . S
C317 O315 1.214 . S
O318 Cd310 2.277 1_556 S
O318 C313 1.209 . S
C319 O316 1.258 . S
C319 O321 1.282 . S
O320 Cd312 2.277 . S
O320 C313 1.226 . S
O321 Cd312 2.356 . S
O321 C319 1.282 . S
C322 O323 1.306 . S
C322 O325 1.160 . S
O323 C322 1.306 . S
O323 Cd324 2.228 1_556 S
Cd324 O323 2.228 1_554 S
Cd324 O328 2.273 1_554 S
Cd324 O332 2.277 1_554 S
O325 C322 1.160 . S
O325 Cd326 2.203 . S
Cd326 O325 2.203 . S
Cd326 O328 2.411 . S
Cd326 O329 2.333 . S
Cd326 O330 2.352 . S
Cd326 O334 2.277 . S
Cd326 O335 2.356 . S
C327 O332 1.209 . S
C327 O334 1.226 . S
O328 Cd324 2.273 1_556 S
O328 Cd326 2.411 . S
O328 C331 1.320 . S
O329 Cd326 2.333 . S
O329 C331 1.214 . S
O330 Cd326 2.352 . S
O330 C333 1.258 . S
C331 O328 1.320 . S
C331 O329 1.214 . S
O332 Cd324 2.277 1_556 S
O332 C327 1.209 . S
C333 O330 1.258 . S
C333 O335 1.282 . S
O334 Cd326 2.277 . S
O334 C327 1.226 . S
O335 Cd326 2.356 . S
O335 C333 1.282 . S
C336 O337 1.306 . S
C336 O339 1.160 . S
O337 C336 1.306 . S
O337 Cd338 2.228 . S
Cd338 O337 2.228 . S
Cd338 O342 2.273 . S
Cd338 O346 2.277 . S
O339 C336 1.160 . S
O339 Cd340 2.203 . S
Cd340 O339 2.203 . S
Cd340 O342 2.411 . S
Cd340 O343 2.333 . S
Cd340 O344 2.352 . S
Cd340 O348 2.277 . S
Cd340 O349 2.356 . S
C341 O346 1.209 . S
C341 O348 1.226 . S
O342 Cd338 2.273 . S
O342 Cd340 2.411 . S
O342 C345 1.320 . S
O343 Cd340 2.333 . S
O343 C345 1.214 . S
O344 Cd340 2.352 . S
O344 C347 1.258 . S
C345 O342 1.320 . S
C345 O343 1.214 . S
O346 Cd338 2.277 . S
O346 C341 1.209 . S
C347 O344 1.258 . S
C347 O349 1.282 . S
O348 Cd340 2.277 . S
O348 C341 1.226 . S
O349 Cd340 2.356 . S
O349 C347 1.282 . S
C350 O351 1.306 . S
C350 O353 1.160 . S
O351 C350 1.306 . S
O351 Cd352 2.228 . S
Cd352 O351 2.228 . S
Cd352 O356 2.273 . S
Cd352 O360 2.277 . S
O353 C350 1.160 . S
O353 Cd354 2.203 . S
Cd354 O353 2.203 . S
Cd354 O356 2.411 . S
Cd354 O357 2.333 . S
Cd354 O358 2.352 . S
Cd354 O362 2.277 . S
Cd354 O363 2.356 . S
C355 O360 1.209 . S
C355 O362 1.226 . S
O356 Cd352 2.273 . S
O356 Cd354 2.411 . S
O356 C359 1.320 . S
O357 Cd354 2.333 . S
O357 C359 1.214 . S
O358 Cd354 2.352 . S
O358 C361 1.258 . S
C359 O356 1.320 . S
C359 O357 1.214 . S
O360 Cd352 2.277 . S
O360 C355 1.209 . S
C361 O358 1.258 . S
C361 O363 1.282 . S
O362 Cd354 2.277 . S
O362 C355 1.226 . S
O363 Cd354 2.356 . S
O363 C361 1.282 . S
C364 O365 1.306 . S
C364 O367 1.160 . S
O365 C364 1.306 . S
O365 Cd366 2.228 . S
Cd366 O365 2.228 . S
Cd366 O370 2.273 . S
Cd366 O374 2.277 . S
O367 C364 1.160 . S
O367 Cd368 2.203 . S
Cd368 O367 2.203 . S
Cd368 O370 2.411 . S
Cd368 O371 2.333 . S
Cd368 O372 2.352 . S
Cd368 O376 2.277 . S
Cd368 O377 2.356 . S
C369 O374 1.209 . S
C369 O376 1.226 . S
O370 Cd366 2.273 . S
O370 Cd368 2.411 . S
O370 C373 1.320 . S
O371 Cd368 2.333 . S
O371 C373 1.214 . S
O372 Cd368 2.352 . S
O372 C375 1.258 . S
C373 O370 1.320 . S
C373 O371 1.214 . S
O374 Cd366 2.277 . S
O374 C369 1.209 . S
C375 O372 1.258 . S
C375 O377 1.282 . S
O376 Cd368 2.277 . S
O376 C369 1.226 . S
O377 Cd368 2.356 . S
O377 C375 1.282 . S
C378 O379 1.306 1_554 S
C378 O381 1.160 . S
O379 C378 1.306 1_556 S
O379 Cd380 2.228 . S
Cd380 O379 2.228 . S
Cd380 O384 2.273 1_556 S
Cd380 O388 2.277 1_556 S
O381 C378 1.160 . S
O381 Cd382 2.203 . S
Cd382 O381 2.203 . S
Cd382 O384 2.411 . S
Cd382 O385 2.333 . S
Cd382 O386 2.352 . S
Cd382 O390 2.277 . S
Cd382 O391 2.356 . S
C383 O388 1.209 . S
C383 O390 1.226 . S
O384 Cd380 2.273 1_554 S
O384 Cd382 2.411 . S
O384 C387 1.320 . S
O385 Cd382 2.333 . S
O385 C387 1.214 . S
O386 Cd382 2.352 . S
O386 C389 1.258 . S
C387 O384 1.320 . S
C387 O385 1.214 . S
O388 Cd380 2.277 1_554 S
O388 C383 1.209 . S
C389 O386 1.258 . S
C389 O391 1.282 . S
O390 Cd382 2.277 . S
O390 C383 1.226 . S
O391 Cd382 2.356 . S
O391 C389 1.282 . S
C392 O393 1.306 1_554 S
C392 O395 1.160 . S
O393 C392 1.306 1_556 S
O393 Cd394 2.228 . S
Cd394 O393 2.228 . S
Cd394 O398 2.273 1_556 S
Cd394 O402 2.277 1_556 S
O395 C392 1.160 . S
O395 Cd396 2.203 . S
Cd396 O395 2.203 . S
Cd396 O398 2.411 . S
Cd396 O399 2.333 . S
Cd396 O400 2.352 . S
Cd396 O404 2.277 . S
Cd396 O405 2.356 . S
C397 O402 1.209 . S
C397 O404 1.226 . S
O398 Cd394 2.273 1_554 S
O398 Cd396 2.411 . S
O398 C401 1.320 . S
O399 Cd396 2.333 . S
O399 C401 1.214 . S
O400 Cd396 2.352 . S
O400 C403 1.258 . S
C401 O398 1.320 . S
C401 O399 1.214 . S
O402 Cd394 2.277 1_554 S
O402 C397 1.209 . S
C403 O400 1.258 . S
C403 O405 1.282 . S
O404 Cd396 2.277 . S
O404 C397 1.226 . S
O405 Cd396 2.356 . S
O405 C403 1.282 . S
C406 O407 1.306 1_554 S
C406 O409 1.160 . S
O407 C406 1.306 1_556 S
O407 Cd408 2.228 . S
Cd408 O407 2.228 . S
Cd408 O412 2.273 1_556 S
Cd408 O416 2.277 1_556 S
O409 C406 1.160 . S
O409 Cd410 2.203 . S
Cd410 O409 2.203 . S
Cd410 O412 2.411 . S
Cd410 O413 2.333 . S
Cd410 O414 2.352 . S
Cd410 O418 2.277 . S
Cd410 O419 2.356 . S
C411 O416 1.209 . S
C411 O418 1.226 . S
O412 Cd408 2.273 1_554 S
O412 Cd410 2.411 . S
O412 C415 1.320 . S
O413 Cd410 2.333 . S
O413 C415 1.214 . S
O414 Cd410 2.352 . S
O414 C417 1.258 . S
C415 O412 1.320 . S
C415 O413 1.214 . S
O416 Cd408 2.277 1_554 S
O416 C411 1.209 . S
C417 O414 1.258 . S
C417 O419 1.282 . S
O418 Cd410 2.277 . S
O418 C411 1.226 . S
O419 Cd410 2.356 . S
O419 C417 1.282 . S
C420 O421 1.306 . S
C420 O423 1.160 . S
O421 C420 1.306 . S
O421 Cd422 2.228 . S
Cd422 O421 2.228 . S
Cd422 O426 2.273 . S
Cd422 O430 2.277 . S
O423 C420 1.160 . S
O423 Cd424 2.203 . S
Cd424 O423 2.203 . S
Cd424 O426 2.411 . S
Cd424 O427 2.333 . S
Cd424 O428 2.352 . S
Cd424 O432 2.277 . S
Cd424 O433 2.356 . S
C425 O430 1.209 . S
C425 O432 1.226 . S
O426 Cd422 2.273 . S
O426 Cd424 2.411 . S
O426 C429 1.320 . S
O427 Cd424 2.333 . S
O427 C429 1.214 . S
O428 Cd424 2.352 . S
O428 C431 1.258 . S
C429 O426 1.320 . S
C429 O427 1.214 . S
O430 Cd422 2.277 . S
O430 C425 1.209 . S
C431 O428 1.258 . S
C431 O433 1.282 . S
O432 Cd424 2.277 . S
O432 C425 1.226 . S
O433 Cd424 2.356 . S
O433 C431 1.282 . S
C434 O435 1.306 . S
C434 O437 1.160 . S
O435 C434 1.306 . S
O435 Cd436 2.228 . S
Cd436 O435 2.228 . S
Cd436 O440 2.273 . S
Cd436 O444 2.277 . S
O437 C434 1.160 . S
O437 Cd438 2.203 . S
Cd438 O437 2.203 . S
Cd438 O440 2.411 . S
Cd438 O441 2.333 . S
Cd438 O442 2.352 . S
Cd438 O446 2.277 . S
Cd438 O447 2.356 . S
C439 O444 1.209 . S
C439 O446 1.226 . S
O440 Cd436 2.273 . S
O440 Cd438 2.411 . S
O440 C443 1.320 . S
O441 Cd438 2.333 . S
O441 C443 1.214 . S
O442 Cd438 2.352 . S
O442 C445 1.258 . S
C443 O440 1.320 . S
C443 O441 1.214 . S
O444 Cd436 2.277 . S
O444 C439 1.209 . S
C445 O442 1.258 . S
C445 O447 1.282 . S
O446 Cd438 2.277 . S
O446 C439 1.226 . S
O447 Cd438 2.356 . S
O447 C445 1.282 . S
C448 O449 1.306 . S
C448 O451 1.160 . S
O449 C448 1.306 . S
O449 Cd450 2.228 . S
Cd450 O449 2.228 . S
Cd450 O454 2.273 . S
Cd450 O458 2.277 . S
O451 C448 1.160 . S
O451 Cd452 2.203 . S
Cd452 O451 2.203 . S
Cd452 O454 2.411 . S
Cd452 O455 2.333 . S
Cd452 O456 2.352 . S
Cd452 O460 2.277 . S
Cd452 O461 2.356 . S
C453 O458 1.209 . S
C453 O460 1.226 . S
O454 Cd450 2.273 . S
O454 Cd452 2.411 . S
O454 C457 1.320 . S
O455 Cd452 2.333 . S
O455 C457 1.214 . S
O456 Cd452 2.352 . S
O456 C459 1.258 . S
C457 O454 1.320 . S
C457 O455 1.214 . S
O458 Cd450 2.277 . S
O458 C453 1.209 . S
C459 O456 1.258 . S
C459 O461 1.282 . S
O460 Cd452 2.277 . S
O460 C453 1.226 . S
O461 Cd452 2.356 . S
O461 C459 1.282 . S
C462 O463 1.306 . S
C462 O465 1.160 . S
O463 C462 1.306 . S
O463 Cd464 2.228 . S
Cd464 O463 2.228 . S
Cd464 O468 2.273 . S
Cd464 O472 2.277 . S
O465 C462 1.160 . S
O465 Cd466 2.203 . S
Cd466 O465 2.203 . S
Cd466 O468 2.411 . S
Cd466 O469 2.333 . S
Cd466 O470 2.352 . S
Cd466 O474 2.277 . S
Cd466 O475 2.356 . S
C467 O472 1.209 . S
C467 O474 1.226 . S
O468 Cd464 2.273 . S
O468 Cd466 2.411 . S
O468 C471 1.320 . S
O469 Cd466 2.333 . S
O469 C471 1.214 . S
O470 Cd466 2.352 . S
O470 C473 1.258 . S
C471 O468 1.320 . S
C471 O469 1.214 . S
O472 Cd464 2.277 . S
O472 C467 1.209 . S
C473 O470 1.258 . S
C473 O475 1.282 . S
O474 Cd466 2.277 . S
O474 C467 1.226 . S
O475 Cd466 2.356 . S
O475 C473 1.282 . S
C476 O477 1.306 . S
C476 O479 1.160 . S
O477 C476 1.306 . S
O477 Cd478 2.228 . S
Cd478 O477 2.228 . S
Cd478 O482 2.273 . S
Cd478 O486 2.277 . S
O479 C476 1.160 . S
O479 Cd480 2.203 . S
Cd480 O479 2.203 . S
Cd480 O482 2.411 . S
Cd480 O483 2.333 . S
Cd480 O484 2.352 . S
Cd480 O488 2.277 . S
Cd480 O489 2.356 . S
C481 O486 1.209 . S
C481 O488 1.226 . S
O482 Cd478 2.273 . S
O482 Cd480 2.411 . S
O482 C485 1.320 . S
O483 Cd480 2.333 . S
O483 C485 1.214 . S
O484 Cd480 2.352 . S
O484 C487 1.258 . S
C485 O482 1.320 . S
C485 O483 1.214 . S
O486 Cd478 2.277 . S
O486 C481 1.209 . S
C487 O484 1.258 . S
C487 O489 1.282 . S
O488 Cd480 2.277 . S
O488 C481 1.226 . S
O489 Cd480 2.356 . S
O489 C487 1.282 . S
C490 O491 1.306 . S
C490 O493 1.160 . S
O491 C490 1.306 . S
O491 Cd492 2.228 . S
Cd492 O491 2.228 . S
Cd492 O496 2.273 . S
Cd492 O500 2.277 . S
O493 C490 1.160 . S
O493 Cd494 2.203 . S
Cd494 O493 2.203 . S
Cd494 O496 2.411 . S
Cd494 O497 2.333 . S
Cd494 O498 2.352 . S
Cd494 O502 2.277 . S
Cd494 O503 2.356 . S
C495 O500 1.209 . S
C495 O502 1.226 . S
O496 Cd492 2.273 . S
O496 Cd494 2.411 . S
O496 C499 1.320 . S
O497 Cd494 2.333 . S
O497 C499 1.214 . S
O498 Cd494 2.352 . S
O498 C501 1.258 . S
C499 O496 1.320 . S
C499 O497 1.214 . S
O500 Cd492 2.277 . S
O500 C495 1.209 . S
C501 O498 1.258 . S
C501 O503 1.282 . S
O502 Cd494 2.277 . S
O502 C495 1.226 . S
O503 Cd494 2.356 . S
O503 C501 1.282 . S
C0 C261 1.468 . S
C275 C14 1.468 . S
C289 C28 1.468 . S
C42 C471 1.467 . S
C56 C485 1.467 . S
C70 C499 1.468 . S
C336 C93 1.468 . S
C107 C350 1.468 . S
C121 C364 1.468 . S
C210 C135 1.468 . S
C224 C149 1.468 . S
C238 C163 1.468 . S
C429 C168 1.468 1_455 S
C443 C182 1.468 . S
C196 C457 1.467 1_545 S
C378 C303 1.468 1_564 S
C317 C392 1.468 1_656 S
C331 C406 1.468 1_556 S
C11 C389 1.569 . S
C403 C25 1.569 . S
C417 C39 1.570 . S
C179 C53 1.570 . S
C193 C67 1.569 . S
C207 C81 1.570 . S
C95 C305 1.534 . S
C319 C109 1.523 . S
C333 C123 1.523 . S
C137 C431 1.523 . S
C151 C445 1.523 . S
C165 C459 1.523 . S
C221 C347 1.570 . S
C235 C361 1.569 1_545 S
C249 C375 1.569 1_655 S
C263 C473 1.523 . S
C487 C277 1.523 1_565 S
C291 C501 1.523 1_655 S
C23 C5 1.374 . S
C19 C37 1.379 . S
C33 C9 1.384 . S
C47 C79 1.374 . S
C51 C61 1.379 . S
C75 C65 1.373 . S
C89 C98 1.511 . S
C103 C112 1.523 . S
C117 C84 1.513 . S
C154 C131 1.511 . S
C145 C126 1.516 . S
C140 C159 1.511 . S
C191 C173 1.374 . S
C205 C187 1.374 . S
C177 C201 1.374 . S
C215 C247 1.374 . S
C229 C219 1.374 . S
C243 C233 1.374 . S
C266 C257 1.511 . S
C271 C280 1.510 . S
C285 C252 1.511 . S
C299 C322 1.511 . S
C313 C294 1.511 . S
C308 C327 1.511 . S
C359 C341 1.374 . S
C355 C373 1.374 . S
C345 C369 1.374 . S
C383 C415 1.374 . S
C397 C387 1.374 . S
C411 C401 1.374 . S
C425 C434 1.511 . S
C439 C448 1.511 . S
C453 C420 1.511 . S
C467 C490 1.511 . S
C481 C462 1.511 . S
C476 C495 1.511 . S
