# Generated by pormake.
# Topology wgw, (6)-cn, num edge types: 1
# Building blocks:
#     Node 0, Type 0, BuildingBlock: IZENUY_clean_sbu_0, # of connection points: 6
#     Node 1, Type 0, BuildingBlock: IZENUY_clean_sbu_0, # of connection points: 6
#     Node 2, Type 0, BuildingBlock: IZENUY_clean_sbu_0, # of connection points: 6
#     Node 3, Type 0, BuildingBlock: IZENUY_clean_sbu_0, # of connection points: 6
#     Node 4, Type 0, BuildingBlock: IZENUY_clean_sbu_0, # of connection points: 6
#     Node 5, Type 0, BuildingBlock: IZENUY_clean_sbu_0, # of connection points: 6
#     Node 6, Type 0, BuildingBlock: IZENUY_clean_sbu_0, # of connection points: 6
#     Node 7, Type 0, BuildingBlock: IZENUY_clean_sbu_0, # of connection points: 6
#     Edge 8, Type (0, 0), BuildingBlock: EZIPEK_clean_linker_0, # of connection points: 2
#     Edge 9, Type (0, 0), BuildingBlock: EZIPEK_clean_linker_0, # of connection points: 2
#     Edge 10, Type (0, 0), BuildingBlock: EZIPEK_clean_linker_0, # of connection points: 2
#     Edge 11, Type (0, 0), BuildingBlock: EZIPEK_clean_linker_0, # of connection points: 2
#     Edge 12, Type (0, 0), BuildingBlock: EZIPEK_clean_linker_0, # of connection points: 2
#     Edge 13, Type (0, 0), BuildingBlock: EZIPEK_clean_linker_0, # of connection points: 2
#     Edge 14, Type (0, 0), BuildingBlock: EZIPEK_clean_linker_0, # of connection points: 2
#     Edge 15, Type (0, 0), BuildingBlock: EZIPEK_clean_linker_0, # of connection points: 2
#     Edge 16, Type (0, 0), BuildingBlock: EZIPEK_clean_linker_0, # of connection points: 2
#     Edge 17, Type (0, 0), BuildingBlock: EZIPEK_clean_linker_0, # of connection points: 2
#     Edge 18, Type (0, 0), BuildingBlock: EZIPEK_clean_linker_0, # of connection points: 2
#     Edge 19, Type (0, 0), BuildingBlock: EZIPEK_clean_linker_0, # of connection points: 2
#     Edge 20, Type (0, 0), BuildingBlock: EZIPEK_clean_linker_0, # of connection points: 2
#     Edge 21, Type (0, 0), BuildingBlock: EZIPEK_clean_linker_0, # of connection points: 2
#     Edge 22, Type (0, 0), BuildingBlock: EZIPEK_clean_linker_0, # of connection points: 2
#     Edge 23, Type (0, 0), BuildingBlock: EZIPEK_clean_linker_0, # of connection points: 2
#     Edge 24, Type (0, 0), BuildingBlock: EZIPEK_clean_linker_0, # of connection points: 2
#     Edge 25, Type (0, 0), BuildingBlock: EZIPEK_clean_linker_0, # of connection points: 2
#     Edge 26, Type (0, 0), BuildingBlock: EZIPEK_clean_linker_0, # of connection points: 2
#     Edge 27, Type (0, 0), BuildingBlock: EZIPEK_clean_linker_0, # of connection points: 2
#     Edge 28, Type (0, 0), BuildingBlock: EZIPEK_clean_linker_0, # of connection points: 2
#     Edge 29, Type (0, 0), BuildingBlock: EZIPEK_clean_linker_0, # of connection points: 2
#     Edge 30, Type (0, 0), BuildingBlock: EZIPEK_clean_linker_0, # of connection points: 2
#     Edge 31, Type (0, 0), BuildingBlock: EZIPEK_clean_linker_0, # of connection points: 2
# Relax obj value: 0.277
# Max RMSD: 0.289
# Mean RMSD: 0.289
data_MOF--net-wgw--node1-IZENUY_clean_sbu_0--edge1-EZIPEK_clean_linker_0
_symmetry_space_group_name_H-M    P1
_symmetry_Int_Tables_number       1
_symmetry_cell_setting            triclinic
loop_
_symmetry_equiv_pos_as_xyz
'x, y, z'
_cell_length_a     20.332789
_cell_length_b     20.540982
_cell_length_c     31.998541
_cell_angle_alpha  90.087636
_cell_angle_beta   90.132207
_cell_angle_gamma 90.08265
loop_
_atom_site_label
_atom_site_type_symbol
_atom_site_fract_x
_atom_site_fract_y
_atom_site_fract_z
_atom_type_partial_charge
Fe0 Fe 0.02623 0.38296 0.17154 0.0
Fe1 Fe 0.12933 0.49492 0.17503 0.0
O2 O 0.06588 0.44768 0.19883 0.0
Fe3 Fe 0.03908 0.46562 0.25032 0.0
O4 O 0.06312 0.38589 0.2692 0.0
O5 O 1.01014 0.3343 0.21895 0.0
O6 O 0.10383 0.33964 0.16689 0.0
C7 C 0.15933 0.36149 0.15551 0.0
C8 C 0.92077 0.44125 0.20917 0.0
O9 O 0.1694 0.42251 0.15088 0.0
C10 C 0.04675 0.58783 0.21728 0.0
O11 O 0.03455 0.41713 0.119 0.0
O12 O 0.08034 0.51255 0.12845 0.0
O13 O 0.9544 0.43921 0.24214 0.0
O14 O 0.94591 0.42396 0.17476 0.0
C15 C 0.17566 0.49721 0.25614 0.0
O16 O 0.09889 0.57356 0.19704 0.0
O17 O 1.0121 0.54425 0.23374 0.0
C18 C 0.04923 0.47297 0.1056 0.0
O19 O 0.18673 0.48418 0.21836 0.0
O20 O 0.11771 0.49811 0.26987 0.0
C21 C 0.0367 0.33481 0.25488 0.0
Fe22 Fe 0.02376 0.13605 0.67344 0.0
Fe23 Fe 0.05602 0.05597 0.75142 0.0
O24 O 0.07116 0.07446 0.69817 0.0
Fe25 Fe 0.13165 0.03148 0.66941 0.0
O26 O 0.16008 0.10526 0.64099 0.0
O27 O 0.0979 0.18487 0.66556 0.0
O28 O 1.00977 0.18419 0.72089 0.0
C29 C 0.03779 0.1867 0.75621 0.0
C30 C 0.03635 0.0441 0.60801 0.0
O31 O 0.07289 0.13932 0.76842 0.0
C32 C 0.0662 0.93309 0.71785 0.0
O33 O 0.94705 0.08875 0.68176 0.0
O34 O 0.96998 0.07327 0.74742 0.0
O35 O 0.07378 0.00751 0.62868 0.0
O36 O 0.02878 0.10195 0.62036 0.0
C37 C 0.19433 0.03653 0.74531 0.0
O38 O 0.03452 0.97316 0.73944 0.0
O39 O 0.11281 0.9514 0.69398 0.0
C40 C 0.92989 0.06829 0.71767 0.0
O41 O 0.14041 0.03218 0.76456 0.0
O42 O 0.19565 0.05044 0.70711 0.0
C43 C 0.15155 0.16531 0.64975 0.0
Fe44 Fe 0.47609 0.04513 0.24921 0.0
Fe45 Fe 0.49455 0.13407 0.17263 0.0
O46 O 0.45261 0.0676 0.19703 0.0
Fe47 Fe 0.38927 0.02404 0.16983 0.0
O48 O 0.33075 0.0276 0.21282 0.0
O49 O 0.39646 0.01392 0.26626 0.0
O50 O 0.45393 0.12505 0.27029 0.0
C51 C 0.48048 0.17683 0.25717 0.0
C52 C 0.47071 0.92609 0.20768 0.0
O53 O 0.50669 0.17899 0.22135 0.0
C54 C 0.47289 0.05127 0.10258 0.0
O55 O 0.56191 0.06952 0.24367 0.0
O56 O 0.57476 0.09418 0.17758 0.0
O57 O 0.42124 0.94425 0.18633 0.0
O58 O 0.50024 0.96485 0.23213 0.0
C59 C 0.36165 0.15907 0.15465 0.0
O60 O 0.49156 0.10385 0.11891 0.0
O61 O 0.43745 0.01217 0.1226 0.0
C62 C 0.59842 0.07556 0.2121 0.0
O63 O 0.41794 0.17876 0.16613 0.0
O64 O 0.34889 0.09875 0.14993 0.0
C65 C 0.33973 0.01399 0.2507 0.0
Fe66 Fe 0.39243 0.48304 0.667 0.0
Fe67 Fe 0.5033 0.38184 0.66515 0.0
O68 O 0.45647 0.44065 0.69283 0.0
Fe69 Fe 0.47482 0.45461 0.74649 0.0
O70 O 0.39041 0.47412 0.76277 0.0
O71 O 0.33143 0.46228 0.70605 0.0
O72 O 0.36283 0.40874 0.6389 0.0
C73 C 0.37447 0.34858 0.64626 0.0
C74 C 0.45782 0.5799 0.71778 0.0
O75 O 0.43038 0.33046 0.65956 0.0
C76 C 0.59893 0.44888 0.70729 0.0
O77 O 0.44567 0.50973 0.62445 0.0
O78 O 0.4915 0.41587 0.61229 0.0
O79 O 0.49184 0.53941 0.7378 0.0
O80 O 0.41261 0.56211 0.6926 0.0
C81 C 0.49583 0.32491 0.74553 0.0
O82 O 0.57781 0.43175 0.67138 0.0
O83 O 0.56365 0.44167 0.73964 0.0
C84 C 0.47771 0.47289 0.60067 0.0
O85 O 0.52541 0.33434 0.7114 0.0
O86 O 0.45945 0.36929 0.75976 0.0
C87 C 0.33521 0.47365 0.74451 0.0
Fe88 Fe 0.62944 0.5266 0.36201 0.0
Fe89 Fe 0.53917 0.54972 0.2854 0.0
O90 O 0.56587 0.57169 0.33636 0.0
Fe91 Fe 0.52586 0.63797 0.36175 0.0
O92 O 0.60333 0.68249 0.36497 0.0
O93 O 0.66792 0.60107 0.38514 0.0
O94 O 0.68755 0.53524 0.31893 0.0
C95 C 0.67699 0.52059 0.28124 0.0
C96 C 0.5487 0.55194 0.43012 0.0
O97 O 0.61919 0.51932 0.26686 0.0
C98 C 0.42055 0.57454 0.32671 0.0
O99 O 0.60095 0.44586 0.34181 0.0
O100 O 0.51469 0.47135 0.30366 0.0
O101 O 0.53501 0.60735 0.41545 0.0
O102 O 0.57952 0.5111 0.40824 0.0
C103 C 0.53276 0.6806 0.27656 0.0
O104 O 0.45364 0.57282 0.2935 0.0
O105 O 0.44602 0.59598 0.36011 0.0
C106 C 0.54976 0.42933 0.32119 0.0
O107 O 0.55985 0.62896 0.26383 0.0
O108 O 0.50791 0.68327 0.31291 0.0
C109 C 0.65788 0.66179 0.37901 0.0
Fe110 Fe 0.99643 0.62927 0.86904 0.0
Fe111 Fe 0.97418 0.5474 0.78885 0.0
O112 O 0.95366 0.56721 0.8413 0.0
Fe113 Fe 0.88941 0.52313 0.86653 0.0
O114 O 0.8403 0.59666 0.86973 0.0
O115 O 0.92002 0.65967 0.89477 0.0
O116 O 0.98068 0.69032 0.82957 0.0
C117 C 0.99229 0.68629 0.7911 0.0
C118 C 0.97735 0.54509 0.93415 0.0
O119 O 0.99514 0.63141 0.77291 0.0
C120 C 0.96073 0.42642 0.82998 0.0
O121 O 0.07845 0.60901 0.84661 0.0
O122 O 0.05814 0.52992 0.80188 0.0
O123 O 0.91986 0.53435 0.92067 0.0
O124 O 0.01796 0.5751 0.91185 0.0
C125 C 0.84221 0.52801 0.78237 0.0
O126 O 0.96013 0.46012 0.79677 0.0
O127 O 0.93706 0.44828 0.86376 0.0
C128 C 0.09792 0.5629 0.82312 0.0
O129 O 0.89048 0.56148 0.77007 0.0
O130 O 0.84409 0.50152 0.81809 0.0
C131 C 0.85945 0.64988 0.88577 0.0
Fe132 Fe 0.97661 0.97053 0.28859 0.0
Fe133 Fe 0.99379 0.88473 0.3663 0.0
O134 O 0.95342 0.95097 0.34092 0.0
Fe135 Fe 0.89259 0.99738 0.3678 0.0
O136 O 0.83256 0.99307 0.32564 0.0
O137 O 0.8974 1.00276 0.27145 0.0
O138 O 0.95195 0.89054 0.26913 0.0
C139 C 0.97855 0.83918 0.28266 0.0
C140 C 0.97585 0.09124 0.32795 0.0
O141 O 1.00628 0.83826 0.31813 0.0
C142 C 0.98004 0.97271 0.43375 0.0
O143 O 0.06196 0.94469 0.29479 0.0
O144 O 0.07458 0.92395 0.36157 0.0
O145 O 0.92556 0.07595 0.34933 0.0
O146 O 1.00316 0.05021 0.30424 0.0
C147 C 0.8615 0.86314 0.38415 0.0
O148 O 0.98904 0.91619 0.41983 0.0
O149 O 0.94395 0.01081 0.41348 0.0
C150 C 0.0984 0.94095 0.32673 0.0
O151 O 0.91656 0.8417 0.37208 0.0
O152 O 0.85137 0.92393 0.38967 0.0
C153 C 0.84106 1.00483 0.28746 0.0
Fe154 Fe 0.64075 0.98826 0.86631 0.0
Fe155 Fe 0.53197 0.88326 0.87036 0.0
O156 O 0.57623 0.94333 0.84208 0.0
Fe157 Fe 0.5572 0.95898 0.78875 0.0
O158 O 0.63917 0.93549 0.77153 0.0
O159 O 0.68812 0.99803 0.81791 0.0
O160 O 0.68715 0.91418 0.87487 0.0
C161 C 0.66701 0.86103 0.89001 0.0
C162 C 0.5823 0.08493 0.82132 0.0
O163 O 0.60619 0.85166 0.8976 0.0
C164 C 0.43453 0.95308 0.82293 0.0
O165 O 0.60671 0.98624 0.91982 0.0
O166 O 0.51076 0.93873 0.91252 0.0
O167 O 0.5799 0.04438 0.79154 0.0
O168 O 0.59821 0.066 0.85767 0.0
C169 C 0.53314 0.82292 0.79394 0.0
O170 O 0.45156 0.90567 0.84626 0.0
O171 O 0.47577 0.98463 0.80199 0.0
C172 C 0.55022 0.97244 0.93375 0.0
O173 O 0.54818 0.82055 0.83193 0.0
O174 O 0.52789 0.87692 0.77559 0.0
C175 C 0.68935 0.96627 0.78383 0.0
C176 C 0.30503 0.60539 0.30956 0.0
C177 C 0.34965 0.5573 0.32333 0.0
C178 C 0.26897 0.47213 0.30565 0.0
C179 C 0.23097 0.51889 0.28386 0.0
N180 N 0.20847 0.63169 0.26849 0.0
N181 N 0.37344 0.44513 0.33816 0.0
C182 C 0.24723 0.58622 0.28738 0.0
C183 C 0.33092 0.4907 0.32296 0.0
N184 N 0.31831 0.66934 0.31791 0.0
N185 N 0.24476 0.41066 0.31083 0.0
H186 H 0.41605 0.45814 0.35431 0.0
H187 H 0.36756 0.39521 0.33382 0.0
H188 H 0.1981 0.39721 0.30026 0.0
H189 H 0.26754 0.37522 0.329 0.0
H190 H 0.28579 0.70729 0.31193 0.0
H191 H 0.36039 0.68383 0.33421 0.0
H192 H 0.2215 0.68038 0.26494 0.0
H193 H 0.16339 0.62006 0.25521 0.0
C194 C 0.04732 0.34047 0.82384 0.0
C195 C 0.97997 0.35724 0.82611 0.0
C196 C 0.94964 0.25713 0.7902 0.0
C197 C 0.01793 0.24057 0.78549 0.0
N198 N 0.13029 0.25968 0.80768 0.0
N199 N 0.86777 0.32209 0.82627 0.0
C200 C 0.06631 0.27964 0.80594 0.0
C201 C 0.93152 0.31205 0.81442 0.0
N202 N 0.09312 0.38415 0.83757 0.0
N203 N 0.90148 0.22277 0.77013 0.0
H204 H 0.85342 0.36256 0.84373 0.0
H205 H 0.8307 0.28748 0.8226 0.0
H206 H 0.9094 0.17984 0.75415 0.0
H207 H 0.85312 0.23891 0.76736 0.0
H208 H 0.14327 0.37976 0.83199 0.0
H209 H 0.07987 0.42622 0.85378 0.0
H210 H 0.1664 0.28268 0.82548 0.0
H211 H 0.1469 0.21705 0.79392 0.0
C212 C 0.26129 0.02296 0.31201 0.0
C213 C 0.28375 0.98855 0.27617 0.0
C214 C 0.19666 0.90692 0.28619 0.0
C215 C 0.17059 0.94488 0.3192 0.0
N216 N 0.19109 0.02279 0.37363 0.0
N217 N 0.28482 0.88784 0.23725 0.0
C218 C 0.20753 0.99746 0.33562 0.0
C219 C 0.25504 0.92737 0.26576 0.0
N220 N 0.28877 0.08168 0.32209 0.0
N221 N 0.16411 0.85181 0.27392 0.0
H222 H 0.32737 0.9013 0.22182 0.0
H223 H 0.27092 0.83994 0.2313 0.0
H224 H 0.12607 0.83187 0.29159 0.0
H225 H 0.17357 0.82658 0.24636 0.0
H226 H 0.26997 0.11248 0.34499 0.0
H227 H 0.3278 0.1019 0.30546 0.0
H228 H 0.21915 0.0577 0.38918 0.0
H229 H 0.15202 1.00454 0.39115 0.0
C230 C 0.54192 0.21303 0.74657 0.0
C231 C 0.51428 0.26502 0.76984 0.0
C232 C 0.53899 0.20197 0.83387 0.0
C233 C 0.57284 0.15494 0.80926 0.0
N234 N 0.63387 0.14022 0.74526 0.0
N235 N 0.50327 0.31417 0.83897 0.0
C236 C 0.58401 0.16934 0.76674 0.0
C237 C 0.51714 0.26133 0.8146 0.0
N238 N 0.52615 0.20302 0.70557 0.0
N239 N 0.52793 0.19114 0.87524 0.0
H240 H 0.49031 0.35956 0.82743 0.0
H241 H 0.51127 0.31475 0.87115 0.0
H242 H 0.55085 0.15404 0.89174 0.0
H243 H 0.49531 0.21901 0.89285 0.0
H244 H 0.54414 0.16333 0.68871 0.0
H245 H 0.48852 0.22848 0.69067 0.0
H246 H 0.64441 0.15188 0.71424 0.0
H247 H 0.66861 0.11088 0.76019 0.0
C248 C 0.76859 0.54243 0.22962 0.0
C249 C 0.73273 0.49744 0.25432 0.0
C250 C 0.80835 0.41008 0.23213 0.0
C251 C 0.84996 0.45731 0.21392 0.0
N252 N 0.87049 0.56804 0.1936 0.0
N253 N 0.71415 0.38637 0.27574 0.0
C254 C 0.82971 0.52329 0.21158 0.0
C255 C 0.75099 0.43041 0.25414 0.0
N256 N 0.74324 0.60291 0.22267 0.0
N257 N 0.82429 0.3457 0.22817 0.0
H258 H 0.66891 0.39816 0.28841 0.0
H259 H 0.7284 0.33869 0.28179 0.0
H260 H 0.8658 0.3303 0.21177 0.0
H261 H 0.79451 0.30741 0.23786 0.0
H262 H 0.76395 0.63685 0.20247 0.0
H263 H 0.69748 0.61655 0.23421 0.0
H264 H 0.86364 0.61816 0.19569 0.0
H265 H 0.91306 0.55449 0.17774 0.0
C266 C 0.09566 0.83298 0.75745 0.0
C267 C 0.05417 0.86321 0.72781 0.0
C268 C 0.97578 0.77194 0.73472 0.0
C269 C 0.0133 0.74682 0.7686 0.0
N270 N 0.10399 0.76293 0.81725 0.0
N271 N 0.95047 0.86584 0.69135 0.0
C272 C 0.07178 0.77998 0.78136 0.0
C273 C 0.99313 0.83359 0.71705 0.0
N274 N 0.15814 0.85548 0.76336 0.0
N275 N 0.92289 0.73778 0.71999 0.0
H276 H 0.96242 0.90991 0.67706 0.0
H277 H 0.90207 0.85112 0.68627 0.0
H278 H 0.90671 0.6945 0.73351 0.0
H279 H 0.89761 0.75017 0.69281 0.0
H280 H 0.19359 0.83086 0.78078 0.0
H281 H 0.17639 0.89533 0.7473 0.0
H282 H 0.14117 0.7911 0.83061 0.0
H283 H 0.09073 0.72403 0.83598 0.0
C284 C 0.70762 0.02004 0.2031 0.0
C285 C 0.67056 0.0721 0.21981 0.0
C286 C 0.75665 0.09113 0.27222 0.0
C287 C 0.78511 0.02996 0.26194 0.0
N288 N 0.7891 0.93626 0.21641 0.0
N289 N 0.6639 0.16443 0.26579 0.0
C290 C 0.76183 0.99496 0.22647 0.0
C291 C 0.69698 0.11026 0.25275 0.0
N292 N 0.69119 0.99514 0.16493 0.0
N293 N 0.78804 0.1321 0.29936 0.0
H294 H 0.62483 0.18386 0.24879 0.0
H295 H 0.67406 0.1892 0.29348 0.0
H296 H 0.8326 0.12049 0.31324 0.0
H297 H 0.77365 0.1799 0.30505 0.0
H298 H 0.71934 0.96057 0.14927 0.0
H299 H 0.65217 0.0136 0.1474 0.0
H300 H 0.76982 0.90529 0.19367 0.0
H301 H 0.82849 0.91626 0.23286 0.0
C302 C 0.43919 0.66595 0.77141 0.0
C303 C 0.46413 0.64881 0.73156 0.0
C304 C 0.53551 0.74518 0.73257 0.0
C305 C 0.51025 0.76251 0.77254 0.0
N306 N 0.42785 0.7452 0.82635 0.0
N307 N 0.52289 0.67913 0.66977 0.0
C308 C 0.45946 0.7244 0.79103 0.0
C309 C 0.50801 0.69098 0.71065 0.0
N310 N 0.3964 0.62518 0.79104 0.0
N311 N 0.58839 0.77796 0.71672 0.0
H312 H 0.50226 0.64015 0.65337 0.0
H313 H 0.55036 0.71069 0.65128 0.0
H314 H 0.61138 0.8162 0.73249 0.0
H315 H 0.61329 0.76362 0.68985 0.0
H316 H 0.38586 0.62681 0.82286 0.0
H317 H 0.37205 0.58881 0.7749 0.0
H318 H 0.38457 0.72451 0.83751 0.0
H319 H 0.44036 0.78675 0.843 0.0
C320 C 0.77746 0.44324 0.7423 0.0
C321 C 0.78758 0.50985 0.7527 0.0
C322 C 0.68353 0.53655 0.71699 0.0
C323 C 0.6684 0.46921 0.71416 0.0
N324 N 0.70015 0.35757 0.72449 0.0
N325 N 0.75348 0.62144 0.74596 0.0
C326 C 0.7155 0.42231 0.72648 0.0
C327 C 0.74198 0.55713 0.73818 0.0
N328 N 0.82838 0.40044 0.7455 0.0
N329 N 0.6416 0.58059 0.69938 0.0
H330 H 0.79813 0.63787 0.75778 0.0
H331 H 0.71898 0.65817 0.74154 0.0
H332 H 0.59857 0.5663 0.68415 0.0
H333 H 0.65147 0.63013 0.6969 0.0
H334 H 0.82617 0.35249 0.73496 0.0
H335 H 0.87546 0.41542 0.75365 0.0
H336 H 0.72857 0.32136 0.73838 0.0
H337 H 0.65702 0.34034 0.71065 0.0
C338 C 0.03359 0.71054 0.20318 0.0
C339 C 0.03042 0.65579 0.23037 0.0
C340 C 0.96787 0.72073 0.27984 0.0
C341 C 0.98226 0.77811 0.25779 0.0
N342 N 0.03635 0.8287 0.19898 0.0
N343 N 0.01576 0.62112 0.30247 0.0
C344 C 0.01691 0.77361 0.21925 0.0
C345 C 1.00357 0.66434 0.271 0.0
N346 N 0.05063 0.70269 0.16228 0.0
N347 N 0.92157 0.72065 0.31046 0.0
H348 H 0.04937 0.58332 0.29964 0.0
H349 H 0.99991 0.6288 0.33307 0.0
H350 H 0.89303 0.76154 0.31606 0.0
H351 H 0.90673 0.67837 0.32587 0.0
H352 H 0.0478 0.74029 0.14052 0.0
H353 H 0.06198 0.6575 0.14939 0.0
H354 H 0.06787 0.82791 0.17335 0.0
H355 H 0.02426 0.87523 0.20941 0.0
C356 C 0.81113 0.0251 0.70069 0.0
C357 C 0.86301 0.04138 0.72937 0.0
C358 C 0.80843 0.97387 0.78132 0.0
C359 C 0.75002 0.97261 0.75819 0.0
N360 N 0.69398 1.00283 0.69432 0.0
N361 N 0.88313 0.05413 0.80488 0.0
C362 C 0.75065 0.99922 0.71706 0.0
C363 C 0.8542 0.02223 0.77208 0.0
N364 N 0.81804 0.03338 0.65864 0.0
N365 N 0.81668 0.93476 0.81523 0.0
H366 H 0.90567 0.09939 0.80225 0.0
H367 H 0.87438 0.04099 0.83589 0.0
H368 H 0.78253 0.89887 0.82267 0.0
H369 H 0.86035 0.93426 0.83247 0.0
H370 H 0.78353 0.01582 0.63726 0.0
H371 H 0.85945 0.0529 0.64451 0.0
H372 H 0.69059 0.02896 0.66649 0.0
H373 H 0.64968 0.98289 0.70437 0.0
C374 C 0.44428 0.80525 0.20762 0.0
C375 C 0.49141 0.85596 0.20871 0.0
C376 C 0.57249 0.7777 0.23537 0.0
C377 C 0.52048 0.73547 0.24686 0.0
N378 N 0.40604 0.7057 0.2391 0.0
N379 N 0.60574 0.88516 0.21247 0.0
C380 C 0.45608 0.74812 0.23142 0.0
C381 C 0.5575 0.84018 0.21888 0.0
N382 N 0.39109 0.80908 0.18167 0.0
N383 N 0.63585 0.75725 0.23907 0.0
H384 H 0.59697 0.92705 0.19504 0.0
H385 H 0.65313 0.88132 0.22457 0.0
H386 H 0.64678 0.71036 0.24872 0.0
H387 H 0.67635 0.78325 0.22828 0.0
H388 H 0.35766 0.77108 0.17763 0.0
H389 H 0.38574 0.84595 0.15964 0.0
H390 H 0.3568 0.71679 0.23344 0.0
H391 H 0.41383 0.66035 0.25235 0.0
C392 C 0.24221 0.55516 0.75029 0.0
C393 C 0.27594 0.49977 0.76684 0.0
C394 C 0.20707 0.50704 0.83023 0.0
C395 C 0.16815 0.5553 0.81081 0.0
N396 N 0.14991 0.62845 0.75374 0.0
N397 N 0.28768 0.42062 0.82197 0.0
C398 C 0.18712 0.58085 0.77165 0.0
C399 C 0.25824 0.47567 0.80704 0.0
N400 N 0.2638 0.58573 0.71495 0.0
N401 N 0.19481 0.49166 0.87096 0.0
H402 H 0.3234 0.39517 0.80529 0.0
H403 H 0.27303 0.39694 0.84914 0.0
H404 H 0.15764 0.51467 0.88793 0.0
H405 H 0.22418 0.46069 0.88866 0.0
H406 H 0.25015 0.63289 0.70678 0.0
H407 H 0.29702 0.56627 0.69402 0.0
H408 H 0.15191 0.64126 0.72229 0.0
H409 H 0.11561 0.65421 0.77093 0.0
C410 C 0.06787 0.22235 0.27667 0.0
C411 C 0.02742 0.27742 0.28221 0.0
C412 C 0.96025 0.21579 0.3326 0.0
C413 C 1.00019 0.16023 0.32472 0.0
N414 N 0.1112 0.12704 0.31012 0.0
N415 N 0.94504 0.33248 0.32339 0.0
C416 C 0.06073 0.16943 0.30392 0.0
C417 C 0.97677 0.27622 0.31293 0.0
N418 N 0.11018 0.2181 0.24386 0.0
N419 N 0.90749 0.21141 0.3587 0.0
H420 H 0.9563 0.37714 0.30985 0.0
H421 H 0.91137 0.33622 0.3477 0.0
H422 H 0.90182 0.17364 0.38003 0.0
H423 H 0.87033 0.24614 0.36008 0.0
H424 H 0.13656 0.17589 0.23706 0.0
H425 H 0.11245 0.25356 0.22086 0.0
H426 H 0.15781 0.13388 0.29728 0.0
H427 H 0.10751 0.09028 0.33236 0.0
C428 C 0.33197 0.02023 0.8267 0.0
C429 C 0.36501 0.96461 0.81122 0.0
C430 C 0.29225 0.96179 0.75028 0.0
C431 C 0.25575 0.01519 0.76674 0.0
N432 N 0.2379 0.0926 0.82252 0.0
N433 N 0.36532 0.87241 0.76513 0.0
C434 C 0.27438 0.04322 0.80582 0.0
C435 C 0.34137 0.93237 0.77521 0.0
N436 N 0.35725 0.05215 0.8606 0.0
N437 N 0.28118 0.93872 0.71073 0.0
H438 H 0.40032 0.8494 0.78346 0.0
H439 H 0.3452 0.8427 0.74196 0.0
H440 H 0.2426 0.95294 0.69154 0.0
H441 H 0.31331 0.90698 0.69566 0.0
H442 H 0.34124 0.09759 0.87077 0.0
H443 H 0.39646 0.03336 0.87783 0.0
H444 H 0.24412 0.11007 0.85282 0.0
H445 H 0.19945 0.11489 0.80647 0.0
C446 C 0.537 0.30631 0.33643 0.0
C447 C 0.5347 0.36053 0.30873 0.0
C448 C 0.47105 0.2953 0.2598 0.0
C449 C 0.48444 0.23802 0.28221 0.0
N450 N 0.5375 0.18804 0.34167 0.0
N451 N 0.52185 0.39281 0.23607 0.0
C452 C 0.51921 0.24296 0.32083 0.0
C453 C 0.50824 0.35101 0.26804 0.0
N454 N 0.55426 0.31492 0.37726 0.0
N455 N 0.42457 0.29578 0.22919 0.0
H456 H 0.55649 0.4298 0.23872 0.0
H457 H 0.50601 0.38446 0.20548 0.0
H458 H 0.39514 0.25533 0.22398 0.0
H459 H 0.41075 0.33805 0.2134 0.0
H460 H 0.55099 0.27786 0.39936 0.0
H461 H 0.56657 0.36029 0.38962 0.0
H462 H 0.56885 0.18889 0.36748 0.0
H463 H 0.52436 0.14155 0.33156 0.0
C464 C 0.2371 0.28501 0.19187 0.0
C465 C 0.21588 0.3141 0.15399 0.0
C466 C 0.28806 0.23867 0.11499 0.0
C467 C 0.30685 0.2082 0.15305 0.0
N468 N 0.28657 0.19252 0.22651 0.0
N469 N 0.23326 0.32959 0.08049 0.0
C470 C 0.27752 0.22857 0.19107 0.0
C471 C 0.24474 0.29391 0.11568 0.0
N472 N 0.22194 0.31406 0.22902 0.0
N473 N 0.30921 0.21259 0.07815 0.0
H474 H 0.20622 0.37256 0.08122 0.0
H475 H 0.25562 0.32101 0.05182 0.0
H476 H 0.33708 0.17012 0.07717 0.0
H477 H 0.29433 0.22864 0.04881 0.0
H478 H 0.24239 0.30001 0.25747 0.0
H479 H 0.19268 0.35555 0.23089 0.0
H480 H 0.26035 0.20013 0.25401 0.0
H481 H 0.31716 0.15193 0.22758 0.0
C482 C 0.23862 0.23353 0.68554 0.0
C483 C 0.20907 0.21172 0.64768 0.0
C484 C 0.29412 0.27223 0.60829 0.0
C485 C 0.31857 0.29994 0.64606 0.0
N486 N 0.31038 0.30975 0.72101 0.0
N487 N 0.20521 0.21469 0.57259 0.0
C488 C 0.28978 0.28112 0.6847 0.0
C489 C 0.236 0.23227 0.60888 0.0
N490 N 0.2201 0.20628 0.72262 0.0
N491 N 0.32848 0.28131 0.57219 0.0
H492 H 0.1635 0.18503 0.57208 0.0
H493 H 0.2179 0.23324 0.54344 0.0
H494 H 0.37286 0.30669 0.57159 0.0
H495 H 0.31705 0.25827 0.5441 0.0
H496 H 0.24653 0.21211 0.75029 0.0
H497 H 0.18153 0.17324 0.72522 0.0
H498 H 0.28518 0.30578 0.7492 0.0
H499 H 0.35057 0.34097 0.72254 0.0
C500 C 0.78865 0.78184 0.42287 0.0
C501 C 0.80544 0.81548 0.38552 0.0
C502 C 0.73806 0.73818 0.3454 0.0
C503 C 0.71393 0.70973 0.38251 0.0
N504 N 0.71937 0.70099 0.45729 0.0
N505 N 0.78618 0.83169 0.31182 0.0
C506 C 0.74017 0.73065 0.4216 0.0
C507 C 0.77652 0.79576 0.34715 0.0
N508 N 0.82047 0.79766 0.45914 0.0
N509 N 0.72931 0.70669 0.30831 0.0
H510 H 0.81662 0.87242 0.31105 0.0
H511 H 0.76052 0.82315 0.28409 0.0
H512 H 0.70338 0.66302 0.30593 0.0
H513 H 0.75442 0.71985 0.28121 0.0
H514 H 0.81581 0.77164 0.48684 0.0
H515 H 0.85422 0.83591 0.46097 0.0
H516 H 0.72981 0.71789 0.48725 0.0
H517 H 0.69078 0.65894 0.45651 0.0
C518 C 0.74033 0.77986 0.92874 0.0
C519 C 0.71424 0.80499 0.89078 0.0
C520 C 0.78952 0.73466 0.85123 0.0
C521 C 0.81111 0.7047 0.88868 0.0
N522 N 0.80146 0.69306 0.96322 0.0
N523 N 0.70547 0.79593 0.81567 0.0
C524 C 0.78493 0.72573 0.9276 0.0
C525 C 0.73634 0.77919 0.85207 0.0
N526 N 0.72433 0.80911 0.96566 0.0
N527 N 0.82184 0.72295 0.81468 0.0
H528 H 0.66824 0.83042 0.81426 0.0
H529 H 0.71381 0.77227 0.78734 0.0
H530 H 0.85919 0.68867 0.81198 0.0
H531 H 0.81485 0.75078 0.78782 0.0
H532 H 0.74624 0.79745 0.99411 0.0
H533 H 0.69264 0.84889 0.96719 0.0
H534 H 0.77946 0.70161 0.99206 0.0
H535 H 0.83398 0.65382 0.9632 0.0
C536 C 0.0243 0.465 0.98609 0.0
C537 C 0.99592 0.52676 0.97793 0.0
C538 C 0.99727 0.55099 0.05347 0.0
C539 C 0.03067 0.49139 0.0615 0.0
N540 N 0.08436 0.39559 0.0338 0.0
N541 N 0.96618 0.6334 1.00289 0.0
C542 C 0.04609 0.44928 0.02735 0.0
C543 C 0.98567 0.57117 1.01137 0.0
N544 N 0.02996 0.4208 0.95433 0.0
N545 N 0.97325 0.58687 0.08604 0.0
H546 H 0.95671 0.64979 0.97269 0.0
H547 H 0.96499 0.67025 0.02527 0.0
H548 H 0.97864 0.57313 0.11717 0.0
H549 H 0.94236 0.62681 0.0822 0.0
H550 H 0.04181 0.37203 0.95888 0.0
H551 H 0.01867 0.43185 0.92339 0.0
H552 H 0.1046 0.36795 1.00978 0.0
H553 H 0.10058 0.3811 0.06314 0.0
C554 C 0.02443 0.95852 0.55023 0.0
C555 C 0.01338 0.02318 0.56472 0.0
C556 C 0.99198 0.05662 0.49211 0.0
C557 C 1.00236 0.99195 0.4775 0.0
N558 N 0.05945 0.89119 0.49267 0.0
N559 N 0.95435 0.12269 0.54942 0.0
C560 C 0.02713 0.94533 0.50648 0.0
C561 C 0.988 0.06931 0.53574 0.0
N562 N 0.02668 0.90821 0.57805 0.0
N563 N 0.99176 0.10744 0.46462 0.0
H564 H 0.93948 0.12832 0.58034 0.0
H565 H 0.93114 0.15504 0.52912 0.0
H566 H 1.00463 0.10199 0.43328 0.0
H567 H 0.98954 0.15592 0.4742 0.0
H568 H 0.02866 0.85955 0.56888 0.0
H569 H 0.0159 0.91418 0.60963 0.0
H570 H 0.0826 0.85855 0.51278 0.0
H571 H 0.0736 0.88484 0.4617 0.0
C572 C 0.54481 0.95232 1.0117 0.0
C573 C 0.53108 0.99323 0.97698 0.0
C574 C 0.48185 0.07435 0.02446 0.0
C575 C 0.49542 0.03326 0.05933 0.0
N576 N 0.55338 0.94043 0.08703 0.0
N577 N 0.47532 0.08649 0.94897 0.0
C578 C 0.53033 0.97401 0.05312 0.0
C579 C 0.49689 0.05264 0.98308 0.0
N580 N 0.56866 0.89106 1.00488 0.0
N581 N 0.45621 0.13502 0.03079 0.0
H582 H 0.4854 0.07185 0.91846 0.0
H583 H 0.44311 0.12573 0.95039 0.0
H584 H 0.44299 0.15263 0.06003 0.0
H585 H 0.45262 0.17033 1.00763 0.0
H586 H 0.57271 0.85572 0.028 0.0
H587 H 0.57896 0.8733 0.97513 0.0
H588 H 0.58549 0.90115 0.08498 0.0
H589 H 0.54586 0.95553 0.11777 0.0
C590 C 0.48725 0.4783 0.4807 0.0
C591 C 0.52761 0.53411 0.4739 0.0
C592 C 0.53783 0.54755 0.55047 0.0
C593 C 0.49412 0.49471 0.55704 0.0
N594 N 0.4138 0.42149 0.52792 0.0
N595 N 0.57703 0.63121 0.50363 0.0
C596 C 0.46535 0.46309 0.52198 0.0
C597 C 0.54833 0.57172 0.50915 0.0
N598 N 0.46845 0.44019 0.44772 0.0
N599 N 0.57162 0.57319 0.58358 0.0
H600 H 0.58518 0.65176 0.47449 0.0
H601 H 0.58663 0.6633 0.52814 0.0
H602 H 0.56587 0.55615 0.614 0.0
H603 H 0.6097 0.60679 0.5804 0.0
H604 H 0.44676 0.39457 0.4513 0.0
H605 H 0.47753 0.45234 0.4167 0.0
H606 H 0.38616 0.4015 0.50363 0.0
H607 H 0.39385 0.41299 0.55734 0.0
loop_
_geom_bond_atom_site_label_1
_geom_bond_atom_site_label_2
_geom_bond_distance
_geom_bond_site_symmetry_2
_ccdc_geom_bond_type
Fe0 O2 1.918 . S
Fe0 O5 1.997 . S
Fe0 O6 2.002 . S
Fe0 O11 1.976 1_455 S
Fe0 O14 1.996 1_455 S
Fe1 O2 1.918 . S
Fe1 O9 1.997 . S
Fe1 O12 1.996 . S
Fe1 O16 1.976 . S
Fe1 O19 2.002 . S
O2 Fe0 1.918 . S
O2 Fe1 1.918 . S
O2 Fe3 1.918 . S
Fe3 O2 1.918 . S
Fe3 O4 2.002 . S
Fe3 O13 1.976 1_455 S
Fe3 O17 1.996 . S
Fe3 O20 1.997 . S
O4 Fe3 2.002 . S
O4 C21 1.295 . S
O5 Fe0 1.997 . S
O5 C21 1.235 . S
O6 Fe0 2.002 . S
O6 C7 1.295 . S
C7 O6 1.295 . S
C7 O9 1.235 . S
C8 O13 1.287 . S
C8 O14 1.255 . S
O9 Fe1 1.997 . S
O9 C7 1.235 . S
C10 O16 1.287 . S
C10 O17 1.255 . S
O11 Fe0 1.976 1_655 S
O11 C18 1.287 1_655 S
O12 Fe1 1.996 . S
O12 C18 1.255 . S
O13 Fe3 1.976 1_655 S
O13 C8 1.287 . S
O14 Fe0 1.996 1_655 S
O14 C8 1.255 . S
C15 O19 1.295 . S
C15 O20 1.235 . S
O16 Fe1 1.976 . S
O16 C10 1.287 . S
O17 Fe3 1.996 . S
O17 C10 1.255 . S
C18 O11 1.287 1_455 S
C18 O12 1.255 . S
O19 Fe1 2.002 . S
O19 C15 1.295 . S
O20 Fe3 1.997 . S
O20 C15 1.235 . S
C21 O4 1.295 . S
C21 O5 1.235 . S
Fe22 O24 1.918 . S
Fe22 O27 1.997 . S
Fe22 O28 2.002 . S
Fe22 O33 1.976 1_455 S
Fe22 O36 1.996 1_455 S
Fe23 O24 1.918 . S
Fe23 O31 1.997 . S
Fe23 O34 1.996 1_455 S
Fe23 O38 1.976 1_545 S
Fe23 O41 2.002 . S
O24 Fe22 1.918 . S
O24 Fe23 1.918 . S
O24 Fe25 1.918 . S
Fe25 O24 1.918 . S
Fe25 O26 2.002 . S
Fe25 O35 1.976 1_545 S
Fe25 O39 1.996 1_545 S
Fe25 O42 1.997 . S
O26 Fe25 2.002 . S
O26 C43 1.295 . S
O27 Fe22 1.997 . S
O27 C43 1.235 . S
O28 Fe22 2.002 . S
O28 C29 1.295 . S
C29 O28 1.295 . S
C29 O31 1.235 . S
C30 O35 1.287 1_545 S
C30 O36 1.255 1_455 S
O31 Fe23 1.997 . S
O31 C29 1.235 . S
C32 O38 1.287 . S
C32 O39 1.255 . S
O33 Fe22 1.976 1_655 S
O33 C40 1.287 . S
O34 Fe23 1.996 1_655 S
O34 C40 1.255 . S
O35 Fe25 1.976 1_565 S
O35 C30 1.287 1_565 S
O36 Fe22 1.996 1_655 S
O36 C30 1.255 1_655 S
C37 O41 1.295 . S
C37 O42 1.235 . S
O38 Fe23 1.976 1_565 S
O38 C32 1.287 . S
O39 Fe25 1.996 1_565 S
O39 C32 1.255 . S
C40 O33 1.287 . S
C40 O34 1.255 . S
O41 Fe23 2.002 . S
O41 C37 1.295 . S
O42 Fe25 1.997 . S
O42 C37 1.235 . S
C43 O26 1.295 . S
C43 O27 1.235 . S
Fe44 O46 1.918 . S
Fe44 O49 1.997 . S
Fe44 O50 2.002 . S
Fe44 O55 1.976 . S
Fe44 O58 1.996 1_545 S
Fe45 O46 1.918 . S
Fe45 O53 1.997 . S
Fe45 O56 1.996 . S
Fe45 O60 1.976 . S
Fe45 O63 2.002 . S
O46 Fe44 1.918 . S
O46 Fe45 1.918 . S
O46 Fe47 1.918 . S
Fe47 O46 1.918 . S
Fe47 O48 2.002 . S
Fe47 O57 1.976 1_545 S
Fe47 O61 1.996 1_545 S
Fe47 O64 1.997 . S
O48 Fe47 2.002 . S
O48 C65 1.295 . S
O49 Fe44 1.997 . S
O49 C65 1.235 . S
O50 Fe44 2.002 . S
O50 C51 1.295 . S
C51 O50 1.295 . S
C51 O53 1.235 . S
C52 O57 1.287 . S
C52 O58 1.255 . S
O53 Fe45 1.997 . S
O53 C51 1.235 . S
C54 O60 1.287 . S
C54 O61 1.255 1_545 S
O55 Fe44 1.976 . S
O55 C62 1.287 . S
O56 Fe45 1.996 . S
O56 C62 1.255 . S
O57 Fe47 1.976 1_565 S
O57 C52 1.287 . S
O58 Fe44 1.996 1_565 S
O58 C52 1.255 . S
C59 O63 1.295 . S
C59 O64 1.235 . S
O60 Fe45 1.976 . S
O60 C54 1.287 . S
O61 Fe47 1.996 1_565 S
O61 C54 1.255 1_565 S
C62 O55 1.287 . S
C62 O56 1.255 . S
O63 Fe45 2.002 . S
O63 C59 1.295 . S
O64 Fe47 1.997 . S
O64 C59 1.235 . S
C65 O48 1.295 . S
C65 O49 1.235 . S
Fe66 O68 1.918 . S
Fe66 O71 1.997 . S
Fe66 O72 2.002 . S
Fe66 O77 1.976 . S
Fe66 O80 1.996 . S
Fe67 O68 1.918 . S
Fe67 O75 1.997 . S
Fe67 O78 1.996 . S
Fe67 O82 1.976 . S
Fe67 O85 2.002 . S
O68 Fe66 1.918 . S
O68 Fe67 1.918 . S
O68 Fe69 1.918 . S
Fe69 O68 1.918 . S
Fe69 O70 2.002 . S
Fe69 O79 1.976 . S
Fe69 O83 1.996 . S
Fe69 O86 1.997 . S
O70 Fe69 2.002 . S
O70 C87 1.295 . S
O71 Fe66 1.997 . S
O71 C87 1.235 . S
O72 Fe66 2.002 . S
O72 C73 1.295 . S
C73 O72 1.295 . S
C73 O75 1.235 . S
C74 O79 1.287 . S
C74 O80 1.255 . S
O75 Fe67 1.997 . S
O75 C73 1.235 . S
C76 O82 1.287 . S
C76 O83 1.255 . S
O77 Fe66 1.976 . S
O77 C84 1.287 . S
O78 Fe67 1.996 . S
O78 C84 1.255 . S
O79 Fe69 1.976 . S
O79 C74 1.287 . S
O80 Fe66 1.996 . S
O80 C74 1.255 . S
C81 O85 1.295 . S
C81 O86 1.235 . S
O82 Fe67 1.976 . S
O82 C76 1.287 . S
O83 Fe69 1.996 . S
O83 C76 1.255 . S
C84 O77 1.287 . S
C84 O78 1.255 . S
O85 Fe67 2.002 . S
O85 C81 1.295 . S
O86 Fe69 1.997 . S
O86 C81 1.235 . S
C87 O70 1.295 . S
C87 O71 1.235 . S
Fe88 O90 1.918 . S
Fe88 O93 1.997 . S
Fe88 O94 2.002 . S
Fe88 O99 1.976 . S
Fe88 O102 1.996 . S
Fe89 O90 1.918 . S
Fe89 O97 1.997 . S
Fe89 O100 1.996 . S
Fe89 O104 1.976 . S
Fe89 O107 2.002 . S
O90 Fe88 1.918 . S
O90 Fe89 1.918 . S
O90 Fe91 1.918 . S
Fe91 O90 1.918 . S
Fe91 O92 2.002 . S
Fe91 O101 1.976 . S
Fe91 O105 1.996 . S
Fe91 O108 1.997 . S
O92 Fe91 2.002 . S
O92 C109 1.295 . S
O93 Fe88 1.997 . S
O93 C109 1.235 . S
O94 Fe88 2.002 . S
O94 C95 1.295 . S
C95 O94 1.295 . S
C95 O97 1.235 . S
C96 O101 1.287 . S
C96 O102 1.255 . S
O97 Fe89 1.997 . S
O97 C95 1.235 . S
C98 O104 1.287 . S
C98 O105 1.255 . S
O99 Fe88 1.976 . S
O99 C106 1.287 . S
O100 Fe89 1.996 . S
O100 C106 1.255 . S
O101 Fe91 1.976 . S
O101 C96 1.287 . S
O102 Fe88 1.996 . S
O102 C96 1.255 . S
C103 O107 1.295 . S
C103 O108 1.235 . S
O104 Fe89 1.976 . S
O104 C98 1.287 . S
O105 Fe91 1.996 . S
O105 C98 1.255 . S
C106 O99 1.287 . S
C106 O100 1.255 . S
O107 Fe89 2.002 . S
O107 C103 1.295 . S
O108 Fe91 1.997 . S
O108 C103 1.235 . S
C109 O92 1.295 . S
C109 O93 1.235 . S
Fe110 O112 1.918 . S
Fe110 O115 1.997 . S
Fe110 O116 2.002 . S
Fe110 O121 1.976 1_655 S
Fe110 O124 1.996 1_655 S
Fe111 O112 1.918 . S
Fe111 O119 1.997 . S
Fe111 O122 1.996 1_655 S
Fe111 O126 1.976 . S
Fe111 O129 2.002 . S
O112 Fe110 1.918 . S
O112 Fe111 1.918 . S
O112 Fe113 1.918 . S
Fe113 O112 1.918 . S
Fe113 O114 2.002 . S
Fe113 O123 1.976 . S
Fe113 O127 1.996 . S
Fe113 O130 1.997 . S
O114 Fe113 2.002 . S
O114 C131 1.295 . S
O115 Fe110 1.997 . S
O115 C131 1.235 . S
O116 Fe110 2.002 . S
O116 C117 1.295 . S
C117 O116 1.295 . S
C117 O119 1.235 . S
C118 O123 1.287 . S
C118 O124 1.255 1_655 S
O119 Fe111 1.997 . S
O119 C117 1.235 . S
C120 O126 1.287 . S
C120 O127 1.255 . S
O121 Fe110 1.976 1_455 S
O121 C128 1.287 . S
O122 Fe111 1.996 1_455 S
O122 C128 1.255 . S
O123 Fe113 1.976 . S
O123 C118 1.287 . S
O124 Fe110 1.996 1_455 S
O124 C118 1.255 1_455 S
C125 O129 1.295 . S
C125 O130 1.235 . S
O126 Fe111 1.976 . S
O126 C120 1.287 . S
O127 Fe113 1.996 . S
O127 C120 1.255 . S
C128 O121 1.287 . S
C128 O122 1.255 . S
O129 Fe111 2.002 . S
O129 C125 1.295 . S
O130 Fe113 1.997 . S
O130 C125 1.235 . S
C131 O114 1.295 . S
C131 O115 1.235 . S
Fe132 O134 1.918 . S
Fe132 O137 1.997 . S
Fe132 O138 2.002 . S
Fe132 O143 1.976 1_655 S
Fe132 O146 1.996 1_565 S
Fe133 O134 1.918 . S
Fe133 O141 1.997 . S
Fe133 O144 1.996 1_655 S
Fe133 O148 1.976 1_655 S
Fe133 O151 2.002 . S
O134 Fe132 1.918 . S
O134 Fe133 1.918 . S
O134 Fe135 1.918 . S
Fe135 O134 1.918 . S
Fe135 O136 2.002 . S
Fe135 O145 1.976 1_565 S
Fe135 O149 1.996 1_565 S
Fe135 O152 1.997 . S
O136 Fe135 2.002 . S
O136 C153 1.295 . S
O137 Fe132 1.997 . S
O137 C153 1.235 . S
O138 Fe132 2.002 . S
O138 C139 1.295 . S
C139 O138 1.295 . S
C139 O141 1.235 . S
C140 O145 1.287 . S
C140 O146 1.255 . S
O141 Fe133 1.997 . S
O141 C139 1.235 . S
C142 O148 1.287 1_655 S
C142 O149 1.255 1_565 S
O143 Fe132 1.976 1_455 S
O143 C150 1.287 . S
O144 Fe133 1.996 1_455 S
O144 C150 1.255 . S
O145 Fe135 1.976 1_545 S
O145 C140 1.287 . S
O146 Fe132 1.996 1_545 S
O146 C140 1.255 . S
C147 O151 1.295 . S
C147 O152 1.235 . S
O148 Fe133 1.976 1_455 S
O148 C142 1.287 1_455 S
O149 Fe135 1.996 1_545 S
O149 C142 1.255 1_545 S
C150 O143 1.287 . S
C150 O144 1.255 . S
O151 Fe133 2.002 . S
O151 C147 1.295 . S
O152 Fe135 1.997 . S
O152 C147 1.235 . S
C153 O136 1.295 . S
C153 O137 1.235 . S
Fe154 O156 1.918 . S
Fe154 O159 1.997 . S
Fe154 O160 2.002 . S
Fe154 O165 1.976 1_565 S
Fe154 O168 1.996 1_565 S
Fe155 O156 1.918 . S
Fe155 O163 1.997 . S
Fe155 O166 1.996 . S
Fe155 O170 1.976 . S
Fe155 O173 2.002 . S
O156 Fe154 1.918 . S
O156 Fe155 1.918 . S
O156 Fe157 1.918 . S
Fe157 O156 1.918 . S
Fe157 O158 2.002 . S
Fe157 O167 1.976 1_565 S
Fe157 O171 1.996 . S
Fe157 O174 1.997 . S
O158 Fe157 2.002 . S
O158 C175 1.295 . S
O159 Fe154 1.997 . S
O159 C175 1.235 . S
O160 Fe154 2.002 . S
O160 C161 1.295 . S
C161 O160 1.295 . S
C161 O163 1.235 . S
C162 O167 1.287 . S
C162 O168 1.255 . S
O163 Fe155 1.997 . S
O163 C161 1.235 . S
C164 O170 1.287 . S
C164 O171 1.255 . S
O165 Fe154 1.976 1_545 S
O165 C172 1.287 1_545 S
O166 Fe155 1.996 . S
O166 C172 1.255 . S
O167 Fe157 1.976 1_545 S
O167 C162 1.287 . S
O168 Fe154 1.996 1_545 S
O168 C162 1.255 . S
C169 O173 1.295 . S
C169 O174 1.235 . S
O170 Fe155 1.976 . S
O170 C164 1.287 . S
O171 Fe157 1.996 . S
O171 C164 1.255 . S
C172 O165 1.287 1_565 S
C172 O166 1.255 . S
O173 Fe155 2.002 . S
O173 C169 1.295 . S
O174 Fe157 1.997 . S
O174 C169 1.235 . S
C175 O158 1.295 . S
C175 O159 1.235 . S
C176 C177 1.363 . S
C176 C182 1.379 . S
C176 N184 1.356 . S
C177 C176 1.363 . S
C177 C183 1.363 . S
C178 C179 1.363 . S
C178 C183 1.379 . S
C178 N185 1.356 . S
C179 C178 1.363 . S
C179 C182 1.363 . S
N180 C182 1.356 . S
N180 H192 0.984 . S
N180 H193 0.985 . S
N181 C183 1.356 . S
N181 H186 0.984 . S
N181 H187 0.985 . S
C182 C176 1.379 . S
C182 C179 1.363 . S
C182 N180 1.356 . S
C183 C177 1.363 . S
C183 C178 1.379 . S
C183 N181 1.356 . S
N184 C176 1.356 . S
N184 H190 0.984 . S
N184 H191 0.984 . S
N185 C178 1.356 . S
N185 H188 0.984 . S
N185 H189 0.985 . S
H186 N181 0.984 . S
H187 N181 0.985 . S
H188 N185 0.984 . S
H189 N185 0.985 . S
H190 N184 0.984 . S
H191 N184 0.984 . S
H192 N180 0.984 . S
H193 N180 0.985 . S
C194 C195 1.363 1_455 S
C194 C200 1.379 . S
C194 N202 1.356 . S
C195 C194 1.363 1_655 S
C195 C201 1.363 . S
C196 C197 1.363 1_655 S
C196 C201 1.379 . S
C196 N203 1.356 . S
C197 C196 1.363 1_455 S
C197 C200 1.363 . S
N198 C200 1.356 . S
N198 H210 0.984 . S
N198 H211 0.985 . S
N199 C201 1.356 . S
N199 H204 0.984 . S
N199 H205 0.985 . S
C200 C194 1.379 . S
C200 C197 1.363 . S
C200 N198 1.356 . S
C201 C195 1.363 . S
C201 C196 1.379 . S
C201 N199 1.356 . S
N202 C194 1.356 . S
N202 H208 0.984 . S
N202 H209 0.984 . S
N203 C196 1.356 . S
N203 H206 0.984 . S
N203 H207 0.985 . S
H204 N199 0.984 . S
H205 N199 0.985 . S
H206 N203 0.984 . S
H207 N203 0.985 . S
H208 N202 0.984 . S
H209 N202 0.984 . S
H210 N198 0.984 . S
H211 N198 0.985 . S
C212 C213 1.363 . S
C212 C218 1.379 . S
C212 N220 1.356 . S
C213 C212 1.363 . S
C213 C219 1.363 1_545 S
C214 C215 1.363 . S
C214 C219 1.379 . S
C214 N221 1.356 . S
C215 C214 1.363 . S
C215 C218 1.363 1_565 S
N216 C218 1.356 . S
N216 H228 0.984 . S
N216 H229 0.985 1_545 S
N217 C219 1.356 . S
N217 H222 0.984 . S
N217 H223 0.985 . S
C218 C212 1.379 . S
C218 C215 1.363 1_545 S
C218 N216 1.356 . S
C219 C213 1.363 1_565 S
C219 C214 1.379 . S
C219 N217 1.356 . S
N220 C212 1.356 . S
N220 H226 0.984 . S
N220 H227 0.984 . S
N221 C214 1.356 . S
N221 H224 0.984 . S
N221 H225 0.985 . S
H222 N217 0.984 . S
H223 N217 0.985 . S
H224 N221 0.984 . S
H225 N221 0.985 . S
H226 N220 0.984 . S
H227 N220 0.984 . S
H228 N216 0.984 . S
H229 N216 0.985 1_565 S
C230 C231 1.363 . S
C230 C236 1.379 . S
C230 N238 1.356 . S
C231 C230 1.363 . S
C231 C237 1.363 . S
C232 C233 1.363 . S
C232 C237 1.379 . S
C232 N239 1.356 . S
C233 C232 1.363 . S
C233 C236 1.363 . S
N234 C236 1.356 . S
N234 H246 0.984 . S
N234 H247 0.985 . S
N235 C237 1.356 . S
N235 H240 0.984 . S
N235 H241 0.985 . S
C236 C230 1.379 . S
C236 C233 1.363 . S
C236 N234 1.356 . S
C237 C231 1.363 . S
C237 C232 1.379 . S
C237 N235 1.356 . S
N238 C230 1.356 . S
N238 H244 0.984 . S
N238 H245 0.984 . S
N239 C232 1.356 . S
N239 H242 0.984 . S
N239 H243 0.985 . S
H240 N235 0.984 . S
H241 N235 0.985 . S
H242 N239 0.984 . S
H243 N239 0.985 . S
H244 N238 0.984 . S
H245 N238 0.984 . S
H246 N234 0.984 . S
H247 N234 0.985 . S
C248 C249 1.363 . S
C248 C254 1.379 . S
C248 N256 1.356 . S
C249 C248 1.363 . S
C249 C255 1.363 . S
C250 C251 1.363 . S
C250 C255 1.379 . S
C250 N257 1.356 . S
C251 C250 1.363 . S
C251 C254 1.363 . S
N252 C254 1.356 . S
N252 H264 0.984 . S
N252 H265 0.985 . S
N253 C255 1.356 . S
N253 H258 0.984 . S
N253 H259 0.985 . S
C254 C248 1.379 . S
C254 C251 1.363 . S
C254 N252 1.356 . S
C255 C249 1.363 . S
C255 C250 1.379 . S
C255 N253 1.356 . S
N256 C248 1.356 . S
N256 H262 0.984 . S
N256 H263 0.984 . S
N257 C250 1.356 . S
N257 H260 0.984 . S
N257 H261 0.985 . S
H258 N253 0.984 . S
H259 N253 0.985 . S
H260 N257 0.984 . S
H261 N257 0.985 . S
H262 N256 0.984 . S
H263 N256 0.984 . S
H264 N252 0.984 . S
H265 N252 0.985 . S
C266 C267 1.363 . S
C266 C272 1.379 . S
C266 N274 1.356 . S
C267 C266 1.363 . S
C267 C273 1.363 1_455 S
C268 C269 1.363 . S
C268 C273 1.379 . S
C268 N275 1.356 . S
C269 C268 1.363 . S
C269 C272 1.363 1_655 S
N270 C272 1.356 . S
N270 H282 0.984 . S
N270 H283 0.985 . S
N271 C273 1.356 . S
N271 H276 0.984 1_655 S
N271 H277 0.985 . S
C272 C266 1.379 . S
C272 C269 1.363 1_455 S
C272 N270 1.356 . S
C273 C267 1.363 1_655 S
C273 C268 1.379 . S
C273 N271 1.356 . S
N274 C266 1.356 . S
N274 H280 0.984 . S
N274 H281 0.984 . S
N275 C268 1.356 . S
N275 H278 0.984 . S
N275 H279 0.985 . S
H276 N271 0.984 1_455 S
H277 N271 0.985 . S
H278 N275 0.984 . S
H279 N275 0.985 . S
H280 N274 0.984 . S
H281 N274 0.984 . S
H282 N270 0.984 . S
H283 N270 0.985 . S
C284 C285 1.363 1_565 S
C284 C290 1.379 . S
C284 N292 1.356 . S
C285 C284 1.363 1_545 S
C285 C291 1.363 . S
C286 C287 1.363 1_545 S
C286 C291 1.379 . S
C286 N293 1.356 . S
C287 C286 1.363 1_565 S
C287 C290 1.363 . S
N288 C290 1.356 . S
N288 H300 0.984 . S
N288 H301 0.985 . S
N289 C291 1.356 . S
N289 H294 0.984 . S
N289 H295 0.985 . S
C290 C284 1.379 . S
C290 C287 1.363 . S
C290 N288 1.356 . S
C291 C285 1.363 . S
C291 C286 1.379 . S
C291 N289 1.356 . S
N292 C284 1.356 . S
N292 H298 0.984 . S
N292 H299 0.984 . S
N293 C286 1.356 . S
N293 H296 0.984 . S
N293 H297 0.985 . S
H294 N289 0.984 . S
H295 N289 0.985 . S
H296 N293 0.984 . S
H297 N293 0.985 . S
H298 N292 0.984 . S
H299 N292 0.984 . S
H300 N288 0.984 . S
H301 N288 0.985 . S
C302 C303 1.363 . S
C302 C308 1.379 . S
C302 N310 1.356 . S
C303 C302 1.363 . S
C303 C309 1.363 . S
C304 C305 1.363 . S
C304 C309 1.379 . S
C304 N311 1.356 . S
C305 C304 1.363 . S
C305 C308 1.363 . S
N306 C308 1.356 . S
N306 H318 0.984 . S
N306 H319 0.985 . S
N307 C309 1.356 . S
N307 H312 0.984 . S
N307 H313 0.985 . S
C308 C302 1.379 . S
C308 C305 1.363 . S
C308 N306 1.356 . S
C309 C303 1.363 . S
C309 C304 1.379 . S
C309 N307 1.356 . S
N310 C302 1.356 . S
N310 H316 0.984 . S
N310 H317 0.984 . S
N311 C304 1.356 . S
N311 H314 0.984 . S
N311 H315 0.985 . S
H312 N307 0.984 . S
H313 N307 0.985 . S
H314 N311 0.984 . S
H315 N311 0.985 . S
H316 N310 0.984 . S
H317 N310 0.984 . S
H318 N306 0.984 . S
H319 N306 0.985 . S
C320 C321 1.363 . S
C320 C326 1.379 . S
C320 N328 1.356 . S
C321 C320 1.363 . S
C321 C327 1.363 . S
C322 C323 1.363 . S
C322 C327 1.379 . S
C322 N329 1.356 . S
C323 C322 1.363 . S
C323 C326 1.363 . S
N324 C326 1.356 . S
N324 H336 0.984 . S
N324 H337 0.985 . S
N325 C327 1.356 . S
N325 H330 0.984 . S
N325 H331 0.985 . S
C326 C320 1.379 . S
C326 C323 1.363 . S
C326 N324 1.356 . S
C327 C321 1.363 . S
C327 C322 1.379 . S
C327 N325 1.356 . S
N328 C320 1.356 . S
N328 H334 0.984 . S
N328 H335 0.984 . S
N329 C322 1.356 . S
N329 H332 0.984 . S
N329 H333 0.985 . S
H330 N325 0.984 . S
H331 N325 0.985 . S
H332 N329 0.984 . S
H333 N329 0.985 . S
H334 N328 0.984 . S
H335 N328 0.984 . S
H336 N324 0.984 . S
H337 N324 0.985 . S
C338 C339 1.363 . S
C338 C344 1.379 . S
C338 N346 1.356 . S
C339 C338 1.363 . S
C339 C345 1.363 . S
C340 C341 1.363 . S
C340 C345 1.379 1_655 S
C340 N347 1.356 . S
C341 C340 1.363 . S
C341 C344 1.363 1_655 S
N342 C344 1.356 . S
N342 H354 0.984 . S
N342 H355 0.985 1_455 S
N343 C345 1.356 . S
N343 H348 0.984 . S
N343 H349 0.985 1_455 S
C344 C338 1.379 . S
C344 C341 1.363 1_455 S
C344 N342 1.356 . S
C345 C339 1.363 . S
C345 C340 1.379 1_455 S
C345 N343 1.356 . S
N346 C338 1.356 . S
N346 H352 0.984 . S
N346 H353 0.984 . S
N347 C340 1.356 . S
N347 H350 0.984 . S
N347 H351 0.985 . S
H348 N343 0.984 . S
H349 N343 0.985 1_655 S
H350 N347 0.984 . S
H351 N347 0.985 . S
H352 N346 0.984 . S
H353 N346 0.984 . S
H354 N342 0.984 . S
H355 N342 0.985 1_655 S
C356 C357 1.363 . S
C356 C362 1.379 1_545 S
C356 N364 1.356 . S
C357 C356 1.363 . S
C357 C363 1.363 . S
C358 C359 1.363 1_545 S
C358 C363 1.379 . S
C358 N365 1.356 . S
C359 C358 1.363 1_565 S
C359 C362 1.363 . S
N360 C362 1.356 . S
N360 H372 0.984 . S
N360 H373 0.985 . S
N361 C363 1.356 . S
N361 H366 0.984 . S
N361 H367 0.985 . S
C362 C356 1.379 1_565 S
C362 C359 1.363 . S
C362 N360 1.356 . S
C363 C357 1.363 . S
C363 C358 1.379 . S
C363 N361 1.356 . S
N364 C356 1.356 . S
N364 H370 0.986 . S
N364 H371 0.984 . S
N365 C358 1.356 . S
N365 H368 0.984 1_545 S
N365 H369 0.985 . S
H366 N361 0.984 . S
H367 N361 0.985 . S
H368 N365 0.984 1_565 S
H369 N365 0.985 . S
H370 N364 0.986 . S
H371 N364 0.984 . S
H372 N360 0.984 . S
H373 N360 0.985 . S
C374 C375 1.363 . S
C374 C380 1.379 . S
C374 N382 1.356 . S
C375 C374 1.363 . S
C375 C381 1.363 . S
C376 C377 1.363 . S
C376 C381 1.379 . S
C376 N383 1.356 . S
C377 C376 1.363 . S
C377 C380 1.363 . S
N378 C380 1.356 . S
N378 H390 0.984 . S
N378 H391 0.985 . S
N379 C381 1.356 . S
N379 H384 0.984 . S
N379 H385 0.985 . S
C380 C374 1.379 . S
C380 C377 1.363 . S
C380 N378 1.356 . S
C381 C375 1.363 . S
C381 C376 1.379 . S
C381 N379 1.356 . S
N382 C374 1.356 . S
N382 H388 0.984 . S
N382 H389 0.984 . S
N383 C376 1.356 . S
N383 H386 0.984 . S
N383 H387 0.985 . S
H384 N379 0.984 . S
H385 N379 0.985 . S
H386 N383 0.984 . S
H387 N383 0.985 . S
H388 N382 0.984 . S
H389 N382 0.984 . S
H390 N378 0.984 . S
H391 N378 0.985 . S
C392 C393 1.363 . S
C392 C398 1.379 . S
C392 N400 1.356 . S
C393 C392 1.363 . S
C393 C399 1.363 . S
C394 C395 1.363 . S
C394 C399 1.379 . S
C394 N401 1.356 . S
C395 C394 1.363 . S
C395 C398 1.363 . S
N396 C398 1.356 . S
N396 H408 0.984 . S
N396 H409 0.985 . S
N397 C399 1.356 . S
N397 H402 0.984 . S
N397 H403 0.985 . S
C398 C392 1.379 . S
C398 C395 1.363 . S
C398 N396 1.356 . S
C399 C393 1.363 . S
C399 C394 1.379 . S
C399 N397 1.356 . S
N400 C392 1.356 . S
N400 H406 0.984 . S
N400 H407 0.984 . S
N401 C394 1.356 . S
N401 H404 0.984 . S
N401 H405 0.985 . S
H402 N397 0.984 . S
H403 N397 0.985 . S
H404 N401 0.984 . S
H405 N401 0.985 . S
H406 N400 0.984 . S
H407 N400 0.984 . S
H408 N396 0.984 . S
H409 N396 0.985 . S
C410 C411 1.363 . S
C410 C416 1.379 . S
C410 N418 1.356 . S
C411 C410 1.363 . S
C411 C417 1.363 1_455 S
C412 C413 1.363 . S
C412 C417 1.379 . S
C412 N419 1.356 . S
C413 C412 1.363 . S
C413 C416 1.363 1_655 S
N414 C416 1.356 . S
N414 H426 0.984 . S
N414 H427 0.985 1_455 S
N415 C417 1.356 . S
N415 H420 0.984 . S
N415 H421 0.985 . S
C416 C410 1.379 . S
C416 C413 1.363 1_455 S
C416 N414 1.356 . S
C417 C411 1.363 1_655 S
C417 C412 1.379 . S
C417 N415 1.356 . S
N418 C410 1.356 . S
N418 H424 0.984 . S
N418 H425 0.984 . S
N419 C412 1.356 . S
N419 H422 0.984 . S
N419 H423 0.985 . S
H420 N415 0.984 . S
H421 N415 0.985 . S
H422 N419 0.984 . S
H423 N419 0.985 . S
H424 N418 0.984 . S
H425 N418 0.984 . S
H426 N414 0.984 . S
H427 N414 0.985 1_655 S
C428 C429 1.355 1_545 S
C428 C434 1.384 . S
C428 N436 1.357 . S
C429 C428 1.355 1_565 S
C429 C435 1.363 . S
C430 C431 1.363 1_565 S
C430 C435 1.379 . S
C430 N437 1.356 . S
C431 C430 1.363 1_545 S
C431 C434 1.363 . S
N432 C434 1.356 . S
N432 H444 0.984 . S
N432 H445 0.985 . S
N433 C435 1.356 . S
N433 H438 0.984 . S
N433 H439 0.985 . S
C434 C428 1.384 . S
C434 C431 1.363 . S
C434 N432 1.356 . S
C435 C429 1.363 . S
C435 C430 1.379 . S
C435 N433 1.356 . S
N436 C428 1.357 . S
N436 H442 0.984 . S
N436 H443 0.984 1_545 S
N437 C430 1.356 . S
N437 H440 0.984 . S
N437 H441 0.985 . S
H438 N433 0.984 . S
H439 N433 0.985 . S
H440 N437 0.984 . S
H441 N437 0.985 . S
H442 N436 0.984 . S
H443 N436 0.984 1_565 S
H444 N432 0.984 . S
H445 N432 0.985 . S
C446 C447 1.363 . S
C446 C452 1.379 . S
C446 N454 1.356 . S
C447 C446 1.363 . S
C447 C453 1.363 . S
C448 C449 1.363 . S
C448 C453 1.379 . S
C448 N455 1.356 . S
C449 C448 1.363 . S
C449 C452 1.363 . S
N450 C452 1.356 . S
N450 H462 0.984 . S
N450 H463 0.985 . S
N451 C453 1.356 . S
N451 H456 0.984 . S
N451 H457 0.985 . S
C452 C446 1.379 . S
C452 C449 1.363 . S
C452 N450 1.356 . S
C453 C447 1.363 . S
C453 C448 1.379 . S
C453 N451 1.356 . S
N454 C446 1.356 . S
N454 H460 0.984 . S
N454 H461 0.984 . S
N455 C448 1.356 . S
N455 H458 0.984 . S
N455 H459 0.985 . S
H456 N451 0.984 . S
H457 N451 0.985 . S
H458 N455 0.984 . S
H459 N455 0.985 . S
H460 N454 0.984 . S
H461 N454 0.984 . S
H462 N450 0.984 . S
H463 N450 0.985 . S
C464 C465 1.363 . S
C464 C470 1.379 . S
C464 N472 1.356 . S
C465 C464 1.363 . S
C465 C471 1.363 . S
C466 C467 1.363 . S
C466 C471 1.379 . S
C466 N473 1.356 . S
C467 C466 1.363 . S
C467 C470 1.363 . S
N468 C470 1.356 . S
N468 H480 0.984 . S
N468 H481 0.985 . S
N469 C471 1.356 . S
N469 H474 0.984 . S
N469 H475 0.985 . S
C470 C464 1.379 . S
C470 C467 1.363 . S
C470 N468 1.356 . S
C471 C465 1.363 . S
C471 C466 1.379 . S
C471 N469 1.356 . S
N472 C464 1.356 . S
N472 H478 0.984 . S
N472 H479 0.984 . S
N473 C466 1.356 . S
N473 H476 0.984 . S
N473 H477 0.985 . S
H474 N469 0.984 . S
H475 N469 0.985 . S
H476 N473 0.984 . S
H477 N473 0.985 . S
H478 N472 0.984 . S
H479 N472 0.984 . S
H480 N468 0.984 . S
H481 N468 0.985 . S
C482 C483 1.363 . S
C482 C488 1.379 . S
C482 N490 1.356 . S
C483 C482 1.363 . S
C483 C489 1.363 . S
C484 C485 1.363 . S
C484 C489 1.379 . S
C484 N491 1.356 . S
C485 C484 1.363 . S
C485 C488 1.363 . S
N486 C488 1.356 . S
N486 H498 0.984 . S
N486 H499 0.985 . S
N487 C489 1.356 . S
N487 H492 0.984 . S
N487 H493 0.985 . S
C488 C482 1.379 . S
C488 C485 1.363 . S
C488 N486 1.356 . S
C489 C483 1.363 . S
C489 C484 1.379 . S
C489 N487 1.356 . S
N490 C482 1.356 . S
N490 H496 0.984 . S
N490 H497 0.984 . S
N491 C484 1.356 . S
N491 H494 0.984 . S
N491 H495 0.985 . S
H492 N487 0.984 . S
H493 N487 0.985 . S
H494 N491 0.984 . S
H495 N491 0.985 . S
H496 N490 0.984 . S
H497 N490 0.984 . S
H498 N486 0.984 . S
H499 N486 0.985 . S
C500 C501 1.363 . S
C500 C506 1.379 . S
C500 N508 1.356 . S
C501 C500 1.363 . S
C501 C507 1.363 . S
C502 C503 1.363 . S
C502 C507 1.379 . S
C502 N509 1.356 . S
C503 C502 1.363 . S
C503 C506 1.363 . S
N504 C506 1.356 . S
N504 H516 0.984 . S
N504 H517 0.985 . S
N505 C507 1.356 . S
N505 H510 0.984 . S
N505 H511 0.985 . S
C506 C500 1.379 . S
C506 C503 1.363 . S
C506 N504 1.356 . S
C507 C501 1.363 . S
C507 C502 1.379 . S
C507 N505 1.356 . S
N508 C500 1.356 . S
N508 H514 0.984 . S
N508 H515 0.984 . S
N509 C502 1.356 . S
N509 H512 0.984 . S
N509 H513 0.985 . S
H510 N505 0.984 . S
H511 N505 0.985 . S
H512 N509 0.984 . S
H513 N509 0.985 . S
H514 N508 0.984 . S
H515 N508 0.984 . S
H516 N504 0.984 . S
H517 N504 0.985 . S
C518 C519 1.363 . S
C518 C524 1.379 . S
C518 N526 1.356 . S
C519 C518 1.363 . S
C519 C525 1.363 . S
C520 C521 1.363 . S
C520 C525 1.379 . S
C520 N527 1.356 . S
C521 C520 1.363 . S
C521 C524 1.363 . S
N522 C524 1.356 . S
N522 H534 0.984 . S
N522 H535 0.985 . S
N523 C525 1.356 . S
N523 H528 0.984 . S
N523 H529 0.985 . S
C524 C518 1.379 . S
C524 C521 1.363 . S
C524 N522 1.356 . S
C525 C519 1.363 . S
C525 C520 1.379 . S
C525 N523 1.356 . S
N526 C518 1.356 . S
N526 H532 0.984 . S
N526 H533 0.984 . S
N527 C520 1.356 . S
N527 H530 0.984 . S
N527 H531 0.985 . S
H528 N523 0.984 . S
H529 N523 0.985 . S
H530 N527 0.984 . S
H531 N527 0.985 . S
H532 N526 0.984 . S
H533 N526 0.984 . S
H534 N522 0.984 . S
H535 N522 0.985 . S
C536 C537 1.363 . S
C536 C542 1.379 1_556 S
C536 N544 1.356 . S
C537 C536 1.363 . S
C537 C543 1.363 1_655 S
C538 C539 1.363 . S
C538 C543 1.379 1_554 S
C538 N545 1.356 . S
C539 C538 1.363 . S
C539 C542 1.363 1_455 S
N540 C542 1.356 . S
N540 H552 0.984 . S
N540 H553 0.985 . S
N541 C543 1.356 . S
N541 H546 0.984 . S
N541 H547 0.985 . S
C542 C536 1.379 1_554 S
C542 C539 1.363 1_655 S
C542 N540 1.356 . S
C543 C537 1.363 1_455 S
C543 C538 1.379 1_556 S
C543 N541 1.356 . S
N544 C536 1.356 . S
N544 H550 0.984 . S
N544 H551 0.984 . S
N545 C538 1.356 . S
N545 H548 0.984 . S
N545 H549 0.985 . S
H546 N541 0.984 . S
H547 N541 0.985 . S
H548 N545 0.984 . S
H549 N545 0.985 . S
H550 N544 0.984 . S
H551 N544 0.984 . S
H552 N540 0.984 . S
H553 N540 0.985 . S
C554 C555 1.363 1_565 S
C554 C560 1.379 . S
C554 N562 1.356 . S
C555 C554 1.363 1_545 S
C555 C561 1.363 1_455 S
C556 C557 1.363 1_545 S
C556 C561 1.379 . S
C556 N563 1.356 . S
C557 C556 1.363 1_565 S
C557 C560 1.363 1_655 S
N558 C560 1.356 . S
N558 H570 0.984 . S
N558 H571 0.985 . S
N559 C561 1.356 . S
N559 H564 0.984 . S
N559 H565 0.985 . S
C560 C554 1.379 . S
C560 C557 1.363 1_455 S
C560 N558 1.356 . S
C561 C555 1.363 1_655 S
C561 C556 1.379 . S
C561 N559 1.356 . S
N562 C554 1.356 . S
N562 H568 0.984 . S
N562 H569 0.984 . S
N563 C556 1.356 . S
N563 H566 0.984 . S
N563 H567 0.985 . S
H564 N559 0.984 . S
H565 N559 0.985 . S
H566 N563 0.984 . S
H567 N563 0.985 . S
H568 N562 0.984 . S
H569 N562 0.984 . S
H570 N558 0.984 . S
H571 N558 0.985 . S
C572 C573 1.363 . S
C572 C578 1.379 1_556 S
C572 N580 1.356 . S
C573 C572 1.363 . S
C573 C579 1.363 1_565 S
C574 C575 1.363 . S
C574 C579 1.379 1_554 S
C574 N581 1.356 . S
C575 C574 1.363 . S
C575 C578 1.363 1_545 S
N576 C578 1.356 . S
N576 H588 0.984 . S
N576 H589 0.985 . S
N577 C579 1.356 . S
N577 H582 0.984 . S
N577 H583 0.985 . S
C578 C572 1.379 1_554 S
C578 C575 1.363 1_565 S
C578 N576 1.356 . S
C579 C573 1.363 1_545 S
C579 C574 1.379 1_556 S
C579 N577 1.356 . S
N580 C572 1.356 . S
N580 H586 0.984 . S
N580 H587 0.984 . S
N581 C574 1.356 . S
N581 H584 0.984 . S
N581 H585 0.985 . S
H582 N577 0.984 . S
H583 N577 0.985 . S
H584 N581 0.984 . S
H585 N581 0.985 . S
H586 N580 0.984 . S
H587 N580 0.984 . S
H588 N576 0.984 . S
H589 N576 0.985 . S
C590 C591 1.363 . S
C590 C596 1.379 . S
C590 N598 1.356 . S
C591 C590 1.363 . S
C591 C597 1.363 . S
C592 C593 1.363 . S
C592 C597 1.379 . S
C592 N599 1.356 . S
C593 C592 1.363 . S
C593 C596 1.363 . S
N594 C596 1.356 . S
N594 H606 0.984 . S
N594 H607 0.985 . S
N595 C597 1.356 . S
N595 H600 0.984 . S
N595 H601 0.985 . S
C596 C590 1.379 . S
C596 C593 1.363 . S
C596 N594 1.356 . S
C597 C591 1.363 . S
C597 C592 1.379 . S
C597 N595 1.356 . S
N598 C590 1.356 . S
N598 H604 0.984 . S
N598 H605 0.984 . S
N599 C592 1.356 . S
N599 H602 0.984 . S
N599 H603 0.985 . S
H600 N595 0.984 . S
H601 N595 0.985 . S
H602 N599 0.984 . S
H603 N599 0.985 . S
H604 N598 0.984 . S
H605 N598 0.984 . S
H606 N594 0.984 . S
H607 N594 0.985 . S
C177 C98 1.367 . S
C179 C15 1.363 . S
C195 C120 1.367 . S
C197 C29 1.363 . S
C213 C65 1.363 . S
C215 C150 1.367 . S
C231 C81 1.363 . S
C233 C162 1.367 . S
C249 C95 1.363 . S
C251 C8 1.367 . S
C267 C32 1.367 . S
C269 C117 1.363 . S
C285 C62 1.367 . S
C287 C153 1.363 . S
C303 C74 1.367 . S
C305 C169 1.363 . S
C321 C125 1.367 . S
C323 C76 1.359 . S
C339 C10 1.359 . S
C341 C139 1.367 . S
C357 C40 1.359 . S
C359 C175 1.367 . S
C375 C52 1.359 . S
C377 C103 1.367 . S
C393 C87 1.367 . S
C395 C128 1.359 . S
C411 C21 1.367 . S
C413 C140 1.359 . S
C429 C164 1.359 . S
C431 C37 1.367 . S
C447 C106 1.359 . S
C449 C51 1.367 . S
C465 C7 1.796 . S
C467 C59 1.796 . S
C483 C43 1.796 . S
C485 C73 1.796 . S
C501 C147 1.796 . S
C503 C109 1.796 . S
C519 C161 1.796 . S
C521 C131 1.796 . S
C537 C118 1.452 . S
C539 C18 1.452 . S
C555 C30 1.452 . S
C557 C142 1.452 . S
C573 C172 1.452 . S
C575 C54 1.452 . S
C591 C96 1.452 . S
C593 C84 1.452 . S
