# Generated by pormake.
# Topology ftb, (5)-cn, num edge types: 1
# Building blocks:
#     Node 0, Type 0, BuildingBlock: BEQFEK_clean_sbu_0, # of connection points: 5
#     Node 1, Type 0, BuildingBlock: BEQFEK_clean_sbu_0, # of connection points: 5
#     Node 2, Type 0, BuildingBlock: BEQFEK_clean_sbu_0, # of connection points: 5
#     Node 3, Type 0, BuildingBlock: BEQFEK_clean_sbu_0, # of connection points: 5
#     Node 4, Type 0, BuildingBlock: BEQFEK_clean_sbu_0, # of connection points: 5
#     Node 5, Type 0, BuildingBlock: BEQFEK_clean_sbu_0, # of connection points: 5
#     Node 6, Type 0, BuildingBlock: BEQFEK_clean_sbu_0, # of connection points: 5
#     Node 7, Type 0, BuildingBlock: BEQFEK_clean_sbu_0, # of connection points: 5
#     Edge 8, Type (0, 0), BuildingBlock: XUDNAN_clean_linker_2, # of connection points: 2
#     Edge 9, Type (0, 0), BuildingBlock: XUDNAN_clean_linker_2, # of connection points: 2
#     Edge 10, Type (0, 0), BuildingBlock: XUDNAN_clean_linker_2, # of connection points: 2
#     Edge 11, Type (0, 0), BuildingBlock: XUDNAN_clean_linker_2, # of connection points: 2
#     Edge 12, Type (0, 0), BuildingBlock: XUDNAN_clean_linker_2, # of connection points: 2
#     Edge 13, Type (0, 0), BuildingBlock: XUDNAN_clean_linker_2, # of connection points: 2
#     Edge 14, Type (0, 0), BuildingBlock: XUDNAN_clean_linker_2, # of connection points: 2
#     Edge 15, Type (0, 0), BuildingBlock: XUDNAN_clean_linker_2, # of connection points: 2
#     Edge 16, Type (0, 0), BuildingBlock: XUDNAN_clean_linker_2, # of connection points: 2
#     Edge 17, Type (0, 0), BuildingBlock: XUDNAN_clean_linker_2, # of connection points: 2
#     Edge 18, Type (0, 0), BuildingBlock: XUDNAN_clean_linker_2, # of connection points: 2
#     Edge 19, Type (0, 0), BuildingBlock: XUDNAN_clean_linker_2, # of connection points: 2
#     Edge 20, Type (0, 0), BuildingBlock: XUDNAN_clean_linker_2, # of connection points: 2
#     Edge 21, Type (0, 0), BuildingBlock: XUDNAN_clean_linker_2, # of connection points: 2
#     Edge 22, Type (0, 0), BuildingBlock: XUDNAN_clean_linker_2, # of connection points: 2
#     Edge 23, Type (0, 0), BuildingBlock: XUDNAN_clean_linker_2, # of connection points: 2
#     Edge 24, Type (0, 0), BuildingBlock: XUDNAN_clean_linker_2, # of connection points: 2
#     Edge 25, Type (0, 0), BuildingBlock: XUDNAN_clean_linker_2, # of connection points: 2
#     Edge 26, Type (0, 0), BuildingBlock: XUDNAN_clean_linker_2, # of connection points: 2
#     Edge 27, Type (0, 0), BuildingBlock: XUDNAN_clean_linker_2, # of connection points: 2
# Relax obj value: 0.131
# Max RMSD: 0.202
# Mean RMSD: 0.202
data_MOF--net-ftb--node1-BEQFEK_clean_sbu_0--edge1-XUDNAN_clean_linker_2
_symmetry_space_group_name_H-M    P1
_symmetry_Int_Tables_number       1
_symmetry_cell_setting            triclinic
loop_
_symmetry_equiv_pos_as_xyz
'x, y, z'
_cell_length_a     56.063222
_cell_length_b     15.261978
_cell_length_c     35.778515
_cell_angle_alpha  89.854803
_cell_angle_beta   93.096447
_cell_angle_gamma 89.995254
loop_
_atom_site_label
_atom_site_type_symbol
_atom_site_fract_x
_atom_site_fract_y
_atom_site_fract_z
_atom_type_partial_charge
Co0 Co 0.34167 0.07189 0.08344 0.0
Co1 Co 0.34066 0.97734 0.00491 0.0
C2 C 0.33439 0.88004 0.07764 0.0
O3 O 0.33773 0.94825 0.09779 0.0
O4 O 0.33514 0.8832 0.042 0.0
C5 C 0.34931 0.12583 0.16197 0.0
O6 O 0.35303 0.04269 0.16988 0.0
C7 C 0.346 0.85024 0.9429 0.0
C8 C 0.34281 0.9402 0.89439 0.0
C9 C 0.34546 0.85259 0.90393 0.0
N10 N 0.34364 0.93268 0.9555 0.0
N11 N 0.34174 0.98589 0.92631 0.0
C12 C 0.34959 0.77221 0.96794 0.0
H13 H 0.35923 0.79156 0.99453 0.0
H14 H 0.35984 0.72038 0.95415 0.0
H15 H 0.3319 0.74556 0.97461 0.0
C16 C 0.39045 0.11061 0.06262 0.0
N17 N 0.36805 0.08403 0.05314 0.0
N18 N 0.36781 0.04394 0.02061 0.0
C19 C 0.39011 0.04341 0.00844 0.0
C20 C 0.40527 0.08511 0.03473 0.0
C21 C 0.3981 0.14322 0.10084 0.0
H22 H 0.39443 0.09202 0.12184 0.0
H23 H 0.41735 0.16013 0.10317 0.0
H24 H 0.38746 0.20204 0.10729 0.0
O25 O 0.31107 0.10593 0.0577 0.0
O26 O 0.31116 0.04748 1.00108 0.0
H27 H 0.41676 -0.00084 0.97095 0.0
H28 H 0.39285 0.92246 0.97882 0.0
C29 C 0.39738 0.99262 0.97515 0.0
H30 H 0.38733 0.01716 0.94974 0.0
H31 H 0.33945 0.05353 0.92822 0.0
O32 O 0.34499 0.14913 0.12812 0.0
C33 C 0.30104 0.09227 0.02551 0.0
Co34 Co 0.64557 0.11698 0.04717 0.0
Co35 Co 0.64467 0.0347 0.12844 0.0
C36 C 0.6628 0.93863 0.06074 0.0
O37 O 0.65643 0.9973 0.03681 0.0
O38 O 0.6591 0.94736 0.09545 0.0
C39 C 0.64087 0.16263 0.96711 0.0
O40 O 0.6383 0.07843 0.96054 0.0
C41 C 0.63934 0.9001 0.18728 0.0
C42 C 0.63669 0.98315 0.23735 0.0
C43 C 0.63757 0.89653 0.22596 0.0
N44 N 0.63971 0.98476 0.17664 0.0
N45 N 0.63806 0.03391 0.20674 0.0
C46 C 0.63975 0.82516 0.16046 0.0
H47 H 0.63079 0.84422 0.13323 0.0
H48 H 0.6307 0.76684 0.17172 0.0
H49 H 0.65857 0.80815 0.15558 0.0
C50 C 0.59413 0.13063 0.05838 0.0
N51 N 0.61662 0.11543 0.07185 0.0
N52 N 0.6161 0.0805 0.10547 0.0
C53 C 0.5932 0.07189 0.11436 0.0
C54 C 0.5785 0.10318 0.08482 0.0
C55 C 0.58788 0.15691 0.01872 0.0
H56 H 0.59678 0.21989 0.01267 0.0
H57 H 0.59473 0.10671 0.99966 0.0
H58 H 0.56833 0.16405 0.0131 0.0
O59 O 0.67235 0.16733 0.07796 0.0
O60 O 0.66975 0.12408 0.13681 0.0
H61 H 0.59394 0.05846 0.17386 0.0
H62 H 0.56582 0.02815 0.1507 0.0
C63 C 0.5855 0.02627 0.14877 0.0
H64 H 0.59161 0.95713 0.14856 0.0
H65 H 0.63826 0.10223 0.20645 0.0
O66 O 0.64329 0.18954 1.00074 0.0
C67 C 0.68024 0.16674 0.11197 0.0
Co68 Co 0.34443 0.5274 0.59367 0.0
Co69 Co 0.34702 0.50284 0.50613 0.0
C70 C 0.33761 0.3522 0.55676 0.0
O71 O 0.33896 0.40087 0.58574 0.0
O72 O 0.34159 0.38238 0.52438 0.0
C73 C 0.33768 0.51075 0.67309 0.0
O74 O 0.32494 0.44135 0.66346 0.0
C75 C 0.34841 0.44309 0.42707 0.0
C76 C 0.35639 0.56786 0.39893 0.0
C77 C 0.35199 0.47986 0.3921 0.0
N78 N 0.35125 0.50631 0.45319 0.0
N79 N 0.3557 0.58075 0.43599 0.0
C80 C 0.33919 0.35338 0.43517 0.0
H81 H 0.32626 0.35697 0.45746 0.0
H82 H 0.35431 0.31097 0.44516 0.0
H83 H 0.33008 0.32357 0.41002 0.0
C84 C 0.39267 0.59673 0.58488 0.0
N85 N 0.37177 0.56617 0.56989 0.0
N86 N 0.37344 0.5546 0.53368 0.0
C87 C 0.39576 0.57623 0.52459 0.0
C88 C 0.40858 0.60441 0.5567 0.0
C89 C 0.39795 0.60774 0.62608 0.0
H90 H 0.38622 0.65957 0.63669 0.0
H91 H 0.39387 0.54574 0.64068 0.0
H92 H 0.41688 0.62524 0.63287 0.0
O93 O 0.31482 0.58409 0.57393 0.0
O94 O 0.31642 0.5643 0.51275 0.0
H95 H 0.39843 0.6243 0.46896 0.0
H96 H 0.42455 0.56782 0.4863 0.0
C97 C 0.40481 0.56759 0.48611 0.0
H98 H 0.39789 0.50653 0.47277 0.0
H99 H 0.35762 0.64104 0.44951 0.0
O100 O 0.34754 0.55469 0.64795 0.0
C101 C 0.30547 0.59069 0.54085 0.0
Co102 Co 0.64298 0.52828 0.52774 0.0
Co103 Co 0.64742 0.51331 0.61636 0.0
C104 C 0.65266 0.35725 0.5656 0.0
O105 O 0.64746 0.4016 0.53598 0.0
O106 O 0.65251 0.3919 0.5981 0.0
C107 C 0.64944 0.52385 0.44864 0.0
O108 O 0.66593 0.46572 0.45837 0.0
C109 C 0.64869 0.45775 0.69675 0.0
C110 C 0.64224 0.58497 0.72369 0.0
C111 C 0.64606 0.49693 0.73147 0.0
N112 N 0.64596 0.51975 0.66993 0.0
N113 N 0.6424 0.59562 0.68641 0.0
C114 C 0.65643 0.36603 0.68923 0.0
H115 H 0.66873 0.36632 0.66607 0.0
H116 H 0.64056 0.32595 0.68067 0.0
H117 H 0.66578 0.33612 0.71422 0.0
C118 C 0.59666 0.60294 0.54427 0.0
N119 N 0.6183 0.57228 0.55586 0.0
N120 N 0.61939 0.56389 0.59254 0.0
C121 C 0.59813 0.58799 0.60533 0.0
C122 C 0.58325 0.6146 0.57521 0.0
C123 C 0.5885 0.61467 0.50405 0.0
H124 H 0.58892 0.55045 0.48962 0.0
H125 H 0.57018 0.64229 0.50103 0.0
H126 H 0.60099 0.65929 0.49031 0.0
O127 O 0.67428 0.57878 0.54218 0.0
O128 O 0.67717 0.57566 0.60429 0.0
H129 H 0.59638 0.63148 0.66178 0.0
H130 H 0.57114 0.56733 0.64542 0.0
C131 C 0.59082 0.57402 0.64454 0.0
H132 H 0.59944 0.51434 0.65672 0.0
H133 H 0.64021 0.65504 0.67212 0.0
O134 O 0.6369 0.5564 0.47372 0.0
C135 C 0.68599 0.59254 0.57302 0.0
Co136 Co 0.8451 0.04009 0.62079 0.0
Co137 Co 0.84832 0.01449 0.53348 0.0
C138 C 0.83776 0.86513 0.58468 0.0
O139 O 0.83923 0.91331 0.61382 0.0
O140 O 0.84193 0.89542 0.55238 0.0
C141 C 0.83743 0.03113 0.70035 0.0
O142 O 0.82407 0.96276 0.69149 0.0
C143 C 0.85947 0.94779 0.4585 0.0
C144 C 0.85433 0.06803 0.42446 0.0
C145 C 0.86028 0.98024 0.42226 0.0
N146 N 0.85334 0.01367 0.48102 0.0
N147 N 0.85014 0.08508 0.46038 0.0
C148 C 0.8653 0.85703 0.4719 0.0
H149 H 0.87347 0.85903 0.50083 0.0
H150 H 0.87764 0.82421 0.45313 0.0
H151 H 0.84855 0.81838 0.47221 0.0
C152 C 0.89432 0.10346 0.61213 0.0
N153 N 0.87302 0.07589 0.59736 0.0
N154 N 0.87424 0.06718 0.56096 0.0
C155 C 0.89626 0.09015 0.55125 0.0
C156 C 0.90982 0.11349 0.58337 0.0
C157 C 0.90032 0.10906 0.65335 0.0
H158 H 0.89364 0.04973 0.66741 0.0
H159 H 0.91981 0.11483 0.65983 0.0
H160 H 0.89116 0.16676 0.6648 0.0
O161 O 0.81553 0.09676 0.59951 0.0
O162 O 0.81811 0.07739 0.53845 0.0
H163 H 0.8915 0.1272 0.49374 0.0
H164 H 0.92223 0.11672 0.5097 0.0
C165 C 0.90415 0.08842 0.51193 0.0
H166 H 0.90395 0.0199 0.50163 0.0
H167 H 0.84515 0.14566 0.47089 0.0
O168 O 0.84794 0.07136 0.67479 0.0
C169 C 0.80672 0.10365 0.56607 0.0
Co170 Co 0.1404 0.02336 0.51968 0.0
Co171 Co 0.14989 0.0029 0.60756 0.0
C172 C 0.15247 0.85035 0.55414 0.0
O173 O 0.14547 0.89624 0.52577 0.0
O174 O 0.1541 0.88304 0.58705 0.0
C175 C 0.14081 0.01285 0.43993 0.0
O176 O 0.15506 0.94628 0.44794 0.0
C177 C 0.15401 0.94012 0.68686 0.0
C178 C 0.15297 0.06641 0.71675 0.0
C179 C 0.15468 0.9768 0.72253 0.0
N180 N 0.15157 0.00525 0.66141 0.0
N181 N 0.15116 0.08042 0.6796 0.0
C182 C 0.1583 0.84666 0.67679 0.0
H183 H 0.17077 0.84443 0.65387 0.0
H184 H 0.14118 0.81632 0.66661 0.0
H185 H 0.16619 0.80856 0.70081 0.0
C186 C 0.09542 0.09709 0.54398 0.0
N187 N 0.11748 0.06512 0.55188 0.0
N188 N 0.12085 0.05492 0.58832 0.0
C189 C 0.10078 0.07941 0.60473 0.0
C190 C 0.08414 0.10766 0.57719 0.0
C191 C 0.08506 0.1129 0.50512 0.0
H192 H 0.08349 0.04952 0.49005 0.0
H193 H 0.06725 0.14462 0.50519 0.0
H194 H 0.09731 0.15542 0.48983 0.0
O195 O 0.17226 0.07354 0.53048 0.0
O196 O 0.17859 0.0667 0.5922 0.0
H197 H 0.1043 0.12005 0.66181 0.0
H198 H 0.07694 0.06284 0.64987 0.0
C199 C 0.09634 0.06515 0.64519 0.0
H200 H 0.10469 0.00296 0.65519 0.0
H201 H 0.14976 0.14158 0.66654 0.0
O202 O 0.13164 0.05386 0.46652 0.0
C203 C 0.18558 0.08565 0.5599 0.0
Co204 Co 0.8533 0.59745 0.11043 0.0
Co205 Co 0.84958 0.50892 0.03036 0.0
C206 C 0.83577 0.41473 0.10023 0.0
O207 O 0.84217 0.4782 0.12155 0.0
O208 O 0.8382 0.41811 0.06496 0.0
C209 C 0.85301 0.64362 0.1893 0.0
O210 O 0.83867 0.57615 0.19216 0.0
C211 C 0.85173 0.38158 0.96796 0.0
C212 C 0.85023 0.4715 0.9194 0.0
C213 C 0.85099 0.38346 0.92896 0.0
N214 N 0.85124 0.46461 0.98053 0.0
N215 N 0.85036 0.51784 0.95132 0.0
C216 C 0.85387 0.30324 0.9931 0.0
H217 H 0.86374 0.32071 0.01976 0.0
H218 H 0.86322 0.2489 0.97944 0.0
H219 H 0.83572 0.28093 0.99967 0.0
C220 C 0.90205 0.63026 0.08777 0.0
N221 N 0.88011 0.59657 0.08094 0.0
N222 N 0.87905 0.55815 0.048 0.0
C223 C 0.90053 0.56508 0.03304 0.0
C224 C 0.91564 0.61196 0.0576 0.0
C225 C 0.91003 0.67545 0.12337 0.0
H226 H 0.90622 0.63293 0.14753 0.0
H227 H 0.92939 0.69086 0.12447 0.0
H228 H 0.89972 0.73701 0.1259 0.0
O229 O 0.82594 0.65618 0.08427 0.0
O230 O 0.82402 0.5983 0.02728 0.0
H231 H 0.92561 0.53349 0.99105 0.0
H232 H 0.90034 0.45997 0.99351 0.0
C233 C 0.90624 0.52923 0.99569 0.0
H234 H 0.89632 0.56722 0.97344 0.0
H235 H 0.84955 0.58596 0.9532 0.0
O236 O 0.86093 0.66257 0.15763 0.0
C237 C 0.81606 0.64999 0.0515 0.0
Co238 Co 0.15334 0.57816 0.03374 0.0
Co239 Co 0.14749 0.49323 0.11359 0.0
C240 C 0.15576 0.38671 0.04382 0.0
O241 O 0.1544 0.45262 0.02183 0.0
O242 O 0.15343 0.39486 0.07897 0.0
C243 C 0.14915 0.62942 0.95433 0.0
O244 O 0.1402 0.55113 0.9476 0.0
C245 C 0.1354 0.36981 0.17396 0.0
C246 C 0.13926 0.45631 0.22332 0.0
C247 C 0.13479 0.37022 0.21289 0.0
N248 N 0.1403 0.45149 0.16232 0.0
N249 N 0.14244 0.50281 0.192 0.0
C250 C 0.13074 0.29449 0.14792 0.0
H251 H 0.12217 0.31823 0.12111 0.0
H252 H 0.11903 0.24507 0.16046 0.0
H253 H 0.14798 0.26326 0.14186 0.0
C254 C 0.10595 0.64761 0.04892 0.0
N255 N 0.12611 0.6051 0.06018 0.0
N256 N 0.12325 0.56822 0.09293 0.0
C257 C 0.101 0.58517 0.10331 0.0
C258 C 0.08935 0.63626 0.07584 0.0
C259 C 0.10165 0.68671 0.01075 0.0
H260 H 0.1157 0.73595 0.00585 0.0
H261 H 0.1029 0.63443 0.98946 0.0
H262 H 0.08386 0.71832 0.00723 0.0
O263 O 0.18323 0.6017 0.06335 0.0
O264 O 0.17848 0.55407 0.12112 0.0
H265 H 0.10077 0.57062 0.16264 0.0
H266 H 0.07151 0.56591 0.13938 0.0
C267 C 0.0905 0.54697 0.13732 0.0
H268 H 0.09202 0.47451 0.13661 0.0
H269 H 0.14669 0.56923 0.19092 0.0
O270 O 0.15502 0.65146 0.98784 0.0
C271 C 0.19112 0.59006 0.09698 0.0
H272 H 0.36333 0.3103 0.37144 0.0
H273 H 0.33734 0.55954 0.32684 0.0
H274 H 0.33477 0.49695 0.26334 0.0
H275 H 0.39828 0.2512 0.29474 0.0
H276 H 0.39068 0.13652 0.29609 0.0
H277 H 0.3909 0.20081 0.33826 0.0
H278 H 0.34709 0.1561 0.34802 0.0
H279 H 0.34679 0.09112 0.30603 0.0
H280 H 0.32455 0.17499 0.311 0.0
H281 H 0.33506 0.40867 0.20486 0.0
H282 H 0.33696 0.2985 0.15494 0.0
H283 H 0.36102 0.10359 0.2373 0.0
C284 C 0.35655 0.3512 0.34852 0.0
C285 C 0.35004 0.43949 0.35434 0.0
C286 C 0.34232 0.49166 0.32317 0.0
C287 C 0.34076 0.4567 0.28696 0.0
C288 C 0.34702 0.36933 0.28227 0.0
C289 C 0.35466 0.31704 0.31214 0.0
C290 C 0.36008 0.22486 0.29928 0.0
C291 C 0.38656 0.20205 0.30759 0.0
C292 C 0.34365 0.15781 0.31714 0.0
C293 C 0.35427 0.23369 0.25754 0.0
C294 C 0.34691 0.31781 0.24839 0.0
C295 C 0.34074 0.34248 0.21165 0.0
C296 C 0.34192 0.27933 0.18347 0.0
C297 C 0.34909 0.1922 0.19213 0.0
C298 C 0.35542 0.16948 0.22974 0.0
H299 H 0.61564 0.87971 0.29171 0.0
H300 H 0.66358 0.74411 0.22024 0.0
H301 H 0.66834 0.6254 0.26688 0.0
H302 H 0.64824 0.83805 0.37529 0.0
H303 H 0.62275 0.82402 0.40334 0.0
H304 H 0.62042 0.89197 0.36216 0.0
H305 H 0.58453 0.79968 0.33593 0.0
H306 H 0.58669 0.7315 0.37719 0.0
H307 H 0.58771 0.68268 0.33148 0.0
H308 H 0.67126 0.52924 0.32434 0.0
H309 H 0.67197 0.46372 0.38759 0.0
H310 H 0.62247 0.66298 0.42193 0.0
C311 C 0.62671 0.82401 0.28549 0.0
C312 C 0.63863 0.82007 0.25172 0.0
C313 C 0.65342 0.74712 0.24505 0.0
C314 C 0.65644 0.67961 0.27163 0.0
C315 C 0.64457 0.68599 0.30478 0.0
C316 C 0.6299 0.75621 0.3117 0.0
C317 C 0.62057 0.75087 0.3506 0.0
C318 C 0.62848 0.83096 0.37423 0.0
C319 C 0.59325 0.74055 0.34867 0.0
C320 C 0.63282 0.66801 0.36493 0.0
C321 C 0.64641 0.63106 0.33798 0.0
C322 C 0.66042 0.55695 0.34547 0.0
C323 C 0.66074 0.52026 0.38153 0.0
C324 C 0.6472 0.55784 0.40973 0.0
C325 C 0.6328 0.63193 0.40094 0.0
H326 H 0.35927 0.65981 0.70071 0.0
H327 H 0.31957 0.43123 0.73441 0.0
H328 H 0.32036 0.48725 0.79924 0.0
H329 H 0.39668 0.68374 0.78744 0.0
H330 H 0.39532 0.80169 0.78566 0.0
H331 H 0.39354 0.73927 0.74291 0.0
H332 H 0.35349 0.81545 0.72313 0.0
H333 H 0.35513 0.87797 0.76574 0.0
H334 H 0.32919 0.81164 0.75412 0.0
H335 H 0.32262 0.57502 0.85931 0.0
H336 H 0.32561 0.68755 0.90877 0.0
H337 H 0.36427 0.85692 0.83558 0.0
C338 C 0.35104 0.62069 0.72179 0.0
C339 C 0.33942 0.54091 0.71247 0.0
C340 C 0.32864 0.49242 0.74087 0.0
C341 C 0.32904 0.5236 0.77781 0.0
C342 C 0.34038 0.60316 0.7859 0.0
C343 C 0.35122 0.65089 0.75865 0.0
C344 C 0.3609 0.73696 0.77389 0.0
C345 C 0.38824 0.74058 0.77239 0.0
C346 C 0.34896 0.81508 0.75298 0.0
C347 C 0.3534 0.73115 0.8138 0.0
C348 C 0.3418 0.65318 0.82038 0.0
C349 C 0.33212 0.63548 0.85471 0.0
C350 C 0.33414 0.69953 0.88284 0.0
C351 C 0.34577 0.78017 0.87646 0.0
C352 C 0.35562 0.79537 0.84152 0.0
H353 H 0.63328 0.32968 0.75419 0.0
H354 H 0.66095 0.57876 0.79587 0.0
H355 H 0.66184 0.52109 0.86028 0.0
H356 H 0.59643 0.28193 0.82951 0.0
H357 H 0.6029 0.16623 0.83068 0.0
H358 H 0.6043 0.22643 0.78749 0.0
H359 H 0.64792 0.17492 0.7811 0.0
H360 H 0.64658 0.1138 0.82409 0.0
H361 H 0.6698 0.19394 0.81901 0.0
H362 H 0.65896 0.43887 0.92007 0.0
H363 H 0.65457 0.33411 0.97171 0.0
H364 H 0.63084 0.13462 0.89168 0.0
C365 C 0.64017 0.37141 0.77664 0.0
C366 C 0.64754 0.4584 0.76972 0.0
C367 C 0.65533 0.51184 0.80035 0.0
C368 C 0.65592 0.47968 0.83708 0.0
C369 C 0.64871 0.39371 0.84288 0.0
C370 C 0.64116 0.33995 0.81358 0.0
C371 C 0.63449 0.24983 0.82772 0.0
C372 C 0.60795 0.22998 0.81828 0.0
C373 C 0.65067 0.17893 0.81205 0.0
C374 C 0.63944 0.26164 0.86952 0.0
C375 C 0.64745 0.34543 0.87758 0.0
C376 C 0.65282 0.37288 0.91414 0.0
C377 C 0.65018 0.31284 0.94331 0.0
C378 C 0.64242 0.22594 0.93582 0.0
C379 C 0.63691 0.20037 0.89834 0.0
H380 H 0.86068 0.17857 0.72645 0.0
H381 H 0.81801 0.95965 0.76236 0.0
H382 H 0.81938 0.01981 0.82653 0.0
H383 H 0.8983 0.20042 0.81266 0.0
H384 H 0.89864 0.31835 0.80992 0.0
H385 H 0.89582 0.2542 0.76769 0.0
H386 H 0.85686 0.33711 0.74753 0.0
H387 H 0.85954 0.40142 0.78961 0.0
H388 H 0.83266 0.33973 0.7787 0.0
H389 H 0.82303 0.11031 0.88587 0.0
H390 H 0.82821 0.22371 0.93466 0.0
H391 H 0.86897 0.38159 0.85986 0.0
C392 C 0.85186 0.1425 0.74786 0.0
C393 C 0.83929 0.06415 0.73934 0.0
C394 C 0.82781 0.01966 0.76819 0.0
C395 C 0.82853 0.05324 0.80476 0.0
C396 C 0.84086 0.1312 0.81207 0.0
C397 C 0.85235 0.17512 0.78439 0.0
C398 C 0.8633 0.25994 0.79889 0.0
C399 C 0.89064 0.25807 0.79719 0.0
C400 C 0.85243 0.3392 0.77741 0.0
C401 C 0.85585 0.25774 0.83891 0.0
C402 C 0.8431 0.18269 0.84614 0.0
C403 C 0.83341 0.16848 0.88074 0.0
C404 C 0.83669 0.23298 0.90851 0.0
C405 C 0.8496 0.31059 0.90154 0.0
C406 C 0.85933 0.3224 0.86626 0.0
H407 H 0.13337 0.61511 0.88023 0.0
H408 H 0.173 0.78549 0.95831 0.0
H409 H 0.17946 0.88979 0.90717 0.0
H410 H 0.16938 0.65308 0.80096 0.0
H411 H 0.14435 0.65274 0.76717 0.0
H412 H 0.1431 0.58975 0.80968 0.0
H413 H 0.10413 0.6697 0.82543 0.0
H414 H 0.10518 0.73248 0.78286 0.0
H415 H 0.10372 0.78774 0.82715 0.0
H416 H 0.18158 0.97608 0.84809 0.0
H417 H 0.17829 0.04104 0.78482 0.0
H418 H 0.13603 0.81838 0.74514 0.0
C419 C 0.14347 0.67421 0.88655 0.0
C420 C 0.15273 0.69188 0.92333 0.0
C421 C 0.16569 0.77038 0.93043 0.0
C422 C 0.16953 0.83004 0.90153 0.0
C423 C 0.1602 0.81063 0.86565 0.0
C424 C 0.14733 0.73495 0.85803 0.0
C425 C 0.13877 0.73122 0.8171 0.0
C426 C 0.14955 0.65198 0.79759 0.0
C427 C 0.11132 0.73026 0.8129 0.0
C428 C 0.14885 0.8166 0.80299 0.0
C429 C 0.16125 0.86105 0.83147 0.0
C430 C 0.17199 0.94176 0.82552 0.0
C431 C 0.16998 0.97817 0.7895 0.0
C432 C 0.15738 0.93397 0.75978 0.0
C433 C 0.14653 0.85235 0.76684 0.0
H434 H 0.84357 0.81962 0.39811 0.0
H435 H 0.88709 0.03989 0.36672 0.0
H436 H 0.89247 0.9718 0.30515 0.0
H437 H 0.87602 0.64792 0.34807 0.0
H438 H 0.8489 0.59044 0.33418 0.0
H439 H 0.85083 0.65149 0.3773 0.0
H440 H 0.81311 0.73953 0.3553 0.0
H441 H 0.81117 0.6794 0.31205 0.0
H442 H 0.81265 0.79737 0.31126 0.0
H443 H 0.89086 0.88563 0.24585 0.0
H444 H 0.88176 0.7886 0.192 0.0
H445 H 0.8384 0.62512 0.26113 0.0
C446 C 0.85485 0.85198 0.37871 0.0
C447 C 0.86538 0.93403 0.38735 0.0
C448 C 0.87912 0.97648 0.36066 0.0
C449 C 0.88231 0.93825 0.32572 0.0
C450 C 0.87146 0.85782 0.3178 0.0
C451 C 0.85801 0.81505 0.34349 0.0
C452 C 0.84672 0.73271 0.32681 0.0
C453 C 0.85619 0.65078 0.34784 0.0
C454 C 0.81929 0.73761 0.32632 0.0
C455 C 0.85559 0.73681 0.28756 0.0
C456 C 0.87004 0.809 0.28313 0.0
C457 C 0.87972 0.82848 0.24905 0.0
C458 C 0.87439 0.77299 0.21858 0.0
C459 C 0.85935 0.69915 0.22227 0.0
C460 C 0.85003 0.68074 0.2574 0.0
H461 H 0.12027 0.16747 0.41521 0.0
H462 H 0.15479 0.93252 0.37641 0.0
H463 H 0.15315 0.99236 0.31218 0.0
H464 H 0.08128 0.20705 0.3298 0.0
H465 H 0.08503 0.32415 0.3329 0.0
H466 H 0.08625 0.25839 0.37488 0.0
H467 H 0.12794 0.32261 0.3938 0.0
H468 H 0.12688 0.38826 0.35193 0.0
H469 H 0.15156 0.31452 0.36172 0.0
H470 H 0.15188 0.0842 0.25382 0.0
H471 H 0.15107 0.2005 0.20603 0.0
H472 H 0.11661 0.37508 0.28202 0.0
C473 C 0.127 0.1277 0.39307 0.0
C474 C 0.13754 0.045 0.40085 0.0
C475 C 0.14655 0.99587 0.37116 0.0
C476 C 0.14565 0.02923 0.33453 0.0
C477 C 0.13561 0.11172 0.32795 0.0
C478 C 0.12634 0.16019 0.35636 0.0
C479 C 0.11819 0.24975 0.34244 0.0
C480 C 0.09107 0.26043 0.34516 0.0
C481 C 0.13197 0.32307 0.36374 0.0
C482 C 0.12488 0.24489 0.30203 0.0
C483 C 0.13466 0.1644 0.29411 0.0
C484 C 0.14367 0.14665 0.25937 0.0
C485 C 0.14285 0.21308 0.23212 0.0
C486 C 0.13298 0.29625 0.23965 0.0
C487 C 0.12379 0.31164 0.27509 0.0
H488 H 0.54219 0.22048 0.07122 0.0
H489 H 0.55776 0.94314 0.0821 0.0
H490 H 0.51507 0.90864 0.06873 0.0
H491 H 0.48562 0.21396 0.11479 0.0
H492 H 0.47165 0.29436 0.08379 0.0
H493 H 0.50346 0.29724 0.0939 0.0
H494 H 0.51036 0.29023 0.0229 0.0
H495 H 0.47856 0.28696 0.01259 0.0
H496 H 0.49735 0.20192 0.99534 0.0
H497 H 0.47133 0.90401 0.05452 0.0
H498 H 0.4281 0.92955 0.04213 0.0
H499 H 0.44033 0.20992 0.04033 0.0
C500 C 0.53644 0.15272 0.07082 0.0
C501 C 0.55294 0.08421 0.07788 0.0
C502 C 0.54513 0.99616 0.07711 0.0
C503 C 0.52103 0.97607 0.06938 0.0
C504 C 0.50511 0.04496 0.06249 0.0
C505 C 0.51239 0.13153 0.06326 0.0
C506 C 0.49147 0.19289 0.05535 0.0
C507 C 0.48784 0.25315 0.08897 0.0
C508 C 0.49463 0.24613 0.01941 0.0
C509 C 0.47133 0.1272 0.05012 0.0
C510 C 0.47968 0.04227 0.05418 0.0
C511 C 0.46455 0.97009 0.05107 0.0
C512 C 0.44014 0.98511 0.04387 0.0
C513 C 0.43121 0.07146 0.03985 0.0
C514 C 0.44694 0.14338 0.04296 0.0
H515 H 0.4458 0.50091 0.53861 0.0
H516 H 0.42899 0.75246 0.58647 0.0
H517 H 0.47226 0.78403 0.59679 0.0
H518 H 0.49648 0.45092 0.59832 0.0
H519 H 0.51311 0.40169 0.56209 0.0
H520 H 0.48096 0.39964 0.55871 0.0
H521 H 0.48092 0.4748 0.49361 0.0
H522 H 0.5131 0.47659 0.49669 0.0
H523 H 0.49662 0.57692 0.48869 0.0
H524 H 0.51754 0.78401 0.60405 0.0
H525 H 0.56122 0.75627 0.60406 0.0
H526 H 0.5477 0.50955 0.54734 0.0
C527 C 0.45127 0.56335 0.55056 0.0
C528 C 0.43427 0.62502 0.5613 0.0
C529 C 0.44194 0.70486 0.57793 0.0
C530 C 0.46639 0.72319 0.58385 0.0
C531 C 0.48277 0.66105 0.57269 0.0
C532 C 0.47551 0.58311 0.55607 0.0
C533 C 0.49658 0.52746 0.54633 0.0
C534 C 0.49679 0.43976 0.56765 0.0
C535 C 0.49681 0.51314 0.50381 0.0
C536 C 0.51689 0.58589 0.56025 0.0
C537 C 0.50863 0.6624 0.57567 0.0
C538 C 0.5242 0.72486 0.59166 0.0
C539 C 0.54886 0.70875 0.59161 0.0
C540 C 0.55746 0.63165 0.57524 0.0
C541 C 0.54134 0.56959 0.55948 0.0
H542 H 0.04612 0.01645 0.54789 0.0
H543 H 0.06538 0.23951 0.61771 0.0
H544 H 0.02243 0.26855 0.62649 0.0
H545 H 0.99263 0.10703 0.50233 0.0
H546 H 0.97661 0.00467 0.50273 0.0
H547 H 0.00866 0.0048 0.50097 0.0
H548 H 0.01216 0.9067 0.56032 0.0
H549 H 0.98014 0.90627 0.56226 0.0
H550 H -0.00148 0.94203 0.60222 0.0
H551 H 0.97704 0.27245 0.62673 0.0
H552 H 0.93326 0.24716 0.62071 0.0
H553 H 0.94483 0.01561 0.5542 0.0
C554 C 0.04118 0.07197 0.56463 0.0
C555 C 0.05873 0.12685 0.58171 0.0
C556 C 0.05193 0.1976 0.60421 0.0
C557 C 0.02769 0.2144 0.60928 0.0
C558 C 0.01069 0.15896 0.59197 0.0
C559 C 0.01719 0.0888 0.57032 0.0
C560 C 0.99568 0.03685 0.55599 0.0
C561 C 0.99326 0.03848 0.51295 0.0
C562 C -0.00331 0.94239 0.57112 0.0
C563 C 0.97599 0.08873 0.57279 0.0
C564 C 0.9849 0.15935 0.59323 0.0
C565 C 0.96989 0.21718 0.6109 0.0
C566 C 0.94514 0.20229 0.60746 0.0
C567 C 0.93582 0.12993 0.58682 0.0
C568 C 0.9515 0.07231 0.56962 0.0
H569 H 0.95276 0.49878 0.05488 0.0
H570 H 0.9349 0.77479 0.05431 0.0
H571 H 0.97795 0.81271 0.05564 0.0
H572 H 0.0015 0.51411 0.11954 0.0
H573 H 0.01944 0.43251 0.09795 0.0
H574 H 0.98738 0.42718 0.09242 0.0
H575 H 0.98958 0.4282 0.02021 0.0
H576 H 0.02171 0.4323 0.02551 0.0
H577 H 0.00566 0.5146 0.99808 0.0
H578 H 0.02292 0.81941 0.06122 0.0
H579 H 0.06661 0.79398 0.07053 0.0
H580 H 0.05453 0.5137 0.06917 0.0
C581 C 0.95803 0.56702 0.05405 0.0
C582 C 0.94087 0.63421 0.05393 0.0
C583 C 0.94807 0.72292 0.05396 0.0
C584 C 0.97237 0.74483 0.05474 0.0
C585 C 0.98903 0.67698 0.0556 0.0
C586 C 0.98217 0.58986 0.05513 0.0
C587 C 0.00352 0.52944 0.05878 0.0
C588 C 0.00291 0.47249 0.09429 0.0
C589 C 0.00522 0.47281 0.02354 0.0
C590 C 0.02344 0.59606 0.06203 0.0
C591 C 0.01479 0.68084 0.05979 0.0
C592 C 0.02991 0.75335 0.06283 0.0
C593 C 0.05456 0.73854 0.06823 0.0
C594 C 0.06355 0.65219 0.07087 0.0
C595 C 0.04786 0.58032 0.06757 0.0
H596 H 0.17705 0.25871 0.08636 0.0
H597 H 0.16219 0.33842 0.97106 0.0
H598 H 0.19505 0.24456 0.95168 0.0
H599 H 0.2333 0.29355 0.0866 0.0
H600 H 0.24407 0.20479 0.11625 0.0
H601 H 0.21435 0.24548 0.1203 0.0
H602 H 0.19638 0.09153 0.10778 0.0
H603 H 0.22621 0.04854 0.10529 0.0
H604 H 0.20441 0.03085 0.06716 0.0
H605 H 0.23543 0.17624 0.94725 0.0
H606 H 0.27776 0.13129 0.95795 0.0
H607 H 0.26775 0.11115 0.07698 0.0
C608 C 0.17971 0.25244 0.05674 0.0
C609 C 0.16713 0.30622 0.03029 0.0
C610 C 0.17156 0.29756 0.99186 0.0
C611 C 0.19028 0.24448 0.98059 0.0
C612 C 0.20419 0.20016 0.00805 0.0
C613 C 0.19876 0.20212 0.04536 0.0
C614 C 0.21884 0.16443 0.07039 0.0
C615 C 0.22817 0.23108 0.10007 0.0
C616 C 0.21099 0.07872 0.08872 0.0
C617 C 0.23708 0.14731 0.04178 0.0
C618 C 0.22812 0.16525 0.00584 0.0
C619 C 0.24246 0.1602 0.9752 0.0
C620 C 0.26649 0.13563 0.98153 0.0
C621 C 0.27599 0.11924 0.01832 0.0
C622 C 0.26099 0.12445 0.0486 0.0
H623 H 0.78563 0.70746 0.10257 0.0
H624 H 0.79326 0.68456 0.98292 0.0
H625 H 0.75206 0.7412 0.97128 0.0
H626 H 0.72494 0.63555 0.1019 0.0
H627 H 0.71713 0.70998 0.13833 0.0
H628 H 0.74729 0.66986 0.13695 0.0
H629 H 0.76353 0.8292 0.13562 0.0
H630 H 0.73353 0.86946 0.13818 0.0
H631 H 0.75147 0.90452 0.10059 0.0
H632 H 0.71048 0.8089 0.9737 0.0
H633 H 0.67363 0.88629 0.9899 0.0
H634 H 0.69304 0.84721 0.10787 0.0
C635 C 0.77884 0.71535 0.07383 0.0
C636 C 0.79273 0.69274 0.04361 0.0
C637 C 0.78293 0.70232 0.00648 0.0
C638 C 0.75953 0.73374 0.99964 0.0
C639 C 0.74613 0.75341 0.03026 0.0
C640 C 0.75552 0.74451 0.06659 0.0
C641 C 0.73775 0.7701 0.09479 0.0
C642 C 0.73141 0.69167 0.11944 0.0
C643 C 0.74712 0.84794 0.11867 0.0
C644 C 0.7169 0.79629 0.06874 0.0
C645 C 0.72196 0.78659 0.03159 0.0
C646 C 0.70615 0.8153 1.00268 0.0
C647 C 0.68519 0.85862 0.01212 0.0
C648 C 0.68026 0.87191 0.05014 0.0
C649 C 0.69586 0.83643 0.07853 0.0
H650 H 0.22749 0.58123 0.05082 0.0
H651 H 0.21141 0.6443 0.16472 0.0
H652 H 0.25348 0.68989 0.17782 0.0
H653 H 0.29223 0.50921 0.07374 0.0
H654 H 0.30121 0.55558 0.0303 0.0
H655 H 0.27185 0.5084 0.03301 0.0
H656 H 0.25262 0.65405 0.00881 0.0
H657 H 0.28176 0.70023 0.00547 0.0
H658 H 0.26019 0.75468 0.03296 0.0
H659 H 0.29349 0.75913 0.17357 0.0
H660 H 0.32551 0.85316 0.15163 0.0
H661 H 0.31689 0.73512 0.04163 0.0
C662 C 0.23299 0.603 0.07876 0.0
C663 C 0.21633 0.61067 0.10666 0.0
C664 C 0.22403 0.63839 0.14299 0.0
C665 C 0.24791 0.66344 0.15071 0.0
C666 C 0.26386 0.65737 0.12212 0.0
C667 C 0.25671 0.62647 0.08698 0.0
C668 C 0.2761 0.63689 0.05958 0.0
C669 C 0.28593 0.54717 0.04852 0.0
C670 C 0.26713 0.68967 0.02473 0.0
C671 C 0.29439 0.68704 0.08362 0.0
C672 C 0.28746 0.69535 0.12003 0.0
C673 C 0.29945 0.75106 0.14552 0.0
C674 C 0.3177 0.80434 0.13275 0.0
C675 C 0.32348 0.8023 0.09468 0.0
C676 C 0.31301 0.73776 0.0709 0.0
H677 H 0.71584 0.17402 0.06423 0.0
H678 H 0.70005 0.22772 0.17928 0.0
H679 H 0.74233 0.27153 0.19277 0.0
H680 H 0.77609 0.0849 0.08606 0.0
H681 H 0.78744 0.13073 0.04406 0.0
H682 H 0.75657 0.09791 0.04473 0.0
H683 H 0.74287 0.25389 0.02369 0.0
H684 H 0.77359 0.28582 0.02193 0.0
H685 H 0.75383 0.34746 0.05006 0.0
H686 H 0.78514 0.32453 0.19079 0.0
H687 H 0.8226 0.39315 0.17266 0.0
H688 H 0.81049 0.29113 0.06013 0.0
C689 C 0.72117 0.19552 0.09228 0.0
C690 C 0.70464 0.19946 0.12057 0.0
C691 C 0.71246 0.22551 0.15713 0.0
C692 C 0.73644 0.24938 0.16508 0.0
C693 C 0.75235 0.24388 0.13643 0.0
C694 C 0.74495 0.2171 0.10082 0.0
C695 C 0.76497 0.22055 0.07429 0.0
C696 C 0.77166 0.12801 0.06155 0.0
C697 C 0.75843 0.28054 0.04055 0.0
C698 C 0.78453 0.25933 0.09979 0.0
C699 C 0.77716 0.27052 0.13577 0.0
C700 C 0.79126 0.31458 0.16294 0.0
C701 C 0.81262 0.35308 0.15238 0.0
C702 C 0.81946 0.34809 0.11483 0.0
C703 C 0.80598 0.29547 0.08911 0.0
H704 H 0.18061 0.75641 0.60449 0.0
H705 H 0.15714 0.76636 0.48706 0.0
H706 H 0.19278 0.68308 0.47135 0.0
H707 H 0.23555 0.81193 0.59338 0.0
H708 H 0.25045 0.74342 0.62849 0.0
H709 H 0.21995 0.77509 0.6333 0.0
H710 H 0.20665 0.61309 0.63706 0.0
H711 H 0.23738 0.58014 0.63408 0.0
H712 H 0.21478 0.5371 0.6014 0.0
H713 H 0.2353 0.63659 0.46671 0.0
H714 H 0.27851 0.60603 0.47472 0.0
H715 H 0.27479 0.63325 0.59508 0.0
C716 C 0.18219 0.73716 0.57572 0.0
C717 C 0.16621 0.76954 0.54705 0.0
C718 C 0.16914 0.74287 0.50963 0.0
C719 C 0.18948 0.69585 0.50036 0.0
C720 C 0.20637 0.67439 0.52892 0.0
C721 C 0.20256 0.69161 0.56606 0.0
C722 C 0.22478 0.6736 0.59088 0.0
C723 C 0.23315 0.75592 0.61276 0.0
C724 C 0.22065 0.59636 0.61742 0.0
C725 C 0.24209 0.64927 0.56167 0.0
C726 C 0.23108 0.64853 0.52618 0.0
C727 C 0.24396 0.63463 0.49448 0.0
C728 C 0.26857 0.61851 0.49929 0.0
C729 C 0.28012 0.61737 0.53554 0.0
C730 C 0.26658 0.63354 0.56698 0.0
H731 H 0.67956 0.26985 0.61969 0.0
H732 H 0.65889 0.2648 0.50114 0.0
H733 H 0.69515 0.18092 0.48948 0.0
H734 H 0.73444 0.32593 0.611 0.0
H735 H 0.7489 0.26195 0.64809 0.0
H736 H 0.71809 0.29216 0.65064 0.0
H737 H 0.70543 0.12995 0.65668 0.0
H738 H 0.73643 0.09863 0.65611 0.0
H739 H 0.71479 0.0509 0.62308 0.0
H740 H 0.73787 0.13869 0.48814 0.0
H741 H 0.78106 0.11274 0.49879 0.0
H742 H 0.77473 0.14989 0.6182 0.0
C743 C 0.68187 0.24698 0.59158 0.0
C744 C 0.66652 0.27551 0.56132 0.0
C745 C 0.67039 0.24429 0.52486 0.0
C746 C 0.69109 0.19692 0.51789 0.0
C747 C 0.70738 0.17963 0.5478 0.0
C748 C 0.70262 0.2009 0.5842 0.0
C749 C 0.72439 0.18681 0.61056 0.0
C750 C 0.73187 0.27177 0.63125 0.0
C751 C 0.72 0.1121 0.63824 0.0
C752 C 0.74255 0.16054 0.58292 0.0
C753 C 0.7323 0.15534 0.54699 0.0
C754 C 0.74595 0.1399 0.5163 0.0
C755 C 0.77056 0.1265 0.52263 0.0
C756 C 0.78136 0.12919 0.55938 0.0
C757 C 0.76707 0.14711 0.58979 0.0
H758 H 0.21749 0.15864 0.61206 0.0
H759 H 0.21106 0.05991 0.49828 0.0
H760 H 0.25402 0.08431 0.4919 0.0
H761 H 0.25503 0.33219 0.59211 0.0
H762 H 0.27228 0.32724 0.63608 0.0
H763 H 0.24203 0.28833 0.63319 0.0
H764 H 0.25692 0.13821 0.65973 0.0
H765 H 0.28739 0.17653 0.66137 0.0
H766 H 0.27926 0.07824 0.63591 0.0
H767 H 0.29619 0.13128 0.49506 0.0
H768 H 0.33163 0.22587 0.50267 0.0
H769 H 0.31136 0.29551 0.61413 0.0
C770 C 0.22522 0.14144 0.58598 0.0
C771 C 0.21095 0.10746 0.55571 0.0
C772 C 0.2216 0.08684 0.52179 0.0
C773 C 0.24609 0.09894 0.51808 0.0
C774 C 0.25975 0.13182 0.54851 0.0
C775 C 0.24965 0.15431 0.58159 0.0
C776 C 0.26757 0.20014 0.60795 0.0
C777 C 0.25871 0.29241 0.61787 0.0
C778 C 0.27311 0.14495 0.64334 0.0
C779 C 0.28892 0.20379 0.58372 0.0
C780 C 0.2843 0.16114 0.55008 0.0
C781 C 0.30018 0.16402 0.52145 0.0
C782 C 0.32037 0.21774 0.52608 0.0
C783 C 0.32412 0.26919 0.55875 0.0
C784 C 0.3092 0.25646 0.58896 0.0
H785 H 0.71503 0.67101 0.62775 0.0
H786 H 0.71487 0.56126 0.51592 0.0
H787 H 0.7581 0.58729 0.51456 0.0
H788 H 0.75287 0.84455 0.60956 0.0
H789 H 0.76799 0.8449 0.65533 0.0
H790 H 0.73803 0.80377 0.64955 0.0
H791 H 0.75228 0.65718 0.68033 0.0
H792 H 0.78252 0.69765 0.685 0.0
H793 H 0.77612 0.59655 0.66052 0.0
H794 H 0.79978 0.63789 0.52183 0.0
H795 H 0.83448 0.73532 0.532 0.0
H796 H 0.80844 0.81363 0.63895 0.0
C797 C 0.7242 0.65166 0.6032 0.0
C798 C 0.7116 0.61424 0.57198 0.0
C799 C 0.72411 0.59086 0.54009 0.0
C800 C 0.74876 0.60393 0.53927 0.0
C801 C 0.76073 0.64055 0.57053 0.0
C802 C 0.74884 0.66549 0.60168 0.0
C803 C 0.76526 0.71496 0.62918 0.0
C804 C 0.75546 0.80749 0.63627 0.0
C805 C 0.76928 0.66348 0.66594 0.0
C806 C 0.78784 0.71776 0.60769 0.0
C807 C 0.78508 0.67169 0.57453 0.0
C808 C 0.80236 0.67309 0.54795 0.0
C809 C 0.82211 0.72836 0.55405 0.0
C810 C 0.82414 0.78244 0.58616 0.0
C811 C 0.80767 0.77202 0.61445 0.0
loop_
_geom_bond_atom_site_label_1
_geom_bond_atom_site_label_2
_geom_bond_distance
_geom_bond_site_symmetry_2
_ccdc_geom_bond_type
Co0 O3 1.970 1_545 S
Co0 N17 1.989 . S
Co0 O25 1.967 . S
Co0 O32 1.920 . S
Co1 O4 1.966 1_545 S
Co1 N10 2.022 1_544 S
Co1 N18 1.993 . S
Co1 O26 1.941 . S
C2 O3 1.258 . S
C2 O4 1.263 . S
O3 Co0 1.970 1_565 S
O3 C2 1.258 . S
O4 Co1 1.966 1_565 S
O4 C2 1.263 . S
C5 O6 1.235 1_545 S
C5 O32 1.289 . S
O6 C5 1.235 1_565 S
C7 C9 1.400 . S
C7 N10 1.351 . S
C7 C12 1.501 . S
C8 C9 1.387 . S
C8 N11 1.341 1_565 S
C9 C7 1.400 . S
C9 C8 1.387 . S
N10 Co1 2.022 1_566 S
N10 C7 1.351 . S
N10 N11 1.365 1_565 S
N11 C8 1.341 1_545 S
N11 N10 1.365 1_545 S
N11 H31 0.862 . S
C12 C7 1.501 . S
C12 H13 0.961 . S
C12 H14 0.961 . S
C12 H15 0.960 . S
H13 C12 0.961 . S
H14 C12 0.961 . S
H15 C12 0.960 . S
C16 N17 1.342 . S
C16 C20 1.401 . S
C16 C21 1.499 . S
N17 Co0 1.989 . S
N17 C16 1.342 . S
N17 N18 1.388 . S
N18 Co1 1.993 . S
N18 N17 1.388 . S
N18 C19 1.346 . S
C19 N18 1.346 . S
C19 C20 1.396 . S
C19 C29 1.510 1_544 S
C20 C16 1.401 . S
C20 C19 1.396 . S
C21 C16 1.499 . S
C21 H22 0.959 . S
C21 H23 0.960 . S
C21 H24 0.961 . S
H22 C21 0.959 . S
H23 C21 0.960 . S
H24 C21 0.961 . S
O25 Co0 1.967 . S
O25 C33 1.258 . S
O26 Co1 1.941 . S
O26 C33 1.266 . S
H27 C29 0.959 1_545 S
H28 C29 0.961 . S
C29 C19 1.510 1_566 S
C29 H27 0.959 1_565 S
C29 H28 0.961 . S
C29 H30 0.960 . S
H30 C29 0.960 . S
H31 N11 0.862 . S
O32 Co0 1.920 . S
O32 C5 1.289 . S
C33 O25 1.258 . S
C33 O26 1.266 . S
Co34 O37 1.970 1_545 S
Co34 N51 1.989 . S
Co34 O59 1.967 . S
Co34 O66 1.920 1_554 S
Co35 O38 1.966 1_545 S
Co35 N44 2.022 1_545 S
Co35 N52 1.993 . S
Co35 O60 1.941 . S
C36 O37 1.258 . S
C36 O38 1.263 . S
O37 Co34 1.970 1_565 S
O37 C36 1.258 . S
O38 Co35 1.966 1_565 S
O38 C36 1.263 . S
C39 O40 1.235 1_545 S
C39 O66 1.289 . S
O40 C39 1.235 1_565 S
C41 C43 1.400 . S
C41 N44 1.351 . S
C41 C46 1.501 . S
C42 C43 1.387 . S
C42 N45 1.341 1_565 S
C43 C41 1.400 . S
C43 C42 1.387 . S
N44 Co35 2.022 1_565 S
N44 C41 1.351 . S
N44 N45 1.365 1_565 S
N45 C42 1.341 1_545 S
N45 N44 1.365 1_545 S
N45 H65 0.862 . S
C46 C41 1.501 . S
C46 H47 0.961 . S
C46 H48 0.961 . S
C46 H49 0.960 . S
H47 C46 0.961 . S
H48 C46 0.961 . S
H49 C46 0.960 . S
C50 N51 1.342 . S
C50 C54 1.401 . S
C50 C55 1.499 . S
N51 Co34 1.989 . S
N51 C50 1.342 . S
N51 N52 1.388 . S
N52 Co35 1.993 . S
N52 N51 1.388 . S
N52 C53 1.346 . S
C53 N52 1.346 . S
C53 C54 1.396 . S
C53 C63 1.510 1_545 S
C54 C50 1.401 . S
C54 C53 1.396 . S
C55 C50 1.499 . S
C55 H56 0.959 1_554 S
C55 H57 0.960 1_554 S
C55 H58 0.961 . S
H56 C55 0.959 1_556 S
H57 C55 0.960 1_556 S
H58 C55 0.961 . S
O59 Co34 1.967 . S
O59 C67 1.258 . S
O60 Co35 1.941 . S
O60 C67 1.266 . S
H61 C63 0.959 1_545 S
H62 C63 0.961 . S
C63 C53 1.510 1_565 S
C63 H61 0.959 1_565 S
C63 H62 0.961 . S
C63 H64 0.960 . S
H64 C63 0.960 . S
H65 N45 0.862 . S
O66 Co34 1.920 1_556 S
O66 C39 1.289 . S
C67 O59 1.258 . S
C67 O60 1.266 . S
Co68 O71 1.970 . S
Co68 N85 1.989 . S
Co68 O93 1.967 . S
Co68 O100 1.920 . S
Co69 O72 1.966 . S
Co69 N78 2.022 . S
Co69 N86 1.993 . S
Co69 O94 1.941 . S
C70 O71 1.258 . S
C70 O72 1.263 . S
O71 Co68 1.970 . S
O71 C70 1.258 . S
O72 Co69 1.966 . S
O72 C70 1.263 . S
C73 O74 1.235 . S
C73 O100 1.289 . S
O74 C73 1.235 . S
C75 C77 1.400 . S
C75 N78 1.351 . S
C75 C80 1.501 . S
C76 C77 1.387 . S
C76 N79 1.341 . S
C77 C75 1.400 . S
C77 C76 1.387 . S
N78 Co69 2.022 . S
N78 C75 1.351 . S
N78 N79 1.365 . S
N79 C76 1.341 . S
N79 N78 1.365 . S
N79 H99 0.862 . S
C80 C75 1.501 . S
C80 H81 0.961 . S
C80 H82 0.961 . S
C80 H83 0.960 . S
H81 C80 0.961 . S
H82 C80 0.961 . S
H83 C80 0.960 . S
C84 N85 1.342 . S
C84 C88 1.401 . S
C84 C89 1.499 . S
N85 Co68 1.989 . S
N85 C84 1.342 . S
N85 N86 1.388 . S
N86 Co69 1.993 . S
N86 N85 1.388 . S
N86 C87 1.346 . S
C87 N86 1.346 . S
C87 C88 1.396 . S
C87 C97 1.510 . S
C88 C84 1.401 . S
C88 C87 1.396 . S
C89 C84 1.499 . S
C89 H90 0.959 . S
C89 H91 0.960 . S
C89 H92 0.961 . S
H90 C89 0.959 . S
H91 C89 0.960 . S
H92 C89 0.961 . S
O93 Co68 1.967 . S
O93 C101 1.258 . S
O94 Co69 1.941 . S
O94 C101 1.266 . S
H95 C97 0.959 . S
H96 C97 0.961 . S
C97 C87 1.510 . S
C97 H95 0.959 . S
C97 H96 0.961 . S
C97 H98 0.960 . S
H98 C97 0.960 . S
H99 N79 0.862 . S
O100 Co68 1.920 . S
O100 C73 1.289 . S
C101 O93 1.258 . S
C101 O94 1.266 . S
Co102 O105 1.970 . S
Co102 N119 1.989 . S
Co102 O127 1.967 . S
Co102 O134 1.920 . S
Co103 O106 1.966 . S
Co103 N112 2.022 . S
Co103 N120 1.993 . S
Co103 O128 1.941 . S
C104 O105 1.258 . S
C104 O106 1.263 . S
O105 Co102 1.970 . S
O105 C104 1.258 . S
O106 Co103 1.966 . S
O106 C104 1.263 . S
C107 O108 1.235 . S
C107 O134 1.289 . S
O108 C107 1.235 . S
C109 C111 1.400 . S
C109 N112 1.351 . S
C109 C114 1.501 . S
C110 C111 1.387 . S
C110 N113 1.341 . S
C111 C109 1.400 . S
C111 C110 1.387 . S
N112 Co103 2.022 . S
N112 C109 1.351 . S
N112 N113 1.365 . S
N113 C110 1.341 . S
N113 N112 1.365 . S
N113 H133 0.862 . S
C114 C109 1.501 . S
C114 H115 0.961 . S
C114 H116 0.961 . S
C114 H117 0.960 . S
H115 C114 0.961 . S
H116 C114 0.961 . S
H117 C114 0.960 . S
C118 N119 1.342 . S
C118 C122 1.401 . S
C118 C123 1.499 . S
N119 Co102 1.989 . S
N119 C118 1.342 . S
N119 N120 1.388 . S
N120 Co103 1.993 . S
N120 N119 1.388 . S
N120 C121 1.346 . S
C121 N120 1.346 . S
C121 C122 1.396 . S
C121 C131 1.510 . S
C122 C118 1.401 . S
C122 C121 1.396 . S
C123 C118 1.499 . S
C123 H124 0.959 . S
C123 H125 0.960 . S
C123 H126 0.961 . S
H124 C123 0.959 . S
H125 C123 0.960 . S
H126 C123 0.961 . S
O127 Co102 1.967 . S
O127 C135 1.258 . S
O128 Co103 1.941 . S
O128 C135 1.266 . S
H129 C131 0.959 . S
H130 C131 0.961 . S
C131 C121 1.510 . S
C131 H129 0.959 . S
C131 H130 0.961 . S
C131 H132 0.960 . S
H132 C131 0.960 . S
H133 N113 0.862 . S
O134 Co102 1.920 . S
O134 C107 1.289 . S
C135 O127 1.258 . S
C135 O128 1.266 . S
Co136 O139 1.970 1_545 S
Co136 N153 1.989 . S
Co136 O161 1.967 . S
Co136 O168 1.920 . S
Co137 O140 1.966 1_545 S
Co137 N146 2.022 1_545 S
Co137 N154 1.993 . S
Co137 O162 1.941 . S
C138 O139 1.258 . S
C138 O140 1.263 . S
O139 Co136 1.970 1_565 S
O139 C138 1.258 . S
O140 Co137 1.966 1_565 S
O140 C138 1.263 . S
C141 O142 1.235 1_545 S
C141 O168 1.289 . S
O142 C141 1.235 1_565 S
C143 C145 1.400 . S
C143 N146 1.351 . S
C143 C148 1.501 . S
C144 C145 1.387 . S
C144 N147 1.341 1_565 S
C145 C143 1.400 . S
C145 C144 1.387 . S
N146 Co137 2.022 1_565 S
N146 C143 1.351 . S
N146 N147 1.365 1_565 S
N147 C144 1.341 1_545 S
N147 N146 1.365 1_545 S
N147 H167 0.862 . S
C148 C143 1.501 . S
C148 H149 0.961 . S
C148 H150 0.961 . S
C148 H151 0.960 . S
H149 C148 0.961 . S
H150 C148 0.961 . S
H151 C148 0.960 . S
C152 N153 1.342 . S
C152 C156 1.401 . S
C152 C157 1.499 . S
N153 Co136 1.989 . S
N153 C152 1.342 . S
N153 N154 1.388 . S
N154 Co137 1.993 . S
N154 N153 1.388 . S
N154 C155 1.346 . S
C155 N154 1.346 . S
C155 C156 1.396 . S
C155 C165 1.510 1_545 S
C156 C152 1.401 . S
C156 C155 1.396 . S
C157 C152 1.499 . S
C157 H158 0.959 . S
C157 H159 0.960 . S
C157 H160 0.961 . S
H158 C157 0.959 . S
H159 C157 0.960 . S
H160 C157 0.961 . S
O161 Co136 1.967 . S
O161 C169 1.258 . S
O162 Co137 1.941 . S
O162 C169 1.266 . S
H163 C165 0.959 1_545 S
H164 C165 0.961 . S
C165 C155 1.510 1_565 S
C165 H163 0.959 1_565 S
C165 H164 0.961 . S
C165 H166 0.960 . S
H166 C165 0.960 . S
H167 N147 0.862 . S
O168 Co136 1.920 . S
O168 C141 1.289 . S
C169 O161 1.258 . S
C169 O162 1.266 . S
Co170 O173 1.970 1_545 S
Co170 N187 1.989 . S
Co170 O195 1.967 . S
Co170 O202 1.920 . S
Co171 O174 1.966 1_545 S
Co171 N180 2.022 1_545 S
Co171 N188 1.993 . S
Co171 O196 1.941 . S
C172 O173 1.258 . S
C172 O174 1.263 . S
O173 Co170 1.970 1_565 S
O173 C172 1.258 . S
O174 Co171 1.966 1_565 S
O174 C172 1.263 . S
C175 O176 1.235 1_545 S
C175 O202 1.289 . S
O176 C175 1.235 1_565 S
C177 C179 1.400 . S
C177 N180 1.351 . S
C177 C182 1.501 . S
C178 C179 1.387 . S
C178 N181 1.341 1_565 S
C179 C177 1.400 . S
C179 C178 1.387 . S
N180 Co171 2.022 1_565 S
N180 C177 1.351 . S
N180 N181 1.365 1_565 S
N181 C178 1.341 1_545 S
N181 N180 1.365 1_545 S
N181 H201 0.862 . S
C182 C177 1.501 . S
C182 H183 0.961 . S
C182 H184 0.961 . S
C182 H185 0.960 . S
H183 C182 0.961 . S
H184 C182 0.961 . S
H185 C182 0.960 . S
C186 N187 1.342 . S
C186 C190 1.401 . S
C186 C191 1.499 . S
N187 Co170 1.989 . S
N187 C186 1.342 . S
N187 N188 1.388 . S
N188 Co171 1.993 . S
N188 N187 1.388 . S
N188 C189 1.346 . S
C189 N188 1.346 . S
C189 C190 1.396 . S
C189 C199 1.510 1_545 S
C190 C186 1.401 . S
C190 C189 1.396 . S
C191 C186 1.499 . S
C191 H192 0.959 . S
C191 H193 0.960 . S
C191 H194 0.961 . S
H192 C191 0.959 . S
H193 C191 0.960 . S
H194 C191 0.961 . S
O195 Co170 1.967 . S
O195 C203 1.258 . S
O196 Co171 1.941 . S
O196 C203 1.266 . S
H197 C199 0.959 1_545 S
H198 C199 0.961 . S
C199 C189 1.510 1_565 S
C199 H197 0.959 1_565 S
C199 H198 0.961 . S
C199 H200 0.960 . S
H200 C199 0.960 . S
H201 N181 0.862 . S
O202 Co170 1.920 . S
O202 C175 1.289 . S
C203 O195 1.258 . S
C203 O196 1.266 . S
Co204 O207 1.970 . S
Co204 N221 1.989 . S
Co204 O229 1.967 . S
Co204 O236 1.920 . S
Co205 O208 1.966 . S
Co205 N214 2.022 1_554 S
Co205 N222 1.993 . S
Co205 O230 1.941 . S
C206 O207 1.258 . S
C206 O208 1.263 . S
O207 Co204 1.970 . S
O207 C206 1.258 . S
O208 Co205 1.966 . S
O208 C206 1.263 . S
C209 O210 1.235 . S
C209 O236 1.289 . S
O210 C209 1.235 . S
C211 C213 1.400 . S
C211 N214 1.351 . S
C211 C216 1.501 . S
C212 C213 1.387 . S
C212 N215 1.341 . S
C213 C211 1.400 . S
C213 C212 1.387 . S
N214 Co205 2.022 1_556 S
N214 C211 1.351 . S
N214 N215 1.365 . S
N215 C212 1.341 . S
N215 N214 1.365 . S
N215 H235 0.862 . S
C216 C211 1.501 . S
C216 H217 0.961 . S
C216 H218 0.961 . S
C216 H219 0.960 . S
H217 C216 0.961 . S
H218 C216 0.961 . S
H219 C216 0.960 . S
C220 N221 1.342 . S
C220 C224 1.401 . S
C220 C225 1.499 . S
N221 Co204 1.989 . S
N221 C220 1.342 . S
N221 N222 1.388 . S
N222 Co205 1.993 . S
N222 N221 1.388 . S
N222 C223 1.346 . S
C223 N222 1.346 . S
C223 C224 1.396 . S
C223 C233 1.510 1_554 S
C224 C220 1.401 . S
C224 C223 1.396 . S
C225 C220 1.499 . S
C225 H226 0.959 . S
C225 H227 0.960 . S
C225 H228 0.961 . S
H226 C225 0.959 . S
H227 C225 0.960 . S
H228 C225 0.961 . S
O229 Co204 1.967 . S
O229 C237 1.258 . S
O230 Co205 1.941 . S
O230 C237 1.266 . S
H231 C233 0.959 . S
H232 C233 0.961 . S
C233 C223 1.510 1_556 S
C233 H231 0.959 . S
C233 H232 0.961 . S
C233 H234 0.960 . S
H234 C233 0.960 . S
H235 N215 0.862 . S
O236 Co204 1.920 . S
O236 C209 1.289 . S
C237 O229 1.258 . S
C237 O230 1.266 . S
Co238 O241 1.970 . S
Co238 N255 1.989 . S
Co238 O263 1.967 . S
Co238 O270 1.920 1_554 S
Co239 O242 1.966 . S
Co239 N248 2.022 . S
Co239 N256 1.993 . S
Co239 O264 1.941 . S
C240 O241 1.258 . S
C240 O242 1.263 . S
O241 Co238 1.970 . S
O241 C240 1.258 . S
O242 Co239 1.966 . S
O242 C240 1.263 . S
C243 O244 1.235 . S
C243 O270 1.289 . S
O244 C243 1.235 . S
C245 C247 1.400 . S
C245 N248 1.351 . S
C245 C250 1.501 . S
C246 C247 1.387 . S
C246 N249 1.341 . S
C247 C245 1.400 . S
C247 C246 1.387 . S
N248 Co239 2.022 . S
N248 C245 1.351 . S
N248 N249 1.365 . S
N249 C246 1.341 . S
N249 N248 1.365 . S
N249 H269 0.862 . S
C250 C245 1.501 . S
C250 H251 0.961 . S
C250 H252 0.961 . S
C250 H253 0.960 . S
H251 C250 0.961 . S
H252 C250 0.961 . S
H253 C250 0.960 . S
C254 N255 1.342 . S
C254 C258 1.401 . S
C254 C259 1.499 . S
N255 Co238 1.989 . S
N255 C254 1.342 . S
N255 N256 1.388 . S
N256 Co239 1.993 . S
N256 N255 1.388 . S
N256 C257 1.346 . S
C257 N256 1.346 . S
C257 C258 1.396 . S
C257 C267 1.510 . S
C258 C254 1.401 . S
C258 C257 1.396 . S
C259 C254 1.499 . S
C259 H260 0.959 1_554 S
C259 H261 0.960 1_554 S
C259 H262 0.961 . S
H260 C259 0.959 1_556 S
H261 C259 0.960 1_556 S
H262 C259 0.961 . S
O263 Co238 1.967 . S
O263 C271 1.258 . S
O264 Co239 1.941 . S
O264 C271 1.266 . S
H265 C267 0.959 . S
H266 C267 0.961 . S
C267 C257 1.510 . S
C267 H265 0.959 . S
C267 H266 0.961 . S
C267 H268 0.960 . S
H268 C267 0.960 . S
H269 N249 0.862 . S
O270 Co238 1.920 1_556 S
O270 C243 1.289 . S
C271 O263 1.258 . S
C271 O264 1.266 . S
H272 C284 0.930 . S
H273 C286 0.930 . S
H274 C287 0.930 . S
H275 C291 0.959 . S
H276 C291 0.959 . S
H277 C291 0.961 . S
H278 C292 0.960 . S
H279 C292 0.961 . S
H280 C292 0.959 . S
H281 C295 0.929 . S
H282 C296 0.931 . S
H283 C298 0.930 . S
C284 H272 0.930 . S
C284 C285 1.399 . S
C284 C289 1.399 . S
C285 C284 1.399 . S
C285 C286 1.376 . S
C286 H273 0.930 . S
C286 C285 1.376 . S
C286 C287 1.388 . S
C287 H274 0.930 . S
C287 C286 1.388 . S
C287 C288 1.390 . S
C288 C287 1.390 . S
C288 C289 1.394 . S
C288 C294 1.465 . S
C289 C284 1.399 . S
C289 C288 1.394 . S
C289 C290 1.516 . S
C290 C289 1.516 . S
C290 C291 1.502 . S
C290 C292 1.561 . S
C290 C293 1.526 . S
C291 H275 0.959 . S
C291 H276 0.959 . S
C291 H277 0.961 . S
C291 C290 1.502 . S
C292 H278 0.960 . S
C292 H279 0.961 . S
C292 H280 0.959 . S
C292 C290 1.561 . S
C293 C290 1.526 . S
C293 C294 1.396 . S
C293 C298 1.390 . S
C294 C288 1.465 . S
C294 C293 1.396 . S
C294 C295 1.399 . S
C295 H281 0.929 . S
C295 C294 1.399 . S
C295 C296 1.385 . S
C296 H282 0.931 . S
C296 C295 1.385 . S
C296 C297 1.389 . S
C297 C296 1.389 . S
C297 C298 1.387 . S
C298 H283 0.930 . S
C298 C293 1.390 . S
C298 C297 1.387 . S
H299 C311 0.930 . S
H300 C313 0.930 . S
H301 C314 0.930 . S
H302 C318 0.959 . S
H303 C318 0.959 . S
H304 C318 0.961 . S
H305 C319 0.960 . S
H306 C319 0.961 . S
H307 C319 0.959 . S
H308 C322 0.929 . S
H309 C323 0.931 . S
H310 C325 0.930 . S
C311 H299 0.930 . S
C311 C312 1.399 . S
C311 C316 1.399 . S
C312 C311 1.399 . S
C312 C313 1.376 . S
C313 H300 0.930 . S
C313 C312 1.376 . S
C313 C314 1.388 . S
C314 H301 0.930 . S
C314 C313 1.388 . S
C314 C315 1.390 . S
C315 C314 1.390 . S
C315 C316 1.394 . S
C315 C321 1.465 . S
C316 C311 1.399 . S
C316 C315 1.394 . S
C316 C317 1.516 . S
C317 C316 1.516 . S
C317 C318 1.502 . S
C317 C319 1.561 . S
C317 C320 1.526 . S
C318 H302 0.959 . S
C318 H303 0.959 . S
C318 H304 0.961 . S
C318 C317 1.502 . S
C319 H305 0.960 . S
C319 H306 0.961 . S
C319 H307 0.959 . S
C319 C317 1.561 . S
C320 C317 1.526 . S
C320 C321 1.396 . S
C320 C325 1.390 . S
C321 C315 1.465 . S
C321 C320 1.396 . S
C321 C322 1.399 . S
C322 H308 0.929 . S
C322 C321 1.399 . S
C322 C323 1.385 . S
C323 H309 0.931 . S
C323 C322 1.385 . S
C323 C324 1.389 . S
C324 C323 1.389 . S
C324 C325 1.387 . S
C325 H310 0.930 . S
C325 C320 1.390 . S
C325 C324 1.387 . S
H326 C338 0.930 . S
H327 C340 0.930 . S
H328 C341 0.930 . S
H329 C345 0.959 . S
H330 C345 0.959 . S
H331 C345 0.961 . S
H332 C346 0.960 . S
H333 C346 0.961 . S
H334 C346 0.959 . S
H335 C349 0.929 . S
H336 C350 0.931 . S
H337 C352 0.930 . S
C338 H326 0.930 . S
C338 C339 1.399 . S
C338 C343 1.399 . S
C339 C338 1.399 . S
C339 C340 1.376 . S
C340 H327 0.930 . S
C340 C339 1.376 . S
C340 C341 1.388 . S
C341 H328 0.930 . S
C341 C340 1.388 . S
C341 C342 1.390 . S
C342 C341 1.390 . S
C342 C343 1.394 . S
C342 C348 1.465 . S
C343 C338 1.399 . S
C343 C342 1.394 . S
C343 C344 1.516 . S
C344 C343 1.516 . S
C344 C345 1.502 . S
C344 C346 1.561 . S
C344 C347 1.526 . S
C345 H329 0.959 . S
C345 H330 0.959 . S
C345 H331 0.961 . S
C345 C344 1.502 . S
C346 H332 0.960 . S
C346 H333 0.961 . S
C346 H334 0.959 . S
C346 C344 1.561 . S
C347 C344 1.526 . S
C347 C348 1.396 . S
C347 C352 1.390 . S
C348 C342 1.465 . S
C348 C347 1.396 . S
C348 C349 1.399 . S
C349 H335 0.929 . S
C349 C348 1.399 . S
C349 C350 1.385 . S
C350 H336 0.931 . S
C350 C349 1.385 . S
C350 C351 1.389 . S
C351 C350 1.389 . S
C351 C352 1.387 . S
C352 H337 0.930 . S
C352 C347 1.390 . S
C352 C351 1.387 . S
H353 C365 0.930 . S
H354 C367 0.930 . S
H355 C368 0.930 . S
H356 C372 0.959 . S
H357 C372 0.959 . S
H358 C372 0.961 . S
H359 C373 0.960 . S
H360 C373 0.961 . S
H361 C373 0.959 . S
H362 C376 0.929 . S
H363 C377 0.931 . S
H364 C379 0.930 . S
C365 H353 0.930 . S
C365 C366 1.399 . S
C365 C370 1.399 . S
C366 C365 1.399 . S
C366 C367 1.376 . S
C367 H354 0.930 . S
C367 C366 1.376 . S
C367 C368 1.388 . S
C368 H355 0.930 . S
C368 C367 1.388 . S
C368 C369 1.390 . S
C369 C368 1.390 . S
C369 C370 1.394 . S
C369 C375 1.465 . S
C370 C365 1.399 . S
C370 C369 1.394 . S
C370 C371 1.516 . S
C371 C370 1.516 . S
C371 C372 1.502 . S
C371 C373 1.561 . S
C371 C374 1.526 . S
C372 H356 0.959 . S
C372 H357 0.959 . S
C372 H358 0.961 . S
C372 C371 1.502 . S
C373 H359 0.960 . S
C373 H360 0.961 . S
C373 H361 0.959 . S
C373 C371 1.561 . S
C374 C371 1.526 . S
C374 C375 1.396 . S
C374 C379 1.390 . S
C375 C369 1.465 . S
C375 C374 1.396 . S
C375 C376 1.399 . S
C376 H362 0.929 . S
C376 C375 1.399 . S
C376 C377 1.385 . S
C377 H363 0.931 . S
C377 C376 1.385 . S
C377 C378 1.389 . S
C378 C377 1.389 . S
C378 C379 1.387 . S
C379 H364 0.930 . S
C379 C374 1.390 . S
C379 C378 1.387 . S
H380 C392 0.930 . S
H381 C394 0.929 1_565 S
H382 C395 0.930 . S
H383 C399 0.959 . S
H384 C399 0.959 . S
H385 C399 0.961 . S
H386 C400 0.960 . S
H387 C400 0.961 . S
H388 C400 0.959 . S
H389 C403 0.929 . S
H390 C404 0.931 . S
H391 C406 0.930 . S
C392 H380 0.930 . S
C392 C393 1.399 . S
C392 C397 1.399 . S
C393 C392 1.399 . S
C393 C394 1.376 . S
C394 H381 0.929 1_545 S
C394 C393 1.376 . S
C394 C395 1.388 . S
C395 H382 0.930 . S
C395 C394 1.388 . S
C395 C396 1.390 . S
C396 C395 1.390 . S
C396 C397 1.394 . S
C396 C402 1.465 . S
C397 C392 1.399 . S
C397 C396 1.394 . S
C397 C398 1.516 . S
C398 C397 1.516 . S
C398 C399 1.502 . S
C398 C400 1.561 . S
C398 C401 1.526 . S
C399 H383 0.959 . S
C399 H384 0.959 . S
C399 H385 0.961 . S
C399 C398 1.502 . S
C400 H386 0.960 . S
C400 H387 0.961 . S
C400 H388 0.959 . S
C400 C398 1.561 . S
C401 C398 1.526 . S
C401 C402 1.396 . S
C401 C406 1.390 . S
C402 C396 1.465 . S
C402 C401 1.396 . S
C402 C403 1.399 . S
C403 H389 0.929 . S
C403 C402 1.399 . S
C403 C404 1.385 . S
C404 H390 0.931 . S
C404 C403 1.385 . S
C404 C405 1.389 . S
C405 C404 1.389 . S
C405 C406 1.387 . S
C406 H391 0.930 . S
C406 C401 1.390 . S
C406 C405 1.387 . S
H407 C419 0.930 . S
H408 C421 0.930 . S
H409 C422 0.930 . S
H410 C426 0.959 . S
H411 C426 0.959 . S
H412 C426 0.961 . S
H413 C427 0.960 . S
H414 C427 0.961 . S
H415 C427 0.959 . S
H416 C430 0.929 . S
H417 C431 0.931 . S
H418 C433 0.930 . S
C419 H407 0.930 . S
C419 C420 1.399 . S
C419 C424 1.399 . S
C420 C419 1.399 . S
C420 C421 1.376 . S
C421 H408 0.930 . S
C421 C420 1.376 . S
C421 C422 1.388 . S
C422 H409 0.930 . S
C422 C421 1.388 . S
C422 C423 1.390 . S
C423 C422 1.390 . S
C423 C424 1.394 . S
C423 C429 1.465 . S
C424 C419 1.399 . S
C424 C423 1.394 . S
C424 C425 1.516 . S
C425 C424 1.516 . S
C425 C426 1.502 . S
C425 C427 1.561 . S
C425 C428 1.526 . S
C426 H410 0.959 . S
C426 H411 0.959 . S
C426 H412 0.961 . S
C426 C425 1.502 . S
C427 H413 0.960 . S
C427 H414 0.961 . S
C427 H415 0.959 . S
C427 C425 1.561 . S
C428 C425 1.526 . S
C428 C429 1.396 . S
C428 C433 1.390 . S
C429 C423 1.465 . S
C429 C428 1.396 . S
C429 C430 1.399 . S
C430 H416 0.929 . S
C430 C429 1.399 . S
C430 C431 1.385 . S
C431 H417 0.931 . S
C431 C430 1.385 . S
C431 C432 1.389 . S
C432 C431 1.389 . S
C432 C433 1.387 . S
C433 H418 0.930 . S
C433 C428 1.390 . S
C433 C432 1.387 . S
H434 C446 0.930 . S
H435 C448 0.930 . S
H436 C449 0.930 . S
H437 C453 0.959 . S
H438 C453 0.959 . S
H439 C453 0.961 . S
H440 C454 0.960 . S
H441 C454 0.961 . S
H442 C454 0.959 . S
H443 C457 0.929 . S
H444 C458 0.931 . S
H445 C460 0.930 . S
C446 H434 0.930 . S
C446 C447 1.399 . S
C446 C451 1.399 . S
C447 C446 1.399 . S
C447 C448 1.376 . S
C448 H435 0.930 . S
C448 C447 1.376 . S
C448 C449 1.388 . S
C449 H436 0.930 . S
C449 C448 1.388 . S
C449 C450 1.390 . S
C450 C449 1.390 . S
C450 C451 1.394 . S
C450 C456 1.465 . S
C451 C446 1.399 . S
C451 C450 1.394 . S
C451 C452 1.516 . S
C452 C451 1.516 . S
C452 C453 1.502 . S
C452 C454 1.561 . S
C452 C455 1.526 . S
C453 H437 0.959 . S
C453 H438 0.959 . S
C453 H439 0.961 . S
C453 C452 1.502 . S
C454 H440 0.960 . S
C454 H441 0.961 . S
C454 H442 0.959 . S
C454 C452 1.561 . S
C455 C452 1.526 . S
C455 C456 1.396 . S
C455 C460 1.390 . S
C456 C450 1.465 . S
C456 C455 1.396 . S
C456 C457 1.399 . S
C457 H443 0.929 . S
C457 C456 1.399 . S
C457 C458 1.385 . S
C458 H444 0.931 . S
C458 C457 1.385 . S
C458 C459 1.389 . S
C459 C458 1.389 . S
C459 C460 1.387 . S
C460 H445 0.930 . S
C460 C455 1.390 . S
C460 C459 1.387 . S
H461 C473 0.930 . S
H462 C475 0.930 1_565 S
H463 C476 0.930 . S
H464 C480 0.959 . S
H465 C480 0.959 . S
H466 C480 0.961 . S
H467 C481 0.960 . S
H468 C481 0.961 . S
H469 C481 0.959 . S
H470 C484 0.929 . S
H471 C485 0.931 . S
H472 C487 0.930 . S
C473 H461 0.930 . S
C473 C474 1.399 . S
C473 C478 1.399 . S
C474 C473 1.399 . S
C474 C475 1.376 . S
C475 H462 0.930 1_545 S
C475 C474 1.376 . S
C475 C476 1.388 . S
C476 H463 0.930 . S
C476 C475 1.388 . S
C476 C477 1.390 . S
C477 C476 1.390 . S
C477 C478 1.394 . S
C477 C483 1.465 . S
C478 C473 1.399 . S
C478 C477 1.394 . S
C478 C479 1.516 . S
C479 C478 1.516 . S
C479 C480 1.502 . S
C479 C481 1.561 . S
C479 C482 1.526 . S
C480 H464 0.959 . S
C480 H465 0.959 . S
C480 H466 0.961 . S
C480 C479 1.502 . S
C481 H467 0.960 . S
C481 H468 0.961 . S
C481 H469 0.959 . S
C481 C479 1.561 . S
C482 C479 1.526 . S
C482 C483 1.396 . S
C482 C487 1.390 . S
C483 C477 1.465 . S
C483 C482 1.396 . S
C483 C484 1.399 . S
C484 H470 0.929 . S
C484 C483 1.399 . S
C484 C485 1.385 . S
C485 H471 0.931 . S
C485 C484 1.385 . S
C485 C486 1.389 . S
C486 C485 1.389 . S
C486 C487 1.387 . S
C487 H472 0.930 . S
C487 C482 1.390 . S
C487 C486 1.387 . S
H488 C500 0.930 . S
H489 C502 0.930 . S
H490 C503 0.930 . S
H491 C507 0.959 . S
H492 C507 0.959 . S
H493 C507 0.961 . S
H494 C508 0.960 . S
H495 C508 0.961 . S
H496 C508 0.959 . S
H497 C511 0.929 . S
H498 C512 0.931 . S
H499 C514 0.930 . S
C500 H488 0.930 . S
C500 C501 1.399 . S
C500 C505 1.399 . S
C501 C500 1.399 . S
C501 C502 1.376 1_545 S
C502 H489 0.930 . S
C502 C501 1.376 1_565 S
C502 C503 1.388 . S
C503 H490 0.930 . S
C503 C502 1.388 . S
C503 C504 1.390 1_565 S
C504 C503 1.390 1_545 S
C504 C505 1.394 . S
C504 C510 1.465 . S
C505 C500 1.399 . S
C505 C504 1.394 . S
C505 C506 1.516 . S
C506 C505 1.516 . S
C506 C507 1.502 . S
C506 C508 1.561 . S
C506 C509 1.526 . S
C507 H491 0.959 . S
C507 H492 0.959 . S
C507 H493 0.961 . S
C507 C506 1.502 . S
C508 H494 0.960 . S
C508 H495 0.961 . S
C508 H496 0.959 . S
C508 C506 1.561 . S
C509 C506 1.526 . S
C509 C510 1.396 . S
C509 C514 1.390 . S
C510 C504 1.465 . S
C510 C509 1.396 . S
C510 C511 1.399 1_545 S
C511 H497 0.929 . S
C511 C510 1.399 1_565 S
C511 C512 1.385 . S
C512 H498 0.931 . S
C512 C511 1.385 . S
C512 C513 1.389 1_565 S
C513 C512 1.389 1_545 S
C513 C514 1.387 . S
C514 H499 0.930 . S
C514 C509 1.390 . S
C514 C513 1.387 . S
H515 C527 0.930 . S
H516 C529 0.930 . S
H517 C530 0.930 . S
H518 C534 0.959 . S
H519 C534 0.959 . S
H520 C534 0.961 . S
H521 C535 0.960 . S
H522 C535 0.961 . S
H523 C535 0.959 . S
H524 C538 0.929 . S
H525 C539 0.931 . S
H526 C541 0.930 . S
C527 H515 0.930 . S
C527 C528 1.399 . S
C527 C532 1.399 . S
C528 C527 1.399 . S
C528 C529 1.376 . S
C529 H516 0.930 . S
C529 C528 1.376 . S
C529 C530 1.388 . S
C530 H517 0.930 . S
C530 C529 1.388 . S
C530 C531 1.390 . S
C531 C530 1.390 . S
C531 C532 1.394 . S
C531 C537 1.465 . S
C532 C527 1.399 . S
C532 C531 1.394 . S
C532 C533 1.516 . S
C533 C532 1.516 . S
C533 C534 1.502 . S
C533 C535 1.561 . S
C533 C536 1.526 . S
C534 H518 0.959 . S
C534 H519 0.959 . S
C534 H520 0.961 . S
C534 C533 1.502 . S
C535 H521 0.960 . S
C535 H522 0.961 . S
C535 H523 0.959 . S
C535 C533 1.561 . S
C536 C533 1.526 . S
C536 C537 1.396 . S
C536 C541 1.390 . S
C537 C531 1.465 . S
C537 C536 1.396 . S
C537 C538 1.399 . S
C538 H524 0.929 . S
C538 C537 1.399 . S
C538 C539 1.385 . S
C539 H525 0.931 . S
C539 C538 1.385 . S
C539 C540 1.389 . S
C540 C539 1.389 . S
C540 C541 1.387 . S
C541 H526 0.930 . S
C541 C536 1.390 . S
C541 C540 1.387 . S
H542 C554 0.930 1_565 S
H543 C556 0.930 . S
H544 C557 0.930 . S
H545 C561 0.960 1_655 S
H546 C561 0.948 1_655 S
H547 C561 0.973 . S
H548 C562 0.960 1_455 S
H549 C562 0.961 . S
H550 C562 0.959 . S
H551 C565 0.929 . S
H552 C566 0.931 . S
H553 C568 0.930 1_565 S
C554 H542 0.930 1_545 S
C554 C555 1.399 . S
C554 C559 1.399 . S
C555 C554 1.399 . S
C555 C556 1.376 . S
C556 H543 0.930 . S
C556 C555 1.376 . S
C556 C557 1.388 . S
C557 H544 0.930 . S
C557 C556 1.388 . S
C557 C558 1.390 . S
C558 C557 1.390 . S
C558 C559 1.394 . S
C558 C564 1.465 1_455 S
C559 C554 1.399 . S
C559 C558 1.394 . S
C559 C560 1.504 1_445 S
C560 C559 1.504 1_665 S
C560 C561 1.500 1_655 S
C560 C562 1.563 . S
C560 C563 1.538 1_565 S
C561 H545 0.960 1_455 S
C561 H546 0.948 1_455 S
C561 H547 0.973 . S
C561 C560 1.500 1_455 S
C562 H548 0.960 1_655 S
C562 H549 0.961 . S
C562 H550 0.959 . S
C562 C560 1.563 . S
C563 C560 1.538 1_545 S
C563 C564 1.396 . S
C563 C568 1.390 . S
C564 C558 1.465 1_655 S
C564 C563 1.396 . S
C564 C565 1.399 . S
C565 H551 0.929 . S
C565 C564 1.399 . S
C565 C566 1.385 . S
C566 H552 0.931 . S
C566 C565 1.385 . S
C566 C567 1.389 . S
C567 C566 1.389 . S
C567 C568 1.387 . S
C568 H553 0.930 1_545 S
C568 C563 1.390 . S
C568 C567 1.387 . S
H569 C581 0.930 . S
H570 C583 0.930 . S
H571 C584 0.930 . S
H572 C588 0.959 . S
H573 C588 0.959 . S
H574 C588 0.961 1_655 S
H575 C589 0.960 1_655 S
H576 C589 0.961 . S
H577 C589 0.959 . S
H578 C592 0.929 . S
H579 C593 0.931 . S
H580 C595 0.930 . S
C581 H569 0.930 . S
C581 C582 1.399 . S
C581 C586 1.399 . S
C582 C581 1.399 . S
C582 C583 1.376 . S
C583 H570 0.930 . S
C583 C582 1.376 . S
C583 C584 1.388 . S
C584 H571 0.930 . S
C584 C583 1.388 . S
C584 C585 1.390 . S
C585 C584 1.390 . S
C585 C586 1.394 . S
C585 C591 1.465 1_655 S
C586 C581 1.399 . S
C586 C585 1.394 . S
C586 C587 1.516 1_655 S
C587 C586 1.516 1_455 S
C587 C588 1.502 . S
C587 C589 1.561 1_554 S
C587 C590 1.526 . S
C588 H572 0.959 . S
C588 H573 0.959 . S
C588 H574 0.961 1_455 S
C588 C587 1.502 . S
C589 H575 0.960 1_455 S
C589 H576 0.961 . S
C589 H577 0.959 . S
C589 C587 1.561 1_556 S
C590 C587 1.526 . S
C590 C591 1.396 . S
C590 C595 1.390 . S
C591 C585 1.465 1_455 S
C591 C590 1.396 . S
C591 C592 1.399 . S
C592 H578 0.929 . S
C592 C591 1.399 . S
C592 C593 1.385 . S
C593 H579 0.931 . S
C593 C592 1.385 . S
C593 C594 1.389 . S
C594 C593 1.389 . S
C594 C595 1.387 . S
C595 H580 0.930 . S
C595 C590 1.390 . S
C595 C594 1.387 . S
H596 C608 0.930 . S
H597 C610 0.930 . S
H598 C611 0.930 1_556 S
H599 C615 0.959 . S
H600 C615 0.959 . S
H601 C615 0.961 . S
H602 C616 0.960 . S
H603 C616 0.961 . S
H604 C616 0.959 . S
H605 C619 0.929 . S
H606 C620 0.931 . S
H607 C622 0.930 . S
C608 H596 0.930 . S
C608 C609 1.399 . S
C608 C613 1.399 . S
C609 C608 1.399 . S
C609 C610 1.376 . S
C610 H597 0.930 . S
C610 C609 1.376 . S
C610 C611 1.388 . S
C611 H598 0.930 1_554 S
C611 C610 1.388 . S
C611 C612 1.390 . S
C612 C611 1.390 . S
C612 C613 1.394 . S
C612 C618 1.465 . S
C613 C608 1.399 . S
C613 C612 1.394 . S
C613 C614 1.516 . S
C614 C613 1.516 . S
C614 C615 1.502 . S
C614 C616 1.561 . S
C614 C617 1.526 . S
C615 H599 0.959 . S
C615 H600 0.959 . S
C615 H601 0.961 . S
C615 C614 1.502 . S
C616 H602 0.960 . S
C616 H603 0.961 . S
C616 H604 0.959 . S
C616 C614 1.561 . S
C617 C614 1.526 . S
C617 C618 1.396 . S
C617 C622 1.390 . S
C618 C612 1.465 . S
C618 C617 1.396 . S
C618 C619 1.399 1_554 S
C619 H605 0.929 . S
C619 C618 1.399 1_556 S
C619 C620 1.385 . S
C620 H606 0.931 . S
C620 C619 1.385 . S
C620 C621 1.389 1_556 S
C621 C620 1.389 1_554 S
C621 C622 1.387 . S
C622 H607 0.930 . S
C622 C617 1.390 . S
C622 C621 1.387 . S
H623 C635 0.930 . S
H624 C637 0.908 1_556 S
H625 C638 0.930 . S
H626 C642 0.959 . S
H627 C642 0.959 . S
H628 C642 0.961 . S
H629 C643 0.960 . S
H630 C643 0.961 . S
H631 C643 0.959 . S
H632 C646 0.929 1_556 S
H633 C647 0.931 . S
H634 C649 0.930 . S
C635 H623 0.930 . S
C635 C636 1.399 . S
C635 C640 1.399 . S
C636 C635 1.399 . S
C636 C637 1.399 . S
C637 H624 0.908 1_554 S
C637 C636 1.399 . S
C637 C638 1.388 1_554 S
C638 H625 0.930 . S
C638 C637 1.388 1_556 S
C638 C639 1.390 1_556 S
C639 C638 1.390 1_554 S
C639 C640 1.394 . S
C639 C645 1.465 . S
C640 C635 1.399 . S
C640 C639 1.394 . S
C640 C641 1.516 . S
C641 C640 1.516 . S
C641 C642 1.502 . S
C641 C643 1.561 . S
C641 C644 1.526 . S
C642 H626 0.959 . S
C642 H627 0.959 . S
C642 H628 0.961 . S
C642 C641 1.502 . S
C643 H629 0.960 . S
C643 H630 0.961 . S
C643 H631 0.959 . S
C643 C641 1.561 . S
C644 C641 1.526 . S
C644 C645 1.396 . S
C644 C649 1.390 . S
C645 C639 1.465 . S
C645 C644 1.396 . S
C645 C646 1.399 . S
C646 H632 0.929 1_554 S
C646 C645 1.399 . S
C646 C647 1.385 . S
C647 H633 0.931 . S
C647 C646 1.385 . S
C647 C648 1.389 . S
C648 C647 1.389 . S
C648 C649 1.387 . S
C649 H634 0.930 . S
C649 C644 1.390 . S
C649 C648 1.387 . S
H650 C662 0.930 . S
H651 C664 0.930 . S
H652 C665 0.930 . S
H653 C669 0.959 . S
H654 C669 0.959 . S
H655 C669 0.961 . S
H656 C670 0.960 . S
H657 C670 0.961 . S
H658 C670 0.959 . S
H659 C673 0.929 . S
H660 C674 0.931 1_545 S
H661 C676 0.930 . S
C662 H650 0.930 . S
C662 C663 1.399 . S
C662 C667 1.399 . S
C663 C662 1.399 . S
C663 C664 1.376 . S
C664 H651 0.930 . S
C664 C663 1.376 . S
C664 C665 1.388 . S
C665 H652 0.930 . S
C665 C664 1.388 . S
C665 C666 1.390 . S
C666 C665 1.390 . S
C666 C667 1.394 . S
C666 C672 1.465 . S
C667 C662 1.399 . S
C667 C666 1.394 . S
C667 C668 1.516 . S
C668 C667 1.516 . S
C668 C669 1.502 . S
C668 C670 1.561 . S
C668 C671 1.526 . S
C669 H653 0.959 . S
C669 H654 0.959 . S
C669 H655 0.961 . S
C669 C668 1.502 . S
C670 H656 0.960 . S
C670 H657 0.961 . S
C670 H658 0.959 . S
C670 C668 1.561 . S
C671 C668 1.526 . S
C671 C672 1.396 . S
C671 C676 1.390 . S
C672 C666 1.465 . S
C672 C671 1.396 . S
C672 C673 1.399 . S
C673 H659 0.929 . S
C673 C672 1.399 . S
C673 C674 1.385 . S
C674 H660 0.931 1_565 S
C674 C673 1.385 . S
C674 C675 1.389 . S
C675 C674 1.389 . S
C675 C676 1.387 . S
C676 H661 0.930 . S
C676 C671 1.390 . S
C676 C675 1.387 . S
H677 C689 0.930 . S
H678 C691 0.930 . S
H679 C692 0.930 . S
H680 C696 0.959 . S
H681 C696 0.959 . S
H682 C696 0.961 . S
H683 C697 0.960 . S
H684 C697 0.961 . S
H685 C697 0.959 . S
H686 C700 0.929 . S
H687 C701 0.931 . S
H688 C703 0.930 . S
C689 H677 0.930 . S
C689 C690 1.399 . S
C689 C694 1.399 . S
C690 C689 1.399 . S
C690 C691 1.376 . S
C691 H678 0.930 . S
C691 C690 1.376 . S
C691 C692 1.388 . S
C692 H679 0.930 . S
C692 C691 1.388 . S
C692 C693 1.390 . S
C693 C692 1.390 . S
C693 C694 1.394 . S
C693 C699 1.465 . S
C694 C689 1.399 . S
C694 C693 1.394 . S
C694 C695 1.516 . S
C695 C694 1.516 . S
C695 C696 1.502 . S
C695 C697 1.561 . S
C695 C698 1.526 . S
C696 H680 0.959 . S
C696 H681 0.959 . S
C696 H682 0.961 . S
C696 C695 1.502 . S
C697 H683 0.960 . S
C697 H684 0.961 . S
C697 H685 0.959 . S
C697 C695 1.561 . S
C698 C695 1.526 . S
C698 C699 1.396 . S
C698 C703 1.390 . S
C699 C693 1.465 . S
C699 C698 1.396 . S
C699 C700 1.399 . S
C700 H686 0.929 . S
C700 C699 1.399 . S
C700 C701 1.385 . S
C701 H687 0.931 . S
C701 C700 1.385 . S
C701 C702 1.389 . S
C702 C701 1.389 . S
C702 C703 1.387 . S
C703 H688 0.930 . S
C703 C698 1.390 . S
C703 C702 1.387 . S
H704 C716 0.930 . S
H705 C718 0.930 . S
H706 C719 0.930 . S
H707 C723 0.959 . S
H708 C723 0.959 . S
H709 C723 0.961 . S
H710 C724 0.960 . S
H711 C724 0.961 . S
H712 C724 0.959 . S
H713 C727 0.929 . S
H714 C728 0.931 . S
H715 C730 0.930 . S
C716 H704 0.930 . S
C716 C717 1.399 . S
C716 C721 1.399 . S
C717 C716 1.399 . S
C717 C718 1.376 . S
C718 H705 0.930 . S
C718 C717 1.376 . S
C718 C719 1.388 . S
C719 H706 0.930 . S
C719 C718 1.388 . S
C719 C720 1.390 . S
C720 C719 1.390 . S
C720 C721 1.394 . S
C720 C726 1.465 . S
C721 C716 1.399 . S
C721 C720 1.394 . S
C721 C722 1.516 . S
C722 C721 1.516 . S
C722 C723 1.502 . S
C722 C724 1.561 . S
C722 C725 1.526 . S
C723 H707 0.959 . S
C723 H708 0.959 . S
C723 H709 0.961 . S
C723 C722 1.502 . S
C724 H710 0.960 . S
C724 H711 0.961 . S
C724 H712 0.959 . S
C724 C722 1.561 . S
C725 C722 1.526 . S
C725 C726 1.396 . S
C725 C730 1.390 . S
C726 C720 1.465 . S
C726 C725 1.396 . S
C726 C727 1.399 . S
C727 H713 0.929 . S
C727 C726 1.399 . S
C727 C728 1.385 . S
C728 H714 0.931 . S
C728 C727 1.385 . S
C728 C729 1.389 . S
C729 C728 1.389 . S
C729 C730 1.387 . S
C730 H715 0.930 . S
C730 C725 1.390 . S
C730 C729 1.387 . S
H731 C743 0.930 . S
H732 C745 0.930 . S
H733 C746 0.930 . S
H734 C750 0.959 . S
H735 C750 0.959 . S
H736 C750 0.961 . S
H737 C751 0.960 . S
H738 C751 0.961 . S
H739 C751 0.959 . S
H740 C754 0.929 . S
H741 C755 0.931 . S
H742 C757 0.930 . S
C743 H731 0.930 . S
C743 C744 1.399 . S
C743 C748 1.399 . S
C744 C743 1.399 . S
C744 C745 1.376 . S
C745 H732 0.930 . S
C745 C744 1.376 . S
C745 C746 1.388 . S
C746 H733 0.930 . S
C746 C745 1.388 . S
C746 C747 1.390 . S
C747 C746 1.390 . S
C747 C748 1.394 . S
C747 C753 1.465 . S
C748 C743 1.399 . S
C748 C747 1.394 . S
C748 C749 1.516 . S
C749 C748 1.516 . S
C749 C750 1.502 . S
C749 C751 1.561 . S
C749 C752 1.526 . S
C750 H734 0.959 . S
C750 H735 0.959 . S
C750 H736 0.961 . S
C750 C749 1.502 . S
C751 H737 0.960 . S
C751 H738 0.961 . S
C751 H739 0.959 . S
C751 C749 1.561 . S
C752 C749 1.526 . S
C752 C753 1.396 . S
C752 C757 1.390 . S
C753 C747 1.465 . S
C753 C752 1.396 . S
C753 C754 1.399 . S
C754 H740 0.929 . S
C754 C753 1.399 . S
C754 C755 1.385 . S
C755 H741 0.931 . S
C755 C754 1.385 . S
C755 C756 1.389 . S
C756 C755 1.389 . S
C756 C757 1.387 . S
C757 H742 0.930 . S
C757 C752 1.390 . S
C757 C756 1.387 . S
H758 C770 0.930 . S
H759 C772 0.930 . S
H760 C773 0.930 . S
H761 C777 0.959 . S
H762 C777 0.959 . S
H763 C777 0.961 . S
H764 C778 0.960 . S
H765 C778 0.961 . S
H766 C778 0.959 . S
H767 C781 0.929 . S
H768 C782 0.931 . S
H769 C784 0.930 . S
C770 H758 0.930 . S
C770 C771 1.399 . S
C770 C775 1.399 . S
C771 C770 1.399 . S
C771 C772 1.376 . S
C772 H759 0.930 . S
C772 C771 1.376 . S
C772 C773 1.388 . S
C773 H760 0.930 . S
C773 C772 1.388 . S
C773 C774 1.390 . S
C774 C773 1.390 . S
C774 C775 1.394 . S
C774 C780 1.465 . S
C775 C770 1.399 . S
C775 C774 1.394 . S
C775 C776 1.516 . S
C776 C775 1.516 . S
C776 C777 1.502 . S
C776 C778 1.561 . S
C776 C779 1.526 . S
C777 H761 0.959 . S
C777 H762 0.959 . S
C777 H763 0.961 . S
C777 C776 1.502 . S
C778 H764 0.960 . S
C778 H765 0.961 . S
C778 H766 0.959 . S
C778 C776 1.561 . S
C779 C776 1.526 . S
C779 C780 1.396 . S
C779 C784 1.390 . S
C780 C774 1.465 . S
C780 C779 1.396 . S
C780 C781 1.399 . S
C781 H767 0.929 . S
C781 C780 1.399 . S
C781 C782 1.385 . S
C782 H768 0.931 . S
C782 C781 1.385 . S
C782 C783 1.389 . S
C783 C782 1.389 . S
C783 C784 1.387 . S
C784 H769 0.930 . S
C784 C779 1.390 . S
C784 C783 1.387 . S
H785 C797 0.930 . S
H786 C799 0.930 . S
H787 C800 0.930 . S
H788 C804 0.959 . S
H789 C804 0.959 . S
H790 C804 0.961 . S
H791 C805 0.960 . S
H792 C805 0.961 . S
H793 C805 0.959 . S
H794 C808 0.929 . S
H795 C809 0.931 . S
H796 C811 0.930 . S
C797 H785 0.930 . S
C797 C798 1.399 . S
C797 C802 1.399 . S
C798 C797 1.399 . S
C798 C799 1.376 . S
C799 H786 0.930 . S
C799 C798 1.376 . S
C799 C800 1.388 . S
C800 H787 0.930 . S
C800 C799 1.388 . S
C800 C801 1.390 . S
C801 C800 1.390 . S
C801 C802 1.394 . S
C801 C807 1.465 . S
C802 C797 1.399 . S
C802 C801 1.394 . S
C802 C803 1.516 . S
C803 C802 1.516 . S
C803 C804 1.502 . S
C803 C805 1.561 . S
C803 C806 1.526 . S
C804 H788 0.959 . S
C804 H789 0.959 . S
C804 H790 0.961 . S
C804 C803 1.502 . S
C805 H791 0.960 . S
C805 H792 0.961 . S
C805 H793 0.959 . S
C805 C803 1.561 . S
C806 C803 1.526 . S
C806 C807 1.396 . S
C806 C811 1.390 . S
C807 C801 1.465 . S
C807 C806 1.396 . S
C807 C808 1.399 . S
C808 H794 0.929 . S
C808 C807 1.399 . S
C808 C809 1.385 . S
C809 H795 0.931 . S
C809 C808 1.385 . S
C809 C810 1.389 . S
C810 C809 1.389 . S
C810 C811 1.387 . S
C811 H796 0.930 . S
C811 C806 1.390 . S
C811 C810 1.387 . S
C285 C77 1.476 . S
C297 C5 1.540 . S
C312 C43 1.524 . S
C324 C107 1.551 . S
C339 C73 1.548 . S
C351 C9 1.508 . S
C366 C111 1.476 . S
C378 C39 1.540 . S
C393 C141 1.550 . S
C405 C213 1.522 . S
C420 C243 1.538 . S
C432 C179 1.478 . S
C447 C145 1.474 . S
C459 C209 1.539 . S
C474 C175 1.550 . S
C486 C247 1.525 . S
C501 C54 1.401 . S
C513 C20 1.421 . S
C528 C88 1.442 . S
C540 C122 1.434 . S
C555 C190 1.442 . S
C567 C156 1.436 . S
C582 C224 1.429 . S
C594 C258 1.443 . S
C609 C240 0.855 . S
C621 C33 0.864 . S
C636 C237 0.859 . S
C648 C36 0.858 . S
C663 C271 0.883 . S
C675 C2 0.794 . S
C690 C67 0.881 . S
C702 C206 0.795 . S
C717 C172 0.871 . S
C729 C101 0.838 . S
C744 C104 0.849 . S
C756 C169 0.872 . S
C771 C203 0.756 . S
C783 C70 0.879 . S
C798 C135 0.767 . S
C810 C138 0.861 . S
