# Generated by pormake.
# Topology sxc, (6)-cn, num edge types: 1
# Building blocks:
#     Node 0, Type 0, BuildingBlock: BETFAJ_clean_sbu_0, # of connection points: 6
#     Node 1, Type 0, BuildingBlock: BETFAJ_clean_sbu_0, # of connection points: 6
#     Node 2, Type 0, BuildingBlock: BETFAJ_clean_sbu_0, # of connection points: 6
#     Edge 3, Type (0, 0), BuildingBlock: FUNLAD_clean_linker_1, # of connection points: 2
#     Edge 4, Type (0, 0), BuildingBlock: FUNLAD_clean_linker_1, # of connection points: 2
#     Edge 5, Type (0, 0), BuildingBlock: FUNLAD_clean_linker_1, # of connection points: 2
#     Edge 6, Type (0, 0), BuildingBlock: FUNLAD_clean_linker_1, # of connection points: 2
#     Edge 7, Type (0, 0), BuildingBlock: FUNLAD_clean_linker_1, # of connection points: 2
#     Edge 8, Type (0, 0), BuildingBlock: FUNLAD_clean_linker_1, # of connection points: 2
#     Edge 9, Type (0, 0), BuildingBlock: FUNLAD_clean_linker_1, # of connection points: 2
#     Edge 10, Type (0, 0), BuildingBlock: FUNLAD_clean_linker_1, # of connection points: 2
#     Edge 11, Type (0, 0), BuildingBlock: FUNLAD_clean_linker_1, # of connection points: 2
# Relax obj value: 0.301
# Max RMSD: 0.160
# Mean RMSD: 0.087
data_MOF--net-sxc--node1-BETFAJ_clean_sbu_0--edge1-FUNLAD_clean_linker_1
_symmetry_space_group_name_H-M    P1
_symmetry_Int_Tables_number       1
_symmetry_cell_setting            triclinic
loop_
_symmetry_equiv_pos_as_xyz
'x, y, z'
_cell_length_a     16.32184
_cell_length_b     17.346791
_cell_length_c     46.443314
_cell_angle_alpha  94.932858
_cell_angle_beta   90.955041
_cell_angle_gamma 88.403693
loop_
_atom_site_label
_atom_site_type_symbol
_atom_site_fract_x
_atom_site_fract_y
_atom_site_fract_z
_atom_type_partial_charge
Sm0 Sm 0.17071 0.18418 0.01455 0.0
Sm1 Sm 0.99742 0.17891 0.02265 0.0
C2 C 0.31844 0.21049 0.99577 0.0
C3 C 0.36025 0.28238 0.99171 0.0
C4 C 0.31605 0.34641 0.9823 0.0
C5 C 0.35194 0.41852 0.98341 0.0
C6 C 0.43265 0.42771 0.99363 0.0
C7 C 0.47819 0.36271 0.00175 0.0
C8 C 0.44203 0.29052 0.00078 0.0
C9 C 0.13072 0.17923 0.07182 0.0
C10 C 1.06637 0.35758 0.02155 0.0
C11 C 0.84931 0.15252 0.04098 0.0
C12 C 0.80904 1.08028 0.04571 0.0
C13 C 0.85484 1.01766 0.05548 0.0
C14 C 0.82079 0.94481 0.05482 0.0
C15 C 0.7403 0.93348 0.04472 0.0
C16 C 0.69309 0.99712 0.03626 0.0
C17 C 0.72745 1.07005 0.03675 0.0
C18 C 1.03539 0.19108 0.96587 0.0
C19 C 0.10277 1.00581 0.01662 0.0
O20 O 0.25605 0.1943 0.97849 0.0
O21 O 0.30404 0.19899 0.02263 0.0
O22 O 0.09502 0.2208 0.05417 0.0
O23 O 0.19111 0.13915 0.05968 0.0
O24 O 0.13673 0.32045 0.01422 0.0
O25 O 1.0034 0.31532 0.02799 0.0
O26 O 0.91054 0.17149 0.05846 0.0
O27 O 0.86475 0.16167 0.01399 0.0
O28 O 1.07209 0.14577 0.98218 0.0
O29 O 0.97689 0.23053 0.9793 0.0
O30 O 1.03222 1.04296 0.02357 0.0
O31 O 0.16567 1.04791 0.0101 0.0
H32 H 0.25269 0.34164 0.97524 0.0
H33 H 0.3157 0.46779 0.97713 0.0
H34 H 0.5399 0.36796 0.01042 0.0
H35 H 0.47661 0.24189 0.00843 0.0
H36 H 0.9181 1.02406 0.06246 0.0
H37 H 0.8583 0.89661 0.06134 0.0
H38 H 0.63149 0.99016 0.02764 0.0
H39 H 0.69168 1.11754 0.02879 0.0
Sm40 Sm 0.18298 0.25815 0.35532 0.0
Sm41 Sm 0.1597 1.09707 0.35202 0.0
C42 C 0.17601 0.40486 0.34391 0.0
C43 C 0.1313 0.44071 0.32068 0.0
C44 C 0.14142 0.51866 0.31657 0.0
C45 C 0.10165 0.55113 0.29346 0.0
C46 C 1.05092 0.50627 0.27417 0.0
C47 C 1.04056 0.42803 0.27858 0.0
C48 C 0.08109 0.39548 0.3015 0.0
C49 C 0.20012 0.20669 0.40988 0.0
C50 C 0.99461 0.19476 0.35449 0.0
C51 C 0.14625 0.94561 0.34767 0.0
C52 C 0.09546 0.89918 0.32655 0.0
C53 C 1.04587 0.84174 0.33572 0.0
C54 C 0.99136 0.80323 0.31629 0.0
C55 C 0.98472 0.82199 0.28744 0.0
C56 C 1.03498 0.87932 0.27825 0.0
C57 C 0.08962 0.91754 0.29763 0.0
C58 C 0.14607 0.15659 0.29819 0.0
C59 C 0.34778 0.1563 0.35817 0.0
O60 O 0.23502 0.3568 0.33513 0.0
O61 O 0.13085 0.37773 0.36348 0.0
O62 O 0.14562 0.18398 0.39156 0.0
O63 O 0.2447 0.25892 0.4001 0.0
O64 O 1.04265 0.24742 0.34552 0.0
O65 O 1.02715 1.13088 0.36329 0.0
O66 O 0.20813 0.97973 0.33718 0.0
O67 O 0.10549 0.99091 0.3666 0.0
O68 O 0.20073 0.17164 0.31701 0.0
O69 O 0.09444 1.11019 0.30767 0.0
O70 O 0.29747 1.10326 0.3656 0.0
O71 O 0.31805 0.22133 0.3491 0.0
H72 H 0.18052 0.55417 0.33102 0.0
H73 H 0.11045 0.61175 0.29071 0.0
H74 H 1.0023 0.39129 0.26439 0.0
H75 H 1.0739 0.33462 0.30404 0.0
H76 H 1.04859 0.82732 0.35796 0.0
H77 H 0.95425 0.75844 0.32386 0.0
H78 H 1.03388 0.89395 0.2561 0.0
H79 H 0.12698 0.96188 0.28993 0.0
Sm80 Sm 0.122 1.07016 0.68403 0.0
Sm81 Sm 0.13221 0.23923 0.68913 0.0
C82 C 0.09549 0.92202 0.6892 0.0
C83 C 1.03654 0.86384 0.67852 0.0
C84 C 0.96151 0.88588 0.66615 0.0
C85 C 0.90589 0.82971 0.65603 0.0
C86 C 0.92466 0.75063 0.65823 0.0
C87 C 1.00096 0.72898 0.66985 0.0
C88 C 1.05637 0.78523 0.68007 0.0
C89 C 0.1337 1.12951 0.63083 0.0
C90 C 0.94827 0.17633 0.68763 0.0
C91 C 0.16445 0.38435 0.68105 0.0
C92 C 0.23373 0.42168 0.66886 0.0
C93 C 0.2886 0.37858 0.65044 0.0
C94 C 0.3579 0.41298 0.64056 0.0
C95 C 0.37363 0.491 0.64922 0.0
C96 C 0.31657 0.53452 0.66669 0.0
C97 C 0.24731 0.50003 0.67655 0.0
C98 C 0.11859 0.18001 0.74215 0.0
C99 C 0.30335 1.13564 0.68725 0.0
O100 O 1.06782 0.97807 0.70743 0.0
O101 O 0.1434 0.94602 0.66979 0.0
O102 O 0.08999 0.15768 0.65152 0.0
O103 O 0.17104 1.06651 0.6375 0.0
O104 O 0.98308 1.10646 0.68807 0.0
O105 O 0.99246 0.23823 0.68657 0.0
O106 O 0.12174 0.33961 0.66276 0.0
O107 O 0.17935 0.35403 0.70546 0.0
O108 O 0.16335 0.1514 0.72173 0.0
O109 O 0.08083 0.24287 0.73524 0.0
O110 O 0.26728 0.1998 0.67944 0.0
O111 O 0.25915 1.07888 0.69504 0.0
H112 H 0.94602 0.94644 0.66432 0.0
H113 H 0.84881 0.84843 0.64633 0.0
H114 H 1.01706 0.6685 0.67158 0.0
H115 H 0.11458 0.76739 0.68928 0.0
H116 H 0.27847 0.31804 0.64401 0.0
H117 H 0.3988 0.37805 0.6264 0.0
H118 H 0.32689 0.59485 0.67349 0.0
H119 H 0.20529 0.53409 0.69066 0.0
H120 H 0.98966 0.46727 0.02485 0.0
C121 C 1.0529 0.44738 0.02205 0.0
H122 H 0.17255 0.48467 0.01602 0.0
H123 H 0.14015 0.81833 0.97129 0.0
H124 H 0.21171 0.74284 0.93306 0.0
H125 H 0.22903 0.60155 0.93338 0.0
H126 H 0.17376 0.53406 0.97169 0.0
C127 C 0.10956 0.50471 0.01942 0.0
C128 C 0.09303 0.59521 0.01925 0.0
C129 C 0.12596 0.63749 0.99696 0.0
C130 C 0.11742 0.72164 0.99708 0.0
C131 C 0.14783 0.75707 0.97329 0.0
C132 C 0.18833 0.71408 0.95089 0.0
C133 C 0.19801 0.63443 0.95105 0.0
C134 C 0.16656 0.5964 0.97345 0.0
H135 H 0.17984 0.8964 0.01372 0.0
C136 C 0.11657 0.91612 0.01659 0.0
H137 H 0.99735 0.87852 0.02325 0.0
H138 H 1.02977 0.54488 0.06779 0.0
H139 H 0.95968 0.62055 0.10637 0.0
H140 H 0.94424 0.76205 0.10647 0.0
H141 H 0.99876 0.82954 0.06796 0.0
C142 C 1.06031 0.85867 0.01967 0.0
C143 C 1.07728 0.76823 0.01997 0.0
C144 C 1.04487 0.72599 0.04238 0.0
C145 C 1.05306 0.64179 0.04218 0.0
C146 C 1.02269 0.60628 0.06596 0.0
C147 C 0.98307 0.64935 0.08855 0.0
C148 C 0.97431 0.72912 0.0886 0.0
C149 C 1.00531 0.76715 0.0661 0.0
H150 H 0.46013 1.08886 0.36886 0.0
C151 C 0.43809 0.14243 0.36055 0.0
H152 H 0.47136 0.24783 0.34502 0.0
H153 H 0.82553 0.26763 0.40063 0.0
H154 H 0.75233 0.36699 0.43058 0.0
H155 H 0.60207 0.38261 0.42657 0.0
H156 H 0.5239 0.29843 0.39272 0.0
C157 C 0.49302 0.19319 0.35257 0.0
C158 C 0.58429 0.1807 0.35551 0.0
C159 C 0.62993 0.23129 0.37497 0.0
C160 C 0.71717 0.22307 0.37697 0.0
C161 C 0.75989 0.27256 0.39753 0.0
C162 C 0.71851 0.3296 0.41505 0.0
C163 C 0.63389 0.33835 0.41281 0.0
C164 C 0.5898 0.28979 0.39317 0.0
H165 H 0.87982 0.26046 0.34556 0.0
C166 C 0.90396 0.20697 0.35338 0.0
H167 H 0.87487 1.09962 0.36827 0.0
H168 H 0.51818 1.07695 0.31438 0.0
H169 H 0.59135 0.97698 0.28468 0.0
H170 H 0.74165 0.96154 0.28864 0.0
H171 H 0.8199 1.04653 0.32215 0.0
C172 C 0.85117 0.15433 0.36137 0.0
C173 C 0.75955 0.16503 0.35908 0.0
C174 C 0.71389 1.114 0.33978 0.0
C175 C 0.62662 1.12219 0.3378 0.0
C176 C 0.58386 1.07222 0.31742 0.0
C177 C 0.62522 1.01479 0.30006 0.0
C178 C 0.70986 1.00613 0.30226 0.0
C179 C 0.754 1.05518 0.32171 0.0
H180 H 0.88965 0.63119 0.64322 0.0
C181 C 0.86576 0.6895 0.64908 0.0
H182 H 0.75827 0.7586 0.65709 0.0
H183 H 0.50833 0.55136 0.58541 0.0
H184 H 0.52745 0.64984 0.55203 0.0
H185 H 0.63816 0.74368 0.56018 0.0
H186 H 0.73042 0.73964 0.60166 0.0
C187 C 0.78429 0.70161 0.65062 0.0
C188 C 0.7259 0.6384 0.64366 0.0
C189 C 0.67302 0.64154 0.61927 0.0
C190 C 0.60895 0.588 0.61466 0.0
C191 C 0.55695 0.59194 0.59011 0.0
C192 C 0.56762 0.64775 0.57074 0.0
C193 C 0.63 0.70054 0.57533 0.0
C194 C 0.68232 0.69775 0.59926 0.0
H195 H 0.45167 0.59127 0.64554 0.0
C196 C 0.45003 0.52851 0.64177 0.0
H197 H 0.52317 0.42681 0.63223 0.0
H198 H 0.81797 0.61441 0.69246 0.0
H199 H 0.80367 0.51078 0.72356 0.0
H200 H 0.69647 0.41402 0.71393 0.0
H201 H 0.60208 0.4214 0.67336 0.0
C202 C 0.51996 0.4895 0.63433 0.0
C203 C 0.59767 0.532 0.63457 0.0
C204 C 0.65506 0.52413 0.65741 0.0
C205 C 0.71837 0.57853 0.66241 0.0
C206 C 0.77065 0.57321 0.68687 0.0
C207 C 0.76275 0.51418 0.70509 0.0
C208 C 0.70229 0.45984 0.69973 0.0
C209 C 0.64847 0.46481 0.67634 0.0
H210 H 0.8339 0.24734 0.69011 0.0
C211 C 0.85758 0.18794 0.68803 0.0
H212 H 0.82603 1.07038 0.68363 0.0
H213 H 0.47229 1.12883 0.73725 0.0
H214 H 0.5431 1.06317 0.77464 0.0
H215 H 0.69151 1.03357 0.77179 0.0
H216 H 0.77023 1.07063 0.73168 0.0
C217 C 0.80371 1.13017 0.68512 0.0
C218 C 0.71244 0.14578 0.68583 0.0
C219 C 0.66608 1.12112 0.70879 0.0
C220 C 0.57952 1.13582 0.70991 0.0
C221 C 0.53682 1.11546 0.73434 0.0
C222 C 0.57701 1.07858 0.75623 0.0
C223 C 0.66059 1.06209 0.75466 0.0
C224 C 0.70499 1.08344 0.73141 0.0
H225 H 0.4192 1.06704 0.68842 0.0
C226 C 0.39414 1.12543 0.68731 0.0
H227 H 0.42138 0.24307 0.68611 0.0
H228 H 0.78013 0.19776 0.63772 0.0
H229 H 0.70998 0.26659 0.60101 0.0
H230 H 0.56086 0.29258 0.60305 0.0
H231 H 0.4809 0.24971 0.64175 0.0
C232 C 0.44615 0.1846 0.68728 0.0
C233 C 0.53805 0.17242 0.68734 0.0
C234 C 0.58475 0.19875 0.66472 0.0
C235 C 0.67148 0.18484 0.66379 0.0
C236 C 0.71508 0.20905 0.64019 0.0
C237 C 0.67539 0.24806 0.61875 0.0
C238 C 0.59142 0.2626 0.61988 0.0
C239 C 0.54626 0.23785 0.64236 0.0
H240 H 0.75715 0.80723 0.03636 0.0
C241 C 0.71117 0.85349 0.0402 0.0
H242 H 0.58419 0.87997 0.04373 0.0
H243 H 0.49396 0.59606 0.95542 0.0
H244 H 0.45003 0.70513 0.92915 0.0
H245 H 0.47757 0.83885 0.94864 0.0
H246 H 0.54938 0.86412 0.9944 0.0
C247 C 0.63175 0.83556 0.03971 0.0
C248 C 0.60701 0.75578 0.03005 0.0
C249 C 0.56332 0.74242 0.00353 0.0
C250 C 0.54595 0.66559 0.99258 0.0
C251 C 0.50587 0.65345 0.96532 0.0
C252 C 0.48108 0.71553 0.94984 0.0
C253 C 0.4967 0.79077 0.96079 0.0
C254 C 0.53786 0.80441 0.98718 0.0
H255 H 0.41891 0.55412 0.00224 0.0
C256 C 0.46384 0.5069 0.99851 0.0
H257 H 0.5904 0.47783 0.99532 0.0
H258 H 0.68479 0.76222 0.08301 0.0
H259 H 0.72941 0.65308 0.10912 0.0
H260 H 0.70127 0.51941 0.08972 0.0
H261 H 0.62836 0.49424 0.04416 0.0
C262 C 0.54376 0.52315 0.99925 0.0
C263 C 0.57007 0.60264 0.00866 0.0
C264 C 0.61423 0.61595 0.03509 0.0
C265 C 0.63177 0.69278 0.04602 0.0
C266 C 0.67255 0.70486 0.07315 0.0
C267 C 0.69777 0.64273 0.08853 0.0
C268 C 0.68182 0.56752 0.07763 0.0
C269 C 0.64001 0.55393 0.05137 0.0
H270 H 1.02321 0.60548 0.24927 0.0
C271 C 1.00943 0.54474 0.25039 0.0
H272 H 0.93162 0.45504 0.23275 0.0
H273 H 0.97494 0.80275 0.1848 0.0
H274 H 0.08136 0.74237 0.15281 0.0
H275 H 0.1057 0.60051 0.14902 0.0
H276 H 1.02325 0.51786 0.17711 0.0
C277 C 0.95197 0.51369 0.23191 0.0
C278 C 0.90402 0.56742 0.21452 0.0
C279 C 0.94791 0.61286 0.1966 0.0
C280 C 0.93461 0.69417 0.19911 0.0
C281 C 0.98388 0.74047 0.18336 0.0
C282 C 1.04445 0.70649 0.16513 0.0
C283 C 1.05813 0.62645 0.16296 0.0
C284 C 1.01094 0.57979 0.17885 0.0
H285 H 0.91402 0.71941 0.27442 0.0
C286 C 0.93105 0.77477 0.26722 0.0
H287 H 0.9261 0.84482 0.23179 0.0
H288 H 0.78404 0.48909 0.23815 0.0
H289 H 0.66333 0.54768 0.2633 0.0
H290 H 0.64062 0.68981 0.2678 0.0
H291 H 0.73878 0.77436 0.24722 0.0
C292 C 0.90904 0.79118 0.24015 0.0
C293 C 0.87853 0.72719 0.21974 0.0
C294 C 0.8174 0.67977 0.22931 0.0
C295 C 0.83048 0.59846 0.22673 0.0
C296 C 0.77486 0.55137 0.23946 0.0
C297 C 0.70623 0.58434 0.25382 0.0
C298 C 0.69339 0.66449 0.25635 0.0
C299 C 0.74909 0.71219 0.24452 0.0
H300 H 0.211 0.19603 0.26089 0.0
C301 C 0.15521 0.16962 0.26721 0.0
H302 H 1.04468 1.11831 0.25315 0.0
H303 H 0.17006 0.29601 0.13868 0.0
H304 H 0.16118 0.41562 0.16951 0.0
H305 H 0.12772 0.4153 0.22101 0.0
H306 H 0.10423 0.2949 0.24216 0.0
C307 C 0.09931 0.14656 0.24676 0.0
C308 C 0.11386 0.14894 0.21491 0.0
C309 C 0.124 0.22008 0.20243 0.0
C310 C 0.13919 0.22059 0.1722 0.0
C311 C 0.15438 0.29218 0.161 0.0
C312 C 0.15014 0.36142 0.17855 0.0
C313 C 0.13151 0.36121 0.20758 0.0
C314 C 0.11866 0.29161 0.21949 0.0
H315 H 1.0575 0.2167 0.11052 0.0
C316 C 0.11167 0.18346 0.1031 0.0
H317 H 0.21258 1.11398 0.11475 0.0
H318 H 0.09881 1.00202 0.23119 0.0
H319 H 0.09861 0.88322 0.19985 0.0
H320 H 0.1144 0.88503 0.14717 0.0
H321 H 0.13256 1.00563 0.12566 0.0
C322 C 0.15958 0.14869 0.12239 0.0
C323 C 0.14007 0.15026 0.154 0.0
C324 C 0.12727 1.07951 0.16636 0.0
C325 C 0.11522 1.07874 0.19671 0.0
C326 C 0.10582 1.00656 0.20829 0.0
C327 C 0.10584 0.93768 0.19053 0.0
C328 C 0.1151 0.93868 0.16091 0.0
C329 C 0.12582 1.00844 0.14886 0.0
H330 H 0.25902 0.20576 0.45285 0.0
C331 C 0.20263 0.19212 0.44096 0.0
H332 H 0.08143 0.15523 0.44373 0.0
H333 H 0.11683 0.98665 0.55833 0.0
H334 H 0.08036 0.88208 0.52293 0.0
H335 H 1.07354 0.90168 0.47098 0.0
H336 H 0.10226 1.02618 0.4541 0.0
C337 C 0.13808 0.16892 0.45545 0.0
C338 C 0.14284 0.15795 0.48734 0.0
C339 C 0.12717 1.08437 0.49702 0.0
C340 C 0.13324 1.07248 0.52705 0.0
C341 C 0.11518 0.99866 0.53585 0.0
C342 C 0.09377 0.93807 0.51576 0.0
C343 C 0.08976 0.94915 0.48652 0.0
C344 C 0.10622 1.02116 0.47713 0.0
H345 H 0.0808 0.19812 0.59652 0.0
C346 C 0.12536 0.15267 0.60079 0.0
H347 H 0.21228 1.0707 0.58323 0.0
H348 H 0.16021 0.31047 0.47793 0.0
H349 H 0.20298 0.41353 0.51298 0.0
H350 H 0.22992 0.38892 0.56384 0.0
H351 H 0.21165 0.26182 0.58013 0.0
C352 C 0.16947 1.11749 0.57881 0.0
C353 C 0.15673 1.13357 0.54766 0.0
C354 C 0.17223 0.20733 0.53804 0.0
C355 C 0.16237 0.22019 0.50814 0.0
C356 C 0.17173 0.29607 0.49984 0.0
C357 C 0.19547 0.35608 0.51983 0.0
C358 C 0.21021 0.34233 0.54849 0.0
C359 C 0.19885 0.26903 0.55761 0.0
H360 H 0.16348 1.10594 0.77609 0.0
C361 C 0.1253 0.15639 0.77219 0.0
H362 H 1.05251 0.24913 0.79082 0.0
H363 H 1.03151 1.02093 0.89747 0.0
H364 H 0.96519 0.92912 0.86288 0.0
H365 H 0.95774 0.95086 0.81111 0.0
H366 H 1.01699 1.064 0.79349 0.0
C367 C 0.08786 0.19688 0.79463 0.0
C368 C 0.0988 0.17826 0.82555 0.0
C369 C 1.06384 1.11155 0.8356 0.0
C370 C 1.06689 1.09958 0.86569 0.0
C371 C 1.03078 1.03291 0.87499 0.0
C372 C 0.99244 0.9798 0.85536 0.0
C373 C 0.98834 0.99199 0.8262 0.0
C374 C 1.02309 1.05711 0.81634 0.0
H375 H 1.01457 0.24091 0.9244 0.0
C376 C 1.04875 0.19553 0.93452 0.0
H377 H 0.12958 1.0989 0.92709 0.0
H378 H 0.17735 0.30891 0.81391 0.0
H379 H 0.24575 0.39916 0.84851 0.0
H380 H 0.25159 0.37775 0.90035 0.0
H381 H 0.18875 0.26614 0.91795 0.0
C382 C 0.09755 0.14694 0.91788 0.0
C383 C 0.10324 0.15492 0.88595 0.0
C384 C 0.14131 0.21976 0.87576 0.0
C385 C 0.13862 0.23164 0.84571 0.0
C386 C 0.17688 0.2973 0.83642 0.0
C387 C 0.21671 0.34941 0.85605 0.0
C388 C 0.21996 0.3374 0.88524 0.0
C389 C 0.1831 0.27335 0.89508 0.0
loop_
_geom_bond_atom_site_label_1
_geom_bond_atom_site_label_2
_geom_bond_distance
_geom_bond_site_symmetry_2
_ccdc_geom_bond_type
Sm0 C2 2.846 . S
Sm0 O20 2.543 1_554 S
Sm0 O21 2.450 . S
Sm0 O22 2.681 1_455 S
Sm0 O23 2.464 . S
Sm0 O24 2.396 . S
Sm0 O28 2.386 1_554 S
Sm0 O31 2.408 1_545 S
Sm1 C11 2.846 1_556 S
Sm1 O22 2.386 1_566 S
Sm1 O25 2.409 1_566 S
Sm1 O26 2.543 1_556 S
Sm1 O27 2.450 . S
Sm1 O28 2.681 1_665 S
Sm1 O29 2.464 . S
Sm1 O30 2.396 . S
C2 Sm0 2.846 . S
C2 C3 1.506 . S
C2 O20 1.261 1_554 S
C2 O21 1.242 . S
C3 C2 1.506 . S
C3 C4 1.358 1_554 S
C3 C8 1.382 . S
C4 C3 1.358 1_556 S
C4 C5 1.385 . S
C4 H32 0.930 . S
C5 C4 1.385 . S
C5 C6 1.395 1_556 S
C5 H33 0.929 . S
C6 C5 1.395 1_554 S
C6 C7 1.335 . S
C7 C6 1.335 . S
C7 C8 1.398 . S
C7 H34 0.930 . S
C8 C3 1.382 . S
C8 C7 1.398 . S
C8 H35 0.929 . S
C9 O22 1.271 1_455 S
C9 O23 1.251 . S
C10 O24 1.252 1_655 S
C10 O25 1.277 . S
C11 Sm1 2.846 1_554 S
C11 C12 1.506 . S
C11 O26 1.261 . S
C11 O27 1.242 1_554 S
C12 C11 1.506 . S
C12 C13 1.358 . S
C12 C17 1.382 1_554 S
C13 C12 1.358 . S
C13 C14 1.385 . S
C13 H36 0.930 . S
C14 C13 1.385 . S
C14 C15 1.395 . S
C14 H37 0.929 . S
C15 C14 1.395 . S
C15 C16 1.335 1_554 S
C16 C15 1.335 1_556 S
C16 C17 1.398 . S
C16 H38 0.930 . S
C17 C12 1.382 1_556 S
C17 C16 1.398 . S
C17 H39 0.929 . S
C18 O28 1.271 1_655 S
C18 O29 1.251 1_545 S
C19 O30 1.252 1_455 S
C19 O31 1.272 1_556 S
O20 Sm0 2.543 1_556 S
O20 C2 1.261 1_556 S
O21 Sm0 2.450 . S
O21 C2 1.242 . S
O22 Sm0 2.681 1_655 S
O22 Sm1 2.386 1_544 S
O22 C9 1.271 1_655 S
O23 Sm0 2.464 . S
O23 C9 1.251 . S
O24 Sm0 2.396 . S
O24 C10 1.252 1_455 S
O25 Sm1 2.409 1_544 S
O25 C10 1.277 . S
O26 Sm1 2.543 1_554 S
O26 C11 1.261 . S
O27 Sm1 2.450 . S
O27 C11 1.242 1_556 S
O28 Sm0 2.386 1_556 S
O28 Sm1 2.681 1_445 S
O28 C18 1.271 1_455 S
O29 Sm1 2.464 . S
O29 C18 1.251 1_565 S
O30 Sm1 2.396 . S
O30 C19 1.252 1_655 S
O31 Sm0 2.408 1_565 S
O31 C19 1.272 1_554 S
H32 C4 0.930 . S
H33 C5 0.929 . S
H34 C7 0.930 . S
H35 C8 0.929 . S
H36 C13 0.930 . S
H37 C14 0.929 . S
H38 C16 0.930 . S
H39 C17 0.929 . S
Sm40 C42 2.846 . S
Sm40 O60 2.543 . S
Sm40 O61 2.450 . S
Sm40 O62 2.681 . S
Sm40 O63 2.464 . S
Sm40 O64 2.396 1_455 S
Sm40 O68 2.386 . S
Sm40 O71 2.408 . S
Sm41 C51 2.846 1_655 S
Sm41 O62 2.386 1_665 S
Sm41 O65 2.408 . S
Sm41 O66 2.543 1_655 S
Sm41 O67 2.450 1_655 S
Sm41 O68 2.681 1_665 S
Sm41 O69 2.464 1_655 S
Sm41 O70 2.396 1_655 S
C42 Sm40 2.846 . S
C42 C43 1.506 1_455 S
C42 O60 1.261 . S
C42 O61 1.242 . S
C43 C42 1.506 1_655 S
C43 C44 1.358 . S
C43 C48 1.382 1_655 S
C44 C43 1.358 . S
C44 C45 1.385 . S
C44 H72 0.930 . S
C45 C44 1.385 . S
C45 C46 1.395 . S
C45 H73 0.929 . S
C46 C45 1.395 . S
C46 C47 1.335 . S
C47 C46 1.335 . S
C47 C48 1.398 1_655 S
C47 H74 0.930 . S
C48 C43 1.382 1_455 S
C48 C47 1.398 1_455 S
C48 H75 0.929 . S
C49 O62 1.271 . S
C49 O63 1.251 . S
C50 O64 1.252 . S
C50 O65 1.272 1_545 S
C51 Sm41 2.846 1_455 S
C51 C52 1.506 . S
C51 O66 1.261 . S
C51 O67 1.242 . S
C52 C51 1.506 . S
C52 C53 1.358 . S
C52 C57 1.382 . S
C53 C52 1.358 . S
C53 C54 1.385 . S
C53 H76 0.930 . S
C54 C53 1.385 . S
C54 C55 1.395 . S
C54 H77 0.929 . S
C55 C54 1.395 . S
C55 C56 1.335 . S
C56 C55 1.335 . S
C56 C57 1.398 . S
C56 H78 0.930 . S
C57 C52 1.382 . S
C57 C56 1.398 . S
C57 H79 0.929 . S
C58 O68 1.271 . S
C58 O69 1.251 1_545 S
C59 O70 1.252 1_545 S
C59 O71 1.272 . S
O60 Sm40 2.543 . S
O60 C42 1.261 . S
O61 Sm40 2.450 . S
O61 C42 1.242 . S
O62 Sm40 2.681 . S
O62 Sm41 2.386 1_445 S
O62 C49 1.271 . S
O63 Sm40 2.464 . S
O63 C49 1.251 . S
O64 Sm40 2.396 1_655 S
O64 C50 1.252 . S
O65 Sm41 2.408 . S
O65 C50 1.272 1_565 S
O66 Sm41 2.543 1_455 S
O66 C51 1.261 . S
O67 Sm41 2.450 1_455 S
O67 C51 1.242 . S
O68 Sm40 2.386 . S
O68 Sm41 2.681 1_445 S
O68 C58 1.271 . S
O69 Sm41 2.464 1_455 S
O69 C58 1.251 1_565 S
O70 Sm41 2.396 1_455 S
O70 C59 1.252 1_565 S
O71 Sm40 2.408 . S
O71 C59 1.272 . S
H72 C44 0.930 . S
H73 C45 0.929 . S
H74 C47 0.930 . S
H75 C48 0.929 . S
H76 C53 0.930 . S
H77 C54 0.929 . S
H78 C56 0.930 . S
H79 C57 0.929 . S
Sm80 C82 2.846 1_455 S
Sm80 O100 2.543 1_455 S
Sm80 O101 2.450 1_455 S
Sm80 O102 2.681 1_565 S
Sm80 O103 2.464 . S
Sm80 O104 2.396 1_455 S
Sm80 O108 2.386 . S
Sm80 O111 2.408 . S
Sm81 C91 2.846 . S
Sm81 O102 2.386 . S
Sm81 O105 2.408 1_455 S
Sm81 O106 2.543 . S
Sm81 O107 2.450 . S
Sm81 O108 2.681 1_545 S
Sm81 O109 2.464 . S
Sm81 O110 2.396 . S
C82 Sm80 2.846 1_655 S
C82 C83 1.506 . S
C82 O100 1.261 . S
C82 O101 1.242 . S
C83 C82 1.506 . S
C83 C84 1.358 . S
C83 C88 1.382 . S
C84 C83 1.358 . S
C84 C85 1.385 . S
C84 H112 0.930 . S
C85 C84 1.385 . S
C85 C86 1.395 . S
C85 H113 0.929 . S
C86 C85 1.395 . S
C86 C87 1.335 . S
C87 C86 1.335 . S
C87 C88 1.398 . S
C87 H114 0.930 . S
C88 C83 1.382 . S
C88 C87 1.398 . S
C88 H115 0.929 . S
C89 O102 1.271 1_565 S
C89 O103 1.251 . S
C90 O104 1.252 1_545 S
C90 O105 1.272 . S
C91 Sm81 2.846 . S
C91 C92 1.506 . S
C91 O106 1.261 . S
C91 O107 1.242 . S
C92 C91 1.506 . S
C92 C93 1.358 . S
C92 C97 1.382 . S
C93 C92 1.358 . S
C93 C94 1.385 . S
C93 H116 0.930 . S
C94 C93 1.385 . S
C94 C95 1.395 . S
C94 H117 0.929 . S
C95 C94 1.395 . S
C95 C96 1.335 . S
C96 C95 1.335 . S
C96 C97 1.398 . S
C96 H118 0.930 . S
C97 C92 1.382 . S
C97 C96 1.398 . S
C97 H119 0.929 . S
C98 O108 1.271 1_545 S
C98 O109 1.251 . S
C99 O110 1.252 . S
C99 O111 1.272 1_545 S
O100 Sm80 2.543 1_655 S
O100 C82 1.261 . S
O101 Sm80 2.450 1_655 S
O101 C82 1.242 . S
O102 Sm80 2.681 1_545 S
O102 Sm81 2.386 . S
O102 C89 1.271 1_545 S
O103 Sm80 2.464 . S
O103 C89 1.251 . S
O104 Sm80 2.396 1_655 S
O104 C90 1.252 1_565 S
O105 Sm81 2.408 1_655 S
O105 C90 1.272 . S
O106 Sm81 2.543 . S
O106 C91 1.261 . S
O107 Sm81 2.450 . S
O107 C91 1.242 . S
O108 Sm80 2.386 . S
O108 Sm81 2.681 1_565 S
O108 C98 1.271 1_565 S
O109 Sm81 2.464 . S
O109 C98 1.251 . S
O110 Sm81 2.396 . S
O110 C99 1.252 . S
O111 Sm80 2.408 . S
O111 C99 1.272 1_565 S
H112 C84 0.930 . S
H113 C85 0.929 . S
H114 C87 0.930 . S
H115 C88 0.929 . S
H116 C93 0.930 . S
H117 C94 0.929 . S
H118 C96 0.930 . S
H119 C97 0.929 . S
H120 C121 0.951 . S
C121 H120 0.951 . S
C121 C127 1.265 1_655 S
H122 C127 0.952 . S
H123 C131 0.949 . S
H124 C132 0.950 . S
H125 C133 0.951 . S
H126 C134 0.951 . S
C127 C121 1.265 1_455 S
C127 H122 0.952 . S
C127 C128 1.478 . S
C128 C127 1.478 . S
C128 C129 1.397 1_554 S
C128 C145 1.394 1_455 S
C129 C128 1.397 1_556 S
C129 C130 1.438 . S
C129 C134 1.429 . S
C130 C129 1.438 . S
C130 C131 1.428 . S
C130 C143 1.394 1_456 S
C131 H123 0.949 . S
C131 C130 1.428 . S
C131 C132 1.345 . S
C132 H124 0.950 . S
C132 C131 1.345 . S
C132 C133 1.424 . S
C133 H125 0.951 . S
C133 C132 1.424 . S
C133 C134 1.347 . S
C134 H126 0.951 . S
C134 C129 1.429 . S
C134 C133 1.347 . S
H135 C136 0.951 . S
C136 H135 0.951 . S
C136 C142 1.265 1_455 S
H137 C142 0.950 . S
H138 C146 0.949 . S
H139 C147 0.950 . S
H140 C148 0.951 . S
H141 C149 0.951 . S
C142 C136 1.265 1_655 S
C142 H137 0.950 . S
C142 C143 1.478 . S
C143 C130 1.394 1_654 S
C143 C142 1.478 . S
C143 C144 1.397 . S
C144 C143 1.397 . S
C144 C145 1.438 . S
C144 C149 1.429 . S
C145 C128 1.394 1_655 S
C145 C144 1.438 . S
C145 C146 1.428 . S
C146 H138 0.949 . S
C146 C145 1.428 . S
C146 C147 1.345 . S
C147 H139 0.950 . S
C147 C146 1.345 . S
C147 C148 1.424 . S
C148 H140 0.951 . S
C148 C147 1.424 . S
C148 C149 1.347 . S
C149 H141 0.951 . S
C149 C144 1.429 . S
C149 C148 1.347 . S
H150 C151 0.951 1_565 S
C151 H150 0.951 1_545 S
C151 C157 1.265 . S
H152 C157 0.950 . S
H153 C161 0.949 . S
H154 C162 0.950 . S
H155 C163 0.951 . S
H156 C164 0.951 . S
C157 C151 1.265 . S
C157 H152 0.950 . S
C157 C158 1.478 . S
C158 C157 1.478 . S
C158 C159 1.397 . S
C158 C175 1.394 1_545 S
C159 C158 1.397 . S
C159 C160 1.438 . S
C159 C164 1.429 . S
C160 C159 1.438 . S
C160 C161 1.428 . S
C160 C173 1.394 . S
C161 H153 0.949 . S
C161 C160 1.428 . S
C161 C162 1.345 . S
C162 H154 0.950 . S
C162 C161 1.345 . S
C162 C163 1.424 . S
C163 H155 0.951 . S
C163 C162 1.424 . S
C163 C164 1.347 . S
C164 H156 0.951 . S
C164 C159 1.429 . S
C164 C163 1.347 . S
H165 C166 0.951 . S
C166 H165 0.951 . S
C166 C172 1.265 . S
H167 C172 0.950 1_565 S
H168 C176 0.949 . S
H169 C177 0.950 . S
H170 C178 0.951 . S
H171 C179 0.951 . S
C172 C166 1.265 . S
C172 H167 0.950 1_545 S
C172 C173 1.478 . S
C173 C160 1.394 . S
C173 C172 1.478 . S
C173 C174 1.397 1_545 S
C174 C173 1.397 1_565 S
C174 C175 1.438 . S
C174 C179 1.429 . S
C175 C158 1.394 1_565 S
C175 C174 1.438 . S
C175 C176 1.428 . S
C176 H168 0.949 . S
C176 C175 1.428 . S
C176 C177 1.345 . S
C177 H169 0.950 . S
C177 C176 1.345 . S
C177 C178 1.424 . S
C178 H170 0.951 . S
C178 C177 1.424 . S
C178 C179 1.347 . S
C179 H171 0.951 . S
C179 C174 1.429 . S
C179 C178 1.347 . S
H180 C181 0.951 . S
C181 H180 0.951 . S
C181 C187 1.265 . S
H182 C187 0.950 . S
H183 C191 0.949 . S
H184 C192 0.950 . S
H185 C193 0.951 . S
H186 C194 0.951 . S
C187 C181 1.265 . S
C187 H182 0.950 . S
C187 C188 1.478 . S
C188 C187 1.478 . S
C188 C189 1.397 . S
C188 C205 1.394 . S
C189 C188 1.397 . S
C189 C190 1.438 . S
C189 C194 1.429 . S
C190 C189 1.438 . S
C190 C191 1.428 . S
C190 C203 1.394 . S
C191 H183 0.949 . S
C191 C190 1.428 . S
C191 C192 1.345 . S
C192 H184 0.950 . S
C192 C191 1.345 . S
C192 C193 1.424 . S
C193 H185 0.951 . S
C193 C192 1.424 . S
C193 C194 1.347 . S
C194 H186 0.951 . S
C194 C189 1.429 . S
C194 C193 1.347 . S
H195 C196 0.951 . S
C196 H195 0.951 . S
C196 C202 1.265 . S
H197 C202 0.950 . S
H198 C206 0.949 . S
H199 C207 0.950 . S
H200 C208 0.951 . S
H201 C209 0.951 . S
C202 C196 1.265 . S
C202 H197 0.950 . S
C202 C203 1.478 . S
C203 C190 1.394 . S
C203 C202 1.478 . S
C203 C204 1.397 . S
C204 C203 1.397 . S
C204 C205 1.438 . S
C204 C209 1.429 . S
C205 C188 1.394 . S
C205 C204 1.438 . S
C205 C206 1.428 . S
C206 H198 0.949 . S
C206 C205 1.428 . S
C206 C207 1.345 . S
C207 H199 0.950 . S
C207 C206 1.345 . S
C207 C208 1.424 . S
C208 H200 0.951 . S
C208 C207 1.424 . S
C208 C209 1.347 . S
C209 H201 0.951 . S
C209 C204 1.429 . S
C209 C208 1.347 . S
H210 C211 0.951 . S
C211 H210 0.951 . S
C211 C217 1.265 1_545 S
H212 C217 0.950 . S
H213 C221 0.949 . S
H214 C222 0.950 . S
H215 C223 0.951 . S
H216 C224 0.951 . S
C217 C211 1.265 1_565 S
C217 H212 0.950 . S
C217 C218 1.478 . S
C218 C217 1.478 . S
C218 C219 1.397 . S
C218 C235 1.394 1_565 S
C219 C218 1.397 . S
C219 C220 1.438 1_565 S
C219 C224 1.429 . S
C220 C219 1.438 1_545 S
C220 C221 1.428 . S
C220 C233 1.394 . S
C221 H213 0.949 . S
C221 C220 1.428 . S
C221 C222 1.345 1_545 S
C222 H214 0.950 . S
C222 C221 1.345 1_565 S
C222 C223 1.424 . S
C223 H215 0.951 . S
C223 C222 1.424 . S
C223 C224 1.347 . S
C224 H216 0.951 . S
C224 C219 1.429 . S
C224 C223 1.347 . S
H225 C226 0.951 1_565 S
C226 H225 0.951 1_545 S
C226 C232 1.265 . S
H227 C232 0.950 . S
H228 C236 0.949 . S
H229 C237 0.950 . S
H230 C238 0.951 . S
H231 C239 0.951 . S
C232 C226 1.265 . S
C232 H227 0.950 . S
C232 C233 1.478 . S
C233 C220 1.394 . S
C233 C232 1.478 . S
C233 C234 1.397 . S
C234 C233 1.397 . S
C234 C235 1.438 . S
C234 C239 1.429 . S
C235 C218 1.394 1_545 S
C235 C234 1.438 . S
C235 C236 1.428 . S
C236 H228 0.949 . S
C236 C235 1.428 . S
C236 C237 1.345 . S
C237 H229 0.950 . S
C237 C236 1.345 . S
C237 C238 1.424 . S
C238 H230 0.951 . S
C238 C237 1.424 . S
C238 C239 1.347 . S
C239 H231 0.951 . S
C239 C234 1.429 . S
C239 C238 1.347 . S
H240 C241 0.951 1_556 S
C241 H240 0.951 1_554 S
C241 C247 1.265 . S
H242 C247 0.950 . S
H243 C251 0.949 . S
H244 C252 0.950 . S
H245 C253 0.951 . S
H246 C254 0.951 . S
C247 C241 1.265 . S
C247 H242 0.950 . S
C247 C248 1.478 . S
C248 C247 1.478 . S
C248 C249 1.397 1_554 S
C248 C265 1.394 . S
C249 C248 1.397 1_556 S
C249 C250 1.438 . S
C249 C254 1.429 . S
C250 C249 1.438 . S
C250 C251 1.428 . S
C250 C263 1.389 1_556 S
C251 H243 0.949 . S
C251 C250 1.428 . S
C251 C252 1.345 . S
C252 H244 0.950 . S
C252 C251 1.345 . S
C252 C253 1.424 . S
C253 H245 0.951 . S
C253 C252 1.424 . S
C253 C254 1.347 . S
C254 H246 0.951 . S
C254 C249 1.429 . S
C254 C253 1.347 . S
H255 C256 0.951 . S
C256 H255 0.951 . S
C256 C262 1.265 1_554 S
H257 C262 0.950 . S
H258 C266 0.949 . S
H259 C267 0.950 . S
H260 C268 0.951 . S
H261 C269 0.951 . S
C262 C256 1.265 1_556 S
C262 H257 0.950 . S
C262 C263 1.478 1_556 S
C263 C250 1.389 1_554 S
C263 C262 1.478 1_554 S
C263 C264 1.401 . S
C264 C263 1.401 . S
C264 C265 1.438 . S
C264 C269 1.429 . S
C265 C248 1.394 . S
C265 C264 1.438 . S
C265 C266 1.428 . S
C266 H258 0.949 . S
C266 C265 1.428 . S
C266 C267 1.345 . S
C267 H259 0.950 . S
C267 C266 1.345 . S
C267 C268 1.424 . S
C268 H260 0.951 . S
C268 C267 1.424 . S
C268 C269 1.347 . S
C269 H261 0.951 . S
C269 C264 1.429 . S
C269 C268 1.347 . S
H270 C271 0.951 . S
C271 H270 0.951 . S
C271 C277 1.265 . S
H272 C277 0.950 . S
H273 C281 0.949 . S
H274 C282 0.950 . S
H275 C283 0.951 . S
H276 C284 0.951 1_655 S
C277 C271 1.265 . S
C277 H272 0.950 . S
C277 C278 1.478 . S
C278 C277 1.478 . S
C278 C279 1.397 1_655 S
C278 C295 1.394 1_655 S
C279 C278 1.397 1_455 S
C279 C280 1.438 . S
C279 C284 1.429 . S
C280 C279 1.438 . S
C280 C281 1.428 . S
C280 C293 1.394 . S
C281 H273 0.949 . S
C281 C280 1.428 . S
C281 C282 1.345 . S
C282 H274 0.950 . S
C282 C281 1.345 . S
C282 C283 1.424 . S
C283 H275 0.951 . S
C283 C282 1.424 . S
C283 C284 1.347 . S
C284 H276 0.951 1_455 S
C284 C279 1.429 . S
C284 C283 1.347 . S
H285 C286 0.951 . S
C286 H285 0.951 . S
C286 C292 1.265 . S
H287 C292 0.950 . S
H288 C296 0.949 . S
H289 C297 0.950 . S
H290 C298 0.951 . S
H291 C299 0.951 . S
C292 C286 1.265 . S
C292 H287 0.950 . S
C292 C293 1.478 . S
C293 C280 1.394 . S
C293 C292 1.478 . S
C293 C294 1.397 . S
C294 C293 1.397 . S
C294 C295 1.438 . S
C294 C299 1.429 . S
C295 C278 1.394 1_455 S
C295 C294 1.438 . S
C295 C296 1.428 1_455 S
C296 H288 0.949 . S
C296 C295 1.428 1_655 S
C296 C297 1.345 . S
C297 H289 0.950 . S
C297 C296 1.345 . S
C297 C298 1.424 1_655 S
C298 H290 0.951 . S
C298 C297 1.424 1_455 S
C298 C299 1.347 . S
C299 H291 0.951 . S
C299 C294 1.429 . S
C299 C298 1.347 . S
H300 C301 0.951 . S
C301 H300 0.951 . S
C301 C307 1.265 1_455 S
H302 C307 0.950 . S
H303 C311 0.949 . S
H304 C312 0.950 . S
H305 C313 0.951 . S
H306 C314 0.952 . S
C307 C301 1.265 1_655 S
C307 H302 0.950 . S
C307 C308 1.478 1_655 S
C308 C307 1.478 1_455 S
C308 C309 1.397 . S
C308 C325 1.394 1_545 S
C309 C308 1.397 . S
C309 C310 1.438 . S
C309 C314 1.429 . S
C310 C309 1.438 . S
C310 C311 1.428 . S
C310 C323 1.394 . S
C311 H303 0.949 . S
C311 C310 1.428 . S
C311 C312 1.345 . S
C312 H304 0.950 . S
C312 C311 1.345 . S
C312 C313 1.424 . S
C313 H305 0.951 . S
C313 C312 1.424 . S
C313 C314 1.347 . S
C314 H306 0.952 . S
C314 C309 1.429 . S
C314 C313 1.347 . S
H315 C316 0.951 . S
C316 H315 0.951 . S
C316 C322 1.265 1_655 S
H317 C322 0.950 . S
H318 C326 0.949 1_655 S
H319 C327 0.950 . S
H320 C328 0.951 . S
H321 C329 0.951 . S
C322 C316 1.265 1_455 S
C322 H317 0.950 . S
C322 C323 1.478 . S
C323 C310 1.394 . S
C323 C322 1.478 . S
C323 C324 1.397 1_545 S
C324 C323 1.397 1_565 S
C324 C325 1.438 . S
C324 C329 1.429 . S
C325 C308 1.394 1_565 S
C325 C324 1.438 . S
C325 C326 1.428 . S
C326 H318 0.949 1_455 S
C326 C325 1.428 . S
C326 C327 1.345 . S
C327 H319 0.950 . S
C327 C326 1.345 . S
C327 C328 1.424 . S
C328 H320 0.951 . S
C328 C327 1.424 . S
C328 C329 1.347 . S
C329 H321 0.951 . S
C329 C324 1.429 . S
C329 C328 1.347 . S
H330 C331 0.951 . S
C331 H330 0.951 . S
C331 C337 1.265 . S
H332 C337 0.950 1_655 S
H333 C341 0.949 . S
H334 C342 0.950 . S
H335 C343 0.951 . S
H336 C344 0.951 . S
C337 C331 1.265 . S
C337 H332 0.950 1_455 S
C337 C338 1.478 . S
C338 C337 1.478 . S
C338 C339 1.397 1_445 S
C338 C355 1.394 . S
C339 C338 1.397 1_665 S
C339 C340 1.438 1_655 S
C339 C344 1.429 . S
C340 C339 1.438 1_455 S
C340 C341 1.428 1_455 S
C340 C353 1.394 1_565 S
C341 H333 0.949 . S
C341 C340 1.428 1_655 S
C341 C342 1.345 . S
C342 H334 0.950 . S
C342 C341 1.345 . S
C342 C343 1.424 . S
C343 H335 0.951 . S
C343 C342 1.424 . S
C343 C344 1.347 . S
C344 H336 0.951 . S
C344 C339 1.429 . S
C344 C343 1.347 . S
H345 C346 0.951 1_655 S
C346 H345 0.951 1_455 S
C346 C352 1.265 . S
H347 C352 0.950 . S
H348 C356 0.949 . S
H349 C357 0.950 . S
H350 C358 0.951 . S
H351 C359 0.951 . S
C352 C346 1.265 . S
C352 H347 0.950 . S
C352 C353 1.478 . S
C353 C340 1.394 1_545 S
C353 C352 1.478 . S
C353 C354 1.397 . S
C354 C353 1.397 . S
C354 C355 1.438 . S
C354 C359 1.429 . S
C355 C338 1.394 . S
C355 C354 1.438 . S
C355 C356 1.428 . S
C356 H348 0.949 . S
C356 C355 1.428 . S
C356 C357 1.345 . S
C357 H349 0.950 . S
C357 C356 1.345 . S
C357 C358 1.424 . S
C358 H350 0.951 . S
C358 C357 1.424 . S
C358 C359 1.347 . S
C359 H351 0.951 . S
C359 C354 1.429 . S
C359 C358 1.347 . S
H360 C361 0.951 . S
C361 H360 0.951 . S
C361 C367 1.265 1_455 S
H362 C367 0.950 . S
H363 C371 0.949 . S
H364 C372 0.950 . S
H365 C373 0.951 . S
H366 C374 0.951 . S
C367 C361 1.265 1_655 S
C367 H362 0.950 . S
C367 C368 1.478 1_655 S
C368 C367 1.478 1_455 S
C368 C369 1.397 1_445 S
C368 C385 1.394 . S
C369 C368 1.397 1_665 S
C369 C370 1.438 . S
C369 C374 1.429 . S
C370 C369 1.438 . S
C370 C371 1.428 . S
C370 C383 1.394 1_665 S
C371 H363 0.949 . S
C371 C370 1.428 . S
C371 C372 1.345 . S
C372 H364 0.950 . S
C372 C371 1.345 . S
C372 C373 1.424 . S
C373 H365 0.951 . S
C373 C372 1.424 . S
C373 C374 1.347 . S
C374 H366 0.951 . S
C374 C369 1.429 . S
C374 C373 1.347 . S
H375 C376 0.951 1_655 S
C376 H375 0.951 1_455 S
C376 C382 1.265 . S
H377 C382 0.950 . S
H378 C386 0.949 . S
H379 C387 0.950 . S
H380 C388 0.951 . S
H381 C389 0.951 . S
C382 C376 1.265 . S
C382 H377 0.950 . S
C382 C383 1.478 . S
C383 C370 1.394 1_445 S
C383 C382 1.478 . S
C383 C384 1.397 . S
C384 C383 1.397 . S
C384 C385 1.438 . S
C384 C389 1.429 . S
C385 C368 1.394 . S
C385 C384 1.438 . S
C385 C386 1.428 . S
C386 H378 0.949 . S
C386 C385 1.428 . S
C386 C387 1.345 . S
C387 H379 0.950 . S
C387 C386 1.345 . S
C387 C388 1.424 . S
C388 H380 0.951 . S
C388 C387 1.424 . S
C388 C389 1.347 . S
C389 H381 0.951 . S
C389 C384 1.429 . S
C389 C388 1.347 . S
C121 C10 4.855 . S
C136 C19 4.855 1_554 S
C151 C59 3.050 . S
C166 C50 3.050 . S
C181 C86 0.537 . S
C196 C95 0.537 . S
C211 C90 2.962 . S
C226 C99 2.962 . S
C241 C15 0.602 . S
C256 C6 0.602 . S
C271 C46 0.960 . S
C286 C55 0.960 . S
C301 C58 1.447 . S
C316 C9 1.481 1_655 S
C331 C49 1.454 . S
C346 C89 1.457 1_545 S
C361 C98 1.452 . S
C376 C18 1.423 1_455 S
