# Generated by pormake.
# Topology mdf, (4)-cn, num edge types: 1
# Building blocks:
#     Node 0, Type 0, BuildingBlock: GALJAG_clean_sbu_0, # of connection points: 4
#     Node 1, Type 0, BuildingBlock: GALJAG_clean_sbu_0, # of connection points: 4
#     Node 2, Type 0, BuildingBlock: GALJAG_clean_sbu_0, # of connection points: 4
#     Node 3, Type 0, BuildingBlock: GALJAG_clean_sbu_0, # of connection points: 4
#     Node 4, Type 0, BuildingBlock: GALJAG_clean_sbu_0, # of connection points: 4
#     Node 5, Type 0, BuildingBlock: GALJAG_clean_sbu_0, # of connection points: 4
#     Node 6, Type 0, BuildingBlock: GALJAG_clean_sbu_0, # of connection points: 4
#     Node 7, Type 0, BuildingBlock: GALJAG_clean_sbu_0, # of connection points: 4
#     Edge 8, Type (0, 0), BuildingBlock: KIFKEQ_clean_linker_1, # of connection points: 2
#     Edge 9, Type (0, 0), BuildingBlock: KIFKEQ_clean_linker_1, # of connection points: 2
#     Edge 10, Type (0, 0), BuildingBlock: KIFKEQ_clean_linker_1, # of connection points: 2
#     Edge 11, Type (0, 0), BuildingBlock: KIFKEQ_clean_linker_1, # of connection points: 2
#     Edge 12, Type (0, 0), BuildingBlock: KIFKEQ_clean_linker_1, # of connection points: 2
#     Edge 13, Type (0, 0), BuildingBlock: KIFKEQ_clean_linker_1, # of connection points: 2
#     Edge 14, Type (0, 0), BuildingBlock: KIFKEQ_clean_linker_1, # of connection points: 2
#     Edge 15, Type (0, 0), BuildingBlock: KIFKEQ_clean_linker_1, # of connection points: 2
#     Edge 16, Type (0, 0), BuildingBlock: KIFKEQ_clean_linker_1, # of connection points: 2
#     Edge 17, Type (0, 0), BuildingBlock: KIFKEQ_clean_linker_1, # of connection points: 2
#     Edge 18, Type (0, 0), BuildingBlock: KIFKEQ_clean_linker_1, # of connection points: 2
#     Edge 19, Type (0, 0), BuildingBlock: KIFKEQ_clean_linker_1, # of connection points: 2
#     Edge 20, Type (0, 0), BuildingBlock: KIFKEQ_clean_linker_1, # of connection points: 2
#     Edge 21, Type (0, 0), BuildingBlock: KIFKEQ_clean_linker_1, # of connection points: 2
#     Edge 22, Type (0, 0), BuildingBlock: KIFKEQ_clean_linker_1, # of connection points: 2
#     Edge 23, Type (0, 0), BuildingBlock: KIFKEQ_clean_linker_1, # of connection points: 2
# Relax obj value: 0.054
# Max RMSD: 0.086
# Mean RMSD: 0.086
data_MOF--net-mdf--node1-GALJAG_clean_sbu_0--edge1-KIFKEQ_clean_linker_1
_symmetry_space_group_name_H-M    P1
_symmetry_Int_Tables_number       1
_symmetry_cell_setting            triclinic
loop_
_symmetry_equiv_pos_as_xyz
'x, y, z'
_cell_length_a     39.913568
_cell_length_b     39.906679
_cell_length_c     10.976856
_cell_angle_alpha  90.212017
_cell_angle_beta   90.213644
_cell_angle_gamma 89.960117
loop_
_atom_site_label
_atom_site_type_symbol
_atom_site_fract_x
_atom_site_fract_y
_atom_site_fract_z
_atom_type_partial_charge
In0 In 0.24861 0.51794 0.36578 0.0
O1 O 0.25972 0.5454 0.18742 0.0
O2 O 0.28984 0.55599 0.34349 0.0
C3 C 0.19902 0.47443 0.3154 0.0
C4 C 0.29734 0.47375 0.41965 0.0
C5 C 0.21371 0.56246 0.49812 0.0
O6 O 0.21547 0.48875 0.23207 0.0
O7 O 0.20762 0.48219 0.4226 0.0
O8 O 0.23596 0.54395 0.54557 0.0
O9 O 0.20934 0.55833 0.38509 0.0
C10 C 0.2838 0.56193 0.23284 0.0
O11 O 0.28555 0.49359 0.4989 0.0
O12 O 0.28432 0.4762 0.31519 0.0
In13 In 0.48022 0.75028 0.6318 0.0
O14 O 0.45223 0.73888 0.80847 0.0
O15 O 0.44242 0.70868 0.65179 0.0
C16 C 0.52292 0.80046 0.68288 0.0
C17 C 0.52553 0.70227 0.5819 0.0
C18 C 0.4358 0.78495 0.49836 0.0
O19 O 0.50854 0.784 0.76608 0.0
O20 O 0.51564 0.79155 0.5756 0.0
O21 O 0.45448 0.76278 0.45125 0.0
O22 O 0.43964 0.78925 0.61154 0.0
C23 C 0.43603 0.71468 0.76217 0.0
O24 O 0.50621 0.71392 0.50065 0.0
O25 O 0.52189 0.71498 0.68639 0.0
In26 In 0.24883 0.97862 0.87182 0.0
O27 O 0.26056 0.95267 0.05242 0.0
O28 O 0.29217 0.94313 0.8998 0.0
C29 C 0.19664 0.01949 0.91728 0.0
C30 C 0.29648 0.02444 0.8268 0.0
C31 C 0.21797 0.93264 0.73178 0.0
O32 O 0.21016 0.00215 0.00036 0.0
O33 O 0.20934 0.01585 0.81307 0.0
O34 O 0.2354 0.9559 0.6864 0.0
O35 O 0.21634 0.93275 0.84646 0.0
C36 C 0.28579 0.93731 0.01026 0.0
O37 O 0.28678 0.00374 0.74648 0.0
O38 O 0.28207 0.0219 0.92851 0.0
In39 In 0.01861 0.74938 0.11725 0.0
O40 O 0.99143 0.71457 0.24875 0.0
O41 O 0.98095 0.71008 0.05868 0.0
C42 C 0.06451 0.78212 0.25173 0.0
C43 C 0.06163 0.71352 0.98255 0.0
C44 C 0.97507 0.79936 0.07042 0.0
O45 O 0.04373 0.76215 0.29918 0.0
O46 O 0.06184 0.78548 0.13794 0.0
O47 O 0.99324 0.78677 0.98781 0.0
O48 O 0.97907 0.78674 0.17451 0.0
C49 C 0.97523 0.69976 0.16514 0.0
O50 O 0.04461 0.73728 0.93737 0.0
O51 O 0.05667 0.7081 0.09432 0.0
In52 In 0.7493 0.02025 0.87919 0.0
O53 O 0.75974 0.04771 0.70068 0.0
O54 O 0.79028 0.0586 0.85553 0.0
C55 C 0.69947 0.97685 0.83176 0.0
C56 C 0.79815 0.97564 0.92664 0.0
C57 C 0.71437 0.06442 0.01286 0.0
O58 O 0.7151 0.99168 0.74753 0.0
O59 O 0.70904 0.98401 0.93843 0.0
O60 O 0.73684 0.04606 0.05982 0.0
O61 O 0.70998 0.06041 0.8998 0.0
C62 C 0.78385 0.06442 0.74501 0.0
O63 O 0.78696 0.99517 0.00809 0.0
O64 O 0.78457 0.97872 0.82334 0.0
In65 In 0.97928 0.24759 0.11984 0.0
O66 O 0.95219 0.23761 0.2997 0.0
O67 O 0.9404 0.20724 0.14539 0.0
C68 C 0.02344 0.29687 0.16642 0.0
C69 C 0.02282 0.19796 0.06985 0.0
C70 C 0.93521 0.2828 0.98662 0.0
O71 O 0.00853 0.28141 0.25087 0.0
O72 O 0.01602 0.28737 0.05987 0.0
O73 O 0.95297 0.25981 0.93996 0.0
O74 O 0.93982 0.28765 0.09913 0.0
C75 C 0.935 0.21374 0.25609 0.0
O76 O 0.00323 0.2096 0.98949 0.0
O77 O 0.02043 0.21155 0.17337 0.0
In78 In 0.7499 0.48089 0.37353 0.0
O79 O 0.76267 0.45488 0.55261 0.0
O80 O 0.79003 0.44139 0.39287 0.0
C81 C 0.70151 0.52577 0.42542 0.0
C82 C 0.80016 0.52315 0.3215 0.0
C83 C 0.71505 0.43588 0.24208 0.0
O84 O 0.71377 0.50679 0.50626 0.0
O85 O 0.71367 0.5219 0.32055 0.0
O86 O 0.73566 0.45573 0.19303 0.0
O87 O 0.7121 0.43906 0.35584 0.0
C88 C 0.78539 0.43689 0.5054 0.0
O89 O 0.78395 0.50792 0.23889 0.0
O90 O 0.79099 0.51693 0.42898 0.0
In91 In 0.51734 0.24929 0.6337 0.0
O92 O 0.49246 0.2114 0.76011 0.0
O93 O 0.47465 0.21531 0.57737 0.0
C94 C 0.56278 0.28133 0.7724 0.0
C95 C 0.55936 0.21256 0.49737 0.0
C96 C 0.47583 0.30074 0.58496 0.0
O97 O 0.53971 0.26385 0.81869 0.0
O98 O 0.56275 0.28242 0.65765 0.0
O99 O 0.49344 0.28712 0.50287 0.0
O100 O 0.47951 0.2885 0.6899 0.0
C101 C 0.47205 0.2012 0.67962 0.0
O102 O 0.54367 0.23745 0.45412 0.0
O103 O 0.55347 0.20634 0.60792 0.0
H104 H 0.4026 0.65949 0.68247 0.0
H105 H 0.41424 0.72428 0.99592 0.0
H106 H 0.36386 0.62453 0.79553 0.0
H107 H 0.37455 0.68973 0.10866 0.0
H108 H 0.33851 0.59615 0.31187 0.0
H109 H 0.37321 0.63488 0.19796 0.0
H110 H 0.30877 0.62237 0.88364 0.0
H111 H 0.27443 0.58266 0.99744 0.0
C112 C 0.39662 0.66643 0.77537 0.0
C113 C 0.41162 0.69448 0.83075 0.0
C114 C 0.37416 0.64653 0.83987 0.0
C115 C 0.36606 0.65429 0.96117 0.0
C116 C 0.38061 0.68278 0.01585 0.0
C117 C 0.40324 0.70265 0.95131 0.0
C118 C 0.33166 0.60172 0.21852 0.0
C119 C 0.30387 0.58624 0.16324 0.0
C120 C 0.35142 0.62417 0.1535 0.0
C121 C 0.34378 0.6318 0.03171 0.0
C122 C 0.3156 0.6167 0.9769 0.0
C123 C 0.29585 0.59407 0.04203 0.0
H124 H 0.41901 0.77828 0.25752 0.0
H125 H 0.39859 0.83753 0.57897 0.0
H126 H 0.38056 0.81335 0.14016 0.0
H127 H 0.36114 0.87313 0.46155 0.0
H128 H 0.34394 0.9073 0.94262 0.0
H129 H 0.37855 0.86908 0.06053 0.0
H130 H 0.30821 0.87525 0.35841 0.0
H131 H 0.27403 0.9145 0.24106 0.0
C132 C 0.40633 0.79881 0.30294 0.0
C133 C 0.41186 0.80525 0.42715 0.0
C134 C 0.38445 0.81901 0.23574 0.0
C135 C 0.36784 0.84617 0.29133 0.0
C136 C 0.37309 0.85218 0.41615 0.0
C137 C 0.39477 0.8319 0.48331 0.0
C138 C 0.33585 0.90049 0.0333 0.0
C139 C 0.30636 0.91397 0.0829 0.0
C140 C 0.35555 0.87833 0.10055 0.0
C141 C 0.34613 0.86894 0.21881 0.0
C142 C 0.31643 0.88227 0.26813 0.0
C143 C 0.29678 0.90466 0.20092 0.0
H144 H 0.12003 0.81325 0.16593 0.0
H145 H 0.06573 0.79326 0.49719 0.0
H146 H 0.16054 0.8465 0.27994 0.0
H147 H 0.10515 0.82803 0.61109 0.0
H148 H 0.19334 0.87271 0.80572 0.0
H149 H 0.15946 0.83331 0.68882 0.0
H150 H 0.16539 0.89861 0.37579 0.0
H151 H 0.20083 0.93699 0.49158 0.0
C152 C 0.11674 0.81612 0.26334 0.0
C153 C 0.0897 0.80085 0.32284 0.0
C154 C 0.13982 0.83539 0.32867 0.0
C155 C 0.13607 0.84032 0.4548 0.0
C156 C 0.10923 0.82445 0.51447 0.0
C157 C 0.08645 0.80468 0.44925 0.0
C158 C 0.18764 0.87839 0.71144 0.0
C159 C 0.19953 0.90792 0.65763 0.0
C160 C 0.16799 0.85595 0.64462 0.0
C161 C 0.15926 0.86284 0.52302 0.0
C162 C 0.17192 0.89213 0.46857 0.0
C163 C 0.19209 0.91429 0.53496 0.0
H164 H 0.08315 0.72407 0.74937 0.0
H165 H 0.09397 0.6571 0.0553 0.0
H166 H 0.12253 0.68985 0.63288 0.0
H167 H 0.13223 0.62235 0.93828 0.0
H168 H 0.22165 0.58096 0.73672 0.0
H169 H 0.18704 0.61998 0.85325 0.0
H170 H 0.12498 0.63641 0.53528 0.0
H171 H 0.16019 0.59847 0.41849 0.0
C172 C 0.09385 0.70197 0.7914 0.0
C173 C 0.08546 0.6932 0.91116 0.0
C174 C 0.1163 0.68228 0.72467 0.0
C175 C 0.13058 0.65329 0.77616 0.0
C176 C 0.12223 0.64477 0.89638 0.0
C177 C 0.10005 0.66456 0.9632 0.0
C178 C 0.20071 0.5931 0.69188 0.0
C179 C 0.19354 0.5866 0.56879 0.0
C180 C 0.18077 0.61532 0.75863 0.0
C181 C 0.15311 0.63128 0.70379 0.0
C182 C 0.14633 0.62502 0.58005 0.0
C183 C 0.16639 0.60304 0.51327 0.0
H184 H 0.7731 0.08516 0.51064 0.0
H185 H 0.8392 0.09847 0.81957 0.0
H186 H 0.80707 0.12432 0.39329 0.0
H187 H 0.87361 0.13666 0.70189 0.0
H188 H 0.91517 0.22454 0.49166 0.0
H189 H 0.87568 0.19111 0.60982 0.0
H190 H 0.86135 0.12524 0.30042 0.0
H191 H 0.89984 0.15908 0.18211 0.0
C192 C 0.79489 0.09642 0.55329 0.0
C193 C 0.80361 0.08865 0.67391 0.0
C194 C 0.81443 0.11875 0.48609 0.0
C195 C 0.84315 0.13358 0.53809 0.0
C196 C 0.85143 0.12613 0.65952 0.0
C197 C 0.83184 0.104 0.72669 0.0
C198 C 0.9034 0.20301 0.44906 0.0
C199 C 0.91067 0.19432 0.32798 0.0
C200 C 0.88089 0.18378 0.5167 0.0
C201 C 0.86536 0.15544 0.46463 0.0
C202 C 0.87239 0.14717 0.34286 0.0
C203 C 0.8947 0.16643 0.2753 0.0
H204 H 0.91481 0.27374 0.7503 0.0
H205 H 0.90182 0.3382 0.06363 0.0
H206 H 0.87605 0.30879 0.63407 0.0
H207 H 0.86423 0.37377 0.94714 0.0
H208 H 0.77629 0.41693 0.74104 0.0
H209 H 0.81016 0.37704 0.85627 0.0
H210 H 0.87419 0.36297 0.54328 0.0
H211 H 0.83968 0.4018 0.42751 0.0
C212 C 0.90373 0.29543 0.79409 0.0
C213 C 0.91137 0.30329 0.91579 0.0
C214 C 0.88166 0.31561 0.72751 0.0
C215 C 0.86702 0.34418 0.78116 0.0
C216 C 0.87453 0.3517 0.90341 0.0
C217 C 0.89631 0.33142 0.97001 0.0
C218 C 0.79753 0.40517 0.69701 0.0
C219 C 0.80543 0.41255 0.57559 0.0
C220 C 0.81704 0.38242 0.76303 0.0
C221 C 0.84501 0.36682 0.7092 0.0
C222 C 0.85258 0.37405 0.58715 0.0
C223 C 0.83294 0.39655 0.52102 0.0
H224 H 0.68228 0.38183 0.33199 0.0
H225 H 0.70347 0.43385 0.9969 0.0
H226 H 0.64814 0.34146 0.2209 0.0
H227 H 0.66783 0.39461 0.88581 0.0
H228 H 0.62283 0.30538 0.69772 0.0
H229 H 0.6621 0.33993 0.81241 0.0
H230 H 0.59619 0.33646 0.12423 0.0
H231 H 0.55792 0.30031 0.01075 0.0
C232 C 0.67945 0.38469 0.23437 0.0
C233 C 0.69539 0.41099 0.17291 0.0
C234 C 0.65967 0.36168 0.17071 0.0
C235 C 0.65491 0.36479 0.04426 0.0
C236 C 0.67128 0.391 0.98274 0.0
C237 C 0.69155 0.41369 0.04632 0.0
C238 C 0.61697 0.31178 0.79127 0.0
C239 C 0.58733 0.30033 0.84545 0.0
C240 C 0.63934 0.33183 0.85679 0.0
C241 C 0.63226 0.34141 0.9774 0.0
C242 C 0.60281 0.32927 0.03222 0.0
C243 C 0.58072 0.30868 0.96717 0.0
H244 H 0.66141 0.10095 0.93188 0.0
H245 H 0.72069 0.08131 0.25391 0.0
H246 H 0.62524 0.13789 0.04885 0.0
H247 H 0.685 0.1193 0.37094 0.0
H248 H 0.59019 0.15493 0.56675 0.0
H249 H 0.62916 0.12079 0.45013 0.0
H250 H 0.62242 0.19079 0.15129 0.0
H251 H 0.58245 0.22444 0.2672 0.0
C252 C 0.66693 0.10484 0.0276 0.0
C253 C 0.69377 0.08811 0.08399 0.0
C254 C 0.64631 0.12624 0.09451 0.0
C255 C 0.65215 0.13159 0.21937 0.0
C256 C 0.67948 0.11534 0.27529 0.0
C257 C 0.70004 0.09372 0.20829 0.0
C258 C 0.59703 0.16304 0.47612 0.0
C259 C 0.58317 0.19226 0.42576 0.0
C260 C 0.61962 0.14361 0.40963 0.0
C261 C 0.62905 0.15306 0.29143 0.0
C262 C 0.61537 0.18253 0.24149 0.0
C263 C 0.59256 0.20189 0.30789 0.0
H264 H 0.33592 0.4689 0.62546 0.0
H265 H 0.32025 0.42433 0.27069 0.0
H266 H 0.3814 0.42932 0.66442 0.0
H267 H 0.36472 0.38414 0.31076 0.0
H268 H 0.46529 0.33455 0.3716 0.0
H269 H 0.42393 0.37843 0.33259 0.0
H270 H 0.38996 0.37134 0.70516 0.0
H271 H 0.4319 0.32852 0.7447 0.0
C272 C 0.34207 0.45051 0.55624 0.0
C273 C 0.32453 0.44965 0.44524 0.0
C274 C 0.36804 0.42775 0.57856 0.0
C275 C 0.37679 0.40351 0.49064 0.0
C276 C 0.35914 0.4028 0.37963 0.0
C277 C 0.33341 0.42568 0.35706 0.0
C278 C 0.4491 0.3426 0.44512 0.0
C279 C 0.45176 0.32807 0.56099 0.0
C280 C 0.42527 0.36758 0.42276 0.0
C281 C 0.40347 0.37837 0.51565 0.0
C282 C 0.40659 0.36407 0.63195 0.0
C283 C 0.43052 0.33931 0.65441 0.0
H284 H 0.65324 0.95439 0.99315 0.0
H285 H 0.68468 0.94437 0.61895 0.0
H286 H 0.60904 0.91349 0.95825 0.0
H287 H 0.64161 0.90204 0.58488 0.0
H288 H 0.54325 0.84883 0.52644 0.0
H289 H 0.58418 0.8929 0.56265 0.0
H290 H 0.59943 0.85628 0.92923 0.0
H291 H 0.55701 0.81331 0.89417 0.0
C292 C 0.65078 0.94322 0.90345 0.0
C293 C 0.67234 0.95253 0.80866 0.0
C294 C 0.62559 0.91954 0.88359 0.0
C295 C 0.6217 0.90418 0.76885 0.0
C296 C 0.64335 0.91368 0.6739 0.0
C297 C 0.66821 0.93781 0.69338 0.0
C298 C 0.55524 0.85038 0.61499 0.0
C299 C 0.54701 0.82769 0.70756 0.0
C300 C 0.57895 0.8755 0.63555 0.0
C301 C 0.59545 0.87815 0.74864 0.0
C302 C 0.58693 0.85545 0.84158 0.0
C303 C 0.56274 0.83067 0.82152 0.0
H304 H 0.02791 0.15859 0.86597 0.0
H305 H 0.07154 0.17507 0.22177 0.0
H306 H 0.06742 0.11283 0.83018 0.0
H307 H 0.11165 0.13035 0.18487 0.0
H308 H 0.16198 0.03006 0.12887 0.0
H309 H 0.11762 0.07111 0.16493 0.0
H310 H 0.12552 0.10433 0.79168 0.0
H311 H 0.16882 0.0627 0.75508 0.0
C312 C 0.04606 0.15253 0.93614 0.0
C313 C 0.0467 0.17043 0.04643 0.0
C314 C 0.06878 0.12641 0.91563 0.0
C315 C 0.09276 0.11784 0.0047 0.0
C316 C 0.09319 0.13578 0.11513 0.0
C317 C 0.07036 0.16166 0.13588 0.0
C318 C 0.15399 0.046 0.05455 0.0
C319 C 0.16892 0.04325 0.93939 0.0
C320 C 0.12873 0.06966 0.07522 0.0
C321 C 0.11805 0.09118 0.98131 0.0
C322 C 0.1327 0.08791 0.86565 0.0
C323 C 0.15774 0.06417 0.84489 0.0
H324 H 0.94474 0.68453 0.37995 0.0
H325 H 0.95143 0.6538 0.00343 0.0
H326 H 0.90289 0.6413 0.41585 0.0
H327 H 0.91113 0.6093 0.04002 0.0
H328 H 0.81185 0.55676 0.10993 0.0
H329 H 0.85458 0.59909 0.0729 0.0
H330 H 0.89354 0.5842 0.43719 0.0
H331 H 0.84955 0.54347 0.47557 0.0
C332 C 0.93756 0.66817 0.30536 0.0
C333 C 0.95116 0.67257 0.18893 0.0
C334 C 0.91371 0.64319 0.32588 0.0
C335 C 0.90344 0.62163 0.23084 0.0
C336 C 0.91775 0.62577 0.11489 0.0
C337 C 0.94108 0.65113 0.09398 0.0
C338 C 0.82968 0.56255 0.18163 0.0
C339 C 0.82734 0.54704 0.29567 0.0
C340 C 0.85434 0.58669 0.16042 0.0
C341 C 0.87763 0.59532 0.25216 0.0
C342 C 0.87567 0.57893 0.36522 0.0
C343 C 0.85061 0.55534 0.38705 0.0
H344 H 0.31855 0.07265 0.98357 0.0
H345 H 0.33365 0.03332 0.62071 0.0
H346 H 0.36137 0.1149 0.94823 0.0
H347 H 0.37718 0.07517 0.58613 0.0
H348 H 0.46283 0.16476 0.88737 0.0
H349 H 0.42125 0.12096 0.92239 0.0
H350 H 0.38265 0.13498 0.55771 0.0
H351 H 0.4246 0.17804 0.52202 0.0
C352 C 0.33118 0.07293 0.8964 0.0
C353 C 0.32271 0.04974 0.80473 0.0
C354 C 0.35589 0.09701 0.87647 0.0
C355 C 0.37277 0.09839 0.76448 0.0
C356 C 0.36436 0.07505 0.67291 0.0
C357 C 0.33955 0.05099 0.69281 0.0
C358 C 0.44547 0.15839 0.81481 0.0
C359 C 0.44696 0.17479 0.70206 0.0
C360 C 0.42156 0.13344 0.83495 0.0
C361 C 0.39863 0.12445 0.74277 0.0
C362 C 0.40024 0.1409 0.62999 0.0
C363 C 0.42415 0.16575 0.60984 0.0
H364 H 0.82061 0.92776 0.77031 0.0
H365 H 0.83656 0.96788 0.13185 0.0
H366 H 0.86433 0.88638 0.80473 0.0
H367 H 0.88126 0.92704 0.16534 0.0
H368 H 0.93015 0.82486 0.23136 0.0
H369 H 0.8885 0.86829 0.19682 0.0
H370 H 0.92352 0.87947 0.82697 0.0
H371 H 0.96464 0.83502 0.86086 0.0
C372 C 0.83368 0.92789 0.85699 0.0
C373 C 0.82508 0.95097 0.94866 0.0
C374 C 0.85896 0.90431 0.87636 0.0
C375 C 0.87644 0.90337 0.98767 0.0
C376 C 0.86801 0.92674 0.07909 0.0
C377 C 0.84251 0.95023 0.05989 0.0
C378 C 0.92901 0.83663 0.14266 0.0
C379 C 0.95057 0.82646 0.04857 0.0
C380 C 0.90527 0.86174 0.12314 0.0
C381 C 0.90263 0.87747 0.00919 0.0
C382 C 0.92454 0.86756 0.91538 0.0
C383 C 0.94821 0.84222 0.93479 0.0
H384 H 0.04644 0.34269 0.00436 0.0
H385 H 0.05582 0.31179 0.37936 0.0
H386 H 0.0873 0.38693 0.03931 0.0
H387 H 0.09811 0.35489 0.41354 0.0
H388 H 0.15067 0.45376 0.4715 0.0
H389 H 0.10703 0.41237 0.43516 0.0
H390 H 0.14435 0.39693 0.06964 0.0
H391 H 0.18687 0.43978 0.10478 0.0
C392 C 0.05748 0.34526 0.09422 0.0
C393 C 0.04797 0.32385 0.18924 0.0
C394 C 0.08113 0.37048 0.11414 0.0
C395 C 0.09628 0.37456 0.22919 0.0
C396 C 0.08663 0.35301 0.32427 0.0
C397 C 0.06254 0.32812 0.30472 0.0
C398 C 0.14937 0.44161 0.38317 0.0
C399 C 0.17212 0.44994 0.2909 0.0
C400 C 0.1245 0.41764 0.36253 0.0
C401 C 0.12214 0.40097 0.24966 0.0
C402 C 0.14493 0.40955 0.15709 0.0
C403 C 0.16947 0.43399 0.17721 0.0
H404 H 0.53489 0.66622 0.37215 0.0
H405 H 0.57255 0.67838 0.73902 0.0
H406 H 0.57615 0.62211 0.33577 0.0
H407 H 0.61438 0.63522 0.70188 0.0
H408 H 0.66542 0.53484 0.63477 0.0
H409 H 0.62145 0.57626 0.67183 0.0
H410 H 0.63505 0.61519 0.30833 0.0
H411 H 0.67798 0.57325 0.27046 0.0
C412 C 0.5521 0.65958 0.44469 0.0
C413 C 0.55053 0.67575 0.55825 0.0
C414 C 0.57584 0.63442 0.42384 0.0
C415 C 0.59865 0.62508 0.51594 0.0
C416 C 0.59691 0.64133 0.62955 0.0
C417 C 0.57308 0.66628 0.65053 0.0
C418 C 0.65889 0.55224 0.56298 0.0
C419 C 0.67509 0.55081 0.44984 0.0
C420 C 0.63383 0.57608 0.58422 0.0
C421 C 0.62464 0.59909 0.49296 0.0
C422 C 0.64099 0.59754 0.37992 0.0
C423 C 0.66581 0.57362 0.35852 0.0
loop_
_geom_bond_atom_site_label_1
_geom_bond_atom_site_label_2
_geom_bond_distance
_geom_bond_site_symmetry_2
_ccdc_geom_bond_type
In0 O1 2.294 . S
In0 O2 2.326 . S
In0 O6 2.266 . S
In0 O7 2.326 . S
In0 O8 2.266 . S
In0 O9 2.326 . S
In0 O11 2.294 . S
In0 O12 2.326 . S
O1 In0 2.294 . S
O1 C10 1.240 . S
O2 In0 2.326 . S
O2 C10 1.252 . S
C3 O6 1.252 . S
C3 O7 1.260 . S
C4 O11 1.240 . S
C4 O12 1.252 . S
C5 O8 1.252 . S
C5 O9 1.260 . S
O6 In0 2.266 . S
O6 C3 1.252 . S
O7 In0 2.326 . S
O7 C3 1.260 . S
O8 In0 2.266 . S
O8 C5 1.252 . S
O9 In0 2.326 . S
O9 C5 1.260 . S
C10 O1 1.240 . S
C10 O2 1.252 . S
O11 In0 2.294 . S
O11 C4 1.240 . S
O12 In0 2.326 . S
O12 C4 1.252 . S
In13 O14 2.294 . S
In13 O15 2.326 . S
In13 O19 2.266 . S
In13 O20 2.326 . S
In13 O21 2.266 . S
In13 O22 2.326 . S
In13 O24 2.294 . S
In13 O25 2.326 . S
O14 In13 2.294 . S
O14 C23 1.240 . S
O15 In13 2.326 . S
O15 C23 1.252 . S
C16 O19 1.252 . S
C16 O20 1.260 . S
C17 O24 1.240 . S
C17 O25 1.252 . S
C18 O21 1.252 . S
C18 O22 1.260 . S
O19 In13 2.266 . S
O19 C16 1.252 . S
O20 In13 2.326 . S
O20 C16 1.260 . S
O21 In13 2.266 . S
O21 C18 1.252 . S
O22 In13 2.326 . S
O22 C18 1.260 . S
C23 O14 1.240 . S
C23 O15 1.252 . S
O24 In13 2.294 . S
O24 C17 1.240 . S
O25 In13 2.326 . S
O25 C17 1.252 . S
In26 O27 2.294 1_556 S
In26 O28 2.326 . S
In26 O32 2.264 1_566 S
In26 O33 2.326 1_565 S
In26 O34 2.266 . S
In26 O35 2.326 . S
In26 O37 2.294 1_565 S
In26 O38 2.326 1_565 S
O27 In26 2.294 1_554 S
O27 C36 1.240 . S
O28 In26 2.326 . S
O28 C36 1.252 1_556 S
C29 O32 1.249 1_556 S
C29 O33 1.260 . S
C30 O37 1.240 . S
C30 O38 1.252 . S
C31 O34 1.252 . S
C31 O35 1.260 . S
O32 In26 2.264 1_544 S
O32 C29 1.249 1_554 S
O33 In26 2.326 1_545 S
O33 C29 1.260 . S
O34 In26 2.266 . S
O34 C31 1.252 . S
O35 In26 2.326 . S
O35 C31 1.260 . S
C36 O27 1.240 . S
C36 O28 1.252 1_554 S
O37 In26 2.294 1_545 S
O37 C30 1.240 . S
O38 In26 2.326 1_545 S
O38 C30 1.252 . S
In39 O40 2.294 1_455 S
In39 O41 2.326 1_455 S
In39 O45 2.266 . S
In39 O46 2.326 . S
In39 O47 2.264 1_454 S
In39 O48 2.326 1_455 S
In39 O50 2.294 1_554 S
In39 O51 2.326 . S
O40 In39 2.294 1_655 S
O40 C49 1.240 . S
O41 In39 2.326 1_655 S
O41 C49 1.252 . S
C42 O45 1.252 . S
C42 O46 1.260 . S
C43 O50 1.240 . S
C43 O51 1.252 1_556 S
C44 O47 1.249 1_554 S
C44 O48 1.260 . S
O45 In39 2.266 . S
O45 C42 1.252 . S
O46 In39 2.326 . S
O46 C42 1.260 . S
O47 In39 2.264 1_656 S
O47 C44 1.249 1_556 S
O48 In39 2.326 1_655 S
O48 C44 1.260 . S
C49 O40 1.240 . S
C49 O41 1.252 . S
O50 In39 2.294 1_556 S
O50 C43 1.240 . S
O51 In39 2.326 . S
O51 C43 1.252 1_554 S
In52 O53 2.294 . S
In52 O54 2.326 . S
In52 O58 2.266 1_545 S
In52 O59 2.326 1_545 S
In52 O60 2.266 1_556 S
In52 O61 2.326 . S
In52 O63 2.294 1_546 S
In52 O64 2.326 1_545 S
O53 In52 2.294 . S
O53 C62 1.240 . S
O54 In52 2.326 . S
O54 C62 1.252 . S
C55 O58 1.252 . S
C55 O59 1.260 . S
C56 O63 1.240 1_556 S
C56 O64 1.252 . S
C57 O60 1.252 . S
C57 O61 1.260 1_554 S
O58 In52 2.266 1_565 S
O58 C55 1.252 . S
O59 In52 2.326 1_565 S
O59 C55 1.260 . S
O60 In52 2.266 1_554 S
O60 C57 1.252 . S
O61 In52 2.326 . S
O61 C57 1.260 1_556 S
C62 O53 1.240 . S
C62 O54 1.252 . S
O63 In52 2.294 1_564 S
O63 C56 1.240 1_554 S
O64 In52 2.326 1_565 S
O64 C56 1.252 . S
In65 O66 2.294 . S
In65 O67 2.326 . S
In65 O71 2.266 1_655 S
In65 O72 2.326 1_655 S
In65 O73 2.266 1_554 S
In65 O74 2.326 . S
In65 O76 2.294 1_654 S
In65 O77 2.326 1_655 S
O66 In65 2.294 . S
O66 C75 1.240 . S
O67 In65 2.326 . S
O67 C75 1.252 . S
C68 O71 1.252 . S
C68 O72 1.260 . S
C69 O76 1.240 1_554 S
C69 O77 1.252 . S
C70 O73 1.252 . S
C70 O74 1.260 1_556 S
O71 In65 2.266 1_455 S
O71 C68 1.252 . S
O72 In65 2.326 1_455 S
O72 C68 1.260 . S
O73 In65 2.266 1_556 S
O73 C70 1.252 . S
O74 In65 2.326 . S
O74 C70 1.260 1_554 S
C75 O66 1.240 . S
C75 O67 1.252 . S
O76 In65 2.294 1_456 S
O76 C69 1.240 1_556 S
O77 In65 2.326 1_455 S
O77 C69 1.252 . S
In78 O79 2.294 . S
In78 O80 2.326 . S
In78 O84 2.266 . S
In78 O85 2.326 . S
In78 O86 2.266 . S
In78 O87 2.326 . S
In78 O89 2.294 . S
In78 O90 2.326 . S
O79 In78 2.294 . S
O79 C88 1.240 . S
O80 In78 2.326 . S
O80 C88 1.252 . S
C81 O84 1.252 . S
C81 O85 1.260 . S
C82 O89 1.240 . S
C82 O90 1.252 . S
C83 O86 1.252 . S
C83 O87 1.260 . S
O84 In78 2.266 . S
O84 C81 1.252 . S
O85 In78 2.326 . S
O85 C81 1.260 . S
O86 In78 2.266 . S
O86 C83 1.252 . S
O87 In78 2.326 . S
O87 C83 1.260 . S
C88 O79 1.240 . S
C88 O80 1.252 . S
O89 In78 2.294 . S
O89 C82 1.240 . S
O90 In78 2.326 . S
O90 C82 1.252 . S
In91 O92 2.294 . S
In91 O93 2.326 . S
In91 O97 2.266 . S
In91 O98 2.326 . S
In91 O99 2.266 . S
In91 O100 2.326 . S
In91 O102 2.294 . S
In91 O103 2.326 . S
O92 In91 2.294 . S
O92 C101 1.240 . S
O93 In91 2.326 . S
O93 C101 1.252 . S
C94 O97 1.252 . S
C94 O98 1.260 . S
C95 O102 1.240 . S
C95 O103 1.252 . S
C96 O99 1.252 . S
C96 O100 1.260 . S
O97 In91 2.266 . S
O97 C94 1.252 . S
O98 In91 2.326 . S
O98 C94 1.260 . S
O99 In91 2.266 . S
O99 C96 1.252 . S
O100 In91 2.326 . S
O100 C96 1.260 . S
C101 O92 1.240 . S
C101 O93 1.252 . S
O102 In91 2.294 . S
O102 C95 1.240 . S
O103 In91 2.326 . S
O103 C95 1.252 . S
H104 C112 0.950 . S
H105 C117 0.950 . S
H106 C114 0.950 . S
H107 C116 0.950 1_554 S
H108 C118 0.950 . S
H109 C120 0.950 . S
H110 C122 0.950 1_556 S
H111 C123 0.950 . S
C112 H104 0.950 . S
C112 C113 1.386 . S
C112 C114 1.391 . S
C113 C112 1.386 . S
C113 C117 1.393 . S
C114 H106 0.950 . S
C114 C112 1.391 . S
C114 C115 1.400 . S
C115 C114 1.400 . S
C115 C116 1.398 . S
C115 C121 1.491 1_556 S
C116 H107 0.950 1_556 S
C116 C115 1.398 . S
C116 C117 1.391 . S
C117 H105 0.950 . S
C117 C113 1.393 . S
C117 C116 1.391 . S
C118 H108 0.950 . S
C118 C119 1.386 . S
C118 C120 1.391 . S
C119 C118 1.386 . S
C119 C123 1.393 . S
C120 H109 0.950 . S
C120 C118 1.391 . S
C120 C121 1.400 . S
C121 C115 1.491 1_554 S
C121 C120 1.400 . S
C121 C122 1.398 . S
C122 H110 0.950 1_554 S
C122 C121 1.398 . S
C122 C123 1.391 . S
C123 H111 0.950 . S
C123 C119 1.393 . S
C123 C122 1.391 . S
H124 C132 0.950 . S
H125 C137 0.950 . S
H126 C134 0.950 . S
H127 C136 0.950 . S
H128 C138 0.950 . S
H129 C140 0.950 . S
H130 C142 0.950 . S
H131 C143 0.950 . S
C132 H124 0.950 . S
C132 C133 1.386 . S
C132 C134 1.391 . S
C133 C132 1.386 . S
C133 C137 1.393 . S
C134 H126 0.950 . S
C134 C132 1.391 . S
C134 C135 1.400 . S
C135 C134 1.400 . S
C135 C136 1.398 . S
C135 C141 1.491 . S
C136 H127 0.950 . S
C136 C135 1.398 . S
C136 C137 1.391 . S
C137 H125 0.950 . S
C137 C133 1.393 . S
C137 C136 1.391 . S
C138 H128 0.950 . S
C138 C139 1.386 . S
C138 C140 1.391 . S
C139 C138 1.386 . S
C139 C143 1.393 . S
C140 H129 0.950 . S
C140 C138 1.391 . S
C140 C141 1.400 . S
C141 C135 1.491 . S
C141 C140 1.400 . S
C141 C142 1.398 . S
C142 H130 0.950 . S
C142 C141 1.398 . S
C142 C143 1.391 . S
C143 H131 0.950 . S
C143 C139 1.393 . S
C143 C142 1.391 . S
H144 C152 0.950 . S
H145 C157 0.950 . S
H146 C154 0.950 . S
H147 C156 0.950 . S
H148 C158 0.950 . S
H149 C160 0.950 . S
H150 C162 0.950 . S
H151 C163 0.950 . S
C152 H144 0.950 . S
C152 C153 1.386 . S
C152 C154 1.391 . S
C153 C152 1.386 . S
C153 C157 1.393 . S
C154 H146 0.950 . S
C154 C152 1.391 . S
C154 C155 1.400 . S
C155 C154 1.400 . S
C155 C156 1.398 . S
C155 C161 1.491 . S
C156 H147 0.950 . S
C156 C155 1.398 . S
C156 C157 1.391 . S
C157 H145 0.950 . S
C157 C153 1.393 . S
C157 C156 1.391 . S
C158 H148 0.950 . S
C158 C159 1.386 . S
C158 C160 1.391 . S
C159 C158 1.386 . S
C159 C163 1.393 . S
C160 H149 0.950 . S
C160 C158 1.391 . S
C160 C161 1.400 . S
C161 C155 1.491 . S
C161 C160 1.400 . S
C161 C162 1.398 . S
C162 H150 0.950 . S
C162 C161 1.398 . S
C162 C163 1.391 . S
C163 H151 0.950 . S
C163 C159 1.393 . S
C163 C162 1.391 . S
H164 C172 0.950 . S
H165 C177 0.950 1_554 S
H166 C174 0.950 . S
H167 C176 0.950 . S
H168 C178 0.950 . S
H169 C180 0.950 . S
H170 C182 0.950 . S
H171 C183 0.950 . S
C172 H164 0.950 . S
C172 C173 1.386 . S
C172 C174 1.391 . S
C173 C172 1.386 . S
C173 C177 1.393 . S
C174 H166 0.950 . S
C174 C172 1.391 . S
C174 C175 1.400 . S
C175 C174 1.400 . S
C175 C176 1.398 . S
C175 C181 1.491 . S
C176 H167 0.950 . S
C176 C175 1.398 . S
C176 C177 1.391 . S
C177 H165 0.950 1_556 S
C177 C173 1.393 . S
C177 C176 1.391 . S
C178 H168 0.950 . S
C178 C179 1.386 . S
C178 C180 1.391 . S
C179 C178 1.386 . S
C179 C183 1.393 . S
C180 H169 0.950 . S
C180 C178 1.391 . S
C180 C181 1.400 . S
C181 C175 1.491 . S
C181 C180 1.400 . S
C181 C182 1.398 . S
C182 H170 0.950 . S
C182 C181 1.398 . S
C182 C183 1.391 . S
C183 H171 0.950 . S
C183 C179 1.393 . S
C183 C182 1.391 . S
H184 C192 0.950 . S
H185 C197 0.950 . S
H186 C194 0.950 . S
H187 C196 0.950 . S
H188 C198 0.950 . S
H189 C200 0.950 . S
H190 C202 0.950 . S
H191 C203 0.950 . S
C192 H184 0.950 . S
C192 C193 1.386 . S
C192 C194 1.391 . S
C193 C192 1.386 . S
C193 C197 1.393 . S
C194 H186 0.950 . S
C194 C192 1.391 . S
C194 C195 1.400 . S
C195 C194 1.400 . S
C195 C196 1.398 . S
C195 C201 1.491 . S
C196 H187 0.950 . S
C196 C195 1.398 . S
C196 C197 1.391 . S
C197 H185 0.950 . S
C197 C193 1.393 . S
C197 C196 1.391 . S
C198 H188 0.950 . S
C198 C199 1.386 . S
C198 C200 1.391 . S
C199 C198 1.386 . S
C199 C203 1.393 . S
C200 H189 0.950 . S
C200 C198 1.391 . S
C200 C201 1.400 . S
C201 C195 1.491 . S
C201 C200 1.400 . S
C201 C202 1.398 . S
C202 H190 0.950 . S
C202 C201 1.398 . S
C202 C203 1.391 . S
C203 H191 0.950 . S
C203 C199 1.393 . S
C203 C202 1.391 . S
H204 C212 0.950 . S
H205 C217 0.950 1_554 S
H206 C214 0.950 . S
H207 C216 0.950 . S
H208 C218 0.950 . S
H209 C220 0.950 . S
H210 C222 0.950 . S
H211 C223 0.950 . S
C212 H204 0.950 . S
C212 C213 1.386 . S
C212 C214 1.391 . S
C213 C212 1.386 . S
C213 C217 1.393 . S
C214 H206 0.950 . S
C214 C212 1.391 . S
C214 C215 1.400 . S
C215 C214 1.400 . S
C215 C216 1.398 . S
C215 C221 1.491 . S
C216 H207 0.950 . S
C216 C215 1.398 . S
C216 C217 1.391 . S
C217 H205 0.950 1_556 S
C217 C213 1.393 . S
C217 C216 1.391 . S
C218 H208 0.950 . S
C218 C219 1.386 . S
C218 C220 1.391 . S
C219 C218 1.386 . S
C219 C223 1.393 . S
C220 H209 0.950 . S
C220 C218 1.391 . S
C220 C221 1.400 . S
C221 C215 1.491 . S
C221 C220 1.400 . S
C221 C222 1.398 . S
C222 H210 0.950 . S
C222 C221 1.398 . S
C222 C223 1.391 . S
C223 H211 0.950 . S
C223 C219 1.393 . S
C223 C222 1.391 . S
H224 C232 0.950 . S
H225 C237 0.950 . S
H226 C234 0.950 . S
H227 C236 0.950 1_556 S
H228 C238 0.950 . S
H229 C240 0.950 . S
H230 C242 0.950 1_554 S
H231 C243 0.950 . S
C232 H224 0.950 . S
C232 C233 1.386 . S
C232 C234 1.391 . S
C233 C232 1.386 . S
C233 C237 1.393 . S
C234 H226 0.950 . S
C234 C232 1.391 . S
C234 C235 1.400 . S
C235 C234 1.400 . S
C235 C236 1.398 . S
C235 C241 1.491 1_554 S
C236 H227 0.950 1_554 S
C236 C235 1.398 . S
C236 C237 1.391 . S
C237 H225 0.950 . S
C237 C233 1.393 . S
C237 C236 1.391 . S
C238 H228 0.950 . S
C238 C239 1.386 . S
C238 C240 1.391 . S
C239 C238 1.386 . S
C239 C243 1.393 . S
C240 H229 0.950 . S
C240 C238 1.391 . S
C240 C241 1.400 . S
C241 C235 1.491 1_556 S
C241 C240 1.400 . S
C241 C242 1.398 . S
C242 H230 0.950 1_556 S
C242 C241 1.398 . S
C242 C243 1.391 . S
C243 H231 0.950 . S
C243 C239 1.393 . S
C243 C242 1.391 . S
H244 C252 0.950 1_556 S
H245 C257 0.950 . S
H246 C254 0.950 . S
H247 C256 0.950 . S
H248 C258 0.950 . S
H249 C260 0.950 . S
H250 C262 0.950 . S
H251 C263 0.950 . S
C252 H244 0.950 1_554 S
C252 C253 1.386 . S
C252 C254 1.391 . S
C253 C252 1.386 . S
C253 C257 1.393 . S
C254 H246 0.950 . S
C254 C252 1.391 . S
C254 C255 1.400 . S
C255 C254 1.400 . S
C255 C256 1.398 . S
C255 C261 1.491 . S
C256 H247 0.950 . S
C256 C255 1.398 . S
C256 C257 1.391 . S
C257 H245 0.950 . S
C257 C253 1.393 . S
C257 C256 1.391 . S
C258 H248 0.950 . S
C258 C259 1.386 . S
C258 C260 1.391 . S
C259 C258 1.386 . S
C259 C263 1.393 . S
C260 H249 0.950 . S
C260 C258 1.391 . S
C260 C261 1.400 . S
C261 C255 1.491 . S
C261 C260 1.400 . S
C261 C262 1.398 . S
C262 H250 0.950 . S
C262 C261 1.398 . S
C262 C263 1.391 . S
C263 H251 0.950 . S
C263 C259 1.393 . S
C263 C262 1.391 . S
H264 C272 0.950 . S
H265 C277 0.950 . S
H266 C274 0.950 . S
H267 C276 0.950 . S
H268 C278 0.950 . S
H269 C280 0.950 . S
H270 C282 0.950 . S
H271 C283 0.950 . S
C272 H264 0.950 . S
C272 C273 1.386 . S
C272 C274 1.391 . S
C273 C272 1.386 . S
C273 C277 1.393 . S
C274 H266 0.950 . S
C274 C272 1.391 . S
C274 C275 1.400 . S
C275 C274 1.400 . S
C275 C276 1.398 . S
C275 C281 1.491 . S
C276 H267 0.950 . S
C276 C275 1.398 . S
C276 C277 1.391 . S
C277 H265 0.950 . S
C277 C273 1.393 . S
C277 C276 1.391 . S
C278 H268 0.950 . S
C278 C279 1.386 . S
C278 C280 1.391 . S
C279 C278 1.386 . S
C279 C283 1.393 . S
C280 H269 0.950 . S
C280 C278 1.391 . S
C280 C281 1.400 . S
C281 C275 1.491 . S
C281 C280 1.400 . S
C281 C282 1.398 . S
C282 H270 0.950 . S
C282 C281 1.398 . S
C282 C283 1.391 . S
C283 H271 0.950 . S
C283 C279 1.393 . S
C283 C282 1.391 . S
H284 C292 0.950 . S
H285 C297 0.950 . S
H286 C294 0.950 . S
H287 C296 0.950 . S
H288 C298 0.950 . S
H289 C300 0.950 . S
H290 C302 0.950 . S
H291 C303 0.950 . S
C292 H284 0.950 . S
C292 C293 1.386 . S
C292 C294 1.391 . S
C293 C292 1.386 . S
C293 C297 1.393 . S
C294 H286 0.950 . S
C294 C292 1.391 . S
C294 C295 1.400 . S
C295 C294 1.400 . S
C295 C296 1.398 . S
C295 C301 1.491 . S
C296 H287 0.950 . S
C296 C295 1.398 . S
C296 C297 1.391 . S
C297 H285 0.950 . S
C297 C293 1.393 . S
C297 C296 1.391 . S
C298 H288 0.950 . S
C298 C299 1.386 . S
C298 C300 1.391 . S
C299 C298 1.386 . S
C299 C303 1.393 . S
C300 H289 0.950 . S
C300 C298 1.391 . S
C300 C301 1.400 . S
C301 C295 1.491 . S
C301 C300 1.400 . S
C301 C302 1.398 . S
C302 H290 0.950 . S
C302 C301 1.398 . S
C302 C303 1.391 . S
C303 H291 0.950 . S
C303 C299 1.393 . S
C303 C302 1.391 . S
H304 C312 0.950 . S
H305 C317 0.950 . S
H306 C314 0.950 . S
H307 C316 0.950 . S
H308 C318 0.950 . S
H309 C320 0.950 . S
H310 C322 0.950 . S
H311 C323 0.950 . S
C312 H304 0.950 . S
C312 C313 1.386 1_556 S
C312 C314 1.391 . S
C313 C312 1.386 1_554 S
C313 C317 1.393 . S
C314 H306 0.950 . S
C314 C312 1.391 . S
C314 C315 1.400 1_556 S
C315 C314 1.400 1_554 S
C315 C316 1.398 . S
C315 C321 1.491 1_554 S
C316 H307 0.950 . S
C316 C315 1.398 . S
C316 C317 1.391 . S
C317 H305 0.950 . S
C317 C313 1.393 . S
C317 C316 1.391 . S
C318 H308 0.950 . S
C318 C319 1.386 1_554 S
C318 C320 1.391 . S
C319 C318 1.386 1_556 S
C319 C323 1.393 . S
C320 H309 0.950 . S
C320 C318 1.391 . S
C320 C321 1.400 1_554 S
C321 C315 1.491 1_556 S
C321 C320 1.400 1_556 S
C321 C322 1.398 . S
C322 H310 0.950 . S
C322 C321 1.398 . S
C322 C323 1.391 . S
C323 H311 0.950 . S
C323 C319 1.393 . S
C323 C322 1.391 . S
H324 C332 0.950 . S
H325 C337 0.950 . S
H326 C334 0.950 . S
H327 C336 0.950 . S
H328 C338 0.950 . S
H329 C340 0.950 . S
H330 C342 0.950 . S
H331 C343 0.950 . S
C332 H324 0.950 . S
C332 C333 1.386 . S
C332 C334 1.391 . S
C333 C332 1.386 . S
C333 C337 1.393 . S
C334 H326 0.950 . S
C334 C332 1.391 . S
C334 C335 1.400 . S
C335 C334 1.400 . S
C335 C336 1.398 . S
C335 C341 1.491 . S
C336 H327 0.950 . S
C336 C335 1.398 . S
C336 C337 1.391 . S
C337 H325 0.950 . S
C337 C333 1.393 . S
C337 C336 1.391 . S
C338 H328 0.950 . S
C338 C339 1.386 . S
C338 C340 1.391 . S
C339 C338 1.386 . S
C339 C343 1.393 . S
C340 H329 0.950 . S
C340 C338 1.391 . S
C340 C341 1.400 . S
C341 C335 1.491 . S
C341 C340 1.400 . S
C341 C342 1.398 . S
C342 H330 0.950 . S
C342 C341 1.398 . S
C342 C343 1.391 . S
C343 H331 0.950 . S
C343 C339 1.393 . S
C343 C342 1.391 . S
H344 C352 0.950 . S
H345 C357 0.950 . S
H346 C354 0.950 . S
H347 C356 0.950 . S
H348 C358 0.950 . S
H349 C360 0.950 . S
H350 C362 0.950 . S
H351 C363 0.950 . S
C352 H344 0.950 . S
C352 C353 1.386 . S
C352 C354 1.391 . S
C353 C352 1.386 . S
C353 C357 1.393 . S
C354 H346 0.950 . S
C354 C352 1.391 . S
C354 C355 1.400 . S
C355 C354 1.400 . S
C355 C356 1.398 . S
C355 C361 1.491 . S
C356 H347 0.950 . S
C356 C355 1.398 . S
C356 C357 1.391 . S
C357 H345 0.950 . S
C357 C353 1.393 . S
C357 C356 1.391 . S
C358 H348 0.950 . S
C358 C359 1.386 . S
C358 C360 1.391 . S
C359 C358 1.386 . S
C359 C363 1.393 . S
C360 H349 0.950 . S
C360 C358 1.391 . S
C360 C361 1.400 . S
C361 C355 1.491 . S
C361 C360 1.400 . S
C361 C362 1.398 . S
C362 H350 0.950 . S
C362 C361 1.398 . S
C362 C363 1.391 . S
C363 H351 0.950 . S
C363 C359 1.393 . S
C363 C362 1.391 . S
H364 C372 0.950 . S
H365 C377 0.950 . S
H366 C374 0.950 . S
H367 C376 0.950 . S
H368 C378 0.950 . S
H369 C380 0.950 . S
H370 C382 0.950 . S
H371 C383 0.950 . S
C372 H364 0.950 . S
C372 C373 1.386 . S
C372 C374 1.391 . S
C373 C372 1.386 . S
C373 C377 1.393 1_556 S
C374 H366 0.950 . S
C374 C372 1.391 . S
C374 C375 1.400 . S
C375 C374 1.400 . S
C375 C376 1.398 1_556 S
C375 C381 1.491 1_556 S
C376 H367 0.950 . S
C376 C375 1.398 1_554 S
C376 C377 1.391 . S
C377 H365 0.950 . S
C377 C373 1.393 1_554 S
C377 C376 1.391 . S
C378 H368 0.950 . S
C378 C379 1.386 . S
C378 C380 1.391 . S
C379 C378 1.386 . S
C379 C383 1.393 1_554 S
C380 H369 0.950 . S
C380 C378 1.391 . S
C380 C381 1.400 . S
C381 C375 1.491 1_554 S
C381 C380 1.400 . S
C381 C382 1.398 1_554 S
C382 H370 0.950 . S
C382 C381 1.398 1_556 S
C382 C383 1.391 . S
C383 H371 0.950 . S
C383 C379 1.393 1_556 S
C383 C382 1.391 . S
H384 C392 0.950 . S
H385 C397 0.950 . S
H386 C394 0.950 . S
H387 C396 0.950 . S
H388 C398 0.950 . S
H389 C400 0.950 . S
H390 C402 0.950 . S
H391 C403 0.950 . S
C392 H384 0.950 . S
C392 C393 1.386 . S
C392 C394 1.391 . S
C393 C392 1.386 . S
C393 C397 1.393 . S
C394 H386 0.950 . S
C394 C392 1.391 . S
C394 C395 1.400 . S
C395 C394 1.400 . S
C395 C396 1.398 . S
C395 C401 1.491 . S
C396 H387 0.950 . S
C396 C395 1.398 . S
C396 C397 1.391 . S
C397 H385 0.950 . S
C397 C393 1.393 . S
C397 C396 1.391 . S
C398 H388 0.950 . S
C398 C399 1.386 . S
C398 C400 1.391 . S
C399 C398 1.386 . S
C399 C403 1.393 . S
C400 H389 0.950 . S
C400 C398 1.391 . S
C400 C401 1.400 . S
C401 C395 1.491 . S
C401 C400 1.400 . S
C401 C402 1.398 . S
C402 H390 0.950 . S
C402 C401 1.398 . S
C402 C403 1.391 . S
C403 H391 0.950 . S
C403 C399 1.393 . S
C403 C402 1.391 . S
H404 C412 0.950 . S
H405 C417 0.950 . S
H406 C414 0.950 . S
H407 C416 0.950 . S
H408 C418 0.950 . S
H409 C420 0.950 . S
H410 C422 0.950 . S
H411 C423 0.950 . S
C412 H404 0.950 . S
C412 C413 1.386 . S
C412 C414 1.391 . S
C413 C412 1.386 . S
C413 C417 1.393 . S
C414 H406 0.950 . S
C414 C412 1.391 . S
C414 C415 1.400 . S
C415 C414 1.400 . S
C415 C416 1.398 . S
C415 C421 1.491 . S
C416 H407 0.950 . S
C416 C415 1.398 . S
C416 C417 1.391 . S
C417 H405 0.950 . S
C417 C413 1.393 . S
C417 C416 1.391 . S
C418 H408 0.950 . S
C418 C419 1.386 . S
C418 C420 1.391 . S
C419 C418 1.386 . S
C419 C423 1.393 . S
C420 H409 0.950 . S
C420 C418 1.391 . S
C420 C421 1.400 . S
C421 C415 1.491 . S
C421 C420 1.400 . S
C421 C422 1.398 . S
C422 H410 0.950 . S
C422 C421 1.398 . S
C422 C423 1.391 . S
C423 H411 0.950 . S
C423 C419 1.393 . S
C423 C422 1.391 . S
C113 C23 1.473 . S
C119 C10 1.474 . S
C133 C18 1.472 . S
C139 C36 1.473 . S
C153 C42 1.473 . S
C159 C31 1.473 . S
C173 C43 1.473 . S
C179 C5 1.472 . S
C193 C62 1.474 . S
C199 C75 1.472 . S
C213 C70 1.472 . S
C219 C88 1.472 . S
C233 C83 1.473 . S
C239 C94 1.473 . S
C253 C57 1.472 . S
C259 C95 1.474 . S
C273 C4 1.512 . S
C279 C96 1.515 . S
C293 C55 1.519 . S
C299 C16 1.515 . S
C313 C69 1.512 . S
C319 C29 1.515 . S
C333 C49 1.506 . S
C339 C82 1.508 . S
C353 C30 1.504 . S
C359 C101 1.504 . S
C373 C56 1.516 . S
C379 C44 1.508 . S
C393 C68 1.519 . S
C399 C3 1.515 . S
C413 C17 1.511 . S
C419 C81 1.511 . S
