# Generated by pormake.
# Topology dei, (4)-cn, num edge types: 1
# Building blocks:
#     Node 0, Type 0, BuildingBlock: UXUYUI_clean_sbu_0, # of connection points: 4
#     Node 1, Type 0, BuildingBlock: UXUYUI_clean_sbu_0, # of connection points: 4
#     Node 2, Type 0, BuildingBlock: UXUYUI_clean_sbu_0, # of connection points: 4
#     Node 3, Type 0, BuildingBlock: UXUYUI_clean_sbu_0, # of connection points: 4
#     Node 4, Type 0, BuildingBlock: UXUYUI_clean_sbu_0, # of connection points: 4
#     Node 5, Type 0, BuildingBlock: UXUYUI_clean_sbu_0, # of connection points: 4
#     Node 6, Type 0, BuildingBlock: UXUYUI_clean_sbu_0, # of connection points: 4
#     Node 7, Type 0, BuildingBlock: UXUYUI_clean_sbu_0, # of connection points: 4
#     Node 8, Type 0, BuildingBlock: UXUYUI_clean_sbu_0, # of connection points: 4
#     Node 9, Type 0, BuildingBlock: UXUYUI_clean_sbu_0, # of connection points: 4
#     Node 10, Type 0, BuildingBlock: UXUYUI_clean_sbu_0, # of connection points: 4
#     Node 11, Type 0, BuildingBlock: UXUYUI_clean_sbu_0, # of connection points: 4
#     Node 12, Type 0, BuildingBlock: UXUYUI_clean_sbu_0, # of connection points: 4
#     Node 13, Type 0, BuildingBlock: UXUYUI_clean_sbu_0, # of connection points: 4
#     Node 14, Type 0, BuildingBlock: UXUYUI_clean_sbu_0, # of connection points: 4
#     Node 15, Type 0, BuildingBlock: UXUYUI_clean_sbu_0, # of connection points: 4
#     Node 16, Type 0, BuildingBlock: UXUYUI_clean_sbu_0, # of connection points: 4
#     Node 17, Type 0, BuildingBlock: UXUYUI_clean_sbu_0, # of connection points: 4
#     Node 18, Type 0, BuildingBlock: UXUYUI_clean_sbu_0, # of connection points: 4
#     Node 19, Type 0, BuildingBlock: UXUYUI_clean_sbu_0, # of connection points: 4
#     Node 20, Type 0, BuildingBlock: UXUYUI_clean_sbu_0, # of connection points: 4
#     Node 21, Type 0, BuildingBlock: UXUYUI_clean_sbu_0, # of connection points: 4
#     Node 22, Type 0, BuildingBlock: UXUYUI_clean_sbu_0, # of connection points: 4
#     Node 23, Type 0, BuildingBlock: UXUYUI_clean_sbu_0, # of connection points: 4
#     Node 24, Type 0, BuildingBlock: UXUYUI_clean_sbu_0, # of connection points: 4
#     Node 25, Type 0, BuildingBlock: UXUYUI_clean_sbu_0, # of connection points: 4
#     Node 26, Type 0, BuildingBlock: UXUYUI_clean_sbu_0, # of connection points: 4
#     Node 27, Type 0, BuildingBlock: UXUYUI_clean_sbu_0, # of connection points: 4
#     Node 28, Type 0, BuildingBlock: UXUYUI_clean_sbu_0, # of connection points: 4
#     Node 29, Type 0, BuildingBlock: UXUYUI_clean_sbu_0, # of connection points: 4
#     Node 30, Type 0, BuildingBlock: UXUYUI_clean_sbu_0, # of connection points: 4
#     Node 31, Type 0, BuildingBlock: UXUYUI_clean_sbu_0, # of connection points: 4
#     Edge 32, Type (0, 0), BuildingBlock: CIFDUS_clean_linker_0, # of connection points: 2
#     Edge 33, Type (0, 0), BuildingBlock: CIFDUS_clean_linker_0, # of connection points: 2
#     Edge 34, Type (0, 0), BuildingBlock: CIFDUS_clean_linker_0, # of connection points: 2
#     Edge 35, Type (0, 0), BuildingBlock: CIFDUS_clean_linker_0, # of connection points: 2
#     Edge 36, Type (0, 0), BuildingBlock: CIFDUS_clean_linker_0, # of connection points: 2
#     Edge 37, Type (0, 0), BuildingBlock: CIFDUS_clean_linker_0, # of connection points: 2
#     Edge 38, Type (0, 0), BuildingBlock: CIFDUS_clean_linker_0, # of connection points: 2
#     Edge 39, Type (0, 0), BuildingBlock: CIFDUS_clean_linker_0, # of connection points: 2
#     Edge 40, Type (0, 0), BuildingBlock: CIFDUS_clean_linker_0, # of connection points: 2
#     Edge 41, Type (0, 0), BuildingBlock: CIFDUS_clean_linker_0, # of connection points: 2
#     Edge 42, Type (0, 0), BuildingBlock: CIFDUS_clean_linker_0, # of connection points: 2
#     Edge 43, Type (0, 0), BuildingBlock: CIFDUS_clean_linker_0, # of connection points: 2
#     Edge 44, Type (0, 0), BuildingBlock: CIFDUS_clean_linker_0, # of connection points: 2
#     Edge 45, Type (0, 0), BuildingBlock: CIFDUS_clean_linker_0, # of connection points: 2
#     Edge 46, Type (0, 0), BuildingBlock: CIFDUS_clean_linker_0, # of connection points: 2
#     Edge 47, Type (0, 0), BuildingBlock: CIFDUS_clean_linker_0, # of connection points: 2
#     Edge 48, Type (0, 0), BuildingBlock: CIFDUS_clean_linker_0, # of connection points: 2
#     Edge 49, Type (0, 0), BuildingBlock: CIFDUS_clean_linker_0, # of connection points: 2
#     Edge 50, Type (0, 0), BuildingBlock: CIFDUS_clean_linker_0, # of connection points: 2
#     Edge 51, Type (0, 0), BuildingBlock: CIFDUS_clean_linker_0, # of connection points: 2
#     Edge 52, Type (0, 0), BuildingBlock: CIFDUS_clean_linker_0, # of connection points: 2
#     Edge 53, Type (0, 0), BuildingBlock: CIFDUS_clean_linker_0, # of connection points: 2
#     Edge 54, Type (0, 0), BuildingBlock: CIFDUS_clean_linker_0, # of connection points: 2
#     Edge 55, Type (0, 0), BuildingBlock: CIFDUS_clean_linker_0, # of connection points: 2
#     Edge 56, Type (0, 0), BuildingBlock: CIFDUS_clean_linker_0, # of connection points: 2
#     Edge 57, Type (0, 0), BuildingBlock: CIFDUS_clean_linker_0, # of connection points: 2
#     Edge 58, Type (0, 0), BuildingBlock: CIFDUS_clean_linker_0, # of connection points: 2
#     Edge 59, Type (0, 0), BuildingBlock: CIFDUS_clean_linker_0, # of connection points: 2
#     Edge 60, Type (0, 0), BuildingBlock: CIFDUS_clean_linker_0, # of connection points: 2
#     Edge 61, Type (0, 0), BuildingBlock: CIFDUS_clean_linker_0, # of connection points: 2
#     Edge 62, Type (0, 0), BuildingBlock: CIFDUS_clean_linker_0, # of connection points: 2
#     Edge 63, Type (0, 0), BuildingBlock: CIFDUS_clean_linker_0, # of connection points: 2
#     Edge 64, Type (0, 0), BuildingBlock: CIFDUS_clean_linker_0, # of connection points: 2
#     Edge 65, Type (0, 0), BuildingBlock: CIFDUS_clean_linker_0, # of connection points: 2
#     Edge 66, Type (0, 0), BuildingBlock: CIFDUS_clean_linker_0, # of connection points: 2
#     Edge 67, Type (0, 0), BuildingBlock: CIFDUS_clean_linker_0, # of connection points: 2
#     Edge 68, Type (0, 0), BuildingBlock: CIFDUS_clean_linker_0, # of connection points: 2
#     Edge 69, Type (0, 0), BuildingBlock: CIFDUS_clean_linker_0, # of connection points: 2
#     Edge 70, Type (0, 0), BuildingBlock: CIFDUS_clean_linker_0, # of connection points: 2
#     Edge 71, Type (0, 0), BuildingBlock: CIFDUS_clean_linker_0, # of connection points: 2
#     Edge 72, Type (0, 0), BuildingBlock: CIFDUS_clean_linker_0, # of connection points: 2
#     Edge 73, Type (0, 0), BuildingBlock: CIFDUS_clean_linker_0, # of connection points: 2
#     Edge 74, Type (0, 0), BuildingBlock: CIFDUS_clean_linker_0, # of connection points: 2
#     Edge 75, Type (0, 0), BuildingBlock: CIFDUS_clean_linker_0, # of connection points: 2
#     Edge 76, Type (0, 0), BuildingBlock: CIFDUS_clean_linker_0, # of connection points: 2
#     Edge 77, Type (0, 0), BuildingBlock: CIFDUS_clean_linker_0, # of connection points: 2
#     Edge 78, Type (0, 0), BuildingBlock: CIFDUS_clean_linker_0, # of connection points: 2
#     Edge 79, Type (0, 0), BuildingBlock: CIFDUS_clean_linker_0, # of connection points: 2
#     Edge 80, Type (0, 0), BuildingBlock: CIFDUS_clean_linker_0, # of connection points: 2
#     Edge 81, Type (0, 0), BuildingBlock: CIFDUS_clean_linker_0, # of connection points: 2
#     Edge 82, Type (0, 0), BuildingBlock: CIFDUS_clean_linker_0, # of connection points: 2
#     Edge 83, Type (0, 0), BuildingBlock: CIFDUS_clean_linker_0, # of connection points: 2
#     Edge 84, Type (0, 0), BuildingBlock: CIFDUS_clean_linker_0, # of connection points: 2
#     Edge 85, Type (0, 0), BuildingBlock: CIFDUS_clean_linker_0, # of connection points: 2
#     Edge 86, Type (0, 0), BuildingBlock: CIFDUS_clean_linker_0, # of connection points: 2
#     Edge 87, Type (0, 0), BuildingBlock: CIFDUS_clean_linker_0, # of connection points: 2
#     Edge 88, Type (0, 0), BuildingBlock: CIFDUS_clean_linker_0, # of connection points: 2
#     Edge 89, Type (0, 0), BuildingBlock: CIFDUS_clean_linker_0, # of connection points: 2
#     Edge 90, Type (0, 0), BuildingBlock: CIFDUS_clean_linker_0, # of connection points: 2
#     Edge 91, Type (0, 0), BuildingBlock: CIFDUS_clean_linker_0, # of connection points: 2
#     Edge 92, Type (0, 0), BuildingBlock: CIFDUS_clean_linker_0, # of connection points: 2
#     Edge 93, Type (0, 0), BuildingBlock: CIFDUS_clean_linker_0, # of connection points: 2
#     Edge 94, Type (0, 0), BuildingBlock: CIFDUS_clean_linker_0, # of connection points: 2
#     Edge 95, Type (0, 0), BuildingBlock: CIFDUS_clean_linker_0, # of connection points: 2
# Relax obj value: 0.318
# Max RMSD: 0.128
# Mean RMSD: 0.128
data_MOF--net-dei--node1-UXUYUI_clean_sbu_0--edge1-CIFDUS_clean_linker_0
_symmetry_space_group_name_H-M    P1
_symmetry_Int_Tables_number       1
_symmetry_cell_setting            triclinic
loop_
_symmetry_equiv_pos_as_xyz
'x, y, z'
_cell_length_a     66.527713
_cell_length_b     66.521344
_cell_length_c     132.50611
_cell_angle_alpha  90.008397
_cell_angle_beta   90.00687
_cell_angle_gamma 89.994031
loop_
_atom_site_label
_atom_site_type_symbol
_atom_site_fract_x
_atom_site_fract_y
_atom_site_fract_z
_atom_type_partial_charge
Li0 Li 0.16437 0.62113 0.04782 0.0
Li1 Li 0.16372 0.59328 0.05966 0.0
Li2 Li 0.16637 0.58656 0.04155 0.0
Li3 Li 0.13495 0.59792 0.04885 0.0
C4 C 0.20277 0.60565 0.0449 0.0
N5 N 0.23665 0.61456 0.0337 0.0
C6 C 0.22187 0.6018 0.04883 0.0
C7 C 0.20089 0.61403 0.03527 0.0
C8 C 0.23882 0.60641 0.04305 0.0
C9 C 0.2182 0.61842 0.02973 0.0
C10 C 0.14267 0.62323 0.06866 0.0
C11 C 0.12686 0.61978 0.08494 0.0
N12 N 0.13786 0.63556 0.08842 0.0
C13 C 0.15361 0.63959 0.07234 0.0
C14 C 0.12898 0.61341 0.07495 0.0
C15 C 0.15104 0.64554 0.08238 0.0
C16 C 0.158 0.66045 0.04164 0.0
N17 N 0.17188 0.64825 0.04598 0.0
C18 C 0.19446 0.67581 0.04822 0.0
C19 C 0.18985 0.65544 0.04927 0.0
C20 C 0.18032 0.68888 0.04385 0.0
C21 C 0.16191 0.6809 0.0405 0.0
H22 H 0.14369 0.65432 0.03929 0.0
H23 H 0.20048 0.64543 0.05286 0.0
C24 C 0.16698 0.56759 0.07673 0.0
N25 N 0.17209 0.58576 0.07279 0.0
C26 C 0.17038 0.56358 0.08693 0.0
C27 C 0.18528 0.59658 0.08862 0.0
C28 C 0.18195 0.59978 0.07836 0.0
C29 C 0.17896 0.5785 0.09303 0.0
H30 H 0.1596 0.55651 0.07207 0.0
H31 H 0.18635 0.61386 0.07494 0.0
C32 C 0.13786 0.60512 0.02805 0.0
N33 N 0.11569 0.59798 0.01078 0.0
C34 C 0.13052 0.58587 0.02603 0.0
C35 C 0.13398 0.62075 0.02128 0.0
C36 C 0.11932 0.58255 0.01727 0.0
C37 C 0.12273 0.61684 0.01259 0.0
C38 C 0.13636 0.55712 0.05277 0.0
C39 C 0.13533 0.54187 0.04552 0.0
C40 C 0.12361 0.55646 0.06115 0.0
C41 C 0.12135 0.52639 0.0467 0.0
C42 C 0.10983 0.54072 0.06206 0.0
N43 N 0.10898 0.52615 0.05487 0.0
C44 C 0.18675 0.55225 0.03525 0.0
C45 C 0.17909 0.57482 0.02195 0.0
C46 C 0.19479 0.53845 0.02844 0.0
N47 N 0.17866 0.56974 0.03188 0.0
C48 C 0.18681 0.56141 0.01486 0.0
C49 C 0.1944 0.54273 0.01805 0.0
H50 H 0.18646 0.54883 0.04323 0.0
H51 H 0.17297 0.58904 0.0195 0.0
C52 C 0.09711 0.61488 0.05159 0.0
N53 N 0.10614 0.5978 0.04825 0.0
C54 C 0.07619 0.61636 0.05185 0.0
C55 C 0.0741 0.58269 0.04512 0.0
C56 C 0.09509 0.582 0.04483 0.0
C57 C 0.0643 0.6 0.04874 0.0
H58 H 0.10621 0.6274 0.05409 0.0
H59 H 0.10247 0.56873 0.04197 0.0
O60 O 0.18608 0.60108 0.05048 0.0
O61 O 0.14531 0.61692 0.05892 0.0
O62 O 0.14886 0.60873 0.03658 0.0
O63 O 0.14993 0.57244 0.05171 0.0
H64 H 0.22357 0.59529 0.05628 0.0
H65 H 0.18625 0.61716 0.0321 0.0
H66 H 0.25371 0.60351 0.046 0.0
H67 H 0.21696 0.62491 0.02227 0.0
H68 H 0.11645 0.6122 0.08992 0.0
H69 H 0.16418 0.64745 0.06755 0.0
H70 H 0.1201 0.601 0.07215 0.0
H71 H 0.15955 0.65804 0.08536 0.0
H72 H 0.20885 0.68128 0.05087 0.0
H73 H 0.15033 0.69044 0.03733 0.0
H74 H 0.16531 0.54948 0.09014 0.0
H75 H 0.19206 0.60834 0.09313 0.0
H76 H 0.13353 0.57362 0.03115 0.0
H77 H 0.13964 0.63573 0.02271 0.0
H78 H 0.11355 0.56771 0.01562 0.0
H79 H 0.11962 0.62879 0.00728 0.0
H80 H 0.14516 0.54202 0.03902 0.0
H81 H 0.12431 0.56799 0.06687 0.0
H82 H 0.12033 0.51456 0.04112 0.0
H83 H 0.09981 0.54009 0.06848 0.0
H84 H 0.20081 0.5244 0.03125 0.0
H85 H 0.18601 0.5653 0.00694 0.0
H86 H 0.06946 0.63024 0.05445 0.0
H87 H 0.06571 0.56961 0.0427 0.0
Li88 Li 0.6241 0.9128 0.29689 0.0
Li89 Li 0.64904 0.91017 0.31015 0.0
Li90 Li 0.66005 0.91424 0.29245 0.0
Li91 Li 0.64613 0.88209 0.29873 0.0
C92 C 0.64045 0.95188 0.2968 0.0
N93 N 0.63288 0.98907 0.28831 0.0
C94 C 0.63753 0.96868 0.30297 0.0
C95 C 0.63967 0.95404 0.28632 0.0
C96 C 0.63367 0.98734 0.29853 0.0
C97 C 0.6358 0.97294 0.28217 0.0
C98 C 0.61762 0.89123 0.3174 0.0
C99 C 0.61808 0.87648 0.33401 0.0
N100 N 0.60327 0.88933 0.33693 0.0
C101 C 0.60231 0.90419 0.32052 0.0
C102 C 0.62548 0.87715 0.32415 0.0
C103 C 0.59528 0.90302 0.33044 0.0
C104 C 0.58671 0.90521 0.28917 0.0
N105 N 0.59763 0.92024 0.2934 0.0
C106 C 0.56916 0.94211 0.29323 0.0
C107 C 0.58938 0.93849 0.29545 0.0
C108 C 0.55744 0.92674 0.28894 0.0
C109 C 0.56655 0.90817 0.28681 0.0
H110 H 0.59364 0.89075 0.28782 0.0
H111 H 0.59829 0.95005 0.29901 0.0
C112 C 0.66748 0.90725 0.32942 0.0
N113 N 0.65367 0.91737 0.32382 0.0
C114 C 0.66899 0.91073 0.33977 0.0
C115 C 0.64269 0.93565 0.33832 0.0
C116 C 0.64167 0.93165 0.328 0.0
C117 C 0.65621 0.92483 0.34439 0.0
H118 H 0.67685 0.89601 0.32591 0.0
H119 H 0.63077 0.9394 0.32336 0.0
C120 C 0.63448 0.89422 0.27652 0.0
N121 N 0.62578 0.88772 0.25637 0.0
C122 C 0.6415 0.87695 0.27165 0.0
C123 C 0.62287 0.9081 0.27114 0.0
C124 C 0.637 0.87396 0.26146 0.0
C125 C 0.61868 0.90456 0.26097 0.0
C126 C 0.68568 0.88163 0.3033 0.0
C127 C 0.70121 0.88171 0.29619 0.0
C128 C 0.68497 0.8665 0.31061 0.0
C129 C 0.71571 0.86652 0.29648 0.0
C130 C 0.69974 0.85156 0.31064 0.0
N131 N 0.71467 0.85189 0.30363 0.0
C132 C 0.69105 0.94114 0.28686 0.0
C133 C 0.68152 0.91772 0.27425 0.0
C134 C 0.70599 0.949 0.28058 0.0
N135 N 0.67932 0.92569 0.28361 0.0
C136 C 0.69604 0.92522 0.26771 0.0
C137 C 0.70863 0.94092 0.27088 0.0
H138 H 0.689 0.9471 0.29439 0.0
H139 H 0.67242 0.90517 0.27192 0.0
C140 C 0.62949 0.8437 0.30085 0.0
N141 N 0.64587 0.85352 0.2972 0.0
C142 C 0.62796 0.82285 0.29994 0.0
C143 C 0.66025 0.82253 0.29157 0.0
C144 C 0.66099 0.84343 0.29249 0.0
C145 C 0.64355 0.81203 0.29531 0.0
H146 H 0.61755 0.85209 0.30443 0.0
H147 H 0.67357 0.85159 0.28937 0.0
O148 O 0.64416 0.93352 0.30106 0.0
O149 O 0.62512 0.89256 0.30782 0.0
O150 O 0.63873 0.89731 0.28653 0.0
O151 O 0.67138 0.8964 0.30314 0.0
H152 H 0.63818 0.9673 0.3111 0.0
H153 H 0.6422 0.94131 0.28144 0.0
H154 H 0.63131 0.00045 0.30321 0.0
H155 H 0.63516 0.97481 0.27407 0.0
H156 H 0.62413 0.86577 0.33935 0.0
H157 H 0.5961 0.91521 0.31538 0.0
H158 H 0.63732 0.867 0.32183 0.0
H159 H 0.58354 0.91306 0.33299 0.0
H160 H 0.5627 0.95664 0.29499 0.0
H161 H 0.55799 0.89575 0.28373 0.0
H162 H 0.67948 0.90188 0.34417 0.0
H163 H 0.63273 0.94681 0.34154 0.0
H164 H 0.65052 0.86606 0.27565 0.0
H165 H 0.61698 0.9214 0.27477 0.0
H166 H 0.64245 0.86071 0.2576 0.0
H167 H 0.60972 0.91519 0.25673 0.0
H168 H 0.70206 0.89334 0.29051 0.0
H169 H 0.67295 0.86607 0.3161 0.0
H170 H 0.72778 0.86637 0.29101 0.0
H171 H 0.69928 0.83968 0.3162 0.0
H172 H 0.71551 0.96105 0.28329 0.0
H173 H 0.69794 0.91821 0.26039 0.0
H174 H 0.61487 0.81523 0.30294 0.0
H175 H 0.67242 0.81469 0.28783 0.0
Li176 Li 0.33657 0.40017 0.56098 0.0
Li177 Li 0.3356 0.37278 0.54813 0.0
Li178 Li 0.36566 0.39602 0.55013 0.0
Li179 Li 0.33395 0.40784 0.54314 0.0
C180 C 0.35639 0.36926 0.56935 0.0
N181 N 0.35935 0.35592 0.58903 0.0
C182 C 0.34615 0.35194 0.57238 0.0
C183 C 0.36831 0.37968 0.57629 0.0
C184 C 0.34782 0.34546 0.58237 0.0
C185 C 0.36954 0.37274 0.58622 0.0
C186 C 0.29639 0.39942 0.54874 0.0
C187 C 0.26969 0.40114 0.53648 0.0
N188 N 0.26003 0.41486 0.54235 0.0
C189 C 0.28616 0.41341 0.5547 0.0
C190 C 0.28806 0.3931 0.5396 0.0
C191 C 0.2678 0.42108 0.55132 0.0
C192 C 0.33427 0.42495 0.57819 0.0
N193 N 0.32852 0.40701 0.57425 0.0
C194 C 0.31507 0.39662 0.5901 0.0
C195 C 0.31838 0.39325 0.57984 0.0
C196 C 0.32189 0.41455 0.59457 0.0
C197 C 0.33099 0.42911 0.58837 0.0
H198 H 0.34192 0.4358 0.57349 0.0
H199 H 0.3137 0.37923 0.57644 0.0
C200 C 0.34207 0.33299 0.54254 0.0
N201 N 0.32775 0.34616 0.54561 0.0
C202 C 0.33734 0.31273 0.54129 0.0
C203 C 0.30309 0.32015 0.54621 0.0
C204 C 0.30851 0.34029 0.54736 0.0
C205 C 0.31768 0.30604 0.54325 0.0
H206 H 0.35728 0.33819 0.54129 0.0
H207 H 0.29751 0.35118 0.54985 0.0
C208 C 0.36533 0.43568 0.55324 0.0
N209 N 0.39502 0.46471 0.55279 0.0
C210 C 0.36708 0.44848 0.54492 0.0
C211 C 0.37863 0.4377 0.56135 0.0
C212 C 0.38219 0.46307 0.54484 0.0
C213 C 0.39357 0.45244 0.56096 0.0
C214 C 0.35257 0.38322 0.52761 0.0
C215 C 0.36828 0.39112 0.52184 0.0
C216 C 0.33772 0.37158 0.52296 0.0
C217 C 0.36878 0.38739 0.51147 0.0
C218 C 0.33876 0.36819 0.51256 0.0
N219 N 0.35413 0.3761 0.50709 0.0
C220 C 0.4041 0.38215 0.55511 0.0
C221 C 0.40475 0.40991 0.54393 0.0
C222 C 0.42505 0.38155 0.55534 0.0
N223 N 0.39439 0.39635 0.54958 0.0
C224 C 0.42577 0.41002 0.54403 0.0
C225 C 0.43624 0.39576 0.54986 0.0
H226 H 0.39558 0.37119 0.55932 0.0
H227 H 0.39674 0.42075 0.53939 0.0
C228 C 0.31315 0.44283 0.53868 0.0
N229 N 0.32177 0.42666 0.53414 0.0
C230 C 0.30517 0.45844 0.53291 0.0
C231 C 0.31486 0.44041 0.51785 0.0
C232 C 0.32233 0.42499 0.52392 0.0
C233 C 0.30652 0.45766 0.52234 0.0
H234 H 0.313 0.44385 0.54682 0.0
H235 H 0.32915 0.41213 0.5204 0.0
O236 O 0.35466 0.37605 0.55965 0.0
O237 O 0.31452 0.39201 0.55184 0.0
O238 O 0.35063 0.42132 0.55348 0.0
O239 O 0.35199 0.38653 0.53778 0.0
H240 H 0.33688 0.3437 0.56709 0.0
H241 H 0.37635 0.39308 0.57404 0.0
H242 H 0.33989 0.33214 0.58484 0.0
H243 H 0.37857 0.38074 0.59169 0.0
H244 H 0.26312 0.39651 0.52938 0.0
H245 H 0.29243 0.41842 0.56181 0.0
H246 H 0.29581 0.38225 0.53492 0.0
H247 H 0.25975 0.43201 0.55582 0.0
H248 H 0.30813 0.38486 0.59455 0.0
H249 H 0.33601 0.44337 0.5914 0.0
H250 H 0.34913 0.30233 0.53918 0.0
H251 H 0.28776 0.31563 0.54773 0.0
H252 H 0.35702 0.44709 0.53855 0.0
H253 H 0.37751 0.4279 0.56784 0.0
H254 H 0.38376 0.47303 0.53843 0.0
H255 H 0.40401 0.45411 0.56716 0.0
H256 H 0.37993 0.40008 0.52534 0.0
H257 H 0.32546 0.36534 0.5273 0.0
H258 H 0.38082 0.39345 0.50691 0.0
H259 H 0.32734 0.35928 0.50885 0.0
H260 H 0.43237 0.36992 0.55971 0.0
H261 H 0.43368 0.42134 0.53971 0.0
H262 H 0.29861 0.47126 0.53672 0.0
H263 H 0.31661 0.4392 0.50976 0.0
Li264 Li 0.84395 0.08945 0.80865 0.0
Li265 Li 0.8706 0.08674 0.79627 0.0
Li266 Li 0.84751 0.11689 0.79686 0.0
Li267 Li 0.83534 0.08387 0.7908 0.0
C268 C 0.87391 0.10949 0.81655 0.0
N269 N 0.88587 0.11238 0.83646 0.0
C270 C 0.88883 0.09672 0.8203 0.0
C271 C 0.86522 0.12388 0.82288 0.0
C272 C 0.89465 0.09841 0.8304 0.0
C273 C 0.87142 0.12504 0.83294 0.0
C274 C 0.85557 0.04729 0.79619 0.0
C275 C 0.86283 0.02606 0.78189 0.0
N276 N 0.86549 0.01019 0.78823 0.0
C277 C 0.85826 0.03076 0.80255 0.0
C278 C 0.8578 0.04492 0.78577 0.0
C279 C 0.86332 0.01214 0.79839 0.0
C280 C 0.82324 0.09392 0.82711 0.0
N281 N 0.83761 0.08314 0.82225 0.0
C282 C 0.84629 0.06603 0.83749 0.0
C283 C 0.84879 0.06907 0.82713 0.0
C284 C 0.83226 0.07772 0.84279 0.0
C285 C 0.82036 0.09151 0.83746 0.0
H286 H 0.81445 0.10485 0.82304 0.0
H287 H 0.86024 0.06085 0.82307 0.0
C288 C 0.90876 0.09655 0.7909 0.0
N289 N 0.89779 0.08037 0.79382 0.0
C290 C 0.92947 0.09497 0.78973 0.0
C291 C 0.92724 0.05982 0.7943 0.0
C292 C 0.90647 0.06213 0.79544 0.0
C293 C 0.93898 0.07653 0.79162 0.0
H294 H 0.90138 0.11086 0.78973 0.0
H295 H 0.89747 0.04958 0.79794 0.0
C296 C 0.80747 0.11646 0.8003 0.0
N297 N 0.77751 0.14519 0.79945 0.0
C298 C 0.79246 0.11521 0.79294 0.0
C299 C 0.80719 0.13227 0.80725 0.0
C300 C 0.77745 0.1299 0.79263 0.0
C301 C 0.79193 0.14666 0.80669 0.0
C302 C 0.86192 0.10373 0.7753 0.0
C303 C 0.85421 0.12008 0.76992 0.0
C304 C 0.87516 0.09044 0.77053 0.0
C305 C 0.85965 0.12271 0.75982 0.0
C306 C 0.88024 0.09359 0.76043 0.0
N307 N 0.87243 0.10951 0.75532 0.0
C308 C 0.86341 0.15558 0.79857 0.0
C309 C 0.83237 0.15502 0.78979 0.0
C310 C 0.86475 0.17639 0.7974 0.0
N311 N 0.84734 0.14536 0.79484 0.0
C312 C 0.83286 0.1759 0.78865 0.0
C313 C 0.84925 0.18676 0.79247 0.0
H314 H 0.87526 0.14753 0.80242 0.0
H315 H 0.82005 0.14656 0.78661 0.0
C316 C 0.806 0.05556 0.78505 0.0
N317 N 0.81732 0.07125 0.78174 0.0
C318 C 0.79139 0.04709 0.77878 0.0
C319 C 0.80087 0.07075 0.76576 0.0
C320 C 0.81514 0.0788 0.77229 0.0
C321 C 0.78856 0.05489 0.76903 0.0
H322 H 0.80801 0.04998 0.79265 0.0
H323 H 0.82394 0.09154 0.76992 0.0
O324 O 0.86755 0.10764 0.80679 0.0
O325 O 0.85075 0.06562 0.80019 0.0
O326 O 0.82222 0.10215 0.80074 0.0
O327 O 0.85682 0.10103 0.78522 0.0
H328 H 0.89565 0.08547 0.8155 0.0
H329 H 0.85366 0.13386 0.82008 0.0
H330 H 0.90608 0.08854 0.83343 0.0
H331 H 0.8647 0.13597 0.83796 0.0
H332 H 0.86461 0.02403 0.77384 0.0
H333 H 0.85653 0.03231 0.81064 0.0
H334 H 0.85554 0.05746 0.78073 0.0
H335 H 0.86552 0.99923 0.80323 0.0
H336 H 0.85587 0.05538 0.84137 0.0
H337 H 0.80924 0.10063 0.84129 0.0
H338 H 0.93804 0.10814 0.78758 0.0
H339 H 0.93414 0.04543 0.79591 0.0
H340 H 0.79236 0.10304 0.78753 0.0
H341 H 0.81884 0.13366 0.8129 0.0
H342 H 0.76576 0.12913 0.78697 0.0
H343 H 0.79163 0.15906 0.81197 0.0
H344 H 0.84396 0.13051 0.77346 0.0
H345 H 0.88157 0.07788 0.77458 0.0
H346 H 0.85369 0.13524 0.75556 0.0
H347 H 0.89043 0.08339 0.75665 0.0
H348 H 0.87761 0.18434 0.80044 0.0
H349 H 0.82077 0.18344 0.7847 0.0
H350 H 0.78216 0.0349 0.78157 0.0
H351 H 0.79884 0.07755 0.7584 0.0
Li352 Li 0.16469 0.41337 0.95342 0.0
Li353 Li 0.13193 0.40432 0.94787 0.0
Li354 Li 0.16162 0.37972 0.94818 0.0
Li355 Li 0.16047 0.40897 0.93601 0.0
C356 C 0.14487 0.39705 0.96929 0.0
N357 N 0.14171 0.4068 0.98949 0.0
C358 C 0.13532 0.41483 0.97221 0.0
C359 C 0.15261 0.3841 0.97663 0.0
C360 C 0.13396 0.41954 0.98246 0.0
C361 C 0.1509 0.38932 0.98681 0.0
C362 C 0.13453 0.44126 0.93869 0.0
C363 C 0.11157 0.44473 0.9247 0.0
N364 N 0.10932 0.46456 0.92692 0.0
C365 C 0.13198 0.46168 0.94083 0.0
C366 C 0.12421 0.43272 0.93057 0.0
C367 C 0.11918 0.4732 0.9348 0.0
C368 C 0.17614 0.44951 0.96254 0.0
N369 N 0.17789 0.42925 0.96336 0.0
C370 C 0.19428 0.43244 0.97931 0.0
C371 C 0.18734 0.42059 0.97135 0.0
C372 C 0.19164 0.45336 0.97893 0.0
C373 C 0.18298 0.46194 0.97027 0.0
H374 H 0.16874 0.45597 0.95605 0.0
H375 H 0.18879 0.40443 0.97173 0.0
C376 C 0.09249 0.38895 0.94838 0.0
N377 N 0.10357 0.40595 0.94957 0.0
C378 C 0.07155 0.38968 0.9491 0.0
C379 C 0.07388 0.42529 0.95254 0.0
C380 C 0.09476 0.42384 0.95182 0.0
C381 C 0.06199 0.4081 0.95108 0.0
H382 H 0.09993 0.37487 0.94672 0.0
H383 H 0.10391 0.43705 0.95299 0.0
C384 C 0.20084 0.40705 0.94696 0.0
N385 N 0.23623 0.42491 0.95315 0.0
C386 C 0.20615 0.42604 0.94332 0.0
C387 C 0.21357 0.39707 0.95369 0.0
C388 C 0.2241 0.43484 0.94656 0.0
C389 C 0.2314 0.40637 0.95674 0.0
C390 C 0.13566 0.37324 0.92966 0.0
C391 C 0.14826 0.3577 0.92642 0.0
C392 C 0.11673 0.37556 0.92521 0.0
C393 C 0.14183 0.34492 0.9187 0.0
C394 C 0.11085 0.36246 0.91752 0.0
N395 N 0.12341 0.34754 0.91445 0.0
C396 C 0.15383 0.33982 0.95313 0.0
C397 C 0.18703 0.34569 0.94732 0.0
C398 C 0.15762 0.31927 0.95389 0.0
N399 N 0.16842 0.35246 0.94983 0.0
C400 C 0.19152 0.32523 0.948 0.0
C401 C 0.17665 0.3117 0.95124 0.0
H402 H 0.13911 0.34571 0.95495 0.0
H403 H 0.19824 0.35613 0.94459 0.0
C404 C 0.16852 0.43671 0.92005 0.0
N405 N 0.16738 0.41693 0.92261 0.0
C406 C 0.17151 0.44231 0.91 0.0
C407 C 0.17348 0.40713 0.90556 0.0
C408 C 0.17047 0.40225 0.91567 0.0
C409 C 0.17361 0.42739 0.90257 0.0
H410 H 0.16668 0.44816 0.92576 0.0
H411 H 0.17024 0.38671 0.91794 0.0
O412 O 0.14672 0.39236 0.9593 0.0
O413 O 0.14682 0.42978 0.94467 0.0
O414 O 0.18314 0.39842 0.94403 0.0
O415 O 0.14154 0.38567 0.93736 0.0
H416 H 0.12936 0.42505 0.96661 0.0
H417 H 0.16002 0.37025 0.97447 0.0
H418 H 0.12678 0.43335 0.98483 0.0
H419 H 0.15691 0.37951 0.99258 0.0
H420 H 0.10357 0.43829 0.91837 0.0
H421 H 0.13969 0.46857 0.94714 0.0
H422 H 0.12609 0.41707 0.92873 0.0
H423 H 0.11705 0.48901 0.93639 0.0
H424 H 0.20104 0.42529 0.98582 0.0
H425 H 0.18048 0.47799 0.96972 0.0
H426 H 0.06293 0.37609 0.94787 0.0
H427 H 0.06712 0.43971 0.95426 0.0
H428 H 0.1964 0.43399 0.93815 0.0
H429 H 0.20959 0.38244 0.95665 0.0
H430 H 0.22834 0.44958 0.94386 0.0
H431 H 0.24134 0.39889 0.962 0.0
H432 H 0.16299 0.35571 0.9297 0.0
H433 H 0.10661 0.3873 0.92768 0.0
H434 H 0.1515 0.33293 0.91609 0.0
H435 H 0.09626 0.36412 0.91401 0.0
H436 H 0.14557 0.30937 0.95623 0.0
H437 H 0.2064 0.32006 0.94594 0.0
H438 H 0.17191 0.45812 0.90805 0.0
H439 H 0.17492 0.39509 0.90011 0.0
Li440 Li 0.8357 0.91153 0.20568 0.0
Li441 Li 0.84732 0.88103 0.19837 0.0
Li442 Li 0.87113 0.90751 0.20146 0.0
Li443 Li 0.84567 0.91037 0.18763 0.0
C444 C 0.86109 0.89776 0.2211 0.0
N445 N 0.87215 0.90914 0.24037 0.0
C446 C 0.86168 0.88356 0.22886 0.0
C447 C 0.86619 0.91773 0.22313 0.0
C448 C 0.86728 0.88961 0.23856 0.0
C449 C 0.87174 0.92319 0.23292 0.0
C450 C 0.80576 0.88728 0.19776 0.0
C451 C 0.77059 0.87945 0.19582 0.0
N452 N 0.77098 0.86934 0.20474 0.0
C453 C 0.80584 0.87679 0.2069 0.0
C454 C 0.78802 0.88862 0.19216 0.0
C455 C 0.7881 0.86784 0.2103 0.0
C456 C 0.80655 0.93993 0.21179 0.0
N457 N 0.81707 0.9234 0.21472 0.0
C458 C 0.79969 0.92247 0.23045 0.0
C459 C 0.81383 0.91457 0.22382 0.0
C460 C 0.78848 0.93942 0.22763 0.0
C461 C 0.792 0.94823 0.21817 0.0
H462 H 0.80926 0.94645 0.20444 0.0
H463 H 0.8218 0.90104 0.22585 0.0
C464 C 0.85466 0.8419 0.20547 0.0
N465 N 0.84443 0.85252 0.19839 0.0
C466 C 0.85308 0.82099 0.20583 0.0
C467 C 0.83068 0.82232 0.19148 0.0
C468 C 0.8325 0.84324 0.19149 0.0
C469 C 0.84105 0.81085 0.19873 0.0
H470 H 0.86405 0.84971 0.21086 0.0
H471 H 0.82455 0.8521 0.18592 0.0
C472 C 0.8587 0.94989 0.19742 0.0
N473 N 0.87052 0.98959 0.19582 0.0
C474 C 0.86866 0.9566 0.18876 0.0
C475 C 0.85464 0.96342 0.20523 0.0
C476 C 0.87455 0.97672 0.18811 0.0
C477 C 0.86077 0.98341 0.20429 0.0
C478 C 0.873 0.87456 0.18365 0.0
C479 C 0.88936 0.86266 0.1865 0.0
C480 C 0.86118 0.86885 0.17542 0.0
C481 C 0.89359 0.84518 0.18105 0.0
C482 C 0.8659 0.85127 0.17016 0.0
N483 N 0.88188 0.83989 0.17307 0.0
C484 C 0.90824 0.89656 0.20884 0.0
C485 C 0.90757 0.93064 0.20363 0.0
C486 C 0.92878 0.89777 0.21081 0.0
N487 N 0.89821 0.9127 0.2051 0.0
C488 C 0.92814 0.93255 0.20552 0.0
C489 C 0.93907 0.9158 0.20891 0.0
H490 H 0.90033 0.88255 0.21003 0.0
H491 H 0.89933 0.9433 0.20072 0.0
C492 C 0.82328 0.92633 0.17111 0.0
N493 N 0.84159 0.92007 0.1744 0.0
C494 C 0.82064 0.93187 0.16101 0.0
C495 C 0.85579 0.92472 0.15805 0.0
C496 C 0.85774 0.91939 0.16816 0.0
C497 C 0.83701 0.93086 0.15431 0.0
H498 H 0.81069 0.92664 0.17628 0.0
H499 H 0.87208 0.91423 0.171 0.0
O500 O 0.85552 0.89198 0.21159 0.0
O501 O 0.82291 0.89624 0.19425 0.0
O502 O 0.85259 0.9303 0.19817 0.0
O503 O 0.86844 0.89158 0.18897 0.0
H504 H 0.85772 0.86804 0.22742 0.0
H505 H 0.86597 0.92887 0.21722 0.0
H506 H 0.86774 0.87879 0.24465 0.0
H507 H 0.87573 0.9386 0.23459 0.0
H508 H 0.75674 0.88037 0.19156 0.0
H509 H 0.81942 0.87553 0.21133 0.0
H510 H 0.78773 0.89667 0.18506 0.0
H511 H 0.78794 0.85969 0.21737 0.0
H512 H 0.797 0.91488 0.23756 0.0
H513 H 0.78348 0.96121 0.21571 0.0
H514 H 0.86109 0.81291 0.21167 0.0
H515 H 0.82148 0.81524 0.18576 0.0
H516 H 0.87207 0.94634 0.18268 0.0
H517 H 0.84682 0.95855 0.21197 0.0
H518 H 0.88236 0.98208 0.18148 0.0
H519 H 0.85776 0.99402 0.21029 0.0
H520 H 0.89865 0.86684 0.19286 0.0
H521 H 0.84828 0.87773 0.1732 0.0
H522 H 0.90619 0.8358 0.18318 0.0
H523 H 0.85682 0.84663 0.16381 0.0
H524 H 0.93662 0.88459 0.21356 0.0
H525 H 0.93555 0.94669 0.20391 0.0
H526 H 0.80593 0.93665 0.15846 0.0
H527 H 0.86874 0.92329 0.15315 0.0
Li528 Li 0.36984 0.594 0.45014 0.0
Li529 Li 0.33743 0.58243 0.45631 0.0
Li530 Li 0.34085 0.59379 0.43862 0.0
Li531 Li 0.34153 0.61765 0.45261 0.0
C532 C 0.3619 0.55224 0.44841 0.0
N533 N 0.37712 0.51576 0.45483 0.0
C534 C 0.3738 0.55122 0.45708 0.0
C535 C 0.35776 0.5347 0.44299 0.0
C536 C 0.38135 0.53264 0.46021 0.0
C537 C 0.36559 0.5164 0.44636 0.0
C538 C 0.35406 0.60267 0.473 0.0
C539 C 0.33357 0.60894 0.48768 0.0
N540 N 0.34931 0.60382 0.49371 0.0
C541 C 0.37007 0.59757 0.47934 0.0
C542 C 0.33569 0.60847 0.4772 0.0
C543 C 0.36735 0.59821 0.48979 0.0
C544 C 0.40805 0.60437 0.45734 0.0
N545 N 0.3983 0.59174 0.45094 0.0
C546 C 0.42934 0.57665 0.44596 0.0
C547 C 0.40845 0.57806 0.44527 0.0
C548 C 0.43986 0.58949 0.45252 0.0
C549 C 0.42892 0.60347 0.45827 0.0
H550 H 0.39955 0.61515 0.46172 0.0
H551 H 0.40032 0.56828 0.44018 0.0
C552 C 0.30594 0.55685 0.46349 0.0
N553 N 0.32501 0.56354 0.4651 0.0
C554 C 0.29718 0.54306 0.47017 0.0
C555 C 0.3279 0.54344 0.47991 0.0
C556 C 0.33604 0.55691 0.47305 0.0
C557 C 0.30821 0.53645 0.47857 0.0
H558 H 0.29755 0.56221 0.45703 0.0
H559 H 0.35128 0.56195 0.47408 0.0
C560 C 0.37373 0.61875 0.43343 0.0
N561 N 0.40072 0.62479 0.41789 0.0
C562 C 0.38067 0.6381 0.43127 0.0
C563 C 0.38052 0.60247 0.4277 0.0
C564 C 0.39432 0.64085 0.42338 0.0
C565 C 0.39416 0.60584 0.41987 0.0
C566 C 0.3012 0.60958 0.44886 0.0
C567 C 0.29381 0.61965 0.44038 0.0
C568 C 0.28989 0.60935 0.45775 0.0
C569 C 0.27551 0.62987 0.44103 0.0
C570 C 0.27164 0.61971 0.45809 0.0
N571 N 0.26491 0.62971 0.4498 0.0
C572 C 0.33112 0.57253 0.42063 0.0
C573 C 0.33352 0.60801 0.41925 0.0
C574 C 0.32948 0.5707 0.41015 0.0
N575 N 0.33359 0.59095 0.42489 0.0
C576 C 0.33224 0.60686 0.40878 0.0
C577 C 0.33073 0.588 0.40412 0.0
H578 H 0.33135 0.55924 0.42532 0.0
H579 H 0.33553 0.62245 0.42287 0.0
C580 C 0.34329 0.653 0.46454 0.0
N581 N 0.33583 0.64484 0.4559 0.0
C582 C 0.34147 0.67357 0.46635 0.0
C583 C 0.32434 0.67703 0.45036 0.0
C584 C 0.32653 0.65639 0.44885 0.0
C585 C 0.3322 0.6859 0.45913 0.0
H586 H 0.35148 0.64379 0.46982 0.0
H587 H 0.32171 0.64976 0.44182 0.0
O588 O 0.35431 0.57027 0.44519 0.0
O589 O 0.35638 0.6018 0.46275 0.0
O590 O 0.36026 0.61589 0.4411 0.0
O591 O 0.31903 0.59936 0.44833 0.0
H592 H 0.37713 0.5646 0.4614 0.0
H593 H 0.34858 0.53519 0.43626 0.0
H594 H 0.39055 0.53165 0.46692 0.0
H595 H 0.3625 0.50271 0.44224 0.0
H596 H 0.31942 0.61341 0.49103 0.0
H597 H 0.38437 0.59295 0.47621 0.0
H598 H 0.3233 0.61276 0.4724 0.0
H599 H 0.37958 0.5942 0.49478 0.0
H600 H 0.43719 0.56586 0.44127 0.0
H601 H 0.43639 0.61352 0.4635 0.0
H602 H 0.282 0.5378 0.46886 0.0
H603 H 0.33711 0.53826 0.48614 0.0
H604 H 0.37552 0.65085 0.43564 0.0
H605 H 0.37527 0.5874 0.42926 0.0
H606 H 0.39982 0.65574 0.42162 0.0
H607 H 0.39951 0.59338 0.41536 0.0
H608 H 0.3022 0.61972 0.43339 0.0
H609 H 0.295 0.60107 0.46428 0.0
H610 H 0.26972 0.63789 0.43455 0.0
H611 H 0.26278 0.61972 0.46494 0.0
H612 H 0.32843 0.55591 0.40678 0.0
H613 H 0.33314 0.62051 0.40434 0.0
H614 H 0.34781 0.67984 0.47319 0.0
H615 H 0.31756 0.68608 0.44448 0.0
Li616 Li 0.66138 0.08565 0.70465 0.0
Li617 Li 0.65194 0.11877 0.69756 0.0
Li618 Li 0.62659 0.09069 0.69889 0.0
Li619 Li 0.65348 0.08982 0.68639 0.0
C620 C 0.63673 0.10726 0.71964 0.0
N621 N 0.62754 0.11165 0.73985 0.0
C622 C 0.64364 0.12401 0.72498 0.0
C623 C 0.62496 0.09286 0.72454 0.0
C624 C 0.63889 0.12592 0.73521 0.0
C625 C 0.62052 0.09533 0.73477 0.0
C626 C 0.69178 0.11479 0.69421 0.0
C627 C 0.7108 0.1413 0.68628 0.0
N628 N 0.72382 0.1412 0.6942 0.0
C629 C 0.70541 0.11487 0.70224 0.0
C630 C 0.69455 0.12801 0.68613 0.0
C631 C 0.7215 0.12836 0.7021 0.0
C632 C 0.6894 0.05652 0.71066 0.0
N633 N 0.67848 0.07249 0.71397 0.0
C634 C 0.69483 0.07149 0.72997 0.0
C635 C 0.6808 0.07993 0.72344 0.0
C636 C 0.7068 0.05539 0.72669 0.0
C637 C 0.70381 0.04769 0.71693 0.0
H638 H 0.68734 0.05106 0.70304 0.0
H639 H 0.67241 0.09295 0.72582 0.0
C640 C 0.63829 0.15783 0.69488 0.0
N641 N 0.65395 0.14729 0.69881 0.0
C642 C 0.63746 0.17867 0.6959 0.0
C643 C 0.66903 0.17761 0.70491 0.0
C644 C 0.66912 0.15669 0.70383 0.0
C645 C 0.65292 0.18881 0.70099 0.0
H646 H 0.62622 0.14999 0.6911 0.0
H647 H 0.68106 0.14799 0.7072 0.0
C648 C 0.63732 0.04977 0.69854 0.0
N649 N 0.62196 0.01294 0.7043 0.0
C650 C 0.63106 0.03595 0.69124 0.0
C651 C 0.63601 0.04477 0.70875 0.0
C652 C 0.62326 0.01744 0.6943 0.0
C653 C 0.62814 0.0261 0.71152 0.0
C654 C 0.62505 0.11359 0.67817 0.0
C655 C 0.60712 0.10514 0.67469 0.0
C656 C 0.63637 0.12591 0.6718 0.0
C657 C 0.60096 0.10891 0.66479 0.0
C658 C 0.62972 0.12928 0.66194 0.0
N659 N 0.61231 0.12077 0.65867 0.0
C660 C 0.58969 0.10234 0.70593 0.0
C661 C 0.5883 0.07079 0.69763 0.0
C662 C 0.56886 0.10276 0.70684 0.0
N663 N 0.59892 0.08666 0.70129 0.0
C664 C 0.56734 0.07057 0.69838 0.0
C665 C 0.55739 0.08698 0.70281 0.0
H666 H 0.59851 0.11494 0.70858 0.0
H667 H 0.59593 0.05881 0.6937 0.0
C668 C 0.67835 0.08459 0.66929 0.0
N669 N 0.65968 0.08139 0.6731 0.0
C670 C 0.68245 0.08021 0.65919 0.0
C671 C 0.64816 0.06878 0.65726 0.0
C672 C 0.64486 0.07305 0.66742 0.0
C673 C 0.66708 0.07271 0.65294 0.0
H674 H 0.68996 0.09089 0.67403 0.0
H675 H 0.63025 0.07036 0.67072 0.0
O676 O 0.64128 0.10518 0.70963 0.0
O677 O 0.67596 0.10168 0.69421 0.0
O678 O 0.64501 0.06793 0.69563 0.0
O679 O 0.63145 0.10989 0.6878 0.0
H680 H 0.6527 0.13533 0.72129 0.0
H681 H 0.61913 0.08002 0.72049 0.0
H682 H 0.64423 0.13874 0.73945 0.0
H683 H 0.61145 0.08429 0.73867 0.0
H684 H 0.71308 0.15168 0.6801 0.0
H685 H 0.70356 0.10469 0.70853 0.0
H686 H 0.68423 0.12804 0.67983 0.0
H687 H 0.73212 0.12865 0.70828 0.0
H688 H 0.69701 0.07822 0.73734 0.0
H689 H 0.71281 0.03533 0.71412 0.0
H690 H 0.62483 0.18678 0.69273 0.0
H691 H 0.68109 0.18489 0.70901 0.0
H692 H 0.63212 0.03956 0.68329 0.0
H693 H 0.64111 0.05512 0.71449 0.0
H694 H 0.61826 0.00664 0.68874 0.0
H695 H 0.62699 0.02205 0.7194 0.0
H696 H 0.59814 0.09565 0.67955 0.0
H697 H 0.65016 0.13272 0.67443 0.0
H698 H 0.58717 0.10237 0.66196 0.0
H699 H 0.63839 0.13868 0.6569 0.0
H700 H 0.56175 0.1156 0.71039 0.0
H701 H 0.55899 0.05827 0.69506 0.0
H702 H 0.69739 0.08303 0.65629 0.0
H703 H 0.63575 0.06324 0.65277 0.0
Li704 Li 0.84558 0.39763 0.93847 0.0
Li705 Li 0.83948 0.40879 0.95497 0.0
Li706 Li 0.87285 0.39671 0.95084 0.0
Li707 Li 0.84237 0.37306 0.95226 0.0
C708 C 0.85369 0.4383 0.94097 0.0
N709 N 0.84256 0.47435 0.93226 0.0
C710 C 0.83342 0.44252 0.93921 0.0
C711 C 0.86831 0.45242 0.93831 0.0
C712 C 0.82809 0.46082 0.9348 0.0
C713 C 0.86238 0.47056 0.93391 0.0
C714 C 0.80193 0.39122 0.94909 0.0
C715 C 0.77418 0.3791 0.9591 0.0
N716 N 0.7614 0.39083 0.95367 0.0
C717 C 0.78847 0.40292 0.9435 0.0
C718 C 0.7947 0.37899 0.95686 0.0
C719 C 0.76807 0.40262 0.94598 0.0
C720 C 0.82612 0.38824 0.92037 0.0
N721 N 0.84028 0.40048 0.92448 0.0
C722 C 0.84861 0.41374 0.90828 0.0
C723 C 0.85143 0.41315 0.9187 0.0
C724 C 0.83453 0.40084 0.90379 0.0
C725 C 0.82309 0.38805 0.90995 0.0
H726 H 0.8177 0.37813 0.92516 0.0
H727 H 0.863 0.42228 0.92212 0.0
C728 C 0.83728 0.4462 0.9646 0.0
N729 N 0.82697 0.42872 0.96339 0.0
C730 C 0.83079 0.46056 0.97151 0.0
C731 C 0.80321 0.43869 0.97599 0.0
C732 C 0.81008 0.42485 0.96886 0.0
C733 C 0.81377 0.45669 0.97744 0.0
H734 H 0.85119 0.44862 0.96059 0.0
H735 H 0.80254 0.41063 0.96814 0.0
C736 C 0.87048 0.36932 0.93241 0.0
N737 N 0.88275 0.3595 0.91312 0.0
C738 C 0.86123 0.35352 0.92724 0.0
C739 C 0.88603 0.38005 0.92781 0.0
C740 C 0.86764 0.34881 0.91748 0.0
C741 C 0.89201 0.37487 0.91805 0.0
C742 C 0.85393 0.39638 0.97234 0.0
C743 C 0.86651 0.41161 0.97592 0.0
C744 C 0.83854 0.38898 0.97848 0.0
C745 C 0.86329 0.41943 0.98557 0.0
C746 C 0.83583 0.39719 0.9881 0.0
N747 N 0.84813 0.41213 0.9914 0.0
C748 C 0.91066 0.41545 0.95439 0.0
C749 C 0.91101 0.38 0.9525 0.0
C750 C 0.93156 0.41573 0.95552 0.0
N751 N 0.90094 0.39774 0.95287 0.0
C752 C 0.93186 0.37958 0.95356 0.0
C753 C 0.94246 0.39762 0.95505 0.0
H754 H 0.90219 0.42932 0.95467 0.0
H755 H 0.90281 0.36618 0.95124 0.0
C756 C 0.8244 0.33513 0.94931 0.0
N757 N 0.83551 0.3465 0.95574 0.0
C758 C 0.82166 0.31466 0.95122 0.0
C759 C 0.84105 0.31839 0.96655 0.0
C760 C 0.84349 0.33872 0.96433 0.0
C761 C 0.83051 0.30596 0.95981 0.0
H762 H 0.81836 0.3418 0.94251 0.0
H763 H 0.85237 0.34816 0.96925 0.0
O764 O 0.85931 0.42044 0.94523 0.0
O765 O 0.82189 0.39097 0.94659 0.0
O766 O 0.86396 0.37465 0.94182 0.0
O767 O 0.8564 0.38906 0.96278 0.0
H768 H 0.82197 0.43181 0.94129 0.0
H769 H 0.88408 0.44934 0.93961 0.0
H770 H 0.81244 0.46429 0.93341 0.0
H771 H 0.87354 0.48161 0.9318 0.0
H772 H 0.76842 0.36986 0.96517 0.0
H773 H 0.79368 0.412 0.93726 0.0
H774 H 0.80483 0.36977 0.96124 0.0
H775 H 0.7575 0.41167 0.94175 0.0
H776 H 0.85795 0.42352 0.90372 0.0
H777 H 0.81215 0.37785 0.90671 0.0
H778 H 0.83966 0.47403 0.97262 0.0
H779 H 0.79017 0.4351 0.98054 0.0
H780 H 0.8491 0.34514 0.93068 0.0
H781 H 0.89319 0.39247 0.93168 0.0
H782 H 0.86054 0.33671 0.91335 0.0
H783 H 0.90394 0.38313 0.91436 0.0
H784 H 0.87844 0.41753 0.97122 0.0
H785 H 0.82862 0.37725 0.9758 0.0
H786 H 0.87279 0.43135 0.98841 0.0
H787 H 0.82387 0.39175 0.9929 0.0
H788 H 0.93907 0.42995 0.95678 0.0
H789 H 0.93962 0.36532 0.95298 0.0
H790 H 0.81363 0.30559 0.94576 0.0
H791 H 0.84789 0.31234 0.97332 0.0
Li792 Li 0.34516 0.12213 0.69673 0.0
Li793 Li 0.36921 0.09273 0.69816 0.0
Li794 Li 0.33996 0.09124 0.68699 0.0
Li795 Li 0.33521 0.08921 0.70486 0.0
C796 C 0.36918 0.10893 0.67651 0.0
N797 N 0.38 0.10464 0.65648 0.0
C798 C 0.38601 0.0975 0.67389 0.0
C799 C 0.35793 0.1183 0.66893 0.0
C800 C 0.39124 0.09551 0.66372 0.0
C801 C 0.3636 0.11589 0.65885 0.0
C802 C 0.36538 0.10543 0.71818 0.0
C803 C 0.37751 0.08253 0.7309 0.0
N804 N 0.38419 0.09842 0.73642 0.0
C805 C 0.37234 0.12154 0.72397 0.0
C806 C 0.36798 0.08577 0.72165 0.0
C807 C 0.38182 0.11768 0.73318 0.0
C808 C 0.33977 0.16029 0.70606 0.0
N809 N 0.34344 0.15062 0.6972 0.0
C810 C 0.34739 0.18191 0.6886 0.0
C811 C 0.34707 0.16096 0.68856 0.0
C812 C 0.34417 0.19241 0.69766 0.0
C813 C 0.34005 0.18132 0.70646 0.0
H814 H 0.33706 0.15165 0.71284 0.0
H815 H 0.35011 0.15296 0.68166 0.0
C816 C 0.4046 0.06864 0.69767 0.0
N817 N 0.39656 0.08668 0.70031 0.0
C818 C 0.4252 0.06522 0.69884 0.0
C819 C 0.42854 0.09876 0.7057 0.0
C820 C 0.408 0.10159 0.7043 0.0
C821 C 0.43749 0.08053 0.70277 0.0
H822 H 0.39512 0.05716 0.6944 0.0
H823 H 0.40117 0.11581 0.70625 0.0
C824 C 0.3007 0.10574 0.69236 0.0
N825 N 0.26101 0.10434 0.68632 0.0
C826 C 0.28996 0.08774 0.69299 0.0
C827 C 0.29125 0.12307 0.68876 0.0
C828 C 0.2699 0.08733 0.68987 0.0
C829 C 0.27117 0.12204 0.68571 0.0
C830 C 0.34543 0.0505 0.69696 0.0
C831 C 0.32918 0.04271 0.69152 0.0
C832 C 0.35674 0.03776 0.70314 0.0
C833 C 0.32438 0.02235 0.69245 0.0
C834 C 0.35144 0.0175 0.70388 0.0
N835 N 0.33551 0.01028 0.69857 0.0
C836 C 0.34363 0.06753 0.66973 0.0
C837 C 0.31657 0.09066 0.6688 0.0
C838 C 0.34121 0.06253 0.65958 0.0
N839 N 0.33174 0.08177 0.67403 0.0
C840 C 0.31347 0.08594 0.65866 0.0
C841 C 0.32632 0.07221 0.65387 0.0
H842 H 0.35577 0.06094 0.67403 0.0
H843 H 0.30775 0.1024 0.67223 0.0
C844 C 0.31651 0.09254 0.72341 0.0
N845 N 0.31954 0.07921 0.71579 0.0
C846 C 0.30498 0.0872 0.73177 0.0
C847 C 0.29961 0.05452 0.72427 0.0
C848 C 0.31137 0.06047 0.71607 0.0
C849 C 0.29626 0.06801 0.73224 0.0
H850 H 0.32286 0.10747 0.72292 0.0
H851 H 0.31359 0.05019 0.70991 0.0
O852 O 0.36356 0.11063 0.68643 0.0
O853 O 0.35628 0.10893 0.70909 0.0
O854 O 0.32036 0.10653 0.6953 0.0
O855 O 0.35062 0.07032 0.69604 0.0
H856 H 0.39492 0.09014 0.67961 0.0
H857 H 0.34457 0.1268 0.67076 0.0
H858 H 0.40419 0.08665 0.66159 0.0
H859 H 0.35486 0.12281 0.65291 0.0
H860 H 0.37962 0.06739 0.73368 0.0
H861 H 0.3705 0.13684 0.72136 0.0
H862 H 0.36266 0.07317 0.71725 0.0
H863 H 0.38731 0.12999 0.73774 0.0
H864 H 0.35027 0.18978 0.68159 0.0
H865 H 0.33767 0.18876 0.71363 0.0
H866 H 0.43151 0.05103 0.69638 0.0
H867 H 0.43734 0.11085 0.70892 0.0
H868 H 0.29702 0.07426 0.69584 0.0
H869 H 0.2994 0.13713 0.68826 0.0
H870 H 0.2614 0.07349 0.69028 0.0
H871 H 0.26368 0.1353 0.68286 0.0
H872 H 0.32022 0.05227 0.6867 0.0
H873 H 0.36951 0.04344 0.70731 0.0
H874 H 0.31179 0.01616 0.68832 0.0
H875 H 0.36003 0.0075 0.70866 0.0
H876 H 0.35142 0.05187 0.65613 0.0
H877 H 0.30209 0.09401 0.65445 0.0
H878 H 0.30241 0.09822 0.73764 0.0
H879 H 0.29313 0.03959 0.72435 0.0
Li880 Li 0.62921 0.60274 0.45023 0.0
Li881 Li 0.6588 0.62467 0.45089 0.0
Li882 Li 0.65618 0.59799 0.43814 0.0
Li883 Li 0.66236 0.59061 0.45574 0.0
C884 C 0.63627 0.62929 0.43054 0.0
N885 N 0.63241 0.64355 0.41106 0.0
C886 C 0.64707 0.64623 0.42746 0.0
C887 C 0.6234 0.61968 0.42373 0.0
C888 C 0.64492 0.65321 0.41757 0.0
C889 C 0.6217 0.62709 0.41391 0.0
C890 C 0.64314 0.62533 0.46936 0.0
C891 C 0.65801 0.64799 0.48146 0.0
N892 N 0.63959 0.65612 0.48325 0.0
C893 C 0.62434 0.63383 0.47137 0.0
C894 C 0.66011 0.63236 0.47449 0.0
C895 C 0.62287 0.6494 0.4784 0.0
C896 C 0.5914 0.59015 0.45867 0.0
N897 N 0.60073 0.6024 0.45191 0.0
C898 C 0.56925 0.61628 0.44677 0.0
C899 C 0.59013 0.61548 0.44611 0.0
C900 C 0.55913 0.60353 0.4535 0.0
C901 C 0.57044 0.5903 0.45951 0.0
H902 H 0.60022 0.58029 0.46341 0.0
H903 H 0.59788 0.6254 0.44098 0.0
C904 C 0.68538 0.65816 0.45335 0.0
N905 N 0.66598 0.65171 0.45324 0.0
C906 C 0.68965 0.67845 0.45512 0.0
C907 C 0.65396 0.68473 0.45674 0.0
C908 C 0.65038 0.66453 0.45474 0.0
C909 C 0.67377 0.69187 0.45693 0.0
H910 H 0.69745 0.64762 0.452 0.0
H911 H 0.63512 0.65898 0.45437 0.0
C912 C 0.62815 0.5635 0.44721 0.0
N913 N 0.59713 0.53612 0.44903 0.0
C914 C 0.62718 0.5508 0.4556 0.0
C915 C 0.61337 0.56224 0.43973 0.0
C916 C 0.61138 0.53705 0.45638 0.0
C917 C 0.59779 0.54833 0.4408 0.0
C918 C 0.69793 0.59746 0.4483 0.0
C919 C 0.70538 0.58234 0.44201 0.0
C920 C 0.70879 0.60318 0.45686 0.0
C921 C 0.72357 0.57303 0.44445 0.0
C922 C 0.7269 0.59348 0.45905 0.0
N923 N 0.73384 0.57873 0.45285 0.0
C924 C 0.67075 0.60312 0.4182 0.0
C925 C 0.6549 0.57192 0.42154 0.0
C926 C 0.67206 0.59849 0.40795 0.0
N927 N 0.66156 0.59019 0.42466 0.0
C928 C 0.65611 0.56656 0.41139 0.0
C929 C 0.66418 0.5802 0.40439 0.0
H930 H 0.67627 0.6174 0.42095 0.0
H931 H 0.64819 0.56169 0.42689 0.0
C932 C 0.67734 0.57624 0.47436 0.0
N933 N 0.67546 0.57222 0.46436 0.0
C934 C 0.68477 0.56158 0.48089 0.0
C935 C 0.6889 0.53929 0.46661 0.0
C936 C 0.68147 0.5544 0.46036 0.0
C937 C 0.69006 0.54262 0.47706 0.0
H938 H 0.67223 0.59046 0.47733 0.0
H939 H 0.67963 0.55164 0.45237 0.0
O940 O 0.63834 0.62208 0.44015 0.0
O941 O 0.64492 0.61025 0.4624 0.0
O942 O 0.64344 0.57714 0.44632 0.0
O943 O 0.67997 0.60646 0.44615 0.0
H944 H 0.65714 0.65382 0.43261 0.0
H945 H 0.61496 0.60653 0.42599 0.0
H946 H 0.65325 0.66625 0.41507 0.0
H947 H 0.61191 0.61972 0.40854 0.0
H948 H 0.67104 0.65371 0.48541 0.0
H949 H 0.61104 0.62857 0.46748 0.0
H950 H 0.67479 0.62606 0.47298 0.0
H951 H 0.60843 0.65618 0.47999 0.0
H952 H 0.56109 0.62662 0.44196 0.0
H953 H 0.56319 0.58042 0.46489 0.0
H954 H 0.7051 0.68358 0.45513 0.0
H955 H 0.64135 0.69477 0.4579 0.0
H956 H 0.63836 0.55166 0.46151 0.0
H957 H 0.61383 0.57204 0.43322 0.0
H958 H 0.61041 0.52717 0.46284 0.0
H959 H 0.5862 0.54727 0.4351 0.0
H960 H 0.69712 0.57772 0.43536 0.0
H961 H 0.70318 0.61482 0.46182 0.0
H962 H 0.72948 0.56123 0.43968 0.0
H963 H 0.7354 0.59764 0.46568 0.0
H964 H 0.67831 0.60954 0.40284 0.0
H965 H 0.65034 0.55208 0.40903 0.0
H966 H 0.68513 0.56461 0.48892 0.0
H967 H 0.69287 0.52487 0.46338 0.0
Li968 Li 0.15415 0.87607 0.19971 0.0
Li969 Li 0.12775 0.90163 0.20149 0.0
Li970 Li 0.15469 0.90572 0.18839 0.0
Li971 Li 0.16132 0.91107 0.20624 0.0
C972 C 0.12886 0.86964 0.183 0.0
N973 N 0.11877 0.83978 0.16939 0.0
C974 C 0.10987 0.86067 0.18335 0.0
C975 C 0.14257 0.86362 0.17561 0.0
C976 C 0.1051 0.84553 0.17645 0.0
C977 C 0.13723 0.84848 0.16882 0.0
C978 C 0.13162 0.88649 0.22012 0.0
C979 C 0.10971 0.8998 0.23299 0.0
N980 N 0.10507 0.88075 0.23589 0.0
C981 C 0.12681 0.86704 0.2233 0.0
C982 C 0.12317 0.90301 0.22506 0.0
C983 C 0.11329 0.86445 0.23126 0.0
C984 C 0.17763 0.84016 0.20158 0.0
N985 N 0.1588 0.84796 0.2008 0.0
C986 C 0.14435 0.81512 0.20117 0.0
C987 C 0.1423 0.83594 0.20075 0.0
C988 C 0.1636 0.80653 0.20172 0.0
C989 C 0.1804 0.81933 0.20198 0.0
H990 H 0.19049 0.85008 0.20185 0.0
H991 H 0.12749 0.84257 0.2004 0.0
C992 C 0.0897 0.92124 0.20269 0.0
N993 N 0.09984 0.9037 0.204 0.0
C994 C 0.06877 0.92168 0.20367 0.0
C995 C 0.06943 0.88621 0.20766 0.0
C996 C 0.09021 0.88644 0.20653 0.0
C997 C 0.05836 0.90388 0.20599 0.0
H998 H 0.09779 0.93471 0.20058 0.0
H999 H 0.09865 0.87266 0.2074 0.0
C1000 C 0.19449 0.89208 0.19113 0.0
N1001 N 0.22956 0.88766 0.18015 0.0
C1002 C 0.21013 0.90595 0.19222 0.0
C1003 C 0.19688 0.87575 0.1846 0.0
C1004 C 0.22769 0.90352 0.18657 0.0
C1005 C 0.21465 0.87384 0.17908 0.0
C1006 C 0.14697 0.946 0.19935 0.0
C1007 C 0.1596 0.95667 0.19285 0.0
C1008 C 0.13899 0.95552 0.20786 0.0
C1009 C 0.1643 0.97666 0.19506 0.0
C1010 C 0.14409 0.97552 0.20982 0.0
N1011 N 0.15654 0.98558 0.20343 0.0
C1012 C 0.14301 0.91108 0.16855 0.0
C1013 C 0.17726 0.91954 0.17103 0.0
C1014 C 0.14504 0.91331 0.15816 0.0
N1015 N 0.15917 0.91341 0.17471 0.0
C1016 C 0.17992 0.92222 0.16065 0.0
C1017 C 0.1638 0.91845 0.15409 0.0
H1018 H 0.12867 0.90669 0.1717 0.0
H1019 H 0.18974 0.9219 0.17608 0.0
C1020 C 0.17572 0.91875 0.22558 0.0
N1021 N 0.17701 0.92534 0.2159 0.0
C1022 C 0.18818 0.92673 0.233 0.0
C1023 C 0.20299 0.94851 0.22045 0.0
C1024 C 0.19006 0.94019 0.21325 0.0
C1025 C 0.20235 0.94149 0.23044 0.0
H1026 H 0.16563 0.90665 0.22749 0.0
H1027 H 0.191 0.94505 0.2055 0.0
O1028 O 0.13378 0.88451 0.18973 0.0
O1029 O 0.14469 0.88932 0.21227 0.0
O1030 O 0.17718 0.89425 0.19663 0.0
O1031 O 0.14224 0.92641 0.19732 0.0
H1032 H 0.09891 0.86527 0.1889 0.0
H1033 H 0.15706 0.8708 0.17499 0.0
H1034 H 0.0905 0.83838 0.17669 0.0
H1035 H 0.14773 0.84371 0.16306 0.0
H1036 H 0.10295 0.91246 0.23683 0.0
H1037 H 0.13341 0.85409 0.21966 0.0
H1038 H 0.12689 0.91814 0.22276 0.0
H1039 H 0.10935 0.84949 0.23377 0.0
H1040 H 0.13098 0.80583 0.20088 0.0
H1041 H 0.19549 0.81333 0.20255 0.0
H1042 H 0.0608 0.93558 0.20222 0.0
H1043 H 0.06207 0.87222 0.20962 0.0
H1044 H 0.20871 0.91853 0.19731 0.0
H1045 H 0.18527 0.86452 0.18388 0.0
H1046 H 0.23984 0.91423 0.18728 0.0
H1047 H 0.21664 0.86131 0.17397 0.0
H1048 H 0.16582 0.94956 0.18621 0.0
H1049 H 0.12897 0.94757 0.21288 0.0
H1050 H 0.17415 0.98508 0.19012 0.0
H1051 H 0.13811 0.98305 0.2164 0.0
H1052 H 0.13219 0.91062 0.15332 0.0
H1053 H 0.19458 0.92634 0.15776 0.0
H1054 H 0.18748 0.92053 0.24056 0.0
H1055 H 0.21374 0.95986 0.21817 0.0
Li1056 Li 0.84475 0.62378 0.04513 0.0
Li1057 Li 0.87407 0.59962 0.04747 0.0
Li1058 Li 0.8413 0.58848 0.04148 0.0
Li1059 Li 0.8448 0.59709 0.05887 0.0
C1060 C 0.8607 0.60065 0.02532 0.0
N1061 N 0.8611 0.58363 0.00629 0.0
C1062 C 0.8754 0.58654 0.02276 0.0
C1063 C 0.84624 0.60617 0.01818 0.0
C1064 C 0.87535 0.5781 0.0131 0.0
C1065 C 0.84669 0.59737 0.0086 0.0
C1066 C 0.87736 0.62725 0.06349 0.0
C1067 C 0.89993 0.62194 0.07747 0.0
N1068 N 0.90612 0.64138 0.07675 0.0
C1069 C 0.88384 0.6472 0.06291 0.0
C1070 C 0.88537 0.61454 0.07085 0.0
C1071 C 0.89844 0.65404 0.06967 0.0
C1072 C 0.8345 0.66253 0.05075 0.0
N1073 N 0.83769 0.65071 0.04255 0.0
C1074 C 0.83215 0.67842 0.03145 0.0
C1075 C 0.83652 0.65813 0.03303 0.0
C1076 C 0.82929 0.69119 0.03979 0.0
C1077 C 0.83037 0.68293 0.04954 0.0
H1078 H 0.83566 0.65615 0.05824 0.0
H1079 H 0.83929 0.64842 0.02665 0.0
C1080 C 0.91145 0.57929 0.04556 0.0
N1081 N 0.90262 0.59762 0.04657 0.0
C1082 C 0.93235 0.57772 0.04479 0.0
C1083 C 0.93466 0.61388 0.04618 0.0
C1084 C 0.91372 0.61477 0.04674 0.0
C1085 C 0.94419 0.59517 0.04518 0.0
H1086 H 0.90225 0.5659 0.04527 0.0
H1087 H 0.90631 0.62919 0.04724 0.0
C1088 C 0.80387 0.59888 0.04856 0.0
N1089 N 0.765 0.58506 0.04632 0.0
C1090 C 0.79849 0.58002 0.05232 0.0
C1091 C 0.78949 0.61082 0.04375 0.0
C1092 C 0.77876 0.57327 0.05108 0.0
C1093 C 0.76991 0.60353 0.04267 0.0
C1094 C 0.86134 0.55861 0.05728 0.0
C1095 C 0.84739 0.54291 0.05673 0.0
C1096 C 0.87791 0.55686 0.0637 0.0
C1097 C 0.85009 0.52588 0.06275 0.0
C1098 C 0.88007 0.5396 0.0696 0.0
N1099 N 0.86623 0.5246 0.06901 0.0
C1100 C 0.83878 0.55248 0.03087 0.0
C1101 C 0.81295 0.57544 0.02649 0.0
C1102 C 0.83215 0.53895 0.02359 0.0
N1103 N 0.82914 0.57028 0.03221 0.0
C1104 C 0.80599 0.56246 0.01898 0.0
C1105 C 0.81572 0.54401 0.01746 0.0
H1106 H 0.85211 0.54911 0.03522 0.0
H1107 H 0.80603 0.59001 0.02742 0.0
C1108 C 0.83701 0.61041 0.07833 0.0
N1109 N 0.83657 0.59353 0.07255 0.0
C1110 C 0.83227 0.60948 0.08856 0.0
C1111 C 0.82556 0.574 0.08665 0.0
C1112 C 0.83048 0.57562 0.07644 0.0
C1113 C 0.82671 0.59103 0.09289 0.0
H1114 H 0.84135 0.6246 0.07502 0.0
H1115 H 0.82942 0.56256 0.07168 0.0
O1116 O 0.86018 0.60861 0.03485 0.0
O1117 O 0.86311 0.62029 0.05691 0.0
O1118 O 0.8231 0.60575 0.04965 0.0
O1119 O 0.85909 0.57529 0.05133 0.0
H1120 H 0.8866 0.58197 0.0282 0.0
H1121 H 0.83446 0.61669 0.02008 0.0
H1122 H 0.88659 0.56709 0.01104 0.0
H1123 H 0.83546 0.60135 0.00304 0.0
H1124 H 0.90626 0.61226 0.08321 0.0
H1125 H 0.87777 0.65725 0.05725 0.0
H1126 H 0.88026 0.59919 0.0715 0.0
H1127 H 0.90367 0.66942 0.06929 0.0
H1128 H 0.83125 0.68404 0.0238 0.0
H1129 H 0.8287 0.6922 0.05621 0.0
H1130 H 0.93919 0.56302 0.04401 0.0
H1131 H 0.94329 0.62768 0.04636 0.0
H1132 H 0.80946 0.57066 0.05607 0.0
H1133 H 0.79347 0.62549 0.04083 0.0
H1134 H 0.77439 0.55865 0.0539 0.0
H1135 H 0.75862 0.61256 0.03893 0.0
H1136 H 0.83444 0.54396 0.05182 0.0
H1137 H 0.88909 0.56863 0.06408 0.0
H1138 H 0.83934 0.5137 0.06245 0.0
H1139 H 0.8928 0.53809 0.07463 0.0
H1140 H 0.84036 0.52507 0.02245 0.0
H1141 H 0.79344 0.56694 0.01428 0.0
H1142 H 0.8335 0.62299 0.09308 0.0
H1143 H 0.82093 0.55956 0.08963 0.0
Li1144 Li 0.16041 0.0864 0.79183 0.0
Li1145 Li 0.15525 0.09304 0.80971 0.0
Li1146 Li 0.12762 0.09469 0.79739 0.0
Li1147 Li 0.15365 0.12089 0.79768 0.0
C1148 C 0.1492 0.05191 0.79938 0.0
N1149 N 0.1622 0.01365 0.7946 0.0
C1150 C 0.16321 0.04219 0.80553 0.0
C1151 C 0.14165 0.04213 0.79084 0.0
C1152 C 0.16962 0.02284 0.80298 0.0
C1153 C 0.14847 0.02281 0.78854 0.0
C1154 C 0.19321 0.11552 0.80086 0.0
C1155 C 0.213 0.14206 0.80829 0.0
N1156 N 0.22596 0.14103 0.80037 0.0
C1157 C 0.20673 0.1147 0.7928 0.0
C1158 C 0.19637 0.12926 0.80869 0.0
C1159 C 0.2232 0.12773 0.79269 0.0
C1160 C 0.17227 0.073 0.77262 0.0
N1161 N 0.1763 0.07164 0.78264 0.0
C1162 C 0.20678 0.0539 0.77937 0.0
C1163 C 0.19287 0.06193 0.78613 0.0
C1164 C 0.20366 0.05616 0.76894 0.0
C1165 C 0.18579 0.06525 0.76559 0.0
H1166 H 0.15916 0.08111 0.77007 0.0
H1167 H 0.1958 0.06139 0.79415 0.0
C1168 C 0.1485 0.08 0.82971 0.0
N1169 N 0.16275 0.08635 0.82311 0.0
C1170 C 0.15323 0.07752 0.8399 0.0
C1171 C 0.18764 0.0864 0.83609 0.0
C1172 C 0.18216 0.08895 0.82601 0.0
C1173 C 0.17295 0.08119 0.84325 0.0
H1174 H 0.13329 0.07753 0.82714 0.0
H1175 H 0.19333 0.09342 0.82054 0.0
C1176 C 0.12745 0.11039 0.77909 0.0
N1177 N 0.09595 0.11781 0.76603 0.0
C1178 C 0.12104 0.1301 0.77736 0.0
C1179 C 0.11797 0.09447 0.77411 0.0
C1180 C 0.10506 0.13353 0.77074 0.0
C1181 C 0.10202 0.09852 0.76757 0.0
C1182 C 0.12761 0.11849 0.81765 0.0
C1183 C 0.10958 0.11034 0.82121 0.0
C1184 C 0.13894 0.13106 0.8239 0.0
C1185 C 0.10328 0.11479 0.83102 0.0
C1186 C 0.13214 0.13512 0.83366 0.0
N1187 N 0.11461 0.12697 0.83699 0.0
C1188 C 0.09038 0.0734 0.79617 0.0
C1189 C 0.08891 0.10897 0.79522 0.0
C1190 C 0.0694 0.07219 0.7959 0.0
N1191 N 0.09957 0.09163 0.7959 0.0
C1192 C 0.06803 0.10847 0.79482 0.0
C1193 C 0.05795 0.08994 0.79537 0.0
H1194 H 0.0993 0.05988 0.79686 0.0
H1195 H 0.09668 0.12325 0.79519 0.0
C1196 C 0.17254 0.15673 0.78996 0.0
N1197 N 0.15791 0.14905 0.79601 0.0
C1198 C 0.17502 0.17755 0.78911 0.0
C1199 C 0.14679 0.18206 0.80036 0.0
C1200 C 0.14496 0.16125 0.80104 0.0
C1201 C 0.16212 0.19052 0.79443 0.0
H1202 H 0.18227 0.14673 0.78579 0.0
H1203 H 0.13303 0.15482 0.80552 0.0
O1204 O 0.14296 0.07093 0.80167 0.0
O1205 O 0.17701 0.10287 0.80113 0.0
O1206 O 0.14289 0.1067 0.78565 0.0
O1207 O 0.13408 0.11425 0.80809 0.0
H1208 H 0.16919 0.04956 0.81216 0.0
H1209 H 0.13078 0.04947 0.78601 0.0
H1210 H 0.18054 0.01516 0.80764 0.0
H1211 H 0.14286 0.0151 0.78192 0.0
H1212 H 0.21559 0.15281 0.81427 0.0
H1213 H 0.20447 0.10422 0.78666 0.0
H1214 H 0.18606 0.13007 0.81498 0.0
H1215 H 0.23377 0.12729 0.78649 0.0
H1216 H 0.22029 0.04689 0.78226 0.0
H1217 H 0.18293 0.06764 0.75763 0.0
H1218 H 0.14135 0.07361 0.84512 0.0
H1219 H 0.20312 0.08889 0.83828 0.0
H1220 H 0.12824 0.1426 0.78112 0.0
H1221 H 0.12273 0.07913 0.77539 0.0
H1222 H 0.09988 0.1487 0.76935 0.0
H1223 H 0.09445 0.08634 0.76372 0.0
H1224 H 0.10065 0.10052 0.8165 0.0
H1225 H 0.15286 0.13758 0.82124 0.0
H1226 H 0.08942 0.10852 0.83389 0.0
H1227 H 0.1408 0.14476 0.83859 0.0
H1228 H 0.06226 0.05761 0.79646 0.0
H1229 H 0.05987 0.1225 0.79423 0.0
H1230 H 0.18703 0.18339 0.78444 0.0
H1231 H 0.1361 0.19143 0.80435 0.0
Li1232 Li 0.65786 0.40984 0.54126 0.0
Li1233 Li 0.65341 0.40406 0.55895 0.0
Li1234 Li 0.65791 0.37538 0.54671 0.0
Li1235 Li 0.62573 0.39624 0.54697 0.0
C1236 C 0.69621 0.40303 0.5497 0.0
N1237 N 0.73535 0.41617 0.54769 0.0
C1238 C 0.70196 0.42154 0.55375 0.0
C1239 C 0.71037 0.39105 0.54475 0.0
C1240 C 0.72182 0.42797 0.55261 0.0
C1241 C 0.73009 0.398 0.54378 0.0
C1242 C 0.6354 0.44196 0.55266 0.0
C1243 C 0.61489 0.46893 0.55912 0.0
N1244 N 0.63043 0.48193 0.55774 0.0
C1245 C 0.65116 0.45559 0.55128 0.0
C1246 C 0.61709 0.44867 0.55658 0.0
C1247 C 0.64835 0.47573 0.55389 0.0
C1248 C 0.65267 0.43914 0.52705 0.0
N1249 N 0.66759 0.42798 0.53124 0.0
C1250 C 0.69159 0.44163 0.51969 0.0
C1251 C 0.68683 0.429 0.52777 0.0
C1252 C 0.67627 0.45277 0.51507 0.0
C1253 C 0.65666 0.45159 0.51887 0.0
H1254 H 0.63749 0.43785 0.52988 0.0
H1255 H 0.69837 0.41965 0.53098 0.0
C1256 C 0.66292 0.39644 0.57907 0.0
N1257 N 0.65865 0.41169 0.57259 0.0
C1258 C 0.66482 0.40017 0.58939 0.0
C1259 C 0.65888 0.43541 0.58614 0.0
C1260 C 0.65704 0.43098 0.57589 0.0
C1261 C 0.66242 0.41984 0.59306 0.0
H1262 H 0.66421 0.38124 0.57624 0.0
H1263 H 0.65395 0.44296 0.57067 0.0
C1264 C 0.64429 0.39023 0.5253 0.0
N1265 N 0.6491 0.39879 0.50504 0.0
C1266 C 0.62823 0.39793 0.51971 0.0
C1267 C 0.66274 0.38666 0.52057 0.0
C1268 C 0.63097 0.40221 0.50948 0.0
C1269 C 0.66488 0.39115 0.51032 0.0
C1270 C 0.62512 0.37534 0.56583 0.0
C1271 C 0.62405 0.35628 0.57022 0.0
C1272 C 0.61366 0.39109 0.56978 0.0
C1273 C 0.61143 0.35326 0.5785 0.0
C1274 C 0.60124 0.38747 0.57808 0.0
N1275 N 0.60038 0.36879 0.58223 0.0
C1276 C 0.67624 0.33917 0.55281 0.0
C1277 C 0.66471 0.34005 0.53587 0.0
C1278 C 0.68149 0.31893 0.55182 0.0
N1279 N 0.66772 0.3491 0.54493 0.0
C1280 C 0.66984 0.31994 0.53453 0.0
C1281 C 0.67784 0.30896 0.54264 0.0
H1282 H 0.67825 0.34679 0.55995 0.0
H1283 H 0.65768 0.34824 0.52979 0.0
C1284 C 0.58854 0.4122 0.54089 0.0
N1285 N 0.59742 0.39597 0.54525 0.0
C1286 C 0.56766 0.41303 0.53988 0.0
C1287 C 0.56549 0.38037 0.54782 0.0
C1288 C 0.58642 0.38005 0.54855 0.0
C1289 C 0.55587 0.39708 0.5435 0.0
H1290 H 0.59771 0.4246 0.5383 0.0
H1291 H 0.59388 0.3672 0.55184 0.0
O1292 O 0.67692 0.39638 0.55077 0.0
O1293 O 0.63772 0.42218 0.55009 0.0
O1294 O 0.64208 0.38655 0.53539 0.0
O1295 O 0.63744 0.37854 0.55773 0.0
H1296 H 0.6912 0.43083 0.55773 0.0
H1297 H 0.70612 0.37661 0.54164 0.0
H1298 H 0.7265 0.44232 0.55566 0.0
H1299 H 0.74121 0.38896 0.53992 0.0
H1300 H 0.60082 0.47433 0.5622 0.0
H1301 H 0.66547 0.45066 0.5483 0.0
H1302 H 0.60473 0.43833 0.55768 0.0
H1303 H 0.66042 0.48644 0.55289 0.0
H1304 H 0.70685 0.44219 0.51687 0.0
H1305 H 0.64453 0.46012 0.51549 0.0
H1306 H 0.66737 0.38767 0.59446 0.0
H1307 H 0.65726 0.45083 0.58863 0.0
H1308 H 0.61387 0.40077 0.52326 0.0
H1309 H 0.67537 0.38087 0.52482 0.0
H1310 H 0.61872 0.40831 0.50507 0.0
H1311 H 0.67912 0.38868 0.50659 0.0
H1312 H 0.63289 0.34396 0.56724 0.0
H1313 H 0.6144 0.40594 0.56648 0.0
H1314 H 0.61042 0.33858 0.58198 0.0
H1315 H 0.59228 0.39951 0.58122 0.0
H1316 H 0.68738 0.31095 0.5583 0.0
H1317 H 0.66699 0.31289 0.5273 0.0
H1318 H 0.56077 0.42621 0.53655 0.0
H1319 H 0.55691 0.36767 0.55059 0.0
Li1320 Li 0.34995 0.8774 0.29718 0.0
Li1321 Li 0.37187 0.90826 0.29732 0.0
Li1322 Li 0.3435 0.90557 0.30881 0.0
Li1323 Li 0.33805 0.91153 0.29131 0.0
C1324 C 0.37239 0.88511 0.31781 0.0
N1325 N 0.38029 0.88123 0.33817 0.0
C1326 C 0.3863 0.89782 0.32247 0.0
C1327 C 0.36261 0.87033 0.32347 0.0
C1328 C 0.39007 0.89563 0.33278 0.0
C1329 C 0.36677 0.86865 0.33377 0.0
C1330 C 0.37386 0.89262 0.2784 0.0
C1331 C 0.39411 0.90768 0.26534 0.0
N1332 N 0.40389 0.8899 0.26407 0.0
C1333 C 0.38395 0.87443 0.2769 0.0
C1334 C 0.37882 0.90933 0.27252 0.0
C1335 C 0.39915 0.87339 0.26964 0.0
C1336 C 0.33499 0.84045 0.28952 0.0
N1337 N 0.34921 0.84914 0.29546 0.0
C1338 C 0.36265 0.81702 0.29985 0.0
C1339 C 0.36305 0.83795 0.30049 0.0
C1340 C 0.34798 0.80754 0.2939 0.0
C1341 C 0.33415 0.81952 0.28859 0.0
H1342 H 0.32419 0.84978 0.2856 0.0
H1343 H 0.37432 0.84529 0.30507 0.0
C1344 C 0.40433 0.93596 0.2975 0.0
N1345 N 0.39893 0.91649 0.29594 0.0
C1346 C 0.42449 0.94167 0.29677 0.0
C1347 C 0.43298 0.90719 0.29283 0.0
C1348 C 0.41277 0.90211 0.29381 0.0
C1349 C 0.43903 0.92718 0.29434 0.0
H1350 H 0.39307 0.94698 0.29947 0.0
H1351 H 0.40813 0.88663 0.29299 0.0
C1352 C 0.30438 0.89374 0.3023 0.0
N1353 N 0.26438 0.8985 0.30735 0.0
C1354 C 0.29708 0.91262 0.30511 0.0
C1355 C 0.29139 0.87725 0.30213 0.0
C1356 C 0.2768 0.91474 0.3076 0.0
C1357 C 0.2712 0.87996 0.30469 0.0
C1358 C 0.34763 0.94853 0.29877 0.0
C1359 C 0.33501 0.95962 0.30511 0.0
C1360 C 0.35549 0.9575 0.29009 0.0
C1361 C 0.33021 0.97943 0.30256 0.0
C1362 C 0.35033 0.97733 0.2878 0.0
N1363 N 0.33788 0.98779 0.29403 0.0
C1364 C 0.34497 0.92595 0.32726 0.0
C1365 C 0.32157 0.89908 0.32693 0.0
C1366 C 0.34139 0.92907 0.33751 0.0
N1367 N 0.33528 0.911 0.32225 0.0
C1368 C 0.31739 0.90178 0.33716 0.0
C1369 C 0.32766 0.91669 0.34264 0.0
H1370 H 0.35609 0.93492 0.32336 0.0
H1371 H 0.31439 0.88702 0.32282 0.0
C1372 C 0.32267 0.91516 0.27193 0.0
N1373 N 0.32157 0.92365 0.28124 0.0
C1374 C 0.31055 0.92214 0.26411 0.0
C1375 C 0.29661 0.94685 0.2755 0.0
C1376 C 0.30893 0.93928 0.28314 0.0
C1377 C 0.2971 0.93806 0.26586 0.0
H1378 H 0.33261 0.90257 0.27065 0.0
H1379 H 0.30808 0.9457 0.29059 0.0
O1380 O 0.36798 0.88748 0.30781 0.0
O1381 O 0.35907 0.89398 0.28553 0.0
O1382 O 0.32427 0.89118 0.30009 0.0
O1383 O 0.35255 0.92914 0.30117 0.0
H1384 H 0.39391 0.9094 0.31818 0.0
H1385 H 0.35166 0.86051 0.31998 0.0
H1386 H 0.40071 0.90543 0.33651 0.0
H1387 H 0.35919 0.8574 0.33827 0.0
H1388 H 0.39818 0.92052 0.26077 0.0
H1389 H 0.38021 0.86132 0.28135 0.0
H1390 H 0.37092 0.92339 0.27347 0.0
H1391 H 0.40719 0.85946 0.26844 0.0
H1392 H 0.37376 0.80833 0.30394 0.0
H1393 H 0.32255 0.81277 0.28396 0.0
H1394 H 0.42867 0.95719 0.29807 0.0
H1395 H 0.44385 0.89551 0.2912 0.0
H1396 H 0.30706 0.9254 0.3055 0.0
H1397 H 0.29688 0.86248 0.30008 0.0
H1398 H 0.27095 0.92927 0.3098 0.0
H1399 H 0.26097 0.86732 0.3046 0.0
H1400 H 0.32888 0.95299 0.3119 0.0
H1401 H 0.36547 0.94923 0.28518 0.0
H1402 H 0.32036 0.98814 0.30737 0.0
H1403 H 0.35624 0.98442 0.28108 0.0
H1404 H 0.34994 0.94049 0.34145 0.0
H1405 H 0.30654 0.89201 0.34077 0.0
H1406 H 0.31114 0.91457 0.25688 0.0
H1407 H 0.28658 0.95922 0.27718 0.0
Li1408 Li 0.65942 0.12167 0.54683 0.0
Li1409 Li 0.66143 0.09737 0.56006 0.0
Li1410 Li 0.66462 0.0878 0.54161 0.0
Li1411 Li 0.63182 0.09945 0.54897 0.0
C1412 C 0.70013 0.11446 0.54928 0.0
N1413 N 0.73579 0.13542 0.54761 0.0
C1414 C 0.70576 0.12809 0.55679 0.0
C1415 C 0.71269 0.11131 0.54097 0.0
C1416 C 0.72383 0.1386 0.55578 0.0
C1417 C 0.73066 0.1221 0.54026 0.0
C1418 C 0.62983 0.11998 0.56708 0.0
C1419 C 0.60964 0.10294 0.57954 0.0
N1420 N 0.60576 0.12088 0.58407 0.0
C1421 C 0.62564 0.13824 0.57185 0.0
C1422 C 0.62178 0.10217 0.57096 0.0
C1423 C 0.61344 0.13839 0.58043 0.0
C1424 C 0.64832 0.16123 0.54621 0.0
N1425 N 0.66425 0.14936 0.54384 0.0
C1426 C 0.68254 0.17776 0.53768 0.0
C1427 C 0.6811 0.15713 0.53951 0.0
C1428 C 0.66629 0.19028 0.54012 0.0
C1429 C 0.64899 0.1818 0.54438 0.0
H1430 H 0.63495 0.15463 0.54945 0.0
H1431 H 0.69328 0.14741 0.53729 0.0
C1432 C 0.67312 0.07361 0.57701 0.0
N1433 N 0.67017 0.0925 0.5734 0.0
C1434 C 0.67771 0.07069 0.58721 0.0
C1435 C 0.67665 0.10672 0.5896 0.0
C1436 C 0.67218 0.10892 0.5794 0.0
C1437 C 0.67923 0.08739 0.59368 0.0
H1438 H 0.67151 0.06084 0.57203 0.0
H1439 H 0.66968 0.12376 0.5763 0.0
C1440 C 0.6451 0.12121 0.5287 0.0
N1441 N 0.64645 0.15125 0.51432 0.0
C1442 C 0.62811 0.13298 0.52681 0.0
C1443 C 0.66273 0.12461 0.52322 0.0
C1444 C 0.62912 0.14813 0.51952 0.0
C1445 C 0.66312 0.13988 0.51598 0.0
C1446 C 0.63858 0.05701 0.55144 0.0
C1447 C 0.63431 0.04989 0.54175 0.0
C1448 C 0.6331 0.04557 0.55985 0.0
C1449 C 0.62467 0.03136 0.54064 0.0
C1450 C 0.62342 0.02715 0.55842 0.0
N1451 N 0.61946 0.02048 0.54892 0.0
C1452 C 0.69096 0.05668 0.53525 0.0
C1453 C 0.67066 0.07138 0.52252 0.0
C1454 C 0.69904 0.04311 0.52828 0.0
N1455 N 0.67692 0.07027 0.53226 0.0
C1456 C 0.67843 0.05832 0.51532 0.0
C1457 C 0.69264 0.04379 0.51818 0.0
H1458 H 0.69556 0.05614 0.54308 0.0
H1459 H 0.65916 0.08203 0.5204 0.0
C1460 C 0.59408 0.11669 0.54875 0.0
N1461 N 0.60305 0.09833 0.54862 0.0
C1462 C 0.57319 0.11835 0.5487 0.0
C1463 C 0.57095 0.08211 0.54844 0.0
C1464 C 0.59194 0.08116 0.5485 0.0
C1465 C 0.56131 0.1009 0.54856 0.0
H1466 H 0.60325 0.13011 0.54892 0.0
H1467 H 0.59919 0.06669 0.54854 0.0
O1468 O 0.68265 0.10384 0.55016 0.0
O1469 O 0.64191 0.11969 0.55872 0.0
O1470 O 0.64459 0.10663 0.53598 0.0
O1471 O 0.6482 0.07499 0.55273 0.0
H1472 H 0.69622 0.13063 0.56327 0.0
H1473 H 0.70857 0.10072 0.53513 0.0
H1474 H 0.72834 0.1493 0.5615 0.0
H1475 H 0.7405 0.11989 0.53386 0.0
H1476 H 0.60331 0.08927 0.58262 0.0
H1477 H 0.63183 0.15216 0.56898 0.0
H1478 H 0.62486 0.0879 0.56739 0.0
H1479 H 0.6101 0.15242 0.58421 0.0
H1480 H 0.69603 0.18382 0.53425 0.0
H1481 H 0.63618 0.19103 0.5464 0.0
H1482 H 0.67979 0.05554 0.59001 0.0
H1483 H 0.67728 0.12002 0.5943 0.0
H1484 H 0.61432 0.1305 0.53093 0.0
H1485 H 0.67609 0.11578 0.52467 0.0
H1486 H 0.61611 0.15743 0.51802 0.0
H1487 H 0.67671 0.14278 0.51175 0.0
H1488 H 0.63808 0.05869 0.53517 0.0
H1489 H 0.63622 0.05089 0.56741 0.0
H1490 H 0.62123 0.02568 0.53318 0.0
H1491 H 0.61906 0.01817 0.56486 0.0
H1492 H 0.70992 0.03206 0.53077 0.0
H1493 H 0.67271 0.05901 0.50767 0.0
H1494 H 0.56644 0.13316 0.54869 0.0
H1495 H 0.56238 0.06827 0.54848 0.0
Li1496 Li 0.15624 0.41044 0.80962 0.0
Li1497 Li 0.12931 0.40876 0.79699 0.0
Li1498 Li 0.15438 0.38044 0.79892 0.0
Li1499 Li 0.16376 0.41264 0.79106 0.0
C1500 C 0.12677 0.38649 0.81803 0.0
N1501 N 0.11216 0.37837 0.83712 0.0
C1502 C 0.10834 0.39448 0.82112 0.0
C1503 C 0.13762 0.37414 0.82459 0.0
C1504 C 0.10125 0.39026 0.83082 0.0
C1505 C 0.13003 0.37028 0.83423 0.0
C1506 C 0.13769 0.44907 0.79882 0.0
C1507 C 0.12238 0.47467 0.78848 0.0
N1508 N 0.1165 0.4846 0.79696 0.0
C1509 C 0.13171 0.45964 0.80743 0.0
C1510 C 0.13319 0.45674 0.78927 0.0
C1511 C 0.12093 0.47753 0.80633 0.0
C1512 C 0.1833 0.41869 0.82542 0.0
N1513 N 0.16358 0.41923 0.82277 0.0
C1514 C 0.15412 0.42793 0.83959 0.0
C1515 C 0.14913 0.42447 0.82951 0.0
C1516 C 0.17426 0.42629 0.84271 0.0
C1517 C 0.18902 0.42221 0.8354 0.0
H1518 H 0.19455 0.41491 0.81986 0.0
H1519 H 0.13361 0.42526 0.82717 0.0
C1520 C 0.09321 0.40006 0.78766 0.0
N1521 N 0.10166 0.41335 0.79419 0.0
C1522 C 0.07254 0.40009 0.78604 0.0
C1523 C 0.06955 0.4279 0.79769 0.0
C1524 C 0.09037 0.42732 0.79909 0.0
C1525 C 0.06037 0.4138 0.79128 0.0
H1526 H 0.10244 0.38884 0.78401 0.0
H1527 H 0.09728 0.43728 0.8045 0.0
C1528 C 0.19403 0.3846 0.80332 0.0
N1529 N 0.22556 0.35824 0.80635 0.0
C1530 C 0.20889 0.38237 0.79595 0.0
C1531 C 0.19537 0.37364 0.81229 0.0
C1532 C 0.22467 0.36891 0.79761 0.0
C1533 C 0.21137 0.36033 0.81366 0.0
C1534 C 0.14291 0.39152 0.77622 0.0
C1535 C 0.15071 0.37461 0.77134 0.0
C1536 C 0.1344 0.40703 0.77054 0.0
C1537 C 0.15028 0.37372 0.7608 0.0
C1538 C 0.13425 0.40558 0.76003 0.0
N1539 N 0.14215 0.38911 0.75541 0.0
C1540 C 0.1427 0.34128 0.80365 0.0
C1541 C 0.17241 0.34242 0.79382 0.0
C1542 C 0.14377 0.32039 0.8042 0.0
N1543 N 0.15709 0.35188 0.79869 0.0
C1544 C 0.17404 0.32146 0.79414 0.0
C1545 C 0.15971 0.31021 0.7995 0.0
H1546 H 0.13031 0.34906 0.80719 0.0
H1547 H 0.18338 0.35112 0.78969 0.0
C1548 C 0.18485 0.44463 0.7817 0.0
N1549 N 0.18036 0.42471 0.78116 0.0
C1550 C 0.19772 0.45335 0.77459 0.0
C1551 C 0.20078 0.42091 0.7665 0.0
C1552 C 0.18816 0.41281 0.77381 0.0
C1553 C 0.20576 0.44139 0.76686 0.0
H1554 H 0.17869 0.45368 0.78773 0.0
H1555 H 0.185 0.3969 0.77378 0.0
O1556 O 0.13398 0.39054 0.80857 0.0
O1557 O 0.14825 0.43153 0.79976 0.0
O1558 O 0.17839 0.39763 0.8018 0.0
O1559 O 0.14336 0.3927 0.78653 0.0
H1560 H 0.09966 0.40393 0.81613 0.0
H1561 H 0.15169 0.36751 0.82227 0.0
H1562 H 0.08707 0.39645 0.83333 0.0
H1563 H 0.13832 0.36081 0.8394 0.0
H1564 H 0.11871 0.48074 0.78114 0.0
H1565 H 0.13527 0.45404 0.81488 0.0
H1566 H 0.13811 0.44901 0.78254 0.0
H1567 H 0.11609 0.4858 0.81293 0.0
H1568 H 0.14217 0.43088 0.84493 0.0
H1569 H 0.20476 0.42123 0.83741 0.0
H1570 H 0.06605 0.38906 0.78098 0.0
H1571 H 0.06064 0.4385 0.80199 0.0
H1572 H 0.20823 0.39088 0.78901 0.0
H1573 H 0.18424 0.37545 0.81815 0.0
H1574 H 0.23622 0.36696 0.79194 0.0
H1575 H 0.21254 0.35169 0.82056 0.0
H1576 H 0.15719 0.36239 0.77563 0.0
H1577 H 0.1279 0.41999 0.77421 0.0
H1578 H 0.15641 0.3608 0.75692 0.0
H1579 H 0.1278 0.41752 0.75553 0.0
H1580 H 0.13212 0.31227 0.8082 0.0
H1581 H 0.18653 0.31418 0.79038 0.0
H1582 H 0.20139 0.46917 0.77514 0.0
H1583 H 0.20713 0.41108 0.76081 0.0
Li1584 Li 0.8343 0.90541 0.06205 0.0
Li1585 Li 0.83261 0.8775 0.05021 0.0
Li1586 Li 0.86316 0.90021 0.05128 0.0
Li1587 Li 0.8314 0.91222 0.04396 0.0
C1588 C 0.85417 0.87564 0.07116 0.0
N1589 N 0.85801 0.86452 0.09114 0.0
C1590 C 0.84356 0.85908 0.07486 0.0
C1591 C 0.86693 0.88639 0.07757 0.0
C1592 C 0.84567 0.85372 0.085 0.0
C1593 C 0.86859 0.88059 0.08767 0.0
C1594 C 0.79419 0.89393 0.04791 0.0
C1595 C 0.77679 0.88384 0.03277 0.0
N1596 N 0.75896 0.88548 0.03773 0.0
C1597 C 0.77571 0.89555 0.05285 0.0
C1598 C 0.79477 0.88804 0.03779 0.0
C1599 C 0.75806 0.89118 0.04757 0.0
C1600 C 0.83228 0.93154 0.07887 0.0
N1601 N 0.8263 0.91347 0.07516 0.0
C1602 C 0.81172 0.90453 0.09099 0.0
C1603 C 0.81555 0.90034 0.08086 0.0
C1604 C 0.81862 0.92265 0.09523 0.0
C1605 C 0.82847 0.93652 0.08892 0.0
H1606 H 0.84042 0.94189 0.0741 0.0
H1607 H 0.81069 0.88623 0.07763 0.0
C1608 C 0.84077 0.8384 0.04524 0.0
N1609 N 0.82535 0.85044 0.04813 0.0
C1610 C 0.83769 0.81788 0.04388 0.0
C1611 C 0.80279 0.82253 0.04843 0.0
C1612 C 0.80661 0.84301 0.04978 0.0
C1613 C 0.8185 0.80965 0.04549 0.0
H1614 H 0.85558 0.84477 0.04415 0.0
H1615 H 0.79469 0.85285 0.05227 0.0
C1616 C 0.86302 0.94053 0.05355 0.0
N1617 N 0.89215 0.97007 0.05251 0.0
C1618 C 0.86437 0.95286 0.04503 0.0
C1619 C 0.87642 0.9433 0.06156 0.0
C1620 C 0.8792 0.96771 0.04465 0.0
C1621 C 0.89107 0.95828 0.06088 0.0
C1622 C 0.85397 0.88767 0.02941 0.0
C1623 C 0.86795 0.9007 0.02505 0.0
C1624 C 0.84543 0.87234 0.0236 0.0
C1625 C 0.8732 0.89817 0.01492 0.0
C1626 C 0.85104 0.87033 0.01349 0.0
N1627 N 0.8647 0.88317 0.00939 0.0
C1628 C 0.90082 0.88379 0.05547 0.0
C1629 C 0.90323 0.91374 0.0459 0.0
C1630 C 0.92172 0.88206 0.05578 0.0
N1631 N 0.89199 0.89957 0.05069 0.0
C1632 C 0.92421 0.91267 0.04607 0.0
C1633 C 0.93375 0.89673 0.05113 0.0
H1634 H 0.89162 0.87248 0.05906 0.0
H1635 H 0.89602 0.92601 0.04201 0.0
C1636 C 0.80943 0.94576 0.03855 0.0
N1637 N 0.81942 0.9299 0.03448 0.0
C1638 C 0.8019 0.96094 0.03236 0.0
C1639 C 0.81428 0.94269 0.01786 0.0
C1640 C 0.82135 0.92776 0.02433 0.0
C1641 C 0.80489 0.95986 0.02187 0.0
H1642 H 0.80793 0.94691 0.04666 0.0
H1643 H 0.82891 0.91485 0.02122 0.0
O1644 O 0.85205 0.8813 0.0613 0.0
O1645 O 0.81155 0.89817 0.053 0.0
O1646 O 0.84854 0.92599 0.05409 0.0
O1647 O 0.8487 0.88977 0.03933 0.0
H1648 H 0.83367 0.85058 0.06998 0.0
H1649 H 0.87531 0.89918 0.07479 0.0
H1650 H 0.83746 0.84102 0.088 0.0
H1651 H 0.87828 0.88886 0.09274 0.0
H1652 H 0.77701 0.87928 0.02493 0.0
H1653 H 0.77504 0.90009 0.06069 0.0
H1654 H 0.80892 0.88673 0.03385 0.0
H1655 H 0.74365 0.89234 0.05131 0.0
H1656 H 0.80425 0.89325 0.09552 0.0
H1657 H 0.83362 0.95088 0.09177 0.0
H1658 H 0.85038 0.80852 0.04187 0.0
H1659 H 0.78776 0.81685 0.04973 0.0
H1660 H 0.85419 0.95091 0.03874 0.0
H1661 H 0.8756 0.93388 0.0682 0.0
H1662 H 0.88047 0.97731 0.03809 0.0
H1663 H 0.9016 0.96051 0.067 0.0
H1664 H 0.87444 0.91281 0.02939 0.0
H1665 H 0.83453 0.86215 0.02684 0.0
H1666 H 0.88397 0.90818 0.01143 0.0
H1667 H 0.84452 0.85856 0.0089 0.0
H1668 H 0.92835 0.86926 0.05957 0.0
H1669 H 0.93283 0.92442 0.04244 0.0
H1670 H 0.79444 0.97371 0.03577 0.0
H1671 H 0.81713 0.94123 0.00985 0.0
Li1672 Li 0.37257 0.58756 0.29961 0.0
Li1673 Li 0.34288 0.58815 0.3114 0.0
Li1674 Li 0.33859 0.5859 0.29349 0.0
Li1675 Li 0.34828 0.61715 0.30076 0.0
C1676 C 0.34388 0.54876 0.29977 0.0
N1677 N 0.32497 0.51382 0.29373 0.0
C1678 C 0.32502 0.54378 0.30368 0.0
C1679 C 0.35318 0.53596 0.29283 0.0
C1680 C 0.31569 0.52604 0.30052 0.0
C1681 C 0.34336 0.51836 0.28987 0.0
C1682 C 0.37367 0.60668 0.32086 0.0
C1683 C 0.37044 0.61792 0.3381 0.0
N1684 N 0.38659 0.60649 0.34069 0.0
C1685 C 0.39036 0.5952 0.32368 0.0
C1686 C 0.36375 0.6183 0.32811 0.0
C1687 C 0.39663 0.59527 0.33375 0.0
C1688 C 0.41264 0.59528 0.2954 0.0
N1689 N 0.39969 0.58031 0.29785 0.0
C1690 C 0.42645 0.55639 0.29831 0.0
C1691 C 0.40608 0.56112 0.29931 0.0
C1692 C 0.44028 0.5716 0.29586 0.0
C1693 C 0.4331 0.59126 0.29437 0.0
H1694 H 0.40706 0.61043 0.29439 0.0
H1695 H 0.3954 0.54958 0.30137 0.0
C1696 C 0.31657 0.585 0.32829 0.0
N1697 N 0.33463 0.57942 0.3244 0.0
C1698 C 0.31232 0.58159 0.33847 0.0
C1699 C 0.34474 0.56548 0.34018 0.0
C1700 C 0.34819 0.56889 0.32995 0.0
C1701 C 0.32689 0.57246 0.34459 0.0
H1702 H 0.3058 0.59282 0.32362 0.0
H1703 H 0.36217 0.56411 0.32656 0.0
C1704 C 0.3589 0.60474 0.27854 0.0
N1705 N 0.35561 0.60563 0.25777 0.0
C1706 C 0.34196 0.61325 0.274 0.0
C1707 C 0.37425 0.59684 0.27254 0.0
C1708 C 0.34054 0.61348 0.26348 0.0
C1709 C 0.37229 0.59741 0.26204 0.0
C1710 C 0.30978 0.61819 0.30392 0.0
C1711 C 0.29725 0.62351 0.29587 0.0
C1712 C 0.30936 0.62957 0.31279 0.0
C1713 C 0.28452 0.64011 0.29685 0.0
C1714 C 0.29647 0.6461 0.31346 0.0
N1715 N 0.28441 0.65098 0.30554 0.0
C1716 C 0.30278 0.57373 0.28397 0.0
C1717 C 0.33227 0.5644 0.27512 0.0
C1718 C 0.29078 0.56698 0.27605 0.0
N1719 N 0.32311 0.5732 0.28316 0.0
C1720 C 0.32086 0.55738 0.26702 0.0
C1721 C 0.29984 0.55929 0.26728 0.0
H1722 H 0.29588 0.57999 0.29065 0.0
H1723 H 0.34846 0.56338 0.27485 0.0
C1724 C 0.35989 0.65587 0.30693 0.0
N1725 N 0.34782 0.64602 0.3003 0.0
C1726 C 0.36018 0.67684 0.30721 0.0
C1727 C 0.33582 0.6773 0.2937 0.0
C1728 C 0.33618 0.65629 0.29361 0.0
C1729 C 0.34787 0.6879 0.30061 0.0
H1730 H 0.36942 0.64745 0.31199 0.0
H1731 H 0.32699 0.64825 0.28826 0.0
O1732 O 0.35299 0.5663 0.30259 0.0
O1733 O 0.36703 0.60643 0.31108 0.0
O1734 O 0.36052 0.60416 0.28883 0.0
O1735 O 0.32248 0.60205 0.30311 0.0
H1736 H 0.31757 0.55362 0.309 0.0
H1737 H 0.36769 0.53972 0.28966 0.0
H1738 H 0.30104 0.52203 0.30343 0.0
H1739 H 0.35032 0.50836 0.28446 0.0
H1740 H 0.36278 0.62668 0.3438 0.0
H1741 H 0.39826 0.58613 0.3182 0.0
H1742 H 0.35096 0.62743 0.32606 0.0
H1743 H 0.40942 0.58634 0.33604 0.0
H1744 H 0.43129 0.54102 0.29947 0.0
H1745 H 0.44322 0.60356 0.29269 0.0
H1746 H 0.29837 0.58712 0.34165 0.0
H1747 H 0.35621 0.55822 0.34469 0.0
H1748 H 0.32984 0.61915 0.27854 0.0
H1749 H 0.38747 0.59021 0.27595 0.0
H1750 H 0.32742 0.61982 0.25986 0.0
H1751 H 0.38401 0.59128 0.25729 0.0
H1752 H 0.29756 0.6152 0.28887 0.0
H1753 H 0.31899 0.6258 0.31906 0.0
H1754 H 0.27483 0.64443 0.29066 0.0
H1755 H 0.29608 0.65506 0.32026 0.0
H1756 H 0.27464 0.56878 0.2766 0.0
H1757 H 0.32844 0.5511 0.26051 0.0
H1758 H 0.37013 0.68428 0.31249 0.0
H1759 H 0.32597 0.6851 0.28851 0.0
Li1760 Li 0.66425 0.91115 0.45602 0.0
Li1761 Li 0.63217 0.89969 0.44862 0.0
Li1762 Li 0.66313 0.87749 0.44827 0.0
Li1763 Li 0.66002 0.90682 0.43751 0.0
C1764 C 0.64551 0.88044 0.46947 0.0
N1765 N 0.64101 0.86517 0.48875 0.0
C1766 C 0.62837 0.885 0.47513 0.0
C1767 C 0.66021 0.86783 0.47358 0.0
C1768 C 0.62643 0.87723 0.48488 0.0
C1769 C 0.6577 0.86033 0.48334 0.0
C1770 C 0.63156 0.9403 0.44742 0.0
C1771 C 0.60137 0.95614 0.4412 0.0
N1772 N 0.60167 0.96893 0.44921 0.0
C1773 C 0.63162 0.95368 0.45555 0.0
C1774 C 0.61638 0.9416 0.44014 0.0
C1775 C 0.61636 0.96802 0.45633 0.0
C1776 C 0.69274 0.93699 0.46541 0.0
N1777 N 0.67528 0.92666 0.46666 0.0
C1778 C 0.67181 0.93911 0.48345 0.0
C1779 C 0.66479 0.92756 0.47544 0.0
C1780 C 0.68968 0.95011 0.48238 0.0
C1781 C 0.70028 0.94891 0.47323 0.0
H1782 H 0.70065 0.93618 0.45829 0.0
H1783 H 0.65063 0.91981 0.47612 0.0
C1784 C 0.59297 0.88576 0.44483 0.0
N1785 N 0.60363 0.89944 0.45024 0.0
C1786 C 0.57204 0.88506 0.44557 0.0
C1787 C 0.5734 0.91251 0.45748 0.0
C1788 C 0.59432 0.91246 0.45663 0.0
C1789 C 0.5619 0.89871 0.45188 0.0
H1790 H 0.60075 0.87533 0.43994 0.0
H1791 H 0.60312 0.92294 0.46102 0.0
C1792 C 0.70231 0.89415 0.44934 0.0
N1793 N 0.74039 0.88411 0.45599 0.0
C1794 C 0.71844 0.89387 0.44258 0.0
C1795 C 0.7056 0.88953 0.45949 0.0
C1796 C 0.73757 0.8887 0.44608 0.0
C1797 C 0.72494 0.88444 0.4627 0.0
C1798 C 0.64107 0.87802 0.42766 0.0
C1799 C 0.65381 0.86377 0.42328 0.0
C1800 C 0.62706 0.88815 0.42167 0.0
C1801 C 0.65251 0.86009 0.41292 0.0
C1802 C 0.62627 0.88409 0.41133 0.0
N1803 N 0.63891 0.87027 0.40721 0.0
C1804 C 0.65717 0.83761 0.45283 0.0
C1805 C 0.68997 0.84378 0.44656 0.0
C1806 C 0.66136 0.8172 0.45382 0.0
N1807 N 0.67143 0.8504 0.44932 0.0
C1808 C 0.69484 0.82343 0.44744 0.0
C1809 C 0.68042 0.80985 0.45113 0.0
H1810 H 0.64245 0.84331 0.4548 0.0
H1811 H 0.7009 0.85417 0.44357 0.0
C1812 C 0.65649 0.93156 0.42011 0.0
N1813 N 0.66678 0.91611 0.42438 0.0
C1814 C 0.65894 0.9359 0.40988 0.0
C1815 C 0.68345 0.90914 0.40881 0.0
C1816 C 0.68047 0.90529 0.41905 0.0
C1817 C 0.67218 0.92426 0.40404 0.0
H1818 H 0.64579 0.93999 0.42453 0.0
H1819 H 0.68824 0.89292 0.42262 0.0
O1820 O 0.64752 0.88782 0.45986 0.0
O1821 O 0.64637 0.92613 0.44655 0.0
O1822 O 0.68348 0.89906 0.44599 0.0
O1823 O 0.64254 0.88226 0.43773 0.0
H1824 H 0.61677 0.89459 0.47208 0.0
H1825 H 0.67333 0.86362 0.46927 0.0
H1826 H 0.61331 0.88078 0.48936 0.0
H1827 H 0.66898 0.85058 0.48661 0.0
H1828 H 0.58945 0.9572 0.43567 0.0
H1829 H 0.64333 0.95301 0.4612 0.0
H1830 H 0.61599 0.93127 0.43385 0.0
H1831 H 0.61619 0.97843 0.4626 0.0
H1832 H 0.66286 0.94009 0.49026 0.0
H1833 H 0.71406 0.95728 0.4721 0.0
H1834 H 0.56396 0.8738 0.44129 0.0
H1835 H 0.56636 0.92348 0.46237 0.0
H1836 H 0.71621 0.89756 0.43471 0.0
H1837 H 0.69342 0.89009 0.46485 0.0
H1838 H 0.75017 0.88834 0.44093 0.0
H1839 H 0.72767 0.88083 0.47054 0.0
H1840 H 0.66476 0.85582 0.42782 0.0
H1841 H 0.61706 0.89918 0.42495 0.0
H1842 H 0.66237 0.84921 0.40942 0.0
H1843 H 0.61564 0.89196 0.40658 0.0
H1844 H 0.6496 0.80723 0.45644 0.0
H1845 H 0.70971 0.81839 0.44527 0.0
H1846 H 0.65016 0.94786 0.40651 0.0
H1847 H 0.69362 0.89965 0.40456 0.0
Li1848 Li 0.33753 0.41729 0.70542 0.0
Li1849 Li 0.34555 0.38231 0.70055 0.0
Li1850 Li 0.3712 0.4081 0.70277 0.0
Li1851 Li 0.34803 0.41037 0.68814 0.0
C1852 C 0.36566 0.39426 0.721 0.0
N1853 N 0.39291 0.38924 0.73655 0.0
C1854 C 0.37103 0.37496 0.72418 0.0
C1855 C 0.37391 0.411 0.72585 0.0
C1856 C 0.38489 0.37273 0.73202 0.0
C1857 C 0.38773 0.40816 0.73366 0.0
C1858 C 0.30517 0.39257 0.69481 0.0
C1859 C 0.27769 0.37738 0.68571 0.0
N1860 N 0.26668 0.37698 0.69435 0.0
C1861 C 0.29362 0.39192 0.70363 0.0
C1862 C 0.29716 0.38523 0.68578 0.0
C1863 C 0.27417 0.38404 0.70323 0.0
C1864 C 0.30322 0.44144 0.70805 0.0
N1865 N 0.31886 0.43266 0.71296 0.0
C1866 C 0.30394 0.43962 0.72893 0.0
C1867 C 0.31982 0.43214 0.72319 0.0
C1868 C 0.2869 0.44755 0.72408 0.0
C1869 C 0.28701 0.44913 0.7135 0.0
H1870 H 0.30273 0.4413 0.69989 0.0
H1871 H 0.33226 0.42474 0.72687 0.0
C1872 C 0.35815 0.34265 0.70208 0.0
N1873 N 0.34112 0.35393 0.7018 0.0
C1874 C 0.35706 0.32175 0.70272 0.0
C1875 C 0.32085 0.32428 0.70281 0.0
C1876 C 0.32266 0.34518 0.70222 0.0
C1877 C 0.33821 0.31224 0.70301 0.0
H1878 H 0.37267 0.34996 0.70182 0.0
H1879 H 0.30928 0.35425 0.70203 0.0
C1880 C 0.35152 0.45143 0.69885 0.0
N1881 N 0.33768 0.48991 0.70251 0.0
C1882 C 0.33888 0.4609 0.6919 0.0
C1883 C 0.35732 0.46161 0.70761 0.0
C1884 C 0.332 0.48034 0.6939 0.0
C1885 C 0.3501 0.48103 0.70934 0.0
C1886 C 0.37135 0.37609 0.68368 0.0
C1887 C 0.39103 0.37198 0.68064 0.0
C1888 C 0.35525 0.36709 0.67865 0.0
C1889 C 0.39429 0.35889 0.67256 0.0
C1890 C 0.35913 0.35406 0.67061 0.0
N1891 N 0.3784 0.35027 0.66776 0.0
C1892 C 0.40844 0.39232 0.70712 0.0
C1893 C 0.40901 0.42785 0.7056 0.0
C1894 C 0.4293 0.39168 0.70774 0.0
N1895 N 0.39882 0.41015 0.70591 0.0
C1896 C 0.43002 0.42791 0.70615 0.0
C1897 C 0.4404 0.40956 0.70692 0.0
H1898 H 0.3999 0.37848 0.70715 0.0
H1899 H 0.40093 0.44176 0.70443 0.0
C1900 C 0.32708 0.42157 0.67047 0.0
N1901 N 0.34538 0.41672 0.67431 0.0
C1902 C 0.32485 0.42518 0.66015 0.0
C1903 C 0.36043 0.41904 0.65802 0.0
C1904 C 0.36198 0.41575 0.66837 0.0
C1905 C 0.34163 0.42366 0.65375 0.0
H1906 H 0.31419 0.42252 0.67543 0.0
H1907 H 0.37638 0.41203 0.67167 0.0
O1908 O 0.35232 0.39674 0.71324 0.0
O1909 O 0.32415 0.40047 0.69498 0.0
O1910 O 0.35813 0.43227 0.69711 0.0
O1911 O 0.36796 0.38906 0.6915 0.0
H1912 H 0.36457 0.36183 0.72064 0.0
H1913 H 0.36983 0.42603 0.72353 0.0
H1914 H 0.38925 0.35787 0.73452 0.0
H1915 H 0.39436 0.42099 0.73741 0.0
H1916 H 0.27133 0.37163 0.67877 0.0
H1917 H 0.29966 0.39718 0.71072 0.0
H1918 H 0.30591 0.38554 0.6789 0.0
H1919 H 0.26506 0.38344 0.70998 0.0
H1920 H 0.30439 0.43776 0.73705 0.0
H1921 H 0.27422 0.45523 0.70947 0.0
H1922 H 0.37087 0.31316 0.70304 0.0
H1923 H 0.306 0.31763 0.70291 0.0
H1924 H 0.33428 0.45326 0.68508 0.0
H1925 H 0.36724 0.45459 0.71302 0.0
H1926 H 0.3221 0.4878 0.68861 0.0
H1927 H 0.35438 0.48905 0.71611 0.0
H1928 H 0.40364 0.3789 0.68446 0.0
H1929 H 0.33994 0.37013 0.68092 0.0
H1930 H 0.40944 0.35559 0.67011 0.0
H1931 H 0.34681 0.34697 0.66664 0.0
H1932 H 0.4367 0.37725 0.70847 0.0
H1933 H 0.43804 0.44199 0.7054 0.0
H1934 H 0.31015 0.42904 0.65723 0.0
H1935 H 0.37374 0.41741 0.65339 0.0
Li1936 Li 0.86815 0.09823 0.94974 0.0
Li1937 Li 0.8355 0.08442 0.95511 0.0
Li1938 Li 0.84117 0.09639 0.93742 0.0
Li1939 Li 0.83714 0.12039 0.95107 0.0
C1940 C 0.86818 0.05865 0.94389 0.0
N1941 N 0.89673 0.02855 0.94253 0.0
C1942 C 0.86736 0.04207 0.95036 0.0
C1943 C 0.88337 0.05972 0.93662 0.0
C1944 C 0.88196 0.02706 0.94958 0.0
C1945 C 0.89771 0.04442 0.93608 0.0
C1946 C 0.85257 0.10545 0.97207 0.0
C1947 C 0.83704 0.11185 0.98821 0.0
N1948 N 0.8538 0.10487 0.99293 0.0
C1949 C 0.86976 0.09864 0.97709 0.0
C1950 C 0.83617 0.11236 0.97768 0.0
C1951 C 0.87005 0.09835 0.98763 0.0
C1952 C 0.90752 0.11316 0.9484 0.0
N1953 N 0.89655 0.09727 0.95173 0.0
C1954 C 0.92641 0.08039 0.95715 0.0
C1955 C 0.90551 0.08123 0.95625 0.0
C1956 C 0.9382 0.09635 0.9535 0.0
C1957 C 0.92843 0.11302 0.94921 0.0
H1958 H 0.90001 0.12594 0.94505 0.0
H1959 H 0.89646 0.06899 0.95908 0.0
C1960 C 0.80489 0.0575 0.96218 0.0
N1961 N 0.8237 0.06494 0.96373 0.0
C1962 C 0.79676 0.04345 0.9689 0.0
C1963 C 0.82763 0.04491 0.97851 0.0
C1964 C 0.83519 0.05863 0.97158 0.0
C1965 C 0.80814 0.03728 0.97726 0.0
H1966 H 0.79622 0.06249 0.95574 0.0
H1967 H 0.85042 0.06394 0.97235 0.0
C1968 C 0.86346 0.12756 0.93137 0.0
N1969 N 0.87265 0.14242 0.91244 0.0
C1970 C 0.85325 0.1443 0.92758 0.0
C1971 C 0.87859 0.11861 0.92559 0.0
C1972 C 0.85806 0.15153 0.91798 0.0
C1973 C 0.88295 0.12626 0.91603 0.0
C1974 C 0.79819 0.10696 0.94855 0.0
C1975 C 0.78534 0.11388 0.94096 0.0
C1976 C 0.79153 0.10672 0.95855 0.0
C1977 C 0.76622 0.12089 0.94353 0.0
C1978 C 0.7723 0.11383 0.96082 0.0
N1979 N 0.76016 0.12075 0.95333 0.0
C1980 C 0.84417 0.0774 0.91824 0.0
C1981 C 0.8247 0.1072 0.91879 0.0
C1982 C 0.84237 0.07658 0.90775 0.0
N1983 N 0.83575 0.0928 0.92348 0.0
C1984 C 0.82234 0.10688 0.90835 0.0
C1985 C 0.83164 0.09168 0.90264 0.0
H1986 H 0.85282 0.06611 0.92216 0.0
H1987 H 0.81839 0.11941 0.92314 0.0
C1988 C 0.83624 0.15583 0.96259 0.0
N1989 N 0.82806 0.14657 0.95442 0.0
C1990 C 0.83174 0.17587 0.96465 0.0
C1991 C 0.81041 0.17652 0.94989 0.0
C1992 C 0.81509 0.15634 0.9482 0.0
C1993 C 0.81916 0.1867 0.95809 0.0
H1994 H 0.84686 0.14789 0.96729 0.0
H1995 H 0.80919 0.14878 0.94162 0.0
O1996 O 0.85404 0.07355 0.9446 0.0
O1997 O 0.85203 0.10568 0.96173 0.0
O1998 O 0.85864 0.11995 0.94066 0.0
O1999 O 0.81709 0.10026 0.94618 0.0
H2000 H 0.85553 0.04071 0.9559 0.0
H2001 H 0.88418 0.07228 0.93148 0.0
H2002 H 0.88153 0.0142 0.95457 0.0
H2003 H 0.90962 0.04517 0.93054 0.0
H2004 H 0.82442 0.11709 0.99264 0.0
H2005 H 0.88268 0.09346 0.9729 0.0
H2006 H 0.82303 0.11836 0.97398 0.0
H2007 H 0.88319 0.09295 0.99159 0.0
H2008 H 0.93325 0.0672 0.96049 0.0
H2009 H 0.93683 0.12589 0.94652 0.0
H2010 H 0.78175 0.03765 0.96765 0.0
H2011 H 0.83712 0.04 0.98468 0.0
H2012 H 0.84162 0.15153 0.93195 0.0
H2013 H 0.88689 0.1059 0.92846 0.0
H2014 H 0.85015 0.16437 0.91492 0.0
H2015 H 0.89454 0.11938 0.91146 0.0
H2016 H 0.79006 0.1139 0.93316 0.0
H2017 H 0.801 0.10092 0.96447 0.0
H2018 H 0.7562 0.12642 0.93774 0.0
H2019 H 0.767 0.11377 0.96854 0.0
H2020 H 0.84996 0.06468 0.90368 0.0
H2021 H 0.81365 0.11865 0.90477 0.0
H2022 H 0.83862 0.18298 0.97115 0.0
H2023 H 0.80093 0.1843 0.94452 0.0
Li2024 Li 0.15351 0.61721 0.19963 0.0
Li2025 Li 0.16468 0.584 0.20474 0.0
Li2026 Li 0.15442 0.58915 0.18708 0.0
Li2027 Li 0.12961 0.58754 0.20088 0.0
C2028 C 0.18932 0.61412 0.18864 0.0
N2029 N 0.21331 0.63855 0.17683 0.0
C2030 C 0.20993 0.61553 0.19056 0.0
C2031 C 0.18095 0.62506 0.18069 0.0
C2032 C 0.2218 0.62799 0.18452 0.0
C2033 C 0.19331 0.63733 0.1748 0.0
C2034 C 0.15078 0.60054 0.22142 0.0
C2035 C 0.15061 0.5838 0.23755 0.0
N2036 N 0.16412 0.59743 0.24109 0.0
C2037 C 0.16451 0.61451 0.22523 0.0
C2038 C 0.14362 0.58517 0.22763 0.0
C2039 C 0.17113 0.61264 0.23519 0.0
C2040 C 0.13748 0.65548 0.2023 0.0
N2041 N 0.15519 0.64541 0.20163 0.0
C2042 C 0.17363 0.67592 0.20386 0.0
C2043 C 0.1731 0.65509 0.20251 0.0
C2044 C 0.15555 0.68681 0.20438 0.0
C2045 C 0.1373 0.67628 0.20362 0.0
H2046 H 0.12346 0.64732 0.20169 0.0
H2047 H 0.18698 0.64667 0.20222 0.0
C2048 C 0.18264 0.55312 0.21713 0.0
N2049 N 0.18403 0.57206 0.21333 0.0
C2050 C 0.19705 0.54614 0.22397 0.0
C2051 C 0.21417 0.57809 0.22257 0.0
C2052 C 0.19946 0.58444 0.21583 0.0
C2053 C 0.21302 0.55877 0.22679 0.0
H2054 H 0.17029 0.54354 0.21498 0.0
H2055 H 0.19998 0.59952 0.2128 0.0
C2056 C 0.11965 0.61662 0.18335 0.0
N2057 N 0.09334 0.634 0.16973 0.0
C2058 C 0.102 0.60664 0.18056 0.0
C2059 C 0.12376 0.63558 0.17927 0.0
C2060 C 0.08894 0.61563 0.17364 0.0
C2061 C 0.11033 0.64407 0.17238 0.0
C2062 C 0.13869 0.54804 0.19629 0.0
C2063 C 0.13488 0.5377 0.18731 0.0
C2064 C 0.13247 0.53982 0.20548 0.0
C2065 C 0.12486 0.51925 0.18768 0.0
C2066 C 0.12249 0.52135 0.20553 0.0
N2067 N 0.11892 0.51153 0.1967 0.0
C2068 C 0.17702 0.58195 0.16909 0.0
C2069 C 0.14155 0.58158 0.1674 0.0
C2070 C 0.17934 0.58081 0.15862 0.0
N2071 N 0.15831 0.58312 0.1732 0.0
C2072 C 0.14314 0.58068 0.15694 0.0
C2073 C 0.16221 0.5809 0.15244 0.0
H2074 H 0.19014 0.58278 0.17389 0.0
H2075 H 0.12692 0.58162 0.17088 0.0
C2076 C 0.0932 0.59734 0.20915 0.0
N2077 N 0.10216 0.58235 0.20383 0.0
C2078 C 0.07235 0.59789 0.21013 0.0
C2079 C 0.07035 0.56686 0.20068 0.0
C2080 C 0.09125 0.56707 0.19973 0.0
C2081 C 0.0607 0.58276 0.20565 0.0
H2082 H 0.10222 0.6095 0.21212 0.0
H2083 H 0.09846 0.55584 0.19512 0.0
O2084 O 0.17746 0.60221 0.1946 0.0
O2085 O 0.14453 0.60183 0.21161 0.0
O2086 O 0.1325 0.60813 0.19023 0.0
O2087 O 0.14855 0.56606 0.19605 0.0
H2088 H 0.2167 0.6071 0.19666 0.0
H2089 H 0.16515 0.62387 0.17899 0.0
H2090 H 0.23776 0.62926 0.18594 0.0
H2091 H 0.18701 0.64584 0.16861 0.0
H2092 H 0.1453 0.5719 0.24243 0.0
H2093 H 0.17019 0.6265 0.22051 0.0
H2094 H 0.13283 0.57438 0.2248 0.0
H2095 H 0.18188 0.62323 0.23823 0.0
H2096 H 0.18803 0.68339 0.20458 0.0
H2097 H 0.123 0.68405 0.20388 0.0
H2098 H 0.19568 0.53112 0.22705 0.0
H2099 H 0.22596 0.58848 0.22471 0.0
H2100 H 0.09856 0.59195 0.18355 0.0
H2101 H 0.13711 0.64378 0.18143 0.0
H2102 H 0.07532 0.60798 0.17138 0.0
H2103 H 0.11338 0.6587 0.16917 0.0
H2104 H 0.13964 0.54384 0.18013 0.0
H2105 H 0.13507 0.54775 0.21248 0.0
H2106 H 0.1218 0.51108 0.18079 0.0
H2107 H 0.11752 0.51485 0.21258 0.0
H2108 H 0.19428 0.58092 0.15537 0.0
H2109 H 0.12962 0.58037 0.15238 0.0
H2110 H 0.06534 0.61043 0.21398 0.0
H2111 H 0.06174 0.55517 0.19697 0.0
Li2112 Li 0.34201 0.89841 0.43642 0.0
Li2113 Li 0.34066 0.90646 0.4536 0.0
Li2114 Li 0.37199 0.89342 0.4468 0.0
Li2115 Li 0.34032 0.8715 0.44909 0.0
C2116 C 0.35307 0.93796 0.44075 0.0
N2117 N 0.34186 0.97655 0.43551 0.0
C2118 C 0.33276 0.9432 0.44037 0.0
C2119 C 0.3677 0.95233 0.43849 0.0
C2120 C 0.32738 0.96279 0.43769 0.0
C2121 C 0.36173 0.97177 0.43585 0.0
C2122 C 0.30062 0.89245 0.44899 0.0
C2123 C 0.27425 0.88065 0.45999 0.0
N2124 N 0.26112 0.89342 0.45543 0.0
C2125 C 0.28679 0.90523 0.44431 0.0
C2126 C 0.29425 0.87986 0.45681 0.0
C2127 C 0.26692 0.90559 0.44772 0.0
C2128 C 0.31827 0.89353 0.41922 0.0
N2129 N 0.3339 0.90426 0.42304 0.0
C2130 C 0.34119 0.91808 0.40683 0.0
C2131 C 0.34506 0.91671 0.41716 0.0
C2132 C 0.32583 0.90634 0.40257 0.0
C2133 C 0.31398 0.89431 0.40892 0.0
H2134 H 0.30986 0.88356 0.42409 0.0
H2135 H 0.35771 0.92468 0.42036 0.0
C2136 C 0.34752 0.93782 0.46646 0.0
N2137 N 0.33235 0.92539 0.4636 0.0
C2138 C 0.34531 0.95025 0.47481 0.0
C2139 C 0.31131 0.93802 0.4768 0.0
C2140 C 0.31428 0.92556 0.46843 0.0
C2141 C 0.32721 0.95005 0.48022 0.0
H2142 H 0.36177 0.93727 0.46254 0.0
H2143 H 0.30245 0.91553 0.46612 0.0
C2144 C 0.36288 0.86977 0.42747 0.0
N2145 N 0.36886 0.86299 0.40712 0.0
C2146 C 0.35125 0.85553 0.42238 0.0
C2147 C 0.37766 0.88046 0.42224 0.0
C2148 C 0.35446 0.85235 0.41208 0.0
C2149 C 0.38044 0.87683 0.41195 0.0
C2150 C 0.35849 0.88932 0.46934 0.0
C2151 C 0.37511 0.89938 0.47335 0.0
C2152 C 0.34224 0.88461 0.47559 0.0
C2153 C 0.37502 0.90493 0.48353 0.0
C2154 C 0.3427 0.89043 0.48572 0.0
N2155 N 0.35893 0.90042 0.48944 0.0
C2156 C 0.41056 0.90982 0.45047 0.0
C2157 C 0.41032 0.87701 0.44346 0.0
C2158 C 0.43157 0.91011 0.45039 0.0
N2159 N 0.40046 0.89342 0.44704 0.0
C2160 C 0.43129 0.8768 0.44307 0.0
C2161 C 0.44214 0.89351 0.44655 0.0
H2162 H 0.40227 0.9227 0.45322 0.0
H2163 H 0.40187 0.86418 0.44079 0.0
C2164 C 0.31928 0.83534 0.44564 0.0
N2165 N 0.33183 0.84517 0.45205 0.0
C2166 C 0.31461 0.81515 0.44731 0.0
C2167 C 0.3349 0.81609 0.46245 0.0
C2168 C 0.33937 0.83615 0.46042 0.0
C2169 C 0.32283 0.80513 0.4557 0.0
H2170 H 0.31339 0.84303 0.43909 0.0
H2171 H 0.34928 0.84439 0.46539 0.0
O2172 O 0.35874 0.91888 0.44334 0.0
O2173 O 0.32003 0.89164 0.4456 0.0
O2174 O 0.35945 0.87368 0.43746 0.0
O2175 O 0.35803 0.88438 0.45931 0.0
H2176 H 0.32131 0.9323 0.44216 0.0
H2177 H 0.38351 0.94848 0.43877 0.0
H2178 H 0.3117 0.96705 0.43737 0.0
H2179 H 0.37289 0.98305 0.43407 0.0
H2180 H 0.26916 0.87109 0.46608 0.0
H2181 H 0.29129 0.91469 0.43806 0.0
H2182 H 0.30461 0.86964 0.46042 0.0
H2183 H 0.25608 0.91549 0.44419 0.0
H2184 H 0.35085 0.92729 0.40216 0.0
H2185 H 0.30196 0.88512 0.40591 0.0
H2186 H 0.35782 0.95954 0.47719 0.0
H2187 H 0.29716 0.93755 0.48083 0.0
H2188 H 0.33971 0.84718 0.4263 0.0
H2189 H 0.38662 0.89174 0.42603 0.0
H2190 H 0.34546 0.84149 0.40802 0.0
H2191 H 0.39171 0.88511 0.40778 0.0
H2192 H 0.38784 0.90308 0.46864 0.0
H2193 H 0.3293 0.87676 0.47263 0.0
H2194 H 0.3877 0.91289 0.48671 0.0
H2195 H 0.33013 0.88707 0.49061 0.0
H2196 H 0.43946 0.92332 0.45307 0.0
H2197 H 0.43895 0.86368 0.44012 0.0
H2198 H 0.30539 0.80729 0.44185 0.0
H2199 H 0.34123 0.80913 0.46912 0.0
Li2200 Li 0.85017 0.62071 0.19801 0.0
Li2201 Li 0.87236 0.59102 0.19903 0.0
Li2202 Li 0.84544 0.59215 0.18614 0.0
Li2203 Li 0.83817 0.58716 0.20355 0.0
C2204 C 0.8808 0.61313 0.17955 0.0
N2205 N 0.90497 0.61851 0.16279 0.0
C2206 C 0.89518 0.59868 0.17698 0.0
C2207 C 0.87893 0.63046 0.17365 0.0
C2208 C 0.90719 0.60163 0.16846 0.0
C2209 C 0.89122 0.63287 0.16519 0.0
C2210 C 0.87197 0.60722 0.21755 0.0
C2211 C 0.89496 0.59278 0.22962 0.0
N2212 N 0.90132 0.61155 0.23215 0.0
C2213 C 0.87866 0.62637 0.22031 0.0
C2214 C 0.88009 0.59028 0.22229 0.0
C2215 C 0.89353 0.62824 0.22769 0.0
C2216 C 0.8336 0.65924 0.20294 0.0
N2217 N 0.84985 0.64911 0.19937 0.0
C2218 C 0.86788 0.67979 0.19704 0.0
C2219 C 0.86684 0.65889 0.19653 0.0
C2220 C 0.85133 0.69081 0.20064 0.0
C2221 C 0.83401 0.68023 0.20365 0.0
H2222 H 0.82033 0.65104 0.20525 0.0
H2223 H 0.87962 0.65041 0.19383 0.0
C2224 C 0.90732 0.56594 0.20071 0.0
N2225 N 0.89977 0.58488 0.2014 0.0
C2226 C 0.92791 0.5626 0.20203 0.0
C2227 C 0.93224 0.5982 0.20502 0.0
C2228 C 0.91177 0.60089 0.2034 0.0
C2229 C 0.94073 0.57891 0.20417 0.0
H2230 H 0.89746 0.55355 0.1989 0.0
H2231 H 0.90537 0.61582 0.2037 0.0
C2232 C 0.81287 0.61979 0.18897 0.0
N2233 N 0.78954 0.64746 0.17873 0.0
C2234 C 0.79296 0.62313 0.19188 0.0
C2235 C 0.82096 0.63066 0.18091 0.0
C2236 C 0.78139 0.63714 0.18659 0.0
C2237 C 0.80891 0.64453 0.17581 0.0
C2238 C 0.84546 0.55151 0.19711 0.0
C2239 C 0.828 0.54534 0.19213 0.0
C2240 C 0.85337 0.53974 0.20489 0.0
C2241 C 0.81864 0.52748 0.19507 0.0
C2242 C 0.84357 0.52197 0.2076 0.0
N2243 N 0.82655 0.51627 0.20269 0.0
C2244 C 0.85362 0.57574 0.16714 0.0
C2245 C 0.82033 0.58795 0.16856 0.0
C2246 C 0.85077 0.57153 0.15694 0.0
N2247 N 0.83883 0.58464 0.17262 0.0
C2248 C 0.81677 0.58395 0.15837 0.0
C2249 C 0.83231 0.57615 0.15236 0.0
H2250 H 0.86778 0.57214 0.17067 0.0
H2251 H 0.80835 0.59391 0.17317 0.0
C2252 C 0.82612 0.56687 0.22141 0.0
N2253 N 0.81981 0.57447 0.21244 0.0
C2254 C 0.81219 0.55956 0.22836 0.0
C2255 C 0.7856 0.56748 0.21657 0.0
C2256 C 0.80009 0.57435 0.20979 0.0
C2257 C 0.79154 0.56049 0.22613 0.0
H2258 H 0.8419 0.56695 0.22328 0.0
H2259 H 0.79556 0.58027 0.20255 0.0
O2260 O 0.86903 0.61062 0.18794 0.0
O2261 O 0.85755 0.60512 0.21026 0.0
O2262 O 0.82458 0.60657 0.19427 0.0
O2263 O 0.8545 0.56921 0.19451 0.0
H2264 H 0.89683 0.58512 0.18139 0.0
H2265 H 0.86817 0.64202 0.17558 0.0
H2266 H 0.91825 0.59047 0.16635 0.0
H2267 H 0.88987 0.64617 0.16055 0.0
H2268 H 0.90152 0.57979 0.23327 0.0
H2269 H 0.87247 0.63965 0.21677 0.0
H2270 H 0.87534 0.57533 0.22014 0.0
H2271 H 0.8989 0.64296 0.22987 0.0
H2272 H 0.88144 0.68722 0.1945 0.0
H2273 H 0.82101 0.68803 0.20661 0.0
H2274 H 0.93375 0.54752 0.20113 0.0
H2275 H 0.94129 0.61121 0.20687 0.0
H2276 H 0.78654 0.6151 0.19821 0.0
H2277 H 0.8363 0.62827 0.17858 0.0
H2278 H 0.76595 0.63987 0.18876 0.0
H2279 H 0.81498 0.65297 0.16953 0.0
H2280 H 0.82163 0.55437 0.18614 0.0
H2281 H 0.86679 0.5444 0.20887 0.0
H2282 H 0.80506 0.52256 0.19133 0.0
H2283 H 0.84945 0.51276 0.21365 0.0
H2284 H 0.86317 0.56542 0.15263 0.0
H2285 H 0.80211 0.58718 0.15521 0.0
H2286 H 0.8175 0.55391 0.23555 0.0
H2287 H 0.7699 0.56869 0.21453 0.0
Li2288 Li 0.1281 0.10279 0.94735 0.0
Li2289 Li 0.15741 0.12511 0.94882 0.0
Li2290 Li 0.15803 0.09623 0.93663 0.0
Li2291 Li 0.16117 0.09132 0.95471 0.0
C2292 C 0.12814 0.12689 0.92923 0.0
N2293 N 0.1038 0.14033 0.91371 0.0
C2294 C 0.12333 0.14729 0.92843 0.0
C2295 C 0.12085 0.11341 0.92201 0.0
C2296 C 0.11091 0.15377 0.92057 0.0
C2297 C 0.10852 0.12047 0.91425 0.0
C2298 C 0.13957 0.12638 0.96695 0.0
C2299 C 0.15351 0.14907 0.97931 0.0
N2300 N 0.13483 0.15661 0.98106 0.0
C2301 C 0.12048 0.13423 0.96893 0.0
C2302 C 0.1562 0.13372 0.97225 0.0
C2303 C 0.11841 0.14955 0.97607 0.0
C2304 C 0.08961 0.08536 0.95102 0.0
N2305 N 0.09953 0.10223 0.94805 0.0
C2306 C 0.0685 0.11943 0.94532 0.0
C2307 C 0.08944 0.11922 0.94546 0.0
C2308 C 0.05781 0.10207 0.94803 0.0
C2309 C 0.06859 0.08494 0.95107 0.0
H2310 H 0.09803 0.07216 0.95322 0.0
H2311 H 0.09765 0.13267 0.94352 0.0
C2312 C 0.18278 0.15969 0.95088 0.0
N2313 N 0.16361 0.15259 0.95089 0.0
C2314 C 0.18644 0.18008 0.95272 0.0
C2315 C 0.15063 0.18515 0.95464 0.0
C2316 C 0.14766 0.16488 0.95258 0.0
C2317 C 0.1702 0.19295 0.95474 0.0
H2318 H 0.19517 0.14954 0.94947 0.0
H2319 H 0.13258 0.15884 0.9524 0.0
C2320 C 0.13583 0.06011 0.94043 0.0
N2321 N 0.12173 0.02601 0.9308 0.0
C2322 C 0.14506 0.04151 0.94209 0.0
C2323 C 0.11917 0.06124 0.93403 0.0
C2324 C 0.13779 0.02448 0.93711 0.0
C2325 C 0.11234 0.04388 0.92919 0.0
C2326 C 0.19799 0.09874 0.94847 0.0
C2327 C 0.2071 0.08366 0.94273 0.0
C2328 C 0.20748 0.10586 0.95718 0.0
C2329 C 0.22551 0.07573 0.94588 0.0
C2330 C 0.22586 0.09751 0.96008 0.0
N2331 N 0.23442 0.08274 0.95443 0.0
C2332 C 0.16811 0.10349 0.91664 0.0
C2333 C 0.16809 0.06878 0.92063 0.0
C2334 C 0.17127 0.09924 0.90647 0.0
N2335 N 0.16593 0.08833 0.92342 0.0
C2336 C 0.17137 0.06381 0.91052 0.0
C2337 C 0.17252 0.07914 0.90325 0.0
H2338 H 0.16657 0.11892 0.91909 0.0
H2339 H 0.16693 0.05701 0.9262 0.0
C2340 C 0.168 0.0792 0.97463 0.0
N2341 N 0.17245 0.07466 0.9649 0.0
C2342 C 0.17332 0.06608 0.98237 0.0
C2343 C 0.18845 0.04411 0.96998 0.0
C2344 C 0.183 0.05783 0.96247 0.0
C2345 C 0.18297 0.04787 0.98004 0.0
H2346 H 0.1595 0.09256 0.97638 0.0
H2347 H 0.18638 0.05457 0.95467 0.0
O2348 O 0.14026 0.12032 0.93692 0.0
O2349 O 0.14192 0.11159 0.95987 0.0
O2350 O 0.14278 0.07694 0.94528 0.0
O2351 O 0.1799 0.10656 0.94555 0.0
H2352 H 0.12905 0.15804 0.93382 0.0
H2353 H 0.12497 0.09774 0.92225 0.0
H2354 H 0.10697 0.16949 0.91991 0.0
H2355 H 0.10279 0.11017 0.90863 0.0
H2356 H 0.16628 0.15501 0.98339 0.0
H2357 H 0.10742 0.12863 0.96497 0.0
H2358 H 0.17106 0.12779 0.97082 0.0
H2359 H 0.10374 0.15584 0.97764 0.0
H2360 H 0.06073 0.13309 0.94316 0.0
H2361 H 0.06088 0.07126 0.95321 0.0
H2362 H 0.20173 0.18568 0.9527 0.0
H2363 H 0.13773 0.19473 0.95598 0.0
H2364 H 0.15776 0.0402 0.94711 0.0
H2365 H 0.11138 0.07528 0.93291 0.0
H2366 H 0.1449 0.01004 0.93827 0.0
H2367 H 0.09949 0.0446 0.9242 0.0
H2368 H 0.19997 0.07803 0.93596 0.0
H2369 H 0.20069 0.11762 0.96166 0.0
H2370 H 0.23269 0.06397 0.94155 0.0
H2371 H 0.23334 0.10279 0.96684 0.0
H2372 H 0.17183 0.11157 0.90115 0.0
H2373 H 0.17266 0.04814 0.90841 0.0
H2374 H 0.1691 0.06972 0.99005 0.0
H2375 H 0.19576 0.03021 0.96784 0.0
Li2376 Li 0.65256 0.37855 0.6991 0.0
Li2377 Li 0.62871 0.4066 0.70076 0.0
Li2378 Li 0.65522 0.40761 0.68736 0.0
Li2379 Li 0.66294 0.41319 0.70513 0.0
C2380 C 0.62674 0.37538 0.68168 0.0
N2381 N 0.61486 0.34937 0.66654 0.0
C2382 C 0.60655 0.36986 0.68074 0.0
C2383 C 0.64082 0.36784 0.67483 0.0
C2384 C 0.60086 0.35663 0.67307 0.0
C2385 C 0.63454 0.35469 0.66724 0.0
C2386 C 0.63105 0.39097 0.71914 0.0
C2387 C 0.6106 0.40502 0.73241 0.0
N2388 N 0.60264 0.38652 0.73417 0.0
C2389 C 0.62282 0.37206 0.72114 0.0
C2390 C 0.62505 0.40756 0.72487 0.0
C2391 C 0.60842 0.37013 0.72876 0.0
C2392 C 0.67359 0.34247 0.70363 0.0
N2393 N 0.6558 0.35023 0.70041 0.0
C2394 C 0.64209 0.31729 0.69842 0.0
C2395 C 0.64007 0.33813 0.69801 0.0
C2396 C 0.6604 0.30872 0.70152 0.0
C2397 C 0.67625 0.32165 0.70422 0.0
H2398 H 0.68577 0.35246 0.70564 0.0
H2399 H 0.62592 0.34465 0.69573 0.0
C2400 C 0.5934 0.43038 0.704 0.0
N2401 N 0.60126 0.41153 0.70364 0.0
C2402 C 0.57281 0.43311 0.70567 0.0
C2403 C 0.5691 0.39701 0.70679 0.0
C2404 C 0.58962 0.39501 0.70505 0.0
C2405 C 0.56035 0.41623 0.70694 0.0
H2406 H 0.60302 0.44325 0.70278 0.0
H2407 H 0.5963 0.38021 0.70469 0.0
C2408 C 0.6943 0.38947 0.69094 0.0
N2409 N 0.73006 0.37882 0.68174 0.0
C2410 C 0.71133 0.40158 0.69203 0.0
C2411 C 0.69559 0.37174 0.68531 0.0
C2412 C 0.72923 0.396 0.68728 0.0
C2413 C 0.71375 0.36667 0.68068 0.0
C2414 C 0.65096 0.44901 0.69798 0.0
C2415 C 0.66244 0.45941 0.69086 0.0
C2416 C 0.64533 0.45854 0.70695 0.0
C2417 C 0.66836 0.47915 0.6929 0.0
C2418 C 0.65159 0.47828 0.70872 0.0
N2419 N 0.66288 0.48808 0.70172 0.0
C2420 C 0.64471 0.41504 0.66732 0.0
C2421 C 0.67977 0.41729 0.67027 0.0
C2422 C 0.64764 0.4174 0.65697 0.0
N2423 N 0.66071 0.41441 0.67368 0.0
C2424 C 0.68341 0.41968 0.65996 0.0
C2425 C 0.66725 0.4193 0.65314 0.0
H2426 H 0.62969 0.41295 0.67025 0.0
H2427 H 0.69219 0.41738 0.67548 0.0
C2428 C 0.68064 0.42019 0.72391 0.0
N2429 N 0.68059 0.42659 0.71418 0.0
C2430 C 0.69478 0.42764 0.73071 0.0
C2431 C 0.70811 0.44874 0.71746 0.0
C2432 C 0.69375 0.44078 0.71089 0.0
C2433 C 0.70906 0.44181 0.72746 0.0
H2434 H 0.67023 0.40866 0.72629 0.0
H2435 H 0.69365 0.44538 0.70308 0.0
O2436 O 0.63254 0.3883 0.68918 0.0
O2437 O 0.64493 0.39322 0.71161 0.0
O2438 O 0.67667 0.3947 0.69559 0.0
O2439 O 0.64503 0.4297 0.69611 0.0
H2440 H 0.59537 0.3757 0.68588 0.0
H2441 H 0.65636 0.37237 0.67525 0.0
H2442 H 0.5853 0.35216 0.67229 0.0
H2443 H 0.64531 0.34878 0.66189 0.0
H2444 H 0.60571 0.41775 0.73685 0.0
H2445 H 0.62737 0.35906 0.71681 0.0
H2446 H 0.6314 0.42226 0.72346 0.0
H2447 H 0.60182 0.35562 0.73035 0.0
H2448 H 0.6295 0.30801 0.69616 0.0
H2449 H 0.69052 0.31577 0.70682 0.0
H2450 H 0.56664 0.44817 0.70565 0.0
H2451 H 0.56014 0.3836 0.70791 0.0
H2452 H 0.71073 0.41524 0.69643 0.0
H2453 H 0.68281 0.36184 0.6846 0.0
H2454 H 0.74247 0.40533 0.68801 0.0
H2455 H 0.71492 0.35302 0.67627 0.0
H2456 H 0.66682 0.45228 0.68386 0.0
H2457 H 0.63633 0.45075 0.7125 0.0
H2458 H 0.67734 0.48735 0.68748 0.0
H2459 H 0.64745 0.48581 0.71565 0.0
H2460 H 0.63475 0.41688 0.65198 0.0
H2461 H 0.69872 0.42151 0.65734 0.0
H2462 H 0.69516 0.42151 0.73828 0.0
H2463 H 0.71874 0.45971 0.71464 0.0
Li2464 Li 0.34161 0.12165 0.54672 0.0
Li2465 Li 0.37197 0.10154 0.54743 0.0
Li2466 Li 0.33946 0.08558 0.54322 0.0
Li2467 Li 0.34675 0.09692 0.56025 0.0
C2468 C 0.36378 0.11732 0.52817 0.0
N2469 N 0.38245 0.13922 0.51314 0.0
C2470 C 0.372 0.13617 0.53031 0.0
C2471 C 0.36498 0.10963 0.51838 0.0
C2472 C 0.3814 0.147 0.52262 0.0
C2473 C 0.3745 0.12092 0.51088 0.0
C2474 C 0.37941 0.13054 0.56096 0.0
C2475 C 0.41075 0.12867 0.57009 0.0
N2476 N 0.41423 0.14837 0.568 0.0
C2477 C 0.38325 0.15082 0.55895 0.0
C2478 C 0.39321 0.11941 0.56663 0.0
C2479 C 0.40096 0.15954 0.56256 0.0
C2480 C 0.3301 0.16047 0.55159 0.0
N2481 N 0.33113 0.14741 0.54374 0.0
C2482 C 0.32114 0.17303 0.53216 0.0
C2483 C 0.32628 0.15309 0.53418 0.0
C2484 C 0.32097 0.18714 0.54005 0.0
C2485 C 0.32509 0.18052 0.54991 0.0
H2486 H 0.33403 0.15545 0.5591 0.0
H2487 H 0.3271 0.14233 0.52808 0.0
C2488 C 0.40879 0.08161 0.54473 0.0
N2489 N 0.40027 0.1002 0.54475 0.0
C2490 C 0.42958 0.07946 0.54376 0.0
C2491 C 0.43244 0.11558 0.54251 0.0
C2492 C 0.4116 0.11702 0.54342 0.0
C2493 C 0.4417 0.09663 0.54284 0.0
H2494 H 0.39947 0.06844 0.54569 0.0
H2495 H 0.40461 0.13164 0.54335 0.0
C2496 C 0.3034 0.10484 0.54771 0.0
N2497 N 0.26669 0.11167 0.53857 0.0
C2498 C 0.28586 0.10552 0.5535 0.0
C2499 C 0.30227 0.10765 0.53727 0.0
C2500 C 0.26744 0.10898 0.54874 0.0
C2501 C 0.28357 0.11108 0.53279 0.0
C2502 C 0.36208 0.05947 0.55842 0.0
C2503 C 0.34749 0.04438 0.55786 0.0
C2504 C 0.37805 0.0575 0.5652 0.0
C2505 C 0.34899 0.02768 0.56421 0.0
C2506 C 0.37899 0.04059 0.57143 0.0
N2507 N 0.36456 0.02616 0.57082 0.0
C2508 C 0.34318 0.05772 0.52864 0.0
C2509 C 0.30981 0.05784 0.53497 0.0
C2510 C 0.33861 0.04212 0.52207 0.0
N2511 N 0.3289 0.0652 0.5349 0.0
C2512 C 0.30449 0.04221 0.52841 0.0
C2513 C 0.31912 0.03407 0.52195 0.0
H2514 H 0.35823 0.06386 0.52884 0.0
H2515 H 0.29882 0.06388 0.54016 0.0
C2516 C 0.35164 0.10465 0.58086 0.0
N2517 N 0.34296 0.09164 0.57426 0.0
C2518 C 0.35137 0.10071 0.59117 0.0
C2519 C 0.33184 0.07078 0.58787 0.0
C2520 C 0.33263 0.07525 0.57756 0.0
C2521 C 0.34174 0.08339 0.59476 0.0
H2522 H 0.35895 0.11804 0.57813 0.0
H2523 H 0.32529 0.06548 0.57219 0.0
O2524 O 0.35424 0.10655 0.53554 0.0
O2525 O 0.36219 0.12167 0.55745 0.0
O2526 O 0.32153 0.10164 0.55232 0.0
O2527 O 0.3609 0.07593 0.55225 0.0
H2528 H 0.37105 0.1424 0.53782 0.0
H2529 H 0.35856 0.09511 0.51658 0.0
H2530 H 0.38782 0.16161 0.52418 0.0
H2531 H 0.37554 0.11516 0.50326 0.0
H2532 H 0.42159 0.12018 0.57443 0.0
H2533 H 0.37277 0.15971 0.5546 0.0
H2534 H 0.39043 0.10375 0.56829 0.0
H2535 H 0.40417 0.17518 0.56102 0.0
H2536 H 0.31784 0.17746 0.52447 0.0
H2537 H 0.32545 0.19089 0.55621 0.0
H2538 H 0.43615 0.06457 0.54408 0.0
H2539 H 0.44124 0.12917 0.54167 0.0
H2540 H 0.2865 0.10341 0.5616 0.0
H2541 H 0.31563 0.10709 0.53264 0.0
H2542 H 0.25375 0.10955 0.55313 0.0
H2543 H 0.28248 0.11325 0.52472 0.0
H2544 H 0.33503 0.04563 0.55267 0.0
H2545 H 0.38963 0.06886 0.56563 0.0
H2546 H 0.33774 0.01596 0.5639 0.0
H2547 H 0.39122 0.03891 0.57675 0.0
H2548 H 0.35022 0.03644 0.5171 0.0
H2549 H 0.28932 0.03629 0.52852 0.0
H2550 H 0.35865 0.11111 0.59629 0.0
H2551 H 0.32407 0.05739 0.5904 0.0
Li2552 Li 0.66219 0.58993 0.29282 0.0
Li2553 Li 0.65322 0.59354 0.31022 0.0
Li2554 Li 0.62668 0.59059 0.29642 0.0
Li2555 Li 0.64834 0.62189 0.29834 0.0
C2556 C 0.65308 0.55165 0.29924 0.0
N2557 N 0.66623 0.51309 0.29528 0.0
C2558 C 0.67167 0.54518 0.3029 0.0
C2559 C 0.64107 0.53851 0.29364 0.0
C2560 C 0.67809 0.52563 0.30079 0.0
C2561 C 0.64801 0.51906 0.2917 0.0
C2562 C 0.69018 0.61287 0.30821 0.0
C2563 C 0.70839 0.63362 0.32001 0.0
N2564 N 0.72426 0.62077 0.31946 0.0
C2565 C 0.70674 0.59996 0.30769 0.0
C2566 C 0.69106 0.62992 0.31435 0.0
C2567 C 0.7238 0.60418 0.31346 0.0
C2568 C 0.69749 0.59401 0.28241 0.0
N2569 N 0.6828 0.5802 0.28402 0.0
C2570 C 0.69933 0.55678 0.27311 0.0
C2571 C 0.68322 0.56195 0.27937 0.0
C2572 C 0.71499 0.57062 0.27159 0.0
C2573 C 0.71379 0.58951 0.27626 0.0
H2574 H 0.69645 0.60868 0.28588 0.0
H2575 H 0.67101 0.55149 0.28037 0.0
C2576 C 0.64341 0.58946 0.33067 0.0
N2577 N 0.65861 0.58688 0.32395 0.0
C2578 C 0.64675 0.58658 0.34095 0.0
C2579 C 0.681 0.57708 0.33718 0.0
C2580 C 0.67697 0.58019 0.32696 0.0
C2581 C 0.66586 0.58064 0.34434 0.0
H2582 H 0.62874 0.59411 0.32808 0.0
H2583 H 0.68857 0.57736 0.32147 0.0
C2584 C 0.64774 0.60561 0.2763 0.0
N2585 N 0.66318 0.60303 0.25699 0.0
C2586 C 0.65855 0.62168 0.27222 0.0
C2587 C 0.64468 0.58826 0.27055 0.0
C2588 C 0.66625 0.62008 0.26245 0.0
C2589 C 0.65264 0.58724 0.2608 0.0
C2590 C 0.62008 0.62433 0.31399 0.0
C2591 C 0.59959 0.62867 0.31312 0.0
C2592 C 0.63179 0.63483 0.32098 0.0
C2593 C 0.59119 0.64357 0.31924 0.0
C2594 C 0.62283 0.64961 0.32696 0.0
N2595 N 0.60288 0.65365 0.32597 0.0
C2596 C 0.58822 0.57851 0.30193 0.0
C2597 C 0.59288 0.58103 0.28424 0.0
C2598 C 0.56775 0.57482 0.30063 0.0
N2599 N 0.60017 0.58195 0.29381 0.0
C2600 C 0.57254 0.57709 0.28257 0.0
C2601 C 0.55953 0.57446 0.29084 0.0
H2602 H 0.59446 0.57956 0.30945 0.0
H2603 H 0.60268 0.58403 0.27793 0.0
C2604 C 0.66747 0.65898 0.29525 0.0
N2605 N 0.6493 0.65039 0.29708 0.0
C2606 C 0.66932 0.67986 0.29475 0.0
C2607 C 0.63364 0.68268 0.29787 0.0
C2608 C 0.63245 0.66173 0.29812 0.0
C2609 C 0.65231 0.69209 0.29624 0.0
H2610 H 0.68057 0.64957 0.29423 0.0
H2611 H 0.61808 0.65457 0.29928 0.0
O2612 O 0.64641 0.57063 0.3013 0.0
O2613 O 0.67343 0.60911 0.30251 0.0
O2614 O 0.64056 0.6067 0.28595 0.0
O2615 O 0.62859 0.60987 0.30802 0.0
H2616 H 0.68112 0.5552 0.30724 0.0
H2617 H 0.62659 0.54333 0.2908 0.0
H2618 H 0.6925 0.52042 0.30352 0.0
H2619 H 0.63893 0.50873 0.28735 0.0
H2620 H 0.70925 0.64674 0.32481 0.0
H2621 H 0.70632 0.58664 0.30302 0.0
H2622 H 0.67857 0.64029 0.3147 0.0
H2623 H 0.73665 0.59424 0.3132 0.0
H2624 H 0.69959 0.54213 0.26955 0.0
H2625 H 0.72518 0.60089 0.27503 0.0
H2626 H 0.63463 0.58958 0.3462 0.0
H2627 H 0.6958 0.57204 0.33945 0.0
H2628 H 0.6611 0.63518 0.27659 0.0
H2629 H 0.63667 0.57553 0.27366 0.0
H2630 H 0.67473 0.63236 0.25921 0.0
H2631 H 0.65056 0.57384 0.2563 0.0
H2632 H 0.59032 0.62077 0.30771 0.0
H2633 H 0.64759 0.63149 0.32182 0.0
H2634 H 0.57537 0.64715 0.31862 0.0
H2635 H 0.63172 0.65785 0.3324 0.0
H2636 H 0.55836 0.57327 0.30725 0.0
H2637 H 0.56698 0.57665 0.2749 0.0
H2638 H 0.68394 0.6863 0.29321 0.0
H2639 H 0.62011 0.69134 0.29915 0.0
Li2640 Li 0.1557 0.90781 0.0426 0.0
Li2641 Li 0.1531 0.89755 0.06 0.0
Li2642 Li 0.15399 0.87269 0.04624 0.0
Li2643 Li 0.1235 0.89264 0.04868 0.0
C2644 C 0.1942 0.89908 0.04919 0.0
N2645 N 0.23254 0.91412 0.04653 0.0
C2646 C 0.20279 0.91148 0.05653 0.0
C2647 C 0.20523 0.89403 0.04058 0.0
C2648 C 0.22216 0.91902 0.05502 0.0
C2649 C 0.22456 0.90187 0.03935 0.0
C2650 C 0.13775 0.93793 0.05521 0.0
C2651 C 0.12169 0.96967 0.05873 0.0
N2652 N 0.14007 0.97843 0.05967 0.0
C2653 C 0.15646 0.94723 0.05626 0.0
C2654 C 0.12021 0.9492 0.05648 0.0
C2655 C 0.15733 0.96773 0.05849 0.0
C2656 C 0.14905 0.93236 0.0267 0.0
N2657 N 0.16384 0.92824 0.03346 0.0
C2658 C 0.18362 0.95556 0.0272 0.0
C2659 C 0.18104 0.93931 0.03378 0.0
C2660 C 0.1682 0.96049 0.02041 0.0
C2661 C 0.15094 0.94842 0.02007 0.0
H2662 H 0.13542 0.92351 0.02671 0.0
H2663 H 0.19239 0.93618 0.03938 0.0
C2664 C 0.16909 0.88609 0.07842 0.0
N2665 N 0.15983 0.90172 0.07374 0.0
C2666 C 0.17178 0.8863 0.08886 0.0
C2667 C 0.15624 0.91914 0.0894 0.0
C2668 C 0.1536 0.91819 0.07896 0.0
C2669 C 0.16498 0.90283 0.09449 0.0
H2670 H 0.17358 0.87307 0.07408 0.0
H2671 H 0.14574 0.93016 0.07515 0.0
C2672 C 0.13946 0.87681 0.02739 0.0
N2673 N 0.14228 0.85399 0.01004 0.0
C2674 C 0.12301 0.8655 0.02412 0.0
C2675 C 0.15723 0.87678 0.02178 0.0
C2676 C 0.12477 0.85398 0.01534 0.0
C2677 C 0.15839 0.86507 0.01304 0.0
C2678 C 0.12432 0.8703 0.0666 0.0
C2679 C 0.12364 0.85152 0.0713 0.0
C2680 C 0.11364 0.88644 0.07073 0.0
C2681 C 0.11219 0.84915 0.08006 0.0
C2682 C 0.10239 0.88346 0.0795 0.0
N2683 N 0.1019 0.86504 0.08395 0.0
C2684 C 0.18149 0.8404 0.04299 0.0
C2685 C 0.14697 0.83354 0.04009 0.0
C2686 C 0.18651 0.82044 0.04082 0.0
N2687 N 0.16197 0.84643 0.0426 0.0
C2688 C 0.15133 0.81365 0.03766 0.0
C2689 C 0.17127 0.80687 0.03812 0.0
H2690 H 0.19305 0.85093 0.04519 0.0
H2691 H 0.13154 0.83865 0.04015 0.0
C2692 C 0.08662 0.90968 0.04308 0.0
N2693 N 0.0951 0.89319 0.04737 0.0
C2694 C 0.06576 0.91105 0.0421 0.0
C2695 C 0.06282 0.87825 0.04983 0.0
C2696 C 0.08374 0.87744 0.05057 0.0
C2697 C 0.05358 0.89527 0.0456 0.0
H2698 H 0.09609 0.92182 0.04046 0.0
H2699 H 0.09089 0.86429 0.05373 0.0
O2700 O 0.17537 0.89135 0.05061 0.0
O2701 O 0.13652 0.91787 0.05303 0.0
O2702 O 0.13816 0.88786 0.03606 0.0
O2703 O 0.13585 0.87292 0.05815 0.0
H2704 H 0.1946 0.91526 0.06333 0.0
H2705 H 0.19895 0.88416 0.03491 0.0
H2706 H 0.22895 0.92874 0.06061 0.0
H2707 H 0.23323 0.89818 0.03269 0.0
H2708 H 0.10824 0.97857 0.05975 0.0
H2709 H 0.17015 0.93869 0.05539 0.0
H2710 H 0.10559 0.94219 0.0558 0.0
H2711 H 0.17172 0.97512 0.0593 0.0
H2712 H 0.19706 0.96469 0.02773 0.0
H2713 H 0.13881 0.95165 0.01486 0.0
H2714 H 0.17861 0.87345 0.09253 0.0
H2715 H 0.15049 0.932 0.09351 0.0
H2716 H 0.10913 0.86546 0.02838 0.0
H2717 H 0.16998 0.88568 0.02416 0.0
H2718 H 0.11222 0.84502 0.01275 0.0
H2719 H 0.1721 0.8648 0.00865 0.0
H2720 H 0.13193 0.83893 0.06822 0.0
H2721 H 0.11408 0.90112 0.06724 0.0
H2722 H 0.11152 0.8347 0.08378 0.0
H2723 H 0.09407 0.89581 0.08278 0.0
H2724 H 0.20202 0.81562 0.04133 0.0
H2725 H 0.13915 0.80347 0.03583 0.0
H2726 H 0.05922 0.92446 0.03883 0.0
H2727 H 0.05397 0.86563 0.05245 0.0
Li2728 Li 0.8373 0.41124 0.79229 0.0
Li2729 Li 0.84706 0.40398 0.80961 0.0
Li2730 Li 0.87281 0.40549 0.79564 0.0
Li2731 Li 0.84956 0.37655 0.7972 0.0
C2732 C 0.85181 0.44707 0.79924 0.0
N2733 N 0.84431 0.48715 0.79528 0.0
C2734 C 0.84007 0.45841 0.80588 0.0
C2735 C 0.86003 0.45619 0.79069 0.0
C2736 C 0.83637 0.47864 0.80372 0.0
C2737 C 0.85598 0.47644 0.78879 0.0
C2738 C 0.80914 0.38829 0.80798 0.0
C2739 C 0.7925 0.36896 0.82091 0.0
N2740 N 0.77701 0.38231 0.82085 0.0
C2741 C 0.79296 0.40168 0.80796 0.0
C2742 C 0.80882 0.37167 0.81442 0.0
C2743 C 0.77689 0.39845 0.81455 0.0
C2744 C 0.81701 0.41724 0.77426 0.0
N2745 N 0.81867 0.42471 0.78376 0.0
C2746 C 0.79196 0.44798 0.78065 0.0
C2747 C 0.8066 0.43987 0.78704 0.0
C2748 C 0.78976 0.44033 0.77083 0.0
C2749 C 0.8027 0.42491 0.76764 0.0
H2750 H 0.82632 0.40479 0.77192 0.0
H2751 H 0.80781 0.44521 0.79471 0.0
C2752 C 0.85696 0.40271 0.83005 0.0
N2753 N 0.84256 0.40927 0.82357 0.0
C2754 C 0.85419 0.40436 0.84042 0.0
C2755 C 0.82244 0.42094 0.83734 0.0
C2756 C 0.8257 0.41867 0.82697 0.0
C2757 C 0.83664 0.4133 0.84416 0.0
H2758 H 0.87058 0.39603 0.82718 0.0
H2759 H 0.81471 0.42426 0.82167 0.0
C2760 C 0.86613 0.39166 0.77612 0.0
N2761 N 0.8869 0.38949 0.7581 0.0
C2762 C 0.87269 0.37308 0.77246 0.0
C2763 C 0.86986 0.4091 0.77055 0.0
C2764 C 0.88324 0.37231 0.76335 0.0
C2765 C 0.88046 0.4077 0.76147 0.0
C2766 C 0.87973 0.37013 0.81144 0.0
C2767 C 0.89999 0.36621 0.80944 0.0
C2768 C 0.86923 0.35784 0.81818 0.0
C2769 C 0.90932 0.34985 0.81411 0.0
C2770 C 0.87909 0.34163 0.82269 0.0
N2771 N 0.89876 0.33799 0.82057 0.0
C2772 C 0.9078 0.42945 0.79657 0.0
C2773 C 0.91105 0.39955 0.78699 0.0
C2774 C 0.92826 0.43361 0.79537 0.0
N2775 N 0.89974 0.41251 0.7925 0.0
C2776 C 0.93143 0.40323 0.78549 0.0
C2777 C 0.94045 0.42015 0.78994 0.0
H2778 H 0.89851 0.43933 0.80107 0.0
H2779 H 0.9045 0.38585 0.78413 0.0
C2780 C 0.82797 0.34036 0.79432 0.0
N2781 N 0.8467 0.34828 0.79524 0.0
C2782 C 0.82535 0.31957 0.79354 0.0
C2783 C 0.86138 0.31552 0.79452 0.0
C2784 C 0.86329 0.33637 0.79506 0.0
C2785 C 0.84218 0.30674 0.79383 0.0
H2786 H 0.81503 0.3502 0.79429 0.0
H2787 H 0.87807 0.34302 0.79548 0.0
O2788 O 0.85556 0.42725 0.80123 0.0
O2789 O 0.82502 0.39125 0.80159 0.0
O2790 O 0.85582 0.39269 0.78504 0.0
O2791 O 0.87032 0.38604 0.80688 0.0
H2792 H 0.83377 0.45164 0.81259 0.0
H2793 H 0.86953 0.44775 0.78561 0.0
H2794 H 0.82719 0.48756 0.80875 0.0
H2795 H 0.86217 0.48367 0.78217 0.0
H2796 H 0.79211 0.3562 0.82597 0.0
H2797 H 0.79285 0.41452 0.80296 0.0
H2798 H 0.82097 0.3609 0.81438 0.0
H2799 H 0.76434 0.40878 0.81466 0.0
H2800 H 0.78223 0.4598 0.78343 0.0
H2801 H 0.80119 0.41813 0.76024 0.0
H2802 H 0.86566 0.39871 0.84549 0.0
H2803 H 0.80879 0.42808 0.83999 0.0
H2804 H 0.86977 0.35942 0.77663 0.0
H2805 H 0.86454 0.42353 0.77317 0.0
H2806 H 0.88853 0.35805 0.76046 0.0
H2807 H 0.88352 0.42109 0.7571 0.0
H2808 H 0.90843 0.37566 0.80434 0.0
H2809 H 0.85368 0.36085 0.81994 0.0
H2810 H 0.92496 0.34659 0.8126 0.0
H2811 H 0.87112 0.33198 0.8279 0.0
H2812 H 0.93459 0.44669 0.79905 0.0
H2813 H 0.94014 0.39257 0.78112 0.0
H2814 H 0.81027 0.31368 0.79274 0.0
H2815 H 0.87486 0.30645 0.79489 0.0
H2816 H 0.18341 0.55729 0.13945 0.0
H2817 H 0.14502 0.60946 0.14085 0.0
H2818 H 0.14768 0.61379 0.1226 0.0
H2819 H 0.16041 0.60253 0.10625 0.0
H2820 H 0.19694 0.54921 0.10436 0.0
H2821 H 0.19565 0.54544 0.1228 0.0
C2822 C 0.17572 0.56959 0.13571 0.0
C2823 C 0.16402 0.58303 0.1414 0.0
C2824 C 0.17702 0.57177 0.12518 0.0
C2825 C 0.15396 0.59886 0.13655 0.0
C2826 C 0.15553 0.60139 0.12615 0.0
C2827 C 0.16824 0.59022 0.10993 0.0
C2828 C 0.17898 0.57631 0.10409 0.0
C2829 C 0.16696 0.58792 0.1204 0.0
C2830 C 0.1887 0.56012 0.1088 0.0
C2831 C 0.18794 0.55799 0.1193 0.0
H2832 H 0.6407 0.92871 0.39129 0.0
H2833 H 0.7054 0.92458 0.39185 0.0
H2834 H 0.70627 0.92541 0.37339 0.0
H2835 H 0.68847 0.92586 0.35712 0.0
H2836 H 0.62364 0.92886 0.35674 0.0
H2837 H 0.62306 0.93053 0.37511 0.0
C2838 C 0.65502 0.9284 0.38738 0.0
C2839 C 0.67296 0.92663 0.39292 0.0
C2840 C 0.65538 0.9287 0.3768 0.0
C2841 C 0.69137 0.9258 0.38774 0.0
C2842 C 0.69188 0.92631 0.3772 0.0
C2843 C 0.67421 0.92687 0.36106 0.0
C2844 C 0.65614 0.92724 0.35554 0.0
C2845 C 0.67395 0.92746 0.37165 0.0
C2846 C 0.63781 0.92885 0.36076 0.0
C2847 C 0.63743 0.92964 0.37129 0.0
H2848 H 0.31081 0.41083 0.6418 0.0
H2849 H 0.36782 0.4418 0.64067 0.0
H2850 H 0.36623 0.44246 0.6223 0.0
H2851 H 0.34995 0.4321 0.60663 0.0
H2852 H 0.29202 0.40285 0.60764 0.0
H2853 H 0.29269 0.4038 0.62605 0.0
C2854 C 0.3227 0.41812 0.63756 0.0
C2855 C 0.33954 0.42601 0.64264 0.0
C2856 C 0.32162 0.41862 0.62699 0.0
C2857 C 0.3549 0.43518 0.63698 0.0
C2858 C 0.35396 0.43567 0.62646 0.0
C2859 C 0.33719 0.42637 0.61082 0.0
C2860 C 0.32103 0.41727 0.6057 0.0
C2861 C 0.33757 0.42712 0.62139 0.0
C2862 C 0.30485 0.4096 0.61135 0.0
C2863 C 0.30517 0.41022 0.62189 0.0
H2864 H 0.8284 0.06002 0.88956 0.0
H2865 H 0.834 0.12471 0.89047 0.0
H2866 H 0.83365 0.12599 0.87212 0.0
H2867 H 0.83296 0.10884 0.8558 0.0
H2868 H 0.82933 0.04418 0.85465 0.0
H2869 H 0.82818 0.04274 0.87313 0.0
C2870 C 0.82969 0.07439 0.88575 0.0
C2871 C 0.83104 0.09224 0.89143 0.0
C2872 C 0.82995 0.07503 0.87516 0.0
C2873 C 0.83247 0.11075 0.88633 0.0
C2874 C 0.83246 0.11151 0.87582 0.0
C2875 C 0.83168 0.09446 0.85961 0.0
C2876 C 0.83104 0.07666 0.85392 0.0
C2877 C 0.83128 0.09376 0.87017 0.0
C2878 C 0.82986 0.05807 0.85891 0.0
C2879 C 0.82916 0.05726 0.86945 0.0
H2880 H 0.197 0.41024 0.88809 0.0
H2881 H 0.15218 0.45629 0.89259 0.0
H2882 H 0.15027 0.46179 0.87441 0.0
H2883 H 0.15868 0.45102 0.85719 0.0
H2884 H 0.20139 0.40291 0.8528 0.0
H2885 H 0.2069 0.40092 0.87093 0.0
C2886 C 0.18685 0.42152 0.88509 0.0
C2887 C 0.1746 0.43266 0.89169 0.0
C2888 C 0.18538 0.4242 0.87463 0.0
C2889 C 0.16189 0.44758 0.8877 0.0
C2890 C 0.16065 0.45061 0.87729 0.0
C2891 C 0.16923 0.44013 0.8602 0.0
C2892 C 0.17946 0.42705 0.85361 0.0
C2893 C 0.1719 0.43861 0.87067 0.0
C2894 C 0.19343 0.41334 0.85764 0.0
C2895 C 0.19647 0.41203 0.86803 0.0
H2896 H 0.84596 0.94095 0.10746 0.0
H2897 H 0.78777 0.91216 0.10801 0.0
H2898 H 0.78764 0.91356 0.12641 0.0
H2899 H 0.80556 0.91999 0.1423 0.0
H2900 H 0.86293 0.9503 0.14161 0.0
H2901 H 0.86158 0.95163 0.12323 0.0
C2902 C 0.83294 0.93547 0.11153 0.0
C2903 C 0.81703 0.9262 0.1063 0.0
C2904 C 0.83286 0.93647 0.1221 0.0
C2905 C 0.80048 0.91893 0.11182 0.0
C2906 C 0.80032 0.91983 0.12235 0.0
C2907 C 0.81753 0.92736 0.13816 0.0
C2908 C 0.83449 0.93471 0.14333 0.0
C2909 C 0.81667 0.92811 0.12758 0.0
C2910 C 0.84993 0.94407 0.13781 0.0
C2911 C 0.84915 0.94491 0.1273 0.0
H2912 H 0.30543 0.56903 0.39104 0.0
H2913 H 0.36039 0.60327 0.39254 0.0
H2914 H 0.36442 0.60065 0.37428 0.0
H2915 H 0.3522 0.58906 0.3579 0.0
H2916 H 0.29631 0.55662 0.3559 0.0
H2917 H 0.29265 0.558 0.37434 0.0
C2918 C 0.31825 0.57584 0.38732 0.0
C2919 C 0.33257 0.58636 0.39305 0.0
C2920 C 0.3203 0.57455 0.37677 0.0
C2921 C 0.3491 0.59528 0.38822 0.0
C2922 C 0.35146 0.59372 0.37781 0.0
C2923 C 0.33934 0.58212 0.36154 0.0
C2924 C 0.32468 0.5725 0.35566 0.0
C2925 C 0.33715 0.58343 0.37202 0.0
C2926 C 0.3078 0.56398 0.36036 0.0
C2927 C 0.30573 0.56479 0.37086 0.0
H2928 H 0.6895 0.0965 0.64056 0.0
H2929 H 0.65154 0.04382 0.6403 0.0
H2930 H 0.65305 0.04293 0.62191 0.0
H2931 H 0.66273 0.05889 0.60592 0.0
H2932 H 0.70218 0.11043 0.60632 0.0
H2933 H 0.70278 0.10966 0.62471 0.0
C2934 C 0.68197 0.08446 0.63655 0.0
C2935 C 0.6702 0.07042 0.64187 0.0
C2936 C 0.68305 0.08389 0.62599 0.0
C2937 C 0.66032 0.05515 0.63643 0.0
C2938 C 0.66127 0.05454 0.6259 0.0
C2939 C 0.67187 0.06966 0.61 0.0
C2940 C 0.68213 0.0849 0.60473 0.0
C2941 C 0.67222 0.06911 0.6206 0.0
C2942 C 0.69375 0.09882 0.61019 0.0
C2943 C 0.69417 0.09836 0.62071 0.0
H2944 H 0.83776 0.38239 0.85727 0.0
H2945 H 0.82806 0.44635 0.85558 0.0
H2946 H 0.82572 0.44816 0.87404 0.0
H2947 H 0.82854 0.43161 0.89068 0.0
H2948 H 0.83733 0.36746 0.89216 0.0
H2949 H 0.83785 0.36554 0.87373 0.0
C2950 C 0.83502 0.39668 0.86097 0.0
C2951 C 0.83329 0.41425 0.85517 0.0
C2952 C 0.8336 0.39753 0.87151 0.0
C2953 C 0.82943 0.43267 0.85996 0.0
C2954 C 0.82819 0.43369 0.87048 0.0
C2955 C 0.83041 0.41724 0.88692 0.0
C2956 C 0.83295 0.3997 0.89269 0.0
C2957 C 0.83057 0.41626 0.87634 0.0
C2958 C 0.8352 0.3811 0.88782 0.0
C2959 C 0.83561 0.38002 0.87731 0.0
H2960 H 0.35796 0.07469 0.64126 0.0
H2961 H 0.29373 0.06613 0.64162 0.0
H2962 H 0.29297 0.06715 0.62313 0.0
H2963 H 0.31042 0.07325 0.60696 0.0
H2964 H 0.37448 0.08324 0.60694 0.0
H2965 H 0.37553 0.07873 0.62522 0.0
C2966 C 0.34386 0.07258 0.63728 0.0
C2967 C 0.32595 0.07021 0.64275 0.0
C2968 C 0.34351 0.07365 0.62673 0.0
C2969 C 0.3077 0.06799 0.63753 0.0
C2970 C 0.30727 0.0686 0.62698 0.0
C2971 C 0.32461 0.07411 0.61097 0.0
C2972 C 0.34232 0.0787 0.60566 0.0
C2973 C 0.32505 0.07184 0.62151 0.0
C2974 C 0.36062 0.07996 0.61091 0.0
C2975 C 0.36125 0.07734 0.62134 0.0
H2976 H 0.69209 0.5887 0.38988 0.0
H2977 H 0.63321 0.56269 0.39413 0.0
H2978 H 0.62953 0.5586 0.37598 0.0
H2979 H 0.64173 0.56484 0.35886 0.0
H2980 H 0.69946 0.5931 0.35446 0.0
H2981 H 0.70492 0.59372 0.37268 0.0
C2982 C 0.67845 0.58214 0.38684 0.0
C2983 C 0.66295 0.57608 0.39339 0.0
C2984 C 0.67617 0.58028 0.37635 0.0
C2985 C 0.64553 0.56725 0.38931 0.0
C2986 C 0.64331 0.56506 0.37891 0.0
C2987 C 0.6555 0.57115 0.36189 0.0
C2988 C 0.67006 0.57908 0.35531 0.0
C2989 C 0.65834 0.5719 0.37236 0.0
C2990 C 0.68805 0.58676 0.35934 0.0
C2991 C 0.69112 0.58727 0.36977 0.0
H2992 H 0.15413 0.88885 0.14115 0.0
H2993 H 0.18015 0.94812 0.14239 0.0
H2994 H 0.18345 0.94841 0.12393 0.0
H2995 H 0.17769 0.93204 0.10742 0.0
H2996 H 0.15232 0.87239 0.10651 0.0
H2997 H 0.1501 0.87191 0.12489 0.0
C2998 C 0.16048 0.90184 0.13735 0.0
C2999 C 0.16665 0.91855 0.14303 0.0
C3000 C 0.16248 0.90177 0.12683 0.0
C3001 C 0.17526 0.93513 0.13811 0.0
C3002 C 0.17709 0.9353 0.12759 0.0
C3003 C 0.17177 0.91895 0.11128 0.0
C3004 C 0.1652 0.90227 0.10565 0.0
C3005 C 0.17058 0.91876 0.12187 0.0
C3006 C 0.15769 0.8853 0.1107 0.0
C3007 C 0.15629 0.88506 0.1212 0.0
H3008 H 0.83888 0.56126 0.10555 0.0
H3009 H 0.80662 0.61755 0.10503 0.0
H3010 H 0.80422 0.61709 0.12341 0.0
H3011 H 0.81381 0.60219 0.13961 0.0
H3012 H 0.84561 0.54564 0.14017 0.0
H3013 H 0.84546 0.54462 0.12174 0.0
C3014 C 0.83094 0.57321 0.10943 0.0
C3015 C 0.82313 0.58952 0.10392 0.0
C3016 C 0.82966 0.57289 0.12 0.0
C3017 C 0.8131 0.60501 0.1091 0.0
C3018 C 0.81165 0.60472 0.11961 0.0
C3019 C 0.8203 0.58939 0.13572 0.0
C3020 C 0.82986 0.5741 0.14127 0.0
C3021 C 0.82025 0.58895 0.12514 0.0
C3022 C 0.83845 0.55778 0.13608 0.0
C3023 C 0.83832 0.55716 0.12554 0.0
H3024 H 0.15891 0.05548 0.85771 0.0
H3025 H 0.19766 0.10689 0.8535 0.0
H3026 H 0.20293 0.10911 0.87164 0.0
H3027 H 0.19411 0.09856 0.88876 0.0
H3028 H 0.153 0.04911 0.89309 0.0
H3029 H 0.15128 0.04394 0.87489 0.0
C3030 C 0.16851 0.06718 0.86076 0.0
C3031 C 0.17776 0.08105 0.85421 0.0
C3032 C 0.17103 0.06878 0.87124 0.0
C3033 C 0.19051 0.09583 0.8583 0.0
C3034 C 0.19341 0.09725 0.86871 0.0
C3035 C 0.18478 0.08664 0.88573 0.0
C3036 C 0.17357 0.07439 0.8923 0.0
C3037 C 0.18336 0.08412 0.87525 0.0
C3038 C 0.16194 0.05868 0.88824 0.0
C3039 C 0.16079 0.05582 0.87781 0.0
H3040 H 0.68772 0.40449 0.60728 0.0
H3041 H 0.63688 0.44413 0.60359 0.0
H3042 H 0.63496 0.4488 0.62182 0.0
H3043 H 0.64622 0.43985 0.63886 0.0
H3044 H 0.69614 0.3991 0.64261 0.0
H3045 H 0.70001 0.39679 0.62433 0.0
C3046 C 0.67623 0.41415 0.61047 0.0
C3047 C 0.66242 0.42385 0.60408 0.0
C3048 C 0.67501 0.41656 0.62098 0.0
C3049 C 0.64783 0.43662 0.60832 0.0
C3050 C 0.64662 0.4392 0.61875 0.0
C3051 C 0.65796 0.43049 0.63567 0.0
C3052 C 0.67078 0.41959 0.64209 0.0
C3053 C 0.65991 0.42897 0.62516 0.0
C3054 C 0.68617 0.40781 0.63785 0.0
C3055 C 0.6883 0.40634 0.62739 0.0
H3056 H 0.32375 0.88631 0.3562 0.0
H3057 H 0.32627 0.95102 0.35409 0.0
H3058 H 0.32521 0.95361 0.37247 0.0
H3059 H 0.32499 0.93736 0.38918 0.0
H3060 H 0.32198 0.87269 0.39111 0.0
H3061 H 0.32116 0.87027 0.37273 0.0
C3062 C 0.32362 0.90102 0.35972 0.0
C3063 C 0.32516 0.91843 0.35375 0.0
C3064 C 0.32287 0.90241 0.37027 0.0
C3065 C 0.3254 0.93735 0.3585 0.0
C3066 C 0.3247 0.93886 0.36901 0.0
C3067 C 0.32404 0.92277 0.38555 0.0
C3068 C 0.32351 0.90524 0.39147 0.0
C3069 C 0.32371 0.92147 0.37497 0.0
C3070 C 0.32212 0.88642 0.38671 0.0
C3071 C 0.32182 0.88501 0.37621 0.0
H3072 H 0.03653 0.58334 0.03593 0.0
H3073 H 0.04143 0.61866 0.0632 0.0
H3074 H 0.00499 0.62083 0.06426 0.0
H3075 H 0.97154 0.61237 0.05763 0.0
H3076 H 0.96645 0.57514 0.03113 0.0
H3077 H 0.00313 0.5736 0.02975 0.0
C3078 C 0.0297 0.5913 0.0422 0.0
C3079 C 0.04192 0.60096 0.04942 0.0
C3080 C 0.00864 0.59206 0.04294 0.0
C3081 C 0.03259 0.61145 0.05738 0.0
C3082 C 0.01167 0.61257 0.05806 0.0
C3083 C 0.97851 0.60398 0.05154 0.0
C3084 C 0.96639 0.59394 0.04447 0.0
C3085 C -0.00044 0.60295 0.05088 0.0
C3086 C 0.97553 0.58289 0.03669 0.0
C3087 C 0.99647 0.58207 0.03588 0.0
H3088 H 0.6251 0.71979 0.28939 0.0
H3089 H 0.68357 0.71493 0.30339 0.0
H3090 H 0.68644 0.7514 0.30376 0.0
H3091 H 0.67189 0.78484 0.30073 0.0
H3092 H 0.61246 0.78973 0.28799 0.0
H3093 H 0.61021 0.75309 0.28676 0.0
C3094 C 0.63839 0.72663 0.29265 0.0
C3095 C 0.6541 0.71444 0.29632 0.0
C3096 C 0.63973 0.74768 0.29313 0.0
C3097 C 0.67137 0.72377 0.3003 0.0
C3098 C 0.67297 0.7447 0.30062 0.0
C3099 C 0.65853 0.77783 0.29762 0.0
C3100 C 0.64239 0.78988 0.29443 0.0
C3101 C 0.65722 0.75679 0.2971 0.0
C3102 C 0.62502 0.78069 0.29055 0.0
C3103 C 0.62376 0.75978 0.28982 0.0
H3104 H 0.46283 0.40365 0.53458 0.0
H3105 H 0.46017 0.38776 0.56617 0.0
H3106 H 0.4967 0.38623 0.56686 0.0
H3107 H 0.52951 0.38947 0.55858 0.0
H3108 H 0.53251 0.40702 0.5273 0.0
H3109 H 0.49576 0.40829 0.52647 0.0
C3110 C 0.4702 0.40011 0.54166 0.0
C3111 C 0.45862 0.39564 0.55028 0.0
C3112 C 0.49131 0.3996 0.54207 0.0
C3113 C 0.46857 0.39083 0.55934 0.0
C3114 C 0.48951 0.39009 0.55978 0.0
C3115 C 0.52208 0.39346 0.55157 0.0
C3116 C 0.53364 0.39801 0.543 0.0
C3117 C 0.50102 0.39434 0.55119 0.0
C3118 C 0.52389 0.40352 0.53401 0.0
C3119 C 0.5029 0.40419 0.53353 0.0
H3120 H 0.86737 0.27864 0.78551 0.0
H3121 H 0.81156 0.28421 0.80198 0.0
H3122 H 0.80812 0.24781 0.80228 0.0
H3123 H 0.82178 0.21412 0.79868 0.0
H3124 H 0.87914 0.20862 0.78384 0.0
H3125 H 0.88143 0.24525 0.78234 0.0
C3126 C 0.85455 0.272 0.7893 0.0
C3127 C 0.83977 0.2844 0.7937 0.0
C3128 C 0.85301 0.25098 0.78981 0.0
C3129 C 0.82304 0.27526 0.79833 0.0
C3130 C 0.82113 0.25435 0.79861 0.0
C3131 C 0.83467 0.22102 0.79506 0.0
C3132 C 0.85024 0.20884 0.79134 0.0
C3133 C 0.8361 0.24206 0.79446 0.0
C3134 C 0.86703 0.21782 0.78678 0.0
C3135 C 0.86831 0.2387 0.78591 0.0
H3136 H 0.96886 0.42429 0.94682 0.0
H3137 H 0.96627 0.37048 0.96498 0.0
H3138 H 0.00292 0.369 0.96538 0.0
H3139 H 0.03577 0.38266 0.96033 0.0
H3140 H 0.03827 0.43671 0.94239 0.0
H3141 H 0.00162 0.43868 0.94235 0.0
C3142 C 0.97628 0.41241 0.951 0.0
C3143 C 0.96477 0.39747 0.95581 0.0
C3144 C 0.99737 0.41169 0.95125 0.0
C3145 C 0.97472 0.38201 0.96106 0.0
C3146 C 0.9957 0.38119 0.96134 0.0
C3147 C 0.02826 0.39482 0.95639 0.0
C3148 C 0.03972 0.40949 0.95136 0.0
C3149 C 0.00717 0.39584 0.95638 0.0
C3150 C 0.02981 0.42534 0.94641 0.0
C3151 C 0.00884 0.42641 0.94633 0.0
H3152 H 0.87053 0.78367 0.20308 0.0
H3153 H 0.80795 0.78755 0.19464 0.0
H3154 H 0.80562 0.75096 0.19445 0.0
H3155 H 0.82145 0.7178 0.19649 0.0
H3156 H 0.8834 0.71421 0.20608 0.0
H3157 H 0.88572 0.75075 0.2061 0.0
C3158 C 0.85626 0.77659 0.20135 0.0
C3159 C 0.83948 0.78849 0.19885 0.0
C3160 C 0.85489 0.75554 0.20144 0.0
C3161 C 0.82125 0.77887 0.19642 0.0
C3162 C 0.81984 0.75791 0.19639 0.0
C3163 C 0.83539 0.72498 0.19873 0.0
C3164 C 0.85226 0.71316 0.20119 0.0
C3165 C 0.83658 0.74608 0.19887 0.0
C3166 C 0.87026 0.72283 0.20394 0.0
C3167 C 0.87159 0.74377 0.20402 0.0
H3168 H 0.46595 0.62085 0.4535 0.0
H3169 H 0.46381 0.55602 0.45303 0.0
H3170 H 0.5005 0.55459 0.45365 0.0
H3171 H 0.53327 0.57184 0.45389 0.0
H3172 H 0.53513 0.63666 0.45444 0.0
H3173 H 0.49846 0.63799 0.45436 0.0
C3174 C 0.47348 0.60639 0.45367 0.0
C3175 C 0.46213 0.58858 0.45321 0.0
C3176 C 0.49454 0.60568 0.45404 0.0
C3177 C 0.47219 0.56998 0.45326 0.0
C3178 C 0.49316 0.56913 0.45367 0.0
C3179 C 0.52562 0.58623 0.45412 0.0
C3180 C 0.53688 0.60412 0.45413 0.0
C3181 C 0.5045 0.5869 0.45401 0.0
C3182 C 0.52678 0.62268 0.45431 0.0
C3183 C 0.50583 0.62346 0.45429 0.0
H3184 H 0.68232 0.2164 0.6975 0.0
H3185 H 0.62097 0.21062 0.7076 0.0
H3186 H 0.61824 0.2471 0.70918 0.0
H3187 H 0.6329 0.28058 0.70723 0.0
H3188 H 0.69366 0.28672 0.69621 0.0
H3189 H 0.69719 0.25021 0.69572 0.0
C3190 C 0.66844 0.22317 0.70013 0.0
C3191 C 0.65184 0.21089 0.70238 0.0
C3192 C 0.66689 0.2442 0.70089 0.0
C3193 C 0.63387 0.21981 0.70571 0.0
C3194 C 0.63233 0.24064 0.70664 0.0
C3195 C 0.64688 0.27398 0.70464 0.0
C3196 C 0.66293 0.28648 0.70172 0.0
C3197 C 0.64865 0.25299 0.70414 0.0
C3198 C 0.6811 0.27755 0.69862 0.0
C3199 C 0.68309 0.25664 0.69826 0.0
H3200 H 0.36142 0.28523 0.69293 0.0
H3201 H 0.31155 0.28897 0.71368 0.0
H3202 H 0.3089 0.25233 0.71386 0.0
H3203 H 0.32066 0.21916 0.70801 0.0
H3204 H 0.37158 0.21586 0.68787 0.0
H3205 H 0.37394 0.25237 0.68765 0.0
C3206 C 0.35014 0.27808 0.69762 0.0
C3207 C 0.33673 0.28991 0.70329 0.0
C3208 C 0.34883 0.25703 0.69778 0.0
C3209 C 0.32192 0.28029 0.70913 0.0
C3210 C 0.32047 0.25931 0.70929 0.0
C3211 C 0.3324 0.22642 0.70366 0.0
C3212 C 0.34578 0.21472 0.69789 0.0
C3213 C 0.33383 0.24752 0.70363 0.0
C3214 C 0.36079 0.22444 0.69221 0.0
C3215 C 0.36226 0.24535 0.69213 0.0
H3216 H 0.18028 0.71396 0.19526 0.0
H3217 H 0.13087 0.70959 0.21626 0.0
H3218 H 0.12948 0.74615 0.21753 0.0
H3219 H 0.14164 0.77936 0.21234 0.0
H3220 H 0.19092 0.78389 0.1913 0.0
H3221 H 0.19342 0.74725 0.19063 0.0
C3222 C 0.1694 0.72098 0.20023 0.0
C3223 C 0.15561 0.70902 0.2056 0.0
C3224 C 0.16871 0.74204 0.20095 0.0
C3225 C 0.14144 0.71842 0.21191 0.0
C3226 C 0.1407 0.73934 0.21269 0.0
C3227 C 0.15289 0.77232 0.20759 0.0
C3228 C 0.16599 0.78434 0.20184 0.0
C3229 C 0.1541 0.75129 0.20715 0.0
C3230 C 0.18076 0.775 0.19587 0.0
C3231 C 0.18211 0.75405 0.19543 0.0
H3232 H 0.15813 0.21765 0.80962 0.0
H3233 H 0.17108 0.2134 0.77778 0.0
H3234 H 0.17272 0.25005 0.77664 0.0
H3235 H 0.1684 0.2834 0.78452 0.0
H3236 H 0.15435 0.2872 0.81626 0.0
H3237 H 0.15475 0.25063 0.81754 0.0
C3238 C 0.16117 0.22471 0.8024 0.0
C3239 C 0.1643 0.21275 0.79379 0.0
C3240 C 0.16171 0.24574 0.80176 0.0
C3241 C 0.16875 0.2222 0.78456 0.0
C3242 C 0.16955 0.24317 0.78388 0.0
C3243 C 0.16567 0.2762 0.79173 0.0
C3244 C 0.16121 0.288 0.80026 0.0
C3245 C 0.16581 0.2551 0.79241 0.0
C3246 C 0.15752 0.27845 0.80954 0.0
C3247 C 0.15783 0.25755 0.8103 0.0
H3248 H 0.34495 0.7143 0.28482 0.0
H3249 H 0.35011 0.71203 0.3173 0.0
H3250 H 0.35088 0.74859 0.31802 0.0
H3251 H 0.35005 0.78129 0.3095 0.0
H3252 H 0.34356 0.7839 0.27715 0.0
H3253 H 0.34277 0.74713 0.27634 0.0
C3254 C 0.34597 0.72176 0.29208 0.0
C3255 C 0.34765 0.71029 0.30098 0.0
C3256 C 0.34608 0.74288 0.29247 0.0
C3257 C 0.34924 0.72035 0.31029 0.0
C3258 C 0.34952 0.74131 0.31073 0.0
C3259 C 0.34857 0.77379 0.30227 0.0
C3260 C 0.347 0.78527 0.2934 0.0
C3261 C 0.34805 0.75272 0.30187 0.0
C3262 C 0.3447 0.77538 0.28409 0.0
C3263 C 0.34434 0.75437 0.28363 0.0
H3264 H 0.46855 0.11878 0.55344 0.0
H3265 H 0.46461 0.07032 0.53191 0.0
H3266 H 0.50127 0.06719 0.53184 0.0
H3267 H 0.53444 0.07856 0.53778 0.0
H3268 H 0.53806 0.12662 0.5596 0.0
H3269 H 0.50154 0.1298 0.55954 0.0
C3270 C 0.47574 0.10767 0.54866 0.0
C3271 C 0.46393 0.09488 0.54265 0.0
C3272 C 0.49676 0.10592 0.54869 0.0
C3273 C 0.47341 0.08027 0.53664 0.0
C3274 C 0.49435 0.07852 0.53658 0.0
C3275 C 0.52723 0.0896 0.54259 0.0
C3276 C 0.53901 0.1024 0.54864 0.0
C3277 C 0.50617 0.09126 0.54258 0.0
C3278 C 0.52941 0.11679 0.55474 0.0
C3279 C 0.5085 0.11856 0.55476 0.0
H3280 H 0.96096 0.90559 0.03632 0.0
H3281 H 0.95684 0.88507 0.06717 0.0
H3282 H 0.99332 0.88235 0.06806 0.0
H3283 H 0.02649 0.88617 0.0602 0.0
H3284 H 0.03086 0.90765 0.02957 0.0
H3285 H 0.99423 0.91006 0.02856 0.0
C3286 C 0.96802 0.90073 0.04328 0.0
C3287 C 0.95607 0.89544 0.05164 0.0
C3288 C 0.98909 0.89944 0.0438 0.0
C3289 C 0.96557 0.88889 0.06055 0.0
C3290 C 0.98647 0.88746 0.0611 0.0
C3291 C 0.0194 0.89122 0.05328 0.0
C3292 C 0.03135 0.89665 0.04497 0.0
C3293 C 0.99837 0.89265 0.05277 0.0
C3294 C 0.02198 0.90352 0.0361 0.0
C3295 C 0.00105 0.90482 0.03551 0.0
H3296 H 0.4686 0.90239 0.46151 0.0
H3297 H 0.46532 0.88507 0.4302 0.0
H3298 H 0.50201 0.88545 0.42904 0.0
H3299 H 0.53486 0.8911 0.43684 0.0
H3300 H 0.53834 0.90613 0.46851 0.0
H3301 H 0.50177 0.90671 0.46954 0.0
C3302 C 0.47599 0.89879 0.45444 0.0
C3303 C 0.46436 0.89376 0.44595 0.0
C3304 C 0.49708 0.89874 0.45387 0.0
C3305 C 0.47402 0.88887 0.43685 0.0
C3306 C 0.49496 0.88915 0.43617 0.0
C3307 C 0.52771 0.8942 0.44403 0.0
C3308 C 0.53951 0.89863 0.45257 0.0
C3309 C 0.50664 0.89402 0.44464 0.0
C3310 C 0.52977 0.90304 0.46174 0.0
C3311 C 0.5088 0.90322 0.46237 0.0
H3312 H 0.03148 0.08778 0.96205 0.0
H3313 H 0.03428 0.11594 0.93276 0.0
H3314 H 0.99763 0.11646 0.93184 0.0
H3315 H 0.96489 0.10893 0.93931 0.0
H3316 H 0.96176 0.08181 0.96886 0.0
H3317 H 0.99842 0.08044 0.96962 0.0
C3318 C 0.02403 0.09388 0.95545 0.0
C3319 C 0.03555 0.10186 0.9475 0.0
C3320 C 0.00292 0.09426 0.955 0.0
C3321 C 0.02572 0.10992 0.93902 0.0
C3322 C 0.00479 0.11016 0.93848 0.0
C3323 C 0.97219 0.10294 0.94598 0.0
C3324 C 0.96052 0.09554 0.95402 0.0
C3325 C 0.99324 0.10246 0.94644 0.0
C3326 C 0.97032 0.08741 0.96251 0.0
C3327 C 0.9913 0.08673 0.96298 0.0
H3328 H 0.20997 0.4899 0.97949 0.0
H3329 H 0.18164 0.44536 0.99841 0.0
H3330 H 0.18236 0.46853 0.01266 0.0
H3331 H 0.18651 0.50275 0.01896 0.0
H3332 H 0.21441 0.54774 0.00011 0.0
H3333 H 0.21813 0.52312 0.98656 0.0
C3334 C 0.20422 0.48522 0.98678 0.0
C3335 C 0.19561 0.46605 0.98788 0.0
C3336 C 0.20427 0.49877 0.99489 0.0
C3337 C 0.18848 0.46 0.99739 0.0
C3338 C 0.1887 0.47331 0.00552 0.0
C3339 C 0.19395 0.50709 0.01201 0.0
C3340 C 0.19991 0.52716 0.01052 0.0
C3341 C 0.19595 0.49293 0.00425 0.0
C3342 C 0.20928 0.5325 0.00138 0.0
C3343 C 0.21148 0.51842 0.99364 0.0
H3344 H 0.79022 0.94629 0.24777 0.0
H3345 H 0.74982 0.94779 0.22232 0.0
H3346 H 0.72118 0.95189 0.23369 0.0
H3347 H 0.70743 0.94937 0.25086 0.0
H3348 H 0.7478 0.94605 0.27628 0.0
H3349 H 0.77666 0.94874 0.26497 0.0
C3350 C 0.77515 0.94789 0.24473 0.0
C3351 C 0.77203 0.94644 0.23426 0.0
C3352 C 0.75877 0.94974 0.25131 0.0
C3353 C 0.75256 0.94888 0.23036 0.0
C3354 C 0.73618 0.95104 0.23686 0.0
C3355 C 0.72257 0.9496 0.25391 0.0
C3356 C 0.72554 0.94719 0.26434 0.0
C3357 C 0.73906 0.95062 0.24735 0.0
C3358 C 0.74515 0.9479 0.26826 0.0
C3359 C 0.76165 0.94925 0.26179 0.0
H3360 H 0.29007 0.45872 0.50337 0.0
H3361 H 0.31254 0.49715 0.52714 0.0
H3362 H 0.31084 0.52597 0.51598 0.0
H3363 H 0.30877 0.53914 0.49884 0.0
H3364 H 0.28989 0.50054 0.47449 0.0
H3365 H 0.28424 0.47303 0.48647 0.0
C3366 C 0.29446 0.47342 0.50613 0.0
C3367 C 0.3017 0.47558 0.51607 0.0
C3368 C 0.2943 0.48992 0.49952 0.0
C3369 C 0.30676 0.4949 0.51959 0.0
C3370 C 0.30601 0.51145 0.51316 0.0
C3371 C 0.30307 0.52478 0.4962 0.0
C3372 C 0.30007 0.52167 0.48583 0.0
C3373 C 0.30065 0.50894 0.50303 0.0
C3374 C 0.29232 0.50322 0.48247 0.0
C3375 C 0.28929 0.48746 0.48929 0.0
H3376 H 0.78913 0.04711 0.74891 0.0
H3377 H 0.74979 0.04821 0.77478 0.0
H3378 H 0.72058 0.04478 0.76378 0.0
H3379 H 0.70617 0.0473 0.74677 0.0
H3380 H 0.7455 0.04852 0.72089 0.0
H3381 H 0.77471 0.04486 0.73189 0.0
C3382 C 0.77416 0.04627 0.75213 0.0
C3383 C 0.77159 0.04825 0.76261 0.0
C3384 C 0.75742 0.0449 0.74574 0.0
C3385 C 0.75218 0.0467 0.76673 0.0
C3386 C 0.73545 0.04493 0.76044 0.0
C3387 C 0.72113 0.04641 0.74354 0.0
C3388 C 0.72372 0.04849 0.73307 0.0
C3389 C 0.73787 0.04491 0.74992 0.0
C3390 C 0.74311 0.04691 0.72894 0.0
C3391 C 0.75984 0.04502 0.73523 0.0
H3392 H 0.8084 0.50404 0.01819 0.0
H3393 H 0.81124 0.55438 0.99775 0.0
H3394 H 0.80834 0.53163 0.98332 0.0
H3395 H 0.80946 0.49717 0.97658 0.0
H3396 H 0.80726 0.44685 0.99706 0.0
H3397 H 0.80513 0.46979 0.01143 0.0
C3398 C 0.80803 0.50998 0.01056 0.0
C3399 C 0.8102 0.53074 0.00898 0.0
C3400 C 0.80661 0.49682 0.00234 0.0
C3401 C 0.8095 0.53842 -0.00088 0.0
C3402 C 0.808 0.52542 0.99088 0.0
C3403 C 0.80817 0.49131 0.98419 0.0
C3404 C 0.80867 0.47044 0.9858 0.0
C3405 C 0.80722 0.50457 0.9924 0.0
C3406 C 0.80678 0.46289 0.99565 0.0
C3407 C 0.80573 0.47599 0.00387 0.0
H3408 H 0.2432 0.0645 0.77124 0.0
H3409 H 0.20079 0.03908 0.75015 0.0
H3410 H 0.22671 0.03854 0.73707 0.0
H3411 H 0.26003 0.04931 0.73115 0.0
H3412 H 0.30206 0.07516 0.7523 0.0
H3413 H 0.27766 0.07123 0.76591 0.0
C3414 C 0.23974 0.05824 0.76388 0.0
C3415 C 0.22005 0.05197 0.76165 0.0
C3416 C 0.25457 0.05831 0.75638 0.0
C3417 C 0.21578 0.04424 0.75201 0.0
C3418 C 0.23058 0.04394 0.74453 0.0
C3419 C 0.26402 0.05362 0.73879 0.0
C3420 C 0.28271 0.06275 0.7407 0.0
C3421 C 0.24983 0.05156 0.74655 0.0
C3422 C 0.28761 0.06844 0.75061 0.0
C3423 C 0.2737 0.06615 0.7584 0.0
H3424 H 0.70197 0.4842 0.51388 0.0
H3425 H 0.65915 0.44975 0.49666 0.0
H3426 H 0.66196 0.47345 0.48262 0.0
H3427 H 0.67332 0.50585 0.47622 0.0
H3428 H 0.71436 0.54188 0.49376 0.0
H3429 H 0.71569 0.51565 0.50673 0.0
C3430 C 0.69362 0.48178 0.50695 0.0
C3431 C 0.68033 0.46546 0.50622 0.0
C3432 C 0.69486 0.4958 0.49906 0.0
C3433 C 0.66937 0.46238 0.49732 0.0
C3434 C 0.67095 0.47589 0.48933 0.0
C3435 C 0.683 0.50773 0.48275 0.0
C3436 C 0.69375 0.52571 0.48405 0.0
C3437 C 0.6832 0.49293 0.49024 0.0
C3438 C 0.70588 0.52815 0.49264 0.0
C3439 C 0.70661 0.5132 0.50005 0.0
H3440 H 0.24253 0.94491 0.22742 0.0
H3441 H 0.19681 0.95082 0.25032 0.0
H3442 H 0.22268 0.95281 0.26337 0.0
H3443 H 0.25768 0.94759 0.26836 0.0
H3444 H 0.30352 0.94161 0.24549 0.0
H3445 H 0.27812 0.94505 0.23231 0.0
C3446 C 0.23824 0.94727 0.23523 0.0
C3447 C 0.2178 0.94743 0.23793 0.0
C3448 C 0.25316 0.94801 0.2427 0.0
C3449 C 0.21247 0.95032 0.24809 0.0
C3450 C 0.22724 0.95143 0.25555 0.0
C3451 C 0.26226 0.94764 0.26051 0.0
C3452 C 0.28245 0.94398 0.25793 0.0
C3453 C 0.24758 0.94947 0.25297 0.0
C3454 C 0.28801 0.94391 0.24769 0.0
C3455 C 0.2735 0.94595 0.24014 0.0
H3456 H 0.69456 0.00354 0.52111 0.0
H3457 H 0.70423 0.04939 0.49862 0.0
H3458 H 0.70724 0.02366 0.48554 0.0
H3459 H 0.70176 0.98877 0.48024 0.0
H3460 H 0.69095 0.94305 0.50267 0.0
H3461 H 0.69408 0.96806 0.51608 0.0
C3462 C 0.69795 0.00786 0.5134 0.0
C3463 C 0.69891 0.02831 0.51079 0.0
C3464 C 0.69918 0.99303 0.5059 0.0
C3465 C 0.70312 0.03371 0.50076 0.0
C3466 C 0.70482 0.01903 0.49329 0.0
C3467 C 0.7007 0.98418 0.48807 0.0
C3468 C 0.69586 0.96418 0.49047 0.0
C3469 C 0.70207 0.99871 0.49572 0.0
C3470 C 0.69434 0.95846 0.50065 0.0
C3471 C 0.69612 0.97274 0.50831 0.0
H3472 H 0.20506 0.43709 0.7466 0.0
H3473 H 0.2393 0.46365 0.77078 0.0
H3474 H 0.26679 0.47105 0.75908 0.0
H3475 H 0.28286 0.46522 0.74258 0.0
H3476 H 0.24886 0.43681 0.71877 0.0
H3477 H 0.2194 0.43538 0.7296 0.0
C3478 C 0.21843 0.44481 0.74924 0.0
C3479 C 0.22036 0.44956 0.75952 0.0
C3480 C 0.23426 0.4486 0.74254 0.0
C3481 C 0.23753 0.45985 0.76288 0.0
C3482 C 0.2533 0.46394 0.75621 0.0
C3483 C 0.2689 0.45901 0.73973 0.0
C3484 C 0.26817 0.45094 0.72992 0.0
C3485 C 0.25212 0.45765 0.74612 0.0
C3486 C 0.24986 0.44328 0.72625 0.0
C3487 C 0.23303 0.44223 0.73249 0.0
H3488 H 0.79036 0.95987 0.00254 0.0
H3489 H 0.8102 -0.00048 0.02637 0.0
H3490 H 0.80934 0.02787 0.01484 0.0
H3491 H 0.80835 0.04037 0.99752 0.0
H3492 H 0.79123 0.00069 0.97329 0.0
H3493 H 0.78553 0.97345 0.9854 0.0
C3494 C 0.79433 0.97474 0.00522 0.0
C3495 C 0.80059 0.97743 0.01529 0.0
C3496 C 0.79451 0.99096 0.99845 0.0
C3497 C 0.80517 0.99693 0.01871 0.0
C3498 C 0.80491 0.01318 0.01208 0.0
C3499 C 0.80305 0.02582 0.99493 0.0
C3500 C 0.80051 0.02235 0.98456 0.0
C3501 C 0.8004 0.0102 0.00187 0.0
C3502 C 0.79329 0.00364 0.98126 0.0
C3503 C 0.79021 0.98805 0.98817 0.0
H3504 H 0.26268 0.54196 0.26617 0.0
H3505 H 0.30929 0.56847 0.2478 0.0
H3506 H 0.28719 0.56773 0.23317 0.0
H3507 H 0.25338 0.56391 0.22618 0.0
H3508 H 0.20585 0.53996 0.24477 0.0
H3509 H 0.22955 0.53516 0.25866 0.0
C3510 C 0.26804 0.54743 0.25894 0.0
C3511 C 0.28755 0.55545 0.25813 0.0
C3512 C 0.25502 0.54757 0.25061 0.0
C3513 C 0.29442 0.56205 0.24865 0.0
C3514 C 0.28172 0.56183 0.24029 0.0
C3515 C 0.24827 0.55747 0.23325 0.0
C3516 C 0.22787 0.55258 0.23451 0.0
C3517 C 0.2618 0.5553 0.24127 0.0
C3518 C 0.2215 0.54381 0.24361 0.0
C3519 C 0.235 0.54122 0.25159 0.0
H3520 H 0.3406 0.00017 0.5196 0.0
H3521 H 0.28757 0.0305 0.50878 0.0
H3522 H 0.28385 0.00538 0.49535 0.0
H3523 H 0.29847 0.9773 0.48545 0.0
H3524 H 0.35261 0.94859 0.49608 0.0
H3525 H 0.3532 0.97056 0.51083 0.0
C3526 C 0.32812 0.00114 0.51435 0.0
C3527 C 0.31457 0.01725 0.51503 0.0
C3528 C 0.32645 0.98707 0.50656 0.0
C3529 C 0.29819 0.01818 0.50836 0.0
C3530 C 0.29617 0.00394 0.50065 0.0
C3531 C 0.31015 0.97571 0.49111 0.0
C3532 C 0.32565 0.96166 0.48967 0.0
C3533 C 0.31061 0.9887 0.49948 0.0
C3534 C 0.34074 0.9596 0.497 0.0
C3535 C 0.34106 0.9721 0.50542 0.0
H3536 H 0.71424 0.5522 0.25321 0.0
H3537 H 0.7545 0.57874 0.27502 0.0
H3538 H 0.78228 0.57606 0.26311 0.0
H3539 H 0.79405 0.56994 0.246 0.0
H3540 H 0.75442 0.54266 0.22413 0.0
H3541 H 0.72745 0.54177 0.23664 0.0
C3542 C 0.72919 0.55695 0.25544 0.0
C3543 C 0.73224 0.56598 0.26491 0.0
C3544 C 0.74513 0.55546 0.24852 0.0
C3545 C 0.75168 0.57216 0.26767 0.0
C3546 C 0.76759 0.57058 0.26089 0.0
C3547 C 0.77974 0.56322 0.24401 0.0
C3548 C 0.77626 0.55658 0.23408 0.0
C3549 C 0.76434 0.5628 0.2512 0.0
C3550 C 0.75743 0.54825 0.23165 0.0
C3551 C 0.742 0.54768 0.23881 0.0
H3552 H 0.19913 0.973 0.00839 0.0
H3553 H 0.1395 0.98897 0.01839 0.0
H3554 H 0.13944 0.01799 0.00718 0.0
H3555 H 0.15518 0.03744 0.99387 0.0
H3556 H 0.21467 0.02212 0.98345 0.0
H3557 H 0.21593 0.99411 0.99546 0.0
C3558 C 0.18627 0.98301 0.00816 0.0
C3559 C 0.16925 0.97878 0.01409 0.0
C3560 C 0.18625 -0.00036 0.00161 0.0
C3561 C 0.15262 0.99177 0.01375 0.0
C3562 C 0.15259 0.00839 0.00738 0.0
C3563 C 0.16865 0.0283 0.99437 0.0
C3564 C 0.18486 0.03196 0.98783 0.0
C3565 C 0.16918 0.01228 0.00118 0.0
C3566 C 0.20194 0.01955 0.98838 0.0
C3567 C 0.20268 0.00358 0.99525 0.0
H3568 H 0.79097 0.44742 0.75065 0.0
H3569 H 0.75067 0.44725 0.77616 0.0
H3570 H 0.72194 0.45107 0.76487 0.0
H3571 H 0.70809 0.44935 0.7477 0.0
H3572 H 0.74853 0.44636 0.72226 0.0
H3573 H 0.77726 0.44923 0.73353 0.0
C3574 C 0.77591 0.44843 0.75374 0.0
C3575 C 0.77295 0.44672 0.76421 0.0
C3576 C 0.75942 0.44991 0.74719 0.0
C3577 C 0.7534 0.44857 0.76813 0.0
C3578 C 0.73693 0.45056 0.76167 0.0
C3579 C 0.72319 0.4495 0.74462 0.0
C3580 C 0.7261 0.44736 0.73416 0.0
C3581 C 0.73973 0.45043 0.75118 0.0
C3582 C 0.74576 0.4481 0.73026 0.0
C3583 C 0.76226 0.44954 0.73672 0.0
H3584 H 0.19122 0.78195 0.05074 0.0
H3585 H 0.16033 0.78361 0.02216 0.0
H3586 H 0.1626 0.74699 0.02084 0.0
H3587 H 0.17029 0.71451 0.02864 0.0
H3588 H 0.19861 0.7128 0.05795 0.0
H3589 H 0.20099 0.74937 0.05802 0.0
C3590 C 0.18542 0.77427 0.04413 0.0
C3591 C 0.1756 0.78532 0.03656 0.0
C3592 C 0.18622 0.75321 0.04359 0.0
C3593 C 0.16787 0.77529 0.02808 0.0
C3594 C 0.16912 0.7544 0.02735 0.0
C3595 C 0.177 0.72213 0.03505 0.0
C3596 C 0.18403 0.71089 0.04332 0.0
C3597 C 0.17771 0.74319 0.0352 0.0
C3598 C 0.19318 0.721 0.05144 0.0
C3599 C 0.1944 0.74196 0.05153 0.0
H3600 H 0.53064 0.94458 0.30158 0.0
H3601 H 0.53497 0.91424 0.27286 0.0
H3602 H 0.49838 0.91316 0.27163 0.0
H3603 H 0.46533 0.9178 0.27952 0.0
H3604 H 0.4609 0.94813 0.30818 0.0
H3605 H 0.49739 0.95274 0.30852 0.0
C3606 C 0.5236 0.93819 0.29493 0.0
C3607 C 0.53551 0.92924 0.28739 0.0
C3608 C 0.50256 0.93752 0.29429 0.0
C3609 C 0.52612 0.92087 0.27886 0.0
C3610 C 0.50521 0.92028 0.27814 0.0
C3611 C 0.47239 0.92559 0.28578 0.0
C3612 C 0.46059 0.93242 0.29386 0.0
C3613 C 0.49331 0.92801 0.28595 0.0
C3614 C 0.46975 0.94279 0.30187 0.0
C3615 C 0.49059 0.94531 0.30209 0.0
H3616 H 0.3 0.21449 0.55114 0.0
H3617 H 0.33658 0.20879 0.52439 0.0
H3618 H 0.33674 0.24521 0.52235 0.0
H3619 H 0.32969 0.27873 0.52921 0.0
H3620 H 0.29517 0.28442 0.55664 0.0
H3621 H 0.2909 0.24803 0.55732 0.0
C3622 C 0.30792 0.22122 0.54484 0.0
C3623 C 0.31842 0.20892 0.538 0.0
C3624 C 0.30845 0.2422 0.54387 0.0
C3625 C 0.32823 0.21785 0.52973 0.0
C3626 C 0.32851 0.23871 0.52861 0.0
C3627 C 0.32116 0.272 0.53531 0.0
C3628 C 0.31294 0.28426 0.54291 0.0
C3629 C 0.31917 0.25103 0.5358 0.0
C3630 C 0.30155 0.27536 0.55065 0.0
C3631 C 0.29924 0.25452 0.5511 0.0
H3632 H 0.96462 0.10169 0.8009 0.0
H3633 H 0.96288 0.04857 0.7823 0.0
H3634 H -0.00023 0.04775 0.78187 0.0
H3635 H 0.03241 0.06304 0.78639 0.0
H3636 H 0.03333 0.11551 0.80561 0.0
H3637 H 0.99681 0.1159 0.80602 0.0
C3638 C 0.97234 0.09 0.79671 0.0
C3639 C 0.96117 0.07537 0.79154 0.0
C3640 C 0.99336 0.08961 0.79655 0.0
C3641 C 0.97126 0.06 0.78632 0.0
C3642 C 0.9923 0.05959 0.78606 0.0
C3643 C 0.02462 0.07442 0.79075 0.0
C3644 C 0.03565 0.0894 0.79583 0.0
C3645 C 0.0035 0.07441 0.7911 0.0
C3646 C 0.02527 0.1041 0.80141 0.0
C3647 C 0.00436 0.10426 0.80173 0.0
H3648 H 0.19074 0.21935 0.94308 0.0
H3649 H 0.1559 0.21496 0.97042 0.0
H3650 H 0.15658 0.25152 0.97231 0.0
H3651 H 0.16448 0.28469 0.96538 0.0
H3652 H 0.19731 0.28925 0.93737 0.0
H3653 H 0.20049 0.25273 0.93668 0.0
C3654 C 0.18367 0.22645 0.94954 0.0
C3655 C 0.17322 0.21463 0.95658 0.0
C3656 C 0.18368 0.24748 0.95043 0.0
C3657 C 0.1639 0.22388 0.96488 0.0
C3658 C 0.16427 0.24473 0.96595 0.0
C3659 C 0.17234 0.2777 0.95912 0.0
C3660 C 0.18046 0.2897 0.9514 0.0
C3661 C 0.17363 0.25669 0.95862 0.0
C3662 C 0.19102 0.28041 0.94347 0.0
C3663 C 0.19272 0.2595 0.94302 0.0
H3664 H 0.96533 0.88819 0.20199 0.0
H3665 H 0.96253 0.94539 0.21724 0.0
H3666 H 0.99934 0.94682 0.21777 0.0
H3667 H 0.0323 0.93164 0.2138 0.0
H3668 H 0.03432 0.87476 0.19812 0.0
H3669 H 0.9978 0.87319 0.19806 0.0
C3670 C 0.97276 0.90084 0.20557 0.0
C3671 C 0.96127 0.91657 0.20965 0.0
C3672 C 0.99378 0.90159 0.20579 0.0
C3673 C 0.9711 0.93312 0.21403 0.0
C3674 C 0.99211 0.93391 0.21435 0.0
C3675 C 0.02473 0.91897 0.21033 0.0
C3676 C 0.03607 0.90326 0.20606 0.0
C3677 C 0.00361 0.91825 0.21021 0.0
C3678 C 0.02601 0.88686 0.20165 0.0
C3679 C 0.0051 0.886 0.20154 0.0
H3680 H 0.30188 0.71243 0.4553 0.0
H3681 H 0.36361 0.70908 0.4652 0.0
H3682 H 0.36563 0.74563 0.46561 0.0
H3683 H 0.35089 0.77828 0.46189 0.0
H3684 H 0.28912 0.7823 0.45211 0.0
H3685 H 0.28624 0.74567 0.45271 0.0
C3686 C 0.31572 0.71975 0.45759 0.0
C3687 C 0.33256 0.70807 0.46022 0.0
C3688 C 0.31687 0.74083 0.45771 0.0
C3689 C 0.35035 0.71771 0.46327 0.0
C3690 C 0.35158 0.73861 0.46343 0.0
C3691 C 0.33662 0.77126 0.46011 0.0
C3692 C 0.32027 0.78308 0.45694 0.0
C3693 C 0.33504 0.75029 0.46053 0.0
C3694 C 0.30205 0.77357 0.45444 0.0
C3695 C 0.30036 0.75263 0.45483 0.0
H3696 H 0.46576 0.10832 0.69822 0.0
H3697 H 0.45903 0.0471 0.70844 0.0
H3698 H 0.49561 0.04346 0.70923 0.0
H3699 H 0.5296 0.05805 0.70723 0.0
H3700 H 0.5355 0.11961 0.69737 0.0
H3701 H 0.49909 0.12289 0.6965 0.0
C3702 C 0.47223 0.09425 0.70078 0.0
C3703 C 0.45965 0.07807 0.70335 0.0
C3704 C 0.49314 0.09237 0.70134 0.0
C3705 C 0.46837 0.05977 0.70635 0.0
C3706 C 0.48928 0.05771 0.70686 0.0
C3707 C 0.52286 0.07213 0.70487 0.0
C3708 C 0.5352 0.08861 0.70246 0.0
C3709 C 0.50182 0.07394 0.70438 0.0
C3710 C 0.52631 0.10682 0.69945 0.0
C3711 C 0.5055 0.10868 0.69888 0.0
H3712 H 0.79943 0.27968 0.95688 0.0
H3713 H 0.86189 0.28249 0.96563 0.0
H3714 H 0.86331 0.24601 0.96657 0.0
H3715 H 0.84788 0.21345 0.96356 0.0
H3716 H 0.78548 0.20982 0.9548 0.0
H3717 H 0.78314 0.24652 0.95497 0.0
C3718 C 0.81331 0.27228 0.95902 0.0
C3719 C 0.83051 0.28383 0.96119 0.0
C3720 C 0.81413 0.25118 0.95942 0.0
C3721 C 0.84834 0.27403 0.96407 0.0
C3722 C 0.84923 0.25313 0.96453 0.0
C3723 C 0.83358 0.22058 0.96193 0.0
C3724 C 0.81689 0.20883 0.95917 0.0
C3725 C 0.83233 0.24158 0.96207 0.0
C3726 C 0.79866 0.21849 0.95683 0.0
C3727 C 0.79728 0.23947 0.95697 0.0
H3728 H 0.66954 0.78414 0.46607 0.0
H3729 H 0.70086 0.78645 0.43757 0.0
H3730 H 0.70414 0.74989 0.43761 0.0
H3731 H 0.69439 0.71708 0.44472 0.0
H3732 H 0.66069 0.71494 0.47248 0.0
H3733 H 0.66193 0.7516 0.47375 0.0
C3734 C 0.67711 0.77665 0.45987 0.0
C3735 C 0.68469 0.78799 0.45177 0.0
C3736 C 0.67838 0.75564 0.45979 0.0
C3737 C 0.69495 0.7781 0.44392 0.0
C3738 C 0.6967 0.75717 0.4439 0.0
C3739 C 0.68774 0.72469 0.45114 0.0
C3740 C 0.67743 0.71351 0.45848 0.0
C3741 C 0.68798 0.74577 0.45165 0.0
C3742 C 0.66861 0.72339 0.46673 0.0
C3743 C 0.66928 0.7443 0.46744 0.0
H3744 H 0.80538 0.71646 0.05072 0.0
H3745 H 0.8471 0.71556 0.02574 0.0
H3746 H 0.84528 0.75202 0.02452 0.0
H3747 H 0.83446 0.78428 0.03152 0.0
H3748 H 0.79556 0.78538 0.05759 0.0
H3749 H 0.79355 0.74878 0.05734 0.0
C3750 C 0.81413 0.72421 0.04502 0.0
C3751 C 0.82649 0.7132 0.0384 0.0
C3752 C 0.81359 0.74527 0.04457 0.0
C3753 C 0.83728 0.72353 0.03089 0.0
C3754 C 0.83642 0.74445 0.03024 0.0
C3755 C 0.82557 0.77653 0.03717 0.0
C3756 C 0.81538 0.7876 0.04463 0.0
C3757 C 0.82502 0.75547 0.0372 0.0
C3758 C 0.80346 0.77731 0.05171 0.0
C3759 C 0.80244 0.75634 0.05163 0.0
H3760 H 0.65221 0.28264 0.53396 0.0
H3761 H 0.70888 0.28571 0.54972 0.0
H3762 H 0.71117 0.24896 0.5496 0.0
H3763 H 0.69575 0.21596 0.54597 0.0
H3764 H 0.63869 0.2135 0.53058 0.0
H3765 H 0.63804 0.25013 0.52938 0.0
C3766 C 0.6653 0.27533 0.53718 0.0
C3767 C 0.68038 0.28688 0.54183 0.0
C3768 C 0.66639 0.25433 0.53715 0.0
C3769 C 0.697 0.27712 0.54617 0.0
C3770 C 0.69833 0.25614 0.54607 0.0
C3771 C 0.68339 0.2235 0.54221 0.0
C3772 C 0.66724 0.21218 0.53841 0.0
C3773 C 0.68295 0.24459 0.54173 0.0
C3774 C 0.65116 0.22201 0.53364 0.0
C3775 C 0.6508 0.24291 0.53295 0.0
H3776 H 0.96868 0.391 0.79153 0.0
H3777 H 0.96216 0.45513 0.78783 0.0
H3778 H 0.99875 0.45899 0.78797 0.0
H3779 H 0.0327 0.44391 0.78918 0.0
H3780 H 0.03835 0.3796 0.79247 0.0
H3781 H 0.00195 0.37602 0.79215 0.0
C3782 C 0.97518 0.40582 0.79055 0.0
C3783 C 0.96264 0.42272 0.7896 0.0
C3784 C 0.99611 0.40788 0.79052 0.0
C3785 C 0.97144 0.44186 0.78865 0.0
C3786 C 0.99237 0.44407 0.78868 0.0
C3787 C 0.0259 0.42915 0.78983 0.0
C3788 C 0.0382 0.41204 0.79078 0.0
C3789 C 0.00486 0.42717 0.78965 0.0
C3790 C 0.02923 0.39297 0.79156 0.0
C3791 C 0.00841 0.39091 0.79145 0.0
H3792 H 0.46713 0.58664 0.28234 0.0
H3793 H 0.46272 0.54699 0.30803 0.0
H3794 H 0.49913 0.54255 0.308 0.0
H3795 H 0.53239 0.55214 0.30158 0.0
H3796 H 0.53664 0.59431 0.27687 0.0
H3797 H 0.5002 0.59528 0.27556 0.0
C3798 C 0.47412 0.57706 0.28796 0.0
C3799 C 0.46218 0.56735 0.29524 0.0
C3800 C 0.49509 0.575 0.28808 0.0
C3801 C 0.47148 0.55456 0.30229 0.0
C3802 C 0.49234 0.55212 0.30233 0.0
C3803 C 0.52538 0.56158 0.29591 0.0
C3804 C 0.53738 0.5732 0.28938 0.0
C3805 C 0.50432 0.56263 0.2954 0.0
C3806 C 0.52793 0.58496 0.28193 0.0
C3807 C 0.50702 0.58571 0.28123 0.0
H3808 H 0.46846 0.43393 0.71582 0.0
H3809 H 0.46211 0.38343 0.69559 0.0
H3810 H 0.49844 0.38129 0.6938 0.0
H3811 H 0.53189 0.39364 0.69784 0.0
H3812 H 0.53914 0.44383 0.71812 0.0
H3813 H 0.50256 0.44658 0.71982 0.0
C3814 C 0.47507 0.42253 0.711 0.0
C3815 C 0.4626 0.4087 0.70596 0.0
C3816 C 0.49609 0.42141 0.70996 0.0
C3817 C 0.47137 0.39398 0.69974 0.0
C3818 C 0.49214 0.39282 0.69864 0.0
C3819 C 0.52551 0.40504 0.70273 0.0
C3820 C 0.53822 0.41837 0.70792 0.0
C3821 C 0.50462 0.40638 0.70374 0.0
C3822 C 0.52967 0.43343 0.71401 0.0
C3823 C 0.50877 0.43493 0.71502 0.0
H3824 H 0.97019 0.60463 0.19818 0.0
H3825 H 0.96129 0.54678 0.2123 0.0
H3826 H 0.99764 0.54253 0.21378 0.0
H3827 H 0.03215 0.55565 0.21128 0.0
H3828 H 0.04017 0.61468 0.19847 0.0
H3829 H 0.00385 0.61837 0.19658 0.0
C3830 C 0.97605 0.59123 0.20179 0.0
C3831 C 0.96286 0.57613 0.20517 0.0
C3832 C 0.99686 0.58917 0.20292 0.0
C3833 C 0.97099 0.55859 0.2095 0.0
C3834 C 0.99181 0.5562 0.21043 0.0
C3835 C 0.02583 0.5693 0.20812 0.0
C3836 C 0.03866 0.58493 0.20506 0.0
C3837 C 0.00489 0.57143 0.20719 0.0
C3838 C 0.03047 0.60259 0.20099 0.0
C3839 C 0.00976 0.60465 0.19985 0.0
loop_
_geom_bond_atom_site_label_1
_geom_bond_atom_site_label_2
_geom_bond_distance
_geom_bond_site_symmetry_2
_ccdc_geom_bond_type
Li0 N17 1.990 . S
Li0 O60 1.956 . S
Li0 O61 1.970 . S
Li0 O62 1.961 . S
Li1 N25 1.990 . S
Li1 O60 1.970 . S
Li1 O61 1.956 . S
Li1 O63 1.961 . S
Li2 N47 1.990 . S
Li2 O60 1.961 . S
Li2 O62 1.956 . S
Li2 O63 1.970 . S
Li3 N53 1.990 . S
Li3 O61 1.961 . S
Li3 O62 1.970 . S
Li3 O63 1.956 . S
C4 C6 1.348 . S
C4 C7 1.356 . S
C4 O60 1.325 . S
N5 C8 1.314 . S
N5 C9 1.279 . S
C6 C4 1.348 . S
C6 C8 1.353 . S
C6 H64 0.929 . S
C7 C4 1.356 . S
C7 C9 1.358 . S
C7 H65 0.930 . S
C8 N5 1.314 . S
C8 C6 1.353 . S
C8 H66 0.930 . S
C9 N5 1.279 . S
C9 C7 1.358 . S
C9 H67 0.930 . S
C10 C13 1.348 . S
C10 C14 1.356 . S
C10 O61 1.325 . S
C11 N12 1.279 . S
C11 C14 1.358 . S
C11 H68 0.930 . S
N12 C11 1.279 . S
N12 C15 1.314 . S
C13 C10 1.348 . S
C13 C15 1.353 . S
C13 H69 0.929 . S
C14 C10 1.356 . S
C14 C11 1.358 . S
C14 H70 0.930 . S
C15 N12 1.314 . S
C15 C13 1.353 . S
C15 H71 0.930 . S
C16 N17 1.314 . S
C16 C21 1.353 . S
C16 H22 0.930 . S
N17 Li0 1.990 . S
N17 C16 1.314 . S
N17 C19 1.279 . S
C18 C19 1.358 . S
C18 C20 1.356 . S
C18 H72 0.930 . S
C19 N17 1.279 . S
C19 C18 1.358 . S
C19 H23 0.930 . S
C20 C18 1.356 . S
C20 C21 1.348 . S
C21 C16 1.353 . S
C21 C20 1.348 . S
C21 H73 0.929 . S
H22 C16 0.930 . S
H23 C19 0.930 . S
C24 N25 1.314 . S
C24 C26 1.353 . S
C24 H30 0.930 . S
N25 Li1 1.990 . S
N25 C24 1.314 . S
N25 C28 1.279 . S
C26 C24 1.353 . S
C26 C29 1.348 . S
C26 H74 0.929 . S
C27 C28 1.358 . S
C27 C29 1.356 . S
C27 H75 0.930 . S
C28 N25 1.279 . S
C28 C27 1.358 . S
C28 H31 0.930 . S
C29 C26 1.348 . S
C29 C27 1.356 . S
H30 C24 0.930 . S
H31 C28 0.930 . S
C32 C34 1.348 . S
C32 C35 1.356 . S
C32 O62 1.325 . S
N33 C36 1.314 . S
N33 C37 1.279 . S
C34 C32 1.348 . S
C34 C36 1.353 . S
C34 H76 0.929 . S
C35 C32 1.356 . S
C35 C37 1.358 . S
C35 H77 0.930 . S
C36 N33 1.314 . S
C36 C34 1.353 . S
C36 H78 0.930 . S
C37 N33 1.279 . S
C37 C35 1.358 . S
C37 H79 0.930 . S
C38 C39 1.348 . S
C38 C40 1.356 . S
C38 O63 1.325 . S
C39 C38 1.348 . S
C39 C41 1.353 . S
C39 H80 0.929 . S
C40 C38 1.356 . S
C40 C42 1.358 . S
C40 H81 0.930 . S
C41 C39 1.353 . S
C41 N43 1.314 . S
C41 H82 0.930 . S
C42 C40 1.358 . S
C42 N43 1.279 . S
C42 H83 0.930 . S
N43 C41 1.314 . S
N43 C42 1.279 . S
C44 C46 1.353 . S
C44 N47 1.314 . S
C44 H50 0.930 . S
C45 N47 1.279 . S
C45 C48 1.358 . S
C45 H51 0.930 . S
C46 C44 1.353 . S
C46 C49 1.348 . S
C46 H84 0.929 . S
N47 Li2 1.990 . S
N47 C44 1.314 . S
N47 C45 1.279 . S
C48 C45 1.358 . S
C48 C49 1.356 . S
C48 H85 0.930 . S
C49 C46 1.348 . S
C49 C48 1.356 . S
H50 C44 0.930 . S
H51 C45 0.930 . S
C52 N53 1.314 . S
C52 C54 1.353 . S
C52 H58 0.930 . S
N53 Li3 1.990 . S
N53 C52 1.314 . S
N53 C56 1.279 . S
C54 C52 1.353 . S
C54 C57 1.348 . S
C54 H86 0.929 . S
C55 C56 1.358 . S
C55 C57 1.356 . S
C55 H87 0.930 . S
C56 N53 1.279 . S
C56 C55 1.358 . S
C56 H59 0.930 . S
C57 C54 1.348 . S
C57 C55 1.356 . S
H58 C52 0.930 . S
H59 C56 0.930 . S
O60 Li0 1.956 . S
O60 Li1 1.970 . S
O60 Li2 1.961 . S
O60 C4 1.325 . S
O61 Li0 1.970 . S
O61 Li1 1.956 . S
O61 Li3 1.961 . S
O61 C10 1.325 . S
O62 Li0 1.961 . S
O62 Li2 1.956 . S
O62 Li3 1.970 . S
O62 C32 1.325 . S
O63 Li1 1.961 . S
O63 Li2 1.970 . S
O63 Li3 1.956 . S
O63 C38 1.325 . S
H64 C6 0.929 . S
H65 C7 0.930 . S
H66 C8 0.930 . S
H67 C9 0.930 . S
H68 C11 0.930 . S
H69 C13 0.929 . S
H70 C14 0.930 . S
H71 C15 0.930 . S
H72 C18 0.930 . S
H73 C21 0.929 . S
H74 C26 0.929 . S
H75 C27 0.930 . S
H76 C34 0.929 . S
H77 C35 0.930 . S
H78 C36 0.930 . S
H79 C37 0.930 . S
H80 C39 0.929 . S
H81 C40 0.930 . S
H82 C41 0.930 . S
H83 C42 0.930 . S
H84 C46 0.929 . S
H85 C48 0.930 . S
H86 C54 0.929 . S
H87 C55 0.930 . S
Li88 N105 1.990 . S
Li88 O148 1.956 . S
Li88 O149 1.970 . S
Li88 O150 1.961 . S
Li89 N113 1.990 . S
Li89 O148 1.970 . S
Li89 O149 1.956 . S
Li89 O151 1.961 . S
Li90 N135 1.990 . S
Li90 O148 1.961 . S
Li90 O150 1.956 . S
Li90 O151 1.970 . S
Li91 N141 1.990 . S
Li91 O149 1.961 . S
Li91 O150 1.970 . S
Li91 O151 1.956 . S
C92 C94 1.348 . S
C92 C95 1.356 . S
C92 O148 1.325 . S
N93 C96 1.314 . S
N93 C97 1.279 . S
C94 C92 1.348 . S
C94 C96 1.353 . S
C94 H152 0.929 . S
C95 C92 1.356 . S
C95 C97 1.358 . S
C95 H153 0.930 . S
C96 N93 1.314 . S
C96 C94 1.353 . S
C96 H154 0.930 . S
C97 N93 1.279 . S
C97 C95 1.358 . S
C97 H155 0.930 . S
C98 C101 1.348 . S
C98 C102 1.356 . S
C98 O149 1.325 . S
C99 N100 1.279 . S
C99 C102 1.358 . S
C99 H156 0.930 . S
N100 C99 1.279 . S
N100 C103 1.314 . S
C101 C98 1.348 . S
C101 C103 1.353 . S
C101 H157 0.929 . S
C102 C98 1.356 . S
C102 C99 1.358 . S
C102 H158 0.930 . S
C103 N100 1.314 . S
C103 C101 1.353 . S
C103 H159 0.930 . S
C104 N105 1.314 . S
C104 C109 1.353 . S
C104 H110 0.930 . S
N105 Li88 1.990 . S
N105 C104 1.314 . S
N105 C107 1.279 . S
C106 C107 1.358 . S
C106 C108 1.356 . S
C106 H160 0.930 . S
C107 N105 1.279 . S
C107 C106 1.358 . S
C107 H111 0.930 . S
C108 C106 1.356 . S
C108 C109 1.348 . S
C109 C104 1.353 . S
C109 C108 1.348 . S
C109 H161 0.929 . S
H110 C104 0.930 . S
H111 C107 0.930 . S
C112 N113 1.314 . S
C112 C114 1.353 . S
C112 H118 0.930 . S
N113 Li89 1.990 . S
N113 C112 1.314 . S
N113 C116 1.279 . S
C114 C112 1.353 . S
C114 C117 1.348 . S
C114 H162 0.929 . S
C115 C116 1.358 . S
C115 C117 1.356 . S
C115 H163 0.930 . S
C116 N113 1.279 . S
C116 C115 1.358 . S
C116 H119 0.930 . S
C117 C114 1.348 . S
C117 C115 1.356 . S
H118 C112 0.930 . S
H119 C116 0.930 . S
C120 C122 1.348 . S
C120 C123 1.356 . S
C120 O150 1.325 . S
N121 C124 1.314 . S
N121 C125 1.279 . S
C122 C120 1.348 . S
C122 C124 1.353 . S
C122 H164 0.929 . S
C123 C120 1.356 . S
C123 C125 1.358 . S
C123 H165 0.930 . S
C124 N121 1.314 . S
C124 C122 1.353 . S
C124 H166 0.930 . S
C125 N121 1.279 . S
C125 C123 1.358 . S
C125 H167 0.930 . S
C126 C127 1.348 . S
C126 C128 1.356 . S
C126 O151 1.325 . S
C127 C126 1.348 . S
C127 C129 1.353 . S
C127 H168 0.929 . S
C128 C126 1.356 . S
C128 C130 1.358 . S
C128 H169 0.930 . S
C129 C127 1.353 . S
C129 N131 1.314 . S
C129 H170 0.930 . S
C130 C128 1.358 . S
C130 N131 1.279 . S
C130 H171 0.930 . S
N131 C129 1.314 . S
N131 C130 1.279 . S
C132 C134 1.353 . S
C132 N135 1.314 . S
C132 H138 0.930 . S
C133 N135 1.279 . S
C133 C136 1.358 . S
C133 H139 0.930 . S
C134 C132 1.353 . S
C134 C137 1.348 . S
C134 H172 0.929 . S
N135 Li90 1.990 . S
N135 C132 1.314 . S
N135 C133 1.279 . S
C136 C133 1.358 . S
C136 C137 1.356 . S
C136 H173 0.930 . S
C137 C134 1.348 . S
C137 C136 1.356 . S
H138 C132 0.930 . S
H139 C133 0.930 . S
C140 N141 1.314 . S
C140 C142 1.353 . S
C140 H146 0.930 . S
N141 Li91 1.990 . S
N141 C140 1.314 . S
N141 C144 1.279 . S
C142 C140 1.353 . S
C142 C145 1.348 . S
C142 H174 0.929 . S
C143 C144 1.358 . S
C143 C145 1.356 . S
C143 H175 0.930 . S
C144 N141 1.279 . S
C144 C143 1.358 . S
C144 H147 0.930 . S
C145 C142 1.348 . S
C145 C143 1.356 . S
H146 C140 0.930 . S
H147 C144 0.930 . S
O148 Li88 1.956 . S
O148 Li89 1.970 . S
O148 Li90 1.961 . S
O148 C92 1.325 . S
O149 Li88 1.970 . S
O149 Li89 1.956 . S
O149 Li91 1.961 . S
O149 C98 1.325 . S
O150 Li88 1.961 . S
O150 Li90 1.956 . S
O150 Li91 1.970 . S
O150 C120 1.325 . S
O151 Li89 1.961 . S
O151 Li90 1.970 . S
O151 Li91 1.956 . S
O151 C126 1.325 . S
H152 C94 0.929 . S
H153 C95 0.930 . S
H154 C96 0.930 . S
H155 C97 0.930 . S
H156 C99 0.930 . S
H157 C101 0.929 . S
H158 C102 0.930 . S
H159 C103 0.930 . S
H160 C106 0.930 . S
H161 C109 0.929 . S
H162 C114 0.929 . S
H163 C115 0.930 . S
H164 C122 0.929 . S
H165 C123 0.930 . S
H166 C124 0.930 . S
H167 C125 0.930 . S
H168 C127 0.929 . S
H169 C128 0.930 . S
H170 C129 0.930 . S
H171 C130 0.930 . S
H172 C134 0.929 . S
H173 C136 0.930 . S
H174 C142 0.929 . S
H175 C143 0.930 . S
Li176 N193 1.990 . S
Li176 O236 1.956 . S
Li176 O237 1.970 . S
Li176 O238 1.961 . S
Li177 N201 1.990 . S
Li177 O236 1.970 . S
Li177 O237 1.956 . S
Li177 O239 1.961 . S
Li178 N223 1.990 . S
Li178 O236 1.961 . S
Li178 O238 1.956 . S
Li178 O239 1.970 . S
Li179 N229 1.990 . S
Li179 O237 1.961 . S
Li179 O238 1.970 . S
Li179 O239 1.956 . S
C180 C182 1.348 . S
C180 C183 1.356 . S
C180 O236 1.325 . S
N181 C184 1.314 . S
N181 C185 1.279 . S
C182 C180 1.348 . S
C182 C184 1.353 . S
C182 H240 0.929 . S
C183 C180 1.356 . S
C183 C185 1.358 . S
C183 H241 0.930 . S
C184 N181 1.314 . S
C184 C182 1.353 . S
C184 H242 0.930 . S
C185 N181 1.279 . S
C185 C183 1.358 . S
C185 H243 0.930 . S
C186 C189 1.348 . S
C186 C190 1.356 . S
C186 O237 1.325 . S
C187 N188 1.279 . S
C187 C190 1.358 . S
C187 H244 0.930 . S
N188 C187 1.279 . S
N188 C191 1.314 . S
C189 C186 1.348 . S
C189 C191 1.353 . S
C189 H245 0.929 . S
C190 C186 1.356 . S
C190 C187 1.358 . S
C190 H246 0.930 . S
C191 N188 1.314 . S
C191 C189 1.353 . S
C191 H247 0.930 . S
C192 N193 1.314 . S
C192 C197 1.353 . S
C192 H198 0.930 . S
N193 Li176 1.990 . S
N193 C192 1.314 . S
N193 C195 1.279 . S
C194 C195 1.358 . S
C194 C196 1.356 . S
C194 H248 0.930 . S
C195 N193 1.279 . S
C195 C194 1.358 . S
C195 H199 0.930 . S
C196 C194 1.356 . S
C196 C197 1.348 . S
C197 C192 1.353 . S
C197 C196 1.348 . S
C197 H249 0.929 . S
H198 C192 0.930 . S
H199 C195 0.930 . S
C200 N201 1.314 . S
C200 C202 1.353 . S
C200 H206 0.930 . S
N201 Li177 1.990 . S
N201 C200 1.314 . S
N201 C204 1.279 . S
C202 C200 1.353 . S
C202 C205 1.348 . S
C202 H250 0.929 . S
C203 C204 1.358 . S
C203 C205 1.356 . S
C203 H251 0.930 . S
C204 N201 1.279 . S
C204 C203 1.358 . S
C204 H207 0.930 . S
C205 C202 1.348 . S
C205 C203 1.356 . S
H206 C200 0.930 . S
H207 C204 0.930 . S
C208 C210 1.348 . S
C208 C211 1.356 . S
C208 O238 1.325 . S
N209 C212 1.314 . S
N209 C213 1.279 . S
C210 C208 1.348 . S
C210 C212 1.353 . S
C210 H252 0.929 . S
C211 C208 1.356 . S
C211 C213 1.358 . S
C211 H253 0.930 . S
C212 N209 1.314 . S
C212 C210 1.353 . S
C212 H254 0.930 . S
C213 N209 1.279 . S
C213 C211 1.358 . S
C213 H255 0.930 . S
C214 C215 1.348 . S
C214 C216 1.356 . S
C214 O239 1.325 . S
C215 C214 1.348 . S
C215 C217 1.353 . S
C215 H256 0.929 . S
C216 C214 1.356 . S
C216 C218 1.358 . S
C216 H257 0.930 . S
C217 C215 1.353 . S
C217 N219 1.314 . S
C217 H258 0.930 . S
C218 C216 1.358 . S
C218 N219 1.279 . S
C218 H259 0.930 . S
N219 C217 1.314 . S
N219 C218 1.279 . S
C220 C222 1.353 . S
C220 N223 1.314 . S
C220 H226 0.930 . S
C221 N223 1.279 . S
C221 C224 1.358 . S
C221 H227 0.930 . S
C222 C220 1.353 . S
C222 C225 1.348 . S
C222 H260 0.929 . S
N223 Li178 1.990 . S
N223 C220 1.314 . S
N223 C221 1.279 . S
C224 C221 1.358 . S
C224 C225 1.356 . S
C224 H261 0.930 . S
C225 C222 1.348 . S
C225 C224 1.356 . S
H226 C220 0.930 . S
H227 C221 0.930 . S
C228 N229 1.314 . S
C228 C230 1.353 . S
C228 H234 0.930 . S
N229 Li179 1.990 . S
N229 C228 1.314 . S
N229 C232 1.279 . S
C230 C228 1.353 . S
C230 C233 1.348 . S
C230 H262 0.929 . S
C231 C232 1.358 . S
C231 C233 1.356 . S
C231 H263 0.930 . S
C232 N229 1.279 . S
C232 C231 1.358 . S
C232 H235 0.930 . S
C233 C230 1.348 . S
C233 C231 1.356 . S
H234 C228 0.930 . S
H235 C232 0.930 . S
O236 Li176 1.956 . S
O236 Li177 1.970 . S
O236 Li178 1.961 . S
O236 C180 1.325 . S
O237 Li176 1.970 . S
O237 Li177 1.956 . S
O237 Li179 1.961 . S
O237 C186 1.325 . S
O238 Li176 1.961 . S
O238 Li178 1.956 . S
O238 Li179 1.970 . S
O238 C208 1.325 . S
O239 Li177 1.961 . S
O239 Li178 1.970 . S
O239 Li179 1.956 . S
O239 C214 1.325 . S
H240 C182 0.929 . S
H241 C183 0.930 . S
H242 C184 0.930 . S
H243 C185 0.930 . S
H244 C187 0.930 . S
H245 C189 0.929 . S
H246 C190 0.930 . S
H247 C191 0.930 . S
H248 C194 0.930 . S
H249 C197 0.929 . S
H250 C202 0.929 . S
H251 C203 0.930 . S
H252 C210 0.929 . S
H253 C211 0.930 . S
H254 C212 0.930 . S
H255 C213 0.930 . S
H256 C215 0.929 . S
H257 C216 0.930 . S
H258 C217 0.930 . S
H259 C218 0.930 . S
H260 C222 0.929 . S
H261 C224 0.930 . S
H262 C230 0.929 . S
H263 C231 0.930 . S
Li264 N281 1.990 . S
Li264 O324 1.956 . S
Li264 O325 1.970 . S
Li264 O326 1.961 . S
Li265 N289 1.990 . S
Li265 O324 1.970 . S
Li265 O325 1.956 . S
Li265 O327 1.961 . S
Li266 N311 1.990 . S
Li266 O324 1.961 . S
Li266 O326 1.956 . S
Li266 O327 1.970 . S
Li267 N317 1.990 . S
Li267 O325 1.961 . S
Li267 O326 1.970 . S
Li267 O327 1.956 . S
C268 C270 1.348 . S
C268 C271 1.356 . S
C268 O324 1.325 . S
N269 C272 1.314 . S
N269 C273 1.279 . S
C270 C268 1.348 . S
C270 C272 1.353 . S
C270 H328 0.929 . S
C271 C268 1.356 . S
C271 C273 1.358 . S
C271 H329 0.930 . S
C272 N269 1.314 . S
C272 C270 1.353 . S
C272 H330 0.930 . S
C273 N269 1.279 . S
C273 C271 1.358 . S
C273 H331 0.930 . S
C274 C277 1.348 . S
C274 C278 1.356 . S
C274 O325 1.325 . S
C275 N276 1.279 . S
C275 C278 1.358 . S
C275 H332 0.930 . S
N276 C275 1.279 . S
N276 C279 1.314 . S
C277 C274 1.348 . S
C277 C279 1.353 . S
C277 H333 0.929 . S
C278 C274 1.356 . S
C278 C275 1.358 . S
C278 H334 0.930 . S
C279 N276 1.314 . S
C279 C277 1.353 . S
C279 H335 0.930 . S
C280 N281 1.314 . S
C280 C285 1.353 . S
C280 H286 0.930 . S
N281 Li264 1.990 . S
N281 C280 1.314 . S
N281 C283 1.279 . S
C282 C283 1.358 . S
C282 C284 1.356 . S
C282 H336 0.930 . S
C283 N281 1.279 . S
C283 C282 1.358 . S
C283 H287 0.930 . S
C284 C282 1.356 . S
C284 C285 1.348 . S
C285 C280 1.353 . S
C285 C284 1.348 . S
C285 H337 0.929 . S
H286 C280 0.930 . S
H287 C283 0.930 . S
C288 N289 1.314 . S
C288 C290 1.353 . S
C288 H294 0.930 . S
N289 Li265 1.990 . S
N289 C288 1.314 . S
N289 C292 1.279 . S
C290 C288 1.353 . S
C290 C293 1.348 . S
C290 H338 0.929 . S
C291 C292 1.358 . S
C291 C293 1.356 . S
C291 H339 0.930 . S
C292 N289 1.279 . S
C292 C291 1.358 . S
C292 H295 0.930 . S
C293 C290 1.348 . S
C293 C291 1.356 . S
H294 C288 0.930 . S
H295 C292 0.930 . S
C296 C298 1.348 . S
C296 C299 1.356 . S
C296 O326 1.325 . S
N297 C300 1.314 . S
N297 C301 1.279 . S
C298 C296 1.348 . S
C298 C300 1.353 . S
C298 H340 0.929 . S
C299 C296 1.356 . S
C299 C301 1.358 . S
C299 H341 0.930 . S
C300 N297 1.314 . S
C300 C298 1.353 . S
C300 H342 0.930 . S
C301 N297 1.279 . S
C301 C299 1.358 . S
C301 H343 0.930 . S
C302 C303 1.348 . S
C302 C304 1.356 . S
C302 O327 1.325 . S
C303 C302 1.348 . S
C303 C305 1.353 . S
C303 H344 0.929 . S
C304 C302 1.356 . S
C304 C306 1.358 . S
C304 H345 0.930 . S
C305 C303 1.353 . S
C305 N307 1.314 . S
C305 H346 0.930 . S
C306 C304 1.358 . S
C306 N307 1.279 . S
C306 H347 0.930 . S
N307 C305 1.314 . S
N307 C306 1.279 . S
C308 C310 1.353 . S
C308 N311 1.314 . S
C308 H314 0.930 . S
C309 N311 1.279 . S
C309 C312 1.358 . S
C309 H315 0.930 . S
C310 C308 1.353 . S
C310 C313 1.348 . S
C310 H348 0.929 . S
N311 Li266 1.990 . S
N311 C308 1.314 . S
N311 C309 1.279 . S
C312 C309 1.358 . S
C312 C313 1.356 . S
C312 H349 0.930 . S
C313 C310 1.348 . S
C313 C312 1.356 . S
H314 C308 0.930 . S
H315 C309 0.930 . S
C316 N317 1.314 . S
C316 C318 1.353 . S
C316 H322 0.930 . S
N317 Li267 1.990 . S
N317 C316 1.314 . S
N317 C320 1.279 . S
C318 C316 1.353 . S
C318 C321 1.348 . S
C318 H350 0.929 . S
C319 C320 1.358 . S
C319 C321 1.356 . S
C319 H351 0.930 . S
C320 N317 1.279 . S
C320 C319 1.358 . S
C320 H323 0.930 . S
C321 C318 1.348 . S
C321 C319 1.356 . S
H322 C316 0.930 . S
H323 C320 0.930 . S
O324 Li264 1.956 . S
O324 Li265 1.970 . S
O324 Li266 1.961 . S
O324 C268 1.325 . S
O325 Li264 1.970 . S
O325 Li265 1.956 . S
O325 Li267 1.961 . S
O325 C274 1.325 . S
O326 Li264 1.961 . S
O326 Li266 1.956 . S
O326 Li267 1.970 . S
O326 C296 1.325 . S
O327 Li265 1.961 . S
O327 Li266 1.970 . S
O327 Li267 1.956 . S
O327 C302 1.325 . S
H328 C270 0.929 . S
H329 C271 0.930 . S
H330 C272 0.930 . S
H331 C273 0.930 . S
H332 C275 0.930 . S
H333 C277 0.929 . S
H334 C278 0.930 . S
H335 C279 0.930 . S
H336 C282 0.930 . S
H337 C285 0.929 . S
H338 C290 0.929 . S
H339 C291 0.930 . S
H340 C298 0.929 . S
H341 C299 0.930 . S
H342 C300 0.930 . S
H343 C301 0.930 . S
H344 C303 0.929 . S
H345 C304 0.930 . S
H346 C305 0.930 . S
H347 C306 0.930 . S
H348 C310 0.929 . S
H349 C312 0.930 . S
H350 C318 0.929 . S
H351 C319 0.930 . S
Li352 N369 1.990 . S
Li352 O412 1.956 . S
Li352 O413 1.970 . S
Li352 O414 1.961 . S
Li353 N377 1.990 . S
Li353 O412 1.970 . S
Li353 O413 1.956 . S
Li353 O415 1.961 . S
Li354 N399 1.990 . S
Li354 O412 1.961 . S
Li354 O414 1.956 . S
Li354 O415 1.970 . S
Li355 N405 1.990 . S
Li355 O413 1.961 . S
Li355 O414 1.970 . S
Li355 O415 1.956 . S
C356 C358 1.348 . S
C356 C359 1.356 . S
C356 O412 1.325 . S
N357 C360 1.314 . S
N357 C361 1.279 . S
C358 C356 1.348 . S
C358 C360 1.353 . S
C358 H416 0.929 . S
C359 C356 1.356 . S
C359 C361 1.358 . S
C359 H417 0.930 . S
C360 N357 1.314 . S
C360 C358 1.353 . S
C360 H418 0.930 . S
C361 N357 1.279 . S
C361 C359 1.358 . S
C361 H419 0.930 . S
C362 C365 1.348 . S
C362 C366 1.356 . S
C362 O413 1.325 . S
C363 N364 1.279 . S
C363 C366 1.358 . S
C363 H420 0.930 . S
N364 C363 1.279 . S
N364 C367 1.314 . S
C365 C362 1.348 . S
C365 C367 1.353 . S
C365 H421 0.929 . S
C366 C362 1.356 . S
C366 C363 1.358 . S
C366 H422 0.930 . S
C367 N364 1.314 . S
C367 C365 1.353 . S
C367 H423 0.930 . S
C368 N369 1.314 . S
C368 C373 1.353 . S
C368 H374 0.930 . S
N369 Li352 1.990 . S
N369 C368 1.314 . S
N369 C371 1.279 . S
C370 C371 1.358 . S
C370 C372 1.356 . S
C370 H424 0.930 . S
C371 N369 1.279 . S
C371 C370 1.358 . S
C371 H375 0.930 . S
C372 C370 1.356 . S
C372 C373 1.348 . S
C373 C368 1.353 . S
C373 C372 1.348 . S
C373 H425 0.929 . S
H374 C368 0.930 . S
H375 C371 0.930 . S
C376 N377 1.314 . S
C376 C378 1.353 . S
C376 H382 0.930 . S
N377 Li353 1.990 . S
N377 C376 1.314 . S
N377 C380 1.279 . S
C378 C376 1.353 . S
C378 C381 1.348 . S
C378 H426 0.929 . S
C379 C380 1.358 . S
C379 C381 1.356 . S
C379 H427 0.930 . S
C380 N377 1.279 . S
C380 C379 1.358 . S
C380 H383 0.930 . S
C381 C378 1.348 . S
C381 C379 1.356 . S
H382 C376 0.930 . S
H383 C380 0.930 . S
C384 C386 1.348 . S
C384 C387 1.356 . S
C384 O414 1.325 . S
N385 C388 1.314 . S
N385 C389 1.279 . S
C386 C384 1.348 . S
C386 C388 1.353 . S
C386 H428 0.929 . S
C387 C384 1.356 . S
C387 C389 1.358 . S
C387 H429 0.930 . S
C388 N385 1.314 . S
C388 C386 1.353 . S
C388 H430 0.930 . S
C389 N385 1.279 . S
C389 C387 1.358 . S
C389 H431 0.930 . S
C390 C391 1.348 . S
C390 C392 1.356 . S
C390 O415 1.325 . S
C391 C390 1.348 . S
C391 C393 1.353 . S
C391 H432 0.929 . S
C392 C390 1.356 . S
C392 C394 1.358 . S
C392 H433 0.930 . S
C393 C391 1.353 . S
C393 N395 1.314 . S
C393 H434 0.930 . S
C394 C392 1.358 . S
C394 N395 1.279 . S
C394 H435 0.930 . S
N395 C393 1.314 . S
N395 C394 1.279 . S
C396 C398 1.353 . S
C396 N399 1.314 . S
C396 H402 0.930 . S
C397 N399 1.279 . S
C397 C400 1.358 . S
C397 H403 0.930 . S
C398 C396 1.353 . S
C398 C401 1.348 . S
C398 H436 0.929 . S
N399 Li354 1.990 . S
N399 C396 1.314 . S
N399 C397 1.279 . S
C400 C397 1.358 . S
C400 C401 1.356 . S
C400 H437 0.930 . S
C401 C398 1.348 . S
C401 C400 1.356 . S
H402 C396 0.930 . S
H403 C397 0.930 . S
C404 N405 1.314 . S
C404 C406 1.353 . S
C404 H410 0.930 . S
N405 Li355 1.990 . S
N405 C404 1.314 . S
N405 C408 1.279 . S
C406 C404 1.353 . S
C406 C409 1.348 . S
C406 H438 0.929 . S
C407 C408 1.358 . S
C407 C409 1.356 . S
C407 H439 0.930 . S
C408 N405 1.279 . S
C408 C407 1.358 . S
C408 H411 0.930 . S
C409 C406 1.348 . S
C409 C407 1.356 . S
H410 C404 0.930 . S
H411 C408 0.930 . S
O412 Li352 1.956 . S
O412 Li353 1.970 . S
O412 Li354 1.961 . S
O412 C356 1.325 . S
O413 Li352 1.970 . S
O413 Li353 1.956 . S
O413 Li355 1.961 . S
O413 C362 1.325 . S
O414 Li352 1.961 . S
O414 Li354 1.956 . S
O414 Li355 1.970 . S
O414 C384 1.325 . S
O415 Li353 1.961 . S
O415 Li354 1.970 . S
O415 Li355 1.956 . S
O415 C390 1.325 . S
H416 C358 0.929 . S
H417 C359 0.930 . S
H418 C360 0.930 . S
H419 C361 0.930 . S
H420 C363 0.930 . S
H421 C365 0.929 . S
H422 C366 0.930 . S
H423 C367 0.930 . S
H424 C370 0.930 . S
H425 C373 0.929 . S
H426 C378 0.929 . S
H427 C379 0.930 . S
H428 C386 0.929 . S
H429 C387 0.930 . S
H430 C388 0.930 . S
H431 C389 0.930 . S
H432 C391 0.929 . S
H433 C392 0.930 . S
H434 C393 0.930 . S
H435 C394 0.930 . S
H436 C398 0.929 . S
H437 C400 0.930 . S
H438 C406 0.929 . S
H439 C407 0.930 . S
Li440 N457 1.990 . S
Li440 O500 1.956 . S
Li440 O501 1.970 . S
Li440 O502 1.961 . S
Li441 N465 1.990 . S
Li441 O500 1.970 . S
Li441 O501 1.956 . S
Li441 O503 1.961 . S
Li442 N487 1.990 . S
Li442 O500 1.961 . S
Li442 O502 1.956 . S
Li442 O503 1.970 . S
Li443 N493 1.990 . S
Li443 O501 1.961 . S
Li443 O502 1.970 . S
Li443 O503 1.956 . S
C444 C446 1.348 . S
C444 C447 1.356 . S
C444 O500 1.325 . S
N445 C448 1.314 . S
N445 C449 1.279 . S
C446 C444 1.348 . S
C446 C448 1.353 . S
C446 H504 0.929 . S
C447 C444 1.356 . S
C447 C449 1.358 . S
C447 H505 0.930 . S
C448 N445 1.314 . S
C448 C446 1.353 . S
C448 H506 0.930 . S
C449 N445 1.279 . S
C449 C447 1.358 . S
C449 H507 0.930 . S
C450 C453 1.348 . S
C450 C454 1.356 . S
C450 O501 1.325 . S
C451 N452 1.279 . S
C451 C454 1.358 . S
C451 H508 0.930 . S
N452 C451 1.279 . S
N452 C455 1.314 . S
C453 C450 1.348 . S
C453 C455 1.353 . S
C453 H509 0.929 . S
C454 C450 1.356 . S
C454 C451 1.358 . S
C454 H510 0.930 . S
C455 N452 1.314 . S
C455 C453 1.353 . S
C455 H511 0.930 . S
C456 N457 1.314 . S
C456 C461 1.353 . S
C456 H462 0.930 . S
N457 Li440 1.990 . S
N457 C456 1.314 . S
N457 C459 1.279 . S
C458 C459 1.358 . S
C458 C460 1.356 . S
C458 H512 0.930 . S
C459 N457 1.279 . S
C459 C458 1.358 . S
C459 H463 0.930 . S
C460 C458 1.356 . S
C460 C461 1.348 . S
C461 C456 1.353 . S
C461 C460 1.348 . S
C461 H513 0.929 . S
H462 C456 0.930 . S
H463 C459 0.930 . S
C464 N465 1.314 . S
C464 C466 1.353 . S
C464 H470 0.930 . S
N465 Li441 1.990 . S
N465 C464 1.314 . S
N465 C468 1.279 . S
C466 C464 1.353 . S
C466 C469 1.348 . S
C466 H514 0.929 . S
C467 C468 1.358 . S
C467 C469 1.356 . S
C467 H515 0.930 . S
C468 N465 1.279 . S
C468 C467 1.358 . S
C468 H471 0.930 . S
C469 C466 1.348 . S
C469 C467 1.356 . S
H470 C464 0.930 . S
H471 C468 0.930 . S
C472 C474 1.348 . S
C472 C475 1.356 . S
C472 O502 1.325 . S
N473 C476 1.314 . S
N473 C477 1.279 . S
C474 C472 1.348 . S
C474 C476 1.353 . S
C474 H516 0.929 . S
C475 C472 1.356 . S
C475 C477 1.358 . S
C475 H517 0.930 . S
C476 N473 1.314 . S
C476 C474 1.353 . S
C476 H518 0.930 . S
C477 N473 1.279 . S
C477 C475 1.358 . S
C477 H519 0.930 . S
C478 C479 1.348 . S
C478 C480 1.356 . S
C478 O503 1.325 . S
C479 C478 1.348 . S
C479 C481 1.353 . S
C479 H520 0.929 . S
C480 C478 1.356 . S
C480 C482 1.358 . S
C480 H521 0.930 . S
C481 C479 1.353 . S
C481 N483 1.314 . S
C481 H522 0.930 . S
C482 C480 1.358 . S
C482 N483 1.279 . S
C482 H523 0.930 . S
N483 C481 1.314 . S
N483 C482 1.279 . S
C484 C486 1.353 . S
C484 N487 1.314 . S
C484 H490 0.930 . S
C485 N487 1.279 . S
C485 C488 1.358 . S
C485 H491 0.930 . S
C486 C484 1.353 . S
C486 C489 1.348 . S
C486 H524 0.929 . S
N487 Li442 1.990 . S
N487 C484 1.314 . S
N487 C485 1.279 . S
C488 C485 1.358 . S
C488 C489 1.356 . S
C488 H525 0.930 . S
C489 C486 1.348 . S
C489 C488 1.356 . S
H490 C484 0.930 . S
H491 C485 0.930 . S
C492 N493 1.314 . S
C492 C494 1.353 . S
C492 H498 0.930 . S
N493 Li443 1.990 . S
N493 C492 1.314 . S
N493 C496 1.279 . S
C494 C492 1.353 . S
C494 C497 1.348 . S
C494 H526 0.929 . S
C495 C496 1.358 . S
C495 C497 1.356 . S
C495 H527 0.930 . S
C496 N493 1.279 . S
C496 C495 1.358 . S
C496 H499 0.930 . S
C497 C494 1.348 . S
C497 C495 1.356 . S
H498 C492 0.930 . S
H499 C496 0.930 . S
O500 Li440 1.956 . S
O500 Li441 1.970 . S
O500 Li442 1.961 . S
O500 C444 1.325 . S
O501 Li440 1.970 . S
O501 Li441 1.956 . S
O501 Li443 1.961 . S
O501 C450 1.325 . S
O502 Li440 1.961 . S
O502 Li442 1.956 . S
O502 Li443 1.970 . S
O502 C472 1.325 . S
O503 Li441 1.961 . S
O503 Li442 1.970 . S
O503 Li443 1.956 . S
O503 C478 1.325 . S
H504 C446 0.929 . S
H505 C447 0.930 . S
H506 C448 0.930 . S
H507 C449 0.930 . S
H508 C451 0.930 . S
H509 C453 0.929 . S
H510 C454 0.930 . S
H511 C455 0.930 . S
H512 C458 0.930 . S
H513 C461 0.929 . S
H514 C466 0.929 . S
H515 C467 0.930 . S
H516 C474 0.929 . S
H517 C475 0.930 . S
H518 C476 0.930 . S
H519 C477 0.930 . S
H520 C479 0.929 . S
H521 C480 0.930 . S
H522 C481 0.930 . S
H523 C482 0.930 . S
H524 C486 0.929 . S
H525 C488 0.930 . S
H526 C494 0.929 . S
H527 C495 0.930 . S
Li528 N545 1.990 . S
Li528 O588 1.956 . S
Li528 O589 1.970 . S
Li528 O590 1.961 . S
Li529 N553 1.990 . S
Li529 O588 1.970 . S
Li529 O589 1.956 . S
Li529 O591 1.961 . S
Li530 N575 1.990 . S
Li530 O588 1.961 . S
Li530 O590 1.956 . S
Li530 O591 1.970 . S
Li531 N581 1.990 . S
Li531 O589 1.961 . S
Li531 O590 1.970 . S
Li531 O591 1.956 . S
C532 C534 1.348 . S
C532 C535 1.356 . S
C532 O588 1.325 . S
N533 C536 1.314 . S
N533 C537 1.279 . S
C534 C532 1.348 . S
C534 C536 1.353 . S
C534 H592 0.929 . S
C535 C532 1.356 . S
C535 C537 1.358 . S
C535 H593 0.930 . S
C536 N533 1.314 . S
C536 C534 1.353 . S
C536 H594 0.930 . S
C537 N533 1.279 . S
C537 C535 1.358 . S
C537 H595 0.930 . S
C538 C541 1.348 . S
C538 C542 1.356 . S
C538 O589 1.325 . S
C539 N540 1.279 . S
C539 C542 1.358 . S
C539 H596 0.930 . S
N540 C539 1.279 . S
N540 C543 1.314 . S
C541 C538 1.348 . S
C541 C543 1.353 . S
C541 H597 0.929 . S
C542 C538 1.356 . S
C542 C539 1.358 . S
C542 H598 0.930 . S
C543 N540 1.314 . S
C543 C541 1.353 . S
C543 H599 0.930 . S
C544 N545 1.314 . S
C544 C549 1.353 . S
C544 H550 0.930 . S
N545 Li528 1.990 . S
N545 C544 1.314 . S
N545 C547 1.279 . S
C546 C547 1.358 . S
C546 C548 1.356 . S
C546 H600 0.930 . S
C547 N545 1.279 . S
C547 C546 1.358 . S
C547 H551 0.930 . S
C548 C546 1.356 . S
C548 C549 1.348 . S
C549 C544 1.353 . S
C549 C548 1.348 . S
C549 H601 0.929 . S
H550 C544 0.930 . S
H551 C547 0.930 . S
C552 N553 1.314 . S
C552 C554 1.353 . S
C552 H558 0.930 . S
N553 Li529 1.990 . S
N553 C552 1.314 . S
N553 C556 1.279 . S
C554 C552 1.353 . S
C554 C557 1.348 . S
C554 H602 0.929 . S
C555 C556 1.358 . S
C555 C557 1.356 . S
C555 H603 0.930 . S
C556 N553 1.279 . S
C556 C555 1.358 . S
C556 H559 0.930 . S
C557 C554 1.348 . S
C557 C555 1.356 . S
H558 C552 0.930 . S
H559 C556 0.930 . S
C560 C562 1.348 . S
C560 C563 1.356 . S
C560 O590 1.325 . S
N561 C564 1.314 . S
N561 C565 1.279 . S
C562 C560 1.348 . S
C562 C564 1.353 . S
C562 H604 0.929 . S
C563 C560 1.356 . S
C563 C565 1.358 . S
C563 H605 0.930 . S
C564 N561 1.314 . S
C564 C562 1.353 . S
C564 H606 0.930 . S
C565 N561 1.279 . S
C565 C563 1.358 . S
C565 H607 0.930 . S
C566 C567 1.348 . S
C566 C568 1.356 . S
C566 O591 1.325 . S
C567 C566 1.348 . S
C567 C569 1.353 . S
C567 H608 0.929 . S
C568 C566 1.356 . S
C568 C570 1.358 . S
C568 H609 0.930 . S
C569 C567 1.353 . S
C569 N571 1.314 . S
C569 H610 0.930 . S
C570 C568 1.358 . S
C570 N571 1.279 . S
C570 H611 0.930 . S
N571 C569 1.314 . S
N571 C570 1.279 . S
C572 C574 1.353 . S
C572 N575 1.314 . S
C572 H578 0.930 . S
C573 N575 1.279 . S
C573 C576 1.358 . S
C573 H579 0.930 . S
C574 C572 1.353 . S
C574 C577 1.348 . S
C574 H612 0.929 . S
N575 Li530 1.990 . S
N575 C572 1.314 . S
N575 C573 1.279 . S
C576 C573 1.358 . S
C576 C577 1.356 . S
C576 H613 0.930 . S
C577 C574 1.348 . S
C577 C576 1.356 . S
H578 C572 0.930 . S
H579 C573 0.930 . S
C580 N581 1.314 . S
C580 C582 1.353 . S
C580 H586 0.930 . S
N581 Li531 1.990 . S
N581 C580 1.314 . S
N581 C584 1.279 . S
C582 C580 1.353 . S
C582 C585 1.348 . S
C582 H614 0.929 . S
C583 C584 1.358 . S
C583 C585 1.356 . S
C583 H615 0.930 . S
C584 N581 1.279 . S
C584 C583 1.358 . S
C584 H587 0.930 . S
C585 C582 1.348 . S
C585 C583 1.356 . S
H586 C580 0.930 . S
H587 C584 0.930 . S
O588 Li528 1.956 . S
O588 Li529 1.970 . S
O588 Li530 1.961 . S
O588 C532 1.325 . S
O589 Li528 1.970 . S
O589 Li529 1.956 . S
O589 Li531 1.961 . S
O589 C538 1.325 . S
O590 Li528 1.961 . S
O590 Li530 1.956 . S
O590 Li531 1.970 . S
O590 C560 1.325 . S
O591 Li529 1.961 . S
O591 Li530 1.970 . S
O591 Li531 1.956 . S
O591 C566 1.325 . S
H592 C534 0.929 . S
H593 C535 0.930 . S
H594 C536 0.930 . S
H595 C537 0.930 . S
H596 C539 0.930 . S
H597 C541 0.929 . S
H598 C542 0.930 . S
H599 C543 0.930 . S
H600 C546 0.930 . S
H601 C549 0.929 . S
H602 C554 0.929 . S
H603 C555 0.930 . S
H604 C562 0.929 . S
H605 C563 0.930 . S
H606 C564 0.930 . S
H607 C565 0.930 . S
H608 C567 0.929 . S
H609 C568 0.930 . S
H610 C569 0.930 . S
H611 C570 0.930 . S
H612 C574 0.929 . S
H613 C576 0.930 . S
H614 C582 0.929 . S
H615 C583 0.930 . S
Li616 N633 1.990 . S
Li616 O676 1.956 . S
Li616 O677 1.970 . S
Li616 O678 1.961 . S
Li617 N641 1.990 . S
Li617 O676 1.970 . S
Li617 O677 1.956 . S
Li617 O679 1.961 . S
Li618 N663 1.990 . S
Li618 O676 1.961 . S
Li618 O678 1.956 . S
Li618 O679 1.970 . S
Li619 N669 1.990 . S
Li619 O677 1.961 . S
Li619 O678 1.970 . S
Li619 O679 1.956 . S
C620 C622 1.348 . S
C620 C623 1.356 . S
C620 O676 1.325 . S
N621 C624 1.314 . S
N621 C625 1.279 . S
C622 C620 1.348 . S
C622 C624 1.353 . S
C622 H680 0.929 . S
C623 C620 1.356 . S
C623 C625 1.358 . S
C623 H681 0.930 . S
C624 N621 1.314 . S
C624 C622 1.353 . S
C624 H682 0.930 . S
C625 N621 1.279 . S
C625 C623 1.358 . S
C625 H683 0.930 . S
C626 C629 1.348 . S
C626 C630 1.356 . S
C626 O677 1.325 . S
C627 N628 1.279 . S
C627 C630 1.358 . S
C627 H684 0.930 . S
N628 C627 1.279 . S
N628 C631 1.314 . S
C629 C626 1.348 . S
C629 C631 1.353 . S
C629 H685 0.929 . S
C630 C626 1.356 . S
C630 C627 1.358 . S
C630 H686 0.930 . S
C631 N628 1.314 . S
C631 C629 1.353 . S
C631 H687 0.930 . S
C632 N633 1.314 . S
C632 C637 1.353 . S
C632 H638 0.930 . S
N633 Li616 1.990 . S
N633 C632 1.314 . S
N633 C635 1.279 . S
C634 C635 1.358 . S
C634 C636 1.356 . S
C634 H688 0.930 . S
C635 N633 1.279 . S
C635 C634 1.358 . S
C635 H639 0.930 . S
C636 C634 1.356 . S
C636 C637 1.348 . S
C637 C632 1.353 . S
C637 C636 1.348 . S
C637 H689 0.929 . S
H638 C632 0.930 . S
H639 C635 0.930 . S
C640 N641 1.314 . S
C640 C642 1.353 . S
C640 H646 0.930 . S
N641 Li617 1.990 . S
N641 C640 1.314 . S
N641 C644 1.279 . S
C642 C640 1.353 . S
C642 C645 1.348 . S
C642 H690 0.929 . S
C643 C644 1.358 . S
C643 C645 1.356 . S
C643 H691 0.930 . S
C644 N641 1.279 . S
C644 C643 1.358 . S
C644 H647 0.930 . S
C645 C642 1.348 . S
C645 C643 1.356 . S
H646 C640 0.930 . S
H647 C644 0.930 . S
C648 C650 1.348 . S
C648 C651 1.356 . S
C648 O678 1.325 . S
N649 C652 1.314 . S
N649 C653 1.279 . S
C650 C648 1.348 . S
C650 C652 1.353 . S
C650 H692 0.929 . S
C651 C648 1.356 . S
C651 C653 1.358 . S
C651 H693 0.930 . S
C652 N649 1.314 . S
C652 C650 1.353 . S
C652 H694 0.930 . S
C653 N649 1.279 . S
C653 C651 1.358 . S
C653 H695 0.930 . S
C654 C655 1.348 . S
C654 C656 1.356 . S
C654 O679 1.325 . S
C655 C654 1.348 . S
C655 C657 1.353 . S
C655 H696 0.929 . S
C656 C654 1.356 . S
C656 C658 1.358 . S
C656 H697 0.930 . S
C657 C655 1.353 . S
C657 N659 1.314 . S
C657 H698 0.930 . S
C658 C656 1.358 . S
C658 N659 1.279 . S
C658 H699 0.930 . S
N659 C657 1.314 . S
N659 C658 1.279 . S
C660 C662 1.353 . S
C660 N663 1.314 . S
C660 H666 0.930 . S
C661 N663 1.279 . S
C661 C664 1.358 . S
C661 H667 0.930 . S
C662 C660 1.353 . S
C662 C665 1.348 . S
C662 H700 0.929 . S
N663 Li618 1.990 . S
N663 C660 1.314 . S
N663 C661 1.279 . S
C664 C661 1.358 . S
C664 C665 1.356 . S
C664 H701 0.930 . S
C665 C662 1.348 . S
C665 C664 1.356 . S
H666 C660 0.930 . S
H667 C661 0.930 . S
C668 N669 1.314 . S
C668 C670 1.353 . S
C668 H674 0.930 . S
N669 Li619 1.990 . S
N669 C668 1.314 . S
N669 C672 1.279 . S
C670 C668 1.353 . S
C670 C673 1.348 . S
C670 H702 0.929 . S
C671 C672 1.358 . S
C671 C673 1.356 . S
C671 H703 0.930 . S
C672 N669 1.279 . S
C672 C671 1.358 . S
C672 H675 0.930 . S
C673 C670 1.348 . S
C673 C671 1.356 . S
H674 C668 0.930 . S
H675 C672 0.930 . S
O676 Li616 1.956 . S
O676 Li617 1.970 . S
O676 Li618 1.961 . S
O676 C620 1.325 . S
O677 Li616 1.970 . S
O677 Li617 1.956 . S
O677 Li619 1.961 . S
O677 C626 1.325 . S
O678 Li616 1.961 . S
O678 Li618 1.956 . S
O678 Li619 1.970 . S
O678 C648 1.325 . S
O679 Li617 1.961 . S
O679 Li618 1.970 . S
O679 Li619 1.956 . S
O679 C654 1.325 . S
H680 C622 0.929 . S
H681 C623 0.930 . S
H682 C624 0.930 . S
H683 C625 0.930 . S
H684 C627 0.930 . S
H685 C629 0.929 . S
H686 C630 0.930 . S
H687 C631 0.930 . S
H688 C634 0.930 . S
H689 C637 0.929 . S
H690 C642 0.929 . S
H691 C643 0.930 . S
H692 C650 0.929 . S
H693 C651 0.930 . S
H694 C652 0.930 . S
H695 C653 0.930 . S
H696 C655 0.929 . S
H697 C656 0.930 . S
H698 C657 0.930 . S
H699 C658 0.930 . S
H700 C662 0.929 . S
H701 C664 0.930 . S
H702 C670 0.929 . S
H703 C671 0.930 . S
Li704 N721 1.990 . S
Li704 O764 1.956 . S
Li704 O765 1.970 . S
Li704 O766 1.961 . S
Li705 N729 1.990 . S
Li705 O764 1.970 . S
Li705 O765 1.956 . S
Li705 O767 1.961 . S
Li706 N751 1.990 . S
Li706 O764 1.961 . S
Li706 O766 1.956 . S
Li706 O767 1.970 . S
Li707 N757 1.990 . S
Li707 O765 1.961 . S
Li707 O766 1.970 . S
Li707 O767 1.956 . S
C708 C710 1.348 . S
C708 C711 1.356 . S
C708 O764 1.325 . S
N709 C712 1.314 . S
N709 C713 1.279 . S
C710 C708 1.348 . S
C710 C712 1.353 . S
C710 H768 0.929 . S
C711 C708 1.356 . S
C711 C713 1.358 . S
C711 H769 0.930 . S
C712 N709 1.314 . S
C712 C710 1.353 . S
C712 H770 0.930 . S
C713 N709 1.279 . S
C713 C711 1.358 . S
C713 H771 0.930 . S
C714 C717 1.348 . S
C714 C718 1.356 . S
C714 O765 1.325 . S
C715 N716 1.279 . S
C715 C718 1.358 . S
C715 H772 0.930 . S
N716 C715 1.279 . S
N716 C719 1.314 . S
C717 C714 1.348 . S
C717 C719 1.353 . S
C717 H773 0.929 . S
C718 C714 1.356 . S
C718 C715 1.358 . S
C718 H774 0.930 . S
C719 N716 1.314 . S
C719 C717 1.353 . S
C719 H775 0.930 . S
C720 N721 1.314 . S
C720 C725 1.353 . S
C720 H726 0.930 . S
N721 Li704 1.990 . S
N721 C720 1.314 . S
N721 C723 1.279 . S
C722 C723 1.358 . S
C722 C724 1.356 . S
C722 H776 0.930 . S
C723 N721 1.279 . S
C723 C722 1.358 . S
C723 H727 0.930 . S
C724 C722 1.356 . S
C724 C725 1.348 . S
C725 C720 1.353 . S
C725 C724 1.348 . S
C725 H777 0.929 . S
H726 C720 0.930 . S
H727 C723 0.930 . S
C728 N729 1.314 . S
C728 C730 1.353 . S
C728 H734 0.930 . S
N729 Li705 1.990 . S
N729 C728 1.314 . S
N729 C732 1.279 . S
C730 C728 1.353 . S
C730 C733 1.348 . S
C730 H778 0.929 . S
C731 C732 1.358 . S
C731 C733 1.356 . S
C731 H779 0.930 . S
C732 N729 1.279 . S
C732 C731 1.358 . S
C732 H735 0.930 . S
C733 C730 1.348 . S
C733 C731 1.356 . S
H734 C728 0.930 . S
H735 C732 0.930 . S
C736 C738 1.348 . S
C736 C739 1.356 . S
C736 O766 1.325 . S
N737 C740 1.314 . S
N737 C741 1.279 . S
C738 C736 1.348 . S
C738 C740 1.353 . S
C738 H780 0.929 . S
C739 C736 1.356 . S
C739 C741 1.358 . S
C739 H781 0.930 . S
C740 N737 1.314 . S
C740 C738 1.353 . S
C740 H782 0.930 . S
C741 N737 1.279 . S
C741 C739 1.358 . S
C741 H783 0.930 . S
C742 C743 1.348 . S
C742 C744 1.356 . S
C742 O767 1.325 . S
C743 C742 1.348 . S
C743 C745 1.353 . S
C743 H784 0.929 . S
C744 C742 1.356 . S
C744 C746 1.358 . S
C744 H785 0.930 . S
C745 C743 1.353 . S
C745 N747 1.314 . S
C745 H786 0.930 . S
C746 C744 1.358 . S
C746 N747 1.279 . S
C746 H787 0.930 . S
N747 C745 1.314 . S
N747 C746 1.279 . S
C748 C750 1.353 . S
C748 N751 1.314 . S
C748 H754 0.930 . S
C749 N751 1.279 . S
C749 C752 1.358 . S
C749 H755 0.930 . S
C750 C748 1.353 . S
C750 C753 1.348 . S
C750 H788 0.929 . S
N751 Li706 1.990 . S
N751 C748 1.314 . S
N751 C749 1.279 . S
C752 C749 1.358 . S
C752 C753 1.356 . S
C752 H789 0.930 . S
C753 C750 1.348 . S
C753 C752 1.356 . S
H754 C748 0.930 . S
H755 C749 0.930 . S
C756 N757 1.314 . S
C756 C758 1.353 . S
C756 H762 0.930 . S
N757 Li707 1.990 . S
N757 C756 1.314 . S
N757 C760 1.279 . S
C758 C756 1.353 . S
C758 C761 1.348 . S
C758 H790 0.929 . S
C759 C760 1.358 . S
C759 C761 1.356 . S
C759 H791 0.930 . S
C760 N757 1.279 . S
C760 C759 1.358 . S
C760 H763 0.930 . S
C761 C758 1.348 . S
C761 C759 1.356 . S
H762 C756 0.930 . S
H763 C760 0.930 . S
O764 Li704 1.956 . S
O764 Li705 1.970 . S
O764 Li706 1.961 . S
O764 C708 1.325 . S
O765 Li704 1.970 . S
O765 Li705 1.956 . S
O765 Li707 1.961 . S
O765 C714 1.325 . S
O766 Li704 1.961 . S
O766 Li706 1.956 . S
O766 Li707 1.970 . S
O766 C736 1.325 . S
O767 Li705 1.961 . S
O767 Li706 1.970 . S
O767 Li707 1.956 . S
O767 C742 1.325 . S
H768 C710 0.929 . S
H769 C711 0.930 . S
H770 C712 0.930 . S
H771 C713 0.930 . S
H772 C715 0.930 . S
H773 C717 0.929 . S
H774 C718 0.930 . S
H775 C719 0.930 . S
H776 C722 0.930 . S
H777 C725 0.929 . S
H778 C730 0.929 . S
H779 C731 0.930 . S
H780 C738 0.929 . S
H781 C739 0.930 . S
H782 C740 0.930 . S
H783 C741 0.930 . S
H784 C743 0.929 . S
H785 C744 0.930 . S
H786 C745 0.930 . S
H787 C746 0.930 . S
H788 C750 0.929 . S
H789 C752 0.930 . S
H790 C758 0.929 . S
H791 C759 0.930 . S
Li792 N809 1.990 . S
Li792 O852 1.956 . S
Li792 O853 1.970 . S
Li792 O854 1.961 . S
Li793 N817 1.990 . S
Li793 O852 1.970 . S
Li793 O853 1.956 . S
Li793 O855 1.961 . S
Li794 N839 1.990 . S
Li794 O852 1.961 . S
Li794 O854 1.956 . S
Li794 O855 1.970 . S
Li795 N845 1.990 . S
Li795 O853 1.961 . S
Li795 O854 1.970 . S
Li795 O855 1.956 . S
C796 C798 1.348 . S
C796 C799 1.356 . S
C796 O852 1.325 . S
N797 C800 1.314 . S
N797 C801 1.279 . S
C798 C796 1.348 . S
C798 C800 1.353 . S
C798 H856 0.929 . S
C799 C796 1.356 . S
C799 C801 1.358 . S
C799 H857 0.930 . S
C800 N797 1.314 . S
C800 C798 1.353 . S
C800 H858 0.930 . S
C801 N797 1.279 . S
C801 C799 1.358 . S
C801 H859 0.930 . S
C802 C805 1.348 . S
C802 C806 1.356 . S
C802 O853 1.325 . S
C803 N804 1.279 . S
C803 C806 1.358 . S
C803 H860 0.930 . S
N804 C803 1.279 . S
N804 C807 1.314 . S
C805 C802 1.348 . S
C805 C807 1.353 . S
C805 H861 0.929 . S
C806 C802 1.356 . S
C806 C803 1.358 . S
C806 H862 0.930 . S
C807 N804 1.314 . S
C807 C805 1.353 . S
C807 H863 0.930 . S
C808 N809 1.314 . S
C808 C813 1.353 . S
C808 H814 0.930 . S
N809 Li792 1.990 . S
N809 C808 1.314 . S
N809 C811 1.279 . S
C810 C811 1.358 . S
C810 C812 1.356 . S
C810 H864 0.930 . S
C811 N809 1.279 . S
C811 C810 1.358 . S
C811 H815 0.930 . S
C812 C810 1.356 . S
C812 C813 1.348 . S
C813 C808 1.353 . S
C813 C812 1.348 . S
C813 H865 0.929 . S
H814 C808 0.930 . S
H815 C811 0.930 . S
C816 N817 1.314 . S
C816 C818 1.353 . S
C816 H822 0.930 . S
N817 Li793 1.990 . S
N817 C816 1.314 . S
N817 C820 1.279 . S
C818 C816 1.353 . S
C818 C821 1.348 . S
C818 H866 0.929 . S
C819 C820 1.358 . S
C819 C821 1.356 . S
C819 H867 0.930 . S
C820 N817 1.279 . S
C820 C819 1.358 . S
C820 H823 0.930 . S
C821 C818 1.348 . S
C821 C819 1.356 . S
H822 C816 0.930 . S
H823 C820 0.930 . S
C824 C826 1.348 . S
C824 C827 1.356 . S
C824 O854 1.325 . S
N825 C828 1.314 . S
N825 C829 1.279 . S
C826 C824 1.348 . S
C826 C828 1.353 . S
C826 H868 0.929 . S
C827 C824 1.356 . S
C827 C829 1.358 . S
C827 H869 0.930 . S
C828 N825 1.314 . S
C828 C826 1.353 . S
C828 H870 0.930 . S
C829 N825 1.279 . S
C829 C827 1.358 . S
C829 H871 0.930 . S
C830 C831 1.348 . S
C830 C832 1.356 . S
C830 O855 1.325 . S
C831 C830 1.348 . S
C831 C833 1.353 . S
C831 H872 0.929 . S
C832 C830 1.356 . S
C832 C834 1.358 . S
C832 H873 0.930 . S
C833 C831 1.353 . S
C833 N835 1.314 . S
C833 H874 0.930 . S
C834 C832 1.358 . S
C834 N835 1.279 . S
C834 H875 0.930 . S
N835 C833 1.314 . S
N835 C834 1.279 . S
C836 C838 1.353 . S
C836 N839 1.314 . S
C836 H842 0.930 . S
C837 N839 1.279 . S
C837 C840 1.358 . S
C837 H843 0.930 . S
C838 C836 1.353 . S
C838 C841 1.348 . S
C838 H876 0.929 . S
N839 Li794 1.990 . S
N839 C836 1.314 . S
N839 C837 1.279 . S
C840 C837 1.358 . S
C840 C841 1.356 . S
C840 H877 0.930 . S
C841 C838 1.348 . S
C841 C840 1.356 . S
H842 C836 0.930 . S
H843 C837 0.930 . S
C844 N845 1.314 . S
C844 C846 1.353 . S
C844 H850 0.930 . S
N845 Li795 1.990 . S
N845 C844 1.314 . S
N845 C848 1.279 . S
C846 C844 1.353 . S
C846 C849 1.348 . S
C846 H878 0.929 . S
C847 C848 1.358 . S
C847 C849 1.356 . S
C847 H879 0.930 . S
C848 N845 1.279 . S
C848 C847 1.358 . S
C848 H851 0.930 . S
C849 C846 1.348 . S
C849 C847 1.356 . S
H850 C844 0.930 . S
H851 C848 0.930 . S
O852 Li792 1.956 . S
O852 Li793 1.970 . S
O852 Li794 1.961 . S
O852 C796 1.325 . S
O853 Li792 1.970 . S
O853 Li793 1.956 . S
O853 Li795 1.961 . S
O853 C802 1.325 . S
O854 Li792 1.961 . S
O854 Li794 1.956 . S
O854 Li795 1.970 . S
O854 C824 1.325 . S
O855 Li793 1.961 . S
O855 Li794 1.970 . S
O855 Li795 1.956 . S
O855 C830 1.325 . S
H856 C798 0.929 . S
H857 C799 0.930 . S
H858 C800 0.930 . S
H859 C801 0.930 . S
H860 C803 0.930 . S
H861 C805 0.929 . S
H862 C806 0.930 . S
H863 C807 0.930 . S
H864 C810 0.930 . S
H865 C813 0.929 . S
H866 C818 0.929 . S
H867 C819 0.930 . S
H868 C826 0.929 . S
H869 C827 0.930 . S
H870 C828 0.930 . S
H871 C829 0.930 . S
H872 C831 0.929 . S
H873 C832 0.930 . S
H874 C833 0.930 . S
H875 C834 0.930 . S
H876 C838 0.929 . S
H877 C840 0.930 . S
H878 C846 0.929 . S
H879 C847 0.930 . S
Li880 N897 1.990 . S
Li880 O940 1.956 . S
Li880 O941 1.970 . S
Li880 O942 1.961 . S
Li881 N905 1.990 . S
Li881 O940 1.970 . S
Li881 O941 1.956 . S
Li881 O943 1.961 . S
Li882 N927 1.990 . S
Li882 O940 1.961 . S
Li882 O942 1.956 . S
Li882 O943 1.970 . S
Li883 N933 1.990 . S
Li883 O941 1.961 . S
Li883 O942 1.970 . S
Li883 O943 1.956 . S
C884 C886 1.348 . S
C884 C887 1.356 . S
C884 O940 1.325 . S
N885 C888 1.314 . S
N885 C889 1.279 . S
C886 C884 1.348 . S
C886 C888 1.353 . S
C886 H944 0.929 . S
C887 C884 1.356 . S
C887 C889 1.358 . S
C887 H945 0.930 . S
C888 N885 1.314 . S
C888 C886 1.353 . S
C888 H946 0.930 . S
C889 N885 1.279 . S
C889 C887 1.358 . S
C889 H947 0.930 . S
C890 C893 1.348 . S
C890 C894 1.356 . S
C890 O941 1.325 . S
C891 N892 1.279 . S
C891 C894 1.358 . S
C891 H948 0.930 . S
N892 C891 1.279 . S
N892 C895 1.314 . S
C893 C890 1.348 . S
C893 C895 1.353 . S
C893 H949 0.929 . S
C894 C890 1.356 . S
C894 C891 1.358 . S
C894 H950 0.930 . S
C895 N892 1.314 . S
C895 C893 1.353 . S
C895 H951 0.930 . S
C896 N897 1.314 . S
C896 C901 1.353 . S
C896 H902 0.930 . S
N897 Li880 1.990 . S
N897 C896 1.314 . S
N897 C899 1.279 . S
C898 C899 1.358 . S
C898 C900 1.356 . S
C898 H952 0.930 . S
C899 N897 1.279 . S
C899 C898 1.358 . S
C899 H903 0.930 . S
C900 C898 1.356 . S
C900 C901 1.348 . S
C901 C896 1.353 . S
C901 C900 1.348 . S
C901 H953 0.929 . S
H902 C896 0.930 . S
H903 C899 0.930 . S
C904 N905 1.314 . S
C904 C906 1.353 . S
C904 H910 0.930 . S
N905 Li881 1.990 . S
N905 C904 1.314 . S
N905 C908 1.279 . S
C906 C904 1.353 . S
C906 C909 1.348 . S
C906 H954 0.929 . S
C907 C908 1.358 . S
C907 C909 1.356 . S
C907 H955 0.930 . S
C908 N905 1.279 . S
C908 C907 1.358 . S
C908 H911 0.930 . S
C909 C906 1.348 . S
C909 C907 1.356 . S
H910 C904 0.930 . S
H911 C908 0.930 . S
C912 C914 1.348 . S
C912 C915 1.356 . S
C912 O942 1.325 . S
N913 C916 1.314 . S
N913 C917 1.279 . S
C914 C912 1.348 . S
C914 C916 1.353 . S
C914 H956 0.929 . S
C915 C912 1.356 . S
C915 C917 1.358 . S
C915 H957 0.930 . S
C916 N913 1.314 . S
C916 C914 1.353 . S
C916 H958 0.930 . S
C917 N913 1.279 . S
C917 C915 1.358 . S
C917 H959 0.930 . S
C918 C919 1.348 . S
C918 C920 1.356 . S
C918 O943 1.325 . S
C919 C918 1.348 . S
C919 C921 1.353 . S
C919 H960 0.929 . S
C920 C918 1.356 . S
C920 C922 1.358 . S
C920 H961 0.930 . S
C921 C919 1.353 . S
C921 N923 1.314 . S
C921 H962 0.930 . S
C922 C920 1.358 . S
C922 N923 1.279 . S
C922 H963 0.930 . S
N923 C921 1.314 . S
N923 C922 1.279 . S
C924 C926 1.353 . S
C924 N927 1.314 . S
C924 H930 0.930 . S
C925 N927 1.279 . S
C925 C928 1.358 . S
C925 H931 0.930 . S
C926 C924 1.353 . S
C926 C929 1.348 . S
C926 H964 0.929 . S
N927 Li882 1.990 . S
N927 C924 1.314 . S
N927 C925 1.279 . S
C928 C925 1.358 . S
C928 C929 1.356 . S
C928 H965 0.930 . S
C929 C926 1.348 . S
C929 C928 1.356 . S
H930 C924 0.930 . S
H931 C925 0.930 . S
C932 N933 1.314 . S
C932 C934 1.353 . S
C932 H938 0.930 . S
N933 Li883 1.990 . S
N933 C932 1.314 . S
N933 C936 1.279 . S
C934 C932 1.353 . S
C934 C937 1.348 . S
C934 H966 0.929 . S
C935 C936 1.358 . S
C935 C937 1.356 . S
C935 H967 0.930 . S
C936 N933 1.279 . S
C936 C935 1.358 . S
C936 H939 0.930 . S
C937 C934 1.348 . S
C937 C935 1.356 . S
H938 C932 0.930 . S
H939 C936 0.930 . S
O940 Li880 1.956 . S
O940 Li881 1.970 . S
O940 Li882 1.961 . S
O940 C884 1.325 . S
O941 Li880 1.970 . S
O941 Li881 1.956 . S
O941 Li883 1.961 . S
O941 C890 1.325 . S
O942 Li880 1.961 . S
O942 Li882 1.956 . S
O942 Li883 1.970 . S
O942 C912 1.325 . S
O943 Li881 1.961 . S
O943 Li882 1.970 . S
O943 Li883 1.956 . S
O943 C918 1.325 . S
H944 C886 0.929 . S
H945 C887 0.930 . S
H946 C888 0.930 . S
H947 C889 0.930 . S
H948 C891 0.930 . S
H949 C893 0.929 . S
H950 C894 0.930 . S
H951 C895 0.930 . S
H952 C898 0.930 . S
H953 C901 0.929 . S
H954 C906 0.929 . S
H955 C907 0.930 . S
H956 C914 0.929 . S
H957 C915 0.930 . S
H958 C916 0.930 . S
H959 C917 0.930 . S
H960 C919 0.929 . S
H961 C920 0.930 . S
H962 C921 0.930 . S
H963 C922 0.930 . S
H964 C926 0.929 . S
H965 C928 0.930 . S
H966 C934 0.929 . S
H967 C935 0.930 . S
Li968 N985 1.990 . S
Li968 O1028 1.956 . S
Li968 O1029 1.970 . S
Li968 O1030 1.961 . S
Li969 N993 1.990 . S
Li969 O1028 1.970 . S
Li969 O1029 1.956 . S
Li969 O1031 1.961 . S
Li970 N1015 1.990 . S
Li970 O1028 1.961 . S
Li970 O1030 1.956 . S
Li970 O1031 1.970 . S
Li971 N1021 1.990 . S
Li971 O1029 1.961 . S
Li971 O1030 1.970 . S
Li971 O1031 1.956 . S
C972 C974 1.348 . S
C972 C975 1.356 . S
C972 O1028 1.325 . S
N973 C976 1.314 . S
N973 C977 1.279 . S
C974 C972 1.348 . S
C974 C976 1.353 . S
C974 H1032 0.929 . S
C975 C972 1.356 . S
C975 C977 1.358 . S
C975 H1033 0.930 . S
C976 N973 1.314 . S
C976 C974 1.353 . S
C976 H1034 0.930 . S
C977 N973 1.279 . S
C977 C975 1.358 . S
C977 H1035 0.930 . S
C978 C981 1.348 . S
C978 C982 1.356 . S
C978 O1029 1.325 . S
C979 N980 1.279 . S
C979 C982 1.358 . S
C979 H1036 0.930 . S
N980 C979 1.279 . S
N980 C983 1.314 . S
C981 C978 1.348 . S
C981 C983 1.353 . S
C981 H1037 0.929 . S
C982 C978 1.356 . S
C982 C979 1.358 . S
C982 H1038 0.930 . S
C983 N980 1.314 . S
C983 C981 1.353 . S
C983 H1039 0.930 . S
C984 N985 1.314 . S
C984 C989 1.353 . S
C984 H990 0.930 . S
N985 Li968 1.990 . S
N985 C984 1.314 . S
N985 C987 1.279 . S
C986 C987 1.358 . S
C986 C988 1.356 . S
C986 H1040 0.930 . S
C987 N985 1.279 . S
C987 C986 1.358 . S
C987 H991 0.930 . S
C988 C986 1.356 . S
C988 C989 1.348 . S
C989 C984 1.353 . S
C989 C988 1.348 . S
C989 H1041 0.929 . S
H990 C984 0.930 . S
H991 C987 0.930 . S
C992 N993 1.314 . S
C992 C994 1.353 . S
C992 H998 0.930 . S
N993 Li969 1.990 . S
N993 C992 1.314 . S
N993 C996 1.279 . S
C994 C992 1.353 . S
C994 C997 1.348 . S
C994 H1042 0.929 . S
C995 C996 1.358 . S
C995 C997 1.356 . S
C995 H1043 0.930 . S
C996 N993 1.279 . S
C996 C995 1.358 . S
C996 H999 0.930 . S
C997 C994 1.348 . S
C997 C995 1.356 . S
H998 C992 0.930 . S
H999 C996 0.930 . S
C1000 C1002 1.348 . S
C1000 C1003 1.356 . S
C1000 O1030 1.325 . S
N1001 C1004 1.314 . S
N1001 C1005 1.279 . S
C1002 C1000 1.348 . S
C1002 C1004 1.353 . S
C1002 H1044 0.929 . S
C1003 C1000 1.356 . S
C1003 C1005 1.358 . S
C1003 H1045 0.930 . S
C1004 N1001 1.314 . S
C1004 C1002 1.353 . S
C1004 H1046 0.930 . S
C1005 N1001 1.279 . S
C1005 C1003 1.358 . S
C1005 H1047 0.930 . S
C1006 C1007 1.348 . S
C1006 C1008 1.356 . S
C1006 O1031 1.325 . S
C1007 C1006 1.348 . S
C1007 C1009 1.353 . S
C1007 H1048 0.929 . S
C1008 C1006 1.356 . S
C1008 C1010 1.358 . S
C1008 H1049 0.930 . S
C1009 C1007 1.353 . S
C1009 N1011 1.314 . S
C1009 H1050 0.930 . S
C1010 C1008 1.358 . S
C1010 N1011 1.279 . S
C1010 H1051 0.930 . S
N1011 C1009 1.314 . S
N1011 C1010 1.279 . S
C1012 C1014 1.353 . S
C1012 N1015 1.314 . S
C1012 H1018 0.930 . S
C1013 N1015 1.279 . S
C1013 C1016 1.358 . S
C1013 H1019 0.930 . S
C1014 C1012 1.353 . S
C1014 C1017 1.348 . S
C1014 H1052 0.929 . S
N1015 Li970 1.990 . S
N1015 C1012 1.314 . S
N1015 C1013 1.279 . S
C1016 C1013 1.358 . S
C1016 C1017 1.356 . S
C1016 H1053 0.930 . S
C1017 C1014 1.348 . S
C1017 C1016 1.356 . S
H1018 C1012 0.930 . S
H1019 C1013 0.930 . S
C1020 N1021 1.314 . S
C1020 C1022 1.353 . S
C1020 H1026 0.930 . S
N1021 Li971 1.990 . S
N1021 C1020 1.314 . S
N1021 C1024 1.279 . S
C1022 C1020 1.353 . S
C1022 C1025 1.348 . S
C1022 H1054 0.929 . S
C1023 C1024 1.358 . S
C1023 C1025 1.356 . S
C1023 H1055 0.930 . S
C1024 N1021 1.279 . S
C1024 C1023 1.358 . S
C1024 H1027 0.930 . S
C1025 C1022 1.348 . S
C1025 C1023 1.356 . S
H1026 C1020 0.930 . S
H1027 C1024 0.930 . S
O1028 Li968 1.956 . S
O1028 Li969 1.970 . S
O1028 Li970 1.961 . S
O1028 C972 1.325 . S
O1029 Li968 1.970 . S
O1029 Li969 1.956 . S
O1029 Li971 1.961 . S
O1029 C978 1.325 . S
O1030 Li968 1.961 . S
O1030 Li970 1.956 . S
O1030 Li971 1.970 . S
O1030 C1000 1.325 . S
O1031 Li969 1.961 . S
O1031 Li970 1.970 . S
O1031 Li971 1.956 . S
O1031 C1006 1.325 . S
H1032 C974 0.929 . S
H1033 C975 0.930 . S
H1034 C976 0.930 . S
H1035 C977 0.930 . S
H1036 C979 0.930 . S
H1037 C981 0.929 . S
H1038 C982 0.930 . S
H1039 C983 0.930 . S
H1040 C986 0.930 . S
H1041 C989 0.929 . S
H1042 C994 0.929 . S
H1043 C995 0.930 . S
H1044 C1002 0.929 . S
H1045 C1003 0.930 . S
H1046 C1004 0.930 . S
H1047 C1005 0.930 . S
H1048 C1007 0.929 . S
H1049 C1008 0.930 . S
H1050 C1009 0.930 . S
H1051 C1010 0.930 . S
H1052 C1014 0.929 . S
H1053 C1016 0.930 . S
H1054 C1022 0.929 . S
H1055 C1023 0.930 . S
Li1056 N1073 1.990 . S
Li1056 O1116 1.956 . S
Li1056 O1117 1.970 . S
Li1056 O1118 1.961 . S
Li1057 N1081 1.990 . S
Li1057 O1116 1.970 . S
Li1057 O1117 1.956 . S
Li1057 O1119 1.961 . S
Li1058 N1103 1.990 . S
Li1058 O1116 1.961 . S
Li1058 O1118 1.956 . S
Li1058 O1119 1.970 . S
Li1059 N1109 1.990 . S
Li1059 O1117 1.961 . S
Li1059 O1118 1.970 . S
Li1059 O1119 1.956 . S
C1060 C1062 1.348 . S
C1060 C1063 1.356 . S
C1060 O1116 1.325 . S
N1061 C1064 1.314 . S
N1061 C1065 1.279 . S
C1062 C1060 1.348 . S
C1062 C1064 1.353 . S
C1062 H1120 0.929 . S
C1063 C1060 1.356 . S
C1063 C1065 1.358 . S
C1063 H1121 0.930 . S
C1064 N1061 1.314 . S
C1064 C1062 1.353 . S
C1064 H1122 0.930 . S
C1065 N1061 1.279 . S
C1065 C1063 1.358 . S
C1065 H1123 0.930 . S
C1066 C1069 1.348 . S
C1066 C1070 1.356 . S
C1066 O1117 1.325 . S
C1067 N1068 1.279 . S
C1067 C1070 1.358 . S
C1067 H1124 0.930 . S
N1068 C1067 1.279 . S
N1068 C1071 1.314 . S
C1069 C1066 1.348 . S
C1069 C1071 1.353 . S
C1069 H1125 0.929 . S
C1070 C1066 1.356 . S
C1070 C1067 1.358 . S
C1070 H1126 0.930 . S
C1071 N1068 1.314 . S
C1071 C1069 1.353 . S
C1071 H1127 0.930 . S
C1072 N1073 1.314 . S
C1072 C1077 1.353 . S
C1072 H1078 0.930 . S
N1073 Li1056 1.990 . S
N1073 C1072 1.314 . S
N1073 C1075 1.279 . S
C1074 C1075 1.358 . S
C1074 C1076 1.356 . S
C1074 H1128 0.930 . S
C1075 N1073 1.279 . S
C1075 C1074 1.358 . S
C1075 H1079 0.930 . S
C1076 C1074 1.356 . S
C1076 C1077 1.348 . S
C1077 C1072 1.353 . S
C1077 C1076 1.348 . S
C1077 H1129 0.929 . S
H1078 C1072 0.930 . S
H1079 C1075 0.930 . S
C1080 N1081 1.314 . S
C1080 C1082 1.353 . S
C1080 H1086 0.930 . S
N1081 Li1057 1.990 . S
N1081 C1080 1.314 . S
N1081 C1084 1.279 . S
C1082 C1080 1.353 . S
C1082 C1085 1.348 . S
C1082 H1130 0.929 . S
C1083 C1084 1.358 . S
C1083 C1085 1.356 . S
C1083 H1131 0.930 . S
C1084 N1081 1.279 . S
C1084 C1083 1.358 . S
C1084 H1087 0.930 . S
C1085 C1082 1.348 . S
C1085 C1083 1.356 . S
H1086 C1080 0.930 . S
H1087 C1084 0.930 . S
C1088 C1090 1.348 . S
C1088 C1091 1.356 . S
C1088 O1118 1.325 . S
N1089 C1092 1.314 . S
N1089 C1093 1.279 . S
C1090 C1088 1.348 . S
C1090 C1092 1.353 . S
C1090 H1132 0.929 . S
C1091 C1088 1.356 . S
C1091 C1093 1.358 . S
C1091 H1133 0.930 . S
C1092 N1089 1.314 . S
C1092 C1090 1.353 . S
C1092 H1134 0.930 . S
C1093 N1089 1.279 . S
C1093 C1091 1.358 . S
C1093 H1135 0.930 . S
C1094 C1095 1.348 . S
C1094 C1096 1.356 . S
C1094 O1119 1.325 . S
C1095 C1094 1.348 . S
C1095 C1097 1.353 . S
C1095 H1136 0.929 . S
C1096 C1094 1.356 . S
C1096 C1098 1.358 . S
C1096 H1137 0.930 . S
C1097 C1095 1.353 . S
C1097 N1099 1.314 . S
C1097 H1138 0.930 . S
C1098 C1096 1.358 . S
C1098 N1099 1.279 . S
C1098 H1139 0.930 . S
N1099 C1097 1.314 . S
N1099 C1098 1.279 . S
C1100 C1102 1.353 . S
C1100 N1103 1.314 . S
C1100 H1106 0.930 . S
C1101 N1103 1.279 . S
C1101 C1104 1.358 . S
C1101 H1107 0.930 . S
C1102 C1100 1.353 . S
C1102 C1105 1.348 . S
C1102 H1140 0.929 . S
N1103 Li1058 1.990 . S
N1103 C1100 1.314 . S
N1103 C1101 1.279 . S
C1104 C1101 1.358 . S
C1104 C1105 1.356 . S
C1104 H1141 0.930 . S
C1105 C1102 1.348 . S
C1105 C1104 1.356 . S
H1106 C1100 0.930 . S
H1107 C1101 0.930 . S
C1108 N1109 1.314 . S
C1108 C1110 1.353 . S
C1108 H1114 0.930 . S
N1109 Li1059 1.990 . S
N1109 C1108 1.314 . S
N1109 C1112 1.279 . S
C1110 C1108 1.353 . S
C1110 C1113 1.348 . S
C1110 H1142 0.929 . S
C1111 C1112 1.358 . S
C1111 C1113 1.356 . S
C1111 H1143 0.930 . S
C1112 N1109 1.279 . S
C1112 C1111 1.358 . S
C1112 H1115 0.930 . S
C1113 C1110 1.348 . S
C1113 C1111 1.356 . S
H1114 C1108 0.930 . S
H1115 C1112 0.930 . S
O1116 Li1056 1.956 . S
O1116 Li1057 1.970 . S
O1116 Li1058 1.961 . S
O1116 C1060 1.325 . S
O1117 Li1056 1.970 . S
O1117 Li1057 1.956 . S
O1117 Li1059 1.961 . S
O1117 C1066 1.325 . S
O1118 Li1056 1.961 . S
O1118 Li1058 1.956 . S
O1118 Li1059 1.970 . S
O1118 C1088 1.325 . S
O1119 Li1057 1.961 . S
O1119 Li1058 1.970 . S
O1119 Li1059 1.956 . S
O1119 C1094 1.325 . S
H1120 C1062 0.929 . S
H1121 C1063 0.930 . S
H1122 C1064 0.930 . S
H1123 C1065 0.930 . S
H1124 C1067 0.930 . S
H1125 C1069 0.929 . S
H1126 C1070 0.930 . S
H1127 C1071 0.930 . S
H1128 C1074 0.930 . S
H1129 C1077 0.929 . S
H1130 C1082 0.929 . S
H1131 C1083 0.930 . S
H1132 C1090 0.929 . S
H1133 C1091 0.930 . S
H1134 C1092 0.930 . S
H1135 C1093 0.930 . S
H1136 C1095 0.929 . S
H1137 C1096 0.930 . S
H1138 C1097 0.930 . S
H1139 C1098 0.930 . S
H1140 C1102 0.929 . S
H1141 C1104 0.930 . S
H1142 C1110 0.929 . S
H1143 C1111 0.930 . S
Li1144 N1161 1.990 . S
Li1144 O1204 1.956 . S
Li1144 O1205 1.970 . S
Li1144 O1206 1.961 . S
Li1145 N1169 1.990 . S
Li1145 O1204 1.970 . S
Li1145 O1205 1.956 . S
Li1145 O1207 1.961 . S
Li1146 N1191 1.990 . S
Li1146 O1204 1.961 . S
Li1146 O1206 1.956 . S
Li1146 O1207 1.970 . S
Li1147 N1197 1.990 . S
Li1147 O1205 1.961 . S
Li1147 O1206 1.970 . S
Li1147 O1207 1.956 . S
C1148 C1150 1.348 . S
C1148 C1151 1.356 . S
C1148 O1204 1.325 . S
N1149 C1152 1.314 . S
N1149 C1153 1.279 . S
C1150 C1148 1.348 . S
C1150 C1152 1.353 . S
C1150 H1208 0.929 . S
C1151 C1148 1.356 . S
C1151 C1153 1.358 . S
C1151 H1209 0.930 . S
C1152 N1149 1.314 . S
C1152 C1150 1.353 . S
C1152 H1210 0.930 . S
C1153 N1149 1.279 . S
C1153 C1151 1.358 . S
C1153 H1211 0.930 . S
C1154 C1157 1.348 . S
C1154 C1158 1.356 . S
C1154 O1205 1.325 . S
C1155 N1156 1.279 . S
C1155 C1158 1.358 . S
C1155 H1212 0.930 . S
N1156 C1155 1.279 . S
N1156 C1159 1.314 . S
C1157 C1154 1.348 . S
C1157 C1159 1.353 . S
C1157 H1213 0.929 . S
C1158 C1154 1.356 . S
C1158 C1155 1.358 . S
C1158 H1214 0.930 . S
C1159 N1156 1.314 . S
C1159 C1157 1.353 . S
C1159 H1215 0.930 . S
C1160 N1161 1.314 . S
C1160 C1165 1.353 . S
C1160 H1166 0.930 . S
N1161 Li1144 1.990 . S
N1161 C1160 1.314 . S
N1161 C1163 1.279 . S
C1162 C1163 1.358 . S
C1162 C1164 1.356 . S
C1162 H1216 0.930 . S
C1163 N1161 1.279 . S
C1163 C1162 1.358 . S
C1163 H1167 0.930 . S
C1164 C1162 1.356 . S
C1164 C1165 1.348 . S
C1165 C1160 1.353 . S
C1165 C1164 1.348 . S
C1165 H1217 0.929 . S
H1166 C1160 0.930 . S
H1167 C1163 0.930 . S
C1168 N1169 1.314 . S
C1168 C1170 1.353 . S
C1168 H1174 0.930 . S
N1169 Li1145 1.990 . S
N1169 C1168 1.314 . S
N1169 C1172 1.279 . S
C1170 C1168 1.353 . S
C1170 C1173 1.348 . S
C1170 H1218 0.929 . S
C1171 C1172 1.358 . S
C1171 C1173 1.356 . S
C1171 H1219 0.930 . S
C1172 N1169 1.279 . S
C1172 C1171 1.358 . S
C1172 H1175 0.930 . S
C1173 C1170 1.348 . S
C1173 C1171 1.356 . S
H1174 C1168 0.930 . S
H1175 C1172 0.930 . S
C1176 C1178 1.348 . S
C1176 C1179 1.356 . S
C1176 O1206 1.325 . S
N1177 C1180 1.314 . S
N1177 C1181 1.279 . S
C1178 C1176 1.348 . S
C1178 C1180 1.353 . S
C1178 H1220 0.929 . S
C1179 C1176 1.356 . S
C1179 C1181 1.358 . S
C1179 H1221 0.930 . S
C1180 N1177 1.314 . S
C1180 C1178 1.353 . S
C1180 H1222 0.930 . S
C1181 N1177 1.279 . S
C1181 C1179 1.358 . S
C1181 H1223 0.930 . S
C1182 C1183 1.348 . S
C1182 C1184 1.356 . S
C1182 O1207 1.325 . S
C1183 C1182 1.348 . S
C1183 C1185 1.353 . S
C1183 H1224 0.929 . S
C1184 C1182 1.356 . S
C1184 C1186 1.358 . S
C1184 H1225 0.930 . S
C1185 C1183 1.353 . S
C1185 N1187 1.314 . S
C1185 H1226 0.930 . S
C1186 C1184 1.358 . S
C1186 N1187 1.279 . S
C1186 H1227 0.930 . S
N1187 C1185 1.314 . S
N1187 C1186 1.279 . S
C1188 C1190 1.353 . S
C1188 N1191 1.314 . S
C1188 H1194 0.930 . S
C1189 N1191 1.279 . S
C1189 C1192 1.358 . S
C1189 H1195 0.930 . S
C1190 C1188 1.353 . S
C1190 C1193 1.348 . S
C1190 H1228 0.929 . S
N1191 Li1146 1.990 . S
N1191 C1188 1.314 . S
N1191 C1189 1.279 . S
C1192 C1189 1.358 . S
C1192 C1193 1.356 . S
C1192 H1229 0.930 . S
C1193 C1190 1.348 . S
C1193 C1192 1.356 . S
H1194 C1188 0.930 . S
H1195 C1189 0.930 . S
C1196 N1197 1.314 . S
C1196 C1198 1.353 . S
C1196 H1202 0.930 . S
N1197 Li1147 1.990 . S
N1197 C1196 1.314 . S
N1197 C1200 1.279 . S
C1198 C1196 1.353 . S
C1198 C1201 1.348 . S
C1198 H1230 0.929 . S
C1199 C1200 1.358 . S
C1199 C1201 1.356 . S
C1199 H1231 0.930 . S
C1200 N1197 1.279 . S
C1200 C1199 1.358 . S
C1200 H1203 0.930 . S
C1201 C1198 1.348 . S
C1201 C1199 1.356 . S
H1202 C1196 0.930 . S
H1203 C1200 0.930 . S
O1204 Li1144 1.956 . S
O1204 Li1145 1.970 . S
O1204 Li1146 1.961 . S
O1204 C1148 1.325 . S
O1205 Li1144 1.970 . S
O1205 Li1145 1.956 . S
O1205 Li1147 1.961 . S
O1205 C1154 1.325 . S
O1206 Li1144 1.961 . S
O1206 Li1146 1.956 . S
O1206 Li1147 1.970 . S
O1206 C1176 1.325 . S
O1207 Li1145 1.961 . S
O1207 Li1146 1.970 . S
O1207 Li1147 1.956 . S
O1207 C1182 1.325 . S
H1208 C1150 0.929 . S
H1209 C1151 0.930 . S
H1210 C1152 0.930 . S
H1211 C1153 0.930 . S
H1212 C1155 0.930 . S
H1213 C1157 0.929 . S
H1214 C1158 0.930 . S
H1215 C1159 0.930 . S
H1216 C1162 0.930 . S
H1217 C1165 0.929 . S
H1218 C1170 0.929 . S
H1219 C1171 0.930 . S
H1220 C1178 0.929 . S
H1221 C1179 0.930 . S
H1222 C1180 0.930 . S
H1223 C1181 0.930 . S
H1224 C1183 0.929 . S
H1225 C1184 0.930 . S
H1226 C1185 0.930 . S
H1227 C1186 0.930 . S
H1228 C1190 0.929 . S
H1229 C1192 0.930 . S
H1230 C1198 0.929 . S
H1231 C1199 0.930 . S
Li1232 N1249 1.990 . S
Li1232 O1292 1.956 . S
Li1232 O1293 1.970 . S
Li1232 O1294 1.961 . S
Li1233 N1257 1.990 . S
Li1233 O1292 1.970 . S
Li1233 O1293 1.956 . S
Li1233 O1295 1.961 . S
Li1234 N1279 1.990 . S
Li1234 O1292 1.961 . S
Li1234 O1294 1.956 . S
Li1234 O1295 1.970 . S
Li1235 N1285 1.990 . S
Li1235 O1293 1.961 . S
Li1235 O1294 1.970 . S
Li1235 O1295 1.956 . S
C1236 C1238 1.348 . S
C1236 C1239 1.356 . S
C1236 O1292 1.325 . S
N1237 C1240 1.314 . S
N1237 C1241 1.279 . S
C1238 C1236 1.348 . S
C1238 C1240 1.353 . S
C1238 H1296 0.929 . S
C1239 C1236 1.356 . S
C1239 C1241 1.358 . S
C1239 H1297 0.930 . S
C1240 N1237 1.314 . S
C1240 C1238 1.353 . S
C1240 H1298 0.930 . S
C1241 N1237 1.279 . S
C1241 C1239 1.358 . S
C1241 H1299 0.930 . S
C1242 C1245 1.348 . S
C1242 C1246 1.356 . S
C1242 O1293 1.325 . S
C1243 N1244 1.279 . S
C1243 C1246 1.358 . S
C1243 H1300 0.930 . S
N1244 C1243 1.279 . S
N1244 C1247 1.314 . S
C1245 C1242 1.348 . S
C1245 C1247 1.353 . S
C1245 H1301 0.929 . S
C1246 C1242 1.356 . S
C1246 C1243 1.358 . S
C1246 H1302 0.930 . S
C1247 N1244 1.314 . S
C1247 C1245 1.353 . S
C1247 H1303 0.930 . S
C1248 N1249 1.314 . S
C1248 C1253 1.353 . S
C1248 H1254 0.930 . S
N1249 Li1232 1.990 . S
N1249 C1248 1.314 . S
N1249 C1251 1.279 . S
C1250 C1251 1.358 . S
C1250 C1252 1.356 . S
C1250 H1304 0.930 . S
C1251 N1249 1.279 . S
C1251 C1250 1.358 . S
C1251 H1255 0.930 . S
C1252 C1250 1.356 . S
C1252 C1253 1.348 . S
C1253 C1248 1.353 . S
C1253 C1252 1.348 . S
C1253 H1305 0.929 . S
H1254 C1248 0.930 . S
H1255 C1251 0.930 . S
C1256 N1257 1.314 . S
C1256 C1258 1.353 . S
C1256 H1262 0.930 . S
N1257 Li1233 1.990 . S
N1257 C1256 1.314 . S
N1257 C1260 1.279 . S
C1258 C1256 1.353 . S
C1258 C1261 1.348 . S
C1258 H1306 0.929 . S
C1259 C1260 1.358 . S
C1259 C1261 1.356 . S
C1259 H1307 0.930 . S
C1260 N1257 1.279 . S
C1260 C1259 1.358 . S
C1260 H1263 0.930 . S
C1261 C1258 1.348 . S
C1261 C1259 1.356 . S
H1262 C1256 0.930 . S
H1263 C1260 0.930 . S
C1264 C1266 1.348 . S
C1264 C1267 1.356 . S
C1264 O1294 1.325 . S
N1265 C1268 1.314 . S
N1265 C1269 1.279 . S
C1266 C1264 1.348 . S
C1266 C1268 1.353 . S
C1266 H1308 0.929 . S
C1267 C1264 1.356 . S
C1267 C1269 1.358 . S
C1267 H1309 0.930 . S
C1268 N1265 1.314 . S
C1268 C1266 1.353 . S
C1268 H1310 0.930 . S
C1269 N1265 1.279 . S
C1269 C1267 1.358 . S
C1269 H1311 0.930 . S
C1270 C1271 1.348 . S
C1270 C1272 1.356 . S
C1270 O1295 1.325 . S
C1271 C1270 1.348 . S
C1271 C1273 1.353 . S
C1271 H1312 0.929 . S
C1272 C1270 1.356 . S
C1272 C1274 1.358 . S
C1272 H1313 0.930 . S
C1273 C1271 1.353 . S
C1273 N1275 1.314 . S
C1273 H1314 0.930 . S
C1274 C1272 1.358 . S
C1274 N1275 1.279 . S
C1274 H1315 0.930 . S
N1275 C1273 1.314 . S
N1275 C1274 1.279 . S
C1276 C1278 1.353 . S
C1276 N1279 1.314 . S
C1276 H1282 0.930 . S
C1277 N1279 1.279 . S
C1277 C1280 1.358 . S
C1277 H1283 0.930 . S
C1278 C1276 1.353 . S
C1278 C1281 1.348 . S
C1278 H1316 0.929 . S
N1279 Li1234 1.990 . S
N1279 C1276 1.314 . S
N1279 C1277 1.279 . S
C1280 C1277 1.358 . S
C1280 C1281 1.356 . S
C1280 H1317 0.930 . S
C1281 C1278 1.348 . S
C1281 C1280 1.356 . S
H1282 C1276 0.930 . S
H1283 C1277 0.930 . S
C1284 N1285 1.314 . S
C1284 C1286 1.353 . S
C1284 H1290 0.930 . S
N1285 Li1235 1.990 . S
N1285 C1284 1.314 . S
N1285 C1288 1.279 . S
C1286 C1284 1.353 . S
C1286 C1289 1.348 . S
C1286 H1318 0.929 . S
C1287 C1288 1.358 . S
C1287 C1289 1.356 . S
C1287 H1319 0.930 . S
C1288 N1285 1.279 . S
C1288 C1287 1.358 . S
C1288 H1291 0.930 . S
C1289 C1286 1.348 . S
C1289 C1287 1.356 . S
H1290 C1284 0.930 . S
H1291 C1288 0.930 . S
O1292 Li1232 1.956 . S
O1292 Li1233 1.970 . S
O1292 Li1234 1.961 . S
O1292 C1236 1.325 . S
O1293 Li1232 1.970 . S
O1293 Li1233 1.956 . S
O1293 Li1235 1.961 . S
O1293 C1242 1.325 . S
O1294 Li1232 1.961 . S
O1294 Li1234 1.956 . S
O1294 Li1235 1.970 . S
O1294 C1264 1.325 . S
O1295 Li1233 1.961 . S
O1295 Li1234 1.970 . S
O1295 Li1235 1.956 . S
O1295 C1270 1.325 . S
H1296 C1238 0.929 . S
H1297 C1239 0.930 . S
H1298 C1240 0.930 . S
H1299 C1241 0.930 . S
H1300 C1243 0.930 . S
H1301 C1245 0.929 . S
H1302 C1246 0.930 . S
H1303 C1247 0.930 . S
H1304 C1250 0.930 . S
H1305 C1253 0.929 . S
H1306 C1258 0.929 . S
H1307 C1259 0.930 . S
H1308 C1266 0.929 . S
H1309 C1267 0.930 . S
H1310 C1268 0.930 . S
H1311 C1269 0.930 . S
H1312 C1271 0.929 . S
H1313 C1272 0.930 . S
H1314 C1273 0.930 . S
H1315 C1274 0.930 . S
H1316 C1278 0.929 . S
H1317 C1280 0.930 . S
H1318 C1286 0.929 . S
H1319 C1287 0.930 . S
Li1320 N1337 1.990 . S
Li1320 O1380 1.956 . S
Li1320 O1381 1.970 . S
Li1320 O1382 1.961 . S
Li1321 N1345 1.990 . S
Li1321 O1380 1.970 . S
Li1321 O1381 1.956 . S
Li1321 O1383 1.961 . S
Li1322 N1367 1.990 . S
Li1322 O1380 1.961 . S
Li1322 O1382 1.956 . S
Li1322 O1383 1.970 . S
Li1323 N1373 1.990 . S
Li1323 O1381 1.961 . S
Li1323 O1382 1.970 . S
Li1323 O1383 1.956 . S
C1324 C1326 1.348 . S
C1324 C1327 1.356 . S
C1324 O1380 1.325 . S
N1325 C1328 1.314 . S
N1325 C1329 1.279 . S
C1326 C1324 1.348 . S
C1326 C1328 1.353 . S
C1326 H1384 0.929 . S
C1327 C1324 1.356 . S
C1327 C1329 1.358 . S
C1327 H1385 0.930 . S
C1328 N1325 1.314 . S
C1328 C1326 1.353 . S
C1328 H1386 0.930 . S
C1329 N1325 1.279 . S
C1329 C1327 1.358 . S
C1329 H1387 0.930 . S
C1330 C1333 1.348 . S
C1330 C1334 1.356 . S
C1330 O1381 1.325 . S
C1331 N1332 1.279 . S
C1331 C1334 1.358 . S
C1331 H1388 0.930 . S
N1332 C1331 1.279 . S
N1332 C1335 1.314 . S
C1333 C1330 1.348 . S
C1333 C1335 1.353 . S
C1333 H1389 0.929 . S
C1334 C1330 1.356 . S
C1334 C1331 1.358 . S
C1334 H1390 0.930 . S
C1335 N1332 1.314 . S
C1335 C1333 1.353 . S
C1335 H1391 0.930 . S
C1336 N1337 1.314 . S
C1336 C1341 1.353 . S
C1336 H1342 0.930 . S
N1337 Li1320 1.990 . S
N1337 C1336 1.314 . S
N1337 C1339 1.279 . S
C1338 C1339 1.358 . S
C1338 C1340 1.356 . S
C1338 H1392 0.930 . S
C1339 N1337 1.279 . S
C1339 C1338 1.358 . S
C1339 H1343 0.930 . S
C1340 C1338 1.356 . S
C1340 C1341 1.348 . S
C1341 C1336 1.353 . S
C1341 C1340 1.348 . S
C1341 H1393 0.929 . S
H1342 C1336 0.930 . S
H1343 C1339 0.930 . S
C1344 N1345 1.314 . S
C1344 C1346 1.353 . S
C1344 H1350 0.930 . S
N1345 Li1321 1.990 . S
N1345 C1344 1.314 . S
N1345 C1348 1.279 . S
C1346 C1344 1.353 . S
C1346 C1349 1.348 . S
C1346 H1394 0.929 . S
C1347 C1348 1.358 . S
C1347 C1349 1.356 . S
C1347 H1395 0.930 . S
C1348 N1345 1.279 . S
C1348 C1347 1.358 . S
C1348 H1351 0.930 . S
C1349 C1346 1.348 . S
C1349 C1347 1.356 . S
H1350 C1344 0.930 . S
H1351 C1348 0.930 . S
C1352 C1354 1.348 . S
C1352 C1355 1.356 . S
C1352 O1382 1.325 . S
N1353 C1356 1.314 . S
N1353 C1357 1.279 . S
C1354 C1352 1.348 . S
C1354 C1356 1.353 . S
C1354 H1396 0.929 . S
C1355 C1352 1.356 . S
C1355 C1357 1.358 . S
C1355 H1397 0.930 . S
C1356 N1353 1.314 . S
C1356 C1354 1.353 . S
C1356 H1398 0.930 . S
C1357 N1353 1.279 . S
C1357 C1355 1.358 . S
C1357 H1399 0.930 . S
C1358 C1359 1.348 . S
C1358 C1360 1.356 . S
C1358 O1383 1.325 . S
C1359 C1358 1.348 . S
C1359 C1361 1.353 . S
C1359 H1400 0.929 . S
C1360 C1358 1.356 . S
C1360 C1362 1.358 . S
C1360 H1401 0.930 . S
C1361 C1359 1.353 . S
C1361 N1363 1.314 . S
C1361 H1402 0.930 . S
C1362 C1360 1.358 . S
C1362 N1363 1.279 . S
C1362 H1403 0.930 . S
N1363 C1361 1.314 . S
N1363 C1362 1.279 . S
C1364 C1366 1.353 . S
C1364 N1367 1.314 . S
C1364 H1370 0.930 . S
C1365 N1367 1.279 . S
C1365 C1368 1.358 . S
C1365 H1371 0.930 . S
C1366 C1364 1.353 . S
C1366 C1369 1.348 . S
C1366 H1404 0.929 . S
N1367 Li1322 1.990 . S
N1367 C1364 1.314 . S
N1367 C1365 1.279 . S
C1368 C1365 1.358 . S
C1368 C1369 1.356 . S
C1368 H1405 0.930 . S
C1369 C1366 1.348 . S
C1369 C1368 1.356 . S
H1370 C1364 0.930 . S
H1371 C1365 0.930 . S
C1372 N1373 1.314 . S
C1372 C1374 1.353 . S
C1372 H1378 0.930 . S
N1373 Li1323 1.990 . S
N1373 C1372 1.314 . S
N1373 C1376 1.279 . S
C1374 C1372 1.353 . S
C1374 C1377 1.348 . S
C1374 H1406 0.929 . S
C1375 C1376 1.358 . S
C1375 C1377 1.356 . S
C1375 H1407 0.930 . S
C1376 N1373 1.279 . S
C1376 C1375 1.358 . S
C1376 H1379 0.930 . S
C1377 C1374 1.348 . S
C1377 C1375 1.356 . S
H1378 C1372 0.930 . S
H1379 C1376 0.930 . S
O1380 Li1320 1.956 . S
O1380 Li1321 1.970 . S
O1380 Li1322 1.961 . S
O1380 C1324 1.325 . S
O1381 Li1320 1.970 . S
O1381 Li1321 1.956 . S
O1381 Li1323 1.961 . S
O1381 C1330 1.325 . S
O1382 Li1320 1.961 . S
O1382 Li1322 1.956 . S
O1382 Li1323 1.970 . S
O1382 C1352 1.325 . S
O1383 Li1321 1.961 . S
O1383 Li1322 1.970 . S
O1383 Li1323 1.956 . S
O1383 C1358 1.325 . S
H1384 C1326 0.929 . S
H1385 C1327 0.930 . S
H1386 C1328 0.930 . S
H1387 C1329 0.930 . S
H1388 C1331 0.930 . S
H1389 C1333 0.929 . S
H1390 C1334 0.930 . S
H1391 C1335 0.930 . S
H1392 C1338 0.930 . S
H1393 C1341 0.929 . S
H1394 C1346 0.929 . S
H1395 C1347 0.930 . S
H1396 C1354 0.929 . S
H1397 C1355 0.930 . S
H1398 C1356 0.930 . S
H1399 C1357 0.930 . S
H1400 C1359 0.929 . S
H1401 C1360 0.930 . S
H1402 C1361 0.930 . S
H1403 C1362 0.930 . S
H1404 C1366 0.929 . S
H1405 C1368 0.930 . S
H1406 C1374 0.929 . S
H1407 C1375 0.930 . S
Li1408 N1425 1.990 . S
Li1408 O1468 1.956 . S
Li1408 O1469 1.970 . S
Li1408 O1470 1.961 . S
Li1409 N1433 1.990 . S
Li1409 O1468 1.970 . S
Li1409 O1469 1.956 . S
Li1409 O1471 1.961 . S
Li1410 N1455 1.990 . S
Li1410 O1468 1.961 . S
Li1410 O1470 1.956 . S
Li1410 O1471 1.970 . S
Li1411 N1461 1.990 . S
Li1411 O1469 1.961 . S
Li1411 O1470 1.970 . S
Li1411 O1471 1.956 . S
C1412 C1414 1.348 . S
C1412 C1415 1.356 . S
C1412 O1468 1.325 . S
N1413 C1416 1.314 . S
N1413 C1417 1.279 . S
C1414 C1412 1.348 . S
C1414 C1416 1.353 . S
C1414 H1472 0.929 . S
C1415 C1412 1.356 . S
C1415 C1417 1.358 . S
C1415 H1473 0.930 . S
C1416 N1413 1.314 . S
C1416 C1414 1.353 . S
C1416 H1474 0.930 . S
C1417 N1413 1.279 . S
C1417 C1415 1.358 . S
C1417 H1475 0.930 . S
C1418 C1421 1.348 . S
C1418 C1422 1.356 . S
C1418 O1469 1.325 . S
C1419 N1420 1.279 . S
C1419 C1422 1.358 . S
C1419 H1476 0.930 . S
N1420 C1419 1.279 . S
N1420 C1423 1.314 . S
C1421 C1418 1.348 . S
C1421 C1423 1.353 . S
C1421 H1477 0.929 . S
C1422 C1418 1.356 . S
C1422 C1419 1.358 . S
C1422 H1478 0.930 . S
C1423 N1420 1.314 . S
C1423 C1421 1.353 . S
C1423 H1479 0.930 . S
C1424 N1425 1.314 . S
C1424 C1429 1.353 . S
C1424 H1430 0.930 . S
N1425 Li1408 1.990 . S
N1425 C1424 1.314 . S
N1425 C1427 1.279 . S
C1426 C1427 1.358 . S
C1426 C1428 1.356 . S
C1426 H1480 0.930 . S
C1427 N1425 1.279 . S
C1427 C1426 1.358 . S
C1427 H1431 0.930 . S
C1428 C1426 1.356 . S
C1428 C1429 1.348 . S
C1429 C1424 1.353 . S
C1429 C1428 1.348 . S
C1429 H1481 0.929 . S
H1430 C1424 0.930 . S
H1431 C1427 0.930 . S
C1432 N1433 1.314 . S
C1432 C1434 1.353 . S
C1432 H1438 0.930 . S
N1433 Li1409 1.990 . S
N1433 C1432 1.314 . S
N1433 C1436 1.279 . S
C1434 C1432 1.353 . S
C1434 C1437 1.348 . S
C1434 H1482 0.929 . S
C1435 C1436 1.358 . S
C1435 C1437 1.356 . S
C1435 H1483 0.930 . S
C1436 N1433 1.279 . S
C1436 C1435 1.358 . S
C1436 H1439 0.930 . S
C1437 C1434 1.348 . S
C1437 C1435 1.356 . S
H1438 C1432 0.930 . S
H1439 C1436 0.930 . S
C1440 C1442 1.348 . S
C1440 C1443 1.356 . S
C1440 O1470 1.325 . S
N1441 C1444 1.314 . S
N1441 C1445 1.279 . S
C1442 C1440 1.348 . S
C1442 C1444 1.353 . S
C1442 H1484 0.929 . S
C1443 C1440 1.356 . S
C1443 C1445 1.358 . S
C1443 H1485 0.930 . S
C1444 N1441 1.314 . S
C1444 C1442 1.353 . S
C1444 H1486 0.930 . S
C1445 N1441 1.279 . S
C1445 C1443 1.358 . S
C1445 H1487 0.930 . S
C1446 C1447 1.348 . S
C1446 C1448 1.356 . S
C1446 O1471 1.325 . S
C1447 C1446 1.348 . S
C1447 C1449 1.353 . S
C1447 H1488 0.929 . S
C1448 C1446 1.356 . S
C1448 C1450 1.358 . S
C1448 H1489 0.930 . S
C1449 C1447 1.353 . S
C1449 N1451 1.314 . S
C1449 H1490 0.930 . S
C1450 C1448 1.358 . S
C1450 N1451 1.279 . S
C1450 H1491 0.930 . S
N1451 C1449 1.314 . S
N1451 C1450 1.279 . S
C1452 C1454 1.353 . S
C1452 N1455 1.314 . S
C1452 H1458 0.930 . S
C1453 N1455 1.279 . S
C1453 C1456 1.358 . S
C1453 H1459 0.930 . S
C1454 C1452 1.353 . S
C1454 C1457 1.348 . S
C1454 H1492 0.929 . S
N1455 Li1410 1.990 . S
N1455 C1452 1.314 . S
N1455 C1453 1.279 . S
C1456 C1453 1.358 . S
C1456 C1457 1.356 . S
C1456 H1493 0.930 . S
C1457 C1454 1.348 . S
C1457 C1456 1.356 . S
H1458 C1452 0.930 . S
H1459 C1453 0.930 . S
C1460 N1461 1.314 . S
C1460 C1462 1.353 . S
C1460 H1466 0.930 . S
N1461 Li1411 1.990 . S
N1461 C1460 1.314 . S
N1461 C1464 1.279 . S
C1462 C1460 1.353 . S
C1462 C1465 1.348 . S
C1462 H1494 0.929 . S
C1463 C1464 1.358 . S
C1463 C1465 1.356 . S
C1463 H1495 0.930 . S
C1464 N1461 1.279 . S
C1464 C1463 1.358 . S
C1464 H1467 0.930 . S
C1465 C1462 1.348 . S
C1465 C1463 1.356 . S
H1466 C1460 0.930 . S
H1467 C1464 0.930 . S
O1468 Li1408 1.956 . S
O1468 Li1409 1.970 . S
O1468 Li1410 1.961 . S
O1468 C1412 1.325 . S
O1469 Li1408 1.970 . S
O1469 Li1409 1.956 . S
O1469 Li1411 1.961 . S
O1469 C1418 1.325 . S
O1470 Li1408 1.961 . S
O1470 Li1410 1.956 . S
O1470 Li1411 1.970 . S
O1470 C1440 1.325 . S
O1471 Li1409 1.961 . S
O1471 Li1410 1.970 . S
O1471 Li1411 1.956 . S
O1471 C1446 1.325 . S
H1472 C1414 0.929 . S
H1473 C1415 0.930 . S
H1474 C1416 0.930 . S
H1475 C1417 0.930 . S
H1476 C1419 0.930 . S
H1477 C1421 0.929 . S
H1478 C1422 0.930 . S
H1479 C1423 0.930 . S
H1480 C1426 0.930 . S
H1481 C1429 0.929 . S
H1482 C1434 0.929 . S
H1483 C1435 0.930 . S
H1484 C1442 0.929 . S
H1485 C1443 0.930 . S
H1486 C1444 0.930 . S
H1487 C1445 0.930 . S
H1488 C1447 0.929 . S
H1489 C1448 0.930 . S
H1490 C1449 0.930 . S
H1491 C1450 0.930 . S
H1492 C1454 0.929 . S
H1493 C1456 0.930 . S
H1494 C1462 0.929 . S
H1495 C1463 0.930 . S
Li1496 N1513 1.990 . S
Li1496 O1556 1.956 . S
Li1496 O1557 1.970 . S
Li1496 O1558 1.961 . S
Li1497 N1521 1.990 . S
Li1497 O1556 1.970 . S
Li1497 O1557 1.956 . S
Li1497 O1559 1.961 . S
Li1498 N1543 1.990 . S
Li1498 O1556 1.961 . S
Li1498 O1558 1.956 . S
Li1498 O1559 1.970 . S
Li1499 N1549 1.990 . S
Li1499 O1557 1.961 . S
Li1499 O1558 1.970 . S
Li1499 O1559 1.956 . S
C1500 C1502 1.348 . S
C1500 C1503 1.356 . S
C1500 O1556 1.325 . S
N1501 C1504 1.314 . S
N1501 C1505 1.279 . S
C1502 C1500 1.348 . S
C1502 C1504 1.353 . S
C1502 H1560 0.929 . S
C1503 C1500 1.356 . S
C1503 C1505 1.358 . S
C1503 H1561 0.930 . S
C1504 N1501 1.314 . S
C1504 C1502 1.353 . S
C1504 H1562 0.930 . S
C1505 N1501 1.279 . S
C1505 C1503 1.358 . S
C1505 H1563 0.930 . S
C1506 C1509 1.348 . S
C1506 C1510 1.356 . S
C1506 O1557 1.325 . S
C1507 N1508 1.279 . S
C1507 C1510 1.358 . S
C1507 H1564 0.930 . S
N1508 C1507 1.279 . S
N1508 C1511 1.314 . S
C1509 C1506 1.348 . S
C1509 C1511 1.353 . S
C1509 H1565 0.929 . S
C1510 C1506 1.356 . S
C1510 C1507 1.358 . S
C1510 H1566 0.930 . S
C1511 N1508 1.314 . S
C1511 C1509 1.353 . S
C1511 H1567 0.930 . S
C1512 N1513 1.314 . S
C1512 C1517 1.353 . S
C1512 H1518 0.930 . S
N1513 Li1496 1.990 . S
N1513 C1512 1.314 . S
N1513 C1515 1.279 . S
C1514 C1515 1.358 . S
C1514 C1516 1.356 . S
C1514 H1568 0.930 . S
C1515 N1513 1.279 . S
C1515 C1514 1.358 . S
C1515 H1519 0.930 . S
C1516 C1514 1.356 . S
C1516 C1517 1.348 . S
C1517 C1512 1.353 . S
C1517 C1516 1.348 . S
C1517 H1569 0.929 . S
H1518 C1512 0.930 . S
H1519 C1515 0.930 . S
C1520 N1521 1.314 . S
C1520 C1522 1.353 . S
C1520 H1526 0.930 . S
N1521 Li1497 1.990 . S
N1521 C1520 1.314 . S
N1521 C1524 1.279 . S
C1522 C1520 1.353 . S
C1522 C1525 1.348 . S
C1522 H1570 0.929 . S
C1523 C1524 1.358 . S
C1523 C1525 1.356 . S
C1523 H1571 0.930 . S
C1524 N1521 1.279 . S
C1524 C1523 1.358 . S
C1524 H1527 0.930 . S
C1525 C1522 1.348 . S
C1525 C1523 1.356 . S
H1526 C1520 0.930 . S
H1527 C1524 0.930 . S
C1528 C1530 1.348 . S
C1528 C1531 1.356 . S
C1528 O1558 1.325 . S
N1529 C1532 1.314 . S
N1529 C1533 1.279 . S
C1530 C1528 1.348 . S
C1530 C1532 1.353 . S
C1530 H1572 0.929 . S
C1531 C1528 1.356 . S
C1531 C1533 1.358 . S
C1531 H1573 0.930 . S
C1532 N1529 1.314 . S
C1532 C1530 1.353 . S
C1532 H1574 0.930 . S
C1533 N1529 1.279 . S
C1533 C1531 1.358 . S
C1533 H1575 0.930 . S
C1534 C1535 1.348 . S
C1534 C1536 1.356 . S
C1534 O1559 1.325 . S
C1535 C1534 1.348 . S
C1535 C1537 1.353 . S
C1535 H1576 0.929 . S
C1536 C1534 1.356 . S
C1536 C1538 1.358 . S
C1536 H1577 0.930 . S
C1537 C1535 1.353 . S
C1537 N1539 1.314 . S
C1537 H1578 0.930 . S
C1538 C1536 1.358 . S
C1538 N1539 1.279 . S
C1538 H1579 0.930 . S
N1539 C1537 1.314 . S
N1539 C1538 1.279 . S
C1540 C1542 1.353 . S
C1540 N1543 1.314 . S
C1540 H1546 0.930 . S
C1541 N1543 1.279 . S
C1541 C1544 1.358 . S
C1541 H1547 0.930 . S
C1542 C1540 1.353 . S
C1542 C1545 1.348 . S
C1542 H1580 0.929 . S
N1543 Li1498 1.990 . S
N1543 C1540 1.314 . S
N1543 C1541 1.279 . S
C1544 C1541 1.358 . S
C1544 C1545 1.356 . S
C1544 H1581 0.930 . S
C1545 C1542 1.348 . S
C1545 C1544 1.356 . S
H1546 C1540 0.930 . S
H1547 C1541 0.930 . S
C1548 N1549 1.314 . S
C1548 C1550 1.353 . S
C1548 H1554 0.930 . S
N1549 Li1499 1.990 . S
N1549 C1548 1.314 . S
N1549 C1552 1.279 . S
C1550 C1548 1.353 . S
C1550 C1553 1.348 . S
C1550 H1582 0.929 . S
C1551 C1552 1.358 . S
C1551 C1553 1.356 . S
C1551 H1583 0.930 . S
C1552 N1549 1.279 . S
C1552 C1551 1.358 . S
C1552 H1555 0.930 . S
C1553 C1550 1.348 . S
C1553 C1551 1.356 . S
H1554 C1548 0.930 . S
H1555 C1552 0.930 . S
O1556 Li1496 1.956 . S
O1556 Li1497 1.970 . S
O1556 Li1498 1.961 . S
O1556 C1500 1.325 . S
O1557 Li1496 1.970 . S
O1557 Li1497 1.956 . S
O1557 Li1499 1.961 . S
O1557 C1506 1.325 . S
O1558 Li1496 1.961 . S
O1558 Li1498 1.956 . S
O1558 Li1499 1.970 . S
O1558 C1528 1.325 . S
O1559 Li1497 1.961 . S
O1559 Li1498 1.970 . S
O1559 Li1499 1.956 . S
O1559 C1534 1.325 . S
H1560 C1502 0.929 . S
H1561 C1503 0.930 . S
H1562 C1504 0.930 . S
H1563 C1505 0.930 . S
H1564 C1507 0.930 . S
H1565 C1509 0.929 . S
H1566 C1510 0.930 . S
H1567 C1511 0.930 . S
H1568 C1514 0.930 . S
H1569 C1517 0.929 . S
H1570 C1522 0.929 . S
H1571 C1523 0.930 . S
H1572 C1530 0.929 . S
H1573 C1531 0.930 . S
H1574 C1532 0.930 . S
H1575 C1533 0.930 . S
H1576 C1535 0.929 . S
H1577 C1536 0.930 . S
H1578 C1537 0.930 . S
H1579 C1538 0.930 . S
H1580 C1542 0.929 . S
H1581 C1544 0.930 . S
H1582 C1550 0.929 . S
H1583 C1551 0.930 . S
Li1584 N1601 1.990 . S
Li1584 O1644 1.956 . S
Li1584 O1645 1.970 . S
Li1584 O1646 1.961 . S
Li1585 N1609 1.990 . S
Li1585 O1644 1.970 . S
Li1585 O1645 1.956 . S
Li1585 O1647 1.961 . S
Li1586 N1631 1.990 . S
Li1586 O1644 1.961 . S
Li1586 O1646 1.956 . S
Li1586 O1647 1.970 . S
Li1587 N1637 1.990 . S
Li1587 O1645 1.961 . S
Li1587 O1646 1.970 . S
Li1587 O1647 1.956 . S
C1588 C1590 1.348 . S
C1588 C1591 1.356 . S
C1588 O1644 1.325 . S
N1589 C1592 1.314 . S
N1589 C1593 1.279 . S
C1590 C1588 1.348 . S
C1590 C1592 1.353 . S
C1590 H1648 0.929 . S
C1591 C1588 1.356 . S
C1591 C1593 1.358 . S
C1591 H1649 0.930 . S
C1592 N1589 1.314 . S
C1592 C1590 1.353 . S
C1592 H1650 0.930 . S
C1593 N1589 1.279 . S
C1593 C1591 1.358 . S
C1593 H1651 0.930 . S
C1594 C1597 1.348 . S
C1594 C1598 1.356 . S
C1594 O1645 1.325 . S
C1595 N1596 1.279 . S
C1595 C1598 1.358 . S
C1595 H1652 0.930 . S
N1596 C1595 1.279 . S
N1596 C1599 1.314 . S
C1597 C1594 1.348 . S
C1597 C1599 1.353 . S
C1597 H1653 0.929 . S
C1598 C1594 1.356 . S
C1598 C1595 1.358 . S
C1598 H1654 0.930 . S
C1599 N1596 1.314 . S
C1599 C1597 1.353 . S
C1599 H1655 0.930 . S
C1600 N1601 1.314 . S
C1600 C1605 1.353 . S
C1600 H1606 0.930 . S
N1601 Li1584 1.990 . S
N1601 C1600 1.314 . S
N1601 C1603 1.279 . S
C1602 C1603 1.358 . S
C1602 C1604 1.356 . S
C1602 H1656 0.930 . S
C1603 N1601 1.279 . S
C1603 C1602 1.358 . S
C1603 H1607 0.930 . S
C1604 C1602 1.356 . S
C1604 C1605 1.348 . S
C1605 C1600 1.353 . S
C1605 C1604 1.348 . S
C1605 H1657 0.929 . S
H1606 C1600 0.930 . S
H1607 C1603 0.930 . S
C1608 N1609 1.314 . S
C1608 C1610 1.353 . S
C1608 H1614 0.930 . S
N1609 Li1585 1.990 . S
N1609 C1608 1.314 . S
N1609 C1612 1.279 . S
C1610 C1608 1.353 . S
C1610 C1613 1.348 . S
C1610 H1658 0.929 . S
C1611 C1612 1.358 . S
C1611 C1613 1.356 . S
C1611 H1659 0.930 . S
C1612 N1609 1.279 . S
C1612 C1611 1.358 . S
C1612 H1615 0.930 . S
C1613 C1610 1.348 . S
C1613 C1611 1.356 . S
H1614 C1608 0.930 . S
H1615 C1612 0.930 . S
C1616 C1618 1.348 . S
C1616 C1619 1.356 . S
C1616 O1646 1.325 . S
N1617 C1620 1.314 . S
N1617 C1621 1.279 . S
C1618 C1616 1.348 . S
C1618 C1620 1.353 . S
C1618 H1660 0.929 . S
C1619 C1616 1.356 . S
C1619 C1621 1.358 . S
C1619 H1661 0.930 . S
C1620 N1617 1.314 . S
C1620 C1618 1.353 . S
C1620 H1662 0.930 . S
C1621 N1617 1.279 . S
C1621 C1619 1.358 . S
C1621 H1663 0.930 . S
C1622 C1623 1.348 . S
C1622 C1624 1.356 . S
C1622 O1647 1.325 . S
C1623 C1622 1.348 . S
C1623 C1625 1.353 . S
C1623 H1664 0.929 . S
C1624 C1622 1.356 . S
C1624 C1626 1.358 . S
C1624 H1665 0.930 . S
C1625 C1623 1.353 . S
C1625 N1627 1.314 . S
C1625 H1666 0.930 . S
C1626 C1624 1.358 . S
C1626 N1627 1.279 . S
C1626 H1667 0.930 . S
N1627 C1625 1.314 . S
N1627 C1626 1.279 . S
C1628 C1630 1.353 . S
C1628 N1631 1.314 . S
C1628 H1634 0.930 . S
C1629 N1631 1.279 . S
C1629 C1632 1.358 . S
C1629 H1635 0.930 . S
C1630 C1628 1.353 . S
C1630 C1633 1.348 . S
C1630 H1668 0.929 . S
N1631 Li1586 1.990 . S
N1631 C1628 1.314 . S
N1631 C1629 1.279 . S
C1632 C1629 1.358 . S
C1632 C1633 1.356 . S
C1632 H1669 0.930 . S
C1633 C1630 1.348 . S
C1633 C1632 1.356 . S
H1634 C1628 0.930 . S
H1635 C1629 0.930 . S
C1636 N1637 1.314 . S
C1636 C1638 1.353 . S
C1636 H1642 0.930 . S
N1637 Li1587 1.990 . S
N1637 C1636 1.314 . S
N1637 C1640 1.279 . S
C1638 C1636 1.353 . S
C1638 C1641 1.348 . S
C1638 H1670 0.929 . S
C1639 C1640 1.358 . S
C1639 C1641 1.356 . S
C1639 H1671 0.930 . S
C1640 N1637 1.279 . S
C1640 C1639 1.358 . S
C1640 H1643 0.930 . S
C1641 C1638 1.348 . S
C1641 C1639 1.356 . S
H1642 C1636 0.930 . S
H1643 C1640 0.930 . S
O1644 Li1584 1.956 . S
O1644 Li1585 1.970 . S
O1644 Li1586 1.961 . S
O1644 C1588 1.325 . S
O1645 Li1584 1.970 . S
O1645 Li1585 1.956 . S
O1645 Li1587 1.961 . S
O1645 C1594 1.325 . S
O1646 Li1584 1.961 . S
O1646 Li1586 1.956 . S
O1646 Li1587 1.970 . S
O1646 C1616 1.325 . S
O1647 Li1585 1.961 . S
O1647 Li1586 1.970 . S
O1647 Li1587 1.956 . S
O1647 C1622 1.325 . S
H1648 C1590 0.929 . S
H1649 C1591 0.930 . S
H1650 C1592 0.930 . S
H1651 C1593 0.930 . S
H1652 C1595 0.930 . S
H1653 C1597 0.929 . S
H1654 C1598 0.930 . S
H1655 C1599 0.930 . S
H1656 C1602 0.930 . S
H1657 C1605 0.929 . S
H1658 C1610 0.929 . S
H1659 C1611 0.930 . S
H1660 C1618 0.929 . S
H1661 C1619 0.930 . S
H1662 C1620 0.930 . S
H1663 C1621 0.930 . S
H1664 C1623 0.929 . S
H1665 C1624 0.930 . S
H1666 C1625 0.930 . S
H1667 C1626 0.930 . S
H1668 C1630 0.929 . S
H1669 C1632 0.930 . S
H1670 C1638 0.929 . S
H1671 C1639 0.930 . S
Li1672 N1689 1.990 . S
Li1672 O1732 1.956 . S
Li1672 O1733 1.970 . S
Li1672 O1734 1.961 . S
Li1673 N1697 1.990 . S
Li1673 O1732 1.970 . S
Li1673 O1733 1.956 . S
Li1673 O1735 1.961 . S
Li1674 N1719 1.990 . S
Li1674 O1732 1.961 . S
Li1674 O1734 1.956 . S
Li1674 O1735 1.970 . S
Li1675 N1725 1.990 . S
Li1675 O1733 1.961 . S
Li1675 O1734 1.970 . S
Li1675 O1735 1.956 . S
C1676 C1678 1.348 . S
C1676 C1679 1.356 . S
C1676 O1732 1.325 . S
N1677 C1680 1.314 . S
N1677 C1681 1.279 . S
C1678 C1676 1.348 . S
C1678 C1680 1.353 . S
C1678 H1736 0.929 . S
C1679 C1676 1.356 . S
C1679 C1681 1.358 . S
C1679 H1737 0.930 . S
C1680 N1677 1.314 . S
C1680 C1678 1.353 . S
C1680 H1738 0.930 . S
C1681 N1677 1.279 . S
C1681 C1679 1.358 . S
C1681 H1739 0.930 . S
C1682 C1685 1.348 . S
C1682 C1686 1.356 . S
C1682 O1733 1.325 . S
C1683 N1684 1.279 . S
C1683 C1686 1.358 . S
C1683 H1740 0.930 . S
N1684 C1683 1.279 . S
N1684 C1687 1.314 . S
C1685 C1682 1.348 . S
C1685 C1687 1.353 . S
C1685 H1741 0.929 . S
C1686 C1682 1.356 . S
C1686 C1683 1.358 . S
C1686 H1742 0.930 . S
C1687 N1684 1.314 . S
C1687 C1685 1.353 . S
C1687 H1743 0.930 . S
C1688 N1689 1.314 . S
C1688 C1693 1.353 . S
C1688 H1694 0.930 . S
N1689 Li1672 1.990 . S
N1689 C1688 1.314 . S
N1689 C1691 1.279 . S
C1690 C1691 1.358 . S
C1690 C1692 1.356 . S
C1690 H1744 0.930 . S
C1691 N1689 1.279 . S
C1691 C1690 1.358 . S
C1691 H1695 0.930 . S
C1692 C1690 1.356 . S
C1692 C1693 1.348 . S
C1693 C1688 1.353 . S
C1693 C1692 1.348 . S
C1693 H1745 0.929 . S
H1694 C1688 0.930 . S
H1695 C1691 0.930 . S
C1696 N1697 1.314 . S
C1696 C1698 1.353 . S
C1696 H1702 0.930 . S
N1697 Li1673 1.990 . S
N1697 C1696 1.314 . S
N1697 C1700 1.279 . S
C1698 C1696 1.353 . S
C1698 C1701 1.348 . S
C1698 H1746 0.929 . S
C1699 C1700 1.358 . S
C1699 C1701 1.356 . S
C1699 H1747 0.930 . S
C1700 N1697 1.279 . S
C1700 C1699 1.358 . S
C1700 H1703 0.930 . S
C1701 C1698 1.348 . S
C1701 C1699 1.356 . S
H1702 C1696 0.930 . S
H1703 C1700 0.930 . S
C1704 C1706 1.348 . S
C1704 C1707 1.356 . S
C1704 O1734 1.325 . S
N1705 C1708 1.314 . S
N1705 C1709 1.279 . S
C1706 C1704 1.348 . S
C1706 C1708 1.353 . S
C1706 H1748 0.929 . S
C1707 C1704 1.356 . S
C1707 C1709 1.358 . S
C1707 H1749 0.930 . S
C1708 N1705 1.314 . S
C1708 C1706 1.353 . S
C1708 H1750 0.930 . S
C1709 N1705 1.279 . S
C1709 C1707 1.358 . S
C1709 H1751 0.930 . S
C1710 C1711 1.348 . S
C1710 C1712 1.356 . S
C1710 O1735 1.325 . S
C1711 C1710 1.348 . S
C1711 C1713 1.353 . S
C1711 H1752 0.929 . S
C1712 C1710 1.356 . S
C1712 C1714 1.358 . S
C1712 H1753 0.930 . S
C1713 C1711 1.353 . S
C1713 N1715 1.314 . S
C1713 H1754 0.930 . S
C1714 C1712 1.358 . S
C1714 N1715 1.279 . S
C1714 H1755 0.930 . S
N1715 C1713 1.314 . S
N1715 C1714 1.279 . S
C1716 C1718 1.353 . S
C1716 N1719 1.314 . S
C1716 H1722 0.930 . S
C1717 N1719 1.279 . S
C1717 C1720 1.358 . S
C1717 H1723 0.930 . S
C1718 C1716 1.353 . S
C1718 C1721 1.348 . S
C1718 H1756 0.929 . S
N1719 Li1674 1.990 . S
N1719 C1716 1.314 . S
N1719 C1717 1.279 . S
C1720 C1717 1.358 . S
C1720 C1721 1.356 . S
C1720 H1757 0.930 . S
C1721 C1718 1.348 . S
C1721 C1720 1.356 . S
H1722 C1716 0.930 . S
H1723 C1717 0.930 . S
C1724 N1725 1.314 . S
C1724 C1726 1.353 . S
C1724 H1730 0.930 . S
N1725 Li1675 1.990 . S
N1725 C1724 1.314 . S
N1725 C1728 1.279 . S
C1726 C1724 1.353 . S
C1726 C1729 1.348 . S
C1726 H1758 0.929 . S
C1727 C1728 1.358 . S
C1727 C1729 1.356 . S
C1727 H1759 0.930 . S
C1728 N1725 1.279 . S
C1728 C1727 1.358 . S
C1728 H1731 0.930 . S
C1729 C1726 1.348 . S
C1729 C1727 1.356 . S
H1730 C1724 0.930 . S
H1731 C1728 0.930 . S
O1732 Li1672 1.956 . S
O1732 Li1673 1.970 . S
O1732 Li1674 1.961 . S
O1732 C1676 1.325 . S
O1733 Li1672 1.970 . S
O1733 Li1673 1.956 . S
O1733 Li1675 1.961 . S
O1733 C1682 1.325 . S
O1734 Li1672 1.961 . S
O1734 Li1674 1.956 . S
O1734 Li1675 1.970 . S
O1734 C1704 1.325 . S
O1735 Li1673 1.961 . S
O1735 Li1674 1.970 . S
O1735 Li1675 1.956 . S
O1735 C1710 1.325 . S
H1736 C1678 0.929 . S
H1737 C1679 0.930 . S
H1738 C1680 0.930 . S
H1739 C1681 0.930 . S
H1740 C1683 0.930 . S
H1741 C1685 0.929 . S
H1742 C1686 0.930 . S
H1743 C1687 0.930 . S
H1744 C1690 0.930 . S
H1745 C1693 0.929 . S
H1746 C1698 0.929 . S
H1747 C1699 0.930 . S
H1748 C1706 0.929 . S
H1749 C1707 0.930 . S
H1750 C1708 0.930 . S
H1751 C1709 0.930 . S
H1752 C1711 0.929 . S
H1753 C1712 0.930 . S
H1754 C1713 0.930 . S
H1755 C1714 0.930 . S
H1756 C1718 0.929 . S
H1757 C1720 0.930 . S
H1758 C1726 0.929 . S
H1759 C1727 0.930 . S
Li1760 N1777 1.990 . S
Li1760 O1820 1.956 . S
Li1760 O1821 1.970 . S
Li1760 O1822 1.961 . S
Li1761 N1785 1.990 . S
Li1761 O1820 1.970 . S
Li1761 O1821 1.956 . S
Li1761 O1823 1.961 . S
Li1762 N1807 1.990 . S
Li1762 O1820 1.961 . S
Li1762 O1822 1.956 . S
Li1762 O1823 1.970 . S
Li1763 N1813 1.990 . S
Li1763 O1821 1.961 . S
Li1763 O1822 1.970 . S
Li1763 O1823 1.956 . S
C1764 C1766 1.348 . S
C1764 C1767 1.356 . S
C1764 O1820 1.325 . S
N1765 C1768 1.314 . S
N1765 C1769 1.279 . S
C1766 C1764 1.348 . S
C1766 C1768 1.353 . S
C1766 H1824 0.929 . S
C1767 C1764 1.356 . S
C1767 C1769 1.358 . S
C1767 H1825 0.930 . S
C1768 N1765 1.314 . S
C1768 C1766 1.353 . S
C1768 H1826 0.930 . S
C1769 N1765 1.279 . S
C1769 C1767 1.358 . S
C1769 H1827 0.930 . S
C1770 C1773 1.348 . S
C1770 C1774 1.356 . S
C1770 O1821 1.325 . S
C1771 N1772 1.279 . S
C1771 C1774 1.358 . S
C1771 H1828 0.930 . S
N1772 C1771 1.279 . S
N1772 C1775 1.314 . S
C1773 C1770 1.348 . S
C1773 C1775 1.353 . S
C1773 H1829 0.929 . S
C1774 C1770 1.356 . S
C1774 C1771 1.358 . S
C1774 H1830 0.930 . S
C1775 N1772 1.314 . S
C1775 C1773 1.353 . S
C1775 H1831 0.930 . S
C1776 N1777 1.314 . S
C1776 C1781 1.353 . S
C1776 H1782 0.930 . S
N1777 Li1760 1.990 . S
N1777 C1776 1.314 . S
N1777 C1779 1.279 . S
C1778 C1779 1.358 . S
C1778 C1780 1.356 . S
C1778 H1832 0.930 . S
C1779 N1777 1.279 . S
C1779 C1778 1.358 . S
C1779 H1783 0.930 . S
C1780 C1778 1.356 . S
C1780 C1781 1.348 . S
C1781 C1776 1.353 . S
C1781 C1780 1.348 . S
C1781 H1833 0.929 . S
H1782 C1776 0.930 . S
H1783 C1779 0.930 . S
C1784 N1785 1.314 . S
C1784 C1786 1.353 . S
C1784 H1790 0.930 . S
N1785 Li1761 1.990 . S
N1785 C1784 1.314 . S
N1785 C1788 1.279 . S
C1786 C1784 1.353 . S
C1786 C1789 1.348 . S
C1786 H1834 0.929 . S
C1787 C1788 1.358 . S
C1787 C1789 1.356 . S
C1787 H1835 0.930 . S
C1788 N1785 1.279 . S
C1788 C1787 1.358 . S
C1788 H1791 0.930 . S
C1789 C1786 1.348 . S
C1789 C1787 1.356 . S
H1790 C1784 0.930 . S
H1791 C1788 0.930 . S
C1792 C1794 1.348 . S
C1792 C1795 1.356 . S
C1792 O1822 1.325 . S
N1793 C1796 1.314 . S
N1793 C1797 1.279 . S
C1794 C1792 1.348 . S
C1794 C1796 1.353 . S
C1794 H1836 0.929 . S
C1795 C1792 1.356 . S
C1795 C1797 1.358 . S
C1795 H1837 0.930 . S
C1796 N1793 1.314 . S
C1796 C1794 1.353 . S
C1796 H1838 0.930 . S
C1797 N1793 1.279 . S
C1797 C1795 1.358 . S
C1797 H1839 0.930 . S
C1798 C1799 1.348 . S
C1798 C1800 1.356 . S
C1798 O1823 1.325 . S
C1799 C1798 1.348 . S
C1799 C1801 1.353 . S
C1799 H1840 0.929 . S
C1800 C1798 1.356 . S
C1800 C1802 1.358 . S
C1800 H1841 0.930 . S
C1801 C1799 1.353 . S
C1801 N1803 1.314 . S
C1801 H1842 0.930 . S
C1802 C1800 1.358 . S
C1802 N1803 1.279 . S
C1802 H1843 0.930 . S
N1803 C1801 1.314 . S
N1803 C1802 1.279 . S
C1804 C1806 1.353 . S
C1804 N1807 1.314 . S
C1804 H1810 0.930 . S
C1805 N1807 1.279 . S
C1805 C1808 1.358 . S
C1805 H1811 0.930 . S
C1806 C1804 1.353 . S
C1806 C1809 1.348 . S
C1806 H1844 0.929 . S
N1807 Li1762 1.990 . S
N1807 C1804 1.314 . S
N1807 C1805 1.279 . S
C1808 C1805 1.358 . S
C1808 C1809 1.356 . S
C1808 H1845 0.930 . S
C1809 C1806 1.348 . S
C1809 C1808 1.356 . S
H1810 C1804 0.930 . S
H1811 C1805 0.930 . S
C1812 N1813 1.314 . S
C1812 C1814 1.353 . S
C1812 H1818 0.930 . S
N1813 Li1763 1.990 . S
N1813 C1812 1.314 . S
N1813 C1816 1.279 . S
C1814 C1812 1.353 . S
C1814 C1817 1.348 . S
C1814 H1846 0.929 . S
C1815 C1816 1.358 . S
C1815 C1817 1.356 . S
C1815 H1847 0.930 . S
C1816 N1813 1.279 . S
C1816 C1815 1.358 . S
C1816 H1819 0.930 . S
C1817 C1814 1.348 . S
C1817 C1815 1.356 . S
H1818 C1812 0.930 . S
H1819 C1816 0.930 . S
O1820 Li1760 1.956 . S
O1820 Li1761 1.970 . S
O1820 Li1762 1.961 . S
O1820 C1764 1.325 . S
O1821 Li1760 1.970 . S
O1821 Li1761 1.956 . S
O1821 Li1763 1.961 . S
O1821 C1770 1.325 . S
O1822 Li1760 1.961 . S
O1822 Li1762 1.956 . S
O1822 Li1763 1.970 . S
O1822 C1792 1.325 . S
O1823 Li1761 1.961 . S
O1823 Li1762 1.970 . S
O1823 Li1763 1.956 . S
O1823 C1798 1.325 . S
H1824 C1766 0.929 . S
H1825 C1767 0.930 . S
H1826 C1768 0.930 . S
H1827 C1769 0.930 . S
H1828 C1771 0.930 . S
H1829 C1773 0.929 . S
H1830 C1774 0.930 . S
H1831 C1775 0.930 . S
H1832 C1778 0.930 . S
H1833 C1781 0.929 . S
H1834 C1786 0.929 . S
H1835 C1787 0.930 . S
H1836 C1794 0.929 . S
H1837 C1795 0.930 . S
H1838 C1796 0.930 . S
H1839 C1797 0.930 . S
H1840 C1799 0.929 . S
H1841 C1800 0.930 . S
H1842 C1801 0.930 . S
H1843 C1802 0.930 . S
H1844 C1806 0.929 . S
H1845 C1808 0.930 . S
H1846 C1814 0.929 . S
H1847 C1815 0.930 . S
Li1848 N1865 1.990 . S
Li1848 O1908 1.956 . S
Li1848 O1909 1.970 . S
Li1848 O1910 1.961 . S
Li1849 N1873 1.990 . S
Li1849 O1908 1.970 . S
Li1849 O1909 1.956 . S
Li1849 O1911 1.961 . S
Li1850 N1895 1.990 . S
Li1850 O1908 1.961 . S
Li1850 O1910 1.956 . S
Li1850 O1911 1.970 . S
Li1851 N1901 1.990 . S
Li1851 O1909 1.961 . S
Li1851 O1910 1.970 . S
Li1851 O1911 1.956 . S
C1852 C1854 1.348 . S
C1852 C1855 1.356 . S
C1852 O1908 1.325 . S
N1853 C1856 1.314 . S
N1853 C1857 1.279 . S
C1854 C1852 1.348 . S
C1854 C1856 1.353 . S
C1854 H1912 0.929 . S
C1855 C1852 1.356 . S
C1855 C1857 1.358 . S
C1855 H1913 0.930 . S
C1856 N1853 1.314 . S
C1856 C1854 1.353 . S
C1856 H1914 0.930 . S
C1857 N1853 1.279 . S
C1857 C1855 1.358 . S
C1857 H1915 0.930 . S
C1858 C1861 1.348 . S
C1858 C1862 1.356 . S
C1858 O1909 1.325 . S
C1859 N1860 1.279 . S
C1859 C1862 1.358 . S
C1859 H1916 0.930 . S
N1860 C1859 1.279 . S
N1860 C1863 1.314 . S
C1861 C1858 1.348 . S
C1861 C1863 1.353 . S
C1861 H1917 0.929 . S
C1862 C1858 1.356 . S
C1862 C1859 1.358 . S
C1862 H1918 0.930 . S
C1863 N1860 1.314 . S
C1863 C1861 1.353 . S
C1863 H1919 0.930 . S
C1864 N1865 1.314 . S
C1864 C1869 1.353 . S
C1864 H1870 0.930 . S
N1865 Li1848 1.990 . S
N1865 C1864 1.314 . S
N1865 C1867 1.279 . S
C1866 C1867 1.358 . S
C1866 C1868 1.356 . S
C1866 H1920 0.930 . S
C1867 N1865 1.279 . S
C1867 C1866 1.358 . S
C1867 H1871 0.930 . S
C1868 C1866 1.356 . S
C1868 C1869 1.348 . S
C1869 C1864 1.353 . S
C1869 C1868 1.348 . S
C1869 H1921 0.929 . S
H1870 C1864 0.930 . S
H1871 C1867 0.930 . S
C1872 N1873 1.314 . S
C1872 C1874 1.353 . S
C1872 H1878 0.930 . S
N1873 Li1849 1.990 . S
N1873 C1872 1.314 . S
N1873 C1876 1.279 . S
C1874 C1872 1.353 . S
C1874 C1877 1.348 . S
C1874 H1922 0.929 . S
C1875 C1876 1.358 . S
C1875 C1877 1.356 . S
C1875 H1923 0.930 . S
C1876 N1873 1.279 . S
C1876 C1875 1.358 . S
C1876 H1879 0.930 . S
C1877 C1874 1.348 . S
C1877 C1875 1.356 . S
H1878 C1872 0.930 . S
H1879 C1876 0.930 . S
C1880 C1882 1.348 . S
C1880 C1883 1.356 . S
C1880 O1910 1.325 . S
N1881 C1884 1.314 . S
N1881 C1885 1.279 . S
C1882 C1880 1.348 . S
C1882 C1884 1.353 . S
C1882 H1924 0.929 . S
C1883 C1880 1.356 . S
C1883 C1885 1.358 . S
C1883 H1925 0.930 . S
C1884 N1881 1.314 . S
C1884 C1882 1.353 . S
C1884 H1926 0.930 . S
C1885 N1881 1.279 . S
C1885 C1883 1.358 . S
C1885 H1927 0.930 . S
C1886 C1887 1.348 . S
C1886 C1888 1.356 . S
C1886 O1911 1.325 . S
C1887 C1886 1.348 . S
C1887 C1889 1.353 . S
C1887 H1928 0.929 . S
C1888 C1886 1.356 . S
C1888 C1890 1.358 . S
C1888 H1929 0.930 . S
C1889 C1887 1.353 . S
C1889 N1891 1.314 . S
C1889 H1930 0.930 . S
C1890 C1888 1.358 . S
C1890 N1891 1.279 . S
C1890 H1931 0.930 . S
N1891 C1889 1.314 . S
N1891 C1890 1.279 . S
C1892 C1894 1.353 . S
C1892 N1895 1.314 . S
C1892 H1898 0.930 . S
C1893 N1895 1.279 . S
C1893 C1896 1.358 . S
C1893 H1899 0.930 . S
C1894 C1892 1.353 . S
C1894 C1897 1.348 . S
C1894 H1932 0.929 . S
N1895 Li1850 1.990 . S
N1895 C1892 1.314 . S
N1895 C1893 1.279 . S
C1896 C1893 1.358 . S
C1896 C1897 1.356 . S
C1896 H1933 0.930 . S
C1897 C1894 1.348 . S
C1897 C1896 1.356 . S
H1898 C1892 0.930 . S
H1899 C1893 0.930 . S
C1900 N1901 1.314 . S
C1900 C1902 1.353 . S
C1900 H1906 0.930 . S
N1901 Li1851 1.990 . S
N1901 C1900 1.314 . S
N1901 C1904 1.279 . S
C1902 C1900 1.353 . S
C1902 C1905 1.348 . S
C1902 H1934 0.929 . S
C1903 C1904 1.358 . S
C1903 C1905 1.356 . S
C1903 H1935 0.930 . S
C1904 N1901 1.279 . S
C1904 C1903 1.358 . S
C1904 H1907 0.930 . S
C1905 C1902 1.348 . S
C1905 C1903 1.356 . S
H1906 C1900 0.930 . S
H1907 C1904 0.930 . S
O1908 Li1848 1.956 . S
O1908 Li1849 1.970 . S
O1908 Li1850 1.961 . S
O1908 C1852 1.325 . S
O1909 Li1848 1.970 . S
O1909 Li1849 1.956 . S
O1909 Li1851 1.961 . S
O1909 C1858 1.325 . S
O1910 Li1848 1.961 . S
O1910 Li1850 1.956 . S
O1910 Li1851 1.970 . S
O1910 C1880 1.325 . S
O1911 Li1849 1.961 . S
O1911 Li1850 1.970 . S
O1911 Li1851 1.956 . S
O1911 C1886 1.325 . S
H1912 C1854 0.929 . S
H1913 C1855 0.930 . S
H1914 C1856 0.930 . S
H1915 C1857 0.930 . S
H1916 C1859 0.930 . S
H1917 C1861 0.929 . S
H1918 C1862 0.930 . S
H1919 C1863 0.930 . S
H1920 C1866 0.930 . S
H1921 C1869 0.929 . S
H1922 C1874 0.929 . S
H1923 C1875 0.930 . S
H1924 C1882 0.929 . S
H1925 C1883 0.930 . S
H1926 C1884 0.930 . S
H1927 C1885 0.930 . S
H1928 C1887 0.929 . S
H1929 C1888 0.930 . S
H1930 C1889 0.930 . S
H1931 C1890 0.930 . S
H1932 C1894 0.929 . S
H1933 C1896 0.930 . S
H1934 C1902 0.929 . S
H1935 C1903 0.930 . S
Li1936 N1953 1.990 . S
Li1936 O1996 1.956 . S
Li1936 O1997 1.970 . S
Li1936 O1998 1.961 . S
Li1937 N1961 1.990 . S
Li1937 O1996 1.970 . S
Li1937 O1997 1.956 . S
Li1937 O1999 1.961 . S
Li1938 N1983 1.990 . S
Li1938 O1996 1.961 . S
Li1938 O1998 1.956 . S
Li1938 O1999 1.970 . S
Li1939 N1989 1.990 . S
Li1939 O1997 1.961 . S
Li1939 O1998 1.970 . S
Li1939 O1999 1.956 . S
C1940 C1942 1.348 . S
C1940 C1943 1.356 . S
C1940 O1996 1.325 . S
N1941 C1944 1.314 . S
N1941 C1945 1.279 . S
C1942 C1940 1.348 . S
C1942 C1944 1.353 . S
C1942 H2000 0.929 . S
C1943 C1940 1.356 . S
C1943 C1945 1.358 . S
C1943 H2001 0.930 . S
C1944 N1941 1.314 . S
C1944 C1942 1.353 . S
C1944 H2002 0.930 . S
C1945 N1941 1.279 . S
C1945 C1943 1.358 . S
C1945 H2003 0.930 . S
C1946 C1949 1.348 . S
C1946 C1950 1.356 . S
C1946 O1997 1.325 . S
C1947 N1948 1.279 . S
C1947 C1950 1.358 . S
C1947 H2004 0.930 . S
N1948 C1947 1.279 . S
N1948 C1951 1.314 . S
C1949 C1946 1.348 . S
C1949 C1951 1.353 . S
C1949 H2005 0.929 . S
C1950 C1946 1.356 . S
C1950 C1947 1.358 . S
C1950 H2006 0.930 . S
C1951 N1948 1.314 . S
C1951 C1949 1.353 . S
C1951 H2007 0.930 . S
C1952 N1953 1.314 . S
C1952 C1957 1.353 . S
C1952 H1958 0.930 . S
N1953 Li1936 1.990 . S
N1953 C1952 1.314 . S
N1953 C1955 1.279 . S
C1954 C1955 1.358 . S
C1954 C1956 1.356 . S
C1954 H2008 0.930 . S
C1955 N1953 1.279 . S
C1955 C1954 1.358 . S
C1955 H1959 0.930 . S
C1956 C1954 1.356 . S
C1956 C1957 1.348 . S
C1957 C1952 1.353 . S
C1957 C1956 1.348 . S
C1957 H2009 0.929 . S
H1958 C1952 0.930 . S
H1959 C1955 0.930 . S
C1960 N1961 1.314 . S
C1960 C1962 1.353 . S
C1960 H1966 0.930 . S
N1961 Li1937 1.990 . S
N1961 C1960 1.314 . S
N1961 C1964 1.279 . S
C1962 C1960 1.353 . S
C1962 C1965 1.348 . S
C1962 H2010 0.929 . S
C1963 C1964 1.358 . S
C1963 C1965 1.356 . S
C1963 H2011 0.930 . S
C1964 N1961 1.279 . S
C1964 C1963 1.358 . S
C1964 H1967 0.930 . S
C1965 C1962 1.348 . S
C1965 C1963 1.356 . S
H1966 C1960 0.930 . S
H1967 C1964 0.930 . S
C1968 C1970 1.348 . S
C1968 C1971 1.356 . S
C1968 O1998 1.325 . S
N1969 C1972 1.314 . S
N1969 C1973 1.279 . S
C1970 C1968 1.348 . S
C1970 C1972 1.353 . S
C1970 H2012 0.929 . S
C1971 C1968 1.356 . S
C1971 C1973 1.358 . S
C1971 H2013 0.930 . S
C1972 N1969 1.314 . S
C1972 C1970 1.353 . S
C1972 H2014 0.930 . S
C1973 N1969 1.279 . S
C1973 C1971 1.358 . S
C1973 H2015 0.930 . S
C1974 C1975 1.348 . S
C1974 C1976 1.356 . S
C1974 O1999 1.325 . S
C1975 C1974 1.348 . S
C1975 C1977 1.353 . S
C1975 H2016 0.929 . S
C1976 C1974 1.356 . S
C1976 C1978 1.358 . S
C1976 H2017 0.930 . S
C1977 C1975 1.353 . S
C1977 N1979 1.314 . S
C1977 H2018 0.930 . S
C1978 C1976 1.358 . S
C1978 N1979 1.279 . S
C1978 H2019 0.930 . S
N1979 C1977 1.314 . S
N1979 C1978 1.279 . S
C1980 C1982 1.353 . S
C1980 N1983 1.314 . S
C1980 H1986 0.930 . S
C1981 N1983 1.279 . S
C1981 C1984 1.358 . S
C1981 H1987 0.930 . S
C1982 C1980 1.353 . S
C1982 C1985 1.348 . S
C1982 H2020 0.929 . S
N1983 Li1938 1.990 . S
N1983 C1980 1.314 . S
N1983 C1981 1.279 . S
C1984 C1981 1.358 . S
C1984 C1985 1.356 . S
C1984 H2021 0.930 . S
C1985 C1982 1.348 . S
C1985 C1984 1.356 . S
H1986 C1980 0.930 . S
H1987 C1981 0.930 . S
C1988 N1989 1.314 . S
C1988 C1990 1.353 . S
C1988 H1994 0.930 . S
N1989 Li1939 1.990 . S
N1989 C1988 1.314 . S
N1989 C1992 1.279 . S
C1990 C1988 1.353 . S
C1990 C1993 1.348 . S
C1990 H2022 0.929 . S
C1991 C1992 1.358 . S
C1991 C1993 1.356 . S
C1991 H2023 0.930 . S
C1992 N1989 1.279 . S
C1992 C1991 1.358 . S
C1992 H1995 0.930 . S
C1993 C1990 1.348 . S
C1993 C1991 1.356 . S
H1994 C1988 0.930 . S
H1995 C1992 0.930 . S
O1996 Li1936 1.956 . S
O1996 Li1937 1.970 . S
O1996 Li1938 1.961 . S
O1996 C1940 1.325 . S
O1997 Li1936 1.970 . S
O1997 Li1937 1.956 . S
O1997 Li1939 1.961 . S
O1997 C1946 1.325 . S
O1998 Li1936 1.961 . S
O1998 Li1938 1.956 . S
O1998 Li1939 1.970 . S
O1998 C1968 1.325 . S
O1999 Li1937 1.961 . S
O1999 Li1938 1.970 . S
O1999 Li1939 1.956 . S
O1999 C1974 1.325 . S
H2000 C1942 0.929 . S
H2001 C1943 0.930 . S
H2002 C1944 0.930 . S
H2003 C1945 0.930 . S
H2004 C1947 0.930 . S
H2005 C1949 0.929 . S
H2006 C1950 0.930 . S
H2007 C1951 0.930 . S
H2008 C1954 0.930 . S
H2009 C1957 0.929 . S
H2010 C1962 0.929 . S
H2011 C1963 0.930 . S
H2012 C1970 0.929 . S
H2013 C1971 0.930 . S
H2014 C1972 0.930 . S
H2015 C1973 0.930 . S
H2016 C1975 0.929 . S
H2017 C1976 0.930 . S
H2018 C1977 0.930 . S
H2019 C1978 0.930 . S
H2020 C1982 0.929 . S
H2021 C1984 0.930 . S
H2022 C1990 0.929 . S
H2023 C1991 0.930 . S
Li2024 N2041 1.990 . S
Li2024 O2084 1.956 . S
Li2024 O2085 1.970 . S
Li2024 O2086 1.961 . S
Li2025 N2049 1.990 . S
Li2025 O2084 1.970 . S
Li2025 O2085 1.956 . S
Li2025 O2087 1.961 . S
Li2026 N2071 1.990 . S
Li2026 O2084 1.961 . S
Li2026 O2086 1.956 . S
Li2026 O2087 1.970 . S
Li2027 N2077 1.990 . S
Li2027 O2085 1.961 . S
Li2027 O2086 1.970 . S
Li2027 O2087 1.956 . S
C2028 C2030 1.348 . S
C2028 C2031 1.356 . S
C2028 O2084 1.325 . S
N2029 C2032 1.314 . S
N2029 C2033 1.279 . S
C2030 C2028 1.348 . S
C2030 C2032 1.353 . S
C2030 H2088 0.929 . S
C2031 C2028 1.356 . S
C2031 C2033 1.358 . S
C2031 H2089 0.930 . S
C2032 N2029 1.314 . S
C2032 C2030 1.353 . S
C2032 H2090 0.930 . S
C2033 N2029 1.279 . S
C2033 C2031 1.358 . S
C2033 H2091 0.930 . S
C2034 C2037 1.348 . S
C2034 C2038 1.356 . S
C2034 O2085 1.325 . S
C2035 N2036 1.279 . S
C2035 C2038 1.358 . S
C2035 H2092 0.930 . S
N2036 C2035 1.279 . S
N2036 C2039 1.314 . S
C2037 C2034 1.348 . S
C2037 C2039 1.353 . S
C2037 H2093 0.929 . S
C2038 C2034 1.356 . S
C2038 C2035 1.358 . S
C2038 H2094 0.930 . S
C2039 N2036 1.314 . S
C2039 C2037 1.353 . S
C2039 H2095 0.930 . S
C2040 N2041 1.314 . S
C2040 C2045 1.353 . S
C2040 H2046 0.930 . S
N2041 Li2024 1.990 . S
N2041 C2040 1.314 . S
N2041 C2043 1.279 . S
C2042 C2043 1.358 . S
C2042 C2044 1.356 . S
C2042 H2096 0.930 . S
C2043 N2041 1.279 . S
C2043 C2042 1.358 . S
C2043 H2047 0.930 . S
C2044 C2042 1.356 . S
C2044 C2045 1.348 . S
C2045 C2040 1.353 . S
C2045 C2044 1.348 . S
C2045 H2097 0.929 . S
H2046 C2040 0.930 . S
H2047 C2043 0.930 . S
C2048 N2049 1.314 . S
C2048 C2050 1.353 . S
C2048 H2054 0.930 . S
N2049 Li2025 1.990 . S
N2049 C2048 1.314 . S
N2049 C2052 1.279 . S
C2050 C2048 1.353 . S
C2050 C2053 1.348 . S
C2050 H2098 0.929 . S
C2051 C2052 1.358 . S
C2051 C2053 1.356 . S
C2051 H2099 0.930 . S
C2052 N2049 1.279 . S
C2052 C2051 1.358 . S
C2052 H2055 0.930 . S
C2053 C2050 1.348 . S
C2053 C2051 1.356 . S
H2054 C2048 0.930 . S
H2055 C2052 0.930 . S
C2056 C2058 1.348 . S
C2056 C2059 1.356 . S
C2056 O2086 1.325 . S
N2057 C2060 1.314 . S
N2057 C2061 1.279 . S
C2058 C2056 1.348 . S
C2058 C2060 1.353 . S
C2058 H2100 0.929 . S
C2059 C2056 1.356 . S
C2059 C2061 1.358 . S
C2059 H2101 0.930 . S
C2060 N2057 1.314 . S
C2060 C2058 1.353 . S
C2060 H2102 0.930 . S
C2061 N2057 1.279 . S
C2061 C2059 1.358 . S
C2061 H2103 0.930 . S
C2062 C2063 1.348 . S
C2062 C2064 1.356 . S
C2062 O2087 1.325 . S
C2063 C2062 1.348 . S
C2063 C2065 1.353 . S
C2063 H2104 0.929 . S
C2064 C2062 1.356 . S
C2064 C2066 1.358 . S
C2064 H2105 0.930 . S
C2065 C2063 1.353 . S
C2065 N2067 1.314 . S
C2065 H2106 0.930 . S
C2066 C2064 1.358 . S
C2066 N2067 1.279 . S
C2066 H2107 0.930 . S
N2067 C2065 1.314 . S
N2067 C2066 1.279 . S
C2068 C2070 1.353 . S
C2068 N2071 1.314 . S
C2068 H2074 0.930 . S
C2069 N2071 1.279 . S
C2069 C2072 1.358 . S
C2069 H2075 0.930 . S
C2070 C2068 1.353 . S
C2070 C2073 1.348 . S
C2070 H2108 0.929 . S
N2071 Li2026 1.990 . S
N2071 C2068 1.314 . S
N2071 C2069 1.279 . S
C2072 C2069 1.358 . S
C2072 C2073 1.356 . S
C2072 H2109 0.930 . S
C2073 C2070 1.348 . S
C2073 C2072 1.356 . S
H2074 C2068 0.930 . S
H2075 C2069 0.930 . S
C2076 N2077 1.314 . S
C2076 C2078 1.353 . S
C2076 H2082 0.930 . S
N2077 Li2027 1.990 . S
N2077 C2076 1.314 . S
N2077 C2080 1.279 . S
C2078 C2076 1.353 . S
C2078 C2081 1.348 . S
C2078 H2110 0.929 . S
C2079 C2080 1.358 . S
C2079 C2081 1.356 . S
C2079 H2111 0.930 . S
C2080 N2077 1.279 . S
C2080 C2079 1.358 . S
C2080 H2083 0.930 . S
C2081 C2078 1.348 . S
C2081 C2079 1.356 . S
H2082 C2076 0.930 . S
H2083 C2080 0.930 . S
O2084 Li2024 1.956 . S
O2084 Li2025 1.970 . S
O2084 Li2026 1.961 . S
O2084 C2028 1.325 . S
O2085 Li2024 1.970 . S
O2085 Li2025 1.956 . S
O2085 Li2027 1.961 . S
O2085 C2034 1.325 . S
O2086 Li2024 1.961 . S
O2086 Li2026 1.956 . S
O2086 Li2027 1.970 . S
O2086 C2056 1.325 . S
O2087 Li2025 1.961 . S
O2087 Li2026 1.970 . S
O2087 Li2027 1.956 . S
O2087 C2062 1.325 . S
H2088 C2030 0.929 . S
H2089 C2031 0.930 . S
H2090 C2032 0.930 . S
H2091 C2033 0.930 . S
H2092 C2035 0.930 . S
H2093 C2037 0.929 . S
H2094 C2038 0.930 . S
H2095 C2039 0.930 . S
H2096 C2042 0.930 . S
H2097 C2045 0.929 . S
H2098 C2050 0.929 . S
H2099 C2051 0.930 . S
H2100 C2058 0.929 . S
H2101 C2059 0.930 . S
H2102 C2060 0.930 . S
H2103 C2061 0.930 . S
H2104 C2063 0.929 . S
H2105 C2064 0.930 . S
H2106 C2065 0.930 . S
H2107 C2066 0.930 . S
H2108 C2070 0.929 . S
H2109 C2072 0.930 . S
H2110 C2078 0.929 . S
H2111 C2079 0.930 . S
Li2112 N2129 1.990 . S
Li2112 O2172 1.956 . S
Li2112 O2173 1.970 . S
Li2112 O2174 1.961 . S
Li2113 N2137 1.990 . S
Li2113 O2172 1.970 . S
Li2113 O2173 1.956 . S
Li2113 O2175 1.961 . S
Li2114 N2159 1.990 . S
Li2114 O2172 1.961 . S
Li2114 O2174 1.956 . S
Li2114 O2175 1.970 . S
Li2115 N2165 1.990 . S
Li2115 O2173 1.961 . S
Li2115 O2174 1.970 . S
Li2115 O2175 1.956 . S
C2116 C2118 1.348 . S
C2116 C2119 1.356 . S
C2116 O2172 1.325 . S
N2117 C2120 1.314 . S
N2117 C2121 1.279 . S
C2118 C2116 1.348 . S
C2118 C2120 1.353 . S
C2118 H2176 0.929 . S
C2119 C2116 1.356 . S
C2119 C2121 1.358 . S
C2119 H2177 0.930 . S
C2120 N2117 1.314 . S
C2120 C2118 1.353 . S
C2120 H2178 0.930 . S
C2121 N2117 1.279 . S
C2121 C2119 1.358 . S
C2121 H2179 0.930 . S
C2122 C2125 1.348 . S
C2122 C2126 1.356 . S
C2122 O2173 1.325 . S
C2123 N2124 1.279 . S
C2123 C2126 1.358 . S
C2123 H2180 0.930 . S
N2124 C2123 1.279 . S
N2124 C2127 1.314 . S
C2125 C2122 1.348 . S
C2125 C2127 1.353 . S
C2125 H2181 0.929 . S
C2126 C2122 1.356 . S
C2126 C2123 1.358 . S
C2126 H2182 0.930 . S
C2127 N2124 1.314 . S
C2127 C2125 1.353 . S
C2127 H2183 0.930 . S
C2128 N2129 1.314 . S
C2128 C2133 1.353 . S
C2128 H2134 0.930 . S
N2129 Li2112 1.990 . S
N2129 C2128 1.314 . S
N2129 C2131 1.279 . S
C2130 C2131 1.358 . S
C2130 C2132 1.356 . S
C2130 H2184 0.930 . S
C2131 N2129 1.279 . S
C2131 C2130 1.358 . S
C2131 H2135 0.930 . S
C2132 C2130 1.356 . S
C2132 C2133 1.348 . S
C2133 C2128 1.353 . S
C2133 C2132 1.348 . S
C2133 H2185 0.929 . S
H2134 C2128 0.930 . S
H2135 C2131 0.930 . S
C2136 N2137 1.314 . S
C2136 C2138 1.353 . S
C2136 H2142 0.930 . S
N2137 Li2113 1.990 . S
N2137 C2136 1.314 . S
N2137 C2140 1.279 . S
C2138 C2136 1.353 . S
C2138 C2141 1.348 . S
C2138 H2186 0.929 . S
C2139 C2140 1.358 . S
C2139 C2141 1.356 . S
C2139 H2187 0.930 . S
C2140 N2137 1.279 . S
C2140 C2139 1.358 . S
C2140 H2143 0.930 . S
C2141 C2138 1.348 . S
C2141 C2139 1.356 . S
H2142 C2136 0.930 . S
H2143 C2140 0.930 . S
C2144 C2146 1.348 . S
C2144 C2147 1.356 . S
C2144 O2174 1.325 . S
N2145 C2148 1.314 . S
N2145 C2149 1.279 . S
C2146 C2144 1.348 . S
C2146 C2148 1.353 . S
C2146 H2188 0.929 . S
C2147 C2144 1.356 . S
C2147 C2149 1.358 . S
C2147 H2189 0.930 . S
C2148 N2145 1.314 . S
C2148 C2146 1.353 . S
C2148 H2190 0.930 . S
C2149 N2145 1.279 . S
C2149 C2147 1.358 . S
C2149 H2191 0.930 . S
C2150 C2151 1.348 . S
C2150 C2152 1.356 . S
C2150 O2175 1.325 . S
C2151 C2150 1.348 . S
C2151 C2153 1.353 . S
C2151 H2192 0.929 . S
C2152 C2150 1.356 . S
C2152 C2154 1.358 . S
C2152 H2193 0.930 . S
C2153 C2151 1.353 . S
C2153 N2155 1.314 . S
C2153 H2194 0.930 . S
C2154 C2152 1.358 . S
C2154 N2155 1.279 . S
C2154 H2195 0.930 . S
N2155 C2153 1.314 . S
N2155 C2154 1.279 . S
C2156 C2158 1.353 . S
C2156 N2159 1.314 . S
C2156 H2162 0.930 . S
C2157 N2159 1.279 . S
C2157 C2160 1.358 . S
C2157 H2163 0.930 . S
C2158 C2156 1.353 . S
C2158 C2161 1.348 . S
C2158 H2196 0.929 . S
N2159 Li2114 1.990 . S
N2159 C2156 1.314 . S
N2159 C2157 1.279 . S
C2160 C2157 1.358 . S
C2160 C2161 1.356 . S
C2160 H2197 0.930 . S
C2161 C2158 1.348 . S
C2161 C2160 1.356 . S
H2162 C2156 0.930 . S
H2163 C2157 0.930 . S
C2164 N2165 1.314 . S
C2164 C2166 1.353 . S
C2164 H2170 0.930 . S
N2165 Li2115 1.990 . S
N2165 C2164 1.314 . S
N2165 C2168 1.279 . S
C2166 C2164 1.353 . S
C2166 C2169 1.348 . S
C2166 H2198 0.929 . S
C2167 C2168 1.358 . S
C2167 C2169 1.356 . S
C2167 H2199 0.930 . S
C2168 N2165 1.279 . S
C2168 C2167 1.358 . S
C2168 H2171 0.930 . S
C2169 C2166 1.348 . S
C2169 C2167 1.356 . S
H2170 C2164 0.930 . S
H2171 C2168 0.930 . S
O2172 Li2112 1.956 . S
O2172 Li2113 1.970 . S
O2172 Li2114 1.961 . S
O2172 C2116 1.325 . S
O2173 Li2112 1.970 . S
O2173 Li2113 1.956 . S
O2173 Li2115 1.961 . S
O2173 C2122 1.325 . S
O2174 Li2112 1.961 . S
O2174 Li2114 1.956 . S
O2174 Li2115 1.970 . S
O2174 C2144 1.325 . S
O2175 Li2113 1.961 . S
O2175 Li2114 1.970 . S
O2175 Li2115 1.956 . S
O2175 C2150 1.325 . S
H2176 C2118 0.929 . S
H2177 C2119 0.930 . S
H2178 C2120 0.930 . S
H2179 C2121 0.930 . S
H2180 C2123 0.930 . S
H2181 C2125 0.929 . S
H2182 C2126 0.930 . S
H2183 C2127 0.930 . S
H2184 C2130 0.930 . S
H2185 C2133 0.929 . S
H2186 C2138 0.929 . S
H2187 C2139 0.930 . S
H2188 C2146 0.929 . S
H2189 C2147 0.930 . S
H2190 C2148 0.930 . S
H2191 C2149 0.930 . S
H2192 C2151 0.929 . S
H2193 C2152 0.930 . S
H2194 C2153 0.930 . S
H2195 C2154 0.930 . S
H2196 C2158 0.929 . S
H2197 C2160 0.930 . S
H2198 C2166 0.929 . S
H2199 C2167 0.930 . S
Li2200 N2217 1.990 . S
Li2200 O2260 1.956 . S
Li2200 O2261 1.970 . S
Li2200 O2262 1.961 . S
Li2201 N2225 1.990 . S
Li2201 O2260 1.970 . S
Li2201 O2261 1.956 . S
Li2201 O2263 1.961 . S
Li2202 N2247 1.990 . S
Li2202 O2260 1.961 . S
Li2202 O2262 1.956 . S
Li2202 O2263 1.970 . S
Li2203 N2253 1.990 . S
Li2203 O2261 1.961 . S
Li2203 O2262 1.970 . S
Li2203 O2263 1.956 . S
C2204 C2206 1.348 . S
C2204 C2207 1.356 . S
C2204 O2260 1.325 . S
N2205 C2208 1.314 . S
N2205 C2209 1.279 . S
C2206 C2204 1.348 . S
C2206 C2208 1.353 . S
C2206 H2264 0.929 . S
C2207 C2204 1.356 . S
C2207 C2209 1.358 . S
C2207 H2265 0.930 . S
C2208 N2205 1.314 . S
C2208 C2206 1.353 . S
C2208 H2266 0.930 . S
C2209 N2205 1.279 . S
C2209 C2207 1.358 . S
C2209 H2267 0.930 . S
C2210 C2213 1.348 . S
C2210 C2214 1.356 . S
C2210 O2261 1.325 . S
C2211 N2212 1.279 . S
C2211 C2214 1.358 . S
C2211 H2268 0.930 . S
N2212 C2211 1.279 . S
N2212 C2215 1.314 . S
C2213 C2210 1.348 . S
C2213 C2215 1.353 . S
C2213 H2269 0.929 . S
C2214 C2210 1.356 . S
C2214 C2211 1.358 . S
C2214 H2270 0.930 . S
C2215 N2212 1.314 . S
C2215 C2213 1.353 . S
C2215 H2271 0.930 . S
C2216 N2217 1.314 . S
C2216 C2221 1.353 . S
C2216 H2222 0.930 . S
N2217 Li2200 1.990 . S
N2217 C2216 1.314 . S
N2217 C2219 1.279 . S
C2218 C2219 1.358 . S
C2218 C2220 1.356 . S
C2218 H2272 0.930 . S
C2219 N2217 1.279 . S
C2219 C2218 1.358 . S
C2219 H2223 0.930 . S
C2220 C2218 1.356 . S
C2220 C2221 1.348 . S
C2221 C2216 1.353 . S
C2221 C2220 1.348 . S
C2221 H2273 0.929 . S
H2222 C2216 0.930 . S
H2223 C2219 0.930 . S
C2224 N2225 1.314 . S
C2224 C2226 1.353 . S
C2224 H2230 0.930 . S
N2225 Li2201 1.990 . S
N2225 C2224 1.314 . S
N2225 C2228 1.279 . S
C2226 C2224 1.353 . S
C2226 C2229 1.348 . S
C2226 H2274 0.929 . S
C2227 C2228 1.358 . S
C2227 C2229 1.356 . S
C2227 H2275 0.930 . S
C2228 N2225 1.279 . S
C2228 C2227 1.358 . S
C2228 H2231 0.930 . S
C2229 C2226 1.348 . S
C2229 C2227 1.356 . S
H2230 C2224 0.930 . S
H2231 C2228 0.930 . S
C2232 C2234 1.348 . S
C2232 C2235 1.356 . S
C2232 O2262 1.325 . S
N2233 C2236 1.314 . S
N2233 C2237 1.279 . S
C2234 C2232 1.348 . S
C2234 C2236 1.353 . S
C2234 H2276 0.929 . S
C2235 C2232 1.356 . S
C2235 C2237 1.358 . S
C2235 H2277 0.930 . S
C2236 N2233 1.314 . S
C2236 C2234 1.353 . S
C2236 H2278 0.930 . S
C2237 N2233 1.279 . S
C2237 C2235 1.358 . S
C2237 H2279 0.930 . S
C2238 C2239 1.348 . S
C2238 C2240 1.356 . S
C2238 O2263 1.325 . S
C2239 C2238 1.348 . S
C2239 C2241 1.353 . S
C2239 H2280 0.929 . S
C2240 C2238 1.356 . S
C2240 C2242 1.358 . S
C2240 H2281 0.930 . S
C2241 C2239 1.353 . S
C2241 N2243 1.314 . S
C2241 H2282 0.930 . S
C2242 C2240 1.358 . S
C2242 N2243 1.279 . S
C2242 H2283 0.930 . S
N2243 C2241 1.314 . S
N2243 C2242 1.279 . S
C2244 C2246 1.353 . S
C2244 N2247 1.314 . S
C2244 H2250 0.930 . S
C2245 N2247 1.279 . S
C2245 C2248 1.358 . S
C2245 H2251 0.930 . S
C2246 C2244 1.353 . S
C2246 C2249 1.348 . S
C2246 H2284 0.929 . S
N2247 Li2202 1.990 . S
N2247 C2244 1.314 . S
N2247 C2245 1.279 . S
C2248 C2245 1.358 . S
C2248 C2249 1.356 . S
C2248 H2285 0.930 . S
C2249 C2246 1.348 . S
C2249 C2248 1.356 . S
H2250 C2244 0.930 . S
H2251 C2245 0.930 . S
C2252 N2253 1.314 . S
C2252 C2254 1.353 . S
C2252 H2258 0.930 . S
N2253 Li2203 1.990 . S
N2253 C2252 1.314 . S
N2253 C2256 1.279 . S
C2254 C2252 1.353 . S
C2254 C2257 1.348 . S
C2254 H2286 0.929 . S
C2255 C2256 1.358 . S
C2255 C2257 1.356 . S
C2255 H2287 0.930 . S
C2256 N2253 1.279 . S
C2256 C2255 1.358 . S
C2256 H2259 0.930 . S
C2257 C2254 1.348 . S
C2257 C2255 1.356 . S
H2258 C2252 0.930 . S
H2259 C2256 0.930 . S
O2260 Li2200 1.956 . S
O2260 Li2201 1.970 . S
O2260 Li2202 1.961 . S
O2260 C2204 1.325 . S
O2261 Li2200 1.970 . S
O2261 Li2201 1.956 . S
O2261 Li2203 1.961 . S
O2261 C2210 1.325 . S
O2262 Li2200 1.961 . S
O2262 Li2202 1.956 . S
O2262 Li2203 1.970 . S
O2262 C2232 1.325 . S
O2263 Li2201 1.961 . S
O2263 Li2202 1.970 . S
O2263 Li2203 1.956 . S
O2263 C2238 1.325 . S
H2264 C2206 0.929 . S
H2265 C2207 0.930 . S
H2266 C2208 0.930 . S
H2267 C2209 0.930 . S
H2268 C2211 0.930 . S
H2269 C2213 0.929 . S
H2270 C2214 0.930 . S
H2271 C2215 0.930 . S
H2272 C2218 0.930 . S
H2273 C2221 0.929 . S
H2274 C2226 0.929 . S
H2275 C2227 0.930 . S
H2276 C2234 0.929 . S
H2277 C2235 0.930 . S
H2278 C2236 0.930 . S
H2279 C2237 0.930 . S
H2280 C2239 0.929 . S
H2281 C2240 0.930 . S
H2282 C2241 0.930 . S
H2283 C2242 0.930 . S
H2284 C2246 0.929 . S
H2285 C2248 0.930 . S
H2286 C2254 0.929 . S
H2287 C2255 0.930 . S
Li2288 N2305 1.990 . S
Li2288 O2348 1.956 . S
Li2288 O2349 1.970 . S
Li2288 O2350 1.961 . S
Li2289 N2313 1.990 . S
Li2289 O2348 1.970 . S
Li2289 O2349 1.956 . S
Li2289 O2351 1.961 . S
Li2290 N2335 1.990 . S
Li2290 O2348 1.961 . S
Li2290 O2350 1.956 . S
Li2290 O2351 1.970 . S
Li2291 N2341 1.990 . S
Li2291 O2349 1.961 . S
Li2291 O2350 1.970 . S
Li2291 O2351 1.956 . S
C2292 C2294 1.348 . S
C2292 C2295 1.356 . S
C2292 O2348 1.325 . S
N2293 C2296 1.314 . S
N2293 C2297 1.279 . S
C2294 C2292 1.348 . S
C2294 C2296 1.353 . S
C2294 H2352 0.929 . S
C2295 C2292 1.356 . S
C2295 C2297 1.358 . S
C2295 H2353 0.930 . S
C2296 N2293 1.314 . S
C2296 C2294 1.353 . S
C2296 H2354 0.930 . S
C2297 N2293 1.279 . S
C2297 C2295 1.358 . S
C2297 H2355 0.930 . S
C2298 C2301 1.348 . S
C2298 C2302 1.356 . S
C2298 O2349 1.325 . S
C2299 N2300 1.279 . S
C2299 C2302 1.358 . S
C2299 H2356 0.930 . S
N2300 C2299 1.279 . S
N2300 C2303 1.314 . S
C2301 C2298 1.348 . S
C2301 C2303 1.353 . S
C2301 H2357 0.929 . S
C2302 C2298 1.356 . S
C2302 C2299 1.358 . S
C2302 H2358 0.930 . S
C2303 N2300 1.314 . S
C2303 C2301 1.353 . S
C2303 H2359 0.930 . S
C2304 N2305 1.314 . S
C2304 C2309 1.353 . S
C2304 H2310 0.930 . S
N2305 Li2288 1.990 . S
N2305 C2304 1.314 . S
N2305 C2307 1.279 . S
C2306 C2307 1.358 . S
C2306 C2308 1.356 . S
C2306 H2360 0.930 . S
C2307 N2305 1.279 . S
C2307 C2306 1.358 . S
C2307 H2311 0.930 . S
C2308 C2306 1.356 . S
C2308 C2309 1.348 . S
C2309 C2304 1.353 . S
C2309 C2308 1.348 . S
C2309 H2361 0.929 . S
H2310 C2304 0.930 . S
H2311 C2307 0.930 . S
C2312 N2313 1.314 . S
C2312 C2314 1.353 . S
C2312 H2318 0.930 . S
N2313 Li2289 1.990 . S
N2313 C2312 1.314 . S
N2313 C2316 1.279 . S
C2314 C2312 1.353 . S
C2314 C2317 1.348 . S
C2314 H2362 0.929 . S
C2315 C2316 1.358 . S
C2315 C2317 1.356 . S
C2315 H2363 0.930 . S
C2316 N2313 1.279 . S
C2316 C2315 1.358 . S
C2316 H2319 0.930 . S
C2317 C2314 1.348 . S
C2317 C2315 1.356 . S
H2318 C2312 0.930 . S
H2319 C2316 0.930 . S
C2320 C2322 1.348 . S
C2320 C2323 1.356 . S
C2320 O2350 1.325 . S
N2321 C2324 1.314 . S
N2321 C2325 1.279 . S
C2322 C2320 1.348 . S
C2322 C2324 1.353 . S
C2322 H2364 0.929 . S
C2323 C2320 1.356 . S
C2323 C2325 1.358 . S
C2323 H2365 0.930 . S
C2324 N2321 1.314 . S
C2324 C2322 1.353 . S
C2324 H2366 0.930 . S
C2325 N2321 1.279 . S
C2325 C2323 1.358 . S
C2325 H2367 0.930 . S
C2326 C2327 1.348 . S
C2326 C2328 1.356 . S
C2326 O2351 1.325 . S
C2327 C2326 1.348 . S
C2327 C2329 1.353 . S
C2327 H2368 0.929 . S
C2328 C2326 1.356 . S
C2328 C2330 1.358 . S
C2328 H2369 0.930 . S
C2329 C2327 1.353 . S
C2329 N2331 1.314 . S
C2329 H2370 0.930 . S
C2330 C2328 1.358 . S
C2330 N2331 1.279 . S
C2330 H2371 0.930 . S
N2331 C2329 1.314 . S
N2331 C2330 1.279 . S
C2332 C2334 1.353 . S
C2332 N2335 1.314 . S
C2332 H2338 0.930 . S
C2333 N2335 1.279 . S
C2333 C2336 1.358 . S
C2333 H2339 0.930 . S
C2334 C2332 1.353 . S
C2334 C2337 1.348 . S
C2334 H2372 0.929 . S
N2335 Li2290 1.990 . S
N2335 C2332 1.314 . S
N2335 C2333 1.279 . S
C2336 C2333 1.358 . S
C2336 C2337 1.356 . S
C2336 H2373 0.930 . S
C2337 C2334 1.348 . S
C2337 C2336 1.356 . S
H2338 C2332 0.930 . S
H2339 C2333 0.930 . S
C2340 N2341 1.314 . S
C2340 C2342 1.353 . S
C2340 H2346 0.930 . S
N2341 Li2291 1.990 . S
N2341 C2340 1.314 . S
N2341 C2344 1.279 . S
C2342 C2340 1.353 . S
C2342 C2345 1.348 . S
C2342 H2374 0.929 . S
C2343 C2344 1.358 . S
C2343 C2345 1.356 . S
C2343 H2375 0.930 . S
C2344 N2341 1.279 . S
C2344 C2343 1.358 . S
C2344 H2347 0.930 . S
C2345 C2342 1.348 . S
C2345 C2343 1.356 . S
H2346 C2340 0.930 . S
H2347 C2344 0.930 . S
O2348 Li2288 1.956 . S
O2348 Li2289 1.970 . S
O2348 Li2290 1.961 . S
O2348 C2292 1.325 . S
O2349 Li2288 1.970 . S
O2349 Li2289 1.956 . S
O2349 Li2291 1.961 . S
O2349 C2298 1.325 . S
O2350 Li2288 1.961 . S
O2350 Li2290 1.956 . S
O2350 Li2291 1.970 . S
O2350 C2320 1.325 . S
O2351 Li2289 1.961 . S
O2351 Li2290 1.970 . S
O2351 Li2291 1.956 . S
O2351 C2326 1.325 . S
H2352 C2294 0.929 . S
H2353 C2295 0.930 . S
H2354 C2296 0.930 . S
H2355 C2297 0.930 . S
H2356 C2299 0.930 . S
H2357 C2301 0.929 . S
H2358 C2302 0.930 . S
H2359 C2303 0.930 . S
H2360 C2306 0.930 . S
H2361 C2309 0.929 . S
H2362 C2314 0.929 . S
H2363 C2315 0.930 . S
H2364 C2322 0.929 . S
H2365 C2323 0.930 . S
H2366 C2324 0.930 . S
H2367 C2325 0.930 . S
H2368 C2327 0.929 . S
H2369 C2328 0.930 . S
H2370 C2329 0.930 . S
H2371 C2330 0.930 . S
H2372 C2334 0.929 . S
H2373 C2336 0.930 . S
H2374 C2342 0.929 . S
H2375 C2343 0.930 . S
Li2376 N2393 1.990 . S
Li2376 O2436 1.956 . S
Li2376 O2437 1.970 . S
Li2376 O2438 1.961 . S
Li2377 N2401 1.990 . S
Li2377 O2436 1.970 . S
Li2377 O2437 1.956 . S
Li2377 O2439 1.961 . S
Li2378 N2423 1.990 . S
Li2378 O2436 1.961 . S
Li2378 O2438 1.956 . S
Li2378 O2439 1.970 . S
Li2379 N2429 1.990 . S
Li2379 O2437 1.961 . S
Li2379 O2438 1.970 . S
Li2379 O2439 1.956 . S
C2380 C2382 1.348 . S
C2380 C2383 1.356 . S
C2380 O2436 1.325 . S
N2381 C2384 1.314 . S
N2381 C2385 1.279 . S
C2382 C2380 1.348 . S
C2382 C2384 1.353 . S
C2382 H2440 0.929 . S
C2383 C2380 1.356 . S
C2383 C2385 1.358 . S
C2383 H2441 0.930 . S
C2384 N2381 1.314 . S
C2384 C2382 1.353 . S
C2384 H2442 0.930 . S
C2385 N2381 1.279 . S
C2385 C2383 1.358 . S
C2385 H2443 0.930 . S
C2386 C2389 1.348 . S
C2386 C2390 1.356 . S
C2386 O2437 1.325 . S
C2387 N2388 1.279 . S
C2387 C2390 1.358 . S
C2387 H2444 0.930 . S
N2388 C2387 1.279 . S
N2388 C2391 1.314 . S
C2389 C2386 1.348 . S
C2389 C2391 1.353 . S
C2389 H2445 0.929 . S
C2390 C2386 1.356 . S
C2390 C2387 1.358 . S
C2390 H2446 0.930 . S
C2391 N2388 1.314 . S
C2391 C2389 1.353 . S
C2391 H2447 0.930 . S
C2392 N2393 1.314 . S
C2392 C2397 1.353 . S
C2392 H2398 0.930 . S
N2393 Li2376 1.990 . S
N2393 C2392 1.314 . S
N2393 C2395 1.279 . S
C2394 C2395 1.358 . S
C2394 C2396 1.356 . S
C2394 H2448 0.930 . S
C2395 N2393 1.279 . S
C2395 C2394 1.358 . S
C2395 H2399 0.930 . S
C2396 C2394 1.356 . S
C2396 C2397 1.348 . S
C2397 C2392 1.353 . S
C2397 C2396 1.348 . S
C2397 H2449 0.929 . S
H2398 C2392 0.930 . S
H2399 C2395 0.930 . S
C2400 N2401 1.314 . S
C2400 C2402 1.353 . S
C2400 H2406 0.930 . S
N2401 Li2377 1.990 . S
N2401 C2400 1.314 . S
N2401 C2404 1.279 . S
C2402 C2400 1.353 . S
C2402 C2405 1.348 . S
C2402 H2450 0.929 . S
C2403 C2404 1.358 . S
C2403 C2405 1.356 . S
C2403 H2451 0.930 . S
C2404 N2401 1.279 . S
C2404 C2403 1.358 . S
C2404 H2407 0.930 . S
C2405 C2402 1.348 . S
C2405 C2403 1.356 . S
H2406 C2400 0.930 . S
H2407 C2404 0.930 . S
C2408 C2410 1.348 . S
C2408 C2411 1.356 . S
C2408 O2438 1.325 . S
N2409 C2412 1.314 . S
N2409 C2413 1.279 . S
C2410 C2408 1.348 . S
C2410 C2412 1.353 . S
C2410 H2452 0.929 . S
C2411 C2408 1.356 . S
C2411 C2413 1.358 . S
C2411 H2453 0.930 . S
C2412 N2409 1.314 . S
C2412 C2410 1.353 . S
C2412 H2454 0.930 . S
C2413 N2409 1.279 . S
C2413 C2411 1.358 . S
C2413 H2455 0.930 . S
C2414 C2415 1.348 . S
C2414 C2416 1.356 . S
C2414 O2439 1.325 . S
C2415 C2414 1.348 . S
C2415 C2417 1.353 . S
C2415 H2456 0.929 . S
C2416 C2414 1.356 . S
C2416 C2418 1.358 . S
C2416 H2457 0.930 . S
C2417 C2415 1.353 . S
C2417 N2419 1.314 . S
C2417 H2458 0.930 . S
C2418 C2416 1.358 . S
C2418 N2419 1.279 . S
C2418 H2459 0.930 . S
N2419 C2417 1.314 . S
N2419 C2418 1.279 . S
C2420 C2422 1.353 . S
C2420 N2423 1.314 . S
C2420 H2426 0.930 . S
C2421 N2423 1.279 . S
C2421 C2424 1.358 . S
C2421 H2427 0.930 . S
C2422 C2420 1.353 . S
C2422 C2425 1.348 . S
C2422 H2460 0.929 . S
N2423 Li2378 1.990 . S
N2423 C2420 1.314 . S
N2423 C2421 1.279 . S
C2424 C2421 1.358 . S
C2424 C2425 1.356 . S
C2424 H2461 0.930 . S
C2425 C2422 1.348 . S
C2425 C2424 1.356 . S
H2426 C2420 0.930 . S
H2427 C2421 0.930 . S
C2428 N2429 1.314 . S
C2428 C2430 1.353 . S
C2428 H2434 0.930 . S
N2429 Li2379 1.990 . S
N2429 C2428 1.314 . S
N2429 C2432 1.279 . S
C2430 C2428 1.353 . S
C2430 C2433 1.348 . S
C2430 H2462 0.929 . S
C2431 C2432 1.358 . S
C2431 C2433 1.356 . S
C2431 H2463 0.930 . S
C2432 N2429 1.279 . S
C2432 C2431 1.358 . S
C2432 H2435 0.930 . S
C2433 C2430 1.348 . S
C2433 C2431 1.356 . S
H2434 C2428 0.930 . S
H2435 C2432 0.930 . S
O2436 Li2376 1.956 . S
O2436 Li2377 1.970 . S
O2436 Li2378 1.961 . S
O2436 C2380 1.325 . S
O2437 Li2376 1.970 . S
O2437 Li2377 1.956 . S
O2437 Li2379 1.961 . S
O2437 C2386 1.325 . S
O2438 Li2376 1.961 . S
O2438 Li2378 1.956 . S
O2438 Li2379 1.970 . S
O2438 C2408 1.325 . S
O2439 Li2377 1.961 . S
O2439 Li2378 1.970 . S
O2439 Li2379 1.956 . S
O2439 C2414 1.325 . S
H2440 C2382 0.929 . S
H2441 C2383 0.930 . S
H2442 C2384 0.930 . S
H2443 C2385 0.930 . S
H2444 C2387 0.930 . S
H2445 C2389 0.929 . S
H2446 C2390 0.930 . S
H2447 C2391 0.930 . S
H2448 C2394 0.930 . S
H2449 C2397 0.929 . S
H2450 C2402 0.929 . S
H2451 C2403 0.930 . S
H2452 C2410 0.929 . S
H2453 C2411 0.930 . S
H2454 C2412 0.930 . S
H2455 C2413 0.930 . S
H2456 C2415 0.929 . S
H2457 C2416 0.930 . S
H2458 C2417 0.930 . S
H2459 C2418 0.930 . S
H2460 C2422 0.929 . S
H2461 C2424 0.930 . S
H2462 C2430 0.929 . S
H2463 C2431 0.930 . S
Li2464 N2481 1.990 . S
Li2464 O2524 1.956 . S
Li2464 O2525 1.970 . S
Li2464 O2526 1.961 . S
Li2465 N2489 1.990 . S
Li2465 O2524 1.970 . S
Li2465 O2525 1.956 . S
Li2465 O2527 1.961 . S
Li2466 N2511 1.990 . S
Li2466 O2524 1.961 . S
Li2466 O2526 1.956 . S
Li2466 O2527 1.970 . S
Li2467 N2517 1.990 . S
Li2467 O2525 1.961 . S
Li2467 O2526 1.970 . S
Li2467 O2527 1.956 . S
C2468 C2470 1.348 . S
C2468 C2471 1.356 . S
C2468 O2524 1.325 . S
N2469 C2472 1.314 . S
N2469 C2473 1.279 . S
C2470 C2468 1.348 . S
C2470 C2472 1.353 . S
C2470 H2528 0.929 . S
C2471 C2468 1.356 . S
C2471 C2473 1.358 . S
C2471 H2529 0.930 . S
C2472 N2469 1.314 . S
C2472 C2470 1.353 . S
C2472 H2530 0.930 . S
C2473 N2469 1.279 . S
C2473 C2471 1.358 . S
C2473 H2531 0.930 . S
C2474 C2477 1.348 . S
C2474 C2478 1.356 . S
C2474 O2525 1.325 . S
C2475 N2476 1.279 . S
C2475 C2478 1.358 . S
C2475 H2532 0.930 . S
N2476 C2475 1.279 . S
N2476 C2479 1.314 . S
C2477 C2474 1.348 . S
C2477 C2479 1.353 . S
C2477 H2533 0.929 . S
C2478 C2474 1.356 . S
C2478 C2475 1.358 . S
C2478 H2534 0.930 . S
C2479 N2476 1.314 . S
C2479 C2477 1.353 . S
C2479 H2535 0.930 . S
C2480 N2481 1.314 . S
C2480 C2485 1.353 . S
C2480 H2486 0.930 . S
N2481 Li2464 1.990 . S
N2481 C2480 1.314 . S
N2481 C2483 1.279 . S
C2482 C2483 1.358 . S
C2482 C2484 1.356 . S
C2482 H2536 0.930 . S
C2483 N2481 1.279 . S
C2483 C2482 1.358 . S
C2483 H2487 0.930 . S
C2484 C2482 1.356 . S
C2484 C2485 1.348 . S
C2485 C2480 1.353 . S
C2485 C2484 1.348 . S
C2485 H2537 0.929 . S
H2486 C2480 0.930 . S
H2487 C2483 0.930 . S
C2488 N2489 1.314 . S
C2488 C2490 1.353 . S
C2488 H2494 0.930 . S
N2489 Li2465 1.990 . S
N2489 C2488 1.314 . S
N2489 C2492 1.279 . S
C2490 C2488 1.353 . S
C2490 C2493 1.348 . S
C2490 H2538 0.929 . S
C2491 C2492 1.358 . S
C2491 C2493 1.356 . S
C2491 H2539 0.930 . S
C2492 N2489 1.279 . S
C2492 C2491 1.358 . S
C2492 H2495 0.930 . S
C2493 C2490 1.348 . S
C2493 C2491 1.356 . S
H2494 C2488 0.930 . S
H2495 C2492 0.930 . S
C2496 C2498 1.348 . S
C2496 C2499 1.356 . S
C2496 O2526 1.325 . S
N2497 C2500 1.314 . S
N2497 C2501 1.279 . S
C2498 C2496 1.348 . S
C2498 C2500 1.353 . S
C2498 H2540 0.929 . S
C2499 C2496 1.356 . S
C2499 C2501 1.358 . S
C2499 H2541 0.930 . S
C2500 N2497 1.314 . S
C2500 C2498 1.353 . S
C2500 H2542 0.930 . S
C2501 N2497 1.279 . S
C2501 C2499 1.358 . S
C2501 H2543 0.930 . S
C2502 C2503 1.348 . S
C2502 C2504 1.356 . S
C2502 O2527 1.325 . S
C2503 C2502 1.348 . S
C2503 C2505 1.353 . S
C2503 H2544 0.929 . S
C2504 C2502 1.356 . S
C2504 C2506 1.358 . S
C2504 H2545 0.930 . S
C2505 C2503 1.353 . S
C2505 N2507 1.314 . S
C2505 H2546 0.930 . S
C2506 C2504 1.358 . S
C2506 N2507 1.279 . S
C2506 H2547 0.930 . S
N2507 C2505 1.314 . S
N2507 C2506 1.279 . S
C2508 C2510 1.353 . S
C2508 N2511 1.314 . S
C2508 H2514 0.930 . S
C2509 N2511 1.279 . S
C2509 C2512 1.358 . S
C2509 H2515 0.930 . S
C2510 C2508 1.353 . S
C2510 C2513 1.348 . S
C2510 H2548 0.929 . S
N2511 Li2466 1.990 . S
N2511 C2508 1.314 . S
N2511 C2509 1.279 . S
C2512 C2509 1.358 . S
C2512 C2513 1.356 . S
C2512 H2549 0.930 . S
C2513 C2510 1.348 . S
C2513 C2512 1.356 . S
H2514 C2508 0.930 . S
H2515 C2509 0.930 . S
C2516 N2517 1.314 . S
C2516 C2518 1.353 . S
C2516 H2522 0.930 . S
N2517 Li2467 1.990 . S
N2517 C2516 1.314 . S
N2517 C2520 1.279 . S
C2518 C2516 1.353 . S
C2518 C2521 1.348 . S
C2518 H2550 0.929 . S
C2519 C2520 1.358 . S
C2519 C2521 1.356 . S
C2519 H2551 0.930 . S
C2520 N2517 1.279 . S
C2520 C2519 1.358 . S
C2520 H2523 0.930 . S
C2521 C2518 1.348 . S
C2521 C2519 1.356 . S
H2522 C2516 0.930 . S
H2523 C2520 0.930 . S
O2524 Li2464 1.956 . S
O2524 Li2465 1.970 . S
O2524 Li2466 1.961 . S
O2524 C2468 1.325 . S
O2525 Li2464 1.970 . S
O2525 Li2465 1.956 . S
O2525 Li2467 1.961 . S
O2525 C2474 1.325 . S
O2526 Li2464 1.961 . S
O2526 Li2466 1.956 . S
O2526 Li2467 1.970 . S
O2526 C2496 1.325 . S
O2527 Li2465 1.961 . S
O2527 Li2466 1.970 . S
O2527 Li2467 1.956 . S
O2527 C2502 1.325 . S
H2528 C2470 0.929 . S
H2529 C2471 0.930 . S
H2530 C2472 0.930 . S
H2531 C2473 0.930 . S
H2532 C2475 0.930 . S
H2533 C2477 0.929 . S
H2534 C2478 0.930 . S
H2535 C2479 0.930 . S
H2536 C2482 0.930 . S
H2537 C2485 0.929 . S
H2538 C2490 0.929 . S
H2539 C2491 0.930 . S
H2540 C2498 0.929 . S
H2541 C2499 0.930 . S
H2542 C2500 0.930 . S
H2543 C2501 0.930 . S
H2544 C2503 0.929 . S
H2545 C2504 0.930 . S
H2546 C2505 0.930 . S
H2547 C2506 0.930 . S
H2548 C2510 0.929 . S
H2549 C2512 0.930 . S
H2550 C2518 0.929 . S
H2551 C2519 0.930 . S
Li2552 N2569 1.990 . S
Li2552 O2612 1.956 . S
Li2552 O2613 1.970 . S
Li2552 O2614 1.961 . S
Li2553 N2577 1.990 . S
Li2553 O2612 1.970 . S
Li2553 O2613 1.956 . S
Li2553 O2615 1.961 . S
Li2554 N2599 1.990 . S
Li2554 O2612 1.961 . S
Li2554 O2614 1.956 . S
Li2554 O2615 1.970 . S
Li2555 N2605 1.990 . S
Li2555 O2613 1.961 . S
Li2555 O2614 1.970 . S
Li2555 O2615 1.956 . S
C2556 C2558 1.348 . S
C2556 C2559 1.356 . S
C2556 O2612 1.325 . S
N2557 C2560 1.314 . S
N2557 C2561 1.279 . S
C2558 C2556 1.348 . S
C2558 C2560 1.353 . S
C2558 H2616 0.929 . S
C2559 C2556 1.356 . S
C2559 C2561 1.358 . S
C2559 H2617 0.930 . S
C2560 N2557 1.314 . S
C2560 C2558 1.353 . S
C2560 H2618 0.930 . S
C2561 N2557 1.279 . S
C2561 C2559 1.358 . S
C2561 H2619 0.930 . S
C2562 C2565 1.348 . S
C2562 C2566 1.356 . S
C2562 O2613 1.325 . S
C2563 N2564 1.279 . S
C2563 C2566 1.358 . S
C2563 H2620 0.930 . S
N2564 C2563 1.279 . S
N2564 C2567 1.314 . S
C2565 C2562 1.348 . S
C2565 C2567 1.353 . S
C2565 H2621 0.929 . S
C2566 C2562 1.356 . S
C2566 C2563 1.358 . S
C2566 H2622 0.930 . S
C2567 N2564 1.314 . S
C2567 C2565 1.353 . S
C2567 H2623 0.930 . S
C2568 N2569 1.314 . S
C2568 C2573 1.353 . S
C2568 H2574 0.930 . S
N2569 Li2552 1.990 . S
N2569 C2568 1.314 . S
N2569 C2571 1.279 . S
C2570 C2571 1.358 . S
C2570 C2572 1.356 . S
C2570 H2624 0.930 . S
C2571 N2569 1.279 . S
C2571 C2570 1.358 . S
C2571 H2575 0.930 . S
C2572 C2570 1.356 . S
C2572 C2573 1.348 . S
C2573 C2568 1.353 . S
C2573 C2572 1.348 . S
C2573 H2625 0.929 . S
H2574 C2568 0.930 . S
H2575 C2571 0.930 . S
C2576 N2577 1.314 . S
C2576 C2578 1.353 . S
C2576 H2582 0.930 . S
N2577 Li2553 1.990 . S
N2577 C2576 1.314 . S
N2577 C2580 1.279 . S
C2578 C2576 1.353 . S
C2578 C2581 1.348 . S
C2578 H2626 0.929 . S
C2579 C2580 1.358 . S
C2579 C2581 1.356 . S
C2579 H2627 0.930 . S
C2580 N2577 1.279 . S
C2580 C2579 1.358 . S
C2580 H2583 0.930 . S
C2581 C2578 1.348 . S
C2581 C2579 1.356 . S
H2582 C2576 0.930 . S
H2583 C2580 0.930 . S
C2584 C2586 1.348 . S
C2584 C2587 1.356 . S
C2584 O2614 1.325 . S
N2585 C2588 1.314 . S
N2585 C2589 1.279 . S
C2586 C2584 1.348 . S
C2586 C2588 1.353 . S
C2586 H2628 0.929 . S
C2587 C2584 1.356 . S
C2587 C2589 1.358 . S
C2587 H2629 0.930 . S
C2588 N2585 1.314 . S
C2588 C2586 1.353 . S
C2588 H2630 0.930 . S
C2589 N2585 1.279 . S
C2589 C2587 1.358 . S
C2589 H2631 0.930 . S
C2590 C2591 1.348 . S
C2590 C2592 1.356 . S
C2590 O2615 1.325 . S
C2591 C2590 1.348 . S
C2591 C2593 1.353 . S
C2591 H2632 0.929 . S
C2592 C2590 1.356 . S
C2592 C2594 1.358 . S
C2592 H2633 0.930 . S
C2593 C2591 1.353 . S
C2593 N2595 1.314 . S
C2593 H2634 0.930 . S
C2594 C2592 1.358 . S
C2594 N2595 1.279 . S
C2594 H2635 0.930 . S
N2595 C2593 1.314 . S
N2595 C2594 1.279 . S
C2596 C2598 1.353 . S
C2596 N2599 1.314 . S
C2596 H2602 0.930 . S
C2597 N2599 1.279 . S
C2597 C2600 1.358 . S
C2597 H2603 0.930 . S
C2598 C2596 1.353 . S
C2598 C2601 1.348 . S
C2598 H2636 0.929 . S
N2599 Li2554 1.990 . S
N2599 C2596 1.314 . S
N2599 C2597 1.279 . S
C2600 C2597 1.358 . S
C2600 C2601 1.356 . S
C2600 H2637 0.930 . S
C2601 C2598 1.348 . S
C2601 C2600 1.356 . S
H2602 C2596 0.930 . S
H2603 C2597 0.930 . S
C2604 N2605 1.314 . S
C2604 C2606 1.353 . S
C2604 H2610 0.930 . S
N2605 Li2555 1.990 . S
N2605 C2604 1.314 . S
N2605 C2608 1.279 . S
C2606 C2604 1.353 . S
C2606 C2609 1.348 . S
C2606 H2638 0.929 . S
C2607 C2608 1.358 . S
C2607 C2609 1.356 . S
C2607 H2639 0.930 . S
C2608 N2605 1.279 . S
C2608 C2607 1.358 . S
C2608 H2611 0.930 . S
C2609 C2606 1.348 . S
C2609 C2607 1.356 . S
H2610 C2604 0.930 . S
H2611 C2608 0.930 . S
O2612 Li2552 1.956 . S
O2612 Li2553 1.970 . S
O2612 Li2554 1.961 . S
O2612 C2556 1.325 . S
O2613 Li2552 1.970 . S
O2613 Li2553 1.956 . S
O2613 Li2555 1.961 . S
O2613 C2562 1.325 . S
O2614 Li2552 1.961 . S
O2614 Li2554 1.956 . S
O2614 Li2555 1.970 . S
O2614 C2584 1.325 . S
O2615 Li2553 1.961 . S
O2615 Li2554 1.970 . S
O2615 Li2555 1.956 . S
O2615 C2590 1.325 . S
H2616 C2558 0.929 . S
H2617 C2559 0.930 . S
H2618 C2560 0.930 . S
H2619 C2561 0.930 . S
H2620 C2563 0.930 . S
H2621 C2565 0.929 . S
H2622 C2566 0.930 . S
H2623 C2567 0.930 . S
H2624 C2570 0.930 . S
H2625 C2573 0.929 . S
H2626 C2578 0.929 . S
H2627 C2579 0.930 . S
H2628 C2586 0.929 . S
H2629 C2587 0.930 . S
H2630 C2588 0.930 . S
H2631 C2589 0.930 . S
H2632 C2591 0.929 . S
H2633 C2592 0.930 . S
H2634 C2593 0.930 . S
H2635 C2594 0.930 . S
H2636 C2598 0.929 . S
H2637 C2600 0.930 . S
H2638 C2606 0.929 . S
H2639 C2607 0.930 . S
Li2640 N2657 1.990 . S
Li2640 O2700 1.956 . S
Li2640 O2701 1.970 . S
Li2640 O2702 1.961 . S
Li2641 N2665 1.990 . S
Li2641 O2700 1.970 . S
Li2641 O2701 1.956 . S
Li2641 O2703 1.961 . S
Li2642 N2687 1.990 . S
Li2642 O2700 1.961 . S
Li2642 O2702 1.956 . S
Li2642 O2703 1.970 . S
Li2643 N2693 1.990 . S
Li2643 O2701 1.961 . S
Li2643 O2702 1.970 . S
Li2643 O2703 1.956 . S
C2644 C2646 1.348 . S
C2644 C2647 1.356 . S
C2644 O2700 1.325 . S
N2645 C2648 1.314 . S
N2645 C2649 1.279 . S
C2646 C2644 1.348 . S
C2646 C2648 1.353 . S
C2646 H2704 0.929 . S
C2647 C2644 1.356 . S
C2647 C2649 1.358 . S
C2647 H2705 0.930 . S
C2648 N2645 1.314 . S
C2648 C2646 1.353 . S
C2648 H2706 0.930 . S
C2649 N2645 1.279 . S
C2649 C2647 1.358 . S
C2649 H2707 0.930 . S
C2650 C2653 1.348 . S
C2650 C2654 1.356 . S
C2650 O2701 1.325 . S
C2651 N2652 1.279 . S
C2651 C2654 1.358 . S
C2651 H2708 0.930 . S
N2652 C2651 1.279 . S
N2652 C2655 1.314 . S
C2653 C2650 1.348 . S
C2653 C2655 1.353 . S
C2653 H2709 0.929 . S
C2654 C2650 1.356 . S
C2654 C2651 1.358 . S
C2654 H2710 0.930 . S
C2655 N2652 1.314 . S
C2655 C2653 1.353 . S
C2655 H2711 0.930 . S
C2656 N2657 1.314 . S
C2656 C2661 1.353 . S
C2656 H2662 0.930 . S
N2657 Li2640 1.990 . S
N2657 C2656 1.314 . S
N2657 C2659 1.279 . S
C2658 C2659 1.358 . S
C2658 C2660 1.356 . S
C2658 H2712 0.930 . S
C2659 N2657 1.279 . S
C2659 C2658 1.358 . S
C2659 H2663 0.930 . S
C2660 C2658 1.356 . S
C2660 C2661 1.348 . S
C2661 C2656 1.353 . S
C2661 C2660 1.348 . S
C2661 H2713 0.929 . S
H2662 C2656 0.930 . S
H2663 C2659 0.930 . S
C2664 N2665 1.314 . S
C2664 C2666 1.353 . S
C2664 H2670 0.930 . S
N2665 Li2641 1.990 . S
N2665 C2664 1.314 . S
N2665 C2668 1.279 . S
C2666 C2664 1.353 . S
C2666 C2669 1.348 . S
C2666 H2714 0.929 . S
C2667 C2668 1.358 . S
C2667 C2669 1.356 . S
C2667 H2715 0.930 . S
C2668 N2665 1.279 . S
C2668 C2667 1.358 . S
C2668 H2671 0.930 . S
C2669 C2666 1.348 . S
C2669 C2667 1.356 . S
H2670 C2664 0.930 . S
H2671 C2668 0.930 . S
C2672 C2674 1.348 . S
C2672 C2675 1.356 . S
C2672 O2702 1.325 . S
N2673 C2676 1.314 . S
N2673 C2677 1.279 . S
C2674 C2672 1.348 . S
C2674 C2676 1.353 . S
C2674 H2716 0.929 . S
C2675 C2672 1.356 . S
C2675 C2677 1.358 . S
C2675 H2717 0.930 . S
C2676 N2673 1.314 . S
C2676 C2674 1.353 . S
C2676 H2718 0.930 . S
C2677 N2673 1.279 . S
C2677 C2675 1.358 . S
C2677 H2719 0.930 . S
C2678 C2679 1.348 . S
C2678 C2680 1.356 . S
C2678 O2703 1.325 . S
C2679 C2678 1.348 . S
C2679 C2681 1.353 . S
C2679 H2720 0.929 . S
C2680 C2678 1.356 . S
C2680 C2682 1.358 . S
C2680 H2721 0.930 . S
C2681 C2679 1.353 . S
C2681 N2683 1.314 . S
C2681 H2722 0.930 . S
C2682 C2680 1.358 . S
C2682 N2683 1.279 . S
C2682 H2723 0.930 . S
N2683 C2681 1.314 . S
N2683 C2682 1.279 . S
C2684 C2686 1.353 . S
C2684 N2687 1.314 . S
C2684 H2690 0.930 . S
C2685 N2687 1.279 . S
C2685 C2688 1.358 . S
C2685 H2691 0.930 . S
C2686 C2684 1.353 . S
C2686 C2689 1.348 . S
C2686 H2724 0.929 . S
N2687 Li2642 1.990 . S
N2687 C2684 1.314 . S
N2687 C2685 1.279 . S
C2688 C2685 1.358 . S
C2688 C2689 1.356 . S
C2688 H2725 0.930 . S
C2689 C2686 1.348 . S
C2689 C2688 1.356 . S
H2690 C2684 0.930 . S
H2691 C2685 0.930 . S
C2692 N2693 1.314 . S
C2692 C2694 1.353 . S
C2692 H2698 0.930 . S
N2693 Li2643 1.990 . S
N2693 C2692 1.314 . S
N2693 C2696 1.279 . S
C2694 C2692 1.353 . S
C2694 C2697 1.348 . S
C2694 H2726 0.929 . S
C2695 C2696 1.358 . S
C2695 C2697 1.356 . S
C2695 H2727 0.930 . S
C2696 N2693 1.279 . S
C2696 C2695 1.358 . S
C2696 H2699 0.930 . S
C2697 C2694 1.348 . S
C2697 C2695 1.356 . S
H2698 C2692 0.930 . S
H2699 C2696 0.930 . S
O2700 Li2640 1.956 . S
O2700 Li2641 1.970 . S
O2700 Li2642 1.961 . S
O2700 C2644 1.325 . S
O2701 Li2640 1.970 . S
O2701 Li2641 1.956 . S
O2701 Li2643 1.961 . S
O2701 C2650 1.325 . S
O2702 Li2640 1.961 . S
O2702 Li2642 1.956 . S
O2702 Li2643 1.970 . S
O2702 C2672 1.325 . S
O2703 Li2641 1.961 . S
O2703 Li2642 1.970 . S
O2703 Li2643 1.956 . S
O2703 C2678 1.325 . S
H2704 C2646 0.929 . S
H2705 C2647 0.930 . S
H2706 C2648 0.930 . S
H2707 C2649 0.930 . S
H2708 C2651 0.930 . S
H2709 C2653 0.929 . S
H2710 C2654 0.930 . S
H2711 C2655 0.930 . S
H2712 C2658 0.930 . S
H2713 C2661 0.929 . S
H2714 C2666 0.929 . S
H2715 C2667 0.930 . S
H2716 C2674 0.929 . S
H2717 C2675 0.930 . S
H2718 C2676 0.930 . S
H2719 C2677 0.930 . S
H2720 C2679 0.929 . S
H2721 C2680 0.930 . S
H2722 C2681 0.930 . S
H2723 C2682 0.930 . S
H2724 C2686 0.929 . S
H2725 C2688 0.930 . S
H2726 C2694 0.929 . S
H2727 C2695 0.930 . S
Li2728 N2745 1.990 . S
Li2728 O2788 1.956 . S
Li2728 O2789 1.970 . S
Li2728 O2790 1.961 . S
Li2729 N2753 1.990 . S
Li2729 O2788 1.970 . S
Li2729 O2789 1.956 . S
Li2729 O2791 1.961 . S
Li2730 N2775 1.990 . S
Li2730 O2788 1.961 . S
Li2730 O2790 1.956 . S
Li2730 O2791 1.970 . S
Li2731 N2781 1.990 . S
Li2731 O2789 1.961 . S
Li2731 O2790 1.970 . S
Li2731 O2791 1.956 . S
C2732 C2734 1.348 . S
C2732 C2735 1.356 . S
C2732 O2788 1.325 . S
N2733 C2736 1.314 . S
N2733 C2737 1.279 . S
C2734 C2732 1.348 . S
C2734 C2736 1.353 . S
C2734 H2792 0.929 . S
C2735 C2732 1.356 . S
C2735 C2737 1.358 . S
C2735 H2793 0.930 . S
C2736 N2733 1.314 . S
C2736 C2734 1.353 . S
C2736 H2794 0.930 . S
C2737 N2733 1.279 . S
C2737 C2735 1.358 . S
C2737 H2795 0.930 . S
C2738 C2741 1.348 . S
C2738 C2742 1.356 . S
C2738 O2789 1.325 . S
C2739 N2740 1.279 . S
C2739 C2742 1.358 . S
C2739 H2796 0.930 . S
N2740 C2739 1.279 . S
N2740 C2743 1.314 . S
C2741 C2738 1.348 . S
C2741 C2743 1.353 . S
C2741 H2797 0.929 . S
C2742 C2738 1.356 . S
C2742 C2739 1.358 . S
C2742 H2798 0.930 . S
C2743 N2740 1.314 . S
C2743 C2741 1.353 . S
C2743 H2799 0.930 . S
C2744 N2745 1.314 . S
C2744 C2749 1.353 . S
C2744 H2750 0.930 . S
N2745 Li2728 1.990 . S
N2745 C2744 1.314 . S
N2745 C2747 1.279 . S
C2746 C2747 1.358 . S
C2746 C2748 1.356 . S
C2746 H2800 0.930 . S
C2747 N2745 1.279 . S
C2747 C2746 1.358 . S
C2747 H2751 0.930 . S
C2748 C2746 1.356 . S
C2748 C2749 1.348 . S
C2749 C2744 1.353 . S
C2749 C2748 1.348 . S
C2749 H2801 0.929 . S
H2750 C2744 0.930 . S
H2751 C2747 0.930 . S
C2752 N2753 1.314 . S
C2752 C2754 1.353 . S
C2752 H2758 0.930 . S
N2753 Li2729 1.990 . S
N2753 C2752 1.314 . S
N2753 C2756 1.279 . S
C2754 C2752 1.353 . S
C2754 C2757 1.348 . S
C2754 H2802 0.929 . S
C2755 C2756 1.358 . S
C2755 C2757 1.356 . S
C2755 H2803 0.930 . S
C2756 N2753 1.279 . S
C2756 C2755 1.358 . S
C2756 H2759 0.930 . S
C2757 C2754 1.348 . S
C2757 C2755 1.356 . S
H2758 C2752 0.930 . S
H2759 C2756 0.930 . S
C2760 C2762 1.348 . S
C2760 C2763 1.356 . S
C2760 O2790 1.325 . S
N2761 C2764 1.314 . S
N2761 C2765 1.279 . S
C2762 C2760 1.348 . S
C2762 C2764 1.353 . S
C2762 H2804 0.929 . S
C2763 C2760 1.356 . S
C2763 C2765 1.358 . S
C2763 H2805 0.930 . S
C2764 N2761 1.314 . S
C2764 C2762 1.353 . S
C2764 H2806 0.930 . S
C2765 N2761 1.279 . S
C2765 C2763 1.358 . S
C2765 H2807 0.930 . S
C2766 C2767 1.348 . S
C2766 C2768 1.356 . S
C2766 O2791 1.325 . S
C2767 C2766 1.348 . S
C2767 C2769 1.353 . S
C2767 H2808 0.929 . S
C2768 C2766 1.356 . S
C2768 C2770 1.358 . S
C2768 H2809 0.930 . S
C2769 C2767 1.353 . S
C2769 N2771 1.314 . S
C2769 H2810 0.930 . S
C2770 C2768 1.358 . S
C2770 N2771 1.279 . S
C2770 H2811 0.930 . S
N2771 C2769 1.314 . S
N2771 C2770 1.279 . S
C2772 C2774 1.353 . S
C2772 N2775 1.314 . S
C2772 H2778 0.930 . S
C2773 N2775 1.279 . S
C2773 C2776 1.358 . S
C2773 H2779 0.930 . S
C2774 C2772 1.353 . S
C2774 C2777 1.348 . S
C2774 H2812 0.929 . S
N2775 Li2730 1.990 . S
N2775 C2772 1.314 . S
N2775 C2773 1.279 . S
C2776 C2773 1.358 . S
C2776 C2777 1.356 . S
C2776 H2813 0.930 . S
C2777 C2774 1.348 . S
C2777 C2776 1.356 . S
H2778 C2772 0.930 . S
H2779 C2773 0.930 . S
C2780 N2781 1.314 . S
C2780 C2782 1.353 . S
C2780 H2786 0.930 . S
N2781 Li2731 1.990 . S
N2781 C2780 1.314 . S
N2781 C2784 1.279 . S
C2782 C2780 1.353 . S
C2782 C2785 1.348 . S
C2782 H2814 0.929 . S
C2783 C2784 1.358 . S
C2783 C2785 1.356 . S
C2783 H2815 0.930 . S
C2784 N2781 1.279 . S
C2784 C2783 1.358 . S
C2784 H2787 0.930 . S
C2785 C2782 1.348 . S
C2785 C2783 1.356 . S
H2786 C2780 0.930 . S
H2787 C2784 0.930 . S
O2788 Li2728 1.956 . S
O2788 Li2729 1.970 . S
O2788 Li2730 1.961 . S
O2788 C2732 1.325 . S
O2789 Li2728 1.970 . S
O2789 Li2729 1.956 . S
O2789 Li2731 1.961 . S
O2789 C2738 1.325 . S
O2790 Li2728 1.961 . S
O2790 Li2730 1.956 . S
O2790 Li2731 1.970 . S
O2790 C2760 1.325 . S
O2791 Li2729 1.961 . S
O2791 Li2730 1.970 . S
O2791 Li2731 1.956 . S
O2791 C2766 1.325 . S
H2792 C2734 0.929 . S
H2793 C2735 0.930 . S
H2794 C2736 0.930 . S
H2795 C2737 0.930 . S
H2796 C2739 0.930 . S
H2797 C2741 0.929 . S
H2798 C2742 0.930 . S
H2799 C2743 0.930 . S
H2800 C2746 0.930 . S
H2801 C2749 0.929 . S
H2802 C2754 0.929 . S
H2803 C2755 0.930 . S
H2804 C2762 0.929 . S
H2805 C2763 0.930 . S
H2806 C2764 0.930 . S
H2807 C2765 0.930 . S
H2808 C2767 0.929 . S
H2809 C2768 0.930 . S
H2810 C2769 0.930 . S
H2811 C2770 0.930 . S
H2812 C2774 0.929 . S
H2813 C2776 0.930 . S
H2814 C2782 0.929 . S
H2815 C2783 0.930 . S
H2816 C2822 0.930 . S
H2817 C2825 0.930 . S
H2818 C2826 0.930 . S
H2819 C2827 0.930 . S
H2820 C2830 0.930 . S
H2821 C2831 0.930 . S
C2822 H2816 0.930 . S
C2822 C2823 1.355 . S
C2822 C2824 1.415 . S
C2823 C2822 1.355 . S
C2823 C2825 1.419 . S
C2824 C2822 1.415 . S
C2824 C2829 1.425 . S
C2824 C2831 1.409 . S
C2825 H2817 0.930 . S
C2825 C2823 1.419 . S
C2825 C2826 1.362 . S
C2826 H2818 0.930 . S
C2826 C2825 1.362 . S
C2826 C2829 1.409 . S
C2827 H2819 0.930 . S
C2827 C2828 1.355 . S
C2827 C2829 1.415 . S
C2828 C2827 1.355 . S
C2828 C2830 1.419 . S
C2829 C2824 1.425 . S
C2829 C2826 1.409 . S
C2829 C2827 1.415 . S
C2830 H2820 0.930 . S
C2830 C2828 1.419 . S
C2830 C2831 1.362 . S
C2831 H2821 0.930 . S
C2831 C2824 1.409 . S
C2831 C2830 1.362 . S
H2832 C2838 0.930 . S
H2833 C2841 0.930 . S
H2834 C2842 0.930 . S
H2835 C2843 0.930 . S
H2836 C2846 0.930 . S
H2837 C2847 0.930 . S
C2838 H2832 0.930 . S
C2838 C2839 1.355 . S
C2838 C2840 1.415 . S
C2839 C2838 1.355 . S
C2839 C2841 1.419 . S
C2840 C2838 1.415 . S
C2840 C2845 1.425 . S
C2840 C2847 1.409 . S
C2841 H2833 0.930 . S
C2841 C2839 1.419 . S
C2841 C2842 1.362 . S
C2842 H2834 0.930 . S
C2842 C2841 1.362 . S
C2842 C2845 1.409 . S
C2843 H2835 0.930 . S
C2843 C2844 1.355 . S
C2843 C2845 1.415 . S
C2844 C2843 1.355 . S
C2844 C2846 1.419 . S
C2845 C2840 1.425 . S
C2845 C2842 1.409 . S
C2845 C2843 1.415 . S
C2846 H2836 0.930 . S
C2846 C2844 1.419 . S
C2846 C2847 1.362 . S
C2847 H2837 0.930 . S
C2847 C2840 1.409 . S
C2847 C2846 1.362 . S
H2848 C2854 0.930 . S
H2849 C2857 0.930 . S
H2850 C2858 0.930 . S
H2851 C2859 0.930 . S
H2852 C2862 0.930 . S
H2853 C2863 0.930 . S
C2854 H2848 0.930 . S
C2854 C2855 1.355 . S
C2854 C2856 1.415 . S
C2855 C2854 1.355 . S
C2855 C2857 1.419 . S
C2856 C2854 1.415 . S
C2856 C2861 1.425 . S
C2856 C2863 1.409 . S
C2857 H2849 0.930 . S
C2857 C2855 1.419 . S
C2857 C2858 1.362 . S
C2858 H2850 0.930 . S
C2858 C2857 1.362 . S
C2858 C2861 1.409 . S
C2859 H2851 0.930 . S
C2859 C2860 1.355 . S
C2859 C2861 1.415 . S
C2860 C2859 1.355 . S
C2860 C2862 1.419 . S
C2861 C2856 1.425 . S
C2861 C2858 1.409 . S
C2861 C2859 1.415 . S
C2862 H2852 0.930 . S
C2862 C2860 1.419 . S
C2862 C2863 1.362 . S
C2863 H2853 0.930 . S
C2863 C2856 1.409 . S
C2863 C2862 1.362 . S
H2864 C2870 0.930 . S
H2865 C2873 0.930 . S
H2866 C2874 0.930 . S
H2867 C2875 0.930 . S
H2868 C2878 0.930 . S
H2869 C2879 0.930 . S
C2870 H2864 0.930 . S
C2870 C2871 1.355 . S
C2870 C2872 1.415 . S
C2871 C2870 1.355 . S
C2871 C2873 1.419 . S
C2872 C2870 1.415 . S
C2872 C2877 1.425 . S
C2872 C2879 1.409 . S
C2873 H2865 0.930 . S
C2873 C2871 1.419 . S
C2873 C2874 1.362 . S
C2874 H2866 0.930 . S
C2874 C2873 1.362 . S
C2874 C2877 1.409 . S
C2875 H2867 0.930 . S
C2875 C2876 1.355 . S
C2875 C2877 1.415 . S
C2876 C2875 1.355 . S
C2876 C2878 1.419 . S
C2877 C2872 1.425 . S
C2877 C2874 1.409 . S
C2877 C2875 1.415 . S
C2878 H2868 0.930 . S
C2878 C2876 1.419 . S
C2878 C2879 1.362 . S
C2879 H2869 0.930 . S
C2879 C2872 1.409 . S
C2879 C2878 1.362 . S
H2880 C2886 0.930 . S
H2881 C2889 0.930 . S
H2882 C2890 0.930 . S
H2883 C2891 0.930 . S
H2884 C2894 0.930 . S
H2885 C2895 0.930 . S
C2886 H2880 0.930 . S
C2886 C2887 1.355 . S
C2886 C2888 1.415 . S
C2887 C2886 1.355 . S
C2887 C2889 1.419 . S
C2888 C2886 1.415 . S
C2888 C2893 1.425 . S
C2888 C2895 1.409 . S
C2889 H2881 0.930 . S
C2889 C2887 1.419 . S
C2889 C2890 1.362 . S
C2890 H2882 0.930 . S
C2890 C2889 1.362 . S
C2890 C2893 1.409 . S
C2891 H2883 0.930 . S
C2891 C2892 1.355 . S
C2891 C2893 1.415 . S
C2892 C2891 1.355 . S
C2892 C2894 1.419 . S
C2893 C2888 1.425 . S
C2893 C2890 1.409 . S
C2893 C2891 1.415 . S
C2894 H2884 0.930 . S
C2894 C2892 1.419 . S
C2894 C2895 1.362 . S
C2895 H2885 0.930 . S
C2895 C2888 1.409 . S
C2895 C2894 1.362 . S
H2896 C2902 0.930 . S
H2897 C2905 0.930 . S
H2898 C2906 0.930 . S
H2899 C2907 0.930 . S
H2900 C2910 0.930 . S
H2901 C2911 0.930 . S
C2902 H2896 0.930 . S
C2902 C2903 1.355 . S
C2902 C2904 1.415 . S
C2903 C2902 1.355 . S
C2903 C2905 1.419 . S
C2904 C2902 1.415 . S
C2904 C2909 1.425 . S
C2904 C2911 1.409 . S
C2905 H2897 0.930 . S
C2905 C2903 1.419 . S
C2905 C2906 1.362 . S
C2906 H2898 0.930 . S
C2906 C2905 1.362 . S
C2906 C2909 1.409 . S
C2907 H2899 0.930 . S
C2907 C2908 1.355 . S
C2907 C2909 1.415 . S
C2908 C2907 1.355 . S
C2908 C2910 1.419 . S
C2909 C2904 1.425 . S
C2909 C2906 1.409 . S
C2909 C2907 1.415 . S
C2910 H2900 0.930 . S
C2910 C2908 1.419 . S
C2910 C2911 1.362 . S
C2911 H2901 0.930 . S
C2911 C2904 1.409 . S
C2911 C2910 1.362 . S
H2912 C2918 0.930 . S
H2913 C2921 0.930 . S
H2914 C2922 0.930 . S
H2915 C2923 0.930 . S
H2916 C2926 0.930 . S
H2917 C2927 0.930 . S
C2918 H2912 0.930 . S
C2918 C2919 1.355 . S
C2918 C2920 1.415 . S
C2919 C2918 1.355 . S
C2919 C2921 1.419 . S
C2920 C2918 1.415 . S
C2920 C2925 1.425 . S
C2920 C2927 1.409 . S
C2921 H2913 0.930 . S
C2921 C2919 1.419 . S
C2921 C2922 1.362 . S
C2922 H2914 0.930 . S
C2922 C2921 1.362 . S
C2922 C2925 1.409 . S
C2923 H2915 0.930 . S
C2923 C2924 1.355 . S
C2923 C2925 1.415 . S
C2924 C2923 1.355 . S
C2924 C2926 1.419 . S
C2925 C2920 1.425 . S
C2925 C2922 1.409 . S
C2925 C2923 1.415 . S
C2926 H2916 0.930 . S
C2926 C2924 1.419 . S
C2926 C2927 1.362 . S
C2927 H2917 0.930 . S
C2927 C2920 1.409 . S
C2927 C2926 1.362 . S
H2928 C2934 0.930 . S
H2929 C2937 0.930 . S
H2930 C2938 0.930 . S
H2931 C2939 0.930 . S
H2932 C2942 0.930 . S
H2933 C2943 0.930 . S
C2934 H2928 0.930 . S
C2934 C2935 1.355 . S
C2934 C2936 1.415 . S
C2935 C2934 1.355 . S
C2935 C2937 1.419 . S
C2936 C2934 1.415 . S
C2936 C2941 1.425 . S
C2936 C2943 1.409 . S
C2937 H2929 0.930 . S
C2937 C2935 1.419 . S
C2937 C2938 1.362 . S
C2938 H2930 0.930 . S
C2938 C2937 1.362 . S
C2938 C2941 1.409 . S
C2939 H2931 0.930 . S
C2939 C2940 1.355 . S
C2939 C2941 1.415 . S
C2940 C2939 1.355 . S
C2940 C2942 1.419 . S
C2941 C2936 1.425 . S
C2941 C2938 1.409 . S
C2941 C2939 1.415 . S
C2942 H2932 0.930 . S
C2942 C2940 1.419 . S
C2942 C2943 1.362 . S
C2943 H2933 0.930 . S
C2943 C2936 1.409 . S
C2943 C2942 1.362 . S
H2944 C2950 0.930 . S
H2945 C2953 0.930 . S
H2946 C2954 0.930 . S
H2947 C2955 0.930 . S
H2948 C2958 0.930 . S
H2949 C2959 0.930 . S
C2950 H2944 0.930 . S
C2950 C2951 1.355 . S
C2950 C2952 1.415 . S
C2951 C2950 1.355 . S
C2951 C2953 1.419 . S
C2952 C2950 1.415 . S
C2952 C2957 1.425 . S
C2952 C2959 1.409 . S
C2953 H2945 0.930 . S
C2953 C2951 1.419 . S
C2953 C2954 1.362 . S
C2954 H2946 0.930 . S
C2954 C2953 1.362 . S
C2954 C2957 1.409 . S
C2955 H2947 0.930 . S
C2955 C2956 1.355 . S
C2955 C2957 1.415 . S
C2956 C2955 1.355 . S
C2956 C2958 1.419 . S
C2957 C2952 1.425 . S
C2957 C2954 1.409 . S
C2957 C2955 1.415 . S
C2958 H2948 0.930 . S
C2958 C2956 1.419 . S
C2958 C2959 1.362 . S
C2959 H2949 0.930 . S
C2959 C2952 1.409 . S
C2959 C2958 1.362 . S
H2960 C2966 0.930 . S
H2961 C2969 0.930 . S
H2962 C2970 0.930 . S
H2963 C2971 0.930 . S
H2964 C2974 0.930 . S
H2965 C2975 0.930 . S
C2966 H2960 0.930 . S
C2966 C2967 1.355 . S
C2966 C2968 1.415 . S
C2967 C2966 1.355 . S
C2967 C2969 1.419 . S
C2968 C2966 1.415 . S
C2968 C2973 1.425 . S
C2968 C2975 1.409 . S
C2969 H2961 0.930 . S
C2969 C2967 1.419 . S
C2969 C2970 1.362 . S
C2970 H2962 0.930 . S
C2970 C2969 1.362 . S
C2970 C2973 1.409 . S
C2971 H2963 0.930 . S
C2971 C2972 1.355 . S
C2971 C2973 1.415 . S
C2972 C2971 1.355 . S
C2972 C2974 1.419 . S
C2973 C2968 1.425 . S
C2973 C2970 1.409 . S
C2973 C2971 1.415 . S
C2974 H2964 0.930 . S
C2974 C2972 1.419 . S
C2974 C2975 1.362 . S
C2975 H2965 0.930 . S
C2975 C2968 1.409 . S
C2975 C2974 1.362 . S
H2976 C2982 0.930 . S
H2977 C2985 0.930 . S
H2978 C2986 0.930 . S
H2979 C2987 0.930 . S
H2980 C2990 0.930 . S
H2981 C2991 0.930 . S
C2982 H2976 0.930 . S
C2982 C2983 1.355 . S
C2982 C2984 1.415 . S
C2983 C2982 1.355 . S
C2983 C2985 1.419 . S
C2984 C2982 1.415 . S
C2984 C2989 1.425 . S
C2984 C2991 1.409 . S
C2985 H2977 0.930 . S
C2985 C2983 1.419 . S
C2985 C2986 1.362 . S
C2986 H2978 0.930 . S
C2986 C2985 1.362 . S
C2986 C2989 1.409 . S
C2987 H2979 0.930 . S
C2987 C2988 1.355 . S
C2987 C2989 1.415 . S
C2988 C2987 1.355 . S
C2988 C2990 1.419 . S
C2989 C2984 1.425 . S
C2989 C2986 1.409 . S
C2989 C2987 1.415 . S
C2990 H2980 0.930 . S
C2990 C2988 1.419 . S
C2990 C2991 1.362 . S
C2991 H2981 0.930 . S
C2991 C2984 1.409 . S
C2991 C2990 1.362 . S
H2992 C2998 0.930 . S
H2993 C3001 0.930 . S
H2994 C3002 0.930 . S
H2995 C3003 0.930 . S
H2996 C3006 0.930 . S
H2997 C3007 0.930 . S
C2998 H2992 0.930 . S
C2998 C2999 1.355 . S
C2998 C3000 1.415 . S
C2999 C2998 1.355 . S
C2999 C3001 1.419 . S
C3000 C2998 1.415 . S
C3000 C3005 1.425 . S
C3000 C3007 1.409 . S
C3001 H2993 0.930 . S
C3001 C2999 1.419 . S
C3001 C3002 1.362 . S
C3002 H2994 0.930 . S
C3002 C3001 1.362 . S
C3002 C3005 1.409 . S
C3003 H2995 0.930 . S
C3003 C3004 1.355 . S
C3003 C3005 1.415 . S
C3004 C3003 1.355 . S
C3004 C3006 1.419 . S
C3005 C3000 1.425 . S
C3005 C3002 1.409 . S
C3005 C3003 1.415 . S
C3006 H2996 0.930 . S
C3006 C3004 1.419 . S
C3006 C3007 1.362 . S
C3007 H2997 0.930 . S
C3007 C3000 1.409 . S
C3007 C3006 1.362 . S
H3008 C3014 0.930 . S
H3009 C3017 0.930 . S
H3010 C3018 0.930 . S
H3011 C3019 0.930 . S
H3012 C3022 0.930 . S
H3013 C3023 0.930 . S
C3014 H3008 0.930 . S
C3014 C3015 1.355 . S
C3014 C3016 1.415 . S
C3015 C3014 1.355 . S
C3015 C3017 1.419 . S
C3016 C3014 1.415 . S
C3016 C3021 1.425 . S
C3016 C3023 1.409 . S
C3017 H3009 0.930 . S
C3017 C3015 1.419 . S
C3017 C3018 1.362 . S
C3018 H3010 0.930 . S
C3018 C3017 1.362 . S
C3018 C3021 1.409 . S
C3019 H3011 0.930 . S
C3019 C3020 1.355 . S
C3019 C3021 1.415 . S
C3020 C3019 1.355 . S
C3020 C3022 1.419 . S
C3021 C3016 1.425 . S
C3021 C3018 1.409 . S
C3021 C3019 1.415 . S
C3022 H3012 0.930 . S
C3022 C3020 1.419 . S
C3022 C3023 1.362 . S
C3023 H3013 0.930 . S
C3023 C3016 1.409 . S
C3023 C3022 1.362 . S
H3024 C3030 0.930 . S
H3025 C3033 0.930 . S
H3026 C3034 0.930 . S
H3027 C3035 0.930 . S
H3028 C3038 0.930 . S
H3029 C3039 0.930 . S
C3030 H3024 0.930 . S
C3030 C3031 1.355 . S
C3030 C3032 1.415 . S
C3031 C3030 1.355 . S
C3031 C3033 1.419 . S
C3032 C3030 1.415 . S
C3032 C3037 1.425 . S
C3032 C3039 1.409 . S
C3033 H3025 0.930 . S
C3033 C3031 1.419 . S
C3033 C3034 1.362 . S
C3034 H3026 0.930 . S
C3034 C3033 1.362 . S
C3034 C3037 1.409 . S
C3035 H3027 0.930 . S
C3035 C3036 1.355 . S
C3035 C3037 1.415 . S
C3036 C3035 1.355 . S
C3036 C3038 1.419 . S
C3037 C3032 1.425 . S
C3037 C3034 1.409 . S
C3037 C3035 1.415 . S
C3038 H3028 0.930 . S
C3038 C3036 1.419 . S
C3038 C3039 1.362 . S
C3039 H3029 0.930 . S
C3039 C3032 1.409 . S
C3039 C3038 1.362 . S
H3040 C3046 0.930 . S
H3041 C3049 0.930 . S
H3042 C3050 0.930 . S
H3043 C3051 0.930 . S
H3044 C3054 0.930 . S
H3045 C3055 0.930 . S
C3046 H3040 0.930 . S
C3046 C3047 1.355 . S
C3046 C3048 1.415 . S
C3047 C3046 1.355 . S
C3047 C3049 1.419 . S
C3048 C3046 1.415 . S
C3048 C3053 1.425 . S
C3048 C3055 1.409 . S
C3049 H3041 0.930 . S
C3049 C3047 1.419 . S
C3049 C3050 1.362 . S
C3050 H3042 0.930 . S
C3050 C3049 1.362 . S
C3050 C3053 1.409 . S
C3051 H3043 0.930 . S
C3051 C3052 1.355 . S
C3051 C3053 1.415 . S
C3052 C3051 1.355 . S
C3052 C3054 1.419 . S
C3053 C3048 1.425 . S
C3053 C3050 1.409 . S
C3053 C3051 1.415 . S
C3054 H3044 0.930 . S
C3054 C3052 1.419 . S
C3054 C3055 1.362 . S
C3055 H3045 0.930 . S
C3055 C3048 1.409 . S
C3055 C3054 1.362 . S
H3056 C3062 0.930 . S
H3057 C3065 0.930 . S
H3058 C3066 0.930 . S
H3059 C3067 0.930 . S
H3060 C3070 0.930 . S
H3061 C3071 0.930 . S
C3062 H3056 0.930 . S
C3062 C3063 1.355 . S
C3062 C3064 1.415 . S
C3063 C3062 1.355 . S
C3063 C3065 1.419 . S
C3064 C3062 1.415 . S
C3064 C3069 1.425 . S
C3064 C3071 1.409 . S
C3065 H3057 0.930 . S
C3065 C3063 1.419 . S
C3065 C3066 1.362 . S
C3066 H3058 0.930 . S
C3066 C3065 1.362 . S
C3066 C3069 1.409 . S
C3067 H3059 0.930 . S
C3067 C3068 1.355 . S
C3067 C3069 1.415 . S
C3068 C3067 1.355 . S
C3068 C3070 1.419 . S
C3069 C3064 1.425 . S
C3069 C3066 1.409 . S
C3069 C3067 1.415 . S
C3070 H3060 0.930 . S
C3070 C3068 1.419 . S
C3070 C3071 1.362 . S
C3071 H3061 0.930 . S
C3071 C3064 1.409 . S
C3071 C3070 1.362 . S
H3072 C3078 0.930 . S
H3073 C3081 0.930 . S
H3074 C3082 0.930 . S
H3075 C3083 0.930 . S
H3076 C3086 0.930 . S
H3077 C3087 0.930 . S
C3078 H3072 0.930 . S
C3078 C3079 1.355 . S
C3078 C3080 1.415 . S
C3079 C3078 1.355 . S
C3079 C3081 1.419 . S
C3080 C3078 1.415 . S
C3080 C3085 1.425 1_455 S
C3080 C3087 1.409 1_455 S
C3081 H3073 0.930 . S
C3081 C3079 1.419 . S
C3081 C3082 1.362 . S
C3082 H3074 0.930 . S
C3082 C3081 1.362 . S
C3082 C3085 1.409 1_455 S
C3083 H3075 0.930 . S
C3083 C3084 1.355 . S
C3083 C3085 1.415 . S
C3084 C3083 1.355 . S
C3084 C3086 1.419 . S
C3085 C3080 1.425 1_655 S
C3085 C3082 1.409 1_655 S
C3085 C3083 1.415 . S
C3086 H3076 0.930 . S
C3086 C3084 1.419 . S
C3086 C3087 1.362 . S
C3087 H3077 0.930 . S
C3087 C3080 1.409 1_655 S
C3087 C3086 1.362 . S
H3088 C3094 0.930 . S
H3089 C3097 0.930 . S
H3090 C3098 0.930 . S
H3091 C3099 0.930 . S
H3092 C3102 0.930 . S
H3093 C3103 0.930 . S
C3094 H3088 0.930 . S
C3094 C3095 1.355 . S
C3094 C3096 1.415 . S
C3095 C3094 1.355 . S
C3095 C3097 1.419 . S
C3096 C3094 1.415 . S
C3096 C3101 1.425 . S
C3096 C3103 1.409 . S
C3097 H3089 0.930 . S
C3097 C3095 1.419 . S
C3097 C3098 1.362 . S
C3098 H3090 0.930 . S
C3098 C3097 1.362 . S
C3098 C3101 1.409 . S
C3099 H3091 0.930 . S
C3099 C3100 1.355 . S
C3099 C3101 1.415 . S
C3100 C3099 1.355 . S
C3100 C3102 1.419 . S
C3101 C3096 1.425 . S
C3101 C3098 1.409 . S
C3101 C3099 1.415 . S
C3102 H3092 0.930 . S
C3102 C3100 1.419 . S
C3102 C3103 1.362 . S
C3103 H3093 0.930 . S
C3103 C3096 1.409 . S
C3103 C3102 1.362 . S
H3104 C3110 0.930 . S
H3105 C3113 0.930 . S
H3106 C3114 0.930 . S
H3107 C3115 0.930 . S
H3108 C3118 0.930 . S
H3109 C3119 0.930 . S
C3110 H3104 0.930 . S
C3110 C3111 1.355 . S
C3110 C3112 1.415 . S
C3111 C3110 1.355 . S
C3111 C3113 1.419 . S
C3112 C3110 1.415 . S
C3112 C3117 1.425 . S
C3112 C3119 1.409 . S
C3113 H3105 0.930 . S
C3113 C3111 1.419 . S
C3113 C3114 1.362 . S
C3114 H3106 0.930 . S
C3114 C3113 1.362 . S
C3114 C3117 1.409 . S
C3115 H3107 0.930 . S
C3115 C3116 1.355 . S
C3115 C3117 1.415 . S
C3116 C3115 1.355 . S
C3116 C3118 1.419 . S
C3117 C3112 1.425 . S
C3117 C3114 1.409 . S
C3117 C3115 1.415 . S
C3118 H3108 0.930 . S
C3118 C3116 1.419 . S
C3118 C3119 1.362 . S
C3119 H3109 0.930 . S
C3119 C3112 1.409 . S
C3119 C3118 1.362 . S
H3120 C3126 0.930 . S
H3121 C3129 0.930 . S
H3122 C3130 0.930 . S
H3123 C3131 0.930 . S
H3124 C3134 0.930 . S
H3125 C3135 0.930 . S
C3126 H3120 0.930 . S
C3126 C3127 1.355 . S
C3126 C3128 1.415 . S
C3127 C3126 1.355 . S
C3127 C3129 1.419 . S
C3128 C3126 1.415 . S
C3128 C3133 1.425 . S
C3128 C3135 1.409 . S
C3129 H3121 0.930 . S
C3129 C3127 1.419 . S
C3129 C3130 1.362 . S
C3130 H3122 0.930 . S
C3130 C3129 1.362 . S
C3130 C3133 1.409 . S
C3131 H3123 0.930 . S
C3131 C3132 1.355 . S
C3131 C3133 1.415 . S
C3132 C3131 1.355 . S
C3132 C3134 1.419 . S
C3133 C3128 1.425 . S
C3133 C3130 1.409 . S
C3133 C3131 1.415 . S
C3134 H3124 0.930 . S
C3134 C3132 1.419 . S
C3134 C3135 1.362 . S
C3135 H3125 0.930 . S
C3135 C3128 1.409 . S
C3135 C3134 1.362 . S
H3136 C3142 0.930 . S
H3137 C3145 0.930 . S
H3138 C3146 0.930 . S
H3139 C3147 0.930 . S
H3140 C3150 0.930 . S
H3141 C3151 0.930 . S
C3142 H3136 0.930 . S
C3142 C3143 1.355 . S
C3142 C3144 1.415 . S
C3143 C3142 1.355 . S
C3143 C3145 1.419 . S
C3144 C3142 1.415 . S
C3144 C3149 1.425 1_655 S
C3144 C3151 1.409 1_655 S
C3145 H3137 0.930 . S
C3145 C3143 1.419 . S
C3145 C3146 1.362 . S
C3146 H3138 0.930 . S
C3146 C3145 1.362 . S
C3146 C3149 1.409 1_655 S
C3147 H3139 0.930 . S
C3147 C3148 1.355 . S
C3147 C3149 1.415 . S
C3148 C3147 1.355 . S
C3148 C3150 1.419 . S
C3149 C3144 1.425 1_455 S
C3149 C3146 1.409 1_455 S
C3149 C3147 1.415 . S
C3150 H3140 0.930 . S
C3150 C3148 1.419 . S
C3150 C3151 1.362 . S
C3151 H3141 0.930 . S
C3151 C3144 1.409 1_455 S
C3151 C3150 1.362 . S
H3152 C3158 0.930 . S
H3153 C3161 0.930 . S
H3154 C3162 0.930 . S
H3155 C3163 0.930 . S
H3156 C3166 0.930 . S
H3157 C3167 0.930 . S
C3158 H3152 0.930 . S
C3158 C3159 1.355 . S
C3158 C3160 1.415 . S
C3159 C3158 1.355 . S
C3159 C3161 1.419 . S
C3160 C3158 1.415 . S
C3160 C3165 1.425 . S
C3160 C3167 1.409 . S
C3161 H3153 0.930 . S
C3161 C3159 1.419 . S
C3161 C3162 1.362 . S
C3162 H3154 0.930 . S
C3162 C3161 1.362 . S
C3162 C3165 1.409 . S
C3163 H3155 0.930 . S
C3163 C3164 1.355 . S
C3163 C3165 1.415 . S
C3164 C3163 1.355 . S
C3164 C3166 1.419 . S
C3165 C3160 1.425 . S
C3165 C3162 1.409 . S
C3165 C3163 1.415 . S
C3166 H3156 0.930 . S
C3166 C3164 1.419 . S
C3166 C3167 1.362 . S
C3167 H3157 0.930 . S
C3167 C3160 1.409 . S
C3167 C3166 1.362 . S
H3168 C3174 0.930 . S
H3169 C3177 0.930 . S
H3170 C3178 0.930 . S
H3171 C3179 0.930 . S
H3172 C3182 0.930 . S
H3173 C3183 0.930 . S
C3174 H3168 0.930 . S
C3174 C3175 1.355 . S
C3174 C3176 1.415 . S
C3175 C3174 1.355 . S
C3175 C3177 1.419 . S
C3176 C3174 1.415 . S
C3176 C3181 1.425 . S
C3176 C3183 1.409 . S
C3177 H3169 0.930 . S
C3177 C3175 1.419 . S
C3177 C3178 1.362 . S
C3178 H3170 0.930 . S
C3178 C3177 1.362 . S
C3178 C3181 1.409 . S
C3179 H3171 0.930 . S
C3179 C3180 1.355 . S
C3179 C3181 1.415 . S
C3180 C3179 1.355 . S
C3180 C3182 1.419 . S
C3181 C3176 1.425 . S
C3181 C3178 1.409 . S
C3181 C3179 1.415 . S
C3182 H3172 0.930 . S
C3182 C3180 1.419 . S
C3182 C3183 1.362 . S
C3183 H3173 0.930 . S
C3183 C3176 1.409 . S
C3183 C3182 1.362 . S
H3184 C3190 0.930 . S
H3185 C3193 0.930 . S
H3186 C3194 0.930 . S
H3187 C3195 0.930 . S
H3188 C3198 0.930 . S
H3189 C3199 0.930 . S
C3190 H3184 0.930 . S
C3190 C3191 1.355 . S
C3190 C3192 1.415 . S
C3191 C3190 1.355 . S
C3191 C3193 1.419 . S
C3192 C3190 1.415 . S
C3192 C3197 1.425 . S
C3192 C3199 1.409 . S
C3193 H3185 0.930 . S
C3193 C3191 1.419 . S
C3193 C3194 1.362 . S
C3194 H3186 0.930 . S
C3194 C3193 1.362 . S
C3194 C3197 1.409 . S
C3195 H3187 0.930 . S
C3195 C3196 1.355 . S
C3195 C3197 1.415 . S
C3196 C3195 1.355 . S
C3196 C3198 1.419 . S
C3197 C3192 1.425 . S
C3197 C3194 1.409 . S
C3197 C3195 1.415 . S
C3198 H3188 0.930 . S
C3198 C3196 1.419 . S
C3198 C3199 1.362 . S
C3199 H3189 0.930 . S
C3199 C3192 1.409 . S
C3199 C3198 1.362 . S
H3200 C3206 0.930 . S
H3201 C3209 0.930 . S
H3202 C3210 0.930 . S
H3203 C3211 0.930 . S
H3204 C3214 0.930 . S
H3205 C3215 0.930 . S
C3206 H3200 0.930 . S
C3206 C3207 1.355 . S
C3206 C3208 1.415 . S
C3207 C3206 1.355 . S
C3207 C3209 1.419 . S
C3208 C3206 1.415 . S
C3208 C3213 1.425 . S
C3208 C3215 1.409 . S
C3209 H3201 0.930 . S
C3209 C3207 1.419 . S
C3209 C3210 1.362 . S
C3210 H3202 0.930 . S
C3210 C3209 1.362 . S
C3210 C3213 1.409 . S
C3211 H3203 0.930 . S
C3211 C3212 1.355 . S
C3211 C3213 1.415 . S
C3212 C3211 1.355 . S
C3212 C3214 1.419 . S
C3213 C3208 1.425 . S
C3213 C3210 1.409 . S
C3213 C3211 1.415 . S
C3214 H3204 0.930 . S
C3214 C3212 1.419 . S
C3214 C3215 1.362 . S
C3215 H3205 0.930 . S
C3215 C3208 1.409 . S
C3215 C3214 1.362 . S
H3216 C3222 0.930 . S
H3217 C3225 0.930 . S
H3218 C3226 0.930 . S
H3219 C3227 0.930 . S
H3220 C3230 0.930 . S
H3221 C3231 0.930 . S
C3222 H3216 0.930 . S
C3222 C3223 1.355 . S
C3222 C3224 1.415 . S
C3223 C3222 1.355 . S
C3223 C3225 1.419 . S
C3224 C3222 1.415 . S
C3224 C3229 1.425 . S
C3224 C3231 1.409 . S
C3225 H3217 0.930 . S
C3225 C3223 1.419 . S
C3225 C3226 1.362 . S
C3226 H3218 0.930 . S
C3226 C3225 1.362 . S
C3226 C3229 1.409 . S
C3227 H3219 0.930 . S
C3227 C3228 1.355 . S
C3227 C3229 1.415 . S
C3228 C3227 1.355 . S
C3228 C3230 1.419 . S
C3229 C3224 1.425 . S
C3229 C3226 1.409 . S
C3229 C3227 1.415 . S
C3230 H3220 0.930 . S
C3230 C3228 1.419 . S
C3230 C3231 1.362 . S
C3231 H3221 0.930 . S
C3231 C3224 1.409 . S
C3231 C3230 1.362 . S
H3232 C3238 0.930 . S
H3233 C3241 0.930 . S
H3234 C3242 0.930 . S
H3235 C3243 0.930 . S
H3236 C3246 0.930 . S
H3237 C3247 0.930 . S
C3238 H3232 0.930 . S
C3238 C3239 1.355 . S
C3238 C3240 1.415 . S
C3239 C3238 1.355 . S
C3239 C3241 1.419 . S
C3240 C3238 1.415 . S
C3240 C3245 1.425 . S
C3240 C3247 1.409 . S
C3241 H3233 0.930 . S
C3241 C3239 1.419 . S
C3241 C3242 1.362 . S
C3242 H3234 0.930 . S
C3242 C3241 1.362 . S
C3242 C3245 1.409 . S
C3243 H3235 0.930 . S
C3243 C3244 1.355 . S
C3243 C3245 1.415 . S
C3244 C3243 1.355 . S
C3244 C3246 1.419 . S
C3245 C3240 1.425 . S
C3245 C3242 1.409 . S
C3245 C3243 1.415 . S
C3246 H3236 0.930 . S
C3246 C3244 1.419 . S
C3246 C3247 1.362 . S
C3247 H3237 0.930 . S
C3247 C3240 1.409 . S
C3247 C3246 1.362 . S
H3248 C3254 0.930 . S
H3249 C3257 0.930 . S
H3250 C3258 0.930 . S
H3251 C3259 0.930 . S
H3252 C3262 0.930 . S
H3253 C3263 0.930 . S
C3254 H3248 0.930 . S
C3254 C3255 1.355 . S
C3254 C3256 1.415 . S
C3255 C3254 1.355 . S
C3255 C3257 1.419 . S
C3256 C3254 1.415 . S
C3256 C3261 1.425 . S
C3256 C3263 1.409 . S
C3257 H3249 0.930 . S
C3257 C3255 1.419 . S
C3257 C3258 1.362 . S
C3258 H3250 0.930 . S
C3258 C3257 1.362 . S
C3258 C3261 1.409 . S
C3259 H3251 0.930 . S
C3259 C3260 1.355 . S
C3259 C3261 1.415 . S
C3260 C3259 1.355 . S
C3260 C3262 1.419 . S
C3261 C3256 1.425 . S
C3261 C3258 1.409 . S
C3261 C3259 1.415 . S
C3262 H3252 0.930 . S
C3262 C3260 1.419 . S
C3262 C3263 1.362 . S
C3263 H3253 0.930 . S
C3263 C3256 1.409 . S
C3263 C3262 1.362 . S
H3264 C3270 0.930 . S
H3265 C3273 0.930 . S
H3266 C3274 0.930 . S
H3267 C3275 0.930 . S
H3268 C3278 0.930 . S
H3269 C3279 0.930 . S
C3270 H3264 0.930 . S
C3270 C3271 1.355 . S
C3270 C3272 1.415 . S
C3271 C3270 1.355 . S
C3271 C3273 1.419 . S
C3272 C3270 1.415 . S
C3272 C3277 1.425 . S
C3272 C3279 1.409 . S
C3273 H3265 0.930 . S
C3273 C3271 1.419 . S
C3273 C3274 1.362 . S
C3274 H3266 0.930 . S
C3274 C3273 1.362 . S
C3274 C3277 1.409 . S
C3275 H3267 0.930 . S
C3275 C3276 1.355 . S
C3275 C3277 1.415 . S
C3276 C3275 1.355 . S
C3276 C3278 1.419 . S
C3277 C3272 1.425 . S
C3277 C3274 1.409 . S
C3277 C3275 1.415 . S
C3278 H3268 0.930 . S
C3278 C3276 1.419 . S
C3278 C3279 1.362 . S
C3279 H3269 0.930 . S
C3279 C3272 1.409 . S
C3279 C3278 1.362 . S
H3280 C3286 0.930 . S
H3281 C3289 0.930 . S
H3282 C3290 0.930 . S
H3283 C3291 0.930 . S
H3284 C3294 0.930 . S
H3285 C3295 0.930 . S
C3286 H3280 0.930 . S
C3286 C3287 1.355 . S
C3286 C3288 1.415 . S
C3287 C3286 1.355 . S
C3287 C3289 1.419 . S
C3288 C3286 1.415 . S
C3288 C3293 1.425 1_655 S
C3288 C3295 1.409 1_655 S
C3289 H3281 0.930 . S
C3289 C3287 1.419 . S
C3289 C3290 1.362 . S
C3290 H3282 0.930 . S
C3290 C3289 1.362 . S
C3290 C3293 1.409 1_655 S
C3291 H3283 0.930 . S
C3291 C3292 1.355 . S
C3291 C3293 1.415 . S
C3292 C3291 1.355 . S
C3292 C3294 1.419 . S
C3293 C3288 1.425 1_455 S
C3293 C3290 1.409 1_455 S
C3293 C3291 1.415 . S
C3294 H3284 0.930 . S
C3294 C3292 1.419 . S
C3294 C3295 1.362 . S
C3295 H3285 0.930 . S
C3295 C3288 1.409 1_455 S
C3295 C3294 1.362 . S
H3296 C3302 0.930 . S
H3297 C3305 0.930 . S
H3298 C3306 0.930 . S
H3299 C3307 0.930 . S
H3300 C3310 0.930 . S
H3301 C3311 0.930 . S
C3302 H3296 0.930 . S
C3302 C3303 1.355 . S
C3302 C3304 1.415 . S
C3303 C3302 1.355 . S
C3303 C3305 1.419 . S
C3304 C3302 1.415 . S
C3304 C3309 1.425 . S
C3304 C3311 1.409 . S
C3305 H3297 0.930 . S
C3305 C3303 1.419 . S
C3305 C3306 1.362 . S
C3306 H3298 0.930 . S
C3306 C3305 1.362 . S
C3306 C3309 1.409 . S
C3307 H3299 0.930 . S
C3307 C3308 1.355 . S
C3307 C3309 1.415 . S
C3308 C3307 1.355 . S
C3308 C3310 1.419 . S
C3309 C3304 1.425 . S
C3309 C3306 1.409 . S
C3309 C3307 1.415 . S
C3310 H3300 0.930 . S
C3310 C3308 1.419 . S
C3310 C3311 1.362 . S
C3311 H3301 0.930 . S
C3311 C3304 1.409 . S
C3311 C3310 1.362 . S
H3312 C3318 0.930 . S
H3313 C3321 0.930 . S
H3314 C3322 0.930 . S
H3315 C3323 0.930 . S
H3316 C3326 0.930 . S
H3317 C3327 0.930 . S
C3318 H3312 0.930 . S
C3318 C3319 1.355 . S
C3318 C3320 1.415 . S
C3319 C3318 1.355 . S
C3319 C3321 1.419 . S
C3320 C3318 1.415 . S
C3320 C3325 1.425 1_455 S
C3320 C3327 1.409 1_455 S
C3321 H3313 0.930 . S
C3321 C3319 1.419 . S
C3321 C3322 1.362 . S
C3322 H3314 0.930 . S
C3322 C3321 1.362 . S
C3322 C3325 1.409 1_455 S
C3323 H3315 0.930 . S
C3323 C3324 1.355 . S
C3323 C3325 1.415 . S
C3324 C3323 1.355 . S
C3324 C3326 1.419 . S
C3325 C3320 1.425 1_655 S
C3325 C3322 1.409 1_655 S
C3325 C3323 1.415 . S
C3326 H3316 0.930 . S
C3326 C3324 1.419 . S
C3326 C3327 1.362 . S
C3327 H3317 0.930 . S
C3327 C3320 1.409 1_655 S
C3327 C3326 1.362 . S
H3328 C3334 0.930 . S
H3329 C3337 0.930 . S
H3330 C3338 0.930 . S
H3331 C3339 0.930 . S
H3332 C3342 0.930 . S
H3333 C3343 0.930 . S
C3334 H3328 0.930 . S
C3334 C3335 1.355 . S
C3334 C3336 1.415 . S
C3335 C3334 1.355 . S
C3335 C3337 1.419 . S
C3336 C3334 1.415 . S
C3336 C3341 1.425 1_556 S
C3336 C3343 1.409 . S
C3337 H3329 0.930 . S
C3337 C3335 1.419 . S
C3337 C3338 1.362 1_556 S
C3338 H3330 0.930 . S
C3338 C3337 1.362 1_554 S
C3338 C3341 1.409 . S
C3339 H3331 0.930 . S
C3339 C3340 1.355 . S
C3339 C3341 1.415 . S
C3340 C3339 1.355 . S
C3340 C3342 1.419 . S
C3341 C3336 1.425 1_554 S
C3341 C3338 1.409 . S
C3341 C3339 1.415 . S
C3342 H3332 0.930 . S
C3342 C3340 1.419 . S
C3342 C3343 1.362 1_554 S
C3343 H3333 0.930 . S
C3343 C3336 1.409 . S
C3343 C3342 1.362 1_556 S
H3344 C3350 0.930 . S
H3345 C3353 0.930 . S
H3346 C3354 0.930 . S
H3347 C3355 0.930 . S
H3348 C3358 0.930 . S
H3349 C3359 0.930 . S
C3350 H3344 0.930 . S
C3350 C3351 1.355 . S
C3350 C3352 1.415 . S
C3351 C3350 1.355 . S
C3351 C3353 1.419 . S
C3352 C3350 1.415 . S
C3352 C3357 1.425 . S
C3352 C3359 1.409 . S
C3353 H3345 0.930 . S
C3353 C3351 1.419 . S
C3353 C3354 1.362 . S
C3354 H3346 0.930 . S
C3354 C3353 1.362 . S
C3354 C3357 1.409 . S
C3355 H3347 0.930 . S
C3355 C3356 1.355 . S
C3355 C3357 1.415 . S
C3356 C3355 1.355 . S
C3356 C3358 1.419 . S
C3357 C3352 1.425 . S
C3357 C3354 1.409 . S
C3357 C3355 1.415 . S
C3358 H3348 0.930 . S
C3358 C3356 1.419 . S
C3358 C3359 1.362 . S
C3359 H3349 0.930 . S
C3359 C3352 1.409 . S
C3359 C3358 1.362 . S
H3360 C3366 0.930 . S
H3361 C3369 0.930 . S
H3362 C3370 0.930 . S
H3363 C3371 0.930 . S
H3364 C3374 0.930 . S
H3365 C3375 0.930 . S
C3366 H3360 0.930 . S
C3366 C3367 1.355 . S
C3366 C3368 1.415 . S
C3367 C3366 1.355 . S
C3367 C3369 1.419 . S
C3368 C3366 1.415 . S
C3368 C3373 1.425 . S
C3368 C3375 1.409 . S
C3369 H3361 0.930 . S
C3369 C3367 1.419 . S
C3369 C3370 1.362 . S
C3370 H3362 0.930 . S
C3370 C3369 1.362 . S
C3370 C3373 1.409 . S
C3371 H3363 0.930 . S
C3371 C3372 1.355 . S
C3371 C3373 1.415 . S
C3372 C3371 1.355 . S
C3372 C3374 1.419 . S
C3373 C3368 1.425 . S
C3373 C3370 1.409 . S
C3373 C3371 1.415 . S
C3374 H3364 0.930 . S
C3374 C3372 1.419 . S
C3374 C3375 1.362 . S
C3375 H3365 0.930 . S
C3375 C3368 1.409 . S
C3375 C3374 1.362 . S
H3376 C3382 0.930 . S
H3377 C3385 0.930 . S
H3378 C3386 0.930 . S
H3379 C3387 0.930 . S
H3380 C3390 0.930 . S
H3381 C3391 0.930 . S
C3382 H3376 0.930 . S
C3382 C3383 1.355 . S
C3382 C3384 1.415 . S
C3383 C3382 1.355 . S
C3383 C3385 1.419 . S
C3384 C3382 1.415 . S
C3384 C3389 1.425 . S
C3384 C3391 1.409 . S
C3385 H3377 0.930 . S
C3385 C3383 1.419 . S
C3385 C3386 1.362 . S
C3386 H3378 0.930 . S
C3386 C3385 1.362 . S
C3386 C3389 1.409 . S
C3387 H3379 0.930 . S
C3387 C3388 1.355 . S
C3387 C3389 1.415 . S
C3388 C3387 1.355 . S
C3388 C3390 1.419 . S
C3389 C3384 1.425 . S
C3389 C3386 1.409 . S
C3389 C3387 1.415 . S
C3390 H3380 0.930 . S
C3390 C3388 1.419 . S
C3390 C3391 1.362 . S
C3391 H3381 0.930 . S
C3391 C3384 1.409 . S
C3391 C3390 1.362 . S
H3392 C3398 0.930 . S
H3393 C3401 0.930 . S
H3394 C3402 0.945 . S
H3395 C3403 0.930 . S
H3396 C3406 0.930 . S
H3397 C3407 0.945 . S
C3398 H3392 0.930 . S
C3398 C3399 1.355 . S
C3398 C3400 1.415 . S
C3399 C3398 1.355 . S
C3399 C3401 1.419 . S
C3400 C3398 1.415 . S
C3400 C3405 1.425 1_554 S
C3400 C3407 1.416 . S
C3401 H3393 0.930 . S
C3401 C3399 1.419 . S
C3401 C3402 1.341 1_554 S
C3402 H3394 0.945 . S
C3402 C3401 1.341 1_556 S
C3402 C3405 1.416 . S
C3403 H3395 0.930 . S
C3403 C3404 1.355 . S
C3403 C3405 1.415 . S
C3404 C3403 1.355 . S
C3404 C3406 1.419 . S
C3405 C3400 1.425 1_556 S
C3405 C3402 1.416 . S
C3405 C3403 1.415 . S
C3406 H3396 0.930 . S
C3406 C3404 1.419 . S
C3406 C3407 1.341 1_556 S
C3407 H3397 0.945 . S
C3407 C3400 1.416 . S
C3407 C3406 1.341 1_554 S
H3408 C3414 0.930 . S
H3409 C3417 0.930 . S
H3410 C3418 0.930 . S
H3411 C3419 0.930 . S
H3412 C3422 0.930 . S
H3413 C3423 0.930 . S
C3414 H3408 0.930 . S
C3414 C3415 1.355 . S
C3414 C3416 1.415 . S
C3415 C3414 1.355 . S
C3415 C3417 1.419 . S
C3416 C3414 1.415 . S
C3416 C3421 1.425 . S
C3416 C3423 1.409 . S
C3417 H3409 0.930 . S
C3417 C3415 1.419 . S
C3417 C3418 1.362 . S
C3418 H3410 0.930 . S
C3418 C3417 1.362 . S
C3418 C3421 1.409 . S
C3419 H3411 0.930 . S
C3419 C3420 1.355 . S
C3419 C3421 1.415 . S
C3420 C3419 1.355 . S
C3420 C3422 1.419 . S
C3421 C3416 1.425 . S
C3421 C3418 1.409 . S
C3421 C3419 1.415 . S
C3422 H3412 0.930 . S
C3422 C3420 1.419 . S
C3422 C3423 1.362 . S
C3423 H3413 0.930 . S
C3423 C3416 1.409 . S
C3423 C3422 1.362 . S
H3424 C3430 0.930 . S
H3425 C3433 0.930 . S
H3426 C3434 0.930 . S
H3427 C3435 0.930 . S
H3428 C3438 0.930 . S
H3429 C3439 0.930 . S
C3430 H3424 0.930 . S
C3430 C3431 1.355 . S
C3430 C3432 1.415 . S
C3431 C3430 1.355 . S
C3431 C3433 1.419 . S
C3432 C3430 1.415 . S
C3432 C3437 1.425 . S
C3432 C3439 1.409 . S
C3433 H3425 0.930 . S
C3433 C3431 1.419 . S
C3433 C3434 1.362 . S
C3434 H3426 0.930 . S
C3434 C3433 1.362 . S
C3434 C3437 1.409 . S
C3435 H3427 0.930 . S
C3435 C3436 1.355 . S
C3435 C3437 1.415 . S
C3436 C3435 1.355 . S
C3436 C3438 1.419 . S
C3437 C3432 1.425 . S
C3437 C3434 1.409 . S
C3437 C3435 1.415 . S
C3438 H3428 0.930 . S
C3438 C3436 1.419 . S
C3438 C3439 1.362 . S
C3439 H3429 0.930 . S
C3439 C3432 1.409 . S
C3439 C3438 1.362 . S
H3440 C3446 0.930 . S
H3441 C3449 0.930 . S
H3442 C3450 0.930 . S
H3443 C3451 0.930 . S
H3444 C3454 0.930 . S
H3445 C3455 0.930 . S
C3446 H3440 0.930 . S
C3446 C3447 1.355 . S
C3446 C3448 1.415 . S
C3447 C3446 1.355 . S
C3447 C3449 1.419 . S
C3448 C3446 1.415 . S
C3448 C3453 1.425 . S
C3448 C3455 1.409 . S
C3449 H3441 0.930 . S
C3449 C3447 1.419 . S
C3449 C3450 1.362 . S
C3450 H3442 0.930 . S
C3450 C3449 1.362 . S
C3450 C3453 1.409 . S
C3451 H3443 0.930 . S
C3451 C3452 1.355 . S
C3451 C3453 1.415 . S
C3452 C3451 1.355 . S
C3452 C3454 1.419 . S
C3453 C3448 1.425 . S
C3453 C3450 1.409 . S
C3453 C3451 1.415 . S
C3454 H3444 0.930 . S
C3454 C3452 1.419 . S
C3454 C3455 1.362 . S
C3455 H3445 0.930 . S
C3455 C3448 1.409 . S
C3455 C3454 1.362 . S
H3456 C3462 0.930 . S
H3457 C3465 0.930 . S
H3458 C3466 0.930 . S
H3459 C3467 0.930 . S
H3460 C3470 0.930 . S
H3461 C3471 0.930 . S
C3462 H3456 0.930 . S
C3462 C3463 1.355 . S
C3462 C3464 1.415 1_545 S
C3463 C3462 1.355 . S
C3463 C3465 1.419 . S
C3464 C3462 1.415 1_565 S
C3464 C3469 1.425 1_565 S
C3464 C3471 1.409 . S
C3465 H3457 0.930 . S
C3465 C3463 1.419 . S
C3465 C3466 1.362 . S
C3466 H3458 0.930 . S
C3466 C3465 1.362 . S
C3466 C3469 1.409 . S
C3467 H3459 0.930 . S
C3467 C3468 1.355 . S
C3467 C3469 1.415 1_565 S
C3468 C3467 1.355 . S
C3468 C3470 1.419 . S
C3469 C3464 1.425 1_545 S
C3469 C3466 1.409 . S
C3469 C3467 1.415 1_545 S
C3470 H3460 0.930 . S
C3470 C3468 1.419 . S
C3470 C3471 1.362 . S
C3471 H3461 0.930 . S
C3471 C3464 1.409 . S
C3471 C3470 1.362 . S
H3472 C3478 0.930 . S
H3473 C3481 0.930 . S
H3474 C3482 0.930 . S
H3475 C3483 0.930 . S
H3476 C3486 0.930 . S
H3477 C3487 0.930 . S
C3478 H3472 0.930 . S
C3478 C3479 1.355 . S
C3478 C3480 1.415 . S
C3479 C3478 1.355 . S
C3479 C3481 1.419 . S
C3480 C3478 1.415 . S
C3480 C3485 1.425 . S
C3480 C3487 1.409 . S
C3481 H3473 0.930 . S
C3481 C3479 1.419 . S
C3481 C3482 1.362 . S
C3482 H3474 0.930 . S
C3482 C3481 1.362 . S
C3482 C3485 1.409 . S
C3483 H3475 0.930 . S
C3483 C3484 1.355 . S
C3483 C3485 1.415 . S
C3484 C3483 1.355 . S
C3484 C3486 1.419 . S
C3485 C3480 1.425 . S
C3485 C3482 1.409 . S
C3485 C3483 1.415 . S
C3486 H3476 0.930 . S
C3486 C3484 1.419 . S
C3486 C3487 1.362 . S
C3487 H3477 0.930 . S
C3487 C3480 1.409 . S
C3487 C3486 1.362 . S
H3488 C3494 0.941 . S
H3489 C3497 0.930 . S
H3490 C3498 0.930 . S
H3491 C3499 0.941 . S
H3492 C3502 0.930 . S
H3493 C3503 0.930 . S
C3494 H3488 0.941 . S
C3494 C3495 1.355 . S
C3494 C3496 1.415 1_554 S
C3495 C3494 1.355 . S
C3495 C3497 1.419 . S
C3496 C3494 1.415 1_556 S
C3496 C3501 1.425 1_566 S
C3496 C3503 1.409 . S
C3497 H3489 0.930 . S
C3497 C3495 1.419 . S
C3497 C3498 1.362 1_565 S
C3498 H3490 0.930 . S
C3498 C3497 1.362 1_545 S
C3498 C3501 1.409 . S
C3499 H3491 0.941 . S
C3499 C3500 1.355 . S
C3499 C3501 1.415 1_556 S
C3500 C3499 1.355 . S
C3500 C3502 1.419 . S
C3501 C3496 1.425 1_544 S
C3501 C3498 1.409 . S
C3501 C3499 1.415 1_554 S
C3502 H3492 0.930 . S
C3502 C3500 1.419 . S
C3502 C3503 1.362 1_545 S
C3503 H3493 0.930 . S
C3503 C3496 1.409 . S
C3503 C3502 1.362 1_565 S
H3504 C3510 0.930 . S
H3505 C3513 0.930 . S
H3506 C3514 0.930 . S
H3507 C3515 0.930 . S
H3508 C3518 0.930 . S
H3509 C3519 0.930 . S
C3510 H3504 0.930 . S
C3510 C3511 1.355 . S
C3510 C3512 1.415 . S
C3511 C3510 1.355 . S
C3511 C3513 1.419 . S
C3512 C3510 1.415 . S
C3512 C3517 1.425 . S
C3512 C3519 1.409 . S
C3513 H3505 0.930 . S
C3513 C3511 1.419 . S
C3513 C3514 1.362 . S
C3514 H3506 0.930 . S
C3514 C3513 1.362 . S
C3514 C3517 1.409 . S
C3515 H3507 0.930 . S
C3515 C3516 1.355 . S
C3515 C3517 1.415 . S
C3516 C3515 1.355 . S
C3516 C3518 1.419 . S
C3517 C3512 1.425 . S
C3517 C3514 1.409 . S
C3517 C3515 1.415 . S
C3518 H3508 0.930 . S
C3518 C3516 1.419 . S
C3518 C3519 1.362 . S
C3519 H3509 0.930 . S
C3519 C3512 1.409 . S
C3519 C3518 1.362 . S
H3520 C3526 0.930 . S
H3521 C3529 0.930 . S
H3522 C3530 0.930 . S
H3523 C3531 0.930 . S
H3524 C3534 0.930 . S
H3525 C3535 0.930 . S
C3526 H3520 0.930 . S
C3526 C3527 1.355 . S
C3526 C3528 1.415 1_545 S
C3527 C3526 1.355 . S
C3527 C3529 1.419 . S
C3528 C3526 1.415 1_565 S
C3528 C3533 1.425 1_565 S
C3528 C3535 1.409 . S
C3529 H3521 0.930 . S
C3529 C3527 1.419 . S
C3529 C3530 1.362 . S
C3530 H3522 0.930 . S
C3530 C3529 1.362 . S
C3530 C3533 1.409 . S
C3531 H3523 0.930 . S
C3531 C3532 1.355 . S
C3531 C3533 1.415 1_565 S
C3532 C3531 1.355 . S
C3532 C3534 1.419 . S
C3533 C3528 1.425 1_545 S
C3533 C3530 1.409 . S
C3533 C3531 1.415 1_545 S
C3534 H3524 0.930 . S
C3534 C3532 1.419 . S
C3534 C3535 1.362 . S
C3535 H3525 0.930 . S
C3535 C3528 1.409 . S
C3535 C3534 1.362 . S
H3536 C3542 0.930 . S
H3537 C3545 0.930 . S
H3538 C3546 0.930 . S
H3539 C3547 0.930 . S
H3540 C3550 0.930 . S
H3541 C3551 0.930 . S
C3542 H3536 0.930 . S
C3542 C3543 1.355 . S
C3542 C3544 1.415 . S
C3543 C3542 1.355 . S
C3543 C3545 1.419 . S
C3544 C3542 1.415 . S
C3544 C3549 1.425 . S
C3544 C3551 1.409 . S
C3545 H3537 0.930 . S
C3545 C3543 1.419 . S
C3545 C3546 1.362 . S
C3546 H3538 0.930 . S
C3546 C3545 1.362 . S
C3546 C3549 1.409 . S
C3547 H3539 0.930 . S
C3547 C3548 1.355 . S
C3547 C3549 1.415 . S
C3548 C3547 1.355 . S
C3548 C3550 1.419 . S
C3549 C3544 1.425 . S
C3549 C3546 1.409 . S
C3549 C3547 1.415 . S
C3550 H3540 0.930 . S
C3550 C3548 1.419 . S
C3550 C3551 1.362 . S
C3551 H3541 0.930 . S
C3551 C3544 1.409 . S
C3551 C3550 1.362 . S
H3552 C3558 0.930 . S
H3553 C3561 0.930 . S
H3554 C3562 0.930 1_556 S
H3555 C3563 0.930 . S
H3556 C3566 0.930 . S
H3557 C3567 0.930 1_554 S
C3558 H3552 0.930 . S
C3558 C3559 1.355 . S
C3558 C3560 1.415 . S
C3559 C3558 1.355 . S
C3559 C3561 1.419 . S
C3560 C3558 1.415 . S
C3560 C3565 1.425 1_564 S
C3560 C3567 1.409 1_564 S
C3561 H3553 0.930 . S
C3561 C3559 1.419 . S
C3561 C3562 1.362 . S
C3562 H3554 0.930 1_554 S
C3562 C3561 1.362 . S
C3562 C3565 1.409 1_564 S
C3563 H3555 0.930 . S
C3563 C3564 1.355 . S
C3563 C3565 1.415 . S
C3564 C3563 1.355 . S
C3564 C3566 1.419 . S
C3565 C3560 1.425 1_546 S
C3565 C3562 1.409 1_546 S
C3565 C3563 1.415 . S
C3566 H3556 0.930 . S
C3566 C3564 1.419 . S
C3566 C3567 1.362 . S
C3567 H3557 0.930 1_556 S
C3567 C3560 1.409 1_546 S
C3567 C3566 1.362 . S
H3568 C3574 0.930 . S
H3569 C3577 0.930 . S
H3570 C3578 0.930 . S
H3571 C3579 0.930 . S
H3572 C3582 0.930 . S
H3573 C3583 0.930 . S
C3574 H3568 0.930 . S
C3574 C3575 1.355 . S
C3574 C3576 1.415 . S
C3575 C3574 1.355 . S
C3575 C3577 1.419 . S
C3576 C3574 1.415 . S
C3576 C3581 1.425 . S
C3576 C3583 1.409 . S
C3577 H3569 0.930 . S
C3577 C3575 1.419 . S
C3577 C3578 1.362 . S
C3578 H3570 0.930 . S
C3578 C3577 1.362 . S
C3578 C3581 1.409 . S
C3579 H3571 0.930 . S
C3579 C3580 1.355 . S
C3579 C3581 1.415 . S
C3580 C3579 1.355 . S
C3580 C3582 1.419 . S
C3581 C3576 1.425 . S
C3581 C3578 1.409 . S
C3581 C3579 1.415 . S
C3582 H3572 0.930 . S
C3582 C3580 1.419 . S
C3582 C3583 1.362 . S
C3583 H3573 0.930 . S
C3583 C3576 1.409 . S
C3583 C3582 1.362 . S
H3584 C3590 0.930 . S
H3585 C3593 0.930 . S
H3586 C3594 0.930 . S
H3587 C3595 0.930 . S
H3588 C3598 0.930 . S
H3589 C3599 0.930 . S
C3590 H3584 0.930 . S
C3590 C3591 1.355 . S
C3590 C3592 1.415 . S
C3591 C3590 1.355 . S
C3591 C3593 1.419 . S
C3592 C3590 1.415 . S
C3592 C3597 1.425 . S
C3592 C3599 1.409 . S
C3593 H3585 0.930 . S
C3593 C3591 1.419 . S
C3593 C3594 1.362 . S
C3594 H3586 0.930 . S
C3594 C3593 1.362 . S
C3594 C3597 1.409 . S
C3595 H3587 0.930 . S
C3595 C3596 1.355 . S
C3595 C3597 1.415 . S
C3596 C3595 1.355 . S
C3596 C3598 1.419 . S
C3597 C3592 1.425 . S
C3597 C3594 1.409 . S
C3597 C3595 1.415 . S
C3598 H3588 0.930 . S
C3598 C3596 1.419 . S
C3598 C3599 1.362 . S
C3599 H3589 0.930 . S
C3599 C3592 1.409 . S
C3599 C3598 1.362 . S
H3600 C3606 0.930 . S
H3601 C3609 0.930 . S
H3602 C3610 0.930 . S
H3603 C3611 0.930 . S
H3604 C3614 0.930 . S
H3605 C3615 0.930 . S
C3606 H3600 0.930 . S
C3606 C3607 1.355 . S
C3606 C3608 1.415 . S
C3607 C3606 1.355 . S
C3607 C3609 1.419 . S
C3608 C3606 1.415 . S
C3608 C3613 1.425 . S
C3608 C3615 1.409 . S
C3609 H3601 0.930 . S
C3609 C3607 1.419 . S
C3609 C3610 1.362 . S
C3610 H3602 0.930 . S
C3610 C3609 1.362 . S
C3610 C3613 1.409 . S
C3611 H3603 0.930 . S
C3611 C3612 1.355 . S
C3611 C3613 1.415 . S
C3612 C3611 1.355 . S
C3612 C3614 1.419 . S
C3613 C3608 1.425 . S
C3613 C3610 1.409 . S
C3613 C3611 1.415 . S
C3614 H3604 0.930 . S
C3614 C3612 1.419 . S
C3614 C3615 1.362 . S
C3615 H3605 0.930 . S
C3615 C3608 1.409 . S
C3615 C3614 1.362 . S
H3616 C3622 0.930 . S
H3617 C3625 0.930 . S
H3618 C3626 0.930 . S
H3619 C3627 0.930 . S
H3620 C3630 0.930 . S
H3621 C3631 0.930 . S
C3622 H3616 0.930 . S
C3622 C3623 1.355 . S
C3622 C3624 1.415 . S
C3623 C3622 1.355 . S
C3623 C3625 1.419 . S
C3624 C3622 1.415 . S
C3624 C3629 1.425 . S
C3624 C3631 1.409 . S
C3625 H3617 0.930 . S
C3625 C3623 1.419 . S
C3625 C3626 1.362 . S
C3626 H3618 0.930 . S
C3626 C3625 1.362 . S
C3626 C3629 1.409 . S
C3627 H3619 0.930 . S
C3627 C3628 1.355 . S
C3627 C3629 1.415 . S
C3628 C3627 1.355 . S
C3628 C3630 1.419 . S
C3629 C3624 1.425 . S
C3629 C3626 1.409 . S
C3629 C3627 1.415 . S
C3630 H3620 0.930 . S
C3630 C3628 1.419 . S
C3630 C3631 1.362 . S
C3631 H3621 0.930 . S
C3631 C3624 1.409 . S
C3631 C3630 1.362 . S
H3632 C3638 0.930 . S
H3633 C3641 0.930 . S
H3634 C3642 0.930 . S
H3635 C3643 0.930 . S
H3636 C3646 0.930 . S
H3637 C3647 0.930 . S
C3638 H3632 0.930 . S
C3638 C3639 1.355 . S
C3638 C3640 1.415 . S
C3639 C3638 1.355 . S
C3639 C3641 1.419 . S
C3640 C3638 1.415 . S
C3640 C3645 1.425 1_655 S
C3640 C3647 1.409 1_655 S
C3641 H3633 0.930 . S
C3641 C3639 1.419 . S
C3641 C3642 1.362 . S
C3642 H3634 0.930 . S
C3642 C3641 1.362 . S
C3642 C3645 1.409 1_655 S
C3643 H3635 0.930 . S
C3643 C3644 1.355 . S
C3643 C3645 1.415 . S
C3644 C3643 1.355 . S
C3644 C3646 1.419 . S
C3645 C3640 1.425 1_455 S
C3645 C3642 1.409 1_455 S
C3645 C3643 1.415 . S
C3646 H3636 0.930 . S
C3646 C3644 1.419 . S
C3646 C3647 1.362 . S
C3647 H3637 0.930 . S
C3647 C3640 1.409 1_455 S
C3647 C3646 1.362 . S
H3648 C3654 0.930 . S
H3649 C3657 0.930 . S
H3650 C3658 0.930 . S
H3651 C3659 0.930 . S
H3652 C3662 0.930 . S
H3653 C3663 0.930 . S
C3654 H3648 0.930 . S
C3654 C3655 1.355 . S
C3654 C3656 1.415 . S
C3655 C3654 1.355 . S
C3655 C3657 1.419 . S
C3656 C3654 1.415 . S
C3656 C3661 1.425 . S
C3656 C3663 1.409 . S
C3657 H3649 0.930 . S
C3657 C3655 1.419 . S
C3657 C3658 1.362 . S
C3658 H3650 0.930 . S
C3658 C3657 1.362 . S
C3658 C3661 1.409 . S
C3659 H3651 0.930 . S
C3659 C3660 1.355 . S
C3659 C3661 1.415 . S
C3660 C3659 1.355 . S
C3660 C3662 1.419 . S
C3661 C3656 1.425 . S
C3661 C3658 1.409 . S
C3661 C3659 1.415 . S
C3662 H3652 0.930 . S
C3662 C3660 1.419 . S
C3662 C3663 1.362 . S
C3663 H3653 0.930 . S
C3663 C3656 1.409 . S
C3663 C3662 1.362 . S
H3664 C3670 0.930 . S
H3665 C3673 0.930 . S
H3666 C3674 0.930 . S
H3667 C3675 0.930 . S
H3668 C3678 0.930 . S
H3669 C3679 0.930 . S
C3670 H3664 0.930 . S
C3670 C3671 1.355 . S
C3670 C3672 1.415 . S
C3671 C3670 1.355 . S
C3671 C3673 1.419 . S
C3672 C3670 1.415 . S
C3672 C3677 1.425 1_655 S
C3672 C3679 1.409 1_655 S
C3673 H3665 0.930 . S
C3673 C3671 1.419 . S
C3673 C3674 1.362 . S
C3674 H3666 0.930 . S
C3674 C3673 1.362 . S
C3674 C3677 1.409 1_655 S
C3675 H3667 0.930 . S
C3675 C3676 1.355 . S
C3675 C3677 1.415 . S
C3676 C3675 1.355 . S
C3676 C3678 1.419 . S
C3677 C3672 1.425 1_455 S
C3677 C3674 1.409 1_455 S
C3677 C3675 1.415 . S
C3678 H3668 0.930 . S
C3678 C3676 1.419 . S
C3678 C3679 1.362 . S
C3679 H3669 0.930 . S
C3679 C3672 1.409 1_455 S
C3679 C3678 1.362 . S
H3680 C3686 0.930 . S
H3681 C3689 0.930 . S
H3682 C3690 0.930 . S
H3683 C3691 0.930 . S
H3684 C3694 0.930 . S
H3685 C3695 0.930 . S
C3686 H3680 0.930 . S
C3686 C3687 1.355 . S
C3686 C3688 1.415 . S
C3687 C3686 1.355 . S
C3687 C3689 1.419 . S
C3688 C3686 1.415 . S
C3688 C3693 1.425 . S
C3688 C3695 1.409 . S
C3689 H3681 0.930 . S
C3689 C3687 1.419 . S
C3689 C3690 1.362 . S
C3690 H3682 0.930 . S
C3690 C3689 1.362 . S
C3690 C3693 1.409 . S
C3691 H3683 0.930 . S
C3691 C3692 1.355 . S
C3691 C3693 1.415 . S
C3692 C3691 1.355 . S
C3692 C3694 1.419 . S
C3693 C3688 1.425 . S
C3693 C3690 1.409 . S
C3693 C3691 1.415 . S
C3694 H3684 0.930 . S
C3694 C3692 1.419 . S
C3694 C3695 1.362 . S
C3695 H3685 0.930 . S
C3695 C3688 1.409 . S
C3695 C3694 1.362 . S
H3696 C3702 0.930 . S
H3697 C3705 0.930 . S
H3698 C3706 0.930 . S
H3699 C3707 0.930 . S
H3700 C3710 0.930 . S
H3701 C3711 0.930 . S
C3702 H3696 0.930 . S
C3702 C3703 1.355 . S
C3702 C3704 1.415 . S
C3703 C3702 1.355 . S
C3703 C3705 1.419 . S
C3704 C3702 1.415 . S
C3704 C3709 1.425 . S
C3704 C3711 1.409 . S
C3705 H3697 0.930 . S
C3705 C3703 1.419 . S
C3705 C3706 1.362 . S
C3706 H3698 0.930 . S
C3706 C3705 1.362 . S
C3706 C3709 1.409 . S
C3707 H3699 0.930 . S
C3707 C3708 1.355 . S
C3707 C3709 1.415 . S
C3708 C3707 1.355 . S
C3708 C3710 1.419 . S
C3709 C3704 1.425 . S
C3709 C3706 1.409 . S
C3709 C3707 1.415 . S
C3710 H3700 0.930 . S
C3710 C3708 1.419 . S
C3710 C3711 1.362 . S
C3711 H3701 0.930 . S
C3711 C3704 1.409 . S
C3711 C3710 1.362 . S
H3712 C3718 0.930 . S
H3713 C3721 0.930 . S
H3714 C3722 0.930 . S
H3715 C3723 0.930 . S
H3716 C3726 0.930 . S
H3717 C3727 0.930 . S
C3718 H3712 0.930 . S
C3718 C3719 1.355 . S
C3718 C3720 1.415 . S
C3719 C3718 1.355 . S
C3719 C3721 1.419 . S
C3720 C3718 1.415 . S
C3720 C3725 1.425 . S
C3720 C3727 1.409 . S
C3721 H3713 0.930 . S
C3721 C3719 1.419 . S
C3721 C3722 1.362 . S
C3722 H3714 0.930 . S
C3722 C3721 1.362 . S
C3722 C3725 1.409 . S
C3723 H3715 0.930 . S
C3723 C3724 1.355 . S
C3723 C3725 1.415 . S
C3724 C3723 1.355 . S
C3724 C3726 1.419 . S
C3725 C3720 1.425 . S
C3725 C3722 1.409 . S
C3725 C3723 1.415 . S
C3726 H3716 0.930 . S
C3726 C3724 1.419 . S
C3726 C3727 1.362 . S
C3727 H3717 0.930 . S
C3727 C3720 1.409 . S
C3727 C3726 1.362 . S
H3728 C3734 0.930 . S
H3729 C3737 0.930 . S
H3730 C3738 0.930 . S
H3731 C3739 0.930 . S
H3732 C3742 0.930 . S
H3733 C3743 0.930 . S
C3734 H3728 0.930 . S
C3734 C3735 1.355 . S
C3734 C3736 1.415 . S
C3735 C3734 1.355 . S
C3735 C3737 1.419 . S
C3736 C3734 1.415 . S
C3736 C3741 1.425 . S
C3736 C3743 1.409 . S
C3737 H3729 0.930 . S
C3737 C3735 1.419 . S
C3737 C3738 1.362 . S
C3738 H3730 0.930 . S
C3738 C3737 1.362 . S
C3738 C3741 1.409 . S
C3739 H3731 0.930 . S
C3739 C3740 1.355 . S
C3739 C3741 1.415 . S
C3740 C3739 1.355 . S
C3740 C3742 1.419 . S
C3741 C3736 1.425 . S
C3741 C3738 1.409 . S
C3741 C3739 1.415 . S
C3742 H3732 0.930 . S
C3742 C3740 1.419 . S
C3742 C3743 1.362 . S
C3743 H3733 0.930 . S
C3743 C3736 1.409 . S
C3743 C3742 1.362 . S
H3744 C3750 0.930 . S
H3745 C3753 0.930 . S
H3746 C3754 0.930 . S
H3747 C3755 0.930 . S
H3748 C3758 0.930 . S
H3749 C3759 0.930 . S
C3750 H3744 0.930 . S
C3750 C3751 1.355 . S
C3750 C3752 1.415 . S
C3751 C3750 1.355 . S
C3751 C3753 1.419 . S
C3752 C3750 1.415 . S
C3752 C3757 1.425 . S
C3752 C3759 1.409 . S
C3753 H3745 0.930 . S
C3753 C3751 1.419 . S
C3753 C3754 1.362 . S
C3754 H3746 0.930 . S
C3754 C3753 1.362 . S
C3754 C3757 1.409 . S
C3755 H3747 0.930 . S
C3755 C3756 1.355 . S
C3755 C3757 1.415 . S
C3756 C3755 1.355 . S
C3756 C3758 1.419 . S
C3757 C3752 1.425 . S
C3757 C3754 1.409 . S
C3757 C3755 1.415 . S
C3758 H3748 0.930 . S
C3758 C3756 1.419 . S
C3758 C3759 1.362 . S
C3759 H3749 0.930 . S
C3759 C3752 1.409 . S
C3759 C3758 1.362 . S
H3760 C3766 0.930 . S
H3761 C3769 0.930 . S
H3762 C3770 0.930 . S
H3763 C3771 0.930 . S
H3764 C3774 0.930 . S
H3765 C3775 0.930 . S
C3766 H3760 0.930 . S
C3766 C3767 1.355 . S
C3766 C3768 1.415 . S
C3767 C3766 1.355 . S
C3767 C3769 1.419 . S
C3768 C3766 1.415 . S
C3768 C3773 1.425 . S
C3768 C3775 1.409 . S
C3769 H3761 0.930 . S
C3769 C3767 1.419 . S
C3769 C3770 1.362 . S
C3770 H3762 0.930 . S
C3770 C3769 1.362 . S
C3770 C3773 1.409 . S
C3771 H3763 0.930 . S
C3771 C3772 1.355 . S
C3771 C3773 1.415 . S
C3772 C3771 1.355 . S
C3772 C3774 1.419 . S
C3773 C3768 1.425 . S
C3773 C3770 1.409 . S
C3773 C3771 1.415 . S
C3774 H3764 0.930 . S
C3774 C3772 1.419 . S
C3774 C3775 1.362 . S
C3775 H3765 0.930 . S
C3775 C3768 1.409 . S
C3775 C3774 1.362 . S
H3776 C3782 0.930 . S
H3777 C3785 0.930 . S
H3778 C3786 0.930 . S
H3779 C3787 0.930 . S
H3780 C3790 0.930 . S
H3781 C3791 0.930 . S
C3782 H3776 0.930 . S
C3782 C3783 1.355 . S
C3782 C3784 1.415 . S
C3783 C3782 1.355 . S
C3783 C3785 1.419 . S
C3784 C3782 1.415 . S
C3784 C3789 1.425 1_655 S
C3784 C3791 1.409 1_655 S
C3785 H3777 0.930 . S
C3785 C3783 1.419 . S
C3785 C3786 1.362 . S
C3786 H3778 0.930 . S
C3786 C3785 1.362 . S
C3786 C3789 1.409 1_655 S
C3787 H3779 0.930 . S
C3787 C3788 1.355 . S
C3787 C3789 1.415 . S
C3788 C3787 1.355 . S
C3788 C3790 1.419 . S
C3789 C3784 1.425 1_455 S
C3789 C3786 1.409 1_455 S
C3789 C3787 1.415 . S
C3790 H3780 0.930 . S
C3790 C3788 1.419 . S
C3790 C3791 1.362 . S
C3791 H3781 0.930 . S
C3791 C3784 1.409 1_455 S
C3791 C3790 1.362 . S
H3792 C3798 0.930 . S
H3793 C3801 0.930 . S
H3794 C3802 0.930 . S
H3795 C3803 0.930 . S
H3796 C3806 0.930 . S
H3797 C3807 0.930 . S
C3798 H3792 0.930 . S
C3798 C3799 1.355 . S
C3798 C3800 1.415 . S
C3799 C3798 1.355 . S
C3799 C3801 1.419 . S
C3800 C3798 1.415 . S
C3800 C3805 1.425 . S
C3800 C3807 1.409 . S
C3801 H3793 0.930 . S
C3801 C3799 1.419 . S
C3801 C3802 1.362 . S
C3802 H3794 0.930 . S
C3802 C3801 1.362 . S
C3802 C3805 1.409 . S
C3803 H3795 0.930 . S
C3803 C3804 1.355 . S
C3803 C3805 1.415 . S
C3804 C3803 1.355 . S
C3804 C3806 1.419 . S
C3805 C3800 1.425 . S
C3805 C3802 1.409 . S
C3805 C3803 1.415 . S
C3806 H3796 0.930 . S
C3806 C3804 1.419 . S
C3806 C3807 1.362 . S
C3807 H3797 0.930 . S
C3807 C3800 1.409 . S
C3807 C3806 1.362 . S
H3808 C3814 0.930 . S
H3809 C3817 0.930 . S
H3810 C3818 0.930 . S
H3811 C3819 0.930 . S
H3812 C3822 0.930 . S
H3813 C3823 0.930 . S
C3814 H3808 0.930 . S
C3814 C3815 1.355 . S
C3814 C3816 1.415 . S
C3815 C3814 1.355 . S
C3815 C3817 1.419 . S
C3816 C3814 1.415 . S
C3816 C3821 1.425 . S
C3816 C3823 1.409 . S
C3817 H3809 0.930 . S
C3817 C3815 1.419 . S
C3817 C3818 1.362 . S
C3818 H3810 0.930 . S
C3818 C3817 1.362 . S
C3818 C3821 1.409 . S
C3819 H3811 0.930 . S
C3819 C3820 1.355 . S
C3819 C3821 1.415 . S
C3820 C3819 1.355 . S
C3820 C3822 1.419 . S
C3821 C3816 1.425 . S
C3821 C3818 1.409 . S
C3821 C3819 1.415 . S
C3822 H3812 0.930 . S
C3822 C3820 1.419 . S
C3822 C3823 1.362 . S
C3823 H3813 0.930 . S
C3823 C3816 1.409 . S
C3823 C3822 1.362 . S
H3824 C3830 0.930 . S
H3825 C3833 0.930 . S
H3826 C3834 0.930 . S
H3827 C3835 0.930 . S
H3828 C3838 0.930 . S
H3829 C3839 0.930 . S
C3830 H3824 0.930 . S
C3830 C3831 1.355 . S
C3830 C3832 1.415 . S
C3831 C3830 1.355 . S
C3831 C3833 1.419 . S
C3832 C3830 1.415 . S
C3832 C3837 1.425 1_655 S
C3832 C3839 1.409 1_655 S
C3833 H3825 0.930 . S
C3833 C3831 1.419 . S
C3833 C3834 1.362 . S
C3834 H3826 0.930 . S
C3834 C3833 1.362 . S
C3834 C3837 1.409 1_655 S
C3835 H3827 0.930 . S
C3835 C3836 1.355 . S
C3835 C3837 1.415 . S
C3836 C3835 1.355 . S
C3836 C3838 1.419 . S
C3837 C3832 1.425 1_455 S
C3837 C3834 1.409 1_455 S
C3837 C3835 1.415 . S
C3838 H3828 0.930 . S
C3838 C3836 1.419 . S
C3838 C3839 1.362 . S
C3839 H3829 0.930 . S
C3839 C3832 1.409 1_455 S
C3839 C3838 1.362 . S
C2823 C2073 1.560 . S
C2828 C29 1.601 . S
C2839 C1817 1.619 . S
C2844 C117 1.576 . S
C2855 C1905 1.615 . S
C2860 C196 1.592 . S
C2871 C1985 1.562 . S
C2876 C284 1.613 . S
C2887 C409 1.607 . S
C2892 C1516 1.560 . S
C2903 C1604 1.607 . S
C2908 C497 1.604 . S
C2919 C577 1.560 . S
C2924 C1701 1.608 . S
C2935 C673 1.609 . S
C2940 C1437 1.602 . S
C2951 C2757 1.596 . S
C2956 C724 1.556 . S
C2967 C841 1.587 . S
C2972 C2521 1.557 . S
C2983 C929 1.562 . S
C2988 C2581 1.577 . S
C2999 C1017 1.608 . S
C3004 C2669 1.560 . S
C3015 C1113 1.606 . S
C3020 C2249 1.598 . S
C3031 C1173 1.570 . S
C3036 C2337 1.568 . S
C3047 C1261 1.556 . S
C3052 C2425 1.594 . S
C3063 C1369 1.614 . S
C3068 C2132 1.569 . S
C3079 C57 1.581 . S
C3084 C1085 1.593 . S
C3095 C2609 1.590 . S
C3100 C145 1.584 . S
C3111 C225 1.580 . S
C3116 C1289 1.593 . S
C3127 C2785 1.590 . S
C3132 C313 1.585 . S
C3143 C753 1.589 . S
C3148 C381 1.582 . S
C3159 C469 1.586 . S
C3164 C2220 1.585 . S
C3175 C548 1.587 . S
C3180 C900 1.584 . S
C3191 C645 1.589 . S
C3196 C2396 1.585 . S
C3207 C1877 1.588 . S
C3212 C812 1.582 . S
C3223 C2044 1.589 . S
C3228 C988 1.585 . S
C3239 C1201 1.590 . S
C3244 C1545 1.582 . S
C3255 C1729 1.580 . S
C3260 C1340 1.593 . S
C3271 C2493 1.593 . S
C3276 C1465 1.581 . S
C3287 C1633 1.582 . S
C3292 C2697 1.592 . S
C3303 C2161 1.578 . S
C3308 C1789 1.593 . S
C3319 C2308 1.578 . S
C3324 C1956 1.593 . S
C3335 C372 1.014 . S
C3340 C49 1.061 . S
C3351 C460 1.025 . S
C3356 C137 1.055 . S
C3367 C233 1.046 . S
C3372 C557 1.033 . S
C3383 C321 1.043 . S
C3388 C636 1.038 . S
C3399 C1105 0.999 . S
C3404 C733 1.072 . S
C3415 C1164 1.025 . S
C3420 C849 1.049 . S
C3431 C1252 1.013 . S
C3436 C937 1.059 . S
C3447 C1025 1.060 . S
C3452 C1377 1.013 . S
C3463 C1457 1.046 . S
C3468 C1780 1.029 . S
C3479 C1553 1.041 . S
C3484 C1868 1.040 . S
C3495 C1641 1.029 . S
C3500 C1965 1.050 . S
C3511 C1721 1.012 . S
C3516 C2053 1.065 . S
C3527 C2513 1.042 . S
C3532 C2141 1.030 . S
C3543 C2572 1.001 . S
C3548 C2257 1.070 . S
C3559 C2660 0.999 . S
C3564 C2345 1.071 . S
C3575 C2748 1.054 . S
C3580 C2433 1.017 . S
C3591 C2689 1.446 . S
C3596 C20 1.401 . S
C3607 C108 1.420 . S
C3612 C1349 1.430 . S
C3623 C2484 1.417 . S
C3628 C205 1.428 . S
C3639 C293 1.449 . S
C3644 C1193 1.398 . S
C3655 C2317 1.444 . S
C3660 C401 1.402 . S
C3671 C489 1.448 . S
C3676 C997 1.399 . S
C3687 C585 1.401 . S
C3692 C2169 1.446 . S
C3703 C821 1.443 . S
C3708 C665 1.406 . S
C3719 C761 1.411 . S
C3724 C1993 1.434 . S
C3735 C1809 1.413 . S
C3740 C909 1.432 . S
C3751 C1076 1.424 . S
C3756 C1613 1.421 . S
C3767 C1281 1.428 . S
C3772 C1428 1.421 . S
C3783 C2777 1.433 . S
C3788 C1525 1.416 . S
C3799 C1692 1.435 . S
C3804 C2601 1.411 . S
C3815 C1897 1.402 . S
C3820 C2405 1.446 . S
C3831 C2229 1.441 . S
C3836 C2081 1.408 . S
