# Generated by pormake.
# Topology umc, (4)-cn, num edge types: 1
# Building blocks:
#     Node 0, Type 0, BuildingBlock: CEKHIL_clean_sbu_0, # of connection points: 4
#     Node 1, Type 0, BuildingBlock: CEKHIL_clean_sbu_0, # of connection points: 4
#     Node 2, Type 0, BuildingBlock: CEKHIL_clean_sbu_0, # of connection points: 4
#     Node 3, Type 0, BuildingBlock: CEKHIL_clean_sbu_0, # of connection points: 4
#     Node 4, Type 0, BuildingBlock: CEKHIL_clean_sbu_0, # of connection points: 4
#     Node 5, Type 0, BuildingBlock: CEKHIL_clean_sbu_0, # of connection points: 4
#     Node 6, Type 0, BuildingBlock: CEKHIL_clean_sbu_0, # of connection points: 4
#     Node 7, Type 0, BuildingBlock: CEKHIL_clean_sbu_0, # of connection points: 4
#     Node 8, Type 0, BuildingBlock: CEKHIL_clean_sbu_0, # of connection points: 4
#     Node 9, Type 0, BuildingBlock: CEKHIL_clean_sbu_0, # of connection points: 4
#     Node 10, Type 0, BuildingBlock: CEKHIL_clean_sbu_0, # of connection points: 4
#     Node 11, Type 0, BuildingBlock: CEKHIL_clean_sbu_0, # of connection points: 4
#     Node 12, Type 0, BuildingBlock: CEKHIL_clean_sbu_0, # of connection points: 4
#     Node 13, Type 0, BuildingBlock: CEKHIL_clean_sbu_0, # of connection points: 4
#     Node 14, Type 0, BuildingBlock: CEKHIL_clean_sbu_0, # of connection points: 4
#     Node 15, Type 0, BuildingBlock: CEKHIL_clean_sbu_0, # of connection points: 4
#     Edge 16, Type (0, 0), BuildingBlock: KIFKEQ_clean_linker_1, # of connection points: 2
#     Edge 17, Type (0, 0), BuildingBlock: KIFKEQ_clean_linker_1, # of connection points: 2
#     Edge 18, Type (0, 0), BuildingBlock: KIFKEQ_clean_linker_1, # of connection points: 2
#     Edge 19, Type (0, 0), BuildingBlock: KIFKEQ_clean_linker_1, # of connection points: 2
#     Edge 20, Type (0, 0), BuildingBlock: KIFKEQ_clean_linker_1, # of connection points: 2
#     Edge 21, Type (0, 0), BuildingBlock: KIFKEQ_clean_linker_1, # of connection points: 2
#     Edge 22, Type (0, 0), BuildingBlock: KIFKEQ_clean_linker_1, # of connection points: 2
#     Edge 23, Type (0, 0), BuildingBlock: KIFKEQ_clean_linker_1, # of connection points: 2
#     Edge 24, Type (0, 0), BuildingBlock: KIFKEQ_clean_linker_1, # of connection points: 2
#     Edge 25, Type (0, 0), BuildingBlock: KIFKEQ_clean_linker_1, # of connection points: 2
#     Edge 26, Type (0, 0), BuildingBlock: KIFKEQ_clean_linker_1, # of connection points: 2
#     Edge 27, Type (0, 0), BuildingBlock: KIFKEQ_clean_linker_1, # of connection points: 2
#     Edge 28, Type (0, 0), BuildingBlock: KIFKEQ_clean_linker_1, # of connection points: 2
#     Edge 29, Type (0, 0), BuildingBlock: KIFKEQ_clean_linker_1, # of connection points: 2
#     Edge 30, Type (0, 0), BuildingBlock: KIFKEQ_clean_linker_1, # of connection points: 2
#     Edge 31, Type (0, 0), BuildingBlock: KIFKEQ_clean_linker_1, # of connection points: 2
#     Edge 32, Type (0, 0), BuildingBlock: KIFKEQ_clean_linker_1, # of connection points: 2
#     Edge 33, Type (0, 0), BuildingBlock: KIFKEQ_clean_linker_1, # of connection points: 2
#     Edge 34, Type (0, 0), BuildingBlock: KIFKEQ_clean_linker_1, # of connection points: 2
#     Edge 35, Type (0, 0), BuildingBlock: KIFKEQ_clean_linker_1, # of connection points: 2
#     Edge 36, Type (0, 0), BuildingBlock: KIFKEQ_clean_linker_1, # of connection points: 2
#     Edge 37, Type (0, 0), BuildingBlock: KIFKEQ_clean_linker_1, # of connection points: 2
#     Edge 38, Type (0, 0), BuildingBlock: KIFKEQ_clean_linker_1, # of connection points: 2
#     Edge 39, Type (0, 0), BuildingBlock: KIFKEQ_clean_linker_1, # of connection points: 2
#     Edge 40, Type (0, 0), BuildingBlock: KIFKEQ_clean_linker_1, # of connection points: 2
#     Edge 41, Type (0, 0), BuildingBlock: KIFKEQ_clean_linker_1, # of connection points: 2
#     Edge 42, Type (0, 0), BuildingBlock: KIFKEQ_clean_linker_1, # of connection points: 2
#     Edge 43, Type (0, 0), BuildingBlock: KIFKEQ_clean_linker_1, # of connection points: 2
#     Edge 44, Type (0, 0), BuildingBlock: KIFKEQ_clean_linker_1, # of connection points: 2
#     Edge 45, Type (0, 0), BuildingBlock: KIFKEQ_clean_linker_1, # of connection points: 2
#     Edge 46, Type (0, 0), BuildingBlock: KIFKEQ_clean_linker_1, # of connection points: 2
#     Edge 47, Type (0, 0), BuildingBlock: KIFKEQ_clean_linker_1, # of connection points: 2
# Relax obj value: 0.083
# Max RMSD: 0.169
# Mean RMSD: 0.169
data_MOF--net-umc--node1-CEKHIL_clean_sbu_0--edge1-KIFKEQ_clean_linker_1
_symmetry_space_group_name_H-M    P1
_symmetry_Int_Tables_number       1
_symmetry_cell_setting            triclinic
loop_
_symmetry_equiv_pos_as_xyz
'x, y, z'
_cell_length_a     46.111295
_cell_length_b     33.52483
_cell_length_c     56.468234
_cell_angle_alpha  89.992359
_cell_angle_beta   89.994459
_cell_angle_gamma 90.046239
loop_
_atom_site_label
_atom_site_type_symbol
_atom_site_fract_x
_atom_site_fract_y
_atom_site_fract_z
_atom_type_partial_charge
Co0 Co 0.34075 0.06869 0.36879 0.0
O1 O 0.30421 0.09582 0.36702 0.0
O2 O 0.34332 0.12126 0.38374 0.0
C3 C 0.34157 0.04898 0.33076 0.0
O4 O 0.38261 0.04775 0.37266 0.0
Co5 Co 0.33971 0.97705 0.36139 0.0
O6 O 0.38223 0.98412 0.35974 0.0
C7 C 0.32197 0.00938 0.4073 0.0
C8 C 0.31607 0.12545 0.37802 0.0
C9 C 0.39577 0.01493 0.36704 0.0
O10 O 0.32884 0.04434 0.39985 0.0
O11 O 0.32337 0.97809 0.39439 0.0
O12 O 0.35007 0.08456 0.33661 0.0
O13 O 0.32992 0.02826 0.34761 0.0
Co14 Co 0.66962 0.92876 0.36869 0.0
O15 O 0.70634 0.90205 0.36742 0.0
O16 O 0.66684 0.87563 0.38295 0.0
C17 C 0.66994 0.94972 0.33086 0.0
O18 O 0.62767 0.94938 0.37189 0.0
Co19 Co 0.67104 0.02051 0.36265 0.0
O20 O 0.62854 0.01344 0.35974 0.0
C21 C 0.68796 0.98633 0.40826 0.0
C22 C 0.69431 0.87193 0.3778 0.0
C23 C 0.61472 0.98235 0.36626 0.0
O24 O 0.68021 0.95203 0.40032 0.0
O25 O 0.68806 0.01782 0.39544 0.0
O26 O 0.66144 0.9139 0.33614 0.0
O27 O 0.68103 0.96992 0.34818 0.0
Co28 Co 0.34143 0.93604 0.12341 0.0
O29 O 0.30448 0.90991 0.12532 0.0
O30 O 0.34322 0.8832 0.10876 0.0
C31 C 0.34247 0.95629 0.16134 0.0
O32 O 0.38362 0.95572 0.11946 0.0
Co33 Co 0.34201 0.02771 0.13027 0.0
O34 O 0.38435 0.01925 0.13249 0.0
C35 C 0.32344 0.9952 0.08461 0.0
C36 C 0.31591 0.8798 0.11451 0.0
C37 C 0.39738 0.98802 0.12526 0.0
O38 O 0.32988 0.96019 0.09222 0.0
O39 O 0.32536 0.02662 0.09738 0.0
O40 O 0.35047 0.92042 0.15568 0.0
O41 O 0.33119 0.97709 0.14436 0.0
Co42 Co 0.67271 0.06512 0.12373 0.0
O43 O 0.70954 0.09161 0.12559 0.0
O44 O 0.67061 0.11795 0.10913 0.0
C45 C 0.67187 0.04474 0.16168 0.0
O46 O 0.6306 0.04515 0.11981 0.0
Co47 Co 0.67241 0.97349 0.13047 0.0
O48 O 0.63002 0.98151 0.13265 0.0
C49 C 0.69073 0.00623 0.08479 0.0
C50 C 0.69791 0.12162 0.1148 0.0
C51 C 0.61692 0.01273 0.12549 0.0
O52 O 0.6843 0.04119 0.09248 0.0
O53 O 0.68886 0.97473 0.0975 0.0
O54 O 0.66369 0.08054 0.15604 0.0
O55 O 0.68318 0.02406 0.14466 0.0
Co56 Co 0.67259 0.93565 0.62347 0.0
O57 O 0.70912 0.90855 0.62513 0.0
O58 O 0.66986 0.88299 0.60869 0.0
C59 C 0.67213 0.95567 0.66146 0.0
O60 O 0.63071 0.95654 0.61979 0.0
Co61 Co 0.67382 0.02727 0.63041 0.0
O62 O 0.63128 0.02053 0.63207 0.0
C63 C 0.69141 0.99439 0.58464 0.0
C64 C 0.69716 0.87886 0.61426 0.0
C65 C 0.61765 0.98956 0.62514 0.0
O66 O 0.68432 0.95961 0.59225 0.0
O67 O 0.69022 0.02583 0.59744 0.0
O68 O 0.66353 0.92007 0.65575 0.0
O69 O 0.68365 0.97625 0.64448 0.0
Co70 Co 0.34323 0.07411 0.62373 0.0
O71 O 0.30609 0.0999 0.62273 0.0
O72 O 0.34681 0.12726 0.60988 0.0
C73 C 0.33989 0.05306 0.66137 0.0
O74 O 0.38564 0.0547 0.62277 0.0
Co75 Co 0.34308 0.98213 0.62984 0.0
O76 O 0.38525 0.99035 0.63443 0.0
C77 C 0.32807 0.01621 0.58367 0.0
C78 C 0.31892 0.13026 0.61324 0.0
C79 C 0.39882 0.02206 0.62867 0.0
O80 O 0.3356 0.05057 0.59165 0.0
O81 O 0.32724 0.98489 0.59664 0.0
O82 O 0.34815 0.08922 0.6567 0.0
O83 O 0.33088 0.03243 0.64344 0.0
Co84 Co 0.67041 0.07082 0.86853 0.0
O85 O 0.70712 0.09759 0.86754 0.0
O86 O 0.66744 0.12393 0.88275 0.0
C87 C 0.67109 0.04991 0.83071 0.0
O88 O 0.62842 0.05007 0.87133 0.0
Co89 Co 0.67211 0.97907 0.86256 0.0
O90 O 0.62962 0.98585 0.8595 0.0
C91 C 0.6884 0.01336 0.90827 0.0
C92 C 0.69496 0.1277 0.87779 0.0
C93 C 0.61564 0.01693 0.86576 0.0
O94 O 0.68062 0.04757 0.90025 0.0
O95 O 0.68876 0.98186 0.89547 0.0
O96 O 0.66258 0.08572 0.83595 0.0
O97 O 0.68206 0.02972 0.84809 0.0
Co98 Co 0.34099 0.93278 0.8676 0.0
O99 O 0.30394 0.90675 0.86754 0.0
O100 O 0.34403 0.87936 0.88134 0.0
C101 C 0.33871 0.95449 0.83004 0.0
O102 O 0.38333 0.95249 0.86942 0.0
Co103 Co 0.34039 0.02487 0.86222 0.0
O104 O 0.3827 0.01717 0.85845 0.0
C105 C 0.32507 0.98983 0.90803 0.0
C106 C 0.31629 0.87616 0.87714 0.0
C107 C 0.39641 0.98552 0.86407 0.0
O108 O 0.33246 0.95564 0.89973 0.0
O109 O 0.32446 0.0215 0.89536 0.0
O110 O 0.34692 0.91831 0.83464 0.0
O111 O 0.32909 0.9747 0.84791 0.0
Co112 Co 0.84094 0.56594 0.36875 0.0
O113 O 0.80413 0.59235 0.36665 0.0
O114 O 0.84281 0.6187 0.38353 0.0
C115 C 0.84217 0.54587 0.33075 0.0
O116 O 0.883 0.54595 0.37297 0.0
Co117 Co 0.84101 0.47431 0.36176 0.0
O118 O 0.88351 0.48185 0.3609 0.0
C119 C 0.82205 0.50677 0.4073 0.0
C120 C 0.81557 0.62229 0.37765 0.0
C121 C 0.89659 0.51317 0.36797 0.0
O122 O 0.8289 0.54174 0.39984 0.0
O123 O 0.82387 0.47541 0.39449 0.0
O124 O 0.85036 0.58162 0.33653 0.0
O125 O 0.83067 0.52508 0.34764 0.0
Co126 Co 0.17164 0.4331 0.36853 0.0
O127 O 0.20853 0.40668 0.36726 0.0
O128 O 0.16927 0.38039 0.38329 0.0
C129 C 0.17163 0.45311 0.33052 0.0
O130 O 0.12944 0.45297 0.37185 0.0
Co131 Co 0.17112 0.5247 0.36129 0.0
O132 O 0.1289 0.51592 0.35786 0.0
C133 C 0.18877 0.49265 0.40736 0.0
C134 C 0.19668 0.37672 0.37797 0.0
C135 C 0.11576 0.48489 0.3653 0.0
O136 O 0.18261 0.45749 0.39981 0.0
O137 O 0.18696 0.52394 0.39446 0.0
O138 O 0.16332 0.41733 0.33613 0.0
O139 O 0.18248 0.47399 0.34765 0.0
Co140 Co 0.84203 0.43016 0.12373 0.0
O141 O 0.80551 0.40293 0.12522 0.0
O142 O 0.84509 0.37699 0.1096 0.0
C143 C 0.84195 0.45141 0.1615 0.0
O144 O 0.88381 0.45136 0.12035 0.0
Co145 Co 0.8398 0.52194 0.12942 0.0
O146 O 0.88243 0.51586 0.13161 0.0
C147 C 0.82325 0.48709 0.08393 0.0
C148 C 0.81769 0.37292 0.11487 0.0
C149 C 0.89648 0.48483 0.12538 0.0
O150 O 0.83116 0.453 0.09205 0.0
O151 O 0.82292 0.51874 0.09661 0.0
O152 O 0.85055 0.41564 0.15625 0.0
O153 O 0.8305 0.47131 0.14421 0.0
Co154 Co 0.1702 0.57268 0.12425 0.0
O155 O 0.20692 0.59947 0.12546 0.0
O156 O 0.16725 0.62604 0.11036 0.0
C157 C 0.17081 0.55095 0.16191 0.0
O158 O 0.12824 0.55204 0.12121 0.0
Co159 Co 0.1717 0.4808 0.12963 0.0
O160 O 0.12926 0.48783 0.13308 0.0
C161 C 0.1881 0.51595 0.08414 0.0
C162 C 0.19476 0.62973 0.11535 0.0
C163 C 0.11536 0.51899 0.12684 0.0
O164 O 0.18046 0.55007 0.09239 0.0
O165 O 0.18834 0.48419 0.09673 0.0
O166 O 0.16232 0.58689 0.15694 0.0
O167 O 0.18178 0.53113 0.14439 0.0
Co168 Co 0.16857 0.43044 0.62387 0.0
O169 O 0.20529 0.40356 0.6238 0.0
O170 O 0.1647 0.3775 0.60977 0.0
C171 C 0.17043 0.45129 0.66166 0.0
O172 O 0.12659 0.45116 0.62189 0.0
Co173 Co 0.17028 0.52217 0.62991 0.0
O174 O 0.12782 0.51546 0.63352 0.0
C175 C 0.18562 0.48795 0.58394 0.0
C176 C 0.19242 0.37373 0.61379 0.0
C177 C 0.11383 0.48424 0.6275 0.0
O178 O 0.17781 0.45376 0.592 0.0
O179 O 0.18637 0.51939 0.59678 0.0
O180 O 0.16178 0.41546 0.65657 0.0
O181 O 0.1809 0.47156 0.64409 0.0
Co182 Co 0.8402 0.5704 0.62337 0.0
O183 O 0.8036 0.59738 0.62445 0.0
O184 O 0.84334 0.62337 0.60903 0.0
C185 C 0.83975 0.54955 0.6612 0.0
O186 O 0.88208 0.54954 0.6204 0.0
Co187 Co 0.83826 0.47868 0.62937 0.0
O188 O 0.88082 0.48526 0.6321 0.0
C189 C 0.82192 0.51294 0.58368 0.0
C190 C 0.81586 0.62733 0.61406 0.0
C191 C 0.89482 0.51633 0.62581 0.0
O192 O 0.82974 0.54714 0.59171 0.0
O193 O 0.82158 0.48142 0.59646 0.0
O194 O 0.84829 0.58535 0.65589 0.0
O195 O 0.82857 0.52937 0.6439 0.0
Co196 Co 0.17131 0.56822 0.86851 0.0
O197 O 0.20801 0.59496 0.86643 0.0
O198 O 0.16906 0.62122 0.88293 0.0
C199 C 0.17052 0.54748 0.83062 0.0
O200 O 0.1293 0.5479 0.87262 0.0
Co201 Co 0.17161 0.47651 0.86208 0.0
O202 O 0.12909 0.4837 0.86074 0.0
C203 C 0.18994 0.50993 0.90757 0.0
C204 C 0.19633 0.625 0.87714 0.0
C205 C 0.11584 0.51499 0.86761 0.0
O206 O 0.18313 0.54471 0.89982 0.0
O207 O 0.18835 0.47833 0.89493 0.0
O208 O 0.16211 0.58323 0.83615 0.0
O209 O 0.18195 0.5271 0.84771 0.0
Co210 Co 0.84075 0.43456 0.86839 0.0
O211 O 0.80387 0.40819 0.86675 0.0
O212 O 0.8429 0.3817 0.88299 0.0
C213 C 0.84115 0.45488 0.83044 0.0
O214 O 0.88293 0.45448 0.87203 0.0
Co215 Co 0.84117 0.52614 0.86164 0.0
O216 O 0.88341 0.51763 0.85838 0.0
C217 C 0.82302 0.49346 0.90739 0.0
C218 C 0.81553 0.37814 0.87747 0.0
C219 C 0.89659 0.48656 0.86568 0.0
O220 O 0.82943 0.45851 0.8997 0.0
O221 O 0.82486 0.52495 0.89467 0.0
O222 O 0.84943 0.4191 0.83602 0.0
O223 O 0.83008 0.47561 0.84754 0.0
H224 H 0.33257 0.94624 0.43666 0.0
H225 H 0.2948 0.064 0.435 0.0
H226 H 0.32892 0.94571 0.47978 0.0
H227 H 0.28975 0.06282 0.47789 0.0
H228 H 0.33118 0.0752 0.55059 0.0
H229 H 0.32396 0.07016 0.50839 0.0
H230 H 0.30154 0.94555 0.51587 0.0
H231 H 0.3099 0.95025 0.55854 0.0
C232 C 0.32265 0.97147 0.44549 0.0
C233 C 0.31437 0.00541 0.43258 0.0
C234 C 0.32046 0.97116 0.47021 0.0
C235 C 0.30957 0.00458 0.4824 0.0
C236 C 0.29906 0.03707 0.46917 0.0
C237 C 0.30175 0.03767 0.44458 0.0
C238 C 0.32451 0.04667 0.5434 0.0
C239 C 0.32132 0.01305 0.55805 0.0
C240 C 0.32006 0.04388 0.51908 0.0
C241 C 0.31196 0.00748 0.50863 0.0
C242 C 0.30803 0.97396 0.5233 0.0
C243 C 0.3127 0.9767 0.54777 0.0
H244 H 0.68117 0.05696 0.55476 0.0
H245 H 0.71899 0.93932 0.55754 0.0
H246 H 0.68587 0.05699 0.51172 0.0
H247 H 0.72519 0.94002 0.51475 0.0
H248 H 0.70591 0.05237 0.43344 0.0
H249 H 0.71373 0.0572 0.47616 0.0
H250 H 0.69266 0.93209 0.48341 0.0
H251 H 0.68611 0.92693 0.44116 0.0
C252 C 0.69131 0.03164 0.5462 0.0
C253 C 0.69932 0.9979 0.5594 0.0
C254 C 0.69411 0.03166 0.52151 0.0
C255 C 0.70542 0.99816 0.50963 0.0
C256 C 0.71557 0.96583 0.52318 0.0
C257 C 0.71223 0.9655 0.54773 0.0
C258 C 0.7034 0.02581 0.44416 0.0
C259 C 0.69524 0.98932 0.4338 0.0
C260 C 0.7077 0.02863 0.46868 0.0
C261 C 0.70384 0.99506 0.48334 0.0
C262 C 0.69646 0.95846 0.47278 0.0
C263 C 0.6924 0.95558 0.4484 0.0
H264 H 0.29608 0.94022 0.05722 0.0
H265 H 0.33335 0.05834 0.05504 0.0
H266 H 0.28987 0.9415 0.01445 0.0
H267 H 0.32853 0.059 0.01201 0.0
H268 H 0.30716 0.05522 0.93376 0.0
H269 H 0.30004 0.05931 0.9766 0.0
H270 H 0.32277 0.93469 0.98305 0.0
H271 H 0.32873 0.93024 0.94069 0.0
C272 C 0.30272 0.96663 0.04756 0.0
C273 C 0.3155 0.99899 0.05939 0.0
C274 C 0.29936 0.96729 0.02302 0.0
C275 C 0.3093 0.99997 0.00965 0.0
C276 C 0.32046 0.03341 0.02169 0.0
C277 C 0.32333 0.03302 0.04636 0.0
C278 C 0.31025 0.02862 0.94434 0.0
C279 C 0.31862 0.99246 0.93372 0.0
C280 C 0.30631 0.03101 0.96891 0.0
C281 C 0.31076 0.99734 0.98335 0.0
C282 C 0.3185 0.96109 0.97256 0.0
C283 C 0.32221 0.95863 0.94814 0.0
H284 H 0.70593 0.94741 0.93371 0.0
H285 H 0.68635 0.07293 0.94105 0.0
H286 H 0.71333 0.94281 0.97649 0.0
H287 H 0.69252 0.068 0.98335 0.0
H288 H 0.7186 0.06106 0.05761 0.0
H289 H 0.72492 0.06013 0.01484 0.0
H290 H 0.68512 0.94338 0.01192 0.0
H291 H 0.68024 0.94364 0.05495 0.0
C292 C 0.70337 0.97403 0.94436 0.0
C293 C 0.6954 0.01048 0.93387 0.0
C294 C 0.70745 0.97135 0.96891 0.0
C295 C 0.70355 0.00501 0.98347 0.0
C296 C 0.69634 0.04157 0.97279 0.0
C297 C 0.6925 0.04431 0.94839 0.0
C298 C 0.71173 0.03488 0.04784 0.0
C299 C 0.69864 0.00261 0.05954 0.0
C300 C 0.71516 0.03442 0.02329 0.0
C301 C 0.70493 0.00207 0.00978 0.0
C302 C 0.69342 0.96871 0.02169 0.0
C303 C 0.69051 0.96887 0.04637 0.0
H304 H 0.80501 0.44685 0.55805 0.0
H305 H 0.82343 0.57281 0.55108 0.0
H306 H 0.79799 0.44238 0.51522 0.0
H307 H 0.81769 0.56803 0.50875 0.0
H308 H 0.79334 0.56109 0.43418 0.0
H309 H 0.78611 0.55979 0.47686 0.0
H310 H 0.82657 0.44357 0.48009 0.0
H311 H 0.83228 0.44416 0.43714 0.0
C312 C 0.80737 0.4736 0.54747 0.0
C313 C 0.81494 0.51012 0.55808 0.0
C314 C 0.80353 0.47099 0.52289 0.0
C315 C 0.80728 0.50481 0.50841 0.0
C316 C 0.81401 0.54145 0.51922 0.0
C317 C 0.8176 0.54411 0.54365 0.0
C318 C 0.80015 0.53495 0.444 0.0
C319 C 0.81366 0.50292 0.43243 0.0
C320 C 0.7962 0.53427 0.46849 0.0
C321 C 0.80635 0.50197 0.48208 0.0
C322 C 0.81829 0.46884 0.47026 0.0
C323 C 0.8217 0.4692 0.44563 0.0
H324 H 0.20257 0.55396 0.55823 0.0
H325 H 0.18375 0.42809 0.55136 0.0
H326 H 0.21007 0.55815 0.51543 0.0
H327 H 0.19002 0.43261 0.50906 0.0
H328 H 0.21681 0.43874 0.435 0.0
H329 H 0.2228 0.44051 0.47779 0.0
H330 H 0.18203 0.55658 0.47983 0.0
H331 H 0.17748 0.55551 0.43678 0.0
C332 C 0.20018 0.52719 0.54768 0.0
C333 C 0.19242 0.49075 0.5583 0.0
C334 C 0.20432 0.52964 0.52312 0.0
C335 C 0.20071 0.49573 0.5087 0.0
C336 C 0.19363 0.45922 0.51951 0.0
C337 C 0.18972 0.45673 0.54392 0.0
C338 C 0.20965 0.46495 0.44458 0.0
C339 C 0.19638 0.49678 0.43264 0.0
C340 C 0.21289 0.46589 0.46913 0.0
C341 C 0.20229 0.49829 0.4824 0.0
C342 C 0.1906 0.53124 0.47024 0.0
C343 C 0.18788 0.5306 0.44556 0.0
H344 H 0.83327 0.55602 0.93733 0.0
H345 H 0.79491 0.43863 0.93438 0.0
H346 H 0.82775 0.55638 0.98031 0.0
H347 H 0.78793 0.43967 0.97708 0.0
H348 H 0.82518 0.42717 0.05137 0.0
H349 H 0.81956 0.43183 0.00901 0.0
H350 H 0.79902 0.55719 0.01539 0.0
H351 H 0.80589 0.55285 0.05823 0.0
C352 C 0.82289 0.5308 0.94583 0.0
C353 C 0.81493 0.49705 0.9326 0.0
C354 C 0.81959 0.53103 0.97048 0.0
C355 C 0.80786 0.49772 0.9823 0.0
C356 C 0.79785 0.46533 0.96871 0.0
C357 C 0.80166 0.46481 0.9442 0.0
C358 C 0.81918 0.45576 0.04391 0.0
C359 C 0.81624 0.48973 0.05832 0.0
C360 C 0.81566 0.45836 0.01946 0.0
C361 C 0.80875 0.4949 0.00863 0.0
C362 C 0.80471 0.52867 0.02308 0.0
C363 C 0.80847 0.52613 0.04767 0.0
H364 H 0.20649 0.45072 0.05847 0.0
H365 H 0.18507 0.57574 0.05155 0.0
H366 H 0.21383 0.4467 0.01567 0.0
H367 H 0.19115 0.57135 0.00922 0.0
H368 H 0.21688 0.56561 0.93479 0.0
H369 H 0.22335 0.56469 0.97754 0.0
H370 H 0.18557 0.44666 0.98037 0.0
H371 H 0.18057 0.44695 0.93737 0.0
C372 C 0.20351 0.47736 0.0479 0.0
C373 C 0.19506 0.51349 0.05852 0.0
C374 C 0.20755 0.475 0.02334 0.0
C375 C 0.2031 0.50867 0.00888 0.0
C376 C 0.19541 0.54494 0.01968 0.0
C377 C 0.19163 0.54737 0.04411 0.0
C378 C 0.21049 0.53918 0.94453 0.0
C379 C 0.19793 0.50653 0.93282 0.0
C380 C 0.214 0.53871 0.96907 0.0
C381 C 0.20439 0.50597 0.98256 0.0
C382 C 0.19341 0.47231 0.97062 0.0
C383 C 0.19042 0.47249 0.94596 0.0
H384 H 0.58146 0.04474 0.3513 0.0
H385 H 0.57467 0.92905 0.38467 0.0
H386 H 0.52946 0.05306 0.35387 0.0
H387 H 0.52205 0.93791 0.38764 0.0
H388 H 0.42814 0.94766 0.36087 0.0
H389 H 0.48015 0.93985 0.3625 0.0
H390 H 0.4894 0.06445 0.38041 0.0
H391 H 0.43664 0.07272 0.37825 0.0
C392 C 0.56893 0.02101 0.35937 0.0
C393 C 0.5825 0.98604 0.36775 0.0
C394 C 0.53895 0.02609 0.36102 0.0
C395 C 0.5214 0.99641 0.37112 0.0
C396 C 0.53485 0.96134 0.37956 0.0
C397 C 0.56504 0.9562 0.37788 0.0
C398 C 0.44105 0.97364 0.36522 0.0
C399 C 0.42793 0.01106 0.36923 0.0
C400 C 0.47108 0.96891 0.36639 0.0
C401 C 0.48916 0.00139 0.37161 0.0
C402 C 0.47616 0.03879 0.37606 0.0
C403 C 0.44589 0.04356 0.37493 0.0
H404 H 0.43157 0.05199 0.13597 0.0
H405 H 0.43666 0.93086 0.11003 0.0
H406 H 0.48369 0.05805 0.13377 0.0
H407 H 0.48952 0.93742 0.10738 0.0
H408 H 0.58282 0.94839 0.1357 0.0
H409 H 0.53069 0.94223 0.1334 0.0
H410 H 0.52477 0.06332 0.10775 0.0
H411 H 0.57759 0.06997 0.11052 0.0
C412 C 0.44374 0.02654 0.1296 0.0
C413 C 0.42963 0.99071 0.12328 0.0
C414 C 0.47383 0.03031 0.12813 0.0
C415 C 0.49099 0.99841 0.1203 0.0
C416 C 0.47701 0.96258 0.11372 0.0
C417 C 0.44668 0.95878 0.11517 0.0
C418 C 0.57062 0.97392 0.12949 0.0
C419 C 0.58468 0.00991 0.12342 0.0
C420 C 0.54052 0.9701 0.12795 0.0
C421 C 0.52334 0.00211 0.1203 0.0
C422 C 0.53729 0.03808 0.11395 0.0
C423 C 0.5676 0.04193 0.11547 0.0
H424 H 0.58594 0.05804 0.62681 0.0
H425 H 0.57619 0.93046 0.61908 0.0
H426 H 0.53388 0.06608 0.62662 0.0
H427 H 0.52335 0.93881 0.61831 0.0
H428 H 0.43283 0.96458 0.6485 0.0
H429 H 0.48487 0.95598 0.64542 0.0
H430 H 0.49058 0.06328 0.60331 0.0
H431 H 0.43806 0.0724 0.60678 0.0
C432 C 0.57271 0.03153 0.62488 0.0
C433 C 0.58549 0.9934 0.6232 0.0
C434 C 0.54265 0.03633 0.62454 0.0
C435 C 0.52423 0.0032 0.6225 0.0
C436 C 0.53688 0.96503 0.62022 0.0
C437 C 0.56718 0.96018 0.6205 0.0
C438 C 0.44507 0.98653 0.63857 0.0
C439 C 0.43108 0.01929 0.62787 0.0
C440 C 0.47502 0.98128 0.63662 0.0
C441 C 0.49206 0.00858 0.62389 0.0
C442 C 0.4782 0.04172 0.6134 0.0
C443 C 0.44807 0.04706 0.61541 0.0
H444 H 0.57467 0.07333 0.87872 0.0
H445 H 0.58316 0.95117 0.85519 0.0
H446 H 0.5219 0.06494 0.88008 0.0
H447 H 0.53107 0.94327 0.85614 0.0
H448 H 0.43665 0.92983 0.87939 0.0
H449 H 0.48938 0.93802 0.88181 0.0
H450 H 0.48173 0.05691 0.85304 0.0
H451 H 0.42966 0.04919 0.85095 0.0
C452 C 0.56541 0.04481 0.87382 0.0
C453 C 0.58339 0.0131 0.86681 0.0
C454 C 0.53513 0.03997 0.87452 0.0
C455 C 0.52213 0.00329 0.86827 0.0
C456 C 0.54018 0.97166 0.86148 0.0
C457 C 0.57025 0.97647 0.86074 0.0
C458 C 0.44625 0.95764 0.87356 0.0
C459 C 0.42869 0.98871 0.86499 0.0
C460 C 0.4765 0.9624 0.87492 0.0
C461 C 0.4899 0.99833 0.86777 0.0
C462 C 0.47228 0.02919 0.85917 0.0
C463 C 0.44225 0.02447 0.85779 0.0
H464 H 0.92921 0.44544 0.36685 0.0
H465 H 0.93716 0.57319 0.37489 0.0
H466 H 0.98137 0.43862 0.36795 0.0
H467 H 0.99005 0.56609 0.37657 0.0
H468 H 0.081 0.54252 0.3465 0.0
H469 H 0.029 0.55011 0.34982 0.0
H470 H 0.02451 0.44231 0.39155 0.0
H471 H 0.07714 0.43416 0.38786 0.0
C472 C 0.94206 0.47224 0.36905 0.0
C473 C 0.92875 0.51006 0.3705 0.0
C474 C 0.97216 0.46815 0.36993 0.0
C475 C 0.99012 0.5017 0.37229 0.0
C476 C 0.97692 0.53955 0.37442 0.0
C477 C 0.94657 0.54368 0.3736 0.0
C478 C 0.06911 0.52027 0.35647 0.0
C479 C 0.0835 0.48759 0.36693 0.0
C480 C 0.03912 0.52496 0.35855 0.0
C481 C 0.02239 0.49716 0.37115 0.0
C482 C 0.03665 0.46425 0.38155 0.0
C483 C 0.06685 0.45949 0.37944 0.0
H484 H 0.07517 0.57207 0.10854 0.0
H485 H 0.08224 0.45684 0.14241 0.0
H486 H 0.02254 0.56298 0.10582 0.0
H487 H 0.03024 0.44828 0.14007 0.0
H488 H 0.93779 0.42745 0.11493 0.0
H489 H 0.99051 0.43627 0.11328 0.0
H490 H 0.98046 0.56083 0.13094 0.0
H491 H 0.92842 0.55247 0.13209 0.0
C492 C 0.0656 0.54499 0.1155 0.0
C493 C 0.08314 0.5153 0.12566 0.0
C494 C 0.0354 0.53972 0.11396 0.0
C495 C 0.02205 0.50467 0.12257 0.0
C496 C 0.03966 0.47522 0.13278 0.0
C497 C 0.06965 0.48042 0.1343 0.0
C498 C 0.94685 0.45671 0.11834 0.0
C499 C 0.92865 0.48905 0.12376 0.0
C500 C 0.9771 0.4618 0.11748 0.0
C501 C 0.98985 0.49936 0.12198 0.0
C502 C 0.97156 0.53167 0.12702 0.0
C503 C 0.94153 0.52662 0.1279 0.0
H504 H 0.93582 0.5734 0.61391 0.0
H505 H 0.92716 0.44991 0.63485 0.0
H506 H 0.98859 0.56513 0.61247 0.0
H507 H 0.97924 0.4421 0.63386 0.0
H508 H 0.07355 0.4298 0.61086 0.0
H509 H 0.02091 0.43837 0.60829 0.0
H510 H 0.02872 0.55559 0.63937 0.0
H511 H 0.0808 0.54751 0.64156 0.0
C512 C 0.94505 0.5446 0.61821 0.0
C513 C 0.92703 0.5125 0.62456 0.0
C514 C 0.97532 0.53983 0.61747 0.0
C515 C 0.98827 0.50283 0.62301 0.0
C516 C 0.97017 0.47079 0.6291 0.0
C517 C 0.94012 0.47552 0.62987 0.0
C518 C 0.06401 0.45733 0.61716 0.0
C519 C 0.0816 0.48783 0.62642 0.0
C520 C 0.03381 0.4623 0.61572 0.0
C521 C 0.02048 0.49785 0.62351 0.0
C522 C 0.03813 0.52818 0.63276 0.0
C523 C 0.06815 0.52327 0.6342 0.0
H524 H 0.07536 0.57446 0.87604 0.0
H525 H 0.08307 0.44741 0.86462 0.0
H526 H 0.0225 0.5672 0.87795 0.0
H527 H 0.03093 0.44051 0.86597 0.0
H528 H 0.93547 0.43453 0.88683 0.0
H529 H 0.98816 0.44249 0.8902 0.0
H530 H 0.98316 0.55311 0.85122 0.0
H531 H 0.93113 0.5457 0.84822 0.0
C532 C 0.06591 0.54507 0.87402 0.0
C533 C 0.08367 0.51171 0.86997 0.0
C534 C 0.03558 0.54086 0.87498 0.0
C535 C 0.02231 0.50319 0.87204 0.0
C536 C 0.04019 0.46986 0.86862 0.0
C537 C 0.0703 0.47403 0.8676 0.0
C538 C 0.94565 0.46046 0.87897 0.0
C539 C 0.92885 0.48937 0.86729 0.0
C540 C 0.97589 0.4651 0.88089 0.0
C541 C 0.99002 0.49871 0.87114 0.0
C542 C 0.97314 0.52736 0.85942 0.0
C543 C 0.94313 0.52279 0.85753 0.0
H544 H 0.17855 0.30421 0.3959 0.0
H545 H 0.25453 0.36694 0.37109 0.0
H546 H 0.20767 0.24358 0.40067 0.0
H547 H 0.2832 0.3068 0.37525 0.0
H548 H 0.33427 0.19781 0.39622 0.0
H549 H 0.30523 0.25856 0.40095 0.0
H550 H 0.22983 0.19586 0.37484 0.0
H551 H 0.25839 0.13566 0.37072 0.0
C552 C 0.20144 0.30517 0.39164 0.0
C553 C 0.21408 0.34034 0.38292 0.0
C554 C 0.21815 0.2704 0.39425 0.0
C555 C 0.24788 0.27011 0.38824 0.0
C556 C 0.26058 0.30581 0.38037 0.0
C557 C 0.24396 0.34035 0.37776 0.0
C558 C 0.31143 0.197 0.39181 0.0
C559 C 0.29878 0.16195 0.38292 0.0
C560 C 0.29476 0.23183 0.39439 0.0
C561 C 0.26509 0.23229 0.3882 0.0
C562 C 0.2524 0.19672 0.38012 0.0
C563 C 0.26897 0.16214 0.37753 0.0
H564 H 0.67607 0.79864 0.39467 0.0
H565 H 0.75229 0.86287 0.37176 0.0
H566 H 0.70547 0.73818 0.39932 0.0
H567 H 0.7812 0.80301 0.37578 0.0
H568 H 0.83264 0.69456 0.39664 0.0
H569 H 0.80291 0.75464 0.40143 0.0
H570 H 0.72877 0.69131 0.37352 0.0
H571 H 0.75799 0.63172 0.36936 0.0
C572 C 0.69906 0.79996 0.39081 0.0
C573 C 0.71171 0.83552 0.38266 0.0
C574 C 0.71593 0.76531 0.39335 0.0
C575 C 0.74581 0.76554 0.38784 0.0
C576 C 0.75847 0.8016 0.38052 0.0
C577 C 0.7417 0.83599 0.37798 0.0
C578 C 0.80992 0.69347 0.39182 0.0
C579 C 0.79783 0.65842 0.38243 0.0
C580 C 0.79286 0.72791 0.39445 0.0
C581 C 0.76334 0.72801 0.38778 0.0
C582 C 0.75119 0.69243 0.37918 0.0
C583 C 0.76815 0.65821 0.37656 0.0
H584 H 0.25268 0.6392 0.12162 0.0
H585 H 0.17644 0.70285 0.09837 0.0
H586 H 0.28153 0.69914 0.11743 0.0
H587 H 0.20578 0.76338 0.09353 0.0
H588 H 0.25831 0.87048 0.12279 0.0
H589 H 0.22907 0.81076 0.119 0.0
H590 H 0.30322 0.74708 0.09149 0.0
H591 H 0.33295 0.80728 0.09592 0.0
C592 C 0.24207 0.66597 0.11529 0.0
C593 C 0.2121 0.66625 0.11055 0.0
C594 C 0.2588 0.7004 0.11265 0.0
C595 C 0.24613 0.73631 0.10515 0.0
C596 C 0.21625 0.73637 0.09964 0.0
C597 C 0.19941 0.70168 0.10228 0.0
C598 C 0.26846 0.84388 0.11574 0.0
C599 C 0.29814 0.84362 0.10988 0.0
C600 C 0.2515 0.80959 0.11335 0.0
C601 C 0.26365 0.77388 0.10498 0.0
C602 C 0.29317 0.77391 0.0983 0.0
C603 C 0.31023 0.80843 0.10071 0.0
H604 H 0.75556 0.13148 0.12268 0.0
H605 H 0.68031 0.19396 0.09636 0.0
H606 H 0.78445 0.19152 0.11868 0.0
H607 H 0.70967 0.25446 0.09174 0.0
H608 H 0.7599 0.36279 0.12161 0.0
H609 H 0.73136 0.30254 0.11761 0.0
H610 H 0.80717 0.23922 0.09298 0.0
H611 H 0.83622 0.30008 0.09761 0.0
C612 C 0.7452 0.15799 0.11572 0.0
C613 C 0.71546 0.15797 0.11007 0.0
C614 C 0.76195 0.19246 0.1132 0.0
C615 C 0.74952 0.22805 0.10493 0.0
C616 C 0.71993 0.22773 0.09847 0.0
C617 C 0.70309 0.19304 0.10099 0.0
C618 C 0.77059 0.33616 0.11516 0.0
C619 C 0.80051 0.33623 0.11015 0.0
C620 C 0.75403 0.30155 0.11263 0.0
C621 C 0.76682 0.26581 0.10498 0.0
C622 C 0.79662 0.2661 0.0992 0.0
C623 C 0.81329 0.30098 0.10173 0.0
H624 H 0.67902 0.80689 0.59553 0.0
H625 H 0.75474 0.86842 0.62189 0.0
H626 H 0.70805 0.7462 0.59056 0.0
H627 H 0.78326 0.80826 0.61758 0.0
H628 H 0.83458 0.69995 0.59663 0.0
H629 H 0.80568 0.76078 0.59178 0.0
H630 H 0.72959 0.69765 0.61617 0.0
H631 H 0.758 0.63736 0.62035 0.0
C632 C 0.70183 0.80756 0.60009 0.0
C633 C 0.71443 0.84241 0.60929 0.0
C634 C 0.71848 0.77278 0.59737 0.0
C635 C 0.74809 0.77216 0.60375 0.0
C636 C 0.76075 0.80754 0.61214 0.0
C637 C 0.7442 0.84209 0.61484 0.0
C638 C 0.81162 0.69907 0.60063 0.0
C639 C 0.79872 0.66388 0.60907 0.0
C640 C 0.79503 0.73394 0.59798 0.0
C641 C 0.76521 0.7343 0.60368 0.0
C642 C 0.75229 0.69859 0.61127 0.0
C643 C 0.76877 0.66396 0.61391 0.0
H644 H 0.17571 0.29546 0.61722 0.0
H645 H 0.24758 0.37089 0.59774 0.0
H646 H 0.20688 0.23692 0.61402 0.0
H647 H 0.27837 0.31268 0.59278 0.0
H648 H 0.33544 0.20852 0.61694 0.0
H649 H 0.3042 0.26698 0.61402 0.0
H650 H 0.23273 0.1913 0.59266 0.0
H651 H 0.26362 0.13309 0.59732 0.0
C652 C 0.19798 0.2993 0.61154 0.0
C653 C 0.20928 0.3376 0.60785 0.0
C654 C 0.21599 0.26572 0.6096 0.0
C655 C 0.24556 0.26966 0.60336 0.0
C656 C 0.25615 0.30813 0.59834 0.0
C657 C 0.23838 0.34161 0.60088 0.0
C658 C 0.31316 0.20466 0.61129 0.0
C659 C 0.30191 0.16637 0.60747 0.0
C660 C 0.29511 0.23821 0.60951 0.0
C661 C 0.26553 0.23428 0.60331 0.0
C662 C 0.25496 0.19583 0.59817 0.0
C663 C 0.2728 0.16236 0.60055 0.0
H664 H 0.67656 0.20084 0.89469 0.0
H665 H 0.75291 0.13713 0.87173 0.0
H666 H 0.70582 0.26147 0.89933 0.0
H667 H 0.78167 0.19718 0.8757 0.0
H668 H 0.83291 0.30594 0.89631 0.0
H669 H 0.80336 0.24566 0.90118 0.0
H670 H 0.72889 0.30855 0.87361 0.0
H671 H 0.75794 0.36836 0.86941 0.0
C672 C 0.69954 0.19967 0.89081 0.0
C673 C 0.71227 0.16421 0.88266 0.0
C674 C 0.71634 0.23443 0.89334 0.0
C675 C 0.74621 0.2344 0.8878 0.0
C676 C 0.75895 0.19844 0.88048 0.0
C677 C 0.74226 0.16393 0.87796 0.0
C678 C 0.81016 0.30689 0.89159 0.0
C679 C 0.79791 0.34189 0.8823 0.0
C680 C 0.7932 0.27233 0.89426 0.0
C681 C 0.76364 0.27205 0.88771 0.0
C682 C 0.75135 0.30757 0.87919 0.0
C683 C 0.7682 0.34191 0.87655 0.0
H684 H 0.17902 0.69691 0.89645 0.0
H685 H 0.25361 0.63553 0.86803 0.0
H686 H 0.20842 0.75739 0.90112 0.0
H687 H 0.28247 0.69551 0.87204 0.0
H688 H 0.33503 0.80272 0.89318 0.0
H689 H 0.30593 0.74197 0.89777 0.0
H690 H 0.22951 0.80668 0.87582 0.0
H691 H 0.25815 0.86691 0.87192 0.0
C692 C 0.20166 0.69623 0.89133 0.0
C693 C 0.21384 0.66145 0.88171 0.0
C694 C 0.21852 0.73091 0.8939 0.0
C695 C 0.24792 0.73151 0.8869 0.0
C696 C 0.26015 0.69623 0.87798 0.0
C697 C 0.24339 0.66178 0.87545 0.0
C698 C 0.31196 0.80396 0.88966 0.0
C699 C 0.29903 0.8396 0.882 0.0
C700 C 0.29526 0.76913 0.89216 0.0
C701 C 0.26528 0.76923 0.88705 0.0
C702 C 0.25234 0.80536 0.88024 0.0
C703 C 0.26894 0.83996 0.87777 0.0
H704 H 0.32619 0.97582 0.31337 0.0
H705 H 0.36187 0.08981 0.29261 0.0
H706 H 0.32775 0.95381 0.27211 0.0
H707 H 0.36369 0.0677 0.25155 0.0
H708 H 0.32753 0.02976 0.17849 0.0
H709 H 0.3286 0.05185 0.21975 0.0
H710 H 0.36334 0.93756 0.24076 0.0
H711 H 0.362 0.91539 0.1997 0.0
C712 C 0.33452 0.99602 0.30003 0.0
C713 C 0.34378 0.03454 0.30617 0.0
C714 C 0.33554 0.9834 0.27644 0.0
C715 C 0.34572 0.00915 0.2586 0.0
C716 C 0.35536 0.04744 0.26485 0.0
C717 C 0.35447 0.05996 0.2884 0.0
C718 C 0.33551 0.00949 0.19193 0.0
C719 C 0.34454 0.97084 0.18592 0.0
C720 C 0.33624 0.02215 0.21551 0.0
C721 C 0.34591 0.99631 0.23349 0.0
C722 C 0.35538 0.9579 0.22735 0.0
C723 C 0.35477 0.94533 0.20381 0.0
H724 H 0.65251 0.08553 0.20016 0.0
H725 H 0.68697 0.97127 0.17877 0.0
H726 H 0.65095 0.06306 0.24117 0.0
H727 H 0.68569 0.94888 0.21997 0.0
H728 H 0.65071 0.90983 0.29205 0.0
H729 H 0.65006 0.93268 0.25114 0.0
H730 H 0.68562 0.04607 0.27306 0.0
H731 H 0.686 0.02326 0.31423 0.0
C732 C 0.65971 0.05556 0.20422 0.0
C733 C 0.66993 0.03014 0.18627 0.0
C734 C 0.65899 0.04282 0.22774 0.0
C735 C 0.66833 0.00432 0.23381 0.0
C736 C 0.67813 0.97864 0.21579 0.0
C737 C 0.67897 0.99147 0.19224 0.0
C738 C 0.6583 0.93972 0.28819 0.0
C739 C 0.66851 0.96475 0.30633 0.0
C740 C 0.65808 0.95267 0.26472 0.0
C741 C 0.66796 0.99103 0.25886 0.0
C742 C 0.67768 0.01641 0.27707 0.0
C743 C 0.67802 0.00335 0.3006 0.0
H744 H 0.68714 0.97638 0.81406 0.0
H745 H 0.65187 0.08981 0.79196 0.0
H746 H 0.68666 0.95364 0.77286 0.0
H747 H 0.65112 0.06705 0.75106 0.0
H748 H 0.68779 0.02885 0.67866 0.0
H749 H 0.68687 0.05094 0.71991 0.0
H750 H 0.65167 0.93687 0.74099 0.0
H751 H 0.65285 0.91469 0.69991 0.0
C752 C 0.67916 0.99631 0.80045 0.0
C753 C 0.66969 0.03488 0.80619 0.0
C754 C 0.67877 0.98329 0.77691 0.0
C755 C 0.66902 0.00871 0.75874 0.0
C756 C 0.65918 0.04704 0.76462 0.0
C757 C 0.65944 0.05994 0.78808 0.0
C758 C 0.67978 0.00861 0.69211 0.0
C759 C 0.67047 0.97007 0.68609 0.0
C760 C 0.67915 0.02126 0.71569 0.0
C761 C 0.6693 0.99553 0.73368 0.0
C762 C 0.65974 0.95713 0.72757 0.0
C763 C 0.66024 0.94458 0.70402 0.0
H764 H 0.32668 0.91254 0.79051 0.0
H765 H 0.35005 0.03015 0.81481 0.0
H766 H 0.32568 0.93615 0.74992 0.0
H767 H 0.35185 0.05354 0.77396 0.0
H768 H 0.3282 0.09553 0.70082 0.0
H769 H 0.32665 0.07211 0.74145 0.0
H770 H 0.35154 0.95411 0.71767 0.0
H771 H 0.35031 0.97733 0.67681 0.0
C772 C 0.33201 0.94347 0.787 0.0
C773 C 0.33835 0.96965 0.80564 0.0
C774 C 0.33178 0.95702 0.76365 0.0
C775 C 0.33889 0.99687 0.75829 0.0
C776 C 0.34557 0.02292 0.77718 0.0
C777 C 0.34481 0.00957 0.80065 0.0
C778 C 0.33313 0.06451 0.7044 0.0
C779 C 0.33925 0.03811 0.68581 0.0
C780 C 0.33258 0.05106 0.72777 0.0
C781 C 0.33912 0.01108 0.73321 0.0
C782 C 0.34566 0.98484 0.71439 0.0
C783 C 0.34522 0.9981 0.6909 0.0
H784 H 0.86276 0.41235 0.2 0.0
H785 H 0.8253 0.52464 0.17828 0.0
H786 H 0.86408 0.4353 0.24085 0.0
H787 H 0.82636 0.54758 0.21945 0.0
H788 H 0.86046 0.58752 0.29218 0.0
H789 H 0.86153 0.56546 0.25105 0.0
H790 H 0.82855 0.45025 0.27233 0.0
H791 H 0.82772 0.47223 0.31359 0.0
C792 C 0.85483 0.44201 0.20395 0.0
C793 C 0.84378 0.46667 0.18596 0.0
C794 C 0.85544 0.45503 0.22739 0.0
C795 C 0.84512 0.49308 0.23338 0.0
C796 C 0.83462 0.51815 0.21532 0.0
C797 C 0.8339 0.50502 0.1918 0.0
C798 C 0.85356 0.55741 0.2881 0.0
C799 C 0.84395 0.53157 0.30608 0.0
C800 C 0.85399 0.54491 0.26452 0.0
C801 C 0.84501 0.50623 0.25846 0.0
C802 C 0.83583 0.48016 0.2765 0.0
C803 C 0.83524 0.49275 0.3001 0.0
H804 H 0.15344 0.41211 0.29168 0.0
H805 H 0.1863 0.52694 0.3138 0.0
H806 H 0.15217 0.43504 0.25072 0.0
H807 H 0.18532 0.54977 0.27272 0.0
H808 H 0.15071 0.58946 0.20088 0.0
H809 H 0.1498 0.56563 0.24157 0.0
H810 H 0.18675 0.45351 0.21902 0.0
H811 H 0.18736 0.4773 0.17803 0.0
C812 C 0.16036 0.44229 0.28779 0.0
C813 C 0.17001 0.46776 0.30592 0.0
C814 C 0.15981 0.45529 0.26431 0.0
C815 C 0.16874 0.49412 0.25849 0.0
C816 C 0.17805 0.51977 0.27669 0.0
C817 C 0.17873 0.50669 0.30019 0.0
C818 C 0.15856 0.55964 0.20456 0.0
C819 C 0.16924 0.53526 0.18629 0.0
C820 C 0.15819 0.54612 0.2279 0.0
C821 C 0.1684 0.50785 0.23352 0.0
C822 C 0.17856 0.48309 0.21519 0.0
C823 C 0.17903 0.49672 0.19176 0.0
H824 H 0.15141 0.58788 0.79188 0.0
H825 H 0.18643 0.47422 0.8138 0.0
H826 H 0.15068 0.56522 0.75088 0.0
H827 H 0.18599 0.45166 0.77264 0.0
H828 H 0.15171 0.41152 0.70063 0.0
H829 H 0.15078 0.43477 0.74141 0.0
H830 H 0.18572 0.54835 0.71916 0.0
H831 H 0.18634 0.52512 0.67804 0.0
C832 C 0.15891 0.558 0.78794 0.0
C833 C 0.16902 0.53278 0.80603 0.0
C834 C 0.15868 0.54517 0.76442 0.0
C835 C 0.16841 0.50678 0.75852 0.0
C836 C 0.17814 0.48133 0.77668 0.0
C837 C 0.17849 0.49425 0.80022 0.0
C838 C 0.15914 0.44152 0.70438 0.0
C839 C 0.16921 0.4665 0.68615 0.0
C840 C 0.15877 0.45471 0.72779 0.0
C841 C 0.16835 0.49325 0.73352 0.0
C842 C 0.17801 0.51855 0.71524 0.0
C843 C 0.17849 0.50525 0.69175 0.0
H844 H 0.82387 0.47598 0.67799 0.0
H845 H 0.85954 0.58941 0.69978 0.0
H846 H 0.82502 0.45314 0.71917 0.0
H847 H 0.86096 0.56654 0.74065 0.0
H848 H 0.8256 0.52821 0.81345 0.0
H849 H 0.82592 0.5504 0.77221 0.0
H850 H 0.86035 0.43622 0.75067 0.0
H851 H 0.85976 0.41394 0.79174 0.0
C852 C 0.83208 0.49589 0.69153 0.0
C853 C 0.84147 0.53449 0.6857 0.0
C854 C 0.83286 0.48281 0.71506 0.0
C855 C 0.84292 0.50819 0.73314 0.0
C856 C 0.85267 0.54656 0.72718 0.0
C857 C 0.85202 0.55952 0.70373 0.0
C858 C 0.83333 0.50797 0.7999 0.0
C859 C 0.84257 0.46936 0.80579 0.0
C860 C 0.83361 0.52067 0.77632 0.0
C861 C 0.84305 0.49495 0.7582 0.0
C862 C 0.85258 0.45649 0.76419 0.0
C863 C 0.85242 0.44387 0.78774 0.0
loop_
_geom_bond_atom_site_label_1
_geom_bond_atom_site_label_2
_geom_bond_distance
_geom_bond_site_symmetry_2
_ccdc_geom_bond_type
Co0 O1 2.216 . S
Co0 O2 2.091 . S
Co0 O4 2.004 . S
Co0 O10 2.021 . S
Co0 O12 2.137 . S
Co0 O13 2.244 . S
O1 Co0 2.216 . S
O1 C8 1.247 . S
O2 Co0 2.091 . S
O2 C8 1.261 . S
C3 O12 1.247 . S
C3 O13 1.272 . S
O4 Co0 2.004 . S
O4 C9 1.259 . S
Co5 O6 2.061 . S
Co5 O11 2.052 . S
Co5 O13 2.135 1_565 S
O6 Co5 2.061 . S
O6 C9 1.235 1_565 S
C7 O10 1.238 . S
C7 O11 1.241 1_545 S
C8 O1 1.247 . S
C8 O2 1.261 . S
C9 O4 1.259 . S
C9 O6 1.235 1_545 S
O10 Co0 2.021 . S
O10 C7 1.238 . S
O11 Co5 2.052 . S
O11 C7 1.241 1_565 S
O12 Co0 2.137 . S
O12 C3 1.247 . S
O13 Co0 2.244 . S
O13 C3 1.272 . S
O13 Co5 2.135 1_545 S
Co14 O15 2.216 . S
Co14 O16 2.091 . S
Co14 O18 2.004 . S
Co14 O24 2.021 . S
Co14 O26 2.137 . S
Co14 O27 2.244 . S
O15 Co14 2.216 . S
O15 C22 1.247 . S
O16 Co14 2.091 . S
O16 C22 1.261 . S
C17 O26 1.247 . S
C17 O27 1.272 . S
O18 Co14 2.004 . S
O18 C23 1.259 . S
Co19 O20 2.061 . S
Co19 O25 2.052 . S
Co19 O27 2.135 1_545 S
O20 Co19 2.061 . S
O20 C23 1.235 1_545 S
C21 O24 1.238 . S
C21 O25 1.241 1_565 S
C22 O15 1.247 . S
C22 O16 1.261 . S
C23 O18 1.259 . S
C23 O20 1.235 1_565 S
O24 Co14 2.021 . S
O24 C21 1.238 . S
O25 Co19 2.052 . S
O25 C21 1.241 1_545 S
O26 Co14 2.137 . S
O26 C17 1.247 . S
O27 Co14 2.244 . S
O27 C17 1.272 . S
O27 Co19 2.135 1_565 S
Co28 O29 2.216 . S
Co28 O30 2.091 . S
Co28 O32 2.004 . S
Co28 O38 2.021 . S
Co28 O40 2.137 . S
Co28 O41 2.244 . S
O29 Co28 2.216 . S
O29 C36 1.247 . S
O30 Co28 2.091 . S
O30 C36 1.261 . S
C31 O40 1.247 . S
C31 O41 1.272 . S
O32 Co28 2.004 . S
O32 C37 1.259 . S
Co33 O34 2.061 . S
Co33 O39 2.052 . S
Co33 O41 2.135 1_545 S
O34 Co33 2.061 . S
O34 C37 1.235 1_545 S
C35 O38 1.238 . S
C35 O39 1.241 1_565 S
C36 O29 1.247 . S
C36 O30 1.261 . S
C37 O32 1.259 . S
C37 O34 1.235 1_565 S
O38 Co28 2.021 . S
O38 C35 1.238 . S
O39 Co33 2.052 . S
O39 C35 1.241 1_545 S
O40 Co28 2.137 . S
O40 C31 1.247 . S
O41 Co28 2.244 . S
O41 C31 1.272 . S
O41 Co33 2.135 1_565 S
Co42 O43 2.216 . S
Co42 O44 2.091 . S
Co42 O46 2.004 . S
Co42 O52 2.021 . S
Co42 O54 2.137 . S
Co42 O55 2.244 . S
O43 Co42 2.216 . S
O43 C50 1.247 . S
O44 Co42 2.091 . S
O44 C50 1.261 . S
C45 O54 1.247 . S
C45 O55 1.272 . S
O46 Co42 2.004 . S
O46 C51 1.259 . S
Co47 O48 2.061 . S
Co47 O53 2.052 . S
Co47 O55 2.135 1_565 S
O48 Co47 2.061 . S
O48 C51 1.235 1_565 S
C49 O52 1.238 . S
C49 O53 1.241 1_545 S
C50 O43 1.247 . S
C50 O44 1.261 . S
C51 O46 1.259 . S
C51 O48 1.235 1_545 S
O52 Co42 2.021 . S
O52 C49 1.238 . S
O53 Co47 2.052 . S
O53 C49 1.241 1_565 S
O54 Co42 2.137 . S
O54 C45 1.247 . S
O55 Co42 2.244 . S
O55 C45 1.272 . S
O55 Co47 2.135 1_545 S
Co56 O57 2.216 . S
Co56 O58 2.091 . S
Co56 O60 2.004 . S
Co56 O66 2.021 . S
Co56 O68 2.137 . S
Co56 O69 2.244 . S
O57 Co56 2.216 . S
O57 C64 1.247 . S
O58 Co56 2.091 . S
O58 C64 1.261 . S
C59 O68 1.247 . S
C59 O69 1.272 . S
O60 Co56 2.004 . S
O60 C65 1.259 . S
Co61 O62 2.061 . S
Co61 O67 2.052 . S
Co61 O69 2.135 1_545 S
O62 Co61 2.061 . S
O62 C65 1.235 1_545 S
C63 O66 1.238 . S
C63 O67 1.241 1_565 S
C64 O57 1.247 . S
C64 O58 1.261 . S
C65 O60 1.259 . S
C65 O62 1.235 1_565 S
O66 Co56 2.021 . S
O66 C63 1.238 . S
O67 Co61 2.052 . S
O67 C63 1.241 1_545 S
O68 Co56 2.137 . S
O68 C59 1.247 . S
O69 Co56 2.244 . S
O69 C59 1.272 . S
O69 Co61 2.135 1_565 S
Co70 O71 2.216 . S
Co70 O72 2.091 . S
Co70 O74 2.004 . S
Co70 O80 2.021 . S
Co70 O82 2.137 . S
Co70 O83 2.244 . S
O71 Co70 2.216 . S
O71 C78 1.247 . S
O72 Co70 2.091 . S
O72 C78 1.261 . S
C73 O82 1.247 . S
C73 O83 1.272 . S
O74 Co70 2.004 . S
O74 C79 1.259 . S
Co75 O76 2.061 . S
Co75 O81 2.052 . S
Co75 O83 2.135 1_565 S
O76 Co75 2.061 . S
O76 C79 1.235 1_565 S
C77 O80 1.238 . S
C77 O81 1.241 1_545 S
C78 O71 1.247 . S
C78 O72 1.261 . S
C79 O74 1.259 . S
C79 O76 1.235 1_545 S
O80 Co70 2.021 . S
O80 C77 1.238 . S
O81 Co75 2.052 . S
O81 C77 1.241 1_565 S
O82 Co70 2.137 . S
O82 C73 1.247 . S
O83 Co70 2.244 . S
O83 C73 1.272 . S
O83 Co75 2.135 1_545 S
Co84 O85 2.216 . S
Co84 O86 2.091 . S
Co84 O88 2.004 . S
Co84 O94 2.021 . S
Co84 O96 2.137 . S
Co84 O97 2.244 . S
O85 Co84 2.216 . S
O85 C92 1.247 . S
O86 Co84 2.091 . S
O86 C92 1.261 . S
C87 O96 1.247 . S
C87 O97 1.272 . S
O88 Co84 2.004 . S
O88 C93 1.259 . S
Co89 O90 2.061 . S
Co89 O95 2.052 . S
Co89 O97 2.135 1_565 S
O90 Co89 2.061 . S
O90 C93 1.235 1_565 S
C91 O94 1.238 . S
C91 O95 1.241 1_545 S
C92 O85 1.247 . S
C92 O86 1.261 . S
C93 O88 1.259 . S
C93 O90 1.235 1_545 S
O94 Co84 2.021 . S
O94 C91 1.238 . S
O95 Co89 2.052 . S
O95 C91 1.241 1_565 S
O96 Co84 2.137 . S
O96 C87 1.247 . S
O97 Co84 2.244 . S
O97 C87 1.272 . S
O97 Co89 2.135 1_545 S
Co98 O99 2.216 . S
Co98 O100 2.091 . S
Co98 O102 2.004 . S
Co98 O108 2.021 . S
Co98 O110 2.137 . S
Co98 O111 2.244 . S
O99 Co98 2.216 . S
O99 C106 1.247 . S
O100 Co98 2.091 . S
O100 C106 1.261 . S
C101 O110 1.247 . S
C101 O111 1.272 . S
O102 Co98 2.004 . S
O102 C107 1.259 . S
Co103 O104 2.061 . S
Co103 O109 2.052 . S
Co103 O111 2.135 1_545 S
O104 Co103 2.061 . S
O104 C107 1.235 1_545 S
C105 O108 1.238 . S
C105 O109 1.241 1_565 S
C106 O99 1.247 . S
C106 O100 1.261 . S
C107 O102 1.259 . S
C107 O104 1.235 1_565 S
O108 Co98 2.021 . S
O108 C105 1.238 . S
O109 Co103 2.052 . S
O109 C105 1.241 1_545 S
O110 Co98 2.137 . S
O110 C101 1.247 . S
O111 Co98 2.244 . S
O111 C101 1.272 . S
O111 Co103 2.135 1_565 S
Co112 O113 2.216 . S
Co112 O114 2.091 . S
Co112 O116 2.004 . S
Co112 O122 2.021 . S
Co112 O124 2.137 . S
Co112 O125 2.244 . S
O113 Co112 2.216 . S
O113 C120 1.247 . S
O114 Co112 2.091 . S
O114 C120 1.261 . S
C115 O124 1.247 . S
C115 O125 1.272 . S
O116 Co112 2.004 . S
O116 C121 1.259 . S
Co117 O118 2.061 . S
Co117 O123 2.052 . S
Co117 O125 2.135 . S
O118 Co117 2.061 . S
O118 C121 1.235 . S
C119 O122 1.238 . S
C119 O123 1.241 . S
C120 O113 1.247 . S
C120 O114 1.261 . S
C121 O116 1.259 . S
C121 O118 1.235 . S
O122 Co112 2.021 . S
O122 C119 1.238 . S
O123 Co117 2.052 . S
O123 C119 1.241 . S
O124 Co112 2.137 . S
O124 C115 1.247 . S
O125 Co112 2.244 . S
O125 C115 1.272 . S
O125 Co117 2.135 . S
Co126 O127 2.216 . S
Co126 O128 2.091 . S
Co126 O130 2.004 . S
Co126 O136 2.021 . S
Co126 O138 2.137 . S
Co126 O139 2.244 . S
O127 Co126 2.216 . S
O127 C134 1.247 . S
O128 Co126 2.091 . S
O128 C134 1.261 . S
C129 O138 1.247 . S
C129 O139 1.272 . S
O130 Co126 2.004 . S
O130 C135 1.259 . S
Co131 O132 2.061 . S
Co131 O137 2.052 . S
Co131 O139 2.135 . S
O132 Co131 2.061 . S
O132 C135 1.235 . S
C133 O136 1.238 . S
C133 O137 1.241 . S
C134 O127 1.247 . S
C134 O128 1.261 . S
C135 O130 1.259 . S
C135 O132 1.235 . S
O136 Co126 2.021 . S
O136 C133 1.238 . S
O137 Co131 2.052 . S
O137 C133 1.241 . S
O138 Co126 2.137 . S
O138 C129 1.247 . S
O139 Co126 2.244 . S
O139 C129 1.272 . S
O139 Co131 2.135 . S
Co140 O141 2.216 . S
Co140 O142 2.091 . S
Co140 O144 2.004 . S
Co140 O150 2.021 . S
Co140 O152 2.137 . S
Co140 O153 2.244 . S
O141 Co140 2.216 . S
O141 C148 1.247 . S
O142 Co140 2.091 . S
O142 C148 1.261 . S
C143 O152 1.247 . S
C143 O153 1.272 . S
O144 Co140 2.004 . S
O144 C149 1.259 . S
Co145 O146 2.061 . S
Co145 O151 2.052 . S
Co145 O153 2.135 . S
O146 Co145 2.061 . S
O146 C149 1.235 . S
C147 O150 1.238 . S
C147 O151 1.241 . S
C148 O141 1.247 . S
C148 O142 1.261 . S
C149 O144 1.259 . S
C149 O146 1.235 . S
O150 Co140 2.021 . S
O150 C147 1.238 . S
O151 Co145 2.052 . S
O151 C147 1.241 . S
O152 Co140 2.137 . S
O152 C143 1.247 . S
O153 Co140 2.244 . S
O153 C143 1.272 . S
O153 Co145 2.135 . S
Co154 O155 2.216 . S
Co154 O156 2.091 . S
Co154 O158 2.004 . S
Co154 O164 2.021 . S
Co154 O166 2.137 . S
Co154 O167 2.244 . S
O155 Co154 2.216 . S
O155 C162 1.247 . S
O156 Co154 2.091 . S
O156 C162 1.261 . S
C157 O166 1.247 . S
C157 O167 1.272 . S
O158 Co154 2.004 . S
O158 C163 1.259 . S
Co159 O160 2.061 . S
Co159 O165 2.052 . S
Co159 O167 2.135 . S
O160 Co159 2.061 . S
O160 C163 1.235 . S
C161 O164 1.238 . S
C161 O165 1.241 . S
C162 O155 1.247 . S
C162 O156 1.261 . S
C163 O158 1.259 . S
C163 O160 1.235 . S
O164 Co154 2.021 . S
O164 C161 1.238 . S
O165 Co159 2.052 . S
O165 C161 1.241 . S
O166 Co154 2.137 . S
O166 C157 1.247 . S
O167 Co154 2.244 . S
O167 C157 1.272 . S
O167 Co159 2.135 . S
Co168 O169 2.216 . S
Co168 O170 2.091 . S
Co168 O172 2.004 . S
Co168 O178 2.021 . S
Co168 O180 2.137 . S
Co168 O181 2.244 . S
O169 Co168 2.216 . S
O169 C176 1.247 . S
O170 Co168 2.091 . S
O170 C176 1.261 . S
C171 O180 1.247 . S
C171 O181 1.272 . S
O172 Co168 2.004 . S
O172 C177 1.259 . S
Co173 O174 2.061 . S
Co173 O179 2.052 . S
Co173 O181 2.135 . S
O174 Co173 2.061 . S
O174 C177 1.235 . S
C175 O178 1.238 . S
C175 O179 1.241 . S
C176 O169 1.247 . S
C176 O170 1.261 . S
C177 O172 1.259 . S
C177 O174 1.235 . S
O178 Co168 2.021 . S
O178 C175 1.238 . S
O179 Co173 2.052 . S
O179 C175 1.241 . S
O180 Co168 2.137 . S
O180 C171 1.247 . S
O181 Co168 2.244 . S
O181 C171 1.272 . S
O181 Co173 2.135 . S
Co182 O183 2.216 . S
Co182 O184 2.091 . S
Co182 O186 2.004 . S
Co182 O192 2.021 . S
Co182 O194 2.137 . S
Co182 O195 2.244 . S
O183 Co182 2.216 . S
O183 C190 1.247 . S
O184 Co182 2.091 . S
O184 C190 1.261 . S
C185 O194 1.247 . S
C185 O195 1.272 . S
O186 Co182 2.004 . S
O186 C191 1.259 . S
Co187 O188 2.061 . S
Co187 O193 2.052 . S
Co187 O195 2.135 . S
O188 Co187 2.061 . S
O188 C191 1.235 . S
C189 O192 1.238 . S
C189 O193 1.241 . S
C190 O183 1.247 . S
C190 O184 1.261 . S
C191 O186 1.259 . S
C191 O188 1.235 . S
O192 Co182 2.021 . S
O192 C189 1.238 . S
O193 Co187 2.052 . S
O193 C189 1.241 . S
O194 Co182 2.137 . S
O194 C185 1.247 . S
O195 Co182 2.244 . S
O195 C185 1.272 . S
O195 Co187 2.135 . S
Co196 O197 2.216 . S
Co196 O198 2.091 . S
Co196 O200 2.004 . S
Co196 O206 2.021 . S
Co196 O208 2.137 . S
Co196 O209 2.244 . S
O197 Co196 2.216 . S
O197 C204 1.247 . S
O198 Co196 2.091 . S
O198 C204 1.261 . S
C199 O208 1.247 . S
C199 O209 1.272 . S
O200 Co196 2.004 . S
O200 C205 1.259 . S
Co201 O202 2.061 . S
Co201 O207 2.052 . S
Co201 O209 2.135 . S
O202 Co201 2.061 . S
O202 C205 1.235 . S
C203 O206 1.238 . S
C203 O207 1.241 . S
C204 O197 1.247 . S
C204 O198 1.261 . S
C205 O200 1.259 . S
C205 O202 1.235 . S
O206 Co196 2.021 . S
O206 C203 1.238 . S
O207 Co201 2.052 . S
O207 C203 1.241 . S
O208 Co196 2.137 . S
O208 C199 1.247 . S
O209 Co196 2.244 . S
O209 C199 1.272 . S
O209 Co201 2.135 . S
Co210 O211 2.216 . S
Co210 O212 2.091 . S
Co210 O214 2.004 . S
Co210 O220 2.021 . S
Co210 O222 2.137 . S
Co210 O223 2.244 . S
O211 Co210 2.216 . S
O211 C218 1.247 . S
O212 Co210 2.091 . S
O212 C218 1.261 . S
C213 O222 1.247 . S
C213 O223 1.272 . S
O214 Co210 2.004 . S
O214 C219 1.259 . S
Co215 O216 2.061 . S
Co215 O221 2.052 . S
Co215 O223 2.135 . S
O216 Co215 2.061 . S
O216 C219 1.235 . S
C217 O220 1.238 . S
C217 O221 1.241 . S
C218 O211 1.247 . S
C218 O212 1.261 . S
C219 O214 1.259 . S
C219 O216 1.235 . S
O220 Co210 2.021 . S
O220 C217 1.238 . S
O221 Co215 2.052 . S
O221 C217 1.241 . S
O222 Co210 2.137 . S
O222 C213 1.247 . S
O223 Co210 2.244 . S
O223 C213 1.272 . S
O223 Co215 2.135 . S
H224 C232 0.950 1_565 S
H225 C237 0.950 . S
H226 C234 0.950 1_565 S
H227 C236 0.950 . S
H228 C238 0.950 . S
H229 C240 0.950 . S
H230 C242 0.950 1_565 S
H231 C243 0.950 1_565 S
C232 H224 0.950 1_545 S
C232 C233 1.386 . S
C232 C234 1.391 . S
C233 C232 1.386 . S
C233 C237 1.393 . S
C234 H226 0.950 1_545 S
C234 C232 1.391 . S
C234 C235 1.400 . S
C235 C234 1.400 . S
C235 C236 1.398 . S
C235 C241 1.491 . S
C236 H227 0.950 . S
C236 C235 1.398 . S
C236 C237 1.391 . S
C237 H225 0.950 . S
C237 C233 1.393 . S
C237 C236 1.391 . S
C238 H228 0.950 . S
C238 C239 1.386 . S
C238 C240 1.391 . S
C239 C238 1.386 . S
C239 C243 1.393 . S
C240 H229 0.950 . S
C240 C238 1.391 . S
C240 C241 1.400 . S
C241 C235 1.491 . S
C241 C240 1.400 . S
C241 C242 1.398 . S
C242 H230 0.950 1_545 S
C242 C241 1.398 . S
C242 C243 1.391 . S
C243 H231 0.950 1_545 S
C243 C239 1.393 . S
C243 C242 1.391 . S
H244 C252 0.950 . S
H245 C257 0.950 . S
H246 C254 0.950 . S
H247 C256 0.950 . S
H248 C258 0.950 . S
H249 C260 0.950 . S
H250 C262 0.950 . S
H251 C263 0.950 . S
C252 H244 0.950 . S
C252 C253 1.386 . S
C252 C254 1.391 . S
C253 C252 1.386 . S
C253 C257 1.393 . S
C254 H246 0.950 . S
C254 C252 1.391 . S
C254 C255 1.400 . S
C255 C254 1.400 . S
C255 C256 1.398 . S
C255 C261 1.491 . S
C256 H247 0.950 . S
C256 C255 1.398 . S
C256 C257 1.391 . S
C257 H245 0.950 . S
C257 C253 1.393 . S
C257 C256 1.391 . S
C258 H248 0.950 . S
C258 C259 1.386 . S
C258 C260 1.391 . S
C259 C258 1.386 . S
C259 C263 1.393 . S
C260 H249 0.950 . S
C260 C258 1.391 . S
C260 C261 1.400 . S
C261 C255 1.491 . S
C261 C260 1.400 . S
C261 C262 1.398 . S
C262 H250 0.950 . S
C262 C261 1.398 . S
C262 C263 1.391 . S
C263 H251 0.950 . S
C263 C259 1.393 . S
C263 C262 1.391 . S
H264 C272 0.950 . S
H265 C277 0.949 . S
H266 C274 0.950 . S
H267 C276 0.950 . S
H268 C278 0.950 1_545 S
H269 C280 0.950 1_545 S
H270 C282 0.950 . S
H271 C283 0.950 . S
C272 H264 0.950 . S
C272 C273 1.386 . S
C272 C274 1.391 . S
C273 C272 1.386 . S
C273 C277 1.393 . S
C274 H266 0.950 . S
C274 C272 1.391 . S
C274 C275 1.400 . S
C275 C274 1.400 . S
C275 C276 1.398 . S
C275 C281 1.491 1_554 S
C276 H267 0.950 . S
C276 C275 1.398 . S
C276 C277 1.391 . S
C277 H265 0.949 . S
C277 C273 1.393 . S
C277 C276 1.391 . S
C278 H268 0.950 1_565 S
C278 C279 1.386 . S
C278 C280 1.391 . S
C279 C278 1.386 . S
C279 C283 1.393 . S
C280 H269 0.950 1_565 S
C280 C278 1.391 . S
C280 C281 1.400 . S
C281 C275 1.491 1_556 S
C281 C280 1.400 . S
C281 C282 1.398 . S
C282 H270 0.950 . S
C282 C281 1.398 . S
C282 C283 1.391 . S
C283 H271 0.950 . S
C283 C279 1.393 . S
C283 C282 1.391 . S
H284 C292 0.950 . S
H285 C297 0.950 . S
H286 C294 0.950 . S
H287 C296 0.950 . S
H288 C298 0.950 . S
H289 C300 0.950 . S
H290 C302 0.950 . S
H291 C303 0.950 . S
C292 H284 0.950 . S
C292 C293 1.386 1_565 S
C292 C294 1.391 . S
C293 C292 1.386 1_545 S
C293 C297 1.393 . S
C294 H286 0.950 . S
C294 C292 1.391 . S
C294 C295 1.400 1_565 S
C295 C294 1.400 1_545 S
C295 C296 1.398 . S
C295 C301 1.491 1_556 S
C296 H287 0.950 . S
C296 C295 1.398 . S
C296 C297 1.391 . S
C297 H285 0.950 . S
C297 C293 1.393 . S
C297 C296 1.391 . S
C298 H288 0.950 . S
C298 C299 1.386 . S
C298 C300 1.391 . S
C299 C298 1.386 . S
C299 C303 1.393 1_545 S
C300 H289 0.950 . S
C300 C298 1.391 . S
C300 C301 1.400 . S
C301 C295 1.491 1_554 S
C301 C300 1.400 . S
C301 C302 1.398 1_545 S
C302 H290 0.950 . S
C302 C301 1.398 1_565 S
C302 C303 1.391 . S
C303 H291 0.950 . S
C303 C299 1.393 1_565 S
C303 C302 1.391 . S
H304 C312 0.950 . S
H305 C317 0.950 . S
H306 C314 0.950 . S
H307 C316 0.950 . S
H308 C318 0.950 . S
H309 C320 0.950 . S
H310 C322 0.950 . S
H311 C323 0.950 . S
C312 H304 0.950 . S
C312 C313 1.386 . S
C312 C314 1.391 . S
C313 C312 1.386 . S
C313 C317 1.393 . S
C314 H306 0.950 . S
C314 C312 1.391 . S
C314 C315 1.400 . S
C315 C314 1.400 . S
C315 C316 1.398 . S
C315 C321 1.491 . S
C316 H307 0.950 . S
C316 C315 1.398 . S
C316 C317 1.391 . S
C317 H305 0.950 . S
C317 C313 1.393 . S
C317 C316 1.391 . S
C318 H308 0.950 . S
C318 C319 1.386 . S
C318 C320 1.391 . S
C319 C318 1.386 . S
C319 C323 1.393 . S
C320 H309 0.950 . S
C320 C318 1.391 . S
C320 C321 1.400 . S
C321 C315 1.491 . S
C321 C320 1.400 . S
C321 C322 1.398 . S
C322 H310 0.950 . S
C322 C321 1.398 . S
C322 C323 1.391 . S
C323 H311 0.950 . S
C323 C319 1.393 . S
C323 C322 1.391 . S
H324 C332 0.950 . S
H325 C337 0.950 . S
H326 C334 0.950 . S
H327 C336 0.950 . S
H328 C338 0.950 . S
H329 C340 0.950 . S
H330 C342 0.950 . S
H331 C343 0.950 . S
C332 H324 0.950 . S
C332 C333 1.386 . S
C332 C334 1.391 . S
C333 C332 1.386 . S
C333 C337 1.393 . S
C334 H326 0.950 . S
C334 C332 1.391 . S
C334 C335 1.400 . S
C335 C334 1.400 . S
C335 C336 1.398 . S
C335 C341 1.491 . S
C336 H327 0.950 . S
C336 C335 1.398 . S
C336 C337 1.391 . S
C337 H325 0.950 . S
C337 C333 1.393 . S
C337 C336 1.391 . S
C338 H328 0.950 . S
C338 C339 1.386 . S
C338 C340 1.391 . S
C339 C338 1.386 . S
C339 C343 1.393 . S
C340 H329 0.950 . S
C340 C338 1.391 . S
C340 C341 1.400 . S
C341 C335 1.491 . S
C341 C340 1.400 . S
C341 C342 1.398 . S
C342 H330 0.950 . S
C342 C341 1.398 . S
C342 C343 1.391 . S
C343 H331 0.950 . S
C343 C339 1.393 . S
C343 C342 1.391 . S
H344 C352 0.950 . S
H345 C357 0.950 . S
H346 C354 0.950 . S
H347 C356 0.950 . S
H348 C358 0.950 . S
H349 C360 0.950 . S
H350 C362 0.950 . S
H351 C363 0.950 . S
C352 H344 0.950 . S
C352 C353 1.386 . S
C352 C354 1.391 . S
C353 C352 1.386 . S
C353 C357 1.393 . S
C354 H346 0.950 . S
C354 C352 1.391 . S
C354 C355 1.400 . S
C355 C354 1.400 . S
C355 C356 1.398 . S
C355 C361 1.491 1_556 S
C356 H347 0.950 . S
C356 C355 1.398 . S
C356 C357 1.391 . S
C357 H345 0.950 . S
C357 C353 1.393 . S
C357 C356 1.391 . S
C358 H348 0.950 . S
C358 C359 1.386 . S
C358 C360 1.391 . S
C359 C358 1.386 . S
C359 C363 1.393 . S
C360 H349 0.950 . S
C360 C358 1.391 . S
C360 C361 1.400 . S
C361 C355 1.491 1_554 S
C361 C360 1.400 . S
C361 C362 1.398 . S
C362 H350 0.950 . S
C362 C361 1.398 . S
C362 C363 1.391 . S
C363 H351 0.950 . S
C363 C359 1.393 . S
C363 C362 1.391 . S
H364 C372 0.950 . S
H365 C377 0.950 . S
H366 C374 0.950 . S
H367 C376 0.950 . S
H368 C378 0.950 . S
H369 C380 0.950 . S
H370 C382 0.950 . S
H371 C383 0.950 . S
C372 H364 0.950 . S
C372 C373 1.386 . S
C372 C374 1.391 . S
C373 C372 1.386 . S
C373 C377 1.393 . S
C374 H366 0.950 . S
C374 C372 1.391 . S
C374 C375 1.400 . S
C375 C374 1.400 . S
C375 C376 1.398 . S
C375 C381 1.491 1_554 S
C376 H367 0.950 . S
C376 C375 1.398 . S
C376 C377 1.391 . S
C377 H365 0.950 . S
C377 C373 1.393 . S
C377 C376 1.391 . S
C378 H368 0.950 . S
C378 C379 1.386 . S
C378 C380 1.391 . S
C379 C378 1.386 . S
C379 C383 1.393 . S
C380 H369 0.950 . S
C380 C378 1.391 . S
C380 C381 1.400 . S
C381 C375 1.491 1_556 S
C381 C380 1.400 . S
C381 C382 1.398 . S
C382 H370 0.950 . S
C382 C381 1.398 . S
C382 C383 1.391 . S
C383 H371 0.950 . S
C383 C379 1.393 . S
C383 C382 1.391 . S
H384 C392 0.950 . S
H385 C397 0.950 . S
H386 C394 0.950 . S
H387 C396 0.950 . S
H388 C398 0.950 . S
H389 C400 0.950 . S
H390 C402 0.950 . S
H391 C403 0.950 . S
C392 H384 0.950 . S
C392 C393 1.386 1_545 S
C392 C394 1.391 . S
C393 C392 1.386 1_565 S
C393 C397 1.393 . S
C394 H386 0.950 . S
C394 C392 1.391 . S
C394 C395 1.400 1_545 S
C395 C394 1.400 1_565 S
C395 C396 1.398 . S
C395 C401 1.491 1_565 S
C396 H387 0.950 . S
C396 C395 1.398 . S
C396 C397 1.391 . S
C397 H385 0.950 . S
C397 C393 1.393 . S
C397 C396 1.391 . S
C398 H388 0.950 . S
C398 C399 1.386 1_565 S
C398 C400 1.391 . S
C399 C398 1.386 1_545 S
C399 C403 1.393 . S
C400 H389 0.950 . S
C400 C398 1.391 . S
C400 C401 1.400 1_565 S
C401 C395 1.491 1_545 S
C401 C400 1.400 1_545 S
C401 C402 1.398 . S
C402 H390 0.950 . S
C402 C401 1.398 . S
C402 C403 1.391 . S
C403 H391 0.950 . S
C403 C399 1.393 . S
C403 C402 1.391 . S
H404 C412 0.950 . S
H405 C417 0.950 . S
H406 C414 0.950 . S
H407 C416 0.950 . S
H408 C418 0.950 . S
H409 C420 0.950 . S
H410 C422 0.950 . S
H411 C423 0.950 . S
C412 H404 0.950 . S
C412 C413 1.386 1_545 S
C412 C414 1.391 . S
C413 C412 1.386 1_565 S
C413 C417 1.393 . S
C414 H406 0.950 . S
C414 C412 1.391 . S
C414 C415 1.400 1_545 S
C415 C414 1.400 1_565 S
C415 C416 1.398 . S
C415 C421 1.491 1_565 S
C416 H407 0.950 . S
C416 C415 1.398 . S
C416 C417 1.391 . S
C417 H405 0.950 . S
C417 C413 1.393 . S
C417 C416 1.391 . S
C418 H408 0.950 . S
C418 C419 1.386 1_565 S
C418 C420 1.391 . S
C419 C418 1.386 1_545 S
C419 C423 1.393 . S
C420 H409 0.950 . S
C420 C418 1.391 . S
C420 C421 1.400 1_565 S
C421 C415 1.491 1_545 S
C421 C420 1.400 1_545 S
C421 C422 1.398 . S
C422 H410 0.950 . S
C422 C421 1.398 . S
C422 C423 1.391 . S
C423 H411 0.950 . S
C423 C419 1.393 . S
C423 C422 1.391 . S
H424 C432 0.950 . S
H425 C437 0.950 . S
H426 C434 0.950 . S
H427 C436 0.950 . S
H428 C438 0.950 . S
H429 C440 0.950 . S
H430 C442 0.950 . S
H431 C443 0.950 . S
C432 H424 0.950 . S
C432 C433 1.386 . S
C432 C434 1.391 . S
C433 C432 1.386 . S
C433 C437 1.393 . S
C434 H426 0.950 . S
C434 C432 1.391 . S
C434 C435 1.400 . S
C435 C434 1.400 . S
C435 C436 1.398 . S
C435 C441 1.491 1_565 S
C436 H427 0.950 . S
C436 C435 1.398 . S
C436 C437 1.391 . S
C437 H425 0.950 . S
C437 C433 1.393 . S
C437 C436 1.391 . S
C438 H428 0.950 . S
C438 C439 1.386 . S
C438 C440 1.391 . S
C439 C438 1.386 . S
C439 C443 1.393 . S
C440 H429 0.950 . S
C440 C438 1.391 . S
C440 C441 1.400 . S
C441 C435 1.491 1_545 S
C441 C440 1.400 . S
C441 C442 1.398 . S
C442 H430 0.950 . S
C442 C441 1.398 . S
C442 C443 1.391 . S
C443 H431 0.950 . S
C443 C439 1.393 . S
C443 C442 1.391 . S
H444 C452 0.950 . S
H445 C457 0.950 . S
H446 C454 0.950 . S
H447 C456 0.950 . S
H448 C458 0.950 . S
H449 C460 0.950 . S
H450 C462 0.950 . S
H451 C463 0.950 . S
C452 H444 0.950 . S
C452 C453 1.386 . S
C452 C454 1.391 . S
C453 C452 1.386 . S
C453 C457 1.393 1_545 S
C454 H446 0.950 . S
C454 C452 1.391 . S
C454 C455 1.400 . S
C455 C454 1.400 . S
C455 C456 1.398 1_545 S
C455 C461 1.491 1_545 S
C456 H447 0.950 . S
C456 C455 1.398 1_565 S
C456 C457 1.391 . S
C457 H445 0.950 . S
C457 C453 1.393 1_565 S
C457 C456 1.391 . S
C458 H448 0.950 . S
C458 C459 1.386 . S
C458 C460 1.391 . S
C459 C458 1.386 . S
C459 C463 1.393 1_565 S
C460 H449 0.950 . S
C460 C458 1.391 . S
C460 C461 1.400 . S
C461 C455 1.491 1_565 S
C461 C460 1.400 . S
C461 C462 1.398 1_565 S
C462 H450 0.950 . S
C462 C461 1.398 1_545 S
C462 C463 1.391 . S
C463 H451 0.950 . S
C463 C459 1.393 1_545 S
C463 C462 1.391 . S
H464 C472 0.950 . S
H465 C477 0.950 . S
H466 C474 0.950 . S
H467 C476 0.950 . S
H468 C478 0.950 . S
H469 C480 0.950 . S
H470 C482 0.950 . S
H471 C483 0.950 . S
C472 H464 0.950 . S
C472 C473 1.386 . S
C472 C474 1.391 . S
C473 C472 1.386 . S
C473 C477 1.393 . S
C474 H466 0.950 . S
C474 C472 1.391 . S
C474 C475 1.400 . S
C475 C474 1.400 . S
C475 C476 1.398 . S
C475 C481 1.491 1_655 S
C476 H467 0.950 . S
C476 C475 1.398 . S
C476 C477 1.391 . S
C477 H465 0.950 . S
C477 C473 1.393 . S
C477 C476 1.391 . S
C478 H468 0.950 . S
C478 C479 1.386 . S
C478 C480 1.391 . S
C479 C478 1.386 . S
C479 C483 1.393 . S
C480 H469 0.950 . S
C480 C478 1.391 . S
C480 C481 1.400 . S
C481 C475 1.491 1_455 S
C481 C480 1.400 . S
C481 C482 1.398 . S
C482 H470 0.950 . S
C482 C481 1.398 . S
C482 C483 1.391 . S
C483 H471 0.950 . S
C483 C479 1.393 . S
C483 C482 1.391 . S
H484 C492 0.950 . S
H485 C497 0.950 . S
H486 C494 0.950 . S
H487 C496 0.950 . S
H488 C498 0.950 . S
H489 C500 0.950 . S
H490 C502 0.950 . S
H491 C503 0.950 . S
C492 H484 0.950 . S
C492 C493 1.386 . S
C492 C494 1.391 . S
C493 C492 1.386 . S
C493 C497 1.393 . S
C494 H486 0.950 . S
C494 C492 1.391 . S
C494 C495 1.400 . S
C495 C494 1.400 . S
C495 C496 1.398 . S
C495 C501 1.491 1_455 S
C496 H487 0.950 . S
C496 C495 1.398 . S
C496 C497 1.391 . S
C497 H485 0.950 . S
C497 C493 1.393 . S
C497 C496 1.391 . S
C498 H488 0.950 . S
C498 C499 1.386 . S
C498 C500 1.391 . S
C499 C498 1.386 . S
C499 C503 1.393 . S
C500 H489 0.950 . S
C500 C498 1.391 . S
C500 C501 1.400 . S
C501 C495 1.491 1_655 S
C501 C500 1.400 . S
C501 C502 1.398 . S
C502 H490 0.950 . S
C502 C501 1.398 . S
C502 C503 1.391 . S
C503 H491 0.950 . S
C503 C499 1.393 . S
C503 C502 1.391 . S
H504 C512 0.950 . S
H505 C517 0.950 . S
H506 C514 0.950 . S
H507 C516 0.950 . S
H508 C518 0.950 . S
H509 C520 0.950 . S
H510 C522 0.950 . S
H511 C523 0.950 . S
C512 H504 0.950 . S
C512 C513 1.386 . S
C512 C514 1.391 . S
C513 C512 1.386 . S
C513 C517 1.393 . S
C514 H506 0.950 . S
C514 C512 1.391 . S
C514 C515 1.400 . S
C515 C514 1.400 . S
C515 C516 1.398 . S
C515 C521 1.491 1_655 S
C516 H507 0.950 . S
C516 C515 1.398 . S
C516 C517 1.391 . S
C517 H505 0.950 . S
C517 C513 1.393 . S
C517 C516 1.391 . S
C518 H508 0.950 . S
C518 C519 1.386 . S
C518 C520 1.391 . S
C519 C518 1.386 . S
C519 C523 1.393 . S
C520 H509 0.950 . S
C520 C518 1.391 . S
C520 C521 1.400 . S
C521 C515 1.491 1_455 S
C521 C520 1.400 . S
C521 C522 1.398 . S
C522 H510 0.950 . S
C522 C521 1.398 . S
C522 C523 1.391 . S
C523 H511 0.950 . S
C523 C519 1.393 . S
C523 C522 1.391 . S
H524 C532 0.950 . S
H525 C537 0.950 . S
H526 C534 0.950 . S
H527 C536 0.950 . S
H528 C538 0.950 . S
H529 C540 0.950 . S
H530 C542 0.950 . S
H531 C543 0.950 . S
C532 H524 0.950 . S
C532 C533 1.386 . S
C532 C534 1.391 . S
C533 C532 1.386 . S
C533 C537 1.393 . S
C534 H526 0.950 . S
C534 C532 1.391 . S
C534 C535 1.400 . S
C535 C534 1.400 . S
C535 C536 1.398 . S
C535 C541 1.491 1_455 S
C536 H527 0.950 . S
C536 C535 1.398 . S
C536 C537 1.391 . S
C537 H525 0.950 . S
C537 C533 1.393 . S
C537 C536 1.391 . S
C538 H528 0.950 . S
C538 C539 1.386 . S
C538 C540 1.391 . S
C539 C538 1.386 . S
C539 C543 1.393 . S
C540 H529 0.950 . S
C540 C538 1.391 . S
C540 C541 1.400 . S
C541 C535 1.491 1_655 S
C541 C540 1.400 . S
C541 C542 1.398 . S
C542 H530 0.950 . S
C542 C541 1.398 . S
C542 C543 1.391 . S
C543 H531 0.950 . S
C543 C539 1.393 . S
C543 C542 1.391 . S
H544 C552 0.950 . S
H545 C557 0.950 . S
H546 C554 0.950 . S
H547 C556 0.950 . S
H548 C558 0.950 . S
H549 C560 0.950 . S
H550 C562 0.950 . S
H551 C563 0.950 . S
C552 H544 0.950 . S
C552 C553 1.386 . S
C552 C554 1.391 . S
C553 C552 1.386 . S
C553 C557 1.393 . S
C554 H546 0.950 . S
C554 C552 1.391 . S
C554 C555 1.400 . S
C555 C554 1.400 . S
C555 C556 1.398 . S
C555 C561 1.491 . S
C556 H547 0.950 . S
C556 C555 1.398 . S
C556 C557 1.391 . S
C557 H545 0.950 . S
C557 C553 1.393 . S
C557 C556 1.391 . S
C558 H548 0.950 . S
C558 C559 1.386 . S
C558 C560 1.391 . S
C559 C558 1.386 . S
C559 C563 1.393 . S
C560 H549 0.950 . S
C560 C558 1.391 . S
C560 C561 1.400 . S
C561 C555 1.491 . S
C561 C560 1.400 . S
C561 C562 1.398 . S
C562 H550 0.950 . S
C562 C561 1.398 . S
C562 C563 1.391 . S
C563 H551 0.950 . S
C563 C559 1.393 . S
C563 C562 1.391 . S
H564 C572 0.950 . S
H565 C577 0.950 . S
H566 C574 0.950 . S
H567 C576 0.950 . S
H568 C578 0.950 . S
H569 C580 0.950 . S
H570 C582 0.950 . S
H571 C583 0.950 . S
C572 H564 0.950 . S
C572 C573 1.386 . S
C572 C574 1.391 . S
C573 C572 1.386 . S
C573 C577 1.393 . S
C574 H566 0.950 . S
C574 C572 1.391 . S
C574 C575 1.400 . S
C575 C574 1.400 . S
C575 C576 1.398 . S
C575 C581 1.491 . S
C576 H567 0.950 . S
C576 C575 1.398 . S
C576 C577 1.391 . S
C577 H565 0.950 . S
C577 C573 1.393 . S
C577 C576 1.391 . S
C578 H568 0.950 . S
C578 C579 1.386 . S
C578 C580 1.391 . S
C579 C578 1.386 . S
C579 C583 1.393 . S
C580 H569 0.950 . S
C580 C578 1.391 . S
C580 C581 1.400 . S
C581 C575 1.491 . S
C581 C580 1.400 . S
C581 C582 1.398 . S
C582 H570 0.950 . S
C582 C581 1.398 . S
C582 C583 1.391 . S
C583 H571 0.950 . S
C583 C579 1.393 . S
C583 C582 1.391 . S
H584 C592 0.950 . S
H585 C597 0.950 . S
H586 C594 0.950 . S
H587 C596 0.950 . S
H588 C598 0.950 . S
H589 C600 0.950 . S
H590 C602 0.950 . S
H591 C603 0.950 . S
C592 H584 0.950 . S
C592 C593 1.386 . S
C592 C594 1.391 . S
C593 C592 1.386 . S
C593 C597 1.393 . S
C594 H586 0.950 . S
C594 C592 1.391 . S
C594 C595 1.400 . S
C595 C594 1.400 . S
C595 C596 1.398 . S
C595 C601 1.491 . S
C596 H587 0.950 . S
C596 C595 1.398 . S
C596 C597 1.391 . S
C597 H585 0.950 . S
C597 C593 1.393 . S
C597 C596 1.391 . S
C598 H588 0.950 . S
C598 C599 1.386 . S
C598 C600 1.391 . S
C599 C598 1.386 . S
C599 C603 1.393 . S
C600 H589 0.950 . S
C600 C598 1.391 . S
C600 C601 1.400 . S
C601 C595 1.491 . S
C601 C600 1.400 . S
C601 C602 1.398 . S
C602 H590 0.950 . S
C602 C601 1.398 . S
C602 C603 1.391 . S
C603 H591 0.950 . S
C603 C599 1.393 . S
C603 C602 1.391 . S
H604 C612 0.950 . S
H605 C617 0.950 . S
H606 C614 0.950 . S
H607 C616 0.950 . S
H608 C618 0.950 . S
H609 C620 0.950 . S
H610 C622 0.950 . S
H611 C623 0.950 . S
C612 H604 0.950 . S
C612 C613 1.386 . S
C612 C614 1.391 . S
C613 C612 1.386 . S
C613 C617 1.393 . S
C614 H606 0.950 . S
C614 C612 1.391 . S
C614 C615 1.400 . S
C615 C614 1.400 . S
C615 C616 1.398 . S
C615 C621 1.491 . S
C616 H607 0.950 . S
C616 C615 1.398 . S
C616 C617 1.391 . S
C617 H605 0.950 . S
C617 C613 1.393 . S
C617 C616 1.391 . S
C618 H608 0.950 . S
C618 C619 1.386 . S
C618 C620 1.391 . S
C619 C618 1.386 . S
C619 C623 1.393 . S
C620 H609 0.950 . S
C620 C618 1.391 . S
C620 C621 1.400 . S
C621 C615 1.491 . S
C621 C620 1.400 . S
C621 C622 1.398 . S
C622 H610 0.950 . S
C622 C621 1.398 . S
C622 C623 1.391 . S
C623 H611 0.950 . S
C623 C619 1.393 . S
C623 C622 1.391 . S
H624 C632 0.950 . S
H625 C637 0.950 . S
H626 C634 0.950 . S
H627 C636 0.950 . S
H628 C638 0.950 . S
H629 C640 0.950 . S
H630 C642 0.950 . S
H631 C643 0.950 . S
C632 H624 0.950 . S
C632 C633 1.386 . S
C632 C634 1.391 . S
C633 C632 1.386 . S
C633 C637 1.393 . S
C634 H626 0.950 . S
C634 C632 1.391 . S
C634 C635 1.400 . S
C635 C634 1.400 . S
C635 C636 1.398 . S
C635 C641 1.491 . S
C636 H627 0.950 . S
C636 C635 1.398 . S
C636 C637 1.391 . S
C637 H625 0.950 . S
C637 C633 1.393 . S
C637 C636 1.391 . S
C638 H628 0.950 . S
C638 C639 1.386 . S
C638 C640 1.391 . S
C639 C638 1.386 . S
C639 C643 1.393 . S
C640 H629 0.950 . S
C640 C638 1.391 . S
C640 C641 1.400 . S
C641 C635 1.491 . S
C641 C640 1.400 . S
C641 C642 1.398 . S
C642 H630 0.950 . S
C642 C641 1.398 . S
C642 C643 1.391 . S
C643 H631 0.950 . S
C643 C639 1.393 . S
C643 C642 1.391 . S
H644 C652 0.950 . S
H645 C657 0.950 . S
H646 C654 0.950 . S
H647 C656 0.950 . S
H648 C658 0.950 . S
H649 C660 0.950 . S
H650 C662 0.950 . S
H651 C663 0.950 . S
C652 H644 0.950 . S
C652 C653 1.386 . S
C652 C654 1.391 . S
C653 C652 1.386 . S
C653 C657 1.393 . S
C654 H646 0.950 . S
C654 C652 1.391 . S
C654 C655 1.400 . S
C655 C654 1.400 . S
C655 C656 1.398 . S
C655 C661 1.491 . S
C656 H647 0.950 . S
C656 C655 1.398 . S
C656 C657 1.391 . S
C657 H645 0.950 . S
C657 C653 1.393 . S
C657 C656 1.391 . S
C658 H648 0.950 . S
C658 C659 1.386 . S
C658 C660 1.391 . S
C659 C658 1.386 . S
C659 C663 1.393 . S
C660 H649 0.950 . S
C660 C658 1.391 . S
C660 C661 1.400 . S
C661 C655 1.491 . S
C661 C660 1.400 . S
C661 C662 1.398 . S
C662 H650 0.950 . S
C662 C661 1.398 . S
C662 C663 1.391 . S
C663 H651 0.950 . S
C663 C659 1.393 . S
C663 C662 1.391 . S
H664 C672 0.950 . S
H665 C677 0.950 . S
H666 C674 0.950 . S
H667 C676 0.950 . S
H668 C678 0.950 . S
H669 C680 0.950 . S
H670 C682 0.950 . S
H671 C683 0.950 . S
C672 H664 0.950 . S
C672 C673 1.386 . S
C672 C674 1.391 . S
C673 C672 1.386 . S
C673 C677 1.393 . S
C674 H666 0.950 . S
C674 C672 1.391 . S
C674 C675 1.400 . S
C675 C674 1.400 . S
C675 C676 1.398 . S
C675 C681 1.491 . S
C676 H667 0.950 . S
C676 C675 1.398 . S
C676 C677 1.391 . S
C677 H665 0.950 . S
C677 C673 1.393 . S
C677 C676 1.391 . S
C678 H668 0.950 . S
C678 C679 1.386 . S
C678 C680 1.391 . S
C679 C678 1.386 . S
C679 C683 1.393 . S
C680 H669 0.950 . S
C680 C678 1.391 . S
C680 C681 1.400 . S
C681 C675 1.491 . S
C681 C680 1.400 . S
C681 C682 1.398 . S
C682 H670 0.950 . S
C682 C681 1.398 . S
C682 C683 1.391 . S
C683 H671 0.950 . S
C683 C679 1.393 . S
C683 C682 1.391 . S
H684 C692 0.950 . S
H685 C697 0.950 . S
H686 C694 0.950 . S
H687 C696 0.950 . S
H688 C698 0.950 . S
H689 C700 0.950 . S
H690 C702 0.950 . S
H691 C703 0.950 . S
C692 H684 0.950 . S
C692 C693 1.386 . S
C692 C694 1.391 . S
C693 C692 1.386 . S
C693 C697 1.393 . S
C694 H686 0.950 . S
C694 C692 1.391 . S
C694 C695 1.400 . S
C695 C694 1.400 . S
C695 C696 1.398 . S
C695 C701 1.491 . S
C696 H687 0.950 . S
C696 C695 1.398 . S
C696 C697 1.391 . S
C697 H685 0.950 . S
C697 C693 1.393 . S
C697 C696 1.391 . S
C698 H688 0.950 . S
C698 C699 1.386 . S
C698 C700 1.391 . S
C699 C698 1.386 . S
C699 C703 1.393 . S
C700 H689 0.950 . S
C700 C698 1.391 . S
C700 C701 1.400 . S
C701 C695 1.491 . S
C701 C700 1.400 . S
C701 C702 1.398 . S
C702 H690 0.950 . S
C702 C701 1.398 . S
C702 C703 1.391 . S
C703 H691 0.950 . S
C703 C699 1.393 . S
C703 C702 1.391 . S
H704 C712 0.950 . S
H705 C717 0.950 . S
H706 C714 0.950 . S
H707 C716 0.950 . S
H708 C718 0.950 . S
H709 C720 0.950 . S
H710 C722 0.950 . S
H711 C723 0.950 . S
C712 H704 0.950 . S
C712 C713 1.386 1_565 S
C712 C714 1.391 . S
C713 C712 1.386 1_545 S
C713 C717 1.393 . S
C714 H706 0.950 . S
C714 C712 1.391 . S
C714 C715 1.400 1_565 S
C715 C714 1.400 1_545 S
C715 C716 1.398 . S
C715 C721 1.491 1_545 S
C716 H707 0.950 . S
C716 C715 1.398 . S
C716 C717 1.391 . S
C717 H705 0.950 . S
C717 C713 1.393 . S
C717 C716 1.391 . S
C718 H708 0.950 . S
C718 C719 1.386 1_545 S
C718 C720 1.391 . S
C719 C718 1.386 1_565 S
C719 C723 1.393 . S
C720 H709 0.950 . S
C720 C718 1.391 . S
C720 C721 1.400 1_545 S
C721 C715 1.491 1_565 S
C721 C720 1.400 1_565 S
C721 C722 1.398 . S
C722 H710 0.950 . S
C722 C721 1.398 . S
C722 C723 1.391 . S
C723 H711 0.950 . S
C723 C719 1.393 . S
C723 C722 1.391 . S
H724 C732 0.950 . S
H725 C737 0.950 . S
H726 C734 0.950 . S
H727 C736 0.950 . S
H728 C738 0.950 . S
H729 C740 0.950 . S
H730 C742 0.950 . S
H731 C743 0.950 . S
C732 H724 0.950 . S
C732 C733 1.386 . S
C732 C734 1.391 . S
C733 C732 1.386 . S
C733 C737 1.393 1_545 S
C734 H726 0.950 . S
C734 C732 1.391 . S
C734 C735 1.400 . S
C735 C734 1.400 . S
C735 C736 1.398 1_545 S
C735 C741 1.491 1_545 S
C736 H727 0.950 . S
C736 C735 1.398 1_565 S
C736 C737 1.391 . S
C737 H725 0.950 . S
C737 C733 1.393 1_565 S
C737 C736 1.391 . S
C738 H728 0.950 . S
C738 C739 1.386 . S
C738 C740 1.391 . S
C739 C738 1.386 . S
C739 C743 1.393 1_565 S
C740 H729 0.950 . S
C740 C738 1.391 . S
C740 C741 1.400 . S
C741 C735 1.491 1_565 S
C741 C740 1.400 . S
C741 C742 1.398 1_565 S
C742 H730 0.950 . S
C742 C741 1.398 1_545 S
C742 C743 1.391 . S
C743 H731 0.950 . S
C743 C739 1.393 1_545 S
C743 C742 1.391 . S
H744 C752 0.950 . S
H745 C757 0.950 . S
H746 C754 0.950 . S
H747 C756 0.950 . S
H748 C758 0.950 . S
H749 C760 0.950 . S
H750 C762 0.950 . S
H751 C763 0.950 . S
C752 H744 0.950 . S
C752 C753 1.386 1_565 S
C752 C754 1.391 . S
C753 C752 1.386 1_545 S
C753 C757 1.393 . S
C754 H746 0.950 . S
C754 C752 1.391 . S
C754 C755 1.400 1_565 S
C755 C754 1.400 1_545 S
C755 C756 1.398 . S
C755 C761 1.491 1_545 S
C756 H747 0.950 . S
C756 C755 1.398 . S
C756 C757 1.391 . S
C757 H745 0.950 . S
C757 C753 1.393 . S
C757 C756 1.391 . S
C758 H748 0.950 . S
C758 C759 1.386 1_545 S
C758 C760 1.391 . S
C759 C758 1.386 1_565 S
C759 C763 1.393 . S
C760 H749 0.950 . S
C760 C758 1.391 . S
C760 C761 1.400 1_545 S
C761 C755 1.491 1_565 S
C761 C760 1.400 1_565 S
C761 C762 1.398 . S
C762 H750 0.950 . S
C762 C761 1.398 . S
C762 C763 1.391 . S
C763 H751 0.950 . S
C763 C759 1.393 . S
C763 C762 1.391 . S
H764 C772 0.950 . S
H765 C777 0.950 . S
H766 C774 0.950 . S
H767 C776 0.950 . S
H768 C778 0.950 . S
H769 C780 0.950 . S
H770 C782 0.950 . S
H771 C783 0.950 . S
C772 H764 0.950 . S
C772 C773 1.386 . S
C772 C774 1.391 . S
C773 C772 1.386 . S
C773 C777 1.393 1_565 S
C774 H766 0.950 . S
C774 C772 1.391 . S
C774 C775 1.417 . S
C775 C774 1.417 . S
C775 C776 1.382 1_565 S
C775 C781 1.490 1_565 S
C776 H767 0.950 . S
C776 C775 1.382 1_545 S
C776 C777 1.391 . S
C777 H765 0.950 . S
C777 C773 1.393 1_545 S
C777 C776 1.391 . S
C778 H768 0.950 . S
C778 C779 1.386 . S
C778 C780 1.391 . S
C779 C778 1.386 . S
C779 C783 1.393 1_545 S
C780 H769 0.950 . S
C780 C778 1.391 . S
C780 C781 1.417 . S
C781 C775 1.490 1_545 S
C781 C780 1.417 . S
C781 C782 1.382 1_545 S
C782 H770 0.950 . S
C782 C781 1.382 1_565 S
C782 C783 1.391 . S
C783 H771 0.950 . S
C783 C779 1.393 1_565 S
C783 C782 1.391 . S
H784 C792 0.950 . S
H785 C797 0.950 . S
H786 C794 0.950 . S
H787 C796 0.950 . S
H788 C798 0.950 . S
H789 C800 0.950 . S
H790 C802 0.950 . S
H791 C803 0.950 . S
C792 H784 0.950 . S
C792 C793 1.386 . S
C792 C794 1.391 . S
C793 C792 1.386 . S
C793 C797 1.393 . S
C794 H786 0.950 . S
C794 C792 1.391 . S
C794 C795 1.400 . S
C795 C794 1.400 . S
C795 C796 1.398 . S
C795 C801 1.491 . S
C796 H787 0.950 . S
C796 C795 1.398 . S
C796 C797 1.391 . S
C797 H785 0.950 . S
C797 C793 1.393 . S
C797 C796 1.391 . S
C798 H788 0.950 . S
C798 C799 1.386 . S
C798 C800 1.391 . S
C799 C798 1.386 . S
C799 C803 1.393 . S
C800 H789 0.950 . S
C800 C798 1.391 . S
C800 C801 1.400 . S
C801 C795 1.491 . S
C801 C800 1.400 . S
C801 C802 1.398 . S
C802 H790 0.950 . S
C802 C801 1.398 . S
C802 C803 1.391 . S
C803 H791 0.950 . S
C803 C799 1.393 . S
C803 C802 1.391 . S
H804 C812 0.950 . S
H805 C817 0.950 . S
H806 C814 0.950 . S
H807 C816 0.950 . S
H808 C818 0.950 . S
H809 C820 0.950 . S
H810 C822 0.950 . S
H811 C823 0.950 . S
C812 H804 0.950 . S
C812 C813 1.386 . S
C812 C814 1.391 . S
C813 C812 1.386 . S
C813 C817 1.393 . S
C814 H806 0.950 . S
C814 C812 1.391 . S
C814 C815 1.400 . S
C815 C814 1.400 . S
C815 C816 1.398 . S
C815 C821 1.491 . S
C816 H807 0.950 . S
C816 C815 1.398 . S
C816 C817 1.391 . S
C817 H805 0.950 . S
C817 C813 1.393 . S
C817 C816 1.391 . S
C818 H808 0.950 . S
C818 C819 1.386 . S
C818 C820 1.391 . S
C819 C818 1.386 . S
C819 C823 1.393 . S
C820 H809 0.950 . S
C820 C818 1.391 . S
C820 C821 1.400 . S
C821 C815 1.491 . S
C821 C820 1.400 . S
C821 C822 1.398 . S
C822 H810 0.950 . S
C822 C821 1.398 . S
C822 C823 1.391 . S
C823 H811 0.950 . S
C823 C819 1.393 . S
C823 C822 1.391 . S
H824 C832 0.950 . S
H825 C837 0.950 . S
H826 C834 0.950 . S
H827 C836 0.950 . S
H828 C838 0.950 . S
H829 C840 0.950 . S
H830 C842 0.950 . S
H831 C843 0.950 . S
C832 H824 0.950 . S
C832 C833 1.386 . S
C832 C834 1.391 . S
C833 C832 1.386 . S
C833 C837 1.393 . S
C834 H826 0.950 . S
C834 C832 1.391 . S
C834 C835 1.400 . S
C835 C834 1.400 . S
C835 C836 1.398 . S
C835 C841 1.491 . S
C836 H827 0.950 . S
C836 C835 1.398 . S
C836 C837 1.391 . S
C837 H825 0.950 . S
C837 C833 1.393 . S
C837 C836 1.391 . S
C838 H828 0.950 . S
C838 C839 1.386 . S
C838 C840 1.391 . S
C839 C838 1.386 . S
C839 C843 1.393 . S
C840 H829 0.950 . S
C840 C838 1.391 . S
C840 C841 1.400 . S
C841 C835 1.491 . S
C841 C840 1.400 . S
C841 C842 1.398 . S
C842 H830 0.950 . S
C842 C841 1.398 . S
C842 C843 1.391 . S
C843 H831 0.950 . S
C843 C839 1.393 . S
C843 C842 1.391 . S
H844 C852 0.950 . S
H845 C857 0.950 . S
H846 C854 0.950 . S
H847 C856 0.950 . S
H848 C858 0.950 . S
H849 C860 0.950 . S
H850 C862 0.950 . S
H851 C863 0.950 . S
C852 H844 0.950 . S
C852 C853 1.386 . S
C852 C854 1.391 . S
C853 C852 1.386 . S
C853 C857 1.393 . S
C854 H846 0.950 . S
C854 C852 1.391 . S
C854 C855 1.400 . S
C855 C854 1.400 . S
C855 C856 1.398 . S
C855 C861 1.491 . S
C856 H847 0.950 . S
C856 C855 1.398 . S
C856 C857 1.391 . S
C857 H845 0.950 . S
C857 C853 1.393 . S
C857 C856 1.391 . S
C858 H848 0.950 . S
C858 C859 1.386 . S
C858 C860 1.391 . S
C859 C858 1.386 . S
C859 C863 1.393 . S
C860 H849 0.950 . S
C860 C858 1.391 . S
C860 C861 1.400 . S
C861 C855 1.491 . S
C861 C860 1.400 . S
C861 C862 1.398 . S
C862 H850 0.950 . S
C862 C861 1.398 . S
C862 C863 1.391 . S
C863 H851 0.950 . S
C863 C859 1.393 . S
C863 C862 1.391 . S
C233 C7 1.248 . S
C239 C77 1.249 . S
C253 C63 1.249 . S
C259 C21 1.248 . S
C273 C35 1.256 . S
C279 C105 1.242 . S
C293 C91 1.258 . S
C299 C49 1.240 . S
C313 C189 1.256 . S
C319 C119 1.242 . S
C333 C175 1.259 . S
C339 C133 1.238 . S
C353 C217 1.256 . S
C359 C147 1.242 . S
C373 C161 1.241 . S
C379 C203 1.257 . S
C393 C23 1.490 . S
C399 C9 1.490 . S
C413 C37 1.487 . S
C419 C51 1.488 . S
C433 C65 1.494 . S
C439 C79 1.494 . S
C453 C93 1.486 . S
C459 C107 1.486 . S
C473 C121 1.481 . S
C479 C135 1.481 . S
C493 C163 1.482 . S
C499 C149 1.482 . S
C513 C191 1.484 . S
C519 C177 1.484 . S
C533 C205 1.480 . S
C539 C219 1.480 . S
C553 C134 1.519 . S
C559 C8 1.519 . S
C573 C22 1.516 . S
C579 C120 1.517 . S
C593 C162 1.516 . S
C599 C36 1.515 . S
C613 C50 1.517 . S
C619 C148 1.516 . S
C633 C64 1.518 . S
C639 C190 1.517 . S
C653 C176 1.519 . S
C659 C78 1.519 . S
C673 C92 1.518 . S
C679 C218 1.517 . S
C693 C204 1.518 . S
C699 C106 1.518 . S
C713 C3 1.231 . S
C719 C31 1.226 . S
C733 C45 1.258 . S
C739 C17 1.258 . S
C753 C87 1.226 . S
C759 C59 1.234 . S
C773 C101 1.255 . S
C779 C73 1.240 . S
C793 C143 1.259 . S
C799 C115 1.257 . S
C813 C129 1.226 . S
C819 C157 1.232 . S
C833 C199 1.259 . S
C839 C171 1.248 . S
C853 C185 1.228 . S
C859 C213 1.228 . S
