# Generated by pormake.
# Topology cbo, (4)-cn, num edge types: 1
# Building blocks:
#     Node 0, Type 0, BuildingBlock: TATPOV_clean_sbu_0, # of connection points: 4
#     Node 1, Type 0, BuildingBlock: TATPOV_clean_sbu_0, # of connection points: 4
#     Node 2, Type 0, BuildingBlock: TATPOV_clean_sbu_0, # of connection points: 4
#     Node 3, Type 0, BuildingBlock: TATPOV_clean_sbu_0, # of connection points: 4
#     Node 4, Type 0, BuildingBlock: TATPOV_clean_sbu_0, # of connection points: 4
#     Node 5, Type 0, BuildingBlock: TATPOV_clean_sbu_0, # of connection points: 4
#     Node 6, Type 0, BuildingBlock: TATPOV_clean_sbu_0, # of connection points: 4
#     Node 7, Type 0, BuildingBlock: TATPOV_clean_sbu_0, # of connection points: 4
#     Node 8, Type 0, BuildingBlock: TATPOV_clean_sbu_0, # of connection points: 4
#     Node 9, Type 0, BuildingBlock: TATPOV_clean_sbu_0, # of connection points: 4
#     Node 10, Type 0, BuildingBlock: TATPOV_clean_sbu_0, # of connection points: 4
#     Node 11, Type 0, BuildingBlock: TATPOV_clean_sbu_0, # of connection points: 4
#     Node 12, Type 0, BuildingBlock: TATPOV_clean_sbu_0, # of connection points: 4
#     Node 13, Type 0, BuildingBlock: TATPOV_clean_sbu_0, # of connection points: 4
#     Node 14, Type 0, BuildingBlock: TATPOV_clean_sbu_0, # of connection points: 4
#     Node 15, Type 0, BuildingBlock: TATPOV_clean_sbu_0, # of connection points: 4
#     Node 16, Type 0, BuildingBlock: TATPOV_clean_sbu_0, # of connection points: 4
#     Node 17, Type 0, BuildingBlock: TATPOV_clean_sbu_0, # of connection points: 4
#     Node 18, Type 0, BuildingBlock: TATPOV_clean_sbu_0, # of connection points: 4
#     Node 19, Type 0, BuildingBlock: TATPOV_clean_sbu_0, # of connection points: 4
#     Node 20, Type 0, BuildingBlock: TATPOV_clean_sbu_0, # of connection points: 4
#     Node 21, Type 0, BuildingBlock: TATPOV_clean_sbu_0, # of connection points: 4
#     Node 22, Type 0, BuildingBlock: TATPOV_clean_sbu_0, # of connection points: 4
#     Node 23, Type 0, BuildingBlock: TATPOV_clean_sbu_0, # of connection points: 4
#     Edge 24, Type (0, 0), BuildingBlock: ZUJKAS_clean_linker_0, # of connection points: 2
#     Edge 25, Type (0, 0), BuildingBlock: ZUJKAS_clean_linker_0, # of connection points: 2
#     Edge 26, Type (0, 0), BuildingBlock: ZUJKAS_clean_linker_0, # of connection points: 2
#     Edge 27, Type (0, 0), BuildingBlock: ZUJKAS_clean_linker_0, # of connection points: 2
#     Edge 28, Type (0, 0), BuildingBlock: ZUJKAS_clean_linker_0, # of connection points: 2
#     Edge 29, Type (0, 0), BuildingBlock: ZUJKAS_clean_linker_0, # of connection points: 2
#     Edge 30, Type (0, 0), BuildingBlock: ZUJKAS_clean_linker_0, # of connection points: 2
#     Edge 31, Type (0, 0), BuildingBlock: ZUJKAS_clean_linker_0, # of connection points: 2
#     Edge 32, Type (0, 0), BuildingBlock: ZUJKAS_clean_linker_0, # of connection points: 2
#     Edge 33, Type (0, 0), BuildingBlock: ZUJKAS_clean_linker_0, # of connection points: 2
#     Edge 34, Type (0, 0), BuildingBlock: ZUJKAS_clean_linker_0, # of connection points: 2
#     Edge 35, Type (0, 0), BuildingBlock: ZUJKAS_clean_linker_0, # of connection points: 2
#     Edge 36, Type (0, 0), BuildingBlock: ZUJKAS_clean_linker_0, # of connection points: 2
#     Edge 37, Type (0, 0), BuildingBlock: ZUJKAS_clean_linker_0, # of connection points: 2
#     Edge 38, Type (0, 0), BuildingBlock: ZUJKAS_clean_linker_0, # of connection points: 2
#     Edge 39, Type (0, 0), BuildingBlock: ZUJKAS_clean_linker_0, # of connection points: 2
#     Edge 40, Type (0, 0), BuildingBlock: ZUJKAS_clean_linker_0, # of connection points: 2
#     Edge 41, Type (0, 0), BuildingBlock: ZUJKAS_clean_linker_0, # of connection points: 2
#     Edge 42, Type (0, 0), BuildingBlock: ZUJKAS_clean_linker_0, # of connection points: 2
#     Edge 43, Type (0, 0), BuildingBlock: ZUJKAS_clean_linker_0, # of connection points: 2
#     Edge 44, Type (0, 0), BuildingBlock: ZUJKAS_clean_linker_0, # of connection points: 2
#     Edge 45, Type (0, 0), BuildingBlock: ZUJKAS_clean_linker_0, # of connection points: 2
#     Edge 46, Type (0, 0), BuildingBlock: ZUJKAS_clean_linker_0, # of connection points: 2
#     Edge 47, Type (0, 0), BuildingBlock: ZUJKAS_clean_linker_0, # of connection points: 2
#     Edge 48, Type (0, 0), BuildingBlock: ZUJKAS_clean_linker_0, # of connection points: 2
#     Edge 49, Type (0, 0), BuildingBlock: ZUJKAS_clean_linker_0, # of connection points: 2
#     Edge 50, Type (0, 0), BuildingBlock: ZUJKAS_clean_linker_0, # of connection points: 2
#     Edge 51, Type (0, 0), BuildingBlock: ZUJKAS_clean_linker_0, # of connection points: 2
#     Edge 52, Type (0, 0), BuildingBlock: ZUJKAS_clean_linker_0, # of connection points: 2
#     Edge 53, Type (0, 0), BuildingBlock: ZUJKAS_clean_linker_0, # of connection points: 2
#     Edge 54, Type (0, 0), BuildingBlock: ZUJKAS_clean_linker_0, # of connection points: 2
#     Edge 55, Type (0, 0), BuildingBlock: ZUJKAS_clean_linker_0, # of connection points: 2
#     Edge 56, Type (0, 0), BuildingBlock: ZUJKAS_clean_linker_0, # of connection points: 2
#     Edge 57, Type (0, 0), BuildingBlock: ZUJKAS_clean_linker_0, # of connection points: 2
#     Edge 58, Type (0, 0), BuildingBlock: ZUJKAS_clean_linker_0, # of connection points: 2
#     Edge 59, Type (0, 0), BuildingBlock: ZUJKAS_clean_linker_0, # of connection points: 2
#     Edge 60, Type (0, 0), BuildingBlock: ZUJKAS_clean_linker_0, # of connection points: 2
#     Edge 61, Type (0, 0), BuildingBlock: ZUJKAS_clean_linker_0, # of connection points: 2
#     Edge 62, Type (0, 0), BuildingBlock: ZUJKAS_clean_linker_0, # of connection points: 2
#     Edge 63, Type (0, 0), BuildingBlock: ZUJKAS_clean_linker_0, # of connection points: 2
#     Edge 64, Type (0, 0), BuildingBlock: ZUJKAS_clean_linker_0, # of connection points: 2
#     Edge 65, Type (0, 0), BuildingBlock: ZUJKAS_clean_linker_0, # of connection points: 2
#     Edge 66, Type (0, 0), BuildingBlock: ZUJKAS_clean_linker_0, # of connection points: 2
#     Edge 67, Type (0, 0), BuildingBlock: ZUJKAS_clean_linker_0, # of connection points: 2
#     Edge 68, Type (0, 0), BuildingBlock: ZUJKAS_clean_linker_0, # of connection points: 2
#     Edge 69, Type (0, 0), BuildingBlock: ZUJKAS_clean_linker_0, # of connection points: 2
#     Edge 70, Type (0, 0), BuildingBlock: ZUJKAS_clean_linker_0, # of connection points: 2
#     Edge 71, Type (0, 0), BuildingBlock: ZUJKAS_clean_linker_0, # of connection points: 2
# Relax obj value: 0.207
# Max RMSD: 0.242
# Mean RMSD: 0.238
data_MOF--net-cbo--node1-TATPOV_clean_sbu_0--edge1-ZUJKAS_clean_linker_0
_symmetry_space_group_name_H-M    P1
_symmetry_Int_Tables_number       1
_symmetry_cell_setting            triclinic
loop_
_symmetry_equiv_pos_as_xyz
'x, y, z'
_cell_length_a     68.318553
_cell_length_b     69.014333
_cell_length_c     68.364228
_cell_angle_alpha  90.204819
_cell_angle_beta   89.984425
_cell_angle_gamma 90.310306
loop_
_atom_site_label
_atom_site_type_symbol
_atom_site_fract_x
_atom_site_fract_y
_atom_site_fract_z
_atom_type_partial_charge
Zn0 Zn 0.10985 0.1647 0.31742 0.0
Zn1 Zn 0.08218 0.13848 0.31106 0.0
O2 O 0.07622 0.16164 0.29267 0.0
O3 O 0.09824 0.1841 0.29896 0.0
O4 O 0.05704 0.1226 0.30885 0.0
O5 O 0.105 0.16628 0.34627 0.0
O6 O 0.08385 0.14266 0.34135 0.0
C7 C 0.08347 0.17837 0.28936 0.0
C8 C 0.12347 0.12784 0.30012 0.0
O9 O 0.10549 0.12263 0.30023 0.0
O10 O 0.12842 0.14433 0.30681 0.0
C11 C 0.04653 0.12245 0.29346 0.0
O12 O 0.0533 0.13075 0.27756 0.0
C13 C 0.09302 0.15399 0.35303 0.0
Zn14 Zn 0.35501 0.78419 0.82028 0.0
Zn15 Zn 0.38375 0.80949 0.81457 0.0
O16 O 0.38946 0.78625 0.79607 0.0
O17 O 0.36629 0.76474 0.80148 0.0
O18 O 0.40899 0.82515 0.81258 0.0
O19 O 0.35983 0.78216 0.84909 0.0
O20 O 0.38177 0.80516 0.84477 0.0
C21 C 0.38155 0.76988 0.79235 0.0
C22 C 0.34285 0.82153 0.80353 0.0
O23 O 0.36102 0.82594 0.8037 0.0
O24 O 0.33713 0.80527 0.81007 0.0
C25 C 0.41946 0.82533 0.79718 0.0
O26 O 0.41276 0.81691 0.78126 0.0
C27 C 0.37217 0.79397 0.85616 0.0
Zn28 Zn 0.60897 0.2753 0.64018 0.0
Zn29 Zn 0.5822 0.30202 0.64438 0.0
O30 O 0.57482 0.27994 0.66375 0.0
O31 O 0.59663 0.25707 0.65931 0.0
O32 O 0.55769 0.31855 0.64552 0.0
O33 O 0.60477 0.27194 0.6115 0.0
O34 O 0.5846 0.29651 0.61428 0.0
C35 C 0.58165 0.26334 0.66812 0.0
C36 C 0.62353 0.31251 0.65569 0.0
O37 O 0.6057 0.31795 0.65502 0.0
O38 O 0.62814 0.29565 0.64991 0.0
C39 C 0.54851 0.32187 0.66138 0.0
O40 O 0.55622 0.31621 0.678 0.0
C41 C 0.59362 0.2842 0.60362 0.0
Zn42 Zn 0.84993 0.66006 0.1393 0.0
Zn43 Zn 0.88025 0.63728 0.14593 0.0
O44 O 0.88426 0.66098 0.16442 0.0
O45 O 0.85933 0.6801 0.15857 0.0
O46 O 0.90607 0.62292 0.14828 0.0
O47 O 0.85549 0.66274 0.11069 0.0
O48 O 0.87885 0.64155 0.11569 0.0
C49 C 0.87486 0.67653 0.16794 0.0
C50 C 0.83981 0.62209 0.15573 0.0
O51 O 0.85827 0.61931 0.15634 0.0
O52 O 0.83309 0.6377 0.14874 0.0
C53 C 0.91704 0.62377 0.16332 0.0
O54 O 0.91078 0.6329 0.17899 0.0
C55 C 0.86886 0.65199 0.10401 0.0
Zn56 Zn 0.32187 0.11889 0.18303 0.0
Zn57 Zn 0.31648 0.08918 0.15874 0.0
O58 O 0.29721 0.08382 0.18164 0.0
O59 O 0.30256 0.1077 0.20237 0.0
O60 O 0.31425 0.06498 0.14208 0.0
O61 O 0.35079 0.11404 0.18537 0.0
O62 O 0.34649 0.09036 0.16419 0.0
C63 C 0.29329 0.09243 0.1977 0.0
C64 C 0.30556 0.12948 0.14505 0.0
O65 O 0.30635 0.11134 0.14151 0.0
O66 O 0.31162 0.13608 0.16131 0.0
C67 C 0.29807 0.0562 0.13931 0.0
O68 O 0.282 0.06349 0.14682 0.0
C69 C 0.35785 0.10065 0.17488 0.0
Zn70 Zn 0.14801 0.82802 0.68415 0.0
Zn71 Zn 0.15238 0.85772 0.65998 0.0
O72 O 0.17188 0.86357 0.68262 0.0
O73 O 0.16756 0.8394 0.70306 0.0
O74 O 0.15395 0.8819 0.64334 0.0
O75 O 0.11924 0.83255 0.68748 0.0
O76 O 0.12248 0.85607 0.6661 0.0
C77 C 0.1763 0.85495 0.69848 0.0
C78 C 0.1635 0.81746 0.64584 0.0
O79 O 0.16255 0.8356 0.64246 0.0
O80 O 0.15778 0.81082 0.66216 0.0
C81 C 0.16998 0.8909 0.64043 0.0
O82 O 0.18623 0.88386 0.64773 0.0
C83 C 0.11165 0.84572 0.67719 0.0
Zn84 Zn 0.821 0.32453 0.77506 0.0
Zn85 Zn 0.81592 0.35555 0.79735 0.0
O86 O 0.79685 0.359 0.77401 0.0
O87 O 0.80173 0.33383 0.75487 0.0
O88 O 0.81311 0.38153 0.81086 0.0
O89 O 0.8498 0.3295 0.77204 0.0
O90 O 0.84607 0.35409 0.79222 0.0
C91 C 0.79274 0.34942 0.75854 0.0
C92 C 0.80474 0.31635 0.81385 0.0
O93 O 0.8054 0.33469 0.81626 0.0
O94 O 0.81094 0.30886 0.79806 0.0
C95 C 0.81401 0.3854 0.82904 0.0
O96 O 0.81688 0.37133 0.84159 0.0
C97 C 0.85715 0.34331 0.78184 0.0
Zn98 Zn 0.64575 0.61476 0.26544 0.0
Zn99 Zn 0.64819 0.58837 0.29299 0.0
O100 O 0.66797 0.58014 0.27129 0.0
O101 O 0.66318 0.60027 0.24696 0.0
O102 O 0.64896 0.56534 0.31112 0.0
O103 O 0.61649 0.61253 0.26367 0.0
O104 O 0.61841 0.59052 0.28674 0.0
C105 C 0.6721 0.5859 0.25405 0.0
C106 C 0.6628 0.62853 0.30237 0.0
O107 O 0.65897 0.61158 0.30871 0.0
O108 O 0.65874 0.63302 0.28487 0.0
C109 C 0.66501 0.55877 0.31769 0.0
O110 O 0.68139 0.56795 0.31355 0.0
C111 C 0.60815 0.60064 0.27502 0.0
Zn112 Zn 0.16192 0.30323 0.11974 0.0
Zn113 Zn 0.14125 0.29461 0.08822 0.0
O114 O 0.16642 0.27807 0.08574 0.0
O115 O 0.18438 0.28659 0.11107 0.0
O116 O 0.12817 0.28917 0.06214 0.0
O117 O 0.16175 0.33154 0.11426 0.0
O118 O 0.14439 0.32477 0.08803 0.0
C119 C 0.18213 0.27656 0.0957 0.0
C120 C 0.1249 0.2842 0.12832 0.0
O121 O 0.12268 0.28395 0.10977 0.0
O122 O 0.14016 0.29166 0.13578 0.0
C123 C 0.11605 0.3006 0.0541 0.0
O124 O 0.11042 0.31617 0.06364 0.0
C125 C 0.15267 0.33718 0.09923 0.0
Zn126 Zn 0.65862 0.14218 0.83482 0.0
Zn127 Zn 0.6387 0.14942 0.86738 0.0
O128 O 0.66347 0.16682 0.86996 0.0
O129 O 0.68039 0.1601 0.84343 0.0
O130 O 0.62508 0.15255 0.89355 0.0
O131 O 0.65986 0.11375 0.83999 0.0
O132 O 0.64275 0.11949 0.8666 0.0
C133 C 0.67858 0.16943 0.8593 0.0
C134 C 0.62075 0.1598 0.82798 0.0
O135 O 0.61946 0.15999 0.84661 0.0
O136 O 0.63572 0.15273 0.81973 0.0
C137 C 0.62648 0.16772 0.90408 0.0
O138 O 0.63622 0.18275 0.89735 0.0
C139 C 0.65123 0.10757 0.85512 0.0
Zn140 Zn 0.80041 0.80696 0.34191 0.0
Zn141 Zn 0.82371 0.79735 0.37122 0.0
O142 O 0.79886 0.78022 0.37428 0.0
O143 O 0.7782 0.79057 0.35198 0.0
O144 O 0.83801 0.79124 0.39639 0.0
O145 O 0.80142 0.8351 0.34833 0.0
O146 O 0.82119 0.82752 0.37246 0.0
C147 C 0.78208 0.77951 0.36614 0.0
C148 C 0.83686 0.7878 0.3301 0.0
O149 O 0.84067 0.78738 0.34837 0.0
O150 O 0.82103 0.79527 0.32412 0.0
C151 C 0.85084 0.80225 0.40417 0.0
O152 O 0.85657 0.81787 0.39481 0.0
C153 C 0.81201 0.84026 0.3626 0.0
Zn154 Zn 0.30527 0.64309 0.62164 0.0
Zn155 Zn 0.32664 0.65159 0.59056 0.0
O156 O 0.3015 0.66803 0.58765 0.0
O157 O 0.28293 0.65962 0.61251 0.0
O158 O 0.34006 0.65699 0.56469 0.0
O159 O 0.30574 0.61473 0.61608 0.0
O160 O 0.3237 0.62144 0.59027 0.0
C161 C 0.28555 0.66958 0.59722 0.0
C162 C 0.34213 0.66233 0.63092 0.0
O163 O 0.34476 0.66243 0.61242 0.0
O164 O 0.32671 0.65489 0.63805 0.0
C165 C 0.35237 0.64568 0.55671 0.0
O166 O 0.3581 0.6302 0.56622 0.0
C167 C 0.31522 0.60905 0.60126 0.0
Zn168 Zn 0.84194 0.77017 0.64536 0.0
Zn169 Zn 0.87262 0.79314 0.65322 0.0
O170 O 0.87718 0.76906 0.6706 0.0
O171 O 0.85262 0.74959 0.6633 0.0
O172 O 0.89741 0.80904 0.65694 0.0
O173 O 0.84781 0.76968 0.61657 0.0
O174 O 0.87233 0.78946 0.62298 0.0
C175 C 0.86802 0.7531 0.67304 0.0
C176 C 0.83164 0.80651 0.66451 0.0
O177 O 0.85007 0.80964 0.6643 0.0
O178 O 0.8247 0.79115 0.65694 0.0
C179 C 0.90704 0.80944 0.67286 0.0
O180 O 0.90017 0.80007 0.68811 0.0
C181 C 0.86204 0.7799 0.61066 0.0
Zn182 Zn 0.6279 0.17648 0.14562 0.0
Zn183 Zn 0.59629 0.15512 0.15273 0.0
O184 O 0.59348 0.17928 0.17054 0.0
O185 O 0.61906 0.19756 0.16391 0.0
O186 O 0.56981 0.14237 0.15689 0.0
O187 O 0.6221 0.17811 0.117 0.0
O188 O 0.59678 0.15905 0.12245 0.0
C189 C 0.60344 0.1947 0.17345 0.0
C190 C 0.63621 0.13919 0.16381 0.0
O191 O 0.61764 0.13687 0.16359 0.0
O192 O 0.6438 0.15436 0.15656 0.0
C193 C 0.56506 0.12453 0.15685 0.0
O194 O 0.57864 0.11136 0.15423 0.0
C195 C 0.60754 0.16863 0.11061 0.0
Zn196 Zn 0.33867 0.67475 0.31549 0.0
Zn197 Zn 0.36885 0.65196 0.30688 0.0
O198 O 0.37309 0.67607 0.28941 0.0
O199 O 0.34858 0.69524 0.29691 0.0
O200 O 0.39372 0.63662 0.30247 0.0
O201 O 0.3454 0.67575 0.34404 0.0
O202 O 0.36929 0.65562 0.33717 0.0
C203 C 0.36382 0.69186 0.28694 0.0
C204 C 0.32758 0.63824 0.29689 0.0
O205 O 0.346 0.63529 0.29621 0.0
O206 O 0.321 0.65347 0.3049 0.0
C207 C 0.40217 0.63572 0.28591 0.0
O208 O 0.39381 0.64384 0.27072 0.0
C209 C 0.35953 0.66541 0.34967 0.0
Zn210 Zn 0.12717 0.27273 0.81162 0.0
Zn211 Zn 0.09718 0.29608 0.80403 0.0
O212 O 0.09214 0.27201 0.78644 0.0
O213 O 0.11625 0.25225 0.79351 0.0
O214 O 0.07242 0.31198 0.80059 0.0
O215 O 0.12153 0.27214 0.84041 0.0
O216 O 0.09752 0.29231 0.8343 0.0
C217 C 0.10095 0.25596 0.7838 0.0
C218 C 0.13851 0.30891 0.7928 0.0
O219 O 0.12016 0.31239 0.79297 0.0
O220 O 0.14495 0.29343 0.80029 0.0
C221 C 0.06243 0.31196 0.78488 0.0
O222 O 0.069 0.3024 0.7696 0.0
C223 C 0.10761 0.28256 0.84649 0.0
Zn224 Zn 0.69632 0.87381 0.85346 0.0
Zn225 Zn 0.66394 0.86575 0.8334 0.0
O226 O 0.66943 0.84098 0.84966 0.0
O227 O 0.69531 0.84821 0.86743 0.0
O228 O 0.637 0.86066 0.82181 0.0
O229 O 0.68528 0.89779 0.86576 0.0
O230 O 0.65963 0.89236 0.84709 0.0
C231 C 0.6822 0.83618 0.86234 0.0
C232 C 0.70154 0.87171 0.81082 0.0
O233 O 0.68335 0.86743 0.81044 0.0
O234 O 0.70993 0.87539 0.82698 0.0
C235 C 0.62362 0.85556 0.83373 0.0
O236 O 0.62817 0.85336 0.85226 0.0
C237 C 0.66876 0.90301 0.85941 0.0
Zn238 Zn 0.77011 0.07103 0.35161 0.0
Zn239 Zn 0.80327 0.07853 0.33234 0.0
O240 O 0.79828 0.10353 0.3485 0.0
O241 O 0.77153 0.09697 0.3652 0.0
O242 O 0.83058 0.08227 0.32102 0.0
O243 O 0.7805 0.04694 0.36412 0.0
O244 O 0.8072 0.05259 0.34712 0.0
C245 C 0.78512 0.10868 0.3607 0.0
C246 C 0.76568 0.07255 0.30909 0.0
O247 O 0.78395 0.07661 0.30905 0.0
O248 O 0.75693 0.06924 0.32511 0.0
C249 C 0.83856 0.09847 0.317 0.0
O250 O 0.82832 0.11442 0.31895 0.0
C251 C 0.79751 0.04195 0.35893 0.0
Zn252 Zn 0.19396 0.57078 0.10771 0.0
Zn253 Zn 0.16044 0.57773 0.1266 0.0
O254 O 0.16599 0.60261 0.11053 0.0
O255 O 0.19306 0.59663 0.09423 0.0
O256 O 0.13329 0.58249 0.13772 0.0
O257 O 0.18315 0.54688 0.09468 0.0
O258 O 0.1566 0.5514 0.11229 0.0
C259 C 0.17929 0.60804 0.09861 0.0
C260 C 0.19754 0.57239 0.15043 0.0
O261 O 0.17926 0.57611 0.15006 0.0
O262 O 0.20667 0.56915 0.13459 0.0
C263 C 0.12012 0.5875 0.12561 0.0
O264 O 0.12492 0.58957 0.10712 0.0
C265 C 0.16636 0.54126 0.10011 0.0
Zn266 Zn 0.27422 0.37577 0.60457 0.0
Zn267 Zn 0.30708 0.36692 0.62285 0.0
O268 O 0.30006 0.34283 0.60587 0.0
O269 O 0.27338 0.35061 0.58981 0.0
O270 O 0.33468 0.36054 0.63172 0.0
O271 O 0.28527 0.3996 0.59211 0.0
O272 O 0.31141 0.39392 0.6099 0.0
C273 C 0.28654 0.33841 0.59375 0.0
C274 C 0.27091 0.3729 0.64744 0.0
O275 O 0.28895 0.36815 0.647 0.0
O276 O 0.26208 0.37717 0.63172 0.0
C277 C 0.34311 0.36542 0.64759 0.0
O278 O 0.33324 0.37503 0.66093 0.0
C279 C 0.30207 0.40468 0.59801 0.0
Zn280 Zn 0.78039 0.62289 0.83897 0.0
Zn281 Zn 0.80332 0.63005 0.86966 0.0
O282 O 0.7788 0.64722 0.87338 0.0
O283 O 0.75935 0.64103 0.84851 0.0
O284 O 0.81727 0.63464 0.89539 0.0
O285 O 0.77943 0.59439 0.8449 0.0
O286 O 0.80006 0.60005 0.86897 0.0
C287 C 0.76289 0.65028 0.86414 0.0
C288 C 0.81828 0.64072 0.82937 0.0
O289 O 0.82121 0.64072 0.84781 0.0
O290 O 0.80254 0.6337 0.82244 0.0
C291 C 0.83462 0.62969 0.89978 0.0
O292 O 0.84559 0.62125 0.88649 0.0
C293 C 0.79008 0.58815 0.85862 0.0
Zn294 Zn 0.27863 0.82124 0.12084 0.0
Zn295 Zn 0.30094 0.81399 0.08989 0.0
O296 O 0.27637 0.79644 0.08658 0.0
O297 O 0.25745 0.80299 0.11174 0.0
O298 O 0.31487 0.80945 0.06414 0.0
O299 O 0.27716 0.84951 0.11467 0.0
O300 O 0.29745 0.844 0.0903 0.0
C301 C 0.26059 0.79358 0.09615 0.0
C302 C 0.31657 0.80407 0.13014 0.0
O303 O 0.3191 0.80376 0.11164 0.0
O304 O 0.30099 0.81107 0.1373 0.0
C305 C 0.33187 0.81563 0.0597 0.0
O306 O 0.34211 0.82524 0.07282 0.0
C307 C 0.28746 0.85579 0.10066 0.0
Zn308 Zn 0.18487 0.12655 0.61823 0.0
Zn309 Zn 0.16236 0.13216 0.58708 0.0
O310 O 0.18663 0.1499 0.58323 0.0
O311 O 0.20535 0.14548 0.60896 0.0
O312 O 0.14853 0.1358 0.56115 0.0
O313 O 0.18725 0.09816 0.61243 0.0
O314 O 0.16639 0.10228 0.5883 0.0
C315 C 0.20213 0.15391 0.59288 0.0
C316 C 0.14644 0.14288 0.62711 0.0
O317 O 0.144 0.1428 0.6086 0.0
O318 O 0.1621 0.13629 0.63443 0.0
C319 C 0.13117 0.13065 0.55679 0.0
O320 O 0.1201 0.1225 0.57019 0.0
C321 C 0.17688 0.09112 0.59879 0.0
Zn322 Zn 0.69135 0.32283 0.33972 0.0
Zn323 Zn 0.66811 0.31737 0.3702 0.0
O324 O 0.69174 0.29907 0.37497 0.0
O325 O 0.71149 0.30445 0.35013 0.0
O326 O 0.6523 0.31474 0.39514 0.0
O327 O 0.69367 0.35131 0.34459 0.0
O328 O 0.6729 0.34725 0.36882 0.0
C329 C 0.70763 0.29554 0.36583 0.0
C330 C 0.65321 0.30647 0.32977 0.0
O331 O 0.65025 0.30697 0.34819 0.0
O332 O 0.66925 0.31265 0.32278 0.0
C333 C 0.64863 0.29833 0.40276 0.0
O334 O 0.65468 0.28257 0.39381 0.0
C335 C 0.68334 0.35841 0.35816 0.0
H336 H 0.12111 0.29031 0.16731 0.0
H337 H 0.10196 0.27162 0.19055 0.0
H338 H 0.07681 0.23828 0.14326 0.0
H339 H 0.09645 0.25692 0.11963 0.0
H340 H 0.06231 0.26355 0.19623 0.0
H341 H 0.10437 0.19724 0.17636 0.0
H342 H 0.11169 0.22094 0.16797 0.0
H343 H 0.09081 0.20904 0.15732 0.0
C344 C 0.11135 0.27917 0.16173 0.0
C345 C 0.11056 0.27488 0.14162 0.0
C346 C 0.1003 0.26855 0.17508 0.0
C347 C 0.0882 0.25334 0.16871 0.0
C348 C 0.08632 0.24977 0.14852 0.0
H349 H 0.0607 0.16659 0.25843 0.0
H350 H 0.05509 0.18423 0.2279 0.0
C351 C 0.09744 0.2605 0.13504 0.0
C352 C 0.07931 0.24044 0.18365 0.0
H353 H 0.08639 0.19653 0.2053 0.0
C354 C 0.06716 0.24871 0.19797 0.0
C355 C 0.08558 0.22105 0.1859 0.0
C356 C 0.09891 0.21147 0.17119 0.0
C357 C 0.06228 0.23861 0.21511 0.0
C358 C 0.0699 0.21986 0.21807 0.0
C359 C 0.08061 0.21096 0.20302 0.0
C360 C 0.06971 0.21044 0.23756 0.0
C361 C 0.0497 0.24844 0.23027 0.0
C362 C 0.07944 0.21945 0.25325 0.0
C363 C 0.08279 0.2094 0.27061 0.0
C364 C 0.07648 0.19009 0.27265 0.0
C365 C 0.06567 0.18147 0.25737 0.0
C366 C 0.06248 0.19151 0.23989 0.0
H367 H 0.03965 0.25902 0.2234 0.0
H368 H 0.04092 0.23774 0.23867 0.0
H369 H 0.05924 0.25651 0.24064 0.0
H370 H 0.08552 0.23389 0.25167 0.0
H371 H 0.09115 0.21647 0.28207 0.0
H372 H 0.37291 0.73197 0.78485 0.0
H373 H 0.37886 0.71412 0.75464 0.0
H374 H 0.4112 0.76275 0.73155 0.0
H375 H 0.4053 0.78082 0.76191 0.0
H376 H 0.38004 0.75078 0.70816 0.0
H377 H 0.42516 0.6877 0.72783 0.0
H378 H 0.40524 0.69093 0.7446 0.0
H379 H 0.42399 0.70929 0.74285 0.0
C380 C 0.38174 0.73872 0.77358 0.0
C381 C 0.38854 0.75786 0.77577 0.0
C382 C 0.38527 0.72842 0.75634 0.0
C383 C 0.39565 0.73701 0.7409 0.0
C384 C 0.40331 0.75578 0.74337 0.0
H385 H 0.37106 0.6892 0.62271 0.0
H386 H 0.39034 0.70798 0.64666 0.0
C387 C 0.39995 0.76607 0.76075 0.0
C388 C 0.3958 0.72736 0.72146 0.0
H389 H 0.40317 0.68324 0.70012 0.0
C390 C 0.38561 0.73623 0.70611 0.0
C391 C 0.40316 0.70844 0.71882 0.0
C392 C 0.41518 0.69862 0.73436 0.0
C393 C 0.38088 0.72597 0.68895 0.0
C394 C 0.38686 0.70645 0.68699 0.0
C395 C 0.39853 0.69818 0.70165 0.0
C396 C 0.37811 0.69348 0.67194 0.0
C397 C 0.36808 0.73557 0.67386 0.0
C398 C 0.36564 0.67853 0.67815 0.0
C399 C 0.3548 0.66783 0.66463 0.0
C400 C 0.35617 0.67177 0.64451 0.0
C401 C 0.36963 0.6859 0.63812 0.0
C402 C 0.38053 0.69671 0.65178 0.0
H403 H 0.36274 0.74996 0.67879 0.0
H404 H 0.37654 0.73765 0.66016 0.0
H405 H 0.35521 0.72626 0.67042 0.0
H406 H 0.36356 0.67573 0.69361 0.0
H407 H 0.34477 0.6569 0.67007 0.0
H408 H 0.55754 0.27627 0.69754 0.0
H409 H 0.55082 0.25992 0.72868 0.0
H410 H 0.58216 0.20966 0.70835 0.0
H411 H 0.58875 0.22569 0.67733 0.0
H412 H 0.54787 0.20103 0.73152 0.0
H413 H 0.59791 0.25512 0.76654 0.0
H414 H 0.57686 0.26386 0.75356 0.0
H415 H 0.59643 0.25257 0.74032 0.0
C416 C 0.56255 0.26155 0.69953 0.0
C417 C 0.57393 0.25238 0.68507 0.0
C418 C 0.55879 0.25228 0.71737 0.0
C419 C 0.5663 0.23372 0.72093 0.0
C420 C 0.57628 0.22401 0.70593 0.0
H421 H 0.61286 0.1514 0.79007 0.0
H422 H 0.59282 0.16976 0.76748 0.0
C423 C 0.5801 0.23324 0.68821 0.0
C424 C 0.56599 0.22501 0.74072 0.0
H425 H 0.5908 0.22703 0.78401 0.0
C426 C 0.55683 0.20694 0.74323 0.0
C427 C 0.57754 0.23281 0.75607 0.0
C428 C 0.58786 0.25211 0.75412 0.0
C429 C 0.56008 0.19583 0.76009 0.0
C430 C 0.57314 0.20283 0.77457 0.0
C431 C 0.58084 0.22165 0.77287 0.0
C432 C 0.58198 0.1898 0.78933 0.0
C433 C 0.55023 0.17632 0.76178 0.0
C434 C 0.58255 0.19483 0.80928 0.0
C435 C 0.59415 0.18427 0.82235 0.0
C436 C 0.60562 0.16879 0.81553 0.0
C437 C 0.60424 0.16328 0.79577 0.0
C438 C 0.59258 0.17366 0.78284 0.0
H439 H 0.53567 0.17639 0.75455 0.0
H440 H 0.5593 0.16526 0.75427 0.0
H441 H 0.54833 0.17199 0.7773 0.0
H442 H 0.57467 0.20739 0.81455 0.0
H443 H 0.59503 0.18891 0.83748 0.0
H444 H 0.90095 0.66932 0.19765 0.0
H445 H 0.90566 0.68853 0.22758 0.0
H446 H 0.86605 0.73172 0.2056 0.0
H447 H 0.86137 0.71283 0.17575 0.0
H448 H 0.90006 0.747 0.22594 0.0
H449 H 0.86002 0.69 0.26784 0.0
H450 H 0.88126 0.68289 0.25407 0.0
H451 H 0.85966 0.69065 0.24146 0.0
C452 C 0.89357 0.68311 0.19901 0.0
C453 C 0.88059 0.68943 0.1844 0.0
C454 C 0.8962 0.694 0.21617 0.0
C455 C 0.88596 0.71139 0.21891 0.0
C456 C 0.87405 0.71831 0.2038 0.0
H457 H 0.83743 0.79383 0.29088 0.0
H458 H 0.8551 0.77561 0.26612 0.0
C459 C 0.87134 0.70744 0.18676 0.0
C460 C 0.886 0.72172 0.23798 0.0
H461 H 0.86545 0.71969 0.28345 0.0
C462 C 0.89288 0.74091 0.23868 0.0
C463 C 0.87676 0.7137 0.25464 0.0
C464 C 0.86888 0.69322 0.2546 0.0
C465 C 0.88976 0.75263 0.25522 0.0
C466 C 0.87913 0.74508 0.27127 0.0
C467 C 0.87356 0.72547 0.27113 0.0
C468 C 0.8709 0.75783 0.28674 0.0
C469 C 0.8973 0.77321 0.25506 0.0
C470 C 0.87381 0.75391 0.30669 0.0
C471 C 0.86358 0.76437 0.32103 0.0
C472 C 0.85002 0.77863 0.31557 0.0
C473 C 0.84772 0.78292 0.29561 0.0
C474 C 0.85799 0.77262 0.28139 0.0
H475 H 0.91076 0.77448 0.24601 0.0
H476 H 0.88606 0.78275 0.24851 0.0
H477 H 0.90057 0.77849 0.27008 0.0
H478 H 0.88355 0.7424 0.31113 0.0
H479 H 0.86559 0.76065 0.33628 0.0
H480 H 0.28469 0.10367 0.23499 0.0
H481 H 0.25406 0.09878 0.25258 0.0
H482 H 0.2323 0.06303 0.20543 0.0
H483 H 0.26306 0.06796 0.18756 0.0
H484 H 0.20768 0.0932 0.21484 0.0
H485 H 0.22821 0.05464 0.28229 0.0
H486 H 0.24401 0.07503 0.27801 0.0
H487 H 0.24373 0.05512 0.26089 0.0
C488 C 0.27361 0.09436 0.22853 0.0
C489 C 0.27634 0.08626 0.20982 0.0
C490 C 0.25611 0.09146 0.2387 0.0
C491 C 0.24092 0.08036 0.23045 0.0
C492 C 0.24388 0.07152 0.21215 0.0
H493 H 0.11953 0.09716 0.2743 0.0
H494 H 0.14608 0.08027 0.25697 0.0
C495 C 0.26151 0.07431 0.20199 0.0
C496 C 0.22132 0.08025 0.23994 0.0
H497 H 0.19927 0.07492 0.28444 0.0
C498 C 0.20562 0.0887 0.22989 0.0
C499 C 0.21863 0.07432 0.25954 0.0
C500 C 0.23451 0.06408 0.27073 0.0
C501 C 0.1879 0.09293 0.23943 0.0
C502 C 0.18574 0.08828 0.25947 0.0
C503 C 0.20094 0.07854 0.2691 0.0
C504 C 0.16939 0.09621 0.27136 0.0
C505 C 0.17222 0.10367 0.2284 0.0
C506 C 0.17369 0.11014 0.28571 0.0
C507 C 0.15869 0.11968 0.29556 0.0
C508 C 0.13894 0.11549 0.2914 0.0
C509 C 0.13458 0.10074 0.2778 0.0
C510 C 0.14972 0.09119 0.2678 0.0
H511 H 0.17723 0.10836 0.21369 0.0
H512 H 0.15926 0.09411 0.2265 0.0
H513 H 0.16754 0.11667 0.23677 0.0
H514 H 0.18873 0.11423 0.28875 0.0
H515 H 0.16262 0.13081 0.30609 0.0
H516 H 0.34813 0.85009 0.77593 0.0
H517 H 0.3223 0.86758 0.75829 0.0
H518 H 0.27848 0.83915 0.79359 0.0
H519 H 0.30391 0.8219 0.81112 0.0
H520 H 0.29372 0.84895 0.73655 0.0
H521 H 0.25819 0.89421 0.79269 0.0
H522 H 0.2825 0.88451 0.79582 0.0
H523 H 0.26126 0.86991 0.8013 0.0
C524 C 0.33301 0.84801 0.78023 0.0
C525 C 0.32805 0.83456 0.79486 0.0
C526 C 0.31827 0.85796 0.77013 0.0
C527 C 0.29845 0.8549 0.7748 0.0
C528 C 0.29365 0.84214 0.79 0.0
H529 H 0.18572 0.84341 0.73535 0.0
H530 H 0.21634 0.84915 0.75275 0.0
C531 C 0.30824 0.83212 0.79991 0.0
C532 C 0.28249 0.86278 0.76244 0.0
H533 H 0.23709 0.88297 0.76604 0.0
C534 C 0.28158 0.85694 0.74277 0.0
C535 C 0.26668 0.87324 0.77058 0.0
C536 C 0.2673 0.881 0.79122 0.0
C537 C 0.26456 0.85968 0.73159 0.0
C538 C 0.24815 0.86875 0.74026 0.0
C539 C 0.24963 0.87593 0.75944 0.0
C540 C 0.2286 0.86815 0.73078 0.0
C541 C 0.26373 0.85146 0.71111 0.0
C542 C 0.22498 0.87757 0.71296 0.0
C543 C 0.20735 0.87432 0.70291 0.0
C544 C 0.19315 0.86154 0.71052 0.0
C545 C 0.19638 0.8532 0.72897 0.0
C546 C 0.21388 0.85651 0.73899 0.0
H547 H 0.27686 0.84272 0.70748 0.0
H548 H 0.25052 0.84218 0.70928 0.0
H549 H 0.26275 0.86349 0.70044 0.0
H550 H 0.23604 0.88684 0.70651 0.0
H551 H 0.20531 0.881 0.68876 0.0
H552 H 0.78382 0.33584 0.72209 0.0
H553 H 0.75361 0.34065 0.70385 0.0
H554 H 0.73307 0.38002 0.74835 0.0
H555 H 0.76341 0.37522 0.76685 0.0
H556 H 0.70719 0.34991 0.74038 0.0
H557 H 0.73036 0.38421 0.67127 0.0
H558 H 0.74526 0.36369 0.67707 0.0
H559 H 0.74543 0.38454 0.69299 0.0
C560 C 0.77311 0.34588 0.72782 0.0
C561 C 0.77603 0.35509 0.74598 0.0
C562 C 0.75586 0.34873 0.71728 0.0
C563 C 0.74114 0.36087 0.7246 0.0
C564 C 0.74431 0.37072 0.74234 0.0
H565 H 0.61997 0.34458 0.67972 0.0
H566 H 0.64669 0.36197 0.69656 0.0
C567 C 0.76168 0.368 0.75287 0.0
C568 C 0.72171 0.36114 0.71485 0.0
H569 H 0.70057 0.36483 0.6698 0.0
C570 C 0.70553 0.35369 0.72509 0.0
C571 C 0.71956 0.36616 0.69494 0.0
C572 C 0.73605 0.37529 0.68349 0.0
C573 C 0.6878 0.34948 0.7155 0.0
C574 C 0.68615 0.35314 0.69521 0.0
C575 C 0.70185 0.36197 0.68534 0.0
C576 C 0.66979 0.34491 0.68346 0.0
C577 C 0.67155 0.33974 0.72681 0.0
C578 C 0.67394 0.33018 0.66996 0.0
C579 C 0.65886 0.32035 0.66039 0.0
C580 C 0.63917 0.32506 0.66399 0.0
C581 C 0.63498 0.34058 0.67669 0.0
C582 C 0.65021 0.35043 0.6864 0.0
H583 H 0.67612 0.33574 0.74185 0.0
H584 H 0.65891 0.34971 0.72796 0.0
H585 H 0.66653 0.32644 0.71908 0.0
H586 H 0.68891 0.32569 0.66741 0.0
H587 H 0.66266 0.30862 0.65054 0.0
H588 H 0.84592 0.59564 0.18512 0.0
H589 H 0.82065 0.57685 0.2025 0.0
H590 H 0.77682 0.59866 0.16301 0.0
H591 H 0.80172 0.61723 0.14577 0.0
H592 H 0.7897 0.59477 0.22118 0.0
H593 H 0.76051 0.54221 0.16762 0.0
H594 H 0.78424 0.55358 0.16485 0.0
H595 H 0.76239 0.5659 0.15709 0.0
C596 C 0.83098 0.59593 0.17984 0.0
C597 C 0.82578 0.60797 0.16414 0.0
C598 C 0.81656 0.58524 0.18979 0.0
C599 C 0.79686 0.58613 0.1839 0.0
C600 C 0.79194 0.59735 0.16758 0.0
H601 H 0.68192 0.592 0.21592 0.0
H602 H 0.71347 0.58596 0.20055 0.0
C603 C 0.8062 0.60813 0.15783 0.0
C604 C 0.7809 0.5779 0.19614 0.0
H605 H 0.73729 0.5538 0.19219 0.0
C606 C 0.77851 0.58529 0.21513 0.0
C607 C 0.76632 0.56553 0.18823 0.0
C608 C 0.76861 0.55619 0.16839 0.0
C609 C 0.76111 0.58218 0.22567 0.0
C610 C 0.74586 0.57106 0.21709 0.0
C611 C 0.74892 0.56238 0.19874 0.0
C612 C 0.72577 0.57104 0.22542 0.0
C613 C 0.75859 0.5922 0.24518 0.0
C614 C 0.72181 0.56379 0.2442 0.0
C615 C 0.70367 0.56728 0.25312 0.0
C616 C 0.68924 0.57807 0.24336 0.0
C617 C 0.69275 0.58382 0.22395 0.0
C618 C 0.7108 0.58033 0.21509 0.0
H619 H 0.77074 0.60247 0.24842 0.0
H620 H 0.74459 0.6003 0.24556 0.0
H621 H 0.75815 0.5812 0.25696 0.0
H622 H 0.73304 0.55624 0.2523 0.0
H623 H 0.70142 0.56257 0.26806 0.0
H624 H 0.30577 0.16891 0.14635 0.0
H625 H 0.28642 0.19105 0.12671 0.0
H626 H 0.26462 0.14307 0.09235 0.0
H627 H 0.28385 0.12056 0.11227 0.0
H628 H 0.28366 0.19915 0.08615 0.0
H629 H 0.21493 0.16699 0.11625 0.0
H630 H 0.23859 0.16168 0.12657 0.0
H631 H 0.23146 0.15108 0.10362 0.0
C632 C 0.29706 0.163 0.13448 0.0
C633 C 0.29614 0.14291 0.13107 0.0
C634 C 0.28607 0.17573 0.12319 0.0
C635 C 0.27385 0.16869 0.10827 0.0
C636 C 0.27373 0.14876 0.10401 0.0
H637 H 0.17826 0.24505 0.07131 0.0
H638 H 0.20118 0.21799 0.06786 0.0
C639 C 0.28481 0.13595 0.11533 0.0
C640 C 0.26019 0.18228 0.09864 0.0
H641 H 0.21234 0.19621 0.09944 0.0
C642 C 0.268 0.19832 0.08866 0.0
C643 C 0.23975 0.18111 0.10181 0.0
C644 C 0.23057 0.16438 0.11272 0.0
C645 C 0.25605 0.21376 0.08285 0.0
C646 C 0.23586 0.21326 0.08741 0.0
C647 C 0.22783 0.19657 0.09599 0.0
C648 C 0.22347 0.23082 0.08636 0.0
C649 C 0.26528 0.23077 0.07251 0.0
C650 C 0.22851 0.24711 0.09766 0.0
C651 C 0.21547 0.26246 0.09975 0.0
C652 C 0.19703 0.26185 0.09063 0.0
C653 C 0.19238 0.246 0.07846 0.0
C654 C 0.20544 0.23052 0.07649 0.0
H655 H 0.27826 0.22619 0.0639 0.0
H656 H 0.25472 0.23794 0.06258 0.0
H657 H 0.27032 0.24152 0.08355 0.0
H658 H 0.24212 0.24751 0.10579 0.0
H659 H 0.21953 0.27445 0.1092 0.0
H660 H 0.77938 0.32631 0.84348 0.0
H661 H 0.75947 0.30404 0.86329 0.0
H662 H 0.78815 0.25534 0.83615 0.0
H663 H 0.80807 0.27726 0.81671 0.0
H664 H 0.73369 0.27877 0.84731 0.0
H665 H 0.78565 0.23719 0.89188 0.0
H666 H 0.79224 0.25999 0.88068 0.0
H667 H 0.79367 0.23768 0.86694 0.0
C668 C 0.78182 0.31086 0.8422 0.0
C669 C 0.79523 0.30355 0.82844 0.0
C670 C 0.77041 0.29816 0.85349 0.0
C671 C 0.77247 0.27799 0.85142 0.0
C672 C 0.78659 0.27079 0.83842 0.0
H673 H 0.71506 0.17385 0.84384 0.0
H674 H 0.73724 0.20138 0.84778 0.0
C675 C 0.79786 0.28339 0.82713 0.0
C676 C 0.75824 0.26431 0.86041 0.0
H677 H 0.75581 0.21977 0.88194 0.0
C678 C 0.73839 0.26617 0.85546 0.0
C679 C 0.76434 0.24789 0.8711 0.0
C680 C 0.78513 0.24569 0.87813 0.0
C681 C 0.72488 0.25123 0.85927 0.0
C682 C 0.73139 0.23409 0.86845 0.0
C683 C 0.75088 0.23287 0.87478 0.0
C684 C 0.71903 0.21637 0.86876 0.0
C685 C 0.70411 0.25323 0.85206 0.0
C686 C 0.70171 0.21535 0.87979 0.0
C687 C 0.68894 0.19951 0.87761 0.0
C688 C 0.69328 0.18455 0.86426 0.0
C689 C 0.71117 0.18519 0.85411 0.0
C690 C 0.72393 0.20089 0.8564 0.0
H691 H 0.70194 0.26668 0.84347 0.0
H692 H 0.70004 0.2406 0.84278 0.0
H693 H 0.69398 0.25353 0.86475 0.0
H694 H 0.69778 0.22709 0.88956 0.0
H695 H 0.67528 0.19945 0.88566 0.0
H696 H 0.78962 0.74114 0.36654 0.0
H697 H 0.7654 0.71503 0.36422 0.0
H698 H 0.71914 0.7562 0.37452 0.0
H699 H 0.74335 0.78258 0.375 0.0
H700 H 0.73741 0.69752 0.38249 0.0
H701 H 0.70384 0.73917 0.32182 0.0
H702 H 0.72587 0.74714 0.3338 0.0
H703 H 0.70234 0.75119 0.34501 0.0
C704 C 0.7743 0.7445 0.36876 0.0
C705 C 0.76823 0.76379 0.37071 0.0
C706 C 0.76044 0.72958 0.36743 0.0
C707 C 0.74032 0.73371 0.36844 0.0
C708 C 0.73448 0.75274 0.37283 0.0
H709 H 0.66131 0.63345 0.34239 0.0
H710 H 0.6779 0.65888 0.36167 0.0
C711 C 0.7483 0.76777 0.37338 0.0
C712 C 0.72581 0.7186 0.36251 0.0
H713 H 0.69053 0.7088 0.32847 0.0
C714 C 0.72707 0.69999 0.37074 0.0
C715 C 0.71236 0.72177 0.34704 0.0
C716 C 0.7111 0.74082 0.33627 0.0
C717 C 0.71607 0.68431 0.3633 0.0
C718 C 0.70287 0.68751 0.3477 0.0
C719 C 0.7007 0.70635 0.34038 0.0
C720 C 0.693 0.67147 0.33685 0.0
C721 C 0.71958 0.66433 0.37143 0.0
C722 C 0.69565 0.67025 0.31652 0.0
C723 C 0.68579 0.65628 0.30555 0.0
C724 C 0.67328 0.64286 0.31464 0.0
C725 C 0.67095 0.64361 0.33507 0.0
C726 C 0.68053 0.65802 0.34608 0.0
H727 H 0.73322 0.66372 0.38025 0.0
H728 H 0.70717 0.66023 0.38106 0.0
H729 H 0.72056 0.65344 0.35949 0.0
H730 H 0.70529 0.6803 0.30903 0.0
H731 H 0.68809 0.65592 0.28987 0.0
H732 H 0.1628 0.77806 0.64653 0.0
H733 H 0.18195 0.75585 0.62663 0.0
H734 H 0.20427 0.80382 0.59291 0.0
H735 H 0.18522 0.8264 0.61312 0.0
H736 H 0.1849 0.74779 0.58609 0.0
H737 H 0.25366 0.77956 0.61677 0.0
H738 H 0.22999 0.78505 0.627 0.0
H739 H 0.23729 0.79553 0.60413 0.0
C740 C 0.17157 0.78395 0.63474 0.0
C741 C 0.17271 0.80405 0.63162 0.0
C742 C 0.18245 0.77119 0.6233 0.0
C743 C 0.19477 0.7782 0.6085 0.0
C744 C 0.19507 0.79814 0.60447 0.0
H745 H 0.29003 0.70073 0.57271 0.0
H746 H 0.26741 0.72793 0.56877 0.0
C747 C 0.1841 0.811 0.61596 0.0
C748 C 0.2084 0.76453 0.59882 0.0
H749 H 0.2561 0.75015 0.60009 0.0
C750 C 0.20055 0.74851 0.58874 0.0
C751 C 0.22882 0.76554 0.60217 0.0
C752 C 0.23805 0.78225 0.61318 0.0
C753 C 0.21239 0.73291 0.58306 0.0
C754 C 0.23253 0.73323 0.58785 0.0
C755 C 0.24064 0.74992 0.59648 0.0
C756 C 0.24473 0.71552 0.58702 0.0
C757 C 0.2031 0.7159 0.57265 0.0
C758 C 0.23938 0.69941 0.59832 0.0
C759 C 0.25225 0.68398 0.60069 0.0
C760 C 0.27083 0.68432 0.59185 0.0
C761 C 0.2758 0.69998 0.57965 0.0
C762 C 0.2629 0.71555 0.5774 0.0
H763 H 0.19029 0.72054 0.56387 0.0
H764 H 0.21371 0.70852 0.56286 0.0
H765 H 0.1978 0.70531 0.58365 0.0
H766 H 0.22565 0.69923 0.60626 0.0
H767 H 0.24795 0.67214 0.61015 0.0
H768 H 0.84935 0.66499 0.83799 0.0
H769 H 0.86945 0.68333 0.81456 0.0
H770 H 0.83876 0.65591 0.76671 0.0
H771 H 0.81901 0.63749 0.78974 0.0
H772 H 0.87931 0.66002 0.76003 0.0
H773 H 0.84504 0.72902 0.78495 0.0
H774 H 0.85759 0.71473 0.8029 0.0
H775 H 0.83541 0.7057 0.79204 0.0
C776 C 0.84715 0.66265 0.82247 0.0
C777 C 0.83239 0.64997 0.81574 0.0
C778 C 0.85856 0.67322 0.80911 0.0
C779 C 0.85537 0.67121 0.78889 0.0
C780 C 0.84144 0.65774 0.78223 0.0
H781 H 0.85642 0.71557 0.67768 0.0
H782 H 0.85987 0.69569 0.70682 0.0
C783 C 0.83008 0.64727 0.79547 0.0
C784 C 0.86513 0.68397 0.77438 0.0
H785 H 0.86288 0.72978 0.75586 0.0
C786 C 0.87611 0.67538 0.75933 0.0
C787 C 0.86104 0.70404 0.77353 0.0
C788 C 0.84905 0.71401 0.78911 0.0
C789 C 0.88204 0.68604 0.74288 0.0
C790 C 0.8766 0.70571 0.74132 0.0
C791 C 0.867 0.71468 0.75706 0.0
C792 C 0.8779 0.71641 0.72254 0.0
C793 C 0.89344 0.67595 0.72698 0.0
C794 C 0.88708 0.73464 0.72153 0.0
C795 C 0.88513 0.74611 0.70476 0.0
C796 C 0.87365 0.73966 0.68891 0.0
C797 C 0.86535 0.72099 0.68963 0.0
C798 C 0.86744 0.70951 0.70626 0.0
H799 H 0.90234 0.66396 0.73305 0.0
H800 H 0.88306 0.66956 0.71623 0.0
H801 H 0.90328 0.68619 0.71917 0.0
H802 H 0.89507 0.74031 0.734 0.0
H803 H 0.89161 0.76047 0.70473 0.0
H804 H 0.61845 0.23077 0.18017 0.0
H805 H 0.61479 0.25046 0.20959 0.0
H806 H 0.57333 0.20918 0.23276 0.0
H807 H 0.57703 0.18914 0.20327 0.0
H808 H 0.58205 0.2674 0.23022 0.0
H809 H 0.61949 0.20916 0.27222 0.0
H810 H 0.61937 0.20936 0.24584 0.0
H811 H 0.59757 0.20296 0.259 0.0
C812 C 0.60827 0.22599 0.19133 0.0
C813 C 0.59825 0.20823 0.18949 0.0
C814 C 0.60614 0.23732 0.20813 0.0
C815 C 0.59403 0.23112 0.22346 0.0
C816 C 0.58295 0.21408 0.22117 0.0
H817 H 0.62274 0.28169 0.3384 0.0
H818 H 0.60189 0.26413 0.3149 0.0
C819 C 0.58501 0.20271 0.20427 0.0
C820 C 0.59486 0.24167 0.24237 0.0
H821 H 0.61676 0.23946 0.28716 0.0
C822 C 0.58921 0.26119 0.24287 0.0
C823 C 0.60405 0.23349 0.25893 0.0
C824 C 0.61059 0.21263 0.25911 0.0
C825 C 0.59368 0.27306 0.25899 0.0
C826 C 0.60442 0.26529 0.2748 0.0
C827 C 0.60858 0.24541 0.275 0.0
C828 C 0.6144 0.2779 0.28936 0.0
C829 C 0.58758 0.29402 0.25859 0.0
C830 C 0.62821 0.29152 0.28282 0.0
C831 C 0.64014 0.30138 0.2961 0.0
C832 C 0.63861 0.29782 0.31627 0.0
C833 C 0.62419 0.2848 0.32295 0.0
C834 C 0.61229 0.27476 0.30956 0.0
H835 H 0.57382 0.29583 0.25014 0.0
H836 H 0.58539 0.29986 0.27359 0.0
H837 H 0.59913 0.30271 0.25125 0.0
H838 H 0.63048 0.29385 0.26732 0.0
H839 H 0.65104 0.31135 0.29045 0.0
H840 H 0.35031 0.72844 0.28083 0.0
H841 H 0.35384 0.74787 0.25132 0.0
H842 H 0.39257 0.70511 0.2267 0.0
H843 H 0.389 0.68536 0.25627 0.0
H844 H 0.38664 0.7636 0.22958 0.0
H845 H 0.34513 0.70656 0.18876 0.0
H846 H 0.34612 0.70692 0.21513 0.0
H847 H 0.36712 0.69955 0.20128 0.0
C848 C 0.35988 0.72328 0.26932 0.0
C849 C 0.36915 0.7052 0.27082 0.0
C850 C 0.36192 0.73445 0.25246 0.0
C851 C 0.3732 0.72778 0.2367 0.0
C852 C 0.38358 0.71038 0.23861 0.0
H853 H 0.34542 0.77763 0.12165 0.0
H854 H 0.36537 0.7596 0.14527 0.0
C855 C 0.38161 0.69918 0.25557 0.0
C856 C 0.37226 0.73827 0.21783 0.0
H857 H 0.34941 0.73644 0.17346 0.0
C858 C 0.37888 0.75754 0.21711 0.0
C859 C 0.36228 0.7303 0.20151 0.0
C860 C 0.35462 0.70974 0.20158 0.0
C861 C 0.37478 0.76939 0.20098 0.0
C862 C 0.36339 0.76188 0.18538 0.0
C863 C 0.35809 0.7422 0.18544 0.0
C864 C 0.3541 0.77468 0.17067 0.0
C865 C 0.38209 0.79004 0.20111 0.0
C866 C 0.34134 0.78923 0.17707 0.0
C867 C 0.32993 0.79939 0.16372 0.0
C868 C 0.33094 0.79521 0.1436 0.0
C869 C 0.34439 0.78125 0.13704 0.0
C870 C 0.35576 0.77093 0.15051 0.0
H871 H 0.39605 0.79135 0.20936 0.0
H872 H 0.38439 0.79556 0.18604 0.0
H873 H 0.37116 0.79936 0.20855 0.0
H874 H 0.3394 0.79208 0.19254 0.0
H875 H 0.31977 0.81007 0.16928 0.0
H876 H 0.1426 0.13683 0.66613 0.0
H877 H 0.12294 0.1551 0.68929 0.0
H878 H 0.09789 0.1878 0.64192 0.0
H879 H 0.11787 0.16948 0.61841 0.0
H880 H 0.11406 0.2108 0.67028 0.0
H881 H 0.06622 0.15691 0.70579 0.0
H882 H 0.09096 0.14843 0.70509 0.0
H883 H 0.07794 0.15238 0.68253 0.0
C884 C 0.1326 0.14761 0.66052 0.0
C885 C 0.13188 0.15178 0.64042 0.0
C886 C 0.12119 0.15793 0.67381 0.0
C887 C 0.10869 0.17265 0.66737 0.0
C888 C 0.10728 0.17636 0.6472 0.0
H889 H 0.07581 0.26303 0.75328 0.0
H890 H 0.07162 0.24327 0.72364 0.0
C891 C 0.11866 0.16586 0.63379 0.0
C892 C 0.09954 0.18568 0.68206 0.0
H893 H 0.07613 0.18454 0.72619 0.0
C894 C 0.10521 0.20525 0.68221 0.0
C895 C 0.08795 0.17843 0.69759 0.0
C896 C 0.08025 0.15792 0.69762 0.0
C897 C 0.10122 0.21728 0.69833 0.0
C898 C 0.09104 0.20955 0.7146 0.0
C899 C 0.08403 0.19041 0.71377 0.0
C900 C 0.09032 0.22009 0.73354 0.0
C901 C 0.10931 0.23768 0.69851 0.0
C902 C 0.10138 0.21314 0.74927 0.0
C903 C 0.10376 0.22431 0.76617 0.0
C904 C 0.09506 0.24267 0.76773 0.0
C905 C 0.08276 0.24899 0.75253 0.0
C906 C 0.08044 0.23778 0.73553 0.0
H907 H 0.11892 0.24062 0.68574 0.0
H908 H 0.09704 0.24813 0.6982 0.0
H909 H 0.11782 0.24036 0.7121 0.0
H910 H 0.10907 0.19949 0.74807 0.0
H911 H 0.1132 0.21892 0.77764 0.0
H912 H 0.69252 0.85446 0.77566 0.0
H913 H 0.71474 0.84901 0.74801 0.0
H914 H 0.75978 0.88197 0.77746 0.0
H915 H 0.73792 0.88713 0.80522 0.0
H916 H 0.73711 0.87324 0.72267 0.0
H917 H 0.78445 0.82849 0.77051 0.0
H918 H 0.76022 0.83594 0.77768 0.0
H919 H 0.78042 0.85267 0.77933 0.0
C920 C 0.70705 0.86079 0.77611 0.0
C921 C 0.71355 0.87096 0.79277 0.0
C922 C 0.71973 0.85767 0.7603 0.0
C923 C 0.73905 0.86472 0.7609 0.0
C924 C 0.74509 0.87601 0.77691 0.0
H925 H 0.84123 0.83593 0.68997 0.0
H926 H 0.81893 0.85351 0.71171 0.0
C927 C 0.73253 0.87899 0.79274 0.0
C928 C 0.75331 0.85915 0.74553 0.0
H929 H 0.7956 0.83393 0.7384 0.0
C930 C 0.74993 0.86469 0.72608 0.0
C931 C 0.77002 0.84797 0.75002 0.0
C932 C 0.77397 0.84075 0.77047 0.0
C933 C 0.76289 0.85939 0.71102 0.0
C934 C 0.77949 0.84807 0.71552 0.0
C935 C 0.78298 0.84279 0.735 0.0
C936 C 0.79262 0.84008 0.70023 0.0
C937 C 0.75876 0.86601 0.69043 0.0
C938 C 0.78521 0.82698 0.68634 0.0
C939 C 0.79788 0.8169 0.67396 0.0
C940 C 0.81827 0.81964 0.67528 0.0
C941 C 0.82561 0.83352 0.68853 0.0
C942 C 0.8129 0.84355 0.70099 0.0
H943 H 0.74936 0.8791 0.69031 0.0
H944 H 0.77255 0.86927 0.68245 0.0
H945 H 0.75091 0.85431 0.68244 0.0
H946 H 0.76969 0.82376 0.68574 0.0
H947 H 0.7917 0.80634 0.66392 0.0
H948 H 0.62578 0.10922 0.18827 0.0
H949 H 0.64756 0.09111 0.21002 0.0
H950 H 0.69753 0.12074 0.1855 0.0
H951 H 0.6761 0.13848 0.16355 0.0
H952 H 0.70537 0.08218 0.194 0.0
H953 H 0.67068 0.12 0.25698 0.0
H954 H 0.65428 0.10588 0.24207 0.0
H955 H 0.66616 0.12688 0.23198 0.0
C956 C 0.64143 0.11156 0.18722 0.0
C957 C 0.64914 0.12554 0.17438 0.0
C958 C 0.65386 0.1013 0.19975 0.0
C959 C 0.67413 0.10493 0.1997 0.0
C960 C 0.68193 0.1178 0.18591 0.0
H961 H 0.77534 0.08882 0.27365 0.0
H962 H 0.75344 0.09392 0.24573 0.0
C963 C 0.6696 0.12799 0.1734 0.0
C964 C 0.68714 0.09683 0.21501 0.0
H965 H 0.6964 0.09879 0.26405 0.0
C966 C 0.70334 0.08565 0.20935 0.0
C967 C 0.6846 0.10158 0.23501 0.0
C968 C 0.66811 0.11437 0.24194 0.0
C969 C 0.71704 0.07908 0.22316 0.0
C970 C 0.71458 0.08404 0.2431 0.0
C971 C 0.69822 0.09494 0.24876 0.0
C972 C 0.72887 0.07856 0.25848 0.0
C973 C 0.73393 0.06682 0.21633 0.0
C974 C 0.72243 0.06811 0.27483 0.0
C975 C 0.7348 0.06536 0.29081 0.0
C976 C 0.75393 0.07302 0.29084 0.0
C977 C 0.76074 0.08265 0.27404 0.0
C978 C 0.74825 0.0855 0.25803 0.0
H979 H 0.73088 0.05997 0.20191 0.0
H980 H 0.74713 0.07613 0.21475 0.0
H981 H 0.73728 0.05529 0.22709 0.0
H982 H 0.70755 0.06264 0.27551 0.0
H983 H 0.7291 0.05774 0.30343 0.0
H984 H 0.33531 0.61214 0.26751 0.0
H985 H 0.31123 0.59598 0.24631 0.0
H986 H 0.26438 0.61886 0.28162 0.0
H987 H 0.28821 0.6353 0.30258 0.0
H988 H 0.27886 0.5697 0.25172 0.0
H989 H 0.25501 0.64262 0.22743 0.0
H990 H 0.27711 0.63894 0.24132 0.0
H991 H 0.25371 0.63883 0.25337 0.0
C992 C 0.3199 0.61338 0.271 0.0
C993 C 0.31365 0.62525 0.28654 0.0
C994 C 0.30616 0.60416 0.25886 0.0
C995 C 0.28602 0.60661 0.26214 0.0
C996 C 0.27984 0.61715 0.27857 0.0
H997 H 0.1852 0.58566 0.18628 0.0
H998 H 0.20536 0.59133 0.21542 0.0
C999 C 0.2935 0.62648 0.29057 0.0
C1000 C 0.27151 0.59968 0.24753 0.0
H1001 H 0.23751 0.61586 0.2149 0.0
C1002 C 0.26977 0.57975 0.24369 0.0
C1003 C 0.25968 0.61286 0.23705 0.0
C1004 C 0.26153 0.63451 0.23982 0.0
C1005 C 0.25642 0.57264 0.22969 0.0
C1006 C 0.24475 0.58586 0.21911 0.0
C1007 C 0.24633 0.60574 0.22316 0.0
C1008 C 0.23186 0.57971 0.20272 0.0
C1009 C 0.25486 0.55107 0.22643 0.0
C1010 C 0.23999 0.57108 0.18602 0.0
C1011 C 0.22855 0.56787 0.16937 0.0
C1012 C 0.20872 0.57334 0.16902 0.0
C1013 C 0.20038 0.58124 0.18606 0.0
C1014 C 0.21189 0.58451 0.20272 0.0
H1015 H 0.26002 0.54287 0.23938 0.0
H1016 H 0.23955 0.54666 0.22314 0.0
H1017 H 0.26416 0.54695 0.21379 0.0
H1018 H 0.25543 0.56763 0.1855 0.0
H1019 H 0.23547 0.56174 0.15653 0.0
H1020 H 0.27979 0.35388 0.6816 0.0
H1021 H 0.25776 0.34821 0.70944 0.0
H1022 H 0.21412 0.38432 0.68261 0.0
H1023 H 0.23576 0.38981 0.65477 0.0
H1024 H 0.23633 0.37311 0.73636 0.0
H1025 H 0.18744 0.33074 0.68707 0.0
H1026 H 0.21209 0.33744 0.68032 0.0
H1027 H 0.19274 0.35493 0.67896 0.0
C1028 C 0.26564 0.36089 0.68182 0.0
C1029 C 0.25941 0.37204 0.66583 0.0
C1030 C 0.25307 0.35762 0.69771 0.0
C1031 C 0.23415 0.36552 0.69786 0.0
C1032 C 0.22849 0.37777 0.68259 0.0
H1033 H 0.13021 0.33835 0.76714 0.0
H1034 H 0.15342 0.35535 0.74577 0.0
C1035 C 0.24092 0.38091 0.6667 0.0
C1036 C 0.21975 0.35984 0.71308 0.0
H1037 H 0.17636 0.33584 0.7193 0.0
C1038 C 0.2232 0.36498 0.73267 0.0
C1039 C 0.20261 0.34926 0.70821 0.0
C1040 C 0.19851 0.34259 0.68754 0.0
C1041 C 0.20986 0.3599 0.74751 0.0
C1042 C 0.19281 0.34917 0.74263 0.0
C1043 C 0.18931 0.34425 0.72301 0.0
C1044 C 0.17913 0.34147 0.75765 0.0
C1045 C 0.21405 0.36622 0.76824 0.0
C1046 C 0.18588 0.3283 0.77165 0.0
C1047 C 0.17269 0.31859 0.78382 0.0
C1048 C 0.15241 0.32173 0.7822 0.0
C1049 C 0.14572 0.33564 0.76883 0.0
C1050 C 0.15897 0.34533 0.75657 0.0
H1051 H 0.22382 0.37914 0.76865 0.0
H1052 H 0.20033 0.36963 0.77623 0.0
H1053 H 0.22155 0.3543 0.77604 0.0
H1054 H 0.20128 0.32474 0.7725 0.0
H1055 H 0.17838 0.308 0.79396 0.0
H1056 H 0.76791 0.67602 0.89439 0.0
H1057 H 0.74924 0.70556 0.90058 0.0
H1058 H 0.70995 0.69073 0.85345 0.0
H1059 H 0.72831 0.66111 0.8473 0.0
H1060 H 0.74663 0.73373 0.87243 0.0
H1061 H 0.67212 0.71083 0.89489 0.0
H1062 H 0.69291 0.69479 0.89587 0.0
H1063 H 0.68059 0.69903 0.87305 0.0
C1064 C 0.755 0.67876 0.88567 0.0
C1065 C 0.74971 0.66623 0.87025 0.0
C1066 C 0.74434 0.69567 0.88923 0.0
C1067 C 0.7281 0.7003 0.87759 0.0
C1068 C 0.72217 0.6873 0.86289 0.0
H1069 H 0.66643 0.8036 0.84542 0.0
H1070 H 0.67584 0.77002 0.85189 0.0
C1071 C 0.73281 0.67041 0.8593 0.0
C1072 C 0.71914 0.71982 0.87892 0.0
H1073 H 0.67571 0.74372 0.88411 0.0
C1074 C 0.73118 0.73593 0.8753 0.0
C1075 C 0.69892 0.72264 0.88239 0.0
C1076 C 0.6854 0.70592 0.88695 0.0
C1077 C 0.72354 0.75471 0.87445 0.0
C1078 C 0.7033 0.75758 0.87779 0.0
C1079 C 0.69123 0.7415 0.88166 0.0
C1080 C 0.69453 0.77716 0.87645 0.0
C1081 C 0.73711 0.77124 0.86916 0.0
C1082 C 0.70106 0.79215 0.88878 0.0
C1083 C 0.69587 0.81133 0.88502 0.0
C1084 C 0.6838 0.81585 0.86902 0.0
C1085 C 0.67577 0.80061 0.85784 0.0
C1086 C 0.68116 0.78141 0.86149 0.0
H1087 H 0.75095 0.76601 0.86248 0.0
H1088 H 0.72998 0.78131 0.85876 0.0
H1089 H 0.74093 0.77949 0.88259 0.0
H1090 H 0.71104 0.78912 0.90068 0.0
H1091 H 0.70211 0.8227 0.89406 0.0
H1092 H 0.1574 0.6389 0.11116 0.0
H1093 H 0.16422 0.67325 0.10531 0.0
H1094 H 0.21098 0.65777 0.06596 0.0
H1095 H 0.20417 0.62355 0.07151 0.0
H1096 H 0.1999 0.68835 0.11594 0.0
H1097 H 0.18663 0.70343 0.03762 0.0
H1098 H 0.17636 0.68256 0.04988 0.0
H1099 H 0.2013 0.68228 0.04139 0.0
C1100 C 0.16873 0.64279 0.10079 0.0
C1101 C 0.18036 0.62846 0.09196 0.0
C1102 C 0.17262 0.66244 0.09748 0.0
C1103 C 0.18803 0.6681 0.0851 0.0
C1104 C 0.19878 0.6538 0.07527 0.0
H1105 H 0.26715 0.76337 0.07089 0.0
H1106 H 0.24683 0.7343 0.06671 0.0
C1107 C 0.19495 0.63419 0.0786 0.0
C1108 C 0.19493 0.68853 0.08485 0.0
H1109 H 0.20804 0.72571 0.05458 0.0
C1110 C 0.20131 0.69668 0.10258 0.0
C1111 C 0.19702 0.69925 0.06737 0.0
C1112 C 0.18979 0.6915 0.04801 0.0
C1113 C 0.21049 0.71489 0.10323 0.0
C1114 C 0.21293 0.7255 0.08569 0.0
C1115 C 0.20611 0.71758 0.068 0.0
C1116 C 0.22349 0.74434 0.08553 0.0
C1117 C 0.21835 0.72215 0.12258 0.0
C1118 C 0.2167 0.75997 0.09676 0.0
C1119 C 0.22834 0.77648 0.09934 0.0
C1120 C 0.2469 0.7778 0.09049 0.0
C1121 C 0.25296 0.76279 0.07795 0.0
C1122 C 0.24136 0.74616 0.07554 0.0
H1123 H 0.21939 0.71036 0.13356 0.0
H1124 H 0.23308 0.72878 0.12076 0.0
H1125 H 0.20838 0.73336 0.1285 0.0
H1126 H 0.20274 0.75904 0.10424 0.0
H1127 H 0.22311 0.7879 0.10889 0.0
H1128 H 0.30306 0.3054 0.60832 0.0
H1129 H 0.29319 0.27206 0.601 0.0
H1130 H 0.25498 0.29253 0.5554 0.0
H1131 H 0.26439 0.32589 0.56296 0.0
H1132 H 0.23568 0.27158 0.58199 0.0
H1133 H 0.30174 0.23115 0.5595 0.0
H1134 H 0.30521 0.24428 0.58194 0.0
H1135 H 0.30084 0.2573 0.55962 0.0
C1136 C 0.29303 0.30276 0.59632 0.0
C1137 C 0.28436 0.31831 0.58635 0.0
C1138 C 0.28746 0.28365 0.59208 0.0
C1139 C 0.27339 0.27974 0.57757 0.0
C1140 C 0.26585 0.29518 0.56665 0.0
H1141 H 0.1983 0.17753 0.56089 0.0
H1142 H 0.217 0.20705 0.55382 0.0
C1143 C 0.27125 0.31426 0.571 0.0
C1144 C 0.26434 0.26019 0.57588 0.0
H1145 H 0.27433 0.21198 0.57054 0.0
C1146 C 0.24409 0.25859 0.57911 0.0
C1147 C 0.27534 0.24322 0.57233 0.0
C1148 C 0.29696 0.24406 0.56796 0.0
C1149 C 0.23466 0.24052 0.57962 0.0
C1150 C 0.2457 0.22351 0.57647 0.0
C1151 C 0.26589 0.22506 0.57284 0.0
C1152 C 0.23663 0.20405 0.57845 0.0
C1153 C 0.21309 0.23976 0.58445 0.0
C1154 C 0.24213 0.19208 0.594 0.0
C1155 C 0.23157 0.17516 0.59803 0.0
C1156 C 0.21527 0.16989 0.58654 0.0
C1157 C 0.21064 0.18123 0.57013 0.0
C1158 C 0.22127 0.19815 0.5661 0.0
H1159 H 0.2077 0.25376 0.59037 0.0
H1160 H 0.20468 0.23638 0.57096 0.0
H1161 H 0.20997 0.22822 0.59531 0.0
H1162 H 0.25398 0.19633 0.60366 0.0
H1163 H 0.23565 0.16671 0.61069 0.0
H1164 H 0.74539 0.2892 0.35467 0.0
H1165 H 0.76438 0.25968 0.35919 0.0
H1166 H 0.71804 0.23553 0.39447 0.0
H1167 H 0.69901 0.26527 0.39034 0.0
H1168 H 0.75691 0.22564 0.40735 0.0
H1169 H 0.74563 0.21209 0.32791 0.0
H1170 H 0.75723 0.2348 0.33372 0.0
H1171 H 0.73236 0.23045 0.34117 0.0
C1172 C 0.73938 0.27779 0.36374 0.0
C1173 C 0.72056 0.27947 0.37191 0.0
C1174 C 0.75024 0.2609 0.36625 0.0
C1175 C 0.74242 0.24526 0.37676 0.0
C1176 C 0.72429 0.24741 0.38619 0.0
H1177 H 0.76028 0.12362 0.38811 0.0
H1178 H 0.7534 0.15768 0.39431 0.0
C1179 C 0.71344 0.26442 0.38384 0.0
C1180 C 0.75218 0.22611 0.37622 0.0
H1181 H 0.76454 0.18945 0.34499 0.0
C1182 C 0.75869 0.21774 0.39373 0.0
C1183 C 0.75444 0.21581 0.35842 0.0
C1184 C 0.74691 0.22361 0.33924 0.0
C1185 C 0.76743 0.19931 0.39387 0.0
C1186 C 0.76941 0.18893 0.37609 0.0
C1187 C 0.76321 0.19749 0.35859 0.0
C1188 C 0.77621 0.16854 0.37525 0.0
C1189 C 0.77448 0.19115 0.41304 0.0
C1190 C 0.79154 0.16321 0.36265 0.0
C1191 C 0.79546 0.14364 0.35894 0.0
C1192 C 0.78396 0.12905 0.36761 0.0
C1193 C 0.76942 0.13446 0.38114 0.0
C1194 C 0.76554 0.15399 0.38485 0.0
H1195 H 0.77782 0.20286 0.42374 0.0
H1196 H 0.7628 0.18188 0.41939 0.0
H1197 H 0.78776 0.18217 0.41096 0.0
H1198 H 0.79989 0.17421 0.35499 0.0
H1199 H 0.80674 0.14001 0.34843 0.0
H1200 H 0.15168 0.14365 0.52508 0.0
H1201 H 0.14033 0.14663 0.49137 0.0
H1202 H 0.08315 0.12606 0.50838 0.0
H1203 H 0.09439 0.12297 0.54231 0.0
H1204 H 0.12364 0.11509 0.46772 0.0
H1205 H 0.07366 0.1779 0.4773 0.0
H1206 H 0.09288 0.17255 0.49457 0.0
H1207 H 0.07108 0.15796 0.49404 0.0
C1208 C 0.13665 0.13984 0.52175 0.0
C1209 C 0.12394 0.13308 0.53645 0.0
C1210 C 0.13021 0.14153 0.50244 0.0
C1211 C 0.11089 0.13668 0.49741 0.0
C1212 C 0.09807 0.13007 0.51201 0.0
H1213 H 0.07638 0.12399 0.37367 0.0
H1214 H 0.07771 0.11885 0.40916 0.0
C1215 C 0.10454 0.12826 0.53137 0.0
C1216 C 0.10453 0.13812 0.47672 0.0
H1217 H 0.07686 0.16513 0.44546 0.0
C1218 C 0.11324 0.12586 0.46285 0.0
C1219 C 0.09104 0.15228 0.47046 0.0
C1220 C 0.08164 0.16606 0.48477 0.0
C1221 C 0.10913 0.12763 0.44281 0.0
C1222 C 0.09586 0.14197 0.43649 0.0
C1223 C 0.08687 0.15402 0.45039 0.0
C1224 C 0.09272 0.14585 0.41539 0.0
C1225 C 0.11966 0.1147 0.42844 0.0
C1226 C 0.10008 0.16302 0.40725 0.0
C1227 C 0.09938 0.16598 0.38706 0.0
C1228 C 0.09116 0.15188 0.37456 0.0
C1229 C 0.08283 0.13512 0.38286 0.0
C1230 C 0.08366 0.13212 0.40312 0.0
H1231 H 0.13164 0.10641 0.43546 0.0
H1232 H 0.10909 0.1042 0.42202 0.0
H1233 H 0.12593 0.1234 0.4163 0.0
H1234 H 0.10709 0.17382 0.41646 0.0
H1235 H 0.10583 0.17911 0.3812 0.0
H1236 H 0.31251 0.80039 0.02816 0.0
H1237 H 0.32426 0.79748 -0.00547 0.0
H1238 H 0.37989 0.82198 0.01154 0.0
H1239 H 0.36824 0.82508 0.04537 0.0
H1240 H 0.33978 0.83076 0.97109 0.0
H1241 H 0.39191 0.76967 -0.01958 0.0
H1242 H 0.37192 0.77379 -0.00279 0.0
H1243 H 0.39294 0.78944 -0.00231 0.0
C1244 C 0.32731 0.80506 0.02485 0.0
C1245 C 0.33943 0.81298 0.0395 0.0
C1246 C 0.33397 0.80341 0.00559 0.0
C1247 C 0.35295 0.80943 0.00059 0.0
C1248 C 0.36524 0.81711 0.01516 0.0
H1249 H 0.38873 0.82362 0.87754 0.0
H1250 H 0.38706 0.82829 0.91313 0.0
C1251 C 0.35853 0.8189 0.03446 0.0
C1252 C 0.35947 0.80822 -0.02006 0.0
H1253 H 0.38815 0.78214 0.9486 0.0
C1254 C 0.35053 0.82031 0.96616 0.0
C1255 C 0.37341 0.79449 0.97364 0.0
C1256 C 0.38312 0.78098 -0.01209 0.0
C1257 C 0.35489 0.81878 0.94614 0.0
C1258 C 0.36861 0.80484 0.93977 0.0
C1259 C 0.3778 0.79295 0.95359 0.0
C1260 C 0.37203 0.80119 0.91865 0.0
C1261 C 0.34419 0.83153 0.93184 0.0
C1262 C 0.36474 0.78414 0.9101 0.0
C1263 C 0.3656 0.78146 0.88986 0.0
C1264 C 0.37393 0.79574 0.87773 0.0
C1265 C 0.38223 0.81236 0.88645 0.0
C1266 C 0.38121 0.81509 0.90676 0.0
H1267 H 0.33209 0.83967 0.93888 0.0
H1268 H 0.35462 0.84214 0.92544 0.0
H1269 H 0.33807 0.82269 0.91966 0.0
H1270 H 0.35764 0.77322 0.91903 0.0
H1271 H 0.35919 0.76843 0.88366 0.0
H1272 H 0.63391 0.32795 0.42514 0.0
H1273 H 0.62054 0.32591 0.45836 0.0
H1274 H 0.62828 0.26397 0.4576 0.0
H1275 H 0.64166 0.26581 0.42448 0.0
H1276 H 0.58766 0.30188 0.47454 0.0
H1277 H 0.66095 0.28517 0.50531 0.0
H1278 H 0.65778 0.29575 0.48141 0.0
H1279 H 0.65337 0.27033 0.48499 0.0
C1280 C 0.63262 0.31386 0.43197 0.0
C1281 C 0.63903 0.29705 0.4222 0.0
C1282 C 0.62492 0.31273 0.45092 0.0
C1283 C 0.62362 0.29482 0.46047 0.0
C1284 C 0.62935 0.27796 0.45053 0.0
H1285 H 0.60282 0.25564 0.57776 0.0
H1286 H 0.60739 0.25855 0.54253 0.0
C1287 C 0.63697 0.27905 0.43158 0.0
C1288 C 0.6173 0.29379 0.48119 0.0
H1289 H 0.63406 0.28309 0.52686 0.0
C1290 C 0.59776 0.29784 0.48605 0.0
C1291 C 0.63057 0.28862 0.49612 0.0
C1292 C 0.65189 0.28486 0.49182 0.0
C1293 C 0.59101 0.29624 0.50544 0.0
C1294 C 0.60426 0.29081 0.52034 0.0
C1295 C 0.62386 0.28711 0.51544 0.0
C1296 C 0.59833 0.28851 0.54114 0.0
C1297 C 0.56967 0.29983 0.50972 0.0
C1298 C 0.59112 0.30422 0.55207 0.0
C1299 C 0.58827 0.30252 0.57232 0.0
C1300 C 0.5929 0.28517 0.58197 0.0
C1301 C 0.59922 0.26924 0.57081 0.0
C1302 C 0.60187 0.27089 0.55064 0.0
H1303 H 0.56059 0.29886 0.49627 0.0
H1304 H 0.56396 0.28929 0.52058 0.0
H1305 H 0.56801 0.31461 0.51591 0.0
H1306 H 0.58863 0.31808 0.54515 0.0
H1307 H 0.58355 0.3151 0.58054 0.0
H1308 H 0.85492 0.6765 0.07616 0.0
H1309 H 0.85492 0.67179 0.04077 0.0
H1310 H 0.88825 0.61938 0.04747 0.0
H1311 H 0.88835 0.62397 0.08312 0.0
H1312 H 0.88671 0.6658 0.01214 0.0
H1313 H 0.83537 0.60327 0.02001 0.0
H1314 H 0.83946 0.62052 0.03951 0.0
H1315 H 0.85769 0.60272 0.03398 0.0
C1316 C 0.86251 0.66409 0.07015 0.0
C1317 C 0.87148 0.6505 0.08251 0.0
C1318 C 0.86254 0.66147 0.04989 0.0
C1319 C 0.87138 0.64513 0.04154 0.0
C1320 C 0.88119 0.632 0.05368 0.0
H1321 H 0.87142 0.62268 0.91428 0.0
H1322 H 0.88254 0.626 0.94829 0.0
C1323 C 0.88131 0.63469 0.07402 0.0
C1324 C 0.8689 0.64131 0.02032 0.0
H1325 H 0.84298 0.61325 -0.0119 0.0
C1326 C 0.87741 0.65414 0.00682 0.0
C1327 C 0.85653 0.62623 0.01349 0.0
C1328 C 0.84659 0.61241 0.02742 0.0
C1329 C 0.87359 0.65245 -0.01334 0.0
C1330 C 0.86093 0.6376 -0.02008 0.0
C1331 C 0.85275 0.62455 -0.00664 0.0
C1332 C 0.85473 0.63625 0.95919 0.0
C1333 C 0.88242 0.66696 0.97275 0.0
C1334 C 0.83545 0.64092 0.95412 0.0
C1335 C 0.82908 0.63914 0.93477 0.0
C1336 C 0.84184 0.63244 0.92009 0.0
C1337 C 0.86123 0.62788 0.92521 0.0
C1338 C 0.86763 0.62981 0.94461 0.0
H1339 H 0.89038 0.67877 -0.01947 0.0
H1340 H 0.89284 0.6595 0.96285 0.0
H1341 H 0.87081 0.67345 0.96353 0.0
H1342 H 0.82527 0.64589 0.96519 0.0
H1343 H 0.81405 0.64275 0.93141 0.0
H1344 H 0.38543 0.11804 0.19802 0.0
H1345 H 0.42094 0.11694 0.19454 0.0
H1346 H 0.415 0.07657 0.14662 0.0
H1347 H 0.37925 0.07768 0.14988 0.0
H1348 H 0.44835 0.08585 0.19533 0.0
H1349 H 0.44572 0.12297 0.12321 0.0
H1350 H 0.42494 0.12215 0.1395 0.0
H1351 H 0.43144 0.10113 0.12545 0.0
C1352 C 0.39161 0.10876 0.18683 0.0
C1353 C 0.37943 0.09809 0.1741 0.0
C1354 C 0.41195 0.10812 0.18491 0.0
C1355 C 0.42061 0.0969 0.17016 0.0
C1356 C 0.40859 0.08555 0.15793 0.0
H1357 H 0.54917 0.08786 0.15887 0.0
H1358 H 0.51443 0.07903 0.16179 0.0
C1359 C 0.38817 0.08613 0.15988 0.0
C1360 C 0.44211 0.09805 0.1671 0.0
H1361 H 0.47682 0.11591 0.13589 0.0
C1362 C 0.45462 0.09219 0.18224 0.0
C1363 C 0.45022 0.10654 0.15009 0.0
C1364 C 0.43746 0.11372 0.13365 0.0
C1365 C 0.47501 0.09491 0.18097 0.0
C1366 C 0.48306 0.10363 0.16407 0.0
C1367 C 0.47059 0.10913 0.14878 0.0
C1368 C 0.50418 0.10863 0.16259 0.0
C1369 C 0.48772 0.08921 0.19802 0.0
C1370 C 0.5099 0.12816 0.1619 0.0
C1371 C 0.52965 0.13324 0.16025 0.0
C1372 C 0.54416 0.11888 0.1591 0.0
C1373 C 0.53839 0.09928 0.15978 0.0
C1374 C 0.51856 0.0942 0.16151 0.0
H1375 H 0.47894 0.08551 0.21119 0.0
H1376 H 0.49652 0.07635 0.19391 0.0
H1377 H 0.49803 0.10113 0.20182 0.0
H1378 H 0.49904 0.13952 0.16268 0.0
H1379 H 0.5335 0.14847 0.15974 0.0
H1380 H 0.93347 0.80864 0.70288 0.0
H1381 H 0.967 0.82098 0.70291 0.0
H1382 H 0.95884 0.84354 0.64474 0.0
H1383 H 0.92534 0.8308 0.6444 0.0
H1384 H -0.00831 0.82283 0.64722 0.0
H1385 H -0.00997 0.87432 0.70927 0.0
H1386 H 0.98123 0.85083 0.71627 0.0
H1387 H 0.96799 0.86463 0.69833 0.0
C1388 C 0.93867 0.81648 0.69019 0.0
C1389 C 0.92669 0.81871 0.67363 0.0
C1390 C 0.95784 0.82368 0.69029 0.0
C1391 C 0.96539 0.8335 0.67396 0.0
C1392 C 0.95332 0.83613 0.65756 0.0
H1393 H 0.08871 0.86581 0.65123 0.0
H1394 H 0.05279 0.86597 0.64959 0.0
C1395 C 0.93415 0.82884 0.6574 0.0
C1396 C -0.01365 0.83944 0.67339 0.0
H1397 H 0.02196 0.86299 0.6995 0.0
C1398 C -0.00176 0.83193 0.65844 0.0
C1399 C -0.00508 0.85135 0.68801 0.0
C1400 C 0.98282 0.86091 0.70375 0.0
C1401 C 0.01856 0.83514 0.65828 0.0
C1402 C 0.02721 0.84631 0.67339 0.0
C1403 C 0.01528 0.85441 0.68796 0.0
C1404 C 0.04876 0.84814 0.67526 0.0
C1405 C 0.03078 0.82579 0.64251 0.0
C1406 C 0.05831 0.83859 0.69056 0.0
C1407 C 0.07872 0.83843 0.69151 0.0
C1408 C 0.09005 0.84796 0.67725 0.0
C1409 C 0.08043 0.85831 0.66243 0.0
C1410 C 0.05993 0.85835 0.66141 0.0
H1411 H 0.02217 0.81538 0.63349 0.0
H1412 H 0.03674 0.83716 0.63271 0.0
H1413 H 0.04335 0.81802 0.64907 0.0
H1414 H 0.04996 0.83067 0.70141 0.0
H1415 H 0.08562 0.83042 0.70321 0.0
H1416 H 0.03558 0.31045 0.75526 0.0
H1417 H 0.00189 0.32193 0.75574 0.0
H1418 H 0.0105 0.34491 0.81387 0.0
H1419 H 0.04421 0.33301 0.8137 0.0
H1420 H 0.97776 0.32366 0.8118 0.0
H1421 H 0.97816 0.37463 0.74969 0.0
H1422 H -0.01287 0.3513 0.74253 0.0
H1423 H 0.00043 0.36547 0.76035 0.0
C1424 C 0.03045 0.31821 0.76806 0.0
C1425 C 0.04265 0.3208 0.78445 0.0
C1426 C 0.01117 0.32491 0.76825 0.0
C1427 C 0.00369 0.33461 0.78471 0.0
C1428 C 0.01596 0.33759 0.80095 0.0
H1429 H 0.8798 0.36447 0.80758 0.0
H1430 H 0.91574 0.36544 0.80933 0.0
C1431 C 0.03525 0.33079 0.80082 0.0
C1432 C 0.98265 0.3401 0.78551 0.0
H1433 H 0.94646 0.36245 0.75961 0.0
C1434 C 0.97099 0.33247 0.8006 0.0
C1435 C 0.97378 0.35166 0.77095 0.0
C1436 C -0.01441 0.3614 0.75509 0.0
C1437 C 0.95062 0.33517 0.80091 0.0
C1438 C 0.94167 0.34591 0.78581 0.0
C1439 C 0.95337 0.35418 0.77114 0.0
C1440 C 0.92005 0.34705 0.78402 0.0
C1441 C 0.93865 0.32571 0.81683 0.0
C1442 C 0.91065 0.33686 0.76892 0.0
C1443 C 0.89024 0.33622 0.76792 0.0
C1444 C 0.87875 0.34592 0.78192 0.0
C1445 C 0.88821 0.35685 0.79658 0.0
C1446 C 0.90873 0.35735 0.79765 0.0
H1447 H 0.94754 0.31587 0.82603 0.0
H1448 H 0.93232 0.33708 0.82641 0.0
H1449 H 0.92633 0.31731 0.81037 0.0
H1450 H 0.91912 0.32886 0.75823 0.0
H1451 H 0.88347 0.32776 0.75636 0.0
H1452 H 0.42397 0.61806 0.31439 0.0
H1453 H 0.45839 0.60835 0.31245 0.0
H1454 H 0.4603 0.62582 0.25203 0.0
H1455 H 0.42598 0.63553 0.25374 0.0
H1456 H 0.4794 0.58187 0.28351 0.0
H1457 H 0.50283 0.65918 0.28269 0.0
H1458 H 0.47899 0.65157 0.29124 0.0
H1459 H 0.48405 0.65245 0.26549 0.0
C1460 C 0.43163 0.61961 0.3006 0.0
C1461 C 0.42224 0.62774 0.28426 0.0
C1462 C 0.45128 0.61401 0.29953 0.0
C1463 C 0.46189 0.61656 0.28216 0.0
C1464 C 0.45237 0.62389 0.26561 0.0
H1465 H 0.5829 0.61493 0.24788 0.0
H1466 H 0.54732 0.61659 0.24977 0.0
C1467 C 0.43273 0.6294 0.26663 0.0
C1468 C 0.48322 0.61277 0.28161 0.0
H1469 H 0.52737 0.63578 0.27777 0.0
C1470 C 0.48995 0.59361 0.28233 0.0
C1471 C 0.49688 0.62815 0.28015 0.0
C1472 C 0.49043 0.64903 0.27999 0.0
C1473 C 0.51006 0.58939 0.281 0.0
C1474 C 0.52372 0.6048 0.27931 0.0
C1475 C 0.51691 0.62396 0.27895 0.0
C1476 C 0.54516 0.60161 0.27744 0.0
C1477 C 0.51642 0.5685 0.2808 0.0
C1478 C 0.55585 0.59233 0.29223 0.0
C1479 C 0.57631 0.5912 0.29111 0.0
C1480 C 0.58644 0.5996 0.27532 0.0
C1481 C 0.57561 0.6084 0.26031 0.0
C1482 C 0.55523 0.60937 0.26136 0.0
H1483 H 0.50412 0.55856 0.27705 0.0
H1484 H 0.52848 0.56619 0.27017 0.0
H1485 H 0.52182 0.56454 0.29555 0.0
H1486 H 0.54846 0.58658 0.30499 0.0
H1487 H 0.58423 0.58445 0.30298 0.0
H1488 H 0.16541 0.36649 0.12269 0.0
H1489 H 0.16383 0.40113 0.11693 0.0
H1490 H 0.13608 0.39081 0.06117 0.0
H1491 H 0.13723 0.35569 0.06703 0.0
H1492 H 0.18128 0.421 0.08717 0.0
H1493 H 0.10062 0.43181 0.08659 0.0
H1494 H 0.11173 0.40996 0.09572 0.0
H1495 H 0.1101 0.41401 0.06986 0.0
C1496 C 0.15889 0.37147 0.10918 0.0
C1497 C 0.15149 0.35825 0.09528 0.0
C1498 C 0.15799 0.39134 0.10593 0.0
C1499 C 0.14971 0.39859 0.08871 0.0
C1500 C 0.14224 0.38554 0.07472 0.0
H1501 H 0.1769 0.52087 0.06755 0.0
H1502 H 0.17033 0.48664 0.06074 0.0
C1503 C 0.14303 0.36549 0.07803 0.0
C1504 C 0.14986 0.41984 0.08549 0.0
H1505 H 0.12043 0.45965 0.08295 0.0
C1506 C 0.16799 0.42946 0.08601 0.0
C1507 C 0.13247 0.4308 0.08417 0.0
C1508 C 0.11257 0.42122 0.08418 0.0
C1509 C 0.16925 0.44973 0.08604 0.0
C1510 C 0.15187 0.46077 0.08483 0.0
C1511 C 0.13372 0.45116 0.08369 0.0
C1512 C 0.15237 0.48223 0.08644 0.0
C1513 C 0.18917 0.45905 0.08849 0.0
C1514 C 0.14322 0.49147 0.10231 0.0
C1515 C 0.14659 0.51117 0.106 0.0
C1516 C 0.15934 0.52186 0.09397 0.0
C1517 C 0.16724 0.51292 0.07725 0.0
C1518 C 0.16358 0.49334 0.07338 0.0
H1519 H 0.20022 0.44862 0.09394 0.0
H1520 H 0.1943 0.46454 0.07414 0.0
H1521 H 0.18852 0.47145 0.09887 0.0
H1522 H 0.13439 0.4832 0.11251 0.0
H1523 H 0.14026 0.51766 0.11897 0.0
H1524 H 0.64234 0.92498 0.83931 0.0
H1525 H 0.63606 0.9596 0.84386 0.0
H1526 H 0.6722 0.95985 0.89557 0.0
H1527 H 0.67907 0.92543 0.89076 0.0
H1528 H 0.62183 -0.01576 0.8727 0.0
H1529 H 0.70117 -0.0031 0.85971 0.0
H1530 H 0.68975 -0.02642 0.85599 0.0
H1531 H 0.69589 -0.01833 0.88028 0.0
C1532 C 0.64862 0.93231 0.85188 0.0
C1533 C 0.66149 0.92257 0.86447 0.0
C1534 C 0.64502 0.9521 0.85446 0.0
C1535 C 0.65409 0.9624 0.86976 0.0
C1536 C 0.66548 0.95229 0.88336 0.0
H1537 H 0.63671 0.08829 0.88732 0.0
H1538 H 0.63646 0.05316 0.89297 0.0
C1539 C 0.66932 0.9326 0.88064 0.0
C1540 C 0.65324 -0.01611 0.87026 0.0
H1541 H 0.68194 0.02432 0.86607 0.0
C1542 C 0.63496 -0.00695 0.87139 0.0
C1543 C 0.6704 -0.00467 0.86828 0.0
C1544 C 0.6904 -0.01358 0.86581 0.0
C1545 C 0.63336 0.01334 0.87033 0.0
C1546 C 0.65055 0.02472 0.86841 0.0
C1547 C 0.66881 0.01556 0.86769 0.0
C1548 C 0.65001 0.04599 0.86526 0.0
C1549 C 0.6133 0.02237 0.87045 0.0
C1550 C 0.65801 0.05362 0.84803 0.0
C1551 C 0.6584 0.07355 0.84489 0.0
C1552 C 0.65076 0.08642 0.85891 0.0
C1553 C 0.64266 0.07878 0.87621 0.0
C1554 C 0.64238 0.05871 0.87939 0.0
H1555 H 0.60155 0.01144 0.868 0.0
H1556 H 0.61073 0.02935 0.88486 0.0
H1557 H 0.61219 0.0337 0.85902 0.0
H1558 H 0.664 0.04409 0.83693 0.0
H1559 H 0.66469 0.07885 0.83137 0.0
H1560 H 0.77882 0.0144 0.38066 0.0
H1561 H 0.78913 -0.01871 0.38655 0.0
H1562 H 0.84396 -0.00716 0.35741 0.0
H1563 H 0.83342 0.02605 0.35086 0.0
H1564 H 0.82752 0.9621 0.34258 0.0
H1565 H 0.82507 0.95355 0.42255 0.0
H1566 H 0.80237 0.96344 0.41425 0.0
H1567 H 0.82475 -0.02291 0.41109 0.0
C1568 C 0.79326 0.01009 0.37584 0.0
C1569 C 0.80523 0.02288 0.36515 0.0
C1570 C 0.79924 -0.00887 0.37943 0.0
C1571 C 0.81748 -0.01543 0.37274 0.0
C1572 C 0.82988 -0.00241 0.36285 0.0
H1573 H 0.83914 0.85852 0.38633 0.0
H1574 H 0.84415 0.89368 0.39019 0.0
C1575 C 0.82382 0.01657 0.3591 0.0
C1576 C 0.82216 0.96358 0.37364 0.0
H1577 H 0.81883 0.924 0.4034 0.0
C1578 C 0.82611 0.95388 0.356 0.0
C1579 C 0.82068 0.95273 0.39114 0.0
C1580 C 0.81821 0.96233 0.41083 0.0
C1581 C 0.82705 0.93361 0.35514 0.0
C1582 C 0.82349 0.92271 0.37227 0.0
C1583 C 0.82115 0.93237 0.3902 0.0
C1584 C 0.82009 0.9015 0.37128 0.0
C1585 C 0.83117 0.92403 0.33571 0.0
C1586 C 0.80452 0.89436 0.35998 0.0
C1587 C 0.80165 0.87449 0.35774 0.0
C1588 C 0.8142 0.86122 0.3669 0.0
C1589 C 0.82927 0.86836 0.37903 0.0
C1590 C 0.83218 0.88841 0.38122 0.0
H1591 H 0.83975 0.93374 0.32597 0.0
H1592 H 0.83934 0.91029 0.33762 0.0
H1593 H 0.8171 0.92067 0.32829 0.0
H1594 H 0.7947 0.90422 0.35261 0.0
H1595 H 0.78973 0.86954 0.34851 0.0
H1596 H 0.32759 0.42763 0.61861 0.0
H1597 H 0.33376 0.46226 0.61352 0.0
H1598 H 0.2998 0.46025 0.56038 0.0
H1599 H 0.29298 0.42586 0.56575 0.0
H1600 H 0.34871 0.48671 0.58486 0.0
H1601 H 0.26865 0.49715 0.59431 0.0
H1602 H 0.28035 0.47428 0.59887 0.0
H1603 H 0.27509 0.48166 0.57422 0.0
C1604 C 0.32181 0.43448 0.60562 0.0
C1605 C 0.30951 0.42415 0.59277 0.0
C1606 C 0.32534 0.45427 0.60272 0.0
C1607 C 0.31679 0.46393 0.58684 0.0
C1608 C 0.30609 0.45319 0.57301 0.0
H1609 H 0.33163 0.59048 0.56945 0.0
H1610 H 0.33321 0.55535 0.56358 0.0
C1611 C 0.30228 0.43353 0.57606 0.0
C1612 C 0.31724 0.48542 0.58599 0.0
H1613 H 0.28756 0.52499 0.58843 0.0
C1614 C 0.33536 0.49513 0.58549 0.0
C1615 C 0.29978 0.49635 0.58706 0.0
C1616 C 0.27987 0.48688 0.58883 0.0
C1617 C 0.33649 0.51549 0.58636 0.0
C1618 C 0.31901 0.52635 0.58744 0.0
C1619 C 0.30093 0.51662 0.58744 0.0
C1620 C 0.31894 0.54761 0.59075 0.0
C1621 C 0.35632 0.52517 0.58696 0.0
C1622 C 0.31016 0.55488 0.60777 0.0
C1623 C 0.30901 0.57477 0.61102 0.0
C1624 C 0.31666 0.58796 0.59733 0.0
C1625 C 0.32562 0.5807 0.58029 0.0
C1626 C 0.32667 0.56065 0.57698 0.0
H1627 H 0.36826 0.51464 0.58965 0.0
H1628 H 0.35916 0.53235 0.57274 0.0
H1629 H 0.35679 0.53647 0.59857 0.0
H1630 H 0.3041 0.5451 0.61859 0.0
H1631 H 0.30209 0.57976 0.62436 0.0
H1632 H 0.83912 0.77324 0.4288 0.0
H1633 H 0.84678 0.76977 0.4635 0.0
H1634 H 0.88491 0.81967 0.4606 0.0
H1635 H 0.87704 0.82351 0.42589 0.0
H1636 H 0.88155 0.76475 0.48399 0.0
H1637 H 0.84647 0.83473 0.50363 0.0
H1638 H 0.84347 0.82359 0.4799 0.0
H1639 H 0.86572 0.83632 0.4858 0.0
C1640 C 0.84927 0.78341 0.43546 0.0
C1641 C 0.8573 0.79879 0.42458 0.0
C1642 C 0.85365 0.78138 0.45532 0.0
C1643 C 0.86612 0.79468 0.46474 0.0
C1644 C 0.87491 0.8095 0.45373 0.0
H1645 H 0.8866 0.80519 0.5915 0.0
H1646 H 0.89083 0.80868 0.55602 0.0
C1647 C 0.87048 0.81159 0.43385 0.0
C1648 C 0.8692 0.79332 0.4862 0.0
H1649 H 0.86012 0.81676 0.52935 0.0
C1650 C 0.877 0.77618 0.4939 0.0
C1651 C 0.8633 0.80827 0.49913 0.0
C1652 C 0.85412 0.82672 0.49178 0.0
C1653 C 0.87874 0.77346 0.51419 0.0
C1654 C 0.87227 0.78815 0.52709 0.0
C1655 C 0.86512 0.80555 0.5194 0.0
C1656 C 0.87114 0.78513 0.54854 0.0
C1657 C 0.88732 0.7548 0.52164 0.0
C1658 C 0.85867 0.77078 0.55607 0.0
C1659 C 0.85615 0.76882 0.57624 0.0
C1660 C 0.86602 0.78122 0.58936 0.0
C1661 C 0.87884 0.79536 0.58181 0.0
C1662 C 0.88126 0.79739 0.56155 0.0
H1663 H 0.89673 0.74777 0.51045 0.0
H1664 H 0.89611 0.75732 0.53508 0.0
H1665 H 0.87525 0.74459 0.52527 0.0
H1666 H 0.85042 0.76141 0.54632 0.0
H1667 H 0.84615 0.75778 0.58151 0.0
H1668 H 0.63197 0.19547 0.93221 0.0
H1669 H 0.6226 0.19394 0.96665 0.0
H1670 H 0.59446 0.13871 0.95662 0.0
H1671 H 0.60421 0.13987 0.92218 0.0
H1672 H 0.58729 0.19113 -0.01443 0.0
H1673 H 0.63247 0.12592 0.00013 0.0
H1674 H 0.6344 0.13947 0.9777 0.0
H1675 H 0.61431 0.12295 -0.01863 0.0
C1676 C 0.62367 0.18303 0.93726 0.0
C1677 C 0.61903 0.16769 0.92446 0.0
C1678 C 0.61831 0.1822 0.95697 0.0
C1679 C 0.60816 0.16604 0.96431 0.0
C1680 C 0.6027 0.1511 0.95139 0.0
H1681 H 0.58527 0.14275 0.08931 0.0
H1682 H 0.5817 0.1414 0.05352 0.0
C1683 C 0.60819 0.15185 0.93168 0.0
C1684 C 0.60396 0.16472 -0.0144 0.0
H1685 H 0.61515 0.13903 0.02674 0.0
C1686 C 0.59323 0.17963 -0.00546 0.0
C1687 C 0.61168 0.14968 -0.00269 0.0
C1688 C 0.62399 0.13367 -0.01127 0.0
C1689 C 0.59046 0.18018 0.01489 0.0
C1690 C 0.59873 0.16553 0.02661 0.0
C1691 C 0.60873 0.15018 0.01765 0.0
C1692 C 0.59922 0.16706 0.04824 0.0
C1693 C 0.57902 0.19665 0.02376 0.0
C1694 C 0.61023 0.18189 0.05703 0.0
C1695 C 0.61246 0.18258 0.0773 0.0
C1696 C 0.60364 0.16848 0.08927 0.0
C1697 C 0.59215 0.15388 0.08049 0.0
C1698 C 0.59012 0.15306 0.06008 0.0
H1699 H 0.56919 0.20348 0.01286 0.0
H1700 H 0.5701 0.19158 0.03635 0.0
H1701 H 0.58937 0.2079 0.02916 0.0
H1702 H 0.61763 0.19264 0.04815 0.0
H1703 H 0.62137 0.19405 0.08357 0.0
H1704 H 0.34498 0.68809 0.37894 0.0
H1705 H 0.34991 0.68473 0.41405 0.0
H1706 H 0.38871 0.63666 0.40396 0.0
H1707 H 0.3838 0.63987 0.36854 0.0
H1708 H 0.35844 0.62938 0.43141 0.0
H1709 H 0.39727 0.69796 0.44875 0.0
H1710 H 0.37557 0.70137 0.4344 0.0
H1711 H 0.39583 0.68819 0.42423 0.0
C1712 C 0.35477 0.67693 0.3841 0.0
C1713 C 0.36399 0.66423 0.37088 0.0
C1714 C 0.35768 0.67513 0.40422 0.0
C1715 C 0.36989 0.66063 0.41162 0.0
C1716 C 0.37935 0.64806 0.39852 0.0
H1717 H 0.37745 0.62372 0.53463 0.0
H1718 H 0.38455 0.62696 0.49968 0.0
C1719 C 0.37655 0.64993 0.3783 0.0
C1720 C 0.37139 0.65782 0.43308 0.0
H1721 H 0.38207 0.68158 0.47571 0.0
C1722 C 0.36393 0.64062 0.44112 0.0
C1723 C 0.37848 0.67256 0.44568 0.0
C1724 C 0.38742 0.69099 0.43784 0.0
C1725 C 0.36241 0.63817 0.46147 0.0
C1726 C 0.36894 0.65318 0.4741 0.0
C1727 C 0.37704 0.6701 0.46603 0.0
C1728 C 0.36624 0.65212 0.49563 0.0
C1729 C 0.35291 0.61995 0.46921 0.0
C1730 C 0.35429 0.66568 0.50514 0.0
C1731 C 0.35035 0.66399 0.52514 0.0
C1732 C 0.35831 0.64869 0.53605 0.0
C1733 C 0.37095 0.63559 0.52665 0.0
C1734 C 0.37494 0.63734 0.50664 0.0
H1735 H 0.34484 0.6119 0.45762 0.0
H1736 H 0.36437 0.61026 0.47511 0.0
H1737 H 0.34255 0.62338 0.48125 0.0
H1738 H 0.34751 0.67726 0.49696 0.0
H1739 H 0.3406 0.67438 0.53189 0.0
H1740 H 0.09178 0.32308 0.03187 0.0
H1741 H 0.08456 0.31964 -0.00304 0.0
H1742 H 0.12023 0.26833 -0.00555 0.0
H1743 H 0.12725 0.27145 0.02932 0.0
H1744 H 0.1111 0.32099 0.96732 0.0
H1745 H 0.07197 0.25064 0.96494 0.0
H1746 H 0.07583 0.26392 -0.01257 0.0
H1747 H 0.09498 0.24905 0.97744 0.0
C1748 C 0.09783 0.31087 0.02397 0.0
C1749 C 0.11009 0.29752 0.03343 0.0
C1750 C 0.0937 0.30894 0.004 0.0
C1751 C 0.10162 0.29358 -0.00689 0.0
C1752 C 0.11355 0.28004 0.00261 0.0
H1753 H 0.1241 0.26097 0.87542 0.0
H1754 H 0.1199 0.26441 0.91067 0.0
C1755 C 0.11766 0.28192 0.02256 0.0
C1756 C 0.09878 0.29253 0.97157 0.0
H1757 H 0.08533 0.26195 0.93446 0.0
C1758 C 0.10515 0.30822 0.96013 0.0
C1759 C 0.09099 0.27587 0.9622 0.0
C1760 C 0.08287 0.259 0.97365 0.0
C1761 C 0.10485 0.30732 0.9396 0.0
C1762 C 0.09777 0.29036 0.93025 0.0
C1763 C 0.09079 0.27493 0.94167 0.0
C1764 C 0.09902 0.28776 0.90873 0.0
C1765 C 0.11299 0.32413 0.92806 0.0
C1766 C 0.08835 0.29951 0.89587 0.0
C1767 C 0.0907 0.29757 0.87558 0.0
C1768 C 0.10379 0.28386 0.86784 0.0
C1769 C 0.11399 0.27176 0.88083 0.0
C1770 C 0.11157 0.27366 0.90102 0.0
H1771 H 0.12095 0.33468 0.9375 0.0
H1772 H 0.12311 0.31891 0.91649 0.0
H1773 H 0.1008 0.33184 0.9208 0.0
H1774 H 0.07838 0.31031 0.90154 0.0
H1775 H 0.08257 0.30706 0.86601 0.0
H1776 H 0.59364 0.83926 0.85431 0.0
H1777 H 0.55942 0.83573 0.8445 0.0
H1778 H 0.57243 0.86235 0.78904 0.0
H1779 H 0.60694 0.86584 0.79867 0.0
H1780 H 0.53748 0.87743 0.81301 0.0
H1781 H 0.53813 0.79791 0.79954 0.0
H1782 H 0.54973 0.80617 0.82171 0.0
H1783 H 0.56003 0.81268 0.79848 0.0
C1784 C 0.58931 0.8443 0.83997 0.0
C1785 C 0.60306 0.85281 0.82725 0.0
C1786 C 0.56974 0.84223 0.83439 0.0
C1787 C 0.56345 0.8487 0.81604 0.0
C1788 C 0.57705 0.85723 0.80326 0.0
H1789 H 0.44754 0.82223 0.76881 0.0
H1790 H 0.48244 0.82978 0.77166 0.0
C1791 C 0.59675 0.85914 0.80876 0.0
C1792 C 0.54254 0.84676 0.81052 0.0
H1793 H 0.50708 0.81306 0.80076 0.0
C1794 C 0.53083 0.8634 0.81013 0.0
C1795 C 0.53398 0.82846 0.80669 0.0
C1796 C 0.54608 0.81024 0.80645 0.0
C1797 C 0.51057 0.8621 0.80662 0.0
C1798 C 0.50188 0.8437 0.80351 0.0
C1799 C 0.51375 0.82716 0.80324 0.0
C1800 C 0.48042 0.84112 0.80111 0.0
C1801 C 0.4986 0.88039 0.80634 0.0
C1802 C 0.46764 0.84518 0.81666 0.0
C1803 C 0.44766 0.84081 0.81513 0.0
C1804 C 0.44007 0.83227 0.798 0.0
C1805 C 0.45283 0.82885 0.7822 0.0
C1806 C 0.47282 0.83311 0.7838 0.0
H1807 H 0.50792 0.89346 0.80422 0.0
H1808 H 0.48744 0.87979 0.79453 0.0
H1809 H 0.49082 0.88193 0.82051 0.0
H1810 H 0.47324 0.85109 0.83027 0.0
H1811 H 0.43828 0.84358 0.8276 0.0
H1812 H 0.86021 0.13052 0.30716 0.0
H1813 H 0.89546 0.13245 0.30118 0.0
H1814 H 0.90028 0.07086 0.31026 0.0
H1815 H 0.865 0.06873 0.31586 0.0
H1816 H 0.9246 0.12384 0.32641 0.0
H1817 H 0.93128 0.07768 0.26026 0.0
H1818 H 0.90803 0.08651 0.26898 0.0
H1819 H 0.91918 0.06579 0.28023 0.0
C1820 C 0.8687 0.11733 0.30763 0.0
C1821 C 0.85971 0.09946 0.31195 0.0
C1822 C 0.88889 0.11846 0.30424 0.0
C1823 C 0.90054 0.10177 0.30504 0.0
C1824 C 0.89158 0.08388 0.30912 0.0
H1825 H 0.02705 0.10579 0.32432 0.0
H1826 H -0.0081 0.09927 0.327 0.0
C1827 C 0.87138 0.08271 0.31243 0.0
C1828 C 0.92217 0.10333 0.30272 0.0
H1829 H 0.96104 0.08665 0.27612 0.0
C1830 C 0.93255 0.11573 0.31538 0.0
C1831 C 0.93256 0.0929 0.28821 0.0
C1832 C 0.9222 0.08011 0.27352 0.0
C1833 C 0.95296 0.11791 0.31404 0.0
C1834 C 0.96343 0.10703 0.29992 0.0
C1835 C 0.95305 0.09477 0.28712 0.0
C1836 C -0.01496 0.10891 0.29771 0.0
C1837 C 0.96305 0.13223 0.32745 0.0
C1838 C -0.00694 0.11552 0.28002 0.0
C1839 C 0.01318 0.11904 0.27836 0.0
C1840 C 0.02575 0.11601 0.29437 0.0
C1841 C 0.01781 0.10844 0.31175 0.0
C1842 C -0.00233 0.10484 0.31336 0.0
H1843 H 0.95259 0.14285 0.33372 0.0
H1844 H 0.96986 0.12431 0.33977 0.0
H1845 H 0.97474 0.14029 0.3196 0.0
H1846 H 0.98364 0.11864 0.26769 0.0
H1847 H 0.01876 0.12481 0.26473 0.0
H1848 H 0.10314 0.57896 0.16109 0.0
H1849 H 0.06876 0.58343 0.17057 0.0
H1850 H 0.05637 0.60754 0.11386 0.0
H1851 H 0.09048 0.60308 0.10424 0.0
H1852 H 0.04206 0.62941 0.14843 0.0
H1853 H 0.02072 0.55139 0.14724 0.0
H1854 H 0.04262 0.5581 0.16035 0.0
H1855 H 0.04189 0.56044 0.13425 0.0
C1856 C 0.0931 0.58524 0.15066 0.0
C1857 C 0.09956 0.5906 0.13188 0.0
C1858 C 0.07346 0.5877 0.15607 0.0
C1859 C 0.06002 0.59566 0.14284 0.0
C1860 C 0.0665 0.6013 0.12425 0.0
H1861 H 0.93499 0.60453 0.13313 0.0
H1862 H 0.96978 0.59673 0.13 0.0
C1863 C 0.08602 0.59871 0.11878 0.0
C1864 C 0.03917 0.59836 0.14823 0.0
H1865 H -0.00389 0.5739 0.15522 0.0
C1866 C 0.03203 0.61729 0.15011 0.0
C1867 C 0.02614 0.5825 0.1502 0.0
C1868 C 0.03308 0.56191 0.14782 0.0
C1869 C 0.01212 0.62081 0.15376 0.0
C1870 C -0.00096 0.60495 0.15565 0.0
C1871 C 0.00621 0.586 0.15389 0.0
C1872 C 0.97773 0.60793 0.15851 0.0
C1873 C 0.00509 0.64147 0.15496 0.0
C1874 C 0.9706 0.61631 0.1758 0.0
C1875 C 0.95071 0.62073 0.17768 0.0
C1876 C 0.93758 0.61689 0.16226 0.0
C1877 C 0.94468 0.60775 0.14526 0.0
C1878 C 0.96456 0.60326 0.14345 0.0
H1879 H 0.01632 0.65194 0.14973 0.0
H1880 H -0.00843 0.64334 0.14617 0.0
H1881 H 0.00157 0.64506 0.17039 0.0
H1882 H 0.9805 0.61982 0.18769 0.0
H1883 H 0.94577 0.6277 0.191 0.0
H1884 H 0.3653 0.37026 0.68078 0.0
H1885 H 0.40055 0.36462 0.68458 0.0
H1886 H 0.40408 0.34608 0.62444 0.0
H1887 H 0.36897 0.35148 0.6205 0.0
H1888 H 0.42216 0.32723 0.67533 0.0
H1889 H 0.44627 0.3911 0.63202 0.0
H1890 H 0.42234 0.38952 0.6432 0.0
H1891 H 0.42748 0.3761 0.62128 0.0
C1892 C 0.37356 0.36494 0.66837 0.0
C1893 C 0.36428 0.36137 0.65032 0.0
C1894 C 0.39369 0.36173 0.67058 0.0
C1895 C 0.40493 0.35515 0.65472 0.0
C1896 C 0.39569 0.35137 0.63679 0.0
H1897 H 0.52555 0.32866 0.62927 0.0
H1898 H 0.49096 0.3375 0.62875 0.0
C1899 C 0.37559 0.35439 0.63461 0.0
C1900 C 0.4263 0.35205 0.65684 0.0
H1901 H 0.47077 0.36882 0.64129 0.0
C1902 C 0.43284 0.33639 0.66806 0.0
C1903 C 0.44012 0.36397 0.64722 0.0
C1904 C 0.43382 0.38122 0.63534 0.0
C1905 C 0.45286 0.33197 0.66942 0.0
C1906 C 0.46677 0.34388 0.65974 0.0
C1907 C 0.46017 0.35972 0.64874 0.0
C1908 C 0.48814 0.33972 0.66021 0.0
C1909 C 0.45883 0.31412 0.68058 0.0
C1910 C 0.4983 0.3386 0.67803 0.0
C1911 C 0.51808 0.33341 0.67839 0.0
C1912 C 0.52821 0.32949 0.6609 0.0
C1913 C 0.51824 0.33154 0.64302 0.0
C1914 C 0.49842 0.33658 0.6427 0.0
H1915 H 0.44638 0.30388 0.68251 0.0
H1916 H 0.47089 0.30639 0.67301 0.0
H1917 H 0.46404 0.31846 0.69534 0.0
H1918 H 0.49086 0.3415 0.69172 0.0
H1919 H 0.52534 0.33214 0.69241 0.0
H1920 H 0.81664 0.56848 0.88127 0.0
H1921 H 0.82171 0.5333 0.88235 0.0
H1922 H 0.77301 0.52477 0.84311 0.0
H1923 H 0.76773 0.55965 0.84205 0.0
H1924 H 0.77457 0.49758 0.87443 0.0
H1925 H 0.84533 0.50461 0.83451 0.0
H1926 H 0.84288 0.51836 0.85676 0.0
H1927 H 0.828 0.5242 0.83599 0.0
C1928 C 0.80684 0.55909 0.8731 0.0
C1929 C 0.7919 0.56691 0.86142 0.0
C1930 C 0.80982 0.53901 0.87366 0.0
C1931 C 0.7979 0.52647 0.86258 0.0
C1932 C 0.78241 0.53419 0.85172 0.0
H1933 H 0.81013 0.41772 0.8065 0.0
H1934 H 0.80706 0.45129 0.81727 0.0
C1935 C 0.77946 0.55417 0.85109 0.0
C1936 C 0.80205 0.50542 0.86116 0.0
H1937 H 0.83399 0.47312 0.84094 0.0
C1938 C 0.78769 0.49217 0.86738 0.0
C1939 C 0.81909 0.49846 0.85176 0.0
C1940 C 0.8347 0.51208 0.84421 0.0
C1941 C 0.78968 0.47217 0.86398 0.0
C1942 C 0.80653 0.46528 0.85422 0.0
C1943 C 0.82114 0.47847 0.84851 0.0
C1944 C 0.80847 0.44472 0.84814 0.0
C1945 C 0.77335 0.45865 0.86999 0.0
C1946 C 0.81039 0.42984 0.86196 0.0
C1947 C 0.81218 0.41052 0.85583 0.0
C1948 C 0.81208 0.40577 0.83579 0.0
C1949 C 0.81022 0.42079 0.82205 0.0
C1950 C 0.80851 0.44003 0.82817 0.0
H1951 H 0.76003 0.46661 0.87464 0.0
H1952 H 0.76942 0.44875 0.85775 0.0
H1953 H 0.77832 0.44962 0.88242 0.0
H1954 H 0.81063 0.43319 0.87744 0.0
H1955 H 0.81365 0.39933 0.86679 0.0
H1956 H 0.31571 0.87641 0.08085 0.0
H1957 H 0.3196 0.91184 0.07996 0.0
H1958 H 0.26605 0.91829 0.11265 0.0
H1959 H 0.26207 0.88317 0.11367 0.0
H1960 H 0.27246 0.94547 0.07906 0.0
H1961 H 0.33382 0.94142 0.13266 0.0
H1962 H 0.33493 0.92653 0.111 0.0
H1963 H 0.31676 0.92162 0.12928 0.0
C1964 C 0.30461 0.88541 0.08754 0.0
C1965 C 0.28868 0.87699 0.09749 0.0
C1966 C 0.30689 0.90561 0.08708 0.0
C1967 C 0.2932 0.91761 0.09641 0.0
C1968 C 0.27679 0.90926 0.1054 0.0
H1969 H 0.26709 0.03121 0.13579 0.0
H1970 H 0.26713 -0.00144 0.12202 0.0
C1971 C 0.27459 0.88917 0.10602 0.0
C1972 C 0.29642 0.93878 0.09827 0.0
H1973 H 0.32186 0.9722 0.12513 0.0
C1974 C 0.28346 0.95139 0.08888 0.0
C1975 C 0.3108 0.94641 0.11105 0.0
C1976 C 0.32488 0.93339 0.1217 0.0
C1977 C 0.28415 0.97147 0.09236 0.0
C1978 C 0.29781 -0.02099 0.10602 0.0
C1979 C 0.31135 0.96644 0.11471 0.0
C1980 C 0.29742 -0.00047 0.1127 0.0
C1981 C 0.27014 -0.01566 0.08146 0.0
C1982 C 0.31452 0.01091 0.1124 0.0
C1983 C 0.31462 0.02954 0.12055 0.0
C1984 C 0.29761 0.03714 0.12922 0.0
C1985 C 0.2804 0.02588 0.12911 0.0
C1986 C 0.28036 0.00723 0.12108 0.0
H1987 H 0.26596 -0.02216 0.06715 0.0
H1988 H 0.25656 -0.01397 0.0902 0.0
H1989 H 0.27655 -0.00108 0.07885 0.0
H1990 H 0.3279 0.00524 0.10615 0.0
H1991 H 0.32813 0.03782 0.12039 0.0
H1992 H 0.13949 0.90879 0.62183 0.0
H1993 H 0.13921 0.94124 0.6075 0.0
H1994 H 0.20004 0.94878 0.62279 0.0
H1995 H 0.20058 0.91627 0.63663 0.0
H1996 H 0.14504 -0.02537 0.62616 0.0
H1997 H 0.20057 0.9687 0.56777 0.0
H1998 H 0.19031 0.94769 0.57974 0.0
H1999 H 0.21022 0.961 0.59083 0.0
C2000 C 0.1529 0.91724 0.62185 0.0
C2001 C 0.17008 0.90991 0.63036 0.0
C2002 C 0.15271 0.93579 0.61365 0.0
C2003 C 0.16968 0.94737 0.61375 0.0
C2004 C 0.1869 0.93996 0.622 0.0
H2005 H 0.2029 0.06472 0.61248 0.0
H2006 H 0.19969 0.0295 0.61242 0.0
C2007 C 0.18715 0.92138 0.63007 0.0
C2008 C 0.16901 0.96779 0.60691 0.0
H2009 H 0.19363 0.00117 0.5793 0.0
C2010 C 0.15538 -0.01966 0.61559 0.0
C2011 C 0.18246 -0.02473 0.59305 0.0
C2012 C 0.19656 0.96239 0.58217 0.0
C2013 C 0.1556 0.0003 0.61166 0.0
C2014 C 0.16974 0.00789 0.59864 0.0
C2015 C 0.18283 -0.00472 0.58931 0.0
C2016 C 0.17247 0.02906 0.5963 0.0
C2017 C 0.1414 0.01332 0.62225 0.0
C2018 C 0.15848 0.04045 0.58673 0.0
C2019 C 0.16033 0.0607 0.58663 0.0
C2020 C 0.17611 0.06979 0.59626 0.0
C2021 C 0.19049 0.0582 0.60506 0.0
C2022 C 0.18873 0.03805 0.60499 0.0
H2023 H 0.13271 0.0054 0.63343 0.0
H2024 H 0.14938 0.02541 0.62954 0.0
H2025 H 0.13113 0.01976 0.61154 0.0
H2026 H 0.14588 0.03372 0.57984 0.0
H2027 H 0.149 0.06922 0.57975 0.0
H2028 H 0.70636 0.38527 0.34014 0.0
H2029 H 0.70179 0.42023 0.33915 0.0
H2030 H 0.65327 0.41534 0.37917 0.0
H2031 H 0.65769 0.38003 0.38028 0.0
H2032 H 0.66325 0.43573 0.32655 0.0
H2033 H 0.68905 0.4628 0.39904 0.0
H2034 H 0.69791 0.44042 0.38856 0.0
H2035 H 0.67354 0.44159 0.39815 0.0
C2036 C 0.69488 0.39157 0.34902 0.0
C2037 C 0.68227 0.37979 0.36018 0.0
C2038 C 0.69233 0.41159 0.34844 0.0
C2039 C 0.67722 0.42033 0.35908 0.0
C2040 C 0.66514 0.40883 0.37099 0.0
H2041 H 0.63406 0.53488 0.32635 0.0
H2042 H 0.63538 0.50179 0.339 0.0
C2043 C 0.66768 0.38868 0.37159 0.0
C2044 C 0.67313 0.44113 0.35596 0.0
H2045 H 0.67805 0.48612 0.37642 0.0
C2046 C 0.66627 0.44676 0.33751 0.0
C2047 C 0.67723 0.45539 0.37027 0.0
C2048 C 0.68492 0.44991 0.39015 0.0
C2049 C 0.66377 0.46634 0.33281 0.0
C2050 C 0.66804 0.48068 0.34704 0.0
C2051 C 0.67465 0.47506 0.36562 0.0
C2052 C 0.66686 0.50157 0.34225 0.0
C2053 C 0.65726 0.47158 0.31241 0.0
C2054 C 0.68406 0.51264 0.34062 0.0
C2055 C 0.68338 0.53156 0.3334 0.0
C2056 C 0.66546 0.53976 0.32773 0.0
C2057 C 0.64813 0.52898 0.33043 0.0
C2058 C 0.64884 0.51005 0.33764 0.0
H2059 H 0.65809 0.45905 0.30219 0.0
H2060 H 0.64186 0.47657 0.31287 0.0
H2061 H 0.66638 0.48357 0.30649 0.0
H2062 H 0.69812 0.50633 0.34412 0.0
H2063 H 0.69699 0.53948 0.33162 0.0
loop_
_geom_bond_atom_site_label_1
_geom_bond_atom_site_label_2
_geom_bond_distance
_geom_bond_site_symmetry_2
_ccdc_geom_bond_type
Zn0 O3 2.031 . S
Zn0 O5 2.049 . S
Zn0 O10 2.067 . S
Zn1 O2 1.962 . S
Zn1 O4 1.986 . S
Zn1 O6 1.996 . S
Zn1 O9 1.943 . S
O2 Zn1 1.962 . S
O2 C7 1.254 . S
O3 Zn0 2.031 . S
O3 C7 1.269 . S
O4 Zn1 1.986 . S
O4 C11 1.262 . S
O5 Zn0 2.049 . S
O5 C13 1.260 . S
O6 Zn1 1.996 . S
O6 C13 1.257 . S
C7 O2 1.254 . S
C7 O3 1.269 . S
C8 O9 1.249 . S
C8 O10 1.270 . S
O9 Zn1 1.943 . S
O9 C8 1.249 . S
O10 Zn0 2.067 . S
O10 C8 1.270 . S
C11 O4 1.262 . S
C11 O12 1.232 . S
O12 C11 1.232 . S
C13 O5 1.260 . S
C13 O6 1.257 . S
Zn14 O17 2.031 . S
Zn14 O19 2.049 . S
Zn14 O24 2.067 . S
Zn15 O16 1.962 . S
Zn15 O18 1.986 . S
Zn15 O20 1.996 . S
Zn15 O23 1.943 . S
O16 Zn15 1.962 . S
O16 C21 1.254 . S
O17 Zn14 2.031 . S
O17 C21 1.269 . S
O18 Zn15 1.986 . S
O18 C25 1.262 . S
O19 Zn14 2.049 . S
O19 C27 1.260 . S
O20 Zn15 1.996 . S
O20 C27 1.257 . S
C21 O16 1.254 . S
C21 O17 1.269 . S
C22 O23 1.249 . S
C22 O24 1.270 . S
O23 Zn15 1.943 . S
O23 C22 1.249 . S
O24 Zn14 2.067 . S
O24 C22 1.270 . S
C25 O18 1.262 . S
C25 O26 1.232 . S
O26 C25 1.232 . S
C27 O19 1.260 . S
C27 O20 1.257 . S
Zn28 O31 2.031 . S
Zn28 O33 2.049 . S
Zn28 O38 2.067 . S
Zn29 O30 1.962 . S
Zn29 O32 1.986 . S
Zn29 O34 1.996 . S
Zn29 O37 1.943 . S
O30 Zn29 1.962 . S
O30 C35 1.254 . S
O31 Zn28 2.031 . S
O31 C35 1.269 . S
O32 Zn29 1.986 . S
O32 C39 1.262 . S
O33 Zn28 2.049 . S
O33 C41 1.260 . S
O34 Zn29 1.996 . S
O34 C41 1.257 . S
C35 O30 1.254 . S
C35 O31 1.269 . S
C36 O37 1.249 . S
C36 O38 1.270 . S
O37 Zn29 1.943 . S
O37 C36 1.249 . S
O38 Zn28 2.067 . S
O38 C36 1.270 . S
C39 O32 1.262 . S
C39 O40 1.232 . S
O40 C39 1.232 . S
C41 O33 1.260 . S
C41 O34 1.257 . S
Zn42 O45 2.031 . S
Zn42 O47 2.049 . S
Zn42 O52 2.067 . S
Zn43 O44 1.962 . S
Zn43 O46 1.986 . S
Zn43 O48 1.996 . S
Zn43 O51 1.943 . S
O44 Zn43 1.962 . S
O44 C49 1.254 . S
O45 Zn42 2.031 . S
O45 C49 1.269 . S
O46 Zn43 1.986 . S
O46 C53 1.262 . S
O47 Zn42 2.049 . S
O47 C55 1.260 . S
O48 Zn43 1.996 . S
O48 C55 1.257 . S
C49 O44 1.254 . S
C49 O45 1.269 . S
C50 O51 1.249 . S
C50 O52 1.270 . S
O51 Zn43 1.943 . S
O51 C50 1.249 . S
O52 Zn42 2.067 . S
O52 C50 1.270 . S
C53 O46 1.262 . S
C53 O54 1.232 . S
O54 C53 1.232 . S
C55 O47 1.260 . S
C55 O48 1.257 . S
Zn56 O59 2.031 . S
Zn56 O61 2.049 . S
Zn56 O66 2.067 . S
Zn57 O58 1.962 . S
Zn57 O60 1.986 . S
Zn57 O62 1.996 . S
Zn57 O65 1.943 . S
O58 Zn57 1.962 . S
O58 C63 1.254 . S
O59 Zn56 2.031 . S
O59 C63 1.269 . S
O60 Zn57 1.986 . S
O60 C67 1.262 . S
O61 Zn56 2.049 . S
O61 C69 1.260 . S
O62 Zn57 1.996 . S
O62 C69 1.257 . S
C63 O58 1.254 . S
C63 O59 1.269 . S
C64 O65 1.249 . S
C64 O66 1.270 . S
O65 Zn57 1.943 . S
O65 C64 1.249 . S
O66 Zn56 2.067 . S
O66 C64 1.270 . S
C67 O60 1.262 . S
C67 O68 1.232 . S
O68 C67 1.232 . S
C69 O61 1.260 . S
C69 O62 1.257 . S
Zn70 O73 2.031 . S
Zn70 O75 2.049 . S
Zn70 O80 2.067 . S
Zn71 O72 1.962 . S
Zn71 O74 1.986 . S
Zn71 O76 1.996 . S
Zn71 O79 1.943 . S
O72 Zn71 1.962 . S
O72 C77 1.254 . S
O73 Zn70 2.031 . S
O73 C77 1.269 . S
O74 Zn71 1.986 . S
O74 C81 1.262 . S
O75 Zn70 2.049 . S
O75 C83 1.260 . S
O76 Zn71 1.996 . S
O76 C83 1.257 . S
C77 O72 1.254 . S
C77 O73 1.269 . S
C78 O79 1.249 . S
C78 O80 1.270 . S
O79 Zn71 1.943 . S
O79 C78 1.249 . S
O80 Zn70 2.067 . S
O80 C78 1.270 . S
C81 O74 1.262 . S
C81 O82 1.232 . S
O82 C81 1.232 . S
C83 O75 1.260 . S
C83 O76 1.257 . S
Zn84 O87 2.031 . S
Zn84 O89 2.049 . S
Zn84 O94 2.067 . S
Zn85 O86 1.962 . S
Zn85 O88 1.986 . S
Zn85 O90 1.996 . S
Zn85 O93 1.943 . S
O86 Zn85 1.962 . S
O86 C91 1.254 . S
O87 Zn84 2.031 . S
O87 C91 1.269 . S
O88 Zn85 1.986 . S
O88 C95 1.262 . S
O89 Zn84 2.049 . S
O89 C97 1.260 . S
O90 Zn85 1.996 . S
O90 C97 1.257 . S
C91 O86 1.254 . S
C91 O87 1.269 . S
C92 O93 1.249 . S
C92 O94 1.270 . S
O93 Zn85 1.943 . S
O93 C92 1.249 . S
O94 Zn84 2.067 . S
O94 C92 1.270 . S
C95 O88 1.262 . S
C95 O96 1.232 . S
O96 C95 1.232 . S
C97 O89 1.260 . S
C97 O90 1.257 . S
Zn98 O101 2.031 . S
Zn98 O103 2.049 . S
Zn98 O108 2.067 . S
Zn99 O100 1.962 . S
Zn99 O102 1.986 . S
Zn99 O104 1.996 . S
Zn99 O107 1.943 . S
O100 Zn99 1.962 . S
O100 C105 1.254 . S
O101 Zn98 2.031 . S
O101 C105 1.269 . S
O102 Zn99 1.986 . S
O102 C109 1.262 . S
O103 Zn98 2.049 . S
O103 C111 1.260 . S
O104 Zn99 1.996 . S
O104 C111 1.257 . S
C105 O100 1.254 . S
C105 O101 1.269 . S
C106 O107 1.249 . S
C106 O108 1.270 . S
O107 Zn99 1.943 . S
O107 C106 1.249 . S
O108 Zn98 2.067 . S
O108 C106 1.270 . S
C109 O102 1.262 . S
C109 O110 1.232 . S
O110 C109 1.232 . S
C111 O103 1.260 . S
C111 O104 1.257 . S
Zn112 O115 2.031 . S
Zn112 O117 2.049 . S
Zn112 O122 2.067 . S
Zn113 O114 1.962 . S
Zn113 O116 1.986 . S
Zn113 O118 1.996 . S
Zn113 O121 1.943 . S
O114 Zn113 1.962 . S
O114 C119 1.254 . S
O115 Zn112 2.031 . S
O115 C119 1.269 . S
O116 Zn113 1.986 . S
O116 C123 1.262 . S
O117 Zn112 2.049 . S
O117 C125 1.260 . S
O118 Zn113 1.996 . S
O118 C125 1.257 . S
C119 O114 1.254 . S
C119 O115 1.269 . S
C120 O121 1.249 . S
C120 O122 1.270 . S
O121 Zn113 1.943 . S
O121 C120 1.249 . S
O122 Zn112 2.067 . S
O122 C120 1.270 . S
C123 O116 1.262 . S
C123 O124 1.232 . S
O124 C123 1.232 . S
C125 O117 1.260 . S
C125 O118 1.257 . S
Zn126 O129 2.031 . S
Zn126 O131 2.049 . S
Zn126 O136 2.067 . S
Zn127 O128 1.962 . S
Zn127 O130 1.986 . S
Zn127 O132 1.996 . S
Zn127 O135 1.943 . S
O128 Zn127 1.962 . S
O128 C133 1.254 . S
O129 Zn126 2.031 . S
O129 C133 1.269 . S
O130 Zn127 1.986 . S
O130 C137 1.262 . S
O131 Zn126 2.049 . S
O131 C139 1.260 . S
O132 Zn127 1.996 . S
O132 C139 1.257 . S
C133 O128 1.254 . S
C133 O129 1.269 . S
C134 O135 1.249 . S
C134 O136 1.270 . S
O135 Zn127 1.943 . S
O135 C134 1.249 . S
O136 Zn126 2.067 . S
O136 C134 1.270 . S
C137 O130 1.262 . S
C137 O138 1.232 . S
O138 C137 1.232 . S
C139 O131 1.260 . S
C139 O132 1.257 . S
Zn140 O143 2.031 . S
Zn140 O145 2.049 . S
Zn140 O150 2.067 . S
Zn141 O142 1.962 . S
Zn141 O144 1.986 . S
Zn141 O146 1.996 . S
Zn141 O149 1.943 . S
O142 Zn141 1.962 . S
O142 C147 1.254 . S
O143 Zn140 2.031 . S
O143 C147 1.269 . S
O144 Zn141 1.986 . S
O144 C151 1.262 . S
O145 Zn140 2.049 . S
O145 C153 1.260 . S
O146 Zn141 1.996 . S
O146 C153 1.257 . S
C147 O142 1.254 . S
C147 O143 1.269 . S
C148 O149 1.249 . S
C148 O150 1.270 . S
O149 Zn141 1.943 . S
O149 C148 1.249 . S
O150 Zn140 2.067 . S
O150 C148 1.270 . S
C151 O144 1.262 . S
C151 O152 1.232 . S
O152 C151 1.232 . S
C153 O145 1.260 . S
C153 O146 1.257 . S
Zn154 O157 2.031 . S
Zn154 O159 2.049 . S
Zn154 O164 2.067 . S
Zn155 O156 1.962 . S
Zn155 O158 1.986 . S
Zn155 O160 1.996 . S
Zn155 O163 1.943 . S
O156 Zn155 1.962 . S
O156 C161 1.254 . S
O157 Zn154 2.031 . S
O157 C161 1.269 . S
O158 Zn155 1.986 . S
O158 C165 1.262 . S
O159 Zn154 2.049 . S
O159 C167 1.260 . S
O160 Zn155 1.996 . S
O160 C167 1.257 . S
C161 O156 1.254 . S
C161 O157 1.269 . S
C162 O163 1.249 . S
C162 O164 1.270 . S
O163 Zn155 1.943 . S
O163 C162 1.249 . S
O164 Zn154 2.067 . S
O164 C162 1.270 . S
C165 O158 1.262 . S
C165 O166 1.232 . S
O166 C165 1.232 . S
C167 O159 1.260 . S
C167 O160 1.257 . S
Zn168 O171 2.031 . S
Zn168 O173 2.049 . S
Zn168 O178 2.067 . S
Zn169 O170 1.962 . S
Zn169 O172 1.986 . S
Zn169 O174 1.996 . S
Zn169 O177 1.943 . S
O170 Zn169 1.962 . S
O170 C175 1.254 . S
O171 Zn168 2.031 . S
O171 C175 1.269 . S
O172 Zn169 1.986 . S
O172 C179 1.262 . S
O173 Zn168 2.049 . S
O173 C181 1.260 . S
O174 Zn169 1.996 . S
O174 C181 1.257 . S
C175 O170 1.254 . S
C175 O171 1.269 . S
C176 O177 1.249 . S
C176 O178 1.270 . S
O177 Zn169 1.943 . S
O177 C176 1.249 . S
O178 Zn168 2.067 . S
O178 C176 1.270 . S
C179 O172 1.262 . S
C179 O180 1.232 . S
O180 C179 1.232 . S
C181 O173 1.260 . S
C181 O174 1.257 . S
Zn182 O185 2.031 . S
Zn182 O187 2.049 . S
Zn182 O192 2.067 . S
Zn183 O184 1.962 . S
Zn183 O186 1.986 . S
Zn183 O188 1.996 . S
Zn183 O191 1.943 . S
O184 Zn183 1.962 . S
O184 C189 1.254 . S
O185 Zn182 2.031 . S
O185 C189 1.269 . S
O186 Zn183 1.986 . S
O186 C193 1.262 . S
O187 Zn182 2.049 . S
O187 C195 1.260 . S
O188 Zn183 1.996 . S
O188 C195 1.257 . S
C189 O184 1.254 . S
C189 O185 1.269 . S
C190 O191 1.249 . S
C190 O192 1.270 . S
O191 Zn183 1.943 . S
O191 C190 1.249 . S
O192 Zn182 2.067 . S
O192 C190 1.270 . S
C193 O186 1.262 . S
C193 O194 1.232 . S
O194 C193 1.232 . S
C195 O187 1.260 . S
C195 O188 1.257 . S
Zn196 O199 2.031 . S
Zn196 O201 2.049 . S
Zn196 O206 2.067 . S
Zn197 O198 1.962 . S
Zn197 O200 1.986 . S
Zn197 O202 1.996 . S
Zn197 O205 1.943 . S
O198 Zn197 1.962 . S
O198 C203 1.254 . S
O199 Zn196 2.031 . S
O199 C203 1.269 . S
O200 Zn197 1.986 . S
O200 C207 1.262 . S
O201 Zn196 2.049 . S
O201 C209 1.260 . S
O202 Zn197 1.996 . S
O202 C209 1.257 . S
C203 O198 1.254 . S
C203 O199 1.269 . S
C204 O205 1.249 . S
C204 O206 1.270 . S
O205 Zn197 1.943 . S
O205 C204 1.249 . S
O206 Zn196 2.067 . S
O206 C204 1.270 . S
C207 O200 1.262 . S
C207 O208 1.232 . S
O208 C207 1.232 . S
C209 O201 1.260 . S
C209 O202 1.257 . S
Zn210 O213 2.031 . S
Zn210 O215 2.049 . S
Zn210 O220 2.067 . S
Zn211 O212 1.962 . S
Zn211 O214 1.986 . S
Zn211 O216 1.996 . S
Zn211 O219 1.943 . S
O212 Zn211 1.962 . S
O212 C217 1.254 . S
O213 Zn210 2.031 . S
O213 C217 1.269 . S
O214 Zn211 1.986 . S
O214 C221 1.262 . S
O215 Zn210 2.049 . S
O215 C223 1.260 . S
O216 Zn211 1.996 . S
O216 C223 1.257 . S
C217 O212 1.254 . S
C217 O213 1.269 . S
C218 O219 1.249 . S
C218 O220 1.270 . S
O219 Zn211 1.943 . S
O219 C218 1.249 . S
O220 Zn210 2.067 . S
O220 C218 1.270 . S
C221 O214 1.262 . S
C221 O222 1.232 . S
O222 C221 1.232 . S
C223 O215 1.260 . S
C223 O216 1.257 . S
Zn224 O227 2.031 . S
Zn224 O229 2.049 . S
Zn224 O234 2.067 . S
Zn225 O226 1.962 . S
Zn225 O228 1.986 . S
Zn225 O230 1.996 . S
Zn225 O233 1.943 . S
O226 Zn225 1.962 . S
O226 C231 1.254 . S
O227 Zn224 2.031 . S
O227 C231 1.269 . S
O228 Zn225 1.986 . S
O228 C235 1.262 . S
O229 Zn224 2.049 . S
O229 C237 1.260 . S
O230 Zn225 1.996 . S
O230 C237 1.257 . S
C231 O226 1.254 . S
C231 O227 1.269 . S
C232 O233 1.249 . S
C232 O234 1.270 . S
O233 Zn225 1.943 . S
O233 C232 1.249 . S
O234 Zn224 2.067 . S
O234 C232 1.270 . S
C235 O228 1.262 . S
C235 O236 1.232 . S
O236 C235 1.232 . S
C237 O229 1.260 . S
C237 O230 1.257 . S
Zn238 O241 2.031 . S
Zn238 O243 2.049 . S
Zn238 O248 2.067 . S
Zn239 O240 1.962 . S
Zn239 O242 1.986 . S
Zn239 O244 1.996 . S
Zn239 O247 1.943 . S
O240 Zn239 1.962 . S
O240 C245 1.254 . S
O241 Zn238 2.031 . S
O241 C245 1.269 . S
O242 Zn239 1.986 . S
O242 C249 1.262 . S
O243 Zn238 2.049 . S
O243 C251 1.260 . S
O244 Zn239 1.996 . S
O244 C251 1.257 . S
C245 O240 1.254 . S
C245 O241 1.269 . S
C246 O247 1.249 . S
C246 O248 1.270 . S
O247 Zn239 1.943 . S
O247 C246 1.249 . S
O248 Zn238 2.067 . S
O248 C246 1.270 . S
C249 O242 1.262 . S
C249 O250 1.232 . S
O250 C249 1.232 . S
C251 O243 1.260 . S
C251 O244 1.257 . S
Zn252 O255 2.031 . S
Zn252 O257 2.049 . S
Zn252 O262 2.067 . S
Zn253 O254 1.962 . S
Zn253 O256 1.986 . S
Zn253 O258 1.996 . S
Zn253 O261 1.943 . S
O254 Zn253 1.962 . S
O254 C259 1.254 . S
O255 Zn252 2.031 . S
O255 C259 1.269 . S
O256 Zn253 1.986 . S
O256 C263 1.262 . S
O257 Zn252 2.049 . S
O257 C265 1.260 . S
O258 Zn253 1.996 . S
O258 C265 1.257 . S
C259 O254 1.254 . S
C259 O255 1.269 . S
C260 O261 1.249 . S
C260 O262 1.270 . S
O261 Zn253 1.943 . S
O261 C260 1.249 . S
O262 Zn252 2.067 . S
O262 C260 1.270 . S
C263 O256 1.262 . S
C263 O264 1.232 . S
O264 C263 1.232 . S
C265 O257 1.260 . S
C265 O258 1.257 . S
Zn266 O269 2.031 . S
Zn266 O271 2.049 . S
Zn266 O276 2.067 . S
Zn267 O268 1.962 . S
Zn267 O270 1.986 . S
Zn267 O272 1.996 . S
Zn267 O275 1.943 . S
O268 Zn267 1.962 . S
O268 C273 1.254 . S
O269 Zn266 2.031 . S
O269 C273 1.269 . S
O270 Zn267 1.986 . S
O270 C277 1.262 . S
O271 Zn266 2.049 . S
O271 C279 1.260 . S
O272 Zn267 1.996 . S
O272 C279 1.257 . S
C273 O268 1.254 . S
C273 O269 1.269 . S
C274 O275 1.249 . S
C274 O276 1.270 . S
O275 Zn267 1.943 . S
O275 C274 1.249 . S
O276 Zn266 2.067 . S
O276 C274 1.270 . S
C277 O270 1.262 . S
C277 O278 1.232 . S
O278 C277 1.232 . S
C279 O271 1.260 . S
C279 O272 1.257 . S
Zn280 O283 2.031 . S
Zn280 O285 2.049 . S
Zn280 O290 2.067 . S
Zn281 O282 1.962 . S
Zn281 O284 1.986 . S
Zn281 O286 1.996 . S
Zn281 O289 1.943 . S
O282 Zn281 1.962 . S
O282 C287 1.254 . S
O283 Zn280 2.031 . S
O283 C287 1.269 . S
O284 Zn281 1.986 . S
O284 C291 1.262 . S
O285 Zn280 2.049 . S
O285 C293 1.260 . S
O286 Zn281 1.996 . S
O286 C293 1.257 . S
C287 O282 1.254 . S
C287 O283 1.269 . S
C288 O289 1.249 . S
C288 O290 1.270 . S
O289 Zn281 1.943 . S
O289 C288 1.249 . S
O290 Zn280 2.067 . S
O290 C288 1.270 . S
C291 O284 1.262 . S
C291 O292 1.232 . S
O292 C291 1.232 . S
C293 O285 1.260 . S
C293 O286 1.257 . S
Zn294 O297 2.031 . S
Zn294 O299 2.049 . S
Zn294 O304 2.067 . S
Zn295 O296 1.962 . S
Zn295 O298 1.986 . S
Zn295 O300 1.996 . S
Zn295 O303 1.943 . S
O296 Zn295 1.962 . S
O296 C301 1.254 . S
O297 Zn294 2.031 . S
O297 C301 1.269 . S
O298 Zn295 1.986 . S
O298 C305 1.262 . S
O299 Zn294 2.049 . S
O299 C307 1.260 . S
O300 Zn295 1.996 . S
O300 C307 1.257 . S
C301 O296 1.254 . S
C301 O297 1.269 . S
C302 O303 1.249 . S
C302 O304 1.270 . S
O303 Zn295 1.943 . S
O303 C302 1.249 . S
O304 Zn294 2.067 . S
O304 C302 1.270 . S
C305 O298 1.262 . S
C305 O306 1.232 . S
O306 C305 1.232 . S
C307 O299 1.260 . S
C307 O300 1.257 . S
Zn308 O311 2.031 . S
Zn308 O313 2.049 . S
Zn308 O318 2.067 . S
Zn309 O310 1.962 . S
Zn309 O312 1.986 . S
Zn309 O314 1.996 . S
Zn309 O317 1.943 . S
O310 Zn309 1.962 . S
O310 C315 1.254 . S
O311 Zn308 2.031 . S
O311 C315 1.269 . S
O312 Zn309 1.986 . S
O312 C319 1.262 . S
O313 Zn308 2.049 . S
O313 C321 1.260 . S
O314 Zn309 1.996 . S
O314 C321 1.257 . S
C315 O310 1.254 . S
C315 O311 1.269 . S
C316 O317 1.249 . S
C316 O318 1.270 . S
O317 Zn309 1.943 . S
O317 C316 1.249 . S
O318 Zn308 2.067 . S
O318 C316 1.270 . S
C319 O312 1.262 . S
C319 O320 1.232 . S
O320 C319 1.232 . S
C321 O313 1.260 . S
C321 O314 1.257 . S
Zn322 O325 2.031 . S
Zn322 O327 2.049 . S
Zn322 O332 2.067 . S
Zn323 O324 1.962 . S
Zn323 O326 1.986 . S
Zn323 O328 1.996 . S
Zn323 O331 1.943 . S
O324 Zn323 1.962 . S
O324 C329 1.254 . S
O325 Zn322 2.031 . S
O325 C329 1.269 . S
O326 Zn323 1.986 . S
O326 C333 1.262 . S
O327 Zn322 2.049 . S
O327 C335 1.260 . S
O328 Zn323 1.996 . S
O328 C335 1.257 . S
C329 O324 1.254 . S
C329 O325 1.269 . S
C330 O331 1.249 . S
C330 O332 1.270 . S
O331 Zn323 1.943 . S
O331 C330 1.249 . S
O332 Zn322 2.067 . S
O332 C330 1.270 . S
C333 O326 1.262 . S
C333 O334 1.232 . S
O334 C333 1.232 . S
C335 O327 1.260 . S
C335 O328 1.257 . S
H336 C344 0.929 . S
H337 C346 0.930 . S
H338 C348 0.930 . S
H339 C351 0.929 . S
H340 C354 0.930 . S
H341 C356 0.960 . S
H342 C356 0.960 . S
H343 C356 0.960 . S
C344 H336 0.929 . S
C344 C345 1.377 . S
C344 C346 1.384 . S
C345 C344 1.377 . S
C345 C351 1.390 . S
C346 H337 0.930 . S
C346 C344 1.384 . S
C346 C347 1.372 . S
C347 C346 1.372 . S
C347 C348 1.400 . S
C347 C352 1.490 . S
C348 H338 0.930 . S
C348 C347 1.400 . S
C348 C351 1.386 . S
H349 C365 0.930 . S
H350 C366 0.931 . S
C351 H339 0.929 . S
C351 C345 1.390 . S
C351 C348 1.386 . S
C352 C347 1.490 . S
C352 C354 1.395 . S
C352 C355 1.403 . S
H353 C359 0.930 . S
C354 H340 0.930 . S
C354 C352 1.395 . S
C354 C357 1.403 . S
C355 C352 1.403 . S
C355 C356 1.524 . S
C355 C359 1.400 . S
C356 H341 0.960 . S
C356 H342 0.960 . S
C356 H343 0.960 . S
C356 C355 1.524 . S
C357 C354 1.403 . S
C357 C358 1.392 . S
C357 C361 1.495 . S
C358 C357 1.392 . S
C358 C359 1.385 . S
C358 C360 1.478 . S
C359 H353 0.930 . S
C359 C355 1.400 . S
C359 C358 1.385 . S
C360 C358 1.478 . S
C360 C362 1.381 . S
C360 C366 1.383 . S
C361 C357 1.495 . S
C361 H367 0.959 . S
C361 H368 0.961 . S
C361 H369 0.960 . S
C362 C360 1.381 . S
C362 C363 1.394 . S
C362 H370 0.930 . S
C363 C362 1.394 . S
C363 C364 1.383 . S
C363 H371 0.929 . S
C364 C363 1.383 . S
C364 C365 1.377 . S
C365 H349 0.930 . S
C365 C364 1.377 . S
C365 C366 1.379 . S
C366 H350 0.931 . S
C366 C360 1.383 . S
C366 C365 1.379 . S
H367 C361 0.959 . S
H368 C361 0.961 . S
H369 C361 0.960 . S
H370 C362 0.930 . S
H371 C363 0.929 . S
H372 C380 0.929 . S
H373 C382 0.930 . S
H374 C384 0.930 . S
H375 C387 0.929 . S
H376 C390 0.930 . S
H377 C392 0.960 . S
H378 C392 0.960 . S
H379 C392 0.960 . S
C380 H372 0.929 . S
C380 C381 1.377 . S
C380 C382 1.384 . S
C381 C380 1.377 . S
C381 C387 1.390 . S
C382 H373 0.930 . S
C382 C380 1.384 . S
C382 C383 1.372 . S
C383 C382 1.372 . S
C383 C384 1.400 . S
C383 C388 1.490 . S
C384 H374 0.930 . S
C384 C383 1.400 . S
C384 C387 1.386 . S
H385 C401 0.930 . S
H386 C402 0.931 . S
C387 H375 0.929 . S
C387 C381 1.390 . S
C387 C384 1.386 . S
C388 C383 1.490 . S
C388 C390 1.395 . S
C388 C391 1.403 . S
H389 C395 0.930 . S
C390 H376 0.930 . S
C390 C388 1.395 . S
C390 C393 1.403 . S
C391 C388 1.403 . S
C391 C392 1.524 . S
C391 C395 1.400 . S
C392 H377 0.960 . S
C392 H378 0.960 . S
C392 H379 0.960 . S
C392 C391 1.524 . S
C393 C390 1.403 . S
C393 C394 1.392 . S
C393 C397 1.495 . S
C394 C393 1.392 . S
C394 C395 1.385 . S
C394 C396 1.478 . S
C395 H389 0.930 . S
C395 C391 1.400 . S
C395 C394 1.385 . S
C396 C394 1.478 . S
C396 C398 1.381 . S
C396 C402 1.383 . S
C397 C393 1.495 . S
C397 H403 0.959 . S
C397 H404 0.961 . S
C397 H405 0.960 . S
C398 C396 1.381 . S
C398 C399 1.394 . S
C398 H406 0.930 . S
C399 C398 1.394 . S
C399 C400 1.383 . S
C399 H407 0.929 . S
C400 C399 1.383 . S
C400 C401 1.377 . S
C401 H385 0.930 . S
C401 C400 1.377 . S
C401 C402 1.379 . S
C402 H386 0.931 . S
C402 C396 1.383 . S
C402 C401 1.379 . S
H403 C397 0.959 . S
H404 C397 0.961 . S
H405 C397 0.960 . S
H406 C398 0.930 . S
H407 C399 0.929 . S
H408 C416 0.929 . S
H409 C418 0.930 . S
H410 C420 0.930 . S
H411 C423 0.929 . S
H412 C426 0.930 . S
H413 C428 0.960 . S
H414 C428 0.960 . S
H415 C428 0.960 . S
C416 H408 0.929 . S
C416 C417 1.377 . S
C416 C418 1.384 . S
C417 C416 1.377 . S
C417 C423 1.390 . S
C418 H409 0.930 . S
C418 C416 1.384 . S
C418 C419 1.372 . S
C419 C418 1.372 . S
C419 C420 1.400 . S
C419 C424 1.490 . S
C420 H410 0.930 . S
C420 C419 1.400 . S
C420 C423 1.386 . S
H421 C437 0.930 . S
H422 C438 0.931 . S
C423 H411 0.929 . S
C423 C417 1.390 . S
C423 C420 1.386 . S
C424 C419 1.490 . S
C424 C426 1.395 . S
C424 C427 1.403 . S
H425 C431 0.930 . S
C426 H412 0.930 . S
C426 C424 1.395 . S
C426 C429 1.403 . S
C427 C424 1.403 . S
C427 C428 1.524 . S
C427 C431 1.400 . S
C428 H413 0.960 . S
C428 H414 0.960 . S
C428 H415 0.960 . S
C428 C427 1.524 . S
C429 C426 1.403 . S
C429 C430 1.392 . S
C429 C433 1.495 . S
C430 C429 1.392 . S
C430 C431 1.385 . S
C430 C432 1.478 . S
C431 H425 0.930 . S
C431 C427 1.400 . S
C431 C430 1.385 . S
C432 C430 1.478 . S
C432 C434 1.381 . S
C432 C438 1.383 . S
C433 C429 1.495 . S
C433 H439 0.959 . S
C433 H440 0.961 . S
C433 H441 0.960 . S
C434 C432 1.381 . S
C434 C435 1.394 . S
C434 H442 0.930 . S
C435 C434 1.394 . S
C435 C436 1.383 . S
C435 H443 0.929 . S
C436 C435 1.383 . S
C436 C437 1.377 . S
C437 H421 0.930 . S
C437 C436 1.377 . S
C437 C438 1.379 . S
C438 H422 0.931 . S
C438 C432 1.383 . S
C438 C437 1.379 . S
H439 C433 0.959 . S
H440 C433 0.961 . S
H441 C433 0.960 . S
H442 C434 0.930 . S
H443 C435 0.929 . S
H444 C452 0.929 . S
H445 C454 0.930 . S
H446 C456 0.930 . S
H447 C459 0.929 . S
H448 C462 0.930 . S
H449 C464 0.960 . S
H450 C464 0.960 . S
H451 C464 0.960 . S
C452 H444 0.929 . S
C452 C453 1.377 . S
C452 C454 1.384 . S
C453 C452 1.377 . S
C453 C459 1.390 . S
C454 H445 0.930 . S
C454 C452 1.384 . S
C454 C455 1.372 . S
C455 C454 1.372 . S
C455 C456 1.400 . S
C455 C460 1.490 . S
C456 H446 0.930 . S
C456 C455 1.400 . S
C456 C459 1.386 . S
H457 C473 0.930 . S
H458 C474 0.931 . S
C459 H447 0.929 . S
C459 C453 1.390 . S
C459 C456 1.386 . S
C460 C455 1.490 . S
C460 C462 1.395 . S
C460 C463 1.403 . S
H461 C467 0.930 . S
C462 H448 0.930 . S
C462 C460 1.395 . S
C462 C465 1.403 . S
C463 C460 1.403 . S
C463 C464 1.524 . S
C463 C467 1.400 . S
C464 H449 0.960 . S
C464 H450 0.960 . S
C464 H451 0.960 . S
C464 C463 1.524 . S
C465 C462 1.403 . S
C465 C466 1.392 . S
C465 C469 1.495 . S
C466 C465 1.392 . S
C466 C467 1.385 . S
C466 C468 1.478 . S
C467 H461 0.930 . S
C467 C463 1.400 . S
C467 C466 1.385 . S
C468 C466 1.478 . S
C468 C470 1.381 . S
C468 C474 1.383 . S
C469 C465 1.495 . S
C469 H475 0.959 . S
C469 H476 0.961 . S
C469 H477 0.960 . S
C470 C468 1.381 . S
C470 C471 1.394 . S
C470 H478 0.930 . S
C471 C470 1.394 . S
C471 C472 1.383 . S
C471 H479 0.929 . S
C472 C471 1.383 . S
C472 C473 1.377 . S
C473 H457 0.930 . S
C473 C472 1.377 . S
C473 C474 1.379 . S
C474 H458 0.931 . S
C474 C468 1.383 . S
C474 C473 1.379 . S
H475 C469 0.959 . S
H476 C469 0.961 . S
H477 C469 0.960 . S
H478 C470 0.930 . S
H479 C471 0.929 . S
H480 C488 0.929 . S
H481 C490 0.930 . S
H482 C492 0.930 . S
H483 C495 0.929 . S
H484 C498 0.930 . S
H485 C500 0.960 . S
H486 C500 0.960 . S
H487 C500 0.960 . S
C488 H480 0.929 . S
C488 C489 1.377 . S
C488 C490 1.384 . S
C489 C488 1.377 . S
C489 C495 1.390 . S
C490 H481 0.930 . S
C490 C488 1.384 . S
C490 C491 1.372 . S
C491 C490 1.372 . S
C491 C492 1.400 . S
C491 C496 1.490 . S
C492 H482 0.930 . S
C492 C491 1.400 . S
C492 C495 1.386 . S
H493 C509 0.930 . S
H494 C510 0.931 . S
C495 H483 0.929 . S
C495 C489 1.390 . S
C495 C492 1.386 . S
C496 C491 1.490 . S
C496 C498 1.395 . S
C496 C499 1.403 . S
H497 C503 0.930 . S
C498 H484 0.930 . S
C498 C496 1.395 . S
C498 C501 1.403 . S
C499 C496 1.403 . S
C499 C500 1.524 . S
C499 C503 1.400 . S
C500 H485 0.960 . S
C500 H486 0.960 . S
C500 H487 0.960 . S
C500 C499 1.524 . S
C501 C498 1.403 . S
C501 C502 1.392 . S
C501 C505 1.495 . S
C502 C501 1.392 . S
C502 C503 1.385 . S
C502 C504 1.478 . S
C503 H497 0.930 . S
C503 C499 1.400 . S
C503 C502 1.385 . S
C504 C502 1.478 . S
C504 C506 1.381 . S
C504 C510 1.383 . S
C505 C501 1.495 . S
C505 H511 0.959 . S
C505 H512 0.961 . S
C505 H513 0.960 . S
C506 C504 1.381 . S
C506 C507 1.394 . S
C506 H514 0.930 . S
C507 C506 1.394 . S
C507 C508 1.383 . S
C507 H515 0.929 . S
C508 C507 1.383 . S
C508 C509 1.377 . S
C509 H493 0.930 . S
C509 C508 1.377 . S
C509 C510 1.379 . S
C510 H494 0.931 . S
C510 C504 1.383 . S
C510 C509 1.379 . S
H511 C505 0.959 . S
H512 C505 0.961 . S
H513 C505 0.960 . S
H514 C506 0.930 . S
H515 C507 0.929 . S
H516 C524 0.929 . S
H517 C526 0.930 . S
H518 C528 0.930 . S
H519 C531 0.929 . S
H520 C534 0.930 . S
H521 C536 0.960 . S
H522 C536 0.960 . S
H523 C536 0.960 . S
C524 H516 0.929 . S
C524 C525 1.377 . S
C524 C526 1.384 . S
C525 C524 1.377 . S
C525 C531 1.390 . S
C526 H517 0.930 . S
C526 C524 1.384 . S
C526 C527 1.372 . S
C527 C526 1.372 . S
C527 C528 1.400 . S
C527 C532 1.490 . S
C528 H518 0.930 . S
C528 C527 1.400 . S
C528 C531 1.386 . S
H529 C545 0.930 . S
H530 C546 0.931 . S
C531 H519 0.929 . S
C531 C525 1.390 . S
C531 C528 1.386 . S
C532 C527 1.490 . S
C532 C534 1.395 . S
C532 C535 1.403 . S
H533 C539 0.930 . S
C534 H520 0.930 . S
C534 C532 1.395 . S
C534 C537 1.403 . S
C535 C532 1.403 . S
C535 C536 1.524 . S
C535 C539 1.400 . S
C536 H521 0.960 . S
C536 H522 0.960 . S
C536 H523 0.960 . S
C536 C535 1.524 . S
C537 C534 1.403 . S
C537 C538 1.392 . S
C537 C541 1.495 . S
C538 C537 1.392 . S
C538 C539 1.385 . S
C538 C540 1.478 . S
C539 H533 0.930 . S
C539 C535 1.400 . S
C539 C538 1.385 . S
C540 C538 1.478 . S
C540 C542 1.381 . S
C540 C546 1.383 . S
C541 C537 1.495 . S
C541 H547 0.959 . S
C541 H548 0.961 . S
C541 H549 0.960 . S
C542 C540 1.381 . S
C542 C543 1.394 . S
C542 H550 0.930 . S
C543 C542 1.394 . S
C543 C544 1.383 . S
C543 H551 0.929 . S
C544 C543 1.383 . S
C544 C545 1.377 . S
C545 H529 0.930 . S
C545 C544 1.377 . S
C545 C546 1.379 . S
C546 H530 0.931 . S
C546 C540 1.383 . S
C546 C545 1.379 . S
H547 C541 0.959 . S
H548 C541 0.961 . S
H549 C541 0.960 . S
H550 C542 0.930 . S
H551 C543 0.929 . S
H552 C560 0.929 . S
H553 C562 0.930 . S
H554 C564 0.930 . S
H555 C567 0.929 . S
H556 C570 0.930 . S
H557 C572 0.960 . S
H558 C572 0.960 . S
H559 C572 0.960 . S
C560 H552 0.929 . S
C560 C561 1.377 . S
C560 C562 1.384 . S
C561 C560 1.377 . S
C561 C567 1.390 . S
C562 H553 0.930 . S
C562 C560 1.384 . S
C562 C563 1.372 . S
C563 C562 1.372 . S
C563 C564 1.400 . S
C563 C568 1.490 . S
C564 H554 0.930 . S
C564 C563 1.400 . S
C564 C567 1.386 . S
H565 C581 0.930 . S
H566 C582 0.931 . S
C567 H555 0.929 . S
C567 C561 1.390 . S
C567 C564 1.386 . S
C568 C563 1.490 . S
C568 C570 1.395 . S
C568 C571 1.403 . S
H569 C575 0.930 . S
C570 H556 0.930 . S
C570 C568 1.395 . S
C570 C573 1.403 . S
C571 C568 1.403 . S
C571 C572 1.524 . S
C571 C575 1.400 . S
C572 H557 0.960 . S
C572 H558 0.960 . S
C572 H559 0.960 . S
C572 C571 1.524 . S
C573 C570 1.403 . S
C573 C574 1.392 . S
C573 C577 1.495 . S
C574 C573 1.392 . S
C574 C575 1.385 . S
C574 C576 1.478 . S
C575 H569 0.930 . S
C575 C571 1.400 . S
C575 C574 1.385 . S
C576 C574 1.478 . S
C576 C578 1.381 . S
C576 C582 1.383 . S
C577 C573 1.495 . S
C577 H583 0.959 . S
C577 H584 0.961 . S
C577 H585 0.960 . S
C578 C576 1.381 . S
C578 C579 1.394 . S
C578 H586 0.930 . S
C579 C578 1.394 . S
C579 C580 1.383 . S
C579 H587 0.929 . S
C580 C579 1.383 . S
C580 C581 1.377 . S
C581 H565 0.930 . S
C581 C580 1.377 . S
C581 C582 1.379 . S
C582 H566 0.931 . S
C582 C576 1.383 . S
C582 C581 1.379 . S
H583 C577 0.959 . S
H584 C577 0.961 . S
H585 C577 0.960 . S
H586 C578 0.930 . S
H587 C579 0.929 . S
H588 C596 0.929 . S
H589 C598 0.930 . S
H590 C600 0.930 . S
H591 C603 0.929 . S
H592 C606 0.930 . S
H593 C608 0.960 . S
H594 C608 0.960 . S
H595 C608 0.960 . S
C596 H588 0.929 . S
C596 C597 1.377 . S
C596 C598 1.384 . S
C597 C596 1.377 . S
C597 C603 1.390 . S
C598 H589 0.930 . S
C598 C596 1.384 . S
C598 C599 1.372 . S
C599 C598 1.372 . S
C599 C600 1.400 . S
C599 C604 1.490 . S
C600 H590 0.930 . S
C600 C599 1.400 . S
C600 C603 1.386 . S
H601 C617 0.930 . S
H602 C618 0.931 . S
C603 H591 0.929 . S
C603 C597 1.390 . S
C603 C600 1.386 . S
C604 C599 1.490 . S
C604 C606 1.395 . S
C604 C607 1.403 . S
H605 C611 0.930 . S
C606 H592 0.930 . S
C606 C604 1.395 . S
C606 C609 1.403 . S
C607 C604 1.403 . S
C607 C608 1.524 . S
C607 C611 1.400 . S
C608 H593 0.960 . S
C608 H594 0.960 . S
C608 H595 0.960 . S
C608 C607 1.524 . S
C609 C606 1.403 . S
C609 C610 1.392 . S
C609 C613 1.495 . S
C610 C609 1.392 . S
C610 C611 1.385 . S
C610 C612 1.478 . S
C611 H605 0.930 . S
C611 C607 1.400 . S
C611 C610 1.385 . S
C612 C610 1.478 . S
C612 C614 1.381 . S
C612 C618 1.383 . S
C613 C609 1.495 . S
C613 H619 0.959 . S
C613 H620 0.961 . S
C613 H621 0.960 . S
C614 C612 1.381 . S
C614 C615 1.394 . S
C614 H622 0.930 . S
C615 C614 1.394 . S
C615 C616 1.383 . S
C615 H623 0.929 . S
C616 C615 1.383 . S
C616 C617 1.377 . S
C617 H601 0.930 . S
C617 C616 1.377 . S
C617 C618 1.379 . S
C618 H602 0.931 . S
C618 C612 1.383 . S
C618 C617 1.379 . S
H619 C613 0.959 . S
H620 C613 0.961 . S
H621 C613 0.960 . S
H622 C614 0.930 . S
H623 C615 0.929 . S
H624 C632 0.929 . S
H625 C634 0.930 . S
H626 C636 0.930 . S
H627 C639 0.929 . S
H628 C642 0.930 . S
H629 C644 0.960 . S
H630 C644 0.960 . S
H631 C644 0.960 . S
C632 H624 0.929 . S
C632 C633 1.377 . S
C632 C634 1.384 . S
C633 C632 1.377 . S
C633 C639 1.390 . S
C634 H625 0.930 . S
C634 C632 1.384 . S
C634 C635 1.372 . S
C635 C634 1.372 . S
C635 C636 1.400 . S
C635 C640 1.490 . S
C636 H626 0.930 . S
C636 C635 1.400 . S
C636 C639 1.386 . S
H637 C653 0.930 . S
H638 C654 0.931 . S
C639 H627 0.929 . S
C639 C633 1.390 . S
C639 C636 1.386 . S
C640 C635 1.490 . S
C640 C642 1.395 . S
C640 C643 1.403 . S
H641 C647 0.930 . S
C642 H628 0.930 . S
C642 C640 1.395 . S
C642 C645 1.403 . S
C643 C640 1.403 . S
C643 C644 1.524 . S
C643 C647 1.400 . S
C644 H629 0.960 . S
C644 H630 0.960 . S
C644 H631 0.960 . S
C644 C643 1.524 . S
C645 C642 1.403 . S
C645 C646 1.392 . S
C645 C649 1.495 . S
C646 C645 1.392 . S
C646 C647 1.385 . S
C646 C648 1.478 . S
C647 H641 0.930 . S
C647 C643 1.400 . S
C647 C646 1.385 . S
C648 C646 1.478 . S
C648 C650 1.381 . S
C648 C654 1.383 . S
C649 C645 1.495 . S
C649 H655 0.959 . S
C649 H656 0.961 . S
C649 H657 0.960 . S
C650 C648 1.381 . S
C650 C651 1.394 . S
C650 H658 0.930 . S
C651 C650 1.394 . S
C651 C652 1.383 . S
C651 H659 0.929 . S
C652 C651 1.383 . S
C652 C653 1.377 . S
C653 H637 0.930 . S
C653 C652 1.377 . S
C653 C654 1.379 . S
C654 H638 0.931 . S
C654 C648 1.383 . S
C654 C653 1.379 . S
H655 C649 0.959 . S
H656 C649 0.961 . S
H657 C649 0.960 . S
H658 C650 0.930 . S
H659 C651 0.929 . S
H660 C668 0.929 . S
H661 C670 0.930 . S
H662 C672 0.930 . S
H663 C675 0.929 . S
H664 C678 0.930 . S
H665 C680 0.960 . S
H666 C680 0.960 . S
H667 C680 0.960 . S
C668 H660 0.929 . S
C668 C669 1.377 . S
C668 C670 1.384 . S
C669 C668 1.377 . S
C669 C675 1.390 . S
C670 H661 0.930 . S
C670 C668 1.384 . S
C670 C671 1.372 . S
C671 C670 1.372 . S
C671 C672 1.400 . S
C671 C676 1.490 . S
C672 H662 0.930 . S
C672 C671 1.400 . S
C672 C675 1.386 . S
H673 C689 0.930 . S
H674 C690 0.931 . S
C675 H663 0.929 . S
C675 C669 1.390 . S
C675 C672 1.386 . S
C676 C671 1.490 . S
C676 C678 1.395 . S
C676 C679 1.403 . S
H677 C683 0.930 . S
C678 H664 0.930 . S
C678 C676 1.395 . S
C678 C681 1.403 . S
C679 C676 1.403 . S
C679 C680 1.524 . S
C679 C683 1.400 . S
C680 H665 0.960 . S
C680 H666 0.960 . S
C680 H667 0.960 . S
C680 C679 1.524 . S
C681 C678 1.403 . S
C681 C682 1.392 . S
C681 C685 1.495 . S
C682 C681 1.392 . S
C682 C683 1.385 . S
C682 C684 1.478 . S
C683 H677 0.930 . S
C683 C679 1.400 . S
C683 C682 1.385 . S
C684 C682 1.478 . S
C684 C686 1.381 . S
C684 C690 1.383 . S
C685 C681 1.495 . S
C685 H691 0.959 . S
C685 H692 0.961 . S
C685 H693 0.960 . S
C686 C684 1.381 . S
C686 C687 1.394 . S
C686 H694 0.930 . S
C687 C686 1.394 . S
C687 C688 1.383 . S
C687 H695 0.929 . S
C688 C687 1.383 . S
C688 C689 1.377 . S
C689 H673 0.930 . S
C689 C688 1.377 . S
C689 C690 1.379 . S
C690 H674 0.931 . S
C690 C684 1.383 . S
C690 C689 1.379 . S
H691 C685 0.959 . S
H692 C685 0.961 . S
H693 C685 0.960 . S
H694 C686 0.930 . S
H695 C687 0.929 . S
H696 C704 0.929 . S
H697 C706 0.930 . S
H698 C708 0.930 . S
H699 C711 0.929 . S
H700 C714 0.930 . S
H701 C716 0.960 . S
H702 C716 0.960 . S
H703 C716 0.960 . S
C704 H696 0.929 . S
C704 C705 1.377 . S
C704 C706 1.384 . S
C705 C704 1.377 . S
C705 C711 1.390 . S
C706 H697 0.930 . S
C706 C704 1.384 . S
C706 C707 1.372 . S
C707 C706 1.372 . S
C707 C708 1.400 . S
C707 C712 1.490 . S
C708 H698 0.930 . S
C708 C707 1.400 . S
C708 C711 1.386 . S
H709 C725 0.930 . S
H710 C726 0.931 . S
C711 H699 0.929 . S
C711 C705 1.390 . S
C711 C708 1.386 . S
C712 C707 1.490 . S
C712 C714 1.395 . S
C712 C715 1.403 . S
H713 C719 0.930 . S
C714 H700 0.930 . S
C714 C712 1.395 . S
C714 C717 1.403 . S
C715 C712 1.403 . S
C715 C716 1.524 . S
C715 C719 1.400 . S
C716 H701 0.960 . S
C716 H702 0.960 . S
C716 H703 0.960 . S
C716 C715 1.524 . S
C717 C714 1.403 . S
C717 C718 1.392 . S
C717 C721 1.495 . S
C718 C717 1.392 . S
C718 C719 1.385 . S
C718 C720 1.478 . S
C719 H713 0.930 . S
C719 C715 1.400 . S
C719 C718 1.385 . S
C720 C718 1.478 . S
C720 C722 1.381 . S
C720 C726 1.383 . S
C721 C717 1.495 . S
C721 H727 0.959 . S
C721 H728 0.961 . S
C721 H729 0.960 . S
C722 C720 1.381 . S
C722 C723 1.394 . S
C722 H730 0.930 . S
C723 C722 1.394 . S
C723 C724 1.383 . S
C723 H731 0.929 . S
C724 C723 1.383 . S
C724 C725 1.377 . S
C725 H709 0.930 . S
C725 C724 1.377 . S
C725 C726 1.379 . S
C726 H710 0.931 . S
C726 C720 1.383 . S
C726 C725 1.379 . S
H727 C721 0.959 . S
H728 C721 0.961 . S
H729 C721 0.960 . S
H730 C722 0.930 . S
H731 C723 0.929 . S
H732 C740 0.929 . S
H733 C742 0.930 . S
H734 C744 0.930 . S
H735 C747 0.929 . S
H736 C750 0.930 . S
H737 C752 0.960 . S
H738 C752 0.960 . S
H739 C752 0.960 . S
C740 H732 0.929 . S
C740 C741 1.377 . S
C740 C742 1.384 . S
C741 C740 1.377 . S
C741 C747 1.390 . S
C742 H733 0.930 . S
C742 C740 1.384 . S
C742 C743 1.372 . S
C743 C742 1.372 . S
C743 C744 1.400 . S
C743 C748 1.490 . S
C744 H734 0.930 . S
C744 C743 1.400 . S
C744 C747 1.386 . S
H745 C761 0.930 . S
H746 C762 0.931 . S
C747 H735 0.929 . S
C747 C741 1.390 . S
C747 C744 1.386 . S
C748 C743 1.490 . S
C748 C750 1.395 . S
C748 C751 1.403 . S
H749 C755 0.930 . S
C750 H736 0.930 . S
C750 C748 1.395 . S
C750 C753 1.403 . S
C751 C748 1.403 . S
C751 C752 1.524 . S
C751 C755 1.400 . S
C752 H737 0.960 . S
C752 H738 0.960 . S
C752 H739 0.960 . S
C752 C751 1.524 . S
C753 C750 1.403 . S
C753 C754 1.392 . S
C753 C757 1.495 . S
C754 C753 1.392 . S
C754 C755 1.385 . S
C754 C756 1.478 . S
C755 H749 0.930 . S
C755 C751 1.400 . S
C755 C754 1.385 . S
C756 C754 1.478 . S
C756 C758 1.381 . S
C756 C762 1.383 . S
C757 C753 1.495 . S
C757 H763 0.959 . S
C757 H764 0.961 . S
C757 H765 0.960 . S
C758 C756 1.381 . S
C758 C759 1.394 . S
C758 H766 0.930 . S
C759 C758 1.394 . S
C759 C760 1.383 . S
C759 H767 0.929 . S
C760 C759 1.383 . S
C760 C761 1.377 . S
C761 H745 0.930 . S
C761 C760 1.377 . S
C761 C762 1.379 . S
C762 H746 0.931 . S
C762 C756 1.383 . S
C762 C761 1.379 . S
H763 C757 0.959 . S
H764 C757 0.961 . S
H765 C757 0.960 . S
H766 C758 0.930 . S
H767 C759 0.929 . S
H768 C776 0.929 . S
H769 C778 0.930 . S
H770 C780 0.930 . S
H771 C783 0.929 . S
H772 C786 0.930 . S
H773 C788 0.960 . S
H774 C788 0.960 . S
H775 C788 0.960 . S
C776 H768 0.929 . S
C776 C777 1.377 . S
C776 C778 1.384 . S
C777 C776 1.377 . S
C777 C783 1.390 . S
C778 H769 0.930 . S
C778 C776 1.384 . S
C778 C779 1.372 . S
C779 C778 1.372 . S
C779 C780 1.400 . S
C779 C784 1.490 . S
C780 H770 0.930 . S
C780 C779 1.400 . S
C780 C783 1.386 . S
H781 C797 0.930 . S
H782 C798 0.931 . S
C783 H771 0.929 . S
C783 C777 1.390 . S
C783 C780 1.386 . S
C784 C779 1.490 . S
C784 C786 1.395 . S
C784 C787 1.403 . S
H785 C791 0.930 . S
C786 H772 0.930 . S
C786 C784 1.395 . S
C786 C789 1.403 . S
C787 C784 1.403 . S
C787 C788 1.524 . S
C787 C791 1.400 . S
C788 H773 0.960 . S
C788 H774 0.960 . S
C788 H775 0.960 . S
C788 C787 1.524 . S
C789 C786 1.403 . S
C789 C790 1.392 . S
C789 C793 1.495 . S
C790 C789 1.392 . S
C790 C791 1.385 . S
C790 C792 1.478 . S
C791 H785 0.930 . S
C791 C787 1.400 . S
C791 C790 1.385 . S
C792 C790 1.478 . S
C792 C794 1.381 . S
C792 C798 1.383 . S
C793 C789 1.495 . S
C793 H799 0.959 . S
C793 H800 0.961 . S
C793 H801 0.960 . S
C794 C792 1.381 . S
C794 C795 1.394 . S
C794 H802 0.930 . S
C795 C794 1.394 . S
C795 C796 1.383 . S
C795 H803 0.929 . S
C796 C795 1.383 . S
C796 C797 1.377 . S
C797 H781 0.930 . S
C797 C796 1.377 . S
C797 C798 1.379 . S
C798 H782 0.931 . S
C798 C792 1.383 . S
C798 C797 1.379 . S
H799 C793 0.959 . S
H800 C793 0.961 . S
H801 C793 0.960 . S
H802 C794 0.930 . S
H803 C795 0.929 . S
H804 C812 0.929 . S
H805 C814 0.930 . S
H806 C816 0.930 . S
H807 C819 0.929 . S
H808 C822 0.930 . S
H809 C824 0.960 . S
H810 C824 0.960 . S
H811 C824 0.960 . S
C812 H804 0.929 . S
C812 C813 1.377 . S
C812 C814 1.384 . S
C813 C812 1.377 . S
C813 C819 1.390 . S
C814 H805 0.930 . S
C814 C812 1.384 . S
C814 C815 1.372 . S
C815 C814 1.372 . S
C815 C816 1.400 . S
C815 C820 1.490 . S
C816 H806 0.930 . S
C816 C815 1.400 . S
C816 C819 1.386 . S
H817 C833 0.930 . S
H818 C834 0.931 . S
C819 H807 0.929 . S
C819 C813 1.390 . S
C819 C816 1.386 . S
C820 C815 1.490 . S
C820 C822 1.395 . S
C820 C823 1.403 . S
H821 C827 0.930 . S
C822 H808 0.930 . S
C822 C820 1.395 . S
C822 C825 1.403 . S
C823 C820 1.403 . S
C823 C824 1.524 . S
C823 C827 1.400 . S
C824 H809 0.960 . S
C824 H810 0.960 . S
C824 H811 0.960 . S
C824 C823 1.524 . S
C825 C822 1.403 . S
C825 C826 1.392 . S
C825 C829 1.495 . S
C826 C825 1.392 . S
C826 C827 1.385 . S
C826 C828 1.478 . S
C827 H821 0.930 . S
C827 C823 1.400 . S
C827 C826 1.385 . S
C828 C826 1.478 . S
C828 C830 1.381 . S
C828 C834 1.383 . S
C829 C825 1.495 . S
C829 H835 0.959 . S
C829 H836 0.961 . S
C829 H837 0.960 . S
C830 C828 1.381 . S
C830 C831 1.394 . S
C830 H838 0.930 . S
C831 C830 1.394 . S
C831 C832 1.383 . S
C831 H839 0.929 . S
C832 C831 1.383 . S
C832 C833 1.377 . S
C833 H817 0.930 . S
C833 C832 1.377 . S
C833 C834 1.379 . S
C834 H818 0.931 . S
C834 C828 1.383 . S
C834 C833 1.379 . S
H835 C829 0.959 . S
H836 C829 0.961 . S
H837 C829 0.960 . S
H838 C830 0.930 . S
H839 C831 0.929 . S
H840 C848 0.929 . S
H841 C850 0.930 . S
H842 C852 0.930 . S
H843 C855 0.929 . S
H844 C858 0.930 . S
H845 C860 0.960 . S
H846 C860 0.960 . S
H847 C860 0.960 . S
C848 H840 0.929 . S
C848 C849 1.377 . S
C848 C850 1.384 . S
C849 C848 1.377 . S
C849 C855 1.390 . S
C850 H841 0.930 . S
C850 C848 1.384 . S
C850 C851 1.372 . S
C851 C850 1.372 . S
C851 C852 1.400 . S
C851 C856 1.490 . S
C852 H842 0.930 . S
C852 C851 1.400 . S
C852 C855 1.386 . S
H853 C869 0.930 . S
H854 C870 0.931 . S
C855 H843 0.929 . S
C855 C849 1.390 . S
C855 C852 1.386 . S
C856 C851 1.490 . S
C856 C858 1.395 . S
C856 C859 1.403 . S
H857 C863 0.930 . S
C858 H844 0.930 . S
C858 C856 1.395 . S
C858 C861 1.403 . S
C859 C856 1.403 . S
C859 C860 1.524 . S
C859 C863 1.400 . S
C860 H845 0.960 . S
C860 H846 0.960 . S
C860 H847 0.960 . S
C860 C859 1.524 . S
C861 C858 1.403 . S
C861 C862 1.392 . S
C861 C865 1.495 . S
C862 C861 1.392 . S
C862 C863 1.385 . S
C862 C864 1.478 . S
C863 H857 0.930 . S
C863 C859 1.400 . S
C863 C862 1.385 . S
C864 C862 1.478 . S
C864 C866 1.381 . S
C864 C870 1.383 . S
C865 C861 1.495 . S
C865 H871 0.959 . S
C865 H872 0.961 . S
C865 H873 0.960 . S
C866 C864 1.381 . S
C866 C867 1.394 . S
C866 H874 0.930 . S
C867 C866 1.394 . S
C867 C868 1.383 . S
C867 H875 0.929 . S
C868 C867 1.383 . S
C868 C869 1.377 . S
C869 H853 0.930 . S
C869 C868 1.377 . S
C869 C870 1.379 . S
C870 H854 0.931 . S
C870 C864 1.383 . S
C870 C869 1.379 . S
H871 C865 0.959 . S
H872 C865 0.961 . S
H873 C865 0.960 . S
H874 C866 0.930 . S
H875 C867 0.929 . S
H876 C884 0.929 . S
H877 C886 0.930 . S
H878 C888 0.930 . S
H879 C891 0.929 . S
H880 C894 0.930 . S
H881 C896 0.960 . S
H882 C896 0.960 . S
H883 C896 0.960 . S
C884 H876 0.929 . S
C884 C885 1.377 . S
C884 C886 1.384 . S
C885 C884 1.377 . S
C885 C891 1.390 . S
C886 H877 0.930 . S
C886 C884 1.384 . S
C886 C887 1.372 . S
C887 C886 1.372 . S
C887 C888 1.400 . S
C887 C892 1.490 . S
C888 H878 0.930 . S
C888 C887 1.400 . S
C888 C891 1.386 . S
H889 C905 0.930 . S
H890 C906 0.931 . S
C891 H879 0.929 . S
C891 C885 1.390 . S
C891 C888 1.386 . S
C892 C887 1.490 . S
C892 C894 1.395 . S
C892 C895 1.403 . S
H893 C899 0.930 . S
C894 H880 0.930 . S
C894 C892 1.395 . S
C894 C897 1.403 . S
C895 C892 1.403 . S
C895 C896 1.524 . S
C895 C899 1.400 . S
C896 H881 0.960 . S
C896 H882 0.960 . S
C896 H883 0.960 . S
C896 C895 1.524 . S
C897 C894 1.403 . S
C897 C898 1.392 . S
C897 C901 1.495 . S
C898 C897 1.392 . S
C898 C899 1.385 . S
C898 C900 1.478 . S
C899 H893 0.930 . S
C899 C895 1.400 . S
C899 C898 1.385 . S
C900 C898 1.478 . S
C900 C902 1.381 . S
C900 C906 1.383 . S
C901 C897 1.495 . S
C901 H907 0.959 . S
C901 H908 0.961 . S
C901 H909 0.960 . S
C902 C900 1.381 . S
C902 C903 1.394 . S
C902 H910 0.930 . S
C903 C902 1.394 . S
C903 C904 1.383 . S
C903 H911 0.929 . S
C904 C903 1.383 . S
C904 C905 1.377 . S
C905 H889 0.930 . S
C905 C904 1.377 . S
C905 C906 1.379 . S
C906 H890 0.931 . S
C906 C900 1.383 . S
C906 C905 1.379 . S
H907 C901 0.959 . S
H908 C901 0.961 . S
H909 C901 0.960 . S
H910 C902 0.930 . S
H911 C903 0.929 . S
H912 C920 0.929 . S
H913 C922 0.930 . S
H914 C924 0.930 . S
H915 C927 0.929 . S
H916 C930 0.930 . S
H917 C932 0.960 . S
H918 C932 0.960 . S
H919 C932 0.960 . S
C920 H912 0.929 . S
C920 C921 1.377 . S
C920 C922 1.384 . S
C921 C920 1.377 . S
C921 C927 1.390 . S
C922 H913 0.930 . S
C922 C920 1.384 . S
C922 C923 1.372 . S
C923 C922 1.372 . S
C923 C924 1.400 . S
C923 C928 1.490 . S
C924 H914 0.930 . S
C924 C923 1.400 . S
C924 C927 1.386 . S
H925 C941 0.930 . S
H926 C942 0.931 . S
C927 H915 0.929 . S
C927 C921 1.390 . S
C927 C924 1.386 . S
C928 C923 1.490 . S
C928 C930 1.395 . S
C928 C931 1.403 . S
H929 C935 0.930 . S
C930 H916 0.930 . S
C930 C928 1.395 . S
C930 C933 1.403 . S
C931 C928 1.403 . S
C931 C932 1.524 . S
C931 C935 1.400 . S
C932 H917 0.960 . S
C932 H918 0.960 . S
C932 H919 0.960 . S
C932 C931 1.524 . S
C933 C930 1.403 . S
C933 C934 1.392 . S
C933 C937 1.495 . S
C934 C933 1.392 . S
C934 C935 1.385 . S
C934 C936 1.478 . S
C935 H929 0.930 . S
C935 C931 1.400 . S
C935 C934 1.385 . S
C936 C934 1.478 . S
C936 C938 1.381 . S
C936 C942 1.383 . S
C937 C933 1.495 . S
C937 H943 0.959 . S
C937 H944 0.961 . S
C937 H945 0.960 . S
C938 C936 1.381 . S
C938 C939 1.394 . S
C938 H946 0.930 . S
C939 C938 1.394 . S
C939 C940 1.383 . S
C939 H947 0.929 . S
C940 C939 1.383 . S
C940 C941 1.377 . S
C941 H925 0.930 . S
C941 C940 1.377 . S
C941 C942 1.379 . S
C942 H926 0.931 . S
C942 C936 1.383 . S
C942 C941 1.379 . S
H943 C937 0.959 . S
H944 C937 0.961 . S
H945 C937 0.960 . S
H946 C938 0.930 . S
H947 C939 0.929 . S
H948 C956 0.929 . S
H949 C958 0.930 . S
H950 C960 0.930 . S
H951 C963 0.929 . S
H952 C966 0.930 . S
H953 C968 0.960 . S
H954 C968 0.960 . S
H955 C968 0.960 . S
C956 H948 0.929 . S
C956 C957 1.377 . S
C956 C958 1.384 . S
C957 C956 1.377 . S
C957 C963 1.390 . S
C958 H949 0.930 . S
C958 C956 1.384 . S
C958 C959 1.372 . S
C959 C958 1.372 . S
C959 C960 1.400 . S
C959 C964 1.490 . S
C960 H950 0.930 . S
C960 C959 1.400 . S
C960 C963 1.386 . S
H961 C977 0.930 . S
H962 C978 0.931 . S
C963 H951 0.929 . S
C963 C957 1.390 . S
C963 C960 1.386 . S
C964 C959 1.490 . S
C964 C966 1.395 . S
C964 C967 1.403 . S
H965 C971 0.930 . S
C966 H952 0.930 . S
C966 C964 1.395 . S
C966 C969 1.403 . S
C967 C964 1.403 . S
C967 C968 1.524 . S
C967 C971 1.400 . S
C968 H953 0.960 . S
C968 H954 0.960 . S
C968 H955 0.960 . S
C968 C967 1.524 . S
C969 C966 1.403 . S
C969 C970 1.392 . S
C969 C973 1.495 . S
C970 C969 1.392 . S
C970 C971 1.385 . S
C970 C972 1.478 . S
C971 H965 0.930 . S
C971 C967 1.400 . S
C971 C970 1.385 . S
C972 C970 1.478 . S
C972 C974 1.381 . S
C972 C978 1.383 . S
C973 C969 1.495 . S
C973 H979 0.959 . S
C973 H980 0.961 . S
C973 H981 0.960 . S
C974 C972 1.381 . S
C974 C975 1.394 . S
C974 H982 0.930 . S
C975 C974 1.394 . S
C975 C976 1.383 . S
C975 H983 0.929 . S
C976 C975 1.383 . S
C976 C977 1.377 . S
C977 H961 0.930 . S
C977 C976 1.377 . S
C977 C978 1.379 . S
C978 H962 0.931 . S
C978 C972 1.383 . S
C978 C977 1.379 . S
H979 C973 0.959 . S
H980 C973 0.961 . S
H981 C973 0.960 . S
H982 C974 0.930 . S
H983 C975 0.929 . S
H984 C992 0.929 . S
H985 C994 0.930 . S
H986 C996 0.930 . S
H987 C999 0.929 . S
H988 C1002 0.930 . S
H989 C1004 0.960 . S
H990 C1004 0.960 . S
H991 C1004 0.960 . S
C992 H984 0.929 . S
C992 C993 1.377 . S
C992 C994 1.384 . S
C993 C992 1.377 . S
C993 C999 1.390 . S
C994 H985 0.930 . S
C994 C992 1.384 . S
C994 C995 1.372 . S
C995 C994 1.372 . S
C995 C996 1.400 . S
C995 C1000 1.490 . S
C996 H986 0.930 . S
C996 C995 1.400 . S
C996 C999 1.386 . S
H997 C1013 0.930 . S
H998 C1014 0.931 . S
C999 H987 0.929 . S
C999 C993 1.390 . S
C999 C996 1.386 . S
C1000 C995 1.490 . S
C1000 C1002 1.395 . S
C1000 C1003 1.403 . S
H1001 C1007 0.930 . S
C1002 H988 0.930 . S
C1002 C1000 1.395 . S
C1002 C1005 1.403 . S
C1003 C1000 1.403 . S
C1003 C1004 1.524 . S
C1003 C1007 1.400 . S
C1004 H989 0.960 . S
C1004 H990 0.960 . S
C1004 H991 0.960 . S
C1004 C1003 1.524 . S
C1005 C1002 1.403 . S
C1005 C1006 1.392 . S
C1005 C1009 1.495 . S
C1006 C1005 1.392 . S
C1006 C1007 1.385 . S
C1006 C1008 1.478 . S
C1007 H1001 0.930 . S
C1007 C1003 1.400 . S
C1007 C1006 1.385 . S
C1008 C1006 1.478 . S
C1008 C1010 1.381 . S
C1008 C1014 1.383 . S
C1009 C1005 1.495 . S
C1009 H1015 0.959 . S
C1009 H1016 0.961 . S
C1009 H1017 0.960 . S
C1010 C1008 1.381 . S
C1010 C1011 1.394 . S
C1010 H1018 0.930 . S
C1011 C1010 1.394 . S
C1011 C1012 1.383 . S
C1011 H1019 0.929 . S
C1012 C1011 1.383 . S
C1012 C1013 1.377 . S
C1013 H997 0.930 . S
C1013 C1012 1.377 . S
C1013 C1014 1.379 . S
C1014 H998 0.931 . S
C1014 C1008 1.383 . S
C1014 C1013 1.379 . S
H1015 C1009 0.959 . S
H1016 C1009 0.961 . S
H1017 C1009 0.960 . S
H1018 C1010 0.930 . S
H1019 C1011 0.929 . S
H1020 C1028 0.929 . S
H1021 C1030 0.930 . S
H1022 C1032 0.930 . S
H1023 C1035 0.929 . S
H1024 C1038 0.930 . S
H1025 C1040 0.960 . S
H1026 C1040 0.960 . S
H1027 C1040 0.960 . S
C1028 H1020 0.929 . S
C1028 C1029 1.377 . S
C1028 C1030 1.384 . S
C1029 C1028 1.377 . S
C1029 C1035 1.390 . S
C1030 H1021 0.930 . S
C1030 C1028 1.384 . S
C1030 C1031 1.372 . S
C1031 C1030 1.372 . S
C1031 C1032 1.400 . S
C1031 C1036 1.490 . S
C1032 H1022 0.930 . S
C1032 C1031 1.400 . S
C1032 C1035 1.386 . S
H1033 C1049 0.930 . S
H1034 C1050 0.931 . S
C1035 H1023 0.929 . S
C1035 C1029 1.390 . S
C1035 C1032 1.386 . S
C1036 C1031 1.490 . S
C1036 C1038 1.395 . S
C1036 C1039 1.403 . S
H1037 C1043 0.930 . S
C1038 H1024 0.930 . S
C1038 C1036 1.395 . S
C1038 C1041 1.403 . S
C1039 C1036 1.403 . S
C1039 C1040 1.524 . S
C1039 C1043 1.400 . S
C1040 H1025 0.960 . S
C1040 H1026 0.960 . S
C1040 H1027 0.960 . S
C1040 C1039 1.524 . S
C1041 C1038 1.403 . S
C1041 C1042 1.392 . S
C1041 C1045 1.495 . S
C1042 C1041 1.392 . S
C1042 C1043 1.385 . S
C1042 C1044 1.478 . S
C1043 H1037 0.930 . S
C1043 C1039 1.400 . S
C1043 C1042 1.385 . S
C1044 C1042 1.478 . S
C1044 C1046 1.381 . S
C1044 C1050 1.383 . S
C1045 C1041 1.495 . S
C1045 H1051 0.959 . S
C1045 H1052 0.961 . S
C1045 H1053 0.960 . S
C1046 C1044 1.381 . S
C1046 C1047 1.394 . S
C1046 H1054 0.930 . S
C1047 C1046 1.394 . S
C1047 C1048 1.383 . S
C1047 H1055 0.929 . S
C1048 C1047 1.383 . S
C1048 C1049 1.377 . S
C1049 H1033 0.930 . S
C1049 C1048 1.377 . S
C1049 C1050 1.379 . S
C1050 H1034 0.931 . S
C1050 C1044 1.383 . S
C1050 C1049 1.379 . S
H1051 C1045 0.959 . S
H1052 C1045 0.961 . S
H1053 C1045 0.960 . S
H1054 C1046 0.930 . S
H1055 C1047 0.929 . S
H1056 C1064 0.929 . S
H1057 C1066 0.930 . S
H1058 C1068 0.930 . S
H1059 C1071 0.929 . S
H1060 C1074 0.930 . S
H1061 C1076 0.960 . S
H1062 C1076 0.960 . S
H1063 C1076 0.960 . S
C1064 H1056 0.929 . S
C1064 C1065 1.377 . S
C1064 C1066 1.384 . S
C1065 C1064 1.377 . S
C1065 C1071 1.390 . S
C1066 H1057 0.930 . S
C1066 C1064 1.384 . S
C1066 C1067 1.372 . S
C1067 C1066 1.372 . S
C1067 C1068 1.400 . S
C1067 C1072 1.490 . S
C1068 H1058 0.930 . S
C1068 C1067 1.400 . S
C1068 C1071 1.386 . S
H1069 C1085 0.930 . S
H1070 C1086 0.931 . S
C1071 H1059 0.929 . S
C1071 C1065 1.390 . S
C1071 C1068 1.386 . S
C1072 C1067 1.490 . S
C1072 C1074 1.395 . S
C1072 C1075 1.403 . S
H1073 C1079 0.930 . S
C1074 H1060 0.930 . S
C1074 C1072 1.395 . S
C1074 C1077 1.403 . S
C1075 C1072 1.403 . S
C1075 C1076 1.524 . S
C1075 C1079 1.400 . S
C1076 H1061 0.960 . S
C1076 H1062 0.960 . S
C1076 H1063 0.960 . S
C1076 C1075 1.524 . S
C1077 C1074 1.403 . S
C1077 C1078 1.392 . S
C1077 C1081 1.495 . S
C1078 C1077 1.392 . S
C1078 C1079 1.385 . S
C1078 C1080 1.478 . S
C1079 H1073 0.930 . S
C1079 C1075 1.400 . S
C1079 C1078 1.385 . S
C1080 C1078 1.478 . S
C1080 C1082 1.381 . S
C1080 C1086 1.383 . S
C1081 C1077 1.495 . S
C1081 H1087 0.959 . S
C1081 H1088 0.961 . S
C1081 H1089 0.960 . S
C1082 C1080 1.381 . S
C1082 C1083 1.394 . S
C1082 H1090 0.930 . S
C1083 C1082 1.394 . S
C1083 C1084 1.383 . S
C1083 H1091 0.929 . S
C1084 C1083 1.383 . S
C1084 C1085 1.377 . S
C1085 H1069 0.930 . S
C1085 C1084 1.377 . S
C1085 C1086 1.379 . S
C1086 H1070 0.931 . S
C1086 C1080 1.383 . S
C1086 C1085 1.379 . S
H1087 C1081 0.959 . S
H1088 C1081 0.961 . S
H1089 C1081 0.960 . S
H1090 C1082 0.930 . S
H1091 C1083 0.929 . S
H1092 C1100 0.929 . S
H1093 C1102 0.930 . S
H1094 C1104 0.930 . S
H1095 C1107 0.929 . S
H1096 C1110 0.930 . S
H1097 C1112 0.960 . S
H1098 C1112 0.960 . S
H1099 C1112 0.960 . S
C1100 H1092 0.929 . S
C1100 C1101 1.377 . S
C1100 C1102 1.384 . S
C1101 C1100 1.377 . S
C1101 C1107 1.390 . S
C1102 H1093 0.930 . S
C1102 C1100 1.384 . S
C1102 C1103 1.372 . S
C1103 C1102 1.372 . S
C1103 C1104 1.400 . S
C1103 C1108 1.490 . S
C1104 H1094 0.930 . S
C1104 C1103 1.400 . S
C1104 C1107 1.386 . S
H1105 C1121 0.930 . S
H1106 C1122 0.931 . S
C1107 H1095 0.929 . S
C1107 C1101 1.390 . S
C1107 C1104 1.386 . S
C1108 C1103 1.490 . S
C1108 C1110 1.395 . S
C1108 C1111 1.403 . S
H1109 C1115 0.930 . S
C1110 H1096 0.930 . S
C1110 C1108 1.395 . S
C1110 C1113 1.403 . S
C1111 C1108 1.403 . S
C1111 C1112 1.524 . S
C1111 C1115 1.400 . S
C1112 H1097 0.960 . S
C1112 H1098 0.960 . S
C1112 H1099 0.960 . S
C1112 C1111 1.524 . S
C1113 C1110 1.403 . S
C1113 C1114 1.392 . S
C1113 C1117 1.495 . S
C1114 C1113 1.392 . S
C1114 C1115 1.385 . S
C1114 C1116 1.478 . S
C1115 H1109 0.930 . S
C1115 C1111 1.400 . S
C1115 C1114 1.385 . S
C1116 C1114 1.478 . S
C1116 C1118 1.381 . S
C1116 C1122 1.383 . S
C1117 C1113 1.495 . S
C1117 H1123 0.959 . S
C1117 H1124 0.961 . S
C1117 H1125 0.960 . S
C1118 C1116 1.381 . S
C1118 C1119 1.394 . S
C1118 H1126 0.930 . S
C1119 C1118 1.394 . S
C1119 C1120 1.383 . S
C1119 H1127 0.929 . S
C1120 C1119 1.383 . S
C1120 C1121 1.377 . S
C1121 H1105 0.930 . S
C1121 C1120 1.377 . S
C1121 C1122 1.379 . S
C1122 H1106 0.931 . S
C1122 C1116 1.383 . S
C1122 C1121 1.379 . S
H1123 C1117 0.959 . S
H1124 C1117 0.961 . S
H1125 C1117 0.960 . S
H1126 C1118 0.930 . S
H1127 C1119 0.929 . S
H1128 C1136 0.929 . S
H1129 C1138 0.930 . S
H1130 C1140 0.930 . S
H1131 C1143 0.929 . S
H1132 C1146 0.930 . S
H1133 C1148 0.960 . S
H1134 C1148 0.960 . S
H1135 C1148 0.960 . S
C1136 H1128 0.929 . S
C1136 C1137 1.377 . S
C1136 C1138 1.384 . S
C1137 C1136 1.377 . S
C1137 C1143 1.390 . S
C1138 H1129 0.930 . S
C1138 C1136 1.384 . S
C1138 C1139 1.372 . S
C1139 C1138 1.372 . S
C1139 C1140 1.400 . S
C1139 C1144 1.490 . S
C1140 H1130 0.930 . S
C1140 C1139 1.400 . S
C1140 C1143 1.386 . S
H1141 C1157 0.930 . S
H1142 C1158 0.931 . S
C1143 H1131 0.929 . S
C1143 C1137 1.390 . S
C1143 C1140 1.386 . S
C1144 C1139 1.490 . S
C1144 C1146 1.395 . S
C1144 C1147 1.403 . S
H1145 C1151 0.930 . S
C1146 H1132 0.930 . S
C1146 C1144 1.395 . S
C1146 C1149 1.403 . S
C1147 C1144 1.403 . S
C1147 C1148 1.524 . S
C1147 C1151 1.400 . S
C1148 H1133 0.960 . S
C1148 H1134 0.960 . S
C1148 H1135 0.960 . S
C1148 C1147 1.524 . S
C1149 C1146 1.403 . S
C1149 C1150 1.392 . S
C1149 C1153 1.495 . S
C1150 C1149 1.392 . S
C1150 C1151 1.385 . S
C1150 C1152 1.478 . S
C1151 H1145 0.930 . S
C1151 C1147 1.400 . S
C1151 C1150 1.385 . S
C1152 C1150 1.478 . S
C1152 C1154 1.381 . S
C1152 C1158 1.383 . S
C1153 C1149 1.495 . S
C1153 H1159 0.959 . S
C1153 H1160 0.961 . S
C1153 H1161 0.960 . S
C1154 C1152 1.381 . S
C1154 C1155 1.394 . S
C1154 H1162 0.930 . S
C1155 C1154 1.394 . S
C1155 C1156 1.383 . S
C1155 H1163 0.929 . S
C1156 C1155 1.383 . S
C1156 C1157 1.377 . S
C1157 H1141 0.930 . S
C1157 C1156 1.377 . S
C1157 C1158 1.379 . S
C1158 H1142 0.931 . S
C1158 C1152 1.383 . S
C1158 C1157 1.379 . S
H1159 C1153 0.959 . S
H1160 C1153 0.961 . S
H1161 C1153 0.960 . S
H1162 C1154 0.930 . S
H1163 C1155 0.929 . S
H1164 C1172 0.929 . S
H1165 C1174 0.930 . S
H1166 C1176 0.930 . S
H1167 C1179 0.929 . S
H1168 C1182 0.930 . S
H1169 C1184 0.960 . S
H1170 C1184 0.960 . S
H1171 C1184 0.960 . S
C1172 H1164 0.929 . S
C1172 C1173 1.377 . S
C1172 C1174 1.384 . S
C1173 C1172 1.377 . S
C1173 C1179 1.390 . S
C1174 H1165 0.930 . S
C1174 C1172 1.384 . S
C1174 C1175 1.372 . S
C1175 C1174 1.372 . S
C1175 C1176 1.400 . S
C1175 C1180 1.490 . S
C1176 H1166 0.930 . S
C1176 C1175 1.400 . S
C1176 C1179 1.386 . S
H1177 C1193 0.930 . S
H1178 C1194 0.931 . S
C1179 H1167 0.929 . S
C1179 C1173 1.390 . S
C1179 C1176 1.386 . S
C1180 C1175 1.490 . S
C1180 C1182 1.395 . S
C1180 C1183 1.403 . S
H1181 C1187 0.930 . S
C1182 H1168 0.930 . S
C1182 C1180 1.395 . S
C1182 C1185 1.403 . S
C1183 C1180 1.403 . S
C1183 C1184 1.524 . S
C1183 C1187 1.400 . S
C1184 H1169 0.960 . S
C1184 H1170 0.960 . S
C1184 H1171 0.960 . S
C1184 C1183 1.524 . S
C1185 C1182 1.403 . S
C1185 C1186 1.392 . S
C1185 C1189 1.495 . S
C1186 C1185 1.392 . S
C1186 C1187 1.385 . S
C1186 C1188 1.478 . S
C1187 H1181 0.930 . S
C1187 C1183 1.400 . S
C1187 C1186 1.385 . S
C1188 C1186 1.478 . S
C1188 C1190 1.381 . S
C1188 C1194 1.383 . S
C1189 C1185 1.495 . S
C1189 H1195 0.959 . S
C1189 H1196 0.961 . S
C1189 H1197 0.960 . S
C1190 C1188 1.381 . S
C1190 C1191 1.394 . S
C1190 H1198 0.930 . S
C1191 C1190 1.394 . S
C1191 C1192 1.383 . S
C1191 H1199 0.929 . S
C1192 C1191 1.383 . S
C1192 C1193 1.377 . S
C1193 H1177 0.930 . S
C1193 C1192 1.377 . S
C1193 C1194 1.379 . S
C1194 H1178 0.931 . S
C1194 C1188 1.383 . S
C1194 C1193 1.379 . S
H1195 C1189 0.959 . S
H1196 C1189 0.961 . S
H1197 C1189 0.960 . S
H1198 C1190 0.930 . S
H1199 C1191 0.929 . S
H1200 C1208 0.929 . S
H1201 C1210 0.930 . S
H1202 C1212 0.930 . S
H1203 C1215 0.929 . S
H1204 C1218 0.930 . S
H1205 C1220 0.960 . S
H1206 C1220 0.960 . S
H1207 C1220 0.960 . S
C1208 H1200 0.929 . S
C1208 C1209 1.377 . S
C1208 C1210 1.384 . S
C1209 C1208 1.377 . S
C1209 C1215 1.390 . S
C1210 H1201 0.930 . S
C1210 C1208 1.384 . S
C1210 C1211 1.372 . S
C1211 C1210 1.372 . S
C1211 C1212 1.400 . S
C1211 C1216 1.490 . S
C1212 H1202 0.930 . S
C1212 C1211 1.400 . S
C1212 C1215 1.386 . S
H1213 C1229 0.930 . S
H1214 C1230 0.931 . S
C1215 H1203 0.929 . S
C1215 C1209 1.390 . S
C1215 C1212 1.386 . S
C1216 C1211 1.490 . S
C1216 C1218 1.395 . S
C1216 C1219 1.403 . S
H1217 C1223 0.930 . S
C1218 H1204 0.930 . S
C1218 C1216 1.395 . S
C1218 C1221 1.403 . S
C1219 C1216 1.403 . S
C1219 C1220 1.524 . S
C1219 C1223 1.400 . S
C1220 H1205 0.960 . S
C1220 H1206 0.960 . S
C1220 H1207 0.960 . S
C1220 C1219 1.524 . S
C1221 C1218 1.403 . S
C1221 C1222 1.392 . S
C1221 C1225 1.495 . S
C1222 C1221 1.392 . S
C1222 C1223 1.385 . S
C1222 C1224 1.478 . S
C1223 H1217 0.930 . S
C1223 C1219 1.400 . S
C1223 C1222 1.385 . S
C1224 C1222 1.478 . S
C1224 C1226 1.381 . S
C1224 C1230 1.383 . S
C1225 C1221 1.495 . S
C1225 H1231 0.959 . S
C1225 H1232 0.961 . S
C1225 H1233 0.960 . S
C1226 C1224 1.381 . S
C1226 C1227 1.394 . S
C1226 H1234 0.930 . S
C1227 C1226 1.394 . S
C1227 C1228 1.383 . S
C1227 H1235 0.929 . S
C1228 C1227 1.383 . S
C1228 C1229 1.377 . S
C1229 H1213 0.930 . S
C1229 C1228 1.377 . S
C1229 C1230 1.379 . S
C1230 H1214 0.931 . S
C1230 C1224 1.383 . S
C1230 C1229 1.379 . S
H1231 C1225 0.959 . S
H1232 C1225 0.961 . S
H1233 C1225 0.960 . S
H1234 C1226 0.930 . S
H1235 C1227 0.929 . S
H1236 C1244 0.929 . S
H1237 C1246 0.934 1_556 S
H1238 C1248 0.930 . S
H1239 C1251 0.929 . S
H1240 C1254 0.930 . S
H1241 C1256 0.960 . S
H1242 C1256 0.960 . S
H1243 C1256 0.960 . S
C1244 H1236 0.929 . S
C1244 C1245 1.377 . S
C1244 C1246 1.379 . S
C1245 C1244 1.377 . S
C1245 C1251 1.390 . S
C1246 H1237 0.934 1_554 S
C1246 C1244 1.379 . S
C1246 C1247 1.373 1_554 S
C1247 C1246 1.373 1_556 S
C1247 C1248 1.400 1_556 S
C1247 C1252 1.490 . S
C1248 H1238 0.930 . S
C1248 C1247 1.400 1_554 S
C1248 C1251 1.386 . S
H1249 C1265 0.930 . S
H1250 C1266 0.931 . S
C1251 H1239 0.929 . S
C1251 C1245 1.390 . S
C1251 C1248 1.386 . S
C1252 C1247 1.490 . S
C1252 C1254 1.395 . S
C1252 C1255 1.403 . S
H1253 C1259 0.930 . S
C1254 H1240 0.930 . S
C1254 C1252 1.395 . S
C1254 C1257 1.403 . S
C1255 C1252 1.403 . S
C1255 C1256 1.524 . S
C1255 C1259 1.400 . S
C1256 H1241 0.960 . S
C1256 H1242 0.960 . S
C1256 H1243 0.960 . S
C1256 C1255 1.524 . S
C1257 C1254 1.403 . S
C1257 C1258 1.392 . S
C1257 C1261 1.495 . S
C1258 C1257 1.392 . S
C1258 C1259 1.385 . S
C1258 C1260 1.478 . S
C1259 H1253 0.930 . S
C1259 C1255 1.400 . S
C1259 C1258 1.385 . S
C1260 C1258 1.478 . S
C1260 C1262 1.381 . S
C1260 C1266 1.383 . S
C1261 C1257 1.495 . S
C1261 H1267 0.959 . S
C1261 H1268 0.961 . S
C1261 H1269 0.960 . S
C1262 C1260 1.381 . S
C1262 C1263 1.394 . S
C1262 H1270 0.930 . S
C1263 C1262 1.394 . S
C1263 C1264 1.383 . S
C1263 H1271 0.929 . S
C1264 C1263 1.383 . S
C1264 C1265 1.377 . S
C1265 H1249 0.930 . S
C1265 C1264 1.377 . S
C1265 C1266 1.379 . S
C1266 H1250 0.931 . S
C1266 C1260 1.383 . S
C1266 C1265 1.379 . S
H1267 C1261 0.959 . S
H1268 C1261 0.961 . S
H1269 C1261 0.960 . S
H1270 C1262 0.930 . S
H1271 C1263 0.929 . S
H1272 C1280 0.929 . S
H1273 C1282 0.930 . S
H1274 C1284 0.930 . S
H1275 C1287 0.929 . S
H1276 C1290 0.930 . S
H1277 C1292 0.960 . S
H1278 C1292 0.960 . S
H1279 C1292 0.960 . S
C1280 H1272 0.929 . S
C1280 C1281 1.377 . S
C1280 C1282 1.384 . S
C1281 C1280 1.377 . S
C1281 C1287 1.390 . S
C1282 H1273 0.930 . S
C1282 C1280 1.384 . S
C1282 C1283 1.372 . S
C1283 C1282 1.372 . S
C1283 C1284 1.400 . S
C1283 C1288 1.490 . S
C1284 H1274 0.930 . S
C1284 C1283 1.400 . S
C1284 C1287 1.386 . S
H1285 C1301 0.930 . S
H1286 C1302 0.931 . S
C1287 H1275 0.929 . S
C1287 C1281 1.390 . S
C1287 C1284 1.386 . S
C1288 C1283 1.490 . S
C1288 C1290 1.395 . S
C1288 C1291 1.403 . S
H1289 C1295 0.930 . S
C1290 H1276 0.930 . S
C1290 C1288 1.395 . S
C1290 C1293 1.403 . S
C1291 C1288 1.403 . S
C1291 C1292 1.524 . S
C1291 C1295 1.400 . S
C1292 H1277 0.960 . S
C1292 H1278 0.960 . S
C1292 H1279 0.960 . S
C1292 C1291 1.524 . S
C1293 C1290 1.403 . S
C1293 C1294 1.392 . S
C1293 C1297 1.495 . S
C1294 C1293 1.392 . S
C1294 C1295 1.385 . S
C1294 C1296 1.478 . S
C1295 H1289 0.930 . S
C1295 C1291 1.400 . S
C1295 C1294 1.385 . S
C1296 C1294 1.478 . S
C1296 C1298 1.381 . S
C1296 C1302 1.383 . S
C1297 C1293 1.495 . S
C1297 H1303 0.959 . S
C1297 H1304 0.961 . S
C1297 H1305 0.960 . S
C1298 C1296 1.381 . S
C1298 C1299 1.394 . S
C1298 H1306 0.930 . S
C1299 C1298 1.394 . S
C1299 C1300 1.383 . S
C1299 H1307 0.929 . S
C1300 C1299 1.383 . S
C1300 C1301 1.377 . S
C1301 H1285 0.930 . S
C1301 C1300 1.377 . S
C1301 C1302 1.379 . S
C1302 H1286 0.931 . S
C1302 C1296 1.383 . S
C1302 C1301 1.379 . S
H1303 C1297 0.959 . S
H1304 C1297 0.961 . S
H1305 C1297 0.960 . S
H1306 C1298 0.930 . S
H1307 C1299 0.929 . S
H1308 C1316 0.929 . S
H1309 C1318 0.930 . S
H1310 C1320 0.930 . S
H1311 C1323 0.929 . S
H1312 C1326 0.930 . S
H1313 C1328 0.960 . S
H1314 C1328 0.960 . S
H1315 C1328 0.960 . S
C1316 H1308 0.929 . S
C1316 C1317 1.377 . S
C1316 C1318 1.384 . S
C1317 C1316 1.377 . S
C1317 C1323 1.390 . S
C1318 H1309 0.930 . S
C1318 C1316 1.384 . S
C1318 C1319 1.372 . S
C1319 C1318 1.372 . S
C1319 C1320 1.400 . S
C1319 C1324 1.490 . S
C1320 H1310 0.930 . S
C1320 C1319 1.400 . S
C1320 C1323 1.386 . S
H1321 C1337 0.930 . S
H1322 C1338 0.931 . S
C1323 H1311 0.929 . S
C1323 C1317 1.390 . S
C1323 C1320 1.386 . S
C1324 C1319 1.490 . S
C1324 C1326 1.395 . S
C1324 C1327 1.403 . S
H1325 C1331 0.930 . S
C1326 H1312 0.930 . S
C1326 C1324 1.395 . S
C1326 C1329 1.403 . S
C1327 C1324 1.403 . S
C1327 C1328 1.524 . S
C1327 C1331 1.400 . S
C1328 H1313 0.960 . S
C1328 H1314 0.960 . S
C1328 H1315 0.960 . S
C1328 C1327 1.524 . S
C1329 C1326 1.403 . S
C1329 C1330 1.392 . S
C1329 C1333 1.495 . S
C1330 C1329 1.392 . S
C1330 C1331 1.385 . S
C1330 C1332 1.478 . S
C1331 H1325 0.930 . S
C1331 C1327 1.400 . S
C1331 C1330 1.385 . S
C1332 C1330 1.478 . S
C1332 C1334 1.383 1_554 S
C1332 C1338 1.383 1_554 S
C1333 C1329 1.495 . S
C1333 H1339 0.959 . S
C1333 H1340 0.961 . S
C1333 H1341 0.960 . S
C1334 C1332 1.383 1_556 S
C1334 C1335 1.388 . S
C1334 H1342 0.935 1_556 S
C1335 C1334 1.388 . S
C1335 C1336 1.383 . S
C1335 H1343 0.929 . S
C1336 C1335 1.383 . S
C1336 C1337 1.377 . S
C1337 H1321 0.930 . S
C1337 C1336 1.377 . S
C1337 C1338 1.379 . S
C1338 H1322 0.931 . S
C1338 C1332 1.383 1_556 S
C1338 C1337 1.379 . S
H1339 C1333 0.959 . S
H1340 C1333 0.961 . S
H1341 C1333 0.960 . S
H1342 C1334 0.935 1_554 S
H1343 C1335 0.929 . S
H1344 C1352 0.929 . S
H1345 C1354 0.930 . S
H1346 C1356 0.930 . S
H1347 C1359 0.929 . S
H1348 C1362 0.930 . S
H1349 C1364 0.960 . S
H1350 C1364 0.960 . S
H1351 C1364 0.960 . S
C1352 H1344 0.929 . S
C1352 C1353 1.377 . S
C1352 C1354 1.384 . S
C1353 C1352 1.377 . S
C1353 C1359 1.390 . S
C1354 H1345 0.930 . S
C1354 C1352 1.384 . S
C1354 C1355 1.372 . S
C1355 C1354 1.372 . S
C1355 C1356 1.400 . S
C1355 C1360 1.490 . S
C1356 H1346 0.930 . S
C1356 C1355 1.400 . S
C1356 C1359 1.386 . S
H1357 C1373 0.930 . S
H1358 C1374 0.931 . S
C1359 H1347 0.929 . S
C1359 C1353 1.390 . S
C1359 C1356 1.386 . S
C1360 C1355 1.490 . S
C1360 C1362 1.395 . S
C1360 C1363 1.403 . S
H1361 C1367 0.930 . S
C1362 H1348 0.930 . S
C1362 C1360 1.395 . S
C1362 C1365 1.403 . S
C1363 C1360 1.403 . S
C1363 C1364 1.524 . S
C1363 C1367 1.400 . S
C1364 H1349 0.960 . S
C1364 H1350 0.960 . S
C1364 H1351 0.960 . S
C1364 C1363 1.524 . S
C1365 C1362 1.403 . S
C1365 C1366 1.392 . S
C1365 C1369 1.495 . S
C1366 C1365 1.392 . S
C1366 C1367 1.385 . S
C1366 C1368 1.478 . S
C1367 H1361 0.930 . S
C1367 C1363 1.400 . S
C1367 C1366 1.385 . S
C1368 C1366 1.478 . S
C1368 C1370 1.381 . S
C1368 C1374 1.383 . S
C1369 C1365 1.495 . S
C1369 H1375 0.959 . S
C1369 H1376 0.961 . S
C1369 H1377 0.960 . S
C1370 C1368 1.381 . S
C1370 C1371 1.394 . S
C1370 H1378 0.930 . S
C1371 C1370 1.394 . S
C1371 C1372 1.383 . S
C1371 H1379 0.929 . S
C1372 C1371 1.383 . S
C1372 C1373 1.377 . S
C1373 H1357 0.930 . S
C1373 C1372 1.377 . S
C1373 C1374 1.379 . S
C1374 H1358 0.931 . S
C1374 C1368 1.383 . S
C1374 C1373 1.379 . S
H1375 C1369 0.959 . S
H1376 C1369 0.961 . S
H1377 C1369 0.960 . S
H1378 C1370 0.930 . S
H1379 C1371 0.929 . S
H1380 C1388 0.929 . S
H1381 C1390 0.930 . S
H1382 C1392 0.930 . S
H1383 C1395 0.929 . S
H1384 C1398 0.930 . S
H1385 C1400 0.960 . S
H1386 C1400 0.960 . S
H1387 C1400 0.960 . S
C1388 H1380 0.929 . S
C1388 C1389 1.377 . S
C1388 C1390 1.384 . S
C1389 C1388 1.377 . S
C1389 C1395 1.390 . S
C1390 H1381 0.930 . S
C1390 C1388 1.384 . S
C1390 C1391 1.372 . S
C1391 C1390 1.372 . S
C1391 C1392 1.400 . S
C1391 C1396 1.490 1_655 S
C1392 H1382 0.930 . S
C1392 C1391 1.400 . S
C1392 C1395 1.386 . S
H1393 C1409 0.930 . S
H1394 C1410 0.931 . S
C1395 H1383 0.929 . S
C1395 C1389 1.390 . S
C1395 C1392 1.386 . S
C1396 C1391 1.490 1_455 S
C1396 C1398 1.395 . S
C1396 C1399 1.403 . S
H1397 C1403 0.930 . S
C1398 H1384 0.930 . S
C1398 C1396 1.395 . S
C1398 C1401 1.403 . S
C1399 C1396 1.403 . S
C1399 C1400 1.524 . S
C1399 C1403 1.400 . S
C1400 H1385 0.960 . S
C1400 H1386 0.960 . S
C1400 H1387 0.960 . S
C1400 C1399 1.524 . S
C1401 C1398 1.403 . S
C1401 C1402 1.392 . S
C1401 C1405 1.495 . S
C1402 C1401 1.392 . S
C1402 C1403 1.385 . S
C1402 C1404 1.478 . S
C1403 H1397 0.930 . S
C1403 C1399 1.400 . S
C1403 C1402 1.385 . S
C1404 C1402 1.478 . S
C1404 C1406 1.381 . S
C1404 C1410 1.383 . S
C1405 C1401 1.495 . S
C1405 H1411 0.959 . S
C1405 H1412 0.961 . S
C1405 H1413 0.960 . S
C1406 C1404 1.381 . S
C1406 C1407 1.394 . S
C1406 H1414 0.930 . S
C1407 C1406 1.394 . S
C1407 C1408 1.383 . S
C1407 H1415 0.929 . S
C1408 C1407 1.383 . S
C1408 C1409 1.377 . S
C1409 H1393 0.930 . S
C1409 C1408 1.377 . S
C1409 C1410 1.379 . S
C1410 H1394 0.931 . S
C1410 C1404 1.383 . S
C1410 C1409 1.379 . S
H1411 C1405 0.959 . S
H1412 C1405 0.961 . S
H1413 C1405 0.960 . S
H1414 C1406 0.930 . S
H1415 C1407 0.929 . S
H1416 C1424 0.929 . S
H1417 C1426 0.931 1_655 S
H1418 C1428 0.930 . S
H1419 C1431 0.929 . S
H1420 C1434 0.930 . S
H1421 C1436 0.960 . S
H1422 C1436 0.960 . S
H1423 C1436 0.960 . S
C1424 H1416 0.929 . S
C1424 C1425 1.377 . S
C1424 C1426 1.384 . S
C1425 C1424 1.377 . S
C1425 C1431 1.390 . S
C1426 H1417 0.931 1_455 S
C1426 C1424 1.384 . S
C1426 C1427 1.372 . S
C1427 C1426 1.372 . S
C1427 C1428 1.400 . S
C1427 C1432 1.490 1_455 S
C1428 H1418 0.930 . S
C1428 C1427 1.400 . S
C1428 C1431 1.386 . S
H1429 C1445 0.930 . S
H1430 C1446 0.931 . S
C1431 H1419 0.929 . S
C1431 C1425 1.390 . S
C1431 C1428 1.386 . S
C1432 C1427 1.490 1_655 S
C1432 C1434 1.395 . S
C1432 C1435 1.403 . S
H1433 C1439 0.930 . S
C1434 H1420 0.930 . S
C1434 C1432 1.395 . S
C1434 C1437 1.403 . S
C1435 C1432 1.403 . S
C1435 C1436 1.524 . S
C1435 C1439 1.400 . S
C1436 H1421 0.960 . S
C1436 H1422 0.960 . S
C1436 H1423 0.960 . S
C1436 C1435 1.524 . S
C1437 C1434 1.403 . S
C1437 C1438 1.392 . S
C1437 C1441 1.495 . S
C1438 C1437 1.392 . S
C1438 C1439 1.385 . S
C1438 C1440 1.478 . S
C1439 H1433 0.930 . S
C1439 C1435 1.400 . S
C1439 C1438 1.385 . S
C1440 C1438 1.478 . S
C1440 C1442 1.381 . S
C1440 C1446 1.383 . S
C1441 C1437 1.495 . S
C1441 H1447 0.959 . S
C1441 H1448 0.961 . S
C1441 H1449 0.960 . S
C1442 C1440 1.381 . S
C1442 C1443 1.394 . S
C1442 H1450 0.930 . S
C1443 C1442 1.394 . S
C1443 C1444 1.383 . S
C1443 H1451 0.929 . S
C1444 C1443 1.383 . S
C1444 C1445 1.377 . S
C1445 H1429 0.930 . S
C1445 C1444 1.377 . S
C1445 C1446 1.379 . S
C1446 H1430 0.931 . S
C1446 C1440 1.383 . S
C1446 C1445 1.379 . S
H1447 C1441 0.959 . S
H1448 C1441 0.961 . S
H1449 C1441 0.960 . S
H1450 C1442 0.930 . S
H1451 C1443 0.929 . S
H1452 C1460 0.929 . S
H1453 C1462 0.930 . S
H1454 C1464 0.930 . S
H1455 C1467 0.929 . S
H1456 C1470 0.930 . S
H1457 C1472 0.960 . S
H1458 C1472 0.960 . S
H1459 C1472 0.960 . S
C1460 H1452 0.929 . S
C1460 C1461 1.377 . S
C1460 C1462 1.384 . S
C1461 C1460 1.377 . S
C1461 C1467 1.390 . S
C1462 H1453 0.930 . S
C1462 C1460 1.384 . S
C1462 C1463 1.372 . S
C1463 C1462 1.372 . S
C1463 C1464 1.400 . S
C1463 C1468 1.490 . S
C1464 H1454 0.930 . S
C1464 C1463 1.400 . S
C1464 C1467 1.386 . S
H1465 C1481 0.930 . S
H1466 C1482 0.931 . S
C1467 H1455 0.929 . S
C1467 C1461 1.390 . S
C1467 C1464 1.386 . S
C1468 C1463 1.490 . S
C1468 C1470 1.395 . S
C1468 C1471 1.403 . S
H1469 C1475 0.930 . S
C1470 H1456 0.930 . S
C1470 C1468 1.395 . S
C1470 C1473 1.403 . S
C1471 C1468 1.403 . S
C1471 C1472 1.524 . S
C1471 C1475 1.400 . S
C1472 H1457 0.960 . S
C1472 H1458 0.960 . S
C1472 H1459 0.960 . S
C1472 C1471 1.524 . S
C1473 C1470 1.403 . S
C1473 C1474 1.392 . S
C1473 C1477 1.495 . S
C1474 C1473 1.392 . S
C1474 C1475 1.385 . S
C1474 C1476 1.478 . S
C1475 H1469 0.930 . S
C1475 C1471 1.400 . S
C1475 C1474 1.385 . S
C1476 C1474 1.478 . S
C1476 C1478 1.381 . S
C1476 C1482 1.383 . S
C1477 C1473 1.495 . S
C1477 H1483 0.959 . S
C1477 H1484 0.961 . S
C1477 H1485 0.960 . S
C1478 C1476 1.381 . S
C1478 C1479 1.394 . S
C1478 H1486 0.930 . S
C1479 C1478 1.394 . S
C1479 C1480 1.383 . S
C1479 H1487 0.929 . S
C1480 C1479 1.383 . S
C1480 C1481 1.377 . S
C1481 H1465 0.930 . S
C1481 C1480 1.377 . S
C1481 C1482 1.379 . S
C1482 H1466 0.931 . S
C1482 C1476 1.383 . S
C1482 C1481 1.379 . S
H1483 C1477 0.959 . S
H1484 C1477 0.961 . S
H1485 C1477 0.960 . S
H1486 C1478 0.930 . S
H1487 C1479 0.929 . S
H1488 C1496 0.929 . S
H1489 C1498 0.930 . S
H1490 C1500 0.930 . S
H1491 C1503 0.929 . S
H1492 C1506 0.930 . S
H1493 C1508 0.960 . S
H1494 C1508 0.960 . S
H1495 C1508 0.960 . S
C1496 H1488 0.929 . S
C1496 C1497 1.377 . S
C1496 C1498 1.384 . S
C1497 C1496 1.377 . S
C1497 C1503 1.390 . S
C1498 H1489 0.930 . S
C1498 C1496 1.384 . S
C1498 C1499 1.372 . S
C1499 C1498 1.372 . S
C1499 C1500 1.400 . S
C1499 C1504 1.490 . S
C1500 H1490 0.930 . S
C1500 C1499 1.400 . S
C1500 C1503 1.386 . S
H1501 C1517 0.930 . S
H1502 C1518 0.931 . S
C1503 H1491 0.929 . S
C1503 C1497 1.390 . S
C1503 C1500 1.386 . S
C1504 C1499 1.490 . S
C1504 C1506 1.395 . S
C1504 C1507 1.403 . S
H1505 C1511 0.930 . S
C1506 H1492 0.930 . S
C1506 C1504 1.395 . S
C1506 C1509 1.403 . S
C1507 C1504 1.403 . S
C1507 C1508 1.524 . S
C1507 C1511 1.400 . S
C1508 H1493 0.960 . S
C1508 H1494 0.960 . S
C1508 H1495 0.960 . S
C1508 C1507 1.524 . S
C1509 C1506 1.403 . S
C1509 C1510 1.392 . S
C1509 C1513 1.495 . S
C1510 C1509 1.392 . S
C1510 C1511 1.385 . S
C1510 C1512 1.478 . S
C1511 H1505 0.930 . S
C1511 C1507 1.400 . S
C1511 C1510 1.385 . S
C1512 C1510 1.478 . S
C1512 C1514 1.381 . S
C1512 C1518 1.383 . S
C1513 C1509 1.495 . S
C1513 H1519 0.959 . S
C1513 H1520 0.961 . S
C1513 H1521 0.960 . S
C1514 C1512 1.381 . S
C1514 C1515 1.394 . S
C1514 H1522 0.930 . S
C1515 C1514 1.394 . S
C1515 C1516 1.383 . S
C1515 H1523 0.929 . S
C1516 C1515 1.383 . S
C1516 C1517 1.377 . S
C1517 H1501 0.930 . S
C1517 C1516 1.377 . S
C1517 C1518 1.379 . S
C1518 H1502 0.931 . S
C1518 C1512 1.383 . S
C1518 C1517 1.379 . S
H1519 C1513 0.959 . S
H1520 C1513 0.961 . S
H1521 C1513 0.960 . S
H1522 C1514 0.930 . S
H1523 C1515 0.929 . S
H1524 C1532 0.929 . S
H1525 C1534 0.930 1_545 S
H1526 C1536 0.930 . S
H1527 C1539 0.929 . S
H1528 C1542 0.930 . S
H1529 C1544 0.960 . S
H1530 C1544 0.960 . S
H1531 C1544 0.960 . S
C1532 H1524 0.929 . S
C1532 C1533 1.377 . S
C1532 C1534 1.384 . S
C1533 C1532 1.377 . S
C1533 C1539 1.390 . S
C1534 H1525 0.930 1_565 S
C1534 C1532 1.384 . S
C1534 C1535 1.373 1_565 S
C1535 C1534 1.373 1_545 S
C1535 C1536 1.402 1_545 S
C1535 C1540 1.487 . S
C1536 H1526 0.930 . S
C1536 C1535 1.402 1_565 S
C1536 C1539 1.386 . S
H1537 C1553 0.930 . S
H1538 C1554 0.931 . S
C1539 H1527 0.929 . S
C1539 C1533 1.390 . S
C1539 C1536 1.386 . S
C1540 C1535 1.487 . S
C1540 C1542 1.395 . S
C1540 C1543 1.403 . S
H1541 C1547 0.930 . S
C1542 H1528 0.930 . S
C1542 C1540 1.395 . S
C1542 C1545 1.403 . S
C1543 C1540 1.403 . S
C1543 C1544 1.524 . S
C1543 C1547 1.400 . S
C1544 H1529 0.960 . S
C1544 H1530 0.960 . S
C1544 H1531 0.960 . S
C1544 C1543 1.524 . S
C1545 C1542 1.403 . S
C1545 C1546 1.392 . S
C1545 C1549 1.495 . S
C1546 C1545 1.392 . S
C1546 C1547 1.385 . S
C1546 C1548 1.478 . S
C1547 H1541 0.930 . S
C1547 C1543 1.400 . S
C1547 C1546 1.385 . S
C1548 C1546 1.478 . S
C1548 C1550 1.381 . S
C1548 C1554 1.383 . S
C1549 C1545 1.495 . S
C1549 H1555 0.959 . S
C1549 H1556 0.961 . S
C1549 H1557 0.960 . S
C1550 C1548 1.381 . S
C1550 C1551 1.394 . S
C1550 H1558 0.930 . S
C1551 C1550 1.394 . S
C1551 C1552 1.383 . S
C1551 H1559 0.929 . S
C1552 C1551 1.383 . S
C1552 C1553 1.377 . S
C1553 H1537 0.930 . S
C1553 C1552 1.377 . S
C1553 C1554 1.379 . S
C1554 H1538 0.931 . S
C1554 C1548 1.383 . S
C1554 C1553 1.379 . S
H1555 C1549 0.959 . S
H1556 C1549 0.961 . S
H1557 C1549 0.960 . S
H1558 C1550 0.930 . S
H1559 C1551 0.929 . S
H1560 C1568 0.929 . S
H1561 C1570 0.930 . S
H1562 C1572 0.930 . S
H1563 C1575 0.929 . S
H1564 C1578 0.930 . S
H1565 C1580 0.960 . S
H1566 C1580 0.960 . S
H1567 C1580 0.960 . S
C1568 H1560 0.929 . S
C1568 C1569 1.377 . S
C1568 C1570 1.384 . S
C1569 C1568 1.377 . S
C1569 C1575 1.390 . S
C1570 H1561 0.930 . S
C1570 C1568 1.384 . S
C1570 C1571 1.380 . S
C1571 C1570 1.380 . S
C1571 C1572 1.408 . S
C1571 C1576 1.474 1_545 S
C1572 H1562 0.930 . S
C1572 C1571 1.408 . S
C1572 C1575 1.386 . S
H1573 C1589 0.930 . S
H1574 C1590 0.931 . S
C1575 H1563 0.929 . S
C1575 C1569 1.390 . S
C1575 C1572 1.386 . S
C1576 C1571 1.474 1_565 S
C1576 C1578 1.395 . S
C1576 C1579 1.403 . S
H1577 C1583 0.930 . S
C1578 H1564 0.930 . S
C1578 C1576 1.395 . S
C1578 C1581 1.403 . S
C1579 C1576 1.403 . S
C1579 C1580 1.524 . S
C1579 C1583 1.400 . S
C1580 H1565 0.960 . S
C1580 H1566 0.960 . S
C1580 H1567 0.960 . S
C1580 C1579 1.524 . S
C1581 C1578 1.403 . S
C1581 C1582 1.392 . S
C1581 C1585 1.495 . S
C1582 C1581 1.392 . S
C1582 C1583 1.385 . S
C1582 C1584 1.478 . S
C1583 H1577 0.930 . S
C1583 C1579 1.400 . S
C1583 C1582 1.385 . S
C1584 C1582 1.478 . S
C1584 C1586 1.381 . S
C1584 C1590 1.383 . S
C1585 C1581 1.495 . S
C1585 H1591 0.959 . S
C1585 H1592 0.961 . S
C1585 H1593 0.960 . S
C1586 C1584 1.381 . S
C1586 C1587 1.394 . S
C1586 H1594 0.930 . S
C1587 C1586 1.394 . S
C1587 C1588 1.383 . S
C1587 H1595 0.929 . S
C1588 C1587 1.383 . S
C1588 C1589 1.377 . S
C1589 H1573 0.930 . S
C1589 C1588 1.377 . S
C1589 C1590 1.379 . S
C1590 H1574 0.931 . S
C1590 C1584 1.383 . S
C1590 C1589 1.379 . S
H1591 C1585 0.959 . S
H1592 C1585 0.961 . S
H1593 C1585 0.960 . S
H1594 C1586 0.930 . S
H1595 C1587 0.929 . S
H1596 C1604 0.929 . S
H1597 C1606 0.930 . S
H1598 C1608 0.930 . S
H1599 C1611 0.929 . S
H1600 C1614 0.930 . S
H1601 C1616 0.960 . S
H1602 C1616 0.960 . S
H1603 C1616 0.960 . S
C1604 H1596 0.929 . S
C1604 C1605 1.377 . S
C1604 C1606 1.384 . S
C1605 C1604 1.377 . S
C1605 C1611 1.390 . S
C1606 H1597 0.930 . S
C1606 C1604 1.384 . S
C1606 C1607 1.372 . S
C1607 C1606 1.372 . S
C1607 C1608 1.400 . S
C1607 C1612 1.490 . S
C1608 H1598 0.930 . S
C1608 C1607 1.400 . S
C1608 C1611 1.386 . S
H1609 C1625 0.930 . S
H1610 C1626 0.931 . S
C1611 H1599 0.929 . S
C1611 C1605 1.390 . S
C1611 C1608 1.386 . S
C1612 C1607 1.490 . S
C1612 C1614 1.395 . S
C1612 C1615 1.403 . S
H1613 C1619 0.930 . S
C1614 H1600 0.930 . S
C1614 C1612 1.395 . S
C1614 C1617 1.403 . S
C1615 C1612 1.403 . S
C1615 C1616 1.524 . S
C1615 C1619 1.400 . S
C1616 H1601 0.960 . S
C1616 H1602 0.960 . S
C1616 H1603 0.960 . S
C1616 C1615 1.524 . S
C1617 C1614 1.403 . S
C1617 C1618 1.392 . S
C1617 C1621 1.495 . S
C1618 C1617 1.392 . S
C1618 C1619 1.385 . S
C1618 C1620 1.478 . S
C1619 H1613 0.930 . S
C1619 C1615 1.400 . S
C1619 C1618 1.385 . S
C1620 C1618 1.478 . S
C1620 C1622 1.381 . S
C1620 C1626 1.383 . S
C1621 C1617 1.495 . S
C1621 H1627 0.959 . S
C1621 H1628 0.961 . S
C1621 H1629 0.960 . S
C1622 C1620 1.381 . S
C1622 C1623 1.394 . S
C1622 H1630 0.930 . S
C1623 C1622 1.394 . S
C1623 C1624 1.383 . S
C1623 H1631 0.929 . S
C1624 C1623 1.383 . S
C1624 C1625 1.377 . S
C1625 H1609 0.930 . S
C1625 C1624 1.377 . S
C1625 C1626 1.379 . S
C1626 H1610 0.931 . S
C1626 C1620 1.383 . S
C1626 C1625 1.379 . S
H1627 C1621 0.959 . S
H1628 C1621 0.961 . S
H1629 C1621 0.960 . S
H1630 C1622 0.930 . S
H1631 C1623 0.929 . S
H1632 C1640 0.929 . S
H1633 C1642 0.930 . S
H1634 C1644 0.930 . S
H1635 C1647 0.929 . S
H1636 C1650 0.930 . S
H1637 C1652 0.960 . S
H1638 C1652 0.960 . S
H1639 C1652 0.960 . S
C1640 H1632 0.929 . S
C1640 C1641 1.377 . S
C1640 C1642 1.384 . S
C1641 C1640 1.377 . S
C1641 C1647 1.390 . S
C1642 H1633 0.930 . S
C1642 C1640 1.384 . S
C1642 C1643 1.372 . S
C1643 C1642 1.372 . S
C1643 C1644 1.400 . S
C1643 C1648 1.490 . S
C1644 H1634 0.930 . S
C1644 C1643 1.400 . S
C1644 C1647 1.386 . S
H1645 C1661 0.930 . S
H1646 C1662 0.931 . S
C1647 H1635 0.929 . S
C1647 C1641 1.390 . S
C1647 C1644 1.386 . S
C1648 C1643 1.490 . S
C1648 C1650 1.395 . S
C1648 C1651 1.403 . S
H1649 C1655 0.930 . S
C1650 H1636 0.930 . S
C1650 C1648 1.395 . S
C1650 C1653 1.403 . S
C1651 C1648 1.403 . S
C1651 C1652 1.524 . S
C1651 C1655 1.400 . S
C1652 H1637 0.960 . S
C1652 H1638 0.960 . S
C1652 H1639 0.960 . S
C1652 C1651 1.524 . S
C1653 C1650 1.403 . S
C1653 C1654 1.392 . S
C1653 C1657 1.495 . S
C1654 C1653 1.392 . S
C1654 C1655 1.385 . S
C1654 C1656 1.478 . S
C1655 H1649 0.930 . S
C1655 C1651 1.400 . S
C1655 C1654 1.385 . S
C1656 C1654 1.478 . S
C1656 C1658 1.381 . S
C1656 C1662 1.383 . S
C1657 C1653 1.495 . S
C1657 H1663 0.959 . S
C1657 H1664 0.961 . S
C1657 H1665 0.960 . S
C1658 C1656 1.381 . S
C1658 C1659 1.394 . S
C1658 H1666 0.930 . S
C1659 C1658 1.394 . S
C1659 C1660 1.383 . S
C1659 H1667 0.929 . S
C1660 C1659 1.383 . S
C1660 C1661 1.377 . S
C1661 H1645 0.930 . S
C1661 C1660 1.377 . S
C1661 C1662 1.379 . S
C1662 H1646 0.931 . S
C1662 C1656 1.383 . S
C1662 C1661 1.379 . S
H1663 C1657 0.959 . S
H1664 C1657 0.961 . S
H1665 C1657 0.960 . S
H1666 C1658 0.930 . S
H1667 C1659 0.929 . S
H1668 C1676 0.929 . S
H1669 C1678 0.930 1_554 S
H1670 C1680 0.930 . S
H1671 C1683 0.929 . S
H1672 C1686 0.930 . S
H1673 C1688 0.960 . S
H1674 C1688 0.960 . S
H1675 C1688 0.960 . S
C1676 H1668 0.929 . S
C1676 C1677 1.377 . S
C1676 C1678 1.384 . S
C1677 C1676 1.377 . S
C1677 C1683 1.390 . S
C1678 H1669 0.930 1_556 S
C1678 C1676 1.384 . S
C1678 C1679 1.372 1_556 S
C1679 C1678 1.372 1_554 S
C1679 C1680 1.400 1_554 S
C1679 C1684 1.490 . S
C1680 H1670 0.930 . S
C1680 C1679 1.400 1_556 S
C1680 C1683 1.386 . S
H1681 C1697 0.930 . S
H1682 C1698 0.931 . S
C1683 H1671 0.929 . S
C1683 C1677 1.390 . S
C1683 C1680 1.386 . S
C1684 C1679 1.490 . S
C1684 C1686 1.395 . S
C1684 C1687 1.403 . S
H1685 C1691 0.930 . S
C1686 H1672 0.930 . S
C1686 C1684 1.395 . S
C1686 C1689 1.403 . S
C1687 C1684 1.403 . S
C1687 C1688 1.524 . S
C1687 C1691 1.400 . S
C1688 H1673 0.960 . S
C1688 H1674 0.960 . S
C1688 H1675 0.960 . S
C1688 C1687 1.524 . S
C1689 C1686 1.403 . S
C1689 C1690 1.392 . S
C1689 C1693 1.495 . S
C1690 C1689 1.392 . S
C1690 C1691 1.385 . S
C1690 C1692 1.478 . S
C1691 H1685 0.930 . S
C1691 C1687 1.400 . S
C1691 C1690 1.385 . S
C1692 C1690 1.478 . S
C1692 C1694 1.381 . S
C1692 C1698 1.383 . S
C1693 C1689 1.495 . S
C1693 H1699 0.959 . S
C1693 H1700 0.961 . S
C1693 H1701 0.960 . S
C1694 C1692 1.381 . S
C1694 C1695 1.394 . S
C1694 H1702 0.930 . S
C1695 C1694 1.394 . S
C1695 C1696 1.383 . S
C1695 H1703 0.929 . S
C1696 C1695 1.383 . S
C1696 C1697 1.377 . S
C1697 H1681 0.930 . S
C1697 C1696 1.377 . S
C1697 C1698 1.379 . S
C1698 H1682 0.931 . S
C1698 C1692 1.383 . S
C1698 C1697 1.379 . S
H1699 C1693 0.959 . S
H1700 C1693 0.961 . S
H1701 C1693 0.960 . S
H1702 C1694 0.930 . S
H1703 C1695 0.929 . S
H1704 C1712 0.929 . S
H1705 C1714 0.930 . S
H1706 C1716 0.930 . S
H1707 C1719 0.929 . S
H1708 C1722 0.930 . S
H1709 C1724 0.960 . S
H1710 C1724 0.960 . S
H1711 C1724 0.960 . S
C1712 H1704 0.929 . S
C1712 C1713 1.377 . S
C1712 C1714 1.384 . S
C1713 C1712 1.377 . S
C1713 C1719 1.390 . S
C1714 H1705 0.930 . S
C1714 C1712 1.384 . S
C1714 C1715 1.372 . S
C1715 C1714 1.372 . S
C1715 C1716 1.400 . S
C1715 C1720 1.490 . S
C1716 H1706 0.930 . S
C1716 C1715 1.400 . S
C1716 C1719 1.386 . S
H1717 C1733 0.930 . S
H1718 C1734 0.931 . S
C1719 H1707 0.929 . S
C1719 C1713 1.390 . S
C1719 C1716 1.386 . S
C1720 C1715 1.490 . S
C1720 C1722 1.395 . S
C1720 C1723 1.403 . S
H1721 C1727 0.930 . S
C1722 H1708 0.930 . S
C1722 C1720 1.395 . S
C1722 C1725 1.403 . S
C1723 C1720 1.403 . S
C1723 C1724 1.524 . S
C1723 C1727 1.400 . S
C1724 H1709 0.960 . S
C1724 H1710 0.960 . S
C1724 H1711 0.960 . S
C1724 C1723 1.524 . S
C1725 C1722 1.403 . S
C1725 C1726 1.392 . S
C1725 C1729 1.495 . S
C1726 C1725 1.392 . S
C1726 C1727 1.385 . S
C1726 C1728 1.478 . S
C1727 H1721 0.930 . S
C1727 C1723 1.400 . S
C1727 C1726 1.385 . S
C1728 C1726 1.478 . S
C1728 C1730 1.381 . S
C1728 C1734 1.383 . S
C1729 C1725 1.495 . S
C1729 H1735 0.959 . S
C1729 H1736 0.961 . S
C1729 H1737 0.960 . S
C1730 C1728 1.381 . S
C1730 C1731 1.394 . S
C1730 H1738 0.930 . S
C1731 C1730 1.394 . S
C1731 C1732 1.383 . S
C1731 H1739 0.929 . S
C1732 C1731 1.383 . S
C1732 C1733 1.377 . S
C1733 H1717 0.930 . S
C1733 C1732 1.377 . S
C1733 C1734 1.379 . S
C1734 H1718 0.931 . S
C1734 C1728 1.383 . S
C1734 C1733 1.379 . S
H1735 C1729 0.959 . S
H1736 C1729 0.961 . S
H1737 C1729 0.960 . S
H1738 C1730 0.930 . S
H1739 C1731 0.929 . S
H1740 C1748 0.929 . S
H1741 C1750 0.930 . S
H1742 C1752 0.953 . S
H1743 C1755 0.929 . S
H1744 C1758 0.930 . S
H1745 C1760 0.960 . S
H1746 C1760 0.960 . S
H1747 C1760 0.960 . S
C1748 H1740 0.929 . S
C1748 C1749 1.377 . S
C1748 C1750 1.384 . S
C1749 C1748 1.377 . S
C1749 C1755 1.390 . S
C1750 H1741 0.930 . S
C1750 C1748 1.384 . S
C1750 C1751 1.372 1_554 S
C1751 C1750 1.372 1_556 S
C1751 C1752 1.406 . S
C1751 C1756 1.490 . S
C1752 H1742 0.953 . S
C1752 C1751 1.406 . S
C1752 C1755 1.356 1_556 S
H1753 C1769 0.930 . S
H1754 C1770 0.931 . S
C1755 H1743 0.929 . S
C1755 C1749 1.390 . S
C1755 C1752 1.356 1_554 S
C1756 C1751 1.490 . S
C1756 C1758 1.395 . S
C1756 C1759 1.403 . S
H1757 C1763 0.930 . S
C1758 H1744 0.930 . S
C1758 C1756 1.395 . S
C1758 C1761 1.403 . S
C1759 C1756 1.403 . S
C1759 C1760 1.524 . S
C1759 C1763 1.400 . S
C1760 H1745 0.960 . S
C1760 H1746 0.960 . S
C1760 H1747 0.960 . S
C1760 C1759 1.524 . S
C1761 C1758 1.403 . S
C1761 C1762 1.392 . S
C1761 C1765 1.495 . S
C1762 C1761 1.392 . S
C1762 C1763 1.385 . S
C1762 C1764 1.478 . S
C1763 H1757 0.930 . S
C1763 C1759 1.400 . S
C1763 C1762 1.385 . S
C1764 C1762 1.478 . S
C1764 C1766 1.381 . S
C1764 C1770 1.383 . S
C1765 C1761 1.495 . S
C1765 H1771 0.959 . S
C1765 H1772 0.961 . S
C1765 H1773 0.960 . S
C1766 C1764 1.381 . S
C1766 C1767 1.394 . S
C1766 H1774 0.930 . S
C1767 C1766 1.394 . S
C1767 C1768 1.383 . S
C1767 H1775 0.929 . S
C1768 C1767 1.383 . S
C1768 C1769 1.377 . S
C1769 H1753 0.930 . S
C1769 C1768 1.377 . S
C1769 C1770 1.379 . S
C1770 H1754 0.931 . S
C1770 C1764 1.383 . S
C1770 C1769 1.379 . S
H1771 C1765 0.959 . S
H1772 C1765 0.961 . S
H1773 C1765 0.960 . S
H1774 C1766 0.930 . S
H1775 C1767 0.929 . S
H1776 C1784 0.929 . S
H1777 C1786 0.930 . S
H1778 C1788 0.930 . S
H1779 C1791 0.929 . S
H1780 C1794 0.930 . S
H1781 C1796 0.960 . S
H1782 C1796 0.960 . S
H1783 C1796 0.960 . S
C1784 H1776 0.929 . S
C1784 C1785 1.377 . S
C1784 C1786 1.384 . S
C1785 C1784 1.377 . S
C1785 C1791 1.390 . S
C1786 H1777 0.930 . S
C1786 C1784 1.384 . S
C1786 C1787 1.372 . S
C1787 C1786 1.372 . S
C1787 C1788 1.400 . S
C1787 C1792 1.490 . S
C1788 H1778 0.930 . S
C1788 C1787 1.400 . S
C1788 C1791 1.386 . S
H1789 C1805 0.930 . S
H1790 C1806 0.931 . S
C1791 H1779 0.929 . S
C1791 C1785 1.390 . S
C1791 C1788 1.386 . S
C1792 C1787 1.490 . S
C1792 C1794 1.395 . S
C1792 C1795 1.403 . S
H1793 C1799 0.930 . S
C1794 H1780 0.930 . S
C1794 C1792 1.395 . S
C1794 C1797 1.403 . S
C1795 C1792 1.403 . S
C1795 C1796 1.524 . S
C1795 C1799 1.400 . S
C1796 H1781 0.960 . S
C1796 H1782 0.960 . S
C1796 H1783 0.960 . S
C1796 C1795 1.524 . S
C1797 C1794 1.403 . S
C1797 C1798 1.392 . S
C1797 C1801 1.495 . S
C1798 C1797 1.392 . S
C1798 C1799 1.385 . S
C1798 C1800 1.478 . S
C1799 H1793 0.930 . S
C1799 C1795 1.400 . S
C1799 C1798 1.385 . S
C1800 C1798 1.478 . S
C1800 C1802 1.381 . S
C1800 C1806 1.383 . S
C1801 C1797 1.495 . S
C1801 H1807 0.959 . S
C1801 H1808 0.961 . S
C1801 H1809 0.960 . S
C1802 C1800 1.381 . S
C1802 C1803 1.394 . S
C1802 H1810 0.930 . S
C1803 C1802 1.394 . S
C1803 C1804 1.383 . S
C1803 H1811 0.929 . S
C1804 C1803 1.383 . S
C1804 C1805 1.377 . S
C1805 H1789 0.930 . S
C1805 C1804 1.377 . S
C1805 C1806 1.379 . S
C1806 H1790 0.931 . S
C1806 C1800 1.383 . S
C1806 C1805 1.379 . S
H1807 C1801 0.959 . S
H1808 C1801 0.961 . S
H1809 C1801 0.960 . S
H1810 C1802 0.930 . S
H1811 C1803 0.929 . S
H1812 C1820 0.929 . S
H1813 C1822 0.930 . S
H1814 C1824 0.930 . S
H1815 C1827 0.929 . S
H1816 C1830 0.930 . S
H1817 C1832 0.960 . S
H1818 C1832 0.960 . S
H1819 C1832 0.960 . S
C1820 H1812 0.929 . S
C1820 C1821 1.377 . S
C1820 C1822 1.384 . S
C1821 C1820 1.377 . S
C1821 C1827 1.390 . S
C1822 H1813 0.930 . S
C1822 C1820 1.384 . S
C1822 C1823 1.372 . S
C1823 C1822 1.372 . S
C1823 C1824 1.400 . S
C1823 C1828 1.490 . S
C1824 H1814 0.930 . S
C1824 C1823 1.400 . S
C1824 C1827 1.386 . S
H1825 C1841 0.930 . S
H1826 C1842 0.931 . S
C1827 H1815 0.929 . S
C1827 C1821 1.390 . S
C1827 C1824 1.386 . S
C1828 C1823 1.490 . S
C1828 C1830 1.395 . S
C1828 C1831 1.403 . S
H1829 C1835 0.930 . S
C1830 H1816 0.930 . S
C1830 C1828 1.395 . S
C1830 C1833 1.403 . S
C1831 C1828 1.403 . S
C1831 C1832 1.524 . S
C1831 C1835 1.400 . S
C1832 H1817 0.960 . S
C1832 H1818 0.960 . S
C1832 H1819 0.960 . S
C1832 C1831 1.524 . S
C1833 C1830 1.403 . S
C1833 C1834 1.392 . S
C1833 C1837 1.495 . S
C1834 C1833 1.392 . S
C1834 C1835 1.385 . S
C1834 C1836 1.478 1_655 S
C1835 H1829 0.930 . S
C1835 C1831 1.400 . S
C1835 C1834 1.385 . S
C1836 C1834 1.478 1_455 S
C1836 C1838 1.381 . S
C1836 C1842 1.383 . S
C1837 C1833 1.495 . S
C1837 H1843 0.959 . S
C1837 H1844 0.961 . S
C1837 H1845 0.960 . S
C1838 C1836 1.381 . S
C1838 C1839 1.394 . S
C1838 H1846 0.930 1_455 S
C1839 C1838 1.394 . S
C1839 C1840 1.383 . S
C1839 H1847 0.929 . S
C1840 C1839 1.383 . S
C1840 C1841 1.377 . S
C1841 H1825 0.930 . S
C1841 C1840 1.377 . S
C1841 C1842 1.379 . S
C1842 H1826 0.931 . S
C1842 C1836 1.383 . S
C1842 C1841 1.379 . S
H1843 C1837 0.959 . S
H1844 C1837 0.961 . S
H1845 C1837 0.960 . S
H1846 C1838 0.930 1_655 S
H1847 C1839 0.929 . S
H1848 C1856 0.929 . S
H1849 C1858 0.930 . S
H1850 C1860 0.930 . S
H1851 C1863 0.929 . S
H1852 C1866 0.930 . S
H1853 C1868 0.960 . S
H1854 C1868 0.960 . S
H1855 C1868 0.960 . S
C1856 H1848 0.929 . S
C1856 C1857 1.377 . S
C1856 C1858 1.384 . S
C1857 C1856 1.377 . S
C1857 C1863 1.390 . S
C1858 H1849 0.930 . S
C1858 C1856 1.384 . S
C1858 C1859 1.372 . S
C1859 C1858 1.372 . S
C1859 C1860 1.400 . S
C1859 C1864 1.490 . S
C1860 H1850 0.930 . S
C1860 C1859 1.400 . S
C1860 C1863 1.386 . S
H1861 C1877 0.930 . S
H1862 C1878 0.931 1_455 S
C1863 H1851 0.929 . S
C1863 C1857 1.390 . S
C1863 C1860 1.386 . S
C1864 C1859 1.490 . S
C1864 C1866 1.395 . S
C1864 C1867 1.403 . S
H1865 C1871 0.930 . S
C1866 H1852 0.930 . S
C1866 C1864 1.395 . S
C1866 C1869 1.403 . S
C1867 C1864 1.403 . S
C1867 C1868 1.524 . S
C1867 C1871 1.400 . S
C1868 H1853 0.960 . S
C1868 H1854 0.960 . S
C1868 H1855 0.960 . S
C1868 C1867 1.524 . S
C1869 C1866 1.403 . S
C1869 C1870 1.392 . S
C1869 C1873 1.495 . S
C1870 C1869 1.392 . S
C1870 C1871 1.385 . S
C1870 C1872 1.478 1_455 S
C1871 H1865 0.930 . S
C1871 C1867 1.400 . S
C1871 C1870 1.385 . S
C1872 C1870 1.478 1_655 S
C1872 C1874 1.381 . S
C1872 C1878 1.383 . S
C1873 C1869 1.495 . S
C1873 H1879 0.959 . S
C1873 H1880 0.961 . S
C1873 H1881 0.960 . S
C1874 C1872 1.381 . S
C1874 C1875 1.394 . S
C1874 H1882 0.930 . S
C1875 C1874 1.394 . S
C1875 C1876 1.383 . S
C1875 H1883 0.929 . S
C1876 C1875 1.383 . S
C1876 C1877 1.377 . S
C1877 H1861 0.930 . S
C1877 C1876 1.377 . S
C1877 C1878 1.379 . S
C1878 H1862 0.931 1_655 S
C1878 C1872 1.383 . S
C1878 C1877 1.379 . S
H1879 C1873 0.959 . S
H1880 C1873 0.961 . S
H1881 C1873 0.960 . S
H1882 C1874 0.930 . S
H1883 C1875 0.929 . S
H1884 C1892 0.929 . S
H1885 C1894 0.930 . S
H1886 C1896 0.930 . S
H1887 C1899 0.929 . S
H1888 C1902 0.930 . S
H1889 C1904 0.960 . S
H1890 C1904 0.960 . S
H1891 C1904 0.960 . S
C1892 H1884 0.929 . S
C1892 C1893 1.377 . S
C1892 C1894 1.384 . S
C1893 C1892 1.377 . S
C1893 C1899 1.390 . S
C1894 H1885 0.930 . S
C1894 C1892 1.384 . S
C1894 C1895 1.372 . S
C1895 C1894 1.372 . S
C1895 C1896 1.400 . S
C1895 C1900 1.490 . S
C1896 H1886 0.930 . S
C1896 C1895 1.400 . S
C1896 C1899 1.386 . S
H1897 C1913 0.930 . S
H1898 C1914 0.931 . S
C1899 H1887 0.929 . S
C1899 C1893 1.390 . S
C1899 C1896 1.386 . S
C1900 C1895 1.490 . S
C1900 C1902 1.395 . S
C1900 C1903 1.403 . S
H1901 C1907 0.930 . S
C1902 H1888 0.930 . S
C1902 C1900 1.395 . S
C1902 C1905 1.403 . S
C1903 C1900 1.403 . S
C1903 C1904 1.524 . S
C1903 C1907 1.400 . S
C1904 H1889 0.960 . S
C1904 H1890 0.960 . S
C1904 H1891 0.960 . S
C1904 C1903 1.524 . S
C1905 C1902 1.403 . S
C1905 C1906 1.392 . S
C1905 C1909 1.495 . S
C1906 C1905 1.392 . S
C1906 C1907 1.385 . S
C1906 C1908 1.478 . S
C1907 H1901 0.930 . S
C1907 C1903 1.400 . S
C1907 C1906 1.385 . S
C1908 C1906 1.478 . S
C1908 C1910 1.381 . S
C1908 C1914 1.383 . S
C1909 C1905 1.495 . S
C1909 H1915 0.959 . S
C1909 H1916 0.961 . S
C1909 H1917 0.960 . S
C1910 C1908 1.381 . S
C1910 C1911 1.394 . S
C1910 H1918 0.930 . S
C1911 C1910 1.394 . S
C1911 C1912 1.383 . S
C1911 H1919 0.929 . S
C1912 C1911 1.383 . S
C1912 C1913 1.377 . S
C1913 H1897 0.930 . S
C1913 C1912 1.377 . S
C1913 C1914 1.379 . S
C1914 H1898 0.931 . S
C1914 C1908 1.383 . S
C1914 C1913 1.379 . S
H1915 C1909 0.959 . S
H1916 C1909 0.961 . S
H1917 C1909 0.960 . S
H1918 C1910 0.930 . S
H1919 C1911 0.929 . S
H1920 C1928 0.929 . S
H1921 C1930 0.930 . S
H1922 C1932 0.930 . S
H1923 C1935 0.929 . S
H1924 C1938 0.930 . S
H1925 C1940 0.960 . S
H1926 C1940 0.960 . S
H1927 C1940 0.960 . S
C1928 H1920 0.929 . S
C1928 C1929 1.377 . S
C1928 C1930 1.384 . S
C1929 C1928 1.377 . S
C1929 C1935 1.390 . S
C1930 H1921 0.930 . S
C1930 C1928 1.384 . S
C1930 C1931 1.372 . S
C1931 C1930 1.372 . S
C1931 C1932 1.400 . S
C1931 C1936 1.490 . S
C1932 H1922 0.930 . S
C1932 C1931 1.400 . S
C1932 C1935 1.386 . S
H1933 C1949 0.930 . S
H1934 C1950 0.931 . S
C1935 H1923 0.929 . S
C1935 C1929 1.390 . S
C1935 C1932 1.386 . S
C1936 C1931 1.490 . S
C1936 C1938 1.395 . S
C1936 C1939 1.403 . S
H1937 C1943 0.930 . S
C1938 H1924 0.930 . S
C1938 C1936 1.395 . S
C1938 C1941 1.403 . S
C1939 C1936 1.403 . S
C1939 C1940 1.524 . S
C1939 C1943 1.400 . S
C1940 H1925 0.960 . S
C1940 H1926 0.960 . S
C1940 H1927 0.960 . S
C1940 C1939 1.524 . S
C1941 C1938 1.403 . S
C1941 C1942 1.392 . S
C1941 C1945 1.495 . S
C1942 C1941 1.392 . S
C1942 C1943 1.385 . S
C1942 C1944 1.478 . S
C1943 H1937 0.930 . S
C1943 C1939 1.400 . S
C1943 C1942 1.385 . S
C1944 C1942 1.478 . S
C1944 C1946 1.381 . S
C1944 C1950 1.383 . S
C1945 C1941 1.495 . S
C1945 H1951 0.959 . S
C1945 H1952 0.961 . S
C1945 H1953 0.960 . S
C1946 C1944 1.381 . S
C1946 C1947 1.394 . S
C1946 H1954 0.930 . S
C1947 C1946 1.394 . S
C1947 C1948 1.383 . S
C1947 H1955 0.929 . S
C1948 C1947 1.383 . S
C1948 C1949 1.377 . S
C1949 H1933 0.930 . S
C1949 C1948 1.377 . S
C1949 C1950 1.379 . S
C1950 H1934 0.931 . S
C1950 C1944 1.383 . S
C1950 C1949 1.379 . S
H1951 C1945 0.959 . S
H1952 C1945 0.961 . S
H1953 C1945 0.960 . S
H1954 C1946 0.930 . S
H1955 C1947 0.929 . S
H1956 C1964 0.929 . S
H1957 C1966 0.930 . S
H1958 C1968 0.930 . S
H1959 C1971 0.929 . S
H1960 C1974 0.930 . S
H1961 C1976 0.960 . S
H1962 C1976 0.960 . S
H1963 C1976 0.960 . S
C1964 H1956 0.929 . S
C1964 C1965 1.377 . S
C1964 C1966 1.384 . S
C1965 C1964 1.377 . S
C1965 C1971 1.390 . S
C1966 H1957 0.930 . S
C1966 C1964 1.384 . S
C1966 C1967 1.372 . S
C1967 C1966 1.372 . S
C1967 C1968 1.400 . S
C1967 C1972 1.490 . S
C1968 H1958 0.930 . S
C1968 C1967 1.400 . S
C1968 C1971 1.386 . S
H1969 C1985 0.930 . S
H1970 C1986 0.931 1_565 S
C1971 H1959 0.929 . S
C1971 C1965 1.390 . S
C1971 C1968 1.386 . S
C1972 C1967 1.490 . S
C1972 C1974 1.395 . S
C1972 C1975 1.403 . S
H1973 C1979 0.930 . S
C1974 H1960 0.930 . S
C1974 C1972 1.395 . S
C1974 C1977 1.403 . S
C1975 C1972 1.403 . S
C1975 C1976 1.524 . S
C1975 C1979 1.400 . S
C1976 H1961 0.960 . S
C1976 H1962 0.960 . S
C1976 H1963 0.960 . S
C1976 C1975 1.524 . S
C1977 C1974 1.403 . S
C1977 C1978 1.392 . S
C1977 C1981 1.495 . S
C1978 C1977 1.392 . S
C1978 C1979 1.385 . S
C1978 C1980 1.478 . S
C1979 H1973 0.930 . S
C1979 C1975 1.400 . S
C1979 C1978 1.385 . S
C1980 C1978 1.478 . S
C1980 C1982 1.381 1_565 S
C1980 C1986 1.383 1_565 S
C1981 C1977 1.495 . S
C1981 H1987 0.959 . S
C1981 H1988 0.961 . S
C1981 H1989 0.960 . S
C1982 C1980 1.381 1_545 S
C1982 C1983 1.394 . S
C1982 H1990 0.930 . S
C1983 C1982 1.394 . S
C1983 C1984 1.383 . S
C1983 H1991 0.929 . S
C1984 C1983 1.383 . S
C1984 C1985 1.377 . S
C1985 H1969 0.930 . S
C1985 C1984 1.377 . S
C1985 C1986 1.379 . S
C1986 H1970 0.931 1_545 S
C1986 C1980 1.383 1_545 S
C1986 C1985 1.379 . S
H1987 C1981 0.959 . S
H1988 C1981 0.961 . S
H1989 C1981 0.960 . S
H1990 C1982 0.930 . S
H1991 C1983 0.929 . S
H1992 C2000 0.929 . S
H1993 C2002 0.930 1_545 S
H1994 C2004 0.930 . S
H1995 C2007 0.929 . S
H1996 C2010 0.930 . S
H1997 C2012 0.960 . S
H1998 C2012 0.960 . S
H1999 C2012 0.960 . S
C2000 H1992 0.929 . S
C2000 C2001 1.377 . S
C2000 C2002 1.384 . S
C2001 C2000 1.377 . S
C2001 C2007 1.390 . S
C2002 H1993 0.930 1_565 S
C2002 C2000 1.384 . S
C2002 C2003 1.372 1_565 S
C2003 C2002 1.372 1_545 S
C2003 C2004 1.400 1_545 S
C2003 C2008 1.490 . S
C2004 H1994 0.930 . S
C2004 C2003 1.400 1_565 S
C2004 C2007 1.386 . S
H2005 C2021 0.930 . S
H2006 C2022 0.931 . S
C2007 H1995 0.929 . S
C2007 C2001 1.390 . S
C2007 C2004 1.386 . S
C2008 C2003 1.490 . S
C2008 C2010 1.395 . S
C2008 C2011 1.403 . S
H2009 C2015 0.930 . S
C2010 H1996 0.930 . S
C2010 C2008 1.395 . S
C2010 C2013 1.403 . S
C2011 C2008 1.403 . S
C2011 C2012 1.524 . S
C2011 C2015 1.400 . S
C2012 H1997 0.960 . S
C2012 H1998 0.960 . S
C2012 H1999 0.960 . S
C2012 C2011 1.524 . S
C2013 C2010 1.403 . S
C2013 C2014 1.392 . S
C2013 C2017 1.495 . S
C2014 C2013 1.392 . S
C2014 C2015 1.385 . S
C2014 C2016 1.478 . S
C2015 H2009 0.930 . S
C2015 C2011 1.400 . S
C2015 C2014 1.385 . S
C2016 C2014 1.478 . S
C2016 C2018 1.381 . S
C2016 C2022 1.383 . S
C2017 C2013 1.495 . S
C2017 H2023 0.959 . S
C2017 H2024 0.961 . S
C2017 H2025 0.960 . S
C2018 C2016 1.381 . S
C2018 C2019 1.394 . S
C2018 H2026 0.930 . S
C2019 C2018 1.394 . S
C2019 C2020 1.383 . S
C2019 H2027 0.929 . S
C2020 C2019 1.383 . S
C2020 C2021 1.377 . S
C2021 H2005 0.930 . S
C2021 C2020 1.377 . S
C2021 C2022 1.379 . S
C2022 H2006 0.931 . S
C2022 C2016 1.383 . S
C2022 C2021 1.379 . S
H2023 C2017 0.959 . S
H2024 C2017 0.961 . S
H2025 C2017 0.960 . S
H2026 C2018 0.930 . S
H2027 C2019 0.929 . S
H2028 C2036 0.929 . S
H2029 C2038 0.930 . S
H2030 C2040 0.930 . S
H2031 C2043 0.929 . S
H2032 C2046 0.930 . S
H2033 C2048 0.960 . S
H2034 C2048 0.960 . S
H2035 C2048 0.960 . S
C2036 H2028 0.929 . S
C2036 C2037 1.377 . S
C2036 C2038 1.384 . S
C2037 C2036 1.377 . S
C2037 C2043 1.390 . S
C2038 H2029 0.930 . S
C2038 C2036 1.384 . S
C2038 C2039 1.372 . S
C2039 C2038 1.372 . S
C2039 C2040 1.400 . S
C2039 C2044 1.490 . S
C2040 H2030 0.930 . S
C2040 C2039 1.400 . S
C2040 C2043 1.386 . S
H2041 C2057 0.930 . S
H2042 C2058 0.931 . S
C2043 H2031 0.929 . S
C2043 C2037 1.390 . S
C2043 C2040 1.386 . S
C2044 C2039 1.490 . S
C2044 C2046 1.395 . S
C2044 C2047 1.403 . S
H2045 C2051 0.930 . S
C2046 H2032 0.930 . S
C2046 C2044 1.395 . S
C2046 C2049 1.403 . S
C2047 C2044 1.403 . S
C2047 C2048 1.524 . S
C2047 C2051 1.400 . S
C2048 H2033 0.960 . S
C2048 H2034 0.960 . S
C2048 H2035 0.960 . S
C2048 C2047 1.524 . S
C2049 C2046 1.403 . S
C2049 C2050 1.392 . S
C2049 C2053 1.495 . S
C2050 C2049 1.392 . S
C2050 C2051 1.385 . S
C2050 C2052 1.478 . S
C2051 H2045 0.930 . S
C2051 C2047 1.400 . S
C2051 C2050 1.385 . S
C2052 C2050 1.478 . S
C2052 C2054 1.381 . S
C2052 C2058 1.383 . S
C2053 C2049 1.495 . S
C2053 H2059 0.959 . S
C2053 H2060 0.961 . S
C2053 H2061 0.960 . S
C2054 C2052 1.381 . S
C2054 C2055 1.394 . S
C2054 H2062 0.930 . S
C2055 C2054 1.394 . S
C2055 C2056 1.383 . S
C2055 H2063 0.929 . S
C2056 C2055 1.383 . S
C2056 C2057 1.377 . S
C2057 H2041 0.930 . S
C2057 C2056 1.377 . S
C2057 C2058 1.379 . S
C2058 H2042 0.931 . S
C2058 C2052 1.383 . S
C2058 C2057 1.379 . S
H2059 C2053 0.959 . S
H2060 C2053 0.961 . S
H2061 C2053 0.960 . S
H2062 C2054 0.930 . S
H2063 C2055 0.929 . S
C345 C120 0.788 . S
C364 C7 0.811 . S
C381 C21 0.787 . S
C400 C162 0.835 . S
C417 C35 0.794 . S
C436 C134 0.749 . S
C453 C49 0.783 . S
C472 C148 0.844 . S
C489 C63 0.760 . S
C508 C8 0.805 . S
C525 C22 0.774 . S
C544 C77 0.735 . S
C561 C91 0.773 . S
C580 C36 0.705 . S
C597 C50 0.774 . S
C616 C105 0.735 . S
C633 C64 0.834 . S
C652 C119 0.865 . S
C669 C92 0.828 . S
C688 C133 0.842 . S
C705 C147 0.835 . S
C724 C106 0.887 . S
C741 C78 0.831 . S
C760 C161 0.873 . S
C777 C288 0.770 . S
C796 C175 0.797 . S
C813 C189 0.773 . S
C832 C330 0.811 . S
C849 C203 0.776 . S
C868 C302 0.820 . S
C885 C316 0.756 . S
C904 C217 0.728 . S
C921 C232 0.822 . S
C940 C176 0.805 . S
C957 C190 0.832 . S
C976 C246 0.876 . S
C993 C204 0.823 . S
C1012 C260 0.797 . S
C1029 C274 0.806 . S
C1048 C218 0.767 . S
C1065 C287 0.736 . S
C1084 C231 0.705 . S
C1101 C259 0.731 . S
C1120 C301 0.753 . S
C1137 C273 0.729 . S
C1156 C315 0.679 . S
C1173 C329 0.730 . S
C1192 C245 0.750 . S
C1209 C319 1.258 . S
C1228 C13 1.215 . S
C1245 C305 1.257 . S
C1264 C27 1.183 . S
C1281 C333 1.261 . S
C1300 C41 1.230 . S
C1317 C55 1.194 . S
C1336 C291 1.245 . S
C1353 C69 1.255 . S
C1372 C193 1.301 . S
C1389 C179 1.316 . S
C1408 C83 1.225 . S
C1425 C221 1.317 . S
C1444 C97 1.226 . S
C1461 C207 1.318 . S
C1480 C111 1.289 . S
C1497 C125 1.287 . S
C1516 C265 1.246 . S
C1533 C237 1.273 . S
C1552 C139 1.278 . S
C1569 C251 1.269 . S
C1588 C153 1.249 . S
C1605 C279 1.276 . S
C1624 C167 1.294 . S
C1641 C151 1.358 . S
C1660 C181 1.263 . S
C1677 C137 1.357 . S
C1696 C195 1.291 . S
C1713 C209 1.275 . S
C1732 C165 1.361 . S
C1749 C123 1.358 . S
C1768 C223 1.298 . S
C1785 C235 1.277 . S
C1804 C25 1.309 . S
C1821 C249 1.282 . S
C1840 C11 1.297 . S
C1857 C263 1.282 . S
C1876 C53 1.287 . S
C1893 C277 1.284 . S
C1912 C39 1.289 . S
C1929 C293 1.209 . S
C1948 C95 1.254 . S
C1965 C307 1.206 . S
C1984 C67 1.263 . S
C2001 C81 1.271 . S
C2020 C321 1.157 . S
C2037 C335 1.198 . S
C2056 C109 1.262 . S
