# Generated by pormake.
# Topology npo, (4)-cn, num edge types: 1
# Building blocks:
#     Node 0, Type 0, BuildingBlock: AZAVOO_clean_sbu_0, # of connection points: 4
#     Node 1, Type 0, BuildingBlock: AZAVOO_clean_sbu_0, # of connection points: 4
#     Node 2, Type 0, BuildingBlock: AZAVOO_clean_sbu_0, # of connection points: 4
#     Node 3, Type 0, BuildingBlock: AZAVOO_clean_sbu_0, # of connection points: 4
#     Node 4, Type 0, BuildingBlock: AZAVOO_clean_sbu_0, # of connection points: 4
#     Node 5, Type 0, BuildingBlock: AZAVOO_clean_sbu_0, # of connection points: 4
#     Edge 6, Type (0, 0), BuildingBlock: MIFKUJ_clean_linker_0, # of connection points: 2
#     Edge 7, Type (0, 0), BuildingBlock: MIFKUJ_clean_linker_0, # of connection points: 2
#     Edge 8, Type (0, 0), BuildingBlock: MIFKUJ_clean_linker_0, # of connection points: 2
#     Edge 9, Type (0, 0), BuildingBlock: MIFKUJ_clean_linker_0, # of connection points: 2
#     Edge 10, Type (0, 0), BuildingBlock: MIFKUJ_clean_linker_0, # of connection points: 2
#     Edge 11, Type (0, 0), BuildingBlock: MIFKUJ_clean_linker_0, # of connection points: 2
#     Edge 12, Type (0, 0), BuildingBlock: MIFKUJ_clean_linker_0, # of connection points: 2
#     Edge 13, Type (0, 0), BuildingBlock: MIFKUJ_clean_linker_0, # of connection points: 2
#     Edge 14, Type (0, 0), BuildingBlock: MIFKUJ_clean_linker_0, # of connection points: 2
#     Edge 15, Type (0, 0), BuildingBlock: MIFKUJ_clean_linker_0, # of connection points: 2
#     Edge 16, Type (0, 0), BuildingBlock: MIFKUJ_clean_linker_0, # of connection points: 2
#     Edge 17, Type (0, 0), BuildingBlock: MIFKUJ_clean_linker_0, # of connection points: 2
# Relax obj value: 0.263
# Max RMSD: 0.243
# Mean RMSD: 0.230
data_MOF--net-npo--node1-AZAVOO_clean_sbu_0--edge1-MIFKUJ_clean_linker_0
_symmetry_space_group_name_H-M    P1
_symmetry_Int_Tables_number       1
_symmetry_cell_setting            triclinic
loop_
_symmetry_equiv_pos_as_xyz
'x, y, z'
_cell_length_a     57.582404
_cell_length_b     52.400657
_cell_length_c     33.155027
_cell_angle_alpha  89.806333
_cell_angle_beta   90.314645
_cell_angle_gamma 130.02608
loop_
_atom_site_label
_atom_site_type_symbol
_atom_site_fract_x
_atom_site_fract_y
_atom_site_fract_z
_atom_type_partial_charge
Mg0 Mg 0.51003 0.10625 0.2477 0.0
O1 O 0.56103 0.14513 0.25909 0.0
O2 O 0.58062 0.12075 0.27353 0.0
Mg3 Mg 0.54176 0.0648 0.26716 0.0
C4 C 0.58347 0.14676 0.26832 0.0
C5 C 0.49428 0.1525 0.24799 0.0
O6 O 0.47494 0.12961 0.27431 0.0
O7 O 0.51983 0.09833 0.18416 0.0
O8 O 0.53872 0.07324 0.20044 0.0
O9 O 0.50057 0.10056 0.31418 0.0
O10 O 0.50789 0.07045 0.27949 0.0
C11 C 0.53124 0.08485 0.17434 0.0
C12 C 0.50304 0.07769 0.31362 0.0
O13 O 0.51126 0.14909 0.229 0.0
Mg14 Mg 0.38733 0.44277 0.71206 0.0
O15 O 0.40862 0.4968 0.72417 0.0
O16 O 0.45252 0.52159 0.7567 0.0
Mg17 Mg 0.45869 0.48295 0.76739 0.0
C18 C 0.43283 0.52244 0.74051 0.0
C19 C 0.3415 0.44766 0.65616 0.0
O20 O 0.32913 0.44171 0.62029 0.0
O21 O 0.42303 0.46092 0.66389 0.0
O22 O 0.46516 0.48239 0.69952 0.0
O23 O 0.36467 0.42715 0.77379 0.0
O24 O 0.4097 0.44301 0.76071 0.0
C25 C 0.45102 0.47453 0.66597 0.0
C26 C 0.38926 0.43368 0.78667 0.0
O27 O 0.35676 0.4383 0.66311 0.0
Mg28 Mg 0.93633 0.53435 0.24983 0.0
O29 O 0.89648 0.47906 0.24299 0.0
O30 O 0.9115 0.4509 0.22351 0.0
Mg31 Mg 0.96345 0.48961 0.22069 0.0
C32 C 0.89077 0.45203 0.23325 0.0
C33 C 0.90633 0.5654 0.26511 0.0
O34 O 0.93196 0.59056 0.24835 0.0
O35 O 0.94677 0.52277 0.31111 0.0
O36 O 0.9646 0.49817 0.28815 0.0
O37 O 0.93579 0.54306 0.18342 0.0
O38 O 0.96161 0.52956 0.21108 0.0
C39 C 0.95859 0.5091 0.3171 0.0
C40 C 0.9527 0.53506 0.1792 0.0
O41 O 0.90264 0.53946 0.27439 0.0
Mg42 Mg 0.48984 0.88776 0.75431 0.0
O43 O 0.43858 0.85253 0.76232 0.0
O44 O 0.42332 0.88127 0.77711 0.0
Mg45 Mg 0.46617 0.93611 0.78189 0.0
C46 C 0.41768 0.85383 0.76998 0.0
C47 C 0.50288 0.83987 0.73922 0.0
O48 O 0.52573 0.86242 0.76266 0.0
O49 O 0.48476 0.90456 0.69308 0.0
O50 O 0.4733 0.93567 0.71467 0.0
O51 O 0.49666 0.88527 0.82067 0.0
O52 O 0.49371 0.92146 0.79269 0.0
C53 C 0.47913 0.92418 0.68628 0.0
C54 C 0.49563 0.90906 0.8247 0.0
O55 O 0.4846 0.84423 0.72756 0.0
Mg56 Mg 0.60173 0.54316 0.21558 0.0
O57 O 0.57864 0.48976 0.23415 0.0
O58 O 0.53448 0.46635 0.26416 0.0
Mg59 Mg 0.52903 0.50613 0.26421 0.0
C60 C 0.5545 0.46496 0.2513 0.0
C61 C 0.66409 0.56967 0.18962 0.0
O62 O 0.66915 0.59541 0.20683 0.0
O63 O 0.56867 0.52306 0.16187 0.0
O64 O 0.52661 0.50427 0.19541 0.0
O65 O 0.62218 0.5609 0.27725 0.0
O66 O 0.57813 0.54649 0.25938 0.0
C67 C 0.54073 0.51007 0.16253 0.0
C68 C 0.59775 0.5557 0.28718 0.0
O69 O 0.63678 0.54363 0.18336 0.0
Mg70 Mg 0.07477 0.4636 0.75479 0.0
O71 O 0.11124 0.51859 0.73918 0.0
O72 O 0.092 0.54299 0.72299 0.0
Mg73 Mg 0.04101 0.50269 0.7328 0.0
C74 C 0.11458 0.54406 0.72807 0.0
C75 C 0.13359 0.47496 0.74761 0.0
O76 O 0.1305 0.48439 0.71266 0.0
O77 O 0.07134 0.47942 0.81728 0.0
O78 O 0.05164 0.50334 0.79926 0.0
O79 O 0.0673 0.4502 0.68902 0.0
O80 O 0.04279 0.4625 0.72298 0.0
C81 C 0.06192 0.49518 0.82587 0.0
C82 C 0.04825 0.45553 0.68912 0.0
O83 O 0.11303 0.46338 0.77403 0.0
H84 H 0.46049 0.16629 0.28247 0.0
H85 H 0.47062 0.21925 0.28243 0.0
H86 H 0.54841 0.26237 0.20633 0.0
H87 H 0.53858 0.20942 0.20647 0.0
H88 H 0.56179 0.30239 0.27013 0.0
H89 H 0.48465 0.24379 0.16812 0.0
H90 H 0.43501 0.19704 0.13907 0.0
H91 H 0.38982 0.20845 0.2306 0.0
H92 H 0.43921 0.25501 0.26056 0.0
H93 H 0.58892 0.45097 0.21954 0.0
H94 H 0.5785 0.39801 0.22003 0.0
H95 H 0.4979 0.35399 0.29037 0.0
H96 H 0.5077 0.40688 0.28909 0.0
H97 H 0.48603 0.31429 0.2301 0.0
H98 H 0.56354 0.37389 0.33155 0.0
H99 H 0.6133 0.42079 0.36017 0.0
H100 H 0.65811 0.40777 0.26996 0.0
H101 H 0.60861 0.36107 0.24036 0.0
C102 C 0.47957 0.1869 0.26533 0.0
C103 C 0.49871 0.18359 0.24445 0.0
C104 C 0.4853 0.21717 0.26529 0.0
C105 C 0.51021 0.24475 0.24425 0.0
C106 C 0.52908 0.2414 0.2228 0.0
C107 C 0.52331 0.21106 0.22272 0.0
C108 C 0.51708 0.27733 0.24584 0.0
C109 C 0.54541 0.30515 0.26085 0.0
C110 C 0.49538 0.28067 0.23477 0.0
C111 C 0.46563 0.25267 0.21682 0.0
C112 C 0.46412 0.23615 0.18227 0.0
C113 C 0.43603 0.20972 0.16559 0.0
C114 C 0.40927 0.19972 0.18304 0.0
C115 C 0.41056 0.21619 0.21715 0.0
C116 C 0.4386 0.24262 0.23397 0.0
C117 C 0.56907 0.43017 0.23546 0.0
C118 C 0.54913 0.43327 0.2543 0.0
C119 C 0.56323 0.39987 0.23585 0.0
C120 C 0.5376 0.37206 0.25562 0.0
C121 C 0.51785 0.37513 0.27494 0.0
C122 C 0.52354 0.40542 0.27431 0.0
C123 C 0.53077 0.33946 0.25449 0.0
C124 C 0.50243 0.31159 0.23952 0.0
C125 C 0.55249 0.33611 0.26563 0.0
C126 C 0.58232 0.36413 0.28351 0.0
C127 C 0.584 0.38117 0.3176 0.0
C128 C 0.61217 0.40771 0.33403 0.0
C129 C 0.63885 0.4173 0.31683 0.0
C130 C 0.63742 0.40033 0.28321 0.0
C131 C 0.6093 0.3738 0.26662 0.0
H132 H 0.66064 0.43785 0.3296 0.0
H133 H 0.38754 0.17926 0.17007 0.0
H134 H 0.34102 0.49818 0.64371 0.0
H135 H 0.31726 0.51324 0.68622 0.0
H136 H 0.3045 0.44759 0.77949 0.0
H137 H 0.32793 0.43193 0.736 0.0
H138 H 0.25273 0.42932 0.75811 0.0
H139 H 0.34251 0.53386 0.80112 0.0
H140 H 0.393 0.58985 0.80042 0.0
H141 H 0.3615 0.62271 0.71385 0.0
H142 H 0.31083 0.56703 0.71403 0.0
H143 H 0.14491 0.45028 0.81132 0.0
H144 H 0.18929 0.45377 0.82049 0.0
H145 H 0.22761 0.51033 0.71026 0.0
H146 H 0.18397 0.50727 0.70119 0.0
H147 H 0.27082 0.53523 0.76795 0.0
H148 H 0.18645 0.42533 0.71249 0.0
H149 H 0.13514 0.37038 0.71542 0.0
H150 H 0.15803 0.3485 0.82636 0.0
H151 H 0.20939 0.40353 0.82425 0.0
C152 C 0.33423 0.48796 0.67392 0.0
C153 C 0.33627 0.46389 0.68666 0.0
C154 C 0.32085 0.49684 0.6985 0.0
C155 C 0.30902 0.48164 0.7363 0.0
C156 C 0.31358 0.4598 0.75057 0.0
C157 C 0.32722 0.45106 0.72591 0.0
C158 C 0.28654 0.48298 0.75565 0.0
C159 C 0.25707 0.45264 0.76167 0.0
C160 C 0.29181 0.51322 0.7599 0.0
C161 C 0.32278 0.54621 0.75773 0.0
C162 C 0.34639 0.55293 0.78169 0.0
C163 C 0.37499 0.5847 0.7816 0.0
C164 C 0.38033 0.60986 0.75737 0.0
C165 C 0.35723 0.60325 0.73282 0.0
C166 C 0.32854 0.57164 0.73306 0.0
C167 C 0.16296 0.46369 0.7893 0.0
C168 C 0.16074 0.47815 0.75528 0.0
C169 C 0.18828 0.46566 0.79457 0.0
C170 C 0.21171 0.48217 0.76593 0.0
C171 C 0.20991 0.49758 0.73285 0.0
C172 C 0.18474 0.49554 0.72752 0.0
C173 C 0.23724 0.48174 0.768 0.0
C174 C 0.26704 0.51214 0.76596 0.0
C175 C 0.23236 0.45163 0.7673 0.0
C176 C 0.20154 0.41864 0.76851 0.0
C177 C 0.18043 0.40888 0.73765 0.0
C178 C 0.15137 0.37772 0.73913 0.0
C179 C 0.14329 0.35601 0.77114 0.0
C180 C 0.16429 0.36538 0.80166 0.0
C181 C 0.19337 0.39654 0.80034 0.0
H182 H 0.12078 0.33189 0.77223 0.0
H183 H 0.40234 0.6345 0.75757 0.0
H184 H 0.60227 0.20334 0.23027 0.0
H185 H 0.65406 0.25562 0.22367 0.0
H186 H 0.68576 0.21771 0.30223 0.0
H187 H 0.63406 0.16457 0.30716 0.0
H188 H 0.69502 0.30312 0.26756 0.0
H189 H 0.75482 0.2465 0.2767 0.0
H190 H 0.74388 0.19377 0.26042 0.0
H191 H 0.67796 0.17093 0.17227 0.0
H192 H 0.6888 0.2237 0.18763 0.0
H193 H 0.8506 0.435 0.29174 0.0
H194 H 0.7983 0.3835 0.29782 0.0
H195 H 0.80686 0.34833 0.18578 0.0
H196 H 0.8602 0.39906 0.18147 0.0
H197 H 0.77646 0.29964 0.23163 0.0
H198 H 0.76771 0.38129 0.19662 0.0
H199 H 0.77751 0.43445 0.2016 0.0
H200 H 0.73858 0.4079 0.32005 0.0
H201 H 0.7289 0.35478 0.31602 0.0
C202 C 0.62023 0.20622 0.24644 0.0
C203 C 0.61417 0.17973 0.26893 0.0
C204 C 0.64987 0.23618 0.24265 0.0
C205 C 0.67399 0.24045 0.26173 0.0
C206 C 0.6677 0.2147 0.28622 0.0
C207 C 0.63812 0.18442 0.28928 0.0
C208 C 0.70573 0.2714 0.25495 0.0
C209 C 0.71282 0.30236 0.25967 0.0
C210 C 0.72886 0.27053 0.24338 0.0
C211 C 0.72242 0.23889 0.23364 0.0
C212 C 0.73808 0.23028 0.25374 0.0
C213 C 0.73188 0.20037 0.24469 0.0
C214 C 0.71017 0.17896 0.21543 0.0
C215 C 0.69469 0.18747 0.19503 0.0
C216 C 0.70084 0.21736 0.20393 0.0
C217 C 0.84124 0.41621 0.26844 0.0
C218 C 0.85919 0.42092 0.23599 0.0
C219 C 0.81127 0.38689 0.27173 0.0
C220 C 0.7982 0.36227 0.24171 0.0
C221 C 0.8163 0.36693 0.20931 0.0
C222 C 0.84669 0.39588 0.20674 0.0
C223 C 0.76591 0.33147 0.24465 0.0
C224 C 0.75869 0.3005 0.23932 0.0
C225 C 0.74241 0.33238 0.2538 0.0
C226 C 0.74779 0.36414 0.25612 0.0
C227 C 0.76137 0.38685 0.22381 0.0
C228 C 0.76689 0.41698 0.22645 0.0
C229 C 0.75871 0.42456 0.26113 0.0
C230 C 0.7449 0.40199 0.29319 0.0
C231 C 0.73936 0.37185 0.29073 0.0
H232 H 0.76304 0.44788 0.26312 0.0
H233 H 0.70538 0.15581 0.20849 0.0
H234 H 0.45119 0.7825 0.70672 0.0
H235 H 0.43772 0.72768 0.70357 0.0
H236 H 0.52575 0.76994 0.75136 0.0
H237 H 0.53914 0.82451 0.75536 0.0
H238 H 0.45934 0.70079 0.66723 0.0
H239 H 0.51928 0.71782 0.81861 0.0
H240 H 0.53237 0.74784 0.88306 0.0
H241 H 0.45916 0.74921 0.8667 0.0
H242 H 0.44537 0.7188 0.80247 0.0
H243 H 0.4838 0.58377 0.76567 0.0
H244 H 0.49432 0.6368 0.76098 0.0
H245 H 0.40593 0.58684 0.70808 0.0
H246 H 0.39535 0.53382 0.71235 0.0
H247 H 0.46889 0.6582 0.79467 0.0
H248 H 0.40572 0.63816 0.64862 0.0
H249 H 0.38922 0.60575 0.5855 0.0
H250 H 0.46478 0.60764 0.59275 0.0
H251 H 0.48195 0.64041 0.65562 0.0
C252 C 0.46783 0.78021 0.71606 0.0
C253 C 0.49614 0.80782 0.73173 0.0
C254 C 0.46008 0.74884 0.71422 0.0
C255 C 0.48048 0.74457 0.728 0.0
C256 C 0.50938 0.7725 0.74141 0.0
C257 C 0.51707 0.80374 0.7435 0.0
C258 C 0.47127 0.71081 0.73024 0.0
C259 C 0.46113 0.69132 0.69517 0.0
C260 C 0.47363 0.69841 0.76667 0.0
C261 C 0.48152 0.71635 0.80552 0.0
C262 C 0.50592 0.72443 0.82885 0.0
C263 C 0.51346 0.74152 0.86533 0.0
C264 C 0.49667 0.75053 0.87889 0.0
C265 C 0.47222 0.74234 0.85608 0.0
C266 C 0.46456 0.72521 0.81961 0.0
C267 C 0.46653 0.584 0.75313 0.0
C268 C 0.43875 0.55447 0.73926 0.0
C269 C 0.4726 0.61439 0.75046 0.0
C270 C 0.45108 0.61599 0.73383 0.0
C271 C 0.42314 0.58647 0.72048 0.0
C272 C 0.41705 0.55605 0.72311 0.0
C273 C 0.45788 0.64854 0.73139 0.0
C274 C 0.46732 0.66774 0.76661 0.0
C275 C 0.45452 0.6604 0.69522 0.0
C276 C 0.445 0.64157 0.65687 0.0
C277 C 0.41893 0.63186 0.63655 0.0
C278 C 0.40943 0.61338 0.60088 0.0
C279 C 0.42593 0.60462 0.58515 0.0
C280 C 0.45203 0.61442 0.60499 0.0
C281 C 0.46164 0.63293 0.64065 0.0
H282 H 0.41851 0.59026 0.55758 0.0
H283 H 0.50257 0.76378 0.90712 0.0
H284 H 0.72474 0.62147 0.19719 0.0
H285 H 0.76485 0.61823 0.20629 0.0
H286 H 0.70024 0.51199 0.1868 0.0
H287 H 0.6598 0.51498 0.17793 0.0
H288 H 0.73244 0.52764 0.25556 0.0
H289 H 0.75514 0.56237 0.11803 0.0
H290 H 0.76575 0.59715 0.05902 0.0
H291 H 0.84527 0.68279 0.11783 0.0
H292 H 0.8349 0.64862 0.17746 0.0
H293 H 0.84615 0.51044 0.26234 0.0
H294 H 0.80379 0.50905 0.24758 0.0
H295 H 0.8645 0.61654 0.25094 0.0
H296 H 0.90723 0.61805 0.26362 0.0
H297 H 0.83213 0.59673 0.18709 0.0
H298 H 0.80861 0.56148 0.32579 0.0
H299 H 0.79688 0.52638 0.38493 0.0
H300 H 0.71767 0.44138 0.32486 0.0
H301 H 0.72932 0.47573 0.26496 0.0
C302 C 0.71914 0.5975 0.19395 0.0
C303 C 0.68905 0.56848 0.18696 0.0
C304 C 0.74214 0.59569 0.19911 0.0
C305 C 0.73556 0.56486 0.19725 0.0
C306 C 0.7058 0.53603 0.18843 0.0
C307 C 0.68276 0.53783 0.18306 0.0
C308 C 0.75929 0.56257 0.20766 0.0
C309 C 0.75409 0.54227 0.24017 0.0
C310 C 0.78775 0.58232 0.18821 0.0
C311 C 0.79409 0.60296 0.15236 0.0
C312 C 0.77475 0.58867 0.11852 0.0
C313 C 0.78075 0.60827 0.08493 0.0
C314 C 0.80613 0.64217 0.08471 0.0
C315 C 0.8256 0.65653 0.11806 0.0
C316 C 0.81969 0.63705 0.15174 0.0
C317 C 0.85038 0.53377 0.26083 0.0
C318 C 0.88006 0.56441 0.26419 0.0
C319 C 0.82606 0.53293 0.25243 0.0
C320 C 0.83077 0.56267 0.24836 0.0
C321 C 0.86023 0.59323 0.2537 0.0
C322 C 0.88463 0.5941 0.26124 0.0
C323 C 0.80563 0.56221 0.23569 0.0
C324 C 0.81051 0.58196 0.20255 0.0
C325 C 0.77687 0.54191 0.25467 0.0
C326 C 0.77011 0.52114 0.2906 0.0
C327 C 0.78891 0.53522 0.32496 0.0
C328 C 0.78225 0.51544 0.35866 0.0
C329 C 0.75664 0.48164 0.35858 0.0
C330 C 0.73757 0.46754 0.32484 0.0
C331 C 0.74422 0.48715 0.29098 0.0
H332 H 0.75151 0.46639 0.38472 0.0
H333 H 0.81074 0.6573 0.05867 0.0
H334 H 0.39684 0.79029 0.77661 0.0
H335 H 0.34486 0.73854 0.76786 0.0
H336 H 0.31474 0.79473 0.74872 0.0
H337 H 0.36664 0.84669 0.75893 0.0
H338 H 0.27506 0.74145 0.79312 0.0
H339 H 0.32754 0.76172 0.66852 0.0
H340 H 0.36908 0.77349 0.62748 0.0
H341 H 0.34759 0.68267 0.66865 0.0
H342 H 0.30613 0.67054 0.71029 0.0
H343 H 0.13211 0.60579 0.71269 0.0
H344 H 0.18353 0.65951 0.71603 0.0
H345 H 0.21888 0.60923 0.74049 0.0
H346 H 0.16786 0.55556 0.73656 0.0
H347 H 0.25546 0.66075 0.69054 0.0
H348 H 0.20561 0.64124 0.81682 0.0
H349 H 0.16495 0.62884 0.86058 0.0
H350 H 0.18212 0.71724 0.81874 0.0
H351 H 0.22263 0.72992 0.7743 0.0
C352 C 0.37912 0.79164 0.77084 0.0
C353 C 0.38586 0.82258 0.76812 0.0
C354 C 0.34944 0.76204 0.76561 0.0
C355 C 0.32604 0.7628 0.75659 0.0
C356 C 0.33249 0.79359 0.75537 0.0
C357 C 0.36215 0.82324 0.76123 0.0
C358 C 0.29498 0.7315 0.74776 0.0
C359 C 0.27071 0.72408 0.77022 0.0
C360 C 0.28939 0.70846 0.71849 0.0
C361 C 0.31386 0.71534 0.69271 0.0
C362 C 0.33175 0.74432 0.66892 0.0
C363 C 0.35527 0.75105 0.64555 0.0
C364 C 0.361 0.72887 0.64552 0.0
C365 C 0.34313 0.69983 0.66871 0.0
C366 C 0.31958 0.69299 0.69214 0.0
C367 C 0.15086 0.60611 0.71818 0.0
C368 C 0.14578 0.57634 0.72477 0.0
C369 C 0.18021 0.63685 0.72029 0.0
C370 C 0.20492 0.63834 0.72925 0.0
C371 C 0.20011 0.60864 0.73372 0.0
C372 C 0.17085 0.57795 0.73155 0.0
C373 C 0.23561 0.67074 0.73593 0.0
C374 C 0.2598 0.67832 0.71313 0.0
C375 C 0.24116 0.69381 0.76506 0.0
C376 C 0.21692 0.68633 0.79191 0.0
C377 C 0.20056 0.65789 0.81673 0.0
C378 C 0.17756 0.65084 0.84169 0.0
C379 C 0.1709 0.67219 0.84235 0.0
C380 C 0.18727 0.70069 0.81814 0.0
C381 C 0.21026 0.70784 0.79308 0.0
H382 H 0.15309 0.66668 0.8617 0.0
H383 H 0.37927 0.73417 0.62748 0.0
H384 H 0.45671 0.9176 0.85149 0.0
H385 H 0.46357 0.94983 0.91028 0.0
H386 H 0.54231 0.96172 0.94556 0.0
H387 H 0.53527 0.92911 0.88649 0.0
H388 H 0.50902 0.95265 0.0102 0.0
H389 H 0.55043 0.02228 0.89241 0.0
H390 H 0.54921 0.03756 0.82248 0.0
H391 H 0.47778 0.03907 0.8533 0.0
H392 H 0.47825 0.02328 0.92332 0.0
H393 H 0.57407 0.08525 0.14046 0.0
H394 H 0.56942 0.05891 0.07693 0.0
H395 H 0.48712 0.04188 0.04936 0.0
H396 H 0.49195 0.06883 0.11298 0.0
H397 H 0.52222 0.05428 0.98028 0.0
H398 H 0.48033 0.98357 0.09769 0.0
H399 H 0.48177 0.96846 0.16762 0.0
H400 H 0.5545 0.96909 0.13705 0.0
H401 H 0.55383 0.98477 0.06704 0.0
C402 C 0.47532 0.92689 0.87198 0.0
C403 C 0.49587 0.92161 0.86427 0.0
C404 C 0.47921 0.94524 0.90551 0.0
C405 C 0.50397 0.95899 0.93152 0.0
C406 C 0.52323 0.95158 0.92554 0.0
C407 C 0.51915 0.93288 0.89205 0.0
C408 C 0.51056 0.98241 0.96361 0.0
C409 C 0.5123 0.97507 0.0036 0.0
C410 C 0.51423 0.01135 0.95496 0.0
C411 C 0.51419 0.0213 0.91302 0.0
C412 C 0.53433 0.02565 0.88421 0.0
C413 C 0.53378 0.03442 0.84456 0.0
C414 C 0.51338 0.0392 0.83343 0.0
C415 C 0.49354 0.03532 0.86196 0.0
C416 C 0.49396 0.02648 0.90164 0.0
C417 C 0.55553 0.07689 0.12022 0.0
C418 C 0.53311 0.07858 0.13175 0.0
C419 C 0.55286 0.06178 0.08405 0.0
C420 C 0.52751 0.04771 0.05915 0.0
C421 C 0.50674 0.05243 0.06845 0.0
C422 C 0.50956 0.06791 0.10466 0.0
C423 C 0.5208 0.02452 0.0267 0.0
C424 C 0.51899 0.03187 0.98676 0.0
C425 C 0.51706 0.99557 0.03532 0.0
C426 C 0.51721 0.98565 0.07724 0.0
C427 C 0.49677 0.98072 0.10595 0.0
C428 C 0.49743 0.97203 0.14559 0.0
C429 C 0.51826 0.96789 0.15679 0.0
C430 C 0.53841 0.97235 0.12834 0.0
C431 C 0.53789 0.98112 0.08867 0.0
H432 H 0.51875 0.96116 0.1875 0.0
H433 H 0.51298 0.04598 0.80271 0.0
H434 H 0.62322 0.553 0.35547 0.0
H435 H 0.6048 0.54475 0.4248 0.0
H436 H 0.53627 0.54904 0.38294 0.0
H437 H 0.55482 0.55791 0.31428 0.0
H438 H 0.55856 0.57948 0.45425 0.0
H439 H 0.5204 0.47541 0.39335 0.0
H440 H 0.5256 0.43754 0.35935 0.0
H441 H 0.57518 0.4431 0.46105 0.0
H442 H 0.57072 0.48152 0.49539 0.0
H443 H 0.43657 0.48095 0.59007 0.0
H444 H 0.46728 0.49866 0.52909 0.0
H445 H 0.53485 0.5042 0.59596 0.0
H446 H 0.50451 0.48684 0.6572 0.0
H447 H 0.51883 0.47216 0.51733 0.0
H448 H 0.5508 0.57302 0.58042 0.0
H449 H 0.54243 0.60906 0.61198 0.0
H450 H 0.50026 0.6067 0.50322 0.0
H451 H 0.508 0.57023 0.47118 0.0
C452 C 0.60464 0.55284 0.3613 0.0
C453 C 0.59009 0.55552 0.32951 0.0
C454 C 0.59408 0.548 0.40078 0.0
C455 C 0.56888 0.54577 0.40879 0.0
C456 C 0.55567 0.55058 0.37739 0.0
C457 C 0.56615 0.55538 0.33812 0.0
C458 C 0.55444 0.53573 0.44891 0.0
C459 C 0.54988 0.55603 0.46804 0.0
C460 C 0.54333 0.50522 0.46696 0.0
C461 C 0.54555 0.48165 0.44673 0.0
C462 C 0.53259 0.46873 0.40835 0.0
C463 C 0.53539 0.44716 0.38902 0.0
C464 C 0.55079 0.438 0.40797 0.0
C465 C 0.56332 0.45029 0.44637 0.0
C466 C 0.56067 0.47196 0.46578 0.0
C467 C 0.45781 0.48562 0.59173 0.0
C468 C 0.46823 0.48271 0.62845 0.0
C469 C 0.47534 0.49583 0.55696 0.0
C470 C 0.50334 0.50294 0.55833 0.0
C471 C 0.51329 0.49887 0.5945 0.0
C472 C 0.496 0.4891 0.6294 0.0
C473 C 0.52268 0.51573 0.5222 0.0
C474 C 0.52804 0.49589 0.50386 0.0
C475 C 0.53411 0.5464 0.50452 0.0
C476 C 0.52978 0.56869 0.52351 0.0
C477 C 0.53955 0.57999 0.56333 0.0
C478 C 0.53495 0.60053 0.58128 0.0
C479 C 0.52079 0.61012 0.55963 0.0
C480 C 0.51123 0.59924 0.51995 0.0
C481 C 0.51575 0.57868 0.50186 0.0
H482 H 0.5173 0.62607 0.57358 0.0
H483 H 0.55296 0.42131 0.39293 0.0
H484 H 0.07559 0.55181 0.85336 0.0
H485 H 0.06093 0.55957 0.91803 0.0
H486 H 0.02903 0.46317 0.95723 0.0
H487 H 0.04392 0.45536 0.89208 0.0
H488 H 0.98506 0.46977 0.95895 0.0
H489 H 0.08683 0.53108 0.00623 0.0
H490 H 0.14254 0.57356 0.00272 0.0
H491 H 0.13642 0.65094 -0.00342 0.0
H492 H 0.08062 0.60889 -0.00049 0.0
H493 H 0.94226 0.47963 0.15352 0.0
H494 H 0.96333 0.47415 0.09396 0.0
H495 H 1.0005 0.57267 0.05539 0.0
H496 H 0.97994 0.57851 0.11625 0.0
H497 H 0.0428 0.56477 0.05467 0.0
H498 H 0.94215 0.50497 0.00444 0.0
H499 H 0.88631 0.46345 0.00558 0.0
H500 H 0.89014 0.38446 0.01442 0.0
H501 H 0.94606 0.42555 0.01391 0.0
C502 C 0.06636 0.53275 0.8763 0.0
C503 C 0.0607 0.50293 0.86791 0.0
C504 C 0.05807 0.53724 0.91324 0.0
C505 C 0.04383 0.5119 0.94229 0.0
C506 C 0.04005 0.483 0.93508 0.0
C507 C 0.04874 0.47866 0.89812 0.0
C508 C 0.02939 0.51397 0.97736 0.0
C509 C 0.99772 0.49012 0.98048 0.0
C510 C 0.04589 0.54136 0.00418 0.0
C511 C 0.07949 0.56678 0.0028 0.0
C512 C 0.09733 0.55714 0.00384 0.0
C513 C 0.12894 0.58115 0.00201 0.0
C514 C 0.14301 0.61492 -0.00066 0.0
C515 C 0.12549 0.62476 -0.00137 0.0
C516 C 0.09387 0.60085 0.00044 0.0
C517 C 0.95477 0.50002 0.13224 0.0
C518 C 0.95992 0.52964 0.13951 0.0
C519 C 0.96655 0.49676 0.09802 0.0
C520 C 0.98351 0.52302 0.0703 0.0
C521 C 0.98752 0.55217 0.07656 0.0
C522 C 0.97558 0.55537 0.11094 0.0
C523 C 0.99846 0.5205 0.0363 0.0
C524 C 0.03016 0.54431 0.03331 0.0
C525 C 0.98198 0.49321 0.00931 0.0
C526 C 0.94832 0.46838 0.00951 0.0
C527 C 0.9311 0.47876 0.00697 0.0
C528 C 0.89943 0.4553 0.00744 0.0
C529 C 0.88469 0.42134 0.01018 0.0
C530 C 0.90159 0.41077 0.01235 0.0
C531 C 0.93328 0.43414 0.01192 0.0
H532 H 0.86016 0.40322 0.01053 0.0
H533 H 0.16748 0.63347 -0.0021 0.0
H534 H 0.49873 0.09095 0.39192 0.0
H535 H 0.49642 0.06271 0.4527 0.0
H536 H 0.50292 0.99953 0.37964 0.0
H537 H 0.50384 0.02643 0.31906 0.0
H538 H 0.462 0.96364 0.4345 0.0
H539 H 0.5642 0.06527 0.43431 0.0
H540 H 0.60569 0.12606 0.43084 0.0
H541 H 0.57298 0.13897 0.53834 0.0
H542 H 0.53101 0.07827 0.54213 0.0
H543 H 0.49177 0.90812 0.61497 0.0
H544 H 0.49769 0.93185 0.54786 0.0
H545 H 0.47667 0.99077 0.5977 0.0
H546 H 0.47048 0.96745 0.66384 0.0
H547 H 0.52993 0.02759 0.55136 0.0
H548 H 0.42474 0.92474 0.54584 0.0
H549 H 0.38455 0.86365 0.54837 0.0
H550 H 0.42608 0.85313 0.45006 0.0
H551 H 0.46678 0.91419 0.44735 0.0
C552 C 0.4997 0.07108 0.38888 0.0
C553 C 0.50198 0.06133 0.35073 0.0
C554 C 0.49855 0.05508 0.4236 0.0
C555 C 0.50004 0.02938 0.42071 0.0
C556 C 0.50192 0.0194 0.38261 0.0
C557 C 0.50276 0.0351 0.34799 0.0
C558 C 0.49916 0.01252 0.45735 0.0
C559 C 0.47721 0.97761 0.45978 0.0
C560 C 0.51899 0.03069 0.49032 0.0
C561 C 0.54431 0.06722 0.48831 0.0
C562 C 0.56573 0.08109 0.45706 0.0
C563 C 0.58935 0.11553 0.45506 0.0
C564 C 0.59193 0.13637 0.48431 0.0
C565 C 0.57093 0.1228 0.51569 0.0
C566 C 0.54724 0.08837 0.5178 0.0
C567 C 0.48818 0.92592 0.61148 0.0
C568 C 0.4808 0.93595 0.64488 0.0
C569 C 0.4916 0.93944 0.57323 0.0
C570 C 0.48782 0.9632 0.56812 0.0
C571 C 0.47994 0.97269 0.60118 0.0
C572 C 0.47631 0.95913 0.63902 0.0
C573 C 0.49236 0.979 0.52872 0.0
C574 C 0.51507 0.0137 0.52576 0.0
C575 C 0.47351 0.96062 0.49516 0.0
C576 C 0.449 0.92397 0.49674 0.0
C577 C 0.42546 0.90938 0.52503 0.0
C578 C 0.40255 0.87476 0.52643 0.0
C579 C 0.40282 0.85451 0.49949 0.0
C580 C 0.42594 0.86884 0.47098 0.0
C581 C 0.44892 0.90344 0.46948 0.0
H582 H 0.38506 0.82772 0.50062 0.0
H583 H 0.61023 0.16303 0.48271 0.0
H584 H 0.42691 0.42434 0.81556 0.0
H585 H 0.44521 0.43189 0.88403 0.0
H586 H 0.38555 0.44977 0.92398 0.0
H587 H 0.36728 0.44273 0.85411 0.0
H588 H 0.44271 0.49751 0.95008 0.0
H589 H 0.37382 0.37975 0.95474 0.0
H590 H 0.34705 0.32226 0.93146 0.0
H591 H 0.43095 0.33999 0.93116 0.0
H592 H 0.45835 0.39776 0.95387 0.0
H593 H 0.49049 0.5037 0.15169 0.0
H594 H 0.46009 0.48741 0.09074 0.0
H595 H 0.52085 0.48064 0.02645 0.0
H596 H 0.5519 0.49735 0.08778 0.0
H597 H 0.4568 0.42383 0.0183 0.0
H598 H 0.52541 0.54382 0.00738 0.0
H599 H 0.55112 0.60086 0.03151 0.0
H600 H 0.46503 0.57717 0.04554 0.0
H601 H 0.43877 0.51979 0.02203 0.0
C602 C 0.41726 0.42938 0.83894 0.0
C603 C 0.39581 0.43316 0.82954 0.0
C604 C 0.4276 0.43342 0.87823 0.0
C605 C 0.41655 0.44104 0.90928 0.0
C606 C 0.39423 0.44369 0.90041 0.0
C607 C 0.3837 0.4395 0.86069 0.0
C608 C 0.43081 0.44921 0.94975 0.0
C609 C 0.44512 0.48105 0.96555 0.0
C610 C 0.43454 0.42801 0.96945 0.0
C611 C 0.41818 0.3932 0.95584 0.0
C612 C 0.38662 0.37149 0.94944 0.0
C613 C 0.37132 0.33882 0.93639 0.0
C614 C 0.38729 0.3275 0.92979 0.0
C615 C 0.41861 0.3488 0.9363 0.0
C616 C 0.43403 0.3815 0.94933 0.0
C617 C 0.49754 0.49884 0.12461 0.0
C618 C 0.52358 0.50169 0.12455 0.0
C619 C 0.48015 0.48966 0.08979 0.0
C620 C 0.48828 0.48291 0.05422 0.0
C621 C 0.51429 0.48579 0.05379 0.0
C622 C 0.53204 0.49547 0.08866 0.0
C623 C 0.46913 0.47225 0.01779 0.0
C624 C 0.45394 0.43999 0.003 0.0
C625 C 0.46435 0.4929 -0.00073 0.0
C626 C 0.48011 0.52739 0.01339 0.0
C627 C 0.51195 0.55066 0.01599 0.0
C628 C 0.52662 0.58309 0.02947 0.0
C629 C 0.50971 0.59261 0.04017 0.0
C630 C 0.47809 0.56974 0.03731 0.0
C631 C 0.4633 0.53728 0.02388 0.0
H632 H 0.52112 0.61772 0.05059 0.0
H633 H 0.37541 0.3022 0.91968 0.0
H634 H 0.00336 0.45912 0.68209 0.0
H635 H 0.98657 0.46941 0.62143 0.0
H636 H 0.04717 0.46636 0.54996 0.0
H637 H 0.06519 0.45747 0.61123 0.0
H638 H 0.05233 0.51875 0.53051 0.0
H639 H 0.96881 0.40208 0.54957 0.0
H640 H 0.92737 0.35201 0.58708 0.0
H641 H 0.88394 0.39388 0.60331 0.0
H642 H 0.92534 0.44441 0.56633 0.0
H643 H 0.99498 0.49498 0.33682 0.0
H644 H 0.00809 0.4883 0.40324 0.0
H645 H 0.95422 0.50933 0.45793 0.0
H646 H 0.9406 0.51611 0.39047 0.0
H647 H 0.94452 0.45201 0.48952 0.0
H648 H 0.02714 0.56711 0.46428 0.0
H649 H 0.06825 0.61553 0.42438 0.0
H650 H 0.11321 0.57476 0.4177 0.0
H651 H 0.07214 0.52583 0.45706 0.0
C652 C 0.01322 0.46069 0.65351 0.0
C653 C 0.03595 0.45798 0.6515 0.0
C654 C 0.00331 0.46622 0.61876 0.0
C655 C 0.01545 0.46845 0.58112 0.0
C656 C 0.03754 0.46478 0.57879 0.0
C657 C 0.04769 0.45951 0.61372 0.0
C658 C 0.00612 0.47621 0.54451 0.0
C659 C 0.02878 0.50391 0.52133 0.0
C660 C 0.97529 0.45757 0.53337 0.0
C661 C 0.95034 0.42718 0.55555 0.0
C662 C 0.95055 0.40072 0.56142 0.0
C663 C 0.92704 0.37224 0.58253 0.0
C664 C 0.90308 0.36981 0.59767 0.0
C665 C 0.90254 0.39582 0.59162 0.0
C666 C 0.926 0.42437 0.57056 0.0
C667 C 0.98579 0.49826 0.36277 0.0
C668 C 0.96664 0.50605 0.35827 0.0
C669 C 0.99351 0.49459 0.4008 0.0
C670 C 0.9824 0.49867 0.43538 0.0
C671 C 0.96311 0.50626 0.4314 0.0
C672 C 0.95546 0.51023 0.39299 0.0
C673 C 0.99078 0.49406 0.4753 0.0
C674 C 0.96801 0.46702 0.4991 0.0
C675 C 0.02152 0.51313 0.4869 0.0
C676 C 0.04644 0.54269 0.46346 0.0
C677 C 0.04568 0.56834 0.45408 0.0
C678 C 0.069 0.59591 0.43159 0.0
C679 C 0.0933 0.5982 0.41847 0.0
C680 C 0.09437 0.57296 0.42789 0.0
C681 C 0.0711 0.54532 0.45035 0.0
H682 H 0.11133 0.61955 0.40104 0.0
H683 H 0.88491 0.34773 0.614 0.0
loop_
_geom_bond_atom_site_label_1
_geom_bond_atom_site_label_2
_geom_bond_distance
_geom_bond_site_symmetry_2
_ccdc_geom_bond_type
Mg0 O1 2.028 . S
Mg0 O7 1.986 . S
Mg0 O9 2.114 . S
Mg0 O10 2.251 . S
Mg0 O13 2.010 . S
O1 Mg0 2.028 . S
O1 C4 1.250 . S
O2 Mg3 2.028 . S
O2 C4 1.248 . S
Mg3 O2 2.028 . S
Mg3 O8 2.032 . S
Mg3 O10 2.079 . S
C4 O1 1.250 . S
C4 O2 1.248 . S
C5 O6 1.264 . S
C5 O13 1.249 . S
O6 C5 1.264 . S
O7 Mg0 1.986 . S
O7 C11 1.246 . S
O8 Mg3 2.032 . S
O8 C11 1.259 . S
O9 Mg0 2.114 . S
O9 C12 1.252 . S
O10 Mg0 2.251 . S
O10 Mg3 2.079 . S
O10 C12 1.273 . S
C11 O7 1.246 . S
C11 O8 1.259 . S
C12 O9 1.252 . S
C12 O10 1.273 . S
O13 Mg0 2.010 . S
O13 C5 1.249 . S
Mg14 O15 2.028 . S
Mg14 O21 1.986 . S
Mg14 O23 2.114 . S
Mg14 O24 2.251 . S
Mg14 O27 2.010 . S
O15 Mg14 2.028 . S
O15 C18 1.250 . S
O16 Mg17 2.028 . S
O16 C18 1.248 . S
Mg17 O16 2.028 . S
Mg17 O22 2.032 . S
Mg17 O24 2.079 . S
C18 O15 1.250 . S
C18 O16 1.248 . S
C19 O20 1.264 . S
C19 O27 1.249 . S
O20 C19 1.264 . S
O21 Mg14 1.986 . S
O21 C25 1.246 . S
O22 Mg17 2.032 . S
O22 C25 1.259 . S
O23 Mg14 2.114 . S
O23 C26 1.252 . S
O24 Mg14 2.251 . S
O24 Mg17 2.079 . S
O24 C26 1.273 . S
C25 O21 1.246 . S
C25 O22 1.259 . S
C26 O23 1.252 . S
C26 O24 1.273 . S
O27 Mg14 2.010 . S
O27 C19 1.249 . S
Mg28 O29 2.028 . S
Mg28 O35 1.986 . S
Mg28 O37 2.114 . S
Mg28 O38 2.251 . S
Mg28 O41 2.010 . S
O29 Mg28 2.028 . S
O29 C32 1.250 . S
O30 Mg31 2.028 . S
O30 C32 1.248 . S
Mg31 O30 2.028 . S
Mg31 O36 2.032 . S
Mg31 O38 2.079 . S
C32 O29 1.250 . S
C32 O30 1.248 . S
C33 O34 1.264 . S
C33 O41 1.249 . S
O34 C33 1.264 . S
O35 Mg28 1.986 . S
O35 C39 1.246 . S
O36 Mg31 2.032 . S
O36 C39 1.259 . S
O37 Mg28 2.114 . S
O37 C40 1.252 . S
O38 Mg28 2.251 . S
O38 Mg31 2.079 . S
O38 C40 1.273 . S
C39 O35 1.246 . S
C39 O36 1.259 . S
C40 O37 1.252 . S
C40 O38 1.273 . S
O41 Mg28 2.010 . S
O41 C33 1.249 . S
Mg42 O43 2.028 . S
Mg42 O49 1.986 . S
Mg42 O51 2.114 . S
Mg42 O52 2.251 . S
Mg42 O55 2.010 . S
O43 Mg42 2.028 . S
O43 C46 1.250 . S
O44 Mg45 2.028 . S
O44 C46 1.248 . S
Mg45 O44 2.028 . S
Mg45 O50 2.032 . S
Mg45 O52 2.079 . S
C46 O43 1.250 . S
C46 O44 1.248 . S
C47 O48 1.264 . S
C47 O55 1.249 . S
O48 C47 1.264 . S
O49 Mg42 1.986 . S
O49 C53 1.246 . S
O50 Mg45 2.032 . S
O50 C53 1.259 . S
O51 Mg42 2.114 . S
O51 C54 1.252 . S
O52 Mg42 2.251 . S
O52 Mg45 2.079 . S
O52 C54 1.273 . S
C53 O49 1.246 . S
C53 O50 1.259 . S
C54 O51 1.252 . S
C54 O52 1.273 . S
O55 Mg42 2.010 . S
O55 C47 1.249 . S
Mg56 O57 2.028 . S
Mg56 O63 1.986 . S
Mg56 O65 2.114 . S
Mg56 O66 2.251 . S
Mg56 O69 2.010 . S
O57 Mg56 2.028 . S
O57 C60 1.250 . S
O58 Mg59 2.028 . S
O58 C60 1.248 . S
Mg59 O58 2.028 . S
Mg59 O64 2.032 . S
Mg59 O66 2.079 . S
C60 O57 1.250 . S
C60 O58 1.248 . S
C61 O62 1.264 . S
C61 O69 1.249 . S
O62 C61 1.264 . S
O63 Mg56 1.986 . S
O63 C67 1.246 . S
O64 Mg59 2.032 . S
O64 C67 1.259 . S
O65 Mg56 2.114 . S
O65 C68 1.252 . S
O66 Mg56 2.251 . S
O66 Mg59 2.079 . S
O66 C68 1.273 . S
C67 O63 1.246 . S
C67 O64 1.259 . S
C68 O65 1.252 . S
C68 O66 1.273 . S
O69 Mg56 2.010 . S
O69 C61 1.249 . S
Mg70 O71 2.028 . S
Mg70 O77 1.986 . S
Mg70 O79 2.114 . S
Mg70 O80 2.251 . S
Mg70 O83 2.010 . S
O71 Mg70 2.028 . S
O71 C74 1.250 . S
O72 Mg73 2.028 . S
O72 C74 1.248 . S
Mg73 O72 2.028 . S
Mg73 O78 2.032 . S
Mg73 O80 2.079 . S
C74 O71 1.250 . S
C74 O72 1.248 . S
C75 O76 1.264 . S
C75 O83 1.249 . S
O76 C75 1.264 . S
O77 Mg70 1.986 . S
O77 C81 1.246 . S
O78 Mg73 2.032 . S
O78 C81 1.259 . S
O79 Mg70 2.114 . S
O79 C82 1.252 . S
O80 Mg70 2.251 . S
O80 Mg73 2.079 . S
O80 C82 1.273 . S
C81 O77 1.246 . S
C81 O78 1.259 . S
C82 O79 1.252 . S
C82 O80 1.273 . S
O83 Mg70 2.010 . S
O83 C75 1.249 . S
H84 C102 0.951 . S
H85 C104 0.951 . S
H86 C106 0.950 . S
H87 C107 0.950 . S
H88 C109 0.950 . S
H89 C112 0.950 . S
H90 C113 0.950 . S
H91 C115 0.950 . S
H92 C116 0.950 . S
H93 C117 0.951 . S
H94 C119 0.951 . S
H95 C121 0.950 . S
H96 C122 0.950 . S
H97 C124 0.950 . S
H98 C127 0.950 . S
H99 C128 0.950 . S
H100 C130 0.950 . S
H101 C131 0.950 . S
C102 H84 0.951 . S
C102 C103 1.366 . S
C102 C104 1.388 . S
C103 C102 1.366 . S
C103 C107 1.385 . S
C104 H85 0.951 . S
C104 C102 1.388 . S
C104 C105 1.366 . S
C105 C104 1.366 . S
C105 C106 1.414 . S
C105 C108 1.499 . S
C106 H86 0.950 . S
C106 C105 1.414 . S
C106 C107 1.374 . S
C107 H87 0.950 . S
C107 C103 1.385 . S
C107 C106 1.374 . S
C108 C105 1.499 . S
C108 C109 1.373 . S
C108 C110 1.389 . S
C109 H88 0.950 . S
C109 C108 1.373 . S
C109 C125 1.377 . S
C110 C108 1.389 . S
C110 C111 1.524 . S
C110 C124 1.377 . S
C111 C110 1.524 . S
C111 C112 1.397 . S
C111 C116 1.363 . S
C112 H89 0.950 . S
C112 C111 1.397 . S
C112 C113 1.334 . S
C113 H90 0.950 . S
C113 C112 1.334 . S
C113 C114 1.287 . S
C114 C113 1.287 . S
C114 C115 1.524 . S
C114 H133 0.913 . S
C115 H91 0.950 . S
C115 C114 1.524 . S
C115 C116 1.415 . S
C116 H92 0.950 . S
C116 C111 1.363 . S
C116 C115 1.415 . S
C117 H93 0.951 . S
C117 C118 1.366 . S
C117 C119 1.388 . S
C118 C117 1.366 . S
C118 C122 1.385 . S
C119 H94 0.951 . S
C119 C117 1.388 . S
C119 C120 1.366 . S
C120 C119 1.366 . S
C120 C121 1.414 . S
C120 C123 1.499 . S
C121 H95 0.950 . S
C121 C120 1.414 . S
C121 C122 1.374 . S
C122 H96 0.950 . S
C122 C118 1.385 . S
C122 C121 1.374 . S
C123 C120 1.499 . S
C123 C124 1.373 . S
C123 C125 1.389 . S
C124 H97 0.950 . S
C124 C110 1.377 . S
C124 C123 1.373 . S
C125 C109 1.377 . S
C125 C123 1.389 . S
C125 C126 1.524 . S
C126 C125 1.524 . S
C126 C127 1.397 . S
C126 C131 1.363 . S
C127 H98 0.950 . S
C127 C126 1.397 . S
C127 C128 1.334 . S
C128 H99 0.950 . S
C128 C127 1.334 . S
C128 C129 1.287 . S
C129 C128 1.287 . S
C129 C130 1.524 . S
C129 H132 0.999 . S
C130 H100 0.950 . S
C130 C129 1.524 . S
C130 C131 1.415 . S
C131 H101 0.950 . S
C131 C126 1.363 . S
C131 C130 1.415 . S
H132 C129 0.999 . S
H133 C114 0.913 . S
H134 C152 0.951 . S
H135 C154 0.951 . S
H136 C156 0.950 . S
H137 C157 0.950 . S
H138 C159 0.950 . S
H139 C162 0.950 . S
H140 C163 0.950 . S
H141 C165 0.950 . S
H142 C166 0.950 . S
H143 C167 0.951 . S
H144 C169 0.951 . S
H145 C171 0.950 . S
H146 C172 0.950 . S
H147 C174 0.950 . S
H148 C177 0.950 . S
H149 C178 0.950 . S
H150 C180 0.950 . S
H151 C181 0.950 . S
C152 H134 0.951 . S
C152 C153 1.366 . S
C152 C154 1.388 . S
C153 C152 1.366 . S
C153 C157 1.385 . S
C154 H135 0.951 . S
C154 C152 1.388 . S
C154 C155 1.366 . S
C155 C154 1.366 . S
C155 C156 1.414 . S
C155 C158 1.499 . S
C156 H136 0.950 . S
C156 C155 1.414 . S
C156 C157 1.374 . S
C157 H137 0.950 . S
C157 C153 1.385 . S
C157 C156 1.374 . S
C158 C155 1.499 . S
C158 C159 1.373 . S
C158 C160 1.389 . S
C159 H138 0.950 . S
C159 C158 1.373 . S
C159 C175 1.377 . S
C160 C158 1.389 . S
C160 C161 1.524 . S
C160 C174 1.377 . S
C161 C160 1.524 . S
C161 C162 1.397 . S
C161 C166 1.363 . S
C162 H139 0.950 . S
C162 C161 1.397 . S
C162 C163 1.334 . S
C163 H140 0.950 . S
C163 C162 1.334 . S
C163 C164 1.287 . S
C164 C163 1.287 . S
C164 C165 1.524 . S
C164 H183 0.913 . S
C165 H141 0.950 . S
C165 C164 1.524 . S
C165 C166 1.415 . S
C166 H142 0.950 . S
C166 C161 1.363 . S
C166 C165 1.415 . S
C167 H143 0.951 . S
C167 C168 1.366 . S
C167 C169 1.388 . S
C168 C167 1.366 . S
C168 C172 1.385 . S
C169 H144 0.951 . S
C169 C167 1.388 . S
C169 C170 1.366 . S
C170 C169 1.366 . S
C170 C171 1.414 . S
C170 C173 1.499 . S
C171 H145 0.950 . S
C171 C170 1.414 . S
C171 C172 1.374 . S
C172 H146 0.950 . S
C172 C168 1.385 . S
C172 C171 1.374 . S
C173 C170 1.499 . S
C173 C174 1.373 . S
C173 C175 1.389 . S
C174 H147 0.950 . S
C174 C160 1.377 . S
C174 C173 1.373 . S
C175 C159 1.377 . S
C175 C173 1.389 . S
C175 C176 1.524 . S
C176 C175 1.524 . S
C176 C177 1.397 . S
C176 C181 1.363 . S
C177 H148 0.950 . S
C177 C176 1.397 . S
C177 C178 1.334 . S
C178 H149 0.950 . S
C178 C177 1.334 . S
C178 C179 1.287 . S
C179 C178 1.287 . S
C179 C180 1.524 . S
C179 H182 0.999 . S
C180 H150 0.950 . S
C180 C179 1.524 . S
C180 C181 1.415 . S
C181 H151 0.950 . S
C181 C176 1.363 . S
C181 C180 1.415 . S
H182 C179 0.999 . S
H183 C164 0.913 . S
H184 C202 0.951 . S
H185 C204 0.951 . S
H186 C206 0.950 . S
H187 C207 0.950 . S
H188 C209 0.950 . S
H189 C212 0.950 . S
H190 C213 0.950 . S
H191 C215 0.950 . S
H192 C216 0.950 . S
H193 C217 0.951 . S
H194 C219 0.951 . S
H195 C221 0.950 . S
H196 C222 0.950 . S
H197 C224 0.950 . S
H198 C227 0.950 . S
H199 C228 0.950 . S
H200 C230 0.950 . S
H201 C231 0.950 . S
C202 H184 0.951 . S
C202 C203 1.366 . S
C202 C204 1.388 . S
C203 C202 1.366 . S
C203 C207 1.385 . S
C204 H185 0.951 . S
C204 C202 1.388 . S
C204 C205 1.366 . S
C205 C204 1.366 . S
C205 C206 1.414 . S
C205 C208 1.499 . S
C206 H186 0.950 . S
C206 C205 1.414 . S
C206 C207 1.374 . S
C207 H187 0.950 . S
C207 C203 1.385 . S
C207 C206 1.374 . S
C208 C205 1.499 . S
C208 C209 1.373 . S
C208 C210 1.389 . S
C209 H188 0.950 . S
C209 C208 1.373 . S
C209 C225 1.377 . S
C210 C208 1.389 . S
C210 C211 1.524 . S
C210 C224 1.377 . S
C211 C210 1.524 . S
C211 C212 1.397 . S
C211 C216 1.363 . S
C212 H189 0.950 . S
C212 C211 1.397 . S
C212 C213 1.334 . S
C213 H190 0.950 . S
C213 C212 1.334 . S
C213 C214 1.287 . S
C214 C213 1.287 . S
C214 C215 1.524 . S
C214 H233 0.913 . S
C215 H191 0.950 . S
C215 C214 1.524 . S
C215 C216 1.415 . S
C216 H192 0.950 . S
C216 C211 1.363 . S
C216 C215 1.415 . S
C217 H193 0.951 . S
C217 C218 1.366 . S
C217 C219 1.388 . S
C218 C217 1.366 . S
C218 C222 1.385 . S
C219 H194 0.951 . S
C219 C217 1.388 . S
C219 C220 1.366 . S
C220 C219 1.366 . S
C220 C221 1.414 . S
C220 C223 1.499 . S
C221 H195 0.950 . S
C221 C220 1.414 . S
C221 C222 1.374 . S
C222 H196 0.950 . S
C222 C218 1.385 . S
C222 C221 1.374 . S
C223 C220 1.499 . S
C223 C224 1.373 . S
C223 C225 1.389 . S
C224 H197 0.950 . S
C224 C210 1.377 . S
C224 C223 1.373 . S
C225 C209 1.377 . S
C225 C223 1.389 . S
C225 C226 1.524 . S
C226 C225 1.524 . S
C226 C227 1.397 . S
C226 C231 1.363 . S
C227 H198 0.950 . S
C227 C226 1.397 . S
C227 C228 1.334 . S
C228 H199 0.950 . S
C228 C227 1.334 . S
C228 C229 1.287 . S
C229 C228 1.287 . S
C229 C230 1.524 . S
C229 H232 0.999 . S
C230 H200 0.950 . S
C230 C229 1.524 . S
C230 C231 1.415 . S
C231 H201 0.950 . S
C231 C226 1.363 . S
C231 C230 1.415 . S
H232 C229 0.999 . S
H233 C214 0.913 . S
H234 C252 0.951 . S
H235 C254 0.951 . S
H236 C256 0.950 . S
H237 C257 0.950 . S
H238 C259 0.950 . S
H239 C262 0.950 . S
H240 C263 0.950 . S
H241 C265 0.950 . S
H242 C266 0.950 . S
H243 C267 0.951 . S
H244 C269 0.951 . S
H245 C271 0.950 . S
H246 C272 0.950 . S
H247 C274 0.950 . S
H248 C277 0.950 . S
H249 C278 0.950 . S
H250 C280 0.950 . S
H251 C281 0.950 . S
C252 H234 0.951 . S
C252 C253 1.366 . S
C252 C254 1.388 . S
C253 C252 1.366 . S
C253 C257 1.385 . S
C254 H235 0.951 . S
C254 C252 1.388 . S
C254 C255 1.366 . S
C255 C254 1.366 . S
C255 C256 1.414 . S
C255 C258 1.499 . S
C256 H236 0.950 . S
C256 C255 1.414 . S
C256 C257 1.374 . S
C257 H237 0.950 . S
C257 C253 1.385 . S
C257 C256 1.374 . S
C258 C255 1.499 . S
C258 C259 1.373 . S
C258 C260 1.389 . S
C259 H238 0.950 . S
C259 C258 1.373 . S
C259 C275 1.377 . S
C260 C258 1.389 . S
C260 C261 1.524 . S
C260 C274 1.377 . S
C261 C260 1.524 . S
C261 C262 1.397 . S
C261 C266 1.363 . S
C262 H239 0.950 . S
C262 C261 1.397 . S
C262 C263 1.334 . S
C263 H240 0.950 . S
C263 C262 1.334 . S
C263 C264 1.287 . S
C264 C263 1.287 . S
C264 C265 1.524 . S
C264 H283 0.913 . S
C265 H241 0.950 . S
C265 C264 1.524 . S
C265 C266 1.415 . S
C266 H242 0.950 . S
C266 C261 1.363 . S
C266 C265 1.415 . S
C267 H243 0.951 . S
C267 C268 1.366 . S
C267 C269 1.388 . S
C268 C267 1.366 . S
C268 C272 1.385 . S
C269 H244 0.951 . S
C269 C267 1.388 . S
C269 C270 1.366 . S
C270 C269 1.366 . S
C270 C271 1.414 . S
C270 C273 1.499 . S
C271 H245 0.950 . S
C271 C270 1.414 . S
C271 C272 1.374 . S
C272 H246 0.950 . S
C272 C268 1.385 . S
C272 C271 1.374 . S
C273 C270 1.499 . S
C273 C274 1.373 . S
C273 C275 1.389 . S
C274 H247 0.950 . S
C274 C260 1.377 . S
C274 C273 1.373 . S
C275 C259 1.377 . S
C275 C273 1.389 . S
C275 C276 1.524 . S
C276 C275 1.524 . S
C276 C277 1.397 . S
C276 C281 1.363 . S
C277 H248 0.950 . S
C277 C276 1.397 . S
C277 C278 1.334 . S
C278 H249 0.950 . S
C278 C277 1.334 . S
C278 C279 1.287 . S
C279 C278 1.287 . S
C279 C280 1.524 . S
C279 H282 0.999 . S
C280 H250 0.950 . S
C280 C279 1.524 . S
C280 C281 1.415 . S
C281 H251 0.950 . S
C281 C276 1.363 . S
C281 C280 1.415 . S
H282 C279 0.999 . S
H283 C264 0.913 . S
H284 C302 0.951 . S
H285 C304 0.951 . S
H286 C306 0.950 . S
H287 C307 0.950 . S
H288 C309 0.950 . S
H289 C312 0.950 . S
H290 C313 0.950 . S
H291 C315 0.950 . S
H292 C316 0.950 . S
H293 C317 0.951 . S
H294 C319 0.951 . S
H295 C321 0.950 . S
H296 C322 0.950 . S
H297 C324 0.950 . S
H298 C327 0.950 . S
H299 C328 0.950 . S
H300 C330 0.950 . S
H301 C331 0.950 . S
C302 H284 0.951 . S
C302 C303 1.366 . S
C302 C304 1.388 . S
C303 C302 1.366 . S
C303 C307 1.385 . S
C304 H285 0.951 . S
C304 C302 1.388 . S
C304 C305 1.366 . S
C305 C304 1.366 . S
C305 C306 1.414 . S
C305 C308 1.499 . S
C306 H286 0.950 . S
C306 C305 1.414 . S
C306 C307 1.374 . S
C307 H287 0.950 . S
C307 C303 1.385 . S
C307 C306 1.374 . S
C308 C305 1.499 . S
C308 C309 1.373 . S
C308 C310 1.389 . S
C309 H288 0.950 . S
C309 C308 1.373 . S
C309 C325 1.377 . S
C310 C308 1.389 . S
C310 C311 1.524 . S
C310 C324 1.377 . S
C311 C310 1.524 . S
C311 C312 1.397 . S
C311 C316 1.363 . S
C312 H289 0.950 . S
C312 C311 1.397 . S
C312 C313 1.334 . S
C313 H290 0.950 . S
C313 C312 1.334 . S
C313 C314 1.287 . S
C314 C313 1.287 . S
C314 C315 1.524 . S
C314 H333 0.913 . S
C315 H291 0.950 . S
C315 C314 1.524 . S
C315 C316 1.415 . S
C316 H292 0.950 . S
C316 C311 1.363 . S
C316 C315 1.415 . S
C317 H293 0.951 . S
C317 C318 1.366 . S
C317 C319 1.388 . S
C318 C317 1.366 . S
C318 C322 1.385 . S
C319 H294 0.951 . S
C319 C317 1.388 . S
C319 C320 1.366 . S
C320 C319 1.366 . S
C320 C321 1.414 . S
C320 C323 1.499 . S
C321 H295 0.950 . S
C321 C320 1.414 . S
C321 C322 1.374 . S
C322 H296 0.950 . S
C322 C318 1.385 . S
C322 C321 1.374 . S
C323 C320 1.499 . S
C323 C324 1.373 . S
C323 C325 1.389 . S
C324 H297 0.950 . S
C324 C310 1.377 . S
C324 C323 1.373 . S
C325 C309 1.377 . S
C325 C323 1.389 . S
C325 C326 1.524 . S
C326 C325 1.524 . S
C326 C327 1.397 . S
C326 C331 1.363 . S
C327 H298 0.950 . S
C327 C326 1.397 . S
C327 C328 1.334 . S
C328 H299 0.950 . S
C328 C327 1.334 . S
C328 C329 1.287 . S
C329 C328 1.287 . S
C329 C330 1.524 . S
C329 H332 0.999 . S
C330 H300 0.950 . S
C330 C329 1.524 . S
C330 C331 1.415 . S
C331 H301 0.950 . S
C331 C326 1.363 . S
C331 C330 1.415 . S
H332 C329 0.999 . S
H333 C314 0.913 . S
H334 C352 0.951 . S
H335 C354 0.951 . S
H336 C356 0.950 . S
H337 C357 0.950 . S
H338 C359 0.950 . S
H339 C362 0.950 . S
H340 C363 0.950 . S
H341 C365 0.950 . S
H342 C366 0.950 . S
H343 C367 0.951 . S
H344 C369 0.951 . S
H345 C371 0.950 . S
H346 C372 0.950 . S
H347 C374 0.950 . S
H348 C377 0.950 . S
H349 C378 0.950 . S
H350 C380 0.950 . S
H351 C381 0.950 . S
C352 H334 0.951 . S
C352 C353 1.366 . S
C352 C354 1.388 . S
C353 C352 1.366 . S
C353 C357 1.385 . S
C354 H335 0.951 . S
C354 C352 1.388 . S
C354 C355 1.366 . S
C355 C354 1.366 . S
C355 C356 1.414 . S
C355 C358 1.499 . S
C356 H336 0.950 . S
C356 C355 1.414 . S
C356 C357 1.374 . S
C357 H337 0.950 . S
C357 C353 1.385 . S
C357 C356 1.374 . S
C358 C355 1.499 . S
C358 C359 1.373 . S
C358 C360 1.389 . S
C359 H338 0.950 . S
C359 C358 1.373 . S
C359 C375 1.377 . S
C360 C358 1.389 . S
C360 C361 1.524 . S
C360 C374 1.377 . S
C361 C360 1.524 . S
C361 C362 1.397 . S
C361 C366 1.363 . S
C362 H339 0.950 . S
C362 C361 1.397 . S
C362 C363 1.334 . S
C363 H340 0.950 . S
C363 C362 1.334 . S
C363 C364 1.287 . S
C364 C363 1.287 . S
C364 C365 1.524 . S
C364 H383 0.913 . S
C365 H341 0.950 . S
C365 C364 1.524 . S
C365 C366 1.415 . S
C366 H342 0.950 . S
C366 C361 1.363 . S
C366 C365 1.415 . S
C367 H343 0.951 . S
C367 C368 1.366 . S
C367 C369 1.388 . S
C368 C367 1.366 . S
C368 C372 1.385 . S
C369 H344 0.951 . S
C369 C367 1.388 . S
C369 C370 1.366 . S
C370 C369 1.366 . S
C370 C371 1.414 . S
C370 C373 1.499 . S
C371 H345 0.950 . S
C371 C370 1.414 . S
C371 C372 1.374 . S
C372 H346 0.950 . S
C372 C368 1.385 . S
C372 C371 1.374 . S
C373 C370 1.499 . S
C373 C374 1.373 . S
C373 C375 1.389 . S
C374 H347 0.950 . S
C374 C360 1.377 . S
C374 C373 1.373 . S
C375 C359 1.377 . S
C375 C373 1.389 . S
C375 C376 1.524 . S
C376 C375 1.524 . S
C376 C377 1.397 . S
C376 C381 1.363 . S
C377 H348 0.950 . S
C377 C376 1.397 . S
C377 C378 1.334 . S
C378 H349 0.950 . S
C378 C377 1.334 . S
C378 C379 1.287 . S
C379 C378 1.287 . S
C379 C380 1.524 . S
C379 H382 0.999 . S
C380 H350 0.950 . S
C380 C379 1.524 . S
C380 C381 1.415 . S
C381 H351 0.950 . S
C381 C376 1.363 . S
C381 C380 1.415 . S
H382 C379 0.999 . S
H383 C364 0.913 . S
H384 C402 0.951 . S
H385 C404 0.951 . S
H386 C406 0.950 . S
H387 C407 0.950 . S
H388 C409 0.950 . S
H389 C412 0.950 . S
H390 C413 0.950 . S
H391 C415 0.950 . S
H392 C416 0.950 . S
H393 C417 0.951 . S
H394 C419 0.951 . S
H395 C421 0.950 . S
H396 C422 0.950 . S
H397 C424 0.950 . S
H398 C427 0.950 . S
H399 C428 0.950 . S
H400 C430 0.950 . S
H401 C431 0.950 . S
C402 H384 0.951 . S
C402 C403 1.366 . S
C402 C404 1.388 . S
C403 C402 1.366 . S
C403 C407 1.385 . S
C404 H385 0.951 . S
C404 C402 1.388 . S
C404 C405 1.366 . S
C405 C404 1.366 . S
C405 C406 1.414 . S
C405 C408 1.499 . S
C406 H386 0.950 . S
C406 C405 1.414 . S
C406 C407 1.374 . S
C407 H387 0.950 . S
C407 C403 1.385 . S
C407 C406 1.374 . S
C408 C405 1.499 . S
C408 C409 1.373 . S
C408 C410 1.389 1_565 S
C409 H388 0.950 . S
C409 C408 1.373 . S
C409 C425 1.377 1_556 S
C410 C408 1.389 1_545 S
C410 C411 1.524 . S
C410 C424 1.377 . S
C411 C410 1.524 . S
C411 C412 1.397 . S
C411 C416 1.363 . S
C412 H389 0.950 . S
C412 C411 1.397 . S
C412 C413 1.334 . S
C413 H390 0.950 . S
C413 C412 1.334 . S
C413 C414 1.287 . S
C414 C413 1.287 . S
C414 C415 1.524 . S
C414 H433 0.913 . S
C415 H391 0.950 . S
C415 C414 1.524 . S
C415 C416 1.415 . S
C416 H392 0.950 . S
C416 C411 1.363 . S
C416 C415 1.415 . S
C417 H393 0.951 . S
C417 C418 1.366 . S
C417 C419 1.388 . S
C418 C417 1.366 . S
C418 C422 1.385 . S
C419 H394 0.951 . S
C419 C417 1.388 . S
C419 C420 1.366 . S
C420 C419 1.366 . S
C420 C421 1.414 . S
C420 C423 1.499 . S
C421 H395 0.950 . S
C421 C420 1.414 . S
C421 C422 1.374 . S
C422 H396 0.950 . S
C422 C418 1.385 . S
C422 C421 1.374 . S
C423 C420 1.499 . S
C423 C424 1.373 1_554 S
C423 C425 1.389 1_545 S
C424 H397 0.950 . S
C424 C410 1.377 . S
C424 C423 1.373 1_556 S
C425 C409 1.377 1_554 S
C425 C423 1.389 1_565 S
C425 C426 1.524 . S
C426 C425 1.524 . S
C426 C427 1.397 . S
C426 C431 1.363 . S
C427 H398 0.950 . S
C427 C426 1.397 . S
C427 C428 1.334 . S
C428 H399 0.950 . S
C428 C427 1.334 . S
C428 C429 1.287 . S
C429 C428 1.287 . S
C429 C430 1.524 . S
C429 H432 0.999 . S
C430 H400 0.950 . S
C430 C429 1.524 . S
C430 C431 1.415 . S
C431 H401 0.950 . S
C431 C426 1.363 . S
C431 C430 1.415 . S
H432 C429 0.999 . S
H433 C414 0.913 . S
H434 C452 0.951 . S
H435 C454 0.951 . S
H436 C456 0.950 . S
H437 C457 0.950 . S
H438 C459 0.950 . S
H439 C462 0.950 . S
H440 C463 0.950 . S
H441 C465 0.950 . S
H442 C466 0.950 . S
H443 C467 0.951 . S
H444 C469 0.951 . S
H445 C471 0.950 . S
H446 C472 0.950 . S
H447 C474 0.950 . S
H448 C477 0.950 . S
H449 C478 0.950 . S
H450 C480 0.950 . S
H451 C481 0.950 . S
C452 H434 0.951 . S
C452 C453 1.366 . S
C452 C454 1.388 . S
C453 C452 1.366 . S
C453 C457 1.385 . S
C454 H435 0.951 . S
C454 C452 1.388 . S
C454 C455 1.366 . S
C455 C454 1.366 . S
C455 C456 1.414 . S
C455 C458 1.499 . S
C456 H436 0.950 . S
C456 C455 1.414 . S
C456 C457 1.374 . S
C457 H437 0.950 . S
C457 C453 1.385 . S
C457 C456 1.374 . S
C458 C455 1.499 . S
C458 C459 1.373 . S
C458 C460 1.389 . S
C459 H438 0.950 . S
C459 C458 1.373 . S
C459 C475 1.377 . S
C460 C458 1.389 . S
C460 C461 1.524 . S
C460 C474 1.377 . S
C461 C460 1.524 . S
C461 C462 1.397 . S
C461 C466 1.363 . S
C462 H439 0.950 . S
C462 C461 1.397 . S
C462 C463 1.334 . S
C463 H440 0.950 . S
C463 C462 1.334 . S
C463 C464 1.287 . S
C464 C463 1.287 . S
C464 C465 1.524 . S
C464 H483 0.913 . S
C465 H441 0.950 . S
C465 C464 1.524 . S
C465 C466 1.415 . S
C466 H442 0.950 . S
C466 C461 1.363 . S
C466 C465 1.415 . S
C467 H443 0.951 . S
C467 C468 1.366 . S
C467 C469 1.388 . S
C468 C467 1.366 . S
C468 C472 1.385 . S
C469 H444 0.951 . S
C469 C467 1.388 . S
C469 C470 1.366 . S
C470 C469 1.366 . S
C470 C471 1.414 . S
C470 C473 1.499 . S
C471 H445 0.950 . S
C471 C470 1.414 . S
C471 C472 1.374 . S
C472 H446 0.950 . S
C472 C468 1.385 . S
C472 C471 1.374 . S
C473 C470 1.499 . S
C473 C474 1.373 . S
C473 C475 1.389 . S
C474 H447 0.950 . S
C474 C460 1.377 . S
C474 C473 1.373 . S
C475 C459 1.377 . S
C475 C473 1.389 . S
C475 C476 1.524 . S
C476 C475 1.524 . S
C476 C477 1.397 . S
C476 C481 1.363 . S
C477 H448 0.950 . S
C477 C476 1.397 . S
C477 C478 1.334 . S
C478 H449 0.950 . S
C478 C477 1.334 . S
C478 C479 1.287 . S
C479 C478 1.287 . S
C479 C480 1.524 . S
C479 H482 0.999 . S
C480 H450 0.950 . S
C480 C479 1.524 . S
C480 C481 1.415 . S
C481 H451 0.950 . S
C481 C476 1.363 . S
C481 C480 1.415 . S
H482 C479 0.999 . S
H483 C464 0.913 . S
H484 C502 0.951 . S
H485 C504 0.951 . S
H486 C506 0.950 1_655 S
H487 C507 0.950 . S
H488 C509 0.950 . S
H489 C512 0.944 1_556 S
H490 C513 0.950 . S
H491 C515 0.950 . S
H492 C516 0.950 . S
H493 C517 0.951 . S
H494 C519 0.951 . S
H495 C521 0.936 1_455 S
H496 C522 0.950 . S
H497 C524 0.950 . S
H498 C527 0.950 . S
H499 C528 0.950 . S
H500 C530 0.950 . S
H501 C531 0.950 . S
C502 H484 0.951 . S
C502 C503 1.366 . S
C502 C504 1.388 . S
C503 C502 1.366 . S
C503 C507 1.385 . S
C504 H485 0.951 . S
C504 C502 1.388 . S
C504 C505 1.366 . S
C505 C504 1.366 . S
C505 C506 1.414 . S
C505 C508 1.499 . S
C506 H486 0.950 1_455 S
C506 C505 1.414 . S
C506 C507 1.374 . S
C507 H487 0.950 . S
C507 C503 1.385 . S
C507 C506 1.374 . S
C508 C505 1.499 . S
C508 C509 1.373 1_455 S
C508 C510 1.389 1_556 S
C509 H488 0.950 . S
C509 C508 1.373 1_655 S
C509 C525 1.377 1_556 S
C510 C508 1.389 1_554 S
C510 C511 1.524 . S
C510 C524 1.377 . S
C511 C510 1.524 . S
C511 C512 1.397 . S
C511 C516 1.363 . S
C512 H489 0.944 1_554 S
C512 C511 1.397 . S
C512 C513 1.334 . S
C513 H490 0.950 . S
C513 C512 1.334 . S
C513 C514 1.287 . S
C514 C513 1.287 . S
C514 C515 1.524 . S
C514 H533 0.913 . S
C515 H491 0.950 . S
C515 C514 1.524 . S
C515 C516 1.415 . S
C516 H492 0.950 . S
C516 C511 1.363 . S
C516 C515 1.415 . S
C517 H493 0.951 . S
C517 C518 1.366 . S
C517 C519 1.388 . S
C518 C517 1.366 . S
C518 C522 1.385 . S
C519 H494 0.951 . S
C519 C517 1.388 . S
C519 C520 1.366 . S
C520 C519 1.366 . S
C520 C521 1.414 . S
C520 C523 1.499 . S
C521 H495 0.936 1_655 S
C521 C520 1.414 . S
C521 C522 1.374 . S
C522 H496 0.950 . S
C522 C518 1.385 . S
C522 C521 1.374 . S
C523 C520 1.499 . S
C523 C524 1.373 1_655 S
C523 C525 1.389 . S
C524 H497 0.950 . S
C524 C510 1.377 . S
C524 C523 1.373 1_455 S
C525 C509 1.377 1_554 S
C525 C523 1.389 . S
C525 C526 1.524 . S
C526 C525 1.524 . S
C526 C527 1.397 . S
C526 C531 1.363 1_554 S
C527 H498 0.950 . S
C527 C526 1.397 . S
C527 C528 1.334 . S
C528 H499 0.950 . S
C528 C527 1.334 . S
C528 C529 1.285 1_554 S
C529 C528 1.285 1_556 S
C529 C530 1.525 . S
C529 H532 1.000 . S
C530 H500 0.950 . S
C530 C529 1.525 . S
C530 C531 1.415 . S
C531 H501 0.950 . S
C531 C526 1.363 1_556 S
C531 C530 1.415 . S
H532 C529 1.000 . S
H533 C514 0.913 . S
H534 C552 0.951 . S
H535 C554 0.951 . S
H536 C556 0.950 . S
H537 C557 0.950 . S
H538 C559 0.950 . S
H539 C562 0.950 . S
H540 C563 0.950 . S
H541 C565 0.950 . S
H542 C566 0.950 . S
H543 C567 0.951 . S
H544 C569 0.951 . S
H545 C571 0.950 . S
H546 C572 0.950 . S
H547 C574 0.950 . S
H548 C577 0.950 . S
H549 C578 0.950 . S
H550 C580 0.950 . S
H551 C581 0.950 . S
C552 H534 0.951 . S
C552 C553 1.366 . S
C552 C554 1.388 . S
C553 C552 1.366 . S
C553 C557 1.385 . S
C554 H535 0.951 . S
C554 C552 1.388 . S
C554 C555 1.366 . S
C555 C554 1.366 . S
C555 C556 1.414 . S
C555 C558 1.499 . S
C556 H536 0.950 . S
C556 C555 1.414 . S
C556 C557 1.374 . S
C557 H537 0.950 . S
C557 C553 1.385 . S
C557 C556 1.374 . S
C558 C555 1.499 . S
C558 C559 1.373 1_545 S
C558 C560 1.389 . S
C559 H538 0.950 . S
C559 C558 1.373 1_565 S
C559 C575 1.377 . S
C560 C558 1.389 . S
C560 C561 1.524 . S
C560 C574 1.377 . S
C561 C560 1.524 . S
C561 C562 1.397 . S
C561 C566 1.363 . S
C562 H539 0.950 . S
C562 C561 1.397 . S
C562 C563 1.334 . S
C563 H540 0.950 . S
C563 C562 1.334 . S
C563 C564 1.287 . S
C564 C563 1.287 . S
C564 C565 1.524 . S
C564 H583 0.913 . S
C565 H541 0.950 . S
C565 C564 1.524 . S
C565 C566 1.415 . S
C566 H542 0.950 . S
C566 C561 1.363 . S
C566 C565 1.415 . S
C567 H543 0.951 . S
C567 C568 1.366 . S
C567 C569 1.388 . S
C568 C567 1.366 . S
C568 C572 1.385 . S
C569 H544 0.951 . S
C569 C567 1.388 . S
C569 C570 1.366 . S
C570 C569 1.366 . S
C570 C571 1.414 . S
C570 C573 1.499 . S
C571 H545 0.950 . S
C571 C570 1.414 . S
C571 C572 1.374 . S
C572 H546 0.950 . S
C572 C568 1.385 . S
C572 C571 1.374 . S
C573 C570 1.499 . S
C573 C574 1.373 1_565 S
C573 C575 1.389 . S
C574 H547 0.950 . S
C574 C560 1.377 . S
C574 C573 1.373 1_545 S
C575 C559 1.377 . S
C575 C573 1.389 . S
C575 C576 1.524 . S
C576 C575 1.524 . S
C576 C577 1.397 . S
C576 C581 1.363 . S
C577 H548 0.950 . S
C577 C576 1.397 . S
C577 C578 1.334 . S
C578 H549 0.950 . S
C578 C577 1.334 . S
C578 C579 1.287 . S
C579 C578 1.287 . S
C579 C580 1.524 . S
C579 H582 0.999 . S
C580 H550 0.950 . S
C580 C579 1.524 . S
C580 C581 1.415 . S
C581 H551 0.950 . S
C581 C576 1.363 . S
C581 C580 1.415 . S
H582 C579 0.999 . S
H583 C564 0.913 . S
H584 C602 0.951 . S
H585 C604 0.951 . S
H586 C606 0.950 . S
H587 C607 0.950 . S
H588 C609 0.950 . S
H589 C612 0.950 . S
H590 C613 0.950 . S
H591 C615 0.950 . S
H592 C616 0.950 . S
H593 C617 0.951 . S
H594 C619 0.951 . S
H595 C621 0.950 . S
H596 C622 0.950 . S
H597 C624 0.950 1_554 S
H598 C627 0.950 . S
H599 C628 0.950 . S
H600 C630 0.950 . S
H601 C631 0.950 . S
C602 H584 0.951 . S
C602 C603 1.366 . S
C602 C604 1.388 . S
C603 C602 1.366 . S
C603 C607 1.385 . S
C604 H585 0.951 . S
C604 C602 1.388 . S
C604 C605 1.366 . S
C605 C604 1.366 . S
C605 C606 1.414 . S
C605 C608 1.499 . S
C606 H586 0.950 . S
C606 C605 1.414 . S
C606 C607 1.374 . S
C607 H587 0.950 . S
C607 C603 1.385 . S
C607 C606 1.374 . S
C608 C605 1.499 . S
C608 C609 1.373 . S
C608 C610 1.389 . S
C609 H588 0.950 . S
C609 C608 1.373 . S
C609 C625 1.377 1_556 S
C610 C608 1.389 . S
C610 C611 1.524 . S
C610 C624 1.376 . S
C611 C610 1.524 . S
C611 C612 1.397 . S
C611 C616 1.363 . S
C612 H589 0.950 . S
C612 C611 1.397 . S
C612 C613 1.334 . S
C613 H590 0.950 . S
C613 C612 1.334 . S
C613 C614 1.287 . S
C614 C613 1.287 . S
C614 C615 1.524 . S
C614 H633 0.913 . S
C615 H591 0.950 . S
C615 C614 1.524 . S
C615 C616 1.415 . S
C616 H592 0.950 . S
C616 C611 1.363 . S
C616 C615 1.415 . S
C617 H593 0.951 . S
C617 C618 1.366 . S
C617 C619 1.388 . S
C618 C617 1.366 . S
C618 C622 1.385 . S
C619 H594 0.951 . S
C619 C617 1.388 . S
C619 C620 1.366 . S
C620 C619 1.366 . S
C620 C621 1.414 . S
C620 C623 1.499 . S
C621 H595 0.950 . S
C621 C620 1.414 . S
C621 C622 1.374 . S
C622 H596 0.950 . S
C622 C618 1.385 . S
C622 C621 1.374 . S
C623 C620 1.499 . S
C623 C624 1.373 1_554 S
C623 C625 1.389 . S
C624 H597 0.950 1_556 S
C624 C610 1.376 . S
C624 C623 1.373 1_556 S
C625 C609 1.377 1_554 S
C625 C623 1.389 . S
C625 C626 1.524 . S
C626 C625 1.524 . S
C626 C627 1.397 . S
C626 C631 1.363 . S
C627 H598 0.950 . S
C627 C626 1.397 . S
C627 C628 1.334 . S
C628 H599 0.950 . S
C628 C627 1.334 . S
C628 C629 1.287 . S
C629 C628 1.287 . S
C629 C630 1.524 . S
C629 H632 0.999 . S
C630 H600 0.950 . S
C630 C629 1.524 . S
C630 C631 1.415 . S
C631 H601 0.950 . S
C631 C626 1.363 . S
C631 C630 1.415 . S
H632 C629 0.999 . S
H633 C614 0.913 . S
H634 C652 0.951 . S
H635 C654 0.951 . S
H636 C656 0.950 . S
H637 C657 0.950 . S
H638 C659 0.950 . S
H639 C662 0.950 . S
H640 C663 0.950 . S
H641 C665 0.950 . S
H642 C666 0.950 . S
H643 C667 0.951 . S
H644 C669 0.951 . S
H645 C671 0.950 . S
H646 C672 0.950 . S
H647 C674 0.950 . S
H648 C677 0.950 . S
H649 C678 0.950 . S
H650 C680 0.950 . S
H651 C681 0.950 . S
C652 H634 0.951 . S
C652 C653 1.366 . S
C652 C654 1.388 . S
C653 C652 1.366 . S
C653 C657 1.385 . S
C654 H635 0.951 . S
C654 C652 1.388 . S
C654 C655 1.366 . S
C655 C654 1.366 . S
C655 C656 1.414 . S
C655 C658 1.499 . S
C656 H636 0.950 . S
C656 C655 1.414 . S
C656 C657 1.374 . S
C657 H637 0.950 . S
C657 C653 1.385 . S
C657 C656 1.374 . S
C658 C655 1.499 . S
C658 C659 1.373 . S
C658 C660 1.389 1_455 S
C659 H638 0.950 . S
C659 C658 1.373 . S
C659 C675 1.377 . S
C660 C658 1.389 1_655 S
C660 C661 1.524 . S
C660 C674 1.377 . S
C661 C660 1.524 . S
C661 C662 1.397 . S
C661 C666 1.363 . S
C662 H639 0.950 . S
C662 C661 1.397 . S
C662 C663 1.334 . S
C663 H640 0.950 . S
C663 C662 1.334 . S
C663 C664 1.287 . S
C664 C663 1.287 . S
C664 C665 1.524 . S
C664 H683 0.913 . S
C665 H641 0.950 . S
C665 C664 1.524 . S
C665 C666 1.415 . S
C666 H642 0.950 . S
C666 C661 1.363 . S
C666 C665 1.415 . S
C667 H643 0.951 . S
C667 C668 1.366 . S
C667 C669 1.388 . S
C668 C667 1.366 . S
C668 C672 1.385 . S
C669 H644 0.951 . S
C669 C667 1.388 . S
C669 C670 1.366 . S
C670 C669 1.366 . S
C670 C671 1.414 . S
C670 C673 1.499 . S
C671 H645 0.950 . S
C671 C670 1.414 . S
C671 C672 1.374 . S
C672 H646 0.950 . S
C672 C668 1.385 . S
C672 C671 1.374 . S
C673 C670 1.499 . S
C673 C674 1.373 . S
C673 C675 1.389 1_655 S
C674 H647 0.950 . S
C674 C660 1.377 . S
C674 C673 1.373 . S
C675 C659 1.377 . S
C675 C673 1.389 1_455 S
C675 C676 1.524 . S
C676 C675 1.524 . S
C676 C677 1.397 . S
C676 C681 1.363 . S
C677 H648 0.950 . S
C677 C676 1.397 . S
C677 C678 1.334 . S
C678 H649 0.950 . S
C678 C677 1.334 . S
C678 C679 1.287 . S
C679 C678 1.287 . S
C679 C680 1.524 . S
C679 H682 0.999 . S
C680 H650 0.950 . S
C680 C679 1.524 . S
C680 C681 1.415 . S
C681 H651 0.950 . S
C681 C676 1.363 . S
C681 C680 1.415 . S
H682 C679 0.999 . S
H683 C664 0.913 . S
C103 C5 0.800 . S
C118 C60 0.808 . S
C153 C19 0.808 . S
C168 C75 0.808 . S
C203 C4 0.843 . S
C218 C32 0.842 . S
C253 C47 0.800 . S
C268 C18 0.808 . S
C303 C61 0.809 . S
C318 C33 0.807 . S
C353 C46 0.842 . S
C368 C74 0.843 . S
C403 C54 1.383 . S
C418 C11 1.349 . S
C453 C68 1.401 . S
C468 C25 1.360 . S
C503 C81 1.357 . S
C518 C40 1.396 . S
C553 C12 1.383 . S
C568 C53 1.349 . S
C603 C26 1.400 . S
C618 C67 1.359 . S
C653 C82 1.396 . S
C668 C39 1.357 . S
