# Generated by pormake.
# Topology whz, (6)-cn, num edge types: 1
# Building blocks:
#     Node 0, Type 0, BuildingBlock: PAMTOO_clean_sbu_0, # of connection points: 6
#     Node 1, Type 0, BuildingBlock: PAMTOO_clean_sbu_0, # of connection points: 6
#     Node 2, Type 0, BuildingBlock: PAMTOO_clean_sbu_0, # of connection points: 6
#     Node 3, Type 0, BuildingBlock: PAMTOO_clean_sbu_0, # of connection points: 6
#     Node 4, Type 0, BuildingBlock: PAMTOO_clean_sbu_0, # of connection points: 6
#     Node 5, Type 0, BuildingBlock: PAMTOO_clean_sbu_0, # of connection points: 6
#     Node 6, Type 0, BuildingBlock: PAMTOO_clean_sbu_0, # of connection points: 6
#     Node 7, Type 0, BuildingBlock: PAMTOO_clean_sbu_0, # of connection points: 6
#     Node 8, Type 0, BuildingBlock: PAMTOO_clean_sbu_0, # of connection points: 6
#     Node 9, Type 0, BuildingBlock: PAMTOO_clean_sbu_0, # of connection points: 6
#     Node 10, Type 0, BuildingBlock: PAMTOO_clean_sbu_0, # of connection points: 6
#     Node 11, Type 0, BuildingBlock: PAMTOO_clean_sbu_0, # of connection points: 6
#     Node 12, Type 0, BuildingBlock: PAMTOO_clean_sbu_0, # of connection points: 6
#     Node 13, Type 0, BuildingBlock: PAMTOO_clean_sbu_0, # of connection points: 6
#     Node 14, Type 0, BuildingBlock: PAMTOO_clean_sbu_0, # of connection points: 6
#     Node 15, Type 0, BuildingBlock: PAMTOO_clean_sbu_0, # of connection points: 6
#     Edge 16, Type (0, 0), BuildingBlock: UVAHIK_clean_linker_0, # of connection points: 2
#     Edge 17, Type (0, 0), BuildingBlock: UVAHIK_clean_linker_0, # of connection points: 2
#     Edge 18, Type (0, 0), BuildingBlock: UVAHIK_clean_linker_0, # of connection points: 2
#     Edge 19, Type (0, 0), BuildingBlock: UVAHIK_clean_linker_0, # of connection points: 2
#     Edge 20, Type (0, 0), BuildingBlock: UVAHIK_clean_linker_0, # of connection points: 2
#     Edge 21, Type (0, 0), BuildingBlock: UVAHIK_clean_linker_0, # of connection points: 2
#     Edge 22, Type (0, 0), BuildingBlock: UVAHIK_clean_linker_0, # of connection points: 2
#     Edge 23, Type (0, 0), BuildingBlock: UVAHIK_clean_linker_0, # of connection points: 2
#     Edge 24, Type (0, 0), BuildingBlock: UVAHIK_clean_linker_0, # of connection points: 2
#     Edge 25, Type (0, 0), BuildingBlock: UVAHIK_clean_linker_0, # of connection points: 2
#     Edge 26, Type (0, 0), BuildingBlock: UVAHIK_clean_linker_0, # of connection points: 2
#     Edge 27, Type (0, 0), BuildingBlock: UVAHIK_clean_linker_0, # of connection points: 2
#     Edge 28, Type (0, 0), BuildingBlock: UVAHIK_clean_linker_0, # of connection points: 2
#     Edge 29, Type (0, 0), BuildingBlock: UVAHIK_clean_linker_0, # of connection points: 2
#     Edge 30, Type (0, 0), BuildingBlock: UVAHIK_clean_linker_0, # of connection points: 2
#     Edge 31, Type (0, 0), BuildingBlock: UVAHIK_clean_linker_0, # of connection points: 2
#     Edge 32, Type (0, 0), BuildingBlock: UVAHIK_clean_linker_0, # of connection points: 2
#     Edge 33, Type (0, 0), BuildingBlock: UVAHIK_clean_linker_0, # of connection points: 2
#     Edge 34, Type (0, 0), BuildingBlock: UVAHIK_clean_linker_0, # of connection points: 2
#     Edge 35, Type (0, 0), BuildingBlock: UVAHIK_clean_linker_0, # of connection points: 2
#     Edge 36, Type (0, 0), BuildingBlock: UVAHIK_clean_linker_0, # of connection points: 2
#     Edge 37, Type (0, 0), BuildingBlock: UVAHIK_clean_linker_0, # of connection points: 2
#     Edge 38, Type (0, 0), BuildingBlock: UVAHIK_clean_linker_0, # of connection points: 2
#     Edge 39, Type (0, 0), BuildingBlock: UVAHIK_clean_linker_0, # of connection points: 2
#     Edge 40, Type (0, 0), BuildingBlock: UVAHIK_clean_linker_0, # of connection points: 2
#     Edge 41, Type (0, 0), BuildingBlock: UVAHIK_clean_linker_0, # of connection points: 2
#     Edge 42, Type (0, 0), BuildingBlock: UVAHIK_clean_linker_0, # of connection points: 2
#     Edge 43, Type (0, 0), BuildingBlock: UVAHIK_clean_linker_0, # of connection points: 2
#     Edge 44, Type (0, 0), BuildingBlock: UVAHIK_clean_linker_0, # of connection points: 2
#     Edge 45, Type (0, 0), BuildingBlock: UVAHIK_clean_linker_0, # of connection points: 2
#     Edge 46, Type (0, 0), BuildingBlock: UVAHIK_clean_linker_0, # of connection points: 2
#     Edge 47, Type (0, 0), BuildingBlock: UVAHIK_clean_linker_0, # of connection points: 2
#     Edge 48, Type (0, 0), BuildingBlock: UVAHIK_clean_linker_0, # of connection points: 2
#     Edge 49, Type (0, 0), BuildingBlock: UVAHIK_clean_linker_0, # of connection points: 2
#     Edge 50, Type (0, 0), BuildingBlock: UVAHIK_clean_linker_0, # of connection points: 2
#     Edge 51, Type (0, 0), BuildingBlock: UVAHIK_clean_linker_0, # of connection points: 2
#     Edge 52, Type (0, 0), BuildingBlock: UVAHIK_clean_linker_0, # of connection points: 2
#     Edge 53, Type (0, 0), BuildingBlock: UVAHIK_clean_linker_0, # of connection points: 2
#     Edge 54, Type (0, 0), BuildingBlock: UVAHIK_clean_linker_0, # of connection points: 2
#     Edge 55, Type (0, 0), BuildingBlock: UVAHIK_clean_linker_0, # of connection points: 2
#     Edge 56, Type (0, 0), BuildingBlock: UVAHIK_clean_linker_0, # of connection points: 2
#     Edge 57, Type (0, 0), BuildingBlock: UVAHIK_clean_linker_0, # of connection points: 2
#     Edge 58, Type (0, 0), BuildingBlock: UVAHIK_clean_linker_0, # of connection points: 2
#     Edge 59, Type (0, 0), BuildingBlock: UVAHIK_clean_linker_0, # of connection points: 2
#     Edge 60, Type (0, 0), BuildingBlock: UVAHIK_clean_linker_0, # of connection points: 2
#     Edge 61, Type (0, 0), BuildingBlock: UVAHIK_clean_linker_0, # of connection points: 2
#     Edge 62, Type (0, 0), BuildingBlock: UVAHIK_clean_linker_0, # of connection points: 2
#     Edge 63, Type (0, 0), BuildingBlock: UVAHIK_clean_linker_0, # of connection points: 2
# Relax obj value: 0.565
# Max RMSD: 0.295
# Mean RMSD: 0.295
data_MOF--net-whz--node1-PAMTOO_clean_sbu_0--edge1-UVAHIK_clean_linker_0
_symmetry_space_group_name_H-M    P1
_symmetry_Int_Tables_number       1
_symmetry_cell_setting            triclinic
loop_
_symmetry_equiv_pos_as_xyz
'x, y, z'
_cell_length_a     44.768052
_cell_length_b     45.046553
_cell_length_c     87.216071
_cell_angle_alpha  90.180696
_cell_angle_beta   90.132381
_cell_angle_gamma 89.768027
loop_
_atom_site_label
_atom_site_type_symbol
_atom_site_fract_x
_atom_site_fract_y
_atom_site_fract_z
_atom_type_partial_charge
Dy0 Dy 0.31563 0.17197 0.13867 0.0
Dy1 Dy 0.3176 0.19802 0.17388 0.0
C2 C 0.28226 0.23446 0.14769 0.0
O3 O 0.36171 0.1898 0.14367 0.0
O4 O 0.34865 0.2265 0.1605 0.0
O5 O 0.32783 0.17626 0.11481 0.0
O6 O 0.30742 0.13561 0.12278 0.0
O7 O 0.35199 0.16296 0.17149 0.0
O8 O 0.32613 0.13406 0.15509 0.0
O9 O 0.28306 0.16194 0.17258 0.0
O10 O 0.26917 0.16739 0.14751 0.0
O11 O 0.29525 0.21036 0.19487 0.0
O12 O 0.34352 0.20906 0.194 0.0
C13 C 0.36789 0.21488 0.15083 0.0
O14 O 0.29244 0.21668 0.13675 0.0
O15 O 0.28801 0.23026 0.16229 0.0
C16 C 0.30296 0.14649 0.09601 0.0
C17 C 0.27998 0.14067 0.06578 0.0
C18 C 0.27172 0.16497 0.07512 0.0
C19 C 0.28322 0.16793 0.09008 0.0
C20 C 0.31038 0.12182 0.08691 0.0
C21 C 0.29908 0.11893 0.072 0.0
C22 C 0.31805 0.14998 0.11105 0.0
C23 C 0.34477 0.13662 0.16669 0.0
C24 C 0.2633 0.15856 0.16152 0.0
C25 C 0.32052 0.1898 0.21583 0.0
C26 C 0.32138 0.14999 0.24072 0.0
C27 C 0.31808 0.13946 0.22562 0.0
C28 C 0.31781 0.15916 0.2133 0.0
C29 C 0.32365 0.20058 0.23079 0.0
C30 C 0.32402 0.18086 0.24314 0.0
C31 C 0.32001 0.21019 0.20277 0.0
H32 H 0.25716 0.1822 0.0707 0.0
H33 H 0.27722 0.18723 0.09686 0.0
H34 H 0.32555 0.10499 0.09123 0.0
H35 H 0.30553 0.09969 0.06529 0.0
H36 H 0.3158 0.11601 0.22328 0.0
H37 H 0.31534 0.15049 0.20177 0.0
H38 H 0.32561 0.2242 0.23293 0.0
H39 H 0.32577 0.18996 0.25461 0.0
Dy40 Dy 0.60826 0.5667 0.38211 0.0
Dy41 Dy 0.57302 0.55508 0.4144 0.0
C42 C 0.54242 0.54052 0.3838 0.0
O43 O 0.57913 0.60688 0.38539 0.0
O44 O 0.57156 0.60432 0.41133 0.0
O45 O 0.60504 0.58166 0.35862 0.0
O46 O 0.64722 0.56512 0.36732 0.0
O47 O 0.62151 0.55497 0.41893 0.0
O48 O 0.6342 0.58978 0.40138 0.0
O49 O 0.59003 0.51013 0.40739 0.0
O50 O 0.62692 0.52365 0.39052 0.0
O51 O 0.54402 0.52898 0.42884 0.0
O52 O 0.56358 0.56988 0.43736 0.0
C53 C 0.5704 0.61901 0.39836 0.0
O54 O 0.56934 0.53558 0.37828 0.0
O55 O 0.53915 0.55711 0.39598 0.0
C56 C 0.6369 0.55828 0.34037 0.0
C57 C 0.64668 0.53104 0.31125 0.0
C58 C 0.62949 0.55716 0.3126 0.0
C59 C 0.62477 0.57058 0.32692 0.0
C60 C 0.65391 0.53203 0.33914 0.0
C61 C 0.65876 0.51862 0.32476 0.0
C62 C 0.63238 0.57404 0.35525 0.0
C63 C 0.63866 0.57681 0.41479 0.0
C64 C 0.61424 0.50391 0.39946 0.0
C65 C 0.56478 0.52947 0.45394 0.0
C66 C 0.60327 0.50641 0.47652 0.0
C67 C 0.58923 0.53403 0.47868 0.0
C68 C 0.56997 0.54535 0.46754 0.0
C69 C 0.57791 0.50124 0.45205 0.0
C70 C 0.59679 0.48967 0.46336 0.0
C71 C 0.55069 0.54492 0.44093 0.0
H72 H 0.62021 0.56772 0.30251 0.0
H73 H 0.61184 0.59093 0.32746 0.0
H74 H 0.66362 0.52192 0.34925 0.0
H75 H 0.67185 0.49838 0.32425 0.0
H76 H 0.59354 0.54707 0.4889 0.0
H77 H 0.56035 0.56724 0.46918 0.0
H78 H 0.57471 0.48864 0.44158 0.0
H79 H 0.60728 0.46823 0.46154 0.0
Dy80 Dy 0.21045 0.87535 0.63875 0.0
Dy81 Dy 0.20422 0.85222 0.67432 0.0
C82 C 0.23822 0.81117 0.64938 0.0
O83 O 0.16358 0.85823 0.64243 0.0
O84 O 0.17327 0.82363 0.66092 0.0
O85 O 0.20126 0.86929 0.6146 0.0
O86 O 0.21978 0.91091 0.6227 0.0
O87 O 0.17148 0.88812 0.66995 0.0
O88 O 0.20132 0.9146 0.6546 0.0
O89 O 0.24189 0.88514 0.67308 0.0
O90 O 0.25661 0.87758 0.64827 0.0
O91 O 0.22396 0.83896 0.69585 0.0
O92 O 0.17623 0.84623 0.69418 0.0
C93 C 0.15592 0.83422 0.65008 0.0
O94 O 0.23369 0.83064 0.63828 0.0
O95 O 0.22913 0.81528 0.66354 0.0
C96 C 0.22842 0.8983 0.59635 0.0
C97 C 0.25543 0.90466 0.56706 0.0
C98 C 0.25554 0.87703 0.57463 0.0
C99 C 0.24217 0.87387 0.58911 0.0
C100 C 0.22868 0.92587 0.58892 0.0
C101 C 0.24195 0.92904 0.5745 0.0
C102 C 0.21123 0.89544 0.61081 0.0
C103 C 0.18107 0.91382 0.66548 0.0
C104 C 0.26235 0.88665 0.66229 0.0
C105 C 0.20037 0.86311 0.71634 0.0
C106 C 0.20425 0.90315 0.7412 0.0
C107 C 0.20792 0.91308 0.72606 0.0
C108 C 0.20592 0.89328 0.71376 0.0
C109 C 0.1966 0.85291 0.73132 0.0
C110 C 0.19862 0.87271 0.74365 0.0
C111 C 0.19898 0.84248 0.70333 0.0
H112 H 0.26599 0.85782 0.56939 0.0
H113 H 0.24222 0.85226 0.59452 0.0
H114 H 0.21788 0.94496 0.59413 0.0
H115 H 0.24087 0.95055 0.56902 0.0
H116 H 0.21255 0.93609 0.72369 0.0
H117 H 0.20905 0.90142 0.70221 0.0
H118 H 0.19252 0.82961 0.73349 0.0
H119 H 0.19662 0.86383 0.75512 0.0
Dy120 Dy 0.91269 0.47878 0.88486 0.0
Dy121 Dy 0.93615 0.48349 0.92058 0.0
C122 C 0.97687 0.50644 0.89392 0.0
O123 O 0.94326 0.43968 0.88781 0.0
O124 O 0.93983 0.43548 0.91387 0.0
O125 O 0.9213 0.47118 0.86075 0.0
O126 O 0.87589 0.47835 0.86857 0.0
O127 O 0.88696 0.48212 0.92011 0.0
O128 O 0.88463 0.44954 0.90058 0.0
O129 O 0.92348 0.52997 0.91439 0.0
O130 O 0.89223 0.52088 0.8939 0.0
O131 O 0.9468 0.50724 0.94152 0.0
O132 O 0.94835 0.45936 0.94095 0.0
C133 C 0.94721 0.42439 0.90046 0.0
O134 O 0.95271 0.50969 0.88531 0.0
O135 O 0.97643 0.49028 0.9064 0.0
C136 C 0.88582 0.48673 0.84188 0.0
C137 C 0.87352 0.50974 0.81218 0.0
C138 C 0.88338 0.52853 0.82415 0.0
C139 C 0.8895 0.51713 0.83887 0.0
C140 C 0.87573 0.46813 0.83005 0.0
C141 C 0.86971 0.47939 0.81544 0.0
C142 C 0.89322 0.47304 0.85685 0.0
C143 C 0.87389 0.4597 0.91365 0.0
C144 C 0.90228 0.53842 0.90487 0.0
C145 C 0.92908 0.4811 0.96304 0.0
C146 C 0.89169 0.47134 0.98848 0.0
C147 C 0.87934 0.47735 0.97398 0.0
C148 C 0.89788 0.48206 0.96136 0.0
C149 C 0.94153 0.47568 0.97747 0.0
C150 C 0.92304 0.47098 0.99009 0.0
C151 C 0.94848 0.48295 0.94956 0.0
H152 H 0.88632 0.55206 0.82217 0.0
H153 H 0.8973 0.53192 0.84783 0.0
H154 H 0.87294 0.44458 0.83207 0.0
H155 H 0.86279 0.46401 0.80656 0.0
H156 H 0.85541 0.47797 0.97231 0.0
H157 H 0.88786 0.48597 0.95025 0.0
H158 H 0.96556 0.47471 0.97894 0.0
H159 H 0.9334 0.46727 1.00116 0.0
Dy160 Dy 0.72517 0.83962 0.88736 0.0
Dy161 Dy 0.71652 0.87734 0.91934 0.0
C162 C 0.69238 0.90222 0.88625 0.0
O163 O 0.75557 0.879 0.88586 0.0
O164 O 0.76378 0.88295 0.91167 0.0
O165 O 0.70679 0.81002 0.87025 0.0
O166 O 0.75335 0.82249 0.86931 0.0
O167 O 0.73368 0.83155 0.92586 0.0
O168 O 0.75843 0.82184 0.90355 0.0
O169 O 0.67149 0.86051 0.91236 0.0
O170 O 0.68951 0.81816 0.90157 0.0
O171 O 0.69705 0.88056 0.94205 0.0
O172 O 0.72651 0.91503 0.93396 0.0
C173 C 0.7719 0.88836 0.89747 0.0
O174 O 0.69399 0.87533 0.88053 0.0
O175 O 0.70305 0.90895 0.90004 0.0
C176 C 0.74168 0.77248 0.86325 0.0
C177 C 0.75831 0.71221 0.85987 0.0
C178 C 0.72816 0.72026 0.86175 0.0
C179 C 0.71992 0.75006 0.86337 0.0
C180 C 0.77192 0.76432 0.86196 0.0
C181 C 0.78015 0.73453 0.86035 0.0
C182 C 0.73295 0.80419 0.8644 0.0
C183 C 0.75381 0.81652 0.918 0.0
C184 C 0.66713 0.83329 0.90746 0.0
C185 C 0.72485 0.90678 0.96105 0.0
C186 C 0.74955 0.91221 0.99107 0.0
C187 C 0.76739 0.90311 0.97856 0.0
C188 C 0.75519 0.90044 0.96372 0.0
C189 C 0.70699 0.91553 0.97349 0.0
C190 C 0.7191 0.9182 0.98827 0.0
C191 C 0.71118 0.90494 0.94552 0.0
H192 H 0.71082 0.70356 0.8615 0.0
H193 H 0.69643 0.75554 0.86442 0.0
H194 H 0.78927 0.78101 0.86183 0.0
H195 H 0.80352 0.72918 0.85866 0.0
H196 H 0.79095 0.89853 0.98016 0.0
H197 H 0.76949 0.89362 0.95434 0.0
H198 H 0.6835 0.92042 0.97175 0.0
H199 H 0.70442 0.9247 0.99755 0.0
Dy200 Dy 0.45717 0.4934 0.64302 0.0
Dy201 Dy 0.41627 0.47882 0.6731 0.0
C202 C 0.39061 0.47154 0.63859 0.0
O203 O 0.43621 0.53705 0.64959 0.0
O204 O 0.39747 0.52167 0.66487 0.0
O205 O 0.47368 0.48798 0.61998 0.0
O206 O 0.49288 0.52138 0.63512 0.0
O207 O 0.45449 0.50948 0.67894 0.0
O208 O 0.48489 0.48406 0.66349 0.0
O209 O 0.4423 0.43686 0.66841 0.0
O210 O 0.45755 0.44386 0.6435 0.0
O211 O 0.41747 0.46065 0.696 0.0
O212 O 0.37663 0.48043 0.68744 0.0
C213 C 0.41078 0.54214 0.6567 0.0
O214 O 0.41089 0.49059 0.63413 0.0
O215 O 0.39118 0.45971 0.65251 0.0
C216 C 0.52543 0.49761 0.61799 0.0
C217 C 0.58289 0.47989 0.60857 0.0
C218 C 0.56351 0.45935 0.61542 0.0
C219 C 0.53501 0.46819 0.62018 0.0
C220 C 0.54516 0.5184 0.61184 0.0
C221 C 0.57365 0.50966 0.60719 0.0
C222 C 0.49513 0.50718 0.62211 0.0
C223 C 0.48173 0.50199 0.67506 0.0
C224 C 0.45397 0.42674 0.65553 0.0
C225 C 0.38668 0.48451 0.71458 0.0
C226 C 0.37868 0.51055 0.74415 0.0
C227 C 0.39674 0.48518 0.74215 0.0
C228 C 0.40056 0.47233 0.72762 0.0
C229 C 0.3687 0.50997 0.71648 0.0
C230 C 0.36474 0.52278 0.73108 0.0
C231 C 0.39053 0.4696 0.69938 0.0
H232 H 0.57006 0.43631 0.61666 0.0
H233 H 0.52023 0.45193 0.62521 0.0
H234 H 0.53822 0.54126 0.61025 0.0
H235 H 0.58779 0.52593 0.60172 0.0
H236 H 0.40747 0.47477 0.7519 0.0
H237 H 0.41427 0.45254 0.7266 0.0
H238 H 0.35758 0.51997 0.70673 0.0
H239 H 0.35089 0.54245 0.73209 0.0
Dy240 Dy 0.80548 0.19646 0.38457 0.0
Dy241 Dy 0.81257 0.17234 0.41979 0.0
C242 C 0.82664 0.1332 0.39051 0.0
O243 O 0.7587 0.18532 0.39156 0.0
O244 O 0.76909 0.15361 0.41154 0.0
O245 O 0.7815 0.21535 0.3653 0.0
O246 O 0.82676 0.199 0.36255 0.0
O247 O 0.78259 0.21299 0.41991 0.0
O248 O 0.80277 0.23655 0.39918 0.0
O249 O 0.85269 0.20102 0.4164 0.0
O250 O 0.8544 0.20006 0.39016 0.0
O251 O 0.82297 0.18098 0.44355 0.0
O252 O 0.81074 0.13651 0.4365 0.0
C253 C 0.75055 0.16449 0.40122 0.0
O254 O 0.80377 0.1476 0.3852 0.0
O255 O 0.83925 0.14289 0.40325 0.0
C256 C 0.79346 0.18826 0.34293 0.0
C257 C 0.78419 0.14821 0.31855 0.0
C258 C 0.78044 0.13895 0.33379 0.0
C259 C 0.78499 0.15884 0.34586 0.0
C260 C 0.7965 0.19786 0.3278 0.0
C261 C 0.7917 0.17807 0.3157 0.0
C262 C 0.80241 0.20761 0.35565 0.0
C263 C 0.78683 0.23726 0.41176 0.0
C264 C 0.86694 0.20567 0.4035 0.0
C265 C 0.80049 0.15047 0.46259 0.0
C266 C 0.77505 0.14622 0.49239 0.0
C267 C 0.76688 0.16948 0.48242 0.0
C268 C 0.77953 0.17164 0.4677 0.0
C269 C 0.80777 0.1267 0.47227 0.0
C270 C 0.79523 0.12456 0.48694 0.0
C271 C 0.81723 0.15399 0.44799 0.0
H272 H 0.77475 0.1162 0.33642 0.0
H273 H 0.7827 0.15102 0.35751 0.0
H274 H 0.80317 0.22045 0.32536 0.0
H275 H 0.794 0.18619 0.30409 0.0
H276 H 0.75153 0.18665 0.48617 0.0
H277 H 0.77353 0.19029 0.4605 0.0
H278 H 0.82386 0.11009 0.46864 0.0
H279 H 0.80165 0.10598 0.4941 0.0
Dy280 Dy 0.07823 0.55999 0.14063 0.0
Dy281 Dy 0.11731 0.56511 0.17256 0.0
C282 C 0.14231 0.58957 0.13982 0.0
O283 O 0.11652 0.52783 0.13888 0.0
O284 O 0.11907 0.51798 0.16449 0.0
O285 O 0.05011 0.58044 0.12344 0.0
O286 O 0.06052 0.53356 0.12207 0.0
O287 O 0.07136 0.54929 0.17947 0.0
O288 O 0.05667 0.52881 0.15655 0.0
O289 O 0.10063 0.61091 0.16698 0.0
O290 O 0.05778 0.59554 0.15532 0.0
O291 O 0.12203 0.58261 0.19562 0.0
O292 O 0.15572 0.55302 0.18642 0.0
C293 C 0.12431 0.51022 0.15021 0.0
O294 O 0.11484 0.5906 0.13466 0.0
O295 O 0.14914 0.57709 0.15313 0.0
C296 C 1.0113 0.54819 0.1152 0.0
C297 C 0.95034 0.53524 0.11011 0.0
C298 C 0.95975 0.56469 0.11235 0.0
C299 C 0.9899 0.57111 0.11483 0.0
C300 C 1.00173 0.51867 0.11352 0.0
C301 C 0.97159 0.51226 0.11106 0.0
C302 C 0.04345 0.55502 0.11712 0.0
C303 C 0.05373 0.53196 0.17134 0.0
C304 C 0.07345 0.61655 0.16201 0.0
C305 C 0.14733 0.55145 0.21367 0.0
C306 C 0.15353 0.52457 0.24309 0.0
C307 C 0.14058 0.55294 0.2415 0.0
C308 C 0.13765 0.5662 0.22702 0.0
C309 C 0.15987 0.52289 0.21519 0.0
C310 C 0.16291 0.50966 0.22969 0.0
C311 C 0.14596 0.56699 0.19857 0.0
H312 H 0.94389 0.58287 0.11176 0.0
H313 H 0.99648 0.59409 0.11613 0.0
H314 H 1.01761 0.50047 0.11373 0.0
H315 H 0.96521 0.48939 0.10911 0.0
H316 H 0.13347 0.56537 0.2515 0.0
H317 H 0.12825 0.58836 0.22631 0.0
H318 H 0.16769 0.51084 0.20521 0.0
H319 H 0.17265 0.48766 0.23038 0.0
Dy320 Dy 0.80202 0.67452 0.63663 0.0
Dy321 Dy 0.80928 0.70124 0.67168 0.0
C322 C 0.77143 0.73818 0.64664 0.0
O323 O 0.84866 0.69271 0.6398 0.0
O324 O 0.83709 0.7297 0.65667 0.0
O325 O 0.81122 0.67875 0.61241 0.0
O326 O 0.79121 0.63834 0.62098 0.0
O327 O 0.8428 0.66593 0.66789 0.0
O328 O 0.81416 0.63676 0.65297 0.0
O329 O 0.77336 0.6665 0.67178 0.0
O330 O 0.75674 0.67126 0.64706 0.0
O331 O 0.7911 0.71253 0.69387 0.0
O332 O 0.83881 0.71444 0.69003 0.0
C333 C 0.85536 0.71806 0.64656 0.0
O334 O 0.77798 0.71897 0.6356 0.0
O335 O 0.77998 0.73469 0.66094 0.0
C336 C 0.78354 0.6495 0.59429 0.0
C337 C 0.75774 0.64289 0.56455 0.0
C338 C 0.75604 0.67019 0.57252 0.0
C339 C 0.76883 0.67348 0.58719 0.0
C340 C 0.78473 0.62219 0.58652 0.0
C341 C 0.7721 0.61891 0.5719 0.0
C342 C 0.80041 0.65273 0.60892 0.0
C343 C 0.83425 0.63947 0.66394 0.0
C344 C 0.75227 0.66331 0.66135 0.0
C345 C 0.82266 0.69634 0.71368 0.0
C346 C 0.83288 0.6605 0.73962 0.0
C347 C 0.8276 0.64754 0.72519 0.0
C348 C 0.82257 0.66529 0.71233 0.0
C349 C 0.82802 0.70946 0.72797 0.0
C350 C 0.83302 0.69172 0.74084 0.0
C351 C 0.81746 0.71489 0.70016 0.0
H352 H 0.74486 0.6891 0.56742 0.0
H353 H 0.76765 0.69488 0.59286 0.0
H354 H 0.79628 0.60345 0.59161 0.0
H355 H 0.77449 0.59768 0.56617 0.0
H356 H 0.82735 0.62371 0.72381 0.0
H357 H 0.81847 0.65482 0.70133 0.0
H358 H 0.82811 0.73341 0.72919 0.0
H359 H 0.83631 0.70252 0.75182 0.0
Dy360 Dy 0.11466 0.07329 0.88888 0.0
Dy361 Dy 0.08785 0.07755 0.92376 0.0
C362 C 0.0508 0.0425 0.89771 0.0
O363 O 0.09764 0.1198 0.89336 0.0
O364 O 0.05958 0.10709 0.90925 0.0
O365 O 0.11116 0.08429 0.86481 0.0
O366 O 0.1517 0.0639 0.87351 0.0
O367 O 0.12429 0.11038 0.92169 0.0
O368 O 0.15264 0.08317 0.90551 0.0
O369 O 0.1229 0.0416 0.92321 0.0
O370 O 0.11785 0.02725 0.89816 0.0
O371 O 0.07622 0.05726 0.94533 0.0
O372 O 0.07354 0.10495 0.94273 0.0
C373 C 0.07178 0.12609 0.89981 0.0
O374 O 0.06892 0.05196 0.88679 0.0
O375 O 0.05547 0.04806 0.91231 0.0
C376 C 0.14211 0.05897 0.84658 0.0
C377 C 0.14983 0.03599 0.81647 0.0
C378 C 0.12428 0.02886 0.82514 0.0
C379 C 0.12038 0.04036 0.84003 0.0
C380 C 0.168 0.06521 0.83816 0.0
C381 C 0.17182 0.05393 0.82331 0.0
C382 C 0.13775 0.07421 0.86151 0.0
C383 C 0.15056 0.10233 0.91688 0.0
C384 C 0.12601 0.02147 0.91233 0.0
C385 C 0.0928 0.08661 0.96579 0.0
C386 C 0.13065 0.09203 0.99151 0.0
C387 C 0.14241 0.09248 0.97661 0.0
C388 C 0.12371 0.08982 0.96388 0.0
C389 C 0.08073 0.08632 0.98055 0.0
C390 C 0.09949 0.08894 0.99332 0.0
C391 C 0.0736 0.08279 0.9523 0.0
H392 H 0.10682 1.01523 0.82022 0.0
H393 H 0.10014 0.03529 0.84626 0.0
H394 H 0.18507 0.07951 0.84295 0.0
H395 H 0.19197 0.05949 0.81712 0.0
H396 H 0.16609 0.09462 0.97477 0.0
H397 H 0.13338 0.0899 0.95251 0.0
H398 H 0.05692 0.08361 0.9822 0.0
H399 H 0.08957 0.08766 1.00461 0.0
Dy400 Dy 0.72697 0.36095 0.13355 0.0
Dy401 Dy 0.74011 0.31661 0.16231 0.0
C402 C 0.75167 0.29657 0.13006 0.0
O403 O 0.68379 0.33645 0.13723 0.0
O404 O 0.69033 0.3155 0.16107 0.0
O405 O 0.70794 0.36285 0.11076 0.0
O406 O 0.73116 0.40102 0.11995 0.0
O407 O 0.7344 0.3607 0.17326 0.0
O408 O 0.70713 0.38455 0.15438 0.0
O409 O 0.7836 0.34011 0.15769 0.0
O410 O 0.76722 0.38084 0.14424 0.0
O411 O 0.73421 0.29578 0.18432 0.0
O412 O 0.76939 0.28073 0.1689 0.0
C413 C 0.6733 0.3223 0.14928 0.0
O414 O 0.75935 0.32407 0.12739 0.0
O415 O 0.7318 0.29249 0.14062 0.0
C416 C 0.73172 0.39389 0.0926 0.0
C417 C 0.75521 0.40259 0.06266 0.0
C418 C 0.77404 0.40334 0.07566 0.0
C419 C 0.76242 0.39905 0.09048 0.0
C420 C 0.71306 0.39298 0.07967 0.0
C421 C 0.72458 0.3972 0.06494 0.0
C422 C 0.71819 0.38932 0.10796 0.0
C423 C 0.71706 0.3826 0.16871 0.0
C424 C 0.78772 0.36711 0.15233 0.0
C425 C 0.74653 0.2444 0.18412 0.0
C426 C 0.73255 0.18524 0.19149 0.0
C427 C 0.70971 0.20562 0.1879 0.0
C428 C 0.71665 0.23498 0.18417 0.0
C429 C 0.76935 0.22373 0.18686 0.0
C430 C 0.76247 0.1944 0.19047 0.0
C431 C 0.75456 0.27559 0.18147 0.0
H432 H 0.79769 0.40764 0.07442 0.0
H433 H 0.7774 0.3998 0.10025 0.0
H434 H 0.68936 0.38889 0.08097 0.0
H435 H 0.70939 0.39582 0.05529 0.0
H436 H 0.68648 0.19914 0.18852 0.0
H437 H 0.69864 0.25044 0.18179 0.0
H438 H 0.79255 0.23052 0.1867 0.0
H439 H 0.78058 0.17942 0.1934 0.0
Dy440 Dy 0.41583 0.97482 0.38641 0.0
Dy441 Dy 0.46247 0.97984 0.41539 0.0
C442 C 0.48168 0.99647 0.38305 0.0
O443 O 0.44148 0.93171 0.3886 0.0
O444 O 0.4502 0.93209 0.4144 0.0
O445 O 0.40962 0.95624 0.36384 0.0
O446 O 0.37543 0.9848 0.37337 0.0
O447 O 0.41841 0.97582 0.42662 0.0
O448 O 0.38966 0.95693 0.40675 0.0
O449 O 0.44915 0.02686 0.4101 0.0
O450 O 0.40483 0.01814 0.39745 0.0
O451 O 0.50506 0.96493 0.4242 0.0
O452 O 0.48013 0.99913 0.43619 0.0
C453 C 0.44852 0.91766 0.40135 0.0
O454 O 0.45428 1.00461 0.37985 0.0
O455 O 0.48523 0.97543 0.39301 0.0
C456 C 0.38223 0.98596 0.34611 0.0
C457 C 0.37556 1.00993 0.31613 0.0
C458 C 0.40371 1.0006 0.32159 0.0
C459 C 0.40702 0.98889 0.33635 0.0
C460 C 0.35419 0.99577 0.34084 0.0
C461 C 0.35088 1.00769 0.32607 0.0
C462 C 0.3849 0.97076 0.3612 0.0
C463 C 0.39371 0.9637 0.42143 0.0
C464 C 0.42293 0.03589 0.40498 0.0
C465 C 0.53315 1.00324 0.4358 0.0
C466 C 0.5861 0.03579 0.44072 0.0
C467 C 0.58736 1.00532 0.43719 0.0
C468 C 0.56114 0.9892 0.43486 0.0
C469 C 0.53194 0.03408 0.43821 0.0
C470 C 0.55814 0.05018 0.44065 0.0
C471 C 0.50565 0.98527 0.43485 0.0
H472 H 0.42322 1.0015 0.31429 0.0
H473 H 0.42898 0.98152 0.33998 0.0
H474 H 0.33467 0.99376 0.34808 0.0
H475 H 0.32894 1.01506 0.32243 0.0
H476 H 0.60856 0.99366 0.43693 0.0
H477 H 0.56273 0.9655 0.43282 0.0
H478 H 0.51073 0.04568 0.43881 0.0
H479 H 0.55624 0.07353 0.44347 0.0
Dy480 Dy 0.23873 0.31024 0.39551 0.0
Dy481 Dy 0.22361 0.35857 0.42253 0.0
C482 C 0.21448 0.37526 0.3866 0.0
O483 O 0.28063 0.33698 0.3987 0.0
O484 O 0.26408 0.37814 0.41194 0.0
O485 O 0.23326 0.28333 0.37512 0.0
O486 O 0.27185 0.27714 0.39005 0.0
O487 O 0.25875 0.32513 0.42937 0.0
O488 O 0.23222 0.28991 0.41829 0.0
O489 O 0.18133 0.33192 0.41916 0.0
O490 O 0.18912 0.30828 0.39602 0.0
O491 O 0.20641 0.36067 0.44558 0.0
O492 O 0.22418 0.40036 0.43517 0.0
C493 C 0.28444 0.36427 0.40377 0.0
O494 O 0.23124 0.35228 0.38283 0.0
O495 O 0.20479 0.3797 0.40083 0.0
C496 C 0.2553 0.23489 0.37654 0.0
C497 C 0.25464 0.17393 0.36905 0.0
C498 C 0.22769 0.18978 0.37097 0.0
C499 C 0.22801 0.22006 0.37464 0.0
C500 C 0.28202 0.21861 0.37586 0.0
C501 C 0.28174 0.18847 0.37217 0.0
C502 C 0.25704 0.26741 0.37817 0.0
C503 C 0.2528 0.29687 0.42811 0.0
C504 C 0.17156 0.31615 0.40739 0.0
C505 C 0.22945 0.39513 0.46239 0.0
C506 C 0.25469 0.40586 0.49189 0.0
C507 C 0.26489 0.38213 0.48266 0.0
C508 C 0.25245 0.37685 0.46809 0.0
C509 C 0.21955 0.41902 0.47142 0.0
C510 C 0.23199 0.42436 0.48595 0.0
C511 C 0.21398 0.38831 0.4477 0.0
H512 H 0.20642 0.17913 0.36888 0.0
H513 H 0.20702 0.23202 0.37536 0.0
H514 H 0.30333 0.22957 0.37741 0.0
H515 H 0.30296 0.17724 0.37066 0.0
H516 H 0.28258 0.36763 0.48668 0.0
H517 H 0.26047 0.3582 0.46137 0.0
H518 H 0.20166 0.43325 0.46736 0.0
H519 H 0.22319 0.44259 0.49271 0.0
Dy520 Dy 0.96367 0.97535 0.13857 0.0
Dy521 Dy 0.92262 0.97414 0.16986 0.0
C522 C 0.89782 0.95016 0.1369 0.0
O523 O 0.92782 1.00994 0.13589 0.0
O524 O 0.92281 0.02099 0.16134 0.0
O525 O 0.99195 0.95169 0.12256 0.0
O526 O 0.98272 0.99849 0.11936 0.0
O527 O 0.96856 0.98928 0.17742 0.0
O528 O 0.98674 1.00602 0.15438 0.0
O529 O 0.93759 0.92736 0.16483 0.0
O530 O 0.98193 0.94062 0.15431 0.0
O531 O 0.91495 0.95572 0.19245 0.0
O532 O 0.88524 0.98957 0.18359 0.0
C533 C 0.91946 0.02828 0.14685 0.0
O534 O 0.92558 0.94625 0.1326 0.0
O535 O 0.8911 0.96394 0.1499 0.0
C536 C 0.03171 0.98144 0.1136 0.0
C537 C 0.09296 0.99213 0.10827 0.0
C538 C 0.08133 0.96323 0.10713 0.0
C539 C 0.051 0.95799 0.10968 0.0
C540 C 0.0436 1.01006 0.11555 0.0
C541 C 0.07385 1.01533 0.1129 0.0
C542 C 0.99936 0.97592 0.1154 0.0
C543 C 0.98806 1.0044 0.16931 0.0
C544 C 0.96495 0.92044 0.16065 0.0
C545 C 0.8919 0.98738 0.21099 0.0
C546 C 0.88768 1.01196 0.2411 0.0
C547 C 0.88765 0.03041 0.22804 0.0
C548 C 0.88977 0.01829 0.21318 0.0
C549 C 0.89208 0.96902 0.22398 0.0
C550 C 0.89006 0.98107 0.23879 0.0
C551 C 0.89262 0.97346 0.19544 0.0
H552 H 0.09549 0.94479 0.10376 0.0
H553 H 0.04249 0.93566 0.10825 0.0
H554 H 0.02943 0.02864 0.11869 0.0
H555 H 0.08183 0.03795 0.11366 0.0
H556 H 0.88619 0.05429 0.22929 0.0
H557 H 0.88956 0.03313 0.20343 0.0
H558 H 0.8934 0.94512 0.22266 0.0
H559 H 0.88966 0.96602 0.24844 0.0
Dy560 Dy 0.29656 0.72503 0.893 0.0
Dy561 Dy 0.30994 0.68266 0.92262 0.0
C562 C 0.31803 0.65836 0.88772 0.0
O563 O 0.25278 0.70243 0.89819 0.0
O564 O 0.26747 0.66395 0.91377 0.0
O565 O 0.30382 0.7463 0.87112 0.0
O566 O 0.26553 0.75826 0.88522 0.0
O567 O 0.27842 0.72051 0.92846 0.0
O568 O 0.30519 0.75106 0.91406 0.0
O569 O 0.35276 0.70744 0.91847 0.0
O570 O 0.34651 0.72532 0.89396 0.0
O571 O 0.32826 0.68284 0.94552 0.0
O572 O 0.30787 0.64286 0.93668 0.0
C573 C 0.24741 0.67703 0.90511 0.0
O574 O 0.30084 0.68012 0.8829 0.0
O575 O 0.32858 0.65741 0.90197 0.0
C576 C 0.28615 0.79652 0.87039 0.0
C577 C 0.29239 0.857 0.86276 0.0
C578 C 0.31755 0.83817 0.86326 0.0
C579 C 0.31448 0.80816 0.86706 0.0
C580 C 0.26135 0.81564 0.87065 0.0
C581 C 0.26442 0.84553 0.86693 0.0
C582 C 0.28138 0.7646 0.87314 0.0
C583 C 0.28618 0.74772 0.9251 0.0
C584 C 0.36343 0.72008 0.90602 0.0
C585 C 0.30486 0.65151 0.96397 0.0
C586 C 0.28183 0.64079 0.99392 0.0
C587 C 0.27645 0.62074 0.98178 0.0
C588 C 0.2879 0.62597 0.96704 0.0
C589 C 0.31001 0.67164 0.97608 0.0
C590 C 0.29861 0.66642 0.99078 0.0
C591 C 0.31921 0.65608 0.9487 0.0
H592 H 0.33942 0.8464 0.86018 0.0
H593 H 0.33409 0.79399 0.86697 0.0
H594 H 0.23929 0.8072 0.87322 0.0
H595 H 0.24447 0.85918 0.86641 0.0
H596 H 0.26397 0.60057 0.98374 0.0
H597 H 0.28388 0.6097 0.95811 0.0
H598 H 0.32323 0.6914 0.97426 0.0
H599 H 0.30292 0.68263 0.9997 0.0
Dy600 Dy 0.57131 0.06333 0.63502 0.0
Dy601 Dy 0.60291 0.07173 0.66865 0.0
C602 C 0.63766 0.08352 0.63729 0.0
O603 O 0.58014 1.01682 0.64287 0.0
O604 O 0.61787 0.02729 0.65997 0.0
O605 O 0.56713 0.0405 0.61334 0.0
O606 O 0.54182 0.08065 0.61752 0.0
O607 O 0.56208 0.04305 0.67223 0.0
O608 O 0.53435 0.05951 0.65177 0.0
O609 O 0.573 0.11102 0.66497 0.0
O610 O 0.57693 0.11225 0.639 0.0
O611 O 0.6003 0.08881 0.69186 0.0
O612 O 0.64051 0.06654 0.68419 0.0
C613 C 0.60339 1.0085 0.65109 0.0
O614 O 0.62019 0.06309 0.63175 0.0
O615 O 0.6321 0.09513 0.65093 0.0
C616 C 0.56564 0.07555 0.5938 0.0
C617 C 0.59558 0.09821 0.56809 0.0
C618 C 0.6068 0.1034 0.58289 0.0
C619 C 0.59186 0.09226 0.59564 0.0
C620 C 0.5541 0.07066 0.57911 0.0
C621 C 0.56892 0.08199 0.56633 0.0
C622 C 0.55174 0.06203 0.60724 0.0
C623 C 0.53629 0.0459 0.665 0.0
C624 C 0.57037 0.12546 0.652 0.0
C625 C 0.62949 0.06517 0.71118 0.0
C626 C 0.63697 0.04189 0.74127 0.0
C627 C 0.64153 0.02383 0.72822 0.0
C628 C 0.6378 0.03532 0.71334 0.0
C629 C 0.62483 0.0831 0.72416 0.0
C630 C 0.62848 0.07168 0.73897 0.0
C631 C 0.62659 0.07881 0.69574 0.0
H632 H 0.62713 0.11595 0.5846 0.0
H633 H 0.60102 0.09627 0.60696 0.0
H634 H 0.53403 0.05764 0.57751 0.0
H635 H 0.56001 0.07728 0.55503 0.0
H636 H 0.64775 1.00071 0.72949 0.0
H637 H 0.64153 0.0209 0.70356 0.0
H638 H 0.61867 0.10624 0.72284 0.0
H639 H 0.62523 0.08648 0.74864 0.0
C640 C 0.30254 0.10398 0.25397 0.0
C641 C 0.32108 0.12916 0.25395 0.0
C642 C 0.29946 0.08681 0.26721 0.0
C643 C 0.27475 0.07575 0.29865 0.0
H644 H 0.328 0.0903 0.33283 0.0
C645 C 0.23702 0.1405 0.3481 0.0
C646 C 0.2552 0.14469 0.36105 0.0
C647 C 0.24356 0.11819 0.33753 0.0
C648 C 0.31276 0.08506 0.32357 0.0
H649 H 0.35371 0.15362 0.26731 0.0
H650 H 0.3469 0.12551 0.29045 0.0
H651 H 0.34809 0.08699 0.30721 0.0
H652 H 0.29141 0.12559 0.37437 0.0
H653 H 0.30272 0.08628 0.35592 0.0
H654 H 0.23949 0.07338 0.31504 0.0
C655 C 0.33487 0.11837 0.28033 0.0
C656 C 0.32433 0.08377 0.30872 0.0
C657 C 0.33829 0.13517 0.26707 0.0
C658 C 0.27752 0.12348 0.36424 0.0
C659 C 0.28403 0.10095 0.35364 0.0
C660 C 0.26334 0.076 0.31353 0.0
C661 C 0.31439 0.09471 0.28084 0.0
C662 C 0.30499 0.08249 0.296 0.0
C663 C 0.26848 0.09939 0.33961 0.0
C664 C 0.28167 0.08415 0.32596 0.0
H665 H 0.28915 0.09832 0.24405 0.0
H666 H 0.28427 0.0682 0.26691 0.0
H667 H 0.25898 0.07365 0.2893 0.0
H668 H 0.21967 0.15633 0.34519 0.0
H669 H 0.23089 0.11811 0.32695 0.0
C670 C 0.63603 0.48779 0.60052 0.0
C671 C 0.61036 0.46992 0.60058 0.0
C672 C 0.6576 0.48411 0.58911 0.0
C673 C 0.672 0.44261 0.55225 0.0
H674 H 0.66644 0.52225 0.53587 0.0
C675 C 0.61989 0.46789 0.49519 0.0
C676 C 0.62452 0.49538 0.48815 0.0
C677 C 0.63651 0.46 0.50813 0.0
C678 C 0.66924 0.49986 0.54014 0.0
H679 H 0.58941 0.43145 0.59022 0.0
H680 H 0.62625 0.4254 0.57031 0.0
H681 H 0.66505 0.51514 0.56309 0.0
H682 H 0.65227 0.53458 0.48772 0.0
H683 H 0.68187 0.52064 0.51014 0.0
H684 H 0.67363 0.42742 0.52897 0.0
C685 C 0.63023 0.44215 0.57899 0.0
C686 C 0.6685 0.49573 0.55595 0.0
C687 C 0.60884 0.44569 0.59045 0.0
C688 C 0.64794 0.51355 0.49325 0.0
C689 C 0.66487 0.5055 0.50604 0.0
C690 C 0.67275 0.44676 0.53637 0.0
C691 C 0.65355 0.4628 0.57746 0.0
C692 C 0.66738 0.46694 0.56212 0.0
C693 C 0.65827 0.47938 0.51414 0.0
C694 C 0.66899 0.47531 0.53015 0.0
H695 H 0.63813 0.50619 0.60847 0.0
H696 H 0.67581 0.49982 0.58852 0.0
H697 H 0.67214 0.42017 0.55668 0.0
H698 H 0.60197 0.45351 0.49139 0.0
H699 H 0.63048 0.43986 0.51409 0.0
C700 C 0.19286 0.91883 0.76825 0.0
C701 C 0.20812 0.92384 0.75446 0.0
C702 C 0.2009 0.93395 0.78158 0.0
C703 C 0.22223 0.96364 0.80998 0.0
H704 H 0.30865 0.96091 0.81094 0.0
C705 C 0.27586 0.91031 0.86068 0.0
C706 C 0.29391 0.88672 0.85549 0.0
C707 C 0.2702 0.93476 0.85123 0.0
C708 C 0.28448 0.96196 0.81095 0.0
H709 H 0.24102 0.95219 0.74354 0.0
H710 H 0.25333 0.97998 0.76649 0.0
H711 H 0.28326 0.96749 0.78677 0.0
H712 H 0.32311 0.87209 0.83715 0.0
H713 H 0.31309 0.91366 0.82074 0.0
H714 H 0.22345 0.95379 0.83382 0.0
C715 C 0.23632 0.96305 0.76722 0.0
C716 C 0.26973 0.96622 0.79701 0.0
C717 C 0.22891 0.94722 0.75394 0.0
C718 C 0.30911 0.88982 0.84154 0.0
C719 C 0.30331 0.91403 0.83208 0.0
C720 C 0.23699 0.95838 0.82385 0.0
C721 C 0.22382 0.9553 0.78144 0.0
C722 C 0.23837 0.96423 0.79616 0.0
C723 C 0.28222 0.93585 0.83634 0.0
C724 C 0.26823 0.9546 0.82418 0.0
H725 H 0.17569 0.90204 0.76899 0.0
H726 H 0.19043 0.92715 0.79217 0.0
H727 H 0.19805 0.9638 0.80993 0.0
H728 H 0.26443 0.90887 0.87159 0.0
H729 H 0.2546 0.95158 0.85513 0.0
C730 C 0.84648 0.48358 1.00452 0.0
C731 C 0.87235 0.46645 1.00209 0.0
C732 C 0.83173 0.48281 1.01865 0.0
C733 C 0.82696 0.502 0.05133 0.0
H734 H 0.86144 0.44955 0.08166 0.0
C735 C 0.9075 0.54607 0.09272 0.0
C736 C 0.91968 0.52875 0.10453 0.0
C737 C 0.8824 0.53649 0.0847 0.0
C738 C 0.8508 0.4645 0.07363 0.0
H739 H 0.90026 0.43182 1.01175 0.0
H740 H 0.87687 0.43223 0.03645 0.0
H741 H 0.84784 0.43009 0.05686 0.0
H742 H 0.91283 0.48972 0.11853 0.0
H743 H 0.86837 0.47314 0.1047 0.0
H744 H 0.82854 0.53604 0.06837 0.0
C745 C 0.86708 0.44614 1.02769 0.0
C746 C 0.84356 0.45335 0.05912 0.0
C747 C 0.88118 0.4463 1.01347 0.0
C748 C 0.9043 0.50318 0.10922 0.0
C749 C 0.87883 0.49368 0.10125 0.0
C750 C 0.83285 0.51279 0.06605 0.0
C751 C 0.84321 0.46576 1.03088 0.0
C752 C 0.83539 0.47286 0.04721 0.0
C753 C 0.86856 0.50932 0.08828 0.0
C754 C 0.84846 0.49513 0.07668 0.0
H755 H 0.83855 0.49891 0.99587 0.0
H756 H 0.81248 0.49708 1.0202 0.0
H757 H 0.81921 0.51784 0.04293 0.0
H758 H 0.91884 0.56577 0.08872 0.0
H759 H 0.87584 0.54928 0.07476 0.0
C760 C 0.75008 0.66777 0.84339 0.0
C761 C 0.76667 0.68167 0.855 0.0
C762 C 0.7615 0.64311 0.83572 0.0
C763 C 0.78966 0.59635 0.81697 0.0
H764 H 0.87157 0.61732 0.80864 0.0
C765 C 0.81924 0.61633 0.75571 0.0
C766 C 0.83669 0.6418 0.75353 0.0
C767 C 0.81955 0.6014 0.76975 0.0
C768 C 0.84845 0.6116 0.8106 0.0
H769 H 0.80627 0.67804 0.86922 0.0
H770 H 0.82608 0.63429 0.85605 0.0
H771 H 0.85067 0.62823 0.83343 0.0
H772 H 0.87065 0.66956 0.76386 0.0
H773 H 0.8695 0.64581 0.78841 0.0
H774 H 0.78585 0.58373 0.79367 0.0
C775 C 0.80472 0.64315 0.85241 0.0
C776 C 0.83655 0.61716 0.82514 0.0
C777 C 0.79336 0.66821 0.86001 0.0
C778 C 0.85617 0.65057 0.7653 0.0
C779 C 0.8559 0.63623 0.77945 0.0
C780 C 0.80106 0.59223 0.80223 0.0
C781 C 0.78989 0.63146 0.83946 0.0
C782 C 0.80594 0.61265 0.82792 0.0
C783 C 0.83646 0.61221 0.78223 0.0
C784 C 0.82961 0.60306 0.7984 0.0
H785 H 0.72951 0.67755 0.83918 0.0
H786 H 0.74912 0.63534 0.82584 0.0
H787 H 0.76669 0.59016 0.81909 0.0
H788 H 0.80402 0.60879 0.74688 0.0
H789 H 0.80526 0.58228 0.77091 0.0
C790 C 0.74294 0.13103 0.19588 0.0
C791 C 0.72562 0.15648 0.19888 0.0
C792 C 0.74288 0.10718 0.20613 0.0
C793 C 0.76477 0.08411 0.23626 0.0
H794 H 0.70845 0.08626 0.26983 0.0
C795 C 0.79836 0.12924 0.29257 0.0
C796 C 0.78012 0.12713 0.30558 0.0
C797 C 0.79174 0.11312 0.27937 0.0
C798 C 0.72457 0.08437 0.26065 0.0
H799 H 0.69178 0.17524 0.21379 0.0
H800 H 0.69221 0.13493 0.23168 0.0
H801 H 0.69041 0.09038 0.24381 0.0
H802 H 0.74267 0.10362 0.31551 0.0
H803 H 0.73185 0.07443 0.29262 0.0
H804 H 0.79886 0.07772 0.25309 0.0
C805 C 0.70569 0.13249 0.22147 0.0
C806 C 0.71415 0.08727 0.24562 0.0
C807 C 0.70546 0.15601 0.21115 0.0
C808 C 0.75699 0.10608 0.30562 0.0
C809 C 0.75063 0.08948 0.29242 0.0
C810 C 0.77506 0.08009 0.25123 0.0
C811 C 0.72601 0.10871 0.21973 0.0
C812 C 0.73446 0.09074 0.23346 0.0
C813 C 0.767 0.0939 0.27886 0.0
C814 C 0.75546 0.08365 0.26368 0.0
H815 H 0.75816 0.1305 0.18624 0.0
H816 H 0.75794 0.08876 0.20402 0.0
H817 H 0.78132 0.08556 0.22728 0.0
H818 H 0.81706 0.14441 0.29234 0.0
H819 H 0.80494 0.11755 0.26926 0.0
C820 C 0.14058 0.02188 0.10891 0.0
C821 C 0.12327 0.99907 0.10238 0.0
C822 C 0.16484 0.0337 0.10089 0.0
C823 C 0.2029 0.02819 0.0623 0.0
H824 H 0.18257 0.1117 0.06137 0.0
C825 C 0.14108 0.10632 1.01882 0.0
C826 C 0.15074 0.09295 1.00515 0.0
C827 C 0.15696 0.10222 0.03241 0.0
C828 C 0.18856 0.0884 0.06139 0.0
H829 H 0.12011 0.96856 0.08315 0.0
H830 H 0.16128 0.98892 0.0693 0.0
H831 H 0.17598 0.08414 0.08479 0.0
H832 H 0.18719 0.06813 0.9947 0.0
H833 H 0.21573 0.06252 1.01818 0.0
H834 H 0.21112 0.03129 0.03839 0.0
C835 C 0.1569 0.99786 0.08061 0.0
C836 C 0.18533 0.07255 0.07502 0.0
C837 C 0.13287 0.98605 0.0886 0.0
C838 C 0.17865 0.07841 1.00504 0.0
C839 C 0.19493 0.07482 1.01862 0.0
C840 C 0.20503 0.04376 0.04853 0.0
C841 C 0.17205 0.02308 0.08615 0.0
C842 C 0.1894 0.04154 0.07515 0.0
C843 C 0.18338 0.08507 0.03268 0.0
C844 C 0.1948 0.07331 0.0476 0.0
H845 H 0.13424 0.03184 0.11974 0.0
H846 H 0.17651 0.05251 0.10577 0.0
H847 H 0.20812 1.00469 0.06225 0.0
H848 H 0.12031 0.11871 1.01923 0.0
H849 H 0.14699 0.11069 0.04283 0.0
C850 C 0.61735 0.08168 0.44445 0.0
C851 C 0.61264 0.05129 0.44708 0.0
C852 C 0.63689 0.09784 0.45381 0.0
C853 C 0.67929 0.0888 0.49135 0.0
H854 H 0.62939 0.15604 0.50189 0.0
C855 C 0.59672 0.12068 0.54199 0.0
C856 C 0.61217 0.10839 0.55443 0.0
C857 C 0.61142 0.12627 0.52825 0.0
C858 C 0.64347 0.13714 0.49919 0.0
H859 H 0.62746 1.01344 0.46042 0.0
H860 H 0.65978 0.04104 0.4769 0.0
H861 H 0.63219 0.14002 0.47562 0.0
H862 H 0.65565 0.09421 0.56268 0.0
H863 H 0.68147 0.10411 0.53875 0.0
H864 H 0.68698 0.08332 0.51526 0.0
C865 C 0.64937 0.05297 0.46756 0.0
C866 C 0.64567 0.12818 0.48391 0.0
C867 C 0.63043 0.03681 0.45803 0.0
C868 C 0.64313 0.10372 0.55324 0.0
C869 C 0.65792 0.1093 0.53945 0.0
C870 C 0.67599 0.09692 0.50673 0.0
C871 C 0.65121 0.08413 0.46636 0.0
C872 C 0.66102 0.10184 0.48003 0.0
C873 C 0.6421 0.11981 0.52657 0.0
C874 C 0.65557 0.11935 0.51091 0.0
H875 H 0.60447 0.09337 0.43583 0.0
H876 H 0.63872 0.1215 0.45195 0.0
H877 H 0.69336 0.06989 0.48868 0.0
H878 H 0.57291 0.1249 0.54267 0.0
H879 H 0.59797 0.13375 0.51868 0.0
C880 C 0.19115 0.08535 0.93454 0.0
C881 C 0.17577 0.10876 0.92738 0.0
C882 C 0.20715 0.09027 0.9482 0.0
C883 C 0.20785 0.14484 0.98074 0.0
H884 H 0.27009 0.09315 0.99628 0.0
C885 C 0.24009 0.14503 0.04527 0.0
C886 C 0.26968 0.13829 0.04946 0.0
C887 C 0.23061 0.14234 1.02997 0.0
C888 C 0.25304 0.10822 0.99213 0.0
H889 H 0.16688 0.15592 0.92822 0.0
H890 H 0.19646 0.16505 0.9512 0.0
H891 H 0.25409 0.08847 0.96978 0.0
H892 H 0.31272 0.12434 0.04061 0.0
H893 H 0.29656 0.12017 1.0141 0.0
H894 H 0.20743 0.16527 1.00287 0.0
C895 C 0.1953 0.14258 0.94682 0.0
C896 C 0.24348 0.10521 0.97686 0.0
C897 C 0.1788 0.13752 0.93341 0.0
C898 C 0.28959 0.12915 0.03789 0.0
C899 C 0.28021 0.12665 1.0226 0.0
C900 C 0.2177 0.14814 0.99591 0.0
C901 C 0.20846 0.11883 0.95491 0.0
C902 C 0.22059 0.12337 0.97089 0.0
C903 C 0.25048 0.13297 1.01835 0.0
C904 C 0.24035 0.12979 1.00194 0.0
H905 H 0.1885 0.0628 0.93041 0.0
H906 H 0.21652 0.0712 0.95402 0.0
H907 H 0.18958 0.15878 0.97693 0.0
H908 H 0.22404 0.15185 0.05387 0.0
H909 H 0.20744 0.14706 1.02737 0.0
C910 C 0.68068 0.50557 0.29209 0.0
C911 C 0.65243 0.51736 0.2958 0.0
C912 C 0.6864 0.49383 0.27745 0.0
C913 C 0.64928 0.46388 0.24238 0.0
H914 H 0.72648 0.47845 0.22392 0.0
C915 C 0.68066 0.41821 0.18154 0.0
C916 C 0.70912 0.40499 0.18066 0.0
C917 C 0.67252 0.43525 0.19449 0.0
C918 C 0.70483 0.47396 0.22891 0.0
H919 H 0.60782 0.52519 0.28688 0.0
H920 H 0.61786 0.50501 0.26139 0.0
H921 H 0.71475 0.50017 0.24879 0.0
H922 H 0.75173 0.4006 0.19232 0.0
H923 H 0.73784 0.42999 0.2145 0.0
H924 H 0.63962 0.43723 0.22253 0.0
C925 C 0.63564 0.50477 0.26983 0.0
C926 C 0.69812 0.4864 0.24325 0.0
C927 C 0.62996 0.51665 0.28446 0.0
C928 C 0.72958 0.41039 0.19261 0.0
C929 C 0.72164 0.42748 0.20536 0.0
C930 C 0.65603 0.45134 0.228 0.0
C931 C 0.66402 0.49338 0.26606 0.0
C932 C 0.67044 0.48119 0.25034 0.0
C933 C 0.69283 0.43975 0.2067 0.0
C934 C 0.68414 0.45577 0.22116 0.0
H935 H 0.69866 0.50592 0.30041 0.0
H936 H 0.70842 0.48491 0.27511 0.0
H937 H 0.62779 0.45916 0.24747 0.0
H938 H 0.6643 0.41426 0.1726 0.0
H939 H 0.65021 0.44456 0.19504 0.0
C940 C 0.26601 0.88602 0.5401 0.0
C941 C 0.26886 0.90824 0.55142 0.0
C942 C 0.27772 0.89009 0.52531 0.0
C943 C 0.33255 0.93642 0.50392 0.0
H944 H 0.28954 0.91024 0.46769 0.0
C945 C 0.36659 0.97839 0.445 0.0
C946 C 0.37086 0.95735 0.43327 0.0
C947 C 0.35145 0.97102 0.45842 0.0
C948 C 0.30192 0.91745 0.47771 0.0
H949 H 0.28703 0.95199 0.55591 0.0
H950 H 0.30655 0.95936 0.53028 0.0
H951 H 0.26945 0.89967 0.49325 0.0
H952 H 0.3611 0.91242 0.42607 0.0
H953 H 0.3341 0.89936 0.44972 0.0
H954 H 0.36473 0.95453 0.48852 0.0
C955 C 0.2956 0.93855 0.5328 0.0
C956 C 0.29047 0.91134 0.49238 0.0
C957 C 0.28399 0.93448 0.54753 0.0
C958 C 0.35778 0.9292 0.43483 0.0
C959 C 0.34253 0.9217 0.44841 0.0
C960 C 0.34381 0.94264 0.48935 0.0
C961 C 0.29271 0.91645 0.52143 0.0
C962 C 0.30543 0.92117 0.50571 0.0
C963 C 0.34026 0.94225 0.46061 0.0
C964 C 0.32846 0.93371 0.47602 0.0
H965 H 0.25425 0.86564 0.54256 0.0
H966 H 0.27524 0.87243 0.51696 0.0
H967 H 0.34526 0.94363 0.51382 0.0
H968 H 0.37632 1.00031 0.44411 0.0
H969 H 0.34948 0.98764 0.46737 0.0
C970 C 0.82145 0.59297 0.6787 0.0
C971 C 0.84201 0.6152 0.67482 0.0
C972 C 0.82575 0.57568 0.69198 0.0
C973 C 0.88149 0.56071 0.72399 0.0
H974 H 0.81009 0.54552 0.74762 0.0
C975 C 0.88712 0.54232 0.7896 0.0
C976 C 0.86819 0.52102 0.79619 0.0
C977 C 0.88378 0.55064 0.77418 0.0
C978 C 0.83035 0.54925 0.74117 0.0
H979 H 0.88404 0.63535 0.68132 0.0
H980 H 0.89117 0.60632 0.70422 0.0
H981 H 0.80559 0.56299 0.7214 0.0
H982 H 0.82963 0.49324 0.79171 0.0
H983 H 0.82421 0.50727 0.76493 0.0
H984 H 0.90617 0.54825 0.74405 0.0
C985 C 0.87199 0.60134 0.69712 0.0
C986 C 0.82776 0.55913 0.72596 0.0
C987 C 0.86783 0.61828 0.68389 0.0
C988 C 0.84509 0.50922 0.78703 0.0
C989 C 0.84177 0.51752 0.77163 0.0
C990 C 0.88404 0.55136 0.73926 0.0
C991 C 0.85063 0.58032 0.70171 0.0
C992 C 0.8533 0.56571 0.71719 0.0
C993 C 0.86138 0.53798 0.76486 0.0
C994 C 0.85852 0.54614 0.74822 0.0
H995 H 0.80112 0.59028 0.6721 0.0
H996 H 0.80898 0.5594 0.69487 0.0
H997 H 0.90183 0.5644 0.71761 0.0
H998 H 0.90517 0.55196 0.7962 0.0
H999 H 0.89884 0.56707 0.76956 0.0
C1000 C 0.88036 0.91792 0.11535 0.0
C1001 C 0.87462 0.94175 0.1254 0.0
C1002 C 0.86299 0.91351 0.10217 0.0
C1003 C 0.81601 0.95537 0.07465 0.0
H1004 H 0.80059 0.87716 0.05781 0.0
C1005 C 0.75277 0.93856 1.01678 0.0
C1006 C 0.76241 0.91553 1.00696 0.0
C1007 C 0.76429 0.94145 0.0317 0.0
C1008 C 0.80498 0.89921 0.06222 0.0
H1009 H 0.84524 0.97912 0.12967 0.0
H1010 H 0.81445 0.97127 0.10666 0.0
H1011 H 0.82231 0.88197 0.08334 0.0
H1012 H 0.79202 0.87743 1.00547 0.0
H1013 H 0.81251 0.8828 0.03126 0.0
H1014 H 0.79908 0.97261 0.05344 0.0
C1015 C 0.83265 0.95602 0.10897 0.0
C1016 C 0.81739 0.90199 0.07696 0.0
C1017 C 0.84998 0.96027 0.12232 0.0
C1018 C 0.78414 0.89561 1.01256 0.0
C1019 C 0.79565 0.89848 1.0275 0.0
C1020 C 0.8036 0.9526 0.0599 0.0
C1021 C 0.83938 0.93297 0.0985 0.0
C1022 C 0.82346 0.9301 0.08336 0.0
C1023 C 0.78587 0.92141 0.03734 0.0
C1024 C 0.79819 0.92445 0.05335 0.0
H1025 H 0.89931 0.90337 0.1173 0.0
H1026 H 0.8692 0.89571 0.09443 0.0
H1027 H 0.82073 0.97739 0.07901 0.0
H1028 H 0.7364 0.95464 1.01291 0.0
H1029 H 0.75591 0.95925 0.03889 0.0
C1030 C 0.35424 0.62324 0.87446 0.0
C1031 C 0.32535 0.63518 0.87609 0.0
C1032 C 0.36165 0.60601 0.86146 0.0
C1033 C 0.3274 0.56491 0.82823 0.0
H1034 H 0.40142 0.58298 0.80737 0.0
C1035 C 0.34577 0.53424 0.76439 0.0
C1036 C 0.37404 0.5237 0.75982 0.0
C1037 C 0.34119 0.54564 0.77921 0.0
C1038 C 0.3808 0.57735 0.81311 0.0
H1039 H 0.28131 0.63712 0.86577 0.0
H1040 H 0.29391 0.60733 0.8435 0.0
H1041 H 0.3914 0.6047 0.83257 0.0
H1042 H 0.41985 0.5177 0.76741 0.0
H1043 H 0.41181 0.53735 0.79321 0.0
H1044 H 0.31649 0.53804 0.80871 0.0
C1045 C 0.31102 0.61095 0.8521 0.0
C1046 C 0.37508 0.58976 0.82763 0.0
C1047 C 0.30378 0.62823 0.8649 0.0
C1048 C 0.39767 0.52528 0.7705 0.0
C1049 C 0.39313 0.53685 0.7853 0.0
C1050 C 0.33306 0.55261 0.81373 0.0
C1051 C 0.3402 0.60007 0.84994 0.0
C1052 C 0.34804 0.58416 0.83531 0.0
C1053 C 0.36476 0.54703 0.78993 0.0
C1054 C 0.35961 0.559 0.80581 0.0
H1055 H 0.37144 0.62847 0.88278 0.0
H1056 H 0.38429 0.5978 0.86029 0.0
H1057 H 0.30659 0.5595 0.83386 0.0
H1058 H 0.32693 0.53319 0.7566 0.0
H1059 H 0.31911 0.55361 0.78221 0.0
C1060 C 0.73385 0.1523 0.5122 0.0
C1061 C 0.7636 0.14488 0.50856 0.0
C1062 C 0.72328 0.15001 0.52733 0.0
C1063 C 0.74199 0.11167 0.56433 0.0
H1064 H 0.67641 0.15889 0.5802 0.0
C1065 C 0.67472 0.07392 0.61679 0.0
C1066 C 0.6609 0.0946 0.6266 0.0
C1067 C 0.69005 0.08303 0.6037 0.0
C1068 C 0.69512 0.14581 0.57612 0.0
H1069 H 0.8059 0.131 0.51841 0.0
H1070 H 0.78773 0.12703 0.54449 0.0
H1071 H 0.69733 0.17032 0.55509 0.0
H1072 H 0.65301 0.14143 0.63044 0.0
H1073 H 0.68101 0.15774 0.60773 0.0
H1074 H 0.74046 0.08768 0.58539 0.0
C1075 C 0.77208 0.13372 0.53566 0.0
C1076 C 0.70688 0.15208 0.56152 0.0
C1077 C 0.78262 0.13603 0.5206 0.0
C1078 C 0.6641 0.12498 0.62335 0.0
C1079 C 0.67961 0.13423 0.61013 0.0
C1080 C 0.73055 0.10569 0.57893 0.0
C1081 C 0.74204 0.14001 0.53929 0.0
C1082 C 0.73031 0.13484 0.55527 0.0
C1083 C 0.6923 0.11329 0.59991 0.0
C1084 C 0.70652 0.12221 0.58499 0.0
H1085 H 0.71845 0.15914 0.50328 0.0
H1086 H 0.70009 0.1553 0.52949 0.0
H1087 H 0.7596 0.0974 0.56004 0.0
H1088 H 0.67217 0.05032 0.61877 0.0
H1089 H 0.69877 0.06602 0.59613 0.0
C1090 C 0.2268 0.39778 0.36129 0.0
C1091 C 0.20738 0.39641 0.37394 0.0
C1092 C 0.21985 0.41488 0.34843 0.0
C1093 C 0.15657 0.44776 0.32703 0.0
H1094 H 0.22025 0.48681 0.30488 0.0
C1095 C 0.13655 0.51437 0.27032 0.0
C1096 C 0.1581 0.51109 0.25867 0.0
C1097 C 0.1413 0.50237 0.285 0.0
C1098 C 0.20219 0.47581 0.31081 0.0
H1099 H 0.16543 0.41278 0.383 0.0
H1100 H 0.15308 0.44301 0.36032 0.0
H1101 H 0.23061 0.4642 0.32964 0.0
H1102 H 0.20174 0.49251 0.25359 0.0
H1103 H 0.2098 0.47137 0.27893 0.0
H1104 H 0.12823 0.45924 0.30803 0.0
C1105 C 0.17379 0.43051 0.36044 0.0
C1106 C 0.20813 0.46286 0.32508 0.0
C1107 C 0.18096 0.41343 0.3735 0.0
C1108 C 0.18445 0.4953 0.26214 0.0
C1109 C 0.18926 0.48346 0.2768 0.0
C1110 C 0.15059 0.46083 0.3127 0.0
C1111 C 0.19312 0.43128 0.34766 0.0
C1112 C 0.1856 0.44808 0.3333 0.0
C1113 C 0.16785 0.48692 0.2885 0.0
C1114 C 0.17348 0.47455 0.30424 0.0
H1115 H 0.24745 0.38515 0.36118 0.0
H1116 H 0.23516 0.41443 0.33884 0.0
H1117 H 0.13869 0.4364 0.33291 0.0
H1118 H 0.11584 0.5261 0.26809 0.0
H1119 H 0.12435 0.50567 0.29368 0.0
C1120 C 0.7327 0.61226 0.54378 0.0
C1121 C 0.7453 0.63936 0.54858 0.0
C1122 C 0.72237 0.60832 0.52872 0.0
C1123 C 0.72711 0.64035 0.48907 0.0
H1124 H 0.66061 0.58733 0.4818 0.0
C1125 C 0.66409 0.61795 0.42985 0.0
C1126 C 0.65987 0.58756 0.42676 0.0
C1127 C 0.67682 0.62716 0.44392 0.0
C1128 C 0.67932 0.6021 0.48363 0.0
H1129 H 0.75652 0.6837 0.5409 0.0
H1130 H 0.73752 0.67722 0.51488 0.0
H1131 H 0.67635 0.59779 0.50796 0.0
H1132 H 0.66776 0.54318 0.4355 0.0
H1133 H 0.68944 0.55913 0.4597 0.0
H1134 H 0.72939 0.64473 0.46448 0.0
C1135 C 0.73618 0.65869 0.52272 0.0
C1136 C 0.68852 0.60804 0.49868 0.0
C1137 C 0.74672 0.66258 0.5378 0.0
C1138 C 0.6706 0.56677 0.43749 0.0
C1139 C 0.68284 0.57588 0.45145 0.0
C1140 C 0.7176 0.6346 0.47394 0.0
C1141 C 0.72392 0.63143 0.51789 0.0
C1142 C 0.71297 0.62681 0.5017 0.0
C1143 C 0.68515 0.60613 0.45512 0.0
C1144 C 0.69397 0.61491 0.47105 0.0
H1145 H 0.73071 0.59389 0.55168 0.0
H1146 H 0.7136 0.58679 0.52555 0.0
H1147 H 0.74614 0.65473 0.49079 0.0
H1148 H 0.65563 0.63451 0.42197 0.0
H1149 H 0.67839 0.65066 0.44643 0.0
C1150 C 0.1637 0.04542 0.7889 0.0
C1151 C 0.15319 0.02584 0.80019 0.0
C1152 C 0.1666 0.0363 0.77359 0.0
C1153 C 0.14317 0.97567 0.74634 0.0
H1154 H 0.20199 1.01244 0.72008 0.0
C1155 C 0.14783 0.94196 0.68307 0.0
C1156 C 0.17609 0.93873 0.67632 0.0
C1157 C 0.14435 0.95739 0.69691 0.0
C1158 C 0.18551 1.00171 0.72719 0.0
H1159 H 0.13798 0.98096 0.80413 0.0
H1160 H 0.14349 0.96478 0.77765 0.0
H1161 H 0.19921 0.02653 0.74692 0.0
H1162 H 0.22265 0.95079 0.67828 0.0
H1163 H 0.21694 0.97729 0.70252 0.0
H1164 H 0.13101 0.94918 0.72705 0.0
C1165 C 0.14894 0.98754 0.78043 0.0
C1166 C 0.18356 1.01018 0.74268 0.0
C1167 C 0.14578 0.99678 0.79573 0.0
C1168 C 0.20045 0.95343 0.68304 0.0
C1169 C 0.1971 0.96851 0.69708 0.0
C1170 C 0.14551 0.9668 0.73098 0.0
C1171 C 0.15938 1.00714 0.76904 0.0
C1172 C 0.16216 0.9975 0.75253 0.0
C1173 C 0.16922 0.96936 0.70466 0.0
C1174 C 0.16645 0.97988 0.72103 0.0
H1175 H 0.16912 0.06816 0.79183 0.0
H1176 H 0.17392 0.05251 0.76529 0.0
H1177 H 0.12611 0.96541 0.75328 0.0
H1178 H 0.12865 0.93079 0.67816 0.0
H1179 H 0.12224 0.95858 0.70186 0.0
C1180 C 0.79473 0.39522 0.04214 0.0
C1181 C 0.76707 0.40722 0.04675 0.0
C1182 C 0.80474 0.39823 1.02696 0.0
C1183 C 0.79153 0.44223 0.99118 0.0
H1184 H 0.83424 0.37749 0.97163 0.0
C1185 C 0.82663 0.45271 0.92799 0.0
C1186 C 0.85506 0.44199 0.92404 0.0
C1187 C 0.81325 0.44459 0.94189 0.0
C1188 C 0.82261 0.39599 0.9769 0.0
H1189 H 0.72895 0.43294 0.03891 0.0
H1190 H 0.74586 0.43753 1.01262 0.0
H1191 H 0.81794 0.37259 0.99813 0.0
H1192 H 0.8916 0.41398 0.93149 0.0
H1193 H 0.86883 0.40013 0.95572 0.0
H1194 H 0.79672 0.466 0.97024 0.0
C1195 C 0.76007 0.42589 1.02068 0.0
C1196 C 0.81327 0.39317 0.9922 0.0
C1197 C 0.75012 0.42292 0.03581 0.0
C1198 C 0.86914 0.42168 0.93392 0.0
C1199 C 0.85607 0.41396 0.94796 0.0
C1200 C 0.801 0.44512 0.97596 0.0
C1201 C 0.78743 0.41343 1.01594 0.0
C1202 C 0.79764 0.41631 0.99961 0.0
C1203 C 0.82839 0.42621 0.95246 0.0
C1204 C 0.81678 0.4221 0.96852 0.0
H1205 H 0.80844 0.38291 0.05017 0.0
H1206 H 0.82619 0.38877 1.0239 0.0
H1207 H 0.78013 0.46085 0.99647 0.0
H1208 H 0.81566 0.46911 0.92084 0.0
H1209 H 0.79162 0.45397 0.94463 0.0
C1210 C 0.37897 0.11213 0.18518 0.0
C1211 C 0.35145 0.11199 0.1774 0.0
C1212 C 0.38269 0.09659 0.1989 0.0
C1213 C 0.3482 0.04263 0.22605 0.0
H1214 H 0.38767 0.09206 0.25631 0.0
C1215 C 0.34658 1.01431 0.29121 0.0
C1216 C 0.37206 0.02114 0.30003 0.0
C1217 C 0.34407 0.02374 0.27593 0.0
C1218 C 0.37707 0.07755 0.24804 0.0
H1219 H 0.30673 0.09395 0.17748 0.0
H1220 H 0.31318 0.06655 0.20151 0.0
H1221 H 0.38466 0.10843 0.22996 0.0
H1222 H 0.41449 0.04422 0.29955 0.0
H1223 H 0.41068 0.0596 0.27302 0.0
H1224 H 0.34044 1.0118 0.24427 0.0
C1225 C 0.33209 0.0784 0.19688 0.0
C1226 C 0.37538 0.08699 0.2328 0.0
C1227 C 0.32843 0.09391 0.18301 0.0
C1228 C 0.39472 0.03804 0.29314 0.0
C1229 C 0.39229 0.04729 0.27788 0.0
C1230 C 0.35004 0.03305 0.24135 0.0
C1231 C 0.35885 0.08074 0.20537 0.0
C1232 C 0.36108 0.06965 0.22153 0.0
C1233 C 0.36697 0.04027 0.26897 0.0
C1234 C 0.36459 0.05035 0.2526 0.0
H1235 H 0.39703 0.12604 0.18119 0.0
H1236 H 0.40386 0.0983 0.20486 0.0
H1237 H 0.33705 0.02864 0.21771 0.0
H1238 H 0.32868 1.00122 0.29601 0.0
H1239 H 0.32394 0.0183 0.26964 0.0
C1240 C 0.35734 0.48496 0.6168 0.0
C1241 C 0.36821 0.46295 0.62677 0.0
C1242 C 0.34247 0.47743 0.60323 0.0
C1243 C 0.30664 0.4161 0.58094 0.0
H1244 H 0.33071 0.4644 0.54641 0.0
C1245 C 0.2747 0.3874 0.51745 0.0
C1246 C 0.26733 0.4112 0.50766 0.0
C1247 C 0.28605 0.39254 0.53227 0.0
C1248 C 0.32335 0.45086 0.5559 0.0
H1249 H 0.37079 0.41558 0.63057 0.0
H1250 H 0.34469 0.40216 0.60669 0.0
H1251 H 0.35045 0.47506 0.57176 0.0
H1252 H 0.2667 0.45923 0.50602 0.0
H1253 H 0.28586 0.46814 0.53174 0.0
H1254 H 0.2796 0.3918 0.56488 0.0
C1255 C 0.34744 0.42542 0.6095 0.0
C1256 C 0.3347 0.45701 0.57054 0.0
C1257 C 0.36223 0.43306 0.62326 0.0
C1258 C 0.27176 0.44027 0.51318 0.0
C1259 C 0.28314 0.44539 0.52795 0.0
C1260 C 0.29521 0.40992 0.56621 0.0
C1261 C 0.33832 0.44754 0.59901 0.0
C1262 C 0.32632 0.44 0.58336 0.0
C1263 C 0.29054 0.42164 0.53775 0.0
C1264 C 0.30319 0.42741 0.55347 0.0
H1265 H 0.36157 0.5082 0.61918 0.0
H1266 H 0.33506 0.49517 0.59577 0.0
H1267 H 0.29954 0.40254 0.59048 0.0
H1268 H 0.27132 0.36469 0.51375 0.0
H1269 H 0.29167 0.37363 0.53936 0.0
C1270 C 0.86547 0.04874 0.26005 0.0
C1271 C 0.88469 0.02459 0.25702 0.0
C1272 C 0.86169 0.0596 0.27504 0.0
C1273 C 0.89575 0.05921 0.31432 0.0
H1274 H 0.81593 0.08163 0.327 0.0
C1275 C 0.86824 0.11833 0.37282 0.0
C1276 C 0.84051 0.11199 0.37957 0.0
C1277 C 0.87604 0.10575 0.35855 0.0
C1278 C 0.83838 0.07529 0.32376 0.0
H1279 H 0.91575 0.99376 0.26763 0.0
H1280 H 0.90881 1.01232 0.29367 0.0
H1281 H 0.82443 0.06476 0.30088 0.0
H1282 H 0.79995 0.08653 0.377 0.0
H1283 H 0.81389 0.06373 0.35269 0.0
H1284 H 0.90951 0.06944 0.33735 0.0
C1285 C 0.89671 0.02301 0.28443 0.0
C1286 C 0.84335 0.06594 0.30862 0.0
C1287 C 0.90043 1.01208 0.26945 0.0
C1288 C 0.82177 0.09133 0.37227 0.0
C1289 C 0.82951 0.07877 0.35812 0.0
C1290 C 0.89078 0.06874 0.32948 0.0
C1291 C 0.87707 0.04678 0.28751 0.0
C1292 C 0.87207 0.05759 0.30364 0.0
C1293 C 0.85617 0.08671 0.35069 0.0
C1294 C 0.86195 0.0767 0.33449 0.0
H1295 H 0.85279 0.05891 0.25086 0.0
H1296 H 0.84671 0.07818 0.27685 0.0
H1297 H 0.91826 0.05331 0.31093 0.0
H1298 H 0.88268 0.13497 0.37787 0.0
H1299 H 0.8967 0.11256 0.35321 0.0
C1300 C 0.1892 0.58116 0.12452 0.0
C1301 C 0.16549 0.59985 0.12893 0.0
C1302 C 0.20523 0.58676 0.11095 0.0
C1303 C 0.19317 0.62444 0.07355 0.0
H1304 H 0.27671 0.60679 0.06628 0.0
C1305 C 0.24178 0.62266 1.01207 0.0
C1306 C 0.27024 0.63504 1.00979 0.0
C1307 C 0.23069 0.618 1.02691 0.0
C1308 C 0.25336 0.61202 0.06812 0.0
H1309 H 0.14146 0.64012 0.12324 0.0
H1310 H 0.16998 0.6506 0.10016 0.0
H1311 H 0.25607 0.60128 0.09208 0.0
H1312 H 0.30962 0.65133 1.02162 0.0
H1313 H 0.2901 0.64375 0.04739 0.0
H1314 H 0.19035 0.63555 0.04976 0.0
C1315 C 0.17578 0.63111 0.10678 0.0
C1316 C 0.24146 0.60859 0.08292 0.0
C1317 C 0.1597 0.62538 0.12017 0.0
C1318 C 0.28743 0.64217 1.02285 0.0
C1319 C 0.27636 0.63745 0.03769 0.0
C1320 C 0.205 0.62777 0.05881 0.0
C1321 C 0.19787 0.61121 0.10156 0.0
C1322 C 0.21118 0.61491 0.08588 0.0
C1323 C 0.2477 0.62552 0.03997 0.0
C1324 C 0.23527 0.62163 0.05582 0.0
H1325 H 0.19374 0.56097 0.13085 0.0
H1326 H 0.22204 0.57089 0.10734 0.0
H1327 H 0.16963 0.62901 0.07522 0.0
H1328 H 0.22773 0.61704 1.00237 0.0
H1329 H 0.20869 0.60839 1.02813 0.0
C1330 C 0.66481 1.01034 0.76069 0.0
C1331 C 0.64127 0.03006 0.75722 0.0
C1332 C 0.66928 1.00009 0.77573 0.0
C1333 C 0.63031 0.99072 0.81312 0.0
H1334 H 0.71057 0.97926 0.82886 0.0
C1335 C 0.65664 0.91807 0.86597 0.0
C1336 C 0.68084 0.92522 0.87558 0.0
C1337 C 0.65016 0.93505 0.85297 0.0
C1338 C 0.68797 0.9827 0.82476 0.0
H1339 H 0.60363 0.05383 0.76704 0.0
H1340 H 0.61166 0.0364 0.79314 0.0
H1341 H 0.70325 0.99979 0.80324 0.0
H1342 H 0.71664 0.95653 0.87935 0.0
H1343 H 0.70514 0.98666 0.85662 0.0
H1344 H 0.61501 0.97367 0.83462 0.0
C1345 C 0.62664 0.02868 0.78424 0.0
C1346 C 0.68377 0.99409 0.80993 0.0
C1347 C 0.62221 0.03897 0.76923 0.0
C1348 C 0.69748 0.95082 0.87235 0.0
C1349 C 0.69118 0.96774 0.85916 0.0
C1350 C 0.63451 0.97928 0.82792 0.0
C1351 C 0.65029 1.00913 0.78775 0.0
C1352 C 0.65486 0.99798 0.80381 0.0
C1353 C 0.66793 0.95956 0.84905 0.0
C1354 C 0.66341 0.97473 0.83391 0.0
H1355 H 0.68015 1.00316 0.75184 0.0
H1356 H 0.6875 0.98477 0.77788 0.0
H1357 H 0.6077 0.99314 0.80885 0.0
H1358 H 0.64368 0.89823 0.86805 0.0
H1359 H 0.6323 0.92776 0.84548 0.0
C1360 C 0.42029 0.21474 0.14022 0.0
C1361 C 0.39824 0.22822 0.14941 0.0
C1362 C 0.44944 0.22604 0.13976 0.0
C1363 C 0.50218 0.27296 0.16217 0.0
H1364 H 0.5483 0.27201 0.12462 0.0
C1365 C 0.62961 0.29648 0.16163 0.0
C1366 C 0.64135 0.31282 0.14931 0.0
C1367 C 0.5998 0.28698 0.1615 0.0
C1368 C 0.53571 0.2727 0.1352 0.0
H1369 H 0.3897 0.26478 0.16506 0.0
H1370 H 0.44023 0.28464 0.16412 0.0
H1371 H 0.49668 0.25493 0.12431 0.0
H1372 H 0.63044 0.3321 0.12722 0.0
H1373 H 0.57856 0.31585 0.12708 0.0
H1374 H 0.54104 0.29113 0.17302 0.0
C1375 C 0.43517 0.26499 0.15743 0.0
C1376 C 0.50612 0.26254 0.13506 0.0
C1377 C 0.40602 0.2537 0.15788 0.0
C1378 C 0.62233 0.31951 0.1369 0.0
C1379 C 0.59252 0.30999 0.13677 0.0
C1380 C 0.53177 0.28306 0.16232 0.0
C1381 C 0.45742 0.25116 0.1485 0.0
C1382 C 0.4889 0.26247 0.14855 0.0
C1383 C 0.58081 0.29351 0.14905 0.0
C1384 C 0.54904 0.28304 0.14884 0.0
H1385 H 0.41523 0.19504 0.13357 0.0
H1386 H 0.46593 0.21455 0.13286 0.0
H1387 H 0.48985 0.27296 0.17284 0.0
H1388 H 0.64351 0.29073 0.17137 0.0
H1389 H 0.59181 0.27402 0.17107 0.0
C1390 C 0.5508 0.6641 0.41225 0.0
C1391 C 0.55822 0.64986 0.39838 0.0
C1392 C 0.53866 0.69281 0.41232 0.0
C1393 C 0.49826 0.74699 0.38791 0.0
H1394 H 0.52457 0.80378 0.41851 0.0
C1395 C 0.46245 0.87131 0.38669 0.0
C1396 C 0.45798 0.88592 0.40079 0.0
C1397 C 0.47382 0.84225 0.38621 0.0
C1398 C 0.51658 0.78813 0.41001 0.0
H1399 H 0.55863 0.65501 0.37365 0.0
H1400 H 0.53753 0.7051 0.37379 0.0
H1401 H 0.54641 0.75421 0.41798 0.0
H1402 H 0.46102 0.88081 0.42547 0.0
H1403 H 0.48009 0.83016 0.42464 0.0
H1404 H 0.46825 0.78085 0.37999 0.0
C1405 C 0.54092 0.6939 0.38463 0.0
C1406 C 0.52922 0.75964 0.40969 0.0
C1407 C 0.55323 0.66521 0.38456 0.0
C1408 C 0.46435 0.8704 0.41439 0.0
C1409 C 0.47557 0.84134 0.41391 0.0
C1410 C 0.4855 0.77548 0.38827 0.0
C1411 C 0.53344 0.70809 0.39852 0.0
C1412 C 0.52021 0.73864 0.39866 0.0
C1413 C 0.48091 0.82696 0.39981 0.0
C1414 C 0.49442 0.79647 0.39936 0.0
H1415 H 0.55423 0.65303 0.42312 0.0
H1416 H 0.53288 0.70285 0.42322 0.0
H1417 H 0.49048 0.7313 0.37937 0.0
H1418 H 0.45793 0.88258 0.37598 0.0
H1419 H 0.47785 0.83213 0.37513 0.0
C1420 C 0.89373 0.75651 0.65332 0.0
C1421 C 0.8854 0.73167 0.64449 0.0
C1422 C 0.92278 0.76778 0.65265 0.0
C1423 C 0.99226 0.7693 0.6297 0.0
H1424 H 0.02922 0.78765 0.66884 0.0
C1425 C 0.10632 0.83112 0.63625 0.0
C1426 C 0.1259 0.82067 0.6477 0.0
C1427 C 0.07734 0.81953 0.63483 0.0
C1428 C 1.01934 0.7825 0.6578 0.0
H1429 H 0.90111 0.69995 0.62755 0.0
H1430 H 0.9519 0.71984 0.6263 0.0
H1431 H 0.9781 0.7694 0.66808 0.0
H1432 H 0.13036 0.78914 0.66635 0.0
H1433 H 0.08014 0.7692 0.66389 0.0
H1434 H 0.03377 0.78243 0.61947 0.0
C1435 C 0.93581 0.73054 0.63377 0.0
C1436 C 0.98987 0.77231 0.65735 0.0
C1437 C 0.9067 0.71908 0.63452 0.0
C1438 C 0.11598 0.79789 0.65743 0.0
C1439 C 0.08703 0.78653 0.65608 0.0
C1440 C 0.02176 0.77982 0.63014 0.0
C1441 C 0.94437 0.75469 0.64306 0.0
C1442 C 0.97588 0.76556 0.64331 0.0
C1443 C 0.06717 0.79742 0.6449 0.0
C1444 C 0.03572 0.78643 0.64422 0.0
H1445 H 0.87801 0.76695 0.66109 0.0
H1446 H 0.92842 0.78669 0.65977 0.0
H1447 H 0.98214 0.76445 0.61869 0.0
H1448 H 0.11316 0.8486 0.62854 0.0
H1449 H 0.0626 0.82854 0.62613 0.0
C1450 C 0.9638 0.37914 0.88548 0.0
C1451 C 0.95974 0.39366 0.89964 0.0
C1452 C 0.97543 0.35016 0.88483 0.0
C1453 C 0.98917 0.28325 0.90932 0.0
H1454 H 0.04034 0.25917 0.87569 0.0
C1455 C 0.02864 0.16145 0.90315 0.0
C1456 C 0.05786 0.156 0.89793 0.0
C1457 C 1.01615 0.18999 0.90249 0.0
C1458 C 0.02631 0.26551 0.88526 0.0
H1459 H 0.96529 0.38897 0.92423 0.0
H1460 H 0.98618 0.33912 0.9231 0.0
H1461 H 0.02067 0.30963 0.87659 0.0
H1462 H 0.09667 0.17649 0.88768 0.0
H1463 H 0.07527 0.22636 0.88685 0.0
H1464 H 0.99571 0.23964 0.91833 0.0
C1465 C 0.97969 0.34967 0.91246 0.0
C1466 C 1.01462 0.29448 0.88566 0.0
C1467 C 0.96785 0.37849 0.91311 0.0
C1468 C 0.07404 0.17979 0.89172 0.0
C1469 C 0.06165 0.20847 0.8912 0.0
C1470 C 1.00102 0.25442 0.90897 0.0
C1471 C 0.98356 0.33492 0.89832 0.0
C1472 C 0.99588 0.30386 0.89772 0.0
C1473 C 0.0326 0.21411 0.89674 0.0
C1474 C 1.01977 0.245 0.89694 0.0
H1475 H 0.95771 0.39003 0.87487 0.0
H1476 H 0.9776 0.33957 0.87373 0.0
H1477 H 0.97452 0.28927 0.91869 0.0
H1478 H 1.01538 0.14364 0.90789 0.0
H1479 H 0.9935 0.19308 0.90653 0.0
C1480 C 0.61273 0.83566 0.91483 0.0
C1481 C 0.63658 0.8201 0.90799 0.0
C1482 C 0.58373 0.82395 0.91477 0.0
C1483 C 0.53521 0.76984 0.89432 0.0
H1484 H 0.48431 0.77929 0.92991 0.0
C1485 C 0.40788 0.74344 0.89294 0.0
C1486 C 0.39532 0.7299 0.90594 0.0
C1487 C 0.43754 0.75353 0.89312 0.0
C1488 C 0.49823 0.77622 0.91989 0.0
H1489 H 0.64836 0.77973 0.89578 0.0
H1490 H 0.5979 0.75927 0.89574 0.0
H1491 H 0.53537 0.79787 0.93064 0.0
H1492 H 0.40467 0.71617 0.9293 0.0
H1493 H 0.45612 0.73355 0.92956 0.0
H1494 H 0.49811 0.74794 0.88362 0.0
C1495 C 0.60156 0.78071 0.90106 0.0
C1496 C 0.52751 0.78722 0.92025 0.0
C1497 C 0.63062 0.79237 0.90118 0.0
C1498 C 0.41339 0.72652 0.91906 0.0
C1499 C 0.44296 0.73671 0.91926 0.0
C1500 C 0.50586 0.75898 0.89392 0.0
C1501 C 0.57764 0.79637 0.9078 0.0
C1502 C 0.54647 0.78423 0.90747 0.0
C1503 C 0.45548 0.75051 0.90632 0.0
C1504 C 0.4869 0.762 0.90671 0.0
H1505 H 0.61635 0.85711 0.92014 0.0
H1506 H 0.56593 0.83687 0.91993 0.0
H1507 H 0.54896 0.76735 0.88419 0.0
H1508 H 0.39474 0.74654 0.88262 0.0
H1509 H 0.4462 0.76429 0.88298 0.0
C1510 C 0.47646 0.38353 0.64108 0.0
C1511 C 0.46472 0.39536 0.65477 0.0
C1512 C 0.48751 0.35437 0.6405 0.0
C1513 C 0.48618 0.28217 0.66149 0.0
H1514 H 0.55656 0.26496 0.63716 0.0
C1515 C 0.54922 0.16995 0.66578 0.0
C1516 C 0.55923 0.1567 0.65208 0.0
C1517 C 0.53775 0.19893 0.66588 0.0
C1518 C 0.5367 0.26928 0.64389 0.0
H1519 H 0.45551 0.38542 0.67861 0.0
H1520 H 0.47514 0.33496 0.67767 0.0
H1521 H 0.53635 0.31531 0.6378 0.0
H1522 H 0.56527 0.16397 0.62772 0.0
H1523 H 0.54534 0.21458 0.62789 0.0
H1524 H 0.48679 0.23619 0.66772 0.0
C1525 C 0.47535 0.34799 0.66727 0.0
C1526 C 0.52503 0.29823 0.64424 0.0
C1527 C 0.46419 0.37711 0.66784 0.0
C1528 C 0.5578 0.17342 0.63849 0.0
C1529 C 0.54649 0.20253 0.6386 0.0
C1530 C 0.49795 0.25329 0.6612 0.0
C1531 C 0.48728 0.33617 0.65361 0.0
C1532 C 0.49959 0.30515 0.65307 0.0
C1533 C 0.5361 0.21562 0.65229 0.0
C1534 C 0.52342 0.24643 0.65242 0.0
H1535 H 0.47721 0.39681 0.63076 0.0
H1536 H 0.49603 0.34604 0.6297 0.0
H1537 H 0.46627 0.28635 0.6682 0.0
H1538 H 0.54998 0.15784 0.67649 0.0
H1539 H 0.53039 0.20838 0.67666 0.0
C1540 C 0.12785 0.29261 0.39384 0.0
C1541 C 0.13983 0.30599 0.40709 0.0
C1542 C 0.09834 0.28234 0.39356 0.0
C1543 C 0.02531 0.28776 0.41428 0.0
H1544 H 1.00746 0.21638 0.39111 0.0
C1545 C 0.91062 0.22774 0.41782 0.0
C1546 C 0.89813 0.21728 0.404 0.0
C1547 C 0.93985 0.23885 0.41829 0.0
C1548 C 1.01196 0.23651 0.39752 0.0
H1549 H 0.12976 0.31899 0.43047 0.0
H1550 H 0.0786 0.30053 0.43012 0.0
H1551 H 0.05844 0.23495 0.39193 0.0
H1552 H 0.90699 0.21029 0.37982 0.0
H1553 H 0.95791 0.22945 0.38065 0.0
H1554 H 0.97874 0.28889 0.42005 0.0
C1555 C 0.09183 0.29846 0.41979 0.0
C1556 C 0.04129 0.24728 0.39797 0.0
C1557 C 0.12133 0.30896 0.42003 0.0
C1558 C 0.91577 0.21813 0.39067 0.0
C1559 C 0.9451 0.22898 0.39117 0.0
C1560 C 0.99599 0.27683 0.41392 0.0
C1561 C 0.07987 0.28486 0.40656 0.0
C1562 C 0.04847 0.27318 0.40629 0.0
C1563 C 0.95755 0.23955 0.40497 0.0
C1564 C 0.98887 0.25111 0.40549 0.0
H1565 H 0.14124 0.2901 0.38359 0.0
H1566 H 0.08996 0.27264 0.38303 0.0
H1567 H 0.02965 0.30799 0.42062 0.0
H1568 H 0.89777 0.2275 0.42833 0.0
H1569 H 0.94876 0.2465 0.42915 0.0
C1570 C 0.03646 0.65586 0.15397 0.0
C1571 C 0.06085 0.64722 0.16318 0.0
C1572 C 0.02564 0.68513 0.15433 0.0
C1573 C 0.02185 0.75323 0.17784 0.0
H1574 H 1.00964 0.79343 0.13906 0.0
C1575 C 0.96187 0.8685 0.1715 0.0
C1576 C 0.97627 0.88934 0.16209 0.0
C1577 C 0.97217 0.83901 0.17231 0.0
C1578 C 1.01294 0.78255 0.14999 0.0
H1579 H 0.09245 0.66269 0.18026 0.0
H1580 H 0.07302 0.71361 0.18115 0.0
H1581 H 0.02713 0.74191 0.1393 0.0
H1582 H 1.01287 0.89522 0.14613 0.0
H1583 H 0.03029 0.84386 0.14731 0.0
H1584 H 1.00728 0.79388 0.1885 0.0
C1585 C 0.06246 0.6977 0.17357 0.0
C1586 C 0.02278 0.75294 0.15013 0.0
C1587 C 0.07366 0.66852 0.17301 0.0
C1588 C 1.00125 0.8799 0.15356 0.0
C1589 C 1.01116 0.85036 0.15415 0.0
C1590 C 1.01144 0.78272 0.1777 0.0
C1591 C 0.03854 0.70648 0.16408 0.0
C1592 C 0.02754 0.73792 0.16405 0.0
C1593 C 0.99674 0.82948 0.16349 0.0
C1594 C 1.00707 0.79783 0.16376 0.0
H1595 H 0.02608 0.64015 0.14621 0.0
H1596 H 1.00705 0.69107 0.14696 0.0
H1597 H 0.02513 0.74227 0.18876 0.0
H1598 H 0.9426 0.87497 0.17823 0.0
H1599 H 0.96047 0.82346 0.17957 0.0
C1600 C 0.24387 0.27162 0.1555 0.0
C1601 C 0.26275 0.26029 0.144 0.0
C1602 C 0.2267 0.297 0.15305 0.0
C1603 C 0.22323 0.36569 0.13079 0.0
H1604 H 0.14473 0.3708 0.14938 0.0
C1605 C 0.1505 0.47426 0.13245 0.0
C1606 C 0.13865 0.48104 0.14699 0.0
C1607 C 0.16423 0.44668 0.12967 0.0
C1608 C 0.16662 0.36978 0.14413 0.0
H1609 H 0.27782 0.26666 0.12066 0.0
H1610 H 0.24754 0.31172 0.11632 0.0
H1611 H 0.17041 0.3231 0.14809 0.0
H1612 H 0.13187 0.464 0.16996 0.0
H1613 H 0.15537 0.41612 0.16507 0.0
H1614 H 0.21943 0.41272 0.12711 0.0
C1615 C 0.24629 0.30065 0.1273 0.0
C1616 C 0.18136 0.34242 0.14337 0.0
C1617 C 0.26346 0.27479 0.12974 0.0
C1618 C 0.14072 0.45959 0.15862 0.0
C1619 C 0.15404 0.43201 0.15579 0.0
C1620 C 0.20833 0.39317 0.13146 0.0
C1621 C 0.22776 0.31207 0.139 0.0
C1622 C 0.21028 0.34015 0.13718 0.0
C1623 C 0.16595 0.42516 0.14129 0.0
C1624 C 0.18025 0.39565 0.1386 0.0
H1625 H 0.24251 0.261 0.16661 0.0
H1626 H 0.21315 0.3053 0.16241 0.0
H1627 H 0.24552 0.36478 0.126 0.0
H1628 H 0.14938 0.49033 0.12326 0.0
H1629 H 0.17315 0.44203 0.11837 0.0
C1630 C 0.31409 0.41122 0.40184 0.0
C1631 C 0.31211 0.38037 0.39956 0.0
C1632 C 0.33929 0.42684 0.39704 0.0
C1633 C 0.41899 0.41869 0.38805 0.0
H1634 H 0.40778 0.49514 0.3685 0.0
C1635 C 0.51974 0.49346 0.3736 0.0
C1636 C 0.51633 0.52277 0.37889 0.0
C1637 C 0.49488 0.47465 0.37254 0.0
C1638 C 0.41134 0.47386 0.37396 0.0
H1639 H 0.33548 0.34172 0.39066 0.0
H1640 H 0.37972 0.36908 0.38246 0.0
H1641 H 0.36445 0.46474 0.37454 0.0
H1642 H 0.48417 0.55604 0.38608 0.0
H1643 H 0.44114 0.52366 0.38416 0.0
H1644 H 0.46581 0.42828 0.38801 0.0
C1645 C 0.36163 0.38111 0.38792 0.0
C1646 C 0.38649 0.45646 0.37744 0.0
C1647 C 0.33624 0.36547 0.39259 0.0
C1648 C 0.48748 0.53353 0.38198 0.0
C1649 C 0.46274 0.51493 0.38081 0.0
C1650 C 0.44389 0.43619 0.38464 0.0
C1651 C 0.36329 0.41204 0.38995 0.0
C1652 C 0.38995 0.42901 0.38487 0.0
C1653 C 0.46618 0.48496 0.37659 0.0
C1654 C 0.44032 0.46435 0.3779 0.0
H1655 H 0.29595 0.42348 0.40712 0.0
H1656 H 0.34007 0.45058 0.399 0.0
H1657 H 0.4224 0.39769 0.39383 0.0
H1658 H 0.54175 0.4845 0.37125 0.0
H1659 H 0.49826 0.45179 0.36906 0.0
C1660 C 0.2487 0.7584 0.65562 0.0
C1661 C 0.25485 0.78321 0.64645 0.0
C1662 C 0.26696 0.73332 0.65514 0.0
C1663 C 0.32498 0.69262 0.6337 0.0
H1664 H 0.34363 0.66212 0.67418 0.0
C1665 C 0.40616 0.59274 0.64455 0.0
C1666 C 0.39596 0.57158 0.65515 0.0
C1667 C 0.39104 0.61985 0.6427 0.0
C1668 C 0.33853 0.67019 0.66278 0.0
H1669 H 0.28407 0.80048 0.62887 0.0
H1670 H 0.31646 0.75617 0.62805 0.0
H1671 H 0.31288 0.70641 0.67164 0.0
H1672 H 0.36193 0.56263 0.6722 0.0
H1673 H 0.33584 0.60955 0.66899 0.0
H1674 H 0.35058 0.65591 0.6249 0.0
C1675 C 0.29731 0.75634 0.63561 0.0
C1676 C 0.32086 0.6956 0.66131 0.0
C1677 C 0.27876 0.78164 0.63604 0.0
C1678 C 0.37054 0.57834 0.66395 0.0
C1679 C 0.35561 0.60539 0.66217 0.0
C1680 C 0.34277 0.66702 0.63517 0.0
C1681 C 0.29211 0.73232 0.64556 0.0
C1682 C 0.31324 0.70677 0.64677 0.0
C1683 C 0.36559 0.6265 0.65152 0.0
C1684 C 0.34918 0.65516 0.64975 0.0
H1685 H 0.23014 0.75867 0.66357 0.0
H1686 H 0.26176 0.71489 0.66261 0.0
H1687 H 0.31952 0.70067 0.62234 0.0
H1688 H 0.42559 0.58824 0.63753 0.0
H1689 H 0.39942 0.63571 0.63447 0.0
C1690 C 0.03142 0.51429 0.89793 0.0
C1691 C 1.00461 0.52355 0.89097 0.0
C1692 C 0.05661 0.5324 0.89787 0.0
C1693 C 0.09372 0.59671 0.88032 0.0
H1694 H 0.13104 0.60245 0.92039 0.0
C1695 C 0.1956 0.67418 0.89346 0.0
C1696 C 0.21803 0.66208 0.90294 0.0
C1697 C 0.16837 0.65928 0.89128 0.0
C1698 C 0.12117 0.60094 0.90907 0.0
H1699 H 0.98393 0.55856 0.87761 0.0
H1700 H 0.02846 0.59044 0.87741 0.0
H1701 H 0.08658 0.57237 0.91708 0.0
H1702 H 0.22921 0.6245 0.91743 0.0
H1703 H 0.18242 0.59872 0.91354 0.0
H1704 H 0.12887 0.62503 0.8723 0.0
C1705 C 0.02971 0.56901 0.88297 0.0
C1706 C 0.09557 0.58368 0.90717 0.0
C1707 C 1.00425 0.55072 0.88304 0.0
C1708 C 0.21251 0.63475 0.91014 0.0
C1709 C 0.18545 0.61995 0.90797 0.0
C1710 C 0.1196 0.61397 0.88221 0.0
C1711 C 0.05585 0.56042 0.89086 0.0
C1712 C 0.08182 0.58082 0.89273 0.0
C1713 C 0.1629 0.63198 0.89858 0.0
C1714 C 0.134 0.61582 0.89657 0.0
H1715 H 0.03269 0.49333 0.90396 0.0
H1716 H 0.07658 0.52474 0.90371 0.0
H1717 H 0.08365 0.59498 0.86905 0.0
H1718 H 0.19906 0.69513 0.88769 0.0
H1719 H 0.15147 0.66933 0.88405 0.0
C1720 C 0.80111 0.78888 0.92049 0.0
C1721 C 0.77075 0.79126 0.92437 0.0
C1722 C 0.81561 0.76144 0.92075 0.0
C1723 C 0.81474 0.68413 0.93336 0.0
H1724 H 0.85013 0.66878 0.89348 0.0
C1725 C 0.89249 0.58356 0.9211 0.0
C1726 C 0.88781 0.56782 0.90733 0.0
C1727 C 0.87743 0.61028 0.92396 0.0
C1728 C 0.84025 0.67261 0.90465 0.0
H1729 H 0.73233 0.76726 0.93268 0.0
H1730 H 0.75813 0.71893 0.93359 0.0
H1731 H 0.82586 0.71639 0.89854 0.0
H1732 H 0.86381 0.56822 0.8857 0.0
H1733 H 0.83792 0.61517 0.8906 0.0
H1734 H 0.8294 0.64029 0.93947 0.0
C1735 C 0.77057 0.73846 0.93029 0.0
C1736 C 0.82658 0.69998 0.90759 0.0
C1737 C 0.7559 0.76612 0.92996 0.0
C1738 C 0.86801 0.57975 0.8964 0.0
C1739 C 0.85319 0.60668 0.8992 0.0
C1740 C 0.82882 0.6568 0.93047 0.0
C1741 C 0.80011 0.73571 0.92493 0.0
C1742 C 0.8139 0.70615 0.92201 0.0
C1743 C 0.85755 0.62214 0.91307 0.0
C1744 C 0.84185 0.65079 0.91609 0.0
H1745 H 0.81297 0.80789 0.91601 0.0
H1746 H 0.83851 0.76006 0.91682 0.0
H1747 H 0.80503 0.68826 0.94453 0.0
H1748 H 0.90744 0.575 0.92983 0.0
H1749 H 0.88158 0.62182 0.93466 0.0
C1750 C 0.71917 0.6376 0.6804 0.0
C1751 C 0.72348 0.64927 0.66563 0.0
C1752 C 0.69224 0.62378 0.68428 0.0
C1753 C 0.61286 0.61656 0.67222 0.0
H1754 H 0.61653 0.54183 0.69409 0.0
C1755 C 0.53681 0.50638 0.67803 0.0
C1756 C 0.50831 0.51892 0.68009 0.0
C1757 C 0.56247 0.52366 0.67958 0.0
C1758 C 0.61509 0.56275 0.68804 0.0
H1759 H 0.70255 0.65585 0.64343 0.0
H1760 H 0.65585 0.63165 0.65015 0.0
H1761 H 0.66229 0.56973 0.68964 0.0
H1762 H 0.48438 0.55916 0.68614 0.0
H1763 H 0.52944 0.58957 0.6889 0.0
H1764 H 0.56582 0.60898 0.67009 0.0
C1765 C 0.67314 0.63343 0.65881 0.0
C1766 C 0.64131 0.57887 0.68558 0.0
C1767 C 0.70007 0.64712 0.65491 0.0
C1768 C 0.50606 0.54882 0.6846 0.0
C1769 C 0.53184 0.56629 0.686 0.0
C1770 C 0.58662 0.60049 0.67473 0.0
C1771 C 0.6689 0.62144 0.67352 0.0
C1772 C 0.64063 0.60568 0.67736 0.0
C1773 C 0.56031 0.55406 0.68312 0.0
C1774 C 0.58748 0.57306 0.68238 0.0
H1775 H 0.73667 0.63889 0.68897 0.0
H1776 H 0.68967 0.61504 0.69575 0.0
H1777 H 0.61145 0.63733 0.66604 0.0
H1778 H 0.53925 0.48341 0.67451 0.0
H1779 H 0.58391 0.51352 0.67712 0.0
C1780 C 0.77974 0.29179 0.40846 0.0
C1781 C 0.77045 0.26515 0.41526 0.0
C1782 C 0.76234 0.31745 0.40957 0.0
C1783 C 0.68441 0.34158 0.41473 0.0
H1784 H 0.72082 0.41952 0.41591 0.0
C1785 C 0.65732 0.46928 0.39495 0.0
C1786 C 0.62943 0.47485 0.40178 0.0
C1787 C 0.67327 0.44336 0.39828 0.0
C1788 C 0.71031 0.39791 0.4155 0.0
H1789 H 0.73602 0.24491 0.42913 0.0
H1790 H 0.70549 0.29011 0.4312 0.0
H1791 H 0.75157 0.37556 0.42011 0.0
H1792 H 0.59604 0.45684 0.41714 0.0
H1793 H 0.62388 0.41126 0.42278 0.0
H1794 H 0.64312 0.36422 0.40998 0.0
C1795 C 0.72624 0.29093 0.42486 0.0
C1796 C 0.72793 0.37268 0.41793 0.0
C1797 C 0.74386 0.26513 0.42382 0.0
C1798 C 0.61744 0.45329 0.41165 0.0
C1799 C 0.63336 0.42716 0.41489 0.0
C1800 C 0.66669 0.36693 0.4124 0.0
C1801 C 0.73504 0.31728 0.4175 0.0
C1802 C 0.7154 0.34413 0.41716 0.0
C1803 C 0.66171 0.42218 0.40844 0.0
C1804 C 0.67963 0.39532 0.41236 0.0
H1805 H 0.80012 0.29263 0.4018 0.0
H1806 H 0.76973 0.33711 0.40358 0.0
H1807 H 0.67403 0.31996 0.41393 0.0
H1808 H 0.66729 0.48526 0.38727 0.0
H1809 H 0.6948 0.43993 0.3929 0.0
C1810 C 0.84079 0.36881 0.16218 0.0
C1811 C 0.81564 0.38339 0.15607 0.0
C1812 C 0.86665 0.38481 0.16596 0.0
C1813 C 0.90338 0.45796 0.15895 0.0
H1814 H 0.9524 0.43581 0.19385 0.0
C1815 C 1.00022 0.53176 0.178 0.0
C1816 C 0.02785 0.51698 0.17808 0.0
C1817 C 0.97358 0.51561 0.17819 0.0
C1818 C 0.93884 0.44224 0.18409 0.0
H1819 H 0.7978 0.4264 0.1495 0.0
H1820 H 0.84204 0.45412 0.15646 0.0
H1821 H 0.9077 0.40695 0.18769 0.0
H1822 H 0.04955 0.47407 0.17918 0.0
H1823 H 1.00297 0.44578 0.18017 0.0
H1824 H 0.93429 0.4934 0.15548 0.0
C1825 C 0.84244 0.43026 0.15791 0.0
C1826 C 0.91336 0.42558 0.18046 0.0
C1827 C 0.81687 0.4143 0.15396 0.0
C1828 C 0.02847 0.48597 0.1796 0.0
C1829 C 1.00182 0.4698 0.18001 0.0
C1830 C 0.92851 0.47479 0.16272 0.0
C1831 C 0.86782 0.41581 0.16389 0.0
C1832 C 0.89524 0.4332 0.16782 0.0
C1833 C 0.97415 0.48439 0.17854 0.0
C1834 C 0.94653 0.46717 0.17532 0.0
H1835 H 0.8406 0.34503 0.16394 0.0
H1836 H 0.88581 0.37277 0.17034 0.0
H1837 H 0.89063 0.46418 0.14889 0.0
H1838 H 0.99921 0.55558 0.17635 0.0
H1839 H 0.95257 0.52744 0.17715 0.0
C1840 C 0.75593 0.78947 0.65364 0.0
C1841 C 0.75339 0.76526 0.6435 0.0
C1842 C 0.73655 0.81361 0.65266 0.0
C1843 C 0.68493 0.85592 0.62878 0.0
H1844 H 0.65315 0.87964 0.66835 0.0
C1845 C 0.60666 0.95904 0.6375 0.0
C1846 C 0.615 0.97764 0.64977 0.0
C1847 C 0.61986 0.93091 0.63568 0.0
C1848 C 0.66184 0.87341 0.65721 0.0
H1849 H 0.72948 0.74839 0.6237 0.0
H1850 H 0.69527 0.79137 0.62188 0.0
H1851 H 0.68368 0.835 0.6663 0.0
H1852 H 0.64327 0.98085 0.66994 0.0
H1853 H 0.66596 0.93216 0.66685 0.0
H1854 H 0.66365 0.89507 0.61983 0.0
C1855 C 0.71238 0.79119 0.63068 0.0
C1856 C 0.6793 0.84778 0.65602 0.0
C1857 C 0.73197 0.76668 0.63169 0.0
C1858 C 0.63625 0.96718 0.66036 0.0
C1859 C 0.64918 0.93911 0.65863 0.0
C1860 C 0.66738 0.88178 0.62998 0.0
C1861 C 0.71396 0.81444 0.6415 0.0
C1862 C 0.69184 0.83921 0.64191 0.0
C1863 C 0.64137 0.92067 0.64622 0.0
C1864 C 0.6564 0.89127 0.64432 0.0
H1865 H 0.77254 0.7895 0.6627 0.0
H1866 H 0.73892 0.83152 0.66089 0.0
H1867 H 0.6943 0.84986 0.61776 0.0
H1868 H 0.59048 0.96647 0.62907 0.0
H1869 H 0.61324 0.91718 0.62605 0.0
C1870 C 0.81676 0.91562 0.90723 0.0
C1871 C 0.80001 0.90503 0.89472 0.0
C1872 C 0.843 0.93163 0.90493 0.0
C1873 C 0.90332 0.94678 0.8773 0.0
H1874 H 0.91795 1.0127 0.90497 0.0
C1875 C 1.01136 0.02324 0.8791 0.0
C1876 C 0.02325 0.02538 0.89403 0.0
C1877 C 0.98365 1.00923 0.87656 0.0
C1878 C 0.91415 0.99444 0.89709 0.0
H1879 H 0.79816 0.90278 0.86988 0.0
H1880 H 0.84427 0.93094 0.86587 0.0
H1881 H 0.86997 0.98757 0.90552 0.0
H1882 H 1.01595 1.01263 0.91778 0.0
H1883 H 0.96842 0.98903 0.91335 0.0
H1884 H 0.94815 0.95366 0.86913 0.0
C1885 C 0.83695 0.92667 0.87748 0.0
C1886 C 0.88671 0.97991 0.89746 0.0
C1887 C 0.81046 0.91065 0.87979 0.0
C1888 C 1.00747 1.01209 0.90615 0.0
C1889 C 0.98005 0.99848 0.90364 0.0
C1890 C 0.93096 0.96152 0.87688 0.0
C1891 C 0.85338 0.9376 0.89005 0.0
C1892 C 0.88123 0.95526 0.88796 0.0
C1893 C 0.96743 0.99743 0.88894 0.0
C1894 C 0.93692 0.9849 0.88714 0.0
H1895 H 0.80961 0.91163 0.9189 0.0
H1896 H 0.85535 0.93913 0.9149 0.0
H1897 H 0.89983 0.92789 0.86981 0.0
H1898 H 0.02295 0.0331 0.86951 0.0
H1899 H 0.97444 1.00855 0.86508 0.0
C1900 C 0.89775 0.06406 0.12762 0.0
C1901 C 0.90538 0.05727 0.14288 0.0
C1902 C 0.8836 0.09098 0.12399 0.0
C1903 C 0.86889 0.16708 0.13889 0.0
H1904 H 0.8011 0.16535 0.11117 0.0
C1905 C 0.80185 0.27384 0.12413 0.0
C1906 C 0.77081 0.27085 0.1259 0.0
C1907 C 0.82037 0.24858 0.12371 0.0
C1908 C 0.82005 0.16626 0.11889 0.0
H1909 H 0.90439 0.07389 0.16625 0.0
H1910 H 0.87979 0.12066 0.15993 0.0
H1911 H 0.82949 0.11992 0.11595 0.0
H1912 H 0.73475 0.23916 0.12777 0.0
H1913 H 0.76673 0.19539 0.12673 0.0
H1914 H 0.85886 0.21324 0.14219 0.0
C1915 C 0.88493 0.10528 0.15073 0.0
C1916 C 0.83649 0.14023 0.12155 0.0
C1917 C 0.89888 0.0783 0.15437 0.0
C1918 C 0.75857 0.24218 0.12629 0.0
C1919 C 0.77694 0.21704 0.12569 0.0
C1920 C 0.85257 0.19317 0.13615 0.0
C1921 C 0.87691 0.11192 0.13551 0.0
C1922 C 0.86082 0.14016 0.13179 0.0
C1923 C 0.80816 0.21987 0.12484 0.0
C1924 C 0.82761 0.19299 0.12631 0.0
H1925 H 0.9024 0.04843 0.11846 0.0
H1926 H 0.878 0.09545 0.11213 0.0
H1927 H 0.8877 0.16795 0.14671 0.0
H1928 H 0.81198 0.29563 0.12401 0.0
H1929 H 0.84431 0.25152 0.12292 0.0
C1930 C 0.50503 0.04593 0.37679 0.0
C1931 C 0.50796 1.0154 0.37986 0.0
C1932 C 0.53009 0.06461 0.37764 0.0
C1933 C 0.59964 0.06914 0.39899 0.0
H1934 H 0.62807 0.12517 0.3688 0.0
C1935 C 0.71536 0.12227 0.40533 0.0
C1936 C 0.72066 0.15072 0.39941 0.0
C1937 C 0.68821 0.10795 0.40265 0.0
C1938 C 0.62019 0.11007 0.37752 0.0
H1939 H 0.53972 0.98028 0.385 0.0
H1940 H 0.58289 1.01267 0.38655 0.0
H1941 H 0.58263 0.09667 0.36371 0.0
H1942 H 0.70118 0.18677 0.38633 0.0
H1943 H 0.65316 0.16241 0.38226 0.0
H1944 H 0.63645 0.0823 0.41291 0.0
C1945 C 0.56137 0.02227 0.38367 0.0
C1946 C 0.59419 0.09367 0.37452 0.0
C1947 C 0.53662 1.00371 0.38268 0.0
C1948 C 0.69783 0.16481 0.39102 0.0
C1949 C 0.67035 0.15066 0.38857 0.0
C1950 C 0.62525 0.08569 0.40206 0.0
C1951 C 0.55826 0.05301 0.38169 0.0
C1952 C 0.58408 0.07259 0.38511 0.0
C1953 C 0.6652 0.12187 0.39423 0.0
C1954 C 0.63636 0.10602 0.39128 0.0
H1955 H 0.48322 0.05564 0.37473 0.0
H1956 H 0.52715 0.08828 0.37604 0.0
H1957 H 0.59205 0.05337 0.40747 0.0
H1958 H 0.73258 0.11054 0.41164 0.0
H1959 H 0.68572 0.08556 0.4069 0.0
C1960 C 0.26697 0.24481 0.43431 0.0
C1961 C 0.27578 0.2741 0.43132 0.0
C1962 C 0.28779 0.22159 0.43387 0.0
C1963 C 0.35285 0.19943 0.41284 0.0
H1964 H 0.36078 0.13619 0.44269 0.0
C1965 C 0.39151 0.08006 0.39837 0.0
C1966 C 0.41267 0.06664 0.40808 0.0
C1967 C 0.3794 0.10787 0.40195 0.0
C1968 C 0.35906 0.15385 0.43433 0.0
H1969 H 0.3134 0.30224 0.42584 0.0
H1970 H 0.34977 0.26141 0.4247 0.0
H1971 H 0.33084 0.18037 0.44887 0.0
H1972 H 0.43809 0.07207 0.42908 0.0
H1973 H 0.41618 0.12057 0.43558 0.0
H1974 H 0.3797 0.17227 0.39799 0.0
C1975 C 0.32682 0.25659 0.42768 0.0
C1976 C 0.34185 0.17901 0.43784 0.0
C1977 C 0.30609 0.27995 0.42849 0.0
C1978 C 0.42196 0.08195 0.42132 0.0
C1979 C 0.40932 0.10957 0.42509 0.0
C1980 C 0.36954 0.17403 0.40922 0.0
C1981 C 0.3177 0.22713 0.43004 0.0
C1982 C 0.33838 0.20192 0.42707 0.0
C1983 C 0.38772 0.12266 0.41549 0.0
C1984 C 0.37256 0.15084 0.41987 0.0
H1985 H 0.24366 0.23969 0.43629 0.0
H1986 H 0.28012 0.19907 0.4356 0.0
H1987 H 0.35021 0.2166 0.40426 0.0
H1988 H 0.38393 0.06884 0.38807 0.0
H1989 H 0.36265 0.11732 0.3944 0.0
C1990 C 1.01295 0.05032 0.17831 0.0
C1991 C 1.01363 0.01938 0.17653 0.0
C1992 C 0.03952 0.06629 0.18005 0.0
C1993 C 0.12224 0.05912 0.18578 0.0
H1994 H 0.12407 0.12881 0.15983 0.0
C1995 C 0.22804 0.13281 0.17955 0.0
C1996 C 0.23453 0.14339 0.16476 0.0
C1997 C 0.20094 0.11847 0.18256 0.0
C1998 C 0.12405 0.10934 0.16707 0.0
H1999 H 0.04227 0.98069 0.17552 0.0
H2000 H 0.08873 1.00835 0.17861 0.0
H2001 H 0.0774 0.10241 0.16338 0.0
H2002 H 0.21752 0.14691 0.14153 0.0
H2003 H 0.17063 0.12173 0.1467 0.0
H2004 H 0.16928 0.06552 0.18895 0.0
C2005 C 0.06779 0.02042 0.17904 0.0
C2006 C 0.09709 0.0944 0.16933 0.0
C2007 C 0.04115 1.00447 0.17737 0.0
C2008 C 0.21328 0.13921 0.15307 0.0
C2009 C 0.18623 0.1249 0.15607 0.0
C2010 C 0.14927 0.07411 0.18352 0.0
C2011 C 0.06741 0.05167 0.17978 0.0
C2012 C 0.0958 0.0689 0.17859 0.0
C2013 C 0.17961 0.11439 0.17086 0.0
C2014 C 0.15062 0.09921 0.17397 0.0
H2015 H 0.99201 0.06233 0.1773 0.0
H2016 H 0.03828 0.09026 0.18085 0.0
H2017 H 0.12211 0.0397 0.19307 0.0
H2018 H 0.24386 0.13562 0.18885 0.0
H2019 H 0.19654 0.11095 0.19411 0.0
C2020 C 0.15105 0.98632 0.93079 0.0
C2021 C 0.14007 0.99231 0.91598 0.0
C2022 C 0.16471 0.95903 0.93413 0.0
C2023 C 0.17265 0.88128 0.91993 0.0
H2024 H 0.24513 0.88136 0.94433 0.0
C2025 C 0.28178 0.80235 0.92869 0.0
C2026 C 0.26858 0.77418 0.92977 0.0
C2027 C 0.26451 0.82816 0.92977 0.0
C2028 C 0.22486 0.8809 0.93753 0.0
H2029 H 0.13473 0.97394 0.89311 0.0
H2030 H 0.15871 0.92662 0.8989 0.0
H2031 H 0.21813 0.92774 0.9401 0.0
H2032 H 0.22694 0.75101 0.93345 0.0
H2033 H 0.19651 0.79635 0.93545 0.0
H2034 H 0.18004 0.83458 0.9169 0.0
C2035 C 0.15645 0.94287 0.90801 0.0
C2036 C 0.20921 0.9075 0.9352 0.0
C2037 C 0.14287 0.97017 0.90465 0.0
C2038 C 0.2378 0.7724 0.93276 0.0
C2039 C 0.22035 0.79837 0.93369 0.0
C2040 C 0.18826 0.85463 0.9223 0.0
C2041 C 0.16768 0.93693 0.92278 0.0
C2042 C 0.18315 0.90817 0.92615 0.0
C2043 C 0.23343 0.82656 0.93185 0.0
C2044 C 0.21487 0.85417 0.93091 0.0
H2045 H 0.14926 1.00279 0.93982 0.0
H2046 H 0.17279 0.95518 0.94567 0.0
H2047 H 0.15245 0.88083 0.91307 0.0
H2048 H 0.30542 0.80444 0.9263 0.0
H2049 H 0.27537 0.84935 0.92813 0.0
C2050 C 0.31508 0.89919 0.655 0.0
C2051 C 0.29165 0.90071 0.66569 0.0
C2052 C 0.34234 0.91328 0.65791 0.0
C2053 C 0.37491 0.97517 0.67979 0.0
H2054 H 0.45023 0.93916 0.66787 0.0
C2055 C 0.5105 1.00324 0.67797 0.0
C2056 C 0.50899 0.03088 0.67057 0.0
C2057 C 0.48441 0.98669 0.68041 0.0
C2058 C 0.42947 0.9494 0.67148 0.0
H2059 H 0.27875 0.91804 0.68796 0.0
H2060 H 0.32629 0.94278 0.69298 0.0
H2061 H 0.40416 0.91044 0.66602 0.0
H2062 H 0.47895 0.06361 0.66079 0.0
H2063 H 0.43371 0.03523 0.6653 0.0
H2064 H 0.40011 1.01435 0.68491 0.0
C2065 C 0.32351 0.93071 0.68232 0.0
C2066 C 0.403 0.93305 0.67025 0.0
C2067 C 0.2963 0.91639 0.67946 0.0
C2068 C 0.48083 0.04238 0.66653 0.0
C2069 C 0.45485 0.02613 0.66917 0.0
C2070 C 0.40133 0.9916 0.6809 0.0
C2071 C 0.34684 0.92946 0.67154 0.0
C2072 C 0.37531 0.94589 0.67414 0.0
C2073 C 0.45633 0.99772 0.67574 0.0
C2074 C 0.42888 0.9791 0.6765 0.0
H2075 H 0.31234 0.88728 0.64428 0.0
H2076 H 0.35965 0.91214 0.64927 0.0
H2077 H 0.354 0.98583 0.68281 0.0
H2078 H 0.53191 0.9937 0.68107 0.0
H2079 H 0.48626 0.96495 0.68561 0.0
loop_
_geom_bond_atom_site_label_1
_geom_bond_atom_site_label_2
_geom_bond_distance
_geom_bond_site_symmetry_2
_ccdc_geom_bond_type
Dy0 O3 2.307 . S
Dy0 O5 2.395 . S
Dy0 O6 2.379 . S
Dy0 O8 2.339 . S
Dy0 O10 2.298 . S
Dy0 O14 2.275 . S
Dy0 C22 2.738 . S
Dy1 O4 2.298 . S
Dy1 O7 2.275 . S
Dy1 O9 2.307 . S
Dy1 O11 2.395 . S
Dy1 O12 2.379 . S
Dy1 O15 2.339 . S
Dy1 C31 2.738 . S
C2 O14 1.254 . S
C2 O15 1.257 . S
O3 Dy0 2.307 . S
O3 C13 1.266 . S
O4 Dy1 2.298 . S
O4 C13 1.236 . S
O5 Dy0 2.395 . S
O5 C22 1.255 . S
O6 Dy0 2.379 . S
O6 C22 1.249 . S
O7 Dy1 2.275 . S
O7 C23 1.254 . S
O8 Dy0 2.339 . S
O8 C23 1.257 . S
O9 Dy1 2.307 . S
O9 C24 1.266 . S
O10 Dy0 2.298 . S
O10 C24 1.236 . S
O11 Dy1 2.395 . S
O11 C31 1.255 . S
O12 Dy1 2.379 . S
O12 C31 1.249 . S
C13 O3 1.266 . S
C13 O4 1.236 . S
O14 Dy0 2.275 . S
O14 C2 1.254 . S
O15 Dy1 2.339 . S
O15 C2 1.257 . S
C16 C19 1.344 . S
C16 C20 1.328 . S
C16 C22 1.516 . S
C17 C18 1.304 . S
C17 C21 1.323 . S
C18 C17 1.304 . S
C18 C19 1.371 . S
C18 H32 0.930 . S
C19 C16 1.344 . S
C19 C18 1.371 . S
C19 H33 0.931 . S
C20 C16 1.328 . S
C20 C21 1.433 . S
C20 H34 0.931 . S
C21 C17 1.323 . S
C21 C20 1.433 . S
C21 H35 0.933 . S
C22 Dy0 2.738 . S
C22 O5 1.255 . S
C22 O6 1.249 . S
C22 C16 1.516 . S
C23 O7 1.254 . S
C23 O8 1.257 . S
C24 O9 1.266 . S
C24 O10 1.236 . S
C25 C28 1.344 . S
C25 C29 1.328 . S
C25 C31 1.516 . S
C26 C27 1.304 . S
C26 C30 1.323 . S
C27 C26 1.304 . S
C27 C28 1.371 . S
C27 H36 0.930 . S
C28 C25 1.344 . S
C28 C27 1.371 . S
C28 H37 0.931 . S
C29 C25 1.328 . S
C29 C30 1.433 . S
C29 H38 0.931 . S
C30 C26 1.323 . S
C30 C29 1.433 . S
C30 H39 0.933 . S
C31 Dy1 2.738 . S
C31 O11 1.255 . S
C31 O12 1.249 . S
C31 C25 1.516 . S
H32 C18 0.930 . S
H33 C19 0.931 . S
H34 C20 0.931 . S
H35 C21 0.933 . S
H36 C27 0.930 . S
H37 C28 0.931 . S
H38 C29 0.931 . S
H39 C30 0.933 . S
Dy40 O43 2.307 . S
Dy40 O45 2.395 . S
Dy40 O46 2.379 . S
Dy40 O48 2.339 . S
Dy40 O50 2.298 . S
Dy40 O54 2.275 . S
Dy40 C62 2.738 . S
Dy41 O44 2.298 . S
Dy41 O47 2.275 . S
Dy41 O49 2.307 . S
Dy41 O51 2.395 . S
Dy41 O52 2.379 . S
Dy41 O55 2.339 . S
Dy41 C71 2.738 . S
C42 O54 1.254 . S
C42 O55 1.257 . S
O43 Dy40 2.307 . S
O43 C53 1.266 . S
O44 Dy41 2.298 . S
O44 C53 1.236 . S
O45 Dy40 2.395 . S
O45 C62 1.255 . S
O46 Dy40 2.379 . S
O46 C62 1.249 . S
O47 Dy41 2.275 . S
O47 C63 1.254 . S
O48 Dy40 2.339 . S
O48 C63 1.257 . S
O49 Dy41 2.307 . S
O49 C64 1.266 . S
O50 Dy40 2.298 . S
O50 C64 1.236 . S
O51 Dy41 2.395 . S
O51 C71 1.255 . S
O52 Dy41 2.379 . S
O52 C71 1.249 . S
C53 O43 1.266 . S
C53 O44 1.236 . S
O54 Dy40 2.275 . S
O54 C42 1.254 . S
O55 Dy41 2.339 . S
O55 C42 1.257 . S
C56 C59 1.344 . S
C56 C60 1.328 . S
C56 C62 1.516 . S
C57 C58 1.304 . S
C57 C61 1.323 . S
C58 C57 1.304 . S
C58 C59 1.371 . S
C58 H72 0.930 . S
C59 C56 1.344 . S
C59 C58 1.371 . S
C59 H73 0.931 . S
C60 C56 1.328 . S
C60 C61 1.433 . S
C60 H74 0.931 . S
C61 C57 1.323 . S
C61 C60 1.433 . S
C61 H75 0.933 . S
C62 Dy40 2.738 . S
C62 O45 1.255 . S
C62 O46 1.249 . S
C62 C56 1.516 . S
C63 O47 1.254 . S
C63 O48 1.257 . S
C64 O49 1.266 . S
C64 O50 1.236 . S
C65 C68 1.344 . S
C65 C69 1.328 . S
C65 C71 1.516 . S
C66 C67 1.304 . S
C66 C70 1.323 . S
C67 C66 1.304 . S
C67 C68 1.371 . S
C67 H76 0.930 . S
C68 C65 1.344 . S
C68 C67 1.371 . S
C68 H77 0.931 . S
C69 C65 1.328 . S
C69 C70 1.433 . S
C69 H78 0.931 . S
C70 C66 1.323 . S
C70 C69 1.433 . S
C70 H79 0.933 . S
C71 Dy41 2.738 . S
C71 O51 1.255 . S
C71 O52 1.249 . S
C71 C65 1.516 . S
H72 C58 0.930 . S
H73 C59 0.931 . S
H74 C60 0.931 . S
H75 C61 0.933 . S
H76 C67 0.930 . S
H77 C68 0.931 . S
H78 C69 0.931 . S
H79 C70 0.933 . S
Dy80 O83 2.307 . S
Dy80 O85 2.395 . S
Dy80 O86 2.379 . S
Dy80 O88 2.339 . S
Dy80 O90 2.298 . S
Dy80 O94 2.275 . S
Dy80 C102 2.738 . S
Dy81 O84 2.298 . S
Dy81 O87 2.275 . S
Dy81 O89 2.307 . S
Dy81 O91 2.395 . S
Dy81 O92 2.379 . S
Dy81 O95 2.339 . S
Dy81 C111 2.738 . S
C82 O94 1.254 . S
C82 O95 1.257 . S
O83 Dy80 2.307 . S
O83 C93 1.266 . S
O84 Dy81 2.298 . S
O84 C93 1.236 . S
O85 Dy80 2.395 . S
O85 C102 1.255 . S
O86 Dy80 2.379 . S
O86 C102 1.249 . S
O87 Dy81 2.275 . S
O87 C103 1.254 . S
O88 Dy80 2.339 . S
O88 C103 1.257 . S
O89 Dy81 2.307 . S
O89 C104 1.266 . S
O90 Dy80 2.298 . S
O90 C104 1.236 . S
O91 Dy81 2.395 . S
O91 C111 1.255 . S
O92 Dy81 2.379 . S
O92 C111 1.249 . S
C93 O83 1.266 . S
C93 O84 1.236 . S
O94 Dy80 2.275 . S
O94 C82 1.254 . S
O95 Dy81 2.339 . S
O95 C82 1.257 . S
C96 C99 1.344 . S
C96 C100 1.328 . S
C96 C102 1.516 . S
C97 C98 1.304 . S
C97 C101 1.323 . S
C98 C97 1.304 . S
C98 C99 1.371 . S
C98 H112 0.930 . S
C99 C96 1.344 . S
C99 C98 1.371 . S
C99 H113 0.931 . S
C100 C96 1.328 . S
C100 C101 1.433 . S
C100 H114 0.931 . S
C101 C97 1.323 . S
C101 C100 1.433 . S
C101 H115 0.933 . S
C102 Dy80 2.738 . S
C102 O85 1.255 . S
C102 O86 1.249 . S
C102 C96 1.516 . S
C103 O87 1.254 . S
C103 O88 1.257 . S
C104 O89 1.266 . S
C104 O90 1.236 . S
C105 C108 1.344 . S
C105 C109 1.328 . S
C105 C111 1.516 . S
C106 C107 1.304 . S
C106 C110 1.323 . S
C107 C106 1.304 . S
C107 C108 1.371 . S
C107 H116 0.930 . S
C108 C105 1.344 . S
C108 C107 1.371 . S
C108 H117 0.931 . S
C109 C105 1.328 . S
C109 C110 1.433 . S
C109 H118 0.931 . S
C110 C106 1.323 . S
C110 C109 1.433 . S
C110 H119 0.933 . S
C111 Dy81 2.738 . S
C111 O91 1.255 . S
C111 O92 1.249 . S
C111 C105 1.516 . S
H112 C98 0.930 . S
H113 C99 0.931 . S
H114 C100 0.931 . S
H115 C101 0.933 . S
H116 C107 0.930 . S
H117 C108 0.931 . S
H118 C109 0.931 . S
H119 C110 0.933 . S
Dy120 O123 2.307 . S
Dy120 O125 2.395 . S
Dy120 O126 2.379 . S
Dy120 O128 2.339 . S
Dy120 O130 2.298 . S
Dy120 O134 2.275 . S
Dy120 C142 2.738 . S
Dy121 O124 2.298 . S
Dy121 O127 2.275 . S
Dy121 O129 2.307 . S
Dy121 O131 2.395 . S
Dy121 O132 2.379 . S
Dy121 O135 2.339 . S
Dy121 C151 2.738 . S
C122 O134 1.254 . S
C122 O135 1.257 . S
O123 Dy120 2.307 . S
O123 C133 1.266 . S
O124 Dy121 2.298 . S
O124 C133 1.236 . S
O125 Dy120 2.395 . S
O125 C142 1.255 . S
O126 Dy120 2.379 . S
O126 C142 1.249 . S
O127 Dy121 2.275 . S
O127 C143 1.254 . S
O128 Dy120 2.339 . S
O128 C143 1.257 . S
O129 Dy121 2.307 . S
O129 C144 1.266 . S
O130 Dy120 2.298 . S
O130 C144 1.236 . S
O131 Dy121 2.395 . S
O131 C151 1.255 . S
O132 Dy121 2.379 . S
O132 C151 1.249 . S
C133 O123 1.266 . S
C133 O124 1.236 . S
O134 Dy120 2.275 . S
O134 C122 1.254 . S
O135 Dy121 2.339 . S
O135 C122 1.257 . S
C136 C139 1.344 . S
C136 C140 1.328 . S
C136 C142 1.516 . S
C137 C138 1.304 . S
C137 C141 1.323 . S
C138 C137 1.304 . S
C138 C139 1.371 . S
C138 H152 0.930 . S
C139 C136 1.344 . S
C139 C138 1.371 . S
C139 H153 0.931 . S
C140 C136 1.328 . S
C140 C141 1.433 . S
C140 H154 0.931 . S
C141 C137 1.323 . S
C141 C140 1.433 . S
C141 H155 0.933 . S
C142 Dy120 2.738 . S
C142 O125 1.255 . S
C142 O126 1.249 . S
C142 C136 1.516 . S
C143 O127 1.254 . S
C143 O128 1.257 . S
C144 O129 1.266 . S
C144 O130 1.236 . S
C145 C148 1.344 . S
C145 C149 1.328 . S
C145 C151 1.516 . S
C146 C147 1.304 . S
C146 C150 1.323 . S
C147 C146 1.304 . S
C147 C148 1.371 . S
C147 H156 0.930 . S
C148 C145 1.344 . S
C148 C147 1.371 . S
C148 H157 0.931 . S
C149 C145 1.328 . S
C149 C150 1.433 . S
C149 H158 0.931 . S
C150 C146 1.323 . S
C150 C149 1.433 . S
C150 H159 0.933 1_655 S
C151 Dy121 2.738 . S
C151 O131 1.255 . S
C151 O132 1.249 . S
C151 C145 1.516 . S
H152 C138 0.930 . S
H153 C139 0.931 . S
H154 C140 0.931 . S
H155 C141 0.933 . S
H156 C147 0.930 . S
H157 C148 0.931 . S
H158 C149 0.931 . S
H159 C150 0.933 1_455 S
Dy160 O163 2.307 . S
Dy160 O165 2.395 . S
Dy160 O166 2.379 . S
Dy160 O168 2.339 . S
Dy160 O170 2.298 . S
Dy160 O174 2.275 . S
Dy160 C182 2.738 . S
Dy161 O164 2.298 . S
Dy161 O167 2.275 . S
Dy161 O169 2.307 . S
Dy161 O171 2.395 . S
Dy161 O172 2.379 . S
Dy161 O175 2.339 . S
Dy161 C191 2.738 . S
C162 O174 1.254 . S
C162 O175 1.257 . S
O163 Dy160 2.307 . S
O163 C173 1.266 . S
O164 Dy161 2.298 . S
O164 C173 1.236 . S
O165 Dy160 2.395 . S
O165 C182 1.255 . S
O166 Dy160 2.379 . S
O166 C182 1.249 . S
O167 Dy161 2.275 . S
O167 C183 1.254 . S
O168 Dy160 2.339 . S
O168 C183 1.257 . S
O169 Dy161 2.307 . S
O169 C184 1.266 . S
O170 Dy160 2.298 . S
O170 C184 1.236 . S
O171 Dy161 2.395 . S
O171 C191 1.255 . S
O172 Dy161 2.379 . S
O172 C191 1.249 . S
C173 O163 1.266 . S
C173 O164 1.236 . S
O174 Dy160 2.275 . S
O174 C162 1.254 . S
O175 Dy161 2.339 . S
O175 C162 1.257 . S
C176 C179 1.344 . S
C176 C180 1.328 . S
C176 C182 1.516 . S
C177 C178 1.304 . S
C177 C181 1.323 . S
C178 C177 1.304 . S
C178 C179 1.371 . S
C178 H192 0.930 . S
C179 C176 1.344 . S
C179 C178 1.371 . S
C179 H193 0.931 . S
C180 C176 1.328 . S
C180 C181 1.433 . S
C180 H194 0.931 . S
C181 C177 1.323 . S
C181 C180 1.433 . S
C181 H195 0.933 . S
C182 Dy160 2.738 . S
C182 O165 1.255 . S
C182 O166 1.249 . S
C182 C176 1.516 . S
C183 O167 1.254 . S
C183 O168 1.257 . S
C184 O169 1.266 . S
C184 O170 1.236 . S
C185 C188 1.344 . S
C185 C189 1.328 . S
C185 C191 1.516 . S
C186 C187 1.304 . S
C186 C190 1.323 . S
C187 C186 1.304 . S
C187 C188 1.371 . S
C187 H196 0.930 . S
C188 C185 1.344 . S
C188 C187 1.371 . S
C188 H197 0.931 . S
C189 C185 1.328 . S
C189 C190 1.433 . S
C189 H198 0.931 . S
C190 C186 1.323 . S
C190 C189 1.433 . S
C190 H199 0.933 . S
C191 Dy161 2.738 . S
C191 O171 1.255 . S
C191 O172 1.249 . S
C191 C185 1.516 . S
H192 C178 0.930 . S
H193 C179 0.931 . S
H194 C180 0.931 . S
H195 C181 0.933 . S
H196 C187 0.930 . S
H197 C188 0.931 . S
H198 C189 0.931 . S
H199 C190 0.933 . S
Dy200 O203 2.307 . S
Dy200 O205 2.395 . S
Dy200 O206 2.379 . S
Dy200 O208 2.339 . S
Dy200 O210 2.298 . S
Dy200 O214 2.275 . S
Dy200 C222 2.738 . S
Dy201 O204 2.298 . S
Dy201 O207 2.275 . S
Dy201 O209 2.307 . S
Dy201 O211 2.395 . S
Dy201 O212 2.379 . S
Dy201 O215 2.339 . S
Dy201 C231 2.738 . S
C202 O214 1.254 . S
C202 O215 1.257 . S
O203 Dy200 2.307 . S
O203 C213 1.266 . S
O204 Dy201 2.298 . S
O204 C213 1.236 . S
O205 Dy200 2.395 . S
O205 C222 1.255 . S
O206 Dy200 2.379 . S
O206 C222 1.249 . S
O207 Dy201 2.275 . S
O207 C223 1.254 . S
O208 Dy200 2.339 . S
O208 C223 1.257 . S
O209 Dy201 2.307 . S
O209 C224 1.266 . S
O210 Dy200 2.298 . S
O210 C224 1.236 . S
O211 Dy201 2.395 . S
O211 C231 1.255 . S
O212 Dy201 2.379 . S
O212 C231 1.249 . S
C213 O203 1.266 . S
C213 O204 1.236 . S
O214 Dy200 2.275 . S
O214 C202 1.254 . S
O215 Dy201 2.339 . S
O215 C202 1.257 . S
C216 C219 1.344 . S
C216 C220 1.328 . S
C216 C222 1.516 . S
C217 C218 1.304 . S
C217 C221 1.323 . S
C218 C217 1.304 . S
C218 C219 1.371 . S
C218 H232 0.930 . S
C219 C216 1.344 . S
C219 C218 1.371 . S
C219 H233 0.931 . S
C220 C216 1.328 . S
C220 C221 1.433 . S
C220 H234 0.931 . S
C221 C217 1.323 . S
C221 C220 1.433 . S
C221 H235 0.933 . S
C222 Dy200 2.738 . S
C222 O205 1.255 . S
C222 O206 1.249 . S
C222 C216 1.516 . S
C223 O207 1.254 . S
C223 O208 1.257 . S
C224 O209 1.266 . S
C224 O210 1.236 . S
C225 C228 1.344 . S
C225 C229 1.328 . S
C225 C231 1.516 . S
C226 C227 1.304 . S
C226 C230 1.323 . S
C227 C226 1.304 . S
C227 C228 1.371 . S
C227 H236 0.930 . S
C228 C225 1.344 . S
C228 C227 1.371 . S
C228 H237 0.931 . S
C229 C225 1.328 . S
C229 C230 1.433 . S
C229 H238 0.931 . S
C230 C226 1.323 . S
C230 C229 1.433 . S
C230 H239 0.933 . S
C231 Dy201 2.738 . S
C231 O211 1.255 . S
C231 O212 1.249 . S
C231 C225 1.516 . S
H232 C218 0.930 . S
H233 C219 0.931 . S
H234 C220 0.931 . S
H235 C221 0.933 . S
H236 C227 0.930 . S
H237 C228 0.931 . S
H238 C229 0.931 . S
H239 C230 0.933 . S
Dy240 O243 2.307 . S
Dy240 O245 2.395 . S
Dy240 O246 2.379 . S
Dy240 O248 2.339 . S
Dy240 O250 2.298 . S
Dy240 O254 2.275 . S
Dy240 C262 2.738 . S
Dy241 O244 2.298 . S
Dy241 O247 2.275 . S
Dy241 O249 2.307 . S
Dy241 O251 2.395 . S
Dy241 O252 2.379 . S
Dy241 O255 2.339 . S
Dy241 C271 2.738 . S
C242 O254 1.254 . S
C242 O255 1.257 . S
O243 Dy240 2.307 . S
O243 C253 1.266 . S
O244 Dy241 2.298 . S
O244 C253 1.236 . S
O245 Dy240 2.395 . S
O245 C262 1.255 . S
O246 Dy240 2.379 . S
O246 C262 1.249 . S
O247 Dy241 2.275 . S
O247 C263 1.254 . S
O248 Dy240 2.339 . S
O248 C263 1.257 . S
O249 Dy241 2.307 . S
O249 C264 1.266 . S
O250 Dy240 2.298 . S
O250 C264 1.236 . S
O251 Dy241 2.395 . S
O251 C271 1.255 . S
O252 Dy241 2.379 . S
O252 C271 1.249 . S
C253 O243 1.266 . S
C253 O244 1.236 . S
O254 Dy240 2.275 . S
O254 C242 1.254 . S
O255 Dy241 2.339 . S
O255 C242 1.257 . S
C256 C259 1.344 . S
C256 C260 1.328 . S
C256 C262 1.516 . S
C257 C258 1.304 . S
C257 C261 1.323 . S
C258 C257 1.304 . S
C258 C259 1.371 . S
C258 H272 0.930 . S
C259 C256 1.344 . S
C259 C258 1.371 . S
C259 H273 0.931 . S
C260 C256 1.328 . S
C260 C261 1.433 . S
C260 H274 0.931 . S
C261 C257 1.323 . S
C261 C260 1.433 . S
C261 H275 0.933 . S
C262 Dy240 2.738 . S
C262 O245 1.255 . S
C262 O246 1.249 . S
C262 C256 1.516 . S
C263 O247 1.254 . S
C263 O248 1.257 . S
C264 O249 1.266 . S
C264 O250 1.236 . S
C265 C268 1.344 . S
C265 C269 1.328 . S
C265 C271 1.516 . S
C266 C267 1.304 . S
C266 C270 1.323 . S
C267 C266 1.304 . S
C267 C268 1.371 . S
C267 H276 0.930 . S
C268 C265 1.344 . S
C268 C267 1.371 . S
C268 H277 0.931 . S
C269 C265 1.328 . S
C269 C270 1.433 . S
C269 H278 0.931 . S
C270 C266 1.323 . S
C270 C269 1.433 . S
C270 H279 0.933 . S
C271 Dy241 2.738 . S
C271 O251 1.255 . S
C271 O252 1.249 . S
C271 C265 1.516 . S
H272 C258 0.930 . S
H273 C259 0.931 . S
H274 C260 0.931 . S
H275 C261 0.933 . S
H276 C267 0.930 . S
H277 C268 0.931 . S
H278 C269 0.931 . S
H279 C270 0.933 . S
Dy280 O283 2.307 . S
Dy280 O285 2.395 . S
Dy280 O286 2.379 . S
Dy280 O288 2.339 . S
Dy280 O290 2.298 . S
Dy280 O294 2.275 . S
Dy280 C302 2.738 . S
Dy281 O284 2.298 . S
Dy281 O287 2.275 . S
Dy281 O289 2.307 . S
Dy281 O291 2.395 . S
Dy281 O292 2.379 . S
Dy281 O295 2.339 . S
Dy281 C311 2.738 . S
C282 O294 1.254 . S
C282 O295 1.257 . S
O283 Dy280 2.307 . S
O283 C293 1.266 . S
O284 Dy281 2.298 . S
O284 C293 1.236 . S
O285 Dy280 2.395 . S
O285 C302 1.255 . S
O286 Dy280 2.379 . S
O286 C302 1.249 . S
O287 Dy281 2.275 . S
O287 C303 1.254 . S
O288 Dy280 2.339 . S
O288 C303 1.257 . S
O289 Dy281 2.307 . S
O289 C304 1.266 . S
O290 Dy280 2.298 . S
O290 C304 1.236 . S
O291 Dy281 2.395 . S
O291 C311 1.255 . S
O292 Dy281 2.379 . S
O292 C311 1.249 . S
C293 O283 1.266 . S
C293 O284 1.236 . S
O294 Dy280 2.275 . S
O294 C282 1.254 . S
O295 Dy281 2.339 . S
O295 C282 1.257 . S
C296 C299 1.344 . S
C296 C300 1.328 . S
C296 C302 1.516 . S
C297 C298 1.304 . S
C297 C301 1.323 . S
C298 C297 1.304 . S
C298 C299 1.371 . S
C298 H312 0.930 . S
C299 C296 1.344 . S
C299 C298 1.371 . S
C299 H313 0.931 . S
C300 C296 1.328 . S
C300 C301 1.433 . S
C300 H314 0.931 . S
C301 C297 1.323 . S
C301 C300 1.433 . S
C301 H315 0.933 1_455 S
C302 Dy280 2.738 . S
C302 O285 1.255 . S
C302 O286 1.249 . S
C302 C296 1.516 . S
C303 O287 1.254 . S
C303 O288 1.257 . S
C304 O289 1.266 . S
C304 O290 1.236 . S
C305 C308 1.344 . S
C305 C309 1.328 . S
C305 C311 1.516 . S
C306 C307 1.304 . S
C306 C310 1.323 . S
C307 C306 1.304 . S
C307 C308 1.371 . S
C307 H316 0.930 . S
C308 C305 1.344 . S
C308 C307 1.371 . S
C308 H317 0.931 . S
C309 C305 1.328 . S
C309 C310 1.433 . S
C309 H318 0.931 . S
C310 C306 1.323 . S
C310 C309 1.433 . S
C310 H319 0.933 . S
C311 Dy281 2.738 . S
C311 O291 1.255 . S
C311 O292 1.249 . S
C311 C305 1.516 . S
H312 C298 0.930 . S
H313 C299 0.931 . S
H314 C300 0.931 . S
H315 C301 0.933 1_655 S
H316 C307 0.930 . S
H317 C308 0.931 . S
H318 C309 0.931 . S
H319 C310 0.933 . S
Dy320 O323 2.307 . S
Dy320 O325 2.395 . S
Dy320 O326 2.379 . S
Dy320 O328 2.339 . S
Dy320 O330 2.298 . S
Dy320 O334 2.275 . S
Dy320 C342 2.738 . S
Dy321 O324 2.298 . S
Dy321 O327 2.275 . S
Dy321 O329 2.307 . S
Dy321 O331 2.395 . S
Dy321 O332 2.379 . S
Dy321 O335 2.339 . S
Dy321 C351 2.738 . S
C322 O334 1.254 . S
C322 O335 1.257 . S
O323 Dy320 2.307 . S
O323 C333 1.266 . S
O324 Dy321 2.298 . S
O324 C333 1.236 . S
O325 Dy320 2.395 . S
O325 C342 1.255 . S
O326 Dy320 2.379 . S
O326 C342 1.249 . S
O327 Dy321 2.275 . S
O327 C343 1.254 . S
O328 Dy320 2.339 . S
O328 C343 1.257 . S
O329 Dy321 2.307 . S
O329 C344 1.266 . S
O330 Dy320 2.298 . S
O330 C344 1.236 . S
O331 Dy321 2.395 . S
O331 C351 1.255 . S
O332 Dy321 2.379 . S
O332 C351 1.249 . S
C333 O323 1.266 . S
C333 O324 1.236 . S
O334 Dy320 2.275 . S
O334 C322 1.254 . S
O335 Dy321 2.339 . S
O335 C322 1.257 . S
C336 C339 1.344 . S
C336 C340 1.328 . S
C336 C342 1.516 . S
C337 C338 1.304 . S
C337 C341 1.323 . S
C338 C337 1.304 . S
C338 C339 1.371 . S
C338 H352 0.930 . S
C339 C336 1.344 . S
C339 C338 1.371 . S
C339 H353 0.931 . S
C340 C336 1.328 . S
C340 C341 1.433 . S
C340 H354 0.931 . S
C341 C337 1.323 . S
C341 C340 1.433 . S
C341 H355 0.933 . S
C342 Dy320 2.738 . S
C342 O325 1.255 . S
C342 O326 1.249 . S
C342 C336 1.516 . S
C343 O327 1.254 . S
C343 O328 1.257 . S
C344 O329 1.266 . S
C344 O330 1.236 . S
C345 C348 1.344 . S
C345 C349 1.328 . S
C345 C351 1.516 . S
C346 C347 1.304 . S
C346 C350 1.323 . S
C347 C346 1.304 . S
C347 C348 1.371 . S
C347 H356 0.930 . S
C348 C345 1.344 . S
C348 C347 1.371 . S
C348 H357 0.931 . S
C349 C345 1.328 . S
C349 C350 1.433 . S
C349 H358 0.931 . S
C350 C346 1.323 . S
C350 C349 1.433 . S
C350 H359 0.933 . S
C351 Dy321 2.738 . S
C351 O331 1.255 . S
C351 O332 1.249 . S
C351 C345 1.516 . S
H352 C338 0.930 . S
H353 C339 0.931 . S
H354 C340 0.931 . S
H355 C341 0.933 . S
H356 C347 0.930 . S
H357 C348 0.931 . S
H358 C349 0.931 . S
H359 C350 0.933 . S
Dy360 O363 2.307 . S
Dy360 O365 2.395 . S
Dy360 O366 2.379 . S
Dy360 O368 2.339 . S
Dy360 O370 2.298 1_545 S
Dy360 O374 2.275 . S
Dy360 C382 2.738 . S
Dy361 O364 2.298 . S
Dy361 O367 2.275 . S
Dy361 O369 2.307 1_545 S
Dy361 O371 2.395 . S
Dy361 O372 2.379 . S
Dy361 O375 2.339 1_545 S
Dy361 C391 2.738 . S
C362 O374 1.254 . S
C362 O375 1.257 1_545 S
O363 Dy360 2.307 . S
O363 C373 1.266 . S
O364 Dy361 2.298 . S
O364 C373 1.236 . S
O365 Dy360 2.395 . S
O365 C382 1.255 . S
O366 Dy360 2.379 . S
O366 C382 1.249 . S
O367 Dy361 2.275 . S
O367 C383 1.254 . S
O368 Dy360 2.339 . S
O368 C383 1.257 . S
O369 Dy361 2.307 1_565 S
O369 C384 1.266 . S
O370 Dy360 2.298 1_565 S
O370 C384 1.236 . S
O371 Dy361 2.395 . S
O371 C391 1.255 . S
O372 Dy361 2.379 . S
O372 C391 1.249 . S
C373 O363 1.266 . S
C373 O364 1.236 . S
O374 Dy360 2.275 . S
O374 C362 1.254 . S
O375 Dy361 2.339 1_565 S
O375 C362 1.257 1_565 S
C376 C379 1.344 1_545 S
C376 C380 1.328 . S
C376 C382 1.516 . S
C377 C378 1.304 . S
C377 C381 1.323 1_565 S
C378 C377 1.304 . S
C378 C379 1.371 . S
C378 H392 0.930 . S
C379 C376 1.344 1_565 S
C379 C378 1.371 . S
C379 H393 0.931 . S
C380 C376 1.328 . S
C380 C381 1.433 . S
C380 H394 0.931 . S
C381 C377 1.323 1_545 S
C381 C380 1.433 . S
C381 H395 0.933 . S
C382 Dy360 2.738 . S
C382 O365 1.255 . S
C382 O366 1.249 . S
C382 C376 1.516 . S
C383 O367 1.254 . S
C383 O368 1.257 . S
C384 O369 1.266 . S
C384 O370 1.236 . S
C385 C388 1.344 . S
C385 C389 1.328 . S
C385 C391 1.516 . S
C386 C387 1.304 . S
C386 C390 1.323 . S
C387 C386 1.304 . S
C387 C388 1.371 . S
C387 H396 0.930 . S
C388 C385 1.344 . S
C388 C387 1.371 . S
C388 H397 0.931 . S
C389 C385 1.328 . S
C389 C390 1.433 . S
C389 H398 0.931 . S
C390 C386 1.323 . S
C390 C389 1.433 . S
C390 H399 0.933 1_455 S
C391 Dy361 2.738 . S
C391 O371 1.255 . S
C391 O372 1.249 . S
C391 C385 1.516 . S
H392 C378 0.930 . S
H393 C379 0.931 . S
H394 C380 0.931 . S
H395 C381 0.933 . S
H396 C387 0.930 . S
H397 C388 0.931 . S
H398 C389 0.931 . S
H399 C390 0.933 1_655 S
Dy400 O403 2.307 . S
Dy400 O405 2.395 . S
Dy400 O406 2.379 . S
Dy400 O408 2.339 . S
Dy400 O410 2.298 . S
Dy400 O414 2.275 . S
Dy400 C422 2.738 . S
Dy401 O404 2.298 . S
Dy401 O407 2.275 . S
Dy401 O409 2.307 . S
Dy401 O411 2.395 . S
Dy401 O412 2.379 . S
Dy401 O415 2.339 . S
Dy401 C431 2.738 . S
C402 O414 1.254 . S
C402 O415 1.257 . S
O403 Dy400 2.307 . S
O403 C413 1.266 . S
O404 Dy401 2.298 . S
O404 C413 1.236 . S
O405 Dy400 2.395 . S
O405 C422 1.255 . S
O406 Dy400 2.379 . S
O406 C422 1.249 . S
O407 Dy401 2.275 . S
O407 C423 1.254 . S
O408 Dy400 2.339 . S
O408 C423 1.257 . S
O409 Dy401 2.307 . S
O409 C424 1.266 . S
O410 Dy400 2.298 . S
O410 C424 1.236 . S
O411 Dy401 2.395 . S
O411 C431 1.255 . S
O412 Dy401 2.379 . S
O412 C431 1.249 . S
C413 O403 1.266 . S
C413 O404 1.236 . S
O414 Dy400 2.275 . S
O414 C402 1.254 . S
O415 Dy401 2.339 . S
O415 C402 1.257 . S
C416 C419 1.344 . S
C416 C420 1.328 . S
C416 C422 1.516 . S
C417 C418 1.304 . S
C417 C421 1.323 . S
C418 C417 1.304 . S
C418 C419 1.371 . S
C418 H432 0.930 . S
C419 C416 1.344 . S
C419 C418 1.371 . S
C419 H433 0.931 . S
C420 C416 1.328 . S
C420 C421 1.433 . S
C420 H434 0.931 . S
C421 C417 1.323 . S
C421 C420 1.433 . S
C421 H435 0.933 . S
C422 Dy400 2.738 . S
C422 O405 1.255 . S
C422 O406 1.249 . S
C422 C416 1.516 . S
C423 O407 1.254 . S
C423 O408 1.257 . S
C424 O409 1.266 . S
C424 O410 1.236 . S
C425 C428 1.344 . S
C425 C429 1.328 . S
C425 C431 1.516 . S
C426 C427 1.304 . S
C426 C430 1.323 . S
C427 C426 1.304 . S
C427 C428 1.371 . S
C427 H436 0.930 . S
C428 C425 1.344 . S
C428 C427 1.371 . S
C428 H437 0.931 . S
C429 C425 1.328 . S
C429 C430 1.433 . S
C429 H438 0.931 . S
C430 C426 1.323 . S
C430 C429 1.433 . S
C430 H439 0.933 . S
C431 Dy401 2.738 . S
C431 O411 1.255 . S
C431 O412 1.249 . S
C431 C425 1.516 . S
H432 C418 0.930 . S
H433 C419 0.931 . S
H434 C420 0.931 . S
H435 C421 0.933 . S
H436 C427 0.930 . S
H437 C428 0.931 . S
H438 C429 0.931 . S
H439 C430 0.933 . S
Dy440 O443 2.307 . S
Dy440 O445 2.395 . S
Dy440 O446 2.379 . S
Dy440 O448 2.339 . S
Dy440 O450 2.298 1_565 S
Dy440 O454 2.275 . S
Dy440 C462 2.738 . S
Dy441 O444 2.298 . S
Dy441 O447 2.275 . S
Dy441 O449 2.307 1_565 S
Dy441 O451 2.395 . S
Dy441 O452 2.379 . S
Dy441 O455 2.339 1_565 S
Dy441 C471 2.738 . S
C442 O454 1.254 . S
C442 O455 1.257 1_565 S
O443 Dy440 2.307 . S
O443 C453 1.266 . S
O444 Dy441 2.298 . S
O444 C453 1.236 . S
O445 Dy440 2.395 . S
O445 C462 1.255 . S
O446 Dy440 2.379 . S
O446 C462 1.249 . S
O447 Dy441 2.275 . S
O447 C463 1.254 . S
O448 Dy440 2.339 . S
O448 C463 1.257 . S
O449 Dy441 2.307 1_545 S
O449 C464 1.266 . S
O450 Dy440 2.298 1_545 S
O450 C464 1.236 . S
O451 Dy441 2.395 . S
O451 C471 1.255 . S
O452 Dy441 2.379 . S
O452 C471 1.249 . S
C453 O443 1.266 . S
C453 O444 1.236 . S
O454 Dy440 2.275 . S
O454 C442 1.254 . S
O455 Dy441 2.339 1_545 S
O455 C442 1.257 1_545 S
C456 C459 1.344 1_565 S
C456 C460 1.328 . S
C456 C462 1.516 . S
C457 C458 1.304 . S
C457 C461 1.323 1_545 S
C458 C457 1.304 . S
C458 C459 1.371 . S
C458 H472 0.930 . S
C459 C456 1.344 1_545 S
C459 C458 1.371 . S
C459 H473 0.931 . S
C460 C456 1.328 . S
C460 C461 1.433 . S
C460 H474 0.931 . S
C461 C457 1.323 1_565 S
C461 C460 1.433 . S
C461 H475 0.933 . S
C462 Dy440 2.738 . S
C462 O445 1.255 . S
C462 O446 1.249 . S
C462 C456 1.516 . S
C463 O447 1.254 . S
C463 O448 1.257 . S
C464 O449 1.266 . S
C464 O450 1.236 . S
C465 C468 1.344 . S
C465 C469 1.328 . S
C465 C471 1.516 . S
C466 C467 1.304 . S
C466 C470 1.323 . S
C467 C466 1.304 . S
C467 C468 1.371 . S
C467 H476 0.930 . S
C468 C465 1.344 . S
C468 C467 1.371 . S
C468 H477 0.931 . S
C469 C465 1.328 . S
C469 C470 1.433 . S
C469 H478 0.931 . S
C470 C466 1.323 . S
C470 C469 1.433 . S
C470 H479 0.933 . S
C471 Dy441 2.738 . S
C471 O451 1.255 . S
C471 O452 1.249 . S
C471 C465 1.516 . S
H472 C458 0.930 . S
H473 C459 0.931 . S
H474 C460 0.931 . S
H475 C461 0.933 . S
H476 C467 0.930 . S
H477 C468 0.931 . S
H478 C469 0.931 . S
H479 C470 0.933 . S
Dy480 O483 2.307 . S
Dy480 O485 2.395 . S
Dy480 O486 2.379 . S
Dy480 O488 2.339 . S
Dy480 O490 2.298 . S
Dy480 O494 2.275 . S
Dy480 C502 2.738 . S
Dy481 O484 2.298 . S
Dy481 O487 2.275 . S
Dy481 O489 2.307 . S
Dy481 O491 2.395 . S
Dy481 O492 2.379 . S
Dy481 O495 2.339 . S
Dy481 C511 2.738 . S
C482 O494 1.254 . S
C482 O495 1.257 . S
O483 Dy480 2.307 . S
O483 C493 1.266 . S
O484 Dy481 2.298 . S
O484 C493 1.236 . S
O485 Dy480 2.395 . S
O485 C502 1.255 . S
O486 Dy480 2.379 . S
O486 C502 1.249 . S
O487 Dy481 2.275 . S
O487 C503 1.254 . S
O488 Dy480 2.339 . S
O488 C503 1.257 . S
O489 Dy481 2.307 . S
O489 C504 1.266 . S
O490 Dy480 2.298 . S
O490 C504 1.236 . S
O491 Dy481 2.395 . S
O491 C511 1.255 . S
O492 Dy481 2.379 . S
O492 C511 1.249 . S
C493 O483 1.266 . S
C493 O484 1.236 . S
O494 Dy480 2.275 . S
O494 C482 1.254 . S
O495 Dy481 2.339 . S
O495 C482 1.257 . S
C496 C499 1.344 . S
C496 C500 1.328 . S
C496 C502 1.516 . S
C497 C498 1.304 . S
C497 C501 1.323 . S
C498 C497 1.304 . S
C498 C499 1.371 . S
C498 H512 0.930 . S
C499 C496 1.344 . S
C499 C498 1.371 . S
C499 H513 0.931 . S
C500 C496 1.328 . S
C500 C501 1.433 . S
C500 H514 0.931 . S
C501 C497 1.323 . S
C501 C500 1.433 . S
C501 H515 0.933 . S
C502 Dy480 2.738 . S
C502 O485 1.255 . S
C502 O486 1.249 . S
C502 C496 1.516 . S
C503 O487 1.254 . S
C503 O488 1.257 . S
C504 O489 1.266 . S
C504 O490 1.236 . S
C505 C508 1.344 . S
C505 C509 1.328 . S
C505 C511 1.516 . S
C506 C507 1.304 . S
C506 C510 1.323 . S
C507 C506 1.304 . S
C507 C508 1.371 . S
C507 H516 0.930 . S
C508 C505 1.344 . S
C508 C507 1.371 . S
C508 H517 0.931 . S
C509 C505 1.328 . S
C509 C510 1.433 . S
C509 H518 0.931 . S
C510 C506 1.323 . S
C510 C509 1.433 . S
C510 H519 0.933 . S
C511 Dy481 2.738 . S
C511 O491 1.255 . S
C511 O492 1.249 . S
C511 C505 1.516 . S
H512 C498 0.930 . S
H513 C499 0.931 . S
H514 C500 0.931 . S
H515 C501 0.933 . S
H516 C507 0.930 . S
H517 C508 0.931 . S
H518 C509 0.931 . S
H519 C510 0.933 . S
Dy520 O523 2.307 1_565 S
Dy520 O525 2.395 . S
Dy520 O526 2.379 . S
Dy520 O528 2.339 1_565 S
Dy520 O530 2.298 . S
Dy520 O534 2.275 . S
Dy520 C542 2.738 . S
Dy521 O524 2.298 1_565 S
Dy521 O527 2.275 . S
Dy521 O529 2.307 . S
Dy521 O531 2.395 . S
Dy521 O532 2.379 . S
Dy521 O535 2.339 . S
Dy521 C551 2.738 . S
C522 O534 1.254 . S
C522 O535 1.257 . S
O523 Dy520 2.307 1_545 S
O523 C533 1.266 . S
O524 Dy521 2.298 1_545 S
O524 C533 1.236 . S
O525 Dy520 2.395 . S
O525 C542 1.255 . S
O526 Dy520 2.379 . S
O526 C542 1.249 . S
O527 Dy521 2.275 . S
O527 C543 1.254 . S
O528 Dy520 2.339 1_545 S
O528 C543 1.257 1_545 S
O529 Dy521 2.307 . S
O529 C544 1.266 . S
O530 Dy520 2.298 . S
O530 C544 1.236 . S
O531 Dy521 2.395 . S
O531 C551 1.255 . S
O532 Dy521 2.379 . S
O532 C551 1.249 . S
C533 O523 1.266 . S
C533 O524 1.236 . S
O534 Dy520 2.275 . S
O534 C522 1.254 . S
O535 Dy521 2.339 . S
O535 C522 1.257 . S
C536 C539 1.344 . S
C536 C540 1.328 . S
C536 C542 1.516 . S
C537 C538 1.304 . S
C537 C541 1.323 . S
C538 C537 1.304 . S
C538 C539 1.371 . S
C538 H552 0.930 . S
C539 C536 1.344 . S
C539 C538 1.371 . S
C539 H553 0.931 . S
C540 C536 1.328 . S
C540 C541 1.433 . S
C540 H554 0.931 . S
C541 C537 1.323 . S
C541 C540 1.433 . S
C541 H555 0.933 1_655 S
C542 Dy520 2.738 . S
C542 O525 1.255 . S
C542 O526 1.249 . S
C542 C536 1.516 . S
C543 O527 1.254 . S
C543 O528 1.257 1_565 S
C544 O529 1.266 . S
C544 O530 1.236 . S
C545 C548 1.344 1_565 S
C545 C549 1.328 . S
C545 C551 1.516 . S
C546 C547 1.304 . S
C546 C550 1.323 1_545 S
C547 C546 1.304 . S
C547 C548 1.371 . S
C547 H556 0.930 . S
C548 C545 1.344 1_545 S
C548 C547 1.371 . S
C548 H557 0.931 . S
C549 C545 1.328 . S
C549 C550 1.433 . S
C549 H558 0.931 . S
C550 C546 1.323 1_565 S
C550 C549 1.433 . S
C550 H559 0.933 . S
C551 Dy521 2.738 . S
C551 O531 1.255 . S
C551 O532 1.249 . S
C551 C545 1.516 . S
H552 C538 0.930 . S
H553 C539 0.931 . S
H554 C540 0.931 . S
H555 C541 0.933 1_455 S
H556 C547 0.930 . S
H557 C548 0.931 . S
H558 C549 0.931 . S
H559 C550 0.933 . S
Dy560 O563 2.307 . S
Dy560 O565 2.395 . S
Dy560 O566 2.379 . S
Dy560 O568 2.339 . S
Dy560 O570 2.298 . S
Dy560 O574 2.275 . S
Dy560 C582 2.738 . S
Dy561 O564 2.298 . S
Dy561 O567 2.275 . S
Dy561 O569 2.307 . S
Dy561 O571 2.395 . S
Dy561 O572 2.379 . S
Dy561 O575 2.339 . S
Dy561 C591 2.738 . S
C562 O574 1.254 . S
C562 O575 1.257 . S
O563 Dy560 2.307 . S
O563 C573 1.266 . S
O564 Dy561 2.298 . S
O564 C573 1.236 . S
O565 Dy560 2.395 . S
O565 C582 1.255 . S
O566 Dy560 2.379 . S
O566 C582 1.249 . S
O567 Dy561 2.275 . S
O567 C583 1.254 . S
O568 Dy560 2.339 . S
O568 C583 1.257 . S
O569 Dy561 2.307 . S
O569 C584 1.266 . S
O570 Dy560 2.298 . S
O570 C584 1.236 . S
O571 Dy561 2.395 . S
O571 C591 1.255 . S
O572 Dy561 2.379 . S
O572 C591 1.249 . S
C573 O563 1.266 . S
C573 O564 1.236 . S
O574 Dy560 2.275 . S
O574 C562 1.254 . S
O575 Dy561 2.339 . S
O575 C562 1.257 . S
C576 C579 1.344 . S
C576 C580 1.328 . S
C576 C582 1.516 . S
C577 C578 1.304 . S
C577 C581 1.323 . S
C578 C577 1.304 . S
C578 C579 1.371 . S
C578 H592 0.930 . S
C579 C576 1.344 . S
C579 C578 1.371 . S
C579 H593 0.931 . S
C580 C576 1.328 . S
C580 C581 1.433 . S
C580 H594 0.931 . S
C581 C577 1.323 . S
C581 C580 1.433 . S
C581 H595 0.933 . S
C582 Dy560 2.738 . S
C582 O565 1.255 . S
C582 O566 1.249 . S
C582 C576 1.516 . S
C583 O567 1.254 . S
C583 O568 1.257 . S
C584 O569 1.266 . S
C584 O570 1.236 . S
C585 C588 1.344 . S
C585 C589 1.328 . S
C585 C591 1.516 . S
C586 C587 1.304 . S
C586 C590 1.323 . S
C587 C586 1.304 . S
C587 C588 1.371 . S
C587 H596 0.930 . S
C588 C585 1.344 . S
C588 C587 1.371 . S
C588 H597 0.931 . S
C589 C585 1.328 . S
C589 C590 1.433 . S
C589 H598 0.931 . S
C590 C586 1.323 . S
C590 C589 1.433 . S
C590 H599 0.933 . S
C591 Dy561 2.738 . S
C591 O571 1.255 . S
C591 O572 1.249 . S
C591 C585 1.516 . S
H592 C578 0.930 . S
H593 C579 0.931 . S
H594 C580 0.931 . S
H595 C581 0.933 . S
H596 C587 0.930 . S
H597 C588 0.931 . S
H598 C589 0.931 . S
H599 C590 0.933 . S
Dy600 O603 2.307 1_545 S
Dy600 O605 2.395 . S
Dy600 O606 2.379 . S
Dy600 O608 2.339 1_545 S
Dy600 O610 2.298 . S
Dy600 O614 2.275 . S
Dy600 C622 2.738 . S
Dy601 O604 2.298 1_545 S
Dy601 O607 2.275 . S
Dy601 O609 2.307 . S
Dy601 O611 2.395 . S
Dy601 O612 2.379 . S
Dy601 O615 2.339 . S
Dy601 C631 2.738 . S
C602 O614 1.254 . S
C602 O615 1.257 . S
O603 Dy600 2.307 1_565 S
O603 C613 1.266 . S
O604 Dy601 2.298 1_565 S
O604 C613 1.236 . S
O605 Dy600 2.395 . S
O605 C622 1.255 . S
O606 Dy600 2.379 . S
O606 C622 1.249 . S
O607 Dy601 2.275 . S
O607 C623 1.254 . S
O608 Dy600 2.339 1_565 S
O608 C623 1.257 1_565 S
O609 Dy601 2.307 . S
O609 C624 1.266 . S
O610 Dy600 2.298 . S
O610 C624 1.236 . S
O611 Dy601 2.395 . S
O611 C631 1.255 . S
O612 Dy601 2.379 . S
O612 C631 1.249 . S
C613 O603 1.266 . S
C613 O604 1.236 . S
O614 Dy600 2.275 . S
O614 C602 1.254 . S
O615 Dy601 2.339 . S
O615 C602 1.257 . S
C616 C619 1.344 . S
C616 C620 1.328 . S
C616 C622 1.516 . S
C617 C618 1.304 . S
C617 C621 1.323 . S
C618 C617 1.304 . S
C618 C619 1.371 . S
C618 H632 0.930 . S
C619 C616 1.344 . S
C619 C618 1.371 . S
C619 H633 0.931 . S
C620 C616 1.328 . S
C620 C621 1.433 . S
C620 H634 0.931 . S
C621 C617 1.323 . S
C621 C620 1.433 . S
C621 H635 0.933 . S
C622 Dy600 2.738 . S
C622 O605 1.255 . S
C622 O606 1.249 . S
C622 C616 1.516 . S
C623 O607 1.254 . S
C623 O608 1.257 1_545 S
C624 O609 1.266 . S
C624 O610 1.236 . S
C625 C628 1.344 1_545 S
C625 C629 1.328 . S
C625 C631 1.516 . S
C626 C627 1.304 . S
C626 C630 1.323 1_565 S
C627 C626 1.304 . S
C627 C628 1.371 . S
C627 H636 0.930 . S
C628 C625 1.344 1_565 S
C628 C627 1.371 . S
C628 H637 0.931 . S
C629 C625 1.328 . S
C629 C630 1.433 . S
C629 H638 0.931 . S
C630 C626 1.323 1_545 S
C630 C629 1.433 . S
C630 H639 0.933 . S
C631 Dy601 2.738 . S
C631 O611 1.255 . S
C631 O612 1.249 . S
C631 C625 1.516 . S
H632 C618 0.930 . S
H633 C619 0.931 . S
H634 C620 0.931 . S
H635 C621 0.933 . S
H636 C627 0.930 . S
H637 C628 0.931 . S
H638 C629 0.931 . S
H639 C630 0.933 . S
C640 C641 1.349 . S
C640 C642 1.327 . S
C640 H665 0.950 . S
C641 C640 1.349 . S
C641 C657 1.349 . S
C642 C640 1.327 . S
C642 C661 1.429 . S
C642 H666 0.950 . S
C643 C660 1.574 . S
C643 C662 1.368 . S
C643 H667 0.949 . S
H644 C648 0.949 . S
C645 C646 1.349 . S
C645 C647 1.327 . S
C645 H668 0.950 . S
C646 C645 1.349 . S
C646 C658 1.349 . S
C647 C645 1.327 . S
C647 C663 1.429 . S
C647 H669 0.950 . S
C648 H644 0.949 . S
C648 C656 1.574 . S
C648 C664 1.368 . S
H649 C657 0.950 . S
H650 C655 0.950 . S
H651 C656 0.949 . S
H652 C658 0.950 . S
H653 C659 0.950 . S
H654 C660 0.949 . S
C655 H650 0.950 . S
C655 C657 1.327 . S
C655 C661 1.429 . S
C656 C648 1.574 . S
C656 H651 0.949 . S
C656 C662 1.368 . S
C657 C641 1.349 . S
C657 H649 0.950 . S
C657 C655 1.327 . S
C658 C646 1.349 . S
C658 H652 0.950 . S
C658 C659 1.327 . S
C659 H653 0.950 . S
C659 C658 1.327 . S
C659 C663 1.429 . S
C660 C643 1.574 . S
C660 H654 0.949 . S
C660 C664 1.368 . S
C661 C642 1.429 . S
C661 C655 1.429 . S
C661 C662 1.523 . S
C662 C643 1.368 . S
C662 C656 1.368 . S
C662 C661 1.523 . S
C663 C647 1.429 . S
C663 C659 1.429 . S
C663 C664 1.523 . S
C664 C648 1.368 . S
C664 C660 1.368 . S
C664 C663 1.523 . S
H665 C640 0.950 . S
H666 C642 0.950 . S
H667 C643 0.949 . S
H668 C645 0.950 . S
H669 C647 0.950 . S
C670 C671 1.349 . S
C670 C672 1.327 . S
C670 H695 0.950 . S
C671 C670 1.349 . S
C671 C687 1.349 . S
C672 C670 1.327 . S
C672 C691 1.429 . S
C672 H696 0.950 . S
C673 C690 1.574 . S
C673 C692 1.368 . S
C673 H697 0.949 . S
H674 C678 0.949 . S
C675 C676 1.349 . S
C675 C677 1.327 . S
C675 H698 0.950 . S
C676 C675 1.349 . S
C676 C688 1.349 . S
C677 C675 1.327 . S
C677 C693 1.429 . S
C677 H699 0.950 . S
C678 H674 0.949 . S
C678 C686 1.574 . S
C678 C694 1.368 . S
H679 C687 0.950 . S
H680 C685 0.950 . S
H681 C686 0.949 . S
H682 C688 0.950 . S
H683 C689 0.950 . S
H684 C690 0.949 . S
C685 H680 0.950 . S
C685 C687 1.327 . S
C685 C691 1.429 . S
C686 C678 1.574 . S
C686 H681 0.949 . S
C686 C692 1.368 . S
C687 C671 1.349 . S
C687 H679 0.950 . S
C687 C685 1.327 . S
C688 C676 1.349 . S
C688 H682 0.950 . S
C688 C689 1.327 . S
C689 H683 0.950 . S
C689 C688 1.327 . S
C689 C693 1.429 . S
C690 C673 1.574 . S
C690 H684 0.949 . S
C690 C694 1.368 . S
C691 C672 1.429 . S
C691 C685 1.429 . S
C691 C692 1.523 . S
C692 C673 1.368 . S
C692 C686 1.368 . S
C692 C691 1.523 . S
C693 C677 1.429 . S
C693 C689 1.429 . S
C693 C694 1.523 . S
C694 C678 1.368 . S
C694 C690 1.368 . S
C694 C693 1.523 . S
H695 C670 0.950 . S
H696 C672 0.950 . S
H697 C673 0.949 . S
H698 C675 0.950 . S
H699 C677 0.950 . S
C700 C701 1.349 . S
C700 C702 1.327 . S
C700 H725 0.950 . S
C701 C700 1.349 . S
C701 C717 1.349 . S
C702 C700 1.327 . S
C702 C721 1.429 . S
C702 H726 0.950 . S
C703 C720 1.574 . S
C703 C722 1.368 . S
C703 H727 0.949 . S
H704 C708 0.949 . S
C705 C706 1.349 . S
C705 C707 1.327 . S
C705 H728 0.950 . S
C706 C705 1.349 . S
C706 C718 1.349 . S
C707 C705 1.327 . S
C707 C723 1.429 . S
C707 H729 0.950 . S
C708 H704 0.949 . S
C708 C716 1.574 . S
C708 C724 1.368 . S
H709 C717 0.950 . S
H710 C715 0.950 . S
H711 C716 0.949 . S
H712 C718 0.950 . S
H713 C719 0.950 . S
H714 C720 0.949 . S
C715 H710 0.950 . S
C715 C717 1.327 . S
C715 C721 1.429 . S
C716 C708 1.574 . S
C716 H711 0.949 . S
C716 C722 1.368 . S
C717 C701 1.349 . S
C717 H709 0.950 . S
C717 C715 1.327 . S
C718 C706 1.349 . S
C718 H712 0.950 . S
C718 C719 1.327 . S
C719 H713 0.950 . S
C719 C718 1.327 . S
C719 C723 1.429 . S
C720 C703 1.574 . S
C720 H714 0.949 . S
C720 C724 1.368 . S
C721 C702 1.429 . S
C721 C715 1.429 . S
C721 C722 1.523 . S
C722 C703 1.368 . S
C722 C716 1.368 . S
C722 C721 1.523 . S
C723 C707 1.429 . S
C723 C719 1.429 . S
C723 C724 1.523 . S
C724 C708 1.368 . S
C724 C720 1.368 . S
C724 C723 1.523 . S
H725 C700 0.950 . S
H726 C702 0.950 . S
H727 C703 0.949 . S
H728 C705 0.950 . S
H729 C707 0.950 . S
C730 C731 1.349 . S
C730 C732 1.327 . S
C730 H755 0.950 . S
C731 C730 1.349 . S
C731 C747 1.349 . S
C732 C730 1.327 . S
C732 C751 1.429 . S
C732 H756 0.950 . S
C733 C750 1.574 . S
C733 C752 1.368 1_455 S
C733 H757 0.949 . S
H734 C738 0.949 . S
C735 C736 1.349 . S
C735 C737 1.327 . S
C735 H758 0.950 . S
C736 C735 1.349 . S
C736 C748 1.349 . S
C737 C735 1.327 . S
C737 C753 1.429 . S
C737 H759 0.950 . S
C738 H734 0.949 . S
C738 C746 1.574 . S
C738 C754 1.368 1_655 S
H739 C747 0.950 . S
H740 C745 0.950 1_455 S
H741 C746 0.949 . S
H742 C748 0.950 . S
H743 C749 0.950 1_655 S
H744 C750 0.949 . S
C745 H740 0.950 1_655 S
C745 C747 1.327 . S
C745 C751 1.429 . S
C746 C738 1.574 . S
C746 H741 0.949 . S
C746 C752 1.368 1_554 S
C747 C731 1.349 . S
C747 H739 0.950 . S
C747 C745 1.327 . S
C748 C736 1.349 . S
C748 H742 0.950 . S
C748 C749 1.327 . S
C749 H743 0.950 1_455 S
C749 C748 1.327 . S
C749 C753 1.429 . S
C750 C733 1.574 . S
C750 H744 0.949 . S
C750 C754 1.368 1_556 S
C751 C732 1.429 . S
C751 C745 1.429 . S
C751 C752 1.523 . S
C752 C733 1.368 1_655 S
C752 C746 1.368 1_556 S
C752 C751 1.523 . S
C753 C737 1.429 . S
C753 C749 1.429 . S
C753 C754 1.523 . S
C754 C738 1.368 1_455 S
C754 C750 1.368 1_554 S
C754 C753 1.523 . S
H755 C730 0.950 . S
H756 C732 0.950 . S
H757 C733 0.949 . S
H758 C735 0.950 . S
H759 C737 0.950 . S
C760 C761 1.349 . S
C760 C762 1.327 . S
C760 H785 0.950 . S
C761 C760 1.349 . S
C761 C777 1.349 . S
C762 C760 1.327 . S
C762 C781 1.429 . S
C762 H786 0.950 . S
C763 C780 1.574 . S
C763 C782 1.368 . S
C763 H787 0.949 . S
H764 C768 0.949 . S
C765 C766 1.349 . S
C765 C767 1.327 . S
C765 H788 0.950 . S
C766 C765 1.349 . S
C766 C778 1.349 . S
C767 C765 1.327 . S
C767 C783 1.429 . S
C767 H789 0.950 . S
C768 H764 0.949 . S
C768 C776 1.574 . S
C768 C784 1.368 . S
H769 C777 0.950 . S
H770 C775 0.950 . S
H771 C776 0.949 . S
H772 C778 0.950 . S
H773 C779 0.950 . S
H774 C780 0.949 . S
C775 H770 0.950 . S
C775 C777 1.327 . S
C775 C781 1.429 . S
C776 C768 1.574 . S
C776 H771 0.949 . S
C776 C782 1.368 . S
C777 C761 1.349 . S
C777 H769 0.950 . S
C777 C775 1.327 . S
C778 C766 1.349 . S
C778 H772 0.950 . S
C778 C779 1.327 . S
C779 H773 0.950 . S
C779 C778 1.327 . S
C779 C783 1.429 . S
C780 C763 1.574 . S
C780 H774 0.949 . S
C780 C784 1.368 . S
C781 C762 1.429 . S
C781 C775 1.429 . S
C781 C782 1.523 . S
C782 C763 1.368 . S
C782 C776 1.368 . S
C782 C781 1.523 . S
C783 C767 1.429 . S
C783 C779 1.429 . S
C783 C784 1.523 . S
C784 C768 1.368 . S
C784 C780 1.368 . S
C784 C783 1.523 . S
H785 C760 0.950 . S
H786 C762 0.950 . S
H787 C763 0.949 . S
H788 C765 0.950 . S
H789 C767 0.950 . S
C790 C791 1.349 . S
C790 C792 1.327 . S
C790 H815 0.950 . S
C791 C790 1.349 . S
C791 C807 1.349 . S
C792 C790 1.327 . S
C792 C811 1.429 . S
C792 H816 0.950 . S
C793 C810 1.574 . S
C793 C812 1.368 . S
C793 H817 0.949 . S
H794 C798 0.949 . S
C795 C796 1.349 . S
C795 C797 1.327 . S
C795 H818 0.950 . S
C796 C795 1.349 . S
C796 C808 1.349 . S
C797 C795 1.327 . S
C797 C813 1.429 . S
C797 H819 0.950 . S
C798 H794 0.949 . S
C798 C806 1.574 . S
C798 C814 1.368 . S
H799 C807 0.950 . S
H800 C805 0.950 . S
H801 C806 0.949 . S
H802 C808 0.950 . S
H803 C809 0.950 . S
H804 C810 0.949 . S
C805 H800 0.950 . S
C805 C807 1.327 . S
C805 C811 1.429 . S
C806 C798 1.574 . S
C806 H801 0.949 . S
C806 C812 1.368 . S
C807 C791 1.349 . S
C807 H799 0.950 . S
C807 C805 1.327 . S
C808 C796 1.349 . S
C808 H802 0.950 . S
C808 C809 1.327 . S
C809 H803 0.950 . S
C809 C808 1.327 . S
C809 C813 1.429 . S
C810 C793 1.574 . S
C810 H804 0.949 . S
C810 C814 1.368 . S
C811 C792 1.429 . S
C811 C805 1.429 . S
C811 C812 1.523 . S
C812 C793 1.368 . S
C812 C806 1.368 . S
C812 C811 1.523 . S
C813 C797 1.429 . S
C813 C809 1.429 . S
C813 C814 1.523 . S
C814 C798 1.368 . S
C814 C810 1.368 . S
C814 C813 1.523 . S
H815 C790 0.950 . S
H816 C792 0.950 . S
H817 C793 0.949 . S
H818 C795 0.950 . S
H819 C797 0.950 . S
C820 C821 1.349 . S
C820 C822 1.327 1_655 S
C820 H845 0.950 1_655 S
C821 C820 1.349 . S
C821 C837 1.349 . S
C822 C820 1.327 1_455 S
C822 C841 1.429 1_455 S
C822 H846 0.950 . S
C823 C840 1.574 . S
C823 C842 1.368 1_556 S
C823 H847 0.949 . S
H824 C828 0.949 . S
C825 C826 1.349 . S
C825 C827 1.327 1_455 S
C825 H848 0.950 1_455 S
C826 C825 1.349 . S
C826 C838 1.349 . S
C827 C825 1.327 1_655 S
C827 C843 1.429 1_655 S
C827 H849 0.950 . S
C828 H824 0.949 . S
C828 C836 1.574 . S
C828 C844 1.368 1_554 S
H829 C837 0.950 . S
H830 C835 0.950 . S
H831 C836 0.949 . S
H832 C838 0.950 . S
H833 C839 0.950 . S
H834 C840 0.949 . S
C835 H830 0.950 . S
C835 C837 1.327 . S
C835 C841 1.429 . S
C836 C828 1.574 . S
C836 H831 0.949 . S
C836 C842 1.368 1_445 S
C837 C821 1.349 . S
C837 H829 0.950 . S
C837 C835 1.327 . S
C838 C826 1.349 . S
C838 H832 0.950 . S
C838 C839 1.327 . S
C839 H833 0.950 . S
C839 C838 1.327 . S
C839 C843 1.429 . S
C840 C823 1.574 . S
C840 H834 0.949 . S
C840 C844 1.368 1_665 S
C841 C822 1.429 1_655 S
C841 C835 1.429 . S
C841 C842 1.523 . S
C842 C823 1.368 1_554 S
C842 C836 1.368 1_665 S
C842 C841 1.523 . S
C843 C827 1.429 1_455 S
C843 C839 1.429 . S
C843 C844 1.523 . S
C844 C828 1.368 1_556 S
C844 C840 1.368 1_445 S
C844 C843 1.523 . S
H845 C820 0.950 1_455 S
H846 C822 0.950 . S
H847 C823 0.949 . S
H848 C825 0.950 1_655 S
H849 C827 0.950 . S
C850 C851 1.349 . S
C850 C852 1.327 . S
C850 H875 0.950 . S
C851 C850 1.349 . S
C851 C867 1.349 . S
C852 C850 1.327 . S
C852 C871 1.429 . S
C852 H876 0.950 . S
C853 C870 1.574 . S
C853 C872 1.368 . S
C853 H877 0.949 . S
H854 C858 0.949 . S
C855 C856 1.349 . S
C855 C857 1.327 . S
C855 H878 0.950 . S
C856 C855 1.349 . S
C856 C868 1.349 . S
C857 C855 1.327 . S
C857 C873 1.429 . S
C857 H879 0.950 . S
C858 H854 0.949 . S
C858 C866 1.574 . S
C858 C874 1.368 . S
H859 C867 0.950 . S
H860 C865 0.950 . S
H861 C866 0.949 . S
H862 C868 0.950 . S
H863 C869 0.950 . S
H864 C870 0.949 . S
C865 H860 0.950 . S
C865 C867 1.327 . S
C865 C871 1.429 . S
C866 C858 1.574 . S
C866 H861 0.949 . S
C866 C872 1.368 1_545 S
C867 C851 1.349 . S
C867 H859 0.950 . S
C867 C865 1.327 . S
C868 C856 1.349 . S
C868 H862 0.950 . S
C868 C869 1.327 . S
C869 H863 0.950 . S
C869 C868 1.327 . S
C869 C873 1.429 . S
C870 C853 1.574 . S
C870 H864 0.949 . S
C870 C874 1.368 1_565 S
C871 C852 1.429 . S
C871 C865 1.429 . S
C871 C872 1.523 . S
C872 C853 1.368 . S
C872 C866 1.368 1_565 S
C872 C871 1.523 . S
C873 C857 1.429 . S
C873 C869 1.429 . S
C873 C874 1.523 . S
C874 C858 1.368 . S
C874 C870 1.368 1_545 S
C874 C873 1.523 . S
H875 C850 0.950 . S
H876 C852 0.950 . S
H877 C853 0.949 . S
H878 C855 0.950 . S
H879 C857 0.950 . S
C880 C881 1.349 . S
C880 C882 1.327 . S
C880 H905 0.950 . S
C881 C880 1.349 . S
C881 C897 1.349 . S
C882 C880 1.327 . S
C882 C901 1.429 . S
C882 H906 0.950 . S
C883 C900 1.574 . S
C883 C902 1.368 . S
C883 H907 0.949 . S
H884 C888 0.949 . S
C885 C886 1.349 . S
C885 C887 1.327 . S
C885 H908 0.950 . S
C886 C885 1.349 . S
C886 C898 1.349 . S
C887 C885 1.327 . S
C887 C903 1.429 . S
C887 H909 0.950 . S
C888 H884 0.949 . S
C888 C896 1.574 . S
C888 C904 1.368 . S
H889 C897 0.950 . S
H890 C895 0.950 . S
H891 C896 0.949 . S
H892 C898 0.950 . S
H893 C899 0.950 . S
H894 C900 0.949 . S
C895 H890 0.950 . S
C895 C897 1.327 . S
C895 C901 1.429 . S
C896 C888 1.574 . S
C896 H891 0.949 . S
C896 C902 1.368 . S
C897 C881 1.349 . S
C897 H889 0.950 . S
C897 C895 1.327 . S
C898 C886 1.349 . S
C898 H892 0.950 . S
C898 C899 1.327 . S
C899 H893 0.950 . S
C899 C898 1.327 . S
C899 C903 1.429 . S
C900 C883 1.574 . S
C900 H894 0.949 . S
C900 C904 1.368 . S
C901 C882 1.429 . S
C901 C895 1.429 . S
C901 C902 1.523 . S
C902 C883 1.368 . S
C902 C896 1.368 . S
C902 C901 1.523 . S
C903 C887 1.429 . S
C903 C899 1.429 . S
C903 C904 1.523 1_554 S
C904 C888 1.368 . S
C904 C900 1.368 . S
C904 C903 1.523 1_556 S
H905 C880 0.950 . S
H906 C882 0.950 . S
H907 C883 0.949 . S
H908 C885 0.950 . S
H909 C887 0.950 . S
C910 C911 1.349 . S
C910 C912 1.327 . S
C910 H935 0.950 . S
C911 C910 1.349 . S
C911 C927 1.349 . S
C912 C910 1.327 . S
C912 C931 1.429 . S
C912 H936 0.950 . S
C913 C930 1.574 . S
C913 C932 1.368 . S
C913 H937 0.949 . S
H914 C918 0.949 . S
C915 C916 1.349 . S
C915 C917 1.327 . S
C915 H938 0.950 . S
C916 C915 1.349 . S
C916 C928 1.349 . S
C917 C915 1.327 . S
C917 C933 1.429 . S
C917 H939 0.950 . S
C918 H914 0.949 . S
C918 C926 1.574 . S
C918 C934 1.368 . S
H919 C927 0.950 . S
H920 C925 0.950 . S
H921 C926 0.949 . S
H922 C928 0.950 . S
H923 C929 0.950 . S
H924 C930 0.949 . S
C925 H920 0.950 . S
C925 C927 1.327 . S
C925 C931 1.429 . S
C926 C918 1.574 . S
C926 H921 0.949 . S
C926 C932 1.368 . S
C927 C911 1.349 . S
C927 H919 0.950 . S
C927 C925 1.327 . S
C928 C916 1.349 . S
C928 H922 0.950 . S
C928 C929 1.327 . S
C929 H923 0.950 . S
C929 C928 1.327 . S
C929 C933 1.429 . S
C930 C913 1.574 . S
C930 H924 0.949 . S
C930 C934 1.368 . S
C931 C912 1.429 . S
C931 C925 1.429 . S
C931 C932 1.523 . S
C932 C913 1.368 . S
C932 C926 1.368 . S
C932 C931 1.523 . S
C933 C917 1.429 . S
C933 C929 1.429 . S
C933 C934 1.523 . S
C934 C918 1.368 . S
C934 C930 1.368 . S
C934 C933 1.523 . S
H935 C910 0.950 . S
H936 C912 0.950 . S
H937 C913 0.949 . S
H938 C915 0.950 . S
H939 C917 0.950 . S
C940 C941 1.349 . S
C940 C942 1.327 . S
C940 H965 0.950 . S
C941 C940 1.349 . S
C941 C957 1.349 . S
C942 C940 1.327 . S
C942 C961 1.429 . S
C942 H966 0.950 . S
C943 C960 1.574 . S
C943 C962 1.368 . S
C943 H967 0.949 . S
H944 C948 0.949 . S
C945 C946 1.349 . S
C945 C947 1.327 . S
C945 H968 0.950 . S
C946 C945 1.349 . S
C946 C958 1.349 . S
C947 C945 1.327 . S
C947 C963 1.429 . S
C947 H969 0.950 . S
C948 H944 0.949 . S
C948 C956 1.574 . S
C948 C964 1.368 . S
H949 C957 0.950 . S
H950 C955 0.950 . S
H951 C956 0.949 . S
H952 C958 0.950 . S
H953 C959 0.950 . S
H954 C960 0.949 . S
C955 H950 0.950 . S
C955 C957 1.327 . S
C955 C961 1.429 . S
C956 C948 1.574 . S
C956 H951 0.949 . S
C956 C962 1.368 . S
C957 C941 1.349 . S
C957 H949 0.950 . S
C957 C955 1.327 . S
C958 C946 1.349 . S
C958 H952 0.950 . S
C958 C959 1.327 . S
C959 H953 0.950 . S
C959 C958 1.327 . S
C959 C963 1.429 . S
C960 C943 1.574 . S
C960 H954 0.949 . S
C960 C964 1.368 . S
C961 C942 1.429 . S
C961 C955 1.429 . S
C961 C962 1.523 . S
C962 C943 1.368 . S
C962 C956 1.368 . S
C962 C961 1.523 . S
C963 C947 1.429 . S
C963 C959 1.429 . S
C963 C964 1.523 . S
C964 C948 1.368 . S
C964 C960 1.368 . S
C964 C963 1.523 . S
H965 C940 0.950 . S
H966 C942 0.950 . S
H967 C943 0.949 . S
H968 C945 0.950 . S
H969 C947 0.950 . S
C970 C971 1.349 . S
C970 C972 1.327 . S
C970 H995 0.950 . S
C971 C970 1.349 . S
C971 C987 1.349 . S
C972 C970 1.327 . S
C972 C991 1.429 . S
C972 H996 0.950 . S
C973 C990 1.574 . S
C973 C992 1.368 . S
C973 H997 0.949 . S
H974 C978 0.949 . S
C975 C976 1.349 . S
C975 C977 1.327 . S
C975 H998 0.950 . S
C976 C975 1.349 . S
C976 C988 1.349 . S
C977 C975 1.327 . S
C977 C993 1.429 . S
C977 H999 0.950 . S
C978 H974 0.949 . S
C978 C986 1.574 . S
C978 C994 1.368 . S
H979 C987 0.950 . S
H980 C985 0.950 . S
H981 C986 0.949 . S
H982 C988 0.950 . S
H983 C989 0.950 . S
H984 C990 0.949 . S
C985 H980 0.950 . S
C985 C987 1.327 . S
C985 C991 1.429 . S
C986 C978 1.574 . S
C986 H981 0.949 . S
C986 C992 1.368 . S
C987 C971 1.349 . S
C987 H979 0.950 . S
C987 C985 1.327 . S
C988 C976 1.349 . S
C988 H982 0.950 . S
C988 C989 1.327 . S
C989 H983 0.950 . S
C989 C988 1.327 . S
C989 C993 1.429 . S
C990 C973 1.574 . S
C990 H984 0.949 . S
C990 C994 1.368 . S
C991 C972 1.429 . S
C991 C985 1.429 . S
C991 C992 1.523 . S
C992 C973 1.368 . S
C992 C986 1.368 . S
C992 C991 1.523 . S
C993 C977 1.429 . S
C993 C989 1.429 . S
C993 C994 1.523 . S
C994 C978 1.368 . S
C994 C990 1.368 . S
C994 C993 1.523 . S
H995 C970 0.950 . S
H996 C972 0.950 . S
H997 C973 0.949 . S
H998 C975 0.950 . S
H999 C977 0.950 . S
C1000 C1001 1.349 . S
C1000 C1002 1.327 . S
C1000 H1025 0.950 . S
C1001 C1000 1.349 . S
C1001 C1017 1.349 . S
C1002 C1000 1.327 . S
C1002 C1021 1.429 . S
C1002 H1026 0.950 . S
C1003 C1020 1.574 . S
C1003 C1022 1.368 . S
C1003 H1027 0.949 . S
H1004 C1008 0.949 . S
C1005 C1006 1.349 . S
C1005 C1007 1.327 . S
C1005 H1028 0.950 . S
C1006 C1005 1.349 . S
C1006 C1018 1.349 . S
C1007 C1005 1.327 . S
C1007 C1023 1.429 . S
C1007 H1029 0.950 . S
C1008 H1004 0.949 . S
C1008 C1016 1.574 . S
C1008 C1024 1.368 . S
H1009 C1017 0.950 . S
H1010 C1015 0.950 . S
H1011 C1016 0.949 . S
H1012 C1018 0.950 . S
H1013 C1019 1.000 . S
H1014 C1020 0.949 . S
C1015 H1010 0.950 . S
C1015 C1017 1.327 . S
C1015 C1021 1.429 . S
C1016 C1008 1.574 . S
C1016 H1011 0.949 . S
C1016 C1022 1.368 . S
C1017 C1001 1.349 . S
C1017 H1009 0.950 . S
C1017 C1015 1.327 . S
C1018 C1006 1.349 . S
C1018 H1012 0.950 . S
C1018 C1019 1.327 . S
C1019 H1013 1.000 . S
C1019 C1018 1.327 . S
C1019 C1023 1.429 . S
C1020 C1003 1.574 . S
C1020 H1014 0.949 . S
C1020 C1024 1.368 . S
C1021 C1002 1.429 . S
C1021 C1015 1.429 . S
C1021 C1022 1.523 . S
C1022 C1003 1.368 . S
C1022 C1016 1.368 . S
C1022 C1021 1.523 . S
C1023 C1007 1.429 . S
C1023 C1019 1.429 . S
C1023 C1024 1.523 1_556 S
C1024 C1008 1.368 . S
C1024 C1020 1.368 . S
C1024 C1023 1.523 1_554 S
H1025 C1000 0.950 . S
H1026 C1002 0.950 . S
H1027 C1003 0.949 . S
H1028 C1005 0.950 . S
H1029 C1007 0.950 . S
C1030 C1031 1.349 . S
C1030 C1032 1.327 . S
C1030 H1055 0.950 . S
C1031 C1030 1.349 . S
C1031 C1047 1.349 . S
C1032 C1030 1.327 . S
C1032 C1051 1.429 . S
C1032 H1056 0.950 . S
C1033 C1050 1.574 . S
C1033 C1052 1.368 . S
C1033 H1057 0.949 . S
H1034 C1038 0.949 . S
C1035 C1036 1.349 . S
C1035 C1037 1.327 . S
C1035 H1058 0.950 . S
C1036 C1035 1.349 . S
C1036 C1048 1.349 . S
C1037 C1035 1.327 . S
C1037 C1053 1.429 . S
C1037 H1059 0.950 . S
C1038 H1034 0.949 . S
C1038 C1046 1.574 . S
C1038 C1054 1.368 . S
H1039 C1047 0.950 . S
H1040 C1045 0.950 . S
H1041 C1046 0.949 . S
H1042 C1048 0.950 . S
H1043 C1049 0.950 . S
H1044 C1050 0.949 . S
C1045 H1040 0.950 . S
C1045 C1047 1.327 . S
C1045 C1051 1.429 . S
C1046 C1038 1.574 . S
C1046 H1041 0.949 . S
C1046 C1052 1.368 . S
C1047 C1031 1.349 . S
C1047 H1039 0.950 . S
C1047 C1045 1.327 . S
C1048 C1036 1.349 . S
C1048 H1042 0.950 . S
C1048 C1049 1.327 . S
C1049 H1043 0.950 . S
C1049 C1048 1.327 . S
C1049 C1053 1.429 . S
C1050 C1033 1.574 . S
C1050 H1044 0.949 . S
C1050 C1054 1.368 . S
C1051 C1032 1.429 . S
C1051 C1045 1.429 . S
C1051 C1052 1.523 . S
C1052 C1033 1.368 . S
C1052 C1046 1.368 . S
C1052 C1051 1.523 . S
C1053 C1037 1.429 . S
C1053 C1049 1.429 . S
C1053 C1054 1.523 . S
C1054 C1038 1.368 . S
C1054 C1050 1.368 . S
C1054 C1053 1.523 . S
H1055 C1030 0.950 . S
H1056 C1032 0.950 . S
H1057 C1033 0.949 . S
H1058 C1035 0.950 . S
H1059 C1037 0.950 . S
C1060 C1061 1.349 . S
C1060 C1062 1.327 . S
C1060 H1085 0.950 . S
C1061 C1060 1.349 . S
C1061 C1077 1.349 . S
C1062 C1060 1.327 . S
C1062 C1081 1.429 . S
C1062 H1086 0.950 . S
C1063 C1080 1.574 . S
C1063 C1082 1.368 . S
C1063 H1087 0.949 . S
H1064 C1068 0.949 . S
C1065 C1066 1.349 . S
C1065 C1067 1.327 . S
C1065 H1088 0.950 . S
C1066 C1065 1.349 . S
C1066 C1078 1.349 . S
C1067 C1065 1.327 . S
C1067 C1083 1.429 . S
C1067 H1089 0.950 . S
C1068 H1064 0.949 . S
C1068 C1076 1.574 . S
C1068 C1084 1.368 . S
H1069 C1077 0.950 . S
H1070 C1075 0.950 . S
H1071 C1076 0.949 . S
H1072 C1078 0.950 . S
H1073 C1079 0.950 . S
H1074 C1080 0.949 . S
C1075 H1070 0.950 . S
C1075 C1077 1.327 . S
C1075 C1081 1.429 . S
C1076 C1068 1.574 . S
C1076 H1071 0.949 . S
C1076 C1082 1.368 . S
C1077 C1061 1.349 . S
C1077 H1069 0.950 . S
C1077 C1075 1.327 . S
C1078 C1066 1.349 . S
C1078 H1072 0.950 . S
C1078 C1079 1.327 . S
C1079 H1073 0.950 . S
C1079 C1078 1.327 . S
C1079 C1083 1.429 . S
C1080 C1063 1.574 . S
C1080 H1074 0.949 . S
C1080 C1084 1.368 . S
C1081 C1062 1.429 . S
C1081 C1075 1.429 . S
C1081 C1082 1.523 . S
C1082 C1063 1.368 . S
C1082 C1076 1.368 . S
C1082 C1081 1.523 . S
C1083 C1067 1.429 . S
C1083 C1079 1.429 . S
C1083 C1084 1.523 . S
C1084 C1068 1.368 . S
C1084 C1080 1.368 . S
C1084 C1083 1.523 . S
H1085 C1060 0.950 . S
H1086 C1062 0.950 . S
H1087 C1063 0.949 . S
H1088 C1065 0.950 . S
H1089 C1067 0.950 . S
C1090 C1091 1.349 . S
C1090 C1092 1.327 . S
C1090 H1115 0.950 . S
C1091 C1090 1.349 . S
C1091 C1107 1.349 . S
C1092 C1090 1.327 . S
C1092 C1111 1.429 . S
C1092 H1116 0.950 . S
C1093 C1110 1.574 . S
C1093 C1112 1.368 . S
C1093 H1117 0.949 . S
H1094 C1098 0.949 . S
C1095 C1096 1.349 . S
C1095 C1097 1.327 . S
C1095 H1118 0.950 . S
C1096 C1095 1.349 . S
C1096 C1108 1.349 . S
C1097 C1095 1.327 . S
C1097 C1113 1.429 . S
C1097 H1119 0.950 . S
C1098 H1094 0.949 . S
C1098 C1106 1.574 . S
C1098 C1114 1.368 . S
H1099 C1107 0.950 . S
H1100 C1105 0.950 . S
H1101 C1106 0.949 . S
H1102 C1108 0.950 . S
H1103 C1109 0.950 . S
H1104 C1110 0.949 . S
C1105 H1100 0.950 . S
C1105 C1107 1.327 . S
C1105 C1111 1.429 . S
C1106 C1098 1.574 . S
C1106 H1101 0.949 . S
C1106 C1112 1.368 . S
C1107 C1091 1.349 . S
C1107 H1099 0.950 . S
C1107 C1105 1.327 . S
C1108 C1096 1.349 . S
C1108 H1102 0.950 . S
C1108 C1109 1.327 . S
C1109 H1103 0.950 . S
C1109 C1108 1.327 . S
C1109 C1113 1.429 . S
C1110 C1093 1.574 . S
C1110 H1104 0.949 . S
C1110 C1114 1.368 . S
C1111 C1092 1.429 . S
C1111 C1105 1.429 . S
C1111 C1112 1.523 . S
C1112 C1093 1.368 . S
C1112 C1106 1.368 . S
C1112 C1111 1.523 . S
C1113 C1097 1.429 . S
C1113 C1109 1.429 . S
C1113 C1114 1.523 . S
C1114 C1098 1.368 . S
C1114 C1110 1.368 . S
C1114 C1113 1.523 . S
H1115 C1090 0.950 . S
H1116 C1092 0.950 . S
H1117 C1093 0.949 . S
H1118 C1095 0.950 . S
H1119 C1097 0.950 . S
C1120 C1121 1.349 . S
C1120 C1122 1.327 . S
C1120 H1145 0.950 . S
C1121 C1120 1.349 . S
C1121 C1137 1.349 . S
C1122 C1120 1.327 . S
C1122 C1141 1.429 . S
C1122 H1146 0.950 . S
C1123 C1140 1.574 . S
C1123 C1142 1.368 . S
C1123 H1147 0.949 . S
H1124 C1128 0.949 . S
C1125 C1126 1.349 . S
C1125 C1127 1.327 . S
C1125 H1148 0.950 . S
C1126 C1125 1.349 . S
C1126 C1138 1.349 . S
C1127 C1125 1.327 . S
C1127 C1143 1.429 . S
C1127 H1149 0.950 . S
C1128 H1124 0.949 . S
C1128 C1136 1.574 . S
C1128 C1144 1.368 . S
H1129 C1137 0.950 . S
H1130 C1135 0.950 . S
H1131 C1136 0.949 . S
H1132 C1138 0.950 . S
H1133 C1139 0.950 . S
H1134 C1140 0.949 . S
C1135 H1130 0.950 . S
C1135 C1137 1.327 . S
C1135 C1141 1.429 . S
C1136 C1128 1.574 . S
C1136 H1131 0.949 . S
C1136 C1142 1.368 . S
C1137 C1121 1.349 . S
C1137 H1129 0.950 . S
C1137 C1135 1.327 . S
C1138 C1126 1.349 . S
C1138 H1132 0.950 . S
C1138 C1139 1.327 . S
C1139 H1133 0.950 . S
C1139 C1138 1.327 . S
C1139 C1143 1.429 . S
C1140 C1123 1.574 . S
C1140 H1134 0.949 . S
C1140 C1144 1.368 . S
C1141 C1122 1.429 . S
C1141 C1135 1.429 . S
C1141 C1142 1.523 . S
C1142 C1123 1.368 . S
C1142 C1136 1.368 . S
C1142 C1141 1.523 . S
C1143 C1127 1.429 . S
C1143 C1139 1.429 . S
C1143 C1144 1.523 . S
C1144 C1128 1.368 . S
C1144 C1140 1.368 . S
C1144 C1143 1.523 . S
H1145 C1120 0.950 . S
H1146 C1122 0.950 . S
H1147 C1123 0.949 . S
H1148 C1125 0.950 . S
H1149 C1127 0.950 . S
C1150 C1151 1.361 . S
C1150 C1152 1.334 . S
C1150 H1175 0.930 1_565 S
C1151 C1150 1.361 . S
C1151 C1167 1.349 . S
C1152 C1150 1.334 . S
C1152 C1171 1.429 . S
C1152 H1176 0.950 1_565 S
C1153 C1170 1.574 . S
C1153 C1172 1.368 . S
C1153 H1177 0.949 . S
H1154 C1158 0.949 . S
C1155 C1156 1.349 . S
C1155 C1157 1.327 . S
C1155 H1178 0.950 . S
C1156 C1155 1.349 . S
C1156 C1168 1.349 . S
C1157 C1155 1.327 . S
C1157 C1173 1.429 . S
C1157 H1179 0.950 . S
C1158 H1154 0.949 . S
C1158 C1166 1.574 . S
C1158 C1174 1.368 . S
H1159 C1167 0.950 . S
H1160 C1165 0.950 . S
H1161 C1166 0.949 . S
H1162 C1168 0.950 . S
H1163 C1169 0.950 . S
H1164 C1170 0.949 . S
C1165 H1160 0.950 . S
C1165 C1167 1.327 . S
C1165 C1171 1.429 . S
C1166 C1158 1.574 . S
C1166 H1161 0.949 . S
C1166 C1172 1.368 . S
C1167 C1151 1.349 . S
C1167 H1159 0.950 . S
C1167 C1165 1.327 . S
C1168 C1156 1.349 . S
C1168 H1162 0.950 . S
C1168 C1169 1.327 . S
C1169 H1163 0.950 . S
C1169 C1168 1.327 . S
C1169 C1173 1.429 . S
C1170 C1153 1.574 . S
C1170 H1164 0.949 . S
C1170 C1174 1.368 . S
C1171 C1152 1.429 . S
C1171 C1165 1.429 . S
C1171 C1172 1.523 . S
C1172 C1153 1.368 . S
C1172 C1166 1.368 . S
C1172 C1171 1.523 . S
C1173 C1157 1.429 . S
C1173 C1169 1.429 . S
C1173 C1174 1.523 . S
C1174 C1158 1.368 . S
C1174 C1170 1.368 . S
C1174 C1173 1.523 . S
H1175 C1150 0.930 1_545 S
H1176 C1152 0.950 1_545 S
H1177 C1153 0.949 . S
H1178 C1155 0.950 . S
H1179 C1157 0.950 . S
C1180 C1181 1.349 . S
C1180 C1182 1.327 . S
C1180 H1205 0.950 . S
C1181 C1180 1.349 . S
C1181 C1197 1.349 . S
C1182 C1180 1.327 . S
C1182 C1201 1.429 . S
C1182 H1206 0.950 . S
C1183 C1200 1.574 . S
C1183 C1202 1.368 . S
C1183 H1207 0.949 . S
H1184 C1188 0.949 . S
C1185 C1186 1.349 . S
C1185 C1187 1.327 . S
C1185 H1208 0.950 . S
C1186 C1185 1.349 . S
C1186 C1198 1.349 . S
C1187 C1185 1.327 . S
C1187 C1203 1.429 . S
C1187 H1209 0.950 . S
C1188 H1184 0.949 . S
C1188 C1196 1.574 . S
C1188 C1204 1.368 . S
H1189 C1197 0.950 . S
H1190 C1195 0.950 . S
H1191 C1196 0.949 . S
H1192 C1198 0.950 . S
H1193 C1199 0.950 . S
H1194 C1200 0.949 . S
C1195 H1190 0.950 . S
C1195 C1197 1.327 . S
C1195 C1201 1.429 . S
C1196 C1188 1.574 . S
C1196 H1191 0.949 . S
C1196 C1202 1.368 . S
C1197 C1181 1.349 . S
C1197 H1189 0.950 . S
C1197 C1195 1.327 . S
C1198 C1186 1.349 . S
C1198 H1192 0.950 . S
C1198 C1199 1.327 . S
C1199 H1193 0.950 . S
C1199 C1198 1.327 . S
C1199 C1203 1.429 . S
C1200 C1183 1.574 . S
C1200 H1194 0.949 . S
C1200 C1204 1.368 . S
C1201 C1182 1.429 . S
C1201 C1195 1.429 . S
C1201 C1202 1.523 1_554 S
C1202 C1183 1.368 . S
C1202 C1196 1.368 . S
C1202 C1201 1.523 1_556 S
C1203 C1187 1.429 . S
C1203 C1199 1.429 . S
C1203 C1204 1.523 . S
C1204 C1188 1.368 . S
C1204 C1200 1.368 . S
C1204 C1203 1.523 . S
H1205 C1180 0.950 . S
H1206 C1182 0.950 . S
H1207 C1183 0.949 . S
H1208 C1185 0.950 . S
H1209 C1187 0.950 . S
C1210 C1211 1.349 . S
C1210 C1212 1.327 . S
C1210 H1235 0.950 . S
C1211 C1210 1.349 . S
C1211 C1227 1.349 . S
C1212 C1210 1.327 . S
C1212 C1231 1.429 . S
C1212 H1236 0.950 . S
C1213 C1230 1.574 . S
C1213 C1232 1.368 . S
C1213 H1237 0.949 . S
H1214 C1218 0.949 . S
C1215 C1216 1.349 1_565 S
C1215 C1217 1.327 1_565 S
C1215 H1238 0.950 . S
C1216 C1215 1.349 1_545 S
C1216 C1228 1.349 . S
C1217 C1215 1.327 1_545 S
C1217 C1233 1.429 . S
C1217 H1239 0.950 1_545 S
C1218 H1214 0.949 . S
C1218 C1226 1.574 . S
C1218 C1234 1.368 . S
H1219 C1227 0.950 . S
H1220 C1225 0.950 . S
H1221 C1226 0.949 . S
H1222 C1228 0.950 . S
H1223 C1229 0.950 . S
H1224 C1230 0.949 . S
C1225 H1220 0.950 . S
C1225 C1227 1.327 . S
C1225 C1231 1.429 . S
C1226 C1218 1.574 . S
C1226 H1221 0.949 . S
C1226 C1232 1.368 . S
C1227 C1211 1.349 . S
C1227 H1219 0.950 . S
C1227 C1225 1.327 . S
C1228 C1216 1.349 . S
C1228 H1222 0.950 . S
C1228 C1229 1.327 . S
C1229 H1223 0.950 . S
C1229 C1228 1.327 . S
C1229 C1233 1.429 . S
C1230 C1213 1.574 . S
C1230 H1224 0.949 . S
C1230 C1234 1.368 . S
C1231 C1212 1.429 . S
C1231 C1225 1.429 . S
C1231 C1232 1.523 . S
C1232 C1213 1.368 . S
C1232 C1226 1.368 . S
C1232 C1231 1.523 . S
C1233 C1217 1.429 . S
C1233 C1229 1.429 . S
C1233 C1234 1.523 . S
C1234 C1218 1.368 . S
C1234 C1230 1.368 . S
C1234 C1233 1.523 . S
H1235 C1210 0.950 . S
H1236 C1212 0.950 . S
H1237 C1213 0.949 . S
H1238 C1215 0.950 . S
H1239 C1217 0.950 1_565 S
C1240 C1241 1.349 . S
C1240 C1242 1.327 . S
C1240 H1265 0.950 . S
C1241 C1240 1.349 . S
C1241 C1257 1.349 . S
C1242 C1240 1.327 . S
C1242 C1261 1.429 . S
C1242 H1266 0.950 . S
C1243 C1260 1.574 . S
C1243 C1262 1.368 . S
C1243 H1267 0.949 . S
H1244 C1248 0.949 . S
C1245 C1246 1.349 . S
C1245 C1247 1.327 . S
C1245 H1268 0.950 . S
C1246 C1245 1.349 . S
C1246 C1258 1.349 . S
C1247 C1245 1.327 . S
C1247 C1263 1.429 . S
C1247 H1269 0.950 . S
C1248 H1244 0.949 . S
C1248 C1256 1.574 . S
C1248 C1264 1.368 . S
H1249 C1257 0.950 . S
H1250 C1255 0.950 . S
H1251 C1256 0.949 . S
H1252 C1258 0.950 . S
H1253 C1259 0.950 . S
H1254 C1260 0.949 . S
C1255 H1250 0.950 . S
C1255 C1257 1.327 . S
C1255 C1261 1.429 . S
C1256 C1248 1.574 . S
C1256 H1251 0.949 . S
C1256 C1262 1.368 . S
C1257 C1241 1.349 . S
C1257 H1249 0.950 . S
C1257 C1255 1.327 . S
C1258 C1246 1.349 . S
C1258 H1252 0.950 . S
C1258 C1259 1.327 . S
C1259 H1253 0.950 . S
C1259 C1258 1.327 . S
C1259 C1263 1.429 . S
C1260 C1243 1.574 . S
C1260 H1254 0.949 . S
C1260 C1264 1.368 . S
C1261 C1242 1.429 . S
C1261 C1255 1.429 . S
C1261 C1262 1.523 . S
C1262 C1243 1.368 . S
C1262 C1256 1.368 . S
C1262 C1261 1.523 . S
C1263 C1247 1.429 . S
C1263 C1259 1.429 . S
C1263 C1264 1.523 . S
C1264 C1248 1.368 . S
C1264 C1260 1.368 . S
C1264 C1263 1.523 . S
H1265 C1240 0.950 . S
H1266 C1242 0.950 . S
H1267 C1243 0.949 . S
H1268 C1245 0.950 . S
H1269 C1247 0.950 . S
C1270 C1271 1.349 . S
C1270 C1272 1.327 . S
C1270 H1295 0.950 . S
C1271 C1270 1.349 . S
C1271 C1287 1.349 1_545 S
C1272 C1270 1.327 . S
C1272 C1291 1.429 . S
C1272 H1296 0.950 . S
C1273 C1290 1.574 . S
C1273 C1292 1.368 . S
C1273 H1297 0.949 . S
H1274 C1278 0.949 . S
C1275 C1276 1.349 . S
C1275 C1277 1.327 . S
C1275 H1298 0.950 . S
C1276 C1275 1.349 . S
C1276 C1288 1.349 . S
C1277 C1275 1.327 . S
C1277 C1293 1.429 . S
C1277 H1299 0.950 . S
C1278 H1274 0.949 . S
C1278 C1286 1.574 . S
C1278 C1294 1.368 . S
H1279 C1287 0.950 . S
H1280 C1285 0.950 1_565 S
H1281 C1286 0.949 . S
H1282 C1288 0.950 . S
H1283 C1289 0.950 . S
H1284 C1290 0.949 . S
C1285 H1280 0.950 1_545 S
C1285 C1287 1.327 1_545 S
C1285 C1291 1.429 . S
C1286 C1278 1.574 . S
C1286 H1281 0.949 . S
C1286 C1292 1.368 . S
C1287 C1271 1.349 1_565 S
C1287 H1279 0.950 . S
C1287 C1285 1.327 1_565 S
C1288 C1276 1.349 . S
C1288 H1282 0.950 . S
C1288 C1289 1.327 . S
C1289 H1283 0.950 . S
C1289 C1288 1.327 . S
C1289 C1293 1.429 . S
C1290 C1273 1.574 . S
C1290 H1284 0.949 . S
C1290 C1294 1.368 . S
C1291 C1272 1.429 . S
C1291 C1285 1.429 . S
C1291 C1292 1.523 . S
C1292 C1273 1.368 . S
C1292 C1286 1.368 . S
C1292 C1291 1.523 . S
C1293 C1277 1.429 . S
C1293 C1289 1.429 . S
C1293 C1294 1.523 . S
C1294 C1278 1.368 . S
C1294 C1290 1.368 . S
C1294 C1293 1.523 . S
H1295 C1270 0.950 . S
H1296 C1272 0.950 . S
H1297 C1273 0.949 . S
H1298 C1275 0.950 . S
H1299 C1277 0.950 . S
C1300 C1301 1.349 . S
C1300 C1302 1.327 . S
C1300 H1325 0.950 . S
C1301 C1300 1.349 . S
C1301 C1317 1.349 . S
C1302 C1300 1.327 . S
C1302 C1321 1.429 . S
C1302 H1326 0.950 . S
C1303 C1320 1.574 . S
C1303 C1322 1.368 . S
C1303 H1327 0.949 . S
H1304 C1308 0.949 . S
C1305 C1306 1.349 . S
C1305 C1307 1.327 . S
C1305 H1328 0.950 . S
C1306 C1305 1.349 . S
C1306 C1318 1.349 . S
C1307 C1305 1.327 . S
C1307 C1323 1.429 . S
C1307 H1329 1.001 . S
C1308 H1304 0.949 . S
C1308 C1316 1.574 . S
C1308 C1324 1.368 . S
H1309 C1317 0.950 . S
H1310 C1315 0.950 . S
H1311 C1316 0.949 . S
H1312 C1318 0.950 . S
H1313 C1319 0.950 . S
H1314 C1320 0.949 . S
C1315 H1310 0.950 . S
C1315 C1317 1.327 . S
C1315 C1321 1.429 . S
C1316 C1308 1.574 . S
C1316 H1311 0.949 . S
C1316 C1322 1.368 . S
C1317 C1301 1.349 . S
C1317 H1309 0.950 . S
C1317 C1315 1.327 . S
C1318 C1306 1.349 . S
C1318 H1312 0.950 . S
C1318 C1319 1.327 . S
C1319 H1313 0.950 . S
C1319 C1318 1.327 . S
C1319 C1323 1.429 . S
C1320 C1303 1.574 . S
C1320 H1314 0.949 . S
C1320 C1324 1.368 . S
C1321 C1302 1.429 . S
C1321 C1315 1.429 . S
C1321 C1322 1.523 . S
C1322 C1303 1.368 . S
C1322 C1316 1.368 . S
C1322 C1321 1.523 . S
C1323 C1307 1.429 . S
C1323 C1319 1.429 . S
C1323 C1324 1.523 1_556 S
C1324 C1308 1.368 . S
C1324 C1320 1.368 . S
C1324 C1323 1.523 1_554 S
H1325 C1300 0.950 . S
H1326 C1302 0.950 . S
H1327 C1303 0.949 . S
H1328 C1305 0.950 . S
H1329 C1307 1.001 . S
C1330 C1331 1.349 . S
C1330 C1332 1.327 . S
C1330 H1355 0.950 . S
C1331 C1330 1.349 . S
C1331 C1347 1.362 . S
C1332 C1330 1.327 . S
C1332 C1351 1.429 . S
C1332 H1356 0.950 . S
C1333 C1350 1.574 . S
C1333 C1352 1.368 . S
C1333 H1357 0.949 . S
H1334 C1338 0.949 . S
C1335 C1336 1.349 . S
C1335 C1337 1.327 . S
C1335 H1358 0.950 . S
C1336 C1335 1.349 . S
C1336 C1348 1.349 . S
C1337 C1335 1.327 . S
C1337 C1353 1.429 . S
C1337 H1359 0.950 . S
C1338 H1334 0.949 . S
C1338 C1346 1.574 . S
C1338 C1354 1.368 . S
H1339 C1347 0.929 1_545 S
H1340 C1345 0.950 1_545 S
H1341 C1346 0.949 . S
H1342 C1348 0.950 . S
H1343 C1349 0.950 . S
H1344 C1350 0.949 . S
C1345 H1340 0.950 1_565 S
C1345 C1347 1.334 . S
C1345 C1351 1.429 . S
C1346 C1338 1.574 . S
C1346 H1341 0.949 . S
C1346 C1352 1.368 . S
C1347 C1331 1.362 . S
C1347 H1339 0.929 1_565 S
C1347 C1345 1.334 . S
C1348 C1336 1.349 . S
C1348 H1342 0.950 . S
C1348 C1349 1.327 . S
C1349 H1343 0.950 . S
C1349 C1348 1.327 . S
C1349 C1353 1.429 . S
C1350 C1333 1.574 . S
C1350 H1344 0.949 . S
C1350 C1354 1.368 . S
C1351 C1332 1.429 . S
C1351 C1345 1.429 . S
C1351 C1352 1.523 . S
C1352 C1333 1.368 . S
C1352 C1346 1.368 . S
C1352 C1351 1.523 . S
C1353 C1337 1.429 . S
C1353 C1349 1.429 . S
C1353 C1354 1.523 . S
C1354 C1338 1.368 . S
C1354 C1350 1.368 . S
C1354 C1353 1.523 . S
H1355 C1330 0.950 . S
H1356 C1332 0.950 . S
H1357 C1333 0.949 . S
H1358 C1335 0.950 . S
H1359 C1337 0.950 . S
C1360 C1361 1.349 . S
C1360 C1362 1.327 . S
C1360 H1385 0.950 . S
C1361 C1360 1.349 . S
C1361 C1377 1.349 . S
C1362 C1360 1.327 . S
C1362 C1381 1.429 . S
C1362 H1386 0.950 . S
C1363 C1380 1.574 . S
C1363 C1382 1.368 . S
C1363 H1387 0.949 . S
H1364 C1368 0.949 . S
C1365 C1366 1.349 . S
C1365 C1367 1.327 . S
C1365 H1388 0.950 . S
C1366 C1365 1.349 . S
C1366 C1378 1.349 . S
C1367 C1365 1.327 . S
C1367 C1383 1.429 . S
C1367 H1389 0.950 . S
C1368 H1364 0.949 . S
C1368 C1376 1.574 . S
C1368 C1384 1.368 . S
H1369 C1377 0.950 . S
H1370 C1375 0.950 . S
H1371 C1376 0.949 . S
H1372 C1378 0.950 . S
H1373 C1379 0.950 . S
H1374 C1380 0.949 . S
C1375 H1370 0.950 . S
C1375 C1377 1.327 . S
C1375 C1381 1.429 . S
C1376 C1368 1.574 . S
C1376 H1371 0.949 . S
C1376 C1382 1.368 . S
C1377 C1361 1.349 . S
C1377 H1369 0.950 . S
C1377 C1375 1.327 . S
C1378 C1366 1.349 . S
C1378 H1372 0.950 . S
C1378 C1379 1.327 . S
C1379 H1373 0.950 . S
C1379 C1378 1.327 . S
C1379 C1383 1.429 . S
C1380 C1363 1.574 . S
C1380 H1374 0.949 . S
C1380 C1384 1.368 . S
C1381 C1362 1.429 . S
C1381 C1375 1.429 . S
C1381 C1382 1.523 . S
C1382 C1363 1.368 . S
C1382 C1376 1.368 . S
C1382 C1381 1.523 . S
C1383 C1367 1.429 . S
C1383 C1379 1.429 . S
C1383 C1384 1.523 . S
C1384 C1368 1.368 . S
C1384 C1380 1.368 . S
C1384 C1383 1.523 . S
H1385 C1360 0.950 . S
H1386 C1362 0.950 . S
H1387 C1363 0.949 . S
H1388 C1365 0.950 . S
H1389 C1367 0.950 . S
C1390 C1391 1.349 . S
C1390 C1392 1.327 . S
C1390 H1415 0.950 . S
C1391 C1390 1.349 . S
C1391 C1407 1.349 . S
C1392 C1390 1.327 . S
C1392 C1411 1.429 . S
C1392 H1416 0.950 . S
C1393 C1410 1.574 . S
C1393 C1412 1.368 . S
C1393 H1417 0.949 . S
H1394 C1398 0.949 . S
C1395 C1396 1.349 . S
C1395 C1397 1.327 . S
C1395 H1418 0.950 . S
C1396 C1395 1.349 . S
C1396 C1408 1.349 . S
C1397 C1395 1.327 . S
C1397 C1413 1.429 . S
C1397 H1419 0.950 . S
C1398 H1394 0.949 . S
C1398 C1406 1.574 . S
C1398 C1414 1.368 . S
H1399 C1407 0.950 . S
H1400 C1405 0.950 . S
H1401 C1406 0.949 . S
H1402 C1408 0.950 . S
H1403 C1409 0.950 . S
H1404 C1410 0.949 . S
C1405 H1400 0.950 . S
C1405 C1407 1.327 . S
C1405 C1411 1.429 . S
C1406 C1398 1.574 . S
C1406 H1401 0.949 . S
C1406 C1412 1.368 . S
C1407 C1391 1.349 . S
C1407 H1399 0.950 . S
C1407 C1405 1.327 . S
C1408 C1396 1.349 . S
C1408 H1402 0.950 . S
C1408 C1409 1.327 . S
C1409 H1403 0.950 . S
C1409 C1408 1.327 . S
C1409 C1413 1.429 . S
C1410 C1393 1.574 . S
C1410 H1404 0.949 . S
C1410 C1414 1.368 . S
C1411 C1392 1.429 . S
C1411 C1405 1.429 . S
C1411 C1412 1.523 . S
C1412 C1393 1.368 . S
C1412 C1406 1.368 . S
C1412 C1411 1.523 . S
C1413 C1397 1.429 . S
C1413 C1409 1.429 . S
C1413 C1414 1.523 . S
C1414 C1398 1.368 . S
C1414 C1410 1.368 . S
C1414 C1413 1.523 . S
H1415 C1390 0.950 . S
H1416 C1392 0.950 . S
H1417 C1393 0.949 . S
H1418 C1395 0.950 . S
H1419 C1397 0.950 . S
C1420 C1421 1.349 . S
C1420 C1422 1.327 . S
C1420 H1445 0.950 . S
C1421 C1420 1.349 . S
C1421 C1437 1.349 . S
C1422 C1420 1.327 . S
C1422 C1441 1.429 . S
C1422 H1446 0.950 . S
C1423 C1440 1.574 1_655 S
C1423 C1442 1.368 . S
C1423 H1447 0.949 . S
H1424 C1428 0.949 . S
C1425 C1426 1.349 . S
C1425 C1427 1.327 . S
C1425 H1448 0.950 . S
C1426 C1425 1.349 . S
C1426 C1438 1.349 . S
C1427 C1425 1.327 . S
C1427 C1443 1.429 . S
C1427 H1449 0.950 . S
C1428 H1424 0.949 . S
C1428 C1436 1.574 1_455 S
C1428 C1444 1.368 . S
H1429 C1437 0.950 . S
H1430 C1435 0.950 . S
H1431 C1436 0.949 . S
H1432 C1438 0.950 . S
H1433 C1439 0.950 . S
H1434 C1440 0.949 . S
C1435 H1430 0.950 . S
C1435 C1437 1.327 . S
C1435 C1441 1.429 . S
C1436 C1428 1.574 1_655 S
C1436 H1431 0.949 . S
C1436 C1442 1.368 . S
C1437 C1421 1.349 . S
C1437 H1429 0.950 . S
C1437 C1435 1.327 . S
C1438 C1426 1.349 . S
C1438 H1432 0.950 . S
C1438 C1439 1.327 . S
C1439 H1433 0.950 . S
C1439 C1438 1.327 . S
C1439 C1443 1.429 . S
C1440 C1423 1.574 1_455 S
C1440 H1434 0.949 . S
C1440 C1444 1.368 . S
C1441 C1422 1.429 . S
C1441 C1435 1.429 . S
C1441 C1442 1.523 . S
C1442 C1423 1.368 . S
C1442 C1436 1.368 . S
C1442 C1441 1.523 . S
C1443 C1427 1.429 . S
C1443 C1439 1.429 . S
C1443 C1444 1.523 . S
C1444 C1428 1.368 . S
C1444 C1440 1.368 . S
C1444 C1443 1.523 . S
H1445 C1420 0.950 . S
H1446 C1422 0.950 . S
H1447 C1423 0.949 . S
H1448 C1425 0.950 . S
H1449 C1427 0.950 . S
C1450 C1451 1.349 . S
C1450 C1452 1.327 . S
C1450 H1475 0.950 . S
C1451 C1450 1.349 . S
C1451 C1467 1.349 . S
C1452 C1450 1.327 . S
C1452 C1471 1.429 . S
C1452 H1476 0.950 . S
C1453 C1470 1.574 . S
C1453 C1472 1.368 . S
C1453 H1477 0.949 . S
H1454 C1458 0.949 . S
C1455 C1456 1.349 . S
C1455 C1457 1.327 . S
C1455 H1478 0.950 . S
C1456 C1455 1.349 . S
C1456 C1468 1.349 . S
C1457 C1455 1.327 . S
C1457 C1473 1.429 . S
C1457 H1479 0.950 . S
C1458 H1454 0.949 . S
C1458 C1466 1.574 . S
C1458 C1474 1.368 . S
H1459 C1467 0.950 . S
H1460 C1465 0.950 . S
H1461 C1466 0.949 . S
H1462 C1468 0.950 . S
H1463 C1469 0.950 . S
H1464 C1470 0.949 . S
C1465 H1460 0.950 . S
C1465 C1467 1.327 . S
C1465 C1471 1.429 . S
C1466 C1458 1.574 . S
C1466 H1461 0.949 . S
C1466 C1472 1.368 1_455 S
C1467 C1451 1.349 . S
C1467 H1459 0.950 . S
C1467 C1465 1.327 . S
C1468 C1456 1.349 . S
C1468 H1462 0.950 . S
C1468 C1469 1.327 . S
C1469 H1463 0.950 . S
C1469 C1468 1.327 . S
C1469 C1473 1.429 . S
C1470 C1453 1.574 . S
C1470 H1464 0.949 . S
C1470 C1474 1.368 1_655 S
C1471 C1452 1.429 . S
C1471 C1465 1.429 . S
C1471 C1472 1.523 . S
C1472 C1453 1.368 . S
C1472 C1466 1.368 1_655 S
C1472 C1471 1.523 . S
C1473 C1457 1.429 . S
C1473 C1469 1.429 . S
C1473 C1474 1.523 . S
C1474 C1458 1.368 . S
C1474 C1470 1.368 1_455 S
C1474 C1473 1.523 . S
H1475 C1450 0.950 . S
H1476 C1452 0.950 . S
H1477 C1453 0.949 . S
H1478 C1455 0.950 . S
H1479 C1457 0.950 . S
C1480 C1481 1.349 . S
C1480 C1482 1.327 . S
C1480 H1505 0.950 . S
C1481 C1480 1.349 . S
C1481 C1497 1.349 . S
C1482 C1480 1.327 . S
C1482 C1501 1.429 . S
C1482 H1506 0.950 . S
C1483 C1500 1.574 . S
C1483 C1502 1.368 . S
C1483 H1507 0.949 . S
H1484 C1488 0.949 . S
C1485 C1486 1.349 . S
C1485 C1487 1.327 . S
C1485 H1508 0.950 . S
C1486 C1485 1.349 . S
C1486 C1498 1.349 . S
C1487 C1485 1.327 . S
C1487 C1503 1.429 . S
C1487 H1509 0.950 . S
C1488 H1484 0.949 . S
C1488 C1496 1.574 . S
C1488 C1504 1.368 . S
H1489 C1497 0.950 . S
H1490 C1495 0.950 . S
H1491 C1496 0.949 . S
H1492 C1498 0.950 . S
H1493 C1499 0.950 . S
H1494 C1500 0.949 . S
C1495 H1490 0.950 . S
C1495 C1497 1.327 . S
C1495 C1501 1.429 . S
C1496 C1488 1.574 . S
C1496 H1491 0.949 . S
C1496 C1502 1.368 . S
C1497 C1481 1.349 . S
C1497 H1489 0.950 . S
C1497 C1495 1.327 . S
C1498 C1486 1.349 . S
C1498 H1492 0.950 . S
C1498 C1499 1.327 . S
C1499 H1493 0.950 . S
C1499 C1498 1.327 . S
C1499 C1503 1.429 . S
C1500 C1483 1.574 . S
C1500 H1494 0.949 . S
C1500 C1504 1.368 . S
C1501 C1482 1.429 . S
C1501 C1495 1.429 . S
C1501 C1502 1.523 . S
C1502 C1483 1.368 . S
C1502 C1496 1.368 . S
C1502 C1501 1.523 . S
C1503 C1487 1.429 . S
C1503 C1499 1.429 . S
C1503 C1504 1.523 . S
C1504 C1488 1.368 . S
C1504 C1500 1.368 . S
C1504 C1503 1.523 . S
H1505 C1480 0.950 . S
H1506 C1482 0.950 . S
H1507 C1483 0.949 . S
H1508 C1485 0.950 . S
H1509 C1487 0.950 . S
C1510 C1511 1.349 . S
C1510 C1512 1.327 . S
C1510 H1535 0.950 . S
C1511 C1510 1.349 . S
C1511 C1527 1.349 . S
C1512 C1510 1.327 . S
C1512 C1531 1.429 . S
C1512 H1536 0.950 . S
C1513 C1530 1.574 . S
C1513 C1532 1.368 . S
C1513 H1537 0.949 . S
H1514 C1518 0.949 . S
C1515 C1516 1.349 . S
C1515 C1517 1.327 . S
C1515 H1538 0.950 . S
C1516 C1515 1.349 . S
C1516 C1528 1.349 . S
C1517 C1515 1.327 . S
C1517 C1533 1.429 . S
C1517 H1539 0.950 . S
C1518 H1514 0.949 . S
C1518 C1526 1.574 . S
C1518 C1534 1.368 . S
H1519 C1527 0.950 . S
H1520 C1525 0.950 . S
H1521 C1526 0.949 . S
H1522 C1528 0.950 . S
H1523 C1529 0.950 . S
H1524 C1530 0.949 . S
C1525 H1520 0.950 . S
C1525 C1527 1.327 . S
C1525 C1531 1.429 . S
C1526 C1518 1.574 . S
C1526 H1521 0.949 . S
C1526 C1532 1.368 . S
C1527 C1511 1.349 . S
C1527 H1519 0.950 . S
C1527 C1525 1.327 . S
C1528 C1516 1.349 . S
C1528 H1522 0.950 . S
C1528 C1529 1.327 . S
C1529 H1523 0.950 . S
C1529 C1528 1.327 . S
C1529 C1533 1.429 . S
C1530 C1513 1.574 . S
C1530 H1524 0.949 . S
C1530 C1534 1.368 . S
C1531 C1512 1.429 . S
C1531 C1525 1.429 . S
C1531 C1532 1.523 . S
C1532 C1513 1.368 . S
C1532 C1526 1.368 . S
C1532 C1531 1.523 . S
C1533 C1517 1.429 . S
C1533 C1529 1.429 . S
C1533 C1534 1.523 . S
C1534 C1518 1.368 . S
C1534 C1530 1.368 . S
C1534 C1533 1.523 . S
H1535 C1510 0.950 . S
H1536 C1512 0.950 . S
H1537 C1513 0.949 . S
H1538 C1515 0.950 . S
H1539 C1517 0.950 . S
C1540 C1541 1.349 . S
C1540 C1542 1.327 . S
C1540 H1565 0.950 . S
C1541 C1540 1.349 . S
C1541 C1557 1.349 . S
C1542 C1540 1.327 . S
C1542 C1561 1.429 . S
C1542 H1566 0.950 . S
C1543 C1560 1.574 1_455 S
C1543 C1562 1.368 . S
C1543 H1567 0.949 . S
H1544 C1548 0.949 . S
C1545 C1546 1.349 . S
C1545 C1547 1.327 . S
C1545 H1568 0.950 . S
C1546 C1545 1.349 . S
C1546 C1558 1.349 . S
C1547 C1545 1.327 . S
C1547 C1563 1.429 . S
C1547 H1569 0.950 . S
C1548 H1544 0.949 . S
C1548 C1556 1.574 1_655 S
C1548 C1564 1.368 . S
H1549 C1557 0.950 . S
H1550 C1555 0.950 . S
H1551 C1556 0.949 . S
H1552 C1558 0.950 . S
H1553 C1559 0.950 . S
H1554 C1560 0.949 . S
C1555 H1550 0.950 . S
C1555 C1557 1.327 . S
C1555 C1561 1.429 . S
C1556 C1548 1.574 1_455 S
C1556 H1551 0.949 . S
C1556 C1562 1.368 . S
C1557 C1541 1.349 . S
C1557 H1549 0.950 . S
C1557 C1555 1.327 . S
C1558 C1546 1.349 . S
C1558 H1552 0.950 . S
C1558 C1559 1.327 . S
C1559 H1553 0.950 . S
C1559 C1558 1.327 . S
C1559 C1563 1.429 . S
C1560 C1543 1.574 1_655 S
C1560 H1554 0.949 . S
C1560 C1564 1.368 . S
C1561 C1542 1.429 . S
C1561 C1555 1.429 . S
C1561 C1562 1.523 . S
C1562 C1543 1.368 . S
C1562 C1556 1.368 . S
C1562 C1561 1.523 . S
C1563 C1547 1.429 . S
C1563 C1559 1.429 . S
C1563 C1564 1.523 . S
C1564 C1548 1.368 . S
C1564 C1560 1.368 . S
C1564 C1563 1.523 . S
H1565 C1540 0.950 . S
H1566 C1542 0.950 . S
H1567 C1543 0.949 . S
H1568 C1545 0.950 . S
H1569 C1547 0.950 . S
C1570 C1571 1.349 . S
C1570 C1572 1.327 . S
C1570 H1595 0.950 . S
C1571 C1570 1.349 . S
C1571 C1587 1.349 . S
C1572 C1570 1.327 . S
C1572 C1591 1.429 . S
C1572 H1596 0.950 . S
C1573 C1590 1.574 . S
C1573 C1592 1.368 . S
C1573 H1597 0.949 . S
H1574 C1578 0.949 . S
C1575 C1576 1.349 . S
C1575 C1577 1.327 . S
C1575 H1598 0.950 . S
C1576 C1575 1.349 . S
C1576 C1588 1.349 . S
C1577 C1575 1.327 . S
C1577 C1593 1.429 . S
C1577 H1599 0.950 . S
C1578 H1574 0.949 . S
C1578 C1586 1.574 . S
C1578 C1594 1.368 . S
H1579 C1587 0.950 . S
H1580 C1585 0.950 . S
H1581 C1586 0.949 . S
H1582 C1588 0.950 . S
H1583 C1589 0.950 . S
H1584 C1590 0.949 . S
C1585 H1580 0.950 . S
C1585 C1587 1.327 . S
C1585 C1591 1.429 . S
C1586 C1578 1.574 . S
C1586 H1581 0.949 . S
C1586 C1592 1.368 1_655 S
C1587 C1571 1.349 . S
C1587 H1579 0.950 . S
C1587 C1585 1.327 . S
C1588 C1576 1.349 . S
C1588 H1582 0.950 . S
C1588 C1589 1.327 . S
C1589 H1583 0.950 . S
C1589 C1588 1.327 . S
C1589 C1593 1.429 . S
C1590 C1573 1.574 . S
C1590 H1584 0.949 . S
C1590 C1594 1.368 1_455 S
C1591 C1572 1.429 . S
C1591 C1585 1.429 . S
C1591 C1592 1.523 . S
C1592 C1573 1.368 . S
C1592 C1586 1.368 1_455 S
C1592 C1591 1.523 . S
C1593 C1577 1.429 . S
C1593 C1589 1.429 . S
C1593 C1594 1.523 . S
C1594 C1578 1.368 . S
C1594 C1590 1.368 1_655 S
C1594 C1593 1.523 . S
H1595 C1570 0.950 . S
H1596 C1572 0.950 . S
H1597 C1573 0.949 . S
H1598 C1575 0.950 . S
H1599 C1577 0.950 . S
C1600 C1601 1.349 . S
C1600 C1602 1.327 . S
C1600 H1625 0.950 . S
C1601 C1600 1.349 . S
C1601 C1617 1.349 . S
C1602 C1600 1.327 . S
C1602 C1621 1.429 . S
C1602 H1626 0.950 . S
C1603 C1620 1.574 . S
C1603 C1622 1.368 . S
C1603 H1627 0.949 . S
H1604 C1608 0.949 . S
C1605 C1606 1.349 . S
C1605 C1607 1.327 . S
C1605 H1628 0.950 . S
C1606 C1605 1.349 . S
C1606 C1618 1.349 . S
C1607 C1605 1.327 . S
C1607 C1623 1.429 . S
C1607 H1629 0.950 . S
C1608 H1604 0.949 . S
C1608 C1616 1.574 . S
C1608 C1624 1.368 . S
H1609 C1617 0.950 . S
H1610 C1615 0.950 . S
H1611 C1616 0.949 . S
H1612 C1618 0.950 . S
H1613 C1619 0.950 . S
H1614 C1620 0.949 . S
C1615 H1610 0.950 . S
C1615 C1617 1.327 . S
C1615 C1621 1.429 . S
C1616 C1608 1.574 . S
C1616 H1611 0.949 . S
C1616 C1622 1.368 . S
C1617 C1601 1.349 . S
C1617 H1609 0.950 . S
C1617 C1615 1.327 . S
C1618 C1606 1.349 . S
C1618 H1612 0.950 . S
C1618 C1619 1.327 . S
C1619 H1613 0.950 . S
C1619 C1618 1.327 . S
C1619 C1623 1.429 . S
C1620 C1603 1.574 . S
C1620 H1614 0.949 . S
C1620 C1624 1.368 . S
C1621 C1602 1.429 . S
C1621 C1615 1.429 . S
C1621 C1622 1.523 . S
C1622 C1603 1.368 . S
C1622 C1616 1.368 . S
C1622 C1621 1.523 . S
C1623 C1607 1.429 . S
C1623 C1619 1.429 . S
C1623 C1624 1.523 . S
C1624 C1608 1.368 . S
C1624 C1620 1.368 . S
C1624 C1623 1.523 . S
H1625 C1600 0.950 . S
H1626 C1602 0.950 . S
H1627 C1603 0.949 . S
H1628 C1605 0.950 . S
H1629 C1607 0.950 . S
C1630 C1631 1.349 . S
C1630 C1632 1.327 . S
C1630 H1655 0.950 . S
C1631 C1630 1.349 . S
C1631 C1647 1.349 . S
C1632 C1630 1.327 . S
C1632 C1651 1.429 . S
C1632 H1656 0.950 . S
C1633 C1650 1.574 . S
C1633 C1652 1.368 . S
C1633 H1657 0.949 . S
H1634 C1638 0.949 . S
C1635 C1636 1.349 . S
C1635 C1637 1.327 . S
C1635 H1658 0.950 . S
C1636 C1635 1.349 . S
C1636 C1648 1.349 . S
C1637 C1635 1.327 . S
C1637 C1653 1.429 . S
C1637 H1659 0.950 . S
C1638 H1634 0.949 . S
C1638 C1646 1.574 . S
C1638 C1654 1.368 . S
H1639 C1647 0.950 . S
H1640 C1645 0.950 . S
H1641 C1646 0.949 . S
H1642 C1648 0.950 . S
H1643 C1649 0.950 . S
H1644 C1650 0.949 . S
C1645 H1640 0.950 . S
C1645 C1647 1.327 . S
C1645 C1651 1.429 . S
C1646 C1638 1.574 . S
C1646 H1641 0.949 . S
C1646 C1652 1.368 . S
C1647 C1631 1.349 . S
C1647 H1639 0.950 . S
C1647 C1645 1.327 . S
C1648 C1636 1.349 . S
C1648 H1642 0.950 . S
C1648 C1649 1.327 . S
C1649 H1643 0.950 . S
C1649 C1648 1.327 . S
C1649 C1653 1.429 . S
C1650 C1633 1.574 . S
C1650 H1644 0.949 . S
C1650 C1654 1.368 . S
C1651 C1632 1.429 . S
C1651 C1645 1.429 . S
C1651 C1652 1.523 . S
C1652 C1633 1.368 . S
C1652 C1646 1.368 . S
C1652 C1651 1.523 . S
C1653 C1637 1.429 . S
C1653 C1649 1.429 . S
C1653 C1654 1.523 . S
C1654 C1638 1.368 . S
C1654 C1650 1.368 . S
C1654 C1653 1.523 . S
H1655 C1630 0.950 . S
H1656 C1632 0.950 . S
H1657 C1633 0.949 . S
H1658 C1635 0.950 . S
H1659 C1637 0.950 . S
C1660 C1661 1.349 . S
C1660 C1662 1.327 . S
C1660 H1685 0.950 . S
C1661 C1660 1.349 . S
C1661 C1677 1.349 . S
C1662 C1660 1.327 . S
C1662 C1681 1.429 . S
C1662 H1686 0.950 . S
C1663 C1680 1.574 . S
C1663 C1682 1.368 . S
C1663 H1687 0.949 . S
H1664 C1668 0.949 . S
C1665 C1666 1.349 . S
C1665 C1667 1.327 . S
C1665 H1688 0.950 . S
C1666 C1665 1.349 . S
C1666 C1678 1.349 . S
C1667 C1665 1.327 . S
C1667 C1683 1.429 . S
C1667 H1689 0.950 . S
C1668 H1664 0.949 . S
C1668 C1676 1.574 . S
C1668 C1684 1.368 . S
H1669 C1677 0.950 . S
H1670 C1675 0.950 . S
H1671 C1676 0.949 . S
H1672 C1678 0.950 . S
H1673 C1679 0.950 . S
H1674 C1680 0.949 . S
C1675 H1670 0.950 . S
C1675 C1677 1.327 . S
C1675 C1681 1.429 . S
C1676 C1668 1.574 . S
C1676 H1671 0.949 . S
C1676 C1682 1.368 . S
C1677 C1661 1.349 . S
C1677 H1669 0.950 . S
C1677 C1675 1.327 . S
C1678 C1666 1.349 . S
C1678 H1672 0.950 . S
C1678 C1679 1.327 . S
C1679 H1673 0.950 . S
C1679 C1678 1.327 . S
C1679 C1683 1.429 . S
C1680 C1663 1.574 . S
C1680 H1674 0.949 . S
C1680 C1684 1.368 . S
C1681 C1662 1.429 . S
C1681 C1675 1.429 . S
C1681 C1682 1.523 . S
C1682 C1663 1.368 . S
C1682 C1676 1.368 . S
C1682 C1681 1.523 . S
C1683 C1667 1.429 . S
C1683 C1679 1.429 . S
C1683 C1684 1.523 . S
C1684 C1668 1.368 . S
C1684 C1680 1.368 . S
C1684 C1683 1.523 . S
H1685 C1660 0.950 . S
H1686 C1662 0.950 . S
H1687 C1663 0.949 . S
H1688 C1665 0.950 . S
H1689 C1667 0.950 . S
C1690 C1691 1.349 . S
C1690 C1692 1.327 1_655 S
C1690 H1715 0.950 . S
C1691 C1690 1.349 . S
C1691 C1707 1.349 . S
C1692 C1690 1.327 1_455 S
C1692 C1711 1.429 . S
C1692 H1716 0.950 . S
C1693 C1710 1.574 . S
C1693 C1712 1.368 . S
C1693 H1717 0.949 . S
H1694 C1698 0.949 . S
C1695 C1696 1.349 . S
C1695 C1697 1.327 . S
C1695 H1718 0.950 . S
C1696 C1695 1.349 . S
C1696 C1708 1.349 . S
C1697 C1695 1.327 . S
C1697 C1713 1.429 . S
C1697 H1719 0.950 . S
C1698 H1694 0.949 . S
C1698 C1706 1.574 . S
C1698 C1714 1.368 . S
H1699 C1707 0.950 . S
H1700 C1705 0.950 . S
H1701 C1706 0.949 . S
H1702 C1708 0.950 . S
H1703 C1709 0.950 . S
H1704 C1710 0.949 . S
C1705 H1700 0.950 . S
C1705 C1707 1.327 1_455 S
C1705 C1711 1.429 . S
C1706 C1698 1.574 . S
C1706 H1701 0.949 . S
C1706 C1712 1.368 . S
C1707 C1691 1.349 . S
C1707 H1699 0.950 . S
C1707 C1705 1.327 1_655 S
C1708 C1696 1.349 . S
C1708 H1702 0.950 . S
C1708 C1709 1.327 . S
C1709 H1703 0.950 . S
C1709 C1708 1.327 . S
C1709 C1713 1.429 . S
C1710 C1693 1.574 . S
C1710 H1704 0.949 . S
C1710 C1714 1.368 . S
C1711 C1692 1.429 . S
C1711 C1705 1.429 . S
C1711 C1712 1.523 . S
C1712 C1693 1.368 . S
C1712 C1706 1.368 . S
C1712 C1711 1.523 . S
C1713 C1697 1.429 . S
C1713 C1709 1.429 . S
C1713 C1714 1.523 . S
C1714 C1698 1.368 . S
C1714 C1710 1.368 . S
C1714 C1713 1.523 . S
H1715 C1690 0.950 . S
H1716 C1692 0.950 . S
H1717 C1693 0.949 . S
H1718 C1695 0.950 . S
H1719 C1697 0.950 . S
C1720 C1721 1.349 . S
C1720 C1722 1.327 . S
C1720 H1745 0.950 . S
C1721 C1720 1.349 . S
C1721 C1737 1.349 . S
C1722 C1720 1.327 . S
C1722 C1741 1.429 . S
C1722 H1746 0.950 . S
C1723 C1740 1.574 . S
C1723 C1742 1.368 . S
C1723 H1747 0.949 . S
H1724 C1728 0.949 . S
C1725 C1726 1.349 . S
C1725 C1727 1.327 . S
C1725 H1748 0.950 . S
C1726 C1725 1.349 . S
C1726 C1738 1.349 . S
C1727 C1725 1.327 . S
C1727 C1743 1.429 . S
C1727 H1749 0.950 . S
C1728 H1724 0.949 . S
C1728 C1736 1.574 . S
C1728 C1744 1.368 . S
H1729 C1737 0.950 . S
H1730 C1735 0.950 . S
H1731 C1736 0.949 . S
H1732 C1738 0.950 . S
H1733 C1739 0.950 . S
H1734 C1740 0.949 . S
C1735 H1730 0.950 . S
C1735 C1737 1.327 . S
C1735 C1741 1.429 . S
C1736 C1728 1.574 . S
C1736 H1731 0.949 . S
C1736 C1742 1.368 . S
C1737 C1721 1.349 . S
C1737 H1729 0.950 . S
C1737 C1735 1.327 . S
C1738 C1726 1.349 . S
C1738 H1732 0.950 . S
C1738 C1739 1.327 . S
C1739 H1733 0.950 . S
C1739 C1738 1.327 . S
C1739 C1743 1.429 . S
C1740 C1723 1.574 . S
C1740 H1734 0.949 . S
C1740 C1744 1.368 . S
C1741 C1722 1.429 . S
C1741 C1735 1.429 . S
C1741 C1742 1.523 . S
C1742 C1723 1.368 . S
C1742 C1736 1.368 . S
C1742 C1741 1.523 . S
C1743 C1727 1.429 . S
C1743 C1739 1.429 . S
C1743 C1744 1.523 . S
C1744 C1728 1.368 . S
C1744 C1740 1.368 . S
C1744 C1743 1.523 . S
H1745 C1720 0.950 . S
H1746 C1722 0.950 . S
H1747 C1723 0.949 . S
H1748 C1725 0.950 . S
H1749 C1727 0.950 . S
C1750 C1751 1.349 . S
C1750 C1752 1.327 . S
C1750 H1775 0.950 . S
C1751 C1750 1.349 . S
C1751 C1767 1.349 . S
C1752 C1750 1.327 . S
C1752 C1771 1.429 . S
C1752 H1776 0.950 . S
C1753 C1770 1.574 . S
C1753 C1772 1.368 . S
C1753 H1777 0.949 . S
H1754 C1758 0.949 . S
C1755 C1756 1.349 . S
C1755 C1757 1.327 . S
C1755 H1778 0.950 . S
C1756 C1755 1.349 . S
C1756 C1768 1.349 . S
C1757 C1755 1.327 . S
C1757 C1773 1.429 . S
C1757 H1779 0.950 . S
C1758 H1754 0.949 . S
C1758 C1766 1.574 . S
C1758 C1774 1.368 . S
H1759 C1767 0.950 . S
H1760 C1765 0.950 . S
H1761 C1766 0.949 . S
H1762 C1768 0.950 . S
H1763 C1769 0.950 . S
H1764 C1770 0.949 . S
C1765 H1760 0.950 . S
C1765 C1767 1.327 . S
C1765 C1771 1.429 . S
C1766 C1758 1.574 . S
C1766 H1761 0.949 . S
C1766 C1772 1.368 . S
C1767 C1751 1.349 . S
C1767 H1759 0.950 . S
C1767 C1765 1.327 . S
C1768 C1756 1.349 . S
C1768 H1762 0.950 . S
C1768 C1769 1.327 . S
C1769 H1763 0.950 . S
C1769 C1768 1.327 . S
C1769 C1773 1.429 . S
C1770 C1753 1.574 . S
C1770 H1764 0.949 . S
C1770 C1774 1.368 . S
C1771 C1752 1.429 . S
C1771 C1765 1.429 . S
C1771 C1772 1.523 . S
C1772 C1753 1.368 . S
C1772 C1766 1.368 . S
C1772 C1771 1.523 . S
C1773 C1757 1.429 . S
C1773 C1769 1.429 . S
C1773 C1774 1.523 . S
C1774 C1758 1.368 . S
C1774 C1770 1.368 . S
C1774 C1773 1.523 . S
H1775 C1750 0.950 . S
H1776 C1752 0.950 . S
H1777 C1753 0.949 . S
H1778 C1755 0.950 . S
H1779 C1757 0.950 . S
C1780 C1781 1.349 . S
C1780 C1782 1.327 . S
C1780 H1805 0.950 . S
C1781 C1780 1.349 . S
C1781 C1797 1.349 . S
C1782 C1780 1.327 . S
C1782 C1801 1.429 . S
C1782 H1806 0.950 . S
C1783 C1800 1.574 . S
C1783 C1802 1.368 . S
C1783 H1807 0.949 . S
H1784 C1788 0.949 . S
C1785 C1786 1.349 . S
C1785 C1787 1.327 . S
C1785 H1808 0.950 . S
C1786 C1785 1.349 . S
C1786 C1798 1.349 . S
C1787 C1785 1.327 . S
C1787 C1803 1.429 . S
C1787 H1809 0.950 . S
C1788 H1784 0.949 . S
C1788 C1796 1.574 . S
C1788 C1804 1.368 . S
H1789 C1797 0.950 . S
H1790 C1795 0.950 . S
H1791 C1796 0.949 . S
H1792 C1798 0.950 . S
H1793 C1799 0.950 . S
H1794 C1800 0.949 . S
C1795 H1790 0.950 . S
C1795 C1797 1.327 . S
C1795 C1801 1.429 . S
C1796 C1788 1.574 . S
C1796 H1791 0.949 . S
C1796 C1802 1.368 . S
C1797 C1781 1.349 . S
C1797 H1789 0.950 . S
C1797 C1795 1.327 . S
C1798 C1786 1.349 . S
C1798 H1792 0.950 . S
C1798 C1799 1.327 . S
C1799 H1793 0.950 . S
C1799 C1798 1.327 . S
C1799 C1803 1.429 . S
C1800 C1783 1.574 . S
C1800 H1794 0.949 . S
C1800 C1804 1.368 . S
C1801 C1782 1.429 . S
C1801 C1795 1.429 . S
C1801 C1802 1.523 . S
C1802 C1783 1.368 . S
C1802 C1796 1.368 . S
C1802 C1801 1.523 . S
C1803 C1787 1.429 . S
C1803 C1799 1.429 . S
C1803 C1804 1.523 . S
C1804 C1788 1.368 . S
C1804 C1800 1.368 . S
C1804 C1803 1.523 . S
H1805 C1780 0.950 . S
H1806 C1782 0.950 . S
H1807 C1783 0.949 . S
H1808 C1785 0.950 . S
H1809 C1787 0.950 . S
C1810 C1811 1.349 . S
C1810 C1812 1.327 . S
C1810 H1835 0.950 . S
C1811 C1810 1.349 . S
C1811 C1827 1.349 . S
C1812 C1810 1.327 . S
C1812 C1831 1.429 . S
C1812 H1836 0.950 . S
C1813 C1830 1.574 . S
C1813 C1832 1.368 . S
C1813 H1837 0.949 . S
H1814 C1818 0.949 . S
C1815 C1816 1.349 . S
C1815 C1817 1.327 1_455 S
C1815 H1838 0.950 . S
C1816 C1815 1.349 . S
C1816 C1828 1.349 . S
C1817 C1815 1.327 1_655 S
C1817 C1833 1.429 . S
C1817 H1839 0.950 . S
C1818 H1814 0.949 . S
C1818 C1826 1.574 . S
C1818 C1834 1.368 . S
H1819 C1827 0.950 . S
H1820 C1825 0.950 . S
H1821 C1826 0.949 . S
H1822 C1828 0.950 . S
H1823 C1829 0.956 . S
H1824 C1830 0.949 . S
C1825 H1820 0.950 . S
C1825 C1827 1.327 . S
C1825 C1831 1.429 . S
C1826 C1818 1.574 . S
C1826 H1821 0.949 . S
C1826 C1832 1.368 . S
C1827 C1811 1.349 . S
C1827 H1819 0.950 . S
C1827 C1825 1.327 . S
C1828 C1816 1.349 . S
C1828 H1822 0.950 . S
C1828 C1829 1.292 1_455 S
C1829 H1823 0.956 . S
C1829 C1828 1.292 1_655 S
C1829 C1833 1.459 . S
C1830 C1813 1.574 . S
C1830 H1824 0.949 . S
C1830 C1834 1.368 . S
C1831 C1812 1.429 . S
C1831 C1825 1.429 . S
C1831 C1832 1.523 . S
C1832 C1813 1.368 . S
C1832 C1826 1.368 . S
C1832 C1831 1.523 . S
C1833 C1817 1.429 . S
C1833 C1829 1.459 . S
C1833 C1834 1.523 . S
C1834 C1818 1.368 . S
C1834 C1830 1.368 . S
C1834 C1833 1.523 . S
H1835 C1810 0.950 . S
H1836 C1812 0.950 . S
H1837 C1813 0.949 . S
H1838 C1815 0.950 . S
H1839 C1817 0.950 . S
C1840 C1841 1.349 . S
C1840 C1842 1.327 . S
C1840 H1865 0.950 . S
C1841 C1840 1.349 . S
C1841 C1857 1.349 . S
C1842 C1840 1.327 . S
C1842 C1861 1.429 . S
C1842 H1866 0.950 . S
C1843 C1860 1.574 . S
C1843 C1862 1.368 . S
C1843 H1867 0.949 . S
H1844 C1848 0.949 . S
C1845 C1846 1.349 . S
C1845 C1847 1.327 . S
C1845 H1868 0.950 . S
C1846 C1845 1.349 . S
C1846 C1858 1.349 . S
C1847 C1845 1.327 . S
C1847 C1863 1.429 . S
C1847 H1869 0.950 . S
C1848 H1844 0.949 . S
C1848 C1856 1.574 . S
C1848 C1864 1.368 . S
H1849 C1857 0.950 . S
H1850 C1855 0.950 . S
H1851 C1856 0.949 . S
H1852 C1858 0.950 . S
H1853 C1859 0.950 . S
H1854 C1860 0.949 . S
C1855 H1850 0.950 . S
C1855 C1857 1.327 . S
C1855 C1861 1.429 . S
C1856 C1848 1.574 . S
C1856 H1851 0.949 . S
C1856 C1862 1.368 . S
C1857 C1841 1.349 . S
C1857 H1849 0.950 . S
C1857 C1855 1.327 . S
C1858 C1846 1.349 . S
C1858 H1852 0.950 . S
C1858 C1859 1.327 . S
C1859 H1853 0.950 . S
C1859 C1858 1.327 . S
C1859 C1863 1.429 . S
C1860 C1843 1.574 . S
C1860 H1854 0.949 . S
C1860 C1864 1.368 . S
C1861 C1842 1.429 . S
C1861 C1855 1.429 . S
C1861 C1862 1.523 . S
C1862 C1843 1.368 . S
C1862 C1856 1.368 . S
C1862 C1861 1.523 . S
C1863 C1847 1.429 . S
C1863 C1859 1.429 . S
C1863 C1864 1.523 . S
C1864 C1848 1.368 . S
C1864 C1860 1.368 . S
C1864 C1863 1.523 . S
H1865 C1840 0.950 . S
H1866 C1842 0.950 . S
H1867 C1843 0.949 . S
H1868 C1845 0.950 . S
H1869 C1847 0.950 . S
C1870 C1871 1.349 . S
C1870 C1872 1.327 . S
C1870 H1895 0.950 . S
C1871 C1870 1.349 . S
C1871 C1887 1.349 . S
C1872 C1870 1.327 . S
C1872 C1891 1.429 . S
C1872 H1896 0.950 . S
C1873 C1890 1.574 . S
C1873 C1892 1.368 . S
C1873 H1897 0.949 . S
H1874 C1878 0.949 . S
C1875 C1876 1.349 . S
C1875 C1877 1.327 1_455 S
C1875 H1898 0.950 1_565 S
C1876 C1875 1.349 . S
C1876 C1888 1.349 . S
C1877 C1875 1.327 1_655 S
C1877 C1893 1.429 . S
C1877 H1899 0.950 . S
C1878 H1874 0.949 . S
C1878 C1886 1.574 . S
C1878 C1894 1.368 . S
H1879 C1887 0.950 . S
H1880 C1885 0.950 . S
H1881 C1886 0.949 . S
H1882 C1888 0.950 . S
H1883 C1889 0.950 . S
H1884 C1890 0.949 . S
C1885 H1880 0.950 . S
C1885 C1887 1.327 . S
C1885 C1891 1.429 . S
C1886 C1878 1.574 . S
C1886 H1881 0.949 . S
C1886 C1892 1.368 . S
C1887 C1871 1.349 . S
C1887 H1879 0.950 . S
C1887 C1885 1.327 . S
C1888 C1876 1.349 . S
C1888 H1882 0.950 . S
C1888 C1889 1.327 1_455 S
C1889 H1883 0.950 . S
C1889 C1888 1.327 1_655 S
C1889 C1893 1.429 . S
C1890 C1873 1.574 . S
C1890 H1884 0.949 . S
C1890 C1894 1.368 . S
C1891 C1872 1.429 . S
C1891 C1885 1.429 . S
C1891 C1892 1.523 . S
C1892 C1873 1.368 . S
C1892 C1886 1.368 . S
C1892 C1891 1.523 . S
C1893 C1877 1.429 . S
C1893 C1889 1.429 . S
C1893 C1894 1.523 . S
C1894 C1878 1.368 . S
C1894 C1890 1.368 . S
C1894 C1893 1.523 . S
H1895 C1870 0.950 . S
H1896 C1872 0.950 . S
H1897 C1873 0.949 . S
H1898 C1875 0.950 1_545 S
H1899 C1877 0.950 . S
C1900 C1901 1.349 . S
C1900 C1902 1.327 . S
C1900 H1925 0.950 . S
C1901 C1900 1.349 . S
C1901 C1917 1.349 . S
C1902 C1900 1.327 . S
C1902 C1921 1.429 . S
C1902 H1926 0.950 . S
C1903 C1920 1.574 . S
C1903 C1922 1.368 . S
C1903 H1927 0.949 . S
H1904 C1908 0.949 . S
C1905 C1906 1.349 . S
C1905 C1907 1.327 . S
C1905 H1928 0.950 . S
C1906 C1905 1.349 . S
C1906 C1918 1.349 . S
C1907 C1905 1.327 . S
C1907 C1923 1.429 . S
C1907 H1929 0.950 . S
C1908 H1904 0.949 . S
C1908 C1916 1.574 . S
C1908 C1924 1.368 . S
H1909 C1917 0.950 . S
H1910 C1915 0.950 . S
H1911 C1916 0.949 . S
H1912 C1918 0.950 . S
H1913 C1919 0.950 . S
H1914 C1920 0.949 . S
C1915 H1910 0.950 . S
C1915 C1917 1.327 . S
C1915 C1921 1.429 . S
C1916 C1908 1.574 . S
C1916 H1911 0.949 . S
C1916 C1922 1.368 . S
C1917 C1901 1.349 . S
C1917 H1909 0.950 . S
C1917 C1915 1.327 . S
C1918 C1906 1.349 . S
C1918 H1912 0.950 . S
C1918 C1919 1.327 . S
C1919 H1913 0.950 . S
C1919 C1918 1.327 . S
C1919 C1923 1.429 . S
C1920 C1903 1.574 . S
C1920 H1914 0.949 . S
C1920 C1924 1.368 . S
C1921 C1902 1.429 . S
C1921 C1915 1.429 . S
C1921 C1922 1.523 . S
C1922 C1903 1.368 . S
C1922 C1916 1.368 . S
C1922 C1921 1.523 . S
C1923 C1907 1.429 . S
C1923 C1919 1.429 . S
C1923 C1924 1.523 . S
C1924 C1908 1.368 . S
C1924 C1920 1.368 . S
C1924 C1923 1.523 . S
H1925 C1900 0.950 . S
H1926 C1902 0.950 . S
H1927 C1903 0.949 . S
H1928 C1905 0.950 . S
H1929 C1907 0.950 . S
C1930 C1931 1.349 . S
C1930 C1932 1.327 . S
C1930 H1955 0.950 . S
C1931 C1930 1.349 . S
C1931 C1947 1.349 . S
C1932 C1930 1.327 . S
C1932 C1951 1.429 . S
C1932 H1956 0.950 . S
C1933 C1950 1.574 . S
C1933 C1952 1.368 . S
C1933 H1957 0.949 . S
H1934 C1938 0.949 . S
C1935 C1936 1.349 . S
C1935 C1937 1.327 . S
C1935 H1958 0.950 . S
C1936 C1935 1.349 . S
C1936 C1948 1.349 . S
C1937 C1935 1.327 . S
C1937 C1953 1.429 . S
C1937 H1959 0.950 . S
C1938 H1934 0.949 . S
C1938 C1946 1.574 . S
C1938 C1954 1.368 . S
H1939 C1947 0.950 1_565 S
H1940 C1945 0.950 . S
H1941 C1946 0.949 . S
H1942 C1948 0.950 . S
H1943 C1949 0.950 . S
H1944 C1950 0.949 . S
C1945 H1940 0.950 . S
C1945 C1947 1.327 . S
C1945 C1951 1.429 . S
C1946 C1938 1.574 . S
C1946 H1941 0.949 . S
C1946 C1952 1.368 . S
C1947 C1931 1.349 . S
C1947 H1939 0.950 1_545 S
C1947 C1945 1.327 . S
C1948 C1936 1.349 . S
C1948 H1942 0.950 . S
C1948 C1949 1.327 . S
C1949 H1943 0.950 . S
C1949 C1948 1.327 . S
C1949 C1953 1.429 . S
C1950 C1933 1.574 . S
C1950 H1944 0.949 . S
C1950 C1954 1.368 . S
C1951 C1932 1.429 . S
C1951 C1945 1.429 . S
C1951 C1952 1.523 . S
C1952 C1933 1.368 . S
C1952 C1946 1.368 . S
C1952 C1951 1.523 . S
C1953 C1937 1.429 . S
C1953 C1949 1.429 . S
C1953 C1954 1.523 . S
C1954 C1938 1.368 . S
C1954 C1950 1.368 . S
C1954 C1953 1.523 . S
H1955 C1930 0.950 . S
H1956 C1932 0.950 . S
H1957 C1933 0.949 . S
H1958 C1935 0.950 . S
H1959 C1937 0.950 . S
C1960 C1961 1.349 . S
C1960 C1962 1.327 . S
C1960 H1985 0.950 . S
C1961 C1960 1.349 . S
C1961 C1977 1.349 . S
C1962 C1960 1.327 . S
C1962 C1981 1.429 . S
C1962 H1986 0.950 . S
C1963 C1980 1.574 . S
C1963 C1982 1.368 . S
C1963 H1987 0.949 . S
H1964 C1968 0.949 . S
C1965 C1966 1.349 . S
C1965 C1967 1.327 . S
C1965 H1988 0.950 . S
C1966 C1965 1.349 . S
C1966 C1978 1.349 . S
C1967 C1965 1.327 . S
C1967 C1983 1.429 . S
C1967 H1989 0.950 . S
C1968 H1964 0.949 . S
C1968 C1976 1.574 . S
C1968 C1984 1.368 . S
H1969 C1977 0.950 . S
H1970 C1975 0.950 . S
H1971 C1976 0.949 . S
H1972 C1978 0.950 . S
H1973 C1979 0.950 . S
H1974 C1980 0.949 . S
C1975 H1970 0.950 . S
C1975 C1977 1.327 . S
C1975 C1981 1.429 . S
C1976 C1968 1.574 . S
C1976 H1971 0.949 . S
C1976 C1982 1.368 . S
C1977 C1961 1.349 . S
C1977 H1969 0.950 . S
C1977 C1975 1.327 . S
C1978 C1966 1.349 . S
C1978 H1972 0.950 . S
C1978 C1979 1.327 . S
C1979 H1973 0.950 . S
C1979 C1978 1.327 . S
C1979 C1983 1.429 . S
C1980 C1963 1.574 . S
C1980 H1974 0.949 . S
C1980 C1984 1.368 . S
C1981 C1962 1.429 . S
C1981 C1975 1.429 . S
C1981 C1982 1.523 . S
C1982 C1963 1.368 . S
C1982 C1976 1.368 . S
C1982 C1981 1.523 . S
C1983 C1967 1.429 . S
C1983 C1979 1.429 . S
C1983 C1984 1.523 . S
C1984 C1968 1.368 . S
C1984 C1980 1.368 . S
C1984 C1983 1.523 . S
H1985 C1960 0.950 . S
H1986 C1962 0.950 . S
H1987 C1963 0.949 . S
H1988 C1965 0.950 . S
H1989 C1967 0.950 . S
C1990 C1991 1.349 . S
C1990 C1992 1.327 1_655 S
C1990 H2015 0.950 . S
C1991 C1990 1.349 . S
C1991 C2007 1.349 . S
C1992 C1990 1.327 1_455 S
C1992 C2011 1.429 . S
C1992 H2016 0.950 . S
C1993 C2010 1.574 . S
C1993 C2012 1.368 . S
C1993 H2017 0.949 . S
H1994 C1998 0.949 . S
C1995 C1996 1.349 . S
C1995 C1997 1.327 . S
C1995 H2018 0.950 . S
C1996 C1995 1.349 . S
C1996 C2008 1.349 . S
C1997 C1995 1.327 . S
C1997 C2013 1.429 . S
C1997 H2019 0.950 . S
C1998 H1994 0.949 . S
C1998 C2006 1.574 . S
C1998 C2014 1.368 . S
H1999 C2007 0.950 1_565 S
H2000 C2005 0.950 . S
H2001 C2006 0.949 . S
H2002 C2008 0.950 . S
H2003 C2009 0.950 . S
H2004 C2010 0.949 . S
C2005 H2000 0.950 . S
C2005 C2007 1.327 1_455 S
C2005 C2011 1.429 . S
C2006 C1998 1.574 . S
C2006 H2001 0.949 . S
C2006 C2012 1.368 . S
C2007 C1991 1.349 . S
C2007 H1999 0.950 1_545 S
C2007 C2005 1.327 1_655 S
C2008 C1996 1.349 . S
C2008 H2002 0.950 . S
C2008 C2009 1.327 . S
C2009 H2003 0.950 . S
C2009 C2008 1.327 . S
C2009 C2013 1.429 . S
C2010 C1993 1.574 . S
C2010 H2004 0.949 . S
C2010 C2014 1.368 . S
C2011 C1992 1.429 . S
C2011 C2005 1.429 . S
C2011 C2012 1.523 . S
C2012 C1993 1.368 . S
C2012 C2006 1.368 . S
C2012 C2011 1.523 . S
C2013 C1997 1.429 . S
C2013 C2009 1.429 . S
C2013 C2014 1.523 . S
C2014 C1998 1.368 . S
C2014 C2010 1.368 . S
C2014 C2013 1.523 . S
H2015 C1990 0.950 . S
H2016 C1992 0.950 . S
H2017 C1993 0.949 . S
H2018 C1995 0.950 . S
H2019 C1997 0.950 . S
C2020 C2021 1.349 . S
C2020 C2022 1.327 . S
C2020 H2045 0.950 . S
C2021 C2020 1.349 . S
C2021 C2037 1.349 . S
C2022 C2020 1.327 . S
C2022 C2041 1.429 . S
C2022 H2046 0.950 . S
C2023 C2040 1.574 . S
C2023 C2042 1.368 . S
C2023 H2047 0.949 . S
H2024 C2028 0.949 . S
C2025 C2026 1.349 . S
C2025 C2027 1.327 . S
C2025 H2048 0.950 . S
C2026 C2025 1.349 . S
C2026 C2038 1.349 . S
C2027 C2025 1.327 . S
C2027 C2043 1.429 . S
C2027 H2049 0.950 . S
C2028 H2024 0.949 . S
C2028 C2036 1.574 . S
C2028 C2044 1.368 . S
H2029 C2037 0.950 . S
H2030 C2035 0.950 . S
H2031 C2036 0.949 . S
H2032 C2038 0.950 . S
H2033 C2039 0.950 . S
H2034 C2040 0.949 . S
C2035 H2030 0.950 . S
C2035 C2037 1.327 . S
C2035 C2041 1.429 . S
C2036 C2028 1.574 . S
C2036 H2031 0.949 . S
C2036 C2042 1.368 . S
C2037 C2021 1.349 . S
C2037 H2029 0.950 . S
C2037 C2035 1.327 . S
C2038 C2026 1.349 . S
C2038 H2032 0.950 . S
C2038 C2039 1.327 . S
C2039 H2033 0.950 . S
C2039 C2038 1.327 . S
C2039 C2043 1.429 . S
C2040 C2023 1.574 . S
C2040 H2034 0.949 . S
C2040 C2044 1.368 . S
C2041 C2022 1.429 . S
C2041 C2035 1.429 . S
C2041 C2042 1.523 . S
C2042 C2023 1.368 . S
C2042 C2036 1.368 . S
C2042 C2041 1.523 . S
C2043 C2027 1.429 . S
C2043 C2039 1.429 . S
C2043 C2044 1.523 . S
C2044 C2028 1.368 . S
C2044 C2040 1.368 . S
C2044 C2043 1.523 . S
H2045 C2020 0.950 . S
H2046 C2022 0.950 . S
H2047 C2023 0.949 . S
H2048 C2025 0.950 . S
H2049 C2027 0.950 . S
C2050 C2051 1.349 . S
C2050 C2052 1.327 . S
C2050 H2075 0.950 . S
C2051 C2050 1.349 . S
C2051 C2067 1.349 . S
C2052 C2050 1.327 . S
C2052 C2071 1.429 . S
C2052 H2076 0.950 . S
C2053 C2070 1.574 . S
C2053 C2072 1.368 . S
C2053 H2077 0.949 . S
H2054 C2058 0.949 . S
C2055 C2056 1.349 . S
C2055 C2057 1.327 . S
C2055 H2078 0.950 . S
C2056 C2055 1.349 . S
C2056 C2068 1.349 . S
C2057 C2055 1.327 . S
C2057 C2073 1.429 . S
C2057 H2079 0.950 . S
C2058 H2054 0.949 . S
C2058 C2066 1.574 . S
C2058 C2074 1.368 . S
H2059 C2067 0.950 . S
H2060 C2065 0.950 . S
H2061 C2066 0.949 . S
H2062 C2068 0.950 1_545 S
H2063 C2069 0.950 . S
H2064 C2070 0.949 . S
C2065 H2060 0.950 . S
C2065 C2067 1.327 . S
C2065 C2071 1.429 . S
C2066 C2058 1.574 . S
C2066 H2061 0.949 . S
C2066 C2072 1.368 . S
C2067 C2051 1.349 . S
C2067 H2059 0.950 . S
C2067 C2065 1.327 . S
C2068 C2056 1.349 . S
C2068 H2062 0.950 1_565 S
C2068 C2069 1.327 . S
C2069 H2063 0.950 . S
C2069 C2068 1.327 . S
C2069 C2073 1.429 . S
C2070 C2053 1.574 . S
C2070 H2064 0.949 . S
C2070 C2074 1.368 . S
C2071 C2052 1.429 . S
C2071 C2065 1.429 . S
C2071 C2072 1.523 . S
C2072 C2053 1.368 . S
C2072 C2066 1.368 . S
C2072 C2071 1.523 . S
C2073 C2057 1.429 . S
C2073 C2069 1.429 . S
C2073 C2074 1.523 . S
C2074 C2058 1.368 . S
C2074 C2070 1.368 . S
C2074 C2073 1.523 . S
H2075 C2050 0.950 . S
H2076 C2052 0.950 . S
H2077 C2053 0.949 . S
H2078 C2055 0.950 . S
H2079 C2057 0.950 . S
C641 C26 1.587 . S
C646 C497 1.587 . S
C671 C217 1.587 . S
C676 C66 1.587 . S
C701 C106 1.587 . S
C706 C577 1.587 . S
C731 C146 1.587 . S
C736 C297 1.587 . S
C761 C177 1.587 . S
C766 C346 1.587 . S
C791 C426 1.587 . S
C796 C257 1.587 . S
C821 C537 1.587 . S
C826 C386 1.587 . S
C851 C466 1.587 . S
C856 C617 1.587 . S
C881 C383 2.038 . S
C886 C17 2.001 . S
C911 C57 2.001 . S
C916 C423 2.038 . S
C941 C97 2.001 . S
C946 C463 2.039 . S
C971 C343 2.039 . S
C976 C137 2.001 . S
C1001 C522 2.038 . S
C1006 C186 2.001 . S
C1031 C562 2.038 . S
C1036 C226 2.001 . S
C1061 C266 2.001 . S
C1066 C602 2.038 . S
C1091 C482 2.039 . S
C1096 C306 2.001 . S
C1121 C337 2.001 . S
C1126 C63 2.039 . S
C1151 C377 2.001 . S
C1156 C103 2.039 . S
C1181 C417 2.001 . S
C1186 C143 2.038 . S
C1211 C23 2.038 . S
C1216 C457 2.001 . S
C1241 C202 2.039 . S
C1246 C506 2.002 . S
C1271 C546 2.002 . S
C1276 C242 2.039 . S
C1301 C282 2.039 . S
C1306 C586 2.001 . S
C1331 C626 2.001 . S
C1336 C162 2.038 . S
C1361 C13 3.290 . S
C1366 C413 3.290 . S
C1391 C53 3.290 . S
C1396 C453 3.290 . S
C1421 C333 3.291 . S
C1426 C93 3.291 . S
C1451 C133 3.290 . S
C1456 C373 3.290 . S
C1481 C184 3.290 . S
C1486 C584 3.290 . S
C1511 C224 3.290 . S
C1516 C624 3.290 . S
C1541 C504 3.291 . S
C1546 C264 3.291 . S
C1571 C304 3.290 . S
C1576 C544 3.290 . S
C1601 C2 1.500 . S
C1606 C293 1.691 . S
C1631 C493 1.690 . S
C1636 C42 1.500 . S
C1661 C82 1.500 . S
C1666 C213 1.691 . S
C1691 C122 1.500 . S
C1696 C573 1.690 . S
C1721 C183 1.500 . S
C1726 C144 1.691 . S
C1751 C344 1.690 . S
C1756 C223 1.500 . S
C1781 C263 1.500 . S
C1786 C64 1.691 . S
C1811 C424 1.690 . S
C1816 C303 1.500 . S
C1841 C322 1.500 . S
C1846 C613 1.690 . S
C1871 C173 1.690 . S
C1876 C362 1.500 1_565 S
C1901 C533 1.690 . S
C1906 C402 1.500 . S
C1931 C442 1.500 1_545 S
C1936 C253 1.690 . S
C1961 C503 1.500 . S
C1966 C464 1.690 . S
C1991 C543 1.500 1_545 S
C1996 C24 1.690 . S
C2021 C384 1.690 . S
C2026 C583 1.500 . S
C2051 C104 1.690 . S
C2056 C623 1.500 1_565 S
