# Generated by pormake.
# Topology vbx, (6)-cn, num edge types: 1
# Building blocks:
#     Node 0, Type 0, BuildingBlock: OJICUG_clean_sbu_0, # of connection points: 6
#     Node 1, Type 0, BuildingBlock: OJICUG_clean_sbu_0, # of connection points: 6
#     Node 2, Type 0, BuildingBlock: OJICUG_clean_sbu_0, # of connection points: 6
#     Node 3, Type 0, BuildingBlock: OJICUG_clean_sbu_0, # of connection points: 6
#     Node 4, Type 0, BuildingBlock: OJICUG_clean_sbu_0, # of connection points: 6
#     Node 5, Type 0, BuildingBlock: OJICUG_clean_sbu_0, # of connection points: 6
#     Node 6, Type 0, BuildingBlock: OJICUG_clean_sbu_0, # of connection points: 6
#     Node 7, Type 0, BuildingBlock: OJICUG_clean_sbu_0, # of connection points: 6
#     Node 8, Type 0, BuildingBlock: OJICUG_clean_sbu_0, # of connection points: 6
#     Node 9, Type 0, BuildingBlock: OJICUG_clean_sbu_0, # of connection points: 6
#     Node 10, Type 0, BuildingBlock: OJICUG_clean_sbu_0, # of connection points: 6
#     Node 11, Type 0, BuildingBlock: OJICUG_clean_sbu_0, # of connection points: 6
#     Node 12, Type 0, BuildingBlock: OJICUG_clean_sbu_0, # of connection points: 6
#     Node 13, Type 0, BuildingBlock: OJICUG_clean_sbu_0, # of connection points: 6
#     Node 14, Type 0, BuildingBlock: OJICUG_clean_sbu_0, # of connection points: 6
#     Node 15, Type 0, BuildingBlock: OJICUG_clean_sbu_0, # of connection points: 6
#     Edge 16, Type (0, 0), BuildingBlock: KIFKEQ_clean_linker_1, # of connection points: 2
#     Edge 17, Type (0, 0), BuildingBlock: KIFKEQ_clean_linker_1, # of connection points: 2
#     Edge 18, Type (0, 0), BuildingBlock: KIFKEQ_clean_linker_1, # of connection points: 2
#     Edge 19, Type (0, 0), BuildingBlock: KIFKEQ_clean_linker_1, # of connection points: 2
#     Edge 20, Type (0, 0), BuildingBlock: KIFKEQ_clean_linker_1, # of connection points: 2
#     Edge 21, Type (0, 0), BuildingBlock: KIFKEQ_clean_linker_1, # of connection points: 2
#     Edge 22, Type (0, 0), BuildingBlock: KIFKEQ_clean_linker_1, # of connection points: 2
#     Edge 23, Type (0, 0), BuildingBlock: KIFKEQ_clean_linker_1, # of connection points: 2
#     Edge 24, Type (0, 0), BuildingBlock: KIFKEQ_clean_linker_1, # of connection points: 2
#     Edge 25, Type (0, 0), BuildingBlock: KIFKEQ_clean_linker_1, # of connection points: 2
#     Edge 26, Type (0, 0), BuildingBlock: KIFKEQ_clean_linker_1, # of connection points: 2
#     Edge 27, Type (0, 0), BuildingBlock: KIFKEQ_clean_linker_1, # of connection points: 2
#     Edge 28, Type (0, 0), BuildingBlock: KIFKEQ_clean_linker_1, # of connection points: 2
#     Edge 29, Type (0, 0), BuildingBlock: KIFKEQ_clean_linker_1, # of connection points: 2
#     Edge 30, Type (0, 0), BuildingBlock: KIFKEQ_clean_linker_1, # of connection points: 2
#     Edge 31, Type (0, 0), BuildingBlock: KIFKEQ_clean_linker_1, # of connection points: 2
#     Edge 32, Type (0, 0), BuildingBlock: KIFKEQ_clean_linker_1, # of connection points: 2
#     Edge 33, Type (0, 0), BuildingBlock: KIFKEQ_clean_linker_1, # of connection points: 2
#     Edge 34, Type (0, 0), BuildingBlock: KIFKEQ_clean_linker_1, # of connection points: 2
#     Edge 35, Type (0, 0), BuildingBlock: KIFKEQ_clean_linker_1, # of connection points: 2
#     Edge 36, Type (0, 0), BuildingBlock: KIFKEQ_clean_linker_1, # of connection points: 2
#     Edge 37, Type (0, 0), BuildingBlock: KIFKEQ_clean_linker_1, # of connection points: 2
#     Edge 38, Type (0, 0), BuildingBlock: KIFKEQ_clean_linker_1, # of connection points: 2
#     Edge 39, Type (0, 0), BuildingBlock: KIFKEQ_clean_linker_1, # of connection points: 2
#     Edge 40, Type (0, 0), BuildingBlock: KIFKEQ_clean_linker_1, # of connection points: 2
#     Edge 41, Type (0, 0), BuildingBlock: KIFKEQ_clean_linker_1, # of connection points: 2
#     Edge 42, Type (0, 0), BuildingBlock: KIFKEQ_clean_linker_1, # of connection points: 2
#     Edge 43, Type (0, 0), BuildingBlock: KIFKEQ_clean_linker_1, # of connection points: 2
#     Edge 44, Type (0, 0), BuildingBlock: KIFKEQ_clean_linker_1, # of connection points: 2
#     Edge 45, Type (0, 0), BuildingBlock: KIFKEQ_clean_linker_1, # of connection points: 2
#     Edge 46, Type (0, 0), BuildingBlock: KIFKEQ_clean_linker_1, # of connection points: 2
#     Edge 47, Type (0, 0), BuildingBlock: KIFKEQ_clean_linker_1, # of connection points: 2
#     Edge 48, Type (0, 0), BuildingBlock: KIFKEQ_clean_linker_1, # of connection points: 2
#     Edge 49, Type (0, 0), BuildingBlock: KIFKEQ_clean_linker_1, # of connection points: 2
#     Edge 50, Type (0, 0), BuildingBlock: KIFKEQ_clean_linker_1, # of connection points: 2
#     Edge 51, Type (0, 0), BuildingBlock: KIFKEQ_clean_linker_1, # of connection points: 2
#     Edge 52, Type (0, 0), BuildingBlock: KIFKEQ_clean_linker_1, # of connection points: 2
#     Edge 53, Type (0, 0), BuildingBlock: KIFKEQ_clean_linker_1, # of connection points: 2
#     Edge 54, Type (0, 0), BuildingBlock: KIFKEQ_clean_linker_1, # of connection points: 2
#     Edge 55, Type (0, 0), BuildingBlock: KIFKEQ_clean_linker_1, # of connection points: 2
#     Edge 56, Type (0, 0), BuildingBlock: KIFKEQ_clean_linker_1, # of connection points: 2
#     Edge 57, Type (0, 0), BuildingBlock: KIFKEQ_clean_linker_1, # of connection points: 2
#     Edge 58, Type (0, 0), BuildingBlock: KIFKEQ_clean_linker_1, # of connection points: 2
#     Edge 59, Type (0, 0), BuildingBlock: KIFKEQ_clean_linker_1, # of connection points: 2
#     Edge 60, Type (0, 0), BuildingBlock: KIFKEQ_clean_linker_1, # of connection points: 2
#     Edge 61, Type (0, 0), BuildingBlock: KIFKEQ_clean_linker_1, # of connection points: 2
#     Edge 62, Type (0, 0), BuildingBlock: KIFKEQ_clean_linker_1, # of connection points: 2
#     Edge 63, Type (0, 0), BuildingBlock: KIFKEQ_clean_linker_1, # of connection points: 2
# Relax obj value: 0.244
# Max RMSD: 0.241
# Mean RMSD: 0.241
data_MOF--net-vbx--node1-OJICUG_clean_sbu_0--edge1-KIFKEQ_clean_linker_1
_symmetry_space_group_name_H-M    P1
_symmetry_Int_Tables_number       1
_symmetry_cell_setting            triclinic
loop_
_symmetry_equiv_pos_as_xyz
'x, y, z'
_cell_length_a     48.222097
_cell_length_b     29.328517
_cell_length_c     59.154035
_cell_angle_alpha  89.953267
_cell_angle_beta   89.904809
_cell_angle_gamma 89.99825
loop_
_atom_site_label
_atom_site_type_symbol
_atom_site_fract_x
_atom_site_fract_y
_atom_site_fract_z
_atom_type_partial_charge
Sc0 Sc 0.34548 0.40816 0.10956 0.0
Sc1 Sc 0.28534 0.34013 0.10604 0.0
Sc2 Sc 0.34685 0.30636 0.07856 0.0
O3 O 0.3258 0.35149 0.09811 0.0
C4 C 0.36714 0.40312 0.05919 0.0
C5 C 0.28443 0.44826 0.10227 0.0
C6 C 0.28847 0.31391 0.05396 0.0
C7 C 0.31238 0.3722 0.1526 0.0
C8 C 0.39335 0.33243 0.11336 0.0
C9 C 0.30816 0.23792 0.10592 0.0
O10 O 0.35969 0.42659 0.07622 0.0
O11 O 0.27281 0.40956 0.10163 0.0
O12 O 0.31424 0.30545 0.05465 0.0
O13 O 0.33243 0.39341 0.14333 0.0
O14 O 0.3816 0.30315 0.10086 0.0
O15 O 0.29106 0.26868 0.11163 0.0
O16 O 0.38342 0.37199 0.11676 0.0
O17 O 0.29337 0.35191 0.14151 0.0
O18 O 0.32997 0.24631 0.0946 0.0
O19 O 0.31043 0.45294 0.10479 0.0
O20 O 0.36539 0.35987 0.05861 0.0
O21 O 0.2745 0.32707 0.07109 0.0
Sc22 Sc 0.64536 0.58474 0.6117 0.0
Sc23 Sc 0.70487 0.65392 0.6096 0.0
Sc24 Sc 0.64434 0.68671 0.58072 0.0
O25 O 0.66493 0.64183 0.60069 0.0
C26 C 0.62419 0.59029 0.56132 0.0
C27 C 0.70693 0.54687 0.60316 0.0
C28 C 0.70333 0.68499 0.55783 0.0
C29 C 0.6781 0.61595 0.6553 0.0
C30 C 0.59744 0.66021 0.61533 0.0
C31 C 0.68139 0.75456 0.61048 0.0
O32 O 0.63214 0.56674 0.57815 0.0
O33 O 0.71827 0.58585 0.60193 0.0
O34 O 0.67711 0.68743 0.55653 0.0
O35 O 0.65709 0.59795 0.64593 0.0
O36 O 0.6095 0.69003 0.60324 0.0
O37 O 0.69692 0.72351 0.61842 0.0
O38 O 0.60716 0.62038 0.6184 0.0
O39 O 0.69747 0.63539 0.6443 0.0
O40 O 0.66186 0.74638 0.59664 0.0
O41 O 0.68118 0.54164 0.60707 0.0
O42 O 0.62541 0.63358 0.5609 0.0
O43 O 0.71624 0.67486 0.5759 0.0
Sc44 Sc 0.34809 0.67377 0.89501 0.0
Sc45 Sc 0.28742 0.64129 0.86612 0.0
Sc46 Sc 0.34704 0.57212 0.86364 0.0
O47 O 0.32745 0.62912 0.8749 0.0
C48 C 0.3953 0.64708 0.86051 0.0
C49 C 0.31136 0.74246 0.86572 0.0
C50 C 0.31456 0.60604 0.82011 0.0
C51 C 0.28876 0.67047 0.91795 0.0
C52 C 0.36756 0.57677 0.9144 0.0
C53 C 0.28556 0.53358 0.87147 0.0
O54 O 0.3835 0.67629 0.87309 0.0
O55 O 0.29478 0.71186 0.85886 0.0
O56 O 0.335 0.58614 0.82946 0.0
O57 O 0.31486 0.67566 0.91876 0.0
O58 O 0.3605 0.5536 0.89717 0.0
O59 O 0.2741 0.57249 0.87227 0.0
O60 O 0.36585 0.62 0.91513 0.0
O61 O 0.27576 0.6587 0.90018 0.0
O62 O 0.31145 0.52853 0.86827 0.0
O63 O 0.33176 0.73388 0.87863 0.0
O64 O 0.38522 0.60776 0.85681 0.0
O65 O 0.29545 0.62604 0.83116 0.0
Sc66 Sc 0.6482 0.42351 0.36683 0.0
Sc67 Sc 0.70735 0.35309 0.36849 0.0
Sc68 Sc 0.6467 0.32114 0.3976 0.0
O69 O 0.6675 0.36589 0.37762 0.0
C70 C 0.62633 0.4174 0.4171 0.0
C71 C 0.70985 0.46063 0.37502 0.0
C72 C 0.7057 0.32324 0.42036 0.0
C73 C 0.68075 0.39152 0.32301 0.0
C74 C 0.60021 0.34808 0.36273 0.0
C75 C 0.68377 0.25232 0.36832 0.0
O76 O 0.63425 0.44102 0.40027 0.0
O77 O 0.72109 0.42148 0.37523 0.0
O78 O 0.6795 0.3203 0.42162 0.0
O79 O 0.6606 0.41163 0.33263 0.0
O80 O 0.61194 0.31837 0.3751 0.0
O81 O 0.69956 0.28309 0.36046 0.0
O82 O 0.61014 0.38777 0.35953 0.0
O83 O 0.69943 0.36985 0.33371 0.0
O84 O 0.66392 0.26096 0.38183 0.0
O85 O 0.68395 0.46632 0.37212 0.0
O86 O 0.62785 0.37418 0.41754 0.0
O87 O 0.71879 0.33345 0.40234 0.0
Sc88 Sc 0.64498 0.57443 0.86685 0.0
Sc89 Sc 0.70331 0.64623 0.87135 0.0
Sc90 Sc 0.63916 0.68059 0.89406 0.0
O91 O 0.66253 0.63375 0.87739 0.0
C92 C 0.59547 0.64513 0.85834 0.0
C93 C 0.68116 0.60661 0.82464 0.0
C94 C 0.67787 0.74675 0.86607 0.0
C95 C 0.70584 0.53857 0.87835 0.0
C96 C 0.61988 0.58558 0.91604 0.0
C97 C 0.69617 0.68176 0.92151 0.0
O98 O 0.60712 0.60657 0.85609 0.0
O99 O 0.69796 0.63106 0.836 0.0
O100 O 0.65466 0.73843 0.87539 0.0
O101 O 0.68002 0.53265 0.87551 0.0
O102 O 0.62182 0.62886 0.91584 0.0
O103 O 0.71115 0.66311 0.90633 0.0
O104 O 0.62779 0.56056 0.89971 0.0
O105 O 0.71699 0.57768 0.87771 0.0
O106 O 0.67059 0.69041 0.91883 0.0
O107 O 0.66126 0.58421 0.83346 0.0
O108 O 0.60522 0.67637 0.87082 0.0
O109 O 0.69667 0.71684 0.86387 0.0
Sc110 Sc 0.35559 0.32006 0.39382 0.0
Sc111 Sc 0.29174 0.35152 0.36965 0.0
Sc112 Sc 0.34999 0.42313 0.36378 0.0
O113 O 0.33238 0.36488 0.37572 0.0
C114 C 0.37397 0.41762 0.41351 0.0
C115 C 0.29817 0.32109 0.42078 0.0
C116 C 0.28871 0.45955 0.37376 0.0
C117 C 0.31757 0.2509 0.36696 0.0
C118 C 0.39995 0.35212 0.35783 0.0
C119 C 0.31476 0.3863 0.3221 0.0
O120 O 0.3727 0.37428 0.41413 0.0
O121 O 0.28334 0.33718 0.40484 0.0
O122 O 0.31447 0.46529 0.37044 0.0
O123 O 0.34031 0.26008 0.37678 0.0
O124 O 0.38843 0.39056 0.35477 0.0
O125 O 0.29747 0.36393 0.33406 0.0
O126 O 0.38975 0.32167 0.3706 0.0
O127 O 0.29889 0.28055 0.36353 0.0
O128 O 0.33485 0.40902 0.33038 0.0
O129 O 0.32392 0.31309 0.41871 0.0
O130 O 0.36587 0.441 0.39662 0.0
O131 O 0.2777 0.42034 0.37462 0.0
Sc132 Sc 0.63975 0.31657 0.07937 0.0
Sc133 Sc 0.7009 0.34704 0.10782 0.0
Sc134 Sc 0.64232 0.41789 0.1103 0.0
O135 O 0.66114 0.36051 0.09912 0.0
C136 C 0.62077 0.41417 0.06037 0.0
C137 C 0.69825 0.31631 0.05595 0.0
C138 C 0.70451 0.45381 0.10235 0.0
C139 C 0.67635 0.24724 0.10873 0.0
C140 C 0.59346 0.3443 0.11387 0.0
C141 C 0.67437 0.38479 0.15365 0.0
O142 O 0.62046 0.37078 0.06026 0.0
O143 O 0.71144 0.32501 0.07409 0.0
O144 O 0.67895 0.45939 0.10685 0.0
O145 O 0.65726 0.25608 0.09458 0.0
O146 O 0.60319 0.38437 0.11586 0.0
O147 O 0.69401 0.36648 0.14249 0.0
O148 O 0.6058 0.31317 0.10284 0.0
O149 O 0.69187 0.27789 0.11704 0.0
O150 O 0.65305 0.40227 0.14447 0.0
O151 O 0.67197 0.31604 0.05462 0.0
O152 O 0.63029 0.43736 0.07676 0.0
O153 O 0.71531 0.41464 0.09986 0.0
Sc154 Sc 0.35325 0.68403 0.57994 0.0
Sc155 Sc 0.2899 0.64931 0.60401 0.0
Sc156 Sc 0.34873 0.57825 0.60769 0.0
O157 O 0.33057 0.63719 0.59725 0.0
C158 C 0.37287 0.58903 0.55814 0.0
C159 C 0.29565 0.68337 0.55341 0.0
C160 C 0.28778 0.54141 0.59748 0.0
C161 C 0.31471 0.75044 0.60803 0.0
C162 C 0.3977 0.65036 0.61542 0.0
C163 C 0.31343 0.61033 0.65044 0.0
O164 O 0.37074 0.63227 0.55825 0.0
O165 O 0.28102 0.66546 0.56905 0.0
O166 O 0.31373 0.53578 0.59971 0.0
O167 O 0.33764 0.7422 0.59827 0.0
O168 O 0.38655 0.61143 0.61785 0.0
O169 O 0.2963 0.63478 0.63937 0.0
O170 O 0.38748 0.68119 0.60291 0.0
O171 O 0.29624 0.72022 0.61097 0.0
O172 O 0.33311 0.58801 0.64127 0.0
O173 O 0.32128 0.69213 0.55558 0.0
O174 O 0.36531 0.56411 0.57464 0.0
O175 O 0.2765 0.58041 0.59827 0.0
Sc176 Sc 0.84277 0.91825 0.11172 0.0
Sc177 Sc 0.78428 0.84627 0.10997 0.0
Sc178 Sc 0.84627 0.81382 0.08276 0.0
O179 O 0.82436 0.85941 0.1015 0.0
C180 C 0.86506 0.90974 0.06156 0.0
C181 C 0.78117 0.95413 0.10334 0.0
C182 C 0.78736 0.81496 0.05858 0.0
C183 C 0.80993 0.88519 0.15558 0.0
C184 C 0.89202 0.84588 0.11745 0.0
C185 C 0.8095 0.7455 0.11184 0.0
O186 O 0.8575 0.93406 0.07825 0.0
O187 O 0.77007 0.91494 0.10426 0.0
O188 O 0.81339 0.80821 0.05882 0.0
O189 O 0.82923 0.90746 0.14586 0.0
O190 O 0.88117 0.81505 0.10527 0.0
O191 O 0.79169 0.7756 0.11698 0.0
O192 O 0.88111 0.88493 0.12015 0.0
O193 O 0.7922 0.8612 0.14499 0.0
O194 O 0.83101 0.75434 0.10023 0.0
O195 O 0.80713 0.96009 0.1052 0.0
O196 O 0.86349 0.86648 0.06155 0.0
O197 O 0.77365 0.82929 0.07558 0.0
Sc198 Sc 0.14733 0.07832 0.60768 0.0
Sc199 Sc 0.20595 0.14966 0.60673 0.0
Sc200 Sc 0.145 0.18147 0.57802 0.0
O201 O 0.16625 0.13651 0.59745 0.0
C202 C 0.12652 0.08489 0.55753 0.0
C203 C 0.20952 0.04243 0.60068 0.0
C204 C 0.20421 0.18079 0.55497 0.0
C205 C 0.17812 0.11145 0.65192 0.0
C206 C 0.09825 0.15142 0.61184 0.0
C207 C 0.18151 0.25015 0.60753 0.0
O208 O 0.13536 0.0608 0.57387 0.0
O209 O 0.22049 0.08172 0.59984 0.0
O210 O 0.17796 0.18392 0.5539 0.0
O211 O 0.15793 0.09199 0.64207 0.0
O212 O 0.11033 0.18304 0.60092 0.0
O213 O 0.19769 0.21952 0.61498 0.0
O214 O 0.1083 0.11156 0.6137 0.0
O215 O 0.19762 0.13179 0.64144 0.0
O216 O 0.16162 0.24144 0.59416 0.0
O217 O 0.18369 0.03655 0.60371 0.0
O218 O 0.12658 0.12825 0.55781 0.0
O219 O 0.21731 0.16978 0.57286 0.0
Sc220 Sc 0.84912 0.17747 0.89612 0.0
Sc221 Sc 0.78626 0.14596 0.87018 0.0
Sc222 Sc 0.84493 0.07487 0.86605 0.0
O223 O 0.82665 0.13281 0.87744 0.0
C224 C 0.89472 0.14661 0.86131 0.0
C225 C 0.81132 0.24704 0.86901 0.0
C226 C 0.81221 0.11275 0.82333 0.0
C227 C 0.79094 0.17455 0.92181 0.0
C228 C 0.86713 0.07982 0.91606 0.0
C229 C 0.78321 0.03802 0.87387 0.0
O230 O 0.88358 0.17767 0.87315 0.0
O231 O 0.79327 0.21708 0.86432 0.0
O232 O 0.83208 0.09061 0.83231 0.0
O233 O 0.81684 0.18205 0.92054 0.0
O234 O 0.85872 0.05627 0.89937 0.0
O235 O 0.77217 0.07715 0.87486 0.0
O236 O 0.86661 0.12322 0.91628 0.0
O237 O 0.77654 0.16014 0.90521 0.0
O238 O 0.80906 0.03243 0.87096 0.0
O239 O 0.83349 0.23785 0.87963 0.0
O240 O 0.88383 0.10756 0.85877 0.0
O241 O 0.79358 0.13353 0.83468 0.0
Sc242 Sc 0.15127 0.92366 0.36249 0.0
Sc243 Sc 0.20932 0.85093 0.36538 0.0
Sc244 Sc 0.14658 0.8196 0.39174 0.0
O245 O 0.16914 0.86468 0.37319 0.0
C246 C 0.12798 0.91608 0.4123 0.0
C247 C 0.21299 0.95852 0.37188 0.0
C248 C 0.20489 0.81916 0.41669 0.0
C249 C 0.18493 0.89009 0.3193 0.0
C250 C 0.10152 0.85219 0.35661 0.0
C251 C 0.18356 0.75074 0.3631 0.0
O252 O 0.1363 0.94016 0.39575 0.0
O253 O 0.22387 0.91913 0.37169 0.0
O254 O 0.17877 0.81365 0.4163 0.0
O255 O 0.16515 0.912 0.32853 0.0
O256 O 0.1122 0.82103 0.36871 0.0
O257 O 0.20145 0.78068 0.35789 0.0
O258 O 0.11269 0.89108 0.35401 0.0
O259 O 0.20255 0.86669 0.33033 0.0
O260 O 0.16209 0.75978 0.37473 0.0
O261 O 0.18719 0.96487 0.36909 0.0
O262 O 0.12906 0.87278 0.41239 0.0
O263 O 0.21901 0.83283 0.39977 0.0
Sc264 Sc 0.14286 0.07157 0.86483 0.0
Sc265 Sc 0.2022 0.14117 0.86744 0.0
Sc266 Sc 0.14208 0.17139 0.89742 0.0
O267 O 0.16245 0.128 0.87655 0.0
C268 C 0.09524 0.14797 0.86247 0.0
C269 C 0.17542 0.10515 0.8215 0.0
C270 C 0.17872 0.24147 0.86833 0.0
C271 C 0.20461 0.03371 0.87255 0.0
C272 C 0.12131 0.07391 0.91518 0.0
C273 C 0.20096 0.16868 0.91972 0.0
O274 O 0.10467 0.1081 0.8588 0.0
O275 O 0.19462 0.12454 0.83262 0.0
O276 O 0.15989 0.23236 0.88272 0.0
O277 O 0.17883 0.02846 0.86877 0.0
O278 O 0.12259 0.11713 0.9162 0.0
O279 O 0.21373 0.16109 0.90124 0.0
O280 O 0.12956 0.05141 0.8981 0.0
O281 O 0.21585 0.07274 0.87425 0.0
O282 O 0.17476 0.16929 0.92152 0.0
O283 O 0.15457 0.08622 0.83071 0.0
O284 O 0.10753 0.17685 0.87492 0.0
O285 O 0.19372 0.21091 0.85932 0.0
Sc286 Sc 0.85564 0.81937 0.3978 0.0
Sc287 Sc 0.79302 0.85388 0.37246 0.0
Sc288 Sc 0.85291 0.92199 0.36717 0.0
O289 O 0.8338 0.86504 0.37911 0.0
C290 C 0.87573 0.91607 0.41728 0.0
C291 C 0.79783 0.82388 0.42385 0.0
C292 C 0.79215 0.96192 0.37664 0.0
C293 C 0.81672 0.75195 0.3704 0.0
C294 C 0.90125 0.84756 0.36212 0.0
C295 C 0.81779 0.88711 0.32515 0.0
O296 O 0.87362 0.87284 0.41804 0.0
O297 O 0.78353 0.83948 0.40749 0.0
O298 O 0.81799 0.9665 0.37313 0.0
O299 O 0.83916 0.75998 0.38092 0.0
O300 O 0.89068 0.88659 0.3586 0.0
O301 O 0.79941 0.86676 0.33693 0.0
O302 O 0.89026 0.81835 0.37515 0.0
O303 O 0.79894 0.78266 0.36615 0.0
O304 O 0.83844 0.90796 0.33368 0.0
O305 O 0.82352 0.81518 0.4223 0.0
O306 O 0.86845 0.93958 0.40019 0.0
O307 O 0.78053 0.92322 0.37775 0.0
Sc308 Sc 0.13688 0.8033 0.07942 0.0
Sc309 Sc 0.19979 0.84014 0.1034 0.0
Sc310 Sc 0.13976 0.90804 0.10812 0.0
O311 O 0.15887 0.85045 0.09702 0.0
C312 C 0.11618 0.89836 0.05842 0.0
C313 C 0.19426 0.8059 0.05275 0.0
C314 C 0.2002 0.94767 0.09712 0.0
C315 C 0.17643 0.73839 0.10775 0.0
C316 C 0.09172 0.83375 0.115 0.0
C317 C 0.17584 0.87708 0.15027 0.0
O318 O 0.11856 0.85514 0.05827 0.0
O319 O 0.20876 0.823 0.06861 0.0
O320 O 0.17441 0.95231 0.10087 0.0
O321 O 0.15379 0.74546 0.09733 0.0
O322 O 0.10228 0.87299 0.11781 0.0
O323 O 0.19408 0.85593 0.13872 0.0
O324 O 0.10255 0.8038 0.10233 0.0
O325 O 0.1942 0.76949 0.11122 0.0
O326 O 0.15491 0.89682 0.1416 0.0
O327 O 0.16862 0.79725 0.05474 0.0
O328 O 0.12352 0.92299 0.07507 0.0
O329 O 0.21192 0.90903 0.09657 0.0
Sc330 Sc 0.85211 0.18731 0.58033 0.0
Sc331 Sc 0.79012 0.15291 0.60672 0.0
Sc332 Sc 0.85025 0.08493 0.61124 0.0
O333 O 0.83079 0.14174 0.59951 0.0
C334 C 0.87313 0.09105 0.56103 0.0
C335 C 0.79411 0.18033 0.55497 0.0
C336 C 0.78967 0.04461 0.60251 0.0
C337 C 0.81331 0.25508 0.60767 0.0
C338 C 0.89804 0.16061 0.61585 0.0
C339 C 0.81515 0.11928 0.65365 0.0
O340 O 0.87031 0.13411 0.56009 0.0
O341 O 0.77998 0.16552 0.57165 0.0
O342 O 0.81569 0.03998 0.60495 0.0
O343 O 0.83564 0.2469 0.597 0.0
O344 O 0.88769 0.12153 0.61985 0.0
O345 O 0.7973 0.14155 0.64224 0.0
O346 O 0.88684 0.18915 0.60261 0.0
O347 O 0.79565 0.2244 0.61227 0.0
O348 O 0.83523 0.09747 0.64478 0.0
O349 O 0.81969 0.1899 0.55624 0.0
O350 O 0.8663 0.06764 0.57828 0.0
O351 O 0.77793 0.08326 0.60236 0.0
H352 H 0.26996 0.20505 0.13581 0.0
H353 H 0.3247 0.16309 0.08177 0.0
H354 H 0.24555 0.13263 0.13326 0.0
H355 H 0.2999 0.09084 0.07899 0.0
H356 H 0.25673 0.95195 0.09233 0.0
H357 H 0.28634 0.01862 0.09686 0.0
H358 H 0.21375 0.10352 0.10451 0.0
H359 H 0.18409 0.03697 0.10043 0.0
C360 C 0.27719 0.17996 0.12373 0.0
C361 C 0.29907 0.19008 0.10882 0.0
C362 C 0.26298 0.13868 0.12208 0.0
C363 C 0.27027 0.10662 0.10547 0.0
C364 C 0.29369 0.11496 0.09189 0.0
C365 C 0.30802 0.1563 0.09359 0.0
C366 C 0.24701 0.98489 0.09472 0.0
C367 C 0.21795 0.98894 0.0962 0.0
C368 C 0.26405 0.02309 0.09734 0.0
C369 C 0.25242 0.06616 0.10152 0.0
C370 C 0.22337 0.07055 0.10194 0.0
C371 C 0.20634 0.03244 0.09931 0.0
H372 H 0.66578 0.83005 0.58634 0.0
H373 H 0.7184 0.78706 0.64151 0.0
H374 H 0.69061 0.90223 0.58444 0.0
H375 H 0.74287 0.85953 0.63976 0.0
H376 H 0.73316 0.04047 0.59807 0.0
H377 H 0.7034 0.97405 0.60288 0.0
H378 H 0.77575 0.88905 0.61157 0.0
H379 H 0.80557 0.95541 0.60719 0.0
C380 C 0.682 0.83651 0.59857 0.0
C381 C 0.69037 0.80238 0.61385 0.0
C382 C 0.69633 0.87789 0.59739 0.0
C383 C 0.7192 0.88601 0.61153 0.0
C384 C 0.72587 0.85365 0.62818 0.0
C385 C 0.71161 0.81232 0.62935 0.0
C386 C 0.74279 0.00757 0.60081 0.0
C387 C 0.77184 0.00341 0.60235 0.0
C388 C 0.72567 0.96952 0.60358 0.0
C389 C 0.73719 0.92647 0.608 0.0
C390 C 0.76621 0.922 0.60875 0.0
C391 C 0.78334 0.95999 0.60595 0.0
H392 H 0.32784 0.81789 0.88948 0.0
H393 H 0.27502 0.77553 0.83438 0.0
H394 H 0.30388 0.89105 0.89084 0.0
H395 H 0.25145 0.84885 0.83558 0.0
H396 H 0.18903 0.94449 0.86821 0.0
H397 H 0.21884 0.8783 0.86395 0.0
H398 H 0.29119 0.96349 0.87202 0.0
H399 H 0.26133 0.03007 0.87661 0.0
C400 C 0.31179 0.8247 0.87714 0.0
C401 C 0.30304 0.79052 0.86206 0.0
C402 C 0.29797 0.86663 0.878 0.0
C403 C 0.27526 0.87516 0.86375 0.0
C404 C 0.26833 0.84269 0.84724 0.0
C405 C 0.28205 0.80084 0.8464 0.0
C406 C 0.21126 0.94925 0.86928 0.0
C407 C 0.22271 0.99279 0.87266 0.0
C408 C 0.22838 0.91131 0.86657 0.0
C409 C 0.2574 0.91582 0.86718 0.0
C410 C 0.26891 0.95897 0.8714 0.0
C411 C 0.25175 0.99708 0.87407 0.0
H412 H 0.73569 0.96637 0.38206 0.0
H413 H 0.80797 0.051 0.37129 0.0
H414 H 0.7059 0.03287 0.37746 0.0
H415 H 0.77817 0.11737 0.36709 0.0
H416 H 0.72046 0.21879 0.33723 0.0
H417 H 0.74493 0.14635 0.33926 0.0
H418 H 0.69338 0.10542 0.39549 0.0
H419 H 0.66855 0.17764 0.3933 0.0
C420 C 0.7453 -0.00081 0.37901 0.0
C421 C 0.77431 0.00317 0.37693 0.0
C422 C 0.72816 0.03729 0.37636 0.0
C423 C 0.73962 0.08022 0.3715 0.0
C424 C 0.76864 0.08452 0.37024 0.0
C425 C 0.78577 0.04651 0.37294 0.0
C426 C 0.71382 0.19392 0.34966 0.0
C427 C 0.69275 0.20436 0.36529 0.0
C428 C 0.72809 0.1526 0.35099 0.0
C429 C 0.72162 0.12072 0.36795 0.0
C430 C 0.69895 0.12936 0.38229 0.0
C431 C 0.6846 0.17074 0.38094 0.0
H432 H 0.79879 0.94847 0.8725 0.0
H433 H 0.72626 0.03519 0.87412 0.0
H434 H 0.76927 0.88224 0.86743 0.0
H435 H 0.69669 0.96851 0.86868 0.0
H436 H 0.658 0.82394 0.88632 0.0
H437 H 0.6815 0.8976 0.88766 0.0
H438 H 0.74006 0.85085 0.83745 0.0
H439 H 0.71697 0.77707 0.83644 0.0
C440 C 0.77655 0.95347 0.87189 0.0
C441 C 0.76497 0.99731 0.87361 0.0
C442 C 0.75961 0.91549 0.86871 0.0
C443 C 0.73067 0.92027 0.86713 0.0
C444 C 0.71893 0.96378 0.86973 0.0
C445 C 0.73591 0.00194 0.87291 0.0
C446 C 0.67529 0.82994 0.87499 0.0
C447 C 0.6859 0.7945 0.86151 0.0
C448 C 0.68885 0.8721 0.87586 0.0
C449 C 0.71312 0.87948 0.86316 0.0
C450 C 0.72192 0.84563 0.84796 0.0
C451 C 0.70851 0.80355 0.84719 0.0
H452 H 0.19762 0.04811 0.37229 0.0
H453 H 0.27003 0.96104 0.37323 0.0
H454 H 0.22727 0.11452 0.36855 0.0
H455 H 0.29978 0.02818 0.36932 0.0
H456 H 0.33681 0.17474 0.38871 0.0
H457 H 0.31381 0.10044 0.3899 0.0
H458 H 0.25732 0.14468 0.33774 0.0
H459 H 0.27996 0.2188 0.33671 0.0
C460 C 0.21986 0.04304 0.37188 0.0
C461 C 0.23136 -0.00095 0.37286 0.0
C462 C 0.23686 0.08117 0.36949 0.0
C463 C 0.26581 0.07641 0.36809 0.0
C464 C 0.27751 0.03278 0.3702 0.0
C465 C 0.26044 0.9944 0.3725 0.0
C466 C 0.32011 0.16803 0.37695 0.0
C467 C 0.30991 0.20283 0.36285 0.0
C468 C 0.30685 0.12556 0.37774 0.0
C469 C 0.28329 0.11734 0.36439 0.0
C470 C 0.27494 0.15058 0.3487 0.0
C471 C 0.28808 0.19287 0.34795 0.0
H472 H 0.72419 0.95745 0.10128 0.0
H473 H 0.79694 0.04355 0.10427 0.0
H474 H 0.69465 0.02481 0.10523 0.0
H475 H 0.76748 0.1102 0.10811 0.0
H476 H 0.65882 0.17153 0.08554 0.0
H477 H 0.68199 0.09758 0.0844 0.0
H478 H 0.73615 0.14004 0.13846 0.0
H479 H 0.71328 0.21392 0.13961 0.0
C480 C 0.7339 0.99064 0.10251 0.0
C481 C 0.763 0.99494 0.10261 0.0
C482 C 0.71696 0.02915 0.10482 0.0
C483 C 0.72879 0.07256 0.10748 0.0
C484 C 0.75778 0.077 0.10669 0.0
C485 C 0.77467 0.03875 0.10424 0.0
C486 C 0.67511 0.16469 0.09766 0.0
C487 C 0.68452 0.19906 0.11239 0.0
C488 C 0.68843 0.12231 0.09693 0.0
C489 C 0.71134 0.11361 0.11091 0.0
C490 C 0.719 0.14634 0.12706 0.0
C491 C 0.70572 0.18855 0.12783 0.0
H492 H 0.26654 0.03954 0.60043 0.0
H493 H 0.19395 0.9529 0.60123 0.0
H494 H 0.29604 0.97253 0.60545 0.0
H495 H 0.22338 0.88647 0.60595 0.0
H496 H 0.33449 0.82758 0.58749 0.0
H497 H 0.31111 0.90138 0.58606 0.0
H498 H 0.2524 0.85491 0.63624 0.0
H499 H 0.27538 0.78107 0.6374 0.0
C500 C 0.25686 0.00626 0.60137 0.0
C501 C 0.2278 0.00173 0.60058 0.0
C502 C 0.2738 0.96793 0.60431 0.0
C503 C 0.262 0.92438 0.60661 0.0
C504 C 0.23307 0.91973 0.60489 0.0
C505 C 0.21619 0.95785 0.60192 0.0
C506 C 0.31717 0.83364 0.59878 0.0
C507 C 0.30652 0.79826 0.61232 0.0
C508 C 0.30369 0.87589 0.59786 0.0
C509 C 0.27944 0.88342 0.61054 0.0
C510 C 0.27054 0.84959 0.62575 0.0
C511 C 0.28389 0.80745 0.62659 0.0
H512 H 0.77176 0.71232 0.14208 0.0
H513 H 0.82854 0.66986 0.08954 0.0
H514 H 0.74896 0.63838 0.1404 0.0
H515 H 0.80532 0.59607 0.08764 0.0
H516 H 0.76149 0.4568 0.10047 0.0
H517 H 0.7912 0.52339 0.10605 0.0
H518 H 0.71859 0.60915 0.11043 0.0
H519 H 0.68899 0.54314 0.10515 0.0
C520 C 0.77983 0.68683 0.13057 0.0
C521 C 0.80168 0.69729 0.11569 0.0
C522 C 0.76657 0.64462 0.12944 0.0
C523 C 0.77481 0.61199 0.11339 0.0
C524 C 0.7984 0.62064 0.10009 0.0
C525 C 0.81178 0.66292 0.10127 0.0
C526 C 0.75187 0.48995 0.10237 0.0
C527 C 0.72279 0.49449 0.10251 0.0
C528 C 0.76892 0.52803 0.10565 0.0
C529 C 0.75722 0.57131 0.1092 0.0
C530 C 0.72824 0.57604 0.10841 0.0
C531 C 0.71125 0.53818 0.10512 0.0
H532 H 0.30353 0.45187 0.599 0.0
H533 H 0.23089 0.53811 0.59537 0.0
H534 H 0.27394 0.38555 0.60397 0.0
H535 H 0.2013 0.47134 0.60057 0.0
H536 H 0.21987 0.28356 0.6372 0.0
H537 H 0.24344 0.35671 0.63461 0.0
H538 H 0.18726 0.39867 0.58179 0.0
H539 H 0.16337 0.32561 0.58445 0.0
C540 C 0.28127 0.45674 0.59903 0.0
C541 C 0.26967 0.50052 0.59693 0.0
C542 C 0.2643 0.41872 0.60216 0.0
C543 C 0.23532 0.42341 0.60319 0.0
C544 C 0.22358 0.46674 0.59998 0.0
C545 C 0.24058 0.50494 0.59694 0.0
C546 C 0.21202 0.30875 0.62543 0.0
C547 C 0.19 0.29829 0.61077 0.0
C548 C 0.22574 0.3505 0.62379 0.0
C549 C 0.21771 0.38281 0.60752 0.0
C550 C 0.19404 0.37429 0.59438 0.0
C551 C 0.18026 0.33241 0.59601 0.0
H552 H 0.76278 0.53562 0.88019 0.0
H553 H 0.69022 0.44898 0.87832 0.0
H554 H 0.7924 0.46868 0.87545 0.0
H555 H 0.7198 0.3826 0.87379 0.0
H556 H 0.83037 0.3221 0.89176 0.0
H557 H 0.80683 0.39565 0.89457 0.0
H558 H 0.74955 0.35408 0.84249 0.0
H559 H 0.77277 0.28062 0.8398 0.0
C560 C 0.75313 0.50235 0.87914 0.0
C561 C 0.72403 0.49783 0.87942 0.0
C562 C 0.77014 0.46407 0.87636 0.0
C563 C 0.75838 0.42062 0.87369 0.0
C564 C 0.72943 0.41586 0.87515 0.0
C565 C 0.71247 0.45394 0.87801 0.0
C566 C 0.81335 0.32922 0.88037 0.0
C567 C 0.80316 0.29524 0.86579 0.0
C568 C 0.79977 0.37128 0.8821 0.0
C569 C 0.77587 0.37998 0.86924 0.0
C570 C 0.76743 0.34773 0.85311 0.0
C571 C 0.78092 0.30584 0.8514 0.0
H572 H 0.30423 0.54905 0.37162 0.0
H573 H 0.23175 0.46242 0.37536 0.0
H574 H 0.27458 0.61503 0.36614 0.0
H575 H 0.20206 0.52893 0.36963 0.0
H576 H 0.16433 0.67541 0.38559 0.0
H577 H 0.18769 0.6018 0.38803 0.0
H578 H 0.2445 0.64349 0.33544 0.0
H579 H 0.22149 0.7172 0.33316 0.0
C580 C 0.28197 0.54402 0.37146 0.0
C581 C 0.27045 0.50025 0.37379 0.0
C582 C 0.26498 0.58185 0.36804 0.0
C583 C 0.23602 0.57698 0.3669 0.0
C584 C 0.22432 0.53366 0.37029 0.0
C585 C 0.24137 0.49562 0.37365 0.0
C586 C 0.1812 0.66835 0.374 0.0
C587 C 0.19137 0.7025 0.35945 0.0
C588 C 0.19467 0.62619 0.3755 0.0
C589 C 0.21843 0.61749 0.36242 0.0
C590 C 0.22675 0.64983 0.34623 0.0
C591 C 0.21337 0.69188 0.34476 0.0
H592 H 0.30126 0.44457 0.86631 0.0
H593 H 0.22917 0.52925 0.87785 0.0
H594 H 0.27153 0.37793 0.86349 0.0
H595 H 0.1994 0.46219 0.87479 0.0
H596 H 0.16477 0.31589 0.89399 0.0
H597 H 0.18884 0.38905 0.89466 0.0
H598 H 0.23683 0.34878 0.83631 0.0
H599 H 0.21309 0.2756 0.83569 0.0
C600 C 0.27911 0.44904 0.86839 0.0
C601 C 0.26767 0.49244 0.8722 0.0
C602 C 0.26202 0.41084 0.86652 0.0
C603 C 0.23308 0.41498 0.86849 0.0
C604 C 0.22163 0.45799 0.87312 0.0
C605 C 0.23873 0.49637 0.87489 0.0
C606 C 0.17986 0.3231 0.88089 0.0
C607 C 0.18729 0.28954 0.86499 0.0
C608 C 0.19373 0.36501 0.88135 0.0
C609 C 0.21521 0.37411 0.8659 0.0
C610 C 0.22089 0.34218 0.84882 0.0
C611 C 0.20708 0.3004 0.84835 0.0
H612 H 0.83439 0.67511 0.39245 0.0
H613 H 0.77858 0.72123 0.34014 0.0
H614 H 0.81037 0.60181 0.39357 0.0
H615 H 0.75494 0.64796 0.34104 0.0
H616 H 0.69423 0.55023 0.37377 0.0
H617 H 0.72395 0.61672 0.37025 0.0
H618 H 0.79648 0.53065 0.37368 0.0
H619 H 0.76673 0.4637 0.37751 0.0
C620 C 0.81766 0.66908 0.38063 0.0
C621 C 0.80813 0.70421 0.36643 0.0
C622 C 0.8038 0.62714 0.38137 0.0
C623 C 0.78028 0.61966 0.36785 0.0
C624 C 0.77248 0.65325 0.35216 0.0
C625 C 0.78622 0.69506 0.35147 0.0
C626 C 0.71649 0.54531 0.37399 0.0
C627 C 0.72801 0.50144 0.37578 0.0
C628 C 0.73355 0.58346 0.37172 0.0
C629 C 0.76256 0.57881 0.37119 0.0
C630 C 0.77419 0.53527 0.37394 0.0
C631 C 0.7571 0.49695 0.37617 0.0
H632 H 0.22769 0.45187 0.10022 0.0
H633 H 0.30035 0.53777 0.10507 0.0
H634 H 0.19808 0.51843 0.10489 0.0
H635 H 0.27065 0.6043 0.10923 0.0
H636 H 0.15896 0.66053 0.08673 0.0
H637 H 0.18369 0.58806 0.08579 0.0
H638 H 0.23962 0.63692 0.13735 0.0
H639 H 0.2153 0.70964 0.13796 0.0
C640 C 0.2374 0.48497 0.10199 0.0
C641 C 0.26649 0.48935 0.10236 0.0
C642 C 0.22035 0.52312 0.10469 0.0
C643 C 0.23198 0.56654 0.10781 0.0
C644 C 0.26103 0.57113 0.10745 0.0
C645 C 0.27808 0.53302 0.10478 0.0
C646 C 0.17596 0.65528 0.0984 0.0
C647 C 0.1854 0.69104 0.11221 0.0
C648 C 0.19025 0.61379 0.09777 0.0
C649 C 0.2141 0.60726 0.11104 0.0
C650 C 0.22185 0.64146 0.1264 0.0
C651 C 0.2077 0.68292 0.12695 0.0
H652 H 0.77566 0.28641 0.63827 0.0
H653 H 0.83047 0.33129 0.58485 0.0
H654 H 0.75208 0.35975 0.63737 0.0
H655 H 0.80648 0.40458 0.5837 0.0
H656 H 0.76368 0.54313 0.59951 0.0
H657 H 0.79326 0.47602 0.60323 0.0
H658 H 0.72052 0.39082 0.60881 0.0
H659 H 0.69097 0.45753 0.60546 0.0
C660 C 0.78308 0.31232 0.62668 0.0
C661 C 0.8047 0.30285 0.61144 0.0
C662 C 0.76938 0.35415 0.626 0.0
C663 C 0.77691 0.38738 0.61001 0.0
C664 C 0.80013 0.37954 0.59614 0.0
C665 C 0.81397 0.33762 0.59689 0.0
C666 C 0.75396 0.51003 0.60131 0.0
C667 C 0.72488 0.50585 0.60236 0.0
C668 C 0.77096 0.47162 0.60347 0.0
C669 C 0.75924 0.4283 0.60679 0.0
C670 C 0.7302 0.42393 0.60691 0.0
C671 C 0.71324 0.46219 0.60473 0.0
H672 H 0.36366 0.37102 0.01618 0.0
H673 H 0.38835 0.48942 0.05456 0.0
H674 H 0.36966 0.41314 0.98136 0.0
H675 H 0.39614 0.53123 0.01946 0.0
H676 H 0.36356 0.60841 0.95747 0.0
H677 H 0.36944 0.56615 -0.00777 0.0
H678 H 0.39622 0.4483 0.954 0.0
H679 H 0.38856 0.49028 0.91894 0.0
C680 C 0.3712 0.40577 0.01715 0.0
C681 C 0.37527 0.42704 0.03816 0.0
C682 C 0.37484 0.43001 -0.00294 0.0
C683 C 0.38319 0.47598 -0.0026 0.0
C684 C 0.38899 0.49631 0.01846 0.0
C685 C 0.38475 0.47229 0.03862 0.0
C686 C 0.37111 0.57367 0.95645 0.0
C687 C 0.37534 0.55255 0.93541 0.0
C688 C 0.3747 0.54936 0.97651 0.0
C689 C 0.38314 0.50344 0.97613 0.0
C690 C 0.38901 0.48319 0.95504 0.0
C691 C 0.38483 0.50731 0.9349 0.0
H692 H 0.62934 0.38539 0.46014 0.0
H693 H 0.60431 0.5031 0.42131 0.0
H694 H 0.62238 0.42746 0.49483 0.0
H695 H 0.59552 0.54483 0.45624 0.0
H696 H 0.6276 0.62254 0.51833 0.0
H697 H 0.62173 0.58035 0.48356 0.0
H698 H 0.5952 0.46226 0.52183 0.0
H699 H 0.60291 0.50414 0.55687 0.0
C700 C 0.62153 0.41996 0.45905 0.0
C701 C 0.61767 0.44112 0.43798 0.0
C702 C 0.61731 0.44415 0.47905 0.0
C703 C 0.60859 0.48993 0.47852 0.0
C704 C 0.60295 0.51008 0.45738 0.0
C705 C 0.60778 0.48611 0.43732 0.0
C706 C 0.62007 0.58778 0.51933 0.0
C707 C 0.61602 0.56648 0.54035 0.0
C708 C 0.61649 0.56351 0.49928 0.0
C709 C 0.60822 0.5175 0.49971 0.0
C710 C 0.60232 0.4972 0.52078 0.0
C711 C 0.60652 0.52125 0.54089 0.0
H712 H 0.62169 0.38183 0.01736 0.0
H713 H 0.60085 0.50119 0.05655 0.0
H714 H 0.6147 0.42435 0.98276 0.0
H715 H 0.592 0.54346 0.02179 0.0
H716 H 0.5957 0.50181 0.92113 0.0
H717 H 0.5875 0.46095 0.95642 0.0
H718 H 0.61823 0.57719 -0.00619 0.0
H719 H 0.62458 0.61856 0.95877 0.0
C720 C 0.61478 0.41691 0.01855 0.0
C721 C 0.61212 0.43836 0.03965 0.0
C722 C 0.61054 0.44137 -0.00137 0.0
C723 C 0.60297 0.48771 -0.0007 0.0
C724 C 0.59852 0.50824 0.02053 0.0
C725 C 0.60339 0.48398 0.04048 0.0
C726 C 0.60009 0.51881 0.93698 0.0
C727 C 0.61096 0.56319 0.9372 0.0
C728 C 0.59562 0.49532 0.95723 0.0
C729 C 0.60264 0.51528 0.97811 0.0
C730 C 0.61215 0.56066 0.97824 0.0
C731 C 0.61599 0.58445 0.95805 0.0
H732 H 0.36817 0.62188 0.51531 0.0
H733 H 0.39699 0.50517 0.5531 0.0
H734 H 0.3749 0.58064 0.48028 0.0
H735 H 0.40554 0.46447 0.51786 0.0
H736 H 0.37273 0.38523 0.45659 0.0
H737 H 0.37893 0.42772 0.49122 0.0
H738 H 0.40166 0.54725 0.45244 0.0
H739 H 0.3937 0.50494 0.41758 0.0
C740 C 0.37679 0.5878 0.51608 0.0
C741 C 0.38174 0.56655 0.53697 0.0
C742 C 0.38085 0.56408 0.49589 0.0
C743 C 0.3905 0.51877 0.49606 0.0
C744 C 0.39734 0.49878 0.517 0.0
C745 C 0.39266 0.52219 0.53723 0.0
C746 C 0.3795 0.42038 0.45542 0.0
C747 C 0.38242 0.44186 0.43432 0.0
C748 C 0.38327 0.44486 0.47539 0.0
C749 C 0.39059 0.4913 0.47482 0.0
C750 C 0.39532 0.51192 0.45363 0.0
C751 C 0.39097 0.48761 0.43361 0.0
H752 H 0.86481 0.11299 0.95891 0.0
H753 H 0.88674 0.99263 0.92086 0.0
H754 H 0.87034 0.07119 -0.00613 0.0
H755 H 0.89409 0.95105 0.95606 0.0
H756 H 0.86032 0.87698 0.01879 0.0
H757 H 0.86695 0.91806 0.9837 0.0
H758 H 0.8965 0.03514 0.02108 0.0
H759 H 0.88804 0.99452 0.05641 0.0
C760 C 0.87165 0.07784 0.95805 0.0
C761 C 0.87506 0.05596 0.93711 0.0
C762 C 0.87503 0.05378 0.9782 0.0
C763 C 0.88245 0.00737 0.97799 0.0
C764 C 0.88764 0.98636 0.95698 0.0
C765 C 0.88365 0.01024 0.93676 0.0
C766 C 0.86864 0.91127 0.01951 0.0
C767 C 0.87339 0.93271 0.04037 0.0
C768 C 0.87266 0.93488 -0.00072 0.0
C769 C 0.88206 0.98032 -0.00064 0.0
C770 C 0.88852 0.00069 0.02028 0.0
C771 C 0.88389 0.97734 0.04057 0.0
H772 H 0.13096 0.8829 0.45509 0.0
H773 H 0.10619 0.00178 0.41702 0.0
H774 H 0.12421 0.92416 0.49004 0.0
H775 H 0.09759 0.04271 0.45222 0.0
H776 H 0.13012 0.11845 0.51483 0.0
H777 H 0.12403 0.0773 0.47973 0.0
H778 H 0.09709 0.95841 0.51721 0.0
H779 H 0.10507 -0.00082 0.55252 0.0
C780 C 0.12323 0.91755 0.45423 0.0
C781 C 0.11939 0.93929 0.43331 0.0
C782 C 0.11913 0.94128 0.47437 0.0
C783 C 0.11054 0.98714 0.47413 0.0
C784 C 0.10491 0.00787 0.45313 0.0
C785 C 0.10963 0.98437 0.43293 0.0
C786 C 0.12247 0.08374 0.51556 0.0
C787 C 0.11837 0.06182 0.53641 0.0
C788 C 0.11876 0.06008 0.49535 0.0
C789 C 0.1103 0.01414 0.49547 0.0
C790 C 0.10436 0.99329 0.51639 0.0
C791 C 0.10872 0.01669 0.53666 0.0
H792 H 0.12148 0.86614 0.01555 0.0
H793 H 0.09241 0.98254 0.05345 0.0
H794 H 0.11623 0.90838 0.98065 0.0
H795 H 0.08534 0.0243 0.01828 0.0
H796 H 0.12179 0.10438 0.95856 0.0
H797 H 0.11373 0.06089 -0.00733 0.0
H798 H 0.09107 0.94355 0.95241 0.0
H799 H 0.1009 0.98683 0.91809 0.0
C800 C 0.11307 0.90036 0.01635 0.0
C801 C 0.1077 0.92125 0.03727 0.0
C802 C 0.10988 0.92467 -0.00376 0.0
C803 C 0.1007 0.97022 -0.00351 0.0
C804 C 0.09325 0.9898 0.01739 0.0
C805 C 0.09706 0.96579 0.03757 0.0
C806 C 0.11468 0.06949 0.95695 0.0
C807 C 0.11228 0.04889 0.93562 0.0
C808 C 0.10981 0.04447 0.97661 0.0
C809 C 0.10187 -0.00165 0.97548 0.0
C810 C 0.0978 0.9786 0.95403 0.0
C811 C 0.10325 0.00345 0.93432 0.0
H812 H 0.87266 0.88426 0.46042 0.0
H813 H 0.89699 0.00239 0.42152 0.0
H814 H 0.87842 0.92692 0.49506 0.0
H815 H 0.90452 0.04476 0.45643 0.0
H816 H 0.86993 0.12216 0.51779 0.0
H817 H 0.87706 0.07959 0.48329 0.0
H818 H 0.90447 0.96322 0.52234 0.0
H819 H 0.89561 0.00546 0.55712 0.0
C820 C 0.88008 0.91905 0.4593 0.0
C821 C 0.88405 0.94011 0.43819 0.0
C822 C 0.88359 0.94361 0.47928 0.0
C823 C 0.89169 0.9897 0.47873 0.0
C824 C 0.89754 0.00976 0.45759 0.0
C825 C 0.89344 0.98541 0.43754 0.0
C826 C 0.87791 0.08772 0.51905 0.0
C827 C 0.88192 0.06702 0.54023 0.0
C828 C 0.88222 0.06323 0.49914 0.0
C829 C 0.89116 0.01757 0.49984 0.0
C830 C 0.8969 -0.00213 0.52107 0.0
C831 C 0.89203 0.02215 0.54104 0.0
H832 H 0.42946 0.26837 0.0978 0.0
H833 H 0.42039 0.37312 0.1486 0.0
H834 H 0.47849 0.26348 0.10583 0.0
H835 H 0.46953 0.36653 0.15763 0.0
H836 H 0.55623 0.40621 0.12989 0.0
H837 H 0.50765 0.39409 0.13751 0.0
H838 H 0.51836 0.24912 0.12716 0.0
H839 H 0.56718 0.26177 0.11836 0.0
C840 C 0.43778 0.28928 0.11127 0.0
C841 C 0.42126 0.32205 0.12213 0.0
C842 C 0.466 0.2862 0.11605 0.0
C843 C 0.47821 0.31535 0.13208 0.0
C844 C 0.46098 0.34457 0.1447 0.0
C845 C 0.43281 0.34826 0.1396 0.0
C846 C 0.54843 0.37158 0.12962 0.0
C847 C 0.56543 0.33512 0.1229 0.0
C848 C 0.52046 0.36448 0.13427 0.0
C849 C 0.50885 0.32063 0.13263 0.0
C850 C 0.52646 0.28351 0.128 0.0
C851 C 0.55446 0.29073 0.12302 0.0
H852 H 0.57039 0.61812 0.65021 0.0
H853 H 0.56126 0.72482 0.60037 0.0
H854 H 0.52125 0.62416 0.65944 0.0
H855 H 0.51219 0.72941 0.60869 0.0
H856 H 0.43398 0.58679 0.63133 0.0
H857 H 0.48271 0.59778 0.63921 0.0
H858 H 0.47277 0.74344 0.63094 0.0
H859 H 0.42396 0.73202 0.62196 0.0
C860 C 0.55795 0.64332 0.64146 0.0
C861 C 0.5695 0.67028 0.62421 0.0
C862 C 0.52979 0.64669 0.64669 0.0
C863 C 0.51255 0.67648 0.63446 0.0
C864 C 0.52472 0.70625 0.61863 0.0
C865 C 0.55294 0.7034 0.61368 0.0
C866 C 0.44199 0.62129 0.6317 0.0
C867 C 0.4253 0.6584 0.62542 0.0
C868 C 0.47003 0.62772 0.63642 0.0
C869 C 0.4819 0.67151 0.63528 0.0
C870 C 0.46448 0.70913 0.63134 0.0
C871 C 0.43649 0.70261 0.62627 0.0
H872 H 0.5602 0.57989 0.84262 0.0
H873 H 0.56773 0.72553 0.85183 0.0
H874 H 0.51114 0.58844 0.83542 0.0
H875 H 0.51856 0.73451 0.8435 0.0
H876 H 0.4312 0.71228 0.87528 0.0
H877 H 0.48003 0.71851 0.86643 0.0
H878 H 0.47152 0.61279 0.81595 0.0
H879 H 0.42261 0.60512 0.82569 0.0
C880 C 0.55156 0.61398 0.84233 0.0
C881 C 0.56769 0.65189 0.84841 0.0
C882 C 0.52332 0.619 0.83801 0.0
C883 C 0.51066 0.66215 0.83935 0.0
C884 C 0.52747 0.70064 0.84299 0.0
C885 C 0.55568 0.69553 0.84767 0.0
C886 C 0.43957 0.69101 0.86195 0.0
C887 C 0.42322 0.6574 0.8516 0.0
C888 C 0.46766 0.69485 0.85668 0.0
C889 C 0.47995 0.66558 0.8407 0.0
C890 C 0.46291 0.63502 0.82877 0.0
C891 C 0.43487 0.6307 0.8343 0.0
H892 H 0.57376 0.38979 0.32746 0.0
H893 H 0.56387 0.28334 0.37736 0.0
H894 H 0.52505 0.38229 0.31719 0.0
H895 H 0.51519 0.27739 0.36804 0.0
H896 H 0.43591 0.41642 0.34212 0.0
H897 H 0.4851 0.4072 0.33576 0.0
H898 H 0.47697 0.2615 0.34513 0.0
H899 H 0.42763 0.27124 0.35268 0.0
C900 C 0.56125 0.36441 0.33603 0.0
C901 C 0.57247 0.33782 0.35354 0.0
C902 C 0.53331 0.3602 0.33021 0.0
C903 C 0.51593 0.32996 0.34209 0.0
C904 C 0.52782 0.30081 0.35832 0.0
C905 C 0.55582 0.30447 0.36385 0.0
C906 C 0.44444 0.38225 0.34231 0.0
C907 C 0.42802 0.34472 0.3485 0.0
C908 C 0.47277 0.37684 0.33847 0.0
C909 C 0.48525 0.33363 0.34039 0.0
C910 C 0.46821 0.29544 0.34419 0.0
C911 C 0.4399 0.30097 0.34841 0.0
H912 H 0.91824 0.76412 0.1242 0.0
H913 H 0.92892 0.90953 0.13208 0.0
H914 H 0.96707 0.75253 0.13313 0.0
H915 H 0.97762 0.89843 0.1397 0.0
H916 H 0.06541 0.87887 0.14945 0.0
H917 H 0.01646 0.87358 0.15947 0.0
H918 H 0.00643 0.7642 0.11112 0.0
H919 H 0.05522 0.76789 0.10217 0.0
C920 C 0.93094 0.79354 0.12811 0.0
C921 C 0.9199 0.8378 0.12693 0.0
C922 C 0.95894 0.78695 0.13315 0.0
C923 C 0.97656 0.82455 0.13663 0.0
C924 C 0.96485 0.86848 0.13732 0.0
C925 C 0.93681 0.87496 0.1327 0.0
C926 C 0.05281 0.85294 0.14144 0.0
C927 C 0.064 0.82455 0.12463 0.0
C928 C 0.02473 0.85001 0.1471 0.0
C929 C 0.00722 0.81929 0.13571 0.0
C930 C 0.0191 0.78816 0.12042 0.0
C931 C 0.04721 0.79053 0.11509 0.0
H932 H 0.92651 0.11778 0.64991 0.0
H933 H 0.93311 0.22713 0.60116 0.0
H934 H 0.97592 0.12459 0.65788 0.0
H935 H 0.98228 0.23215 0.60803 0.0
H936 H 0.0716 0.23337 0.61763 0.0
H937 H 0.02311 0.24496 0.62792 0.0
H938 H 0.01333 0.09929 0.63647 0.0
H939 H 0.06161 0.08821 0.62747 0.0
C940 C 0.93841 0.1437 0.64115 0.0
C941 C 0.92606 0.17106 0.62448 0.0
C942 C 0.96675 0.14749 0.64562 0.0
C943 C 0.98335 0.17799 0.63314 0.0
C944 C 0.97035 0.20834 0.6181 0.0
C945 C 0.942 0.20515 0.61397 0.0
C946 C 0.05915 0.20401 0.62218 0.0
C947 C 0.0703 0.1598 0.62124 0.0
C948 C 0.03134 0.21061 0.62803 0.0
C949 C 0.01404 0.17304 0.63266 0.0
C950 C 0.02587 0.12924 0.63331 0.0
C951 C 0.05367 0.12276 0.62783 0.0
H952 H 0.05998 0.21278 0.87856 0.0
H953 H 0.06746 0.10884 0.82718 0.0
H954 H 0.01106 0.2201 0.87043 0.0
H955 H 0.01848 0.11786 0.81808 0.0
H956 H 0.92276 0.22758 0.85722 0.0
H957 H 0.9719 0.23742 0.84883 0.0
H958 H 0.97939 0.09221 0.83753 0.0
H959 H 0.93045 0.08292 0.84472 0.0
C960 C 0.05134 0.19254 0.86497 0.0
C961 C 0.06738 0.15938 0.85391 0.0
C962 C 0.0232 0.19702 0.86013 0.0
C963 C 0.01057 0.16891 0.84386 0.0
C964 C 0.02734 0.13909 0.83118 0.0
C965 C 0.05542 0.13401 0.83632 0.0
C966 C 0.93484 0.19799 0.8524 0.0
C967 C 0.92285 0.15433 0.85215 0.0
C968 C 0.96303 0.20359 0.84767 0.0
C969 C 0.97984 0.16552 0.84297 0.0
C970 C 0.96723 0.12249 0.84088 0.0
C971 C 0.93904 0.11703 0.84525 0.0
H972 H 0.0654 0.91677 0.34153 0.0
H973 H 0.07385 0.77132 0.3511 0.0
H974 H 0.01627 0.90759 0.33513 0.0
H975 H 0.02455 0.76165 0.34346 0.0
H976 H 0.93764 0.78225 0.37593 0.0
H977 H 0.98624 0.77664 0.3664 0.0
H978 H 0.97635 0.88332 0.31649 0.0
H979 H 0.92764 0.8905 0.32701 0.0
C980 C 0.05692 0.88256 0.34152 0.0
C981 C 0.07338 0.84491 0.34744 0.0
C982 C 0.02862 0.87718 0.33763 0.0
C983 C 0.01618 0.8339 0.33922 0.0
C984 C 0.03327 0.79565 0.34277 0.0
C985 C 0.06155 0.80114 0.34705 0.0
C986 C 0.94563 0.80391 0.36258 0.0
C987 C 0.92896 0.83765 0.35264 0.0
C988 C 0.97361 0.80041 0.35692 0.0
C989 C 0.98549 0.83012 0.34092 0.0
C990 C 0.96809 0.86077 0.32935 0.0
C991 C 0.94015 0.8648 0.33531 0.0
H992 H 0.3127 0.29947 0.01324 0.0
H993 H 0.23268 0.3023 0.04641 0.0
H994 H 0.29237 0.26322 0.98079 0.0
H995 H 0.21168 0.26852 0.01282 0.0
H996 H 0.19045 0.1543 0.96429 0.0
H997 H 0.21083 0.19541 -0.004 0.0
H998 H 0.26426 0.26829 0.94948 0.0
H999 H 0.24514 0.22501 0.91823 0.0
C1000 C 0.29053 0.29335 0.01338 0.0
C1001 C 0.27437 0.30277 0.03263 0.0
C1002 C 0.27881 0.27281 -0.00541 0.0
C1003 C 0.25047 0.26214 -0.00568 0.0
C1004 C 0.23378 0.27507 0.0128 0.0
C1005 C 0.24568 0.29509 0.03189 0.0
C1006 C 0.2071 0.17827 0.96108 0.0
C1007 C 0.21662 0.1861 0.939 0.0
C1008 C 0.21837 0.20249 0.97911 0.0
C1009 C 0.23888 0.2357 0.97526 0.0
C1010 C 0.24879 0.24256 0.95314 0.0
C1011 C 0.23799 0.21756 0.93522 0.0
H1012 H 0.82237 0.78981 0.46159 0.0
H1013 H 0.74224 0.82659 0.43418 0.0
H1014 H 0.80016 0.75486 0.4937 0.0
H1015 H 0.71986 0.79339 0.46739 0.0
H1016 H 0.68847 0.68086 0.51355 0.0
H1017 H 0.71134 0.71858 0.48187 0.0
H1018 H 0.77527 0.76733 0.52705 0.0
H1019 H 0.75314 0.7278 0.55834 0.0
C1020 C 0.79996 0.79131 0.46261 0.0
C1021 C 0.78404 0.81044 0.44509 0.0
C1022 C 0.78722 0.77142 0.4812 0.0
C1023 C 0.75824 0.77085 0.483 0.0
C1024 C 0.74227 0.79233 0.46618 0.0
C1025 C 0.75506 0.81185 0.44731 0.0
C1026 C 0.70771 0.69897 0.51653 0.0
C1027 C 0.71922 0.70119 0.53827 0.0
C1028 C 0.72056 0.72114 0.4985 0.0
C1029 C 0.74489 0.74651 0.50201 0.0
C1030 C 0.75672 0.74767 0.52371 0.0
C1031 C 0.74414 0.72485 0.54163 0.0
H1032 H 0.24919 0.81302 0.0407 0.0
H1033 H 0.16968 0.76387 0.0171 0.0
H1034 H 0.27136 0.77936 0.00754 0.0
H1035 H 0.19184 0.72874 0.98502 0.0
H1036 H 0.23687 0.70621 0.91872 0.0
H1037 H 0.21427 0.74338 0.95049 0.0
H1038 H 0.28242 0.70445 -0.0061 0.0
H1039 H 0.30557 0.66898 0.96178 0.0
C1040 C 0.23645 0.79537 0.02844 0.0
C1041 C 0.20774 0.79093 0.03166 0.0
C1042 C 0.24915 0.77565 0.0096 0.0
C1043 C 0.23336 0.75092 -0.00618 0.0
C1044 C 0.20457 0.74793 -0.0033 0.0
C1045 C 0.1919 0.76799 0.01526 0.0
C1046 C 0.24673 0.70485 0.93515 0.0
C1047 C 0.2729 0.68477 0.93787 0.0
C1048 C 0.23387 0.72631 0.95334 0.0
C1049 C 0.24675 0.72734 0.97465 0.0
C1050 C 0.27234 0.70529 0.97756 0.0
C1051 C 0.28539 0.68444 0.95928 0.0
H1052 H 0.73828 0.18713 0.54632 0.0
H1053 H 0.81909 0.19992 0.51505 0.0
H1054 H 0.71713 0.22023 0.51261 0.0
H1055 H 0.79843 0.23532 0.48246 0.0
H1056 H 0.75159 0.27067 0.41918 0.0
H1057 H 0.77133 0.228 0.45046 0.0
H1058 H 0.71428 0.29418 0.49653 0.0
H1059 H 0.69345 0.33467 0.46479 0.0
C1060 C 0.75145 0.19643 0.5322 0.0
C1061 C 0.78035 0.19169 0.53351 0.0
C1062 C 0.73943 0.216 0.51305 0.0
C1063 C 0.75617 0.23138 0.49506 0.0
C1064 C 0.78485 0.22377 0.49588 0.0
C1065 C 0.79675 0.20372 0.51475 0.0
C1066 C 0.74376 0.27678 0.4361 0.0
C1067 C 0.7213 0.30617 0.43975 0.0
C1068 C 0.7549 0.25213 0.45401 0.0
C1069 C 0.74419 0.2573 0.47599 0.0
C1070 C 0.7225 0.28844 0.47973 0.0
C1071 C 0.71094 0.31229 0.4617 0.0
H1072 H 0.73392 0.78574 0.05568 0.0
H1073 H 0.80751 0.81047 0.0157 0.0
H1074 H 0.71184 0.75021 0.02319 0.0
H1075 H 0.7851 0.77648 0.98295 0.0
H1076 H 0.74969 0.66913 0.93621 0.0
H1077 H 0.77105 0.70245 0.96976 0.0
H1078 H 0.69312 0.76648 0.98714 0.0
H1079 H 0.67164 0.73207 0.95455 0.0
C1080 C 0.74508 0.78459 0.03978 0.0
C1081 C 0.77239 0.80074 0.03817 0.0
C1082 C 0.73251 0.76411 0.02119 0.0
C1083 C 0.74688 0.76003 0.00058 0.0
C1084 C 0.77377 0.77803 -0.00125 0.0
C1085 C 0.78646 0.79798 0.01741 0.0
C1086 C 0.7371 0.68984 0.94738 0.0
C1087 C 0.70901 0.69795 0.94264 0.0
C1088 C 0.74936 0.70928 0.96646 0.0
C1089 C 0.73379 0.73741 0.98099 0.0
C1090 C 0.70561 0.74455 0.97648 0.0
C1091 C 0.69333 0.72486 0.95765 0.0
H1092 H 0.18792 0.18017 0.51095 0.0
H1093 H 0.2555 0.21911 0.55477 0.0
H1094 H 0.21095 0.21728 0.47921 0.0
H1095 H 0.27797 0.25787 0.52337 0.0
H1096 H 0.32314 0.28082 0.45686 0.0
H1097 H 0.30117 0.24512 0.48897 0.0
H1098 H 0.22119 0.29255 0.46582 0.0
H1099 H 0.24318 0.32678 0.43273 0.0
C1100 C 0.20781 0.19639 0.51371 0.0
C1101 C 0.22002 0.19664 0.53524 0.0
C1102 C 0.22081 0.21819 0.49565 0.0
C1103 C 0.24606 0.24114 0.49885 0.0
C1104 C 0.25865 0.24015 0.52027 0.0
C1105 C 0.24585 0.21777 0.53826 0.0
C1106 C 0.30087 0.28414 0.4586 0.0
C1107 C 0.28486 0.30627 0.44202 0.0
C1108 C 0.28828 0.26375 0.47717 0.0
C1109 C 0.25941 0.26553 0.47984 0.0
C1110 C 0.24346 0.28968 0.46392 0.0
C1111 C 0.25606 0.30975 0.44511 0.0
H1112 H 0.74674 0.26966 0.0565 0.0
H1113 H 0.6837 0.32188 0.01157 0.0
H1114 H 0.76808 0.22919 0.0252 0.0
H1115 H 0.70588 0.28325 0.97986 0.0
H1116 H 0.73513 0.17531 0.93148 0.0
H1117 H 0.713 0.20881 0.9647 0.0
H1118 H 0.79372 0.24065 -0.00771 0.0
H1119 H 0.81561 0.20532 0.96016 0.0
C1120 C 0.73795 0.27354 0.03976 0.0
C1121 C 0.71372 0.29907 0.03637 0.0
C1122 C 0.75009 0.25019 0.02183 0.0
C1123 C 0.73855 0.25267 4e-05 0.0
C1124 C 0.71487 0.27969 -0.00347 0.0
C1125 C 0.70243 0.30239 0.01458 0.0
C1126 C 0.74807 0.18861 0.94489 0.0
C1127 C 0.7771 0.18805 0.94302 0.0
C1128 C 0.73543 0.20833 0.96377 0.0
C1129 C 0.75161 0.22806 0.98097 0.0
C1130 C 0.78058 0.22548 0.97951 0.0
C1131 C 0.79316 0.20538 0.9609 0.0
H1132 H 0.25687 0.78407 0.41893 0.0
H1133 H 0.18531 0.81702 0.45984 0.0
H1134 H 0.27822 0.74663 0.45114 0.0
H1135 H 0.20722 0.78139 0.49249 0.0
H1136 H 0.24107 0.67468 0.54048 0.0
H1137 H 0.21941 0.70768 0.50692 0.0
H1138 H 0.29875 0.76229 0.4861 0.0
H1139 H 0.32041 0.7279 0.51851 0.0
C1140 C 0.24606 0.78436 0.435 0.0
C1141 C 0.21954 0.80354 0.43697 0.0
C1142 C 0.25822 0.76277 0.45346 0.0
C1143 C 0.24431 0.76073 0.47435 0.0
C1144 C 0.21817 0.78142 0.47649 0.0
C1145 C 0.20581 0.80236 0.45792 0.0
C1146 C 0.25388 0.69312 0.52851 0.0
C1147 C 0.28241 0.69872 0.53226 0.0
C1148 C 0.24146 0.71244 0.50944 0.0
C1149 C 0.25735 0.73792 0.49394 0.0
C1150 C 0.28595 0.74238 0.49747 0.0
C1151 C 0.29834 0.72275 0.51625 0.0
H1152 H 0.26774 0.35479 0.18008 0.0
H1153 H 0.3551 0.38807 0.18132 0.0
H1154 H 0.26636 0.35897 0.22137 0.0
H1155 H 0.35386 0.39096 0.22223 0.0
H1156 H 0.28512 0.32559 0.29666 0.0
H1157 H 0.28326 0.32096 0.2555 0.0
H1158 H 0.33514 0.44077 0.25063 0.0
H1159 H 0.3377 0.44464 0.29156 0.0
C1160 C 0.28665 0.36253 0.18916 0.0
C1161 C 0.31143 0.37164 0.17748 0.0
C1162 C 0.28588 0.36482 0.21275 0.0
C1163 C 0.30992 0.37594 0.22498 0.0
C1164 C 0.33482 0.38354 0.21326 0.0
C1165 C 0.33555 0.38164 0.1898 0.0
C1166 C 0.29597 0.35108 0.28677 0.0
C1167 C 0.31184 0.38517 0.29732 0.0
C1168 C 0.2948 0.34852 0.26322 0.0
C1169 C 0.30933 0.38016 0.24987 0.0
C1170 C 0.32428 0.41522 0.26048 0.0
C1171 C 0.32566 0.41755 0.28394 0.0
H1172 H 0.70881 0.66683 0.79745 0.0
H1173 H 0.66016 0.54298 0.79597 0.0
H1174 H 0.70959 0.66799 0.75624 0.0
H1175 H 0.66166 0.54346 0.75492 0.0
H1176 H 0.6373 0.59312 0.68512 0.0
H1177 H 0.64038 0.58941 0.72601 0.0
H1178 H 0.72662 0.62918 0.72265 0.0
H1179 H 0.72339 0.63416 0.68159 0.0
C1180 C 0.69868 0.63949 0.78834 0.0
C1181 C 0.68412 0.60514 0.7999 0.0
C1182 C 0.69922 0.64007 0.76476 0.0
C1183 C 0.6854 0.6061 0.75239 0.0
C1184 C 0.67194 0.57067 0.76401 0.0
C1185 C 0.67118 0.57031 0.78751 0.0
C1186 C 0.65696 0.60099 0.69305 0.0
C1187 C 0.68011 0.61387 0.68012 0.0
C1188 C 0.65877 0.59858 0.71649 0.0
C1189 C 0.68382 0.60862 0.7275 0.0
C1190 C 0.70698 0.62163 0.71461 0.0
C1191 C 0.70513 0.62435 0.69112 0.0
H1192 H 0.35569 0.58416 0.79041 0.0
H1193 H 0.2702 0.62846 0.79356 0.0
H1194 H 0.35363 0.58487 0.74943 0.0
H1195 H 0.26794 0.62783 0.7524 0.0
H1196 H 0.28675 0.67008 0.67854 0.0
H1197 H 0.28588 0.66857 0.71979 0.0
H1198 H 0.33266 0.54282 0.71924 0.0
H1199 H 0.33428 0.54505 0.67824 0.0
C1200 C 0.33637 0.59364 0.78236 0.0
C1201 C 0.31309 0.60614 0.79523 0.0
C1202 C 0.33514 0.59382 0.75886 0.0
C1203 C 0.31055 0.60607 0.7477 0.0
C1204 C 0.28726 0.61867 0.76054 0.0
C1205 C 0.28854 0.61884 0.7841 0.0
C1206 C 0.29666 0.642 0.68727 0.0
C1207 C 0.31086 0.60799 0.67521 0.0
C1208 C 0.29607 0.64103 0.71086 0.0
C1209 C 0.30947 0.60583 0.72273 0.0
C1210 C 0.32273 0.57097 0.71058 0.0
C1211 C 0.32355 0.57216 0.68709 0.0
H1212 H 0.72057 0.37192 0.17956 0.0
H1213 H 0.6327 0.40055 0.18372 0.0
H1214 H 0.72383 0.37588 0.22062 0.0
H1215 H 0.63583 0.40307 0.22464 0.0
H1216 H 0.65443 0.45077 0.29488 0.0
H1217 H 0.6546 0.45066 0.25382 0.0
H1218 H 0.70952 0.33412 0.25394 0.0
H1219 H 0.7101 0.33512 0.29512 0.0
C1220 C 0.70194 0.37871 0.18924 0.0
C1221 C 0.6764 0.3861 0.17844 0.0
C1222 C 0.7038 0.38083 0.21273 0.0
C1223 C 0.68012 0.39003 0.22581 0.0
C1224 C 0.65456 0.39689 0.21499 0.0
C1225 C 0.65274 0.39518 0.19154 0.0
C1226 C 0.66664 0.42524 0.28615 0.0
C1227 C 0.68208 0.39273 0.29819 0.0
C1228 C 0.66664 0.42506 0.26264 0.0
C1229 C 0.68182 0.39207 0.2507 0.0
C1230 C 0.69782 0.36023 0.26271 0.0
C1231 C 0.69805 0.36068 0.28627 0.0
H1232 H 0.78392 0.82538 0.18408 0.0
H1233 H 0.83258 0.94922 0.18316 0.0
H1234 H 0.78459 0.82592 0.22532 0.0
H1235 H 0.83245 0.95056 0.22419 0.0
H1236 H 0.77224 0.86499 0.29982 0.0
H1237 H 0.76833 0.86605 0.25869 0.0
H1238 H 0.85419 0.90724 0.25352 0.0
H1239 H 0.85788 0.90755 0.29437 0.0
C1240 C 0.79442 0.85301 0.19268 0.0
C1241 C 0.80848 0.88696 0.18043 0.0
C1242 C 0.7947 0.85342 0.21628 0.0
C1243 C 0.80883 0.88802 0.22797 0.0
C1244 C 0.82196 0.92284 0.21565 0.0
C1245 C 0.82193 0.92217 0.19214 0.0
C1246 C 0.79025 0.87427 0.28986 0.0
C1247 C 0.8153 0.88651 0.30033 0.0
C1248 C 0.78803 0.87471 0.26633 0.0
C1249 C 0.81088 0.8871 0.2529 0.0
C1250 C 0.83602 0.89858 0.26341 0.0
C1251 C 0.83817 0.89852 0.28685 0.0
H1252 H 0.14895 0.04802 0.79246 0.0
H1253 H 0.20619 0.16143 0.79461 0.0
H1254 H 0.15111 0.04835 0.75143 0.0
H1255 H 0.20754 0.16288 0.75345 0.0
H1256 H 0.22268 0.12457 0.67965 0.0
H1257 H 0.22328 0.12133 0.72086 0.0
H1258 H 0.13503 0.09505 0.72122 0.0
H1259 H 0.13463 0.09662 0.68023 0.0
C1260 C 0.16186 0.0732 0.78414 0.0
C1261 C 0.17729 0.10485 0.7967 0.0
C1262 C 0.16301 0.07352 0.76064 0.0
C1263 C 0.17931 0.1059 0.74921 0.0
C1264 C 0.19505 0.13717 0.76178 0.0
C1265 C 0.19416 0.13649 0.78533 0.0
C1266 C 0.20345 0.11811 0.68859 0.0
C1267 C 0.17865 0.11058 0.67677 0.0
C1268 C 0.20377 0.11642 0.71215 0.0
C1269 C 0.17923 0.10768 0.72426 0.0
C1270 C 0.1544 0.10083 0.71237 0.0
C1271 C 0.15414 0.10197 0.68888 0.0
H1272 H 0.78695 0.17872 0.68101 0.0
H1273 H 0.83716 0.05659 0.68221 0.0
H1274 H 0.78502 0.17801 0.7223 0.0
H1275 H 0.83445 0.05503 0.72312 0.0
H1276 H 0.85453 0.09591 0.79421 0.0
H1277 H 0.85371 0.09865 0.75331 0.0
H1278 H 0.76709 0.13658 0.75498 0.0
H1279 H 0.76813 0.13527 0.7963 0.0
C1280 C 0.7973 0.15152 0.69008 0.0
C1281 C 0.81251 0.11807 0.67844 0.0
C1282 C 0.79609 0.15099 0.71367 0.0
C1283 C 0.80987 0.11677 0.72594 0.0
C1284 C 0.82421 0.08251 0.71418 0.0
C1285 C 0.82569 0.08332 0.69072 0.0
C1286 C 0.83525 0.10471 0.78592 0.0
C1287 C 0.81131 0.11496 0.79847 0.0
C1288 C 0.83475 0.10611 0.76244 0.0
C1289 C 0.81023 0.11723 0.75092 0.0
C1290 C 0.78633 0.12817 0.76342 0.0
C1291 C 0.7869 0.12721 0.78704 0.0
H1292 H 0.16261 0.95269 0.29068 0.0
H1293 H 0.21194 0.82957 0.29197 0.0
H1294 H 0.16301 0.95138 0.24961 0.0
H1295 H 0.21155 0.82746 0.25078 0.0
H1296 H 0.22224 0.85904 0.17539 0.0
H1297 H 0.22712 0.86505 0.21637 0.0
H1298 H 0.14096 0.90444 0.22172 0.0
H1299 H 0.13628 0.89976 0.18103 0.0
C1300 C 0.17352 0.92532 0.28217 0.0
C1301 C 0.18697 0.89094 0.2945 0.0
C1302 C 0.17367 0.92449 0.25867 0.0
C1303 C 0.18697 0.88895 0.24701 0.0
C1304 C 0.2013 0.85545 0.25931 0.0
C1305 C 0.20141 0.85655 0.28288 0.0
C1306 C 0.20438 0.86896 0.18537 0.0
C1307 C 0.17893 0.87918 0.175 0.0
C1308 C 0.20716 0.8723 0.20879 0.0
C1309 C 0.18449 0.88564 0.22219 0.0
C1310 C 0.159 0.89517 0.2118 0.0
C1311 C 0.15628 0.89218 0.18847 0.0
loop_
_geom_bond_atom_site_label_1
_geom_bond_atom_site_label_2
_geom_bond_distance
_geom_bond_site_symmetry_2
_ccdc_geom_bond_type
Sc0 O3 2.025 . S
Sc0 O10 2.105 . S
Sc0 O13 2.105 . S
Sc0 O16 2.105 . S
Sc0 O19 2.105 . S
Sc1 O3 2.025 . S
Sc1 O11 2.105 . S
Sc1 O15 2.105 . S
Sc1 O17 2.105 . S
Sc1 O21 2.105 . S
Sc2 O3 2.025 . S
Sc2 O12 2.105 . S
Sc2 O14 2.105 . S
Sc2 O18 2.105 . S
Sc2 O20 2.105 . S
O3 Sc0 2.025 . S
O3 Sc1 2.025 . S
O3 Sc2 2.025 . S
C4 O10 1.268 . S
C4 O20 1.268 . S
C5 O11 1.268 . S
C5 O19 1.268 . S
C6 O12 1.268 . S
C6 O21 1.268 . S
C7 O13 1.268 . S
C7 O17 1.268 . S
C8 O14 1.268 . S
C8 O16 1.268 . S
C9 O15 1.268 . S
C9 O18 1.268 . S
O10 Sc0 2.105 . S
O10 C4 1.268 . S
O11 Sc1 2.105 . S
O11 C5 1.268 . S
O12 Sc2 2.105 . S
O12 C6 1.268 . S
O13 Sc0 2.105 . S
O13 C7 1.268 . S
O14 Sc2 2.105 . S
O14 C8 1.268 . S
O15 Sc1 2.105 . S
O15 C9 1.268 . S
O16 Sc0 2.105 . S
O16 C8 1.268 . S
O17 Sc1 2.105 . S
O17 C7 1.268 . S
O18 Sc2 2.105 . S
O18 C9 1.268 . S
O19 Sc0 2.105 . S
O19 C5 1.268 . S
O20 Sc2 2.105 . S
O20 C4 1.268 . S
O21 Sc1 2.105 . S
O21 C6 1.268 . S
Sc22 O25 2.025 . S
Sc22 O32 2.105 . S
Sc22 O35 2.105 . S
Sc22 O38 2.105 . S
Sc22 O41 2.105 . S
Sc23 O25 2.025 . S
Sc23 O33 2.105 . S
Sc23 O37 2.105 . S
Sc23 O39 2.105 . S
Sc23 O43 2.105 . S
Sc24 O25 2.025 . S
Sc24 O34 2.105 . S
Sc24 O36 2.105 . S
Sc24 O40 2.105 . S
Sc24 O42 2.105 . S
O25 Sc22 2.025 . S
O25 Sc23 2.025 . S
O25 Sc24 2.025 . S
C26 O32 1.268 . S
C26 O42 1.268 . S
C27 O33 1.268 . S
C27 O41 1.268 . S
C28 O34 1.268 . S
C28 O43 1.268 . S
C29 O35 1.268 . S
C29 O39 1.268 . S
C30 O36 1.268 . S
C30 O38 1.268 . S
C31 O37 1.268 . S
C31 O40 1.268 . S
O32 Sc22 2.105 . S
O32 C26 1.268 . S
O33 Sc23 2.105 . S
O33 C27 1.268 . S
O34 Sc24 2.105 . S
O34 C28 1.268 . S
O35 Sc22 2.105 . S
O35 C29 1.268 . S
O36 Sc24 2.105 . S
O36 C30 1.268 . S
O37 Sc23 2.105 . S
O37 C31 1.268 . S
O38 Sc22 2.105 . S
O38 C30 1.268 . S
O39 Sc23 2.105 . S
O39 C29 1.268 . S
O40 Sc24 2.105 . S
O40 C31 1.268 . S
O41 Sc22 2.105 . S
O41 C27 1.268 . S
O42 Sc24 2.105 . S
O42 C26 1.268 . S
O43 Sc23 2.105 . S
O43 C28 1.268 . S
Sc44 O47 2.025 . S
Sc44 O54 2.105 . S
Sc44 O57 2.105 . S
Sc44 O60 2.105 . S
Sc44 O63 2.105 . S
Sc45 O47 2.025 . S
Sc45 O55 2.105 . S
Sc45 O59 2.105 . S
Sc45 O61 2.105 . S
Sc45 O65 2.105 . S
Sc46 O47 2.025 . S
Sc46 O56 2.105 . S
Sc46 O58 2.105 . S
Sc46 O62 2.105 . S
Sc46 O64 2.105 . S
O47 Sc44 2.025 . S
O47 Sc45 2.025 . S
O47 Sc46 2.025 . S
C48 O54 1.268 . S
C48 O64 1.268 . S
C49 O55 1.268 . S
C49 O63 1.268 . S
C50 O56 1.268 . S
C50 O65 1.268 . S
C51 O57 1.268 . S
C51 O61 1.268 . S
C52 O58 1.268 . S
C52 O60 1.268 . S
C53 O59 1.268 . S
C53 O62 1.268 . S
O54 Sc44 2.105 . S
O54 C48 1.268 . S
O55 Sc45 2.105 . S
O55 C49 1.268 . S
O56 Sc46 2.105 . S
O56 C50 1.268 . S
O57 Sc44 2.105 . S
O57 C51 1.268 . S
O58 Sc46 2.105 . S
O58 C52 1.268 . S
O59 Sc45 2.105 . S
O59 C53 1.268 . S
O60 Sc44 2.105 . S
O60 C52 1.268 . S
O61 Sc45 2.105 . S
O61 C51 1.268 . S
O62 Sc46 2.105 . S
O62 C53 1.268 . S
O63 Sc44 2.105 . S
O63 C49 1.268 . S
O64 Sc46 2.105 . S
O64 C48 1.268 . S
O65 Sc45 2.105 . S
O65 C50 1.268 . S
Sc66 O69 2.025 . S
Sc66 O76 2.105 . S
Sc66 O79 2.105 . S
Sc66 O82 2.105 . S
Sc66 O85 2.105 . S
Sc67 O69 2.025 . S
Sc67 O77 2.105 . S
Sc67 O81 2.105 . S
Sc67 O83 2.105 . S
Sc67 O87 2.105 . S
Sc68 O69 2.025 . S
Sc68 O78 2.105 . S
Sc68 O80 2.105 . S
Sc68 O84 2.105 . S
Sc68 O86 2.105 . S
O69 Sc66 2.025 . S
O69 Sc67 2.025 . S
O69 Sc68 2.025 . S
C70 O76 1.268 . S
C70 O86 1.268 . S
C71 O77 1.268 . S
C71 O85 1.268 . S
C72 O78 1.268 . S
C72 O87 1.268 . S
C73 O79 1.268 . S
C73 O83 1.268 . S
C74 O80 1.268 . S
C74 O82 1.268 . S
C75 O81 1.268 . S
C75 O84 1.268 . S
O76 Sc66 2.105 . S
O76 C70 1.268 . S
O77 Sc67 2.105 . S
O77 C71 1.268 . S
O78 Sc68 2.105 . S
O78 C72 1.268 . S
O79 Sc66 2.105 . S
O79 C73 1.268 . S
O80 Sc68 2.105 . S
O80 C74 1.268 . S
O81 Sc67 2.105 . S
O81 C75 1.268 . S
O82 Sc66 2.105 . S
O82 C74 1.268 . S
O83 Sc67 2.105 . S
O83 C73 1.268 . S
O84 Sc68 2.105 . S
O84 C75 1.268 . S
O85 Sc66 2.105 . S
O85 C71 1.268 . S
O86 Sc68 2.105 . S
O86 C70 1.268 . S
O87 Sc67 2.105 . S
O87 C72 1.268 . S
Sc88 O91 2.025 . S
Sc88 O98 2.105 . S
Sc88 O101 2.105 . S
Sc88 O104 2.105 . S
Sc88 O107 2.105 . S
Sc89 O91 2.025 . S
Sc89 O99 2.105 . S
Sc89 O103 2.105 . S
Sc89 O105 2.105 . S
Sc89 O109 2.105 . S
Sc90 O91 2.025 . S
Sc90 O100 2.105 . S
Sc90 O102 2.105 . S
Sc90 O106 2.105 . S
Sc90 O108 2.105 . S
O91 Sc88 2.025 . S
O91 Sc89 2.025 . S
O91 Sc90 2.025 . S
C92 O98 1.268 . S
C92 O108 1.268 . S
C93 O99 1.268 . S
C93 O107 1.268 . S
C94 O100 1.268 . S
C94 O109 1.268 . S
C95 O101 1.268 . S
C95 O105 1.268 . S
C96 O102 1.268 . S
C96 O104 1.268 . S
C97 O103 1.268 . S
C97 O106 1.268 . S
O98 Sc88 2.105 . S
O98 C92 1.268 . S
O99 Sc89 2.105 . S
O99 C93 1.268 . S
O100 Sc90 2.105 . S
O100 C94 1.268 . S
O101 Sc88 2.105 . S
O101 C95 1.268 . S
O102 Sc90 2.105 . S
O102 C96 1.268 . S
O103 Sc89 2.105 . S
O103 C97 1.268 . S
O104 Sc88 2.105 . S
O104 C96 1.268 . S
O105 Sc89 2.105 . S
O105 C95 1.268 . S
O106 Sc90 2.105 . S
O106 C97 1.268 . S
O107 Sc88 2.105 . S
O107 C93 1.268 . S
O108 Sc90 2.105 . S
O108 C92 1.268 . S
O109 Sc89 2.105 . S
O109 C94 1.268 . S
Sc110 O113 2.025 . S
Sc110 O120 2.105 . S
Sc110 O123 2.105 . S
Sc110 O126 2.105 . S
Sc110 O129 2.105 . S
Sc111 O113 2.025 . S
Sc111 O121 2.105 . S
Sc111 O125 2.105 . S
Sc111 O127 2.105 . S
Sc111 O131 2.105 . S
Sc112 O113 2.025 . S
Sc112 O122 2.105 . S
Sc112 O124 2.105 . S
Sc112 O128 2.105 . S
Sc112 O130 2.105 . S
O113 Sc110 2.025 . S
O113 Sc111 2.025 . S
O113 Sc112 2.025 . S
C114 O120 1.268 . S
C114 O130 1.268 . S
C115 O121 1.268 . S
C115 O129 1.268 . S
C116 O122 1.268 . S
C116 O131 1.268 . S
C117 O123 1.268 . S
C117 O127 1.268 . S
C118 O124 1.268 . S
C118 O126 1.268 . S
C119 O125 1.268 . S
C119 O128 1.268 . S
O120 Sc110 2.105 . S
O120 C114 1.268 . S
O121 Sc111 2.105 . S
O121 C115 1.268 . S
O122 Sc112 2.105 . S
O122 C116 1.268 . S
O123 Sc110 2.105 . S
O123 C117 1.268 . S
O124 Sc112 2.105 . S
O124 C118 1.268 . S
O125 Sc111 2.105 . S
O125 C119 1.268 . S
O126 Sc110 2.105 . S
O126 C118 1.268 . S
O127 Sc111 2.105 . S
O127 C117 1.268 . S
O128 Sc112 2.105 . S
O128 C119 1.268 . S
O129 Sc110 2.105 . S
O129 C115 1.268 . S
O130 Sc112 2.105 . S
O130 C114 1.268 . S
O131 Sc111 2.105 . S
O131 C116 1.268 . S
Sc132 O135 2.025 . S
Sc132 O142 2.105 . S
Sc132 O145 2.105 . S
Sc132 O148 2.105 . S
Sc132 O151 2.105 . S
Sc133 O135 2.025 . S
Sc133 O143 2.105 . S
Sc133 O147 2.105 . S
Sc133 O149 2.105 . S
Sc133 O153 2.105 . S
Sc134 O135 2.025 . S
Sc134 O144 2.105 . S
Sc134 O146 2.105 . S
Sc134 O150 2.105 . S
Sc134 O152 2.105 . S
O135 Sc132 2.025 . S
O135 Sc133 2.025 . S
O135 Sc134 2.025 . S
C136 O142 1.268 . S
C136 O152 1.268 . S
C137 O143 1.268 . S
C137 O151 1.268 . S
C138 O144 1.268 . S
C138 O153 1.268 . S
C139 O145 1.268 . S
C139 O149 1.268 . S
C140 O146 1.268 . S
C140 O148 1.268 . S
C141 O147 1.268 . S
C141 O150 1.268 . S
O142 Sc132 2.105 . S
O142 C136 1.268 . S
O143 Sc133 2.105 . S
O143 C137 1.268 . S
O144 Sc134 2.105 . S
O144 C138 1.268 . S
O145 Sc132 2.105 . S
O145 C139 1.268 . S
O146 Sc134 2.105 . S
O146 C140 1.268 . S
O147 Sc133 2.105 . S
O147 C141 1.268 . S
O148 Sc132 2.105 . S
O148 C140 1.268 . S
O149 Sc133 2.105 . S
O149 C139 1.268 . S
O150 Sc134 2.105 . S
O150 C141 1.268 . S
O151 Sc132 2.105 . S
O151 C137 1.268 . S
O152 Sc134 2.105 . S
O152 C136 1.268 . S
O153 Sc133 2.105 . S
O153 C138 1.268 . S
Sc154 O157 2.025 . S
Sc154 O164 2.105 . S
Sc154 O167 2.105 . S
Sc154 O170 2.105 . S
Sc154 O173 2.105 . S
Sc155 O157 2.025 . S
Sc155 O165 2.105 . S
Sc155 O169 2.105 . S
Sc155 O171 2.105 . S
Sc155 O175 2.105 . S
Sc156 O157 2.025 . S
Sc156 O166 2.105 . S
Sc156 O168 2.105 . S
Sc156 O172 2.105 . S
Sc156 O174 2.105 . S
O157 Sc154 2.025 . S
O157 Sc155 2.025 . S
O157 Sc156 2.025 . S
C158 O164 1.268 . S
C158 O174 1.268 . S
C159 O165 1.268 . S
C159 O173 1.268 . S
C160 O166 1.268 . S
C160 O175 1.268 . S
C161 O167 1.268 . S
C161 O171 1.268 . S
C162 O168 1.268 . S
C162 O170 1.268 . S
C163 O169 1.268 . S
C163 O172 1.268 . S
O164 Sc154 2.105 . S
O164 C158 1.268 . S
O165 Sc155 2.105 . S
O165 C159 1.268 . S
O166 Sc156 2.105 . S
O166 C160 1.268 . S
O167 Sc154 2.105 . S
O167 C161 1.268 . S
O168 Sc156 2.105 . S
O168 C162 1.268 . S
O169 Sc155 2.105 . S
O169 C163 1.268 . S
O170 Sc154 2.105 . S
O170 C162 1.268 . S
O171 Sc155 2.105 . S
O171 C161 1.268 . S
O172 Sc156 2.105 . S
O172 C163 1.268 . S
O173 Sc154 2.105 . S
O173 C159 1.268 . S
O174 Sc156 2.105 . S
O174 C158 1.268 . S
O175 Sc155 2.105 . S
O175 C160 1.268 . S
Sc176 O179 2.025 . S
Sc176 O186 2.105 . S
Sc176 O189 2.105 . S
Sc176 O192 2.105 . S
Sc176 O195 2.105 . S
Sc177 O179 2.025 . S
Sc177 O187 2.105 . S
Sc177 O191 2.105 . S
Sc177 O193 2.105 . S
Sc177 O197 2.105 . S
Sc178 O179 2.025 . S
Sc178 O188 2.105 . S
Sc178 O190 2.105 . S
Sc178 O194 2.105 . S
Sc178 O196 2.105 . S
O179 Sc176 2.025 . S
O179 Sc177 2.025 . S
O179 Sc178 2.025 . S
C180 O186 1.268 . S
C180 O196 1.268 . S
C181 O187 1.268 . S
C181 O195 1.268 . S
C182 O188 1.268 . S
C182 O197 1.268 . S
C183 O189 1.268 . S
C183 O193 1.268 . S
C184 O190 1.268 . S
C184 O192 1.268 . S
C185 O191 1.268 . S
C185 O194 1.268 . S
O186 Sc176 2.105 . S
O186 C180 1.268 . S
O187 Sc177 2.105 . S
O187 C181 1.268 . S
O188 Sc178 2.105 . S
O188 C182 1.268 . S
O189 Sc176 2.105 . S
O189 C183 1.268 . S
O190 Sc178 2.105 . S
O190 C184 1.268 . S
O191 Sc177 2.105 . S
O191 C185 1.268 . S
O192 Sc176 2.105 . S
O192 C184 1.268 . S
O193 Sc177 2.105 . S
O193 C183 1.268 . S
O194 Sc178 2.105 . S
O194 C185 1.268 . S
O195 Sc176 2.105 . S
O195 C181 1.268 . S
O196 Sc178 2.105 . S
O196 C180 1.268 . S
O197 Sc177 2.105 . S
O197 C182 1.268 . S
Sc198 O201 2.025 . S
Sc198 O208 2.105 . S
Sc198 O211 2.105 . S
Sc198 O214 2.105 . S
Sc198 O217 2.105 . S
Sc199 O201 2.025 . S
Sc199 O209 2.105 . S
Sc199 O213 2.105 . S
Sc199 O215 2.105 . S
Sc199 O219 2.105 . S
Sc200 O201 2.025 . S
Sc200 O210 2.105 . S
Sc200 O212 2.105 . S
Sc200 O216 2.105 . S
Sc200 O218 2.105 . S
O201 Sc198 2.025 . S
O201 Sc199 2.025 . S
O201 Sc200 2.025 . S
C202 O208 1.268 . S
C202 O218 1.268 . S
C203 O209 1.268 . S
C203 O217 1.268 . S
C204 O210 1.268 . S
C204 O219 1.268 . S
C205 O211 1.268 . S
C205 O215 1.268 . S
C206 O212 1.268 . S
C206 O214 1.268 . S
C207 O213 1.268 . S
C207 O216 1.268 . S
O208 Sc198 2.105 . S
O208 C202 1.268 . S
O209 Sc199 2.105 . S
O209 C203 1.268 . S
O210 Sc200 2.105 . S
O210 C204 1.268 . S
O211 Sc198 2.105 . S
O211 C205 1.268 . S
O212 Sc200 2.105 . S
O212 C206 1.268 . S
O213 Sc199 2.105 . S
O213 C207 1.268 . S
O214 Sc198 2.105 . S
O214 C206 1.268 . S
O215 Sc199 2.105 . S
O215 C205 1.268 . S
O216 Sc200 2.105 . S
O216 C207 1.268 . S
O217 Sc198 2.105 . S
O217 C203 1.268 . S
O218 Sc200 2.105 . S
O218 C202 1.268 . S
O219 Sc199 2.105 . S
O219 C204 1.268 . S
Sc220 O223 2.025 . S
Sc220 O230 2.105 . S
Sc220 O233 2.105 . S
Sc220 O236 2.105 . S
Sc220 O239 2.105 . S
Sc221 O223 2.025 . S
Sc221 O231 2.105 . S
Sc221 O235 2.105 . S
Sc221 O237 2.105 . S
Sc221 O241 2.105 . S
Sc222 O223 2.025 . S
Sc222 O232 2.105 . S
Sc222 O234 2.105 . S
Sc222 O238 2.105 . S
Sc222 O240 2.105 . S
O223 Sc220 2.025 . S
O223 Sc221 2.025 . S
O223 Sc222 2.025 . S
C224 O230 1.268 . S
C224 O240 1.268 . S
C225 O231 1.268 . S
C225 O239 1.268 . S
C226 O232 1.268 . S
C226 O241 1.268 . S
C227 O233 1.268 . S
C227 O237 1.268 . S
C228 O234 1.268 . S
C228 O236 1.268 . S
C229 O235 1.268 . S
C229 O238 1.268 . S
O230 Sc220 2.105 . S
O230 C224 1.268 . S
O231 Sc221 2.105 . S
O231 C225 1.268 . S
O232 Sc222 2.105 . S
O232 C226 1.268 . S
O233 Sc220 2.105 . S
O233 C227 1.268 . S
O234 Sc222 2.105 . S
O234 C228 1.268 . S
O235 Sc221 2.105 . S
O235 C229 1.268 . S
O236 Sc220 2.105 . S
O236 C228 1.268 . S
O237 Sc221 2.105 . S
O237 C227 1.268 . S
O238 Sc222 2.105 . S
O238 C229 1.268 . S
O239 Sc220 2.105 . S
O239 C225 1.268 . S
O240 Sc222 2.105 . S
O240 C224 1.268 . S
O241 Sc221 2.105 . S
O241 C226 1.268 . S
Sc242 O245 2.025 . S
Sc242 O252 2.105 . S
Sc242 O255 2.105 . S
Sc242 O258 2.105 . S
Sc242 O261 2.105 . S
Sc243 O245 2.025 . S
Sc243 O253 2.105 . S
Sc243 O257 2.105 . S
Sc243 O259 2.105 . S
Sc243 O263 2.105 . S
Sc244 O245 2.025 . S
Sc244 O254 2.105 . S
Sc244 O256 2.105 . S
Sc244 O260 2.105 . S
Sc244 O262 2.105 . S
O245 Sc242 2.025 . S
O245 Sc243 2.025 . S
O245 Sc244 2.025 . S
C246 O252 1.268 . S
C246 O262 1.268 . S
C247 O253 1.268 . S
C247 O261 1.268 . S
C248 O254 1.268 . S
C248 O263 1.268 . S
C249 O255 1.268 . S
C249 O259 1.268 . S
C250 O256 1.268 . S
C250 O258 1.268 . S
C251 O257 1.268 . S
C251 O260 1.268 . S
O252 Sc242 2.105 . S
O252 C246 1.268 . S
O253 Sc243 2.105 . S
O253 C247 1.268 . S
O254 Sc244 2.105 . S
O254 C248 1.268 . S
O255 Sc242 2.105 . S
O255 C249 1.268 . S
O256 Sc244 2.105 . S
O256 C250 1.268 . S
O257 Sc243 2.105 . S
O257 C251 1.268 . S
O258 Sc242 2.105 . S
O258 C250 1.268 . S
O259 Sc243 2.105 . S
O259 C249 1.268 . S
O260 Sc244 2.105 . S
O260 C251 1.268 . S
O261 Sc242 2.105 . S
O261 C247 1.268 . S
O262 Sc244 2.105 . S
O262 C246 1.268 . S
O263 Sc243 2.105 . S
O263 C248 1.268 . S
Sc264 O267 2.025 . S
Sc264 O274 2.105 . S
Sc264 O277 2.105 . S
Sc264 O280 2.105 . S
Sc264 O283 2.105 . S
Sc265 O267 2.025 . S
Sc265 O275 2.105 . S
Sc265 O279 2.105 . S
Sc265 O281 2.105 . S
Sc265 O285 2.105 . S
Sc266 O267 2.025 . S
Sc266 O276 2.105 . S
Sc266 O278 2.105 . S
Sc266 O282 2.105 . S
Sc266 O284 2.105 . S
O267 Sc264 2.025 . S
O267 Sc265 2.025 . S
O267 Sc266 2.025 . S
C268 O274 1.268 . S
C268 O284 1.268 . S
C269 O275 1.268 . S
C269 O283 1.268 . S
C270 O276 1.268 . S
C270 O285 1.268 . S
C271 O277 1.268 . S
C271 O281 1.268 . S
C272 O278 1.268 . S
C272 O280 1.268 . S
C273 O279 1.268 . S
C273 O282 1.268 . S
O274 Sc264 2.105 . S
O274 C268 1.268 . S
O275 Sc265 2.105 . S
O275 C269 1.268 . S
O276 Sc266 2.105 . S
O276 C270 1.268 . S
O277 Sc264 2.105 . S
O277 C271 1.268 . S
O278 Sc266 2.105 . S
O278 C272 1.268 . S
O279 Sc265 2.105 . S
O279 C273 1.268 . S
O280 Sc264 2.105 . S
O280 C272 1.268 . S
O281 Sc265 2.105 . S
O281 C271 1.268 . S
O282 Sc266 2.105 . S
O282 C273 1.268 . S
O283 Sc264 2.105 . S
O283 C269 1.268 . S
O284 Sc266 2.105 . S
O284 C268 1.268 . S
O285 Sc265 2.105 . S
O285 C270 1.268 . S
Sc286 O289 2.025 . S
Sc286 O296 2.105 . S
Sc286 O299 2.105 . S
Sc286 O302 2.105 . S
Sc286 O305 2.105 . S
Sc287 O289 2.025 . S
Sc287 O297 2.105 . S
Sc287 O301 2.105 . S
Sc287 O303 2.105 . S
Sc287 O307 2.105 . S
Sc288 O289 2.025 . S
Sc288 O298 2.105 . S
Sc288 O300 2.105 . S
Sc288 O304 2.105 . S
Sc288 O306 2.105 . S
O289 Sc286 2.025 . S
O289 Sc287 2.025 . S
O289 Sc288 2.025 . S
C290 O296 1.268 . S
C290 O306 1.268 . S
C291 O297 1.268 . S
C291 O305 1.268 . S
C292 O298 1.268 . S
C292 O307 1.268 . S
C293 O299 1.268 . S
C293 O303 1.268 . S
C294 O300 1.268 . S
C294 O302 1.268 . S
C295 O301 1.268 . S
C295 O304 1.268 . S
O296 Sc286 2.105 . S
O296 C290 1.268 . S
O297 Sc287 2.105 . S
O297 C291 1.268 . S
O298 Sc288 2.105 . S
O298 C292 1.268 . S
O299 Sc286 2.105 . S
O299 C293 1.268 . S
O300 Sc288 2.105 . S
O300 C294 1.268 . S
O301 Sc287 2.105 . S
O301 C295 1.268 . S
O302 Sc286 2.105 . S
O302 C294 1.268 . S
O303 Sc287 2.105 . S
O303 C293 1.268 . S
O304 Sc288 2.105 . S
O304 C295 1.268 . S
O305 Sc286 2.105 . S
O305 C291 1.268 . S
O306 Sc288 2.105 . S
O306 C290 1.268 . S
O307 Sc287 2.105 . S
O307 C292 1.268 . S
Sc308 O311 2.025 . S
Sc308 O318 2.105 . S
Sc308 O321 2.105 . S
Sc308 O324 2.105 . S
Sc308 O327 2.105 . S
Sc309 O311 2.025 . S
Sc309 O319 2.105 . S
Sc309 O323 2.105 . S
Sc309 O325 2.105 . S
Sc309 O329 2.105 . S
Sc310 O311 2.025 . S
Sc310 O320 2.105 . S
Sc310 O322 2.105 . S
Sc310 O326 2.105 . S
Sc310 O328 2.105 . S
O311 Sc308 2.025 . S
O311 Sc309 2.025 . S
O311 Sc310 2.025 . S
C312 O318 1.268 . S
C312 O328 1.268 . S
C313 O319 1.268 . S
C313 O327 1.268 . S
C314 O320 1.268 . S
C314 O329 1.268 . S
C315 O321 1.268 . S
C315 O325 1.268 . S
C316 O322 1.268 . S
C316 O324 1.268 . S
C317 O323 1.268 . S
C317 O326 1.268 . S
O318 Sc308 2.105 . S
O318 C312 1.268 . S
O319 Sc309 2.105 . S
O319 C313 1.268 . S
O320 Sc310 2.105 . S
O320 C314 1.268 . S
O321 Sc308 2.105 . S
O321 C315 1.268 . S
O322 Sc310 2.105 . S
O322 C316 1.268 . S
O323 Sc309 2.105 . S
O323 C317 1.268 . S
O324 Sc308 2.105 . S
O324 C316 1.268 . S
O325 Sc309 2.105 . S
O325 C315 1.268 . S
O326 Sc310 2.105 . S
O326 C317 1.268 . S
O327 Sc308 2.105 . S
O327 C313 1.268 . S
O328 Sc310 2.105 . S
O328 C312 1.268 . S
O329 Sc309 2.105 . S
O329 C314 1.268 . S
Sc330 O333 2.025 . S
Sc330 O340 2.105 . S
Sc330 O343 2.105 . S
Sc330 O346 2.105 . S
Sc330 O349 2.105 . S
Sc331 O333 2.025 . S
Sc331 O341 2.105 . S
Sc331 O345 2.105 . S
Sc331 O347 2.105 . S
Sc331 O351 2.105 . S
Sc332 O333 2.025 . S
Sc332 O342 2.105 . S
Sc332 O344 2.105 . S
Sc332 O348 2.105 . S
Sc332 O350 2.105 . S
O333 Sc330 2.025 . S
O333 Sc331 2.025 . S
O333 Sc332 2.025 . S
C334 O340 1.268 . S
C334 O350 1.268 . S
C335 O341 1.268 . S
C335 O349 1.268 . S
C336 O342 1.268 . S
C336 O351 1.268 . S
C337 O343 1.268 . S
C337 O347 1.268 . S
C338 O344 1.268 . S
C338 O346 1.268 . S
C339 O345 1.268 . S
C339 O348 1.268 . S
O340 Sc330 2.105 . S
O340 C334 1.268 . S
O341 Sc331 2.105 . S
O341 C335 1.268 . S
O342 Sc332 2.105 . S
O342 C336 1.268 . S
O343 Sc330 2.105 . S
O343 C337 1.268 . S
O344 Sc332 2.105 . S
O344 C338 1.268 . S
O345 Sc331 2.105 . S
O345 C339 1.268 . S
O346 Sc330 2.105 . S
O346 C338 1.268 . S
O347 Sc331 2.105 . S
O347 C337 1.268 . S
O348 Sc332 2.105 . S
O348 C339 1.268 . S
O349 Sc330 2.105 . S
O349 C335 1.268 . S
O350 Sc332 2.105 . S
O350 C334 1.268 . S
O351 Sc331 2.105 . S
O351 C336 1.268 . S
H352 C360 0.950 . S
H353 C365 0.950 . S
H354 C362 0.950 . S
H355 C364 0.950 . S
H356 C366 0.950 . S
H357 C368 0.950 . S
H358 C370 0.950 . S
H359 C371 0.950 . S
C360 H352 0.950 . S
C360 C361 1.386 . S
C360 C362 1.391 . S
C361 C360 1.386 . S
C361 C365 1.393 . S
C362 H354 0.950 . S
C362 C360 1.391 . S
C362 C363 1.400 . S
C363 C362 1.400 . S
C363 C364 1.398 . S
C363 C369 1.491 . S
C364 H355 0.950 . S
C364 C363 1.398 . S
C364 C365 1.391 . S
C365 H353 0.950 . S
C365 C361 1.393 . S
C365 C364 1.391 . S
C366 H356 0.950 . S
C366 C367 1.386 . S
C366 C368 1.391 . S
C367 C366 1.386 . S
C367 C371 1.393 . S
C368 H357 0.950 . S
C368 C366 1.391 . S
C368 C369 1.400 1_565 S
C369 C363 1.491 . S
C369 C368 1.400 1_545 S
C369 C370 1.398 . S
C370 H358 0.950 . S
C370 C369 1.398 . S
C370 C371 1.391 1_545 S
C371 H359 0.950 . S
C371 C367 1.393 . S
C371 C370 1.391 1_565 S
H372 C380 0.950 . S
H373 C385 0.950 . S
H374 C382 0.950 . S
H375 C384 0.950 . S
H376 C386 0.950 . S
H377 C388 0.950 . S
H378 C390 0.950 . S
H379 C391 0.950 . S
C380 H372 0.950 . S
C380 C381 1.386 . S
C380 C382 1.391 . S
C381 C380 1.386 . S
C381 C385 1.393 . S
C382 H374 0.950 . S
C382 C380 1.391 . S
C382 C383 1.400 . S
C383 C382 1.400 . S
C383 C384 1.398 . S
C383 C389 1.491 . S
C384 H375 0.950 . S
C384 C383 1.398 . S
C384 C385 1.391 . S
C385 H373 0.950 . S
C385 C381 1.393 . S
C385 C384 1.391 . S
C386 H376 0.950 . S
C386 C387 1.386 . S
C386 C388 1.391 . S
C387 C386 1.386 . S
C387 C391 1.393 . S
C388 H377 0.950 . S
C388 C386 1.391 . S
C388 C389 1.400 1_545 S
C389 C383 1.491 . S
C389 C388 1.400 1_565 S
C389 C390 1.398 . S
C390 H378 0.950 . S
C390 C389 1.398 . S
C390 C391 1.391 1_565 S
C391 H379 0.950 . S
C391 C387 1.393 . S
C391 C390 1.391 1_545 S
H392 C400 0.950 . S
H393 C405 0.950 . S
H394 C402 0.950 . S
H395 C404 0.950 . S
H396 C406 0.950 . S
H397 C408 0.950 . S
H398 C410 0.950 . S
H399 C411 0.950 . S
C400 H392 0.950 . S
C400 C401 1.386 . S
C400 C402 1.391 . S
C401 C400 1.386 . S
C401 C405 1.393 . S
C402 H394 0.950 . S
C402 C400 1.391 . S
C402 C403 1.400 . S
C403 C402 1.400 . S
C403 C404 1.398 . S
C403 C409 1.491 . S
C404 H395 0.950 . S
C404 C403 1.398 . S
C404 C405 1.391 . S
C405 H393 0.950 . S
C405 C401 1.393 . S
C405 C404 1.391 . S
C406 H396 0.950 . S
C406 C407 1.386 . S
C406 C408 1.391 1_545 S
C407 C406 1.386 . S
C407 C411 1.393 . S
C408 H397 0.950 . S
C408 C406 1.391 1_565 S
C408 C409 1.400 . S
C409 C403 1.491 . S
C409 C408 1.400 . S
C409 C410 1.398 1_565 S
C410 H398 0.950 . S
C410 C409 1.398 1_545 S
C410 C411 1.391 . S
C411 H399 0.950 . S
C411 C407 1.393 . S
C411 C410 1.391 . S
H412 C420 0.950 . S
H413 C425 0.950 . S
H414 C422 0.950 . S
H415 C424 0.950 . S
H416 C426 0.950 . S
H417 C428 0.950 . S
H418 C430 0.950 . S
H419 C431 0.950 . S
C420 H412 0.950 . S
C420 C421 1.386 . S
C420 C422 1.391 . S
C421 C420 1.386 . S
C421 C425 1.393 . S
C422 H414 0.950 . S
C422 C420 1.391 . S
C422 C423 1.400 1_565 S
C423 C422 1.400 1_545 S
C423 C424 1.398 . S
C423 C429 1.491 . S
C424 H415 0.950 . S
C424 C423 1.398 . S
C424 C425 1.391 1_545 S
C425 H413 0.950 . S
C425 C421 1.393 . S
C425 C424 1.391 1_565 S
C426 H416 0.950 . S
C426 C427 1.386 . S
C426 C428 1.391 . S
C427 C426 1.386 . S
C427 C431 1.393 . S
C428 H417 0.950 . S
C428 C426 1.391 . S
C428 C429 1.400 . S
C429 C423 1.491 . S
C429 C428 1.400 . S
C429 C430 1.398 . S
C430 H418 0.950 . S
C430 C429 1.398 . S
C430 C431 1.391 . S
C431 H419 0.950 . S
C431 C427 1.393 . S
C431 C430 1.391 . S
H432 C440 0.950 . S
H433 C445 0.950 . S
H434 C442 0.950 . S
H435 C444 0.950 . S
H436 C446 0.950 . S
H437 C448 0.950 . S
H438 C450 0.950 . S
H439 C451 0.950 . S
C440 H432 0.950 . S
C440 C441 1.386 . S
C440 C442 1.391 1_545 S
C441 C440 1.386 . S
C441 C445 1.393 . S
C442 H434 0.950 . S
C442 C440 1.391 1_565 S
C442 C443 1.400 . S
C443 C442 1.400 . S
C443 C444 1.398 1_565 S
C443 C449 1.491 . S
C444 H435 0.950 . S
C444 C443 1.398 1_545 S
C444 C445 1.391 . S
C445 H433 0.950 . S
C445 C441 1.393 . S
C445 C444 1.391 . S
C446 H436 0.950 . S
C446 C447 1.386 . S
C446 C448 1.391 . S
C447 C446 1.386 . S
C447 C451 1.393 . S
C448 H437 0.950 . S
C448 C446 1.391 . S
C448 C449 1.400 . S
C449 C443 1.491 . S
C449 C448 1.400 . S
C449 C450 1.398 . S
C450 H438 0.950 . S
C450 C449 1.398 . S
C450 C451 1.391 . S
C451 H439 0.950 . S
C451 C447 1.393 . S
C451 C450 1.391 . S
H452 C460 0.950 . S
H453 C465 0.950 . S
H454 C462 0.950 . S
H455 C464 0.950 . S
H456 C466 0.950 . S
H457 C468 0.950 . S
H458 C470 0.950 . S
H459 C471 0.950 . S
C460 H452 0.950 . S
C460 C461 1.386 . S
C460 C462 1.391 1_565 S
C461 C460 1.386 . S
C461 C465 1.393 . S
C462 H454 0.950 . S
C462 C460 1.391 1_545 S
C462 C463 1.400 . S
C463 C462 1.400 . S
C463 C464 1.398 . S
C463 C469 1.491 . S
C464 H455 0.950 . S
C464 C463 1.398 . S
C464 C465 1.391 1_545 S
C465 H453 0.950 . S
C465 C461 1.393 . S
C465 C464 1.391 1_565 S
C466 H456 0.950 . S
C466 C467 1.386 . S
C466 C468 1.391 . S
C467 C466 1.386 . S
C467 C471 1.393 . S
C468 H457 0.950 . S
C468 C466 1.391 . S
C468 C469 1.400 . S
C469 C463 1.491 . S
C469 C468 1.400 . S
C469 C470 1.398 . S
C470 H458 0.950 . S
C470 C469 1.398 . S
C470 C471 1.391 . S
C471 H459 0.950 . S
C471 C467 1.393 . S
C471 C470 1.391 . S
H472 C480 0.950 . S
H473 C485 0.950 . S
H474 C482 0.950 . S
H475 C484 0.950 . S
H476 C486 0.950 . S
H477 C488 0.950 . S
H478 C490 0.950 . S
H479 C491 0.950 . S
C480 H472 0.950 . S
C480 C481 1.386 . S
C480 C482 1.391 . S
C481 C480 1.386 . S
C481 C485 1.393 . S
C482 H474 0.950 . S
C482 C480 1.391 . S
C482 C483 1.400 1_565 S
C483 C482 1.400 1_545 S
C483 C484 1.398 . S
C483 C489 1.491 . S
C484 H475 0.950 . S
C484 C483 1.398 . S
C484 C485 1.391 1_545 S
C485 H473 0.950 . S
C485 C481 1.393 . S
C485 C484 1.391 1_565 S
C486 H476 0.950 . S
C486 C487 1.386 . S
C486 C488 1.391 . S
C487 C486 1.386 . S
C487 C491 1.393 . S
C488 H477 0.950 . S
C488 C486 1.391 . S
C488 C489 1.400 . S
C489 C483 1.491 . S
C489 C488 1.400 . S
C489 C490 1.398 . S
C490 H478 0.950 . S
C490 C489 1.398 . S
C490 C491 1.391 . S
C491 H479 0.950 . S
C491 C487 1.393 . S
C491 C490 1.391 . S
H492 C500 0.950 . S
H493 C505 0.950 . S
H494 C502 0.950 . S
H495 C504 0.950 . S
H496 C506 0.950 . S
H497 C508 0.950 . S
H498 C510 0.950 . S
H499 C511 0.950 . S
C500 H492 0.950 . S
C500 C501 1.386 . S
C500 C502 1.391 . S
C501 C500 1.386 . S
C501 C505 1.393 . S
C502 H494 0.950 . S
C502 C500 1.391 . S
C502 C503 1.400 1_545 S
C503 C502 1.400 1_565 S
C503 C504 1.398 . S
C503 C509 1.491 . S
C504 H495 0.950 . S
C504 C503 1.398 . S
C504 C505 1.391 1_565 S
C505 H493 0.950 . S
C505 C501 1.393 . S
C505 C504 1.391 1_545 S
C506 H496 0.950 . S
C506 C507 1.386 . S
C506 C508 1.391 . S
C507 C506 1.386 . S
C507 C511 1.393 . S
C508 H497 0.950 . S
C508 C506 1.391 . S
C508 C509 1.400 . S
C509 C503 1.491 . S
C509 C508 1.400 . S
C509 C510 1.398 . S
C510 H498 0.950 . S
C510 C509 1.398 . S
C510 C511 1.391 . S
C511 H499 0.950 . S
C511 C507 1.393 . S
C511 C510 1.391 . S
H512 C520 0.950 . S
H513 C525 0.950 . S
H514 C522 0.950 . S
H515 C524 0.950 . S
H516 C526 0.950 . S
H517 C528 0.950 . S
H518 C530 0.950 . S
H519 C531 0.950 . S
C520 H512 0.950 . S
C520 C521 1.386 . S
C520 C522 1.391 . S
C521 C520 1.386 . S
C521 C525 1.393 . S
C522 H514 0.950 . S
C522 C520 1.391 . S
C522 C523 1.400 . S
C523 C522 1.400 . S
C523 C524 1.398 . S
C523 C529 1.491 . S
C524 H515 0.950 . S
C524 C523 1.398 . S
C524 C525 1.391 . S
C525 H513 0.950 . S
C525 C521 1.393 . S
C525 C524 1.391 . S
C526 H516 0.950 . S
C526 C527 1.386 . S
C526 C528 1.391 . S
C527 C526 1.386 . S
C527 C531 1.393 . S
C528 H517 0.950 . S
C528 C526 1.391 . S
C528 C529 1.400 . S
C529 C523 1.491 . S
C529 C528 1.400 . S
C529 C530 1.398 . S
C530 H518 0.950 . S
C530 C529 1.398 . S
C530 C531 1.391 . S
C531 H519 0.950 . S
C531 C527 1.393 . S
C531 C530 1.391 . S
H532 C540 0.950 . S
H533 C545 0.950 . S
H534 C542 0.950 . S
H535 C544 0.950 . S
H536 C546 0.950 . S
H537 C548 0.950 . S
H538 C550 0.950 . S
H539 C551 0.950 . S
C540 H532 0.950 . S
C540 C541 1.386 . S
C540 C542 1.391 . S
C541 C540 1.386 . S
C541 C545 1.393 . S
C542 H534 0.950 . S
C542 C540 1.391 . S
C542 C543 1.400 . S
C543 C542 1.400 . S
C543 C544 1.398 . S
C543 C549 1.491 . S
C544 H535 0.950 . S
C544 C543 1.398 . S
C544 C545 1.391 . S
C545 H533 0.950 . S
C545 C541 1.393 . S
C545 C544 1.391 . S
C546 H536 0.950 . S
C546 C547 1.386 . S
C546 C548 1.391 . S
C547 C546 1.386 . S
C547 C551 1.393 . S
C548 H537 0.950 . S
C548 C546 1.391 . S
C548 C549 1.400 . S
C549 C543 1.491 . S
C549 C548 1.400 . S
C549 C550 1.398 . S
C550 H538 0.950 . S
C550 C549 1.398 . S
C550 C551 1.391 . S
C551 H539 0.950 . S
C551 C547 1.393 . S
C551 C550 1.391 . S
H552 C560 0.950 . S
H553 C565 0.950 . S
H554 C562 0.950 . S
H555 C564 0.950 . S
H556 C566 0.950 . S
H557 C568 0.950 . S
H558 C570 0.950 . S
H559 C571 0.950 . S
C560 H552 0.950 . S
C560 C561 1.386 . S
C560 C562 1.391 . S
C561 C560 1.386 . S
C561 C565 1.393 . S
C562 H554 0.950 . S
C562 C560 1.391 . S
C562 C563 1.400 . S
C563 C562 1.400 . S
C563 C564 1.398 . S
C563 C569 1.491 . S
C564 H555 0.950 . S
C564 C563 1.398 . S
C564 C565 1.391 . S
C565 H553 0.950 . S
C565 C561 1.393 . S
C565 C564 1.391 . S
C566 H556 0.950 . S
C566 C567 1.386 . S
C566 C568 1.391 . S
C567 C566 1.386 . S
C567 C571 1.393 . S
C568 H557 0.950 . S
C568 C566 1.391 . S
C568 C569 1.400 . S
C569 C563 1.491 . S
C569 C568 1.400 . S
C569 C570 1.398 . S
C570 H558 0.950 . S
C570 C569 1.398 . S
C570 C571 1.391 . S
C571 H559 0.950 . S
C571 C567 1.393 . S
C571 C570 1.391 . S
H572 C580 0.950 . S
H573 C585 0.950 . S
H574 C582 0.950 . S
H575 C584 0.950 . S
H576 C586 0.950 . S
H577 C588 0.950 . S
H578 C590 0.950 . S
H579 C591 0.950 . S
C580 H572 0.950 . S
C580 C581 1.386 . S
C580 C582 1.391 . S
C581 C580 1.386 . S
C581 C585 1.393 . S
C582 H574 0.950 . S
C582 C580 1.391 . S
C582 C583 1.400 . S
C583 C582 1.400 . S
C583 C584 1.398 . S
C583 C589 1.491 . S
C584 H575 0.950 . S
C584 C583 1.398 . S
C584 C585 1.391 . S
C585 H573 0.950 . S
C585 C581 1.393 . S
C585 C584 1.391 . S
C586 H576 0.950 . S
C586 C587 1.386 . S
C586 C588 1.391 . S
C587 C586 1.386 . S
C587 C591 1.393 . S
C588 H577 0.950 . S
C588 C586 1.391 . S
C588 C589 1.400 . S
C589 C583 1.491 . S
C589 C588 1.400 . S
C589 C590 1.398 . S
C590 H578 0.950 . S
C590 C589 1.398 . S
C590 C591 1.391 . S
C591 H579 0.950 . S
C591 C587 1.393 . S
C591 C590 1.391 . S
H592 C600 0.950 . S
H593 C605 0.950 . S
H594 C602 0.950 . S
H595 C604 0.950 . S
H596 C606 0.950 . S
H597 C608 0.950 . S
H598 C610 0.950 . S
H599 C611 0.950 . S
C600 H592 0.950 . S
C600 C601 1.386 . S
C600 C602 1.391 . S
C601 C600 1.386 . S
C601 C605 1.393 . S
C602 H594 0.950 . S
C602 C600 1.391 . S
C602 C603 1.400 . S
C603 C602 1.400 . S
C603 C604 1.398 . S
C603 C609 1.491 . S
C604 H595 0.950 . S
C604 C603 1.398 . S
C604 C605 1.391 . S
C605 H593 0.950 . S
C605 C601 1.393 . S
C605 C604 1.391 . S
C606 H596 0.950 . S
C606 C607 1.386 . S
C606 C608 1.391 . S
C607 C606 1.386 . S
C607 C611 1.393 . S
C608 H597 0.950 . S
C608 C606 1.391 . S
C608 C609 1.400 . S
C609 C603 1.491 . S
C609 C608 1.400 . S
C609 C610 1.398 . S
C610 H598 0.950 . S
C610 C609 1.398 . S
C610 C611 1.391 . S
C611 H599 0.950 . S
C611 C607 1.393 . S
C611 C610 1.391 . S
H612 C620 0.950 . S
H613 C625 0.950 . S
H614 C622 0.950 . S
H615 C624 0.950 . S
H616 C626 0.950 . S
H617 C628 0.950 . S
H618 C630 0.950 . S
H619 C631 0.950 . S
C620 H612 0.950 . S
C620 C621 1.386 . S
C620 C622 1.391 . S
C621 C620 1.386 . S
C621 C625 1.393 . S
C622 H614 0.950 . S
C622 C620 1.391 . S
C622 C623 1.400 . S
C623 C622 1.400 . S
C623 C624 1.398 . S
C623 C629 1.491 . S
C624 H615 0.950 . S
C624 C623 1.398 . S
C624 C625 1.391 . S
C625 H613 0.950 . S
C625 C621 1.393 . S
C625 C624 1.391 . S
C626 H616 0.950 . S
C626 C627 1.386 . S
C626 C628 1.391 . S
C627 C626 1.386 . S
C627 C631 1.393 . S
C628 H617 0.950 . S
C628 C626 1.391 . S
C628 C629 1.400 . S
C629 C623 1.491 . S
C629 C628 1.400 . S
C629 C630 1.398 . S
C630 H618 0.950 . S
C630 C629 1.398 . S
C630 C631 1.391 . S
C631 H619 0.950 . S
C631 C627 1.393 . S
C631 C630 1.391 . S
H632 C640 0.950 . S
H633 C645 0.950 . S
H634 C642 0.950 . S
H635 C644 0.950 . S
H636 C646 0.950 . S
H637 C648 0.950 . S
H638 C650 0.950 . S
H639 C651 0.950 . S
C640 H632 0.950 . S
C640 C641 1.386 . S
C640 C642 1.391 . S
C641 C640 1.386 . S
C641 C645 1.393 . S
C642 H634 0.950 . S
C642 C640 1.391 . S
C642 C643 1.400 . S
C643 C642 1.400 . S
C643 C644 1.398 . S
C643 C649 1.491 . S
C644 H635 0.950 . S
C644 C643 1.398 . S
C644 C645 1.391 . S
C645 H633 0.950 . S
C645 C641 1.393 . S
C645 C644 1.391 . S
C646 H636 0.950 . S
C646 C647 1.386 . S
C646 C648 1.391 . S
C647 C646 1.386 . S
C647 C651 1.393 . S
C648 H637 0.950 . S
C648 C646 1.391 . S
C648 C649 1.400 . S
C649 C643 1.491 . S
C649 C648 1.400 . S
C649 C650 1.398 . S
C650 H638 0.950 . S
C650 C649 1.398 . S
C650 C651 1.391 . S
C651 H639 0.950 . S
C651 C647 1.393 . S
C651 C650 1.391 . S
H652 C660 0.950 . S
H653 C665 0.950 . S
H654 C662 0.950 . S
H655 C664 0.950 . S
H656 C666 0.950 . S
H657 C668 0.950 . S
H658 C670 0.950 . S
H659 C671 0.950 . S
C660 H652 0.950 . S
C660 C661 1.386 . S
C660 C662 1.391 . S
C661 C660 1.386 . S
C661 C665 1.393 . S
C662 H654 0.950 . S
C662 C660 1.391 . S
C662 C663 1.400 . S
C663 C662 1.400 . S
C663 C664 1.398 . S
C663 C669 1.491 . S
C664 H655 0.950 . S
C664 C663 1.398 . S
C664 C665 1.391 . S
C665 H653 0.950 . S
C665 C661 1.393 . S
C665 C664 1.391 . S
C666 H656 0.950 . S
C666 C667 1.386 . S
C666 C668 1.391 . S
C667 C666 1.386 . S
C667 C671 1.393 . S
C668 H657 0.950 . S
C668 C666 1.391 . S
C668 C669 1.400 . S
C669 C663 1.491 . S
C669 C668 1.400 . S
C669 C670 1.398 . S
C670 H658 0.950 . S
C670 C669 1.398 . S
C670 C671 1.391 . S
C671 H659 0.950 . S
C671 C667 1.393 . S
C671 C670 1.391 . S
H672 C680 0.950 . S
H673 C685 0.950 . S
H674 C682 0.950 . S
H675 C684 0.950 . S
H676 C686 0.950 . S
H677 C688 0.950 . S
H678 C690 0.950 . S
H679 C691 0.950 . S
C680 H672 0.950 . S
C680 C681 1.386 . S
C680 C682 1.391 . S
C681 C680 1.386 . S
C681 C685 1.393 . S
C682 H674 0.950 . S
C682 C680 1.391 . S
C682 C683 1.400 . S
C683 C682 1.400 . S
C683 C684 1.398 . S
C683 C689 1.491 1_554 S
C684 H675 0.950 . S
C684 C683 1.398 . S
C684 C685 1.391 . S
C685 H673 0.950 . S
C685 C681 1.393 . S
C685 C684 1.391 . S
C686 H676 0.950 . S
C686 C687 1.386 . S
C686 C688 1.391 . S
C687 C686 1.386 . S
C687 C691 1.393 . S
C688 H677 0.950 . S
C688 C686 1.391 . S
C688 C689 1.400 . S
C689 C683 1.491 1_556 S
C689 C688 1.400 . S
C689 C690 1.398 . S
C690 H678 0.950 . S
C690 C689 1.398 . S
C690 C691 1.391 . S
C691 H679 0.950 . S
C691 C687 1.393 . S
C691 C690 1.391 . S
H692 C700 0.950 . S
H693 C705 0.950 . S
H694 C702 0.950 . S
H695 C704 0.950 . S
H696 C706 0.950 . S
H697 C708 0.950 . S
H698 C710 0.950 . S
H699 C711 0.950 . S
C700 H692 0.950 . S
C700 C701 1.386 . S
C700 C702 1.391 . S
C701 C700 1.386 . S
C701 C705 1.393 . S
C702 H694 0.950 . S
C702 C700 1.391 . S
C702 C703 1.400 . S
C703 C702 1.400 . S
C703 C704 1.398 . S
C703 C709 1.491 . S
C704 H695 0.950 . S
C704 C703 1.398 . S
C704 C705 1.391 . S
C705 H693 0.950 . S
C705 C701 1.393 . S
C705 C704 1.391 . S
C706 H696 0.950 . S
C706 C707 1.386 . S
C706 C708 1.391 . S
C707 C706 1.386 . S
C707 C711 1.393 . S
C708 H697 0.950 . S
C708 C706 1.391 . S
C708 C709 1.400 . S
C709 C703 1.491 . S
C709 C708 1.400 . S
C709 C710 1.398 . S
C710 H698 0.950 . S
C710 C709 1.398 . S
C710 C711 1.391 . S
C711 H699 0.950 . S
C711 C707 1.393 . S
C711 C710 1.391 . S
H712 C720 0.950 . S
H713 C725 0.950 . S
H714 C722 0.950 . S
H715 C724 0.950 . S
H716 C726 0.950 . S
H717 C728 0.950 . S
H718 C730 0.950 . S
H719 C731 0.950 . S
C720 H712 0.950 . S
C720 C721 1.386 . S
C720 C722 1.391 . S
C721 C720 1.386 . S
C721 C725 1.393 . S
C722 H714 0.950 . S
C722 C720 1.391 . S
C722 C723 1.400 . S
C723 C722 1.400 . S
C723 C724 1.398 . S
C723 C729 1.491 1_554 S
C724 H715 0.950 . S
C724 C723 1.398 . S
C724 C725 1.391 . S
C725 H713 0.950 . S
C725 C721 1.393 . S
C725 C724 1.391 . S
C726 H716 0.950 . S
C726 C727 1.386 . S
C726 C728 1.391 . S
C727 C726 1.386 . S
C727 C731 1.393 . S
C728 H717 0.950 . S
C728 C726 1.391 . S
C728 C729 1.400 . S
C729 C723 1.491 1_556 S
C729 C728 1.400 . S
C729 C730 1.398 . S
C730 H718 0.950 . S
C730 C729 1.398 . S
C730 C731 1.391 . S
C731 H719 0.950 . S
C731 C727 1.393 . S
C731 C730 1.391 . S
H732 C740 0.950 . S
H733 C745 0.950 . S
H734 C742 0.950 . S
H735 C744 0.950 . S
H736 C746 0.950 . S
H737 C748 0.950 . S
H738 C750 0.950 . S
H739 C751 0.950 . S
C740 H732 0.950 . S
C740 C741 1.386 . S
C740 C742 1.391 . S
C741 C740 1.386 . S
C741 C745 1.393 . S
C742 H734 0.950 . S
C742 C740 1.391 . S
C742 C743 1.400 . S
C743 C742 1.400 . S
C743 C744 1.398 . S
C743 C749 1.491 . S
C744 H735 0.950 . S
C744 C743 1.398 . S
C744 C745 1.391 . S
C745 H733 0.950 . S
C745 C741 1.393 . S
C745 C744 1.391 . S
C746 H736 0.950 . S
C746 C747 1.386 . S
C746 C748 1.391 . S
C747 C746 1.386 . S
C747 C751 1.393 . S
C748 H737 0.950 . S
C748 C746 1.391 . S
C748 C749 1.400 . S
C749 C743 1.491 . S
C749 C748 1.400 . S
C749 C750 1.398 . S
C750 H738 0.950 . S
C750 C749 1.398 . S
C750 C751 1.391 . S
C751 H739 0.950 . S
C751 C747 1.393 . S
C751 C750 1.391 . S
H752 C760 0.950 . S
H753 C765 0.950 . S
H754 C762 0.950 1_554 S
H755 C764 0.950 1_565 S
H756 C766 0.950 . S
H757 C768 0.950 1_556 S
H758 C770 0.950 1_545 S
H759 C771 0.950 . S
C760 H752 0.950 . S
C760 C761 1.386 . S
C760 C762 1.391 . S
C761 C760 1.386 . S
C761 C765 1.393 . S
C762 H754 0.950 1_556 S
C762 C760 1.391 . S
C762 C763 1.400 . S
C763 C762 1.400 . S
C763 C764 1.398 . S
C763 C769 1.491 1_546 S
C764 H755 0.950 1_545 S
C764 C763 1.398 . S
C764 C765 1.391 . S
C765 H753 0.950 . S
C765 C761 1.393 . S
C765 C764 1.391 . S
C766 H756 0.950 . S
C766 C767 1.386 . S
C766 C768 1.391 . S
C767 C766 1.386 . S
C767 C771 1.393 . S
C768 H757 0.950 1_554 S
C768 C766 1.391 . S
C768 C769 1.400 . S
C769 C763 1.491 1_564 S
C769 C768 1.400 . S
C769 C770 1.398 . S
C770 H758 0.950 1_565 S
C770 C769 1.398 . S
C770 C771 1.391 . S
C771 H759 0.950 . S
C771 C767 1.393 . S
C771 C770 1.391 . S
H772 C780 0.950 . S
H773 C785 0.950 . S
H774 C782 0.950 . S
H775 C784 0.950 1_545 S
H776 C786 0.950 . S
H777 C788 0.950 . S
H778 C790 0.950 1_565 S
H779 C791 0.950 . S
C780 H772 0.950 . S
C780 C781 1.386 . S
C780 C782 1.391 . S
C781 C780 1.386 . S
C781 C785 1.393 . S
C782 H774 0.950 . S
C782 C780 1.391 . S
C782 C783 1.400 . S
C783 C782 1.400 . S
C783 C784 1.398 . S
C783 C789 1.491 1_565 S
C784 H775 0.950 1_565 S
C784 C783 1.398 . S
C784 C785 1.391 . S
C785 H773 0.950 . S
C785 C781 1.393 . S
C785 C784 1.391 . S
C786 H776 0.950 . S
C786 C787 1.386 . S
C786 C788 1.391 . S
C787 C786 1.386 . S
C787 C791 1.393 . S
C788 H777 0.950 . S
C788 C786 1.391 . S
C788 C789 1.400 . S
C789 C783 1.491 1_545 S
C789 C788 1.400 . S
C789 C790 1.398 . S
C790 H778 0.950 1_545 S
C790 C789 1.398 . S
C790 C791 1.391 . S
C791 H779 0.950 . S
C791 C787 1.393 . S
C791 C790 1.391 . S
H792 C800 0.950 . S
H793 C805 0.950 . S
H794 C802 0.950 1_556 S
H795 C804 0.950 1_545 S
H796 C806 0.950 . S
H797 C808 0.950 1_554 S
H798 C810 0.950 1_565 S
H799 C811 0.950 . S
C800 H792 0.950 . S
C800 C801 1.386 . S
C800 C802 1.391 . S
C801 C800 1.386 . S
C801 C805 1.393 . S
C802 H794 0.950 1_554 S
C802 C800 1.391 . S
C802 C803 1.400 . S
C803 C802 1.400 . S
C803 C804 1.398 . S
C803 C809 1.491 1_564 S
C804 H795 0.950 1_565 S
C804 C803 1.398 . S
C804 C805 1.391 . S
C805 H793 0.950 . S
C805 C801 1.393 . S
C805 C804 1.391 . S
C806 H796 0.950 . S
C806 C807 1.386 . S
C806 C808 1.391 . S
C807 C806 1.386 . S
C807 C811 1.393 . S
C808 H797 0.950 1_556 S
C808 C806 1.391 . S
C808 C809 1.400 . S
C809 C803 1.491 1_546 S
C809 C808 1.400 . S
C809 C810 1.398 . S
C810 H798 0.950 1_545 S
C810 C809 1.398 . S
C810 C811 1.391 . S
C811 H799 0.950 . S
C811 C807 1.393 . S
C811 C810 1.391 . S
H812 C820 0.950 . S
H813 C825 0.950 . S
H814 C822 0.950 . S
H815 C824 0.950 1_545 S
H816 C826 0.950 . S
H817 C828 0.950 . S
H818 C830 0.950 1_565 S
H819 C831 0.950 . S
C820 H812 0.950 . S
C820 C821 1.386 . S
C820 C822 1.391 . S
C821 C820 1.386 . S
C821 C825 1.393 . S
C822 H814 0.950 . S
C822 C820 1.391 . S
C822 C823 1.400 . S
C823 C822 1.400 . S
C823 C824 1.398 . S
C823 C829 1.491 1_565 S
C824 H815 0.950 1_565 S
C824 C823 1.398 . S
C824 C825 1.391 . S
C825 H813 0.950 . S
C825 C821 1.393 . S
C825 C824 1.391 . S
C826 H816 0.950 . S
C826 C827 1.386 . S
C826 C828 1.391 . S
C827 C826 1.386 . S
C827 C831 1.393 . S
C828 H817 0.950 . S
C828 C826 1.391 . S
C828 C829 1.400 . S
C829 C823 1.491 1_545 S
C829 C828 1.400 . S
C829 C830 1.398 . S
C830 H818 0.950 1_545 S
C830 C829 1.398 . S
C830 C831 1.391 . S
C831 H819 0.950 . S
C831 C827 1.393 . S
C831 C830 1.391 . S
H832 C840 0.950 . S
H833 C845 0.950 . S
H834 C842 0.950 . S
H835 C844 0.950 . S
H836 C846 0.950 . S
H837 C848 0.950 . S
H838 C850 0.950 . S
H839 C851 0.950 . S
C840 H832 0.950 . S
C840 C841 1.386 . S
C840 C842 1.391 . S
C841 C840 1.386 . S
C841 C845 1.393 . S
C842 H834 0.950 . S
C842 C840 1.391 . S
C842 C843 1.400 . S
C843 C842 1.400 . S
C843 C844 1.398 . S
C843 C849 1.491 . S
C844 H835 0.950 . S
C844 C843 1.398 . S
C844 C845 1.391 . S
C845 H833 0.950 . S
C845 C841 1.393 . S
C845 C844 1.391 . S
C846 H836 0.950 . S
C846 C847 1.386 . S
C846 C848 1.391 . S
C847 C846 1.386 . S
C847 C851 1.393 . S
C848 H837 0.950 . S
C848 C846 1.391 . S
C848 C849 1.400 . S
C849 C843 1.491 . S
C849 C848 1.400 . S
C849 C850 1.398 . S
C850 H838 0.950 . S
C850 C849 1.398 . S
C850 C851 1.391 . S
C851 H839 0.950 . S
C851 C847 1.393 . S
C851 C850 1.391 . S
H852 C860 0.950 . S
H853 C865 0.950 . S
H854 C862 0.950 . S
H855 C864 0.950 . S
H856 C866 0.950 . S
H857 C868 0.950 . S
H858 C870 0.950 . S
H859 C871 0.950 . S
C860 H852 0.950 . S
C860 C861 1.386 . S
C860 C862 1.391 . S
C861 C860 1.386 . S
C861 C865 1.393 . S
C862 H854 0.950 . S
C862 C860 1.391 . S
C862 C863 1.400 . S
C863 C862 1.400 . S
C863 C864 1.398 . S
C863 C869 1.491 . S
C864 H855 0.950 . S
C864 C863 1.398 . S
C864 C865 1.391 . S
C865 H853 0.950 . S
C865 C861 1.393 . S
C865 C864 1.391 . S
C866 H856 0.950 . S
C866 C867 1.386 . S
C866 C868 1.391 . S
C867 C866 1.386 . S
C867 C871 1.393 . S
C868 H857 0.950 . S
C868 C866 1.391 . S
C868 C869 1.400 . S
C869 C863 1.491 . S
C869 C868 1.400 . S
C869 C870 1.398 . S
C870 H858 0.950 . S
C870 C869 1.398 . S
C870 C871 1.391 . S
C871 H859 0.950 . S
C871 C867 1.393 . S
C871 C870 1.391 . S
H872 C880 0.950 . S
H873 C885 0.950 . S
H874 C882 0.950 . S
H875 C884 0.950 . S
H876 C886 0.950 . S
H877 C888 0.950 . S
H878 C890 0.950 . S
H879 C891 0.950 . S
C880 H872 0.950 . S
C880 C881 1.386 . S
C880 C882 1.391 . S
C881 C880 1.386 . S
C881 C885 1.393 . S
C882 H874 0.950 . S
C882 C880 1.391 . S
C882 C883 1.400 . S
C883 C882 1.400 . S
C883 C884 1.398 . S
C883 C889 1.491 . S
C884 H875 0.950 . S
C884 C883 1.398 . S
C884 C885 1.391 . S
C885 H873 0.950 . S
C885 C881 1.393 . S
C885 C884 1.391 . S
C886 H876 0.950 . S
C886 C887 1.386 . S
C886 C888 1.391 . S
C887 C886 1.386 . S
C887 C891 1.393 . S
C888 H877 0.950 . S
C888 C886 1.391 . S
C888 C889 1.400 . S
C889 C883 1.491 . S
C889 C888 1.400 . S
C889 C890 1.398 . S
C890 H878 0.950 . S
C890 C889 1.398 . S
C890 C891 1.391 . S
C891 H879 0.950 . S
C891 C887 1.393 . S
C891 C890 1.391 . S
H892 C900 0.950 . S
H893 C905 0.950 . S
H894 C902 0.950 . S
H895 C904 0.950 . S
H896 C906 0.950 . S
H897 C908 0.950 . S
H898 C910 0.950 . S
H899 C911 0.950 . S
C900 H892 0.950 . S
C900 C901 1.386 . S
C900 C902 1.391 . S
C901 C900 1.386 . S
C901 C905 1.393 . S
C902 H894 0.950 . S
C902 C900 1.391 . S
C902 C903 1.400 . S
C903 C902 1.400 . S
C903 C904 1.398 . S
C903 C909 1.491 . S
C904 H895 0.950 . S
C904 C903 1.398 . S
C904 C905 1.391 . S
C905 H893 0.950 . S
C905 C901 1.393 . S
C905 C904 1.391 . S
C906 H896 0.950 . S
C906 C907 1.386 . S
C906 C908 1.391 . S
C907 C906 1.386 . S
C907 C911 1.393 . S
C908 H897 0.950 . S
C908 C906 1.391 . S
C908 C909 1.400 . S
C909 C903 1.491 . S
C909 C908 1.400 . S
C909 C910 1.398 . S
C910 H898 0.950 . S
C910 C909 1.398 . S
C910 C911 1.391 . S
C911 H899 0.950 . S
C911 C907 1.393 . S
C911 C910 1.391 . S
H912 C920 0.950 . S
H913 C925 0.950 . S
H914 C922 0.950 . S
H915 C924 0.950 . S
H916 C926 0.950 . S
H917 C928 0.950 . S
H918 C930 0.950 . S
H919 C931 0.950 . S
C920 H912 0.950 . S
C920 C921 1.386 . S
C920 C922 1.391 . S
C921 C920 1.386 . S
C921 C925 1.393 . S
C922 H914 0.950 . S
C922 C920 1.391 . S
C922 C923 1.400 . S
C923 C922 1.400 . S
C923 C924 1.398 . S
C923 C929 1.491 1_655 S
C924 H915 0.950 . S
C924 C923 1.398 . S
C924 C925 1.391 . S
C925 H913 0.950 . S
C925 C921 1.393 . S
C925 C924 1.391 . S
C926 H916 0.950 . S
C926 C927 1.386 . S
C926 C928 1.391 . S
C927 C926 1.386 . S
C927 C931 1.393 . S
C928 H917 0.950 . S
C928 C926 1.391 . S
C928 C929 1.400 . S
C929 C923 1.491 1_455 S
C929 C928 1.400 . S
C929 C930 1.398 . S
C930 H918 0.950 . S
C930 C929 1.398 . S
C930 C931 1.391 . S
C931 H919 0.950 . S
C931 C927 1.393 . S
C931 C930 1.391 . S
H932 C940 0.950 . S
H933 C945 0.950 . S
H934 C942 0.950 . S
H935 C944 0.950 . S
H936 C946 0.950 . S
H937 C948 0.950 . S
H938 C950 0.950 . S
H939 C951 0.950 . S
C940 H932 0.950 . S
C940 C941 1.386 . S
C940 C942 1.391 . S
C941 C940 1.386 . S
C941 C945 1.393 . S
C942 H934 0.950 . S
C942 C940 1.391 . S
C942 C943 1.400 . S
C943 C942 1.400 . S
C943 C944 1.398 . S
C943 C949 1.491 1_655 S
C944 H935 0.950 . S
C944 C943 1.398 . S
C944 C945 1.391 . S
C945 H933 0.950 . S
C945 C941 1.393 . S
C945 C944 1.391 . S
C946 H936 0.950 . S
C946 C947 1.386 . S
C946 C948 1.391 . S
C947 C946 1.386 . S
C947 C951 1.393 . S
C948 H937 0.950 . S
C948 C946 1.391 . S
C948 C949 1.400 . S
C949 C943 1.491 1_455 S
C949 C948 1.400 . S
C949 C950 1.398 . S
C950 H938 0.950 . S
C950 C949 1.398 . S
C950 C951 1.391 . S
C951 H939 0.950 . S
C951 C947 1.393 . S
C951 C950 1.391 . S
H952 C960 0.950 . S
H953 C965 0.950 . S
H954 C962 0.950 . S
H955 C964 0.950 . S
H956 C966 0.950 . S
H957 C968 0.950 . S
H958 C970 0.950 . S
H959 C971 0.950 . S
C960 H952 0.950 . S
C960 C961 1.386 . S
C960 C962 1.391 . S
C961 C960 1.386 . S
C961 C965 1.393 . S
C962 H954 0.950 . S
C962 C960 1.391 . S
C962 C963 1.400 . S
C963 C962 1.400 . S
C963 C964 1.398 . S
C963 C969 1.491 1_455 S
C964 H955 0.950 . S
C964 C963 1.398 . S
C964 C965 1.391 . S
C965 H953 0.950 . S
C965 C961 1.393 . S
C965 C964 1.391 . S
C966 H956 0.950 . S
C966 C967 1.386 . S
C966 C968 1.391 . S
C967 C966 1.386 . S
C967 C971 1.393 . S
C968 H957 0.950 . S
C968 C966 1.391 . S
C968 C969 1.400 . S
C969 C963 1.491 1_655 S
C969 C968 1.400 . S
C969 C970 1.398 . S
C970 H958 0.950 . S
C970 C969 1.398 . S
C970 C971 1.391 . S
C971 H959 0.950 . S
C971 C967 1.393 . S
C971 C970 1.391 . S
H972 C980 0.950 . S
H973 C985 0.950 . S
H974 C982 0.950 . S
H975 C984 0.950 . S
H976 C986 0.950 . S
H977 C988 0.950 . S
H978 C990 0.950 . S
H979 C991 0.950 . S
C980 H972 0.950 . S
C980 C981 1.386 . S
C980 C982 1.391 . S
C981 C980 1.386 . S
C981 C985 1.393 . S
C982 H974 0.950 . S
C982 C980 1.391 . S
C982 C983 1.400 . S
C983 C982 1.400 . S
C983 C984 1.398 . S
C983 C989 1.491 1_455 S
C984 H975 0.950 . S
C984 C983 1.398 . S
C984 C985 1.391 . S
C985 H973 0.950 . S
C985 C981 1.393 . S
C985 C984 1.391 . S
C986 H976 0.950 . S
C986 C987 1.386 . S
C986 C988 1.391 . S
C987 C986 1.386 . S
C987 C991 1.393 . S
C988 H977 0.950 . S
C988 C986 1.391 . S
C988 C989 1.400 . S
C989 C983 1.491 1_655 S
C989 C988 1.400 . S
C989 C990 1.398 . S
C990 H978 0.950 . S
C990 C989 1.398 . S
C990 C991 1.391 . S
C991 H979 0.950 . S
C991 C987 1.393 . S
C991 C990 1.391 . S
H992 C1000 0.950 . S
H993 C1005 0.950 . S
H994 C1002 0.950 . S
H995 C1004 0.950 . S
H996 C1006 0.950 . S
H997 C1008 0.950 . S
H998 C1010 0.950 . S
H999 C1011 0.950 . S
C1000 H992 0.950 . S
C1000 C1001 1.386 . S
C1000 C1002 1.391 . S
C1001 C1000 1.386 . S
C1001 C1005 1.393 . S
C1002 H994 0.950 . S
C1002 C1000 1.391 . S
C1002 C1003 1.400 . S
C1003 C1002 1.400 . S
C1003 C1004 1.398 . S
C1003 C1009 1.491 1_554 S
C1004 H995 0.950 . S
C1004 C1003 1.398 . S
C1004 C1005 1.391 . S
C1005 H993 0.950 . S
C1005 C1001 1.393 . S
C1005 C1004 1.391 . S
C1006 H996 0.950 . S
C1006 C1007 1.386 . S
C1006 C1008 1.391 . S
C1007 C1006 1.386 . S
C1007 C1011 1.393 . S
C1008 H997 0.950 . S
C1008 C1006 1.391 . S
C1008 C1009 1.400 . S
C1009 C1003 1.491 1_556 S
C1009 C1008 1.400 . S
C1009 C1010 1.398 . S
C1010 H998 0.950 . S
C1010 C1009 1.398 . S
C1010 C1011 1.391 . S
C1011 H999 0.950 . S
C1011 C1007 1.393 . S
C1011 C1010 1.391 . S
H1012 C1020 0.950 . S
H1013 C1025 0.950 . S
H1014 C1022 0.950 . S
H1015 C1024 0.950 . S
H1016 C1026 0.950 . S
H1017 C1028 0.950 . S
H1018 C1030 0.950 . S
H1019 C1031 0.950 . S
C1020 H1012 0.950 . S
C1020 C1021 1.386 . S
C1020 C1022 1.391 . S
C1021 C1020 1.386 . S
C1021 C1025 1.393 . S
C1022 H1014 0.950 . S
C1022 C1020 1.391 . S
C1022 C1023 1.400 . S
C1023 C1022 1.400 . S
C1023 C1024 1.398 . S
C1023 C1029 1.491 . S
C1024 H1015 0.950 . S
C1024 C1023 1.398 . S
C1024 C1025 1.391 . S
C1025 H1013 0.950 . S
C1025 C1021 1.393 . S
C1025 C1024 1.391 . S
C1026 H1016 0.950 . S
C1026 C1027 1.386 . S
C1026 C1028 1.391 . S
C1027 C1026 1.386 . S
C1027 C1031 1.393 . S
C1028 H1017 0.950 . S
C1028 C1026 1.391 . S
C1028 C1029 1.400 . S
C1029 C1023 1.491 . S
C1029 C1028 1.400 . S
C1029 C1030 1.398 . S
C1030 H1018 0.950 . S
C1030 C1029 1.398 . S
C1030 C1031 1.391 . S
C1031 H1019 0.950 . S
C1031 C1027 1.393 . S
C1031 C1030 1.391 . S
H1032 C1040 0.950 . S
H1033 C1045 0.950 . S
H1034 C1042 0.950 . S
H1035 C1044 0.950 . S
H1036 C1046 0.950 . S
H1037 C1048 0.950 . S
H1038 C1050 0.950 . S
H1039 C1051 0.950 . S
C1040 H1032 0.950 . S
C1040 C1041 1.386 . S
C1040 C1042 1.391 . S
C1041 C1040 1.386 . S
C1041 C1045 1.393 . S
C1042 H1034 0.950 . S
C1042 C1040 1.391 . S
C1042 C1043 1.400 . S
C1043 C1042 1.400 . S
C1043 C1044 1.398 . S
C1043 C1049 1.491 1_554 S
C1044 H1035 0.950 . S
C1044 C1043 1.398 . S
C1044 C1045 1.391 . S
C1045 H1033 0.950 . S
C1045 C1041 1.393 . S
C1045 C1044 1.391 . S
C1046 H1036 0.950 . S
C1046 C1047 1.386 . S
C1046 C1048 1.391 . S
C1047 C1046 1.386 . S
C1047 C1051 1.393 . S
C1048 H1037 0.950 . S
C1048 C1046 1.391 . S
C1048 C1049 1.400 . S
C1049 C1043 1.491 1_556 S
C1049 C1048 1.400 . S
C1049 C1050 1.398 . S
C1050 H1038 0.950 . S
C1050 C1049 1.398 . S
C1050 C1051 1.391 . S
C1051 H1039 0.950 . S
C1051 C1047 1.393 . S
C1051 C1050 1.391 . S
H1052 C1060 0.950 . S
H1053 C1065 0.950 . S
H1054 C1062 0.950 . S
H1055 C1064 0.950 . S
H1056 C1066 0.950 . S
H1057 C1068 0.950 . S
H1058 C1070 0.950 . S
H1059 C1071 0.950 . S
C1060 H1052 0.950 . S
C1060 C1061 1.386 . S
C1060 C1062 1.391 . S
C1061 C1060 1.386 . S
C1061 C1065 1.393 . S
C1062 H1054 0.950 . S
C1062 C1060 1.391 . S
C1062 C1063 1.400 . S
C1063 C1062 1.400 . S
C1063 C1064 1.398 . S
C1063 C1069 1.491 . S
C1064 H1055 0.950 . S
C1064 C1063 1.398 . S
C1064 C1065 1.391 . S
C1065 H1053 0.950 . S
C1065 C1061 1.393 . S
C1065 C1064 1.391 . S
C1066 H1056 0.950 . S
C1066 C1067 1.386 . S
C1066 C1068 1.391 . S
C1067 C1066 1.386 . S
C1067 C1071 1.393 . S
C1068 H1057 0.950 . S
C1068 C1066 1.391 . S
C1068 C1069 1.400 . S
C1069 C1063 1.491 . S
C1069 C1068 1.400 . S
C1069 C1070 1.398 . S
C1070 H1058 0.950 . S
C1070 C1069 1.398 . S
C1070 C1071 1.391 . S
C1071 H1059 0.950 . S
C1071 C1067 1.393 . S
C1071 C1070 1.391 . S
H1072 C1080 0.950 . S
H1073 C1085 0.950 . S
H1074 C1082 0.950 . S
H1075 C1084 0.950 . S
H1076 C1086 0.950 . S
H1077 C1088 0.950 . S
H1078 C1090 0.950 . S
H1079 C1091 0.950 . S
C1080 H1072 0.950 . S
C1080 C1081 1.386 . S
C1080 C1082 1.391 . S
C1081 C1080 1.386 . S
C1081 C1085 1.393 . S
C1082 H1074 0.950 . S
C1082 C1080 1.391 . S
C1082 C1083 1.400 . S
C1083 C1082 1.400 . S
C1083 C1084 1.398 . S
C1083 C1089 1.491 1_554 S
C1084 H1075 0.950 . S
C1084 C1083 1.398 . S
C1084 C1085 1.391 . S
C1085 H1073 0.950 . S
C1085 C1081 1.393 . S
C1085 C1084 1.391 . S
C1086 H1076 0.950 . S
C1086 C1087 1.386 . S
C1086 C1088 1.391 . S
C1087 C1086 1.386 . S
C1087 C1091 1.393 . S
C1088 H1077 0.950 . S
C1088 C1086 1.391 . S
C1088 C1089 1.400 . S
C1089 C1083 1.491 1_556 S
C1089 C1088 1.400 . S
C1089 C1090 1.398 . S
C1090 H1078 0.950 . S
C1090 C1089 1.398 . S
C1090 C1091 1.391 . S
C1091 H1079 0.950 . S
C1091 C1087 1.393 . S
C1091 C1090 1.391 . S
H1092 C1100 0.950 . S
H1093 C1105 0.950 . S
H1094 C1102 0.950 . S
H1095 C1104 0.950 . S
H1096 C1106 0.950 . S
H1097 C1108 0.950 . S
H1098 C1110 0.950 . S
H1099 C1111 0.950 . S
C1100 H1092 0.950 . S
C1100 C1101 1.386 . S
C1100 C1102 1.391 . S
C1101 C1100 1.386 . S
C1101 C1105 1.393 . S
C1102 H1094 0.950 . S
C1102 C1100 1.391 . S
C1102 C1103 1.400 . S
C1103 C1102 1.400 . S
C1103 C1104 1.398 . S
C1103 C1109 1.491 . S
C1104 H1095 0.950 . S
C1104 C1103 1.398 . S
C1104 C1105 1.391 . S
C1105 H1093 0.950 . S
C1105 C1101 1.393 . S
C1105 C1104 1.391 . S
C1106 H1096 0.950 . S
C1106 C1107 1.386 . S
C1106 C1108 1.391 . S
C1107 C1106 1.386 . S
C1107 C1111 1.393 . S
C1108 H1097 0.950 . S
C1108 C1106 1.391 . S
C1108 C1109 1.400 . S
C1109 C1103 1.491 . S
C1109 C1108 1.400 . S
C1109 C1110 1.398 . S
C1110 H1098 0.950 . S
C1110 C1109 1.398 . S
C1110 C1111 1.391 . S
C1111 H1099 0.950 . S
C1111 C1107 1.393 . S
C1111 C1110 1.391 . S
H1112 C1120 0.950 . S
H1113 C1125 0.950 . S
H1114 C1122 0.950 . S
H1115 C1124 0.950 . S
H1116 C1126 0.950 . S
H1117 C1128 0.950 . S
H1118 C1130 0.950 . S
H1119 C1131 0.950 . S
C1120 H1112 0.950 . S
C1120 C1121 1.386 . S
C1120 C1122 1.391 . S
C1121 C1120 1.386 . S
C1121 C1125 1.393 . S
C1122 H1114 0.950 . S
C1122 C1120 1.391 . S
C1122 C1123 1.400 . S
C1123 C1122 1.400 . S
C1123 C1124 1.398 . S
C1123 C1129 1.491 1_554 S
C1124 H1115 0.950 . S
C1124 C1123 1.398 . S
C1124 C1125 1.391 . S
C1125 H1113 0.950 . S
C1125 C1121 1.393 . S
C1125 C1124 1.391 . S
C1126 H1116 0.950 . S
C1126 C1127 1.386 . S
C1126 C1128 1.391 . S
C1127 C1126 1.386 . S
C1127 C1131 1.393 . S
C1128 H1117 0.950 . S
C1128 C1126 1.391 . S
C1128 C1129 1.400 . S
C1129 C1123 1.491 1_556 S
C1129 C1128 1.400 . S
C1129 C1130 1.398 . S
C1130 H1118 0.950 . S
C1130 C1129 1.398 . S
C1130 C1131 1.391 . S
C1131 H1119 0.950 . S
C1131 C1127 1.393 . S
C1131 C1130 1.391 . S
H1132 C1140 0.950 . S
H1133 C1145 0.950 . S
H1134 C1142 0.950 . S
H1135 C1144 0.950 . S
H1136 C1146 0.950 . S
H1137 C1148 0.950 . S
H1138 C1150 0.950 . S
H1139 C1151 0.950 . S
C1140 H1132 0.950 . S
C1140 C1141 1.386 . S
C1140 C1142 1.391 . S
C1141 C1140 1.386 . S
C1141 C1145 1.393 . S
C1142 H1134 0.950 . S
C1142 C1140 1.391 . S
C1142 C1143 1.400 . S
C1143 C1142 1.400 . S
C1143 C1144 1.398 . S
C1143 C1149 1.491 . S
C1144 H1135 0.950 . S
C1144 C1143 1.398 . S
C1144 C1145 1.391 . S
C1145 H1133 0.950 . S
C1145 C1141 1.393 . S
C1145 C1144 1.391 . S
C1146 H1136 0.950 . S
C1146 C1147 1.386 . S
C1146 C1148 1.391 . S
C1147 C1146 1.386 . S
C1147 C1151 1.393 . S
C1148 H1137 0.950 . S
C1148 C1146 1.391 . S
C1148 C1149 1.400 . S
C1149 C1143 1.491 . S
C1149 C1148 1.400 . S
C1149 C1150 1.398 . S
C1150 H1138 0.950 . S
C1150 C1149 1.398 . S
C1150 C1151 1.391 . S
C1151 H1139 0.950 . S
C1151 C1147 1.393 . S
C1151 C1150 1.391 . S
H1152 C1160 0.950 . S
H1153 C1165 0.950 . S
H1154 C1162 0.950 . S
H1155 C1164 0.950 . S
H1156 C1166 0.950 . S
H1157 C1168 0.950 . S
H1158 C1170 0.950 . S
H1159 C1171 0.950 . S
C1160 H1152 0.950 . S
C1160 C1161 1.386 . S
C1160 C1162 1.391 . S
C1161 C1160 1.386 . S
C1161 C1165 1.393 . S
C1162 H1154 0.950 . S
C1162 C1160 1.391 . S
C1162 C1163 1.400 . S
C1163 C1162 1.400 . S
C1163 C1164 1.398 . S
C1163 C1169 1.491 . S
C1164 H1155 0.950 . S
C1164 C1163 1.398 . S
C1164 C1165 1.391 . S
C1165 H1153 0.950 . S
C1165 C1161 1.393 . S
C1165 C1164 1.391 . S
C1166 H1156 0.950 . S
C1166 C1167 1.386 . S
C1166 C1168 1.391 . S
C1167 C1166 1.386 . S
C1167 C1171 1.393 . S
C1168 H1157 0.950 . S
C1168 C1166 1.391 . S
C1168 C1169 1.400 . S
C1169 C1163 1.491 . S
C1169 C1168 1.400 . S
C1169 C1170 1.398 . S
C1170 H1158 0.950 . S
C1170 C1169 1.398 . S
C1170 C1171 1.391 . S
C1171 H1159 0.950 . S
C1171 C1167 1.393 . S
C1171 C1170 1.391 . S
H1172 C1180 0.950 . S
H1173 C1185 0.950 . S
H1174 C1182 0.950 . S
H1175 C1184 0.950 . S
H1176 C1186 0.950 . S
H1177 C1188 0.950 . S
H1178 C1190 0.950 . S
H1179 C1191 0.950 . S
C1180 H1172 0.950 . S
C1180 C1181 1.386 . S
C1180 C1182 1.391 . S
C1181 C1180 1.386 . S
C1181 C1185 1.393 . S
C1182 H1174 0.950 . S
C1182 C1180 1.391 . S
C1182 C1183 1.400 . S
C1183 C1182 1.400 . S
C1183 C1184 1.398 . S
C1183 C1189 1.491 . S
C1184 H1175 0.950 . S
C1184 C1183 1.398 . S
C1184 C1185 1.391 . S
C1185 H1173 0.950 . S
C1185 C1181 1.393 . S
C1185 C1184 1.391 . S
C1186 H1176 0.950 . S
C1186 C1187 1.386 . S
C1186 C1188 1.391 . S
C1187 C1186 1.386 . S
C1187 C1191 1.393 . S
C1188 H1177 0.950 . S
C1188 C1186 1.391 . S
C1188 C1189 1.400 . S
C1189 C1183 1.491 . S
C1189 C1188 1.400 . S
C1189 C1190 1.398 . S
C1190 H1178 0.950 . S
C1190 C1189 1.398 . S
C1190 C1191 1.391 . S
C1191 H1179 0.950 . S
C1191 C1187 1.393 . S
C1191 C1190 1.391 . S
H1192 C1200 0.950 . S
H1193 C1205 0.950 . S
H1194 C1202 0.950 . S
H1195 C1204 0.950 . S
H1196 C1206 0.950 . S
H1197 C1208 0.950 . S
H1198 C1210 0.950 . S
H1199 C1211 0.950 . S
C1200 H1192 0.950 . S
C1200 C1201 1.386 . S
C1200 C1202 1.391 . S
C1201 C1200 1.386 . S
C1201 C1205 1.393 . S
C1202 H1194 0.950 . S
C1202 C1200 1.391 . S
C1202 C1203 1.400 . S
C1203 C1202 1.400 . S
C1203 C1204 1.398 . S
C1203 C1209 1.491 . S
C1204 H1195 0.950 . S
C1204 C1203 1.398 . S
C1204 C1205 1.391 . S
C1205 H1193 0.950 . S
C1205 C1201 1.393 . S
C1205 C1204 1.391 . S
C1206 H1196 0.950 . S
C1206 C1207 1.386 . S
C1206 C1208 1.391 . S
C1207 C1206 1.386 . S
C1207 C1211 1.393 . S
C1208 H1197 0.950 . S
C1208 C1206 1.391 . S
C1208 C1209 1.400 . S
C1209 C1203 1.491 . S
C1209 C1208 1.400 . S
C1209 C1210 1.398 . S
C1210 H1198 0.950 . S
C1210 C1209 1.398 . S
C1210 C1211 1.391 . S
C1211 H1199 0.950 . S
C1211 C1207 1.393 . S
C1211 C1210 1.391 . S
H1212 C1220 0.950 . S
H1213 C1225 0.950 . S
H1214 C1222 0.950 . S
H1215 C1224 0.950 . S
H1216 C1226 0.950 . S
H1217 C1228 0.950 . S
H1218 C1230 0.950 . S
H1219 C1231 0.950 . S
C1220 H1212 0.950 . S
C1220 C1221 1.386 . S
C1220 C1222 1.391 . S
C1221 C1220 1.386 . S
C1221 C1225 1.393 . S
C1222 H1214 0.950 . S
C1222 C1220 1.391 . S
C1222 C1223 1.400 . S
C1223 C1222 1.400 . S
C1223 C1224 1.398 . S
C1223 C1229 1.491 . S
C1224 H1215 0.950 . S
C1224 C1223 1.398 . S
C1224 C1225 1.391 . S
C1225 H1213 0.950 . S
C1225 C1221 1.393 . S
C1225 C1224 1.391 . S
C1226 H1216 0.950 . S
C1226 C1227 1.386 . S
C1226 C1228 1.391 . S
C1227 C1226 1.386 . S
C1227 C1231 1.393 . S
C1228 H1217 0.950 . S
C1228 C1226 1.391 . S
C1228 C1229 1.400 . S
C1229 C1223 1.491 . S
C1229 C1228 1.400 . S
C1229 C1230 1.398 . S
C1230 H1218 0.950 . S
C1230 C1229 1.398 . S
C1230 C1231 1.391 . S
C1231 H1219 0.950 . S
C1231 C1227 1.393 . S
C1231 C1230 1.391 . S
H1232 C1240 0.950 . S
H1233 C1245 0.950 . S
H1234 C1242 0.950 . S
H1235 C1244 0.950 . S
H1236 C1246 0.950 . S
H1237 C1248 0.950 . S
H1238 C1250 0.950 . S
H1239 C1251 0.950 . S
C1240 H1232 0.950 . S
C1240 C1241 1.386 . S
C1240 C1242 1.391 . S
C1241 C1240 1.386 . S
C1241 C1245 1.393 . S
C1242 H1234 0.950 . S
C1242 C1240 1.391 . S
C1242 C1243 1.400 . S
C1243 C1242 1.400 . S
C1243 C1244 1.398 . S
C1243 C1249 1.491 . S
C1244 H1235 0.950 . S
C1244 C1243 1.398 . S
C1244 C1245 1.391 . S
C1245 H1233 0.950 . S
C1245 C1241 1.393 . S
C1245 C1244 1.391 . S
C1246 H1236 0.950 . S
C1246 C1247 1.386 . S
C1246 C1248 1.391 . S
C1247 C1246 1.386 . S
C1247 C1251 1.393 . S
C1248 H1237 0.950 . S
C1248 C1246 1.391 . S
C1248 C1249 1.400 . S
C1249 C1243 1.491 . S
C1249 C1248 1.400 . S
C1249 C1250 1.398 . S
C1250 H1238 0.950 . S
C1250 C1249 1.398 . S
C1250 C1251 1.391 . S
C1251 H1239 0.950 . S
C1251 C1247 1.393 . S
C1251 C1250 1.391 . S
H1252 C1260 0.950 . S
H1253 C1265 0.950 . S
H1254 C1262 0.950 . S
H1255 C1264 0.950 . S
H1256 C1266 0.950 . S
H1257 C1268 0.950 . S
H1258 C1270 0.950 . S
H1259 C1271 0.950 . S
C1260 H1252 0.950 . S
C1260 C1261 1.386 . S
C1260 C1262 1.391 . S
C1261 C1260 1.386 . S
C1261 C1265 1.393 . S
C1262 H1254 0.950 . S
C1262 C1260 1.391 . S
C1262 C1263 1.400 . S
C1263 C1262 1.400 . S
C1263 C1264 1.398 . S
C1263 C1269 1.491 . S
C1264 H1255 0.950 . S
C1264 C1263 1.398 . S
C1264 C1265 1.391 . S
C1265 H1253 0.950 . S
C1265 C1261 1.393 . S
C1265 C1264 1.391 . S
C1266 H1256 0.950 . S
C1266 C1267 1.386 . S
C1266 C1268 1.391 . S
C1267 C1266 1.386 . S
C1267 C1271 1.393 . S
C1268 H1257 0.950 . S
C1268 C1266 1.391 . S
C1268 C1269 1.400 . S
C1269 C1263 1.491 . S
C1269 C1268 1.400 . S
C1269 C1270 1.398 . S
C1270 H1258 0.950 . S
C1270 C1269 1.398 . S
C1270 C1271 1.391 . S
C1271 H1259 0.950 . S
C1271 C1267 1.393 . S
C1271 C1270 1.391 . S
H1272 C1280 0.950 . S
H1273 C1285 0.950 . S
H1274 C1282 0.950 . S
H1275 C1284 0.950 . S
H1276 C1286 0.950 . S
H1277 C1288 0.950 . S
H1278 C1290 0.950 . S
H1279 C1291 0.950 . S
C1280 H1272 0.950 . S
C1280 C1281 1.386 . S
C1280 C1282 1.391 . S
C1281 C1280 1.386 . S
C1281 C1285 1.393 . S
C1282 H1274 0.950 . S
C1282 C1280 1.391 . S
C1282 C1283 1.400 . S
C1283 C1282 1.400 . S
C1283 C1284 1.398 . S
C1283 C1289 1.491 . S
C1284 H1275 0.950 . S
C1284 C1283 1.398 . S
C1284 C1285 1.391 . S
C1285 H1273 0.950 . S
C1285 C1281 1.393 . S
C1285 C1284 1.391 . S
C1286 H1276 0.950 . S
C1286 C1287 1.386 . S
C1286 C1288 1.391 . S
C1287 C1286 1.386 . S
C1287 C1291 1.393 . S
C1288 H1277 0.950 . S
C1288 C1286 1.391 . S
C1288 C1289 1.400 . S
C1289 C1283 1.491 . S
C1289 C1288 1.400 . S
C1289 C1290 1.398 . S
C1290 H1278 0.950 . S
C1290 C1289 1.398 . S
C1290 C1291 1.391 . S
C1291 H1279 0.950 . S
C1291 C1287 1.393 . S
C1291 C1290 1.391 . S
H1292 C1300 0.950 . S
H1293 C1305 0.950 . S
H1294 C1302 0.950 . S
H1295 C1304 0.950 . S
H1296 C1306 0.950 . S
H1297 C1308 0.950 . S
H1298 C1310 0.950 . S
H1299 C1311 0.950 . S
C1300 H1292 0.950 . S
C1300 C1301 1.386 . S
C1300 C1302 1.391 . S
C1301 C1300 1.386 . S
C1301 C1305 1.393 . S
C1302 H1294 0.950 . S
C1302 C1300 1.391 . S
C1302 C1303 1.400 . S
C1303 C1302 1.400 . S
C1303 C1304 1.398 . S
C1303 C1309 1.491 . S
C1304 H1295 0.950 . S
C1304 C1303 1.398 . S
C1304 C1305 1.391 . S
C1305 H1293 0.950 . S
C1305 C1301 1.393 . S
C1305 C1304 1.391 . S
C1306 H1296 0.950 . S
C1306 C1307 1.386 . S
C1306 C1308 1.391 . S
C1307 C1306 1.386 . S
C1307 C1311 1.393 . S
C1308 H1297 0.950 . S
C1308 C1306 1.391 . S
C1308 C1309 1.400 . S
C1309 C1303 1.491 . S
C1309 C1308 1.400 . S
C1309 C1310 1.398 . S
C1310 H1298 0.950 . S
C1310 C1309 1.398 . S
C1310 C1311 1.391 . S
C1311 H1299 0.950 . S
C1311 C1307 1.393 . S
C1311 C1310 1.391 . S
C361 C9 1.438 . S
C367 C314 1.573 . S
C381 C31 1.451 . S
C387 C336 1.571 . S
C401 C49 1.457 . S
C407 C271 1.580 . S
C421 C292 1.577 . S
C427 C75 1.473 . S
C441 C229 1.579 . S
C447 C94 1.470 . S
C461 C247 1.576 . S
C467 C117 1.473 . S
C481 C181 1.572 . S
C487 C139 1.462 . S
C501 C203 1.571 . S
C507 C161 1.461 . S
C521 C185 1.440 . S
C527 C138 1.572 . S
C541 C160 1.573 . S
C547 C207 1.469 . S
C561 C95 1.580 . S
C567 C225 1.448 . S
C581 C116 1.572 . S
C587 C251 1.439 . S
C601 C53 1.580 . S
C607 C270 1.464 . S
C621 C293 1.439 . S
C627 C71 1.573 . S
C641 C5 1.571 . S
C647 C315 1.454 . S
C661 C337 1.472 . S
C667 C27 1.578 . S
C681 C4 1.598 . S
C687 C52 1.599 . S
C701 C70 1.599 . S
C707 C26 1.601 . S
C721 C136 1.601 . S
C727 C96 1.601 . S
C741 C158 1.600 . S
C747 C114 1.599 . S
C761 C228 1.598 . S
C767 C180 1.599 . S
C781 C246 1.598 . S
C787 C202 1.599 . S
C801 C312 1.601 . S
C807 C272 1.600 . S
C821 C290 1.600 . S
C827 C334 1.599 . S
C841 C8 1.519 . S
C847 C140 1.530 . S
C861 C30 1.522 . S
C867 C162 1.527 . S
C881 C92 1.512 . S
C887 C48 1.537 . S
C901 C74 1.525 . S
C907 C118 1.524 . S
C921 C184 1.512 . S
C927 C316 1.537 . S
C941 C338 1.512 . S
C947 C206 1.538 . S
C961 C268 1.524 . S
C967 C224 1.526 . S
C981 C250 1.536 . S
C987 C294 1.513 . S
C1001 C6 0.774 . S
C1007 C273 0.774 . S
C1021 C291 0.819 . S
C1027 C28 0.819 . S
C1041 C313 0.773 . S
C1047 C51 0.773 . S
C1061 C335 0.766 . S
C1067 C72 0.766 . S
C1081 C182 0.809 . S
C1087 C97 0.809 . S
C1101 C204 0.772 . S
C1107 C115 0.772 . S
C1121 C137 0.773 . S
C1127 C227 0.773 . S
C1141 C248 0.813 . S
C1147 C159 0.813 . S
C1161 C7 1.442 . S
C1167 C119 1.439 . S
C1181 C93 1.432 . S
C1187 C29 1.450 . S
C1201 C50 1.432 . S
C1207 C163 1.449 . S
C1221 C141 1.438 . S
C1227 C73 1.443 . S
C1241 C183 1.438 . S
C1247 C295 1.444 . S
C1261 C269 1.449 . S
C1267 C205 1.432 . S
C1281 C339 1.434 . S
C1287 C226 1.448 . S
C1301 C249 1.433 . S
C1307 C317 1.449 . S
