# Generated by pormake.
# Topology unm, (4)-cn, num edge types: 1
# Building blocks:
#     Node 0, Type 0, BuildingBlock: KUFVIS_clean_sbu_0, # of connection points: 4
#     Node 1, Type 0, BuildingBlock: KUFVIS_clean_sbu_0, # of connection points: 4
#     Node 2, Type 0, BuildingBlock: KUFVIS_clean_sbu_0, # of connection points: 4
#     Node 3, Type 0, BuildingBlock: KUFVIS_clean_sbu_0, # of connection points: 4
#     Node 4, Type 0, BuildingBlock: KUFVIS_clean_sbu_0, # of connection points: 4
#     Node 5, Type 0, BuildingBlock: KUFVIS_clean_sbu_0, # of connection points: 4
#     Node 6, Type 0, BuildingBlock: KUFVIS_clean_sbu_0, # of connection points: 4
#     Node 7, Type 0, BuildingBlock: KUFVIS_clean_sbu_0, # of connection points: 4
#     Edge 8, Type (0, 0), BuildingBlock: XIVTED_clean_linker_0, # of connection points: 2
#     Edge 9, Type (0, 0), BuildingBlock: XIVTED_clean_linker_0, # of connection points: 2
#     Edge 10, Type (0, 0), BuildingBlock: XIVTED_clean_linker_0, # of connection points: 2
#     Edge 11, Type (0, 0), BuildingBlock: XIVTED_clean_linker_0, # of connection points: 2
#     Edge 12, Type (0, 0), BuildingBlock: XIVTED_clean_linker_0, # of connection points: 2
#     Edge 13, Type (0, 0), BuildingBlock: XIVTED_clean_linker_0, # of connection points: 2
#     Edge 14, Type (0, 0), BuildingBlock: XIVTED_clean_linker_0, # of connection points: 2
#     Edge 15, Type (0, 0), BuildingBlock: XIVTED_clean_linker_0, # of connection points: 2
#     Edge 16, Type (0, 0), BuildingBlock: XIVTED_clean_linker_0, # of connection points: 2
#     Edge 17, Type (0, 0), BuildingBlock: XIVTED_clean_linker_0, # of connection points: 2
#     Edge 18, Type (0, 0), BuildingBlock: XIVTED_clean_linker_0, # of connection points: 2
#     Edge 19, Type (0, 0), BuildingBlock: XIVTED_clean_linker_0, # of connection points: 2
#     Edge 20, Type (0, 0), BuildingBlock: XIVTED_clean_linker_0, # of connection points: 2
#     Edge 21, Type (0, 0), BuildingBlock: XIVTED_clean_linker_0, # of connection points: 2
#     Edge 22, Type (0, 0), BuildingBlock: XIVTED_clean_linker_0, # of connection points: 2
#     Edge 23, Type (0, 0), BuildingBlock: XIVTED_clean_linker_0, # of connection points: 2
# Relax obj value: 0.139
# Max RMSD: 0.133
# Mean RMSD: 0.133
data_MOF--net-unm--node1-KUFVIS_clean_sbu_0--edge1-XIVTED_clean_linker_0
_symmetry_space_group_name_H-M    P1
_symmetry_Int_Tables_number       1
_symmetry_cell_setting            triclinic
loop_
_symmetry_equiv_pos_as_xyz
'x, y, z'
_cell_length_a     25.343158
_cell_length_b     25.341122
_cell_length_c     44.562458
_cell_angle_alpha  89.970136
_cell_angle_beta   89.993673
_cell_angle_gamma 90.026315
loop_
_atom_site_label
_atom_site_type_symbol
_atom_site_fract_x
_atom_site_fract_y
_atom_site_fract_z
_atom_type_partial_charge
Mn0 Mn 0.19915 0.2978 0.17814 0.0
Mn1 Mn 0.25479 0.41506 0.16166 0.0
C2 C 0.14765 0.36774 0.1628 0.0
C3 C 0.1548 0.24523 0.21344 0.0
C4 C 0.25418 0.32197 0.11839 0.0
O5 O 0.27343 0.29019 0.19643 0.0
O6 O 0.30441 0.37172 0.18603 0.0
C7 C 0.25829 0.45858 0.22329 0.0
N8 N 0.24211 0.46251 0.19423 0.0
C9 C 0.19572 0.54335 0.20459 0.0
C10 C 0.2124 0.54045 0.23454 0.0
C11 C 0.24377 0.49784 0.24393 0.0
C12 C 0.21179 0.50329 0.18498 0.0
H13 H 0.28185 0.42559 0.23072 0.0
C14 C 0.30945 0.32574 0.19774 0.0
O15 O 0.17475 0.2246 0.18922 0.0
O16 O 0.16552 0.29425 0.21839 0.0
N17 N 0.21075 0.46119 0.13858 0.0
C18 C 0.19691 0.45754 0.10909 0.0
C19 C 0.16474 0.49667 0.09631 0.0
C20 C 0.14739 0.53924 0.1139 0.0
C21 C 0.16291 0.54264 0.14403 0.0
C22 C 0.19552 0.5028 0.15546 0.0
H23 H 0.20988 0.42479 0.09548 0.0
O24 O 0.13032 0.31995 0.16073 0.0
O25 O 0.19435 0.37341 0.17438 0.0
O26 O 0.22898 0.28947 0.13517 0.0
O27 O 0.26712 0.36856 0.12676 0.0
C28 C 0.14668 0.58361 0.16329 0.0
C29 C 0.16303 0.58394 0.19355 0.0
H30 H 0.20097 0.57045 0.25058 0.0
H31 H 0.25647 0.49512 0.26706 0.0
H32 H 0.15305 0.49383 0.07301 0.0
H33 H 0.12205 0.569 0.10406 0.0
H34 H 0.12122 0.6148 0.15513 0.0
H35 H 0.14989 0.61538 0.20822 0.0
Mn36 Mn 0.20074 0.69735 0.67899 0.0
Mn37 Mn 0.08757 0.75636 0.65807 0.0
C38 C 0.13191 0.64806 0.66004 0.0
C39 C 0.24563 0.65025 0.71673 0.0
C40 C 0.1864 0.75486 0.61904 0.0
O41 O 0.20754 0.77082 0.69826 0.0
O42 O 0.1283 0.80417 0.68499 0.0
C43 C 0.03541 0.75857 0.71753 0.0
N44 N 0.03534 0.74352 0.68819 0.0
C45 C 0.95244 0.69835 0.69426 0.0
C46 C 0.95135 0.71393 0.72444 0.0
C47 C 0.99305 0.74411 0.73612 0.0
C48 C 0.99545 0.71437 0.67673 0.0
H49 H 0.06769 0.78115 0.72674 0.0
C50 C 0.17279 0.80762 0.69858 0.0
O51 O 0.27121 0.67046 0.69412 0.0
O52 O 0.19645 0.66272 0.71878 0.0
N53 N 0.04407 0.71409 0.63242 0.0
C54 C 0.05185 0.7009 0.6031 0.0
C55 C 0.01419 0.6698 0.58822 0.0
C56 C 0.96887 0.65276 0.60357 0.0
C57 C 0.96134 0.66746 0.63359 0.0
C58 C 0.9999 0.69907 0.64716 0.0
H59 H 0.08674 0.71359 0.59122 0.0
O60 O 0.17939 0.62954 0.65994 0.0
O61 O 0.12597 0.69459 0.67173 0.0
O62 O 0.21604 0.72812 0.63678 0.0
O63 O 0.13923 0.76883 0.62565 0.0
C64 C 0.91747 0.65133 0.65072 0.0
C65 C 0.91303 0.66675 0.68103 0.0
H66 H 0.91895 0.70251 0.73891 0.0
H67 H 0.9927 0.75592 0.75946 0.0
H68 H 0.02027 0.65866 0.56504 0.0
H69 H 0.94023 0.62822 0.59213 0.0
H70 H 0.88716 0.62665 0.64088 0.0
H71 H 0.87938 0.65367 0.69405 0.0
Mn72 Mn 0.81452 0.7049 0.17864 0.0
Mn73 Mn 0.75369 0.59213 0.15879 0.0
C74 C 0.86266 0.63468 0.16036 0.0
C75 C 0.86232 0.74991 0.21607 0.0
C76 C 0.75676 0.68989 0.11885 0.0
O77 O 0.74116 0.71333 0.19789 0.0
O78 O 0.70653 0.63425 0.18534 0.0
C79 C 0.7505 0.54152 0.21868 0.0
N80 N 0.76573 0.54054 0.18937 0.0
C81 C 0.80988 0.45732 0.19621 0.0
C82 C 0.79415 0.45718 0.22637 0.0
C83 C 0.76439 0.4995 0.23765 0.0
C84 C 0.79447 0.50004 0.17829 0.0
H85 H 0.72821 0.57426 0.22757 0.0
C86 C 0.70381 0.67913 0.19856 0.0
O87 O 0.84268 0.77528 0.19323 0.0
O88 O 0.84899 0.701 0.21847 0.0
N89 N 0.79538 0.54741 0.13354 0.0
C90 C 0.8087 0.55424 0.10415 0.0
C91 C 0.83933 0.5158 0.08962 0.0
C92 C 0.8558 0.47072 0.10539 0.0
C93 C 0.84101 0.46421 0.13549 0.0
C94 C 0.80988 0.50351 0.14869 0.0
H95 H 0.79643 0.58893 0.09195 0.0
O96 O 0.88196 0.68186 0.15977 0.0
O97 O 0.81601 0.62993 0.17209 0.0
O98 O 0.78408 0.7196 0.13626 0.0
O99 O 0.74202 0.64314 0.12594 0.0
C100 C 0.85656 0.42063 0.15302 0.0
C101 C 0.84103 0.4172 0.18336 0.0
H102 H 0.80512 0.42504 0.24114 0.0
H103 H 0.75244 0.49988 0.26097 0.0
H104 H 0.85054 0.52109 0.06638 0.0
H105 H 0.87994 0.44146 0.0942 0.0
H106 H 0.88085 0.38975 0.14346 0.0
H107 H 0.85363 0.38374 0.19668 0.0
Mn108 Mn 0.79413 0.31367 0.67779 0.0
Mn109 Mn 0.91084 0.25749 0.66076 0.0
C110 C 0.86363 0.36482 0.66146 0.0
C111 C 0.74277 0.35849 0.71349 0.0
C112 C 0.81673 0.25769 0.61817 0.0
O113 O 0.78675 0.2396 0.69647 0.0
O114 O 0.86809 0.2085 0.68591 0.0
C115 C 0.95608 0.25536 0.72202 0.0
N116 N 0.95924 0.27083 0.6928 0.0
C117 C 0.04069 0.31696 0.702 0.0
C118 C 0.03859 0.30101 0.73211 0.0
C119 C 0.99606 0.27014 0.74216 0.0
C120 C 0.99992 0.30068 0.68291 0.0
H121 H 0.92317 0.23216 0.72995 0.0
C122 C 0.82232 0.20365 0.69788 0.0
O123 O 0.72134 0.33841 0.68953 0.0
O124 O 0.7919 0.34772 0.71796 0.0
N125 N 0.9565 0.30074 0.6369 0.0
C126 C 0.95221 0.31364 0.60729 0.0
C127 C 0.99124 0.34514 0.59385 0.0
C128 C 0.03439 0.36275 0.6109 0.0
C129 C 0.03848 0.34814 0.64116 0.0
C130 C 0.99869 0.31617 0.65326 0.0
H131 H 0.91905 0.30044 0.59408 0.0
O132 O 0.81584 0.38225 0.65989 0.0
O133 O 0.86966 0.31835 0.6733 0.0
O134 O 0.78465 0.28342 0.63494 0.0
O135 O 0.86332 0.24452 0.62642 0.0
C136 C 0.08011 0.3646 0.6599 0.0
C137 C 0.0812 0.34906 0.6903 0.0
H138 H 0.06916 0.31262 0.74776 0.0
H139 H 0.99395 0.258 0.76542 0.0
H140 H 0.98787 0.35611 0.57046 0.0
H141 H 0.06408 0.38756 0.60055 0.0
H142 H 0.11128 0.38958 0.65121 0.0
H143 H 0.11319 0.36233 0.70454 0.0
Mn144 Mn 0.70332 0.19953 0.33761 0.0
Mn145 Mn 0.76492 0.09019 0.36232 0.0
C146 C 0.65601 0.13202 0.35935 0.0
C147 C 0.65403 0.2399 0.29905 0.0
C148 C 0.76021 0.1915 0.39847 0.0
O149 O 0.77569 0.20538 0.31693 0.0
O150 O 0.81315 0.13198 0.33618 0.0
C151 C 0.77354 0.03608 0.30363 0.0
N152 N 0.75589 0.03668 0.33251 0.0
C153 C 0.71301 0.95266 0.32617 0.0
C154 C 0.73104 0.95099 0.29644 0.0
C155 C 0.76144 0.99289 0.28513 0.0
C156 C 0.72664 0.99654 0.34362 0.0
H157 H 0.79652 0.06839 0.29474 0.0
C158 C 0.81479 0.17376 0.31997 0.0
O159 O 0.67461 0.26794 0.32056 0.0
O160 O 0.66712 0.19076 0.29847 0.0
N161 N 0.72266 0.04596 0.38755 0.0
C162 C 0.7079 0.05387 0.41661 0.0
C163 C 0.67685 0.01577 0.43119 0.0
C164 C 0.66154 0.96988 0.41581 0.0
C165 C 0.67797 0.9622 0.38608 0.0
C166 C 0.70936 1.00128 0.37282 0.0
H167 H 0.71927 0.08924 0.42848 0.0
O168 O 0.63687 0.17922 0.35825 0.0
O169 O 0.70222 0.12549 0.34725 0.0
O170 O 0.73523 0.21962 0.37911 0.0
O171 O 0.77336 0.14338 0.39407 0.0
C172 C 0.66399 0.91758 0.369 0.0
C173 C 0.68148 0.91282 0.33906 0.0
H174 H 0.72153 0.91789 0.28204 0.0
H175 H 0.77529 0.99201 0.26217 0.0
H176 H 0.66443 0.02193 0.45416 0.0
H177 H 0.63713 0.94084 0.42703 0.0
H178 H 0.63957 0.88682 0.37861 0.0
H179 H 0.67021 0.87847 0.32609 0.0
Mn180 Mn 0.30518 0.19729 0.83926 0.0
Mn181 Mn 0.41788 0.25724 0.86001 0.0
C182 C 0.37395 0.14871 0.85879 0.0
C183 C 0.26117 0.14947 0.80144 0.0
C184 C 0.31893 0.2559 0.89889 0.0
O185 O 0.29809 0.27033 0.81961 0.0
O186 O 0.37685 0.30469 0.83299 0.0
C187 C 0.4699 0.25934 0.80051 0.0
N188 N 0.47001 0.2443 0.82986 0.0
C189 C 0.55258 0.19866 0.82371 0.0
C190 C 0.55359 0.21414 0.7935 0.0
C191 C 0.51205 0.24459 0.78186 0.0
C192 C 0.50979 0.21498 0.84129 0.0
H193 H 0.43775 0.28216 0.79135 0.0
C194 C 0.33238 0.30757 0.81933 0.0
O195 O 0.23509 0.16954 0.82389 0.0
O196 O 0.31029 0.16224 0.79967 0.0
N197 N 0.46156 0.2153 0.88574 0.0
C198 C 0.45389 0.20231 0.9151 0.0
C199 C 0.49146 0.17107 0.92997 0.0
C200 C 0.53654 0.15366 0.91454 0.0
C201 C 0.54394 0.16815 0.88446 0.0
C202 C 0.50549 0.1999 0.87092 0.0
H203 H 0.41916 0.21525 0.92703 0.0
O204 O 0.32653 0.13001 0.85882 0.0
O205 O 0.37985 0.19502 0.84674 0.0
O206 O 0.28946 0.22875 0.88125 0.0
O207 O 0.36618 0.2698 0.89238 0.0
C208 C 0.58756 0.15167 0.86726 0.0
C209 C 0.59187 0.16689 0.83691 0.0
H210 H 0.58583 0.20249 0.77898 0.0
H211 H 0.51236 0.25638 0.75852 0.0
H212 H 0.48549 0.16011 0.95319 0.0
H213 H 0.56511 0.12904 0.92598 0.0
H214 H 0.61779 0.12688 0.87709 0.0
H215 H 0.62535 0.15357 0.82384 0.0
Mn216 Mn 0.31385 0.80813 0.34078 0.0
Mn217 Mn 0.25372 0.92087 0.36117 0.0
C218 C 0.36219 0.87708 0.36033 0.0
C219 C 0.36227 0.76419 0.30316 0.0
C220 C 0.25452 0.82196 0.40016 0.0
O221 O 0.24103 0.80099 0.32084 0.0
O222 O 0.20662 0.87984 0.33396 0.0
C223 C 0.2524 0.97297 0.30168 0.0
N224 N 0.26708 0.97304 0.33108 0.0
C225 C 0.31283 0.05564 0.32512 0.0
C226 C 0.29771 0.05671 0.29486 0.0
C227 C 0.26739 0.01517 0.2831 0.0
C228 C 0.29628 0.01282 0.34263 0.0
H229 H 0.22969 0.94083 0.29242 0.0
C230 C 0.20388 0.83534 0.32032 0.0
O231 O 0.34185 0.73808 0.32552 0.0
O232 O 0.34942 0.81327 0.30131 0.0
N233 N 0.2954 0.96449 0.38705 0.0
C234 C 0.30814 0.95672 0.41644 0.0
C235 C 0.33928 0.99423 0.43141 0.0
C236 C 0.35687 0.03937 0.41607 0.0
C237 C 0.34267 0.04686 0.38596 0.0
C238 C 0.31101 0.00845 0.37231 0.0
H239 H 0.29506 0.92193 0.42831 0.0
O240 O 0.38089 0.82967 0.36056 0.0
O241 O 0.31602 0.88282 0.34814 0.0
O242 O 0.28194 0.79244 0.3827 0.0
O243 O 0.24067 0.86916 0.39349 0.0
C244 C 0.35938 0.09053 0.36884 0.0
C245 C 0.34448 0.09491 0.33844 0.0
H246 H 0.30955 0.08897 0.28039 0.0
H247 H 0.25588 0.01552 0.25971 0.0
H248 H 0.35003 0.98818 0.45466 0.0
H249 H 0.3814 0.0679 0.4276 0.0
H250 H 0.3841 0.12073 0.37875 0.0
H251 H 0.35798 0.12842 0.32543 0.0
Mn252 Mn 0.69835 0.80947 0.83896 0.0
Mn253 Mn 0.58934 0.74696 0.86344 0.0
C254 C 0.63027 0.8562 0.86052 0.0
C255 C 0.73842 0.85932 0.80046 0.0
C256 C 0.69047 0.75235 0.89979 0.0
O257 O 0.7048 0.73718 0.81823 0.0
O258 O 0.63154 0.69911 0.83734 0.0
C259 C 0.53544 0.73793 0.8047 0.0
N260 N 0.53586 0.75559 0.83356 0.0
C261 C 0.45153 0.79778 0.82714 0.0
C262 C 0.45006 0.77972 0.79742 0.0
C263 C 0.49221 0.74968 0.78616 0.0
C264 C 0.49548 0.7845 0.84463 0.0
H265 H 0.56792 0.71522 0.79585 0.0
C266 C 0.67338 0.69783 0.82118 0.0
O267 O 0.76657 0.83896 0.822 0.0
O268 O 0.68942 0.84571 0.79982 0.0
N269 N 0.54476 0.78887 0.88861 0.0
C270 C 0.55254 0.80376 0.91766 0.0
C271 C 0.51421 0.83454 0.93219 0.0
C272 C 0.46823 0.84945 0.91677 0.0
C273 C 0.46071 0.83291 0.88705 0.0
C274 C 0.50003 0.80182 0.87384 0.0
H275 H 0.58797 0.79269 0.92957 0.0
O276 O 0.67735 0.87571 0.8596 0.0
O277 O 0.62425 0.80993 0.84843 0.0
O278 O 0.71853 0.77761 0.88051 0.0
O279 O 0.64246 0.73888 0.89525 0.0
C280 C 0.41602 0.84652 0.86991 0.0
C281 C 0.41145 0.82898 0.83998 0.0
H282 H 0.41692 0.78896 0.78298 0.0
H283 H 0.49147 0.73581 0.76319 0.0
H284 H 0.52025 0.84704 0.95515 0.0
H285 H 0.439 0.87364 0.92794 0.0
H286 H 0.38508 0.87071 0.87948 0.0
H287 H 0.37704 0.83997 0.82698 0.0
H288 H 0.32251 0.37097 0.08018 0.0
H289 H 0.24392 0.20485 0.93355 0.0
H290 H 0.21078 0.24247 0.08351 0.0
H291 H 0.35465 0.33421 0.93539 0.0
H292 H 0.22747 0.21835 0.98748 0.0
H293 H 0.33343 0.35641 0.02677 0.0
C294 C 0.3005 0.33924 0.06975 0.0
C295 C 0.26561 0.30793 0.08659 0.0
C296 C 0.25499 0.24398 0.97593 0.0
C297 C 0.27758 0.29129 0.02459 0.0
C298 C 0.26396 0.23668 0.94508 0.0
C299 C 0.30081 0.26838 0.92984 0.0
C300 C 0.28298 0.28332 0.99154 0.0
C301 C 0.32614 0.30854 0.9461 0.0
C302 C 0.30661 0.33107 0.03905 0.0
C303 C 0.23838 0.26738 0.07154 0.0
N304 N 0.31695 0.31459 0.9759 0.0
N305 N 0.24473 0.26037 0.04136 0.0
H306 H 0.26503 0.70664 0.58553 0.0
H307 H 0.17429 0.85644 0.43552 0.0
H308 H 0.14629 0.82841 0.58077 0.0
H309 H 0.30616 0.74883 0.43591 0.0
H310 H 0.16144 0.84037 0.48867 0.0
H311 H 0.28151 0.71829 0.53141 0.0
C312 C 0.24313 0.7364 0.57332 0.0
C313 C 0.20409 0.76649 0.58785 0.0
C314 C 0.19311 0.81986 0.47729 0.0
C315 C 0.2219 0.77909 0.52593 0.0
C316 C 0.20027 0.82879 0.44673 0.0
C317 C 0.24148 0.80408 0.43109 0.0
C318 C 0.22749 0.78601 0.4928 0.0
C319 C 0.27364 0.76847 0.447 0.0
C320 C 0.25219 0.74263 0.54238 0.0
C321 C 0.17653 0.80398 0.5707 0.0
N322 N 0.26625 0.76078 0.47707 0.0
N323 N 0.18575 0.80889 0.54085 0.0
H324 H 0.67958 0.65242 0.08229 0.0
H325 H 0.76357 0.80852 0.93342 0.0
H326 H 0.80816 0.7641 0.08345 0.0
H327 H 0.66205 0.67196 0.93652 0.0
H328 H 0.78069 0.79769 0.98764 0.0
H329 H 0.66909 0.66714 0.0289 0.0
C330 C 0.70537 0.68062 0.07137 0.0
C331 C 0.74501 0.70682 0.08755 0.0
C332 C 0.75522 0.76985 0.97625 0.0
C333 C 0.73366 0.72345 0.02552 0.0
C334 C 0.74593 0.77562 0.94527 0.0
C335 C 0.71116 0.74118 0.93037 0.0
C336 C 0.72931 0.72955 0.99228 0.0
C337 C 0.68877 0.69976 0.947 0.0
C338 C 0.69959 0.68875 0.04067 0.0
C339 C 0.77688 0.74321 0.07195 0.0
N340 N 0.69786 0.69547 0.97688 0.0
N341 N 0.77076 0.75024 0.04171 0.0
H342 H 0.70305 0.26356 0.43205 0.0
H343 H 0.86337 0.18664 0.58085 0.0
H344 H 0.8411 0.16425 0.43512 0.0
H345 H 0.73963 0.3036 0.58243 0.0
H346 H 0.85088 0.17657 0.52727 0.0
H347 H 0.7135 0.2808 0.48623 0.0
C348 C 0.73621 0.24647 0.4439 0.0
C349 C 0.77121 0.21232 0.429 0.0
C350 C 0.82615 0.20441 0.53917 0.0
C351 C 0.78254 0.23066 0.49088 0.0
C352 C 0.83306 0.20997 0.56999 0.0
C353 C 0.80263 0.24618 0.58638 0.0
C354 C 0.78844 0.23523 0.52413 0.0
C355 C 0.76381 0.27498 0.57079 0.0
C356 C 0.74178 0.2558 0.47487 0.0
C357 C 0.81294 0.19056 0.44561 0.0
N358 N 0.75797 0.2691 0.54048 0.0
N359 N 0.81712 0.19976 0.47549 0.0
H360 H 0.37907 0.3968 0.22171 0.0
H361 H 0.60377 0.18465 0.25514 0.0
H362 H 0.35701 0.2295 0.2088 0.0
H363 H 0.60042 0.33543 0.30007 0.0
H364 H 0.52033 0.20585 0.23085 0.0
H365 H 0.4651 0.3793 0.24448 0.0
C366 C 0.39217 0.35628 0.2237 0.0
C367 C 0.36043 0.3145 0.21324 0.0
C368 C 0.53798 0.23453 0.24581 0.0
C369 C 0.45988 0.29445 0.23896 0.0
C370 C 0.58606 0.22276 0.25954 0.0
C371 C 0.60945 0.25827 0.27986 0.0
C372 C 0.51284 0.28255 0.25199 0.0
C373 C 0.58415 0.30692 0.28453 0.0
C374 C 0.44139 0.34643 0.23676 0.0
C375 C 0.37978 0.26292 0.21661 0.0
N376 N 0.53715 0.31759 0.27077 0.0
N377 N 0.42837 0.25442 0.22891 0.0
H378 H 0.10121 0.87664 0.72265 0.0
H379 H 0.31211 0.1019 0.75507 0.0
H380 H 0.26871 0.85403 0.71114 0.0
H381 H 0.1663 0.09468 0.80497 0.0
H382 H 0.28977 0.01882 0.73079 0.0
H383 H 0.11863 0.96219 0.74627 0.0
C384 C 0.14172 0.8895 0.72518 0.0
C385 C 0.18363 0.85783 0.71487 0.0
C386 C 0.26241 0.03556 0.74685 0.0
C387 C 0.20353 0.95658 0.74135 0.0
C388 C 0.27478 0.08343 0.76058 0.0
C389 C 0.24113 0.10555 0.78232 0.0
C390 C 0.21553 0.00943 0.75439 0.0
C391 C 0.19336 0.07936 0.78833 0.0
C392 C 0.1515 0.93838 0.7387 0.0
C393 C 0.23521 0.87677 0.71886 0.0
N394 N 0.182 0.03257 0.77448 0.0
N395 N 0.24364 0.92508 0.73146 0.0
H396 H 0.4142 0.6677 0.30549 0.0
H397 H 0.66091 0.77609 0.21247 0.0
H398 H 0.41361 0.8169 0.25872 0.0
H399 H 0.63219 0.60901 0.22173 0.0
H400 H 0.57525 0.79336 0.23627 0.0
H401 H 0.4978 0.64545 0.28011 0.0
C402 C 0.43094 0.69529 0.28954 0.0
C403 C 0.40658 0.74423 0.2843 0.0
C404 C 0.58784 0.75291 0.23311 0.0
C405 C 0.50298 0.71994 0.25615 0.0
C406 C 0.63693 0.74307 0.21973 0.0
C407 C 0.65387 0.69105 0.21493 0.0
C408 C 0.55575 0.71051 0.24233 0.0
C409 C 0.62072 0.6498 0.22475 0.0
C410 C 0.47884 0.68279 0.27526 0.0
C411 C 0.43069 0.77871 0.26362 0.0
N412 N 0.57351 0.66037 0.23807 0.0
N413 N 0.47764 0.76626 0.25071 0.0
H414 H 0.89373 0.13471 0.72215 0.0
H415 H 0.68265 0.90933 0.75666 0.0
H416 H 0.72629 0.15596 0.70949 0.0
H417 H 0.83363 0.91367 0.80136 0.0
H418 H 0.70331 0.99281 0.73223 0.0
H419 H 0.87664 0.04892 0.74537 0.0
C420 C 0.85326 0.12149 0.7243 0.0
C421 C 0.81132 0.15293 0.71376 0.0
C422 C 0.73215 0.97539 0.74718 0.0
C423 C 0.79175 0.05373 0.74 0.0
C424 C 0.72069 0.92727 0.76099 0.0
C425 C 0.75643 0.90411 0.78128 0.0
C426 C 0.7801 1.0008 0.75323 0.0
C427 C 0.80496 0.92974 0.78585 0.0
C428 C 0.84365 0.07241 0.73762 0.0
C429 C 0.75983 0.13343 0.71736 0.0
N430 N 0.81535 0.97676 0.77199 0.0
N431 N 0.75156 0.08497 0.72989 0.0
H432 H 0.83089 0.21063 0.26243 0.0
H433 H 0.13942 0.24552 0.27403 0.0
H434 H 0.91407 0.15973 0.3417 0.0
H435 H 0.06847 0.19454 0.19114 0.0
H436 H 0.05637 0.22594 0.30027 0.0
H437 H 0.91631 0.21983 0.23631 0.0
C438 C 0.86707 0.20207 0.27441 0.0
C439 C 0.86543 0.18456 0.30429 0.0
C440 C 0.05934 0.2181 0.27644 0.0
C441 C 0.96282 0.19516 0.27474 0.0
C442 C 0.10682 0.2287 0.26155 0.0
C443 C 0.11122 0.2204 0.23052 0.0
C444 C 0.01521 0.20115 0.25998 0.0
C445 C 0.06716 0.20015 0.21521 0.0
C446 C 0.91563 0.20673 0.25944 0.0
C447 C 0.91354 0.17331 0.31866 0.0
N448 N 0.02066 0.19217 0.22997 0.0
N449 N 0.96019 0.1793 0.3039 0.0
H450 H 0.34233 0.59894 0.71379 0.0
H451 H 0.23561 0.35047 0.80545 0.0
H452 H 0.19421 0.59875 0.76161 0.0
H453 H 0.40265 0.37973 0.79672 0.0
H454 H 0.21823 0.43662 0.78231 0.0
H455 H 0.36535 0.51515 0.73875 0.0
C456 C 0.31516 0.58202 0.7299 0.0
C457 C 0.26625 0.60616 0.73553 0.0
C458 C 0.2587 0.42406 0.78543 0.0
C459 C 0.29141 0.50955 0.76318 0.0
C460 C 0.2686 0.37468 0.79842 0.0
C461 C 0.32064 0.35775 0.80318 0.0
C462 C 0.30104 0.45648 0.77657 0.0
C463 C 0.36186 0.39121 0.79369 0.0
C464 C 0.32811 0.534 0.74394 0.0
C465 C 0.23234 0.58183 0.75641 0.0
N466 N 0.35123 0.43875 0.78073 0.0
N467 N 0.24518 0.53475 0.76906 0.0
H468 H 0.16083 0.73866 0.30624 0.0
H469 H 0.91464 0.84617 0.21297 0.0
H470 H 0.13252 0.90581 0.29718 0.0
H471 H 0.91303 0.69837 0.26116 0.0
H472 H 0.99824 0.8688 0.23825 0.0
H473 H 0.07511 0.72156 0.28254 0.0
C474 C 0.13692 0.77173 0.29902 0.0
C475 C 0.15399 0.82372 0.30386 0.0
C476 C 0.97904 0.83171 0.24343 0.0
C477 C 0.05576 0.80444 0.27659 0.0
C478 C 0.93114 0.81898 0.22921 0.0
C479 C 0.90652 0.77028 0.23487 0.0
C480 C 1.00291 0.79499 0.2629 0.0
C481 C 0.93032 0.73634 0.25593 0.0
C482 C 0.0878 0.76199 0.28571 0.0
C483 C 0.12093 0.86505 0.29411 0.0
N484 N 0.97729 0.74896 0.26875 0.0
N485 N 0.07363 0.85457 0.28084 0.0
H486 H 0.74467 0.37352 0.77408 0.0
H487 H 0.70909 0.68233 0.76337 0.0
H488 H 0.69184 0.44515 0.69173 0.0
H489 H 0.66083 0.59834 0.84292 0.0
H490 H 0.71801 0.59712 0.73701 0.0
H491 H 0.72595 0.45642 0.80064 0.0
C492 C 0.72763 0.40624 0.76179 0.0
C493 C 0.71854 0.40207 0.73083 0.0
C494 C 0.70558 0.59757 0.76027 0.0
C495 C 0.70027 0.49793 0.76063 0.0
C496 C 0.70111 0.64601 0.77537 0.0
C497 C 0.6844 0.64736 0.80539 0.0
C498 C 0.69462 0.55021 0.77556 0.0
C499 C 0.67381 0.59908 0.81977 0.0
C500 C 0.71753 0.45365 0.77686 0.0
C501 C 0.69805 0.44628 0.71576 0.0
N502 N 0.67959 0.55256 0.80487 0.0
N503 N 0.69054 0.4927 0.73067 0.0
H504 H 0.92328 0.60959 0.1121 0.0
H505 H 0.11945 0.43625 0.20625 0.0
H506 H 0.88774 0.56354 0.20297 0.0
H507 H 0.0872 0.39299 0.11456 0.0
H508 H 0.04659 0.49993 0.20425 0.0
H509 H 0.99478 0.54368 0.11099 0.0
C510 C 0.93002 0.58474 0.13151 0.0
C511 C 0.89903 0.59033 0.15732 0.0
C512 C 0.0559 0.4768 0.18451 0.0
C513 C 0.98136 0.51807 0.15681 0.0
C514 C 0.09766 0.44122 0.18552 0.0
C515 C 0.10981 0.41093 0.16023 0.0
C516 C 0.02654 0.48195 0.15801 0.0
C517 C 0.07937 0.41684 0.13422 0.0
C518 C 0.97061 0.5476 0.13092 0.0
C519 C 0.91 0.55894 0.18239 0.0
N520 N 0.03922 0.45232 0.13359 0.0
N521 N 0.95076 0.52435 0.18165 0.0
H522 H 0.88537 0.42272 0.61177 0.0
H523 H 0.11109 0.58754 0.61115 0.0
H524 H 0.93514 0.39525 0.70288 0.0
H525 H 0.05828 0.62145 0.701 0.0
H526 H 0.04549 0.51606 0.60804 0.0
H527 H 0.95042 0.49455 0.60782 0.0
C528 C 0.91094 0.43126 0.63064 0.0
C529 C 0.90685 0.4022 0.65727 0.0
C530 C 0.04758 0.54003 0.62812 0.0
C531 C 0.97888 0.48454 0.65342 0.0
C532 C 0.08472 0.58053 0.62988 0.0
C533 C 0.08824 0.61119 0.65592 0.0
C534 C 0.01555 0.5293 0.65307 0.0
C535 C 0.05512 0.59965 0.68017 0.0
C536 C 0.94776 0.47196 0.6284 0.0
C537 C 0.93884 0.41573 0.68165 0.0
N538 N 0.02032 0.55914 0.67828 0.0
N539 N 0.9734 0.45639 0.67924 0.0
H540 H 0.59524 0.11404 0.40858 0.0
H541 H 0.3888 0.94913 0.31857 0.0
H542 H 0.62985 0.05594 0.31987 0.0
H543 H 0.42283 0.89957 0.40905 0.0
H544 H 0.46399 0.00998 0.32075 0.0
H545 H 0.52038 0.05202 0.41163 0.0
C546 C 0.58769 0.08724 0.39014 0.0
C547 C 0.61917 0.08856 0.3643 0.0
C548 C 0.45436 0.9863 0.34024 0.0
C549 C 0.53302 0.02103 0.36689 0.0
C550 C 0.41127 0.95238 0.33918 0.0
C551 C 0.39931 0.92068 0.36396 0.0
C552 C 0.48527 0.98842 0.36629 0.0
C553 C 0.43061 0.92445 0.38979 0.0
C554 C 0.54515 0.05239 0.39182 0.0
C555 C 0.60718 0.05473 0.34047 0.0
N556 N 0.47228 0.95821 0.39044 0.0
N557 N 0.56444 0.02269 0.34214 0.0
H558 H 0.44663 0.12175 0.81746 0.0
H559 H 0.61097 0.91749 0.90937 0.0
H560 H 0.39565 0.08852 0.90778 0.0
H561 H 0.55468 0.8812 0.82049 0.0
H562 H 0.5484 0.99191 0.91168 0.0
H563 H 0.50764 0.04677 0.82028 0.0
C564 C 0.44958 0.09949 0.83817 0.0
C565 C 0.41748 0.11165 0.86273 0.0
C566 C 0.54929 0.96687 0.892 0.0
C567 C 0.4854 0.02594 0.86579 0.0
C568 C 0.58445 0.92457 0.89073 0.0
C569 C 0.58647 0.89276 0.86506 0.0
C570 C 0.51829 0.97842 0.86682 0.0
C571 C 0.55295 0.90415 0.84097 0.0
C572 C 0.48359 0.05652 0.83959 0.0
C573 C 0.42086 0.0806 0.88869 0.0
N574 N 0.5206 0.94667 0.84224 0.0
N575 N 0.45474 0.03909 0.88971 0.0
loop_
_geom_bond_atom_site_label_1
_geom_bond_atom_site_label_2
_geom_bond_distance
_geom_bond_site_symmetry_2
_ccdc_geom_bond_type
Mn0 O5 2.095 . S
Mn0 O15 2.162 . S
Mn0 O16 2.297 . S
Mn0 O24 2.385 . S
Mn0 O25 2.209 . S
Mn0 O26 2.094 . S
Mn1 O6 2.121 . S
Mn1 N8 2.257 . S
Mn1 N17 2.282 . S
Mn1 O25 2.215 . S
Mn1 O27 2.117 . S
C2 O24 1.234 . S
C2 O25 1.283 . S
C3 O15 1.281 . S
C3 O16 1.236 . S
C4 O26 1.240 . S
C4 O27 1.264 . S
O5 Mn0 2.095 . S
O5 C14 1.250 . S
O6 Mn1 2.121 . S
O6 C14 1.258 . S
C7 N8 1.326 . S
C7 C11 1.460 . S
C7 H13 0.929 . S
N8 Mn1 2.257 . S
N8 C7 1.326 . S
N8 C12 1.362 . S
C9 C10 1.258 . S
C9 C12 1.431 . S
C9 C29 1.449 . S
C10 C9 1.258 . S
C10 C11 1.477 . S
C10 H30 0.931 . S
C11 C7 1.460 . S
C11 C10 1.477 . S
C11 H31 0.930 . S
C12 N8 1.362 . S
C12 C9 1.431 . S
C12 C22 1.476 . S
H13 C7 0.929 . S
C14 O5 1.250 . S
C14 O6 1.258 . S
O15 Mn0 2.162 . S
O15 C3 1.281 . S
O16 Mn0 2.297 . S
O16 C3 1.236 . S
N17 Mn1 2.282 . S
N17 C18 1.328 . S
N17 C22 1.318 . S
C18 N17 1.328 . S
C18 C19 1.457 . S
C18 H23 0.929 . S
C19 C18 1.457 . S
C19 C20 1.291 . S
C19 H32 0.931 . S
C20 C19 1.291 . S
C20 C21 1.373 . S
C20 H33 0.929 . S
C21 C20 1.373 . S
C21 C22 1.396 . S
C21 C28 1.403 . S
C22 C12 1.476 . S
C22 N17 1.318 . S
C22 C21 1.396 . S
H23 C18 0.929 . S
O24 Mn0 2.385 . S
O24 C2 1.234 . S
O25 Mn0 2.209 . S
O25 Mn1 2.215 . S
O25 C2 1.283 . S
O26 Mn0 2.094 . S
O26 C4 1.240 . S
O27 Mn1 2.117 . S
O27 C4 1.264 . S
C28 C21 1.403 . S
C28 C29 1.399 . S
C28 H34 0.929 . S
C29 C9 1.449 . S
C29 C28 1.399 . S
C29 H35 0.930 . S
H30 C10 0.931 . S
H31 C11 0.930 . S
H32 C19 0.931 . S
H33 C20 0.929 . S
H34 C28 0.929 . S
H35 C29 0.930 . S
Mn36 O41 2.095 . S
Mn36 O51 2.162 . S
Mn36 O52 2.297 . S
Mn36 O60 2.385 . S
Mn36 O61 2.209 . S
Mn36 O62 2.094 . S
Mn37 O42 2.121 . S
Mn37 N44 2.257 . S
Mn37 N53 2.282 . S
Mn37 O61 2.215 . S
Mn37 O63 2.117 . S
C38 O60 1.234 . S
C38 O61 1.283 . S
C39 O51 1.281 . S
C39 O52 1.236 . S
C40 O62 1.240 . S
C40 O63 1.264 . S
O41 Mn36 2.095 . S
O41 C50 1.250 . S
O42 Mn37 2.121 . S
O42 C50 1.258 . S
C43 N44 1.326 . S
C43 C47 1.460 . S
C43 H49 0.929 . S
N44 Mn37 2.257 . S
N44 C43 1.326 . S
N44 C48 1.362 . S
C45 C46 1.258 . S
C45 C48 1.431 1_655 S
C45 C65 1.449 . S
C46 C45 1.258 . S
C46 C47 1.477 1_655 S
C46 H66 0.931 . S
C47 C43 1.460 . S
C47 C46 1.477 1_455 S
C47 H67 0.930 . S
C48 N44 1.362 . S
C48 C45 1.431 1_455 S
C48 C58 1.476 . S
H49 C43 0.929 . S
C50 O41 1.250 . S
C50 O42 1.258 . S
O51 Mn36 2.162 . S
O51 C39 1.281 . S
O52 Mn36 2.297 . S
O52 C39 1.236 . S
N53 Mn37 2.282 . S
N53 C54 1.328 . S
N53 C58 1.318 . S
C54 N53 1.328 . S
C54 C55 1.457 . S
C54 H59 0.929 . S
C55 C54 1.457 . S
C55 C56 1.291 . S
C55 H68 0.931 . S
C56 C55 1.291 . S
C56 C57 1.373 1_455 S
C56 H69 0.929 1_455 S
C57 C56 1.373 1_655 S
C57 C58 1.396 1_655 S
C57 C64 1.403 . S
C58 C48 1.476 . S
C58 N53 1.318 . S
C58 C57 1.396 1_455 S
H59 C54 0.929 . S
O60 Mn36 2.385 . S
O60 C38 1.234 . S
O61 Mn36 2.209 . S
O61 Mn37 2.215 . S
O61 C38 1.283 . S
O62 Mn36 2.094 . S
O62 C40 1.240 . S
O63 Mn37 2.117 . S
O63 C40 1.264 . S
C64 C57 1.403 . S
C64 C65 1.399 . S
C64 H70 0.929 . S
C65 C45 1.449 . S
C65 C64 1.399 . S
C65 H71 0.930 . S
H66 C46 0.931 . S
H67 C47 0.930 . S
H68 C55 0.931 . S
H69 C56 0.929 1_655 S
H70 C64 0.929 . S
H71 C65 0.930 . S
Mn72 O77 2.095 . S
Mn72 O87 2.162 . S
Mn72 O88 2.297 . S
Mn72 O96 2.385 . S
Mn72 O97 2.209 . S
Mn72 O98 2.094 . S
Mn73 O78 2.121 . S
Mn73 N80 2.257 . S
Mn73 N89 2.282 . S
Mn73 O97 2.215 . S
Mn73 O99 2.117 . S
C74 O96 1.234 . S
C74 O97 1.283 . S
C75 O87 1.281 . S
C75 O88 1.236 . S
C76 O98 1.240 . S
C76 O99 1.264 . S
O77 Mn72 2.095 . S
O77 C86 1.250 . S
O78 Mn73 2.121 . S
O78 C86 1.258 . S
C79 N80 1.326 . S
C79 C83 1.460 . S
C79 H85 0.929 . S
N80 Mn73 2.257 . S
N80 C79 1.326 . S
N80 C84 1.362 . S
C81 C82 1.258 . S
C81 C84 1.431 . S
C81 C101 1.449 . S
C82 C81 1.258 . S
C82 C83 1.477 . S
C82 H102 0.931 . S
C83 C79 1.460 . S
C83 C82 1.477 . S
C83 H103 0.930 . S
C84 N80 1.362 . S
C84 C81 1.431 . S
C84 C94 1.476 . S
H85 C79 0.929 . S
C86 O77 1.250 . S
C86 O78 1.258 . S
O87 Mn72 2.162 . S
O87 C75 1.281 . S
O88 Mn72 2.297 . S
O88 C75 1.236 . S
N89 Mn73 2.282 . S
N89 C90 1.328 . S
N89 C94 1.318 . S
C90 N89 1.328 . S
C90 C91 1.457 . S
C90 H95 0.929 . S
C91 C90 1.457 . S
C91 C92 1.291 . S
C91 H104 0.931 . S
C92 C91 1.291 . S
C92 C93 1.373 . S
C92 H105 0.929 . S
C93 C92 1.373 . S
C93 C94 1.396 . S
C93 C100 1.403 . S
C94 C84 1.476 . S
C94 N89 1.318 . S
C94 C93 1.396 . S
H95 C90 0.929 . S
O96 Mn72 2.385 . S
O96 C74 1.234 . S
O97 Mn72 2.209 . S
O97 Mn73 2.215 . S
O97 C74 1.283 . S
O98 Mn72 2.094 . S
O98 C76 1.240 . S
O99 Mn73 2.117 . S
O99 C76 1.264 . S
C100 C93 1.403 . S
C100 C101 1.399 . S
C100 H106 0.929 . S
C101 C81 1.449 . S
C101 C100 1.399 . S
C101 H107 0.930 . S
H102 C82 0.931 . S
H103 C83 0.930 . S
H104 C91 0.931 . S
H105 C92 0.929 . S
H106 C100 0.929 . S
H107 C101 0.930 . S
Mn108 O113 2.095 . S
Mn108 O123 2.162 . S
Mn108 O124 2.297 . S
Mn108 O132 2.385 . S
Mn108 O133 2.209 . S
Mn108 O134 2.094 . S
Mn109 O114 2.121 . S
Mn109 N116 2.257 . S
Mn109 N125 2.282 . S
Mn109 O133 2.215 . S
Mn109 O135 2.117 . S
C110 O132 1.234 . S
C110 O133 1.283 . S
C111 O123 1.281 . S
C111 O124 1.236 . S
C112 O134 1.240 . S
C112 O135 1.264 . S
O113 Mn108 2.095 . S
O113 C122 1.250 . S
O114 Mn109 2.121 . S
O114 C122 1.258 . S
C115 N116 1.326 . S
C115 C119 1.460 . S
C115 H121 0.929 . S
N116 Mn109 2.257 . S
N116 C115 1.326 . S
N116 C120 1.362 . S
C117 C118 1.258 . S
C117 C120 1.431 1_455 S
C117 C137 1.449 . S
C118 C117 1.258 . S
C118 C119 1.477 1_455 S
C118 H138 0.931 . S
C119 C115 1.460 . S
C119 C118 1.477 1_655 S
C119 H139 0.930 . S
C120 N116 1.362 . S
C120 C117 1.431 1_655 S
C120 C130 1.476 . S
H121 C115 0.929 . S
C122 O113 1.250 . S
C122 O114 1.258 . S
O123 Mn108 2.162 . S
O123 C111 1.281 . S
O124 Mn108 2.297 . S
O124 C111 1.236 . S
N125 Mn109 2.282 . S
N125 C126 1.328 . S
N125 C130 1.318 . S
C126 N125 1.328 . S
C126 C127 1.457 . S
C126 H131 0.929 . S
C127 C126 1.457 . S
C127 C128 1.291 . S
C127 H140 0.931 . S
C128 C127 1.291 . S
C128 C129 1.373 1_655 S
C128 H141 0.929 1_655 S
C129 C128 1.373 1_455 S
C129 C130 1.396 1_455 S
C129 C136 1.403 . S
C130 C120 1.476 . S
C130 N125 1.318 . S
C130 C129 1.396 1_655 S
H131 C126 0.929 . S
O132 Mn108 2.385 . S
O132 C110 1.234 . S
O133 Mn108 2.209 . S
O133 Mn109 2.215 . S
O133 C110 1.283 . S
O134 Mn108 2.094 . S
O134 C112 1.240 . S
O135 Mn109 2.117 . S
O135 C112 1.264 . S
C136 C129 1.403 . S
C136 C137 1.399 . S
C136 H142 0.929 . S
C137 C117 1.449 . S
C137 C136 1.399 . S
C137 H143 0.930 . S
H138 C118 0.931 . S
H139 C119 0.930 . S
H140 C127 0.931 . S
H141 C128 0.929 1_455 S
H142 C136 0.929 . S
H143 C137 0.930 . S
Mn144 O149 2.095 . S
Mn144 O159 2.162 . S
Mn144 O160 2.297 . S
Mn144 O168 2.385 . S
Mn144 O169 2.209 . S
Mn144 O170 2.094 . S
Mn145 O150 2.121 . S
Mn145 N152 2.257 . S
Mn145 N161 2.282 . S
Mn145 O169 2.215 . S
Mn145 O171 2.117 . S
C146 O168 1.234 . S
C146 O169 1.283 . S
C147 O159 1.281 . S
C147 O160 1.236 . S
C148 O170 1.240 . S
C148 O171 1.264 . S
O149 Mn144 2.095 . S
O149 C158 1.250 . S
O150 Mn145 2.121 . S
O150 C158 1.258 . S
C151 N152 1.326 . S
C151 C155 1.460 . S
C151 H157 0.929 . S
N152 Mn145 2.257 . S
N152 C151 1.326 . S
N152 C156 1.362 . S
C153 C154 1.258 . S
C153 C156 1.431 1_565 S
C153 C173 1.449 . S
C154 C153 1.258 . S
C154 C155 1.477 1_565 S
C154 H174 0.931 . S
C155 C151 1.460 . S
C155 C154 1.477 1_545 S
C155 H175 0.930 . S
C156 N152 1.362 . S
C156 C153 1.431 1_545 S
C156 C166 1.476 . S
H157 C151 0.929 . S
C158 O149 1.250 . S
C158 O150 1.258 . S
O159 Mn144 2.162 . S
O159 C147 1.281 . S
O160 Mn144 2.297 . S
O160 C147 1.236 . S
N161 Mn145 2.282 . S
N161 C162 1.328 . S
N161 C166 1.318 . S
C162 N161 1.328 . S
C162 C163 1.457 . S
C162 H167 0.929 . S
C163 C162 1.457 . S
C163 C164 1.291 . S
C163 H176 0.931 . S
C164 C163 1.291 . S
C164 C165 1.373 1_545 S
C164 H177 0.929 1_545 S
C165 C164 1.373 1_565 S
C165 C166 1.396 1_565 S
C165 C172 1.403 . S
C166 C156 1.476 . S
C166 N161 1.318 . S
C166 C165 1.396 1_545 S
H167 C162 0.929 . S
O168 Mn144 2.385 . S
O168 C146 1.234 . S
O169 Mn144 2.209 . S
O169 Mn145 2.215 . S
O169 C146 1.283 . S
O170 Mn144 2.094 . S
O170 C148 1.240 . S
O171 Mn145 2.117 . S
O171 C148 1.264 . S
C172 C165 1.403 . S
C172 C173 1.399 . S
C172 H178 0.929 . S
C173 C153 1.449 . S
C173 C172 1.399 . S
C173 H179 0.930 . S
H174 C154 0.931 . S
H175 C155 0.930 . S
H176 C163 0.931 . S
H177 C164 0.929 1_565 S
H178 C172 0.929 . S
H179 C173 0.930 . S
Mn180 O185 2.095 . S
Mn180 O195 2.162 . S
Mn180 O196 2.297 . S
Mn180 O204 2.385 . S
Mn180 O205 2.209 . S
Mn180 O206 2.094 . S
Mn181 O186 2.121 . S
Mn181 N188 2.257 . S
Mn181 N197 2.282 . S
Mn181 O205 2.215 . S
Mn181 O207 2.117 . S
C182 O204 1.234 . S
C182 O205 1.283 . S
C183 O195 1.281 . S
C183 O196 1.236 . S
C184 O206 1.240 . S
C184 O207 1.264 . S
O185 Mn180 2.095 . S
O185 C194 1.250 . S
O186 Mn181 2.121 . S
O186 C194 1.258 . S
C187 N188 1.326 . S
C187 C191 1.460 . S
C187 H193 0.929 . S
N188 Mn181 2.257 . S
N188 C187 1.326 . S
N188 C192 1.362 . S
C189 C190 1.258 . S
C189 C192 1.431 . S
C189 C209 1.449 . S
C190 C189 1.258 . S
C190 C191 1.477 . S
C190 H210 0.931 . S
C191 C187 1.460 . S
C191 C190 1.477 . S
C191 H211 0.930 . S
C192 N188 1.362 . S
C192 C189 1.431 . S
C192 C202 1.476 . S
H193 C187 0.929 . S
C194 O185 1.250 . S
C194 O186 1.258 . S
O195 Mn180 2.162 . S
O195 C183 1.281 . S
O196 Mn180 2.297 . S
O196 C183 1.236 . S
N197 Mn181 2.282 . S
N197 C198 1.328 . S
N197 C202 1.318 . S
C198 N197 1.328 . S
C198 C199 1.457 . S
C198 H203 0.929 . S
C199 C198 1.457 . S
C199 C200 1.291 . S
C199 H212 0.931 . S
C200 C199 1.291 . S
C200 C201 1.373 . S
C200 H213 0.929 . S
C201 C200 1.373 . S
C201 C202 1.396 . S
C201 C208 1.403 . S
C202 C192 1.476 . S
C202 N197 1.318 . S
C202 C201 1.396 . S
H203 C198 0.929 . S
O204 Mn180 2.385 . S
O204 C182 1.234 . S
O205 Mn180 2.209 . S
O205 Mn181 2.215 . S
O205 C182 1.283 . S
O206 Mn180 2.094 . S
O206 C184 1.240 . S
O207 Mn181 2.117 . S
O207 C184 1.264 . S
C208 C201 1.403 . S
C208 C209 1.399 . S
C208 H214 0.929 . S
C209 C189 1.449 . S
C209 C208 1.399 . S
C209 H215 0.930 . S
H210 C190 0.931 . S
H211 C191 0.930 . S
H212 C199 0.931 . S
H213 C200 0.929 . S
H214 C208 0.929 . S
H215 C209 0.930 . S
Mn216 O221 2.095 . S
Mn216 O231 2.162 . S
Mn216 O232 2.297 . S
Mn216 O240 2.385 . S
Mn216 O241 2.209 . S
Mn216 O242 2.094 . S
Mn217 O222 2.121 . S
Mn217 N224 2.257 . S
Mn217 N233 2.282 . S
Mn217 O241 2.215 . S
Mn217 O243 2.117 . S
C218 O240 1.234 . S
C218 O241 1.283 . S
C219 O231 1.281 . S
C219 O232 1.236 . S
C220 O242 1.240 . S
C220 O243 1.264 . S
O221 Mn216 2.095 . S
O221 C230 1.250 . S
O222 Mn217 2.121 . S
O222 C230 1.258 . S
C223 N224 1.326 . S
C223 C227 1.460 . S
C223 H229 0.929 . S
N224 Mn217 2.257 . S
N224 C223 1.326 . S
N224 C228 1.362 . S
C225 C226 1.258 . S
C225 C228 1.431 1_545 S
C225 C245 1.449 . S
C226 C225 1.258 . S
C226 C227 1.477 1_545 S
C226 H246 0.931 . S
C227 C223 1.460 . S
C227 C226 1.477 1_565 S
C227 H247 0.930 . S
C228 N224 1.362 . S
C228 C225 1.431 1_565 S
C228 C238 1.476 . S
H229 C223 0.929 . S
C230 O221 1.250 . S
C230 O222 1.258 . S
O231 Mn216 2.162 . S
O231 C219 1.281 . S
O232 Mn216 2.297 . S
O232 C219 1.236 . S
N233 Mn217 2.282 . S
N233 C234 1.328 . S
N233 C238 1.318 . S
C234 N233 1.328 . S
C234 C235 1.457 . S
C234 H239 0.929 . S
C235 C234 1.457 . S
C235 C236 1.291 . S
C235 H248 0.931 . S
C236 C235 1.291 . S
C236 C237 1.373 1_565 S
C236 H249 0.929 1_565 S
C237 C236 1.373 1_545 S
C237 C238 1.396 1_545 S
C237 C244 1.403 . S
C238 C228 1.476 . S
C238 N233 1.318 . S
C238 C237 1.396 1_565 S
H239 C234 0.929 . S
O240 Mn216 2.385 . S
O240 C218 1.234 . S
O241 Mn216 2.209 . S
O241 Mn217 2.215 . S
O241 C218 1.283 . S
O242 Mn216 2.094 . S
O242 C220 1.240 . S
O243 Mn217 2.117 . S
O243 C220 1.264 . S
C244 C237 1.403 . S
C244 C245 1.399 . S
C244 H250 0.929 . S
C245 C225 1.449 . S
C245 C244 1.399 . S
C245 H251 0.930 . S
H246 C226 0.931 . S
H247 C227 0.930 . S
H248 C235 0.931 . S
H249 C236 0.929 1_545 S
H250 C244 0.929 . S
H251 C245 0.930 . S
Mn252 O257 2.095 . S
Mn252 O267 2.162 . S
Mn252 O268 2.297 . S
Mn252 O276 2.385 . S
Mn252 O277 2.209 . S
Mn252 O278 2.094 . S
Mn253 O258 2.121 . S
Mn253 N260 2.257 . S
Mn253 N269 2.282 . S
Mn253 O277 2.215 . S
Mn253 O279 2.117 . S
C254 O276 1.234 . S
C254 O277 1.283 . S
C255 O267 1.281 . S
C255 O268 1.236 . S
C256 O278 1.240 . S
C256 O279 1.264 . S
O257 Mn252 2.095 . S
O257 C266 1.250 . S
O258 Mn253 2.121 . S
O258 C266 1.258 . S
C259 N260 1.326 . S
C259 C263 1.460 . S
C259 H265 0.929 . S
N260 Mn253 2.257 . S
N260 C259 1.326 . S
N260 C264 1.362 . S
C261 C262 1.258 . S
C261 C264 1.431 . S
C261 C281 1.449 . S
C262 C261 1.258 . S
C262 C263 1.477 . S
C262 H282 0.931 . S
C263 C259 1.460 . S
C263 C262 1.477 . S
C263 H283 0.930 . S
C264 N260 1.362 . S
C264 C261 1.431 . S
C264 C274 1.476 . S
H265 C259 0.929 . S
C266 O257 1.250 . S
C266 O258 1.258 . S
O267 Mn252 2.162 . S
O267 C255 1.281 . S
O268 Mn252 2.297 . S
O268 C255 1.236 . S
N269 Mn253 2.282 . S
N269 C270 1.328 . S
N269 C274 1.318 . S
C270 N269 1.328 . S
C270 C271 1.457 . S
C270 H275 0.929 . S
C271 C270 1.457 . S
C271 C272 1.291 . S
C271 H284 0.931 . S
C272 C271 1.291 . S
C272 C273 1.373 . S
C272 H285 0.929 . S
C273 C272 1.373 . S
C273 C274 1.396 . S
C273 C280 1.403 . S
C274 C264 1.476 . S
C274 N269 1.318 . S
C274 C273 1.396 . S
H275 C270 0.929 . S
O276 Mn252 2.385 . S
O276 C254 1.234 . S
O277 Mn252 2.209 . S
O277 Mn253 2.215 . S
O277 C254 1.283 . S
O278 Mn252 2.094 . S
O278 C256 1.240 . S
O279 Mn253 2.117 . S
O279 C256 1.264 . S
C280 C273 1.403 . S
C280 C281 1.399 . S
C280 H286 0.929 . S
C281 C261 1.449 . S
C281 C280 1.399 . S
C281 H287 0.930 . S
H282 C262 0.931 . S
H283 C263 0.930 . S
H284 C271 0.931 . S
H285 C272 0.929 . S
H286 C280 0.929 . S
H287 C281 0.930 . S
H288 C294 0.930 . S
H289 C298 0.930 . S
H290 C303 0.929 . S
H291 C301 0.929 . S
H292 C296 0.929 . S
H293 C302 0.929 . S
C294 H288 0.930 . S
C294 C295 1.367 . S
C294 C302 1.378 . S
C295 C294 1.367 . S
C295 C303 1.433 . S
C296 H292 0.929 . S
C296 C298 1.378 . S
C296 C300 1.350 . S
C297 C300 1.463 1_554 S
C297 C302 1.350 . S
C297 N305 1.427 . S
C298 H289 0.930 . S
C298 C296 1.378 . S
C298 C299 1.367 . S
C299 C298 1.367 . S
C299 C301 1.433 . S
C300 C296 1.350 . S
C300 C297 1.463 1_556 S
C300 N304 1.427 . S
C301 H291 0.929 . S
C301 C299 1.433 . S
C301 N304 1.384 . S
C302 H293 0.929 . S
C302 C294 1.378 . S
C302 C297 1.350 . S
C303 H290 0.929 . S
C303 C295 1.433 . S
C303 N305 1.384 . S
N304 C300 1.427 . S
N304 C301 1.384 . S
N305 C297 1.427 . S
N305 C303 1.384 . S
H306 C312 0.930 . S
H307 C316 0.930 . S
H308 C321 0.929 . S
H309 C319 0.929 . S
H310 C314 0.929 . S
H311 C320 0.929 . S
C312 H306 0.930 . S
C312 C313 1.367 . S
C312 C320 1.378 . S
C313 C312 1.367 . S
C313 C321 1.433 . S
C314 H310 0.929 . S
C314 C316 1.378 . S
C314 C318 1.350 . S
C315 C318 1.463 . S
C315 C320 1.350 . S
C315 N323 1.427 . S
C316 H307 0.930 . S
C316 C314 1.378 . S
C316 C317 1.367 . S
C317 C316 1.367 . S
C317 C319 1.433 . S
C318 C314 1.350 . S
C318 C315 1.463 . S
C318 N322 1.427 . S
C319 H309 0.929 . S
C319 C317 1.433 . S
C319 N322 1.384 . S
C320 H311 0.929 . S
C320 C312 1.378 . S
C320 C315 1.350 . S
C321 H308 0.929 . S
C321 C313 1.433 . S
C321 N323 1.384 . S
N322 C318 1.427 . S
N322 C319 1.384 . S
N323 C315 1.427 . S
N323 C321 1.384 . S
H324 C330 0.930 . S
H325 C334 0.930 . S
H326 C339 0.929 . S
H327 C337 0.929 . S
H328 C332 0.929 . S
H329 C338 0.929 . S
C330 H324 0.930 . S
C330 C331 1.367 . S
C330 C338 1.378 . S
C331 C330 1.367 . S
C331 C339 1.433 . S
C332 H328 0.929 . S
C332 C334 1.378 . S
C332 C336 1.350 . S
C333 C336 1.463 1_554 S
C333 C338 1.350 . S
C333 N341 1.427 . S
C334 H325 0.930 . S
C334 C332 1.378 . S
C334 C335 1.367 . S
C335 C334 1.367 . S
C335 C337 1.433 . S
C336 C332 1.350 . S
C336 C333 1.463 1_556 S
C336 N340 1.427 . S
C337 H327 0.929 . S
C337 C335 1.433 . S
C337 N340 1.384 . S
C338 H329 0.929 . S
C338 C330 1.378 . S
C338 C333 1.350 . S
C339 H326 0.929 . S
C339 C331 1.433 . S
C339 N341 1.384 . S
N340 C336 1.427 . S
N340 C337 1.384 . S
N341 C333 1.427 . S
N341 C339 1.384 . S
H342 C348 0.930 . S
H343 C352 0.930 . S
H344 C357 0.929 . S
H345 C355 0.929 . S
H346 C350 0.929 . S
H347 C356 0.929 . S
C348 H342 0.930 . S
C348 C349 1.367 . S
C348 C356 1.378 . S
C349 C348 1.367 . S
C349 C357 1.433 . S
C350 H346 0.929 . S
C350 C352 1.378 . S
C350 C354 1.350 . S
C351 C354 1.463 . S
C351 C356 1.350 . S
C351 N359 1.427 . S
C352 H343 0.930 . S
C352 C350 1.378 . S
C352 C353 1.367 . S
C353 C352 1.367 . S
C353 C355 1.433 . S
C354 C350 1.350 . S
C354 C351 1.463 . S
C354 N358 1.427 . S
C355 H345 0.929 . S
C355 C353 1.433 . S
C355 N358 1.384 . S
C356 H347 0.929 . S
C356 C348 1.378 . S
C356 C351 1.350 . S
C357 H344 0.929 . S
C357 C349 1.433 . S
C357 N359 1.384 . S
N358 C354 1.427 . S
N358 C355 1.384 . S
N359 C351 1.427 . S
N359 C357 1.384 . S
H360 C366 0.930 . S
H361 C370 0.930 . S
H362 C375 0.929 . S
H363 C373 0.929 . S
H364 C368 0.929 . S
H365 C374 0.929 . S
C366 H360 0.930 . S
C366 C367 1.367 . S
C366 C374 1.378 . S
C367 C366 1.367 . S
C367 C375 1.433 . S
C368 H364 0.929 . S
C368 C370 1.378 . S
C368 C372 1.350 . S
C369 C372 1.463 . S
C369 C374 1.350 . S
C369 N377 1.427 . S
C370 H361 0.930 . S
C370 C368 1.378 . S
C370 C371 1.367 . S
C371 C370 1.367 . S
C371 C373 1.433 . S
C372 C368 1.350 . S
C372 C369 1.463 . S
C372 N376 1.427 . S
C373 H363 0.929 . S
C373 C371 1.433 . S
C373 N376 1.384 . S
C374 H365 0.929 . S
C374 C366 1.378 . S
C374 C369 1.350 . S
C375 H362 0.929 . S
C375 C367 1.433 . S
C375 N377 1.384 . S
N376 C372 1.427 . S
N376 C373 1.384 . S
N377 C369 1.427 . S
N377 C375 1.384 . S
H378 C384 0.930 . S
H379 C388 0.930 . S
H380 C393 0.929 . S
H381 C391 0.929 . S
H382 C386 0.929 . S
H383 C392 0.929 . S
C384 H378 0.930 . S
C384 C385 1.367 . S
C384 C392 1.378 . S
C385 C384 1.367 . S
C385 C393 1.433 . S
C386 H382 0.929 . S
C386 C388 1.378 . S
C386 C390 1.350 . S
C387 C390 1.463 . S
C387 C392 1.350 . S
C387 N395 1.427 . S
C388 H379 0.930 . S
C388 C386 1.378 . S
C388 C389 1.367 . S
C389 C388 1.367 . S
C389 C391 1.433 . S
C390 C386 1.350 . S
C390 C387 1.463 . S
C390 N394 1.427 . S
C391 H381 0.929 . S
C391 C389 1.433 . S
C391 N394 1.384 . S
C392 H383 0.929 . S
C392 C384 1.378 . S
C392 C387 1.350 . S
C393 H380 0.929 . S
C393 C385 1.433 . S
C393 N395 1.384 . S
N394 C390 1.427 . S
N394 C391 1.384 . S
N395 C387 1.427 . S
N395 C393 1.384 . S
H396 C402 0.930 . S
H397 C406 0.930 . S
H398 C411 0.929 . S
H399 C409 0.929 . S
H400 C404 0.929 . S
H401 C410 0.929 . S
C402 H396 0.930 . S
C402 C403 1.367 . S
C402 C410 1.378 . S
C403 C402 1.367 . S
C403 C411 1.433 . S
C404 H400 0.929 . S
C404 C406 1.378 . S
C404 C408 1.350 . S
C405 C408 1.463 . S
C405 C410 1.350 . S
C405 N413 1.427 . S
C406 H397 0.930 . S
C406 C404 1.378 . S
C406 C407 1.367 . S
C407 C406 1.367 . S
C407 C409 1.433 . S
C408 C404 1.350 . S
C408 C405 1.463 . S
C408 N412 1.427 . S
C409 H399 0.929 . S
C409 C407 1.433 . S
C409 N412 1.384 . S
C410 H401 0.929 . S
C410 C402 1.378 . S
C410 C405 1.350 . S
C411 H398 0.929 . S
C411 C403 1.433 . S
C411 N413 1.384 . S
N412 C408 1.427 . S
N412 C409 1.384 . S
N413 C405 1.427 . S
N413 C411 1.384 . S
H414 C420 0.930 . S
H415 C424 0.930 . S
H416 C429 0.929 . S
H417 C427 0.929 . S
H418 C422 0.929 . S
H419 C428 0.929 . S
C420 H414 0.930 . S
C420 C421 1.367 . S
C420 C428 1.378 . S
C421 C420 1.367 . S
C421 C429 1.433 . S
C422 H418 0.929 . S
C422 C424 1.378 . S
C422 C426 1.350 . S
C423 C426 1.463 . S
C423 C428 1.350 . S
C423 N431 1.427 . S
C424 H415 0.930 . S
C424 C422 1.378 . S
C424 C425 1.367 . S
C425 C424 1.367 . S
C425 C427 1.433 . S
C426 C422 1.350 . S
C426 C423 1.463 . S
C426 N430 1.427 . S
C427 H417 0.929 . S
C427 C425 1.433 . S
C427 N430 1.384 . S
C428 H419 0.929 . S
C428 C420 1.378 . S
C428 C423 1.350 . S
C429 H416 0.929 . S
C429 C421 1.433 . S
C429 N431 1.384 . S
N430 C426 1.427 . S
N430 C427 1.384 . S
N431 C423 1.427 . S
N431 C429 1.384 . S
H432 C438 0.930 . S
H433 C442 0.930 1_455 S
H434 C447 0.929 . S
H435 C445 0.929 . S
H436 C440 0.929 . S
H437 C446 0.929 . S
C438 H432 0.930 . S
C438 C439 1.367 . S
C438 C446 1.378 . S
C439 C438 1.367 . S
C439 C447 1.433 . S
C440 H436 0.929 . S
C440 C442 1.378 . S
C440 C444 1.350 . S
C441 C444 1.463 . S
C441 C446 1.350 . S
C441 N449 1.427 . S
C442 H433 0.930 1_655 S
C442 C440 1.378 . S
C442 C443 1.367 . S
C443 C442 1.367 . S
C443 C445 1.433 . S
C444 C440 1.350 . S
C444 C441 1.463 . S
C444 N448 1.427 . S
C445 H435 0.929 . S
C445 C443 1.433 . S
C445 N448 1.384 . S
C446 H437 0.929 . S
C446 C438 1.378 . S
C446 C441 1.350 . S
C447 H434 0.929 . S
C447 C439 1.433 . S
C447 N449 1.384 . S
N448 C444 1.427 . S
N448 C445 1.384 . S
N449 C441 1.427 . S
N449 C447 1.384 . S
H450 C456 0.930 . S
H451 C460 0.930 . S
H452 C465 0.929 . S
H453 C463 0.929 . S
H454 C458 0.929 . S
H455 C464 0.929 . S
C456 H450 0.930 . S
C456 C457 1.367 . S
C456 C464 1.378 . S
C457 C456 1.367 . S
C457 C465 1.433 . S
C458 H454 0.929 . S
C458 C460 1.378 . S
C458 C462 1.350 . S
C459 C462 1.463 . S
C459 C464 1.350 . S
C459 N467 1.427 . S
C460 H451 0.930 . S
C460 C458 1.378 . S
C460 C461 1.367 . S
C461 C460 1.367 . S
C461 C463 1.433 . S
C462 C458 1.350 . S
C462 C459 1.463 . S
C462 N466 1.427 . S
C463 H453 0.929 . S
C463 C461 1.433 . S
C463 N466 1.384 . S
C464 H455 0.929 . S
C464 C456 1.378 . S
C464 C459 1.350 . S
C465 H452 0.929 . S
C465 C457 1.433 . S
C465 N467 1.384 . S
N466 C462 1.427 . S
N466 C463 1.384 . S
N467 C459 1.427 . S
N467 C465 1.384 . S
H468 C474 0.930 . S
H469 C478 0.930 . S
H470 C483 0.929 . S
H471 C481 0.929 . S
H472 C476 0.929 . S
H473 C482 0.929 . S
C474 H468 0.930 . S
C474 C475 1.367 . S
C474 C482 1.378 . S
C475 C474 1.367 . S
C475 C483 1.433 . S
C476 H472 0.929 . S
C476 C478 1.378 . S
C476 C480 1.350 . S
C477 C480 1.463 . S
C477 C482 1.350 . S
C477 N485 1.427 . S
C478 H469 0.930 . S
C478 C476 1.378 . S
C478 C479 1.367 . S
C479 C478 1.367 . S
C479 C481 1.433 . S
C480 C476 1.350 . S
C480 C477 1.463 . S
C480 N484 1.427 . S
C481 H471 0.929 . S
C481 C479 1.433 . S
C481 N484 1.384 . S
C482 H473 0.929 . S
C482 C474 1.378 . S
C482 C477 1.350 . S
C483 H470 0.929 . S
C483 C475 1.433 . S
C483 N485 1.384 . S
N484 C480 1.427 . S
N484 C481 1.384 . S
N485 C477 1.427 . S
N485 C483 1.384 . S
H486 C492 0.930 . S
H487 C496 0.930 . S
H488 C501 0.929 . S
H489 C499 0.929 . S
H490 C494 0.929 . S
H491 C500 0.929 . S
C492 H486 0.930 . S
C492 C493 1.367 . S
C492 C500 1.378 . S
C493 C492 1.367 . S
C493 C501 1.433 . S
C494 H490 0.929 . S
C494 C496 1.378 . S
C494 C498 1.350 . S
C495 C498 1.463 . S
C495 C500 1.350 . S
C495 N503 1.427 . S
C496 H487 0.930 . S
C496 C494 1.378 . S
C496 C497 1.367 . S
C497 C496 1.367 . S
C497 C499 1.433 . S
C498 C494 1.350 . S
C498 C495 1.463 . S
C498 N502 1.427 . S
C499 H489 0.929 . S
C499 C497 1.433 . S
C499 N502 1.384 . S
C500 H491 0.929 . S
C500 C492 1.378 . S
C500 C495 1.350 . S
C501 H488 0.929 . S
C501 C493 1.433 . S
C501 N503 1.384 . S
N502 C498 1.427 . S
N502 C499 1.384 . S
N503 C495 1.427 . S
N503 C501 1.384 . S
H504 C510 0.930 . S
H505 C514 0.930 . S
H506 C519 0.929 . S
H507 C517 0.929 . S
H508 C512 0.929 1_655 S
H509 C518 0.929 1_455 S
C510 H504 0.930 . S
C510 C511 1.367 . S
C510 C518 1.378 . S
C511 C510 1.367 . S
C511 C519 1.433 . S
C512 H508 0.929 1_455 S
C512 C514 1.378 . S
C512 C516 1.350 . S
C513 C516 1.463 1_655 S
C513 C518 1.350 . S
C513 N521 1.427 . S
C514 H505 0.930 . S
C514 C512 1.378 . S
C514 C515 1.367 . S
C515 C514 1.367 . S
C515 C517 1.433 . S
C516 C512 1.350 . S
C516 C513 1.463 1_455 S
C516 N520 1.427 . S
C517 H507 0.929 . S
C517 C515 1.433 . S
C517 N520 1.384 . S
C518 H509 0.929 1_655 S
C518 C510 1.378 . S
C518 C513 1.350 . S
C519 H506 0.929 . S
C519 C511 1.433 . S
C519 N521 1.384 . S
N520 C516 1.427 . S
N520 C517 1.384 . S
N521 C513 1.427 . S
N521 C519 1.384 . S
H522 C528 0.930 . S
H523 C532 0.930 . S
H524 C537 0.929 . S
H525 C535 0.929 . S
H526 C530 0.929 . S
H527 C536 0.929 . S
C528 H522 0.930 . S
C528 C529 1.367 . S
C528 C536 1.378 . S
C529 C528 1.367 . S
C529 C537 1.433 . S
C530 H526 0.929 . S
C530 C532 1.378 . S
C530 C534 1.350 . S
C531 C534 1.463 1_655 S
C531 C536 1.350 . S
C531 N539 1.427 . S
C532 H523 0.930 . S
C532 C530 1.378 . S
C532 C533 1.367 . S
C533 C532 1.367 . S
C533 C535 1.433 . S
C534 C530 1.350 . S
C534 C531 1.463 1_455 S
C534 N538 1.427 . S
C535 H525 0.929 . S
C535 C533 1.433 . S
C535 N538 1.384 . S
C536 H527 0.929 . S
C536 C528 1.378 . S
C536 C531 1.350 . S
C537 H524 0.929 . S
C537 C529 1.433 . S
C537 N539 1.384 . S
N538 C534 1.427 . S
N538 C535 1.384 . S
N539 C531 1.427 . S
N539 C537 1.384 . S
H540 C546 0.930 . S
H541 C550 0.930 . S
H542 C555 0.929 . S
H543 C553 0.929 . S
H544 C548 0.929 . S
H545 C554 0.929 . S
C546 H540 0.930 . S
C546 C547 1.367 . S
C546 C554 1.378 . S
C547 C546 1.367 . S
C547 C555 1.433 . S
C548 H544 0.929 . S
C548 C550 1.378 . S
C548 C552 1.350 . S
C549 C552 1.463 1_545 S
C549 C554 1.350 . S
C549 N557 1.427 . S
C550 H541 0.930 . S
C550 C548 1.378 . S
C550 C551 1.367 . S
C551 C550 1.367 . S
C551 C553 1.433 . S
C552 C548 1.350 . S
C552 C549 1.463 1_565 S
C552 N556 1.427 . S
C553 H543 0.929 . S
C553 C551 1.433 . S
C553 N556 1.384 . S
C554 H545 0.929 . S
C554 C546 1.378 . S
C554 C549 1.350 . S
C555 H542 0.929 . S
C555 C547 1.433 . S
C555 N557 1.384 . S
N556 C552 1.427 . S
N556 C553 1.384 . S
N557 C549 1.427 . S
N557 C555 1.384 . S
H558 C564 0.930 . S
H559 C568 0.930 . S
H560 C573 0.929 . S
H561 C571 0.929 . S
H562 C566 0.929 1_545 S
H563 C572 0.929 1_565 S
C564 H558 0.930 . S
C564 C565 1.367 . S
C564 C572 1.378 . S
C565 C564 1.367 . S
C565 C573 1.433 . S
C566 H562 0.929 1_565 S
C566 C568 1.378 . S
C566 C570 1.350 . S
C567 C570 1.463 1_545 S
C567 C572 1.350 . S
C567 N575 1.427 . S
C568 H559 0.930 . S
C568 C566 1.378 . S
C568 C569 1.367 . S
C569 C568 1.367 . S
C569 C571 1.433 . S
C570 C566 1.350 . S
C570 C567 1.463 1_565 S
C570 N574 1.427 . S
C571 H561 0.929 . S
C571 C569 1.433 . S
C571 N574 1.384 . S
C572 H563 0.929 1_545 S
C572 C564 1.378 . S
C572 C567 1.350 . S
C573 H560 0.929 . S
C573 C565 1.433 . S
C573 N575 1.384 . S
N574 C570 1.427 . S
N574 C571 1.384 . S
N575 C567 1.427 . S
N575 C573 1.384 . S
C295 C4 1.354 . S
C299 C184 1.360 . S
C313 C40 1.359 . S
C317 C220 1.354 . S
C331 C76 1.354 . S
C335 C256 1.361 . S
C349 C148 1.360 . S
C353 C112 1.356 . S
C367 C14 1.566 . S
C371 C147 1.636 . S
C385 C50 1.567 . S
C389 C183 1.635 1_565 S
C403 C219 1.643 . S
C407 C86 1.582 . S
C421 C122 1.570 . S
C425 C255 1.636 1_545 S
C439 C158 1.576 . S
C443 C3 1.638 1_655 S
C457 C39 1.637 . S
C461 C194 1.567 . S
C475 C230 1.582 . S
C479 C75 1.643 1_455 S
C493 C111 1.638 . S
C497 C266 1.577 . S
C511 C74 0.510 . S
C515 C2 0.507 . S
C529 C110 0.505 . S
C533 C38 0.503 . S
C547 C146 0.523 . S
C551 C218 0.519 . S
C565 C182 0.508 . S
C569 C254 0.511 . S
