# Generated by pormake.
# Topology wgd, (5)-cn, num edge types: 1
# Building blocks:
#     Node 0, Type 0, BuildingBlock: BEQFEK_clean_sbu_0, # of connection points: 5
#     Node 1, Type 0, BuildingBlock: BEQFEK_clean_sbu_0, # of connection points: 5
#     Node 2, Type 0, BuildingBlock: BEQFEK_clean_sbu_0, # of connection points: 5
#     Node 3, Type 0, BuildingBlock: BEQFEK_clean_sbu_0, # of connection points: 5
#     Node 4, Type 0, BuildingBlock: BEQFEK_clean_sbu_0, # of connection points: 5
#     Node 5, Type 0, BuildingBlock: BEQFEK_clean_sbu_0, # of connection points: 5
#     Node 6, Type 0, BuildingBlock: BEQFEK_clean_sbu_0, # of connection points: 5
#     Node 7, Type 0, BuildingBlock: BEQFEK_clean_sbu_0, # of connection points: 5
#     Node 8, Type 0, BuildingBlock: BEQFEK_clean_sbu_0, # of connection points: 5
#     Node 9, Type 0, BuildingBlock: BEQFEK_clean_sbu_0, # of connection points: 5
#     Node 10, Type 0, BuildingBlock: BEQFEK_clean_sbu_0, # of connection points: 5
#     Node 11, Type 0, BuildingBlock: BEQFEK_clean_sbu_0, # of connection points: 5
#     Node 12, Type 0, BuildingBlock: BEQFEK_clean_sbu_0, # of connection points: 5
#     Node 13, Type 0, BuildingBlock: BEQFEK_clean_sbu_0, # of connection points: 5
#     Node 14, Type 0, BuildingBlock: BEQFEK_clean_sbu_0, # of connection points: 5
#     Node 15, Type 0, BuildingBlock: BEQFEK_clean_sbu_0, # of connection points: 5
#     Node 16, Type 0, BuildingBlock: BEQFEK_clean_sbu_0, # of connection points: 5
#     Node 17, Type 0, BuildingBlock: BEQFEK_clean_sbu_0, # of connection points: 5
#     Node 18, Type 0, BuildingBlock: BEQFEK_clean_sbu_0, # of connection points: 5
#     Node 19, Type 0, BuildingBlock: BEQFEK_clean_sbu_0, # of connection points: 5
#     Node 20, Type 0, BuildingBlock: BEQFEK_clean_sbu_0, # of connection points: 5
#     Node 21, Type 0, BuildingBlock: BEQFEK_clean_sbu_0, # of connection points: 5
#     Node 22, Type 0, BuildingBlock: BEQFEK_clean_sbu_0, # of connection points: 5
#     Node 23, Type 0, BuildingBlock: BEQFEK_clean_sbu_0, # of connection points: 5
#     Node 24, Type 0, BuildingBlock: BEQFEK_clean_sbu_0, # of connection points: 5
#     Node 25, Type 0, BuildingBlock: BEQFEK_clean_sbu_0, # of connection points: 5
#     Node 26, Type 0, BuildingBlock: BEQFEK_clean_sbu_0, # of connection points: 5
#     Node 27, Type 0, BuildingBlock: BEQFEK_clean_sbu_0, # of connection points: 5
#     Node 28, Type 0, BuildingBlock: BEQFEK_clean_sbu_0, # of connection points: 5
#     Node 29, Type 0, BuildingBlock: BEQFEK_clean_sbu_0, # of connection points: 5
#     Node 30, Type 0, BuildingBlock: BEQFEK_clean_sbu_0, # of connection points: 5
#     Node 31, Type 0, BuildingBlock: BEQFEK_clean_sbu_0, # of connection points: 5
#     Edge 32, Type (0, 0), None
#     Edge 33, Type (0, 0), None
#     Edge 34, Type (0, 0), None
#     Edge 35, Type (0, 0), None
#     Edge 36, Type (0, 0), None
#     Edge 37, Type (0, 0), None
#     Edge 38, Type (0, 0), None
#     Edge 39, Type (0, 0), None
#     Edge 40, Type (0, 0), None
#     Edge 41, Type (0, 0), None
#     Edge 42, Type (0, 0), None
#     Edge 43, Type (0, 0), None
#     Edge 44, Type (0, 0), None
#     Edge 45, Type (0, 0), None
#     Edge 46, Type (0, 0), None
#     Edge 47, Type (0, 0), None
#     Edge 48, Type (0, 0), None
#     Edge 49, Type (0, 0), None
#     Edge 50, Type (0, 0), None
#     Edge 51, Type (0, 0), None
#     Edge 52, Type (0, 0), None
#     Edge 53, Type (0, 0), None
#     Edge 54, Type (0, 0), None
#     Edge 55, Type (0, 0), None
#     Edge 56, Type (0, 0), None
#     Edge 57, Type (0, 0), None
#     Edge 58, Type (0, 0), None
#     Edge 59, Type (0, 0), None
#     Edge 60, Type (0, 0), None
#     Edge 61, Type (0, 0), None
#     Edge 62, Type (0, 0), None
#     Edge 63, Type (0, 0), None
#     Edge 64, Type (0, 0), None
#     Edge 65, Type (0, 0), None
#     Edge 66, Type (0, 0), None
#     Edge 67, Type (0, 0), None
#     Edge 68, Type (0, 0), None
#     Edge 69, Type (0, 0), None
#     Edge 70, Type (0, 0), None
#     Edge 71, Type (0, 0), None
#     Edge 72, Type (0, 0), None
#     Edge 73, Type (0, 0), None
#     Edge 74, Type (0, 0), None
#     Edge 75, Type (0, 0), None
#     Edge 76, Type (0, 0), None
#     Edge 77, Type (0, 0), None
#     Edge 78, Type (0, 0), None
#     Edge 79, Type (0, 0), None
#     Edge 80, Type (0, 0), None
#     Edge 81, Type (0, 0), None
#     Edge 82, Type (0, 0), None
#     Edge 83, Type (0, 0), None
#     Edge 84, Type (0, 0), None
#     Edge 85, Type (0, 0), None
#     Edge 86, Type (0, 0), None
#     Edge 87, Type (0, 0), None
#     Edge 88, Type (0, 0), None
#     Edge 89, Type (0, 0), None
#     Edge 90, Type (0, 0), None
#     Edge 91, Type (0, 0), None
#     Edge 92, Type (0, 0), None
#     Edge 93, Type (0, 0), None
#     Edge 94, Type (0, 0), None
#     Edge 95, Type (0, 0), None
#     Edge 96, Type (0, 0), None
#     Edge 97, Type (0, 0), None
#     Edge 98, Type (0, 0), None
#     Edge 99, Type (0, 0), None
#     Edge 100, Type (0, 0), None
#     Edge 101, Type (0, 0), None
#     Edge 102, Type (0, 0), None
#     Edge 103, Type (0, 0), None
#     Edge 104, Type (0, 0), None
#     Edge 105, Type (0, 0), None
#     Edge 106, Type (0, 0), None
#     Edge 107, Type (0, 0), None
#     Edge 108, Type (0, 0), None
#     Edge 109, Type (0, 0), None
#     Edge 110, Type (0, 0), None
#     Edge 111, Type (0, 0), None
# Relax obj value: 0.393
# Max RMSD: 0.272
# Mean RMSD: 0.272
data_MOF--net-wgd--node1-BEQFEK_clean_sbu_0--edge1-none
_symmetry_space_group_name_H-M    P1
_symmetry_Int_Tables_number       1
_symmetry_cell_setting            triclinic
loop_
_symmetry_equiv_pos_as_xyz
'x, y, z'
_cell_length_a     46.499232
_cell_length_b     46.498819
_cell_length_c     10.211578
_cell_angle_alpha  89.998482
_cell_angle_beta   89.9993
_cell_angle_gamma 90.0011161
loop_
_atom_site_label
_atom_site_type_symbol
_atom_site_fract_x
_atom_site_fract_y
_atom_site_fract_z
_atom_type_partial_charge
Co0 Co 0.16303 0.1831 0.22811 0.0
Co1 Co 0.19171 0.18409 0.97003 0.0
C2 C 0.18028 0.23857 0.09786 0.0
O3 O 0.1638 0.22619 0.18056 0.0
O4 O 0.19438 0.22406 0.01543 0.0
C5 C 0.16239 0.19624 0.47964 0.0
O6 O 0.16805 0.22181 0.43224 0.0
C7 C 0.18391 0.20022 0.70799 0.0
C8 C 0.19501 0.16074 0.59939 0.0
C9 C 0.18036 0.18655 0.5893 0.0
N10 N 0.1987 0.18261 0.78796 0.0
N11 N 0.20573 0.1592 0.72192 0.0
C12 C 0.16785 0.22636 0.75374 0.0
H13 H 0.18315 0.24219 0.79334 0.0
H14 H 0.15356 0.22085 0.83632 0.0
H15 H 0.155 0.23645 0.67465 0.0
C16 C 0.13721 0.13187 0.06116 0.0
N17 N 0.14825 0.15817 0.089 0.0
N18 N 0.15196 0.17149 0.97797 0.0
C19 C 0.13872 0.15696 0.87977 0.0
C20 C 0.13093 0.13006 0.92527 0.0
C21 C 0.13676 0.1082 0.15957 0.0
H22 H 0.15634 0.10941 0.22159 0.0
H23 H 0.11807 0.11118 0.2254 0.0
H24 H 0.13587 0.087 0.11069 0.0
O25 O 0.20119 0.17263 0.27714 0.0
O26 O 0.22295 0.16432 0.0902 0.0
H27 H 0.12987 0.17543 0.69019 0.0
H28 H 0.09902 0.16039 0.76725 0.0
C29 C 0.11924 0.17247 0.7853 0.0
H30 H 0.11322 0.1939 0.82428 0.0
H31 H 0.21492 0.14095 0.76408 0.0
O32 O 0.14951 0.17785 0.40747 0.0
C33 C 0.22305 0.1644 0.21646 0.0
Co34 Co 0.06225 0.91321 0.47821 0.0
Co35 Co 0.06113 0.9419 0.22012 0.0
C36 C 0.00669 0.9302 0.34794 0.0
O37 O 0.01916 0.91379 0.43063 0.0
O38 O 0.02114 0.94438 0.26553 0.0
C39 C 0.04911 0.91252 0.72973 0.0
O40 O 0.02352 0.91807 0.68233 0.0
C41 C 0.04503 0.93403 0.95807 0.0
C42 C 0.08448 0.94527 0.84951 0.0
C43 C 0.05872 0.93053 0.83939 0.0
N44 N 0.06259 0.9489 0.03804 0.0
N45 N 0.08597 0.956 0.97202 0.0
C46 C 0.01896 0.91787 1.00382 0.0
H47 H 0.00307 0.93311 0.04343 0.0
H48 H 0.02453 0.9036 0.08641 0.0
H49 H 0.00892 0.90498 0.92475 0.0
C50 C 0.11358 0.88758 0.31129 0.0
N51 N 0.08725 0.89855 0.33911 0.0
N52 N 0.07392 0.90222 0.22806 0.0
C53 C 0.0885 0.88904 0.12986 0.0
C54 C 0.11543 0.88134 0.17539 0.0
C55 C 0.13723 0.88715 0.40978 0.0
H56 H 0.13602 0.90674 0.47171 0.0
H57 H 0.13422 0.86846 0.47567 0.0
H58 H 0.15844 0.88623 0.361 0.0
O59 O 0.07254 0.95142 0.52724 0.0
O60 O 0.08076 0.97322 0.34031 0.0
H61 H 0.07012 0.88013 0.94017 0.0
H62 H 0.08522 0.84933 0.01733 0.0
C63 C 0.07307 0.86952 0.03531 0.0
H64 H 0.05165 0.86342 0.07416 0.0
H65 H 0.10419 0.96526 0.01419 0.0
O66 O 0.06755 0.89971 0.65757 0.0
C67 C 0.08067 0.97332 0.46656 0.0
Co68 Co 0.33206 0.81192 0.72826 0.0
Co69 Co 0.30339 0.81093 0.47016 0.0
C70 C 0.31482 0.75645 0.59803 0.0
O71 O 0.3313 0.76884 0.68071 0.0
O72 O 0.30072 0.77097 0.5156 0.0
C73 C 0.33278 0.79874 0.97982 0.0
O74 O 0.3272 0.77314 0.93252 0.0
C75 C 0.31125 0.79476 0.20818 0.0
C76 C 0.30007 0.83419 0.09934 0.0
C77 C 0.31477 0.8084 0.08939 0.0
N78 N 0.29643 0.81237 0.28805 0.0
N79 N 0.28935 0.83574 0.22186 0.0
C80 C 0.32736 0.76866 0.25409 0.0
H81 H 0.3121 0.75279 0.29362 0.0
H82 H 0.34162 0.77422 0.33674 0.0
H83 H 0.34026 0.7586 0.17509 0.0
C84 C 0.35778 0.86321 0.56133 0.0
N85 N 0.34681 0.83687 0.58915 0.0
N86 N 0.34314 0.82355 0.4781 0.0
C87 C 0.35632 0.83813 0.37991 0.0
C88 C 0.36402 0.86505 0.42543 0.0
C89 C 0.35817 0.88687 0.65977 0.0
H90 H 0.33859 0.88562 0.72172 0.0
H91 H 0.37686 0.8839 0.72564 0.0
H92 H 0.35905 0.90807 0.61094 0.0
O93 O 0.29391 0.82238 0.77732 0.0
O94 O 0.27217 0.83072 0.59036 0.0
H95 H 0.36521 0.81974 0.19021 0.0
H96 H 0.39603 0.83482 0.26736 0.0
C97 C 0.37583 0.82269 0.28534 0.0
H98 H 0.3819 0.80126 0.32417 0.0
H99 H 0.28013 0.85399 0.26392 0.0
O100 O 0.34561 0.81715 0.90759 0.0
C101 C 0.27206 0.83062 0.71661 0.0
Co102 Co 0.43286 0.08185 0.97812 0.0
Co103 Co 0.43391 0.05315 0.72002 0.0
C104 C 0.48836 0.0647 0.84788 0.0
O105 O 0.47595 0.08116 0.93055 0.0
O106 O 0.47388 0.05057 0.76544 0.0
C107 C 0.44602 0.08254 0.22966 0.0
O108 O 0.47161 0.07697 0.18229 0.0
C109 C 0.45004 0.061 0.45799 0.0
C110 C 0.41059 0.04982 0.34933 0.0
C111 C 0.43638 0.06453 0.33927 0.0
N112 N 0.43246 0.04617 0.53792 0.0
N113 N 0.40907 0.03909 0.47184 0.0
C114 C 0.47614 0.07712 0.5038 0.0
H115 H 0.49201 0.06186 0.54338 0.0
H116 H 0.47059 0.09139 0.5864 0.0
H117 H 0.4862 0.09001 0.42475 0.0
C118 C 0.38156 0.10754 0.81116 0.0
N119 N 0.40789 0.09656 0.83899 0.0
N120 N 0.42121 0.09287 0.72794 0.0
C121 C 0.40664 0.10606 0.62973 0.0
C122 C 0.37972 0.11378 0.67526 0.0
C123 C 0.35791 0.10799 0.90964 0.0
H124 H 0.35912 0.08841 0.97161 0.0
H125 H 0.36092 0.12668 0.9755 0.0
H126 H 0.3367 0.10891 0.86086 0.0
O127 O 0.42248 0.04368 0.02717 0.0
O128 O 0.41421 0.02189 0.84027 0.0
H129 H 0.42503 0.11495 0.44004 0.0
H130 H 0.40997 0.14577 0.51721 0.0
C131 C 0.4221 0.12557 0.53518 0.0
H132 H 0.44352 0.13163 0.57403 0.0
H133 H 0.39083 0.02987 0.51396 0.0
O134 O 0.4276 0.09537 0.15747 0.0
C135 C 0.4143 0.02179 0.96653 0.0
Co136 Co 0.18181 0.82848 0.78384 0.0
Co137 Co 0.21208 0.81967 0.04729 0.0
C138 C 0.1849 0.76995 0.92225 0.0
O139 O 0.17568 0.78592 0.82927 0.0
O140 O 0.20029 0.78003 0.01504 0.0
C141 C 0.18739 0.81805 0.53658 0.0
O142 O 0.19547 0.79398 0.59248 0.0
C143 C 0.21643 0.81091 0.32538 0.0
C144 C 0.20696 0.8558 0.37977 0.0
C145 C 0.20395 0.82779 0.42198 0.0
N146 N 0.22348 0.82785 0.22387 0.0
N147 N 0.21945 0.85484 0.26092 0.0
C148 C 0.22225 0.77936 0.33066 0.0
H149 H 0.22638 0.77057 0.23159 0.0
H150 H 0.20445 0.76796 0.38023 0.0
H151 H 0.24186 0.77579 0.39046 0.0
C152 C 0.14528 0.86929 0.95719 0.0
N153 N 0.16785 0.852 0.9281 0.0
N154 N 0.17727 0.84127 0.03829 0.0
C155 C 0.15861 0.84729 0.13617 0.0
C156 C 0.13927 0.86787 0.0936 0.0
C157 C 0.12931 0.88549 0.85497 0.0
H158 H 0.14403 0.89157 0.77392 0.0
H159 H 0.11218 0.87166 0.81337 0.0
H160 H 0.11988 0.90489 0.89927 0.0
O161 O 0.22196 0.83594 0.73801 0.0
O162 O 0.24546 0.82828 0.91968 0.0
H163 H 0.15007 0.83302 0.3334 0.0
H164 H 0.12746 0.81774 0.21284 0.0
C165 C 0.14993 0.82458 0.23283 0.0
H166 H 0.16377 0.80528 0.22456 0.0
H167 H 0.22103 0.87239 0.19763 0.0
O168 O 0.1714 0.83553 0.60091 0.0
C169 C 0.24539 0.83376 0.79684 0.0
Co170 Co 0.41673 0.93155 0.03383 0.0
Co171 Co 0.42545 0.96186 0.29727 0.0
C172 C 0.47525 0.93479 0.17224 0.0
O173 O 0.4593 0.92552 0.07927 0.0
O174 O 0.46512 0.95016 0.26498 0.0
C175 C 0.42716 0.93717 0.78657 0.0
O176 O 0.45121 0.94531 0.84248 0.0
C177 C 0.43422 0.96622 0.57536 0.0
C178 C 0.38936 0.95665 0.62979 0.0
C179 C 0.41737 0.9537 0.67197 0.0
N180 N 0.41726 0.97324 0.47386 0.0
N181 N 0.39028 0.96915 0.51095 0.0
C182 C 0.46576 0.97213 0.58061 0.0
H183 H 0.47454 0.97626 0.48152 0.0
H184 H 0.4772 0.95437 0.63026 0.0
H185 H 0.46928 0.99176 0.64032 0.0
C186 C 0.37604 0.89491 0.20718 0.0
N187 N 0.39325 0.91753 0.1781 0.0
N188 N 0.40395 0.92699 0.2883 0.0
C189 C 0.39797 0.90831 0.38619 0.0
C190 C 0.37746 0.88891 0.34359 0.0
C191 C 0.3599 0.8789 0.10494 0.0
H192 H 0.35379 0.89359 0.02385 0.0
H193 H 0.37378 0.8618 0.0634 0.0
H194 H 0.34052 0.86942 0.14921 0.0
O195 O 0.40917 0.97167 0.988 0.0
O196 O 0.41674 0.99522 0.16964 0.0
H197 H 0.41228 0.89982 0.58341 0.0
H198 H 0.42761 0.87724 0.46285 0.0
C199 C 0.42071 0.89969 0.48283 0.0
H200 H 0.43998 0.91359 0.47454 0.0
H201 H 0.37272 0.97068 0.44768 0.0
O202 O 0.40971 0.92113 0.85088 0.0
C203 C 0.41125 0.99512 0.04681 0.0
Co204 Co 0.31331 0.1666 0.28367 0.0
Co205 Co 0.28302 0.17538 0.54712 0.0
C206 C 0.3102 0.22512 0.42206 0.0
O207 O 0.31944 0.20916 0.3291 0.0
O208 O 0.29481 0.21503 0.5148 0.0
C209 C 0.30773 0.17704 0.03641 0.0
O210 O 0.29965 0.20111 0.0923 0.0
C211 C 0.27869 0.18417 0.82521 0.0
C212 C 0.28815 0.13929 0.87965 0.0
C213 C 0.29117 0.16729 0.92183 0.0
N214 N 0.27163 0.16722 0.72373 0.0
N215 N 0.27565 0.14024 0.76082 0.0
C216 C 0.27289 0.21573 0.83042 0.0
H217 H 0.26877 0.22451 0.73134 0.0
H218 H 0.29069 0.22712 0.87999 0.0
H219 H 0.25328 0.21931 0.89019 0.0
C220 C 0.34987 0.12583 0.45702 0.0
N221 N 0.32728 0.14309 0.42794 0.0
N222 N 0.31784 0.1538 0.53815 0.0
C223 C 0.33651 0.1478 0.63602 0.0
C224 C 0.35588 0.12725 0.59343 0.0
C225 C 0.36587 0.10968 0.35477 0.0
H226 H 0.35117 0.10359 0.27368 0.0
H227 H 0.38299 0.12354 0.31323 0.0
H228 H 0.37533 0.09028 0.39902 0.0
O229 O 0.27316 0.15915 0.23787 0.0
O230 O 0.24964 0.16675 0.41955 0.0
H231 H 0.34504 0.1621 0.83322 0.0
H232 H 0.36764 0.17738 0.71263 0.0
C233 C 0.34518 0.17052 0.73262 0.0
H234 H 0.33132 0.18982 0.72429 0.0
H235 H 0.27407 0.12268 0.69755 0.0
O236 O 0.32372 0.15955 0.10074 0.0
C237 C 0.24972 0.16128 0.2967 0.0
Co238 Co 0.0781 0.06356 0.53376 0.0
Co239 Co 0.06946 0.03325 0.79724 0.0
C240 C 0.01959 0.06021 0.67221 0.0
O241 O 0.03552 0.06952 0.57922 0.0
O242 O 0.02976 0.04487 0.76497 0.0
C243 C 0.06768 0.05793 0.28651 0.0
O244 O 0.04364 0.04976 0.3424 0.0
C245 C 0.06068 0.02886 0.0753 0.0
C246 C 0.10552 0.03849 0.12982 0.0
C247 C 0.0775 0.04141 0.17194 0.0
N248 N 0.07766 0.02187 0.97384 0.0
N249 N 0.10463 0.026 0.01097 0.0
C250 C 0.02916 0.02287 0.08058 0.0
H251 H 0.02039 0.01872 0.98149 0.0
H252 H 0.01767 0.0406 0.13026 0.0
H253 H 0.0257 0.00323 0.14027 0.0
C254 C 0.1188 0.10025 0.70697 0.0
N255 N 0.10158 0.07763 0.67797 0.0
N256 N 0.09093 0.06815 0.78823 0.0
C257 C 0.09693 0.08682 0.88611 0.0
C258 C 0.11743 0.10623 0.84341 0.0
C259 C 0.13487 0.1163 0.60459 0.0
H260 H 0.14096 0.10162 0.52341 0.0
H261 H 0.12094 0.13338 0.56324 0.0
H262 H 0.15426 0.1258 0.64866 0.0
O263 O 0.08571 0.02345 0.48797 0.0
O264 O 0.07822 -0.0001 0.66967 0.0
H265 H 0.08266 0.09529 0.08341 0.0
H266 H 0.06732 0.11789 0.96297 0.0
C267 C 0.07422 0.09543 0.98286 0.0
H268 H 0.05494 0.08154 0.97461 0.0
H269 H 0.12219 0.02449 0.94773 0.0
O270 O 0.0851 0.074 0.35082 0.0
C271 C 0.08368 0.0 0.54681 0.0
Co272 Co 0.83191 0.81181 0.79034 0.0
Co273 Co 0.80323 0.81081 0.04842 0.0
C274 C 0.81466 0.75633 0.92059 0.0
O275 O 0.83114 0.76872 0.8379 0.0
O276 O 0.80056 0.77084 1.00303 0.0
C277 C 0.83255 0.79867 0.53882 0.0
O278 O 0.82689 0.7731 0.58621 0.0
C279 C 0.81103 0.79469 0.31046 0.0
C280 C 0.79993 0.83417 0.41906 0.0
C281 C 0.81458 0.80835 0.42915 0.0
N282 N 0.79624 0.8123 0.23049 0.0
N283 N 0.78921 0.8357 0.29653 0.0
C284 C 0.82709 0.76854 0.26471 0.0
H285 H 0.81179 0.75272 0.22511 0.0
H286 H 0.84138 0.77406 0.18214 0.0
H287 H 0.83994 0.75845 0.3438 0.0
C288 C 0.85773 0.86304 0.95729 0.0
N289 N 0.84669 0.83674 0.92945 0.0
N290 N 0.84298 0.82342 0.04049 0.0
C291 C 0.85622 0.83795 0.13868 0.0
C292 C 0.86401 0.86485 0.09318 0.0
C293 C 0.85818 0.8867 0.85888 0.0
H294 H 0.8386 0.88549 0.79686 0.0
H295 H 0.87687 0.88373 0.79305 0.0
H296 H 0.85907 0.9079 0.90776 0.0
O297 O 0.79375 0.82227 0.74131 0.0
O298 O 0.77199 0.83059 0.92825 0.0
H299 H 0.86507 0.81948 0.32826 0.0
H300 H 0.89592 0.83452 0.2512 0.0
C301 C 0.8757 0.82243 0.23315 0.0
H302 H 0.88172 0.80101 0.19417 0.0
H303 H 0.78002 0.85396 0.25437 0.0
O304 O 0.84543 0.81706 0.61098 0.0
C305 C 0.77189 0.83051 0.80199 0.0
Co306 Co 0.93269 0.08169 0.54024 0.0
Co307 Co 0.93381 0.053 0.79833 0.0
C308 C 0.98825 0.0647 0.67051 0.0
O309 O 0.97578 0.08112 0.58782 0.0
O310 O 0.9738 0.05052 0.75293 0.0
C311 C 0.94583 0.08239 0.28872 0.0
O312 O 0.97142 0.07684 0.33612 0.0
C313 C 0.94991 0.06087 0.06039 0.0
C314 C 0.91046 0.04964 0.16894 0.0
C315 C 0.93622 0.06437 0.17906 0.0
N316 N 0.93235 0.04601 0.98041 0.0
N317 N 0.90897 0.0389 0.04643 0.0
C318 C 0.97598 0.07704 0.01463 0.0
H319 H 0.99187 0.0618 0.97502 0.0
H320 H 0.97041 0.09131 0.93204 0.0
H321 H 0.98602 0.08993 0.09371 0.0
C322 C 0.88136 0.10732 0.70716 0.0
N323 N 0.90769 0.09636 0.67934 0.0
N324 N 0.92102 0.09269 0.79039 0.0
C325 C 0.90644 0.10587 0.88859 0.0
C326 C 0.87951 0.11356 0.84306 0.0
C327 C 0.85771 0.10776 0.60867 0.0
H328 H 0.85892 0.08817 0.54674 0.0
H329 H 0.86072 0.12645 0.54278 0.0
H330 H 0.8365 0.10868 0.65745 0.0
O331 O 0.9224 0.04349 0.49121 0.0
O332 O 0.91418 0.02169 0.67814 0.0
H333 H 0.92482 0.11478 0.07828 0.0
H334 H 0.90972 0.14558 1.00112 0.0
C335 C 0.92187 0.12539 0.98314 0.0
H336 H 0.94329 0.13148 0.94429 0.0
H337 H 0.89075 0.02965 1.00426 0.0
O338 O 0.92739 0.09519 0.36088 0.0
C339 C 0.91427 0.02159 0.55189 0.0
Co340 Co 0.66288 0.18299 0.29019 0.0
Co341 Co 0.69155 0.18398 0.54829 0.0
C342 C 0.68012 0.23845 0.42042 0.0
O343 O 0.66364 0.22607 0.33774 0.0
O344 O 0.69422 0.22394 0.50286 0.0
C345 C 0.66216 0.19617 0.03863 0.0
O346 O 0.66774 0.22177 0.08593 0.0
C347 C 0.68369 0.20015 0.81027 0.0
C348 C 0.69487 0.16072 0.91911 0.0
C349 C 0.68017 0.18651 0.92906 0.0
N350 N 0.69852 0.18254 0.7304 0.0
N351 N 0.70559 0.15917 0.79659 0.0
C352 C 0.66758 0.22624 0.76437 0.0
H353 H 0.68284 0.24211 0.72483 0.0
H354 H 0.65332 0.22069 0.68171 0.0
H355 H 0.65468 0.2363 0.84336 0.0
C356 C 0.63717 0.1317 0.45712 0.0
N357 N 0.64813 0.15803 0.4293 0.0
N358 N 0.6518 0.17136 0.54035 0.0
C359 C 0.63862 0.15678 0.63854 0.0
C360 C 0.63092 0.12986 0.59302 0.0
C361 C 0.63677 0.10804 0.35869 0.0
H362 H 0.65635 0.10928 0.29673 0.0
H363 H 0.61808 0.111 0.29281 0.0
H364 H 0.63589 0.08683 0.40752 0.0
O365 O 0.70103 0.17253 0.24113 0.0
O366 O 0.72277 0.16419 0.4281 0.0
H367 H 0.62973 0.17516 0.82824 0.0
H368 H 0.59891 0.16008 0.75109 0.0
C369 C 0.61911 0.17222 0.73311 0.0
H370 H 0.61304 0.19365 0.69429 0.0
H371 H 0.71481 0.14092 0.75453 0.0
O372 O 0.64933 0.17776 0.11086 0.0
C373 C 0.72288 0.16428 0.30184 0.0
Co374 Co 0.56208 0.91306 0.04034 0.0
Co375 Co 0.56103 0.94175 0.29843 0.0
C376 C 0.50658 0.93021 0.17057 0.0
O377 O 0.51899 0.91375 0.0879 0.0
O378 O 0.52106 0.94434 0.25301 0.0
C379 C 0.54892 0.91236 0.7888 0.0
O380 O 0.52333 0.91794 0.83616 0.0
C381 C 0.5449 0.9339 0.56047 0.0
C382 C 0.58435 0.94508 0.66913 0.0
C383 C 0.55856 0.93038 0.67918 0.0
N384 N 0.56248 0.94874 0.48053 0.0
N385 N 0.58587 0.95581 0.54662 0.0
C386 C 0.5188 0.91778 0.51465 0.0
H387 H 0.50293 0.93305 0.47507 0.0
H388 H 0.52435 0.90351 0.43205 0.0
H389 H 0.50874 0.9049 0.5937 0.0
C390 C 0.61338 0.88736 0.20729 0.0
N391 N 0.58705 0.89835 0.17946 0.0
N392 N 0.57373 0.90203 0.29051 0.0
C393 C 0.5883 0.88884 0.38872 0.0
C394 C 0.61522 0.88112 0.3432 0.0
C395 C 0.63703 0.88692 0.10881 0.0
H396 H 0.63582 0.9065 0.04684 0.0
H397 H 0.63402 0.86823 0.04295 0.0
H398 H 0.65824 0.886 0.15759 0.0
O399 O 0.57246 0.95123 0.99128 0.0
O400 O 0.58073 0.97302 0.17818 0.0
H401 H 0.56991 0.87995 0.57841 0.0
H402 H 0.58497 0.84913 0.50124 0.0
C403 C 0.57284 0.86934 0.48327 0.0
H404 H 0.55142 0.86327 0.44443 0.0
H405 H 0.60411 0.96504 0.50449 0.0
O406 O 0.56734 0.89954 0.86098 0.0
C407 C 0.58064 0.97312 0.05193 0.0
Co408 Co 0.81313 0.16643 0.23461 0.0
Co409 Co 0.78286 0.17523 0.97116 0.0
C410 C 0.81004 0.22496 0.0962 0.0
O411 O 0.81926 0.20899 0.18918 0.0
O412 O 0.79465 0.21487 1.00341 0.0
C413 C 0.80755 0.17686 0.48187 0.0
O414 O 0.79947 0.20093 0.42597 0.0
C415 C 0.77851 0.184 0.69307 0.0
C416 C 0.78798 0.13911 0.63869 0.0
C417 C 0.79099 0.16712 0.59647 0.0
N418 N 0.77146 0.16706 0.79458 0.0
N419 N 0.77549 0.14007 0.75753 0.0
C420 C 0.77269 0.21555 0.68779 0.0
H421 H 0.76856 0.22434 0.78686 0.0
H422 H 0.79049 0.22695 0.63822 0.0
H423 H 0.75308 0.21912 0.62799 0.0
C424 C 0.84966 0.12562 0.06126 0.0
N425 N 0.82709 0.14291 0.09036 0.0
N426 N 0.81767 0.15364 0.98016 0.0
C427 C 0.83633 0.14761 0.88228 0.0
C428 C 0.85567 0.12704 0.92486 0.0
C429 C 0.86563 0.10942 0.16348 0.0
H430 H 0.85091 0.10334 0.24453 0.0
H431 H 0.88276 0.12325 0.20508 0.0
H432 H 0.87506 0.09002 0.11919 0.0
O433 O 0.77299 0.15897 0.28044 0.0
O434 O 0.74948 0.16663 0.09877 0.0
H435 H 0.84487 0.16189 0.68505 0.0
H436 H 0.86748 0.17717 0.80561 0.0
C437 C 0.84501 0.17032 0.78563 0.0
H438 H 0.83117 0.18963 0.7939 0.0
H439 H 0.77391 0.12252 0.82083 0.0
O440 O 0.82354 0.15937 0.41754 0.0
C441 C 0.74955 0.16114 0.22161 0.0
Co442 Co 0.57821 0.06335 0.98463 0.0
Co443 Co 0.56949 0.03305 0.72119 0.0
C444 C 0.51969 0.06012 0.84621 0.0
O445 O 0.53564 0.06939 0.93918 0.0
O446 O 0.52982 0.04474 0.75347 0.0
C447 C 0.56778 0.05774 0.23188 0.0
O448 O 0.54373 0.0496 0.17597 0.0
C449 C 0.56072 0.02868 0.44309 0.0
C450 C 0.60558 0.03825 0.38866 0.0
C451 C 0.57757 0.04121 0.34648 0.0
N452 N 0.57768 0.02167 0.54459 0.0
N453 N 0.60466 0.02576 0.5075 0.0
C454 C 0.52918 0.02278 0.43784 0.0
H455 H 0.5204 0.01864 0.53693 0.0
H456 H 0.51774 0.04054 0.3882 0.0
H457 H 0.52566 0.00315 0.37813 0.0
C458 C 0.6189 0.1 0.81127 0.0
N459 N 0.60169 0.07737 0.84035 0.0
N460 N 0.591 0.06792 0.73015 0.0
C461 C 0.59697 0.08659 0.63226 0.0
C462 C 0.61748 0.10599 0.67486 0.0
C463 C 0.63504 0.11601 0.91351 0.0
H464 H 0.64115 0.10132 0.9946 0.0
H465 H 0.62116 0.13311 0.95505 0.0
H466 H 0.65442 0.12549 0.86924 0.0
O467 O 0.58577 0.02324 0.03045 0.0
O468 O 0.5782 -0.00031 0.84881 0.0
H469 H 0.58266 0.09509 0.43504 0.0
H470 H 0.56733 0.11766 0.55561 0.0
C471 C 0.57423 0.09521 0.53562 0.0
H472 H 0.55496 0.08132 0.54391 0.0
H473 H 0.62222 0.02422 0.57077 0.0
O474 O 0.58523 0.07378 0.16757 0.0
C475 C 0.58369 -0.00021 0.97164 0.0
Co476 Co 0.68163 0.82831 0.73478 0.0
Co477 Co 0.71192 0.81952 0.47133 0.0
C478 C 0.68474 0.76979 0.59639 0.0
O479 O 0.6755 0.78575 0.68935 0.0
O480 O 0.70013 0.77988 0.50365 0.0
C481 C 0.68721 0.81787 0.98204 0.0
O482 O 0.69529 0.7938 0.92615 0.0
C483 C 0.71625 0.81073 0.19324 0.0
C484 C 0.70679 0.85562 0.1388 0.0
C485 C 0.70377 0.82761 0.09663 0.0
N486 N 0.72331 0.82768 0.29472 0.0
N487 N 0.71929 0.85467 0.25763 0.0
C488 C 0.72205 0.77918 0.18803 0.0
H489 H 0.72617 0.77039 0.28711 0.0
H490 H 0.70425 0.76779 0.13846 0.0
H491 H 0.74166 0.77559 0.12826 0.0
C492 C 0.64507 0.86907 0.56143 0.0
N493 N 0.66766 0.85182 0.59051 0.0
N494 N 0.6771 0.84111 0.48031 0.0
C495 C 0.65843 0.84711 0.38243 0.0
C496 C 0.63906 0.86765 0.42502 0.0
C497 C 0.62907 0.88523 0.66369 0.0
H498 H 0.64377 0.89132 0.74477 0.0
H499 H 0.61195 0.87136 0.70522 0.0
H500 H 0.61961 0.90462 0.61943 0.0
O501 O 0.72178 0.83575 0.78059 0.0
O502 O 0.7453 0.82816 0.5989 0.0
H503 H 0.6499 0.8328 0.18523 0.0
H504 H 0.6273 0.81753 0.30583 0.0
C505 C 0.64976 0.82438 0.28583 0.0
H506 H 0.66362 0.80508 0.29416 0.0
H507 H 0.72087 0.87223 0.3209 0.0
O508 O 0.67122 0.83536 0.91771 0.0
C509 C 0.74522 0.83363 0.72175 0.0
Co510 Co 0.91684 0.93135 0.48469 0.0
Co511 Co 0.92548 0.96166 0.22121 0.0
C512 C 0.97535 0.93469 0.34624 0.0
O513 O 0.95942 0.92539 0.43923 0.0
O514 O 0.96518 0.95003 0.25348 0.0
C515 C 0.92726 0.93697 0.73195 0.0
O516 O 0.9513 0.94515 0.67605 0.0
C517 C 0.93426 0.96604 0.94316 0.0
C518 C 0.88942 0.95641 0.88863 0.0
C519 C 0.91744 0.9535 0.84651 0.0
N520 N 0.91728 0.97303 0.04462 0.0
N521 N 0.89031 0.96891 1.00748 0.0
C522 C 0.96578 0.97203 0.93787 0.0
H523 H 0.97455 0.97619 0.03696 0.0
H524 H 0.97727 0.95431 0.88819 0.0
H525 H 0.96924 0.99168 0.87818 0.0
C526 C 0.87614 0.89466 0.31148 0.0
N527 N 0.89336 0.91728 0.34048 0.0
N528 N 0.90401 0.92676 0.23022 0.0
C529 C 0.89801 0.90809 0.13234 0.0
C530 C 0.87751 0.88868 0.17504 0.0
C531 C 0.86007 0.87861 0.41386 0.0
H532 H 0.85398 0.89328 0.49504 0.0
H533 H 0.874 0.86152 0.45521 0.0
H534 H 0.84068 0.86911 0.3698 0.0
O535 O 0.90923 0.97146 0.53048 0.0
O536 O 0.91672 0.99501 0.34879 0.0
H537 H 0.91228 0.89962 0.93504 0.0
H538 H 0.92762 0.87702 0.05549 0.0
C539 C 0.92072 0.89947 0.03559 0.0
H540 H 0.94 0.91337 0.04384 0.0
H541 H 0.87275 0.97042 0.07072 0.0
O542 O 0.90984 0.92091 0.66763 0.0
C543 C 0.91126 0.99491 0.47164 0.0
Co544 Co 0.66287 0.68299 0.7283 0.0
Co545 Co 0.69154 0.68399 0.47019 0.0
C546 C 0.6801 0.73846 0.59806 0.0
O547 O 0.66363 0.72607 0.68075 0.0
O548 O 0.6942 0.72396 0.51561 0.0
C549 C 0.66215 0.69617 0.97985 0.0
O550 O 0.66772 0.72177 0.93254 0.0
C551 C 0.68368 0.70016 0.2082 0.0
C552 C 0.69486 0.66073 0.0994 0.0
C553 C 0.68016 0.68651 0.08943 0.0
N554 N 0.69851 0.68255 0.28808 0.0
N555 N 0.70558 0.65918 0.22192 0.0
C556 C 0.66757 0.72626 0.25408 0.0
H557 H 0.68284 0.74212 0.29362 0.0
H558 H 0.65331 0.7207 0.33673 0.0
H559 H 0.65468 0.73632 0.17508 0.0
C560 C 0.63714 0.63171 0.56134 0.0
N561 N 0.64812 0.65804 0.58917 0.0
N562 N 0.65179 0.67137 0.47814 0.0
C563 C 0.6386 0.6568 0.37994 0.0
C564 C 0.63089 0.62988 0.42544 0.0
C565 C 0.63675 0.60805 0.65975 0.0
H566 H 0.65633 0.60929 0.72172 0.0
H567 H 0.61805 0.61101 0.72563 0.0
H568 H 0.63587 0.58684 0.6109 0.0
O569 O 0.70102 0.67254 0.77735 0.0
O570 O 0.72277 0.66422 0.59038 0.0
H571 H 0.62971 0.67521 0.19028 0.0
H572 H 0.59889 0.66012 0.26742 0.0
C573 C 0.61909 0.67226 0.28541 0.0
H574 H 0.61302 0.69368 0.32429 0.0
H575 H 0.7148 0.64093 0.26399 0.0
O576 O 0.64932 0.67776 0.90763 0.0
C577 C 0.72288 0.6643 0.71664 0.0
Co578 Co 0.56213 0.41308 0.97814 0.0
Co579 Co 0.56107 0.44178 0.72003 0.0
C580 C 0.50662 0.4302 0.84789 0.0
O581 O 0.51904 0.41375 0.93056 0.0
O582 O 0.5211 0.44434 0.76545 0.0
C583 C 0.54897 0.41239 0.22967 0.0
O584 O 0.52339 0.41797 0.1823 0.0
C585 C 0.54495 0.43393 0.458 0.0
C586 C 0.5844 0.44511 0.34937 0.0
C587 C 0.55862 0.4304 0.33929 0.0
N588 N 0.56253 0.44876 0.53794 0.0
N589 N 0.58592 0.45584 0.47187 0.0
C590 C 0.51885 0.41781 0.5038 0.0
H591 H 0.50298 0.43307 0.54338 0.0
H592 H 0.5244 0.40353 0.5864 0.0
H593 H 0.50879 0.40492 0.42475 0.0
C594 C 0.61343 0.38738 0.81121 0.0
N595 N 0.58711 0.39838 0.83902 0.0
N596 N 0.57379 0.40206 0.72797 0.0
C597 C 0.58836 0.38887 0.62977 0.0
C598 C 0.61527 0.38114 0.67531 0.0
C599 C 0.63707 0.38691 0.90972 0.0
H600 H 0.63587 0.4065 0.97171 0.0
H601 H 0.63405 0.36822 0.97557 0.0
H602 H 0.65829 0.38599 0.86097 0.0
O603 O 0.57249 0.45125 0.02718 0.0
O604 O 0.58075 0.47306 0.84029 0.0
H605 H 0.56997 0.37999 0.44007 0.0
H606 H 0.58503 0.34916 0.51724 0.0
C607 C 0.5729 0.36937 0.53521 0.0
H608 H 0.55148 0.36331 0.57405 0.0
H609 H 0.60415 0.46506 0.51401 0.0
O610 O 0.5674 0.39956 0.1575 0.0
C611 C 0.58066 0.47315 0.96654 0.0
Co612 Co 0.83195 0.31175 0.22818 0.0
Co613 Co 0.80327 0.31077 0.9701 0.0
C614 C 0.81468 0.25629 0.09792 0.0
O615 O 0.83116 0.26866 0.18062 0.0
O616 O 0.80058 0.2708 0.0155 0.0
C617 C 0.83259 0.29861 0.4797 0.0
O618 O 0.82691 0.27304 0.43231 0.0
C619 C 0.81107 0.29464 0.70807 0.0
C620 C 0.79997 0.33412 0.59945 0.0
C621 C 0.81462 0.3083 0.58937 0.0
N622 N 0.79628 0.31226 0.78803 0.0
N623 N 0.78926 0.33566 0.72198 0.0
C624 C 0.82712 0.26849 0.75382 0.0
H625 H 0.81181 0.25267 0.79342 0.0
H626 H 0.84141 0.274 0.8364 0.0
H627 H 0.83996 0.2584 0.67474 0.0
C628 C 0.8578 0.36297 0.06124 0.0
N629 N 0.84674 0.33668 0.08907 0.0
N630 N 0.84303 0.32336 0.97803 0.0
C631 C 0.85628 0.33789 0.87984 0.0
C632 C 0.86407 0.36479 0.92535 0.0
C633 C 0.85824 0.38664 0.15965 0.0
H634 H 0.83867 0.38542 0.22171 0.0
H635 H 0.87694 0.38366 0.22545 0.0
H636 H 0.85912 0.40784 0.11078 0.0
O637 O 0.79379 0.32223 0.27721 0.0
O638 O 0.77204 0.33056 0.09027 0.0
H639 H 0.86511 0.31941 0.69027 0.0
H640 H 0.89597 0.33445 0.7673 0.0
C641 C 0.87574 0.32237 0.78537 0.0
H642 H 0.88177 0.30094 0.82436 0.0
H643 H 0.78007 0.35392 0.76413 0.0
O644 O 0.84547 0.31699 0.40753 0.0
C645 C 0.77194 0.33047 0.21652 0.0
Co646 Co 0.93265 0.58166 0.47822 0.0
Co647 Co 0.93378 0.55297 0.22015 0.0
C648 C 0.98821 0.56468 0.34793 0.0
O649 O 0.97574 0.5811 0.43062 0.0
O650 O 0.97376 0.5505 0.26553 0.0
C651 C 0.94577 0.58233 0.72972 0.0
O652 O 0.97135 0.57675 0.68228 0.0
C653 C 0.94985 0.56082 0.95807 0.0
C654 C 0.91038 0.5496 0.8496 0.0
C655 C 0.93615 0.56433 0.83942 0.0
N656 N 0.9323 0.54597 0.03808 0.0
N657 N 0.9089 0.53887 0.97211 0.0
C658 C 0.97594 0.57697 1.00376 0.0
H659 H 0.99181 0.56172 0.04339 0.0
H660 H 0.97038 0.59125 0.08632 0.0
H661 H 0.98598 0.58985 0.92464 0.0
C662 C 0.88133 0.60732 0.31128 0.0
N663 N 0.90765 0.59633 0.33911 0.0
N664 N 0.92098 0.59266 0.22807 0.0
C665 C 0.90641 0.60585 0.12986 0.0
C666 C 0.8795 0.61357 0.17538 0.0
C667 C 0.85768 0.60778 0.40976 0.0
H668 H 0.85888 0.58819 0.47171 0.0
H669 H 0.86069 0.62646 0.47563 0.0
H670 H 0.83647 0.6087 0.36096 0.0
O671 O 0.92236 0.54346 0.52724 0.0
O672 O 0.91415 0.52165 0.34034 0.0
H673 H 0.92482 0.61475 0.94021 0.0
H674 H 0.90973 0.64556 0.01734 0.0
C675 C 0.92187 0.62536 0.03535 0.0
H676 H 0.94328 0.63145 0.07425 0.0
H677 H 0.89069 0.52962 0.01432 0.0
O678 O 0.92734 0.59515 0.65758 0.0
C679 C 0.91424 0.52155 0.46659 0.0
Co680 Co 0.68168 0.3283 0.28374 0.0
Co681 Co 0.71195 0.3195 0.54718 0.0
C682 C 0.68476 0.26978 0.42212 0.0
O683 O 0.67553 0.28575 0.32915 0.0
O684 O 0.70016 0.27986 0.51486 0.0
C685 C 0.68725 0.31786 0.03648 0.0
O686 O 0.69532 0.29379 0.09237 0.0
C687 C 0.71628 0.31071 0.82527 0.0
C688 C 0.70684 0.35561 0.87969 0.0
C689 C 0.70381 0.3276 0.92188 0.0
N690 N 0.72335 0.32766 0.72378 0.0
N691 N 0.71934 0.35465 0.76085 0.0
C692 C 0.72206 0.27916 0.83049 0.0
H693 H 0.72619 0.27037 0.73141 0.0
H694 H 0.70424 0.26778 0.88001 0.0
H695 H 0.74166 0.27555 0.8903 0.0
C696 C 0.64512 0.36908 0.45709 0.0
N697 N 0.66771 0.35182 0.42801 0.0
N698 N 0.67714 0.3411 0.53821 0.0
C699 C 0.65847 0.34711 0.63608 0.0
C700 C 0.63912 0.36766 0.59349 0.0
C701 C 0.62914 0.38526 0.35483 0.0
H702 H 0.64384 0.39134 0.27376 0.0
H703 H 0.61202 0.3714 0.31328 0.0
H704 H 0.61969 0.40465 0.39909 0.0
O705 O 0.72182 0.33574 0.23792 0.0
O706 O 0.74534 0.32813 0.41961 0.0
H707 H 0.64995 0.33281 0.83329 0.0
H708 H 0.62733 0.31754 0.71271 0.0
C709 C 0.6498 0.32439 0.73269 0.0
H710 H 0.66364 0.30508 0.72435 0.0
H711 H 0.72093 0.3722 0.69758 0.0
O712 O 0.67127 0.33536 0.1008 0.0
C713 C 0.74526 0.3336 0.29676 0.0
Co714 Co 0.91687 0.43131 0.53381 0.0
Co715 Co 0.9255 0.46163 0.79728 0.0
C716 C 0.97538 0.4347 0.67224 0.0
O717 O 0.95946 0.42539 0.57926 0.0
O718 O 0.96521 0.45003 0.76502 0.0
C719 C 0.92729 0.43695 0.28656 0.0
O720 O 0.95132 0.44515 0.34246 0.0
C721 C 0.93427 0.46602 0.07533 0.0
C722 C 0.88944 0.45636 0.12985 0.0
C723 C 0.91746 0.45347 0.17198 0.0
N724 N 0.91729 0.473 0.97386 0.0
N725 N 0.89032 0.46886 0.01099 0.0
C726 C 0.96578 0.47205 0.08063 0.0
H727 H 0.97455 0.47621 0.98155 0.0
H728 H 0.97729 0.45433 0.13032 0.0
H729 H 0.96922 0.49169 0.14032 0.0
C730 C 0.8762 0.39459 0.70703 0.0
N731 N 0.89341 0.41723 0.67803 0.0
N732 N 0.90405 0.42671 0.78828 0.0
C733 C 0.89806 0.40804 0.88617 0.0
C734 C 0.87757 0.38862 0.84348 0.0
C735 C 0.86014 0.37854 0.60464 0.0
H736 H 0.85405 0.39321 0.52345 0.0
H737 H 0.87408 0.36146 0.56331 0.0
H738 H 0.84076 0.36902 0.6487 0.0
O739 O 0.90922 0.47142 0.48802 0.0
O740 O 0.91672 0.49497 0.66969 0.0
H741 H 0.91233 0.39958 0.08348 0.0
H742 H 0.92769 0.37699 0.96306 0.0
C743 C 0.92078 0.39944 0.98293 0.0
H744 H 0.94004 0.41335 0.97468 0.0
H745 H 0.87275 0.47035 0.94775 0.0
O746 O 0.90988 0.42087 0.35086 0.0
C747 C 0.91125 0.49487 0.54685 0.0
Co748 Co 0.81312 0.66648 0.78385 0.0
Co749 Co 0.78285 0.67527 0.04731 0.0
C750 C 0.81003 0.72501 0.92229 0.0
O751 O 0.81926 0.70904 0.8293 0.0
O752 O 0.79464 0.71491 0.01506 0.0
C753 C 0.80755 0.67692 0.53659 0.0
O754 O 0.79946 0.70099 0.59249 0.0
C755 C 0.7785 0.68404 0.32539 0.0
C756 C 0.78798 0.63916 0.37983 0.0
C757 C 0.79099 0.66717 0.42201 0.0
N758 N 0.77146 0.66709 0.2239 0.0
N759 N 0.77548 0.64011 0.26099 0.0
C760 C 0.77266 0.71559 0.33066 0.0
H761 H 0.76854 0.72438 0.23158 0.0
H762 H 0.79045 0.727 0.38028 0.0
H763 H 0.75304 0.71915 0.3904 0.0
C764 C 0.84966 0.62567 0.95716 0.0
N765 N 0.82709 0.64295 0.92809 0.0
N766 N 0.81767 0.65367 0.0383 0.0
C767 C 0.83632 0.64764 0.13618 0.0
C768 C 0.85566 0.62707 0.09357 0.0
C769 C 0.86564 0.60949 0.8549 0.0
H770 H 0.85094 0.60342 0.77382 0.0
H771 H 0.88277 0.62334 0.81335 0.0
H772 H 0.87508 0.59009 0.89913 0.0
O773 O 0.77298 0.65902 0.73803 0.0
O774 O 0.74947 0.66665 0.91971 0.0
H775 H 0.84486 0.66191 0.33342 0.0
H776 H 0.86748 0.67718 0.21287 0.0
C777 C 0.84501 0.67034 0.23284 0.0
H778 H 0.83117 0.68965 0.22457 0.0
H779 H 0.77391 0.62255 0.19772 0.0
O780 O 0.82354 0.65943 0.60092 0.0
C781 C 0.74955 0.66117 0.79687 0.0
Co782 Co 0.57817 0.56338 0.03383 0.0
Co783 Co 0.56946 0.53307 0.29727 0.0
C784 C 0.51965 0.56013 0.17223 0.0
O785 O 0.5356 0.56941 0.07926 0.0
O786 O 0.52979 0.54476 0.26497 0.0
C787 C 0.56774 0.55776 0.78657 0.0
O788 O 0.5437 0.54961 0.8425 0.0
C789 C 0.56069 0.5287 0.57536 0.0
C790 C 0.60555 0.53828 0.62981 0.0
C791 C 0.57753 0.54123 0.67198 0.0
N792 N 0.57765 0.52169 0.47387 0.0
N793 N 0.60463 0.52579 0.51096 0.0
C794 C 0.52915 0.52279 0.58062 0.0
H795 H 0.52038 0.51865 0.48153 0.0
H796 H 0.5177 0.54054 0.63027 0.0
H797 H 0.52564 0.50315 0.64033 0.0
C798 C 0.61886 0.60003 0.20718 0.0
N799 N 0.60164 0.57741 0.1781 0.0
N800 N 0.59096 0.56795 0.2883 0.0
C801 C 0.59693 0.58662 0.3862 0.0
C802 C 0.61744 0.60602 0.34359 0.0
C803 C 0.63498 0.61606 0.10491 0.0
H804 H 0.64109 0.60138 0.0238 0.0
H805 H 0.62109 0.63316 0.06343 0.0
H806 H 0.65436 0.62554 0.14916 0.0
O807 O 0.58575 0.52327 0.98802 0.0
O808 O 0.5782 0.49972 0.16966 0.0
H809 H 0.58264 0.59512 0.58343 0.0
H810 H 0.5673 0.61769 0.46287 0.0
C811 C 0.5742 0.59524 0.48285 0.0
H812 H 0.55493 0.58134 0.47457 0.0
H813 H 0.62219 0.52426 0.44769 0.0
O814 O 0.58518 0.57381 0.85087 0.0
C815 C 0.58368 0.49982 0.04683 0.0
Co816 Co 0.33207 0.31192 0.29015 0.0
Co817 Co 0.3034 0.31091 0.54827 0.0
C818 C 0.31484 0.25644 0.42039 0.0
O819 O 0.33131 0.26883 0.33771 0.0
O820 O 0.30074 0.27095 0.50284 0.0
C821 C 0.33279 0.29873 0.0386 0.0
O822 O 0.32722 0.27314 0.08591 0.0
C823 C 0.31126 0.29475 0.81025 0.0
C824 C 0.30008 0.33418 0.91905 0.0
C825 C 0.31478 0.30839 0.92902 0.0
N826 N 0.29643 0.31235 0.73037 0.0
N827 N 0.28936 0.33573 0.79653 0.0
C828 C 0.32737 0.26865 0.76437 0.0
H829 H 0.3121 0.25278 0.72483 0.0
H830 H 0.34163 0.2742 0.68172 0.0
H831 H 0.34026 0.25859 0.84337 0.0
C832 C 0.3578 0.36319 0.45711 0.0
N833 N 0.34682 0.33686 0.42928 0.0
N834 N 0.34315 0.32354 0.54032 0.0
C835 C 0.35634 0.33811 0.63851 0.0
C836 C 0.36405 0.36503 0.59301 0.0
C837 C 0.35819 0.38686 0.3587 0.0
H838 H 0.33861 0.38562 0.29674 0.0
H839 H 0.37689 0.3839 0.29282 0.0
H840 H 0.35907 0.40806 0.40755 0.0
O841 O 0.29392 0.32237 0.2411 0.0
O842 O 0.27217 0.33069 0.42807 0.0
H843 H 0.36523 0.3197 0.82817 0.0
H844 H 0.39605 0.33479 0.75103 0.0
C845 C 0.37585 0.32265 0.73304 0.0
H846 H 0.38192 0.30123 0.69416 0.0
H847 H 0.28014 0.35398 0.75446 0.0
O848 O 0.34562 0.31715 0.11082 0.0
C849 C 0.27206 0.3306 0.30181 0.0
Co850 Co 0.43281 0.58183 0.04031 0.0
Co851 Co 0.43387 0.55313 0.29842 0.0
C852 C 0.48832 0.5647 0.17056 0.0
O853 O 0.4759 0.58115 0.08789 0.0
O854 O 0.47384 0.55056 0.253 0.0
C855 C 0.44597 0.58252 0.78878 0.0
O856 O 0.47155 0.57694 0.83615 0.0
C857 C 0.44999 0.56098 0.56046 0.0
C858 C 0.41054 0.5498 0.66909 0.0
C859 C 0.43632 0.5645 0.67916 0.0
N860 N 0.43241 0.54614 0.48051 0.0
N861 N 0.40902 0.53907 0.54658 0.0
C862 C 0.47609 0.5771 0.51465 0.0
H863 H 0.49196 0.56184 0.47507 0.0
H864 H 0.47054 0.59137 0.43205 0.0
H865 H 0.48615 0.58998 0.59371 0.0
C866 C 0.38151 0.60753 0.20724 0.0
N867 N 0.40783 0.59653 0.17943 0.0
N868 N 0.42115 0.59284 0.29049 0.0
C869 C 0.40658 0.60604 0.38869 0.0
C870 C 0.37967 0.61376 0.34314 0.0
C871 C 0.35787 0.60799 0.10873 0.0
H872 H 0.35907 0.58841 0.04675 0.0
H873 H 0.36089 0.62668 0.04289 0.0
H874 H 0.33665 0.60892 0.15749 0.0
O875 O 0.42245 0.54365 0.99127 0.0
O876 O 0.41419 0.52185 0.17817 0.0
H877 H 0.42497 0.61492 0.57838 0.0
H878 H 0.40991 0.64574 0.50121 0.0
C879 C 0.42204 0.62554 0.48324 0.0
H880 H 0.44346 0.6316 0.4444 0.0
H881 H 0.39079 0.52984 0.50445 0.0
O882 O 0.42754 0.59534 0.86095 0.0
C883 C 0.41428 0.52176 0.05191 0.0
Co884 Co 0.16299 0.68315 0.79027 0.0
Co885 Co 0.19167 0.68413 0.04835 0.0
C886 C 0.18026 0.73862 0.92053 0.0
O887 O 0.16378 0.72624 0.83783 0.0
O888 O 0.19436 0.7241 1.00295 0.0
C889 C 0.16235 0.6963 0.53875 0.0
O890 O 0.16803 0.72187 0.58615 0.0
C891 C 0.18387 0.70027 0.31038 0.0
C892 C 0.19497 0.66079 0.41901 0.0
C893 C 0.18032 0.6866 0.42909 0.0
N894 N 0.19866 0.68265 0.23042 0.0
N895 N 0.20568 0.65924 0.29648 0.0
C896 C 0.16782 0.72641 0.26463 0.0
H897 H 0.18313 0.74224 0.22503 0.0
H898 H 0.15353 0.7209 0.18205 0.0
H899 H 0.15498 0.73651 0.34372 0.0
C900 C 0.13714 0.63193 0.95721 0.0
N901 N 0.1482 0.65823 0.92939 0.0
N902 N 0.15191 0.67155 0.04042 0.0
C903 C 0.13866 0.65702 0.13861 0.0
C904 C 0.13087 0.63012 0.0931 0.0
C905 C 0.1367 0.60827 0.8588 0.0
H906 H 0.15627 0.60949 0.79674 0.0
H907 H 0.118 0.61125 0.793 0.0
H908 H 0.13582 0.58707 0.90768 0.0
O909 O 0.20115 0.67268 0.74125 0.0
O910 O 0.2229 0.66435 0.92818 0.0
H911 H 0.12983 0.6755 0.32818 0.0
H912 H 0.09897 0.66046 0.25116 0.0
C913 C 0.1192 0.67254 0.23308 0.0
H914 H 0.11317 0.69397 0.19409 0.0
H915 H 0.21487 0.64099 0.25433 0.0
O916 O 0.14947 0.67791 0.61092 0.0
C917 C 0.22301 0.66444 0.80193 0.0
Co918 Co 0.06229 0.41324 0.54024 0.0
Co919 Co 0.06116 0.44194 0.7983 0.0
C920 C 0.00673 0.43022 0.67052 0.0
O921 O 0.0192 0.41381 0.58783 0.0
O922 O 0.02118 0.44441 0.75292 0.0
C923 C 0.04917 0.41257 0.28873 0.0
O924 O 0.02359 0.41815 0.33617 0.0
C925 C 0.04509 0.43408 0.06039 0.0
C926 C 0.08456 0.4453 0.16886 0.0
C927 C 0.05879 0.43058 0.17903 0.0
N928 N 0.06264 0.44894 0.98037 0.0
N929 N 0.08604 0.45604 0.04634 0.0
C930 C 0.019 0.41794 0.01469 0.0
H931 H 0.00313 0.43318 0.97506 0.0
H932 H 0.02456 0.40365 0.93214 0.0
H933 H 0.00896 0.40506 0.09381 0.0
C934 C 0.11361 0.38758 0.70717 0.0
N935 N 0.08729 0.39857 0.67934 0.0
N936 N 0.07396 0.40225 0.79038 0.0
C937 C 0.08853 0.38906 0.88859 0.0
C938 C 0.11545 0.38134 0.84307 0.0
C939 C 0.13726 0.38713 0.6087 0.0
H940 H 0.13606 0.40672 0.54674 0.0
H941 H 0.13425 0.36845 0.54282 0.0
H942 H 0.15847 0.38621 0.65749 0.0
O943 O 0.07258 0.45145 0.49121 0.0
O944 O 0.08079 0.47326 0.67811 0.0
H945 H 0.07012 0.38016 0.07824 0.0
H946 H 0.08521 0.34934 1.00112 0.0
C947 C 0.07307 0.36954 0.9831 0.0
H948 H 0.05166 0.36346 0.9442 0.0
H949 H 0.10425 0.46529 1.00413 0.0
O950 O 0.0676 0.39975 0.36087 0.0
C951 C 0.0807 0.47336 0.55186 0.0
Co952 Co 0.31326 0.66661 0.73472 0.0
Co953 Co 0.28299 0.6754 0.47128 0.0
C954 C 0.31018 0.72513 0.59633 0.0
O955 O 0.31941 0.70916 0.6893 0.0
O956 O 0.29478 0.71504 0.50359 0.0
C957 C 0.30769 0.67704 0.98197 0.0
O958 O 0.29962 0.70112 0.92608 0.0
C959 C 0.27866 0.68419 0.19318 0.0
C960 C 0.2881 0.6393 0.13876 0.0
C961 C 0.29113 0.6673 0.09657 0.0
N962 N 0.27159 0.66725 0.29467 0.0
N963 N 0.2756 0.64026 0.2576 0.0
C964 C 0.27288 0.71575 0.18797 0.0
H965 H 0.26876 0.72454 0.28705 0.0
H966 H 0.2907 0.72713 0.13844 0.0
H967 H 0.25328 0.71935 0.12815 0.0
C968 C 0.34982 0.62582 0.56137 0.0
N969 N 0.32723 0.64309 0.59045 0.0
N970 N 0.3178 0.65381 0.48025 0.0
C971 C 0.33647 0.6478 0.38237 0.0
C972 C 0.35582 0.62724 0.42496 0.0
C973 C 0.3658 0.60965 0.66362 0.0
H974 H 0.3511 0.60357 0.74469 0.0
H975 H 0.38292 0.6235 0.70517 0.0
H976 H 0.37525 0.59025 0.61936 0.0
O977 O 0.27312 0.65917 0.78053 0.0
O978 O 0.2496 0.66678 0.59884 0.0
H979 H 0.34499 0.6621 0.18517 0.0
H980 H 0.36761 0.67736 0.30574 0.0
C981 C 0.34514 0.67052 0.28577 0.0
H982 H 0.3313 0.68983 0.2941 0.0
H983 H 0.27401 0.6227 0.32088 0.0
O984 O 0.32368 0.65955 0.91765 0.0
C985 C 0.24968 0.66131 0.72169 0.0
Co986 Co 0.07807 0.56359 0.48464 0.0
Co987 Co 0.06944 0.53328 0.22117 0.0
C988 C 0.01956 0.56021 0.34621 0.0
O989 O 0.03548 0.56952 0.4392 0.0
O990 O 0.02973 0.54488 0.25343 0.0
C991 C 0.06765 0.55795 0.7319 0.0
O992 O 0.04362 0.54975 0.67599 0.0
C993 C 0.06067 0.52888 0.94312 0.0
C994 C 0.1055 0.53854 0.8886 0.0
C995 C 0.07748 0.54144 0.84647 0.0
N996 N 0.07765 0.52191 0.04459 0.0
N997 N 0.10462 0.52605 1.00746 0.0
C998 C 0.02916 0.52286 0.93782 0.0
H999 H 0.02039 0.5187 0.0369 0.0
H1000 H 0.01765 0.54058 0.88813 0.0
H1001 H 0.02572 0.50321 0.87813 0.0
C1002 C 0.11874 0.60031 0.31142 0.0
N1003 N 0.10153 0.57768 0.34043 0.0
N1004 N 0.09089 0.5682 0.23017 0.0
C1005 C 0.09688 0.58687 0.13228 0.0
C1006 C 0.11737 0.60629 0.17498 0.0
C1007 C 0.1348 0.61637 0.41381 0.0
H1008 H 0.14089 0.6017 0.495 0.0
H1009 H 0.12086 0.63345 0.45514 0.0
H1010 H 0.15418 0.62589 0.36975 0.0
O1011 O 0.08572 0.52349 0.53043 0.0
O1012 O 0.07822 0.49993 0.34876 0.0
H1013 H 0.08261 0.59533 0.93497 0.0
H1014 H 0.06725 0.61792 0.05539 0.0
C1015 C 0.07417 0.59547 0.03552 0.0
H1016 H 0.0549 0.58156 0.04377 0.0
H1017 H 0.12219 0.52455 0.0707 0.0
O1018 O 0.08506 0.57404 0.66759 0.0
C1019 C 0.08369 0.50004 0.4716 0.0
Co1020 Co 0.18182 0.32843 0.2346 0.0
Co1021 Co 0.21209 0.31964 0.97114 0.0
C1022 C 0.18491 0.2699 0.09616 0.0
O1023 O 0.17568 0.28587 0.18915 0.0
O1024 O 0.2003 0.28 1.00339 0.0
C1025 C 0.18739 0.31799 0.48186 0.0
O1026 O 0.19548 0.29392 0.42596 0.0
C1027 C 0.21644 0.31086 0.69306 0.0
C1028 C 0.20696 0.35575 0.63862 0.0
C1029 C 0.20395 0.32774 0.59644 0.0
N1030 N 0.22349 0.32781 0.79455 0.0
N1031 N 0.21946 0.3548 0.75747 0.0
C1032 C 0.22228 0.27932 0.6878 0.0
H1033 H 0.2264 0.27053 0.78688 0.0
H1034 H 0.20449 0.26791 0.63817 0.0
H1035 H 0.2419 0.27576 0.62806 0.0
C1036 C 0.14528 0.36924 0.06129 0.0
N1037 N 0.16785 0.35195 0.09036 0.0
N1038 N 0.17727 0.34124 0.98015 0.0
C1039 C 0.15862 0.34727 0.88227 0.0
C1040 C 0.13928 0.36784 0.92488 0.0
C1041 C 0.1293 0.38542 0.16355 0.0
H1042 H 0.14401 0.39149 0.24463 0.0
H1043 H 0.11217 0.37157 0.2051 0.0
H1044 H 0.11986 0.40482 0.11932 0.0
O1045 O 0.22196 0.33588 0.28042 0.0
O1046 O 0.24547 0.32826 0.09874 0.0
H1047 H 0.15008 0.333 0.68503 0.0
H1048 H 0.12746 0.31773 0.80558 0.0
C1049 C 0.14993 0.32457 0.78561 0.0
H1050 H 0.16377 0.30526 0.79388 0.0
H1051 H 0.22103 0.37235 0.82074 0.0
O1052 O 0.1714 0.33547 0.41754 0.0
C1053 C 0.24539 0.33373 0.22158 0.0
Co1054 Co 0.41677 0.43152 0.98463 0.0
Co1055 Co 0.42548 0.46183 0.72118 0.0
C1056 C 0.47528 0.43477 0.84621 0.0
O1057 O 0.45934 0.4255 0.93919 0.0
O1058 O 0.46516 0.45015 0.75347 0.0
C1059 C 0.4272 0.43714 0.23188 0.0
O1060 O 0.45124 0.4453 0.17596 0.0
C1061 C 0.43426 0.4662 0.44309 0.0
C1062 C 0.38939 0.45662 0.38865 0.0
C1063 C 0.41741 0.45368 0.34647 0.0
N1064 N 0.41729 0.47321 0.54458 0.0
N1065 N 0.39031 0.46912 0.50749 0.0
C1066 C 0.46579 0.47212 0.43783 0.0
H1067 H 0.47457 0.47626 0.53692 0.0
H1068 H 0.47724 0.45436 0.38818 0.0
H1069 H 0.4693 0.49175 0.37812 0.0
C1070 C 0.37608 0.39487 0.81128 0.0
N1071 N 0.3933 0.41749 0.84035 0.0
N1072 N 0.40398 0.42696 0.73015 0.0
C1073 C 0.39801 0.40829 0.63225 0.0
C1074 C 0.3775 0.38888 0.67486 0.0
C1075 C 0.35996 0.37885 0.91354 0.0
H1076 H 0.35385 0.39353 0.99465 0.0
H1077 H 0.37385 0.36175 0.95502 0.0
H1078 H 0.34058 0.36937 0.86929 0.0
O1079 O 0.40919 0.47164 0.03043 0.0
O1080 O 0.41674 0.49519 0.84879 0.0
H1081 H 0.4123 0.39979 0.43502 0.0
H1082 H 0.42764 0.37722 0.55558 0.0
C1083 C 0.42074 0.39967 0.5356 0.0
H1084 H 0.44001 0.41356 0.54388 0.0
H1085 H 0.37275 0.47065 0.57076 0.0
O1086 O 0.40976 0.4211 0.16758 0.0
C1087 C 0.41126 0.49509 0.97163 0.0
loop_
_geom_bond_atom_site_label_1
_geom_bond_atom_site_label_2
_geom_bond_distance
_geom_bond_site_symmetry_2
_ccdc_geom_bond_type
Co0 O3 1.970 . S
Co0 N17 1.989 . S
Co0 O25 1.967 . S
Co0 O32 1.920 . S
Co1 O4 1.966 . S
Co1 N10 2.022 . S
Co1 N18 1.993 . S
Co1 O26 1.941 1_556 S
C2 O3 1.258 . S
C2 O4 1.263 1_554 S
O3 Co0 1.970 . S
O3 C2 1.258 . S
O4 Co1 1.966 . S
O4 C2 1.263 1_556 S
C5 O6 1.235 . S
C5 O32 1.289 . S
O6 C5 1.235 . S
C7 C9 1.400 . S
C7 N10 1.351 . S
C7 C12 1.501 . S
C8 C9 1.387 . S
C8 N11 1.341 . S
C9 C7 1.400 . S
C9 C8 1.387 . S
N10 Co1 2.022 . S
N10 C7 1.351 . S
N10 N11 1.365 . S
N11 C8 1.341 . S
N11 N10 1.365 . S
N11 H31 0.862 . S
C12 C7 1.501 . S
C12 H13 0.961 . S
C12 H14 0.961 . S
C12 H15 0.960 . S
H13 C12 0.961 . S
H14 C12 0.961 . S
H15 C12 0.960 . S
C16 N17 1.342 . S
C16 C20 1.401 1_554 S
C16 C21 1.499 . S
N17 Co0 1.989 . S
N17 C16 1.342 . S
N17 N18 1.388 1_554 S
N18 Co1 1.993 . S
N18 N17 1.388 1_556 S
N18 C19 1.346 . S
C19 N18 1.346 . S
C19 C20 1.396 . S
C19 C29 1.510 . S
C20 C16 1.401 1_556 S
C20 C19 1.396 . S
C21 C16 1.499 . S
C21 H22 0.959 . S
C21 H23 0.960 . S
C21 H24 0.961 . S
H22 C21 0.959 . S
H23 C21 0.960 . S
H24 C21 0.961 . S
O25 Co0 1.967 . S
O25 C33 1.258 . S
O26 Co1 1.941 1_554 S
O26 C33 1.266 . S
H27 C29 0.959 . S
H28 C29 0.961 . S
C29 C19 1.510 . S
C29 H27 0.959 . S
C29 H28 0.961 . S
C29 H30 0.960 . S
H30 C29 0.960 . S
H31 N11 0.862 . S
O32 Co0 1.920 . S
O32 C5 1.289 . S
C33 O25 1.258 . S
C33 O26 1.266 . S
Co34 O37 1.970 . S
Co34 N51 1.989 . S
Co34 O59 1.967 . S
Co34 O66 1.920 . S
Co35 O38 1.966 . S
Co35 N44 2.022 1_554 S
Co35 N52 1.993 . S
Co35 O60 1.941 1_565 S
C36 O37 1.258 . S
C36 O38 1.263 . S
O37 Co34 1.970 . S
O37 C36 1.258 . S
O38 Co35 1.966 . S
O38 C36 1.263 . S
C39 O40 1.235 . S
C39 O66 1.289 . S
O40 C39 1.235 . S
C41 C43 1.400 . S
C41 N44 1.351 . S
C41 C46 1.501 . S
C42 C43 1.387 . S
C42 N45 1.341 . S
C43 C41 1.400 . S
C43 C42 1.387 . S
N44 Co35 2.022 1_556 S
N44 C41 1.351 . S
N44 N45 1.365 . S
N45 C42 1.341 . S
N45 N44 1.365 . S
N45 H65 0.862 . S
C46 C41 1.501 . S
C46 H47 0.961 . S
C46 H48 0.961 . S
C46 H49 0.960 . S
H47 C46 0.961 . S
H48 C46 0.961 . S
H49 C46 0.960 . S
C50 N51 1.342 . S
C50 C54 1.401 . S
C50 C55 1.499 . S
N51 Co34 1.989 . S
N51 C50 1.342 . S
N51 N52 1.388 . S
N52 Co35 1.993 . S
N52 N51 1.388 . S
N52 C53 1.346 . S
C53 N52 1.346 . S
C53 C54 1.396 . S
C53 C63 1.510 . S
C54 C50 1.401 . S
C54 C53 1.396 . S
C55 C50 1.499 . S
C55 H56 0.959 . S
C55 H57 0.960 . S
C55 H58 0.961 . S
H56 C55 0.959 . S
H57 C55 0.960 . S
H58 C55 0.961 . S
O59 Co34 1.967 . S
O59 C67 1.258 1_565 S
O60 Co35 1.941 1_545 S
O60 C67 1.266 . S
H61 C63 0.959 1_556 S
H62 C63 0.961 1_556 S
C63 C53 1.510 . S
C63 H61 0.959 1_554 S
C63 H62 0.961 1_554 S
C63 H64 0.960 1_554 S
H64 C63 0.960 1_556 S
H65 N45 0.862 . S
O66 Co34 1.920 . S
O66 C39 1.289 . S
C67 O59 1.258 1_545 S
C67 O60 1.266 . S
Co68 O71 1.970 . S
Co68 N85 1.989 . S
Co68 O93 1.967 . S
Co68 O100 1.920 . S
Co69 O72 1.966 . S
Co69 N78 2.022 . S
Co69 N86 1.993 . S
Co69 O94 1.941 . S
C70 O71 1.258 . S
C70 O72 1.263 . S
O71 Co68 1.970 . S
O71 C70 1.258 . S
O72 Co69 1.966 . S
O72 C70 1.263 . S
C73 O74 1.235 . S
C73 O100 1.289 . S
O74 C73 1.235 . S
C75 C77 1.400 . S
C75 N78 1.351 . S
C75 C80 1.501 . S
C76 C77 1.387 . S
C76 N79 1.341 . S
C77 C75 1.400 . S
C77 C76 1.387 . S
N78 Co69 2.022 . S
N78 C75 1.351 . S
N78 N79 1.365 . S
N79 C76 1.341 . S
N79 N78 1.365 . S
N79 H99 0.862 . S
C80 C75 1.501 . S
C80 H81 0.961 . S
C80 H82 0.961 . S
C80 H83 0.960 . S
H81 C80 0.961 . S
H82 C80 0.961 . S
H83 C80 0.960 . S
C84 N85 1.342 . S
C84 C88 1.401 . S
C84 C89 1.499 . S
N85 Co68 1.989 . S
N85 C84 1.342 . S
N85 N86 1.388 . S
N86 Co69 1.993 . S
N86 N85 1.388 . S
N86 C87 1.346 . S
C87 N86 1.346 . S
C87 C88 1.396 . S
C87 C97 1.510 . S
C88 C84 1.401 . S
C88 C87 1.396 . S
C89 C84 1.499 . S
C89 H90 0.959 . S
C89 H91 0.960 . S
C89 H92 0.961 . S
H90 C89 0.959 . S
H91 C89 0.960 . S
H92 C89 0.961 . S
O93 Co68 1.967 . S
O93 C101 1.258 . S
O94 Co69 1.941 . S
O94 C101 1.266 . S
H95 C97 0.959 . S
H96 C97 0.961 . S
C97 C87 1.510 . S
C97 H95 0.959 . S
C97 H96 0.961 . S
C97 H98 0.960 . S
H98 C97 0.960 . S
H99 N79 0.862 . S
O100 Co68 1.920 . S
O100 C73 1.289 . S
C101 O93 1.258 . S
C101 O94 1.266 . S
Co102 O105 1.970 . S
Co102 N119 1.989 . S
Co102 O127 1.967 . S
Co102 O134 1.920 1_556 S
Co103 O106 1.966 . S
Co103 N112 2.022 . S
Co103 N120 1.993 . S
Co103 O128 1.941 1_545 S
C104 O105 1.258 . S
C104 O106 1.263 . S
O105 Co102 1.970 . S
O105 C104 1.258 . S
O106 Co103 1.966 . S
O106 C104 1.263 . S
C107 O108 1.235 . S
C107 O134 1.289 . S
O108 C107 1.235 . S
C109 C111 1.400 . S
C109 N112 1.351 . S
C109 C114 1.501 . S
C110 C111 1.387 . S
C110 N113 1.341 . S
C111 C109 1.400 . S
C111 C110 1.387 . S
N112 Co103 2.022 . S
N112 C109 1.351 . S
N112 N113 1.365 . S
N113 C110 1.341 . S
N113 N112 1.365 . S
N113 H133 0.862 . S
C114 C109 1.501 . S
C114 H115 0.961 . S
C114 H116 0.961 . S
C114 H117 0.960 . S
H115 C114 0.961 . S
H116 C114 0.961 . S
H117 C114 0.960 . S
C118 N119 1.342 . S
C118 C122 1.401 . S
C118 C123 1.499 . S
N119 Co102 1.989 . S
N119 C118 1.342 . S
N119 N120 1.388 . S
N120 Co103 1.993 . S
N120 N119 1.388 . S
N120 C121 1.346 . S
C121 N120 1.346 . S
C121 C122 1.396 . S
C121 C131 1.510 . S
C122 C118 1.401 . S
C122 C121 1.396 . S
C123 C118 1.499 . S
C123 H124 0.959 1_556 S
C123 H125 0.960 . S
C123 H126 0.961 1_556 S
H124 C123 0.959 1_554 S
H125 C123 0.960 . S
H126 C123 0.961 1_554 S
O127 Co102 1.967 . S
O127 C135 1.258 1_545 S
O128 Co103 1.941 1_565 S
O128 C135 1.266 . S
H129 C131 0.959 . S
H130 C131 0.961 . S
C131 C121 1.510 . S
C131 H129 0.959 . S
C131 H130 0.961 . S
C131 H132 0.960 . S
H132 C131 0.960 . S
H133 N113 0.862 . S
O134 Co102 1.920 1_554 S
O134 C107 1.289 . S
C135 O127 1.258 1_565 S
C135 O128 1.266 . S
Co136 O139 1.970 . S
Co136 N153 1.989 . S
Co136 O161 1.967 . S
Co136 O168 1.920 . S
Co137 O140 1.966 . S
Co137 N146 2.022 . S
Co137 N154 1.993 . S
Co137 O162 1.941 1_554 S
C138 O139 1.258 . S
C138 O140 1.263 1_556 S
O139 Co136 1.970 . S
O139 C138 1.258 . S
O140 Co137 1.966 . S
O140 C138 1.263 1_554 S
C141 O142 1.235 . S
C141 O168 1.289 . S
O142 C141 1.235 . S
C143 C145 1.400 . S
C143 N146 1.351 . S
C143 C148 1.501 . S
C144 C145 1.387 . S
C144 N147 1.341 . S
C145 C143 1.400 . S
C145 C144 1.387 . S
N146 Co137 2.022 . S
N146 C143 1.351 . S
N146 N147 1.365 . S
N147 C144 1.341 . S
N147 N146 1.365 . S
N147 H167 0.862 . S
C148 C143 1.501 . S
C148 H149 0.961 . S
C148 H150 0.961 . S
C148 H151 0.960 . S
H149 C148 0.961 . S
H150 C148 0.961 . S
H151 C148 0.960 . S
C152 N153 1.342 . S
C152 C156 1.401 1_556 S
C152 C157 1.499 . S
N153 Co136 1.989 . S
N153 C152 1.342 . S
N153 N154 1.388 1_556 S
N154 Co137 1.993 . S
N154 N153 1.388 1_554 S
N154 C155 1.346 . S
C155 N154 1.346 . S
C155 C156 1.396 . S
C155 C165 1.510 . S
C156 C152 1.401 1_554 S
C156 C155 1.396 . S
C157 C152 1.499 . S
C157 H158 0.959 . S
C157 H159 0.960 . S
C157 H160 0.961 . S
H158 C157 0.959 . S
H159 C157 0.960 . S
H160 C157 0.961 . S
O161 Co136 1.967 . S
O161 C169 1.258 . S
O162 Co137 1.941 1_556 S
O162 C169 1.266 . S
H163 C165 0.959 . S
H164 C165 0.961 . S
C165 C155 1.510 . S
C165 H163 0.959 . S
C165 H164 0.961 . S
C165 H166 0.960 . S
H166 C165 0.960 . S
H167 N147 0.862 . S
O168 Co136 1.920 . S
O168 C141 1.289 . S
C169 O161 1.258 . S
C169 O162 1.266 . S
Co170 O173 1.970 . S
Co170 N187 1.989 . S
Co170 O195 1.967 . S
Co170 O202 1.920 1_554 S
Co171 O174 1.966 . S
Co171 N180 2.022 . S
Co171 N188 1.993 . S
Co171 O196 1.941 1_565 S
C172 O173 1.258 . S
C172 O174 1.263 . S
O173 Co170 1.970 . S
O173 C172 1.258 . S
O174 Co171 1.966 . S
O174 C172 1.263 . S
C175 O176 1.235 . S
C175 O202 1.289 . S
O176 C175 1.235 . S
C177 C179 1.400 . S
C177 N180 1.351 . S
C177 C182 1.501 . S
C178 C179 1.387 . S
C178 N181 1.341 . S
C179 C177 1.400 . S
C179 C178 1.387 . S
N180 Co171 2.022 . S
N180 C177 1.351 . S
N180 N181 1.365 . S
N181 C178 1.341 . S
N181 N180 1.365 . S
N181 H201 0.862 . S
C182 C177 1.501 . S
C182 H183 0.961 . S
C182 H184 0.961 . S
C182 H185 0.960 . S
H183 C182 0.961 . S
H184 C182 0.961 . S
H185 C182 0.960 . S
C186 N187 1.342 . S
C186 C190 1.401 . S
C186 C191 1.499 . S
N187 Co170 1.989 . S
N187 C186 1.342 . S
N187 N188 1.388 . S
N188 Co171 1.993 . S
N188 N187 1.388 . S
N188 C189 1.346 . S
C189 N188 1.346 . S
C189 C190 1.396 . S
C189 C199 1.510 . S
C190 C186 1.401 . S
C190 C189 1.396 . S
C191 C186 1.499 . S
C191 H192 0.959 1_554 S
C191 H193 0.960 . S
C191 H194 0.961 1_554 S
H192 C191 0.959 1_556 S
H193 C191 0.960 . S
H194 C191 0.961 1_556 S
O195 Co170 1.967 . S
O195 C203 1.258 1_565 S
O196 Co171 1.941 1_545 S
O196 C203 1.266 . S
H197 C199 0.959 . S
H198 C199 0.961 . S
C199 C189 1.510 . S
C199 H197 0.959 . S
C199 H198 0.961 . S
C199 H200 0.960 . S
H200 C199 0.960 . S
H201 N181 0.862 . S
O202 Co170 1.920 1_556 S
O202 C175 1.289 . S
C203 O195 1.258 1_545 S
C203 O196 1.266 . S
Co204 O207 1.970 . S
Co204 N221 1.989 . S
Co204 O229 1.967 . S
Co204 O236 1.920 . S
Co205 O208 1.966 . S
Co205 N214 2.022 . S
Co205 N222 1.993 . S
Co205 O230 1.941 . S
C206 O207 1.258 . S
C206 O208 1.263 . S
O207 Co204 1.970 . S
O207 C206 1.258 . S
O208 Co205 1.966 . S
O208 C206 1.263 . S
C209 O210 1.235 . S
C209 O236 1.289 . S
O210 C209 1.235 . S
C211 C213 1.400 . S
C211 N214 1.351 . S
C211 C216 1.501 . S
C212 C213 1.387 . S
C212 N215 1.341 . S
C213 C211 1.400 . S
C213 C212 1.387 . S
N214 Co205 2.022 . S
N214 C211 1.351 . S
N214 N215 1.365 . S
N215 C212 1.341 . S
N215 N214 1.365 . S
N215 H235 0.862 . S
C216 C211 1.501 . S
C216 H217 0.961 . S
C216 H218 0.961 . S
C216 H219 0.960 . S
H217 C216 0.961 . S
H218 C216 0.961 . S
H219 C216 0.960 . S
C220 N221 1.342 . S
C220 C224 1.401 . S
C220 C225 1.499 . S
N221 Co204 1.989 . S
N221 C220 1.342 . S
N221 N222 1.388 . S
N222 Co205 1.993 . S
N222 N221 1.388 . S
N222 C223 1.346 . S
C223 N222 1.346 . S
C223 C224 1.396 . S
C223 C233 1.510 . S
C224 C220 1.401 . S
C224 C223 1.396 . S
C225 C220 1.499 . S
C225 H226 0.959 . S
C225 H227 0.960 . S
C225 H228 0.961 . S
H226 C225 0.959 . S
H227 C225 0.960 . S
H228 C225 0.961 . S
O229 Co204 1.967 . S
O229 C237 1.258 . S
O230 Co205 1.941 . S
O230 C237 1.266 . S
H231 C233 0.959 . S
H232 C233 0.961 . S
C233 C223 1.510 . S
C233 H231 0.959 . S
C233 H232 0.961 . S
C233 H234 0.960 . S
H234 C233 0.960 . S
H235 N215 0.862 . S
O236 Co204 1.920 . S
O236 C209 1.289 . S
C237 O229 1.258 . S
C237 O230 1.266 . S
Co238 O241 1.970 . S
Co238 N255 1.989 . S
Co238 O263 1.967 . S
Co238 O270 1.920 . S
Co239 O242 1.966 . S
Co239 N248 2.022 1_556 S
Co239 N256 1.993 . S
Co239 O264 1.941 1_545 S
C240 O241 1.258 . S
C240 O242 1.263 . S
O241 Co238 1.970 . S
O241 C240 1.258 . S
O242 Co239 1.966 . S
O242 C240 1.263 . S
C243 O244 1.235 . S
C243 O270 1.289 . S
O244 C243 1.235 . S
C245 C247 1.400 . S
C245 N248 1.351 . S
C245 C250 1.501 . S
C246 C247 1.387 . S
C246 N249 1.341 . S
C247 C245 1.400 . S
C247 C246 1.387 . S
N248 Co239 2.022 1_554 S
N248 C245 1.351 . S
N248 N249 1.365 . S
N249 C246 1.341 . S
N249 N248 1.365 . S
N249 H269 0.862 . S
C250 C245 1.501 . S
C250 H251 0.961 . S
C250 H252 0.961 . S
C250 H253 0.960 . S
H251 C250 0.961 . S
H252 C250 0.961 . S
H253 C250 0.960 . S
C254 N255 1.342 . S
C254 C258 1.401 . S
C254 C259 1.499 . S
N255 Co238 1.989 . S
N255 C254 1.342 . S
N255 N256 1.388 . S
N256 Co239 1.993 . S
N256 N255 1.388 . S
N256 C257 1.346 . S
C257 N256 1.346 . S
C257 C258 1.396 . S
C257 C267 1.510 . S
C258 C254 1.401 . S
C258 C257 1.396 . S
C259 C254 1.499 . S
C259 H260 0.959 . S
C259 H261 0.960 . S
C259 H262 0.961 . S
H260 C259 0.959 . S
H261 C259 0.960 . S
H262 C259 0.961 . S
O263 Co238 1.967 . S
O263 C271 1.258 1_545 S
O264 Co239 1.941 1_565 S
O264 C271 1.266 . S
H265 C267 0.959 1_554 S
H266 C267 0.961 1_554 S
C267 C257 1.510 . S
C267 H265 0.959 1_556 S
C267 H266 0.961 1_556 S
C267 H268 0.960 1_556 S
H268 C267 0.960 1_554 S
H269 N249 0.862 . S
O270 Co238 1.920 . S
O270 C243 1.289 . S
C271 O263 1.258 1_565 S
C271 O264 1.266 . S
Co272 O275 1.970 . S
Co272 N289 1.989 . S
Co272 O297 1.967 . S
Co272 O304 1.920 . S
Co273 O276 1.966 . S
Co273 N282 2.022 . S
Co273 N290 1.993 . S
Co273 O298 1.941 1_554 S
C274 O275 1.258 . S
C274 O276 1.263 1_556 S
O275 Co272 1.970 . S
O275 C274 1.258 . S
O276 Co273 1.966 . S
O276 C274 1.263 1_554 S
C277 O278 1.235 . S
C277 O304 1.289 . S
O278 C277 1.235 . S
C279 C281 1.400 . S
C279 N282 1.351 . S
C279 C284 1.501 . S
C280 C281 1.387 . S
C280 N283 1.341 . S
C281 C279 1.400 . S
C281 C280 1.387 . S
N282 Co273 2.022 . S
N282 C279 1.351 . S
N282 N283 1.365 . S
N283 C280 1.341 . S
N283 N282 1.365 . S
N283 H303 0.862 . S
C284 C279 1.501 . S
C284 H285 0.961 . S
C284 H286 0.961 . S
C284 H287 0.960 . S
H285 C284 0.961 . S
H286 C284 0.961 . S
H287 C284 0.960 . S
C288 N289 1.342 . S
C288 C292 1.401 1_556 S
C288 C293 1.499 . S
N289 Co272 1.989 . S
N289 C288 1.342 . S
N289 N290 1.388 1_556 S
N290 Co273 1.993 . S
N290 N289 1.388 1_554 S
N290 C291 1.346 . S
C291 N290 1.346 . S
C291 C292 1.396 . S
C291 C301 1.510 . S
C292 C288 1.401 1_554 S
C292 C291 1.396 . S
C293 C288 1.499 . S
C293 H294 0.959 . S
C293 H295 0.960 . S
C293 H296 0.961 . S
H294 C293 0.959 . S
H295 C293 0.960 . S
H296 C293 0.961 . S
O297 Co272 1.967 . S
O297 C305 1.258 . S
O298 Co273 1.941 1_556 S
O298 C305 1.266 . S
H299 C301 0.959 . S
H300 C301 0.961 . S
C301 C291 1.510 . S
C301 H299 0.959 . S
C301 H300 0.961 . S
C301 H302 0.960 . S
H302 C301 0.960 . S
H303 N283 0.862 . S
O304 Co272 1.920 . S
O304 C277 1.289 . S
C305 O297 1.258 . S
C305 O298 1.266 . S
Co306 O309 1.970 . S
Co306 N323 1.989 . S
Co306 O331 1.967 . S
Co306 O338 1.920 . S
Co307 O310 1.966 . S
Co307 N316 2.022 1_556 S
Co307 N324 1.993 . S
Co307 O332 1.941 1_545 S
C308 O309 1.258 . S
C308 O310 1.263 . S
O309 Co306 1.970 . S
O309 C308 1.258 . S
O310 Co307 1.966 . S
O310 C308 1.263 . S
C311 O312 1.235 . S
C311 O338 1.289 . S
O312 C311 1.235 . S
C313 C315 1.400 . S
C313 N316 1.351 . S
C313 C318 1.501 . S
C314 C315 1.387 . S
C314 N317 1.341 . S
C315 C313 1.400 . S
C315 C314 1.387 . S
N316 Co307 2.022 1_554 S
N316 C313 1.351 . S
N316 N317 1.365 . S
N317 C314 1.341 . S
N317 N316 1.365 . S
N317 H337 0.862 . S
C318 C313 1.501 . S
C318 H319 0.961 . S
C318 H320 0.961 . S
C318 H321 0.960 . S
H319 C318 0.961 . S
H320 C318 0.961 . S
H321 C318 0.960 . S
C322 N323 1.342 . S
C322 C326 1.401 . S
C322 C327 1.499 . S
N323 Co306 1.989 . S
N323 C322 1.342 . S
N323 N324 1.388 . S
N324 Co307 1.993 . S
N324 N323 1.388 . S
N324 C325 1.346 . S
C325 N324 1.346 . S
C325 C326 1.396 . S
C325 C335 1.510 . S
C326 C322 1.401 . S
C326 C325 1.396 . S
C327 C322 1.499 . S
C327 H328 0.959 . S
C327 H329 0.960 . S
C327 H330 0.961 . S
H328 C327 0.959 . S
H329 C327 0.960 . S
H330 C327 0.961 . S
O331 Co306 1.967 . S
O331 C339 1.258 1_545 S
O332 Co307 1.941 1_565 S
O332 C339 1.266 . S
H333 C335 0.959 1_554 S
H334 C335 0.961 1_554 S
C335 C325 1.510 . S
C335 H333 0.959 1_556 S
C335 H334 0.961 1_556 S
C335 H336 0.960 1_556 S
H336 C335 0.960 1_554 S
H337 N317 0.862 . S
O338 Co306 1.920 . S
O338 C311 1.289 . S
C339 O331 1.258 1_565 S
C339 O332 1.266 . S
Co340 O343 1.970 . S
Co340 N357 1.989 . S
Co340 O365 1.967 . S
Co340 O372 1.920 . S
Co341 O344 1.966 . S
Co341 N350 2.022 . S
Co341 N358 1.993 . S
Co341 O366 1.941 . S
C342 O343 1.258 . S
C342 O344 1.263 . S
O343 Co340 1.970 . S
O343 C342 1.258 . S
O344 Co341 1.966 . S
O344 C342 1.263 . S
C345 O346 1.235 . S
C345 O372 1.289 . S
O346 C345 1.235 . S
C347 C349 1.400 . S
C347 N350 1.351 . S
C347 C352 1.501 . S
C348 C349 1.387 . S
C348 N351 1.341 . S
C349 C347 1.400 . S
C349 C348 1.387 . S
N350 Co341 2.022 . S
N350 C347 1.351 . S
N350 N351 1.365 . S
N351 C348 1.341 . S
N351 N350 1.365 . S
N351 H371 0.862 . S
C352 C347 1.501 . S
C352 H353 0.961 . S
C352 H354 0.961 . S
C352 H355 0.960 . S
H353 C352 0.961 . S
H354 C352 0.961 . S
H355 C352 0.960 . S
C356 N357 1.342 . S
C356 C360 1.401 . S
C356 C361 1.499 . S
N357 Co340 1.989 . S
N357 C356 1.342 . S
N357 N358 1.388 . S
N358 Co341 1.993 . S
N358 N357 1.388 . S
N358 C359 1.346 . S
C359 N358 1.346 . S
C359 C360 1.396 . S
C359 C369 1.510 . S
C360 C356 1.401 . S
C360 C359 1.396 . S
C361 C356 1.499 . S
C361 H362 0.959 . S
C361 H363 0.960 . S
C361 H364 0.961 . S
H362 C361 0.959 . S
H363 C361 0.960 . S
H364 C361 0.961 . S
O365 Co340 1.967 . S
O365 C373 1.258 . S
O366 Co341 1.941 . S
O366 C373 1.266 . S
H367 C369 0.959 . S
H368 C369 0.961 . S
C369 C359 1.510 . S
C369 H367 0.959 . S
C369 H368 0.961 . S
C369 H370 0.960 . S
H370 C369 0.960 . S
H371 N351 0.862 . S
O372 Co340 1.920 . S
O372 C345 1.289 . S
C373 O365 1.258 . S
C373 O366 1.266 . S
Co374 O377 1.970 . S
Co374 N391 1.989 . S
Co374 O399 1.967 . S
Co374 O406 1.920 1_554 S
Co375 O378 1.966 . S
Co375 N384 2.022 . S
Co375 N392 1.993 . S
Co375 O400 1.941 1_565 S
C376 O377 1.258 . S
C376 O378 1.263 . S
O377 Co374 1.970 . S
O377 C376 1.258 . S
O378 Co375 1.966 . S
O378 C376 1.263 . S
C379 O380 1.235 . S
C379 O406 1.289 . S
O380 C379 1.235 . S
C381 C383 1.400 . S
C381 N384 1.351 . S
C381 C386 1.501 . S
C382 C383 1.387 . S
C382 N385 1.341 . S
C383 C381 1.400 . S
C383 C382 1.387 . S
N384 Co375 2.022 . S
N384 C381 1.351 . S
N384 N385 1.365 . S
N385 C382 1.341 . S
N385 N384 1.365 . S
N385 H405 0.862 . S
C386 C381 1.501 . S
C386 H387 0.961 . S
C386 H388 0.961 . S
C386 H389 0.960 . S
H387 C386 0.961 . S
H388 C386 0.961 . S
H389 C386 0.960 . S
C390 N391 1.342 . S
C390 C394 1.401 . S
C390 C395 1.499 . S
N391 Co374 1.989 . S
N391 C390 1.342 . S
N391 N392 1.388 . S
N392 Co375 1.993 . S
N392 N391 1.388 . S
N392 C393 1.346 . S
C393 N392 1.346 . S
C393 C394 1.396 . S
C393 C403 1.510 . S
C394 C390 1.401 . S
C394 C393 1.396 . S
C395 C390 1.499 . S
C395 H396 0.959 1_554 S
C395 H397 0.960 . S
C395 H398 0.961 1_554 S
H396 C395 0.959 1_556 S
H397 C395 0.960 . S
H398 C395 0.961 1_556 S
O399 Co374 1.967 . S
O399 C407 1.258 1_565 S
O400 Co375 1.941 1_545 S
O400 C407 1.266 . S
H401 C403 0.959 . S
H402 C403 0.961 . S
C403 C393 1.510 . S
C403 H401 0.959 . S
C403 H402 0.961 . S
C403 H404 0.960 . S
H404 C403 0.960 . S
H405 N385 0.862 . S
O406 Co374 1.920 1_556 S
O406 C379 1.289 . S
C407 O399 1.258 1_545 S
C407 O400 1.266 . S
Co408 O411 1.970 . S
Co408 N425 1.989 . S
Co408 O433 1.967 . S
Co408 O440 1.920 . S
Co409 O412 1.966 . S
Co409 N418 2.022 . S
Co409 N426 1.993 . S
Co409 O434 1.941 1_556 S
C410 O411 1.258 . S
C410 O412 1.263 1_554 S
O411 Co408 1.970 . S
O411 C410 1.258 . S
O412 Co409 1.966 . S
O412 C410 1.263 1_556 S
C413 O414 1.235 . S
C413 O440 1.289 . S
O414 C413 1.235 . S
C415 C417 1.400 . S
C415 N418 1.351 . S
C415 C420 1.501 . S
C416 C417 1.387 . S
C416 N419 1.341 . S
C417 C415 1.400 . S
C417 C416 1.387 . S
N418 Co409 2.022 . S
N418 C415 1.351 . S
N418 N419 1.365 . S
N419 C416 1.341 . S
N419 N418 1.365 . S
N419 H439 0.862 . S
C420 C415 1.501 . S
C420 H421 0.961 . S
C420 H422 0.961 . S
C420 H423 0.960 . S
H421 C420 0.961 . S
H422 C420 0.961 . S
H423 C420 0.960 . S
C424 N425 1.342 . S
C424 C428 1.401 1_554 S
C424 C429 1.499 . S
N425 Co408 1.989 . S
N425 C424 1.342 . S
N425 N426 1.388 1_554 S
N426 Co409 1.993 . S
N426 N425 1.388 1_556 S
N426 C427 1.346 . S
C427 N426 1.346 . S
C427 C428 1.396 . S
C427 C437 1.510 . S
C428 C424 1.401 1_556 S
C428 C427 1.396 . S
C429 C424 1.499 . S
C429 H430 0.959 . S
C429 H431 0.960 . S
C429 H432 0.961 . S
H430 C429 0.959 . S
H431 C429 0.960 . S
H432 C429 0.961 . S
O433 Co408 1.967 . S
O433 C441 1.258 . S
O434 Co409 1.941 1_554 S
O434 C441 1.266 . S
H435 C437 0.959 . S
H436 C437 0.961 . S
C437 C427 1.510 . S
C437 H435 0.959 . S
C437 H436 0.961 . S
C437 H438 0.960 . S
H438 C437 0.960 . S
H439 N419 0.862 . S
O440 Co408 1.920 . S
O440 C413 1.289 . S
C441 O433 1.258 . S
C441 O434 1.266 . S
Co442 O445 1.970 . S
Co442 N459 1.989 . S
Co442 O467 1.967 . S
Co442 O474 1.920 1_556 S
Co443 O446 1.966 . S
Co443 N452 2.022 . S
Co443 N460 1.993 . S
Co443 O468 1.941 1_545 S
C444 O445 1.258 . S
C444 O446 1.263 . S
O445 Co442 1.970 . S
O445 C444 1.258 . S
O446 Co443 1.966 . S
O446 C444 1.263 . S
C447 O448 1.235 . S
C447 O474 1.289 . S
O448 C447 1.235 . S
C449 C451 1.400 . S
C449 N452 1.351 . S
C449 C454 1.501 . S
C450 C451 1.387 . S
C450 N453 1.341 . S
C451 C449 1.400 . S
C451 C450 1.387 . S
N452 Co443 2.022 . S
N452 C449 1.351 . S
N452 N453 1.365 . S
N453 C450 1.341 . S
N453 N452 1.365 . S
N453 H473 0.862 . S
C454 C449 1.501 . S
C454 H455 0.961 . S
C454 H456 0.961 . S
C454 H457 0.960 . S
H455 C454 0.961 . S
H456 C454 0.961 . S
H457 C454 0.960 . S
C458 N459 1.342 . S
C458 C462 1.401 . S
C458 C463 1.499 . S
N459 Co442 1.989 . S
N459 C458 1.342 . S
N459 N460 1.388 . S
N460 Co443 1.993 . S
N460 N459 1.388 . S
N460 C461 1.346 . S
C461 N460 1.346 . S
C461 C462 1.396 . S
C461 C471 1.510 . S
C462 C458 1.401 . S
C462 C461 1.396 . S
C463 C458 1.499 . S
C463 H464 0.959 1_556 S
C463 H465 0.960 . S
C463 H466 0.961 1_556 S
H464 C463 0.959 1_554 S
H465 C463 0.960 . S
H466 C463 0.961 1_554 S
O467 Co442 1.967 . S
O467 C475 1.258 1_545 S
O468 Co443 1.941 1_565 S
O468 C475 1.266 . S
H469 C471 0.959 . S
H470 C471 0.961 . S
C471 C461 1.510 . S
C471 H469 0.959 . S
C471 H470 0.961 . S
C471 H472 0.960 . S
H472 C471 0.960 . S
H473 N453 0.862 . S
O474 Co442 1.920 1_554 S
O474 C447 1.289 . S
C475 O467 1.258 1_565 S
C475 O468 1.266 . S
Co476 O479 1.970 . S
Co476 N493 1.989 . S
Co476 O501 1.967 . S
Co476 O508 1.920 . S
Co477 O480 1.966 . S
Co477 N486 2.022 . S
Co477 N494 1.993 . S
Co477 O502 1.941 . S
C478 O479 1.258 . S
C478 O480 1.263 . S
O479 Co476 1.970 . S
O479 C478 1.258 . S
O480 Co477 1.966 . S
O480 C478 1.263 . S
C481 O482 1.235 . S
C481 O508 1.289 . S
O482 C481 1.235 . S
C483 C485 1.400 . S
C483 N486 1.351 . S
C483 C488 1.501 . S
C484 C485 1.387 . S
C484 N487 1.341 . S
C485 C483 1.400 . S
C485 C484 1.387 . S
N486 Co477 2.022 . S
N486 C483 1.351 . S
N486 N487 1.365 . S
N487 C484 1.341 . S
N487 N486 1.365 . S
N487 H507 0.862 . S
C488 C483 1.501 . S
C488 H489 0.961 . S
C488 H490 0.961 . S
C488 H491 0.960 . S
H489 C488 0.961 . S
H490 C488 0.961 . S
H491 C488 0.960 . S
C492 N493 1.342 . S
C492 C496 1.401 . S
C492 C497 1.499 . S
N493 Co476 1.989 . S
N493 C492 1.342 . S
N493 N494 1.388 . S
N494 Co477 1.993 . S
N494 N493 1.388 . S
N494 C495 1.346 . S
C495 N494 1.346 . S
C495 C496 1.396 . S
C495 C505 1.510 . S
C496 C492 1.401 . S
C496 C495 1.396 . S
C497 C492 1.499 . S
C497 H498 0.959 . S
C497 H499 0.960 . S
C497 H500 0.961 . S
H498 C497 0.959 . S
H499 C497 0.960 . S
H500 C497 0.961 . S
O501 Co476 1.967 . S
O501 C509 1.258 . S
O502 Co477 1.941 . S
O502 C509 1.266 . S
H503 C505 0.959 . S
H504 C505 0.961 . S
C505 C495 1.510 . S
C505 H503 0.959 . S
C505 H504 0.961 . S
C505 H506 0.960 . S
H506 C505 0.960 . S
H507 N487 0.862 . S
O508 Co476 1.920 . S
O508 C481 1.289 . S
C509 O501 1.258 . S
C509 O502 1.266 . S
Co510 O513 1.970 . S
Co510 N527 1.989 . S
Co510 O535 1.967 . S
Co510 O542 1.920 . S
Co511 O514 1.966 . S
Co511 N520 2.022 1_554 S
Co511 N528 1.993 . S
Co511 O536 1.941 1_565 S
C512 O513 1.258 . S
C512 O514 1.263 . S
O513 Co510 1.970 . S
O513 C512 1.258 . S
O514 Co511 1.966 . S
O514 C512 1.263 . S
C515 O516 1.235 . S
C515 O542 1.289 . S
O516 C515 1.235 . S
C517 C519 1.400 . S
C517 N520 1.351 . S
C517 C522 1.501 . S
C518 C519 1.387 . S
C518 N521 1.341 . S
C519 C517 1.400 . S
C519 C518 1.387 . S
N520 Co511 2.022 1_556 S
N520 C517 1.351 . S
N520 N521 1.365 . S
N521 C518 1.341 . S
N521 N520 1.365 . S
N521 H541 0.862 . S
C522 C517 1.501 . S
C522 H523 0.961 . S
C522 H524 0.961 . S
C522 H525 0.960 . S
H523 C522 0.961 . S
H524 C522 0.961 . S
H525 C522 0.960 . S
C526 N527 1.342 . S
C526 C530 1.401 . S
C526 C531 1.499 . S
N527 Co510 1.989 . S
N527 C526 1.342 . S
N527 N528 1.388 . S
N528 Co511 1.993 . S
N528 N527 1.388 . S
N528 C529 1.346 . S
C529 N528 1.346 . S
C529 C530 1.396 . S
C529 C539 1.510 . S
C530 C526 1.401 . S
C530 C529 1.396 . S
C531 C526 1.499 . S
C531 H532 0.959 . S
C531 H533 0.960 . S
C531 H534 0.961 . S
H532 C531 0.959 . S
H533 C531 0.960 . S
H534 C531 0.961 . S
O535 Co510 1.967 . S
O535 C543 1.258 1_565 S
O536 Co511 1.941 1_545 S
O536 C543 1.266 . S
H537 C539 0.959 1_556 S
H538 C539 0.961 1_556 S
C539 C529 1.510 . S
C539 H537 0.959 1_554 S
C539 H538 0.961 1_554 S
C539 H540 0.960 1_554 S
H540 C539 0.960 1_556 S
H541 N521 0.862 . S
O542 Co510 1.920 . S
O542 C515 1.289 . S
C543 O535 1.258 1_545 S
C543 O536 1.266 . S
Co544 O547 1.970 . S
Co544 N561 1.989 . S
Co544 O569 1.967 . S
Co544 O576 1.920 . S
Co545 O548 1.966 . S
Co545 N554 2.022 . S
Co545 N562 1.993 . S
Co545 O570 1.941 . S
C546 O547 1.258 . S
C546 O548 1.263 . S
O547 Co544 1.970 . S
O547 C546 1.258 . S
O548 Co545 1.966 . S
O548 C546 1.263 . S
C549 O550 1.235 . S
C549 O576 1.289 . S
O550 C549 1.235 . S
C551 C553 1.400 . S
C551 N554 1.351 . S
C551 C556 1.501 . S
C552 C553 1.387 . S
C552 N555 1.341 . S
C553 C551 1.400 . S
C553 C552 1.387 . S
N554 Co545 2.022 . S
N554 C551 1.351 . S
N554 N555 1.365 . S
N555 C552 1.341 . S
N555 N554 1.365 . S
N555 H575 0.862 . S
C556 C551 1.501 . S
C556 H557 0.961 . S
C556 H558 0.961 . S
C556 H559 0.960 . S
H557 C556 0.961 . S
H558 C556 0.961 . S
H559 C556 0.960 . S
C560 N561 1.342 . S
C560 C564 1.401 . S
C560 C565 1.499 . S
N561 Co544 1.989 . S
N561 C560 1.342 . S
N561 N562 1.388 . S
N562 Co545 1.993 . S
N562 N561 1.388 . S
N562 C563 1.346 . S
C563 N562 1.346 . S
C563 C564 1.396 . S
C563 C573 1.510 . S
C564 C560 1.401 . S
C564 C563 1.396 . S
C565 C560 1.499 . S
C565 H566 0.959 . S
C565 H567 0.960 . S
C565 H568 0.961 . S
H566 C565 0.959 . S
H567 C565 0.960 . S
H568 C565 0.961 . S
O569 Co544 1.967 . S
O569 C577 1.258 . S
O570 Co545 1.941 . S
O570 C577 1.266 . S
H571 C573 0.959 . S
H572 C573 0.961 . S
C573 C563 1.510 . S
C573 H571 0.959 . S
C573 H572 0.961 . S
C573 H574 0.960 . S
H574 C573 0.960 . S
H575 N555 0.862 . S
O576 Co544 1.920 . S
O576 C549 1.289 . S
C577 O569 1.258 . S
C577 O570 1.266 . S
Co578 O581 1.970 . S
Co578 N595 1.989 . S
Co578 O603 1.967 . S
Co578 O610 1.920 1_556 S
Co579 O582 1.966 . S
Co579 N588 2.022 . S
Co579 N596 1.993 . S
Co579 O604 1.941 . S
C580 O581 1.258 . S
C580 O582 1.263 . S
O581 Co578 1.970 . S
O581 C580 1.258 . S
O582 Co579 1.966 . S
O582 C580 1.263 . S
C583 O584 1.235 . S
C583 O610 1.289 . S
O584 C583 1.235 . S
C585 C587 1.400 . S
C585 N588 1.351 . S
C585 C590 1.501 . S
C586 C587 1.387 . S
C586 N589 1.341 . S
C587 C585 1.400 . S
C587 C586 1.387 . S
N588 Co579 2.022 . S
N588 C585 1.351 . S
N588 N589 1.365 . S
N589 C586 1.341 . S
N589 N588 1.365 . S
N589 H609 0.862 . S
C590 C585 1.501 . S
C590 H591 0.961 . S
C590 H592 0.961 . S
C590 H593 0.960 . S
H591 C590 0.961 . S
H592 C590 0.961 . S
H593 C590 0.960 . S
C594 N595 1.342 . S
C594 C598 1.401 . S
C594 C599 1.499 . S
N595 Co578 1.989 . S
N595 C594 1.342 . S
N595 N596 1.388 . S
N596 Co579 1.993 . S
N596 N595 1.388 . S
N596 C597 1.346 . S
C597 N596 1.346 . S
C597 C598 1.396 . S
C597 C607 1.510 . S
C598 C594 1.401 . S
C598 C597 1.396 . S
C599 C594 1.499 . S
C599 H600 0.959 1_556 S
C599 H601 0.960 . S
C599 H602 0.961 1_556 S
H600 C599 0.959 1_554 S
H601 C599 0.960 . S
H602 C599 0.961 1_554 S
O603 Co578 1.967 . S
O603 C611 1.258 . S
O604 Co579 1.941 . S
O604 C611 1.266 . S
H605 C607 0.959 . S
H606 C607 0.961 . S
C607 C597 1.510 . S
C607 H605 0.959 . S
C607 H606 0.961 . S
C607 H608 0.960 . S
H608 C607 0.960 . S
H609 N589 0.862 . S
O610 Co578 1.920 1_554 S
O610 C583 1.289 . S
C611 O603 1.258 . S
C611 O604 1.266 . S
Co612 O615 1.970 . S
Co612 N629 1.989 . S
Co612 O637 1.967 . S
Co612 O644 1.920 . S
Co613 O616 1.966 . S
Co613 N622 2.022 . S
Co613 N630 1.993 . S
Co613 O638 1.941 1_556 S
C614 O615 1.258 . S
C614 O616 1.263 1_554 S
O615 Co612 1.970 . S
O615 C614 1.258 . S
O616 Co613 1.966 . S
O616 C614 1.263 1_556 S
C617 O618 1.235 . S
C617 O644 1.289 . S
O618 C617 1.235 . S
C619 C621 1.400 . S
C619 N622 1.351 . S
C619 C624 1.501 . S
C620 C621 1.387 . S
C620 N623 1.341 . S
C621 C619 1.400 . S
C621 C620 1.387 . S
N622 Co613 2.022 . S
N622 C619 1.351 . S
N622 N623 1.365 . S
N623 C620 1.341 . S
N623 N622 1.365 . S
N623 H643 0.862 . S
C624 C619 1.501 . S
C624 H625 0.961 . S
C624 H626 0.961 . S
C624 H627 0.960 . S
H625 C624 0.961 . S
H626 C624 0.961 . S
H627 C624 0.960 . S
C628 N629 1.342 . S
C628 C632 1.401 1_554 S
C628 C633 1.499 . S
N629 Co612 1.989 . S
N629 C628 1.342 . S
N629 N630 1.388 1_554 S
N630 Co613 1.993 . S
N630 N629 1.388 1_556 S
N630 C631 1.346 . S
C631 N630 1.346 . S
C631 C632 1.396 . S
C631 C641 1.510 . S
C632 C628 1.401 1_556 S
C632 C631 1.396 . S
C633 C628 1.499 . S
C633 H634 0.959 . S
C633 H635 0.960 . S
C633 H636 0.961 . S
H634 C633 0.959 . S
H635 C633 0.960 . S
H636 C633 0.961 . S
O637 Co612 1.967 . S
O637 C645 1.258 . S
O638 Co613 1.941 1_554 S
O638 C645 1.266 . S
H639 C641 0.959 . S
H640 C641 0.961 . S
C641 C631 1.510 . S
C641 H639 0.959 . S
C641 H640 0.961 . S
C641 H642 0.960 . S
H642 C641 0.960 . S
H643 N623 0.862 . S
O644 Co612 1.920 . S
O644 C617 1.289 . S
C645 O637 1.258 . S
C645 O638 1.266 . S
Co646 O649 1.970 . S
Co646 N663 1.989 . S
Co646 O671 1.967 . S
Co646 O678 1.920 . S
Co647 O650 1.966 . S
Co647 N656 2.022 1_554 S
Co647 N664 1.993 . S
Co647 O672 1.941 . S
C648 O649 1.258 . S
C648 O650 1.263 . S
O649 Co646 1.970 . S
O649 C648 1.258 . S
O650 Co647 1.966 . S
O650 C648 1.263 . S
C651 O652 1.235 . S
C651 O678 1.289 . S
O652 C651 1.235 . S
C653 C655 1.400 . S
C653 N656 1.351 . S
C653 C658 1.501 . S
C654 C655 1.387 . S
C654 N657 1.341 . S
C655 C653 1.400 . S
C655 C654 1.387 . S
N656 Co647 2.022 1_556 S
N656 C653 1.351 . S
N656 N657 1.365 . S
N657 C654 1.341 . S
N657 N656 1.365 . S
N657 H677 0.862 . S
C658 C653 1.501 . S
C658 H659 0.961 . S
C658 H660 0.961 . S
C658 H661 0.960 . S
H659 C658 0.961 . S
H660 C658 0.961 . S
H661 C658 0.960 . S
C662 N663 1.342 . S
C662 C666 1.401 . S
C662 C667 1.499 . S
N663 Co646 1.989 . S
N663 C662 1.342 . S
N663 N664 1.388 . S
N664 Co647 1.993 . S
N664 N663 1.388 . S
N664 C665 1.346 . S
C665 N664 1.346 . S
C665 C666 1.396 . S
C665 C675 1.510 . S
C666 C662 1.401 . S
C666 C665 1.396 . S
C667 C662 1.499 . S
C667 H668 0.959 . S
C667 H669 0.960 . S
C667 H670 0.961 . S
H668 C667 0.959 . S
H669 C667 0.960 . S
H670 C667 0.961 . S
O671 Co646 1.967 . S
O671 C679 1.258 . S
O672 Co647 1.941 . S
O672 C679 1.266 . S
H673 C675 0.959 1_556 S
H674 C675 0.961 1_556 S
C675 C665 1.510 . S
C675 H673 0.959 1_554 S
C675 H674 0.961 1_554 S
C675 H676 0.960 1_554 S
H676 C675 0.960 1_556 S
H677 N657 0.862 . S
O678 Co646 1.920 . S
O678 C651 1.289 . S
C679 O671 1.258 . S
C679 O672 1.266 . S
Co680 O683 1.970 . S
Co680 N697 1.989 . S
Co680 O705 1.967 . S
Co680 O712 1.920 . S
Co681 O684 1.966 . S
Co681 N690 2.022 . S
Co681 N698 1.993 . S
Co681 O706 1.941 . S
C682 O683 1.258 . S
C682 O684 1.263 . S
O683 Co680 1.970 . S
O683 C682 1.258 . S
O684 Co681 1.966 . S
O684 C682 1.263 . S
C685 O686 1.235 . S
C685 O712 1.289 . S
O686 C685 1.235 . S
C687 C689 1.400 . S
C687 N690 1.351 . S
C687 C692 1.501 . S
C688 C689 1.387 . S
C688 N691 1.341 . S
C689 C687 1.400 . S
C689 C688 1.387 . S
N690 Co681 2.022 . S
N690 C687 1.351 . S
N690 N691 1.365 . S
N691 C688 1.341 . S
N691 N690 1.365 . S
N691 H711 0.862 . S
C692 C687 1.501 . S
C692 H693 0.961 . S
C692 H694 0.961 . S
C692 H695 0.960 . S
H693 C692 0.961 . S
H694 C692 0.961 . S
H695 C692 0.960 . S
C696 N697 1.342 . S
C696 C700 1.401 . S
C696 C701 1.499 . S
N697 Co680 1.989 . S
N697 C696 1.342 . S
N697 N698 1.388 . S
N698 Co681 1.993 . S
N698 N697 1.388 . S
N698 C699 1.346 . S
C699 N698 1.346 . S
C699 C700 1.396 . S
C699 C709 1.510 . S
C700 C696 1.401 . S
C700 C699 1.396 . S
C701 C696 1.499 . S
C701 H702 0.959 . S
C701 H703 0.960 . S
C701 H704 0.961 . S
H702 C701 0.959 . S
H703 C701 0.960 . S
H704 C701 0.961 . S
O705 Co680 1.967 . S
O705 C713 1.258 . S
O706 Co681 1.941 . S
O706 C713 1.266 . S
H707 C709 0.959 . S
H708 C709 0.961 . S
C709 C699 1.510 . S
C709 H707 0.959 . S
C709 H708 0.961 . S
C709 H710 0.960 . S
H710 C709 0.960 . S
H711 N691 0.862 . S
O712 Co680 1.920 . S
O712 C685 1.289 . S
C713 O705 1.258 . S
C713 O706 1.266 . S
Co714 O717 1.970 . S
Co714 N731 1.989 . S
Co714 O739 1.967 . S
Co714 O746 1.920 . S
Co715 O718 1.966 . S
Co715 N724 2.022 1_556 S
Co715 N732 1.993 . S
Co715 O740 1.941 . S
C716 O717 1.258 . S
C716 O718 1.263 . S
O717 Co714 1.970 . S
O717 C716 1.258 . S
O718 Co715 1.966 . S
O718 C716 1.263 . S
C719 O720 1.235 . S
C719 O746 1.289 . S
O720 C719 1.235 . S
C721 C723 1.400 . S
C721 N724 1.351 . S
C721 C726 1.501 . S
C722 C723 1.387 . S
C722 N725 1.341 . S
C723 C721 1.400 . S
C723 C722 1.387 . S
N724 Co715 2.022 1_554 S
N724 C721 1.351 . S
N724 N725 1.365 . S
N725 C722 1.341 . S
N725 N724 1.365 . S
N725 H745 0.862 . S
C726 C721 1.501 . S
C726 H727 0.961 . S
C726 H728 0.961 . S
C726 H729 0.960 . S
H727 C726 0.961 . S
H728 C726 0.961 . S
H729 C726 0.960 . S
C730 N731 1.342 . S
C730 C734 1.401 . S
C730 C735 1.499 . S
N731 Co714 1.989 . S
N731 C730 1.342 . S
N731 N732 1.388 . S
N732 Co715 1.993 . S
N732 N731 1.388 . S
N732 C733 1.346 . S
C733 N732 1.346 . S
C733 C734 1.396 . S
C733 C743 1.510 . S
C734 C730 1.401 . S
C734 C733 1.396 . S
C735 C730 1.499 . S
C735 H736 0.959 . S
C735 H737 0.960 . S
C735 H738 0.961 . S
H736 C735 0.959 . S
H737 C735 0.960 . S
H738 C735 0.961 . S
O739 Co714 1.967 . S
O739 C747 1.258 . S
O740 Co715 1.941 . S
O740 C747 1.266 . S
H741 C743 0.959 1_554 S
H742 C743 0.961 1_554 S
C743 C733 1.510 . S
C743 H741 0.959 1_556 S
C743 H742 0.961 1_556 S
C743 H744 0.960 1_556 S
H744 C743 0.960 1_554 S
H745 N725 0.862 . S
O746 Co714 1.920 . S
O746 C719 1.289 . S
C747 O739 1.258 . S
C747 O740 1.266 . S
Co748 O751 1.970 . S
Co748 N765 1.989 . S
Co748 O773 1.967 . S
Co748 O780 1.920 . S
Co749 O752 1.966 . S
Co749 N758 2.022 . S
Co749 N766 1.993 . S
Co749 O774 1.941 1_554 S
C750 O751 1.258 . S
C750 O752 1.263 1_556 S
O751 Co748 1.970 . S
O751 C750 1.258 . S
O752 Co749 1.966 . S
O752 C750 1.263 1_554 S
C753 O754 1.235 . S
C753 O780 1.289 . S
O754 C753 1.235 . S
C755 C757 1.400 . S
C755 N758 1.351 . S
C755 C760 1.501 . S
C756 C757 1.387 . S
C756 N759 1.341 . S
C757 C755 1.400 . S
C757 C756 1.387 . S
N758 Co749 2.022 . S
N758 C755 1.351 . S
N758 N759 1.365 . S
N759 C756 1.341 . S
N759 N758 1.365 . S
N759 H779 0.862 . S
C760 C755 1.501 . S
C760 H761 0.961 . S
C760 H762 0.961 . S
C760 H763 0.960 . S
H761 C760 0.961 . S
H762 C760 0.961 . S
H763 C760 0.960 . S
C764 N765 1.342 . S
C764 C768 1.401 1_556 S
C764 C769 1.499 . S
N765 Co748 1.989 . S
N765 C764 1.342 . S
N765 N766 1.388 1_556 S
N766 Co749 1.993 . S
N766 N765 1.388 1_554 S
N766 C767 1.346 . S
C767 N766 1.346 . S
C767 C768 1.396 . S
C767 C777 1.510 . S
C768 C764 1.401 1_554 S
C768 C767 1.396 . S
C769 C764 1.499 . S
C769 H770 0.959 . S
C769 H771 0.960 . S
C769 H772 0.961 . S
H770 C769 0.959 . S
H771 C769 0.960 . S
H772 C769 0.961 . S
O773 Co748 1.967 . S
O773 C781 1.258 . S
O774 Co749 1.941 1_556 S
O774 C781 1.266 . S
H775 C777 0.959 . S
H776 C777 0.961 . S
C777 C767 1.510 . S
C777 H775 0.959 . S
C777 H776 0.961 . S
C777 H778 0.960 . S
H778 C777 0.960 . S
H779 N759 0.862 . S
O780 Co748 1.920 . S
O780 C753 1.289 . S
C781 O773 1.258 . S
C781 O774 1.266 . S
Co782 O785 1.970 . S
Co782 N799 1.989 . S
Co782 O807 1.967 . S
Co782 O814 1.920 1_554 S
Co783 O786 1.966 . S
Co783 N792 2.022 . S
Co783 N800 1.993 . S
Co783 O808 1.941 . S
C784 O785 1.258 . S
C784 O786 1.263 . S
O785 Co782 1.970 . S
O785 C784 1.258 . S
O786 Co783 1.966 . S
O786 C784 1.263 . S
C787 O788 1.235 . S
C787 O814 1.289 . S
O788 C787 1.235 . S
C789 C791 1.400 . S
C789 N792 1.351 . S
C789 C794 1.501 . S
C790 C791 1.387 . S
C790 N793 1.341 . S
C791 C789 1.400 . S
C791 C790 1.387 . S
N792 Co783 2.022 . S
N792 C789 1.351 . S
N792 N793 1.365 . S
N793 C790 1.341 . S
N793 N792 1.365 . S
N793 H813 0.862 . S
C794 C789 1.501 . S
C794 H795 0.961 . S
C794 H796 0.961 . S
C794 H797 0.960 . S
H795 C794 0.961 . S
H796 C794 0.961 . S
H797 C794 0.960 . S
C798 N799 1.342 . S
C798 C802 1.401 . S
C798 C803 1.499 . S
N799 Co782 1.989 . S
N799 C798 1.342 . S
N799 N800 1.388 . S
N800 Co783 1.993 . S
N800 N799 1.388 . S
N800 C801 1.346 . S
C801 N800 1.346 . S
C801 C802 1.396 . S
C801 C811 1.510 . S
C802 C798 1.401 . S
C802 C801 1.396 . S
C803 C798 1.499 . S
C803 H804 0.959 1_554 S
C803 H805 0.960 . S
C803 H806 0.961 1_554 S
H804 C803 0.959 1_556 S
H805 C803 0.960 . S
H806 C803 0.961 1_556 S
O807 Co782 1.967 . S
O807 C815 1.258 . S
O808 Co783 1.941 . S
O808 C815 1.266 . S
H809 C811 0.959 . S
H810 C811 0.961 . S
C811 C801 1.510 . S
C811 H809 0.959 . S
C811 H810 0.961 . S
C811 H812 0.960 . S
H812 C811 0.960 . S
H813 N793 0.862 . S
O814 Co782 1.920 1_556 S
O814 C787 1.289 . S
C815 O807 1.258 . S
C815 O808 1.266 . S
Co816 O819 1.970 . S
Co816 N833 1.989 . S
Co816 O841 1.967 . S
Co816 O848 1.920 . S
Co817 O820 1.966 . S
Co817 N826 2.022 . S
Co817 N834 1.993 . S
Co817 O842 1.941 . S
C818 O819 1.258 . S
C818 O820 1.263 . S
O819 Co816 1.970 . S
O819 C818 1.258 . S
O820 Co817 1.966 . S
O820 C818 1.263 . S
C821 O822 1.235 . S
C821 O848 1.289 . S
O822 C821 1.235 . S
C823 C825 1.400 . S
C823 N826 1.351 . S
C823 C828 1.501 . S
C824 C825 1.387 . S
C824 N827 1.341 . S
C825 C823 1.400 . S
C825 C824 1.387 . S
N826 Co817 2.022 . S
N826 C823 1.351 . S
N826 N827 1.365 . S
N827 C824 1.341 . S
N827 N826 1.365 . S
N827 H847 0.862 . S
C828 C823 1.501 . S
C828 H829 0.961 . S
C828 H830 0.961 . S
C828 H831 0.960 . S
H829 C828 0.961 . S
H830 C828 0.961 . S
H831 C828 0.960 . S
C832 N833 1.342 . S
C832 C836 1.401 . S
C832 C837 1.499 . S
N833 Co816 1.989 . S
N833 C832 1.342 . S
N833 N834 1.388 . S
N834 Co817 1.993 . S
N834 N833 1.388 . S
N834 C835 1.346 . S
C835 N834 1.346 . S
C835 C836 1.396 . S
C835 C845 1.510 . S
C836 C832 1.401 . S
C836 C835 1.396 . S
C837 C832 1.499 . S
C837 H838 0.959 . S
C837 H839 0.960 . S
C837 H840 0.961 . S
H838 C837 0.959 . S
H839 C837 0.960 . S
H840 C837 0.961 . S
O841 Co816 1.967 . S
O841 C849 1.258 . S
O842 Co817 1.941 . S
O842 C849 1.266 . S
H843 C845 0.959 . S
H844 C845 0.961 . S
C845 C835 1.510 . S
C845 H843 0.959 . S
C845 H844 0.961 . S
C845 H846 0.960 . S
H846 C845 0.960 . S
H847 N827 0.862 . S
O848 Co816 1.920 . S
O848 C821 1.289 . S
C849 O841 1.258 . S
C849 O842 1.266 . S
Co850 O853 1.970 . S
Co850 N867 1.989 . S
Co850 O875 1.967 . S
Co850 O882 1.920 1_554 S
Co851 O854 1.966 . S
Co851 N860 2.022 . S
Co851 N868 1.993 . S
Co851 O876 1.941 . S
C852 O853 1.258 . S
C852 O854 1.263 . S
O853 Co850 1.970 . S
O853 C852 1.258 . S
O854 Co851 1.966 . S
O854 C852 1.263 . S
C855 O856 1.235 . S
C855 O882 1.289 . S
O856 C855 1.235 . S
C857 C859 1.400 . S
C857 N860 1.351 . S
C857 C862 1.501 . S
C858 C859 1.387 . S
C858 N861 1.341 . S
C859 C857 1.400 . S
C859 C858 1.387 . S
N860 Co851 2.022 . S
N860 C857 1.351 . S
N860 N861 1.365 . S
N861 C858 1.341 . S
N861 N860 1.365 . S
N861 H881 0.862 . S
C862 C857 1.501 . S
C862 H863 0.961 . S
C862 H864 0.961 . S
C862 H865 0.960 . S
H863 C862 0.961 . S
H864 C862 0.961 . S
H865 C862 0.960 . S
C866 N867 1.342 . S
C866 C870 1.401 . S
C866 C871 1.499 . S
N867 Co850 1.989 . S
N867 C866 1.342 . S
N867 N868 1.388 . S
N868 Co851 1.993 . S
N868 N867 1.388 . S
N868 C869 1.346 . S
C869 N868 1.346 . S
C869 C870 1.396 . S
C869 C879 1.510 . S
C870 C866 1.401 . S
C870 C869 1.396 . S
C871 C866 1.499 . S
C871 H872 0.959 1_554 S
C871 H873 0.960 . S
C871 H874 0.961 1_554 S
H872 C871 0.959 1_556 S
H873 C871 0.960 . S
H874 C871 0.961 1_556 S
O875 Co850 1.967 . S
O875 C883 1.258 . S
O876 Co851 1.941 . S
O876 C883 1.266 . S
H877 C879 0.959 . S
H878 C879 0.961 . S
C879 C869 1.510 . S
C879 H877 0.959 . S
C879 H878 0.961 . S
C879 H880 0.960 . S
H880 C879 0.960 . S
H881 N861 0.862 . S
O882 Co850 1.920 1_556 S
O882 C855 1.289 . S
C883 O875 1.258 . S
C883 O876 1.266 . S
Co884 O887 1.970 . S
Co884 N901 1.989 . S
Co884 O909 1.967 . S
Co884 O916 1.920 . S
Co885 O888 1.966 . S
Co885 N894 2.022 . S
Co885 N902 1.993 . S
Co885 O910 1.941 1_554 S
C886 O887 1.258 . S
C886 O888 1.263 1_556 S
O887 Co884 1.970 . S
O887 C886 1.258 . S
O888 Co885 1.966 . S
O888 C886 1.263 1_554 S
C889 O890 1.235 . S
C889 O916 1.289 . S
O890 C889 1.235 . S
C891 C893 1.400 . S
C891 N894 1.351 . S
C891 C896 1.501 . S
C892 C893 1.387 . S
C892 N895 1.341 . S
C893 C891 1.400 . S
C893 C892 1.387 . S
N894 Co885 2.022 . S
N894 C891 1.351 . S
N894 N895 1.365 . S
N895 C892 1.341 . S
N895 N894 1.365 . S
N895 H915 0.862 . S
C896 C891 1.501 . S
C896 H897 0.961 . S
C896 H898 0.961 . S
C896 H899 0.960 . S
H897 C896 0.961 . S
H898 C896 0.961 . S
H899 C896 0.960 . S
C900 N901 1.342 . S
C900 C904 1.401 1_556 S
C900 C905 1.499 . S
N901 Co884 1.989 . S
N901 C900 1.342 . S
N901 N902 1.388 1_556 S
N902 Co885 1.993 . S
N902 N901 1.388 1_554 S
N902 C903 1.346 . S
C903 N902 1.346 . S
C903 C904 1.396 . S
C903 C913 1.510 . S
C904 C900 1.401 1_554 S
C904 C903 1.396 . S
C905 C900 1.499 . S
C905 H906 0.959 . S
C905 H907 0.960 . S
C905 H908 0.961 . S
H906 C905 0.959 . S
H907 C905 0.960 . S
H908 C905 0.961 . S
O909 Co884 1.967 . S
O909 C917 1.258 . S
O910 Co885 1.941 1_556 S
O910 C917 1.266 . S
H911 C913 0.959 . S
H912 C913 0.961 . S
C913 C903 1.510 . S
C913 H911 0.959 . S
C913 H912 0.961 . S
C913 H914 0.960 . S
H914 C913 0.960 . S
H915 N895 0.862 . S
O916 Co884 1.920 . S
O916 C889 1.289 . S
C917 O909 1.258 . S
C917 O910 1.266 . S
Co918 O921 1.970 . S
Co918 N935 1.989 . S
Co918 O943 1.967 . S
Co918 O950 1.920 . S
Co919 O922 1.966 . S
Co919 N928 2.022 1_556 S
Co919 N936 1.993 . S
Co919 O944 1.941 . S
C920 O921 1.258 . S
C920 O922 1.263 . S
O921 Co918 1.970 . S
O921 C920 1.258 . S
O922 Co919 1.966 . S
O922 C920 1.263 . S
C923 O924 1.235 . S
C923 O950 1.289 . S
O924 C923 1.235 . S
C925 C927 1.400 . S
C925 N928 1.351 . S
C925 C930 1.501 . S
C926 C927 1.387 . S
C926 N929 1.341 . S
C927 C925 1.400 . S
C927 C926 1.387 . S
N928 Co919 2.022 1_554 S
N928 C925 1.351 . S
N928 N929 1.365 . S
N929 C926 1.341 . S
N929 N928 1.365 . S
N929 H949 0.862 . S
C930 C925 1.501 . S
C930 H931 0.961 . S
C930 H932 0.961 . S
C930 H933 0.960 . S
H931 C930 0.961 . S
H932 C930 0.961 . S
H933 C930 0.960 . S
C934 N935 1.342 . S
C934 C938 1.401 . S
C934 C939 1.499 . S
N935 Co918 1.989 . S
N935 C934 1.342 . S
N935 N936 1.388 . S
N936 Co919 1.993 . S
N936 N935 1.388 . S
N936 C937 1.346 . S
C937 N936 1.346 . S
C937 C938 1.396 . S
C937 C947 1.510 . S
C938 C934 1.401 . S
C938 C937 1.396 . S
C939 C934 1.499 . S
C939 H940 0.959 . S
C939 H941 0.960 . S
C939 H942 0.961 . S
H940 C939 0.959 . S
H941 C939 0.960 . S
H942 C939 0.961 . S
O943 Co918 1.967 . S
O943 C951 1.258 . S
O944 Co919 1.941 . S
O944 C951 1.266 . S
H945 C947 0.959 1_554 S
H946 C947 0.961 1_554 S
C947 C937 1.510 . S
C947 H945 0.959 1_556 S
C947 H946 0.961 1_556 S
C947 H948 0.960 1_556 S
H948 C947 0.960 1_554 S
H949 N929 0.862 . S
O950 Co918 1.920 . S
O950 C923 1.289 . S
C951 O943 1.258 . S
C951 O944 1.266 . S
Co952 O955 1.970 . S
Co952 N969 1.989 . S
Co952 O977 1.967 . S
Co952 O984 1.920 . S
Co953 O956 1.966 . S
Co953 N962 2.022 . S
Co953 N970 1.993 . S
Co953 O978 1.941 . S
C954 O955 1.258 . S
C954 O956 1.263 . S
O955 Co952 1.970 . S
O955 C954 1.258 . S
O956 Co953 1.966 . S
O956 C954 1.263 . S
C957 O958 1.235 . S
C957 O984 1.289 . S
O958 C957 1.235 . S
C959 C961 1.400 . S
C959 N962 1.351 . S
C959 C964 1.501 . S
C960 C961 1.387 . S
C960 N963 1.341 . S
C961 C959 1.400 . S
C961 C960 1.387 . S
N962 Co953 2.022 . S
N962 C959 1.351 . S
N962 N963 1.365 . S
N963 C960 1.341 . S
N963 N962 1.365 . S
N963 H983 0.862 . S
C964 C959 1.501 . S
C964 H965 0.961 . S
C964 H966 0.961 . S
C964 H967 0.960 . S
H965 C964 0.961 . S
H966 C964 0.961 . S
H967 C964 0.960 . S
C968 N969 1.342 . S
C968 C972 1.401 . S
C968 C973 1.499 . S
N969 Co952 1.989 . S
N969 C968 1.342 . S
N969 N970 1.388 . S
N970 Co953 1.993 . S
N970 N969 1.388 . S
N970 C971 1.346 . S
C971 N970 1.346 . S
C971 C972 1.396 . S
C971 C981 1.510 . S
C972 C968 1.401 . S
C972 C971 1.396 . S
C973 C968 1.499 . S
C973 H974 0.959 . S
C973 H975 0.960 . S
C973 H976 0.961 . S
H974 C973 0.959 . S
H975 C973 0.960 . S
H976 C973 0.961 . S
O977 Co952 1.967 . S
O977 C985 1.258 . S
O978 Co953 1.941 . S
O978 C985 1.266 . S
H979 C981 0.959 . S
H980 C981 0.961 . S
C981 C971 1.510 . S
C981 H979 0.959 . S
C981 H980 0.961 . S
C981 H982 0.960 . S
H982 C981 0.960 . S
H983 N963 0.862 . S
O984 Co952 1.920 . S
O984 C957 1.289 . S
C985 O977 1.258 . S
C985 O978 1.266 . S
Co986 O989 1.970 . S
Co986 N1003 1.989 . S
Co986 O1011 1.967 . S
Co986 O1018 1.920 . S
Co987 O990 1.966 . S
Co987 N996 2.022 1_554 S
Co987 N1004 1.993 . S
Co987 O1012 1.941 . S
C988 O989 1.258 . S
C988 O990 1.263 . S
O989 Co986 1.970 . S
O989 C988 1.258 . S
O990 Co987 1.966 . S
O990 C988 1.263 . S
C991 O992 1.235 . S
C991 O1018 1.289 . S
O992 C991 1.235 . S
C993 C995 1.400 . S
C993 N996 1.351 . S
C993 C998 1.501 . S
C994 C995 1.387 . S
C994 N997 1.341 . S
C995 C993 1.400 . S
C995 C994 1.387 . S
N996 Co987 2.022 1_556 S
N996 C993 1.351 . S
N996 N997 1.365 . S
N997 C994 1.341 . S
N997 N996 1.365 . S
N997 H1017 0.862 . S
C998 C993 1.501 . S
C998 H999 0.961 . S
C998 H1000 0.961 . S
C998 H1001 0.960 . S
H999 C998 0.961 . S
H1000 C998 0.961 . S
H1001 C998 0.960 . S
C1002 N1003 1.342 . S
C1002 C1006 1.401 . S
C1002 C1007 1.499 . S
N1003 Co986 1.989 . S
N1003 C1002 1.342 . S
N1003 N1004 1.388 . S
N1004 Co987 1.993 . S
N1004 N1003 1.388 . S
N1004 C1005 1.346 . S
C1005 N1004 1.346 . S
C1005 C1006 1.396 . S
C1005 C1015 1.510 . S
C1006 C1002 1.401 . S
C1006 C1005 1.396 . S
C1007 C1002 1.499 . S
C1007 H1008 0.959 . S
C1007 H1009 0.960 . S
C1007 H1010 0.961 . S
H1008 C1007 0.959 . S
H1009 C1007 0.960 . S
H1010 C1007 0.961 . S
O1011 Co986 1.967 . S
O1011 C1019 1.258 . S
O1012 Co987 1.941 . S
O1012 C1019 1.266 . S
H1013 C1015 0.959 1_556 S
H1014 C1015 0.961 1_556 S
C1015 C1005 1.510 . S
C1015 H1013 0.959 1_554 S
C1015 H1014 0.961 1_554 S
C1015 H1016 0.960 1_554 S
H1016 C1015 0.960 1_556 S
H1017 N997 0.862 . S
O1018 Co986 1.920 . S
O1018 C991 1.289 . S
C1019 O1011 1.258 . S
C1019 O1012 1.266 . S
Co1020 O1023 1.970 . S
Co1020 N1037 1.989 . S
Co1020 O1045 1.967 . S
Co1020 O1052 1.920 . S
Co1021 O1024 1.966 . S
Co1021 N1030 2.022 . S
Co1021 N1038 1.993 . S
Co1021 O1046 1.941 1_556 S
C1022 O1023 1.258 . S
C1022 O1024 1.263 1_554 S
O1023 Co1020 1.970 . S
O1023 C1022 1.258 . S
O1024 Co1021 1.966 . S
O1024 C1022 1.263 1_556 S
C1025 O1026 1.235 . S
C1025 O1052 1.289 . S
O1026 C1025 1.235 . S
C1027 C1029 1.400 . S
C1027 N1030 1.351 . S
C1027 C1032 1.501 . S
C1028 C1029 1.387 . S
C1028 N1031 1.341 . S
C1029 C1027 1.400 . S
C1029 C1028 1.387 . S
N1030 Co1021 2.022 . S
N1030 C1027 1.351 . S
N1030 N1031 1.365 . S
N1031 C1028 1.341 . S
N1031 N1030 1.365 . S
N1031 H1051 0.862 . S
C1032 C1027 1.501 . S
C1032 H1033 0.961 . S
C1032 H1034 0.961 . S
C1032 H1035 0.960 . S
H1033 C1032 0.961 . S
H1034 C1032 0.961 . S
H1035 C1032 0.960 . S
C1036 N1037 1.342 . S
C1036 C1040 1.401 1_554 S
C1036 C1041 1.499 . S
N1037 Co1020 1.989 . S
N1037 C1036 1.342 . S
N1037 N1038 1.388 1_554 S
N1038 Co1021 1.993 . S
N1038 N1037 1.388 1_556 S
N1038 C1039 1.346 . S
C1039 N1038 1.346 . S
C1039 C1040 1.396 . S
C1039 C1049 1.510 . S
C1040 C1036 1.401 1_556 S
C1040 C1039 1.396 . S
C1041 C1036 1.499 . S
C1041 H1042 0.959 . S
C1041 H1043 0.960 . S
C1041 H1044 0.961 . S
H1042 C1041 0.959 . S
H1043 C1041 0.960 . S
H1044 C1041 0.961 . S
O1045 Co1020 1.967 . S
O1045 C1053 1.258 . S
O1046 Co1021 1.941 1_554 S
O1046 C1053 1.266 . S
H1047 C1049 0.959 . S
H1048 C1049 0.961 . S
C1049 C1039 1.510 . S
C1049 H1047 0.959 . S
C1049 H1048 0.961 . S
C1049 H1050 0.960 . S
H1050 C1049 0.960 . S
H1051 N1031 0.862 . S
O1052 Co1020 1.920 . S
O1052 C1025 1.289 . S
C1053 O1045 1.258 . S
C1053 O1046 1.266 . S
Co1054 O1057 1.970 . S
Co1054 N1071 1.989 . S
Co1054 O1079 1.967 . S
Co1054 O1086 1.920 1_556 S
Co1055 O1058 1.966 . S
Co1055 N1064 2.022 . S
Co1055 N1072 1.993 . S
Co1055 O1080 1.941 . S
C1056 O1057 1.258 . S
C1056 O1058 1.263 . S
O1057 Co1054 1.970 . S
O1057 C1056 1.258 . S
O1058 Co1055 1.966 . S
O1058 C1056 1.263 . S
C1059 O1060 1.235 . S
C1059 O1086 1.289 . S
O1060 C1059 1.235 . S
C1061 C1063 1.400 . S
C1061 N1064 1.351 . S
C1061 C1066 1.501 . S
C1062 C1063 1.387 . S
C1062 N1065 1.341 . S
C1063 C1061 1.400 . S
C1063 C1062 1.387 . S
N1064 Co1055 2.022 . S
N1064 C1061 1.351 . S
N1064 N1065 1.365 . S
N1065 C1062 1.341 . S
N1065 N1064 1.365 . S
N1065 H1085 0.862 . S
C1066 C1061 1.501 . S
C1066 H1067 0.961 . S
C1066 H1068 0.961 . S
C1066 H1069 0.960 . S
H1067 C1066 0.961 . S
H1068 C1066 0.961 . S
H1069 C1066 0.960 . S
C1070 N1071 1.342 . S
C1070 C1074 1.401 . S
C1070 C1075 1.499 . S
N1071 Co1054 1.989 . S
N1071 C1070 1.342 . S
N1071 N1072 1.388 . S
N1072 Co1055 1.993 . S
N1072 N1071 1.388 . S
N1072 C1073 1.346 . S
C1073 N1072 1.346 . S
C1073 C1074 1.396 . S
C1073 C1083 1.510 . S
C1074 C1070 1.401 . S
C1074 C1073 1.396 . S
C1075 C1070 1.499 . S
C1075 H1076 0.959 1_556 S
C1075 H1077 0.960 . S
C1075 H1078 0.961 1_556 S
H1076 C1075 0.959 1_554 S
H1077 C1075 0.960 . S
H1078 C1075 0.961 1_554 S
O1079 Co1054 1.967 . S
O1079 C1087 1.258 . S
O1080 Co1055 1.941 . S
O1080 C1087 1.266 . S
H1081 C1083 0.959 . S
H1082 C1083 0.961 . S
C1083 C1073 1.510 . S
C1083 H1081 0.959 . S
C1083 H1082 0.961 . S
C1083 H1084 0.960 . S
H1084 C1083 0.960 . S
H1085 N1065 0.862 . S
O1086 Co1054 1.920 1_554 S
O1086 C1059 1.289 . S
C1087 O1079 1.258 . S
C1087 O1080 1.266 . S
C1022 C2 1.800 . S
C36 C512 1.800 1_455 S
C70 C954 1.800 . S
C104 C444 1.800 . S
C886 C138 1.800 . S
C376 C172 1.800 . S
C206 C818 1.800 . S
C308 C240 1.800 1_655 S
C750 C274 1.800 . S
C682 C342 1.800 . S
C410 C614 1.800 . S
C546 C478 1.800 . S
C1056 C580 1.800 . S
C988 C648 1.800 1_455 S
C920 C716 1.800 1_455 S
C852 C784 1.800 . S
C5 C9 2.797 . S
C39 C43 2.797 . S
C73 C77 2.797 1_556 S
C107 C111 2.797 . S
C141 C145 2.797 . S
C175 C179 2.797 . S
C213 C209 2.797 1_556 S
C243 C247 2.797 . S
C277 C281 2.797 . S
C315 C311 2.797 . S
C345 C349 2.797 1_554 S
C379 C383 2.797 . S
C413 C417 2.797 . S
C451 C447 2.797 . S
C481 C485 2.797 1_556 S
C519 C515 2.797 . S
C553 C549 2.797 1_554 S
C583 C587 2.797 . S
C621 C617 2.797 . S
C655 C651 2.797 . S
C689 C685 2.797 1_556 S
C723 C719 2.797 . S
C757 C753 2.797 . S
C791 C787 2.797 . S
C825 C821 2.797 1_556 S
C859 C855 2.797 . S
C889 C893 2.797 . S
C927 C923 2.797 . S
C961 C957 2.797 1_554 S
C995 C991 2.797 . S
C1025 C1029 2.797 . S
C1059 C1063 2.797 . S
C237 C33 2.629 . S
C271 C67 2.629 1_565 S
C101 C169 2.629 . S
C203 C135 2.629 1_544 S
C305 C509 2.629 . S
C339 C543 2.629 1_565 S
C373 C441 2.629 . S
C475 C407 2.629 1_566 S
C781 C577 2.629 . S
C611 C815 2.629 1_556 S
C713 C645 2.629 . S
C747 C679 2.629 . S
C849 C1053 2.629 . S
C1087 C883 2.629 1_556 S
C917 C985 2.629 . S
C1019 C951 2.629 . S
C20 C258 2.459 . S
C156 C54 2.459 . S
C88 C190 2.459 . S
C122 C224 2.459 . S
C292 C530 2.459 . S
C428 C326 2.459 . S
C360 C462 2.459 . S
C394 C496 2.459 . S
C802 C564 2.459 . S
C700 C598 2.459 . S
C734 C632 2.459 . S
C666 C768 2.459 . S
C836 C1074 2.459 . S
C870 C972 2.459 . S
C1006 C904 2.459 . S
C1040 C938 2.459 . S
