# Generated by pormake.
# Topology unv, (4)-cn, num edge types: 1
# Building blocks:
#     Node 0, Type 0, BuildingBlock: NAHDIM_clean_sbu_0, # of connection points: 4
#     Node 1, Type 0, BuildingBlock: NAHDIM_clean_sbu_0, # of connection points: 4
#     Node 2, Type 0, BuildingBlock: NAHDIM_clean_sbu_0, # of connection points: 4
#     Node 3, Type 0, BuildingBlock: NAHDIM_clean_sbu_0, # of connection points: 4
#     Node 4, Type 0, BuildingBlock: NAHDIM_clean_sbu_0, # of connection points: 4
#     Node 5, Type 0, BuildingBlock: NAHDIM_clean_sbu_0, # of connection points: 4
#     Node 6, Type 0, BuildingBlock: NAHDIM_clean_sbu_0, # of connection points: 4
#     Node 7, Type 0, BuildingBlock: NAHDIM_clean_sbu_0, # of connection points: 4
#     Node 8, Type 0, BuildingBlock: NAHDIM_clean_sbu_0, # of connection points: 4
#     Node 9, Type 0, BuildingBlock: NAHDIM_clean_sbu_0, # of connection points: 4
#     Node 10, Type 0, BuildingBlock: NAHDIM_clean_sbu_0, # of connection points: 4
#     Node 11, Type 0, BuildingBlock: NAHDIM_clean_sbu_0, # of connection points: 4
#     Node 12, Type 0, BuildingBlock: NAHDIM_clean_sbu_0, # of connection points: 4
#     Node 13, Type 0, BuildingBlock: NAHDIM_clean_sbu_0, # of connection points: 4
#     Node 14, Type 0, BuildingBlock: NAHDIM_clean_sbu_0, # of connection points: 4
#     Node 15, Type 0, BuildingBlock: NAHDIM_clean_sbu_0, # of connection points: 4
#     Node 16, Type 0, BuildingBlock: NAHDIM_clean_sbu_0, # of connection points: 4
#     Node 17, Type 0, BuildingBlock: NAHDIM_clean_sbu_0, # of connection points: 4
#     Node 18, Type 0, BuildingBlock: NAHDIM_clean_sbu_0, # of connection points: 4
#     Node 19, Type 0, BuildingBlock: NAHDIM_clean_sbu_0, # of connection points: 4
#     Node 20, Type 0, BuildingBlock: NAHDIM_clean_sbu_0, # of connection points: 4
#     Node 21, Type 0, BuildingBlock: NAHDIM_clean_sbu_0, # of connection points: 4
#     Node 22, Type 0, BuildingBlock: NAHDIM_clean_sbu_0, # of connection points: 4
#     Node 23, Type 0, BuildingBlock: NAHDIM_clean_sbu_0, # of connection points: 4
#     Edge 24, Type (0, 0), BuildingBlock: OJICUG_clean_linker_0, # of connection points: 2
#     Edge 25, Type (0, 0), BuildingBlock: OJICUG_clean_linker_0, # of connection points: 2
#     Edge 26, Type (0, 0), BuildingBlock: OJICUG_clean_linker_0, # of connection points: 2
#     Edge 27, Type (0, 0), BuildingBlock: OJICUG_clean_linker_0, # of connection points: 2
#     Edge 28, Type (0, 0), BuildingBlock: OJICUG_clean_linker_0, # of connection points: 2
#     Edge 29, Type (0, 0), BuildingBlock: OJICUG_clean_linker_0, # of connection points: 2
#     Edge 30, Type (0, 0), BuildingBlock: OJICUG_clean_linker_0, # of connection points: 2
#     Edge 31, Type (0, 0), BuildingBlock: OJICUG_clean_linker_0, # of connection points: 2
#     Edge 32, Type (0, 0), BuildingBlock: OJICUG_clean_linker_0, # of connection points: 2
#     Edge 33, Type (0, 0), BuildingBlock: OJICUG_clean_linker_0, # of connection points: 2
#     Edge 34, Type (0, 0), BuildingBlock: OJICUG_clean_linker_0, # of connection points: 2
#     Edge 35, Type (0, 0), BuildingBlock: OJICUG_clean_linker_0, # of connection points: 2
#     Edge 36, Type (0, 0), BuildingBlock: OJICUG_clean_linker_0, # of connection points: 2
#     Edge 37, Type (0, 0), BuildingBlock: OJICUG_clean_linker_0, # of connection points: 2
#     Edge 38, Type (0, 0), BuildingBlock: OJICUG_clean_linker_0, # of connection points: 2
#     Edge 39, Type (0, 0), BuildingBlock: OJICUG_clean_linker_0, # of connection points: 2
#     Edge 40, Type (0, 0), BuildingBlock: OJICUG_clean_linker_0, # of connection points: 2
#     Edge 41, Type (0, 0), BuildingBlock: OJICUG_clean_linker_0, # of connection points: 2
#     Edge 42, Type (0, 0), BuildingBlock: OJICUG_clean_linker_0, # of connection points: 2
#     Edge 43, Type (0, 0), BuildingBlock: OJICUG_clean_linker_0, # of connection points: 2
#     Edge 44, Type (0, 0), BuildingBlock: OJICUG_clean_linker_0, # of connection points: 2
#     Edge 45, Type (0, 0), BuildingBlock: OJICUG_clean_linker_0, # of connection points: 2
#     Edge 46, Type (0, 0), BuildingBlock: OJICUG_clean_linker_0, # of connection points: 2
#     Edge 47, Type (0, 0), BuildingBlock: OJICUG_clean_linker_0, # of connection points: 2
#     Edge 48, Type (0, 0), BuildingBlock: OJICUG_clean_linker_0, # of connection points: 2
#     Edge 49, Type (0, 0), BuildingBlock: OJICUG_clean_linker_0, # of connection points: 2
#     Edge 50, Type (0, 0), BuildingBlock: OJICUG_clean_linker_0, # of connection points: 2
#     Edge 51, Type (0, 0), BuildingBlock: OJICUG_clean_linker_0, # of connection points: 2
#     Edge 52, Type (0, 0), BuildingBlock: OJICUG_clean_linker_0, # of connection points: 2
#     Edge 53, Type (0, 0), BuildingBlock: OJICUG_clean_linker_0, # of connection points: 2
#     Edge 54, Type (0, 0), BuildingBlock: OJICUG_clean_linker_0, # of connection points: 2
#     Edge 55, Type (0, 0), BuildingBlock: OJICUG_clean_linker_0, # of connection points: 2
#     Edge 56, Type (0, 0), BuildingBlock: OJICUG_clean_linker_0, # of connection points: 2
#     Edge 57, Type (0, 0), BuildingBlock: OJICUG_clean_linker_0, # of connection points: 2
#     Edge 58, Type (0, 0), BuildingBlock: OJICUG_clean_linker_0, # of connection points: 2
#     Edge 59, Type (0, 0), BuildingBlock: OJICUG_clean_linker_0, # of connection points: 2
#     Edge 60, Type (0, 0), BuildingBlock: OJICUG_clean_linker_0, # of connection points: 2
#     Edge 61, Type (0, 0), BuildingBlock: OJICUG_clean_linker_0, # of connection points: 2
#     Edge 62, Type (0, 0), BuildingBlock: OJICUG_clean_linker_0, # of connection points: 2
#     Edge 63, Type (0, 0), BuildingBlock: OJICUG_clean_linker_0, # of connection points: 2
#     Edge 64, Type (0, 0), BuildingBlock: OJICUG_clean_linker_0, # of connection points: 2
#     Edge 65, Type (0, 0), BuildingBlock: OJICUG_clean_linker_0, # of connection points: 2
#     Edge 66, Type (0, 0), BuildingBlock: OJICUG_clean_linker_0, # of connection points: 2
#     Edge 67, Type (0, 0), BuildingBlock: OJICUG_clean_linker_0, # of connection points: 2
#     Edge 68, Type (0, 0), BuildingBlock: OJICUG_clean_linker_0, # of connection points: 2
#     Edge 69, Type (0, 0), BuildingBlock: OJICUG_clean_linker_0, # of connection points: 2
#     Edge 70, Type (0, 0), BuildingBlock: OJICUG_clean_linker_0, # of connection points: 2
#     Edge 71, Type (0, 0), BuildingBlock: OJICUG_clean_linker_0, # of connection points: 2
# Relax obj value: 0.364
# Max RMSD: 0.322
# Mean RMSD: 0.307
data_MOF--net-unv--node1-NAHDIM_clean_sbu_0--edge1-OJICUG_clean_linker_0
_symmetry_space_group_name_H-M    P1
_symmetry_Int_Tables_number       1
_symmetry_cell_setting            triclinic
loop_
_symmetry_equiv_pos_as_xyz
'x, y, z'
_cell_length_a     35.381542
_cell_length_b     35.267136
_cell_length_c     35.382215
_cell_angle_alpha  90.04863
_cell_angle_beta   90.062756
_cell_angle_gamma 89.906079
loop_
_atom_site_label
_atom_site_type_symbol
_atom_site_fract_x
_atom_site_fract_y
_atom_site_fract_z
_atom_type_partial_charge
C0 C 0.00691 0.16408 0.31869 0.0
O1 O 0.98149 0.13843 0.30989 0.0
O2 O 0.07235 0.06693 0.31161 0.0
Zn3 Zn 0.04675 0.09973 0.35023 0.0
O4 O 0.07678 0.10037 0.39825 0.0
C5 C 0.98193 0.04978 0.34273 0.0
O6 O -0.00306 0.04176 0.30974 0.0
O7 O 0.03768 0.15359 0.33407 0.0
C8 C 0.07835 0.06998 0.41743 0.0
O9 O 0.06312 0.03901 0.40348 0.0
C10 C 0.07893 0.076 0.27756 0.0
O11 O 0.07175 0.11075 0.26625 0.0
O12 O -0.00268 0.07482 0.36352 0.0
C13 C 0.96416 0.32163 0.328 0.0
O14 O 0.93053 0.33313 0.31715 0.0
O15 O 0.95639 0.42922 0.31551 0.0
Zn16 Zn 0.97005 0.39726 0.36035 0.0
O17 O 0.92722 0.39848 0.39768 0.0
C18 C 0.03488 0.44659 0.36753 0.0
O19 O 0.03103 0.44965 0.33073 0.0
O20 O 0.98532 0.3442 0.34632 0.0
C21 C 0.93497 0.39327 0.43238 0.0
O22 O 0.96944 0.38297 0.44172 0.0
C23 C 0.92482 0.4327 0.29876 0.0
O24 O 0.89607 0.41149 0.30881 0.0
O25 O 0.01348 0.42407 0.38559 0.0
C26 C 0.01082 0.83207 0.1635 0.0
O27 O 0.9879 0.86034 0.17136 0.0
O28 O 0.07512 0.92464 0.17598 0.0
Zn29 Zn 0.05685 0.89192 0.13319 0.0
O30 O 0.09649 0.89021 0.09281 0.0
C31 C 0.99228 0.94335 0.12605 0.0
O32 O -0.00078 0.95156 0.1616 0.0
O33 O 0.04269 0.8391 0.14857 0.0
C34 C 0.08634 0.8799 0.05992 0.0
O35 O 0.05172 0.86742 0.05489 0.0
C36 C 0.08696 0.95736 0.16662 0.0
O37 O 0.08904 0.96595 0.13055 0.0
O38 O 0.01195 0.9181 0.10953 0.0
C39 C 0.9549 0.67857 0.16202 0.0
O40 O 0.91998 0.67101 0.17205 0.0
O41 O 0.93775 0.57388 0.18209 0.0
Zn42 Zn 0.9524 0.60177 0.13506 0.0
O43 O 0.90982 0.60552 0.09765 0.0
C44 C 0.01117 0.54388 0.12317 0.0
O45 O 0.01301 0.54108 0.16014 0.0
O46 O 0.97447 0.65289 0.14614 0.0
C47 C 0.9202 0.61632 0.06498 0.0
O48 O 0.95473 0.62933 0.06081 0.0
C49 C 0.91718 0.54441 0.18019 0.0
O50 O 0.90199 0.53492 0.14764 0.0
O51 O 0.98992 0.56883 0.10828 0.0
C52 C 0.31938 0.04627 0.15407 0.0
O53 O 0.29967 0.02848 0.12805 0.0
O54 O 0.3137 0.09519 0.05767 0.0
Zn55 Zn 0.35772 0.07725 0.08907 0.0
O56 O 0.40556 0.10822 0.08473 0.0
C57 C 0.35156 0.00683 0.04541 0.0
O58 O 0.3154 0.01479 0.04261 0.0
O59 O 0.34474 0.0696 0.14391 0.0
C60 C 0.4266 0.10101 0.05644 0.0
O61 O 0.41297 0.08034 0.02871 0.0
C62 C 0.31655 0.11217 0.02609 0.0
O63 O 0.34915 0.12689 0.01628 0.0
O64 O 0.37246 0.02706 0.06657 0.0
C65 C 0.67504 0.44222 0.18082 0.0
O66 O 0.67816 0.40594 0.17292 0.0
O67 O 0.69546 0.42994 0.07059 0.0
Zn68 Zn 0.65218 0.44679 0.10312 0.0
O69 O 0.61425 0.40493 0.10742 0.0
C70 C 0.64607 0.51215 0.05466 0.0
O71 O 0.68316 0.51046 0.05554 0.0
O72 O 0.6664 0.46521 0.15461 0.0
C73 C 0.58192 0.41275 0.12095 0.0
O74 O 0.57566 0.44707 0.13406 0.0
C75 C 0.6853 0.41877 0.03791 0.0
O76 O 0.64902 0.41529 0.03073 0.0
O77 O 0.62703 0.48897 0.07447 0.0
C78 C 0.3129 0.99637 0.30944 0.0
O79 O 0.29051 0.96831 0.31909 0.0
O80 O 0.29066 0.97501 0.40824 0.0
Zn81 Zn 0.34156 0.9834 0.38418 0.0
O82 O 0.37477 0.93702 0.38045 0.0
C83 C 0.35543 0.03539 0.44697 0.0
O84 O 0.31865 0.04054 0.44712 0.0
O85 O 0.33701 0.00842 0.33324 0.0
C86 C 0.37969 0.91665 0.40966 0.0
O87 O 0.35835 0.92258 0.43945 0.0
C88 C 0.27171 0.94509 0.41445 0.0
O89 O 0.28418 0.91229 0.40198 0.0
O90 O 0.37043 0.01557 0.42096 0.0
C91 C 0.65445 0.48789 0.33556 0.0
O92 O 0.6645 0.46596 0.36383 0.0
O93 O 0.65531 0.55524 0.42538 0.0
Zn94 Zn 0.61579 0.52897 0.39432 0.0
O95 O 0.5685 0.56032 0.39353 0.0
C96 C 0.6243 0.46704 0.44717 0.0
O97 O 0.65882 0.48036 0.45026 0.0
O98 O 0.63384 0.51673 0.34197 0.0
C99 C 0.5677 0.59627 0.39552 0.0
O100 O 0.59965 0.61518 0.39461 0.0
C101 C 0.68796 0.56504 0.4143 0.0
O102 O 0.69697 0.56104 0.3785 0.0
O103 O 0.60197 0.48166 0.42301 0.0
C104 C 0.16993 0.33457 0.01618 0.0
O105 O 0.15602 0.33818 0.05041 0.0
O106 O 0.06108 0.31785 0.00324 0.0
Zn107 Zn 0.09623 0.36111 0.99314 0.0
O108 O 0.08995 0.40069 0.03384 0.0
C109 C 0.05685 0.36927 0.92226 0.0
O110 O 0.05136 0.33267 0.92631 0.0
O111 O 0.14948 0.34301 0.9879 0.0
C112 C 0.05891 0.41859 0.03047 0.0
O113 O 0.03488 0.40803 0.00418 0.0
C114 C 0.05675 0.30034 0.03426 0.0
O115 O 0.07735 0.30969 0.06372 0.0
O116 O 0.079 0.38616 0.94498 0.0
C117 C 0.15788 0.66311 0.52621 0.0
O118 O 0.13318 0.66053 0.55378 0.0
O119 O 0.0626 0.68573 0.45607 0.0
Zn120 Zn 0.09344 0.64378 0.4792 0.0
O121 O 0.09401 0.60003 0.44289 0.0
C122 C 0.03938 0.64603 0.54054 0.0
O123 O 0.03563 0.68163 0.53031 0.0
O124 O 0.14689 0.65838 0.49232 0.0
C125 C 0.09861 0.56672 0.45581 0.0
O126 O 0.10581 0.56228 0.49198 0.0
C127 C 0.07159 0.72048 0.45394 0.0
O128 O 0.1053 0.73126 0.46523 0.0
O129 O 0.06429 0.62557 0.52455 0.0
C130 C 0.81787 0.83659 0.4844 0.0
O131 O 0.84099 0.82161 0.50935 0.0
O132 O 0.92012 0.82382 0.43954 0.0
Zn133 Zn 0.88688 0.86862 0.4521 0.0
O134 O 0.89419 0.9079 0.41174 0.0
C135 C 0.92761 0.87142 0.52329 0.0
O136 O 0.9262 0.83429 0.52071 0.0
O137 O 0.83137 0.85657 0.45777 0.0
C138 C 0.88905 0.94252 0.42032 0.0
O139 O 0.87505 0.95088 0.45368 0.0
C140 C 0.95462 0.83282 0.43464 0.0
O141 O 0.96382 0.86891 0.43498 0.0
O142 O 0.90957 0.89136 0.49934 0.0
C143 C 0.3178 0.66164 0.55863 0.0
O144 O 0.32989 0.65796 0.59355 0.0
O145 O 0.42638 0.68659 0.5648 0.0
Zn146 Zn 0.3959 0.64518 0.54009 0.0
O147 O 0.40098 0.59627 0.56886 0.0
C148 C 0.4412 0.65944 0.47307 0.0
O149 O 0.44191 0.69448 0.48566 0.0
O150 O 0.34118 0.65831 0.53159 0.0
C151 C 0.40533 0.59282 0.60433 0.0
O152 O 0.4047 0.62324 0.62578 0.0
C153 C 0.41561 0.72082 0.56786 0.0
O154 O 0.3807 0.72969 0.55875 0.0
O155 O 0.42138 0.63489 0.49033 0.0
C156 C 0.47748 0.6444 0.83849 0.0
O157 O 0.47906 0.62326 0.80794 0.0
O158 O 0.53012 0.55122 0.83861 0.0
Zn159 Zn 0.50104 0.57596 0.88065 0.0
O160 O 0.53231 0.57395 0.92776 0.0
C161 C 0.44742 0.51529 0.86878 0.0
O162 O 0.46115 0.51553 0.83431 0.0
O163 O 0.48506 0.62981 0.87047 0.0
C164 C 0.56763 0.57991 0.92983 0.0
O165 O 0.58609 0.59056 0.89945 0.0
C166 C 0.55245 0.56329 0.8133 0.0
O167 O 0.56054 0.59958 0.81141 0.0
O168 O 0.45729 0.54123 0.89177 0.0
C169 C 0.45552 0.80675 0.83154 0.0
O170 O 0.46019 0.82542 0.79977 0.0
O171 O 0.44524 0.91149 0.8199 0.0
Zn172 Zn 0.45218 0.88174 0.86814 0.0
O173 O 0.41445 0.89903 0.9073 0.0
C174 C 0.52714 0.91521 0.87128 0.0
O175 O 0.5237 0.9169 0.83435 0.0
O176 O 0.45101 0.82504 0.86217 0.0
C177 C 0.42245 0.93154 0.92058 0.0
O178 O 0.4502 0.95097 0.90543 0.0
C179 C 0.41591 0.93046 0.81115 0.0
O180 O 0.38552 0.92788 0.83228 0.0
O181 O 0.50237 0.89746 0.89026 0.0
C182 C 0.54005 0.32429 0.676 0.0
O183 O 0.57366 0.33685 0.68565 0.0
O184 O 0.55636 0.42609 0.69503 0.0
Zn185 Zn 0.53206 0.4009 0.6503 0.0
O186 O 0.56706 0.40257 0.60579 0.0
C187 C 0.47086 0.45471 0.66081 0.0
O188 O 0.47972 0.45121 0.6967 0.0
O189 O 0.51662 0.3471 0.66097 0.0
C190 C 0.55312 0.39557 0.57342 0.0
O191 O 0.51772 0.38459 0.57111 0.0
C192 C 0.569 0.45949 0.6902 0.0
O193 O 0.57007 0.47337 0.65576 0.0
O194 O 0.48743 0.43387 0.63655 0.0
C195 C 0.50951 0.16343 0.67639 0.0
O196 O 0.53608 0.1393 0.6862 0.0
O197 O 0.45888 0.06288 0.69145 0.0
Zn198 Zn 0.47336 0.09591 0.64726 0.0
O199 O 0.4356 0.09067 0.60468 0.0
C200 C 0.5425 0.05163 0.64526 0.0
O201 O 0.53645 0.04787 0.68169 0.0
O202 O 0.47971 0.15104 0.66058 0.0
C203 C 0.43931 0.06114 0.58438 0.0
O204 O 0.46422 0.03533 0.59427 0.0
C205 C 0.42703 0.04718 0.69692 0.0
O206 O 0.39856 0.05506 0.67438 0.0
O207 O 0.52189 0.07435 0.62643 0.0
C208 C 0.8158 0.55232 0.66596 0.0
O209 O 0.81525 0.58724 0.65303 0.0
O210 O 0.79688 0.55744 0.55911 0.0
Zn211 Zn 0.83957 0.53695 0.59039 0.0
O212 O 0.88197 0.57461 0.59096 0.0
C213 C 0.84188 0.47164 0.53947 0.0
O214 O 0.80672 0.48089 0.53185 0.0
O215 O 0.8242 0.52542 0.64358 0.0
C216 C 0.91456 0.56324 0.60098 0.0
O217 O 0.91863 0.52821 0.61294 0.0
C218 C 0.80501 0.56969 0.52631 0.0
O219 O 0.84065 0.57074 0.51595 0.0
O220 O 0.85994 0.49018 0.56448 0.0
C221 C 0.17385 0.99094 0.64812 0.0
O222 O 0.19071 0.01469 0.62505 0.0
O223 O 0.1525 0.98676 0.54628 0.0
Zn224 Zn 0.11826 0.99604 0.59083 0.0
O225 O 0.06701 0.97184 0.58301 0.0
C226 C 0.10998 0.08086 0.57679 0.0
O227 O 0.10954 0.11514 0.59135 0.0
O228 O 0.1424 0.97659 0.63826 0.0
C229 C 0.05772 0.93876 0.5937 0.0
O230 O 0.08227 0.91803 0.61243 0.0
C231 C 0.15612 0.95536 0.52899 0.0
O232 O 0.13707 0.92565 0.54062 0.0
O233 O 0.11293 0.05273 0.59917 0.0
C234 C 0.82344 0.52457 0.82591 0.0
O235 O 0.82387 0.55293 0.85 0.0
O236 O 0.82024 0.4534 0.92196 0.0
Zn237 Zn 0.85594 0.48118 0.88801 0.0
O238 O 0.9021 0.44876 0.88194 0.0
C239 C 0.84793 0.54317 0.94028 0.0
O240 O 0.81349 0.52959 0.94303 0.0
O241 O 0.83447 0.49202 0.83665 0.0
C242 C 0.93443 0.46286 0.87526 0.0
O243 O 0.93767 0.49973 0.87106 0.0
C244 C 0.78768 0.44059 0.91419 0.0
O245 O 0.77475 0.44327 0.87947 0.0
O246 O 0.8706 0.5286 0.91641 0.0
C247 C 0.20203 0.00118 0.80694 0.0
O248 O 0.22601 0.02615 0.82048 0.0
O249 O 0.20465 0.03146 0.90971 0.0
Zn250 Zn 0.1634 0.00538 0.88068 0.0
O251 O 0.11904 0.04074 0.87898 0.0
C252 C 0.16765 0.94636 0.93738 0.0
O253 O 0.20235 0.95882 0.94174 0.0
O254 O 0.17575 0.9888 0.82795 0.0
C255 C 0.0862 0.02746 0.8731 0.0
O256 O 0.08243 0.99112 0.86583 0.0
C257 C 0.21553 0.06571 0.90749 0.0
O258 O 0.20243 0.08778 0.88061 0.0
O259 O 0.14692 0.96066 0.9117 0.0
C260 C 0.65643 0.83546 0.50973 0.0
O261 O 0.64325 0.82329 0.54223 0.0
O262 O 0.55752 0.82875 0.53852 0.0
Zn263 Zn 0.58163 0.86762 0.50433 0.0
O264 O 0.58383 0.91755 0.53169 0.0
C265 C 0.52025 0.84979 0.45306 0.0
O266 O 0.52288 0.81624 0.46892 0.0
O267 O 0.63449 0.85363 0.48771 0.0
C268 C 0.59605 0.9214 0.56526 0.0
O269 O 0.60922 0.89162 0.5833 0.0
C270 C 0.52587 0.83832 0.55274 0.0
O271 O 0.51414 0.87342 0.54827 0.0
O272 O 0.54484 0.87496 0.46084 0.0
C273 C 0.67328 0.14504 0.98916 0.0
O274 O 0.65376 0.16859 0.01036 0.0
O275 O 0.5682 0.1398 0.98226 0.0
Zn276 Zn 0.60671 0.10039 -0.00248 0.0
O277 O 0.59328 0.04874 0.97676 0.0
C278 C 0.58721 0.10651 0.0802 0.0
O279 O 0.59817 0.10954 0.11555 0.0
O280 O 0.6579 0.11443 0.97823 0.0
C281 C 0.60348 0.03914 0.94365 0.0
O282 O 0.6237 0.06289 0.9235 0.0
C283 C 0.53722 0.13255 0.96548 0.0
O284 O 0.52966 0.09758 0.95519 0.0
O285 O 0.61201 0.10068 0.05477 0.0
C286 C 0.32834 0.30809 0.99117 0.0
O287 O 0.34131 0.30724 0.9564 0.0
O288 O 0.43334 0.28288 0.9802 0.0
Zn289 Zn 0.4049 0.32571 0.0049 0.0
O290 O 0.40446 0.37203 0.97175 0.0
C291 C 0.46123 0.32216 0.06448 0.0
O292 O 0.46753 0.28796 0.05115 0.0
O293 O 0.35139 0.31337 0.01817 0.0
C294 C 0.40632 0.37323 0.93592 0.0
O295 O 0.40845 0.34144 0.91664 0.0
C296 C 0.42345 0.24826 0.97976 0.0
O297 O 0.39025 0.23865 0.99326 0.0
O298 O 0.4342 0.34168 0.05093 0.0
C299 C 0.8354 0.15374 0.98917 0.0
O300 O 0.85284 0.18174 0.00635 0.0
O301 O 0.93285 0.16805 0.0067 0.0
Zn302 Zn 0.90887 0.11826 0.99298 0.0
O303 O 0.91516 0.08127 0.03574 0.0
C304 C 0.9628 0.11482 0.93127 0.0
O305 O 0.96687 0.15117 0.93823 0.0
O306 O 0.85394 0.12419 0.9802 0.0
C307 C 0.91301 0.04609 0.02824 0.0
O308 O 0.90349 0.03558 0.99389 0.0
C309 C 0.95712 0.17131 0.03302 0.0
O310 O 0.96504 0.14181 0.05426 0.0
O311 O 0.93804 0.09612 0.94936 0.0
C312 C 0.11444 0.10674 0.51121 0.0
C313 C 0.10638 0.07617 0.53536 0.0
H314 H 0.11246 0.12866 0.45484 0.0
C315 C 0.0921 0.04262 0.51966 0.0
H316 H 0.12557 0.13307 0.52238 0.0
C317 C 0.08502 0.03983 0.48095 0.0
C318 C 0.09144 0.07095 0.4571 0.0
H319 H 0.08469 0.01906 0.53732 0.0
H320 H 0.07282 0.01385 0.47011 0.0
C321 C 0.10705 0.10418 0.47248 0.0
C322 C 0.87125 0.41716 0.45231 0.0
C323 C 0.90832 0.40637 0.46185 0.0
H324 H 0.82078 0.44575 0.46974 0.0
C325 C 0.92119 0.41257 0.49894 0.0
H326 H 0.86042 0.41254 0.42403 0.0
C327 C 0.89866 0.43195 0.52499 0.0
C328 C 0.86259 0.44505 0.51464 0.0
H329 H 0.94953 0.40446 0.5073 0.0
H330 H 0.91016 0.43811 0.55271 0.0
C331 C 0.8485 0.43612 0.47855 0.0
C332 C 0.09437 0.89019 0.99057 0.0
C333 C 0.11019 0.88932 0.02701 0.0
H334 H 0.10034 0.90891 0.9334 0.0
C335 C 0.14746 0.90206 0.03219 0.0
H336 H 0.0658 0.88038 0.98558 0.0
C337 C 0.16741 0.91807 0.00213 0.0
C338 C 0.15026 0.92203 0.96651 0.0
H339 H 0.16054 0.90142 0.05988 0.0
H340 H 0.1953 0.92951 0.0075 0.0
C341 C 0.11413 0.90661 0.96065 0.0
C342 C 0.91529 0.60485 0.9955 0.0
C343 C 0.89796 0.60541 0.03126 0.0
H344 H 0.91296 0.58462 0.93848 0.0
C345 C 0.86137 0.59051 0.03505 0.0
H346 H 0.9434 0.61627 0.99151 0.0
C347 C 0.84372 0.57277 0.00441 0.0
C348 C 0.8626 0.56914 0.96962 0.0
H349 H 0.84718 0.59075 0.06216 0.0
H350 H 0.81639 0.55971 0.00879 0.0
C351 C 0.8979 0.58663 0.96506 0.0
C352 C 0.48339 0.13169 0.08604 0.0
C353 C 0.46783 0.10697 0.05905 0.0
H354 H 0.53383 0.15125 0.11355 0.0
C355 C 0.4922 0.08407 0.0375 0.0
H356 H 0.46528 0.14943 0.10329 0.0
C357 C 0.5311 0.08474 0.04379 0.0
C358 C 0.54663 0.10889 0.07104 0.0
H359 H 0.48116 0.06412 0.01698 0.0
H360 H 0.54882 0.06512 0.02849 0.0
C361 C 0.52251 0.13262 0.09199 0.0
C362 C 0.55697 0.3491 0.10239 0.0
C363 C 0.55015 0.38632 0.11488 0.0
H364 H 0.53379 0.29903 0.07743 0.0
C365 C 0.51271 0.39951 0.11686 0.0
H366 H 0.5855 0.33799 0.10099 0.0
C367 C 0.48309 0.37731 0.10307 0.0
C368 C 0.49035 0.34137 0.08747 0.0
H369 H 0.50648 0.42795 0.12664 0.0
H370 H 0.45484 0.38919 0.10262 0.0
C371 C 0.52728 0.32671 0.08903 0.0
C372 C 0.45 0.84655 0.44896 0.0
C373 C 0.48423 0.86151 0.43542 0.0
H374 H 0.38974 0.85273 0.45155 0.0
C375 C 0.4832 0.89123 0.40908 0.0
H376 H 0.44994 0.82388 0.46962 0.0
C377 C 0.44862 0.90701 0.39795 0.0
C378 C 0.41461 0.89408 0.41392 0.0
H379 H 0.50919 0.9033 0.39833 0.0
H380 H 0.44877 0.93116 0.37905 0.0
C381 C 0.41553 0.86308 0.43874 0.0
C382 C 0.46822 0.60917 0.43134 0.0
C383 C 0.46951 0.64647 0.44518 0.0
H384 H 0.49806 0.56422 0.40399 0.0
C385 C 0.50094 0.66919 0.43649 0.0
H386 H 0.44417 0.59111 0.43709 0.0
C387 C 0.53208 0.65368 0.41763 0.0
C388 C 0.53218 0.61527 0.40701 0.0
H389 H 0.50269 0.69816 0.44653 0.0
H390 H 0.5569 0.67114 0.41357 0.0
C391 C 0.49918 0.59376 0.41234 0.0
C392 C 0.02605 0.48003 0.03909 0.0
C393 C 0.05015 0.45208 0.05378 0.0
H394 H 0.99581 0.53132 0.04901 0.0
C395 C 0.06425 0.45608 0.09069 0.0
H396 H 0.01517 0.47792 0.01052 0.0
C397 C 0.05267 0.4867 0.11321 0.0
C398 C 0.02754 0.51406 0.09876 0.0
H399 H 0.08298 0.43488 0.10256 0.0
H400 H 0.06269 0.48849 0.1421 0.0
C401 C 0.01517 0.51083 0.06114 0.0
C402 C 0.0696 0.50814 0.37121 0.0
C403 C 0.05804 0.47429 0.38862 0.0
H404 H 0.09157 0.56415 0.37894 0.0
C405 C 0.06481 0.46933 0.42744 0.0
H406 H 0.06485 0.51281 0.34132 0.0
C407 C 0.0805 0.49861 0.4489 0.0
C408 C 0.0892 0.53359 0.43203 0.0
H409 H 0.05645 0.44343 0.44158 0.0
H410 H 0.08371 0.49453 0.47907 0.0
C411 C 0.08479 0.53763 0.39278 0.0
C412 C 0.91155 0.00906 0.41166 0.0
C413 C 0.90612 0.97253 0.39674 0.0
H414 H 0.93982 0.06233 0.40613 0.0
C415 C 0.92138 0.96376 0.36112 0.0
H416 H 0.90002 0.0168 0.43895 0.0
C417 C 0.94397 0.99004 0.34214 0.0
C418 C 0.95203 0.02537 0.35865 0.0
H419 H 0.91742 0.93595 0.34873 0.0
H420 H 0.95691 0.98172 0.31567 0.0
C421 C 0.93446 0.03515 0.3929 0.0
C422 C 0.42442 0.55142 0.65884 0.0
C423 C 0.41631 0.55551 0.62016 0.0
H424 H 0.44755 0.516 0.70223 0.0
C425 C 0.42192 0.5243 0.596 0.0
H426 H 0.4202 0.5748 0.67825 0.0
C427 C 0.43769 0.49068 0.60969 0.0
C428 C 0.44796 0.48739 0.64789 0.0
H429 H 0.41568 0.52631 0.56609 0.0
H430 H 0.44321 0.46782 0.58997 0.0
C431 C 0.43999 0.51763 0.6726 0.0
C432 C 0.64692 0.55222 0.99623 0.0
C433 C 0.6266 0.5357 0.02611 0.0
H434 H 0.64417 0.57942 0.94217 0.0
C435 C 0.58701 0.53838 0.0262 0.0
H436 H 0.67749 0.55073 0.99541 0.0
C437 C 0.56799 0.55488 0.99583 0.0
C438 C 0.58813 0.5689 0.96459 0.0
H439 H 0.57056 0.52628 0.04899 0.0
H440 H 0.53737 0.55503 0.99614 0.0
C441 C 0.62783 0.56863 0.96568 0.0
C442 C 0.34806 0.9598 0.99206 0.0
C443 C 0.36974 0.98181 0.01722 0.0
H444 H 0.34801 0.92583 0.94152 0.0
C445 C 0.40907 0.98378 0.01204 0.0
H446 H 0.3177 0.95774 0.99536 0.0
C447 C 0.42596 0.96661 0.98094 0.0
C448 C 0.40414 0.94618 0.95487 0.0
H449 H 0.42675 0.00027 0.03088 0.0
H450 H 0.45614 0.96993 0.97689 0.0
C451 C 0.36528 0.94167 0.96127 0.0
C452 C 0.5549 0.40954 0.50418 0.0
C453 C 0.57395 0.40659 0.53894 0.0
H454 H 0.55606 0.43084 0.44759 0.0
C455 C 0.61179 0.41842 0.54124 0.0
H456 H 0.52581 0.40043 0.50137 0.0
C457 C 0.62925 0.43555 0.51026 0.0
C458 C 0.60905 0.44152 0.47654 0.0
H459 H 0.62736 0.41615 0.56752 0.0
H460 H 0.65776 0.44618 0.5136 0.0
C461 C 0.57223 0.42701 0.47333 0.0
C462 C 0.38417 0.07609 0.54203 0.0
C463 C 0.41827 0.05671 0.54861 0.0
H464 H 0.33721 0.08447 0.50445 0.0
C465 C 0.43264 0.03262 0.52047 0.0
H466 H 0.37258 0.09496 0.56325 0.0
C467 C 0.41304 0.02732 0.48673 0.0
C468 C 0.37818 0.04546 0.48057 0.0
H469 H 0.45911 0.01765 0.52452 0.0
H470 H 0.42466 0.00787 0.46604 0.0
C471 C 0.36405 0.07019 0.5084 0.0
C472 C 0.01465 0.59021 0.57624 0.0
C473 C 0.00981 0.62765 0.56355 0.0
H474 H 0.98832 0.54061 0.59875 0.0
C475 C 0.97457 0.64541 0.56849 0.0
H476 H 0.04157 0.57588 0.57307 0.0
C477 C 0.94391 0.62505 0.58276 0.0
C478 C 0.94809 0.58675 0.59284 0.0
H479 H 0.96994 0.67427 0.55909 0.0
H480 H 0.91656 0.63881 0.58426 0.0
C481 C 0.98412 0.57002 0.59099 0.0
C482 C 0.96312 0.92886 0.54478 0.0
C483 C 0.95673 0.88961 0.54731 0.0
H484 H -6e-05 0.97515 0.55751 0.0
C485 C 0.98161 0.86741 0.56908 0.0
H486 H 0.94447 0.94686 0.52838 0.0
C487 C 0.01354 0.8837 0.58584 0.0
C488 C 0.02127 0.92247 0.58106 0.0
H489 H 0.97747 0.83711 0.5717 0.0
H490 H 0.03302 0.86554 0.60105 0.0
C491 C 0.99506 0.94508 0.56139 0.0
C492 C 0.03393 0.43175 0.89781 0.0
C493 C 0.02937 0.39224 0.9006 0.0
H494 H 0.00739 0.48524 0.88707 0.0
C495 C 0.99517 0.37595 0.88862 0.0
H496 H 0.06006 0.44512 0.90657 0.0
C497 C 0.96485 0.39897 0.87796 0.0
C498 C 0.96836 0.43865 0.87854 0.0
H499 H 0.99075 0.34561 0.89019 0.0
H500 H 0.93806 0.38574 0.87121 0.0
C501 C 0.00372 0.45475 0.88668 0.0
C502 C 0.05641 0.09044 0.8864 0.0
C503 C 0.05262 0.05117 0.88084 0.0
H504 H 0.03058 0.14164 0.90599 0.0
C505 C 0.0172 0.03421 0.88674 0.0
H506 H 0.08325 0.10438 0.88171 0.0
C507 C 0.98707 0.0555 0.90094 0.0
C508 C 0.99168 0.09423 0.9091 0.0
H509 H 0.01329 0.00405 0.8825 0.0
H510 H 0.96074 0.04121 0.90721 0.0
C511 C 0.02615 0.11182 0.9002 0.0
C512 C 0.58094 0.99192 0.6444 0.0
C513 C 0.5646 0.02249 0.62476 0.0
H514 H 0.60403 0.93586 0.64091 0.0
C515 C 0.56427 0.02169 0.58503 0.0
H516 H 0.58188 0.99173 0.675 0.0
C517 C 0.57668 0.98958 0.56555 0.0
C518 C 0.58994 0.95769 0.58535 0.0
H519 H 0.55219 0.04486 0.56894 0.0
H520 H 0.57407 0.98909 0.53504 0.0
C521 C 0.59356 0.95982 0.62485 0.0
C522 C 0.56664 0.9787 0.94767 0.0
C523 C 0.58906 0.00371 0.92648 0.0
H524 H 0.53017 0.93048 0.94704 0.0
C525 C 0.5952 0.99597 0.88798 0.0
H526 H 0.56162 0.98364 0.97746 0.0
C527 C 0.5771 0.96543 0.87044 0.0
C528 C 0.55265 0.94192 0.89109 0.0
H529 H 0.61259 0.01449 0.87091 0.0
H530 H 0.58085 0.96142 0.84032 0.0
C531 C 0.54875 0.94805 0.9302 0.0
C532 C 0.428 0.44733 0.86162 0.0
C533 C 0.4292 0.48058 0.88361 0.0
H534 H 0.4198 0.38716 0.86089 0.0
C535 C 0.41795 0.47879 0.92163 0.0
H536 H 0.43635 0.44773 0.83218 0.0
C537 C 0.4086 0.44408 0.93806 0.0
C538 C 0.41028 0.41037 0.91685 0.0
H539 H 0.41824 0.50388 0.9393 0.0
H540 H 0.40168 0.44354 0.96787 0.0
C541 C 0.41866 0.41254 0.87811 0.0
C542 C 0.93575 0.98075 0.0435 0.0
C543 C 0.92742 0.01782 0.05554 0.0
H544 H 0.96282 0.92804 0.05646 0.0
C545 C 0.93659 0.02852 0.09271 0.0
H546 H 0.92896 0.97155 0.01508 0.0
C547 C 0.95568 0.00337 0.11659 0.0
C548 C 0.96636 0.96726 0.10356 0.0
H549 H 0.93034 0.05682 0.10289 0.0
H550 H 0.96382 0.01301 0.14452 0.0
C551 C 0.95524 0.95582 0.06718 0.0
C552 C 0.02329 0.23216 0.32983 0.0
C553 C -0.00237 0.20494 0.3163 0.0
H554 H 0.03288 0.29025 0.34407 0.0
C555 C 0.96189 0.21697 0.30366 0.0
H556 H 0.05113 0.22392 0.33962 0.0
C557 C 0.95139 0.25515 0.30622 0.0
C558 C 0.9764 0.28201 0.32155 0.0
H559 H 0.94151 0.19675 0.29294 0.0
H560 H 0.92325 0.26334 0.2973 0.0
C561 C 0.01277 0.27023 0.33249 0.0
C562 C 0.94754 0.74708 0.17955 0.0
C563 C 0.97037 0.71729 0.16623 0.0
H564 H 0.9425 0.80678 0.18942 0.0
C565 C 0.00763 0.72521 0.15506 0.0
H566 H 0.91876 0.7419 0.18855 0.0
C567 C 0.02126 0.76233 0.15565 0.0
C568 C -0.0021 0.79239 0.16735 0.0
H569 H 0.02607 0.70287 0.14492 0.0
H570 H 0.04977 0.76754 0.14584 0.0
C571 C 0.96117 0.78428 0.18009 0.0
C572 C 0.2889 0.00851 0.2057 0.0
C573 C 0.31506 0.03624 0.19449 0.0
H574 H 0.26754 0.97429 0.25079 0.0
C575 C 0.33872 0.05258 0.22197 0.0
H576 H 0.27015 0.99544 0.18529 0.0
C577 C 0.33728 0.04041 0.25953 0.0
C578 C 0.31211 0.01164 0.27046 0.0
H579 H 0.35912 0.07412 0.21434 0.0
H580 H 0.35654 0.05295 0.27978 0.0
C581 C 0.28742 0.99635 0.24329 0.0
C582 C 0.68341 0.43018 0.25012 0.0
C583 C 0.67509 0.45537 0.2205 0.0
H584 H 0.68372 0.42083 0.30991 0.0
C585 C 0.66329 0.49243 0.22928 0.0
H586 H 0.69273 0.4015 0.24427 0.0
C587 C 0.65779 0.50336 0.26678 0.0
C588 C 0.66431 0.4776 0.29632 0.0
H589 H 0.65679 0.51263 0.20716 0.0
H590 H 0.64746 0.53172 0.27253 0.0
C591 C 0.67824 0.44126 0.28772 0.0
C592 C 0.26185 0.31011 0.96764 0.0
C593 C 0.28722 0.30938 -0.00183 0.0
H594 H 0.2049 0.31866 0.9494 0.0
C595 C 0.27313 0.31359 0.03509 0.0
H596 H 0.27175 0.30677 0.93886 0.0
C597 C 0.23469 0.32041 0.04115 0.0
C598 C 0.20972 0.32328 0.0104 0.0
H599 H 0.29196 0.31297 0.05924 0.0
H600 H 0.22485 0.32475 0.0698 0.0
C601 C 0.22352 0.31709 0.97367 0.0
C602 C 0.21169 0.66718 0.57223 0.0
C603 C 0.19868 0.66706 0.53467 0.0
H604 H 0.25953 0.6657 0.60932 0.0
C605 C 0.22525 0.66818 0.50518 0.0
H606 H 0.19198 0.66647 0.59561 0.0
C607 C 0.26394 0.66775 0.51304 0.0
C608 C 0.27697 0.66615 0.55056 0.0
H609 H 0.21621 0.66834 0.47592 0.0
H610 H 0.28361 0.66761 0.4896 0.0
C611 C 0.25044 0.6667 0.58009 0.0
C612 C 0.71253 0.84941 0.4687 0.0
C613 C 0.69731 0.83215 0.50108 0.0
H614 H 0.7624 0.86428 0.43797 0.0
C615 C 0.72196 0.81399 0.52651 0.0
H616 H 0.69437 0.86358 0.44847 0.0
C617 C 0.76104 0.81437 0.52048 0.0
C618 C 0.77635 0.833 0.48893 0.0
H619 H 0.7112 0.80028 0.55167 0.0
H620 H 0.77926 0.80094 0.54114 0.0
C621 C 0.75159 0.84987 0.46272 0.0
C622 C 0.46369 0.74367 0.79926 0.0
C623 C 0.45839 0.76485 0.83254 0.0
H624 H 0.47362 0.68883 0.77492 0.0
C625 C 0.45743 0.74572 0.86736 0.0
H626 H 0.46447 0.75753 0.77197 0.0
C627 C 0.46285 0.70658 0.86905 0.0
C628 C 0.46912 0.68547 0.83595 0.0
H629 H 0.45328 0.76106 0.89357 0.0
H630 H 0.4626 0.69295 0.89648 0.0
C631 C 0.46888 0.70431 0.80094 0.0
C632 C 0.49584 0.26957 0.6668 0.0
C633 C 0.53082 0.2835 0.67954 0.0
H634 H 0.46156 0.22083 0.65606 0.0
C635 C 0.55763 0.25777 0.69385 0.0
H636 H 0.47448 0.28863 0.65578 0.0
C637 C 0.55021 0.21884 0.69404 0.0
C638 C 0.51582 0.2048 0.67991 0.0
H639 H 0.58478 0.26756 0.70406 0.0
H640 H 0.57186 0.19971 0.70434 0.0
C641 C 0.48843 0.23066 0.66699 0.0
C642 C 0.8102 0.56826 0.77161 0.0
C643 C 0.81558 0.53128 0.7854 0.0
H644 H 0.80579 0.60396 0.7229 0.0
C645 C 0.81673 0.50096 0.75961 0.0
H646 H 0.80897 0.59221 0.79075 0.0
C647 C 0.81492 0.50767 0.7208 0.0
C648 C 0.81193 0.54486 0.7069 0.0
H649 H 0.82047 0.47206 0.7693 0.0
H650 H 0.81733 0.48378 0.70169 0.0
C651 C 0.8084 0.57499 0.73271 0.0
C652 C 0.1669 0.96438 0.71317 0.0
C653 C 0.18685 0.98735 0.6877 0.0
H654 H 0.1565 0.95032 0.7709 0.0
C655 C 0.2162 0.01043 0.70149 0.0
H656 H 0.14447 0.9459 0.70343 0.0
C657 C 0.22309 0.01306 0.74034 0.0
C658 C 0.20077 0.99262 0.76602 0.0
H659 H 0.23237 0.02821 0.68254 0.0
H660 H 0.24435 0.03276 0.75027 0.0
C661 C 0.1738 0.96697 0.75191 0.0
C662 C 0.77221 0.18385 0.00028 0.0
C663 C 0.79392 0.15457 0.98424 0.0
H664 H 0.71685 0.204 0.01414 0.0
C665 C 0.7754 0.12455 0.96585 0.0
H666 H 0.78564 0.20753 0.01441 0.0
C667 C 0.73601 0.12262 0.96554 0.0
C668 C 0.71432 0.15059 0.98377 0.0
H669 H 0.7913 0.10176 0.95282 0.0
H670 H 0.72268 0.09831 0.95242 0.0
C671 C 0.73276 0.18185 0.0001 0.0
C672 C 0.09472 0.02556 0.18454 0.0
C673 C 0.09154 0.98736 0.19548 0.0
H674 H 0.0934 0.08371 0.20197 0.0
C675 C 0.08899 0.97861 0.23408 0.0
H676 H 0.09692 0.03326 0.155 0.0
C677 C 0.08726 0.00752 0.261 0.0
C678 C 0.08771 0.04582 0.24984 0.0
H679 H 0.0868 0.94945 0.24344 0.0
H680 H 0.08369 -0.00023 0.29039 0.0
C681 C 0.09268 0.05452 0.21145 0.0
C682 C 0.94549 0.49329 0.26941 0.0
C683 C 0.9206 0.46229 0.26958 0.0
H684 H 0.96326 0.54391 0.24171 0.0
C685 C 0.89254 0.4599 0.24159 0.0
H686 H 0.96713 0.49618 0.29091 0.0
C687 C 0.89055 0.48724 0.21294 0.0
C688 C 0.9161 0.51777 0.21237 0.0
H689 H 0.87292 0.43636 0.24116 0.0
H690 H 0.86947 0.48415 0.19094 0.0
C691 C 0.94306 0.52087 0.24136 0.0
C692 C 0.23505 0.06667 0.97483 0.0
C693 C 0.23914 0.08121 0.93817 0.0
H694 H 0.25489 0.06643 0.03168 0.0
C695 C 0.26592 0.10976 0.93154 0.0
H696 H 0.21406 0.04517 0.98091 0.0
C697 C 0.29005 0.12162 0.96071 0.0
C698 C 0.28704 0.10571 -0.00292 0.0
H699 H 0.2693 0.12164 0.90353 0.0
H700 H 0.31186 0.14219 0.95447 0.0
C701 C 0.25831 0.07914 0.00404 0.0
C702 C 0.70017 0.41328 0.96901 0.0
C703 C 0.7128 0.41741 0.00652 0.0
H704 H 0.71397 0.41725 0.91023 0.0
C705 C 0.75124 0.42451 0.01322 0.0
H706 H 0.67072 0.40761 0.96288 0.0
C707 C 0.77601 0.4299 0.98304 0.0
C708 C 0.76283 0.42847 0.94551 0.0
H709 H 0.76192 0.4276 0.04176 0.0
H710 H 0.80516 0.43691 0.98926 0.0
C711 C 0.72494 0.41884 0.93878 0.0
C712 C 0.22661 0.98278 0.45372 0.0
C713 C 0.23886 0.94728 0.44031 0.0
H714 H 0.19096 0.0131 0.49195 0.0
C715 C 0.22149 0.91433 0.4543 0.0
H716 H 0.23908 0.0088 0.44336 0.0
C717 C 0.19367 0.91685 0.48237 0.0
C718 C 0.18288 0.95234 0.49701 0.0
H719 H 0.23022 0.88656 0.44452 0.0
H720 H 0.18154 0.89096 0.49341 0.0
C721 C 0.19905 0.98528 0.48174 0.0
C722 C 0.78365 0.57969 0.45957 0.0
C723 C 0.77476 0.57573 0.4981 0.0
H724 H 0.76306 0.57969 0.40264 0.0
C725 C 0.73665 0.57358 0.50888 0.0
H726 H 0.81276 0.58166 0.45036 0.0
C727 C 0.7082 0.57265 0.48156 0.0
C728 C 0.71727 0.57364 0.44286 0.0
H729 H 0.72883 0.57089 0.53835 0.0
H730 H 0.67923 0.56922 0.49082 0.0
C731 C 0.75516 0.57857 0.43219 0.0
C732 C 0.00189 0.26495 0.00771 0.0
C733 C 0.0292 0.26903 0.03628 0.0
H734 H 0.95734 0.23136 0.98467 0.0
C735 C 0.03065 0.24223 0.0656 0.0
H736 H -0.00022 0.28536 0.98493 0.0
C737 C 0.00634 0.21096 0.06532 0.0
C738 C 0.97991 0.20626 0.03598 0.0
H739 H 0.05133 0.24473 0.08805 0.0
H740 H 0.00886 0.19007 0.08761 0.0
C741 C 0.9774 0.23405 0.00767 0.0
C742 C 0.05139 0.78744 0.44142 0.0
C743 C 0.04228 0.74882 0.44408 0.0
H744 H 0.03089 0.84419 0.4358 0.0
C745 C 0.00425 0.73777 0.44011 0.0
H746 H 0.08038 0.79688 0.44418 0.0
C747 C 0.97577 0.76491 0.43554 0.0
C748 C 0.98475 0.80365 0.43455 0.0
H749 H 0.99621 0.70821 0.44196 0.0
H750 H 0.94666 0.75559 0.43394 0.0
C751 C 0.02295 0.81455 0.43656 0.0
C752 C 0.51005 0.77072 0.56753 0.0
C753 C 0.49885 0.80886 0.56518 0.0
H754 H 0.49251 0.71286 0.57102 0.0
C755 C 0.46039 0.81796 0.56981 0.0
H756 H 0.53947 0.76279 0.56436 0.0
C757 C 0.43337 0.78932 0.57334 0.0
C758 C 0.44428 0.75102 0.57263 0.0
H759 H 0.45078 0.84709 0.56835 0.0
H760 H 0.40379 0.79718 0.57458 0.0
C761 C 0.48306 0.74209 0.5714 0.0
C762 C 0.56086 0.49735 0.78942 0.0
C763 C 0.5646 0.53658 0.78348 0.0
H764 H 0.56018 0.44207 0.76477 0.0
C765 C 0.57584 0.54963 0.74775 0.0
H766 H 0.55276 0.48635 0.81682 0.0
C767 C 0.58003 0.52409 0.71772 0.0
C768 C 0.57322 0.48514 0.72304 0.0
H769 H 0.57911 0.57967 0.74239 0.0
H770 H 0.58648 0.53518 0.68994 0.0
C771 C 0.56524 0.4719 0.75957 0.0
C772 C 0.4535 0.97083 0.76714 0.0
C773 C 0.41807 0.9591 0.78066 0.0
H774 H 0.48403 0.00812 0.73083 0.0
C775 C 0.3853 0.97661 0.76636 0.0
H776 H 0.47934 0.95818 0.77772 0.0
C777 C 0.388 0.00523 0.73902 0.0
C778 C 0.42355 0.01734 0.7261 0.0
H779 H 0.3576 0.96826 0.77631 0.0
H780 H 0.36233 0.01815 0.72835 0.0
C781 C 0.45621 -0.00023 0.74046 0.0
C782 C 0.44152 0.18047 0.96751 0.0
C783 C 0.45184 0.21883 0.97053 0.0
H784 H 0.46059 0.12295 0.9627 0.0
C785 C 0.49029 0.22861 0.96812 0.0
H786 H 0.41215 0.17205 0.96925 0.0
C787 C 0.51794 0.20055 0.96501 0.0
C788 C 0.50776 0.16216 0.96348 0.0
H789 H 0.49927 0.25787 0.9704 0.0
H790 H 0.54741 0.20887 0.9648 0.0
C791 C 0.46925 0.15239 0.96363 0.0
loop_
_geom_bond_atom_site_label_1
_geom_bond_atom_site_label_2
_geom_bond_distance
_geom_bond_site_symmetry_2
_ccdc_geom_bond_type
C0 O1 1.160 1_655 S
C0 O7 1.185 . S
O1 C0 1.160 1_455 S
O2 Zn3 1.899 . S
O2 C10 1.284 1_655 S
Zn3 O2 1.899 . S
Zn3 O4 2.032 1_655 S
Zn3 O7 2.086 . S
Zn3 O12 1.977 . S
O4 Zn3 2.032 1_455 S
O4 C8 1.278 . S
C5 O6 1.203 . S
C5 O12 1.267 . S
O6 C5 1.203 . S
O7 C0 1.185 . S
O7 Zn3 2.086 . S
C8 O4 1.278 . S
C8 O9 1.211 . S
O9 C8 1.211 . S
C10 O2 1.284 1_455 S
C10 O11 1.273 . S
O11 C10 1.273 . S
O12 Zn3 1.977 . S
O12 C5 1.267 . S
C13 O14 1.160 1_455 S
C13 O20 1.185 . S
O14 C13 1.160 1_655 S
O15 Zn16 1.899 . S
O15 C23 1.284 1_455 S
Zn16 O15 1.899 . S
Zn16 O17 2.032 1_455 S
Zn16 O20 2.086 . S
Zn16 O25 1.977 . S
O17 Zn16 2.032 1_655 S
O17 C21 1.278 . S
C18 O19 1.203 . S
C18 O25 1.267 . S
O19 C18 1.203 . S
O20 C13 1.185 . S
O20 Zn16 2.086 . S
C21 O17 1.278 . S
C21 O22 1.211 . S
O22 C21 1.211 . S
C23 O15 1.284 1_655 S
C23 O24 1.273 . S
O24 C23 1.273 . S
O25 Zn16 1.977 . S
O25 C18 1.267 . S
C26 O27 1.160 1_655 S
C26 O33 1.185 . S
O27 C26 1.160 1_455 S
O28 Zn29 1.899 . S
O28 C36 1.284 1_655 S
Zn29 O28 1.899 . S
Zn29 O30 2.032 1_655 S
Zn29 O33 2.086 . S
Zn29 O38 1.977 . S
O30 Zn29 2.032 1_455 S
O30 C34 1.278 . S
C31 O32 1.203 . S
C31 O38 1.267 . S
O32 C31 1.203 . S
O33 C26 1.185 . S
O33 Zn29 2.086 . S
C34 O30 1.278 . S
C34 O35 1.211 . S
O35 C34 1.211 . S
C36 O28 1.284 1_455 S
C36 O37 1.273 . S
O37 C36 1.273 . S
O38 Zn29 1.977 . S
O38 C31 1.267 . S
C39 O40 1.160 1_455 S
C39 O46 1.185 . S
O40 C39 1.160 1_655 S
O41 Zn42 1.899 . S
O41 C49 1.284 1_455 S
Zn42 O41 1.899 . S
Zn42 O43 2.032 1_455 S
Zn42 O46 2.086 . S
Zn42 O51 1.977 . S
O43 Zn42 2.032 1_655 S
O43 C47 1.278 . S
C44 O45 1.203 . S
C44 O51 1.267 . S
O45 C44 1.203 . S
O46 C39 1.185 . S
O46 Zn42 2.086 . S
C47 O43 1.278 . S
C47 O48 1.211 . S
O48 C47 1.211 . S
C49 O41 1.284 1_655 S
C49 O50 1.273 . S
O50 C49 1.273 . S
O51 Zn42 1.977 . S
O51 C44 1.267 . S
C52 O53 1.160 1_565 S
C52 O59 1.185 . S
O53 C52 1.160 1_545 S
O54 Zn55 1.899 . S
O54 C62 1.284 1_565 S
Zn55 O54 1.899 . S
Zn55 O56 2.032 1_565 S
Zn55 O59 2.086 . S
Zn55 O64 1.977 . S
O56 Zn55 2.032 1_545 S
O56 C60 1.278 . S
C57 O58 1.203 . S
C57 O64 1.267 . S
O58 C57 1.203 . S
O59 C52 1.185 . S
O59 Zn55 2.086 . S
C60 O56 1.278 . S
C60 O61 1.211 . S
O61 C60 1.211 . S
C62 O54 1.284 1_545 S
C62 O63 1.273 . S
O63 C62 1.273 . S
O64 Zn55 1.977 . S
O64 C57 1.267 . S
C65 O66 1.160 . S
C65 O72 1.185 . S
O66 C65 1.160 . S
O67 Zn68 1.899 . S
O67 C75 1.284 . S
Zn68 O67 1.899 . S
Zn68 O69 2.032 . S
Zn68 O72 2.086 . S
Zn68 O77 1.977 . S
O69 Zn68 2.032 . S
O69 C73 1.278 . S
C70 O71 1.203 . S
C70 O77 1.267 . S
O71 C70 1.203 . S
O72 C65 1.185 . S
O72 Zn68 2.086 . S
C73 O69 1.278 . S
C73 O74 1.211 . S
O74 C73 1.211 . S
C75 O67 1.284 . S
C75 O76 1.273 . S
O76 C75 1.273 . S
O77 Zn68 1.977 . S
O77 C70 1.267 . S
C78 O79 1.160 1_545 S
C78 O85 1.185 . S
O79 C78 1.160 1_565 S
O80 Zn81 1.899 . S
O80 C88 1.284 1_545 S
Zn81 O80 1.899 . S
Zn81 O82 2.032 1_545 S
Zn81 O85 2.086 . S
Zn81 O90 1.977 . S
O82 Zn81 2.032 1_565 S
O82 C86 1.278 . S
C83 O84 1.203 . S
C83 O90 1.267 . S
O84 C83 1.203 . S
O85 C78 1.185 . S
O85 Zn81 2.086 . S
C86 O82 1.278 . S
C86 O87 1.211 . S
O87 C86 1.211 . S
C88 O80 1.284 1_565 S
C88 O89 1.273 . S
O89 C88 1.273 . S
O90 Zn81 1.977 . S
O90 C83 1.267 . S
C91 O92 1.160 . S
C91 O98 1.185 . S
O92 C91 1.160 . S
O93 Zn94 1.899 . S
O93 C101 1.284 . S
Zn94 O93 1.899 . S
Zn94 O95 2.032 . S
Zn94 O98 2.086 . S
Zn94 O103 1.977 . S
O95 Zn94 2.032 . S
O95 C99 1.278 . S
C96 O97 1.203 . S
C96 O103 1.267 . S
O97 C96 1.203 . S
O98 C91 1.185 . S
O98 Zn94 2.086 . S
C99 O95 1.278 . S
C99 O100 1.211 . S
O100 C99 1.211 . S
C101 O93 1.284 . S
C101 O102 1.273 . S
O102 C101 1.273 . S
O103 Zn94 1.977 . S
O103 C96 1.267 . S
C104 O105 1.160 1_556 S
C104 O111 1.185 . S
O105 C104 1.160 1_554 S
O106 Zn107 1.899 . S
O106 C114 1.284 1_556 S
Zn107 O106 1.899 . S
Zn107 O108 2.032 1_556 S
Zn107 O111 2.086 . S
Zn107 O116 1.977 . S
O108 Zn107 2.032 1_554 S
O108 C112 1.278 . S
C109 O110 1.203 . S
C109 O116 1.267 . S
O110 C109 1.203 . S
O111 C104 1.185 . S
O111 Zn107 2.086 . S
C112 O108 1.278 . S
C112 O113 1.211 . S
O113 C112 1.211 . S
C114 O106 1.284 1_554 S
C114 O115 1.273 . S
O115 C114 1.273 . S
O116 Zn107 1.977 . S
O116 C109 1.267 . S
C117 O118 1.160 . S
C117 O124 1.185 . S
O118 C117 1.160 . S
O119 Zn120 1.899 . S
O119 C127 1.284 . S
Zn120 O119 1.899 . S
Zn120 O121 2.032 . S
Zn120 O124 2.086 . S
Zn120 O129 1.977 . S
O121 Zn120 2.032 . S
O121 C125 1.278 . S
C122 O123 1.203 . S
C122 O129 1.267 . S
O123 C122 1.203 . S
O124 C117 1.185 . S
O124 Zn120 2.086 . S
C125 O121 1.278 . S
C125 O126 1.211 . S
O126 C125 1.211 . S
C127 O119 1.284 . S
C127 O128 1.273 . S
O128 C127 1.273 . S
O129 Zn120 1.977 . S
O129 C122 1.267 . S
C130 O131 1.160 . S
C130 O137 1.185 . S
O131 C130 1.160 . S
O132 Zn133 1.899 . S
O132 C140 1.284 . S
Zn133 O132 1.899 . S
Zn133 O134 2.032 . S
Zn133 O137 2.086 . S
Zn133 O142 1.977 . S
O134 Zn133 2.032 . S
O134 C138 1.278 . S
C135 O136 1.203 . S
C135 O142 1.267 . S
O136 C135 1.203 . S
O137 C130 1.185 . S
O137 Zn133 2.086 . S
C138 O134 1.278 . S
C138 O139 1.211 . S
O139 C138 1.211 . S
C140 O132 1.284 . S
C140 O141 1.273 . S
O141 C140 1.273 . S
O142 Zn133 1.977 . S
O142 C135 1.267 . S
C143 O144 1.160 . S
C143 O150 1.185 . S
O144 C143 1.160 . S
O145 Zn146 1.899 . S
O145 C153 1.284 . S
Zn146 O145 1.899 . S
Zn146 O147 2.032 . S
Zn146 O150 2.086 . S
Zn146 O155 1.977 . S
O147 Zn146 2.032 . S
O147 C151 1.278 . S
C148 O149 1.203 . S
C148 O155 1.267 . S
O149 C148 1.203 . S
O150 C143 1.185 . S
O150 Zn146 2.086 . S
C151 O147 1.278 . S
C151 O152 1.211 . S
O152 C151 1.211 . S
C153 O145 1.284 . S
C153 O154 1.273 . S
O154 C153 1.273 . S
O155 Zn146 1.977 . S
O155 C148 1.267 . S
C156 O157 1.160 . S
C156 O163 1.185 . S
O157 C156 1.160 . S
O158 Zn159 1.899 . S
O158 C166 1.284 . S
Zn159 O158 1.899 . S
Zn159 O160 2.032 . S
Zn159 O163 2.086 . S
Zn159 O168 1.977 . S
O160 Zn159 2.032 . S
O160 C164 1.278 . S
C161 O162 1.203 . S
C161 O168 1.267 . S
O162 C161 1.203 . S
O163 C156 1.185 . S
O163 Zn159 2.086 . S
C164 O160 1.278 . S
C164 O165 1.211 . S
O165 C164 1.211 . S
C166 O158 1.284 . S
C166 O167 1.273 . S
O167 C166 1.273 . S
O168 Zn159 1.977 . S
O168 C161 1.267 . S
C169 O170 1.160 . S
C169 O176 1.185 . S
O170 C169 1.160 . S
O171 Zn172 1.899 . S
O171 C179 1.284 . S
Zn172 O171 1.899 . S
Zn172 O173 2.032 . S
Zn172 O176 2.086 . S
Zn172 O181 1.977 . S
O173 Zn172 2.032 . S
O173 C177 1.278 . S
C174 O175 1.203 . S
C174 O181 1.267 . S
O175 C174 1.203 . S
O176 C169 1.185 . S
O176 Zn172 2.086 . S
C177 O173 1.278 . S
C177 O178 1.211 . S
O178 C177 1.211 . S
C179 O171 1.284 . S
C179 O180 1.273 . S
O180 C179 1.273 . S
O181 Zn172 1.977 . S
O181 C174 1.267 . S
C182 O183 1.160 . S
C182 O189 1.185 . S
O183 C182 1.160 . S
O184 Zn185 1.899 . S
O184 C192 1.284 . S
Zn185 O184 1.899 . S
Zn185 O186 2.032 . S
Zn185 O189 2.086 . S
Zn185 O194 1.977 . S
O186 Zn185 2.032 . S
O186 C190 1.278 . S
C187 O188 1.203 . S
C187 O194 1.267 . S
O188 C187 1.203 . S
O189 C182 1.185 . S
O189 Zn185 2.086 . S
C190 O186 1.278 . S
C190 O191 1.211 . S
O191 C190 1.211 . S
C192 O184 1.284 . S
C192 O193 1.273 . S
O193 C192 1.273 . S
O194 Zn185 1.977 . S
O194 C187 1.267 . S
C195 O196 1.160 . S
C195 O202 1.185 . S
O196 C195 1.160 . S
O197 Zn198 1.899 . S
O197 C205 1.284 . S
Zn198 O197 1.899 . S
Zn198 O199 2.032 . S
Zn198 O202 2.086 . S
Zn198 O207 1.977 . S
O199 Zn198 2.032 . S
O199 C203 1.278 . S
C200 O201 1.203 . S
C200 O207 1.267 . S
O201 C200 1.203 . S
O202 C195 1.185 . S
O202 Zn198 2.086 . S
C203 O199 1.278 . S
C203 O204 1.211 . S
O204 C203 1.211 . S
C205 O197 1.284 . S
C205 O206 1.273 . S
O206 C205 1.273 . S
O207 Zn198 1.977 . S
O207 C200 1.267 . S
C208 O209 1.160 . S
C208 O215 1.185 . S
O209 C208 1.160 . S
O210 Zn211 1.899 . S
O210 C218 1.284 . S
Zn211 O210 1.899 . S
Zn211 O212 2.032 . S
Zn211 O215 2.086 . S
Zn211 O220 1.977 . S
O212 Zn211 2.032 . S
O212 C216 1.278 . S
C213 O214 1.203 . S
C213 O220 1.267 . S
O214 C213 1.203 . S
O215 C208 1.185 . S
O215 Zn211 2.086 . S
C216 O212 1.278 . S
C216 O217 1.211 . S
O217 C216 1.211 . S
C218 O210 1.284 . S
C218 O219 1.273 . S
O219 C218 1.273 . S
O220 Zn211 1.977 . S
O220 C213 1.267 . S
C221 O222 1.160 1_545 S
C221 O228 1.185 . S
O222 C221 1.160 1_565 S
O223 Zn224 1.899 . S
O223 C231 1.284 1_545 S
Zn224 O223 1.899 . S
Zn224 O225 2.032 1_545 S
Zn224 O228 2.086 . S
Zn224 O233 1.977 . S
O225 Zn224 2.032 1_565 S
O225 C229 1.278 . S
C226 O227 1.203 . S
C226 O233 1.267 . S
O227 C226 1.203 . S
O228 C221 1.185 . S
O228 Zn224 2.086 . S
C229 O225 1.278 . S
C229 O230 1.211 . S
O230 C229 1.211 . S
C231 O223 1.284 1_565 S
C231 O232 1.273 . S
O232 C231 1.273 . S
O233 Zn224 1.977 . S
O233 C226 1.267 . S
C234 O235 1.160 . S
C234 O241 1.185 . S
O235 C234 1.160 . S
O236 Zn237 1.899 . S
O236 C244 1.284 . S
Zn237 O236 1.899 . S
Zn237 O238 2.032 . S
Zn237 O241 2.086 . S
Zn237 O246 1.977 . S
O238 Zn237 2.032 . S
O238 C242 1.278 . S
C239 O240 1.203 . S
C239 O246 1.267 . S
O240 C239 1.203 . S
O241 C234 1.185 . S
O241 Zn237 2.086 . S
C242 O238 1.278 . S
C242 O243 1.211 . S
O243 C242 1.211 . S
C244 O236 1.284 . S
C244 O245 1.273 . S
O245 C244 1.273 . S
O246 Zn237 1.977 . S
O246 C239 1.267 . S
C247 O248 1.160 1_565 S
C247 O254 1.185 . S
O248 C247 1.160 1_545 S
O249 Zn250 1.899 . S
O249 C257 1.284 1_565 S
Zn250 O249 1.899 . S
Zn250 O251 2.032 1_565 S
Zn250 O254 2.086 . S
Zn250 O259 1.977 . S
O251 Zn250 2.032 1_545 S
O251 C255 1.278 . S
C252 O253 1.203 . S
C252 O259 1.267 . S
O253 C252 1.203 . S
O254 C247 1.185 . S
O254 Zn250 2.086 . S
C255 O251 1.278 . S
C255 O256 1.211 . S
O256 C255 1.211 . S
C257 O249 1.284 1_545 S
C257 O258 1.273 . S
O258 C257 1.273 . S
O259 Zn250 1.977 . S
O259 C252 1.267 . S
C260 O261 1.160 . S
C260 O267 1.185 . S
O261 C260 1.160 . S
O262 Zn263 1.899 . S
O262 C270 1.284 . S
Zn263 O262 1.899 . S
Zn263 O264 2.032 . S
Zn263 O267 2.086 . S
Zn263 O272 1.977 . S
O264 Zn263 2.032 . S
O264 C268 1.278 . S
C265 O266 1.203 . S
C265 O272 1.267 . S
O266 C265 1.203 . S
O267 C260 1.185 . S
O267 Zn263 2.086 . S
C268 O264 1.278 . S
C268 O269 1.211 . S
O269 C268 1.211 . S
C270 O262 1.284 . S
C270 O271 1.273 . S
O271 C270 1.273 . S
O272 Zn263 1.977 . S
O272 C265 1.267 . S
C273 O274 1.160 1_554 S
C273 O280 1.185 . S
O274 C273 1.160 1_556 S
O275 Zn276 1.899 . S
O275 C283 1.284 1_554 S
Zn276 O275 1.899 . S
Zn276 O277 2.032 1_554 S
Zn276 O280 2.086 . S
Zn276 O285 1.977 . S
O277 Zn276 2.032 1_556 S
O277 C281 1.278 . S
C278 O279 1.203 . S
C278 O285 1.267 . S
O279 C278 1.203 . S
O280 C273 1.185 . S
O280 Zn276 2.086 . S
C281 O277 1.278 . S
C281 O282 1.211 . S
O282 C281 1.211 . S
C283 O275 1.284 1_556 S
C283 O284 1.273 . S
O284 C283 1.273 . S
O285 Zn276 1.977 . S
O285 C278 1.267 . S
C286 O287 1.160 1_554 S
C286 O293 1.185 . S
O287 C286 1.160 1_556 S
O288 Zn289 1.899 . S
O288 C296 1.284 1_554 S
Zn289 O288 1.899 . S
Zn289 O290 2.032 1_554 S
Zn289 O293 2.086 . S
Zn289 O298 1.977 . S
O290 Zn289 2.032 1_556 S
O290 C294 1.278 . S
C291 O292 1.203 . S
C291 O298 1.267 . S
O292 C291 1.203 . S
O293 C286 1.185 . S
O293 Zn289 2.086 . S
C294 O290 1.278 . S
C294 O295 1.211 . S
O295 C294 1.211 . S
C296 O288 1.284 1_556 S
C296 O297 1.273 . S
O297 C296 1.273 . S
O298 Zn289 1.977 . S
O298 C291 1.267 . S
C299 O300 1.160 1_556 S
C299 O306 1.185 . S
O300 C299 1.160 1_554 S
O301 Zn302 1.899 . S
O301 C309 1.284 1_556 S
Zn302 O301 1.899 . S
Zn302 O303 2.032 1_556 S
Zn302 O306 2.086 . S
Zn302 O311 1.977 . S
O303 Zn302 2.032 1_554 S
O303 C307 1.278 . S
C304 O305 1.203 . S
C304 O311 1.267 . S
O305 C304 1.203 . S
O306 C299 1.185 . S
O306 Zn302 2.086 . S
C307 O303 1.278 . S
C307 O308 1.211 . S
O308 C307 1.211 . S
C309 O301 1.284 1_554 S
C309 O310 1.273 . S
O310 C309 1.273 . S
O311 Zn302 1.977 . S
O311 C304 1.267 . S
C312 C313 1.387 . S
C312 H316 0.950 . S
C312 C321 1.390 . S
C313 C312 1.387 . S
C313 C315 1.387 . S
H314 C321 0.950 . S
C315 C313 1.387 . S
C315 C317 1.390 . S
C315 H319 0.950 . S
H316 C312 0.950 . S
C317 C315 1.390 . S
C317 C318 1.387 . S
C317 H320 0.950 . S
C318 C317 1.387 . S
C318 C321 1.387 . S
H319 C315 0.950 . S
H320 C317 0.950 . S
C321 C312 1.390 . S
C321 H314 0.950 . S
C321 C318 1.387 . S
C322 C323 1.387 . S
C322 H326 0.950 . S
C322 C331 1.390 . S
C323 C322 1.387 . S
C323 C325 1.387 . S
H324 C331 0.950 . S
C325 C323 1.387 . S
C325 C327 1.390 . S
C325 H329 0.950 . S
H326 C322 0.950 . S
C327 C325 1.390 . S
C327 C328 1.387 . S
C327 H330 0.950 . S
C328 C327 1.387 . S
C328 C331 1.387 . S
H329 C325 0.950 . S
H330 C327 0.950 . S
C331 C322 1.390 . S
C331 H324 0.950 . S
C331 C328 1.387 . S
C332 C333 1.387 . S
C332 H336 0.950 . S
C332 C341 1.390 . S
C333 C332 1.387 . S
C333 C335 1.387 . S
H334 C341 0.950 1_556 S
C335 C333 1.387 . S
C335 C337 1.390 . S
C335 H339 0.950 . S
H336 C332 0.950 . S
C337 C335 1.390 . S
C337 C338 1.387 1_554 S
C337 H340 0.950 1_554 S
C338 C337 1.387 1_556 S
C338 C341 1.387 1_556 S
H339 C335 0.950 . S
H340 C337 0.950 1_556 S
C341 C332 1.390 . S
C341 H334 0.950 1_554 S
C341 C338 1.387 1_554 S
C342 C343 1.387 . S
C342 H346 0.950 . S
C342 C351 1.390 1_554 S
C343 C342 1.387 . S
C343 C345 1.387 . S
H344 C351 0.950 . S
C345 C343 1.387 . S
C345 C347 1.390 . S
C345 H349 0.950 . S
H346 C342 0.950 . S
C347 C345 1.390 . S
C347 C348 1.387 1_554 S
C347 H350 0.950 . S
C348 C347 1.387 1_556 S
C348 C351 1.387 . S
H349 C345 0.950 . S
H350 C347 0.950 . S
C351 C342 1.390 1_556 S
C351 H344 0.950 . S
C351 C348 1.387 . S
C352 C353 1.387 . S
C352 H356 0.950 . S
C352 C361 1.390 . S
C353 C352 1.387 . S
C353 C355 1.387 . S
H354 C361 0.950 . S
C355 C353 1.387 . S
C355 C357 1.390 . S
C355 H359 0.950 . S
H356 C352 0.950 . S
C357 C355 1.390 . S
C357 C358 1.387 . S
C357 H360 0.950 . S
C358 C357 1.387 . S
C358 C361 1.387 . S
H359 C355 0.950 . S
H360 C357 0.950 . S
C361 C352 1.390 . S
C361 H354 0.950 . S
C361 C358 1.387 . S
C362 C363 1.387 . S
C362 H366 0.950 . S
C362 C371 1.390 . S
C363 C362 1.387 . S
C363 C365 1.387 . S
H364 C371 0.950 . S
C365 C363 1.387 . S
C365 C367 1.390 . S
C365 H369 0.950 . S
H366 C362 0.950 . S
C367 C365 1.390 . S
C367 C368 1.387 . S
C367 H370 0.950 . S
C368 C367 1.387 . S
C368 C371 1.387 . S
H369 C365 0.950 . S
H370 C367 0.950 . S
C371 C362 1.390 . S
C371 H364 0.950 . S
C371 C368 1.387 . S
C372 C373 1.387 . S
C372 H376 0.950 . S
C372 C381 1.390 . S
C373 C372 1.387 . S
C373 C375 1.387 . S
H374 C381 0.950 . S
C375 C373 1.387 . S
C375 C377 1.390 . S
C375 H379 0.950 . S
H376 C372 0.950 . S
C377 C375 1.390 . S
C377 C378 1.387 . S
C377 H380 0.950 . S
C378 C377 1.387 . S
C378 C381 1.387 . S
H379 C375 0.950 . S
H380 C377 0.950 . S
C381 C372 1.390 . S
C381 H374 0.950 . S
C381 C378 1.387 . S
C382 C383 1.387 . S
C382 H386 0.950 . S
C382 C391 1.390 . S
C383 C382 1.387 . S
C383 C385 1.387 . S
H384 C391 0.950 . S
C385 C383 1.387 . S
C385 C387 1.390 . S
C385 H389 0.950 . S
H386 C382 0.950 . S
C387 C385 1.390 . S
C387 C388 1.387 . S
C387 H390 0.950 . S
C388 C387 1.387 . S
C388 C391 1.387 . S
H389 C385 0.950 . S
H390 C387 0.950 . S
C391 C382 1.390 . S
C391 H384 0.950 . S
C391 C388 1.387 . S
C392 C393 1.387 . S
C392 H396 0.950 . S
C392 C401 1.390 . S
C393 C392 1.387 . S
C393 C395 1.387 . S
H394 C401 0.950 . S
C395 C393 1.387 . S
C395 C397 1.390 . S
C395 H399 0.950 . S
H396 C392 0.950 . S
C397 C395 1.390 . S
C397 C398 1.387 . S
C397 H400 0.950 . S
C398 C397 1.387 . S
C398 C401 1.387 . S
H399 C395 0.950 . S
H400 C397 0.950 . S
C401 C392 1.390 . S
C401 H394 0.950 . S
C401 C398 1.387 . S
C402 C403 1.387 . S
C402 H406 0.950 . S
C402 C411 1.390 . S
C403 C402 1.387 . S
C403 C405 1.387 . S
H404 C411 0.950 . S
C405 C403 1.387 . S
C405 C407 1.390 . S
C405 H409 0.950 . S
H406 C402 0.950 . S
C407 C405 1.390 . S
C407 C408 1.387 . S
C407 H410 0.950 . S
C408 C407 1.387 . S
C408 C411 1.387 . S
H409 C405 0.950 . S
H410 C407 0.950 . S
C411 C402 1.390 . S
C411 H404 0.950 . S
C411 C408 1.387 . S
C412 C413 1.387 . S
C412 H416 0.950 . S
C412 C421 1.390 . S
C413 C412 1.387 . S
C413 C415 1.387 . S
H414 C421 0.950 1_545 S
C415 C413 1.387 . S
C415 C417 1.390 . S
C415 H419 0.950 . S
H416 C412 0.950 . S
C417 C415 1.390 . S
C417 C418 1.387 1_565 S
C417 H420 0.950 1_565 S
C418 C417 1.387 1_545 S
C418 C421 1.387 1_545 S
H419 C415 0.950 . S
H420 C417 0.950 1_545 S
C421 C412 1.390 . S
C421 H414 0.950 1_565 S
C421 C418 1.387 1_565 S
C422 C423 1.387 . S
C422 H426 0.950 . S
C422 C431 1.390 . S
C423 C422 1.387 . S
C423 C425 1.387 . S
H424 C431 0.950 . S
C425 C423 1.387 . S
C425 C427 1.390 . S
C425 H429 0.950 . S
H426 C422 0.950 . S
C427 C425 1.390 . S
C427 C428 1.387 . S
C427 H430 0.950 . S
C428 C427 1.387 . S
C428 C431 1.387 . S
H429 C425 0.950 . S
H430 C427 0.950 . S
C431 C422 1.390 . S
C431 H424 0.950 . S
C431 C428 1.387 . S
C432 C433 1.387 1_556 S
C432 H436 0.959 . S
C432 C441 1.390 . S
C433 C432 1.387 1_554 S
C433 C435 1.387 1_554 S
H434 C441 0.950 . S
C435 C433 1.387 1_556 S
C435 C437 1.390 . S
C435 H439 0.950 1_556 S
H436 C432 0.959 . S
C437 C435 1.390 . S
C437 C438 1.387 . S
C437 H440 0.950 . S
C438 C437 1.387 . S
C438 C441 1.387 . S
H439 C435 0.950 1_554 S
H440 C437 0.950 . S
C441 C432 1.390 . S
C441 H434 0.950 . S
C441 C438 1.387 . S
C442 C443 1.387 1_556 S
C442 H446 0.950 1_556 S
C442 C451 1.390 . S
C443 C442 1.387 1_554 S
C443 C445 1.387 1_554 S
H444 C451 0.950 . S
C445 C443 1.387 1_556 S
C445 C447 1.390 . S
C445 H449 0.950 1_556 S
H446 C442 0.950 1_554 S
C447 C445 1.390 . S
C447 C448 1.387 . S
C447 H450 0.950 . S
C448 C447 1.387 . S
C448 C451 1.387 . S
H449 C445 0.950 1_554 S
H450 C447 0.950 . S
C451 C442 1.390 . S
C451 H444 0.950 . S
C451 C448 1.387 . S
C452 C453 1.387 . S
C452 H456 0.950 . S
C452 C461 1.390 . S
C453 C452 1.387 . S
C453 C455 1.387 . S
H454 C461 0.950 . S
C455 C453 1.387 . S
C455 C457 1.390 . S
C455 H459 0.950 . S
H456 C452 0.950 . S
C457 C455 1.390 . S
C457 C458 1.387 . S
C457 H460 0.950 . S
C458 C457 1.387 . S
C458 C461 1.387 . S
H459 C455 0.950 . S
H460 C457 0.950 . S
C461 C452 1.390 . S
C461 H454 0.950 . S
C461 C458 1.387 . S
C462 C463 1.387 . S
C462 H466 0.950 . S
C462 C471 1.390 . S
C463 C462 1.387 . S
C463 C465 1.387 . S
H464 C471 0.950 . S
C465 C463 1.387 . S
C465 C467 1.390 . S
C465 H469 0.950 . S
H466 C462 0.950 . S
C467 C465 1.390 . S
C467 C468 1.387 . S
C467 H470 0.950 . S
C468 C467 1.387 . S
C468 C471 1.387 . S
H469 C465 0.950 . S
H470 C467 0.950 . S
C471 C462 1.390 . S
C471 H464 0.950 . S
C471 C468 1.387 . S
C472 C473 1.387 . S
C472 H476 0.950 . S
C472 C481 1.390 1_455 S
C473 C472 1.387 . S
C473 C475 1.387 1_455 S
H474 C481 0.950 . S
C475 C473 1.387 1_655 S
C475 C477 1.390 . S
C475 H479 0.950 . S
H476 C472 0.950 . S
C477 C475 1.390 . S
C477 C478 1.387 . S
C477 H480 0.950 . S
C478 C477 1.387 . S
C478 C481 1.387 . S
H479 C475 0.950 . S
H480 C477 0.950 . S
C481 C472 1.390 1_655 S
C481 H474 0.950 . S
C481 C478 1.387 . S
C482 C483 1.387 1_455 S
C482 H486 0.950 1_455 S
C482 C491 1.390 . S
C483 C482 1.387 1_655 S
C483 C485 1.387 1_655 S
H484 C491 0.950 . S
C485 C483 1.387 1_455 S
C485 C487 1.390 . S
C485 H489 0.950 1_455 S
H486 C482 0.950 1_655 S
C487 C485 1.390 . S
C487 C488 1.387 . S
C487 H490 0.950 . S
C488 C487 1.387 . S
C488 C491 1.387 . S
H489 C485 0.950 1_655 S
H490 C487 0.950 . S
C491 C482 1.390 . S
C491 H484 0.950 . S
C491 C488 1.387 . S
C492 C493 1.387 1_655 S
C492 H496 0.950 1_655 S
C492 C501 1.390 . S
C493 C492 1.387 1_455 S
C493 C495 1.387 1_455 S
H494 C501 0.950 . S
C495 C493 1.387 1_655 S
C495 C497 1.390 . S
C495 H499 0.950 1_655 S
H496 C492 0.950 1_455 S
C497 C495 1.390 . S
C497 C498 1.387 . S
C497 H500 0.950 . S
C498 C497 1.387 . S
C498 C501 1.387 . S
H499 C495 0.950 1_455 S
H500 C497 0.950 . S
C501 C492 1.390 . S
C501 H494 0.950 . S
C501 C498 1.387 . S
C502 C503 1.387 . S
C502 H506 0.950 . S
C502 C511 1.390 . S
C503 C502 1.387 . S
C503 C505 1.387 . S
H504 C511 0.950 1_655 S
C505 C503 1.387 . S
C505 C507 1.390 . S
C505 H509 0.950 . S
H506 C502 0.950 . S
C507 C505 1.390 . S
C507 C508 1.387 1_455 S
C507 H510 0.950 1_455 S
C508 C507 1.387 1_655 S
C508 C511 1.387 1_655 S
H509 C505 0.950 . S
H510 C507 0.950 1_655 S
C511 C502 1.390 . S
C511 H504 0.950 1_455 S
C511 C508 1.387 1_455 S
C512 C513 1.387 1_565 S
C512 H516 0.950 . S
C512 C521 1.390 . S
C513 C512 1.387 1_545 S
C513 C515 1.387 1_545 S
H514 C521 0.950 . S
C515 C513 1.387 1_565 S
C515 C517 1.390 . S
C515 H519 0.950 1_565 S
H516 C512 0.950 . S
C517 C515 1.390 . S
C517 C518 1.387 . S
C517 H520 0.950 . S
C518 C517 1.387 . S
C518 C521 1.387 . S
H519 C515 0.950 1_545 S
H520 C517 0.950 . S
C521 C512 1.390 . S
C521 H514 0.950 . S
C521 C518 1.387 . S
C522 C523 1.387 . S
C522 H526 0.950 . S
C522 C531 1.401 . S
C523 C522 1.387 . S
C523 C525 1.387 . S
H524 C531 0.943 1_565 S
C525 C523 1.387 . S
C525 C527 1.390 . S
C525 H529 0.950 . S
H526 C522 0.950 . S
C527 C525 1.390 . S
C527 C528 1.387 1_545 S
C527 H530 0.943 1_545 S
C528 C527 1.387 1_565 S
C528 C531 1.384 1_565 S
H529 C525 0.950 . S
H530 C527 0.943 1_565 S
C531 C522 1.401 . S
C531 H524 0.943 1_545 S
C531 C528 1.384 1_545 S
C532 C533 1.387 . S
C532 H536 0.950 . S
C532 C541 1.390 . S
C533 C532 1.387 . S
C533 C535 1.387 . S
H534 C541 0.950 . S
C535 C533 1.387 . S
C535 C537 1.390 . S
C535 H539 0.950 . S
H536 C532 0.950 . S
C537 C535 1.390 . S
C537 C538 1.387 . S
C537 H540 0.950 . S
C538 C537 1.387 . S
C538 C541 1.387 . S
H539 C535 0.950 . S
H540 C537 0.950 . S
C541 C532 1.390 . S
C541 H534 0.950 . S
C541 C538 1.387 . S
C542 C543 1.387 . S
C542 H546 0.950 . S
C542 C551 1.390 . S
C543 C542 1.387 . S
C543 C545 1.387 . S
H544 C551 0.950 1_565 S
C545 C543 1.387 . S
C545 C547 1.390 . S
C545 H549 0.950 . S
H546 C542 0.950 . S
C547 C545 1.390 . S
C547 C548 1.387 1_545 S
C547 H550 0.950 1_545 S
C548 C547 1.387 1_565 S
C548 C551 1.387 1_565 S
H549 C545 0.950 . S
H550 C547 0.950 1_565 S
C551 C542 1.390 . S
C551 H544 0.950 1_545 S
C551 C548 1.387 1_545 S
C552 C553 1.387 . S
C552 H556 0.950 . S
C552 C561 1.390 1_655 S
C553 C552 1.387 . S
C553 C555 1.387 . S
H554 C561 0.950 . S
C555 C553 1.387 . S
C555 C557 1.390 1_655 S
C555 H559 0.950 . S
H556 C552 0.950 . S
C557 C555 1.390 1_455 S
C557 C558 1.387 . S
C557 H560 0.950 . S
C558 C557 1.387 . S
C558 C561 1.387 . S
H559 C555 0.950 . S
H560 C557 0.950 . S
C561 C552 1.390 1_455 S
C561 H554 0.950 . S
C561 C558 1.387 . S
C562 C563 1.387 . S
C562 H566 0.950 . S
C562 C571 1.390 1_455 S
C563 C562 1.387 . S
C563 C565 1.387 . S
H564 C571 0.950 . S
C565 C563 1.387 . S
C565 C567 1.390 1_455 S
C565 H569 0.950 . S
H566 C562 0.950 . S
C567 C565 1.390 1_655 S
C567 C568 1.387 . S
C567 H570 0.950 . S
C568 C567 1.387 . S
C568 C571 1.387 . S
H569 C565 0.950 . S
H570 C567 0.950 . S
C571 C562 1.390 1_655 S
C571 H564 0.950 . S
C571 C568 1.387 . S
C572 C573 1.387 . S
C572 H576 0.950 . S
C572 C581 1.390 . S
C573 C572 1.387 . S
C573 C575 1.387 1_565 S
H574 C581 0.950 . S
C575 C573 1.387 1_545 S
C575 C577 1.390 . S
C575 H579 0.950 . S
H576 C572 0.950 . S
C577 C575 1.390 . S
C577 C578 1.387 . S
C577 H580 0.950 . S
C578 C577 1.387 . S
C578 C581 1.387 1_545 S
H579 C575 0.950 . S
H580 C577 0.950 . S
C581 C572 1.390 . S
C581 H574 0.950 . S
C581 C578 1.387 1_565 S
C582 C583 1.387 . S
C582 H586 0.950 . S
C582 C591 1.390 . S
C583 C582 1.387 . S
C583 C585 1.387 . S
H584 C591 0.950 . S
C585 C583 1.387 . S
C585 C587 1.390 . S
C585 H589 0.950 . S
H586 C582 0.950 . S
C587 C585 1.390 . S
C587 C588 1.387 . S
C587 H590 0.950 . S
C588 C587 1.387 . S
C588 C591 1.387 . S
H589 C585 0.950 . S
H590 C587 0.950 . S
C591 C582 1.390 . S
C591 H584 0.950 . S
C591 C588 1.387 . S
C592 C593 1.387 1_556 S
C592 H596 0.950 . S
C592 C601 1.390 . S
C593 C592 1.387 1_554 S
C593 C595 1.387 . S
H594 C601 0.950 . S
C595 C593 1.387 . S
C595 C597 1.390 . S
C595 H599 0.950 . S
H596 C592 0.950 . S
C597 C595 1.390 . S
C597 C598 1.387 1_554 S
C597 H600 0.950 . S
C598 C597 1.387 1_556 S
C598 C601 1.387 . S
H599 C595 0.950 . S
H600 C597 0.950 . S
C601 C592 1.390 . S
C601 H594 0.950 . S
C601 C598 1.387 . S
C602 C603 1.387 . S
C602 H606 0.950 . S
C602 C611 1.390 . S
C603 C602 1.387 . S
C603 C605 1.387 . S
H604 C611 0.950 . S
C605 C603 1.387 . S
C605 C607 1.390 . S
C605 H609 0.950 . S
H606 C602 0.950 . S
C607 C605 1.390 . S
C607 C608 1.387 . S
C607 H610 0.950 . S
C608 C607 1.387 . S
C608 C611 1.387 . S
H609 C605 0.950 . S
H610 C607 0.950 . S
C611 C602 1.390 . S
C611 H604 0.950 . S
C611 C608 1.387 . S
C612 C613 1.387 . S
C612 H616 0.950 . S
C612 C621 1.390 . S
C613 C612 1.387 . S
C613 C615 1.387 . S
H614 C621 0.950 . S
C615 C613 1.387 . S
C615 C617 1.390 . S
C615 H619 0.950 . S
H616 C612 0.950 . S
C617 C615 1.390 . S
C617 C618 1.387 . S
C617 H620 0.950 . S
C618 C617 1.387 . S
C618 C621 1.387 . S
H619 C615 0.950 . S
H620 C617 0.950 . S
C621 C612 1.390 . S
C621 H614 0.950 . S
C621 C618 1.387 . S
C622 C623 1.387 . S
C622 H626 0.950 . S
C622 C631 1.390 . S
C623 C622 1.387 . S
C623 C625 1.387 . S
H624 C631 0.950 . S
C625 C623 1.387 . S
C625 C627 1.390 . S
C625 H629 0.950 . S
H626 C622 0.950 . S
C627 C625 1.390 . S
C627 C628 1.387 . S
C627 H630 0.950 . S
C628 C627 1.387 . S
C628 C631 1.387 . S
H629 C625 0.950 . S
H630 C627 0.950 . S
C631 C622 1.390 . S
C631 H624 0.950 . S
C631 C628 1.387 . S
C632 C633 1.387 . S
C632 H636 0.950 . S
C632 C641 1.390 . S
C633 C632 1.387 . S
C633 C635 1.387 . S
H634 C641 0.950 . S
C635 C633 1.387 . S
C635 C637 1.390 . S
C635 H639 0.950 . S
H636 C632 0.950 . S
C637 C635 1.390 . S
C637 C638 1.387 . S
C637 H640 0.950 . S
C638 C637 1.387 . S
C638 C641 1.387 . S
H639 C635 0.950 . S
H640 C637 0.950 . S
C641 C632 1.390 . S
C641 H634 0.950 . S
C641 C638 1.387 . S
C642 C643 1.387 . S
C642 H646 0.950 . S
C642 C651 1.390 . S
C643 C642 1.387 . S
C643 C645 1.387 . S
H644 C651 0.950 . S
C645 C643 1.387 . S
C645 C647 1.390 . S
C645 H649 0.950 . S
H646 C642 0.950 . S
C647 C645 1.390 . S
C647 C648 1.387 . S
C647 H650 0.950 . S
C648 C647 1.387 . S
C648 C651 1.387 . S
H649 C645 0.950 . S
H650 C647 0.950 . S
C651 C642 1.390 . S
C651 H644 0.950 . S
C651 C648 1.387 . S
C652 C653 1.387 1_565 S
C652 H656 0.950 . S
C652 C661 1.390 . S
C653 C652 1.387 1_545 S
C653 C655 1.387 . S
H654 C661 0.950 . S
C655 C653 1.387 . S
C655 C657 1.390 . S
C655 H659 0.950 . S
H656 C652 0.950 . S
C657 C655 1.390 . S
C657 C658 1.387 1_545 S
C657 H660 0.950 . S
C658 C657 1.387 1_565 S
C658 C661 1.387 . S
H659 C655 0.950 . S
H660 C657 0.950 . S
C661 C652 1.390 . S
C661 H654 0.950 . S
C661 C658 1.387 . S
C662 C663 1.387 . S
C662 H666 0.950 . S
C662 C671 1.390 1_556 S
C663 C662 1.387 . S
C663 C665 1.387 . S
H664 C671 0.950 . S
C665 C663 1.387 . S
C665 C667 1.390 1_556 S
C665 H669 0.949 . S
H666 C662 0.950 . S
C667 C665 1.390 1_554 S
C667 C668 1.387 . S
C667 H670 0.950 . S
C668 C667 1.387 . S
C668 C671 1.387 . S
H669 C665 0.949 . S
H670 C667 0.950 . S
C671 C662 1.390 1_554 S
C671 H664 0.950 . S
C671 C668 1.387 . S
C672 C673 1.387 . S
C672 H676 0.950 . S
C672 C681 1.390 1_565 S
C673 C672 1.387 . S
C673 C675 1.387 1_455 S
H674 C681 0.950 . S
C675 C673 1.387 1_655 S
C675 C677 1.390 1_565 S
C675 H679 0.950 . S
H676 C672 0.950 . S
C677 C675 1.390 1_545 S
C677 C678 1.387 1_655 S
C677 H680 0.950 . S
C678 C677 1.387 1_455 S
C678 C681 1.387 . S
H679 C675 0.950 . S
H680 C677 0.950 . S
C681 C672 1.390 1_545 S
C681 H674 0.950 . S
C681 C678 1.387 . S
C682 C683 1.387 1_455 S
C682 H686 0.950 . S
C682 C691 1.390 . S
C683 C682 1.387 1_655 S
C683 C685 1.387 . S
H684 C691 0.950 . S
C685 C683 1.387 . S
C685 C687 1.390 . S
C685 H689 0.950 . S
H686 C682 0.950 . S
C687 C685 1.390 . S
C687 C688 1.387 . S
C687 H690 0.950 . S
C688 C687 1.387 . S
C688 C691 1.387 1_655 S
H689 C685 0.950 . S
H690 C687 0.950 . S
C691 C682 1.390 . S
C691 H684 0.950 . S
C691 C688 1.387 1_455 S
C692 C693 1.387 1_565 S
C692 H696 0.950 . S
C692 C701 1.390 1_556 S
C693 C692 1.387 1_545 S
C693 C695 1.387 . S
H694 C701 0.950 . S
C695 C693 1.387 . S
C695 C697 1.390 1_556 S
C695 H699 0.950 . S
H696 C692 0.950 . S
C697 C695 1.390 1_554 S
C697 C698 1.387 . S
C697 H700 0.950 . S
C698 C697 1.387 . S
C698 C701 1.387 1_545 S
H699 C695 0.950 . S
H700 C697 0.950 . S
C701 C692 1.390 1_554 S
C701 H694 0.950 . S
C701 C698 1.387 1_565 S
C702 C703 1.387 . S
C702 H706 0.950 . S
C702 C711 1.390 1_554 S
C703 C702 1.387 . S
C703 C705 1.387 . S
H704 C711 0.950 . S
C705 C703 1.387 . S
C705 C707 1.390 1_554 S
C705 H709 0.950 . S
H706 C702 0.950 . S
C707 C705 1.390 1_556 S
C707 C708 1.387 . S
C707 H710 0.950 . S
C708 C707 1.387 . S
C708 C711 1.387 . S
H709 C705 0.950 . S
H710 C707 0.950 . S
C711 C702 1.390 1_556 S
C711 H704 0.950 . S
C711 C708 1.387 . S
C712 C713 1.387 1_545 S
C712 H716 0.950 . S
C712 C721 1.390 . S
C713 C712 1.387 1_565 S
C713 C715 1.387 . S
H714 C721 0.950 . S
C715 C713 1.387 . S
C715 C717 1.390 . S
C715 H719 0.950 . S
H716 C712 0.950 . S
C717 C715 1.390 . S
C717 C718 1.387 . S
C717 H720 0.950 . S
C718 C717 1.387 . S
C718 C721 1.387 1_565 S
H719 C715 0.950 . S
H720 C717 0.950 . S
C721 C712 1.390 . S
C721 H714 0.950 . S
C721 C718 1.387 1_545 S
C722 C723 1.387 . S
C722 H726 0.950 . S
C722 C731 1.390 . S
C723 C722 1.387 . S
C723 C725 1.387 . S
H724 C731 0.950 . S
C725 C723 1.387 . S
C725 C727 1.390 . S
C725 H729 0.950 . S
H726 C722 0.950 . S
C727 C725 1.390 . S
C727 C728 1.387 . S
C727 H730 0.950 . S
C728 C727 1.387 . S
C728 C731 1.387 . S
H729 C725 0.950 . S
H730 C727 0.950 . S
C731 C722 1.390 . S
C731 H724 0.950 . S
C731 C728 1.387 . S
C732 C733 1.387 1_556 S
C732 H736 0.950 . S
C732 C741 1.390 1_455 S
C733 C732 1.387 1_554 S
C733 C735 1.387 . S
H734 C741 0.950 . S
C735 C733 1.387 . S
C735 C737 1.390 1_455 S
C735 H739 0.950 . S
H736 C732 0.950 . S
C737 C735 1.390 1_655 S
C737 C738 1.387 . S
C737 H740 0.950 . S
C738 C737 1.387 . S
C738 C741 1.387 1_554 S
H739 C735 0.950 . S
H740 C737 0.950 . S
C741 C732 1.390 1_655 S
C741 H734 0.950 . S
C741 C738 1.387 1_556 S
C742 C743 1.387 . S
C742 H746 0.950 . S
C742 C751 1.390 1_455 S
C743 C742 1.387 . S
C743 C745 1.387 . S
H744 C751 0.950 . S
C745 C743 1.387 . S
C745 C747 1.390 1_455 S
C745 H749 0.950 . S
H746 C742 0.950 . S
C747 C745 1.390 1_655 S
C747 C748 1.387 . S
C747 H750 0.950 . S
C748 C747 1.387 . S
C748 C751 1.387 . S
H749 C745 0.950 . S
H750 C747 0.950 . S
C751 C742 1.390 1_655 S
C751 H744 0.950 . S
C751 C748 1.387 . S
C752 C753 1.387 . S
C752 H756 0.950 . S
C752 C761 1.390 . S
C753 C752 1.387 . S
C753 C755 1.387 . S
H754 C761 0.950 . S
C755 C753 1.387 . S
C755 C757 1.390 . S
C755 H759 0.950 . S
H756 C752 0.950 . S
C757 C755 1.390 . S
C757 C758 1.387 . S
C757 H760 0.950 . S
C758 C757 1.387 . S
C758 C761 1.387 . S
H759 C755 0.950 . S
H760 C757 0.950 . S
C761 C752 1.390 . S
C761 H754 0.950 . S
C761 C758 1.387 . S
C762 C763 1.387 . S
C762 H766 0.950 . S
C762 C771 1.390 . S
C763 C762 1.387 . S
C763 C765 1.387 . S
H764 C771 0.950 . S
C765 C763 1.387 . S
C765 C767 1.390 . S
C765 H769 0.950 . S
H766 C762 0.950 . S
C767 C765 1.390 . S
C767 C768 1.387 . S
C767 H770 0.950 . S
C768 C767 1.387 . S
C768 C771 1.387 . S
H769 C765 0.950 . S
H770 C767 0.950 . S
C771 C762 1.390 . S
C771 H764 0.950 . S
C771 C768 1.387 . S
C772 C773 1.387 . S
C772 H776 0.950 . S
C772 C781 1.390 1_565 S
C773 C772 1.387 . S
C773 C775 1.387 . S
H774 C781 0.950 . S
C775 C773 1.387 . S
C775 C777 1.390 1_565 S
C775 H779 0.950 . S
H776 C772 0.950 . S
C777 C775 1.390 1_545 S
C777 C778 1.387 . S
C777 H780 0.950 . S
C778 C777 1.387 . S
C778 C781 1.387 . S
H779 C775 0.950 . S
H780 C777 0.950 . S
C781 C772 1.390 1_545 S
C781 H774 0.950 . S
C781 C778 1.387 . S
C782 C783 1.387 . S
C782 H786 0.950 . S
C782 C791 1.390 . S
C783 C782 1.387 . S
C783 C785 1.387 1_556 S
H784 C791 0.950 . S
C785 C783 1.387 1_554 S
C785 C787 1.390 . S
C785 H789 0.950 . S
H786 C782 0.950 . S
C787 C785 1.390 . S
C787 C788 1.387 1_554 S
C787 H790 0.950 . S
C788 C787 1.387 1_556 S
C788 C791 1.387 . S
H789 C785 0.950 . S
H790 C787 0.950 . S
C791 C782 1.390 . S
C791 H784 0.950 . S
C791 C788 1.387 . S
C313 C226 0.946 . S
C318 C8 0.993 . S
C323 C21 1.079 . S
C328 C213 0.966 . S
C333 C34 1.042 . S
C338 C252 0.990 . S
C343 C47 1.128 . S
C348 C239 1.002 . S
C353 C60 0.996 . S
C358 C278 0.947 . S
C363 C73 1.039 . S
C368 C291 0.978 . S
C373 C265 0.963 . S
C378 C86 1.073 . S
C383 C148 0.995 . S
C388 C99 1.126 . S
C393 C112 0.989 . S
C398 C44 0.942 . S
C403 C18 0.976 . S
C408 C125 1.039 . S
C413 C138 1.089 . S
C418 C5 1.025 . S
C423 C151 1.120 . S
C428 C187 0.995 . S
C433 C70 1.044 . S
C438 C164 1.176 . S
C443 C57 1.028 . S
C448 C177 1.095 . S
C453 C190 1.120 . S
C458 C96 0.991 . S
C463 C203 1.039 . S
C468 C83 0.978 . S
C473 C122 1.039 . S
C478 C216 1.177 . S
C483 C135 1.008 . S
C488 C229 1.131 . S
C493 C109 1.024 . S
C498 C242 1.089 . S
C503 C255 1.049 . S
C508 C304 0.995 . S
C513 C200 1.044 . S
C518 C268 1.176 . S
C523 C281 1.132 . S
C528 C174 1.003 . S
C533 C161 0.965 . S
C538 C294 1.074 . S
C543 C307 1.042 . S
C548 C31 0.990 . S
C553 C0 1.545 . S
C558 C13 1.551 . S
C563 C39 1.514 . S
C568 C26 1.507 . S
C573 C52 1.542 . S
C578 C78 1.548 . S
C583 C65 1.658 . S
C588 C91 1.662 . S
C593 C286 1.551 . S
C598 C104 1.544 . S
C603 C117 1.658 . S
C608 C143 1.662 . S
C613 C260 1.632 . S
C618 C130 1.628 . S
C623 C169 1.624 . S
C628 C156 1.629 . S
C633 C182 1.665 . S
C638 C195 1.661 . S
C643 C234 1.624 . S
C648 C208 1.629 . S
C653 C221 1.516 . S
C658 C247 1.509 . S
C663 C299 1.507 . S
C668 C273 1.513 . S
C673 C36 1.350 . S
C678 C10 1.351 . S
C683 C23 1.419 . S
C688 C49 1.418 . S
C693 C257 1.347 . S
C698 C62 1.347 . S
C703 C75 1.384 . S
C708 C244 1.384 . S
C713 C88 1.419 . S
C718 C231 1.418 . S
C723 C218 1.457 . S
C728 C101 1.457 . S
C733 C114 1.347 . S
C738 C309 1.347 . S
C743 C127 1.384 . S
C748 C140 1.384 . S
C753 C270 1.454 . S
C758 C153 1.454 . S
C763 C166 1.454 . S
C768 C192 1.454 . S
C773 C179 1.381 . S
C778 C205 1.381 . S
C783 C296 1.422 . S
C788 C283 1.421 . S
