# Generated by pormake.
# Topology zfs, (5)-cn, num edge types: 1
# Building blocks:
#     Node 0, Type 0, BuildingBlock: XOMCOT_clean_sbu_1, # of connection points: 5
#     Node 1, Type 0, BuildingBlock: XOMCOT_clean_sbu_1, # of connection points: 5
#     Node 2, Type 0, BuildingBlock: XOMCOT_clean_sbu_1, # of connection points: 5
#     Node 3, Type 0, BuildingBlock: XOMCOT_clean_sbu_1, # of connection points: 5
#     Node 4, Type 0, BuildingBlock: XOMCOT_clean_sbu_1, # of connection points: 5
#     Node 5, Type 0, BuildingBlock: XOMCOT_clean_sbu_1, # of connection points: 5
#     Node 6, Type 0, BuildingBlock: XOMCOT_clean_sbu_1, # of connection points: 5
#     Node 7, Type 0, BuildingBlock: XOMCOT_clean_sbu_1, # of connection points: 5
#     Edge 8, Type (0, 0), BuildingBlock: ZUJKAS_clean_linker_0, # of connection points: 2
#     Edge 9, Type (0, 0), BuildingBlock: ZUJKAS_clean_linker_0, # of connection points: 2
#     Edge 10, Type (0, 0), BuildingBlock: ZUJKAS_clean_linker_0, # of connection points: 2
#     Edge 11, Type (0, 0), BuildingBlock: ZUJKAS_clean_linker_0, # of connection points: 2
#     Edge 12, Type (0, 0), BuildingBlock: ZUJKAS_clean_linker_0, # of connection points: 2
#     Edge 13, Type (0, 0), BuildingBlock: ZUJKAS_clean_linker_0, # of connection points: 2
#     Edge 14, Type (0, 0), BuildingBlock: ZUJKAS_clean_linker_0, # of connection points: 2
#     Edge 15, Type (0, 0), BuildingBlock: ZUJKAS_clean_linker_0, # of connection points: 2
#     Edge 16, Type (0, 0), BuildingBlock: ZUJKAS_clean_linker_0, # of connection points: 2
#     Edge 17, Type (0, 0), BuildingBlock: ZUJKAS_clean_linker_0, # of connection points: 2
#     Edge 18, Type (0, 0), BuildingBlock: ZUJKAS_clean_linker_0, # of connection points: 2
#     Edge 19, Type (0, 0), BuildingBlock: ZUJKAS_clean_linker_0, # of connection points: 2
#     Edge 20, Type (0, 0), BuildingBlock: ZUJKAS_clean_linker_0, # of connection points: 2
#     Edge 21, Type (0, 0), BuildingBlock: ZUJKAS_clean_linker_0, # of connection points: 2
#     Edge 22, Type (0, 0), BuildingBlock: ZUJKAS_clean_linker_0, # of connection points: 2
#     Edge 23, Type (0, 0), BuildingBlock: ZUJKAS_clean_linker_0, # of connection points: 2
#     Edge 24, Type (0, 0), BuildingBlock: ZUJKAS_clean_linker_0, # of connection points: 2
#     Edge 25, Type (0, 0), BuildingBlock: ZUJKAS_clean_linker_0, # of connection points: 2
#     Edge 26, Type (0, 0), BuildingBlock: ZUJKAS_clean_linker_0, # of connection points: 2
#     Edge 27, Type (0, 0), BuildingBlock: ZUJKAS_clean_linker_0, # of connection points: 2
# Relax obj value: 0.132
# Max RMSD: 0.149
# Mean RMSD: 0.149
data_MOF--net-zfs--node1-XOMCOT_clean_sbu_1--edge1-ZUJKAS_clean_linker_0
_symmetry_space_group_name_H-M    P1
_symmetry_Int_Tables_number       1
_symmetry_cell_setting            triclinic
loop_
_symmetry_equiv_pos_as_xyz
'x, y, z'
_cell_length_a     43.948111
_cell_length_b     43.889181
_cell_length_c     50.801824
_cell_angle_alpha  89.980589
_cell_angle_beta   90.010263
_cell_angle_gamma 89.979243
loop_
_atom_site_label
_atom_site_type_symbol
_atom_site_fract_x
_atom_site_fract_y
_atom_site_fract_z
_atom_type_partial_charge
C0 C 0.08865 0.26599 0.23339 0.0
C1 C 0.10727 0.26124 0.25476 0.0
N2 N 0.09837 0.23536 0.26681 0.0
N3 N 0.06805 0.24331 0.23211 0.0
C4 C 0.07463 0.2249 0.25257 0.0
H5 H 0.09 0.28471 0.21959 0.0
Co6 Co 0.03886 0.23878 0.20618 0.0
C7 C 0.98487 0.22198 0.23869 0.0
O8 O 0.96886 0.24392 0.22779 0.0
N9 N 0.01087 0.23368 0.17879 0.0
C10 C 0.97739 0.21581 0.14969 0.0
C11 C 0.98526 0.2169 0.17591 0.0
C12 C 0.01868 0.24124 0.15396 0.0
N13 N 0.99867 0.231 0.13595 0.0
O14 O 0.05671 0.2008 0.19583 0.0
H15 H 0.9743 0.20374 0.1911 0.0
H16 H 0.03968 0.25281 0.14913 0.0
O17 O 0.01235 0.21745 0.23139 0.0
C18 C 0.08041 0.20377 0.18161 0.0
O19 O 0.09117 0.23131 0.17758 0.0
N20 N 0.02273 0.27762 0.21526 0.0
C21 C 0.00889 0.33839 0.22732 0.0
C22 C 0.00976 0.31612 0.24714 0.0
C23 C 0.01707 0.28597 0.24076 0.0
C24 C 0.02237 0.29918 0.1959 0.0
C25 C 0.01509 0.32944 0.2014 0.0
H26 H 0.01929 0.26956 0.25651 0.0
H27 H 0.02937 0.29358 0.17622 0.0
H28 H 0.06275 0.20381 0.25651 0.0
H29 H 0.12573 0.27584 0.26102 0.0
H30 H 0.95885 0.20285 0.14125 0.0
H31 H 0.00549 0.32203 0.2675 0.0
H32 H 0.0159 0.34599 0.18559 0.0
C33 C 0.73418 0.08956 0.47885 0.0
C34 C 0.73894 0.10805 0.5003 0.0
N35 N 0.76447 0.09868 0.51257 0.0
N36 N 0.75647 0.06851 0.47776 0.0
C37 C 0.7747 0.07475 0.49842 0.0
H38 H 0.71569 0.0913 0.46486 0.0
Co39 Co 0.76035 0.03843 0.45237 0.0
C40 C 0.77789 0.98552 0.48753 0.0
O41 O 0.75489 0.96865 0.47995 0.0
N42 N 0.76434 0.00849 0.42578 0.0
C43 C 0.75864 0.96907 0.39849 0.0
C44 C 0.75119 0.98082 0.42275 0.0
C45 C 0.77926 0.01299 0.40282 0.0
N46 N 0.7764 0.98942 0.38603 0.0
O47 O 0.79923 0.05502 0.4423 0.0
H48 H 0.73517 0.97061 0.43618 0.0
H49 H 0.79033 0.03406 0.39755 0.0
O50 O 0.78138 0.01225 0.478 0.0
C51 C 0.79927 0.08091 0.43089 0.0
O52 O 0.7734 0.09565 0.42837 0.0
N53 N 0.72124 0.02419 0.46132 0.0
C54 C 0.65956 0.01377 0.47145 0.0
C55 C 0.68113 0.01251 0.49185 0.0
C56 C 0.71183 0.01822 0.48643 0.0
C57 C 0.70055 0.02596 0.44139 0.0
C58 C 0.66977 0.02029 0.4459 0.0
H59 H 0.72782 0.01914 0.50258 0.0
H60 H 0.70791 0.03248 0.42187 0.0
H61 H 0.79494 0.06181 0.50309 0.0
H62 H 0.72495 0.1272 0.50611 0.0
H63 H 0.75054 0.94783 0.39026 0.0
H64 H 0.6742 0.00849 0.51201 0.0
H65 H 0.65408 0.02151 0.4295 0.0
C66 C 0.91652 0.74712 0.72348 0.0
C67 C 0.89728 0.75287 0.74422 0.0
N68 N 0.90776 0.77746 0.75727 0.0
N69 N 0.93915 0.76784 0.72361 0.0
C70 C 0.93311 0.78615 0.74427 0.0
H71 H 0.91419 0.7291 0.7091 0.0
Co72 Co 0.97045 0.77039 0.6992 0.0
C73 C 0.02135 0.78187 0.73828 0.0
O74 O 0.03447 0.75557 0.73366 0.0
N75 N 1.00152 0.77338 0.67374 0.0
C76 C 0.04289 0.76843 0.64869 0.0
C77 C 0.03017 0.76213 0.67285 0.0
C78 C 0.99748 0.78613 0.64978 0.0
N79 N 0.02222 0.78367 0.6343 0.0
O80 O 0.95621 0.81034 0.68911 0.0
H81 H 0.0407 0.74832 0.68779 0.0
H82 H 0.97612 0.7955 0.64308 0.0
O83 O 0.99709 0.78938 0.72592 0.0
C84 C 0.93121 0.81006 0.67632 0.0
O85 O 0.91774 0.78377 0.67219 0.0
N86 N 0.98202 0.73003 0.70777 0.0
C87 C 0.98852 0.66742 0.71658 0.0
C88 C 0.98712 0.6879 0.73776 0.0
C89 C 0.98331 0.71905 0.73295 0.0
C90 C 0.98275 0.71032 0.68702 0.0
C91 C 0.98648 0.67908 0.69094 0.0
H92 H 0.9805 0.73429 0.74949 0.0
H93 H 0.97948 0.71872 0.66721 0.0
H94 H 0.94714 0.80539 0.74972 0.0
H95 H 0.87685 0.74026 0.74899 0.0
H96 H 0.06518 0.7614 0.64195 0.0
H97 H 0.98766 0.67983 0.7579 0.0
H98 H 0.98723 0.66414 0.67399 0.0
C99 C 0.26279 0.9217 0.97126 0.0
C100 C 0.25557 0.90161 0.99108 0.0
N101 N 0.23151 0.91284 0.00438 0.0
N102 N 0.24353 0.94556 0.97222 0.0
C103 C 0.22459 0.93943 0.99242 0.0
H104 H 0.28094 0.91919 0.95705 0.0
Co105 Co 0.24414 0.97861 0.9496 0.0
C106 C 0.22792 0.03019 0.9859 0.0
O107 O 0.25095 0.04657 0.97765 0.0
N108 N 0.24498 0.01212 0.92547 0.0
C109 C 0.26034 0.05097 0.90026 0.0
C110 C 0.26427 0.03617 0.92387 0.0
C111 C 0.22944 0.01344 0.9025 0.0
N112 N 0.23849 0.03639 0.88673 0.0
O113 O 0.20519 0.96597 0.93606 0.0
H114 H 0.28201 0.04149 0.93784 0.0
H115 H 0.21348 0.99647 0.89611 0.0
O116 O 0.22346 1.00362 0.97635 0.0
C117 C 0.20768 0.94486 0.91894 0.0
O118 O 0.23503 0.93513 0.91276 0.0
N119 N 0.28334 0.98806 0.96182 0.0
C120 C 0.3448 0.99265 0.97539 0.0
C121 C 0.32198 0.99589 0.99458 0.0
C122 C 0.29131 0.99302 0.98745 0.0
C123 C 0.30521 0.98387 0.94316 0.0
C124 C 0.33594 0.98671 0.94936 0.0
H125 H 0.27413 0.99366 0.00265 0.0
H126 H 0.29864 0.97814 0.92324 0.0
H127 H 0.20631 0.95436 -0.00155 0.0
H128 H 0.26695 0.88025 0.99514 0.0
H129 H 0.27392 0.06972 0.89295 0.0
H130 H 0.32776 0.99947 0.01506 0.0
H131 H 0.35259 0.98407 0.93382 0.0
C132 C 0.08863 0.73611 0.2597 0.0
C133 C 0.10582 0.74256 0.23778 0.0
N134 N 0.09665 0.76964 0.22806 0.0
N135 N 0.06855 0.75888 0.26362 0.0
C136 C 0.07415 0.77908 0.24421 0.0
H137 H 0.0907 0.71619 0.2721 0.0
Co138 Co 0.04051 0.7613 0.2908 0.0
C139 C 0.98439 0.78258 0.26141 0.0
O140 O 0.96687 0.76165 0.27182 0.0
N141 N 0.01261 0.76357 0.31927 0.0
C142 C 0.97617 0.75419 0.34878 0.0
C143 C 0.98652 0.74802 0.32383 0.0
C144 C 0.01765 0.7786 0.34212 0.0
N145 N 0.99589 0.77342 0.36028 0.0
O146 O 0.05782 0.79961 0.30145 0.0
H147 H 0.97649 0.73144 0.31076 0.0
H148 H 0.038 0.79145 0.34627 0.0
O149 O 0.01261 0.78365 0.26742 0.0
C150 C 0.08412 0.79873 0.31203 0.0
O151 O 0.09841 0.77247 0.31327 0.0
N152 N 0.02562 0.7228 0.28113 0.0
C153 C 0.0126 0.66184 0.27011 0.0
C154 C 0.00787 0.68455 0.25102 0.0
C155 C 0.01485 0.71496 0.25684 0.0
C156 C 0.0312 0.70093 0.29955 0.0
C157 C 0.02443 0.67046 0.29464 0.0
H158 H 0.01261 0.73195 0.24157 0.0
H159 H 0.04143 0.70723 0.31814 0.0
H160 H 0.06191 0.80027 0.24199 0.0
H161 H 0.12401 0.72864 0.22993 0.0
H162 H 0.95635 0.74425 0.35805 0.0
H163 H 0.99925 0.67883 0.23167 0.0
H164 H 0.02945 0.65367 0.30965 0.0
C165 C 0.2632 0.08179 0.52499 0.0
C166 C 0.25814 0.1025 0.50513 0.0
N167 N 0.23328 0.09362 0.49159 0.0
N168 N 0.24182 0.05986 0.52376 0.0
C169 C 0.22379 0.06776 0.50341 0.0
H170 H 0.28118 0.08265 0.53952 0.0
Co171 Co 0.23795 0.02746 0.54671 0.0
C172 C 0.22278 0.97673 0.51046 0.0
O173 O 0.24444 0.96027 0.52128 0.0
N174 N 0.2332 0.99584 0.57132 0.0
C175 C 0.20949 0.96282 0.59764 0.0
C176 C 0.21252 0.97301 0.57215 0.0
C177 C 0.24178 0.9993 0.59666 0.0
N178 N 0.22777 0.97968 0.61306 0.0
O179 O 0.19968 0.04345 0.55843 0.0
H180 H 0.19757 0.96656 0.55626 0.0
H181 H 0.25487 0.01857 0.60352 0.0
O182 O 0.21741 1.00355 0.51915 0.0
C183 C 0.20315 0.06138 0.5779 0.0
O184 O 0.23087 0.06792 0.58574 0.0
N185 N 0.27709 0.01334 0.53616 0.0
C186 C 0.33783 1.00235 0.52217 0.0
C187 C 0.31525 1.00523 0.50281 0.0
C188 C 0.28512 0.01105 0.51019 0.0
C189 C 0.29898 0.01106 0.55511 0.0
C190 C 0.32925 1.00508 0.54862 0.0
H191 H 0.26845 0.01485 0.4949 0.0
H192 H 0.29365 0.01552 0.57537 0.0
H193 H 0.20415 0.0547 0.49733 0.0
H194 H 0.2714 0.12279 0.5013 0.0
H195 H 0.19309 0.94626 0.60453 0.0
H196 H 0.32088 1.00366 0.48211 0.0
H197 H 0.34605 1.0042 0.5642 0.0
C198 C 0.91037 0.26521 0.77274 0.0
C199 C 0.88935 0.25871 0.75347 0.0
N200 N 0.89916 0.23415 0.73998 0.0
N201 N 0.9334 0.24503 0.77117 0.0
C202 C 0.92583 0.22622 0.75125 0.0
H203 H 0.90913 0.28354 0.78692 0.0
Co204 Co 0.9673 0.24406 0.79273 0.0
C205 C 0.01545 0.23128 0.75301 0.0
O206 O 0.03042 0.25569 0.76055 0.0
N207 N 1.00061 0.24235 0.81579 0.0
C208 C 0.04031 0.22676 0.83953 0.0
C209 C 0.02725 0.22692 0.81492 0.0
C210 C 0.99777 0.25044 0.84129 0.0
N211 N 0.02157 0.24152 0.85612 0.0
O212 O 0.9545 0.20535 0.80637 0.0
H213 H 0.03562 0.21394 0.79843 0.0
H214 H 0.97722 0.26035 0.8493 0.0
O215 O 0.99078 0.22372 0.7647 0.0
C216 C 0.93534 0.20881 0.82497 0.0
O217 O 0.92615 0.23658 0.83051 0.0
N218 N 0.97813 0.28368 0.78065 0.0
C219 C 0.98699 0.34451 0.7657 0.0
C220 C 0.98248 0.32177 0.74668 0.0
C221 C 0.97764 0.2916 0.75457 0.0
C222 C 0.98135 0.3058 0.7993 0.0
C223 C 0.98629 0.33612 0.7923 0.0
H224 H 0.97304 0.27463 0.73967 0.0
H225 H 0.97877 0.30051 0.81983 0.0
H226 H 0.93985 0.20737 0.74485 0.0
H227 H 0.86839 0.27096 0.74984 0.0
H228 H 0.06101 0.21501 0.84505 0.0
H229 H 0.98241 0.32723 0.72589 0.0
H230 H 0.98827 0.35304 0.80771 0.0
C231 C 0.74284 0.91975 0.01933 0.0
C232 C 0.74811 0.90132 0.99793 0.0
N233 N 0.7735 0.91121 0.98573 0.0
N234 N 0.76467 0.94126 0.02047 0.0
C235 C 0.78313 0.93538 -0.00011 0.0
H236 H 0.72436 0.91761 0.03327 0.0
Co237 Co 0.76786 0.97127 0.04601 0.0
C238 C 0.78352 0.02428 0.01031 0.0
O239 O 0.75922 0.03981 0.01695 0.0
N240 N 0.77128 1.00102 0.07276 0.0
C241 C 0.76576 0.04045 0.10003 0.0
C242 C 0.759 0.02913 0.07547 0.0
C243 C 0.78495 0.99583 0.09618 0.0
N244 N 0.78219 0.0194 0.11298 0.0
O245 O 0.807 0.95527 0.05619 0.0
H246 H 0.74392 0.03998 0.06163 0.0
H247 H 0.79503 0.97432 0.10166 0.0
O248 O 0.78847 0.99811 0.02052 0.0
C249 C 0.8072 0.92926 0.0674 0.0
O250 O 0.78146 0.91427 0.06962 0.0
N251 N 0.72846 0.98492 0.03702 0.0
C252 C 0.66677 0.99486 0.02666 0.0
C253 C 0.68818 0.99479 0.00615 0.0
C254 C 0.71889 0.98945 0.01171 0.0
C255 C 0.70782 0.98421 0.05706 0.0
C256 C 0.67701 0.9897 0.05241 0.0
H257 H 0.73484 0.98789 0.99557 0.0
H258 H 0.71518 0.97848 0.07677 0.0
H259 H 0.80314 0.94871 0.99531 0.0
H260 H 0.73461 0.88184 0.99213 0.0
H261 H 0.75807 0.06194 0.1081 0.0
H262 H 0.68119 0.99829 0.98593 0.0
H263 H 0.66117 0.98856 0.06871 0.0
H264 H 0.98671 0.61908 0.30229 0.0
H265 H 0.98279 0.56417 0.29477 0.0
H266 H 0.02132 0.57546 0.21733 0.0
H267 H 0.02613 0.63034 0.22497 0.0
H268 H 0.95312 0.52967 0.25565 0.0
H269 H 0.0785 0.51372 0.2531 0.0
H270 H 0.06092 0.54831 0.26485 0.0
H271 H 0.06413 0.54131 0.2301 0.0
C272 C 0.99436 0.60989 0.28364 0.0
C273 C 0.00703 0.62907 0.26433 0.0
C274 C 0.99193 0.57853 0.27933 0.0
C275 C 1.00223 0.56569 0.25568 0.0
C276 C 0.0137 0.58487 0.2359 0.0
H277 H 0.97565 0.38042 0.19959 0.0
H278 H 0.97246 0.43533 0.2073 0.0
C279 C 0.01612 0.61628 0.24019 0.0
C280 C 1.00188 0.53213 0.25216 0.0
H281 H 0.04831 0.47058 0.2433 0.0
C282 C 0.9739 0.51671 0.25293 0.0
C283 C 0.02908 0.51524 0.24908 0.0
C284 C 0.05992 0.53037 0.24946 0.0
C285 C 0.97238 0.48486 0.2503 0.0
C286 C 0.99952 0.46808 0.2465 0.0
C287 C 0.0275 0.48349 0.24607 0.0
C288 C 0.99958 0.43452 0.24284 0.0
C289 C 0.9418 0.46939 0.25209 0.0
C290 C 0.01606 0.41581 0.26015 0.0
C291 C 0.01818 0.38444 0.25566 0.0
C292 C 1.00402 0.37117 0.23363 0.0
C293 C 0.98698 0.38992 0.21664 0.0
C294 C 0.98487 0.42129 0.22116 0.0
H295 H 0.92465 0.48411 0.26193 0.0
H296 H 0.93348 0.46433 0.23194 0.0
H297 H 0.94349 0.44756 0.26305 0.0
H298 H 0.02776 0.42559 0.27691 0.0
H299 H 0.03187 0.3708 0.2689 0.0
H300 H 0.61204 0.04581 0.45016 0.0
H301 H 0.55777 0.03951 0.45872 0.0
H302 H 0.57741 0.96751 0.51389 0.0
H303 H 0.63196 0.97326 0.50514 0.0
H304 H 0.52139 0.98577 0.45247 0.0
H305 H 0.52312 0.02772 0.55578 0.0
H306 H 0.55398 0.0346 0.53309 0.0
H307 H 0.54963 0.99781 0.54809 0.0
C308 C 0.60491 0.02836 0.46391 0.0
C309 C 0.62645 0.00993 0.47688 0.0
C310 C 0.57384 0.02494 0.46888 0.0
C311 C 0.56359 1.00324 0.48709 0.0
C312 C 0.5849 0.98472 0.50006 0.0
H313 H 0.38057 0.96577 0.54553 0.0
H314 H 0.43516 0.96342 0.53612 0.0
C315 C 0.61606 0.98807 0.49505 0.0
C316 C 0.53052 1.00003 0.49223 0.0
H317 H 0.4761 0.01017 0.53938 0.0
C318 C 0.51145 0.99102 0.47148 0.0
C319 C 0.51768 0.00682 0.51706 0.0
C320 C 0.53703 0.01751 0.53979 0.0
C321 C 0.47982 0.98855 0.4749 0.0
C322 C 0.46688 0.99593 0.4996 0.0
C323 C 0.48605 1.00449 0.52046 0.0
C324 C 0.43348 0.99587 0.50408 0.0
C325 C 0.46064 0.97773 0.45212 0.0
C326 C 0.41436 0.01485 0.48918 0.0
C327 C 0.38316 0.01621 0.49449 0.0
C328 C 0.37048 0.99884 0.51501 0.0
C329 C 0.38965 0.97958 0.52971 0.0
C330 C 0.42083 0.97816 0.52432 0.0
H331 H 0.47434 0.96448 0.43773 0.0
H332 H 0.44146 0.96333 0.459 0.0
H333 H 0.45107 0.99777 0.44168 0.0
H334 H 0.42369 0.02932 0.47391 0.0
H335 H 0.36918 0.03173 0.48314 0.0
H336 H 0.95742 0.62225 0.69103 0.0
H337 H 0.95993 0.56738 0.69883 0.0
H338 H 0.02609 0.58185 0.76026 0.0
H339 H 0.02374 0.63691 0.75255 0.0
H340 H 0.00907 0.52773 0.69572 0.0
H341 H 0.96143 0.53032 0.79695 0.0
H342 H 0.95932 0.56257 0.77498 0.0
H343 H 0.99408 0.5543 0.79223 0.0
C344 C 0.97272 0.61379 0.70606 0.0
C345 C 0.9904 0.63399 0.72118 0.0
C346 C 0.97401 0.58241 0.71056 0.0
C347 C 0.99288 0.57055 0.73034 0.0
C348 C 0.01088 0.59056 0.74526 0.0
H349 H 0.02533 0.38669 0.78751 0.0
H350 H 0.02827 0.4412 0.77781 0.0
C351 C 0.00954 0.62201 0.74082 0.0
C352 C 0.99376 0.53721 0.73515 0.0
H353 H 0.97976 0.48279 0.78166 0.0
C354 C 1.00263 0.51788 0.71449 0.0
C355 C 0.98529 0.52442 0.75964 0.0
C356 C 0.97422 0.5439 0.78217 0.0
C357 C 1.0036 0.48611 0.71778 0.0
C358 C 0.99508 0.47335 0.74225 0.0
C359 C 0.98638 0.49267 0.76294 0.0
C360 C 0.99457 0.43997 0.7468 0.0
C361 C 0.01416 0.46649 0.69517 0.0
C362 C 0.97469 0.42118 0.73252 0.0
C363 C 0.97284 0.39001 0.73809 0.0
C364 C 0.99071 0.37709 0.75819 0.0
C365 C 0.01099 0.39595 0.77212 0.0
C366 C 0.0128 0.42708 0.76655 0.0
H367 H 0.02708 0.47988 0.68036 0.0
H368 H 0.02874 0.44752 0.70229 0.0
H369 H 0.99404 0.45645 0.68523 0.0
H370 H 0.95997 0.43077 0.71756 0.0
H371 H 0.95661 0.37628 0.7273 0.0
H372 H 0.37285 0.03136 0.0104 0.0
H373 H 0.42738 0.03489 0.02038 0.0
H374 H 0.44561 0.96183 0.96597 0.0
H375 H 0.39139 0.95749 0.95641 0.0
H376 H 0.46881 0.98473 0.03838 0.0
H377 H 0.50079 0.03542 0.94202 0.0
H378 H 0.46242 0.0367 0.95475 0.0
H379 H 0.47691 1.0022 0.94049 0.0
C380 C 0.38841 0.01583 0.00077 0.0
C381 C 0.3777 0.99439 0.98235 0.0
C382 C 0.41955 0.018 0.00639 0.0
C383 C 0.44047 0.99896 0.99356 0.0
C384 C 0.42984 0.97713 0.97568 0.0
H385 H 0.63367 0.96815 0.98736 0.0
H386 H 0.5787 0.97098 0.98019 0.0
C387 C 0.39882 0.9748 0.97017 0.0
C388 C 0.47351 1.00157 -0.00116 0.0
H389 H 0.54119 0.01888 0.96946 0.0
C390 C 0.48469 0.99248 0.02347 0.0
C391 C 0.49404 0.01153 0.97923 0.0
C392 C 0.48304 0.02227 0.95267 0.0
C393 C 0.51608 0.9921 0.02874 0.0
C394 C 0.53672 1.00182 0.00903 0.0
C395 C 0.52539 0.01143 0.98455 0.0
C396 C 0.57019 1.00121 0.01304 0.0
C397 C 0.52687 0.98012 0.05499 0.0
C398 C 0.5838 0.01781 0.03351 0.0
C399 C 0.61522 0.01617 0.03768 0.0
C400 C 0.63371 0.99824 0.02122 0.0
C401 C 0.62013 0.98242 0.00022 0.0
C402 C 0.58869 0.98389 0.99618 0.0
H403 H 0.5091 0.96629 0.06495 0.0
H404 H 0.54762 0.96592 0.05267 0.0
H405 H 0.53251 0.99961 0.06802 0.0
H406 H 0.57011 0.03197 0.04633 0.0
H407 H 0.62509 0.02897 0.05379 0.0
H408 H 0.17424 0.09075 0.47612 0.0
H409 H 0.15156 0.11493 0.43751 0.0
H410 H 0.23806 0.15552 0.41822 0.0
H411 H 0.26122 0.13059 0.4563 0.0
H412 H 0.14816 0.17722 0.42526 0.0
H413 H 0.21311 0.113 0.34962 0.0
H414 H 0.21125 0.10111 0.3836 0.0
H415 H 0.23625 0.13153 0.37397 0.0
C416 C 0.18858 0.10447 0.46351 0.0
C417 C 0.21965 0.10851 0.46921 0.0
C418 C 0.1755 0.11846 0.44157 0.0
C419 C 0.19325 0.13661 0.42485 0.0
C420 C 0.22412 0.14113 0.43066 0.0
H421 H 0.15672 0.24038 0.28347 0.0
H422 H 0.17918 0.21709 0.32264 0.0
C423 C 0.23723 0.12715 0.4526 0.0
C424 C 0.17931 0.15116 0.40152 0.0
H425 H 0.18278 0.15412 0.33446 0.0
C426 C 0.15561 0.17211 0.40538 0.0
C427 C 0.18914 0.14438 0.37568 0.0
C428 C 0.21364 0.12108 0.37034 0.0
C429 C 0.14177 0.18692 0.38403 0.0
C430 C 0.15165 0.18018 0.3582 0.0
C431 C 0.17534 0.15923 0.35434 0.0
C432 C 0.13771 0.19465 0.33485 0.0
C433 C 0.11713 0.21009 0.3893 0.0
C434 C 0.10704 0.18948 0.32869 0.0
C435 C 0.0941 0.20286 0.30639 0.0
C436 C 0.11167 0.22156 0.28981 0.0
C437 C 0.14246 0.2265 0.29602 0.0
C438 C 0.15538 0.21306 0.31828 0.0
H439 H 0.11735 0.21795 0.41009 0.0
H440 H 0.11968 0.23019 0.3762 0.0
H441 H 0.09461 0.19963 0.38532 0.0
H442 H 0.09316 0.17493 0.34104 0.0
H443 H 0.07028 0.1988 0.3023 0.0
H444 H 0.82407 0.0976 0.52635 0.0
H445 H 0.84683 0.11923 0.56609 0.0
H446 H 0.75869 0.15134 0.59101 0.0
H447 H 0.73561 0.12908 0.5517 0.0
H448 H 0.84552 0.18099 0.58224 0.0
H449 H 0.79137 0.10434 0.65558 0.0
H450 H 0.79276 0.09553 0.62088 0.0
H451 H 0.76537 0.12239 0.63316 0.0
C452 C 0.80945 0.10889 0.54043 0.0
C453 C 0.77799 0.1115 0.5359 0.0
C454 C 0.82253 0.1214 0.56303 0.0
C455 C 0.80436 0.13652 0.58157 0.0
C456 C 0.77301 0.13933 0.57709 0.0
H457 H 0.8618 0.2608 0.70432 0.0
H458 H 0.83853 0.23675 0.66585 0.0
C459 C 0.75992 0.12689 0.55448 0.0
C460 C 0.81835 0.15009 0.60527 0.0
H461 H 0.81837 0.14698 0.6724 0.0
C462 C 0.83969 0.17354 0.60197 0.0
C463 C 0.81085 0.14002 0.6309 0.0
C464 C 0.78904 0.114 0.63546 0.0
C465 C 0.85341 0.1876 0.62372 0.0
C466 C 0.84524 0.17814 0.64937 0.0
C467 C 0.82431 0.15433 0.65267 0.0
C468 C 0.85852 0.19247 0.67303 0.0
C469 C 0.87681 0.21218 0.6191 0.0
C470 C 0.87675 0.17528 0.69012 0.0
C471 C 0.88988 0.18887 0.71221 0.0
C472 C 0.88481 0.21988 0.71769 0.0
C473 C 0.86598 0.23685 0.70077 0.0
C474 C 0.85292 0.22325 0.67864 0.0
H475 H 0.88563 0.21179 0.59861 0.0
H476 H 0.86624 0.23478 0.62259 0.0
H477 H 0.89626 0.20967 0.6329 0.0
H478 H 0.8811 0.15141 0.68619 0.0
H479 H 0.90384 0.17506 0.72507 0.0
H480 H 0.74556 0.87991 0.94667 0.0
H481 H 0.76941 0.8574 0.90781 0.0
H482 H 0.85664 0.89188 0.93274 0.0
H483 H 0.83313 0.91374 0.97206 0.0
H484 H 0.80301 0.88712 0.86772 0.0
H485 H 0.87173 0.80004 0.9205 0.0
H486 H 0.84039 0.81991 0.93579 0.0
H487 H 0.87655 0.83847 0.93198 0.0
C488 C 0.76986 0.88242 0.94407 0.0
C489 C 0.78746 0.89846 0.96257 0.0
C490 C 0.7834 0.86975 0.92176 0.0
C491 C 0.81479 0.8727 0.91763 0.0
C492 C 0.83242 0.889 0.93582 0.0
H493 H 0.91247 0.83668 0.77206 0.0
H494 H 0.89014 0.86034 0.8111 0.0
C495 C 0.81889 0.90174 0.95813 0.0
C496 C 0.82899 0.85888 0.89412 0.0
H497 H 0.8802 0.80496 0.87466 0.0
C498 C 0.8199 0.86916 0.86918 0.0
C499 C 0.85073 0.83525 0.89621 0.0
C500 C 0.86031 0.82251 0.92253 0.0
C501 C 0.83222 0.85656 0.84616 0.0
C502 C 0.85443 0.83338 0.84825 0.0
C503 C 0.86333 0.82293 0.87319 0.0
C504 C 0.86823 0.81914 0.82476 0.0
C505 C 0.82096 0.86772 0.81979 0.0
C506 C 0.86383 0.78801 0.81988 0.0
C507 C 0.87677 0.77436 0.79774 0.0
C508 C 0.89453 0.79157 0.78015 0.0
C509 C 0.89914 0.82272 0.7853 0.0
C510 C 0.88614 0.83637 0.80744 0.0
H511 H 0.79913 0.88034 0.82157 0.0
H512 H 0.8381 0.88335 0.81115 0.0
H513 H 0.81772 0.84839 0.80597 0.0
H514 H 0.85023 0.77431 0.83316 0.0
H515 H 0.87317 0.75026 0.79459 0.0
H516 H 0.17286 0.92077 0.0196 0.0
H517 H 0.1481 0.89882 0.05833 0.0
H518 H 0.23122 0.85211 0.07853 0.0
H519 H 0.25639 0.8746 0.04033 0.0
H520 H 0.14028 0.83669 0.07076 0.0
H521 H 0.20801 0.89701 0.14681 0.0
H522 H 0.20708 0.90897 0.1128 0.0
H523 H 0.23055 0.87742 0.12266 0.0
C524 C 0.18599 0.90614 0.03244 0.0
C525 C 0.21668 0.89956 0.02692 0.0
C526 C 0.17175 0.89347 0.05446 0.0
C527 C 0.18797 0.87421 0.07144 0.0
C528 C 0.21846 0.86734 0.06588 0.0
H529 H 0.12373 0.74415 0.1855 0.0
H530 H 0.14452 0.77065 0.14724 0.0
C531 C 0.23271 0.87993 0.04386 0.0
C532 C 0.17286 0.8607 0.09467 0.0
H533 H 0.17693 0.85601 0.16163 0.0
C534 C 0.14813 0.84103 0.09065 0.0
C535 C 0.18294 0.86678 0.12058 0.0
C536 C 0.20842 0.88892 0.12609 0.0
C537 C 0.13373 0.82655 0.11188 0.0
C538 C 0.14467 0.83161 0.13769 0.0
C539 C 0.16881 0.85197 0.14177 0.0
C540 C 0.1317 0.81561 0.16072 0.0
C541 C 0.10686 0.80607 0.10654 0.0
C542 C 0.11822 0.8322 0.18123 0.0
C543 C 0.10658 0.81714 0.20326 0.0
C544 C 0.10845 0.78522 0.20528 0.0
C545 C 0.12215 0.76874 0.18471 0.0
C546 C 0.13373 0.78381 0.16267 0.0
H547 H 0.09643 0.8109 0.08705 0.0
H548 H 0.11456 0.78199 0.10657 0.0
H549 H 0.08918 0.8087 0.122 0.0
H550 H 0.1167 0.85681 0.18015 0.0
H551 H 0.09659 0.83057 0.21889 0.0
H552 H 0.05094 0.23268 0.10776 0.0
H553 H 0.05581 0.23601 0.06 0.0
H554 H 0.95807 0.23601 0.05233 0.0
H555 H 0.95302 0.23266 0.10032 0.0
H556 H 0.98686 0.1963 0.01797 0.0
H557 H 0.03992 0.31094 0.01428 0.0
H558 H 0.05953 0.28454 0.0353 0.0
H559 H 0.02147 0.29631 0.04341 0.0
C560 C 0.03046 0.23386 0.09597 0.0
C561 C 1.00154 0.23281 0.10779 0.0
C562 C 0.0333 0.23572 0.06868 0.0
C563 C 0.00731 0.23685 0.05272 0.0
C564 C 0.9784 0.23536 0.06438 0.0
H565 H 0.99698 0.28438 0.88779 0.0
H566 H 0.99419 0.28315 0.93585 0.0
C567 C 0.97554 0.23335 0.09171 0.0
C568 C 0.01034 0.23882 0.02379 0.0
H569 H 0.03969 0.28256 0.97438 0.0
C570 C 0.99831 0.21519 0.0084 0.0
C571 C 0.02501 0.26368 0.01143 0.0
C572 C 0.03698 0.29047 0.02691 0.0
C573 C 1.00095 0.21552 0.9809 0.0
C574 C 0.01654 0.23987 0.96862 0.0
C575 C 0.02814 0.26374 0.98396 0.0
C576 C 0.02006 0.24145 0.93973 0.0
C577 C 0.98657 0.19011 0.96521 0.0
C578 C 0.03631 0.2189 0.92614 0.0
C579 C 0.0378 0.21945 0.89868 0.0
C580 C 0.02313 0.24266 0.88441 0.0
C581 C 0.00806 0.26595 0.89823 0.0
C582 C 0.00657 0.26537 0.92565 0.0
H583 H 0.96941 0.1774 0.97694 0.0
H584 H 0.9754 0.1991 0.9472 0.0
H585 H 1.00448 0.17378 0.95905 0.0
H586 H 0.04735 0.20056 0.93675 0.0
H587 H 0.04944 0.20108 0.88867 0.0
H588 H 0.75323 0.0473 0.1533 0.0
H589 H 0.76519 0.0429 0.19998 0.0
H590 H 0.84325 0.98725 0.18142 0.0
H591 H 0.831 0.9912 0.1345 0.0
H592 H 0.81025 0.96109 0.21799 0.0
H593 H 0.82738 0.08074 0.24716 0.0
H594 H 0.79169 0.07686 0.23045 0.0
H595 H 0.82663 0.06905 0.21309 0.0
C596 C 0.77336 0.03477 0.15908 0.0
C597 C 0.79117 0.01962 0.14023 0.0
C598 C 0.78027 0.03235 0.18581 0.0
C599 C 0.80546 0.0152 0.19422 0.0
C600 C 0.82381 1.00073 0.17537 0.0
H601 H 0.82705 0.01567 0.36596 0.0
H602 H 0.84122 0.0191 0.31943 0.0
C603 C 0.81674 1.00292 0.14862 0.0
C604 C 0.81051 0.00993 0.22271 0.0
H605 H 0.81069 0.04645 0.28194 0.0
C606 C 0.81096 0.97978 0.23196 0.0
C607 C 0.81229 0.0342 0.24097 0.0
C608 C 0.81484 0.06699 0.23234 0.0
C609 C 0.81079 0.9733 0.25899 0.0
C610 C 0.80926 0.99763 0.2772 0.0
C611 C 0.81121 0.02774 0.26799 0.0
C612 C 0.80293 0.99258 0.30554 0.0
C613 C 0.81176 0.94044 0.26767 0.0
C614 C 0.77684 0.9764 0.31321 0.0
C615 C 0.76883 0.97426 0.33972 0.0
C616 C 0.78645 0.98875 0.35908 0.0
C617 C 0.81292 1.00446 0.35144 0.0
C618 C 0.82108 0.00636 0.3249 0.0
H619 H 0.82434 0.92621 0.25322 0.0
H620 H 0.82271 0.93793 0.28725 0.0
H621 H 0.7882 0.93147 0.26886 0.0
H622 H 0.76191 0.96642 0.29861 0.0
H623 H 0.74803 0.96251 0.34491 0.0
H624 H 0.05278 0.75404 0.59585 0.0
H625 H 0.05045 0.76451 0.54872 0.0
H626 H 0.99335 0.84266 0.56357 0.0
H627 H 0.99519 0.83183 0.61083 0.0
H628 H 0.9686 0.80741 0.52794 0.0
H629 H 0.08851 0.82519 0.50001 0.0
H630 H 0.0845 0.79006 0.51766 0.0
H631 H 0.07612 0.82561 0.53389 0.0
C632 C 0.0404 0.77389 0.58913 0.0
C633 C 0.0241 0.79207 0.60698 0.0
C634 C 0.03918 0.77997 0.56217 0.0
C635 C 0.02211 0.80467 0.5526 0.0
C636 C 0.00676 0.82356 0.57051 0.0
H637 H 0.02125 0.82477 0.38027 0.0
H638 H 0.02585 0.83845 0.42686 0.0
C639 C 0.00773 0.8173 0.59745 0.0
C640 C 0.01745 0.80844 0.52388 0.0
H641 H 0.05494 0.8076 0.46509 0.0
C642 C 0.98751 0.80808 0.51422 0.0
C643 C 0.042 0.80998 0.50591 0.0
C644 C 0.07455 0.81309 0.51495 0.0
C645 C 0.98153 0.80712 0.48714 0.0
C646 C 0.00616 0.80562 0.46929 0.0
C647 C 0.03605 0.80816 0.47882 0.0
C648 C 1.00153 0.79883 0.44102 0.0
C649 C 0.94886 0.80717 0.47799 0.0
C650 C 0.98645 0.77201 0.43355 0.0
C651 C 0.98377 0.76418 0.40706 0.0
C652 C 0.99651 0.78281 0.38745 0.0
C653 C 0.01139 0.80985 0.39494 0.0
C654 C 0.01394 0.81775 0.42151 0.0
H655 H 0.93396 0.81921 0.49227 0.0
H656 H 0.94645 0.81819 0.45843 0.0
H657 H 0.94067 0.78332 0.4765 0.0
H658 H 0.97752 0.75659 0.4483 0.0
H659 H 0.97276 0.74292 0.40205 0.0
H660 H 0.27351 0.9977 0.6448 0.0
H661 H 0.27012 0.00933 0.69182 0.0
H662 H 0.17625 0.98079 0.69217 0.0
H663 H 0.1794 0.96935 0.64513 0.0
H664 H 0.22775 0.05224 0.7141 0.0
H665 H 0.21482 0.93557 0.75569 0.0
H666 H 0.22956 0.9423 0.72301 0.0
H667 H 0.1895 0.94561 0.72926 0.0
C668 C 0.25226 0.99361 0.65498 0.0
C669 C 0.22678 0.98253 0.64128 0.0
C670 C 0.25035 1.00027 0.68178 0.0
C671 C 0.22299 0.99578 0.69541 0.0
C672 C 0.1977 0.98396 0.68203 0.0
H673 H 0.18573 0.02149 0.86249 0.0
H674 H 0.17801 0.01544 0.81509 0.0
C675 C 0.1996 0.97728 0.65518 0.0
C676 C 0.2207 1.00486 0.72334 0.0
H677 H 0.2125 0.97661 0.78545 0.0
C678 C 0.22432 0.03576 0.72974 0.0
C679 C 0.21587 0.98331 0.74356 0.0
C680 C 0.21241 0.94979 0.7377 0.0
C681 C 0.22367 0.04567 0.75598 0.0
C682 C 0.21987 0.02398 0.77629 0.0
C683 C 0.21537 0.9932 0.76981 0.0
C684 C 0.22264 0.03217 0.80444 0.0
C685 C 0.227 0.07923 0.76169 0.0
C686 C 0.25002 0.04423 0.8141 0.0
C687 C 0.25451 0.04766 0.84115 0.0
C688 C 0.23178 0.03876 0.85905 0.0
C689 C 0.20377 0.02824 0.8492 0.0
C690 C 0.19929 0.02483 0.82215 0.0
H691 H 0.21983 0.09331 0.74459 0.0
H692 H 0.21337 0.08602 0.77913 0.0
H693 H 0.25127 0.08437 0.76577 0.0
H694 H 0.2686 0.04941 0.80083 0.0
H695 H 0.2765 0.05537 0.84802 0.0
H696 H 0.05505 0.14775 0.17098 0.0
H697 H 0.07613 0.10777 0.14233 0.0
H698 H 0.15686 0.16189 0.13056 0.0
H699 H 0.13623 0.20148 0.15898 0.0
H700 H 0.0925 0.11581 0.08889 0.0
H701 H 0.19175 0.07768 0.14702 0.0
H702 H 0.16041 0.09844 0.16147 0.0
H703 H 0.19019 0.1184 0.14428 0.0
C704 C 0.07757 0.15075 0.16272 0.0
C705 C 0.09403 0.17772 0.16731 0.0
C706 C 0.0895 0.12798 0.14628 0.0
C707 C 0.11826 0.13166 0.13459 0.0
C708 C 0.13493 0.15823 0.13977 0.0
H709 H 0.23564 0.08306 0.01313 0.0
H710 H 0.20592 0.10222 0.05001 0.0
C711 C 0.12299 0.18096 0.15593 0.0
C712 C 0.13027 0.10927 0.11529 0.0
H713 H 0.19478 0.0697 0.09996 0.0
C714 C 0.1145 0.10502 0.09152 0.0
C715 C 0.15894 0.09516 0.11878 0.0
C716 C 0.17616 0.09738 0.1444 0.0
C717 C 0.1277 0.08895 0.07045 0.0
C718 C 0.15725 0.07668 0.07339 0.0
C719 C 0.17218 0.07931 0.0977 0.0
C720 C 0.17455 0.06431 0.0507 0.0
C721 C 0.11087 0.08686 0.04463 0.0
C722 C 0.16674 0.03652 0.03879 0.0
C723 C 0.18383 0.02533 0.01754 0.0
C724 C 0.20895 0.04184 0.00789 0.0
C725 C 0.21646 0.06971 0.01992 0.0
C726 C 0.19953 0.08072 0.0411 0.0
H727 H 0.08927 0.10002 0.04483 0.0
H728 H 0.12541 0.09545 0.02837 0.0
H729 H 0.10548 0.06265 0.04038 0.0
H730 H 0.14765 0.02338 0.04607 0.0
H731 H 0.17743 1.00379 0.00876 0.0
H732 H 0.92499 0.21949 0.25247 0.0
H733 H 0.90155 0.18915 0.28726 0.0
H734 H 0.98885 0.15035 0.3066 0.0
H735 H 0.01268 0.18066 0.27157 0.0
H736 H 0.90472 0.12124 0.29444 0.0
H737 H 0.95318 0.18978 0.37677 0.0
H738 H 0.95025 0.20477 0.34375 0.0
H739 H 0.97838 0.17651 0.35125 0.0
C740 C 0.93929 0.20448 0.26402 0.0
C741 C 0.97076 0.20261 0.25928 0.0
C742 C 0.9258 0.18708 0.28385 0.0
C743 C 0.94348 0.16766 0.29955 0.0
C744 C 0.97486 0.16536 0.29476 0.0
H745 H 0.8486 0.04808 0.41351 0.0
H746 H 0.88849 0.06575 0.38322 0.0
C747 C 0.9884 0.18264 0.27471 0.0
C748 C 0.92877 0.15055 0.32124 0.0
H749 H 0.91743 0.15208 0.38775 0.0
C750 C 0.90787 0.12751 0.3149 0.0
C751 C 0.93287 0.15901 0.34786 0.0
C752 C 0.95476 0.18394 0.35554 0.0
C753 C 0.89017 0.11339 0.33445 0.0
C754 C 0.89352 0.12261 0.36098 0.0
C755 C 0.91515 0.14493 0.36741 0.0
C756 C 0.87208 0.1122 0.38163 0.0
C757 C 0.86687 0.08986 0.32649 0.0
C758 C 0.85037 0.13269 0.39139 0.0
C759 C 0.82763 0.1227 0.40851 0.0
C760 C 0.82632 0.09206 0.41646 0.0
C761 C 0.84912 0.07187 0.40785 0.0
C762 C 0.87177 0.08185 0.39042 0.0
H763 H 0.86488 0.08763 0.30477 0.0
H764 H 0.87345 0.06736 0.33469 0.0
H765 H 0.8442 0.09583 0.33465 0.0
H766 H 0.85027 0.15621 0.38489 0.0
H767 H 0.81046 0.13882 0.41487 0.0
H768 H 0.82965 0.01235 0.50758 0.0
H769 H 0.86235 0.99301 0.54317 0.0
H770 H 0.80486 0.91399 0.55077 0.0
H771 H 0.77232 0.93278 0.51545 0.0
H772 H 0.82233 0.95306 0.60064 0.0
H773 H 0.91733 0.90973 0.5382 0.0
H774 H 0.90033 0.94641 0.53162 0.0
H775 H 0.87912 0.91236 0.52526 0.0
C776 C 0.82403 0.99082 0.51679 0.0
C777 C 0.79835 0.97411 0.5086 0.0
C778 C 0.84275 0.97983 0.53707 0.0
C779 C 0.83598 0.95208 0.5495 0.0
C780 C 0.81043 0.93545 0.54139 0.0
H781 H 0.87308 0.81961 0.66107 0.0
H782 H 0.85344 0.86042 0.63344 0.0
C783 C 0.7919 0.94625 0.52113 0.0
C784 C 0.85501 0.93999 0.57119 0.0
H785 H 0.91703 0.89508 0.58275 0.0
C786 C 0.84339 0.94091 0.59688 0.0
C787 C 0.88256 0.92444 0.56623 0.0
C788 C 0.8958 0.92299 0.53888 0.0
C789 C 0.85781 0.9253 0.61754 0.0
C790 C 0.88412 0.90773 0.6122 0.0
C791 C 0.89685 0.9085 0.58684 0.0
C792 C 0.89599 0.88513 0.63143 0.0
C793 C 0.84418 0.92699 0.64474 0.0
C794 C 0.92661 0.88526 0.63949 0.0
C795 C 0.93798 0.86174 0.65548 0.0
C796 C 0.91898 0.83754 0.66317 0.0
C797 C 0.88826 0.83798 0.65555 0.0
C798 C 0.87692 0.86145 0.63987 0.0
H799 H 0.83186 0.94884 0.6477 0.0
H800 H 0.82749 0.90823 0.64719 0.0
H801 H 0.86189 0.92472 0.66022 0.0
H802 H 0.94181 0.90314 0.63295 0.0
H803 H 0.96187 0.86175 0.66076 0.0
H804 H 0.01352 0.84374 0.74456 0.0
H805 H 0.04024 0.87706 0.77594 0.0
H806 H 0.08484 0.79864 0.80958 0.0
H807 H 0.05926 0.76565 0.77805 0.0
H808 H 0.04469 0.88063 0.8306 0.0
H809 H 0.15616 0.85067 0.78715 0.0
H810 H 0.12064 0.84079 0.77159 0.0
H811 H 0.13568 0.81756 0.79778 0.0
C812 C 0.02894 0.83368 0.75875 0.0
C813 C 0.03478 0.80216 0.75847 0.0
C814 C 0.04413 0.8527 0.77669 0.0
C815 C 0.06514 0.84041 0.79468 0.0
C816 C 0.06945 0.80876 0.79539 0.0
H817 H 0.15365 0.91806 0.9326 0.0
H818 H 0.11599 0.89608 0.90223 0.0
C819 C 0.05473 0.78991 0.77734 0.0
C820 C 0.08378 0.86039 0.81196 0.0
H821 H 0.15737 0.87506 0.829 0.0
C822 C 0.06935 0.87973 0.83013 0.0
C823 C 0.11595 0.85967 0.811 0.0
C824 C 0.13302 0.84131 0.79064 0.0
C825 C 0.08629 0.8976 0.84792 0.0
C826 C 0.11847 0.89546 0.84794 0.0
C827 C 0.13274 0.87666 0.82926 0.0
C828 C 0.13827 0.91233 0.86681 0.0
C829 C 0.06952 0.91883 0.8662 0.0
C830 C 0.16336 0.92876 0.85721 0.0
C831 C 0.18519 0.94032 0.87444 0.0
C832 C 0.18207 0.93646 0.90172 0.0
C833 C 0.15621 0.92164 0.91161 0.0
C834 C 0.13463 0.90928 0.89425 0.0
H835 H 0.04693 0.92524 0.85808 0.0
H836 H 0.06564 0.90716 0.88528 0.0
H837 H 0.08276 0.93994 0.86992 0.0
H838 H 0.16675 0.93158 0.83622 0.0
H839 H 0.20503 0.95161 0.86635 0.0
H840 H 0.05409 0.85047 0.32809 0.0
H841 H 0.07352 0.89024 0.35765 0.0
H842 H 0.16087 0.84547 0.35953 0.0
H843 H 0.14186 0.80612 0.33002 0.0
H844 H 0.09494 0.88038 0.40827 0.0
H845 H 0.18512 0.93368 0.34808 0.0
H846 H 0.15562 0.91018 0.3339 0.0
H847 H 0.18869 0.89298 0.34868 0.0
C848 C 0.07765 0.84957 0.3343 0.0
C849 C 0.09648 0.82519 0.32665 0.0
C850 C 0.08866 0.87221 0.35129 0.0
C851 C 0.11878 0.87108 0.36053 0.0
C852 C 0.13778 0.84725 0.35222 0.0
H853 H 0.23276 0.92325 0.48464 0.0
H854 H 0.20434 0.90211 0.44765 0.0
C855 C 0.12679 0.82462 0.33545 0.0
C856 C 0.12994 0.89296 0.38064 0.0
H857 H 0.19043 0.93878 0.39534 0.0
C858 C 0.11538 0.89377 0.40526 0.0
C859 C 0.1566 0.91047 0.3767 0.0
C860 C 0.17222 0.91205 0.3503 0.0
C861 C 0.12793 0.91003 0.42649 0.0
C862 C 0.15558 0.92589 0.42292 0.0
C863 C 0.16927 0.92642 0.398 0.0
C864 C 0.17225 0.93935 0.44542 0.0
C865 C 0.1126 0.90882 0.45302 0.0
C866 C 0.16361 0.96741 0.45633 0.0
C867 C 0.17995 0.97974 0.47752 0.0
C868 C 0.20507 0.96404 0.48815 0.0
C869 C 0.2135 0.93591 0.47707 0.0
C870 C 0.19733 0.92378 0.45587 0.0
H871 H 0.09153 0.89483 0.45273 0.0
H872 H 0.12849 0.89916 0.46784 0.0
H873 H 0.10669 0.93225 0.45946 0.0
H874 H 0.14434 0.97978 0.4484 0.0
H875 H 0.1729 1.00147 0.48557 0.0
H876 H 0.15037 0.08815 0.56056 0.0
H877 H 0.11246 0.11463 0.58807 0.0
H878 H 0.15977 0.08483 0.65793 0.0
H879 H 0.1981 0.05979 0.63064 0.0
H880 H 0.07269 0.1006 0.62846 0.0
H881 H 0.16426 0.17616 0.66492 0.0
H882 H 0.1699 0.15018 0.63789 0.0
H883 H 0.17224 0.1368 0.67137 0.0
C884 C 0.15225 0.08698 0.5818 0.0
C885 C 0.17727 0.07251 0.59358 0.0
C886 C 0.13069 0.10207 0.59749 0.0
C887 C 0.1338 0.10245 0.62506 0.0
C888 C 0.15743 0.08569 0.63672 0.0
H889 H 0.00822 0.16987 0.74498 0.0
H890 H 0.0343 0.13828 0.71215 0.0
C891 C 0.17922 0.07129 0.62114 0.0
C892 C 0.114 0.12205 0.64169 0.0
H893 H 0.11723 0.17842 0.68781 0.0
C894 C 0.08232 0.1178 0.64132 0.0
C895 C 0.12652 0.14494 0.65806 0.0
C896 C 0.16005 0.15255 0.65791 0.0
C897 C 0.06293 0.13533 0.65741 0.0
C898 C 0.0757 0.15712 0.67479 0.0
C899 C 0.10733 0.16161 0.67471 0.0
C900 C 0.05711 0.17608 0.69306 0.0
C901 C 0.02903 0.13069 0.65521 0.0
C902 C 0.06139 0.2078 0.69359 0.0
C903 C 0.04729 0.22564 0.71276 0.0
C904 C 0.02815 0.21229 0.73164 0.0
C905 C 0.02273 0.18076 0.73054 0.0
C906 C 0.03743 0.16273 0.71162 0.0
H907 H 0.0227 0.12091 0.6358 0.0
H908 H 0.02153 0.11444 0.67064 0.0
H909 H 0.01651 0.15243 0.65796 0.0
H910 H 0.07635 0.21873 0.6795 0.0
H911 H 0.05165 0.24993 0.71297 0.0
H912 H 0.94423 0.14697 0.81777 0.0
H913 H 0.92581 0.10543 0.84633 0.0
H914 H 0.88471 0.17144 0.89811 0.0
H915 H 0.90258 0.21257 0.87006 0.0
H916 H 0.92282 0.12234 0.92289 0.0
H917 H 0.83156 0.08217 0.85494 0.0
H918 H 0.86956 0.08803 0.84253 0.0
H919 H 0.84709 0.12014 0.85235 0.0
C920 C 0.93124 0.15253 0.83524 0.0
C921 C 0.92471 0.18308 0.84152 0.0
C922 C 0.92077 0.12883 0.8515 0.0
C923 C 0.90388 0.13544 0.87429 0.0
C924 C 0.89774 0.16586 0.88065 0.0
H925 H 0.77489 0.07543 0.98088 0.0
H926 H 0.80772 0.09632 0.94676 0.0
C927 C 0.90789 0.18936 0.86445 0.0
C928 C 0.89168 0.1112 0.89166 0.0
H929 H 0.83041 0.06401 0.89841 0.0
C930 C 0.90312 0.10889 0.91739 0.0
C931 C 0.86582 0.09399 0.88443 0.0
C932 C 0.85255 0.09605 0.85711 0.0
C933 C 0.8884 0.091 0.93649 0.0
C934 C 0.8616 0.07508 0.92962 0.0
C935 C 0.85108 0.07613 0.90354 0.0
C936 C 0.84186 0.06105 0.94996 0.0
C937 C 0.90035 0.09082 0.96433 0.0
C938 C 0.85016 0.03411 0.96306 0.0
C939 C 0.83127 0.02192 0.98271 0.0
C940 C 0.80392 0.03664 0.98961 0.0
C941 C 0.7958 0.06352 0.97624 0.0
C942 C 0.81449 0.07548 0.95661 0.0
H943 H 0.92042 0.10593 0.96681 0.0
H944 H 0.88223 0.09827 0.97814 0.0
H945 H 0.907 0.06728 0.96987 0.0
H946 H 0.87117 0.02257 0.9581 0.0
H947 H 0.83815 1.00113 0.99254 0.0
H948 H 0.9249 0.78859 0.24709 0.0
H949 H 0.90358 0.82054 0.2124 0.0
H950 H 0.99287 0.85579 0.19502 0.0
H951 H 0.01458 0.82383 0.22992 0.0
H952 H 0.90808 0.887 0.20556 0.0
H953 H 0.95936 0.81962 0.12381 0.0
H954 H 0.95576 0.80445 0.15671 0.0
H955 H 0.98403 0.83277 0.14974 0.0
C956 C 0.94011 0.80317 0.23602 0.0
C957 C 0.97156 0.80338 0.2412 0.0
C958 C 0.92782 0.82151 0.21623 0.0
C959 C 0.94666 0.84032 0.20101 0.0
C960 C 0.97798 0.84118 0.20639 0.0
H961 H 0.85534 0.96249 0.08662 0.0
H962 H 0.89458 0.94461 0.11749 0.0
C963 C 0.99033 0.82293 0.22638 0.0
C964 C 0.93319 0.85815 0.17911 0.0
H965 H 0.92484 0.8582 0.11225 0.0
C966 C 0.91214 0.88118 0.18511 0.0
C967 C 0.93846 0.85029 0.1525 0.0
C968 C 0.96049 0.82535 0.14509 0.0
C969 C 0.89533 0.89579 0.16523 0.0
C970 C 0.89981 0.88714 0.13868 0.0
C971 C 0.92169 0.86492 0.13261 0.0
C972 C 0.87909 0.8978 0.11755 0.0
C973 C 0.87171 0.91917 0.17283 0.0
C974 C 0.8582 0.87722 0.10668 0.0
C975 C 0.83587 0.88732 0.08921 0.0
C976 C 0.83415 0.91819 0.08201 0.0
C977 C 0.85623 0.93853 0.09168 0.0
C978 C 0.87848 0.92841 0.10945 0.0
H979 H 0.86867 0.9208 0.1945 0.0
H980 H 0.87872 0.94187 0.16536 0.0
H981 H 0.84943 0.91352 0.16374 0.0
H982 H 0.85833 0.8535 0.11263 0.0
H983 H 0.81925 0.87109 0.08203 0.0
loop_
_geom_bond_atom_site_label_1
_geom_bond_atom_site_label_2
_geom_bond_distance
_geom_bond_site_symmetry_2
_ccdc_geom_bond_type
C0 C1 1.351 . S
C0 N3 1.368 . S
C0 H5 0.931 . S
C1 C0 1.351 . S
C1 N2 1.373 . S
C1 H29 0.930 . S
N2 C1 1.373 . S
N2 C4 1.340 . S
N3 C0 1.368 . S
N3 C4 1.321 . S
N3 Co6 2.135 . S
C4 N2 1.340 . S
C4 N3 1.321 . S
C4 H28 0.930 . S
H5 C0 0.931 . S
Co6 N3 2.135 . S
Co6 N9 2.121 . S
Co6 O14 2.055 . S
Co6 O17 2.039 . S
Co6 N20 2.140 . S
C7 O8 1.227 . S
C7 O17 1.265 . S
O8 C7 1.227 . S
N9 Co6 2.121 . S
N9 C11 1.375 . S
N9 C12 1.313 . S
C10 C11 1.338 . S
C10 N13 1.377 . S
C10 H30 0.930 1_455 S
C11 N9 1.375 . S
C11 C10 1.338 . S
C11 H15 0.931 . S
C12 N9 1.313 . S
C12 N13 1.344 . S
C12 H16 0.930 . S
N13 C10 1.377 . S
N13 C12 1.344 . S
O14 Co6 2.055 . S
O14 C18 1.253 . S
H15 C11 0.931 . S
H16 C12 0.930 . S
O17 Co6 2.039 . S
O17 C7 1.265 . S
C18 O14 1.253 . S
C18 O19 1.227 . S
O19 C18 1.227 . S
N20 Co6 2.140 . S
N20 C23 1.346 . S
N20 C24 1.345 . S
C21 C22 1.387 . S
C21 C25 1.391 . S
C22 C21 1.387 . S
C22 C23 1.369 . S
C22 H31 0.929 . S
C23 N20 1.346 . S
C23 C22 1.369 . S
C23 H26 0.928 . S
C24 N20 1.345 . S
C24 C25 1.371 . S
C24 H27 0.931 . S
C25 C21 1.391 . S
C25 C24 1.371 . S
C25 H32 0.930 . S
H26 C23 0.928 . S
H27 C24 0.931 . S
H28 C4 0.930 . S
H29 C1 0.930 . S
H30 C10 0.930 1_655 S
H31 C22 0.929 . S
H32 C25 0.930 . S
C33 C34 1.351 . S
C33 N36 1.368 . S
C33 H38 0.931 . S
C34 C33 1.351 . S
C34 N35 1.373 . S
C34 H62 0.930 . S
N35 C34 1.373 . S
N35 C37 1.340 . S
N36 C33 1.368 . S
N36 C37 1.321 . S
N36 Co39 2.135 . S
C37 N35 1.340 . S
C37 N36 1.321 . S
C37 H61 0.930 . S
H38 C33 0.931 . S
Co39 N36 2.135 . S
Co39 N42 2.121 . S
Co39 O47 2.055 . S
Co39 O50 2.039 . S
Co39 N53 2.140 . S
C40 O41 1.227 . S
C40 O50 1.265 . S
O41 C40 1.227 . S
N42 Co39 2.121 . S
N42 C44 1.375 . S
N42 C45 1.313 . S
C43 C44 1.338 . S
C43 N46 1.377 . S
C43 H63 0.930 1_545 S
C44 N42 1.375 . S
C44 C43 1.338 . S
C44 H48 0.931 . S
C45 N42 1.313 . S
C45 N46 1.344 . S
C45 H49 0.930 . S
N46 C43 1.377 . S
N46 C45 1.344 . S
O47 Co39 2.055 . S
O47 C51 1.253 . S
H48 C44 0.931 . S
H49 C45 0.930 . S
O50 Co39 2.039 . S
O50 C40 1.265 . S
C51 O47 1.253 . S
C51 O52 1.227 . S
O52 C51 1.227 . S
N53 Co39 2.140 . S
N53 C56 1.346 . S
N53 C57 1.345 . S
C54 C55 1.387 . S
C54 C58 1.391 . S
C55 C54 1.387 . S
C55 C56 1.369 . S
C55 H64 0.929 . S
C56 N53 1.346 . S
C56 C55 1.369 . S
C56 H59 0.928 . S
C57 N53 1.345 . S
C57 C58 1.371 . S
C57 H60 0.931 . S
C58 C54 1.391 . S
C58 C57 1.371 . S
C58 H65 0.930 . S
H59 C56 0.928 . S
H60 C57 0.931 . S
H61 C37 0.930 . S
H62 C34 0.930 . S
H63 C43 0.930 1_565 S
H64 C55 0.929 . S
H65 C58 0.930 . S
C66 C67 1.351 . S
C66 N69 1.368 . S
C66 H71 0.931 . S
C67 C66 1.351 . S
C67 N68 1.373 . S
C67 H95 0.930 . S
N68 C67 1.373 . S
N68 C70 1.340 . S
N69 C66 1.368 . S
N69 C70 1.321 . S
N69 Co72 2.135 . S
C70 N68 1.340 . S
C70 N69 1.321 . S
C70 H94 0.930 . S
H71 C66 0.931 . S
Co72 N69 2.135 . S
Co72 N75 2.121 . S
Co72 O80 2.055 . S
Co72 O83 2.039 . S
Co72 N86 2.140 . S
C73 O74 1.227 . S
C73 O83 1.265 . S
O74 C73 1.227 . S
N75 Co72 2.121 . S
N75 C77 1.375 . S
N75 C78 1.313 . S
C76 C77 1.338 . S
C76 N79 1.377 . S
C76 H96 0.930 1_655 S
C77 N75 1.375 . S
C77 C76 1.338 . S
C77 H81 0.931 . S
C78 N75 1.313 . S
C78 N79 1.344 . S
C78 H82 0.930 . S
N79 C76 1.377 . S
N79 C78 1.344 . S
O80 Co72 2.055 . S
O80 C84 1.253 . S
H81 C77 0.931 . S
H82 C78 0.930 . S
O83 Co72 2.039 . S
O83 C73 1.265 . S
C84 O80 1.253 . S
C84 O85 1.227 . S
O85 C84 1.227 . S
N86 Co72 2.140 . S
N86 C89 1.346 . S
N86 C90 1.345 . S
C87 C88 1.387 . S
C87 C91 1.391 . S
C88 C87 1.387 . S
C88 C89 1.369 . S
C88 H97 0.929 . S
C89 N86 1.346 . S
C89 C88 1.369 . S
C89 H92 0.928 . S
C90 N86 1.345 . S
C90 C91 1.371 . S
C90 H93 0.931 . S
C91 C87 1.391 . S
C91 C90 1.371 . S
C91 H98 0.930 . S
H92 C89 0.928 . S
H93 C90 0.931 . S
H94 C70 0.930 . S
H95 C67 0.930 . S
H96 C76 0.930 1_455 S
H97 C88 0.929 . S
H98 C91 0.930 . S
C99 C100 1.351 1_556 S
C99 N102 1.368 . S
C99 H104 0.931 . S
C100 C99 1.351 1_554 S
C100 N101 1.373 . S
C100 H128 0.930 . S
N101 C100 1.373 . S
N101 C103 1.340 . S
N102 C99 1.368 . S
N102 C103 1.321 1_556 S
N102 Co105 2.135 . S
C103 N101 1.340 . S
C103 N102 1.321 1_554 S
C103 H127 0.930 . S
H104 C99 0.931 . S
Co105 N102 2.135 . S
Co105 N108 2.121 . S
Co105 O113 2.055 . S
Co105 O116 2.039 . S
Co105 N119 2.140 . S
C106 O107 1.227 . S
C106 O116 1.265 . S
O107 C106 1.227 . S
N108 Co105 2.121 . S
N108 C110 1.375 . S
N108 C111 1.313 . S
C109 C110 1.338 . S
C109 N112 1.377 . S
C109 H129 0.930 1_565 S
C110 N108 1.375 . S
C110 C109 1.338 . S
C110 H114 0.931 . S
C111 N108 1.313 . S
C111 N112 1.344 . S
C111 H115 0.930 . S
N112 C109 1.377 . S
N112 C111 1.344 . S
O113 Co105 2.055 . S
O113 C117 1.253 . S
H114 C110 0.931 . S
H115 C111 0.930 . S
O116 Co105 2.039 . S
O116 C106 1.265 . S
C117 O113 1.253 . S
C117 O118 1.227 . S
O118 C117 1.227 . S
N119 Co105 2.140 . S
N119 C122 1.346 . S
N119 C123 1.345 . S
C120 C121 1.387 . S
C120 C124 1.391 . S
C121 C120 1.387 . S
C121 C122 1.369 . S
C121 H130 0.929 . S
C122 N119 1.346 . S
C122 C121 1.369 . S
C122 H125 0.928 . S
C123 N119 1.345 . S
C123 C124 1.371 . S
C123 H126 0.931 . S
C124 C120 1.391 . S
C124 C123 1.371 . S
C124 H131 0.930 . S
H125 C122 0.928 . S
H126 C123 0.931 . S
H127 C103 0.930 . S
H128 C100 0.930 . S
H129 C109 0.930 1_545 S
H130 C121 0.929 . S
H131 C124 0.930 . S
C132 C133 1.351 . S
C132 N135 1.368 . S
C132 H137 0.931 . S
C133 C132 1.351 . S
C133 N134 1.373 . S
C133 H161 0.930 . S
N134 C133 1.373 . S
N134 C136 1.340 . S
N135 C132 1.368 . S
N135 C136 1.321 . S
N135 Co138 2.135 . S
C136 N134 1.340 . S
C136 N135 1.321 . S
C136 H160 0.930 . S
H137 C132 0.931 . S
Co138 N135 2.135 . S
Co138 N141 2.121 . S
Co138 O146 2.055 . S
Co138 O149 2.039 . S
Co138 N152 2.140 . S
C139 O140 1.227 . S
C139 O149 1.265 . S
O140 C139 1.227 . S
N141 Co138 2.121 . S
N141 C143 1.375 . S
N141 C144 1.313 . S
C142 C143 1.338 . S
C142 N145 1.377 . S
C142 H162 0.930 1_455 S
C143 N141 1.375 . S
C143 C142 1.338 . S
C143 H147 0.931 . S
C144 N141 1.313 . S
C144 N145 1.344 . S
C144 H148 0.930 . S
N145 C142 1.377 . S
N145 C144 1.344 . S
O146 Co138 2.055 . S
O146 C150 1.253 . S
H147 C143 0.931 . S
H148 C144 0.930 . S
O149 Co138 2.039 . S
O149 C139 1.265 . S
C150 O146 1.253 . S
C150 O151 1.227 . S
O151 C150 1.227 . S
N152 Co138 2.140 . S
N152 C155 1.346 . S
N152 C156 1.345 . S
C153 C154 1.387 . S
C153 C157 1.391 . S
C154 C153 1.387 . S
C154 C155 1.369 . S
C154 H163 0.929 . S
C155 N152 1.346 . S
C155 C154 1.369 . S
C155 H158 0.928 . S
C156 N152 1.345 . S
C156 C157 1.371 . S
C156 H159 0.931 . S
C157 C153 1.391 . S
C157 C156 1.371 . S
C157 H164 0.930 . S
H158 C155 0.928 . S
H159 C156 0.931 . S
H160 C136 0.930 . S
H161 C133 0.930 . S
H162 C142 0.930 1_655 S
H163 C154 0.929 . S
H164 C157 0.930 . S
C165 C166 1.351 . S
C165 N168 1.368 . S
C165 H170 0.931 . S
C166 C165 1.351 . S
C166 N167 1.373 . S
C166 H194 0.930 . S
N167 C166 1.373 . S
N167 C169 1.340 . S
N168 C165 1.368 . S
N168 C169 1.321 . S
N168 Co171 2.135 . S
C169 N167 1.340 . S
C169 N168 1.321 . S
C169 H193 0.930 . S
H170 C165 0.931 . S
Co171 N168 2.135 . S
Co171 N174 2.121 . S
Co171 O179 2.055 . S
Co171 O182 2.039 . S
Co171 N185 2.140 . S
C172 O173 1.227 . S
C172 O182 1.265 . S
O173 C172 1.227 . S
N174 Co171 2.121 . S
N174 C176 1.375 . S
N174 C177 1.313 . S
C175 C176 1.338 . S
C175 N178 1.377 . S
C175 H195 0.930 1_545 S
C176 N174 1.375 . S
C176 C175 1.338 . S
C176 H180 0.931 . S
C177 N174 1.313 . S
C177 N178 1.344 . S
C177 H181 0.930 . S
N178 C175 1.377 . S
N178 C177 1.344 . S
O179 Co171 2.055 . S
O179 C183 1.253 . S
H180 C176 0.931 . S
H181 C177 0.930 . S
O182 Co171 2.039 . S
O182 C172 1.265 . S
C183 O179 1.253 . S
C183 O184 1.227 . S
O184 C183 1.227 . S
N185 Co171 2.140 . S
N185 C188 1.346 . S
N185 C189 1.345 . S
C186 C187 1.387 . S
C186 C190 1.391 . S
C187 C186 1.387 . S
C187 C188 1.369 . S
C187 H196 0.929 . S
C188 N185 1.346 . S
C188 C187 1.369 . S
C188 H191 0.928 . S
C189 N185 1.345 . S
C189 C190 1.371 . S
C189 H192 0.931 . S
C190 C186 1.391 . S
C190 C189 1.371 . S
C190 H197 0.930 . S
H191 C188 0.928 . S
H192 C189 0.931 . S
H193 C169 0.930 . S
H194 C166 0.930 . S
H195 C175 0.930 1_565 S
H196 C187 0.929 . S
H197 C190 0.930 . S
C198 C199 1.351 . S
C198 N201 1.368 . S
C198 H203 0.931 . S
C199 C198 1.351 . S
C199 N200 1.373 . S
C199 H227 0.930 . S
N200 C199 1.373 . S
N200 C202 1.340 . S
N201 C198 1.368 . S
N201 C202 1.321 . S
N201 Co204 2.135 . S
C202 N200 1.340 . S
C202 N201 1.321 . S
C202 H226 0.930 . S
H203 C198 0.931 . S
Co204 N201 2.135 . S
Co204 N207 2.121 . S
Co204 O212 2.055 . S
Co204 O215 2.039 . S
Co204 N218 2.140 . S
C205 O206 1.227 . S
C205 O215 1.265 . S
O206 C205 1.227 . S
N207 Co204 2.121 . S
N207 C209 1.375 . S
N207 C210 1.313 . S
C208 C209 1.338 . S
C208 N211 1.377 . S
C208 H228 0.930 1_655 S
C209 N207 1.375 . S
C209 C208 1.338 . S
C209 H213 0.931 . S
C210 N207 1.313 . S
C210 N211 1.344 . S
C210 H214 0.930 . S
N211 C208 1.377 . S
N211 C210 1.344 . S
O212 Co204 2.055 . S
O212 C216 1.253 . S
H213 C209 0.931 . S
H214 C210 0.930 . S
O215 Co204 2.039 . S
O215 C205 1.265 . S
C216 O212 1.253 . S
C216 O217 1.227 . S
O217 C216 1.227 . S
N218 Co204 2.140 . S
N218 C221 1.346 . S
N218 C222 1.345 . S
C219 C220 1.387 . S
C219 C223 1.391 . S
C220 C219 1.387 . S
C220 C221 1.369 . S
C220 H229 0.929 . S
C221 N218 1.346 . S
C221 C220 1.369 . S
C221 H224 0.928 . S
C222 N218 1.345 . S
C222 C223 1.371 . S
C222 H225 0.931 . S
C223 C219 1.391 . S
C223 C222 1.371 . S
C223 H230 0.930 . S
H224 C221 0.928 . S
H225 C222 0.931 . S
H226 C202 0.930 . S
H227 C199 0.930 . S
H228 C208 0.930 1_455 S
H229 C220 0.929 . S
H230 C223 0.930 . S
C231 C232 1.351 1_554 S
C231 N234 1.368 . S
C231 H236 0.931 . S
C232 C231 1.351 1_556 S
C232 N233 1.373 . S
C232 H260 0.930 . S
N233 C232 1.373 . S
N233 C235 1.340 . S
N234 C231 1.368 . S
N234 C235 1.321 1_554 S
N234 Co237 2.135 . S
C235 N233 1.340 . S
C235 N234 1.321 1_556 S
C235 H259 0.930 . S
H236 C231 0.931 . S
Co237 N234 2.135 . S
Co237 N240 2.121 . S
Co237 O245 2.055 . S
Co237 O248 2.039 . S
Co237 N251 2.140 . S
C238 O239 1.227 . S
C238 O248 1.265 . S
O239 C238 1.227 . S
N240 Co237 2.121 . S
N240 C242 1.375 . S
N240 C243 1.313 . S
C241 C242 1.338 . S
C241 N244 1.377 . S
C241 H261 0.930 1_565 S
C242 N240 1.375 . S
C242 C241 1.338 . S
C242 H246 0.931 . S
C243 N240 1.313 . S
C243 N244 1.344 . S
C243 H247 0.930 . S
N244 C241 1.377 . S
N244 C243 1.344 . S
O245 Co237 2.055 . S
O245 C249 1.253 . S
H246 C242 0.931 . S
H247 C243 0.930 . S
O248 Co237 2.039 . S
O248 C238 1.265 . S
C249 O245 1.253 . S
C249 O250 1.227 . S
O250 C249 1.227 . S
N251 Co237 2.140 . S
N251 C254 1.346 . S
N251 C255 1.345 . S
C252 C253 1.387 . S
C252 C256 1.391 . S
C253 C252 1.387 . S
C253 C254 1.369 . S
C253 H262 0.929 . S
C254 N251 1.346 . S
C254 C253 1.369 . S
C254 H257 0.928 . S
C255 N251 1.345 . S
C255 C256 1.371 . S
C255 H258 0.931 . S
C256 C252 1.391 . S
C256 C255 1.371 . S
C256 H263 0.930 . S
H257 C254 0.928 . S
H258 C255 0.931 . S
H259 C235 0.930 . S
H260 C232 0.930 . S
H261 C241 0.930 1_545 S
H262 C253 0.929 . S
H263 C256 0.930 . S
H264 C272 0.929 . S
H265 C274 0.930 . S
H266 C276 0.930 . S
H267 C279 0.929 . S
H268 C282 0.930 . S
H269 C284 0.960 . S
H270 C284 0.960 . S
H271 C284 0.960 . S
C272 H264 0.929 . S
C272 C273 1.377 . S
C272 C274 1.384 . S
C273 C272 1.377 . S
C273 C279 1.390 . S
C274 H265 0.930 . S
C274 C272 1.384 . S
C274 C275 1.372 . S
C275 C274 1.372 . S
C275 C276 1.400 . S
C275 C280 1.490 . S
C276 H266 0.930 . S
C276 C275 1.400 . S
C276 C279 1.386 . S
H277 C293 0.930 . S
H278 C294 0.931 . S
C279 H267 0.929 . S
C279 C273 1.390 . S
C279 C276 1.386 . S
C280 C275 1.490 . S
C280 C282 1.395 . S
C280 C283 1.403 . S
H281 C287 0.930 . S
C282 H268 0.930 . S
C282 C280 1.395 . S
C282 C285 1.403 . S
C283 C280 1.403 . S
C283 C284 1.524 . S
C283 C287 1.400 . S
C284 H269 0.960 . S
C284 H270 0.960 . S
C284 H271 0.960 . S
C284 C283 1.524 . S
C285 C282 1.403 . S
C285 C286 1.392 . S
C285 C289 1.495 . S
C286 C285 1.392 . S
C286 C287 1.385 . S
C286 C288 1.478 . S
C287 H281 0.930 . S
C287 C283 1.400 . S
C287 C286 1.385 . S
C288 C286 1.478 . S
C288 C290 1.381 . S
C288 C294 1.383 . S
C289 C285 1.495 . S
C289 H295 0.959 . S
C289 H296 0.961 . S
C289 H297 0.960 . S
C290 C288 1.381 . S
C290 C291 1.394 . S
C290 H298 0.930 . S
C291 C290 1.394 . S
C291 C292 1.383 . S
C291 H299 0.929 . S
C292 C291 1.383 . S
C292 C293 1.377 . S
C293 H277 0.930 . S
C293 C292 1.377 . S
C293 C294 1.379 . S
C294 H278 0.931 . S
C294 C288 1.383 . S
C294 C293 1.379 . S
H295 C289 0.959 . S
H296 C289 0.961 . S
H297 C289 0.960 . S
H298 C290 0.930 . S
H299 C291 0.929 . S
H300 C308 0.929 . S
H301 C310 0.930 . S
H302 C312 0.930 . S
H303 C315 0.929 . S
H304 C318 0.930 . S
H305 C320 0.960 . S
H306 C320 0.960 . S
H307 C320 0.960 . S
C308 H300 0.929 . S
C308 C309 1.377 . S
C308 C310 1.384 . S
C309 C308 1.377 . S
C309 C315 1.390 . S
C310 H301 0.930 . S
C310 C308 1.384 . S
C310 C311 1.372 . S
C311 C310 1.372 . S
C311 C312 1.400 . S
C311 C316 1.490 . S
C312 H302 0.930 . S
C312 C311 1.400 . S
C312 C315 1.386 . S
H313 C329 0.930 . S
H314 C330 0.931 . S
C315 H303 0.929 . S
C315 C309 1.390 . S
C315 C312 1.386 . S
C316 C311 1.490 . S
C316 C318 1.395 . S
C316 C319 1.403 . S
H317 C323 0.930 . S
C318 H304 0.930 . S
C318 C316 1.395 . S
C318 C321 1.403 . S
C319 C316 1.403 . S
C319 C320 1.524 . S
C319 C323 1.400 . S
C320 H305 0.960 . S
C320 H306 0.960 . S
C320 H307 0.960 . S
C320 C319 1.524 . S
C321 C318 1.403 . S
C321 C322 1.392 . S
C321 C325 1.495 . S
C322 C321 1.392 . S
C322 C323 1.385 . S
C322 C324 1.478 . S
C323 H317 0.930 . S
C323 C319 1.400 . S
C323 C322 1.385 . S
C324 C322 1.478 . S
C324 C326 1.381 . S
C324 C330 1.383 . S
C325 C321 1.495 . S
C325 H331 0.959 . S
C325 H332 0.961 . S
C325 H333 0.960 . S
C326 C324 1.381 . S
C326 C327 1.394 . S
C326 H334 0.930 . S
C327 C326 1.394 . S
C327 C328 1.383 . S
C327 H335 0.929 . S
C328 C327 1.383 . S
C328 C329 1.377 . S
C329 H313 0.930 . S
C329 C328 1.377 . S
C329 C330 1.379 . S
C330 H314 0.931 . S
C330 C324 1.383 . S
C330 C329 1.379 . S
H331 C325 0.959 . S
H332 C325 0.961 . S
H333 C325 0.960 . S
H334 C326 0.930 . S
H335 C327 0.929 . S
H336 C344 0.929 . S
H337 C346 0.930 . S
H338 C348 0.930 . S
H339 C351 0.929 . S
H340 C354 0.930 . S
H341 C356 0.960 . S
H342 C356 0.960 . S
H343 C356 0.960 . S
C344 H336 0.929 . S
C344 C345 1.377 . S
C344 C346 1.384 . S
C345 C344 1.377 . S
C345 C351 1.390 . S
C346 H337 0.930 . S
C346 C344 1.384 . S
C346 C347 1.372 . S
C347 C346 1.372 . S
C347 C348 1.400 . S
C347 C352 1.490 . S
C348 H338 0.930 . S
C348 C347 1.400 . S
C348 C351 1.386 . S
H349 C365 0.930 . S
H350 C366 0.931 . S
C351 H339 0.929 . S
C351 C345 1.390 . S
C351 C348 1.386 . S
C352 C347 1.490 . S
C352 C354 1.395 . S
C352 C355 1.403 . S
H353 C359 0.930 . S
C354 H340 0.930 . S
C354 C352 1.395 . S
C354 C357 1.403 . S
C355 C352 1.403 . S
C355 C356 1.524 . S
C355 C359 1.400 . S
C356 H341 0.960 . S
C356 H342 0.960 . S
C356 H343 0.960 . S
C356 C355 1.524 . S
C357 C354 1.403 . S
C357 C358 1.392 . S
C357 C361 1.495 . S
C358 C357 1.392 . S
C358 C359 1.385 . S
C358 C360 1.478 . S
C359 H353 0.930 . S
C359 C355 1.400 . S
C359 C358 1.385 . S
C360 C358 1.478 . S
C360 C362 1.381 . S
C360 C366 1.383 . S
C361 C357 1.495 . S
C361 H367 0.959 . S
C361 H368 0.961 . S
C361 H369 0.960 . S
C362 C360 1.381 . S
C362 C363 1.394 . S
C362 H370 0.930 . S
C363 C362 1.394 . S
C363 C364 1.383 . S
C363 H371 0.929 . S
C364 C363 1.383 . S
C364 C365 1.377 . S
C365 H349 0.930 . S
C365 C364 1.377 . S
C365 C366 1.379 . S
C366 H350 0.931 . S
C366 C360 1.383 . S
C366 C365 1.379 . S
H367 C361 0.959 . S
H368 C361 0.961 . S
H369 C361 0.960 . S
H370 C362 0.930 . S
H371 C363 0.929 . S
H372 C380 0.929 . S
H373 C382 0.930 . S
H374 C384 0.930 . S
H375 C387 0.929 . S
H376 C390 0.930 . S
H377 C392 0.960 . S
H378 C392 0.960 . S
H379 C392 0.960 . S
C380 H372 0.929 . S
C380 C381 1.377 . S
C380 C382 1.384 . S
C381 C380 1.377 . S
C381 C387 1.390 . S
C382 H373 0.930 . S
C382 C380 1.384 . S
C382 C383 1.372 . S
C383 C382 1.372 . S
C383 C384 1.400 . S
C383 C388 1.490 . S
C384 H374 0.930 . S
C384 C383 1.400 . S
C384 C387 1.386 . S
H385 C401 0.930 . S
H386 C402 0.931 . S
C387 H375 0.929 . S
C387 C381 1.390 . S
C387 C384 1.386 . S
C388 C383 1.490 . S
C388 C390 1.395 1_556 S
C388 C391 1.403 . S
H389 C395 0.930 . S
C390 H376 0.930 . S
C390 C388 1.395 1_554 S
C390 C393 1.403 . S
C391 C388 1.403 . S
C391 C392 1.524 . S
C391 C395 1.400 . S
C392 H377 0.960 . S
C392 H378 0.960 . S
C392 H379 0.960 . S
C392 C391 1.524 . S
C393 C390 1.403 . S
C393 C394 1.392 . S
C393 C397 1.495 . S
C394 C393 1.392 . S
C394 C395 1.385 1_554 S
C394 C396 1.478 . S
C395 H389 0.930 . S
C395 C391 1.400 . S
C395 C394 1.385 1_556 S
C396 C394 1.478 . S
C396 C398 1.381 . S
C396 C402 1.383 . S
C397 C393 1.495 . S
C397 H403 0.959 . S
C397 H404 0.961 . S
C397 H405 0.960 . S
C398 C396 1.381 . S
C398 C399 1.394 . S
C398 H406 0.930 . S
C399 C398 1.394 . S
C399 C400 1.383 . S
C399 H407 0.929 . S
C400 C399 1.383 . S
C400 C401 1.377 . S
C401 H385 0.930 . S
C401 C400 1.377 . S
C401 C402 1.379 . S
C402 H386 0.931 . S
C402 C396 1.383 . S
C402 C401 1.379 . S
H403 C397 0.959 . S
H404 C397 0.961 . S
H405 C397 0.960 . S
H406 C398 0.930 . S
H407 C399 0.929 . S
H408 C416 0.929 . S
H409 C418 0.930 . S
H410 C420 0.930 . S
H411 C423 0.929 . S
H412 C426 0.930 . S
H413 C428 0.960 . S
H414 C428 0.960 . S
H415 C428 0.960 . S
C416 H408 0.929 . S
C416 C417 1.377 . S
C416 C418 1.384 . S
C417 C416 1.377 . S
C417 C423 1.390 . S
C418 H409 0.930 . S
C418 C416 1.384 . S
C418 C419 1.372 . S
C419 C418 1.372 . S
C419 C420 1.400 . S
C419 C424 1.490 . S
C420 H410 0.930 . S
C420 C419 1.400 . S
C420 C423 1.386 . S
H421 C437 0.930 . S
H422 C438 0.931 . S
C423 H411 0.929 . S
C423 C417 1.390 . S
C423 C420 1.386 . S
C424 C419 1.490 . S
C424 C426 1.395 . S
C424 C427 1.403 . S
H425 C431 0.930 . S
C426 H412 0.930 . S
C426 C424 1.395 . S
C426 C429 1.403 . S
C427 C424 1.403 . S
C427 C428 1.524 . S
C427 C431 1.400 . S
C428 H413 0.960 . S
C428 H414 0.960 . S
C428 H415 0.960 . S
C428 C427 1.524 . S
C429 C426 1.403 . S
C429 C430 1.392 . S
C429 C433 1.495 . S
C430 C429 1.392 . S
C430 C431 1.385 . S
C430 C432 1.478 . S
C431 H425 0.930 . S
C431 C427 1.400 . S
C431 C430 1.385 . S
C432 C430 1.478 . S
C432 C434 1.381 . S
C432 C438 1.383 . S
C433 C429 1.495 . S
C433 H439 0.959 . S
C433 H440 0.961 . S
C433 H441 0.960 . S
C434 C432 1.381 . S
C434 C435 1.394 . S
C434 H442 0.930 . S
C435 C434 1.394 . S
C435 C436 1.383 . S
C435 H443 0.929 . S
C436 C435 1.383 . S
C436 C437 1.377 . S
C437 H421 0.930 . S
C437 C436 1.377 . S
C437 C438 1.379 . S
C438 H422 0.931 . S
C438 C432 1.383 . S
C438 C437 1.379 . S
H439 C433 0.959 . S
H440 C433 0.961 . S
H441 C433 0.960 . S
H442 C434 0.930 . S
H443 C435 0.929 . S
H444 C452 0.929 . S
H445 C454 0.930 . S
H446 C456 0.930 . S
H447 C459 0.929 . S
H448 C462 0.930 . S
H449 C464 0.960 . S
H450 C464 0.960 . S
H451 C464 0.960 . S
C452 H444 0.929 . S
C452 C453 1.377 . S
C452 C454 1.384 . S
C453 C452 1.377 . S
C453 C459 1.390 . S
C454 H445 0.930 . S
C454 C452 1.384 . S
C454 C455 1.372 . S
C455 C454 1.372 . S
C455 C456 1.400 . S
C455 C460 1.490 . S
C456 H446 0.930 . S
C456 C455 1.400 . S
C456 C459 1.386 . S
H457 C473 0.930 . S
H458 C474 0.931 . S
C459 H447 0.929 . S
C459 C453 1.390 . S
C459 C456 1.386 . S
C460 C455 1.490 . S
C460 C462 1.395 . S
C460 C463 1.403 . S
H461 C467 0.930 . S
C462 H448 0.930 . S
C462 C460 1.395 . S
C462 C465 1.403 . S
C463 C460 1.403 . S
C463 C464 1.524 . S
C463 C467 1.400 . S
C464 H449 0.960 . S
C464 H450 0.960 . S
C464 H451 0.960 . S
C464 C463 1.524 . S
C465 C462 1.403 . S
C465 C466 1.392 . S
C465 C469 1.495 . S
C466 C465 1.392 . S
C466 C467 1.385 . S
C466 C468 1.478 . S
C467 H461 0.930 . S
C467 C463 1.400 . S
C467 C466 1.385 . S
C468 C466 1.478 . S
C468 C470 1.381 . S
C468 C474 1.383 . S
C469 C465 1.495 . S
C469 H475 0.959 . S
C469 H476 0.961 . S
C469 H477 0.960 . S
C470 C468 1.381 . S
C470 C471 1.394 . S
C470 H478 0.930 . S
C471 C470 1.394 . S
C471 C472 1.383 . S
C471 H479 0.929 . S
C472 C471 1.383 . S
C472 C473 1.377 . S
C473 H457 0.930 . S
C473 C472 1.377 . S
C473 C474 1.379 . S
C474 H458 0.931 . S
C474 C468 1.383 . S
C474 C473 1.379 . S
H475 C469 0.959 . S
H476 C469 0.961 . S
H477 C469 0.960 . S
H478 C470 0.930 . S
H479 C471 0.929 . S
H480 C488 0.929 . S
H481 C490 0.930 . S
H482 C492 0.930 . S
H483 C495 0.929 . S
H484 C498 0.930 . S
H485 C500 0.960 . S
H486 C500 0.960 . S
H487 C500 0.960 . S
C488 H480 0.929 . S
C488 C489 1.377 . S
C488 C490 1.384 . S
C489 C488 1.377 . S
C489 C495 1.390 . S
C490 H481 0.930 . S
C490 C488 1.384 . S
C490 C491 1.372 . S
C491 C490 1.372 . S
C491 C492 1.400 . S
C491 C496 1.490 . S
C492 H482 0.930 . S
C492 C491 1.400 . S
C492 C495 1.386 . S
H493 C509 0.930 . S
H494 C510 0.931 . S
C495 H483 0.929 . S
C495 C489 1.390 . S
C495 C492 1.386 . S
C496 C491 1.490 . S
C496 C498 1.395 . S
C496 C499 1.403 . S
H497 C503 0.930 . S
C498 H484 0.930 . S
C498 C496 1.395 . S
C498 C501 1.403 . S
C499 C496 1.403 . S
C499 C500 1.524 . S
C499 C503 1.400 . S
C500 H485 0.960 . S
C500 H486 0.960 . S
C500 H487 0.960 . S
C500 C499 1.524 . S
C501 C498 1.403 . S
C501 C502 1.392 . S
C501 C505 1.495 . S
C502 C501 1.392 . S
C502 C503 1.385 . S
C502 C504 1.478 . S
C503 H497 0.930 . S
C503 C499 1.400 . S
C503 C502 1.385 . S
C504 C502 1.478 . S
C504 C506 1.381 . S
C504 C510 1.383 . S
C505 C501 1.495 . S
C505 H511 0.959 . S
C505 H512 0.961 . S
C505 H513 0.960 . S
C506 C504 1.381 . S
C506 C507 1.394 . S
C506 H514 0.930 . S
C507 C506 1.394 . S
C507 C508 1.383 . S
C507 H515 0.929 . S
C508 C507 1.383 . S
C508 C509 1.377 . S
C509 H493 0.930 . S
C509 C508 1.377 . S
C509 C510 1.379 . S
C510 H494 0.931 . S
C510 C504 1.383 . S
C510 C509 1.379 . S
H511 C505 0.959 . S
H512 C505 0.961 . S
H513 C505 0.960 . S
H514 C506 0.930 . S
H515 C507 0.929 . S
H516 C524 0.929 . S
H517 C526 0.930 . S
H518 C528 0.930 . S
H519 C531 0.929 . S
H520 C534 0.930 . S
H521 C536 0.960 . S
H522 C536 0.960 . S
H523 C536 0.960 . S
C524 H516 0.929 . S
C524 C525 1.377 . S
C524 C526 1.384 . S
C525 C524 1.377 . S
C525 C531 1.390 . S
C526 H517 0.930 . S
C526 C524 1.384 . S
C526 C527 1.372 . S
C527 C526 1.372 . S
C527 C528 1.400 . S
C527 C532 1.490 . S
C528 H518 0.930 . S
C528 C527 1.400 . S
C528 C531 1.386 . S
H529 C545 0.930 . S
H530 C546 0.931 . S
C531 H519 0.929 . S
C531 C525 1.390 . S
C531 C528 1.386 . S
C532 C527 1.490 . S
C532 C534 1.395 . S
C532 C535 1.403 . S
H533 C539 0.930 . S
C534 H520 0.930 . S
C534 C532 1.395 . S
C534 C537 1.403 . S
C535 C532 1.403 . S
C535 C536 1.524 . S
C535 C539 1.400 . S
C536 H521 0.960 . S
C536 H522 0.960 . S
C536 H523 0.960 . S
C536 C535 1.524 . S
C537 C534 1.403 . S
C537 C538 1.392 . S
C537 C541 1.495 . S
C538 C537 1.392 . S
C538 C539 1.385 . S
C538 C540 1.478 . S
C539 H533 0.930 . S
C539 C535 1.400 . S
C539 C538 1.385 . S
C540 C538 1.478 . S
C540 C542 1.381 . S
C540 C546 1.383 . S
C541 C537 1.495 . S
C541 H547 0.959 . S
C541 H548 0.961 . S
C541 H549 0.960 . S
C542 C540 1.381 . S
C542 C543 1.394 . S
C542 H550 0.930 . S
C543 C542 1.394 . S
C543 C544 1.383 . S
C543 H551 0.929 . S
C544 C543 1.383 . S
C544 C545 1.377 . S
C545 H529 0.930 . S
C545 C544 1.377 . S
C545 C546 1.379 . S
C546 H530 0.931 . S
C546 C540 1.383 . S
C546 C545 1.379 . S
H547 C541 0.959 . S
H548 C541 0.961 . S
H549 C541 0.960 . S
H550 C542 0.930 . S
H551 C543 0.929 . S
H552 C560 0.929 . S
H553 C562 0.930 . S
H554 C564 0.930 1_655 S
H555 C567 0.929 . S
H556 C570 0.930 . S
H557 C572 0.960 . S
H558 C572 0.960 . S
H559 C572 0.960 . S
C560 H552 0.929 . S
C560 C561 1.377 . S
C560 C562 1.384 . S
C561 C560 1.377 . S
C561 C567 1.390 . S
C562 H553 0.930 . S
C562 C560 1.384 . S
C562 C563 1.372 . S
C563 C562 1.372 . S
C563 C564 1.400 . S
C563 C568 1.490 . S
C564 H554 0.930 1_455 S
C564 C563 1.400 . S
C564 C567 1.386 . S
H565 C581 0.930 . S
H566 C582 0.931 . S
C567 H555 0.929 . S
C567 C561 1.390 . S
C567 C564 1.386 . S
C568 C563 1.490 . S
C568 C570 1.395 1_455 S
C568 C571 1.403 . S
H569 C575 0.930 . S
C570 H556 0.930 . S
C570 C568 1.395 1_655 S
C570 C573 1.403 1_554 S
C571 C568 1.403 . S
C571 C572 1.524 . S
C571 C575 1.400 1_554 S
C572 H557 0.960 . S
C572 H558 0.960 . S
C572 H559 0.960 . S
C572 C571 1.524 . S
C573 C570 1.403 1_556 S
C573 C574 1.392 . S
C573 C577 1.495 . S
C574 C573 1.392 . S
C574 C575 1.385 1_655 S
C574 C576 1.478 . S
C575 H569 0.930 . S
C575 C571 1.400 1_556 S
C575 C574 1.385 1_455 S
C576 C574 1.478 . S
C576 C578 1.381 . S
C576 C582 1.383 . S
C577 C573 1.495 . S
C577 H583 0.959 . S
C577 H584 0.961 . S
C577 H585 0.960 . S
C578 C576 1.381 . S
C578 C579 1.394 . S
C578 H586 0.930 1_655 S
C579 C578 1.394 . S
C579 C580 1.383 . S
C579 H587 0.929 . S
C580 C579 1.383 . S
C580 C581 1.377 . S
C581 H565 0.930 . S
C581 C580 1.377 . S
C581 C582 1.379 . S
C582 H566 0.931 . S
C582 C576 1.383 . S
C582 C581 1.379 . S
H583 C577 0.959 . S
H584 C577 0.961 . S
H585 C577 0.960 . S
H586 C578 0.930 1_455 S
H587 C579 0.929 . S
H588 C596 0.929 . S
H589 C598 0.930 . S
H590 C600 0.930 1_545 S
H591 C603 0.929 . S
H592 C606 0.930 . S
H593 C608 0.960 . S
H594 C608 0.960 . S
H595 C608 0.960 . S
C596 H588 0.929 . S
C596 C597 1.377 . S
C596 C598 1.384 . S
C597 C596 1.377 . S
C597 C603 1.390 . S
C598 H589 0.930 . S
C598 C596 1.384 . S
C598 C599 1.372 . S
C599 C598 1.372 . S
C599 C600 1.400 . S
C599 C604 1.490 . S
C600 H590 0.930 1_565 S
C600 C599 1.400 . S
C600 C603 1.386 . S
H601 C617 0.930 . S
H602 C618 0.931 . S
C603 H591 0.929 . S
C603 C597 1.390 . S
C603 C600 1.386 . S
C604 C599 1.490 . S
C604 C606 1.395 . S
C604 C607 1.403 1_565 S
H605 C611 0.930 . S
C606 H592 0.930 . S
C606 C604 1.395 . S
C606 C609 1.403 . S
C607 C604 1.403 1_545 S
C607 C608 1.524 . S
C607 C611 1.400 . S
C608 H593 0.960 . S
C608 H594 0.960 . S
C608 H595 0.960 . S
C608 C607 1.524 . S
C609 C606 1.403 . S
C609 C610 1.364 1_565 S
C609 C613 1.495 . S
C610 C609 1.364 1_545 S
C610 C611 1.409 . S
C610 C612 1.484 . S
C611 H605 0.930 . S
C611 C607 1.400 . S
C611 C610 1.409 . S
C612 C610 1.484 . S
C612 C614 1.381 . S
C612 C618 1.383 . S
C613 C609 1.495 . S
C613 H619 0.959 . S
C613 H620 0.961 . S
C613 H621 0.960 . S
C614 C612 1.381 . S
C614 C615 1.394 . S
C614 H622 0.930 1_545 S
C615 C614 1.394 . S
C615 C616 1.383 . S
C615 H623 0.929 . S
C616 C615 1.383 . S
C616 C617 1.377 . S
C617 H601 0.930 . S
C617 C616 1.377 . S
C617 C618 1.379 . S
C618 H602 0.931 . S
C618 C612 1.383 . S
C618 C617 1.379 . S
H619 C613 0.959 . S
H620 C613 0.961 . S
H621 C613 0.960 . S
H622 C614 0.930 1_565 S
H623 C615 0.929 . S
H624 C632 0.929 . S
H625 C634 0.930 . S
H626 C636 0.930 1_455 S
H627 C639 0.929 . S
H628 C642 0.930 . S
H629 C644 0.960 . S
H630 C644 0.960 . S
H631 C644 0.960 . S
C632 H624 0.929 . S
C632 C633 1.377 . S
C632 C634 1.384 . S
C633 C632 1.377 . S
C633 C639 1.390 . S
C634 H625 0.930 . S
C634 C632 1.384 . S
C634 C635 1.372 . S
C635 C634 1.372 . S
C635 C636 1.400 . S
C635 C640 1.490 . S
C636 H626 0.930 1_655 S
C636 C635 1.400 . S
C636 C639 1.386 . S
H637 C653 0.930 . S
H638 C654 0.931 . S
C639 H627 0.929 . S
C639 C633 1.390 . S
C639 C636 1.386 . S
C640 C635 1.490 . S
C640 C642 1.395 . S
C640 C643 1.403 1_655 S
H641 C647 0.930 . S
C642 H628 0.930 . S
C642 C640 1.395 . S
C642 C645 1.403 . S
C643 C640 1.403 1_455 S
C643 C644 1.524 . S
C643 C647 1.400 . S
C644 H629 0.960 . S
C644 H630 0.960 . S
C644 H631 0.960 . S
C644 C643 1.524 . S
C645 C642 1.403 . S
C645 C646 1.361 1_655 S
C645 C649 1.495 . S
C646 C645 1.361 1_455 S
C646 C647 1.412 . S
C646 C648 1.485 . S
C647 H641 0.930 . S
C647 C643 1.400 . S
C647 C646 1.412 . S
C648 C646 1.485 . S
C648 C650 1.381 . S
C648 C654 1.383 . S
C649 C645 1.495 . S
C649 H655 0.959 . S
C649 H656 0.961 . S
C649 H657 0.960 . S
C650 C648 1.381 . S
C650 C651 1.394 . S
C650 H658 0.930 1_455 S
C651 C650 1.394 . S
C651 C652 1.383 . S
C651 H659 0.929 . S
C652 C651 1.383 . S
C652 C653 1.377 . S
C653 H637 0.930 . S
C653 C652 1.377 . S
C653 C654 1.379 . S
C654 H638 0.931 . S
C654 C648 1.383 . S
C654 C653 1.379 . S
H655 C649 0.959 . S
H656 C649 0.961 . S
H657 C649 0.960 . S
H658 C650 0.930 1_655 S
H659 C651 0.929 . S
H660 C668 0.929 . S
H661 C670 0.930 . S
H662 C672 0.930 . S
H663 C675 0.929 . S
H664 C678 0.930 . S
H665 C680 0.960 . S
H666 C680 0.960 . S
H667 C680 0.960 . S
C668 H660 0.929 . S
C668 C669 1.377 . S
C668 C670 1.384 . S
C669 C668 1.377 . S
C669 C675 1.390 . S
C670 H661 0.930 . S
C670 C668 1.384 . S
C670 C671 1.372 . S
C671 C670 1.372 . S
C671 C672 1.400 . S
C671 C676 1.490 . S
C672 H662 0.930 . S
C672 C671 1.400 . S
C672 C675 1.386 . S
H673 C689 0.930 . S
H674 C690 0.931 . S
C675 H663 0.929 . S
C675 C669 1.390 . S
C675 C672 1.386 . S
C676 C671 1.490 . S
C676 C678 1.395 . S
C676 C679 1.403 1_545 S
H677 C683 0.930 . S
C678 H664 0.930 . S
C678 C676 1.395 . S
C678 C681 1.403 . S
C679 C676 1.403 1_565 S
C679 C680 1.524 . S
C679 C683 1.400 . S
C680 H665 0.960 . S
C680 H666 0.960 . S
C680 H667 0.960 . S
C680 C679 1.524 . S
C681 C678 1.403 . S
C681 C682 1.392 1_545 S
C681 C685 1.495 . S
C682 C681 1.392 1_565 S
C682 C683 1.385 . S
C682 C684 1.478 . S
C683 H677 0.930 . S
C683 C679 1.400 . S
C683 C682 1.385 . S
C684 C682 1.478 . S
C684 C686 1.381 . S
C684 C690 1.383 . S
C685 C681 1.495 . S
C685 H691 0.959 . S
C685 H692 0.961 . S
C685 H693 0.960 . S
C686 C684 1.381 . S
C686 C687 1.394 . S
C686 H694 0.930 . S
C687 C686 1.394 . S
C687 C688 1.383 . S
C687 H695 0.929 . S
C688 C687 1.383 . S
C688 C689 1.377 . S
C689 H673 0.930 . S
C689 C688 1.377 . S
C689 C690 1.379 . S
C690 H674 0.931 . S
C690 C684 1.383 . S
C690 C689 1.379 . S
H691 C685 0.959 . S
H692 C685 0.961 . S
H693 C685 0.960 . S
H694 C686 0.930 . S
H695 C687 0.929 . S
H696 C704 0.929 . S
H697 C706 0.930 . S
H698 C708 0.930 . S
H699 C711 0.929 . S
H700 C714 0.930 . S
H701 C716 0.960 . S
H702 C716 0.960 . S
H703 C716 0.960 . S
C704 H696 0.929 . S
C704 C705 1.377 . S
C704 C706 1.384 . S
C705 C704 1.377 . S
C705 C711 1.390 . S
C706 H697 0.930 . S
C706 C704 1.384 . S
C706 C707 1.372 . S
C707 C706 1.372 . S
C707 C708 1.400 . S
C707 C712 1.490 . S
C708 H698 0.930 . S
C708 C707 1.400 . S
C708 C711 1.386 . S
H709 C725 0.930 . S
H710 C726 0.931 . S
C711 H699 0.929 . S
C711 C705 1.390 . S
C711 C708 1.386 . S
C712 C707 1.490 . S
C712 C714 1.395 . S
C712 C715 1.403 . S
H713 C719 0.930 . S
C714 H700 0.930 . S
C714 C712 1.395 . S
C714 C717 1.403 . S
C715 C712 1.403 . S
C715 C716 1.524 . S
C715 C719 1.400 . S
C716 H701 0.960 . S
C716 H702 0.960 . S
C716 H703 0.960 . S
C716 C715 1.524 . S
C717 C714 1.403 . S
C717 C718 1.392 . S
C717 C721 1.495 . S
C718 C717 1.392 . S
C718 C719 1.385 . S
C718 C720 1.478 . S
C719 H713 0.930 . S
C719 C715 1.400 . S
C719 C718 1.385 . S
C720 C718 1.478 . S
C720 C722 1.381 . S
C720 C726 1.383 . S
C721 C717 1.495 . S
C721 H727 0.959 . S
C721 H728 0.961 . S
C721 H729 0.960 . S
C722 C720 1.381 . S
C722 C723 1.392 . S
C722 H730 0.930 . S
C723 C722 1.392 . S
C723 C724 1.383 . S
C723 H731 0.931 1_554 S
C724 C723 1.383 . S
C724 C725 1.403 . S
C725 H709 0.930 . S
C725 C724 1.403 . S
C725 C726 1.379 . S
C726 H710 0.931 . S
C726 C720 1.383 . S
C726 C725 1.379 . S
H727 C721 0.959 . S
H728 C721 0.961 . S
H729 C721 0.960 . S
H730 C722 0.930 . S
H731 C723 0.931 1_556 S
H732 C740 0.929 . S
H733 C742 0.930 . S
H734 C744 0.930 . S
H735 C747 0.929 1_455 S
H736 C750 0.930 . S
H737 C752 0.960 . S
H738 C752 0.960 . S
H739 C752 0.960 . S
C740 H732 0.929 . S
C740 C741 1.377 . S
C740 C742 1.384 . S
C741 C740 1.377 . S
C741 C747 1.390 . S
C742 H733 0.930 . S
C742 C740 1.384 . S
C742 C743 1.372 . S
C743 C742 1.372 . S
C743 C744 1.400 . S
C743 C748 1.490 . S
C744 H734 0.930 . S
C744 C743 1.400 . S
C744 C747 1.386 . S
H745 C761 0.930 . S
H746 C762 0.931 . S
C747 H735 0.929 1_655 S
C747 C741 1.390 . S
C747 C744 1.386 . S
C748 C743 1.490 . S
C748 C750 1.395 . S
C748 C751 1.403 . S
H749 C755 0.930 . S
C750 H736 0.930 . S
C750 C748 1.395 . S
C750 C753 1.403 . S
C751 C748 1.403 . S
C751 C752 1.524 . S
C751 C755 1.400 . S
C752 H737 0.960 . S
C752 H738 0.960 . S
C752 H739 0.960 . S
C752 C751 1.524 . S
C753 C750 1.403 . S
C753 C754 1.392 . S
C753 C757 1.495 . S
C754 C753 1.392 . S
C754 C755 1.385 . S
C754 C756 1.478 . S
C755 H749 0.930 . S
C755 C751 1.400 . S
C755 C754 1.385 . S
C756 C754 1.478 . S
C756 C758 1.381 . S
C756 C762 1.383 . S
C757 C753 1.495 . S
C757 H763 0.959 . S
C757 H764 0.961 . S
C757 H765 0.960 . S
C758 C756 1.381 . S
C758 C759 1.394 . S
C758 H766 0.930 . S
C759 C758 1.394 . S
C759 C760 1.383 . S
C759 H767 0.929 . S
C760 C759 1.383 . S
C760 C761 1.377 . S
C761 H745 0.930 . S
C761 C760 1.377 . S
C761 C762 1.379 . S
C762 H746 0.931 . S
C762 C756 1.383 . S
C762 C761 1.379 . S
H763 C757 0.959 . S
H764 C757 0.961 . S
H765 C757 0.960 . S
H766 C758 0.930 . S
H767 C759 0.929 . S
H768 C776 0.929 1_545 S
H769 C778 0.930 . S
H770 C780 0.930 . S
H771 C783 0.929 . S
H772 C786 0.930 . S
H773 C788 0.960 . S
H774 C788 0.960 . S
H775 C788 0.960 . S
C776 H768 0.929 1_565 S
C776 C777 1.377 . S
C776 C778 1.384 . S
C777 C776 1.377 . S
C777 C783 1.390 . S
C778 H769 0.930 . S
C778 C776 1.384 . S
C778 C779 1.372 . S
C779 C778 1.372 . S
C779 C780 1.400 . S
C779 C784 1.490 . S
C780 H770 0.930 . S
C780 C779 1.400 . S
C780 C783 1.386 . S
H781 C797 0.930 . S
H782 C798 0.931 . S
C783 H771 0.929 . S
C783 C777 1.390 . S
C783 C780 1.386 . S
C784 C779 1.490 . S
C784 C786 1.395 . S
C784 C787 1.403 . S
H785 C791 0.930 . S
C786 H772 0.930 . S
C786 C784 1.395 . S
C786 C789 1.403 . S
C787 C784 1.403 . S
C787 C788 1.524 . S
C787 C791 1.400 . S
C788 H773 0.960 . S
C788 H774 0.960 . S
C788 H775 0.960 . S
C788 C787 1.524 . S
C789 C786 1.403 . S
C789 C790 1.392 . S
C789 C793 1.495 . S
C790 C789 1.392 . S
C790 C791 1.385 . S
C790 C792 1.478 . S
C791 H785 0.930 . S
C791 C787 1.400 . S
C791 C790 1.385 . S
C792 C790 1.478 . S
C792 C794 1.381 . S
C792 C798 1.383 . S
C793 C789 1.495 . S
C793 H799 0.959 . S
C793 H800 0.961 . S
C793 H801 0.960 . S
C794 C792 1.381 . S
C794 C795 1.394 . S
C794 H802 0.930 . S
C795 C794 1.394 . S
C795 C796 1.383 . S
C795 H803 0.929 . S
C796 C795 1.383 . S
C796 C797 1.377 . S
C797 H781 0.930 . S
C797 C796 1.377 . S
C797 C798 1.379 . S
C798 H782 0.931 . S
C798 C792 1.383 . S
C798 C797 1.379 . S
H799 C793 0.959 . S
H800 C793 0.961 . S
H801 C793 0.960 . S
H802 C794 0.930 . S
H803 C795 0.929 . S
H804 C812 0.929 . S
H805 C814 0.930 . S
H806 C816 0.930 . S
H807 C819 0.929 1_655 S
H808 C822 0.930 . S
H809 C824 0.960 . S
H810 C824 0.960 . S
H811 C824 0.960 . S
C812 H804 0.929 . S
C812 C813 1.377 . S
C812 C814 1.384 . S
C813 C812 1.377 . S
C813 C819 1.390 . S
C814 H805 0.930 . S
C814 C812 1.384 . S
C814 C815 1.372 . S
C815 C814 1.372 . S
C815 C816 1.400 . S
C815 C820 1.490 . S
C816 H806 0.930 . S
C816 C815 1.400 . S
C816 C819 1.386 . S
H817 C833 0.930 . S
H818 C834 0.931 . S
C819 H807 0.929 1_455 S
C819 C813 1.390 . S
C819 C816 1.386 . S
C820 C815 1.490 . S
C820 C822 1.395 . S
C820 C823 1.403 . S
H821 C827 0.930 . S
C822 H808 0.930 . S
C822 C820 1.395 . S
C822 C825 1.403 . S
C823 C820 1.403 . S
C823 C824 1.524 . S
C823 C827 1.400 . S
C824 H809 0.960 . S
C824 H810 0.960 . S
C824 H811 0.960 . S
C824 C823 1.524 . S
C825 C822 1.403 . S
C825 C826 1.392 . S
C825 C829 1.495 . S
C826 C825 1.392 . S
C826 C827 1.385 . S
C826 C828 1.478 . S
C827 H821 0.930 . S
C827 C823 1.400 . S
C827 C826 1.385 . S
C828 C826 1.478 . S
C828 C830 1.381 . S
C828 C834 1.383 . S
C829 C825 1.495 . S
C829 H835 0.959 . S
C829 H836 0.961 . S
C829 H837 0.960 . S
C830 C828 1.381 . S
C830 C831 1.394 . S
C830 H838 0.930 . S
C831 C830 1.394 . S
C831 C832 1.383 . S
C831 H839 0.929 . S
C832 C831 1.383 . S
C832 C833 1.377 . S
C833 H817 0.930 . S
C833 C832 1.377 . S
C833 C834 1.379 . S
C834 H818 0.931 . S
C834 C828 1.383 . S
C834 C833 1.379 . S
H835 C829 0.959 . S
H836 C829 0.961 . S
H837 C829 0.960 . S
H838 C830 0.930 . S
H839 C831 0.929 . S
H840 C848 0.929 . S
H841 C850 0.930 . S
H842 C852 0.930 . S
H843 C855 0.929 . S
H844 C858 0.930 . S
H845 C860 0.960 . S
H846 C860 0.960 . S
H847 C860 0.960 . S
C848 H840 0.929 . S
C848 C849 1.377 . S
C848 C850 1.384 . S
C849 C848 1.377 . S
C849 C855 1.390 . S
C850 H841 0.930 . S
C850 C848 1.384 . S
C850 C851 1.372 . S
C851 C850 1.372 . S
C851 C852 1.400 . S
C851 C856 1.490 . S
C852 H842 0.930 . S
C852 C851 1.400 . S
C852 C855 1.386 . S
H853 C869 0.930 . S
H854 C870 0.931 . S
C855 H843 0.929 . S
C855 C849 1.390 . S
C855 C852 1.386 . S
C856 C851 1.490 . S
C856 C858 1.395 . S
C856 C859 1.403 . S
H857 C863 0.930 . S
C858 H844 0.930 . S
C858 C856 1.395 . S
C858 C861 1.403 . S
C859 C856 1.403 . S
C859 C860 1.524 . S
C859 C863 1.400 . S
C860 H845 0.960 . S
C860 H846 0.960 . S
C860 H847 0.960 . S
C860 C859 1.524 . S
C861 C858 1.403 . S
C861 C862 1.392 . S
C861 C865 1.495 . S
C862 C861 1.392 . S
C862 C863 1.385 . S
C862 C864 1.478 . S
C863 H857 0.930 . S
C863 C859 1.400 . S
C863 C862 1.385 . S
C864 C862 1.478 . S
C864 C866 1.381 . S
C864 C870 1.383 . S
C865 C861 1.495 . S
C865 H871 0.959 . S
C865 H872 0.961 . S
C865 H873 0.960 . S
C866 C864 1.381 . S
C866 C867 1.394 1_565 S
C866 H874 0.930 . S
C867 C866 1.394 1_545 S
C867 C868 1.383 1_545 S
C867 H875 0.929 . S
C868 C867 1.383 1_565 S
C868 C869 1.377 . S
C869 H853 0.930 . S
C869 C868 1.377 . S
C869 C870 1.379 . S
C870 H854 0.931 . S
C870 C864 1.383 . S
C870 C869 1.379 . S
H871 C865 0.959 . S
H872 C865 0.961 . S
H873 C865 0.960 . S
H874 C866 0.930 . S
H875 C867 0.929 . S
H876 C884 0.929 . S
H877 C886 0.930 . S
H878 C888 0.930 . S
H879 C891 0.929 . S
H880 C894 0.930 . S
H881 C896 0.960 . S
H882 C896 0.960 . S
H883 C896 0.960 . S
C884 H876 0.929 . S
C884 C885 1.377 . S
C884 C886 1.384 . S
C885 C884 1.377 . S
C885 C891 1.390 . S
C886 H877 0.930 . S
C886 C884 1.384 . S
C886 C887 1.372 . S
C887 C886 1.372 . S
C887 C888 1.400 . S
C887 C892 1.490 . S
C888 H878 0.930 . S
C888 C887 1.400 . S
C888 C891 1.386 . S
H889 C905 0.930 . S
H890 C906 0.931 . S
C891 H879 0.929 . S
C891 C885 1.390 . S
C891 C888 1.386 . S
C892 C887 1.490 . S
C892 C894 1.395 . S
C892 C895 1.403 . S
H893 C899 0.930 . S
C894 H880 0.930 . S
C894 C892 1.395 . S
C894 C897 1.403 . S
C895 C892 1.403 . S
C895 C896 1.524 . S
C895 C899 1.400 . S
C896 H881 0.960 . S
C896 H882 0.960 . S
C896 H883 0.960 . S
C896 C895 1.524 . S
C897 C894 1.403 . S
C897 C898 1.392 . S
C897 C901 1.495 . S
C898 C897 1.392 . S
C898 C899 1.385 . S
C898 C900 1.478 . S
C899 H893 0.930 . S
C899 C895 1.400 . S
C899 C898 1.385 . S
C900 C898 1.478 . S
C900 C902 1.381 . S
C900 C906 1.383 . S
C901 C897 1.495 . S
C901 H907 0.959 . S
C901 H908 0.961 . S
C901 H909 0.960 . S
C902 C900 1.381 . S
C902 C903 1.394 . S
C902 H910 0.930 . S
C903 C902 1.394 . S
C903 C904 1.383 . S
C903 H911 0.929 1_455 S
C904 C903 1.383 . S
C904 C905 1.377 . S
C905 H889 0.930 . S
C905 C904 1.377 . S
C905 C906 1.379 . S
C906 H890 0.931 . S
C906 C900 1.383 . S
C906 C905 1.379 . S
H907 C901 0.959 . S
H908 C901 0.961 . S
H909 C901 0.960 . S
H910 C902 0.930 . S
H911 C903 0.929 1_655 S
H912 C920 0.929 . S
H913 C922 0.930 . S
H914 C924 0.930 . S
H915 C927 0.929 . S
H916 C930 0.930 . S
H917 C932 0.960 . S
H918 C932 0.960 . S
H919 C932 0.960 . S
C920 H912 0.929 . S
C920 C921 1.377 . S
C920 C922 1.384 . S
C921 C920 1.377 . S
C921 C927 1.390 . S
C922 H913 0.930 . S
C922 C920 1.384 . S
C922 C923 1.372 . S
C923 C922 1.372 . S
C923 C924 1.400 . S
C923 C928 1.490 . S
C924 H914 0.930 . S
C924 C923 1.400 . S
C924 C927 1.386 . S
H925 C941 0.930 . S
H926 C942 0.931 . S
C927 H915 0.929 . S
C927 C921 1.390 . S
C927 C924 1.386 . S
C928 C923 1.490 . S
C928 C930 1.395 . S
C928 C931 1.403 . S
H929 C935 0.930 . S
C930 H916 0.930 . S
C930 C928 1.395 . S
C930 C933 1.403 . S
C931 C928 1.403 . S
C931 C932 1.524 . S
C931 C935 1.400 . S
C932 H917 0.960 . S
C932 H918 0.960 . S
C932 H919 0.960 . S
C932 C931 1.524 . S
C933 C930 1.403 . S
C933 C934 1.392 . S
C933 C937 1.495 . S
C934 C933 1.392 . S
C934 C935 1.385 . S
C934 C936 1.478 . S
C935 H929 0.930 . S
C935 C931 1.400 . S
C935 C934 1.385 . S
C936 C934 1.478 . S
C936 C938 1.381 . S
C936 C942 1.383 . S
C937 C933 1.495 . S
C937 H943 0.959 . S
C937 H944 0.961 . S
C937 H945 0.960 . S
C938 C936 1.381 . S
C938 C939 1.394 1_545 S
C938 H946 0.930 . S
C939 C938 1.394 1_565 S
C939 C940 1.383 1_565 S
C939 H947 0.929 . S
C940 C939 1.383 1_545 S
C940 C941 1.377 1_556 S
C941 H925 0.930 . S
C941 C940 1.377 1_554 S
C941 C942 1.379 1_554 S
C942 H926 0.931 . S
C942 C936 1.383 . S
C942 C941 1.379 1_556 S
H943 C937 0.959 . S
H944 C937 0.961 . S
H945 C937 0.960 . S
H946 C938 0.930 . S
H947 C939 0.929 . S
H948 C956 0.929 . S
H949 C958 0.930 . S
H950 C960 0.930 . S
H951 C963 0.929 . S
H952 C966 0.930 . S
H953 C968 0.960 . S
H954 C968 0.960 . S
H955 C968 0.960 . S
C956 H948 0.929 . S
C956 C957 1.377 . S
C956 C958 1.384 . S
C957 C956 1.377 . S
C957 C963 1.390 . S
C958 H949 0.930 . S
C958 C956 1.384 . S
C958 C959 1.372 . S
C959 C958 1.372 . S
C959 C960 1.400 . S
C959 C964 1.490 . S
C960 H950 0.930 . S
C960 C959 1.400 . S
C960 C963 1.386 . S
H961 C977 0.930 . S
H962 C978 0.931 . S
C963 H951 0.929 . S
C963 C957 1.390 . S
C963 C960 1.386 . S
C964 C959 1.490 . S
C964 C966 1.395 . S
C964 C967 1.403 . S
H965 C971 0.930 . S
C966 H952 0.930 . S
C966 C964 1.395 . S
C966 C969 1.403 . S
C967 C964 1.403 . S
C967 C968 1.524 . S
C967 C971 1.400 . S
C968 H953 0.960 . S
C968 H954 0.960 . S
C968 H955 0.960 . S
C968 C967 1.524 . S
C969 C966 1.403 . S
C969 C970 1.392 . S
C969 C973 1.495 . S
C970 C969 1.392 . S
C970 C971 1.385 . S
C970 C972 1.478 . S
C971 H965 0.930 . S
C971 C967 1.400 . S
C971 C970 1.385 . S
C972 C970 1.478 . S
C972 C974 1.381 . S
C972 C978 1.383 . S
C973 C969 1.495 . S
C973 H979 0.959 . S
C973 H980 0.961 . S
C973 H981 0.960 . S
C974 C972 1.381 . S
C974 C975 1.394 . S
C974 H982 0.930 . S
C975 C974 1.394 . S
C975 C976 1.383 . S
C975 H983 0.929 . S
C976 C975 1.383 . S
C976 C977 1.377 . S
C977 H961 0.930 . S
C977 C976 1.377 . S
C977 C978 1.379 . S
C978 H962 0.931 . S
C978 C972 1.383 . S
C978 C977 1.379 . S
H979 C973 0.959 . S
H980 C973 0.961 . S
H981 C973 0.960 . S
H982 C974 0.930 . S
H983 C975 0.929 . S
C273 C153 1.196 . S
C292 C21 1.175 . S
C309 C54 1.194 . S
C328 C186 1.178 . S
C345 C87 1.196 . S
C364 C219 1.174 . S
C381 C120 1.192 . S
C400 C252 1.199 . S
C417 N167 0.608 . S
C436 N2 0.662 . S
C453 N35 0.616 . S
C472 N200 0.668 . S
C489 N233 0.599 . S
C508 N68 0.559 . S
C525 N101 0.616 . S
C544 N134 0.669 . S
C561 N13 0.929 . S
C580 N211 0.930 . S
C597 N244 0.927 . S
C616 N46 0.915 . S
C633 N79 0.927 . S
C652 N145 0.915 . S
C669 N178 0.926 . S
C688 N112 0.917 . S
C705 C18 2.005 . S
C724 C106 1.993 1_544 S
C741 C7 2.003 1_655 S
C760 C51 2.006 . S
C777 C40 2.007 1_565 S
C796 C84 2.002 . S
C813 C73 2.007 1_455 S
C832 C117 1.992 . S
C849 C150 2.007 . S
C868 C172 2.008 1_565 S
C885 C183 2.010 . S
C904 C205 1.994 1_455 S
C921 C216 2.008 . S
C940 C238 2.006 1_546 S
C957 C139 2.003 1_655 S
C976 C249 2.012 . S
