# Generated by pormake.
# Topology qtz-e, (6)-cn, num edge types: 1
# Building blocks:
#     Node 0, Type 0, BuildingBlock: KUMBUR_clean_sbu_0, # of connection points: 6
#     Node 1, Type 0, BuildingBlock: KUMBUR_clean_sbu_0, # of connection points: 6
#     Node 2, Type 0, BuildingBlock: KUMBUR_clean_sbu_0, # of connection points: 6
#     Node 3, Type 0, BuildingBlock: KUMBUR_clean_sbu_0, # of connection points: 6
#     Node 4, Type 0, BuildingBlock: KUMBUR_clean_sbu_0, # of connection points: 6
#     Node 5, Type 0, BuildingBlock: KUMBUR_clean_sbu_0, # of connection points: 6
#     Edge 6, Type (0, 0), BuildingBlock: CIFDUS_clean_linker_0, # of connection points: 2
#     Edge 7, Type (0, 0), BuildingBlock: CIFDUS_clean_linker_0, # of connection points: 2
#     Edge 8, Type (0, 0), BuildingBlock: CIFDUS_clean_linker_0, # of connection points: 2
#     Edge 9, Type (0, 0), BuildingBlock: CIFDUS_clean_linker_0, # of connection points: 2
#     Edge 10, Type (0, 0), BuildingBlock: CIFDUS_clean_linker_0, # of connection points: 2
#     Edge 11, Type (0, 0), BuildingBlock: CIFDUS_clean_linker_0, # of connection points: 2
#     Edge 12, Type (0, 0), BuildingBlock: CIFDUS_clean_linker_0, # of connection points: 2
#     Edge 13, Type (0, 0), BuildingBlock: CIFDUS_clean_linker_0, # of connection points: 2
#     Edge 14, Type (0, 0), BuildingBlock: CIFDUS_clean_linker_0, # of connection points: 2
#     Edge 15, Type (0, 0), BuildingBlock: CIFDUS_clean_linker_0, # of connection points: 2
#     Edge 16, Type (0, 0), BuildingBlock: CIFDUS_clean_linker_0, # of connection points: 2
#     Edge 17, Type (0, 0), BuildingBlock: CIFDUS_clean_linker_0, # of connection points: 2
#     Edge 18, Type (0, 0), BuildingBlock: CIFDUS_clean_linker_0, # of connection points: 2
#     Edge 19, Type (0, 0), BuildingBlock: CIFDUS_clean_linker_0, # of connection points: 2
#     Edge 20, Type (0, 0), BuildingBlock: CIFDUS_clean_linker_0, # of connection points: 2
#     Edge 21, Type (0, 0), BuildingBlock: CIFDUS_clean_linker_0, # of connection points: 2
#     Edge 22, Type (0, 0), BuildingBlock: CIFDUS_clean_linker_0, # of connection points: 2
#     Edge 23, Type (0, 0), BuildingBlock: CIFDUS_clean_linker_0, # of connection points: 2
# Relax obj value: 0.060
# Max RMSD: 0.148
# Mean RMSD: 0.148
data_MOF--net-qtz-e--node1-KUMBUR_clean_sbu_0--edge1-CIFDUS_clean_linker_0
_symmetry_space_group_name_H-M    P1
_symmetry_Int_Tables_number       1
_symmetry_cell_setting            triclinic
loop_
_symmetry_equiv_pos_as_xyz
'x, y, z'
_cell_length_a     26.046872
_cell_length_b     26.067285
_cell_length_c     42.131817
_cell_angle_alpha  89.517667
_cell_angle_beta   90.017185
_cell_angle_gamma 120.13036
loop_
_atom_site_label
_atom_site_type_symbol
_atom_site_fract_x
_atom_site_fract_y
_atom_site_fract_z
_atom_type_partial_charge
Tb0 Tb 0.27222 0.50655 0.06648 0.0
C1 C 0.09413 0.27937 1.01073 0.0
C2 C 0.11218 0.21398 0.04401 0.0
C3 C 0.01313 0.18042 0.02356 0.0
C4 C 0.13254 0.26906 0.02855 0.0
C5 C 0.03422 0.23477 1.00743 0.0
C6 C 0.05203 0.17008 0.04188 0.0
C7 C 0.02166 0.29934 0.97075 0.0
N8 N 0.11604 0.3325 0.99573 0.0
C9 C 0.08143 0.3421 0.97475 0.0
C10 C 0.99771 0.24569 0.98748 0.0
Tb11 Tb 0.21397 0.39998 1.00474 0.0
N12 N 0.19028 0.31249 0.02997 0.0
C13 C 0.23094 0.30219 0.04486 0.0
C14 C 0.15311 0.20434 0.06066 0.0
C15 C 0.21288 0.24844 0.06077 0.0
H16 H 0.09983 0.38358 0.9617 0.0
H17 H 0.24512 0.24103 0.07305 0.0
H18 H 0.03543 0.12762 0.05378 0.0
H19 H 0.99416 0.30776 0.95474 0.0
H20 H 0.27719 0.33552 0.04506 0.0
H21 H 0.2972 0.7069 1.01083 0.0
H22 H 0.13926 0.16267 0.07292 0.0
H23 H 0.3685 0.50779 0.1202 0.0
H24 H 0.24299 0.61143 0.03851 0.0
H25 H 0.4771 0.56144 0.12785 0.0
H26 H 0.96711 0.14575 0.02157 0.0
H27 H 0.4057 0.75428 1.00292 0.0
H28 H 0.50048 0.75541 1.01587 0.0
H29 H 0.95143 0.21255 0.98429 0.0
H30 H 0.55058 0.71461 0.04817 0.0
N31 N 0.31811 0.59992 0.04367 0.0
C32 C 0.28955 0.62958 0.03444 0.0
C33 C 0.38176 0.71141 1.01467 0.0
C34 C 0.4118 0.68442 0.02766 0.0
C35 C 0.32058 0.68484 0.01913 0.0
C36 C 0.37836 0.62855 0.04274 0.0
H37 H 0.54213 0.64337 0.09127 0.0
N38 N 0.37207 0.55696 0.07875 0.0
C39 C 0.45795 0.57401 0.10863 0.0
C40 C 0.4065 0.60584 0.06085 0.0
C41 C 0.39642 0.54394 0.10433 0.0
C42 C 0.49451 0.6199 0.08779 0.0
C43 C 0.46875 0.63804 0.06438 0.0
O44 O 0.20778 0.4922 0.10144 0.0
O45 O 0.20603 0.41654 0.05445 0.0
O46 O 0.14382 0.41998 0.0185 0.0
O47 O 0.19618 0.50982 0.04557 0.0
O48 O 0.256 0.42728 0.09304 0.0
O49 O 0.29602 0.56453 0.10536 0.0
O50 O 0.20947 0.39739 0.95482 0.0
O51 O 0.27479 0.49243 1.01544 0.0
O52 O 0.32752 0.4666 0.06371 0.0
O53 O 0.30995 0.43087 1.01257 0.0
O54 O 0.21844 0.47199 0.97677 0.0
O55 O 0.25299 0.3577 0.97997 0.0
C56 C 0.20862 0.38902 0.07876 0.0
C57 C 0.24815 0.51757 0.15324 0.0
C58 C 0.24373 0.53598 0.20948 0.0
C59 C 0.2391 0.5487 0.17741 0.0
C60 C 0.25443 0.48986 0.21735 0.0
C61 C 0.26286 0.47423 0.16177 0.0
C62 C 0.26422 0.45931 0.19346 0.0
C63 C 0.14794 0.46874 0.03096 0.0
C64 C 0.2456 0.53362 0.11971 0.0
C65 C 0.50261 0.68999 0.04637 0.0
C66 C 0.47408 0.71326 0.02801 0.0
C67 C 0.2608 0.51472 0.99227 0.0
C68 C 0.21507 0.31962 0.92844 0.0
C69 C 0.25541 0.31298 0.90876 0.0
C70 C 0.23459 0.27111 0.88394 0.0
C71 C 0.17318 0.23562 0.87936 0.0
C72 C 0.15395 0.28249 0.92362 0.0
C73 C 0.13328 0.24094 0.89926 0.0
C74 C 0.34383 0.45019 0.03814 0.0
C75 C 0.23747 0.36784 0.95224 0.0
H76 H 0.23015 0.58397 0.17131 0.0
H77 H 0.25833 0.47961 0.2419 0.0
H78 H 0.27507 0.45253 0.14456 0.0
H79 H 0.27492 0.42531 0.19952 0.0
H80 H 0.30277 0.34116 0.91226 0.0
H81 H 0.15606 0.20299 0.86065 0.0
H82 H 0.122 0.28595 0.93832 0.0
H83 H 0.086 0.21287 0.89567 0.0
Tb84 Tb 0.73407 0.25941 0.38061 0.0
C85 C 0.86395 0.12729 0.36942 0.0
C86 C 0.93582 0.1767 0.41108 0.0
C87 C 0.90662 0.07543 0.39744 0.0
C88 C 0.89817 0.17764 0.38713 0.0
C89 C 0.86778 0.07562 0.37445 0.0
C90 C 0.94048 0.12582 0.41575 0.0
C91 C 0.79399 0.02733 0.33386 0.0
N92 N 0.82543 0.12807 0.34804 0.0
C93 C 0.79161 0.0793 0.32975 0.0
C94 C 0.83212 0.02536 0.35638 0.0
Tb95 Tb 0.82901 0.2169 0.34065 0.0
N96 N 0.89182 0.22592 0.38234 0.0
C97 C 0.91853 0.27245 0.40315 0.0
C98 C 0.96621 0.22608 0.43046 0.0
C99 C 0.95668 0.27366 0.42682 0.0
H100 H 0.76276 0.08011 0.31158 0.0
H101 H 0.9777 0.31094 0.44276 0.0
H102 H 0.96938 0.12462 0.43389 0.0
H103 H 0.76671 0.98894 0.31944 0.0
H104 H 0.90925 0.30816 0.40335 0.0
H105 H 0.61306 0.31986 0.29875 0.0
H106 H 0.99527 0.22693 0.44912 0.0
H107 H 0.82569 0.33506 0.44122 0.0
H108 H 0.64751 0.25545 0.32164 0.0
H109 H 0.85811 0.42861 0.46856 0.0
H110 H 0.91017 0.03624 0.40155 0.0
H111 H 0.64705 0.41907 0.32123 0.0
H112 H 0.7049 0.49406 0.36308 0.0
H113 H 0.83385 0.98496 0.35955 0.0
H114 H 0.76952 0.52253 0.40997 0.0
N115 N 0.70409 0.31863 0.35567 0.0
C116 C 0.66433 0.29927 0.3312 0.0
C117 C 0.66307 0.39124 0.33115 0.0
C118 C 0.70124 0.40975 0.35722 0.0
C119 C 0.64389 0.33538 0.31838 0.0
C120 C 0.72068 0.37173 0.36927 0.0
H121 H 0.82651 0.49831 0.44948 0.0
N122 N 0.77401 0.3493 0.40644 0.0
C123 C 0.82921 0.41741 0.4482 0.0
C124 C 0.75583 0.38715 0.39598 0.0
C125 C 0.80995 0.36368 0.4326 0.0
C126 C 0.81128 0.45664 0.43737 0.0
C127 C 0.77431 0.44189 0.41092 0.0
O128 O 0.68729 0.22406 0.4233 0.0
O129 O 0.77223 0.20137 0.38152 0.0
O130 O 0.73386 0.14069 0.34033 0.0
O131 O 0.68157 0.19061 0.34637 0.0
O132 O 0.76954 0.23885 0.42276 0.0
O133 O 0.64116 0.22275 0.38103 0.0
O134 O 0.81945 0.18843 0.29346 0.0
O135 O 0.76671 0.24713 0.33665 0.0
O136 O 0.81704 0.34086 0.36975 0.0
O137 O 0.88514 0.3129 0.35194 0.0
O138 O 0.83345 0.28169 0.30528 0.0
O139 O 0.90699 0.23486 0.31465 0.0
C140 C 0.78344 0.20243 0.41087 0.0
C141 C 0.61556 0.252 0.42859 0.0
C142 C 0.61205 0.29559 0.47895 0.0
C143 C 0.61734 0.25255 0.46171 0.0
C144 C 0.60296 0.33736 0.46214 0.0
C145 C 0.60196 0.29108 0.41249 0.0
C146 C 0.59645 0.33399 0.42922 0.0
C147 C 0.6827 0.14149 0.34042 0.0
C148 C 0.63846 0.21832 0.41171 0.0
C149 C 0.75583 0.48032 0.3988 0.0
C150 C 0.71929 0.46425 0.37202 0.0
C151 C 0.78557 0.28112 0.31289 0.0
C152 C 0.89807 0.19008 0.26215 0.0
C153 C 0.94815 0.22953 0.24322 0.0
C154 C 0.96241 0.20968 0.21494 0.0
C155 C 0.92689 0.14994 0.20652 0.0
C156 C 0.86419 0.13067 0.25279 0.0
C157 C 0.87876 0.11086 0.22541 0.0
C158 C 0.87085 0.35343 0.3608 0.0
C159 C 0.87655 0.2125 0.28868 0.0
H160 H 0.62416 0.21962 0.47377 0.0
H161 H 0.60044 0.37248 0.47423 0.0
H162 H 0.59808 0.29034 0.38695 0.0
H163 H 0.58838 0.36554 0.41656 0.0
H164 H 0.97442 0.27575 0.24975 0.0
H165 H 0.9368 0.13323 0.18531 0.0
H166 H 0.82528 0.0996 0.26609 0.0
H167 H 0.8519 0.06495 0.2185 0.0
Tb168 Tb 0.50995 0.74115 0.73136 0.0
C169 C 0.73961 0.79278 0.67363 0.0
C170 C 0.80941 0.85239 0.71424 0.0
C171 C 0.82954 0.78798 0.68159 0.0
C172 C 0.75537 0.83263 0.69809 0.0
C173 C 0.77725 0.77119 0.66444 0.0
C174 C 0.84559 0.82852 0.70649 0.0
C175 C 0.71231 0.72379 0.61996 0.0
N176 N 0.68897 0.77811 0.65757 0.0
C177 C 0.67661 0.74668 0.62989 0.0
C178 C 0.76229 0.73522 0.63762 0.0
Tb179 Tb 0.63257 0.81623 0.67703 0.0
N180 N 0.71972 0.85528 0.70448 0.0
C181 C 0.73795 0.90163 0.7249 0.0
C182 C 0.8265 0.89721 0.73674 0.0
C183 C 0.79121 0.9228 0.74158 0.0
H184 H 0.6384 0.73801 0.61589 0.0
H185 H 0.80472 0.95852 0.75835 0.0
H186 H 0.88696 0.84259 0.71886 0.0
H187 H 0.7014 0.69758 0.59862 0.0
H188 H 0.71096 0.92156 0.72905 0.0
H189 H 0.42522 0.50961 0.76274 0.0
H190 H 0.86768 0.91365 0.74969 0.0
H191 H 0.41809 0.79783 0.72414 0.0
H192 H 0.49358 0.6175 0.76639 0.0
H193 H 0.32601 0.77127 0.69552 0.0
H194 H 0.85877 0.77136 0.67514 0.0
H195 H 0.33685 0.47068 0.72821 0.0
H196 H 0.27111 0.4919 0.69312 0.0
H197 H 0.79007 0.71775 0.62976 0.0
H198 H 0.24512 0.56498 0.6731 0.0
N199 N 0.44597 0.6398 0.733 0.0
C200 C 0.45512 0.6012 0.75128 0.0
C201 C 0.36682 0.51811 0.72963 0.0
C202 C 0.35473 0.55794 0.71346 0.0
C203 C 0.4165 0.53993 0.74926 0.0
C204 C 0.39508 0.61922 0.71627 0.0
H205 H 0.26509 0.67007 0.67417 0.0
N206 N 0.41703 0.71763 0.71312 0.0
C207 C 0.34162 0.7399 0.69719 0.0
C208 C 0.38045 0.66003 0.70541 0.0
C209 C 0.39532 0.75575 0.71235 0.0
C210 C 0.30727 0.68272 0.68529 0.0
C211 C 0.32501 0.64098 0.6909 0.0
O212 O 0.53267 0.80198 0.76899 0.0
O213 O 0.60653 0.79669 0.72695 0.0
O214 O 0.61521 0.72374 0.68254 0.0
O215 O 0.52052 0.67368 0.70575 0.0
O216 O 0.57226 0.71974 0.7533 0.0
O217 O 0.46423 0.71196 0.77487 0.0
O218 O 0.61942 0.84918 0.63324 0.0
O219 O 0.53785 0.77511 0.68458 0.0
O220 O 0.51494 0.82262 0.71237 0.0
O221 O 0.61549 0.88027 0.70272 0.0
O222 O 0.56625 0.75763 0.64281 0.0
O223 O 0.69836 0.90018 0.65908 0.0
C224 C 0.62068 0.76613 0.74484 0.0
C225 C 0.45906 0.78041 0.80871 0.0
C226 C 0.40072 0.76193 0.85738 0.0
C227 C 0.43365 0.7473 0.83665 0.0
C228 C 0.39422 0.81107 0.84981 0.0
C229 C 0.45188 0.82905 0.80151 0.0
C230 C 0.4197 0.8443 0.8221 0.0
C231 C 0.56553 0.67422 0.69077 0.0
C232 C 0.49349 0.76306 0.78825 0.0
C233 C 0.28736 0.58038 0.68479 0.0
C234 C 0.30211 0.53877 0.69623 0.0
C235 C 0.52009 0.74602 0.65939 0.0
C236 C 0.70529 0.91418 0.60268 0.0
C237 C 0.70509 0.95626 0.58089 0.0
C238 C 0.73732 0.9702 0.55167 0.0
C239 C 0.76889 0.94094 0.54484 0.0
C240 C 0.73968 0.88833 0.59524 0.0
C241 C 0.77037 0.90092 0.56649 0.0
C242 C 0.56309 0.87536 0.70841 0.0
C243 C 0.67045 0.89753 0.6331 0.0
H244 H 0.4385 0.70912 0.84182 0.0
H245 H 0.36947 0.82385 0.86531 0.0
H246 H 0.47107 0.85517 0.78012 0.0
H247 H 0.41432 0.88194 0.81653 0.0
H248 H 0.68012 0.97797 0.58663 0.0
H249 H 0.79457 0.95077 0.52313 0.0
H250 H 0.74359 0.85885 0.61184 0.0
H251 H 0.79635 0.88014 0.56115 0.0
Tb252 Tb 0.75881 0.49567 0.04738 0.0
C253 C 0.94012 0.75076 0.037 0.0
C254 C 0.90384 0.7887 0.0781 0.0
C255 C 1.00951 0.83822 0.06639 0.0
C256 C 0.89378 0.74638 0.05468 0.0
C257 C 0.99845 0.79767 0.04192 0.0
C258 C 0.9622 0.83375 0.08447 0.0
C259 C 0.02881 0.76484 0.99584 0.0
N260 N 0.92725 0.71124 1.01344 0.0
C261 C 0.97002 0.71939 0.99185 0.0
C262 C 0.04331 0.80361 0.02133 0.0
Tb263 Tb 0.83036 0.6371 1.00921 0.0
N264 N 0.83833 0.70212 0.04778 0.0
C265 C 0.7902 0.7001 0.062 0.0
C266 C 0.85483 0.7854 0.09366 0.0
C267 C 0.79768 0.74145 0.08518 0.0
H268 H 0.95898 0.68945 0.9721 0.0
H269 H 0.75935 0.73911 0.09663 0.0
H270 H 0.971 0.86626 0.10266 0.0
H271 H 0.06281 0.76998 0.97924 0.0
H272 H 0.7459 0.66668 0.0557 0.0
H273 H 0.77943 0.35377 0.96038 0.0
H274 H 0.86054 0.81716 0.11173 0.0
H275 H 0.63649 0.45335 0.092 0.0
H276 H 0.81362 0.42532 1.00343 0.0
H277 H 0.52843 0.39019 0.08604 0.0
H278 H 0.05412 0.87421 0.07084 0.0
H279 H 0.67633 0.3091 0.94112 0.0
H280 H 0.57407 0.29353 0.94876 0.0
H281 H 0.08876 0.83904 0.02427 0.0
H282 H 0.50431 0.30472 0.98326 0.0
N283 N 0.73181 0.42488 1.00851 0.0
C284 C 0.76874 0.40727 0.99561 0.0
C285 C 0.69122 0.34106 0.96015 0.0
C286 C 0.65199 0.35471 0.97538 0.0
C287 C 0.7493 0.36594 0.97107 0.0
C288 C 0.67366 0.39663 1.0001 0.0
H289 H 0.48653 0.33834 0.03559 0.0
N290 N 0.65658 0.43862 0.04494 0.0
C291 C 0.55763 0.39487 0.0666 0.0
C292 C 0.63456 0.40392 0.01899 0.0
C293 C 0.61911 0.43045 0.06987 0.0
C294 C 0.5342 0.36582 0.03807 0.0
C295 C 0.57275 0.36812 1.01431 0.0
O296 O 0.74173 0.47597 0.09578 0.0
O297 O 0.80276 0.59171 0.05482 0.0
O298 O 0.90091 0.61436 0.02006 0.0
O299 O 0.84613 0.51235 0.03179 0.0
O300 O 0.83056 0.54313 0.08111 0.0
O301 O 0.7568 0.41883 0.06469 0.0
O302 O 0.84667 0.66601 0.96134 0.0
O303 O 0.77517 0.5429 1.00264 0.0
O304 O 0.70207 0.53508 0.05154 0.0
O305 O 0.73261 0.59741 1.00791 0.0
O306 O 0.84782 0.58939 0.97303 0.0
O307 O 0.79297 0.6868 0.99108 0.0
C308 C 0.83855 0.59531 0.07651 0.0
C309 C 0.69253 0.37521 0.10902 0.0
C310 C 0.64726 0.32852 0.15943 0.0
C311 C 0.69322 0.37469 0.14203 0.0
C312 C 0.59916 0.28275 0.14312 0.0
C313 C 0.64517 0.32877 0.09276 0.0
C314 C 0.59818 0.28314 0.10988 0.0
C315 C 0.89694 0.56179 0.02551 0.0
C316 C 0.7418 0.42625 0.09309 0.0
C317 C 0.55154 0.33136 0.98767 0.0
C318 C 0.59124 0.32481 0.96811 0.0
C319 C 0.80158 0.53839 0.97847 0.0
C320 C 0.83081 0.74375 0.94333 0.0
C321 C 0.80393 0.73795 0.91348 0.0
C322 C 0.8175 0.78822 0.89452 0.0
C323 C 0.85883 0.84456 0.90616 0.0
C324 C 0.87204 0.80026 0.95428 0.0
C325 C 0.8859 0.85037 0.9357 0.0
C326 C 0.69134 0.56356 0.02885 0.0
C327 C 0.81339 0.68984 0.96256 0.0
H328 H 0.73145 0.40963 0.15412 0.0
H329 H 0.56324 0.24624 0.15599 0.0
H330 H 0.64418 0.32802 0.06709 0.0
H331 H 0.56137 0.24759 0.09738 0.0
H332 H 0.77146 0.69411 0.90532 0.0
H333 H 0.87088 0.88417 0.89225 0.0
H334 H 0.89314 0.80557 0.97714 0.0
H335 H 0.91779 0.894 0.94425 0.0
Tb336 Tb 0.2756 0.77724 0.39305 0.0
C337 C 0.17898 0.93624 0.35533 0.0
C338 C 0.10567 0.90851 0.39693 0.0
C339 C 0.1517 1.00753 0.37374 0.0
C340 C 0.13992 0.8947 0.37658 0.0
C341 C 0.18462 0.99284 0.35311 0.0
C342 C 0.11236 0.96544 0.3957 0.0
C343 C 0.25172 0.01446 0.30897 0.0
N344 N 0.2102 0.9204 0.33612 0.0
C345 C 0.24445 0.95772 0.31216 0.0
C346 C 0.22221 0.03242 0.3298 0.0
Tb347 Tb 0.19626 0.82685 0.34286 0.0
N348 N 0.13506 0.84045 0.377 0.0
C349 C 0.09418 0.79673 0.39653 0.0
C350 C 0.0654 0.86456 0.41767 0.0
C351 C 0.05935 0.80829 0.41728 0.0
H352 H 0.2673 0.94407 0.29584 0.0
H353 H 0.02802 0.77377 0.43307 0.0
H354 H 0.08672 0.97703 0.41127 0.0
H355 H 0.27997 0.04421 0.29041 0.0
H356 H 0.08922 0.75319 0.39721 0.0
H357 H 0.42505 0.74881 0.31557 0.0
H358 H 0.03838 0.87339 0.43377 0.0
H359 H 0.18488 0.69104 0.45096 0.0
H360 H 0.37988 0.80263 0.33905 0.0
H361 H 0.15358 0.59301 0.4744 0.0
H362 H 0.15572 0.05094 0.37261 0.0
H363 H 0.39292 0.64623 0.33305 0.0
H364 H 0.33075 0.5609 0.36988 0.0
H365 H 0.22776 0.07632 0.32727 0.0
H366 H 0.25814 0.51915 0.41362 0.0
N367 N 0.31991 0.73075 0.36876 0.0
C368 C 0.3648 0.75791 0.34694 0.0
C369 C 0.3725 0.66961 0.34338 0.0
C370 C 0.32936 0.64329 0.36718 0.0
C371 C 0.39079 0.72748 0.3335 0.0
C372 C 0.30397 0.67557 0.37971 0.0
H373 H 0.19222 0.53096 0.45285 0.0
N374 N 0.24045 0.68502 0.41572 0.0
C375 C 0.1844 0.60907 0.45462 0.0
C376 C 0.2637 0.65231 0.40442 0.0
C377 C 0.20243 0.66486 0.4412 0.0
C378 C 0.20636 0.57419 0.44242 0.0
C379 C 0.24678 0.59578 0.41714 0.0
O380 O 0.30145 0.79794 0.44058 0.0
O381 O 0.23844 0.83515 0.38844 0.0
O382 O 0.28985 0.90244 0.34638 0.0
O383 O 0.33987 0.85575 0.36695 0.0
O384 O 0.22289 0.78901 0.42958 0.0
O385 O 0.36665 0.82037 0.4034 0.0
O386 O 0.18314 0.83195 0.2937 0.0
O387 O 0.24092 0.77729 0.34657 0.0
O388 O 0.19644 0.69696 0.37986 0.0
O389 O 0.13687 0.7307 0.35699 0.0
O390 O 0.25405 0.82598 0.30576 0.0
O391 O 0.11075 0.77256 0.32376 0.0
C392 C 0.21703 0.82993 0.41599 0.0
C393 C 0.38158 0.78417 0.45225 0.0
C394 C 0.39397 0.74733 0.50338 0.0
C395 C 0.37404 0.77935 0.48531 0.0
C396 C 0.42116 0.7195 0.48777 0.0
C397 C 0.40955 0.75671 0.43718 0.0
C398 C 0.42873 0.72418 0.4549 0.0
C399 C 0.3396 0.90155 0.3534 0.0
C400 C 0.3565 0.81461 0.4339 0.0
C401 C 0.27077 0.56278 0.40427 0.0
C402 C 0.31196 0.58648 0.37931 0.0
C403 C 0.26589 0.78903 0.31967 0.0
C404 C 0.08618 0.80362 0.2754 0.0
C405 C 0.0629 0.77291 0.24656 0.0
C406 C 0.02358 0.78312 0.22772 0.0
C407 C 1.00876 0.82511 0.23846 0.0
C408 C 0.07016 0.84485 0.28527 0.0
C409 C 0.03179 0.85547 0.26687 0.0
C410 C 0.14541 0.68738 0.36833 0.0
C411 C 0.12705 0.79218 0.29481 0.0
H412 H 0.35222 0.80027 0.49692 0.0
H413 H 0.43839 0.69566 0.50101 0.0
H414 H 0.41625 0.75982 0.41174 0.0
H415 H 0.4501 0.70302 0.44316 0.0
H416 H 0.07488 0.7406 0.2391 0.0
H417 H 0.97996 0.83537 0.22463 0.0
H418 H 0.08735 0.86884 0.30718 0.0
H419 H 0.01993 0.88767 0.27463 0.0
Tb420 Tb 0.53349 0.26946 0.71963 0.0
C421 C 0.2683 0.16412 0.70612 0.0
C422 C 0.23504 0.0918 0.74889 0.0
C423 C 0.1731 0.13191 0.732 0.0
C424 C 0.27753 0.12622 0.72532 0.0
C425 C 0.21593 0.16734 0.70929 0.0
C426 C 0.18268 0.09431 0.7518 0.0
C427 C 0.25182 0.24092 0.66746 0.0
N428 N 0.31137 0.1994 0.68512 0.0
C429 C 0.30286 0.23636 0.66524 0.0
C430 C 0.20821 0.20643 0.68969 0.0
Tb431 Tb 0.39132 0.1853 0.68117 0.0
N432 N 0.32944 0.12584 0.72232 0.0
C433 C 0.34229 0.09443 0.74424 0.0
C434 C 0.24705 0.05723 0.76964 0.0
C435 C 0.30125 0.05928 0.76756 0.0
H436 H 0.33541 0.26274 0.64733 0.0
H437 H 0.31216 0.03474 0.78447 0.0
H438 H 0.14972 0.06804 0.76967 0.0
H439 H 0.24603 0.2708 0.65185 0.0
H440 H 0.38496 0.09767 0.74565 0.0
H441 H 0.69647 0.38079 0.6268 0.0
H442 H 0.21571 0.0305 0.78806 0.0
H443 H 0.53143 0.18891 0.78184 0.0
H444 H 0.60585 0.35381 0.65729 0.0
H445 H 0.5944 0.15211 0.80422 0.0
H446 H 0.13273 0.13384 0.73473 0.0
H447 H 0.76097 0.3405 0.64247 0.0
H448 H 0.78313 0.28046 0.68134 0.0
H449 H 0.16867 0.21011 0.69142 0.0
H450 H 0.7563 0.21968 0.73018 0.0
N451 N 0.61542 0.29457 0.68863 0.0
C452 C 0.63233 0.33431 0.66397 0.0
C453 C 0.72054 0.32765 0.65568 0.0
C454 C 0.7053 0.29032 0.68229 0.0
C455 C 0.68428 0.35044 0.64677 0.0
C456 C 0.6521 0.27491 0.69858 0.0
H457 H 0.68627 0.17207 0.77632 0.0
N458 N 0.58604 0.22834 0.74097 0.0
C459 C 0.60693 0.17702 0.78213 0.0
C460 C 0.6375 0.2415 0.72606 0.0
C461 C 0.57129 0.19804 0.76932 0.0
C462 C 0.65882 0.18846 0.76636 0.0
C463 C 0.67495 0.22144 0.73806 0.0
O464 O 0.56084 0.3124 0.76377 0.0
O465 O 0.43907 0.23718 0.72161 0.0
O466 O 0.41728 0.28193 0.68158 0.0
O467 O 0.5194 0.33064 0.69005 0.0
O468 O 0.47866 0.23777 0.76289 0.0
O469 O 0.58864 0.3618 0.71998 0.0
O470 O 0.3783 0.19839 0.63327 0.0
O471 O 0.48577 0.24255 0.67597 0.0
O472 O 0.51892 0.17966 0.7115 0.0
O473 O 0.41952 0.12131 0.69525 0.0
O474 O 0.4483 0.17003 0.64897 0.0
O475 O 0.32876 0.11047 0.65449 0.0
C476 C 0.42901 0.22662 0.75085 0.0
C477 C 0.65995 0.39174 0.76059 0.0
C478 C 0.73229 0.4222 0.80346 0.0
C479 C 0.67307 0.39384 0.79299 0.0
C480 C 0.77834 0.44697 0.78072 0.0
C481 C 0.70676 0.41703 0.73838 0.0
C482 C 0.76547 0.44387 0.74846 0.0
C483 C 0.47029 0.33167 0.68325 0.0
C484 C 0.59748 0.36297 0.75032 0.0
C485 C 0.72711 0.23501 0.72148 0.0
C486 C 0.74227 0.26942 0.69362 0.0
C487 C 0.49725 0.21835 0.65362 0.0
C488 C 0.30107 0.12412 0.60059 0.0
C489 C 0.2924 0.07614 0.58113 0.0
C490 C 0.26091 0.06433 0.55205 0.0
C491 C 0.23712 0.10028 0.54335 0.0
C492 C 0.27652 0.15883 0.59093 0.0
C493 C 0.24448 0.14664 0.56274 0.0
C494 C 0.47158 0.12786 0.70448 0.0
C495 C 0.34192 0.14211 0.62836 0.0
H496 H 0.63691 0.37346 0.80999 0.0
H497 H 0.82447 0.4704 0.78778 0.0
H498 H 0.69833 0.41645 0.71321 0.0
H499 H 0.8012 0.46335 0.73121 0.0
H500 H 0.31205 0.04961 0.58795 0.0
H501 H 0.21218 0.09213 0.52157 0.0
H502 H 0.2831 0.19635 0.6047 0.0
H503 H 0.22593 0.17394 0.55561 0.0
H504 H 0.21289 0.66928 0.32458 0.0
H505 H 0.34138 0.82037 0.27046 0.0
H506 H 0.34732 0.75452 0.23148 0.0
H507 H 0.30966 0.65452 0.21097 0.0
H508 H 0.17934 0.50313 0.26451 0.0
H509 H 0.18035 0.56869 0.30617 0.0
C510 C 0.24308 0.68765 0.30477 0.0
C511 C 0.27695 0.74921 0.30039 0.0
C512 C 0.2451 0.64962 0.28228 0.0
C513 C 0.31524 0.77281 0.27419 0.0
C514 C 0.31836 0.73533 0.25191 0.0
C515 C 0.28121 0.63609 0.23169 0.0
C516 C 0.24354 0.57463 0.23458 0.0
C517 C 0.28221 0.67377 0.25531 0.0
C518 C 0.20814 0.55064 0.26184 0.0
C519 C 0.20883 0.58796 0.28557 0.0
H520 H 0.5827 0.21181 0.62067 0.0
H521 H 0.47813 0.29782 0.62251 0.0
H522 H 0.51052 0.33626 0.56914 0.0
H523 H 0.55419 0.33046 0.51964 0.0
H524 H 0.67159 0.25802 0.51884 0.0
H525 H 0.64849 0.22935 0.57437 0.0
C526 C 0.56846 0.24023 0.6095 0.0
C527 C 0.52795 0.2517 0.6251 0.0
C528 C 0.58847 0.26358 0.57899 0.0
C529 C 0.50963 0.28873 0.61086 0.0
C530 C 0.5279 0.31052 0.58029 0.0
C531 C 0.57683 0.31049 0.53152 0.0
C532 C 0.61199 0.29361 0.51427 0.0
C533 C 0.56545 0.29624 0.56372 0.0
C534 C 0.64109 0.26823 0.53081 0.0
C535 C 0.62854 0.25231 0.56276 0.0
H536 H 0.22743 0.58217 0.96092 0.0
H537 H 0.38073 0.56634 0.9818 0.0
H538 H 0.43969 0.64553 0.94309 0.0
H539 H 0.44422 0.7127 0.89977 0.0
H540 H 0.28836 0.72463 0.87846 0.0
H541 H 0.23415 0.65451 0.92122 0.0
C542 C 0.27418 0.59717 0.95743 0.0
C543 C 0.30025 0.56974 0.97455 0.0
C544 C 0.30709 0.64167 0.93488 0.0
C545 C 0.36032 0.58813 0.96944 0.0
C546 C 0.39372 0.63289 0.9471 0.0
C547 C 0.39847 0.70012 0.90459 0.0
C548 C 0.37037 0.72375 0.88568 0.0
C549 C 0.36711 0.65899 0.92911 0.0
C550 C 0.31135 0.70769 0.89267 0.0
C551 C 0.2801 0.6672 0.91701 0.0
H552 H 0.77684 0.37232 0.28826 0.0
H553 H 0.71097 0.18492 0.27948 0.0
H554 H 0.65123 0.18008 0.23392 0.0
H555 H 0.62819 0.23176 0.1929 0.0
H556 H 0.68818 0.41802 0.2029 0.0
H557 H 0.73774 0.42033 0.25254 0.0
C558 C 0.74858 0.33053 0.2765 0.0
C559 C 0.74672 0.27882 0.2874 0.0
C560 C 0.71316 0.3278 0.25079 0.0
C561 C 0.71103 0.22477 0.27203 0.0
C562 C 0.67713 0.22201 0.24593 0.0
C563 C 0.64995 0.2723 0.20654 0.0
C564 C 0.65613 0.32496 0.19384 0.0
C565 C 0.67866 0.27345 0.23479 0.0
C566 C 0.68428 0.37716 0.21191 0.0
C567 C 0.71311 0.37872 0.24007 0.0
H568 H 0.47284 0.81189 0.64229 0.0
H569 H 0.44433 0.63452 0.64037 0.0
H570 H 0.3843 0.61338 0.59249 0.0
H571 H 0.36832 0.65565 0.54393 0.0
H572 H 0.41471 0.8396 0.54199 0.0
H573 H 0.43769 0.84784 0.5983 0.0
C574 C 0.45056 0.76773 0.63222 0.0
C575 C 0.46276 0.7248 0.64429 0.0
C576 C 0.42113 0.75801 0.60316 0.0
C577 C 0.43496 0.66792 0.63121 0.0
C578 C 0.40161 0.6563 0.60357 0.0
C579 C 0.38241 0.6972 0.55602 0.0
C580 C 0.39171 0.74736 0.53856 0.0
C581 C 0.39899 0.70266 0.58798 0.0
C582 C 0.40774 0.80033 0.55471 0.0
C583 C 0.42137 0.80528 0.58696 0.0
H584 H 0.84837 0.49483 0.93816 0.0
H585 H 0.69067 0.50432 0.95653 0.0
H586 H 0.65201 0.46334 0.90403 0.0
H587 H 0.67066 0.43884 0.85089 0.0
H588 H 0.82533 0.42206 0.83403 0.0
H589 H 0.85785 0.45218 0.88832 0.0
C590 C 0.80485 0.48635 0.93081 0.0
C591 C 0.77195 0.50171 0.95089 0.0
C592 C 0.78306 0.46264 0.90091 0.0
C593 C 0.71604 0.49163 0.94143 0.0
C594 C 0.69428 0.46871 0.91141 0.0
C595 C 0.71052 0.43979 0.85916 0.0
C596 C 0.74629 0.42976 0.83791 0.0
C597 C 0.72838 0.45587 0.89061 0.0
C598 C 0.79801 0.43176 0.84938 0.0
C599 C 0.81648 0.44851 0.88052 0.0
H600 H 0.42763 0.49228 0.99008 0.0
H601 H 0.39887 0.43351 0.08781 0.0
H602 H 0.50484 0.47347 0.09487 0.0
H603 H 0.60612 0.52782 0.07433 0.0
H604 H 0.63669 0.57282 0.9749 0.0
H605 H 0.53077 0.53866 0.96773 0.0
C606 C 0.44449 0.48659 1.01256 0.0
C607 C 0.40524 0.46019 0.03848 0.0
C608 C 0.50617 0.50883 1.01641 0.0
C609 C 0.42801 0.45383 0.06755 0.0
C610 C 0.48877 0.47713 0.07172 0.0
C611 C 0.58961 0.52915 0.0509 0.0
C612 C 0.6293 0.55155 0.02512 0.0
C613 C 0.52833 0.50547 0.04651 0.0
C614 C 0.60727 0.55565 0.99526 0.0
C615 C 0.54645 0.53527 0.99104 0.0
H616 H 0.02362 0.63493 0.35997 0.0
H617 H 0.1648 0.59437 0.36753 0.0
H618 H 0.09463 0.48969 0.36551 0.0
H619 H 0.9921 0.40702 0.3633 0.0
H620 H 0.85003 0.44534 0.35298 0.0
H621 H 0.92035 0.55123 0.35435 0.0
C622 C 0.0389 0.60318 0.36104 0.0
C623 C 0.09971 0.62341 0.36484 0.0
C624 C 0.99771 0.54158 0.35952 0.0
C625 C 0.11841 0.58103 0.36581 0.0
C626 C 0.07816 0.52048 0.36432 0.0
C627 C 0.97662 0.43853 0.36111 0.0
C628 C 0.91563 0.41781 0.35893 0.0
C629 C 0.01757 0.49997 0.36153 0.0
C630 C 0.89654 0.45963 0.35586 0.0
C631 C 0.93689 0.52059 0.35632 0.0
H632 H 0.57357 0.12317 0.71286 0.0
H633 H 0.38624 0.01142 0.69529 0.0
H634 H 0.39882 0.92471 0.69376 0.0
H635 H 0.46325 0.88124 0.6963 0.0
H636 H 0.64901 0.99132 0.71791 0.0
H637 H 0.63714 0.07888 0.71832 0.0
C638 C 0.53516 0.08003 0.70933 0.0
C639 C 0.47887 0.07446 0.70462 0.0
C640 C 0.54263 0.03013 0.7089 0.0
C641 C 0.43011 0.0176 0.69909 0.0
C642 C 0.43728 0.96783 0.6982 0.0
C643 C 0.50082 0.9238 0.70222 0.0
C644 C 0.5566 0.92904 0.70806 0.0
C645 C 0.4933 0.97359 0.7031 0.0
C646 C 0.6055 0.98571 0.71356 0.0
C647 C 0.59864 0.03577 0.71391 0.0
H648 H 0.46264 0.5706 0.68114 0.0
H649 H 0.65241 0.64486 0.68361 0.0
H650 H 0.63904 0.54536 0.67801 0.0
H651 H 0.57349 0.43734 0.67731 0.0
H652 H 0.38321 0.36218 0.67863 0.0
H653 H 0.39673 0.46215 0.67749 0.0
C654 C 0.50112 0.56504 0.68067 0.0
C655 C 0.55849 0.61519 0.68354 0.0
C656 C 0.49289 0.50754 0.67819 0.0
C657 C 0.60787 0.60728 0.68159 0.0
C658 C 0.60013 0.55027 0.67858 0.0
C659 C 0.53464 0.44239 0.67723 0.0
C660 C 0.47712 0.39162 0.67826 0.0
C661 C 0.54283 0.50003 0.67762 0.0
C662 C 0.42782 0.39988 0.67769 0.0
C663 C 0.43563 0.45723 0.67736 0.0
H664 H 0.14648 0.57335 0.02825 0.0
H665 H 0.03148 0.38332 0.0284 0.0
H666 H 0.94477 0.39589 0.02646 0.0
H667 H 0.90196 0.45995 0.0267 0.0
H668 H 0.01498 0.6503 0.02455 0.0
H669 H 0.10263 0.63849 0.02585 0.0
C670 C 0.1026 0.53468 0.02804 0.0
C671 C 0.09576 0.47737 0.02874 0.0
C672 C 0.05271 0.54232 0.02663 0.0
C673 C 0.03824 0.42785 0.02773 0.0
C674 C 0.98858 0.43504 0.02677 0.0
C675 C 0.94543 0.49923 0.02596 0.0
C676 C 0.95127 0.55612 0.02504 0.0
C677 C 0.99533 0.492 0.02638 0.0
C678 C 1.00872 0.606 0.0248 0.0
C679 C 0.05893 0.5992 0.0257 0.0
H680 H 0.44381 0.90111 0.35359 0.0
H681 H 0.37173 0.01527 0.33331 0.0
H682 H 0.47251 0.09769 0.32277 0.0
H683 H 0.58055 0.13833 0.32388 0.0
H684 H 0.65157 0.02432 0.34678 0.0
H685 H 0.55035 0.93934 0.35054 0.0
C686 C 0.44935 0.94364 0.34658 0.0
C687 C 0.39953 0.95173 0.34454 0.0
C688 C 0.50715 0.9905 0.34079 0.0
C689 C 0.40875 1.00753 0.33518 0.0
C690 C 0.46646 0.05464 0.32917 0.0
C691 C 0.57414 0.09474 0.3293 0.0
C692 C 0.62384 0.0878 0.33536 0.0
C693 C 0.51594 0.04677 0.33251 0.0
C694 C 0.61444 0.0309 0.34184 0.0
C695 C 0.55651 0.98253 0.34437 0.0
H696 H 0.4068 0.20313 0.81348 0.0
H697 H 0.35761 0.27199 0.73315 0.0
H698 H 0.29081 0.28851 0.76657 0.0
H699 H 0.24926 0.28752 0.8198 0.0
H700 H 0.31079 0.23332 0.90134 0.0
H701 H 0.37129 0.20897 0.86688 0.0
C702 C 0.38085 0.22108 0.80322 0.0
C703 C 0.38465 0.23292 0.77031 0.0
C704 C 0.3459 0.23466 0.82319 0.0
C705 C 0.35266 0.25857 0.75777 0.0
C706 C 0.31542 0.26939 0.77715 0.0
C707 C 0.27636 0.27081 0.82995 0.0
C708 C 0.2758 0.2624 0.8631 0.0
C709 C 0.31203 0.25809 0.80999 0.0
C710 C 0.31106 0.24078 0.87599 0.0
C711 C 0.34524 0.22642 0.85624 0.0
H712 H 0.96158 0.23895 0.15229 0.0
H713 H 0.08029 0.26619 0.22978 0.0
H714 H 0.16572 0.31707 0.19373 0.0
H715 H 0.20666 0.35109 0.13975 0.0
H716 H 0.08945 0.3384 0.06419 0.0
H717 H 1.00378 0.28197 0.09905 0.0
C718 C 1.00627 0.25689 0.16136 0.0
C719 C 0.0144 0.24907 0.19391 0.0
C720 C 0.05544 0.2871 0.14046 0.0
C721 C 0.07265 0.27229 0.20512 0.0
C722 C 0.12151 0.30082 0.18436 0.0
C723 C 0.1625 0.33651 0.13084 0.0
C724 C 0.15521 0.34852 0.09882 0.0
C725 C 0.11348 0.308 0.1519 0.0
C726 C 0.09706 0.32849 0.08808 0.0
C727 C 0.04783 0.29699 0.10834 0.0
H728 H 0.72556 0.9656 0.4864 0.0
H729 H 0.76433 0.08334 0.56548 0.0
H730 H 0.78786 0.16554 0.52872 0.0
H731 H 0.7994 0.20495 0.47423 0.0
H732 H 0.7476 0.08562 0.39522 0.0
H733 H 0.73013 1.00414 0.43135 0.0
C734 C 0.73868 0.00917 0.49562 0.0
C735 C 0.74294 0.01788 0.52897 0.0
C736 C 0.75169 0.05649 0.47416 0.0
C737 C 0.75974 0.07477 0.54023 0.0
C738 C 0.77393 0.12207 0.51911 0.0
C739 C 0.78495 0.16123 0.46476 0.0
C740 C 0.77799 0.15259 0.43154 0.0
C741 C 0.77066 0.11365 0.48605 0.0
C742 C 0.75709 0.09494 0.42014 0.0
C743 C 0.74563 0.04785 0.44106 0.0
H744 H 0.68564 0.71635 0.76163 0.0
H745 H 0.65883 0.86237 0.78307 0.0
H746 H 0.72096 0.88478 0.8304 0.0
H747 H 0.77424 0.85613 0.86872 0.0
H748 H 0.79549 0.70574 0.84872 0.0
H749 H 0.74393 0.69133 0.79829 0.0
C750 C 0.69513 0.75424 0.77619 0.0
C751 C 0.66974 0.78918 0.76814 0.0
C752 C 0.72874 0.76511 0.80414 0.0
C753 C 0.6799 0.83639 0.788 0.0
C754 C 0.71471 0.8486 0.81535 0.0
C755 C 0.76843 0.82073 0.85314 0.0
C756 C 0.7885 0.78179 0.86286 0.0
C757 C 0.73815 0.81233 0.82411 0.0
C758 C 0.77973 0.73577 0.84233 0.0
C759 C 0.75054 0.72772 0.81329 0.0
H760 H 0.91138 0.74155 0.20347 0.0
H761 H 0.07862 0.75261 0.18186 0.0
H762 H 0.03829 0.70181 0.13165 0.0
H763 H 0.95379 0.65 0.09453 0.0
H764 H 0.78571 0.6344 0.11776 0.0
H765 H 0.82839 0.69287 0.16578 0.0
C766 C 0.9395 0.73367 0.18769 0.0
C767 C 0.99832 0.75116 0.19689 0.0
C768 C 0.91596 0.70438 0.15864 0.0
C769 C 0.03311 0.7391 0.17601 0.0
C770 C 1.01016 0.71043 0.14702 0.0
C771 C 0.92715 0.66102 0.10971 0.0
C772 C 0.86745 0.64078 0.1016 0.0
C773 C 0.95154 0.69252 0.13812 0.0
C774 C 0.83256 0.65252 0.12238 0.0
C775 C 0.85676 0.68494 0.15022 0.0
H776 H 0.28065 0.0687 0.4878 0.0
H777 H 0.21875 0.94782 0.56771 0.0
H778 H 0.1943 0.86472 0.53219 0.0
H779 H 0.19011 0.82605 0.47844 0.0
H780 H 0.26391 0.94808 0.39952 0.0
H781 H 0.28175 0.0304 0.43411 0.0
C782 C 0.26197 0.02414 0.49746 0.0
C783 C 0.25152 0.01467 0.53055 0.0
C784 C 0.2488 0.97652 0.47684 0.0
C785 C 0.22783 0.95665 0.54255 0.0
C786 C 0.21334 0.909 0.52215 0.0
C787 C 0.2095 0.8706 0.46867 0.0
C788 C 0.22314 0.88015 0.43589 0.0
C789 C 0.22333 0.91831 0.48924 0.0
C790 C 0.2501 0.93862 0.42409 0.0
C791 C 0.2614 0.986 0.44411 0.0
loop_
_geom_bond_atom_site_label_1
_geom_bond_atom_site_label_2
_geom_bond_distance
_geom_bond_site_symmetry_2
_ccdc_geom_bond_type
Tb0 N31 2.660 . S
Tb0 N38 2.600 . S
Tb0 O44 2.546 . S
Tb0 O45 2.610 . S
Tb0 O47 2.320 . S
Tb0 O48 2.552 . S
Tb0 O49 2.413 . S
Tb0 O51 2.362 1_554 S
Tb0 O52 2.421 . S
Tb0 C64 2.833 . S
C1 C4 1.432 . S
C1 C5 1.414 1_455 S
C1 N8 1.359 1_554 S
C2 C4 1.417 . S
C2 C6 1.432 . S
C2 C14 1.410 . S
C3 C5 1.444 . S
C3 C6 1.317 1_655 S
C3 H26 0.929 . S
C4 C1 1.432 . S
C4 C2 1.417 . S
C4 N12 1.360 . S
C5 C1 1.414 1_655 S
C5 C3 1.444 . S
C5 C10 1.385 1_554 S
C6 C2 1.432 . S
C6 C3 1.317 1_455 S
C6 H18 0.930 . S
C7 C9 1.392 1_655 S
C7 C10 1.370 . S
C7 H19 0.931 . S
N8 C1 1.359 1_556 S
N8 C9 1.327 . S
N8 Tb11 2.600 . S
C9 C7 1.392 1_455 S
C9 N8 1.327 . S
C9 H16 0.930 . S
C10 C5 1.385 1_556 S
C10 C7 1.370 . S
C10 H29 0.930 . S
Tb11 N8 2.600 . S
Tb11 N12 2.660 1_556 S
Tb11 O45 2.362 1_556 S
Tb11 O46 2.421 . S
Tb11 O50 2.546 . S
Tb11 O51 2.610 . S
Tb11 O53 2.320 1_556 S
Tb11 O54 2.552 . S
Tb11 O55 2.413 . S
Tb11 C75 2.833 . S
N12 C4 1.360 . S
N12 Tb11 2.660 1_554 S
N12 C13 1.305 . S
C13 N12 1.305 . S
C13 C15 1.407 . S
C13 H20 0.930 . S
C14 C2 1.410 . S
C14 C15 1.345 . S
C14 H22 0.930 . S
C15 C13 1.407 . S
C15 C14 1.345 . S
C15 H17 0.930 . S
H16 C9 0.930 . S
H17 C15 0.930 . S
H18 C6 0.930 . S
H19 C7 0.931 . S
H20 C13 0.930 . S
H21 C35 0.930 . S
H22 C14 0.930 . S
H23 C41 0.930 . S
H24 C32 0.930 . S
H25 C39 0.931 . S
H26 C3 0.929 . S
H27 C33 0.930 . S
H28 C66 0.930 . S
H29 C10 0.930 . S
H30 C65 0.929 . S
N31 Tb0 2.660 . S
N31 C32 1.305 1_554 S
N31 C36 1.360 . S
C32 H24 0.930 . S
C32 N31 1.305 1_556 S
C32 C35 1.407 . S
C33 H27 0.930 . S
C33 C34 1.410 . S
C33 C35 1.345 . S
C34 C33 1.410 . S
C34 C36 1.417 1_556 S
C34 C66 1.432 . S
C35 H21 0.930 . S
C35 C32 1.407 . S
C35 C33 1.345 . S
C36 N31 1.360 . S
C36 C34 1.417 1_554 S
C36 C40 1.432 . S
H37 C42 0.930 . S
N38 Tb0 2.600 . S
N38 C40 1.359 . S
N38 C41 1.327 . S
C39 H25 0.931 . S
C39 C41 1.392 . S
C39 C42 1.370 . S
C40 C36 1.432 . S
C40 N38 1.359 . S
C40 C43 1.414 . S
C41 H23 0.930 . S
C41 N38 1.327 . S
C41 C39 1.392 . S
C42 H37 0.930 . S
C42 C39 1.370 . S
C42 C43 1.385 . S
C43 C40 1.414 . S
C43 C42 1.385 . S
C43 C65 1.444 . S
O44 Tb0 2.546 . S
O44 C64 1.251 . S
O45 Tb0 2.610 . S
O45 Tb11 2.362 1_554 S
O45 C56 1.283 . S
O46 Tb11 2.421 . S
O46 C63 1.262 1_556 S
O47 Tb0 2.320 . S
O47 C63 1.260 . S
O48 Tb0 2.552 . S
O48 C56 1.243 . S
O49 Tb0 2.413 . S
O49 C64 1.256 . S
O50 Tb11 2.546 . S
O50 C75 1.251 . S
O51 Tb0 2.362 1_556 S
O51 Tb11 2.610 . S
O51 C67 1.283 . S
O52 Tb0 2.421 . S
O52 C74 1.262 . S
O53 Tb11 2.320 1_554 S
O53 C74 1.260 . S
O54 Tb11 2.552 . S
O54 C67 1.243 . S
O55 Tb11 2.413 . S
O55 C75 1.256 . S
C56 O45 1.283 . S
C56 O48 1.243 . S
C57 C59 1.382 . S
C57 C61 1.393 . S
C57 C64 1.500 . S
C58 C59 1.400 . S
C58 C60 1.384 . S
C59 C57 1.382 . S
C59 C58 1.400 . S
C59 H76 0.930 . S
C60 C58 1.384 . S
C60 C62 1.392 . S
C60 H77 0.931 . S
C61 C57 1.393 . S
C61 C62 1.401 . S
C61 H78 0.930 . S
C62 C60 1.392 . S
C62 C61 1.401 . S
C62 H79 0.930 . S
C63 O46 1.262 1_554 S
C63 O47 1.260 . S
C64 Tb0 2.833 . S
C64 O44 1.251 . S
C64 O49 1.256 . S
C64 C57 1.500 . S
C65 H30 0.929 . S
C65 C43 1.444 . S
C65 C66 1.317 1_554 S
C66 H28 0.930 . S
C66 C34 1.432 . S
C66 C65 1.317 1_556 S
C67 O51 1.283 . S
C67 O54 1.243 . S
C68 C69 1.382 . S
C68 C72 1.393 . S
C68 C75 1.500 . S
C69 C68 1.382 . S
C69 C70 1.400 . S
C69 H80 0.930 . S
C70 C69 1.400 . S
C70 C71 1.384 . S
C71 C70 1.384 . S
C71 C73 1.392 . S
C71 H81 0.931 . S
C72 C68 1.393 . S
C72 C73 1.401 . S
C72 H82 0.930 . S
C73 C71 1.392 . S
C73 C72 1.401 . S
C73 H83 0.930 . S
C74 O52 1.262 . S
C74 O53 1.260 . S
C75 Tb11 2.833 . S
C75 O50 1.251 . S
C75 O55 1.256 . S
C75 C68 1.500 . S
H76 C59 0.930 . S
H77 C60 0.931 . S
H78 C61 0.930 . S
H79 C62 0.930 . S
H80 C69 0.930 . S
H81 C71 0.931 . S
H82 C72 0.930 . S
H83 C73 0.930 . S
Tb84 N115 2.660 . S
Tb84 N122 2.600 . S
Tb84 O128 2.546 . S
Tb84 O129 2.610 . S
Tb84 O131 2.320 . S
Tb84 O132 2.552 . S
Tb84 O133 2.413 . S
Tb84 O135 2.362 . S
Tb84 O136 2.421 . S
Tb84 C148 2.833 . S
C85 C88 1.432 . S
C85 C89 1.414 1_545 S
C85 N92 1.359 . S
C86 C88 1.417 . S
C86 C90 1.432 . S
C86 C98 1.410 . S
C87 C89 1.444 . S
C87 C90 1.317 1_565 S
C87 H110 0.929 . S
C88 C85 1.432 . S
C88 C86 1.417 . S
C88 N96 1.360 . S
C89 C85 1.414 1_565 S
C89 C87 1.444 . S
C89 C94 1.385 . S
C90 C86 1.432 . S
C90 C87 1.317 1_545 S
C90 H102 0.930 . S
C91 C93 1.392 1_565 S
C91 C94 1.370 . S
C91 H103 0.931 . S
N92 C85 1.359 . S
N92 C93 1.327 . S
N92 Tb95 2.600 . S
C93 C91 1.392 1_545 S
C93 N92 1.327 . S
C93 H100 0.930 . S
C94 C89 1.385 . S
C94 C91 1.370 . S
C94 H113 0.930 . S
Tb95 N92 2.600 . S
Tb95 N96 2.660 . S
Tb95 O129 2.362 . S
Tb95 O130 2.421 . S
Tb95 O134 2.546 . S
Tb95 O135 2.610 . S
Tb95 O137 2.320 . S
Tb95 O138 2.552 . S
Tb95 O139 2.413 . S
Tb95 C159 2.833 . S
N96 C88 1.360 . S
N96 Tb95 2.660 . S
N96 C97 1.305 . S
C97 N96 1.305 . S
C97 C99 1.407 . S
C97 H104 0.930 . S
C98 C86 1.410 . S
C98 C99 1.345 . S
C98 H106 0.930 . S
C99 C97 1.407 . S
C99 C98 1.345 . S
C99 H101 0.930 1_655 S
H100 C93 0.930 . S
H101 C99 0.930 1_455 S
H102 C90 0.930 . S
H103 C91 0.931 . S
H104 C97 0.930 . S
H105 C119 0.930 . S
H106 C98 0.930 . S
H107 C125 0.930 . S
H108 C116 0.930 . S
H109 C123 0.931 . S
H110 C87 0.929 . S
H111 C117 0.930 . S
H112 C150 0.930 . S
H113 C94 0.930 . S
H114 C149 0.929 . S
N115 Tb84 2.660 . S
N115 C116 1.305 . S
N115 C120 1.360 . S
C116 H108 0.930 . S
C116 N115 1.305 . S
C116 C119 1.407 . S
C117 H111 0.930 . S
C117 C118 1.410 . S
C117 C119 1.345 . S
C118 C117 1.410 . S
C118 C120 1.417 . S
C118 C150 1.432 . S
C119 H105 0.930 . S
C119 C116 1.407 . S
C119 C117 1.345 . S
C120 N115 1.360 . S
C120 C118 1.417 . S
C120 C124 1.432 . S
H121 C126 0.930 . S
N122 Tb84 2.600 . S
N122 C124 1.359 . S
N122 C125 1.327 . S
C123 H109 0.931 . S
C123 C125 1.392 . S
C123 C126 1.370 . S
C124 C120 1.432 . S
C124 N122 1.359 . S
C124 C127 1.414 . S
C125 H107 0.930 . S
C125 N122 1.327 . S
C125 C123 1.392 . S
C126 H121 0.930 . S
C126 C123 1.370 . S
C126 C127 1.385 . S
C127 C124 1.414 . S
C127 C126 1.385 . S
C127 C149 1.444 . S
O128 Tb84 2.546 . S
O128 C148 1.251 . S
O129 Tb84 2.610 . S
O129 Tb95 2.362 . S
O129 C140 1.283 . S
O130 Tb95 2.421 . S
O130 C147 1.262 . S
O131 Tb84 2.320 . S
O131 C147 1.260 . S
O132 Tb84 2.552 . S
O132 C140 1.243 . S
O133 Tb84 2.413 . S
O133 C148 1.256 . S
O134 Tb95 2.546 . S
O134 C159 1.251 . S
O135 Tb84 2.362 . S
O135 Tb95 2.610 . S
O135 C151 1.283 . S
O136 Tb84 2.421 . S
O136 C158 1.262 . S
O137 Tb95 2.320 . S
O137 C158 1.260 . S
O138 Tb95 2.552 . S
O138 C151 1.243 . S
O139 Tb95 2.413 . S
O139 C159 1.256 . S
C140 O129 1.283 . S
C140 O132 1.243 . S
C141 C143 1.382 . S
C141 C145 1.393 . S
C141 C148 1.500 . S
C142 C143 1.400 . S
C142 C144 1.384 . S
C143 C141 1.382 . S
C143 C142 1.400 . S
C143 H160 0.930 . S
C144 C142 1.384 . S
C144 C146 1.392 . S
C144 H161 0.931 . S
C145 C141 1.393 . S
C145 C146 1.401 . S
C145 H162 0.930 . S
C146 C144 1.392 . S
C146 C145 1.401 . S
C146 H163 0.930 . S
C147 O130 1.262 . S
C147 O131 1.260 . S
C148 Tb84 2.833 . S
C148 O128 1.251 . S
C148 O133 1.256 . S
C148 C141 1.500 . S
C149 H114 0.929 . S
C149 C127 1.444 . S
C149 C150 1.317 . S
C150 H112 0.930 . S
C150 C118 1.432 . S
C150 C149 1.317 . S
C151 O135 1.283 . S
C151 O138 1.243 . S
C152 C153 1.382 . S
C152 C156 1.393 . S
C152 C159 1.500 . S
C153 C152 1.382 . S
C153 C154 1.400 . S
C153 H164 0.930 . S
C154 C153 1.400 . S
C154 C155 1.384 . S
C155 C154 1.384 . S
C155 C157 1.392 . S
C155 H165 0.931 . S
C156 C152 1.393 . S
C156 C157 1.401 . S
C156 H166 0.930 . S
C157 C155 1.392 . S
C157 C156 1.401 . S
C157 H167 0.930 . S
C158 O136 1.262 . S
C158 O137 1.260 . S
C159 Tb95 2.833 . S
C159 O134 1.251 . S
C159 O139 1.256 . S
C159 C152 1.500 . S
H160 C143 0.930 . S
H161 C144 0.931 . S
H162 C145 0.930 . S
H163 C146 0.930 . S
H164 C153 0.930 . S
H165 C155 0.931 . S
H166 C156 0.930 . S
H167 C157 0.930 . S
Tb168 N199 2.660 . S
Tb168 N206 2.600 . S
Tb168 O212 2.546 . S
Tb168 O213 2.610 . S
Tb168 O215 2.320 . S
Tb168 O216 2.552 . S
Tb168 O217 2.413 . S
Tb168 O219 2.362 . S
Tb168 O220 2.421 . S
Tb168 C232 2.833 . S
C169 C172 1.432 . S
C169 C173 1.414 . S
C169 N176 1.359 . S
C170 C172 1.417 . S
C170 C174 1.432 . S
C170 C182 1.410 . S
C171 C173 1.444 . S
C171 C174 1.317 . S
C171 H194 0.929 . S
C172 C169 1.432 . S
C172 C170 1.417 . S
C172 N180 1.360 . S
C173 C169 1.414 . S
C173 C171 1.444 . S
C173 C178 1.385 . S
C174 C170 1.432 . S
C174 C171 1.317 . S
C174 H186 0.930 . S
C175 C177 1.392 . S
C175 C178 1.370 . S
C175 H187 0.931 . S
N176 C169 1.359 . S
N176 C177 1.327 . S
N176 Tb179 2.600 . S
C177 C175 1.392 . S
C177 N176 1.327 . S
C177 H184 0.930 . S
C178 C173 1.385 . S
C178 C175 1.370 . S
C178 H197 0.930 . S
Tb179 N176 2.600 . S
Tb179 N180 2.660 . S
Tb179 O213 2.362 . S
Tb179 O214 2.421 . S
Tb179 O218 2.546 . S
Tb179 O219 2.610 . S
Tb179 O221 2.320 . S
Tb179 O222 2.552 . S
Tb179 O223 2.413 . S
Tb179 C243 2.833 . S
N180 C172 1.360 . S
N180 Tb179 2.660 . S
N180 C181 1.305 . S
C181 N180 1.305 . S
C181 C183 1.407 . S
C181 H188 0.930 . S
C182 C170 1.410 . S
C182 C183 1.345 . S
C182 H190 0.930 . S
C183 C181 1.407 . S
C183 C182 1.345 . S
C183 H185 0.930 1_565 S
H184 C177 0.930 . S
H185 C183 0.930 1_545 S
H186 C174 0.930 . S
H187 C175 0.931 . S
H188 C181 0.930 . S
H189 C203 0.930 . S
H190 C182 0.930 . S
H191 C209 0.930 . S
H192 C200 0.930 . S
H193 C207 0.931 . S
H194 C171 0.929 . S
H195 C201 0.930 . S
H196 C234 0.930 . S
H197 C178 0.930 . S
H198 C233 0.929 . S
N199 Tb168 2.660 . S
N199 C200 1.305 . S
N199 C204 1.360 . S
C200 H192 0.930 . S
C200 N199 1.305 . S
C200 C203 1.407 . S
C201 H195 0.930 . S
C201 C202 1.410 . S
C201 C203 1.345 . S
C202 C201 1.410 . S
C202 C204 1.417 . S
C202 C234 1.432 . S
C203 H189 0.930 . S
C203 C200 1.407 . S
C203 C201 1.345 . S
C204 N199 1.360 . S
C204 C202 1.417 . S
C204 C208 1.432 . S
H205 C210 0.930 . S
N206 Tb168 2.600 . S
N206 C208 1.359 . S
N206 C209 1.327 . S
C207 H193 0.931 . S
C207 C209 1.392 . S
C207 C210 1.370 . S
C208 C204 1.432 . S
C208 N206 1.359 . S
C208 C211 1.414 . S
C209 H191 0.930 . S
C209 N206 1.327 . S
C209 C207 1.392 . S
C210 H205 0.930 . S
C210 C207 1.370 . S
C210 C211 1.385 . S
C211 C208 1.414 . S
C211 C210 1.385 . S
C211 C233 1.444 . S
O212 Tb168 2.546 . S
O212 C232 1.251 . S
O213 Tb168 2.610 . S
O213 Tb179 2.362 . S
O213 C224 1.283 . S
O214 Tb179 2.421 . S
O214 C231 1.262 . S
O215 Tb168 2.320 . S
O215 C231 1.260 . S
O216 Tb168 2.552 . S
O216 C224 1.243 . S
O217 Tb168 2.413 . S
O217 C232 1.256 . S
O218 Tb179 2.546 . S
O218 C243 1.251 . S
O219 Tb168 2.362 . S
O219 Tb179 2.610 . S
O219 C235 1.283 . S
O220 Tb168 2.421 . S
O220 C242 1.262 . S
O221 Tb179 2.320 . S
O221 C242 1.260 . S
O222 Tb179 2.552 . S
O222 C235 1.243 . S
O223 Tb179 2.413 . S
O223 C243 1.256 . S
C224 O213 1.283 . S
C224 O216 1.243 . S
C225 C227 1.382 . S
C225 C229 1.393 . S
C225 C232 1.500 . S
C226 C227 1.400 . S
C226 C228 1.384 . S
C227 C225 1.382 . S
C227 C226 1.400 . S
C227 H244 0.930 . S
C228 C226 1.384 . S
C228 C230 1.392 . S
C228 H245 0.931 . S
C229 C225 1.393 . S
C229 C230 1.401 . S
C229 H246 0.930 . S
C230 C228 1.392 . S
C230 C229 1.401 . S
C230 H247 0.930 . S
C231 O214 1.262 . S
C231 O215 1.260 . S
C232 Tb168 2.833 . S
C232 O212 1.251 . S
C232 O217 1.256 . S
C232 C225 1.500 . S
C233 H198 0.929 . S
C233 C211 1.444 . S
C233 C234 1.317 . S
C234 H196 0.930 . S
C234 C202 1.432 . S
C234 C233 1.317 . S
C235 O219 1.283 . S
C235 O222 1.243 . S
C236 C237 1.382 . S
C236 C240 1.393 . S
C236 C243 1.500 . S
C237 C236 1.382 . S
C237 C238 1.400 . S
C237 H248 0.930 . S
C238 C237 1.400 . S
C238 C239 1.384 . S
C239 C238 1.384 . S
C239 C241 1.392 . S
C239 H249 0.931 . S
C240 C236 1.393 . S
C240 C241 1.401 . S
C240 H250 0.930 . S
C241 C239 1.392 . S
C241 C240 1.401 . S
C241 H251 0.930 . S
C242 O220 1.262 . S
C242 O221 1.260 . S
C243 Tb179 2.833 . S
C243 O218 1.251 . S
C243 O223 1.256 . S
C243 C236 1.500 . S
H244 C227 0.930 . S
H245 C228 0.931 . S
H246 C229 0.930 . S
H247 C230 0.930 . S
H248 C237 0.930 . S
H249 C239 0.931 . S
H250 C240 0.930 . S
H251 C241 0.930 . S
Tb252 N283 2.660 . S
Tb252 N290 2.600 . S
Tb252 O296 2.546 . S
Tb252 O297 2.610 . S
Tb252 O299 2.320 . S
Tb252 O300 2.552 . S
Tb252 O301 2.413 . S
Tb252 O303 2.362 1_554 S
Tb252 O304 2.421 . S
Tb252 C316 2.833 . S
C253 C256 1.432 . S
C253 C257 1.414 1_655 S
C253 N260 1.359 1_554 S
C254 C256 1.417 . S
C254 C258 1.432 . S
C254 C266 1.410 . S
C255 C257 1.444 . S
C255 C258 1.317 1_455 S
C255 H278 0.929 . S
C256 C253 1.432 . S
C256 C254 1.417 . S
C256 N264 1.360 . S
C257 C253 1.414 1_455 S
C257 C255 1.444 . S
C257 C262 1.385 1_554 S
C258 C254 1.432 . S
C258 C255 1.317 1_655 S
C258 H270 0.930 . S
C259 C261 1.392 1_455 S
C259 C262 1.370 . S
C259 H271 0.931 . S
N260 C253 1.359 1_556 S
N260 C261 1.327 . S
N260 Tb263 2.600 . S
C261 C259 1.392 1_655 S
C261 N260 1.327 . S
C261 H268 0.930 . S
C262 C257 1.385 1_556 S
C262 C259 1.370 . S
C262 H281 0.930 . S
Tb263 N260 2.600 . S
Tb263 N264 2.660 1_556 S
Tb263 O297 2.362 1_556 S
Tb263 O298 2.421 . S
Tb263 O302 2.546 . S
Tb263 O303 2.610 . S
Tb263 O305 2.320 1_556 S
Tb263 O306 2.552 . S
Tb263 O307 2.413 . S
Tb263 C327 2.833 . S
N264 C256 1.360 . S
N264 Tb263 2.660 1_554 S
N264 C265 1.305 . S
C265 N264 1.305 . S
C265 C267 1.407 . S
C265 H272 0.930 . S
C266 C254 1.410 . S
C266 C267 1.345 . S
C266 H274 0.930 . S
C267 C265 1.407 . S
C267 C266 1.345 . S
C267 H269 0.930 . S
H268 C261 0.930 . S
H269 C267 0.930 . S
H270 C258 0.930 . S
H271 C259 0.931 . S
H272 C265 0.930 . S
H273 C287 0.930 . S
H274 C266 0.930 . S
H275 C293 0.930 . S
H276 C284 0.930 . S
H277 C291 0.931 . S
H278 C255 0.929 . S
H279 C285 0.930 . S
H280 C318 0.930 . S
H281 C262 0.930 . S
H282 C317 0.929 . S
N283 Tb252 2.660 . S
N283 C284 1.305 1_554 S
N283 C288 1.360 . S
C284 H276 0.930 . S
C284 N283 1.305 1_556 S
C284 C287 1.407 . S
C285 H279 0.930 . S
C285 C286 1.410 . S
C285 C287 1.345 . S
C286 C285 1.410 . S
C286 C288 1.417 1_556 S
C286 C318 1.432 . S
C287 H273 0.930 . S
C287 C284 1.407 . S
C287 C285 1.345 . S
C288 N283 1.360 . S
C288 C286 1.417 1_554 S
C288 C292 1.432 . S
H289 C294 0.930 . S
N290 Tb252 2.600 . S
N290 C292 1.359 . S
N290 C293 1.327 . S
C291 H277 0.931 . S
C291 C293 1.392 . S
C291 C294 1.370 . S
C292 C288 1.432 . S
C292 N290 1.359 . S
C292 C295 1.414 . S
C293 H275 0.930 . S
C293 N290 1.327 . S
C293 C291 1.392 . S
C294 H289 0.930 . S
C294 C291 1.370 . S
C294 C295 1.385 . S
C295 C292 1.414 . S
C295 C294 1.385 . S
C295 C317 1.444 . S
O296 Tb252 2.546 . S
O296 C316 1.251 . S
O297 Tb252 2.610 . S
O297 Tb263 2.362 1_554 S
O297 C308 1.283 . S
O298 Tb263 2.421 . S
O298 C315 1.262 1_556 S
O299 Tb252 2.320 . S
O299 C315 1.260 . S
O300 Tb252 2.552 . S
O300 C308 1.243 . S
O301 Tb252 2.413 . S
O301 C316 1.256 . S
O302 Tb263 2.546 . S
O302 C327 1.251 . S
O303 Tb252 2.362 1_556 S
O303 Tb263 2.610 . S
O303 C319 1.283 . S
O304 Tb252 2.421 . S
O304 C326 1.262 . S
O305 Tb263 2.320 1_554 S
O305 C326 1.260 . S
O306 Tb263 2.552 . S
O306 C319 1.243 . S
O307 Tb263 2.413 . S
O307 C327 1.256 . S
C308 O297 1.283 . S
C308 O300 1.243 . S
C309 C311 1.382 . S
C309 C313 1.393 . S
C309 C316 1.500 . S
C310 C311 1.400 . S
C310 C312 1.384 . S
C311 C309 1.382 . S
C311 C310 1.400 . S
C311 H328 0.930 . S
C312 C310 1.384 . S
C312 C314 1.392 . S
C312 H329 0.931 . S
C313 C309 1.393 . S
C313 C314 1.401 . S
C313 H330 0.930 . S
C314 C312 1.392 . S
C314 C313 1.401 . S
C314 H331 0.930 . S
C315 O298 1.262 1_554 S
C315 O299 1.260 . S
C316 Tb252 2.833 . S
C316 O296 1.251 . S
C316 O301 1.256 . S
C316 C309 1.500 . S
C317 H282 0.929 . S
C317 C295 1.444 . S
C317 C318 1.317 1_554 S
C318 H280 0.930 . S
C318 C286 1.432 . S
C318 C317 1.317 1_556 S
C319 O303 1.283 . S
C319 O306 1.243 . S
C320 C321 1.382 . S
C320 C324 1.393 . S
C320 C327 1.500 . S
C321 C320 1.382 . S
C321 C322 1.400 . S
C321 H332 0.930 . S
C322 C321 1.400 . S
C322 C323 1.384 . S
C323 C322 1.384 . S
C323 C325 1.392 . S
C323 H333 0.931 . S
C324 C320 1.393 . S
C324 C325 1.401 . S
C324 H334 0.930 . S
C325 C323 1.392 . S
C325 C324 1.401 . S
C325 H335 0.930 . S
C326 O304 1.262 . S
C326 O305 1.260 . S
C327 Tb263 2.833 . S
C327 O302 1.251 . S
C327 O307 1.256 . S
C327 C320 1.500 . S
H328 C311 0.930 . S
H329 C312 0.931 . S
H330 C313 0.930 . S
H331 C314 0.930 . S
H332 C321 0.930 . S
H333 C323 0.931 . S
H334 C324 0.930 . S
H335 C325 0.930 . S
Tb336 N367 2.660 . S
Tb336 N374 2.600 . S
Tb336 O380 2.546 . S
Tb336 O381 2.610 . S
Tb336 O383 2.320 . S
Tb336 O384 2.552 . S
Tb336 O385 2.413 . S
Tb336 O387 2.362 . S
Tb336 O388 2.421 . S
Tb336 C400 2.833 . S
C337 C340 1.432 . S
C337 C341 1.414 1_565 S
C337 N344 1.359 . S
C338 C340 1.417 . S
C338 C342 1.432 . S
C338 C350 1.410 . S
C339 C341 1.444 . S
C339 C342 1.317 1_545 S
C339 H362 0.929 . S
C340 C337 1.432 . S
C340 C338 1.417 . S
C340 N348 1.360 . S
C341 C337 1.414 1_545 S
C341 C339 1.444 . S
C341 C346 1.385 . S
C342 C338 1.432 . S
C342 C339 1.317 1_565 S
C342 H354 0.930 . S
C343 C345 1.392 1_545 S
C343 C346 1.370 . S
C343 H355 0.931 . S
N344 C337 1.359 . S
N344 C345 1.327 . S
N344 Tb347 2.600 . S
C345 C343 1.392 1_565 S
C345 N344 1.327 . S
C345 H352 0.930 . S
C346 C341 1.385 . S
C346 C343 1.370 . S
C346 H365 0.930 . S
Tb347 N344 2.600 . S
Tb347 N348 2.660 . S
Tb347 O381 2.362 . S
Tb347 O382 2.421 . S
Tb347 O386 2.546 . S
Tb347 O387 2.610 . S
Tb347 O389 2.320 . S
Tb347 O390 2.552 . S
Tb347 O391 2.413 . S
Tb347 C411 2.833 . S
N348 C340 1.360 . S
N348 Tb347 2.660 . S
N348 C349 1.305 . S
C349 N348 1.305 . S
C349 C351 1.407 . S
C349 H356 0.930 . S
C350 C338 1.410 . S
C350 C351 1.345 . S
C350 H358 0.930 . S
C351 C349 1.407 . S
C351 C350 1.345 . S
C351 H353 0.930 1_455 S
H352 C345 0.930 . S
H353 C351 0.930 1_655 S
H354 C342 0.930 . S
H355 C343 0.931 . S
H356 C349 0.930 . S
H357 C371 0.930 . S
H358 C350 0.930 . S
H359 C377 0.930 . S
H360 C368 0.930 . S
H361 C375 0.931 . S
H362 C339 0.929 . S
H363 C369 0.930 . S
H364 C402 0.930 . S
H365 C346 0.930 . S
H366 C401 0.929 . S
N367 Tb336 2.660 . S
N367 C368 1.305 . S
N367 C372 1.360 . S
C368 H360 0.930 . S
C368 N367 1.305 . S
C368 C371 1.407 . S
C369 H363 0.930 . S
C369 C370 1.410 . S
C369 C371 1.345 . S
C370 C369 1.410 . S
C370 C372 1.417 . S
C370 C402 1.432 . S
C371 H357 0.930 . S
C371 C368 1.407 . S
C371 C369 1.345 . S
C372 N367 1.360 . S
C372 C370 1.417 . S
C372 C376 1.432 . S
H373 C378 0.930 . S
N374 Tb336 2.600 . S
N374 C376 1.359 . S
N374 C377 1.327 . S
C375 H361 0.931 . S
C375 C377 1.392 . S
C375 C378 1.370 . S
C376 C372 1.432 . S
C376 N374 1.359 . S
C376 C379 1.414 . S
C377 H359 0.930 . S
C377 N374 1.327 . S
C377 C375 1.392 . S
C378 H373 0.930 . S
C378 C375 1.370 . S
C378 C379 1.385 . S
C379 C376 1.414 . S
C379 C378 1.385 . S
C379 C401 1.444 . S
O380 Tb336 2.546 . S
O380 C400 1.251 . S
O381 Tb336 2.610 . S
O381 Tb347 2.362 . S
O381 C392 1.283 . S
O382 Tb347 2.421 . S
O382 C399 1.262 . S
O383 Tb336 2.320 . S
O383 C399 1.260 . S
O384 Tb336 2.552 . S
O384 C392 1.243 . S
O385 Tb336 2.413 . S
O385 C400 1.256 . S
O386 Tb347 2.546 . S
O386 C411 1.251 . S
O387 Tb336 2.362 . S
O387 Tb347 2.610 . S
O387 C403 1.283 . S
O388 Tb336 2.421 . S
O388 C410 1.262 . S
O389 Tb347 2.320 . S
O389 C410 1.260 . S
O390 Tb347 2.552 . S
O390 C403 1.243 . S
O391 Tb347 2.413 . S
O391 C411 1.256 . S
C392 O381 1.283 . S
C392 O384 1.243 . S
C393 C395 1.382 . S
C393 C397 1.393 . S
C393 C400 1.500 . S
C394 C395 1.400 . S
C394 C396 1.384 . S
C395 C393 1.382 . S
C395 C394 1.400 . S
C395 H412 0.930 . S
C396 C394 1.384 . S
C396 C398 1.392 . S
C396 H413 0.931 . S
C397 C393 1.393 . S
C397 C398 1.401 . S
C397 H414 0.930 . S
C398 C396 1.392 . S
C398 C397 1.401 . S
C398 H415 0.930 . S
C399 O382 1.262 . S
C399 O383 1.260 . S
C400 Tb336 2.833 . S
C400 O380 1.251 . S
C400 O385 1.256 . S
C400 C393 1.500 . S
C401 H366 0.929 . S
C401 C379 1.444 . S
C401 C402 1.317 . S
C402 H364 0.930 . S
C402 C370 1.432 . S
C402 C401 1.317 . S
C403 O387 1.283 . S
C403 O390 1.243 . S
C404 C405 1.382 . S
C404 C408 1.393 . S
C404 C411 1.500 . S
C405 C404 1.382 . S
C405 C406 1.400 . S
C405 H416 0.930 . S
C406 C405 1.400 . S
C406 C407 1.384 . S
C407 C406 1.384 . S
C407 C409 1.392 . S
C407 H417 0.931 . S
C408 C404 1.393 . S
C408 C409 1.401 . S
C408 H418 0.930 . S
C409 C407 1.392 . S
C409 C408 1.401 . S
C409 H419 0.930 . S
C410 O388 1.262 . S
C410 O389 1.260 . S
C411 Tb347 2.833 . S
C411 O386 1.251 . S
C411 O391 1.256 . S
C411 C404 1.500 . S
H412 C395 0.930 . S
H413 C396 0.931 . S
H414 C397 0.930 . S
H415 C398 0.930 . S
H416 C405 0.930 . S
H417 C407 0.931 . S
H418 C408 0.930 . S
H419 C409 0.930 . S
Tb420 N451 2.660 . S
Tb420 N458 2.600 . S
Tb420 O464 2.546 . S
Tb420 O465 2.610 . S
Tb420 O467 2.320 . S
Tb420 O468 2.552 . S
Tb420 O469 2.413 . S
Tb420 O471 2.362 . S
Tb420 O472 2.421 . S
Tb420 C484 2.833 . S
C421 C424 1.432 . S
C421 C425 1.414 . S
C421 N428 1.359 . S
C422 C424 1.417 . S
C422 C426 1.432 . S
C422 C434 1.410 . S
C423 C425 1.444 . S
C423 C426 1.317 . S
C423 H446 0.929 . S
C424 C421 1.432 . S
C424 C422 1.417 . S
C424 N432 1.360 . S
C425 C421 1.414 . S
C425 C423 1.444 . S
C425 C430 1.385 . S
C426 C422 1.432 . S
C426 C423 1.317 . S
C426 H438 0.930 . S
C427 C429 1.392 . S
C427 C430 1.370 . S
C427 H439 0.931 . S
N428 C421 1.359 . S
N428 C429 1.327 . S
N428 Tb431 2.600 . S
C429 C427 1.392 . S
C429 N428 1.327 . S
C429 H436 0.930 . S
C430 C425 1.385 . S
C430 C427 1.370 . S
C430 H449 0.930 . S
Tb431 N428 2.600 . S
Tb431 N432 2.660 . S
Tb431 O465 2.362 . S
Tb431 O466 2.421 . S
Tb431 O470 2.546 . S
Tb431 O471 2.610 . S
Tb431 O473 2.320 . S
Tb431 O474 2.552 . S
Tb431 O475 2.413 . S
Tb431 C495 2.833 . S
N432 C424 1.360 . S
N432 Tb431 2.660 . S
N432 C433 1.305 . S
C433 N432 1.305 . S
C433 C435 1.407 . S
C433 H440 0.930 . S
C434 C422 1.410 . S
C434 C435 1.345 . S
C434 H442 0.930 . S
C435 C433 1.407 . S
C435 C434 1.345 . S
C435 H437 0.930 1_545 S
H436 C429 0.930 . S
H437 C435 0.930 1_565 S
H438 C426 0.930 . S
H439 C427 0.931 . S
H440 C433 0.930 . S
H441 C455 0.930 . S
H442 C434 0.930 . S
H443 C461 0.930 . S
H444 C452 0.930 . S
H445 C459 0.931 . S
H446 C423 0.929 . S
H447 C453 0.930 . S
H448 C486 0.930 . S
H449 C430 0.930 . S
H450 C485 0.929 . S
N451 Tb420 2.660 . S
N451 C452 1.305 . S
N451 C456 1.360 . S
C452 H444 0.930 . S
C452 N451 1.305 . S
C452 C455 1.407 . S
C453 H447 0.930 . S
C453 C454 1.410 . S
C453 C455 1.345 . S
C454 C453 1.410 . S
C454 C456 1.417 . S
C454 C486 1.432 . S
C455 H441 0.930 . S
C455 C452 1.407 . S
C455 C453 1.345 . S
C456 N451 1.360 . S
C456 C454 1.417 . S
C456 C460 1.432 . S
H457 C462 0.930 . S
N458 Tb420 2.600 . S
N458 C460 1.359 . S
N458 C461 1.327 . S
C459 H445 0.931 . S
C459 C461 1.392 . S
C459 C462 1.370 . S
C460 C456 1.432 . S
C460 N458 1.359 . S
C460 C463 1.414 . S
C461 H443 0.930 . S
C461 N458 1.327 . S
C461 C459 1.392 . S
C462 H457 0.930 . S
C462 C459 1.370 . S
C462 C463 1.385 . S
C463 C460 1.414 . S
C463 C462 1.385 . S
C463 C485 1.444 . S
O464 Tb420 2.546 . S
O464 C484 1.251 . S
O465 Tb420 2.610 . S
O465 Tb431 2.362 . S
O465 C476 1.283 . S
O466 Tb431 2.421 . S
O466 C483 1.262 . S
O467 Tb420 2.320 . S
O467 C483 1.260 . S
O468 Tb420 2.552 . S
O468 C476 1.243 . S
O469 Tb420 2.413 . S
O469 C484 1.256 . S
O470 Tb431 2.546 . S
O470 C495 1.251 . S
O471 Tb420 2.362 . S
O471 Tb431 2.610 . S
O471 C487 1.283 . S
O472 Tb420 2.421 . S
O472 C494 1.262 . S
O473 Tb431 2.320 . S
O473 C494 1.260 . S
O474 Tb431 2.552 . S
O474 C487 1.243 . S
O475 Tb431 2.413 . S
O475 C495 1.256 . S
C476 O465 1.283 . S
C476 O468 1.243 . S
C477 C479 1.382 . S
C477 C481 1.393 . S
C477 C484 1.500 . S
C478 C479 1.400 . S
C478 C480 1.384 . S
C479 C477 1.382 . S
C479 C478 1.400 . S
C479 H496 0.930 . S
C480 C478 1.384 . S
C480 C482 1.392 . S
C480 H497 0.931 . S
C481 C477 1.393 . S
C481 C482 1.401 . S
C481 H498 0.930 . S
C482 C480 1.392 . S
C482 C481 1.401 . S
C482 H499 0.930 . S
C483 O466 1.262 . S
C483 O467 1.260 . S
C484 Tb420 2.833 . S
C484 O464 1.251 . S
C484 O469 1.256 . S
C484 C477 1.500 . S
C485 H450 0.929 . S
C485 C463 1.444 . S
C485 C486 1.317 . S
C486 H448 0.930 . S
C486 C454 1.432 . S
C486 C485 1.317 . S
C487 O471 1.283 . S
C487 O474 1.243 . S
C488 C489 1.382 . S
C488 C492 1.393 . S
C488 C495 1.500 . S
C489 C488 1.382 . S
C489 C490 1.400 . S
C489 H500 0.930 . S
C490 C489 1.400 . S
C490 C491 1.384 . S
C491 C490 1.384 . S
C491 C493 1.392 . S
C491 H501 0.931 . S
C492 C488 1.393 . S
C492 C493 1.401 . S
C492 H502 0.930 . S
C493 C491 1.392 . S
C493 C492 1.401 . S
C493 H503 0.930 . S
C494 O472 1.262 . S
C494 O473 1.260 . S
C495 Tb431 2.833 . S
C495 O470 1.251 . S
C495 O475 1.256 . S
C495 C488 1.500 . S
H496 C479 0.930 . S
H497 C480 0.931 . S
H498 C481 0.930 . S
H499 C482 0.930 . S
H500 C489 0.930 . S
H501 C491 0.931 . S
H502 C492 0.930 . S
H503 C493 0.930 . S
H504 C510 0.930 . S
H505 C513 0.930 . S
H506 C514 0.930 . S
H507 C515 0.930 . S
H508 C518 0.930 . S
H509 C519 0.930 . S
C510 H504 0.930 . S
C510 C511 1.355 . S
C510 C512 1.415 . S
C511 C510 1.355 . S
C511 C513 1.419 . S
C512 C510 1.415 . S
C512 C517 1.425 . S
C512 C519 1.409 . S
C513 H505 0.930 . S
C513 C511 1.419 . S
C513 C514 1.362 . S
C514 H506 0.930 . S
C514 C513 1.362 . S
C514 C517 1.409 . S
C515 H507 0.930 . S
C515 C516 1.355 . S
C515 C517 1.415 . S
C516 C515 1.355 . S
C516 C518 1.419 . S
C517 C512 1.425 . S
C517 C514 1.409 . S
C517 C515 1.415 . S
C518 H508 0.930 . S
C518 C516 1.419 . S
C518 C519 1.362 . S
C519 H509 0.930 . S
C519 C512 1.409 . S
C519 C518 1.362 . S
H520 C526 0.930 . S
H521 C529 0.930 . S
H522 C530 0.930 . S
H523 C531 0.930 . S
H524 C534 0.930 . S
H525 C535 0.930 . S
C526 H520 0.930 . S
C526 C527 1.355 . S
C526 C528 1.415 . S
C527 C526 1.355 . S
C527 C529 1.419 . S
C528 C526 1.415 . S
C528 C533 1.425 . S
C528 C535 1.409 . S
C529 H521 0.930 . S
C529 C527 1.419 . S
C529 C530 1.362 . S
C530 H522 0.930 . S
C530 C529 1.362 . S
C530 C533 1.409 . S
C531 H523 0.930 . S
C531 C532 1.355 . S
C531 C533 1.415 . S
C532 C531 1.355 . S
C532 C534 1.419 . S
C533 C528 1.425 . S
C533 C530 1.409 . S
C533 C531 1.415 . S
C534 H524 0.930 . S
C534 C532 1.419 . S
C534 C535 1.362 . S
C535 H525 0.930 . S
C535 C528 1.409 . S
C535 C534 1.362 . S
H536 C542 0.930 . S
H537 C545 0.930 . S
H538 C546 0.930 . S
H539 C547 0.930 . S
H540 C550 0.930 . S
H541 C551 0.930 . S
C542 H536 0.930 . S
C542 C543 1.355 . S
C542 C544 1.415 . S
C543 C542 1.355 . S
C543 C545 1.419 . S
C544 C542 1.415 . S
C544 C549 1.425 . S
C544 C551 1.409 . S
C545 H537 0.930 . S
C545 C543 1.419 . S
C545 C546 1.362 . S
C546 H538 0.930 . S
C546 C545 1.362 . S
C546 C549 1.409 . S
C547 H539 0.930 . S
C547 C548 1.355 . S
C547 C549 1.415 . S
C548 C547 1.355 . S
C548 C550 1.419 . S
C549 C544 1.425 . S
C549 C546 1.409 . S
C549 C547 1.415 . S
C550 H540 0.930 . S
C550 C548 1.419 . S
C550 C551 1.362 . S
C551 H541 0.930 . S
C551 C544 1.409 . S
C551 C550 1.362 . S
H552 C558 0.930 . S
H553 C561 0.930 . S
H554 C562 0.930 . S
H555 C563 0.930 . S
H556 C566 0.930 . S
H557 C567 0.930 . S
C558 H552 0.930 . S
C558 C559 1.355 . S
C558 C560 1.415 . S
C559 C558 1.355 . S
C559 C561 1.419 . S
C560 C558 1.415 . S
C560 C565 1.425 . S
C560 C567 1.409 . S
C561 H553 0.930 . S
C561 C559 1.419 . S
C561 C562 1.362 . S
C562 H554 0.930 . S
C562 C561 1.362 . S
C562 C565 1.409 . S
C563 H555 0.930 . S
C563 C564 1.355 . S
C563 C565 1.415 . S
C564 C563 1.355 . S
C564 C566 1.419 . S
C565 C560 1.425 . S
C565 C562 1.409 . S
C565 C563 1.415 . S
C566 H556 0.930 . S
C566 C564 1.419 . S
C566 C567 1.362 . S
C567 H557 0.930 . S
C567 C560 1.409 . S
C567 C566 1.362 . S
H568 C574 0.930 . S
H569 C577 0.930 . S
H570 C578 0.930 . S
H571 C579 0.930 . S
H572 C582 0.930 . S
H573 C583 0.930 . S
C574 H568 0.930 . S
C574 C575 1.355 . S
C574 C576 1.415 . S
C575 C574 1.355 . S
C575 C577 1.419 . S
C576 C574 1.415 . S
C576 C581 1.425 . S
C576 C583 1.409 . S
C577 H569 0.930 . S
C577 C575 1.419 . S
C577 C578 1.362 . S
C578 H570 0.930 . S
C578 C577 1.362 . S
C578 C581 1.409 . S
C579 H571 0.930 . S
C579 C580 1.355 . S
C579 C581 1.415 . S
C580 C579 1.355 . S
C580 C582 1.419 . S
C581 C576 1.425 . S
C581 C578 1.409 . S
C581 C579 1.415 . S
C582 H572 0.930 . S
C582 C580 1.419 . S
C582 C583 1.362 . S
C583 H573 0.930 . S
C583 C576 1.409 . S
C583 C582 1.362 . S
H584 C590 0.930 . S
H585 C593 0.930 . S
H586 C594 0.930 . S
H587 C595 0.930 . S
H588 C598 0.930 . S
H589 C599 0.930 . S
C590 H584 0.930 . S
C590 C591 1.355 . S
C590 C592 1.415 . S
C591 C590 1.355 . S
C591 C593 1.419 . S
C592 C590 1.415 . S
C592 C597 1.425 . S
C592 C599 1.409 . S
C593 H585 0.930 . S
C593 C591 1.419 . S
C593 C594 1.362 . S
C594 H586 0.930 . S
C594 C593 1.362 . S
C594 C597 1.409 . S
C595 H587 0.930 . S
C595 C596 1.355 . S
C595 C597 1.415 . S
C596 C595 1.355 . S
C596 C598 1.419 . S
C597 C592 1.425 . S
C597 C594 1.409 . S
C597 C595 1.415 . S
C598 H588 0.930 . S
C598 C596 1.419 . S
C598 C599 1.362 . S
C599 H589 0.930 . S
C599 C592 1.409 . S
C599 C598 1.362 . S
H600 C606 0.930 . S
H601 C609 0.930 . S
H602 C610 0.930 . S
H603 C611 0.930 . S
H604 C614 0.930 1_556 S
H605 C615 0.924 1_556 S
C606 H600 0.930 . S
C606 C607 1.355 . S
C606 C608 1.415 . S
C607 C606 1.355 . S
C607 C609 1.419 . S
C608 C606 1.415 . S
C608 C613 1.425 . S
C608 C615 1.414 . S
C609 H601 0.930 . S
C609 C607 1.419 . S
C609 C610 1.362 . S
C610 H602 0.930 . S
C610 C609 1.362 . S
C610 C613 1.409 . S
C611 H603 0.930 . S
C611 C612 1.355 . S
C611 C613 1.415 . S
C612 C611 1.355 . S
C612 C614 1.419 . S
C613 C608 1.425 . S
C613 C610 1.409 . S
C613 C611 1.415 . S
C614 H604 0.930 1_554 S
C614 C612 1.419 . S
C614 C615 1.363 . S
C615 H605 0.924 1_554 S
C615 C608 1.414 . S
C615 C614 1.363 . S
H616 C622 0.930 . S
H617 C625 0.930 . S
H618 C626 0.930 . S
H619 C627 0.930 . S
H620 C630 0.930 . S
H621 C631 0.930 . S
C622 H616 0.930 . S
C622 C623 1.355 1_655 S
C622 C624 1.415 . S
C623 C622 1.355 1_455 S
C623 C625 1.419 . S
C624 C622 1.415 . S
C624 C629 1.425 1_655 S
C624 C631 1.409 . S
C625 H617 0.930 . S
C625 C623 1.419 . S
C625 C626 1.362 . S
C626 H618 0.930 . S
C626 C625 1.362 . S
C626 C629 1.409 . S
C627 H619 0.930 . S
C627 C628 1.355 1_455 S
C627 C629 1.415 . S
C628 C627 1.355 1_655 S
C628 C630 1.419 . S
C629 C624 1.425 1_455 S
C629 C626 1.409 . S
C629 C627 1.415 . S
C630 H620 0.930 . S
C630 C628 1.419 . S
C630 C631 1.362 . S
C631 H621 0.930 . S
C631 C624 1.409 . S
C631 C630 1.362 . S
H632 C638 0.930 1_565 S
H633 C641 0.930 . S
H634 C642 0.930 . S
H635 C643 0.930 1_545 S
H636 C646 0.930 . S
H637 C647 0.930 . S
C638 H632 0.930 1_545 S
C638 C639 1.355 . S
C638 C640 1.415 1_545 S
C639 C638 1.355 . S
C639 C641 1.419 . S
C640 C638 1.415 1_565 S
C640 C645 1.425 1_565 S
C640 C647 1.409 . S
C641 H633 0.930 . S
C641 C639 1.419 . S
C641 C642 1.362 . S
C642 H634 0.930 . S
C642 C641 1.362 . S
C642 C645 1.409 . S
C643 H635 0.930 1_565 S
C643 C644 1.355 . S
C643 C645 1.415 1_565 S
C644 C643 1.355 . S
C644 C646 1.419 . S
C645 C640 1.425 1_545 S
C645 C642 1.409 . S
C645 C643 1.415 1_545 S
C646 H636 0.930 . S
C646 C644 1.419 . S
C646 C647 1.362 . S
C647 H637 0.930 . S
C647 C640 1.409 . S
C647 C646 1.362 . S
H648 C654 0.930 . S
H649 C657 0.930 . S
H650 C658 0.930 . S
H651 C659 0.930 . S
H652 C662 0.930 . S
H653 C663 0.930 . S
C654 H648 0.930 . S
C654 C655 1.355 . S
C654 C656 1.415 . S
C655 C654 1.355 . S
C655 C657 1.419 . S
C656 C654 1.415 . S
C656 C661 1.425 . S
C656 C663 1.409 . S
C657 H649 0.930 . S
C657 C655 1.419 . S
C657 C658 1.362 . S
C658 H650 0.930 . S
C658 C657 1.362 . S
C658 C661 1.409 . S
C659 H651 0.930 . S
C659 C660 1.355 . S
C659 C661 1.415 . S
C660 C659 1.355 . S
C660 C662 1.419 . S
C661 C656 1.425 . S
C661 C658 1.409 . S
C661 C659 1.415 . S
C662 H652 0.930 . S
C662 C660 1.419 . S
C662 C663 1.362 . S
C663 H653 0.930 . S
C663 C656 1.409 . S
C663 C662 1.362 . S
H664 C670 0.930 . S
H665 C673 0.930 . S
H666 C674 0.930 . S
H667 C675 0.936 . S
H668 C678 0.930 . S
H669 C679 0.930 . S
C670 H664 0.930 . S
C670 C671 1.355 . S
C670 C672 1.415 1_455 S
C671 C670 1.355 . S
C671 C673 1.419 1_554 S
C672 C670 1.415 1_655 S
C672 C677 1.425 1_655 S
C672 C679 1.409 . S
C673 H665 0.930 . S
C673 C671 1.419 1_556 S
C673 C674 1.362 . S
C674 H666 0.930 . S
C674 C673 1.362 . S
C674 C677 1.409 1_556 S
C675 H667 0.936 . S
C675 C676 1.349 1_556 S
C675 C677 1.414 1_656 S
C676 C675 1.349 1_554 S
C676 C678 1.419 . S
C677 C672 1.425 1_455 S
C677 C674 1.409 1_554 S
C677 C675 1.414 1_454 S
C678 H668 0.930 . S
C678 C676 1.419 . S
C678 C679 1.362 . S
C679 H669 0.930 . S
C679 C672 1.409 . S
C679 C678 1.362 . S
H680 C686 0.930 1_545 S
H681 C689 0.930 . S
H682 C690 0.930 . S
H683 C691 0.930 1_565 S
H684 C694 0.930 . S
H685 C695 0.930 . S
C686 H680 0.930 1_565 S
C686 C687 1.355 . S
C686 C688 1.415 1_565 S
C687 C686 1.355 . S
C687 C689 1.419 . S
C688 C686 1.415 1_545 S
C688 C693 1.425 1_545 S
C688 C695 1.409 . S
C689 H681 0.930 . S
C689 C687 1.419 . S
C689 C690 1.362 . S
C690 H682 0.930 . S
C690 C689 1.362 . S
C690 C693 1.409 . S
C691 H683 0.930 1_545 S
C691 C692 1.355 . S
C691 C693 1.415 1_545 S
C692 C691 1.355 . S
C692 C694 1.419 . S
C693 C688 1.425 1_565 S
C693 C690 1.409 . S
C693 C691 1.415 1_565 S
C694 H684 0.930 . S
C694 C692 1.419 . S
C694 C695 1.362 . S
C695 H685 0.930 . S
C695 C688 1.409 . S
C695 C694 1.362 . S
H696 C702 0.930 . S
H697 C705 0.930 . S
H698 C706 0.930 . S
H699 C707 0.930 . S
H700 C710 0.930 . S
H701 C711 0.930 . S
C702 H696 0.930 . S
C702 C703 1.355 . S
C702 C704 1.415 . S
C703 C702 1.355 . S
C703 C705 1.419 . S
C704 C702 1.415 . S
C704 C709 1.425 . S
C704 C711 1.409 . S
C705 H697 0.930 . S
C705 C703 1.419 . S
C705 C706 1.362 . S
C706 H698 0.930 . S
C706 C705 1.362 . S
C706 C709 1.409 . S
C707 H699 0.930 . S
C707 C708 1.355 . S
C707 C709 1.415 . S
C708 C707 1.355 . S
C708 C710 1.419 . S
C709 C704 1.425 . S
C709 C706 1.409 . S
C709 C707 1.415 . S
C710 H700 0.930 . S
C710 C708 1.419 . S
C710 C711 1.362 . S
C711 H701 0.930 . S
C711 C704 1.409 . S
C711 C710 1.362 . S
H712 C718 0.930 1_655 S
H713 C721 0.930 . S
H714 C722 0.930 . S
H715 C723 0.930 . S
H716 C726 0.930 . S
H717 C727 0.930 . S
C718 H712 0.930 1_455 S
C718 C719 1.355 . S
C718 C720 1.415 . S
C719 C718 1.355 . S
C719 C721 1.419 . S
C720 C718 1.415 . S
C720 C725 1.425 . S
C720 C727 1.409 . S
C721 H713 0.930 . S
C721 C719 1.419 . S
C721 C722 1.362 . S
C722 H714 0.930 . S
C722 C721 1.362 . S
C722 C725 1.409 . S
C723 H715 0.930 . S
C723 C724 1.355 . S
C723 C725 1.415 . S
C724 C723 1.355 . S
C724 C726 1.419 . S
C725 C720 1.425 . S
C725 C722 1.409 . S
C725 C723 1.415 . S
C726 H716 0.930 . S
C726 C724 1.419 . S
C726 C727 1.362 . S
C727 H717 0.930 . S
C727 C720 1.409 . S
C727 C726 1.362 . S
H728 C734 0.930 1_565 S
H729 C737 0.930 . S
H730 C738 0.930 . S
H731 C739 0.930 . S
H732 C742 0.930 . S
H733 C743 0.930 1_565 S
C734 H728 0.930 1_545 S
C734 C735 1.355 . S
C734 C736 1.415 . S
C735 C734 1.355 . S
C735 C737 1.419 . S
C736 C734 1.415 . S
C736 C741 1.425 . S
C736 C743 1.409 . S
C737 H729 0.930 . S
C737 C735 1.419 . S
C737 C738 1.362 . S
C738 H730 0.930 . S
C738 C737 1.362 . S
C738 C741 1.409 . S
C739 H731 0.930 . S
C739 C740 1.355 . S
C739 C741 1.415 . S
C740 C739 1.355 . S
C740 C742 1.419 . S
C741 C736 1.425 . S
C741 C738 1.409 . S
C741 C739 1.415 . S
C742 H732 0.930 . S
C742 C740 1.419 . S
C742 C743 1.362 . S
C743 H733 0.930 1_545 S
C743 C736 1.409 . S
C743 C742 1.362 . S
H744 C750 0.930 . S
H745 C753 0.930 . S
H746 C754 0.930 . S
H747 C755 0.930 . S
H748 C758 0.930 . S
H749 C759 0.930 . S
C750 H744 0.930 . S
C750 C751 1.355 . S
C750 C752 1.415 . S
C751 C750 1.355 . S
C751 C753 1.419 . S
C752 C750 1.415 . S
C752 C757 1.425 . S
C752 C759 1.409 . S
C753 H745 0.930 . S
C753 C751 1.419 . S
C753 C754 1.362 . S
C754 H746 0.930 . S
C754 C753 1.362 . S
C754 C757 1.409 . S
C755 H747 0.930 . S
C755 C756 1.355 . S
C755 C757 1.415 . S
C756 C755 1.355 . S
C756 C758 1.419 . S
C757 C752 1.425 . S
C757 C754 1.409 . S
C757 C755 1.415 . S
C758 H748 0.930 . S
C758 C756 1.419 . S
C758 C759 1.362 . S
C759 H749 0.930 . S
C759 C752 1.409 . S
C759 C758 1.362 . S
H760 C766 0.930 . S
H761 C769 0.930 . S
H762 C770 0.930 . S
H763 C771 0.930 . S
H764 C774 0.930 . S
H765 C775 0.930 . S
C766 H760 0.930 . S
C766 C767 1.355 . S
C766 C768 1.415 . S
C767 C766 1.355 . S
C767 C769 1.419 1_655 S
C768 C766 1.415 . S
C768 C773 1.425 . S
C768 C775 1.409 . S
C769 H761 0.930 . S
C769 C767 1.419 1_455 S
C769 C770 1.362 . S
C770 H762 0.930 . S
C770 C769 1.362 . S
C770 C773 1.409 1_455 S
C771 H763 0.930 . S
C771 C772 1.355 . S
C771 C773 1.415 . S
C772 C771 1.355 . S
C772 C774 1.419 . S
C773 C768 1.425 . S
C773 C770 1.409 1_655 S
C773 C771 1.415 . S
C774 H764 0.930 . S
C774 C772 1.419 . S
C774 C775 1.362 . S
C775 H765 0.930 . S
C775 C768 1.409 . S
C775 C774 1.362 . S
H776 C782 0.930 1_545 S
H777 C785 0.930 . S
H778 C786 0.930 . S
H779 C787 0.930 . S
H780 C790 0.930 . S
H781 C791 0.930 1_545 S
C782 H776 0.930 1_565 S
C782 C783 1.355 . S
C782 C784 1.415 . S
C783 C782 1.355 . S
C783 C785 1.419 . S
C784 C782 1.415 . S
C784 C789 1.425 . S
C784 C791 1.409 . S
C785 H777 0.930 . S
C785 C783 1.419 . S
C785 C786 1.362 . S
C786 H778 0.930 . S
C786 C785 1.362 . S
C786 C789 1.409 . S
C787 H779 0.930 . S
C787 C788 1.355 . S
C787 C789 1.415 . S
C788 C787 1.355 . S
C788 C790 1.419 . S
C789 C784 1.425 . S
C789 C786 1.409 . S
C789 C787 1.415 . S
C790 H780 0.930 . S
C790 C788 1.419 . S
C790 C791 1.362 . S
C791 H781 0.930 1_565 S
C791 C784 1.409 . S
C791 C790 1.362 . S
C511 C403 1.187 . S
C516 C58 1.123 . S
C527 C487 1.126 . S
C532 C142 1.080 . S
C543 C67 1.123 . S
C548 C226 0.938 . S
C559 C151 1.117 . S
C564 C310 1.065 . S
C575 C235 1.105 . S
C580 C394 1.038 . S
C591 C319 1.198 . S
C596 C478 0.987 . S
C607 C74 1.868 . S
C612 C326 1.892 . S
C623 C410 1.869 . S
C628 C158 1.884 . S
C639 C494 1.881 . S
C644 C242 1.871 . S
C655 C231 1.832 . S
C660 C483 1.826 . S
C671 C63 1.830 . S
C676 C315 1.867 . S
C687 C399 1.823 . S
C692 C147 1.839 . S
C703 C476 1.284 . S
C708 C70 1.274 . S
C719 C154 1.282 1_455 S
C724 C56 1.291 . S
C735 C238 1.264 1_545 S
C740 C140 1.275 . S
C751 C224 1.185 . S
C756 C322 1.174 . S
C767 C406 1.213 1_655 S
C772 C308 1.220 . S
C783 C490 1.252 1_565 S
C788 C392 1.264 . S
