# Generated by pormake.
# Topology ukg, (4)-cn, num edge types: 1
# Building blocks:
#     Node 0, Type 0, BuildingBlock: QUQFOY_clean_sbu_3, # of connection points: 4
#     Node 1, Type 0, BuildingBlock: QUQFOY_clean_sbu_3, # of connection points: 4
#     Node 2, Type 0, BuildingBlock: QUQFOY_clean_sbu_3, # of connection points: 4
#     Node 3, Type 0, BuildingBlock: QUQFOY_clean_sbu_3, # of connection points: 4
#     Node 4, Type 0, BuildingBlock: QUQFOY_clean_sbu_3, # of connection points: 4
#     Node 5, Type 0, BuildingBlock: QUQFOY_clean_sbu_3, # of connection points: 4
#     Node 6, Type 0, BuildingBlock: QUQFOY_clean_sbu_3, # of connection points: 4
#     Node 7, Type 0, BuildingBlock: QUQFOY_clean_sbu_3, # of connection points: 4
#     Edge 8, Type (0, 0), BuildingBlock: XUDNAN_clean_linker_2, # of connection points: 2
#     Edge 9, Type (0, 0), BuildingBlock: XUDNAN_clean_linker_2, # of connection points: 2
#     Edge 10, Type (0, 0), BuildingBlock: XUDNAN_clean_linker_2, # of connection points: 2
#     Edge 11, Type (0, 0), BuildingBlock: XUDNAN_clean_linker_2, # of connection points: 2
#     Edge 12, Type (0, 0), BuildingBlock: XUDNAN_clean_linker_2, # of connection points: 2
#     Edge 13, Type (0, 0), BuildingBlock: XUDNAN_clean_linker_2, # of connection points: 2
#     Edge 14, Type (0, 0), BuildingBlock: XUDNAN_clean_linker_2, # of connection points: 2
#     Edge 15, Type (0, 0), BuildingBlock: XUDNAN_clean_linker_2, # of connection points: 2
#     Edge 16, Type (0, 0), BuildingBlock: XUDNAN_clean_linker_2, # of connection points: 2
#     Edge 17, Type (0, 0), BuildingBlock: XUDNAN_clean_linker_2, # of connection points: 2
#     Edge 18, Type (0, 0), BuildingBlock: XUDNAN_clean_linker_2, # of connection points: 2
#     Edge 19, Type (0, 0), BuildingBlock: XUDNAN_clean_linker_2, # of connection points: 2
#     Edge 20, Type (0, 0), BuildingBlock: XUDNAN_clean_linker_2, # of connection points: 2
#     Edge 21, Type (0, 0), BuildingBlock: XUDNAN_clean_linker_2, # of connection points: 2
#     Edge 22, Type (0, 0), BuildingBlock: XUDNAN_clean_linker_2, # of connection points: 2
#     Edge 23, Type (0, 0), BuildingBlock: XUDNAN_clean_linker_2, # of connection points: 2
# Relax obj value: 0.114
# Max RMSD: 0.203
# Mean RMSD: 0.200
data_MOF--net-ukg--node1-QUQFOY_clean_sbu_3--edge1-XUDNAN_clean_linker_2
_symmetry_space_group_name_H-M    P1
_symmetry_Int_Tables_number       1
_symmetry_cell_setting            triclinic
loop_
_symmetry_equiv_pos_as_xyz
'x, y, z'
_cell_length_a     30.656768
_cell_length_b     30.575139
_cell_length_c     39.577862
_cell_angle_alpha  89.874588
_cell_angle_beta   89.937313
_cell_angle_gamma 89.668748
loop_
_atom_site_label
_atom_site_type_symbol
_atom_site_fract_x
_atom_site_fract_y
_atom_site_fract_z
_atom_type_partial_charge
C0 C 0.10825 0.65315 0.17061 0.0
O1 O 0.09545 0.63869 0.199 0.0
Cd2 Cd 0.0213 0.65191 0.21511 0.0
O3 O 0.08087 0.667 0.1489 0.0
Cd4 Cd 0.00272 0.675 0.13644 0.0
C5 C 0.01962 0.76049 0.18652 0.0
O6 O 0.96971 0.62386 0.17577 0.0
O7 O 0.92933 0.67793 0.15868 0.0
O8 O 0.01172 0.62467 0.0901 0.0
C9 C 0.93284 0.64313 0.17603 0.0
O10 O 0.02213 0.73136 0.20955 0.0
C11 C -0.00432 0.64942 0.06745 0.0
O12 O 0.01262 0.75034 0.15575 0.0
O13 O 0.98295 0.68726 0.07673 0.0
C14 C 0.28433 0.58585 0.71658 0.0
O15 O 0.28709 0.55651 0.73927 0.0
Cd16 Cd 0.30782 0.48219 0.73203 0.0
O17 O 0.2959 0.57798 0.68614 0.0
Cd18 Cd 0.32642 0.51495 0.65328 0.0
C19 C 0.23132 0.46363 0.66918 0.0
O20 O 0.37064 0.48565 0.69836 0.0
O21 O 0.36273 0.44232 0.65628 0.0
O22 O 0.37684 0.56214 0.62217 0.0
C23 C 0.37961 0.44925 0.68497 0.0
O24 O 0.24681 0.45624 0.69854 0.0
C25 C 0.36819 0.54583 0.59344 0.0
O26 O 0.25211 0.48665 0.64772 0.0
O27 O 0.33843 0.51712 0.59251 0.0
C28 C 0.3904 0.79635 0.18006 0.0
O29 O 0.40027 0.80544 0.21041 0.0
Cd30 Cd 0.47579 0.81576 0.22433 0.0
O31 O 0.41849 0.80023 0.15657 0.0
Cd32 Cd 0.49252 0.82333 0.14149 0.0
C33 C 0.50882 0.72488 0.17622 0.0
O34 O 0.50728 0.87029 0.18931 0.0
O35 O 0.56337 0.85009 0.15986 0.0
O36 O 0.4563 0.87479 0.10459 0.0
C37 C 0.54828 0.87132 0.18483 0.0
O38 O 0.49947 0.74494 0.2035 0.0
C39 C 0.47854 0.86597 0.07837 0.0
O40 O 0.50979 0.74496 0.14791 0.0
O41 O 0.5076 0.83624 0.08117 0.0
C42 C 0.15676 0.87894 0.73422 0.0
O43 O 0.15716 0.90215 0.76078 0.0
Cd44 Cd 0.1648 0.97927 0.7579 0.0
O45 O 0.15307 0.89667 0.70513 0.0
Cd46 Cd 0.14025 0.96966 0.67868 0.0
C47 C 0.24631 0.9807 0.6961 0.0
O48 O 0.10472 0.00565 0.72619 0.0
O49 O 0.12755 0.04838 0.68654 0.0
O50 O 0.0776 0.93914 0.64914 0.0
C51 C 0.10771 0.04406 0.71446 0.0
O52 O 0.2332 0.98343 0.72659 0.0
C53 C 0.08794 0.95415 0.62029 0.0
O54 O 0.2194 0.97601 0.6719 0.0
O55 O 0.12351 0.97519 0.61837 0.0
C56 C 0.9376 0.41606 0.73546 0.0
O57 O 0.90147 0.40222 0.72421 0.0
Cd58 Cd 0.8626 0.35455 0.76285 0.0
O59 O 0.94577 0.41503 0.76695 0.0
Cd60 Cd 0.92132 0.40162 0.82467 0.0
C61 C 0.95785 0.30536 0.79516 0.0
O62 O 0.84497 0.38716 0.8158 0.0
O63 O 0.87386 0.3625 0.86202 0.0
O64 O 0.92231 0.47841 0.84107 0.0
C65 C 0.84095 0.36456 0.84268 0.0
O66 O 0.92451 0.30682 0.77591 0.0
C67 C 0.94784 0.47265 0.86603 0.0
O68 O 0.96575 0.3355 0.81655 0.0
O69 O 0.96208 0.43398 0.87098 0.0
C70 C 0.58471 0.45291 0.27184 0.0
O71 O 0.60876 0.42028 0.26461 0.0
Cd72 Cd 0.66352 0.39379 0.30361 0.0
O73 O 0.58663 0.47049 0.30094 0.0
Cd74 Cd 0.62232 0.46675 0.35633 0.0
C75 C 0.71174 0.49524 0.31134 0.0
O76 O 0.63699 0.38934 0.36025 0.0
O77 O 0.67587 0.43072 0.39225 0.0
O78 O 0.55366 0.47391 0.38693 0.0
C79 C 0.66698 0.39243 0.3822 0.0
O80 O 0.71359 0.45559 0.30144 0.0
C81 C 0.5648 0.50756 0.40358 0.0
O82 O 0.68048 0.50899 0.32988 0.0
O83 O 0.60271 0.5226 0.39791 0.0
C84 C 0.53892 0.04717 0.73844 0.0
O85 O 0.57015 0.06774 0.72467 0.0
Cd86 Cd 0.60885 0.12409 0.75588 0.0
O87 O 0.52908 0.05402 0.76919 0.0
Cd88 Cd 0.54614 0.09373 0.82056 0.0
C89 C 0.51819 0.18588 0.77702 0.0
O90 O 0.62446 0.10381 0.81339 0.0
O91 O 0.59173 0.13858 0.85409 0.0
O92 O 0.5428 0.02821 0.85551 0.0
C93 C 0.62645 0.13105 0.83768 0.0
O94 O 0.5525 0.17986 0.7594 0.0
C95 C 0.51085 0.04135 0.87337 0.0
O96 O 0.50724 0.15936 0.80047 0.0
O97 O 0.49479 0.07868 0.8662 0.0
C98 C 0.93301 0.0277 0.28409 0.0
O99 O 0.91527 0.05966 0.26882 0.0
Cd100 Cd 0.85616 0.09896 0.29496 0.0
O101 O 0.92071 0.01673 0.31362 0.0
Cd102 Cd 0.86955 0.03723 0.35901 0.0
C103 C 0.78611 0.01233 0.30727 0.0
O104 O 0.87157 0.11653 0.35319 0.0
O105 O 0.81744 0.0893 0.38131 0.0
O106 O 0.92883 0.02962 0.39923 0.0
C107 C 0.83803 0.12281 0.37145 0.0
O108 O 0.79651 0.04677 0.29107 0.0
C109 C 0.91018 0.00185 0.41813 0.0
O110 O 0.80798 -0.00053 0.33284 0.0
O111 O 0.87204 0.9901 0.40958 0.0
H112 H -0.0058 0.46741 0.92491 0.0
H113 H 0.92306 0.55879 0.8612 0.0
H114 H 0.93325 0.61671 0.9039 0.0
H115 H 0.94865 0.50068 0.00089 0.0
H116 H -0.00237 0.49389 0.02555 0.0
H117 H 0.98963 0.46146 0.98825 0.0
H118 H 0.06302 0.48899 0.9638 0.0
H119 H 0.07139 0.5214 0.00119 0.0
H120 H 0.07245 0.54696 0.96012 0.0
H121 H 0.9452 0.66263 0.95624 0.0
H122 H 0.9582 0.69229 0.01351 0.0
H123 H 0.021 0.57023 0.04232 0.0
C124 C 0.98158 0.49985 0.91956 0.0
C125 C 0.95802 0.50863 0.88965 0.0
C126 C 0.94142 0.55135 0.88388 0.0
C127 C 0.94709 0.58449 0.90796 0.0
C128 C 0.96963 0.57443 0.93757 0.0
C129 C 0.98685 0.53317 0.94331 0.0
C130 C 0.00701 0.52976 0.97809 0.0
C131 C 0.98436 0.49436 -0.00056 0.0
C132 C 0.0564 0.52129 0.97564 0.0
C133 C -0.00261 0.57512 0.99141 0.0
C134 C 0.97625 0.60065 0.96762 0.0
C135 C 0.96222 0.6431 0.97493 0.0
C136 C 0.96968 0.65965 0.00751 0.0
C137 C 0.99068 0.63365 0.03235 0.0
C138 C 0.00511 0.59109 0.02387 0.0
H139 H 0.36727 0.50374 0.53267 0.0
H140 H 0.4312 0.60859 0.58681 0.0
H141 H 0.48386 0.61646 0.53989 0.0
H142 H 0.46037 0.45293 0.50577 0.0
H143 H 0.44021 0.43661 0.46496 0.0
H144 H 0.40278 0.44465 0.49939 0.0
H145 H 0.35881 0.50073 0.46374 0.0
H146 H 0.39594 0.49254 0.42894 0.0
H147 H 0.38639 0.54681 0.44514 0.0
H148 H 0.5353 0.60594 0.49099 0.0
H149 H 0.58084 0.57836 0.44401 0.0
H150 H 0.48372 0.47955 0.42253 0.0
C151 C 0.39143 0.52935 0.5342 0.0
C152 C 0.39491 0.55582 0.56327 0.0
C153 C 0.42772 0.58819 0.56465 0.0
C154 C 0.45774 0.59293 0.5381 0.0
C155 C 0.45436 0.56519 0.51031 0.0
C156 C 0.42177 0.53427 0.50807 0.0
C157 C 0.42783 0.50547 0.47732 0.0
C158 C 0.43313 0.45708 0.48749 0.0
C159 C 0.38999 0.51179 0.4523 0.0
C160 C 0.46986 0.52387 0.46333 0.0
C161 C 0.4843 0.55875 0.48235 0.0
C162 C 0.52393 0.57914 0.47558 0.0
C163 C 0.54964 0.56315 0.4489 0.0
C164 C 0.53579 0.52689 0.42954 0.0
C165 C 0.49503 0.50759 0.43663 0.0
H166 H 0.52914 0.86485 0.02095 0.0
H167 H 0.41346 0.92457 0.06478 0.0
H168 H 0.40551 0.97158 0.01449 0.0
H169 H 0.57259 0.96078 0.98738 0.0
H170 H 0.59363 0.9363 0.94927 0.0
H171 H 0.58755 0.90367 0.98684 0.0
H172 H 0.53938 0.84887 0.95402 0.0
H173 H 0.54546 0.88131 0.91624 0.0
H174 H 0.49177 0.86853 0.93187 0.0
H175 H 0.41394 0.01695 0.9624 0.0
H176 H 0.43794 0.05699 0.91148 0.0
H177 H 0.54771 0.9677 0.90102 0.0
C178 C 0.50164 0.88717 0.01963 0.0
C179 C 0.47185 0.89093 0.04673 0.0
C180 C 0.43667 0.92105 0.0443 0.0
C181 C 0.43178 0.94784 0.01579 0.0
C182 C 0.46219 0.94399 0.98982 0.0
C183 C 0.4963 0.91426 0.99133 0.0
C184 C 0.52604 0.91872 0.96093 0.0
C185 C 0.5727 0.93059 0.97177 0.0
C186 C 0.52562 0.87687 0.9395 0.0
C187 C 0.50397 0.95637 0.94264 0.0
C188 C 0.46697 0.97019 0.95957 0.0
C189 C 0.44251 0.00606 0.94863 0.0
C190 C 0.45645 0.02866 0.91974 0.0
C191 C 0.49452 0.01533 0.9022 0.0
C192 C 0.51815 0.97833 0.91364 0.0
H193 H -0.00851 0.0222 0.44131 0.0
H194 H 0.87779 0.94377 0.46474 0.0
H195 H 0.91341 0.91839 0.51737 0.0
H196 H 0.07317 0.94594 0.47464 0.0
H197 H 0.10691 0.98916 0.49085 0.0
H198 H 0.07363 -0.00143 0.45402 0.0
H199 H 0.03722 0.06513 0.48339 0.0
H200 H 0.07037 0.05597 0.52024 0.0
H201 H 0.0118 0.05794 0.52411 0.0
H202 H 0.95973 0.90557 0.56925 0.0
H203 H 0.01254 0.90679 0.61636 0.0
H204 H 0.09593 -0.00682 0.55826 0.0
C205 C 0.9742 -0.0007 0.45729 0.0
C206 C 0.93187 0.98489 0.4489 0.0
C207 C 0.91028 0.95516 0.47063 0.0
C208 C 0.93029 0.9405 0.50053 0.0
C209 C 0.97193 0.95571 0.50816 0.0
C210 C -0.00634 0.98435 0.48709 0.0
C211 C 0.0373 -0.00264 0.5017 0.0
C212 C 0.07498 0.98182 0.47895 0.0
C213 C 0.03925 0.04703 0.50772 0.0
C214 C 0.03643 0.97226 0.53467 0.0
C215 C -0.00138 0.94817 0.53785 0.0
C216 C 0.98965 0.92394 0.56687 0.0
C217 C 0.01983 0.92486 0.5935 0.0
C218 C 0.05847 0.94989 0.59092 0.0
C219 C 0.06698 0.97331 0.56086 0.0
H220 H 0.17013 0.66853 0.21855 0.0
H221 H 0.14993 0.66259 0.11017 0.0
H222 H 0.22173 0.69672 0.10091 0.0
H223 H 0.21311 0.7714 0.21958 0.0
H224 H 0.25293 0.76198 0.25232 0.0
H225 H 0.20408 0.72971 0.25107 0.0
H226 H 0.24974 0.65819 0.24913 0.0
H227 H 0.29886 0.69012 0.25145 0.0
H228 H 0.29152 0.65184 0.21739 0.0
H229 H 0.29031 0.73974 0.10351 0.0
H230 H 0.35578 0.78235 0.11752 0.0
H231 H 0.33029 0.76256 0.22446 0.0
C232 C 0.18164 0.67268 0.19286 0.0
C233 C 0.15479 0.66248 0.16503 0.0
C234 C 0.17026 0.66982 0.13179 0.0
C235 C 0.21087 0.68934 0.12631 0.0
C236 C 0.23546 0.70128 0.15434 0.0
C237 C 0.22185 0.69262 0.18697 0.0
C238 C 0.25272 0.71207 0.21267 0.0
C239 C 0.22929 0.74578 0.23522 0.0
C240 C 0.27451 0.6759 0.23391 0.0
C241 C 0.28519 0.7339 0.18937 0.0
C242 C 0.27474 0.72703 0.15586 0.0
C243 C 0.29918 0.74487 0.12965 0.0
C244 C 0.33612 0.7693 0.1379 0.0
C245 C 0.34815 0.77587 0.17209 0.0
C246 C 0.32184 0.75841 0.1981 0.0
H247 H 0.26406 0.65469 0.67423 0.0
H248 H 0.25813 0.61289 0.77917 0.0
H249 H 0.21939 0.68087 0.79392 0.0
H250 H 0.28314 0.76827 0.69141 0.0
H251 H 0.25025 0.78744 0.65662 0.0
H252 H 0.2769 0.73493 0.65423 0.0
H253 H 0.20233 0.69854 0.64225 0.0
H254 H 0.17536 0.75093 0.64515 0.0
H255 H 0.15793 0.70624 0.6716 0.0
H256 H 0.18236 0.75316 0.79783 0.0
H257 H 0.15433 0.82843 0.79124 0.0
H258 H 0.18337 0.82342 0.68387 0.0
C259 C 0.25482 0.6599 0.70033 0.0
C260 C 0.26413 0.62833 0.72549 0.0
C261 C 0.25138 0.63648 0.75937 0.0
C262 C 0.22913 0.67492 0.76804 0.0
C263 C 0.21979 0.70492 0.74257 0.0
C264 C 0.2325 0.69814 0.70948 0.0
C265 C 0.21944 0.73638 0.68723 0.0
C266 C 0.25983 0.75804 0.67146 0.0
C267 C 0.18682 0.72215 0.65994 0.0
C268 C 0.19788 0.76583 0.71313 0.0
C269 C 0.19813 0.74684 0.74482 0.0
C270 C 0.18173 0.76836 0.77311 0.0
C271 C 0.1658 0.81106 0.7691 0.0
C272 C 0.16647 0.83173 0.73704 0.0
C273 C 0.18177 0.8083 0.7086 0.0
H274 H 0.67603 0.17495 0.79133 0.0
H275 H 0.65921 0.15168 0.89862 0.0
H276 H 0.71168 0.2103 0.91129 0.0
H277 H 0.79344 0.20516 0.7943 0.0
H278 H 0.78678 0.24709 0.76261 0.0
H279 H 0.7524 0.1995 0.76203 0.0
H280 H 0.68427 0.25003 0.7631 0.0
H281 H 0.7184 0.29772 0.76461 0.0
H282 H 0.67783 0.28899 0.79689 0.0
H283 H 0.76105 0.27368 0.91271 0.0
H284 H 0.81067 0.33559 0.90274 0.0
H285 H 0.79306 0.32152 0.79454 0.0
C286 C 0.68484 0.18122 0.81736 0.0
C287 C 0.66459 0.15844 0.84409 0.0
C288 C 0.67518 0.16849 0.87794 0.0
C289 C 0.70463 0.20183 0.88534 0.0
C290 C 0.72271 0.22505 0.85855 0.0
C291 C 0.71375 0.21503 0.82522 0.0
C292 C 0.73579 0.24699 0.80142 0.0
C293 C 0.76909 0.22326 0.77876 0.0
C294 C 0.70205 0.27243 0.78026 0.0
C295 C 0.75816 0.27658 0.82664 0.0
C296 C 0.75015 0.26313 0.85941 0.0
C297 C 0.76768 0.28456 0.88718 0.0
C298 C 0.79552 0.3198 0.8813 0.0
C299 C 0.80519 0.33347 0.84796 0.0
C300 C 0.78548 0.31224 0.8203 0.0
H301 H 0.65228 0.30492 0.37436 0.0
H302 H 0.75199 0.39847 0.40188 0.0
H303 H 0.8067 0.33905 0.40392 0.0
H304 H 0.694 0.21547 0.4285 0.0
H305 H 0.67969 0.17403 0.39821 0.0
H306 H 0.64801 0.22373 0.40081 0.0
H307 H 0.66126 0.23767 0.337 0.0
H308 H 0.69336 0.18833 0.33428 0.0
H309 H 0.71638 0.23978 0.32119 0.0
H310 H 0.85214 0.27122 0.39555 0.0
H311 H 0.88307 0.1972 0.3856 0.0
H312 H 0.75289 0.14717 0.36885 0.0
C313 C 0.68547 0.31269 0.38141 0.0
C314 C 0.69796 0.35617 0.38793 0.0
C315 C 0.74167 0.36526 0.39701 0.0
C316 C 0.77304 0.3318 0.39809 0.0
C317 C 0.75991 0.28938 0.39071 0.0
C318 C 0.71699 0.27955 0.38331 0.0
C319 C 0.71151 0.23132 0.37615 0.0
C320 C 0.68153 0.20988 0.4025 0.0
C321 C 0.69464 0.22387 0.34001 0.0
C322 C 0.75818 0.2158 0.37996 0.0
C323 C 0.78573 0.24984 0.38797 0.0
C324 C 0.83082 0.24407 0.39005 0.0
C325 C 0.84811 0.20218 0.38419 0.0
C326 C 0.82017 0.16679 0.37708 0.0
C327 C 0.77474 0.17369 0.37505 0.0
H328 H 0.79137 0.47604 0.28378 0.0
H329 H 0.70481 0.58447 0.30791 0.0
H330 H 0.75435 0.63504 0.27816 0.0
H331 H 0.89438 0.53797 0.29186 0.0
H332 H 0.91952 0.50883 0.25734 0.0
H333 H 0.87934 0.48215 0.28336 0.0
H334 H 0.83409 0.46443 0.22989 0.0
H335 H 0.87373 0.49151 0.20376 0.0
H336 H 0.81731 0.50832 0.20222 0.0
H337 H 0.80793 0.67168 0.23972 0.0
H338 H 0.86644 0.69372 0.20041 0.0
H339 H 0.91995 0.56206 0.20359 0.0
C340 C 0.78324 0.51056 0.28339 0.0
C341 C 0.74424 0.52636 0.29812 0.0
C342 C 0.73469 0.57171 0.29702 0.0
C343 C 0.76254 0.60065 0.28007 0.0
C344 C 0.80004 0.58374 0.26492 0.0
C345 C 0.81088 0.5399 0.26698 0.0
C346 C 0.85229 0.52979 0.24756 0.0
C347 C 0.88853 0.51375 0.27146 0.0
C348 C 0.84382 0.49656 0.21918 0.0
C349 C 0.86238 0.57459 0.23341 0.0
C350 C 0.83179 0.60522 0.24367 0.0
C351 C 0.83253 0.64821 0.23202 0.0
C352 C 0.86568 0.66031 0.20953 0.0
C353 C 0.89778 0.6296 0.19921 0.0
C354 C 0.89614 0.5863 0.21146 0.0
H355 H 0.42254 0.37682 0.6616 0.0
H356 H 0.37936 0.44075 0.7536 0.0
H357 H 0.40656 0.37819 0.78722 0.0
H358 H 0.39887 0.26644 0.68569 0.0
H359 H 0.44735 0.24377 0.66658 0.0
H360 H 0.42312 0.29288 0.64955 0.0
H361 H 0.49649 0.33366 0.65646 0.0
H362 H 0.52104 0.28456 0.67316 0.0
H363 H 0.52268 0.33452 0.69721 0.0
H364 H 0.43545 0.30681 0.81053 0.0
H365 H 0.47379 0.23681 0.82242 0.0
H366 H 0.50318 0.22303 0.71574 0.0
C367 C 0.41888 0.37756 0.68882 0.0
C368 C 0.39858 0.41328 0.70503 0.0
C369 C 0.39484 0.41358 0.74071 0.0
C370 C 0.40993 0.37812 0.76 0.0
C371 C 0.42935 0.34308 0.74323 0.0
C372 C 0.43467 0.34293 0.70852 0.0
C373 C 0.45884 0.30243 0.69687 0.0
C374 C 0.43033 0.27475 0.67328 0.0
C375 C 0.50234 0.31453 0.67994 0.0
C376 C 0.46605 0.27976 0.73042 0.0
C377 C 0.44816 0.30329 0.75682 0.0
C378 C 0.44991 0.28822 0.7901 0.0
C379 C 0.47143 0.24844 0.79661 0.0
C380 C 0.4915 0.22494 0.77001 0.0
C381 C 0.48835 0.24067 0.73655 0.0
H382 H 0.62468 0.91229 0.17101 0.0
H383 H 0.53822 0.87706 0.25329 0.0
H384 H 0.59103 0.90724 0.29442 0.0
H385 H 0.72581 0.89016 0.21167 0.0
H386 H 0.75327 0.93688 0.19396 0.0
H387 H 0.70909 0.91186 0.17129 0.0
H388 H 0.66826 0.98629 0.16872 0.0
H389 H 0.71253 0.01164 0.19107 0.0
H390 H 0.6577 0.01578 0.20729 0.0
H391 H 0.65644 0.93677 0.32646 0.0
H392 H 0.72363 0.97353 0.34638 0.0
H393 H 0.76286 -0.00462 0.24248 0.0
C394 C 0.61689 0.91111 0.1977 0.0
C395 C 0.57775 0.89221 0.20918 0.0
C396 C 0.56814 0.89162 0.24415 0.0
C397 C 0.598 0.90839 0.26762 0.0
C398 C 0.6367 0.92638 0.2555 0.0
C399 C 0.64569 0.92871 0.2213 0.0
C400 C 0.6885 0.95149 0.21462 0.0
C401 C 0.72108 0.92075 0.19684 0.0
C402 C 0.6813 -0.00618 0.19423 0.0
C403 C 0.70255 0.96116 0.25041 0.0
C404 C 0.67268 0.94581 0.27372 0.0
C405 C 0.67977 0.94941 0.30843 0.0
C406 C 0.71801 0.97002 0.31951 0.0
C407 C 0.74794 0.98744 0.29589 0.0
C408 C 0.74012 0.98272 0.261 0.0
H409 H 0.9851 0.2712 0.73591 0.0
H410 H -0.00152 0.25675 0.84436 0.0
H411 H 0.04233 0.18909 0.83568 0.0
H412 H 0.97172 0.16124 0.71641 0.0
H413 H 0.00275 0.16276 0.67772 0.0
H414 H 0.97568 0.2114 0.6926 0.0
H415 H 0.04862 0.25275 0.6909 0.0
H416 H 0.0768 0.20443 0.67655 0.0
H417 H 0.09493 0.23201 0.71417 0.0
H418 H 0.07556 0.11792 0.81459 0.0
H419 H 0.10399 0.05395 0.78293 0.0
H420 H 0.07357 0.11911 0.68842 0.0
C421 C -0.00214 0.25406 0.7578 0.0
C422 C 0.98842 0.26863 0.79079 0.0
C423 C 0.00571 0.2459 0.81891 0.0
C424 C 0.03042 0.20752 0.81418 0.0
C425 C 0.03818 0.19329 0.7812 0.0
C426 C 0.02318 0.21647 0.75349 0.0
C427 C 0.03499 0.19403 0.7207 0.0
C428 C -0.00616 0.18162 0.7007 0.0
C429 C 0.0657 0.22251 0.69935 0.0
C430 C 0.05819 0.15396 0.73419 0.0
C431 C 0.05938 0.15382 0.76914 0.0
C432 C 0.07571 0.11817 0.78725 0.0
C433 C 0.09148 0.08196 0.76912 0.0
C434 C 0.09137 0.08213 0.73336 0.0
C435 C 0.07484 0.1187 0.71578 0.0
H436 H 0.01436 0.37613 0.74218 0.0
H437 H 0.94489 0.4677 0.67795 0.0
H438 H 0.01308 0.47999 0.64493 0.0
H439 H 0.10667 0.43477 0.75076 0.0
H440 H 0.14332 0.38845 0.75118 0.0
H441 H 0.08785 0.3819 0.76459 0.0
H442 H 0.07779 0.32039 0.72074 0.0
H443 H 0.13326 0.32686 0.70654 0.0
H444 H 0.08901 0.33072 0.6767 0.0
H445 H 0.09238 0.49071 0.62616 0.0
H446 H 0.17251 0.5004 0.62475 0.0
H447 H 0.18703 0.39913 0.70076 0.0
C448 C 0.01331 0.39822 0.72072 0.0
C449 C 0.97494 0.42141 0.71261 0.0
C450 C 0.97429 0.44973 0.68437 0.0
C451 C 0.01272 0.45664 0.66552 0.0
C452 C 0.05068 0.43403 0.67495 0.0
C453 C 0.0508 0.40496 0.70175 0.0
C454 C 0.09593 0.38796 0.70958 0.0
C455 C 0.1092 0.39898 0.74616 0.0
C456 C 0.09918 0.33855 0.70295 0.0
C457 C 0.12201 0.41362 0.68413 0.0
C458 C 0.09556 0.43949 0.66386 0.0
C459 C 0.11324 0.46981 0.64131 0.0
C460 C 0.15881 0.47499 0.64057 0.0
C461 C 0.18587 0.45039 0.66262 0.0
C462 C 0.16717 0.41806 0.68338 0.0
H463 H 0.5158 0.50766 0.27959 0.0
H464 H 0.60453 0.45569 0.20433 0.0
H465 H 0.58372 0.51533 0.16527 0.0
H466 H 0.4322 0.55816 0.21743 0.0
H467 H 0.42486 0.60391 0.24554 0.0
H468 H 0.43588 0.55018 0.26248 0.0
H469 H 0.50165 0.58158 0.2953 0.0
H470 H 0.49184 0.63488 0.27792 0.0
H471 H 0.54438 0.60909 0.27237 0.0
H472 H 0.56773 0.59053 0.14088 0.0
H473 H 0.55373 0.66997 0.1326 0.0
H474 H 0.47706 0.67169 0.22472 0.0
C475 C 0.52906 0.50755 0.25421 0.0
C476 C 0.56156 0.47713 0.24492 0.0
C477 C 0.57899 0.47833 0.21177 0.0
C478 C 0.5675 0.51229 0.18945 0.0
C479 C 0.53792 0.54406 0.20048 0.0
C480 C 0.51801 0.54117 0.23186 0.0
C481 C 0.49269 0.58229 0.24016 0.0
C482 C 0.44348 0.57307 0.24146 0.0
C483 C 0.50864 0.60315 0.27336 0.0
C484 C 0.50417 0.61003 0.20989 0.0
C485 C 0.52928 0.58737 0.18672 0.0
C486 C 0.54712 0.60821 0.15844 0.0
C487 C 0.53928 0.65331 0.154 0.0
C488 C 0.51471 0.67695 0.17818 0.0
C489 C 0.49624 0.65457 0.20587 0.0
H490 H 0.48579 0.98344 0.76107 0.0
H491 H 0.51936 0.05673 0.67109 0.0
H492 H 0.45035 0.03374 0.64442 0.0
H493 H 0.41602 0.89475 0.71793 0.0
H494 H 0.37878 0.89601 0.7532 0.0
H495 H 0.4362 0.90505 0.75992 0.0
H496 H 0.41768 0.9783 0.78951 0.0
H497 H 0.36064 0.97034 0.78218 0.0
H498 H 0.38667 0.01931 0.76698 0.0
H499 H 0.37041 0.01874 0.63385 0.0
H500 H 0.29022 0.01094 0.63994 0.0
H501 H 0.30913 0.9514 0.73831 0.0
C502 C 0.47964 -0.0073 0.73506 0.0
C503 C 0.50783 0.02164 0.71808 0.0
C504 C 0.49851 0.03391 0.68435 0.0
C505 C 0.4592 0.02115 0.66907 0.0
C506 C 0.43015 -0.00438 0.68773 0.0
C507 C 0.44051 0.98072 0.71983 0.0
C508 C 0.40155 0.96051 0.73717 0.0
C509 C 0.40856 0.91114 0.74234 0.0
C510 C 0.39105 0.98353 0.7709 0.0
C511 C 0.36683 0.96933 0.711 0.0
C512 C 0.38391 0.98828 0.68215 0.0
C513 C 0.35692 0.00294 0.65597 0.0
C514 C 0.31147 -0.00139 0.65966 0.0
C515 C 0.29372 0.98089 0.68969 0.0
C516 C 0.32191 0.9652 0.71512 0.0
H517 H 0.97577 0.83251 0.16254 0.0
H518 H 0.07392 0.79096 0.23468 0.0
H519 H 0.07407 0.86453 0.25974 0.0
H520 H 0.01146 0.95325 0.15698 0.0
H521 H 0.95539 0.97111 0.15488 0.0
H522 H 0.97143 0.91956 0.13642 0.0
H523 H 0.91284 0.88005 0.1723 0.0
H524 H 0.89681 0.93117 0.19083 0.0
H525 H 0.91326 0.88625 0.2176 0.0
H526 H 0.05149 0.93335 0.28547 0.0
H527 H 0.00811 -0.006 0.30951 0.0
H528 H 0.92561 -0.00539 0.22079 0.0
C529 C -0.00139 0.83973 0.18259 0.0
C530 C 0.02505 0.80644 0.19659 0.0
C531 C 0.05349 0.81623 0.22362 0.0
C532 C 0.05405 0.85801 0.23784 0.0
C533 C 0.02611 0.88975 0.22465 0.0
C534 C -0.00083 0.88139 0.19737 0.0
C535 C 0.96744 0.9189 0.19163 0.0
C536 C 0.97702 0.94208 0.15798 0.0
C537 C 0.91981 0.90313 0.19322 0.0
C538 C 0.9786 0.94792 0.22138 0.0
C539 C 0.01331 0.93096 0.23959 0.0
C540 C 0.02538 0.94797 0.27085 0.0
C541 C 0.00057 0.98228 0.28438 0.0
C542 C 0.96445 -0.0006 0.2665 0.0
C543 C 0.95428 0.9831 0.23416 0.0
loop_
_geom_bond_atom_site_label_1
_geom_bond_atom_site_label_2
_geom_bond_distance
_geom_bond_site_symmetry_2
_ccdc_geom_bond_type
C0 O1 1.306 . S
C0 O3 1.160 . S
O1 C0 1.306 . S
O1 Cd2 2.228 . S
Cd2 O1 2.228 . S
Cd2 O6 2.273 . S
Cd2 O10 2.277 . S
O3 C0 1.160 . S
O3 Cd4 2.203 . S
Cd4 O3 2.203 . S
Cd4 O6 2.411 . S
Cd4 O7 2.333 1_455 S
Cd4 O8 2.352 . S
Cd4 O12 2.277 1_455 S
Cd4 O13 2.356 1_455 S
C5 O10 1.209 1_655 S
C5 O12 1.226 . S
O6 Cd2 2.273 . S
O6 Cd4 2.411 . S
O6 C9 1.320 1_455 S
O7 Cd4 2.333 1_655 S
O7 C9 1.214 . S
O8 Cd4 2.352 . S
O8 C11 1.258 . S
C9 O6 1.320 1_655 S
C9 O7 1.214 . S
O10 Cd2 2.277 . S
O10 C5 1.209 1_455 S
C11 O8 1.258 . S
C11 O13 1.282 1_455 S
O12 Cd4 2.277 1_655 S
O12 C5 1.226 . S
O13 Cd4 2.356 1_655 S
O13 C11 1.282 1_655 S
C14 O15 1.306 . S
C14 O17 1.160 . S
O15 C14 1.306 . S
O15 Cd16 2.228 . S
Cd16 O15 2.228 . S
Cd16 O20 2.273 . S
Cd16 O24 2.277 . S
O17 C14 1.160 . S
O17 Cd18 2.203 . S
Cd18 O17 2.203 . S
Cd18 O20 2.411 . S
Cd18 O21 2.333 . S
Cd18 O22 2.352 . S
Cd18 O26 2.277 . S
Cd18 O27 2.356 . S
C19 O24 1.209 . S
C19 O26 1.226 . S
O20 Cd16 2.273 . S
O20 Cd18 2.411 . S
O20 C23 1.320 . S
O21 Cd18 2.333 . S
O21 C23 1.214 . S
O22 Cd18 2.352 . S
O22 C25 1.258 . S
C23 O20 1.320 . S
C23 O21 1.214 . S
O24 Cd16 2.277 . S
O24 C19 1.209 . S
C25 O22 1.258 . S
C25 O27 1.282 . S
O26 Cd18 2.277 . S
O26 C19 1.226 . S
O27 Cd18 2.356 . S
O27 C25 1.282 . S
C28 O29 1.306 . S
C28 O31 1.160 . S
O29 C28 1.306 . S
O29 Cd30 2.228 . S
Cd30 O29 2.228 . S
Cd30 O34 2.273 . S
Cd30 O38 2.277 . S
O31 C28 1.160 . S
O31 Cd32 2.203 . S
Cd32 O31 2.203 . S
Cd32 O34 2.411 . S
Cd32 O35 2.333 . S
Cd32 O36 2.352 . S
Cd32 O40 2.277 . S
Cd32 O41 2.356 . S
C33 O38 1.209 . S
C33 O40 1.226 . S
O34 Cd30 2.273 . S
O34 Cd32 2.411 . S
O34 C37 1.320 . S
O35 Cd32 2.333 . S
O35 C37 1.214 . S
O36 Cd32 2.352 . S
O36 C39 1.258 . S
C37 O34 1.320 . S
C37 O35 1.214 . S
O38 Cd30 2.277 . S
O38 C33 1.209 . S
C39 O36 1.258 . S
C39 O41 1.282 . S
O40 Cd32 2.277 . S
O40 C33 1.226 . S
O41 Cd32 2.356 . S
O41 C39 1.282 . S
C42 O43 1.306 . S
C42 O45 1.160 . S
O43 C42 1.306 . S
O43 Cd44 2.228 . S
Cd44 O43 2.228 . S
Cd44 O48 2.273 . S
Cd44 O52 2.277 . S
O45 C42 1.160 . S
O45 Cd46 2.203 . S
Cd46 O45 2.203 . S
Cd46 O48 2.411 . S
Cd46 O49 2.333 1_565 S
Cd46 O50 2.352 . S
Cd46 O54 2.277 1_565 S
Cd46 O55 2.356 1_565 S
C47 O52 1.209 1_545 S
C47 O54 1.226 . S
O48 Cd44 2.273 . S
O48 Cd46 2.411 . S
O48 C51 1.320 1_565 S
O49 Cd46 2.333 1_545 S
O49 C51 1.214 . S
O50 Cd46 2.352 . S
O50 C53 1.258 . S
C51 O48 1.320 1_545 S
C51 O49 1.214 . S
O52 Cd44 2.277 . S
O52 C47 1.209 1_565 S
C53 O50 1.258 . S
C53 O55 1.282 1_565 S
O54 Cd46 2.277 1_545 S
O54 C47 1.226 . S
O55 Cd46 2.356 1_545 S
O55 C53 1.282 1_545 S
C56 O57 1.306 1_455 S
C56 O59 1.160 . S
O57 C56 1.306 1_655 S
O57 Cd58 2.228 . S
Cd58 O57 2.228 . S
Cd58 O62 2.273 . S
Cd58 O66 2.277 . S
O59 C56 1.160 . S
O59 Cd60 2.203 1_455 S
Cd60 O59 2.203 1_655 S
Cd60 O62 2.411 . S
Cd60 O63 2.333 . S
Cd60 O64 2.352 . S
Cd60 O68 2.277 1_655 S
Cd60 O69 2.356 . S
C61 O66 1.209 1_455 S
C61 O68 1.226 . S
O62 Cd58 2.273 . S
O62 Cd60 2.411 . S
O62 C65 1.320 . S
O63 Cd60 2.333 . S
O63 C65 1.214 . S
O64 Cd60 2.352 . S
O64 C67 1.258 . S
C65 O62 1.320 . S
C65 O63 1.214 . S
O66 Cd58 2.277 . S
O66 C61 1.209 1_655 S
C67 O64 1.258 . S
C67 O69 1.282 . S
O68 Cd60 2.277 1_455 S
O68 C61 1.226 . S
O69 Cd60 2.356 . S
O69 C67 1.282 . S
C70 O71 1.306 . S
C70 O73 1.160 . S
O71 C70 1.306 . S
O71 Cd72 2.228 . S
Cd72 O71 2.228 . S
Cd72 O76 2.273 . S
Cd72 O80 2.277 . S
O73 C70 1.160 . S
O73 Cd74 2.203 . S
Cd74 O73 2.203 . S
Cd74 O76 2.411 . S
Cd74 O77 2.333 . S
Cd74 O78 2.352 . S
Cd74 O82 2.277 . S
Cd74 O83 2.356 . S
C75 O80 1.209 . S
C75 O82 1.226 . S
O76 Cd72 2.273 . S
O76 Cd74 2.411 . S
O76 C79 1.320 . S
O77 Cd74 2.333 . S
O77 C79 1.214 . S
O78 Cd74 2.352 . S
O78 C81 1.258 . S
C79 O76 1.320 . S
C79 O77 1.214 . S
O80 Cd72 2.277 . S
O80 C75 1.209 . S
C81 O78 1.258 . S
C81 O83 1.282 . S
O82 Cd74 2.277 . S
O82 C75 1.226 . S
O83 Cd74 2.356 . S
O83 C81 1.282 . S
C84 O85 1.306 . S
C84 O87 1.160 . S
O85 C84 1.306 . S
O85 Cd86 2.228 . S
Cd86 O85 2.228 . S
Cd86 O90 2.273 . S
Cd86 O94 2.277 . S
O87 C84 1.160 . S
O87 Cd88 2.203 . S
Cd88 O87 2.203 . S
Cd88 O90 2.411 . S
Cd88 O91 2.333 . S
Cd88 O92 2.352 . S
Cd88 O96 2.277 . S
Cd88 O97 2.356 . S
C89 O94 1.209 . S
C89 O96 1.226 . S
O90 Cd86 2.273 . S
O90 Cd88 2.411 . S
O90 C93 1.320 . S
O91 Cd88 2.333 . S
O91 C93 1.214 . S
O92 Cd88 2.352 . S
O92 C95 1.258 . S
C93 O90 1.320 . S
C93 O91 1.214 . S
O94 Cd86 2.277 . S
O94 C89 1.209 . S
C95 O92 1.258 . S
C95 O97 1.282 . S
O96 Cd88 2.277 . S
O96 C89 1.226 . S
O97 Cd88 2.356 . S
O97 C95 1.282 . S
C98 O99 1.306 1_565 S
C98 O101 1.160 . S
O99 C98 1.306 1_545 S
O99 Cd100 2.228 . S
Cd100 O99 2.228 . S
Cd100 O104 2.273 . S
Cd100 O108 2.277 . S
O101 C98 1.160 . S
O101 Cd102 2.203 1_565 S
Cd102 O101 2.203 1_545 S
Cd102 O104 2.411 . S
Cd102 O105 2.333 . S
Cd102 O106 2.352 . S
Cd102 O110 2.277 1_545 S
Cd102 O111 2.356 . S
C103 O108 1.209 1_565 S
C103 O110 1.226 . S
O104 Cd100 2.273 . S
O104 Cd102 2.411 . S
O104 C107 1.320 . S
O105 Cd102 2.333 . S
O105 C107 1.214 . S
O106 Cd102 2.352 . S
O106 C109 1.258 . S
C107 O104 1.320 . S
C107 O105 1.214 . S
O108 Cd100 2.277 . S
O108 C103 1.209 1_545 S
C109 O106 1.258 . S
C109 O111 1.282 . S
O110 Cd102 2.277 1_565 S
O110 C103 1.226 . S
O111 Cd102 2.356 . S
O111 C109 1.282 . S
H112 C124 0.930 . S
H113 C126 0.930 . S
H114 C127 0.930 . S
H115 C131 0.959 . S
H116 C131 0.959 . S
H117 C131 0.961 . S
H118 C132 0.960 . S
H119 C132 0.961 . S
H120 C132 0.959 . S
H121 C135 0.929 . S
H122 C136 0.931 . S
H123 C138 0.930 . S
C124 H112 0.930 . S
C124 C125 1.399 1_455 S
C124 C129 1.399 . S
C125 C124 1.399 1_655 S
C125 C126 1.376 . S
C126 H113 0.930 . S
C126 C125 1.376 . S
C126 C127 1.388 . S
C127 H114 0.930 . S
C127 C126 1.388 . S
C127 C128 1.390 . S
C128 C127 1.390 . S
C128 C129 1.394 1_655 S
C128 C134 1.465 1_556 S
C129 C124 1.399 . S
C129 C128 1.394 1_455 S
C129 C130 1.516 . S
C130 C129 1.516 . S
C130 C131 1.502 1_556 S
C130 C132 1.561 . S
C130 C133 1.526 1_556 S
C131 H115 0.959 . S
C131 H116 0.959 . S
C131 H117 0.961 . S
C131 C130 1.502 1_554 S
C132 H118 0.960 . S
C132 H119 0.961 . S
C132 H120 0.959 . S
C132 C130 1.561 . S
C133 C130 1.526 1_554 S
C133 C134 1.396 1_455 S
C133 C138 1.390 . S
C134 C128 1.465 1_554 S
C134 C133 1.396 1_655 S
C134 C135 1.399 . S
C135 H121 0.929 . S
C135 C134 1.399 . S
C135 C136 1.385 . S
C136 H122 0.931 . S
C136 C135 1.385 . S
C136 C137 1.389 1_655 S
C137 C136 1.389 1_455 S
C137 C138 1.387 . S
C138 H123 0.930 . S
C138 C133 1.390 . S
C138 C137 1.387 . S
H139 C151 0.930 . S
H140 C153 0.930 . S
H141 C154 0.930 . S
H142 C158 0.959 . S
H143 C158 0.959 . S
H144 C158 0.961 . S
H145 C159 0.960 . S
H146 C159 0.961 . S
H147 C159 0.959 . S
H148 C162 0.929 . S
H149 C163 0.931 . S
H150 C165 0.930 . S
C151 H139 0.930 . S
C151 C152 1.399 . S
C151 C156 1.399 . S
C152 C151 1.399 . S
C152 C153 1.376 . S
C153 H140 0.930 . S
C153 C152 1.376 . S
C153 C154 1.388 . S
C154 H141 0.930 . S
C154 C153 1.388 . S
C154 C155 1.390 . S
C155 C154 1.390 . S
C155 C156 1.394 . S
C155 C161 1.465 . S
C156 C151 1.399 . S
C156 C155 1.394 . S
C156 C157 1.516 . S
C157 C156 1.516 . S
C157 C158 1.502 . S
C157 C159 1.561 . S
C157 C160 1.526 . S
C158 H142 0.959 . S
C158 H143 0.959 . S
C158 H144 0.961 . S
C158 C157 1.502 . S
C159 H145 0.960 . S
C159 H146 0.961 . S
C159 H147 0.959 . S
C159 C157 1.561 . S
C160 C157 1.526 . S
C160 C161 1.396 . S
C160 C165 1.390 . S
C161 C155 1.465 . S
C161 C160 1.396 . S
C161 C162 1.399 . S
C162 H148 0.929 . S
C162 C161 1.399 . S
C162 C163 1.385 . S
C163 H149 0.931 . S
C163 C162 1.385 . S
C163 C164 1.389 . S
C164 C163 1.389 . S
C164 C165 1.387 . S
C165 H150 0.930 . S
C165 C160 1.390 . S
C165 C164 1.387 . S
H166 C178 0.930 . S
H167 C180 0.930 . S
H168 C181 0.930 . S
H169 C185 0.959 . S
H170 C185 0.959 . S
H171 C185 0.961 . S
H172 C186 0.960 . S
H173 C186 0.961 . S
H174 C186 0.959 . S
H175 C189 0.929 1_554 S
H176 C190 0.931 . S
H177 C192 0.930 . S
C178 H166 0.930 . S
C178 C179 1.399 . S
C178 C183 1.399 . S
C179 C178 1.399 . S
C179 C180 1.376 . S
C180 H167 0.930 . S
C180 C179 1.376 . S
C180 C181 1.388 1_565 S
C181 H168 0.930 . S
C181 C180 1.388 1_545 S
C181 C182 1.390 1_545 S
C182 C181 1.390 1_565 S
C182 C183 1.397 . S
C182 C188 1.462 1_564 S
C183 C178 1.399 . S
C183 C182 1.397 . S
C183 C184 1.516 1_554 S
C184 C183 1.516 1_556 S
C184 C185 1.502 . S
C184 C186 1.561 . S
C184 C187 1.526 1_565 S
C185 H169 0.959 . S
C185 H170 0.959 . S
C185 H171 0.961 . S
C185 C184 1.502 . S
C186 H172 0.960 . S
C186 H173 0.961 . S
C186 H174 0.959 . S
C186 C184 1.561 . S
C187 C184 1.526 1_545 S
C187 C188 1.396 . S
C187 C192 1.390 . S
C188 C182 1.462 1_546 S
C188 C187 1.396 . S
C188 C189 1.399 . S
C189 H175 0.929 1_556 S
C189 C188 1.399 . S
C189 C190 1.385 . S
C190 H176 0.931 . S
C190 C189 1.385 . S
C190 C191 1.389 . S
C191 C190 1.389 . S
C191 C192 1.387 . S
C192 H177 0.930 . S
C192 C187 1.390 . S
C192 C191 1.387 . S
H193 C205 0.930 . S
H194 C207 0.930 . S
H195 C208 0.930 . S
H196 C212 0.959 . S
H197 C212 0.959 . S
H198 C212 0.961 . S
H199 C213 0.960 . S
H200 C213 0.961 . S
H201 C213 0.959 . S
H202 C216 0.929 . S
H203 C217 0.931 . S
H204 C219 0.930 . S
C205 H193 0.930 . S
C205 C206 1.399 . S
C205 C210 1.399 . S
C206 C205 1.399 . S
C206 C207 1.376 . S
C207 H194 0.930 . S
C207 C206 1.376 . S
C207 C208 1.388 . S
C208 H195 0.930 . S
C208 C207 1.388 . S
C208 C209 1.390 . S
C209 C208 1.390 . S
C209 C210 1.394 . S
C209 C215 1.465 . S
C210 C205 1.399 . S
C210 C209 1.394 . S
C210 C211 1.516 1_655 S
C211 C210 1.516 1_455 S
C211 C212 1.502 1_545 S
C211 C213 1.561 . S
C211 C214 1.525 1_545 S
C212 H196 0.959 . S
C212 H197 0.959 . S
C212 H198 0.961 . S
C212 C211 1.502 1_565 S
C213 H199 0.960 . S
C213 H200 0.961 . S
C213 H201 0.959 . S
C213 C211 1.561 . S
C214 C211 1.525 1_565 S
C214 C215 1.392 1_465 S
C214 C219 1.393 . S
C215 C209 1.465 . S
C215 C214 1.392 1_645 S
C215 C216 1.399 . S
C216 H202 0.929 . S
C216 C215 1.399 . S
C216 C217 1.385 1_655 S
C217 H203 0.931 . S
C217 C216 1.385 1_455 S
C217 C218 1.389 1_545 S
C218 C217 1.389 1_565 S
C218 C219 1.387 . S
C219 H204 0.930 . S
C219 C214 1.393 . S
C219 C218 1.387 . S
H220 C232 0.930 . S
H221 C234 0.930 . S
H222 C235 0.930 . S
H223 C239 0.959 . S
H224 C239 0.959 . S
H225 C239 0.961 . S
H226 C240 0.960 . S
H227 C240 0.961 . S
H228 C240 0.959 . S
H229 C243 0.929 . S
H230 C244 0.931 . S
H231 C246 0.930 . S
C232 H220 0.930 . S
C232 C233 1.399 . S
C232 C237 1.399 . S
C233 C232 1.399 . S
C233 C234 1.376 . S
C234 H221 0.930 . S
C234 C233 1.376 . S
C234 C235 1.388 . S
C235 H222 0.930 . S
C235 C234 1.388 . S
C235 C236 1.390 . S
C236 C235 1.390 . S
C236 C237 1.394 . S
C236 C242 1.465 . S
C237 C232 1.399 . S
C237 C236 1.394 . S
C237 C238 1.516 . S
C238 C237 1.516 . S
C238 C239 1.502 . S
C238 C240 1.561 . S
C238 C241 1.526 . S
C239 H223 0.959 . S
C239 H224 0.959 . S
C239 H225 0.961 . S
C239 C238 1.502 . S
C240 H226 0.960 . S
C240 H227 0.961 . S
C240 H228 0.959 . S
C240 C238 1.561 . S
C241 C238 1.526 . S
C241 C242 1.396 . S
C241 C246 1.390 . S
C242 C236 1.465 . S
C242 C241 1.396 . S
C242 C243 1.399 . S
C243 H229 0.929 . S
C243 C242 1.399 . S
C243 C244 1.385 . S
C244 H230 0.931 . S
C244 C243 1.385 . S
C244 C245 1.389 . S
C245 C244 1.389 . S
C245 C246 1.387 . S
C246 H231 0.930 . S
C246 C241 1.390 . S
C246 C245 1.387 . S
H247 C259 0.930 . S
H248 C261 0.930 . S
H249 C262 0.930 . S
H250 C266 0.959 . S
H251 C266 0.959 . S
H252 C266 0.961 . S
H253 C267 0.960 . S
H254 C267 0.961 . S
H255 C267 0.959 . S
H256 C270 0.929 . S
H257 C271 0.931 . S
H258 C273 0.930 . S
C259 H247 0.930 . S
C259 C260 1.399 . S
C259 C264 1.399 . S
C260 C259 1.399 . S
C260 C261 1.376 . S
C261 H248 0.930 . S
C261 C260 1.376 . S
C261 C262 1.388 . S
C262 H249 0.930 . S
C262 C261 1.388 . S
C262 C263 1.390 . S
C263 C262 1.390 . S
C263 C264 1.394 . S
C263 C269 1.465 . S
C264 C259 1.399 . S
C264 C263 1.394 . S
C264 C265 1.516 . S
C265 C264 1.516 . S
C265 C266 1.502 . S
C265 C267 1.561 . S
C265 C268 1.526 . S
C266 H250 0.959 . S
C266 H251 0.959 . S
C266 H252 0.961 . S
C266 C265 1.502 . S
C267 H253 0.960 . S
C267 H254 0.961 . S
C267 H255 0.959 . S
C267 C265 1.561 . S
C268 C265 1.526 . S
C268 C269 1.396 . S
C268 C273 1.390 . S
C269 C263 1.465 . S
C269 C268 1.396 . S
C269 C270 1.399 . S
C270 H256 0.929 . S
C270 C269 1.399 . S
C270 C271 1.385 . S
C271 H257 0.931 . S
C271 C270 1.385 . S
C271 C272 1.389 . S
C272 C271 1.389 . S
C272 C273 1.387 . S
C273 H258 0.930 . S
C273 C268 1.390 . S
C273 C272 1.387 . S
H274 C286 0.930 . S
H275 C288 0.930 . S
H276 C289 0.930 . S
H277 C293 0.959 . S
H278 C293 0.959 . S
H279 C293 0.961 . S
H280 C294 0.960 . S
H281 C294 0.961 . S
H282 C294 0.959 . S
H283 C297 0.929 . S
H284 C298 0.931 . S
H285 C300 0.930 . S
C286 H274 0.930 . S
C286 C287 1.399 . S
C286 C291 1.399 . S
C287 C286 1.399 . S
C287 C288 1.376 . S
C288 H275 0.930 . S
C288 C287 1.376 . S
C288 C289 1.388 . S
C289 H276 0.930 . S
C289 C288 1.388 . S
C289 C290 1.390 . S
C290 C289 1.390 . S
C290 C291 1.394 . S
C290 C296 1.465 . S
C291 C286 1.399 . S
C291 C290 1.394 . S
C291 C292 1.516 . S
C292 C291 1.516 . S
C292 C293 1.502 . S
C292 C294 1.561 . S
C292 C295 1.526 . S
C293 H277 0.959 . S
C293 H278 0.959 . S
C293 H279 0.961 . S
C293 C292 1.502 . S
C294 H280 0.960 . S
C294 H281 0.961 . S
C294 H282 0.959 . S
C294 C292 1.561 . S
C295 C292 1.526 . S
C295 C296 1.396 . S
C295 C300 1.390 . S
C296 C290 1.465 . S
C296 C295 1.396 . S
C296 C297 1.399 . S
C297 H283 0.929 . S
C297 C296 1.399 . S
C297 C298 1.385 . S
C298 H284 0.931 . S
C298 C297 1.385 . S
C298 C299 1.389 . S
C299 C298 1.389 . S
C299 C300 1.387 . S
C300 H285 0.930 . S
C300 C295 1.390 . S
C300 C299 1.387 . S
H301 C313 0.930 . S
H302 C315 0.930 . S
H303 C316 0.930 . S
H304 C320 0.959 . S
H305 C320 0.959 . S
H306 C320 0.961 . S
H307 C321 0.960 . S
H308 C321 0.961 . S
H309 C321 0.959 . S
H310 C324 0.929 . S
H311 C325 0.931 . S
H312 C327 0.930 . S
C313 H301 0.930 . S
C313 C314 1.399 . S
C313 C318 1.399 . S
C314 C313 1.399 . S
C314 C315 1.376 . S
C315 H302 0.930 . S
C315 C314 1.376 . S
C315 C316 1.388 . S
C316 H303 0.930 . S
C316 C315 1.388 . S
C316 C317 1.390 . S
C317 C316 1.390 . S
C317 C318 1.394 . S
C317 C323 1.465 . S
C318 C313 1.399 . S
C318 C317 1.394 . S
C318 C319 1.516 . S
C319 C318 1.516 . S
C319 C320 1.502 . S
C319 C321 1.561 . S
C319 C322 1.526 . S
C320 H304 0.959 . S
C320 H305 0.959 . S
C320 H306 0.961 . S
C320 C319 1.502 . S
C321 H307 0.960 . S
C321 H308 0.961 . S
C321 H309 0.959 . S
C321 C319 1.561 . S
C322 C319 1.526 . S
C322 C323 1.396 . S
C322 C327 1.390 . S
C323 C317 1.465 . S
C323 C322 1.396 . S
C323 C324 1.399 . S
C324 H310 0.929 . S
C324 C323 1.399 . S
C324 C325 1.385 . S
C325 H311 0.931 . S
C325 C324 1.385 . S
C325 C326 1.389 . S
C326 C325 1.389 . S
C326 C327 1.387 . S
C327 H312 0.930 . S
C327 C322 1.390 . S
C327 C326 1.387 . S
H328 C340 0.930 . S
H329 C342 0.930 . S
H330 C343 0.930 . S
H331 C347 0.959 . S
H332 C347 0.959 . S
H333 C347 0.961 . S
H334 C348 0.960 . S
H335 C348 0.961 . S
H336 C348 0.959 . S
H337 C351 0.929 . S
H338 C352 0.931 . S
H339 C354 0.930 . S
C340 H328 0.930 . S
C340 C341 1.399 . S
C340 C345 1.399 . S
C341 C340 1.399 . S
C341 C342 1.376 . S
C342 H329 0.930 . S
C342 C341 1.376 . S
C342 C343 1.388 . S
C343 H330 0.930 . S
C343 C342 1.388 . S
C343 C344 1.390 . S
C344 C343 1.390 . S
C344 C345 1.394 . S
C344 C350 1.465 . S
C345 C340 1.399 . S
C345 C344 1.394 . S
C345 C346 1.516 . S
C346 C345 1.516 . S
C346 C347 1.502 . S
C346 C348 1.561 . S
C346 C349 1.526 . S
C347 H331 0.959 . S
C347 H332 0.959 . S
C347 H333 0.961 . S
C347 C346 1.502 . S
C348 H334 0.960 . S
C348 H335 0.961 . S
C348 H336 0.959 . S
C348 C346 1.561 . S
C349 C346 1.526 . S
C349 C350 1.396 . S
C349 C354 1.390 . S
C350 C344 1.465 . S
C350 C349 1.396 . S
C350 C351 1.399 . S
C351 H337 0.929 . S
C351 C350 1.399 . S
C351 C352 1.385 . S
C352 H338 0.931 . S
C352 C351 1.385 . S
C352 C353 1.389 . S
C353 C352 1.389 . S
C353 C354 1.387 . S
C354 H339 0.930 . S
C354 C349 1.390 . S
C354 C353 1.387 . S
H355 C367 0.930 . S
H356 C369 0.930 . S
H357 C370 0.930 . S
H358 C374 0.959 . S
H359 C374 0.959 . S
H360 C374 0.961 . S
H361 C375 0.960 . S
H362 C375 0.961 . S
H363 C375 0.959 . S
H364 C378 0.929 . S
H365 C379 0.931 . S
H366 C381 0.930 . S
C367 H355 0.930 . S
C367 C368 1.399 . S
C367 C372 1.399 . S
C368 C367 1.399 . S
C368 C369 1.376 . S
C369 H356 0.930 . S
C369 C368 1.376 . S
C369 C370 1.388 . S
C370 H357 0.930 . S
C370 C369 1.388 . S
C370 C371 1.390 . S
C371 C370 1.390 . S
C371 C372 1.394 . S
C371 C377 1.465 . S
C372 C367 1.399 . S
C372 C371 1.394 . S
C372 C373 1.516 . S
C373 C372 1.516 . S
C373 C374 1.502 . S
C373 C375 1.561 . S
C373 C376 1.526 . S
C374 H358 0.959 . S
C374 H359 0.959 . S
C374 H360 0.961 . S
C374 C373 1.502 . S
C375 H361 0.960 . S
C375 H362 0.961 . S
C375 H363 0.959 . S
C375 C373 1.561 . S
C376 C373 1.526 . S
C376 C377 1.396 . S
C376 C381 1.390 . S
C377 C371 1.465 . S
C377 C376 1.396 . S
C377 C378 1.399 . S
C378 H364 0.929 . S
C378 C377 1.399 . S
C378 C379 1.385 . S
C379 H365 0.931 . S
C379 C378 1.385 . S
C379 C380 1.389 . S
C380 C379 1.389 . S
C380 C381 1.387 . S
C381 H366 0.930 . S
C381 C376 1.390 . S
C381 C380 1.387 . S
H382 C394 0.930 . S
H383 C396 0.930 . S
H384 C397 0.930 . S
H385 C401 0.959 . S
H386 C401 0.959 . S
H387 C401 0.961 . S
H388 C402 0.960 . S
H389 C402 0.961 . S
H390 C402 0.959 . S
H391 C405 0.929 . S
H392 C406 0.931 . S
H393 C408 0.930 . S
C394 H382 0.930 . S
C394 C395 1.399 . S
C394 C399 1.399 . S
C395 C394 1.399 . S
C395 C396 1.376 . S
C396 H383 0.930 . S
C396 C395 1.376 . S
C396 C397 1.388 . S
C397 H384 0.930 . S
C397 C396 1.388 . S
C397 C398 1.390 . S
C398 C397 1.390 . S
C398 C399 1.394 . S
C398 C404 1.465 . S
C399 C394 1.399 . S
C399 C398 1.394 . S
C399 C400 1.516 . S
C400 C399 1.516 . S
C400 C401 1.502 . S
C400 C402 1.561 1_565 S
C400 C403 1.526 . S
C401 H385 0.959 . S
C401 H386 0.959 . S
C401 H387 0.961 . S
C401 C400 1.502 . S
C402 H388 0.960 . S
C402 H389 0.961 . S
C402 H390 0.959 . S
C402 C400 1.561 1_545 S
C403 C400 1.526 . S
C403 C404 1.396 . S
C403 C408 1.390 . S
C404 C398 1.465 . S
C404 C403 1.396 . S
C404 C405 1.399 . S
C405 H391 0.929 . S
C405 C404 1.399 . S
C405 C406 1.385 . S
C406 H392 0.931 . S
C406 C405 1.385 . S
C406 C407 1.389 . S
C407 C406 1.389 . S
C407 C408 1.387 . S
C408 H393 0.930 . S
C408 C403 1.390 . S
C408 C407 1.387 . S
H409 C421 0.930 . S
H410 C423 0.930 . S
H411 C424 0.930 . S
H412 C428 0.959 . S
H413 C428 0.959 . S
H414 C428 0.961 . S
H415 C429 0.960 . S
H416 C429 0.961 . S
H417 C429 0.959 . S
H418 C432 0.929 . S
H419 C433 0.931 . S
H420 C435 0.930 . S
C421 H409 0.930 . S
C421 C422 1.399 . S
C421 C426 1.399 . S
C422 C421 1.399 . S
C422 C423 1.376 . S
C423 H410 0.930 . S
C423 C422 1.376 . S
C423 C424 1.388 . S
C424 H411 0.930 . S
C424 C423 1.388 . S
C424 C425 1.390 . S
C425 C424 1.390 . S
C425 C426 1.394 . S
C425 C431 1.465 . S
C426 C421 1.399 . S
C426 C425 1.394 . S
C426 C427 1.516 . S
C427 C426 1.516 . S
C427 C428 1.502 . S
C427 C429 1.561 . S
C427 C430 1.526 . S
C428 H412 0.959 . S
C428 H413 0.959 . S
C428 H414 0.961 . S
C428 C427 1.502 . S
C429 H415 0.960 . S
C429 H416 0.961 . S
C429 H417 0.959 . S
C429 C427 1.561 . S
C430 C427 1.526 . S
C430 C431 1.396 . S
C430 C435 1.390 . S
C431 C425 1.465 . S
C431 C430 1.396 . S
C431 C432 1.399 . S
C432 H418 0.929 . S
C432 C431 1.399 . S
C432 C433 1.385 . S
C433 H419 0.931 . S
C433 C432 1.385 . S
C433 C434 1.389 . S
C434 C433 1.389 . S
C434 C435 1.387 . S
C435 H420 0.930 . S
C435 C430 1.390 . S
C435 C434 1.387 . S
H436 C448 0.930 . S
H437 C450 0.930 . S
H438 C451 0.930 . S
H439 C455 0.959 . S
H440 C455 0.959 . S
H441 C455 0.961 . S
H442 C456 0.960 . S
H443 C456 0.961 . S
H444 C456 0.959 . S
H445 C459 0.929 . S
H446 C460 0.931 . S
H447 C462 0.930 . S
C448 H436 0.930 . S
C448 C449 1.399 . S
C448 C453 1.399 . S
C449 C448 1.399 . S
C449 C450 1.376 . S
C450 H437 0.930 . S
C450 C449 1.376 . S
C450 C451 1.388 . S
C451 H438 0.930 . S
C451 C450 1.388 . S
C451 C452 1.390 . S
C452 C451 1.390 . S
C452 C453 1.394 . S
C452 C458 1.465 . S
C453 C448 1.399 . S
C453 C452 1.394 . S
C453 C454 1.516 . S
C454 C453 1.516 . S
C454 C455 1.502 . S
C454 C456 1.561 . S
C454 C457 1.526 . S
C455 H439 0.959 . S
C455 H440 0.959 . S
C455 H441 0.961 . S
C455 C454 1.502 . S
C456 H442 0.960 . S
C456 H443 0.961 . S
C456 H444 0.959 . S
C456 C454 1.561 . S
C457 C454 1.526 . S
C457 C458 1.396 . S
C457 C462 1.390 . S
C458 C452 1.465 . S
C458 C457 1.396 . S
C458 C459 1.399 . S
C459 H445 0.929 . S
C459 C458 1.399 . S
C459 C460 1.385 . S
C460 H446 0.931 . S
C460 C459 1.385 . S
C460 C461 1.389 . S
C461 C460 1.389 . S
C461 C462 1.387 . S
C462 H447 0.930 . S
C462 C457 1.390 . S
C462 C461 1.387 . S
H463 C475 0.930 . S
H464 C477 0.930 . S
H465 C478 0.930 . S
H466 C482 0.959 . S
H467 C482 0.959 . S
H468 C482 0.961 . S
H469 C483 0.960 . S
H470 C483 0.961 . S
H471 C483 0.959 . S
H472 C486 0.929 . S
H473 C487 0.931 . S
H474 C489 0.930 . S
C475 H463 0.930 . S
C475 C476 1.399 . S
C475 C480 1.399 . S
C476 C475 1.399 . S
C476 C477 1.376 . S
C477 H464 0.930 . S
C477 C476 1.376 . S
C477 C478 1.388 . S
C478 H465 0.930 . S
C478 C477 1.388 . S
C478 C479 1.390 . S
C479 C478 1.390 . S
C479 C480 1.394 . S
C479 C485 1.465 . S
C480 C475 1.399 . S
C480 C479 1.394 . S
C480 C481 1.516 . S
C481 C480 1.516 . S
C481 C482 1.502 . S
C481 C483 1.561 . S
C481 C484 1.526 . S
C482 H466 0.959 . S
C482 H467 0.959 . S
C482 H468 0.961 . S
C482 C481 1.502 . S
C483 H469 0.960 . S
C483 H470 0.961 . S
C483 H471 0.959 . S
C483 C481 1.561 . S
C484 C481 1.526 . S
C484 C485 1.396 . S
C484 C489 1.390 . S
C485 C479 1.465 . S
C485 C484 1.396 . S
C485 C486 1.399 . S
C486 H472 0.929 . S
C486 C485 1.399 . S
C486 C487 1.385 . S
C487 H473 0.931 . S
C487 C486 1.385 . S
C487 C488 1.389 . S
C488 C487 1.389 . S
C488 C489 1.387 . S
C489 H474 0.930 . S
C489 C484 1.390 . S
C489 C488 1.387 . S
H490 C502 0.930 . S
H491 C504 0.930 . S
H492 C505 0.930 . S
H493 C509 0.959 1_545 S
H494 C509 0.959 . S
H495 C509 0.961 . S
H496 C510 0.960 . S
H497 C510 0.961 . S
H498 C510 0.959 . S
H499 C513 0.929 . S
H500 C514 0.931 . S
H501 C516 0.930 1_565 S
C502 H490 0.930 . S
C502 C503 1.399 . S
C502 C507 1.399 . S
C503 C502 1.399 . S
C503 C504 1.376 . S
C504 H491 0.930 . S
C504 C503 1.376 . S
C504 C505 1.388 . S
C505 H492 0.930 . S
C505 C504 1.388 . S
C505 C506 1.390 . S
C506 C505 1.390 . S
C506 C507 1.394 . S
C506 C512 1.465 . S
C507 C502 1.399 . S
C507 C506 1.394 . S
C507 C508 1.516 . S
C508 C507 1.516 . S
C508 C509 1.502 1_545 S
C508 C510 1.561 1_545 S
C508 C511 1.526 . S
C509 H493 0.959 1_565 S
C509 H494 0.959 . S
C509 H495 0.961 . S
C509 C508 1.502 1_565 S
C510 H496 0.960 . S
C510 H497 0.961 . S
C510 H498 0.959 . S
C510 C508 1.561 1_565 S
C511 C508 1.526 . S
C511 C512 1.396 . S
C511 C516 1.390 . S
C512 C506 1.465 . S
C512 C511 1.396 . S
C512 C513 1.399 . S
C513 H499 0.929 . S
C513 C512 1.399 . S
C513 C514 1.385 . S
C514 H500 0.931 . S
C514 C513 1.385 . S
C514 C515 1.389 . S
C515 C514 1.389 . S
C515 C516 1.387 . S
C516 H501 0.930 1_545 S
C516 C511 1.390 . S
C516 C515 1.387 . S
H517 C529 0.930 1_455 S
H518 C531 0.930 . S
H519 C532 0.930 . S
H520 C536 0.959 . S
H521 C536 0.959 . S
H522 C536 0.961 . S
H523 C537 0.960 . S
H524 C537 0.961 . S
H525 C537 0.959 . S
H526 C540 0.929 . S
H527 C541 0.931 . S
H528 C543 0.930 . S
C529 H517 0.930 1_655 S
C529 C530 1.399 . S
C529 C534 1.399 . S
C530 C529 1.399 . S
C530 C531 1.376 . S
C531 H518 0.930 . S
C531 C530 1.376 . S
C531 C532 1.388 . S
C532 H519 0.930 . S
C532 C531 1.388 . S
C532 C533 1.390 . S
C533 C532 1.390 . S
C533 C534 1.394 . S
C533 C539 1.465 . S
C534 C529 1.399 . S
C534 C533 1.394 . S
C534 C535 1.516 . S
C535 C534 1.516 . S
C535 C536 1.502 1_655 S
C535 C537 1.561 . S
C535 C538 1.526 . S
C536 H520 0.959 . S
C536 H521 0.959 . S
C536 H522 0.961 . S
C536 C535 1.502 1_455 S
C537 H523 0.960 . S
C537 H524 0.961 . S
C537 H525 0.959 . S
C537 C535 1.561 . S
C538 C535 1.526 . S
C538 C539 1.396 . S
C538 C543 1.390 . S
C539 C533 1.465 . S
C539 C538 1.396 . S
C539 C540 1.399 . S
C540 H526 0.929 . S
C540 C539 1.399 . S
C540 C541 1.385 . S
C541 H527 0.931 . S
C541 C540 1.385 . S
C541 C542 1.389 . S
C542 C541 1.389 . S
C542 C543 1.387 . S
C543 H528 0.930 . S
C543 C538 1.390 . S
C543 C542 1.387 . S
C125 C67 1.598 . S
C137 C11 1.584 . S
C152 C25 1.607 . S
C164 C81 1.587 . S
C179 C39 1.596 . S
C191 C95 1.600 . S
C206 C109 1.609 . S
C218 C53 1.576 . S
C233 C0 1.452 . S
C245 C28 1.420 . S
C260 C14 1.400 . S
C272 C42 1.434 . S
C287 C93 1.343 . S
C299 C65 1.366 . S
C314 C79 1.339 . S
C326 C107 1.378 . S
C341 C75 1.017 . S
C353 C9 0.998 . S
C368 C23 1.076 . S
C380 C89 1.062 . S
C395 C37 1.071 . S
C407 C103 1.070 . S
C422 C61 1.071 . S
C434 C51 1.066 . S
C449 C56 1.082 . S
C461 C19 1.069 . S
C476 C70 1.008 . S
C488 C33 1.081 . S
C503 C84 1.019 . S
C515 C47 1.054 . S
C530 C5 1.058 . S
C542 C98 1.015 . S
