# Generated by pormake.
# Topology mdf, (4)-cn, num edge types: 1
# Building blocks:
#     Node 0, Type 0, BuildingBlock: QUQFOY_clean_sbu_1, # of connection points: 4
#     Node 1, Type 0, BuildingBlock: QUQFOY_clean_sbu_1, # of connection points: 4
#     Node 2, Type 0, BuildingBlock: QUQFOY_clean_sbu_1, # of connection points: 4
#     Node 3, Type 0, BuildingBlock: QUQFOY_clean_sbu_1, # of connection points: 4
#     Node 4, Type 0, BuildingBlock: QUQFOY_clean_sbu_1, # of connection points: 4
#     Node 5, Type 0, BuildingBlock: QUQFOY_clean_sbu_1, # of connection points: 4
#     Node 6, Type 0, BuildingBlock: QUQFOY_clean_sbu_1, # of connection points: 4
#     Node 7, Type 0, BuildingBlock: QUQFOY_clean_sbu_1, # of connection points: 4
#     Edge 8, Type (0, 0), BuildingBlock: OJICUG_clean_linker_0, # of connection points: 2
#     Edge 9, Type (0, 0), BuildingBlock: OJICUG_clean_linker_0, # of connection points: 2
#     Edge 10, Type (0, 0), BuildingBlock: OJICUG_clean_linker_0, # of connection points: 2
#     Edge 11, Type (0, 0), BuildingBlock: OJICUG_clean_linker_0, # of connection points: 2
#     Edge 12, Type (0, 0), BuildingBlock: OJICUG_clean_linker_0, # of connection points: 2
#     Edge 13, Type (0, 0), BuildingBlock: OJICUG_clean_linker_0, # of connection points: 2
#     Edge 14, Type (0, 0), BuildingBlock: OJICUG_clean_linker_0, # of connection points: 2
#     Edge 15, Type (0, 0), BuildingBlock: OJICUG_clean_linker_0, # of connection points: 2
#     Edge 16, Type (0, 0), BuildingBlock: OJICUG_clean_linker_0, # of connection points: 2
#     Edge 17, Type (0, 0), BuildingBlock: OJICUG_clean_linker_0, # of connection points: 2
#     Edge 18, Type (0, 0), BuildingBlock: OJICUG_clean_linker_0, # of connection points: 2
#     Edge 19, Type (0, 0), BuildingBlock: OJICUG_clean_linker_0, # of connection points: 2
#     Edge 20, Type (0, 0), BuildingBlock: OJICUG_clean_linker_0, # of connection points: 2
#     Edge 21, Type (0, 0), BuildingBlock: OJICUG_clean_linker_0, # of connection points: 2
#     Edge 22, Type (0, 0), BuildingBlock: OJICUG_clean_linker_0, # of connection points: 2
#     Edge 23, Type (0, 0), BuildingBlock: OJICUG_clean_linker_0, # of connection points: 2
# Relax obj value: 0.010
# Max RMSD: 0.060
# Mean RMSD: 0.060
data_MOF--net-mdf--node1-QUQFOY_clean_sbu_1--edge1-OJICUG_clean_linker_0
_symmetry_space_group_name_H-M    P1
_symmetry_Int_Tables_number       1
_symmetry_cell_setting            triclinic
loop_
_symmetry_equiv_pos_as_xyz
'x, y, z'
_cell_length_a     28.591973
_cell_length_b     28.615803
_cell_length_c     9.3257348
_cell_angle_alpha  90.002526
_cell_angle_beta   89.990842
_cell_angle_gamma 90.000163
loop_
_atom_site_label
_atom_site_type_symbol
_atom_site_fract_x
_atom_site_fract_y
_atom_site_fract_z
_atom_type_partial_charge
O0 O 0.33593 0.49279 0.31133 0.0
Cd1 Cd 0.28375 0.53702 0.24162 0.0
Cd2 Cd 0.26108 0.53721 0.51578 0.0
O3 O 0.32709 0.50838 0.54126 0.0
O4 O 0.30505 0.56603 0.05748 0.0
O5 O 0.2981 0.60512 0.26126 0.0
C6 C 0.31047 0.60444 0.12827 0.0
C7 C 0.23419 0.60471 0.62831 0.0
C8 C 0.3497 0.48865 0.44036 0.0
C9 C 0.19522 0.48842 0.31778 0.0
O10 O 0.20899 0.49277 0.44673 0.0
O11 O 0.21779 0.50804 0.2166 0.0
O12 O 0.23972 0.56641 0.69956 0.0
O13 O 0.24656 0.60526 0.49532 0.0
O14 O 0.55102 0.70858 0.69607 0.0
Cd15 Cd 0.50648 0.76059 0.76491 0.0
Cd16 Cd 0.50662 0.78305 0.49074 0.0
O17 O 0.53559 0.71712 0.46596 0.0
O18 O 0.47739 0.73931 0.94895 0.0
O19 O 0.4384 0.74589 0.74485 0.0
C20 C 0.43904 0.73362 0.8779 0.0
C21 C 0.43909 0.80974 0.37774 0.0
C22 C 0.55531 0.69468 0.56722 0.0
C23 C 0.55499 0.84912 0.68892 0.0
O24 O 0.55091 0.83521 0.56002 0.0
O25 O 0.53521 0.82662 0.78995 0.0
O26 O 0.47748 0.80425 0.30671 0.0
O27 O 0.43848 0.79743 0.51076 0.0
O28 O 0.33534 0.0505 0.94675 0.0
Cd29 Cd 0.28321 1.00605 0.01544 0.0
Cd30 Cd 0.26076 1.00627 0.74122 0.0
O31 O 0.32677 0.03518 0.71658 0.0
O32 O 0.30445 0.97687 0.19935 0.0
O33 O 0.29778 0.93801 0.99509 0.0
C34 C 0.31005 0.93857 0.12814 0.0
C35 C 0.234 0.93887 0.62783 0.0
C36 C 0.34925 0.05482 0.81791 0.0
C37 C 0.19468 0.05465 0.93953 0.0
O38 O 0.20858 0.05055 0.81061 0.0
O39 O 0.21718 0.03486 0.04054 0.0
O40 O 0.23954 0.97726 0.55701 0.0
O41 O 0.2463 0.93818 0.76086 0.0
O42 O 0.99329 0.70832 0.05975 0.0
Cd43 Cd 0.03759 0.76044 0.99019 0.0
Cd44 Cd 0.03777 0.78304 0.2643 0.0
O45 O 1.00897 0.71706 0.28964 0.0
O46 O 0.06675 0.73913 0.80626 0.0
O47 O 0.10572 0.74606 0.01029 0.0
C48 C 0.10513 0.73367 0.87733 0.0
C49 C 0.10522 0.80994 0.37733 0.0
C50 C 0.98919 0.6945 0.18873 0.0
C51 C 0.98896 0.84888 0.06635 0.0
O52 O 0.99328 0.83507 0.19526 0.0
O53 O 1.00862 0.82636 0.96513 0.0
O54 O 0.06684 0.80435 0.44833 0.0
O55 O 0.10587 0.79764 0.24431 0.0
O56 O 0.83528 0.99289 0.81037 0.0
Cd57 Cd 0.78318 0.03735 0.7416 0.0
Cd58 Cd 0.76067 0.0372 0.01581 0.0
O59 O 0.82665 1.00823 0.04052 0.0
O60 O 0.80448 0.06654 0.55774 0.0
O61 O 0.79775 0.10539 0.76202 0.0
C62 C 0.81006 0.10484 0.62898 0.0
C63 C 0.73396 0.10459 0.12939 0.0
C64 C 0.84915 0.98857 0.93924 0.0
C65 C 0.6946 0.98882 0.81744 0.0
O66 O 0.70847 0.99295 0.94638 0.0
O67 O 0.71715 1.00856 0.71642 0.0
O68 O 0.73945 0.06617 0.20009 0.0
O69 O 0.74627 0.1053 0.99635 0.0
O70 O 0.05096 0.20823 0.19712 0.0
Cd71 Cd 1.00668 0.26039 0.26652 0.0
Cd72 Cd 1.0066 0.28292 0.99237 0.0
O73 O 0.03533 0.2169 0.96718 0.0
O74 O 0.97753 0.23915 0.45054 0.0
O75 O 0.93854 0.24602 0.24653 0.0
C76 C 0.93914 0.23368 0.37953 0.0
C77 C 0.93914 0.30989 0.87958 0.0
C78 C 0.05508 0.19436 0.06818 0.0
C79 C 0.05541 0.34877 0.19026 0.0
O80 O 0.05114 0.33491 0.06137 0.0
O81 O 0.03567 0.3263 0.29145 0.0
O82 O 0.97748 0.30424 0.80844 0.0
O83 O 0.93852 0.29758 0.01261 0.0
O84 O 0.83578 0.5507 0.44704 0.0
Cd85 Cd 0.78364 0.50643 0.51665 0.0
Cd86 Cd 0.76107 0.50618 0.24247 0.0
O87 O 0.82708 0.53501 0.21715 0.0
O88 O 0.80492 0.47737 0.70073 0.0
O89 O 0.79806 0.43835 0.49681 0.0
C90 C 0.8104 0.43899 0.62981 0.0
C91 C 0.73421 0.43868 0.12987 0.0
C92 C 0.84962 0.5548 0.31806 0.0
C93 C 0.69511 0.55496 0.44026 0.0
O94 O 0.70895 0.55062 0.31136 0.0
O95 O 0.71764 0.53535 0.54153 0.0
O96 O 0.73977 0.47697 0.05863 0.0
O97 O 0.74652 0.43813 0.26289 0.0
O98 O 0.4934 0.20843 0.56251 0.0
Cd99 Cd 0.53791 0.26048 0.49368 0.0
Cd100 Cd 0.53767 0.28296 0.76783 0.0
O101 O 0.50874 0.21702 0.79266 0.0
O102 O 0.56696 0.23923 0.30955 0.0
O103 O 0.60601 0.24584 0.51353 0.0
C104 C 0.60534 0.23358 0.38046 0.0
C105 C 0.60519 0.30973 0.88069 0.0
C106 C 0.48908 0.19455 0.69136 0.0
C107 C 0.48929 0.34897 0.56955 0.0
O108 O 0.49334 0.33509 0.69847 0.0
O109 O 0.50912 0.32648 0.46858 0.0
O110 O 0.56682 0.30422 0.95179 0.0
O111 O 0.60579 0.29738 0.74769 0.0
C112 C 0.3943 0.70534 0.09133 0.0
C113 C 0.39926 0.70818 0.94183 0.0
H114 H 0.36082 0.67111 0.26771 0.0
C115 C 0.3697 0.6813 0.85397 0.0
H116 H 0.41658 0.72572 0.16144 0.0
C117 C 0.33866 0.64913 0.91465 0.0
C118 C 0.33571 0.64431 0.06417 0.0
H119 H 0.37285 0.68268 0.73828 0.0
H120 H 0.31851 0.62664 0.84456 0.0
C121 C 0.36229 0.67414 0.152 0.0
C122 C 0.36946 0.86167 0.40187 0.0
C123 C 0.39921 0.83504 0.31387 0.0
H124 H 0.31801 0.91607 0.41163 0.0
C125 C 0.39431 0.83801 0.16437 0.0
H126 H 0.37256 0.86019 0.51756 0.0
C127 C 0.36218 0.86911 0.10389 0.0
C128 C 0.33542 0.89873 0.19191 0.0
H129 H 0.41673 0.81781 0.09415 0.0
H130 H 0.36076 0.87228 0.9882 0.0
C131 C 0.33831 0.89375 0.34139 0.0
C132 C 0.17465 0.86215 0.35346 0.0
C133 C 0.14504 0.83531 0.44129 0.0
H134 H 0.22593 0.91671 0.34408 0.0
C135 C 0.14999 0.83812 0.5908 0.0
H136 H 0.1715 0.86079 0.23776 0.0
C137 C 0.18206 0.86925 0.65149 0.0
C138 C 0.2087 0.89905 0.56369 0.0
H139 H 0.12768 0.81777 0.66089 0.0
H140 H 0.18353 0.87228 0.7672 0.0
C141 C 0.20574 0.89425 0.41416 0.0
C142 C 0.14995 0.70531 0.66412 0.0
C143 C 0.14502 0.70834 0.8136 0.0
H144 H 0.18353 0.67097 0.4881 0.0
C145 C 0.17473 0.68172 0.90172 0.0
H146 H 0.12756 0.7255 0.5938 0.0
C147 C 0.20589 0.64961 0.84138 0.0
C148 C 0.20881 0.64458 0.69192 0.0
H149 H 0.17161 0.68325 0.0174 0.0
H150 H 0.22617 0.62732 0.91171 0.0
C151 C 0.18208 0.67417 0.60378 0.0
C152 C 0.8622 0.17429 0.65331 0.0
C153 C 0.83544 0.14468 0.56526 0.0
H154 H 0.91674 0.22559 0.66312 0.0
C155 C 0.83835 0.14967 0.41578 0.0
H156 H 0.86076 0.17111 0.76899 0.0
C157 C 0.86952 0.18176 0.35535 0.0
C158 C 0.89925 0.20838 0.44338 0.0
H159 H 0.81806 0.12737 0.34552 0.0
H160 H 0.87262 0.18325 0.23965 0.0
C161 C 0.89434 0.2054 0.59287 0.0
C162 C 0.86975 0.36214 0.90378 0.0
C163 C 0.89932 0.33531 0.81579 0.0
H164 H 0.81851 0.41673 0.91346 0.0
C165 C 0.89434 0.33817 0.66631 0.0
H166 H 0.87293 0.36073 0.01947 0.0
C167 C 0.86229 0.36935 0.6058 0.0
C168 C 0.83569 0.39914 0.69376 0.0
H169 H 0.91662 0.31783 0.5961 0.0
H170 H 0.86079 0.37242 0.4901 0.0
C171 C 0.83867 0.39429 0.84326 0.0
C172 C 0.70594 0.3938 0.91674 0.0
C173 C 0.70884 0.39882 0.06621 0.0
H174 H 0.67169 0.36018 0.74068 0.0
C175 C 0.6821 0.36921 0.15431 0.0
H176 H 0.72623 0.4161 0.84644 0.0
C177 C 0.64998 0.33807 0.09393 0.0
C178 C 0.64507 0.33506 0.94445 0.0
H179 H 0.68354 0.3724 0.26999 0.0
H180 H 0.62758 0.31788 0.16423 0.0
C181 C 0.67479 0.36169 0.85636 0.0
C182 C 0.68208 0.17425 0.10599 0.0
C183 C 0.7087 0.14442 0.19366 0.0
H184 H 0.62774 0.22579 0.09683 0.0
C185 C 0.70578 0.14919 0.34321 0.0
H186 H 0.68353 0.17125 0.99027 0.0
C187 C 0.67473 0.18131 0.40405 0.0
C188 C 0.64513 0.20819 0.31635 0.0
H189 H 0.72597 0.1267 0.41319 0.0
H190 H 0.6716 0.18265 0.51976 0.0
C191 C 0.65005 0.2054 0.16683 0.0
C192 C 0.40162 0.44725 0.61642 0.0
C193 C 0.38976 0.45752 0.4736 0.0
H194 H 0.4425 0.40522 0.75878 0.0
C195 C 0.41426 0.4349 0.36259 0.0
H196 H 0.38365 0.46413 0.70458 0.0
C197 C 0.44811 0.40111 0.39364 0.0
C198 C 0.45817 0.38904 0.53644 0.0
H199 H 0.40627 0.44217 0.25127 0.0
H200 H 0.46513 0.38328 0.30546 0.0
C201 C 0.43539 0.41337 0.64747 0.0
C202 C 0.63011 0.93505 0.89555 0.0
C203 C 0.65452 0.9577 0.78442 0.0
H204 H 0.5793 0.88339 0.95292 0.0
C205 C 0.64256 0.94745 0.64166 0.0
H206 H 0.63818 0.9423 0.00682 0.0
C207 C 0.60878 0.91357 0.61077 0.0
C208 C 0.58609 0.88921 0.72191 0.0
H209 H 0.66045 0.96436 0.5534 0.0
H210 H 0.60159 0.90544 0.4995 0.0
C211 C 0.59625 0.90125 0.86466 0.0
C212 C 0.0964 0.14229 0.89236 0.0
C213 C 0.08618 0.15428 0.03513 0.0
H214 H 0.13837 0.10128 0.75016 0.0
C215 C 0.10881 0.12986 0.14624 0.0
H216 H 0.07949 0.16019 0.80412 0.0
C217 C 0.14259 0.09598 0.11532 0.0
C218 C 0.1546 0.08579 0.97255 0.0
H219 H 0.10158 0.13795 0.25752 0.0
H220 H 0.16044 0.07902 0.20356 0.0
C221 C 0.13025 0.10848 0.86144 0.0
C222 C 0.9479 0.64248 0.36477 0.0
C223 C 0.95808 0.65443 0.22195 0.0
H224 H 0.90598 0.6015 0.50718 0.0
C225 C 0.93541 0.62999 0.11095 0.0
H226 H 0.96484 0.6604 0.45292 0.0
C227 C 0.90165 0.59611 0.14204 0.0
C228 C 0.88968 0.58595 0.28486 0.0
H229 H 0.94261 0.63805 0.99963 0.0
H230 H 0.88377 0.57913 0.05388 0.0
C231 C 0.91406 0.60868 0.39585 0.0
C232 C 0.4136 0.10862 0.89689 0.0
C233 C 0.38933 0.08602 0.78541 0.0
H234 H 0.46436 0.16023 0.95499 0.0
C235 C 0.40145 0.09633 0.64282 0.0
H236 H 0.4054 0.10132 0.00805 0.0
C237 C 0.43528 0.13021 0.61242 0.0
C238 C 0.45786 0.1545 0.72389 0.0
H239 H 0.38366 0.07945 0.55432 0.0
H240 H 0.44261 0.13837 0.50125 0.0
C241 C 0.44751 0.14242 0.86649 0.0
C242 C 0.91348 0.9347 0.86046 0.0
C243 C 0.88921 0.95737 0.97185 0.0
H244 H 0.96423 0.88305 0.80256 0.0
C245 C 0.90133 0.94713 0.11448 0.0
H246 H 0.90528 0.94194 0.74927 0.0
C247 C 0.93516 0.91326 0.14501 0.0
C248 C 0.95774 0.8889 0.03364 0.0
H249 H 0.88355 0.96406 0.20292 0.0
H250 H 0.94249 0.90516 0.25621 0.0
C251 C 0.94738 0.90091 0.891 0.0
C252 C 0.10935 0.41303 0.11168 0.0
C253 C 0.08664 0.38878 0.22299 0.0
H254 H 0.16107 0.46374 0.05393 0.0
C255 C 0.09687 0.40087 0.36566 0.0
H256 H 0.10213 0.40485 1.00046 0.0
C257 C 0.13077 0.43466 0.39629 0.0
C258 C 0.15516 0.45723 0.28499 0.0
H259 H 0.07991 0.38309 0.45404 0.0
H260 H 0.13886 0.44197 0.50752 0.0
C261 C 0.14318 0.4469 0.14231 0.0
C262 C 0.59681 0.64253 0.392 0.0
C263 C 0.58653 0.65465 0.53462 0.0
H264 H 0.63884 0.6014 0.25031 0.0
C265 C 0.60919 0.6304 0.64603 0.0
H266 H 0.57989 0.66031 0.30355 0.0
C267 C 0.64301 0.59651 0.61553 0.0
C268 C 0.65505 0.58616 0.4729 0.0
H269 H 0.60192 0.63859 0.75722 0.0
H270 H 0.66086 0.57967 0.70399 0.0
C271 C 0.6307 0.60872 0.3615 0.0
loop_
_geom_bond_atom_site_label_1
_geom_bond_atom_site_label_2
_geom_bond_distance
_geom_bond_site_symmetry_2
_ccdc_geom_bond_type
O0 Cd1 2.223 . S
O0 C8 1.315 . S
Cd1 O0 2.223 . S
Cd1 O4 2.297 . S
Cd1 O5 2.439 . S
Cd1 O11 2.240 . S
Cd2 O3 2.240 . S
Cd2 O10 2.223 . S
Cd2 O12 2.297 . S
Cd2 O13 2.439 . S
O3 Cd2 2.240 . S
O3 C8 1.279 . S
O4 Cd1 2.297 . S
O4 C6 1.247 . S
O5 Cd1 2.439 . S
O5 C6 1.208 . S
C6 O4 1.247 . S
C6 O5 1.208 . S
C7 O12 1.247 . S
C7 O13 1.208 . S
C8 O0 1.315 . S
C8 O3 1.279 . S
C9 O10 1.315 . S
C9 O11 1.279 . S
O10 Cd2 2.223 . S
O10 C9 1.315 . S
O11 Cd1 2.240 . S
O11 C9 1.279 . S
O12 Cd2 2.297 . S
O12 C7 1.247 . S
O13 Cd2 2.439 . S
O13 C7 1.208 . S
O14 Cd15 2.223 . S
O14 C22 1.315 . S
Cd15 O14 2.223 . S
Cd15 O18 2.297 . S
Cd15 O19 2.439 . S
Cd15 O25 2.240 . S
Cd16 O17 2.240 . S
Cd16 O24 2.223 . S
Cd16 O26 2.297 . S
Cd16 O27 2.439 . S
O17 Cd16 2.240 . S
O17 C22 1.279 . S
O18 Cd15 2.297 . S
O18 C20 1.247 . S
O19 Cd15 2.439 . S
O19 C20 1.208 . S
C20 O18 1.247 . S
C20 O19 1.208 . S
C21 O26 1.247 . S
C21 O27 1.208 . S
C22 O14 1.315 . S
C22 O17 1.279 . S
C23 O24 1.315 . S
C23 O25 1.279 . S
O24 Cd16 2.223 . S
O24 C23 1.315 . S
O25 Cd15 2.240 . S
O25 C23 1.279 . S
O26 Cd16 2.297 . S
O26 C21 1.247 . S
O27 Cd16 2.439 . S
O27 C21 1.208 . S
O28 Cd29 2.223 1_556 S
O28 C36 1.315 . S
Cd29 O28 2.223 1_554 S
Cd29 O32 2.297 1_545 S
Cd29 O33 2.439 1_545 S
Cd29 O39 2.240 1_554 S
Cd30 O31 2.240 . S
Cd30 O38 2.223 . S
Cd30 O40 2.297 1_545 S
Cd30 O41 2.439 1_545 S
O31 Cd30 2.240 . S
O31 C36 1.279 . S
O32 Cd29 2.297 1_565 S
O32 C34 1.247 . S
O33 Cd29 2.439 1_565 S
O33 C34 1.208 . S
C34 O32 1.247 . S
C34 O33 1.208 . S
C35 O40 1.247 . S
C35 O41 1.208 . S
C36 O28 1.315 . S
C36 O31 1.279 . S
C37 O38 1.315 . S
C37 O39 1.279 . S
O38 Cd30 2.223 . S
O38 C37 1.315 . S
O39 Cd29 2.240 1_556 S
O39 C37 1.279 . S
O40 Cd30 2.297 1_565 S
O40 C35 1.247 . S
O41 Cd30 2.439 1_565 S
O41 C35 1.208 . S
O42 Cd43 2.223 1_554 S
O42 C50 1.315 . S
Cd43 O42 2.223 1_556 S
Cd43 O46 2.297 1_655 S
Cd43 O47 2.439 1_655 S
Cd43 O53 2.240 1_556 S
Cd44 O45 2.240 . S
Cd44 O52 2.223 . S
Cd44 O54 2.297 1_655 S
Cd44 O55 2.439 1_655 S
O45 Cd44 2.240 . S
O45 C50 1.279 . S
O46 Cd43 2.297 1_455 S
O46 C48 1.247 . S
O47 Cd43 2.439 1_455 S
O47 C48 1.208 . S
C48 O46 1.247 . S
C48 O47 1.208 . S
C49 O54 1.247 . S
C49 O55 1.208 . S
C50 O42 1.315 . S
C50 O45 1.279 . S
C51 O52 1.315 . S
C51 O53 1.279 . S
O52 Cd44 2.223 . S
O52 C51 1.315 . S
O53 Cd43 2.240 1_554 S
O53 C51 1.279 . S
O54 Cd44 2.297 1_455 S
O54 C49 1.247 . S
O55 Cd44 2.439 1_455 S
O55 C49 1.208 . S
O56 Cd57 2.223 . S
O56 C64 1.315 . S
Cd57 O56 2.223 . S
Cd57 O60 2.297 1_565 S
Cd57 O61 2.439 1_565 S
Cd57 O67 2.240 . S
Cd58 O59 2.240 1_554 S
Cd58 O66 2.223 1_554 S
Cd58 O68 2.297 1_565 S
Cd58 O69 2.439 1_565 S
O59 Cd58 2.240 1_556 S
O59 C64 1.279 . S
O60 Cd57 2.297 1_545 S
O60 C62 1.247 . S
O61 Cd57 2.439 1_545 S
O61 C62 1.208 . S
C62 O60 1.247 . S
C62 O61 1.208 . S
C63 O68 1.247 . S
C63 O69 1.208 . S
C64 O56 1.315 . S
C64 O59 1.279 . S
C65 O66 1.315 . S
C65 O67 1.279 . S
O66 Cd58 2.223 1_556 S
O66 C65 1.315 . S
O67 Cd57 2.240 . S
O67 C65 1.279 . S
O68 Cd58 2.297 1_545 S
O68 C63 1.247 . S
O69 Cd58 2.439 1_545 S
O69 C63 1.208 . S
O70 Cd71 2.223 . S
O70 C78 1.315 . S
Cd71 O70 2.223 . S
Cd71 O74 2.297 1_455 S
Cd71 O75 2.439 1_455 S
Cd71 O81 2.240 . S
Cd72 O73 2.240 1_556 S
Cd72 O80 2.223 1_556 S
Cd72 O82 2.297 1_455 S
Cd72 O83 2.439 1_455 S
O73 Cd72 2.240 1_554 S
O73 C78 1.279 . S
O74 Cd71 2.297 1_655 S
O74 C76 1.247 . S
O75 Cd71 2.439 1_655 S
O75 C76 1.208 . S
C76 O74 1.247 . S
C76 O75 1.208 . S
C77 O82 1.247 . S
C77 O83 1.208 . S
C78 O70 1.315 . S
C78 O73 1.279 . S
C79 O80 1.315 . S
C79 O81 1.279 . S
O80 Cd72 2.223 1_554 S
O80 C79 1.315 . S
O81 Cd71 2.240 . S
O81 C79 1.279 . S
O82 Cd72 2.297 1_655 S
O82 C77 1.247 . S
O83 Cd72 2.439 1_655 S
O83 C77 1.208 . S
O84 Cd85 2.223 . S
O84 C92 1.315 . S
Cd85 O84 2.223 . S
Cd85 O88 2.297 . S
Cd85 O89 2.439 . S
Cd85 O95 2.240 . S
Cd86 O87 2.240 . S
Cd86 O94 2.223 . S
Cd86 O96 2.297 . S
Cd86 O97 2.439 . S
O87 Cd86 2.240 . S
O87 C92 1.279 . S
O88 Cd85 2.297 . S
O88 C90 1.247 . S
O89 Cd85 2.439 . S
O89 C90 1.208 . S
C90 O88 1.247 . S
C90 O89 1.208 . S
C91 O96 1.247 . S
C91 O97 1.208 . S
C92 O84 1.315 . S
C92 O87 1.279 . S
C93 O94 1.315 . S
C93 O95 1.279 . S
O94 Cd86 2.223 . S
O94 C93 1.315 . S
O95 Cd85 2.240 . S
O95 C93 1.279 . S
O96 Cd86 2.297 . S
O96 C91 1.247 . S
O97 Cd86 2.439 . S
O97 C91 1.208 . S
O98 Cd99 2.223 . S
O98 C106 1.315 . S
Cd99 O98 2.223 . S
Cd99 O102 2.297 . S
Cd99 O103 2.439 . S
Cd99 O109 2.240 . S
Cd100 O101 2.240 . S
Cd100 O108 2.223 . S
Cd100 O110 2.297 . S
Cd100 O111 2.439 . S
O101 Cd100 2.240 . S
O101 C106 1.279 . S
O102 Cd99 2.297 . S
O102 C104 1.247 . S
O103 Cd99 2.439 . S
O103 C104 1.208 . S
C104 O102 1.247 . S
C104 O103 1.208 . S
C105 O110 1.247 . S
C105 O111 1.208 . S
C106 O98 1.315 . S
C106 O101 1.279 . S
C107 O108 1.315 . S
C107 O109 1.279 . S
O108 Cd100 2.223 . S
O108 C107 1.315 . S
O109 Cd99 2.240 . S
O109 C107 1.279 . S
O110 Cd100 2.297 . S
O110 C105 1.247 . S
O111 Cd100 2.439 . S
O111 C105 1.208 . S
C112 C113 1.387 . S
C112 H116 0.950 . S
C112 C121 1.390 1_556 S
C113 C112 1.387 . S
C113 C115 1.387 . S
H114 C121 0.950 . S
C115 C113 1.387 . S
C115 C117 1.390 1_556 S
C115 H119 0.950 . S
H116 C112 0.950 . S
C117 C115 1.390 1_554 S
C117 C118 1.387 . S
C117 H120 0.950 . S
C118 C117 1.387 . S
C118 C121 1.387 . S
H119 C115 0.950 . S
H120 C117 0.950 . S
C121 C112 1.390 1_554 S
C121 H114 0.950 . S
C121 C118 1.387 . S
C122 C123 1.387 . S
C122 H126 0.950 . S
C122 C131 1.390 . S
C123 C122 1.387 . S
C123 C125 1.387 . S
H124 C131 0.950 . S
C125 C123 1.387 . S
C125 C127 1.390 . S
C125 H129 0.950 . S
H126 C122 0.950 . S
C127 C125 1.390 . S
C127 C128 1.387 . S
C127 H130 0.950 . S
C128 C127 1.387 . S
C128 C131 1.387 . S
H129 C125 0.950 . S
H130 C127 0.950 . S
C131 C122 1.390 . S
C131 H124 0.950 . S
C131 C128 1.387 . S
C132 C133 1.387 . S
C132 H136 0.950 . S
C132 C141 1.390 . S
C133 C132 1.387 . S
C133 C135 1.387 . S
H134 C141 0.950 . S
C135 C133 1.387 . S
C135 C137 1.390 . S
C135 H139 0.950 . S
H136 C132 0.950 . S
C137 C135 1.390 . S
C137 C138 1.387 . S
C137 H140 0.950 . S
C138 C137 1.387 . S
C138 C141 1.387 . S
H139 C135 0.950 . S
H140 C137 0.950 . S
C141 C132 1.390 . S
C141 H134 0.950 . S
C141 C138 1.387 . S
C142 C143 1.387 . S
C142 H146 0.950 . S
C142 C151 1.390 . S
C143 C142 1.387 . S
C143 C145 1.387 . S
H144 C151 0.950 . S
C145 C143 1.387 . S
C145 C147 1.390 . S
C145 H149 0.950 . S
H146 C142 0.950 . S
C147 C145 1.390 . S
C147 C148 1.387 . S
C147 H150 0.950 . S
C148 C147 1.387 . S
C148 C151 1.387 . S
H149 C145 0.950 . S
H150 C147 0.950 . S
C151 C142 1.390 . S
C151 H144 0.950 . S
C151 C148 1.387 . S
C152 C153 1.387 . S
C152 H156 0.950 . S
C152 C161 1.390 . S
C153 C152 1.387 . S
C153 C155 1.387 . S
H154 C161 0.950 . S
C155 C153 1.387 . S
C155 C157 1.390 . S
C155 H159 0.950 . S
H156 C152 0.950 . S
C157 C155 1.390 . S
C157 C158 1.387 . S
C157 H160 0.950 . S
C158 C157 1.387 . S
C158 C161 1.387 . S
H159 C155 0.950 . S
H160 C157 0.950 . S
C161 C152 1.390 . S
C161 H154 0.950 . S
C161 C158 1.387 . S
C162 C163 1.387 . S
C162 H166 0.950 . S
C162 C171 1.390 . S
C163 C162 1.387 . S
C163 C165 1.387 . S
H164 C171 0.950 . S
C165 C163 1.387 . S
C165 C167 1.390 . S
C165 H169 0.950 . S
H166 C162 0.950 . S
C167 C165 1.390 . S
C167 C168 1.387 . S
C167 H170 0.950 . S
C168 C167 1.387 . S
C168 C171 1.387 . S
H169 C165 0.950 . S
H170 C167 0.950 . S
C171 C162 1.390 . S
C171 H164 0.950 . S
C171 C168 1.387 . S
C172 C173 1.387 1_556 S
C172 H176 0.950 . S
C172 C181 1.390 . S
C173 C172 1.387 1_554 S
C173 C175 1.387 . S
H174 C181 0.950 . S
C175 C173 1.387 . S
C175 C177 1.390 . S
C175 H179 0.950 . S
H176 C172 0.950 . S
C177 C175 1.390 . S
C177 C178 1.387 1_554 S
C177 H180 0.950 . S
C178 C177 1.387 1_556 S
C178 C181 1.387 . S
H179 C175 0.950 . S
H180 C177 0.950 . S
C181 C172 1.390 . S
C181 H174 0.950 . S
C181 C178 1.387 . S
C182 C183 1.387 . S
C182 H186 0.950 . S
C182 C191 1.390 . S
C183 C182 1.387 . S
C183 C185 1.387 . S
H184 C191 0.950 . S
C185 C183 1.387 . S
C185 C187 1.390 . S
C185 H189 0.950 . S
H186 C182 0.950 . S
C187 C185 1.390 . S
C187 C188 1.387 . S
C187 H190 0.950 . S
C188 C187 1.387 . S
C188 C191 1.387 . S
H189 C185 0.950 . S
H190 C187 0.950 . S
C191 C182 1.390 . S
C191 H184 0.950 . S
C191 C188 1.387 . S
C192 C193 1.387 . S
C192 H196 0.950 . S
C192 C201 1.390 . S
C193 C192 1.387 . S
C193 C195 1.387 . S
H194 C201 0.950 . S
C195 C193 1.387 . S
C195 C197 1.390 . S
C195 H199 0.950 . S
H196 C192 0.950 . S
C197 C195 1.390 . S
C197 C198 1.387 . S
C197 H200 0.950 . S
C198 C197 1.387 . S
C198 C201 1.387 . S
H199 C195 0.950 . S
H200 C197 0.950 . S
C201 C192 1.390 . S
C201 H194 0.950 . S
C201 C198 1.387 . S
C202 C203 1.387 . S
C202 H206 0.950 . S
C202 C211 1.390 . S
C203 C202 1.387 . S
C203 C205 1.387 . S
H204 C211 0.950 . S
C205 C203 1.387 . S
C205 C207 1.390 . S
C205 H209 0.950 . S
H206 C202 0.950 . S
C207 C205 1.390 . S
C207 C208 1.387 . S
C207 H210 0.950 . S
C208 C207 1.387 . S
C208 C211 1.387 . S
H209 C205 0.950 . S
H210 C207 0.950 . S
C211 C202 1.390 . S
C211 H204 0.950 . S
C211 C208 1.387 . S
C212 C213 1.387 1_556 S
C212 H216 0.950 . S
C212 C221 1.390 . S
C213 C212 1.387 1_554 S
C213 C215 1.387 . S
H214 C221 0.950 . S
C215 C213 1.387 . S
C215 C217 1.390 . S
C215 H219 0.950 . S
H216 C212 0.950 . S
C217 C215 1.390 . S
C217 C218 1.387 1_554 S
C217 H220 0.950 . S
C218 C217 1.387 1_556 S
C218 C221 1.387 . S
H219 C215 0.950 . S
H220 C217 0.950 . S
C221 C212 1.390 . S
C221 H214 0.950 . S
C221 C218 1.387 . S
C222 C223 1.387 . S
C222 H226 0.950 . S
C222 C231 1.390 . S
C223 C222 1.387 . S
C223 C225 1.387 . S
H224 C231 0.950 . S
C225 C223 1.387 . S
C225 C227 1.390 . S
C225 H229 0.950 . S
H226 C222 0.950 . S
C227 C225 1.390 . S
C227 C228 1.387 . S
C227 H230 0.950 . S
C228 C227 1.387 . S
C228 C231 1.387 . S
H229 C225 0.950 . S
H230 C227 0.950 . S
C231 C222 1.390 . S
C231 H224 0.950 . S
C231 C228 1.387 . S
C232 C233 1.387 . S
C232 H236 0.950 . S
C232 C241 1.390 . S
C233 C232 1.387 . S
C233 C235 1.387 . S
H234 C241 0.950 . S
C235 C233 1.387 . S
C235 C237 1.390 . S
C235 H239 0.950 . S
H236 C232 0.950 . S
C237 C235 1.390 . S
C237 C238 1.387 . S
C237 H240 0.950 . S
C238 C237 1.387 . S
C238 C241 1.387 . S
H239 C235 0.950 . S
H240 C237 0.950 . S
C241 C232 1.390 . S
C241 H234 0.950 . S
C241 C238 1.387 . S
C242 C243 1.387 . S
C242 H246 0.950 . S
C242 C251 1.390 1_556 S
C243 C242 1.387 . S
C243 C245 1.387 . S
H244 C251 0.950 . S
C245 C243 1.387 . S
C245 C247 1.390 1_556 S
C245 H249 0.950 . S
H246 C242 0.950 . S
C247 C245 1.390 1_554 S
C247 C248 1.387 . S
C247 H250 0.950 . S
C248 C247 1.387 . S
C248 C251 1.387 . S
H249 C245 0.950 . S
H250 C247 0.950 . S
C251 C242 1.390 1_554 S
C251 H244 0.950 . S
C251 C248 1.387 . S
C252 C253 1.387 . S
C252 H256 0.950 . S
C252 C261 1.390 . S
C253 C252 1.387 . S
C253 C255 1.387 . S
H254 C261 0.950 . S
C255 C253 1.387 . S
C255 C257 1.390 . S
C255 H259 0.950 . S
H256 C252 0.950 . S
C257 C255 1.390 . S
C257 C258 1.387 . S
C257 H260 0.950 . S
C258 C257 1.387 . S
C258 C261 1.387 . S
H259 C255 0.950 . S
H260 C257 0.950 . S
C261 C252 1.390 . S
C261 H254 0.950 . S
C261 C258 1.387 . S
C262 C263 1.387 . S
C262 H266 0.950 . S
C262 C271 1.390 . S
C263 C262 1.387 . S
C263 C265 1.387 . S
H264 C271 0.950 . S
C265 C263 1.387 . S
C265 C267 1.390 . S
C265 H269 0.950 . S
H266 C262 0.950 . S
C267 C265 1.390 . S
C267 C268 1.387 . S
C267 H270 0.950 . S
C268 C267 1.387 . S
C268 C271 1.387 . S
H269 C265 0.950 . S
H270 C267 0.950 . S
C271 C262 1.390 . S
C271 H264 0.950 . S
C271 C268 1.387 . S
C113 C20 1.513 . S
C118 C6 1.514 . S
C123 C21 1.507 . S
C128 C34 1.504 . S
C133 C49 1.499 . S
C138 C35 1.494 . S
C143 C48 1.505 . S
C148 C7 1.504 . S
C153 C62 1.497 . S
C158 C76 1.493 . S
C163 C77 1.507 . S
C168 C90 1.505 . S
C173 C91 1.514 . S
C178 C105 1.515 . S
C183 C63 1.505 . S
C188 C104 1.503 . S
C193 C8 1.544 . S
C198 C107 1.545 . S
C203 C65 1.556 . S
C208 C23 1.556 . S
C213 C78 1.565 . S
C218 C37 1.570 . S
C223 C50 1.556 . S
C228 C92 1.557 . S
C233 C36 1.556 . S
C238 C106 1.557 . S
C243 C64 1.566 . S
C248 C51 1.570 . S
C253 C79 1.555 . S
C258 C9 1.556 . S
C263 C22 1.544 . S
C268 C93 1.545 . S
