# Generated by pormake.
# Topology unm, (4)-cn, num edge types: 1
# Building blocks:
#     Node 0, Type 0, BuildingBlock: QUQFOY_clean_sbu_3, # of connection points: 4
#     Node 1, Type 0, BuildingBlock: QUQFOY_clean_sbu_3, # of connection points: 4
#     Node 2, Type 0, BuildingBlock: QUQFOY_clean_sbu_3, # of connection points: 4
#     Node 3, Type 0, BuildingBlock: QUQFOY_clean_sbu_3, # of connection points: 4
#     Node 4, Type 0, BuildingBlock: QUQFOY_clean_sbu_3, # of connection points: 4
#     Node 5, Type 0, BuildingBlock: QUQFOY_clean_sbu_3, # of connection points: 4
#     Node 6, Type 0, BuildingBlock: QUQFOY_clean_sbu_3, # of connection points: 4
#     Node 7, Type 0, BuildingBlock: QUQFOY_clean_sbu_3, # of connection points: 4
#     Edge 8, Type (0, 0), BuildingBlock: UVAHIK_clean_linker_0, # of connection points: 2
#     Edge 9, Type (0, 0), BuildingBlock: UVAHIK_clean_linker_0, # of connection points: 2
#     Edge 10, Type (0, 0), BuildingBlock: UVAHIK_clean_linker_0, # of connection points: 2
#     Edge 11, Type (0, 0), BuildingBlock: UVAHIK_clean_linker_0, # of connection points: 2
#     Edge 12, Type (0, 0), BuildingBlock: UVAHIK_clean_linker_0, # of connection points: 2
#     Edge 13, Type (0, 0), BuildingBlock: UVAHIK_clean_linker_0, # of connection points: 2
#     Edge 14, Type (0, 0), BuildingBlock: UVAHIK_clean_linker_0, # of connection points: 2
#     Edge 15, Type (0, 0), BuildingBlock: UVAHIK_clean_linker_0, # of connection points: 2
#     Edge 16, Type (0, 0), BuildingBlock: UVAHIK_clean_linker_0, # of connection points: 2
#     Edge 17, Type (0, 0), BuildingBlock: UVAHIK_clean_linker_0, # of connection points: 2
#     Edge 18, Type (0, 0), BuildingBlock: UVAHIK_clean_linker_0, # of connection points: 2
#     Edge 19, Type (0, 0), BuildingBlock: UVAHIK_clean_linker_0, # of connection points: 2
#     Edge 20, Type (0, 0), BuildingBlock: UVAHIK_clean_linker_0, # of connection points: 2
#     Edge 21, Type (0, 0), BuildingBlock: UVAHIK_clean_linker_0, # of connection points: 2
#     Edge 22, Type (0, 0), BuildingBlock: UVAHIK_clean_linker_0, # of connection points: 2
#     Edge 23, Type (0, 0), BuildingBlock: UVAHIK_clean_linker_0, # of connection points: 2
# Relax obj value: 0.176
# Max RMSD: 0.149
# Mean RMSD: 0.149
data_MOF--net-unm--node1-QUQFOY_clean_sbu_3--edge1-UVAHIK_clean_linker_0
_symmetry_space_group_name_H-M    P1
_symmetry_Int_Tables_number       1
_symmetry_cell_setting            triclinic
loop_
_symmetry_equiv_pos_as_xyz
'x, y, z'
_cell_length_a     35.061081
_cell_length_b     35.076565
_cell_length_c     60.187783
_cell_angle_alpha  89.916741
_cell_angle_beta   89.974147
_cell_angle_gamma 89.90991
loop_
_atom_site_label
_atom_site_type_symbol
_atom_site_fract_x
_atom_site_fract_y
_atom_site_fract_z
_atom_type_partial_charge
C0 C 0.04015 0.18387 0.1576 0.0
O1 O 0.03184 0.17457 0.1378 0.0
Cd2 Cd 0.06574 0.19473 0.10511 0.0
O3 O 0.07142 0.20109 0.16186 0.0
Cd4 Cd 0.1294 0.22327 0.1404 0.0
C5 C 0.06917 0.28967 0.11911 0.0
O6 O 0.13153 0.18021 0.10818 0.0
O7 O 0.16068 0.23385 0.10448 0.0
O8 O 0.1809 0.19642 0.16371 0.0
C9 C 0.15205 0.2018 0.09617 0.0
O10 O 0.05717 0.26396 0.10591 0.0
C11 C 0.1948 0.22854 0.1692 0.0
O12 O 0.09372 0.28211 0.13411 0.0
O13 O 0.17754 0.25794 0.162 0.0
C14 C 0.24811 0.53894 0.65784 0.0
O15 O 0.25878 0.53061 0.63826 0.0
Cd16 Cd 0.2414 0.56476 0.60509 0.0
O17 O 0.23089 0.5704 0.66172 0.0
Cd18 Cd 0.21097 0.62881 0.63984 0.0
C19 C 0.14574 0.56887 0.61742 0.0
O20 O 0.25653 0.63035 0.60861 0.0
O21 O 0.2037 0.66069 0.60392 0.0
O22 O 0.23526 0.67758 0.66599 0.0
C23 C 0.23609 0.65147 0.59625 0.0
O24 O 0.17206 0.55687 0.60457 0.0
C25 C 0.20327 0.69429 0.66839 0.0
O26 O 0.15263 0.59321 0.63259 0.0
O27 O 0.17506 0.67969 0.65827 0.0
C28 C 0.89666 0.75138 0.15738 0.0
O29 O 0.90499 0.76067 0.13756 0.0
Cd30 Cd 0.87103 0.74078 0.10489 0.0
O31 O 0.86534 0.73424 0.16168 0.0
Cd32 Cd 0.80734 0.71224 0.14027 0.0
C33 C 0.8673 0.64577 0.11889 0.0
O34 O 0.80527 0.75553 0.10807 0.0
O35 O 0.77592 0.702 0.10437 0.0
O36 O 0.75585 0.73901 0.16361 0.0
C37 C 0.78461 0.73409 0.0961 0.0
O38 O 0.87938 0.6715 0.10567 0.0
C39 C 0.74191 0.70688 0.16911 0.0
O40 O 0.84281 0.65335 0.13391 0.0
O41 O 0.75915 0.6775 0.16189 0.0
C42 C 0.68748 0.39746 0.6572 0.0
O43 O 0.67715 0.40553 0.63751 0.0
Cd44 Cd 0.69509 0.37122 0.60458 0.0
O45 O 0.70471 0.36609 0.66137 0.0
Cd46 Cd 0.72485 0.30747 0.63976 0.0
C47 C 0.79058 0.36696 0.61729 0.0
O48 O 0.67959 0.30577 0.60841 0.0
O49 O 0.7324 0.27533 0.60396 0.0
O50 O 0.70039 0.25871 0.66599 0.0
C51 C 0.70008 0.28452 0.59619 0.0
O52 O 0.76449 0.37896 0.60428 0.0
C53 C 0.73239 0.24205 0.66849 0.0
O54 O 0.78338 0.34277 0.63254 0.0
O55 O 0.76066 0.25671 0.65841 0.0
C56 C 0.53995 0.25133 0.29818 0.0
O57 O 0.53144 0.26054 0.31798 0.0
Cd58 Cd 0.56515 0.2402 0.35065 0.0
O59 O 0.5713 0.23412 0.29397 0.0
Cd60 Cd 0.6291 0.21194 0.31557 0.0
C61 C 0.5691 0.14533 0.33666 0.0
O62 O 0.6309 0.25508 0.34775 0.0
O63 O 0.66007 0.20149 0.35172 0.0
O64 O 0.68079 0.23876 0.29236 0.0
C65 C 0.65126 0.23361 0.35993 0.0
O66 O 0.55686 0.17099 0.34984 0.0
C67 C 0.69486 0.20665 0.28692 0.0
O68 O 0.59373 0.15297 0.32172 0.0
O69 O 0.67766 0.17726 0.29412 0.0
C70 C 0.18302 0.0367 0.80028 0.0
O71 O 0.17718 0.02876 0.8206 0.0
Cd72 Cd 0.19662 0.06489 0.85236 0.0
O73 O 0.19769 0.06875 0.79479 0.0
Cd74 Cd 0.22112 0.12726 0.81538 0.0
C75 C 0.29036 0.0699 0.83669 0.0
O76 O 0.17896 0.12966 0.84799 0.0
O77 O 0.23182 0.16014 0.85104 0.0
O78 O 0.19287 0.1782 0.79212 0.0
C79 C 0.20003 0.15115 0.85962 0.0
O80 O 0.26584 0.05851 0.85084 0.0
C81 C 0.22461 0.19243 0.78613 0.0
O82 O 0.28117 0.0929 0.82116 0.0
O83 O 0.25447 0.17551 0.79294 0.0
C84 C 0.39655 0.68368 0.29809 0.0
O85 O 0.405 0.67435 0.31789 0.0
Cd86 Cd 0.37129 0.69468 0.35054 0.0
O87 O 0.36524 0.70097 0.29388 0.0
Cd88 Cd 0.30743 0.72315 0.31546 0.0
C89 C 0.36755 0.7896 0.33645 0.0
O90 O 0.3055 0.67999 0.3477 0.0
O91 O 0.27647 0.73366 0.3516 0.0
O92 O 0.25576 0.69637 0.29229 0.0
C93 C 0.28521 0.70152 0.35986 0.0
O94 O 0.37973 0.76386 0.34965 0.0
C95 C 0.24171 0.72849 0.2868 0.0
O96 O 0.34291 0.78206 0.32153 0.0
O97 O 0.25891 0.75787 0.29395 0.0
C98 C 0.75242 0.89881 0.80025 0.0
O99 O 0.75813 0.90665 0.82058 0.0
Cd100 Cd 0.73867 0.8704 0.85236 0.0
O101 O 0.73784 0.86677 0.79473 0.0
Cd102 Cd 0.71437 0.80808 0.81526 0.0
C103 C 0.64502 0.86537 0.83655 0.0
O104 O 0.75638 0.80569 0.84789 0.0
O105 O 0.70372 0.77486 0.85089 0.0
O106 O 0.74232 0.75721 0.79183 0.0
C107 C 0.73537 0.78406 0.85952 0.0
O108 O 0.66943 0.87676 0.85074 0.0
C109 C 0.71046 0.74322 0.7859 0.0
O110 O 0.65434 0.84241 0.82106 0.0
O111 O 0.68075 0.76021 0.79286 0.0
C112 C 0.18373 0.21704 0.05991 0.0
C113 C 0.15887 0.19387 0.07227 0.0
C114 C 0.18796 0.21179 0.037 0.0
C115 C 0.16895 0.1432 -0.00904 0.0
H116 H 0.18069 0.2335 0.95433 0.0
C117 C 0.16311 0.13843 0.89466 0.0
C118 C 0.19212 0.15839 0.88347 0.0
C119 C 0.15786 0.14299 0.91758 0.0
C120 C 0.17767 0.20799 0.96434 0.0
H121 H 0.11937 0.14651 0.0703 0.0
H122 H 0.12606 0.13783 0.03027 0.0
H123 H 0.17453 0.24006 -0.00554 0.0
H124 H 0.23767 0.19952 0.8875 0.0
H125 H 0.22819 0.20782 0.92739 0.0
H126 H 0.17155 0.11128 0.96063 0.0
C127 C 0.1429 0.15968 0.03829 0.0
C128 C 0.17432 0.21169 -0.0126 0.0
C129 C 0.13895 0.16473 0.06127 0.0
C130 C 0.21506 0.18375 0.89561 0.0
C131 C 0.20954 0.18861 0.91846 0.0
C132 C 0.17197 0.13955 0.96784 0.0
C133 C 0.16713 0.18346 0.02576 0.0
C134 C 0.17019 0.17934 0.00109 0.0
C135 C 0.18119 0.16794 0.92978 0.0
C136 C 0.17661 0.17189 0.95428 0.0
H137 H 0.1997 0.23956 0.06789 0.0
H138 H 0.20758 0.2301 0.0281 0.0
H139 H 0.16636 0.11758 0.00089 0.0
H140 H 0.14501 0.1186 0.88581 0.0
H141 H 0.13551 0.12696 0.92577 0.0
C142 C 0.22392 0.68473 0.56012 0.0
C143 C 0.24556 0.65857 0.57257 0.0
C144 C 0.23044 0.68946 0.53736 0.0
C145 C 0.26768 0.63926 0.48842 0.0
H146 H 0.26729 0.73985 0.46167 0.0
C147 C 0.29894 0.66402 0.39461 0.0
C148 C 0.27907 0.69355 0.38382 0.0
C149 C 0.29568 0.65895 0.41764 0.0
C150 C 0.26693 0.71147 0.46877 0.0
H151 H 0.29149 0.61722 0.5709 0.0
H152 H 0.30278 0.62537 0.53101 0.0
H153 H 0.26144 0.73342 0.50181 0.0
H154 H 0.23905 0.73997 0.38863 0.0
H155 H 0.23243 0.7305 0.42851 0.0
H156 H 0.27235 0.61721 0.45536 0.0
C157 C 0.28067 0.64214 0.53892 0.0
C158 C 0.26377 0.70784 0.49184 0.0
C159 C 0.27442 0.63771 0.5618 0.0
C160 C 0.25497 0.71711 0.39645 0.0
C161 C 0.25146 0.71187 0.4194 0.0
C162 C 0.27054 0.64287 0.46528 0.0
C163 C 0.25855 0.66789 0.52641 0.0
C164 C 0.26386 0.6717 0.50195 0.0
C165 C 0.27225 0.68314 0.43041 0.0
C166 C 0.26993 0.67904 0.45511 0.0
H167 H 0.20145 0.70123 0.5679 0.0
H168 H 0.21267 0.70928 0.5282 0.0
H169 H 0.26738 0.61098 0.49567 0.0
H170 H 0.31792 0.6455 0.38538 0.0
H171 H 0.31241 0.63674 0.42549 0.0
C172 C 0.79715 0.7718 0.06128 0.0
C173 C 0.77746 0.74239 0.07226 0.0
C174 C 0.79267 0.77736 0.03836 0.0
C175 C 0.72818 0.75731 -0.0087 0.0
H176 H 0.81873 0.77 0.95505 0.0
C177 C 0.72002 0.75187 0.89564 0.0
C178 C 0.74302 0.77714 0.88345 0.0
C179 C 0.72507 0.74752 0.91857 0.0
C180 C 0.79305 0.76702 0.9649 0.0
H181 H 0.73684 0.69646 0.06789 0.0
H182 H 0.72869 0.70646 0.02804 0.0
H183 H 0.82481 0.76465 -0.00468 0.0
H184 H 0.78982 0.81724 0.88575 0.0
H185 H 0.79815 0.81032 0.92578 0.0
H186 H 0.69627 0.7602 0.96108 0.0
C187 C 0.74764 0.7252 0.03711 0.0
C188 C 0.79659 0.76392 -0.01198 0.0
C189 C 0.75242 0.71938 0.05994 0.0
C190 C 0.77175 0.79736 0.89464 0.0
C191 C 0.7766 0.79327 0.91762 0.0
C192 C 0.72459 0.76075 0.96823 0.0
C193 C 0.76805 0.75393 0.02598 0.0
C194 C 0.76421 0.75878 0.00148 0.0
C195 C 0.75303 0.7686 0.92997 0.0
C196 C 0.75699 0.76537 0.95465 0.0
H197 H 0.81673 0.78997 0.07027 0.0
H198 H 0.8085 0.79999 0.03031 0.0
H199 H 0.70262 0.7539 0.00122 0.0
H200 H 0.69778 0.73568 0.8875 0.0
H201 H 0.70692 0.72759 0.92735 0.0
C202 C 0.63752 0.27114 0.39461 0.0
C203 C 0.65741 0.24162 0.38386 0.0
C204 C 0.64082 0.27627 0.41762 0.0
C205 C 0.66982 0.22397 0.46885 0.0
H206 H 0.66908 0.32454 0.49546 0.0
C207 C 0.71252 0.25115 0.56016 0.0
C208 C 0.69076 0.27731 0.57252 0.0
C209 C 0.70611 0.24632 0.53741 0.0
C210 C 0.66887 0.29624 0.4883 0.0
H211 H 0.69752 0.1953 0.38874 0.0
H212 H 0.70423 0.20486 0.42859 0.0
H213 H 0.66414 0.31817 0.45518 0.0
H214 H 0.64472 0.31852 0.57068 0.0
H215 H 0.63362 0.3102 0.53081 0.0
H216 H 0.67536 0.20215 0.50196 0.0
C217 C 0.68514 0.22343 0.41945 0.0
C218 C 0.66602 0.29255 0.46518 0.0
C219 C 0.68159 0.21813 0.39652 0.0
C220 C 0.66189 0.29805 0.56165 0.0
C221 C 0.65574 0.29351 0.53879 0.0
C222 C 0.67297 0.22769 0.49191 0.0
C223 C 0.66433 0.25216 0.43042 0.0
C224 C 0.66671 0.25634 0.4551 0.0
C225 C 0.67799 0.26778 0.52638 0.0
C226 C 0.67276 0.26386 0.50192 0.0
H227 H 0.61847 0.28961 0.38535 0.0
H228 H 0.62406 0.29847 0.42543 0.0
H229 H 0.66953 0.19556 0.46183 0.0
H230 H 0.735 0.23475 0.56802 0.0
H231 H 0.72397 0.22652 0.52832 0.0
C232 C 0.24037 0.26647 0.19252 0.0
C233 C 0.23042 0.23175 0.18242 0.0
C234 C 0.27478 0.2701 0.20413 0.0
C235 C 0.3718 0.23199 0.20766 0.0
H236 H 0.37203 0.27375 0.2672 0.0
C237 C 0.50639 0.22813 0.26396 0.0
C238 C 0.51022 0.25559 0.28079 0.0
C239 C 0.47377 0.22741 0.25049 0.0
C240 C 0.37287 0.26281 0.25041 0.0
H241 H 0.24901 0.17367 0.17651 0.0
H242 H 0.30956 0.18032 0.19643 0.0
H243 H 0.31217 0.26796 0.2471 0.0
H244 H 0.48419 0.30548 0.29559 0.0
H245 H 0.42869 0.30582 0.27133 0.0
H246 H 0.43248 0.22773 0.21056 0.0
C247 C 0.2905 0.2046 0.19546 0.0
C248 C 0.33832 0.25921 0.23896 0.0
C249 C 0.25572 0.20073 0.18421 0.0
C250 C 0.48196 0.2838 0.28285 0.0
C251 C 0.44979 0.2836 0.26909 0.0
C252 C 0.40652 0.23622 0.21894 0.0
C253 C 0.30042 0.23933 0.20554 0.0
C254 C 0.33733 0.24353 0.21753 0.0
C255 C 0.44443 0.25458 0.25323 0.0
C256 C 0.40764 0.25151 0.24059 0.0
H257 H 0.22155 0.29093 0.19142 0.0
H258 H 0.28172 0.29726 0.21166 0.0
H259 H 0.37195 0.22019 0.19103 0.0
H260 H 0.52742 0.20569 0.26214 0.0
H261 H 0.47085 0.20434 0.2387 0.0
C262 C 0.16412 0.74971 0.68176 0.0
C263 C 0.19911 0.73005 0.68145 0.0
C264 C 0.16036 0.78431 0.69313 0.0
C265 C 0.15335 0.84611 0.72816 0.0
H266 H 0.23757 0.91753 0.72941 0.0
C267 C 0.15918 -0.02814 0.78976 0.0
C268 C 0.17727 0.00603 0.78351 0.0
C269 C 0.15904 0.9403 0.77561 0.0
C270 C 0.21353 0.89821 0.729 0.0
H271 H 0.25755 0.73134 0.69312 0.0
H272 H 0.25083 0.79124 0.71341 0.0
H273 H 0.24357 0.85849 0.70838 0.0
H274 H 0.2079 0.03412 0.75683 0.0
H275 H 0.20703 -0.02089 0.73187 0.0
H276 H 0.12304 0.88605 0.74843 0.0
C277 C 0.2264 0.78031 0.70447 0.0
C278 C 0.21721 0.86396 0.7172 0.0
C279 C 0.23019 0.74572 0.693 0.0
C280 C 0.19363 0.00834 0.7622 0.0
C281 C 0.19352 -0.0234 0.74799 0.0
C282 C 0.14963 0.88037 0.73988 0.0
C283 C 0.19144 0.80021 0.70463 0.0
C284 C 0.18729 0.83722 0.71677 0.0
C285 C 0.17693 0.94187 0.75471 0.0
C286 C 0.1798 0.90676 0.74069 0.0
H287 H 0.13962 0.73865 0.67291 0.0
H288 H 0.13315 0.79892 0.69253 0.0
H289 H 0.12976 0.82622 0.72843 0.0
H290 H 0.14626 -0.0311 0.80603 0.0
H291 H 0.14631 0.91409 0.78156 0.0
C292 C 0.43019 0.70701 0.26388 0.0
C293 C 0.42631 0.67947 0.2807 0.0
C294 C 0.46284 0.70777 0.2504 0.0
C295 C 0.56371 0.67231 0.25034 0.0
H296 H 0.56477 0.71524 0.19096 0.0
C297 C 0.69631 0.66887 0.19245 0.0
C298 C 0.70629 0.70363 0.18235 0.0
C299 C 0.66188 0.6652 0.20407 0.0
C300 C 0.56489 0.70335 0.20758 0.0
H301 H 0.45228 0.6295 0.29551 0.0
H302 H 0.50783 0.62923 0.27126 0.0
H303 H 0.5042 0.70762 0.21048 0.0
H304 H 0.68774 0.76176 0.17644 0.0
H305 H 0.62717 0.75505 0.19637 0.0
H306 H 0.62442 0.66715 0.24703 0.0
C307 C 0.48675 0.65148 0.26902 0.0
C308 C 0.53014 0.69908 0.21887 0.0
C309 C 0.45455 0.65124 0.28277 0.0
C310 C 0.68101 0.73466 0.18414 0.0
C311 C 0.64621 0.73076 0.1954 0.0
C312 C 0.59829 0.67595 0.23889 0.0
C313 C 0.49216 0.68057 0.25315 0.0
C314 C 0.52897 0.68368 0.24051 0.0
C315 C 0.63626 0.69598 0.20548 0.0
C316 C 0.59932 0.69174 0.21746 0.0
H317 H 0.40918 0.72947 0.26205 0.0
H318 H 0.46579 0.7309 0.23861 0.0
H319 H 0.56453 0.66129 0.26713 0.0
H320 H 0.71511 0.64441 0.19135 0.0
H321 H 0.65491 0.63801 0.21158 0.0
C322 C 0.77152 0.18666 0.68196 0.0
C323 C 0.7365 0.20627 0.68159 0.0
C324 C 0.77524 0.152 0.69333 0.0
C325 C 0.78212 0.08998 0.72833 0.0
H326 H 0.69798 0.01845 0.72943 0.0
C327 C 0.77623 0.96374 0.7898 0.0
C328 C 0.7582 0.9296 0.78351 0.0
C329 C 0.77637 -0.00459 0.77568 0.0
C330 C 0.722 0.0378 0.72906 0.0
H331 H 0.67798 0.20484 0.69315 0.0
H332 H 0.68464 0.14485 0.71345 0.0
H333 H 0.692 0.07763 0.70845 0.0
H334 H 0.72767 0.90168 0.75679 0.0
H335 H 0.72856 0.95688 0.73188 0.0
H336 H 0.81238 0.04993 0.74859 0.0
C337 C 0.70912 0.15586 0.70456 0.0
C338 C 0.71833 0.07214 0.71729 0.0
C339 C 0.70535 0.1905 0.69308 0.0
C340 C 0.7419 0.92743 0.76219 0.0
C341 C 0.74202 0.95928 0.74801 0.0
C342 C 0.78583 0.05564 0.74002 0.0
C343 C 0.7441 0.136 0.70478 0.0
C344 C 0.74822 0.09891 0.71691 0.0
C345 C 0.75855 -0.00601 0.75477 0.0
C346 C 0.75569 0.0292 0.74078 0.0
H347 H 0.79606 0.19778 0.67316 0.0
H348 H 0.80246 0.13742 0.69278 0.0
H349 H 0.80568 0.10989 0.72865 0.0
H350 H 0.7891 0.96659 0.80607 0.0
H351 H 0.78905 0.02159 0.78166 0.0
C352 C 0.74057 0.16873 0.26356 0.0
C353 C 0.73053 0.20343 0.27369 0.0
C354 C 0.77497 0.16512 0.25189 0.0
C355 C 0.87186 0.20321 0.24824 0.0
H356 H 0.87201 0.16168 0.18864 0.0
C357 C 0.00641 0.20706 0.19182 0.0
C358 C 0.01028 0.17968 0.17495 0.0
C359 C -0.02624 0.2078 0.2053 0.0
C360 C 0.87289 0.17255 0.20544 0.0
H361 H 0.74895 0.2615 0.2796 0.0
H362 H 0.80949 0.25489 0.2596 0.0
H363 H 0.81221 0.16742 0.20885 0.0
H364 H -0.01574 0.12996 0.16006 0.0
H365 H 0.92873 0.12964 0.18432 0.0
H366 H 0.93253 0.20743 0.24525 0.0
C367 C 0.79051 0.2306 0.26059 0.0
C368 C 0.83836 0.17612 0.21696 0.0
C369 C 0.75573 0.23445 0.27189 0.0
C370 C -0.01799 0.15158 0.17283 0.0
C371 C 0.94981 0.1518 0.18659 0.0
C372 C 0.90657 0.199 0.23689 0.0
C373 C 0.80051 0.19589 0.25046 0.0
C374 C 0.8374 0.19172 0.23841 0.0
C375 C 0.94443 0.18073 0.20253 0.0
C376 C 0.90766 0.18379 0.21522 0.0
H377 H 0.72183 0.14428 0.26466 0.0
H378 H 0.78198 0.13798 0.24434 0.0
H379 H 0.87204 0.21495 0.26488 0.0
H380 H 0.02743 0.22942 0.19369 0.0
H381 H -0.02916 0.23082 0.21714 0.0
C382 C 0.22317 0.50638 0.6921 0.0
C383 C 0.25094 0.50904 0.67529 0.0
C384 C 0.22136 0.47407 0.70582 0.0
C385 C 0.27528 0.39146 0.72691 0.0
H386 H 0.17766 0.33976 0.72765 0.0
C387 C 0.26109 0.23875 0.76241 0.0
C388 C 0.2269 0.22821 0.77293 0.0
C389 C 0.26401 0.27354 0.75106 0.0
C390 C 0.20502 0.35398 0.72807 0.0
H391 H 0.29988 0.48085 0.6606 0.0
H392 H 0.29752 0.42522 0.68508 0.0
H393 H 0.18375 0.40097 0.70885 0.0
H394 H 0.16896 0.24613 0.77984 0.0
H395 H 0.17432 0.30727 0.76091 0.0
H396 H 0.29658 0.34528 0.74653 0.0
C397 C 0.27687 0.44786 0.68744 0.0
C398 C 0.20847 0.38914 0.71718 0.0
C399 C 0.2782 0.47974 0.67342 0.0
C400 C 0.1956 0.2532 0.77171 0.0
C401 C 0.19871 0.28832 0.76071 0.0
C402 C 0.27172 0.35663 0.73816 0.0
C403 C 0.24777 0.44414 0.70336 0.0
C404 C 0.24371 0.40811 0.71629 0.0
C405 C 0.23304 0.29919 0.75026 0.0
C406 C 0.23661 0.33704 0.73873 0.0
H407 H 0.20152 0.52824 0.69384 0.0
H408 H 0.1988 0.4721 0.71807 0.0
H409 H 0.30275 0.40555 0.72663 0.0
H410 H 0.28569 0.22005 0.76293 0.0
H411 H 0.29066 0.28012 0.74283 0.0
C412 C 0.19604 0.76642 0.26337 0.0
C413 C 0.20606 0.73171 0.27357 0.0
C414 C 0.16166 0.77003 0.25169 0.0
C415 C 0.06478 0.73194 0.24807 0.0
H416 H 0.06479 0.77345 0.1884 0.0
C417 C 0.93035 0.72813 0.19163 0.0
C418 C 0.92652 0.75552 0.17471 0.0
C419 C 0.96297 0.72737 0.20511 0.0
C420 C 0.06387 0.76258 0.20522 0.0
H421 H 0.18763 0.67364 0.27957 0.0
H422 H 0.12713 0.68026 0.25955 0.0
H423 H 0.12454 0.76772 0.20864 0.0
H424 H 0.95261 0.80522 0.15973 0.0
H425 H 0.0081 0.8055 0.184 0.0
H426 H 0.00412 0.72772 0.24507 0.0
C427 C 0.14611 0.70455 0.26049 0.0
C428 C 0.09837 0.75902 0.21675 0.0
C429 C 0.18086 0.7007 0.27181 0.0
C430 C 0.95482 0.78359 0.17254 0.0
C431 C -0.01301 0.78335 0.18631 0.0
C432 C 0.03011 0.73615 0.2367 0.0
C433 C 0.13613 0.73926 0.25031 0.0
C434 C 0.09927 0.74342 0.23824 0.0
C435 C -0.00767 0.75442 0.20229 0.0
C436 C 0.02907 0.75135 0.21501 0.0
H437 H 0.21478 0.79087 0.26444 0.0
H438 H 0.15468 0.79717 0.2441 0.0
H439 H 0.06456 0.7202 0.26473 0.0
H440 H 0.9093 0.70579 0.19354 0.0
H441 H 0.96586 0.70435 0.21699 0.0
C442 C 0.65584 0.45582 0.67257 0.0
C443 C 0.68411 0.42756 0.67443 0.0
C444 C 0.65656 0.48815 0.68616 0.0
C445 C 0.70526 0.53181 0.73574 0.0
H446 H 0.67219 0.62583 0.7077 0.0
C447 C 0.73911 0.68276 0.77079 0.0
C448 C 0.70783 0.70776 0.77249 0.0
C449 C 0.7357 0.64803 0.75945 0.0
C450 C 0.68133 0.59978 0.71581 0.0
H451 H 0.73472 0.4106 0.69255 0.0
H452 H 0.73691 0.46745 0.71573 0.0
H453 H 0.66648 0.56595 0.68769 0.0
H454 H 0.64867 0.71614 0.7632 0.0
H455 H 0.64311 0.6561 0.74286 0.0
H456 H 0.72148 0.5665 0.76355 0.0
C457 C 0.71343 0.4644 0.70421 0.0
C458 C 0.67778 0.56521 0.70441 0.0
C459 C 0.71223 0.43162 0.69089 0.0
C460 C 0.67333 0.69758 0.76218 0.0
C461 C 0.67014 0.66322 0.7505 0.0
C462 C 0.70941 0.56656 0.74698 0.0
C463 C 0.68614 0.49369 0.70168 0.0
C464 C 0.68949 0.53054 0.7142 0.0
C465 C 0.70115 0.63785 0.74919 0.0
C466 C 0.69734 0.60092 0.73717 0.0
H467 H 0.63365 0.45343 0.66013 0.0
H468 H 0.63423 0.5092 0.6841 0.0
H469 H 0.71411 0.50592 0.74409 0.0
H470 H 0.76602 0.68964 0.77864 0.0
H471 H 0.76017 0.62921 0.75857 0.0
C472 C 0.88699 0.58472 0.13693 0.0
C473 C 0.88427 0.60732 0.11774 0.0
C474 C 0.90661 0.55006 0.13643 0.0
C475 C -0.022 0.49696 0.10244 0.0
H476 H 0.94983 0.41366 0.14154 0.0
C477 C 0.03594 0.34144 0.09806 0.0
C478 C 0.05202 0.32805 0.11799 0.0
C479 C 0.01678 0.37638 0.09748 0.0
C480 C 0.958 0.43685 0.13063 0.0
H481 H 0.89821 0.61067 0.08272 0.0
H482 H 0.93056 0.54925 0.08146 0.0
H483 H 0.91099 0.47136 0.14084 0.0
H484 H 0.06103 0.34074 0.15286 0.0
H485 H 0.02641 0.40141 0.15191 0.0
H486 H 0.02417 0.46124 0.09167 0.0
C487 C 0.91908 0.55886 0.09719 0.0
C488 C 0.93595 0.47002 0.13027 0.0
C489 C 0.90019 0.59393 0.09782 0.0
C490 C 0.04914 0.3505 0.13724 0.0
C491 C 0.0292 0.385 0.13676 0.0
C492 C -0.00048 0.46342 0.10246 0.0
C493 C 0.92326 0.53678 0.11659 0.0
C494 C 0.94582 0.50072 0.11632 0.0
C495 C 0.01266 0.39799 0.11692 0.0
C496 C -0.01014 0.43332 0.1167 0.0
H497 H 0.87533 0.59455 0.15258 0.0
H498 H 0.9097 0.53436 0.15182 0.0
H499 H -0.01289 0.52014 0.09181 0.0
H500 H 0.03782 0.32471 0.08298 0.0
H501 H 0.00412 0.38594 0.08202 0.0
C502 C 0.84183 0.39981 0.59567 0.0
C503 C 0.82904 0.38373 0.61569 0.0
C504 C 0.87695 0.41849 0.59467 0.0
C505 C 0.96681 0.43442 0.62687 0.0
H506 H -0.02551 0.52363 0.58895 0.0
C507 C 0.08428 0.54888 0.63479 0.0
C508 C 0.10747 0.55171 0.61581 0.0
C509 C 0.04998 0.52876 0.63396 0.0
C510 C -0.02738 0.49869 0.59953 0.0
H511 H 0.84292 0.37433 0.65035 0.0
H512 H 0.90315 0.4083 0.64898 0.0
H513 H 0.91576 0.4864 0.58915 0.0
H514 H 0.11228 0.5373 0.58089 0.0
H515 H 0.05132 0.50326 0.57931 0.0
H516 H 0.02324 0.44823 0.63793 0.0
C517 C 0.88697 0.40548 0.63376 0.0
C518 C 0.93918 0.47708 0.59955 0.0
C519 C 0.85227 0.3861 0.63462 0.0
C520 C 0.09496 0.53546 0.59577 0.0
C521 C 0.0602 0.51611 0.59483 0.0
C522 C -0.00014 0.45654 0.6272 0.0
C523 C 0.89968 0.42227 0.61382 0.0
C524 C 0.93578 0.44463 0.61325 0.0
C525 C 0.03792 0.51198 0.61403 0.0
C526 C 0.00294 0.4888 0.61356 0.0
H527 H 0.82458 0.39812 0.58077 0.0
H528 H 0.88609 0.43014 0.57888 0.0
H529 H 0.96577 0.40923 0.63726 0.0
H530 H 0.09334 0.56089 0.65049 0.0
H531 H 0.03302 0.52594 0.64893 0.0
C532 C 0.53619 0.09339 0.35762 0.0
C533 C 0.55216 0.1069 0.33773 0.0
C534 C 0.51728 0.05839 0.35819 0.0
C535 C 0.50036 -0.03009 0.32496 0.0
H536 H 0.41226 0.96104 0.36365 0.0
C537 C 0.38741 0.85041 0.3182 0.0
C538 C 0.38462 0.82796 0.33748 0.0
C539 C 0.40727 0.88489 0.3186 0.0
C540 C 0.43686 0.96325 0.35283 0.0
H541 H 0.56117 0.09444 0.30288 0.0
H542 H 0.52674 0.03436 0.30352 0.0
H543 H 0.44925 0.01987 0.36351 0.0
H544 H 0.3989 0.82461 0.37249 0.0
H545 H 0.43245 0.88581 0.37332 0.0
H546 H 0.4865 0.91365 0.31367 0.0
C547 C 0.52981 0.0499 0.31894 0.0
C548 C 0.45835 -0.00325 0.35285 0.0
C549 C 0.54946 0.0845 0.3185 0.0
C550 C 0.40071 0.84134 0.35738 0.0
C551 C 0.41978 0.87626 0.35789 0.0
C552 C 0.47833 0.93678 0.32461 0.0
C553 C 0.51311 0.0365 0.33875 0.0
C554 C 0.49052 0.00053 0.33896 0.0
C555 C 0.42382 0.89787 0.33841 0.0
C556 C 0.44652 0.93321 0.33857 0.0
H557 H 0.53815 0.10999 0.37274 0.0
H558 H 0.50576 0.04868 0.37389 0.0
H559 H 0.52529 -0.02874 0.31438 0.0
H560 H 0.3755 0.84065 0.3026 0.0
H561 H 0.40999 0.90131 0.30342 0.0
C562 C 0.35028 0.04922 0.81768 0.0
C563 C 0.32905 0.05333 0.83731 0.0
C564 C 0.3847 0.02908 0.81778 0.0
C565 C 0.43798 0.95799 0.85184 0.0
H566 H 0.52033 -0.01747 0.81127 0.0
C567 C 0.59153 0.89688 0.85695 0.0
C568 C 0.60627 0.88182 0.83709 0.0
C569 C 0.55657 0.916 0.85705 0.0
C570 C 0.49736 -0.02472 0.82256 0.0
H571 H 0.3281 0.0416 0.87266 0.0
H572 H 0.38903 0.00831 0.87314 0.0
H573 H 0.46333 0.02246 0.81195 0.0
H574 H 0.59576 0.87437 0.80186 0.0
H575 H 0.53492 0.90875 0.80199 0.0
H576 H 0.4731 0.91165 0.86298 0.0
C577 C 0.3785 0.01908 0.85744 0.0
C578 C 0.46463 -0.00198 0.82293 0.0
C579 C 0.34373 0.03853 0.85723 0.0
C580 C 0.58498 0.88548 0.81743 0.0
C581 C 0.55039 0.90533 0.81745 0.0
C582 C 0.47103 0.93574 0.85176 0.0
C583 C 0.39901 0.01323 0.83762 0.0
C584 C 0.4344 -0.01037 0.83753 0.0
C585 C 0.53615 0.92107 0.83722 0.0
C586 C 0.50088 0.94411 0.83705 0.0
H587 H 0.33945 0.06003 0.80203 0.0
H588 H 0.39928 0.02481 0.80213 0.0
H589 H 0.41506 0.94998 0.86295 0.0
H590 H 0.60732 0.89441 0.87236 0.0
H591 H 0.54613 0.92802 0.87248 0.0
loop_
_geom_bond_atom_site_label_1
_geom_bond_atom_site_label_2
_geom_bond_distance
_geom_bond_site_symmetry_2
_ccdc_geom_bond_type
C0 O1 1.306 . S
C0 O3 1.160 . S
O1 C0 1.306 . S
O1 Cd2 2.228 . S
Cd2 O1 2.228 . S
Cd2 O6 2.273 . S
Cd2 O10 2.277 . S
O3 C0 1.160 . S
O3 Cd4 2.203 . S
Cd4 O3 2.203 . S
Cd4 O6 2.411 . S
Cd4 O7 2.333 . S
Cd4 O8 2.352 . S
Cd4 O12 2.277 . S
Cd4 O13 2.356 . S
C5 O10 1.209 . S
C5 O12 1.226 . S
O6 Cd2 2.273 . S
O6 Cd4 2.411 . S
O6 C9 1.320 . S
O7 Cd4 2.333 . S
O7 C9 1.214 . S
O8 Cd4 2.352 . S
O8 C11 1.258 . S
C9 O6 1.320 . S
C9 O7 1.214 . S
O10 Cd2 2.277 . S
O10 C5 1.209 . S
C11 O8 1.258 . S
C11 O13 1.282 . S
O12 Cd4 2.277 . S
O12 C5 1.226 . S
O13 Cd4 2.356 . S
O13 C11 1.282 . S
C14 O15 1.306 . S
C14 O17 1.160 . S
O15 C14 1.306 . S
O15 Cd16 2.228 . S
Cd16 O15 2.228 . S
Cd16 O20 2.273 . S
Cd16 O24 2.277 . S
O17 C14 1.160 . S
O17 Cd18 2.203 . S
Cd18 O17 2.203 . S
Cd18 O20 2.411 . S
Cd18 O21 2.333 . S
Cd18 O22 2.352 . S
Cd18 O26 2.277 . S
Cd18 O27 2.356 . S
C19 O24 1.209 . S
C19 O26 1.226 . S
O20 Cd16 2.273 . S
O20 Cd18 2.411 . S
O20 C23 1.320 . S
O21 Cd18 2.333 . S
O21 C23 1.214 . S
O22 Cd18 2.352 . S
O22 C25 1.258 . S
C23 O20 1.320 . S
C23 O21 1.214 . S
O24 Cd16 2.277 . S
O24 C19 1.209 . S
C25 O22 1.258 . S
C25 O27 1.282 . S
O26 Cd18 2.277 . S
O26 C19 1.226 . S
O27 Cd18 2.356 . S
O27 C25 1.282 . S
C28 O29 1.306 . S
C28 O31 1.160 . S
O29 C28 1.306 . S
O29 Cd30 2.228 . S
Cd30 O29 2.228 . S
Cd30 O34 2.273 . S
Cd30 O38 2.277 . S
O31 C28 1.160 . S
O31 Cd32 2.203 . S
Cd32 O31 2.203 . S
Cd32 O34 2.411 . S
Cd32 O35 2.333 . S
Cd32 O36 2.352 . S
Cd32 O40 2.277 . S
Cd32 O41 2.356 . S
C33 O38 1.209 . S
C33 O40 1.226 . S
O34 Cd30 2.273 . S
O34 Cd32 2.411 . S
O34 C37 1.320 . S
O35 Cd32 2.333 . S
O35 C37 1.214 . S
O36 Cd32 2.352 . S
O36 C39 1.258 . S
C37 O34 1.320 . S
C37 O35 1.214 . S
O38 Cd30 2.277 . S
O38 C33 1.209 . S
C39 O36 1.258 . S
C39 O41 1.282 . S
O40 Cd32 2.277 . S
O40 C33 1.226 . S
O41 Cd32 2.356 . S
O41 C39 1.282 . S
C42 O43 1.306 . S
C42 O45 1.160 . S
O43 C42 1.306 . S
O43 Cd44 2.228 . S
Cd44 O43 2.228 . S
Cd44 O48 2.273 . S
Cd44 O52 2.277 . S
O45 C42 1.160 . S
O45 Cd46 2.203 . S
Cd46 O45 2.203 . S
Cd46 O48 2.411 . S
Cd46 O49 2.333 . S
Cd46 O50 2.352 . S
Cd46 O54 2.277 . S
Cd46 O55 2.356 . S
C47 O52 1.209 . S
C47 O54 1.226 . S
O48 Cd44 2.273 . S
O48 Cd46 2.411 . S
O48 C51 1.320 . S
O49 Cd46 2.333 . S
O49 C51 1.214 . S
O50 Cd46 2.352 . S
O50 C53 1.258 . S
C51 O48 1.320 . S
C51 O49 1.214 . S
O52 Cd44 2.277 . S
O52 C47 1.209 . S
C53 O50 1.258 . S
C53 O55 1.282 . S
O54 Cd46 2.277 . S
O54 C47 1.226 . S
O55 Cd46 2.356 . S
O55 C53 1.282 . S
C56 O57 1.306 . S
C56 O59 1.160 . S
O57 C56 1.306 . S
O57 Cd58 2.228 . S
Cd58 O57 2.228 . S
Cd58 O62 2.273 . S
Cd58 O66 2.277 . S
O59 C56 1.160 . S
O59 Cd60 2.203 . S
Cd60 O59 2.203 . S
Cd60 O62 2.411 . S
Cd60 O63 2.333 . S
Cd60 O64 2.352 . S
Cd60 O68 2.277 . S
Cd60 O69 2.356 . S
C61 O66 1.209 . S
C61 O68 1.226 . S
O62 Cd58 2.273 . S
O62 Cd60 2.411 . S
O62 C65 1.320 . S
O63 Cd60 2.333 . S
O63 C65 1.214 . S
O64 Cd60 2.352 . S
O64 C67 1.258 . S
C65 O62 1.320 . S
C65 O63 1.214 . S
O66 Cd58 2.277 . S
O66 C61 1.209 . S
C67 O64 1.258 . S
C67 O69 1.282 . S
O68 Cd60 2.277 . S
O68 C61 1.226 . S
O69 Cd60 2.356 . S
O69 C67 1.282 . S
C70 O71 1.306 . S
C70 O73 1.160 . S
O71 C70 1.306 . S
O71 Cd72 2.228 . S
Cd72 O71 2.228 . S
Cd72 O76 2.273 . S
Cd72 O80 2.277 . S
O73 C70 1.160 . S
O73 Cd74 2.203 . S
Cd74 O73 2.203 . S
Cd74 O76 2.411 . S
Cd74 O77 2.333 . S
Cd74 O78 2.352 . S
Cd74 O82 2.277 . S
Cd74 O83 2.356 . S
C75 O80 1.209 . S
C75 O82 1.226 . S
O76 Cd72 2.273 . S
O76 Cd74 2.411 . S
O76 C79 1.320 . S
O77 Cd74 2.333 . S
O77 C79 1.214 . S
O78 Cd74 2.352 . S
O78 C81 1.258 . S
C79 O76 1.320 . S
C79 O77 1.214 . S
O80 Cd72 2.277 . S
O80 C75 1.209 . S
C81 O78 1.258 . S
C81 O83 1.282 . S
O82 Cd74 2.277 . S
O82 C75 1.226 . S
O83 Cd74 2.356 . S
O83 C81 1.282 . S
C84 O85 1.306 . S
C84 O87 1.160 . S
O85 C84 1.306 . S
O85 Cd86 2.228 . S
Cd86 O85 2.228 . S
Cd86 O90 2.273 . S
Cd86 O94 2.277 . S
O87 C84 1.160 . S
O87 Cd88 2.203 . S
Cd88 O87 2.203 . S
Cd88 O90 2.411 . S
Cd88 O91 2.333 . S
Cd88 O92 2.352 . S
Cd88 O96 2.277 . S
Cd88 O97 2.356 . S
C89 O94 1.209 . S
C89 O96 1.226 . S
O90 Cd86 2.273 . S
O90 Cd88 2.411 . S
O90 C93 1.320 . S
O91 Cd88 2.333 . S
O91 C93 1.214 . S
O92 Cd88 2.352 . S
O92 C95 1.258 . S
C93 O90 1.320 . S
C93 O91 1.214 . S
O94 Cd86 2.277 . S
O94 C89 1.209 . S
C95 O92 1.258 . S
C95 O97 1.282 . S
O96 Cd88 2.277 . S
O96 C89 1.226 . S
O97 Cd88 2.356 . S
O97 C95 1.282 . S
C98 O99 1.306 . S
C98 O101 1.160 . S
O99 C98 1.306 . S
O99 Cd100 2.228 . S
Cd100 O99 2.228 . S
Cd100 O104 2.273 . S
Cd100 O108 2.277 . S
O101 C98 1.160 . S
O101 Cd102 2.203 . S
Cd102 O101 2.203 . S
Cd102 O104 2.411 . S
Cd102 O105 2.333 . S
Cd102 O106 2.352 . S
Cd102 O110 2.277 . S
Cd102 O111 2.356 . S
C103 O108 1.209 . S
C103 O110 1.226 . S
O104 Cd100 2.273 . S
O104 Cd102 2.411 . S
O104 C107 1.320 . S
O105 Cd102 2.333 . S
O105 C107 1.214 . S
O106 Cd102 2.352 . S
O106 C109 1.258 . S
C107 O104 1.320 . S
C107 O105 1.214 . S
O108 Cd100 2.277 . S
O108 C103 1.209 . S
C109 O106 1.258 . S
C109 O111 1.282 . S
O110 Cd102 2.277 . S
O110 C103 1.226 . S
O111 Cd102 2.356 . S
O111 C109 1.282 . S
C112 C113 1.349 . S
C112 C114 1.327 . S
C112 H137 0.950 . S
C113 C112 1.349 . S
C113 C129 1.349 . S
C114 C112 1.327 . S
C114 C133 1.429 . S
C114 H138 0.950 . S
C115 C132 1.574 1_554 S
C115 C134 1.368 . S
C115 H139 0.949 . S
H116 C120 0.949 . S
C117 C118 1.349 . S
C117 C119 1.327 . S
C117 H140 0.950 . S
C118 C117 1.349 . S
C118 C130 1.349 . S
C119 C117 1.327 . S
C119 C135 1.429 . S
C119 H141 0.950 . S
C120 H116 0.949 . S
C120 C128 1.574 1_556 S
C120 C136 1.368 . S
H121 C129 0.950 . S
H122 C127 0.950 . S
H123 C128 0.949 . S
H124 C130 0.950 . S
H125 C131 0.950 . S
H126 C132 0.949 . S
C127 H122 0.950 . S
C127 C129 1.327 . S
C127 C133 1.429 . S
C128 C120 1.574 1_554 S
C128 H123 0.949 . S
C128 C134 1.368 . S
C129 C113 1.349 . S
C129 H121 0.950 . S
C129 C127 1.327 . S
C130 C118 1.349 . S
C130 H124 0.950 . S
C130 C131 1.327 . S
C131 H125 0.950 . S
C131 C130 1.327 . S
C131 C135 1.429 . S
C132 C115 1.574 1_556 S
C132 H126 0.949 . S
C132 C136 1.368 . S
C133 C114 1.429 . S
C133 C127 1.429 . S
C133 C134 1.523 . S
C134 C115 1.368 . S
C134 C128 1.368 . S
C134 C133 1.523 . S
C135 C119 1.429 . S
C135 C131 1.429 . S
C135 C136 1.523 . S
C136 C120 1.368 . S
C136 C132 1.368 . S
C136 C135 1.523 . S
H137 C112 0.950 . S
H138 C114 0.950 . S
H139 C115 0.949 . S
H140 C117 0.950 . S
H141 C119 0.950 . S
C142 C143 1.349 . S
C142 C144 1.327 . S
C142 H167 0.950 . S
C143 C142 1.349 . S
C143 C159 1.349 . S
C144 C142 1.327 . S
C144 C163 1.429 . S
C144 H168 0.950 . S
C145 C162 1.574 . S
C145 C164 1.368 . S
C145 H169 0.949 . S
H146 C150 0.949 . S
C147 C148 1.349 . S
C147 C149 1.327 . S
C147 H170 0.950 . S
C148 C147 1.349 . S
C148 C160 1.349 . S
C149 C147 1.327 . S
C149 C165 1.429 . S
C149 H171 0.950 . S
C150 H146 0.949 . S
C150 C158 1.574 . S
C150 C166 1.368 . S
H151 C159 0.950 . S
H152 C157 0.950 . S
H153 C158 0.949 . S
H154 C160 0.950 . S
H155 C161 0.950 . S
H156 C162 0.949 . S
C157 H152 0.950 . S
C157 C159 1.327 . S
C157 C163 1.429 . S
C158 C150 1.574 . S
C158 H153 0.949 . S
C158 C164 1.368 . S
C159 C143 1.349 . S
C159 H151 0.950 . S
C159 C157 1.327 . S
C160 C148 1.349 . S
C160 H154 0.950 . S
C160 C161 1.327 . S
C161 H155 0.950 . S
C161 C160 1.327 . S
C161 C165 1.429 . S
C162 C145 1.574 . S
C162 H156 0.949 . S
C162 C166 1.368 . S
C163 C144 1.429 . S
C163 C157 1.429 . S
C163 C164 1.523 . S
C164 C145 1.368 . S
C164 C158 1.368 . S
C164 C163 1.523 . S
C165 C149 1.429 . S
C165 C161 1.429 . S
C165 C166 1.523 . S
C166 C150 1.368 . S
C166 C162 1.368 . S
C166 C165 1.523 . S
H167 C142 0.950 . S
H168 C144 0.950 . S
H169 C145 0.949 . S
H170 C147 0.950 . S
H171 C149 0.950 . S
C172 C173 1.349 . S
C172 C174 1.327 . S
C172 H197 0.950 . S
C173 C172 1.349 . S
C173 C189 1.349 . S
C174 C172 1.327 . S
C174 C193 1.429 . S
C174 H198 0.950 . S
C175 C192 1.574 1_554 S
C175 C194 1.368 . S
C175 H199 0.949 . S
H176 C180 0.949 . S
C177 C178 1.349 . S
C177 C179 1.327 . S
C177 H200 0.950 . S
C178 C177 1.349 . S
C178 C190 1.349 . S
C179 C177 1.327 . S
C179 C195 1.429 . S
C179 H201 0.950 . S
C180 H176 0.949 . S
C180 C188 1.574 1_556 S
C180 C196 1.368 . S
H181 C189 0.950 . S
H182 C187 0.950 . S
H183 C188 0.949 . S
H184 C190 0.950 . S
H185 C191 0.950 . S
H186 C192 0.949 . S
C187 H182 0.950 . S
C187 C189 1.327 . S
C187 C193 1.429 . S
C188 C180 1.574 1_554 S
C188 H183 0.949 . S
C188 C194 1.368 . S
C189 C173 1.349 . S
C189 H181 0.950 . S
C189 C187 1.327 . S
C190 C178 1.349 . S
C190 H184 0.950 . S
C190 C191 1.327 . S
C191 H185 0.950 . S
C191 C190 1.327 . S
C191 C195 1.429 . S
C192 C175 1.574 1_556 S
C192 H186 0.949 . S
C192 C196 1.368 . S
C193 C174 1.429 . S
C193 C187 1.429 . S
C193 C194 1.523 . S
C194 C175 1.368 . S
C194 C188 1.368 . S
C194 C193 1.523 . S
C195 C179 1.429 . S
C195 C191 1.429 . S
C195 C196 1.523 . S
C196 C180 1.368 . S
C196 C192 1.368 . S
C196 C195 1.523 . S
H197 C172 0.950 . S
H198 C174 0.950 . S
H199 C175 0.949 . S
H200 C177 0.950 . S
H201 C179 0.950 . S
C202 C203 1.349 . S
C202 C204 1.327 . S
C202 H227 0.950 . S
C203 C202 1.349 . S
C203 C219 1.349 . S
C204 C202 1.327 . S
C204 C223 1.429 . S
C204 H228 0.950 . S
C205 C222 1.574 . S
C205 C224 1.368 . S
C205 H229 0.949 . S
H206 C210 0.949 . S
C207 C208 1.349 . S
C207 C209 1.327 . S
C207 H230 0.950 . S
C208 C207 1.349 . S
C208 C220 1.349 . S
C209 C207 1.327 . S
C209 C225 1.429 . S
C209 H231 0.950 . S
C210 H206 0.949 . S
C210 C218 1.574 . S
C210 C226 1.368 . S
H211 C219 0.950 . S
H212 C217 0.950 . S
H213 C218 0.949 . S
H214 C220 0.950 . S
H215 C221 0.950 . S
H216 C222 0.949 . S
C217 H212 0.950 . S
C217 C219 1.327 . S
C217 C223 1.429 . S
C218 C210 1.574 . S
C218 H213 0.949 . S
C218 C224 1.368 . S
C219 C203 1.349 . S
C219 H211 0.950 . S
C219 C217 1.327 . S
C220 C208 1.349 . S
C220 H214 0.950 . S
C220 C221 1.327 . S
C221 H215 0.950 . S
C221 C220 1.327 . S
C221 C225 1.429 . S
C222 C205 1.574 . S
C222 H216 0.949 . S
C222 C226 1.368 . S
C223 C204 1.429 . S
C223 C217 1.429 . S
C223 C224 1.523 . S
C224 C205 1.368 . S
C224 C218 1.368 . S
C224 C223 1.523 . S
C225 C209 1.429 . S
C225 C221 1.429 . S
C225 C226 1.523 . S
C226 C210 1.368 . S
C226 C222 1.368 . S
C226 C225 1.523 . S
H227 C202 0.950 . S
H228 C204 0.950 . S
H229 C205 0.949 . S
H230 C207 0.950 . S
H231 C209 0.950 . S
C232 C233 1.349 . S
C232 C234 1.327 . S
C232 H257 0.950 . S
C233 C232 1.349 . S
C233 C249 1.349 . S
C234 C232 1.327 . S
C234 C253 1.429 . S
C234 H258 0.950 . S
C235 C252 1.574 . S
C235 C254 1.368 . S
C235 H259 0.949 . S
H236 C240 0.949 . S
C237 C238 1.349 . S
C237 C239 1.327 . S
C237 H260 0.950 . S
C238 C237 1.349 . S
C238 C250 1.349 . S
C239 C237 1.327 . S
C239 C255 1.429 . S
C239 H261 0.950 . S
C240 H236 0.949 . S
C240 C248 1.574 . S
C240 C256 1.368 . S
H241 C249 0.950 . S
H242 C247 0.950 . S
H243 C248 0.949 . S
H244 C250 0.950 . S
H245 C251 0.950 . S
H246 C252 0.949 . S
C247 H242 0.950 . S
C247 C249 1.327 . S
C247 C253 1.429 . S
C248 C240 1.574 . S
C248 H243 0.949 . S
C248 C254 1.368 . S
C249 C233 1.349 . S
C249 H241 0.950 . S
C249 C247 1.327 . S
C250 C238 1.349 . S
C250 H244 0.950 . S
C250 C251 1.327 . S
C251 H245 0.950 . S
C251 C250 1.327 . S
C251 C255 1.429 . S
C252 C235 1.574 . S
C252 H246 0.949 . S
C252 C256 1.368 . S
C253 C234 1.429 . S
C253 C247 1.429 . S
C253 C254 1.523 . S
C254 C235 1.368 . S
C254 C248 1.368 . S
C254 C253 1.523 . S
C255 C239 1.429 . S
C255 C251 1.429 . S
C255 C256 1.523 . S
C256 C240 1.368 . S
C256 C252 1.368 . S
C256 C255 1.523 . S
H257 C232 0.950 . S
H258 C234 0.950 . S
H259 C235 0.949 . S
H260 C237 0.950 . S
H261 C239 0.950 . S
C262 C263 1.349 . S
C262 C264 1.327 . S
C262 H287 0.950 . S
C263 C262 1.349 . S
C263 C279 1.349 . S
C264 C262 1.327 . S
C264 C283 1.429 . S
C264 H288 0.950 . S
C265 C282 1.574 . S
C265 C284 1.368 . S
C265 H289 0.949 . S
H266 C270 0.949 . S
C267 C268 1.349 . S
C267 C269 1.327 1_545 S
C267 H290 0.950 . S
C268 C267 1.349 . S
C268 C280 1.349 . S
C269 C267 1.327 1_565 S
C269 C285 1.429 . S
C269 H291 0.950 . S
C270 H266 0.949 . S
C270 C278 1.574 . S
C270 C286 1.368 . S
H271 C279 0.950 . S
H272 C277 0.950 . S
H273 C278 0.949 . S
H274 C280 0.950 . S
H275 C281 0.950 . S
H276 C282 0.949 . S
C277 H272 0.950 . S
C277 C279 1.327 . S
C277 C283 1.429 . S
C278 C270 1.574 . S
C278 H273 0.949 . S
C278 C284 1.368 . S
C279 C263 1.349 . S
C279 H271 0.950 . S
C279 C277 1.327 . S
C280 C268 1.349 . S
C280 H274 0.950 . S
C280 C281 1.327 . S
C281 H275 0.950 . S
C281 C280 1.327 . S
C281 C285 1.429 1_545 S
C282 C265 1.574 . S
C282 H276 0.949 . S
C282 C286 1.368 . S
C283 C264 1.429 . S
C283 C277 1.429 . S
C283 C284 1.523 . S
C284 C265 1.368 . S
C284 C278 1.368 . S
C284 C283 1.523 . S
C285 C269 1.429 . S
C285 C281 1.429 1_565 S
C285 C286 1.523 . S
C286 C270 1.368 . S
C286 C282 1.368 . S
C286 C285 1.523 . S
H287 C262 0.950 . S
H288 C264 0.950 . S
H289 C265 0.949 . S
H290 C267 0.950 . S
H291 C269 0.950 . S
C292 C293 1.349 . S
C292 C294 1.327 . S
C292 H317 0.950 . S
C293 C292 1.349 . S
C293 C309 1.349 . S
C294 C292 1.327 . S
C294 C313 1.429 . S
C294 H318 0.950 . S
C295 C312 1.574 . S
C295 C314 1.368 . S
C295 H319 0.949 . S
H296 C300 0.949 . S
C297 C298 1.349 . S
C297 C299 1.327 . S
C297 H320 0.950 . S
C298 C297 1.349 . S
C298 C310 1.349 . S
C299 C297 1.327 . S
C299 C315 1.429 . S
C299 H321 0.950 . S
C300 H296 0.949 . S
C300 C308 1.574 . S
C300 C316 1.368 . S
H301 C309 0.950 . S
H302 C307 0.950 . S
H303 C308 0.949 . S
H304 C310 0.950 . S
H305 C311 0.950 . S
H306 C312 0.949 . S
C307 H302 0.950 . S
C307 C309 1.327 . S
C307 C313 1.429 . S
C308 C300 1.574 . S
C308 H303 0.949 . S
C308 C314 1.368 . S
C309 C293 1.349 . S
C309 H301 0.950 . S
C309 C307 1.327 . S
C310 C298 1.349 . S
C310 H304 0.950 . S
C310 C311 1.327 . S
C311 H305 0.950 . S
C311 C310 1.327 . S
C311 C315 1.429 . S
C312 C295 1.574 . S
C312 H306 0.949 . S
C312 C316 1.368 . S
C313 C294 1.429 . S
C313 C307 1.429 . S
C313 C314 1.523 . S
C314 C295 1.368 . S
C314 C308 1.368 . S
C314 C313 1.523 . S
C315 C299 1.429 . S
C315 C311 1.429 . S
C315 C316 1.523 . S
C316 C300 1.368 . S
C316 C312 1.368 . S
C316 C315 1.523 . S
H317 C292 0.950 . S
H318 C294 0.950 . S
H319 C295 0.949 . S
H320 C297 0.950 . S
H321 C299 0.950 . S
C322 C323 1.349 . S
C322 C324 1.327 . S
C322 H347 0.950 . S
C323 C322 1.349 . S
C323 C339 1.349 . S
C324 C322 1.327 . S
C324 C343 1.429 . S
C324 H348 0.950 . S
C325 C342 1.574 . S
C325 C344 1.368 . S
C325 H349 0.949 . S
H326 C330 0.949 . S
C327 C328 1.349 . S
C327 C329 1.327 1_565 S
C327 H350 0.950 . S
C328 C327 1.349 . S
C328 C340 1.349 . S
C329 C327 1.327 1_545 S
C329 C345 1.429 . S
C329 H351 0.950 . S
C330 H326 0.949 . S
C330 C338 1.574 . S
C330 C346 1.368 . S
H331 C339 0.950 . S
H332 C337 0.950 . S
H333 C338 0.949 . S
H334 C340 0.950 . S
H335 C341 0.950 . S
H336 C342 0.949 . S
C337 H332 0.950 . S
C337 C339 1.327 . S
C337 C343 1.429 . S
C338 C330 1.574 . S
C338 H333 0.949 . S
C338 C344 1.368 . S
C339 C323 1.349 . S
C339 H331 0.950 . S
C339 C337 1.327 . S
C340 C328 1.349 . S
C340 H334 0.950 . S
C340 C341 1.327 . S
C341 H335 0.950 . S
C341 C340 1.327 . S
C341 C345 1.429 1_565 S
C342 C325 1.574 . S
C342 H336 0.949 . S
C342 C346 1.368 . S
C343 C324 1.429 . S
C343 C337 1.429 . S
C343 C344 1.523 . S
C344 C325 1.368 . S
C344 C338 1.368 . S
C344 C343 1.523 . S
C345 C329 1.429 . S
C345 C341 1.429 1_545 S
C345 C346 1.523 . S
C346 C330 1.368 . S
C346 C342 1.368 . S
C346 C345 1.523 . S
H347 C322 0.950 . S
H348 C324 0.950 . S
H349 C325 0.949 . S
H350 C327 0.950 . S
H351 C329 0.950 . S
C352 C353 1.349 . S
C352 C354 1.327 . S
C352 H377 0.950 . S
C353 C352 1.349 . S
C353 C369 1.349 . S
C354 C352 1.327 . S
C354 C373 1.429 . S
C354 H378 0.950 . S
C355 C372 1.574 . S
C355 C374 1.368 . S
C355 H379 0.949 . S
H356 C360 0.949 . S
C357 C358 1.349 . S
C357 C359 1.327 . S
C357 H380 0.950 . S
C358 C357 1.349 . S
C358 C370 1.349 . S
C359 C357 1.327 . S
C359 C375 1.429 1_455 S
C359 H381 0.950 . S
C360 H356 0.949 . S
C360 C368 1.574 . S
C360 C376 1.368 . S
H361 C369 0.950 . S
H362 C367 0.950 . S
H363 C368 0.949 . S
H364 C370 0.950 . S
H365 C371 0.960 . S
H366 C372 0.949 . S
C367 H362 0.950 . S
C367 C369 1.327 . S
C367 C373 1.429 . S
C368 C360 1.574 . S
C368 H363 0.949 . S
C368 C374 1.368 . S
C369 C353 1.349 . S
C369 H361 0.950 . S
C369 C367 1.327 . S
C370 C358 1.349 . S
C370 H364 0.950 . S
C370 C371 1.315 1_455 S
C371 H365 0.960 . S
C371 C370 1.315 1_655 S
C371 C375 1.431 . S
C372 C355 1.574 . S
C372 H366 0.949 . S
C372 C376 1.368 . S
C373 C354 1.429 . S
C373 C367 1.429 . S
C373 C374 1.523 . S
C374 C355 1.368 . S
C374 C368 1.368 . S
C374 C373 1.523 . S
C375 C359 1.429 1_655 S
C375 C371 1.431 . S
C375 C376 1.523 . S
C376 C360 1.368 . S
C376 C372 1.368 . S
C376 C375 1.523 . S
H377 C352 0.950 . S
H378 C354 0.950 . S
H379 C355 0.949 . S
H380 C357 0.950 . S
H381 C359 0.950 . S
C382 C383 1.349 . S
C382 C384 1.327 . S
C382 H407 0.950 . S
C383 C382 1.349 . S
C383 C399 1.349 . S
C384 C382 1.327 . S
C384 C403 1.429 . S
C384 H408 0.950 . S
C385 C402 1.574 . S
C385 C404 1.368 . S
C385 H409 0.949 . S
H386 C390 0.949 . S
C387 C388 1.349 . S
C387 C389 1.327 . S
C387 H410 0.950 . S
C388 C387 1.349 . S
C388 C400 1.349 . S
C389 C387 1.327 . S
C389 C405 1.429 . S
C389 H411 0.950 . S
C390 H386 0.949 . S
C390 C398 1.574 . S
C390 C406 1.368 . S
H391 C399 0.950 . S
H392 C397 0.950 . S
H393 C398 0.949 . S
H394 C400 0.950 . S
H395 C401 0.950 . S
H396 C402 0.949 . S
C397 H392 0.950 . S
C397 C399 1.327 . S
C397 C403 1.429 . S
C398 C390 1.574 . S
C398 H393 0.949 . S
C398 C404 1.368 . S
C399 C383 1.349 . S
C399 H391 0.950 . S
C399 C397 1.327 . S
C400 C388 1.349 . S
C400 H394 0.950 . S
C400 C401 1.327 . S
C401 H395 0.950 . S
C401 C400 1.327 . S
C401 C405 1.429 . S
C402 C385 1.574 . S
C402 H396 0.949 . S
C402 C406 1.368 . S
C403 C384 1.429 . S
C403 C397 1.429 . S
C403 C404 1.523 . S
C404 C385 1.368 . S
C404 C398 1.368 . S
C404 C403 1.523 . S
C405 C389 1.429 . S
C405 C401 1.429 . S
C405 C406 1.523 . S
C406 C390 1.368 . S
C406 C402 1.368 . S
C406 C405 1.523 . S
H407 C382 0.950 . S
H408 C384 0.950 . S
H409 C385 0.949 . S
H410 C387 0.950 . S
H411 C389 0.950 . S
C412 C413 1.349 . S
C412 C414 1.327 . S
C412 H437 0.950 . S
C413 C412 1.349 . S
C413 C429 1.349 . S
C414 C412 1.327 . S
C414 C433 1.429 . S
C414 H438 0.950 . S
C415 C432 1.574 . S
C415 C434 1.368 . S
C415 H439 0.949 . S
H416 C420 0.949 . S
C417 C418 1.349 . S
C417 C419 1.327 . S
C417 H440 0.950 . S
C418 C417 1.349 . S
C418 C430 1.349 . S
C419 C417 1.327 . S
C419 C435 1.429 1_655 S
C419 H441 0.950 . S
C420 H416 0.949 . S
C420 C428 1.574 . S
C420 C436 1.368 . S
H421 C429 0.950 . S
H422 C427 0.950 . S
H423 C428 0.949 . S
H424 C430 0.950 . S
H425 C431 0.950 . S
H426 C432 0.949 . S
C427 H422 0.950 . S
C427 C429 1.327 . S
C427 C433 1.429 . S
C428 C420 1.574 . S
C428 H423 0.949 . S
C428 C434 1.368 . S
C429 C413 1.349 . S
C429 H421 0.950 . S
C429 C427 1.327 . S
C430 C418 1.349 . S
C430 H424 0.950 . S
C430 C431 1.327 1_655 S
C431 H425 0.950 . S
C431 C430 1.327 1_455 S
C431 C435 1.429 . S
C432 C415 1.574 . S
C432 H426 0.949 . S
C432 C436 1.368 . S
C433 C414 1.429 . S
C433 C427 1.429 . S
C433 C434 1.523 . S
C434 C415 1.368 . S
C434 C428 1.368 . S
C434 C433 1.523 . S
C435 C419 1.429 1_455 S
C435 C431 1.429 . S
C435 C436 1.523 . S
C436 C420 1.368 . S
C436 C432 1.368 . S
C436 C435 1.523 . S
H437 C412 0.950 . S
H438 C414 0.950 . S
H439 C415 0.949 . S
H440 C417 0.950 . S
H441 C419 0.950 . S
C442 C443 1.349 . S
C442 C444 1.327 . S
C442 H467 0.950 . S
C443 C442 1.349 . S
C443 C459 1.349 . S
C444 C442 1.327 . S
C444 C463 1.429 . S
C444 H468 0.950 . S
C445 C462 1.574 . S
C445 C464 1.368 . S
C445 H469 0.949 . S
H446 C450 0.949 . S
C447 C448 1.349 . S
C447 C449 1.327 . S
C447 H470 0.950 . S
C448 C447 1.349 . S
C448 C460 1.349 . S
C449 C447 1.327 . S
C449 C465 1.429 . S
C449 H471 0.950 . S
C450 H446 0.949 . S
C450 C458 1.574 . S
C450 C466 1.368 . S
H451 C459 0.950 . S
H452 C457 0.950 . S
H453 C458 0.949 . S
H454 C460 0.950 . S
H455 C461 0.950 . S
H456 C462 0.949 . S
C457 H452 0.950 . S
C457 C459 1.327 . S
C457 C463 1.429 . S
C458 C450 1.574 . S
C458 H453 0.949 . S
C458 C464 1.368 . S
C459 C443 1.349 . S
C459 H451 0.950 . S
C459 C457 1.327 . S
C460 C448 1.349 . S
C460 H454 0.950 . S
C460 C461 1.327 . S
C461 H455 0.950 . S
C461 C460 1.327 . S
C461 C465 1.429 . S
C462 C445 1.574 . S
C462 H456 0.949 . S
C462 C466 1.368 . S
C463 C444 1.429 . S
C463 C457 1.429 . S
C463 C464 1.523 . S
C464 C445 1.368 . S
C464 C458 1.368 . S
C464 C463 1.523 . S
C465 C449 1.429 . S
C465 C461 1.429 . S
C465 C466 1.523 . S
C466 C450 1.368 . S
C466 C462 1.368 . S
C466 C465 1.523 . S
H467 C442 0.950 . S
H468 C444 0.950 . S
H469 C445 0.949 . S
H470 C447 0.950 . S
H471 C449 0.950 . S
C472 C473 1.349 . S
C472 C474 1.327 . S
C472 H497 0.950 . S
C473 C472 1.349 . S
C473 C489 1.349 . S
C474 C472 1.327 . S
C474 C493 1.429 . S
C474 H498 0.950 . S
C475 C492 1.574 1_655 S
C475 C494 1.368 . S
C475 H499 0.949 . S
H476 C480 0.949 . S
C477 C478 1.349 . S
C477 C479 1.327 . S
C477 H500 0.950 . S
C478 C477 1.349 . S
C478 C490 1.349 . S
C479 C477 1.327 . S
C479 C495 1.429 . S
C479 H501 0.950 . S
C480 H476 0.949 . S
C480 C488 1.574 1_455 S
C480 C496 1.368 . S
H481 C489 0.950 . S
H482 C487 0.950 . S
H483 C488 0.949 . S
H484 C490 0.950 . S
H485 C491 0.950 . S
H486 C492 0.949 . S
C487 H482 0.950 . S
C487 C489 1.327 . S
C487 C493 1.429 . S
C488 C480 1.574 1_655 S
C488 H483 0.949 . S
C488 C494 1.368 . S
C489 C473 1.349 . S
C489 H481 0.950 . S
C489 C487 1.327 . S
C490 C478 1.349 . S
C490 H484 0.950 . S
C490 C491 1.327 . S
C491 H485 0.950 . S
C491 C490 1.327 . S
C491 C495 1.429 . S
C492 C475 1.574 1_455 S
C492 H486 0.949 . S
C492 C496 1.368 . S
C493 C474 1.429 . S
C493 C487 1.429 . S
C493 C494 1.523 . S
C494 C475 1.368 . S
C494 C488 1.368 . S
C494 C493 1.523 . S
C495 C479 1.429 . S
C495 C491 1.429 . S
C495 C496 1.523 . S
C496 C480 1.368 . S
C496 C492 1.368 . S
C496 C495 1.523 . S
H497 C472 0.950 . S
H498 C474 0.950 . S
H499 C475 0.949 . S
H500 C477 0.950 . S
H501 C479 0.950 . S
C502 C503 1.349 . S
C502 C504 1.327 . S
C502 H527 0.950 . S
C503 C502 1.349 . S
C503 C519 1.349 . S
C504 C502 1.327 . S
C504 C523 1.429 . S
C504 H528 0.950 . S
C505 C522 1.558 1_655 S
C505 C524 1.383 . S
C505 H529 0.950 . S
H506 C510 0.950 . S
C507 C508 1.349 . S
C507 C509 1.327 . S
C507 H530 0.950 . S
C508 C507 1.349 . S
C508 C520 1.349 . S
C509 C507 1.327 . S
C509 C525 1.429 . S
C509 H531 0.950 . S
C510 H506 0.950 . S
C510 C518 1.558 1_455 S
C510 C526 1.383 . S
H511 C519 0.950 . S
H512 C517 0.950 . S
H513 C518 0.949 . S
H514 C520 0.950 . S
H515 C521 0.950 . S
H516 C522 0.949 . S
C517 H512 0.950 . S
C517 C519 1.327 . S
C517 C523 1.429 . S
C518 C510 1.558 1_655 S
C518 H513 0.949 . S
C518 C524 1.368 . S
C519 C503 1.349 . S
C519 H511 0.950 . S
C519 C517 1.327 . S
C520 C508 1.349 . S
C520 H514 0.950 . S
C520 C521 1.327 . S
C521 H515 0.950 . S
C521 C520 1.327 . S
C521 C525 1.429 . S
C522 C505 1.558 1_455 S
C522 H516 0.949 . S
C522 C526 1.368 . S
C523 C504 1.429 . S
C523 C517 1.429 . S
C523 C524 1.523 . S
C524 C505 1.383 . S
C524 C518 1.368 . S
C524 C523 1.523 . S
C525 C509 1.429 . S
C525 C521 1.429 . S
C525 C526 1.523 . S
C526 C510 1.383 . S
C526 C522 1.368 . S
C526 C525 1.523 . S
H527 C502 0.950 . S
H528 C504 0.950 . S
H529 C505 0.950 . S
H530 C507 0.950 . S
H531 C509 0.950 . S
C532 C533 1.349 . S
C532 C534 1.327 . S
C532 H557 0.950 . S
C533 C532 1.349 . S
C533 C549 1.349 . S
C534 C532 1.327 . S
C534 C553 1.429 . S
C534 H558 0.950 . S
C535 C552 1.558 1_545 S
C535 C554 1.383 . S
C535 H559 0.950 . S
H536 C540 0.950 . S
C537 C538 1.349 . S
C537 C539 1.327 . S
C537 H560 0.950 . S
C538 C537 1.349 . S
C538 C550 1.349 . S
C539 C537 1.327 . S
C539 C555 1.429 . S
C539 H561 0.950 . S
C540 H536 0.950 . S
C540 C548 1.558 1_565 S
C540 C556 1.383 . S
H541 C549 0.950 . S
H542 C547 0.950 . S
H543 C548 0.949 . S
H544 C550 0.950 . S
H545 C551 0.950 . S
H546 C552 0.949 . S
C547 H542 0.950 . S
C547 C549 1.327 . S
C547 C553 1.429 . S
C548 C540 1.558 1_545 S
C548 H543 0.949 . S
C548 C554 1.368 . S
C549 C533 1.349 . S
C549 H541 0.950 . S
C549 C547 1.327 . S
C550 C538 1.349 . S
C550 H544 0.950 . S
C550 C551 1.327 . S
C551 H545 0.950 . S
C551 C550 1.327 . S
C551 C555 1.429 . S
C552 C535 1.558 1_565 S
C552 H546 0.949 . S
C552 C556 1.368 . S
C553 C534 1.429 . S
C553 C547 1.429 . S
C553 C554 1.523 . S
C554 C535 1.383 . S
C554 C548 1.368 . S
C554 C553 1.523 . S
C555 C539 1.429 . S
C555 C551 1.429 . S
C555 C556 1.523 . S
C556 C540 1.383 . S
C556 C552 1.368 . S
C556 C555 1.523 . S
H557 C532 0.950 . S
H558 C534 0.950 . S
H559 C535 0.950 . S
H560 C537 0.950 . S
H561 C539 0.950 . S
C562 C563 1.349 . S
C562 C564 1.327 . S
C562 H587 0.950 . S
C563 C562 1.349 . S
C563 C579 1.349 . S
C564 C562 1.327 . S
C564 C583 1.429 . S
C564 H588 0.950 . S
C565 C582 1.574 1_545 S
C565 C584 1.368 . S
C565 H589 0.949 . S
H566 C570 0.949 . S
C567 C568 1.349 . S
C567 C569 1.327 . S
C567 H590 0.950 . S
C568 C567 1.349 . S
C568 C580 1.349 . S
C569 C567 1.327 . S
C569 C585 1.429 . S
C569 H591 0.950 . S
C570 H566 0.949 . S
C570 C578 1.574 1_565 S
C570 C586 1.368 . S
H571 C579 0.950 . S
H572 C577 0.950 . S
H573 C578 0.949 . S
H574 C580 0.950 . S
H575 C581 0.950 . S
H576 C582 0.949 . S
C577 H572 0.950 . S
C577 C579 1.327 . S
C577 C583 1.429 . S
C578 C570 1.574 1_545 S
C578 H573 0.949 . S
C578 C584 1.368 . S
C579 C563 1.349 . S
C579 H571 0.950 . S
C579 C577 1.327 . S
C580 C568 1.349 . S
C580 H574 0.950 . S
C580 C581 1.327 . S
C581 H575 0.950 . S
C581 C580 1.327 . S
C581 C585 1.429 . S
C582 C565 1.574 1_565 S
C582 H576 0.949 . S
C582 C586 1.368 . S
C583 C564 1.429 . S
C583 C577 1.429 . S
C583 C584 1.523 . S
C584 C565 1.368 . S
C584 C578 1.368 . S
C584 C583 1.523 . S
C585 C569 1.429 . S
C585 C581 1.429 . S
C585 C586 1.523 . S
C586 C570 1.368 . S
C586 C582 1.368 . S
C586 C585 1.523 . S
H587 C562 0.950 . S
H588 C564 0.950 . S
H589 C565 0.949 . S
H590 C567 0.950 . S
H591 C569 0.950 . S
C113 C9 1.301 . S
C118 C79 1.301 . S
C143 C23 1.301 . S
C148 C93 1.301 . S
C173 C37 1.301 . S
C178 C107 1.301 . S
C203 C65 1.301 . S
C208 C51 1.301 . S
C233 C11 1.614 . S
C238 C56 1.583 . S
C263 C25 1.614 . S
C268 C70 1.583 . S
C293 C84 1.583 . S
C298 C39 1.614 . S
C323 C53 1.614 . S
C328 C98 1.583 . S
C353 C67 1.614 . S
C358 C0 1.583 . S
C383 C14 1.583 . S
C388 C81 1.614 . S
C413 C95 1.614 . S
C418 C28 1.583 . S
C443 C42 1.583 . S
C448 C109 1.614 . S
C473 C33 0.333 . S
C478 C5 0.333 . S
C503 C47 0.333 . S
C508 C19 0.333 . S
C533 C61 0.333 . S
C538 C89 0.333 . S
C563 C75 0.333 . S
C568 C103 0.333 . S
