# Generated by pormake.
# Topology crb, (4)-cn, num edge types: 1
# Building blocks:
#     Node 0, Type 0, BuildingBlock: NAHDIM_clean_sbu_0, # of connection points: 4
#     Node 1, Type 0, BuildingBlock: NAHDIM_clean_sbu_0, # of connection points: 4
#     Node 2, Type 0, BuildingBlock: NAHDIM_clean_sbu_0, # of connection points: 4
#     Node 3, Type 0, BuildingBlock: NAHDIM_clean_sbu_0, # of connection points: 4
#     Node 4, Type 0, BuildingBlock: NAHDIM_clean_sbu_0, # of connection points: 4
#     Node 5, Type 0, BuildingBlock: NAHDIM_clean_sbu_0, # of connection points: 4
#     Node 6, Type 0, BuildingBlock: NAHDIM_clean_sbu_0, # of connection points: 4
#     Node 7, Type 0, BuildingBlock: NAHDIM_clean_sbu_0, # of connection points: 4
#     Edge 8, Type (0, 0), BuildingBlock: TEMPAE_clean_linker_10, # of connection points: 2
#     Edge 9, Type (0, 0), BuildingBlock: TEMPAE_clean_linker_10, # of connection points: 2
#     Edge 10, Type (0, 0), BuildingBlock: TEMPAE_clean_linker_10, # of connection points: 2
#     Edge 11, Type (0, 0), BuildingBlock: TEMPAE_clean_linker_10, # of connection points: 2
#     Edge 12, Type (0, 0), BuildingBlock: TEMPAE_clean_linker_10, # of connection points: 2
#     Edge 13, Type (0, 0), BuildingBlock: TEMPAE_clean_linker_10, # of connection points: 2
#     Edge 14, Type (0, 0), BuildingBlock: TEMPAE_clean_linker_10, # of connection points: 2
#     Edge 15, Type (0, 0), BuildingBlock: TEMPAE_clean_linker_10, # of connection points: 2
#     Edge 16, Type (0, 0), BuildingBlock: TEMPAE_clean_linker_10, # of connection points: 2
#     Edge 17, Type (0, 0), BuildingBlock: TEMPAE_clean_linker_10, # of connection points: 2
#     Edge 18, Type (0, 0), BuildingBlock: TEMPAE_clean_linker_10, # of connection points: 2
#     Edge 19, Type (0, 0), BuildingBlock: TEMPAE_clean_linker_10, # of connection points: 2
#     Edge 20, Type (0, 0), BuildingBlock: TEMPAE_clean_linker_10, # of connection points: 2
#     Edge 21, Type (0, 0), BuildingBlock: TEMPAE_clean_linker_10, # of connection points: 2
#     Edge 22, Type (0, 0), BuildingBlock: TEMPAE_clean_linker_10, # of connection points: 2
#     Edge 23, Type (0, 0), BuildingBlock: TEMPAE_clean_linker_10, # of connection points: 2
# Relax obj value: 0.033
# Max RMSD: 0.066
# Mean RMSD: 0.066
data_MOF--net-crb--node1-NAHDIM_clean_sbu_0--edge1-TEMPAE_clean_linker_10
_symmetry_space_group_name_H-M    P1
_symmetry_Int_Tables_number       1
_symmetry_cell_setting            triclinic
loop_
_symmetry_equiv_pos_as_xyz
'x, y, z'
_cell_length_a     42.522658
_cell_length_b     44.483343
_cell_length_c     24.927332
_cell_angle_alpha  90.038404
_cell_angle_beta   90.024874
_cell_angle_gamma 90.003234
loop_
_atom_site_label
_atom_site_type_symbol
_atom_site_fract_x
_atom_site_fract_y
_atom_site_fract_z
_atom_type_partial_charge
C0 C 0.31015 0.30193 0.18002 0.0
O1 O 0.33384 0.32034 0.1882 0.0
O2 O 0.36453 0.31918 0.07187 0.0
Zn3 Zn 0.31742 0.32197 0.07095 0.0
O4 O 0.30187 0.30407 0.0022 0.0
C5 C 0.32106 0.3847 0.09884 0.0
O6 O 0.34611 0.3756 0.12504 0.0
O7 O 0.29912 0.29911 0.13293 0.0
C8 C 0.27315 0.30658 0.989 0.0
O9 O 0.25379 0.32081 0.02129 0.0
C10 C 0.37984 0.33385 0.03682 0.0
O11 O 0.36431 0.34985 0.0013 0.0
O12 O 0.30453 0.36552 0.07366 0.0
C13 C 0.68081 0.29391 0.90451 0.0
O14 O 0.65042 0.29921 0.90532 0.0
O15 O 0.63262 0.32278 0.00643 0.0
Zn16 Zn 0.67973 0.32591 0.00576 0.0
O17 O 0.69596 0.30783 0.07382 0.0
C18 C 0.67636 0.38796 0.97538 0.0
O19 O 0.65291 0.3779 0.94609 0.0
O20 O 0.69784 0.30353 0.94276 0.0
C21 C 0.72513 0.30306 0.08055 0.0
O22 O 0.74485 0.31007 0.04195 0.0
C23 C 0.61696 0.33799 0.04029 0.0
O24 O 0.63206 0.35531 0.07439 0.0
O25 O 0.69209 0.36949 0.00351 0.0
C26 C 0.69581 0.71342 0.14434 0.0
O27 O 0.68589 0.73149 0.10623 0.0
O28 O 0.63033 0.67393 0.06741 0.0
Zn29 Zn 0.67719 0.66852 0.06788 0.0
O30 O 0.69488 0.69 0.00371 0.0
C31 C 0.69813 0.61173 0.0217 0.0
O32 O 0.70745 0.62875 0.98173 0.0
O33 O 0.69474 0.68519 0.13672 0.0
C34 C 0.72383 0.6965 -0.00121 0.0
O35 O 0.74335 0.68974 0.03784 0.0
C36 C 0.61466 0.66034 0.03138 0.0
O37 O 0.62973 0.64399 0.99578 0.0
O38 O 0.68569 0.62393 0.06269 0.0
C39 C 0.29892 0.71001 0.93279 0.0
O40 O 0.31807 0.72547 0.96368 0.0
O41 O 0.36108 0.67034 0.00448 0.0
Zn42 Zn 0.31433 0.66475 0.00885 0.0
O43 O 0.29901 0.68576 0.07513 0.0
C44 C 0.29348 0.60775 0.05409 0.0
O45 O 0.28403 0.62457 0.09428 0.0
O46 O 0.29358 0.68262 0.94394 0.0
C47 C 0.27038 0.69321 0.081 0.0
O48 O 0.25023 0.68719 0.04249 0.0
C49 C 0.3777 0.65706 0.03958 0.0
O50 O 0.36359 0.64087 0.0765 0.0
O51 O 0.30592 0.62017 0.01335 0.0
C52 C 0.80412 0.77639 0.64566 0.0
O53 O 0.8169 0.75793 0.61074 0.0
O54 O 0.8696 0.81303 0.57069 0.0
Zn55 Zn 0.82301 0.8207 0.56824 0.0
O56 O 0.80461 0.80171 0.50209 0.0
C57 C 0.82866 0.88028 0.52763 0.0
O58 O 0.84486 0.86595 0.49072 0.0
O59 O 0.80344 0.80434 0.63534 0.0
C60 C 0.77521 0.79917 0.49435 0.0
O61 O 0.75565 0.80892 0.53126 0.0
C62 C 0.88289 0.79273 0.54286 0.0
O63 O 0.86571 0.7756 0.51147 0.0
O64 O 0.81629 0.86532 0.56554 0.0
C65 C 0.19739 0.78045 0.4331 0.0
O66 O 0.18798 0.76243 0.47163 0.0
O67 O 0.13215 0.81628 0.51082 0.0
Zn68 Zn 0.17858 0.82501 0.50915 0.0
O69 O 0.20063 0.80596 0.57199 0.0
C70 C 0.16456 0.88655 0.53376 0.0
O71 O 0.14001 0.87401 0.55659 0.0
O72 O 0.19604 0.80868 0.44037 0.0
C73 C 0.19065 0.80973 0.61957 0.0
O74 O 0.16554 0.82634 0.62753 0.0
C75 C 0.1195 0.79356 0.53292 0.0
O76 O 0.13734 0.77345 0.55663 0.0
O77 O 0.18484 0.8699 0.51092 0.0
C78 C 0.19623 0.21702 0.6411 0.0
O79 O 0.19329 0.23373 0.59796 0.0
O80 O 0.12469 0.1759 0.57063 0.0
Zn81 Zn 0.1716 0.17169 0.57078 0.0
O82 O 0.18998 0.19298 0.50705 0.0
C83 C 0.17072 0.11276 0.52777 0.0
O84 O 0.1552 0.12709 0.49002 0.0
O85 O 0.18863 0.18942 0.63888 0.0
C86 C 0.21635 0.18515 0.48762 0.0
O87 O 0.23151 0.16244 0.50918 0.0
C88 C 0.11041 0.20036 0.56088 0.0
O89 O 0.1268 0.22465 0.55008 0.0
O90 O 0.18125 0.12759 0.56749 0.0
C91 C 0.80043 0.21208 0.42806 0.0
O92 O 0.81144 0.22927 0.46664 0.0
O93 O 0.86137 0.17835 0.50978 0.0
Zn94 Zn 0.81543 0.16783 0.50511 0.0
O95 O 0.79159 0.18786 0.56506 0.0
C96 C 0.82979 0.10693 0.53394 0.0
O97 O 0.85194 0.12049 0.5616 0.0
O98 O 0.79937 0.18383 0.43526 0.0
C99 C 0.7811 0.17429 0.60616 0.0
O100 O 0.78534 0.14515 0.61068 0.0
C101 C 0.87406 0.18977 0.55121 0.0
O102 O 0.8567 0.19529 0.59365 0.0
O103 O 0.8106 0.12273 0.50683 0.0
C104 C 0.28633 0.42698 0.06888 0.0
C105 C 0.31366 0.41714 0.09513 0.0
C106 C 0.28013 0.45775 0.06229 0.0
C107 C 0.30188 0.47913 0.0821 0.0
C108 C 0.32916 0.46935 0.10958 0.0
C109 C 0.33466 0.43848 0.11593 0.0
C110 C 0.25065 0.46738 0.0332 0.0
C111 C 0.35298 0.49149 0.13112 0.0
C112 C 0.3073 0.55663 0.01955 0.0
C113 C 0.29281 0.57458 0.05869 0.0
C114 C 0.30957 0.52538 0.02596 0.0
C115 C 0.2969 0.51174 0.07246 0.0
C116 C 0.28116 0.52956 0.11108 0.0
C117 C 0.27936 0.56079 0.1038 0.0
C118 C 0.32658 0.50712 0.9839 0.0
C119 C 0.26713 0.51575 0.16096 0.0
H120 H 0.26992 0.41062 0.05287 0.0
H121 H 0.35583 0.4311 0.13623 0.0
H122 H 0.23707 0.48341 0.05822 0.0
H123 H 0.25704 0.47925 0.99562 0.0
H124 H 0.23527 0.44803 0.02291 0.0
H125 H 0.37249 0.48024 0.15293 0.0
H126 H 0.3631 0.50471 0.09757 0.0
H127 H 0.3414 0.50761 0.15874 0.0
H128 H 0.31771 0.56706 0.98453 0.0
H129 H 0.26798 0.57447 0.1341 0.0
H130 H 0.31148 0.48837 0.96984 0.0
H131 H 0.34806 0.49702 0.0016 0.0
H132 H 0.33355 0.52089 0.94869 0.0
H133 H 0.25139 0.49681 0.1501 0.0
H134 H 0.25355 0.53232 0.18495 0.0
H135 H 0.28617 0.50646 0.1865 0.0
C136 C 0.43123 0.3151 0.07253 0.0
C137 C 0.41463 0.33374 0.03706 0.0
C138 C 0.46422 0.31512 0.07359 0.0
C139 C 0.48096 0.33436 0.03856 0.0
C140 C 0.46437 0.35319 0.00262 0.0
C141 C 0.43139 0.35259 0.0022 0.0
C142 C 0.48116 0.29461 0.11226 0.0
C143 C 0.48145 0.37411 0.96486 0.0
C144 C 0.56483 0.35561 0.0744 0.0
C145 C 0.5822 0.33672 0.04047 0.0
C146 C 0.53184 0.355 0.07431 0.0
C147 C 0.51588 0.33492 0.03965 0.0
C148 C 0.53326 0.31563 0.00561 0.0
C149 C 0.56622 0.31681 0.00632 0.0
C150 C 0.51406 0.37602 0.11099 0.0
C151 C 0.51703 0.29382 0.96828 0.0
H152 H 0.41845 0.30044 0.09954 0.0
H153 H 0.41875 0.36712 0.97477 0.0
H154 H 0.49717 0.27939 0.08993 0.0
H155 H 0.49589 0.3081 0.14002 0.0
H156 H 0.46467 0.28074 0.13637 0.0
H157 H 0.46505 0.38729 0.93935 0.0
H158 H 0.49627 0.38999 0.9881 0.0
H159 H 0.49737 0.36105 0.9384 0.0
H160 H 0.57698 0.37109 0.10082 0.0
H161 H 0.57948 0.30209 0.98004 0.0
H162 H 0.49858 0.36294 0.13814 0.0
H163 H 0.4987 0.39102 0.08694 0.0
H164 H 0.53 0.39014 0.13576 0.0
H165 H 0.50155 0.27857 0.99155 0.0
H166 H 0.53398 0.27999 0.94502 0.0
H167 H 0.50186 0.30628 0.93971 0.0
C168 C 0.70909 0.43128 0.0071 0.0
C169 C 0.68269 0.42061 0.97914 0.0
C170 C 0.71423 0.46222 0.01381 0.0
C171 C 0.69231 0.48295 0.99245 0.0
C172 C 0.66596 0.47234 0.9633 0.0
C173 C 0.66155 0.44131 0.95678 0.0
C174 C 0.74277 0.47273 0.04464 0.0
C175 C 0.64197 0.49376 0.94015 0.0
C176 C 0.68406 0.56037 0.05475 0.0
C177 C 0.69909 0.57858 0.01665 0.0
C178 C 0.68233 0.52911 0.04796 0.0
C179 C 0.69616 0.51571 0.00216 0.0
C180 C 0.71233 0.53381 0.96453 0.0
C181 C 0.71351 0.56506 0.97213 0.0
C182 C 0.6648 0.51054 0.08891 0.0
C183 C 0.72762 0.52027 0.91548 0.0
H184 H 0.72561 0.41542 0.02429 0.0
H185 H 0.64107 0.43327 0.93521 0.0
H186 H 0.75641 0.48903 0.02033 0.0
H187 H 0.73524 0.48454 0.08168 0.0
H188 H 0.75847 0.45383 0.05607 0.0
H189 H 0.62328 0.48193 0.91723 0.0
H190 H 0.63075 0.50677 0.97297 0.0
H191 H 0.65364 0.51014 0.91317 0.0
H192 H 0.67284 0.57061 0.08927 0.0
H193 H 0.72531 0.57894 0.94263 0.0
H194 H 0.68008 0.49225 0.10423 0.0
H195 H 0.64408 0.4998 0.06977 0.0
H196 H 0.65657 0.52422 0.12346 0.0
H197 H 0.74375 0.50183 0.92732 0.0
H198 H 0.74109 0.53714 0.89203 0.0
H199 H 0.70934 0.51035 0.88908 0.0
C200 C 0.42756 0.67864 0.00247 0.0
C201 C 0.41242 0.65915 0.03837 0.0
C202 C 0.46051 0.68037 0.00053 0.0
C203 C 0.47868 0.66201 0.03502 0.0
C204 C 0.46353 0.64243 0.07152 0.0
C205 C 0.43059 0.64132 0.0729 0.0
C206 C 0.47587 0.70167 0.96136 0.0
C207 C 0.48214 0.62235 0.10869 0.0
C208 C 0.56264 0.64292 0.99663 0.0
C209 C 0.5799 0.66181 0.03076 0.0
C210 C 0.52967 0.64305 0.99713 0.0
C211 C 0.51357 0.66273 0.03229 0.0
C212 C 0.53082 0.68232 0.06604 0.0
C213 C 0.56381 0.68153 0.06505 0.0
C214 C 0.51206 0.62167 0.96083 0.0
C215 C 0.51442 0.70379 0.10372 0.0
H216 H 0.41367 0.69257 0.97581 0.0
H217 H 0.41909 0.62616 0.10069 0.0
H218 H 0.49171 0.71735 0.98305 0.0
H219 H 0.49056 0.68885 0.93257 0.0
H220 H 0.45839 0.71505 0.9384 0.0
H221 H 0.46677 0.60862 0.13509 0.0
H222 H 0.49724 0.60699 0.08489 0.0
H223 H 0.49791 0.63612 0.13427 0.0
H224 H 0.57489 0.62758 0.97008 0.0
H225 H 0.57699 0.6963 0.09136 0.0
H226 H 0.49555 0.63433 0.93483 0.0
H227 H 0.49781 0.60592 0.98532 0.0
H228 H 0.52809 0.60833 0.9349 0.0
H229 H 0.49777 0.71819 0.08106 0.0
H230 H 0.53123 0.71848 0.1256 0.0
H231 H 0.50045 0.69097 0.13352 0.0
C232 C 0.84171 0.93008 0.48671 0.0
C233 C 0.82628 0.91349 0.52665 0.0
C234 C 0.84104 0.96161 0.48685 0.0
C235 C 0.82449 0.97693 0.52785 0.0
C236 C 0.80827 0.96034 0.56759 0.0
C237 C 0.80937 0.92881 0.56654 0.0
C238 C 0.85863 0.97855 0.44379 0.0
C239 C 0.79028 0.9759 0.61184 0.0
C240 C 0.85031 0.05648 0.56069 0.0
C241 C 0.82777 0.0737 0.53343 0.0
C242 C 0.84937 0.02498 0.55944 0.0
C243 C 0.82523 0.01031 0.53036 0.0
C244 C 0.80218 0.02751 0.50324 0.0
C245 C 0.80375 0.05903 0.50503 0.0
C246 C 0.87441 0.00739 0.58881 0.0
C247 C 0.77604 0.01262 0.472 0.0
H248 H 0.85477 0.91844 0.45568 0.0
H249 H 0.7973 0.91618 0.59747 0.0
H250 H 0.84255 0.99431 0.42289 0.0
H251 H 0.87758 0.99221 0.46229 0.0
H252 H 0.86932 0.9633 0.41357 0.0
H253 H 0.77774 0.95975 0.63825 0.0
H254 H 0.80669 0.98935 0.6368 0.0
H255 H 0.77286 0.99171 0.59451 0.0
H256 H 0.86897 0.06761 0.58271 0.0
H257 H 0.7862 0.07216 0.48393 0.0
H258 H 0.88762 0.99315 0.56004 0.0
H259 H 0.86336 0.99213 0.61852 0.0
H260 H 0.89135 0.02221 0.61009 0.0
H261 H 0.78609 -0.00135 0.43936 0.0
H262 H 0.75958 0.0292 0.45404 0.0
H263 H 0.7625 0.99738 0.49858 0.0
C264 C 0.06625 0.81052 0.50345 0.0
C265 C 0.08483 0.79062 0.53346 0.0
C266 C 0.03336 0.80893 0.50498 0.0
C267 C 0.01863 0.78704 0.53759 0.0
C268 C 0.0372 0.76657 0.56737 0.0
C269 C 0.07013 0.76853 0.56481 0.0
C270 C 0.01435 0.83103 0.47232 0.0
C271 C 0.02227 0.74304 0.60278 0.0
C272 C 0.93552 0.80613 0.58066 0.0
C273 C 0.91753 0.78955 0.54389 0.0
C274 C 0.96845 0.80472 0.58017 0.0
C275 C 0.98379 0.78644 0.54175 0.0
C276 C 0.96579 0.76904 0.50542 0.0
C277 C 0.93283 0.77073 0.50704 0.0
C278 C 0.98686 0.82343 0.61985 0.0
C279 C 0.98134 0.7494 0.46374 0.0
H280 H 0.07741 0.82755 0.47889 0.0
H281 H 0.08433 0.7531 0.58816 0.0
H282 H -0.00216 0.81883 0.44559 0.0
H283 H 2e-05 0.84532 0.4994 0.0
H284 H 0.02942 0.84587 0.44735 0.0
H285 H 0.03998 0.72808 0.62175 0.0
H286 H 0.00842 0.75412 0.63489 0.0
H287 H 0.00571 0.72905 0.57909 0.0
H288 H 0.92387 0.82057 0.60952 0.0
H289 H 0.91911 0.75782 0.47853 0.0
H290 H 0.0007 0.84071 0.59813 0.0
H291 H 0.00379 0.80909 0.64201 0.0
H292 H 0.9714 0.83495 0.64931 0.0
H293 H 0.99479 0.76362 0.43529 0.0
H294 H 0.96404 0.73589 0.44062 0.0
H295 H -0.00165 0.7339 0.48307 0.0
C296 C 0.15996 0.06321 0.48414 0.0
C297 C 0.17368 0.07962 0.52612 0.0
C298 C 0.16038 0.03168 0.48412 0.0
C299 C 0.17493 0.01621 0.52707 0.0
C300 C 0.18975 0.03262 0.56866 0.0
C301 C 0.18894 0.06415 0.5677 0.0
C302 C 0.14437 0.01493 0.43901 0.0
C303 C 0.20559 0.01688 0.61501 0.0
C304 C 0.14493 0.93778 0.55745 0.0
C305 C 0.16791 0.91967 0.53328 0.0
C306 C 0.14714 0.96921 0.55611 0.0
C307 C 0.17299 0.9829 0.53003 0.0
C308 C 0.19649 0.9648 0.50609 0.0
C309 C 0.19367 0.93337 0.50798 0.0
C310 C 0.12159 0.98778 0.58212 0.0
C311 C 0.22441 0.97865 0.47801 0.0
H312 H 0.14822 0.07496 0.45174 0.0
H313 H 0.19972 0.07666 0.60019 0.0
H314 H 0.16079 -0.00155 0.42083 0.0
H315 H 0.12406 0.00209 0.45502 0.0
H316 H 0.13575 0.03025 0.40704 0.0
H317 H 0.21781 0.03284 0.64225 0.0
H318 H 0.18783 0.00427 0.63858 0.0
H319 H 0.22296 0.0003 0.59992 0.0
H320 H 0.12496 0.92741 0.57714 0.0
H321 H 0.21156 0.91954 0.48925 0.0
H322 H 0.11006 0.00219 0.55159 0.0
H323 H 0.13192 0.00291 0.61281 0.0
H324 H 0.10332 0.97364 0.60157 0.0
H325 H 0.21626 0.9926 0.44385 0.0
H326 H 0.24105 0.96144 0.46261 0.0
H327 H 0.23723 0.99375 0.50591 0.0
C328 C 0.92333 0.20395 0.60009 0.0
C329 C 0.90841 0.19508 0.55245 0.0
C330 C 0.95614 0.20712 0.60252 0.0
C331 C 0.97438 0.20136 0.55615 0.0
C332 C 0.95938 0.19337 0.50751 0.0
C333 C 0.92658 0.19027 0.50627 0.0
C334 C 0.97136 0.21565 0.65511 0.0
C335 C 0.97804 0.18717 0.45716 0.0
C336 C 0.05931 0.22768 0.54896 0.0
C337 C 0.0756 0.20111 0.56103 0.0
C338 C 0.02628 0.22827 0.54791 0.0
C339 C 0.00926 0.20167 0.55923 0.0
C340 C 0.02558 0.17491 0.5721 0.0
C341 C 0.05852 0.17495 0.57282 0.0
C342 C 0.00962 0.25721 0.53403 0.0
C343 C 0.00824 0.14609 0.58445 0.0
H344 H 0.90946 0.20779 0.63592 0.0
H345 H 0.91523 0.18361 0.46918 0.0
H346 H 0.98594 0.19669 0.66984 0.0
H347 H 0.98726 0.23517 0.64943 0.0
H348 H 0.95377 0.22138 0.68643 0.0
H349 H 0.96269 0.18311 0.42181 0.0
H350 H 0.99383 0.20638 0.44817 0.0
H351 H 0.99313 0.16711 0.46325 0.0
H352 H 0.07233 0.248 0.5399 0.0
H353 H 0.07088 0.15433 0.58232 0.0
H354 H 0.99293 0.26335 0.56643 0.0
H355 H 0.99563 0.25414 0.49684 0.0
H356 H 0.02625 0.27616 0.52792 0.0
H357 H 0.99169 0.14967 0.61825 0.0
H358 H 0.02443 0.12742 0.59509 0.0
H359 H 0.99407 0.13914 0.54917 0.0
C360 C 0.21614 0.22869 0.42423 0.0
C361 C 0.23004 0.20187 0.44197 0.0
C362 C 0.22913 0.24507 0.3816 0.0
C363 C 0.25654 0.23425 0.35583 0.0
C364 C 0.27057 0.2071 0.37326 0.0
C365 C 0.25721 0.19128 0.41629 0.0
C366 C 0.21362 0.27404 0.36432 0.0
C367 C 0.29968 0.19476 0.34643 0.0
C368 C 0.27355 0.26258 0.21524 0.0
C369 C 0.29656 0.28454 0.22499 0.0
C370 C 0.2605 0.24588 0.25743 0.0
C371 C 0.27054 0.25141 0.31066 0.0
C372 C 0.29373 0.27353 0.3208 0.0
C373 C 0.30654 0.28977 0.27781 0.0
C374 C 0.23595 0.22233 0.24505 0.0
C375 C 0.30486 0.28016 0.37712 0.0
H376 H 0.1952 0.23708 0.44399 0.0
H377 H 0.26803 0.17054 0.42966 0.0
H378 H 0.23055 0.29292 0.36785 0.0
H379 H 0.20656 0.27254 0.32156 0.0
H380 H 0.19248 0.2794 0.38868 0.0
H381 H 0.3075 0.17318 0.36443 0.0
H382 H 0.29511 0.19112 0.30309 0.0
H383 H 0.31917 0.21125 0.34961 0.0
H384 H 0.26578 0.25832 0.17452 0.0
H385 H 0.32426 0.30672 0.28569 0.0
H386 H 0.21368 0.22786 0.26601 0.0
H387 H 0.24382 0.20009 0.26004 0.0
H388 H 0.23108 0.22045 0.20139 0.0
H389 H 0.28471 0.28736 0.4023 0.0
H390 H 0.3231 0.29804 0.37821 0.0
H391 H 0.31472 0.25951 0.39554 0.0
C392 C 0.76863 0.28335 0.13837 0.0
C393 C 0.7366 0.28979 0.13133 0.0
C394 C 0.77969 0.27069 0.18635 0.0
C395 C 0.75821 0.2644 0.22823 0.0
C396 C 0.72589 0.27091 0.22144 0.0
C397 C 0.71547 0.28349 0.17305 0.0
C398 C 0.81434 0.26398 0.19221 0.0
C399 C 0.7023 0.26459 0.26531 0.0
C400 C 0.78027 0.20695 0.33419 0.0
C401 C 0.78974 0.22543 0.37685 0.0
C402 C 0.77021 0.21934 0.28539 0.0
C403 C 0.76949 0.25096 0.27924 0.0
C404 C 0.77905 0.26974 0.32208 0.0
C405 C 0.78913 0.25675 0.37037 0.0
C406 C 0.76026 0.19861 0.24047 0.0
C407 C 0.77845 0.30357 0.31702 0.0
H408 H 0.7851 0.28814 0.10633 0.0
H409 H 0.69068 0.28843 0.168 0.0
H410 H 0.82408 0.27643 0.22702 0.0
H411 H 0.81783 0.23967 0.20017 0.0
H412 H 0.82795 0.2702 0.15584 0.0
H413 H 0.67802 0.27112 0.25374 0.0
H414 H 0.70245 0.24029 0.27532 0.0
H415 H 0.70887 0.27701 0.30226 0.0
H416 H 0.78076 0.18273 0.33883 0.0
H417 H 0.79639 0.27119 0.40314 0.0
H418 H 0.77466 0.20302 0.2042 0.0
H419 H 0.73538 0.20301 0.2296 0.0
H420 H 0.76269 0.17452 0.25141 0.0
H421 H 0.79335 0.31075 0.28282 0.0
H422 H 0.78693 0.31499 0.35394 0.0
H423 H 0.75414 0.31128 0.30851 0.0
C424 C 0.78442 0.77712 0.40333 0.0
C425 C 0.76332 0.78599 0.44363 0.0
C426 C 0.77361 0.76512 0.35465 0.0
C427 C 0.74089 0.7618 0.34606 0.0
C428 C 0.71945 0.77049 0.38666 0.0
C429 C 0.73092 0.78253 0.43496 0.0
C430 C 0.7972 0.75618 0.31226 0.0
C431 C 0.6844 0.76716 0.37899 0.0
C432 C 0.71154 0.75686 0.20235 0.0
C433 C 0.7075 0.72577 0.19585 0.0
C434 C 0.72237 0.76889 0.25104 0.0
C435 C 0.72914 0.74938 0.29438 0.0
C436 C 0.72502 0.71799 0.28817 0.0
C437 C 0.71436 0.70655 0.23892 0.0
C438 C 0.72669 0.80247 0.25605 0.0
C439 C 0.73185 0.6965 0.33357 0.0
H440 H 0.8095 0.77971 0.40963 0.0
H441 H 0.71446 0.78928 0.46587 0.0
H442 H 0.79441 0.73203 0.3022 0.0
H443 H 0.79288 0.76914 0.27495 0.0
H444 H 0.82184 0.76011 0.3253 0.0
H445 H 0.67089 0.77463 0.41473 0.0
H446 H 0.67665 0.78055 0.34386 0.0
H447 H 0.67848 0.74333 0.37055 0.0
H448 H 0.70636 0.77186 0.16927 0.0
H449 H 0.7112 0.68251 0.23432 0.0
H450 H 0.75153 0.80767 0.26605 0.0
H451 H 0.71197 0.81127 0.28926 0.0
H452 H 0.72034 0.81456 0.2186 0.0
H453 H 0.75685 0.69847 0.34584 0.0
H454 H 0.72706 0.67275 0.32246 0.0
H455 H 0.71732 0.70237 0.36902 0.0
C456 C 0.21716 0.78738 0.33938 0.0
C457 C 0.20856 0.76807 0.38138 0.0
C458 C 0.22723 0.77595 0.28983 0.0
C459 C 0.22877 0.74446 0.28215 0.0
C460 C 0.22024 0.72485 0.32439 0.0
C461 C 0.21022 0.73689 0.37352 0.0
C462 C 0.23615 0.79754 0.24565 0.0
C463 C 0.22168 0.69113 0.31766 0.0
C464 C 0.22784 0.71348 0.1402 0.0
C465 C 0.25976 0.70713 0.13178 0.0
C466 C 0.21743 0.72582 0.18887 0.0
C467 C 0.23949 0.732 0.22998 0.0
C468 C 0.27177 0.72595 0.22153 0.0
C469 C 0.28152 0.71357 0.17255 0.0
C470 C 0.18279 0.73198 0.19653 0.0
C471 C 0.29599 0.73233 0.2644 0.0
H472 H 0.21591 0.81151 0.34509 0.0
H473 H 0.20363 0.72181 0.40574 0.0
H474 H 0.26087 0.79363 0.23329 0.0
H475 H 0.22116 0.79359 0.20989 0.0
H476 H 0.23362 0.82141 0.25808 0.0
H477 H 0.21423 0.67897 0.35445 0.0
H478 H 0.2063 0.68407 0.28397 0.0
H479 H 0.246 0.68415 0.30745 0.0
H480 H 0.21088 0.70856 0.10892 0.0
H481 H 0.30625 0.70878 0.16636 0.0
H482 H 0.17907 0.75606 0.20631 0.0
H483 H 0.17373 0.71868 0.23083 0.0
H484 H 0.16875 0.72633 0.16031 0.0
H485 H 0.29519 0.75642 0.27587 0.0
H486 H 0.32024 0.72678 0.25114 0.0
H487 H 0.29058 0.71906 0.30093 0.0
C488 C 0.23488 0.77922 0.65733 0.0
C489 C 0.20678 0.79514 0.6653 0.0
C490 C 0.25035 0.76523 0.70033 0.0
C491 C 0.23732 0.76707 0.75246 0.0
C492 C 0.20894 0.78304 0.76077 0.0
C493 C 0.19405 0.79695 0.7171 0.0
C494 C 0.28067 0.74852 0.68999 0.0
C495 C 0.19426 0.78536 0.81578 0.0
C496 C 0.26132 0.70858 0.85551 0.0
C497 C 0.28344 0.72445 0.88624 0.0
C498 C 0.24616 0.72217 0.81179 0.0
C499 C 0.25338 0.7523 0.79838 0.0
C500 C 0.2758 0.76839 0.82901 0.0
C501 C 0.29052 0.75429 0.87264 0.0
C502 C 0.22229 0.70434 0.78012 0.0
C503 C 0.28419 0.80053 0.81576 0.0
H504 H 0.24491 0.77775 0.61745 0.0
H505 H 0.17231 0.80912 0.72359 0.0
H506 H 0.29986 0.75827 0.71464 0.0
H507 H 0.2781 0.72464 0.70206 0.0
H508 H 0.28777 0.74933 0.64713 0.0
H509 H 0.17204 0.79849 0.81544 0.0
H510 H 0.18922 0.76255 0.83159 0.0
H511 H 0.21094 0.79623 0.84401 0.0
H512 H 0.25566 0.68553 0.86579 0.0
H513 H 0.30762 0.76671 0.89611 0.0
H514 H 0.22949 0.7031 0.73741 0.0
H515 H 0.19912 0.71579 0.78142 0.0
H516 H 0.21941 0.6811 0.79565 0.0
H517 H 0.29303 0.80199 0.77398 0.0
H518 H 0.30237 0.80979 0.84318 0.0
H519 H 0.26291 0.8149 0.8183 0.0
C520 C 0.22993 0.29569 0.92365 0.0
C521 C 0.26179 0.2937 0.93778 0.0
C522 C 0.2189 0.28349 0.87525 0.0
C523 C 0.24027 0.26902 0.84019 0.0
C524 C 0.27246 0.26704 0.8541 0.0
C525 C 0.28284 0.27938 0.90276 0.0
C526 C 0.18438 0.28597 0.8617 0.0
C527 C 0.29594 0.25183 0.81762 0.0
C528 C 0.20841 0.21302 0.73901 0.0
C529 C 0.20769 0.23028 0.69193 0.0
C530 C 0.21885 0.22541 0.7876 0.0
C531 C 0.22892 0.25572 0.78908 0.0
C532 C 0.22835 0.27323 0.74172 0.0
C533 C 0.21767 0.26031 0.69369 0.0
C534 C 0.21907 0.20607 0.83738 0.0
C535 C 0.23905 0.30561 0.74177 0.0
H536 H 0.21352 0.30673 0.95047 0.0
H537 H 0.30751 0.27779 0.91331 0.0
H538 H 0.18137 0.29802 0.82308 0.0
H539 H 0.17414 0.26321 0.85659 0.0
H540 H 0.17088 0.29806 0.89317 0.0
H541 H 0.32021 0.25245 0.83409 0.0
H542 H 0.28913 0.22801 0.81127 0.0
H543 H 0.29596 0.26289 0.77774 0.0
H544 H 0.20067 0.18982 0.73802 0.0
H545 H 0.21722 0.27378 0.65749 0.0
H546 H 0.20422 0.21648 0.86891 0.0
H547 H 0.24331 0.20452 0.85363 0.0
H548 H 0.21029 0.18296 0.82952 0.0
H549 H 0.22475 0.31885 0.77054 0.0
H550 H 0.23713 0.31616 0.70152 0.0
H551 H 0.26388 0.30702 0.75525 0.0
C552 C 0.72748 0.27086 0.85929 0.0
C553 C 0.69499 0.27634 0.86024 0.0
C554 C 0.7412 0.25398 0.81792 0.0
C555 C 0.72197 0.24226 0.77654 0.0
C556 C 0.68917 0.24766 0.77723 0.0
C557 C 0.67607 0.26467 0.81906 0.0
C558 C 0.77629 0.24872 0.81845 0.0
C559 C 0.66794 0.2355 0.73376 0.0
C560 C 0.76144 0.2227 0.6446 0.0
C561 C 0.76515 0.19146 0.64916 0.0
C562 C 0.74715 0.23946 0.68555 0.0
C563 C 0.73629 0.22462 0.73219 0.0
C564 C 0.73965 0.19307 0.73686 0.0
C565 C 0.75405 0.17685 0.69527 0.0
C566 C 0.74397 0.27308 0.67914 0.0
C567 C 0.7283 0.1765 0.78604 0.0
H568 H 0.74228 0.27977 0.89095 0.0
H569 H 0.65094 0.26874 0.81952 0.0
H570 H 0.78129 0.22425 0.81894 0.0
H571 H 0.78699 0.25802 0.78142 0.0
H572 H 0.7879 0.25924 0.85371 0.0
H573 H 0.64288 0.2415 0.74038 0.0
H574 H 0.67535 0.24439 0.69416 0.0
H575 H 0.66994 0.21065 0.73186 0.0
H576 H 0.76992 0.23419 0.60911 0.0
H577 H 0.75679 0.15272 0.69911 0.0
H578 H 0.75702 0.28471 0.71164 0.0
H579 H 0.71892 0.27976 0.68271 0.0
H580 H 0.75307 0.2811 0.63991 0.0
H581 H 0.74086 0.18489 0.82208 0.0
H582 H 0.73204 0.15184 0.78294 0.0
H583 H 0.70287 0.1808 0.79234 0.0
C584 C 0.76752 0.71637 0.9415 0.0
C585 C 0.73553 0.70961 0.94799 0.0
C586 C 0.77898 0.72767 0.8927 0.0
C587 C 0.75796 0.73224 0.8494 0.0
C588 C 0.72561 0.72577 0.85588 0.0
C589 C 0.71478 0.71458 0.9051 0.0
C590 C 0.81363 0.73446 0.88728 0.0
C591 C 0.70247 0.73035 0.81062 0.0
C592 C 0.78149 0.78518 0.73698 0.0
C593 C 0.79184 0.76503 0.69741 0.0
C594 C 0.77056 0.77483 0.78675 0.0
C595 C 0.7698 0.74356 0.79708 0.0
C596 C 0.78002 0.72308 0.75724 0.0
C597 C 0.791 0.73407 0.70791 0.0
C598 C 0.75993 0.79734 0.82833 0.0
C599 C 0.77935 0.68956 0.76674 0.0
H600 H 0.7837 0.71262 0.97442 0.0
H601 H 0.69002 0.70941 0.9097 0.0
H602 H 0.82398 0.7204 0.85503 0.0
H603 H 0.81703 0.7583 0.8756 0.0
H604 H 0.82676 0.73022 0.92507 0.0
H605 H 0.67802 0.72454 0.82239 0.0
H606 H 0.70296 0.75411 0.79716 0.0
H607 H 0.70924 0.71625 0.77575 0.0
H608 H 0.78214 0.80915 0.7293 0.0
H609 H 0.79892 0.71835 0.67755 0.0
H610 H 0.774 0.79469 0.86552 0.0
H611 H 0.73499 0.79318 0.83905 0.0
H612 H 0.76224 0.82091 0.81414 0.0
H613 H 0.79402 0.68384 0.80211 0.0
H614 H 0.78809 0.67664 0.73162 0.0
H615 H 0.75499 0.68221 0.77572 0.0
loop_
_geom_bond_atom_site_label_1
_geom_bond_atom_site_label_2
_geom_bond_distance
_geom_bond_site_symmetry_2
_ccdc_geom_bond_type
C0 O1 1.160 . S
C0 O7 1.185 . S
O1 C0 1.160 . S
O2 Zn3 1.899 . S
O2 C10 1.284 . S
Zn3 O2 1.899 . S
Zn3 O4 2.032 . S
Zn3 O7 2.086 . S
Zn3 O12 1.977 . S
O4 Zn3 2.032 . S
O4 C8 1.278 1_554 S
C5 O6 1.203 . S
C5 O12 1.267 . S
O6 C5 1.203 . S
O7 C0 1.185 . S
O7 Zn3 2.086 . S
C8 O4 1.278 1_556 S
C8 O9 1.211 . S
O9 C8 1.211 . S
C10 O2 1.284 . S
C10 O11 1.272 . S
O11 C10 1.272 . S
O12 Zn3 1.977 . S
O12 C5 1.267 . S
C13 O14 1.160 . S
C13 O20 1.185 . S
O14 C13 1.160 . S
O15 Zn16 1.899 1_556 S
O15 C23 1.284 1_556 S
Zn16 O15 1.899 1_554 S
Zn16 O17 2.032 . S
Zn16 O20 2.086 1_554 S
Zn16 O25 1.977 . S
O17 Zn16 2.032 . S
O17 C21 1.278 . S
C18 O19 1.203 . S
C18 O25 1.267 . S
O19 C18 1.203 . S
O20 C13 1.185 . S
O20 Zn16 2.086 1_556 S
C21 O17 1.278 . S
C21 O22 1.211 . S
O22 C21 1.211 . S
C23 O15 1.284 1_554 S
C23 O24 1.273 . S
O24 C23 1.273 . S
O25 Zn16 1.977 . S
O25 C18 1.267 . S
C26 O27 1.160 . S
C26 O33 1.185 . S
O27 C26 1.160 . S
O28 Zn29 1.899 . S
O28 C36 1.284 . S
Zn29 O28 1.899 . S
Zn29 O30 2.032 . S
Zn29 O33 2.086 . S
Zn29 O38 1.977 . S
O30 Zn29 2.032 . S
O30 C34 1.278 1_554 S
C31 O32 1.203 . S
C31 O38 1.267 . S
O32 C31 1.203 . S
O33 C26 1.185 . S
O33 Zn29 2.086 . S
C34 O30 1.278 1_556 S
C34 O35 1.211 . S
O35 C34 1.211 . S
C36 O28 1.284 . S
C36 O37 1.272 . S
O37 C36 1.272 . S
O38 Zn29 1.977 . S
O38 C31 1.267 . S
C39 O40 1.160 . S
C39 O46 1.185 . S
O40 C39 1.160 . S
O41 Zn42 1.899 1_556 S
O41 C49 1.284 1_556 S
Zn42 O41 1.899 1_554 S
Zn42 O43 2.032 . S
Zn42 O46 2.086 1_554 S
Zn42 O51 1.977 . S
O43 Zn42 2.032 . S
O43 C47 1.278 . S
C44 O45 1.203 . S
C44 O51 1.267 . S
O45 C44 1.203 . S
O46 C39 1.185 . S
O46 Zn42 2.086 1_556 S
C47 O43 1.278 . S
C47 O48 1.211 . S
O48 C47 1.211 . S
C49 O41 1.284 1_554 S
C49 O50 1.273 . S
O50 C49 1.273 . S
O51 Zn42 1.977 . S
O51 C44 1.267 . S
C52 O53 1.160 . S
C52 O59 1.185 . S
O53 C52 1.160 . S
O54 Zn55 1.899 . S
O54 C62 1.284 . S
Zn55 O54 1.899 . S
Zn55 O56 2.032 . S
Zn55 O59 2.086 . S
Zn55 O64 1.977 . S
O56 Zn55 2.032 . S
O56 C60 1.278 . S
C57 O58 1.203 . S
C57 O64 1.267 . S
O58 C57 1.203 . S
O59 C52 1.185 . S
O59 Zn55 2.086 . S
C60 O56 1.278 . S
C60 O61 1.211 . S
O61 C60 1.211 . S
C62 O54 1.284 . S
C62 O63 1.273 . S
O63 C62 1.273 . S
O64 Zn55 1.977 . S
O64 C57 1.267 . S
C65 O66 1.160 . S
C65 O72 1.185 . S
O66 C65 1.160 . S
O67 Zn68 1.899 . S
O67 C75 1.284 . S
Zn68 O67 1.899 . S
Zn68 O69 2.032 . S
Zn68 O72 2.086 . S
Zn68 O77 1.977 . S
O69 Zn68 2.032 . S
O69 C73 1.278 . S
C70 O71 1.203 . S
C70 O77 1.267 . S
O71 C70 1.203 . S
O72 C65 1.185 . S
O72 Zn68 2.086 . S
C73 O69 1.278 . S
C73 O74 1.211 . S
O74 C73 1.211 . S
C75 O67 1.284 . S
C75 O76 1.273 . S
O76 C75 1.273 . S
O77 Zn68 1.977 . S
O77 C70 1.267 . S
C78 O79 1.160 . S
C78 O85 1.185 . S
O79 C78 1.160 . S
O80 Zn81 1.899 . S
O80 C88 1.284 . S
Zn81 O80 1.899 . S
Zn81 O82 2.032 . S
Zn81 O85 2.086 . S
Zn81 O90 1.977 . S
O82 Zn81 2.032 . S
O82 C86 1.278 . S
C83 O84 1.203 . S
C83 O90 1.267 . S
O84 C83 1.203 . S
O85 C78 1.185 . S
O85 Zn81 2.086 . S
C86 O82 1.278 . S
C86 O87 1.211 . S
O87 C86 1.211 . S
C88 O80 1.284 . S
C88 O89 1.273 . S
O89 C88 1.273 . S
O90 Zn81 1.977 . S
O90 C83 1.267 . S
C91 O92 1.160 . S
C91 O98 1.185 . S
O92 C91 1.160 . S
O93 Zn94 1.899 . S
O93 C101 1.284 . S
Zn94 O93 1.899 . S
Zn94 O95 2.032 . S
Zn94 O98 2.086 . S
Zn94 O103 1.977 . S
O95 Zn94 2.032 . S
O95 C99 1.278 . S
C96 O97 1.203 . S
C96 O103 1.267 . S
O97 C96 1.203 . S
O98 C91 1.185 . S
O98 Zn94 2.086 . S
C99 O95 1.278 . S
C99 O100 1.211 . S
O100 C99 1.211 . S
C101 O93 1.284 . S
C101 O102 1.273 . S
O102 C101 1.273 . S
O103 Zn94 1.977 . S
O103 C96 1.267 . S
C104 C105 1.391 . S
C104 C106 1.394 . S
C104 H120 0.931 . S
C105 C104 1.391 . S
C105 C109 1.376 . S
C106 C104 1.394 . S
C106 C107 1.369 . S
C106 C110 1.531 . S
C107 C106 1.369 . S
C107 C108 1.410 . S
C107 C115 1.503 . S
C108 C107 1.410 . S
C108 C109 1.392 . S
C108 C111 1.511 . S
C109 C105 1.376 . S
C109 C108 1.392 . S
C109 H121 0.929 . S
C110 C106 1.531 . S
C110 H122 0.960 . S
C110 H123 0.962 . S
C110 H124 0.960 . S
C111 C108 1.511 . S
C111 H125 0.961 . S
C111 H126 0.961 . S
C111 H127 0.961 . S
C112 C113 1.370 1_556 S
C112 C114 1.363 1_556 S
C112 H128 0.931 . S
C113 C112 1.370 1_554 S
C113 C117 1.408 . S
C114 C112 1.363 1_554 S
C114 C115 1.370 . S
C114 C118 1.524 1_554 S
C115 C107 1.503 . S
C115 C114 1.370 . S
C115 C116 1.403 . S
C116 C115 1.403 . S
C116 C117 1.404 . S
C116 C119 1.539 . S
C117 C113 1.408 . S
C117 C116 1.404 . S
C117 H129 0.930 . S
C118 C114 1.524 1_556 S
C118 H130 0.956 . S
C118 H131 0.961 . S
C118 H132 0.961 . S
C119 C116 1.539 . S
C119 H133 0.958 . S
C119 H134 0.961 . S
C119 H135 0.960 . S
H120 C104 0.931 . S
H121 C109 0.929 . S
H122 C110 0.960 . S
H123 C110 0.962 . S
H124 C110 0.960 . S
H125 C111 0.961 . S
H126 C111 0.961 . S
H127 C111 0.961 . S
H128 C112 0.931 . S
H129 C117 0.930 . S
H130 C118 0.956 . S
H131 C118 0.961 . S
H132 C118 0.961 . S
H133 C119 0.958 . S
H134 C119 0.961 . S
H135 C119 0.960 . S
C136 C137 1.391 . S
C136 C138 1.394 . S
C136 H152 0.931 . S
C137 C136 1.391 . S
C137 C141 1.376 . S
C138 C136 1.394 . S
C138 C139 1.369 . S
C138 C142 1.531 . S
C139 C138 1.369 . S
C139 C140 1.410 . S
C139 C147 1.503 . S
C140 C139 1.410 . S
C140 C141 1.392 . S
C140 C143 1.511 1_554 S
C141 C137 1.376 . S
C141 C140 1.392 . S
C141 H153 0.929 1_554 S
C142 C138 1.531 . S
C142 H154 0.960 . S
C142 H155 0.962 . S
C142 H156 0.960 . S
C143 C140 1.511 1_556 S
C143 H157 0.961 . S
C143 H158 0.961 . S
C143 H159 0.961 . S
C144 C145 1.370 . S
C144 C146 1.363 . S
C144 H160 0.931 . S
C145 C144 1.370 . S
C145 C149 1.408 1_554 S
C146 C144 1.363 . S
C146 C147 1.370 . S
C146 C150 1.524 . S
C147 C139 1.503 . S
C147 C146 1.370 . S
C147 C148 1.403 1_554 S
C148 C147 1.403 1_556 S
C148 C149 1.404 . S
C148 C151 1.539 . S
C149 C145 1.408 1_556 S
C149 C148 1.404 . S
C149 H161 0.930 . S
C150 C146 1.524 . S
C150 H162 0.956 . S
C150 H163 0.961 . S
C150 H164 0.961 . S
C151 C148 1.539 . S
C151 H165 0.958 . S
C151 H166 0.961 . S
C151 H167 0.960 . S
H152 C136 0.931 . S
H153 C141 0.929 1_556 S
H154 C142 0.960 . S
H155 C142 0.962 . S
H156 C142 0.960 . S
H157 C143 0.961 . S
H158 C143 0.961 . S
H159 C143 0.961 . S
H160 C144 0.931 . S
H161 C149 0.930 . S
H162 C150 0.956 . S
H163 C150 0.961 . S
H164 C150 0.961 . S
H165 C151 0.958 . S
H166 C151 0.961 . S
H167 C151 0.960 . S
C168 C169 1.391 . S
C168 C170 1.394 . S
C168 H184 0.931 . S
C169 C168 1.391 . S
C169 C173 1.376 . S
C170 C168 1.394 . S
C170 C171 1.369 . S
C170 C174 1.531 . S
C171 C170 1.369 . S
C171 C172 1.410 . S
C171 C179 1.503 . S
C172 C171 1.410 . S
C172 C173 1.392 . S
C172 C175 1.511 . S
C173 C169 1.376 . S
C173 C172 1.392 . S
C173 H185 0.929 . S
C174 C170 1.531 . S
C174 H186 0.960 1_554 S
C174 H187 0.962 . S
C174 H188 0.960 1_554 S
C175 C172 1.511 . S
C175 H189 0.961 . S
C175 H190 0.961 . S
C175 H191 0.961 . S
C176 C177 1.370 . S
C176 C178 1.363 . S
C176 H192 0.931 . S
C177 C176 1.370 . S
C177 C181 1.408 1_554 S
C178 C176 1.363 . S
C178 C179 1.370 . S
C178 C182 1.524 . S
C179 C171 1.503 . S
C179 C178 1.370 . S
C179 C180 1.403 1_554 S
C180 C179 1.403 1_556 S
C180 C181 1.404 . S
C180 C183 1.539 . S
C181 C177 1.408 1_556 S
C181 C180 1.404 . S
C181 H193 0.930 . S
C182 C178 1.524 . S
C182 H194 0.956 . S
C182 H195 0.961 . S
C182 H196 0.961 . S
C183 C180 1.539 . S
C183 H197 0.958 . S
C183 H198 0.961 . S
C183 H199 0.960 . S
H184 C168 0.931 . S
H185 C173 0.929 . S
H186 C174 0.960 1_556 S
H187 C174 0.962 . S
H188 C174 0.960 1_556 S
H189 C175 0.961 . S
H190 C175 0.961 . S
H191 C175 0.961 . S
H192 C176 0.931 . S
H193 C181 0.930 . S
H194 C182 0.956 . S
H195 C182 0.961 . S
H196 C182 0.961 . S
H197 C183 0.958 . S
H198 C183 0.961 . S
H199 C183 0.960 . S
C200 C201 1.391 1_556 S
C200 C202 1.394 1_556 S
C200 H216 0.931 . S
C201 C200 1.391 1_554 S
C201 C205 1.376 . S
C202 C200 1.394 1_554 S
C202 C203 1.369 . S
C202 C206 1.531 1_554 S
C203 C202 1.369 . S
C203 C204 1.410 . S
C203 C211 1.503 . S
C204 C203 1.410 . S
C204 C205 1.392 . S
C204 C207 1.511 . S
C205 C201 1.376 . S
C205 C204 1.392 . S
C205 H217 0.929 . S
C206 C202 1.531 1_556 S
C206 H218 0.960 . S
C206 H219 0.962 . S
C206 H220 0.960 . S
C207 C204 1.511 . S
C207 H221 0.961 . S
C207 H222 0.961 . S
C207 H223 0.961 . S
C208 C209 1.370 . S
C208 C210 1.363 . S
C208 H224 0.931 . S
C209 C208 1.370 . S
C209 C213 1.408 . S
C210 C208 1.363 . S
C210 C211 1.370 . S
C210 C214 1.524 1_554 S
C211 C203 1.503 . S
C211 C210 1.370 . S
C211 C212 1.403 . S
C212 C211 1.403 . S
C212 C213 1.404 . S
C212 C215 1.539 . S
C213 C209 1.408 . S
C213 C212 1.404 . S
C213 H225 0.930 . S
C214 C210 1.524 1_556 S
C214 H226 0.956 . S
C214 H227 0.961 1_556 S
C214 H228 0.961 . S
C215 C212 1.539 . S
C215 H229 0.958 . S
C215 H230 0.961 . S
C215 H231 0.960 . S
H216 C200 0.931 . S
H217 C205 0.929 . S
H218 C206 0.960 . S
H219 C206 0.962 . S
H220 C206 0.960 . S
H221 C207 0.961 . S
H222 C207 0.961 . S
H223 C207 0.961 . S
H224 C208 0.931 . S
H225 C213 0.930 . S
H226 C214 0.956 . S
H227 C214 0.961 1_554 S
H228 C214 0.961 . S
H229 C215 0.958 . S
H230 C215 0.961 . S
H231 C215 0.960 . S
C232 C233 1.391 . S
C232 C234 1.394 . S
C232 H248 0.931 . S
C233 C232 1.391 . S
C233 C237 1.376 . S
C234 C232 1.394 . S
C234 C235 1.369 . S
C234 C238 1.531 . S
C235 C234 1.369 . S
C235 C236 1.410 . S
C235 C243 1.503 1_565 S
C236 C235 1.410 . S
C236 C237 1.392 . S
C236 C239 1.511 . S
C237 C233 1.376 . S
C237 C236 1.392 . S
C237 H249 0.929 . S
C238 C234 1.531 . S
C238 H250 0.960 1_565 S
C238 H251 0.962 . S
C238 H252 0.960 . S
C239 C236 1.511 . S
C239 H253 0.961 . S
C239 H254 0.961 1_565 S
C239 H255 0.961 . S
C240 C241 1.370 . S
C240 C242 1.363 . S
C240 H256 0.931 . S
C241 C240 1.370 . S
C241 C245 1.408 . S
C242 C240 1.363 . S
C242 C243 1.370 . S
C242 C246 1.524 . S
C243 C235 1.503 1_545 S
C243 C242 1.370 . S
C243 C244 1.403 . S
C244 C243 1.403 . S
C244 C245 1.404 . S
C244 C247 1.539 . S
C245 C241 1.408 . S
C245 C244 1.404 . S
C245 H257 0.930 . S
C246 C242 1.524 . S
C246 H258 0.956 . S
C246 H259 0.936 1_545 S
C246 H260 0.961 . S
C247 C244 1.539 . S
C247 H261 0.958 . S
C247 H262 0.961 . S
C247 H263 0.960 . S
H248 C232 0.931 . S
H249 C237 0.929 . S
H250 C238 0.960 1_545 S
H251 C238 0.962 . S
H252 C238 0.960 . S
H253 C239 0.961 . S
H254 C239 0.961 1_545 S
H255 C239 0.961 . S
H256 C240 0.931 . S
H257 C245 0.930 . S
H258 C246 0.956 . S
H259 C246 0.936 1_565 S
H260 C246 0.961 . S
H261 C247 0.958 . S
H262 C247 0.961 . S
H263 C247 0.960 . S
C264 C265 1.391 . S
C264 C266 1.394 . S
C264 H280 0.931 . S
C265 C264 1.391 . S
C265 C269 1.376 . S
C266 C264 1.394 . S
C266 C267 1.369 . S
C266 C270 1.531 . S
C267 C266 1.369 . S
C267 C268 1.410 . S
C267 C275 1.503 1_455 S
C268 C267 1.410 . S
C268 C269 1.392 . S
C268 C271 1.511 . S
C269 C265 1.376 . S
C269 C268 1.392 . S
C269 H281 0.929 . S
C270 C266 1.531 . S
C270 H282 0.960 1_455 S
C270 H283 0.962 . S
C270 H284 0.960 . S
C271 C268 1.511 . S
C271 H285 0.961 . S
C271 H286 0.977 . S
C271 H287 0.961 . S
C272 C273 1.370 . S
C272 C274 1.363 . S
C272 H288 0.931 . S
C273 C272 1.370 . S
C273 C277 1.408 . S
C274 C272 1.363 . S
C274 C275 1.370 . S
C274 C278 1.524 . S
C275 C267 1.503 1_655 S
C275 C274 1.370 . S
C275 C276 1.403 . S
C276 C275 1.403 . S
C276 C277 1.404 . S
C276 C279 1.539 . S
C277 C273 1.408 . S
C277 C276 1.404 . S
C277 H289 0.930 . S
C278 C274 1.524 . S
C278 H290 0.956 . S
C278 H291 0.961 1_655 S
C278 H292 0.961 . S
C279 C276 1.539 . S
C279 H293 0.958 . S
C279 H294 0.961 . S
C279 H295 0.992 . S
H280 C264 0.931 . S
H281 C269 0.929 . S
H282 C270 0.960 1_655 S
H283 C270 0.962 . S
H284 C270 0.960 . S
H285 C271 0.961 . S
H286 C271 0.977 . S
H287 C271 0.961 . S
H288 C272 0.931 . S
H289 C277 0.930 . S
H290 C278 0.956 . S
H291 C278 0.961 1_455 S
H292 C278 0.961 . S
H293 C279 0.958 . S
H294 C279 0.961 . S
H295 C279 0.992 . S
C296 C297 1.391 . S
C296 C298 1.394 . S
C296 H312 0.931 . S
C297 C296 1.391 . S
C297 C301 1.376 . S
C298 C296 1.394 . S
C298 C299 1.369 . S
C298 C302 1.531 . S
C299 C298 1.369 . S
C299 C300 1.410 . S
C299 C307 1.503 1_545 S
C300 C299 1.410 . S
C300 C301 1.392 . S
C300 C303 1.511 . S
C301 C297 1.376 . S
C301 C300 1.392 . S
C301 H313 0.929 . S
C302 C298 1.531 . S
C302 H314 0.960 1_545 S
C302 H315 0.962 . S
C302 H316 0.960 . S
C303 C300 1.511 . S
C303 H317 0.961 . S
C303 H318 0.961 1_545 S
C303 H319 0.961 . S
C304 C305 1.370 . S
C304 C306 1.363 . S
C304 H320 0.931 . S
C305 C304 1.370 . S
C305 C309 1.408 . S
C306 C304 1.363 . S
C306 C307 1.370 . S
C306 C310 1.524 . S
C307 C299 1.503 1_565 S
C307 C306 1.370 . S
C307 C308 1.403 . S
C308 C307 1.403 . S
C308 C309 1.404 . S
C308 C311 1.539 . S
C309 C305 1.408 . S
C309 C308 1.404 . S
C309 H321 0.930 . S
C310 C306 1.524 . S
C310 H322 0.956 . S
C310 H323 0.945 1_565 S
C310 H324 0.961 . S
C311 C308 1.539 . S
C311 H325 0.958 . S
C311 H326 0.961 . S
C311 H327 0.937 1_565 S
H312 C296 0.931 . S
H313 C301 0.929 . S
H314 C302 0.960 1_565 S
H315 C302 0.962 . S
H316 C302 0.960 . S
H317 C303 0.961 . S
H318 C303 0.961 1_565 S
H319 C303 0.961 . S
H320 C304 0.931 . S
H321 C309 0.930 . S
H322 C310 0.956 . S
H323 C310 0.945 1_545 S
H324 C310 0.961 . S
H325 C311 0.958 . S
H326 C311 0.961 . S
H327 C311 0.937 1_545 S
C328 C329 1.391 . S
C328 C330 1.394 . S
C328 H344 0.931 . S
C329 C328 1.391 . S
C329 C333 1.376 . S
C330 C328 1.394 . S
C330 C331 1.369 . S
C330 C334 1.531 . S
C331 C330 1.369 . S
C331 C332 1.410 . S
C331 C339 1.503 1_655 S
C332 C331 1.410 . S
C332 C333 1.392 . S
C332 C335 1.511 . S
C333 C329 1.376 . S
C333 C332 1.392 . S
C333 H345 0.929 . S
C334 C330 1.531 . S
C334 H346 0.975 . S
C334 H347 0.962 . S
C334 H348 0.960 . S
C335 C332 1.511 . S
C335 H349 0.961 . S
C335 H350 0.961 1_655 S
C335 H351 0.961 . S
C336 C337 1.370 . S
C336 C338 1.363 . S
C336 H352 0.931 . S
C337 C336 1.370 . S
C337 C341 1.408 . S
C338 C336 1.363 . S
C338 C339 1.370 . S
C338 C342 1.524 . S
C339 C331 1.503 1_455 S
C339 C338 1.370 . S
C339 C340 1.403 . S
C340 C339 1.403 . S
C340 C341 1.404 . S
C340 C343 1.539 . S
C341 C337 1.408 . S
C341 C340 1.404 . S
C341 H353 0.930 . S
C342 C338 1.524 . S
C342 H354 0.956 1_455 S
C342 H355 0.961 1_455 S
C342 H356 0.961 . S
C343 C340 1.539 . S
C343 H357 0.958 . S
C343 H358 0.961 . S
C343 H359 0.960 . S
H344 C328 0.931 . S
H345 C333 0.929 . S
H346 C334 0.975 . S
H347 C334 0.962 . S
H348 C334 0.960 . S
H349 C335 0.961 . S
H350 C335 0.961 1_455 S
H351 C335 0.961 . S
H352 C336 0.931 . S
H353 C341 0.930 . S
H354 C342 0.956 1_655 S
H355 C342 0.961 1_655 S
H356 C342 0.961 . S
H357 C343 0.958 . S
H358 C343 0.961 . S
H359 C343 0.960 . S
C360 C361 1.391 . S
C360 C362 1.394 . S
C360 H376 0.931 . S
C361 C360 1.391 . S
C361 C365 1.376 . S
C362 C360 1.394 . S
C362 C363 1.369 . S
C362 C366 1.531 . S
C363 C362 1.369 . S
C363 C364 1.410 . S
C363 C371 1.503 . S
C364 C363 1.410 . S
C364 C365 1.392 . S
C364 C367 1.511 . S
C365 C361 1.376 . S
C365 C364 1.392 . S
C365 H377 0.929 . S
C366 C362 1.531 . S
C366 H378 0.960 . S
C366 H379 0.962 . S
C366 H380 0.960 . S
C367 C364 1.511 . S
C367 H381 0.961 . S
C367 H382 0.961 . S
C367 H383 0.961 . S
C368 C369 1.370 . S
C368 C370 1.363 . S
C368 H384 0.931 . S
C369 C368 1.370 . S
C369 C373 1.408 . S
C370 C368 1.363 . S
C370 C371 1.370 . S
C370 C374 1.524 . S
C371 C363 1.503 . S
C371 C370 1.370 . S
C371 C372 1.403 . S
C372 C371 1.403 . S
C372 C373 1.404 . S
C372 C375 1.539 . S
C373 C369 1.408 . S
C373 C372 1.404 . S
C373 H385 0.930 . S
C374 C370 1.524 . S
C374 H386 0.956 . S
C374 H387 0.961 . S
C374 H388 0.961 . S
C375 C372 1.539 . S
C375 H389 0.958 . S
C375 H390 0.961 . S
C375 H391 0.960 . S
H376 C360 0.931 . S
H377 C365 0.929 . S
H378 C366 0.960 . S
H379 C366 0.962 . S
H380 C366 0.960 . S
H381 C367 0.961 . S
H382 C367 0.961 . S
H383 C367 0.961 . S
H384 C368 0.931 . S
H385 C373 0.930 . S
H386 C374 0.956 . S
H387 C374 0.961 . S
H388 C374 0.961 . S
H389 C375 0.958 . S
H390 C375 0.961 . S
H391 C375 0.960 . S
C392 C393 1.391 . S
C392 C394 1.394 . S
C392 H408 0.931 . S
C393 C392 1.391 . S
C393 C397 1.376 . S
C394 C392 1.394 . S
C394 C395 1.369 . S
C394 C398 1.531 . S
C395 C394 1.369 . S
C395 C396 1.410 . S
C395 C403 1.503 . S
C396 C395 1.410 . S
C396 C397 1.392 . S
C396 C399 1.511 . S
C397 C393 1.376 . S
C397 C396 1.392 . S
C397 H409 0.929 . S
C398 C394 1.531 . S
C398 H410 0.960 . S
C398 H411 0.962 . S
C398 H412 0.960 . S
C399 C396 1.511 . S
C399 H413 0.961 . S
C399 H414 0.961 . S
C399 H415 0.961 . S
C400 C401 1.370 . S
C400 C402 1.363 . S
C400 H416 0.931 . S
C401 C400 1.370 . S
C401 C405 1.408 . S
C402 C400 1.363 . S
C402 C403 1.370 . S
C402 C406 1.524 . S
C403 C395 1.503 . S
C403 C402 1.370 . S
C403 C404 1.403 . S
C404 C403 1.403 . S
C404 C405 1.404 . S
C404 C407 1.539 . S
C405 C401 1.408 . S
C405 C404 1.404 . S
C405 H417 0.930 . S
C406 C402 1.524 . S
C406 H418 0.956 . S
C406 H419 0.961 . S
C406 H420 0.961 . S
C407 C404 1.539 . S
C407 H421 0.958 . S
C407 H422 0.961 . S
C407 H423 0.960 . S
H408 C392 0.931 . S
H409 C397 0.929 . S
H410 C398 0.960 . S
H411 C398 0.962 . S
H412 C398 0.960 . S
H413 C399 0.961 . S
H414 C399 0.961 . S
H415 C399 0.961 . S
H416 C400 0.931 . S
H417 C405 0.930 . S
H418 C406 0.956 . S
H419 C406 0.961 . S
H420 C406 0.961 . S
H421 C407 0.958 . S
H422 C407 0.961 . S
H423 C407 0.960 . S
C424 C425 1.391 . S
C424 C426 1.394 . S
C424 H440 0.931 . S
C425 C424 1.391 . S
C425 C429 1.376 . S
C426 C424 1.394 . S
C426 C427 1.369 . S
C426 C430 1.531 . S
C427 C426 1.369 . S
C427 C428 1.410 . S
C427 C435 1.503 . S
C428 C427 1.410 . S
C428 C429 1.392 . S
C428 C431 1.511 . S
C429 C425 1.376 . S
C429 C428 1.392 . S
C429 H441 0.929 . S
C430 C426 1.531 . S
C430 H442 0.960 . S
C430 H443 0.962 . S
C430 H444 0.960 . S
C431 C428 1.511 . S
C431 H445 0.961 . S
C431 H446 0.961 . S
C431 H447 0.961 . S
C432 C433 1.370 . S
C432 C434 1.363 . S
C432 H448 0.931 . S
C433 C432 1.370 . S
C433 C437 1.408 . S
C434 C432 1.363 . S
C434 C435 1.370 . S
C434 C438 1.524 . S
C435 C427 1.503 . S
C435 C434 1.370 . S
C435 C436 1.403 . S
C436 C435 1.403 . S
C436 C437 1.404 . S
C436 C439 1.539 . S
C437 C433 1.408 . S
C437 C436 1.404 . S
C437 H449 0.930 . S
C438 C434 1.524 . S
C438 H450 0.956 . S
C438 H451 0.961 . S
C438 H452 0.961 . S
C439 C436 1.539 . S
C439 H453 0.958 . S
C439 H454 0.961 . S
C439 H455 0.960 . S
H440 C424 0.931 . S
H441 C429 0.929 . S
H442 C430 0.960 . S
H443 C430 0.962 . S
H444 C430 0.960 . S
H445 C431 0.961 . S
H446 C431 0.961 . S
H447 C431 0.961 . S
H448 C432 0.931 . S
H449 C437 0.930 . S
H450 C438 0.956 . S
H451 C438 0.961 . S
H452 C438 0.961 . S
H453 C439 0.958 . S
H454 C439 0.961 . S
H455 C439 0.960 . S
C456 C457 1.391 . S
C456 C458 1.394 . S
C456 H472 0.931 . S
C457 C456 1.391 . S
C457 C461 1.376 . S
C458 C456 1.394 . S
C458 C459 1.369 . S
C458 C462 1.531 . S
C459 C458 1.369 . S
C459 C460 1.410 . S
C459 C467 1.503 . S
C460 C459 1.410 . S
C460 C461 1.392 . S
C460 C463 1.511 . S
C461 C457 1.376 . S
C461 C460 1.392 . S
C461 H473 0.929 . S
C462 C458 1.531 . S
C462 H474 0.960 . S
C462 H475 0.962 . S
C462 H476 0.960 . S
C463 C460 1.511 . S
C463 H477 0.961 . S
C463 H478 0.961 . S
C463 H479 0.961 . S
C464 C465 1.370 . S
C464 C466 1.363 . S
C464 H480 0.931 . S
C465 C464 1.370 . S
C465 C469 1.408 . S
C466 C464 1.363 . S
C466 C467 1.370 . S
C466 C470 1.524 . S
C467 C459 1.503 . S
C467 C466 1.370 . S
C467 C468 1.403 . S
C468 C467 1.403 . S
C468 C469 1.404 . S
C468 C471 1.539 . S
C469 C465 1.408 . S
C469 C468 1.404 . S
C469 H481 0.930 . S
C470 C466 1.524 . S
C470 H482 0.956 . S
C470 H483 0.961 . S
C470 H484 0.961 . S
C471 C468 1.539 . S
C471 H485 0.958 . S
C471 H486 0.961 . S
C471 H487 0.960 . S
H472 C456 0.931 . S
H473 C461 0.929 . S
H474 C462 0.960 . S
H475 C462 0.962 . S
H476 C462 0.960 . S
H477 C463 0.961 . S
H478 C463 0.961 . S
H479 C463 0.961 . S
H480 C464 0.931 . S
H481 C469 0.930 . S
H482 C470 0.956 . S
H483 C470 0.961 . S
H484 C470 0.961 . S
H485 C471 0.958 . S
H486 C471 0.961 . S
H487 C471 0.960 . S
C488 C489 1.391 . S
C488 C490 1.394 . S
C488 H504 0.931 . S
C489 C488 1.391 . S
C489 C493 1.376 . S
C490 C488 1.394 . S
C490 C491 1.369 . S
C490 C494 1.531 . S
C491 C490 1.369 . S
C491 C492 1.410 . S
C491 C499 1.503 . S
C492 C491 1.410 . S
C492 C493 1.392 . S
C492 C495 1.511 . S
C493 C489 1.376 . S
C493 C492 1.392 . S
C493 H505 0.929 . S
C494 C490 1.531 . S
C494 H506 0.960 . S
C494 H507 0.962 . S
C494 H508 0.960 . S
C495 C492 1.511 . S
C495 H509 0.961 . S
C495 H510 0.961 . S
C495 H511 0.961 . S
C496 C497 1.370 . S
C496 C498 1.363 . S
C496 H512 0.931 . S
C497 C496 1.370 . S
C497 C501 1.408 . S
C498 C496 1.363 . S
C498 C499 1.370 . S
C498 C502 1.524 . S
C499 C491 1.503 . S
C499 C498 1.370 . S
C499 C500 1.403 . S
C500 C499 1.403 . S
C500 C501 1.404 . S
C500 C503 1.539 . S
C501 C497 1.408 . S
C501 C500 1.404 . S
C501 H513 0.930 . S
C502 C498 1.524 . S
C502 H514 0.956 . S
C502 H515 0.961 . S
C502 H516 0.961 . S
C503 C500 1.539 . S
C503 H517 0.958 . S
C503 H518 0.961 . S
C503 H519 0.960 . S
H504 C488 0.931 . S
H505 C493 0.929 . S
H506 C494 0.960 . S
H507 C494 0.962 . S
H508 C494 0.960 . S
H509 C495 0.961 . S
H510 C495 0.961 . S
H511 C495 0.961 . S
H512 C496 0.931 . S
H513 C501 0.930 . S
H514 C502 0.956 . S
H515 C502 0.961 . S
H516 C502 0.961 . S
H517 C503 0.958 . S
H518 C503 0.961 . S
H519 C503 0.960 . S
C520 C521 1.391 . S
C520 C522 1.394 . S
C520 H536 0.931 . S
C521 C520 1.391 . S
C521 C525 1.376 . S
C522 C520 1.394 . S
C522 C523 1.369 . S
C522 C526 1.531 . S
C523 C522 1.369 . S
C523 C524 1.410 . S
C523 C531 1.503 . S
C524 C523 1.410 . S
C524 C525 1.392 . S
C524 C527 1.511 . S
C525 C521 1.376 . S
C525 C524 1.392 . S
C525 H537 0.929 . S
C526 C522 1.531 . S
C526 H538 0.960 . S
C526 H539 0.962 . S
C526 H540 0.960 . S
C527 C524 1.511 . S
C527 H541 0.961 . S
C527 H542 0.961 . S
C527 H543 0.961 . S
C528 C529 1.370 . S
C528 C530 1.363 . S
C528 H544 0.931 . S
C529 C528 1.370 . S
C529 C533 1.408 . S
C530 C528 1.363 . S
C530 C531 1.370 . S
C530 C534 1.524 . S
C531 C523 1.503 . S
C531 C530 1.370 . S
C531 C532 1.403 . S
C532 C531 1.403 . S
C532 C533 1.404 . S
C532 C535 1.539 . S
C533 C529 1.408 . S
C533 C532 1.404 . S
C533 H545 0.930 . S
C534 C530 1.524 . S
C534 H546 0.956 . S
C534 H547 0.961 . S
C534 H548 0.961 . S
C535 C532 1.539 . S
C535 H549 0.958 . S
C535 H550 0.961 . S
C535 H551 0.960 . S
H536 C520 0.931 . S
H537 C525 0.929 . S
H538 C526 0.960 . S
H539 C526 0.962 . S
H540 C526 0.960 . S
H541 C527 0.961 . S
H542 C527 0.961 . S
H543 C527 0.961 . S
H544 C528 0.931 . S
H545 C533 0.930 . S
H546 C534 0.956 . S
H547 C534 0.961 . S
H548 C534 0.961 . S
H549 C535 0.958 . S
H550 C535 0.961 . S
H551 C535 0.960 . S
C552 C553 1.391 . S
C552 C554 1.394 . S
C552 H568 0.931 . S
C553 C552 1.391 . S
C553 C557 1.376 . S
C554 C552 1.394 . S
C554 C555 1.369 . S
C554 C558 1.531 . S
C555 C554 1.369 . S
C555 C556 1.410 . S
C555 C563 1.503 . S
C556 C555 1.410 . S
C556 C557 1.392 . S
C556 C559 1.511 . S
C557 C553 1.376 . S
C557 C556 1.392 . S
C557 H569 0.929 . S
C558 C554 1.531 . S
C558 H570 0.960 . S
C558 H571 0.962 . S
C558 H572 0.960 . S
C559 C556 1.511 . S
C559 H573 0.961 . S
C559 H574 0.961 . S
C559 H575 0.961 . S
C560 C561 1.370 . S
C560 C562 1.363 . S
C560 H576 0.931 . S
C561 C560 1.370 . S
C561 C565 1.408 . S
C562 C560 1.363 . S
C562 C563 1.370 . S
C562 C566 1.524 . S
C563 C555 1.503 . S
C563 C562 1.370 . S
C563 C564 1.403 . S
C564 C563 1.403 . S
C564 C565 1.404 . S
C564 C567 1.539 . S
C565 C561 1.408 . S
C565 C564 1.404 . S
C565 H577 0.930 . S
C566 C562 1.524 . S
C566 H578 0.956 . S
C566 H579 0.961 . S
C566 H580 0.961 . S
C567 C564 1.539 . S
C567 H581 0.958 . S
C567 H582 0.961 . S
C567 H583 0.960 . S
H568 C552 0.931 . S
H569 C557 0.929 . S
H570 C558 0.960 . S
H571 C558 0.962 . S
H572 C558 0.960 . S
H573 C559 0.961 . S
H574 C559 0.961 . S
H575 C559 0.961 . S
H576 C560 0.931 . S
H577 C565 0.930 . S
H578 C566 0.956 . S
H579 C566 0.961 . S
H580 C566 0.961 . S
H581 C567 0.958 . S
H582 C567 0.961 . S
H583 C567 0.960 . S
C584 C585 1.391 . S
C584 C586 1.394 . S
C584 H600 0.931 . S
C585 C584 1.391 . S
C585 C589 1.376 . S
C586 C584 1.394 . S
C586 C587 1.369 . S
C586 C590 1.531 . S
C587 C586 1.369 . S
C587 C588 1.410 . S
C587 C595 1.503 . S
C588 C587 1.410 . S
C588 C589 1.392 . S
C588 C591 1.511 . S
C589 C585 1.376 . S
C589 C588 1.392 . S
C589 H601 0.929 . S
C590 C586 1.531 . S
C590 H602 0.960 . S
C590 H603 0.962 . S
C590 H604 0.960 . S
C591 C588 1.511 . S
C591 H605 0.961 . S
C591 H606 0.961 . S
C591 H607 0.961 . S
C592 C593 1.370 . S
C592 C594 1.363 . S
C592 H608 0.931 . S
C593 C592 1.370 . S
C593 C597 1.408 . S
C594 C592 1.363 . S
C594 C595 1.370 . S
C594 C598 1.524 . S
C595 C587 1.503 . S
C595 C594 1.370 . S
C595 C596 1.403 . S
C596 C595 1.403 . S
C596 C597 1.404 . S
C596 C599 1.539 . S
C597 C593 1.408 . S
C597 C596 1.404 . S
C597 H609 0.930 . S
C598 C594 1.524 . S
C598 H610 0.956 . S
C598 H611 0.961 . S
C598 H612 0.961 . S
C599 C596 1.539 . S
C599 H613 0.958 . S
C599 H614 0.961 . S
C599 H615 0.960 . S
H600 C584 0.931 . S
H601 C589 0.929 . S
H602 C590 0.960 . S
H603 C590 0.962 . S
H604 C590 0.960 . S
H605 C591 0.961 . S
H606 C591 0.961 . S
H607 C591 0.961 . S
H608 C592 0.931 . S
H609 C597 0.930 . S
H610 C598 0.956 . S
H611 C598 0.961 . S
H612 C598 0.961 . S
H613 C599 0.958 . S
H614 C599 0.961 . S
H615 C599 0.960 . S
C105 C5 1.432 . S
C113 C44 1.426 . S
C137 C10 1.441 . S
C145 C23 1.463 . S
C169 C18 1.431 . S
C177 C31 1.426 . S
C201 C49 1.445 . S
C209 C36 1.462 . S
C233 C57 1.450 . S
C241 C96 1.445 . S
C265 C75 1.458 . S
C273 C62 1.456 . S
C297 C83 1.431 . S
C305 C70 1.442 . S
C329 C101 1.459 . S
C337 C88 1.454 . S
C361 C86 1.405 . S
C369 C0 1.391 . S
C393 C21 1.374 . S
C401 C91 1.405 . S
C425 C60 1.416 . S
C433 C26 1.393 . S
C457 C65 1.415 . S
C465 C47 1.406 . S
C489 C73 1.373 . S
C497 C39 1.402 . S
C521 C8 1.378 . S
C529 C78 1.408 . S
C553 C13 1.395 . S
C561 C99 1.391 . S
C585 C34 1.374 . S
C593 C52 1.406 . S
