# Generated by pormake.
# Topology snk, (6)-cn, num edge types: 1
# Building blocks:
#     Node 0, Type 0, BuildingBlock: GEDQOX_clean_sbu_0, # of connection points: 6
#     Node 1, Type 0, BuildingBlock: GEDQOX_clean_sbu_0, # of connection points: 6
#     Node 2, Type 0, BuildingBlock: GEDQOX_clean_sbu_0, # of connection points: 6
#     Node 3, Type 0, BuildingBlock: GEDQOX_clean_sbu_0, # of connection points: 6
#     Node 4, Type 0, BuildingBlock: GEDQOX_clean_sbu_0, # of connection points: 6
#     Node 5, Type 0, BuildingBlock: GEDQOX_clean_sbu_0, # of connection points: 6
#     Node 6, Type 0, BuildingBlock: GEDQOX_clean_sbu_0, # of connection points: 6
#     Node 7, Type 0, BuildingBlock: GEDQOX_clean_sbu_0, # of connection points: 6
#     Edge 8, Type (0, 0), BuildingBlock: CIFDUS_clean_linker_0, # of connection points: 2
#     Edge 9, Type (0, 0), BuildingBlock: CIFDUS_clean_linker_0, # of connection points: 2
#     Edge 10, Type (0, 0), BuildingBlock: CIFDUS_clean_linker_0, # of connection points: 2
#     Edge 11, Type (0, 0), BuildingBlock: CIFDUS_clean_linker_0, # of connection points: 2
#     Edge 12, Type (0, 0), BuildingBlock: CIFDUS_clean_linker_0, # of connection points: 2
#     Edge 13, Type (0, 0), BuildingBlock: CIFDUS_clean_linker_0, # of connection points: 2
#     Edge 14, Type (0, 0), BuildingBlock: CIFDUS_clean_linker_0, # of connection points: 2
#     Edge 15, Type (0, 0), BuildingBlock: CIFDUS_clean_linker_0, # of connection points: 2
#     Edge 16, Type (0, 0), BuildingBlock: CIFDUS_clean_linker_0, # of connection points: 2
#     Edge 17, Type (0, 0), BuildingBlock: CIFDUS_clean_linker_0, # of connection points: 2
#     Edge 18, Type (0, 0), BuildingBlock: CIFDUS_clean_linker_0, # of connection points: 2
#     Edge 19, Type (0, 0), BuildingBlock: CIFDUS_clean_linker_0, # of connection points: 2
#     Edge 20, Type (0, 0), BuildingBlock: CIFDUS_clean_linker_0, # of connection points: 2
#     Edge 21, Type (0, 0), BuildingBlock: CIFDUS_clean_linker_0, # of connection points: 2
#     Edge 22, Type (0, 0), BuildingBlock: CIFDUS_clean_linker_0, # of connection points: 2
#     Edge 23, Type (0, 0), BuildingBlock: CIFDUS_clean_linker_0, # of connection points: 2
#     Edge 24, Type (0, 0), BuildingBlock: CIFDUS_clean_linker_0, # of connection points: 2
#     Edge 25, Type (0, 0), BuildingBlock: CIFDUS_clean_linker_0, # of connection points: 2
#     Edge 26, Type (0, 0), BuildingBlock: CIFDUS_clean_linker_0, # of connection points: 2
#     Edge 27, Type (0, 0), BuildingBlock: CIFDUS_clean_linker_0, # of connection points: 2
#     Edge 28, Type (0, 0), BuildingBlock: CIFDUS_clean_linker_0, # of connection points: 2
#     Edge 29, Type (0, 0), BuildingBlock: CIFDUS_clean_linker_0, # of connection points: 2
#     Edge 30, Type (0, 0), BuildingBlock: CIFDUS_clean_linker_0, # of connection points: 2
#     Edge 31, Type (0, 0), BuildingBlock: CIFDUS_clean_linker_0, # of connection points: 2
# Relax obj value: 0.116
# Max RMSD: 0.186
# Mean RMSD: 0.186
data_MOF--net-snk--node1-GEDQOX_clean_sbu_0--edge1-CIFDUS_clean_linker_0
_symmetry_space_group_name_H-M    P1
_symmetry_Int_Tables_number       1
_symmetry_cell_setting            triclinic
loop_
_symmetry_equiv_pos_as_xyz
'x, y, z'
_cell_length_a     51.346719
_cell_length_b     51.224498
_cell_length_c     13.618436
_cell_angle_alpha  90.131895
_cell_angle_beta   89.863396
_cell_angle_gamma 89.890334
loop_
_atom_site_label
_atom_site_type_symbol
_atom_site_fract_x
_atom_site_fract_y
_atom_site_fract_z
_atom_type_partial_charge
Nd0 Nd 0.03329 0.04738 0.52204 0.0
Nd1 Nd 0.99621 0.99648 0.54198 0.0
C2 C 0.05127 0.09563 0.50157 0.0
C3 C 0.07451 0.11085 0.47062 0.0
C4 C 0.07328 0.12643 0.38589 0.0
C5 C 0.09431 0.14224 0.35846 0.0
C6 C 0.11713 0.14303 0.41544 0.0
C7 C 0.11836 0.12729 0.50012 0.0
C8 C 0.09735 0.11142 0.52735 0.0
C9 C 0.06267 1.0017 0.5392 0.0
C10 C 1.01752 1.01542 0.3235 0.0
C11 C 0.97357 0.95 0.54246 0.0
C12 C 0.95327 0.93358 0.58935 0.0
C13 C 0.9605 0.90992 0.63361 0.0
C14 C 0.94161 0.89276 0.67 0.0
C15 C 0.91493 0.89879 0.66261 0.0
C16 C 0.90776 0.9228 0.62006 0.0
C17 C 0.92668 0.93999 0.58386 0.0
C18 C 0.97137 0.04441 0.55603 0.0
C19 C 1.01547 0.02573 0.73789 0.0
O20 O 0.03834 0.08329 0.43303 0.0
O21 O 0.05234 0.08259 0.58419 0.0
O22 O 0.07312 0.02468 0.5303 0.0
O23 O 0.03845 1.00459 0.53662 0.0
O24 O 0.02678 0.03732 0.36095 0.0
O25 O 1.00772 0.99641 0.37814 0.0
O26 O 0.99446 0.95539 0.59374 0.0
O27 O 0.96607 0.96937 0.48631 0.0
O28 O 0.96388 0.02353 0.60228 0.0
O29 O 0.99028 0.03892 0.50015 0.0
O30 O 1.01019 1.00268 0.69897 0.0
O31 O 0.01948 0.04677 0.6833 0.0
H32 H 0.05586 0.12661 0.34115 0.0
H33 H 0.09268 0.15379 0.29226 0.0
H34 H 0.13536 0.12764 0.54695 0.0
H35 H 0.09891 0.0999 0.59367 0.0
H36 H 0.98085 0.9044 0.63831 0.0
H37 H 0.94793 0.87467 0.7034 0.0
H38 H 0.88744 0.92801 0.61173 0.0
H39 H 0.92041 0.95798 0.54959 0.0
Nd40 Nd 0.24563 0.78999 0.75969 0.0
Nd41 Nd 0.2921 0.74866 0.73392 0.0
C42 C 0.19899 0.81253 0.76297 0.0
C43 C 0.1853 0.83644 0.7304 0.0
C44 C 0.19726 0.85464 0.66806 0.0
C45 C 0.18387 0.87728 0.63909 0.0
C46 C 0.15821 0.88221 0.67182 0.0
C47 C 0.14637 0.86374 0.73392 0.0
C48 C 0.15977 0.84116 0.7628 0.0
C49 C 0.29332 0.81557 0.76562 0.0
C50 C 0.27135 0.7784 0.54059 0.0
C51 C 0.33258 0.7164 0.73639 0.0
C52 C 0.35335 0.70222 0.79023 0.0
C53 C 0.37784 0.69904 0.74569 0.0
C54 C 0.39619 0.6816 0.78446 0.0
C55 C 0.39046 0.66677 0.86875 0.0
C56 C 0.36638 0.67102 0.91616 0.0
C57 C 0.34803 0.68852 0.87737 0.0
C58 C 0.24277 0.73149 0.68932 0.0
C59 C 0.27129 0.7645 0.9556 0.0
O60 O 0.20649 0.79608 0.69462 0.0
O61 O 0.21619 0.81522 0.83316 0.0
O62 O 0.27103 0.82748 0.77161 0.0
O63 O 0.28917 0.7916 0.75355 0.0
O64 O 0.25084 0.78602 0.59258 0.0
O65 O 0.29195 0.76713 0.58097 0.0
O66 O 0.33501 0.74141 0.71758 0.0
O67 O 0.30847 0.70922 0.75205 0.0
O68 O 0.26349 0.72562 0.63944 0.0
O69 O 0.24831 0.74573 0.76254 0.0
O70 O 0.29037 0.75499 0.90071 0.0
O71 O 0.25024 0.77547 0.9177 0.0
H72 H 0.21695 0.85135 0.64194 0.0
H73 H 0.19357 0.89084 0.59037 0.0
H74 H 0.12687 0.86694 0.76201 0.0
H75 H 0.15019 0.82741 0.81118 0.0
H76 H 0.38232 0.70911 0.67784 0.0
H77 H 0.41435 0.67876 0.74526 0.0
H78 H 0.36143 0.66034 0.98212 0.0
H79 H 0.32931 0.69053 0.91345 0.0
Nd80 Nd 0.50516 0.99364 1.02861 0.0
Nd81 Nd 0.53493 0.04328 0.03926 0.0
C82 C 0.48513 0.94672 0.99062 0.0
C83 C 0.46079 0.93401 0.95696 0.0
C84 C 0.46217 0.91256 0.89272 0.0
C85 C 0.43951 0.8995 0.86304 0.0
C86 C 0.41485 0.90758 0.8971 0.0
C87 C 0.4136 0.92919 0.96141 0.0
C88 C 0.43625 0.94228 0.99071 0.0
C89 C 0.47347 0.036 0.07216 0.0
C90 C 0.517 0.0258 0.82634 0.0
C91 C 0.55638 0.08924 0.08287 0.0
C92 C 0.58172 0.10263 0.09852 0.0
C93 C 0.58677 0.11455 0.18954 0.0
C94 C 0.60982 0.12856 0.20514 0.0
C95 C 0.62845 0.13119 0.12981 0.0
C96 C 0.6234 0.11909 0.03868 0.0
C97 C 0.60034 0.105 1.0232 0.0
C98 C 0.56596 1.0005 0.9952 0.0
C99 C 0.52172 1.0122 0.23983 0.0
O100 O 0.49829 0.96024 0.92633 0.0
O101 O 0.48487 0.95771 0.07721 0.0
O102 O 0.46987 1.01251 0.1036 0.0
O103 O 0.49204 0.03647 1.01109 0.0
O104 O 0.51485 1.00256 0.86689 0.0
O105 O 0.51986 0.04678 0.88162 0.0
O106 O 0.54907 0.07229 0.14874 0.0
O107 O 0.55007 0.08211 0.9939 0.0
O108 O 0.56959 0.02374 0.96131 0.0
O109 O 0.54777 1.00058 0.05766 0.0
O110 O 0.52162 0.03537 0.19808 0.0
O111 O 0.52144 0.99101 0.1847 0.0
H112 H 0.48088 0.90579 0.86576 0.0
H113 H 0.44132 0.88324 0.81254 0.0
H114 H 0.3951 0.93582 0.99059 0.0
H115 H 0.43456 0.95871 0.04054 0.0
H116 H 0.57271 0.11319 0.24878 0.0
H117 H 0.61308 0.13718 0.27671 0.0
H118 H 0.63705 0.1209 0.97837 0.0
H119 H 0.59701 0.09624 0.95189 0.0
Nd120 Nd 0.29592 0.24993 0.32167 0.0
Nd121 Nd 0.24643 0.28198 0.29711 0.0
C122 C 0.34324 0.2286 0.31259 0.0
C123 C 0.35841 0.20654 0.26906 0.0
C124 C 0.36717 0.20693 0.17098 0.0
C125 C 0.38308 0.18678 0.13405 0.0
C126 C 0.39065 0.16574 0.19418 0.0
C127 C 0.38173 0.16542 0.29204 0.0
C128 C 0.36594 0.18552 0.32887 0.0
C129 C 0.25114 0.2207 0.33972 0.0
C130 C 0.27224 0.25945 0.10137 0.0
C131 C 0.19934 0.30391 0.30609 0.0
C132 C 0.18425 0.32609 0.3489 0.0
C133 C 0.16209 0.32109 0.4067 0.0
C134 C 0.14594 0.34157 0.43896 0.0
C135 C 0.15142 0.36762 0.41353 0.0
C136 C 0.17406 0.37263 0.35796 0.0
C137 C 0.19023 0.35218 0.32605 0.0
C138 C 0.29185 0.31061 0.28146 0.0
C139 C 0.26972 0.27194 0.51762 0.0
O140 O 0.33559 0.2476 0.25538 0.0
O141 O 0.32602 0.22295 0.38003 0.0
O142 O 0.27262 0.21621 0.38611 0.0
O143 O 0.25419 0.23879 0.27758 0.0
O144 O 0.29324 0.25585 0.15512 0.0
O145 O 0.24952 0.26493 0.14214 0.0
O146 O 0.2068 0.2851 0.36446 0.0
O147 O 0.21663 0.30912 0.23837 0.0
O148 O 0.27085 0.31547 0.2325 0.0
O149 O 0.28782 0.29269 0.34297 0.0
O150 O 0.24879 0.27562 0.46354 0.0
O151 O 0.29252 0.26667 0.47706 0.0
H152 H 0.36199 0.22291 0.12289 0.0
H153 H 0.38936 0.18764 0.05817 0.0
H154 H 0.38747 0.14989 0.34133 0.0
H155 H 0.35997 0.18481 0.40518 0.0
H156 H 0.15682 0.30119 0.42476 0.0
H157 H 0.12863 0.33687 0.48087 0.0
H158 H 0.17922 0.39243 0.3383 0.0
H159 H 0.20714 0.35682 0.28175 0.0
Nd160 Nd 0.74194 0.288 0.28778 0.0
Nd161 Nd 0.79195 0.2562 0.29417 0.0
C162 C 0.69456 0.30777 0.25869 0.0
C163 C 0.6792 0.32913 0.21335 0.0
C164 C 0.65397 0.32385 0.17927 0.0
C165 C 0.63774 0.34407 0.14652 0.0
C166 C 0.64633 0.37017 0.1472 0.0
C167 C 0.67199 0.37527 0.17869 0.0
C168 C 0.68822 0.355 0.21146 0.0
C169 C 0.78561 0.31812 0.32175 0.0
C170 C 0.77338 0.27579 0.08374 0.0
C171 C 0.83906 0.23543 0.31975 0.0
C172 C 0.85537 0.21422 0.36091 0.0
C173 C 0.88192 0.21901 0.37679 0.0
C174 C 0.89884 0.19873 0.4031 0.0
C175 C 0.88962 0.17306 0.41458 0.0
C176 C 0.86274 0.16846 0.40249 0.0
C177 C 0.84579 0.18882 0.37536 0.0
C178 C 0.7471 0.22703 0.26486 0.0
C179 C 0.76109 0.26904 0.49889 0.0
O180 O 0.70495 0.29 0.20159 0.0
O181 O 0.7094 0.31379 0.33309 0.0
O182 O 0.7626 0.32303 0.35601 0.0
O183 O 0.78486 0.29905 0.26255 0.0
O184 O 0.75029 0.27893 0.12486 0.0
O185 O 0.79433 0.2723 0.13801 0.0
O186 O 0.82912 0.25299 0.3789 0.0
O187 O 0.82363 0.22959 0.24689 0.0
O188 O 0.76944 0.22138 0.22606 0.0
O189 O 0.74949 0.24596 0.323 0.0
O190 O 0.78412 0.26563 0.45733 0.0
O191 O 0.74003 0.27239 0.44492 0.0
H192 H 0.64648 0.30409 0.18079 0.0
H193 H 0.6181 0.33931 0.12396 0.0
H194 H 0.67951 0.395 0.17875 0.0
H195 H 0.70761 0.35964 0.23726 0.0
H196 H 0.88979 0.23841 0.36578 0.0
H197 H 0.91929 0.20311 0.41315 0.0
H198 H 0.85496 0.14893 0.41015 0.0
H199 H 0.82541 0.18457 0.36295 0.0
Nd200 Nd 0.79513 0.75234 0.81314 0.0
Nd201 Nd 0.7431 0.78767 0.79238 0.0
C202 C 0.84184 0.72976 0.80375 0.0
C203 C 0.85515 0.7051 0.77297 0.0
C204 C 0.86348 0.70103 0.6754 0.0
C205 C 0.87725 0.6783 0.64891 0.0
C206 C 0.88308 0.65905 0.71927 0.0
C207 C 0.87492 0.66335 0.81687 0.0
C208 C 0.86125 0.686 0.84326 0.0
C209 C 0.74839 0.72627 0.82918 0.0
C210 C 0.77269 0.76751 0.59275 0.0
C211 C 0.69416 0.80429 0.79103 0.0
C212 C 0.67805 0.82601 0.82991 0.0
C213 C 0.65115 0.82251 0.84193 0.0
C214 C 0.6353 0.8431 0.8747 0.0
C215 C 0.646 0.86776 0.89609 0.0
C216 C 0.67312 0.87107 0.8852 0.0
C217 C 0.68897 0.85041 0.85266 0.0
C218 C 0.78677 0.81933 0.80804 0.0
C219 C 0.76889 0.77686 1.00731 0.0
O220 O 0.83271 0.7452 0.73554 0.0
O221 O 0.82673 0.72891 0.88121 0.0
O222 O 0.76968 0.71873 0.8715 0.0
O223 O 0.75299 0.74504 0.77204 0.0
O224 O 0.79203 0.75837 0.64678 0.0
O225 O 0.75094 0.7771 0.63118 0.0
O226 O 0.703 0.78729 0.8547 0.0
O227 O 0.71125 0.81016 0.7229 0.0
O228 O 0.76318 0.82821 0.80062 0.0
O229 O 0.78595 0.79481 0.80987 0.0
O230 O 0.74712 0.77927 0.9565 0.0
O231 O 0.79159 0.77174 0.96479 0.0
H232 H 0.85949 0.71547 0.61941 0.0
H233 H 0.88303 0.67567 0.57301 0.0
H234 H 0.87946 0.64934 0.87375 0.0
H235 H 0.85569 0.68866 0.91942 0.0
H236 H 0.64229 0.80388 0.82463 0.0
H237 H 0.61453 0.83983 0.881 0.0
H238 H 0.68214 0.88961 0.90225 0.0
H239 H 0.70972 0.85356 0.84453 0.0
Nd240 Nd 0.53361 0.54467 1.01447 0.0
Nd241 Nd 0.50013 0.49266 0.0335 0.0
C242 C 0.55526 0.58926 0.95918 0.0
C243 C 0.57882 0.60582 0.95951 0.0
C244 C 0.587 0.61681 0.87037 0.0
C245 C 0.6094 0.63221 0.86571 0.0
C246 C 0.62422 0.63715 0.95043 0.0
C247 C 0.6158 0.62631 0.04028 0.0
C248 C 0.59332 0.61076 0.04479 0.0
C249 C 0.56153 0.50068 0.06574 0.0
C250 C 0.51389 0.51371 0.81698 0.0
C251 C 0.48274 0.44445 0.06023 0.0
C252 C 0.45818 0.43052 0.08576 0.0
C253 C 0.45383 0.42114 0.1815 0.0
C254 C 0.431 0.40739 0.2047 0.0
C255 C 0.41197 0.4026 0.13261 0.0
C256 C 0.41659 0.41169 0.03662 0.0
C257 C 0.43933 0.4254 1.01353 0.0
C258 C 0.46717 0.5359 1.01773 0.0
C259 C 0.51516 0.52685 0.23 0.0
O260 O 0.55668 0.56763 0.90825 0.0
O261 O 0.54132 0.58698 0.03963 0.0
O262 O 0.56722 0.52419 0.09367 0.0
O263 O 0.54293 0.50106 1.00492 0.0
O264 O 0.51821 0.53659 0.85865 0.0
O265 O 0.51058 0.49238 0.86988 0.0
O266 O 0.49422 0.45801 0.12943 0.0
O267 O 0.48385 0.45589 0.97437 0.0
O268 O 0.45896 0.51212 1.02702 0.0
O269 O 0.49156 0.53541 1.01879 0.0
O270 O 0.51166 0.50335 0.19155 0.0
O271 O 0.5196 0.54764 0.17454 0.0
H272 H 0.57613 0.61322 0.80357 0.0
H273 H 0.61541 0.63973 0.79497 0.0
H274 H 0.62655 0.62988 0.10727 0.0
H275 H 0.58741 0.60253 0.11454 0.0
H276 H 0.46811 0.42442 0.23863 0.0
H277 H 0.42809 0.40085 0.27947 0.0
H278 H 0.40272 0.40794 0.97852 0.0
H279 H 0.44213 0.43185 0.93858 0.0
Nd280 Nd 1.00343 0.4938 0.5303 0.0
Nd281 Nd 0.03561 0.54246 0.50286 0.0
C282 C 0.98094 0.44696 0.52342 0.0
C283 C 0.9584 0.43199 0.48356 0.0
C284 C 0.96008 0.41874 0.39304 0.0
C285 C 0.93966 0.40267 0.36068 0.0
C286 C 0.91706 0.39932 0.41814 0.0
C287 C 0.91541 0.41275 0.50832 0.0
C288 C 0.93576 0.42877 0.54056 0.0
C289 C 0.97534 0.53964 0.55302 0.0
C290 C 1.01173 0.51751 0.30848 0.0
C291 C 0.05767 0.58949 0.50875 0.0
C292 C 0.07908 0.60533 0.55248 0.0
C293 C 0.07439 0.62191 0.63326 0.0
C294 C 0.09375 0.63906 0.667 0.0
C295 C 0.11819 0.64028 0.62012 0.0
C296 C 0.12301 0.62324 0.54085 0.0
C297 C 0.10374 0.6061 0.50736 0.0
C298 C 0.06339 0.49696 0.47338 0.0
C299 C 0.0279 0.51836 0.72453 0.0
O300 O 0.99944 0.45424 0.46328 0.0
O301 O 0.97629 0.46434 0.59162 0.0
O302 O 0.97106 0.51848 0.60195 0.0
O303 O 0.99254 0.5357 0.48816 0.0
O304 O 1.00781 0.49654 0.36251 0.0
O305 O 1.01778 0.5401 0.34924 0.0
O306 O 0.03791 0.58286 0.56406 0.0
O307 O 0.06399 0.57126 0.44581 0.0
O308 O 0.06679 0.51839 0.42507 0.0
O309 O 0.04694 0.50021 0.54197 0.0
O310 O 0.03208 0.53931 0.67073 0.0
O311 O 0.0213 0.49595 0.68375 0.0
H312 H 0.97735 0.42045 0.34774 0.0
H313 H 0.94161 0.39286 0.29053 0.0
H314 H 0.89863 0.41035 0.55576 0.0
H315 H 0.93394 0.43819 0.61155 0.0
H316 H 0.05551 0.62214 0.6689 0.0
H317 H 0.08925 0.65199 0.72778 0.0
H318 H 0.14171 0.62324 0.50392 0.0
H319 H 0.10806 0.59385 0.44444 0.0
H320 H 0.16912 0.13262 0.42972 0.0
H321 H 0.11546 0.19271 0.33836 0.0
H322 H 0.15194 0.22142 0.29834 0.0
H323 H 0.1996 0.23045 0.29752 0.0
H324 H 0.25216 0.17067 0.39992 0.0
H325 H 0.21582 0.14118 0.42749 0.0
C326 C 0.16529 0.15206 0.40182 0.0
C327 C 0.13943 0.16037 0.38774 0.0
C328 C 0.18633 0.16868 0.38072 0.0
C329 C 0.13509 0.18552 0.34917 0.0
C330 C 0.15599 0.20209 0.32674 0.0
C331 C 0.203 0.21087 0.32475 0.0
C332 C 0.22857 0.20279 0.34651 0.0
C333 C 0.18176 0.194 0.34301 0.0
C334 C 0.23269 0.17744 0.38282 0.0
C335 C 0.21189 0.16051 0.39881 0.0
H336 H 0.11452 0.99542 0.57354 0.0
H337 H 0.04302 0.95226 0.54515 0.0
H338 H 0.06601 0.9116 0.58252 0.0
H339 H 0.10651 0.88829 0.62517 0.0
H340 H 0.17802 0.93172 0.65535 0.0
H341 H 0.15516 0.97199 0.61376 0.0
C342 C 0.104 0.97708 0.57518 0.0
C343 C 0.07698 0.97692 0.55752 0.0
C344 C 0.11744 0.95374 0.59668 0.0
C345 C 0.06368 0.95299 0.55976 0.0
C346 C 0.07689 0.92971 0.5808 0.0
C347 C 0.11712 0.90656 0.62333 0.0
C348 C 0.14409 0.90675 0.64359 0.0
C349 C 0.10376 0.92984 0.60011 0.0
C350 C 0.15742 0.93072 0.63895 0.0
C351 C 0.1443 0.95389 0.61577 0.0
H352 H 0.30247 0.8673 0.77951 0.0
H353 H 0.34138 0.79275 0.78907 0.0
H354 H 0.38263 0.81453 0.82834 0.0
H355 H 0.40708 0.85489 0.86773 0.0
H356 H 0.36751 0.92928 0.85382 0.0
H357 H 0.32713 0.90741 0.8099 0.0
C358 C 0.32002 0.8558 0.78945 0.0
C359 C 0.31887 0.82843 0.78136 0.0
C360 C 0.34354 0.86846 0.81239 0.0
C361 C 0.34178 0.81384 0.79438 0.0
C362 C 0.36534 0.82631 0.81729 0.0
C363 C 0.38974 0.86639 0.85391 0.0
C364 C 0.3905 0.89382 0.86553 0.0
C365 C 0.36641 0.85364 0.82748 0.0
C366 C 0.36758 0.90819 0.84795 0.0
C367 C 0.34443 0.8957 0.82197 0.0
H368 H 0.4763 0.08803 1.01848 0.0
H369 H 0.42989 0.03302 0.18239 0.0
H370 H 0.4001 0.06764 0.23109 0.0
H371 H 0.38724 0.11352 0.23091 0.0
H372 H 0.43334 0.16967 0.07192 0.0
H373 H 0.46267 0.13483 1.01665 0.0
C374 C 0.45958 0.08368 0.06435 0.0
C375 C 0.45541 0.05786 0.09649 0.0
C376 C 0.44232 0.10393 0.09311 0.0
C377 C 0.43368 0.05262 0.15636 0.0
C378 C 0.41654 0.07245 0.1845 0.0
C379 C 0.40379 0.11827 0.18471 0.0
C380 C 0.40801 0.14435 0.15637 0.0
C381 C 0.42074 0.09819 0.15404 0.0
C382 C 0.42934 0.14982 0.09447 0.0
C383 C 0.44629 0.12987 0.06325 0.0
H384 H 0.86893 0.90918 0.75614 0.0
H385 H 0.91514 0.84537 0.64297 0.0
H386 H 0.88092 0.81454 0.68791 0.0
H387 H 0.83609 0.80598 0.74815 0.0
H388 H 0.78942 0.87056 0.85127 0.0
H389 H 0.82537 0.9006 0.82158 0.0
C390 C 0.87154 0.88855 0.74089 0.0
C391 C 0.89464 0.87978 0.69562 0.0
C392 C 0.85156 0.87094 0.76519 0.0
C393 C 0.89775 0.8528 0.67857 0.0
C394 C 0.87807 0.8351 0.70369 0.0
C395 C 0.83405 0.82655 0.76563 0.0
C396 C 0.81017 0.83606 0.802 0.0
C397 C 0.8547 0.84396 0.74581 0.0
C398 C 0.80762 0.8628 0.82316 0.0
C399 C 0.82814 0.88002 0.80589 0.0
H400 H 0.97879 0.08695 0.43755 0.0
H401 H 0.92613 0.05489 0.65271 0.0
H402 H 0.89632 0.09155 0.62903 0.0
H403 H 0.8843 0.13222 0.54331 0.0
H404 H 0.93705 0.16444 0.3287 0.0
H405 H 0.96753 0.12857 0.35634 0.0
C406 C 0.96089 0.08812 0.47977 0.0
C407 C 0.95469 0.06808 0.5465 0.0
C408 C 0.94369 0.10933 0.46559 0.0
C409 C 0.9314 0.06996 0.60069 0.0
C410 C 0.91426 0.09092 0.587 0.0
C411 C 0.90243 0.13136 0.5024 0.0
C412 C 0.90826 0.15113 0.43399 0.0
C413 C 0.92002 0.11059 0.51882 0.0
C414 C 0.93208 0.14975 0.38263 0.0
C415 C 0.94953 0.12912 0.39803 0.0
H416 H 0.74091 0.1823 0.15916 0.0
H417 H 0.69849 0.2382 0.33486 0.0
H418 H 0.65816 0.21379 0.30838 0.0
H419 H 0.63484 0.17666 0.23427 0.0
H420 H 0.67768 0.12003 0.06259 0.0
H421 H 0.7177 0.14474 0.08749 0.0
C422 C 0.72283 0.18911 0.19174 0.0
C423 C 0.72273 0.21201 0.24914 0.0
C424 C 0.6997 0.17488 0.17653 0.0
C425 C 0.69914 0.22059 0.29075 0.0
C426 C 0.67605 0.20663 0.2755 0.0
C427 C 0.65294 0.16951 0.20307 0.0
C428 C 0.653 0.14641 0.14622 0.0
C429 C 0.67609 0.18371 0.21862 0.0
C430 C 0.67676 0.13787 0.10525 0.0
C431 C 0.69978 0.15193 0.12003 0.0
H432 H 0.64895 0.91884 0.8399 0.0
H433 H 0.60416 0.86682 1.02259 0.0
H434 H 0.57545 0.90288 0.07005 0.0
H435 H 0.56274 0.94962 0.05897 0.0
H436 H 0.60808 1.00101 0.87557 0.0
H437 H 0.63684 0.96504 0.83053 0.0
C438 C 0.63313 0.91538 0.89109 0.0
C439 C 0.62887 0.89001 0.92746 0.0
C440 C 0.61666 0.93623 0.91821 0.0
C441 C 0.60784 0.886 0.99234 0.0
C442 C 0.59143 0.90668 1.01999 0.0
C443 C 0.57899 0.9529 1.00954 0.0
C444 C 0.58327 0.97806 0.97113 0.0
C445 C 0.59557 0.93193 0.98321 0.0
C446 C 0.60433 0.98192 0.90657 0.0
C447 C 0.62083 0.96132 0.88057 0.0
H448 H 0.63391 0.68068 0.83899 0.0
H449 H 0.6703 0.62831 0.0457 0.0
H450 H 0.71129 0.6518 1.02862 0.0
H451 H 0.73747 0.68599 0.95029 0.0
H452 H 0.70196 0.73771 0.73996 0.0
H453 H 0.6601 0.7155 0.7621 0.0
C454 C 0.65082 0.67428 0.88 0.0
C455 C 0.64885 0.65262 0.94358 0.0
C456 C 0.67458 0.68767 0.86864 0.0
C457 C 0.67096 0.64505 0.99735 0.0
C458 C 0.69455 0.65836 0.98697 0.0
C459 C 0.72056 0.69243 0.9093 0.0
C460 C 0.72283 0.71338 0.84317 0.0
C461 C 0.69666 0.67951 0.9222 0.0
C462 C 0.70072 0.72158 0.79105 0.0
C463 C 0.6768 0.70888 0.80375 0.0
H464 H 0.6415 0.41823 0.23269 0.0
H465 H 0.61012 0.37123 0.99807 0.0
H466 H 0.58011 0.40648 0.95461 0.0
H467 H 0.56318 0.45157 0.98119 0.0
H468 H 0.5962 0.49825 0.21356 0.0
H469 H 0.62499 0.46249 0.25903 0.0
C470 C 0.62836 0.41572 0.17118 0.0
C471 C 0.62831 0.39198 0.11874 0.0
C472 C 0.61125 0.43615 0.14606 0.0
C473 C 0.61057 0.3891 0.04064 0.0
C474 C 0.59341 0.40935 1.01535 0.0
C475 C 0.57659 0.45378 0.042 0.0
C476 C 0.57755 0.47765 0.09361 0.0
C477 C 0.59355 0.43305 0.06744 0.0
C478 C 0.59511 0.4802 0.17214 0.0
C479 C 0.61165 0.45973 0.19833 0.0
H480 H 0.86473 0.40697 0.43854 0.0
H481 H 0.92056 0.35155 0.3249 0.0
H482 H 0.88518 0.32193 0.2797 0.0
H483 H 0.83785 0.3108 0.27912 0.0
H484 H 0.78324 0.36633 0.40094 0.0
H485 H 0.81847 0.39642 0.43676 0.0
C486 C 0.86929 0.38835 0.40454 0.0
C487 C 0.89544 0.38161 0.3859 0.0
C488 C 0.8489 0.37122 0.3802 0.0
C489 C 0.90069 0.35753 0.3395 0.0
C490 C 0.88041 0.34043 0.31415 0.0
C491 C 0.83374 0.32957 0.31278 0.0
C492 C 0.80786 0.33622 0.33714 0.0
C493 C 0.85437 0.34694 0.33486 0.0
C494 C 0.8029 0.36057 0.38148 0.0
C495 C 0.82308 0.3779 0.40215 0.0
H496 H 0.92455 0.65249 0.59176 0.0
H497 H 0.87333 0.60968 0.78478 0.0
H498 H 0.89715 0.56959 0.75003 0.0
H499 H 0.93297 0.5465 0.66849 0.0
H500 H 0.98391 0.58798 0.47144 0.0
H501 H 0.95969 0.62855 0.50321 0.0
C502 C 0.91841 0.63435 0.62542 0.0
C503 C 0.89724 0.63439 0.69209 0.0
C504 C 0.9322 0.61104 0.60448 0.0
C505 C 0.88981 0.61057 0.73513 0.0
C506 C 0.90335 0.58749 0.7148 0.0
C507 C 0.93875 0.56439 0.63206 0.0
C508 C 0.96026 0.56419 0.56775 0.0
C509 C 0.9247 0.58752 0.65043 0.0
C510 C 0.9674 0.58756 0.52107 0.0
C511 C 0.95356 0.61077 0.53943 0.0
H512 H 0.29917 0.35399 0.17275 0.0
H513 H 0.33973 0.30044 0.36254 0.0
H514 H 0.3805 0.32436 0.33529 0.0
H515 H 0.40482 0.35996 0.25271 0.0
H516 H 0.36302 0.41385 0.0671 0.0
H517 H 0.3227 0.39027 0.09717 0.0
C518 C 0.31691 0.34759 0.20855 0.0
C519 C 0.31644 0.32545 0.26947 0.0
C520 C 0.34014 0.36146 0.1928 0.0
C521 C 0.33957 0.31747 0.31549 0.0
C522 C 0.36289 0.33112 0.29972 0.0
C523 C 0.38685 0.36673 0.21971 0.0
C524 C 0.38721 0.38857 0.15653 0.0
C525 C 0.36345 0.35311 0.23802 0.0
C526 C 0.36362 0.39684 0.11411 0.0
C527 C 0.34043 0.38345 0.13177 0.0
H528 H 0.48113 0.58618 0.97015 0.0
H529 H 0.41463 0.53706 1.02638 0.0
H530 H 0.38528 0.57322 0.99028 0.0
H531 H 0.37815 0.61808 0.93493 0.0
H532 H 0.44407 0.66783 0.87698 0.0
H533 H 0.47378 0.63231 0.92059 0.0
C534 C 0.46022 0.58353 0.9752 0.0
C535 C 0.4501 0.5589 1.00088 0.0
C536 C 0.44327 0.60451 0.95329 0.0
C537 C 0.42296 0.55575 1.00668 0.0
C538 C 0.40611 0.57645 0.98594 0.0
C539 C 0.399 0.6214 0.93344 0.0
C540 C 0.40872 0.64576 0.90259 0.0
C541 C 0.416 0.60084 0.95825 0.0
C542 C 0.43592 0.64929 0.89935 0.0
C543 C 0.45297 0.62897 0.92466 0.0
H544 H 0.20534 0.712 0.81432 0.0
H545 H 0.22352 0.72424 0.50872 0.0
H546 H 0.18572 0.69853 0.46023 0.0
H547 H 0.14973 0.6696 0.50337 0.0
H548 H 0.13219 0.65465 0.80786 0.0
H549 H 0.16706 0.68439 0.85792 0.0
C550 C 0.20057 0.70949 0.73736 0.0
C551 C 0.2171 0.72009 0.66506 0.0
C552 C 0.17911 0.69383 0.70968 0.0
C553 C 0.21104 0.7163 0.56555 0.0
C554 C 0.18951 0.70148 0.53773 0.0
C555 C 0.15356 0.67271 0.5808 0.0
C556 C 0.13848 0.65954 0.65152 0.0
C557 C 0.17383 0.68955 0.60899 0.0
C558 C 0.14338 0.66449 0.75156 0.0
C559 C 0.16344 0.68145 0.78032 0.0
H560 H 0.13638 0.40882 0.30104 0.0
H561 H 0.1249 0.37533 0.58796 0.0
H562 H 0.0954 0.41121 0.63179 0.0
H563 H 0.07373 0.45357 0.58967 0.0
H564 H 0.08715 0.48638 0.3024 0.0
H565 H 0.11478 0.44962 0.25848 0.0
C566 C 0.12769 0.40942 0.37366 0.0
C567 C 0.13319 0.38939 0.44114 0.0
C568 C 0.11088 0.43016 0.39855 0.0
C569 C 0.12104 0.39034 0.53403 0.0
C570 C 0.10418 0.41096 0.55938 0.0
C571 C 0.08258 0.45248 0.51742 0.0
C572 C 0.07845 0.47288 0.44976 0.0
C573 C 0.099 0.43115 0.49238 0.0
C574 C 0.09014 0.47117 0.35641 0.0
C575 C 0.106 0.45009 0.33094 0.0
H576 H 1.00697 0.9876 0.8734 0.0
H577 H 0.02759 0.06901 0.84649 0.0
H578 H 0.03085 0.07262 1.02462 0.0
H579 H 0.02752 0.05292 0.18764 0.0
H580 H 1.00624 0.97172 0.21536 0.0
H581 H 1.00373 0.96783 0.03687 0.0
C582 C 1.01216 1.00617 0.90626 0.0
C583 C 1.01698 0.02801 0.84625 0.0
C584 C 1.01398 1.00815 1.00888 0.0
C585 C 0.02369 0.05188 0.89057 0.0
C586 C 0.02562 0.05397 0.99256 0.0
C587 C 0.02249 0.03428 0.15491 0.0
C588 C 1.01714 1.01263 0.21515 0.0
C589 C 0.02081 0.03224 0.05236 0.0
C590 C 1.01045 0.98873 0.17101 0.0
C591 C 1.00898 0.98648 0.06886 0.0
H592 H 0.30133 0.75342 0.40365 0.0
H593 H 0.23691 0.80719 0.43363 0.0
H594 H 0.23076 0.80706 0.25627 0.0
H595 H 0.24289 0.79099 0.09272 0.0
H596 H 0.30724 0.73718 0.062 0.0
H597 H 0.31398 0.73793 0.23925 0.0
C598 C 0.28616 0.76538 0.37136 0.0
C599 C 0.26966 0.78032 0.43218 0.0
C600 C 0.28246 0.76498 0.26905 0.0
C601 C 0.24991 0.79546 0.38885 0.0
C602 C 0.24629 0.79535 0.28728 0.0
C603 C 0.25828 0.77927 0.1247 0.0
C604 C 0.2744 0.76395 0.06385 0.0
C605 C 0.26225 0.77995 0.22675 0.0
C606 C 0.29446 0.74914 0.10684 0.0
C607 C 0.29841 0.74959 0.20834 0.0
H608 H 0.51671 0.98604 0.69322 0.0
H609 H 0.51835 0.07015 0.71394 0.0
H610 H 0.52015 0.07325 0.53491 0.0
H611 H 0.52151 0.05211 0.37263 0.0
H612 H 0.52026 0.96799 0.35243 0.0
H613 H 0.51818 0.96494 0.5313 0.0
C614 C 0.51736 1.0051 0.65884 0.0
C615 C 0.51731 0.02785 0.71742 0.0
C616 C 0.51858 1.00674 0.55584 0.0
C617 C 0.51831 0.05232 0.67104 0.0
C618 C 0.51938 0.05411 0.56852 0.0
C619 C 0.52083 0.03307 0.40715 0.0
C620 C 0.52107 1.01029 0.34872 0.0
C621 C 0.5196 0.03145 0.51021 0.0
C622 C 0.52015 0.98584 0.39521 0.0
C623 C 0.51891 0.98408 0.49764 0.0
H624 H 0.23759 0.2765 0.96466 0.0
H625 H 0.31351 0.24108 0.99548 0.0
H626 H 0.31993 0.2428 0.81829 0.0
H627 H 0.30424 0.25466 0.65428 0.0
H628 H 0.22833 0.29006 0.62342 0.0
H629 H 0.22186 0.28825 0.80059 0.0
C630 C 0.25543 0.26893 0.93255 0.0
C631 C 0.27497 0.25863 0.99332 0.0
C632 C 0.25917 0.27022 0.8305 0.0
C633 C 0.2981 0.24913 0.95049 0.0
C634 C 0.30186 0.25016 0.84908 0.0
C635 C 0.28639 0.2622 0.68638 0.0
C636 C 0.26688 0.27255 0.62563 0.0
C637 C 0.28263 0.26085 0.7884 0.0
C638 C 0.24372 0.28198 0.66841 0.0
C639 C 0.23993 0.2809 0.76981 0.0
H640 H 0.73399 0.27711 0.95052 0.0
H641 H 0.81776 0.27268 0.97267 0.0
H642 H 0.82126 0.26958 0.79421 0.0
H643 H 0.80059 0.2679 0.63196 0.0
H644 H 0.7168 0.27228 0.61013 0.0
H645 H 0.71334 0.27545 0.78848 0.0
C646 C 0.75305 0.27561 0.91647 0.0
C647 C 0.77558 0.27521 0.97519 0.0
C648 C 0.75493 0.27364 0.8138 0.0
C649 C 0.80008 0.27309 0.92949 0.0
C650 C 0.80211 0.27125 0.82733 0.0
C651 C 0.78154 0.2694 0.66609 0.0
C652 C 0.75899 0.26977 0.60745 0.0
C653 C 0.77967 0.2714 0.7688 0.0
C654 C 0.73449 0.2719 0.65322 0.0
C655 C 0.73248 0.27378 0.75533 0.0
H656 H 0.7397 0.7874 0.45537 0.0
H657 H 0.81331 0.74731 0.48627 0.0
H658 H 0.81938 0.7479 0.30877 0.0
H659 H 0.80351 0.75914 0.14371 0.0
H660 H 0.72962 0.79868 0.11393 0.0
H661 H 0.72418 0.79911 0.29158 0.0
C662 C 0.75705 0.77871 0.42349 0.0
C663 C 0.77591 0.76726 0.4845 0.0
C664 C 0.76051 0.77912 0.3212 0.0
C665 C 0.79835 0.75623 0.44143 0.0
C666 C 0.80192 0.75659 0.3397 0.0
C667 C 0.78637 0.76809 0.1762 0.0
C668 C 0.76703 0.77883 0.1155 0.0
C669 C 0.78313 0.76798 0.27878 0.0
C670 C 0.74479 0.79014 0.1588 0.0
C671 C 0.74161 0.79039 0.26053 0.0
H672 H 0.5204 0.55324 0.68448 0.0
H673 H 0.50473 0.47057 0.70344 0.0
H674 H 0.50336 0.46767 0.52474 0.0
H675 H 0.50709 0.48823 0.36349 0.0
H676 H 0.52297 0.57079 0.34257 0.0
H677 H 0.52368 0.57402 0.52184 0.0
C678 C 0.51664 0.53456 0.64973 0.0
C679 C 0.51271 0.51213 0.70795 0.0
C680 C 0.51591 0.53298 0.5465 0.0
C681 C 0.50786 0.48815 0.66104 0.0
C682 C 0.50707 0.48646 0.55862 0.0
C683 C 0.51067 0.50702 0.39769 0.0
C684 C 0.51499 0.52925 0.33897 0.0
C685 C 0.51114 0.50871 0.50068 0.0
C686 C 0.51957 0.55335 0.38545 0.0
C687 C 0.52 0.5552 0.48813 0.0
H688 H 1.00804 0.48499 0.86107 0.0
H689 H 0.04859 0.5583 0.83149 0.0
H690 H 0.04602 0.5652 1.0085 0.0
H691 H 0.03187 0.55074 0.17208 0.0
H692 H 0.99135 0.47741 0.20164 0.0
H693 H 0.99403 0.47045 1.02467 0.0
C694 C 1.01659 0.50232 0.89343 0.0
C695 C 0.0286 0.521 0.83291 0.0
C696 C 1.01473 0.50639 0.99538 0.0
C697 C 0.03927 0.54354 0.87617 0.0
C698 C 0.03772 0.54759 0.9775 0.0
C699 C 0.02335 0.53339 0.1397 0.0
C700 C 1.01129 0.51474 0.20016 0.0
C701 C 0.02528 0.52928 0.03778 0.0
C702 C 1.0007 0.49216 0.15695 0.0
C703 C 1.00231 0.48807 0.05566 0.0
loop_
_geom_bond_atom_site_label_1
_geom_bond_atom_site_label_2
_geom_bond_distance
_geom_bond_site_symmetry_2
_ccdc_geom_bond_type
Nd0 C2 2.836 . S
Nd0 O20 2.500 . S
Nd0 O21 2.492 . S
Nd0 O22 2.487 1_545 S
Nd0 O23 2.682 1_545 S
Nd0 O24 2.410 . S
Nd0 O29 2.414 1_455 S
Nd0 O31 2.424 . S
Nd1 C11 2.836 . S
Nd1 O23 2.414 1_655 S
Nd1 O25 2.424 . S
Nd1 O26 2.500 . S
Nd1 O27 2.492 . S
Nd1 O28 2.487 1_565 S
Nd1 O29 2.682 1_565 S
Nd1 O30 2.410 . S
C2 Nd0 2.836 . S
C2 C3 1.498 . S
C2 O20 1.258 . S
C2 O21 1.239 . S
C3 C2 1.498 . S
C3 C4 1.366 . S
C3 C8 1.407 . S
C4 C3 1.366 . S
C4 C5 1.392 . S
C4 H32 0.930 . S
C5 C4 1.392 . S
C5 C6 1.398 . S
C5 H33 0.929 . S
C6 C5 1.398 . S
C6 C7 1.352 . S
C7 C6 1.352 . S
C7 C8 1.384 . S
C7 H34 0.930 . S
C8 C3 1.407 . S
C8 C7 1.384 . S
C8 H35 0.929 . S
C9 O22 1.241 . S
C9 O23 1.273 . S
C10 O24 1.251 . S
C10 O25 1.268 1_445 S
C11 Nd1 2.836 . S
C11 C12 1.498 . S
C11 O26 1.258 . S
C11 O27 1.239 . S
C12 C11 1.498 . S
C12 C13 1.366 . S
C12 C17 1.407 . S
C13 C12 1.366 . S
C13 C14 1.392 . S
C13 H36 0.930 . S
C14 C13 1.392 . S
C14 C15 1.398 . S
C14 H37 0.929 . S
C15 C14 1.398 . S
C15 C16 1.352 . S
C16 C15 1.352 . S
C16 C17 1.384 . S
C16 H38 0.930 . S
C17 C12 1.407 . S
C17 C16 1.384 . S
C17 H39 0.929 . S
C18 O28 1.241 . S
C18 O29 1.273 . S
C19 O30 1.251 . S
C19 O31 1.268 1_665 S
O20 Nd0 2.500 . S
O20 C2 1.258 . S
O21 Nd0 2.492 . S
O21 C2 1.239 . S
O22 Nd0 2.487 1_565 S
O22 C9 1.241 . S
O23 Nd0 2.682 1_565 S
O23 Nd1 2.414 1_455 S
O23 C9 1.273 . S
O24 Nd0 2.410 . S
O24 C10 1.251 . S
O25 Nd1 2.424 . S
O25 C10 1.268 1_665 S
O26 Nd1 2.500 . S
O26 C11 1.258 . S
O27 Nd1 2.492 . S
O27 C11 1.239 . S
O28 Nd1 2.487 1_545 S
O28 C18 1.241 . S
O29 Nd0 2.414 1_655 S
O29 Nd1 2.682 1_545 S
O29 C18 1.273 . S
O30 Nd1 2.410 . S
O30 C19 1.251 . S
O31 Nd0 2.424 . S
O31 C19 1.268 1_445 S
H32 C4 0.930 . S
H33 C5 0.929 . S
H34 C7 0.930 . S
H35 C8 0.929 . S
H36 C13 0.930 . S
H37 C14 0.929 . S
H38 C16 0.930 . S
H39 C17 0.929 . S
Nd40 C42 2.836 . S
Nd40 O60 2.500 . S
Nd40 O61 2.492 . S
Nd40 O62 2.487 . S
Nd40 O63 2.682 . S
Nd40 O64 2.410 . S
Nd40 O69 2.414 . S
Nd40 O71 2.424 . S
Nd41 C51 2.836 . S
Nd41 O63 2.414 . S
Nd41 O65 2.424 . S
Nd41 O66 2.500 . S
Nd41 O67 2.492 . S
Nd41 O68 2.487 . S
Nd41 O69 2.682 . S
Nd41 O70 2.410 . S
C42 Nd40 2.836 . S
C42 C43 1.498 . S
C42 O60 1.258 . S
C42 O61 1.239 . S
C43 C42 1.498 . S
C43 C44 1.366 . S
C43 C48 1.407 . S
C44 C43 1.366 . S
C44 C45 1.392 . S
C44 H72 0.930 . S
C45 C44 1.392 . S
C45 C46 1.398 . S
C45 H73 0.929 . S
C46 C45 1.398 . S
C46 C47 1.352 . S
C47 C46 1.352 . S
C47 C48 1.384 . S
C47 H74 0.930 . S
C48 C43 1.407 . S
C48 C47 1.384 . S
C48 H75 0.929 . S
C49 O62 1.241 . S
C49 O63 1.273 . S
C50 O64 1.251 . S
C50 O65 1.268 . S
C51 Nd41 2.836 . S
C51 C52 1.498 . S
C51 O66 1.258 . S
C51 O67 1.239 . S
C52 C51 1.498 . S
C52 C53 1.366 . S
C52 C57 1.407 . S
C53 C52 1.366 . S
C53 C54 1.392 . S
C53 H76 0.930 . S
C54 C53 1.392 . S
C54 C55 1.398 . S
C54 H77 0.929 1_556 S
C55 C54 1.398 . S
C55 C56 1.352 . S
C56 C55 1.352 . S
C56 C57 1.384 . S
C56 H78 0.930 . S
C57 C52 1.407 . S
C57 C56 1.384 . S
C57 H79 0.929 . S
C58 O68 1.241 . S
C58 O69 1.273 . S
C59 O70 1.251 . S
C59 O71 1.268 . S
O60 Nd40 2.500 . S
O60 C42 1.258 . S
O61 Nd40 2.492 . S
O61 C42 1.239 . S
O62 Nd40 2.487 . S
O62 C49 1.241 . S
O63 Nd40 2.682 . S
O63 Nd41 2.414 . S
O63 C49 1.273 . S
O64 Nd40 2.410 . S
O64 C50 1.251 . S
O65 Nd41 2.424 . S
O65 C50 1.268 . S
O66 Nd41 2.500 . S
O66 C51 1.258 . S
O67 Nd41 2.492 . S
O67 C51 1.239 . S
O68 Nd41 2.487 . S
O68 C58 1.241 . S
O69 Nd40 2.414 . S
O69 Nd41 2.682 . S
O69 C58 1.273 . S
O70 Nd41 2.410 . S
O70 C59 1.251 . S
O71 Nd40 2.424 . S
O71 C59 1.268 . S
H72 C44 0.930 . S
H73 C45 0.929 . S
H74 C47 0.930 . S
H75 C48 0.929 . S
H76 C53 0.930 . S
H77 C54 0.929 1_554 S
H78 C56 0.930 . S
H79 C57 0.929 . S
Nd80 C82 2.836 1_554 S
Nd80 O100 2.500 1_554 S
Nd80 O101 2.492 1_554 S
Nd80 O102 2.487 1_565 S
Nd80 O103 2.682 1_565 S
Nd80 O104 2.410 1_554 S
Nd80 O109 2.414 1_554 S
Nd80 O111 2.424 . S
Nd81 C91 2.836 1_556 S
Nd81 O103 2.414 1_556 S
Nd81 O105 2.424 . S
Nd81 O106 2.500 1_556 S
Nd81 O107 2.492 1_556 S
Nd81 O108 2.487 1_545 S
Nd81 O109 2.682 1_545 S
Nd81 O110 2.410 1_556 S
C82 Nd80 2.836 1_556 S
C82 C83 1.498 . S
C82 O100 1.258 . S
C82 O101 1.239 . S
C83 C82 1.498 . S
C83 C84 1.366 . S
C83 C88 1.407 . S
C84 C83 1.366 . S
C84 C85 1.392 . S
C84 H112 0.930 . S
C85 C84 1.392 . S
C85 C86 1.398 . S
C85 H113 0.929 . S
C86 C85 1.398 . S
C86 C87 1.352 . S
C87 C86 1.352 . S
C87 C88 1.384 . S
C87 H114 0.930 . S
C88 C83 1.407 . S
C88 C87 1.384 . S
C88 H115 0.929 . S
C89 O102 1.241 . S
C89 O103 1.273 . S
C90 O104 1.251 . S
C90 O105 1.268 1_565 S
C91 Nd81 2.836 1_554 S
C91 C92 1.498 . S
C91 O106 1.258 . S
C91 O107 1.239 . S
C92 C91 1.498 . S
C92 C93 1.366 . S
C92 C97 1.407 . S
C93 C92 1.366 . S
C93 C94 1.392 . S
C93 H116 0.930 . S
C94 C93 1.392 . S
C94 C95 1.398 . S
C94 H117 0.929 . S
C95 C94 1.398 . S
C95 C96 1.352 . S
C96 C95 1.352 . S
C96 C97 1.384 . S
C96 H118 0.930 . S
C97 C92 1.407 . S
C97 C96 1.384 . S
C97 H119 0.929 . S
C98 O108 1.241 . S
C98 O109 1.273 . S
C99 O110 1.251 . S
C99 O111 1.268 1_545 S
O100 Nd80 2.500 1_556 S
O100 C82 1.258 . S
O101 Nd80 2.492 1_556 S
O101 C82 1.239 . S
O102 Nd80 2.487 1_545 S
O102 C89 1.241 . S
O103 Nd80 2.682 1_545 S
O103 Nd81 2.414 1_554 S
O103 C89 1.273 . S
O104 Nd80 2.410 1_556 S
O104 C90 1.251 . S
O105 Nd81 2.424 . S
O105 C90 1.268 1_545 S
O106 Nd81 2.500 1_554 S
O106 C91 1.258 . S
O107 Nd81 2.492 1_554 S
O107 C91 1.239 . S
O108 Nd81 2.487 1_565 S
O108 C98 1.241 . S
O109 Nd80 2.414 1_556 S
O109 Nd81 2.682 1_565 S
O109 C98 1.273 . S
O110 Nd81 2.410 1_554 S
O110 C99 1.251 . S
O111 Nd80 2.424 . S
O111 C99 1.268 1_565 S
H112 C84 0.930 . S
H113 C85 0.929 . S
H114 C87 0.930 . S
H115 C88 0.929 . S
H116 C93 0.930 . S
H117 C94 0.929 . S
H118 C96 0.930 . S
H119 C97 0.929 . S
Nd120 C122 2.836 . S
Nd120 O140 2.500 . S
Nd120 O141 2.492 . S
Nd120 O142 2.487 . S
Nd120 O143 2.682 . S
Nd120 O144 2.410 . S
Nd120 O149 2.414 . S
Nd120 O151 2.424 . S
Nd121 C131 2.836 . S
Nd121 O143 2.414 . S
Nd121 O145 2.424 . S
Nd121 O146 2.500 . S
Nd121 O147 2.492 . S
Nd121 O148 2.487 . S
Nd121 O149 2.682 . S
Nd121 O150 2.410 . S
C122 Nd120 2.836 . S
C122 C123 1.498 . S
C122 O140 1.258 . S
C122 O141 1.239 . S
C123 C122 1.498 . S
C123 C124 1.366 . S
C123 C128 1.407 . S
C124 C123 1.366 . S
C124 C125 1.392 . S
C124 H152 0.930 . S
C125 C124 1.392 . S
C125 C126 1.398 . S
C125 H153 0.929 1_554 S
C126 C125 1.398 . S
C126 C127 1.352 . S
C127 C126 1.352 . S
C127 C128 1.384 . S
C127 H154 0.930 . S
C128 C123 1.407 . S
C128 C127 1.384 . S
C128 H155 0.929 . S
C129 O142 1.241 . S
C129 O143 1.273 . S
C130 O144 1.251 . S
C130 O145 1.268 . S
C131 Nd121 2.836 . S
C131 C132 1.498 . S
C131 O146 1.258 . S
C131 O147 1.239 . S
C132 C131 1.498 . S
C132 C133 1.366 . S
C132 C137 1.407 . S
C133 C132 1.366 . S
C133 C134 1.392 . S
C133 H156 0.930 . S
C134 C133 1.392 . S
C134 C135 1.398 . S
C134 H157 0.929 . S
C135 C134 1.398 . S
C135 C136 1.352 . S
C136 C135 1.352 . S
C136 C137 1.384 . S
C136 H158 0.930 . S
C137 C132 1.407 . S
C137 C136 1.384 . S
C137 H159 0.929 . S
C138 O148 1.241 . S
C138 O149 1.273 . S
C139 O150 1.251 . S
C139 O151 1.268 . S
O140 Nd120 2.500 . S
O140 C122 1.258 . S
O141 Nd120 2.492 . S
O141 C122 1.239 . S
O142 Nd120 2.487 . S
O142 C129 1.241 . S
O143 Nd120 2.682 . S
O143 Nd121 2.414 . S
O143 C129 1.273 . S
O144 Nd120 2.410 . S
O144 C130 1.251 . S
O145 Nd121 2.424 . S
O145 C130 1.268 . S
O146 Nd121 2.500 . S
O146 C131 1.258 . S
O147 Nd121 2.492 . S
O147 C131 1.239 . S
O148 Nd121 2.487 . S
O148 C138 1.241 . S
O149 Nd120 2.414 . S
O149 Nd121 2.682 . S
O149 C138 1.273 . S
O150 Nd121 2.410 . S
O150 C139 1.251 . S
O151 Nd120 2.424 . S
O151 C139 1.268 . S
H152 C124 0.930 . S
H153 C125 0.929 1_556 S
H154 C127 0.930 . S
H155 C128 0.929 . S
H156 C133 0.930 . S
H157 C134 0.929 . S
H158 C136 0.930 . S
H159 C137 0.929 . S
Nd160 C162 2.836 . S
Nd160 O180 2.500 . S
Nd160 O181 2.492 . S
Nd160 O182 2.487 . S
Nd160 O183 2.682 . S
Nd160 O184 2.410 . S
Nd160 O189 2.414 . S
Nd160 O191 2.424 . S
Nd161 C171 2.836 . S
Nd161 O183 2.414 . S
Nd161 O185 2.424 . S
Nd161 O186 2.500 . S
Nd161 O187 2.492 . S
Nd161 O188 2.487 . S
Nd161 O189 2.682 . S
Nd161 O190 2.410 . S
C162 Nd160 2.836 . S
C162 C163 1.498 . S
C162 O180 1.258 . S
C162 O181 1.239 . S
C163 C162 1.498 . S
C163 C164 1.366 . S
C163 C168 1.407 . S
C164 C163 1.366 . S
C164 C165 1.392 . S
C164 H192 0.930 . S
C165 C164 1.392 . S
C165 C166 1.398 . S
C165 H193 0.929 1_554 S
C166 C165 1.398 . S
C166 C167 1.352 . S
C167 C166 1.352 . S
C167 C168 1.384 . S
C167 H194 0.930 . S
C168 C163 1.407 . S
C168 C167 1.384 . S
C168 H195 0.929 . S
C169 O182 1.241 . S
C169 O183 1.273 . S
C170 O184 1.251 . S
C170 O185 1.268 . S
C171 Nd161 2.836 . S
C171 C172 1.498 . S
C171 O186 1.258 . S
C171 O187 1.239 . S
C172 C171 1.498 . S
C172 C173 1.366 . S
C172 C177 1.407 . S
C173 C172 1.366 . S
C173 C174 1.392 . S
C173 H196 0.930 . S
C174 C173 1.392 . S
C174 C175 1.398 . S
C174 H197 0.929 . S
C175 C174 1.398 . S
C175 C176 1.352 . S
C176 C175 1.352 . S
C176 C177 1.384 . S
C176 H198 0.930 . S
C177 C172 1.407 . S
C177 C176 1.384 . S
C177 H199 0.929 . S
C178 O188 1.241 . S
C178 O189 1.273 . S
C179 O190 1.251 . S
C179 O191 1.268 . S
O180 Nd160 2.500 . S
O180 C162 1.258 . S
O181 Nd160 2.492 . S
O181 C162 1.239 . S
O182 Nd160 2.487 . S
O182 C169 1.241 . S
O183 Nd160 2.682 . S
O183 Nd161 2.414 . S
O183 C169 1.273 . S
O184 Nd160 2.410 . S
O184 C170 1.251 . S
O185 Nd161 2.424 . S
O185 C170 1.268 . S
O186 Nd161 2.500 . S
O186 C171 1.258 . S
O187 Nd161 2.492 . S
O187 C171 1.239 . S
O188 Nd161 2.487 . S
O188 C178 1.241 . S
O189 Nd160 2.414 . S
O189 Nd161 2.682 . S
O189 C178 1.273 . S
O190 Nd161 2.410 . S
O190 C179 1.251 . S
O191 Nd160 2.424 . S
O191 C179 1.268 . S
H192 C164 0.930 . S
H193 C165 0.929 1_556 S
H194 C167 0.930 . S
H195 C168 0.929 . S
H196 C173 0.930 . S
H197 C174 0.929 . S
H198 C176 0.930 . S
H199 C177 0.929 . S
Nd200 C202 2.836 . S
Nd200 O220 2.500 . S
Nd200 O221 2.492 . S
Nd200 O222 2.487 . S
Nd200 O223 2.682 . S
Nd200 O224 2.410 . S
Nd200 O229 2.414 . S
Nd200 O231 2.424 . S
Nd201 C211 2.836 . S
Nd201 O223 2.414 . S
Nd201 O225 2.424 . S
Nd201 O226 2.500 . S
Nd201 O227 2.492 . S
Nd201 O228 2.487 . S
Nd201 O229 2.682 . S
Nd201 O230 2.410 . S
C202 Nd200 2.836 . S
C202 C203 1.498 . S
C202 O220 1.258 . S
C202 O221 1.239 . S
C203 C202 1.498 . S
C203 C204 1.366 . S
C203 C208 1.407 . S
C204 C203 1.366 . S
C204 C205 1.392 . S
C204 H232 0.930 . S
C205 C204 1.392 . S
C205 C206 1.398 . S
C205 H233 0.929 . S
C206 C205 1.398 . S
C206 C207 1.352 . S
C207 C206 1.352 . S
C207 C208 1.384 . S
C207 H234 0.930 . S
C208 C203 1.407 . S
C208 C207 1.384 . S
C208 H235 0.929 . S
C209 O222 1.241 . S
C209 O223 1.273 . S
C210 O224 1.251 . S
C210 O225 1.268 . S
C211 Nd201 2.836 . S
C211 C212 1.498 . S
C211 O226 1.258 . S
C211 O227 1.239 . S
C212 C211 1.498 . S
C212 C213 1.366 . S
C212 C217 1.407 . S
C213 C212 1.366 . S
C213 C214 1.392 . S
C213 H236 0.930 . S
C214 C213 1.392 . S
C214 C215 1.398 . S
C214 H237 0.929 1_556 S
C215 C214 1.398 . S
C215 C216 1.352 . S
C216 C215 1.352 . S
C216 C217 1.384 . S
C216 H238 0.930 . S
C217 C212 1.407 . S
C217 C216 1.384 . S
C217 H239 0.929 . S
C218 O228 1.241 . S
C218 O229 1.273 . S
C219 O230 1.251 . S
C219 O231 1.268 . S
O220 Nd200 2.500 . S
O220 C202 1.258 . S
O221 Nd200 2.492 . S
O221 C202 1.239 . S
O222 Nd200 2.487 . S
O222 C209 1.241 . S
O223 Nd200 2.682 . S
O223 Nd201 2.414 . S
O223 C209 1.273 . S
O224 Nd200 2.410 . S
O224 C210 1.251 . S
O225 Nd201 2.424 . S
O225 C210 1.268 . S
O226 Nd201 2.500 . S
O226 C211 1.258 . S
O227 Nd201 2.492 . S
O227 C211 1.239 . S
O228 Nd201 2.487 . S
O228 C218 1.241 . S
O229 Nd200 2.414 . S
O229 Nd201 2.682 . S
O229 C218 1.273 . S
O230 Nd201 2.410 . S
O230 C219 1.251 . S
O231 Nd200 2.424 . S
O231 C219 1.268 . S
H232 C204 0.930 . S
H233 C205 0.929 . S
H234 C207 0.930 . S
H235 C208 0.929 . S
H236 C213 0.930 . S
H237 C214 0.929 1_554 S
H238 C216 0.930 . S
H239 C217 0.929 . S
Nd240 C242 2.836 1_554 S
Nd240 O260 2.500 1_554 S
Nd240 O261 2.492 1_554 S
Nd240 O262 2.487 . S
Nd240 O263 2.682 . S
Nd240 O264 2.410 1_554 S
Nd240 O269 2.414 1_554 S
Nd240 O271 2.424 . S
Nd241 C251 2.836 1_556 S
Nd241 O263 2.414 1_556 S
Nd241 O265 2.424 . S
Nd241 O266 2.500 1_556 S
Nd241 O267 2.492 1_556 S
Nd241 O268 2.487 . S
Nd241 O269 2.682 . S
Nd241 O270 2.410 1_556 S
C242 Nd240 2.836 1_556 S
C242 C243 1.498 . S
C242 O260 1.258 . S
C242 O261 1.239 . S
C243 C242 1.498 . S
C243 C244 1.366 . S
C243 C248 1.407 . S
C244 C243 1.366 . S
C244 C245 1.392 . S
C244 H272 0.930 . S
C245 C244 1.392 . S
C245 C246 1.398 . S
C245 H273 0.929 . S
C246 C245 1.398 . S
C246 C247 1.352 . S
C247 C246 1.352 . S
C247 C248 1.384 . S
C247 H274 0.930 . S
C248 C243 1.407 . S
C248 C247 1.384 . S
C248 H275 0.929 . S
C249 O262 1.241 . S
C249 O263 1.273 . S
C250 O264 1.251 . S
C250 O265 1.268 . S
C251 Nd241 2.836 1_554 S
C251 C252 1.498 . S
C251 O266 1.258 . S
C251 O267 1.239 . S
C252 C251 1.498 . S
C252 C253 1.366 . S
C252 C257 1.407 . S
C253 C252 1.366 . S
C253 C254 1.392 . S
C253 H276 0.930 . S
C254 C253 1.392 . S
C254 C255 1.398 . S
C254 H277 0.929 . S
C255 C254 1.398 . S
C255 C256 1.352 . S
C256 C255 1.352 . S
C256 C257 1.384 . S
C256 H278 0.930 . S
C257 C252 1.407 . S
C257 C256 1.384 . S
C257 H279 0.929 . S
C258 O268 1.241 . S
C258 O269 1.273 . S
C259 O270 1.251 . S
C259 O271 1.268 . S
O260 Nd240 2.500 1_556 S
O260 C242 1.258 . S
O261 Nd240 2.492 1_556 S
O261 C242 1.239 . S
O262 Nd240 2.487 . S
O262 C249 1.241 . S
O263 Nd240 2.682 . S
O263 Nd241 2.414 1_554 S
O263 C249 1.273 . S
O264 Nd240 2.410 1_556 S
O264 C250 1.251 . S
O265 Nd241 2.424 . S
O265 C250 1.268 . S
O266 Nd241 2.500 1_554 S
O266 C251 1.258 . S
O267 Nd241 2.492 1_554 S
O267 C251 1.239 . S
O268 Nd241 2.487 . S
O268 C258 1.241 . S
O269 Nd240 2.414 1_556 S
O269 Nd241 2.682 . S
O269 C258 1.273 . S
O270 Nd241 2.410 1_554 S
O270 C259 1.251 . S
O271 Nd240 2.424 . S
O271 C259 1.268 . S
H272 C244 0.930 . S
H273 C245 0.929 . S
H274 C247 0.930 . S
H275 C248 0.929 . S
H276 C253 0.930 . S
H277 C254 0.929 . S
H278 C256 0.930 . S
H279 C257 0.929 . S
Nd280 C282 2.836 . S
Nd280 O300 2.500 . S
Nd280 O301 2.492 . S
Nd280 O302 2.487 . S
Nd280 O303 2.682 . S
Nd280 O304 2.410 . S
Nd280 O309 2.414 1_655 S
Nd280 O311 2.424 . S
Nd281 C291 2.836 . S
Nd281 O303 2.414 1_455 S
Nd281 O305 2.424 . S
Nd281 O306 2.500 . S
Nd281 O307 2.492 . S
Nd281 O308 2.487 . S
Nd281 O309 2.682 . S
Nd281 O310 2.410 . S
C282 Nd280 2.836 . S
C282 C283 1.498 . S
C282 O300 1.258 . S
C282 O301 1.239 . S
C283 C282 1.498 . S
C283 C284 1.366 . S
C283 C288 1.407 . S
C284 C283 1.366 . S
C284 C285 1.392 . S
C284 H312 0.930 . S
C285 C284 1.392 . S
C285 C286 1.398 . S
C285 H313 0.929 . S
C286 C285 1.398 . S
C286 C287 1.352 . S
C287 C286 1.352 . S
C287 C288 1.384 . S
C287 H314 0.930 . S
C288 C283 1.407 . S
C288 C287 1.384 . S
C288 H315 0.929 . S
C289 O302 1.241 . S
C289 O303 1.273 . S
C290 O304 1.251 . S
C290 O305 1.268 1_655 S
C291 Nd281 2.836 . S
C291 C292 1.498 . S
C291 O306 1.258 . S
C291 O307 1.239 . S
C292 C291 1.498 . S
C292 C293 1.366 . S
C292 C297 1.407 . S
C293 C292 1.366 . S
C293 C294 1.392 . S
C293 H316 0.930 . S
C294 C293 1.392 . S
C294 C295 1.398 . S
C294 H317 0.929 . S
C295 C294 1.398 . S
C295 C296 1.352 . S
C296 C295 1.352 . S
C296 C297 1.384 . S
C296 H318 0.930 . S
C297 C292 1.407 . S
C297 C296 1.384 . S
C297 H319 0.929 . S
C298 O308 1.241 . S
C298 O309 1.273 . S
C299 O310 1.251 . S
C299 O311 1.268 1_455 S
O300 Nd280 2.500 . S
O300 C282 1.258 . S
O301 Nd280 2.492 . S
O301 C282 1.239 . S
O302 Nd280 2.487 . S
O302 C289 1.241 . S
O303 Nd280 2.682 . S
O303 Nd281 2.414 1_655 S
O303 C289 1.273 . S
O304 Nd280 2.410 . S
O304 C290 1.251 . S
O305 Nd281 2.424 . S
O305 C290 1.268 1_455 S
O306 Nd281 2.500 . S
O306 C291 1.258 . S
O307 Nd281 2.492 . S
O307 C291 1.239 . S
O308 Nd281 2.487 . S
O308 C298 1.241 . S
O309 Nd280 2.414 1_455 S
O309 Nd281 2.682 . S
O309 C298 1.273 . S
O310 Nd281 2.410 . S
O310 C299 1.251 . S
O311 Nd280 2.424 . S
O311 C299 1.268 1_655 S
H312 C284 0.930 . S
H313 C285 0.929 . S
H314 C287 0.930 . S
H315 C288 0.929 . S
H316 C293 0.930 . S
H317 C294 0.929 . S
H318 C296 0.930 . S
H319 C297 0.929 . S
H320 C326 0.930 . S
H321 C329 0.930 . S
H322 C330 0.930 . S
H323 C331 0.930 . S
H324 C334 0.930 . S
H325 C335 0.930 . S
C326 H320 0.930 . S
C326 C327 1.355 . S
C326 C328 1.415 . S
C327 C326 1.355 . S
C327 C329 1.419 . S
C328 C326 1.415 . S
C328 C333 1.425 . S
C328 C335 1.409 . S
C329 H321 0.930 . S
C329 C327 1.419 . S
C329 C330 1.362 . S
C330 H322 0.930 . S
C330 C329 1.362 . S
C330 C333 1.409 . S
C331 H323 0.930 . S
C331 C332 1.355 . S
C331 C333 1.415 . S
C332 C331 1.355 . S
C332 C334 1.419 . S
C333 C328 1.425 . S
C333 C330 1.409 . S
C333 C331 1.415 . S
C334 H324 0.930 . S
C334 C332 1.419 . S
C334 C335 1.362 . S
C335 H325 0.930 . S
C335 C328 1.409 . S
C335 C334 1.362 . S
H336 C342 0.930 . S
H337 C345 0.930 . S
H338 C346 0.930 . S
H339 C347 0.930 . S
H340 C350 0.930 . S
H341 C351 0.930 . S
C342 H336 0.930 . S
C342 C343 1.355 . S
C342 C344 1.415 . S
C343 C342 1.355 . S
C343 C345 1.419 . S
C344 C342 1.415 . S
C344 C349 1.425 . S
C344 C351 1.409 . S
C345 H337 0.930 . S
C345 C343 1.419 . S
C345 C346 1.362 . S
C346 H338 0.930 . S
C346 C345 1.362 . S
C346 C349 1.409 . S
C347 H339 0.930 . S
C347 C348 1.355 . S
C347 C349 1.415 . S
C348 C347 1.355 . S
C348 C350 1.419 . S
C349 C344 1.425 . S
C349 C346 1.409 . S
C349 C347 1.415 . S
C350 H340 0.930 . S
C350 C348 1.419 . S
C350 C351 1.362 . S
C351 H341 0.930 . S
C351 C344 1.409 . S
C351 C350 1.362 . S
H352 C358 0.930 . S
H353 C361 0.930 . S
H354 C362 0.930 . S
H355 C363 0.930 . S
H356 C366 0.930 . S
H357 C367 0.930 . S
C358 H352 0.930 . S
C358 C359 1.355 . S
C358 C360 1.415 . S
C359 C358 1.355 . S
C359 C361 1.419 . S
C360 C358 1.415 . S
C360 C365 1.425 . S
C360 C367 1.409 . S
C361 H353 0.930 . S
C361 C359 1.419 . S
C361 C362 1.362 . S
C362 H354 0.930 . S
C362 C361 1.362 . S
C362 C365 1.409 . S
C363 H355 0.930 . S
C363 C364 1.355 . S
C363 C365 1.415 . S
C364 C363 1.355 . S
C364 C366 1.419 . S
C365 C360 1.425 . S
C365 C362 1.409 . S
C365 C363 1.415 . S
C366 H356 0.930 . S
C366 C364 1.419 . S
C366 C367 1.362 . S
C367 H357 0.930 . S
C367 C360 1.409 . S
C367 C366 1.362 . S
H368 C374 0.930 . S
H369 C377 0.930 . S
H370 C378 0.930 . S
H371 C379 0.930 . S
H372 C382 0.930 . S
H373 C383 0.930 . S
C374 H368 0.930 . S
C374 C375 1.355 . S
C374 C376 1.415 . S
C375 C374 1.355 . S
C375 C377 1.419 1_554 S
C376 C374 1.415 . S
C376 C381 1.425 1_554 S
C376 C383 1.409 . S
C377 H369 0.930 . S
C377 C375 1.419 1_556 S
C377 C378 1.362 . S
C378 H370 0.930 . S
C378 C377 1.362 . S
C378 C381 1.409 . S
C379 H371 0.930 . S
C379 C380 1.355 . S
C379 C381 1.415 . S
C380 C379 1.355 . S
C380 C382 1.419 1_556 S
C381 C376 1.425 1_556 S
C381 C378 1.409 . S
C381 C379 1.415 . S
C382 H372 0.930 . S
C382 C380 1.419 1_554 S
C382 C383 1.362 . S
C383 H373 0.930 . S
C383 C376 1.409 . S
C383 C382 1.362 . S
H384 C390 0.930 . S
H385 C393 0.930 . S
H386 C394 0.930 . S
H387 C395 0.930 . S
H388 C398 0.930 . S
H389 C399 0.930 . S
C390 H384 0.930 . S
C390 C391 1.355 . S
C390 C392 1.415 . S
C391 C390 1.355 . S
C391 C393 1.419 . S
C392 C390 1.415 . S
C392 C397 1.425 . S
C392 C399 1.409 . S
C393 H385 0.930 . S
C393 C391 1.419 . S
C393 C394 1.362 . S
C394 H386 0.930 . S
C394 C393 1.362 . S
C394 C397 1.409 . S
C395 H387 0.930 . S
C395 C396 1.355 . S
C395 C397 1.415 . S
C396 C395 1.355 . S
C396 C398 1.419 . S
C397 C392 1.425 . S
C397 C394 1.409 . S
C397 C395 1.415 . S
C398 H388 0.930 . S
C398 C396 1.419 . S
C398 C399 1.362 . S
C399 H389 0.930 . S
C399 C392 1.409 . S
C399 C398 1.362 . S
H400 C406 0.930 . S
H401 C409 0.930 . S
H402 C410 0.930 . S
H403 C411 0.930 . S
H404 C414 0.930 . S
H405 C415 0.930 . S
C406 H400 0.930 . S
C406 C407 1.355 . S
C406 C408 1.415 . S
C407 C406 1.355 . S
C407 C409 1.419 . S
C408 C406 1.415 . S
C408 C413 1.425 . S
C408 C415 1.409 . S
C409 H401 0.930 . S
C409 C407 1.419 . S
C409 C410 1.362 . S
C410 H402 0.930 . S
C410 C409 1.362 . S
C410 C413 1.409 . S
C411 H403 0.930 . S
C411 C412 1.355 . S
C411 C413 1.415 . S
C412 C411 1.355 . S
C412 C414 1.419 . S
C413 C408 1.425 . S
C413 C410 1.409 . S
C413 C411 1.415 . S
C414 H404 0.930 . S
C414 C412 1.419 . S
C414 C415 1.362 . S
C415 H405 0.930 . S
C415 C408 1.409 . S
C415 C414 1.362 . S
H416 C422 0.930 . S
H417 C425 0.930 . S
H418 C426 0.930 . S
H419 C427 0.930 . S
H420 C430 0.930 . S
H421 C431 0.930 . S
C422 H416 0.930 . S
C422 C423 1.355 . S
C422 C424 1.415 . S
C423 C422 1.355 . S
C423 C425 1.419 . S
C424 C422 1.415 . S
C424 C429 1.425 . S
C424 C431 1.409 . S
C425 H417 0.930 . S
C425 C423 1.419 . S
C425 C426 1.362 . S
C426 H418 0.930 . S
C426 C425 1.362 . S
C426 C429 1.409 . S
C427 H419 0.930 . S
C427 C428 1.355 . S
C427 C429 1.415 . S
C428 C427 1.355 . S
C428 C430 1.419 . S
C429 C424 1.425 . S
C429 C426 1.409 . S
C429 C427 1.415 . S
C430 H420 0.930 . S
C430 C428 1.419 . S
C430 C431 1.362 . S
C431 H421 0.930 . S
C431 C424 1.409 . S
C431 C430 1.362 . S
H432 C438 0.930 . S
H433 C441 0.930 . S
H434 C442 0.930 . S
H435 C443 0.930 . S
H436 C446 0.930 . S
H437 C447 0.930 . S
C438 H432 0.930 . S
C438 C439 1.355 1_556 S
C438 C440 1.415 . S
C439 C438 1.355 1_554 S
C439 C441 1.419 . S
C440 C438 1.415 . S
C440 C445 1.425 1_556 S
C440 C447 1.409 . S
C441 H433 0.930 . S
C441 C439 1.419 . S
C441 C442 1.362 . S
C442 H434 0.930 . S
C442 C441 1.362 . S
C442 C445 1.409 . S
C443 H435 0.930 . S
C443 C444 1.355 1_554 S
C443 C445 1.415 . S
C444 C443 1.355 1_556 S
C444 C446 1.419 . S
C445 C440 1.425 1_554 S
C445 C442 1.409 . S
C445 C443 1.415 . S
C446 H436 0.930 . S
C446 C444 1.419 . S
C446 C447 1.362 . S
C447 H437 0.930 . S
C447 C440 1.409 . S
C447 C446 1.362 . S
H448 C454 0.930 . S
H449 C457 0.930 . S
H450 C458 0.930 . S
H451 C459 0.930 . S
H452 C462 0.930 . S
H453 C463 0.930 . S
C454 H448 0.930 . S
C454 C455 1.355 . S
C454 C456 1.415 . S
C455 C454 1.355 . S
C455 C457 1.419 . S
C456 C454 1.415 . S
C456 C461 1.425 . S
C456 C463 1.409 . S
C457 H449 0.930 . S
C457 C455 1.419 . S
C457 C458 1.362 . S
C458 H450 0.930 . S
C458 C457 1.362 . S
C458 C461 1.409 . S
C459 H451 0.930 . S
C459 C460 1.355 . S
C459 C461 1.415 . S
C460 C459 1.355 . S
C460 C462 1.419 . S
C461 C456 1.425 . S
C461 C458 1.409 . S
C461 C459 1.415 . S
C462 H452 0.930 . S
C462 C460 1.419 . S
C462 C463 1.362 . S
C463 H453 0.930 . S
C463 C456 1.409 . S
C463 C462 1.362 . S
H464 C470 0.930 . S
H465 C473 0.930 . S
H466 C474 0.930 . S
H467 C475 0.930 . S
H468 C478 0.930 . S
H469 C479 0.930 . S
C470 H464 0.930 . S
C470 C471 1.355 1_554 S
C470 C472 1.415 . S
C471 C470 1.355 1_556 S
C471 C473 1.419 . S
C472 C470 1.415 . S
C472 C477 1.425 1_554 S
C472 C479 1.409 . S
C473 H465 0.930 . S
C473 C471 1.419 . S
C473 C474 1.362 . S
C474 H466 0.930 . S
C474 C473 1.362 . S
C474 C477 1.409 . S
C475 H467 0.930 . S
C475 C476 1.355 1_556 S
C475 C477 1.415 . S
C476 C475 1.355 1_554 S
C476 C478 1.419 . S
C477 C472 1.425 1_556 S
C477 C474 1.409 . S
C477 C475 1.415 . S
C478 H468 0.930 . S
C478 C476 1.419 . S
C478 C479 1.362 . S
C479 H469 0.930 . S
C479 C472 1.409 . S
C479 C478 1.362 . S
H480 C486 0.930 . S
H481 C489 0.930 . S
H482 C490 0.930 . S
H483 C491 0.930 . S
H484 C494 0.930 . S
H485 C495 0.930 . S
C486 H480 0.930 . S
C486 C487 1.355 . S
C486 C488 1.415 . S
C487 C486 1.355 . S
C487 C489 1.419 . S
C488 C486 1.415 . S
C488 C493 1.425 . S
C488 C495 1.409 . S
C489 H481 0.930 . S
C489 C487 1.419 . S
C489 C490 1.362 . S
C490 H482 0.930 . S
C490 C489 1.362 . S
C490 C493 1.409 . S
C491 H483 0.930 . S
C491 C492 1.355 . S
C491 C493 1.415 . S
C492 C491 1.355 . S
C492 C494 1.419 . S
C493 C488 1.425 . S
C493 C490 1.409 . S
C493 C491 1.415 . S
C494 H484 0.930 . S
C494 C492 1.419 . S
C494 C495 1.362 . S
C495 H485 0.930 . S
C495 C488 1.409 . S
C495 C494 1.362 . S
H496 C502 0.930 . S
H497 C505 0.930 . S
H498 C506 0.930 . S
H499 C507 0.930 . S
H500 C510 0.930 . S
H501 C511 0.930 . S
C502 H496 0.930 . S
C502 C503 1.355 . S
C502 C504 1.415 . S
C503 C502 1.355 . S
C503 C505 1.419 . S
C504 C502 1.415 . S
C504 C509 1.425 . S
C504 C511 1.409 . S
C505 H497 0.930 . S
C505 C503 1.419 . S
C505 C506 1.362 . S
C506 H498 0.930 . S
C506 C505 1.362 . S
C506 C509 1.409 . S
C507 H499 0.930 . S
C507 C508 1.355 . S
C507 C509 1.415 . S
C508 C507 1.355 . S
C508 C510 1.419 . S
C509 C504 1.425 . S
C509 C506 1.409 . S
C509 C507 1.415 . S
C510 H500 0.930 . S
C510 C508 1.419 . S
C510 C511 1.362 . S
C511 H501 0.930 . S
C511 C504 1.409 . S
C511 C510 1.362 . S
H512 C518 0.930 . S
H513 C521 0.930 . S
H514 C522 0.930 . S
H515 C523 0.930 . S
H516 C526 0.930 . S
H517 C527 0.930 . S
C518 H512 0.930 . S
C518 C519 1.355 . S
C518 C520 1.415 . S
C519 C518 1.355 . S
C519 C521 1.419 . S
C520 C518 1.415 . S
C520 C525 1.425 . S
C520 C527 1.409 . S
C521 H513 0.930 . S
C521 C519 1.419 . S
C521 C522 1.362 . S
C522 H514 0.930 . S
C522 C521 1.362 . S
C522 C525 1.409 . S
C523 H515 0.930 . S
C523 C524 1.355 . S
C523 C525 1.415 . S
C524 C523 1.355 . S
C524 C526 1.419 . S
C525 C520 1.425 . S
C525 C522 1.409 . S
C525 C523 1.415 . S
C526 H516 0.930 . S
C526 C524 1.419 . S
C526 C527 1.362 . S
C527 H517 0.930 . S
C527 C520 1.409 . S
C527 C526 1.362 . S
H528 C534 0.930 . S
H529 C537 0.930 . S
H530 C538 0.930 . S
H531 C539 0.930 . S
H532 C542 0.930 . S
H533 C543 0.930 . S
C534 H528 0.930 . S
C534 C535 1.355 1_554 S
C534 C536 1.415 . S
C535 C534 1.355 1_556 S
C535 C537 1.419 . S
C536 C534 1.415 . S
C536 C541 1.425 1_554 S
C536 C543 1.409 . S
C537 H529 0.930 . S
C537 C535 1.419 . S
C537 C538 1.362 . S
C538 H530 0.930 . S
C538 C537 1.362 . S
C538 C541 1.409 . S
C539 H531 0.930 . S
C539 C540 1.355 1_556 S
C539 C541 1.415 . S
C540 C539 1.355 1_554 S
C540 C542 1.419 . S
C541 C536 1.425 1_556 S
C541 C538 1.409 . S
C541 C539 1.415 . S
C542 H532 0.930 . S
C542 C540 1.419 . S
C542 C543 1.362 . S
C543 H533 0.930 . S
C543 C536 1.409 . S
C543 C542 1.362 . S
H544 C550 0.930 . S
H545 C553 0.930 . S
H546 C554 0.930 . S
H547 C555 0.930 . S
H548 C558 0.930 . S
H549 C559 0.930 . S
C550 H544 0.930 . S
C550 C551 1.355 . S
C550 C552 1.415 . S
C551 C550 1.355 . S
C551 C553 1.419 . S
C552 C550 1.415 . S
C552 C557 1.425 . S
C552 C559 1.409 . S
C553 H545 0.930 . S
C553 C551 1.419 . S
C553 C554 1.362 . S
C554 H546 0.930 . S
C554 C553 1.362 . S
C554 C557 1.409 . S
C555 H547 0.930 . S
C555 C556 1.355 . S
C555 C557 1.415 . S
C556 C555 1.355 . S
C556 C558 1.419 . S
C557 C552 1.425 . S
C557 C554 1.409 . S
C557 C555 1.415 . S
C558 H548 0.930 . S
C558 C556 1.419 . S
C558 C559 1.362 . S
C559 H549 0.930 . S
C559 C552 1.409 . S
C559 C558 1.362 . S
H560 C566 0.930 . S
H561 C569 0.930 . S
H562 C570 0.930 . S
H563 C571 0.930 . S
H564 C574 0.930 . S
H565 C575 0.930 . S
C566 H560 0.930 . S
C566 C567 1.355 . S
C566 C568 1.415 . S
C567 C566 1.355 . S
C567 C569 1.419 . S
C568 C566 1.415 . S
C568 C573 1.425 . S
C568 C575 1.409 . S
C569 H561 0.930 . S
C569 C567 1.419 . S
C569 C570 1.362 . S
C570 H562 0.930 . S
C570 C569 1.362 . S
C570 C573 1.409 . S
C571 H563 0.930 . S
C571 C572 1.355 . S
C571 C573 1.415 . S
C572 C571 1.355 . S
C572 C574 1.419 . S
C573 C568 1.425 . S
C573 C570 1.409 . S
C573 C571 1.415 . S
C574 H564 0.930 . S
C574 C572 1.419 . S
C574 C575 1.362 . S
C575 H565 0.930 . S
C575 C568 1.409 . S
C575 C574 1.362 . S
H576 C582 0.929 . S
H577 C585 0.930 . S
H578 C586 0.930 . S
H579 C587 0.929 1_565 S
H580 C590 0.930 . S
H581 C591 0.930 . S
C582 H576 0.929 . S
C582 C583 1.356 1_545 S
C582 C584 1.414 . S
C583 C582 1.356 1_565 S
C583 C585 1.419 1_655 S
C584 C582 1.414 . S
C584 C589 1.425 1_646 S
C584 C591 1.409 1_556 S
C585 H577 0.930 . S
C585 C583 1.419 1_455 S
C585 C586 1.362 . S
C586 H578 0.930 . S
C586 C585 1.362 . S
C586 C589 1.409 1_556 S
C587 H579 0.929 1_545 S
C587 C588 1.356 . S
C587 C589 1.414 1_545 S
C588 C587 1.356 . S
C588 C590 1.419 1_455 S
C589 C584 1.425 1_464 S
C589 C586 1.409 1_554 S
C589 C587 1.414 1_565 S
C590 H580 0.930 . S
C590 C588 1.419 1_655 S
C590 C591 1.362 . S
C591 H581 0.930 . S
C591 C584 1.409 1_554 S
C591 C590 1.362 . S
H592 C598 0.930 . S
H593 C601 0.930 . S
H594 C602 0.930 . S
H595 C603 0.930 . S
H596 C606 0.930 . S
H597 C607 0.930 . S
C598 H592 0.930 . S
C598 C599 1.355 . S
C598 C600 1.415 . S
C599 C598 1.355 . S
C599 C601 1.419 . S
C600 C598 1.415 . S
C600 C605 1.425 . S
C600 C607 1.409 . S
C601 H593 0.930 . S
C601 C599 1.419 . S
C601 C602 1.362 . S
C602 H594 0.930 . S
C602 C601 1.362 . S
C602 C605 1.409 . S
C603 H595 0.930 . S
C603 C604 1.355 . S
C603 C605 1.415 . S
C604 C603 1.355 . S
C604 C606 1.419 . S
C605 C600 1.425 . S
C605 C602 1.409 . S
C605 C603 1.415 . S
C606 H596 0.930 . S
C606 C604 1.419 . S
C606 C607 1.362 . S
C607 H597 0.930 . S
C607 C600 1.409 . S
C607 C606 1.362 . S
H608 C614 0.930 . S
H609 C617 0.930 . S
H610 C618 0.930 . S
H611 C619 0.930 . S
H612 C622 0.930 . S
H613 C623 0.930 . S
C614 H608 0.930 . S
C614 C615 1.355 . S
C614 C616 1.415 . S
C615 C614 1.355 . S
C615 C617 1.419 1_565 S
C616 C614 1.415 . S
C616 C621 1.425 1_565 S
C616 C623 1.409 . S
C617 H609 0.930 . S
C617 C615 1.419 1_545 S
C617 C618 1.362 . S
C618 H610 0.930 . S
C618 C617 1.362 . S
C618 C621 1.409 . S
C619 H611 0.930 . S
C619 C620 1.355 . S
C619 C621 1.415 . S
C620 C619 1.355 . S
C620 C622 1.419 1_545 S
C621 C616 1.425 1_545 S
C621 C618 1.409 . S
C621 C619 1.415 . S
C622 H612 0.930 . S
C622 C620 1.419 1_565 S
C622 C623 1.362 . S
C623 H613 0.930 . S
C623 C616 1.409 . S
C623 C622 1.362 . S
H624 C630 0.930 . S
H625 C633 0.930 . S
H626 C634 0.930 . S
H627 C635 0.930 . S
H628 C638 0.930 . S
H629 C639 0.930 . S
C630 H624 0.930 . S
C630 C631 1.355 . S
C630 C632 1.415 . S
C631 C630 1.355 . S
C631 C633 1.419 . S
C632 C630 1.415 . S
C632 C637 1.425 . S
C632 C639 1.409 . S
C633 H625 0.930 . S
C633 C631 1.419 . S
C633 C634 1.362 . S
C634 H626 0.930 . S
C634 C633 1.362 . S
C634 C637 1.409 . S
C635 H627 0.930 . S
C635 C636 1.355 . S
C635 C637 1.415 . S
C636 C635 1.355 . S
C636 C638 1.419 . S
C637 C632 1.425 . S
C637 C634 1.409 . S
C637 C635 1.415 . S
C638 H628 0.930 . S
C638 C636 1.419 . S
C638 C639 1.362 . S
C639 H629 0.930 . S
C639 C632 1.409 . S
C639 C638 1.362 . S
H640 C646 0.930 . S
H641 C649 0.930 . S
H642 C650 0.930 . S
H643 C651 0.930 . S
H644 C654 0.930 . S
H645 C655 0.930 . S
C646 H640 0.930 . S
C646 C647 1.355 . S
C646 C648 1.415 . S
C647 C646 1.355 . S
C647 C649 1.419 . S
C648 C646 1.415 . S
C648 C653 1.425 . S
C648 C655 1.409 . S
C649 H641 0.930 . S
C649 C647 1.419 . S
C649 C650 1.362 . S
C650 H642 0.930 . S
C650 C649 1.362 . S
C650 C653 1.409 . S
C651 H643 0.930 . S
C651 C652 1.355 . S
C651 C653 1.415 . S
C652 C651 1.355 . S
C652 C654 1.419 . S
C653 C648 1.425 . S
C653 C650 1.409 . S
C653 C651 1.415 . S
C654 H644 0.930 . S
C654 C652 1.419 . S
C654 C655 1.362 . S
C655 H645 0.930 . S
C655 C648 1.409 . S
C655 C654 1.362 . S
H656 C662 0.930 . S
H657 C665 0.930 . S
H658 C666 0.930 . S
H659 C667 0.930 . S
H660 C670 0.930 . S
H661 C671 0.930 . S
C662 H656 0.930 . S
C662 C663 1.355 . S
C662 C664 1.415 . S
C663 C662 1.355 . S
C663 C665 1.419 . S
C664 C662 1.415 . S
C664 C669 1.425 . S
C664 C671 1.409 . S
C665 H657 0.930 . S
C665 C663 1.419 . S
C665 C666 1.362 . S
C666 H658 0.930 . S
C666 C665 1.362 . S
C666 C669 1.409 . S
C667 H659 0.930 . S
C667 C668 1.355 . S
C667 C669 1.415 . S
C668 C667 1.355 . S
C668 C670 1.419 . S
C669 C664 1.425 . S
C669 C666 1.409 . S
C669 C667 1.415 . S
C670 H660 0.930 . S
C670 C668 1.419 . S
C670 C671 1.362 . S
C671 H661 0.930 . S
C671 C664 1.409 . S
C671 C670 1.362 . S
H672 C678 0.930 . S
H673 C681 0.930 . S
H674 C682 0.930 . S
H675 C683 0.930 . S
H676 C686 0.930 . S
H677 C687 0.930 . S
C678 H672 0.930 . S
C678 C679 1.355 . S
C678 C680 1.415 . S
C679 C678 1.355 . S
C679 C681 1.419 . S
C680 C678 1.415 . S
C680 C685 1.425 . S
C680 C687 1.409 . S
C681 H673 0.930 . S
C681 C679 1.419 . S
C681 C682 1.362 . S
C682 H674 0.930 . S
C682 C681 1.362 . S
C682 C685 1.409 . S
C683 H675 0.930 . S
C683 C684 1.355 . S
C683 C685 1.415 . S
C684 C683 1.355 . S
C684 C686 1.419 . S
C685 C680 1.425 . S
C685 C682 1.409 . S
C685 C683 1.415 . S
C686 H676 0.930 . S
C686 C684 1.419 . S
C686 C687 1.362 . S
C687 H677 0.930 . S
C687 C680 1.409 . S
C687 C686 1.362 . S
H688 C694 0.930 . S
H689 C697 0.930 . S
H690 C698 0.930 . S
H691 C699 0.930 . S
H692 C702 0.930 . S
H693 C703 0.930 . S
C694 H688 0.930 . S
C694 C695 1.355 1_655 S
C694 C696 1.415 . S
C695 C694 1.355 1_455 S
C695 C697 1.419 . S
C696 C694 1.415 . S
C696 C701 1.425 1_656 S
C696 C703 1.409 1_556 S
C697 H689 0.930 . S
C697 C695 1.419 . S
C697 C698 1.362 . S
C698 H690 0.930 . S
C698 C697 1.362 . S
C698 C701 1.409 1_556 S
C699 H691 0.930 . S
C699 C700 1.355 1_455 S
C699 C701 1.415 . S
C700 C699 1.355 1_655 S
C700 C702 1.419 . S
C701 C696 1.425 1_454 S
C701 C698 1.409 1_554 S
C701 C699 1.415 . S
C702 H692 0.930 . S
C702 C700 1.419 . S
C702 C703 1.362 . S
C703 H693 0.930 . S
C703 C696 1.409 1_554 S
C703 C702 1.362 . S
C327 C6 1.661 . S
C332 C129 1.666 . S
C343 C9 1.705 . S
C348 C46 1.718 . S
C359 C49 1.730 . S
C364 C86 1.689 . S
C375 C89 1.669 . S
C380 C126 1.671 1_556 S
C391 C15 1.692 . S
C396 C218 1.678 . S
C407 C18 1.669 . S
C412 C175 1.670 . S
C423 C178 1.730 . S
C428 C95 1.690 . S
C439 C215 1.712 1_554 S
C444 C98 1.697 . S
C455 C246 1.698 . S
C460 C209 1.730 . S
C471 C166 1.709 1_556 S
C476 C249 1.687 . S
C487 C286 1.660 . S
C492 C169 1.673 . S
C503 C206 1.692 . S
C508 C289 1.731 . S
C519 C138 1.730 . S
C524 C255 1.690 . S
C535 C258 1.671 . S
C540 C55 1.687 1_554 S
C551 C58 1.688 . S
C556 C295 1.708 . S
C567 C135 1.706 . S
C572 C298 1.683 . S
C583 C19 2.089 . S
C588 C10 2.089 . S
C599 C50 2.128 . S
C604 C59 2.128 1_554 S
C615 C90 2.081 . S
C620 C99 2.081 . S
C631 C130 2.129 1_556 S
C636 C139 2.129 . S
C647 C170 2.112 1_556 S
C652 C179 2.112 . S
C663 C210 2.128 . S
C668 C219 2.128 1_554 S
C679 C250 2.081 . S
C684 C259 2.081 . S
C695 C299 2.120 . S
C700 C290 2.120 . S
