# Generated by pormake.
# Topology wjl, (5)-cn, num edge types: 1
# Building blocks:
#     Node 0, Type 0, BuildingBlock: BEQFEK_clean_sbu_0, # of connection points: 5
#     Node 1, Type 0, BuildingBlock: BEQFEK_clean_sbu_0, # of connection points: 5
#     Node 2, Type 0, BuildingBlock: BEQFEK_clean_sbu_0, # of connection points: 5
#     Node 3, Type 0, BuildingBlock: BEQFEK_clean_sbu_0, # of connection points: 5
#     Node 4, Type 0, BuildingBlock: BEQFEK_clean_sbu_0, # of connection points: 5
#     Node 5, Type 0, BuildingBlock: BEQFEK_clean_sbu_0, # of connection points: 5
#     Node 6, Type 0, BuildingBlock: BEQFEK_clean_sbu_0, # of connection points: 5
#     Node 7, Type 0, BuildingBlock: BEQFEK_clean_sbu_0, # of connection points: 5
#     Node 8, Type 0, BuildingBlock: BEQFEK_clean_sbu_0, # of connection points: 5
#     Node 9, Type 0, BuildingBlock: BEQFEK_clean_sbu_0, # of connection points: 5
#     Node 10, Type 0, BuildingBlock: BEQFEK_clean_sbu_0, # of connection points: 5
#     Node 11, Type 0, BuildingBlock: BEQFEK_clean_sbu_0, # of connection points: 5
#     Edge 12, Type (0, 0), None
#     Edge 13, Type (0, 0), None
#     Edge 14, Type (0, 0), None
#     Edge 15, Type (0, 0), None
#     Edge 16, Type (0, 0), None
#     Edge 17, Type (0, 0), None
#     Edge 18, Type (0, 0), None
#     Edge 19, Type (0, 0), None
#     Edge 20, Type (0, 0), None
#     Edge 21, Type (0, 0), None
#     Edge 22, Type (0, 0), None
#     Edge 23, Type (0, 0), None
#     Edge 24, Type (0, 0), None
#     Edge 25, Type (0, 0), None
#     Edge 26, Type (0, 0), None
#     Edge 27, Type (0, 0), None
#     Edge 28, Type (0, 0), None
#     Edge 29, Type (0, 0), None
#     Edge 30, Type (0, 0), None
#     Edge 31, Type (0, 0), None
#     Edge 32, Type (0, 0), None
#     Edge 33, Type (0, 0), None
#     Edge 34, Type (0, 0), None
#     Edge 35, Type (0, 0), None
#     Edge 36, Type (0, 0), None
#     Edge 37, Type (0, 0), None
#     Edge 38, Type (0, 0), None
#     Edge 39, Type (0, 0), None
#     Edge 40, Type (0, 0), None
#     Edge 41, Type (0, 0), None
# Relax obj value: 0.555
# Max RMSD: 0.242
# Mean RMSD: 0.242
data_MOF--net-wjl--node1-BEQFEK_clean_sbu_0--edge1-none
_symmetry_space_group_name_H-M    P1
_symmetry_Int_Tables_number       1
_symmetry_cell_setting            triclinic
loop_
_symmetry_equiv_pos_as_xyz
'x, y, z'
_cell_length_a     13.729049
_cell_length_b     13.665171
_cell_length_c     43.617857
_cell_angle_alpha  89.840276
_cell_angle_beta   90.016092
_cell_angle_gamma 120.43822
loop_
_atom_site_label
_atom_site_type_symbol
_atom_site_fract_x
_atom_site_fract_y
_atom_site_fract_z
_atom_type_partial_charge
Co0 Co 0.47122 0.08926 0.38219 0.0
Co1 Co 0.26862 -0.00224 0.33658 0.0
C2 C 0.48137 0.23217 0.33073 0.0
O3 O 0.53272 0.21641 0.35265 0.0
O4 O 0.3818 0.15531 0.32312 0.0
C5 C 0.68908 0.18154 0.40536 0.0
O6 O 0.71562 0.20199 0.37619 0.0
C7 C 0.16452 0.92688 0.27469 0.0
C8 C -0.01144 0.80502 0.28696 0.0
C9 C 0.05994 0.8499 0.2619 0.0
N10 N 0.15397 0.92859 0.30535 0.0
N11 N 0.04776 0.85634 0.31238 0.0
C12 C 0.27605 0.98056 0.25847 0.0
H13 H 0.2807 0.04476 0.24197 0.0
H14 H 0.34693 0.02152 0.275 0.0
H15 H 0.28401 0.91606 0.24504 0.0
C16 C 0.46558 0.87916 0.36559 0.0
N17 N 0.42148 0.94731 0.36421 0.0
N18 N 0.33911 0.90786 0.34402 0.0
C19 C 0.33017 0.81325 0.33134 0.0
C20 C 0.41274 0.79404 0.34393 0.0
C21 C 0.55887 0.8973 0.38693 0.0
H22 H 0.54832 0.929 0.40927 0.0
H23 H 0.64141 0.96052 0.37683 0.0
H24 H 0.55855 0.81718 0.39137 0.0
O25 O 0.35198 0.09692 0.40383 0.0
O26 O 0.19777 0.01932 0.37495 0.0
H27 H 0.1698 0.74858 0.30897 0.0
H28 H 0.22565 0.65536 0.30762 0.0
C29 C 0.24828 0.74553 0.30655 0.0
H30 H 0.287 0.78067 0.28388 0.0
H31 H 0.01966 0.83201 0.33473 0.0
O32 O 0.58623 0.12403 0.41303 0.0
C33 C 0.24994 0.06915 0.39948 0.0
Co34 Co 0.35925 0.48521 0.5493 0.0
Co35 Co 0.24858 0.28633 0.50253 0.0
C36 C 0.22787 0.49922 0.49908 0.0
O37 O 0.29507 0.55 0.52102 0.0
O38 O 0.20614 0.40084 0.49099 0.0
C39 C 0.49102 0.70131 0.57281 0.0
O40 O 0.50231 0.72736 0.54352 0.0
C41 C 0.25403 0.20029 0.44098 0.0
C42 C 0.10286 0.02932 0.44073 0.0
C43 C 0.19728 0.10187 0.42367 0.0
N44 N 0.19977 0.18475 0.46776 0.0
N45 N 0.10594 0.08462 0.46669 0.0
C46 C 0.3503 0.31221 0.43036 0.0
H47 H 0.31885 0.34683 0.41235 0.0
H48 H 0.38453 0.37404 0.44944 0.0
H49 H 0.41794 0.30217 0.41969 0.0
C50 C 0.56546 0.48277 0.53377 0.0
N51 N 0.45343 0.44009 0.53085 0.0
N52 N 0.41074 0.35491 0.51138 0.0
C53 C 0.49685 0.34108 0.5015 0.0
C54 C 0.5986 0.42525 0.51429 0.0
C55 C 0.63943 0.57501 0.55571 0.0
H56 H 0.59497 0.56241 0.5778 0.0
H57 H 0.66108 0.6586 0.5459 0.0
H58 H 0.71837 0.57455 0.56064 0.0
O59 O 0.23125 0.3598 0.56993 0.0
O60 O 0.15302 0.20755 0.53996 0.0
H61 H 0.39318 0.17678 0.48079 0.0
H62 H 0.53276 0.20894 0.49203 0.0
C63 C 0.48298 0.24477 0.48208 0.0
H64 H 0.51742 0.2762 0.45884 0.0
H65 H 0.0454 0.0527 0.4841 0.0
O66 O 0.43843 0.59804 0.58078 0.0
C67 C 0.15636 0.25723 0.56505 0.0
Co68 Co 0.86456 0.36579 0.71737 0.0
Co69 Co 0.94892 0.25491 0.66969 0.0
C70 C 0.71792 0.23658 0.66695 0.0
O71 O 0.73526 0.30245 0.68927 0.0
O72 O 0.79312 0.21417 0.65859 0.0
C73 C 0.78188 0.49695 0.74133 0.0
O74 O 0.76753 0.50892 0.71208 0.0
C75 C 0.03018 0.25629 0.60718 0.0
C76 C 0.05684 0.11038 0.60707 0.0
C77 C 0.07166 0.20122 0.58941 0.0
N78 N -0.00179 0.20487 0.63461 0.0
N79 N 0.00825 0.11367 0.63371 0.0
C80 C 0.01026 0.3494 0.5968 0.0
H81 H 0.93945 0.31365 0.58015 0.0
H82 H -0.01326 0.38497 0.61635 0.0
H83 H 0.08498 0.41721 0.58462 0.0
C84 C 0.07233 0.5733 0.70037 0.0
N85 N 0.00363 0.46022 0.69826 0.0
N86 N 0.04381 0.41813 0.67807 0.0
C87 C 0.14127 0.50595 0.66674 0.0
C88 C 0.15937 0.60777 0.67946 0.0
C89 C 0.05649 0.64724 0.72269 0.0
H90 H 0.02525 0.60252 0.74484 0.0
H91 H -0.00499 0.66942 0.71332 0.0
H92 H 0.13733 0.72635 0.7273 0.0
O93 O 0.86015 0.23697 0.73758 0.0
O94 O 0.9314 0.15876 0.70705 0.0
H95 H 0.19984 0.40474 0.64429 0.0
H96 H 0.30829 0.54741 0.65378 0.0
C97 C 0.22019 0.49408 0.6455 0.0
H98 H 0.21638 0.52597 0.62242 0.0
H99 H -0.01564 0.05508 0.6516 0.0
O100 O 0.83224 0.44477 0.74912 0.0
C101 C 0.88609 0.16176 0.73234 0.0
Co102 Co 0.48421 0.86562 0.88496 0.0
Co103 Co 0.68003 0.95306 0.83719 0.0
C104 C 0.46744 0.71912 0.83468 0.0
O105 O 0.41826 0.73525 0.85698 0.0
O106 O 0.56517 0.79619 0.82625 0.0
C107 C 0.26979 0.78108 0.90859 0.0
O108 O 0.2448 0.76801 0.87926 0.0
C109 C 0.7598 0.03495 0.77457 0.0
C110 C 0.93138 0.06009 0.77384 0.0
C111 C 0.85606 0.07598 0.75652 0.0
N112 N 0.779 0.00259 0.80189 0.0
N113 N 0.87935 0.01139 0.80059 0.0
C114 C 0.64673 0.0147 0.76441 0.0
H115 H 0.61083 0.94408 0.74763 0.0
H116 H 0.58746 -0.0098 0.78403 0.0
H117 H 0.6546 0.08997 0.75242 0.0
C118 C 0.48362 0.07231 0.86786 0.0
N119 N 0.52851 0.00489 0.86579 0.0
N120 N 0.6112 0.04644 0.84555 0.0
C121 C 0.62064 0.14354 0.83416 0.0
C122 C 0.53627 0.15985 0.84688 0.0
C123 C 0.39384 0.05546 0.89032 0.0
H124 H 0.40716 0.02423 0.91243 0.0
H125 H 0.30958 -0.0066 0.88102 0.0
H126 H 0.39629 0.13632 0.89499 0.0
O127 O 0.6088 0.86287 0.90514 0.0
O128 O 0.75867 0.93584 0.87443 0.0
H129 H 0.78096 0.20443 0.81151 0.0
H130 H 0.74775 0.31218 0.82154 0.0
C131 C 0.71219 0.22413 0.81299 0.0
H132 H 0.6765 0.22107 0.78999 0.0
H133 H 0.91341 0.98653 0.81828 0.0
O134 O 0.37235 0.83159 0.91666 0.0
C135 C 0.71012 0.88973 0.89975 0.0
Co136 Co 0.59604 0.47719 0.05079 0.0
Co137 Co 0.70822 0.67604 1.00347 0.0
C138 C 0.7294 0.46431 1.00088 0.0
O139 O 0.6626 0.41402 0.02299 0.0
O140 O 0.75097 0.56234 0.99241 0.0
C141 C 0.46344 0.25967 0.07347 0.0
O142 O 0.45326 0.23626 0.04405 0.0
C143 C 0.70899 0.76015 0.94115 0.0
C144 C 0.85625 0.93345 0.94128 0.0
C145 C 0.76524 0.85844 0.9236 0.0
N146 N 0.7598 0.77781 0.96852 0.0
N147 N 0.85186 0.87944 0.96772 0.0
C148 C 0.61536 0.64704 0.9305 0.0
H149 H 0.65018 0.61254 0.91349 0.0
H150 H 0.57937 0.58608 0.94984 0.0
H151 H 0.5485 0.65531 0.91862 0.0
C152 C 0.38949 0.47568 0.03352 0.0
N153 N 0.50213 0.52091 0.03143 0.0
N154 N 0.54486 0.60501 1.01146 0.0
C155 C 0.45792 0.61507 1.00028 0.0
C156 C 0.356 0.52975 0.01286 0.0
C157 C 0.31518 0.38465 0.05585 0.0
H158 H 0.35949 0.39759 0.07795 0.0
H159 H 0.29223 0.30039 0.04641 0.0
H160 H 0.23686 0.38646 0.06061 0.0
O161 O 0.72225 0.60274 0.07163 0.0
O162 O 0.80208 0.75428 0.04117 0.0
H163 H 0.56006 0.77786 0.9784 0.0
H164 H 0.41865 0.74327 0.98839 0.0
C165 C 0.47081 0.70845 0.9796 0.0
H166 H 0.43861 0.67423 0.95644 0.0
H167 H 0.90983 0.91344 0.98566 0.0
O168 O 0.51558 0.36225 0.08194 0.0
C169 C 0.79746 0.70515 0.06654 0.0
Co170 Co 0.08386 0.58621 0.21836 0.0
Co171 Co 0.00169 0.70047 0.17094 0.0
C172 C 0.23405 0.72481 0.16889 0.0
O173 O 0.21699 0.65989 0.19151 0.0
O174 O 0.15796 0.74495 0.15995 0.0
C175 C 0.16918 0.45455 0.2395 0.0
O176 O 0.18332 0.44791 0.20996 0.0
C177 C 0.92357 0.70474 0.1084 0.0
C178 C 0.89614 0.85002 0.10882 0.0
C179 C 0.88242 0.76074 0.0908 0.0
N180 N 0.95388 0.75375 0.13608 0.0
N181 N 0.94375 0.84493 0.13548 0.0
C182 C 0.945 0.61328 0.09756 0.0
H183 H 0.01598 0.65091 0.08092 0.0
H184 H 0.96895 0.57688 0.11688 0.0
H185 H 0.87084 0.54587 0.0852 0.0
C186 C 0.88048 0.37961 0.19944 0.0
N187 N 0.94872 0.49277 0.19777 0.0
N188 N 0.90903 0.53611 0.17773 0.0
C189 C 0.81243 0.4489 0.16597 0.0
C190 C 0.79451 0.34652 0.17835 0.0
C191 C 0.89389 0.30471 0.22209 0.0
H192 H 0.92344 0.34865 0.24433 0.0
H193 H 0.9555 0.28194 0.21321 0.0
H194 H 0.81231 0.22606 0.2264 0.0
O195 O 0.07569 0.7033 0.24089 0.0
O196 O 0.01222 0.78771 0.20963 0.0
H197 H 0.75291 0.55107 0.14435 0.0
H198 H 0.64508 0.40754 0.15346 0.0
C199 C 0.73308 0.46184 0.14513 0.0
H200 H 0.73693 0.43173 0.12185 0.0
H201 H 0.96642 0.90196 0.15363 0.0
O202 O 0.11663 0.50288 0.24859 0.0
C203 C 0.0479 0.77726 0.23582 0.0
Co204 Co 0.85696 0.47924 0.45075 0.0
Co205 Co 0.94964 0.68348 0.496 0.0
C206 C 0.71489 0.47013 0.50213 0.0
O207 O 0.73049 0.4182 0.48035 0.0
O208 O 0.79189 0.57011 0.50966 0.0
C209 C 0.76562 0.25961 0.42808 0.0
O210 O 0.74543 0.23324 0.45728 0.0
C211 C 0.02449 0.78558 0.55804 0.0
C212 C 0.14247 0.9638 0.54619 0.0
C213 C 0.10081 0.89038 0.57101 0.0
N214 N 0.01979 0.79791 0.5275 0.0
N215 N 0.08976 0.90544 0.52076 0.0
C216 C 0.97248 0.67265 0.57381 0.0
H217 H 0.90824 0.66607 0.59043 0.0
H218 H 0.93203 0.60241 0.557 0.0
H219 H 0.03739 0.66484 0.58699 0.0
C220 C 0.06895 0.48778 0.46605 0.0
N221 N -0.00084 0.5296 0.46832 0.0
N222 N 0.03947 0.61299 0.48827 0.0
C223 C 0.13647 0.62492 0.4999 0.0
C224 C 0.15654 0.54331 0.48685 0.0
C225 C 0.05067 0.39467 0.44451 0.0
H226 H 0.01764 0.40526 0.42238 0.0
H227 H -0.01135 0.3114 0.45465 0.0
H228 H 0.13053 0.39578 0.43968 0.0
O229 O 0.85042 0.59925 0.42872 0.0
O230 O 0.92845 0.75484 0.45732 0.0
H231 H 0.20158 0.78719 0.52155 0.0
H232 H 0.29627 0.73321 0.52217 0.0
C233 C 0.20631 0.70925 0.52402 0.0
H234 H 0.17456 0.67165 0.54701 0.0
H235 H 0.11155 0.93531 0.49846 0.0
O236 O 0.82156 0.36287 0.42022 0.0
C237 C 0.87897 0.70216 0.43276 0.0
Co238 Co 0.36537 0.87221 0.61573 0.0
Co239 Co 0.25375 0.95944 0.66217 0.0
C240 C 0.22802 0.72442 0.66678 0.0
O241 O 0.2927 0.74136 0.64415 0.0
O242 O 0.20713 0.80105 0.67546 0.0
C243 C 0.49302 0.78119 0.59479 0.0
O244 O 0.49619 0.7619 0.62418 0.0
C245 C 0.22457 0.03052 0.72437 0.0
C246 C 0.1685 0.15078 0.71297 0.0
C247 C 0.19774 0.10684 0.73764 0.0
N248 N 0.2091 0.028 0.6938 0.0
N249 N 0.17398 0.09931 0.68731 0.0
C250 C 0.28331 0.97703 0.73998 0.0
H251 H 0.22378 0.91132 0.75625 0.0
H252 H 0.31332 0.93773 0.72304 0.0
H253 H 0.35603 0.04113 0.75357 0.0
C254 C 0.57025 0.08222 0.63277 0.0
N255 N 0.45803 0.0117 0.63476 0.0
N256 N 0.41503 0.0497 0.65524 0.0
C257 C 0.50084 0.14574 0.66753 0.0
C258 C 0.60264 0.16734 0.65435 0.0
C259 C 0.64521 0.06766 0.61054 0.0
H260 H 0.60149 0.03696 0.58829 0.0
H261 H 0.66623 0.0049 0.6198 0.0
H262 H 0.72454 0.14902 0.6062 0.0
O263 O 0.24718 0.8749 0.59232 0.0
O264 O 0.16652 0.94369 0.62287 0.0
H265 H 0.4049 0.20967 0.68977 0.0
H266 H 0.55451 0.30406 0.69095 0.0
C267 C 0.48688 0.21364 0.69219 0.0
H268 H 0.49093 0.17935 0.71492 0.0
H269 H 0.16753 0.12288 0.66507 0.0
O270 O 0.44896 0.83833 0.58608 0.0
C271 C 0.17406 0.90358 0.59709 0.0
Co272 Co 0.48215 0.36896 0.78365 0.0
Co273 Co 0.28034 0.25343 0.82966 0.0
C274 C 0.48859 0.22815 0.83437 0.0
O275 O 0.53724 0.294 0.81185 0.0
O276 O 0.3908 0.20634 0.84314 0.0
C277 C 0.70374 0.4978 0.7634 0.0
O278 O 0.72494 0.49871 0.79279 0.0
C279 C 0.17359 0.22003 0.89135 0.0
C280 C -0.00044 0.16862 0.87849 0.0
C281 C 0.0694 0.19437 0.90378 0.0
N282 N 0.16408 0.20705 0.86066 0.0
N283 N 0.05896 0.17476 0.85331 0.0
C284 C 0.28442 0.27615 0.90786 0.0
H285 H 0.28691 0.21393 0.92376 0.0
H286 H 0.35584 0.30758 0.89143 0.0
H287 H 0.29346 0.34788 0.92191 0.0
C288 C 0.47707 0.57276 0.80093 0.0
N289 N 0.43551 0.46034 0.80294 0.0
N290 N 0.35322 0.41562 0.8232 0.0
C291 C 0.34197 0.5005 0.83536 0.0
C292 C 0.42269 0.60354 0.82226 0.0
C293 C 0.56762 0.64917 0.77878 0.0
H294 H 0.55528 0.60541 0.75658 0.0
H295 H 0.6515 0.67155 0.78817 0.0
H296 H 0.56566 0.72808 0.77429 0.0
O297 O 0.36086 0.25229 0.75955 0.0
O298 O 0.20985 0.16845 0.7899 0.0
H299 H 0.17893 0.40286 0.8564 0.0
H300 H 0.23748 0.55285 0.859 0.0
C301 C 0.25821 0.48434 0.85971 0.0
H302 H 0.29383 0.48459 0.88254 0.0
H303 H 0.03239 0.17174 0.83085 0.0
O304 O 0.60262 0.45505 0.75452 0.0
C305 C 0.25808 0.17843 0.76405 0.0
Co306 Co 0.09367 0.47842 0.94994 0.0
Co307 Co 0.00309 0.27503 0.9957 0.0
C308 C 0.2397 0.48308 1.00054 0.0
O309 O 0.22392 0.53268 0.97812 0.0
O310 O 0.1618 0.38498 1.00929 0.0
C311 C 0.18907 0.70115 0.9303 0.0
O312 O 0.20793 0.72099 0.95978 0.0
C313 C 0.92723 0.16579 0.05718 0.0
C314 C 0.80121 -0.00828 0.04407 0.0
C315 C 0.84665 0.06095 0.06947 0.0
N316 N 0.93047 0.1572 0.02646 0.0
N317 N 0.85548 0.05202 0.01895 0.0
C318 C -0.01596 0.27663 0.07389 0.0
H319 H 0.04805 0.2782 0.08973 0.0
H320 H 0.02568 0.34885 0.05759 0.0
H321 H 0.92187 0.28575 0.08801 0.0
C322 C 0.88601 0.47447 0.96729 0.0
N323 N 0.95529 0.43203 0.96919 0.0
N324 N 0.91592 0.34904 0.98939 0.0
C325 C 0.82023 0.33824 1.00164 0.0
C326 C 0.80003 0.41993 0.98862 0.0
C327 C 0.90203 0.56566 0.94516 0.0
H328 H 0.93347 0.55357 0.92296 0.0
H329 H 0.96443 0.64985 0.9546 0.0
H330 H 0.82154 0.56366 0.94064 0.0
O331 O 0.08743 0.35728 0.92565 0.0
O332 O 0.01788 0.20526 0.95592 0.0
H333 H 0.75187 0.17432 0.02271 0.0
H334 H 0.66194 0.23319 0.02528 0.0
C335 C 0.75111 0.25399 0.02599 0.0
H336 H 0.78674 0.28964 0.04883 0.0
H337 H 0.83128 0.02607 0.99648 0.0
O338 O 0.13058 0.59999 0.92106 0.0
C339 C 0.05737 0.25414 0.93012 0.0
Co340 Co 0.58612 0.08349 0.11502 0.0
Co341 Co 0.69831 -0.00451 0.16133 0.0
C342 C 0.7259 0.2306 0.1656 0.0
O343 O 0.6614 0.21445 0.14302 0.0
O344 O 0.74626 0.15358 0.17433 0.0
C345 C 0.4601 0.17754 0.09504 0.0
O346 O 0.4578 0.19526 0.12454 0.0
C347 C 0.7323 0.9269 0.22355 0.0
C348 C 0.78256 0.80257 0.21196 0.0
C349 C 0.75826 0.84967 0.2368 0.0
N350 N 0.74367 0.92685 0.19285 0.0
N351 N 0.7751 0.85287 0.18624 0.0
C352 C 0.67594 0.98203 0.23948 0.0
H353 H 0.73678 0.04693 0.2556 0.0
H354 H 0.64604 0.02222 0.22273 0.0
H355 H 0.60328 0.91863 0.25332 0.0
C356 C 0.38078 0.87676 0.13373 0.0
N357 N 0.49341 0.94533 0.13483 0.0
N358 N 0.53674 0.90723 0.15527 0.0
C359 C 0.45084 0.81321 0.16846 0.0
C360 C 0.3488 0.79321 0.1559 0.0
C361 C 0.30526 0.89156 0.11172 0.0
H362 H 0.34818 0.92218 0.08933 0.0
H363 H 0.28455 0.9543 0.12106 0.0
H364 H 0.22576 0.81027 0.10762 0.0
O365 O 0.70175 0.07796 0.09114 0.0
O366 O 0.78349 0.00993 0.12169 0.0
H367 H 0.54608 0.74783 0.19052 0.0
H368 H 0.3963 0.65568 0.19264 0.0
C369 C 0.4651 0.74569 0.19329 0.0
H370 H 0.46336 0.78157 0.21591 0.0
H371 H 0.77693 0.8265 0.16404 0.0
O372 O 0.50222 0.11928 0.08585 0.0
C373 C 0.77459 0.04875 0.09578 0.0
Co374 Co 0.4687 0.58733 0.28145 0.0
Co375 Co 0.66725 0.70072 0.32823 0.0
C376 C 0.45879 0.7255 0.33102 0.0
O377 O 0.40986 0.66014 0.30862 0.0
O378 O 0.55554 0.74567 0.33971 0.0
C379 C 0.25028 0.45497 0.26065 0.0
O380 O 0.22932 0.44779 0.29021 0.0
C381 C 0.75133 0.69859 0.39033 0.0
C382 C 0.92289 0.84805 0.39049 0.0
C383 C 0.84861 0.75535 0.40799 0.0
N384 N 0.76892 0.75106 0.36308 0.0
N385 N 0.86957 0.84411 0.36404 0.0
C386 C 0.63875 0.60385 0.40095 0.0
H387 H 0.60531 0.63722 0.4187 0.0
H388 H 0.57743 0.56997 0.38179 0.0
H389 H 0.64678 0.53511 0.41196 0.0
C390 C 0.46903 0.38117 0.29867 0.0
N391 N 0.51134 0.49359 0.30131 0.0
N392 N 0.59615 0.53709 0.32082 0.0
C393 C 0.60969 0.4509 0.33117 0.0
C394 C 0.52603 0.34859 0.31849 0.0
C395 C 0.37924 0.30678 0.27625 0.0
H396 H 0.39305 0.35172 0.25413 0.0
H397 H 0.29505 0.28389 0.2855 0.0
H398 H 0.38118 0.2282 0.27156 0.0
O399 O 0.59452 0.70503 0.25862 0.0
O400 O 0.74433 0.78892 0.28937 0.0
H401 H 0.7737 0.55538 0.35165 0.0
H402 H 0.74055 0.41417 0.34121 0.0
C403 C 0.70557 0.46528 0.35074 0.0
H404 H 0.67444 0.43229 0.37411 0.0
H405 H 0.9031 0.90351 0.34628 0.0
O406 O 0.35157 0.50428 0.25147 0.0
C407 C 0.69723 0.7787 0.26332 0.0
loop_
_geom_bond_atom_site_label_1
_geom_bond_atom_site_label_2
_geom_bond_distance
_geom_bond_site_symmetry_2
_ccdc_geom_bond_type
Co0 O3 1.970 . S
Co0 N17 1.989 . S
Co0 O25 1.967 . S
Co0 O32 1.920 . S
Co1 O4 1.966 . S
Co1 N10 2.022 1_545 S
Co1 N18 1.993 1_545 S
Co1 O26 1.941 . S
C2 O3 1.258 . S
C2 O4 1.263 . S
O3 Co0 1.970 . S
O3 C2 1.258 . S
O4 Co1 1.966 . S
O4 C2 1.263 . S
C5 O6 1.235 . S
C5 O32 1.289 . S
O6 C5 1.235 . S
C7 C9 1.400 . S
C7 N10 1.351 . S
C7 C12 1.501 1_565 S
C8 C9 1.387 . S
C8 N11 1.341 . S
C9 C7 1.400 . S
C9 C8 1.387 . S
N10 Co1 2.022 1_565 S
N10 C7 1.351 . S
N10 N11 1.365 . S
N11 C8 1.341 . S
N11 N10 1.365 . S
N11 H31 0.862 . S
C12 C7 1.501 1_545 S
C12 H13 0.961 . S
C12 H14 0.961 . S
C12 H15 0.960 . S
H13 C12 0.961 . S
H14 C12 0.961 . S
H15 C12 0.960 . S
C16 N17 1.342 1_565 S
C16 C20 1.401 . S
C16 C21 1.499 1_565 S
N17 Co0 1.989 . S
N17 C16 1.342 1_545 S
N17 N18 1.388 1_545 S
N18 Co1 1.993 1_565 S
N18 N17 1.388 1_565 S
N18 C19 1.346 . S
C19 N18 1.346 . S
C19 C20 1.396 . S
C19 C29 1.510 . S
C20 C16 1.401 . S
C20 C19 1.396 . S
C21 C16 1.499 1_545 S
C21 H22 0.959 . S
C21 H23 0.960 . S
C21 H24 0.961 1_545 S
H22 C21 0.959 . S
H23 C21 0.960 . S
H24 C21 0.961 1_565 S
O25 Co0 1.967 . S
O25 C33 1.258 . S
O26 Co1 1.941 . S
O26 C33 1.266 . S
H27 C29 0.959 . S
H28 C29 0.961 . S
C29 C19 1.510 . S
C29 H27 0.959 . S
C29 H28 0.961 . S
C29 H30 0.960 . S
H30 C29 0.960 . S
H31 N11 0.862 . S
O32 Co0 1.920 . S
O32 C5 1.289 . S
C33 O25 1.258 . S
C33 O26 1.266 . S
Co34 O37 1.970 . S
Co34 N51 1.989 . S
Co34 O59 1.967 . S
Co34 O66 1.920 . S
Co35 O38 1.966 . S
Co35 N44 2.022 . S
Co35 N52 1.993 . S
Co35 O60 1.941 . S
C36 O37 1.258 . S
C36 O38 1.263 . S
O37 Co34 1.970 . S
O37 C36 1.258 . S
O38 Co35 1.966 . S
O38 C36 1.263 . S
C39 O40 1.235 . S
C39 O66 1.289 . S
O40 C39 1.235 . S
C41 C43 1.400 . S
C41 N44 1.351 . S
C41 C46 1.501 . S
C42 C43 1.387 1_565 S
C42 N45 1.341 1_565 S
C43 C41 1.400 . S
C43 C42 1.387 1_545 S
N44 Co35 2.022 . S
N44 C41 1.351 . S
N44 N45 1.365 . S
N45 C42 1.341 1_545 S
N45 N44 1.365 . S
N45 H65 0.862 . S
C46 C41 1.501 . S
C46 H47 0.961 . S
C46 H48 0.961 . S
C46 H49 0.960 . S
H47 C46 0.961 . S
H48 C46 0.961 . S
H49 C46 0.960 . S
C50 N51 1.342 . S
C50 C54 1.401 . S
C50 C55 1.499 . S
N51 Co34 1.989 . S
N51 C50 1.342 . S
N51 N52 1.388 . S
N52 Co35 1.993 . S
N52 N51 1.388 . S
N52 C53 1.346 . S
C53 N52 1.346 . S
C53 C54 1.396 . S
C53 C63 1.510 . S
C54 C50 1.401 . S
C54 C53 1.396 . S
C55 C50 1.499 . S
C55 H56 0.959 . S
C55 H57 0.960 . S
C55 H58 0.961 . S
H56 C55 0.959 . S
H57 C55 0.960 . S
H58 C55 0.961 . S
O59 Co34 1.967 . S
O59 C67 1.258 . S
O60 Co35 1.941 . S
O60 C67 1.266 . S
H61 C63 0.959 . S
H62 C63 0.961 . S
C63 C53 1.510 . S
C63 H61 0.959 . S
C63 H62 0.961 . S
C63 H64 0.960 . S
H64 C63 0.960 . S
H65 N45 0.862 . S
O66 Co34 1.920 . S
O66 C39 1.289 . S
C67 O59 1.258 . S
C67 O60 1.266 . S
Co68 O71 1.970 . S
Co68 N85 1.989 . S
Co68 O93 1.967 . S
Co68 O100 1.920 . S
Co69 O72 1.966 . S
Co69 N78 2.022 1_655 S
Co69 N86 1.993 . S
Co69 O94 1.941 . S
C70 O71 1.258 . S
C70 O72 1.263 . S
O71 Co68 1.970 . S
O71 C70 1.258 . S
O72 Co69 1.966 . S
O72 C70 1.263 . S
C73 O74 1.235 . S
C73 O100 1.289 . S
O74 C73 1.235 . S
C75 C77 1.400 . S
C75 N78 1.351 . S
C75 C80 1.501 1_455 S
C76 C77 1.387 . S
C76 N79 1.341 . S
C77 C75 1.400 . S
C77 C76 1.387 . S
N78 Co69 2.022 1_455 S
N78 C75 1.351 . S
N78 N79 1.365 . S
N79 C76 1.341 . S
N79 N78 1.365 . S
N79 H99 0.862 . S
C80 C75 1.501 1_655 S
C80 H81 0.961 . S
C80 H82 0.961 . S
C80 H83 0.960 . S
H81 C80 0.961 . S
H82 C80 0.961 . S
H83 C80 0.960 . S
C84 N85 1.342 . S
C84 C88 1.401 1_655 S
C84 C89 1.499 . S
N85 Co68 1.989 . S
N85 C84 1.342 . S
N85 N86 1.388 . S
N86 Co69 1.993 . S
N86 N85 1.388 . S
N86 C87 1.346 1_655 S
C87 N86 1.346 1_455 S
C87 C88 1.396 . S
C87 C97 1.510 . S
C88 C84 1.401 1_455 S
C88 C87 1.396 . S
C89 C84 1.499 . S
C89 H90 0.959 . S
C89 H91 0.960 . S
C89 H92 0.961 1_655 S
H90 C89 0.959 . S
H91 C89 0.960 . S
H92 C89 0.961 1_455 S
O93 Co68 1.967 . S
O93 C101 1.258 . S
O94 Co69 1.941 . S
O94 C101 1.266 . S
H95 C97 0.959 . S
H96 C97 0.961 . S
C97 C87 1.510 . S
C97 H95 0.959 . S
C97 H96 0.961 . S
C97 H98 0.960 . S
H98 C97 0.960 . S
H99 N79 0.862 . S
O100 Co68 1.920 . S
O100 C73 1.289 . S
C101 O93 1.258 . S
C101 O94 1.266 . S
Co102 O105 1.970 . S
Co102 N119 1.989 . S
Co102 O127 1.967 . S
Co102 O134 1.920 . S
Co103 O106 1.966 . S
Co103 N112 2.022 1_565 S
Co103 N120 1.993 . S
Co103 O128 1.941 . S
C104 O105 1.258 . S
C104 O106 1.263 . S
O105 Co102 1.970 . S
O105 C104 1.258 . S
O106 Co103 1.966 . S
O106 C104 1.263 . S
C107 O108 1.235 . S
C107 O134 1.289 . S
O108 C107 1.235 . S
C109 C111 1.400 . S
C109 N112 1.351 . S
C109 C114 1.501 1_545 S
C110 C111 1.387 . S
C110 N113 1.341 . S
C111 C109 1.400 . S
C111 C110 1.387 . S
N112 Co103 2.022 1_545 S
N112 C109 1.351 . S
N112 N113 1.365 . S
N113 C110 1.341 . S
N113 N112 1.365 . S
N113 H133 0.862 . S
C114 C109 1.501 1_565 S
C114 H115 0.961 . S
C114 H116 0.961 . S
C114 H117 0.960 . S
H115 C114 0.961 . S
H116 C114 0.961 . S
H117 C114 0.960 . S
C118 N119 1.342 . S
C118 C122 1.401 1_565 S
C118 C123 1.499 . S
N119 Co102 1.989 . S
N119 C118 1.342 . S
N119 N120 1.388 . S
N120 Co103 1.993 . S
N120 N119 1.388 . S
N120 C121 1.346 1_565 S
C121 N120 1.346 1_545 S
C121 C122 1.396 . S
C121 C131 1.510 . S
C122 C118 1.401 1_545 S
C122 C121 1.396 . S
C123 C118 1.499 . S
C123 H124 0.959 . S
C123 H125 0.960 . S
C123 H126 0.961 1_565 S
H124 C123 0.959 . S
H125 C123 0.960 . S
H126 C123 0.961 1_545 S
O127 Co102 1.967 . S
O127 C135 1.258 . S
O128 Co103 1.941 . S
O128 C135 1.266 . S
H129 C131 0.959 . S
H130 C131 0.961 . S
C131 C121 1.510 . S
C131 H129 0.959 . S
C131 H130 0.961 . S
C131 H132 0.960 . S
H132 C131 0.960 . S
H133 N113 0.862 . S
O134 Co102 1.920 . S
O134 C107 1.289 . S
C135 O127 1.258 . S
C135 O128 1.266 . S
Co136 O139 1.970 . S
Co136 N153 1.989 . S
Co136 O161 1.967 . S
Co136 O168 1.920 . S
Co137 O140 1.966 . S
Co137 N146 2.022 . S
Co137 N154 1.993 . S
Co137 O162 1.941 1_556 S
C138 O139 1.258 1_556 S
C138 O140 1.263 . S
O139 Co136 1.970 . S
O139 C138 1.258 1_554 S
O140 Co137 1.966 . S
O140 C138 1.263 . S
C141 O142 1.235 . S
C141 O168 1.289 . S
O142 C141 1.235 . S
C143 C145 1.400 . S
C143 N146 1.351 . S
C143 C148 1.501 . S
C144 C145 1.387 . S
C144 N147 1.341 . S
C145 C143 1.400 . S
C145 C144 1.387 . S
N146 Co137 2.022 . S
N146 C143 1.351 . S
N146 N147 1.365 . S
N147 C144 1.341 . S
N147 N146 1.365 . S
N147 H167 0.862 . S
C148 C143 1.501 . S
C148 H149 0.961 . S
C148 H150 0.961 . S
C148 H151 0.960 . S
H149 C148 0.961 . S
H150 C148 0.961 . S
H151 C148 0.960 . S
C152 N153 1.342 . S
C152 C156 1.401 . S
C152 C157 1.499 . S
N153 Co136 1.989 . S
N153 C152 1.342 . S
N153 N154 1.388 1_554 S
N154 Co137 1.993 . S
N154 N153 1.388 1_556 S
N154 C155 1.346 . S
C155 N154 1.346 . S
C155 C156 1.396 1_556 S
C155 C165 1.510 . S
C156 C152 1.401 . S
C156 C155 1.396 1_554 S
C157 C152 1.499 . S
C157 H158 0.959 . S
C157 H159 0.960 . S
C157 H160 0.961 . S
H158 C157 0.959 . S
H159 C157 0.960 . S
H160 C157 0.961 . S
O161 Co136 1.967 . S
O161 C169 1.258 . S
O162 Co137 1.941 1_554 S
O162 C169 1.266 . S
H163 C165 0.959 . S
H164 C165 0.961 . S
C165 C155 1.510 . S
C165 H163 0.959 . S
C165 H164 0.961 . S
C165 H166 0.960 . S
H166 C165 0.960 . S
H167 N147 0.862 . S
O168 Co136 1.920 . S
O168 C141 1.289 . S
C169 O161 1.258 . S
C169 O162 1.266 . S
Co170 O173 1.970 . S
Co170 N187 1.989 . S
Co170 O195 1.967 . S
Co170 O202 1.920 . S
Co171 O174 1.966 . S
Co171 N180 2.022 1_455 S
Co171 N188 1.993 . S
Co171 O196 1.941 . S
C172 O173 1.258 . S
C172 O174 1.263 . S
O173 Co170 1.970 . S
O173 C172 1.258 . S
O174 Co171 1.966 . S
O174 C172 1.263 . S
C175 O176 1.235 . S
C175 O202 1.289 . S
O176 C175 1.235 . S
C177 C179 1.400 . S
C177 N180 1.351 . S
C177 C182 1.501 1_655 S
C178 C179 1.387 . S
C178 N181 1.341 . S
C179 C177 1.400 . S
C179 C178 1.387 . S
N180 Co171 2.022 1_655 S
N180 C177 1.351 . S
N180 N181 1.365 . S
N181 C178 1.341 . S
N181 N180 1.365 . S
N181 H201 0.862 . S
C182 C177 1.501 1_455 S
C182 H183 0.961 . S
C182 H184 0.961 . S
C182 H185 0.960 . S
H183 C182 0.961 . S
H184 C182 0.961 . S
H185 C182 0.960 . S
C186 N187 1.342 1_655 S
C186 C190 1.401 . S
C186 C191 1.499 1_655 S
N187 Co170 1.989 . S
N187 C186 1.342 1_455 S
N187 N188 1.388 . S
N188 Co171 1.993 . S
N188 N187 1.388 . S
N188 C189 1.346 1_455 S
C189 N188 1.346 1_655 S
C189 C190 1.396 . S
C189 C199 1.510 . S
C190 C186 1.401 . S
C190 C189 1.396 . S
C191 C186 1.499 1_455 S
C191 H192 0.959 . S
C191 H193 0.960 . S
C191 H194 0.961 1_455 S
H192 C191 0.959 . S
H193 C191 0.960 . S
H194 C191 0.961 1_655 S
O195 Co170 1.967 . S
O195 C203 1.258 . S
O196 Co171 1.941 . S
O196 C203 1.266 . S
H197 C199 0.959 . S
H198 C199 0.961 . S
C199 C189 1.510 . S
C199 H197 0.959 . S
C199 H198 0.961 . S
C199 H200 0.960 . S
H200 C199 0.960 . S
H201 N181 0.862 . S
O202 Co170 1.920 . S
O202 C175 1.289 . S
C203 O195 1.258 . S
C203 O196 1.266 . S
Co204 O207 1.970 . S
Co204 N221 1.989 . S
Co204 O229 1.967 . S
Co204 O236 1.920 . S
Co205 O208 1.966 . S
Co205 N214 2.022 1_655 S
Co205 N222 1.993 . S
Co205 O230 1.941 . S
C206 O207 1.258 . S
C206 O208 1.263 . S
O207 Co204 1.970 . S
O207 C206 1.258 . S
O208 Co205 1.966 . S
O208 C206 1.263 . S
C209 O210 1.235 . S
C209 O236 1.289 . S
O210 C209 1.235 . S
C211 C213 1.400 . S
C211 N214 1.351 . S
C211 C216 1.501 1_455 S
C212 C213 1.387 . S
C212 N215 1.341 . S
C213 C211 1.400 . S
C213 C212 1.387 . S
N214 Co205 2.022 1_455 S
N214 C211 1.351 . S
N214 N215 1.365 . S
N215 C212 1.341 . S
N215 N214 1.365 . S
N215 H235 0.862 . S
C216 C211 1.501 1_655 S
C216 H217 0.961 . S
C216 H218 0.961 . S
C216 H219 0.960 . S
H217 C216 0.961 . S
H218 C216 0.961 . S
H219 C216 0.960 . S
C220 N221 1.342 . S
C220 C224 1.401 1_655 S
C220 C225 1.499 . S
N221 Co204 1.989 . S
N221 C220 1.342 . S
N221 N222 1.388 . S
N222 Co205 1.993 . S
N222 N221 1.388 . S
N222 C223 1.346 1_655 S
C223 N222 1.346 1_455 S
C223 C224 1.396 . S
C223 C233 1.510 . S
C224 C220 1.401 1_455 S
C224 C223 1.396 . S
C225 C220 1.499 . S
C225 H226 0.959 . S
C225 H227 0.960 . S
C225 H228 0.961 1_655 S
H226 C225 0.959 . S
H227 C225 0.960 . S
H228 C225 0.961 1_455 S
O229 Co204 1.967 . S
O229 C237 1.258 . S
O230 Co205 1.941 . S
O230 C237 1.266 . S
H231 C233 0.959 . S
H232 C233 0.961 . S
C233 C223 1.510 . S
C233 H231 0.959 . S
C233 H232 0.961 . S
C233 H234 0.960 . S
H234 C233 0.960 . S
H235 N215 0.862 . S
O236 Co204 1.920 . S
O236 C209 1.289 . S
C237 O229 1.258 . S
C237 O230 1.266 . S
Co238 O241 1.970 . S
Co238 N255 1.989 . S
Co238 O263 1.967 . S
Co238 O270 1.920 . S
Co239 O242 1.966 . S
Co239 N248 2.022 1_565 S
Co239 N256 1.993 . S
Co239 O264 1.941 . S
C240 O241 1.258 . S
C240 O242 1.263 . S
O241 Co238 1.970 . S
O241 C240 1.258 . S
O242 Co239 1.966 . S
O242 C240 1.263 . S
C243 O244 1.235 . S
C243 O270 1.289 . S
O244 C243 1.235 . S
C245 C247 1.400 . S
C245 N248 1.351 . S
C245 C250 1.501 1_545 S
C246 C247 1.387 . S
C246 N249 1.341 . S
C247 C245 1.400 . S
C247 C246 1.387 . S
N248 Co239 2.022 1_545 S
N248 C245 1.351 . S
N248 N249 1.365 . S
N249 C246 1.341 . S
N249 N248 1.365 . S
N249 H269 0.862 . S
C250 C245 1.501 1_565 S
C250 H251 0.961 . S
C250 H252 0.961 . S
C250 H253 0.960 . S
H251 C250 0.961 . S
H252 C250 0.961 . S
H253 C250 0.960 . S
C254 N255 1.342 . S
C254 C258 1.401 1_565 S
C254 C259 1.499 . S
N255 Co238 1.989 . S
N255 C254 1.342 . S
N255 N256 1.388 . S
N256 Co239 1.993 . S
N256 N255 1.388 . S
N256 C257 1.346 1_565 S
C257 N256 1.346 1_545 S
C257 C258 1.396 . S
C257 C267 1.510 . S
C258 C254 1.401 1_545 S
C258 C257 1.396 . S
C259 C254 1.499 . S
C259 H260 0.959 . S
C259 H261 0.960 . S
C259 H262 0.961 1_565 S
H260 C259 0.959 . S
H261 C259 0.960 . S
H262 C259 0.961 1_545 S
O263 Co238 1.967 . S
O263 C271 1.258 . S
O264 Co239 1.941 . S
O264 C271 1.266 . S
H265 C267 0.959 . S
H266 C267 0.961 . S
C267 C257 1.510 . S
C267 H265 0.959 . S
C267 H266 0.961 . S
C267 H268 0.960 . S
H268 C267 0.960 . S
H269 N249 0.862 . S
O270 Co238 1.920 . S
O270 C243 1.289 . S
C271 O263 1.258 . S
C271 O264 1.266 . S
Co272 O275 1.970 . S
Co272 N289 1.989 . S
Co272 O297 1.967 . S
Co272 O304 1.920 . S
Co273 O276 1.966 . S
Co273 N282 2.022 . S
Co273 N290 1.993 . S
Co273 O298 1.941 . S
C274 O275 1.258 . S
C274 O276 1.263 . S
O275 Co272 1.970 . S
O275 C274 1.258 . S
O276 Co273 1.966 . S
O276 C274 1.263 . S
C277 O278 1.235 . S
C277 O304 1.289 . S
O278 C277 1.235 . S
C279 C281 1.400 . S
C279 N282 1.351 . S
C279 C284 1.501 . S
C280 C281 1.387 . S
C280 N283 1.341 . S
C281 C279 1.400 . S
C281 C280 1.387 . S
N282 Co273 2.022 . S
N282 C279 1.351 . S
N282 N283 1.365 . S
N283 C280 1.341 . S
N283 N282 1.365 . S
N283 H303 0.862 . S
C284 C279 1.501 . S
C284 H285 0.961 . S
C284 H286 0.961 . S
C284 H287 0.960 . S
H285 C284 0.961 . S
H286 C284 0.961 . S
H287 C284 0.960 . S
C288 N289 1.342 . S
C288 C292 1.401 . S
C288 C293 1.499 . S
N289 Co272 1.989 . S
N289 C288 1.342 . S
N289 N290 1.388 . S
N290 Co273 1.993 . S
N290 N289 1.388 . S
N290 C291 1.346 . S
C291 N290 1.346 . S
C291 C292 1.396 . S
C291 C301 1.510 . S
C292 C288 1.401 . S
C292 C291 1.396 . S
C293 C288 1.499 . S
C293 H294 0.959 . S
C293 H295 0.960 . S
C293 H296 0.961 . S
H294 C293 0.959 . S
H295 C293 0.960 . S
H296 C293 0.961 . S
O297 Co272 1.967 . S
O297 C305 1.258 . S
O298 Co273 1.941 . S
O298 C305 1.266 . S
H299 C301 0.959 . S
H300 C301 0.961 . S
C301 C291 1.510 . S
C301 H299 0.959 . S
C301 H300 0.961 . S
C301 H302 0.960 . S
H302 C301 0.960 . S
H303 N283 0.862 . S
O304 Co272 1.920 . S
O304 C277 1.289 . S
C305 O297 1.258 . S
C305 O298 1.266 . S
Co306 O309 1.970 . S
Co306 N323 1.989 . S
Co306 O331 1.967 . S
Co306 O338 1.920 . S
Co307 O310 1.966 . S
Co307 N316 2.022 1_456 S
Co307 N324 1.993 . S
Co307 O332 1.941 . S
C308 O309 1.258 . S
C308 O310 1.263 . S
O309 Co306 1.970 . S
O309 C308 1.258 . S
O310 Co307 1.966 . S
O310 C308 1.263 . S
C311 O312 1.235 . S
C311 O338 1.289 . S
O312 C311 1.235 . S
C313 C315 1.400 . S
C313 N316 1.351 . S
C313 C318 1.501 1_655 S
C314 C315 1.387 1_565 S
C314 N317 1.341 1_565 S
C315 C313 1.400 . S
C315 C314 1.387 1_545 S
N316 Co307 2.022 1_654 S
N316 C313 1.351 . S
N316 N317 1.365 . S
N317 C314 1.341 1_545 S
N317 N316 1.365 . S
N317 H337 0.862 1_554 S
C318 C313 1.501 1_455 S
C318 H319 0.961 . S
C318 H320 0.961 . S
C318 H321 0.960 . S
H319 C318 0.961 . S
H320 C318 0.961 . S
H321 C318 0.960 . S
C322 N323 1.342 1_655 S
C322 C326 1.401 . S
C322 C327 1.499 1_655 S
N323 Co306 1.989 . S
N323 C322 1.342 1_455 S
N323 N324 1.388 . S
N324 Co307 1.993 . S
N324 N323 1.388 . S
N324 C325 1.346 1_455 S
C325 N324 1.346 1_655 S
C325 C326 1.396 . S
C325 C335 1.510 1_556 S
C326 C322 1.401 . S
C326 C325 1.396 . S
C327 C322 1.499 1_455 S
C327 H328 0.959 . S
C327 H329 0.960 . S
C327 H330 0.961 1_455 S
H328 C327 0.959 . S
H329 C327 0.960 . S
H330 C327 0.961 1_655 S
O331 Co306 1.967 . S
O331 C339 1.258 . S
O332 Co307 1.941 . S
O332 C339 1.266 . S
H333 C335 0.959 . S
H334 C335 0.961 . S
C335 C325 1.510 1_554 S
C335 H333 0.959 . S
C335 H334 0.961 . S
C335 H336 0.960 . S
H336 C335 0.960 . S
H337 N317 0.862 1_556 S
O338 Co306 1.920 . S
O338 C311 1.289 . S
C339 O331 1.258 . S
C339 O332 1.266 . S
Co340 O343 1.970 . S
Co340 N357 1.989 . S
Co340 O365 1.967 . S
Co340 O372 1.920 . S
Co341 O344 1.966 . S
Co341 N350 2.022 1_545 S
Co341 N358 1.993 1_545 S
Co341 O366 1.941 . S
C342 O343 1.258 . S
C342 O344 1.263 . S
O343 Co340 1.970 . S
O343 C342 1.258 . S
O344 Co341 1.966 . S
O344 C342 1.263 . S
C345 O346 1.235 . S
C345 O372 1.289 . S
O346 C345 1.235 . S
C347 C349 1.400 . S
C347 N350 1.351 . S
C347 C352 1.501 1_565 S
C348 C349 1.387 . S
C348 N351 1.341 . S
C349 C347 1.400 . S
C349 C348 1.387 . S
N350 Co341 2.022 1_565 S
N350 C347 1.351 . S
N350 N351 1.365 . S
N351 C348 1.341 . S
N351 N350 1.365 . S
N351 H371 0.862 . S
C352 C347 1.501 1_545 S
C352 H353 0.961 . S
C352 H354 0.961 . S
C352 H355 0.960 . S
H353 C352 0.961 . S
H354 C352 0.961 . S
H355 C352 0.960 . S
C356 N357 1.342 1_565 S
C356 C360 1.401 . S
C356 C361 1.499 1_565 S
N357 Co340 1.989 . S
N357 C356 1.342 1_545 S
N357 N358 1.388 1_545 S
N358 Co341 1.993 1_565 S
N358 N357 1.388 1_565 S
N358 C359 1.346 . S
C359 N358 1.346 . S
C359 C360 1.396 . S
C359 C369 1.510 . S
C360 C356 1.401 . S
C360 C359 1.396 . S
C361 C356 1.499 1_545 S
C361 H362 0.959 . S
C361 H363 0.960 . S
C361 H364 0.961 1_545 S
H362 C361 0.959 . S
H363 C361 0.960 . S
H364 C361 0.961 1_565 S
O365 Co340 1.967 . S
O365 C373 1.258 . S
O366 Co341 1.941 . S
O366 C373 1.266 . S
H367 C369 0.959 . S
H368 C369 0.961 . S
C369 C359 1.510 . S
C369 H367 0.959 . S
C369 H368 0.961 . S
C369 H370 0.960 . S
H370 C369 0.960 . S
H371 N351 0.862 . S
O372 Co340 1.920 . S
O372 C345 1.289 . S
C373 O365 1.258 . S
C373 O366 1.266 . S
Co374 O377 1.970 . S
Co374 N391 1.989 . S
Co374 O399 1.967 . S
Co374 O406 1.920 . S
Co375 O378 1.966 . S
Co375 N384 2.022 . S
Co375 N392 1.993 . S
Co375 O400 1.941 . S
C376 O377 1.258 . S
C376 O378 1.263 . S
O377 Co374 1.970 . S
O377 C376 1.258 . S
O378 Co375 1.966 . S
O378 C376 1.263 . S
C379 O380 1.235 . S
C379 O406 1.289 . S
O380 C379 1.235 . S
C381 C383 1.400 . S
C381 N384 1.351 . S
C381 C386 1.501 . S
C382 C383 1.387 . S
C382 N385 1.341 . S
C383 C381 1.400 . S
C383 C382 1.387 . S
N384 Co375 2.022 . S
N384 C381 1.351 . S
N384 N385 1.365 . S
N385 C382 1.341 . S
N385 N384 1.365 . S
N385 H405 0.862 . S
C386 C381 1.501 . S
C386 H387 0.961 . S
C386 H388 0.961 . S
C386 H389 0.960 . S
H387 C386 0.961 . S
H388 C386 0.961 . S
H389 C386 0.960 . S
C390 N391 1.342 . S
C390 C394 1.401 . S
C390 C395 1.499 . S
N391 Co374 1.989 . S
N391 C390 1.342 . S
N391 N392 1.388 . S
N392 Co375 1.993 . S
N392 N391 1.388 . S
N392 C393 1.346 . S
C393 N392 1.346 . S
C393 C394 1.396 . S
C393 C403 1.510 . S
C394 C390 1.401 . S
C394 C393 1.396 . S
C395 C390 1.499 . S
C395 H396 0.959 . S
C395 H397 0.960 . S
C395 H398 0.961 . S
H396 C395 0.959 . S
H397 C395 0.960 . S
H398 C395 0.961 . S
O399 Co374 1.967 . S
O399 C407 1.258 . S
O400 Co375 1.941 . S
O400 C407 1.266 . S
H401 C403 0.959 . S
H402 C403 0.961 . S
C403 C393 1.510 . S
C403 H401 0.959 . S
C403 H402 0.961 . S
C403 H404 0.960 . S
H404 C403 0.960 . S
H405 N385 0.862 . S
O406 Co374 1.920 . S
O406 C379 1.289 . S
C407 O399 1.258 . S
C407 O400 1.266 . S
C20 C376 2.048 . S
C54 C206 2.047 . S
C240 C88 2.048 . S
C274 C122 2.048 . S
C156 C308 2.047 1_554 S
C190 C342 2.048 . S
C36 C224 2.048 . S
C258 C70 2.048 . S
C104 C292 2.048 . S
C326 C138 2.047 . S
C360 C172 2.048 . S
C2 C394 2.048 . S
C209 C5 0.880 . S
C39 C243 0.880 . S
C73 C277 0.880 . S
C107 C311 0.880 . S
C345 C141 0.880 . S
C379 C175 0.880 . S
C203 C9 1.465 . S
C33 C43 1.464 . S
C77 C67 1.464 . S
C111 C101 1.465 . S
C145 C135 1.463 . S
C179 C169 1.464 . S
C213 C271 1.465 . S
C305 C247 1.464 . S
C281 C339 1.463 . S
C315 C373 1.465 . S
C349 C407 1.464 . S
C383 C237 1.464 . S
