# Generated by pormake.
# Topology sxb, (6)-cn, num edge types: 1
# Building blocks:
#     Node 0, Type 0, BuildingBlock: HISSIN_clean_sbu_0, # of connection points: 6
#     Node 1, Type 0, BuildingBlock: HISSIN_clean_sbu_0, # of connection points: 6
#     Node 2, Type 0, BuildingBlock: HISSIN_clean_sbu_0, # of connection points: 6
#     Node 3, Type 0, BuildingBlock: HISSIN_clean_sbu_0, # of connection points: 6
#     Edge 4, Type (0, 0), BuildingBlock: UVAHIK_clean_linker_0, # of connection points: 2
#     Edge 5, Type (0, 0), BuildingBlock: UVAHIK_clean_linker_0, # of connection points: 2
#     Edge 6, Type (0, 0), BuildingBlock: UVAHIK_clean_linker_0, # of connection points: 2
#     Edge 7, Type (0, 0), BuildingBlock: UVAHIK_clean_linker_0, # of connection points: 2
#     Edge 8, Type (0, 0), BuildingBlock: UVAHIK_clean_linker_0, # of connection points: 2
#     Edge 9, Type (0, 0), BuildingBlock: UVAHIK_clean_linker_0, # of connection points: 2
#     Edge 10, Type (0, 0), BuildingBlock: UVAHIK_clean_linker_0, # of connection points: 2
#     Edge 11, Type (0, 0), BuildingBlock: UVAHIK_clean_linker_0, # of connection points: 2
#     Edge 12, Type (0, 0), BuildingBlock: UVAHIK_clean_linker_0, # of connection points: 2
#     Edge 13, Type (0, 0), BuildingBlock: UVAHIK_clean_linker_0, # of connection points: 2
#     Edge 14, Type (0, 0), BuildingBlock: UVAHIK_clean_linker_0, # of connection points: 2
#     Edge 15, Type (0, 0), BuildingBlock: UVAHIK_clean_linker_0, # of connection points: 2
# Relax obj value: 0.279
# Max RMSD: 0.106
# Mean RMSD: 0.081
data_MOF--net-sxb--node1-HISSIN_clean_sbu_0--edge1-UVAHIK_clean_linker_0
_symmetry_space_group_name_H-M    P1
_symmetry_Int_Tables_number       1
_symmetry_cell_setting            triclinic
loop_
_symmetry_equiv_pos_as_xyz
'x, y, z'
_cell_length_a     20.691762
_cell_length_b     42.82306
_cell_length_c     39.921949
_cell_angle_alpha  98.203186
_cell_angle_beta   93.210283
_cell_angle_gamma 69.525851
loop_
_atom_site_label
_atom_site_type_symbol
_atom_site_fract_x
_atom_site_fract_y
_atom_site_fract_z
_atom_type_partial_charge
Eu0 Eu 1.03077 1.03555 0.0088 0.0
Eu1 Eu 0.17541 1.04831 0.02202 0.0
C2 C 1.09029 1.03969 0.08456 0.0
C3 C 0.86731 1.05014 0.96362 0.0
C4 C 0.88424 0.0757 0.95194 0.0
C5 C 0.76811 0.06162 0.92602 0.0
C6 C 0.84428 0.09375 0.92716 0.0
C7 C 0.80929 1.043 0.95039 0.0
C8 C 0.78513 0.08728 0.91407 0.0
C9 C 0.91322 1.03037 -0.01177 0.0
O10 O 0.20493 0.99379 0.03055 0.0
O11 O 0.11229 0.98297 0.0037 0.0
C12 C 0.17449 0.97243 0.01739 0.0
O13 O 1.05709 0.05123 0.96132 0.0
O14 O 0.28369 1.03809 0.01115 0.0
O15 O 0.2298 0.08019 0.04815 0.0
O16 O 0.17349 1.03097 0.96601 0.0
C17 C 0.11787 1.04061 0.94735 0.0
O18 O 1.0018 0.09144 0.02683 0.0
O19 O 1.09755 0.09692 0.0072 0.0
O20 O 0.13266 0.05313 0.07415 0.0
O21 O 0.9722 1.00988 0.97578 0.0
O22 O 0.92074 1.04755 0.01702 0.0
O23 O 1.05216 1.02701 0.06331 0.0
C24 C 0.29672 0.08965 0.00731 0.0
C25 C 0.358 0.07862 -0.01113 0.0
C26 C 0.25246 0.13817 0.97651 0.0
C27 C 0.36581 0.09673 0.96389 0.0
C28 C 0.24461 0.12002 0.00146 0.0
C29 C 0.31235 0.12618 0.95682 0.0
C30 C 0.2825 0.06681 0.02784 0.0
C31 C 1.03338 0.11053 0.01749 0.0
H32 H 0.92858 0.0818 0.96204 0.0
H33 H 0.72206 0.05637 0.91722 0.0
H34 H 0.85976 0.11287 0.91844 0.0
H35 H 0.79557 1.0233 0.95906 0.0
H36 H 0.39858 0.05522 -0.00725 0.0
H37 H 0.2106 0.16081 0.97174 0.0
H38 H 0.4134 0.08735 0.94968 0.0
H39 H 0.19642 0.12909 0.01511 0.0
Eu40 Eu 0.1372 0.99259 0.50975 0.0
Eu41 Eu 1.07544 0.07314 0.519 0.0
C42 C 0.12329 1.03416 0.58468 0.0
C43 C 0.16283 0.90278 0.47487 0.0
C44 C 0.20409 0.86875 0.47035 0.0
C45 C 1.07434 0.89011 0.43911 0.0
C46 C 0.17982 0.84527 0.45088 0.0
C47 C 0.09888 0.9135 0.45829 0.0
C48 C 0.11364 0.85559 0.43599 0.0
C49 C 0.18478 0.92699 0.4979 0.0
O50 O 0.19111 0.06022 0.50797 0.0
O51 O 0.23256 1.00755 0.52386 0.0
C52 C 0.24394 1.03416 0.51609 0.0
O53 O 0.13824 1.00729 0.45798 0.0
O54 O 1.03353 0.12245 0.54929 0.0
O55 O 1.04347 0.11878 0.49512 0.0
O56 O 1.04818 0.05645 0.46548 0.0
C57 C 1.08979 1.03161 0.44536 0.0
O58 O 1.01953 1.00512 0.50145 0.0
O59 O 0.98141 0.05906 0.52854 0.0
O60 O 0.11625 0.06138 0.57115 0.0
O61 O 0.20859 0.94611 0.48349 0.0
O62 O 0.1418 0.94395 0.52214 0.0
O63 O 0.12337 1.00635 0.56601 0.0
C64 C 1.06822 0.16252 0.52767 0.0
C65 C 1.04141 0.19198 0.51247 0.0
C66 C 0.17664 0.17224 0.53765 0.0
C67 C 1.08279 0.21095 0.50886 0.0
C68 C 0.13538 0.15322 0.54109 0.0
C69 C 0.15163 0.20057 0.52036 0.0
C70 C 1.03147 0.13862 0.52371 0.0
C71 C 0.96847 1.03179 0.51511 0.0
H72 H 0.25402 0.86022 0.48269 0.0
H73 H 1.02283 0.89899 0.42849 0.0
H74 H 0.21173 0.81893 0.44855 0.0
H75 H 1.0667 0.93983 0.46134 0.0
H76 H 0.98999 0.19916 0.50153 0.0
H77 H 0.22909 0.16394 0.54726 0.0
H78 H 1.06223 0.23246 0.49514 0.0
H79 H 0.15724 0.13025 0.55253 0.0
Eu80 Eu 0.52995 0.53555 0.01112 0.0
Eu81 Eu 0.67627 0.54584 0.01781 0.0
C82 C 0.597 0.54535 0.08537 0.0
C83 C 0.37115 0.53931 0.96456 0.0
C84 C 0.36462 0.57104 0.95603 0.0
C85 C 0.31551 0.52779 0.91144 0.0
C86 C 0.33327 0.58115 0.92561 0.0
C87 C 0.3463 0.51779 0.94205 0.0
C88 C 0.30895 0.55952 0.9029 0.0
C89 C 0.41478 0.5264 -0.0066 0.0
O90 O 0.70125 0.49364 0.03228 0.0
O91 O 0.61121 0.48295 0.00371 0.0
C92 C 0.67181 0.47217 0.01866 0.0
O93 O 0.5484 0.5522 0.9626 0.0
O94 O 0.78867 0.52576 0.01553 0.0
O95 O 0.73581 0.57948 0.0201 0.0
O96 O 0.66333 0.52553 0.9635 0.0
C97 C 0.60684 0.53869 0.94648 0.0
O98 O 0.50014 0.5918 0.0261 0.0
O99 O 0.59835 0.59667 0.00796 0.0
O100 O 0.64089 0.55619 0.07207 0.0
O101 O 0.47483 0.50429 -0.0154 0.0
O102 O 0.41924 0.5486 0.01868 0.0
O103 O 0.55573 0.53238 0.06656 0.0
C104 C 0.82011 0.55568 0.97781 0.0
C105 C 0.82798 0.52913 0.95134 0.0
C106 C 0.84495 0.5881 0.93817 0.0
C107 C 0.84404 0.53204 0.91876 0.0
C108 C 0.82903 0.58515 0.97093 0.0
C109 C 0.85235 0.56158 0.91176 0.0
C110 C 0.79212 0.55461 0.0107 0.0
C111 C 0.53367 0.6105 0.01775 0.0
H112 H 0.38542 0.58772 0.97243 0.0
H113 H 0.29604 0.51087 0.89461 0.0
H114 H 0.32884 0.60571 0.91962 0.0
H115 H 0.35239 0.49292 0.94776 0.0
H116 H 0.81995 0.5063 0.95544 0.0
H117 H 0.85235 0.61095 0.9336 0.0
H118 H 0.84918 0.51126 0.89889 0.0
H119 H 0.82213 0.60616 -0.00928 0.0
Eu120 Eu 0.6372 0.51407 0.51288 0.0
Eu121 Eu 0.57695 0.59473 0.52441 0.0
C122 C 0.61192 0.55369 0.58694 0.0
C123 C 0.65523 0.42365 0.48612 0.0
C124 C 0.67865 0.39118 0.49527 0.0
C125 C 0.56556 0.41083 0.4514 0.0
C126 C 0.64448 0.36885 0.48328 0.0
C127 C 0.59957 0.43315 0.4635 0.0
C128 C 0.58629 0.37884 0.46204 0.0
C129 C 0.6841 0.44855 0.50278 0.0
O130 O 0.69433 0.5824 0.53137 0.0
O131 O 0.73271 0.52788 0.50594 0.0
C132 C 0.74535 0.55539 0.5186 0.0
O133 O 0.59157 0.52949 0.46275 0.0
O134 O 0.56486 0.64224 0.55614 0.0
O135 O 0.51855 0.64244 0.50609 0.0
O136 O 0.60968 0.57936 0.46973 0.0
C137 C 0.59866 0.55455 0.44989 0.0
O138 O 0.52096 0.52571 0.52076 0.0
O139 O 0.47826 0.58185 0.51472 0.0
O140 O 0.56359 0.57771 0.57367 0.0
O141 O 0.69784 0.46721 0.48308 0.0
O142 O 0.65262 0.46603 0.53038 0.0
O143 O 0.65825 0.53037 0.56742 0.0
C144 C 0.57468 0.68107 0.52231 0.0
C145 C 0.54061 0.70889 0.5053 0.0
C146 C 0.68425 0.68672 0.51224 0.0
C147 C 0.57846 0.72531 0.49138 0.0
C148 C 0.64665 0.67053 0.52613 0.0
C149 C 0.65087 0.71397 0.49425 0.0
C150 C 0.53748 0.66001 0.53163 0.0
C151 C 0.46786 0.55358 0.51757 0.0
H152 H 0.72132 0.38363 0.51289 0.0
H153 H 0.52136 0.41907 0.43479 0.0
H154 H 0.6611 0.34456 0.49231 0.0
H155 H 0.58071 0.45828 0.45629 0.0
H156 H 0.48517 0.71711 0.50174 0.0
H157 H 0.73996 0.67679 0.51436 0.0
H158 H 0.55126 0.7464 0.47787 0.0
H159 H 0.67446 0.64881 0.53865 0.0
C160 C 0.52848 0.66771 0.005 0.0
C161 C 0.49715 0.64771 0.01816 0.0
C162 C 0.49393 0.70247 0.00496 0.0
C163 C 0.3173 0.76962 0.01488 0.0
H164 H 0.42217 0.82965 0.02371 0.0
C165 C 0.18606 0.91152 -0.00098 0.0
C166 C 0.2114 0.93533 0.01772 0.0
C167 C 0.22078 0.87678 -0.00094 0.0
C168 C 0.39153 0.8135 0.02159 0.0
H169 H 0.40418 0.64936 0.04194 0.0
H170 H 0.345 0.70966 0.04277 0.0
H171 H 0.48155 0.76983 0.02496 0.0
H172 H 0.29364 0.94057 0.05158 0.0
H173 H 0.35282 0.88048 0.0525 0.0
H174 H 0.22705 0.81342 0.0128 0.0
C175 C 0.39581 0.69851 0.03165 0.0
C176 C 0.42606 0.77876 0.02175 0.0
C177 C 0.43018 0.66371 0.03144 0.0
C178 C 0.2725 0.92319 0.03665 0.0
C179 C 0.30692 0.88844 0.03696 0.0
C180 C 0.28272 0.80438 0.01496 0.0
C181 C 0.42688 0.71863 0.01833 0.0
C182 C 0.3897 0.75606 0.01833 0.0
C183 C 0.28189 0.86449 0.0181 0.0
C184 C 0.3191 0.82708 0.01824 0.0
H185 H 0.57973 0.65646 -0.00568 0.0
H186 H 0.51974 0.71653 -0.00613 0.0
H187 H 0.28686 0.75335 0.01169 0.0
H188 H 0.13952 0.91968 0.98391 0.0
H189 H 0.19994 0.85958 0.98363 0.0
C190 C 0.68252 0.41136 0.00068 0.0
C191 C 0.7083 0.4351 0.01919 0.0
C192 C 0.71723 0.37661 0.00061 0.0
C193 C 0.8888 0.31329 0.02148 0.0
H194 H 0.7843 0.25311 0.01346 0.0
C195 C 1.02559 0.16761 0.0034 0.0
C196 C 0.9959 0.14761 0.01772 0.0
C197 C 0.9906 0.20234 0.00355 0.0
C198 C 0.81468 0.2694 0.01609 0.0
H199 H 0.7913 0.44023 0.05255 0.0
H200 H 0.85061 0.38008 0.05319 0.0
H201 H 0.72412 0.31326 0.01503 0.0
H202 H 0.90523 0.14911 0.04348 0.0
H203 H 0.84512 0.20941 0.04449 0.0
H204 H 0.97921 0.26956 0.02371 0.0
C205 C 0.80426 0.38814 0.03796 0.0
C206 C 0.77989 0.30419 0.01647 0.0
C207 C 0.76977 0.42289 0.03782 0.0
C208 C 0.92993 0.1635 0.03213 0.0
C209 C 0.89507 0.19829 0.03247 0.0
C210 C 0.92356 0.27853 0.0213 0.0
C211 C 0.77883 0.36426 0.01926 0.0
C212 C 0.81623 0.32686 0.01911 0.0
C213 C 0.92468 0.21843 0.01818 0.0
C214 C 0.88724 0.25585 0.01853 0.0
H215 H 0.63566 0.41957 -0.01419 0.0
H216 H 0.69607 0.35944 -0.01465 0.0
H217 H 0.91933 0.32946 0.0231 0.0
H218 H 1.07586 0.1564 -0.0083 0.0
H219 H 1.01513 0.21644 -0.00834 0.0
C220 C 0.17661 0.25218 0.51194 0.0
C221 C 0.19896 0.21712 0.51128 0.0
C222 C 0.21994 0.26728 0.50089 0.0
C223 C 0.40166 0.25407 0.48782 0.0
H224 H 0.32765 0.32547 0.43152 0.0
C225 C 0.57189 0.32261 0.44816 0.0
C226 C 0.54241 0.35779 0.4549 0.0
C227 C 0.53077 0.30269 0.44741 0.0
C228 C 0.34901 0.30556 0.44721 0.0
H229 H 0.28408 0.17038 0.49823 0.0
H230 H 0.35995 0.19686 0.47958 0.0
H231 H 0.25374 0.29643 0.44757 0.0
H232 H 0.44637 0.39972 0.46449 0.0
H233 H 0.37506 0.36515 0.46322 0.0
H234 H 0.49611 0.26384 0.48854 0.0
C235 C 0.30917 0.21263 0.48887 0.0
C236 C 0.3067 0.28906 0.45648 0.0
C237 C 0.26582 0.19753 0.49977 0.0
C238 C 0.47058 0.37271 0.45874 0.0
C239 C 0.4296 0.35285 0.45803 0.0
C240 C 0.44387 0.27064 0.47869 0.0
C241 C 0.28645 0.2476 0.48907 0.0
C242 C 0.33233 0.26359 0.47738 0.0
C243 C 0.45953 0.31763 0.45345 0.0
C244 C 0.41762 0.29699 0.45882 0.0
H245 H 0.12564 0.26794 0.52097 0.0
H246 H 0.20162 0.29438 0.50186 0.0
H247 H 0.42256 0.23469 0.50418 0.0
H248 H 0.62701 0.31048 0.44463 0.0
H249 H 0.55504 0.27559 0.44326 0.0
C250 C 1.08936 0.80296 0.43887 0.0
C251 C 1.08117 0.83062 0.42183 0.0
C252 C 1.04675 0.78392 0.43123 0.0
C253 C 0.8695 0.79919 0.40515 0.0
H254 H 0.91569 0.70841 0.42671 0.0
C255 C 0.67671 0.73682 0.44389 0.0
C256 C 0.69283 0.72871 0.47704 0.0
C257 C 0.72174 0.74651 0.4263 0.0
C258 C 0.90209 0.73357 0.41998 0.0
H259 H 1.02726 0.85756 0.38068 0.0
H260 H 0.95191 0.82433 0.36757 0.0
H261 H 1.00691 0.72697 0.41025 0.0
H262 H 0.7663 0.72664 0.51843 0.0
H263 H 0.84537 0.7425 0.48736 0.0
H264 H 0.76491 0.80602 0.41654 0.0
C265 C 0.99075 0.81779 0.3872 0.0
C266 C 0.95412 0.74423 0.41068 0.0
C267 C 1.03375 0.83683 0.39477 0.0
C268 C 0.7532 0.73187 0.49266 0.0
C269 C 0.79845 0.74092 0.47495 0.0
C270 C 0.81727 0.78833 0.41405 0.0
C271 C 0.99479 0.79211 0.40641 0.0
C272 C 0.93893 0.77776 0.40517 0.0
C273 C 0.78373 0.74766 0.44149 0.0
C274 C 0.83396 0.75606 0.42324 0.0
H275 H 0.12464 0.79762 0.4601 0.0
H276 H 1.05085 0.76463 0.4469 0.0
H277 H 0.85601 0.82524 0.40129 0.0
H278 H 0.63087 0.73439 0.43106 0.0
H279 H 0.70939 0.75198 0.40056 0.0
C280 C 0.30359 0.17902 0.93346 0.0
C281 C 0.31993 0.14398 0.92889 0.0
C282 C 0.32502 0.19447 0.90977 0.0
C283 C 0.44147 0.17104 0.83353 0.0
H284 H 0.54864 0.20689 0.90031 0.0
C285 C 0.69929 0.09579 0.86611 0.0
C286 C 0.73826 0.10891 0.89027 0.0
C287 C 0.64351 0.11729 0.84981 0.0
C288 C 0.51952 0.19769 0.88044 0.0
H289 H 0.36035 0.09855 0.89352 0.0
H290 H 0.40064 0.12458 0.85342 0.0
H291 H 0.43043 0.21735 0.9112 0.0
H292 H 0.75589 0.15486 0.91189 0.0
H293 H 0.66097 0.19195 0.88237 0.0
H294 H 0.53404 0.14834 0.80449 0.0
C295 C 0.3714 0.14072 0.87484 0.0
C296 C 0.45037 0.20385 0.8868 0.0
C297 C 0.34961 0.12543 0.8983 0.0
C298 C 0.72655 0.14366 0.8939 0.0
C299 C 0.67158 0.16512 0.87703 0.0
C300 C 0.51103 0.16473 0.82719 0.0
C301 C 0.3642 0.17499 0.88152 0.0
C302 C 0.41368 0.18665 0.86557 0.0
C303 C 0.62576 0.15246 0.85711 0.0
C304 C 0.5526 0.17431 0.85276 0.0
H305 H 0.27931 0.19411 0.95653 0.0
H306 H 0.31657 0.2211 0.91525 0.0
H307 H 0.41302 0.15928 0.81552 0.0
H308 H 0.70874 0.06903 0.86148 0.0
H309 H 0.61039 0.1062 0.83438 0.0
C310 C 0.37473 1.00742 0.52603 0.0
C311 C 0.31797 1.03445 0.51619 0.0
C312 C 0.4435 1.00725 0.52583 0.0
C313 C 0.55074 0.06351 0.5185 0.0
H314 H 0.70232 0.97854 0.50893 0.0
C315 C 0.84026 0.05909 0.53131 0.0
C316 C 0.89436 1.03161 0.51504 0.0
C317 C 0.77141 0.05935 0.53128 0.0
C318 C 0.6613 1.00275 0.51131 0.0
H319 H 0.29231 0.08282 0.49832 0.0
H320 H 0.4106 0.08236 0.49725 0.0
H321 H 0.58438 0.97928 0.50822 0.0
H322 H 0.91504 0.98263 0.48563 0.0
H323 H 0.7964 0.9832 0.48492 0.0
H324 H 0.62757 0.08695 0.52045 0.0
C325 C 0.40247 0.06118 0.50584 0.0
C326 C 0.59226 1.00321 0.51145 0.0
C327 C 0.33356 0.0614 0.5062 0.0
C328 C 0.87596 1.00435 0.49867 0.0
C329 C 0.80691 1.00465 0.49849 0.0
C330 C 0.61977 0.06305 0.51823 0.0
C331 C 0.45963 1.03404 0.51559 0.0
C332 C 0.53479 1.0336 0.51515 0.0
C333 C 0.75247 1.03219 0.5148 0.0
C334 C 0.67726 1.03265 0.51474 0.0
H335 H 0.36615 0.98611 0.53411 0.0
H336 H 0.48401 0.98596 0.53428 0.0
H337 H 0.50981 0.08774 0.52181 0.0
H338 H 0.85106 0.08068 0.54442 0.0
H339 H 0.73318 0.081 0.54482 0.0
C340 C 0.92905 0.53678 0.86183 0.0
C341 C 0.87449 0.56358 0.87773 0.0
C342 C 0.95966 0.54052 0.83322 0.0
C343 C 0.98879 0.61159 0.80282 0.0
H344 H 0.14865 0.53375 0.77542 0.0
C345 C 0.28363 0.54987 0.84081 0.0
C346 C 0.27116 0.57097 0.87182 0.0
C347 C 0.23738 0.55765 0.81374 0.0
C348 C 0.10495 0.55634 0.78215 0.0
H349 H 0.80239 0.61362 0.87348 0.0
H350 H 0.85443 0.62008 0.82275 0.0
H351 H 1.03716 0.52815 0.77435 0.0
H352 H 0.20623 0.61872 0.89756 0.0
H353 H 0.12472 0.63162 0.85221 0.0
H354 H 1.05552 0.64028 0.80818 0.0
C355 C 0.87602 0.59655 0.83312 0.0
C356 C 1.04028 0.55288 0.78198 0.0
C357 C 0.84601 0.59293 0.86224 0.0
C358 C 0.21655 0.60173 0.87405 0.0
C359 C 0.16961 0.60918 0.84742 0.0
C360 C 1.05274 0.61545 0.80095 0.0
C361 C 0.93644 0.57127 0.81955 0.0
C362 C 0.98446 0.57914 0.79809 0.0
C363 C 0.17612 0.58596 0.81771 0.0
C364 C 0.11303 0.58677 0.79675 0.0
H365 H 0.95199 0.51375 0.87307 0.0
H366 H 1.00576 0.52011 0.82423 0.0
H367 H 0.94607 0.63347 0.81267 0.0
H368 H 0.32707 0.52647 0.83812 0.0
H369 H 0.24732 0.53996 0.79081 0.0
C370 C 0.33695 0.58144 0.50979 0.0
C371 C 0.39394 0.55341 0.51742 0.0
C372 C 0.26824 0.58161 0.50979 0.0
C373 C 0.16163 0.52429 0.51313 0.0
H374 H 1.01039 0.60918 0.5268 0.0
C375 C 0.8728 0.52856 0.5015 0.0
C376 C 0.81914 0.55566 0.51848 0.0
C377 C 0.9414 0.52848 0.5013 0.0
C378 C 1.05132 0.58497 0.52329 0.0
H379 H 0.42029 0.50337 0.53134 0.0
H380 H 0.30215 0.50385 0.53239 0.0
H381 H 0.12809 0.60851 0.52781 0.0
H382 H 0.79867 0.60415 0.54888 0.0
H383 H 0.91696 0.60376 0.54947 0.0
H384 H 1.08507 0.5007 0.51006 0.0
C385 C 0.30993 0.52578 0.52547 0.0
C386 C 0.12023 0.58459 0.52329 0.0
C387 C 0.37877 0.52552 0.52512 0.0
C388 C 0.83753 0.58273 0.53532 0.0
C389 C 0.90637 0.58253 0.5354 0.0
C390 C 1.09277 0.52466 0.51343 0.0
C391 C 0.25252 0.55385 0.51779 0.0
C392 C 0.17754 0.55424 0.51809 0.0
C393 C 0.96045 0.55537 0.51838 0.0
C394 C 1.03544 0.55502 0.51839 0.0
H395 H 0.34532 0.60349 0.50347 0.0
H396 H 0.22751 0.60368 0.50296 0.0
H397 H 0.20238 0.50011 0.50854 0.0
H398 H 0.86179 0.50719 0.48794 0.0
H399 H 0.97929 0.50718 0.48712 0.0
C400 C 0.12926 1.00468 0.38653 0.0
C401 C 1.08398 1.03133 0.40803 0.0
C402 C 0.12656 1.00492 0.35149 0.0
C403 C 1.01626 1.0434 0.28127 0.0
H404 H 0.19091 1.01625 0.23487 0.0
C405 C 1.03888 1.02675 0.13446 0.0
C406 C 1.08616 1.03886 0.12151 0.0
C407 C 1.0361 1.02576 0.16931 0.0
C408 C 0.14163 1.02409 0.24742 0.0
H409 H 0.99915 0.07883 0.40923 0.0
H410 H 0.99468 0.0793 0.34797 0.0
H411 H 0.18988 1.01495 0.2956 0.0
H412 H 0.16726 0.05964 0.13539 0.0
H413 H 0.16223 0.05796 0.19575 0.0
H414 H 0.96814 0.05302 0.23297 0.0
C415 C 1.03203 0.05809 0.3583 0.0
C416 C 0.14104 1.02298 0.28223 0.0
C417 C 1.03483 0.05789 0.39346 0.0
C418 C 0.13027 1.05006 0.1443 0.0
C419 C 0.12771 1.04892 0.17901 0.0
C420 C 1.01686 1.04435 0.24632 0.0
C421 C 1.07846 1.03178 0.33691 0.0
C422 C 1.07841 1.03269 0.29967 0.0
C423 C 1.08085 1.03663 0.19199 0.0
C424 C 1.07961 1.03488 0.229 0.0
H425 H 0.1675 0.98367 0.39675 0.0
H426 H 0.16233 0.98398 0.33577 0.0
H427 H 0.96711 1.0508 0.29384 0.0
H428 H 1.00409 1.01793 0.11771 0.0
H429 H 0.99975 1.0159 0.17842 0.0
C430 C 0.18605 1.03447 0.89485 0.0
C431 C 0.12262 1.04056 0.91035 0.0
C432 C 0.18946 1.03437 0.85982 0.0
C433 C 1.09525 1.02225 0.78056 0.0
H434 H 0.20429 0.06559 0.74201 0.0
C435 C 0.12788 0.06423 0.64344 0.0
C436 C 0.12994 1.03477 0.62205 0.0
C437 C 0.13115 0.06485 0.67872 0.0
C438 C 0.17338 0.05349 0.75241 0.0
H439 H 1.01294 0.05164 0.90108 0.0
H440 H 1.01904 0.05132 0.8404 0.0
H441 H 0.2014 0.06727 0.80352 0.0
H442 H 0.13901 0.98259 0.62124 0.0
H443 H 0.14496 0.98372 0.68237 0.0
H444 H 1.06642 1.00879 0.72976 0.0
C445 C 1.06626 1.04638 0.85516 0.0
C446 C 0.17227 0.05417 0.78761 0.0
C447 C 1.06277 1.04674 0.89007 0.0
C448 C 0.13674 1.00583 0.63681 0.0
C449 C 0.13982 1.00649 0.67196 0.0
C450 C 1.09671 1.02138 0.74548 0.0
C451 C 0.12962 1.04002 0.83953 0.0
C452 C 0.13282 1.03871 0.80211 0.0
C453 C 0.13628 1.03608 0.69341 0.0
C454 C 0.13565 1.03702 0.7309 0.0
H455 H 0.23307 1.02979 0.90975 0.0
H456 H 0.23913 1.02921 0.84853 0.0
H457 H 1.0649 1.00978 0.79082 0.0
H458 H 0.12271 0.08698 0.633 0.0
H459 H 0.12778 0.08814 0.69449 0.0
C460 C 0.58774 0.58385 0.39848 0.0
C461 C 0.59559 0.55447 0.4126 0.0
C462 C 0.58523 0.58367 0.36331 0.0
C463 C 0.61918 0.57353 0.28873 0.0
H464 H 0.53984 0.51509 0.23141 0.0
C465 C 0.64873 0.55258 0.14318 0.0
C466 C 0.59481 0.54735 0.12282 0.0
C467 C 0.64739 0.55392 0.17839 0.0
C468 C 0.56147 0.53193 0.24693 0.0
H469 H 0.60763 0.50174 0.40071 0.0
H470 H 0.60581 0.50105 0.33963 0.0
H471 H 0.53733 0.51753 0.29246 0.0
H472 H 0.49647 0.54001 0.12376 0.0
H473 H 0.49286 0.54348 0.18508 0.0
H474 H 0.64065 0.58902 0.24328 0.0
C475 C 0.59948 0.52459 0.35555 0.0
C476 C 0.56107 0.53291 0.28214 0.0
C477 C 0.60102 0.5249 0.39071 0.0
C478 C 0.53917 0.54382 0.13861 0.0
C479 C 0.53736 0.5456 0.17389 0.0
C480 C 0.61883 0.57285 0.25355 0.0
C481 C 0.59148 0.55398 0.34126 0.0
C482 C 0.59035 0.55355 0.30362 0.0
C483 C 0.59162 0.55052 0.19435 0.0
C484 C 0.59042 0.55186 0.23204 0.0
H485 H 0.58284 0.60714 0.41462 0.0
H486 H 0.57765 0.607 0.35349 0.0
H487 H 0.64308 0.58945 0.30418 0.0
H488 H 0.69273 0.55512 0.13188 0.0
H489 H 0.69088 0.55707 0.193 0.0
C490 C 0.67131 0.53075 0.63942 0.0
C491 C 0.61372 0.55263 0.62403 0.0
C492 C 0.67267 0.52951 0.67434 0.0
C493 C 0.58522 0.57721 0.75488 0.0
H494 H 0.67267 0.49168 0.78887 0.0
C495 C 0.54975 0.55746 0.89212 0.0
C496 C 0.60919 0.53961 0.90954 0.0
C497 C 0.5521 0.55918 0.85749 0.0
C498 C 0.6486 0.5158 0.77979 0.0
H499 H 0.51206 0.59019 0.63335 0.0
H500 H 0.51345 0.58738 0.69386 0.0
H501 H 0.67277 0.49441 0.72828 0.0
H502 H 0.71756 0.50922 0.90399 0.0
H503 H 0.72154 0.51213 0.84346 0.0
H504 H 0.55968 0.59833 0.80647 0.0
C505 C 0.55853 0.57174 0.67924 0.0
C506 C 0.6488 0.51744 0.74501 0.0
C507 C 0.5575 0.57322 0.64439 0.0
C508 C 0.67089 0.52323 0.89139 0.0
C509 C 0.6731 0.52475 0.85666 0.0
C510 C 0.5844 0.57547 0.7896 0.0
C511 C 0.61615 0.54988 0.69477 0.0
C512 C 0.61696 0.54817 0.732 0.0
C513 C 0.61378 0.54287 0.83934 0.0
C514 C 0.61592 0.54475 0.80247 0.0
H515 H 0.71573 0.51468 0.62454 0.0
H516 H 0.71849 0.51279 0.68532 0.0
H517 H 0.56144 0.60146 0.74608 0.0
H518 H 0.5013 0.57034 0.90526 0.0
H519 H 0.50532 0.57301 0.84481 0.0
loop_
_geom_bond_atom_site_label_1
_geom_bond_atom_site_label_2
_geom_bond_distance
_geom_bond_site_symmetry_2
_ccdc_geom_bond_type
Eu0 C9 2.828 . S
Eu0 O11 2.392 1_655 S
Eu0 O13 2.418 . S
Eu0 O18 2.373 1_565 S
Eu0 O21 2.488 . S
Eu0 O22 2.471 1_556 S
Eu0 O23 2.349 1_556 S
Eu1 O10 2.373 1_545 S
Eu1 O14 2.488 . S
Eu1 O15 2.471 1_554 S
Eu1 O16 2.349 1_554 S
Eu1 O19 2.392 1_455 S
Eu1 O20 2.418 . S
Eu1 C30 2.828 . S
C2 O20 1.244 . S
C2 O23 1.265 1_445 S
C3 C4 1.379 1_556 S
C3 C7 1.373 1_545 S
C3 C9 1.505 1_545 S
C4 C3 1.379 1_554 S
C4 C6 1.369 . S
C4 H32 0.930 . S
C5 C7 1.383 1_545 S
C5 C8 1.382 1_556 S
C5 H33 0.930 . S
C6 C4 1.369 . S
C6 C8 1.392 . S
C6 H34 0.930 . S
C7 C3 1.373 1_565 S
C7 C5 1.383 1_565 S
C7 H35 0.931 . S
C8 C5 1.382 1_554 S
C8 C6 1.392 . S
C9 Eu0 2.828 . S
C9 C3 1.505 1_565 S
C9 O21 1.249 . S
C9 O22 1.244 1_556 S
O10 Eu1 2.373 1_565 S
O10 C12 1.258 . S
O11 Eu0 2.392 1_455 S
O11 C12 1.242 1_556 S
C12 O10 1.258 . S
C12 O11 1.242 1_554 S
O13 Eu0 2.418 . S
O13 C17 1.244 . S
O14 Eu1 2.488 . S
O14 C30 1.249 . S
O15 Eu1 2.471 1_556 S
O15 C30 1.244 1_556 S
O16 Eu1 2.349 1_556 S
O16 C17 1.265 1_445 S
C17 O13 1.244 . S
C17 O16 1.265 1_665 S
O18 Eu0 2.373 1_545 S
O18 C31 1.258 1_556 S
O19 Eu1 2.392 1_655 S
O19 C31 1.242 . S
O20 Eu1 2.418 . S
O20 C2 1.244 . S
O21 Eu0 2.488 . S
O21 C9 1.249 . S
O22 Eu0 2.471 1_554 S
O22 C9 1.244 1_554 S
O23 Eu0 2.349 1_554 S
O23 C2 1.265 1_665 S
C24 C25 1.379 1_554 S
C24 C28 1.373 1_565 S
C24 C30 1.505 1_565 S
C25 C24 1.379 1_556 S
C25 C27 1.369 . S
C25 H36 0.930 . S
C26 C28 1.383 1_565 S
C26 C29 1.382 1_554 S
C26 H37 0.930 . S
C27 C25 1.369 . S
C27 C29 1.392 . S
C27 H38 0.930 . S
C28 C24 1.373 1_545 S
C28 C26 1.383 1_545 S
C28 H39 0.931 . S
C29 C26 1.382 1_556 S
C29 C27 1.392 . S
C30 Eu1 2.828 . S
C30 O14 1.249 . S
C30 O15 1.244 1_554 S
C30 C24 1.505 1_545 S
C31 O18 1.258 1_554 S
C31 O19 1.242 . S
H32 C4 0.930 . S
H33 C5 0.930 . S
H34 C6 0.930 . S
H35 C7 0.931 . S
H36 C25 0.930 . S
H37 C26 0.930 . S
H38 C27 0.930 . S
H39 C28 0.931 . S
Eu40 C49 2.828 1_455 S
Eu40 O51 2.392 . S
Eu40 O53 2.418 1_455 S
Eu40 O58 2.373 1_455 S
Eu40 O61 2.488 1_455 S
Eu40 O62 2.471 1_455 S
Eu40 O63 2.349 . S
Eu41 O50 2.373 1_655 S
Eu41 O54 2.488 1_655 S
Eu41 O55 2.471 1_655 S
Eu41 O56 2.349 . S
Eu41 O59 2.392 . S
Eu41 O60 2.418 1_655 S
Eu41 C70 2.828 1_655 S
C42 O60 1.244 . S
C42 O63 1.265 1_545 S
C43 C44 1.379 . S
C43 C47 1.373 . S
C43 C49 1.505 . S
C44 C43 1.379 . S
C44 C46 1.369 . S
C44 H72 0.930 . S
C45 C47 1.383 . S
C45 C48 1.382 . S
C45 H73 0.930 . S
C46 C44 1.369 . S
C46 C48 1.392 . S
C46 H74 0.930 . S
C47 C43 1.373 . S
C47 C45 1.383 . S
C47 H75 0.931 . S
C48 C45 1.382 . S
C48 C46 1.392 . S
C49 Eu40 2.828 1_655 S
C49 C43 1.505 . S
C49 O61 1.249 . S
C49 O62 1.244 . S
O50 Eu41 2.373 1_455 S
O50 C52 1.258 1_545 S
O51 Eu40 2.392 . S
O51 C52 1.242 . S
C52 O50 1.258 1_565 S
C52 O51 1.242 . S
O53 Eu40 2.418 1_655 S
O53 C57 1.244 . S
O54 Eu41 2.488 1_455 S
O54 C70 1.249 . S
O55 Eu41 2.471 1_455 S
O55 C70 1.244 . S
O56 Eu41 2.349 . S
O56 C57 1.265 1_545 S
C57 O53 1.244 . S
C57 O56 1.265 1_565 S
O58 Eu40 2.373 1_655 S
O58 C71 1.258 1_565 S
O59 Eu41 2.392 . S
O59 C71 1.242 . S
O60 Eu41 2.418 1_455 S
O60 C42 1.244 . S
O61 Eu40 2.488 1_655 S
O61 C49 1.249 . S
O62 Eu40 2.471 1_655 S
O62 C49 1.244 . S
O63 Eu40 2.349 . S
O63 C42 1.265 1_565 S
C64 C65 1.379 . S
C64 C68 1.373 . S
C64 C70 1.505 . S
C65 C64 1.379 . S
C65 C67 1.369 . S
C65 H76 0.930 . S
C66 C68 1.383 . S
C66 C69 1.382 . S
C66 H77 0.930 . S
C67 C65 1.369 . S
C67 C69 1.392 . S
C67 H78 0.930 . S
C68 C64 1.373 . S
C68 C66 1.383 . S
C68 H79 0.931 . S
C69 C66 1.382 . S
C69 C67 1.392 . S
C70 Eu41 2.828 1_455 S
C70 O54 1.249 . S
C70 O55 1.244 . S
C70 C64 1.505 . S
C71 O58 1.258 1_545 S
C71 O59 1.242 . S
H72 C44 0.930 . S
H73 C45 0.930 . S
H74 C46 0.930 . S
H75 C47 0.931 . S
H76 C65 0.930 . S
H77 C66 0.930 . S
H78 C67 0.930 . S
H79 C68 0.931 . S
Eu80 C89 2.828 . S
Eu80 O91 2.392 . S
Eu80 O93 2.418 . S
Eu80 O98 2.373 . S
Eu80 O101 2.488 . S
Eu80 O102 2.471 1_556 S
Eu80 O103 2.349 1_556 S
Eu81 O90 2.373 . S
Eu81 O94 2.488 . S
Eu81 O95 2.471 1_554 S
Eu81 O96 2.349 1_554 S
Eu81 O99 2.392 . S
Eu81 O100 2.418 . S
Eu81 C110 2.828 . S
C82 O100 1.244 . S
C82 O103 1.265 . S
C83 C84 1.379 1_556 S
C83 C87 1.373 . S
C83 C89 1.505 . S
C84 C83 1.379 1_554 S
C84 C86 1.369 . S
C84 H112 0.930 . S
C85 C87 1.383 . S
C85 C88 1.382 1_556 S
C85 H113 0.930 . S
C86 C84 1.369 . S
C86 C88 1.392 . S
C86 H114 0.930 . S
C87 C83 1.373 . S
C87 C85 1.383 . S
C87 H115 0.931 . S
C88 C85 1.382 1_554 S
C88 C86 1.392 . S
C89 Eu80 2.828 . S
C89 C83 1.505 . S
C89 O101 1.249 . S
C89 O102 1.244 1_556 S
O90 Eu81 2.373 . S
O90 C92 1.258 . S
O91 Eu80 2.392 . S
O91 C92 1.242 1_556 S
C92 O90 1.258 . S
C92 O91 1.242 1_554 S
O93 Eu80 2.418 . S
O93 C97 1.244 . S
O94 Eu81 2.488 . S
O94 C110 1.249 . S
O95 Eu81 2.471 1_556 S
O95 C110 1.244 1_556 S
O96 Eu81 2.349 1_556 S
O96 C97 1.265 . S
C97 O93 1.244 . S
C97 O96 1.265 . S
O98 Eu80 2.373 . S
O98 C111 1.258 1_556 S
O99 Eu81 2.392 . S
O99 C111 1.242 . S
O100 Eu81 2.418 . S
O100 C82 1.244 . S
O101 Eu80 2.488 . S
O101 C89 1.249 . S
O102 Eu80 2.471 1_554 S
O102 C89 1.244 1_554 S
O103 Eu80 2.349 1_554 S
O103 C82 1.265 . S
C104 C105 1.379 1_554 S
C104 C108 1.373 . S
C104 C110 1.505 . S
C105 C104 1.379 1_556 S
C105 C107 1.369 . S
C105 H116 0.930 . S
C106 C108 1.383 . S
C106 C109 1.382 1_554 S
C106 H117 0.930 . S
C107 C105 1.369 . S
C107 C109 1.392 . S
C107 H118 0.930 . S
C108 C104 1.373 . S
C108 C106 1.383 . S
C108 H119 0.931 . S
C109 C106 1.382 1_556 S
C109 C107 1.392 . S
C110 Eu81 2.828 . S
C110 O94 1.249 . S
C110 O95 1.244 1_554 S
C110 C104 1.505 . S
C111 O98 1.258 1_554 S
C111 O99 1.242 . S
H112 C84 0.930 . S
H113 C85 0.930 . S
H114 C86 0.930 . S
H115 C87 0.931 . S
H116 C105 0.930 . S
H117 C106 0.930 . S
H118 C107 0.930 . S
H119 C108 0.931 . S
Eu120 C129 2.828 . S
Eu120 O131 2.392 . S
Eu120 O133 2.418 . S
Eu120 O138 2.373 . S
Eu120 O141 2.488 . S
Eu120 O142 2.471 . S
Eu120 O143 2.349 . S
Eu121 O130 2.373 . S
Eu121 O134 2.488 . S
Eu121 O135 2.471 . S
Eu121 O136 2.349 . S
Eu121 O139 2.392 . S
Eu121 O140 2.418 . S
Eu121 C150 2.828 . S
C122 O140 1.244 . S
C122 O143 1.265 . S
C123 C124 1.379 . S
C123 C127 1.373 . S
C123 C129 1.505 . S
C124 C123 1.379 . S
C124 C126 1.369 . S
C124 H152 0.930 . S
C125 C127 1.383 . S
C125 C128 1.382 . S
C125 H153 0.930 . S
C126 C124 1.369 . S
C126 C128 1.392 . S
C126 H154 0.930 . S
C127 C123 1.373 . S
C127 C125 1.383 . S
C127 H155 0.931 . S
C128 C125 1.382 . S
C128 C126 1.392 . S
C129 Eu120 2.828 . S
C129 C123 1.505 . S
C129 O141 1.249 . S
C129 O142 1.244 . S
O130 Eu121 2.373 . S
O130 C132 1.258 . S
O131 Eu120 2.392 . S
O131 C132 1.242 . S
C132 O130 1.258 . S
C132 O131 1.242 . S
O133 Eu120 2.418 . S
O133 C137 1.244 . S
O134 Eu121 2.488 . S
O134 C150 1.249 . S
O135 Eu121 2.471 . S
O135 C150 1.244 . S
O136 Eu121 2.349 . S
O136 C137 1.265 . S
C137 O133 1.244 . S
C137 O136 1.265 . S
O138 Eu120 2.373 . S
O138 C151 1.258 . S
O139 Eu121 2.392 . S
O139 C151 1.242 . S
O140 Eu121 2.418 . S
O140 C122 1.244 . S
O141 Eu120 2.488 . S
O141 C129 1.249 . S
O142 Eu120 2.471 . S
O142 C129 1.244 . S
O143 Eu120 2.349 . S
O143 C122 1.265 . S
C144 C145 1.379 . S
C144 C148 1.373 . S
C144 C150 1.505 . S
C145 C144 1.379 . S
C145 C147 1.369 . S
C145 H156 0.930 . S
C146 C148 1.383 . S
C146 C149 1.382 . S
C146 H157 0.930 . S
C147 C145 1.369 . S
C147 C149 1.392 . S
C147 H158 0.930 . S
C148 C144 1.373 . S
C148 C146 1.383 . S
C148 H159 0.931 . S
C149 C146 1.382 . S
C149 C147 1.392 . S
C150 Eu121 2.828 . S
C150 O134 1.249 . S
C150 O135 1.244 . S
C150 C144 1.505 . S
C151 O138 1.258 . S
C151 O139 1.242 . S
H152 C124 0.930 . S
H153 C125 0.930 . S
H154 C126 0.930 . S
H155 C127 0.931 . S
H156 C145 0.930 . S
H157 C146 0.930 . S
H158 C147 0.930 . S
H159 C148 0.931 . S
C160 C161 1.350 . S
C160 C162 1.327 . S
C160 H185 0.950 . S
C161 C160 1.350 . S
C161 C177 1.348 1_554 S
C162 C160 1.327 . S
C162 C181 1.429 . S
C162 H186 0.950 . S
C163 C180 1.574 . S
C163 C182 1.368 1_556 S
C163 H187 0.949 . S
H164 C168 0.949 . S
C165 C166 1.350 1_556 S
C165 C167 1.327 . S
C165 H188 0.950 . S
C166 C165 1.350 1_554 S
C166 C178 1.348 . S
C167 C165 1.327 . S
C167 C183 1.429 1_556 S
C167 H189 0.950 . S
C168 H164 0.949 . S
C168 C176 1.574 . S
C168 C184 1.368 . S
H169 C177 0.950 . S
H170 C175 0.950 . S
H171 C176 0.949 . S
H172 C178 0.950 . S
H173 C179 0.950 . S
H174 C180 0.949 . S
C175 H170 0.950 . S
C175 C177 1.327 . S
C175 C181 1.428 1_556 S
C176 C168 1.574 . S
C176 H171 0.949 . S
C176 C182 1.368 . S
C177 C161 1.348 1_556 S
C177 H169 0.950 . S
C177 C175 1.327 . S
C178 C166 1.348 . S
C178 H172 0.950 . S
C178 C179 1.327 . S
C179 H173 0.950 . S
C179 C178 1.327 . S
C179 C183 1.428 . S
C180 C163 1.574 . S
C180 H174 0.949 . S
C180 C184 1.369 1_556 S
C181 C162 1.429 . S
C181 C175 1.428 1_554 S
C181 C182 1.523 . S
C182 C163 1.368 1_554 S
C182 C176 1.368 . S
C182 C181 1.523 . S
C183 C167 1.429 1_554 S
C183 C179 1.428 . S
C183 C184 1.523 . S
C184 C168 1.368 . S
C184 C180 1.369 1_554 S
C184 C183 1.523 . S
H185 C160 0.950 . S
H186 C162 0.950 . S
H187 C163 0.949 . S
H188 C165 0.950 . S
H189 C167 0.950 . S
C190 C191 1.348 . S
C190 C192 1.327 . S
C190 H215 0.950 . S
C191 C190 1.348 . S
C191 C207 1.350 1_554 S
C192 C190 1.327 . S
C192 C211 1.428 . S
C192 H216 0.950 . S
C193 C210 1.574 . S
C193 C212 1.369 1_556 S
C193 H217 0.949 . S
H194 C198 0.949 . S
C195 C196 1.348 1_556 S
C195 C197 1.327 . S
C195 H218 0.950 . S
C196 C195 1.348 1_554 S
C196 C208 1.350 . S
C197 C195 1.327 . S
C197 C213 1.428 1_556 S
C197 H219 0.950 . S
C198 H194 0.949 . S
C198 C206 1.574 . S
C198 C214 1.368 . S
H199 C207 0.950 . S
H200 C205 0.950 . S
H201 C206 0.949 . S
H202 C208 0.950 . S
H203 C209 0.950 . S
H204 C210 0.949 . S
C205 H200 0.950 . S
C205 C207 1.327 . S
C205 C211 1.429 1_556 S
C206 C198 1.574 . S
C206 H201 0.949 . S
C206 C212 1.368 . S
C207 C191 1.350 1_556 S
C207 H199 0.950 . S
C207 C205 1.327 . S
C208 C196 1.350 . S
C208 H202 0.950 . S
C208 C209 1.327 . S
C209 H203 0.950 . S
C209 C208 1.327 . S
C209 C213 1.429 . S
C210 C193 1.574 . S
C210 H204 0.949 . S
C210 C214 1.368 1_556 S
C211 C192 1.428 . S
C211 C205 1.429 1_554 S
C211 C212 1.523 . S
C212 C193 1.369 1_554 S
C212 C206 1.368 . S
C212 C211 1.523 . S
C213 C197 1.428 1_554 S
C213 C209 1.429 . S
C213 C214 1.523 . S
C214 C198 1.368 . S
C214 C210 1.368 1_554 S
C214 C213 1.523 . S
H215 C190 0.950 . S
H216 C192 0.950 . S
H217 C193 0.949 . S
H218 C195 0.950 . S
H219 C197 0.950 . S
C220 C221 1.349 . S
C220 C222 1.327 . S
C220 H245 0.950 . S
C221 C220 1.349 . S
C221 C237 1.349 . S
C222 C220 1.327 . S
C222 C241 1.429 . S
C222 H246 0.950 . S
C223 C240 1.574 . S
C223 C242 1.368 . S
C223 H247 0.949 . S
H224 C228 0.949 . S
C225 C226 1.349 . S
C225 C227 1.327 . S
C225 H248 0.950 . S
C226 C225 1.349 . S
C226 C238 1.349 . S
C227 C225 1.327 . S
C227 C243 1.429 . S
C227 H249 0.950 . S
C228 H224 0.949 . S
C228 C236 1.574 . S
C228 C244 1.368 . S
H229 C237 0.950 . S
H230 C235 0.950 . S
H231 C236 0.949 . S
H232 C238 0.950 . S
H233 C239 0.950 . S
H234 C240 0.949 . S
C235 H230 0.950 . S
C235 C237 1.327 . S
C235 C241 1.429 . S
C236 C228 1.574 . S
C236 H231 0.949 . S
C236 C242 1.368 . S
C237 C221 1.349 . S
C237 H229 0.950 . S
C237 C235 1.327 . S
C238 C226 1.349 . S
C238 H232 0.950 . S
C238 C239 1.327 . S
C239 H233 0.950 . S
C239 C238 1.327 . S
C239 C243 1.429 . S
C240 C223 1.574 . S
C240 H234 0.949 . S
C240 C244 1.368 . S
C241 C222 1.429 . S
C241 C235 1.429 . S
C241 C242 1.523 . S
C242 C223 1.368 . S
C242 C236 1.368 . S
C242 C241 1.523 . S
C243 C227 1.429 . S
C243 C239 1.429 . S
C243 C244 1.523 . S
C244 C228 1.368 . S
C244 C240 1.368 . S
C244 C243 1.523 . S
H245 C220 0.950 . S
H246 C222 0.950 . S
H247 C223 0.949 . S
H248 C225 0.950 . S
H249 C227 0.950 . S
C250 C251 1.349 . S
C250 C252 1.327 . S
C250 H275 0.950 . S
C251 C250 1.349 . S
C251 C267 1.349 . S
C252 C250 1.327 . S
C252 C271 1.429 . S
C252 H276 0.950 . S
C253 C270 1.574 . S
C253 C272 1.368 . S
C253 H277 0.949 . S
H254 C258 0.949 . S
C255 C256 1.349 . S
C255 C257 1.327 . S
C255 H278 0.950 . S
C256 C255 1.349 . S
C256 C268 1.349 . S
C257 C255 1.327 . S
C257 C273 1.429 . S
C257 H279 0.950 . S
C258 H254 0.949 . S
C258 C266 1.574 . S
C258 C274 1.368 . S
H259 C267 0.950 . S
H260 C265 0.950 . S
H261 C266 0.949 . S
H262 C268 0.950 . S
H263 C269 0.950 . S
H264 C270 0.949 . S
C265 H260 0.950 . S
C265 C267 1.327 . S
C265 C271 1.429 . S
C266 C258 1.574 . S
C266 H261 0.949 . S
C266 C272 1.368 . S
C267 C251 1.349 . S
C267 H259 0.950 . S
C267 C265 1.327 . S
C268 C256 1.349 . S
C268 H262 0.950 . S
C268 C269 1.327 . S
C269 H263 0.950 . S
C269 C268 1.327 . S
C269 C273 1.429 . S
C270 C253 1.574 . S
C270 H264 0.949 . S
C270 C274 1.368 . S
C271 C252 1.429 . S
C271 C265 1.429 . S
C271 C272 1.523 . S
C272 C253 1.368 . S
C272 C266 1.368 . S
C272 C271 1.523 . S
C273 C257 1.429 . S
C273 C269 1.429 . S
C273 C274 1.523 . S
C274 C258 1.368 . S
C274 C270 1.368 . S
C274 C273 1.523 . S
H275 C250 0.950 . S
H276 C252 0.950 . S
H277 C253 0.949 . S
H278 C255 0.950 . S
H279 C257 0.950 . S
C280 C281 1.349 1_554 S
C280 C282 1.327 . S
C280 H305 0.950 . S
C281 C280 1.349 1_556 S
C281 C297 1.349 . S
C282 C280 1.327 . S
C282 C301 1.429 1_554 S
C282 H306 0.950 . S
C283 C300 1.574 . S
C283 C302 1.368 1_545 S
C283 H307 0.949 . S
H284 C288 0.949 . S
C285 C286 1.349 1_556 S
C285 C287 1.327 . S
C285 H308 0.950 . S
C286 C285 1.349 1_554 S
C286 C298 1.349 . S
C287 C285 1.327 . S
C287 C303 1.429 1_556 S
C287 H309 0.950 . S
C288 H284 0.949 . S
C288 C296 1.574 . S
C288 C304 1.368 1_565 S
H289 C297 0.950 . S
H290 C295 0.950 1_545 S
H291 C296 0.949 . S
H292 C298 0.950 . S
H293 C299 0.950 1_565 S
H294 C300 0.949 . S
C295 H290 0.950 1_565 S
C295 C297 1.327 . S
C295 C301 1.429 . S
C296 C288 1.574 . S
C296 H291 0.949 . S
C296 C302 1.368 1_554 S
C297 C281 1.349 . S
C297 H289 0.950 . S
C297 C295 1.327 . S
C298 C286 1.349 . S
C298 H292 0.950 . S
C298 C299 1.327 . S
C299 H293 0.950 1_545 S
C299 C298 1.327 . S
C299 C303 1.429 . S
C300 C283 1.574 . S
C300 H294 0.949 . S
C300 C304 1.368 1_556 S
C301 C282 1.429 1_556 S
C301 C295 1.429 . S
C301 C302 1.523 . S
C302 C283 1.368 1_565 S
C302 C296 1.368 1_556 S
C302 C301 1.523 . S
C303 C287 1.429 1_554 S
C303 C299 1.429 . S
C303 C304 1.523 . S
C304 C288 1.368 1_545 S
C304 C300 1.368 1_554 S
C304 C303 1.523 . S
H305 C280 0.950 . S
H306 C282 0.950 . S
H307 C283 0.949 . S
H308 C285 0.950 . S
H309 C287 0.950 . S
C310 C311 1.349 . S
C310 C312 1.327 . S
C310 H335 0.950 . S
C311 C310 1.349 . S
C311 C327 1.349 1_565 S
C312 C310 1.327 . S
C312 C331 1.440 . S
C312 H336 0.950 . S
C313 C330 1.574 . S
C313 C332 1.368 1_545 S
C313 H337 0.949 . S
H314 C318 0.949 . S
C315 C316 1.349 . S
C315 C317 1.327 . S
C315 H338 0.950 . S
C316 C315 1.349 . S
C316 C328 1.349 1_545 S
C317 C315 1.327 . S
C317 C333 1.429 . S
C317 H339 0.950 . S
C318 H314 0.949 . S
C318 C326 1.574 . S
C318 C334 1.354 1_565 S
H319 C327 0.950 . S
H320 C325 0.950 . S
H321 C326 0.949 . S
H322 C328 0.950 . S
H323 C329 0.950 . S
H324 C330 0.949 . S
C325 H320 0.950 . S
C325 C327 1.327 . S
C325 C331 1.422 1_545 S
C326 C318 1.574 . S
C326 H321 0.949 . S
C326 C332 1.368 . S
C327 C311 1.349 1_545 S
C327 H319 0.950 . S
C327 C325 1.327 . S
C328 C316 1.349 1_565 S
C328 H322 0.950 . S
C328 C329 1.327 . S
C329 H323 0.950 . S
C329 C328 1.327 . S
C329 C333 1.429 1_565 S
C330 C313 1.574 . S
C330 H324 0.949 . S
C330 C334 1.379 . S
C331 C312 1.440 . S
C331 C325 1.422 1_565 S
C331 C332 1.519 . S
C332 C313 1.368 1_565 S
C332 C326 1.368 . S
C332 C331 1.519 . S
C333 C317 1.429 . S
C333 C329 1.429 1_545 S
C333 C334 1.528 . S
C334 C318 1.354 1_545 S
C334 C330 1.379 . S
C334 C333 1.528 . S
H335 C310 0.950 . S
H336 C312 0.950 . S
H337 C313 0.949 . S
H338 C315 0.950 . S
H339 C317 0.950 . S
C340 C341 1.349 1_554 S
C340 C342 1.327 . S
C340 H365 0.950 . S
C341 C340 1.349 1_556 S
C341 C357 1.349 . S
C342 C340 1.327 . S
C342 C361 1.429 1_554 S
C342 H366 0.950 . S
C343 C360 1.574 1_655 S
C343 C362 1.368 . S
C343 H367 0.949 . S
H344 C348 0.949 . S
C345 C346 1.349 1_556 S
C345 C347 1.327 . S
C345 H368 0.950 . S
C346 C345 1.349 1_554 S
C346 C358 1.349 . S
C347 C345 1.327 . S
C347 C363 1.429 1_556 S
C347 H369 0.950 . S
C348 H344 0.949 . S
C348 C356 1.574 1_455 S
C348 C364 1.368 . S
H349 C357 0.950 . S
H350 C355 0.950 . S
H351 C356 0.949 . S
H352 C358 0.950 . S
H353 C359 0.950 . S
H354 C360 0.949 . S
C355 H350 0.950 . S
C355 C357 1.327 . S
C355 C361 1.429 . S
C356 C348 1.574 1_655 S
C356 H351 0.949 . S
C356 C362 1.368 1_554 S
C357 C341 1.349 . S
C357 H349 0.950 . S
C357 C355 1.327 . S
C358 C346 1.349 . S
C358 H352 0.950 . S
C358 C359 1.327 . S
C359 H353 0.950 . S
C359 C358 1.327 . S
C359 C363 1.429 . S
C360 C343 1.574 1_455 S
C360 H354 0.949 . S
C360 C364 1.368 1_556 S
C361 C342 1.429 1_556 S
C361 C355 1.429 . S
C361 C362 1.523 . S
C362 C343 1.368 . S
C362 C356 1.368 1_556 S
C362 C361 1.523 . S
C363 C347 1.429 1_554 S
C363 C359 1.429 . S
C363 C364 1.523 . S
C364 C348 1.368 . S
C364 C360 1.368 1_554 S
C364 C363 1.523 . S
H365 C340 0.950 . S
H366 C342 0.950 . S
H367 C343 0.949 . S
H368 C345 0.950 . S
H369 C347 0.950 . S
C370 C371 1.349 . S
C370 C372 1.327 . S
C370 H395 0.950 . S
C371 C370 1.349 . S
C371 C387 1.349 . S
C372 C370 1.327 . S
C372 C391 1.429 . S
C372 H396 0.950 . S
C373 C390 1.574 1_455 S
C373 C392 1.368 . S
C373 H397 0.949 . S
H374 C378 0.949 . S
C375 C376 1.349 . S
C375 C377 1.327 . S
C375 H398 0.950 . S
C376 C375 1.349 . S
C376 C388 1.349 . S
C377 C375 1.327 . S
C377 C393 1.429 . S
C377 H399 0.950 . S
C378 H374 0.949 . S
C378 C386 1.574 1_655 S
C378 C394 1.368 . S
H379 C387 0.950 . S
H380 C385 0.950 . S
H381 C386 0.949 . S
H382 C388 0.950 . S
H383 C389 0.950 . S
H384 C390 0.949 . S
C385 H380 0.950 . S
C385 C387 1.327 . S
C385 C391 1.429 . S
C386 C378 1.574 1_455 S
C386 H381 0.949 . S
C386 C392 1.368 . S
C387 C371 1.349 . S
C387 H379 0.950 . S
C387 C385 1.327 . S
C388 C376 1.349 . S
C388 H382 0.950 . S
C388 C389 1.327 . S
C389 H383 0.950 . S
C389 C388 1.327 . S
C389 C393 1.429 . S
C390 C373 1.574 1_655 S
C390 H384 0.949 . S
C390 C394 1.368 . S
C391 C372 1.429 . S
C391 C385 1.429 . S
C391 C392 1.523 . S
C392 C373 1.368 . S
C392 C386 1.368 . S
C392 C391 1.523 . S
C393 C377 1.429 . S
C393 C389 1.429 . S
C393 C394 1.523 . S
C394 C378 1.368 . S
C394 C390 1.368 . S
C394 C393 1.523 . S
H395 C370 0.950 . S
H396 C372 0.950 . S
H397 C373 0.949 . S
H398 C375 0.950 . S
H399 C377 0.950 . S
C400 C401 1.349 1_455 S
C400 C402 1.327 . S
C400 H425 0.950 . S
C401 C400 1.349 1_655 S
C401 C417 1.349 1_545 S
C402 C400 1.327 . S
C402 C421 1.429 1_455 S
C402 H426 0.950 . S
C403 C420 1.574 . S
C403 C422 1.368 1_565 S
C403 H427 0.949 . S
H404 C408 0.949 . S
C405 C406 1.339 1_565 S
C405 C407 1.327 . S
C405 H428 0.950 . S
C406 C405 1.339 1_545 S
C406 C418 1.357 1_655 S
C407 C405 1.327 . S
C407 C423 1.411 1_565 S
C407 H429 0.950 . S
C408 H404 0.949 . S
C408 C416 1.574 . S
C408 C424 1.395 1_455 S
H409 C417 0.950 . S
H410 C415 0.950 . S
H411 C416 0.949 . S
H412 C418 0.950 . S
H413 C419 0.950 . S
H414 C420 0.949 . S
C415 H410 0.950 . S
C415 C417 1.327 . S
C415 C421 1.429 1_565 S
C416 C408 1.574 . S
C416 H411 0.949 . S
C416 C422 1.368 1_455 S
C417 C401 1.349 1_565 S
C417 H409 0.950 . S
C417 C415 1.327 . S
C418 C406 1.357 1_455 S
C418 H412 0.950 . S
C418 C419 1.327 . S
C419 H413 0.950 . S
C419 C418 1.327 . S
C419 C423 1.449 1_455 S
C420 C403 1.574 . S
C420 H414 0.949 . S
C420 C424 1.340 1_565 S
C421 C402 1.429 1_655 S
C421 C415 1.429 1_545 S
C421 C422 1.523 . S
C422 C403 1.368 1_545 S
C422 C416 1.368 1_655 S
C422 C421 1.523 . S
C423 C407 1.411 1_545 S
C423 C419 1.449 1_655 S
C423 C424 1.524 . S
C424 C408 1.395 1_655 S
C424 C420 1.340 1_545 S
C424 C423 1.524 . S
H425 C400 0.950 . S
H426 C402 0.950 . S
H427 C403 0.949 . S
H428 C405 0.950 . S
H429 C407 0.950 . S
C430 C431 1.350 . S
C430 C432 1.327 . S
C430 H455 0.950 . S
C431 C430 1.350 . S
C431 C447 1.348 1_445 S
C432 C430 1.327 . S
C432 C451 1.426 1_545 S
C432 H456 0.950 . S
C433 C450 1.574 . S
C433 C452 1.377 1_655 S
C433 H457 0.949 . S
H434 C438 0.949 . S
C435 C436 1.349 1_655 S
C435 C437 1.327 . S
C435 H458 0.950 . S
C436 C435 1.349 1_455 S
C436 C448 1.349 1_565 S
C437 C435 1.327 . S
C437 C453 1.451 1_655 S
C437 H459 0.950 . S
C438 H434 0.949 . S
C438 C446 1.574 . S
C438 C454 1.349 1_545 S
H439 C447 0.950 . S
H440 C445 0.950 . S
H441 C446 0.949 . S
H442 C448 0.950 . S
H443 C449 0.950 . S
H444 C450 0.949 . S
C445 H440 0.950 . S
C445 C447 1.327 . S
C445 C451 1.431 1_655 S
C446 C438 1.574 . S
C446 H441 0.949 . S
C446 C452 1.359 1_545 S
C447 C431 1.348 1_665 S
C447 H439 0.950 . S
C447 C445 1.327 . S
C448 C436 1.349 1_545 S
C448 H442 0.950 . S
C448 C449 1.327 . S
C449 H443 0.950 . S
C449 C448 1.327 . S
C449 C453 1.403 1_545 S
C450 C433 1.574 . S
C450 H444 0.949 . S
C450 C454 1.389 1_655 S
C451 C432 1.426 1_565 S
C451 C445 1.431 1_455 S
C451 C452 1.524 . S
C452 C433 1.377 1_455 S
C452 C446 1.359 1_565 S
C452 C451 1.524 . S
C453 C437 1.451 1_455 S
C453 C449 1.403 1_565 S
C453 C454 1.524 . S
C454 C438 1.349 1_565 S
C454 C450 1.389 1_455 S
C454 C453 1.524 . S
H455 C430 0.950 . S
H456 C432 0.950 . S
H457 C433 0.949 . S
H458 C435 0.950 . S
H459 C437 0.950 . S
C460 C461 1.349 . S
C460 C462 1.327 . S
C460 H485 0.950 . S
C461 C460 1.349 . S
C461 C477 1.349 . S
C462 C460 1.327 . S
C462 C481 1.429 . S
C462 H486 0.950 . S
C463 C480 1.574 . S
C463 C482 1.368 . S
C463 H487 0.949 . S
H464 C468 0.949 . S
C465 C466 1.349 . S
C465 C467 1.327 . S
C465 H488 0.950 . S
C466 C465 1.349 . S
C466 C478 1.349 . S
C467 C465 1.327 . S
C467 C483 1.429 . S
C467 H489 0.950 . S
C468 H464 0.949 . S
C468 C476 1.574 . S
C468 C484 1.368 . S
H469 C477 0.950 . S
H470 C475 0.950 . S
H471 C476 0.949 . S
H472 C478 0.950 . S
H473 C479 0.950 . S
H474 C480 0.949 . S
C475 H470 0.950 . S
C475 C477 1.327 . S
C475 C481 1.429 . S
C476 C468 1.574 . S
C476 H471 0.949 . S
C476 C482 1.368 . S
C477 C461 1.349 . S
C477 H469 0.950 . S
C477 C475 1.327 . S
C478 C466 1.349 . S
C478 H472 0.950 . S
C478 C479 1.327 . S
C479 H473 0.950 . S
C479 C478 1.327 . S
C479 C483 1.429 . S
C480 C463 1.574 . S
C480 H474 0.949 . S
C480 C484 1.368 . S
C481 C462 1.429 . S
C481 C475 1.429 . S
C481 C482 1.523 . S
C482 C463 1.368 . S
C482 C476 1.368 . S
C482 C481 1.523 . S
C483 C467 1.429 . S
C483 C479 1.429 . S
C483 C484 1.523 . S
C484 C468 1.368 . S
C484 C480 1.368 . S
C484 C483 1.523 . S
H485 C460 0.950 . S
H486 C462 0.950 . S
H487 C463 0.949 . S
H488 C465 0.950 . S
H489 C467 0.950 . S
C490 C491 1.349 . S
C490 C492 1.327 . S
C490 H515 0.950 . S
C491 C490 1.349 . S
C491 C507 1.349 . S
C492 C490 1.327 . S
C492 C511 1.429 . S
C492 H516 0.950 . S
C493 C510 1.574 . S
C493 C512 1.368 . S
C493 H517 0.949 . S
H494 C498 0.949 . S
C495 C496 1.349 . S
C495 C497 1.327 . S
C495 H518 0.950 . S
C496 C495 1.349 . S
C496 C508 1.349 . S
C497 C495 1.327 . S
C497 C513 1.429 . S
C497 H519 0.950 . S
C498 H494 0.949 . S
C498 C506 1.574 . S
C498 C514 1.368 . S
H499 C507 0.950 . S
H500 C505 0.950 . S
H501 C506 0.949 . S
H502 C508 0.950 . S
H503 C509 0.950 . S
H504 C510 0.949 . S
C505 H500 0.950 . S
C505 C507 1.327 . S
C505 C511 1.429 . S
C506 C498 1.574 . S
C506 H501 0.949 . S
C506 C512 1.368 . S
C507 C491 1.349 . S
C507 H499 0.950 . S
C507 C505 1.327 . S
C508 C496 1.349 . S
C508 H502 0.950 . S
C508 C509 1.327 . S
C509 H503 0.950 . S
C509 C508 1.327 . S
C509 C513 1.429 . S
C510 C493 1.574 . S
C510 H504 0.949 . S
C510 C514 1.368 . S
C511 C492 1.429 . S
C511 C505 1.429 . S
C511 C512 1.523 . S
C512 C493 1.368 . S
C512 C506 1.368 . S
C512 C511 1.523 . S
C513 C497 1.429 . S
C513 C509 1.429 . S
C513 C514 1.523 . S
C514 C498 1.368 . S
C514 C510 1.368 . S
C514 C513 1.523 . S
H515 C490 0.950 . S
H516 C492 0.950 . S
H517 C493 0.949 . S
H518 C495 0.950 . S
H519 C497 0.950 . S
C161 C111 3.500 . S
C166 C12 3.500 . S
C191 C92 3.500 . S
C196 C31 3.500 . S
C221 C69 0.149 . S
C226 C128 0.148 . S
C251 C48 0.149 . S
C256 C149 0.149 . S
C281 C29 1.027 . S
C286 C8 1.027 . S
C311 C52 4.822 . S
C316 C71 4.822 . S
C341 C109 1.027 . S
C346 C88 1.027 . S
C371 C151 4.822 . S
C376 C132 4.822 . S
C401 C57 1.465 1_545 S
C406 C2 1.465 1_655 S
C431 C17 1.464 1_445 S
C436 C42 1.467 1_565 S
C461 C137 1.465 . S
C466 C82 1.462 . S
C491 C122 1.465 . S
C496 C97 1.466 . S
