# Generated by pormake.
# Topology wjr, (5)-cn, num edge types: 1
# Building blocks:
#     Node 0, Type 0, BuildingBlock: XOMCOT_clean_sbu_0, # of connection points: 5
#     Node 1, Type 0, BuildingBlock: XOMCOT_clean_sbu_0, # of connection points: 5
#     Node 2, Type 0, BuildingBlock: XOMCOT_clean_sbu_0, # of connection points: 5
#     Node 3, Type 0, BuildingBlock: XOMCOT_clean_sbu_0, # of connection points: 5
#     Node 4, Type 0, BuildingBlock: XOMCOT_clean_sbu_0, # of connection points: 5
#     Node 5, Type 0, BuildingBlock: XOMCOT_clean_sbu_0, # of connection points: 5
#     Node 6, Type 0, BuildingBlock: XOMCOT_clean_sbu_0, # of connection points: 5
#     Node 7, Type 0, BuildingBlock: XOMCOT_clean_sbu_0, # of connection points: 5
#     Node 8, Type 0, BuildingBlock: XOMCOT_clean_sbu_0, # of connection points: 5
#     Node 9, Type 0, BuildingBlock: XOMCOT_clean_sbu_0, # of connection points: 5
#     Node 10, Type 0, BuildingBlock: XOMCOT_clean_sbu_0, # of connection points: 5
#     Node 11, Type 0, BuildingBlock: XOMCOT_clean_sbu_0, # of connection points: 5
#     Node 12, Type 0, BuildingBlock: XOMCOT_clean_sbu_0, # of connection points: 5
#     Node 13, Type 0, BuildingBlock: XOMCOT_clean_sbu_0, # of connection points: 5
#     Node 14, Type 0, BuildingBlock: XOMCOT_clean_sbu_0, # of connection points: 5
#     Node 15, Type 0, BuildingBlock: XOMCOT_clean_sbu_0, # of connection points: 5
#     Node 16, Type 0, BuildingBlock: XOMCOT_clean_sbu_0, # of connection points: 5
#     Node 17, Type 0, BuildingBlock: XOMCOT_clean_sbu_0, # of connection points: 5
#     Node 18, Type 0, BuildingBlock: XOMCOT_clean_sbu_0, # of connection points: 5
#     Node 19, Type 0, BuildingBlock: XOMCOT_clean_sbu_0, # of connection points: 5
#     Node 20, Type 0, BuildingBlock: XOMCOT_clean_sbu_0, # of connection points: 5
#     Node 21, Type 0, BuildingBlock: XOMCOT_clean_sbu_0, # of connection points: 5
#     Node 22, Type 0, BuildingBlock: XOMCOT_clean_sbu_0, # of connection points: 5
#     Node 23, Type 0, BuildingBlock: XOMCOT_clean_sbu_0, # of connection points: 5
#     Edge 24, Type (0, 0), BuildingBlock: TEMPAE_clean_linker_10, # of connection points: 2
#     Edge 25, Type (0, 0), BuildingBlock: TEMPAE_clean_linker_10, # of connection points: 2
#     Edge 26, Type (0, 0), BuildingBlock: TEMPAE_clean_linker_10, # of connection points: 2
#     Edge 27, Type (0, 0), BuildingBlock: TEMPAE_clean_linker_10, # of connection points: 2
#     Edge 28, Type (0, 0), BuildingBlock: TEMPAE_clean_linker_10, # of connection points: 2
#     Edge 29, Type (0, 0), BuildingBlock: TEMPAE_clean_linker_10, # of connection points: 2
#     Edge 30, Type (0, 0), BuildingBlock: TEMPAE_clean_linker_10, # of connection points: 2
#     Edge 31, Type (0, 0), BuildingBlock: TEMPAE_clean_linker_10, # of connection points: 2
#     Edge 32, Type (0, 0), BuildingBlock: TEMPAE_clean_linker_10, # of connection points: 2
#     Edge 33, Type (0, 0), BuildingBlock: TEMPAE_clean_linker_10, # of connection points: 2
#     Edge 34, Type (0, 0), BuildingBlock: TEMPAE_clean_linker_10, # of connection points: 2
#     Edge 35, Type (0, 0), BuildingBlock: TEMPAE_clean_linker_10, # of connection points: 2
#     Edge 36, Type (0, 0), BuildingBlock: TEMPAE_clean_linker_10, # of connection points: 2
#     Edge 37, Type (0, 0), BuildingBlock: TEMPAE_clean_linker_10, # of connection points: 2
#     Edge 38, Type (0, 0), BuildingBlock: TEMPAE_clean_linker_10, # of connection points: 2
#     Edge 39, Type (0, 0), BuildingBlock: TEMPAE_clean_linker_10, # of connection points: 2
#     Edge 40, Type (0, 0), BuildingBlock: TEMPAE_clean_linker_10, # of connection points: 2
#     Edge 41, Type (0, 0), BuildingBlock: TEMPAE_clean_linker_10, # of connection points: 2
#     Edge 42, Type (0, 0), BuildingBlock: TEMPAE_clean_linker_10, # of connection points: 2
#     Edge 43, Type (0, 0), BuildingBlock: TEMPAE_clean_linker_10, # of connection points: 2
#     Edge 44, Type (0, 0), BuildingBlock: TEMPAE_clean_linker_10, # of connection points: 2
#     Edge 45, Type (0, 0), BuildingBlock: TEMPAE_clean_linker_10, # of connection points: 2
#     Edge 46, Type (0, 0), BuildingBlock: TEMPAE_clean_linker_10, # of connection points: 2
#     Edge 47, Type (0, 0), BuildingBlock: TEMPAE_clean_linker_10, # of connection points: 2
#     Edge 48, Type (0, 0), BuildingBlock: TEMPAE_clean_linker_10, # of connection points: 2
#     Edge 49, Type (0, 0), BuildingBlock: TEMPAE_clean_linker_10, # of connection points: 2
#     Edge 50, Type (0, 0), BuildingBlock: TEMPAE_clean_linker_10, # of connection points: 2
#     Edge 51, Type (0, 0), BuildingBlock: TEMPAE_clean_linker_10, # of connection points: 2
#     Edge 52, Type (0, 0), BuildingBlock: TEMPAE_clean_linker_10, # of connection points: 2
#     Edge 53, Type (0, 0), BuildingBlock: TEMPAE_clean_linker_10, # of connection points: 2
#     Edge 54, Type (0, 0), BuildingBlock: TEMPAE_clean_linker_10, # of connection points: 2
#     Edge 55, Type (0, 0), BuildingBlock: TEMPAE_clean_linker_10, # of connection points: 2
#     Edge 56, Type (0, 0), BuildingBlock: TEMPAE_clean_linker_10, # of connection points: 2
#     Edge 57, Type (0, 0), BuildingBlock: TEMPAE_clean_linker_10, # of connection points: 2
#     Edge 58, Type (0, 0), BuildingBlock: TEMPAE_clean_linker_10, # of connection points: 2
#     Edge 59, Type (0, 0), BuildingBlock: TEMPAE_clean_linker_10, # of connection points: 2
#     Edge 60, Type (0, 0), BuildingBlock: TEMPAE_clean_linker_10, # of connection points: 2
#     Edge 61, Type (0, 0), BuildingBlock: TEMPAE_clean_linker_10, # of connection points: 2
#     Edge 62, Type (0, 0), BuildingBlock: TEMPAE_clean_linker_10, # of connection points: 2
#     Edge 63, Type (0, 0), BuildingBlock: TEMPAE_clean_linker_10, # of connection points: 2
#     Edge 64, Type (0, 0), BuildingBlock: TEMPAE_clean_linker_10, # of connection points: 2
#     Edge 65, Type (0, 0), BuildingBlock: TEMPAE_clean_linker_10, # of connection points: 2
#     Edge 66, Type (0, 0), BuildingBlock: TEMPAE_clean_linker_10, # of connection points: 2
#     Edge 67, Type (0, 0), BuildingBlock: TEMPAE_clean_linker_10, # of connection points: 2
#     Edge 68, Type (0, 0), BuildingBlock: TEMPAE_clean_linker_10, # of connection points: 2
#     Edge 69, Type (0, 0), BuildingBlock: TEMPAE_clean_linker_10, # of connection points: 2
#     Edge 70, Type (0, 0), BuildingBlock: TEMPAE_clean_linker_10, # of connection points: 2
#     Edge 71, Type (0, 0), BuildingBlock: TEMPAE_clean_linker_10, # of connection points: 2
#     Edge 72, Type (0, 0), BuildingBlock: TEMPAE_clean_linker_10, # of connection points: 2
#     Edge 73, Type (0, 0), BuildingBlock: TEMPAE_clean_linker_10, # of connection points: 2
#     Edge 74, Type (0, 0), BuildingBlock: TEMPAE_clean_linker_10, # of connection points: 2
#     Edge 75, Type (0, 0), BuildingBlock: TEMPAE_clean_linker_10, # of connection points: 2
#     Edge 76, Type (0, 0), BuildingBlock: TEMPAE_clean_linker_10, # of connection points: 2
#     Edge 77, Type (0, 0), BuildingBlock: TEMPAE_clean_linker_10, # of connection points: 2
#     Edge 78, Type (0, 0), BuildingBlock: TEMPAE_clean_linker_10, # of connection points: 2
#     Edge 79, Type (0, 0), BuildingBlock: TEMPAE_clean_linker_10, # of connection points: 2
#     Edge 80, Type (0, 0), BuildingBlock: TEMPAE_clean_linker_10, # of connection points: 2
#     Edge 81, Type (0, 0), BuildingBlock: TEMPAE_clean_linker_10, # of connection points: 2
#     Edge 82, Type (0, 0), BuildingBlock: TEMPAE_clean_linker_10, # of connection points: 2
#     Edge 83, Type (0, 0), BuildingBlock: TEMPAE_clean_linker_10, # of connection points: 2
# Relax obj value: 0.387
# Max RMSD: 0.201
# Mean RMSD: 0.201
data_MOF--net-wjr--node1-XOMCOT_clean_sbu_0--edge1-TEMPAE_clean_linker_10
_symmetry_space_group_name_H-M    P1
_symmetry_Int_Tables_number       1
_symmetry_cell_setting            triclinic
loop_
_symmetry_equiv_pos_as_xyz
'x, y, z'
_cell_length_a     66.147601
_cell_length_b     66.024594
_cell_length_c     51.287598
_cell_angle_alpha  90.027495
_cell_angle_beta   89.935079
_cell_angle_gamma 119.998
loop_
_atom_site_label
_atom_site_type_symbol
_atom_site_fract_x
_atom_site_fract_y
_atom_site_fract_z
_atom_type_partial_charge
Co0 Co 0.46449 0.10879 0.19307 0.0
C1 C 0.45073 0.14319 0.21016 0.0
C2 C 0.43407 0.11165 0.23262 0.0
C3 C 0.42841 0.12721 0.24334 0.0
N4 N 0.4475 0.12133 0.2113 0.0
N5 N 0.43903 0.14704 0.22931 0.0
H6 H 0.46252 0.15654 0.19685 0.0
H7 H 0.43011 0.09513 0.24115 0.0
C8 C 0.41591 0.06657 0.19947 0.0
O9 O 0.40572 0.07761 0.18979 0.0
N10 N 0.48173 0.09646 0.17566 0.0
C11 C 0.4976 0.10693 0.15655 0.0
C12 C 0.50607 0.09245 0.14953 0.0
C13 C 0.48082 0.07598 0.18023 0.0
N14 N 0.49547 0.07301 0.16444 0.0
C15 C 0.46179 0.13329 0.14786 0.0
C16 C 0.43673 0.09393 0.11739 0.0
C17 C 0.44609 0.11596 0.10553 0.0
C18 C 0.45831 0.13582 0.12135 0.0
C19 C 0.44066 0.09217 0.14386 0.0
N20 N 0.45302 0.11167 0.15892 0.0
H21 H 0.47308 0.14877 0.1589 0.0
H22 H 0.43514 0.07501 0.15159 0.0
H23 H 0.50264 0.12389 0.14835 0.0
H24 H 0.46941 0.06341 0.19454 0.0
O25 O 0.49341 0.13888 0.19562 0.0
O26 O 0.48017 0.11044 0.22493 0.0
O27 O 0.4381 0.07601 0.19928 0.0
C28 C 0.49652 0.13098 0.21769 0.0
H29 H 0.41879 0.12483 0.26126 0.0
H30 H 0.51917 0.09608 0.13479 0.0
H31 H 0.42718 0.07805 0.10609 0.0
H32 H 0.46641 0.15321 0.11302 0.0
Co33 Co 0.35313 0.46577 0.19574 0.0
C34 C 0.30483 0.44942 0.21402 0.0
C35 C 0.32088 0.43287 0.23435 0.0
C36 C 0.29988 0.42635 0.24598 0.0
N37 N 0.32382 0.44683 0.21379 0.0
N38 N 0.28987 0.43701 0.23343 0.0
H39 H 0.30302 0.46185 0.20203 0.0
H40 H 0.33388 0.4292 0.24201 0.0
C41 C 0.35039 0.41863 0.20033 0.0
O42 O 0.32954 0.40759 0.18972 0.0
N43 N 0.38244 0.48498 0.17854 0.0
C44 C 0.38678 0.50087 0.15972 0.0
C45 C 0.4098 0.5107 0.15241 0.0
C46 C 0.40269 0.48541 0.18268 0.0
N47 N 0.41971 0.50091 0.16687 0.0
C48 C 0.32463 0.46035 0.1508 0.0
C49 C 0.34334 0.43962 0.11962 0.0
C50 C 0.32861 0.44663 0.10813 0.0
C51 C 0.31887 0.45676 0.12423 0.0
C52 C 0.34876 0.44367 0.14609 0.0
N53 N 0.33943 0.45385 0.1615 0.0
H54 H 0.31846 0.46985 0.16224 0.0
H55 H 0.36197 0.44022 0.15358 0.0
H56 H 0.37404 0.50488 0.15178 0.0
H57 H 0.40475 0.47424 0.19654 0.0
O58 O 0.34956 0.49334 0.19857 0.0
O59 O 0.36623 0.48161 0.22778 0.0
O60 O 0.3618 0.44092 0.20145 0.0
C61 C 0.36064 0.49701 0.22069 0.0
H62 H 0.29319 0.41561 0.26326 0.0
H63 H 0.41855 0.52402 0.13767 0.0
H64 H 0.35193 0.43248 0.1079 0.0
H65 H 0.30757 0.46267 0.1162 0.0
Co66 Co 0.88011 0.35641 0.20116 0.0
C67 C 0.84587 0.30805 0.21843 0.0
C68 C 0.87716 0.32368 0.24116 0.0
C69 C 0.86202 0.30236 0.25178 0.0
N70 N 0.86742 0.32705 0.21975 0.0
N71 N 0.84215 0.29252 0.23769 0.0
H72 H 0.83261 0.30641 0.20501 0.0
H73 H 0.89367 0.33641 0.24953 0.0
C74 C 0.92155 0.34906 0.20723 0.0
O75 O 0.91001 0.32791 0.19732 0.0
N76 N 0.89277 0.38589 0.18345 0.0
C77 C 0.88266 0.3914 0.16406 0.0
C78 C 0.89811 0.41371 0.15567 0.0
C79 C 0.91398 0.40476 0.18683 0.0
N80 N 0.91778 0.422 0.17 0.0
C81 C 0.85625 0.32869 0.15582 0.0
C82 C 0.89615 0.34417 0.12597 0.0
C83 C 0.87443 0.33092 0.1138 0.0
C84 C 0.85427 0.32278 0.12927 0.0
C85 C 0.89734 0.34966 0.15239 0.0
N86 N 0.87761 0.34192 0.16718 0.0
H87 H 0.84056 0.32403 0.16664 0.0
H88 H 0.91424 0.36187 0.16024 0.0
H89 H 0.86545 0.37983 0.15627 0.0
H90 H 0.92663 0.40558 0.20076 0.0
O91 O 0.85012 0.35549 0.20334 0.0
O92 O 0.8784 0.37086 0.23267 0.0
O93 O 0.91259 0.36227 0.20765 0.0
C94 C 0.85798 0.36681 0.22528 0.0
H95 H 0.86532 0.2952 0.26914 0.0
H96 H 0.89513 0.42305 0.1402 0.0
H97 H 0.9122 0.35168 0.11483 0.0
H98 H 0.83707 0.31267 0.12077 0.0
Co99 Co 0.52902 0.88627 0.19126 0.0
C100 C 0.53889 0.84949 0.21086 0.0
C101 C 0.55184 0.87931 0.23609 0.0
C102 C 0.55624 0.86314 0.24756 0.0
N103 N 0.54156 0.87109 0.21275 0.0
N104 N 0.54799 0.84442 0.23174 0.0
H105 H 0.52994 0.83739 0.19517 0.0
H106 H 0.55529 0.89574 0.24457 0.0
C107 C 0.57959 0.9225 0.19991 0.0
O108 O 0.58584 0.90668 0.19639 0.0
N109 N 0.51631 0.90156 0.17084 0.0
C110 C 0.5012 0.89268 0.15081 0.0
C111 C 0.49578 0.90931 0.14274 0.0
C112 C 0.51988 0.92321 0.1748 0.0
N113 N 0.50763 0.92845 0.15785 0.0
C114 C 0.5275 0.85746 0.14831 0.0
C115 C 0.55973 0.89367 0.11761 0.0
C116 C 0.54654 0.87149 0.10631 0.0
C117 C 0.53059 0.85313 0.12224 0.0
C118 C 0.55597 0.89731 0.14361 0.0
N119 N 0.53998 0.87938 0.15877 0.0
H120 H 0.51378 0.84347 0.15943 0.0
H121 H 0.56464 0.91508 0.15055 0.0
H122 H 0.49438 0.87528 0.14291 0.0
H123 H 0.53061 0.93459 0.19035 0.0
O124 O 0.4979 0.8588 0.19403 0.0
O125 O 0.51318 0.88872 0.22139 0.0
O126 O 0.55845 0.91736 0.19637 0.0
C127 C 0.49541 0.86876 0.2148 0.0
H128 H 0.56387 0.86452 0.26661 0.0
H129 H 0.48404 0.90748 0.12706 0.0
H130 H 0.57172 0.90858 0.10596 0.0
H131 H 0.51987 0.83571 0.11437 0.0
Co132 Co 0.6405 0.53782 0.18994 0.0
C133 C 0.6875 0.54853 0.20853 0.0
C134 C 0.67057 0.56105 0.23424 0.0
C135 C 0.69084 0.56489 0.2458 0.0
N136 N 0.66865 0.55125 0.21063 0.0
N137 N 0.70137 0.55681 0.22976 0.0
H138 H 0.69024 0.53924 0.1929 0.0
H139 H 0.65754 0.56424 0.243 0.0
C140 C 0.6529 0.58781 0.19974 0.0
O141 O 0.67507 0.59506 0.19542 0.0
N142 N 0.61213 0.52415 0.17021 0.0
C143 C 0.60604 0.50898 0.15019 0.0
C144 C 0.58401 0.50338 0.14202 0.0
C145 C 0.59399 0.52757 0.17406 0.0
N146 N 0.57663 0.51522 0.15703 0.0
C147 C 0.66766 0.53829 0.1458 0.0
C148 C 0.65961 0.56848 0.11613 0.0
C149 C 0.669 0.55605 0.10391 0.0
C150 C 0.67382 0.54142 0.11931 0.0
C151 C 0.65377 0.56492 0.14255 0.0
N152 N 0.65746 0.54972 0.15714 0.0
H153 H 0.66922 0.52508 0.15649 0.0
H154 H 0.64426 0.57286 0.15033 0.0
H155 H 0.61681 0.50243 0.14222 0.0
H156 H 0.59327 0.53842 0.18944 0.0
O157 O 0.63833 0.50723 0.19182 0.0
O158 O 0.62323 0.52123 0.22026 0.0
O159 O 0.63749 0.5664 0.1962 0.0
C160 C 0.62621 0.50406 0.21306 0.0
H161 H 0.69692 0.57238 0.26494 0.0
H162 H 0.57424 0.49166 0.12625 0.0
H163 H 0.65554 0.57993 0.105 0.0
H164 H 0.68062 0.5311 0.11059 0.0
Co165 Co 0.10321 0.63951 0.19514 0.0
C166 C 0.13727 0.68687 0.21524 0.0
C167 C 0.10577 0.6699 0.23766 0.0
C168 C 0.12094 0.69041 0.24984 0.0
N169 N 0.11565 0.66791 0.21553 0.0
N170 N 0.14092 0.70103 0.23595 0.0
H171 H 0.15066 0.68933 0.2015 0.0
H172 H 0.08918 0.65666 0.24543 0.0
C173 C 0.06176 0.64672 0.2031 0.0
O174 O 0.07394 0.66874 0.19592 0.0
N175 N 0.09063 0.61084 0.17581 0.0
C176 C 0.10063 0.60548 0.15611 0.0
C177 C 0.08498 0.58324 0.14744 0.0
C178 C 0.06936 0.59208 0.17901 0.0
N179 N 0.06533 0.57509 0.1618 0.0
C180 C 0.12851 0.66845 0.15144 0.0
C181 C 0.08971 0.65524 0.12045 0.0
C182 C 0.11187 0.6675 0.10889 0.0
C183 C 0.13145 0.6747 0.12501 0.0
C184 C 0.08754 0.64933 0.14688 0.0
N185 N 0.10676 0.6557 0.16212 0.0
H186 H 0.14376 0.67226 0.16267 0.0
H187 H 0.07025 0.63774 0.15425 0.0
H188 H 0.1179 0.61701 0.1484 0.0
H189 H 0.05707 0.59076 0.19378 0.0
O190 O 0.13306 0.64028 0.19702 0.0
O191 O 0.10426 0.6235 0.2257 0.0
O192 O 0.07057 0.63343 0.20136 0.0
C193 C 0.12488 0.62804 0.21834 0.0
H194 H 0.11764 0.69643 0.2681 0.0
H195 H 0.08759 0.57403 0.13151 0.0
H196 H 0.07403 0.64864 0.1088 0.0
H197 H 0.14894 0.68416 0.11703 0.0
Co198 Co 0.8799 0.52956 0.3284 0.0
C199 C 0.848 0.54053 0.29841 0.0
C200 C 0.86717 0.5663 0.32763 0.0
C201 C 0.85323 0.57283 0.31461 0.0
N202 N 0.86389 0.546 0.31758 0.0
N203 N 0.8412 0.55663 0.29622 0.0
H204 H 0.8415 0.52519 0.2862 0.0
H205 H 0.87842 0.57553 0.34384 0.0
C206 C 0.92414 0.57899 0.32456 0.0
O207 O 0.92088 0.58827 0.34563 0.0
N208 N 0.89608 0.5135 0.33917 0.0
C209 C 0.88818 0.49575 0.35637 0.0
C210 C 0.90529 0.49004 0.36019 0.0
C211 C 0.91774 0.51831 0.33258 0.0
N212 N 0.9239 0.50433 0.34534 0.0
C213 C 0.85917 0.53269 0.37592 0.0
C214 C 0.89911 0.55136 0.40608 0.0
C215 C 0.87772 0.54504 0.4183 0.0
C216 C 0.85761 0.53579 0.40268 0.0
C217 C 0.89986 0.5478 0.37928 0.0
N218 N 0.88009 0.53881 0.36449 0.0
H219 H 0.8434 0.52471 0.36435 0.0
H220 H 0.91626 0.55161 0.37054 0.0
H221 H 0.87134 0.48786 0.3659 0.0
H222 H 0.92905 0.53224 0.31946 0.0
O223 O 0.85085 0.49954 0.32838 0.0
O224 O 0.87497 0.51506 0.2949 0.0
O225 O 0.91031 0.55776 0.31826 0.0
C226 C 0.85641 0.4973 0.30453 0.0
H227 H 0.85146 0.5879 0.31902 0.0
H228 H 0.90414 0.4765 0.37303 0.0
H229 H 0.91516 0.55866 0.41716 0.0
H230 H 0.8406 0.53009 0.41115 0.0
Co231 Co 0.35052 0.88346 0.32411 0.0
C232 C 0.30229 0.85008 0.30649 0.0
C233 C 0.31921 0.8806 0.28236 0.0
C234 C 0.29787 0.86558 0.27161 0.0
N235 N 0.32175 0.87124 0.30465 0.0
N236 N 0.28738 0.84639 0.28673 0.0
H237 H 0.29947 0.83711 0.32102 0.0
H238 H 0.33253 0.89662 0.27357 0.0
C239 C 0.34369 0.92523 0.31644 0.0
O240 O 0.32191 0.91364 0.32441 0.0
N241 N 0.37936 0.89554 0.34284 0.0
C242 C 0.38441 0.88457 0.3617 0.0
C243 C 0.40688 0.89925 0.37008 0.0
C244 C 0.3986 0.91657 0.33989 0.0
N245 N 0.41563 0.91934 0.3564 0.0
C246 C 0.32294 0.85803 0.36867 0.0
C247 C 0.33458 0.89694 0.399 0.0
C248 C 0.32295 0.87485 0.41087 0.0
C249 C 0.31657 0.85518 0.3951 0.0
C250 C 0.34071 0.89904 0.37265 0.0
N251 N 0.33495 0.87976 0.35766 0.0
H252 H 0.31979 0.8428 0.35768 0.0
H253 H 0.35171 0.9164 0.36509 0.0
H254 H 0.37255 0.86717 0.36889 0.0
H255 H 0.40024 0.92943 0.3257 0.0
O256 O 0.34967 0.85348 0.32115 0.0
O257 O 0.36582 0.88266 0.29284 0.0
O258 O 0.35685 0.91629 0.31827 0.0
C259 C 0.36143 0.86195 0.29958 0.0
H260 H 0.29126 0.86782 0.25318 0.0
H261 H 0.41595 0.89561 0.38529 0.0
H262 H 0.33989 0.91269 0.41027 0.0
H263 H 0.30809 0.83778 0.40343 0.0
Co264 Co 0.47079 0.35736 0.3243 0.0
C265 C 0.45641 0.3097 0.30391 0.0
C266 C 0.44283 0.32759 0.28156 0.0
C267 C 0.43697 0.307 0.26925 0.0
N268 N 0.45447 0.32911 0.3037 0.0
N269 N 0.44574 0.2958 0.28308 0.0
H270 H 0.46683 0.30662 0.31778 0.0
H271 H 0.43997 0.34118 0.27392 0.0
C272 C 0.42201 0.34972 0.31773 0.0
O273 O 0.41234 0.32775 0.32503 0.0
N274 N 0.48729 0.38583 0.34393 0.0
C275 C 0.50286 0.3905 0.36315 0.0
C276 C 0.51083 0.41301 0.3717 0.0
C277 C 0.48605 0.40538 0.34084 0.0
N278 N 0.50021 0.42231 0.35762 0.0
C279 C 0.46864 0.32829 0.36734 0.0
C280 C 0.44116 0.3387 0.39893 0.0
C281 C 0.45134 0.32645 0.40976 0.0
C282 C 0.46495 0.3209 0.39344 0.0
C283 C 0.44551 0.34598 0.37295 0.0
N284 N 0.45904 0.34073 0.35731 0.0
H285 H 0.48063 0.32542 0.35581 0.0
H286 H 0.43943 0.35747 0.36627 0.0
H287 H 0.50812 0.37842 0.37033 0.0
H288 H 0.4748 0.40703 0.32675 0.0
O289 O 0.50004 0.35698 0.32049 0.0
O290 O 0.48666 0.37367 0.29339 0.0
O291 O 0.44401 0.36332 0.31965 0.0
C292 C 0.50306 0.36921 0.29934 0.0
H293 H 0.42766 0.30126 0.25096 0.0
H294 H 0.52368 0.4219 0.38682 0.0
H295 H 0.4312 0.3441 0.41092 0.0
H296 H 0.4734 0.3117 0.40102 0.0
Co297 Co 0.1093 0.46841 0.32024 0.0
C298 C 0.14297 0.45284 0.30521 0.0
C299 C 0.11228 0.43787 0.28138 0.0
C300 C 0.12715 0.43091 0.27168 0.0
N301 N 0.12183 0.45107 0.30286 0.0
N302 N 0.14644 0.44042 0.28659 0.0
H303 H 0.15607 0.46384 0.31917 0.0
H304 H 0.09623 0.43469 0.27232 0.0
C305 C 0.06749 0.41951 0.31489 0.0
O306 O 0.07874 0.40955 0.32464 0.0
N307 N 0.09639 0.48566 0.33637 0.0
C308 C 0.10505 0.50101 0.35624 0.0
C309 C 0.08994 0.50929 0.36107 0.0
C310 C 0.07654 0.48495 0.32918 0.0
N311 N 0.07202 0.49905 0.34406 0.0
C312 C 0.13396 0.46709 0.3657 0.0
C313 C 0.09499 0.44087 0.39632 0.0
C314 C 0.1171 0.45058 0.40786 0.0
C315 C 0.13676 0.46359 0.39207 0.0
C316 C 0.09295 0.44497 0.36995 0.0
N317 N 0.11229 0.45771 0.35478 0.0
H318 H 0.14927 0.47865 0.35456 0.0
H319 H 0.07572 0.43918 0.36237 0.0
H320 H 0.12106 0.50569 0.36653 0.0
H321 H 0.06577 0.47447 0.31315 0.0
O322 O 0.13924 0.4973 0.31746 0.0
O323 O 0.11111 0.48359 0.28788 0.0
O324 O 0.07676 0.4417 0.31451 0.0
C325 C 0.13154 0.50013 0.29513 0.0
H326 H 0.1247 0.421 0.25398 0.0
H327 H 0.09175 0.52146 0.37627 0.0
H328 H 0.07929 0.43139 0.40793 0.0
H329 H 0.15418 0.47169 0.40021 0.0
Co330 Co 0.63735 0.10144 0.32307 0.0
C331 C 0.68349 0.13767 0.30225 0.0
C332 C 0.66584 0.10794 0.27704 0.0
C333 C 0.6861 0.12408 0.26499 0.0
N334 N 0.66448 0.11617 0.30069 0.0
N335 N 0.69702 0.14274 0.28082 0.0
H336 H 0.68709 0.14974 0.3181 0.0
H337 H 0.65257 0.0916 0.26873 0.0
C338 C 0.65095 0.06486 0.31314 0.0
O339 O 0.67306 0.08057 0.31645 0.0
N340 N 0.60992 0.08669 0.34444 0.0
C341 C 0.60471 0.09583 0.3651 0.0
C342 C 0.58266 0.07977 0.37366 0.0
C343 C 0.59121 0.06548 0.34054 0.0
N344 N 0.57423 0.06076 0.3581 0.0
C345 C 0.66584 0.13002 0.36545 0.0
C346 C 0.66116 0.09337 0.39582 0.0
C347 C 0.67031 0.11549 0.40733 0.0
C348 C 0.67334 0.13414 0.39149 0.0
C349 C 0.65382 0.08997 0.36986 0.0
N350 N 0.65592 0.10809 0.3549 0.0
H351 H 0.66619 0.14417 0.35458 0.0
H352 H 0.64457 0.07225 0.36282 0.0
H353 H 0.61591 0.11311 0.37299 0.0
H354 H 0.59006 0.05388 0.32499 0.0
O355 O 0.63421 0.12926 0.32098 0.0
O356 O 0.61845 0.09929 0.29371 0.0
O357 O 0.63506 0.07008 0.31738 0.0
C358 C 0.62118 0.11943 0.30057 0.0
H359 H 0.69178 0.12275 0.24558 0.0
H360 H 0.57332 0.08225 0.38953 0.0
H361 H 0.6585 0.07841 0.40721 0.0
H362 H 0.67986 0.15146 0.3996 0.0
Co363 Co 0.52965 0.63916 0.32741 0.0
C364 C 0.53803 0.6842 0.30369 0.0
C365 C 0.54981 0.66547 0.27991 0.0
C366 C 0.55325 0.68482 0.26645 0.0
N367 N 0.54078 0.66527 0.3035 0.0
N368 N 0.54569 0.69667 0.28124 0.0
H369 H 0.52967 0.68814 0.31932 0.0
H370 H 0.55318 0.65203 0.27268 0.0
C371 C 0.5801 0.65466 0.31723 0.0
O372 O 0.58547 0.67659 0.31989 0.0
N373 N 0.51836 0.61264 0.35017 0.0
C374 C 0.50382 0.60728 0.37068 0.0
C375 C 0.49937 0.58601 0.38056 0.0
C376 C 0.52255 0.59482 0.34774 0.0
N377 N 0.51126 0.57835 0.3661 0.0
C378 C 0.52869 0.66863 0.368 0.0
C379 C 0.56127 0.6662 0.39953 0.0
C380 C 0.54749 0.67475 0.41024 0.0
C381 C 0.53152 0.67658 0.39382 0.0
C382 C 0.55776 0.65825 0.37374 0.0
N383 N 0.5414 0.65918 0.35827 0.0
H384 H 0.51478 0.66824 0.35667 0.0
H385 H 0.56675 0.64931 0.36735 0.0
H386 H 0.4967 0.61788 0.37768 0.0
H387 H 0.53297 0.59353 0.33223 0.0
O388 O 0.49826 0.63472 0.32537 0.0
O389 O 0.51282 0.61864 0.29903 0.0
O390 O 0.5594 0.63815 0.32202 0.0
C391 C 0.49518 0.62104 0.30561 0.0
H392 H 0.56043 0.68933 0.24701 0.0
H393 H 0.48818 0.57685 0.39694 0.0
H394 H 0.57338 0.66385 0.41158 0.0
H395 H 0.52042 0.68299 0.40123 0.0
Co396 Co 0.53558 0.89169 0.82357 0.0
C397 C 0.5462 0.85608 0.80216 0.0
C398 C 0.56042 0.88723 0.7791 0.0
C399 C 0.56435 0.87129 0.76636 0.0
N400 N 0.54961 0.87801 0.8019 0.0
N401 N 0.55521 0.85147 0.78067 0.0
H402 H 0.53599 0.84333 0.81679 0.0
H403 H 0.56421 0.90406 0.77157 0.0
C404 C 0.58555 0.9298 0.81606 0.0
O405 O 0.59273 0.91476 0.82019 0.0
N406 N 0.52122 0.90525 0.84424 0.0
C407 C 0.506 0.89503 0.864 0.0
C408 C 0.49896 0.91028 0.87261 0.0
C409 C 0.52325 0.92635 0.84095 0.0
N410 N 0.50987 0.92991 0.85809 0.0
C411 C 0.5353 0.86312 0.86626 0.0
C412 C 0.56447 0.90016 0.89799 0.0
C413 C 0.55181 0.87786 0.90914 0.0
C414 C 0.53771 0.85903 0.89266 0.0
C415 C 0.56153 0.90351 0.8717 0.0
N416 N 0.54682 0.88522 0.85607 0.0
H417 H 0.5225 0.84875 0.85475 0.0
H418 H 0.56953 0.92128 0.86487 0.0
H419 H 0.50019 0.87762 0.87134 0.0
H420 H 0.53367 0.9385 0.82577 0.0
O421 O 0.50513 0.86336 0.82009 0.0
O422 O 0.51978 0.89373 0.79332 0.0
O423 O 0.56408 0.92366 0.8191 0.0
C424 C 0.50252 0.87329 0.79936 0.0
H425 H 0.57258 0.87411 0.74748 0.0
H426 H 0.48673 0.90715 0.88825 0.0
H427 H 0.57564 0.91525 0.90986 0.0
H428 H 0.52726 0.84154 0.90045 0.0
Co429 Co 0.63933 0.53376 0.81979 0.0
C430 C 0.68772 0.54696 0.80433 0.0
C431 C 0.67243 0.56139 0.77896 0.0
C432 C 0.69393 0.56703 0.76916 0.0
N433 N 0.66879 0.54939 0.80144 0.0
N434 N 0.70337 0.5578 0.78506 0.0
H435 H 0.68966 0.53656 0.81926 0.0
H436 H 0.65981 0.56486 0.76965 0.0
C437 C 0.65004 0.58362 0.8137 0.0
O438 O 0.67205 0.59145 0.81958 0.0
N439 N 0.6096 0.51792 0.83685 0.0
C440 C 0.60302 0.50327 0.8574 0.0
C441 C 0.57931 0.49379 0.86094 0.0
C442 C 0.59009 0.51703 0.82799 0.0
N443 N 0.57131 0.50237 0.84225 0.0
C444 C 0.66488 0.53312 0.86483 0.0
C445 C 0.65626 0.56252 0.8953 0.0
C446 C 0.667 0.55106 0.90682 0.0
C447 C 0.67158 0.53644 0.89108 0.0
C448 C 0.64962 0.55854 0.86907 0.0
N449 N 0.65413 0.54417 0.85395 0.0
H450 H 0.66697 0.5204 0.8538 0.0
H451 H 0.63936 0.56581 0.86171 0.0
H452 H 0.61447 0.49926 0.86849 0.0
H453 H 0.58969 0.52674 0.81119 0.0
O454 O 0.63862 0.50398 0.81678 0.0
O455 O 0.62453 0.51851 0.78778 0.0
O456 O 0.6352 0.56179 0.81483 0.0
C457 C 0.62756 0.50134 0.79488 0.0
H458 H 0.7014 0.57587 0.7509 0.0
H459 H 0.5687 0.48107 0.87558 0.0
H460 H 0.65164 0.57334 0.90688 0.0
H461 H 0.67956 0.52698 0.89921 0.0
Co462 Co 0.11116 0.64212 0.82138 0.0
C463 C 0.1477 0.6911 0.80993 0.0
C464 C 0.11494 0.68258 0.79272 0.0
C465 C 0.13123 0.70468 0.78491 0.0
N466 N 0.12499 0.67418 0.80911 0.0
N467 N 0.15183 0.70996 0.79563 0.0
H468 H 0.16125 0.68924 0.81945 0.0
H469 H 0.09756 0.67286 0.78489 0.0
C470 C 0.06722 0.64644 0.81944 0.0
O471 O 0.0754 0.66414 0.83573 0.0
N472 N 0.09747 0.6101 0.83258 0.0
C473 C 0.10539 0.60161 0.85137 0.0
C474 C 0.0904 0.57786 0.85327 0.0
C475 C 0.07813 0.59157 0.823 0.0
N476 N 0.07332 0.57165 0.83541 0.0
C477 C 0.13125 0.66628 0.86966 0.0
C478 C 0.09061 0.6439 0.89865 0.0
C479 C 0.11149 0.65931 0.91147 0.0
C480 C 0.13197 0.67073 0.89646 0.0
C481 C 0.09068 0.6399 0.87187 0.0
N482 N 0.11077 0.65126 0.85754 0.0
H483 H 0.14743 0.67407 0.85899 0.0
H484 H 0.07464 0.62691 0.86284 0.0
H485 H 0.12082 0.61202 0.86301 0.0
H486 H 0.06748 0.59274 0.80773 0.0
O487 O 0.14136 0.64365 0.82027 0.0
O488 O 0.11619 0.6332 0.7876 0.0
O489 O 0.07901 0.63659 0.81364 0.0
C490 C 0.13581 0.63596 0.79639 0.0
H491 H 0.12856 0.71529 0.77077 0.0
H492 H 0.09188 0.5661 0.86681 0.0
H493 H 0.07432 0.63461 0.90927 0.0
H494 H 0.14865 0.68224 0.90551 0.0
Co495 Co 0.45848 0.10467 0.8226 0.0
C496 C 0.44645 0.13954 0.80199 0.0
C497 C 0.4322 0.10825 0.77914 0.0
C498 C 0.42738 0.12374 0.76683 0.0
N499 N 0.4436 0.11782 0.80157 0.0
N500 N 0.43656 0.1436 0.78101 0.0
H501 H 0.4569 0.15262 0.81624 0.0
H502 H 0.4285 0.09143 0.77161 0.0
C503 C 0.40849 0.06634 0.81698 0.0
O504 O 0.40141 0.08138 0.82164 0.0
N505 N 0.47372 0.09167 0.84262 0.0
C506 C 0.48931 0.10225 0.86191 0.0
C507 C 0.49716 0.08751 0.86995 0.0
C508 C 0.47232 0.07087 0.83897 0.0
N509 N 0.48648 0.06783 0.85544 0.0
C510 C 0.45933 0.13359 0.86529 0.0
C511 C 0.43051 0.09692 0.89771 0.0
C512 C 0.44261 0.11948 0.9083 0.0
C513 C 0.45681 0.13805 0.89152 0.0
C514 C 0.43366 0.09319 0.87158 0.0
N515 N 0.44796 0.11134 0.85554 0.0
H516 H 0.47188 0.14786 0.85345 0.0
H517 H 0.42609 0.07533 0.86519 0.0
H518 H 0.49496 0.11964 0.8692 0.0
H519 H 0.46128 0.05835 0.82442 0.0
O520 O 0.48868 0.13315 0.81802 0.0
O521 O 0.47351 0.10244 0.7917 0.0
O522 O 0.43005 0.07253 0.81914 0.0
C523 C 0.49078 0.12305 0.79712 0.0
H524 H 0.41837 0.12067 0.74841 0.0
H525 H 0.51024 0.09132 0.88474 0.0
H526 H 0.41998 0.0819 0.90997 0.0
H527 H 0.46669 0.15578 0.89883 0.0
Co528 Co 0.34741 0.46549 0.82001 0.0
C529 C 0.30267 0.45392 0.79422 0.0
C530 C 0.29849 0.42742 0.82136 0.0
C531 C 0.27717 0.42081 0.81032 0.0
N532 N 0.31451 0.44824 0.81136 0.0
N533 N 0.27984 0.4375 0.79326 0.0
H534 H 0.31047 0.46968 0.78261 0.0
H535 H 0.30179 0.41795 0.8363 0.0
C536 C 0.3445 0.41697 0.81677 0.0
O537 O 0.33382 0.40833 0.83901 0.0
N538 N 0.38012 0.48247 0.82841 0.0
C539 C 0.39069 0.50077 0.84484 0.0
C540 C 0.41406 0.50782 0.84572 0.0
C541 C 0.39702 0.47866 0.81938 0.0
N542 N 0.41792 0.49383 0.8298 0.0
C543 C 0.32495 0.46149 0.86893 0.0
C544 C 0.35008 0.44619 0.8977 0.0
C545 C 0.33413 0.45082 0.91073 0.0
C546 C 0.32133 0.45838 0.89586 0.0
C547 C 0.35313 0.44949 0.87071 0.0
N548 N 0.34044 0.45679 0.8566 0.0
H549 H 0.31569 0.46828 0.85793 0.0
H550 H 0.36616 0.44675 0.86124 0.0
H551 H 0.38192 0.50813 0.85579 0.0
H552 H 0.39411 0.46504 0.80562 0.0
O553 O 0.3477 0.49517 0.8205 0.0
O554 O 0.35484 0.4794 0.78606 0.0
O555 O 0.35009 0.43759 0.8095 0.0
C556 C 0.35443 0.49722 0.79621 0.0
H557 H 0.26083 0.40534 0.81524 0.0
H558 H 0.42702 0.52157 0.8579 0.0
H559 H 0.36036 0.44031 0.90828 0.0
H560 H 0.30923 0.46271 0.90506 0.0
Co561 Co 0.88011 0.3501 0.82526 0.0
C562 C 0.84384 0.30391 0.80452 0.0
C563 C 0.872 0.30214 0.82284 0.0
C564 C 0.85656 0.28044 0.81309 0.0
N565 N 0.86415 0.31694 0.81734 0.0
N566 N 0.83879 0.28149 0.80153 0.0
H567 H 0.83283 0.31056 0.79781 0.0
H568 H 0.8878 0.30665 0.83337 0.0
C569 C 0.92693 0.34944 0.82249 0.0
O570 O 0.92712 0.34235 0.84633 0.0
N571 N 0.89636 0.38318 0.8326 0.0
C572 C 0.88949 0.39458 0.84891 0.0
C573 C 0.90603 0.41798 0.84849 0.0
C574 C 0.91672 0.39967 0.82226 0.0
N575 N 0.92315 0.4211 0.8318 0.0
C576 C 0.86219 0.32706 0.87391 0.0
C577 C 0.90145 0.35424 0.90365 0.0
C578 C 0.88107 0.3373 0.91627 0.0
C579 C 0.86133 0.32353 0.90086 0.0
C580 C 0.90151 0.3573 0.87662 0.0
N581 N 0.88214 0.34356 0.86198 0.0
H582 H 0.84645 0.31704 0.86264 0.0
H583 H 0.91705 0.37114 0.86755 0.0
H584 H 0.87379 0.38637 0.86063 0.0
H585 H 0.92663 0.39608 0.80807 0.0
O586 O 0.8509 0.35049 0.82633 0.0
O587 O 0.87293 0.35676 0.79128 0.0
O588 O 0.91038 0.35234 0.81425 0.0
C589 C 0.85489 0.35646 0.80178 0.0
H590 H 0.85858 0.26519 0.81428 0.0
H591 H 0.90585 0.43151 0.86026 0.0
H592 H 0.91719 0.3653 0.91457 0.0
H593 H 0.84497 0.31071 0.90961 0.0
Co594 Co 0.10426 0.46854 0.6906 0.0
C595 C 0.13702 0.45324 0.70973 0.0
C596 C 0.10732 0.44251 0.73462 0.0
C597 C 0.12208 0.43635 0.74627 0.0
N598 N 0.11638 0.45266 0.71146 0.0
N599 N 0.14086 0.44328 0.73074 0.0
H600 H 0.14971 0.46217 0.69456 0.0
H601 H 0.09148 0.44065 0.74306 0.0
C602 C 0.06342 0.42 0.69939 0.0
O603 O 0.07634 0.41067 0.69348 0.0
N604 N 0.09216 0.48464 0.67064 0.0
C605 C 0.10233 0.49919 0.65033 0.0
C606 C 0.08762 0.50697 0.6419 0.0
C607 C 0.07173 0.48386 0.67453 0.0
N608 N 0.06845 0.49731 0.65723 0.0
C609 C 0.12996 0.46532 0.64692 0.0
C610 C 0.09111 0.43786 0.61671 0.0
C611 C 0.11314 0.44836 0.60487 0.0
C612 C 0.13282 0.46161 0.62054 0.0
C613 C 0.08902 0.44198 0.64298 0.0
N614 N 0.10824 0.45576 0.65786 0.0
H615 H 0.14514 0.47757 0.65781 0.0
H616 H 0.07167 0.43572 0.65041 0.0
H617 H 0.11922 0.50383 0.64228 0.0
H618 H 0.05941 0.47342 0.68955 0.0
O619 O 0.1341 0.49776 0.69311 0.0
O620 O 0.10468 0.48557 0.7209 0.0
O621 O 0.07151 0.44192 0.69646 0.0
C622 C 0.1254 0.50177 0.71407 0.0
H623 H 0.11948 0.42808 0.76515 0.0
H624 H 0.09091 0.51899 0.62599 0.0
H625 H 0.07542 0.42756 0.60536 0.0
H626 H 0.15015 0.47047 0.61209 0.0
Co627 Co 0.63815 0.10338 0.68517 0.0
C628 C 0.68297 0.13912 0.70957 0.0
C629 C 0.6614 0.11066 0.73517 0.0
C630 C 0.68029 0.12689 0.74905 0.0
N631 N 0.66306 0.11823 0.71039 0.0
N632 N 0.69374 0.14472 0.73296 0.0
H633 H 0.68897 0.15058 0.69287 0.0
H634 H 0.64698 0.09467 0.74281 0.0
C635 C 0.65399 0.06923 0.69774 0.0
O636 O 0.67579 0.08629 0.6968 0.0
N637 N 0.61293 0.08867 0.66076 0.0
C638 C 0.60919 0.09871 0.63985 0.0
C639 C 0.58793 0.08308 0.62922 0.0
C640 C 0.59409 0.06723 0.66268 0.0
N641 N 0.57853 0.06336 0.64364 0.0
C642 C 0.66832 0.13489 0.64572 0.0
C643 C 0.66883 0.10076 0.61495 0.0
C644 C 0.67638 0.12286 0.60402 0.0
C645 C 0.67684 0.14029 0.62012 0.0
C646 C 0.66028 0.09602 0.64048 0.0
N647 N 0.65958 0.1128 0.65549 0.0
H648 H 0.66687 0.14799 0.65684 0.0
H649 H 0.65213 0.07812 0.64688 0.0
H650 H 0.62066 0.11645 0.63338 0.0
H651 H 0.59126 0.05525 0.67851 0.0
O652 O 0.63267 0.12985 0.68759 0.0
O653 O 0.61625 0.09823 0.7124 0.0
O654 O 0.63753 0.07276 0.69045 0.0
C655 C 0.61839 0.11831 0.70662 0.0
H656 H 0.6837 0.12591 0.76952 0.0
H657 H 0.57975 0.08617 0.61261 0.0
H658 H 0.66759 0.08655 0.60319 0.0
H659 H 0.68254 0.15764 0.61256 0.0
Co660 Co 0.52688 0.63928 0.69212 0.0
C661 C 0.53767 0.68646 0.71158 0.0
C662 C 0.5472 0.66769 0.73837 0.0
C663 C 0.55243 0.68859 0.74962 0.0
N664 N 0.53847 0.66653 0.71429 0.0
N665 N 0.54636 0.70028 0.73281 0.0
H666 H 0.53069 0.69078 0.69485 0.0
H667 H 0.54938 0.65405 0.74727 0.0
C668 C 0.5772 0.65429 0.70291 0.0
O669 O 0.58309 0.67632 0.69984 0.0
N670 N 0.51516 0.61171 0.67104 0.0
C671 C 0.50045 0.60551 0.65062 0.0
C672 C 0.49591 0.58385 0.64199 0.0
C673 C 0.51937 0.59402 0.67465 0.0
N674 N 0.50794 0.57683 0.65711 0.0
C675 C 0.52664 0.66714 0.64901 0.0
C676 C 0.55911 0.66256 0.61949 0.0
C677 C 0.54591 0.67112 0.60738 0.0
C678 C 0.53007 0.67418 0.62277 0.0
C679 C 0.55516 0.65573 0.64562 0.0
N680 N 0.53887 0.65772 0.66015 0.0
H681 H 0.51275 0.66749 0.65967 0.0
H682 H 0.56383 0.64685 0.65313 0.0
H683 H 0.49335 0.61585 0.6428 0.0
H684 H 0.52999 0.59341 0.69032 0.0
O685 O 0.49558 0.63527 0.69357 0.0
O686 O 0.51004 0.62021 0.72141 0.0
O687 O 0.55633 0.638 0.69849 0.0
C688 C 0.49241 0.62229 0.71406 0.0
H689 H 0.55941 0.69446 0.769 0.0
H690 H 0.48466 0.57405 0.62592 0.0
H691 H 0.57155 0.65989 0.60844 0.0
H692 H 0.51918 0.68033 0.61417 0.0
Co693 Co 0.88327 0.5257 0.69932 0.0
C694 C 0.84995 0.53938 0.72091 0.0
C695 C 0.87966 0.54935 0.74541 0.0
C696 C 0.86505 0.5554 0.75768 0.0
N697 N 0.87051 0.53981 0.72209 0.0
N698 N 0.84619 0.54899 0.7424 0.0
H699 H 0.83751 0.53115 0.7054 0.0
H700 H 0.89566 0.55123 0.75331 0.0
C701 C 0.9227 0.57477 0.70936 0.0
O702 O 0.9093 0.58373 0.70432 0.0
N703 N 0.89615 0.51146 0.67732 0.0
C704 C 0.8853 0.49589 0.658 0.0
C705 C 0.90115 0.49083 0.6466 0.0
C706 C 0.91822 0.51571 0.67752 0.0
N707 N 0.92179 0.50351 0.65884 0.0
C708 C 0.85595 0.52838 0.65727 0.0
C709 C 0.89377 0.55827 0.62686 0.0
C710 C 0.87158 0.54694 0.61537 0.0
C711 C 0.85241 0.53234 0.63123 0.0
C712 C 0.89654 0.55385 0.65283 0.0
N713 N 0.87785 0.53889 0.6678 0.0
H714 H 0.84125 0.51534 0.6682 0.0
H715 H 0.91413 0.56081 0.65978 0.0
H716 H 0.86725 0.48891 0.65245 0.0
H717 H 0.93138 0.52726 0.69123 0.0
O718 O 0.85425 0.49565 0.70162 0.0
O719 O 0.88443 0.50819 0.72831 0.0
O720 O 0.91541 0.55314 0.70523 0.0
C721 C 0.86384 0.4916 0.7217 0.0
H722 H 0.86812 0.56355 0.77665 0.0
H723 H 0.89789 0.47908 0.6304 0.0
H724 H 0.90924 0.56907 0.61537 0.0
H725 H 0.83492 0.52311 0.62328 0.0
Co726 Co 0.35448 0.89131 0.69023 0.0
C727 C 0.30991 0.85609 0.71542 0.0
C728 C 0.32896 0.88747 0.73784 0.0
C729 C 0.31011 0.87184 0.75223 0.0
N730 N 0.32865 0.87785 0.71454 0.0
N731 N 0.29823 0.85202 0.73825 0.0
H732 H 0.3057 0.843 0.70058 0.0
H733 H 0.34255 0.90446 0.74437 0.0
C734 C 0.34035 0.92743 0.69862 0.0
O735 O 0.31838 0.91111 0.69597 0.0
N736 N 0.38066 0.90465 0.66691 0.0
C737 C 0.38455 0.89376 0.64699 0.0
C738 C 0.40635 0.90856 0.63695 0.0
C739 C 0.39997 0.92575 0.6689 0.0
N740 N 0.41605 0.92863 0.65082 0.0
C741 C 0.32397 0.86017 0.65053 0.0
C742 C 0.32748 0.89511 0.6179 0.0
C743 C 0.31797 0.87241 0.60787 0.0
C744 C 0.31565 0.85467 0.62484 0.0
C745 C 0.33575 0.89989 0.64349 0.0
N746 N 0.33425 0.88264 0.65955 0.0
H747 H 0.32399 0.84664 0.6623 0.0
H748 H 0.34542 0.91799 0.64919 0.0
H749 H 0.37273 0.87601 0.64082 0.0
H750 H 0.40227 0.93843 0.68366 0.0
O751 O 0.35815 0.86385 0.69398 0.0
O752 O 0.37494 0.89556 0.71869 0.0
O753 O 0.3566 0.92278 0.69408 0.0
C754 C 0.37203 0.87507 0.7134 0.0
H755 H 0.30584 0.87473 0.77175 0.0
H756 H 0.41476 0.90439 0.62142 0.0
H757 H 0.33036 0.90956 0.60545 0.0
H758 H 0.30853 0.83688 0.61797 0.0
Co759 Co 0.46655 0.35507 0.69393 0.0
C760 C 0.45116 0.30655 0.71146 0.0
C761 C 0.43712 0.32339 0.73504 0.0
C762 C 0.43057 0.30195 0.74582 0.0
N763 N 0.44944 0.32604 0.71304 0.0
N764 N 0.43954 0.29151 0.73105 0.0
H765 H 0.46162 0.30382 0.6973 0.0
H766 H 0.43425 0.3367 0.74362 0.0
C767 C 0.41826 0.34892 0.70071 0.0
O768 O 0.40824 0.32698 0.69314 0.0
N769 N 0.48393 0.38422 0.67573 0.0
C770 C 0.49958 0.38917 0.65648 0.0
C771 C 0.50841 0.41214 0.64924 0.0
C772 C 0.48351 0.40405 0.68017 0.0
N773 N 0.49826 0.42143 0.66419 0.0
C774 C 0.4638 0.32732 0.64924 0.0
C775 C 0.43854 0.34111 0.61849 0.0
C776 C 0.44831 0.32878 0.60678 0.0
C777 C 0.46053 0.32128 0.62273 0.0
C778 C 0.4422 0.34677 0.64497 0.0
N779 N 0.45478 0.34 0.66015 0.0
H780 H 0.47524 0.32341 0.66037 0.0
H781 H 0.43645 0.35828 0.65251 0.0
H782 H 0.50429 0.37696 0.64839 0.0
H783 H 0.47242 0.4056 0.69459 0.0
O784 O 0.49522 0.35357 0.69669 0.0
O785 O 0.48262 0.36985 0.72538 0.0
O786 O 0.4404 0.36191 0.69954 0.0
C787 C 0.49877 0.36531 0.71833 0.0
H788 H 0.42133 0.29523 0.76404 0.0
H789 H 0.52145 0.42133 0.63436 0.0
H790 H 0.42902 0.34734 0.607 0.0
H791 H 0.46889 0.31222 0.61447 0.0
C792 C 0.494 0.03864 0.18518 0.0
C793 C 0.49851 0.05292 0.16322 0.0
C794 C 0.49595 0.01849 0.18399 0.0
C795 C 0.50276 0.01262 0.16031 0.0
C796 C 0.50776 0.02716 0.1382 0.0
C797 C 0.5055 0.04712 0.1399 0.0
C798 C 0.49051 0.00337 0.208 0.0
C799 C 0.51519 0.02146 0.11266 0.0
C800 C 0.52632 0.97095 0.1643 0.0
C801 C 0.5067 0.94971 0.15718 0.0
C802 C 0.52541 0.99168 0.16502 0.0
C803 C 0.50431 0.99105 0.15861 0.0
C804 C 0.48453 0.96972 0.15106 0.0
C805 C 0.486 0.94928 0.15033 0.0
C806 C 0.54692 0.01418 0.17292 0.0
C807 C 0.46168 0.96839 0.14432 0.0
H808 H 0.48902 0.04324 0.20339 0.0
H809 H 0.50873 0.05789 0.12277 0.0
H810 H 0.47598 0.98546 0.20382 0.0
H811 H 0.50589 0.00182 0.2135 0.0
H812 H 0.48552 0.01046 0.22492 0.0
H813 H 0.51922 0.03503 0.09756 0.0
H814 H 0.53087 0.01973 0.11563 0.0
H815 H 0.50113 0.00442 0.10521 0.0
H816 H 0.54243 0.97135 0.16926 0.0
H817 H 0.47076 0.93282 0.14514 0.0
H818 H 0.54339 0.02099 0.19111 0.0
H819 H 0.55148 0.02767 0.15763 0.0
H820 H 0.56221 0.01182 0.17624 0.0
H821 H 0.4551 0.97366 0.16144 0.0
H822 H 0.44811 0.95054 0.13826 0.0
H823 H 0.46431 0.98076 0.1283 0.0
C824 C 0.53426 0.49358 0.14948 0.0
C825 C 0.55456 0.51439 0.15604 0.0
C826 C 0.51241 0.49212 0.15034 0.0
C827 C 0.51098 0.51204 0.1577 0.0
C828 C 0.53151 0.53331 0.16354 0.0
C829 C 0.55308 0.53419 0.16274 0.0
C830 C 0.4908 0.4691 0.14418 0.0
C831 C 0.53065 0.55495 0.17122 0.0
C832 C 0.45522 0.51199 0.14114 0.0
C833 C 0.44314 0.50502 0.1649 0.0
C834 C 0.47755 0.51476 0.1386 0.0
C835 C 0.48791 0.51031 0.16032 0.0
C836 C 0.47602 0.50372 0.18449 0.0
C837 C 0.4538 0.50125 0.18651 0.0
C838 C 0.48986 0.52198 0.11258 0.0
C839 C 0.4866 0.4989 0.2081 0.0
H840 H 0.53541 0.47823 0.14456 0.0
H841 H 0.56885 0.55038 0.16743 0.0
H842 H 0.47947 0.46256 0.1617 0.0
H843 H 0.48057 0.47151 0.12861 0.0
H844 H 0.49502 0.45556 0.13777 0.0
H845 H 0.54834 0.57056 0.17297 0.0
H846 H 0.52055 0.5587 0.15666 0.0
H847 H 0.52158 0.55202 0.19023 0.0
H848 H 0.44698 0.51468 0.12431 0.0
H849 H 0.44472 0.4963 0.20503 0.0
H850 H 0.49261 0.50784 0.10486 0.0
H851 H 0.50734 0.53775 0.11494 0.0
H852 H 0.47985 0.52582 0.09796 0.0
H853 H 0.48989 0.48431 0.20387 0.0
H854 H 0.47516 0.49423 0.22555 0.0
H855 H 0.50368 0.51448 0.21279 0.0
C856 C 0.04458 0.53277 0.1531 0.0
C857 C 0.04407 0.55314 0.15937 0.0
C858 C 0.02398 0.51097 0.15305 0.0
C859 C 0.00252 0.50975 0.15921 0.0
C860 C 0.00185 0.53041 0.16451 0.0
C861 C 0.02267 0.55187 0.16456 0.0
C862 C 0.02529 0.4892 0.14745 0.0
C863 C 0.97925 0.52981 0.17093 0.0
C864 C 0.94528 0.45534 0.14294 0.0
C865 C 0.93894 0.44409 0.16721 0.0
C866 C 0.96613 0.47664 0.13991 0.0
C867 C 0.98092 0.4868 0.16168 0.0
C868 C 0.97467 0.47551 0.18621 0.0
C869 C 0.95371 0.45431 0.18868 0.0
C870 C 0.97227 0.48831 0.11349 0.0
C871 C 0.99 0.48594 0.20992 0.0
H872 H 0.06118 0.5338 0.14923 0.0
H873 H 0.02227 0.56772 0.1689 0.0
H874 H 0.02041 0.47814 0.16521 0.0
H875 H 0.01266 0.47871 0.13196 0.0
H876 H 0.04303 0.49331 0.14124 0.0
H877 H 0.9816 0.54761 0.17305 0.0
H878 H 0.96613 0.52038 0.15547 0.0
H879 H 0.97202 0.52015 0.18944 0.0
H880 H 0.93411 0.44734 0.12621 0.0
H881 H 0.94873 0.44587 0.20755 0.0
H882 H 0.98947 0.49104 0.10703 0.0
H883 H 0.9738 0.5058 0.11478 0.0
H884 H 0.95903 0.47789 0.09845 0.0
H885 H 0.00783 0.48911 0.20585 0.0
H886 H 0.98302 0.47446 0.22733 0.0
H887 H 0.99161 0.50309 0.21461 0.0
C888 C 0.03041 0.48284 0.33368 0.0
C889 C 0.05159 0.50146 0.34273 0.0
C890 C 0.01017 0.48453 0.33285 0.0
C891 C 0.01107 0.50533 0.34141 0.0
C892 C 0.03245 0.52439 0.35012 0.0
C893 C 0.05249 0.52221 0.3507 0.0
C894 C 0.98766 0.46378 0.3235 0.0
C895 C 0.03404 0.54688 0.35925 0.0
C896 C 0.9602 0.51343 0.32212 0.0
C897 C 0.94613 0.50533 0.34448 0.0
C898 C 0.98174 0.51412 0.32101 0.0
C899 C 0.98926 0.50645 0.34276 0.0
C900 C 0.97535 0.49867 0.36554 0.0
C901 C 0.95398 0.49824 0.36613 0.0
C902 C -0.00386 0.52254 0.29638 0.0
C903 C 0.98285 0.49042 0.38917 0.0
H904 H 0.02947 0.46662 0.32788 0.0
H905 H 0.06888 0.53675 0.35735 0.0
H906 H 0.97483 0.45694 0.33972 0.0
H907 H 0.97993 0.46918 0.30768 0.0
H908 H 0.99022 0.44938 0.31617 0.0
H909 H 0.05221 0.56047 0.36411 0.0
H910 H 0.0273 0.55385 0.34397 0.0
H911 H 0.02298 0.54348 0.37681 0.0
H912 H 0.95417 0.51876 0.30527 0.0
H913 H 0.94347 0.49246 0.38366 0.0
H914 H -0.00288 0.50784 0.28716 0.0
H915 H 0.01427 0.53632 0.30099 0.0
H916 H 0.98872 0.52964 0.28202 0.0
H917 H 0.98434 0.4749 0.38401 0.0
H918 H 0.97038 0.48569 0.40566 0.0
H919 H 0.00031 0.50427 0.3958 0.0
C920 C 0.4414 0.96193 0.35446 0.0
C921 C 0.43837 0.93963 0.35879 0.0
C922 C 0.46357 0.98186 0.35571 0.0
C923 C 0.48313 0.97933 0.36128 0.0
C924 C 0.48015 0.9569 0.36613 0.0
C925 C 0.45771 0.93727 0.36492 0.0
C926 C 0.46611 0.00556 0.35063 0.0
C927 C 0.5007 0.95359 0.37185 0.0
C928 C 0.54145 0.02708 0.33642 0.0
C929 C 0.55148 0.04018 0.35909 0.0
C930 C 0.51933 0.00705 0.33697 0.0
C931 C 0.50684 8e-05 0.36074 0.0
C932 C 0.51677 0.01316 0.38372 0.0
C933 C 0.53905 0.03306 0.38263 0.0
C934 C 0.50924 0.99348 0.31205 0.0
C935 C 0.50382 0.00621 0.40937 0.0
H936 H 0.42637 0.96377 0.35016 0.0
H937 H 0.45537 0.91999 0.36801 0.0
H938 H 0.47522 0.01751 0.36718 0.0
H939 H 0.47694 0.01346 0.33297 0.0
H940 H 0.44899 0.00457 0.34773 0.0
H941 H 0.49525 0.9351 0.3764 0.0
H942 H 0.51259 0.95919 0.35476 0.0
H943 H 0.51083 0.96469 0.38857 0.0
H944 H 0.5507 0.03268 0.31805 0.0
H945 H 0.54681 0.04293 0.40026 0.0
H946 H 0.49299 0.99358 0.30693 0.0
H947 H 0.50453 0.97496 0.31479 0.0
H948 H 0.52158 0.00082 0.29539 0.0
H949 H 0.48707 0.00612 0.40754 0.0
H950 H 0.51408 0.01821 0.42549 0.0
H951 H 0.49953 0.9882 0.41467 0.0
C952 C 0.5102 0.45749 0.3838 0.0
C953 C 0.50307 0.44533 0.36008 0.0
C954 C 0.51243 0.47965 0.38659 0.0
C955 C 0.50721 0.48976 0.36519 0.0
C956 C 0.50018 0.47769 0.34115 0.0
C957 C 0.49833 0.4557 0.33885 0.0
C958 C 0.52013 0.49214 0.41245 0.0
C959 C 0.49445 0.48794 0.31788 0.0
C960 C 0.49045 0.53623 0.37599 0.0
C961 C 0.51085 0.55646 0.36824 0.0
C962 C 0.4892 0.5144 0.37577 0.0
C963 C 0.50893 0.51292 0.36783 0.0
C964 C 0.52987 0.53344 0.36096 0.0
C965 C 0.53054 0.55497 0.36116 0.0
C966 C 0.4665 0.49283 0.38299 0.0
C967 C 0.55134 0.53256 0.35266 0.0
H968 H 0.51363 0.44952 0.40038 0.0
H969 H 0.49328 0.44669 0.32031 0.0
H970 H 0.53585 0.50961 0.40972 0.0
H971 H 0.50621 0.49501 0.42057 0.0
H972 H 0.52422 0.48219 0.42692 0.0
H973 H 0.48903 0.47618 0.30065 0.0
H974 H 0.48015 0.49143 0.32291 0.0
H975 H 0.50987 0.50491 0.31243 0.0
H976 H 0.47516 0.53734 0.38121 0.0
H977 H 0.54644 0.57069 0.35554 0.0
H978 H 0.46951 0.48275 0.39827 0.0
H979 H 0.4593 0.48128 0.3657 0.0
H980 H 0.45326 0.49714 0.3902 0.0
H981 H 0.55589 0.52335 0.3676 0.0
H982 H 0.56665 0.55028 0.34956 0.0
H983 H 0.54776 0.52254 0.33424 0.0
C984 C 0.49749 0.04264 0.87981 0.0
C985 C 0.4901 0.04811 0.85658 0.0
C986 C 0.50116 0.02352 0.88114 0.0
C987 C 0.49719 0.00952 0.85875 0.0
C988 C 0.48972 0.0149 0.83526 0.0
C989 C 0.48636 0.0342 0.83444 0.0
C990 C 0.50919 0.01826 0.9065 0.0
C991 C 0.4853 0.0003 0.81098 0.0
C992 C 0.52555 0.97218 0.85292 0.0
C993 C 0.50699 0.95003 0.85948 0.0
C994 C 0.52274 0.99183 0.85306 0.0
C995 C 0.5008 0.98916 0.85982 0.0
C996 C 0.48208 0.9669 0.86683 0.0
C997 C 0.48544 0.94758 0.86665 0.0
C998 C 0.54314 0.01537 0.84567 0.0
C999 C 0.45837 0.96341 0.8739 0.0
H1000 H 0.50012 0.05312 0.89706 0.0
H1001 H 0.48108 0.03856 0.8163 0.0
H1002 H 0.49614 0.00054 0.91343 0.0
H1003 H 0.52583 0.01833 0.90346 0.0
H1004 H 0.51184 0.03111 0.92201 0.0
H1005 H 0.47923 0.00669 0.79438 0.0
H1006 H 0.50152 0.00047 0.80507 0.0
H1007 H 0.47194 0.98185 0.81501 0.0
H1008 H 0.54231 0.97412 0.84773 0.0
H1009 H 0.471 0.93042 0.87139 0.0
H1010 H 0.54686 0.02814 0.86159 0.0
H1011 H 0.53876 0.02214 0.82806 0.0
H1012 H 0.55921 0.01453 0.84162 0.0
H1013 H 0.45998 0.9752 0.89018 0.0
H1014 H 0.44589 0.9451 0.87972 0.0
H1015 H 0.45098 0.96802 0.85701 0.0
C1016 C 0.43919 0.47246 0.82339 0.0
C1017 C 0.43941 0.49363 0.82693 0.0
C1018 C 0.46002 0.47175 0.82353 0.0
C1019 C 0.48144 0.49274 0.82714 0.0
C1020 C 0.48183 0.5143 0.8294 0.0
C1021 C 0.46076 0.51446 0.8293 0.0
C1022 C 0.45903 0.44849 0.82077 0.0
C1023 C 0.50442 0.53709 0.83296 0.0
C1024 C 0.53279 0.49275 0.85935 0.0
C1025 C 0.54776 0.49728 0.83812 0.0
C1026 C 0.51065 0.49021 0.85586 0.0
C1027 C 0.50337 0.49218 0.83049 0.0
C1028 C 0.51791 0.49552 0.80879 0.0
C1029 C 0.53999 0.49807 0.81289 0.0
C1030 C 0.4955 0.48653 0.87945 0.0
C1031 C 0.51063 0.49746 0.78142 0.0
H1032 H 0.42269 0.45631 0.82166 0.0
H1033 H 0.46093 0.53086 0.8315 0.0
H1034 H 0.46954 0.4489 0.8037 0.0
H1035 H 0.46671 0.44505 0.83825 0.0
H1036 H 0.44089 0.43377 0.81829 0.0
H1037 H 0.50178 0.55244 0.83283 0.0
H1038 H 0.51254 0.53684 0.8518 0.0
H1039 H 0.51695 0.53936 0.81728 0.0
H1040 H 0.53881 0.49221 0.87884 0.0
H1041 H 0.55135 0.50103 0.79636 0.0
H1042 H 0.4778 0.47129 0.8764 0.0
H1043 H 0.49352 0.50211 0.88237 0.0
H1044 H 0.50297 0.48362 0.89751 0.0
H1045 H 0.49269 0.48301 0.77735 0.0
H1046 H 0.52264 0.49714 0.76648 0.0
H1047 H 0.51044 0.5141 0.77938 0.0
C1048 C 0.94596 0.46413 0.82991 0.0
C1049 C 0.94481 0.44245 0.82725 0.0
C1050 C 0.96735 0.48508 0.82829 0.0
C1051 C 0.98809 0.4843 0.82394 0.0
C1052 C 0.98693 0.46253 0.81999 0.0
C1053 C 0.96527 0.44185 0.8216 0.0
C1054 C 0.96786 0.50798 0.83248 0.0
C1055 C 0.00865 0.46103 0.81497 0.0
C1056 C 0.04242 0.54191 0.80739 0.0
C1057 C 0.05295 0.54899 0.83196 0.0
C1058 C 0.02163 0.5205 0.80419 0.0
C1059 C 0.01107 0.50606 0.82619 0.0
C1060 C 0.02194 0.5129 0.85091 0.0
C1061 C 0.0428 0.53423 0.85346 0.0
C1062 C 0.01072 0.51361 0.77747 0.0
C1063 C 0.0112 0.49798 0.87486 0.0
H1064 H 0.93013 0.46468 0.83371 0.0
H1065 H 0.96454 0.42517 0.81958 0.0
H1066 H 0.9773 0.51619 0.85083 0.0
H1067 H 0.97744 0.52031 0.81637 0.0
H1068 H 0.95006 0.50568 0.83373 0.0
H1069 H 0.00493 0.44267 0.81414 0.0
H1070 H 0.01664 0.46972 0.79621 0.0
H1071 H 0.02176 0.47032 0.83049 0.0
H1072 H 0.05043 0.55317 0.79068 0.0
H1073 H 0.05074 0.53976 0.87251 0.0
H1074 H 0.99382 0.51334 0.77735 0.0
H1075 H 0.007 0.49571 0.77252 0.0
H1076 H 0.02209 0.52584 0.76205 0.0
H1077 H 0.99388 0.49622 0.87874 0.0
H1078 H 0.02226 0.50545 0.89246 0.0
H1079 H 0.00837 0.48013 0.87157 0.0
C1080 C 0.96455 0.52462 0.65707 0.0
C1081 C 0.94325 0.50384 0.65382 0.0
C1082 C 0.98573 0.52483 0.65507 0.0
C1083 C 0.98549 0.50367 0.64994 0.0
C1084 C 0.96407 0.48282 0.64546 0.0
C1085 C 0.94313 0.4832 0.64731 0.0
C1086 C 0.00827 0.54746 0.65961 0.0
C1087 C 0.9632 0.4599 0.64018 0.0
C1088 C 0.04148 0.5048 0.63137 0.0
C1089 C 0.04832 0.5001 0.65543 0.0
C1090 C 0.02115 0.50632 0.62926 0.0
C1091 C 0.00739 0.5029 0.65173 0.0
C1092 C 0.01441 0.49855 0.67614 0.0
C1093 C 0.03487 0.49735 0.67769 0.0
C1094 C 0.01421 0.51122 0.60299 0.0
C1095 C 0.00021 0.49494 0.70059 0.0
H1096 H 0.96456 0.54066 0.66164 0.0
H1097 H 0.92661 0.46715 0.64496 0.0
H1098 H 0.01625 0.54638 0.6782 0.0
H1099 H 0.02095 0.55049 0.64381 0.0
H1100 H 0.00556 0.56274 0.66064 0.0
H1101 H 0.94536 0.44576 0.63495 0.0
H1102 H 0.97532 0.46192 0.62413 0.0
H1103 H 0.96897 0.45443 0.6578 0.0
H1104 H 0.05171 0.50675 0.61408 0.0
H1105 H 0.04035 0.49424 0.69643 0.0
H1106 H 0.01191 0.52672 0.60424 0.0
H1107 H -0.00279 0.49618 0.59696 0.0
H1108 H 0.02735 0.51441 0.58765 0.0
H1109 H -0.00114 0.51073 0.70463 0.0
H1110 H 0.00793 0.49129 0.71793 0.0
H1111 H 0.98221 0.4801 0.69785 0.0
C1112 C 0.55124 0.02126 0.64855 0.0
C1113 C 0.55548 0.04352 0.64144 0.0
C1114 C 0.52854 0.00202 0.64845 0.0
C1115 C 0.50971 0.0053 0.64132 0.0
C1116 C 0.51396 0.02763 0.63348 0.0
C1117 C 0.53686 0.04649 0.63352 0.0
C1118 C 0.52465 0.97835 0.6566 0.0
C1119 C 0.49424 0.0318 0.62609 0.0
C1120 C 0.45142 0.95246 0.62446 0.0
C1121 C 0.43937 0.94818 0.6482 0.0
C1122 C 0.4744 0.97096 0.62192 0.0
C1123 C 0.48545 0.98567 0.64354 0.0
C1124 C 0.47335 0.98169 0.66744 0.0
C1125 C 0.45052 0.9629 0.66952 0.0
C1126 C 0.48689 0.9747 0.59617 0.0
C1127 C 0.48458 0.99717 0.69088 0.0
H1128 H 0.56571 0.01897 0.65439 0.0
H1129 H 0.5401 0.06377 0.62836 0.0
H1130 H 0.51422 0.9727 0.67484 0.0
H1131 H 0.51455 0.96512 0.64145 0.0
H1132 H 0.54131 0.9785 0.65999 0.0
H1133 H 0.50064 0.04992 0.61903 0.0
H1134 H 0.48333 0.01938 0.61064 0.0
H1135 H 0.4828 0.02864 0.64325 0.0
H1136 H 0.44285 0.94141 0.60779 0.0
H1137 H 0.4416 0.95955 0.68807 0.0
H1138 H 0.50307 0.97383 0.59898 0.0
H1139 H 0.49218 0.99236 0.58849 0.0
H1140 H 0.47589 0.9615 0.58134 0.0
H1141 H 0.50027 0.99633 0.69679 0.0
H1142 H 0.47253 0.99206 0.70782 0.0
H1143 H 0.49045 0.01564 0.68586 0.0
C1144 C 0.4974 0.4547 0.68479 0.0
C1145 C 0.50168 0.4447 0.66286 0.0
C1146 C 0.49924 0.47673 0.6834 0.0
C1147 C 0.50579 0.48915 0.65955 0.0
C1148 C 0.5108 0.4795 0.63753 0.0
C1149 C 0.50859 0.45732 0.63943 0.0
C1150 C 0.49382 0.48654 0.70733 0.0
C1151 C 0.51803 0.49241 0.61185 0.0
C1152 C 0.48743 0.53444 0.64916 0.0
C1153 C 0.5078 0.55505 0.65605 0.0
C1154 C 0.48662 0.51283 0.64993 0.0
C1155 C 0.50676 0.51198 0.65749 0.0
C1156 C 0.52757 0.53283 0.66378 0.0
C1157 C 0.5278 0.55414 0.66309 0.0
C1158 C 0.46404 0.49087 0.64338 0.0
C1159 C 0.54945 0.53259 0.67164 0.0
H1160 H 0.49256 0.44528 0.7031 0.0
H1161 H 0.5117 0.44962 0.62235 0.0
H1162 H 0.5093 0.50341 0.71288 0.0
H1163 H 0.47944 0.49008 0.70306 0.0
H1164 H 0.48866 0.47446 0.72426 0.0
H1165 H 0.52246 0.483 0.597 0.0
H1166 H 0.50367 0.49477 0.60416 0.0
H1167 H 0.53338 0.5101 0.61469 0.0
H1168 H 0.47191 0.53513 0.64403 0.0
H1169 H 0.54364 0.57015 0.66809 0.0
H1170 H 0.45773 0.47918 0.66065 0.0
H1171 H 0.46694 0.48117 0.62752 0.0
H1172 H 0.45017 0.49463 0.63719 0.0
H1173 H 0.54637 0.52278 0.69015 0.0
H1174 H 0.56455 0.55049 0.67438 0.0
H1175 H 0.55406 0.52347 0.65663 0.0
C1176 C 0.4493 0.2612 0.29403 0.0
C1177 C 0.44566 0.27469 0.27552 0.0
C1178 C 0.44904 0.24056 0.28679 0.0
C1179 C 0.44468 0.23308 0.2605 0.0
C1180 C 0.44109 0.2466 0.24171 0.0
C1181 C 0.44187 0.26731 0.24938 0.0
C1182 C 0.45323 0.22666 0.30729 0.0
C1183 C 0.43619 0.23906 0.2135 0.0
C1184 C 0.46166 0.18978 0.2347 0.0
C1185 C 0.44038 0.16875 0.2362 0.0
C1186 C 0.46345 0.21085 0.24302 0.0
C1187 C 0.44335 0.21083 0.25258 0.0
C1188 C 0.42175 0.18965 0.2538 0.0
C1189 C 0.4206 0.16881 0.2458 0.0
C1190 C 0.48684 0.23307 0.24181 0.0
C1191 C 0.39984 0.18903 0.26336 0.0
H1192 H 0.45206 0.26658 0.31427 0.0
H1193 H 0.43961 0.27775 0.23469 0.0
H1194 H 0.43748 0.20913 0.30937 0.0
H1195 H 0.4678 0.22393 0.30122 0.0
H1196 H 0.45746 0.23543 0.32661 0.0
H1197 H 0.43357 0.25149 0.20135 0.0
H1198 H 0.45088 0.23756 0.20519 0.0
H1199 H 0.42032 0.22154 0.21212 0.0
H1200 H 0.47704 0.18961 0.22771 0.0
H1201 H 0.40416 0.15248 0.24682 0.0
H1202 H 0.49176 0.24108 0.26148 0.0
H1203 H 0.48577 0.24594 0.22884 0.0
H1204 H 0.50088 0.22997 0.2345 0.0
H1205 H 0.4024 0.19586 0.28357 0.0
H1206 H 0.38445 0.17109 0.26306 0.0
H1207 H 0.39602 0.2005 0.251 0.0
C1208 C 0.26175 0.43307 0.26754 0.0
C1209 C 0.26937 0.43773 0.24152 0.0
C1210 C 0.24187 0.43365 0.27574 0.0
C1211 C 0.22946 0.43938 0.2576 0.0
C1212 C 0.23714 0.44443 0.23141 0.0
C1213 C 0.25694 0.4434 0.22364 0.0
C1214 C 0.23407 0.42802 0.30381 0.0
C1215 C 0.22435 0.45075 0.21158 0.0
C1216 C 0.16599 0.41944 0.27116 0.0
C1217 C 0.16741 0.43987 0.28106 0.0
C1218 C 0.18611 0.41897 0.26371 0.0
C1219 C 0.20811 0.43955 0.26595 0.0
C1220 C 0.2097 0.4602 0.27623 0.0
C1221 C 0.18927 0.46006 0.28385 0.0
C1222 C 0.18381 0.39651 0.25326 0.0
C1223 C 0.23288 0.48253 0.27864 0.0
H1224 H 0.27144 0.4292 0.28171 0.0
H1225 H 0.26255 0.44681 0.20349 0.0
H1226 H 0.23377 0.44306 0.31304 0.0
H1227 H 0.21603 0.41289 0.30469 0.0
H1228 H 0.24564 0.42378 0.31544 0.0
H1229 H 0.2331 0.45505 0.19224 0.0
H1230 H 0.20627 0.43598 0.20916 0.0
H1231 H 0.22308 0.466 0.21852 0.0
H1232 H 0.14904 0.40382 0.26922 0.0
H1233 H 0.19028 0.47595 0.29113 0.0
H1234 H 0.19448 0.3913 0.26513 0.0
H1235 H 0.19054 0.39919 0.23299 0.0
H1236 H 0.16543 0.38192 0.25333 0.0
H1237 H 0.24494 0.47956 0.29094 0.0
H1238 H 0.2311 0.497 0.28727 0.0
H1239 H 0.24108 0.48807 0.25912 0.0
C1240 C 0.8031 0.2603 0.2248 0.0
C1241 C 0.82085 0.27102 0.24353 0.0
C1242 C 0.78229 0.23954 0.23044 0.0
C1243 C 0.77937 0.22897 0.25518 0.0
C1244 C 0.79716 0.2395 0.27411 0.0
C1245 C 0.81751 0.26048 0.26818 0.0
C1246 C 0.76347 0.22889 0.20991 0.0
C1247 C 0.79477 0.22854 0.30063 0.0
C1248 C 0.71909 0.18571 0.28066 0.0
C1249 C 0.71771 0.16436 0.27472 0.0
C1250 C 0.73887 0.20694 0.27384 0.0
C1251 C 0.75783 0.20668 0.26132 0.0
C1252 C 0.75656 0.18512 0.25548 0.0
C1253 C 0.73635 0.16418 0.26203 0.0
C1254 C 0.73946 0.22962 0.27991 0.0
C1255 C 0.77665 0.18417 0.2427 0.0
H1256 H 0.80545 0.26796 0.20561 0.0
H1257 H 0.83067 0.26859 0.28312 0.0
H1258 H 0.76038 0.21131 0.20445 0.0
H1259 H 0.7468 0.22656 0.21779 0.0
H1260 H 0.76805 0.23981 0.19202 0.0
H1261 H 0.81048 0.2387 0.31296 0.0
H1262 H 0.77943 0.22722 0.31102 0.0
H1263 H 0.79174 0.21052 0.29841 0.0
H1264 H 0.70444 0.18574 0.29011 0.0
H1265 H 0.7352 0.14758 0.25762 0.0
H1266 H 0.7428 0.24004 0.26181 0.0
H1267 H 0.75396 0.24022 0.29356 0.0
H1268 H 0.72289 0.22673 0.28876 0.0
H1269 H 0.78086 0.19337 0.22367 0.0
H1270 H 0.77279 0.16595 0.23943 0.0
H1271 H 0.79246 0.19331 0.25509 0.0
C1272 C 0.56668 0.8232 0.24895 0.0
C1273 C 0.54731 0.82284 0.23753 0.0
C1274 C 0.56606 0.80238 0.25594 0.0
C1275 C 0.54534 0.78076 0.25191 0.0
C1276 C 0.52566 0.78031 0.24041 0.0
C1277 C 0.52698 0.80142 0.23306 0.0
C1278 C 0.58759 0.80354 0.26754 0.0
C1279 C 0.50314 0.7576 0.23626 0.0
C1280 C 0.55065 0.72632 0.24825 0.0
C1281 C 0.54501 0.71752 0.27384 0.0
C1282 C 0.55068 0.74676 0.24087 0.0
C1283 C 0.5445 0.75862 0.25931 0.0
C1284 C 0.5383 0.74976 0.28496 0.0
C1285 C 0.53884 0.72948 0.29199 0.0
C1286 C 0.55771 0.75586 0.21338 0.0
C1287 C 0.53132 0.76185 0.30506 0.0
H1288 H 0.5824 0.83985 0.25221 0.0
H1289 H 0.51193 0.80128 0.22456 0.0
H1290 H 0.58366 0.79575 0.28735 0.0
H1291 H 0.59309 0.79317 0.25548 0.0
H1292 H 0.60243 0.82176 0.26891 0.0
H1293 H 0.48934 0.76033 0.22747 0.0
H1294 H 0.50619 0.74593 0.22333 0.0
H1295 H 0.49667 0.7484 0.25516 0.0
H1296 H 0.55516 0.71743 0.2337 0.0
H1297 H 0.53459 0.72325 0.31183 0.0
H1298 H 0.57316 0.77373 0.21384 0.0
H1299 H 0.5434 0.75715 0.20371 0.0
H1300 H 0.56201 0.74454 0.20132 0.0
H1301 H 0.54624 0.77955 0.30912 0.0
H1302 H 0.52564 0.75199 0.3237 0.0
H1303 H 0.51687 0.76412 0.29748 0.0
C1304 C 0.72735 0.55348 0.2616 0.0
C1305 C 0.72175 0.55509 0.23562 0.0
C1306 C 0.74751 0.55275 0.26793 0.0
C1307 C 0.76243 0.55341 0.24775 0.0
C1308 C 0.7566 0.55431 0.22139 0.0
C1309 C 0.73629 0.5552 0.21562 0.0
C1310 C 0.75306 0.55171 0.29632 0.0
C1311 C 0.77204 0.55484 0.1994 0.0
C1312 C 0.82365 0.57654 0.27276 0.0
C1313 C 0.8232 0.5558 0.27974 0.0
C1314 C 0.80455 0.57604 0.26041 0.0
C1315 C 0.78456 0.55423 0.25478 0.0
C1316 C 0.78475 0.53325 0.25979 0.0
C1317 C 0.80409 0.53428 0.27231 0.0
C1318 C 0.80507 0.59882 0.25527 0.0
C1319 C 0.76386 0.50966 0.25379 0.0
H1320 H 0.7159 0.55273 0.27712 0.0
H1321 H 0.73208 0.55651 0.19552 0.0
H1322 H 0.75496 0.53618 0.29989 0.0
H1323 H 0.76992 0.56741 0.30142 0.0
H1324 H 0.73937 0.55084 0.30959 0.0
H1325 H 0.76405 0.55353 0.17999 0.0
H1326 H 0.78904 0.57137 0.20019 0.0
H1327 H 0.77572 0.54026 0.2015 0.0
H1328 H 0.83865 0.59323 0.27784 0.0
H1329 H 0.80358 0.51816 0.27763 0.0
H1330 H 0.79321 0.60066 0.26916 0.0
H1331 H 0.79877 0.59904 0.2353 0.0
H1332 H 0.82287 0.61418 0.25758 0.0
H1333 H 0.74987 0.50572 0.26824 0.0
H1334 H 0.76821 0.49545 0.25458 0.0
H1335 H 0.75675 0.50966 0.23421 0.0
C1336 C 0.24716 0.82635 0.27047 0.0
C1337 C 0.26622 0.82525 0.2806 0.0
C1338 C 0.22672 0.80598 0.26314 0.0
C1339 C 0.22559 0.78409 0.26552 0.0
C1340 C 0.24487 0.78289 0.27567 0.0
C1341 C 0.26492 0.80353 0.28336 0.0
C1342 C 0.20631 0.80788 0.25296 0.0
C1343 C 0.24441 0.75987 0.27804 0.0
C1344 C 0.16598 0.72975 0.26922 0.0
C1345 C 0.16234 0.72177 0.2433 0.0
C1346 C 0.18645 0.75002 0.27666 0.0
C1347 C 0.20403 0.76241 0.25788 0.0
C1348 C 0.2008 0.75433 0.23182 0.0
C1349 C 0.1799 0.73423 0.22479 0.0
C1350 C 0.18919 0.75827 0.3046 0.0
C1351 C 0.21937 0.76701 0.21137 0.0
H1352 H 0.24829 0.84323 0.2685 0.0
H1353 H 0.27987 0.80282 0.29079 0.0
H1354 H 0.20191 0.80074 0.23289 0.0
H1355 H 0.19069 0.79731 0.26528 0.0
H1356 H 0.20994 0.82623 0.25268 0.0
H1357 H 0.26103 0.76203 0.28588 0.0
H1358 H 0.22994 0.74788 0.29106 0.0
H1359 H 0.24112 0.75132 0.25866 0.0
H1360 H 0.15294 0.72015 0.28393 0.0
H1361 H 0.17727 0.72846 0.20469 0.0
H1362 H 0.19201 0.7763 0.30525 0.0
H1363 H 0.20476 0.75883 0.31344 0.0
H1364 H 0.1737 0.74679 0.31674 0.0
H1365 H 0.2223 0.78494 0.2086 0.0
H1366 H 0.21461 0.75785 0.19226 0.0
H1367 H 0.23616 0.76875 0.21789 0.0
C1368 C 0.5604 0.82652 0.74819 0.0
C1369 C 0.55358 0.8295 0.77326 0.0
C1370 C 0.55904 0.80546 0.7407 0.0
C1371 C 0.5503 0.78664 0.7585 0.0
C1372 C 0.5431 0.78922 0.78366 0.0
C1373 C 0.54504 0.81064 0.79082 0.0
C1374 C 0.56721 0.80345 0.71379 0.0
C1375 C 0.53347 0.76937 0.80309 0.0
C1376 C 0.52908 0.72571 0.73145 0.0
C1377 C 0.54777 0.72233 0.73771 0.0
C1378 C 0.52956 0.74655 0.73824 0.0
C1379 C 0.54944 0.76449 0.75104 0.0
C1380 C 0.56862 0.76135 0.75672 0.0
C1381 C 0.56743 0.74017 0.75022 0.0
C1382 C 0.50863 0.74915 0.73228 0.0
C1383 C 0.59035 0.78028 0.76977 0.0
H1384 H 0.56686 0.84054 0.73412 0.0
H1385 H 0.53993 0.81248 0.8103 0.0
H1386 H 0.58154 0.79939 0.71538 0.0
H1387 H 0.55277 0.78886 0.70296 0.0
H1388 H 0.57358 0.81974 0.70222 0.0
H1389 H 0.52749 0.77376 0.82137 0.0
H1390 H 0.51858 0.75354 0.79441 0.0
H1391 H 0.54706 0.76485 0.80807 0.0
H1392 H 0.51379 0.71172 0.72207 0.0
H1393 H 0.58191 0.73749 0.75483 0.0
H1394 H 0.51387 0.76474 0.71983 0.0
H1395 H 0.50147 0.75195 0.75065 0.0
H1396 H 0.49458 0.73357 0.72221 0.0
H1397 H 0.59771 0.79666 0.75822 0.0
H1398 H 0.60401 0.77531 0.77204 0.0
H1399 H 0.58594 0.78414 0.78934 0.0
C1400 C 0.82194 0.55574 0.77417 0.0
C1401 C 0.82575 0.55068 0.7486 0.0
C1402 C 0.80225 0.55742 0.78054 0.0
C1403 C 0.7856 0.55343 0.76104 0.0
C1404 C 0.78909 0.54817 0.73528 0.0
C1405 C 0.80924 0.54713 0.7293 0.0
C1406 C 0.79923 0.56342 0.80818 0.0
C1407 C 0.77146 0.5435 0.71406 0.0
C1408 C 0.72446 0.53601 0.78352 0.0
C1409 C 0.72425 0.55694 0.78014 0.0
C1410 C 0.74429 0.53455 0.77714 0.0
C1411 C 0.76445 0.55466 0.7677 0.0
C1412 C 0.76444 0.57597 0.76475 0.0
C1413 C 0.74418 0.57677 0.77074 0.0
C1414 C 0.74354 0.51142 0.78006 0.0
C1415 C 0.78581 0.5979 0.75531 0.0
H1416 H 0.83416 0.55822 0.78949 0.0
H1417 H 0.81197 0.54358 0.70942 0.0
H1418 H 0.79716 0.57909 0.80828 0.0
H1419 H 0.78316 0.54883 0.81681 0.0
H1420 H 0.81427 0.56693 0.82082 0.0
H1421 H 0.77649 0.53906 0.69515 0.0
H1422 H 0.75412 0.52885 0.71988 0.0
H1423 H 0.76954 0.55911 0.71121 0.0
H1424 H 0.70884 0.52062 0.79039 0.0
H1425 H 0.74389 0.59292 0.7683 0.0
H1426 H 0.75734 0.51326 0.79374 0.0
H1427 H 0.74711 0.50591 0.76097 0.0
H1428 H 0.72639 0.4974 0.78738 0.0
H1429 H 0.80084 0.60213 0.76827 0.0
H1430 H 0.78307 0.61318 0.75474 0.0
H1431 H 0.79061 0.59506 0.73547 0.0
C1432 C 0.27435 0.82542 0.77358 0.0
C1433 C 0.27826 0.83056 0.74687 0.0
C1434 C 0.25446 0.80522 0.78243 0.0
C1435 C 0.23815 0.78962 0.7641 0.0
C1436 C 0.24229 0.79427 0.73709 0.0
C1437 C 0.26229 0.81474 0.72878 0.0
C1438 C 0.25062 0.80085 0.8114 0.0
C1439 C 0.22529 0.77792 0.71698 0.0
C1440 C 0.19388 0.72818 0.78604 0.0
C1441 C 0.17393 0.73016 0.78954 0.0
C1442 C 0.21501 0.74743 0.77781 0.0
C1443 C 0.21615 0.76912 0.77328 0.0
C1444 C 0.19618 0.77133 0.77743 0.0
C1445 C 0.17529 0.75177 0.78541 0.0
C1446 C 0.23594 0.74443 0.77339 0.0
C1447 C 0.19681 0.79427 0.77318 0.0
H1448 H 0.28685 0.83722 0.78769 0.0
H1449 H 0.2651 0.81865 0.70815 0.0
H1450 H 0.23449 0.80088 0.81732 0.0
H1451 H 0.24812 0.78338 0.81631 0.0
H1452 H 0.26543 0.81426 0.82305 0.0
H1453 H 0.23182 0.78326 0.69675 0.0
H1454 H 0.22182 0.75985 0.72025 0.0
H1455 H 0.2084 0.77754 0.71894 0.0
H1456 H 0.19275 0.71138 0.78886 0.0
H1457 H 0.15988 0.75329 0.78835 0.0
H1458 H 0.2509 0.75727 0.78525 0.0
H1459 H 0.24135 0.74792 0.75263 0.0
H1460 H 0.23231 0.72655 0.77842 0.0
H1461 H 0.21059 0.8081 0.78547 0.0
H1462 H 0.17987 0.79314 0.77785 0.0
H1463 H 0.20125 0.79983 0.75256 0.0
C1464 C 0.4425 0.18267 0.79253 0.0
C1465 C 0.43742 0.1652 0.77386 0.0
C1466 C 0.44352 0.20374 0.78568 0.0
C1467 C 0.4389 0.20727 0.75964 0.0
C1468 C 0.43369 0.18978 0.74072 0.0
C1469 C 0.43325 0.16912 0.74798 0.0
C1470 C 0.44944 0.2222 0.80631 0.0
C1471 C 0.42841 0.19281 0.7128 0.0
C1472 C 0.41893 0.25113 0.74724 0.0
C1473 C 0.43926 0.27018 0.73727 0.0
C1474 C 0.41853 0.23047 0.75448 0.0
C1475 C 0.43914 0.22909 0.75217 0.0
C1476 C 0.45978 0.24837 0.74222 0.0
C1477 C 0.45952 0.26864 0.73463 0.0
C1478 C 0.39605 0.2101 0.76445 0.0
C1479 C 0.48218 0.24766 0.73992 0.0
H1480 H 0.44549 0.17986 0.8126 0.0
H1481 H 0.42978 0.15615 0.73314 0.0
H1482 H 0.46465 0.239 0.79999 0.0
H1483 H 0.43457 0.2253 0.80902 0.0
H1484 H 0.45356 0.21717 0.8254 0.0
H1485 H 0.42427 0.17734 0.70054 0.0
H1486 H 0.41337 0.19585 0.71216 0.0
H1487 H 0.44356 0.20838 0.7041 0.0
H1488 H 0.40328 0.2524 0.74912 0.0
H1489 H 0.47532 0.28357 0.72733 0.0
H1490 H 0.39859 0.20544 0.78448 0.0
H1491 H 0.3909 0.19453 0.75197 0.0
H1492 H 0.38152 0.21395 0.76477 0.0
H1493 H 0.48719 0.24408 0.75928 0.0
H1494 H 0.49682 0.26432 0.7323 0.0
H1495 H 0.47962 0.23325 0.72674 0.0
C1496 C 0.16809 0.44271 0.763 0.0
C1497 C 0.16175 0.44262 0.7369 0.0
C1498 C 0.18822 0.44195 0.76951 0.0
C1499 C 0.20252 0.44126 0.74942 0.0
C1500 C 0.19644 0.4414 0.723 0.0
C1501 C 0.17606 0.44205 0.71704 0.0
C1502 C 0.19415 0.44189 0.79795 0.0
C1503 C 0.2114 0.44077 0.70112 0.0
C1504 C 0.26359 0.46005 0.7727 0.0
C1505 C 0.26162 0.43845 0.77894 0.0
C1506 C 0.2449 0.46122 0.76144 0.0
C1507 C 0.22374 0.44028 0.75647 0.0
C1508 C 0.22208 0.41841 0.76133 0.0
C1509 C 0.24108 0.41777 0.77247 0.0
C1510 C 0.24735 0.48487 0.7564 0.0
C1511 C 0.19979 0.3957 0.75622 0.0
H1512 H 0.15748 0.44371 0.77846 0.0
H1513 H 0.17115 0.44181 0.69686 0.0
H1514 H 0.19519 0.42599 0.80241 0.0
H1515 H 0.21151 0.45724 0.80225 0.0
H1516 H 0.18108 0.44235 0.81118 0.0
H1517 H 0.20446 0.44141 0.68161 0.0
H1518 H 0.22944 0.45577 0.70289 0.0
H1519 H 0.2125 0.42458 0.70246 0.0
H1520 H 0.27931 0.47612 0.77776 0.0
H1521 H 0.23965 0.40103 0.77669 0.0
H1522 H 0.23668 0.48806 0.77075 0.0
H1523 H 0.24075 0.48545 0.7367 0.0
H1524 H 0.26574 0.49926 0.75803 0.0
H1525 H 0.18617 0.39385 0.77023 0.0
H1526 H 0.20218 0.38028 0.75829 0.0
H1527 H 0.1932 0.39565 0.73633 0.0
C1528 C 0.73393 0.1759 0.72379 0.0
C1529 C 0.71436 0.16602 0.74013 0.0
C1530 C 0.75479 0.19566 0.73173 0.0
C1531 C 0.75575 0.2059 0.75631 0.0
C1532 C 0.73564 0.19653 0.77232 0.0
C1533 C 0.71525 0.17655 0.76412 0.0
C1534 C 0.77601 0.20496 0.71434 0.0
C1535 C 0.73582 0.20724 0.79842 0.0
C1536 C 0.81252 0.23924 0.79345 0.0
C1537 C 0.81855 0.2626 0.78902 0.0
C1538 C 0.79264 0.2207 0.78203 0.0
C1539 C 0.77807 0.22551 0.76618 0.0
C1540 C 0.78409 0.24893 0.76124 0.0
C1541 C 0.80436 0.26718 0.77249 0.0
C1542 C 0.78691 0.1959 0.78752 0.0
C1543 C 0.76877 0.25468 0.74466 0.0
H1544 H 0.73315 0.16759 0.7053 0.0
H1545 H 0.69991 0.16904 0.77651 0.0
H1546 H 0.78347 0.22398 0.71102 0.0
H1547 H 0.78967 0.20258 0.72406 0.0
H1548 H 0.77196 0.19595 0.69515 0.0
H1549 H 0.71823 0.19889 0.80755 0.0
H1550 H 0.74791 0.2054 0.81188 0.0
H1551 H 0.74225 0.22622 0.79617 0.0
H1552 H 0.82301 0.23526 0.80629 0.0
H1553 H 0.80892 0.28503 0.76835 0.0
H1554 H 0.78384 0.1861 0.76899 0.0
H1555 H 0.77061 0.18678 0.79915 0.0
H1556 H 0.80104 0.19518 0.79842 0.0
H1557 H 0.76586 0.24619 0.72529 0.0
H1558 H 0.77642 0.27381 0.74176 0.0
H1559 H 0.75142 0.2477 0.75405 0.0
C1560 C 0.37969 0.02859 0.21082 0.0
C1561 C 0.40271 0.04581 0.21636 0.0
C1562 C 0.36775 0.0088 0.22705 0.0
C1563 C 0.37885 0.00679 0.24979 0.0
C1564 C 0.40171 0.02473 0.25597 0.0
C1565 C 0.41347 0.0437 0.23897 0.0
C1566 C 0.34371 0.98965 0.21934 0.0
C1567 C 0.41404 0.02369 0.28029 0.0
C1568 C 0.34504 0.96278 0.30376 0.0
C1569 C 0.35181 0.94605 0.29951 0.0
C1570 C 0.35329 0.98255 0.28743 0.0
C1571 C 0.36783 0.98504 0.26586 0.0
C1572 C 0.3738 0.96759 0.26096 0.0
C1573 C 0.36613 0.94864 0.27808 0.0
C1574 C 0.34723 0.00118 0.29383 0.0
C1575 C 0.38874 0.96914 0.23788 0.0
H1576 H 0.37134 0.03021 0.19341 0.0
H1577 H 0.43115 0.05715 0.24363 0.0
H1578 H 0.34428 0.97351 0.21474 0.0
H1579 H 0.3313 0.98544 0.23575 0.0
H1580 H 0.33691 0.99448 0.20205 0.0
H1581 H 0.43055 0.04033 0.28389 0.0
H1582 H 0.40254 0.01972 0.29756 0.0
H1583 H 0.41824 0.00945 0.27844 0.0
H1584 H 0.33393 0.96077 0.32025 0.0
H1585 H 0.37111 0.93555 0.27439 0.0
H1586 H 0.33964 0.00502 0.27655 0.0
H1587 H 0.36335 0.01762 0.29911 0.0
H1588 H 0.33467 0.99604 0.31028 0.0
H1589 H 0.38194 0.97277 0.21977 0.0
H1590 H 0.38944 0.95281 0.23506 0.0
H1591 H 0.40681 0.98379 0.24074 0.0
C1592 C 0.35413 0.38339 0.21092 0.0
C1593 C 0.35851 0.40589 0.2171 0.0
C1594 C 0.36231 0.37182 0.2272 0.0
C1595 C 0.37422 0.38269 0.25062 0.0
C1596 C 0.37767 0.40496 0.25741 0.0
C1597 C 0.37027 0.41645 0.24034 0.0
C1598 C 0.35909 0.34848 0.21884 0.0
C1599 C 0.38972 0.41698 0.28247 0.0
C1600 C 0.38514 0.34917 0.30417 0.0
C1601 C 0.40905 0.3575 0.30086 0.0
C1602 C 0.37326 0.3568 0.28763 0.0
C1603 C 0.38544 0.37231 0.26678 0.0
C1604 C 0.40935 0.37992 0.26283 0.0
C1605 C 0.42091 0.37285 0.28019 0.0
C1606 C 0.34799 0.34902 0.29304 0.0
C1607 C 0.42292 0.39595 0.2405 0.0
H1608 H 0.345 0.3752 0.19301 0.0
H1609 H 0.37344 0.43373 0.24548 0.0
H1610 H 0.3764 0.35027 0.21483 0.0
H1611 H 0.3509 0.33545 0.23471 0.0
H1612 H 0.34816 0.34167 0.20104 0.0
H1613 H 0.38826 0.43274 0.28646 0.0
H1614 H 0.38215 0.40478 0.2992 0.0
H1615 H 0.4085 0.42242 0.28134 0.0
H1616 H 0.37593 0.33725 0.32006 0.0
H1617 H 0.43933 0.37908 0.2772 0.0
H1618 H 0.33734 0.34139 0.27524 0.0
H1619 H 0.34636 0.3644 0.29857 0.0
H1620 H 0.34065 0.33593 0.30901 0.0
H1621 H 0.41322 0.38924 0.22193 0.0
H1622 H 0.44049 0.39783 0.23823 0.0
H1623 H 0.42519 0.41356 0.24387 0.0
C1624 C 0.0433 0.41631 0.27657 0.0
C1625 C 0.04625 0.40591 0.29901 0.0
C1626 C 0.02346 0.40448 0.26091 0.0
C1627 C 0.00563 0.38188 0.26826 0.0
C1628 C 0.00863 0.37102 0.29064 0.0
C1629 C 0.02917 0.38307 0.30559 0.0
C1630 C 0.02128 0.41658 0.23695 0.0
C1631 C 0.98971 0.3472 0.29945 0.0
C1632 C 0.94675 0.37058 0.24487 0.0
C1633 C 0.94278 0.35629 0.223 0.0
C1634 C 0.96642 0.37775 0.26063 0.0
C1635 C 0.98304 0.3711 0.25397 0.0
C1636 C 0.97903 0.35638 0.23212 0.0
C1637 C 0.95869 0.34881 0.21707 0.0
C1638 C 0.96972 0.39308 0.284 0.0
C1639 C -0.0033 0.34949 0.22399 0.0
H1640 H 0.05666 0.43384 0.2711 0.0
H1641 H 0.03148 0.37501 0.32288 0.0
H1642 H 0.01603 0.40472 0.21985 0.0
H1643 H 0.00751 0.42124 0.24012 0.0
H1644 H 0.03784 0.43283 0.23223 0.0
H1645 H 0.99549 0.34031 0.31582 0.0
H1646 H 0.97426 0.3483 0.30591 0.0
H1647 H 0.98401 0.33458 0.28305 0.0
H1648 H 0.93428 0.37608 0.24988 0.0
H1649 H 0.95559 0.33769 0.20025 0.0
H1650 H 0.98449 0.41098 0.2804 0.0
H1651 H 0.9741 0.38619 0.30153 0.0
H1652 H 0.95391 0.39433 0.28828 0.0
H1653 H 0.01291 0.36525 0.21736 0.0
H1654 H 0.99017 0.33646 0.20792 0.0
H1655 H 0.00144 0.34213 0.24079 0.0
C1656 C 0.6102 0.94515 0.23324 0.0
C1657 C 0.59529 0.94466 0.21352 0.0
C1658 C 0.62158 0.96451 0.25002 0.0
C1659 C 0.61842 0.98404 0.24653 0.0
C1660 C 0.60454 0.98416 0.22556 0.0
C1661 C 0.59286 0.96433 0.20958 0.0
C1662 C 0.63573 0.96341 0.27247 0.0
C1663 C 0.60115 0.00483 0.22068 0.0
C1664 C 0.62217 0.02322 0.30285 0.0
C1665 C 0.64433 0.04282 0.29912 0.0
C1666 C 0.61404 0.00348 0.2867 0.0
C1667 C 0.62815 0.00362 0.26579 0.0
C1668 C 0.65085 0.02311 0.26245 0.0
C1669 C 0.65879 0.04236 0.27938 0.0
C1670 C 0.58997 0.98284 0.29142 0.0
C1671 C 0.66619 0.02424 0.24004 0.0
H1672 H 0.61178 0.9298 0.23665 0.0
H1673 H 0.58128 0.96395 0.19439 0.0
H1674 H 0.65316 0.97941 0.2731 0.0
H1675 H 0.62678 0.96256 0.29111 0.0
H1676 H 0.63808 0.94791 0.27126 0.0
H1677 H 0.59225 0.00334 0.20183 0.0
H1678 H 0.59046 0.00614 0.23656 0.0
H1679 H 0.61823 0.02132 0.22065 0.0
H1680 H 0.61094 0.02356 0.31806 0.0
H1681 H 0.67578 0.05766 0.27612 0.0
H1682 H 0.59063 0.96638 0.29182 0.0
H1683 H 0.57819 0.9814 0.27525 0.0
H1684 H 0.58227 0.98445 0.31004 0.0
H1685 H 0.66769 0.00825 0.23945 0.0
H1686 H 0.684 0.03975 0.24128 0.0
H1687 H 0.65815 0.02505 0.22138 0.0
C1688 C 0.59431 0.62701 0.30644 0.0
C1689 C 0.59587 0.64878 0.30277 0.0
C1690 C 0.60607 0.61941 0.2898 0.0
C1691 C 0.61915 0.63362 0.26849 0.0
C1692 C 0.6214 0.65597 0.26524 0.0
C1693 C 0.60996 0.6634 0.28263 0.0
C1694 C 0.60369 0.59572 0.29443 0.0
C1695 C 0.63466 0.67141 0.24246 0.0
C1696 C 0.66039 0.61788 0.23373 0.0
C1697 C 0.64586 0.60268 0.21424 0.0
C1698 C 0.65215 0.62854 0.25122 0.0
C1699 C 0.62904 0.62435 0.24872 0.0
C1700 C 0.6148 0.6101 0.22806 0.0
C1701 C 0.62327 0.59916 0.21133 0.0
C1702 C 0.66769 0.64312 0.27331 0.0
C1703 C 0.59027 0.60562 0.22422 0.0
H1704 H 0.58337 0.61564 0.32195 0.0
H1705 H 0.61088 0.68007 0.27942 0.0
H1706 H 0.59325 0.58359 0.27853 0.0
H1707 H 0.62112 0.59711 0.2942 0.0
H1708 H 0.59501 0.58795 0.3133 0.0
H1709 H 0.63628 0.68896 0.24377 0.0
H1710 H 0.65239 0.67363 0.24124 0.0
H1711 H 0.62548 0.66298 0.22406 0.0
H1712 H 0.67773 0.62029 0.23635 0.0
H1713 H 0.61197 0.58736 0.19633 0.0
H1714 H 0.66024 0.63413 0.2921 0.0
H1715 H 0.66853 0.66031 0.27412 0.0
H1716 H 0.68572 0.64611 0.27146 0.0
H1717 H 0.57906 0.59498 0.24063 0.0
H1718 H 0.58242 0.59619 0.20573 0.0
H1719 H 0.59017 0.62238 0.22414 0.0
C1720 C 0.96587 0.60935 0.3156 0.0
C1721 C 0.94361 0.59311 0.30647 0.0
C1722 C 0.98492 0.62019 0.29827 0.0
C1723 C 0.98138 0.615 0.27122 0.0
C1724 C 0.9586 0.59973 0.26186 0.0
C1725 C 0.94009 0.58878 0.2796 0.0
C1726 C 0.00901 0.63606 0.30907 0.0
C1727 C 0.95392 0.594 0.2332 0.0
C1728 C 0.02983 0.65216 0.22277 0.0
C1729 C 0.03994 0.63814 0.21855 0.0
C1730 C 0.01065 0.64487 0.23975 0.0
C1731 C 0.00166 0.62327 0.25311 0.0
C1732 C 0.01162 0.60895 0.24866 0.0
C1733 C 0.03039 0.61642 0.2313 0.0
C1734 C 0.00011 0.66033 0.24353 0.0
C1735 C 0.0027 0.58582 0.26256 0.0
H1736 H 0.96862 0.61263 0.33637 0.0
H1737 H 0.9228 0.57641 0.27245 0.0
H1738 H 0.01973 0.62753 0.30689 0.0
H1739 H 0.01784 0.6527 0.29798 0.0
H1740 H 0.00857 0.64009 0.33002 0.0
H1741 H 0.93495 0.58426 0.22875 0.0
H1742 H 0.96231 0.61024 0.22136 0.0
H1743 H 0.96157 0.58315 0.22704 0.0
H1744 H 0.03708 0.66895 0.21309 0.0
H1745 H 0.03803 0.60541 0.22837 0.0
H1746 H 0.00164 0.66571 0.26426 0.0
H1747 H 0.98122 0.65048 0.23876 0.0
H1748 H 0.00868 0.67629 0.2312 0.0
H1749 H 0.00348 0.5885 0.28398 0.0
H1750 H 0.01288 0.57712 0.25757 0.0
H1751 H 0.98416 0.57382 0.2574 0.0
C1752 C 0.59652 0.97069 0.80414 0.0
C1753 C 0.60056 0.95186 0.80185 0.0
C1754 C 0.60758 0.99012 0.78745 0.0
C1755 C 0.62256 0.99042 0.76747 0.0
C1756 C 0.62731 0.97178 0.76564 0.0
C1757 C 0.61646 0.95285 0.78306 0.0
C1758 C 0.60249 0.00988 0.79058 0.0
C1759 C 0.64272 0.97115 0.7443 0.0
C1760 C 0.62633 0.02732 0.70871 0.0
C1761 C 0.64777 0.04776 0.71284 0.0
C1762 C 0.61847 0.00809 0.72563 0.0
C1763 C 0.63208 0.00958 0.74767 0.0
C1764 C 0.65408 0.02992 0.75148 0.0
C1765 C 0.66178 0.04866 0.73384 0.0
C1766 C 0.59518 0.9865 0.72045 0.0
C1767 C 0.66887 0.03247 0.775 0.0
H1768 H 0.58418 0.96995 0.81859 0.0
H1769 H 0.61932 0.93813 0.78089 0.0
H1770 H 0.61902 0.02691 0.79122 0.0
H1771 H 0.59239 0.01032 0.77356 0.0
H1772 H 0.59232 0.00805 0.80856 0.0
H1773 H 0.64602 0.95632 0.74665 0.0
H1774 H 0.63427 0.96944 0.72511 0.0
H1775 H 0.65971 0.9877 0.74393 0.0
H1776 H 0.61542 0.02657 0.69254 0.0
H1777 H 0.6782 0.06456 0.73741 0.0
H1778 H 0.58255 0.98459 0.73584 0.0
H1779 H 0.59694 0.97065 0.7211 0.0
H1780 H 0.58785 0.98722 0.70122 0.0
H1781 H 0.65971 0.03296 0.79293 0.0
H1782 H 0.68622 0.04866 0.7742 0.0
H1783 H 0.6715 0.01721 0.77671 0.0
C1784 C 0.6201 0.5948 0.80346 0.0
C1785 C 0.64291 0.59893 0.80049 0.0
C1786 C 0.61169 0.60642 0.78781 0.0
C1787 C 0.62619 0.62195 0.76809 0.0
C1788 C 0.64949 0.62668 0.76552 0.0
C1789 C 0.65768 0.61534 0.78203 0.0
C1790 C 0.58696 0.60135 0.79173 0.0
C1791 C 0.66528 0.64255 0.74429 0.0
C1792 C 0.5918 0.62667 0.71148 0.0
C1793 C 0.59298 0.64808 0.71661 0.0
C1794 C 0.60367 0.61862 0.72722 0.0
C1795 C 0.61637 0.63193 0.74919 0.0
C1796 C 0.61818 0.65391 0.75398 0.0
C1797 C 0.60672 0.66188 0.73738 0.0
C1798 C 0.60179 0.59538 0.72095 0.0
C1799 C 0.63094 0.66831 0.77757 0.0
H1800 H 0.60865 0.58203 0.81766 0.0
H1801 H 0.67518 0.6182 0.77935 0.0
H1802 H 0.58654 0.61792 0.79296 0.0
H1803 H 0.5761 0.59141 0.7748 0.0
H1804 H 0.57892 0.59097 0.80968 0.0
H1805 H 0.68339 0.64578 0.74609 0.0
H1806 H 0.65827 0.63447 0.72499 0.0
H1807 H 0.66578 0.65958 0.74467 0.0
H1808 H 0.5811 0.61595 0.69546 0.0
H1809 H 0.60729 0.67824 0.74169 0.0
H1810 H 0.59082 0.58227 0.73583 0.0
H1811 H 0.61928 0.59693 0.72145 0.0
H1812 H 0.59388 0.58873 0.70148 0.0
H1813 H 0.62155 0.65891 0.79551 0.0
H1814 H 0.6323 0.68578 0.77744 0.0
H1815 H 0.64877 0.67075 0.77865 0.0
C1816 C 0.02623 0.63883 0.81407 0.0
C1817 C 0.04639 0.64028 0.80341 0.0
C1818 C 0.00582 0.63058 0.79894 0.0
C1819 C 0.006 0.62438 0.77247 0.0
C1820 C 0.02685 0.62728 0.76133 0.0
C1821 C 0.04661 0.63481 0.77702 0.0
C1822 C 0.98377 0.62719 0.81166 0.0
C1823 C 0.02802 0.62136 0.7331 0.0
C1824 C 0.95204 0.57572 0.74037 0.0
C1825 C 0.9443 0.58805 0.7249 0.0
C1826 C 0.97147 0.5874 0.7567 0.0
C1827 C 0.98397 0.61213 0.75717 0.0
C1828 C 0.97637 0.62478 0.74157 0.0
C1829 C 0.95637 0.61255 0.72584 0.0
C1830 C 0.97873 0.57317 0.77326 0.0
C1831 C 0.98965 0.65116 0.74106 0.0
H1832 H 0.02607 0.64304 0.83448 0.0
H1833 H 0.0623 0.63619 0.76859 0.0
H1834 H 0.97552 0.63495 0.7995 0.0
H1835 H 0.97108 0.60821 0.81338 0.0
H1836 H 0.98705 0.63509 0.83143 0.0
H1837 H 0.04622 0.62757 0.7266 0.0
H1838 H 0.01777 0.60213 0.73038 0.0
H1839 H 0.02026 0.62923 0.72031 0.0
H1840 H 0.9426 0.55676 0.74018 0.0
H1841 H 0.95039 0.62213 0.71404 0.0
H1842 H 0.9807 0.57887 0.79391 0.0
H1843 H 0.99592 0.57602 0.76659 0.0
H1844 H 0.96596 0.55413 0.77234 0.0
H1845 H 0.99153 0.65818 0.76111 0.0
H1846 H 0.98096 0.6584 0.72874 0.0
H1847 H 0.00751 0.65746 0.73338 0.0
C1848 C 0.37794 0.04399 0.78355 0.0
C1849 C 0.39325 0.04442 0.80273 0.0
C1850 C 0.36709 0.02521 0.76595 0.0
C1851 C 0.37116 0.00615 0.76807 0.0
C1852 C 0.38546 0.00589 0.78848 0.0
C1853 C 0.39664 0.0252 0.80528 0.0
C1854 C 0.3525 0.02649 0.7441 0.0
C1855 C 0.38976 0.98564 0.79192 0.0
C1856 C 0.33188 0.94845 0.73357 0.0
C1857 C 0.34642 0.94904 0.7133 0.0
C1858 C 0.33942 0.96716 0.75122 0.0
C1859 C 0.36178 0.98718 0.74807 0.0
C1860 C 0.37591 0.98842 0.72663 0.0
C1861 C 0.36822 0.96918 0.70976 0.0
C1862 C 0.32408 0.96484 0.77415 0.0
C1863 C 0.39959 0.0097 0.7221 0.0
H1864 H 0.37565 0.05903 0.78118 0.0
H1865 H 0.40857 0.02557 0.82002 0.0
H1866 H 0.36145 0.02826 0.72522 0.0
H1867 H 0.33533 0.01017 0.74315 0.0
H1868 H 0.34953 0.04155 0.74633 0.0
H1869 H 0.39916 0.98694 0.81035 0.0
H1870 H 0.37298 0.96884 0.79188 0.0
H1871 H 0.40034 0.98515 0.7754 0.0
H1872 H 0.31519 0.93274 0.73669 0.0
H1873 H 0.37952 0.96964 0.69416 0.0
H1874 H 0.322 0.98045 0.77571 0.0
H1875 H 0.33248 0.96378 0.79242 0.0
H1876 H 0.30651 0.94901 0.77274 0.0
H1877 H 0.39832 0.02583 0.72279 0.0
H1878 H 0.40722 0.00899 0.70304 0.0
H1879 H 0.41174 0.01105 0.73778 0.0
C1880 C 0.3566 0.38691 0.80905 0.0
C1881 C 0.35088 0.40321 0.79924 0.0
C1882 C 0.3655 0.37618 0.79248 0.0
C1883 C 0.36827 0.38159 0.76547 0.0
C1884 C 0.36125 0.39703 0.75534 0.0
C1885 C 0.35286 0.40779 0.77235 0.0
C1886 C 0.37312 0.36008 0.80409 0.0
C1887 C 0.36356 0.40305 0.72668 0.0
C1888 C 0.41682 0.37933 0.72844 0.0
C1889 C 0.40483 0.35775 0.71539 0.0
C1890 C 0.40514 0.38705 0.74493 0.0
C1891 C 0.38069 0.37312 0.74823 0.0
C1892 C 0.3683 0.35163 0.73461 0.0
C1893 C 0.38054 0.34411 0.71849 0.0
C1894 C 0.41909 0.41003 0.75917 0.0
C1895 C 0.34217 0.33654 0.73723 0.0
H1896 H 0.3552 0.38341 0.82982 0.0
H1897 H 0.34821 0.42019 0.76459 0.0
H1898 H 0.36561 0.34349 0.79293 0.0
H1899 H 0.3924 0.36844 0.80283 0.0
H1900 H 0.36786 0.35596 0.82486 0.0
H1901 H 0.35488 0.41319 0.72148 0.0
H1902 H 0.38231 0.4136 0.72142 0.0
H1903 H 0.35591 0.38691 0.71469 0.0
H1904 H 0.43559 0.39004 0.72638 0.0
H1905 H 0.37112 0.32742 0.70857 0.0
H1906 H 0.41617 0.40723 0.78048 0.0
H1907 H 0.41316 0.42236 0.75323 0.0
H1908 H 0.43812 0.41836 0.75527 0.0
H1909 H 0.33749 0.33114 0.75785 0.0
H1910 H 0.33503 0.32059 0.7249 0.0
H1911 H 0.33359 0.34667 0.73166 0.0
C1912 C 0.02968 0.41777 0.72394 0.0
C1913 C 0.04141 0.40647 0.71443 0.0
C1914 C 0.01091 0.4066 0.74136 0.0
C1915 C 0.00331 0.38334 0.74926 0.0
C1916 C 0.0144 0.37145 0.73898 0.0
C1917 C 0.03341 0.38319 0.72178 0.0
C1918 C -0.00044 0.41994 0.75177 0.0
C1919 C 0.0065 0.34651 0.74658 0.0
C1920 C 0.96946 0.3652 0.81322 0.0
C1921 C 0.94642 0.35509 0.8043 0.0
C1922 C 0.98821 0.37375 0.79549 0.0
C1923 C 0.98371 0.37168 0.76828 0.0
C1924 C 0.96038 0.36027 0.7593 0.0
C1925 C 0.94206 0.35235 0.77739 0.0
C1926 C 0.01286 0.3862 0.80585 0.0
C1927 C 0.95475 0.35734 0.73054 0.0
H1928 H 0.03561 0.43573 0.71843 0.0
H1929 H 0.04234 0.3743 0.71462 0.0
H1930 H 0.98099 0.41119 0.74568 0.0
H1931 H -0.00016 0.42001 0.77339 0.0
H1932 H 0.00835 0.43834 0.7448 0.0
H1933 H 0.01613 0.33932 0.73587 0.0
H1934 H 0.00915 0.34555 0.7678 0.0
H1935 H 0.98756 0.33524 0.7427 0.0
H1936 H 0.97289 0.36753 0.83399 0.0
H1937 H 0.92423 0.34437 0.77041 0.0
H1938 H 0.02134 0.40506 0.80085 0.0
H1939 H 0.02327 0.37919 0.79661 0.0
H1940 H 0.01344 0.38453 0.82735 0.0
H1941 H 0.96026 0.37466 0.72167 0.0
H1942 H 0.9358 0.34574 0.72683 0.0
H1943 H 0.9645 0.34997 0.72049 0.0
C1944 C 0.51857 0.13553 0.25822 0.0
C1945 C 0.51875 0.14219 0.23224 0.0
C1946 C 0.53892 0.13857 0.27016 0.0
C1947 C 0.56003 0.14872 0.2558 0.0
C1948 C 0.56093 0.15847 0.23089 0.0
C1949 C 0.54014 0.15495 0.21924 0.0
C1950 C 0.53706 0.12813 0.29686 0.0
C1951 C 0.58332 0.17037 0.21545 0.0
C1952 C 0.61041 0.15072 0.29396 0.0
C1953 C 0.60828 0.12922 0.28682 0.0
C1954 C 0.59601 0.1584 0.28259 0.0
C1955 C 0.5788 0.14393 0.26421 0.0
C1956 C 0.57747 0.12279 0.25608 0.0
C1957 C 0.59233 0.11586 0.26728 0.0
C1958 C 0.59854 0.18139 0.29122 0.0
C1959 C 0.55931 0.10662 0.2367 0.0
H1960 H 0.50207 0.126 0.26848 0.0
H1961 H 0.54039 0.16027 0.19919 0.0
H1962 H 0.53796 0.11184 0.29495 0.0
H1963 H 0.55178 0.14034 0.30941 0.0
H1964 H 0.52042 0.12376 0.30675 0.0
H1965 H 0.58265 0.18184 0.20003 0.0
H1966 H 0.59846 0.18098 0.22836 0.0
H1967 H 0.58621 0.15695 0.2059 0.0
H1968 H 0.62285 0.16125 0.30887 0.0
H1969 H 0.59066 0.09931 0.26146 0.0
H1970 H 0.58588 0.17821 0.30708 0.0
H1971 H 0.59488 0.1902 0.27498 0.0
H1972 H 0.61635 0.19334 0.29885 0.0
H1973 H 0.54158 0.10008 0.24491 0.0
H1974 H 0.56126 0.09131 0.23167 0.0
H1975 H 0.5605 0.11618 0.21847 0.0
C1976 C 0.45345 0.61058 0.29784 0.0
C1977 C 0.47252 0.60758 0.292 0.0
C1978 C 0.43152 0.5963 0.28616 0.0
C1979 C 0.42858 0.57833 0.26878 0.0
C1980 C 0.44807 0.57592 0.26211 0.0
C1981 C 0.46975 0.59067 0.27362 0.0
C1982 C 0.4114 0.59989 0.29328 0.0
C1983 C 0.44584 0.55693 0.2438 0.0
C1984 C 0.37564 0.51894 0.26174 0.0
C1985 C 0.37054 0.51917 0.23528 0.0
C1986 C 0.3928 0.53918 0.27412 0.0
C1987 C 0.40503 0.56014 0.25962 0.0
C1988 C 0.39749 0.56121 0.23404 0.0
C1989 C 0.38029 0.54056 0.22202 0.0
C1990 C 0.39994 0.5372 0.30153 0.0
C1991 C 0.40943 0.58347 0.21833 0.0
H1992 H 0.45553 0.62378 0.31186 0.0
H1993 H 0.48441 0.5883 0.26885 0.0
H1994 H 0.39972 0.59658 0.27635 0.0
H1995 H 0.40095 0.58746 0.30895 0.0
H1996 H 0.41763 0.61791 0.30059 0.0
H1997 H 0.46287 0.55796 0.23998 0.0
H1998 H 0.43375 0.5395 0.25226 0.0
H1999 H 0.4384 0.55813 0.22489 0.0
H2000 H 0.36785 0.50241 0.2721 0.0
H2001 H 0.37634 0.54081 0.20155 0.0
H2002 H 0.40293 0.55246 0.31343 0.0
H2003 H 0.41658 0.53692 0.30087 0.0
H2004 H 0.3866 0.52099 0.31137 0.0
H2005 H 0.41405 0.59892 0.23081 0.0
H2006 H 0.39824 0.58316 0.20201 0.0
H2007 H 0.42583 0.58556 0.20994 0.0
C2008 C 0.85414 0.47366 0.26588 0.0
C2009 C 0.84501 0.4748 0.29018 0.0
C2010 C 0.84894 0.45218 0.25489 0.0
C2011 C 0.83356 0.43118 0.26811 0.0
C2012 C 0.82178 0.43214 0.29079 0.0
C2013 C 0.82797 0.45402 0.30189 0.0
C2014 C 0.86203 0.4522 0.2307 0.0
C2015 C 0.80406 0.41016 0.3045 0.0
C2016 C 0.82827 0.38 0.22885 0.0
C2017 C 0.84664 0.37795 0.23964 0.0
C2018 C 0.82168 0.39546 0.23979 0.0
C2019 C 0.83429 0.40958 0.26136 0.0
C2020 C 0.8513 0.40583 0.27366 0.0
C2021 C 0.85693 0.3898 0.2629 0.0
C2022 C 0.80242 0.3978 0.22705 0.0
C2023 C 0.8654 0.42047 0.2966 0.0
H2024 H 0.86695 0.48964 0.25636 0.0
H2025 H 0.82047 0.45473 0.32044 0.0
H2026 H 0.87425 0.44585 0.23567 0.0
H2027 H 0.84974 0.44022 0.21582 0.0
H2028 H 0.87226 0.4699 0.22193 0.0
H2029 H 0.79134 0.41318 0.31553 0.0
H2030 H 0.79444 0.39565 0.29046 0.0
H2031 H 0.81307 0.40466 0.31862 0.0
H2032 H 0.81996 0.37063 0.21109 0.0
H2033 H 0.87078 0.38793 0.27174 0.0
H2034 H 0.80988 0.4111 0.21135 0.0
H2035 H 0.79346 0.40335 0.24125 0.0
H2036 H 0.78933 0.381 0.21801 0.0
H2037 H 0.8761 0.43904 0.29054 0.0
H2038 H 0.87728 0.41465 0.30453 0.0
H2039 H 0.85368 0.4197 0.3125 0.0
C2040 C 0.37995 0.83683 0.29735 0.0
C2041 C 0.37256 0.85087 0.28486 0.0
C2042 C 0.39679 0.83263 0.28561 0.0
C2043 C 0.40649 0.84301 0.26117 0.0
C2044 C 0.39693 0.85479 0.24732 0.0
C2045 C 0.38 0.85844 0.2593 0.0
C2046 C 0.40577 0.81905 0.30048 0.0
C2047 C 0.40653 0.86606 0.22117 0.0
C2048 C 0.47151 0.87258 0.24978 0.0
C2049 C 0.47306 0.85942 0.22921 0.0
C2050 C 0.45006 0.86646 0.26144 0.0
C2051 C 0.42953 0.84635 0.25268 0.0
C2052 C 0.43121 0.83189 0.23336 0.0
C2053 C 0.45297 0.83875 0.22159 0.0
C2054 C 0.44923 0.88258 0.28185 0.0
C2055 C 0.40993 0.80989 0.22409 0.0
H2056 H 0.37413 0.8308 0.31707 0.0
H2057 H 0.37398 0.86896 0.24939 0.0
H2058 H 0.40983 0.80836 0.28707 0.0
H2059 H 0.42211 0.83142 0.31075 0.0
H2060 H 0.39293 0.8074 0.31528 0.0
H2061 H 0.3954 0.87211 0.21165 0.0
H2062 H 0.42427 0.88139 0.22382 0.0
H2063 H 0.4081 0.85367 0.20789 0.0
H2064 H 0.48696 0.88845 0.25604 0.0
H2065 H 0.45407 0.82834 0.2059 0.0
H2066 H 0.4402 0.87259 0.29963 0.0
H2067 H 0.4392 0.89067 0.27427 0.0
H2068 H 0.46691 0.8968 0.28746 0.0
H2069 H 0.39742 0.80101 0.24028 0.0
H2070 H 0.41475 0.79747 0.21536 0.0
H2071 H 0.4009 0.81441 0.20892 0.0
C2072 C 0.61509 0.46179 0.21885 0.0
C2073 C 0.61439 0.4816 0.22745 0.0
C2074 C 0.60098 0.43982 0.23066 0.0
C2075 C 0.58549 0.43766 0.25102 0.0
C2076 C 0.58597 0.45795 0.26081 0.0
C2077 C 0.60054 0.47961 0.2491 0.0
C2078 C 0.60174 0.41884 0.22029 0.0
C2079 C 0.56972 0.45663 0.28237 0.0
C2080 C 0.52417 0.38801 0.25871 0.0
C2081 C 0.52489 0.38039 0.28401 0.0
C2082 C 0.54445 0.40499 0.24631 0.0
C2083 C 0.56611 0.41437 0.25944 0.0
C2084 C 0.56735 0.40438 0.28343 0.0
C2085 C 0.54659 0.38753 0.29565 0.0
C2086 C 0.54217 0.41489 0.22064 0.0
C2087 C 0.59027 0.41305 0.29738 0.0
H2088 H 0.62598 0.46324 0.20234 0.0
H2089 H 0.60011 0.49487 0.25617 0.0
H2090 H 0.59812 0.4058 0.23588 0.0
H2091 H 0.58828 0.41028 0.20494 0.0
H2092 H 0.61899 0.42404 0.21141 0.0
H2093 H 0.57315 0.47419 0.28862 0.0
H2094 H 0.55135 0.44643 0.27561 0.0
H2095 H 0.57149 0.44751 0.2996 0.0
H2096 H 0.50741 0.38212 0.24941 0.0
H2097 H 0.54725 0.38151 0.31512 0.0
H2098 H 0.55563 0.41637 0.20665 0.0
H2099 H 0.54492 0.43273 0.22382 0.0
H2100 H 0.5247 0.40397 0.21168 0.0
H2101 H 0.60464 0.41742 0.28331 0.0
H2102 H 0.58942 0.39985 0.31145 0.0
H2103 H 0.59454 0.42917 0.3084 0.0
C2104 C 0.15578 0.61649 0.22135 0.0
C2105 C 0.13647 0.6169 0.23206 0.0
C2106 C 0.16328 0.60156 0.23164 0.0
C2107 C 0.15074 0.5864 0.25256 0.0
C2108 C 0.13262 0.58841 0.26482 0.0
C2109 C 0.12597 0.60383 0.25462 0.0
C2110 C 0.18349 0.60091 0.21886 0.0
C2111 C 0.11862 0.57264 0.28716 0.0
C2112 C 0.13384 0.52319 0.25607 0.0
C2113 C 0.14294 0.52238 0.28046 0.0
C2114 C 0.13845 0.54448 0.24512 0.0
C2115 C 0.15295 0.56555 0.25867 0.0
C2116 C 0.16492 0.56504 0.28134 0.0
C2117 C 0.15954 0.54333 0.29225 0.0
C2118 C 0.12542 0.54407 0.22075 0.0
C2119 C 0.18167 0.58721 0.29544 0.0
H2120 H 0.16423 0.62681 0.20413 0.0
H2121 H 0.11134 0.60441 0.26337 0.0
H2122 H 0.19282 0.59564 0.23283 0.0
H2123 H 0.1769 0.58808 0.20265 0.0
H2124 H 0.19607 0.61825 0.21048 0.0
H2125 H 0.10594 0.57732 0.29535 0.0
H2126 H 0.1088 0.55423 0.28033 0.0
H2127 H 0.13037 0.57352 0.30306 0.0
H2128 H 0.12144 0.50703 0.24653 0.0
H2129 H 0.16697 0.54284 0.31091 0.0
H2130 H 0.13749 0.55705 0.20642 0.0
H2131 H 0.112 0.54884 0.22577 0.0
H2132 H 0.11656 0.52658 0.21133 0.0
H2133 H 0.19137 0.60181 0.28151 0.0
H2134 H 0.19435 0.58474 0.30723 0.0
H2135 H 0.17179 0.59228 0.30886 0.0
C2136 C 0.45901 0.84738 0.79553 0.0
C2137 C 0.48048 0.86359 0.78445 0.0
C2138 C 0.43787 0.84259 0.78362 0.0
C2139 C 0.43843 0.85448 0.76037 0.0
C2140 C 0.46007 0.86904 0.74792 0.0
C2141 C 0.48077 0.87332 0.76007 0.0
C2142 C 0.41513 0.82634 0.79704 0.0
C2143 C 0.46162 0.88205 0.72309 0.0
C2144 C 0.38744 0.8473 0.71916 0.0
C2145 C 0.38546 0.86634 0.72798 0.0
C2146 C 0.4033 0.84174 0.73097 0.0
C2147 C 0.41759 0.85577 0.75173 0.0
C2148 C 0.41432 0.87389 0.76182 0.0
C2149 C 0.39825 0.87883 0.74993 0.0
C2150 C 0.40576 0.82184 0.72015 0.0
C2151 C 0.42911 0.88938 0.7839 0.0
H2152 H 0.45867 0.83966 0.81429 0.0
H2153 H 0.49734 0.88553 0.75115 0.0
H2154 H 0.40923 0.83678 0.80834 0.0
H2155 H 0.40132 0.81578 0.78262 0.0
H2156 H 0.41703 0.81438 0.81075 0.0
H2157 H 0.47939 0.89054 0.7144 0.0
H2158 H 0.44899 0.87005 0.70844 0.0
H2159 H 0.4571 0.89581 0.7273 0.0
H2160 H 0.37744 0.83743 0.70235 0.0
H2161 H 0.39654 0.89333 0.75718 0.0
H2162 H 0.40894 0.8123 0.73596 0.0
H2163 H 0.42091 0.82888 0.70669 0.0
H2164 H 0.38997 0.80929 0.70909 0.0
H2165 H 0.42881 0.87864 0.80066 0.0
H2166 H 0.42314 0.90149 0.79075 0.0
H2167 H 0.44752 0.89998 0.77734 0.0
C2168 C 0.5422 0.38229 0.71945 0.0
C2169 C 0.52133 0.37678 0.73226 0.0
C2170 C 0.56383 0.39936 0.72973 0.0
C2171 C 0.56434 0.41128 0.75294 0.0
C2172 C 0.5435 0.4037 0.76734 0.0
C2173 C 0.5223 0.38639 0.75691 0.0
C2174 C 0.58581 0.40613 0.71449 0.0
C2175 C 0.54308 0.41577 0.79222 0.0
C2176 C 0.61588 0.45896 0.78989 0.0
C2177 C 0.61575 0.47887 0.78057 0.0
C2178 C 0.60079 0.43673 0.77924 0.0
C2179 C 0.58491 0.43444 0.75937 0.0
C2180 C 0.58614 0.45477 0.74855 0.0
C2181 C 0.60171 0.47669 0.75909 0.0
C2182 C 0.60076 0.41564 0.79056 0.0
C2183 C 0.56951 0.45329 0.72744 0.0
H2184 H 0.54157 0.37475 0.70048 0.0
H2185 H 0.50621 0.38182 0.76713 0.0
H2186 H 0.58999 0.42148 0.70205 0.0
H2187 H 0.60083 0.41105 0.72772 0.0
H2188 H 0.58367 0.39166 0.7016 0.0
H2189 H 0.52597 0.40625 0.80235 0.0
H2190 H 0.55687 0.41745 0.80578 0.0
H2191 H 0.54662 0.43369 0.78763 0.0
H2192 H 0.6269 0.46053 0.80629 0.0
H2193 H 0.60171 0.49202 0.75151 0.0
H2194 H 0.59652 0.40202 0.77551 0.0
H2195 H 0.58734 0.40794 0.80612 0.0
H2196 H 0.61793 0.42049 0.79938 0.0
H2197 H 0.56971 0.44261 0.71088 0.0
H2198 H 0.57385 0.47079 0.71992 0.0
H2199 H 0.55144 0.44462 0.73529 0.0
C2200 C 0.15763 0.54366 0.71965 0.0
C2201 C 0.1366 0.52443 0.72808 0.0
C2202 C 0.1658 0.56598 0.73072 0.0
C2203 C 0.1522 0.56911 0.74999 0.0
C2204 C 0.13174 0.5494 0.75961 0.0
C2205 C 0.12446 0.52737 0.74883 0.0
C2206 C 0.18826 0.58623 0.72068 0.0
C2207 C 0.11639 0.55171 0.77993 0.0
C2208 C 0.16199 0.6187 0.79416 0.0
C2209 C 0.14805 0.62612 0.78149 0.0
C2210 C 0.1667 0.60225 0.7823 0.0
C2211 C 0.15674 0.5928 0.75768 0.0
C2212 C 0.14557 0.6028 0.74346 0.0
C2213 C 0.14156 0.61952 0.75549 0.0
C2214 C 0.18008 0.59315 0.79731 0.0
C2215 C 0.13499 0.59364 0.71697 0.0
H2216 H 0.16727 0.5415 0.70383 0.0
H2217 H 0.10835 0.51258 0.75578 0.0
H2218 H 0.18454 0.59368 0.70318 0.0
H2219 H 0.1968 0.6003 0.73547 0.0
H2220 H 0.20065 0.58033 0.71476 0.0
H2221 H 0.10129 0.53454 0.78561 0.0
H2222 H 0.12663 0.56027 0.79772 0.0
H2223 H 0.10955 0.56285 0.77229 0.0
H2224 H 0.16745 0.62405 0.81411 0.0
H2225 H 0.13129 0.62569 0.74534 0.0
H2226 H 0.19067 0.5889 0.78396 0.0
H2227 H 0.16765 0.57689 0.80771 0.0
H2228 H 0.19177 0.60606 0.81201 0.0
H2229 H 0.14767 0.59218 0.7041 0.0
H2230 H 0.12933 0.60503 0.7073 0.0
H2231 H 0.11954 0.57587 0.71911 0.0
C2232 C 0.53429 0.14766 0.79215 0.0
C2233 C 0.51232 0.13272 0.78128 0.0
C2234 C 0.5548 0.15175 0.7792 0.0
C2235 C 0.55311 0.14053 0.75505 0.0
C2236 C 0.53107 0.12754 0.74286 0.0
C2237 C 0.51098 0.12383 0.75612 0.0
C2238 C 0.57803 0.16628 0.7925 0.0
C2239 C 0.52832 0.11535 0.71708 0.0
C2240 C 0.6034 0.14644 0.71302 0.0
C2241 C 0.60428 0.12653 0.72078 0.0
C2242 C 0.58792 0.15237 0.72519 0.0
C2243 C 0.57288 0.13786 0.74525 0.0
C2244 C 0.57469 0.11849 0.75398 0.0
C2245 C 0.59039 0.11318 0.74176 0.0
C2246 C 0.58691 0.17347 0.71572 0.0
C2247 C 0.55902 0.1024 0.77523 0.0
H2248 H 0.53541 0.15469 0.81154 0.0
H2249 H 0.49402 0.1126 0.74743 0.0
H2250 H 0.58316 0.15454 0.80226 0.0
H2251 H 0.59183 0.17701 0.77812 0.0
H2252 H 0.57721 0.178 0.80749 0.0
H2253 H 0.51066 0.1087 0.70862 0.0
H2254 H 0.54149 0.12732 0.70283 0.0
H2255 H 0.53117 0.10029 0.71996 0.0
H2256 H 0.61423 0.15695 0.69696 0.0
H2257 H 0.59115 0.09794 0.74818 0.0
H2258 H 0.58458 0.18296 0.73227 0.0
H2259 H 0.57173 0.16772 0.70253 0.0
H2260 H 0.60293 0.18573 0.70479 0.0
H2261 H 0.56007 0.1126 0.79288 0.0
H2262 H 0.56362 0.08895 0.7808 0.0
H2263 H 0.5406 0.09334 0.76851 0.0
C2264 C 0.37633 0.541 0.79597 0.0
C2265 C 0.36594 0.51983 0.78218 0.0
C2266 C 0.39402 0.56164 0.7844 0.0
C2267 C 0.40157 0.56083 0.75874 0.0
C2268 C 0.38899 0.54019 0.74379 0.0
C2269 C 0.3712 0.52 0.75566 0.0
C2270 C 0.40628 0.5836 0.80059 0.0
C2271 C 0.39622 0.53847 0.71632 0.0
C2272 C 0.45057 0.61183 0.72148 0.0
C2273 C 0.46954 0.60871 0.72734 0.0
C2274 C 0.42847 0.59736 0.73281 0.0
C2275 C 0.42525 0.57899 0.74974 0.0
C2276 C 0.44461 0.57635 0.75631 0.0
C2277 C 0.46646 0.59136 0.74528 0.0
C2278 C 0.40852 0.60125 0.7259 0.0
C2279 C 0.44207 0.55689 0.77404 0.0
H2280 H 0.37223 0.54107 0.81643 0.0
H2281 H 0.36291 0.50375 0.74476 0.0
H2282 H 0.42257 0.58525 0.80873 0.0
H2283 H 0.41115 0.59932 0.78849 0.0
H2284 H 0.39521 0.58322 0.8171 0.0
H2285 H 0.38282 0.52248 0.7062 0.0
H2286 H 0.39948 0.55397 0.70471 0.0
H2287 H 0.41275 0.53797 0.71689 0.0
H2288 H 0.45287 0.62532 0.70778 0.0
H2289 H 0.48101 0.58882 0.75 0.0
H2290 H 0.39676 0.59776 0.74283 0.0
H2291 H 0.39809 0.5891 0.71002 0.0
H2292 H 0.41492 0.6194 0.71896 0.0
H2293 H 0.43469 0.55785 0.79312 0.0
H2294 H 0.45897 0.55758 0.77761 0.0
H2295 H 0.4298 0.53967 0.76525 0.0
C2296 C 0.86683 0.46564 0.75446 0.0
C2297 C 0.85361 0.46869 0.73512 0.0
C2298 C 0.85995 0.4436 0.76495 0.0
C2299 C 0.83886 0.42399 0.75646 0.0
C2300 C 0.82443 0.42719 0.73846 0.0
C2301 C 0.83216 0.44953 0.72765 0.0
C2302 C 0.87616 0.44119 0.7839 0.0
C2303 C 0.8014 0.40702 0.7296 0.0
C2304 C 0.84819 0.37271 0.76123 0.0
C2305 C 0.84273 0.36674 0.78755 0.0
C2306 C 0.84417 0.38951 0.74946 0.0
C2307 C 0.8341 0.40029 0.76432 0.0
C2308 C 0.82515 0.39155 0.78949 0.0
C2309 C 0.82981 0.37498 0.80102 0.0
C2310 C 0.85362 0.39791 0.72238 0.0
C2311 C 0.81301 0.40158 0.80531 0.0
H2312 H 0.88332 0.48036 0.7606 0.0
H2313 H 0.82173 0.45179 0.7129 0.0
H2314 H 0.86685 0.43307 0.80232 0.0
H2315 H 0.88219 0.42961 0.7755 0.0
H2316 H 0.89179 0.45827 0.78867 0.0
H2317 H 0.78899 0.41309 0.72442 0.0
H2318 H 0.80422 0.3991 0.71189 0.0
H2319 H 0.79332 0.39325 0.74478 0.0
H2320 H 0.85766 0.36593 0.75048 0.0
H2321 H 0.82513 0.37012 0.82125 0.0
H2322 H 0.86961 0.41538 0.72365 0.0
H2323 H 0.84073 0.39979 0.71039 0.0
H2324 H 0.85815 0.38582 0.71226 0.0
H2325 H 0.82624 0.41808 0.81468 0.0
H2326 H 0.80202 0.38931 0.8209 0.0
H2327 H 0.80192 0.40569 0.79267 0.0
C2328 C 0.44106 0.13536 0.06546 0.0
C2329 C 0.44479 0.11806 0.07658 0.0
C2330 C 0.44026 0.13757 0.03818 0.0
C2331 C 0.44335 0.12217 0.02154 0.0
C2332 C 0.44718 0.10474 0.03266 0.0
C2333 C 0.44789 0.10293 0.05991 0.0
C2334 C 0.4361 0.15635 0.02715 0.0
C2335 C 0.45069 0.088 0.01575 0.0
C2336 C 0.42144 0.11011 0.95139 0.0
C2337 C 0.44221 0.12287 0.93712 0.0
C2338 C 0.42138 0.11055 0.97883 0.0
C2339 C 0.44261 0.12407 0.99249 0.0
C2340 C 0.46345 0.13786 0.9782 0.0
C2341 C 0.463 0.1371 0.95075 0.0
C2342 C 0.39873 0.0957 0.9932 0.0
C2343 C 0.48647 0.15253 0.99191 0.0
H2344 H 0.43852 0.14706 0.0781 0.0
H2345 H 0.45132 0.08985 0.06817 0.0
H2346 H 0.45089 0.16816 0.01436 0.0
H2347 H 0.42014 0.14831 0.01492 0.0
H2348 H 0.43408 0.16698 0.04264 0.0
H2349 H 0.45338 0.07537 0.0274 0.0
H2350 H 0.43529 0.07806 1.00296 0.0
H2351 H 0.46607 0.09791 1.00289 0.0
H2352 H 0.40523 0.09928 0.94107 0.0
H2353 H 0.4792 0.14681 0.94003 0.0
H2354 H 0.396 0.10628 0.00811 0.0
H2355 H 0.39951 0.08136 1.00358 0.0
H2356 H 0.38346 0.08785 0.97987 0.0
H2357 H 0.48482 0.16364 1.00703 0.0
H2358 H 0.50063 0.16397 0.97818 0.0
H2359 H 0.49165 0.14093 1.00194 0.0
C2360 C 0.32711 0.46451 0.06539 0.0
C2361 C 0.3255 0.44541 0.07922 0.0
C2362 C 0.32699 0.46476 0.03796 0.0
C2363 C 0.32519 0.44544 0.02391 0.0
C2364 C 0.32269 0.42575 0.03775 0.0
C2365 C 0.3229 0.42598 0.06517 0.0
C2366 C 0.32971 0.48612 0.02401 0.0
C2367 C 0.32056 0.40473 0.02358 0.0
C2368 C 0.30964 0.43968 0.9516 0.0
C2369 C 0.33165 0.44886 0.93973 0.0
C2370 C 0.30722 0.43834 0.97892 0.0
C2371 C 0.32728 0.4464 0.99484 0.0
C2372 C 0.34952 0.45557 0.98298 0.0
C2373 C 0.35142 0.45669 0.95565 0.0
C2374 C 0.2832 0.42836 0.99076 0.0
C2375 C 0.37138 0.46445 0.99919 0.0
H2376 H 0.32946 0.47975 0.07598 0.0
H2377 H 0.32138 0.41104 0.07567 0.0
H2378 H 0.34656 0.49479 0.01332 0.0
H2379 H 0.31563 0.48101 0.00939 0.0
H2380 H 0.32931 0.499 0.03765 0.0
H2381 H 0.31721 0.39022 0.03709 0.0
H2382 H 0.30621 0.39823 0.00911 0.0
H2383 H 0.33692 0.40979 0.01269 0.0
H2384 H 0.29422 0.43335 0.93951 0.0
H2385 H 0.36854 0.46418 0.94675 0.0
H2386 H 0.28251 0.44163 1.00342 0.0
H2387 H 0.27938 0.41315 1.00328 0.0
H2388 H 0.26933 0.42268 0.97573 0.0
H2389 H 0.37345 0.47896 0.01192 0.0
H2390 H 0.38732 0.47084 0.987 0.0
H2391 H 0.36999 0.45032 0.0121 0.0
C2392 C 0.85646 0.33014 0.07021 0.0
C2393 C 0.87315 0.32784 0.08482 0.0
C2394 C 0.85683 0.33009 0.04277 0.0
C2395 C 0.87443 0.32789 0.02949 0.0
C2396 C 0.89082 0.32474 0.04407 0.0
C2397 C 0.8899 0.32462 0.07147 0.0
C2398 C 0.83888 0.33327 0.028 0.0
C2399 C 0.90988 0.32234 0.03074 0.0
C2400 C 0.86687 0.31262 0.95704 0.0
C2401 C 0.87998 0.33472 0.94533 0.0
C2402 C 0.86487 0.3101 0.98433 0.0
C2403 C 0.87645 0.33013 1.00045 0.0
C2404 C 0.88996 0.35243 0.98881 0.0
C2405 C 0.89146 0.35447 0.96149 0.0
C2406 C 0.85022 0.28602 0.99592 0.0
C2407 C 0.90271 0.37424 1.00524 0.0
H2408 H 0.84362 0.33296 0.08018 0.0
H2409 H 0.90266 0.32244 0.08248 0.0
H2410 H 0.84759 0.35028 0.01759 0.0
H2411 H 0.83026 0.31937 0.01308 0.0
H2412 H 0.82527 0.33288 0.04105 0.0
H2413 H 0.92052 0.31878 0.04476 0.0
H2414 H 0.90226 0.30799 0.01621 0.0
H2415 H 0.92161 0.33869 0.02002 0.0
H2416 H 0.85817 0.29718 0.94487 0.0
H2417 H 0.90128 0.37168 0.9528 0.0
H2418 H 0.83606 0.28551 0.00802 0.0
H2419 H 0.86107 0.2819 0.00893 0.0
H2420 H 0.84227 0.27221 0.98075 0.0
H2421 H 0.89002 0.37657 0.01718 0.0
H2422 H 0.91296 0.3902 0.99325 0.0
H2423 H 0.91474 0.3725 0.01892 0.0
C2424 C 0.52722 0.85588 0.0629 0.0
C2425 C 0.54776 0.86839 0.07756 0.0
C2426 C 0.52783 0.85531 0.03548 0.0
C2427 C 0.54952 0.86748 0.02225 0.0
C2428 C 0.57039 0.87921 0.03698 0.0
C2429 C 0.56926 0.87959 0.06438 0.0
C2430 C 0.50513 0.84269 0.02063 0.0
C2431 C 0.59389 0.89224 0.02376 0.0
C2432 C 0.55224 0.856 0.94949 0.0
C2433 C 0.55148 0.87494 0.93809 0.0
C2434 C 0.55174 0.85333 0.97682 0.0
C2435 C 0.5502 0.86985 0.99317 0.0
C2436 C 0.54922 0.88885 0.98171 0.0
C2437 C 0.54988 0.89115 0.95446 0.0
C2438 C 0.55292 0.83289 0.98824 0.0
C2439 C 0.54732 0.90676 0.99827 0.0
H2440 H 0.51049 0.84743 0.07279 0.0
H2441 H 0.58524 0.88907 0.07551 0.0
H2442 H 0.5021 0.85562 0.01011 0.0
H2443 H 0.50596 0.8309 1.0058 0.0
H2444 H 0.49 0.83224 0.03367 0.0
H2445 H 0.60854 0.89852 0.03787 0.0
H2446 H 0.59574 0.88087 0.00915 0.0
H2447 H 0.59535 0.90757 0.01317 0.0
H2448 H 0.55351 0.84341 0.93704 0.0
H2449 H 0.54871 0.90554 0.9459 0.0
H2450 H 0.5372 0.82208 1.00031 0.0
H2451 H 0.56831 0.83932 1.00125 0.0
H2452 H 0.55414 0.82161 0.97296 0.0
H2453 H 0.53134 0.89804 0.01047 0.0
H2454 H 0.54668 0.92048 0.98636 0.0
H2455 H 0.56246 0.91534 0.01168 0.0
C2456 C 0.69091 0.55813 0.0627 0.0
C2457 C 0.67109 0.55633 0.07493 0.0
C2458 C 0.69253 0.55799 0.0353 0.0
C2459 C 0.67374 0.55561 0.01977 0.0
C2460 C 0.65364 0.55362 0.03208 0.0
C2461 C 0.65261 0.55408 0.05939 0.0
C2462 C 0.71433 0.56037 0.02294 0.0
C2463 C 0.63304 0.5507 0.01638 0.0
C2464 C 0.68053 0.5742 0.9485 0.0
C2465 C 0.67122 0.55266 0.93552 0.0
C2466 C 0.6825 0.57557 0.97584 0.0
C2467 C 0.67469 0.55486 0.99067 0.0
C2468 C 0.66596 0.53315 0.97762 0.0
C2469 C 0.66442 0.53233 0.95025 0.0
C2470 C 0.69218 0.5991 0.98892 0.0
C2471 C 0.65718 0.51061 0.99261 0.0
H2472 H 0.70525 0.5599 0.07458 0.0
H2473 H 0.63702 0.55218 0.06867 0.0
H2474 H 0.70989 0.54468 0.011 0.0
H2475 H 0.72217 0.57567 0.00962 0.0
H2476 H 0.72758 0.56255 0.03766 0.0
H2477 H 0.6187 0.54933 0.02892 0.0
H2478 H 0.63861 0.56576 1.00299 0.0
H2479 H 0.6261 0.53472 1.00418 0.0
H2480 H 0.68602 0.59001 0.93724 0.0
H2481 H 0.65691 0.51557 0.94044 0.0
H2482 H 0.70606 0.60181 1.00297 0.0
H2483 H 0.67815 0.59972 1.00013 0.0
H2484 H 0.6995 0.61372 0.97465 0.0
H2485 H 0.67055 0.51211 1.00673 0.0
H2486 H 0.65258 0.49546 0.9796 0.0
H2487 H 0.64144 0.50703 1.00398 0.0
C2488 C 0.12643 0.68435 0.95194 0.0
C2489 C 0.11212 0.66238 0.94043 0.0
C2490 C 0.12751 0.68721 0.97922 0.0
C2491 C 0.11393 0.66768 0.99549 0.0
C2492 C 0.09937 0.64552 0.98401 0.0
C2493 C 0.09869 0.64313 0.95674 0.0
C2494 C 0.14327 0.71113 0.99064 0.0
C2495 C 0.08463 0.6242 1.00058 0.0
C2496 C 0.13047 0.66647 0.06641 0.0
C2497 C 0.1142 0.67033 0.0799 0.0
C2498 C 0.13113 0.6664 0.03899 0.0
C2499 C 0.11507 0.67018 0.02455 0.0
C2500 C 0.09916 0.67491 0.03799 0.0
C2501 C 0.09894 0.67496 0.06543 0.0
C2502 C 0.14842 0.66133 0.0255 0.0
C2503 C 0.08179 0.67911 0.02339 0.0
H2504 H 0.1367 0.69939 0.93959 0.0
H2505 H 0.08792 0.62599 0.94821 0.0
H2506 H 0.13292 0.71658 1.00278 0.0
H2507 H 0.1564 0.71055 1.00359 0.0
H2508 H 0.15258 0.72459 0.97537 0.0
H2509 H 0.07387 0.60831 0.98867 0.0
H2510 H 0.09601 0.62078 0.01356 0.0
H2511 H 0.07284 0.62731 0.01325 0.0
H2512 H 0.14211 0.6625 0.07726 0.0
H2513 H 0.0865 0.67827 0.0756 0.0
H2514 H 0.15843 0.67492 0.01062 0.0
H2515 H 0.13895 0.64432 0.01518 0.0
H2516 H 0.16092 0.66059 0.03938 0.0
H2517 H 0.09089 0.69317 0.00872 0.0
H2518 H 0.07164 0.68407 0.03659 0.0
H2519 H 0.06941 0.66302 0.01268 0.0
C2520 C 0.86048 0.55301 0.45833 0.0
C2521 C 0.87615 0.5469 0.44725 0.0
C2522 C 0.85821 0.55384 0.48555 0.0
C2523 C 0.87209 0.54866 0.50221 0.0
C2524 C 0.88815 0.5428 0.49119 0.0
C2525 C 0.88988 0.54187 0.46395 0.0
C2526 C 0.8408 0.56003 0.4965 0.0
C2527 C 0.90338 0.53725 0.50821 0.0
C2528 C 0.8835 0.56911 0.57288 0.0
C2529 C 0.8692 0.54826 0.5865 0.0
C2530 C 0.88403 0.5697 0.54546 0.0
C2531 C 0.86974 0.54901 0.53118 0.0
C2532 C 0.85435 0.52822 0.54476 0.0
C2533 C 0.85434 0.52806 0.57218 0.0
C2534 C 0.9007 0.59224 0.53181 0.0
C2535 C 0.83863 0.50582 0.53032 0.0
H2536 H 0.84999 0.55725 0.44572 0.0
H2537 H 0.90171 0.53667 0.45577 0.0
H2538 H 0.82781 0.54545 0.50874 0.0
H2539 H 0.84979 0.57563 0.50925 0.0
H2540 H 0.83137 0.56369 0.48096 0.0
H2541 H 0.9155 0.53374 0.49664 0.0
H2542 H 0.91381 0.55205 0.52163 0.0
H2543 H 0.89231 0.52169 0.52041 0.0
H2544 H 0.89478 0.58491 0.58368 0.0
H2545 H 0.84344 0.51176 0.58235 0.0
H2546 H 0.89136 0.59652 0.5168 0.0
H2547 H 0.91436 0.59016 0.52162 0.0
H2548 H 0.90937 0.60718 0.54557 0.0
H2549 H 0.82865 0.50893 0.51502 0.0
H2550 H 0.82611 0.49181 0.54353 0.0
H2551 H 0.84938 0.49952 0.52042 0.0
C2552 C 0.3373 0.88853 0.45641 0.0
C2553 C 0.31954 0.87266 0.43981 0.0
C2554 C 0.33486 0.8867 0.48366 0.0
C2555 C 0.31416 0.86845 0.49486 0.0
C2556 C 0.29614 0.85229 0.4783 0.0
C2557 C 0.29905 0.85456 0.451 0.0
C2558 C 0.3546 0.90426 0.50049 0.0
C2559 C 0.2738 0.83261 0.48943 0.0
C2560 C 0.32094 0.85485 0.56546 0.0
C2561 C 0.31341 0.86827 0.57924 0.0
C2562 C 0.32018 0.85377 0.53804 0.0
C2563 C 0.31169 0.86643 0.52392 0.0
C2564 C 0.30291 0.87899 0.53775 0.0
C2565 C 0.30387 0.87975 0.56517 0.0
C2566 C 0.32969 0.84013 0.52416 0.0
C2567 C 0.29359 0.89263 0.52355 0.0
H2568 H 0.35344 0.90225 0.44811 0.0
H2569 H 0.28517 0.84226 0.43841 0.0
H2570 H 0.34826 0.91342 0.51338 0.0
H2571 H 0.36106 0.89513 0.51324 0.0
H2572 H 0.36947 0.91754 0.48877 0.0
H2573 H 0.26143 0.82153 0.47399 0.0
H2574 H 0.27774 0.82141 0.5021 0.0
H2575 H 0.26511 0.83981 0.5018 0.0
H2576 H 0.32862 0.84614 0.57602 0.0
H2577 H 0.29773 0.88992 0.5756 0.0
H2578 H 0.34619 0.85243 0.51407 0.0
H2579 H 0.31724 0.82861 0.50907 0.0
H2580 H 0.33328 0.82924 0.53779 0.0
H2581 H 0.30809 0.90759 0.51317 0.0
H2582 H 0.28529 0.89953 0.53701 0.0
H2583 H 0.28061 0.88149 0.50867 0.0
C2584 C 0.42853 0.31437 0.45174 0.0
C2585 C 0.44967 0.32189 0.43843 0.0
C2586 C 0.4274 0.31302 0.47913 0.0
C2587 C 0.44794 0.31952 0.4937 0.0
C2588 C 0.46913 0.32615 0.48034 0.0
C2589 C 0.46972 0.32719 0.45292 0.0
C2590 C 0.4044 0.30562 0.49251 0.0
C2591 C 0.49147 0.33335 0.49504 0.0
C2592 C 0.45181 0.34467 0.56153 0.0
C2593 C 0.44769 0.3259 0.57783 0.0
C2594 C 0.45191 0.34275 0.53426 0.0
C2595 C 0.44774 0.32149 0.52277 0.0
C2596 C 0.44353 0.30242 0.53905 0.0
C2597 C 0.44367 0.30488 0.56637 0.0
C2598 C 0.4567 0.36363 0.51773 0.0
C2599 C 0.43887 0.27942 0.52759 0.0
H2600 H 0.4129 0.31001 0.4407 0.0
H2601 H 0.4862 0.3333 0.44288 0.0
H2602 H 0.40068 0.29184 0.50718 0.0
H2603 H 0.40536 0.32076 0.50304 0.0
H2604 H 0.38964 0.29891 0.4785 0.0
H2605 H 0.50594 0.33594 0.4819 0.0
H2606 H 0.49684 0.34996 0.50557 0.0
H2607 H 0.48877 0.31998 0.50984 0.0
H2608 H 0.45545 0.36115 0.57013 0.0
H2609 H 0.44039 0.29027 0.57879 0.0
H2610 H 0.4418 0.35898 0.50442 0.0
H2611 H 0.47235 0.36885 0.50541 0.0
H2612 H 0.45964 0.37891 0.52967 0.0
H2613 H 0.4234 0.27233 0.51462 0.0
H2614 H 0.43574 0.26623 0.54285 0.0
H2615 H 0.45391 0.28212 0.51546 0.0
C2616 C 0.10554 0.4279 0.44995 0.0
C2617 C 0.11941 0.44899 0.43662 0.0
C2618 C 0.10599 0.42679 0.47732 0.0
C2619 C 0.12045 0.44731 0.49182 0.0
C2620 C 0.13507 0.46848 0.47842 0.0
C2621 C 0.13444 0.46903 0.45104 0.0
C2622 C 0.09035 0.40381 0.49078 0.0
C2623 C 0.15055 0.49083 0.49306 0.0
C2624 C 0.10031 0.45172 0.55998 0.0
C2625 C 0.11513 0.44765 0.57596 0.0
C2626 C 0.10189 0.45162 0.53271 0.0
C2627 C 0.11866 0.44719 0.52089 0.0
C2628 C 0.1337 0.44302 0.53686 0.0
C2629 C 0.13187 0.44347 0.56422 0.0
C2630 C 0.08573 0.4565 0.51652 0.0
C2631 C 0.15165 0.43804 0.52502 0.0
H2632 H 0.09406 0.4123 0.43893 0.0
H2633 H 0.145 0.48547 0.44096 0.0
H2634 H 0.10047 0.39991 0.50515 0.0
H2635 H 0.07647 0.40498 0.50168 0.0
H2636 H 0.08193 0.38904 0.47678 0.0
H2637 H 0.16225 0.50533 0.47983 0.0
H2638 H 0.13958 0.49626 0.50404 0.0
H2639 H 0.1614 0.48804 0.50748 0.0
H2640 H 0.08765 0.45546 0.56888 0.0
H2641 H 0.14335 0.44028 0.57645 0.0
H2642 H 0.07515 0.4415 0.5034 0.0
H2643 H 0.09608 0.47205 0.50402 0.0
H2644 H 0.0737 0.45968 0.52872 0.0
H2645 H 0.14296 0.42253 0.51208 0.0
H2646 H 0.16176 0.43477 0.54006 0.0
H2647 H 0.16399 0.45302 0.51278 0.0
C2648 C 0.65772 0.10153 0.45317 0.0
C2649 C 0.67415 0.11841 0.43614 0.0
C2650 C 0.66032 0.10409 0.48035 0.0
C2651 C 0.67987 0.12406 0.49102 0.0
C2652 C 0.69662 0.14116 0.47402 0.0
C2653 C 0.69352 0.13818 0.4468 0.0
C2654 C 0.6419 0.08551 0.49766 0.0
C2655 C 0.71774 0.16263 0.48459 0.0
C2656 C 0.67095 0.13758 0.56089 0.0
C2657 C 0.68067 0.12646 0.57532 0.0
C2658 C 0.6716 0.13797 0.53347 0.0
C2659 C 0.68227 0.12701 0.52 0.0
C2660 C 0.6932 0.11685 0.53446 0.0
C2661 C 0.69222 0.11665 0.56188 0.0
C2662 C 0.65965 0.14892 0.51891 0.0
C2663 C 0.70495 0.10516 0.52094 0.0
H2664 H 0.64241 0.08646 0.44524 0.0
H2665 H 0.70635 0.15127 0.43384 0.0
H2666 H 0.64999 0.07828 0.51089 0.0
H2667 H 0.6338 0.09331 0.51006 0.0
H2668 H 0.62791 0.07088 0.48631 0.0
H2669 H 0.72943 0.17405 0.46885 0.0
H2670 H 0.71212 0.17293 0.49661 0.0
H2671 H 0.72782 0.15743 0.49749 0.0
H2672 H 0.66169 0.14493 0.57098 0.0
H2673 H 0.69999 0.10824 0.57283 0.0
H2674 H 0.64386 0.13505 0.50902 0.0
H2675 H 0.67133 0.16096 0.5036 0.0
H2676 H 0.65429 0.15878 0.53206 0.0
H2677 H 0.69159 0.08903 0.51106 0.0
H2678 H 0.71477 0.10035 0.53478 0.0
H2679 H 0.71714 0.11682 0.50572 0.0
C2680 C 0.54718 0.6937 0.56696 0.0
C2681 C 0.54693 0.67427 0.57846 0.0
C2682 C 0.54781 0.69632 0.53962 0.0
C2683 C 0.54788 0.67897 0.52336 0.0
C2684 C 0.54749 0.65929 0.53491 0.0
C2685 C 0.54706 0.65723 0.56218 0.0
C2686 C 0.54839 0.71763 0.52811 0.0
C2687 C 0.54723 0.64019 0.51843 0.0
C2688 C 0.52681 0.66985 0.45293 0.0
C2689 C 0.54784 0.67885 0.43896 0.0
C2690 C 0.52662 0.67071 0.48034 0.0
C2691 C 0.54796 0.68092 0.49426 0.0
C2692 C 0.56929 0.69103 0.48023 0.0
C2693 C 0.56897 0.68977 0.45281 0.0
C2694 C 0.50347 0.65953 0.49443 0.0
C2695 C 0.59245 0.70231 0.49422 0.0
H2696 H 0.54713 0.70697 0.57937 0.0
H2697 H 0.54635 0.6419 0.57081 0.0
H2698 H 0.56403 0.7272 0.51552 0.0
H2699 H 0.53286 0.71224 0.51559 0.0
H2700 H 0.54872 0.72976 0.54335 0.0
H2701 H 0.547 0.62606 0.53041 0.0
H2702 H 0.53165 0.63238 0.5056 0.0
H2703 H 0.56284 0.64762 0.50562 0.0
H2704 H 0.51038 0.66106 0.44251 0.0
H2705 H 0.5853 0.69695 0.44219 0.0
H2706 H 0.50321 0.67172 0.50913 0.0
H2707 H 0.50092 0.64376 0.50502 0.0
H2708 H 0.48856 0.65423 0.48088 0.0
H2709 H 0.59322 0.71505 0.50887 0.0
H2710 H 0.60741 0.71147 0.48059 0.0
H2711 H 0.59439 0.68876 0.50485 0.0
loop_
_geom_bond_atom_site_label_1
_geom_bond_atom_site_label_2
_geom_bond_distance
_geom_bond_site_symmetry_2
_ccdc_geom_bond_type
Co0 N4 2.148 . S
Co0 N10 2.128 . S
Co0 N20 2.194 . S
Co0 O25 2.351 . S
Co0 O26 2.155 . S
Co0 O27 2.096 . S
C1 N4 1.301 . S
C1 N5 1.328 . S
C1 H6 0.930 . S
C2 C3 1.333 . S
C2 N4 1.317 . S
C2 H7 0.930 . S
C3 C2 1.333 . S
C3 N5 1.350 . S
C3 H29 0.931 . S
N4 Co0 2.148 . S
N4 C1 1.301 . S
N4 C2 1.317 . S
N5 C1 1.328 . S
N5 C3 1.350 . S
H6 C1 0.930 . S
H7 C2 0.930 . S
C8 O9 1.224 . S
C8 O27 1.247 . S
O9 C8 1.224 . S
N10 Co0 2.128 . S
N10 C11 1.355 . S
N10 C13 1.311 . S
C11 N10 1.355 . S
C11 C12 1.363 . S
C11 H23 0.929 . S
C12 C11 1.363 . S
C12 N14 1.375 . S
C12 H30 0.931 . S
C13 N10 1.311 . S
C13 N14 1.347 . S
C13 H24 0.929 . S
N14 C12 1.375 . S
N14 C13 1.347 . S
C15 C18 1.365 . S
C15 N20 1.328 . S
C15 H21 0.929 . S
C16 C17 1.362 . S
C16 C19 1.378 . S
C16 H31 0.929 . S
C17 C16 1.362 . S
C17 C18 1.366 . S
C18 C15 1.365 . S
C18 C17 1.366 . S
C18 H32 0.930 . S
C19 C16 1.378 . S
C19 N20 1.315 . S
C19 H22 0.930 . S
N20 Co0 2.194 . S
N20 C15 1.328 . S
N20 C19 1.315 . S
H21 C15 0.929 . S
H22 C19 0.930 . S
H23 C11 0.929 . S
H24 C13 0.929 . S
O25 Co0 2.351 . S
O25 C28 1.244 . S
O26 Co0 2.155 . S
O26 C28 1.240 . S
O27 Co0 2.096 . S
O27 C8 1.247 . S
C28 O25 1.244 . S
C28 O26 1.240 . S
H29 C3 0.931 . S
H30 C12 0.931 . S
H31 C16 0.929 . S
H32 C18 0.930 . S
Co33 N37 2.148 . S
Co33 N43 2.128 . S
Co33 N53 2.194 . S
Co33 O58 2.351 . S
Co33 O59 2.155 . S
Co33 O60 2.096 . S
C34 N37 1.301 . S
C34 N38 1.328 . S
C34 H39 0.930 . S
C35 C36 1.333 . S
C35 N37 1.317 . S
C35 H40 0.930 . S
C36 C35 1.333 . S
C36 N38 1.350 . S
C36 H62 0.931 . S
N37 Co33 2.148 . S
N37 C34 1.301 . S
N37 C35 1.317 . S
N38 C34 1.328 . S
N38 C36 1.350 . S
H39 C34 0.930 . S
H40 C35 0.930 . S
C41 O42 1.224 . S
C41 O60 1.247 . S
O42 C41 1.224 . S
N43 Co33 2.128 . S
N43 C44 1.355 . S
N43 C46 1.311 . S
C44 N43 1.355 . S
C44 C45 1.363 . S
C44 H56 0.929 . S
C45 C44 1.363 . S
C45 N47 1.375 . S
C45 H63 0.931 . S
C46 N43 1.311 . S
C46 N47 1.347 . S
C46 H57 0.929 . S
N47 C45 1.375 . S
N47 C46 1.347 . S
C48 C51 1.365 . S
C48 N53 1.328 . S
C48 H54 0.929 . S
C49 C50 1.362 . S
C49 C52 1.378 . S
C49 H64 0.929 . S
C50 C49 1.362 . S
C50 C51 1.366 . S
C51 C48 1.365 . S
C51 C50 1.366 . S
C51 H65 0.930 . S
C52 C49 1.378 . S
C52 N53 1.315 . S
C52 H55 0.930 . S
N53 Co33 2.194 . S
N53 C48 1.328 . S
N53 C52 1.315 . S
H54 C48 0.929 . S
H55 C52 0.930 . S
H56 C44 0.929 . S
H57 C46 0.929 . S
O58 Co33 2.351 . S
O58 C61 1.244 . S
O59 Co33 2.155 . S
O59 C61 1.240 . S
O60 Co33 2.096 . S
O60 C41 1.247 . S
C61 O58 1.244 . S
C61 O59 1.240 . S
H62 C36 0.931 . S
H63 C45 0.931 . S
H64 C49 0.929 . S
H65 C51 0.930 . S
Co66 N70 2.148 . S
Co66 N76 2.128 . S
Co66 N86 2.194 . S
Co66 O91 2.351 . S
Co66 O92 2.155 . S
Co66 O93 2.096 . S
C67 N70 1.301 . S
C67 N71 1.328 . S
C67 H72 0.930 . S
C68 C69 1.333 . S
C68 N70 1.317 . S
C68 H73 0.930 . S
C69 C68 1.333 . S
C69 N71 1.350 . S
C69 H95 0.931 . S
N70 Co66 2.148 . S
N70 C67 1.301 . S
N70 C68 1.317 . S
N71 C67 1.328 . S
N71 C69 1.350 . S
H72 C67 0.930 . S
H73 C68 0.930 . S
C74 O75 1.224 . S
C74 O93 1.247 . S
O75 C74 1.224 . S
N76 Co66 2.128 . S
N76 C77 1.355 . S
N76 C79 1.311 . S
C77 N76 1.355 . S
C77 C78 1.363 . S
C77 H89 0.929 . S
C78 C77 1.363 . S
C78 N80 1.375 . S
C78 H96 0.931 . S
C79 N76 1.311 . S
C79 N80 1.347 . S
C79 H90 0.929 . S
N80 C78 1.375 . S
N80 C79 1.347 . S
C81 C84 1.365 . S
C81 N86 1.328 . S
C81 H87 0.929 . S
C82 C83 1.362 . S
C82 C85 1.378 . S
C82 H97 0.929 . S
C83 C82 1.362 . S
C83 C84 1.366 . S
C84 C81 1.365 . S
C84 C83 1.366 . S
C84 H98 0.930 . S
C85 C82 1.378 . S
C85 N86 1.315 . S
C85 H88 0.930 . S
N86 Co66 2.194 . S
N86 C81 1.328 . S
N86 C85 1.315 . S
H87 C81 0.929 . S
H88 C85 0.930 . S
H89 C77 0.929 . S
H90 C79 0.929 . S
O91 Co66 2.351 . S
O91 C94 1.244 . S
O92 Co66 2.155 . S
O92 C94 1.240 . S
O93 Co66 2.096 . S
O93 C74 1.247 . S
C94 O91 1.244 . S
C94 O92 1.240 . S
H95 C69 0.931 . S
H96 C78 0.931 . S
H97 C82 0.929 . S
H98 C84 0.930 . S
Co99 N103 2.148 . S
Co99 N109 2.128 . S
Co99 N119 2.194 . S
Co99 O124 2.351 . S
Co99 O125 2.155 . S
Co99 O126 2.096 . S
C100 N103 1.301 . S
C100 N104 1.328 . S
C100 H105 0.930 . S
C101 C102 1.333 . S
C101 N103 1.317 . S
C101 H106 0.930 . S
C102 C101 1.333 . S
C102 N104 1.350 . S
C102 H128 0.931 . S
N103 Co99 2.148 . S
N103 C100 1.301 . S
N103 C101 1.317 . S
N104 C100 1.328 . S
N104 C102 1.350 . S
H105 C100 0.930 . S
H106 C101 0.930 . S
C107 O108 1.224 . S
C107 O126 1.247 . S
O108 C107 1.224 . S
N109 Co99 2.128 . S
N109 C110 1.355 . S
N109 C112 1.311 . S
C110 N109 1.355 . S
C110 C111 1.363 . S
C110 H122 0.929 . S
C111 C110 1.363 . S
C111 N113 1.375 . S
C111 H129 0.931 . S
C112 N109 1.311 . S
C112 N113 1.347 . S
C112 H123 0.929 . S
N113 C111 1.375 . S
N113 C112 1.347 . S
C114 C117 1.365 . S
C114 N119 1.328 . S
C114 H120 0.929 . S
C115 C116 1.362 . S
C115 C118 1.378 . S
C115 H130 0.929 . S
C116 C115 1.362 . S
C116 C117 1.366 . S
C117 C114 1.365 . S
C117 C116 1.366 . S
C117 H131 0.930 . S
C118 C115 1.378 . S
C118 N119 1.315 . S
C118 H121 0.930 . S
N119 Co99 2.194 . S
N119 C114 1.328 . S
N119 C118 1.315 . S
H120 C114 0.929 . S
H121 C118 0.930 . S
H122 C110 0.929 . S
H123 C112 0.929 . S
O124 Co99 2.351 . S
O124 C127 1.244 . S
O125 Co99 2.155 . S
O125 C127 1.240 . S
O126 Co99 2.096 . S
O126 C107 1.247 . S
C127 O124 1.244 . S
C127 O125 1.240 . S
H128 C102 0.931 . S
H129 C111 0.931 . S
H130 C115 0.929 . S
H131 C117 0.930 . S
Co132 N136 2.148 . S
Co132 N142 2.128 . S
Co132 N152 2.194 . S
Co132 O157 2.351 . S
Co132 O158 2.155 . S
Co132 O159 2.096 . S
C133 N136 1.301 . S
C133 N137 1.328 . S
C133 H138 0.930 . S
C134 C135 1.333 . S
C134 N136 1.317 . S
C134 H139 0.930 . S
C135 C134 1.333 . S
C135 N137 1.350 . S
C135 H161 0.931 . S
N136 Co132 2.148 . S
N136 C133 1.301 . S
N136 C134 1.317 . S
N137 C133 1.328 . S
N137 C135 1.350 . S
H138 C133 0.930 . S
H139 C134 0.930 . S
C140 O141 1.224 . S
C140 O159 1.247 . S
O141 C140 1.224 . S
N142 Co132 2.128 . S
N142 C143 1.355 . S
N142 C145 1.311 . S
C143 N142 1.355 . S
C143 C144 1.363 . S
C143 H155 0.929 . S
C144 C143 1.363 . S
C144 N146 1.375 . S
C144 H162 0.931 . S
C145 N142 1.311 . S
C145 N146 1.347 . S
C145 H156 0.929 . S
N146 C144 1.375 . S
N146 C145 1.347 . S
C147 C150 1.365 . S
C147 N152 1.328 . S
C147 H153 0.929 . S
C148 C149 1.362 . S
C148 C151 1.378 . S
C148 H163 0.929 . S
C149 C148 1.362 . S
C149 C150 1.366 . S
C150 C147 1.365 . S
C150 C149 1.366 . S
C150 H164 0.930 . S
C151 C148 1.378 . S
C151 N152 1.315 . S
C151 H154 0.930 . S
N152 Co132 2.194 . S
N152 C147 1.328 . S
N152 C151 1.315 . S
H153 C147 0.929 . S
H154 C151 0.930 . S
H155 C143 0.929 . S
H156 C145 0.929 . S
O157 Co132 2.351 . S
O157 C160 1.244 . S
O158 Co132 2.155 . S
O158 C160 1.240 . S
O159 Co132 2.096 . S
O159 C140 1.247 . S
C160 O157 1.244 . S
C160 O158 1.240 . S
H161 C135 0.931 . S
H162 C144 0.931 . S
H163 C148 0.929 . S
H164 C150 0.930 . S
Co165 N169 2.148 . S
Co165 N175 2.128 . S
Co165 N185 2.194 . S
Co165 O190 2.351 . S
Co165 O191 2.155 . S
Co165 O192 2.096 . S
C166 N169 1.301 . S
C166 N170 1.328 . S
C166 H171 0.930 . S
C167 C168 1.333 . S
C167 N169 1.317 . S
C167 H172 0.930 . S
C168 C167 1.333 . S
C168 N170 1.350 . S
C168 H194 0.931 . S
N169 Co165 2.148 . S
N169 C166 1.301 . S
N169 C167 1.317 . S
N170 C166 1.328 . S
N170 C168 1.350 . S
H171 C166 0.930 . S
H172 C167 0.930 . S
C173 O174 1.224 . S
C173 O192 1.247 . S
O174 C173 1.224 . S
N175 Co165 2.128 . S
N175 C176 1.355 . S
N175 C178 1.311 . S
C176 N175 1.355 . S
C176 C177 1.363 . S
C176 H188 0.929 . S
C177 C176 1.363 . S
C177 N179 1.375 . S
C177 H195 0.931 . S
C178 N175 1.311 . S
C178 N179 1.347 . S
C178 H189 0.929 . S
N179 C177 1.375 . S
N179 C178 1.347 . S
C180 C183 1.365 . S
C180 N185 1.328 . S
C180 H186 0.929 . S
C181 C182 1.362 . S
C181 C184 1.378 . S
C181 H196 0.929 . S
C182 C181 1.362 . S
C182 C183 1.366 . S
C183 C180 1.365 . S
C183 C182 1.366 . S
C183 H197 0.930 . S
C184 C181 1.378 . S
C184 N185 1.315 . S
C184 H187 0.930 . S
N185 Co165 2.194 . S
N185 C180 1.328 . S
N185 C184 1.315 . S
H186 C180 0.929 . S
H187 C184 0.930 . S
H188 C176 0.929 . S
H189 C178 0.929 . S
O190 Co165 2.351 . S
O190 C193 1.244 . S
O191 Co165 2.155 . S
O191 C193 1.240 . S
O192 Co165 2.096 . S
O192 C173 1.247 . S
C193 O190 1.244 . S
C193 O191 1.240 . S
H194 C168 0.931 . S
H195 C177 0.931 . S
H196 C181 0.929 . S
H197 C183 0.930 . S
Co198 N202 2.148 . S
Co198 N208 2.128 . S
Co198 N218 2.194 . S
Co198 O223 2.351 . S
Co198 O224 2.155 . S
Co198 O225 2.096 . S
C199 N202 1.301 . S
C199 N203 1.328 . S
C199 H204 0.930 . S
C200 C201 1.333 . S
C200 N202 1.317 . S
C200 H205 0.930 . S
C201 C200 1.333 . S
C201 N203 1.350 . S
C201 H227 0.931 . S
N202 Co198 2.148 . S
N202 C199 1.301 . S
N202 C200 1.317 . S
N203 C199 1.328 . S
N203 C201 1.350 . S
H204 C199 0.930 . S
H205 C200 0.930 . S
C206 O207 1.224 . S
C206 O225 1.247 . S
O207 C206 1.224 . S
N208 Co198 2.128 . S
N208 C209 1.355 . S
N208 C211 1.311 . S
C209 N208 1.355 . S
C209 C210 1.363 . S
C209 H221 0.929 . S
C210 C209 1.363 . S
C210 N212 1.375 . S
C210 H228 0.931 . S
C211 N208 1.311 . S
C211 N212 1.347 . S
C211 H222 0.929 . S
N212 C210 1.375 . S
N212 C211 1.347 . S
C213 C216 1.365 . S
C213 N218 1.328 . S
C213 H219 0.929 . S
C214 C215 1.362 . S
C214 C217 1.378 . S
C214 H229 0.929 . S
C215 C214 1.362 . S
C215 C216 1.366 . S
C216 C213 1.365 . S
C216 C215 1.366 . S
C216 H230 0.930 . S
C217 C214 1.378 . S
C217 N218 1.315 . S
C217 H220 0.930 . S
N218 Co198 2.194 . S
N218 C213 1.328 . S
N218 C217 1.315 . S
H219 C213 0.929 . S
H220 C217 0.930 . S
H221 C209 0.929 . S
H222 C211 0.929 . S
O223 Co198 2.351 . S
O223 C226 1.244 . S
O224 Co198 2.155 . S
O224 C226 1.240 . S
O225 Co198 2.096 . S
O225 C206 1.247 . S
C226 O223 1.244 . S
C226 O224 1.240 . S
H227 C201 0.931 . S
H228 C210 0.931 . S
H229 C214 0.929 . S
H230 C216 0.930 . S
Co231 N235 2.148 . S
Co231 N241 2.128 . S
Co231 N251 2.194 . S
Co231 O256 2.351 . S
Co231 O257 2.155 . S
Co231 O258 2.096 . S
C232 N235 1.301 . S
C232 N236 1.328 . S
C232 H237 0.930 . S
C233 C234 1.333 . S
C233 N235 1.317 . S
C233 H238 0.930 . S
C234 C233 1.333 . S
C234 N236 1.350 . S
C234 H260 0.931 . S
N235 Co231 2.148 . S
N235 C232 1.301 . S
N235 C233 1.317 . S
N236 C232 1.328 . S
N236 C234 1.350 . S
H237 C232 0.930 . S
H238 C233 0.930 . S
C239 O240 1.224 . S
C239 O258 1.247 . S
O240 C239 1.224 . S
N241 Co231 2.128 . S
N241 C242 1.355 . S
N241 C244 1.311 . S
C242 N241 1.355 . S
C242 C243 1.363 . S
C242 H254 0.929 . S
C243 C242 1.363 . S
C243 N245 1.375 . S
C243 H261 0.931 . S
C244 N241 1.311 . S
C244 N245 1.347 . S
C244 H255 0.929 . S
N245 C243 1.375 . S
N245 C244 1.347 . S
C246 C249 1.365 . S
C246 N251 1.328 . S
C246 H252 0.929 . S
C247 C248 1.362 . S
C247 C250 1.378 . S
C247 H262 0.929 . S
C248 C247 1.362 . S
C248 C249 1.366 . S
C249 C246 1.365 . S
C249 C248 1.366 . S
C249 H263 0.930 . S
C250 C247 1.378 . S
C250 N251 1.315 . S
C250 H253 0.930 . S
N251 Co231 2.194 . S
N251 C246 1.328 . S
N251 C250 1.315 . S
H252 C246 0.929 . S
H253 C250 0.930 . S
H254 C242 0.929 . S
H255 C244 0.929 . S
O256 Co231 2.351 . S
O256 C259 1.244 . S
O257 Co231 2.155 . S
O257 C259 1.240 . S
O258 Co231 2.096 . S
O258 C239 1.247 . S
C259 O256 1.244 . S
C259 O257 1.240 . S
H260 C234 0.931 . S
H261 C243 0.931 . S
H262 C247 0.929 . S
H263 C249 0.930 . S
Co264 N268 2.148 . S
Co264 N274 2.128 . S
Co264 N284 2.194 . S
Co264 O289 2.351 . S
Co264 O290 2.155 . S
Co264 O291 2.096 . S
C265 N268 1.301 . S
C265 N269 1.328 . S
C265 H270 0.930 . S
C266 C267 1.333 . S
C266 N268 1.317 . S
C266 H271 0.930 . S
C267 C266 1.333 . S
C267 N269 1.350 . S
C267 H293 0.931 . S
N268 Co264 2.148 . S
N268 C265 1.301 . S
N268 C266 1.317 . S
N269 C265 1.328 . S
N269 C267 1.350 . S
H270 C265 0.930 . S
H271 C266 0.930 . S
C272 O273 1.224 . S
C272 O291 1.247 . S
O273 C272 1.224 . S
N274 Co264 2.128 . S
N274 C275 1.355 . S
N274 C277 1.311 . S
C275 N274 1.355 . S
C275 C276 1.363 . S
C275 H287 0.929 . S
C276 C275 1.363 . S
C276 N278 1.375 . S
C276 H294 0.931 . S
C277 N274 1.311 . S
C277 N278 1.347 . S
C277 H288 0.929 . S
N278 C276 1.375 . S
N278 C277 1.347 . S
C279 C282 1.365 . S
C279 N284 1.328 . S
C279 H285 0.929 . S
C280 C281 1.362 . S
C280 C283 1.378 . S
C280 H295 0.929 . S
C281 C280 1.362 . S
C281 C282 1.366 . S
C282 C279 1.365 . S
C282 C281 1.366 . S
C282 H296 0.930 . S
C283 C280 1.378 . S
C283 N284 1.315 . S
C283 H286 0.930 . S
N284 Co264 2.194 . S
N284 C279 1.328 . S
N284 C283 1.315 . S
H285 C279 0.929 . S
H286 C283 0.930 . S
H287 C275 0.929 . S
H288 C277 0.929 . S
O289 Co264 2.351 . S
O289 C292 1.244 . S
O290 Co264 2.155 . S
O290 C292 1.240 . S
O291 Co264 2.096 . S
O291 C272 1.247 . S
C292 O289 1.244 . S
C292 O290 1.240 . S
H293 C267 0.931 . S
H294 C276 0.931 . S
H295 C280 0.929 . S
H296 C282 0.930 . S
Co297 N301 2.148 . S
Co297 N307 2.128 . S
Co297 N317 2.194 . S
Co297 O322 2.351 . S
Co297 O323 2.155 . S
Co297 O324 2.096 . S
C298 N301 1.301 . S
C298 N302 1.328 . S
C298 H303 0.930 . S
C299 C300 1.333 . S
C299 N301 1.317 . S
C299 H304 0.930 . S
C300 C299 1.333 . S
C300 N302 1.350 . S
C300 H326 0.931 . S
N301 Co297 2.148 . S
N301 C298 1.301 . S
N301 C299 1.317 . S
N302 C298 1.328 . S
N302 C300 1.350 . S
H303 C298 0.930 . S
H304 C299 0.930 . S
C305 O306 1.224 . S
C305 O324 1.247 . S
O306 C305 1.224 . S
N307 Co297 2.128 . S
N307 C308 1.355 . S
N307 C310 1.311 . S
C308 N307 1.355 . S
C308 C309 1.363 . S
C308 H320 0.929 . S
C309 C308 1.363 . S
C309 N311 1.375 . S
C309 H327 0.931 . S
C310 N307 1.311 . S
C310 N311 1.347 . S
C310 H321 0.929 . S
N311 C309 1.375 . S
N311 C310 1.347 . S
C312 C315 1.365 . S
C312 N317 1.328 . S
C312 H318 0.929 . S
C313 C314 1.362 . S
C313 C316 1.378 . S
C313 H328 0.929 . S
C314 C313 1.362 . S
C314 C315 1.366 . S
C315 C312 1.365 . S
C315 C314 1.366 . S
C315 H329 0.930 . S
C316 C313 1.378 . S
C316 N317 1.315 . S
C316 H319 0.930 . S
N317 Co297 2.194 . S
N317 C312 1.328 . S
N317 C316 1.315 . S
H318 C312 0.929 . S
H319 C316 0.930 . S
H320 C308 0.929 . S
H321 C310 0.929 . S
O322 Co297 2.351 . S
O322 C325 1.244 . S
O323 Co297 2.155 . S
O323 C325 1.240 . S
O324 Co297 2.096 . S
O324 C305 1.247 . S
C325 O322 1.244 . S
C325 O323 1.240 . S
H326 C300 0.931 . S
H327 C309 0.931 . S
H328 C313 0.929 . S
H329 C315 0.930 . S
Co330 N334 2.148 . S
Co330 N340 2.128 . S
Co330 N350 2.194 . S
Co330 O355 2.351 . S
Co330 O356 2.155 . S
Co330 O357 2.096 . S
C331 N334 1.301 . S
C331 N335 1.328 . S
C331 H336 0.930 . S
C332 C333 1.333 . S
C332 N334 1.317 . S
C332 H337 0.930 . S
C333 C332 1.333 . S
C333 N335 1.350 . S
C333 H359 0.931 . S
N334 Co330 2.148 . S
N334 C331 1.301 . S
N334 C332 1.317 . S
N335 C331 1.328 . S
N335 C333 1.350 . S
H336 C331 0.930 . S
H337 C332 0.930 . S
C338 O339 1.224 . S
C338 O357 1.247 . S
O339 C338 1.224 . S
N340 Co330 2.128 . S
N340 C341 1.355 . S
N340 C343 1.311 . S
C341 N340 1.355 . S
C341 C342 1.363 . S
C341 H353 0.929 . S
C342 C341 1.363 . S
C342 N344 1.375 . S
C342 H360 0.931 . S
C343 N340 1.311 . S
C343 N344 1.347 . S
C343 H354 0.929 . S
N344 C342 1.375 . S
N344 C343 1.347 . S
C345 C348 1.365 . S
C345 N350 1.328 . S
C345 H351 0.929 . S
C346 C347 1.362 . S
C346 C349 1.378 . S
C346 H361 0.929 . S
C347 C346 1.362 . S
C347 C348 1.366 . S
C348 C345 1.365 . S
C348 C347 1.366 . S
C348 H362 0.930 . S
C349 C346 1.378 . S
C349 N350 1.315 . S
C349 H352 0.930 . S
N350 Co330 2.194 . S
N350 C345 1.328 . S
N350 C349 1.315 . S
H351 C345 0.929 . S
H352 C349 0.930 . S
H353 C341 0.929 . S
H354 C343 0.929 . S
O355 Co330 2.351 . S
O355 C358 1.244 . S
O356 Co330 2.155 . S
O356 C358 1.240 . S
O357 Co330 2.096 . S
O357 C338 1.247 . S
C358 O355 1.244 . S
C358 O356 1.240 . S
H359 C333 0.931 . S
H360 C342 0.931 . S
H361 C346 0.929 . S
H362 C348 0.930 . S
Co363 N367 2.148 . S
Co363 N373 2.128 . S
Co363 N383 2.194 . S
Co363 O388 2.351 . S
Co363 O389 2.155 . S
Co363 O390 2.096 . S
C364 N367 1.301 . S
C364 N368 1.328 . S
C364 H369 0.930 . S
C365 C366 1.333 . S
C365 N367 1.317 . S
C365 H370 0.930 . S
C366 C365 1.333 . S
C366 N368 1.350 . S
C366 H392 0.931 . S
N367 Co363 2.148 . S
N367 C364 1.301 . S
N367 C365 1.317 . S
N368 C364 1.328 . S
N368 C366 1.350 . S
H369 C364 0.930 . S
H370 C365 0.930 . S
C371 O372 1.224 . S
C371 O390 1.247 . S
O372 C371 1.224 . S
N373 Co363 2.128 . S
N373 C374 1.355 . S
N373 C376 1.311 . S
C374 N373 1.355 . S
C374 C375 1.363 . S
C374 H386 0.929 . S
C375 C374 1.363 . S
C375 N377 1.375 . S
C375 H393 0.931 . S
C376 N373 1.311 . S
C376 N377 1.347 . S
C376 H387 0.929 . S
N377 C375 1.375 . S
N377 C376 1.347 . S
C378 C381 1.365 . S
C378 N383 1.328 . S
C378 H384 0.929 . S
C379 C380 1.362 . S
C379 C382 1.378 . S
C379 H394 0.929 . S
C380 C379 1.362 . S
C380 C381 1.366 . S
C381 C378 1.365 . S
C381 C380 1.366 . S
C381 H395 0.930 . S
C382 C379 1.378 . S
C382 N383 1.315 . S
C382 H385 0.930 . S
N383 Co363 2.194 . S
N383 C378 1.328 . S
N383 C382 1.315 . S
H384 C378 0.929 . S
H385 C382 0.930 . S
H386 C374 0.929 . S
H387 C376 0.929 . S
O388 Co363 2.351 . S
O388 C391 1.244 . S
O389 Co363 2.155 . S
O389 C391 1.240 . S
O390 Co363 2.096 . S
O390 C371 1.247 . S
C391 O388 1.244 . S
C391 O389 1.240 . S
H392 C366 0.931 . S
H393 C375 0.931 . S
H394 C379 0.929 . S
H395 C381 0.930 . S
Co396 N400 2.148 . S
Co396 N406 2.128 . S
Co396 N416 2.194 . S
Co396 O421 2.351 . S
Co396 O422 2.155 . S
Co396 O423 2.096 . S
C397 N400 1.301 . S
C397 N401 1.328 . S
C397 H402 0.930 . S
C398 C399 1.333 . S
C398 N400 1.317 . S
C398 H403 0.930 . S
C399 C398 1.333 . S
C399 N401 1.350 . S
C399 H425 0.931 . S
N400 Co396 2.148 . S
N400 C397 1.301 . S
N400 C398 1.317 . S
N401 C397 1.328 . S
N401 C399 1.350 . S
H402 C397 0.930 . S
H403 C398 0.930 . S
C404 O405 1.224 . S
C404 O423 1.247 . S
O405 C404 1.224 . S
N406 Co396 2.128 . S
N406 C407 1.355 . S
N406 C409 1.311 . S
C407 N406 1.355 . S
C407 C408 1.363 . S
C407 H419 0.929 . S
C408 C407 1.363 . S
C408 N410 1.375 . S
C408 H426 0.931 . S
C409 N406 1.311 . S
C409 N410 1.347 . S
C409 H420 0.929 . S
N410 C408 1.375 . S
N410 C409 1.347 . S
C411 C414 1.365 . S
C411 N416 1.328 . S
C411 H417 0.929 . S
C412 C413 1.362 . S
C412 C415 1.378 . S
C412 H427 0.929 . S
C413 C412 1.362 . S
C413 C414 1.366 . S
C414 C411 1.365 . S
C414 C413 1.366 . S
C414 H428 0.930 . S
C415 C412 1.378 . S
C415 N416 1.315 . S
C415 H418 0.930 . S
N416 Co396 2.194 . S
N416 C411 1.328 . S
N416 C415 1.315 . S
H417 C411 0.929 . S
H418 C415 0.930 . S
H419 C407 0.929 . S
H420 C409 0.929 . S
O421 Co396 2.351 . S
O421 C424 1.244 . S
O422 Co396 2.155 . S
O422 C424 1.240 . S
O423 Co396 2.096 . S
O423 C404 1.247 . S
C424 O421 1.244 . S
C424 O422 1.240 . S
H425 C399 0.931 . S
H426 C408 0.931 . S
H427 C412 0.929 . S
H428 C414 0.930 . S
Co429 N433 2.148 . S
Co429 N439 2.128 . S
Co429 N449 2.194 . S
Co429 O454 2.351 . S
Co429 O455 2.155 . S
Co429 O456 2.096 . S
C430 N433 1.301 . S
C430 N434 1.328 . S
C430 H435 0.930 . S
C431 C432 1.333 . S
C431 N433 1.317 . S
C431 H436 0.930 . S
C432 C431 1.333 . S
C432 N434 1.350 . S
C432 H458 0.931 . S
N433 Co429 2.148 . S
N433 C430 1.301 . S
N433 C431 1.317 . S
N434 C430 1.328 . S
N434 C432 1.350 . S
H435 C430 0.930 . S
H436 C431 0.930 . S
C437 O438 1.224 . S
C437 O456 1.247 . S
O438 C437 1.224 . S
N439 Co429 2.128 . S
N439 C440 1.355 . S
N439 C442 1.311 . S
C440 N439 1.355 . S
C440 C441 1.363 . S
C440 H452 0.929 . S
C441 C440 1.363 . S
C441 N443 1.375 . S
C441 H459 0.931 . S
C442 N439 1.311 . S
C442 N443 1.347 . S
C442 H453 0.929 . S
N443 C441 1.375 . S
N443 C442 1.347 . S
C444 C447 1.365 . S
C444 N449 1.328 . S
C444 H450 0.929 . S
C445 C446 1.362 . S
C445 C448 1.378 . S
C445 H460 0.929 . S
C446 C445 1.362 . S
C446 C447 1.366 . S
C447 C444 1.365 . S
C447 C446 1.366 . S
C447 H461 0.930 . S
C448 C445 1.378 . S
C448 N449 1.315 . S
C448 H451 0.930 . S
N449 Co429 2.194 . S
N449 C444 1.328 . S
N449 C448 1.315 . S
H450 C444 0.929 . S
H451 C448 0.930 . S
H452 C440 0.929 . S
H453 C442 0.929 . S
O454 Co429 2.351 . S
O454 C457 1.244 . S
O455 Co429 2.155 . S
O455 C457 1.240 . S
O456 Co429 2.096 . S
O456 C437 1.247 . S
C457 O454 1.244 . S
C457 O455 1.240 . S
H458 C432 0.931 . S
H459 C441 0.931 . S
H460 C445 0.929 . S
H461 C447 0.930 . S
Co462 N466 2.148 . S
Co462 N472 2.128 . S
Co462 N482 2.194 . S
Co462 O487 2.351 . S
Co462 O488 2.155 . S
Co462 O489 2.096 . S
C463 N466 1.301 . S
C463 N467 1.328 . S
C463 H468 0.930 . S
C464 C465 1.333 . S
C464 N466 1.317 . S
C464 H469 0.930 . S
C465 C464 1.333 . S
C465 N467 1.350 . S
C465 H491 0.931 . S
N466 Co462 2.148 . S
N466 C463 1.301 . S
N466 C464 1.317 . S
N467 C463 1.328 . S
N467 C465 1.350 . S
H468 C463 0.930 . S
H469 C464 0.930 . S
C470 O471 1.224 . S
C470 O489 1.247 . S
O471 C470 1.224 . S
N472 Co462 2.128 . S
N472 C473 1.355 . S
N472 C475 1.311 . S
C473 N472 1.355 . S
C473 C474 1.363 . S
C473 H485 0.929 . S
C474 C473 1.363 . S
C474 N476 1.375 . S
C474 H492 0.931 . S
C475 N472 1.311 . S
C475 N476 1.347 . S
C475 H486 0.929 . S
N476 C474 1.375 . S
N476 C475 1.347 . S
C477 C480 1.365 . S
C477 N482 1.328 . S
C477 H483 0.929 . S
C478 C479 1.362 . S
C478 C481 1.378 . S
C478 H493 0.929 . S
C479 C478 1.362 . S
C479 C480 1.366 . S
C480 C477 1.365 . S
C480 C479 1.366 . S
C480 H494 0.930 . S
C481 C478 1.378 . S
C481 N482 1.315 . S
C481 H484 0.930 . S
N482 Co462 2.194 . S
N482 C477 1.328 . S
N482 C481 1.315 . S
H483 C477 0.929 . S
H484 C481 0.930 . S
H485 C473 0.929 . S
H486 C475 0.929 . S
O487 Co462 2.351 . S
O487 C490 1.244 . S
O488 Co462 2.155 . S
O488 C490 1.240 . S
O489 Co462 2.096 . S
O489 C470 1.247 . S
C490 O487 1.244 . S
C490 O488 1.240 . S
H491 C465 0.931 . S
H492 C474 0.931 . S
H493 C478 0.929 . S
H494 C480 0.930 . S
Co495 N499 2.148 . S
Co495 N505 2.128 . S
Co495 N515 2.194 . S
Co495 O520 2.351 . S
Co495 O521 2.155 . S
Co495 O522 2.096 . S
C496 N499 1.301 . S
C496 N500 1.328 . S
C496 H501 0.930 . S
C497 C498 1.333 . S
C497 N499 1.317 . S
C497 H502 0.930 . S
C498 C497 1.333 . S
C498 N500 1.350 . S
C498 H524 0.931 . S
N499 Co495 2.148 . S
N499 C496 1.301 . S
N499 C497 1.317 . S
N500 C496 1.328 . S
N500 C498 1.350 . S
H501 C496 0.930 . S
H502 C497 0.930 . S
C503 O504 1.224 . S
C503 O522 1.247 . S
O504 C503 1.224 . S
N505 Co495 2.128 . S
N505 C506 1.355 . S
N505 C508 1.311 . S
C506 N505 1.355 . S
C506 C507 1.363 . S
C506 H518 0.929 . S
C507 C506 1.363 . S
C507 N509 1.375 . S
C507 H525 0.931 . S
C508 N505 1.311 . S
C508 N509 1.347 . S
C508 H519 0.929 . S
N509 C507 1.375 . S
N509 C508 1.347 . S
C510 C513 1.365 . S
C510 N515 1.328 . S
C510 H516 0.929 . S
C511 C512 1.362 . S
C511 C514 1.378 . S
C511 H526 0.929 . S
C512 C511 1.362 . S
C512 C513 1.366 . S
C513 C510 1.365 . S
C513 C512 1.366 . S
C513 H527 0.930 . S
C514 C511 1.378 . S
C514 N515 1.315 . S
C514 H517 0.930 . S
N515 Co495 2.194 . S
N515 C510 1.328 . S
N515 C514 1.315 . S
H516 C510 0.929 . S
H517 C514 0.930 . S
H518 C506 0.929 . S
H519 C508 0.929 . S
O520 Co495 2.351 . S
O520 C523 1.244 . S
O521 Co495 2.155 . S
O521 C523 1.240 . S
O522 Co495 2.096 . S
O522 C503 1.247 . S
C523 O520 1.244 . S
C523 O521 1.240 . S
H524 C498 0.931 . S
H525 C507 0.931 . S
H526 C511 0.929 . S
H527 C513 0.930 . S
Co528 N532 2.148 . S
Co528 N538 2.128 . S
Co528 N548 2.194 . S
Co528 O553 2.351 . S
Co528 O554 2.155 . S
Co528 O555 2.096 . S
C529 N532 1.301 . S
C529 N533 1.328 . S
C529 H534 0.930 . S
C530 C531 1.333 . S
C530 N532 1.317 . S
C530 H535 0.930 . S
C531 C530 1.333 . S
C531 N533 1.350 . S
C531 H557 0.931 . S
N532 Co528 2.148 . S
N532 C529 1.301 . S
N532 C530 1.317 . S
N533 C529 1.328 . S
N533 C531 1.350 . S
H534 C529 0.930 . S
H535 C530 0.930 . S
C536 O537 1.224 . S
C536 O555 1.247 . S
O537 C536 1.224 . S
N538 Co528 2.128 . S
N538 C539 1.355 . S
N538 C541 1.311 . S
C539 N538 1.355 . S
C539 C540 1.363 . S
C539 H551 0.929 . S
C540 C539 1.363 . S
C540 N542 1.375 . S
C540 H558 0.931 . S
C541 N538 1.311 . S
C541 N542 1.347 . S
C541 H552 0.929 . S
N542 C540 1.375 . S
N542 C541 1.347 . S
C543 C546 1.365 . S
C543 N548 1.328 . S
C543 H549 0.929 . S
C544 C545 1.362 . S
C544 C547 1.378 . S
C544 H559 0.929 . S
C545 C544 1.362 . S
C545 C546 1.366 . S
C546 C543 1.365 . S
C546 C545 1.366 . S
C546 H560 0.930 . S
C547 C544 1.378 . S
C547 N548 1.315 . S
C547 H550 0.930 . S
N548 Co528 2.194 . S
N548 C543 1.328 . S
N548 C547 1.315 . S
H549 C543 0.929 . S
H550 C547 0.930 . S
H551 C539 0.929 . S
H552 C541 0.929 . S
O553 Co528 2.351 . S
O553 C556 1.244 . S
O554 Co528 2.155 . S
O554 C556 1.240 . S
O555 Co528 2.096 . S
O555 C536 1.247 . S
C556 O553 1.244 . S
C556 O554 1.240 . S
H557 C531 0.931 . S
H558 C540 0.931 . S
H559 C544 0.929 . S
H560 C546 0.930 . S
Co561 N565 2.148 . S
Co561 N571 2.128 . S
Co561 N581 2.194 . S
Co561 O586 2.351 . S
Co561 O587 2.155 . S
Co561 O588 2.096 . S
C562 N565 1.301 . S
C562 N566 1.328 . S
C562 H567 0.930 . S
C563 C564 1.333 . S
C563 N565 1.317 . S
C563 H568 0.930 . S
C564 C563 1.333 . S
C564 N566 1.350 . S
C564 H590 0.931 . S
N565 Co561 2.148 . S
N565 C562 1.301 . S
N565 C563 1.317 . S
N566 C562 1.328 . S
N566 C564 1.350 . S
H567 C562 0.930 . S
H568 C563 0.930 . S
C569 O570 1.224 . S
C569 O588 1.247 . S
O570 C569 1.224 . S
N571 Co561 2.128 . S
N571 C572 1.355 . S
N571 C574 1.311 . S
C572 N571 1.355 . S
C572 C573 1.363 . S
C572 H584 0.929 . S
C573 C572 1.363 . S
C573 N575 1.375 . S
C573 H591 0.931 . S
C574 N571 1.311 . S
C574 N575 1.347 . S
C574 H585 0.929 . S
N575 C573 1.375 . S
N575 C574 1.347 . S
C576 C579 1.365 . S
C576 N581 1.328 . S
C576 H582 0.929 . S
C577 C578 1.362 . S
C577 C580 1.378 . S
C577 H592 0.929 . S
C578 C577 1.362 . S
C578 C579 1.366 . S
C579 C576 1.365 . S
C579 C578 1.366 . S
C579 H593 0.930 . S
C580 C577 1.378 . S
C580 N581 1.315 . S
C580 H583 0.930 . S
N581 Co561 2.194 . S
N581 C576 1.328 . S
N581 C580 1.315 . S
H582 C576 0.929 . S
H583 C580 0.930 . S
H584 C572 0.929 . S
H585 C574 0.929 . S
O586 Co561 2.351 . S
O586 C589 1.244 . S
O587 Co561 2.155 . S
O587 C589 1.240 . S
O588 Co561 2.096 . S
O588 C569 1.247 . S
C589 O586 1.244 . S
C589 O587 1.240 . S
H590 C564 0.931 . S
H591 C573 0.931 . S
H592 C577 0.929 . S
H593 C579 0.930 . S
Co594 N598 2.148 . S
Co594 N604 2.128 . S
Co594 N614 2.194 . S
Co594 O619 2.351 . S
Co594 O620 2.155 . S
Co594 O621 2.096 . S
C595 N598 1.301 . S
C595 N599 1.328 . S
C595 H600 0.930 . S
C596 C597 1.333 . S
C596 N598 1.317 . S
C596 H601 0.930 . S
C597 C596 1.333 . S
C597 N599 1.350 . S
C597 H623 0.931 . S
N598 Co594 2.148 . S
N598 C595 1.301 . S
N598 C596 1.317 . S
N599 C595 1.328 . S
N599 C597 1.350 . S
H600 C595 0.930 . S
H601 C596 0.930 . S
C602 O603 1.224 . S
C602 O621 1.247 . S
O603 C602 1.224 . S
N604 Co594 2.128 . S
N604 C605 1.355 . S
N604 C607 1.311 . S
C605 N604 1.355 . S
C605 C606 1.363 . S
C605 H617 0.929 . S
C606 C605 1.363 . S
C606 N608 1.375 . S
C606 H624 0.931 . S
C607 N604 1.311 . S
C607 N608 1.347 . S
C607 H618 0.929 . S
N608 C606 1.375 . S
N608 C607 1.347 . S
C609 C612 1.365 . S
C609 N614 1.328 . S
C609 H615 0.929 . S
C610 C611 1.362 . S
C610 C613 1.378 . S
C610 H625 0.929 . S
C611 C610 1.362 . S
C611 C612 1.366 . S
C612 C609 1.365 . S
C612 C611 1.366 . S
C612 H626 0.930 . S
C613 C610 1.378 . S
C613 N614 1.315 . S
C613 H616 0.930 . S
N614 Co594 2.194 . S
N614 C609 1.328 . S
N614 C613 1.315 . S
H615 C609 0.929 . S
H616 C613 0.930 . S
H617 C605 0.929 . S
H618 C607 0.929 . S
O619 Co594 2.351 . S
O619 C622 1.244 . S
O620 Co594 2.155 . S
O620 C622 1.240 . S
O621 Co594 2.096 . S
O621 C602 1.247 . S
C622 O619 1.244 . S
C622 O620 1.240 . S
H623 C597 0.931 . S
H624 C606 0.931 . S
H625 C610 0.929 . S
H626 C612 0.930 . S
Co627 N631 2.148 . S
Co627 N637 2.128 . S
Co627 N647 2.194 . S
Co627 O652 2.351 . S
Co627 O653 2.155 . S
Co627 O654 2.096 . S
C628 N631 1.301 . S
C628 N632 1.328 . S
C628 H633 0.930 . S
C629 C630 1.333 . S
C629 N631 1.317 . S
C629 H634 0.930 . S
C630 C629 1.333 . S
C630 N632 1.350 . S
C630 H656 0.931 . S
N631 Co627 2.148 . S
N631 C628 1.301 . S
N631 C629 1.317 . S
N632 C628 1.328 . S
N632 C630 1.350 . S
H633 C628 0.930 . S
H634 C629 0.930 . S
C635 O636 1.224 . S
C635 O654 1.247 . S
O636 C635 1.224 . S
N637 Co627 2.128 . S
N637 C638 1.355 . S
N637 C640 1.311 . S
C638 N637 1.355 . S
C638 C639 1.363 . S
C638 H650 0.929 . S
C639 C638 1.363 . S
C639 N641 1.375 . S
C639 H657 0.931 . S
C640 N637 1.311 . S
C640 N641 1.347 . S
C640 H651 0.929 . S
N641 C639 1.375 . S
N641 C640 1.347 . S
C642 C645 1.365 . S
C642 N647 1.328 . S
C642 H648 0.929 . S
C643 C644 1.362 . S
C643 C646 1.378 . S
C643 H658 0.929 . S
C644 C643 1.362 . S
C644 C645 1.366 . S
C645 C642 1.365 . S
C645 C644 1.366 . S
C645 H659 0.930 . S
C646 C643 1.378 . S
C646 N647 1.315 . S
C646 H649 0.930 . S
N647 Co627 2.194 . S
N647 C642 1.328 . S
N647 C646 1.315 . S
H648 C642 0.929 . S
H649 C646 0.930 . S
H650 C638 0.929 . S
H651 C640 0.929 . S
O652 Co627 2.351 . S
O652 C655 1.244 . S
O653 Co627 2.155 . S
O653 C655 1.240 . S
O654 Co627 2.096 . S
O654 C635 1.247 . S
C655 O652 1.244 . S
C655 O653 1.240 . S
H656 C630 0.931 . S
H657 C639 0.931 . S
H658 C643 0.929 . S
H659 C645 0.930 . S
Co660 N664 2.148 . S
Co660 N670 2.128 . S
Co660 N680 2.194 . S
Co660 O685 2.351 . S
Co660 O686 2.155 . S
Co660 O687 2.096 . S
C661 N664 1.301 . S
C661 N665 1.328 . S
C661 H666 0.930 . S
C662 C663 1.333 . S
C662 N664 1.317 . S
C662 H667 0.930 . S
C663 C662 1.333 . S
C663 N665 1.350 . S
C663 H689 0.931 . S
N664 Co660 2.148 . S
N664 C661 1.301 . S
N664 C662 1.317 . S
N665 C661 1.328 . S
N665 C663 1.350 . S
H666 C661 0.930 . S
H667 C662 0.930 . S
C668 O669 1.224 . S
C668 O687 1.247 . S
O669 C668 1.224 . S
N670 Co660 2.128 . S
N670 C671 1.355 . S
N670 C673 1.311 . S
C671 N670 1.355 . S
C671 C672 1.363 . S
C671 H683 0.929 . S
C672 C671 1.363 . S
C672 N674 1.375 . S
C672 H690 0.931 . S
C673 N670 1.311 . S
C673 N674 1.347 . S
C673 H684 0.929 . S
N674 C672 1.375 . S
N674 C673 1.347 . S
C675 C678 1.365 . S
C675 N680 1.328 . S
C675 H681 0.929 . S
C676 C677 1.362 . S
C676 C679 1.378 . S
C676 H691 0.929 . S
C677 C676 1.362 . S
C677 C678 1.366 . S
C678 C675 1.365 . S
C678 C677 1.366 . S
C678 H692 0.930 . S
C679 C676 1.378 . S
C679 N680 1.315 . S
C679 H682 0.930 . S
N680 Co660 2.194 . S
N680 C675 1.328 . S
N680 C679 1.315 . S
H681 C675 0.929 . S
H682 C679 0.930 . S
H683 C671 0.929 . S
H684 C673 0.929 . S
O685 Co660 2.351 . S
O685 C688 1.244 . S
O686 Co660 2.155 . S
O686 C688 1.240 . S
O687 Co660 2.096 . S
O687 C668 1.247 . S
C688 O685 1.244 . S
C688 O686 1.240 . S
H689 C663 0.931 . S
H690 C672 0.931 . S
H691 C676 0.929 . S
H692 C678 0.930 . S
Co693 N697 2.148 . S
Co693 N703 2.128 . S
Co693 N713 2.194 . S
Co693 O718 2.351 . S
Co693 O719 2.155 . S
Co693 O720 2.096 . S
C694 N697 1.301 . S
C694 N698 1.328 . S
C694 H699 0.930 . S
C695 C696 1.333 . S
C695 N697 1.317 . S
C695 H700 0.930 . S
C696 C695 1.333 . S
C696 N698 1.350 . S
C696 H722 0.931 . S
N697 Co693 2.148 . S
N697 C694 1.301 . S
N697 C695 1.317 . S
N698 C694 1.328 . S
N698 C696 1.350 . S
H699 C694 0.930 . S
H700 C695 0.930 . S
C701 O702 1.224 . S
C701 O720 1.247 . S
O702 C701 1.224 . S
N703 Co693 2.128 . S
N703 C704 1.355 . S
N703 C706 1.311 . S
C704 N703 1.355 . S
C704 C705 1.363 . S
C704 H716 0.929 . S
C705 C704 1.363 . S
C705 N707 1.375 . S
C705 H723 0.931 . S
C706 N703 1.311 . S
C706 N707 1.347 . S
C706 H717 0.929 . S
N707 C705 1.375 . S
N707 C706 1.347 . S
C708 C711 1.365 . S
C708 N713 1.328 . S
C708 H714 0.929 . S
C709 C710 1.362 . S
C709 C712 1.378 . S
C709 H724 0.929 . S
C710 C709 1.362 . S
C710 C711 1.366 . S
C711 C708 1.365 . S
C711 C710 1.366 . S
C711 H725 0.930 . S
C712 C709 1.378 . S
C712 N713 1.315 . S
C712 H715 0.930 . S
N713 Co693 2.194 . S
N713 C708 1.328 . S
N713 C712 1.315 . S
H714 C708 0.929 . S
H715 C712 0.930 . S
H716 C704 0.929 . S
H717 C706 0.929 . S
O718 Co693 2.351 . S
O718 C721 1.244 . S
O719 Co693 2.155 . S
O719 C721 1.240 . S
O720 Co693 2.096 . S
O720 C701 1.247 . S
C721 O718 1.244 . S
C721 O719 1.240 . S
H722 C696 0.931 . S
H723 C705 0.931 . S
H724 C709 0.929 . S
H725 C711 0.930 . S
Co726 N730 2.148 . S
Co726 N736 2.128 . S
Co726 N746 2.194 . S
Co726 O751 2.351 . S
Co726 O752 2.155 . S
Co726 O753 2.096 . S
C727 N730 1.301 . S
C727 N731 1.328 . S
C727 H732 0.930 . S
C728 C729 1.333 . S
C728 N730 1.317 . S
C728 H733 0.930 . S
C729 C728 1.333 . S
C729 N731 1.350 . S
C729 H755 0.931 . S
N730 Co726 2.148 . S
N730 C727 1.301 . S
N730 C728 1.317 . S
N731 C727 1.328 . S
N731 C729 1.350 . S
H732 C727 0.930 . S
H733 C728 0.930 . S
C734 O735 1.224 . S
C734 O753 1.247 . S
O735 C734 1.224 . S
N736 Co726 2.128 . S
N736 C737 1.355 . S
N736 C739 1.311 . S
C737 N736 1.355 . S
C737 C738 1.363 . S
C737 H749 0.929 . S
C738 C737 1.363 . S
C738 N740 1.375 . S
C738 H756 0.931 . S
C739 N736 1.311 . S
C739 N740 1.347 . S
C739 H750 0.929 . S
N740 C738 1.375 . S
N740 C739 1.347 . S
C741 C744 1.365 . S
C741 N746 1.328 . S
C741 H747 0.929 . S
C742 C743 1.362 . S
C742 C745 1.378 . S
C742 H757 0.929 . S
C743 C742 1.362 . S
C743 C744 1.366 . S
C744 C741 1.365 . S
C744 C743 1.366 . S
C744 H758 0.930 . S
C745 C742 1.378 . S
C745 N746 1.315 . S
C745 H748 0.930 . S
N746 Co726 2.194 . S
N746 C741 1.328 . S
N746 C745 1.315 . S
H747 C741 0.929 . S
H748 C745 0.930 . S
H749 C737 0.929 . S
H750 C739 0.929 . S
O751 Co726 2.351 . S
O751 C754 1.244 . S
O752 Co726 2.155 . S
O752 C754 1.240 . S
O753 Co726 2.096 . S
O753 C734 1.247 . S
C754 O751 1.244 . S
C754 O752 1.240 . S
H755 C729 0.931 . S
H756 C738 0.931 . S
H757 C742 0.929 . S
H758 C744 0.930 . S
Co759 N763 2.148 . S
Co759 N769 2.128 . S
Co759 N779 2.194 . S
Co759 O784 2.351 . S
Co759 O785 2.155 . S
Co759 O786 2.096 . S
C760 N763 1.301 . S
C760 N764 1.328 . S
C760 H765 0.930 . S
C761 C762 1.333 . S
C761 N763 1.317 . S
C761 H766 0.930 . S
C762 C761 1.333 . S
C762 N764 1.350 . S
C762 H788 0.931 . S
N763 Co759 2.148 . S
N763 C760 1.301 . S
N763 C761 1.317 . S
N764 C760 1.328 . S
N764 C762 1.350 . S
H765 C760 0.930 . S
H766 C761 0.930 . S
C767 O768 1.224 . S
C767 O786 1.247 . S
O768 C767 1.224 . S
N769 Co759 2.128 . S
N769 C770 1.355 . S
N769 C772 1.311 . S
C770 N769 1.355 . S
C770 C771 1.363 . S
C770 H782 0.929 . S
C771 C770 1.363 . S
C771 N773 1.375 . S
C771 H789 0.931 . S
C772 N769 1.311 . S
C772 N773 1.347 . S
C772 H783 0.929 . S
N773 C771 1.375 . S
N773 C772 1.347 . S
C774 C777 1.365 . S
C774 N779 1.328 . S
C774 H780 0.929 . S
C775 C776 1.362 . S
C775 C778 1.378 . S
C775 H790 0.929 . S
C776 C775 1.362 . S
C776 C777 1.366 . S
C777 C774 1.365 . S
C777 C776 1.366 . S
C777 H791 0.930 . S
C778 C775 1.378 . S
C778 N779 1.315 . S
C778 H781 0.930 . S
N779 Co759 2.194 . S
N779 C774 1.328 . S
N779 C778 1.315 . S
H780 C774 0.929 . S
H781 C778 0.930 . S
H782 C770 0.929 . S
H783 C772 0.929 . S
O784 Co759 2.351 . S
O784 C787 1.244 . S
O785 Co759 2.155 . S
O785 C787 1.240 . S
O786 Co759 2.096 . S
O786 C767 1.247 . S
C787 O784 1.244 . S
C787 O785 1.240 . S
H788 C762 0.931 . S
H789 C771 0.931 . S
H790 C775 0.929 . S
H791 C777 0.930 . S
C792 C793 1.391 . S
C792 C794 1.394 . S
C792 H808 0.931 . S
C793 C792 1.391 . S
C793 C797 1.376 . S
C794 C792 1.394 . S
C794 C795 1.369 . S
C794 C798 1.531 1_545 S
C795 C794 1.369 . S
C795 C796 1.410 . S
C795 C803 1.503 1_545 S
C796 C795 1.410 . S
C796 C797 1.392 . S
C796 C799 1.511 . S
C797 C793 1.376 . S
C797 C796 1.392 . S
C797 H809 0.929 . S
C798 C794 1.531 1_565 S
C798 H810 0.960 . S
C798 H811 0.962 1_565 S
C798 H812 0.960 . S
C799 C796 1.511 . S
C799 H813 0.961 . S
C799 H814 0.961 . S
C799 H815 0.961 . S
C800 C801 1.370 . S
C800 C802 1.363 . S
C800 H816 0.931 . S
C801 C800 1.370 . S
C801 C805 1.408 . S
C802 C800 1.363 . S
C802 C803 1.370 . S
C802 C806 1.524 1_565 S
C803 C795 1.503 1_565 S
C803 C802 1.370 . S
C803 C804 1.403 . S
C804 C803 1.403 . S
C804 C805 1.404 . S
C804 C807 1.539 . S
C805 C801 1.408 . S
C805 C804 1.404 . S
C805 H817 0.930 . S
C806 C802 1.524 1_545 S
C806 H818 0.956 . S
C806 H819 0.961 . S
C806 H820 0.961 . S
C807 C804 1.539 . S
C807 H821 0.958 . S
C807 H822 0.961 . S
C807 H823 0.960 . S
H808 C792 0.931 . S
H809 C797 0.929 . S
H810 C798 0.960 . S
H811 C798 0.962 1_545 S
H812 C798 0.960 . S
H813 C799 0.961 . S
H814 C799 0.961 . S
H815 C799 0.961 . S
H816 C800 0.931 . S
H817 C805 0.930 . S
H818 C806 0.956 . S
H819 C806 0.961 . S
H820 C806 0.961 . S
H821 C807 0.958 . S
H822 C807 0.961 . S
H823 C807 0.960 . S
C824 C825 1.391 . S
C824 C826 1.394 . S
C824 H840 0.931 . S
C825 C824 1.391 . S
C825 C829 1.376 . S
C826 C824 1.394 . S
C826 C827 1.369 . S
C826 C830 1.531 . S
C827 C826 1.369 . S
C827 C828 1.410 . S
C827 C835 1.503 . S
C828 C827 1.410 . S
C828 C829 1.392 . S
C828 C831 1.511 . S
C829 C825 1.376 . S
C829 C828 1.392 . S
C829 H841 0.929 . S
C830 C826 1.531 . S
C830 H842 0.960 . S
C830 H843 0.962 . S
C830 H844 0.960 . S
C831 C828 1.511 . S
C831 H845 0.961 . S
C831 H846 0.961 . S
C831 H847 0.961 . S
C832 C833 1.370 . S
C832 C834 1.363 . S
C832 H848 0.931 . S
C833 C832 1.370 . S
C833 C837 1.408 . S
C834 C832 1.363 . S
C834 C835 1.370 . S
C834 C838 1.524 . S
C835 C827 1.503 . S
C835 C834 1.370 . S
C835 C836 1.403 . S
C836 C835 1.403 . S
C836 C837 1.404 . S
C836 C839 1.539 . S
C837 C833 1.408 . S
C837 C836 1.404 . S
C837 H849 0.930 . S
C838 C834 1.524 . S
C838 H850 0.956 . S
C838 H851 0.961 . S
C838 H852 0.961 . S
C839 C836 1.539 . S
C839 H853 0.958 . S
C839 H854 0.961 . S
C839 H855 0.960 . S
H840 C824 0.931 . S
H841 C829 0.929 . S
H842 C830 0.960 . S
H843 C830 0.962 . S
H844 C830 0.960 . S
H845 C831 0.961 . S
H846 C831 0.961 . S
H847 C831 0.961 . S
H848 C832 0.931 . S
H849 C837 0.930 . S
H850 C838 0.956 . S
H851 C838 0.961 . S
H852 C838 0.961 . S
H853 C839 0.958 . S
H854 C839 0.961 . S
H855 C839 0.960 . S
C856 C857 1.391 . S
C856 C858 1.394 . S
C856 H872 0.931 . S
C857 C856 1.391 . S
C857 C861 1.376 . S
C858 C856 1.394 . S
C858 C859 1.369 . S
C858 C862 1.531 . S
C859 C858 1.369 . S
C859 C860 1.410 . S
C859 C867 1.503 1_455 S
C860 C859 1.410 . S
C860 C861 1.392 . S
C860 C863 1.511 1_455 S
C861 C857 1.376 . S
C861 C860 1.392 . S
C861 H873 0.929 . S
C862 C858 1.531 . S
C862 H874 0.960 . S
C862 H875 0.962 . S
C862 H876 0.960 . S
C863 C860 1.511 1_655 S
C863 H877 0.961 . S
C863 H878 0.961 . S
C863 H879 0.961 . S
C864 C865 1.370 . S
C864 C866 1.363 . S
C864 H880 0.931 . S
C865 C864 1.370 . S
C865 C869 1.408 . S
C866 C864 1.363 . S
C866 C867 1.370 . S
C866 C870 1.524 1_655 S
C867 C859 1.503 1_655 S
C867 C866 1.370 . S
C867 C868 1.403 . S
C868 C867 1.403 . S
C868 C869 1.404 . S
C868 C871 1.539 . S
C869 C865 1.408 . S
C869 C868 1.404 . S
C869 H881 0.930 . S
C870 C866 1.524 1_455 S
C870 H882 0.956 . S
C870 H883 0.961 . S
C870 H884 0.961 . S
C871 C868 1.539 . S
C871 H885 0.958 . S
C871 H886 0.961 . S
C871 H887 0.960 . S
H872 C856 0.931 . S
H873 C861 0.929 . S
H874 C862 0.960 . S
H875 C862 0.962 . S
H876 C862 0.960 . S
H877 C863 0.961 . S
H878 C863 0.961 . S
H879 C863 0.961 . S
H880 C864 0.931 . S
H881 C869 0.930 . S
H882 C870 0.956 . S
H883 C870 0.961 . S
H884 C870 0.961 . S
H885 C871 0.958 . S
H886 C871 0.961 . S
H887 C871 0.960 . S
C888 C889 1.391 . S
C888 C890 1.394 . S
C888 H904 0.931 . S
C889 C888 1.391 . S
C889 C893 1.376 . S
C890 C888 1.394 . S
C890 C891 1.369 . S
C890 C894 1.531 1_455 S
C891 C890 1.369 . S
C891 C892 1.410 . S
C891 C899 1.503 1_455 S
C892 C891 1.410 . S
C892 C893 1.392 . S
C892 C895 1.511 . S
C893 C889 1.376 . S
C893 C892 1.392 . S
C893 H905 0.929 . S
C894 C890 1.531 1_655 S
C894 H906 0.960 . S
C894 H907 0.962 . S
C894 H908 0.960 . S
C895 C892 1.511 . S
C895 H909 0.961 . S
C895 H910 0.961 . S
C895 H911 0.961 . S
C896 C897 1.370 . S
C896 C898 1.363 . S
C896 H912 0.931 . S
C897 C896 1.370 . S
C897 C901 1.408 . S
C898 C896 1.363 . S
C898 C899 1.370 . S
C898 C902 1.524 . S
C899 C891 1.503 1_655 S
C899 C898 1.370 . S
C899 C900 1.403 . S
C900 C899 1.403 . S
C900 C901 1.404 . S
C900 C903 1.539 . S
C901 C897 1.408 . S
C901 C900 1.404 . S
C901 H913 0.930 . S
C902 C898 1.524 . S
C902 H914 0.956 . S
C902 H915 0.961 1_655 S
C902 H916 0.961 . S
C903 C900 1.539 . S
C903 H917 0.958 . S
C903 H918 0.961 . S
C903 H919 0.960 1_655 S
H904 C888 0.931 . S
H905 C893 0.929 . S
H906 C894 0.960 . S
H907 C894 0.962 . S
H908 C894 0.960 . S
H909 C895 0.961 . S
H910 C895 0.961 . S
H911 C895 0.961 . S
H912 C896 0.931 . S
H913 C901 0.930 . S
H914 C902 0.956 . S
H915 C902 0.961 1_455 S
H916 C902 0.961 . S
H917 C903 0.958 . S
H918 C903 0.961 . S
H919 C903 0.960 1_455 S
C920 C921 1.391 . S
C920 C922 1.394 . S
C920 H936 0.931 . S
C921 C920 1.391 . S
C921 C925 1.376 . S
C922 C920 1.394 . S
C922 C923 1.369 . S
C922 C926 1.531 1_565 S
C923 C922 1.369 . S
C923 C924 1.410 . S
C923 C931 1.503 1_565 S
C924 C923 1.410 . S
C924 C925 1.392 . S
C924 C927 1.511 . S
C925 C921 1.376 . S
C925 C924 1.392 . S
C925 H937 0.929 . S
C926 C922 1.531 1_545 S
C926 H938 0.960 . S
C926 H939 0.962 . S
C926 H940 0.960 . S
C927 C924 1.511 . S
C927 H941 0.961 . S
C927 H942 0.961 . S
C927 H943 0.961 . S
C928 C929 1.370 . S
C928 C930 1.363 . S
C928 H944 0.931 . S
C929 C928 1.370 . S
C929 C933 1.408 . S
C930 C928 1.363 . S
C930 C931 1.370 . S
C930 C934 1.524 . S
C931 C923 1.503 1_545 S
C931 C930 1.370 . S
C931 C932 1.403 . S
C932 C931 1.403 . S
C932 C933 1.404 . S
C932 C935 1.516 1_545 S
C933 C929 1.408 . S
C933 C932 1.404 . S
C933 H945 0.930 . S
C934 C930 1.524 . S
C934 H946 0.956 . S
C934 H947 0.931 1_545 S
C934 H948 0.961 . S
C935 C932 1.516 1_565 S
C935 H949 0.920 1_565 S
C935 H950 0.991 . S
C935 H951 0.996 . S
H936 C920 0.931 . S
H937 C925 0.929 . S
H938 C926 0.960 . S
H939 C926 0.962 . S
H940 C926 0.960 . S
H941 C927 0.961 . S
H942 C927 0.961 . S
H943 C927 0.961 . S
H944 C928 0.931 . S
H945 C933 0.930 . S
H946 C934 0.956 . S
H947 C934 0.931 1_565 S
H948 C934 0.961 . S
H949 C935 0.920 1_545 S
H950 C935 0.991 . S
H951 C935 0.996 . S
C952 C953 1.391 . S
C952 C954 1.394 . S
C952 H968 0.931 . S
C953 C952 1.391 . S
C953 C957 1.376 . S
C954 C952 1.394 . S
C954 C955 1.369 . S
C954 C958 1.531 . S
C955 C954 1.369 . S
C955 C956 1.410 . S
C955 C963 1.503 . S
C956 C955 1.410 . S
C956 C957 1.392 . S
C956 C959 1.511 . S
C957 C953 1.376 . S
C957 C956 1.392 . S
C957 H969 0.929 . S
C958 C954 1.531 . S
C958 H970 0.960 . S
C958 H971 0.962 . S
C958 H972 0.960 . S
C959 C956 1.511 . S
C959 H973 0.961 . S
C959 H974 0.961 . S
C959 H975 0.961 . S
C960 C961 1.370 . S
C960 C962 1.363 . S
C960 H976 0.931 . S
C961 C960 1.370 . S
C961 C965 1.408 . S
C962 C960 1.363 . S
C962 C963 1.370 . S
C962 C966 1.524 . S
C963 C955 1.503 . S
C963 C962 1.370 . S
C963 C964 1.403 . S
C964 C963 1.403 . S
C964 C965 1.404 . S
C964 C967 1.539 . S
C965 C961 1.408 . S
C965 C964 1.404 . S
C965 H977 0.930 . S
C966 C962 1.524 . S
C966 H978 0.956 . S
C966 H979 0.961 . S
C966 H980 0.961 . S
C967 C964 1.539 . S
C967 H981 0.958 . S
C967 H982 0.961 . S
C967 H983 0.960 . S
H968 C952 0.931 . S
H969 C957 0.929 . S
H970 C958 0.960 . S
H971 C958 0.962 . S
H972 C958 0.960 . S
H973 C959 0.961 . S
H974 C959 0.961 . S
H975 C959 0.961 . S
H976 C960 0.931 . S
H977 C965 0.930 . S
H978 C966 0.956 . S
H979 C966 0.961 . S
H980 C966 0.961 . S
H981 C967 0.958 . S
H982 C967 0.961 . S
H983 C967 0.960 . S
C984 C985 1.391 . S
C984 C986 1.394 . S
C984 H1000 0.931 . S
C985 C984 1.391 . S
C985 C989 1.376 . S
C986 C984 1.394 . S
C986 C987 1.369 . S
C986 C990 1.533 . S
C987 C986 1.369 . S
C987 C988 1.410 . S
C987 C995 1.503 1_545 S
C988 C987 1.410 . S
C988 C989 1.392 . S
C988 C991 1.511 . S
C989 C985 1.376 . S
C989 C988 1.392 . S
C989 H1001 0.929 . S
C990 C986 1.533 . S
C990 H1002 0.957 1_545 S
C990 H1003 0.962 . S
C990 H1004 0.946 . S
C991 C988 1.511 . S
C991 H1005 0.961 . S
C991 H1006 0.961 . S
C991 H1007 0.961 1_545 S
C992 C993 1.370 . S
C992 C994 1.363 . S
C992 H1008 0.931 . S
C993 C992 1.370 . S
C993 C997 1.408 . S
C994 C992 1.363 . S
C994 C995 1.370 . S
C994 C998 1.524 1_565 S
C995 C987 1.503 1_565 S
C995 C994 1.370 . S
C995 C996 1.403 . S
C996 C995 1.403 . S
C996 C997 1.404 . S
C996 C999 1.539 . S
C997 C993 1.408 . S
C997 C996 1.404 . S
C997 H1009 0.930 . S
C998 C994 1.524 1_545 S
C998 H1010 0.956 . S
C998 H1011 0.961 . S
C998 H1012 0.961 . S
C999 C996 1.539 . S
C999 H1013 0.958 . S
C999 H1014 0.961 . S
C999 H1015 0.960 . S
H1000 C984 0.931 . S
H1001 C989 0.929 . S
H1002 C990 0.957 1_565 S
H1003 C990 0.962 . S
H1004 C990 0.946 . S
H1005 C991 0.961 . S
H1006 C991 0.961 . S
H1007 C991 0.961 1_565 S
H1008 C992 0.931 . S
H1009 C997 0.930 . S
H1010 C998 0.956 . S
H1011 C998 0.961 . S
H1012 C998 0.961 . S
H1013 C999 0.958 . S
H1014 C999 0.961 . S
H1015 C999 0.960 . S
C1016 C1017 1.391 . S
C1016 C1018 1.394 . S
C1016 H1032 0.931 . S
C1017 C1016 1.391 . S
C1017 C1021 1.376 . S
C1018 C1016 1.394 . S
C1018 C1019 1.369 . S
C1018 C1022 1.531 . S
C1019 C1018 1.369 . S
C1019 C1020 1.410 . S
C1019 C1027 1.503 . S
C1020 C1019 1.410 . S
C1020 C1021 1.392 . S
C1020 C1023 1.511 . S
C1021 C1017 1.376 . S
C1021 C1020 1.392 . S
C1021 H1033 0.929 . S
C1022 C1018 1.531 . S
C1022 H1034 0.960 . S
C1022 H1035 0.962 . S
C1022 H1036 0.960 . S
C1023 C1020 1.511 . S
C1023 H1037 0.961 . S
C1023 H1038 0.961 . S
C1023 H1039 0.961 . S
C1024 C1025 1.370 . S
C1024 C1026 1.363 . S
C1024 H1040 0.931 . S
C1025 C1024 1.370 . S
C1025 C1029 1.408 . S
C1026 C1024 1.363 . S
C1026 C1027 1.370 . S
C1026 C1030 1.524 . S
C1027 C1019 1.503 . S
C1027 C1026 1.370 . S
C1027 C1028 1.403 . S
C1028 C1027 1.403 . S
C1028 C1029 1.404 . S
C1028 C1031 1.539 . S
C1029 C1025 1.408 . S
C1029 C1028 1.404 . S
C1029 H1041 0.930 . S
C1030 C1026 1.524 . S
C1030 H1042 0.956 . S
C1030 H1043 0.961 . S
C1030 H1044 0.961 . S
C1031 C1028 1.539 . S
C1031 H1045 0.958 . S
C1031 H1046 0.961 . S
C1031 H1047 0.960 . S
H1032 C1016 0.931 . S
H1033 C1021 0.929 . S
H1034 C1022 0.960 . S
H1035 C1022 0.962 . S
H1036 C1022 0.960 . S
H1037 C1023 0.961 . S
H1038 C1023 0.961 . S
H1039 C1023 0.961 . S
H1040 C1024 0.931 . S
H1041 C1029 0.930 . S
H1042 C1030 0.956 . S
H1043 C1030 0.961 . S
H1044 C1030 0.961 . S
H1045 C1031 0.958 . S
H1046 C1031 0.961 . S
H1047 C1031 0.960 . S
C1048 C1049 1.391 . S
C1048 C1050 1.394 . S
C1048 H1064 0.931 . S
C1049 C1048 1.391 . S
C1049 C1053 1.376 . S
C1050 C1048 1.394 . S
C1050 C1051 1.369 . S
C1050 C1054 1.531 . S
C1051 C1050 1.369 . S
C1051 C1052 1.410 . S
C1051 C1059 1.503 1_655 S
C1052 C1051 1.410 . S
C1052 C1053 1.392 . S
C1052 C1055 1.511 1_655 S
C1053 C1049 1.376 . S
C1053 C1052 1.392 . S
C1053 H1065 0.929 . S
C1054 C1050 1.531 . S
C1054 H1066 0.960 . S
C1054 H1067 0.962 . S
C1054 H1068 0.960 . S
C1055 C1052 1.511 1_455 S
C1055 H1069 0.961 . S
C1055 H1070 0.961 . S
C1055 H1071 0.961 . S
C1056 C1057 1.370 . S
C1056 C1058 1.363 . S
C1056 H1072 0.931 . S
C1057 C1056 1.370 . S
C1057 C1061 1.408 . S
C1058 C1056 1.363 . S
C1058 C1059 1.370 . S
C1058 C1062 1.524 1_455 S
C1059 C1051 1.503 1_455 S
C1059 C1058 1.370 . S
C1059 C1060 1.403 . S
C1060 C1059 1.403 . S
C1060 C1061 1.404 . S
C1060 C1063 1.539 . S
C1061 C1057 1.408 . S
C1061 C1060 1.404 . S
C1061 H1073 0.930 . S
C1062 C1058 1.524 1_655 S
C1062 H1074 0.956 . S
C1062 H1075 0.961 . S
C1062 H1076 0.961 . S
C1063 C1060 1.539 . S
C1063 H1077 0.958 . S
C1063 H1078 0.961 . S
C1063 H1079 0.960 . S
H1064 C1048 0.931 . S
H1065 C1053 0.929 . S
H1066 C1054 0.960 . S
H1067 C1054 0.962 . S
H1068 C1054 0.960 . S
H1069 C1055 0.961 . S
H1070 C1055 0.961 . S
H1071 C1055 0.961 . S
H1072 C1056 0.931 . S
H1073 C1061 0.930 . S
H1074 C1062 0.956 . S
H1075 C1062 0.961 . S
H1076 C1062 0.961 . S
H1077 C1063 0.958 . S
H1078 C1063 0.961 . S
H1079 C1063 0.960 . S
C1080 C1081 1.391 . S
C1080 C1082 1.394 . S
C1080 H1096 0.931 . S
C1081 C1080 1.391 . S
C1081 C1085 1.376 . S
C1082 C1080 1.394 . S
C1082 C1083 1.369 . S
C1082 C1086 1.531 1_655 S
C1083 C1082 1.369 . S
C1083 C1084 1.410 . S
C1083 C1091 1.503 1_655 S
C1084 C1083 1.410 . S
C1084 C1085 1.392 . S
C1084 C1087 1.511 . S
C1085 C1081 1.376 . S
C1085 C1084 1.392 . S
C1085 H1097 0.929 . S
C1086 C1082 1.531 1_455 S
C1086 H1098 0.960 . S
C1086 H1099 0.962 . S
C1086 H1100 0.960 . S
C1087 C1084 1.511 . S
C1087 H1101 0.961 . S
C1087 H1102 0.961 . S
C1087 H1103 0.961 . S
C1088 C1089 1.370 . S
C1088 C1090 1.363 . S
C1088 H1104 0.931 . S
C1089 C1088 1.370 . S
C1089 C1093 1.408 . S
C1090 C1088 1.363 . S
C1090 C1091 1.370 . S
C1090 C1094 1.524 . S
C1091 C1083 1.503 1_455 S
C1091 C1090 1.370 . S
C1091 C1092 1.403 . S
C1092 C1091 1.403 . S
C1092 C1093 1.404 . S
C1092 C1095 1.539 . S
C1093 C1089 1.408 . S
C1093 C1092 1.404 . S
C1093 H1105 0.930 . S
C1094 C1090 1.524 . S
C1094 H1106 0.956 . S
C1094 H1107 0.961 1_455 S
C1094 H1108 0.961 . S
C1095 C1092 1.539 . S
C1095 H1109 0.958 . S
C1095 H1110 0.961 . S
C1095 H1111 0.960 1_455 S
H1096 C1080 0.931 . S
H1097 C1085 0.929 . S
H1098 C1086 0.960 . S
H1099 C1086 0.962 . S
H1100 C1086 0.960 . S
H1101 C1087 0.961 . S
H1102 C1087 0.961 . S
H1103 C1087 0.961 . S
H1104 C1088 0.931 . S
H1105 C1093 0.930 . S
H1106 C1094 0.956 . S
H1107 C1094 0.961 1_655 S
H1108 C1094 0.961 . S
H1109 C1095 0.958 . S
H1110 C1095 0.961 . S
H1111 C1095 0.960 1_655 S
C1112 C1113 1.391 . S
C1112 C1114 1.394 . S
C1112 H1128 0.931 . S
C1113 C1112 1.391 . S
C1113 C1117 1.376 . S
C1114 C1112 1.394 . S
C1114 C1115 1.369 . S
C1114 C1118 1.531 1_545 S
C1115 C1114 1.369 . S
C1115 C1116 1.410 . S
C1115 C1123 1.503 1_545 S
C1116 C1115 1.410 . S
C1116 C1117 1.392 . S
C1116 C1119 1.511 . S
C1117 C1113 1.376 . S
C1117 C1116 1.392 . S
C1117 H1129 0.929 . S
C1118 C1114 1.531 1_565 S
C1118 H1130 0.960 . S
C1118 H1131 0.962 . S
C1118 H1132 0.960 . S
C1119 C1116 1.511 . S
C1119 H1133 0.961 . S
C1119 H1134 0.961 . S
C1119 H1135 0.961 . S
C1120 C1121 1.370 . S
C1120 C1122 1.363 . S
C1120 H1136 0.931 . S
C1121 C1120 1.370 . S
C1121 C1125 1.408 . S
C1122 C1120 1.363 . S
C1122 C1123 1.370 . S
C1122 C1126 1.524 . S
C1123 C1115 1.503 1_565 S
C1123 C1122 1.370 . S
C1123 C1124 1.403 . S
C1124 C1123 1.403 . S
C1124 C1125 1.404 . S
C1124 C1127 1.539 1_565 S
C1125 C1121 1.408 . S
C1125 C1124 1.404 . S
C1125 H1137 0.930 . S
C1126 C1122 1.524 . S
C1126 H1138 0.956 . S
C1126 H1139 1.004 . S
C1126 H1140 0.961 . S
C1127 C1124 1.539 1_545 S
C1127 H1141 0.958 1_545 S
C1127 H1142 0.961 . S
C1127 H1143 0.960 . S
H1128 C1112 0.931 . S
H1129 C1117 0.929 . S
H1130 C1118 0.960 . S
H1131 C1118 0.962 . S
H1132 C1118 0.960 . S
H1133 C1119 0.961 . S
H1134 C1119 0.961 . S
H1135 C1119 0.961 . S
H1136 C1120 0.931 . S
H1137 C1125 0.930 . S
H1138 C1126 0.956 . S
H1139 C1126 1.004 . S
H1140 C1126 0.961 . S
H1141 C1127 0.958 1_565 S
H1142 C1127 0.961 . S
H1143 C1127 0.960 . S
C1144 C1145 1.391 . S
C1144 C1146 1.394 . S
C1144 H1160 0.931 . S
C1145 C1144 1.391 . S
C1145 C1149 1.376 . S
C1146 C1144 1.394 . S
C1146 C1147 1.369 . S
C1146 C1150 1.531 . S
C1147 C1146 1.369 . S
C1147 C1148 1.410 . S
C1147 C1155 1.503 . S
C1148 C1147 1.410 . S
C1148 C1149 1.392 . S
C1148 C1151 1.511 . S
C1149 C1145 1.376 . S
C1149 C1148 1.392 . S
C1149 H1161 0.929 . S
C1150 C1146 1.531 . S
C1150 H1162 0.960 . S
C1150 H1163 0.962 . S
C1150 H1164 0.960 . S
C1151 C1148 1.511 . S
C1151 H1165 0.961 . S
C1151 H1166 0.961 . S
C1151 H1167 0.961 . S
C1152 C1153 1.370 . S
C1152 C1154 1.363 . S
C1152 H1168 0.931 . S
C1153 C1152 1.370 . S
C1153 C1157 1.408 . S
C1154 C1152 1.363 . S
C1154 C1155 1.370 . S
C1154 C1158 1.524 . S
C1155 C1147 1.503 . S
C1155 C1154 1.370 . S
C1155 C1156 1.403 . S
C1156 C1155 1.403 . S
C1156 C1157 1.404 . S
C1156 C1159 1.539 . S
C1157 C1153 1.408 . S
C1157 C1156 1.404 . S
C1157 H1169 0.930 . S
C1158 C1154 1.524 . S
C1158 H1170 0.956 . S
C1158 H1171 0.961 . S
C1158 H1172 0.961 . S
C1159 C1156 1.539 . S
C1159 H1173 0.958 . S
C1159 H1174 0.961 . S
C1159 H1175 0.960 . S
H1160 C1144 0.931 . S
H1161 C1149 0.929 . S
H1162 C1150 0.960 . S
H1163 C1150 0.962 . S
H1164 C1150 0.960 . S
H1165 C1151 0.961 . S
H1166 C1151 0.961 . S
H1167 C1151 0.961 . S
H1168 C1152 0.931 . S
H1169 C1157 0.930 . S
H1170 C1158 0.956 . S
H1171 C1158 0.961 . S
H1172 C1158 0.961 . S
H1173 C1159 0.958 . S
H1174 C1159 0.961 . S
H1175 C1159 0.960 . S
C1176 C1177 1.391 . S
C1176 C1178 1.394 . S
C1176 H1192 0.931 . S
C1177 C1176 1.391 . S
C1177 C1181 1.376 . S
C1178 C1176 1.394 . S
C1178 C1179 1.369 . S
C1178 C1182 1.531 . S
C1179 C1178 1.369 . S
C1179 C1180 1.410 . S
C1179 C1187 1.503 . S
C1180 C1179 1.410 . S
C1180 C1181 1.392 . S
C1180 C1183 1.511 . S
C1181 C1177 1.376 . S
C1181 C1180 1.392 . S
C1181 H1193 0.929 . S
C1182 C1178 1.531 . S
C1182 H1194 0.960 . S
C1182 H1195 0.962 . S
C1182 H1196 0.960 . S
C1183 C1180 1.511 . S
C1183 H1197 0.961 . S
C1183 H1198 0.961 . S
C1183 H1199 0.961 . S
C1184 C1185 1.370 . S
C1184 C1186 1.363 . S
C1184 H1200 0.931 . S
C1185 C1184 1.370 . S
C1185 C1189 1.408 . S
C1186 C1184 1.363 . S
C1186 C1187 1.370 . S
C1186 C1190 1.524 . S
C1187 C1179 1.503 . S
C1187 C1186 1.370 . S
C1187 C1188 1.403 . S
C1188 C1187 1.403 . S
C1188 C1189 1.404 . S
C1188 C1191 1.539 . S
C1189 C1185 1.408 . S
C1189 C1188 1.404 . S
C1189 H1201 0.930 . S
C1190 C1186 1.524 . S
C1190 H1202 0.956 . S
C1190 H1203 0.961 . S
C1190 H1204 0.961 . S
C1191 C1188 1.539 . S
C1191 H1205 0.958 . S
C1191 H1206 0.961 . S
C1191 H1207 0.960 . S
H1192 C1176 0.931 . S
H1193 C1181 0.929 . S
H1194 C1182 0.960 . S
H1195 C1182 0.962 . S
H1196 C1182 0.960 . S
H1197 C1183 0.961 . S
H1198 C1183 0.961 . S
H1199 C1183 0.961 . S
H1200 C1184 0.931 . S
H1201 C1189 0.930 . S
H1202 C1190 0.956 . S
H1203 C1190 0.961 . S
H1204 C1190 0.961 . S
H1205 C1191 0.958 . S
H1206 C1191 0.961 . S
H1207 C1191 0.960 . S
C1208 C1209 1.391 . S
C1208 C1210 1.394 . S
C1208 H1224 0.931 . S
C1209 C1208 1.391 . S
C1209 C1213 1.376 . S
C1210 C1208 1.394 . S
C1210 C1211 1.369 . S
C1210 C1214 1.531 . S
C1211 C1210 1.369 . S
C1211 C1212 1.410 . S
C1211 C1219 1.503 . S
C1212 C1211 1.410 . S
C1212 C1213 1.392 . S
C1212 C1215 1.511 . S
C1213 C1209 1.376 . S
C1213 C1212 1.392 . S
C1213 H1225 0.929 . S
C1214 C1210 1.531 . S
C1214 H1226 0.960 . S
C1214 H1227 0.962 . S
C1214 H1228 0.960 . S
C1215 C1212 1.511 . S
C1215 H1229 0.961 . S
C1215 H1230 0.961 . S
C1215 H1231 0.961 . S
C1216 C1217 1.370 . S
C1216 C1218 1.363 . S
C1216 H1232 0.931 . S
C1217 C1216 1.370 . S
C1217 C1221 1.408 . S
C1218 C1216 1.363 . S
C1218 C1219 1.370 . S
C1218 C1222 1.524 . S
C1219 C1211 1.503 . S
C1219 C1218 1.370 . S
C1219 C1220 1.403 . S
C1220 C1219 1.403 . S
C1220 C1221 1.404 . S
C1220 C1223 1.539 . S
C1221 C1217 1.408 . S
C1221 C1220 1.404 . S
C1221 H1233 0.930 . S
C1222 C1218 1.524 . S
C1222 H1234 0.956 . S
C1222 H1235 0.961 . S
C1222 H1236 0.961 . S
C1223 C1220 1.539 . S
C1223 H1237 0.958 . S
C1223 H1238 0.961 . S
C1223 H1239 0.960 . S
H1224 C1208 0.931 . S
H1225 C1213 0.929 . S
H1226 C1214 0.960 . S
H1227 C1214 0.962 . S
H1228 C1214 0.960 . S
H1229 C1215 0.961 . S
H1230 C1215 0.961 . S
H1231 C1215 0.961 . S
H1232 C1216 0.931 . S
H1233 C1221 0.930 . S
H1234 C1222 0.956 . S
H1235 C1222 0.961 . S
H1236 C1222 0.961 . S
H1237 C1223 0.958 . S
H1238 C1223 0.961 . S
H1239 C1223 0.960 . S
C1240 C1241 1.391 . S
C1240 C1242 1.394 . S
C1240 H1256 0.931 . S
C1241 C1240 1.391 . S
C1241 C1245 1.376 . S
C1242 C1240 1.394 . S
C1242 C1243 1.369 . S
C1242 C1246 1.531 . S
C1243 C1242 1.369 . S
C1243 C1244 1.410 . S
C1243 C1251 1.503 . S
C1244 C1243 1.410 . S
C1244 C1245 1.392 . S
C1244 C1247 1.511 . S
C1245 C1241 1.376 . S
C1245 C1244 1.392 . S
C1245 H1257 0.929 . S
C1246 C1242 1.531 . S
C1246 H1258 0.960 . S
C1246 H1259 0.962 . S
C1246 H1260 0.960 . S
C1247 C1244 1.511 . S
C1247 H1261 0.961 . S
C1247 H1262 0.961 . S
C1247 H1263 0.961 . S
C1248 C1249 1.370 . S
C1248 C1250 1.363 . S
C1248 H1264 0.931 . S
C1249 C1248 1.370 . S
C1249 C1253 1.408 . S
C1250 C1248 1.363 . S
C1250 C1251 1.370 . S
C1250 C1254 1.524 . S
C1251 C1243 1.503 . S
C1251 C1250 1.370 . S
C1251 C1252 1.403 . S
C1252 C1251 1.403 . S
C1252 C1253 1.404 . S
C1252 C1255 1.539 . S
C1253 C1249 1.408 . S
C1253 C1252 1.404 . S
C1253 H1265 0.930 . S
C1254 C1250 1.524 . S
C1254 H1266 0.956 . S
C1254 H1267 0.961 . S
C1254 H1268 0.961 . S
C1255 C1252 1.539 . S
C1255 H1269 0.958 . S
C1255 H1270 0.961 . S
C1255 H1271 0.960 . S
H1256 C1240 0.931 . S
H1257 C1245 0.929 . S
H1258 C1246 0.960 . S
H1259 C1246 0.962 . S
H1260 C1246 0.960 . S
H1261 C1247 0.961 . S
H1262 C1247 0.961 . S
H1263 C1247 0.961 . S
H1264 C1248 0.931 . S
H1265 C1253 0.930 . S
H1266 C1254 0.956 . S
H1267 C1254 0.961 . S
H1268 C1254 0.961 . S
H1269 C1255 0.958 . S
H1270 C1255 0.961 . S
H1271 C1255 0.960 . S
C1272 C1273 1.391 . S
C1272 C1274 1.394 . S
C1272 H1288 0.931 . S
C1273 C1272 1.391 . S
C1273 C1277 1.376 . S
C1274 C1272 1.394 . S
C1274 C1275 1.369 . S
C1274 C1278 1.531 . S
C1275 C1274 1.369 . S
C1275 C1276 1.410 . S
C1275 C1283 1.503 . S
C1276 C1275 1.410 . S
C1276 C1277 1.392 . S
C1276 C1279 1.511 . S
C1277 C1273 1.376 . S
C1277 C1276 1.392 . S
C1277 H1289 0.929 . S
C1278 C1274 1.531 . S
C1278 H1290 0.960 . S
C1278 H1291 0.962 . S
C1278 H1292 0.960 . S
C1279 C1276 1.511 . S
C1279 H1293 0.961 . S
C1279 H1294 0.961 . S
C1279 H1295 0.961 . S
C1280 C1281 1.370 . S
C1280 C1282 1.363 . S
C1280 H1296 0.931 . S
C1281 C1280 1.370 . S
C1281 C1285 1.408 . S
C1282 C1280 1.363 . S
C1282 C1283 1.370 . S
C1282 C1286 1.524 . S
C1283 C1275 1.503 . S
C1283 C1282 1.370 . S
C1283 C1284 1.403 . S
C1284 C1283 1.403 . S
C1284 C1285 1.404 . S
C1284 C1287 1.539 . S
C1285 C1281 1.408 . S
C1285 C1284 1.404 . S
C1285 H1297 0.930 . S
C1286 C1282 1.524 . S
C1286 H1298 0.956 . S
C1286 H1299 0.961 . S
C1286 H1300 0.961 . S
C1287 C1284 1.539 . S
C1287 H1301 0.958 . S
C1287 H1302 0.961 . S
C1287 H1303 0.960 . S
H1288 C1272 0.931 . S
H1289 C1277 0.929 . S
H1290 C1278 0.960 . S
H1291 C1278 0.962 . S
H1292 C1278 0.960 . S
H1293 C1279 0.961 . S
H1294 C1279 0.961 . S
H1295 C1279 0.961 . S
H1296 C1280 0.931 . S
H1297 C1285 0.930 . S
H1298 C1286 0.956 . S
H1299 C1286 0.961 . S
H1300 C1286 0.961 . S
H1301 C1287 0.958 . S
H1302 C1287 0.961 . S
H1303 C1287 0.960 . S
C1304 C1305 1.391 . S
C1304 C1306 1.394 . S
C1304 H1320 0.931 . S
C1305 C1304 1.391 . S
C1305 C1309 1.376 . S
C1306 C1304 1.394 . S
C1306 C1307 1.369 . S
C1306 C1310 1.531 . S
C1307 C1306 1.369 . S
C1307 C1308 1.410 . S
C1307 C1315 1.503 . S
C1308 C1307 1.410 . S
C1308 C1309 1.392 . S
C1308 C1311 1.511 . S
C1309 C1305 1.376 . S
C1309 C1308 1.392 . S
C1309 H1321 0.929 . S
C1310 C1306 1.531 . S
C1310 H1322 0.960 . S
C1310 H1323 0.962 . S
C1310 H1324 0.960 . S
C1311 C1308 1.511 . S
C1311 H1325 0.961 . S
C1311 H1326 0.961 . S
C1311 H1327 0.961 . S
C1312 C1313 1.370 . S
C1312 C1314 1.363 . S
C1312 H1328 0.931 . S
C1313 C1312 1.370 . S
C1313 C1317 1.408 . S
C1314 C1312 1.363 . S
C1314 C1315 1.370 . S
C1314 C1318 1.524 . S
C1315 C1307 1.503 . S
C1315 C1314 1.370 . S
C1315 C1316 1.403 . S
C1316 C1315 1.403 . S
C1316 C1317 1.404 . S
C1316 C1319 1.539 . S
C1317 C1313 1.408 . S
C1317 C1316 1.404 . S
C1317 H1329 0.930 . S
C1318 C1314 1.524 . S
C1318 H1330 0.956 . S
C1318 H1331 0.961 . S
C1318 H1332 0.961 . S
C1319 C1316 1.539 . S
C1319 H1333 0.958 . S
C1319 H1334 0.961 . S
C1319 H1335 0.960 . S
H1320 C1304 0.931 . S
H1321 C1309 0.929 . S
H1322 C1310 0.960 . S
H1323 C1310 0.962 . S
H1324 C1310 0.960 . S
H1325 C1311 0.961 . S
H1326 C1311 0.961 . S
H1327 C1311 0.961 . S
H1328 C1312 0.931 . S
H1329 C1317 0.930 . S
H1330 C1318 0.956 . S
H1331 C1318 0.961 . S
H1332 C1318 0.961 . S
H1333 C1319 0.958 . S
H1334 C1319 0.961 . S
H1335 C1319 0.960 . S
C1336 C1337 1.391 . S
C1336 C1338 1.394 . S
C1336 H1352 0.931 . S
C1337 C1336 1.391 . S
C1337 C1341 1.376 . S
C1338 C1336 1.394 . S
C1338 C1339 1.369 . S
C1338 C1342 1.531 . S
C1339 C1338 1.369 . S
C1339 C1340 1.410 . S
C1339 C1347 1.503 . S
C1340 C1339 1.410 . S
C1340 C1341 1.392 . S
C1340 C1343 1.511 . S
C1341 C1337 1.376 . S
C1341 C1340 1.392 . S
C1341 H1353 0.929 . S
C1342 C1338 1.531 . S
C1342 H1354 0.960 . S
C1342 H1355 0.962 . S
C1342 H1356 0.960 . S
C1343 C1340 1.511 . S
C1343 H1357 0.961 . S
C1343 H1358 0.961 . S
C1343 H1359 0.961 . S
C1344 C1345 1.370 . S
C1344 C1346 1.363 . S
C1344 H1360 0.931 . S
C1345 C1344 1.370 . S
C1345 C1349 1.408 . S
C1346 C1344 1.363 . S
C1346 C1347 1.370 . S
C1346 C1350 1.524 . S
C1347 C1339 1.503 . S
C1347 C1346 1.370 . S
C1347 C1348 1.403 . S
C1348 C1347 1.403 . S
C1348 C1349 1.404 . S
C1348 C1351 1.539 . S
C1349 C1345 1.408 . S
C1349 C1348 1.404 . S
C1349 H1361 0.930 . S
C1350 C1346 1.524 . S
C1350 H1362 0.956 . S
C1350 H1363 0.961 . S
C1350 H1364 0.961 . S
C1351 C1348 1.539 . S
C1351 H1365 0.958 . S
C1351 H1366 0.961 . S
C1351 H1367 0.960 . S
H1352 C1336 0.931 . S
H1353 C1341 0.929 . S
H1354 C1342 0.960 . S
H1355 C1342 0.962 . S
H1356 C1342 0.960 . S
H1357 C1343 0.961 . S
H1358 C1343 0.961 . S
H1359 C1343 0.961 . S
H1360 C1344 0.931 . S
H1361 C1349 0.930 . S
H1362 C1350 0.956 . S
H1363 C1350 0.961 . S
H1364 C1350 0.961 . S
H1365 C1351 0.958 . S
H1366 C1351 0.961 . S
H1367 C1351 0.960 . S
C1368 C1369 1.391 . S
C1368 C1370 1.394 . S
C1368 H1384 0.931 . S
C1369 C1368 1.391 . S
C1369 C1373 1.376 . S
C1370 C1368 1.394 . S
C1370 C1371 1.369 . S
C1370 C1374 1.531 . S
C1371 C1370 1.369 . S
C1371 C1372 1.410 . S
C1371 C1379 1.503 . S
C1372 C1371 1.410 . S
C1372 C1373 1.392 . S
C1372 C1375 1.511 . S
C1373 C1369 1.376 . S
C1373 C1372 1.392 . S
C1373 H1385 0.929 . S
C1374 C1370 1.531 . S
C1374 H1386 0.960 . S
C1374 H1387 0.962 . S
C1374 H1388 0.960 . S
C1375 C1372 1.511 . S
C1375 H1389 0.961 . S
C1375 H1390 0.961 . S
C1375 H1391 0.961 . S
C1376 C1377 1.370 . S
C1376 C1378 1.363 . S
C1376 H1392 0.931 . S
C1377 C1376 1.370 . S
C1377 C1381 1.408 . S
C1378 C1376 1.363 . S
C1378 C1379 1.370 . S
C1378 C1382 1.524 . S
C1379 C1371 1.503 . S
C1379 C1378 1.370 . S
C1379 C1380 1.403 . S
C1380 C1379 1.403 . S
C1380 C1381 1.404 . S
C1380 C1383 1.539 . S
C1381 C1377 1.408 . S
C1381 C1380 1.404 . S
C1381 H1393 0.930 . S
C1382 C1378 1.524 . S
C1382 H1394 0.956 . S
C1382 H1395 0.961 . S
C1382 H1396 0.961 . S
C1383 C1380 1.539 . S
C1383 H1397 0.958 . S
C1383 H1398 0.961 . S
C1383 H1399 0.960 . S
H1384 C1368 0.931 . S
H1385 C1373 0.929 . S
H1386 C1374 0.960 . S
H1387 C1374 0.962 . S
H1388 C1374 0.960 . S
H1389 C1375 0.961 . S
H1390 C1375 0.961 . S
H1391 C1375 0.961 . S
H1392 C1376 0.931 . S
H1393 C1381 0.930 . S
H1394 C1382 0.956 . S
H1395 C1382 0.961 . S
H1396 C1382 0.961 . S
H1397 C1383 0.958 . S
H1398 C1383 0.961 . S
H1399 C1383 0.960 . S
C1400 C1401 1.391 . S
C1400 C1402 1.394 . S
C1400 H1416 0.931 . S
C1401 C1400 1.391 . S
C1401 C1405 1.376 . S
C1402 C1400 1.394 . S
C1402 C1403 1.369 . S
C1402 C1406 1.531 . S
C1403 C1402 1.369 . S
C1403 C1404 1.410 . S
C1403 C1411 1.503 . S
C1404 C1403 1.410 . S
C1404 C1405 1.392 . S
C1404 C1407 1.511 . S
C1405 C1401 1.376 . S
C1405 C1404 1.392 . S
C1405 H1417 0.929 . S
C1406 C1402 1.531 . S
C1406 H1418 0.960 . S
C1406 H1419 0.962 . S
C1406 H1420 0.960 . S
C1407 C1404 1.511 . S
C1407 H1421 0.961 . S
C1407 H1422 0.961 . S
C1407 H1423 0.961 . S
C1408 C1409 1.370 . S
C1408 C1410 1.363 . S
C1408 H1424 0.931 . S
C1409 C1408 1.370 . S
C1409 C1413 1.408 . S
C1410 C1408 1.363 . S
C1410 C1411 1.370 . S
C1410 C1414 1.524 . S
C1411 C1403 1.503 . S
C1411 C1410 1.370 . S
C1411 C1412 1.403 . S
C1412 C1411 1.403 . S
C1412 C1413 1.404 . S
C1412 C1415 1.539 . S
C1413 C1409 1.408 . S
C1413 C1412 1.404 . S
C1413 H1425 0.930 . S
C1414 C1410 1.524 . S
C1414 H1426 0.956 . S
C1414 H1427 0.961 . S
C1414 H1428 0.961 . S
C1415 C1412 1.539 . S
C1415 H1429 0.958 . S
C1415 H1430 0.961 . S
C1415 H1431 0.960 . S
H1416 C1400 0.931 . S
H1417 C1405 0.929 . S
H1418 C1406 0.960 . S
H1419 C1406 0.962 . S
H1420 C1406 0.960 . S
H1421 C1407 0.961 . S
H1422 C1407 0.961 . S
H1423 C1407 0.961 . S
H1424 C1408 0.931 . S
H1425 C1413 0.930 . S
H1426 C1414 0.956 . S
H1427 C1414 0.961 . S
H1428 C1414 0.961 . S
H1429 C1415 0.958 . S
H1430 C1415 0.961 . S
H1431 C1415 0.960 . S
C1432 C1433 1.391 . S
C1432 C1434 1.394 . S
C1432 H1448 0.931 . S
C1433 C1432 1.391 . S
C1433 C1437 1.376 . S
C1434 C1432 1.394 . S
C1434 C1435 1.369 . S
C1434 C1438 1.531 . S
C1435 C1434 1.369 . S
C1435 C1436 1.410 . S
C1435 C1443 1.503 . S
C1436 C1435 1.410 . S
C1436 C1437 1.392 . S
C1436 C1439 1.511 . S
C1437 C1433 1.376 . S
C1437 C1436 1.392 . S
C1437 H1449 0.929 . S
C1438 C1434 1.531 . S
C1438 H1450 0.960 . S
C1438 H1451 0.962 . S
C1438 H1452 0.960 . S
C1439 C1436 1.511 . S
C1439 H1453 0.961 . S
C1439 H1454 0.961 . S
C1439 H1455 0.961 . S
C1440 C1441 1.370 . S
C1440 C1442 1.363 . S
C1440 H1456 0.931 . S
C1441 C1440 1.370 . S
C1441 C1445 1.408 . S
C1442 C1440 1.363 . S
C1442 C1443 1.370 . S
C1442 C1446 1.524 . S
C1443 C1435 1.503 . S
C1443 C1442 1.370 . S
C1443 C1444 1.403 . S
C1444 C1443 1.403 . S
C1444 C1445 1.404 . S
C1444 C1447 1.539 . S
C1445 C1441 1.408 . S
C1445 C1444 1.404 . S
C1445 H1457 0.930 . S
C1446 C1442 1.524 . S
C1446 H1458 0.956 . S
C1446 H1459 0.961 . S
C1446 H1460 0.961 . S
C1447 C1444 1.539 . S
C1447 H1461 0.958 . S
C1447 H1462 0.961 . S
C1447 H1463 0.960 . S
H1448 C1432 0.931 . S
H1449 C1437 0.929 . S
H1450 C1438 0.960 . S
H1451 C1438 0.962 . S
H1452 C1438 0.960 . S
H1453 C1439 0.961 . S
H1454 C1439 0.961 . S
H1455 C1439 0.961 . S
H1456 C1440 0.931 . S
H1457 C1445 0.930 . S
H1458 C1446 0.956 . S
H1459 C1446 0.961 . S
H1460 C1446 0.961 . S
H1461 C1447 0.958 . S
H1462 C1447 0.961 . S
H1463 C1447 0.960 . S
C1464 C1465 1.391 . S
C1464 C1466 1.394 . S
C1464 H1480 0.931 . S
C1465 C1464 1.391 . S
C1465 C1469 1.376 . S
C1466 C1464 1.394 . S
C1466 C1467 1.369 . S
C1466 C1470 1.531 . S
C1467 C1466 1.369 . S
C1467 C1468 1.410 . S
C1467 C1475 1.503 . S
C1468 C1467 1.410 . S
C1468 C1469 1.392 . S
C1468 C1471 1.511 . S
C1469 C1465 1.376 . S
C1469 C1468 1.392 . S
C1469 H1481 0.929 . S
C1470 C1466 1.531 . S
C1470 H1482 0.960 . S
C1470 H1483 0.962 . S
C1470 H1484 0.960 . S
C1471 C1468 1.511 . S
C1471 H1485 0.961 . S
C1471 H1486 0.961 . S
C1471 H1487 0.961 . S
C1472 C1473 1.370 . S
C1472 C1474 1.363 . S
C1472 H1488 0.931 . S
C1473 C1472 1.370 . S
C1473 C1477 1.408 . S
C1474 C1472 1.363 . S
C1474 C1475 1.370 . S
C1474 C1478 1.524 . S
C1475 C1467 1.503 . S
C1475 C1474 1.370 . S
C1475 C1476 1.403 . S
C1476 C1475 1.403 . S
C1476 C1477 1.404 . S
C1476 C1479 1.539 . S
C1477 C1473 1.408 . S
C1477 C1476 1.404 . S
C1477 H1489 0.930 . S
C1478 C1474 1.524 . S
C1478 H1490 0.956 . S
C1478 H1491 0.961 . S
C1478 H1492 0.961 . S
C1479 C1476 1.539 . S
C1479 H1493 0.958 . S
C1479 H1494 0.961 . S
C1479 H1495 0.960 . S
H1480 C1464 0.931 . S
H1481 C1469 0.929 . S
H1482 C1470 0.960 . S
H1483 C1470 0.962 . S
H1484 C1470 0.960 . S
H1485 C1471 0.961 . S
H1486 C1471 0.961 . S
H1487 C1471 0.961 . S
H1488 C1472 0.931 . S
H1489 C1477 0.930 . S
H1490 C1478 0.956 . S
H1491 C1478 0.961 . S
H1492 C1478 0.961 . S
H1493 C1479 0.958 . S
H1494 C1479 0.961 . S
H1495 C1479 0.960 . S
C1496 C1497 1.391 . S
C1496 C1498 1.394 . S
C1496 H1512 0.931 . S
C1497 C1496 1.391 . S
C1497 C1501 1.376 . S
C1498 C1496 1.394 . S
C1498 C1499 1.369 . S
C1498 C1502 1.531 . S
C1499 C1498 1.369 . S
C1499 C1500 1.410 . S
C1499 C1507 1.503 . S
C1500 C1499 1.410 . S
C1500 C1501 1.392 . S
C1500 C1503 1.511 . S
C1501 C1497 1.376 . S
C1501 C1500 1.392 . S
C1501 H1513 0.929 . S
C1502 C1498 1.531 . S
C1502 H1514 0.960 . S
C1502 H1515 0.962 . S
C1502 H1516 0.960 . S
C1503 C1500 1.511 . S
C1503 H1517 0.961 . S
C1503 H1518 0.961 . S
C1503 H1519 0.961 . S
C1504 C1505 1.370 . S
C1504 C1506 1.363 . S
C1504 H1520 0.931 . S
C1505 C1504 1.370 . S
C1505 C1509 1.408 . S
C1506 C1504 1.363 . S
C1506 C1507 1.370 . S
C1506 C1510 1.524 . S
C1507 C1499 1.503 . S
C1507 C1506 1.370 . S
C1507 C1508 1.403 . S
C1508 C1507 1.403 . S
C1508 C1509 1.404 . S
C1508 C1511 1.539 . S
C1509 C1505 1.408 . S
C1509 C1508 1.404 . S
C1509 H1521 0.930 . S
C1510 C1506 1.524 . S
C1510 H1522 0.956 . S
C1510 H1523 0.961 . S
C1510 H1524 0.961 . S
C1511 C1508 1.539 . S
C1511 H1525 0.958 . S
C1511 H1526 0.961 . S
C1511 H1527 0.960 . S
H1512 C1496 0.931 . S
H1513 C1501 0.929 . S
H1514 C1502 0.960 . S
H1515 C1502 0.962 . S
H1516 C1502 0.960 . S
H1517 C1503 0.961 . S
H1518 C1503 0.961 . S
H1519 C1503 0.961 . S
H1520 C1504 0.931 . S
H1521 C1509 0.930 . S
H1522 C1510 0.956 . S
H1523 C1510 0.961 . S
H1524 C1510 0.961 . S
H1525 C1511 0.958 . S
H1526 C1511 0.961 . S
H1527 C1511 0.960 . S
C1528 C1529 1.391 . S
C1528 C1530 1.394 . S
C1528 H1544 0.931 . S
C1529 C1528 1.391 . S
C1529 C1533 1.376 . S
C1530 C1528 1.394 . S
C1530 C1531 1.369 . S
C1530 C1534 1.531 . S
C1531 C1530 1.369 . S
C1531 C1532 1.410 . S
C1531 C1539 1.503 . S
C1532 C1531 1.410 . S
C1532 C1533 1.392 . S
C1532 C1535 1.511 . S
C1533 C1529 1.376 . S
C1533 C1532 1.392 . S
C1533 H1545 0.929 . S
C1534 C1530 1.531 . S
C1534 H1546 0.960 . S
C1534 H1547 0.962 . S
C1534 H1548 0.960 . S
C1535 C1532 1.511 . S
C1535 H1549 0.961 . S
C1535 H1550 0.961 . S
C1535 H1551 0.961 . S
C1536 C1537 1.370 . S
C1536 C1538 1.363 . S
C1536 H1552 0.931 . S
C1537 C1536 1.370 . S
C1537 C1541 1.408 . S
C1538 C1536 1.363 . S
C1538 C1539 1.370 . S
C1538 C1542 1.524 . S
C1539 C1531 1.503 . S
C1539 C1538 1.370 . S
C1539 C1540 1.403 . S
C1540 C1539 1.403 . S
C1540 C1541 1.404 . S
C1540 C1543 1.539 . S
C1541 C1537 1.408 . S
C1541 C1540 1.404 . S
C1541 H1553 0.930 . S
C1542 C1538 1.524 . S
C1542 H1554 0.956 . S
C1542 H1555 0.961 . S
C1542 H1556 0.961 . S
C1543 C1540 1.539 . S
C1543 H1557 0.958 . S
C1543 H1558 0.961 . S
C1543 H1559 0.960 . S
H1544 C1528 0.931 . S
H1545 C1533 0.929 . S
H1546 C1534 0.960 . S
H1547 C1534 0.962 . S
H1548 C1534 0.960 . S
H1549 C1535 0.961 . S
H1550 C1535 0.961 . S
H1551 C1535 0.961 . S
H1552 C1536 0.931 . S
H1553 C1541 0.930 . S
H1554 C1542 0.956 . S
H1555 C1542 0.961 . S
H1556 C1542 0.961 . S
H1557 C1543 0.958 . S
H1558 C1543 0.961 . S
H1559 C1543 0.960 . S
C1560 C1561 1.391 . S
C1560 C1562 1.394 . S
C1560 H1576 0.931 . S
C1561 C1560 1.391 . S
C1561 C1565 1.376 . S
C1562 C1560 1.394 . S
C1562 C1563 1.369 . S
C1562 C1566 1.531 1_545 S
C1563 C1562 1.369 . S
C1563 C1564 1.410 . S
C1563 C1571 1.503 1_545 S
C1564 C1563 1.410 . S
C1564 C1565 1.392 . S
C1564 C1567 1.511 . S
C1565 C1561 1.376 . S
C1565 C1564 1.392 . S
C1565 H1577 0.929 . S
C1566 C1562 1.531 1_565 S
C1566 H1578 0.960 . S
C1566 H1579 0.962 . S
C1566 H1580 0.960 . S
C1567 C1564 1.511 . S
C1567 H1581 0.961 . S
C1567 H1582 0.961 . S
C1567 H1583 0.961 . S
C1568 C1569 1.370 . S
C1568 C1570 1.363 . S
C1568 H1584 0.931 . S
C1569 C1568 1.370 . S
C1569 C1573 1.408 . S
C1570 C1568 1.363 . S
C1570 C1571 1.370 . S
C1570 C1574 1.524 1_565 S
C1571 C1563 1.503 1_565 S
C1571 C1570 1.370 . S
C1571 C1572 1.403 . S
C1572 C1571 1.403 . S
C1572 C1573 1.404 . S
C1572 C1575 1.539 . S
C1573 C1569 1.408 . S
C1573 C1572 1.404 . S
C1573 H1585 0.930 . S
C1574 C1570 1.524 1_545 S
C1574 H1586 0.956 . S
C1574 H1587 0.961 . S
C1574 H1588 0.961 . S
C1575 C1572 1.539 . S
C1575 H1589 0.958 . S
C1575 H1590 0.961 . S
C1575 H1591 0.960 . S
H1576 C1560 0.931 . S
H1577 C1565 0.929 . S
H1578 C1566 0.960 . S
H1579 C1566 0.962 . S
H1580 C1566 0.960 . S
H1581 C1567 0.961 . S
H1582 C1567 0.961 . S
H1583 C1567 0.961 . S
H1584 C1568 0.931 . S
H1585 C1573 0.930 . S
H1586 C1574 0.956 . S
H1587 C1574 0.961 . S
H1588 C1574 0.961 . S
H1589 C1575 0.958 . S
H1590 C1575 0.961 . S
H1591 C1575 0.960 . S
C1592 C1593 1.391 . S
C1592 C1594 1.394 . S
C1592 H1608 0.931 . S
C1593 C1592 1.391 . S
C1593 C1597 1.376 . S
C1594 C1592 1.394 . S
C1594 C1595 1.369 . S
C1594 C1598 1.531 . S
C1595 C1594 1.369 . S
C1595 C1596 1.410 . S
C1595 C1603 1.503 . S
C1596 C1595 1.410 . S
C1596 C1597 1.392 . S
C1596 C1599 1.511 . S
C1597 C1593 1.376 . S
C1597 C1596 1.392 . S
C1597 H1609 0.929 . S
C1598 C1594 1.531 . S
C1598 H1610 0.960 . S
C1598 H1611 0.962 . S
C1598 H1612 0.960 . S
C1599 C1596 1.511 . S
C1599 H1613 0.961 . S
C1599 H1614 0.961 . S
C1599 H1615 0.961 . S
C1600 C1601 1.370 . S
C1600 C1602 1.363 . S
C1600 H1616 0.931 . S
C1601 C1600 1.370 . S
C1601 C1605 1.408 . S
C1602 C1600 1.363 . S
C1602 C1603 1.370 . S
C1602 C1606 1.524 . S
C1603 C1595 1.503 . S
C1603 C1602 1.370 . S
C1603 C1604 1.403 . S
C1604 C1603 1.403 . S
C1604 C1605 1.404 . S
C1604 C1607 1.539 . S
C1605 C1601 1.408 . S
C1605 C1604 1.404 . S
C1605 H1617 0.930 . S
C1606 C1602 1.524 . S
C1606 H1618 0.956 . S
C1606 H1619 0.961 . S
C1606 H1620 0.961 . S
C1607 C1604 1.539 . S
C1607 H1621 0.958 . S
C1607 H1622 0.961 . S
C1607 H1623 0.960 . S
H1608 C1592 0.931 . S
H1609 C1597 0.929 . S
H1610 C1598 0.960 . S
H1611 C1598 0.962 . S
H1612 C1598 0.960 . S
H1613 C1599 0.961 . S
H1614 C1599 0.961 . S
H1615 C1599 0.961 . S
H1616 C1600 0.931 . S
H1617 C1605 0.930 . S
H1618 C1606 0.956 . S
H1619 C1606 0.961 . S
H1620 C1606 0.961 . S
H1621 C1607 0.958 . S
H1622 C1607 0.961 . S
H1623 C1607 0.960 . S
C1624 C1625 1.391 . S
C1624 C1626 1.394 . S
C1624 H1640 0.931 . S
C1625 C1624 1.391 . S
C1625 C1629 1.376 . S
C1626 C1624 1.394 . S
C1626 C1627 1.369 . S
C1626 C1630 1.531 . S
C1627 C1626 1.369 . S
C1627 C1628 1.410 . S
C1627 C1635 1.503 1_455 S
C1628 C1627 1.410 . S
C1628 C1629 1.392 . S
C1628 C1631 1.511 1_455 S
C1629 C1625 1.376 . S
C1629 C1628 1.392 . S
C1629 H1641 0.929 . S
C1630 C1626 1.531 . S
C1630 H1642 0.960 . S
C1630 H1643 0.962 . S
C1630 H1644 0.960 . S
C1631 C1628 1.511 1_655 S
C1631 H1645 0.961 . S
C1631 H1646 0.961 . S
C1631 H1647 0.961 . S
C1632 C1633 1.370 . S
C1632 C1634 1.363 . S
C1632 H1648 0.931 . S
C1633 C1632 1.370 . S
C1633 C1637 1.408 . S
C1634 C1632 1.363 . S
C1634 C1635 1.370 . S
C1634 C1638 1.524 . S
C1635 C1627 1.503 1_655 S
C1635 C1634 1.370 . S
C1635 C1636 1.403 . S
C1636 C1635 1.403 . S
C1636 C1637 1.404 . S
C1636 C1639 1.539 . S
C1637 C1633 1.408 . S
C1637 C1636 1.404 . S
C1637 H1649 0.930 . S
C1638 C1634 1.524 . S
C1638 H1650 0.956 . S
C1638 H1651 0.961 . S
C1638 H1652 0.961 . S
C1639 C1636 1.539 . S
C1639 H1653 0.958 1_655 S
C1639 H1654 0.961 . S
C1639 H1655 0.960 1_655 S
H1640 C1624 0.931 . S
H1641 C1629 0.929 . S
H1642 C1630 0.960 . S
H1643 C1630 0.962 . S
H1644 C1630 0.960 . S
H1645 C1631 0.961 . S
H1646 C1631 0.961 . S
H1647 C1631 0.961 . S
H1648 C1632 0.931 . S
H1649 C1637 0.930 . S
H1650 C1638 0.956 . S
H1651 C1638 0.961 . S
H1652 C1638 0.961 . S
H1653 C1639 0.958 1_455 S
H1654 C1639 0.961 . S
H1655 C1639 0.960 1_455 S
C1656 C1657 1.391 . S
C1656 C1658 1.394 . S
C1656 H1672 0.931 . S
C1657 C1656 1.391 . S
C1657 C1661 1.376 . S
C1658 C1656 1.394 . S
C1658 C1659 1.369 . S
C1658 C1662 1.531 . S
C1659 C1658 1.369 . S
C1659 C1660 1.410 . S
C1659 C1667 1.503 1_565 S
C1660 C1659 1.410 . S
C1660 C1661 1.392 . S
C1660 C1663 1.511 . S
C1661 C1657 1.376 . S
C1661 C1660 1.392 . S
C1661 H1673 0.929 . S
C1662 C1658 1.531 . S
C1662 H1674 0.960 1_565 S
C1662 H1675 0.962 . S
C1662 H1676 0.960 . S
C1663 C1660 1.511 . S
C1663 H1677 0.961 . S
C1663 H1678 0.961 1_565 S
C1663 H1679 0.961 1_565 S
C1664 C1665 1.370 . S
C1664 C1666 1.363 . S
C1664 H1680 0.931 . S
C1665 C1664 1.370 . S
C1665 C1669 1.408 . S
C1666 C1664 1.363 . S
C1666 C1667 1.370 . S
C1666 C1670 1.524 1_545 S
C1667 C1659 1.503 1_545 S
C1667 C1666 1.370 . S
C1667 C1668 1.403 . S
C1668 C1667 1.403 . S
C1668 C1669 1.404 . S
C1668 C1671 1.539 . S
C1669 C1665 1.408 . S
C1669 C1668 1.404 . S
C1669 H1681 0.930 . S
C1670 C1666 1.524 1_565 S
C1670 H1682 0.956 . S
C1670 H1683 0.961 . S
C1670 H1684 0.961 . S
C1671 C1668 1.539 . S
C1671 H1685 0.958 . S
C1671 H1686 0.961 . S
C1671 H1687 0.960 . S
H1672 C1656 0.931 . S
H1673 C1661 0.929 . S
H1674 C1662 0.960 1_545 S
H1675 C1662 0.962 . S
H1676 C1662 0.960 . S
H1677 C1663 0.961 . S
H1678 C1663 0.961 1_545 S
H1679 C1663 0.961 1_545 S
H1680 C1664 0.931 . S
H1681 C1669 0.930 . S
H1682 C1670 0.956 . S
H1683 C1670 0.961 . S
H1684 C1670 0.961 . S
H1685 C1671 0.958 . S
H1686 C1671 0.961 . S
H1687 C1671 0.960 . S
C1688 C1689 1.391 . S
C1688 C1690 1.394 . S
C1688 H1704 0.931 . S
C1689 C1688 1.391 . S
C1689 C1693 1.376 . S
C1690 C1688 1.394 . S
C1690 C1691 1.369 . S
C1690 C1694 1.531 . S
C1691 C1690 1.369 . S
C1691 C1692 1.410 . S
C1691 C1699 1.503 . S
C1692 C1691 1.410 . S
C1692 C1693 1.392 . S
C1692 C1695 1.511 . S
C1693 C1689 1.376 . S
C1693 C1692 1.392 . S
C1693 H1705 0.929 . S
C1694 C1690 1.531 . S
C1694 H1706 0.960 . S
C1694 H1707 0.962 . S
C1694 H1708 0.960 . S
C1695 C1692 1.511 . S
C1695 H1709 0.961 . S
C1695 H1710 0.961 . S
C1695 H1711 0.961 . S
C1696 C1697 1.370 . S
C1696 C1698 1.363 . S
C1696 H1712 0.931 . S
C1697 C1696 1.370 . S
C1697 C1701 1.408 . S
C1698 C1696 1.363 . S
C1698 C1699 1.370 . S
C1698 C1702 1.524 . S
C1699 C1691 1.503 . S
C1699 C1698 1.370 . S
C1699 C1700 1.403 . S
C1700 C1699 1.403 . S
C1700 C1701 1.404 . S
C1700 C1703 1.539 . S
C1701 C1697 1.408 . S
C1701 C1700 1.404 . S
C1701 H1713 0.930 . S
C1702 C1698 1.524 . S
C1702 H1714 0.956 . S
C1702 H1715 0.961 . S
C1702 H1716 0.961 . S
C1703 C1700 1.539 . S
C1703 H1717 0.958 . S
C1703 H1718 0.961 . S
C1703 H1719 0.960 . S
H1704 C1688 0.931 . S
H1705 C1693 0.929 . S
H1706 C1694 0.960 . S
H1707 C1694 0.962 . S
H1708 C1694 0.960 . S
H1709 C1695 0.961 . S
H1710 C1695 0.961 . S
H1711 C1695 0.961 . S
H1712 C1696 0.931 . S
H1713 C1701 0.930 . S
H1714 C1702 0.956 . S
H1715 C1702 0.961 . S
H1716 C1702 0.961 . S
H1717 C1703 0.958 . S
H1718 C1703 0.961 . S
H1719 C1703 0.960 . S
C1720 C1721 1.391 . S
C1720 C1722 1.394 . S
C1720 H1736 0.931 . S
C1721 C1720 1.391 . S
C1721 C1725 1.376 . S
C1722 C1720 1.394 . S
C1722 C1723 1.369 . S
C1722 C1726 1.531 1_655 S
C1723 C1722 1.369 . S
C1723 C1724 1.410 . S
C1723 C1731 1.503 1_655 S
C1724 C1723 1.410 . S
C1724 C1725 1.392 . S
C1724 C1727 1.511 . S
C1725 C1721 1.376 . S
C1725 C1724 1.392 . S
C1725 H1737 0.929 . S
C1726 C1722 1.531 1_455 S
C1726 H1738 0.960 . S
C1726 H1739 0.962 . S
C1726 H1740 0.960 . S
C1727 C1724 1.511 . S
C1727 H1741 0.961 . S
C1727 H1742 0.961 . S
C1727 H1743 0.961 . S
C1728 C1729 1.370 . S
C1728 C1730 1.363 . S
C1728 H1744 0.931 . S
C1729 C1728 1.370 . S
C1729 C1733 1.408 . S
C1730 C1728 1.363 . S
C1730 C1731 1.370 . S
C1730 C1734 1.524 . S
C1731 C1723 1.503 1_455 S
C1731 C1730 1.370 . S
C1731 C1732 1.403 . S
C1732 C1731 1.403 . S
C1732 C1733 1.404 . S
C1732 C1735 1.539 . S
C1733 C1729 1.408 . S
C1733 C1732 1.404 . S
C1733 H1745 0.930 . S
C1734 C1730 1.524 . S
C1734 H1746 0.956 . S
C1734 H1747 0.961 1_455 S
C1734 H1748 0.961 . S
C1735 C1732 1.539 . S
C1735 H1749 0.958 . S
C1735 H1750 0.961 . S
C1735 H1751 0.960 1_455 S
H1736 C1720 0.931 . S
H1737 C1725 0.929 . S
H1738 C1726 0.960 . S
H1739 C1726 0.962 . S
H1740 C1726 0.960 . S
H1741 C1727 0.961 . S
H1742 C1727 0.961 . S
H1743 C1727 0.961 . S
H1744 C1728 0.931 . S
H1745 C1733 0.930 . S
H1746 C1734 0.956 . S
H1747 C1734 0.961 1_655 S
H1748 C1734 0.961 . S
H1749 C1735 0.958 . S
H1750 C1735 0.961 . S
H1751 C1735 0.960 1_655 S
C1752 C1753 1.391 . S
C1752 C1754 1.394 . S
C1752 H1768 0.931 . S
C1753 C1752 1.391 . S
C1753 C1757 1.376 . S
C1754 C1752 1.394 . S
C1754 C1755 1.369 . S
C1754 C1758 1.531 1_565 S
C1755 C1754 1.369 . S
C1755 C1756 1.410 . S
C1755 C1763 1.503 1_565 S
C1756 C1755 1.410 . S
C1756 C1757 1.392 . S
C1756 C1759 1.511 . S
C1757 C1753 1.376 . S
C1757 C1756 1.392 . S
C1757 H1769 0.929 . S
C1758 C1754 1.531 1_545 S
C1758 H1770 0.960 . S
C1758 H1771 0.962 . S
C1758 H1772 0.960 . S
C1759 C1756 1.511 . S
C1759 H1773 0.961 . S
C1759 H1774 0.961 . S
C1759 H1775 0.961 . S
C1760 C1761 1.370 . S
C1760 C1762 1.363 . S
C1760 H1776 0.931 . S
C1761 C1760 1.370 . S
C1761 C1765 1.408 . S
C1762 C1760 1.363 . S
C1762 C1763 1.370 . S
C1762 C1766 1.524 1_545 S
C1763 C1755 1.503 1_545 S
C1763 C1762 1.370 . S
C1763 C1764 1.403 . S
C1764 C1763 1.403 . S
C1764 C1765 1.404 . S
C1764 C1767 1.539 . S
C1765 C1761 1.408 . S
C1765 C1764 1.404 . S
C1765 H1777 0.930 . S
C1766 C1762 1.524 1_565 S
C1766 H1778 0.956 . S
C1766 H1779 0.961 . S
C1766 H1780 0.961 . S
C1767 C1764 1.539 . S
C1767 H1781 0.958 . S
C1767 H1782 0.961 . S
C1767 H1783 0.960 . S
H1768 C1752 0.931 . S
H1769 C1757 0.929 . S
H1770 C1758 0.960 . S
H1771 C1758 0.962 . S
H1772 C1758 0.960 . S
H1773 C1759 0.961 . S
H1774 C1759 0.961 . S
H1775 C1759 0.961 . S
H1776 C1760 0.931 . S
H1777 C1765 0.930 . S
H1778 C1766 0.956 . S
H1779 C1766 0.961 . S
H1780 C1766 0.961 . S
H1781 C1767 0.958 . S
H1782 C1767 0.961 . S
H1783 C1767 0.960 . S
C1784 C1785 1.391 . S
C1784 C1786 1.394 . S
C1784 H1800 0.931 . S
C1785 C1784 1.391 . S
C1785 C1789 1.376 . S
C1786 C1784 1.394 . S
C1786 C1787 1.369 . S
C1786 C1790 1.531 . S
C1787 C1786 1.369 . S
C1787 C1788 1.410 . S
C1787 C1795 1.503 . S
C1788 C1787 1.410 . S
C1788 C1789 1.392 . S
C1788 C1791 1.511 . S
C1789 C1785 1.376 . S
C1789 C1788 1.392 . S
C1789 H1801 0.929 . S
C1790 C1786 1.531 . S
C1790 H1802 0.960 . S
C1790 H1803 0.962 . S
C1790 H1804 0.960 . S
C1791 C1788 1.511 . S
C1791 H1805 0.961 . S
C1791 H1806 0.961 . S
C1791 H1807 0.961 . S
C1792 C1793 1.370 . S
C1792 C1794 1.363 . S
C1792 H1808 0.931 . S
C1793 C1792 1.370 . S
C1793 C1797 1.408 . S
C1794 C1792 1.363 . S
C1794 C1795 1.370 . S
C1794 C1798 1.524 . S
C1795 C1787 1.503 . S
C1795 C1794 1.370 . S
C1795 C1796 1.403 . S
C1796 C1795 1.403 . S
C1796 C1797 1.404 . S
C1796 C1799 1.539 . S
C1797 C1793 1.408 . S
C1797 C1796 1.404 . S
C1797 H1809 0.930 . S
C1798 C1794 1.524 . S
C1798 H1810 0.956 . S
C1798 H1811 0.961 . S
C1798 H1812 0.961 . S
C1799 C1796 1.539 . S
C1799 H1813 0.958 . S
C1799 H1814 0.961 . S
C1799 H1815 0.960 . S
H1800 C1784 0.931 . S
H1801 C1789 0.929 . S
H1802 C1790 0.960 . S
H1803 C1790 0.962 . S
H1804 C1790 0.960 . S
H1805 C1791 0.961 . S
H1806 C1791 0.961 . S
H1807 C1791 0.961 . S
H1808 C1792 0.931 . S
H1809 C1797 0.930 . S
H1810 C1798 0.956 . S
H1811 C1798 0.961 . S
H1812 C1798 0.961 . S
H1813 C1799 0.958 . S
H1814 C1799 0.961 . S
H1815 C1799 0.960 . S
C1816 C1817 1.391 . S
C1816 C1818 1.394 . S
C1816 H1832 0.931 . S
C1817 C1816 1.391 . S
C1817 C1821 1.376 . S
C1818 C1816 1.394 . S
C1818 C1819 1.369 . S
C1818 C1822 1.531 1_455 S
C1819 C1818 1.369 . S
C1819 C1820 1.410 . S
C1819 C1827 1.503 1_455 S
C1820 C1819 1.410 . S
C1820 C1821 1.392 . S
C1820 C1823 1.511 . S
C1821 C1817 1.376 . S
C1821 C1820 1.392 . S
C1821 H1833 0.929 . S
C1822 C1818 1.531 1_655 S
C1822 H1834 0.960 . S
C1822 H1835 0.962 . S
C1822 H1836 0.960 . S
C1823 C1820 1.511 . S
C1823 H1837 0.961 . S
C1823 H1838 0.961 . S
C1823 H1839 0.961 . S
C1824 C1825 1.370 . S
C1824 C1826 1.363 . S
C1824 H1840 0.931 . S
C1825 C1824 1.370 . S
C1825 C1829 1.408 . S
C1826 C1824 1.363 . S
C1826 C1827 1.370 . S
C1826 C1830 1.524 . S
C1827 C1819 1.503 1_655 S
C1827 C1826 1.370 . S
C1827 C1828 1.403 . S
C1828 C1827 1.403 . S
C1828 C1829 1.404 . S
C1828 C1831 1.539 . S
C1829 C1825 1.408 . S
C1829 C1828 1.404 . S
C1829 H1841 0.930 . S
C1830 C1826 1.524 . S
C1830 H1842 0.956 . S
C1830 H1843 0.961 1_655 S
C1830 H1844 0.961 . S
C1831 C1828 1.539 . S
C1831 H1845 0.958 . S
C1831 H1846 0.961 . S
C1831 H1847 0.960 1_655 S
H1832 C1816 0.931 . S
H1833 C1821 0.929 . S
H1834 C1822 0.960 . S
H1835 C1822 0.962 . S
H1836 C1822 0.960 . S
H1837 C1823 0.961 . S
H1838 C1823 0.961 . S
H1839 C1823 0.961 . S
H1840 C1824 0.931 . S
H1841 C1829 0.930 . S
H1842 C1830 0.956 . S
H1843 C1830 0.961 1_455 S
H1844 C1830 0.961 . S
H1845 C1831 0.958 . S
H1846 C1831 0.961 . S
H1847 C1831 0.960 1_455 S
C1848 C1849 1.391 . S
C1848 C1850 1.394 . S
C1848 H1864 0.931 . S
C1849 C1848 1.391 . S
C1849 C1853 1.376 . S
C1850 C1848 1.394 . S
C1850 C1851 1.369 . S
C1850 C1854 1.531 . S
C1851 C1850 1.369 . S
C1851 C1852 1.410 . S
C1851 C1859 1.503 1_545 S
C1852 C1851 1.410 . S
C1852 C1853 1.392 . S
C1852 C1855 1.511 . S
C1853 C1849 1.376 . S
C1853 C1852 1.392 . S
C1853 H1865 0.929 . S
C1854 C1850 1.531 . S
C1854 H1866 0.960 . S
C1854 H1867 0.962 . S
C1854 H1868 0.960 . S
C1855 C1852 1.511 . S
C1855 H1869 0.961 . S
C1855 H1870 0.961 1_545 S
C1855 H1871 0.961 . S
C1856 C1857 1.370 . S
C1856 C1858 1.363 . S
C1856 H1872 0.931 . S
C1857 C1856 1.370 . S
C1857 C1861 1.408 . S
C1858 C1856 1.363 . S
C1858 C1859 1.370 . S
C1858 C1862 1.524 . S
C1859 C1851 1.503 1_565 S
C1859 C1858 1.370 . S
C1859 C1860 1.403 . S
C1860 C1859 1.403 . S
C1860 C1861 1.404 . S
C1860 C1863 1.539 1_565 S
C1861 C1857 1.408 . S
C1861 C1860 1.404 . S
C1861 H1873 0.930 . S
C1862 C1858 1.524 . S
C1862 H1874 0.956 . S
C1862 H1875 0.961 . S
C1862 H1876 0.961 . S
C1863 C1860 1.539 1_545 S
C1863 H1877 0.958 . S
C1863 H1878 0.961 . S
C1863 H1879 0.960 . S
H1864 C1848 0.931 . S
H1865 C1853 0.929 . S
H1866 C1854 0.960 . S
H1867 C1854 0.962 . S
H1868 C1854 0.960 . S
H1869 C1855 0.961 . S
H1870 C1855 0.961 1_565 S
H1871 C1855 0.961 . S
H1872 C1856 0.931 . S
H1873 C1861 0.930 . S
H1874 C1862 0.956 . S
H1875 C1862 0.961 . S
H1876 C1862 0.961 . S
H1877 C1863 0.958 . S
H1878 C1863 0.961 . S
H1879 C1863 0.960 . S
C1880 C1881 1.391 . S
C1880 C1882 1.394 . S
C1880 H1896 0.931 . S
C1881 C1880 1.391 . S
C1881 C1885 1.376 . S
C1882 C1880 1.394 . S
C1882 C1883 1.369 . S
C1882 C1886 1.531 . S
C1883 C1882 1.369 . S
C1883 C1884 1.410 . S
C1883 C1891 1.503 . S
C1884 C1883 1.410 . S
C1884 C1885 1.392 . S
C1884 C1887 1.511 . S
C1885 C1881 1.376 . S
C1885 C1884 1.392 . S
C1885 H1897 0.929 . S
C1886 C1882 1.531 . S
C1886 H1898 0.960 . S
C1886 H1899 0.962 . S
C1886 H1900 0.960 . S
C1887 C1884 1.511 . S
C1887 H1901 0.961 . S
C1887 H1902 0.961 . S
C1887 H1903 0.961 . S
C1888 C1889 1.370 . S
C1888 C1890 1.363 . S
C1888 H1904 0.931 . S
C1889 C1888 1.370 . S
C1889 C1893 1.408 . S
C1890 C1888 1.363 . S
C1890 C1891 1.370 . S
C1890 C1894 1.524 . S
C1891 C1883 1.503 . S
C1891 C1890 1.370 . S
C1891 C1892 1.403 . S
C1892 C1891 1.403 . S
C1892 C1893 1.404 . S
C1892 C1895 1.539 . S
C1893 C1889 1.408 . S
C1893 C1892 1.404 . S
C1893 H1905 0.930 . S
C1894 C1890 1.524 . S
C1894 H1906 0.956 . S
C1894 H1907 0.961 . S
C1894 H1908 0.961 . S
C1895 C1892 1.539 . S
C1895 H1909 0.958 . S
C1895 H1910 0.961 . S
C1895 H1911 0.960 . S
H1896 C1880 0.931 . S
H1897 C1885 0.929 . S
H1898 C1886 0.960 . S
H1899 C1886 0.962 . S
H1900 C1886 0.960 . S
H1901 C1887 0.961 . S
H1902 C1887 0.961 . S
H1903 C1887 0.961 . S
H1904 C1888 0.931 . S
H1905 C1893 0.930 . S
H1906 C1894 0.956 . S
H1907 C1894 0.961 . S
H1908 C1894 0.961 . S
H1909 C1895 0.958 . S
H1910 C1895 0.961 . S
H1911 C1895 0.960 . S
C1912 C1913 1.391 . S
C1912 C1914 1.394 . S
C1912 H1928 0.931 . S
C1913 C1912 1.391 . S
C1913 C1917 1.376 . S
C1914 C1912 1.394 . S
C1914 C1915 1.369 . S
C1914 C1918 1.531 . S
C1915 C1914 1.369 . S
C1915 C1916 1.410 . S
C1915 C1923 1.503 1_455 S
C1916 C1915 1.410 . S
C1916 C1917 1.392 . S
C1916 C1919 1.511 . S
C1917 C1913 1.376 . S
C1917 C1916 1.392 . S
C1917 H1929 0.929 . S
C1918 C1914 1.531 . S
C1918 H1930 0.960 1_455 S
C1918 H1931 0.962 . S
C1918 H1932 0.960 . S
C1919 C1916 1.511 . S
C1919 H1933 0.961 . S
C1919 H1934 0.983 . S
C1919 H1935 0.948 1_455 S
C1920 C1921 1.370 . S
C1920 C1922 1.363 . S
C1920 H1936 0.931 . S
C1921 C1920 1.370 . S
C1921 C1925 1.408 . S
C1922 C1920 1.363 . S
C1922 C1923 1.370 . S
C1922 C1926 1.524 1_655 S
C1923 C1915 1.503 1_655 S
C1923 C1922 1.370 . S
C1923 C1924 1.403 . S
C1924 C1923 1.403 . S
C1924 C1925 1.404 . S
C1924 C1927 1.539 . S
C1925 C1921 1.408 . S
C1925 C1924 1.404 . S
C1925 H1937 0.930 . S
C1926 C1922 1.524 1_455 S
C1926 H1938 0.956 . S
C1926 H1939 0.961 . S
C1926 H1940 0.961 . S
C1927 C1924 1.539 . S
C1927 H1941 0.958 . S
C1927 H1942 0.961 . S
C1927 H1943 0.960 . S
H1928 C1912 0.931 . S
H1929 C1917 0.929 . S
H1930 C1918 0.960 1_655 S
H1931 C1918 0.962 . S
H1932 C1918 0.960 . S
H1933 C1919 0.961 . S
H1934 C1919 0.983 . S
H1935 C1919 0.948 1_655 S
H1936 C1920 0.931 . S
H1937 C1925 0.930 . S
H1938 C1926 0.956 . S
H1939 C1926 0.961 . S
H1940 C1926 0.961 . S
H1941 C1927 0.958 . S
H1942 C1927 0.961 . S
H1943 C1927 0.960 . S
C1944 C1945 1.391 . S
C1944 C1946 1.394 . S
C1944 H1960 0.931 . S
C1945 C1944 1.391 . S
C1945 C1949 1.376 . S
C1946 C1944 1.394 . S
C1946 C1947 1.369 . S
C1946 C1950 1.531 . S
C1947 C1946 1.369 . S
C1947 C1948 1.410 . S
C1947 C1955 1.503 . S
C1948 C1947 1.410 . S
C1948 C1949 1.392 . S
C1948 C1951 1.511 . S
C1949 C1945 1.376 . S
C1949 C1948 1.392 . S
C1949 H1961 0.929 . S
C1950 C1946 1.531 . S
C1950 H1962 0.960 . S
C1950 H1963 0.962 . S
C1950 H1964 0.960 . S
C1951 C1948 1.511 . S
C1951 H1965 0.961 . S
C1951 H1966 0.961 . S
C1951 H1967 0.961 . S
C1952 C1953 1.370 . S
C1952 C1954 1.363 . S
C1952 H1968 0.931 . S
C1953 C1952 1.370 . S
C1953 C1957 1.408 . S
C1954 C1952 1.363 . S
C1954 C1955 1.370 . S
C1954 C1958 1.524 . S
C1955 C1947 1.503 . S
C1955 C1954 1.370 . S
C1955 C1956 1.403 . S
C1956 C1955 1.403 . S
C1956 C1957 1.404 . S
C1956 C1959 1.539 . S
C1957 C1953 1.408 . S
C1957 C1956 1.404 . S
C1957 H1969 0.930 . S
C1958 C1954 1.524 . S
C1958 H1970 0.956 . S
C1958 H1971 0.961 . S
C1958 H1972 0.961 . S
C1959 C1956 1.539 . S
C1959 H1973 0.958 . S
C1959 H1974 0.961 . S
C1959 H1975 0.960 . S
H1960 C1944 0.931 . S
H1961 C1949 0.929 . S
H1962 C1950 0.960 . S
H1963 C1950 0.962 . S
H1964 C1950 0.960 . S
H1965 C1951 0.961 . S
H1966 C1951 0.961 . S
H1967 C1951 0.961 . S
H1968 C1952 0.931 . S
H1969 C1957 0.930 . S
H1970 C1958 0.956 . S
H1971 C1958 0.961 . S
H1972 C1958 0.961 . S
H1973 C1959 0.958 . S
H1974 C1959 0.961 . S
H1975 C1959 0.960 . S
C1976 C1977 1.391 . S
C1976 C1978 1.394 . S
C1976 H1992 0.931 . S
C1977 C1976 1.391 . S
C1977 C1981 1.376 . S
C1978 C1976 1.394 . S
C1978 C1979 1.369 . S
C1978 C1982 1.531 . S
C1979 C1978 1.369 . S
C1979 C1980 1.410 . S
C1979 C1987 1.503 . S
C1980 C1979 1.410 . S
C1980 C1981 1.392 . S
C1980 C1983 1.511 . S
C1981 C1977 1.376 . S
C1981 C1980 1.392 . S
C1981 H1993 0.929 . S
C1982 C1978 1.531 . S
C1982 H1994 0.960 . S
C1982 H1995 0.962 . S
C1982 H1996 0.960 . S
C1983 C1980 1.511 . S
C1983 H1997 0.961 . S
C1983 H1998 0.961 . S
C1983 H1999 0.961 . S
C1984 C1985 1.370 . S
C1984 C1986 1.363 . S
C1984 H2000 0.931 . S
C1985 C1984 1.370 . S
C1985 C1989 1.408 . S
C1986 C1984 1.363 . S
C1986 C1987 1.370 . S
C1986 C1990 1.524 . S
C1987 C1979 1.503 . S
C1987 C1986 1.370 . S
C1987 C1988 1.403 . S
C1988 C1987 1.403 . S
C1988 C1989 1.404 . S
C1988 C1991 1.539 . S
C1989 C1985 1.408 . S
C1989 C1988 1.404 . S
C1989 H2001 0.930 . S
C1990 C1986 1.524 . S
C1990 H2002 0.956 . S
C1990 H2003 0.961 . S
C1990 H2004 0.961 . S
C1991 C1988 1.539 . S
C1991 H2005 0.958 . S
C1991 H2006 0.961 . S
C1991 H2007 0.960 . S
H1992 C1976 0.931 . S
H1993 C1981 0.929 . S
H1994 C1982 0.960 . S
H1995 C1982 0.962 . S
H1996 C1982 0.960 . S
H1997 C1983 0.961 . S
H1998 C1983 0.961 . S
H1999 C1983 0.961 . S
H2000 C1984 0.931 . S
H2001 C1989 0.930 . S
H2002 C1990 0.956 . S
H2003 C1990 0.961 . S
H2004 C1990 0.961 . S
H2005 C1991 0.958 . S
H2006 C1991 0.961 . S
H2007 C1991 0.960 . S
C2008 C2009 1.391 . S
C2008 C2010 1.394 . S
C2008 H2024 0.931 . S
C2009 C2008 1.391 . S
C2009 C2013 1.376 . S
C2010 C2008 1.394 . S
C2010 C2011 1.369 . S
C2010 C2014 1.531 . S
C2011 C2010 1.369 . S
C2011 C2012 1.410 . S
C2011 C2019 1.503 . S
C2012 C2011 1.410 . S
C2012 C2013 1.392 . S
C2012 C2015 1.511 . S
C2013 C2009 1.376 . S
C2013 C2012 1.392 . S
C2013 H2025 0.929 . S
C2014 C2010 1.531 . S
C2014 H2026 0.960 . S
C2014 H2027 0.962 . S
C2014 H2028 0.960 . S
C2015 C2012 1.511 . S
C2015 H2029 0.961 . S
C2015 H2030 0.961 . S
C2015 H2031 0.961 . S
C2016 C2017 1.370 . S
C2016 C2018 1.363 . S
C2016 H2032 0.931 . S
C2017 C2016 1.370 . S
C2017 C2021 1.408 . S
C2018 C2016 1.363 . S
C2018 C2019 1.370 . S
C2018 C2022 1.524 . S
C2019 C2011 1.503 . S
C2019 C2018 1.370 . S
C2019 C2020 1.403 . S
C2020 C2019 1.403 . S
C2020 C2021 1.404 . S
C2020 C2023 1.539 . S
C2021 C2017 1.408 . S
C2021 C2020 1.404 . S
C2021 H2033 0.930 . S
C2022 C2018 1.524 . S
C2022 H2034 0.956 . S
C2022 H2035 0.961 . S
C2022 H2036 0.961 . S
C2023 C2020 1.539 . S
C2023 H2037 0.958 . S
C2023 H2038 0.961 . S
C2023 H2039 0.960 . S
H2024 C2008 0.931 . S
H2025 C2013 0.929 . S
H2026 C2014 0.960 . S
H2027 C2014 0.962 . S
H2028 C2014 0.960 . S
H2029 C2015 0.961 . S
H2030 C2015 0.961 . S
H2031 C2015 0.961 . S
H2032 C2016 0.931 . S
H2033 C2021 0.930 . S
H2034 C2022 0.956 . S
H2035 C2022 0.961 . S
H2036 C2022 0.961 . S
H2037 C2023 0.958 . S
H2038 C2023 0.961 . S
H2039 C2023 0.960 . S
C2040 C2041 1.391 . S
C2040 C2042 1.394 . S
C2040 H2056 0.931 . S
C2041 C2040 1.391 . S
C2041 C2045 1.376 . S
C2042 C2040 1.394 . S
C2042 C2043 1.369 . S
C2042 C2046 1.531 . S
C2043 C2042 1.369 . S
C2043 C2044 1.410 . S
C2043 C2051 1.503 . S
C2044 C2043 1.410 . S
C2044 C2045 1.392 . S
C2044 C2047 1.511 . S
C2045 C2041 1.376 . S
C2045 C2044 1.392 . S
C2045 H2057 0.929 . S
C2046 C2042 1.531 . S
C2046 H2058 0.960 . S
C2046 H2059 0.962 . S
C2046 H2060 0.960 . S
C2047 C2044 1.511 . S
C2047 H2061 0.961 . S
C2047 H2062 0.961 . S
C2047 H2063 0.961 . S
C2048 C2049 1.370 . S
C2048 C2050 1.363 . S
C2048 H2064 0.931 . S
C2049 C2048 1.370 . S
C2049 C2053 1.408 . S
C2050 C2048 1.363 . S
C2050 C2051 1.370 . S
C2050 C2054 1.524 . S
C2051 C2043 1.503 . S
C2051 C2050 1.370 . S
C2051 C2052 1.403 . S
C2052 C2051 1.403 . S
C2052 C2053 1.404 . S
C2052 C2055 1.539 . S
C2053 C2049 1.408 . S
C2053 C2052 1.404 . S
C2053 H2065 0.930 . S
C2054 C2050 1.524 . S
C2054 H2066 0.956 . S
C2054 H2067 0.961 . S
C2054 H2068 0.961 . S
C2055 C2052 1.539 . S
C2055 H2069 0.958 . S
C2055 H2070 0.961 . S
C2055 H2071 0.960 . S
H2056 C2040 0.931 . S
H2057 C2045 0.929 . S
H2058 C2046 0.960 . S
H2059 C2046 0.962 . S
H2060 C2046 0.960 . S
H2061 C2047 0.961 . S
H2062 C2047 0.961 . S
H2063 C2047 0.961 . S
H2064 C2048 0.931 . S
H2065 C2053 0.930 . S
H2066 C2054 0.956 . S
H2067 C2054 0.961 . S
H2068 C2054 0.961 . S
H2069 C2055 0.958 . S
H2070 C2055 0.961 . S
H2071 C2055 0.960 . S
C2072 C2073 1.391 . S
C2072 C2074 1.394 . S
C2072 H2088 0.931 . S
C2073 C2072 1.391 . S
C2073 C2077 1.376 . S
C2074 C2072 1.394 . S
C2074 C2075 1.369 . S
C2074 C2078 1.531 . S
C2075 C2074 1.369 . S
C2075 C2076 1.410 . S
C2075 C2083 1.503 . S
C2076 C2075 1.410 . S
C2076 C2077 1.392 . S
C2076 C2079 1.511 . S
C2077 C2073 1.376 . S
C2077 C2076 1.392 . S
C2077 H2089 0.929 . S
C2078 C2074 1.531 . S
C2078 H2090 0.960 . S
C2078 H2091 0.962 . S
C2078 H2092 0.960 . S
C2079 C2076 1.511 . S
C2079 H2093 0.961 . S
C2079 H2094 0.961 . S
C2079 H2095 0.961 . S
C2080 C2081 1.370 . S
C2080 C2082 1.363 . S
C2080 H2096 0.931 . S
C2081 C2080 1.370 . S
C2081 C2085 1.408 . S
C2082 C2080 1.363 . S
C2082 C2083 1.370 . S
C2082 C2086 1.524 . S
C2083 C2075 1.503 . S
C2083 C2082 1.370 . S
C2083 C2084 1.403 . S
C2084 C2083 1.403 . S
C2084 C2085 1.404 . S
C2084 C2087 1.539 . S
C2085 C2081 1.408 . S
C2085 C2084 1.404 . S
C2085 H2097 0.930 . S
C2086 C2082 1.524 . S
C2086 H2098 0.956 . S
C2086 H2099 0.961 . S
C2086 H2100 0.961 . S
C2087 C2084 1.539 . S
C2087 H2101 0.958 . S
C2087 H2102 0.961 . S
C2087 H2103 0.960 . S
H2088 C2072 0.931 . S
H2089 C2077 0.929 . S
H2090 C2078 0.960 . S
H2091 C2078 0.962 . S
H2092 C2078 0.960 . S
H2093 C2079 0.961 . S
H2094 C2079 0.961 . S
H2095 C2079 0.961 . S
H2096 C2080 0.931 . S
H2097 C2085 0.930 . S
H2098 C2086 0.956 . S
H2099 C2086 0.961 . S
H2100 C2086 0.961 . S
H2101 C2087 0.958 . S
H2102 C2087 0.961 . S
H2103 C2087 0.960 . S
C2104 C2105 1.391 . S
C2104 C2106 1.394 . S
C2104 H2120 0.931 . S
C2105 C2104 1.391 . S
C2105 C2109 1.376 . S
C2106 C2104 1.394 . S
C2106 C2107 1.369 . S
C2106 C2110 1.531 . S
C2107 C2106 1.369 . S
C2107 C2108 1.410 . S
C2107 C2115 1.503 . S
C2108 C2107 1.410 . S
C2108 C2109 1.392 . S
C2108 C2111 1.511 . S
C2109 C2105 1.376 . S
C2109 C2108 1.392 . S
C2109 H2121 0.929 . S
C2110 C2106 1.531 . S
C2110 H2122 0.960 . S
C2110 H2123 0.962 . S
C2110 H2124 0.960 . S
C2111 C2108 1.511 . S
C2111 H2125 0.961 . S
C2111 H2126 0.961 . S
C2111 H2127 0.961 . S
C2112 C2113 1.370 . S
C2112 C2114 1.363 . S
C2112 H2128 0.931 . S
C2113 C2112 1.370 . S
C2113 C2117 1.408 . S
C2114 C2112 1.363 . S
C2114 C2115 1.370 . S
C2114 C2118 1.524 . S
C2115 C2107 1.503 . S
C2115 C2114 1.370 . S
C2115 C2116 1.403 . S
C2116 C2115 1.403 . S
C2116 C2117 1.404 . S
C2116 C2119 1.539 . S
C2117 C2113 1.408 . S
C2117 C2116 1.404 . S
C2117 H2129 0.930 . S
C2118 C2114 1.524 . S
C2118 H2130 0.956 . S
C2118 H2131 0.961 . S
C2118 H2132 0.961 . S
C2119 C2116 1.539 . S
C2119 H2133 0.958 . S
C2119 H2134 0.961 . S
C2119 H2135 0.960 . S
H2120 C2104 0.931 . S
H2121 C2109 0.929 . S
H2122 C2110 0.960 . S
H2123 C2110 0.962 . S
H2124 C2110 0.960 . S
H2125 C2111 0.961 . S
H2126 C2111 0.961 . S
H2127 C2111 0.961 . S
H2128 C2112 0.931 . S
H2129 C2117 0.930 . S
H2130 C2118 0.956 . S
H2131 C2118 0.961 . S
H2132 C2118 0.961 . S
H2133 C2119 0.958 . S
H2134 C2119 0.961 . S
H2135 C2119 0.960 . S
C2136 C2137 1.391 . S
C2136 C2138 1.394 . S
C2136 H2152 0.931 . S
C2137 C2136 1.391 . S
C2137 C2141 1.376 . S
C2138 C2136 1.394 . S
C2138 C2139 1.369 . S
C2138 C2142 1.531 . S
C2139 C2138 1.369 . S
C2139 C2140 1.410 . S
C2139 C2147 1.503 . S
C2140 C2139 1.410 . S
C2140 C2141 1.392 . S
C2140 C2143 1.511 . S
C2141 C2137 1.376 . S
C2141 C2140 1.392 . S
C2141 H2153 0.929 . S
C2142 C2138 1.531 . S
C2142 H2154 0.960 . S
C2142 H2155 0.962 . S
C2142 H2156 0.960 . S
C2143 C2140 1.511 . S
C2143 H2157 0.961 . S
C2143 H2158 0.961 . S
C2143 H2159 0.961 . S
C2144 C2145 1.370 . S
C2144 C2146 1.363 . S
C2144 H2160 0.931 . S
C2145 C2144 1.370 . S
C2145 C2149 1.408 . S
C2146 C2144 1.363 . S
C2146 C2147 1.370 . S
C2146 C2150 1.524 . S
C2147 C2139 1.503 . S
C2147 C2146 1.370 . S
C2147 C2148 1.403 . S
C2148 C2147 1.403 . S
C2148 C2149 1.404 . S
C2148 C2151 1.539 . S
C2149 C2145 1.408 . S
C2149 C2148 1.404 . S
C2149 H2161 0.930 . S
C2150 C2146 1.524 . S
C2150 H2162 0.956 . S
C2150 H2163 0.961 . S
C2150 H2164 0.961 . S
C2151 C2148 1.539 . S
C2151 H2165 0.958 . S
C2151 H2166 0.961 . S
C2151 H2167 0.960 . S
H2152 C2136 0.931 . S
H2153 C2141 0.929 . S
H2154 C2142 0.960 . S
H2155 C2142 0.962 . S
H2156 C2142 0.960 . S
H2157 C2143 0.961 . S
H2158 C2143 0.961 . S
H2159 C2143 0.961 . S
H2160 C2144 0.931 . S
H2161 C2149 0.930 . S
H2162 C2150 0.956 . S
H2163 C2150 0.961 . S
H2164 C2150 0.961 . S
H2165 C2151 0.958 . S
H2166 C2151 0.961 . S
H2167 C2151 0.960 . S
C2168 C2169 1.391 . S
C2168 C2170 1.394 . S
C2168 H2184 0.931 . S
C2169 C2168 1.391 . S
C2169 C2173 1.376 . S
C2170 C2168 1.394 . S
C2170 C2171 1.369 . S
C2170 C2174 1.531 . S
C2171 C2170 1.369 . S
C2171 C2172 1.410 . S
C2171 C2179 1.503 . S
C2172 C2171 1.410 . S
C2172 C2173 1.392 . S
C2172 C2175 1.511 . S
C2173 C2169 1.376 . S
C2173 C2172 1.392 . S
C2173 H2185 0.929 . S
C2174 C2170 1.531 . S
C2174 H2186 0.960 . S
C2174 H2187 0.962 . S
C2174 H2188 0.960 . S
C2175 C2172 1.511 . S
C2175 H2189 0.961 . S
C2175 H2190 0.961 . S
C2175 H2191 0.961 . S
C2176 C2177 1.370 . S
C2176 C2178 1.363 . S
C2176 H2192 0.931 . S
C2177 C2176 1.370 . S
C2177 C2181 1.408 . S
C2178 C2176 1.363 . S
C2178 C2179 1.370 . S
C2178 C2182 1.524 . S
C2179 C2171 1.503 . S
C2179 C2178 1.370 . S
C2179 C2180 1.403 . S
C2180 C2179 1.403 . S
C2180 C2181 1.404 . S
C2180 C2183 1.539 . S
C2181 C2177 1.408 . S
C2181 C2180 1.404 . S
C2181 H2193 0.930 . S
C2182 C2178 1.524 . S
C2182 H2194 0.956 . S
C2182 H2195 0.961 . S
C2182 H2196 0.961 . S
C2183 C2180 1.539 . S
C2183 H2197 0.958 . S
C2183 H2198 0.961 . S
C2183 H2199 0.960 . S
H2184 C2168 0.931 . S
H2185 C2173 0.929 . S
H2186 C2174 0.960 . S
H2187 C2174 0.962 . S
H2188 C2174 0.960 . S
H2189 C2175 0.961 . S
H2190 C2175 0.961 . S
H2191 C2175 0.961 . S
H2192 C2176 0.931 . S
H2193 C2181 0.930 . S
H2194 C2182 0.956 . S
H2195 C2182 0.961 . S
H2196 C2182 0.961 . S
H2197 C2183 0.958 . S
H2198 C2183 0.961 . S
H2199 C2183 0.960 . S
C2200 C2201 1.391 . S
C2200 C2202 1.394 . S
C2200 H2216 0.931 . S
C2201 C2200 1.391 . S
C2201 C2205 1.376 . S
C2202 C2200 1.394 . S
C2202 C2203 1.369 . S
C2202 C2206 1.531 . S
C2203 C2202 1.369 . S
C2203 C2204 1.410 . S
C2203 C2211 1.503 . S
C2204 C2203 1.410 . S
C2204 C2205 1.392 . S
C2204 C2207 1.511 . S
C2205 C2201 1.376 . S
C2205 C2204 1.392 . S
C2205 H2217 0.929 . S
C2206 C2202 1.531 . S
C2206 H2218 0.960 . S
C2206 H2219 0.962 . S
C2206 H2220 0.960 . S
C2207 C2204 1.511 . S
C2207 H2221 0.961 . S
C2207 H2222 0.961 . S
C2207 H2223 0.961 . S
C2208 C2209 1.370 . S
C2208 C2210 1.363 . S
C2208 H2224 0.931 . S
C2209 C2208 1.370 . S
C2209 C2213 1.408 . S
C2210 C2208 1.363 . S
C2210 C2211 1.370 . S
C2210 C2214 1.524 . S
C2211 C2203 1.503 . S
C2211 C2210 1.370 . S
C2211 C2212 1.403 . S
C2212 C2211 1.403 . S
C2212 C2213 1.404 . S
C2212 C2215 1.539 . S
C2213 C2209 1.408 . S
C2213 C2212 1.404 . S
C2213 H2225 0.930 . S
C2214 C2210 1.524 . S
C2214 H2226 0.956 . S
C2214 H2227 0.961 . S
C2214 H2228 0.961 . S
C2215 C2212 1.539 . S
C2215 H2229 0.958 . S
C2215 H2230 0.961 . S
C2215 H2231 0.960 . S
H2216 C2200 0.931 . S
H2217 C2205 0.929 . S
H2218 C2206 0.960 . S
H2219 C2206 0.962 . S
H2220 C2206 0.960 . S
H2221 C2207 0.961 . S
H2222 C2207 0.961 . S
H2223 C2207 0.961 . S
H2224 C2208 0.931 . S
H2225 C2213 0.930 . S
H2226 C2214 0.956 . S
H2227 C2214 0.961 . S
H2228 C2214 0.961 . S
H2229 C2215 0.958 . S
H2230 C2215 0.961 . S
H2231 C2215 0.960 . S
C2232 C2233 1.391 . S
C2232 C2234 1.394 . S
C2232 H2248 0.931 . S
C2233 C2232 1.391 . S
C2233 C2237 1.376 . S
C2234 C2232 1.394 . S
C2234 C2235 1.369 . S
C2234 C2238 1.531 . S
C2235 C2234 1.369 . S
C2235 C2236 1.410 . S
C2235 C2243 1.503 . S
C2236 C2235 1.410 . S
C2236 C2237 1.392 . S
C2236 C2239 1.511 . S
C2237 C2233 1.376 . S
C2237 C2236 1.392 . S
C2237 H2249 0.929 . S
C2238 C2234 1.531 . S
C2238 H2250 0.960 . S
C2238 H2251 0.962 . S
C2238 H2252 0.960 . S
C2239 C2236 1.511 . S
C2239 H2253 0.961 . S
C2239 H2254 0.961 . S
C2239 H2255 0.961 . S
C2240 C2241 1.370 . S
C2240 C2242 1.363 . S
C2240 H2256 0.931 . S
C2241 C2240 1.370 . S
C2241 C2245 1.408 . S
C2242 C2240 1.363 . S
C2242 C2243 1.370 . S
C2242 C2246 1.524 . S
C2243 C2235 1.503 . S
C2243 C2242 1.370 . S
C2243 C2244 1.403 . S
C2244 C2243 1.403 . S
C2244 C2245 1.404 . S
C2244 C2247 1.539 . S
C2245 C2241 1.408 . S
C2245 C2244 1.404 . S
C2245 H2257 0.930 . S
C2246 C2242 1.524 . S
C2246 H2258 0.956 . S
C2246 H2259 0.961 . S
C2246 H2260 0.961 . S
C2247 C2244 1.539 . S
C2247 H2261 0.958 . S
C2247 H2262 0.961 . S
C2247 H2263 0.960 . S
H2248 C2232 0.931 . S
H2249 C2237 0.929 . S
H2250 C2238 0.960 . S
H2251 C2238 0.962 . S
H2252 C2238 0.960 . S
H2253 C2239 0.961 . S
H2254 C2239 0.961 . S
H2255 C2239 0.961 . S
H2256 C2240 0.931 . S
H2257 C2245 0.930 . S
H2258 C2246 0.956 . S
H2259 C2246 0.961 . S
H2260 C2246 0.961 . S
H2261 C2247 0.958 . S
H2262 C2247 0.961 . S
H2263 C2247 0.960 . S
C2264 C2265 1.391 . S
C2264 C2266 1.394 . S
C2264 H2280 0.931 . S
C2265 C2264 1.391 . S
C2265 C2269 1.376 . S
C2266 C2264 1.394 . S
C2266 C2267 1.369 . S
C2266 C2270 1.531 . S
C2267 C2266 1.369 . S
C2267 C2268 1.410 . S
C2267 C2275 1.503 . S
C2268 C2267 1.410 . S
C2268 C2269 1.392 . S
C2268 C2271 1.511 . S
C2269 C2265 1.376 . S
C2269 C2268 1.392 . S
C2269 H2281 0.929 . S
C2270 C2266 1.531 . S
C2270 H2282 0.960 . S
C2270 H2283 0.962 . S
C2270 H2284 0.960 . S
C2271 C2268 1.511 . S
C2271 H2285 0.961 . S
C2271 H2286 0.961 . S
C2271 H2287 0.961 . S
C2272 C2273 1.370 . S
C2272 C2274 1.363 . S
C2272 H2288 0.931 . S
C2273 C2272 1.370 . S
C2273 C2277 1.408 . S
C2274 C2272 1.363 . S
C2274 C2275 1.370 . S
C2274 C2278 1.524 . S
C2275 C2267 1.503 . S
C2275 C2274 1.370 . S
C2275 C2276 1.403 . S
C2276 C2275 1.403 . S
C2276 C2277 1.404 . S
C2276 C2279 1.539 . S
C2277 C2273 1.408 . S
C2277 C2276 1.404 . S
C2277 H2289 0.930 . S
C2278 C2274 1.524 . S
C2278 H2290 0.956 . S
C2278 H2291 0.961 . S
C2278 H2292 0.961 . S
C2279 C2276 1.539 . S
C2279 H2293 0.958 . S
C2279 H2294 0.961 . S
C2279 H2295 0.960 . S
H2280 C2264 0.931 . S
H2281 C2269 0.929 . S
H2282 C2270 0.960 . S
H2283 C2270 0.962 . S
H2284 C2270 0.960 . S
H2285 C2271 0.961 . S
H2286 C2271 0.961 . S
H2287 C2271 0.961 . S
H2288 C2272 0.931 . S
H2289 C2277 0.930 . S
H2290 C2278 0.956 . S
H2291 C2278 0.961 . S
H2292 C2278 0.961 . S
H2293 C2279 0.958 . S
H2294 C2279 0.961 . S
H2295 C2279 0.960 . S
C2296 C2297 1.391 . S
C2296 C2298 1.394 . S
C2296 H2312 0.931 . S
C2297 C2296 1.391 . S
C2297 C2301 1.376 . S
C2298 C2296 1.394 . S
C2298 C2299 1.369 . S
C2298 C2302 1.531 . S
C2299 C2298 1.369 . S
C2299 C2300 1.410 . S
C2299 C2307 1.503 . S
C2300 C2299 1.410 . S
C2300 C2301 1.392 . S
C2300 C2303 1.511 . S
C2301 C2297 1.376 . S
C2301 C2300 1.392 . S
C2301 H2313 0.929 . S
C2302 C2298 1.531 . S
C2302 H2314 0.960 . S
C2302 H2315 0.962 . S
C2302 H2316 0.960 . S
C2303 C2300 1.511 . S
C2303 H2317 0.961 . S
C2303 H2318 0.961 . S
C2303 H2319 0.961 . S
C2304 C2305 1.370 . S
C2304 C2306 1.363 . S
C2304 H2320 0.931 . S
C2305 C2304 1.370 . S
C2305 C2309 1.408 . S
C2306 C2304 1.363 . S
C2306 C2307 1.370 . S
C2306 C2310 1.524 . S
C2307 C2299 1.503 . S
C2307 C2306 1.370 . S
C2307 C2308 1.403 . S
C2308 C2307 1.403 . S
C2308 C2309 1.404 . S
C2308 C2311 1.539 . S
C2309 C2305 1.408 . S
C2309 C2308 1.404 . S
C2309 H2321 0.930 . S
C2310 C2306 1.524 . S
C2310 H2322 0.956 . S
C2310 H2323 0.961 . S
C2310 H2324 0.961 . S
C2311 C2308 1.539 . S
C2311 H2325 0.958 . S
C2311 H2326 0.961 . S
C2311 H2327 0.960 . S
H2312 C2296 0.931 . S
H2313 C2301 0.929 . S
H2314 C2302 0.960 . S
H2315 C2302 0.962 . S
H2316 C2302 0.960 . S
H2317 C2303 0.961 . S
H2318 C2303 0.961 . S
H2319 C2303 0.961 . S
H2320 C2304 0.931 . S
H2321 C2309 0.930 . S
H2322 C2310 0.956 . S
H2323 C2310 0.961 . S
H2324 C2310 0.961 . S
H2325 C2311 0.958 . S
H2326 C2311 0.961 . S
H2327 C2311 0.960 . S
C2328 C2329 1.391 . S
C2328 C2330 1.394 . S
C2328 H2344 0.931 . S
C2329 C2328 1.391 . S
C2329 C2333 1.376 . S
C2330 C2328 1.394 . S
C2330 C2331 1.369 . S
C2330 C2334 1.531 . S
C2331 C2330 1.369 . S
C2331 C2332 1.410 . S
C2331 C2339 1.503 1_554 S
C2332 C2331 1.410 . S
C2332 C2333 1.392 . S
C2332 C2335 1.511 . S
C2333 C2329 1.376 . S
C2333 C2332 1.392 . S
C2333 H2345 0.929 . S
C2334 C2330 1.531 . S
C2334 H2346 0.960 1_554 S
C2334 H2347 0.962 . S
C2334 H2348 0.960 . S
C2335 C2332 1.511 . S
C2335 H2349 0.961 . S
C2335 H2350 0.961 1_554 S
C2335 H2351 0.961 . S
C2336 C2337 1.370 . S
C2336 C2338 1.363 . S
C2336 H2352 0.931 . S
C2337 C2336 1.370 . S
C2337 C2341 1.408 . S
C2338 C2336 1.363 . S
C2338 C2339 1.370 . S
C2338 C2342 1.524 . S
C2339 C2331 1.503 1_556 S
C2339 C2338 1.370 . S
C2339 C2340 1.403 . S
C2340 C2339 1.403 . S
C2340 C2341 1.404 . S
C2340 C2343 1.539 . S
C2341 C2337 1.408 . S
C2341 C2340 1.404 . S
C2341 H2353 0.930 . S
C2342 C2338 1.524 . S
C2342 H2354 0.956 . S
C2342 H2355 0.961 1_556 S
C2342 H2356 0.961 . S
C2343 C2340 1.539 . S
C2343 H2357 0.958 . S
C2343 H2358 0.961 . S
C2343 H2359 0.971 . S
H2344 C2328 0.931 . S
H2345 C2333 0.929 . S
H2346 C2334 0.960 1_556 S
H2347 C2334 0.962 . S
H2348 C2334 0.960 . S
H2349 C2335 0.961 . S
H2350 C2335 0.961 1_556 S
H2351 C2335 0.961 . S
H2352 C2336 0.931 . S
H2353 C2341 0.930 . S
H2354 C2342 0.956 . S
H2355 C2342 0.961 1_554 S
H2356 C2342 0.961 . S
H2357 C2343 0.958 . S
H2358 C2343 0.961 . S
H2359 C2343 0.971 . S
C2360 C2361 1.391 . S
C2360 C2362 1.394 . S
C2360 H2376 0.931 . S
C2361 C2360 1.391 . S
C2361 C2365 1.376 . S
C2362 C2360 1.394 . S
C2362 C2363 1.369 . S
C2362 C2366 1.531 . S
C2363 C2362 1.369 . S
C2363 C2364 1.410 . S
C2363 C2371 1.503 1_554 S
C2364 C2363 1.410 . S
C2364 C2365 1.392 . S
C2364 C2367 1.511 . S
C2365 C2361 1.376 . S
C2365 C2364 1.392 . S
C2365 H2377 0.929 . S
C2366 C2362 1.531 . S
C2366 H2378 0.960 1_554 S
C2366 H2379 0.962 . S
C2366 H2380 0.960 . S
C2367 C2364 1.511 . S
C2367 H2381 0.961 . S
C2367 H2382 0.961 1_554 S
C2367 H2383 0.961 . S
C2368 C2369 1.370 . S
C2368 C2370 1.363 . S
C2368 H2384 0.931 . S
C2369 C2368 1.370 . S
C2369 C2373 1.408 . S
C2370 C2368 1.363 . S
C2370 C2371 1.370 . S
C2370 C2374 1.524 . S
C2371 C2363 1.503 1_556 S
C2371 C2370 1.370 . S
C2371 C2372 1.403 . S
C2372 C2371 1.403 . S
C2372 C2373 1.404 . S
C2372 C2375 1.539 . S
C2373 C2369 1.408 . S
C2373 C2372 1.404 . S
C2373 H2385 0.930 . S
C2374 C2370 1.524 . S
C2374 H2386 0.956 . S
C2374 H2387 0.961 1_556 S
C2374 H2388 0.961 . S
C2375 C2372 1.539 . S
C2375 H2389 0.958 . S
C2375 H2390 0.961 . S
C2375 H2391 0.971 . S
H2376 C2360 0.931 . S
H2377 C2365 0.929 . S
H2378 C2366 0.960 1_556 S
H2379 C2366 0.962 . S
H2380 C2366 0.960 . S
H2381 C2367 0.961 . S
H2382 C2367 0.961 1_556 S
H2383 C2367 0.961 . S
H2384 C2368 0.931 . S
H2385 C2373 0.930 . S
H2386 C2374 0.956 . S
H2387 C2374 0.961 1_554 S
H2388 C2374 0.961 . S
H2389 C2375 0.958 . S
H2390 C2375 0.961 . S
H2391 C2375 0.971 . S
C2392 C2393 1.391 . S
C2392 C2394 1.394 . S
C2392 H2408 0.931 . S
C2393 C2392 1.391 . S
C2393 C2397 1.376 . S
C2394 C2392 1.394 . S
C2394 C2395 1.369 . S
C2394 C2398 1.531 . S
C2395 C2394 1.369 . S
C2395 C2396 1.410 . S
C2395 C2403 1.503 1_554 S
C2396 C2395 1.410 . S
C2396 C2397 1.392 . S
C2396 C2399 1.511 . S
C2397 C2393 1.376 . S
C2397 C2396 1.392 . S
C2397 H2409 0.929 . S
C2398 C2394 1.531 . S
C2398 H2410 0.960 1_554 S
C2398 H2411 0.962 . S
C2398 H2412 0.960 . S
C2399 C2396 1.511 . S
C2399 H2413 0.961 . S
C2399 H2414 0.961 1_554 S
C2399 H2415 0.961 . S
C2400 C2401 1.370 . S
C2400 C2402 1.363 . S
C2400 H2416 0.931 . S
C2401 C2400 1.370 . S
C2401 C2405 1.408 . S
C2402 C2400 1.363 . S
C2402 C2403 1.370 . S
C2402 C2406 1.524 . S
C2403 C2395 1.503 1_556 S
C2403 C2402 1.370 . S
C2403 C2404 1.403 . S
C2404 C2403 1.403 . S
C2404 C2405 1.404 . S
C2404 C2407 1.539 . S
C2405 C2401 1.408 . S
C2405 C2404 1.404 . S
C2405 H2417 0.930 . S
C2406 C2402 1.524 . S
C2406 H2418 0.956 . S
C2406 H2419 0.961 1_556 S
C2406 H2420 0.961 . S
C2407 C2404 1.539 . S
C2407 H2421 0.958 . S
C2407 H2422 0.961 . S
C2407 H2423 0.971 . S
H2408 C2392 0.931 . S
H2409 C2397 0.929 . S
H2410 C2398 0.960 1_556 S
H2411 C2398 0.962 . S
H2412 C2398 0.960 . S
H2413 C2399 0.961 . S
H2414 C2399 0.961 1_556 S
H2415 C2399 0.961 . S
H2416 C2400 0.931 . S
H2417 C2405 0.930 . S
H2418 C2406 0.956 . S
H2419 C2406 0.961 1_554 S
H2420 C2406 0.961 . S
H2421 C2407 0.958 . S
H2422 C2407 0.961 . S
H2423 C2407 0.971 . S
C2424 C2425 1.391 . S
C2424 C2426 1.394 . S
C2424 H2440 0.931 . S
C2425 C2424 1.391 . S
C2425 C2429 1.376 . S
C2426 C2424 1.394 . S
C2426 C2427 1.369 . S
C2426 C2430 1.531 . S
C2427 C2426 1.369 . S
C2427 C2428 1.410 . S
C2427 C2435 1.503 1_554 S
C2428 C2427 1.410 . S
C2428 C2429 1.392 . S
C2428 C2431 1.511 . S
C2429 C2425 1.376 . S
C2429 C2428 1.392 . S
C2429 H2441 0.929 . S
C2430 C2426 1.531 . S
C2430 H2442 0.960 1_554 S
C2430 H2443 0.962 . S
C2430 H2444 0.960 . S
C2431 C2428 1.511 . S
C2431 H2445 0.961 . S
C2431 H2446 0.961 1_554 S
C2431 H2447 0.961 . S
C2432 C2433 1.370 . S
C2432 C2434 1.363 . S
C2432 H2448 0.931 . S
C2433 C2432 1.370 . S
C2433 C2437 1.408 . S
C2434 C2432 1.363 . S
C2434 C2435 1.370 . S
C2434 C2438 1.524 . S
C2435 C2427 1.503 1_556 S
C2435 C2434 1.370 . S
C2435 C2436 1.403 . S
C2436 C2435 1.403 . S
C2436 C2437 1.404 . S
C2436 C2439 1.539 . S
C2437 C2433 1.408 . S
C2437 C2436 1.404 . S
C2437 H2449 0.930 . S
C2438 C2434 1.524 . S
C2438 H2450 0.956 . S
C2438 H2451 0.961 1_556 S
C2438 H2452 0.961 . S
C2439 C2436 1.539 . S
C2439 H2453 0.958 . S
C2439 H2454 0.961 . S
C2439 H2455 0.971 . S
H2440 C2424 0.931 . S
H2441 C2429 0.929 . S
H2442 C2430 0.960 1_556 S
H2443 C2430 0.962 . S
H2444 C2430 0.960 . S
H2445 C2431 0.961 . S
H2446 C2431 0.961 1_556 S
H2447 C2431 0.961 . S
H2448 C2432 0.931 . S
H2449 C2437 0.930 . S
H2450 C2438 0.956 . S
H2451 C2438 0.961 1_554 S
H2452 C2438 0.961 . S
H2453 C2439 0.958 . S
H2454 C2439 0.961 . S
H2455 C2439 0.971 . S
C2456 C2457 1.391 . S
C2456 C2458 1.394 . S
C2456 H2472 0.931 . S
C2457 C2456 1.391 . S
C2457 C2461 1.376 . S
C2458 C2456 1.394 . S
C2458 C2459 1.369 . S
C2458 C2462 1.531 . S
C2459 C2458 1.369 . S
C2459 C2460 1.410 . S
C2459 C2467 1.503 1_554 S
C2460 C2459 1.410 . S
C2460 C2461 1.392 . S
C2460 C2463 1.511 . S
C2461 C2457 1.376 . S
C2461 C2460 1.392 . S
C2461 H2473 0.929 . S
C2462 C2458 1.531 . S
C2462 H2474 0.960 1_554 S
C2462 H2475 0.962 . S
C2462 H2476 0.960 . S
C2463 C2460 1.511 . S
C2463 H2477 0.961 . S
C2463 H2478 0.961 1_554 S
C2463 H2479 0.961 . S
C2464 C2465 1.370 . S
C2464 C2466 1.363 . S
C2464 H2480 0.931 . S
C2465 C2464 1.370 . S
C2465 C2469 1.408 . S
C2466 C2464 1.363 . S
C2466 C2467 1.370 . S
C2466 C2470 1.524 . S
C2467 C2459 1.503 1_556 S
C2467 C2466 1.370 . S
C2467 C2468 1.403 . S
C2468 C2467 1.403 . S
C2468 C2469 1.404 . S
C2468 C2471 1.539 . S
C2469 C2465 1.408 . S
C2469 C2468 1.404 . S
C2469 H2481 0.930 . S
C2470 C2466 1.524 . S
C2470 H2482 0.956 . S
C2470 H2483 0.961 1_556 S
C2470 H2484 0.961 . S
C2471 C2468 1.539 . S
C2471 H2485 0.958 . S
C2471 H2486 0.961 . S
C2471 H2487 0.971 . S
H2472 C2456 0.931 . S
H2473 C2461 0.929 . S
H2474 C2462 0.960 1_556 S
H2475 C2462 0.962 . S
H2476 C2462 0.960 . S
H2477 C2463 0.961 . S
H2478 C2463 0.961 1_556 S
H2479 C2463 0.961 . S
H2480 C2464 0.931 . S
H2481 C2469 0.930 . S
H2482 C2470 0.956 . S
H2483 C2470 0.961 1_554 S
H2484 C2470 0.961 . S
H2485 C2471 0.958 . S
H2486 C2471 0.961 . S
H2487 C2471 0.971 . S
C2488 C2489 1.391 . S
C2488 C2490 1.394 . S
C2488 H2504 0.931 . S
C2489 C2488 1.391 . S
C2489 C2493 1.376 . S
C2490 C2488 1.394 . S
C2490 C2491 1.369 . S
C2490 C2494 1.531 . S
C2491 C2490 1.369 . S
C2491 C2492 1.410 . S
C2491 C2499 1.503 1_556 S
C2492 C2491 1.410 . S
C2492 C2493 1.392 . S
C2492 C2495 1.511 . S
C2493 C2489 1.376 . S
C2493 C2492 1.392 . S
C2493 H2505 0.929 . S
C2494 C2490 1.531 . S
C2494 H2506 0.960 1_556 S
C2494 H2507 0.962 . S
C2494 H2508 0.960 . S
C2495 C2492 1.511 . S
C2495 H2509 0.961 . S
C2495 H2510 0.961 1_556 S
C2495 H2511 0.961 . S
C2496 C2497 1.370 . S
C2496 C2498 1.363 . S
C2496 H2512 0.931 . S
C2497 C2496 1.370 . S
C2497 C2501 1.408 . S
C2498 C2496 1.363 . S
C2498 C2499 1.370 . S
C2498 C2502 1.524 . S
C2499 C2491 1.503 1_554 S
C2499 C2498 1.370 . S
C2499 C2500 1.403 . S
C2500 C2499 1.403 . S
C2500 C2501 1.404 . S
C2500 C2503 1.539 . S
C2501 C2497 1.408 . S
C2501 C2500 1.404 . S
C2501 H2513 0.930 . S
C2502 C2498 1.524 . S
C2502 H2514 0.956 . S
C2502 H2515 0.961 1_554 S
C2502 H2516 0.961 . S
C2503 C2500 1.539 . S
C2503 H2517 0.958 . S
C2503 H2518 0.961 . S
C2503 H2519 0.971 . S
H2504 C2488 0.931 . S
H2505 C2493 0.929 . S
H2506 C2494 0.960 1_554 S
H2507 C2494 0.962 . S
H2508 C2494 0.960 . S
H2509 C2495 0.961 . S
H2510 C2495 0.961 1_554 S
H2511 C2495 0.961 . S
H2512 C2496 0.931 . S
H2513 C2501 0.930 . S
H2514 C2502 0.956 . S
H2515 C2502 0.961 1_556 S
H2516 C2502 0.961 . S
H2517 C2503 0.958 . S
H2518 C2503 0.961 . S
H2519 C2503 0.971 . S
C2520 C2521 1.391 . S
C2520 C2522 1.394 . S
C2520 H2536 0.931 . S
C2521 C2520 1.391 . S
C2521 C2525 1.376 . S
C2522 C2520 1.394 . S
C2522 C2523 1.369 . S
C2522 C2526 1.531 . S
C2523 C2522 1.369 . S
C2523 C2524 1.410 . S
C2523 C2531 1.503 . S
C2524 C2523 1.410 . S
C2524 C2525 1.392 . S
C2524 C2527 1.511 . S
C2525 C2521 1.376 . S
C2525 C2524 1.392 . S
C2525 H2537 0.929 . S
C2526 C2522 1.531 . S
C2526 H2538 0.960 . S
C2526 H2539 0.962 . S
C2526 H2540 0.960 . S
C2527 C2524 1.511 . S
C2527 H2541 0.961 . S
C2527 H2542 0.961 . S
C2527 H2543 0.961 . S
C2528 C2529 1.370 . S
C2528 C2530 1.363 . S
C2528 H2544 0.931 . S
C2529 C2528 1.370 . S
C2529 C2533 1.408 . S
C2530 C2528 1.363 . S
C2530 C2531 1.370 . S
C2530 C2534 1.524 . S
C2531 C2523 1.503 . S
C2531 C2530 1.370 . S
C2531 C2532 1.403 . S
C2532 C2531 1.403 . S
C2532 C2533 1.404 . S
C2532 C2535 1.539 . S
C2533 C2529 1.408 . S
C2533 C2532 1.404 . S
C2533 H2545 0.930 . S
C2534 C2530 1.524 . S
C2534 H2546 0.956 . S
C2534 H2547 0.961 . S
C2534 H2548 0.961 . S
C2535 C2532 1.539 . S
C2535 H2549 0.958 . S
C2535 H2550 0.961 . S
C2535 H2551 0.960 . S
H2536 C2520 0.931 . S
H2537 C2525 0.929 . S
H2538 C2526 0.960 . S
H2539 C2526 0.962 . S
H2540 C2526 0.960 . S
H2541 C2527 0.961 . S
H2542 C2527 0.961 . S
H2543 C2527 0.961 . S
H2544 C2528 0.931 . S
H2545 C2533 0.930 . S
H2546 C2534 0.956 . S
H2547 C2534 0.961 . S
H2548 C2534 0.961 . S
H2549 C2535 0.958 . S
H2550 C2535 0.961 . S
H2551 C2535 0.960 . S
C2552 C2553 1.391 . S
C2552 C2554 1.394 . S
C2552 H2568 0.931 . S
C2553 C2552 1.391 . S
C2553 C2557 1.376 . S
C2554 C2552 1.394 . S
C2554 C2555 1.369 . S
C2554 C2558 1.531 . S
C2555 C2554 1.369 . S
C2555 C2556 1.410 . S
C2555 C2563 1.503 . S
C2556 C2555 1.410 . S
C2556 C2557 1.392 . S
C2556 C2559 1.511 . S
C2557 C2553 1.376 . S
C2557 C2556 1.392 . S
C2557 H2569 0.929 . S
C2558 C2554 1.531 . S
C2558 H2570 0.960 . S
C2558 H2571 0.962 . S
C2558 H2572 0.960 . S
C2559 C2556 1.511 . S
C2559 H2573 0.961 . S
C2559 H2574 0.961 . S
C2559 H2575 0.961 . S
C2560 C2561 1.370 . S
C2560 C2562 1.363 . S
C2560 H2576 0.931 . S
C2561 C2560 1.370 . S
C2561 C2565 1.408 . S
C2562 C2560 1.363 . S
C2562 C2563 1.370 . S
C2562 C2566 1.524 . S
C2563 C2555 1.503 . S
C2563 C2562 1.370 . S
C2563 C2564 1.403 . S
C2564 C2563 1.403 . S
C2564 C2565 1.404 . S
C2564 C2567 1.539 . S
C2565 C2561 1.408 . S
C2565 C2564 1.404 . S
C2565 H2577 0.930 . S
C2566 C2562 1.524 . S
C2566 H2578 0.956 . S
C2566 H2579 0.961 . S
C2566 H2580 0.961 . S
C2567 C2564 1.539 . S
C2567 H2581 0.958 . S
C2567 H2582 0.961 . S
C2567 H2583 0.960 . S
H2568 C2552 0.931 . S
H2569 C2557 0.929 . S
H2570 C2558 0.960 . S
H2571 C2558 0.962 . S
H2572 C2558 0.960 . S
H2573 C2559 0.961 . S
H2574 C2559 0.961 . S
H2575 C2559 0.961 . S
H2576 C2560 0.931 . S
H2577 C2565 0.930 . S
H2578 C2566 0.956 . S
H2579 C2566 0.961 . S
H2580 C2566 0.961 . S
H2581 C2567 0.958 . S
H2582 C2567 0.961 . S
H2583 C2567 0.960 . S
C2584 C2585 1.391 . S
C2584 C2586 1.394 . S
C2584 H2600 0.931 . S
C2585 C2584 1.391 . S
C2585 C2589 1.376 . S
C2586 C2584 1.394 . S
C2586 C2587 1.369 . S
C2586 C2590 1.531 . S
C2587 C2586 1.369 . S
C2587 C2588 1.410 . S
C2587 C2595 1.503 . S
C2588 C2587 1.410 . S
C2588 C2589 1.392 . S
C2588 C2591 1.511 . S
C2589 C2585 1.376 . S
C2589 C2588 1.392 . S
C2589 H2601 0.929 . S
C2590 C2586 1.531 . S
C2590 H2602 0.960 . S
C2590 H2603 0.962 . S
C2590 H2604 0.960 . S
C2591 C2588 1.511 . S
C2591 H2605 0.961 . S
C2591 H2606 0.961 . S
C2591 H2607 0.961 . S
C2592 C2593 1.370 . S
C2592 C2594 1.363 . S
C2592 H2608 0.931 . S
C2593 C2592 1.370 . S
C2593 C2597 1.408 . S
C2594 C2592 1.363 . S
C2594 C2595 1.370 . S
C2594 C2598 1.524 . S
C2595 C2587 1.503 . S
C2595 C2594 1.370 . S
C2595 C2596 1.403 . S
C2596 C2595 1.403 . S
C2596 C2597 1.404 . S
C2596 C2599 1.539 . S
C2597 C2593 1.408 . S
C2597 C2596 1.404 . S
C2597 H2609 0.930 . S
C2598 C2594 1.524 . S
C2598 H2610 0.956 . S
C2598 H2611 0.961 . S
C2598 H2612 0.961 . S
C2599 C2596 1.539 . S
C2599 H2613 0.958 . S
C2599 H2614 0.961 . S
C2599 H2615 0.960 . S
H2600 C2584 0.931 . S
H2601 C2589 0.929 . S
H2602 C2590 0.960 . S
H2603 C2590 0.962 . S
H2604 C2590 0.960 . S
H2605 C2591 0.961 . S
H2606 C2591 0.961 . S
H2607 C2591 0.961 . S
H2608 C2592 0.931 . S
H2609 C2597 0.930 . S
H2610 C2598 0.956 . S
H2611 C2598 0.961 . S
H2612 C2598 0.961 . S
H2613 C2599 0.958 . S
H2614 C2599 0.961 . S
H2615 C2599 0.960 . S
C2616 C2617 1.391 . S
C2616 C2618 1.394 . S
C2616 H2632 0.931 . S
C2617 C2616 1.391 . S
C2617 C2621 1.376 . S
C2618 C2616 1.394 . S
C2618 C2619 1.369 . S
C2618 C2622 1.531 . S
C2619 C2618 1.369 . S
C2619 C2620 1.410 . S
C2619 C2627 1.503 . S
C2620 C2619 1.410 . S
C2620 C2621 1.392 . S
C2620 C2623 1.511 . S
C2621 C2617 1.376 . S
C2621 C2620 1.392 . S
C2621 H2633 0.929 . S
C2622 C2618 1.531 . S
C2622 H2634 0.960 . S
C2622 H2635 0.962 . S
C2622 H2636 0.960 . S
C2623 C2620 1.511 . S
C2623 H2637 0.961 . S
C2623 H2638 0.961 . S
C2623 H2639 0.961 . S
C2624 C2625 1.370 . S
C2624 C2626 1.363 . S
C2624 H2640 0.931 . S
C2625 C2624 1.370 . S
C2625 C2629 1.408 . S
C2626 C2624 1.363 . S
C2626 C2627 1.370 . S
C2626 C2630 1.524 . S
C2627 C2619 1.503 . S
C2627 C2626 1.370 . S
C2627 C2628 1.403 . S
C2628 C2627 1.403 . S
C2628 C2629 1.404 . S
C2628 C2631 1.539 . S
C2629 C2625 1.408 . S
C2629 C2628 1.404 . S
C2629 H2641 0.930 . S
C2630 C2626 1.524 . S
C2630 H2642 0.956 . S
C2630 H2643 0.961 . S
C2630 H2644 0.961 . S
C2631 C2628 1.539 . S
C2631 H2645 0.958 . S
C2631 H2646 0.961 . S
C2631 H2647 0.960 . S
H2632 C2616 0.931 . S
H2633 C2621 0.929 . S
H2634 C2622 0.960 . S
H2635 C2622 0.962 . S
H2636 C2622 0.960 . S
H2637 C2623 0.961 . S
H2638 C2623 0.961 . S
H2639 C2623 0.961 . S
H2640 C2624 0.931 . S
H2641 C2629 0.930 . S
H2642 C2630 0.956 . S
H2643 C2630 0.961 . S
H2644 C2630 0.961 . S
H2645 C2631 0.958 . S
H2646 C2631 0.961 . S
H2647 C2631 0.960 . S
C2648 C2649 1.391 . S
C2648 C2650 1.394 . S
C2648 H2664 0.931 . S
C2649 C2648 1.391 . S
C2649 C2653 1.376 . S
C2650 C2648 1.394 . S
C2650 C2651 1.369 . S
C2650 C2654 1.531 . S
C2651 C2650 1.369 . S
C2651 C2652 1.410 . S
C2651 C2659 1.503 . S
C2652 C2651 1.410 . S
C2652 C2653 1.392 . S
C2652 C2655 1.511 . S
C2653 C2649 1.376 . S
C2653 C2652 1.392 . S
C2653 H2665 0.929 . S
C2654 C2650 1.531 . S
C2654 H2666 0.960 . S
C2654 H2667 0.962 . S
C2654 H2668 0.960 . S
C2655 C2652 1.511 . S
C2655 H2669 0.961 . S
C2655 H2670 0.961 . S
C2655 H2671 0.961 . S
C2656 C2657 1.370 . S
C2656 C2658 1.363 . S
C2656 H2672 0.931 . S
C2657 C2656 1.370 . S
C2657 C2661 1.408 . S
C2658 C2656 1.363 . S
C2658 C2659 1.370 . S
C2658 C2662 1.524 . S
C2659 C2651 1.503 . S
C2659 C2658 1.370 . S
C2659 C2660 1.403 . S
C2660 C2659 1.403 . S
C2660 C2661 1.404 . S
C2660 C2663 1.539 . S
C2661 C2657 1.408 . S
C2661 C2660 1.404 . S
C2661 H2673 0.930 . S
C2662 C2658 1.524 . S
C2662 H2674 0.956 . S
C2662 H2675 0.961 . S
C2662 H2676 0.961 . S
C2663 C2660 1.539 . S
C2663 H2677 0.958 . S
C2663 H2678 0.961 . S
C2663 H2679 0.960 . S
H2664 C2648 0.931 . S
H2665 C2653 0.929 . S
H2666 C2654 0.960 . S
H2667 C2654 0.962 . S
H2668 C2654 0.960 . S
H2669 C2655 0.961 . S
H2670 C2655 0.961 . S
H2671 C2655 0.961 . S
H2672 C2656 0.931 . S
H2673 C2661 0.930 . S
H2674 C2662 0.956 . S
H2675 C2662 0.961 . S
H2676 C2662 0.961 . S
H2677 C2663 0.958 . S
H2678 C2663 0.961 . S
H2679 C2663 0.960 . S
C2680 C2681 1.391 . S
C2680 C2682 1.394 . S
C2680 H2696 0.931 . S
C2681 C2680 1.391 . S
C2681 C2685 1.376 . S
C2682 C2680 1.394 . S
C2682 C2683 1.369 . S
C2682 C2686 1.531 . S
C2683 C2682 1.369 . S
C2683 C2684 1.410 . S
C2683 C2691 1.503 . S
C2684 C2683 1.410 . S
C2684 C2685 1.392 . S
C2684 C2687 1.511 . S
C2685 C2681 1.376 . S
C2685 C2684 1.392 . S
C2685 H2697 0.929 . S
C2686 C2682 1.531 . S
C2686 H2698 0.960 . S
C2686 H2699 0.962 . S
C2686 H2700 0.960 . S
C2687 C2684 1.511 . S
C2687 H2701 0.961 . S
C2687 H2702 0.961 . S
C2687 H2703 0.961 . S
C2688 C2689 1.370 . S
C2688 C2690 1.363 . S
C2688 H2704 0.931 . S
C2689 C2688 1.370 . S
C2689 C2693 1.408 . S
C2690 C2688 1.363 . S
C2690 C2691 1.370 . S
C2690 C2694 1.524 . S
C2691 C2683 1.503 . S
C2691 C2690 1.370 . S
C2691 C2692 1.403 . S
C2692 C2691 1.403 . S
C2692 C2693 1.404 . S
C2692 C2695 1.539 . S
C2693 C2689 1.408 . S
C2693 C2692 1.404 . S
C2693 H2705 0.930 . S
C2694 C2690 1.524 . S
C2694 H2706 0.956 . S
C2694 H2707 0.961 . S
C2694 H2708 0.961 . S
C2695 C2692 1.539 . S
C2695 H2709 0.958 . S
C2695 H2710 0.961 . S
C2695 H2711 0.960 . S
H2696 C2680 0.931 . S
H2697 C2685 0.929 . S
H2698 C2686 0.960 . S
H2699 C2686 0.962 . S
H2700 C2686 0.960 . S
H2701 C2687 0.961 . S
H2702 C2687 0.961 . S
H2703 C2687 0.961 . S
H2704 C2688 0.931 . S
H2705 C2693 0.930 . S
H2706 C2694 0.956 . S
H2707 C2694 0.961 . S
H2708 C2694 0.961 . S
H2709 C2695 0.958 . S
H2710 C2695 0.961 . S
H2711 C2695 0.960 . S
C793 N14 0.720 . S
C801 N113 0.633 . S
C825 N146 0.681 . S
C833 N47 0.641 . S
C857 N179 0.691 . S
C865 N80 0.637 . S
C889 N311 0.662 . S
C897 N212 0.662 . S
C921 N245 0.640 . S
C929 N344 0.671 . S
C953 N278 0.594 . S
C961 N377 0.679 . S
C985 N509 0.721 . S
C993 N410 0.630 . S
C1017 N542 0.622 . S
C1025 N443 0.674 . S
C1049 N575 0.707 . S
C1057 N476 0.634 . S
C1081 N707 0.661 . S
C1089 N608 0.659 . S
C1113 N641 0.631 . S
C1121 N740 0.670 . S
C1145 N773 0.601 . S
C1153 N674 0.681 . S
C1177 N269 1.365 . S
C1185 N5 1.397 . S
C1209 N38 1.415 . S
C1217 N302 1.396 . S
C1241 N71 1.389 . S
C1249 N335 1.387 . S
C1273 N104 1.360 . S
C1281 N368 1.404 . S
C1305 N137 1.415 . S
C1313 N203 1.396 . S
C1337 N236 1.361 . S
C1345 N170 1.406 . S
C1369 N401 1.366 . S
C1377 N665 1.392 . S
C1401 N698 1.380 . S
C1409 N434 1.386 . S
C1433 N731 1.365 . S
C1441 N467 1.393 . S
C1465 N500 1.422 . S
C1473 N764 1.395 . S
C1497 N599 1.395 . S
C1505 N533 1.383 . S
C1529 N632 1.419 . S
C1537 N566 1.399 . S
C1561 C8 1.462 . S
C1569 C239 1.475 . S
C1593 C41 1.450 . S
C1601 C272 1.470 . S
C1625 C305 1.505 . S
C1633 C74 1.494 . S
C1657 C107 1.485 . S
C1665 C338 1.484 . S
C1689 C371 1.464 . S
C1697 C140 1.477 . S
C1721 C206 1.451 . S
C1729 C173 1.471 . S
C1753 C404 1.497 . S
C1761 C635 1.492 . S
C1785 C437 1.494 . S
C1793 C668 1.491 . S
C1817 C470 1.507 . S
C1825 C701 1.493 . S
C1849 C503 1.465 . S
C1857 C734 1.474 . S
C1881 C536 1.494 . S
C1889 C767 1.486 . S
C1913 C602 1.481 . S
C1921 C569 1.486 . S
C1945 C28 0.583 . S
C1953 C358 0.606 . S
C1977 C391 0.604 . S
C1985 C61 0.605 . S
C2009 C226 0.665 . S
C2017 C94 0.640 . S
C2041 C259 0.688 . S
C2049 C127 0.642 . S
C2073 C160 0.701 . S
C2081 C292 0.651 . S
C2105 C193 0.692 . S
C2113 C325 0.650 . S
C2137 C424 0.529 . S
C2145 C754 0.580 . S
C2169 C787 0.641 . S
C2177 C457 0.619 . S
C2201 C622 0.544 . S
C2209 C490 0.582 . S
C2233 C523 0.535 . S
C2241 C655 0.585 . S
C2265 C556 0.531 . S
C2273 C688 0.580 . S
C2297 C721 0.639 . S
C2305 C589 0.631 . S
C2329 C17 1.431 . S
C2337 C512 1.435 . S
C2361 C50 1.423 . S
C2369 C545 1.433 . S
C2393 C83 1.422 . S
C2401 C578 1.432 . S
C2425 C116 1.422 . S
C2433 C413 1.432 . S
C2457 C149 1.433 . S
C2465 C446 1.436 . S
C2489 C479 1.440 . S
C2497 C182 1.439 . S
C2521 C215 1.428 . S
C2529 C710 1.434 . S
C2553 C248 1.436 . S
C2561 C743 1.439 . S
C2585 C281 1.445 . S
C2593 C776 1.442 . S
C2617 C314 1.444 . S
C2625 C611 1.442 . S
C2649 C347 1.435 . S
C2657 C644 1.438 . S
C2681 C677 1.437 . S
C2689 C380 1.438 . S
