# Generated by pormake.
# Topology yfc, (5)-cn, num edge types: 1
# Building blocks:
#     Node 0, Type 0, BuildingBlock: XOMCOT_clean_sbu_1, # of connection points: 5
#     Node 1, Type 0, BuildingBlock: XOMCOT_clean_sbu_1, # of connection points: 5
#     Node 2, Type 0, BuildingBlock: XOMCOT_clean_sbu_1, # of connection points: 5
#     Node 3, Type 0, BuildingBlock: XOMCOT_clean_sbu_1, # of connection points: 5
#     Node 4, Type 0, BuildingBlock: XOMCOT_clean_sbu_1, # of connection points: 5
#     Node 5, Type 0, BuildingBlock: XOMCOT_clean_sbu_1, # of connection points: 5
#     Node 6, Type 0, BuildingBlock: XOMCOT_clean_sbu_1, # of connection points: 5
#     Node 7, Type 0, BuildingBlock: XOMCOT_clean_sbu_1, # of connection points: 5
#     Node 8, Type 0, BuildingBlock: XOMCOT_clean_sbu_1, # of connection points: 5
#     Node 9, Type 0, BuildingBlock: XOMCOT_clean_sbu_1, # of connection points: 5
#     Node 10, Type 0, BuildingBlock: XOMCOT_clean_sbu_1, # of connection points: 5
#     Node 11, Type 0, BuildingBlock: XOMCOT_clean_sbu_1, # of connection points: 5
#     Node 12, Type 0, BuildingBlock: XOMCOT_clean_sbu_1, # of connection points: 5
#     Node 13, Type 0, BuildingBlock: XOMCOT_clean_sbu_1, # of connection points: 5
#     Node 14, Type 0, BuildingBlock: XOMCOT_clean_sbu_1, # of connection points: 5
#     Node 15, Type 0, BuildingBlock: XOMCOT_clean_sbu_1, # of connection points: 5
#     Edge 16, Type (0, 0), BuildingBlock: EZIPEK_clean_linker_0, # of connection points: 2
#     Edge 17, Type (0, 0), BuildingBlock: EZIPEK_clean_linker_0, # of connection points: 2
#     Edge 18, Type (0, 0), BuildingBlock: EZIPEK_clean_linker_0, # of connection points: 2
#     Edge 19, Type (0, 0), BuildingBlock: EZIPEK_clean_linker_0, # of connection points: 2
#     Edge 20, Type (0, 0), BuildingBlock: EZIPEK_clean_linker_0, # of connection points: 2
#     Edge 21, Type (0, 0), BuildingBlock: EZIPEK_clean_linker_0, # of connection points: 2
#     Edge 22, Type (0, 0), BuildingBlock: EZIPEK_clean_linker_0, # of connection points: 2
#     Edge 23, Type (0, 0), BuildingBlock: EZIPEK_clean_linker_0, # of connection points: 2
#     Edge 24, Type (0, 0), BuildingBlock: EZIPEK_clean_linker_0, # of connection points: 2
#     Edge 25, Type (0, 0), BuildingBlock: EZIPEK_clean_linker_0, # of connection points: 2
#     Edge 26, Type (0, 0), BuildingBlock: EZIPEK_clean_linker_0, # of connection points: 2
#     Edge 27, Type (0, 0), BuildingBlock: EZIPEK_clean_linker_0, # of connection points: 2
#     Edge 28, Type (0, 0), BuildingBlock: EZIPEK_clean_linker_0, # of connection points: 2
#     Edge 29, Type (0, 0), BuildingBlock: EZIPEK_clean_linker_0, # of connection points: 2
#     Edge 30, Type (0, 0), BuildingBlock: EZIPEK_clean_linker_0, # of connection points: 2
#     Edge 31, Type (0, 0), BuildingBlock: EZIPEK_clean_linker_0, # of connection points: 2
#     Edge 32, Type (0, 0), BuildingBlock: EZIPEK_clean_linker_0, # of connection points: 2
#     Edge 33, Type (0, 0), BuildingBlock: EZIPEK_clean_linker_0, # of connection points: 2
#     Edge 34, Type (0, 0), BuildingBlock: EZIPEK_clean_linker_0, # of connection points: 2
#     Edge 35, Type (0, 0), BuildingBlock: EZIPEK_clean_linker_0, # of connection points: 2
#     Edge 36, Type (0, 0), BuildingBlock: EZIPEK_clean_linker_0, # of connection points: 2
#     Edge 37, Type (0, 0), BuildingBlock: EZIPEK_clean_linker_0, # of connection points: 2
#     Edge 38, Type (0, 0), BuildingBlock: EZIPEK_clean_linker_0, # of connection points: 2
#     Edge 39, Type (0, 0), BuildingBlock: EZIPEK_clean_linker_0, # of connection points: 2
#     Edge 40, Type (0, 0), BuildingBlock: EZIPEK_clean_linker_0, # of connection points: 2
#     Edge 41, Type (0, 0), BuildingBlock: EZIPEK_clean_linker_0, # of connection points: 2
#     Edge 42, Type (0, 0), BuildingBlock: EZIPEK_clean_linker_0, # of connection points: 2
#     Edge 43, Type (0, 0), BuildingBlock: EZIPEK_clean_linker_0, # of connection points: 2
#     Edge 44, Type (0, 0), BuildingBlock: EZIPEK_clean_linker_0, # of connection points: 2
#     Edge 45, Type (0, 0), BuildingBlock: EZIPEK_clean_linker_0, # of connection points: 2
#     Edge 46, Type (0, 0), BuildingBlock: EZIPEK_clean_linker_0, # of connection points: 2
#     Edge 47, Type (0, 0), BuildingBlock: EZIPEK_clean_linker_0, # of connection points: 2
#     Edge 48, Type (0, 0), BuildingBlock: EZIPEK_clean_linker_0, # of connection points: 2
#     Edge 49, Type (0, 0), BuildingBlock: EZIPEK_clean_linker_0, # of connection points: 2
#     Edge 50, Type (0, 0), BuildingBlock: EZIPEK_clean_linker_0, # of connection points: 2
#     Edge 51, Type (0, 0), BuildingBlock: EZIPEK_clean_linker_0, # of connection points: 2
#     Edge 52, Type (0, 0), BuildingBlock: EZIPEK_clean_linker_0, # of connection points: 2
#     Edge 53, Type (0, 0), BuildingBlock: EZIPEK_clean_linker_0, # of connection points: 2
#     Edge 54, Type (0, 0), BuildingBlock: EZIPEK_clean_linker_0, # of connection points: 2
#     Edge 55, Type (0, 0), BuildingBlock: EZIPEK_clean_linker_0, # of connection points: 2
# Relax obj value: 0.653
# Max RMSD: 0.269
# Mean RMSD: 0.269
data_MOF--net-yfc--node1-XOMCOT_clean_sbu_1--edge1-EZIPEK_clean_linker_0
_symmetry_space_group_name_H-M    P1
_symmetry_Int_Tables_number       1
_symmetry_cell_setting            triclinic
loop_
_symmetry_equiv_pos_as_xyz
'x, y, z'
_cell_length_a     31.812916
_cell_length_b     31.714939
_cell_length_c     34.90869
_cell_angle_alpha  89.930402
_cell_angle_beta   90.025036
_cell_angle_gamma 89.645665
loop_
_atom_site_label
_atom_site_type_symbol
_atom_site_fract_x
_atom_site_fract_y
_atom_site_fract_z
_atom_type_partial_charge
C0 C 0.68464 0.96638 0.1521 0.0
C1 C 0.66912 0.93256 0.17268 0.0
N2 N 0.64842 0.94754 0.20339 0.0
N3 N 0.67372 1.00289 0.16952 0.0
C4 C 0.6513 0.9899 0.20058 0.0
H5 H 0.7042 0.96368 0.12717 0.0
Co6 Co 0.68921 0.06076 0.1623 0.0
C7 C 0.60695 0.0848 0.16476 0.0
O8 O 0.61487 0.07928 0.20131 0.0
N9 N 0.70212 0.11844 0.1591 0.0
C10 C 0.70732 0.18311 0.1829 0.0
C11 C 0.69585 0.14237 0.19045 0.0
C12 C 0.71755 0.14558 0.13249 0.0
N13 N 0.72088 0.18537 0.14645 0.0
O14 O 0.71184 0.05134 0.10839 0.0
H15 H 0.68408 0.13056 0.21744 0.0
H16 H 0.72669 0.13634 0.10389 0.0
O17 O 0.63504 0.07378 0.14066 0.0
C18 C 0.74224 0.0311 0.09218 0.0
O19 O 0.76706 0.0068 0.11275 0.0
N20 N 0.74144 0.05092 0.18629 0.0
C21 C 0.80987 0.065 0.23383 0.0
C22 C 0.7746 0.04406 0.24791 0.0
C23 C 0.74021 0.03815 0.22368 0.0
C24 C 0.77731 0.06806 0.17184 0.0
C25 C 0.81214 0.07478 0.19495 0.0
H26 H 0.71111 0.0283 0.23638 0.0
H27 H 0.77753 0.08158 0.14382 0.0
H28 H 0.63954 0.01087 0.22247 0.0
H29 H 0.67391 0.89948 0.16631 0.0
H30 H 0.70633 0.20923 0.20284 0.0
H31 H 0.77155 0.03748 0.27824 0.0
H32 H 0.83861 0.09215 0.18359 0.0
C33 C 0.56536 0.74002 0.67674 0.0
C34 C 0.60101 0.72328 0.69395 0.0
N35 N 0.59393 0.68246 0.70219 0.0
N36 N 0.53549 0.71008 0.67402 0.0
C37 C 0.5547 0.67509 0.68877 0.0
H38 H 0.55999 0.77304 0.67057 0.0
Co39 Co 0.47626 0.7224 0.66996 0.0
C40 C 0.45435 0.6322 0.70622 0.0
O41 O 0.48467 0.60823 0.71979 0.0
N42 N 0.41567 0.73339 0.66842 0.0
C43 C 0.35096 0.73698 0.69361 0.0
C44 C 0.39275 0.73072 0.70106 0.0
C45 C 0.3857 0.74083 0.641 0.0
N46 N 0.34609 0.74315 0.65588 0.0
O47 O 0.47523 0.70197 0.6182 0.0
H48 H 0.40529 0.72302 0.72898 0.0
H49 H 0.39233 0.74349 0.61079 0.0
O50 O 0.46293 0.66808 0.69179 0.0
C51 C 0.47976 0.73549 0.59811 0.0
O52 O 0.4826 0.77167 0.61623 0.0
N53 N 0.47959 0.74788 0.71718 0.0
C54 C 0.47831 0.79692 0.7827 0.0
C55 C 0.49225 0.75478 0.78436 0.0
C56 C 0.49248 0.73053 0.75092 0.0
C57 C 0.47124 0.78982 0.71433 0.0
C58 C 0.46975 0.8148 0.74675 0.0
H59 H 0.50252 0.69799 0.75206 0.0
H60 H 0.46336 0.8034 0.6868 0.0
H61 H 0.53975 0.64519 0.69196 0.0
H62 H 0.6285 0.74069 0.70279 0.0
H63 H 0.32558 0.73511 0.7142 0.0
H64 H 0.50092 0.74019 0.8113 0.0
H65 H 0.45889 0.8471 0.74385 0.0
C66 C 0.82686 0.55838 0.14187 0.0
C67 C 0.851 0.58792 0.1609 0.0
N68 N 0.85532 0.57586 0.19777 0.0
N69 N 0.81608 0.52734 0.16639 0.0
C70 C 0.83423 0.53904 0.20012 0.0
H71 H 0.81825 0.55938 0.11192 0.0
Co72 Co 0.78666 0.47575 0.15674 0.0
C73 C 0.85509 0.41184 0.17683 0.0
O74 O 0.83029 0.3803 0.18477 0.0
N75 N 0.75868 0.42305 0.14767 0.0
C76 C 0.71337 0.3701 0.15306 0.0
C77 C 0.72096 0.41167 0.16188 0.0
C78 C 0.77195 0.38828 0.12815 0.0
N79 N 0.74572 0.35501 0.13217 0.0
O80 O 0.79904 0.47897 0.10184 0.0
H81 H 0.70084 0.43183 0.17896 0.0
H82 H 0.8012 0.38704 0.11269 0.0
O83 O 0.84044 0.4478 0.16704 0.0
C84 C 0.7657 0.48401 0.08151 0.0
O85 O 0.72966 0.48813 0.09957 0.0
N86 N 0.76874 0.47509 0.20858 0.0
C87 C 0.71028 0.46979 0.2673 0.0
C88 C 0.74022 0.43774 0.26206 0.0
C89 C 0.77011 0.44157 0.23311 0.0
C90 C 0.74352 0.50893 0.21696 0.0
C91 C 0.71585 0.50789 0.24793 0.0
H92 H 0.79002 0.41512 0.22802 0.0
H93 H 0.7422 0.53562 0.19769 0.0
H94 H 0.83227 0.52087 0.22626 0.0
H95 H 0.86415 0.61629 0.14864 0.0
H96 H 0.68657 0.35182 0.16231 0.0
H97 H 0.73795 0.4082 0.27753 0.0
H98 H 0.6952 0.53454 0.25317 0.0
C99 C 0.9542 0.78809 0.655 0.0
C100 C 0.92068 0.80968 0.67121 0.0
N101 N 0.93478 0.84618 0.68619 0.0
N102 N 0.98957 0.81096 0.65874 0.0
C103 C 0.9758 0.84723 0.67567 0.0
H104 H 0.95355 0.75588 0.64489 0.0
Co105 Co 0.04595 0.78789 0.65715 0.0
C106 C 0.06868 0.86179 0.71057 0.0
O107 O 0.03869 0.85907 0.73617 0.0
N108 N 0.10432 0.7678 0.6583 0.0
C109 C 0.16697 0.76051 0.68716 0.0
C110 C 0.12512 0.76842 0.69227 0.0
C111 C 0.13559 0.75888 0.63266 0.0
N112 N 0.17398 0.7549 0.64973 0.0
O113 O 0.05432 0.81101 0.60651 0.0
H114 H 0.11107 0.77623 0.7195 0.0
H115 H 0.1308 0.75625 0.60231 0.0
O116 O 0.06993 0.83721 0.68174 0.0
C117 C 0.04382 0.78023 0.5848 0.0
O118 O 0.03168 0.74495 0.60103 0.0
N119 N 0.0348 0.75814 0.70289 0.0
C120 C 0.02939 0.70281 0.76455 0.0
C121 C 0.01021 0.74276 0.76637 0.0
C122 C 0.01315 0.77003 0.73494 0.0
C123 C 0.04583 0.71681 0.69844 0.0
C124 C 0.04517 0.6892 0.7292 0.0
H125 H 0.99723 0.79983 0.73648 0.0
H126 H 0.05795 0.7057 0.67132 0.0
H127 H 0.99565 0.87349 0.68224 0.0
H128 H 0.88938 0.79729 0.67541 0.0
H129 H 0.19098 0.76067 0.70917 0.0
H130 H 0.99451 0.75339 0.79215 0.0
H131 H 0.05921 0.65825 0.72568 0.0
C132 C 0.75059 0.54456 0.82803 0.0
C133 C 0.73755 0.58078 0.80899 0.0
N134 N 0.69605 0.57785 0.80194 0.0
N135 N 0.71749 0.51869 0.8335 0.0
C136 C 0.68469 0.54063 0.81767 0.0
H137 H 0.7829 0.53593 0.83389 0.0
Co138 Co 0.7199 0.45862 0.84366 0.0
C139 C 0.62241 0.44891 0.82347 0.0
O140 O 0.59481 0.47929 0.82876 0.0
N141 N 0.71875 0.39829 0.8513 0.0
C142 C 0.70556 0.33189 0.83364 0.0
C143 C 0.70367 0.37333 0.82303 0.0
C144 C 0.72922 0.37035 0.87951 0.0
N145 N 0.72167 0.32975 0.86905 0.0
O146 O 0.7082 0.46719 0.8978 0.0
H147 H 0.69237 0.38453 0.79563 0.0
H148 H 0.74191 0.37926 0.90698 0.0
O149 O 0.66084 0.4549 0.83208 0.0
C150 C 0.74219 0.47726 0.9153 0.0
O151 O 0.77575 0.48498 0.89463 0.0
N152 N 0.73929 0.45055 0.79321 0.0
C153 C 0.79391 0.4497 0.73035 0.0
C154 C 0.75543 0.47181 0.72865 0.0
C155 C 0.72774 0.47065 0.76017 0.0
C156 C 0.7768 0.42963 0.79509 0.0
C157 C 0.80323 0.42703 0.76374 0.0
H158 H 0.69907 0.48884 0.75909 0.0
H159 H 0.7876 0.41641 0.82193 0.0
H160 H 0.65361 0.52826 0.81396 0.0
H161 H 0.75762 0.6056 0.79833 0.0
H162 H 0.69632 0.30509 0.81646 0.0
H163 H 0.74768 0.49153 0.70434 0.0
H164 H 0.83255 0.40973 0.76668 0.0
C165 C 0.95898 0.71871 0.35736 0.0
C166 C 0.92561 0.69779 0.34063 0.0
N167 N 0.94091 0.66637 0.31855 0.0
N168 N 0.9954 0.69992 0.3471 0.0
C169 C 0.98296 0.66767 0.3242 0.0
H170 H 0.95685 0.74828 0.37252 0.0
Co171 Co 0.05084 0.72242 0.35001 0.0
C172 C 0.09663 0.64679 0.31555 0.0
O173 O 0.1076 0.66643 0.28413 0.0
N174 N 0.10854 0.74406 0.35103 0.0
C175 C 0.17375 0.75611 0.32935 0.0
C176 C 0.1333 0.74663 0.31945 0.0
C177 C 0.13563 0.75425 0.37991 0.0
N178 N 0.17571 0.76035 0.36747 0.0
O179 O 0.05279 0.71247 0.40516 0.0
H180 H 0.1234 0.74119 0.29035 0.0
H181 H 0.12659 0.75682 0.40941 0.0
O182 O 0.07477 0.66556 0.34121 0.0
C183 C 0.04096 0.74547 0.42348 0.0
O184 O 0.02992 0.7789 0.40354 0.0
N185 N 0.0453 0.73853 0.29861 0.0
C186 C 0.05031 0.78229 0.23017 0.0
C187 C 0.03951 0.73946 0.23016 0.0
C188 C 0.03826 0.71761 0.265 0.0
C189 C 0.04562 0.78145 0.29891 0.0
C190 C 0.04946 0.80396 0.2651 0.0
H191 H 0.03408 0.684 0.26422 0.0
H192 H 0.04745 0.79801 0.32593 0.0
H193 H 1.00444 0.64749 0.3091 0.0
H194 H 0.89298 0.70764 0.34152 0.0
H195 H 0.20016 0.75892 0.30996 0.0
H196 H 0.03564 0.72233 0.20363 0.0
H197 H 0.05611 0.83738 0.26669 0.0
C198 C 0.84014 0.96962 0.86461 0.0
C199 C 0.86438 0.94069 0.84464 0.0
N200 N 0.85998 0.94805 0.80684 0.0
N201 N 0.82038 0.99589 0.83986 0.0
C202 C 0.8335 0.98164 0.80483 0.0
H203 H 0.83696 0.97083 0.89541 0.0
Co204 Co 0.78237 0.04208 0.85249 0.0
C205 C 0.82006 0.11711 0.8163 0.0
O206 O 0.7832 0.1242 0.80076 0.0
N207 N 0.74594 0.08962 0.86444 0.0
C208 C 0.70264 0.14452 0.85683 0.0
C209 C 0.71057 0.10322 0.84677 0.0
C210 C 0.75715 0.12299 0.88674 0.0
N211 N 0.7324 0.15758 0.88159 0.0
O212 O 0.80228 0.04314 0.90566 0.0
H213 H 0.69335 0.08602 0.82528 0.0
H214 H 0.78386 0.12194 0.90548 0.0
O215 O 0.82514 0.08361 0.83644 0.0
C216 C 0.77283 0.02944 0.92745 0.0
O217 O 0.73802 0.01692 0.91076 0.0
N218 N 0.75732 0.03592 0.80374 0.0
C219 C 0.69969 0.02374 0.74426 0.0
C220 C 0.73773 0.04545 0.73804 0.0
C221 C 0.7669 0.04961 0.76771 0.0
C222 C 0.72392 0.00991 0.80885 0.0
C223 C 0.69508 1.00295 0.77954 0.0
H224 H 0.79658 0.06448 0.76161 0.0
H225 H 0.71847 0.99613 0.83674 0.0
H226 H 0.82407 0.99501 0.77784 0.0
H227 H 0.88309 0.91548 0.85697 0.0
H228 H 0.67793 0.16432 0.8451 0.0
H229 H 0.74431 0.0612 0.71122 0.0
H230 H 0.66888 0.98286 0.78575 0.0
C231 C 0.5604 0.78474 0.35061 0.0
C232 C 0.59138 0.80561 0.33058 0.0
N233 N 0.57775 0.84496 0.32309 0.0
N234 N 0.52667 0.8103 0.35533 0.0
C235 C 0.5393 0.84739 0.33964 0.0
H236 H 0.56071 0.75148 0.35741 0.0
Co237 Co 0.472 0.78704 0.36378 0.0
C238 C 0.43347 0.8751 0.3354 0.0
O239 O 0.45902 0.89172 0.31014 0.0
N240 N 0.41658 0.76363 0.37165 0.0
C241 C 0.35777 0.72655 0.36492 0.0
C242 C 0.40008 0.72779 0.35743 0.0
C243 C 0.38329 0.78233 0.38974 0.0
N244 N 0.34659 0.76086 0.38532 0.0
O245 O 0.47393 0.79995 0.41753 0.0
H246 H 0.41688 0.70378 0.34189 0.0
H247 H 0.38673 0.81074 0.40639 0.0
O248 O 0.44203 0.83949 0.35091 0.0
C249 C 0.48432 0.76551 0.43443 0.0
O250 O 0.49499 0.73287 0.41336 0.0
N251 N 0.47257 0.76848 0.31291 0.0
C252 C 0.45384 0.72085 0.24957 0.0
C253 C 0.45216 0.76506 0.24711 0.0
C254 C 0.46114 0.78861 0.27992 0.0
C255 C 0.48515 0.72737 0.31171 0.0
C256 C 0.47517 0.7024 0.28034 0.0
H257 H 0.4551 0.82192 0.2794 0.0
H258 H 0.49688 0.71238 0.33744 0.0
H259 H 0.52062 0.87541 0.33881 0.0
H260 H 0.6199 0.7917 0.31917 0.0
H261 H 0.3365 0.702 0.35576 0.0
H262 H 0.43728 0.78043 0.22287 0.0
H263 H 0.47828 0.66845 0.28274 0.0
C264 C 0.31622 0.05055 0.86259 0.0
C265 C 0.33775 0.08059 0.84186 0.0
N266 N 0.36101 0.06091 0.81493 0.0
N267 N 0.32572 0.01196 0.84885 0.0
C268 C 0.35348 0.01931 0.82008 0.0
H269 H 0.29284 0.0567 0.88436 0.0
Co270 Co 0.29631 0.96157 0.85834 0.0
C271 C 0.35492 0.89372 0.83369 0.0
O272 O 0.32464 0.87406 0.81568 0.0
N273 N 0.26656 0.90834 0.86741 0.0
C274 C 0.23343 0.84765 0.85596 0.0
C275 C 0.24225 0.88709 0.84234 0.0
C276 C 0.27042 0.88045 0.89711 0.0
N277 N 0.25112 0.84284 0.89065 0.0
O278 O 0.31055 0.96442 0.91147 0.0
H279 H 0.23375 0.8975 0.81425 0.0
H280 H 0.28695 0.88793 0.92285 0.0
O281 O 0.34771 0.92947 0.84907 0.0
C282 C 0.27838 0.97421 0.93144 0.0
O283 O 0.24256 0.98012 0.91333 0.0
N284 N 0.27735 0.96426 0.80759 0.0
C285 C 0.2142 0.95756 0.75483 0.0
C286 C 0.25299 0.93731 0.74807 0.0
C287 C 0.28575 0.94304 0.77445 0.0
C288 C 0.24414 0.99163 0.80898 0.0
C289 C 0.21282 0.99043 0.78126 0.0
H290 H 0.31519 0.9269 0.77007 0.0
H291 H 0.23914 0.01063 0.83429 0.0
H292 H 0.3654 0.99492 0.80126 0.0
H293 H 0.33497 0.11445 0.84504 0.0
H294 H 0.21652 0.82342 0.84059 0.0
H295 H 0.25622 0.91389 0.7257 0.0
H296 H 0.18413 0.00836 0.78569 0.0
C297 C 0.4566 0.28938 0.34927 0.0
C298 C 0.42376 0.3114 0.33225 0.0
N299 N 0.43984 0.34347 0.31171 0.0
N300 N 0.49341 0.3074 0.33959 0.0
C301 C 0.48187 0.34057 0.31707 0.0
H302 H 0.4539 0.2603 0.36525 0.0
Co303 Co 0.54835 0.28377 0.34412 0.0
C304 C 0.60138 0.35136 0.31164 0.0
O305 O 0.62205 0.32359 0.29095 0.0
N306 N 0.60507 0.2606 0.34768 0.0
C307 C 0.66335 0.22357 0.33473 0.0
C308 C 0.6208 0.2263 0.32944 0.0
C309 C 0.63955 0.27685 0.36561 0.0
N310 N 0.67566 0.25535 0.35743 0.0
O311 O 0.54984 0.29509 0.39844 0.0
H312 H 0.60354 0.20424 0.31236 0.0
H313 H 0.63842 0.30468 0.38341 0.0
O314 O 0.57137 0.33959 0.3332 0.0
C315 C 0.54014 0.26134 0.41647 0.0
O316 O 0.52961 0.22793 0.39654 0.0
N317 N 0.54359 0.26643 0.29284 0.0
C318 C 0.53879 0.21881 0.22582 0.0
C319 C 0.54205 0.26301 0.22406 0.0
C320 C 0.5459 0.28622 0.25818 0.0
C321 C 0.53135 0.22547 0.29442 0.0
C322 C 0.53131 0.20057 0.26179 0.0
H323 H 0.55048 0.31952 0.25644 0.0
H324 H 0.52606 0.21085 0.32197 0.0
H325 H 0.50384 0.36047 0.3023 0.0
H326 H 0.39086 0.30296 0.33298 0.0
H327 H 0.68401 0.20004 0.32226 0.0
H328 H 0.5438 0.27919 0.19678 0.0
H329 H 0.52706 0.16691 0.2651 0.0
C330 C 0.19316 0.4658 0.86222 0.0
C331 C 0.17434 0.43402 0.84152 0.0
N332 N 0.15544 0.4512 0.81064 0.0
N333 N 0.18639 0.50306 0.84452 0.0
C334 C 0.16295 0.49309 0.81329 0.0
H335 H 0.21228 0.46165 0.88753 0.0
Co336 Co 0.21217 0.55539 0.85628 0.0
C337 C 0.14401 0.61985 0.84294 0.0
O338 O 0.17094 0.65064 0.83858 0.0
N339 N 0.23852 0.60892 0.86871 0.0
C340 C 0.28223 0.66347 0.86714 0.0
C341 C 0.27323 0.62469 0.85218 0.0
C342 C 0.22824 0.63877 0.89529 0.0
N343 N 0.25436 0.67277 0.89501 0.0
O344 O 0.19993 0.54751 0.90957 0.0
H345 H 0.29039 0.60982 0.82957 0.0
H346 H 0.20092 0.63577 0.91289 0.0
O347 O 0.1571 0.5822 0.84827 0.0
C348 C 0.23368 0.54061 0.92848 0.0
O349 O 0.26939 0.53948 0.90952 0.0
N350 N 0.2295 0.55951 0.80453 0.0
C351 C 0.29196 0.56992 0.75045 0.0
C352 C 0.25966 0.60006 0.7538 0.0
C353 C 0.22745 0.59355 0.78058 0.0
C354 C 0.25677 0.52715 0.79664 0.0
C355 C 0.28701 0.53087 0.76812 0.0
H356 H 0.20535 0.61864 0.78553 0.0
H357 H 0.25901 0.50036 0.81568 0.0
H358 H 0.15364 0.51576 0.79164 0.0
H359 H 0.17552 0.40064 0.84798 0.0
H360 H 0.30697 0.68403 0.85713 0.0
H361 H 0.26197 0.63021 0.73936 0.0
H362 H 0.31101 0.50666 0.76542 0.0
C363 C 0.0655 0.22518 0.34237 0.0
C364 C 0.0967 0.20063 0.3261 0.0
N365 N 0.07835 0.16826 0.30794 0.0
N366 N 0.02734 0.20939 0.33348 0.0
C367 C 0.03676 0.17334 0.31419 0.0
H368 H 0.07034 0.2545 0.35746 0.0
Co369 Co 0.97565 0.23985 0.34103 0.0
C370 C 0.93629 0.16909 0.29465 0.0
O371 O 0.95971 0.17524 0.26419 0.0
N372 N 0.92357 0.26993 0.3491 0.0
C373 C 0.86769 0.30981 0.33613 0.0
C374 C 0.9103 0.30529 0.33125 0.0
C375 C 0.88873 0.25623 0.36792 0.0
N376 N 0.85345 0.27892 0.35935 0.0
O377 O 0.97448 0.22103 0.39336 0.0
H378 H 0.92967 0.32534 0.3136 0.0
H379 H 0.88932 0.22929 0.3867 0.0
O380 O 0.9413 0.19133 0.32486 0.0
C381 C 0.98332 0.25135 0.416 0.0
O382 O 0.99103 0.28853 0.40096 0.0
N383 N 0.98008 0.26323 0.29081 0.0
C384 C 0.98027 0.32385 0.23281 0.0
C385 C 0.94894 0.29306 0.23429 0.0
C386 C 0.94945 0.26306 0.26338 0.0
C387 C 0.01299 0.29052 0.28729 0.0
C388 C 0.01448 0.32012 0.25766 0.0
H389 H 0.92221 0.24392 0.2662 0.0
H390 H 0.03618 0.29276 0.3096 0.0
H391 H 0.01433 0.15135 0.3035 0.0
H392 H 0.13003 0.20725 0.32586 0.0
H393 H 0.84834 0.33361 0.32238 0.0
H394 H 0.92174 0.29485 0.21563 0.0
H395 H 0.04028 0.34216 0.25646 0.0
C396 C 0.29416 0.45324 0.16037 0.0
C397 C 0.31787 0.42275 0.17874 0.0
N398 N 0.34457 0.44187 0.20293 0.0
N399 N 0.3057 0.49181 0.17266 0.0
C400 C 0.33707 0.48372 0.1983 0.0
H401 H 0.26842 0.4473 0.14098 0.0
Co402 Co 0.27529 0.54274 0.16311 0.0
C403 C 0.32419 0.60869 0.19959 0.0
O404 O 0.29029 0.61672 0.21975 0.0
N405 N 0.24587 0.59576 0.15333 0.0
C406 C 0.21176 0.65685 0.16121 0.0
C407 C 0.21499 0.61559 0.1731 0.0
C408 C 0.25939 0.62602 0.12837 0.0
N409 N 0.24028 0.66404 0.13345 0.0
O410 O 0.29129 0.54218 0.11038 0.0
H411 H 0.19791 0.6028 0.19702 0.0
H412 H 0.28373 0.62039 0.10741 0.0
O413 O 0.32428 0.57705 0.17688 0.0
C414 C 0.25985 0.52704 0.09227 0.0
O415 O 0.22868 0.51095 0.11201 0.0
N416 N 0.25364 0.53849 0.21306 0.0
C417 C 0.20423 0.53095 0.27917 0.0
C418 C 0.24801 0.538 0.28155 0.0
C419 C 0.27232 0.54042 0.2482 0.0
C420 C 0.21327 0.52517 0.21028 0.0
C421 C 0.18787 0.52215 0.24249 0.0
H422 H 0.3056 0.54612 0.25087 0.0
H423 H 0.19965 0.52004 0.18231 0.0
H424 H 0.35254 0.50774 0.21499 0.0
H425 H 0.31434 0.38896 0.17597 0.0
H426 H 0.19154 0.68066 0.17381 0.0
H427 H 0.26391 0.54334 0.30828 0.0
H428 H 0.15496 0.51603 0.23753 0.0
C429 C 0.06361 0.30228 0.65091 0.0
C430 C 0.09476 0.32366 0.67044 0.0
N431 N 0.07647 0.35385 0.69196 0.0
N432 N 0.02582 0.31902 0.65992 0.0
C433 C 0.0349 0.35045 0.6848 0.0
H434 H 0.06798 0.27395 0.63414 0.0
Co435 Co 0.97306 0.29352 0.65333 0.0
C436 C 0.91264 0.36217 0.67548 0.0
O437 O 0.89159 0.33535 0.69652 0.0
N438 N 0.91901 0.26632 0.64738 0.0
C439 C 0.86829 0.21839 0.65356 0.0
C440 C 0.90999 0.22682 0.65933 0.0
C441 C 0.88203 0.2798 0.63169 0.0
N442 N 0.85031 0.25158 0.63589 0.0
O443 O 0.97582 0.30042 0.59842 0.0
H444 H 0.9321 0.20446 0.67102 0.0
H445 H 0.8784 0.30962 0.61725 0.0
O446 O 0.94569 0.34999 0.65773 0.0
C447 C 0.98356 0.2657 0.5811 0.0
O448 O 0.99007 0.23142 0.60143 0.0
N449 N 0.97323 0.28139 0.70609 0.0
C450 C 0.9488 0.23496 0.76827 0.0
C451 C 0.94619 0.27927 0.76981 0.0
C452 C 0.95914 0.30246 0.73771 0.0
C453 C 0.98801 0.24127 0.70997 0.0
C454 C 0.97486 0.21663 0.74061 0.0
H455 H 0.95396 0.33608 0.73719 0.0
H456 H 1.00335 0.22617 0.68592 0.0
H457 H 0.0114 0.36736 0.70078 0.0
H458 H 0.12791 0.31572 0.67092 0.0
H459 H 0.85239 0.18961 0.66155 0.0
H460 H 0.92857 0.29486 0.7923 0.0
H461 H 0.97953 0.18279 0.73934 0.0
C462 C 0.21645 0.04739 0.15999 0.0
C463 C 0.19453 0.07974 0.17733 0.0
N464 N 0.16515 0.06283 0.20024 0.0
N465 N 0.20104 0.00997 0.17173 0.0
C466 C 0.16916 0.02058 0.19586 0.0
H467 H 0.24391 0.05115 0.14217 0.0
Co468 Co 0.22923 0.95776 0.1648 0.0
C469 C 0.17252 0.89387 0.19725 0.0
O470 O 0.20148 0.88517 0.22282 0.0
N471 N 0.25718 0.90351 0.1574 0.0
C472 C 0.28937 0.84164 0.16689 0.0
C473 C 0.28448 0.88215 0.18007 0.0
C474 C 0.24694 0.87459 0.12999 0.0
N475 N 0.26492 0.8361 0.13577 0.0
O476 O 0.21796 0.95932 0.11112 0.0
H477 H 0.29799 0.8933 0.20641 0.0
H478 H 0.22641 0.88183 0.10624 0.0
O479 O 0.17759 0.92515 0.17437 0.0
C480 C 0.25135 0.97302 0.09512 0.0
O481 O 0.28263 0.98542 0.11684 0.0
N482 N 0.24609 0.96113 0.21613 0.0
C483 C 0.29059 0.95699 0.28346 0.0
C484 C 0.24655 0.95751 0.28465 0.0
C485 C 0.22447 0.96008 0.25001 0.0
C486 C 0.28748 0.97175 0.21622 0.0
C487 C 0.3108 0.96887 0.24968 0.0
H488 H 0.19071 0.95713 0.2505 0.0
H489 H 0.30349 0.97726 0.18941 0.0
H490 H 0.15106 0.99804 0.21202 0.0
H491 H 0.20137 0.11306 0.17523 0.0
H492 H 0.30742 0.817 0.18092 0.0
H493 H 0.22993 0.95033 0.31091 0.0
H494 H 0.34478 0.97061 0.24815 0.0
C495 C 0.46144 0.19556 0.6491 0.0
C496 C 0.43045 0.17407 0.66873 0.0
N497 N 0.44892 0.14941 0.6954 0.0
N498 N 0.49941 0.18481 0.66344 0.0
C499 C 0.4906 0.15611 0.69115 0.0
H500 H 0.45634 0.21981 0.62783 0.0
Co501 Co 0.55137 0.21262 0.65534 0.0
C502 C 0.6165 0.14588 0.67606 0.0
O503 O 0.64728 0.17249 0.68129 0.0
N504 N 0.60423 0.24089 0.6473 0.0
C505 C 0.65826 0.2824 0.66039 0.0
C506 C 0.61682 0.27487 0.66717 0.0
C507 C 0.63818 0.23158 0.62493 0.0
N508 N 0.6725 0.25521 0.63366 0.0
O509 O 0.54901 0.20015 0.60085 0.0
H510 H 0.59774 0.29231 0.68689 0.0
H511 H 0.63789 0.20701 0.60376 0.0
O512 O 0.57971 0.15865 0.66664 0.0
C513 C 0.54205 0.2336 0.58112 0.0
O514 O 0.53684 0.26927 0.59973 0.0
N515 N 0.5505 0.22975 0.70763 0.0
C516 C 0.55953 0.29217 0.76226 0.0
C517 C 0.5886 0.25884 0.76042 0.0
C518 C 0.5827 0.22681 0.73348 0.0
C519 C 0.51836 0.25766 0.7141 0.0
C520 C 0.52141 0.28813 0.74274 0.0
H521 H 0.60759 0.20437 0.73 0.0
H522 H 0.49271 0.26019 0.69395 0.0
H523 H 0.51388 0.14268 0.70998 0.0
H524 H 0.39684 0.17792 0.66509 0.0
H525 H 0.67688 0.306 0.67488 0.0
H526 H 0.61771 0.25999 0.7765 0.0
H527 H 0.49751 0.31252 0.74476 0.0
C528 C 0.64889 0.92163 0.27103 0.0
C529 C 0.62972 0.92316 0.23424 0.0
C530 C 0.5775 0.87148 0.25584 0.0
C531 C 0.59443 0.87256 0.29351 0.0
N532 N 0.64278 0.90236 0.33842 0.0
N533 N 0.57161 0.90548 0.19363 0.0
C534 C 0.62911 0.89893 0.30151 0.0
C535 C 0.5927 0.89982 0.22733 0.0
N536 N 0.68707 0.94016 0.27619 0.0
N537 N 0.54833 0.84175 0.24682 0.0
H538 H 0.58205 0.92615 0.17244 0.0
H539 H 0.54214 0.89271 0.18816 0.0
H540 H 0.53828 0.81938 0.26656 0.0
H541 H 0.53739 0.83656 0.21912 0.0
H542 H 0.7047 0.93733 0.30119 0.0
H543 H 0.70285 0.95536 0.25401 0.0
H544 H 0.66534 0.92395 0.3472 0.0
H545 H 0.62903 0.88552 0.36081 0.0
C546 C 0.6731 0.60009 0.7362 0.0
C547 C 0.67047 0.60442 0.77672 0.0
C548 C 0.61769 0.66112 0.76794 0.0
C549 C 0.61891 0.65539 0.72748 0.0
N550 N 0.64251 0.61509 0.67354 0.0
N551 N 0.63661 0.63493 0.83144 0.0
C552 C 0.64504 0.62342 0.71183 0.0
C553 C 0.6415 0.63372 0.79259 0.0
N554 N 0.7033 0.57443 0.72097 0.0
N555 N 0.59434 0.69345 0.78272 0.0
H556 H 0.65488 0.61656 0.84994 0.0
H557 H 0.61305 0.65199 0.84525 0.0
H558 H 0.57634 0.71346 0.76561 0.0
H559 H 0.59478 0.7023 0.8114 0.0
H560 H 0.7098 0.57244 0.69181 0.0
H561 H 0.72429 0.55743 0.73794 0.0
H562 H 0.65699 0.58933 0.66051 0.0
H563 H 0.62324 0.63254 0.65515 0.0
C564 C 0.92459 0.59889 0.28431 0.0
C565 C 0.91902 0.64321 0.28839 0.0
C566 C 0.86718 0.64129 0.23596 0.0
C567 C 0.87672 0.59829 0.22859 0.0
N568 N 0.92273 0.53918 0.2409 0.0
N569 N 0.89464 0.70761 0.25839 0.0
C570 C 0.90774 0.57783 0.25149 0.0
C571 C 0.89293 0.66477 0.26152 0.0
N572 N 0.94489 0.57662 0.31226 0.0
N573 N 0.83261 0.65956 0.21964 0.0
H574 H 0.91632 0.72574 0.27337 0.0
H575 H 0.87856 0.72431 0.23716 0.0
H576 H 0.81154 0.64276 0.20272 0.0
H577 H 0.82239 0.68988 0.22669 0.0
H578 H 0.94682 0.5438 0.31238 0.0
H579 H 0.95597 0.59072 0.33724 0.0
H580 H 0.94792 0.52434 0.25458 0.0
H581 H 0.91307 0.52419 0.21587 0.0
C582 C 0.89468 0.85338 0.74816 0.0
C583 C 0.9146 0.87225 0.71581 0.0
C584 C 0.90201 0.94192 0.74596 0.0
C585 C 0.87739 0.92305 0.77529 0.0
N586 N 0.84106 0.8611 0.79689 0.0
N587 N 0.92952 0.93614 0.68119 0.0
C588 C 0.87092 0.87887 0.77406 0.0
C589 C 0.91603 0.9171 0.71396 0.0
N590 N 0.90062 0.81163 0.75612 0.0
N591 N 0.91365 0.98307 0.74939 0.0
H592 H 0.93803 0.91904 0.65687 0.0
H593 H 0.92799 0.96863 0.67687 0.0
H594 H 0.90544 1.00147 0.77299 0.0
H595 H 0.93486 0.99748 0.73087 0.0
H596 H 0.88956 0.79756 0.78114 0.0
H597 H 0.92109 0.79237 0.74075 0.0
H598 H 0.8325 0.82951 0.79466 0.0
H599 H 0.82153 0.87897 0.81462 0.0
C600 C 0.37423 0.07462 0.74538 0.0
C601 C 0.38479 0.08113 0.7845 0.0
C602 C 0.4353 0.13545 0.76475 0.0
C603 C 0.42806 0.12571 0.72557 0.0
N604 N 0.39681 0.07959 0.67912 0.0
N605 N 0.43201 0.11122 0.83061 0.0
C606 C 0.39933 0.0933 0.71608 0.0
C607 C 0.41741 0.1096 0.79389 0.0
N608 N 0.33888 0.05266 0.73613 0.0
N609 N 0.45722 0.17078 0.77428 0.0
H610 H 0.42037 0.0918 0.85224 0.0
H611 H 0.45836 0.12849 0.83857 0.0
H612 H 0.46834 0.19198 0.7539 0.0
H613 H 0.46022 0.18151 0.80234 0.0
H614 H 0.32755 0.05021 0.70823 0.0
H615 H 0.31839 0.04071 0.75667 0.0
H616 H 0.37939 0.05337 0.67098 0.0
H617 H 0.41553 0.09191 0.65733 0.0
C618 C 0.38702 0.39983 0.29765 0.0
C619 C 0.41744 0.37033 0.2845 0.0
C620 C 0.40498 0.39491 0.21837 0.0
C621 C 0.37118 0.42066 0.23101 0.0
N622 N 0.32543 0.44228 0.28233 0.0
N623 N 0.44944 0.33414 0.23135 0.0
C624 C 0.3611 0.42193 0.27067 0.0
C625 C 0.42508 0.36656 0.24453 0.0
N626 N 0.38347 0.40722 0.33601 0.0
N627 N 0.41806 0.39795 0.18126 0.0
H628 H 0.46184 0.31112 0.24948 0.0
H629 H 0.45349 0.32743 0.20238 0.0
H630 H 0.40397 0.41866 0.16178 0.0
H631 H 0.44505 0.38309 0.17093 0.0
H632 H 0.36481 0.43119 0.34745 0.0
H633 H 0.40219 0.39165 0.35617 0.0
H634 H 0.31408 0.44106 0.31028 0.0
H635 H 0.30502 0.45719 0.26323 0.0
C636 C 0.08405 0.374 0.76059 0.0
C637 C 0.09622 0.37891 0.72171 0.0
C638 C 0.14999 0.42978 0.74192 0.0
C639 C 0.13445 0.42841 0.78008 0.0
N640 N 0.08075 0.4056 0.82373 0.0
N641 N 0.13584 0.41701 0.67455 0.0
C642 C 0.09964 0.40237 0.78877 0.0
C643 C 0.1278 0.40849 0.71216 0.0
N644 N 0.05944 0.34079 0.77098 0.0
N645 N 0.18711 0.44947 0.73441 0.0
H646 H 0.11966 0.40238 0.65228 0.0
H647 H 0.15559 0.44119 0.66565 0.0
H648 H 0.20517 0.4635 0.75572 0.0
H649 H 0.20202 0.44815 0.70788 0.0
H650 H 0.05246 0.33352 0.79938 0.0
H651 H 0.05004 0.31773 0.75159 0.0
H652 H 0.05286 0.39026 0.83056 0.0
H653 H 0.09063 0.42706 0.84444 0.0
C654 C 0.12829 0.10962 0.29446 0.0
C655 C 0.09821 0.13937 0.28119 0.0
C656 C 0.10706 0.11209 0.21566 0.0
C657 C 0.14042 0.08583 0.22824 0.0
N658 N 0.18751 0.06425 0.27862 0.0
N659 N 0.06432 0.17416 0.22794 0.0
C660 C 0.15218 0.08561 0.2675 0.0
C661 C 0.08873 0.14182 0.24142 0.0
N662 N 0.13339 0.10391 0.33294 0.0
N663 N 0.09285 0.10828 0.17894 0.0
H664 H 0.05234 0.19788 0.24552 0.0
H665 H 0.05939 0.17993 0.19891 0.0
H666 H 0.10604 0.0868 0.15967 0.0
H667 H 0.06595 0.12346 0.16877 0.0
H668 H 0.15191 0.08 0.34471 0.0
H669 H 0.11604 0.12094 0.3531 0.0
H670 H 0.20015 0.06601 0.30609 0.0
H671 H 0.20635 0.04765 0.25937 0.0
C672 C 0.53605 0.11586 0.17458 0.0
C673 C 0.5749 0.1173 0.15521 0.0
C674 C 0.5808 0.19217 0.16764 0.0
C675 C 0.54479 0.19006 0.19202 0.0
N676 N 0.47798 0.15598 0.20159 0.0
N677 N 0.61516 0.16029 0.11287 0.0
C678 C 0.51854 0.15397 0.1891 0.0
C679 C 0.59024 0.15688 0.14425 0.0
N680 N 0.51793 0.07779 0.18145 0.0
N681 N 0.60861 0.22474 0.16911 0.0
H682 H 0.62257 0.1342 0.0959 0.0
H683 H 0.62245 0.18965 0.10144 0.0
H684 H 0.60728 0.24918 0.18877 0.0
H685 H 0.63592 0.22522 0.15264 0.0
H686 H 0.49185 0.07398 0.19914 0.0
H687 H 0.53058 0.05001 0.17008 0.0
H688 H 0.45687 0.13123 0.19841 0.0
H689 H 0.46484 0.18411 0.2117 0.0
C690 C 0.36389 0.59635 0.76563 0.0
C691 C 0.33445 0.58303 0.7376 0.0
C692 C 0.38442 0.60231 0.68696 0.0
C693 C 0.41071 0.62049 0.7153 0.0
N694 N 0.42036 0.64355 0.78047 0.0
N695 N 0.31693 0.57019 0.67169 0.0
C696 C 0.39868 0.62038 0.75419 0.0
C697 C 0.3447 0.58531 0.6981 0.0
N698 N 0.36073 0.58373 0.80296 0.0
N699 N 0.398 0.60059 0.64985 0.0
H700 H 0.28868 0.556 0.67949 0.0
H701 H 0.32096 0.57263 0.64221 0.0
H702 H 0.42618 0.61415 0.64097 0.0
H703 H 0.3824 0.58478 0.62805 0.0
H704 H 0.38392 0.58962 0.82334 0.0
H705 H 0.33826 0.5628 0.81289 0.0
H706 H 0.40969 0.64847 0.80837 0.0
H707 H 0.44651 0.66134 0.7733 0.0
C708 C 0.95934 0.35822 0.17203 0.0
C709 C 0.97109 0.36304 0.21083 0.0
C710 C 0.91671 0.41627 0.22033 0.0
C711 C 0.90026 0.40593 0.18391 0.0
N712 N 0.91113 0.37811 0.12071 0.0
N713 N 0.97611 0.41194 0.26344 0.0
C714 C 0.92393 0.38108 0.15794 0.0
C715 C 0.95522 0.39774 0.23193 0.0
N716 N 0.97999 0.32891 0.1504 0.0
N717 N 0.89391 0.44075 0.24499 0.0
H718 H 0.00521 0.39988 0.27166 0.0
H719 H 0.96726 0.439 0.27836 0.0
H720 H 0.86572 0.45524 0.23712 0.0
H721 H 0.90182 0.44489 0.27369 0.0
H722 H 0.97137 0.32041 0.12274 0.0
H723 H 0.00626 0.31283 0.16112 0.0
H724 H 0.92735 0.36146 0.09969 0.0
H725 H 0.88515 0.39495 0.11043 0.0
C726 C 0.15165 0.91282 0.77026 0.0
C727 C 0.1744 0.9371 0.7429 0.0
C728 C 0.12435 0.91518 0.69339 0.0
C729 C 0.10617 0.88672 0.72002 0.0
N730 N 0.1139 0.84838 0.77961 0.0
N731 N 0.18453 0.95858 0.67729 0.0
C732 C 0.12321 0.88247 0.75714 0.0
C733 C 0.16153 0.93726 0.70395 0.0
N734 N 0.15565 0.9188 0.80885 0.0
N735 N 0.10538 0.92233 0.65886 0.0
H736 H 0.21037 0.97704 0.68456 0.0
H737 H 0.17934 0.95607 0.64792 0.0
H738 H 0.07778 0.9073 0.65057 0.0
H739 H 0.11502 0.94566 0.63983 0.0
H740 H 0.13611 0.904 0.82866 0.0
H741 H 0.17477 0.94109 0.82157 0.0
H742 H 0.12934 0.84224 0.80542 0.0
H743 H 0.09488 0.82366 0.77057 0.0
C744 C 0.58188 0.36782 0.75383 0.0
C745 C 0.57249 0.33343 0.77883 0.0
C746 C 0.59567 0.37558 0.83395 0.0
C747 C 0.60788 0.4081 0.80841 0.0
N748 N 0.61966 0.43293 0.74422 0.0
N749 N 0.57125 0.30363 0.84234 0.0
C750 C 0.60307 0.40348 0.76846 0.0
C751 C 0.57976 0.33705 0.81887 0.0
N752 N 0.56938 0.36761 0.71632 0.0
N753 N 0.59861 0.38205 0.87258 0.0
H754 H 0.55663 0.27628 0.83268 0.0
H755 H 0.57962 0.3022 0.8711 0.0
H756 H 0.61188 0.4091 0.88436 0.0
H757 H 0.58629 0.36182 0.89312 0.0
H758 H 0.57087 0.39398 0.69859 0.0
H759 H 0.55363 0.34305 0.7032 0.0
H760 H 0.62322 0.42818 0.71487 0.0
H761 H 0.63303 0.4609 0.7538 0.0
C762 C 0.13119 0.53299 0.30665 0.0
C763 C 0.17455 0.54008 0.31205 0.0
C764 C 0.15882 0.60753 0.34149 0.0
C765 C 0.11836 0.60649 0.32432 0.0
N766 N 0.06294 0.56529 0.29596 0.0
N767 N 0.21804 0.56534 0.36296 0.0
C768 C 0.10299 0.5678 0.30956 0.0
C769 C 0.18526 0.57164 0.33853 0.0
N770 N 0.11801 0.49338 0.29792 0.0
N771 N 0.17291 0.64326 0.35863 0.0
H772 H 0.23377 0.53635 0.36397 0.0
H773 H 0.22554 0.58627 0.38491 0.0
H774 H 0.15343 0.66923 0.36324 0.0
H775 H 0.20422 0.64714 0.36661 0.0
H776 H 0.08648 0.48503 0.29576 0.0
H777 H 0.13959 0.46849 0.29575 0.0
H778 H 0.05145 0.53925 0.28123 0.0
H779 H 0.04172 0.59019 0.29847 0.0
C780 C 0.92821 0.17118 0.80725 0.0
C781 C 0.91639 0.20796 0.7867 0.0
C782 C 0.8429 0.19011 0.79665 0.0
C783 C 0.85428 0.1488 0.80966 0.0
N784 N 0.91165 0.0981 0.81794 0.0
N785 N 0.8608 0.24305 0.75072 0.0
C786 C 0.89805 0.13867 0.8129 0.0
C787 C 0.87331 0.21497 0.77827 0.0
N788 N 0.96834 0.16681 0.82054 0.0
N789 N 0.8035 0.20658 0.80177 0.0
H790 H 0.88146 0.25942 0.7332 0.0
H791 H 0.82959 0.24568 0.74175 0.0
H792 H 0.78021 0.19229 0.81795 0.0
H793 H 0.79601 0.23769 0.7946 0.0
H794 H 0.97764 0.14205 0.83837 0.0
H795 H 0.99089 0.19025 0.81687 0.0
H796 H 0.94338 0.08972 0.8172 0.0
H797 H 0.89213 0.07199 0.81754 0.0
C798 C 0.34621 0.95546 0.33404 0.0
C799 C 0.31614 0.93359 0.31188 0.0
C800 C 0.3579 0.86901 0.31577 0.0
C801 C 0.3897 0.89139 0.33566 0.0
N802 N 0.41012 0.95191 0.37235 0.0
N803 N 0.28655 0.86685 0.2926 0.0
C804 C 0.38224 0.93335 0.34797 0.0
C805 C 0.31959 0.88943 0.30676 0.0
N806 N 0.34119 0.99778 0.33971 0.0
N807 N 0.36505 0.82905 0.30295 0.0
H808 H 0.25788 0.8802 0.28492 0.0
H809 H 0.28565 0.83402 0.29255 0.0
H810 H 0.38998 0.81066 0.3122 0.0
H811 H 0.34687 0.81471 0.28193 0.0
H812 H 0.36395 0.01704 0.35184 0.0
H813 H 0.31401 0.01378 0.33102 0.0
H814 H 0.40552 0.98151 0.38453 0.0
H815 H 0.43649 0.93587 0.38283 0.0
C816 C 0.46873 0.86416 0.81891 0.0
C817 C 0.46292 0.82003 0.81702 0.0
C818 C 0.39404 0.82649 0.84596 0.0
C819 C 0.3955 0.87082 0.83937 0.0
N820 N 0.43934 0.93286 0.83491 0.0
N821 N 0.43265 0.75978 0.84598 0.0
C822 C 0.43482 0.89024 0.83152 0.0
C823 C 0.42973 0.80153 0.83723 0.0
N824 N 0.50565 0.88041 0.80577 0.0
N825 N 0.35759 0.80821 0.85777 0.0
H826 H 0.41092 0.74325 0.86243 0.0
H827 H 0.41092 0.74325 0.86243 0.0
H828 H 0.3322 0.82602 0.86735 0.0
H829 H 0.35179 0.77598 0.85672 0.0
H830 H 0.51169 0.9124 0.80257 0.0
H831 H 0.53044 0.86063 0.79755 0.0
H832 H 0.46747 0.94862 0.83041 0.0
H833 H 0.41594 0.95252 0.84566 0.0
C834 C 0.63391 0.45144 0.2641 0.0
C835 C 0.67021 0.45892 0.2869 0.0
C836 C 0.64192 0.41264 0.33673 0.0
C837 C 0.6138 0.39627 0.30925 0.0
N838 N 0.57451 0.40614 0.25139 0.0
N839 N 0.70446 0.45472 0.34804 0.0
C840 C 0.60665 0.41824 0.27465 0.0
C841 C 0.67211 0.44287 0.3248 0.0
N842 N 0.62559 0.47545 0.23241 0.0
N843 N 0.64015 0.39836 0.37357 0.0
H844 H 0.72562 0.47811 0.33983 0.0
H845 H 0.71081 0.44117 0.37459 0.0
H846 H 0.61726 0.37705 0.3824 0.0
H847 H 0.6586 0.41 0.39573 0.0
H848 H 0.59797 0.47348 0.21658 0.0
H849 H 0.64379 0.50066 0.22368 0.0
H850 H 0.57121 0.41514 0.22287 0.0
H851 H 0.55061 0.38696 0.26144 0.0
C852 C 0.03884 0.63276 0.79696 0.0
C853 C 0.03968 0.67742 0.79934 0.0
C854 C 0.08731 0.6713 0.85357 0.0
C855 C 0.09856 0.63076 0.84064 0.0
N856 N 0.07584 0.56696 0.80985 0.0
N857 N 0.06068 0.73945 0.83313 0.0
C858 C 0.07078 0.60908 0.816 0.0
C859 C 0.06141 0.69669 0.82997 0.0
N860 N 0.0084 0.61394 0.77556 0.0
N861 N 0.103 0.68538 0.88745 0.0
H862 H 0.07904 0.7565 0.85235 0.0
H863 H 0.07904 0.7565 0.85235 0.0
H864 H 0.12166 0.66573 0.90455 0.0
H865 H 0.09346 0.71357 0.90013 0.0
H866 H 1.00443 0.58144 0.77385 0.0
H867 H 0.98498 0.63173 0.76198 0.0
H868 H 0.06016 0.55035 0.78854 0.0
H869 H 0.09514 0.5485 0.82726 0.0
C870 C 0.90816 0.09623 0.28813 0.0
C871 C 0.90024 0.14013 0.29115 0.0
C872 C 0.82784 0.12968 0.26973 0.0
C873 C 0.83832 0.08753 0.26005 0.0
N874 N 0.88709 0.02934 0.26034 0.0
N875 N 0.85255 0.19922 0.28484 0.0
C876 C 0.87796 0.07014 0.26988 0.0
C877 C 0.85982 0.15687 0.2827 0.0
N878 N 0.94445 0.0798 0.30297 0.0
N879 N 0.78731 0.14388 0.26615 0.0
H880 H 0.87246 0.2193 0.29947 0.0
H881 H 0.8268 0.21433 0.27236 0.0
H882 H 0.76297 0.1255 0.25546 0.0
H883 H 0.77688 0.17276 0.27683 0.0
H884 H 0.95115 0.04766 0.30419 0.0
H885 H 0.96612 0.09839 0.31757 0.0
H886 H 0.91693 0.01595 0.26274 0.0
H887 H 0.86479 0.00926 0.24836 0.0
C888 C 0.3791 0.70393 0.23474 0.0
C889 C 0.42229 0.69495 0.22913 0.0
C890 C 0.40306 0.62762 0.19944 0.0
C891 C 0.35966 0.63919 0.2025 0.0
N892 N 0.31068 0.69823 0.20768 0.0
N893 N 0.47528 0.65256 0.19824 0.0
C894 C 0.34927 0.68075 0.21453 0.0
C895 C 0.43427 0.65827 0.20856 0.0
N896 N 0.36564 0.73164 0.26207 0.0
N897 N 0.41501 0.58743 0.1904 0.0
H898 H 0.49845 0.6746 0.20473 0.0
H899 H 0.48531 0.62827 0.1803 0.0
H900 H 0.39426 0.56354 0.18343 0.0
H901 H 0.446 0.57687 0.19253 0.0
H902 H 0.33393 0.73573 0.26887 0.0
H903 H 0.38565 0.74569 0.28163 0.0
H904 H 0.30377 0.72974 0.21382 0.0
H905 H 0.2878 0.68336 0.19151 0.0
C906 C 0.82301 0.43127 0.66468 0.0
C907 C 0.82766 0.45173 0.70051 0.0
C908 C 0.90255 0.43475 0.70107 0.0
C909 C 0.89509 0.40546 0.6715 0.0
N910 N 0.85841 0.39276 0.61315 0.0
N911 N 0.87416 0.4915 0.74043 0.0
C912 C 0.85865 0.41007 0.64884 0.0
C913 C 0.86877 0.46062 0.71376 0.0
N914 N 0.78486 0.43064 0.64695 0.0
N915 N 0.94084 0.43541 0.71843 0.0
H916 H 0.84877 0.50972 0.74997 0.0
H917 H 0.90342 0.50104 0.75046 0.0
H918 H 0.96596 0.4182 0.70737 0.0
H919 H 0.9475 0.45264 0.74304 0.0
H920 H 0.77919 0.41522 0.62125 0.0
H921 H 0.7586 0.4461 0.65786 0.0
H922 H 0.83336 0.39497 0.59408 0.0
H923 H 0.88566 0.37913 0.6018 0.0
C924 C 0.06265 0.84475 0.18936 0.0
C925 C 0.07334 0.80252 0.19799 0.0
C926 C 0.14763 0.8188 0.19356 0.0
C927 C 0.13783 0.86284 0.19199 0.0
N928 N 0.08489 0.91784 0.18623 0.0
N929 N 0.12561 0.74772 0.18851 0.0
C930 C 0.09497 0.87592 0.18785 0.0
C931 C 0.11521 0.78909 0.19301 0.0
N932 N 0.02111 0.85458 0.18516 0.0
N933 N 0.1881 0.80427 0.19558 0.0
H934 H 0.10386 0.72367 0.18476 0.0
H935 H 0.10386 0.72367 0.18476 0.0
H936 H 0.21421 0.82316 0.19263 0.0
H937 H 0.19569 0.77238 0.19891 0.0
H938 H 0.00968 0.88408 0.17711 0.0
H939 H 0.99813 0.83127 0.18729 0.0
H940 H 0.0543 0.92953 0.18605 0.0
H941 H 0.10709 0.94171 0.18694 0.0
C942 C 0.62531 0.04516 0.7332 0.0
C943 C 0.66325 0.03011 0.71726 0.0
C944 C 0.65099 0.07652 0.66227 0.0
C945 C 0.62431 0.10133 0.68597 0.0
N946 N 0.58565 0.10825 0.74552 0.0
N947 N 0.70163 0.01826 0.65944 0.0
C948 C 0.61051 0.08508 0.72161 0.0
C949 C 0.67181 0.04084 0.6787 0.0
N950 N 0.60239 0.02068 0.75733 0.0
N951 N 0.65694 0.08795 0.62496 0.0
H952 H 0.7158 0.99182 0.67199 0.0
H953 H 0.71233 0.02554 0.63209 0.0
H954 H 0.64088 0.11343 0.61273 0.0
H955 H 0.67537 0.07103 0.60569 0.0
H956 H 0.57339 0.03032 0.76831 0.0
H957 H 0.60902 0.98866 0.76064 0.0
H958 H 0.57821 0.09824 0.77317 0.0
H959 H 0.57558 0.13862 0.73894 0.0
C960 C 0.71811 0.29097 0.10056 0.0
C961 C 0.75083 0.31097 0.1211 0.0
C962 C 0.77345 0.24229 0.14635 0.0
C963 C 0.73799 0.22321 0.12931 0.0
N964 N 0.68948 0.2252 0.07672 0.0
N965 N 0.82132 0.30112 0.14505 0.0
C966 C 0.71446 0.24618 0.10183 0.0
C967 C 0.78236 0.28533 0.13838 0.0
N968 N 0.68994 0.31516 0.08077 0.0
N969 N 0.79815 0.21923 0.17064 0.0
H970 H 0.8307 0.32951 0.13311 0.0
H971 H 0.84607 0.28332 0.15624 0.0
H972 H 0.79387 0.18689 0.17459 0.0
H973 H 0.82148 0.23249 0.1877 0.0
H974 H 0.66247 0.30329 0.06877 0.0
H975 H 0.69387 0.34765 0.07762 0.0
H976 H 0.67343 0.23989 0.05433 0.0
H977 H 0.68889 0.19239 0.07581 0.0
C978 C 0.28577 0.78375 0.62925 0.0
C979 C 0.30502 0.74437 0.63748 0.0
C980 C 0.23548 0.71038 0.63498 0.0
C981 C 0.21596 0.75051 0.63389 0.0
N982 N 0.22086 0.82517 0.62536 0.0
N983 N 0.30003 0.66948 0.64279 0.0
C984 C 0.24079 0.78709 0.62853 0.0
C985 C 0.28027 0.70732 0.63768 0.0
N986 N 0.31085 0.8179 0.62351 0.0
N987 N 0.21049 0.67554 0.63506 0.0
H988 H 0.33275 0.66684 0.64333 0.0
H989 H 0.28444 0.64117 0.6466 0.0
H990 H 0.1778 0.67803 0.63329 0.0
H991 H 0.22154 0.64463 0.63466 0.0
H992 H 0.29983 0.8476 0.6156 0.0
H993 H 0.34357 0.81544 0.6244 0.0
H994 H 0.23611 0.85406 0.62457 0.0
H995 H 0.18815 0.82761 0.62396 0.0
C996 C 0.69969 0.22244 0.90771 0.0
C997 C 0.73652 0.20116 0.89501 0.0
C998 C 0.76951 0.27007 0.88264 0.0
C999 C 0.73028 0.29025 0.88846 0.0
N1000 N 0.65971 0.28824 0.91156 0.0
N1001 N 0.81226 0.20704 0.88753 0.0
C1002 C 0.6962 0.26718 0.90362 0.0
C1003 C 0.77347 0.22558 0.88836 0.0
N1004 N 0.66828 0.19913 0.92363 0.0
N1005 N 0.80203 0.2931 0.86825 0.0
H1006 H 0.81748 0.17501 0.89018 0.0
H1007 H 0.84016 0.22403 0.88715 0.0
H1008 H 0.8002 0.32577 0.86503 0.0
H1009 H 0.82973 0.27989 0.85769 0.0
H1010 H 0.64079 0.21175 0.93507 0.0
H1011 H 0.67159 0.16668 0.92791 0.0
H1012 H 0.63186 0.27381 0.91972 0.0
H1013 H 0.65757 0.32103 0.90947 0.0
C1014 C 0.27957 0.73567 0.41322 0.0
C1015 C 0.30335 0.76946 0.39775 0.0
C1016 C 0.23736 0.80528 0.37973 0.0
C1017 C 0.21469 0.7681 0.38806 0.0
N1018 N 0.21107 0.70357 0.42387 0.0
N1019 N 0.30221 0.84435 0.38543 0.0
C1020 C 0.23477 0.73526 0.40895 0.0
C1021 C 0.28155 0.80695 0.38696 0.0
N1022 N 0.3007 0.70368 0.43119 0.0
N1023 N 0.21638 0.83842 0.36343 0.0
H1024 H 0.33364 0.84735 0.39249 0.0
H1025 H 0.28712 0.8733 0.38192 0.0
H1026 H 0.18377 0.83833 0.35998 0.0
H1027 H 0.23095 0.86523 0.35273 0.0
H1028 H 0.28706 0.67599 0.44095 0.0
H1029 H 0.33289 0.7056 0.43679 0.0
H1030 H 0.22284 0.67875 0.44019 0.0
H1031 H 0.17852 0.70321 0.42146 0.0
C1032 C 0.21379 0.73554 0.91983 0.0
C1033 C 0.25226 0.71371 0.91454 0.0
C1034 C 0.28833 0.78168 0.923 0.0
C1035 C 0.25065 0.80301 0.91192 0.0
N1036 N 0.17513 0.80066 0.90986 0.0
N1037 N 0.32668 0.71505 0.92547 0.0
C1038 C 0.21255 0.77995 0.91382 0.0
C1039 C 0.28978 0.73665 0.92112 0.0
N1040 N 0.18033 0.71547 0.93552 0.0
N1041 N 0.32164 0.8036 0.93704 0.0
H1042 H 0.32731 0.6823 0.92863 0.0
H1043 H 0.3561 0.72925 0.92505 0.0
H1044 H 0.32066 0.83578 0.94178 0.0
H1045 H 0.34865 0.78936 0.94801 0.0
H1046 H 0.15261 0.73113 0.9429 0.0
H1047 H 0.1835 0.68586 0.94805 0.0
H1048 H 0.14664 0.78499 0.90652 0.0
H1049 H 0.17331 0.83353 0.90893 0.0
C1050 C 0.78995 0.23144 0.37175 0.0
C1051 C 0.80903 0.27222 0.3691 0.0
C1052 C 0.73828 0.30338 0.3633 0.0
C1053 C 0.71935 0.26331 0.36785 0.0
N1054 N 0.72829 0.19318 0.39277 0.0
N1055 N 0.79736 0.34626 0.38168 0.0
C1056 C 0.74569 0.22878 0.37782 0.0
C1057 C 0.7818 0.30794 0.37145 0.0
N1058 N 0.81208 0.19509 0.3658 0.0
N1059 N 0.71636 0.33646 0.3483 0.0
H1060 H 0.8284 0.34989 0.39074 0.0
H1061 H 0.77809 0.37264 0.38566 0.0
H1062 H 0.6859 0.33357 0.33809 0.0
H1063 H 0.73054 0.36515 0.34177 0.0
H1064 H 0.79756 0.16579 0.36377 0.0
H1065 H 0.84349 0.19369 0.35847 0.0
H1066 H 0.74634 0.16813 0.40323 0.0
H1067 H 0.69621 0.19126 0.39883 0.0
C1068 C 0.2901 0.72404 0.11709 0.0
C1069 C 0.24909 0.70579 0.11741 0.0
C1070 C 0.21778 0.77691 0.11183 0.0
C1071 C 0.25836 0.79505 0.1175 0.0
N1072 N 0.3317 0.78685 0.10478 0.0
N1073 N 0.17806 0.71368 0.0961 0.0
C1074 C 0.29396 0.76862 0.11272 0.0
C1075 C 0.2144 0.73213 0.1081 0.0
N1076 N 0.32525 0.70024 0.12351 0.0
N1077 N 0.18229 0.80124 0.1119 0.0
H1078 H 0.17585 0.68104 0.0927 0.0
H1079 H 0.15225 0.73042 0.08561 0.0
H1080 H 0.18215 0.83373 0.11411 0.0
H1081 H 0.15207 0.78886 0.11209 0.0
H1082 H 0.3548 0.71323 0.12821 0.0
H1083 H 0.3252 0.66791 0.12734 0.0
H1084 H 0.35861 0.76975 0.09757 0.0
H1085 H 0.3344 0.81945 0.10123 0.0
C1086 C 0.74017 0.21554 0.61622 0.0
C1087 C 0.71631 0.25362 0.62087 0.0
C1088 C 0.78177 0.29154 0.63148 0.0
C1089 C 0.80604 0.25457 0.62511 0.0
N1090 N 0.80674 0.18654 0.59449 0.0
N1091 N 0.7189 0.32895 0.61265 0.0
C1092 C 0.78469 0.21825 0.61171 0.0
C1093 C 0.7389 0.29194 0.62084 0.0
N1094 N 0.72218 0.17678 0.6184 0.0
N1095 N 0.79715 0.32444 0.65185 0.0
H1096 H 0.68768 0.32974 0.60336 0.0
H1097 H 0.73488 0.3575 0.61122 0.0
H1098 H 0.8264 0.3236 0.66473 0.0
H1099 H 0.77787 0.34924 0.66075 0.0
H1100 H 0.73992 0.14902 0.61925 0.0
H1101 H 0.69048 0.17188 0.62235 0.0
H1102 H 0.79216 0.16064 0.58192 0.0
H1103 H 0.83882 0.18906 0.58873 0.0
C1104 C 0.75203 0.99445 0.98877 0.0
C1105 C 0.7742 0.0278 0.97072 0.0
C1106 C 0.77783 0.06351 0.03356 0.0
C1107 C 0.74983 0.03326 0.04961 0.0
N1108 N 0.70422 0.97413 0.03928 0.0
N1109 N 0.81048 0.09407 0.97726 0.0
C1110 C 0.7353 0.99992 0.02625 0.0
C1111 C 0.78808 0.0622 0.99355 0.0
N1112 N 0.74822 0.95666 0.97039 0.0
N1113 N 0.79568 0.09301 0.05672 0.0
H1114 H 0.82498 0.09138 0.95072 0.0
H1115 H 0.8148 0.12331 0.99016 0.0
H1116 H 0.78691 0.09695 0.08508 0.0
H1117 H 0.82051 0.11221 0.04847 0.0
H1118 H 0.73563 0.92993 0.98332 0.0
H1119 H 0.76242 0.95076 0.94395 0.0
H1120 H 0.68976 0.95152 0.02221 0.0
H1121 H 0.68943 0.97892 0.06553 0.0
C1122 C 0.51232 0.7763 0.5009 0.0
C1123 C 0.48114 0.75922 0.47664 0.0
C1124 C 0.4512 0.72024 0.53151 0.0
C1125 C 0.48345 0.73632 0.55542 0.0
N1126 N 0.55106 0.76963 0.56044 0.0
N1127 N 0.42427 0.71015 0.4672 0.0
C1128 C 0.51582 0.7615 0.5393 0.0
C1129 C 0.45165 0.72969 0.4915 0.0
N1130 N 0.53872 0.80667 0.48727 0.0
N1131 N 0.41924 0.69728 0.54706 0.0
H1132 H 0.42132 0.7182 0.43842 0.0
H1133 H 0.40599 0.6844 0.47495 0.0
H1134 H 0.41934 0.68659 0.57524 0.0
H1135 H 0.39161 0.69018 0.5325 0.0
H1136 H 0.55908 0.82368 0.50467 0.0
H1137 H 0.53786 0.81741 0.45903 0.0
H1138 H 0.57758 0.7844 0.54944 0.0
H1139 H 0.55561 0.75733 0.58789 0.0
C1140 C 0.73727 0.51371 0.01967 0.0
C1141 C 0.76495 0.48464 0.03826 0.0
C1142 C 0.77839 0.45124 0.97555 0.0
C1143 C 0.74677 0.47708 0.95814 0.0
N1144 N 0.69241 0.52973 0.96522 0.0
N1145 N 0.80957 0.42288 0.03337 0.0
C1146 C 0.72486 0.50708 0.9808 0.0
C1147 C 0.78513 0.45285 0.01602 0.0
N1148 N 0.72474 0.54933 0.03865 0.0
N1149 N 0.80281 0.42532 0.95339 0.0
H1150 H 0.81961 0.42486 0.06155 0.0
H1151 H 0.81877 0.39493 0.02006 0.0
H1152 H 0.79752 0.42015 0.92436 0.0
H1153 H 0.83015 0.41071 0.96327 0.0
H1154 H 0.7078 0.57373 0.02579 0.0
H1155 H 0.73559 0.55687 0.06599 0.0
H1156 H 0.67209 0.54838 0.98146 0.0
H1157 H 0.68359 0.52737 0.93656 0.0
C1158 C 0.07806 0.74962 0.48718 0.0
C1159 C 0.03989 0.74889 0.46632 0.0
C1160 C 1.00345 0.77676 0.52347 0.0
C1161 C 0.04274 0.78183 0.54214 0.0
N1162 N 0.11753 0.78698 0.53549 0.0
N1163 N 0.96535 0.76274 0.46463 0.0
C1164 C 0.08011 0.77263 0.52199 0.0
C1165 C 1.00229 0.76304 0.48451 0.0
N1166 N 0.11178 0.72662 0.47506 0.0
N1167 N 0.96724 0.78426 0.54343 0.0
H1168 H 0.96258 0.74819 0.43803 0.0
H1169 H 0.9379 0.77744 0.47406 0.0
H1170 H 0.96736 0.79745 0.57081 0.0
H1171 H 0.93745 0.77631 0.53354 0.0
H1172 H 0.13961 0.72428 0.49075 0.0
H1173 H 0.10961 0.70567 0.45218 0.0
H1174 H 0.1457 0.78319 0.52057 0.0
H1175 H 0.11889 0.80731 0.55895 0.0
C1176 C 0.23692 1.00138 0.02954 0.0
C1177 C 0.25797 0.9718 0.05315 0.0
C1178 C 0.2996 0.94715 0.9979 0.0
C1179 C 0.27858 0.97729 0.97424 0.0
N1180 N 0.2395 0.04262 0.9713 0.0
N1181 N 0.31464 0.92157 0.0619 0.0
C1182 C 0.25075 0.00716 0.99124 0.0
C1183 C 0.29088 0.94623 0.03792 0.0
N1184 N 0.2039 0.02433 0.0437 0.0
N1185 N 0.32712 0.91857 0.98256 0.0
H1186 H 0.30796 0.9175 0.09084 0.0
H1187 H 0.34268 0.90703 0.0538 0.0
H1188 H 0.34035 0.92126 0.95552 0.0
H1189 H 0.33661 0.89119 0.9967 0.0
H1190 H 0.18443 0.04295 0.02654 0.0
H1191 H 0.19379 0.0222 0.07204 0.0
H1192 H 0.22242 0.06746 0.98321 0.0
H1193 H 0.25173 0.04955 0.94432 0.0
C1194 C 0.50755 0.26054 0.52114 0.0
C1195 C 0.53941 0.23478 0.53807 0.0
C1196 C 0.5729 0.22772 0.47459 0.0
C1197 C 0.54331 0.25686 0.45892 0.0
N1198 N 0.4854 0.30492 0.46799 0.0
N1199 N 0.60251 0.19289 0.53032 0.0
C1200 C 0.51167 0.2746 0.48251 0.0
C1201 C 0.57192 0.21779 0.51455 0.0
N1202 N 0.47192 0.26952 0.54152 0.0
N1203 N 0.60162 0.20883 0.45089 0.0
H1204 H 0.59969 0.179 0.55711 0.0
H1205 H 0.6309 0.18587 0.5169 0.0
H1206 H 0.60569 0.2177 0.42237 0.0
H1207 H 0.62035 0.18325 0.45877 0.0
H1208 H 0.44568 0.28461 0.52994 0.0
H1209 H 0.46662 0.25756 0.56891 0.0
H1210 H 0.4647 0.32252 0.48476 0.0
H1211 H 0.48674 0.31511 0.43961 0.0
C1212 C 0.27745 0.50718 0.02474 0.0
C1213 C 0.25405 0.53251 0.0504 0.0
C1214 C 0.21267 0.56119 0.99653 0.0
C1215 C 0.23492 0.5342 0.97093 0.0
N1216 N 0.27861 0.47226 0.96323 0.0
N1217 N 0.19413 0.57818 0.06188 0.0
C1218 C 0.26457 0.50459 0.98583 0.0
C1219 C 0.22015 0.55788 0.03662 0.0
N1220 N 0.31179 0.4852 0.03753 0.0
N1221 N 0.18529 0.59103 0.98302 0.0
H1222 H 0.19919 0.57878 0.09129 0.0
H1223 H 0.16569 0.59214 0.05401 0.0
H1224 H 0.17345 0.5914 0.95536 0.0
H1225 H 0.17478 0.61645 0.99937 0.0
H1226 H 0.33276 0.46987 0.01926 0.0
H1227 H 0.32134 0.48516 0.06612 0.0
H1228 H 0.29716 0.44748 0.97337 0.0
H1229 H 0.26756 0.4674 0.93547 0.0
C1230 C 0.95144 0.23292 0.4803 0.0
C1231 C 0.98644 0.24674 0.45855 0.0
C1232 C 0.02104 0.27078 0.51791 0.0
C1233 C 0.98371 0.26215 0.53859 0.0
N1234 N 0.91232 0.23729 0.5397 0.0
N1235 N 0.0568 0.2743 0.45649 0.0
C1236 C 0.9487 0.24372 0.51982 0.0
C1237 C 0.02198 0.26422 0.47748 0.0
N1238 N 0.92152 0.20817 0.46373 0.0
N1239 N 0.05594 0.2841 0.53722 0.0
H1240 H 0.06061 0.26495 0.42806 0.0
H1241 H 0.08173 0.2921 0.46674 0.0
H1242 H 0.05568 0.29107 0.56638 0.0
H1243 H 0.08567 0.28663 0.52511 0.0
H1244 H 0.89708 0.19415 0.47879 0.0
H1245 H 0.92377 0.19706 0.43585 0.0
H1246 H 0.88383 0.22949 0.52693 0.0
H1247 H 0.9098 0.24279 0.56893 0.0
loop_
_geom_bond_atom_site_label_1
_geom_bond_atom_site_label_2
_geom_bond_distance
_geom_bond_site_symmetry_2
_ccdc_geom_bond_type
C0 C1 1.351 . S
C0 N3 1.368 . S
C0 H5 0.931 . S
C1 C0 1.351 . S
C1 N2 1.373 . S
C1 H29 0.930 . S
N2 C1 1.373 . S
N2 C4 1.340 . S
N3 C0 1.368 . S
N3 C4 1.321 . S
N3 Co6 2.135 1_565 S
C4 N2 1.340 . S
C4 N3 1.321 . S
C4 H28 0.930 . S
H5 C0 0.931 . S
Co6 N3 2.135 1_545 S
Co6 N9 2.121 . S
Co6 O14 2.055 . S
Co6 O17 2.039 . S
Co6 N20 2.140 . S
C7 O8 1.227 . S
C7 O17 1.265 . S
O8 C7 1.227 . S
N9 Co6 2.121 . S
N9 C11 1.375 . S
N9 C12 1.313 . S
C10 C11 1.338 . S
C10 N13 1.377 . S
C10 H30 0.930 . S
C11 N9 1.375 . S
C11 C10 1.338 . S
C11 H15 0.931 . S
C12 N9 1.313 . S
C12 N13 1.344 . S
C12 H16 0.930 . S
N13 C10 1.377 . S
N13 C12 1.344 . S
O14 Co6 2.055 . S
O14 C18 1.253 . S
H15 C11 0.931 . S
H16 C12 0.930 . S
O17 Co6 2.039 . S
O17 C7 1.265 . S
C18 O14 1.253 . S
C18 O19 1.227 . S
O19 C18 1.227 . S
N20 Co6 2.140 . S
N20 C23 1.346 . S
N20 C24 1.345 . S
C21 C22 1.387 . S
C21 C25 1.391 . S
C22 C21 1.387 . S
C22 C23 1.369 . S
C22 H31 0.929 . S
C23 N20 1.346 . S
C23 C22 1.369 . S
C23 H26 0.928 . S
C24 N20 1.345 . S
C24 C25 1.371 . S
C24 H27 0.931 . S
C25 C21 1.391 . S
C25 C24 1.371 . S
C25 H32 0.930 . S
H26 C23 0.928 . S
H27 C24 0.931 . S
H28 C4 0.930 . S
H29 C1 0.930 . S
H30 C10 0.930 . S
H31 C22 0.929 . S
H32 C25 0.930 . S
C33 C34 1.351 . S
C33 N36 1.368 . S
C33 H38 0.931 . S
C34 C33 1.351 . S
C34 N35 1.373 . S
C34 H62 0.930 . S
N35 C34 1.373 . S
N35 C37 1.340 . S
N36 C33 1.368 . S
N36 C37 1.321 . S
N36 Co39 2.135 . S
C37 N35 1.340 . S
C37 N36 1.321 . S
C37 H61 0.930 . S
H38 C33 0.931 . S
Co39 N36 2.135 . S
Co39 N42 2.121 . S
Co39 O47 2.055 . S
Co39 O50 2.039 . S
Co39 N53 2.140 . S
C40 O41 1.227 . S
C40 O50 1.265 . S
O41 C40 1.227 . S
N42 Co39 2.121 . S
N42 C44 1.375 . S
N42 C45 1.313 . S
C43 C44 1.338 . S
C43 N46 1.377 . S
C43 H63 0.930 . S
C44 N42 1.375 . S
C44 C43 1.338 . S
C44 H48 0.931 . S
C45 N42 1.313 . S
C45 N46 1.344 . S
C45 H49 0.930 . S
N46 C43 1.377 . S
N46 C45 1.344 . S
O47 Co39 2.055 . S
O47 C51 1.253 . S
H48 C44 0.931 . S
H49 C45 0.930 . S
O50 Co39 2.039 . S
O50 C40 1.265 . S
C51 O47 1.253 . S
C51 O52 1.227 . S
O52 C51 1.227 . S
N53 Co39 2.140 . S
N53 C56 1.346 . S
N53 C57 1.345 . S
C54 C55 1.387 . S
C54 C58 1.391 . S
C55 C54 1.387 . S
C55 C56 1.369 . S
C55 H64 0.929 . S
C56 N53 1.346 . S
C56 C55 1.369 . S
C56 H59 0.928 . S
C57 N53 1.345 . S
C57 C58 1.371 . S
C57 H60 0.931 . S
C58 C54 1.391 . S
C58 C57 1.371 . S
C58 H65 0.930 . S
H59 C56 0.928 . S
H60 C57 0.931 . S
H61 C37 0.930 . S
H62 C34 0.930 . S
H63 C43 0.930 . S
H64 C55 0.929 . S
H65 C58 0.930 . S
C66 C67 1.351 . S
C66 N69 1.368 . S
C66 H71 0.931 . S
C67 C66 1.351 . S
C67 N68 1.373 . S
C67 H95 0.930 . S
N68 C67 1.373 . S
N68 C70 1.340 . S
N69 C66 1.368 . S
N69 C70 1.321 . S
N69 Co72 2.135 . S
C70 N68 1.340 . S
C70 N69 1.321 . S
C70 H94 0.930 . S
H71 C66 0.931 . S
Co72 N69 2.135 . S
Co72 N75 2.121 . S
Co72 O80 2.055 . S
Co72 O83 2.039 . S
Co72 N86 2.140 . S
C73 O74 1.227 . S
C73 O83 1.265 . S
O74 C73 1.227 . S
N75 Co72 2.121 . S
N75 C77 1.375 . S
N75 C78 1.313 . S
C76 C77 1.338 . S
C76 N79 1.377 . S
C76 H96 0.930 . S
C77 N75 1.375 . S
C77 C76 1.338 . S
C77 H81 0.931 . S
C78 N75 1.313 . S
C78 N79 1.344 . S
C78 H82 0.930 . S
N79 C76 1.377 . S
N79 C78 1.344 . S
O80 Co72 2.055 . S
O80 C84 1.253 . S
H81 C77 0.931 . S
H82 C78 0.930 . S
O83 Co72 2.039 . S
O83 C73 1.265 . S
C84 O80 1.253 . S
C84 O85 1.227 . S
O85 C84 1.227 . S
N86 Co72 2.140 . S
N86 C89 1.346 . S
N86 C90 1.345 . S
C87 C88 1.387 . S
C87 C91 1.391 . S
C88 C87 1.387 . S
C88 C89 1.369 . S
C88 H97 0.929 . S
C89 N86 1.346 . S
C89 C88 1.369 . S
C89 H92 0.928 . S
C90 N86 1.345 . S
C90 C91 1.371 . S
C90 H93 0.931 . S
C91 C87 1.391 . S
C91 C90 1.371 . S
C91 H98 0.930 . S
H92 C89 0.928 . S
H93 C90 0.931 . S
H94 C70 0.930 . S
H95 C67 0.930 . S
H96 C76 0.930 . S
H97 C88 0.929 . S
H98 C91 0.930 . S
C99 C100 1.351 . S
C99 N102 1.368 . S
C99 H104 0.931 . S
C100 C99 1.351 . S
C100 N101 1.373 . S
C100 H128 0.930 . S
N101 C100 1.373 . S
N101 C103 1.340 . S
N102 C99 1.368 . S
N102 C103 1.321 . S
N102 Co105 2.135 1_655 S
C103 N101 1.340 . S
C103 N102 1.321 . S
C103 H127 0.930 . S
H104 C99 0.931 . S
Co105 N102 2.135 1_455 S
Co105 N108 2.121 . S
Co105 O113 2.055 . S
Co105 O116 2.039 . S
Co105 N119 2.140 . S
C106 O107 1.227 . S
C106 O116 1.265 . S
O107 C106 1.227 . S
N108 Co105 2.121 . S
N108 C110 1.375 . S
N108 C111 1.313 . S
C109 C110 1.338 . S
C109 N112 1.377 . S
C109 H129 0.930 . S
C110 N108 1.375 . S
C110 C109 1.338 . S
C110 H114 0.931 . S
C111 N108 1.313 . S
C111 N112 1.344 . S
C111 H115 0.930 . S
N112 C109 1.377 . S
N112 C111 1.344 . S
O113 Co105 2.055 . S
O113 C117 1.253 . S
H114 C110 0.931 . S
H115 C111 0.930 . S
O116 Co105 2.039 . S
O116 C106 1.265 . S
C117 O113 1.253 . S
C117 O118 1.227 . S
O118 C117 1.227 . S
N119 Co105 2.140 . S
N119 C122 1.346 . S
N119 C123 1.345 . S
C120 C121 1.387 . S
C120 C124 1.391 . S
C121 C120 1.387 . S
C121 C122 1.369 . S
C121 H130 0.929 . S
C122 N119 1.346 . S
C122 C121 1.369 . S
C122 H125 0.928 . S
C123 N119 1.345 . S
C123 C124 1.371 . S
C123 H126 0.931 . S
C124 C120 1.391 . S
C124 C123 1.371 . S
C124 H131 0.930 . S
H125 C122 0.928 . S
H126 C123 0.931 . S
H127 C103 0.930 . S
H128 C100 0.930 . S
H129 C109 0.930 . S
H130 C121 0.929 . S
H131 C124 0.930 . S
C132 C133 1.351 . S
C132 N135 1.368 . S
C132 H137 0.931 . S
C133 C132 1.351 . S
C133 N134 1.373 . S
C133 H161 0.930 . S
N134 C133 1.373 . S
N134 C136 1.340 . S
N135 C132 1.368 . S
N135 C136 1.321 . S
N135 Co138 2.135 . S
C136 N134 1.340 . S
C136 N135 1.321 . S
C136 H160 0.930 . S
H137 C132 0.931 . S
Co138 N135 2.135 . S
Co138 N141 2.121 . S
Co138 O146 2.055 . S
Co138 O149 2.039 . S
Co138 N152 2.140 . S
C139 O140 1.227 . S
C139 O149 1.265 . S
O140 C139 1.227 . S
N141 Co138 2.121 . S
N141 C143 1.375 . S
N141 C144 1.313 . S
C142 C143 1.338 . S
C142 N145 1.377 . S
C142 H162 0.930 . S
C143 N141 1.375 . S
C143 C142 1.338 . S
C143 H147 0.931 . S
C144 N141 1.313 . S
C144 N145 1.344 . S
C144 H148 0.930 . S
N145 C142 1.377 . S
N145 C144 1.344 . S
O146 Co138 2.055 . S
O146 C150 1.253 . S
H147 C143 0.931 . S
H148 C144 0.930 . S
O149 Co138 2.039 . S
O149 C139 1.265 . S
C150 O146 1.253 . S
C150 O151 1.227 . S
O151 C150 1.227 . S
N152 Co138 2.140 . S
N152 C155 1.346 . S
N152 C156 1.345 . S
C153 C154 1.387 . S
C153 C157 1.391 . S
C154 C153 1.387 . S
C154 C155 1.369 . S
C154 H163 0.929 . S
C155 N152 1.346 . S
C155 C154 1.369 . S
C155 H158 0.928 . S
C156 N152 1.345 . S
C156 C157 1.371 . S
C156 H159 0.931 . S
C157 C153 1.391 . S
C157 C156 1.371 . S
C157 H164 0.930 . S
H158 C155 0.928 . S
H159 C156 0.931 . S
H160 C136 0.930 . S
H161 C133 0.930 . S
H162 C142 0.930 . S
H163 C154 0.929 . S
H164 C157 0.930 . S
C165 C166 1.351 . S
C165 N168 1.368 . S
C165 H170 0.931 . S
C166 C165 1.351 . S
C166 N167 1.373 . S
C166 H194 0.930 . S
N167 C166 1.373 . S
N167 C169 1.340 . S
N168 C165 1.368 . S
N168 C169 1.321 . S
N168 Co171 2.135 1_655 S
C169 N167 1.340 . S
C169 N168 1.321 . S
C169 H193 0.930 . S
H170 C165 0.931 . S
Co171 N168 2.135 1_455 S
Co171 N174 2.121 . S
Co171 O179 2.055 . S
Co171 O182 2.039 . S
Co171 N185 2.140 . S
C172 O173 1.227 . S
C172 O182 1.265 . S
O173 C172 1.227 . S
N174 Co171 2.121 . S
N174 C176 1.375 . S
N174 C177 1.313 . S
C175 C176 1.338 . S
C175 N178 1.377 . S
C175 H195 0.930 . S
C176 N174 1.375 . S
C176 C175 1.338 . S
C176 H180 0.931 . S
C177 N174 1.313 . S
C177 N178 1.344 . S
C177 H181 0.930 . S
N178 C175 1.377 . S
N178 C177 1.344 . S
O179 Co171 2.055 . S
O179 C183 1.253 . S
H180 C176 0.931 . S
H181 C177 0.930 . S
O182 Co171 2.039 . S
O182 C172 1.265 . S
C183 O179 1.253 . S
C183 O184 1.227 . S
O184 C183 1.227 . S
N185 Co171 2.140 . S
N185 C188 1.346 . S
N185 C189 1.345 . S
C186 C187 1.387 . S
C186 C190 1.391 . S
C187 C186 1.387 . S
C187 C188 1.369 . S
C187 H196 0.929 . S
C188 N185 1.346 . S
C188 C187 1.369 . S
C188 H191 0.928 . S
C189 N185 1.345 . S
C189 C190 1.371 . S
C189 H192 0.931 . S
C190 C186 1.391 . S
C190 C189 1.371 . S
C190 H197 0.930 . S
H191 C188 0.928 . S
H192 C189 0.931 . S
H193 C169 0.930 . S
H194 C166 0.930 . S
H195 C175 0.930 . S
H196 C187 0.929 . S
H197 C190 0.930 . S
C198 C199 1.351 . S
C198 N201 1.368 . S
C198 H203 0.931 . S
C199 C198 1.351 . S
C199 N200 1.373 . S
C199 H227 0.930 . S
N200 C199 1.373 . S
N200 C202 1.340 . S
N201 C198 1.368 . S
N201 C202 1.321 . S
N201 Co204 2.135 1_565 S
C202 N200 1.340 . S
C202 N201 1.321 . S
C202 H226 0.930 . S
H203 C198 0.931 . S
Co204 N201 2.135 1_545 S
Co204 N207 2.121 . S
Co204 O212 2.055 . S
Co204 O215 2.039 . S
Co204 N218 2.140 . S
C205 O206 1.227 . S
C205 O215 1.265 . S
O206 C205 1.227 . S
N207 Co204 2.121 . S
N207 C209 1.375 . S
N207 C210 1.313 . S
C208 C209 1.338 . S
C208 N211 1.377 . S
C208 H228 0.930 . S
C209 N207 1.375 . S
C209 C208 1.338 . S
C209 H213 0.931 . S
C210 N207 1.313 . S
C210 N211 1.344 . S
C210 H214 0.930 . S
N211 C208 1.377 . S
N211 C210 1.344 . S
O212 Co204 2.055 . S
O212 C216 1.253 . S
H213 C209 0.931 . S
H214 C210 0.930 . S
O215 Co204 2.039 . S
O215 C205 1.265 . S
C216 O212 1.253 . S
C216 O217 1.227 . S
O217 C216 1.227 . S
N218 Co204 2.140 . S
N218 C221 1.346 . S
N218 C222 1.345 . S
C219 C220 1.387 . S
C219 C223 1.391 . S
C220 C219 1.387 . S
C220 C221 1.369 . S
C220 H229 0.929 . S
C221 N218 1.346 . S
C221 C220 1.369 . S
C221 H224 0.928 . S
C222 N218 1.345 . S
C222 C223 1.371 . S
C222 H225 0.931 . S
C223 C219 1.391 . S
C223 C222 1.371 . S
C223 H230 0.930 . S
H224 C221 0.928 . S
H225 C222 0.931 . S
H226 C202 0.930 . S
H227 C199 0.930 . S
H228 C208 0.930 . S
H229 C220 0.929 . S
H230 C223 0.930 . S
C231 C232 1.351 . S
C231 N234 1.368 . S
C231 H236 0.931 . S
C232 C231 1.351 . S
C232 N233 1.373 . S
C232 H260 0.930 . S
N233 C232 1.373 . S
N233 C235 1.340 . S
N234 C231 1.368 . S
N234 C235 1.321 . S
N234 Co237 2.135 . S
C235 N233 1.340 . S
C235 N234 1.321 . S
C235 H259 0.930 . S
H236 C231 0.931 . S
Co237 N234 2.135 . S
Co237 N240 2.121 . S
Co237 O245 2.055 . S
Co237 O248 2.039 . S
Co237 N251 2.140 . S
C238 O239 1.227 . S
C238 O248 1.265 . S
O239 C238 1.227 . S
N240 Co237 2.121 . S
N240 C242 1.375 . S
N240 C243 1.313 . S
C241 C242 1.338 . S
C241 N244 1.377 . S
C241 H261 0.930 . S
C242 N240 1.375 . S
C242 C241 1.338 . S
C242 H246 0.931 . S
C243 N240 1.313 . S
C243 N244 1.344 . S
C243 H247 0.930 . S
N244 C241 1.377 . S
N244 C243 1.344 . S
O245 Co237 2.055 . S
O245 C249 1.253 . S
H246 C242 0.931 . S
H247 C243 0.930 . S
O248 Co237 2.039 . S
O248 C238 1.265 . S
C249 O245 1.253 . S
C249 O250 1.227 . S
O250 C249 1.227 . S
N251 Co237 2.140 . S
N251 C254 1.346 . S
N251 C255 1.345 . S
C252 C253 1.387 . S
C252 C256 1.391 . S
C253 C252 1.387 . S
C253 C254 1.369 . S
C253 H262 0.929 . S
C254 N251 1.346 . S
C254 C253 1.369 . S
C254 H257 0.928 . S
C255 N251 1.345 . S
C255 C256 1.371 . S
C255 H258 0.931 . S
C256 C252 1.391 . S
C256 C255 1.371 . S
C256 H263 0.930 . S
H257 C254 0.928 . S
H258 C255 0.931 . S
H259 C235 0.930 . S
H260 C232 0.930 . S
H261 C241 0.930 . S
H262 C253 0.929 . S
H263 C256 0.930 . S
C264 C265 1.351 . S
C264 N267 1.368 . S
C264 H269 0.931 . S
C265 C264 1.351 . S
C265 N266 1.373 . S
C265 H293 0.930 . S
N266 C265 1.373 . S
N266 C268 1.340 . S
N267 C264 1.368 . S
N267 C268 1.321 . S
N267 Co270 2.135 1_545 S
C268 N266 1.340 . S
C268 N267 1.321 . S
C268 H292 0.930 . S
H269 C264 0.931 . S
Co270 N267 2.135 1_565 S
Co270 N273 2.121 . S
Co270 O278 2.055 . S
Co270 O281 2.039 . S
Co270 N284 2.140 . S
C271 O272 1.227 . S
C271 O281 1.265 . S
O272 C271 1.227 . S
N273 Co270 2.121 . S
N273 C275 1.375 . S
N273 C276 1.313 . S
C274 C275 1.338 . S
C274 N277 1.377 . S
C274 H294 0.930 . S
C275 N273 1.375 . S
C275 C274 1.338 . S
C275 H279 0.931 . S
C276 N273 1.313 . S
C276 N277 1.344 . S
C276 H280 0.930 . S
N277 C274 1.377 . S
N277 C276 1.344 . S
O278 Co270 2.055 . S
O278 C282 1.253 . S
H279 C275 0.931 . S
H280 C276 0.930 . S
O281 Co270 2.039 . S
O281 C271 1.265 . S
C282 O278 1.253 . S
C282 O283 1.227 . S
O283 C282 1.227 . S
N284 Co270 2.140 . S
N284 C287 1.346 . S
N284 C288 1.345 . S
C285 C286 1.387 . S
C285 C289 1.391 . S
C286 C285 1.387 . S
C286 C287 1.369 . S
C286 H295 0.929 . S
C287 N284 1.346 . S
C287 C286 1.369 . S
C287 H290 0.928 . S
C288 N284 1.345 . S
C288 C289 1.371 . S
C288 H291 0.931 . S
C289 C285 1.391 . S
C289 C288 1.371 . S
C289 H296 0.930 . S
H290 C287 0.928 . S
H291 C288 0.931 . S
H292 C268 0.930 . S
H293 C265 0.930 . S
H294 C274 0.930 . S
H295 C286 0.929 . S
H296 C289 0.930 . S
C297 C298 1.351 . S
C297 N300 1.368 . S
C297 H302 0.931 . S
C298 C297 1.351 . S
C298 N299 1.373 . S
C298 H326 0.930 . S
N299 C298 1.373 . S
N299 C301 1.340 . S
N300 C297 1.368 . S
N300 C301 1.321 . S
N300 Co303 2.135 . S
C301 N299 1.340 . S
C301 N300 1.321 . S
C301 H325 0.930 . S
H302 C297 0.931 . S
Co303 N300 2.135 . S
Co303 N306 2.121 . S
Co303 O311 2.055 . S
Co303 O314 2.039 . S
Co303 N317 2.140 . S
C304 O305 1.227 . S
C304 O314 1.265 . S
O305 C304 1.227 . S
N306 Co303 2.121 . S
N306 C308 1.375 . S
N306 C309 1.313 . S
C307 C308 1.338 . S
C307 N310 1.377 . S
C307 H327 0.930 . S
C308 N306 1.375 . S
C308 C307 1.338 . S
C308 H312 0.931 . S
C309 N306 1.313 . S
C309 N310 1.344 . S
C309 H313 0.930 . S
N310 C307 1.377 . S
N310 C309 1.344 . S
O311 Co303 2.055 . S
O311 C315 1.253 . S
H312 C308 0.931 . S
H313 C309 0.930 . S
O314 Co303 2.039 . S
O314 C304 1.265 . S
C315 O311 1.253 . S
C315 O316 1.227 . S
O316 C315 1.227 . S
N317 Co303 2.140 . S
N317 C320 1.346 . S
N317 C321 1.345 . S
C318 C319 1.387 . S
C318 C322 1.391 . S
C319 C318 1.387 . S
C319 C320 1.369 . S
C319 H328 0.929 . S
C320 N317 1.346 . S
C320 C319 1.369 . S
C320 H323 0.928 . S
C321 N317 1.345 . S
C321 C322 1.371 . S
C321 H324 0.931 . S
C322 C318 1.391 . S
C322 C321 1.371 . S
C322 H329 0.930 . S
H323 C320 0.928 . S
H324 C321 0.931 . S
H325 C301 0.930 . S
H326 C298 0.930 . S
H327 C307 0.930 . S
H328 C319 0.929 . S
H329 C322 0.930 . S
C330 C331 1.351 . S
C330 N333 1.368 . S
C330 H335 0.931 . S
C331 C330 1.351 . S
C331 N332 1.373 . S
C331 H359 0.930 . S
N332 C331 1.373 . S
N332 C334 1.340 . S
N333 C330 1.368 . S
N333 C334 1.321 . S
N333 Co336 2.135 . S
C334 N332 1.340 . S
C334 N333 1.321 . S
C334 H358 0.930 . S
H335 C330 0.931 . S
Co336 N333 2.135 . S
Co336 N339 2.121 . S
Co336 O344 2.055 . S
Co336 O347 2.039 . S
Co336 N350 2.140 . S
C337 O338 1.227 . S
C337 O347 1.265 . S
O338 C337 1.227 . S
N339 Co336 2.121 . S
N339 C341 1.375 . S
N339 C342 1.313 . S
C340 C341 1.338 . S
C340 N343 1.377 . S
C340 H360 0.930 . S
C341 N339 1.375 . S
C341 C340 1.338 . S
C341 H345 0.931 . S
C342 N339 1.313 . S
C342 N343 1.344 . S
C342 H346 0.930 . S
N343 C340 1.377 . S
N343 C342 1.344 . S
O344 Co336 2.055 . S
O344 C348 1.253 . S
H345 C341 0.931 . S
H346 C342 0.930 . S
O347 Co336 2.039 . S
O347 C337 1.265 . S
C348 O344 1.253 . S
C348 O349 1.227 . S
O349 C348 1.227 . S
N350 Co336 2.140 . S
N350 C353 1.346 . S
N350 C354 1.345 . S
C351 C352 1.387 . S
C351 C355 1.391 . S
C352 C351 1.387 . S
C352 C353 1.369 . S
C352 H361 0.929 . S
C353 N350 1.346 . S
C353 C352 1.369 . S
C353 H356 0.928 . S
C354 N350 1.345 . S
C354 C355 1.371 . S
C354 H357 0.931 . S
C355 C351 1.391 . S
C355 C354 1.371 . S
C355 H362 0.930 . S
H356 C353 0.928 . S
H357 C354 0.931 . S
H358 C334 0.930 . S
H359 C331 0.930 . S
H360 C340 0.930 . S
H361 C352 0.929 . S
H362 C355 0.930 . S
C363 C364 1.351 . S
C363 N366 1.368 . S
C363 H368 0.931 . S
C364 C363 1.351 . S
C364 N365 1.373 . S
C364 H392 0.930 . S
N365 C364 1.373 . S
N365 C367 1.340 . S
N366 C363 1.368 . S
N366 C367 1.321 . S
N366 Co369 2.135 1_455 S
C367 N365 1.340 . S
C367 N366 1.321 . S
C367 H391 0.930 . S
H368 C363 0.931 . S
Co369 N366 2.135 1_655 S
Co369 N372 2.121 . S
Co369 O377 2.055 . S
Co369 O380 2.039 . S
Co369 N383 2.140 . S
C370 O371 1.227 . S
C370 O380 1.265 . S
O371 C370 1.227 . S
N372 Co369 2.121 . S
N372 C374 1.375 . S
N372 C375 1.313 . S
C373 C374 1.338 . S
C373 N376 1.377 . S
C373 H393 0.930 . S
C374 N372 1.375 . S
C374 C373 1.338 . S
C374 H378 0.931 . S
C375 N372 1.313 . S
C375 N376 1.344 . S
C375 H379 0.930 . S
N376 C373 1.377 . S
N376 C375 1.344 . S
O377 Co369 2.055 . S
O377 C381 1.253 . S
H378 C374 0.931 . S
H379 C375 0.930 . S
O380 Co369 2.039 . S
O380 C370 1.265 . S
C381 O377 1.253 . S
C381 O382 1.227 . S
O382 C381 1.227 . S
N383 Co369 2.140 . S
N383 C386 1.346 . S
N383 C387 1.345 . S
C384 C385 1.387 . S
C384 C388 1.391 . S
C385 C384 1.387 . S
C385 C386 1.369 . S
C385 H394 0.929 . S
C386 N383 1.346 . S
C386 C385 1.369 . S
C386 H389 0.928 . S
C387 N383 1.345 . S
C387 C388 1.371 . S
C387 H390 0.931 . S
C388 C384 1.391 . S
C388 C387 1.371 . S
C388 H395 0.930 . S
H389 C386 0.928 . S
H390 C387 0.931 . S
H391 C367 0.930 . S
H392 C364 0.930 . S
H393 C373 0.930 . S
H394 C385 0.929 . S
H395 C388 0.930 . S
C396 C397 1.351 . S
C396 N399 1.368 . S
C396 H401 0.931 . S
C397 C396 1.351 . S
C397 N398 1.373 . S
C397 H425 0.930 . S
N398 C397 1.373 . S
N398 C400 1.340 . S
N399 C396 1.368 . S
N399 C400 1.321 . S
N399 Co402 2.135 . S
C400 N398 1.340 . S
C400 N399 1.321 . S
C400 H424 0.930 . S
H401 C396 0.931 . S
Co402 N399 2.135 . S
Co402 N405 2.121 . S
Co402 O410 2.055 . S
Co402 O413 2.039 . S
Co402 N416 2.140 . S
C403 O404 1.227 . S
C403 O413 1.265 . S
O404 C403 1.227 . S
N405 Co402 2.121 . S
N405 C407 1.375 . S
N405 C408 1.313 . S
C406 C407 1.338 . S
C406 N409 1.377 . S
C406 H426 0.930 . S
C407 N405 1.375 . S
C407 C406 1.338 . S
C407 H411 0.931 . S
C408 N405 1.313 . S
C408 N409 1.344 . S
C408 H412 0.930 . S
N409 C406 1.377 . S
N409 C408 1.344 . S
O410 Co402 2.055 . S
O410 C414 1.253 . S
H411 C407 0.931 . S
H412 C408 0.930 . S
O413 Co402 2.039 . S
O413 C403 1.265 . S
C414 O410 1.253 . S
C414 O415 1.227 . S
O415 C414 1.227 . S
N416 Co402 2.140 . S
N416 C419 1.346 . S
N416 C420 1.345 . S
C417 C418 1.387 . S
C417 C421 1.391 . S
C418 C417 1.387 . S
C418 C419 1.369 . S
C418 H427 0.929 . S
C419 N416 1.346 . S
C419 C418 1.369 . S
C419 H422 0.928 . S
C420 N416 1.345 . S
C420 C421 1.371 . S
C420 H423 0.931 . S
C421 C417 1.391 . S
C421 C420 1.371 . S
C421 H428 0.930 . S
H422 C419 0.928 . S
H423 C420 0.931 . S
H424 C400 0.930 . S
H425 C397 0.930 . S
H426 C406 0.930 . S
H427 C418 0.929 . S
H428 C421 0.930 . S
C429 C430 1.351 . S
C429 N432 1.368 . S
C429 H434 0.931 . S
C430 C429 1.351 . S
C430 N431 1.373 . S
C430 H458 0.930 . S
N431 C430 1.373 . S
N431 C433 1.340 . S
N432 C429 1.368 . S
N432 C433 1.321 . S
N432 Co435 2.135 1_455 S
C433 N431 1.340 . S
C433 N432 1.321 . S
C433 H457 0.930 . S
H434 C429 0.931 . S
Co435 N432 2.135 1_655 S
Co435 N438 2.121 . S
Co435 O443 2.055 . S
Co435 O446 2.039 . S
Co435 N449 2.140 . S
C436 O437 1.227 . S
C436 O446 1.265 . S
O437 C436 1.227 . S
N438 Co435 2.121 . S
N438 C440 1.375 . S
N438 C441 1.313 . S
C439 C440 1.338 . S
C439 N442 1.377 . S
C439 H459 0.930 . S
C440 N438 1.375 . S
C440 C439 1.338 . S
C440 H444 0.931 . S
C441 N438 1.313 . S
C441 N442 1.344 . S
C441 H445 0.930 . S
N442 C439 1.377 . S
N442 C441 1.344 . S
O443 Co435 2.055 . S
O443 C447 1.253 . S
H444 C440 0.931 . S
H445 C441 0.930 . S
O446 Co435 2.039 . S
O446 C436 1.265 . S
C447 O443 1.253 . S
C447 O448 1.227 . S
O448 C447 1.227 . S
N449 Co435 2.140 . S
N449 C452 1.346 . S
N449 C453 1.345 . S
C450 C451 1.387 . S
C450 C454 1.391 . S
C451 C450 1.387 . S
C451 C452 1.369 . S
C451 H460 0.929 . S
C452 N449 1.346 . S
C452 C451 1.369 . S
C452 H455 0.928 . S
C453 N449 1.345 . S
C453 C454 1.371 . S
C453 H456 0.931 . S
C454 C450 1.391 . S
C454 C453 1.371 . S
C454 H461 0.930 . S
H455 C452 0.928 . S
H456 C453 0.931 . S
H457 C433 0.930 . S
H458 C430 0.930 . S
H459 C439 0.930 . S
H460 C451 0.929 . S
H461 C454 0.930 . S
C462 C463 1.351 . S
C462 N465 1.368 . S
C462 H467 0.931 . S
C463 C462 1.351 . S
C463 N464 1.373 . S
C463 H491 0.930 . S
N464 C463 1.373 . S
N464 C466 1.340 . S
N465 C462 1.368 . S
N465 C466 1.321 . S
N465 Co468 2.135 1_545 S
C466 N464 1.340 . S
C466 N465 1.321 . S
C466 H490 0.930 . S
H467 C462 0.931 . S
Co468 N465 2.135 1_565 S
Co468 N471 2.121 . S
Co468 O476 2.055 . S
Co468 O479 2.039 . S
Co468 N482 2.140 . S
C469 O470 1.227 . S
C469 O479 1.265 . S
O470 C469 1.227 . S
N471 Co468 2.121 . S
N471 C473 1.375 . S
N471 C474 1.313 . S
C472 C473 1.338 . S
C472 N475 1.377 . S
C472 H492 0.930 . S
C473 N471 1.375 . S
C473 C472 1.338 . S
C473 H477 0.931 . S
C474 N471 1.313 . S
C474 N475 1.344 . S
C474 H478 0.930 . S
N475 C472 1.377 . S
N475 C474 1.344 . S
O476 Co468 2.055 . S
O476 C480 1.253 . S
H477 C473 0.931 . S
H478 C474 0.930 . S
O479 Co468 2.039 . S
O479 C469 1.265 . S
C480 O476 1.253 . S
C480 O481 1.227 . S
O481 C480 1.227 . S
N482 Co468 2.140 . S
N482 C485 1.346 . S
N482 C486 1.345 . S
C483 C484 1.387 . S
C483 C487 1.391 . S
C484 C483 1.387 . S
C484 C485 1.369 . S
C484 H493 0.929 . S
C485 N482 1.346 . S
C485 C484 1.369 . S
C485 H488 0.928 . S
C486 N482 1.345 . S
C486 C487 1.371 . S
C486 H489 0.931 . S
C487 C483 1.391 . S
C487 C486 1.371 . S
C487 H494 0.930 . S
H488 C485 0.928 . S
H489 C486 0.931 . S
H490 C466 0.930 . S
H491 C463 0.930 . S
H492 C472 0.930 . S
H493 C484 0.929 . S
H494 C487 0.930 . S
C495 C496 1.351 . S
C495 N498 1.368 . S
C495 H500 0.931 . S
C496 C495 1.351 . S
C496 N497 1.373 . S
C496 H524 0.930 . S
N497 C496 1.373 . S
N497 C499 1.340 . S
N498 C495 1.368 . S
N498 C499 1.321 . S
N498 Co501 2.135 . S
C499 N497 1.340 . S
C499 N498 1.321 . S
C499 H523 0.930 . S
H500 C495 0.931 . S
Co501 N498 2.135 . S
Co501 N504 2.121 . S
Co501 O509 2.055 . S
Co501 O512 2.039 . S
Co501 N515 2.140 . S
C502 O503 1.227 . S
C502 O512 1.265 . S
O503 C502 1.227 . S
N504 Co501 2.121 . S
N504 C506 1.375 . S
N504 C507 1.313 . S
C505 C506 1.338 . S
C505 N508 1.377 . S
C505 H525 0.930 . S
C506 N504 1.375 . S
C506 C505 1.338 . S
C506 H510 0.931 . S
C507 N504 1.313 . S
C507 N508 1.344 . S
C507 H511 0.930 . S
N508 C505 1.377 . S
N508 C507 1.344 . S
O509 Co501 2.055 . S
O509 C513 1.253 . S
H510 C506 0.931 . S
H511 C507 0.930 . S
O512 Co501 2.039 . S
O512 C502 1.265 . S
C513 O509 1.253 . S
C513 O514 1.227 . S
O514 C513 1.227 . S
N515 Co501 2.140 . S
N515 C518 1.346 . S
N515 C519 1.345 . S
C516 C517 1.387 . S
C516 C520 1.391 . S
C517 C516 1.387 . S
C517 C518 1.369 . S
C517 H526 0.929 . S
C518 N515 1.346 . S
C518 C517 1.369 . S
C518 H521 0.928 . S
C519 N515 1.345 . S
C519 C520 1.371 . S
C519 H522 0.931 . S
C520 C516 1.391 . S
C520 C519 1.371 . S
C520 H527 0.930 . S
H521 C518 0.928 . S
H522 C519 0.931 . S
H523 C499 0.930 . S
H524 C496 0.930 . S
H525 C505 0.930 . S
H526 C517 0.929 . S
H527 C520 0.930 . S
C528 C529 1.363 . S
C528 C534 1.379 . S
C528 N536 1.356 . S
C529 C528 1.363 . S
C529 C535 1.363 . S
C530 C531 1.363 . S
C530 C535 1.379 . S
C530 N537 1.356 . S
C531 C530 1.363 . S
C531 C534 1.363 . S
N532 C534 1.356 . S
N532 H544 0.984 . S
N532 H545 0.985 . S
N533 C535 1.356 . S
N533 H538 0.984 . S
N533 H539 0.985 . S
C534 C528 1.379 . S
C534 C531 1.363 . S
C534 N532 1.356 . S
C535 C529 1.363 . S
C535 C530 1.379 . S
C535 N533 1.356 . S
N536 C528 1.356 . S
N536 H542 0.984 . S
N536 H543 0.984 . S
N537 C530 1.356 . S
N537 H540 0.984 . S
N537 H541 0.985 . S
H538 N533 0.984 . S
H539 N533 0.985 . S
H540 N537 0.984 . S
H541 N537 0.985 . S
H542 N536 0.984 . S
H543 N536 0.984 . S
H544 N532 0.984 . S
H545 N532 0.985 . S
C546 C547 1.363 . S
C546 C552 1.379 . S
C546 N554 1.356 . S
C547 C546 1.363 . S
C547 C553 1.363 . S
C548 C549 1.363 . S
C548 C553 1.379 . S
C548 N555 1.356 . S
C549 C548 1.363 . S
C549 C552 1.363 . S
N550 C552 1.356 . S
N550 H562 0.984 . S
N550 H563 0.985 . S
N551 C553 1.356 . S
N551 H556 0.984 . S
N551 H557 0.985 . S
C552 C546 1.379 . S
C552 C549 1.363 . S
C552 N550 1.356 . S
C553 C547 1.363 . S
C553 C548 1.379 . S
C553 N551 1.356 . S
N554 C546 1.356 . S
N554 H560 0.984 . S
N554 H561 0.984 . S
N555 C548 1.356 . S
N555 H558 0.984 . S
N555 H559 0.985 . S
H556 N551 0.984 . S
H557 N551 0.985 . S
H558 N555 0.984 . S
H559 N555 0.985 . S
H560 N554 0.984 . S
H561 N554 0.984 . S
H562 N550 0.984 . S
H563 N550 0.985 . S
C564 C565 1.363 . S
C564 C570 1.379 . S
C564 N572 1.356 . S
C565 C564 1.363 . S
C565 C571 1.363 . S
C566 C567 1.363 . S
C566 C571 1.379 . S
C566 N573 1.356 . S
C567 C566 1.363 . S
C567 C570 1.363 . S
N568 C570 1.356 . S
N568 H580 0.984 . S
N568 H581 0.985 . S
N569 C571 1.356 . S
N569 H574 0.984 . S
N569 H575 0.985 . S
C570 C564 1.379 . S
C570 C567 1.363 . S
C570 N568 1.356 . S
C571 C565 1.363 . S
C571 C566 1.379 . S
C571 N569 1.356 . S
N572 C564 1.356 . S
N572 H578 0.984 . S
N572 H579 0.984 . S
N573 C566 1.356 . S
N573 H576 0.984 . S
N573 H577 0.985 . S
H574 N569 0.984 . S
H575 N569 0.985 . S
H576 N573 0.984 . S
H577 N573 0.985 . S
H578 N572 0.984 . S
H579 N572 0.984 . S
H580 N568 0.984 . S
H581 N568 0.985 . S
C582 C583 1.363 . S
C582 C588 1.379 . S
C582 N590 1.356 . S
C583 C582 1.363 . S
C583 C589 1.363 . S
C584 C585 1.363 . S
C584 C589 1.379 . S
C584 N591 1.356 . S
C585 C584 1.363 . S
C585 C588 1.363 . S
N586 C588 1.356 . S
N586 H598 0.984 . S
N586 H599 0.985 . S
N587 C589 1.356 . S
N587 H592 0.984 . S
N587 H593 0.985 . S
C588 C582 1.379 . S
C588 C585 1.363 . S
C588 N586 1.356 . S
C589 C583 1.363 . S
C589 C584 1.379 . S
C589 N587 1.356 . S
N590 C582 1.356 . S
N590 H596 0.984 . S
N590 H597 0.984 . S
N591 C584 1.356 . S
N591 H594 0.984 . S
N591 H595 0.985 . S
H592 N587 0.984 . S
H593 N587 0.985 . S
H594 N591 0.984 . S
H595 N591 0.985 . S
H596 N590 0.984 . S
H597 N590 0.984 . S
H598 N586 0.984 . S
H599 N586 0.985 . S
C600 C601 1.363 . S
C600 C606 1.379 . S
C600 N608 1.356 . S
C601 C600 1.363 . S
C601 C607 1.363 . S
C602 C603 1.363 . S
C602 C607 1.379 . S
C602 N609 1.356 . S
C603 C602 1.363 . S
C603 C606 1.363 . S
N604 C606 1.356 . S
N604 H616 0.984 . S
N604 H617 0.985 . S
N605 C607 1.356 . S
N605 H610 0.984 . S
N605 H611 0.985 . S
C606 C600 1.379 . S
C606 C603 1.363 . S
C606 N604 1.356 . S
C607 C601 1.363 . S
C607 C602 1.379 . S
C607 N605 1.356 . S
N608 C600 1.356 . S
N608 H614 0.984 . S
N608 H615 0.984 . S
N609 C602 1.356 . S
N609 H612 0.984 . S
N609 H613 0.985 . S
H610 N605 0.984 . S
H611 N605 0.985 . S
H612 N609 0.984 . S
H613 N609 0.985 . S
H614 N608 0.984 . S
H615 N608 0.984 . S
H616 N604 0.984 . S
H617 N604 0.985 . S
C618 C619 1.363 . S
C618 C624 1.379 . S
C618 N626 1.356 . S
C619 C618 1.363 . S
C619 C625 1.363 . S
C620 C621 1.363 . S
C620 C625 1.379 . S
C620 N627 1.356 . S
C621 C620 1.363 . S
C621 C624 1.363 . S
N622 C624 1.356 . S
N622 H634 0.984 . S
N622 H635 0.985 . S
N623 C625 1.356 . S
N623 H628 0.984 . S
N623 H629 0.985 . S
C624 C618 1.379 . S
C624 C621 1.363 . S
C624 N622 1.356 . S
C625 C619 1.363 . S
C625 C620 1.379 . S
C625 N623 1.356 . S
N626 C618 1.356 . S
N626 H632 0.984 . S
N626 H633 0.984 . S
N627 C620 1.356 . S
N627 H630 0.984 . S
N627 H631 0.985 . S
H628 N623 0.984 . S
H629 N623 0.985 . S
H630 N627 0.984 . S
H631 N627 0.985 . S
H632 N626 0.984 . S
H633 N626 0.984 . S
H634 N622 0.984 . S
H635 N622 0.985 . S
C636 C637 1.363 . S
C636 C642 1.379 . S
C636 N644 1.356 . S
C637 C636 1.363 . S
C637 C643 1.363 . S
C638 C639 1.363 . S
C638 C643 1.379 . S
C638 N645 1.356 . S
C639 C638 1.363 . S
C639 C642 1.363 . S
N640 C642 1.356 . S
N640 H652 0.984 . S
N640 H653 0.985 . S
N641 C643 1.356 . S
N641 H646 0.984 . S
N641 H647 0.985 . S
C642 C636 1.379 . S
C642 C639 1.363 . S
C642 N640 1.356 . S
C643 C637 1.363 . S
C643 C638 1.379 . S
C643 N641 1.356 . S
N644 C636 1.356 . S
N644 H650 0.984 . S
N644 H651 0.984 . S
N645 C638 1.356 . S
N645 H648 0.984 . S
N645 H649 0.985 . S
H646 N641 0.984 . S
H647 N641 0.985 . S
H648 N645 0.984 . S
H649 N645 0.985 . S
H650 N644 0.984 . S
H651 N644 0.984 . S
H652 N640 0.984 . S
H653 N640 0.985 . S
C654 C655 1.363 . S
C654 C660 1.379 . S
C654 N662 1.356 . S
C655 C654 1.363 . S
C655 C661 1.363 . S
C656 C657 1.363 . S
C656 C661 1.379 . S
C656 N663 1.356 . S
C657 C656 1.363 . S
C657 C660 1.363 . S
N658 C660 1.356 . S
N658 H670 0.984 . S
N658 H671 0.985 . S
N659 C661 1.356 . S
N659 H664 0.984 . S
N659 H665 0.985 . S
C660 C654 1.379 . S
C660 C657 1.363 . S
C660 N658 1.356 . S
C661 C655 1.363 . S
C661 C656 1.379 . S
C661 N659 1.356 . S
N662 C654 1.356 . S
N662 H668 0.984 . S
N662 H669 0.984 . S
N663 C656 1.356 . S
N663 H666 0.984 . S
N663 H667 0.985 . S
H664 N659 0.984 . S
H665 N659 0.985 . S
H666 N663 0.984 . S
H667 N663 0.985 . S
H668 N662 0.984 . S
H669 N662 0.984 . S
H670 N658 0.984 . S
H671 N658 0.985 . S
C672 C673 1.363 . S
C672 C678 1.379 . S
C672 N680 1.356 . S
C673 C672 1.363 . S
C673 C679 1.363 . S
C674 C675 1.363 . S
C674 C679 1.379 . S
C674 N681 1.356 . S
C675 C674 1.363 . S
C675 C678 1.363 . S
N676 C678 1.356 . S
N676 H688 0.984 . S
N676 H689 0.985 . S
N677 C679 1.356 . S
N677 H682 0.984 . S
N677 H683 0.985 . S
C678 C672 1.379 . S
C678 C675 1.363 . S
C678 N676 1.356 . S
C679 C673 1.363 . S
C679 C674 1.379 . S
C679 N677 1.356 . S
N680 C672 1.356 . S
N680 H686 0.984 . S
N680 H687 0.984 . S
N681 C674 1.356 . S
N681 H684 0.984 . S
N681 H685 0.985 . S
H682 N677 0.984 . S
H683 N677 0.985 . S
H684 N681 0.984 . S
H685 N681 0.985 . S
H686 N680 0.984 . S
H687 N680 0.984 . S
H688 N676 0.984 . S
H689 N676 0.985 . S
C690 C691 1.363 . S
C690 C696 1.379 . S
C690 N698 1.356 . S
C691 C690 1.363 . S
C691 C697 1.363 . S
C692 C693 1.363 . S
C692 C697 1.379 . S
C692 N699 1.356 . S
C693 C692 1.363 . S
C693 C696 1.363 . S
N694 C696 1.356 . S
N694 H706 0.984 . S
N694 H707 0.985 . S
N695 C697 1.356 . S
N695 H700 0.984 . S
N695 H701 0.985 . S
C696 C690 1.379 . S
C696 C693 1.363 . S
C696 N694 1.356 . S
C697 C691 1.363 . S
C697 C692 1.379 . S
C697 N695 1.356 . S
N698 C690 1.356 . S
N698 H704 0.984 . S
N698 H705 0.984 . S
N699 C692 1.356 . S
N699 H702 0.984 . S
N699 H703 0.985 . S
H700 N695 0.984 . S
H701 N695 0.985 . S
H702 N699 0.984 . S
H703 N699 0.985 . S
H704 N698 0.984 . S
H705 N698 0.984 . S
H706 N694 0.984 . S
H707 N694 0.985 . S
C708 C709 1.363 . S
C708 C714 1.379 . S
C708 N716 1.356 . S
C709 C708 1.363 . S
C709 C715 1.363 . S
C710 C711 1.363 . S
C710 C715 1.379 . S
C710 N717 1.356 . S
C711 C710 1.363 . S
C711 C714 1.363 . S
N712 C714 1.356 . S
N712 H724 0.984 . S
N712 H725 0.985 . S
N713 C715 1.356 . S
N713 H718 0.984 . S
N713 H719 0.985 . S
C714 C708 1.379 . S
C714 C711 1.363 . S
C714 N712 1.356 . S
C715 C709 1.363 . S
C715 C710 1.379 . S
C715 N713 1.356 . S
N716 C708 1.356 . S
N716 H722 0.984 . S
N716 H723 0.984 1_655 S
N717 C710 1.356 . S
N717 H720 0.984 . S
N717 H721 0.985 . S
H718 N713 0.984 . S
H719 N713 0.985 . S
H720 N717 0.984 . S
H721 N717 0.985 . S
H722 N716 0.984 . S
H723 N716 0.984 1_455 S
H724 N712 0.984 . S
H725 N712 0.985 . S
C726 C727 1.363 . S
C726 C732 1.379 . S
C726 N734 1.356 . S
C727 C726 1.363 . S
C727 C733 1.363 . S
C728 C729 1.363 . S
C728 C733 1.379 . S
C728 N735 1.356 . S
C729 C728 1.363 . S
C729 C732 1.363 . S
N730 C732 1.356 . S
N730 H742 0.984 . S
N730 H743 0.985 . S
N731 C733 1.356 . S
N731 H736 0.984 1_565 S
N731 H737 0.985 . S
C732 C726 1.379 . S
C732 C729 1.363 . S
C732 N730 1.356 . S
C733 C727 1.363 . S
C733 C728 1.379 . S
C733 N731 1.356 . S
N734 C726 1.356 . S
N734 H740 0.984 . S
N734 H741 0.984 . S
N735 C728 1.356 . S
N735 H738 0.984 . S
N735 H739 0.985 . S
H736 N731 0.984 1_545 S
H737 N731 0.985 . S
H738 N735 0.984 . S
H739 N735 0.985 . S
H740 N734 0.984 . S
H741 N734 0.984 . S
H742 N730 0.984 . S
H743 N730 0.985 . S
C744 C745 1.363 . S
C744 C750 1.379 . S
C744 N752 1.356 . S
C745 C744 1.363 . S
C745 C751 1.363 . S
C746 C747 1.363 . S
C746 C751 1.379 . S
C746 N753 1.356 . S
C747 C746 1.363 . S
C747 C750 1.363 . S
N748 C750 1.356 . S
N748 H760 0.984 . S
N748 H761 0.985 . S
N749 C751 1.356 . S
N749 H754 0.984 . S
N749 H755 0.985 . S
C750 C744 1.379 . S
C750 C747 1.363 . S
C750 N748 1.356 . S
C751 C745 1.363 . S
C751 C746 1.379 . S
C751 N749 1.356 . S
N752 C744 1.356 . S
N752 H758 0.984 . S
N752 H759 0.984 . S
N753 C746 1.356 . S
N753 H756 0.984 . S
N753 H757 0.985 . S
H754 N749 0.984 . S
H755 N749 0.985 . S
H756 N753 0.984 . S
H757 N753 0.985 . S
H758 N752 0.984 . S
H759 N752 0.984 . S
H760 N748 0.984 . S
H761 N748 0.985 . S
C762 C763 1.363 . S
C762 C768 1.379 . S
C762 N770 1.356 . S
C763 C762 1.363 . S
C763 C769 1.363 . S
C764 C765 1.363 . S
C764 C769 1.379 . S
C764 N771 1.356 . S
C765 C764 1.363 . S
C765 C768 1.363 . S
N766 C768 1.356 . S
N766 H778 0.984 . S
N766 H779 0.985 . S
N767 C769 1.356 . S
N767 H772 0.984 . S
N767 H773 0.985 . S
C768 C762 1.379 . S
C768 C765 1.363 . S
C768 N766 1.356 . S
C769 C763 1.363 . S
C769 C764 1.379 . S
C769 N767 1.356 . S
N770 C762 1.356 . S
N770 H776 0.984 . S
N770 H777 0.984 . S
N771 C764 1.356 . S
N771 H774 0.984 . S
N771 H775 0.985 . S
H772 N767 0.984 . S
H773 N767 0.985 . S
H774 N771 0.984 . S
H775 N771 0.985 . S
H776 N770 0.984 . S
H777 N770 0.984 . S
H778 N766 0.984 . S
H779 N766 0.985 . S
C780 C781 1.363 . S
C780 C786 1.379 . S
C780 N788 1.356 . S
C781 C780 1.363 . S
C781 C787 1.363 . S
C782 C783 1.363 . S
C782 C787 1.379 . S
C782 N789 1.356 . S
C783 C782 1.363 . S
C783 C786 1.363 . S
N784 C786 1.356 . S
N784 H796 0.984 . S
N784 H797 0.985 . S
N785 C787 1.356 . S
N785 H790 0.984 . S
N785 H791 0.985 . S
C786 C780 1.379 . S
C786 C783 1.363 . S
C786 N784 1.356 . S
C787 C781 1.363 . S
C787 C782 1.379 . S
C787 N785 1.356 . S
N788 C780 1.356 . S
N788 H794 0.984 . S
N788 H795 0.984 . S
N789 C782 1.356 . S
N789 H792 0.984 . S
N789 H793 0.985 . S
H790 N785 0.984 . S
H791 N785 0.985 . S
H792 N789 0.984 . S
H793 N789 0.985 . S
H794 N788 0.984 . S
H795 N788 0.984 . S
H796 N784 0.984 . S
H797 N784 0.985 . S
C798 C799 1.363 . S
C798 C804 1.379 . S
C798 N806 1.356 . S
C799 C798 1.363 . S
C799 C805 1.363 . S
C800 C801 1.363 . S
C800 C805 1.379 . S
C800 N807 1.356 . S
C801 C800 1.363 . S
C801 C804 1.363 . S
N802 C804 1.356 . S
N802 H814 0.984 . S
N802 H815 0.985 . S
N803 C805 1.356 . S
N803 H808 0.984 . S
N803 H809 0.985 . S
C804 C798 1.379 . S
C804 C801 1.363 . S
C804 N802 1.356 . S
C805 C799 1.363 . S
C805 C800 1.379 . S
C805 N803 1.356 . S
N806 C798 1.356 . S
N806 H812 0.984 1_565 S
N806 H813 0.984 1_565 S
N807 C800 1.356 . S
N807 H810 0.984 . S
N807 H811 0.985 . S
H808 N803 0.984 . S
H809 N803 0.985 . S
H810 N807 0.984 . S
H811 N807 0.985 . S
H812 N806 0.984 1_545 S
H813 N806 0.984 1_545 S
H814 N802 0.984 . S
H815 N802 0.985 . S
C816 C817 1.363 . S
C816 C822 1.379 . S
C816 N824 1.356 . S
C817 C816 1.363 . S
C817 C823 1.363 . S
C818 C819 1.363 . S
C818 C823 1.379 . S
C818 N825 1.356 . S
C819 C818 1.363 . S
C819 C822 1.363 . S
N820 C822 1.356 . S
N820 H832 0.984 . S
N820 H833 0.985 . S
N821 C823 1.356 . S
N821 H826 0.984 . S
N821 H827 0.985 . S
C822 C816 1.379 . S
C822 C819 1.363 . S
C822 N820 1.356 . S
C823 C817 1.363 . S
C823 C818 1.379 . S
C823 N821 1.356 . S
N824 C816 1.356 . S
N824 H830 0.984 . S
N824 H831 0.984 . S
N825 C818 1.356 . S
N825 H828 0.984 . S
N825 H829 0.985 . S
H826 N821 0.984 . S
H827 N821 0.985 . S
H828 N825 0.984 . S
H829 N825 0.985 . S
H830 N824 0.984 . S
H831 N824 0.984 . S
H832 N820 0.984 . S
H833 N820 0.985 . S
C834 C835 1.363 . S
C834 C840 1.379 . S
C834 N842 1.356 . S
C835 C834 1.363 . S
C835 C841 1.363 . S
C836 C837 1.363 . S
C836 C841 1.379 . S
C836 N843 1.356 . S
C837 C836 1.363 . S
C837 C840 1.363 . S
N838 C840 1.356 . S
N838 H850 0.984 . S
N838 H851 0.985 . S
N839 C841 1.356 . S
N839 H844 0.984 . S
N839 H845 0.985 . S
C840 C834 1.379 . S
C840 C837 1.363 . S
C840 N838 1.356 . S
C841 C835 1.363 . S
C841 C836 1.379 . S
C841 N839 1.356 . S
N842 C834 1.356 . S
N842 H848 0.984 . S
N842 H849 0.984 . S
N843 C836 1.356 . S
N843 H846 0.984 . S
N843 H847 0.985 . S
H844 N839 0.984 . S
H845 N839 0.985 . S
H846 N843 0.984 . S
H847 N843 0.985 . S
H848 N842 0.984 . S
H849 N842 0.984 . S
H850 N838 0.984 . S
H851 N838 0.985 . S
C852 C853 1.363 . S
C852 C858 1.379 . S
C852 N860 1.356 . S
C853 C852 1.363 . S
C853 C859 1.363 . S
C854 C855 1.363 . S
C854 C859 1.379 . S
C854 N861 1.356 . S
C855 C854 1.363 . S
C855 C858 1.363 . S
N856 C858 1.356 . S
N856 H868 0.984 . S
N856 H869 0.985 . S
N857 C859 1.356 . S
N857 H862 0.984 . S
N857 H863 0.985 . S
C858 C852 1.379 . S
C858 C855 1.363 . S
C858 N856 1.356 . S
C859 C853 1.363 . S
C859 C854 1.379 . S
C859 N857 1.356 . S
N860 C852 1.356 . S
N860 H866 0.984 . S
N860 H867 0.984 1_455 S
N861 C854 1.356 . S
N861 H864 0.984 . S
N861 H865 0.985 . S
H862 N857 0.984 . S
H863 N857 0.985 . S
H864 N861 0.984 . S
H865 N861 0.985 . S
H866 N860 0.984 . S
H867 N860 0.984 1_655 S
H868 N856 0.984 . S
H869 N856 0.985 . S
C870 C871 1.363 . S
C870 C876 1.379 . S
C870 N878 1.356 . S
C871 C870 1.363 . S
C871 C877 1.363 . S
C872 C873 1.363 . S
C872 C877 1.379 . S
C872 N879 1.356 . S
C873 C872 1.363 . S
C873 C876 1.363 . S
N874 C876 1.356 . S
N874 H886 0.984 1_545 S
N874 H887 0.985 1_545 S
N875 C877 1.356 . S
N875 H880 0.984 . S
N875 H881 0.985 . S
C876 C870 1.379 . S
C876 C873 1.363 . S
C876 N874 1.356 . S
C877 C871 1.363 . S
C877 C872 1.379 . S
C877 N875 1.356 . S
N878 C870 1.356 . S
N878 H884 0.984 . S
N878 H885 0.984 . S
N879 C872 1.356 . S
N879 H882 0.984 . S
N879 H883 0.985 . S
H880 N875 0.984 . S
H881 N875 0.985 . S
H882 N879 0.984 . S
H883 N879 0.985 . S
H884 N878 0.984 . S
H885 N878 0.984 . S
H886 N874 0.984 1_565 S
H887 N874 0.985 1_565 S
C888 C889 1.363 . S
C888 C894 1.379 . S
C888 N896 1.356 . S
C889 C888 1.363 . S
C889 C895 1.363 . S
C890 C891 1.363 . S
C890 C895 1.379 . S
C890 N897 1.356 . S
C891 C890 1.363 . S
C891 C894 1.363 . S
N892 C894 1.356 . S
N892 H904 0.984 . S
N892 H905 0.985 . S
N893 C895 1.356 . S
N893 H898 0.984 . S
N893 H899 0.985 . S
C894 C888 1.379 . S
C894 C891 1.363 . S
C894 N892 1.356 . S
C895 C889 1.363 . S
C895 C890 1.379 . S
C895 N893 1.356 . S
N896 C888 1.356 . S
N896 H902 0.984 . S
N896 H903 0.984 . S
N897 C890 1.356 . S
N897 H900 0.984 . S
N897 H901 0.985 . S
H898 N893 0.984 . S
H899 N893 0.985 . S
H900 N897 0.984 . S
H901 N897 0.985 . S
H902 N896 0.984 . S
H903 N896 0.984 . S
H904 N892 0.984 . S
H905 N892 0.985 . S
C906 C907 1.363 . S
C906 C912 1.379 . S
C906 N914 1.356 . S
C907 C906 1.363 . S
C907 C913 1.363 . S
C908 C909 1.363 . S
C908 C913 1.379 . S
C908 N915 1.356 . S
C909 C908 1.363 . S
C909 C912 1.363 . S
N910 C912 1.356 . S
N910 H922 0.984 . S
N910 H923 0.985 . S
N911 C913 1.356 . S
N911 H916 0.984 . S
N911 H917 0.985 . S
C912 C906 1.379 . S
C912 C909 1.363 . S
C912 N910 1.356 . S
C913 C907 1.363 . S
C913 C908 1.379 . S
C913 N911 1.356 . S
N914 C906 1.356 . S
N914 H920 0.984 . S
N914 H921 0.984 . S
N915 C908 1.356 . S
N915 H918 0.984 . S
N915 H919 0.985 . S
H916 N911 0.984 . S
H917 N911 0.985 . S
H918 N915 0.984 . S
H919 N915 0.985 . S
H920 N914 0.984 . S
H921 N914 0.984 . S
H922 N910 0.984 . S
H923 N910 0.985 . S
C924 C925 1.363 . S
C924 C930 1.379 . S
C924 N932 1.356 . S
C925 C924 1.363 . S
C925 C931 1.363 . S
C926 C927 1.363 . S
C926 C931 1.379 . S
C926 N933 1.356 . S
C927 C926 1.363 . S
C927 C930 1.363 . S
N928 C930 1.356 . S
N928 H940 0.984 . S
N928 H941 0.985 . S
N929 C931 1.356 . S
N929 H934 0.984 . S
N929 H935 0.985 . S
C930 C924 1.379 . S
C930 C927 1.363 . S
C930 N928 1.356 . S
C931 C925 1.363 . S
C931 C926 1.379 . S
C931 N929 1.356 . S
N932 C924 1.356 . S
N932 H938 0.993 . S
N932 H939 0.984 1_455 S
N933 C926 1.356 . S
N933 H936 0.984 . S
N933 H937 0.985 . S
H934 N929 0.984 . S
H935 N929 0.985 . S
H936 N933 0.984 . S
H937 N933 0.985 . S
H938 N932 0.993 . S
H939 N932 0.984 1_655 S
H940 N928 0.984 . S
H941 N928 0.985 . S
C942 C943 1.363 . S
C942 C948 1.379 . S
C942 N950 1.356 . S
C943 C942 1.363 . S
C943 C949 1.363 . S
C944 C945 1.363 . S
C944 C949 1.379 . S
C944 N951 1.356 . S
C945 C944 1.363 . S
C945 C948 1.363 . S
N946 C948 1.356 . S
N946 H958 0.984 . S
N946 H959 0.985 . S
N947 C949 1.356 . S
N947 H952 0.984 . S
N947 H953 0.985 . S
C948 C942 1.379 . S
C948 C945 1.363 . S
C948 N946 1.356 . S
C949 C943 1.363 . S
C949 C944 1.379 . S
C949 N947 1.356 . S
N950 C942 1.356 . S
N950 H956 0.984 . S
N950 H957 0.984 . S
N951 C944 1.356 . S
N951 H954 0.984 . S
N951 H955 0.985 . S
H952 N947 0.984 . S
H953 N947 0.985 . S
H954 N951 0.984 . S
H955 N951 0.985 . S
H956 N950 0.984 . S
H957 N950 0.984 . S
H958 N946 0.984 . S
H959 N946 0.985 . S
C960 C961 1.363 . S
C960 C966 1.379 . S
C960 N968 1.356 . S
C961 C960 1.363 . S
C961 C967 1.363 . S
C962 C963 1.363 . S
C962 C967 1.379 . S
C962 N969 1.356 . S
C963 C962 1.363 . S
C963 C966 1.363 . S
N964 C966 1.356 . S
N964 H976 0.984 . S
N964 H977 0.985 . S
N965 C967 1.356 . S
N965 H970 0.984 . S
N965 H971 0.985 . S
C966 C960 1.379 . S
C966 C963 1.363 . S
C966 N964 1.356 . S
C967 C961 1.363 . S
C967 C962 1.379 . S
C967 N965 1.356 . S
N968 C960 1.356 . S
N968 H974 0.984 . S
N968 H975 0.984 . S
N969 C962 1.356 . S
N969 H972 0.984 . S
N969 H973 0.985 . S
H970 N965 0.984 . S
H971 N965 0.985 . S
H972 N969 0.984 . S
H973 N969 0.985 . S
H974 N968 0.984 . S
H975 N968 0.984 . S
H976 N964 0.984 . S
H977 N964 0.985 . S
C978 C979 1.363 . S
C978 C984 1.379 . S
C978 N986 1.356 . S
C979 C978 1.363 . S
C979 C985 1.363 . S
C980 C981 1.363 . S
C980 C985 1.379 . S
C980 N987 1.356 . S
C981 C980 1.363 . S
C981 C984 1.363 . S
N982 C984 1.356 . S
N982 H994 0.984 . S
N982 H995 0.985 . S
N983 C985 1.356 . S
N983 H988 0.984 . S
N983 H989 0.985 . S
C984 C978 1.379 . S
C984 C981 1.363 . S
C984 N982 1.356 . S
C985 C979 1.363 . S
C985 C980 1.379 . S
C985 N983 1.356 . S
N986 C978 1.356 . S
N986 H992 0.984 . S
N986 H993 0.984 . S
N987 C980 1.356 . S
N987 H990 0.984 . S
N987 H991 0.985 . S
H988 N983 0.984 . S
H989 N983 0.985 . S
H990 N987 0.984 . S
H991 N987 0.985 . S
H992 N986 0.984 . S
H993 N986 0.984 . S
H994 N982 0.984 . S
H995 N982 0.985 . S
C996 C997 1.363 . S
C996 C1002 1.379 . S
C996 N1004 1.356 . S
C997 C996 1.363 . S
C997 C1003 1.363 . S
C998 C999 1.363 . S
C998 C1003 1.379 . S
C998 N1005 1.356 . S
C999 C998 1.363 . S
C999 C1002 1.363 . S
N1000 C1002 1.356 . S
N1000 H1012 0.984 . S
N1000 H1013 0.985 . S
N1001 C1003 1.356 . S
N1001 H1006 0.984 . S
N1001 H1007 0.985 . S
C1002 C996 1.379 . S
C1002 C999 1.363 . S
C1002 N1000 1.356 . S
C1003 C997 1.363 . S
C1003 C998 1.379 . S
C1003 N1001 1.356 . S
N1004 C996 1.356 . S
N1004 H1010 0.984 . S
N1004 H1011 0.984 . S
N1005 C998 1.356 . S
N1005 H1008 0.984 . S
N1005 H1009 0.985 . S
H1006 N1001 0.984 . S
H1007 N1001 0.985 . S
H1008 N1005 0.984 . S
H1009 N1005 0.985 . S
H1010 N1004 0.984 . S
H1011 N1004 0.984 . S
H1012 N1000 0.984 . S
H1013 N1000 0.985 . S
C1014 C1015 1.363 . S
C1014 C1020 1.379 . S
C1014 N1022 1.356 . S
C1015 C1014 1.363 . S
C1015 C1021 1.363 . S
C1016 C1017 1.363 . S
C1016 C1021 1.379 . S
C1016 N1023 1.356 . S
C1017 C1016 1.363 . S
C1017 C1020 1.363 . S
N1018 C1020 1.356 . S
N1018 H1030 0.984 . S
N1018 H1031 0.985 . S
N1019 C1021 1.356 . S
N1019 H1024 0.984 . S
N1019 H1025 0.985 . S
C1020 C1014 1.379 . S
C1020 C1017 1.363 . S
C1020 N1018 1.356 . S
C1021 C1015 1.363 . S
C1021 C1016 1.379 . S
C1021 N1019 1.356 . S
N1022 C1014 1.356 . S
N1022 H1028 0.984 . S
N1022 H1029 0.984 . S
N1023 C1016 1.356 . S
N1023 H1026 0.984 . S
N1023 H1027 0.985 . S
H1024 N1019 0.984 . S
H1025 N1019 0.985 . S
H1026 N1023 0.984 . S
H1027 N1023 0.985 . S
H1028 N1022 0.984 . S
H1029 N1022 0.984 . S
H1030 N1018 0.984 . S
H1031 N1018 0.985 . S
C1032 C1033 1.363 . S
C1032 C1038 1.379 . S
C1032 N1040 1.356 . S
C1033 C1032 1.363 . S
C1033 C1039 1.363 . S
C1034 C1035 1.363 . S
C1034 C1039 1.379 . S
C1034 N1041 1.356 . S
C1035 C1034 1.363 . S
C1035 C1038 1.363 . S
N1036 C1038 1.356 . S
N1036 H1048 0.984 . S
N1036 H1049 0.985 . S
N1037 C1039 1.356 . S
N1037 H1042 0.984 . S
N1037 H1043 0.985 . S
C1038 C1032 1.379 . S
C1038 C1035 1.363 . S
C1038 N1036 1.356 . S
C1039 C1033 1.363 . S
C1039 C1034 1.379 . S
C1039 N1037 1.356 . S
N1040 C1032 1.356 . S
N1040 H1046 0.984 . S
N1040 H1047 0.984 . S
N1041 C1034 1.356 . S
N1041 H1044 0.984 . S
N1041 H1045 0.985 . S
H1042 N1037 0.984 . S
H1043 N1037 0.985 . S
H1044 N1041 0.984 . S
H1045 N1041 0.985 . S
H1046 N1040 0.984 . S
H1047 N1040 0.984 . S
H1048 N1036 0.984 . S
H1049 N1036 0.985 . S
C1050 C1051 1.363 . S
C1050 C1056 1.379 . S
C1050 N1058 1.356 . S
C1051 C1050 1.363 . S
C1051 C1057 1.363 . S
C1052 C1053 1.363 . S
C1052 C1057 1.379 . S
C1052 N1059 1.356 . S
C1053 C1052 1.363 . S
C1053 C1056 1.363 . S
N1054 C1056 1.356 . S
N1054 H1066 0.984 . S
N1054 H1067 0.985 . S
N1055 C1057 1.356 . S
N1055 H1060 0.984 . S
N1055 H1061 0.985 . S
C1056 C1050 1.379 . S
C1056 C1053 1.363 . S
C1056 N1054 1.356 . S
C1057 C1051 1.363 . S
C1057 C1052 1.379 . S
C1057 N1055 1.356 . S
N1058 C1050 1.356 . S
N1058 H1064 0.984 . S
N1058 H1065 0.984 . S
N1059 C1052 1.356 . S
N1059 H1062 0.984 . S
N1059 H1063 0.985 . S
H1060 N1055 0.984 . S
H1061 N1055 0.985 . S
H1062 N1059 0.984 . S
H1063 N1059 0.985 . S
H1064 N1058 0.984 . S
H1065 N1058 0.984 . S
H1066 N1054 0.984 . S
H1067 N1054 0.985 . S
C1068 C1069 1.363 . S
C1068 C1074 1.379 . S
C1068 N1076 1.356 . S
C1069 C1068 1.363 . S
C1069 C1075 1.363 . S
C1070 C1071 1.363 . S
C1070 C1075 1.379 . S
C1070 N1077 1.356 . S
C1071 C1070 1.363 . S
C1071 C1074 1.363 . S
N1072 C1074 1.356 . S
N1072 H1084 0.984 . S
N1072 H1085 0.985 . S
N1073 C1075 1.356 . S
N1073 H1078 0.984 . S
N1073 H1079 0.985 . S
C1074 C1068 1.379 . S
C1074 C1071 1.363 . S
C1074 N1072 1.356 . S
C1075 C1069 1.363 . S
C1075 C1070 1.379 . S
C1075 N1073 1.356 . S
N1076 C1068 1.356 . S
N1076 H1082 0.984 . S
N1076 H1083 0.984 . S
N1077 C1070 1.356 . S
N1077 H1080 0.984 . S
N1077 H1081 0.985 . S
H1078 N1073 0.984 . S
H1079 N1073 0.985 . S
H1080 N1077 0.984 . S
H1081 N1077 0.985 . S
H1082 N1076 0.984 . S
H1083 N1076 0.984 . S
H1084 N1072 0.984 . S
H1085 N1072 0.985 . S
C1086 C1087 1.363 . S
C1086 C1092 1.379 . S
C1086 N1094 1.356 . S
C1087 C1086 1.363 . S
C1087 C1093 1.363 . S
C1088 C1089 1.363 . S
C1088 C1093 1.379 . S
C1088 N1095 1.356 . S
C1089 C1088 1.363 . S
C1089 C1092 1.363 . S
N1090 C1092 1.356 . S
N1090 H1102 0.984 . S
N1090 H1103 0.985 . S
N1091 C1093 1.356 . S
N1091 H1096 0.984 . S
N1091 H1097 0.985 . S
C1092 C1086 1.379 . S
C1092 C1089 1.363 . S
C1092 N1090 1.356 . S
C1093 C1087 1.363 . S
C1093 C1088 1.379 . S
C1093 N1091 1.356 . S
N1094 C1086 1.356 . S
N1094 H1100 0.984 . S
N1094 H1101 0.984 . S
N1095 C1088 1.356 . S
N1095 H1098 0.984 . S
N1095 H1099 0.985 . S
H1096 N1091 0.984 . S
H1097 N1091 0.985 . S
H1098 N1095 0.984 . S
H1099 N1095 0.985 . S
H1100 N1094 0.984 . S
H1101 N1094 0.984 . S
H1102 N1090 0.984 . S
H1103 N1090 0.985 . S
C1104 C1105 1.363 . S
C1104 C1110 1.379 1_556 S
C1104 N1112 1.356 1_545 S
C1105 C1104 1.363 . S
C1105 C1111 1.363 . S
C1106 C1107 1.363 . S
C1106 C1111 1.379 1_554 S
C1106 N1113 1.356 . S
C1107 C1106 1.363 . S
C1107 C1110 1.363 . S
N1108 C1110 1.356 1_565 S
N1108 H1120 0.984 . S
N1108 H1121 0.985 . S
N1109 C1111 1.356 . S
N1109 H1114 0.984 . S
N1109 H1115 0.985 . S
C1110 C1104 1.379 1_554 S
C1110 C1107 1.363 . S
C1110 N1108 1.356 1_545 S
C1111 C1105 1.363 . S
C1111 C1106 1.379 1_556 S
C1111 N1109 1.356 . S
N1112 C1104 1.356 1_565 S
N1112 H1118 0.984 . S
N1112 H1119 0.984 . S
N1113 C1106 1.356 . S
N1113 H1116 0.984 . S
N1113 H1117 0.985 . S
H1114 N1109 0.984 . S
H1115 N1109 0.985 . S
H1116 N1113 0.984 . S
H1117 N1113 0.985 . S
H1118 N1112 0.984 . S
H1119 N1112 0.984 . S
H1120 N1108 0.984 . S
H1121 N1108 0.985 . S
C1122 C1123 1.363 . S
C1122 C1128 1.379 . S
C1122 N1130 1.356 . S
C1123 C1122 1.363 . S
C1123 C1129 1.363 . S
C1124 C1125 1.363 . S
C1124 C1129 1.379 . S
C1124 N1131 1.356 . S
C1125 C1124 1.363 . S
C1125 C1128 1.363 . S
N1126 C1128 1.356 . S
N1126 H1138 0.984 . S
N1126 H1139 0.985 . S
N1127 C1129 1.356 . S
N1127 H1132 0.984 . S
N1127 H1133 0.985 . S
C1128 C1122 1.379 . S
C1128 C1125 1.363 . S
C1128 N1126 1.356 . S
C1129 C1123 1.363 . S
C1129 C1124 1.379 . S
C1129 N1127 1.356 . S
N1130 C1122 1.356 . S
N1130 H1136 0.984 . S
N1130 H1137 0.984 . S
N1131 C1124 1.356 . S
N1131 H1134 0.984 . S
N1131 H1135 0.985 . S
H1132 N1127 0.984 . S
H1133 N1127 0.985 . S
H1134 N1131 0.984 . S
H1135 N1131 0.985 . S
H1136 N1130 0.984 . S
H1137 N1130 0.984 . S
H1138 N1126 0.984 . S
H1139 N1126 0.985 . S
C1140 C1141 1.363 . S
C1140 C1146 1.379 1_554 S
C1140 N1148 1.356 . S
C1141 C1140 1.363 . S
C1141 C1147 1.363 . S
C1142 C1143 1.363 . S
C1142 C1147 1.379 1_556 S
C1142 N1149 1.356 . S
C1143 C1142 1.363 . S
C1143 C1146 1.363 . S
N1144 C1146 1.356 . S
N1144 H1156 0.984 . S
N1144 H1157 0.985 . S
N1145 C1147 1.356 . S
N1145 H1150 0.984 . S
N1145 H1151 0.985 . S
C1146 C1140 1.379 1_556 S
C1146 C1143 1.363 . S
C1146 N1144 1.356 . S
C1147 C1141 1.363 . S
C1147 C1142 1.379 1_554 S
C1147 N1145 1.356 . S
N1148 C1140 1.356 . S
N1148 H1154 0.984 . S
N1148 H1155 0.984 . S
N1149 C1142 1.356 . S
N1149 H1152 0.984 . S
N1149 H1153 0.985 . S
H1150 N1145 0.984 . S
H1151 N1145 0.985 . S
H1152 N1149 0.984 . S
H1153 N1149 0.985 . S
H1154 N1148 0.984 . S
H1155 N1148 0.984 . S
H1156 N1144 0.984 . S
H1157 N1144 0.985 . S
C1158 C1159 1.363 . S
C1158 C1164 1.379 . S
C1158 N1166 1.356 . S
C1159 C1158 1.363 . S
C1159 C1165 1.363 1_455 S
C1160 C1161 1.363 1_655 S
C1160 C1165 1.379 . S
C1160 N1167 1.356 . S
C1161 C1160 1.363 1_455 S
C1161 C1164 1.363 . S
N1162 C1164 1.356 . S
N1162 H1174 0.984 . S
N1162 H1175 0.985 . S
N1163 C1165 1.356 . S
N1163 H1168 0.984 . S
N1163 H1169 0.985 . S
C1164 C1158 1.379 . S
C1164 C1161 1.363 . S
C1164 N1162 1.356 . S
C1165 C1159 1.363 1_655 S
C1165 C1160 1.379 . S
C1165 N1163 1.356 . S
N1166 C1158 1.356 . S
N1166 H1172 0.984 . S
N1166 H1173 0.984 . S
N1167 C1160 1.356 . S
N1167 H1170 0.984 . S
N1167 H1171 0.985 . S
H1168 N1163 0.984 . S
H1169 N1163 0.985 . S
H1170 N1167 0.984 . S
H1171 N1167 0.985 . S
H1172 N1166 0.984 . S
H1173 N1166 0.984 . S
H1174 N1162 0.984 . S
H1175 N1162 0.985 . S
C1176 C1177 1.363 . S
C1176 C1182 1.379 1_554 S
C1176 N1184 1.356 1_565 S
C1177 C1176 1.363 . S
C1177 C1183 1.363 . S
C1178 C1179 1.363 . S
C1178 C1183 1.379 1_556 S
C1178 N1185 1.356 . S
C1179 C1178 1.363 . S
C1179 C1182 1.363 . S
N1180 C1182 1.356 1_545 S
N1180 H1192 0.984 . S
N1180 H1193 0.985 . S
N1181 C1183 1.356 . S
N1181 H1186 0.984 . S
N1181 H1187 0.985 . S
C1182 C1176 1.379 1_556 S
C1182 C1179 1.363 . S
C1182 N1180 1.356 1_565 S
C1183 C1177 1.363 . S
C1183 C1178 1.379 1_554 S
C1183 N1181 1.356 . S
N1184 C1176 1.356 1_545 S
N1184 H1190 0.984 . S
N1184 H1191 0.984 . S
N1185 C1178 1.356 . S
N1185 H1188 0.984 . S
N1185 H1189 0.985 . S
H1186 N1181 0.984 . S
H1187 N1181 0.985 . S
H1188 N1185 0.984 . S
H1189 N1185 0.985 . S
H1190 N1184 0.984 . S
H1191 N1184 0.984 . S
H1192 N1180 0.984 . S
H1193 N1180 0.985 . S
C1194 C1195 1.363 . S
C1194 C1200 1.379 . S
C1194 N1202 1.356 . S
C1195 C1194 1.363 . S
C1195 C1201 1.363 . S
C1196 C1197 1.363 . S
C1196 C1201 1.379 . S
C1196 N1203 1.356 . S
C1197 C1196 1.363 . S
C1197 C1200 1.363 . S
N1198 C1200 1.356 . S
N1198 H1210 0.984 . S
N1198 H1211 0.985 . S
N1199 C1201 1.356 . S
N1199 H1204 0.984 . S
N1199 H1205 0.985 . S
C1200 C1194 1.379 . S
C1200 C1197 1.363 . S
C1200 N1198 1.356 . S
C1201 C1195 1.363 . S
C1201 C1196 1.379 . S
C1201 N1199 1.356 . S
N1202 C1194 1.356 . S
N1202 H1208 0.984 . S
N1202 H1209 0.984 . S
N1203 C1196 1.356 . S
N1203 H1206 0.984 . S
N1203 H1207 0.985 . S
H1204 N1199 0.984 . S
H1205 N1199 0.985 . S
H1206 N1203 0.984 . S
H1207 N1203 0.985 . S
H1208 N1202 0.984 . S
H1209 N1202 0.984 . S
H1210 N1198 0.984 . S
H1211 N1198 0.985 . S
C1212 C1213 1.363 . S
C1212 C1218 1.379 1_554 S
C1212 N1220 1.356 . S
C1213 C1212 1.363 . S
C1213 C1219 1.363 . S
C1214 C1215 1.363 . S
C1214 C1219 1.379 1_556 S
C1214 N1221 1.356 . S
C1215 C1214 1.363 . S
C1215 C1218 1.363 . S
N1216 C1218 1.356 . S
N1216 H1228 0.984 . S
N1216 H1229 0.985 . S
N1217 C1219 1.356 . S
N1217 H1222 0.984 . S
N1217 H1223 0.985 . S
C1218 C1212 1.379 1_556 S
C1218 C1215 1.363 . S
C1218 N1216 1.356 . S
C1219 C1213 1.363 . S
C1219 C1214 1.379 1_554 S
C1219 N1217 1.356 . S
N1220 C1212 1.356 . S
N1220 H1226 0.984 . S
N1220 H1227 0.984 . S
N1221 C1214 1.356 . S
N1221 H1224 0.984 . S
N1221 H1225 0.985 . S
H1222 N1217 0.984 . S
H1223 N1217 0.985 . S
H1224 N1221 0.984 . S
H1225 N1221 0.985 . S
H1226 N1220 0.984 . S
H1227 N1220 0.984 . S
H1228 N1216 0.984 . S
H1229 N1216 0.985 . S
C1230 C1231 1.363 . S
C1230 C1236 1.379 . S
C1230 N1238 1.356 . S
C1231 C1230 1.363 . S
C1231 C1237 1.363 1_655 S
C1232 C1233 1.363 1_455 S
C1232 C1237 1.379 . S
C1232 N1239 1.356 . S
C1233 C1232 1.363 1_655 S
C1233 C1236 1.363 . S
N1234 C1236 1.356 . S
N1234 H1246 0.984 . S
N1234 H1247 0.985 . S
N1235 C1237 1.356 . S
N1235 H1240 0.984 . S
N1235 H1241 0.985 . S
C1236 C1230 1.379 . S
C1236 C1233 1.363 . S
C1236 N1234 1.356 . S
C1237 C1231 1.363 1_455 S
C1237 C1232 1.379 . S
C1237 N1235 1.356 . S
N1238 C1230 1.356 . S
N1238 H1244 0.984 . S
N1238 H1245 0.984 . S
N1239 C1232 1.356 . S
N1239 H1242 0.984 . S
N1239 H1243 0.985 . S
H1240 N1235 0.984 . S
H1241 N1235 0.985 . S
H1242 N1239 0.984 . S
H1243 N1239 0.985 . S
H1244 N1238 0.984 . S
H1245 N1238 0.984 . S
H1246 N1234 0.984 . S
H1247 N1234 0.985 . S
C529 N2 1.998 . S
C531 N233 1.998 . S
C547 N134 1.999 . S
C549 N35 1.999 . S
C565 N167 1.998 . S
C567 N68 1.998 . S
C583 N101 1.998 . S
C585 N200 1.998 . S
C601 N266 1.998 . S
C603 N497 1.998 . S
C619 N299 1.999 . S
C621 N398 1.999 . S
C637 N431 1.998 . S
C639 N332 1.998 . S
C655 N365 1.998 . S
C657 N464 1.998 . S
C673 C7 1.306 . S
C675 C318 1.138 . S
C691 C351 1.138 . S
C693 C40 1.306 . S
C709 C384 1.138 . S
C711 C73 1.306 . S
C727 C285 1.138 . S
C729 C106 1.306 . S
C745 C516 1.138 . S
C747 C139 1.306 . S
C763 C417 1.138 . S
C765 C172 1.306 . S
C781 C450 1.138 . S
C783 C205 1.306 . S
C799 C483 1.138 . S
C801 C238 1.306 . S
C817 C54 1.138 . S
C819 C271 1.306 . S
C835 C87 1.138 . S
C837 C304 1.306 . S
C853 C120 1.138 . S
C855 C337 1.306 . S
C871 C370 1.306 . S
C873 C21 1.138 . S
C889 C252 1.138 . S
C891 C403 1.306 . S
C907 C153 1.138 . S
C909 C436 1.306 . S
C925 C186 1.138 . S
C927 C469 1.306 . S
C943 C219 1.138 . S
C945 C502 1.306 . S
C961 N79 1.100 . S
C963 N13 1.100 . S
C979 N46 1.100 . S
C981 N112 1.100 . S
C997 N211 1.100 . S
C999 N145 1.100 . S
C1015 N244 1.100 . S
C1017 N178 1.100 . S
C1033 N343 1.100 . S
C1035 N277 1.100 . S
C1051 N376 1.100 . S
C1053 N310 1.100 . S
C1069 N409 1.100 . S
C1071 N475 1.100 . S
C1087 N508 1.100 . S
C1089 N442 1.100 . S
C1105 C216 1.351 . S
C1107 C18 1.351 . S
C1123 C249 1.352 . S
C1125 C51 1.352 . S
C1141 C84 1.352 . S
C1143 C150 1.352 . S
C1159 C183 1.351 . S
C1161 C117 1.351 . S
C1177 C480 1.351 . S
C1179 C282 1.351 . S
C1195 C513 1.352 . S
C1197 C315 1.352 . S
C1213 C414 1.352 . S
C1215 C348 1.352 . S
C1231 C381 1.351 . S
C1233 C447 1.351 . S
