# Generated by pormake.
# Topology nfc, (4)-cn, num edge types: 1
# Building blocks:
#     Node 0, Type 0, BuildingBlock: KOZSID_clean_sbu_0, # of connection points: 4
#     Node 1, Type 0, BuildingBlock: KOZSID_clean_sbu_0, # of connection points: 4
#     Node 2, Type 0, BuildingBlock: KOZSID_clean_sbu_0, # of connection points: 4
#     Node 3, Type 0, BuildingBlock: KOZSID_clean_sbu_0, # of connection points: 4
#     Node 4, Type 0, BuildingBlock: KOZSID_clean_sbu_0, # of connection points: 4
#     Node 5, Type 0, BuildingBlock: KOZSID_clean_sbu_0, # of connection points: 4
#     Node 6, Type 0, BuildingBlock: KOZSID_clean_sbu_0, # of connection points: 4
#     Node 7, Type 0, BuildingBlock: KOZSID_clean_sbu_0, # of connection points: 4
#     Node 8, Type 0, BuildingBlock: KOZSID_clean_sbu_0, # of connection points: 4
#     Node 9, Type 0, BuildingBlock: KOZSID_clean_sbu_0, # of connection points: 4
#     Node 10, Type 0, BuildingBlock: KOZSID_clean_sbu_0, # of connection points: 4
#     Node 11, Type 0, BuildingBlock: KOZSID_clean_sbu_0, # of connection points: 4
#     Node 12, Type 0, BuildingBlock: KOZSID_clean_sbu_0, # of connection points: 4
#     Node 13, Type 0, BuildingBlock: KOZSID_clean_sbu_0, # of connection points: 4
#     Node 14, Type 0, BuildingBlock: KOZSID_clean_sbu_0, # of connection points: 4
#     Node 15, Type 0, BuildingBlock: KOZSID_clean_sbu_0, # of connection points: 4
#     Edge 16, Type (0, 0), BuildingBlock: TEMPAE_clean_linker_10, # of connection points: 2
#     Edge 17, Type (0, 0), BuildingBlock: TEMPAE_clean_linker_10, # of connection points: 2
#     Edge 18, Type (0, 0), BuildingBlock: TEMPAE_clean_linker_10, # of connection points: 2
#     Edge 19, Type (0, 0), BuildingBlock: TEMPAE_clean_linker_10, # of connection points: 2
#     Edge 20, Type (0, 0), BuildingBlock: TEMPAE_clean_linker_10, # of connection points: 2
#     Edge 21, Type (0, 0), BuildingBlock: TEMPAE_clean_linker_10, # of connection points: 2
#     Edge 22, Type (0, 0), BuildingBlock: TEMPAE_clean_linker_10, # of connection points: 2
#     Edge 23, Type (0, 0), BuildingBlock: TEMPAE_clean_linker_10, # of connection points: 2
#     Edge 24, Type (0, 0), BuildingBlock: TEMPAE_clean_linker_10, # of connection points: 2
#     Edge 25, Type (0, 0), BuildingBlock: TEMPAE_clean_linker_10, # of connection points: 2
#     Edge 26, Type (0, 0), BuildingBlock: TEMPAE_clean_linker_10, # of connection points: 2
#     Edge 27, Type (0, 0), BuildingBlock: TEMPAE_clean_linker_10, # of connection points: 2
#     Edge 28, Type (0, 0), BuildingBlock: TEMPAE_clean_linker_10, # of connection points: 2
#     Edge 29, Type (0, 0), BuildingBlock: TEMPAE_clean_linker_10, # of connection points: 2
#     Edge 30, Type (0, 0), BuildingBlock: TEMPAE_clean_linker_10, # of connection points: 2
#     Edge 31, Type (0, 0), BuildingBlock: TEMPAE_clean_linker_10, # of connection points: 2
#     Edge 32, Type (0, 0), BuildingBlock: TEMPAE_clean_linker_10, # of connection points: 2
#     Edge 33, Type (0, 0), BuildingBlock: TEMPAE_clean_linker_10, # of connection points: 2
#     Edge 34, Type (0, 0), BuildingBlock: TEMPAE_clean_linker_10, # of connection points: 2
#     Edge 35, Type (0, 0), BuildingBlock: TEMPAE_clean_linker_10, # of connection points: 2
#     Edge 36, Type (0, 0), BuildingBlock: TEMPAE_clean_linker_10, # of connection points: 2
#     Edge 37, Type (0, 0), BuildingBlock: TEMPAE_clean_linker_10, # of connection points: 2
#     Edge 38, Type (0, 0), BuildingBlock: TEMPAE_clean_linker_10, # of connection points: 2
#     Edge 39, Type (0, 0), BuildingBlock: TEMPAE_clean_linker_10, # of connection points: 2
#     Edge 40, Type (0, 0), BuildingBlock: TEMPAE_clean_linker_10, # of connection points: 2
#     Edge 41, Type (0, 0), BuildingBlock: TEMPAE_clean_linker_10, # of connection points: 2
#     Edge 42, Type (0, 0), BuildingBlock: TEMPAE_clean_linker_10, # of connection points: 2
#     Edge 43, Type (0, 0), BuildingBlock: TEMPAE_clean_linker_10, # of connection points: 2
#     Edge 44, Type (0, 0), BuildingBlock: TEMPAE_clean_linker_10, # of connection points: 2
#     Edge 45, Type (0, 0), BuildingBlock: TEMPAE_clean_linker_10, # of connection points: 2
#     Edge 46, Type (0, 0), BuildingBlock: TEMPAE_clean_linker_10, # of connection points: 2
#     Edge 47, Type (0, 0), BuildingBlock: TEMPAE_clean_linker_10, # of connection points: 2
# Relax obj value: 0.074
# Max RMSD: 0.147
# Mean RMSD: 0.115
data_MOF--net-nfc--node1-KOZSID_clean_sbu_0--edge1-TEMPAE_clean_linker_10
_symmetry_space_group_name_H-M    P1
_symmetry_Int_Tables_number       1
_symmetry_cell_setting            triclinic
loop_
_symmetry_equiv_pos_as_xyz
'x, y, z'
_cell_length_a     43.577614
_cell_length_b     43.635652
_cell_length_c     35.820962
_cell_angle_alpha  84.306901
_cell_angle_beta   86.328712
_cell_angle_gamma 84.815653
loop_
_atom_site_label
_atom_site_type_symbol
_atom_site_fract_x
_atom_site_fract_y
_atom_site_fract_z
_atom_type_partial_charge
C0 C 0.97038 0.01752 0.08126 0.0
C1 C 0.94678 0.0364 0.09709 0.0
C2 C 0.93013 0.05067 0.06822 0.0
C3 C 0.94416 0.03975 0.03622 0.0
N4 N 0.96868 0.01908 0.04277 0.0
Co5 Co 0.99558 0.99899 1.00214 0.0
N6 N 0.97185 0.02134 0.95917 0.0
C7 C 0.94716 0.04203 0.9635 0.0
C8 C 0.9349 0.05388 0.93026 0.0
C9 C 0.95256 0.03976 0.9029 0.0
C10 C 0.97469 0.01967 0.92081 0.0
N11 N 0.02257 0.97903 0.96149 0.0
C12 C 0.0211 0.98081 0.92293 0.0
C13 C 0.04412 0.96109 0.90735 0.0
C14 C 0.06065 0.94677 0.93627 0.0
C15 C 0.04691 0.95814 0.96813 0.0
N16 N 0.01924 0.97656 0.04512 0.0
C17 C 0.04412 0.95611 0.0408 0.0
C18 C 0.05691 0.94493 0.07395 0.0
C19 C 0.03935 0.95917 0.10127 0.0
C20 C 0.01648 0.97832 0.08346 0.0
N21 N 0.96815 0.96493 0.00441 0.0
C22 C 0.93074 0.91805 0.99232 0.0
C23 C 0.96196 0.91114 0.99891 0.0
C24 C 0.98007 0.93474 0.00509 0.0
C25 C 0.91797 0.94825 0.99563 0.0
C26 C 0.93692 0.97108 1.00205 0.0
N27 N 0.02295 0.03305 1.00007 0.0
C28 C 0.07236 0.04923 0.01307 0.0
C29 C 0.05893 0.07883 0.01866 0.0
C30 C 0.0282 0.08615 0.01 0.0
C31 C 0.01083 0.0631 1.00038 0.0
C32 C 0.05409 0.02691 1.00333 0.0
H33 H 0.98733 0.06986 0.9952 0.0
H34 H 0.06533 0.00451 1.00057 0.0
H35 H 0.00381 0.92814 0.00896 0.0
H36 H 0.92594 0.99373 1.00339 0.0
C37 C 0.93568 0.04928 0.99941 0.0
C38 C 0.99353 0.99848 0.10444 0.0
C39 C 0.99793 0.99983 0.89967 0.0
C40 C 0.05549 0.94877 0.00492 0.0
H41 H 0.94213 0.03967 0.12653 0.0
H42 H 0.91032 0.06739 0.0703 0.0
H43 H 0.91527 0.0707 0.92637 0.0
H44 H 0.94939 0.04385 0.87307 0.0
H45 H 0.04827 0.9569 0.87814 0.0
H46 H 0.08005 0.92956 0.93434 0.0
H47 H 0.07706 0.92876 0.07776 0.0
H48 H 0.04335 0.9562 0.13095 0.0
H49 H 0.97268 0.88783 0.99789 0.0
H50 H 0.89383 0.95479 0.99108 0.0
H51 H 0.0963 0.0426 0.0187 0.0
H52 H 0.01717 0.10919 0.01243 0.0
C53 C 0.24988 0.8034 0.29246 0.0
C54 C 0.25784 0.83168 0.30168 0.0
C55 C 0.28931 0.83056 0.29851 0.0
C56 C 0.29866 0.80188 0.28728 0.0
N57 N 0.27502 0.78504 0.28195 0.0
Co58 Co 0.2779 0.74161 0.26771 0.0
N59 N 0.32403 0.73753 0.26994 0.0
C60 C 0.34174 0.75859 0.28084 0.0
C61 C 0.37276 0.75071 0.27565 0.0
C62 C 0.37502 0.72355 0.2594 0.0
C63 C 0.34507 0.71617 0.25585 0.0
N64 N 0.28087 0.69846 0.25249 0.0
C65 C 0.30611 0.68061 0.24111 0.0
C66 C 0.29833 0.6528 0.23022 0.0
C67 C 0.26687 0.65374 0.23319 0.0
C68 C 0.25736 0.68189 0.24583 0.0
N69 N 0.23165 0.74542 0.26646 0.0
C70 C 0.21375 0.72359 0.25783 0.0
C71 C 0.1828 0.73105 0.26442 0.0
C72 C 0.18077 0.7588 0.27931 0.0
C73 C 0.21074 0.76689 0.28063 0.0
N74 N 0.28242 0.75695 0.21401 0.0
C75 C 0.29652 0.7687 0.13678 0.0
C76 C 0.27169 0.75178 0.14991 0.0
C77 C 0.26496 0.74641 0.18835 0.0
C78 C 0.3129 0.78141 0.16275 0.0
C79 C 0.30522 0.77562 0.20103 0.0
N80 N 0.27311 0.72635 0.32141 0.0
C81 C 0.24007 0.70162 0.36952 0.0
C82 C 0.24874 0.72046 0.39552 0.0
C83 C 0.27283 0.73918 0.38528 0.0
C84 C 0.28496 0.74142 0.34825 0.0
C85 C 0.25304 0.70444 0.33296 0.0
H86 H 0.30244 0.75695 0.34145 0.0
H87 H 0.24504 0.68998 0.31414 0.0
H88 H 0.24631 0.73266 0.19662 0.0
H89 H 0.31874 0.78563 0.21957 0.0
C90 C 0.32895 0.78824 0.28763 0.0
C91 C 0.21871 0.79351 0.29871 0.0
C92 C 0.33722 0.69076 0.23548 0.0
C93 C 0.22677 0.69464 0.24849 0.0
H94 H 0.24255 0.85036 0.31191 0.0
H95 H 0.30366 0.84771 0.30608 0.0
H96 H 0.39148 0.76445 0.27997 0.0
H97 H 0.39638 0.71185 0.24936 0.0
H98 H 0.31377 0.63459 0.2192 0.0
H99 H 0.25262 0.63671 0.22507 0.0
H100 H 0.16407 0.71701 0.26121 0.0
H101 H 0.15961 0.77069 0.28976 0.0
H102 H 0.25826 0.74155 0.13072 0.0
H103 H 0.33183 0.79535 0.15363 0.0
H104 H 0.22254 0.68563 0.37697 0.0
H105 H 0.28091 0.75352 0.405 0.0
C106 C 0.44343 0.97799 0.55457 0.0
C107 C 0.41766 0.99187 0.57314 0.0
C108 C 0.41974 0.023 0.56774 0.0
C109 C 0.44632 0.02663 0.54586 0.0
N110 N 0.4613 0.99973 0.53648 0.0
Co111 Co 0.5005 0.99574 0.50344 0.0
N112 N 0.50263 0.04185 0.49403 0.0
C113 C 0.48082 0.06334 0.50583 0.0
C114 C 0.48519 0.09282 0.49097 0.0
C115 C 0.51145 0.09019 0.46829 0.0
C116 C 0.52235 0.05915 0.47129 0.0
N117 N 0.54043 0.99174 0.47181 0.0
C118 C 0.55927 0.01347 0.4558 0.0
C119 C 0.58694 0.99948 0.44166 0.0
C120 C 0.58486 0.96834 0.44682 0.0
C121 C 0.55657 0.96478 0.46478 0.0
N122 N 0.4977 0.94964 0.51148 0.0
C123 C 0.51783 0.92811 0.49658 0.0
C124 C 0.51126 0.89835 0.50751 0.0
C125 C 0.4852 0.90087 0.53059 0.0
C126 C 0.47691 0.93223 0.53221 0.0
N127 N 0.47642 0.99735 0.45813 0.0
C128 C 0.44838 0.008 0.38907 0.0
C129 C 0.47412 0.98666 0.39368 0.0
C130 C 0.48741 0.98144 0.42833 0.0
C131 C 0.43538 0.02183 0.42048 0.0
C132 C 0.44959 0.01613 0.45452 0.0
N133 N 0.52461 0.99431 0.54861 0.0
C134 C 0.5625 0.96811 0.58968 0.0
C135 C 0.55534 0.98966 0.61585 0.0
C136 C 0.53365 0.0145 0.60686 0.0
C137 C 0.51889 0.0165 0.57319 0.0
C138 C 0.54688 0.97076 0.55664 0.0
H139 H 0.50235 0.03575 0.56808 0.0
H140 H 0.55283 0.95306 0.53853 0.0
H141 H 0.50724 0.9653 0.42991 0.0
H142 H 0.43882 0.02797 0.47703 0.0
C143 C 0.45603 0.055 0.53023 0.0
C144 C 0.44942 0.94412 0.55446 0.0
C145 C 0.55166 0.04739 0.45228 0.0
C146 C 0.54455 0.93644 0.47582 0.0
H147 H 0.39879 0.98085 0.58842 0.0
H148 H 0.40326 0.04092 0.57756 0.0
H149 H 0.47061 0.11372 0.49543 0.0
H150 H 0.52097 0.10918 0.45108 0.0
H151 H 0.60686 0.0104 0.42899 0.0
H152 H 0.60212 0.95039 0.43883 0.0
H153 H 0.52448 0.87725 0.50061 0.0
H154 H 0.47412 0.88159 0.54519 0.0
H155 H 0.48508 0.97518 0.37023 0.0
H156 H 0.41487 0.03777 0.41857 0.0
H157 H 0.57955 0.94877 0.59501 0.0
H158 H 0.52699 0.03169 0.62634 0.0
C159 C 0.2937 0.18801 0.7645 0.0
C160 C 0.29109 0.15634 0.76837 0.0
C161 C 0.26173 0.15221 0.76007 0.0
C162 C 0.2483 0.18142 0.75124 0.0
N163 N 0.26755 0.20393 0.75225 0.0
Co164 Co 0.25747 0.24965 0.74197 0.0
N165 N 0.21326 0.24405 0.73346 0.0
C166 C 0.20025 0.21687 0.73517 0.0
C167 C 0.17067 0.21975 0.72382 0.0
C168 C 0.16441 0.25049 0.71373 0.0
C169 C 0.19052 0.26491 0.72012 0.0
N170 N 0.2473 0.2954 0.73233 0.0
C171 C 0.22052 0.31161 0.7227 0.0
C172 C 0.22299 0.34328 0.72074 0.0
C173 C 0.25279 0.34715 0.72737 0.0
C174 C 0.26662 0.3178 0.73364 0.0
N175 N 0.30175 0.2552 0.75009 0.0
C176 C 0.31526 0.28215 0.74639 0.0
C177 C 0.34506 0.27919 0.75711 0.0
C178 C 0.35082 0.24868 0.76902 0.0
C179 C 0.32418 0.23452 0.76446 0.0
N180 N 0.26769 0.24719 0.68741 0.0
C181 C 0.27529 0.24697 0.60877 0.0
C182 C 0.28588 0.27057 0.62682 0.0
C183 C 0.28223 0.27002 0.66597 0.0
C184 C 0.26206 0.22291 0.63077 0.0
C185 C 0.2585 0.22349 0.66958 0.0
N186 N 0.24728 0.25212 0.79638 0.0
C187 C 0.25492 0.27464 0.85362 0.0
C188 C 0.23926 0.25184 0.87489 0.0
C189 C 0.22659 0.2298 0.85621 0.0
C190 C 0.23048 0.23063 0.81707 0.0
C191 C 0.25872 0.27428 0.8148 0.0
H192 H 0.2203 0.2133 0.80424 0.0
H193 H 0.2718 0.29168 0.80051 0.0
H194 H 0.29074 0.28865 0.67811 0.0
H195 H 0.2474 0.20488 0.68427 0.0
C196 C 0.21737 0.18868 0.74354 0.0
C197 C 0.32031 0.20192 0.7763 0.0
C198 C 0.19328 0.29819 0.71164 0.0
C199 C 0.29794 0.31042 0.73926 0.0
H200 H 0.30826 0.13819 0.77774 0.0
H201 H 0.25114 0.13059 0.76151 0.0
H202 H 0.15594 0.20145 0.72132 0.0
H203 H 0.14331 0.26059 0.70172 0.0
H204 H 0.20536 0.36172 0.71387 0.0
H205 H 0.2633 0.36876 0.72675 0.0
H206 H 0.36009 0.29742 0.75861 0.0
H207 H 0.37187 0.23866 0.78126 0.0
H208 H 0.29666 0.28951 0.61081 0.0
H209 H 0.25326 0.20422 0.61799 0.0
H210 H 0.26532 0.29204 0.86701 0.0
H211 H 0.21393 0.21193 0.87173 0.0
C212 C 0.98088 0.97506 0.58569 0.0
C213 C 0.96183 0.95497 0.6062 0.0
C214 C 0.94673 0.94125 0.58087 0.0
C215 C 0.9571 0.95364 0.54616 0.0
N216 N 0.97818 0.97429 0.5476 0.0
Co217 Co 0.99686 0.99863 0.502 0.0
N218 N 0.97191 0.98081 0.46469 0.0
C219 C 0.95084 0.96007 0.47427 0.0
C220 C 0.93832 0.94998 0.44404 0.0
C221 C 0.95232 0.96493 0.41309 0.0
C222 C 0.97267 0.98368 0.42593 0.0
N223 N 0.01591 0.02261 0.45639 0.0
C224 C 0.01318 0.02184 0.41831 0.0
C225 C 0.03208 0.04207 0.39778 0.0
C226 C 0.04776 0.05523 0.42306 0.0
C227 C 0.03757 0.04269 0.45777 0.0
N228 N 0.02137 0.01691 0.53936 0.0
C229 C 0.04237 0.03772 0.5299 0.0
C230 C 0.0549 0.0477 0.56023 0.0
C231 C 0.04076 0.03278 0.59112 0.0
C232 C 0.02008 0.0145 0.57811 0.0
N233 N 0.03003 0.96465 0.49563 0.0
C234 C 0.07574 0.92067 0.46862 0.0
C235 C 0.08349 0.94898 0.47905 0.0
C236 C 0.06052 0.97043 0.4922 0.0
C237 C 0.04502 0.91372 0.47576 0.0
C238 C 0.02296 0.93555 0.48997 0.0
N239 N 0.96382 0.03261 0.5083 0.0
C240 C 0.94951 0.08502 0.5234 0.0
C241 C 0.91925 0.07807 0.53407 0.0
C242 C 0.91118 0.04866 0.52811 0.0
C243 C 0.93361 0.0265 0.51542 0.0
C244 C 0.971 0.06235 0.50999 0.0
H245 H 0.92613 0.0043 0.51275 0.0
H246 H 0.99362 0.06912 0.50256 0.0
H247 H 0.06795 0.99189 0.49824 0.0
H248 H 1.0001 0.92871 0.49471 0.0
C249 C 0.94553 0.94847 0.51188 0.0
C250 C 0.99992 0.99528 0.60409 0.0
C251 C 0.99316 0.00255 0.39987 0.0
C252 C 0.04866 0.04839 0.49214 0.0
H253 H 0.95846 0.95119 0.63643 0.0
H254 H 0.92936 0.92497 0.58709 0.0
H255 H 0.92181 0.93284 0.44439 0.0
H256 H 0.94858 0.96151 0.3843 0.0
H257 H 0.03454 0.04672 0.36756 0.0
H258 H 0.06496 0.0717 0.41681 0.0
H259 H 0.07191 0.06433 0.55995 0.0
H260 H 0.04501 0.03533 0.62003 0.0
H261 H 0.1071 0.95513 0.47619 0.0
H262 H 0.03743 0.89212 0.46892 0.0
H263 H 0.95722 0.10741 0.52686 0.0
H264 H 0.88779 0.04233 0.53409 0.0
C265 C 0.27195 0.81066 0.72344 0.0
C266 C 0.26324 0.84211 0.72323 0.0
C267 C 0.23588 0.84509 0.74377 0.0
C268 C 0.22944 0.81552 0.75598 0.0
N269 N 0.25105 0.79364 0.74456 0.0
Co270 Co 0.25127 0.74778 0.75967 0.0
N271 N 0.21192 0.75253 0.79215 0.0
C272 C 0.19567 0.77959 0.79846 0.0
C273 C 0.17021 0.77635 0.82251 0.0
C274 C 0.16985 0.7453 0.83189 0.0
C275 C 0.19499 0.73111 0.81255 0.0
N276 N 0.25141 0.70189 0.77457 0.0
C277 C 0.23027 0.68485 0.79514 0.0
C278 C 0.23889 0.65339 0.79521 0.0
C279 C 0.26641 0.65041 0.77501 0.0
C280 C 0.27302 0.68 0.76316 0.0
N281 N 0.29068 0.74302 0.72727 0.0
C282 C 0.30717 0.71598 0.72142 0.0
C283 C 0.3324 0.71912 0.69698 0.0
C284 C 0.33239 0.75008 0.68685 0.0
C285 C 0.30729 0.76436 0.70621 0.0
N286 N 0.27579 0.75238 0.80319 0.0
C287 C 0.30883 0.75814 0.8666 0.0
C288 C 0.31689 0.73397 0.84419 0.0
C289 C 0.30034 0.73172 0.81257 0.0
C290 C 0.28467 0.77981 0.8562 0.0
C291 C 0.26854 0.77644 0.82483 0.0
N292 N 0.2267 0.74318 0.71629 0.0
C293 C 0.2184 0.71615 0.66284 0.0
C294 C 0.19336 0.73706 0.65324 0.0
C295 C 0.18462 0.76062 0.67637 0.0
C296 C 0.20138 0.76309 0.70777 0.0
C297 C 0.2346 0.71967 0.69404 0.0
H298 H 0.19376 0.78158 0.72429 0.0
H299 H 0.25387 0.70346 0.69896 0.0
H300 H 0.30756 0.71284 0.79656 0.0
H301 H 0.24991 0.7933 0.81925 0.0
C302 C 0.20463 0.80768 0.78078 0.0
C303 C 0.30057 0.79828 0.70376 0.0
C304 C 0.20146 0.69721 0.81436 0.0
C305 C 0.29808 0.68787 0.73884 0.0
H306 H 0.27559 0.86119 0.71038 0.0
H307 H 0.22274 0.86639 0.75011 0.0
H308 H 0.15375 0.79443 0.83198 0.0
H309 H 0.15283 0.73444 0.85081 0.0
H310 H 0.22637 0.63431 0.8077 0.0
H311 H 0.27955 0.62913 0.76864 0.0
H312 H 0.34879 0.701 0.68747 0.0
H313 H 0.34907 0.76078 0.66728 0.0
H314 H 0.3355 0.71663 0.85138 0.0
H315 H 0.27718 0.79858 0.87324 0.0
H316 H 0.22664 0.69799 0.64521 0.0
H317 H 0.16543 0.77745 0.66978 0.0
C318 C 0.44786 0.02996 0.96311 0.0
C319 C 0.41897 0.0205 0.95766 0.0
C320 C 0.41814 0.99124 0.97472 0.0
C321 C 0.44614 0.98463 0.99022 0.0
N322 N 0.46491 0.00792 0.9842 0.0
Co323 Co 0.50604 0.00931 0.00608 0.0
N324 N 0.50457 0.96623 0.03151 0.0
C325 C 0.48236 0.94686 0.02903 0.0
C326 C 0.48861 0.91798 0.04691 0.0
C327 C 0.5165 0.91882 0.06177 0.0
C328 C 0.52553 0.94851 0.05256 0.0
N329 N 0.54658 0.01115 0.0291 0.0
C330 C 0.56226 0.99027 0.0531 0.0
C331 C 0.58802 0.00225 0.06519 0.0
C332 C 0.58916 0.03124 0.04741 0.0
C333 C 0.56391 0.03558 0.02606 0.0
N334 N 0.50809 0.05187 0.97949 0.0
C335 C 0.53172 0.07003 0.97905 0.0
C336 C 0.52835 0.09654 0.95534 0.0
C337 C 0.50086 0.0954 0.93968 0.0
C338 C 0.48863 0.06838 0.95539 0.0
N339 N 0.48461 0.02675 0.05056 0.0
C340 C 0.45813 0.04782 0.1178 0.0
C341 C 0.48047 0.064 0.09658 0.0
C342 C 0.49315 0.05326 0.06305 0.0
C343 C 0.44784 0.02217 0.10366 0.0
C344 C 0.46131 0.0121 0.07029 0.0
N345 N 0.52736 0.99202 0.96145 0.0
C346 C 0.56606 0.99556 0.91022 0.0
C347 C 0.55096 0.97567 0.8909 0.0
C348 C 0.52585 0.96166 0.90907 0.0
C349 C 0.51456 0.97005 0.94413 0.0
C350 C 0.55405 0.00317 0.94549 0.0
H351 H 0.4947 0.9594 0.95589 0.0
H352 H 0.56602 0.01909 0.95854 0.0
H353 H 0.51039 0.06629 0.04832 0.0
H354 H 0.45317 0.9918 0.06178 0.0
C355 C 0.45557 0.95668 0.01033 0.0
C356 C 0.4582 0.05979 0.94717 0.0
C357 C 0.55406 0.9588 0.06468 0.0
C358 C 0.55649 0.06185 1.00183 0.0
H359 H 0.40026 0.03332 0.94297 0.0
H360 H 0.39927 0.97659 0.97589 0.0
H361 H 0.47458 0.89857 0.04884 0.0
H362 H 0.52873 0.89962 0.07753 0.0
H363 H 0.60445 0.99124 0.08475 0.0
H364 H 0.60641 0.04722 0.04968 0.0
H365 H 0.54406 0.11453 0.95 0.0
H366 H 0.49105 0.11265 0.91901 0.0
H367 H 0.48891 0.08419 0.10648 0.0
H368 H 0.43079 0.00871 0.1194 0.0
H369 H 0.58584 0.00671 0.89731 0.0
H370 H 0.51401 0.94539 0.89546 0.0
C371 C 0.21356 0.25421 0.31915 0.0
C372 C 0.19085 0.27367 0.33566 0.0
C373 C 0.18058 0.29496 0.30769 0.0
C374 C 0.19763 0.28736 0.2759 0.0
N375 N 0.21744 0.26183 0.2817 0.0
Co376 Co 0.24943 0.2444 0.24499 0.0
N377 N 0.23916 0.27926 0.20593 0.0
C378 C 0.2182 0.30382 0.20927 0.0
C379 C 0.21491 0.32261 0.17647 0.0
C380 C 0.23419 0.30868 0.15043 0.0
C381 C 0.24808 0.28213 0.16899 0.0
N382 N 0.28148 0.22699 0.20835 0.0
C383 C 0.28601 0.23503 0.17105 0.0
C384 C 0.30883 0.21553 0.15474 0.0
C385 C 0.31855 0.1939 0.18265 0.0
C386 C 0.30111 0.20133 0.21421 0.0
N387 N 0.25966 0.20957 0.28407 0.0
C388 C 0.28033 0.18481 0.28072 0.0
C389 C 0.28392 0.16633 0.31372 0.0
C390 C 0.26519 0.18074 0.33989 0.0
C391 C 0.25129 0.20719 0.32117 0.0
N392 N 0.21853 0.22058 0.22502 0.0
C393 C 0.17917 0.19064 0.1841 0.0
C394 C 0.20698 0.1756 0.19603 0.0
C395 C 0.22601 0.19077 0.21662 0.0
C396 C 0.17041 0.22006 0.19527 0.0
C397 C 0.19021 0.23442 0.21572 0.0
N398 N 0.28032 0.26823 0.26491 0.0
C399 C 0.32852 0.26921 0.29442 0.0
C400 C 0.31955 0.29871 0.30515 0.0
C401 C 0.29169 0.31352 0.29324 0.0
C402 C 0.27274 0.2981 0.27293 0.0
C403 C 0.30866 0.25449 0.27437 0.0
H404 H 0.25165 0.3105 0.26509 0.0
H405 H 0.31627 0.23162 0.26805 0.0
H406 H 0.24714 0.1783 0.2242 0.0
H407 H 0.18247 0.25707 0.2226 0.0
C408 C 0.19918 0.30631 0.24203 0.0
C409 C 0.23366 0.2314 0.34037 0.0
C410 C 0.26666 0.25853 0.14966 0.0
C411 C 0.29937 0.18231 0.24801 0.0
H412 H 0.18369 0.2736 0.36514 0.0
H413 H 0.16429 0.31493 0.31072 0.0
H414 H 0.19897 0.34291 0.17154 0.0
H415 H 0.23655 0.31618 0.12074 0.0
H416 H 0.31654 0.21584 0.12542 0.0
H417 H 0.33488 0.17395 0.1797 0.0
H418 H 0.29991 0.14608 0.31873 0.0
H419 H 0.26334 0.17374 0.36975 0.0
H420 H 0.21474 0.1527 0.18824 0.0
H421 H 0.1486 0.23227 0.18767 0.0
H422 H 0.3501 0.257 0.30285 0.0
H423 H 0.2843 0.33679 0.30005 0.0
C424 C 0.71066 0.32801 0.78467 0.0
C425 C 0.71941 0.3574 0.78825 0.0
C426 C 0.74776 0.35921 0.77021 0.0
C427 C 0.75456 0.33119 0.75618 0.0
N428 N 0.73227 0.31147 0.76412 0.0
Co429 Co 0.7317 0.26942 0.7459 0.0
N430 N 0.77326 0.27247 0.71868 0.0
C431 C 0.79156 0.29599 0.71814 0.0
C432 C 0.81849 0.292 0.69665 0.0
C433 C 0.81748 0.26422 0.68262 0.0
C434 C 0.78992 0.25267 0.69663 0.0
N435 N 0.73062 0.22784 0.72653 0.0
C436 C 0.7511 0.21234 0.70347 0.0
C437 C 0.74117 0.18401 0.69712 0.0
C438 C 0.71325 0.1818 0.71614 0.0
C439 C 0.70776 0.20865 0.73316 0.0
N440 N 0.69059 0.26595 0.77402 0.0
C441 C 0.67358 0.24128 0.77722 0.0
C442 C 0.64745 0.24459 0.80028 0.0
C443 C 0.64767 0.27312 0.81262 0.0
C444 C 0.67387 0.28584 0.79588 0.0
N445 N 0.71116 0.28869 0.70072 0.0
C446 C 0.68799 0.3095 0.63056 0.0
C447 C 0.67342 0.28738 0.65457 0.0
C448 C 0.68522 0.27748 0.68944 0.0
C449 C 0.71251 0.32304 0.64373 0.0
C450 C 0.72355 0.31245 0.6787 0.0
N451 N 0.75225 0.25005 0.79125 0.0
C452 C 0.75519 0.21038 0.84329 0.0
C453 C 0.77539 0.22665 0.86073 0.0
C454 C 0.78562 0.25362 0.84167 0.0
C455 C 0.77407 0.26465 0.807 0.0
C456 C 0.744 0.22239 0.80879 0.0
H457 H 0.78249 0.28549 0.79408 0.0
H458 H 0.72795 0.20933 0.79763 0.0
H459 H 0.67374 0.25992 0.70613 0.0
H460 H 0.74299 0.32291 0.6865 0.0
C461 C 0.78169 0.32268 0.7355 0.0
C462 C 0.68174 0.31689 0.80154 0.0
C463 C 0.78033 0.22318 0.68739 0.0
C464 C 0.68221 0.21573 0.75724 0.0
H465 H 0.70667 0.37578 0.80233 0.0
H466 H 0.76168 0.37873 0.76742 0.0
H467 H 0.83635 0.30781 0.69101 0.0
H468 H 0.83489 0.25395 0.66367 0.0
H469 H 0.75296 0.16652 0.68074 0.0
H470 H 0.69886 0.16269 0.71782 0.0
H471 H 0.63024 0.22823 0.80724 0.0
H472 H 0.63042 0.2833 0.83183 0.0
H473 H 0.65393 0.27668 0.64576 0.0
H474 H 0.72466 0.34021 0.62614 0.0
H475 H 0.74662 0.18936 0.85714 0.0
H476 H 0.80171 0.26667 0.85403 0.0
C477 C 0.77055 0.68869 0.28514 0.0
C478 C 0.75849 0.66048 0.29539 0.0
C479 C 0.72744 0.66517 0.29144 0.0
C480 C 0.72221 0.69584 0.27919 0.0
N481 N 0.74819 0.71091 0.27442 0.0
Co482 Co 0.75089 0.75611 0.2589 0.0
N483 N 0.70488 0.76411 0.26051 0.0
C484 C 0.68399 0.74373 0.27261 0.0
C485 C 0.65399 0.75608 0.27094 0.0
C486 C 0.65586 0.78597 0.25619 0.0
C487 C 0.68702 0.78998 0.24926 0.0
N488 N 0.75353 0.80101 0.2413 0.0
C489 C 0.73116 0.8226 0.22871 0.0
C490 C 0.74351 0.84973 0.21372 0.0
C491 C 0.77463 0.84514 0.21688 0.0
C492 C 0.77964 0.81549 0.23303 0.0
N493 N 0.79691 0.7484 0.25933 0.0
C494 C 0.81786 0.76942 0.25089 0.0
C495 C 0.8477 0.75781 0.25628 0.0
C496 C 0.84562 0.72775 0.27012 0.0
C497 C 0.81449 0.72286 0.27244 0.0
N498 N 0.7514 0.74755 0.20541 0.0
C499 C 0.74918 0.7407 0.1283 0.0
C500 C 0.77436 0.75274 0.14203 0.0
C501 C 0.77495 0.75605 0.18036 0.0
C502 C 0.72563 0.73118 0.15389 0.0
C503 C 0.72734 0.73447 0.19206 0.0
N504 N 0.75046 0.76462 0.31242 0.0
C505 C 0.77033 0.79043 0.36142 0.0
C506 C 0.75608 0.77082 0.38902 0.0
C507 C 0.73785 0.74913 0.37787 0.0
C508 C 0.73495 0.74678 0.33975 0.0
C509 C 0.76739 0.78684 0.32345 0.0
H510 H 0.72052 0.72987 0.3332 0.0
H511 H 0.77959 0.8018 0.30361 0.0
H512 H 0.79445 0.76608 0.18886 0.0
H513 H 0.70868 0.72666 0.21013 0.0
C514 C 0.69314 0.71225 0.27939 0.0
C515 C 0.80263 0.69423 0.28953 0.0
C516 C 0.6984 0.81755 0.22846 0.0
C517 C 0.80866 0.79998 0.23854 0.0
H518 H 0.77044 0.63906 0.30649 0.0
H519 H 0.71045 0.64872 0.29929 0.0
H520 H 0.63323 0.74429 0.27754 0.0
H521 H 0.63649 0.8025 0.24947 0.0
H522 H 0.7317 0.87044 0.20056 0.0
H523 H 0.7917 0.86106 0.20704 0.0
H524 H 0.86839 0.76995 0.25163 0.0
H525 H 0.86471 0.71148 0.27862 0.0
H526 H 0.79313 0.76045 0.12313 0.0
H527 H 0.70593 0.72119 0.14451 0.0
H528 H 0.78451 0.80773 0.36908 0.0
H529 H 0.72593 0.73392 0.39855 0.0
C530 C 0.76856 0.30382 0.19821 0.0
C531 C 0.75538 0.32777 0.17438 0.0
C532 C 0.72426 0.32549 0.17743 0.0
C533 C 0.72011 0.30018 0.20249 0.0
N534 N 0.74662 0.28622 0.216 0.0
Co535 Co 0.75027 0.2468 0.25053 0.0
N536 N 0.70429 0.24378 0.25566 0.0
C537 C 0.68297 0.2655 0.24137 0.0
C538 C 0.65337 0.26089 0.25427 0.0
C539 C 0.65576 0.23466 0.27838 0.0
C540 C 0.68681 0.22396 0.27811 0.0
N541 N 0.75407 0.20644 0.28313 0.0
C542 C 0.73236 0.18719 0.29788 0.0
C543 C 0.74632 0.15935 0.3135 0.0
C544 C 0.7774 0.16181 0.31066 0.0
C545 C 0.78096 0.19046 0.29248 0.0
N546 N 0.7961 0.25072 0.2473 0.0
C547 C 0.81724 0.23142 0.26583 0.0
C548 C 0.84676 0.24004 0.2598 0.0
C549 C 0.84442 0.26648 0.23595 0.0
C550 C 0.8135 0.27241 0.22836 0.0
N551 N 0.74618 0.27032 0.29531 0.0
C552 C 0.73234 0.29848 0.3622 0.0
C553 C 0.75325 0.27227 0.36121 0.0
C554 C 0.76002 0.25882 0.32762 0.0
C555 C 0.72029 0.31164 0.32861 0.0
C556 C 0.72761 0.2974 0.29569 0.0
N557 N 0.75422 0.22343 0.20566 0.0
C558 C 0.78544 0.1915 0.16394 0.0
C559 C 0.76422 0.1985 0.1361 0.0
C560 C 0.73678 0.21617 0.14489 0.0
C561 C 0.73216 0.22801 0.1797 0.0
C562 C 0.77999 0.20408 0.19831 0.0
H563 H 0.71109 0.24183 0.18437 0.0
H564 H 0.79746 0.19862 0.21793 0.0
H565 H 0.77571 0.23857 0.32875 0.0
H566 H 0.71721 0.30838 0.27123 0.0
C567 C 0.69158 0.29021 0.21616 0.0
C568 C 0.80204 0.2988 0.20266 0.0
C569 C 0.69848 0.19473 0.2993 0.0
C570 C 0.80905 0.20368 0.28519 0.0
H571 H 0.76701 0.34515 0.1566 0.0
H572 H 0.70672 0.34068 0.16329 0.0
H573 H 0.63253 0.2753 0.24761 0.0
H574 H 0.63659 0.22507 0.29469 0.0
H575 H 0.73539 0.13924 0.32599 0.0
H576 H 0.79528 0.14473 0.32079 0.0
H577 H 0.86765 0.22807 0.27065 0.0
H578 H 0.86343 0.27966 0.22502 0.0
H579 H 0.76329 0.26124 0.38656 0.0
H580 H 0.70468 0.33245 0.32785 0.0
H581 H 0.80667 0.17723 0.15884 0.0
H582 H 0.71956 0.22239 0.12435 0.0
C583 C 0.71018 0.74557 0.83128 0.0
C584 C 0.68412 0.7605 0.84777 0.0
C585 C 0.67338 0.7831 0.82148 0.0
C586 C 0.69347 0.7806 0.79062 0.0
N587 N 0.7158 0.75712 0.79528 0.0
Co588 Co 0.75173 0.7467 0.75976 0.0
N589 N 0.73994 0.7836 0.72411 0.0
C590 C 0.71613 0.80534 0.72854 0.0
C591 C 0.71309 0.82692 0.69816 0.0
C592 C 0.73574 0.81791 0.67241 0.0
C593 C 0.75123 0.79123 0.68867 0.0
N594 N 0.78769 0.73626 0.72413 0.0
C595 C 0.79393 0.74831 0.68838 0.0
C596 C 0.8198 0.73285 0.67201 0.0
C597 C 0.82989 0.70981 0.69809 0.0
C598 C 0.80964 0.7124 0.72873 0.0
N599 N 0.76353 0.70985 0.79563 0.0
C600 C 0.78725 0.68803 0.79118 0.0
C601 C 0.79108 0.66724 0.82217 0.0
C602 C 0.76915 0.67695 0.84838 0.0
C603 C 0.75312 0.70312 0.83168 0.0
N604 N 0.72611 0.72159 0.73297 0.0
C605 C 0.69156 0.68758 0.69064 0.0
C606 C 0.72032 0.67547 0.7028 0.0
C607 C 0.73707 0.69273 0.72371 0.0
C608 C 0.6801 0.71674 0.70049 0.0
C609 C 0.69753 0.73314 0.72169 0.0
N610 N 0.7772 0.77168 0.78682 0.0
C611 C 0.82111 0.77419 0.82389 0.0
C612 C 0.80843 0.80205 0.83652 0.0
C613 C 0.7808 0.81541 0.82223 0.0
C614 C 0.76569 0.79995 0.79754 0.0
C615 C 0.80542 0.75972 0.7988 0.0
H616 H 0.74427 0.81087 0.78849 0.0
H617 H 0.81619 0.73847 0.79031 0.0
H618 H 0.75902 0.68239 0.7315 0.0
H619 H 0.6875 0.75521 0.72825 0.0
C620 C 0.69492 0.80266 0.75952 0.0
C621 C 0.73095 0.72317 0.85212 0.0
C622 C 0.77408 0.77208 0.66795 0.0
C623 C 0.80819 0.69051 0.75997 0.0
H624 H 0.67498 0.75654 0.8765 0.0
H625 H 0.65452 0.80062 0.82534 0.0
H626 H 0.69542 0.84588 0.69434 0.0
H627 H 0.7395 0.82872 0.64415 0.0
H628 H 0.8296 0.73676 0.64363 0.0
H629 H 0.84861 0.69214 0.69433 0.0
H630 H 0.80903 0.64858 0.82615 0.0
H631 H 0.76648 0.66687 0.87709 0.0
H632 H 0.73021 0.653 0.69555 0.0
H633 H 0.65767 0.72684 0.69208 0.0
H634 H 0.84301 0.76352 0.83344 0.0
H635 H 0.77032 0.83719 0.83106 0.0
C636 C 0.47534 0.50009 0.57771 0.0
C637 C 0.4512 0.5173 0.59507 0.0
C638 C 0.43606 0.53473 0.56705 0.0
C639 C 0.45182 0.52717 0.53439 0.0
N640 N 0.47554 0.50524 0.53984 0.0
Co641 Co 0.50668 0.4894 0.50117 0.0
N642 N 0.48811 0.51896 0.46065 0.0
C643 C 0.46389 0.54039 0.46434 0.0
C644 C 0.45556 0.55606 0.43094 0.0
C645 C 0.47506 0.54333 0.40423 0.0
C646 C 0.49414 0.5205 0.42303 0.0
N647 N 0.53793 0.47363 0.46252 0.0
C648 C 0.53895 0.47955 0.42464 0.0
C649 C 0.56314 0.46214 0.40758 0.0
C650 C 0.57759 0.44414 0.4357 0.0
C651 C 0.56141 0.45146 0.46816 0.0
N652 N 0.52516 0.45982 0.5418 0.0
C653 C 0.54898 0.43801 0.53814 0.0
C654 C 0.55789 0.42309 0.57175 0.0
C655 C 0.53922 0.43682 0.59851 0.0
C656 C 0.51999 0.45931 0.5795 0.0
N657 N 0.47894 0.45832 0.48984 0.0
C658 C 0.44243 0.4181 0.45966 0.0
C659 C 0.47247 0.40828 0.46934 0.0
C660 C 0.49018 0.42862 0.48449 0.0
C661 C 0.43014 0.44739 0.46812 0.0
C662 C 0.44857 0.46684 0.48344 0.0
N663 N 0.53435 0.52048 0.51243 0.0
C664 C 0.58297 0.53224 0.53397 0.0
C665 C 0.57059 0.56192 0.54086 0.0
C666 C 0.54051 0.57119 0.53087 0.0
C667 C 0.523 0.55032 0.51661 0.0
C668 C 0.56462 0.5121 0.51958 0.0
H669 H 0.50004 0.55861 0.51034 0.0
H670 H 0.57508 0.48955 0.51576 0.0
H671 H 0.5132 0.42015 0.49027 0.0
H672 H 0.43799 0.48904 0.48857 0.0
C673 C 0.44759 0.54307 0.49897 0.0
C674 C 0.49944 0.48179 0.59821 0.0
C675 C 0.51577 0.49914 0.4038 0.0
C676 C 0.56531 0.43537 0.50354 0.0
H677 H 0.44611 0.51827 0.62493 0.0
H678 H 0.41709 0.55224 0.57024 0.0
H679 H 0.43661 0.57359 0.42637 0.0
H680 H 0.47451 0.54922 0.37418 0.0
H681 H 0.56895 0.46149 0.37784 0.0
H682 H 0.59654 0.42656 0.43266 0.0
H683 H 0.57699 0.40575 0.57637 0.0
H684 H 0.54057 0.43197 0.62861 0.0
H685 H 0.48281 0.38558 0.46361 0.0
H686 H 0.4066 0.45557 0.46207 0.0
H687 H 0.60626 0.52406 0.54115 0.0
H688 H 0.53024 0.59429 0.53477 0.0
C689 C 0.94188 0.47923 0.05306 0.0
C690 C 0.91452 0.49269 0.06852 0.0
C691 C 0.91396 0.52367 0.05806 0.0
C692 C 0.94101 0.52755 0.03713 0.0
N693 N 0.95894 0.50093 0.03352 0.0
Co694 Co 1.00087 0.49712 0.0062 0.0
N695 N 0.99959 0.54276 0.98986 0.0
C696 C 0.97555 0.56378 0.99636 0.0
C697 C 0.97987 0.5929 0.98004 0.0
C698 C 0.00844 0.59053 0.96211 0.0
C699 C 0.02038 0.56002 0.96899 0.0
N700 N 0.04313 0.49344 0.97969 0.0
C701 C 0.06097 0.51539 0.96206 0.0
C702 C 0.09 0.50232 0.95108 0.0
C703 C 0.0903 0.4713 0.96098 0.0
C704 C 0.06179 0.46702 0.97802 0.0
N705 N 0.00184 0.45136 0.02184 0.0
C706 C 0.02486 0.42993 0.01302 0.0
C707 C 0.01912 0.4003 0.02609 0.0
C708 C 0.99066 0.40279 0.04432 0.0
C709 C 0.9806 0.434 0.04165 0.0
N710 N 0.98147 0.4905 0.95945 0.0
C711 C 0.95529 0.48289 0.89163 0.0
C712 C 0.98207 0.46514 0.90247 0.0
C713 C 0.99463 0.46924 0.93625 0.0
C714 C 0.94119 0.50371 0.91584 0.0
C715 C 0.95458 0.50713 0.94934 0.0
N716 N 0.02017 0.50366 0.05297 0.0
C717 C 0.05589 0.48629 0.10105 0.0
C718 C 0.04352 0.50964 0.12277 0.0
C719 C 0.02054 0.53099 0.10825 0.0
C720 C 0.00949 0.52777 0.07334 0.0
C721 C 0.04388 0.48368 0.06648 0.0
H722 H 0.99183 0.54464 0.06386 0.0
H723 H 0.05359 0.46483 0.05177 0.0
H724 H 0.01519 0.45523 0.9427 0.0
H725 H 0.94294 0.52374 0.96618 0.0
C726 C 0.94957 0.5556 0.01887 0.0
C727 C 0.95048 0.44574 0.058 0.0
C728 C 0.05165 0.54879 0.9552 0.0
C729 C 0.05196 0.43852 0.99326 0.0
H730 H 0.8967 0.48131 0.08555 0.0
H731 H 0.89582 0.54126 0.06463 0.0
H732 H 0.9641 0.61348 0.98108 0.0
H733 H 0.01915 0.60929 0.94579 0.0
H734 H 0.10929 0.51387 0.93767 0.0
H735 H 0.10925 0.45396 0.95675 0.0
H736 H 0.03391 0.37933 0.02277 0.0
H737 H 0.97863 0.38371 0.05791 0.0
H738 H 0.99358 0.44844 0.88467 0.0
H739 H 0.92054 0.51817 0.90838 0.0
H740 H 0.07368 0.46919 0.11149 0.0
H741 H 0.01062 0.54967 0.1242 0.0
C742 C 0.4952 0.58763 0.01799 0.0
C743 C 0.51195 0.61222 0.02361 0.0
C744 C 0.54199 0.60387 0.01326 0.0
C745 C 0.54209 0.57467 1.00225 0.0
N746 N 0.5137 0.56422 0.00403 0.0
Co747 Co 0.5036 0.52179 0.99461 0.0
N748 N 0.54833 0.50651 0.9907 0.0
C749 C 0.57267 0.52248 0.9958 0.0
C750 C 0.60065 0.50586 0.99107 0.0
C751 C 0.59375 0.47786 0.98148 0.0
C752 C 0.56186 0.47921 0.9805 0.0
N753 N 0.49345 0.47971 0.98374 0.0
C754 C 0.51229 0.45584 0.97136 0.0
C755 C 0.49553 0.43228 0.96226 0.0
C756 C 0.46512 0.44169 0.96873 0.0
C757 C 0.46493 0.47045 0.98099 0.0
N758 N 0.45886 0.53675 1.00038 0.0
C759 C 0.43431 0.52066 0.99663 0.0
C760 C 0.40645 0.53657 0.00455 0.0
C761 C 0.4137 0.56401 0.01546 0.0
C762 C 0.44568 0.56309 0.01369 0.0
N763 N 0.50476 0.53411 0.93957 0.0
C764 C 0.51034 0.5373 0.86068 0.0
C765 C 0.48207 0.53283 0.88 0.0
C766 C 0.47978 0.53139 0.91911 0.0
C767 C 0.53512 0.54285 0.88113 0.0
C768 C 0.53164 0.54183 0.92028 0.0
N769 N 0.50252 0.50927 0.0493 0.0
C770 C 0.47725 0.48543 0.10548 0.0
C771 C 0.49755 0.49734 0.12767 0.0
C772 C 0.52089 0.51433 0.11034 0.0
C773 C 0.52308 0.51982 0.07137 0.0
C774 C 0.48018 0.4916 0.06639 0.0
H775 H 0.5412 0.53326 0.05979 0.0
H776 H 0.46382 0.4824 0.0506 0.0
H777 H 0.45784 0.52674 0.93196 0.0
H778 H 0.55139 0.54625 0.93429 0.0
C779 C 0.56857 0.55422 0.99938 0.0
C780 C 0.46245 0.58591 0.02923 0.0
C781 C 0.54581 0.45572 0.96522 0.0
C782 C 0.43843 0.49018 0.98734 0.0
H783 H 0.50401 0.63332 0.03587 0.0
H784 H 0.56176 0.61646 0.01668 0.0
H785 H 0.62337 0.51377 0.9922 0.0
H786 H 0.61035 0.45919 0.97392 0.0
H787 H 0.5041 0.41098 0.95075 0.0
H788 H 0.44544 0.42961 0.96341 0.0
H789 H 0.38367 0.52862 0.00405 0.0
H790 H 0.39743 0.58203 0.02549 0.0
H791 H 0.46213 0.5287 0.86521 0.0
H792 H 0.55727 0.54724 0.86706 0.0
H793 H 0.45895 0.47199 0.11823 0.0
H794 H 0.53713 0.52371 0.1269 0.0
C795 C 0.93796 0.51628 0.45803 0.0
C796 C 0.91655 0.50361 0.43827 0.0
C797 C 0.91951 0.47252 0.44774 0.0
C798 C 0.9427 0.46787 0.47221 0.0
N799 N 0.95482 0.4941 0.47909 0.0
Co800 Co 0.99096 0.49726 0.51024 0.0
N801 N 0.99555 0.45134 0.52361 0.0
C802 C 0.97689 0.43054 0.51407 0.0
C803 C 0.98347 0.40122 0.53049 0.0
C804 C 0.00788 0.40326 0.55175 0.0
C805 C 0.01531 0.43378 0.54646 0.0
N806 N 0.02767 0.50032 0.54051 0.0
C807 C 0.04664 0.47778 0.55812 0.0
C808 C 0.07162 0.48998 0.57187 0.0
C809 C 0.06766 0.52122 0.56403 0.0
C810 C 0.04101 0.5264 0.54531 0.0
N811 N 0.98586 0.54328 0.4977 0.0
C812 C 0.00276 0.56444 0.50994 0.0
C813 C 0.99304 0.59438 0.49829 0.0
C814 C 0.9685 0.59233 0.47721 0.0
C815 C 0.96485 0.56105 0.47683 0.0
N816 N 0.96286 0.50153 0.55547 0.0
C817 C 0.92837 0.50199 0.62444 0.0
C818 C 0.95162 0.52195 0.61541 0.0
C819 C 0.96833 0.52142 0.58104 0.0
C820 C 0.92118 0.48337 0.59729 0.0
C821 C 0.93844 0.48372 0.56305 0.0
N822 N 0.01902 0.493 0.46506 0.0
C823 C 0.05818 0.51314 0.42093 0.0
C824 C 0.0533 0.4917 0.39593 0.0
C825 C 0.03265 0.46941 0.40754 0.0
C826 C 0.01622 0.47024 0.44214 0.0
C827 C 0.04079 0.5135 0.45495 0.0
H828 H 1.00059 0.4529 0.44913 0.0
H829 H 0.04476 0.53118 0.472 0.0
H830 H 0.98629 0.5365 0.57645 0.0
H831 H 0.93212 0.46873 0.54371 0.0
C832 C 0.95332 0.43922 0.48963 0.0
C833 C 0.94131 0.54946 0.45589 0.0
C834 C 0.04166 0.44479 0.56314 0.0
C835 C 0.02826 0.55544 0.53131 0.0
H836 H 0.90044 0.5155 0.41887 0.0
H837 H 0.90639 0.45532 0.43784 0.0
H838 H 0.97173 0.38082 0.52761 0.0
H839 H 0.01881 0.38427 0.56923 0.0
H840 H 0.09092 0.47775 0.58599 0.0
H841 H 0.08265 0.53813 0.57074 0.0
H842 H 0.00277 0.61522 0.50425 0.0
H843 H 0.95493 0.61174 0.46355 0.0
H844 H 0.95829 0.53665 0.63562 0.0
H845 H 0.90302 0.46787 0.60289 0.0
H846 H 0.07451 0.53037 0.41378 0.0
H847 H 0.02776 0.45231 0.3893 0.0
C848 C 0.98891 0.97291 0.17335 0.0
C849 C 0.99351 0.9993 0.14801 0.0
C850 C 0.98883 0.97332 0.21341 0.0
C851 C 0.99369 0.00077 0.23014 0.0
C852 C 0.99847 0.02747 0.20461 0.0
C853 C 0.99818 0.02646 0.16466 0.0
C854 C 0.98336 0.94405 0.23803 0.0
C855 C 0.00409 0.05745 0.21956 0.0
C856 C 0.96638 0.00998 0.33595 0.0
C857 C 0.99336 0.00242 0.35611 0.0
C858 C 0.96615 0.00948 0.29593 0.0
C859 C 0.99365 0.00154 0.27379 0.0
C860 C 0.02104 0.99419 0.29396 0.0
C861 C 0.02055 0.99462 0.33405 0.0
C862 C 0.93608 0.01745 0.27723 0.0
C863 C 0.05123 0.98573 0.27302 0.0
H864 H 0.9851 0.95165 0.16175 0.0
H865 H 0.00192 0.04718 0.14622 0.0
H866 H 0.00338 0.93718 0.25554 0.0
H867 H 0.96284 0.94811 0.25746 0.0
H868 H 0.97968 0.92462 0.22145 0.0
H869 H 0.00805 0.07607 0.19674 0.0
H870 H 0.98399 0.06517 0.23794 0.0
H871 H 0.02447 0.05395 0.23703 0.0
H872 H 0.94508 0.01643 0.35165 0.0
H873 H 0.04174 0.98858 0.34833 0.0
H874 H 0.93068 0.99789 0.26189 0.0
H875 H 0.93813 0.03774 0.25623 0.0
H876 H 0.91655 0.02278 0.29769 0.0
H877 H 0.04939 0.96482 0.25833 0.0
H878 H 0.07069 0.98119 0.29193 0.0
H879 H 0.0566 0.0047 0.25124 0.0
C880 C 0.24767 0.7211 0.46491 0.0
C881 C 0.23165 0.72191 0.43225 0.0
C882 C 0.23182 0.72406 0.49969 0.0
C883 C 0.19909 0.72813 0.50174 0.0
C884 C 0.18271 0.72885 0.46882 0.0
C885 C 0.19926 0.72556 0.43436 0.0
C886 C 0.25026 0.72315 0.53421 0.0
C887 C 0.14791 0.73275 0.46983 0.0
C888 C 0.17669 0.70829 0.6025 0.0
C889 C 0.1805 0.73666 0.61614 0.0
C890 C 0.17797 0.70567 0.5638 0.0
C891 C 0.18287 0.73213 0.53875 0.0
C892 C 0.18064 0.76161 0.55242 0.0
C893 C 0.17965 0.76357 0.59127 0.0
C894 C 0.17889 0.67398 0.55016 0.0
C895 C 0.18393 0.79054 0.52625 0.0
H896 H 0.27268 0.71809 0.46319 0.0
H897 H 0.18689 0.72654 0.40889 0.0
H898 H 0.24554 0.74521 0.54732 0.0
H899 H 0.24333 0.70429 0.55529 0.0
H900 H 0.27551 0.71942 0.52767 0.0
H901 H 0.13927 0.74018 0.44155 0.0
H902 H 0.13871 0.71032 0.47983 0.0
H903 H 0.13848 0.7498 0.4895 0.0
H904 H 0.17628 0.68759 0.62191 0.0
H905 H 0.18199 0.78568 0.6017 0.0
H906 H 0.20329 0.66515 0.54462 0.0
H907 H 0.16702 0.67488 0.52355 0.0
H908 H 0.16801 0.65738 0.57139 0.0
H909 H 0.20852 0.7917 0.51638 0.0
H910 H 0.17625 0.81172 0.54029 0.0
H911 H 0.1703 0.79016 0.50123 0.0
C912 C 0.589 0.96902 0.83596 0.0
C913 C 0.55839 0.97297 0.85048 0.0
C914 C 0.59569 0.96914 0.79705 0.0
C915 C 0.57118 0.9739 0.77247 0.0
C916 C 0.54026 0.97737 0.78718 0.0
C917 C 0.53429 0.97677 0.82596 0.0
C918 C 0.62885 0.9649 0.78226 0.0
C919 C 0.51339 0.98265 0.76192 0.0
C920 C 0.57383 0.00977 0.67279 0.0
C921 C 0.56766 0.98459 0.65383 0.0
C922 C 0.57839 0.00608 0.71138 0.0
C923 C 0.57709 0.97646 0.73117 0.0
C924 C 0.57459 0.95044 0.71136 0.0
C925 C 0.56962 0.95483 0.6729 0.0
C926 C 0.58121 0.03441 0.73152 0.0
C927 C 0.57376 0.91838 0.73138 0.0
H928 H 0.60763 0.96604 0.85499 0.0
H929 H 0.51065 0.98048 0.83705 0.0
H930 H 0.63157 0.94757 0.76136 0.0
H931 H 0.63586 0.98703 0.76772 0.0
H932 H 0.64476 0.95741 0.80508 0.0
H933 H 0.49076 0.98457 0.77803 0.0
H934 H 0.51546 0.0042 0.74304 0.0
H935 H 0.51358 0.96334 0.74393 0.0
H936 H 0.57328 0.03268 0.65795 0.0
H937 H 0.5649 0.93516 0.65861 0.0
H938 H 0.59896 0.02979 0.75267 0.0
H939 H 0.55886 0.04071 0.74667 0.0
H940 H 0.5872 0.05451 0.71173 0.0
H941 H 0.59075 0.9144 0.75349 0.0
H942 H 0.57856 0.90026 0.71158 0.0
H943 H 0.5505 0.91583 0.74526 0.0
C944 C 0.22996 0.27742 0.93434 0.0
C945 C 0.23789 0.25048 0.91638 0.0
C946 C 0.23242 0.27747 0.97313 0.0
C947 C 0.24352 0.25005 0.99426 0.0
C948 C 0.25006 0.2224 0.97663 0.0
C949 C 0.2471 0.22291 0.93777 0.0
C950 C 0.22375 0.30699 0.99143 0.0
C951 C 0.26102 0.19257 0.99864 0.0
C952 C 0.28402 0.26163 0.08169 0.0
C953 C 0.26127 0.25524 0.10995 0.0
C954 C 0.27871 0.25921 0.04395 0.0
C955 C 0.24971 0.25086 0.0344 0.0
C956 C 0.2266 0.24447 0.06306 0.0
C957 C 0.2328 0.24655 0.1006 0.0
C958 C 0.30402 0.26589 0.01424 0.0
C959 C 0.19529 0.23534 0.05486 0.0
H960 H 0.22234 0.29861 0.91784 0.0
H961 H 0.25331 0.20208 0.92387 0.0
H962 H 0.20662 0.30276 0.01527 0.0
H963 H 0.24442 0.31482 1.003 0.0
H964 H 0.21387 0.32585 0.97144 0.0
H965 H 0.2646 0.17293 0.98088 0.0
H966 H 0.28307 0.19532 0.01134 0.0
H967 H 0.24387 0.18685 0.02199 0.0
H968 H 0.30589 0.26865 0.08919 0.0
H969 H 0.21524 0.2416 0.12272 0.0
H970 H 0.29635 0.2862 0.9949 0.0
H971 H 0.30904 0.24594 0.9972 0.0
H972 H 0.32568 0.27067 0.02651 0.0
H973 H 0.18997 0.23986 0.02487 0.0
H974 H 0.17701 0.24797 0.07182 0.0
H975 H 0.19418 0.21028 0.06335 0.0
C976 C 0.99045 0.0231 0.66551 0.0
C977 C 0.99941 0.99588 0.64775 0.0
C978 C 0.9899 0.02408 0.70552 0.0
C979 C 0.99875 0.99726 0.72999 0.0
C980 C 0.00795 0.96974 0.71214 0.0
C981 C 0.00811 0.96938 0.67206 0.0
C982 C 0.97963 0.05415 0.72172 0.0
C983 C 0.01791 0.94034 0.73557 0.0
C984 C 0.02416 0.00618 0.83194 0.0
C985 C 0.99812 0.99925 0.85597 0.0
C986 C 0.0247 0.00553 0.79188 0.0
C987 C 0.9985 0.998 0.77367 0.0
C988 C 0.97208 0.99116 0.79778 0.0
C989 C 0.97224 0.99176 0.8378 0.0
C990 C 0.05371 0.01297 0.76886 0.0
C991 C 0.94326 0.98311 0.78118 0.0
H992 H 0.98356 0.04392 0.6479 0.0
H993 H 0.0154 0.9481 0.6596 0.0
H994 H 0.95962 0.05099 0.74207 0.0
H995 H 0.99847 0.06147 0.73735 0.0
H996 H 0.97301 0.07292 0.69971 0.0
H997 H 0.02454 0.92082 0.71819 0.0
H998 H 0.03785 0.94406 0.75186 0.0
H999 H 0.99892 0.9338 0.75611 0.0
H1000 H 0.04441 0.01231 0.84459 0.0
H1001 H 0.95184 0.98615 0.85511 0.0
H1002 H 0.04868 0.03331 0.74837 0.0
H1003 H 0.06217 0.99328 0.7525 0.0
H1004 H 0.07236 0.01796 0.78652 0.0
H1005 H 0.93498 0.00222 0.7605 0.0
H1006 H 0.92442 0.97873 0.80292 0.0
H1007 H 0.94846 0.96221 0.76585 0.0
C1008 C 0.74196 0.31095 0.42676 0.0
C1009 C 0.72135 0.31028 0.39849 0.0
C1010 C 0.73118 0.31663 0.46327 0.0
C1011 C 0.69903 0.32203 0.47153 0.0
C1012 C 0.67833 0.32409 0.44242 0.0
C1013 C 0.68973 0.31796 0.40618 0.0
C1014 C 0.75408 0.31454 0.49356 0.0
C1015 C 0.64398 0.33042 0.45 0.0
C1016 C 0.68009 0.28878 0.57016 0.0
C1017 C 0.68172 0.31452 0.59021 0.0
C1018 C 0.68291 0.2915 0.53091 0.0
C1019 C 0.68735 0.32071 0.51135 0.0
C1020 C 0.68555 0.34733 0.53118 0.0
C1021 C 0.68288 0.3439 0.57057 0.0
C1022 C 0.68442 0.26253 0.51075 0.0
C1023 C 0.68919 0.37898 0.51115 0.0
H1024 H 0.76646 0.30576 0.42068 0.0
H1025 H 0.67362 0.31741 0.38447 0.0
H1026 H 0.75024 0.33497 0.50989 0.0
H1027 H 0.75075 0.29374 0.5134 0.0
H1028 H 0.77835 0.31296 0.48188 0.0
H1029 H 0.63209 0.33813 0.42374 0.0
H1030 H 0.63424 0.30897 0.46288 0.0
H1031 H 0.63885 0.3483 0.47001 0.0
H1032 H 0.67937 0.26598 0.58511 0.0
H1033 H 0.68358 0.36394 0.58604 0.0
H1034 H 0.70852 0.25678 0.50007 0.0
H1035 H 0.66979 0.26615 0.48623 0.0
H1036 H 0.67686 0.24242 0.52946 0.0
H1037 H 0.71402 0.38152 0.50388 0.0
H1038 H 0.68027 0.39758 0.52903 0.0
H1039 H 0.67702 0.38217 0.48459 0.0
C1040 C 0.47247 0.05611 0.1816 0.0
C1041 C 0.44923 0.0541 0.15695 0.0
C1042 C 0.46602 0.05361 0.22045 0.0
C1043 C 0.4355 0.04939 0.23481 0.0
C1044 C 0.41136 0.05076 0.20997 0.0
C1045 C 0.41858 0.05279 0.17114 0.0
C1046 C 0.49247 0.05236 0.24602 0.0
C1047 C 0.37837 0.04757 0.22428 0.0
C1048 C 0.438 0.99659 0.32428 0.0
C1049 C 0.43748 0.01796 0.35106 0.0
C1050 C 0.4348 0.00652 0.28628 0.0
C1051 C 0.43037 0.03858 0.27503 0.0
C1052 C 0.42634 0.06002 0.30237 0.0
C1053 C 0.43028 0.04948 0.34015 0.0
C1054 C 0.439 0.98285 0.25792 0.0
C1055 C 0.42054 0.09428 0.29154 0.0
H1056 H 0.49621 0.05693 0.17072 0.0
H1057 H 0.40052 0.05168 0.15196 0.0
H1058 H 0.4868 0.06807 0.26843 0.0
H1059 H 0.49658 0.02856 0.25988 0.0
H1060 H 0.5142 0.05883 0.23052 0.0
H1061 H 0.3619 0.05668 0.20261 0.0
H1062 H 0.37502 0.02279 0.23191 0.0
H1063 H 0.37275 0.05989 0.24983 0.0
H1064 H 0.44264 0.97215 0.33275 0.0
H1065 H 0.42979 0.06624 0.36062 0.0
H1066 H 0.4611 0.98549 0.24119 0.0
H1067 H 0.42019 0.9865 0.23811 0.0
H1068 H 0.4394 0.9588 0.27148 0.0
H1069 H 0.4427 0.10394 0.28194 0.0
H1070 H 0.41046 0.10665 0.31569 0.0
H1071 H 0.40481 0.09892 0.26809 0.0
C1072 C 0.77239 0.72603 0.06609 0.0
C1073 C 0.74717 0.73865 0.08748 0.0
C1074 C 0.77054 0.72366 0.0275 0.0
C1075 C 0.74293 0.73456 0.00989 0.0
C1076 C 0.7176 0.74786 0.03126 0.0
C1077 C 0.71995 0.74954 0.06987 0.0
C1078 C 0.79793 0.7091 0.0057 0.0
C1079 C 0.68803 0.76036 0.01332 0.0
C1080 C 0.74611 0.7519 0.90375 0.0
C1081 C 0.7341 0.72577 0.89259 0.0
C1082 C 0.7492 0.75512 0.94187 0.0
C1083 C 0.74023 0.73145 0.96929 0.0
C1084 C 0.72816 0.70493 0.95797 0.0
C1085 C 0.72499 0.70255 0.91965 0.0
C1086 C 0.762 0.78382 0.95272 0.0
C1087 C 0.71863 0.6791 0.98634 0.0
H1088 H 0.7934 0.71747 0.07973 0.0
H1089 H 0.7006 0.75975 0.08627 0.0
H1090 H 0.79118 0.6887 0.99299 0.0
H1091 H 0.80575 0.72572 0.98234 0.0
H1092 H 0.81764 0.70165 0.02362 0.0
H1093 H 0.6709 0.77097 0.0336 0.0
H1094 H 0.69299 0.77801 0.98972 0.0
H1095 H 0.67755 0.74149 1.00143 0.0
H1096 H 0.75307 0.76981 0.88255 0.0
H1097 H 0.71542 0.68254 0.91076 0.0
H1098 H 0.78423 0.7775 0.96613 0.0
H1099 H 0.74593 0.79502 0.97358 0.0
H1100 H 0.76598 0.80089 0.92812 0.0
H1101 H 0.73832 0.67012 1.0036 0.0
H1102 H 0.71059 0.65965 0.97282 0.0
H1103 H 0.69977 0.68796 0.00573 0.0
C1104 C 0.52425 0.51355 0.63967 0.0
C1105 C 0.50583 0.4895 0.636 0.0
C1106 C 0.52894 0.52265 0.67521 0.0
C1107 C 0.51438 0.50751 0.70751 0.0
C1108 C 0.49639 0.4826 0.70375 0.0
C1109 C 0.49232 0.47388 0.66788 0.0
C1110 C 0.54841 0.54921 0.6777 0.0
C1111 C 0.48067 0.46575 0.73751 0.0
C1112 C 0.5382 0.51322 0.80642 0.0
C1113 C 0.51423 0.53354 0.82 0.0
C1114 C 0.53942 0.50555 0.76919 0.0
C1115 C 0.5162 0.51865 0.74511 0.0
C1116 C 0.49306 0.5406 0.75808 0.0
C1117 C 0.49224 0.54765 0.79549 0.0
C1118 C 0.56465 0.48234 0.75619 0.0
C1119 C 0.46838 0.55562 0.7329 0.0
H1120 H 0.53454 0.52558 0.61465 0.0
H1121 H 0.47806 0.45531 0.66459 0.0
H1122 H 0.5332 0.57104 0.67743 0.0
H1123 H 0.56101 0.54655 0.70393 0.0
H1124 H 0.56547 0.5514 0.65339 0.0
H1125 H 0.46887 0.44589 0.72993 0.0
H1126 H 0.49778 0.4571 0.75855 0.0
H1127 H 0.46332 0.48191 0.75111 0.0
H1128 H 0.55508 0.50208 0.82545 0.0
H1129 H 0.4739 0.5636 0.80591 0.0
H1130 H 0.57562 0.49119 0.72889 0.0
H1131 H 0.55458 0.4606 0.75177 0.0
H1132 H 0.58275 0.47691 0.77687 0.0
H1133 H 0.47912 0.56623 0.70637 0.0
H1134 H 0.45329 0.57372 0.74648 0.0
H1135 H 0.45378 0.53784 0.72536 0.0
C1136 C 0.79055 0.18688 0.91319 0.0
C1137 C 0.78228 0.21776 0.90037 0.0
C1138 C 0.79269 0.17787 0.95174 0.0
C1139 C 0.78559 0.20019 0.97777 0.0
C1140 C 0.77851 0.23159 0.96475 0.0
C1141 C 0.77718 0.24 0.92617 0.0
C1142 C 0.8012 0.14437 0.96458 0.0
C1143 C 0.77055 0.25612 0.99161 0.0
C1144 C 0.74857 0.18389 0.07466 0.0
C1145 C 0.77186 0.19075 0.09697 0.0
C1146 C 0.75355 0.18422 0.03562 0.0
C1147 C 0.78274 0.19093 0.0187 0.0
C1148 C 0.80734 0.19424 0.04145 0.0
C1149 C 0.80155 0.19443 0.08037 0.0
C1150 C 0.72669 0.18047 0.01231 0.0
C1151 C 0.83904 0.20046 0.0245 0.0
H1152 H 0.79467 0.16972 0.89313 0.0
H1153 H 0.77038 0.2638 0.91631 0.0
H1154 H 0.81762 0.14227 0.98731 0.0
H1155 H 0.78019 0.13338 0.9761 0.0
H1156 H 0.81167 0.13135 0.94114 0.0
H1157 H 0.76662 0.27962 0.97679 0.0
H1158 H 0.74933 0.25085 0.009 0.0
H1159 H 0.78937 0.2563 0.01099 0.0
H1160 H 0.72584 0.18008 0.08745 0.0
H1161 H 0.81978 0.19975 0.09727 0.0
H1162 H 0.73367 0.16442 0.99057 0.0
H1163 H 0.71901 0.20319 0.99757 0.0
H1164 H 0.70678 0.17165 0.02975 0.0
H1165 H 0.84558 0.1862 1.00079 0.0
H1166 H 0.85686 0.1957 0.04563 0.0
H1167 H 0.83898 0.22509 0.01328 0.0
C1168 C 0.08292 0.50782 0.17104 0.0
C1169 C 0.05197 0.50961 0.16194 0.0
C1170 C 0.09071 0.50597 0.20868 0.0
C1171 C 0.06695 0.50504 0.23751 0.0
C1172 C 0.03566 0.50699 0.22825 0.0
C1173 C 0.02859 0.50952 0.19055 0.0
C1174 C 0.12421 0.50468 0.21759 0.0
C1175 C 0.00958 0.50574 0.25818 0.0
C1176 C 0.07281 0.46874 0.33654 0.0
C1177 C 0.06616 0.49488 0.35645 0.0
C1178 C 0.0764 0.4717 0.29724 0.0
C1179 C 0.07403 0.50154 0.27766 0.0
C1180 C 0.07164 0.52798 0.29781 0.0
C1181 C 0.06734 0.52438 0.33701 0.0
C1182 C 0.07903 0.44288 0.27677 0.0
C1183 C 0.07002 0.5602 0.27791 0.0
H1184 H 0.10094 0.50791 0.14871 0.0
H1185 H 0.00469 0.51044 0.18339 0.0
H1186 H 0.1275 0.52177 0.23765 0.0
H1187 H 0.13156 0.48149 0.23126 0.0
H1188 H 0.13949 0.50928 0.19199 0.0
H1189 H 0.98661 0.50692 0.24609 0.0
H1190 H 0.01265 0.48402 0.27696 0.0
H1191 H 0.00977 0.52527 0.27575 0.0
H1192 H 0.07306 0.44586 0.35145 0.0
H1193 H 0.06233 0.54485 0.35188 0.0
H1194 H 0.0958 0.44486 0.25223 0.0
H1195 H 0.05626 0.43978 0.2661 0.0
H1196 H 0.08619 0.42192 0.29542 0.0
H1197 H 0.07525 0.57755 0.29677 0.0
H1198 H 0.04639 0.56648 0.2682 0.0
H1199 H 0.08634 0.56148 0.25284 0.0
C1200 C 0.79674 0.78281 0.60229 0.0
C1201 C 0.77254 0.77268 0.62661 0.0
C1202 C 0.79529 0.78308 0.5632 0.0
C1203 C 0.76865 0.7737 0.54829 0.0
C1204 C 0.74387 0.76405 0.57292 0.0
C1205 C 0.74621 0.7635 0.61184 0.0
C1206 C 0.82234 0.79305 0.5379 0.0
C1207 C 0.71491 0.75424 0.55819 0.0
C1208 C 0.75222 0.79947 0.44643 0.0
C1209 C 0.76065 0.77224 0.42931 0.0
C1210 C 0.75481 0.80035 0.48519 0.0
C1211 C 0.76678 0.77355 0.50698 0.0
C1212 C 0.77619 0.74628 0.48944 0.0
C1213 C 0.77267 0.74586 0.45085 0.0
C1214 C 0.74401 0.82966 0.503 0.0
C1215 C 0.78968 0.71745 0.51149 0.0
H1216 H 0.81685 0.79034 0.61394 0.0
H1217 H 0.72747 0.75584 0.63088 0.0
H1218 H 0.83125 0.77416 0.52051 0.0
H1219 H 0.81488 0.81328 0.51836 0.0
H1220 H 0.84147 0.79928 0.55399 0.0
H1221 H 0.69737 0.74842 0.58108 0.0
H1222 H 0.70462 0.77302 0.53846 0.0
H1223 H 0.72063 0.73373 0.54229 0.0
H1224 H 0.74278 0.81977 0.42964 0.0
H1225 H 0.77942 0.7249 0.43737 0.0
H1226 H 0.76306 0.83761 0.51769 0.0
H1227 H 0.72502 0.8251 0.52442 0.0
H1228 H 0.73566 0.84858 0.48207 0.0
H1229 H 0.80948 0.72287 0.52696 0.0
H1230 H 0.79765 0.69884 0.4932 0.0
H1231 H 0.77214 0.70859 0.53267 0.0
C1232 C 0.47983 0.51712 0.18851 0.0
C1233 C 0.49432 0.49318 0.16888 0.0
C1234 C 0.48081 0.51591 0.22767 0.0
C1235 C 0.49704 0.49032 0.2473 0.0
C1236 C 0.51048 0.46541 0.22759 0.0
C1237 C 0.50898 0.46718 0.1884 0.0
C1238 C 0.46602 0.54284 0.24765 0.0
C1239 C 0.52792 0.43775 0.24756 0.0
C1240 C 0.53281 0.50713 0.33602 0.0
C1241 C 0.51194 0.49535 0.36382 0.0
C1242 C 0.52849 0.50504 0.29795 0.0
C1243 C 0.5025 0.4911 0.28768 0.0
C1244 C 0.48148 0.47892 0.31589 0.0
C1245 C 0.48647 0.48125 0.35377 0.0
C1246 C 0.55147 0.5182 0.26869 0.0
C1247 C 0.45344 0.46409 0.30605 0.0
H1248 H 0.46874 0.5373 0.17301 0.0
H1249 H 0.52038 0.44889 0.17282 0.0
H1250 H 0.45257 0.5346 0.27347 0.0
H1251 H 0.48426 0.5564 0.2563 0.0
H1252 H 0.45047 0.55844 0.22945 0.0
H1253 H 0.53428 0.41906 0.22887 0.0
H1254 H 0.54937 0.44491 0.25799 0.0
H1255 H 0.51394 0.42836 0.27234 0.0
H1256 H 0.55229 0.51827 0.34415 0.0
H1257 H 0.47032 0.47236 0.37563 0.0
H1258 H 0.53982 0.53731 0.25061 0.0
H1259 H 0.56085 0.5002 0.25024 0.0
H1260 H 0.57102 0.5272 0.28144 0.0
H1261 H 0.43783 0.48153 0.29028 0.0
H1262 H 0.44039 0.45418 0.33138 0.0
H1263 H 0.46037 0.44545 0.28752 0.0
C1264 C 0.28331 0.778 0.06988 0.0
C1265 C 0.30585 0.77167 0.09632 0.0
C1266 C 0.29104 0.77689 0.03156 0.0
C1267 C 0.32218 0.76955 0.01941 0.0
C1268 C 0.34535 0.76478 0.04576 0.0
C1269 C 0.33687 0.76578 0.0841 0.0
C1270 C 0.26558 0.78222 0.00429 0.0
C1271 C 0.37881 0.75775 0.03353 0.0
C1272 C 0.32241 0.73275 0.92919 0.0
C1273 C 0.32228 0.75896 0.90325 0.0
C1274 C 0.32587 0.73522 0.96733 0.0
C1275 C 0.32942 0.76457 0.97942 0.0
C1276 C 0.33328 0.79021 0.95267 0.0
C1277 C 0.32948 0.78713 0.91473 0.0
C1278 C 0.32194 0.70723 0.99504 0.0
C1279 C 0.33789 0.82168 0.96437 0.0
H1280 H 0.25941 0.78307 0.07933 0.0
H1281 H 0.35432 0.7607 0.10461 0.0
H1282 H 0.27086 0.80088 0.98209 0.0
H1283 H 0.26389 0.76092 0.99026 0.0
H1284 H 0.24276 0.78867 0.0183 0.0
H1285 H 0.39405 0.75508 0.05755 0.0
H1286 H 0.38166 0.7362 0.01918 0.0
H1287 H 0.38653 0.77657 0.01293 0.0
H1288 H 0.31686 0.71094 0.92034 0.0
H1289 H 0.32992 0.80729 0.89445 0.0
H1290 H 0.29875 0.70963 0.00973 0.0
H1291 H 0.33928 0.70535 0.01666 0.0
H1292 H 0.32405 0.68549 0.98101 0.0
H1293 H 0.31525 0.83305 0.97361 0.0
H1294 H 0.34795 0.83673 0.94073 0.0
H1295 H 0.35313 0.81984 0.98827 0.0
C1296 C 0.96458 0.48265 0.82257 0.0
C1297 C 0.94373 0.48173 0.85394 0.0
C1298 C 0.95427 0.48428 0.78625 0.0
C1299 C 0.92224 0.48481 0.78116 0.0
C1300 C 0.90106 0.4828 0.81275 0.0
C1301 C 0.91207 0.48157 0.84891 0.0
C1302 C 0.97771 0.48643 0.75327 0.0
C1303 C 0.86683 0.48288 0.80844 0.0
C1304 C 0.90951 0.52322 0.68472 0.0
C1305 C 0.91545 0.49772 0.66366 0.0
C1306 C 0.90767 0.51922 0.72403 0.0
C1307 C 0.91162 0.48899 0.74237 0.0
C1308 C 0.91287 0.46314 0.72127 0.0
C1309 C 0.91495 0.4678 0.68196 0.0
C1310 C 0.90565 0.54741 0.74558 0.0
C1311 C 0.91604 0.43054 0.73994 0.0
H1312 H 0.989 0.48325 0.82636 0.0
H1313 H 0.89594 0.48067 0.87324 0.0
H1314 H 0.97596 0.46736 0.73543 0.0
H1315 H 0.97299 0.50852 0.73561 0.0
H1316 H 0.00176 0.48525 0.76223 0.0
H1317 H 0.85452 0.47448 0.83509 0.0
H1318 H 0.85716 0.50679 0.8001 0.0
H1319 H 0.86211 0.46831 0.78612 0.0
H1320 H 0.90898 0.54639 0.67053 0.0
H1321 H 0.91929 0.44793 0.66588 0.0
H1322 H 0.92895 0.55087 0.75443 0.0
H1323 H 0.89028 0.54435 0.77132 0.0
H1324 H 0.89702 0.5686 0.72827 0.0
H1325 H 0.9404 0.42438 0.74695 0.0
H1326 H 0.90955 0.41365 0.72119 0.0
H1327 H 0.90149 0.42844 0.76649 0.0
C1328 C 0.22087 0.23089 0.40933 0.0
C1329 C 0.2416 0.23668 0.37861 0.0
C1330 C 0.22872 0.23496 0.44576 0.0
C1331 C 0.25815 0.24464 0.45138 0.0
C1332 C 0.27911 0.25065 0.42022 0.0
C1333 C 0.27048 0.24665 0.38408 0.0
C1334 C 0.20575 0.22834 0.47831 0.0
C1335 C 0.31067 0.26095 0.42504 0.0
C1336 C 0.26477 0.27492 0.54591 0.0
C1337 C 0.27592 0.24801 0.56727 0.0
C1338 C 0.26033 0.27467 0.50747 0.0
C1339 C 0.26728 0.24688 0.49018 0.0
C1340 C 0.28042 0.22024 0.5111 0.0
C1341 C 0.28453 0.22112 0.54943 0.0
C1342 C 0.24649 0.30359 0.48595 0.0
C1343 C 0.28866 0.19032 0.49347 0.0
H1344 H 0.19868 0.22288 0.40482 0.0
H1345 H 0.28639 0.25103 0.36003 0.0
H1346 H 0.21535 0.20884 0.49757 0.0
H1347 H 0.20136 0.24876 0.49464 0.0
H1348 H 0.18341 0.22233 0.46895 0.0
H1349 H 0.32508 0.26215 0.39829 0.0
H1350 H 0.30825 0.28413 0.43566 0.0
H1351 H 0.32299 0.24488 0.44616 0.0
H1352 H 0.25791 0.2957 0.55968 0.0
H1353 H 0.29359 0.20042 0.56581 0.0
H1354 H 0.22281 0.29999 0.47859 0.0
H1355 H 0.2602 0.3087 0.45924 0.0
H1356 H 0.24524 0.32399 0.5024 0.0
H1357 H 0.26729 0.18087 0.48604 0.0
H1358 H 0.3013 0.17265 0.5126 0.0
H1359 H 0.30309 0.19444 0.4671 0.0
C1360 C 0.107 0.10369 0.02916 0.0
C1361 C 0.07557 0.10036 0.03783 0.0
C1362 C 0.12372 0.12063 0.05091 0.0
C1363 C 0.10863 0.13431 0.08211 0.0
C1364 C 0.07664 0.13215 0.08997 0.0
C1365 C 0.0605 0.1152 0.06773 0.0
C1366 C 0.15779 0.12275 0.04153 0.0
C1367 C 0.05976 0.14643 0.12301 0.0
C1368 C 0.15624 0.14468 0.16412 0.0
C1369 C 0.16022 0.17635 0.15874 0.0
C1370 C 0.13957 0.13072 0.13924 0.0
C1371 C 0.12663 0.14889 0.10823 0.0
C1372 C 0.13035 0.18091 0.10278 0.0
C1373 C 0.14703 0.19427 0.1282 0.0
C1374 C 0.13577 0.09651 0.14616 0.0
C1375 C 0.11705 0.20096 0.06989 0.0
H1376 H 0.11864 0.09245 0.00588 0.0
H1377 H 0.03634 0.11229 0.07498 0.0
H1378 H 0.16347 0.14714 0.0399 0.0
H1379 H 0.17118 0.10971 0.06417 0.0
H1380 H 0.16543 0.11324 0.0145 0.0
H1381 H 0.03445 0.14473 0.12348 0.0
H1382 H 0.06848 0.13456 0.14958 0.0
H1383 H 0.06412 0.17114 0.12233 0.0
H1384 H 0.16601 0.13081 0.18797 0.0
H1385 H 0.15029 0.2187 0.12372 0.0
H1386 H 0.14536 0.08462 0.12147 0.0
H1387 H 0.1109 0.09264 0.14991 0.0
H1388 H 0.14748 0.08565 0.17143 0.0
H1389 H 0.12813 0.19329 0.04325 0.0
H1390 H 0.12055 0.22577 0.07087 0.0
H1391 H 0.09197 0.19855 0.06927 0.0
C1392 C 0.12229 0.91189 0.42412 0.0
C1393 C 0.09885 0.89961 0.44842 0.0
C1394 C 0.14276 0.89291 0.40275 0.0
C1395 C 0.13916 0.8609 0.40439 0.0
C1396 C 0.11629 0.84808 0.42951 0.0
C1397 C 0.0967 0.86745 0.45152 0.0
C1398 C 0.16799 0.90723 0.37789 0.0
C1399 C 0.11227 0.81392 0.43266 0.0
C1400 C 0.16928 0.82482 0.31535 0.0
C1401 C 0.19688 0.80861 0.32648 0.0
C1402 C 0.14957 0.84054 0.34107 0.0
C1403 C 0.1584 0.84129 0.37839 0.0
C1404 C 0.18628 0.82474 0.38978 0.0
C1405 C 0.205 0.80841 0.36374 0.0
C1406 C 0.11951 0.85679 0.32809 0.0
C1407 C 0.19764 0.82523 0.42862 0.0
H1408 H 0.12425 0.93658 0.42076 0.0
H1409 H 0.0795 0.8573 0.4709 0.0
H1410 H 0.19057 0.89407 0.3831 0.0
H1411 H 0.1635 0.90613 0.34794 0.0
H1412 H 0.16973 0.93177 0.38264 0.0
H1413 H 0.09366 0.80735 0.45381 0.0
H1414 H 0.10677 0.80706 0.40498 0.0
H1415 H 0.13418 0.80064 0.4406 0.0
H1416 H 0.16332 0.82558 0.28633 0.0
H1417 H 0.22654 0.7961 0.37229 0.0
H1418 H 0.12033 0.88216 0.32752 0.0
H1419 H 0.10015 0.85015 0.34805 0.0
H1420 H 0.11453 0.85126 0.29959 0.0
H1421 H 0.2151 0.84236 0.42744 0.0
H1422 H 0.20912 0.80231 0.43838 0.0
H1423 H 0.17901 0.83166 0.44963 0.0
C1424 C 0.31221 0.84224 0.65332 0.0
C1425 C 0.32259 0.81972 0.68165 0.0
C1426 C 0.33218 0.86296 0.63356 0.0
C1427 C 0.36431 0.86005 0.63992 0.0
C1428 C 0.37512 0.83643 0.66751 0.0
C1429 C 0.35416 0.81754 0.68866 0.0
C1430 C 0.31824 0.88797 0.60602 0.0
C1431 C 0.4089 0.83053 0.67513 0.0
C1432 C 0.41442 0.8996 0.55903 0.0
C1433 C 0.4278 0.92223 0.5765 0.0
C1434 C 0.39493 0.87869 0.57933 0.0
C1435 C 0.38635 0.88149 0.61799 0.0
C1436 C 0.39905 0.90507 0.63545 0.0
C1437 C 0.42023 0.92413 0.61503 0.0
C1438 C 0.38386 0.85363 0.5587 0.0
C1439 C 0.39042 0.9108 0.67579 0.0
H1440 H 0.28811 0.84405 0.64687 0.0
H1441 H 0.36273 0.80051 0.7105 0.0
H1442 H 0.33191 0.90841 0.60164 0.0
H1443 H 0.31682 0.8785 0.57864 0.0
H1444 H 0.29434 0.89573 0.61578 0.0
H1445 H 0.41503 0.80552 0.6828 0.0
H1446 H 0.42414 0.8383 0.65068 0.0
H1447 H 0.41363 0.84293 0.69944 0.0
H1448 H 0.41955 0.89787 0.52926 0.0
H1449 H 0.43049 0.94114 0.62928 0.0
H1450 H 0.36331 0.86311 0.54327 0.0
H1451 H 0.37768 0.83327 0.57784 0.0
H1452 H 0.40184 0.84575 0.53751 0.0
H1453 H 0.36747 0.90298 0.68551 0.0
H1454 H 0.39022 0.93578 0.67963 0.0
H1455 H 0.40805 0.89834 0.694 0.0
C1456 C 0.32926 0.16919 0.83663 0.0
C1457 C 0.34146 0.18321 0.80265 0.0
C1458 C 0.3479 0.14897 0.86034 0.0
C1459 C 0.3799 0.14404 0.85089 0.0
C1460 C 0.39256 0.1591 0.81729 0.0
C1461 C 0.37296 0.17755 0.79288 0.0
C1462 C 0.3331 0.13206 0.89472 0.0
C1463 C 0.42675 0.15569 0.80696 0.0
C1464 C 0.42973 0.11175 0.93144 0.0
C1465 C 0.43787 0.0814 0.92254 0.0
C1466 C 0.41183 0.13272 0.90766 0.0
C1467 C 0.39995 0.12245 0.87562 0.0
C1468 C 0.40718 0.09147 0.86726 0.0
C1469 C 0.42696 0.07168 0.89006 0.0
C1470 C 0.40619 0.16597 0.91643 0.0
C1471 C 0.39372 0.07904 0.83457 0.0
H1472 H 0.3048 0.1733 0.84401 0.0
H1473 H 0.38228 0.18746 0.76606 0.0
H1474 H 0.33817 0.10675 0.89377 0.0
H1475 H 0.34284 0.13829 0.9205 0.0
H1476 H 0.30766 0.13738 0.89702 0.0
H1477 H 0.43341 0.17269 0.78333 0.0
H1478 H 0.44011 0.15875 0.83151 0.0
H1479 H 0.43351 0.13215 0.79854 0.0
H1480 H 0.43802 0.11929 0.95664 0.0
H1481 H 0.43347 0.04832 0.88291 0.0
H1482 H 0.38131 0.17166 0.9234 0.0
H1483 H 0.4128 0.1816 0.8914 0.0
H1484 H 0.41941 0.17083 0.94037 0.0
H1485 H 0.36836 0.08475 0.83521 0.0
H1486 H 0.39852 0.05359 0.83477 0.0
H1487 H 0.40354 0.08997 0.80773 0.0
C1488 C 0.88116 0.89358 0.9885 0.0
C1489 C 0.91254 0.89515 0.9777 0.0
C1490 C 0.86271 0.87579 0.97001 0.0
C1491 C 0.87602 0.85932 0.94005 0.0
C1492 C 0.90806 0.85925 0.93067 0.0
C1493 C 0.92591 0.8772 0.94956 0.0
C1494 C 0.82867 0.87611 0.98105 0.0
C1495 C 0.92314 0.8419 0.89894 0.0
C1496 C 0.83484 0.79978 0.89672 0.0
C1497 C 0.82402 0.81706 0.86437 0.0
C1498 C 0.85071 0.8135 0.92265 0.0
C1499 C 0.85619 0.84508 0.91564 0.0
C1500 C 0.84453 0.8628 0.88352 0.0
C1501 C 0.82846 0.84857 0.85833 0.0
C1502 C 0.86236 0.79401 0.95687 0.0
C1503 C 0.84994 0.89656 0.87505 0.0
H1504 H 0.8708 0.90705 0.01061 0.0
H1505 H 0.95004 0.87857 0.94066 0.0
H1506 H 0.81537 0.88997 0.9589 0.0
H1507 H 0.82109 0.85236 0.98346 0.0
H1508 H 0.8228 0.88627 0.0081 0.0
H1509 H 0.9487 0.84168 0.89769 0.0
H1510 H 0.91682 0.81768 0.90202 0.0
H1511 H 0.91474 0.85289 0.87179 0.0
H1512 H 0.83086 0.7755 0.90171 0.0
H1513 H 0.82018 0.86189 0.83324 0.0
H1514 H 0.85603 0.80591 0.98258 0.0
H1515 H 0.88792 0.79059 0.95424 0.0
H1516 H 0.85303 0.77097 0.96049 0.0
H1517 H 0.84184 0.90949 0.89948 0.0
H1518 H 0.83793 0.90741 0.85 0.0
H1519 H 0.87503 0.89902 0.86997 0.0
C1520 C 0.82965 0.19087 0.67399 0.0
C1521 C 0.80075 0.20362 0.66249 0.0
C1522 C 0.84882 0.17178 0.6513 0.0
C1523 C 0.83843 0.16461 0.61674 0.0
C1524 C 0.8092 0.17753 0.60501 0.0
C1525 C 0.79086 0.19721 0.62784 0.0
C1526 C 0.88005 0.15904 0.66451 0.0
C1527 C 0.79695 0.16994 0.56884 0.0
C1528 C 0.89808 0.13262 0.54492 0.0
C1529 C 0.89695 0.10053 0.55315 0.0
C1530 C 0.87905 0.15375 0.56513 0.0
C1531 C 0.85773 0.14268 0.59368 0.0
C1532 C 0.85561 0.11046 0.60123 0.0
C1533 C 0.87545 0.08985 0.58132 0.0
C1534 C 0.88234 0.18792 0.55659 0.0
C1535 C 0.83281 0.09767 0.631 0.0
H1536 H 0.83718 0.1958 0.70087 0.0
H1537 H 0.76847 0.20715 0.61904 0.0
H1538 H 0.88084 0.1335 0.66959 0.0
H1539 H 0.89831 0.16458 0.64246 0.0
H1540 H 0.8855 0.16843 0.6908 0.0
H1541 H 0.77404 0.18234 0.5634 0.0
H1542 H 0.8133 0.176 0.5448 0.0
H1543 H 0.79481 0.1447 0.56999 0.0
H1544 H 0.91404 0.14136 0.52283 0.0
H1545 H 0.87458 0.06526 0.58873 0.0
H1546 H 0.88933 0.19757 0.58197 0.0
H1547 H 0.85986 0.20022 0.5491 0.0
H1548 H 0.89971 0.19286 0.53319 0.0
H1549 H 0.83898 0.10296 0.65909 0.0
H1550 H 0.83223 0.07225 0.63132 0.0
H1551 H 0.80927 0.1088 0.62632 0.0
C1552 C 0.64967 0.1651 0.30686 0.0
C1553 C 0.67658 0.1732 0.32189 0.0
C1554 C 0.62839 0.14672 0.32825 0.0
C1555 C 0.63556 0.13225 0.36451 0.0
C1556 C 0.66382 0.13883 0.37887 0.0
C1557 C 0.68261 0.1604 0.35861 0.0
C1558 C 0.59813 0.14362 0.31127 0.0
C1559 C 0.67523 0.12308 0.41543 0.0
C1560 C 0.58107 0.09637 0.4438 0.0
C1561 C 0.57315 0.06933 0.42964 0.0
C1562 C 0.59939 0.11771 0.4223 0.0
C1563 C 0.61392 0.11052 0.38701 0.0
C1564 C 0.60746 0.08217 0.37361 0.0
C1565 C 0.58596 0.0633 0.39374 0.0
C1566 C 0.60235 0.14807 0.43805 0.0
C1567 C 0.62326 0.07074 0.33827 0.0
H1568 H 0.64465 0.17375 0.2783 0.0
H1569 H 0.70277 0.16656 0.37146 0.0
H1570 H 0.602 0.12737 0.28917 0.0
H1571 H 0.58011 0.13547 0.33223 0.0
H1572 H 0.58924 0.16625 0.29723 0.0
H1573 H 0.70051 0.11689 0.41248 0.0
H1574 H 0.67143 0.13944 0.43741 0.0
H1575 H 0.66384 0.10175 0.42503 0.0
H1576 H 0.57227 0.10145 0.4717 0.0
H1577 H 0.57986 0.0431 0.38149 0.0
H1578 H 0.61045 0.16612 0.41663 0.0
H1579 H 0.61855 0.14429 0.46104 0.0
H1580 H 0.57972 0.15692 0.45068 0.0
H1581 H 0.60695 0.07446 0.31539 0.0
H1582 H 0.62953 0.04544 0.34263 0.0
H1583 H 0.64452 0.08222 0.3291 0.0
C1584 C 0.67094 0.86965 0.2103 0.0
C1585 C 0.67711 0.83839 0.20439 0.0
C1586 C 0.65133 0.88937 0.18716 0.0
C1587 C 0.63616 0.87709 0.15886 0.0
C1588 C 0.64141 0.84522 0.1538 0.0
C1589 C 0.66228 0.8264 0.17615 0.0
C1590 C 0.64719 0.92338 0.19267 0.0
C1591 C 0.62476 0.83093 0.12506 0.0
C1592 C 0.56425 0.92454 0.12402 0.0
C1593 C 0.57493 0.93725 0.08862 0.0
C1594 C 0.58365 0.90417 0.14669 0.0
C1595 C 0.61492 0.89763 0.13447 0.0
C1596 C 0.62595 0.91091 0.09901 0.0
C1597 C 0.60561 0.92995 0.07613 0.0
C1598 C 0.57062 0.8895 0.18358 0.0
C1599 C 0.65937 0.9055 0.08552 0.0
H1600 H 0.68175 0.87873 0.2328 0.0
H1601 H 0.66683 0.80211 0.17187 0.0
H1602 H 0.65254 0.93726 0.16574 0.0
H1603 H 0.62285 0.93004 0.20147 0.0
H1604 H 0.66224 0.92955 0.21419 0.0
H1605 H 0.63002 0.80546 0.12626 0.0
H1606 H 0.59946 0.83604 0.12964 0.0
H1607 H 0.63137 0.8411 0.09639 0.0
H1608 H 0.54056 0.93034 0.13376 0.0
H1609 H 0.61383 0.93972 0.04869 0.0
H1610 H 0.58194 0.89754 0.20724 0.0
H1611 H 0.57541 0.864 0.18501 0.0
H1612 H 0.54531 0.8951 0.18758 0.0
H1613 H 0.6745 0.91221 0.10658 0.0
H1614 H 0.66459 0.91882 0.05813 0.0
H1615 H 0.66531 0.8806 0.08244 0.0
C1616 C 0.61966 0.58484 0.55132 0.0
C1617 C 0.58817 0.58237 0.56046 0.0
C1618 C 0.63677 0.60281 0.57129 0.0
C1619 C 0.62198 0.6185 0.60113 0.0
C1620 C 0.5901 0.61644 0.61012 0.0
C1621 C 0.57358 0.59843 0.58962 0.0
C1622 C 0.67074 0.60456 0.56091 0.0
C1623 C 0.57362 0.63259 0.64202 0.0
C1624 C 0.67082 0.6384 0.67765 0.0
C1625 C 0.67374 0.66993 0.66767 0.0
C1626 C 0.65407 0.62137 0.65614 0.0
C1627 C 0.64006 0.63624 0.62383 0.0
C1628 C 0.64303 0.66804 0.61352 0.0
C1629 C 0.65982 0.68454 0.63565 0.0
C1630 C 0.65124 0.5875 0.66807 0.0
C1631 C 0.62841 0.6846 0.5792 0.0
H1632 H 0.63093 0.57268 0.52855 0.0
H1633 H 0.54935 0.59613 0.59724 0.0
H1634 H 0.67592 0.62903 0.55466 0.0
H1635 H 0.68443 0.59469 0.58499 0.0
H1636 H 0.67849 0.59186 0.53614 0.0
H1637 H 0.5484 0.63008 0.64394 0.0
H1638 H 0.58325 0.62284 0.66903 0.0
H1639 H 0.57729 0.65756 0.63849 0.0
H1640 H 0.68132 0.62715 0.70262 0.0
H1641 H 0.66239 0.70884 0.62764 0.0
H1642 H 0.66062 0.5734 0.64515 0.0
H1643 H 0.62658 0.58317 0.67349 0.0
H1644 H 0.66369 0.57941 0.69382 0.0
H1645 H 0.63695 0.67306 0.55384 0.0
H1646 H 0.63338 0.70927 0.57471 0.0
H1647 H 0.60303 0.68345 0.58209 0.0
C1648 C 0.5789 0.44711 0.90698 0.0
C1649 C 0.56339 0.43463 0.93968 0.0
C1650 C 0.59764 0.42807 0.88387 0.0
C1651 C 0.6002 0.39565 0.89314 0.0
C1652 C 0.58378 0.38287 0.92557 0.0
C1653 C 0.56612 0.4026 0.94893 0.0
C1654 C 0.61549 0.44276 0.85029 0.0
C1655 C 0.58507 0.34839 0.93577 0.0
C1656 C 0.63037 0.34586 0.81505 0.0
C1657 C 0.66064 0.33693 0.82519 0.0
C1658 C 0.61018 0.36437 0.83736 0.0
C1659 C 0.62096 0.37523 0.86972 0.0
C1660 C 0.65172 0.36667 0.87967 0.0
C1661 C 0.67096 0.34706 0.85774 0.0
C1662 C 0.57728 0.37212 0.82646 0.0
C1663 C 0.66448 0.37856 0.91318 0.0
H1664 H 0.57688 0.47196 0.90002 0.0
H1665 H 0.5546 0.39303 0.97461 0.0
H1666 H 0.64061 0.43741 0.85364 0.0
H1667 H 0.60996 0.43307 0.8243 0.0
H1668 H 0.61048 0.46827 0.8466 0.0
H1669 H 0.56869 0.34205 0.95975 0.0
H1670 H 0.57964 0.33655 0.91126 0.0
H1671 H 0.60872 0.33952 0.94341 0.0
H1672 H 0.62244 0.33804 0.78982 0.0
H1673 H 0.69433 0.33998 0.86566 0.0
H1674 H 0.57289 0.39741 0.81951 0.0
H1675 H 0.5611 0.36542 0.85047 0.0
H1676 H 0.57201 0.36025 0.80189 0.0
H1677 H 0.6615 0.4042 0.91078 0.0
H1678 H 0.68935 0.37107 0.91589 0.0
H1679 H 0.65156 0.37021 0.93933 0.0
C1680 C 0.82307 0.3516 0.18835 0.0
C1681 C 0.82412 0.32034 0.18148 0.0
C1682 C 0.84337 0.37199 0.16864 0.0
C1683 C 0.86565 0.36114 0.14117 0.0
C1684 C 0.86684 0.3295 0.13428 0.0
C1685 C 0.84619 0.30965 0.15436 0.0
C1686 C 0.84092 0.4053 0.17723 0.0
C1687 C 0.88996 0.31656 0.10553 0.0
C1688 C 0.90002 0.41988 0.06559 0.0
C1689 C 0.92876 0.42388 0.07931 0.0
C1690 C 0.87945 0.39973 0.08524 0.0
C1691 C 0.88755 0.3828 0.1197 0.0
C1692 C 0.91665 0.38677 0.13359 0.0
C1693 C 0.93672 0.40715 0.1134 0.0
C1694 C 0.84891 0.39658 0.06903 0.0
C1695 C 0.92661 0.36947 0.16998 0.0
H1696 H 0.80624 0.36012 0.2093 0.0
H1697 H 0.84721 0.28561 0.14873 0.0
H1698 H 0.86319 0.41108 0.18691 0.0
H1699 H 0.83607 0.42071 0.15136 0.0
H1700 H 0.82245 0.41031 0.19917 0.0
H1701 H 0.88823 0.29154 0.10349 0.0
H1702 H 0.88637 0.32919 0.0775 0.0
H1703 H 0.91371 0.3199 0.11286 0.0
H1704 H 0.89362 0.4326 0.0393 0.0
H1705 H 0.95877 0.41011 0.12436 0.0
H1706 H 0.82972 0.40314 0.08936 0.0
H1707 H 0.84705 0.37213 0.06407 0.0
H1708 H 0.84586 0.41124 0.04213 0.0
H1709 H 0.90985 0.37546 0.19331 0.0
H1710 H 0.94991 0.37475 0.17698 0.0
H1711 H 0.92681 0.34421 0.16819 0.0
C1712 C 0.93321 0.58946 0.40137 0.0
C1713 C 0.92076 0.57144 0.4322 0.0
C1714 C 0.91412 0.61013 0.37868 0.0
C1715 C 0.88174 0.61204 0.38637 0.0
C1716 C 0.86907 0.59366 0.41738 0.0
C1717 C 0.88881 0.57396 0.44032 0.0
C1718 C 0.9286 0.62994 0.34653 0.0
C1719 C 0.83465 0.59444 0.42596 0.0
C1720 C 0.83231 0.68282 0.34736 0.0
C1721 C 0.82234 0.67271 0.31462 0.0
C1722 C 0.85185 0.66342 0.37085 0.0
C1723 C 0.8611 0.63298 0.36169 0.0
C1724 C 0.85079 0.62261 0.32875 0.0
C1725 C 0.83196 0.64283 0.30523 0.0
C1726 C 0.86289 0.67563 0.40519 0.0
C1727 C 0.85956 0.59013 0.31843 0.0
H1728 H 0.95795 0.58741 0.39515 0.0
H1729 H 0.87928 0.56005 0.46431 0.0
H1730 H 0.92074 0.62409 0.31947 0.0
H1731 H 0.92115 0.65468 0.34905 0.0
H1732 H 0.95422 0.62687 0.34558 0.0
H1733 H 0.82848 0.57817 0.45059 0.0
H1734 H 0.82526 0.6181 0.43165 0.0
H1735 H 0.82316 0.58838 0.40124 0.0
H1736 H 0.82499 0.70609 0.35433 0.0
H1737 H 0.82463 0.63531 0.27951 0.0
H1738 H 0.88849 0.67417 0.40378 0.0
H1739 H 0.85546 0.66126 0.4309 0.0
H1740 H 0.85395 0.70001 0.40798 0.0
H1741 H 0.88494 0.58648 0.31328 0.0
H1742 H 0.84835 0.5852 0.29293 0.0
H1743 H 0.85291 0.57317 0.34207 0.0
C1744 C 0.3244 0.32749 0.36085 0.0
C1745 C 0.33847 0.31367 0.3297 0.0
C1746 C 0.34163 0.34262 0.38392 0.0
C1747 C 0.37362 0.34423 0.37529 0.0
C1748 C 0.38811 0.32966 0.34439 0.0
C1749 C 0.37032 0.31438 0.322 0.0
C1750 C 0.32546 0.35749 0.41695 0.0
C1751 C 0.42217 0.331 0.33434 0.0
C1752 C 0.40974 0.41233 0.40675 0.0
C1753 C 0.42464 0.3989 0.43864 0.0
C1754 C 0.39321 0.3947 0.3858 0.0
C1755 C 0.39148 0.36288 0.39712 0.0
C1756 C 0.40651 0.34912 0.42928 0.0
C1757 C 0.4231 0.36732 0.44961 0.0
C1758 C 0.37769 0.41014 0.35147 0.0
C1759 C 0.40499 0.31526 0.44218 0.0
H1760 H 0.29985 0.32634 0.36726 0.0
H1761 H 0.38117 0.30374 0.29785 0.0
H1762 H 0.33739 0.34943 0.44303 0.0
H1763 H 0.3263 0.38293 0.41241 0.0
H1764 H 0.30092 0.35227 0.42129 0.0
H1765 H 0.43021 0.31694 0.31083 0.0
H1766 H 0.42719 0.3553 0.32608 0.0
H1767 H 0.43572 0.32265 0.35907 0.0
H1768 H 0.41141 0.43664 0.39783 0.0
H1769 H 0.43458 0.35697 0.47434 0.0
H1770 H 0.35252 0.40765 0.35463 0.0
H1771 H 0.38678 0.39872 0.32623 0.0
H1772 H 0.3813 0.43513 0.34653 0.0
H1773 H 0.38059 0.31006 0.44802 0.0
H1774 H 0.4178 0.30817 0.46789 0.0
H1775 H 0.41474 0.301 0.41959 0.0
C1776 C 0.44378 0.63558 0.05726 0.0
C1777 C 0.4471 0.60323 0.0602 0.0
C1778 C 0.42855 0.65163 0.08618 0.0
C1779 C 0.41395 0.63494 0.11741 0.0
C1780 C 0.41631 0.60215 0.11967 0.0
C1781 C 0.43372 0.5868 0.09177 0.0
C1782 C 0.42797 0.68642 0.08225 0.0
C1783 C 0.40017 0.58292 0.15108 0.0
C1784 C 0.38715 0.66321 0.2124 0.0
C1785 C 0.35825 0.67846 0.2049 0.0
C1786 C 0.40641 0.65083 0.18366 0.0
C1787 C 0.39544 0.65144 0.14706 0.0
C1788 C 0.36588 0.66649 0.13958 0.0
C1789 C 0.34814 0.68052 0.16832 0.0
C1790 C 0.43827 0.63703 0.19338 0.0
C1791 C 0.35239 0.66782 0.10158 0.0
H1792 H 0.4528 0.64849 0.03217 0.0
H1793 H 0.43606 0.56173 0.09402 0.0
H1794 H 0.41089 0.69591 0.06157 0.0
H1795 H 0.422 0.69675 0.10912 0.0
H1796 H 0.45077 0.69375 0.07093 0.0
H1797 H 0.39581 0.56004 0.14233 0.0
H1798 H 0.4151 0.57867 0.17528 0.0
H1799 H 0.37781 0.59469 0.1606 0.0
H1800 H 0.39472 0.66063 0.24086 0.0
H1801 H 0.32576 0.69239 0.16243 0.0
H1802 H 0.45394 0.63315 0.16835 0.0
H1803 H 0.43633 0.61474 0.21077 0.0
H1804 H 0.44899 0.65244 0.21074 0.0
H1805 H 0.35856 0.68928 0.08462 0.0
H1806 H 0.32678 0.66877 0.10435 0.0
H1807 H 0.361 0.64774 0.08601 0.0
C1808 C 0.14785 0.67764 0.82718 0.0
C1809 C 0.17913 0.67569 0.83557 0.0
C1810 C 0.12675 0.6581 0.84693 0.0
C1811 C 0.13711 0.63468 0.87488 0.0
C1812 C 0.16879 0.63229 0.88304 0.0
C1813 C 0.189 0.65319 0.8642 0.0
C1814 C 0.09317 0.66279 0.83807 0.0
C1815 C 0.18156 0.60723 0.91135 0.0
C1816 C 0.08088 0.59745 0.95034 0.0
C1817 C 0.07354 0.57099 0.93441 0.0
C1818 C 0.10061 0.61862 0.93103 0.0
C1819 C 0.11499 0.61275 0.89539 0.0
C1820 C 0.10818 0.5857 0.87953 0.0
C1821 C 0.08709 0.56581 0.89859 0.0
C1822 C 0.10576 0.64758 0.94872 0.0
C1823 C 0.12358 0.57744 0.8425 0.0
H1824 H 0.13975 0.69478 0.8052 0.0
H1825 H 0.21288 0.6516 0.87154 0.0
H1826 H 0.08647 0.6424 0.82538 0.0
H1827 H 0.07849 0.66507 0.8643 0.0
H1828 H 0.08817 0.68366 0.8183 0.0
H1829 H 0.20702 0.60674 0.91238 0.0
H1830 H 0.17099 0.61077 0.93974 0.0
H1831 H 0.17564 0.58432 0.90437 0.0
H1832 H 0.07084 0.60182 0.97798 0.0
H1833 H 0.08146 0.54579 0.88557 0.0
H1834 H 0.10113 0.66819 0.92848 0.0
H1835 H 0.13017 0.647 0.95595 0.0
H1836 H 0.09078 0.65035 0.97466 0.0
H1837 H 0.11622 0.59507 0.81965 0.0
H1838 H 0.11794 0.55447 0.83535 0.0
H1839 H 0.14901 0.57728 0.84343 0.0
C1840 C 0.06941 0.42721 0.62201 0.0
C1841 C 0.06331 0.42244 0.5852 0.0
C1842 C 0.09101 0.40745 0.64222 0.0
C1843 C 0.10471 0.38044 0.62666 0.0
C1844 C 0.09719 0.37462 0.59016 0.0
C1845 C 0.07778 0.39641 0.56934 0.0
C1846 C 0.09899 0.41617 0.67998 0.0
C1847 C 0.1093 0.34558 0.57251 0.0
C1848 C 0.17975 0.33587 0.65651 0.0
C1849 C 0.17005 0.31827 0.68929 0.0
C1850 C 0.15906 0.35703 0.63676 0.0
C1851 C 0.12718 0.35872 0.6481 0.0
C1852 C 0.11706 0.33983 0.68032 0.0
C1853 C 0.13883 0.32108 0.70148 0.0
C1854 C 0.17198 0.37757 0.60418 0.0
C1855 C 0.08342 0.33909 0.69312 0.0
H1856 H 0.05794 0.44706 0.63468 0.0
H1857 H 0.07333 0.39266 0.54077 0.0
H1858 H 0.08128 0.40843 0.70163 0.0
H1859 H 0.12202 0.40582 0.68836 0.0
H1860 H 0.09862 0.44169 0.67977 0.0
H1861 H 0.09148 0.33777 0.5556 0.0
H1862 H 0.12936 0.35065 0.55294 0.0
H1863 H 0.11647 0.32631 0.59357 0.0
H1864 H 0.20392 0.33388 0.64698 0.0
H1865 H 0.13127 0.3083 0.72744 0.0
H1866 H 0.15707 0.39922 0.59794 0.0
H1867 H 0.17473 0.36472 0.5788 0.0
H1868 H 0.19527 0.38383 0.60993 0.0
H1869 H 0.07821 0.35405 0.71639 0.0
H1870 H 0.07839 0.3153 0.70437 0.0
H1871 H 0.06771 0.34698 0.67026 0.0
loop_
_geom_bond_atom_site_label_1
_geom_bond_atom_site_label_2
_geom_bond_distance
_geom_bond_site_symmetry_2
_ccdc_geom_bond_type
C0 C1 1.443 . S
C0 N4 1.376 . S
C0 C38 1.389 1_545 S
C1 C0 1.443 . S
C1 C2 1.340 . S
C1 H41 0.951 . S
C2 C1 1.340 . S
C2 C3 1.439 . S
C2 H42 0.950 . S
C3 C2 1.439 . S
C3 N4 1.374 . S
C3 C37 1.395 1_554 S
N4 C0 1.376 . S
N4 C3 1.374 . S
N4 Co5 2.008 1_655 S
Co5 N4 2.008 1_455 S
Co5 N6 1.995 1_454 S
Co5 N11 2.008 1_544 S
Co5 N16 1.995 1_545 S
Co5 N21 2.282 1_444 S
Co5 N27 2.282 . S
N6 Co5 1.995 1_656 S
N6 C7 1.376 . S
N6 C10 1.383 . S
C7 N6 1.376 . S
C7 C8 1.446 . S
C7 C37 1.391 . S
C8 C7 1.446 . S
C8 C9 1.339 . S
C8 H43 0.949 . S
C9 C8 1.339 . S
C9 C10 1.439 . S
C9 H44 0.950 . S
C10 N6 1.383 . S
C10 C9 1.439 . S
C10 C39 1.392 1_655 S
N11 Co5 2.008 1_566 S
N11 C12 1.376 . S
N11 C15 1.374 . S
C12 N11 1.376 . S
C12 C13 1.443 . S
C12 C39 1.389 1_565 S
C13 C12 1.443 . S
C13 C14 1.340 . S
C13 H45 0.951 . S
C14 C13 1.340 . S
C14 C15 1.439 . S
C14 H46 0.950 . S
C15 N11 1.374 . S
C15 C14 1.439 . S
C15 C40 1.395 1_556 S
N16 Co5 1.995 1_565 S
N16 C17 1.376 . S
N16 C20 1.383 . S
C17 N16 1.376 . S
C17 C18 1.446 . S
C17 C40 1.391 . S
C18 C17 1.446 . S
C18 C19 1.339 . S
C18 H47 0.949 . S
C19 C18 1.339 . S
C19 C20 1.439 . S
C19 H48 0.950 . S
C20 N16 1.383 . S
C20 C19 1.439 . S
C20 C38 1.392 1_455 S
N21 Co5 2.282 1_666 S
N21 C24 1.332 . S
N21 C26 1.332 . S
C22 C23 1.386 . S
C22 C25 1.388 . S
C23 C22 1.386 . S
C23 C24 1.382 . S
C23 H49 0.950 . S
C24 N21 1.332 . S
C24 C23 1.382 . S
C24 H35 0.952 . S
C25 C22 1.388 . S
C25 C26 1.382 . S
C25 H50 0.950 . S
C26 N21 1.332 . S
C26 C25 1.382 . S
C26 H36 0.914 1_565 S
N27 Co5 2.282 . S
N27 C31 1.332 . S
N27 C32 1.332 . S
C28 C29 1.388 . S
C28 C32 1.382 . S
C28 H51 0.950 . S
C29 C28 1.388 . S
C29 C30 1.386 . S
C30 C29 1.386 . S
C30 C31 1.382 . S
C30 H52 0.950 . S
C31 N27 1.332 . S
C31 C30 1.382 . S
C31 H33 0.952 . S
C32 N27 1.332 . S
C32 C28 1.382 . S
C32 H34 0.922 1_545 S
H33 C31 0.952 . S
H34 C32 0.922 1_565 S
H35 C24 0.952 . S
H36 C26 0.914 1_545 S
C37 C3 1.395 1_556 S
C37 C7 1.391 . S
C38 C0 1.389 1_565 S
C38 C20 1.392 1_655 S
C39 C10 1.392 1_455 S
C39 C12 1.389 1_545 S
C40 C15 1.395 1_554 S
C40 C17 1.391 . S
H41 C1 0.951 . S
H42 C2 0.950 . S
H43 C8 0.949 . S
H44 C9 0.950 . S
H45 C13 0.951 . S
H46 C14 0.950 . S
H47 C18 0.949 . S
H48 C19 0.950 . S
H49 C23 0.950 . S
H50 C25 0.950 . S
H51 C28 0.950 . S
H52 C30 0.950 . S
C53 C54 1.443 . S
C53 N57 1.376 . S
C53 C91 1.389 . S
C54 C53 1.443 . S
C54 C55 1.340 . S
C54 H94 0.951 . S
C55 C54 1.340 . S
C55 C56 1.439 . S
C55 H95 0.950 . S
C56 C55 1.439 . S
C56 N57 1.374 . S
C56 C90 1.395 . S
N57 C53 1.376 . S
N57 C56 1.374 . S
N57 Co58 2.008 . S
Co58 N57 2.008 . S
Co58 N59 1.995 . S
Co58 N64 2.008 . S
Co58 N69 1.995 . S
Co58 N74 2.282 . S
Co58 N80 2.282 . S
N59 Co58 1.995 . S
N59 C60 1.376 . S
N59 C63 1.383 . S
C60 N59 1.376 . S
C60 C61 1.446 . S
C60 C90 1.391 . S
C61 C60 1.446 . S
C61 C62 1.339 . S
C61 H96 0.949 . S
C62 C61 1.339 . S
C62 C63 1.439 . S
C62 H97 0.950 . S
C63 N59 1.383 . S
C63 C62 1.439 . S
C63 C92 1.392 . S
N64 Co58 2.008 . S
N64 C65 1.376 . S
N64 C68 1.374 . S
C65 N64 1.376 . S
C65 C66 1.443 . S
C65 C92 1.389 . S
C66 C65 1.443 . S
C66 C67 1.340 . S
C66 H98 0.951 . S
C67 C66 1.340 . S
C67 C68 1.439 . S
C67 H99 0.950 . S
C68 N64 1.374 . S
C68 C67 1.439 . S
C68 C93 1.395 . S
N69 Co58 1.995 . S
N69 C70 1.376 . S
N69 C73 1.383 . S
C70 N69 1.376 . S
C70 C71 1.446 . S
C70 C93 1.391 . S
C71 C70 1.446 . S
C71 C72 1.339 . S
C71 H100 0.949 . S
C72 C71 1.339 . S
C72 C73 1.439 . S
C72 H101 0.950 . S
C73 N69 1.383 . S
C73 C72 1.439 . S
C73 C91 1.392 . S
N74 Co58 2.282 . S
N74 C77 1.332 . S
N74 C79 1.332 . S
C75 C76 1.386 . S
C75 C78 1.388 . S
C76 C75 1.386 . S
C76 C77 1.382 . S
C76 H102 0.950 . S
C77 N74 1.332 . S
C77 C76 1.382 . S
C77 H88 0.952 . S
C78 C75 1.388 . S
C78 C79 1.382 . S
C78 H103 0.950 . S
C79 N74 1.332 . S
C79 C78 1.382 . S
C79 H89 0.948 . S
N80 Co58 2.282 . S
N80 C84 1.332 . S
N80 C85 1.332 . S
C81 C82 1.388 . S
C81 C85 1.382 . S
C81 H104 0.950 . S
C82 C81 1.388 . S
C82 C83 1.386 . S
C83 C82 1.386 . S
C83 C84 1.382 . S
C83 H105 0.950 . S
C84 N80 1.332 . S
C84 C83 1.382 . S
C84 H86 0.952 . S
C85 N80 1.332 . S
C85 C81 1.382 . S
C85 H87 0.948 . S
H86 C84 0.952 . S
H87 C85 0.948 . S
H88 C77 0.952 . S
H89 C79 0.948 . S
C90 C56 1.395 . S
C90 C60 1.391 . S
C91 C53 1.389 . S
C91 C73 1.392 . S
C92 C63 1.392 . S
C92 C65 1.389 . S
C93 C68 1.395 . S
C93 C70 1.391 . S
H94 C54 0.951 . S
H95 C55 0.950 . S
H96 C61 0.949 . S
H97 C62 0.950 . S
H98 C66 0.951 . S
H99 C67 0.950 . S
H100 C71 0.949 . S
H101 C72 0.950 . S
H102 C76 0.950 . S
H103 C78 0.950 . S
H104 C81 0.950 . S
H105 C83 0.950 . S
C106 C107 1.443 . S
C106 N110 1.376 1_565 S
C106 C144 1.389 . S
C107 C106 1.443 . S
C107 C108 1.340 1_565 S
C107 H147 0.951 . S
C108 C107 1.340 1_545 S
C108 C109 1.439 . S
C108 H148 0.950 . S
C109 C108 1.439 . S
C109 N110 1.374 . S
C109 C143 1.395 . S
N110 C106 1.376 1_545 S
N110 C109 1.374 . S
N110 Co111 2.008 . S
Co111 N110 2.008 . S
Co111 N112 1.995 . S
Co111 N117 2.008 1_545 S
Co111 N122 1.995 1_545 S
Co111 N127 2.282 1_545 S
Co111 N133 2.282 . S
N112 Co111 1.995 . S
N112 C113 1.376 . S
N112 C116 1.383 . S
C113 N112 1.376 . S
C113 C114 1.446 . S
C113 C143 1.391 . S
C114 C113 1.446 . S
C114 C115 1.339 . S
C114 H149 0.949 . S
C115 C114 1.339 . S
C115 C116 1.439 . S
C115 H150 0.950 . S
C116 N112 1.383 . S
C116 C115 1.439 . S
C116 C145 1.392 . S
N117 Co111 2.008 1_565 S
N117 C118 1.376 1_565 S
N117 C121 1.374 . S
C118 N117 1.376 1_545 S
C118 C119 1.443 . S
C118 C145 1.389 . S
C119 C118 1.443 . S
C119 C120 1.340 1_545 S
C119 H151 0.951 . S
C120 C119 1.340 1_565 S
C120 C121 1.439 . S
C120 H152 0.950 . S
C121 N117 1.374 . S
C121 C120 1.439 . S
C121 C146 1.395 . S
N122 Co111 1.995 1_565 S
N122 C123 1.376 . S
N122 C126 1.383 . S
C123 N122 1.376 . S
C123 C124 1.446 . S
C123 C146 1.391 . S
C124 C123 1.446 . S
C124 C125 1.339 . S
C124 H153 0.949 . S
C125 C124 1.339 . S
C125 C126 1.439 . S
C125 H154 0.950 . S
C126 N122 1.383 . S
C126 C125 1.439 . S
C126 C144 1.392 . S
N127 Co111 2.282 1_565 S
N127 C130 1.332 . S
N127 C132 1.332 1_565 S
C128 C129 1.386 . S
C128 C131 1.388 1_565 S
C129 C128 1.386 . S
C129 C130 1.382 . S
C129 H155 0.950 . S
C130 N127 1.332 . S
C130 C129 1.382 . S
C130 H141 0.952 . S
C131 C128 1.388 1_545 S
C131 C132 1.382 . S
C131 H156 0.950 . S
C132 N127 1.332 1_545 S
C132 C131 1.382 . S
C132 H142 0.948 . S
N133 Co111 2.282 . S
N133 C137 1.332 . S
N133 C138 1.332 1_545 S
C134 C135 1.388 1_565 S
C134 C138 1.382 . S
C134 H157 0.950 . S
C135 C134 1.388 1_545 S
C135 C136 1.386 . S
C136 C135 1.386 . S
C136 C137 1.382 . S
C136 H158 0.950 . S
C137 N133 1.332 . S
C137 C136 1.382 . S
C137 H139 0.952 . S
C138 N133 1.332 1_565 S
C138 C134 1.382 . S
C138 H140 0.948 . S
H139 C137 0.952 . S
H140 C138 0.948 . S
H141 C130 0.952 . S
H142 C132 0.948 . S
C143 C109 1.395 . S
C143 C113 1.391 . S
C144 C106 1.389 . S
C144 C126 1.392 . S
C145 C116 1.392 . S
C145 C118 1.389 . S
C146 C121 1.395 . S
C146 C123 1.391 . S
H147 C107 0.951 . S
H148 C108 0.950 . S
H149 C114 0.949 . S
H150 C115 0.950 . S
H151 C119 0.951 . S
H152 C120 0.950 . S
H153 C124 0.949 . S
H154 C125 0.950 . S
H155 C129 0.950 . S
H156 C131 0.950 . S
H157 C134 0.950 . S
H158 C136 0.950 . S
C159 C160 1.443 . S
C159 N163 1.376 . S
C159 C197 1.389 . S
C160 C159 1.443 . S
C160 C161 1.340 . S
C160 H200 0.951 . S
C161 C160 1.340 . S
C161 C162 1.439 . S
C161 H201 0.950 . S
C162 C161 1.439 . S
C162 N163 1.374 . S
C162 C196 1.395 . S
N163 C159 1.376 . S
N163 C162 1.374 . S
N163 Co164 2.008 . S
Co164 N163 2.008 . S
Co164 N165 1.995 . S
Co164 N170 2.008 . S
Co164 N175 1.995 . S
Co164 N180 2.282 . S
Co164 N186 2.282 . S
N165 Co164 1.995 . S
N165 C166 1.376 . S
N165 C169 1.383 . S
C166 N165 1.376 . S
C166 C167 1.446 . S
C166 C196 1.391 . S
C167 C166 1.446 . S
C167 C168 1.339 . S
C167 H202 0.949 . S
C168 C167 1.339 . S
C168 C169 1.439 . S
C168 H203 0.950 . S
C169 N165 1.383 . S
C169 C168 1.439 . S
C169 C198 1.392 . S
N170 Co164 2.008 . S
N170 C171 1.376 . S
N170 C174 1.374 . S
C171 N170 1.376 . S
C171 C172 1.443 . S
C171 C198 1.389 . S
C172 C171 1.443 . S
C172 C173 1.340 . S
C172 H204 0.951 . S
C173 C172 1.340 . S
C173 C174 1.439 . S
C173 H205 0.950 . S
C174 N170 1.374 . S
C174 C173 1.439 . S
C174 C199 1.395 . S
N175 Co164 1.995 . S
N175 C176 1.376 . S
N175 C179 1.383 . S
C176 N175 1.376 . S
C176 C177 1.446 . S
C176 C199 1.391 . S
C177 C176 1.446 . S
C177 C178 1.339 . S
C177 H206 0.949 . S
C178 C177 1.339 . S
C178 C179 1.439 . S
C178 H207 0.950 . S
C179 N175 1.383 . S
C179 C178 1.439 . S
C179 C197 1.392 . S
N180 Co164 2.282 . S
N180 C183 1.332 . S
N180 C185 1.332 . S
C181 C182 1.386 . S
C181 C184 1.388 . S
C182 C181 1.386 . S
C182 C183 1.382 . S
C182 H208 0.950 . S
C183 N180 1.332 . S
C183 C182 1.382 . S
C183 H194 0.952 . S
C184 C181 1.388 . S
C184 C185 1.382 . S
C184 H209 0.950 . S
C185 N180 1.332 . S
C185 C184 1.382 . S
C185 H195 0.948 . S
N186 Co164 2.282 . S
N186 C190 1.332 . S
N186 C191 1.332 . S
C187 C188 1.388 . S
C187 C191 1.382 . S
C187 H210 0.950 . S
C188 C187 1.388 . S
C188 C189 1.386 . S
C189 C188 1.386 . S
C189 C190 1.382 . S
C189 H211 0.950 . S
C190 N186 1.332 . S
C190 C189 1.382 . S
C190 H192 0.952 . S
C191 N186 1.332 . S
C191 C187 1.382 . S
C191 H193 0.948 . S
H192 C190 0.952 . S
H193 C191 0.948 . S
H194 C183 0.952 . S
H195 C185 0.948 . S
C196 C162 1.395 . S
C196 C166 1.391 . S
C197 C159 1.389 . S
C197 C179 1.392 . S
C198 C169 1.392 . S
C198 C171 1.389 . S
C199 C174 1.395 . S
C199 C176 1.391 . S
H200 C160 0.951 . S
H201 C161 0.950 . S
H202 C167 0.949 . S
H203 C168 0.950 . S
H204 C172 0.951 . S
H205 C173 0.950 . S
H206 C177 0.949 . S
H207 C178 0.950 . S
H208 C182 0.950 . S
H209 C184 0.950 . S
H210 C187 0.950 . S
H211 C189 0.950 . S
C212 C213 1.443 . S
C212 N216 1.376 . S
C212 C250 1.389 1_655 S
C213 C212 1.443 . S
C213 C214 1.340 . S
C213 H253 0.951 . S
C214 C213 1.340 . S
C214 C215 1.439 . S
C214 H254 0.950 . S
C215 C214 1.439 . S
C215 N216 1.374 . S
C215 C249 1.395 . S
N216 C212 1.376 . S
N216 C215 1.374 . S
N216 Co217 2.008 1_665 S
Co217 N216 2.008 1_445 S
Co217 N218 1.995 1_445 S
Co217 N223 2.008 . S
Co217 N228 1.995 . S
Co217 N233 2.282 1_545 S
Co217 N239 2.282 1_455 S
N218 Co217 1.995 1_665 S
N218 C219 1.376 . S
N218 C222 1.383 . S
C219 N218 1.376 . S
C219 C220 1.446 . S
C219 C249 1.391 . S
C220 C219 1.446 . S
C220 C221 1.339 . S
C220 H255 0.949 . S
C221 C220 1.339 . S
C221 C222 1.439 . S
C221 H256 0.950 . S
C222 N218 1.383 . S
C222 C221 1.439 . S
C222 C251 1.392 1_565 S
N223 Co217 2.008 . S
N223 C224 1.376 . S
N223 C227 1.374 . S
C224 N223 1.376 . S
C224 C225 1.443 . S
C224 C251 1.389 1_455 S
C225 C224 1.443 . S
C225 C226 1.340 . S
C225 H257 0.951 . S
C226 C225 1.340 . S
C226 C227 1.439 . S
C226 H258 0.950 . S
C227 N223 1.374 . S
C227 C226 1.439 . S
C227 C252 1.395 . S
N228 Co217 1.995 . S
N228 C229 1.376 . S
N228 C232 1.383 . S
C229 N228 1.376 . S
C229 C230 1.446 . S
C229 C252 1.391 . S
C230 C229 1.446 . S
C230 C231 1.339 . S
C230 H259 0.949 . S
C231 C230 1.339 . S
C231 C232 1.439 . S
C231 H260 0.950 . S
C232 N228 1.383 . S
C232 C231 1.439 . S
C232 C250 1.392 1_545 S
N233 Co217 2.282 1_565 S
N233 C236 1.332 . S
N233 C238 1.332 . S
C234 C235 1.386 . S
C234 C237 1.388 . S
C235 C234 1.386 . S
C235 C236 1.382 . S
C235 H261 0.950 . S
C236 N233 1.332 . S
C236 C235 1.382 . S
C236 H247 0.952 . S
C237 C234 1.388 . S
C237 C238 1.382 . S
C237 H262 0.950 . S
C238 N233 1.332 . S
C238 C237 1.382 . S
C238 H248 0.948 . S
N239 Co217 2.282 1_655 S
N239 C243 1.332 . S
N239 C244 1.332 . S
C240 C241 1.388 . S
C240 C244 1.382 . S
C240 H263 0.950 . S
C241 C240 1.388 . S
C241 C242 1.386 . S
C242 C241 1.386 . S
C242 C243 1.382 . S
C242 H264 0.950 . S
C243 N239 1.332 . S
C243 C242 1.382 . S
C243 H245 0.952 . S
C244 N239 1.332 . S
C244 C240 1.382 . S
C244 H246 0.948 . S
H245 C243 0.952 . S
H246 C244 0.948 . S
H247 C236 0.952 . S
H248 C238 0.948 . S
C249 C215 1.395 . S
C249 C219 1.391 . S
C250 C212 1.389 1_455 S
C250 C232 1.392 1_565 S
C251 C222 1.392 1_545 S
C251 C224 1.389 1_655 S
C252 C227 1.395 . S
C252 C229 1.391 . S
H253 C213 0.951 . S
H254 C214 0.950 . S
H255 C220 0.949 . S
H256 C221 0.950 . S
H257 C225 0.951 . S
H258 C226 0.950 . S
H259 C230 0.949 . S
H260 C231 0.950 . S
H261 C235 0.950 . S
H262 C237 0.950 . S
H263 C240 0.950 . S
H264 C242 0.950 . S
C265 C266 1.443 . S
C265 N269 1.376 . S
C265 C303 1.389 . S
C266 C265 1.443 . S
C266 C267 1.340 . S
C266 H306 0.951 . S
C267 C266 1.340 . S
C267 C268 1.439 . S
C267 H307 0.950 . S
C268 C267 1.439 . S
C268 N269 1.374 . S
C268 C302 1.395 . S
N269 C265 1.376 . S
N269 C268 1.374 . S
N269 Co270 2.008 . S
Co270 N269 2.008 . S
Co270 N271 1.995 . S
Co270 N276 2.008 . S
Co270 N281 1.995 . S
Co270 N286 2.282 . S
Co270 N292 2.282 . S
N271 Co270 1.995 . S
N271 C272 1.376 . S
N271 C275 1.383 . S
C272 N271 1.376 . S
C272 C273 1.446 . S
C272 C302 1.391 . S
C273 C272 1.446 . S
C273 C274 1.339 . S
C273 H308 0.949 . S
C274 C273 1.339 . S
C274 C275 1.439 . S
C274 H309 0.950 . S
C275 N271 1.383 . S
C275 C274 1.439 . S
C275 C304 1.392 . S
N276 Co270 2.008 . S
N276 C277 1.376 . S
N276 C280 1.374 . S
C277 N276 1.376 . S
C277 C278 1.443 . S
C277 C304 1.389 . S
C278 C277 1.443 . S
C278 C279 1.340 . S
C278 H310 0.951 . S
C279 C278 1.340 . S
C279 C280 1.439 . S
C279 H311 0.950 . S
C280 N276 1.374 . S
C280 C279 1.439 . S
C280 C305 1.395 . S
N281 Co270 1.995 . S
N281 C282 1.376 . S
N281 C285 1.383 . S
C282 N281 1.376 . S
C282 C283 1.446 . S
C282 C305 1.391 . S
C283 C282 1.446 . S
C283 C284 1.339 . S
C283 H312 0.949 . S
C284 C283 1.339 . S
C284 C285 1.439 . S
C284 H313 0.950 . S
C285 N281 1.383 . S
C285 C284 1.439 . S
C285 C303 1.392 . S
N286 Co270 2.282 . S
N286 C289 1.332 . S
N286 C291 1.332 . S
C287 C288 1.386 . S
C287 C290 1.388 . S
C288 C287 1.386 . S
C288 C289 1.382 . S
C288 H314 0.950 . S
C289 N286 1.332 . S
C289 C288 1.382 . S
C289 H300 0.952 . S
C290 C287 1.388 . S
C290 C291 1.382 . S
C290 H315 0.950 . S
C291 N286 1.332 . S
C291 C290 1.382 . S
C291 H301 0.948 . S
N292 Co270 2.282 . S
N292 C296 1.332 . S
N292 C297 1.332 . S
C293 C294 1.388 . S
C293 C297 1.382 . S
C293 H316 0.950 . S
C294 C293 1.388 . S
C294 C295 1.386 . S
C295 C294 1.386 . S
C295 C296 1.382 . S
C295 H317 0.950 . S
C296 N292 1.332 . S
C296 C295 1.382 . S
C296 H298 0.952 . S
C297 N292 1.332 . S
C297 C293 1.382 . S
C297 H299 0.948 . S
H298 C296 0.952 . S
H299 C297 0.948 . S
H300 C289 0.952 . S
H301 C291 0.948 . S
C302 C268 1.395 . S
C302 C272 1.391 . S
C303 C265 1.389 . S
C303 C285 1.392 . S
C304 C275 1.392 . S
C304 C277 1.389 . S
C305 C280 1.395 . S
C305 C282 1.391 . S
H306 C266 0.951 . S
H307 C267 0.950 . S
H308 C273 0.949 . S
H309 C274 0.950 . S
H310 C278 0.951 . S
H311 C279 0.950 . S
H312 C283 0.949 . S
H313 C284 0.950 . S
H314 C288 0.950 . S
H315 C290 0.950 . S
H316 C293 0.950 . S
H317 C295 0.950 . S
C318 C319 1.443 . S
C318 N322 1.363 1_545 S
C318 C356 1.389 . S
C319 C318 1.443 . S
C319 C320 1.340 1_545 S
C319 H359 0.951 . S
C320 C319 1.340 1_565 S
C320 C321 1.439 . S
C320 H360 0.950 . S
C321 C320 1.439 . S
C321 N322 1.391 . S
C321 C355 1.395 1_556 S
N322 C318 1.363 1_565 S
N322 C321 1.391 . S
N322 Co323 2.006 1_566 S
Co323 N322 2.006 1_544 S
Co323 N324 1.995 1_545 S
Co323 N329 2.005 . S
Co323 N334 1.995 1_554 S
Co323 N339 2.282 . S
Co323 N345 2.282 1_544 S
N324 Co323 1.995 1_565 S
N324 C325 1.376 . S
N324 C328 1.383 . S
C325 N324 1.376 . S
C325 C326 1.446 . S
C325 C355 1.391 . S
C326 C325 1.446 . S
C326 C327 1.339 . S
C326 H361 0.949 . S
C327 C326 1.339 . S
C327 C328 1.439 . S
C327 H362 0.950 . S
C328 N324 1.383 . S
C328 C327 1.439 . S
C328 C357 1.392 . S
N329 Co323 2.005 . S
N329 C330 1.357 1_545 S
N329 C333 1.399 . S
C330 N329 1.357 1_565 S
C330 C331 1.443 . S
C330 C357 1.389 . S
C331 C330 1.443 . S
C331 C332 1.340 1_565 S
C331 H363 0.951 . S
C332 C331 1.340 1_545 S
C332 C333 1.439 . S
C332 H364 0.950 . S
C333 N329 1.399 . S
C333 C332 1.439 . S
C333 C358 1.395 1_554 S
N334 Co323 1.995 1_556 S
N334 C335 1.376 . S
N334 C338 1.383 . S
C335 N334 1.376 . S
C335 C336 1.446 . S
C335 C358 1.391 . S
C336 C335 1.446 . S
C336 C337 1.339 . S
C336 H365 0.949 . S
C337 C336 1.339 . S
C337 C338 1.439 . S
C337 H366 0.950 . S
C338 N334 1.383 . S
C338 C337 1.439 . S
C338 C356 1.392 . S
N339 Co323 2.282 . S
N339 C342 1.332 . S
N339 C344 1.332 1_545 S
C340 C341 1.386 . S
C340 C343 1.388 1_545 S
C341 C340 1.386 . S
C341 C342 1.382 . S
C341 H367 0.950 . S
C342 N339 1.332 . S
C342 C341 1.382 . S
C342 H353 0.952 . S
C343 C340 1.388 1_565 S
C343 C344 1.382 . S
C343 H368 0.950 . S
C344 N339 1.332 1_565 S
C344 C343 1.382 . S
C344 H354 0.948 . S
N345 Co323 2.282 1_566 S
N345 C349 1.332 . S
N345 C350 1.332 1_565 S
C346 C347 1.388 1_545 S
C346 C350 1.382 . S
C346 H369 0.950 . S
C347 C346 1.388 1_565 S
C347 C348 1.386 . S
C348 C347 1.386 . S
C348 C349 1.382 . S
C348 H370 0.950 . S
C349 N345 1.332 . S
C349 C348 1.382 . S
C349 H351 0.952 . S
C350 N345 1.332 1_545 S
C350 C346 1.382 . S
C350 H352 0.948 . S
H351 C349 0.952 . S
H352 C350 0.948 . S
H353 C342 0.952 . S
H354 C344 0.948 . S
C355 C321 1.395 1_554 S
C355 C325 1.391 . S
C356 C318 1.389 . S
C356 C338 1.392 . S
C357 C328 1.392 . S
C357 C330 1.389 . S
C358 C333 1.395 1_556 S
C358 C335 1.391 . S
H359 C319 0.951 . S
H360 C320 0.950 . S
H361 C326 0.949 . S
H362 C327 0.950 . S
H363 C331 0.951 . S
H364 C332 0.950 . S
H365 C336 0.949 . S
H366 C337 0.950 . S
H367 C341 0.950 . S
H368 C343 0.950 . S
H369 C346 0.950 . S
H370 C348 0.950 . S
C371 C372 1.443 . S
C371 N375 1.376 . S
C371 C409 1.389 . S
C372 C371 1.443 . S
C372 C373 1.340 . S
C372 H412 0.951 . S
C373 C372 1.340 . S
C373 C374 1.439 . S
C373 H413 0.950 . S
C374 C373 1.439 . S
C374 N375 1.374 . S
C374 C408 1.395 . S
N375 C371 1.376 . S
N375 C374 1.374 . S
N375 Co376 2.008 . S
Co376 N375 2.008 . S
Co376 N377 1.995 . S
Co376 N382 2.008 . S
Co376 N387 1.995 . S
Co376 N392 2.282 . S
Co376 N398 2.282 . S
N377 Co376 1.995 . S
N377 C378 1.376 . S
N377 C381 1.383 . S
C378 N377 1.376 . S
C378 C379 1.446 . S
C378 C408 1.391 . S
C379 C378 1.446 . S
C379 C380 1.339 . S
C379 H414 0.949 . S
C380 C379 1.339 . S
C380 C381 1.439 . S
C380 H415 0.950 . S
C381 N377 1.383 . S
C381 C380 1.439 . S
C381 C410 1.392 . S
N382 Co376 2.008 . S
N382 C383 1.376 . S
N382 C386 1.374 . S
C383 N382 1.376 . S
C383 C384 1.443 . S
C383 C410 1.389 . S
C384 C383 1.443 . S
C384 C385 1.340 . S
C384 H416 0.951 . S
C385 C384 1.340 . S
C385 C386 1.439 . S
C385 H417 0.950 . S
C386 N382 1.374 . S
C386 C385 1.439 . S
C386 C411 1.395 . S
N387 Co376 1.995 . S
N387 C388 1.376 . S
N387 C391 1.383 . S
C388 N387 1.376 . S
C388 C389 1.446 . S
C388 C411 1.391 . S
C389 C388 1.446 . S
C389 C390 1.339 . S
C389 H418 0.949 . S
C390 C389 1.339 . S
C390 C391 1.439 . S
C390 H419 0.950 . S
C391 N387 1.383 . S
C391 C390 1.439 . S
C391 C409 1.392 . S
N392 Co376 2.282 . S
N392 C395 1.332 . S
N392 C397 1.332 . S
C393 C394 1.386 . S
C393 C396 1.388 . S
C394 C393 1.386 . S
C394 C395 1.382 . S
C394 H420 0.950 . S
C395 N392 1.332 . S
C395 C394 1.382 . S
C395 H406 0.952 . S
C396 C393 1.388 . S
C396 C397 1.382 . S
C396 H421 0.950 . S
C397 N392 1.332 . S
C397 C396 1.382 . S
C397 H407 0.948 . S
N398 Co376 2.282 . S
N398 C402 1.332 . S
N398 C403 1.332 . S
C399 C400 1.388 . S
C399 C403 1.382 . S
C399 H422 0.950 . S
C400 C399 1.388 . S
C400 C401 1.386 . S
C401 C400 1.386 . S
C401 C402 1.382 . S
C401 H423 0.950 . S
C402 N398 1.332 . S
C402 C401 1.382 . S
C402 H404 0.952 . S
C403 N398 1.332 . S
C403 C399 1.382 . S
C403 H405 0.948 . S
H404 C402 0.952 . S
H405 C403 0.948 . S
H406 C395 0.952 . S
H407 C397 0.948 . S
C408 C374 1.395 . S
C408 C378 1.391 . S
C409 C371 1.389 . S
C409 C391 1.392 . S
C410 C381 1.392 . S
C410 C383 1.389 . S
C411 C386 1.395 . S
C411 C388 1.391 . S
H412 C372 0.951 . S
H413 C373 0.950 . S
H414 C379 0.949 . S
H415 C380 0.950 . S
H416 C384 0.951 . S
H417 C385 0.950 . S
H418 C389 0.949 . S
H419 C390 0.950 . S
H420 C394 0.950 . S
H421 C396 0.950 . S
H422 C399 0.950 . S
H423 C401 0.950 . S
C424 C425 1.443 . S
C424 N428 1.376 . S
C424 C462 1.389 . S
C425 C424 1.443 . S
C425 C426 1.340 . S
C425 H465 0.951 . S
C426 C425 1.340 . S
C426 C427 1.439 . S
C426 H466 0.950 . S
C427 C426 1.439 . S
C427 N428 1.374 . S
C427 C461 1.395 . S
N428 C424 1.376 . S
N428 C427 1.374 . S
N428 Co429 2.008 . S
Co429 N428 2.008 . S
Co429 N430 1.995 . S
Co429 N435 2.008 . S
Co429 N440 1.995 . S
Co429 N445 2.282 . S
Co429 N451 2.282 . S
N430 Co429 1.995 . S
N430 C431 1.376 . S
N430 C434 1.383 . S
C431 N430 1.376 . S
C431 C432 1.446 . S
C431 C461 1.391 . S
C432 C431 1.446 . S
C432 C433 1.339 . S
C432 H467 0.949 . S
C433 C432 1.339 . S
C433 C434 1.439 . S
C433 H468 0.950 . S
C434 N430 1.383 . S
C434 C433 1.439 . S
C434 C463 1.392 . S
N435 Co429 2.008 . S
N435 C436 1.376 . S
N435 C439 1.374 . S
C436 N435 1.376 . S
C436 C437 1.443 . S
C436 C463 1.389 . S
C437 C436 1.443 . S
C437 C438 1.340 . S
C437 H469 0.951 . S
C438 C437 1.340 . S
C438 C439 1.439 . S
C438 H470 0.950 . S
C439 N435 1.374 . S
C439 C438 1.439 . S
C439 C464 1.395 . S
N440 Co429 1.995 . S
N440 C441 1.376 . S
N440 C444 1.383 . S
C441 N440 1.376 . S
C441 C442 1.446 . S
C441 C464 1.391 . S
C442 C441 1.446 . S
C442 C443 1.339 . S
C442 H471 0.949 . S
C443 C442 1.339 . S
C443 C444 1.439 . S
C443 H472 0.950 . S
C444 N440 1.383 . S
C444 C443 1.439 . S
C444 C462 1.392 . S
N445 Co429 2.282 . S
N445 C448 1.332 . S
N445 C450 1.332 . S
C446 C447 1.386 . S
C446 C449 1.388 . S
C447 C446 1.386 . S
C447 C448 1.382 . S
C447 H473 0.950 . S
C448 N445 1.332 . S
C448 C447 1.382 . S
C448 H459 0.952 . S
C449 C446 1.388 . S
C449 C450 1.382 . S
C449 H474 0.950 . S
C450 N445 1.332 . S
C450 C449 1.382 . S
C450 H460 0.948 . S
N451 Co429 2.282 . S
N451 C455 1.332 . S
N451 C456 1.332 . S
C452 C453 1.388 . S
C452 C456 1.382 . S
C452 H475 0.950 . S
C453 C452 1.388 . S
C453 C454 1.386 . S
C454 C453 1.386 . S
C454 C455 1.382 . S
C454 H476 0.950 . S
C455 N451 1.332 . S
C455 C454 1.382 . S
C455 H457 0.952 . S
C456 N451 1.332 . S
C456 C452 1.382 . S
C456 H458 0.948 . S
H457 C455 0.952 . S
H458 C456 0.948 . S
H459 C448 0.952 . S
H460 C450 0.948 . S
C461 C427 1.395 . S
C461 C431 1.391 . S
C462 C424 1.389 . S
C462 C444 1.392 . S
C463 C434 1.392 . S
C463 C436 1.389 . S
C464 C439 1.395 . S
C464 C441 1.391 . S
H465 C425 0.951 . S
H466 C426 0.950 . S
H467 C432 0.949 . S
H468 C433 0.950 . S
H469 C437 0.951 . S
H470 C438 0.950 . S
H471 C442 0.949 . S
H472 C443 0.950 . S
H473 C447 0.950 . S
H474 C449 0.950 . S
H475 C452 0.950 . S
H476 C454 0.950 . S
C477 C478 1.443 . S
C477 N481 1.376 . S
C477 C515 1.389 . S
C478 C477 1.443 . S
C478 C479 1.340 . S
C478 H518 0.951 . S
C479 C478 1.340 . S
C479 C480 1.439 . S
C479 H519 0.950 . S
C480 C479 1.439 . S
C480 N481 1.374 . S
C480 C514 1.395 . S
N481 C477 1.376 . S
N481 C480 1.374 . S
N481 Co482 2.008 . S
Co482 N481 2.008 . S
Co482 N483 1.995 . S
Co482 N488 2.008 . S
Co482 N493 1.995 . S
Co482 N498 2.282 . S
Co482 N504 2.282 . S
N483 Co482 1.995 . S
N483 C484 1.376 . S
N483 C487 1.383 . S
C484 N483 1.376 . S
C484 C485 1.446 . S
C484 C514 1.391 . S
C485 C484 1.446 . S
C485 C486 1.339 . S
C485 H520 0.949 . S
C486 C485 1.339 . S
C486 C487 1.439 . S
C486 H521 0.950 . S
C487 N483 1.383 . S
C487 C486 1.439 . S
C487 C516 1.392 . S
N488 Co482 2.008 . S
N488 C489 1.376 . S
N488 C492 1.374 . S
C489 N488 1.376 . S
C489 C490 1.443 . S
C489 C516 1.389 . S
C490 C489 1.443 . S
C490 C491 1.340 . S
C490 H522 0.951 . S
C491 C490 1.340 . S
C491 C492 1.439 . S
C491 H523 0.950 . S
C492 N488 1.374 . S
C492 C491 1.439 . S
C492 C517 1.395 . S
N493 Co482 1.995 . S
N493 C494 1.376 . S
N493 C497 1.383 . S
C494 N493 1.376 . S
C494 C495 1.446 . S
C494 C517 1.391 . S
C495 C494 1.446 . S
C495 C496 1.339 . S
C495 H524 0.949 . S
C496 C495 1.339 . S
C496 C497 1.439 . S
C496 H525 0.950 . S
C497 N493 1.383 . S
C497 C496 1.439 . S
C497 C515 1.392 . S
N498 Co482 2.282 . S
N498 C501 1.332 . S
N498 C503 1.332 . S
C499 C500 1.386 . S
C499 C502 1.388 . S
C500 C499 1.386 . S
C500 C501 1.382 . S
C500 H526 0.950 . S
C501 N498 1.332 . S
C501 C500 1.382 . S
C501 H512 0.952 . S
C502 C499 1.388 . S
C502 C503 1.382 . S
C502 H527 0.950 . S
C503 N498 1.332 . S
C503 C502 1.382 . S
C503 H513 0.948 . S
N504 Co482 2.282 . S
N504 C508 1.332 . S
N504 C509 1.332 . S
C505 C506 1.388 . S
C505 C509 1.382 . S
C505 H528 0.950 . S
C506 C505 1.388 . S
C506 C507 1.386 . S
C507 C506 1.386 . S
C507 C508 1.382 . S
C507 H529 0.950 . S
C508 N504 1.332 . S
C508 C507 1.382 . S
C508 H510 0.952 . S
C509 N504 1.332 . S
C509 C505 1.382 . S
C509 H511 0.948 . S
H510 C508 0.952 . S
H511 C509 0.948 . S
H512 C501 0.952 . S
H513 C503 0.948 . S
C514 C480 1.395 . S
C514 C484 1.391 . S
C515 C477 1.389 . S
C515 C497 1.392 . S
C516 C487 1.392 . S
C516 C489 1.389 . S
C517 C492 1.395 . S
C517 C494 1.391 . S
H518 C478 0.951 . S
H519 C479 0.950 . S
H520 C485 0.949 . S
H521 C486 0.950 . S
H522 C490 0.951 . S
H523 C491 0.950 . S
H524 C495 0.949 . S
H525 C496 0.950 . S
H526 C500 0.950 . S
H527 C502 0.950 . S
H528 C505 0.950 . S
H529 C507 0.950 . S
C530 C531 1.443 . S
C530 N534 1.376 . S
C530 C568 1.389 . S
C531 C530 1.443 . S
C531 C532 1.340 . S
C531 H571 0.951 . S
C532 C531 1.340 . S
C532 C533 1.439 . S
C532 H572 0.950 . S
C533 C532 1.439 . S
C533 N534 1.374 . S
C533 C567 1.395 . S
N534 C530 1.376 . S
N534 C533 1.374 . S
N534 Co535 2.008 . S
Co535 N534 2.008 . S
Co535 N536 1.995 . S
Co535 N541 2.008 . S
Co535 N546 1.995 . S
Co535 N551 2.282 . S
Co535 N557 2.282 . S
N536 Co535 1.995 . S
N536 C537 1.376 . S
N536 C540 1.383 . S
C537 N536 1.376 . S
C537 C538 1.446 . S
C537 C567 1.391 . S
C538 C537 1.446 . S
C538 C539 1.339 . S
C538 H573 0.949 . S
C539 C538 1.339 . S
C539 C540 1.439 . S
C539 H574 0.950 . S
C540 N536 1.383 . S
C540 C539 1.439 . S
C540 C569 1.392 . S
N541 Co535 2.008 . S
N541 C542 1.376 . S
N541 C545 1.374 . S
C542 N541 1.376 . S
C542 C543 1.443 . S
C542 C569 1.389 . S
C543 C542 1.443 . S
C543 C544 1.340 . S
C543 H575 0.951 . S
C544 C543 1.340 . S
C544 C545 1.439 . S
C544 H576 0.950 . S
C545 N541 1.374 . S
C545 C544 1.439 . S
C545 C570 1.395 . S
N546 Co535 1.995 . S
N546 C547 1.376 . S
N546 C550 1.383 . S
C547 N546 1.376 . S
C547 C548 1.446 . S
C547 C570 1.391 . S
C548 C547 1.446 . S
C548 C549 1.339 . S
C548 H577 0.949 . S
C549 C548 1.339 . S
C549 C550 1.439 . S
C549 H578 0.950 . S
C550 N546 1.383 . S
C550 C549 1.439 . S
C550 C568 1.392 . S
N551 Co535 2.282 . S
N551 C554 1.332 . S
N551 C556 1.332 . S
C552 C553 1.386 . S
C552 C555 1.388 . S
C553 C552 1.386 . S
C553 C554 1.382 . S
C553 H579 0.950 . S
C554 N551 1.332 . S
C554 C553 1.382 . S
C554 H565 0.952 . S
C555 C552 1.388 . S
C555 C556 1.382 . S
C555 H580 0.950 . S
C556 N551 1.332 . S
C556 C555 1.382 . S
C556 H566 0.948 . S
N557 Co535 2.282 . S
N557 C561 1.332 . S
N557 C562 1.332 . S
C558 C559 1.388 . S
C558 C562 1.382 . S
C558 H581 0.950 . S
C559 C558 1.388 . S
C559 C560 1.386 . S
C560 C559 1.386 . S
C560 C561 1.382 . S
C560 H582 0.950 . S
C561 N557 1.332 . S
C561 C560 1.382 . S
C561 H563 0.952 . S
C562 N557 1.332 . S
C562 C558 1.382 . S
C562 H564 0.948 . S
H563 C561 0.952 . S
H564 C562 0.948 . S
H565 C554 0.952 . S
H566 C556 0.948 . S
C567 C533 1.395 . S
C567 C537 1.391 . S
C568 C530 1.389 . S
C568 C550 1.392 . S
C569 C540 1.392 . S
C569 C542 1.389 . S
C570 C545 1.395 . S
C570 C547 1.391 . S
H571 C531 0.951 . S
H572 C532 0.950 . S
H573 C538 0.949 . S
H574 C539 0.950 . S
H575 C543 0.951 . S
H576 C544 0.950 . S
H577 C548 0.949 . S
H578 C549 0.950 . S
H579 C553 0.950 . S
H580 C555 0.950 . S
H581 C558 0.950 . S
H582 C560 0.950 . S
C583 C584 1.443 . S
C583 N587 1.376 . S
C583 C621 1.389 . S
C584 C583 1.443 . S
C584 C585 1.340 . S
C584 H624 0.951 . S
C585 C584 1.340 . S
C585 C586 1.439 . S
C585 H625 0.950 . S
C586 C585 1.439 . S
C586 N587 1.374 . S
C586 C620 1.395 . S
N587 C583 1.376 . S
N587 C586 1.374 . S
N587 Co588 2.008 . S
Co588 N587 2.008 . S
Co588 N589 1.995 . S
Co588 N594 2.008 . S
Co588 N599 1.995 . S
Co588 N604 2.282 . S
Co588 N610 2.282 . S
N589 Co588 1.995 . S
N589 C590 1.376 . S
N589 C593 1.383 . S
C590 N589 1.376 . S
C590 C591 1.446 . S
C590 C620 1.391 . S
C591 C590 1.446 . S
C591 C592 1.339 . S
C591 H626 0.949 . S
C592 C591 1.339 . S
C592 C593 1.439 . S
C592 H627 0.950 . S
C593 N589 1.383 . S
C593 C592 1.439 . S
C593 C622 1.392 . S
N594 Co588 2.008 . S
N594 C595 1.376 . S
N594 C598 1.374 . S
C595 N594 1.376 . S
C595 C596 1.443 . S
C595 C622 1.389 . S
C596 C595 1.443 . S
C596 C597 1.340 . S
C596 H628 0.951 . S
C597 C596 1.340 . S
C597 C598 1.439 . S
C597 H629 0.950 . S
C598 N594 1.374 . S
C598 C597 1.439 . S
C598 C623 1.395 . S
N599 Co588 1.995 . S
N599 C600 1.376 . S
N599 C603 1.383 . S
C600 N599 1.376 . S
C600 C601 1.446 . S
C600 C623 1.391 . S
C601 C600 1.446 . S
C601 C602 1.339 . S
C601 H630 0.949 . S
C602 C601 1.339 . S
C602 C603 1.439 . S
C602 H631 0.950 . S
C603 N599 1.383 . S
C603 C602 1.439 . S
C603 C621 1.392 . S
N604 Co588 2.282 . S
N604 C607 1.332 . S
N604 C609 1.332 . S
C605 C606 1.386 . S
C605 C608 1.388 . S
C606 C605 1.386 . S
C606 C607 1.382 . S
C606 H632 0.950 . S
C607 N604 1.332 . S
C607 C606 1.382 . S
C607 H618 0.952 . S
C608 C605 1.388 . S
C608 C609 1.382 . S
C608 H633 0.950 . S
C609 N604 1.332 . S
C609 C608 1.382 . S
C609 H619 0.948 . S
N610 Co588 2.282 . S
N610 C614 1.332 . S
N610 C615 1.332 . S
C611 C612 1.388 . S
C611 C615 1.382 . S
C611 H634 0.950 . S
C612 C611 1.388 . S
C612 C613 1.386 . S
C613 C612 1.386 . S
C613 C614 1.382 . S
C613 H635 0.950 . S
C614 N610 1.332 . S
C614 C613 1.382 . S
C614 H616 0.952 . S
C615 N610 1.332 . S
C615 C611 1.382 . S
C615 H617 0.948 . S
H616 C614 0.952 . S
H617 C615 0.948 . S
H618 C607 0.952 . S
H619 C609 0.948 . S
C620 C586 1.395 . S
C620 C590 1.391 . S
C621 C583 1.389 . S
C621 C603 1.392 . S
C622 C593 1.392 . S
C622 C595 1.389 . S
C623 C598 1.395 . S
C623 C600 1.391 . S
H624 C584 0.951 . S
H625 C585 0.950 . S
H626 C591 0.949 . S
H627 C592 0.950 . S
H628 C596 0.951 . S
H629 C597 0.950 . S
H630 C601 0.949 . S
H631 C602 0.950 . S
H632 C606 0.950 . S
H633 C608 0.950 . S
H634 C611 0.950 . S
H635 C613 0.950 . S
C636 C637 1.443 . S
C636 N640 1.376 . S
C636 C674 1.389 . S
C637 C636 1.443 . S
C637 C638 1.340 . S
C637 H677 0.951 . S
C638 C637 1.340 . S
C638 C639 1.439 . S
C638 H678 0.950 . S
C639 C638 1.439 . S
C639 N640 1.374 . S
C639 C673 1.395 . S
N640 C636 1.376 . S
N640 C639 1.374 . S
N640 Co641 2.008 . S
Co641 N640 2.008 . S
Co641 N642 1.995 . S
Co641 N647 2.008 . S
Co641 N652 1.995 . S
Co641 N657 2.282 . S
Co641 N663 2.282 . S
N642 Co641 1.995 . S
N642 C643 1.376 . S
N642 C646 1.383 . S
C643 N642 1.376 . S
C643 C644 1.446 . S
C643 C673 1.391 . S
C644 C643 1.446 . S
C644 C645 1.339 . S
C644 H679 0.949 . S
C645 C644 1.339 . S
C645 C646 1.439 . S
C645 H680 0.950 . S
C646 N642 1.383 . S
C646 C645 1.439 . S
C646 C675 1.392 . S
N647 Co641 2.008 . S
N647 C648 1.376 . S
N647 C651 1.374 . S
C648 N647 1.376 . S
C648 C649 1.443 . S
C648 C675 1.389 . S
C649 C648 1.443 . S
C649 C650 1.340 . S
C649 H681 0.951 . S
C650 C649 1.340 . S
C650 C651 1.439 . S
C650 H682 0.950 . S
C651 N647 1.374 . S
C651 C650 1.439 . S
C651 C676 1.395 . S
N652 Co641 1.995 . S
N652 C653 1.376 . S
N652 C656 1.383 . S
C653 N652 1.376 . S
C653 C654 1.446 . S
C653 C676 1.391 . S
C654 C653 1.446 . S
C654 C655 1.339 . S
C654 H683 0.949 . S
C655 C654 1.339 . S
C655 C656 1.439 . S
C655 H684 0.950 . S
C656 N652 1.383 . S
C656 C655 1.439 . S
C656 C674 1.392 . S
N657 Co641 2.282 . S
N657 C660 1.332 . S
N657 C662 1.332 . S
C658 C659 1.386 . S
C658 C661 1.388 . S
C659 C658 1.386 . S
C659 C660 1.382 . S
C659 H685 0.950 . S
C660 N657 1.332 . S
C660 C659 1.382 . S
C660 H671 0.952 . S
C661 C658 1.388 . S
C661 C662 1.382 . S
C661 H686 0.950 . S
C662 N657 1.332 . S
C662 C661 1.382 . S
C662 H672 0.948 . S
N663 Co641 2.282 . S
N663 C667 1.332 . S
N663 C668 1.332 . S
C664 C665 1.388 . S
C664 C668 1.382 . S
C664 H687 0.950 . S
C665 C664 1.388 . S
C665 C666 1.386 . S
C666 C665 1.386 . S
C666 C667 1.382 . S
C666 H688 0.950 . S
C667 N663 1.332 . S
C667 C666 1.382 . S
C667 H669 0.952 . S
C668 N663 1.332 . S
C668 C664 1.382 . S
C668 H670 0.948 . S
H669 C667 0.952 . S
H670 C668 0.948 . S
H671 C660 0.952 . S
H672 C662 0.948 . S
C673 C639 1.395 . S
C673 C643 1.391 . S
C674 C636 1.389 . S
C674 C656 1.392 . S
C675 C646 1.392 . S
C675 C648 1.389 . S
C676 C651 1.395 . S
C676 C653 1.391 . S
H677 C637 0.951 . S
H678 C638 0.950 . S
H679 C644 0.949 . S
H680 C645 0.950 . S
H681 C649 0.951 . S
H682 C650 0.950 . S
H683 C654 0.949 . S
H684 C655 0.950 . S
H685 C659 0.950 . S
H686 C661 0.950 . S
H687 C664 0.950 . S
H688 C666 0.950 . S
C689 C690 1.443 . S
C689 N693 1.376 . S
C689 C727 1.389 . S
C690 C689 1.443 . S
C690 C691 1.340 . S
C690 H730 0.951 . S
C691 C690 1.340 . S
C691 C692 1.439 . S
C691 H731 0.950 . S
C692 C691 1.439 . S
C692 N693 1.374 . S
C692 C726 1.395 . S
N693 C689 1.376 . S
N693 C692 1.374 . S
N693 Co694 2.008 1_655 S
Co694 N693 2.008 1_455 S
Co694 N695 1.997 1_454 S
Co694 N700 2.008 1_554 S
Co694 N705 1.997 . S
Co694 N710 2.282 1_454 S
Co694 N716 2.282 . S
N695 Co694 1.997 1_656 S
N695 C696 1.396 . S
N695 C699 1.361 1_655 S
C696 N695 1.396 . S
C696 C697 1.446 . S
C696 C726 1.391 1_556 S
C697 C696 1.446 . S
C697 C698 1.339 1_655 S
C697 H732 0.949 . S
C698 C697 1.339 1_455 S
C698 C699 1.439 . S
C698 H733 0.950 . S
C699 N695 1.361 1_455 S
C699 C698 1.439 . S
C699 C728 1.392 . S
N700 Co694 2.008 1_556 S
N700 C701 1.376 . S
N700 C704 1.374 . S
C701 N700 1.376 . S
C701 C702 1.443 . S
C701 C728 1.389 . S
C702 C701 1.443 . S
C702 C703 1.340 . S
C702 H734 0.951 . S
C703 C702 1.340 . S
C703 C704 1.439 . S
C703 H735 0.950 . S
C704 N700 1.374 . S
C704 C703 1.439 . S
C704 C729 1.395 . S
N705 Co694 1.997 . S
N705 C706 1.403 . S
N705 C709 1.354 1_455 S
C706 N705 1.403 . S
C706 C707 1.446 . S
C706 C729 1.391 1_554 S
C707 C706 1.446 . S
C707 C708 1.339 1_455 S
C707 H736 0.949 . S
C708 C707 1.339 1_655 S
C708 C709 1.439 . S
C708 H737 0.950 . S
C709 N705 1.354 1_655 S
C709 C708 1.439 . S
C709 C727 1.392 . S
N710 Co694 2.282 1_656 S
N710 C713 1.332 1_655 S
N710 C715 1.332 . S
C711 C712 1.386 1_655 S
C711 C714 1.388 . S
C712 C711 1.386 1_455 S
C712 C713 1.382 . S
C712 H738 0.950 . S
C713 N710 1.332 1_455 S
C713 C712 1.382 . S
C713 H724 0.952 . S
C714 C711 1.388 . S
C714 C715 1.382 . S
C714 H739 0.950 . S
C715 N710 1.332 . S
C715 C714 1.382 . S
C715 H725 0.948 . S
N716 Co694 2.282 . S
N716 C720 1.332 1_455 S
N716 C721 1.332 . S
C717 C718 1.388 . S
C717 C721 1.382 . S
C717 H740 0.950 . S
C718 C717 1.388 . S
C718 C719 1.386 1_455 S
C719 C718 1.386 1_655 S
C719 C720 1.382 . S
C719 H741 0.950 . S
C720 N716 1.332 1_655 S
C720 C719 1.382 . S
C720 H722 0.952 . S
C721 N716 1.332 . S
C721 C717 1.382 . S
C721 H723 0.948 . S
H722 C720 0.952 . S
H723 C721 0.948 . S
H724 C713 0.952 . S
H725 C715 0.948 . S
C726 C692 1.395 . S
C726 C696 1.391 1_554 S
C727 C689 1.389 . S
C727 C709 1.392 . S
C728 C699 1.392 . S
C728 C701 1.389 . S
C729 C704 1.395 . S
C729 C706 1.391 1_556 S
H730 C690 0.951 . S
H731 C691 0.950 . S
H732 C697 0.949 . S
H733 C698 0.950 . S
H734 C702 0.951 . S
H735 C703 0.950 . S
H736 C707 0.949 . S
H737 C708 0.950 . S
H738 C712 0.950 . S
H739 C714 0.950 . S
H740 C717 0.950 . S
H741 C719 0.950 . S
C742 C743 1.443 . S
C742 N746 1.376 . S
C742 C780 1.389 . S
C743 C742 1.443 . S
C743 C744 1.340 . S
C743 H783 0.951 . S
C744 C743 1.340 . S
C744 C745 1.439 . S
C744 H784 0.950 . S
C745 C744 1.439 . S
C745 N746 1.374 . S
C745 C779 1.395 1_554 S
N746 C742 1.376 . S
N746 C745 1.374 . S
N746 Co747 2.008 . S
Co747 N746 2.008 . S
Co747 N748 1.995 1_554 S
Co747 N753 2.008 1_554 S
Co747 N758 1.995 . S
Co747 N763 2.282 1_554 S
Co747 N769 2.282 . S
N748 Co747 1.995 1_556 S
N748 C749 1.376 . S
N748 C752 1.383 . S
C749 N748 1.376 . S
C749 C750 1.446 . S
C749 C779 1.391 . S
C750 C749 1.446 . S
C750 C751 1.339 . S
C750 H785 0.949 . S
C751 C750 1.339 . S
C751 C752 1.439 . S
C751 H786 0.950 . S
C752 N748 1.383 . S
C752 C751 1.439 . S
C752 C781 1.392 . S
N753 Co747 2.008 1_556 S
N753 C754 1.376 . S
N753 C757 1.374 . S
C754 N753 1.376 . S
C754 C755 1.443 . S
C754 C781 1.389 . S
C755 C754 1.443 . S
C755 C756 1.340 . S
C755 H787 0.951 . S
C756 C755 1.340 . S
C756 C757 1.439 . S
C756 H788 0.950 . S
C757 N753 1.374 . S
C757 C756 1.439 . S
C757 C782 1.395 1_556 S
N758 Co747 1.995 . S
N758 C759 1.376 . S
N758 C762 1.383 . S
C759 N758 1.376 . S
C759 C760 1.446 . S
C759 C782 1.391 . S
C760 C759 1.446 . S
C760 C761 1.339 . S
C760 H789 0.949 . S
C761 C760 1.339 . S
C761 C762 1.439 . S
C761 H790 0.950 . S
C762 N758 1.383 . S
C762 C761 1.439 . S
C762 C780 1.392 . S
N763 Co747 2.282 1_556 S
N763 C766 1.332 . S
N763 C768 1.332 . S
C764 C765 1.386 . S
C764 C767 1.388 . S
C765 C764 1.386 . S
C765 C766 1.382 . S
C765 H791 0.950 . S
C766 N763 1.332 . S
C766 C765 1.382 . S
C766 H777 0.952 . S
C767 C764 1.388 . S
C767 C768 1.382 . S
C767 H792 0.950 . S
C768 N763 1.332 . S
C768 C767 1.382 . S
C768 H778 0.948 . S
N769 Co747 2.282 . S
N769 C773 1.332 . S
N769 C774 1.332 . S
C770 C771 1.388 . S
C770 C774 1.382 . S
C770 H793 0.950 . S
C771 C770 1.388 . S
C771 C772 1.386 . S
C772 C771 1.386 . S
C772 C773 1.382 . S
C772 H794 0.950 . S
C773 N769 1.332 . S
C773 C772 1.382 . S
C773 H775 0.952 . S
C774 N769 1.332 . S
C774 C770 1.382 . S
C774 H776 0.948 . S
H775 C773 0.952 . S
H776 C774 0.948 . S
H777 C766 0.952 . S
H778 C768 0.948 . S
C779 C745 1.395 1_556 S
C779 C749 1.391 . S
C780 C742 1.389 . S
C780 C762 1.392 . S
C781 C752 1.392 . S
C781 C754 1.389 . S
C782 C757 1.395 1_554 S
C782 C759 1.391 . S
H783 C743 0.951 . S
H784 C744 0.950 . S
H785 C750 0.949 . S
H786 C751 0.950 . S
H787 C755 0.951 . S
H788 C756 0.950 . S
H789 C760 0.949 . S
H790 C761 0.950 . S
H791 C765 0.950 . S
H792 C767 0.950 . S
H793 C770 0.950 . S
H794 C772 0.950 . S
C795 C796 1.443 . S
C795 N799 1.376 . S
C795 C833 1.389 . S
C796 C795 1.443 . S
C796 C797 1.340 . S
C796 H836 0.951 . S
C797 C796 1.340 . S
C797 C798 1.439 . S
C797 H837 0.950 . S
C798 C797 1.439 . S
C798 N799 1.374 . S
C798 C832 1.395 . S
N799 C795 1.376 . S
N799 C798 1.374 . S
N799 Co800 2.008 1_655 S
Co800 N799 2.008 1_455 S
Co800 N801 1.995 . S
Co800 N806 2.008 . S
Co800 N811 1.995 1_455 S
Co800 N816 2.282 1_455 S
Co800 N822 2.282 . S
N801 Co800 1.995 . S
N801 C802 1.376 1_455 S
N801 C805 1.383 . S
C802 N801 1.376 1_655 S
C802 C803 1.446 . S
C802 C832 1.391 . S
C803 C802 1.446 . S
C803 C804 1.339 1_655 S
C803 H838 0.949 . S
C804 C803 1.339 1_455 S
C804 C805 1.439 . S
C804 H839 0.950 . S
C805 N801 1.383 . S
C805 C804 1.439 . S
C805 C834 1.392 . S
N806 Co800 2.008 . S
N806 C807 1.376 . S
N806 C810 1.374 . S
C807 N806 1.376 . S
C807 C808 1.443 . S
C807 C834 1.389 . S
C808 C807 1.443 . S
C808 C809 1.340 . S
C808 H840 0.951 . S
C809 C808 1.340 . S
C809 C810 1.439 . S
C809 H841 0.950 . S
C810 N806 1.374 . S
C810 C809 1.439 . S
C810 C835 1.395 . S
N811 Co800 1.995 1_655 S
N811 C812 1.376 1_655 S
N811 C815 1.383 . S
C812 N811 1.376 1_455 S
C812 C813 1.446 . S
C812 C835 1.391 . S
C813 C812 1.446 . S
C813 C814 1.339 1_455 S
C813 H842 0.949 . S
C814 C813 1.339 1_655 S
C814 C815 1.439 . S
C814 H843 0.950 . S
C815 N811 1.383 . S
C815 C814 1.439 . S
C815 C833 1.392 . S
N816 Co800 2.282 1_655 S
N816 C819 1.332 1_655 S
N816 C821 1.332 . S
C817 C818 1.386 1_655 S
C817 C820 1.388 . S
C818 C817 1.386 1_455 S
C818 C819 1.382 . S
C818 H844 0.950 . S
C819 N816 1.332 1_455 S
C819 C818 1.382 . S
C819 H830 0.952 . S
C820 C817 1.388 . S
C820 C821 1.382 . S
C820 H845 0.950 . S
C821 N816 1.332 . S
C821 C820 1.382 . S
C821 H831 0.948 . S
N822 Co800 2.282 . S
N822 C826 1.332 1_455 S
N822 C827 1.332 . S
C823 C824 1.388 . S
C823 C827 1.382 . S
C823 H846 0.950 . S
C824 C823 1.388 . S
C824 C825 1.386 1_455 S
C825 C824 1.386 1_655 S
C825 C826 1.382 . S
C825 H847 0.950 . S
C826 N822 1.332 1_655 S
C826 C825 1.382 . S
C826 H828 0.952 . S
C827 N822 1.332 . S
C827 C823 1.382 . S
C827 H829 0.948 . S
H828 C826 0.952 . S
H829 C827 0.948 . S
H830 C819 0.952 . S
H831 C821 0.948 . S
C832 C798 1.395 . S
C832 C802 1.391 . S
C833 C795 1.389 . S
C833 C815 1.392 . S
C834 C805 1.392 . S
C834 C807 1.389 . S
C835 C810 1.395 . S
C835 C812 1.391 . S
H836 C796 0.951 . S
H837 C797 0.950 . S
H838 C803 0.949 . S
H839 C804 0.950 . S
H840 C808 0.951 . S
H841 C809 0.950 . S
H842 C813 0.949 . S
H843 C814 0.950 . S
H844 C818 0.950 . S
H845 C820 0.950 . S
H846 C823 0.950 . S
H847 C825 0.950 . S
C848 C849 1.391 . S
C848 C850 1.394 . S
C848 H864 0.931 . S
C849 C848 1.391 . S
C849 C853 1.376 1_665 S
C850 C848 1.394 . S
C850 C851 1.369 . S
C850 C854 1.531 . S
C851 C850 1.369 . S
C851 C852 1.410 1_665 S
C851 C859 1.503 . S
C852 C851 1.410 1_445 S
C852 C853 1.392 . S
C852 C855 1.511 . S
C853 C849 1.376 1_445 S
C853 C852 1.392 . S
C853 H865 0.929 . S
C854 C850 1.531 . S
C854 H866 0.960 . S
C854 H867 0.962 . S
C854 H868 0.960 . S
C855 C852 1.511 . S
C855 H869 0.961 . S
C855 H870 0.961 . S
C855 H871 0.961 . S
C856 C857 1.370 . S
C856 C858 1.363 . S
C856 H872 0.931 . S
C857 C856 1.370 . S
C857 C861 1.408 1_645 S
C858 C856 1.363 . S
C858 C859 1.370 1_545 S
C858 C862 1.524 . S
C859 C851 1.503 . S
C859 C858 1.370 1_565 S
C859 C860 1.403 1_655 S
C860 C859 1.403 1_455 S
C860 C861 1.404 . S
C860 C863 1.539 . S
C861 C857 1.408 1_465 S
C861 C860 1.404 . S
C861 H873 0.930 . S
C862 C858 1.524 . S
C862 H874 0.956 . S
C862 H875 0.961 . S
C862 H876 0.961 . S
C863 C860 1.539 . S
C863 H877 0.958 . S
C863 H878 0.961 . S
C863 H879 0.960 . S
H864 C848 0.931 . S
H865 C853 0.929 . S
H866 C854 0.960 . S
H867 C854 0.962 . S
H868 C854 0.960 . S
H869 C855 0.961 . S
H870 C855 0.961 . S
H871 C855 0.961 . S
H872 C856 0.931 . S
H873 C861 0.930 . S
H874 C862 0.956 . S
H875 C862 0.961 . S
H876 C862 0.961 . S
H877 C863 0.958 . S
H878 C863 0.961 . S
H879 C863 0.960 . S
C880 C881 1.391 . S
C880 C882 1.394 . S
C880 H896 0.931 . S
C881 C880 1.391 . S
C881 C885 1.376 . S
C882 C880 1.394 . S
C882 C883 1.369 . S
C882 C886 1.531 . S
C883 C882 1.369 . S
C883 C884 1.410 . S
C883 C891 1.503 . S
C884 C883 1.410 . S
C884 C885 1.392 . S
C884 C887 1.511 . S
C885 C881 1.376 . S
C885 C884 1.392 . S
C885 H897 0.929 . S
C886 C882 1.531 . S
C886 H898 0.960 . S
C886 H899 0.962 . S
C886 H900 0.960 . S
C887 C884 1.511 . S
C887 H901 0.961 . S
C887 H902 0.961 . S
C887 H903 0.961 . S
C888 C889 1.370 . S
C888 C890 1.363 . S
C888 H904 0.931 . S
C889 C888 1.370 . S
C889 C893 1.408 . S
C890 C888 1.363 . S
C890 C891 1.370 . S
C890 C894 1.524 . S
C891 C883 1.503 . S
C891 C890 1.370 . S
C891 C892 1.403 . S
C892 C891 1.403 . S
C892 C893 1.404 . S
C892 C895 1.539 . S
C893 C889 1.408 . S
C893 C892 1.404 . S
C893 H905 0.930 . S
C894 C890 1.524 . S
C894 H906 0.956 . S
C894 H907 0.961 . S
C894 H908 0.961 . S
C895 C892 1.539 . S
C895 H909 0.958 . S
C895 H910 0.961 . S
C895 H911 0.960 . S
H896 C880 0.931 . S
H897 C885 0.929 . S
H898 C886 0.960 . S
H899 C886 0.962 . S
H900 C886 0.960 . S
H901 C887 0.961 . S
H902 C887 0.961 . S
H903 C887 0.961 . S
H904 C888 0.931 . S
H905 C893 0.930 . S
H906 C894 0.956 . S
H907 C894 0.961 . S
H908 C894 0.961 . S
H909 C895 0.958 . S
H910 C895 0.961 . S
H911 C895 0.960 . S
C912 C913 1.391 . S
C912 C914 1.394 . S
C912 H928 0.931 . S
C913 C912 1.391 . S
C913 C917 1.376 . S
C914 C912 1.394 . S
C914 C915 1.369 . S
C914 C918 1.531 . S
C915 C914 1.369 . S
C915 C916 1.410 . S
C915 C923 1.503 . S
C916 C915 1.410 . S
C916 C917 1.392 . S
C916 C919 1.511 . S
C917 C913 1.376 . S
C917 C916 1.392 . S
C917 H929 0.929 . S
C918 C914 1.531 . S
C918 H930 0.960 . S
C918 H931 0.962 1_565 S
C918 H932 0.960 . S
C919 C916 1.511 . S
C919 H933 0.961 . S
C919 H934 0.961 . S
C919 H935 0.961 . S
C920 C921 1.370 . S
C920 C922 1.363 . S
C920 H936 0.931 . S
C921 C920 1.370 . S
C921 C925 1.408 1_545 S
C922 C920 1.363 . S
C922 C923 1.370 1_545 S
C922 C926 1.524 . S
C923 C915 1.503 . S
C923 C922 1.370 1_565 S
C923 C924 1.403 . S
C924 C923 1.403 . S
C924 C925 1.404 . S
C924 C927 1.539 . S
C925 C921 1.408 1_565 S
C925 C924 1.404 . S
C925 H937 0.930 . S
C926 C922 1.524 . S
C926 H938 0.956 . S
C926 H939 0.961 . S
C926 H940 0.961 . S
C927 C924 1.539 . S
C927 H941 0.958 . S
C927 H942 0.961 . S
C927 H943 0.960 . S
H928 C912 0.931 . S
H929 C917 0.929 . S
H930 C918 0.960 . S
H931 C918 0.962 1_545 S
H932 C918 0.960 . S
H933 C919 0.961 . S
H934 C919 0.961 . S
H935 C919 0.961 . S
H936 C920 0.931 . S
H937 C925 0.930 . S
H938 C926 0.956 . S
H939 C926 0.961 . S
H940 C926 0.961 . S
H941 C927 0.958 . S
H942 C927 0.961 . S
H943 C927 0.960 . S
C944 C945 1.391 . S
C944 C946 1.394 . S
C944 H960 0.931 . S
C945 C944 1.391 . S
C945 C949 1.376 . S
C946 C944 1.394 . S
C946 C947 1.373 . S
C946 C950 1.531 . S
C947 C946 1.373 . S
C947 C948 1.412 . S
C947 C955 1.497 1_556 S
C948 C947 1.412 . S
C948 C949 1.392 . S
C948 C951 1.511 1_556 S
C949 C945 1.376 . S
C949 C948 1.392 . S
C949 H961 0.929 . S
C950 C946 1.531 . S
C950 H962 0.960 1_556 S
C950 H963 0.962 . S
C950 H964 0.960 . S
C951 C948 1.511 1_554 S
C951 H965 0.961 . S
C951 H966 0.961 . S
C951 H967 0.961 . S
C952 C953 1.370 . S
C952 C954 1.363 . S
C952 H968 0.931 . S
C953 C952 1.370 . S
C953 C957 1.408 . S
C954 C952 1.363 . S
C954 C955 1.370 . S
C954 C958 1.524 . S
C955 C947 1.497 1_554 S
C955 C954 1.370 . S
C955 C956 1.403 . S
C956 C955 1.403 . S
C956 C957 1.404 . S
C956 C959 1.539 . S
C957 C953 1.408 . S
C957 C956 1.404 . S
C957 H969 0.930 . S
C958 C954 1.524 . S
C958 H970 0.956 . S
C958 H971 0.961 . S
C958 H972 0.961 . S
C959 C956 1.539 . S
C959 H973 0.958 . S
C959 H974 0.961 . S
C959 H975 0.960 . S
H960 C944 0.931 . S
H961 C949 0.929 . S
H962 C950 0.960 1_554 S
H963 C950 0.962 . S
H964 C950 0.960 . S
H965 C951 0.961 . S
H966 C951 0.961 . S
H967 C951 0.961 . S
H968 C952 0.931 . S
H969 C957 0.930 . S
H970 C958 0.956 . S
H971 C958 0.961 . S
H972 C958 0.961 . S
H973 C959 0.958 . S
H974 C959 0.961 . S
H975 C959 0.960 . S
C976 C977 1.391 1_545 S
C976 C978 1.394 . S
C976 H992 0.931 . S
C977 C976 1.391 1_565 S
C977 C981 1.376 1_455 S
C978 C976 1.394 . S
C978 C979 1.369 . S
C978 C982 1.531 . S
C979 C978 1.369 . S
C979 C980 1.410 1_445 S
C979 C987 1.503 . S
C980 C979 1.410 1_665 S
C980 C981 1.392 . S
C980 C983 1.511 . S
C981 C977 1.376 1_655 S
C981 C980 1.392 . S
C981 H993 0.929 . S
C982 C978 1.531 . S
C982 H994 0.960 . S
C982 H995 0.962 . S
C982 H996 0.960 . S
C983 C980 1.511 . S
C983 H997 0.961 . S
C983 H998 0.961 . S
C983 H999 0.961 . S
C984 C985 1.370 1_565 S
C984 C986 1.363 . S
C984 H1000 0.931 . S
C985 C984 1.370 1_545 S
C985 C989 1.408 1_455 S
C986 C984 1.363 . S
C986 C987 1.370 1_565 S
C986 C990 1.524 . S
C987 C979 1.503 . S
C987 C986 1.370 1_545 S
C987 C988 1.403 1_455 S
C988 C987 1.403 1_655 S
C988 C989 1.404 . S
C988 C991 1.539 . S
C989 C985 1.408 1_655 S
C989 C988 1.404 . S
C989 H1001 0.930 . S
C990 C986 1.524 . S
C990 H1002 0.956 . S
C990 H1003 0.961 . S
C990 H1004 0.961 . S
C991 C988 1.539 . S
C991 H1005 0.958 . S
C991 H1006 0.961 . S
C991 H1007 0.960 . S
H992 C976 0.931 . S
H993 C981 0.929 . S
H994 C982 0.960 . S
H995 C982 0.962 . S
H996 C982 0.960 . S
H997 C983 0.961 . S
H998 C983 0.961 . S
H999 C983 0.961 . S
H1000 C984 0.931 . S
H1001 C989 0.930 . S
H1002 C990 0.956 . S
H1003 C990 0.961 . S
H1004 C990 0.961 . S
H1005 C991 0.958 . S
H1006 C991 0.961 . S
H1007 C991 0.960 . S
C1008 C1009 1.391 . S
C1008 C1010 1.394 . S
C1008 H1024 0.931 . S
C1009 C1008 1.391 . S
C1009 C1013 1.376 . S
C1010 C1008 1.394 . S
C1010 C1011 1.369 . S
C1010 C1014 1.531 . S
C1011 C1010 1.369 . S
C1011 C1012 1.410 . S
C1011 C1019 1.503 . S
C1012 C1011 1.410 . S
C1012 C1013 1.392 . S
C1012 C1015 1.511 . S
C1013 C1009 1.376 . S
C1013 C1012 1.392 . S
C1013 H1025 0.929 . S
C1014 C1010 1.531 . S
C1014 H1026 0.960 . S
C1014 H1027 0.962 . S
C1014 H1028 0.960 . S
C1015 C1012 1.511 . S
C1015 H1029 0.961 . S
C1015 H1030 0.961 . S
C1015 H1031 0.961 . S
C1016 C1017 1.370 . S
C1016 C1018 1.363 . S
C1016 H1032 0.931 . S
C1017 C1016 1.370 . S
C1017 C1021 1.408 . S
C1018 C1016 1.363 . S
C1018 C1019 1.370 . S
C1018 C1022 1.524 . S
C1019 C1011 1.503 . S
C1019 C1018 1.370 . S
C1019 C1020 1.403 . S
C1020 C1019 1.403 . S
C1020 C1021 1.404 . S
C1020 C1023 1.539 . S
C1021 C1017 1.408 . S
C1021 C1020 1.404 . S
C1021 H1033 0.930 . S
C1022 C1018 1.524 . S
C1022 H1034 0.956 . S
C1022 H1035 0.961 . S
C1022 H1036 0.961 . S
C1023 C1020 1.539 . S
C1023 H1037 0.958 . S
C1023 H1038 0.961 . S
C1023 H1039 0.960 . S
H1024 C1008 0.931 . S
H1025 C1013 0.929 . S
H1026 C1014 0.960 . S
H1027 C1014 0.962 . S
H1028 C1014 0.960 . S
H1029 C1015 0.961 . S
H1030 C1015 0.961 . S
H1031 C1015 0.961 . S
H1032 C1016 0.931 . S
H1033 C1021 0.930 . S
H1034 C1022 0.956 . S
H1035 C1022 0.961 . S
H1036 C1022 0.961 . S
H1037 C1023 0.958 . S
H1038 C1023 0.961 . S
H1039 C1023 0.960 . S
C1040 C1041 1.391 . S
C1040 C1042 1.394 . S
C1040 H1056 0.931 . S
C1041 C1040 1.391 . S
C1041 C1045 1.376 . S
C1042 C1040 1.394 . S
C1042 C1043 1.369 . S
C1042 C1046 1.531 1_545 S
C1043 C1042 1.369 . S
C1043 C1044 1.410 . S
C1043 C1051 1.503 . S
C1044 C1043 1.410 . S
C1044 C1045 1.392 . S
C1044 C1047 1.511 . S
C1045 C1041 1.376 . S
C1045 C1044 1.392 . S
C1045 H1057 0.929 . S
C1046 C1042 1.531 1_565 S
C1046 H1058 0.960 1_565 S
C1046 H1059 0.962 . S
C1046 H1060 0.960 1_565 S
C1047 C1044 1.511 . S
C1047 H1061 0.961 . S
C1047 H1062 0.961 . S
C1047 H1063 0.961 . S
C1048 C1049 1.370 . S
C1048 C1050 1.363 . S
C1048 H1064 0.931 . S
C1049 C1048 1.370 . S
C1049 C1053 1.408 1_565 S
C1050 C1048 1.363 . S
C1050 C1051 1.370 1_565 S
C1050 C1054 1.524 . S
C1051 C1043 1.503 . S
C1051 C1050 1.370 1_545 S
C1051 C1052 1.403 . S
C1052 C1051 1.403 . S
C1052 C1053 1.404 . S
C1052 C1055 1.539 . S
C1053 C1049 1.408 1_545 S
C1053 C1052 1.404 . S
C1053 H1065 0.930 . S
C1054 C1050 1.524 . S
C1054 H1066 0.956 . S
C1054 H1067 0.961 . S
C1054 H1068 0.961 . S
C1055 C1052 1.539 . S
C1055 H1069 0.958 . S
C1055 H1070 0.961 . S
C1055 H1071 0.960 . S
H1056 C1040 0.931 . S
H1057 C1045 0.929 . S
H1058 C1046 0.960 1_545 S
H1059 C1046 0.962 . S
H1060 C1046 0.960 1_545 S
H1061 C1047 0.961 . S
H1062 C1047 0.961 . S
H1063 C1047 0.961 . S
H1064 C1048 0.931 . S
H1065 C1053 0.930 . S
H1066 C1054 0.956 . S
H1067 C1054 0.961 . S
H1068 C1054 0.961 . S
H1069 C1055 0.958 . S
H1070 C1055 0.961 . S
H1071 C1055 0.960 . S
C1072 C1073 1.391 . S
C1072 C1074 1.394 . S
C1072 H1088 0.931 . S
C1073 C1072 1.391 . S
C1073 C1077 1.376 . S
C1074 C1072 1.394 . S
C1074 C1075 1.369 . S
C1074 C1078 1.531 1_554 S
C1075 C1074 1.369 . S
C1075 C1076 1.410 . S
C1075 C1083 1.503 1_554 S
C1076 C1075 1.410 . S
C1076 C1077 1.392 . S
C1076 C1079 1.511 . S
C1077 C1073 1.376 . S
C1077 C1076 1.392 . S
C1077 H1089 0.929 . S
C1078 C1074 1.531 1_556 S
C1078 H1090 0.960 . S
C1078 H1091 0.962 . S
C1078 H1092 0.960 1_556 S
C1079 C1076 1.511 . S
C1079 H1093 0.961 . S
C1079 H1094 0.961 1_554 S
C1079 H1095 0.961 . S
C1080 C1081 1.370 . S
C1080 C1082 1.363 . S
C1080 H1096 0.931 . S
C1081 C1080 1.370 . S
C1081 C1085 1.408 . S
C1082 C1080 1.363 . S
C1082 C1083 1.370 . S
C1082 C1086 1.524 . S
C1083 C1075 1.503 1_556 S
C1083 C1082 1.370 . S
C1083 C1084 1.403 . S
C1084 C1083 1.403 . S
C1084 C1085 1.404 . S
C1084 C1087 1.539 . S
C1085 C1081 1.408 . S
C1085 C1084 1.404 . S
C1085 H1097 0.930 . S
C1086 C1082 1.524 . S
C1086 H1098 0.956 . S
C1086 H1099 0.961 . S
C1086 H1100 0.961 . S
C1087 C1084 1.539 . S
C1087 H1101 0.958 . S
C1087 H1102 0.961 . S
C1087 H1103 0.960 . S
H1088 C1072 0.931 . S
H1089 C1077 0.929 . S
H1090 C1078 0.960 . S
H1091 C1078 0.962 . S
H1092 C1078 0.960 1_554 S
H1093 C1079 0.961 . S
H1094 C1079 0.961 1_556 S
H1095 C1079 0.961 . S
H1096 C1080 0.931 . S
H1097 C1085 0.930 . S
H1098 C1086 0.956 . S
H1099 C1086 0.961 . S
H1100 C1086 0.961 . S
H1101 C1087 0.958 . S
H1102 C1087 0.961 . S
H1103 C1087 0.960 . S
C1104 C1105 1.391 . S
C1104 C1106 1.394 . S
C1104 H1120 0.931 . S
C1105 C1104 1.391 . S
C1105 C1109 1.376 . S
C1106 C1104 1.394 . S
C1106 C1107 1.369 . S
C1106 C1110 1.531 . S
C1107 C1106 1.369 . S
C1107 C1108 1.410 . S
C1107 C1115 1.503 . S
C1108 C1107 1.410 . S
C1108 C1109 1.392 . S
C1108 C1111 1.511 . S
C1109 C1105 1.376 . S
C1109 C1108 1.392 . S
C1109 H1121 0.929 . S
C1110 C1106 1.531 . S
C1110 H1122 0.960 . S
C1110 H1123 0.962 . S
C1110 H1124 0.960 . S
C1111 C1108 1.511 . S
C1111 H1125 0.961 . S
C1111 H1126 0.961 . S
C1111 H1127 0.961 . S
C1112 C1113 1.370 . S
C1112 C1114 1.363 . S
C1112 H1128 0.931 . S
C1113 C1112 1.370 . S
C1113 C1117 1.408 . S
C1114 C1112 1.363 . S
C1114 C1115 1.370 . S
C1114 C1118 1.524 . S
C1115 C1107 1.503 . S
C1115 C1114 1.370 . S
C1115 C1116 1.403 . S
C1116 C1115 1.403 . S
C1116 C1117 1.404 . S
C1116 C1119 1.539 . S
C1117 C1113 1.408 . S
C1117 C1116 1.404 . S
C1117 H1129 0.930 . S
C1118 C1114 1.524 . S
C1118 H1130 0.956 . S
C1118 H1131 0.961 . S
C1118 H1132 0.961 . S
C1119 C1116 1.539 . S
C1119 H1133 0.958 . S
C1119 H1134 0.961 . S
C1119 H1135 0.960 . S
H1120 C1104 0.931 . S
H1121 C1109 0.929 . S
H1122 C1110 0.960 . S
H1123 C1110 0.962 . S
H1124 C1110 0.960 . S
H1125 C1111 0.961 . S
H1126 C1111 0.961 . S
H1127 C1111 0.961 . S
H1128 C1112 0.931 . S
H1129 C1117 0.930 . S
H1130 C1118 0.956 . S
H1131 C1118 0.961 . S
H1132 C1118 0.961 . S
H1133 C1119 0.958 . S
H1134 C1119 0.961 . S
H1135 C1119 0.960 . S
C1136 C1137 1.391 . S
C1136 C1138 1.394 . S
C1136 H1152 0.931 . S
C1137 C1136 1.391 . S
C1137 C1141 1.376 . S
C1138 C1136 1.394 . S
C1138 C1139 1.369 . S
C1138 C1142 1.531 . S
C1139 C1138 1.369 . S
C1139 C1140 1.410 . S
C1139 C1147 1.503 1_556 S
C1140 C1139 1.410 . S
C1140 C1141 1.392 . S
C1140 C1143 1.511 . S
C1141 C1137 1.376 . S
C1141 C1140 1.392 . S
C1141 H1153 0.929 . S
C1142 C1138 1.531 . S
C1142 H1154 0.960 1_556 S
C1142 H1155 0.962 . S
C1142 H1156 0.960 . S
C1143 C1140 1.511 . S
C1143 H1157 0.961 . S
C1143 H1158 0.973 . S
C1143 H1159 0.961 . S
C1144 C1145 1.370 . S
C1144 C1146 1.363 . S
C1144 H1160 0.931 . S
C1145 C1144 1.370 . S
C1145 C1149 1.408 . S
C1146 C1144 1.363 . S
C1146 C1147 1.370 . S
C1146 C1150 1.524 . S
C1147 C1139 1.503 1_554 S
C1147 C1146 1.370 . S
C1147 C1148 1.403 . S
C1148 C1147 1.403 . S
C1148 C1149 1.404 . S
C1148 C1151 1.539 . S
C1149 C1145 1.408 . S
C1149 C1148 1.404 . S
C1149 H1161 0.930 . S
C1150 C1146 1.524 . S
C1150 H1162 0.956 . S
C1150 H1163 0.961 1_554 S
C1150 H1164 0.961 . S
C1151 C1148 1.539 . S
C1151 H1165 0.958 . S
C1151 H1166 0.961 . S
C1151 H1167 0.960 . S
H1152 C1136 0.931 . S
H1153 C1141 0.929 . S
H1154 C1142 0.960 1_554 S
H1155 C1142 0.962 . S
H1156 C1142 0.960 . S
H1157 C1143 0.961 . S
H1158 C1143 0.973 . S
H1159 C1143 0.961 . S
H1160 C1144 0.931 . S
H1161 C1149 0.930 . S
H1162 C1150 0.956 . S
H1163 C1150 0.961 1_556 S
H1164 C1150 0.961 . S
H1165 C1151 0.958 . S
H1166 C1151 0.961 . S
H1167 C1151 0.960 . S
C1168 C1169 1.391 . S
C1168 C1170 1.394 . S
C1168 H1184 0.931 . S
C1169 C1168 1.391 . S
C1169 C1173 1.376 1_455 S
C1170 C1168 1.394 . S
C1170 C1171 1.369 . S
C1170 C1174 1.531 . S
C1171 C1170 1.369 . S
C1171 C1172 1.410 1_455 S
C1171 C1179 1.503 . S
C1172 C1171 1.410 1_655 S
C1172 C1173 1.392 . S
C1172 C1175 1.511 . S
C1173 C1169 1.376 1_655 S
C1173 C1172 1.392 . S
C1173 H1185 0.929 . S
C1174 C1170 1.531 . S
C1174 H1186 0.960 . S
C1174 H1187 0.962 . S
C1174 H1188 0.960 . S
C1175 C1172 1.511 . S
C1175 H1189 0.961 . S
C1175 H1190 0.961 . S
C1175 H1191 0.961 . S
C1176 C1177 1.370 . S
C1176 C1178 1.363 . S
C1176 H1192 0.931 . S
C1177 C1176 1.370 . S
C1177 C1181 1.408 . S
C1178 C1176 1.363 . S
C1178 C1179 1.370 . S
C1178 C1182 1.524 . S
C1179 C1171 1.503 . S
C1179 C1178 1.370 . S
C1179 C1180 1.402 1_455 S
C1180 C1179 1.402 1_655 S
C1180 C1181 1.403 1_655 S
C1180 C1183 1.541 . S
C1181 C1177 1.408 . S
C1181 C1180 1.403 1_455 S
C1181 H1193 0.930 1_455 S
C1182 C1178 1.524 . S
C1182 H1194 0.956 . S
C1182 H1195 0.961 . S
C1182 H1196 0.961 . S
C1183 C1180 1.541 . S
C1183 H1197 0.958 1_655 S
C1183 H1198 0.961 . S
C1183 H1199 0.960 . S
H1184 C1168 0.931 . S
H1185 C1173 0.929 . S
H1186 C1174 0.960 . S
H1187 C1174 0.962 . S
H1188 C1174 0.960 . S
H1189 C1175 0.961 . S
H1190 C1175 0.961 . S
H1191 C1175 0.961 . S
H1192 C1176 0.931 . S
H1193 C1181 0.930 1_655 S
H1194 C1182 0.956 . S
H1195 C1182 0.961 . S
H1196 C1182 0.961 . S
H1197 C1183 0.958 1_455 S
H1198 C1183 0.961 . S
H1199 C1183 0.960 . S
C1200 C1201 1.391 . S
C1200 C1202 1.394 . S
C1200 H1216 0.931 . S
C1201 C1200 1.391 . S
C1201 C1205 1.376 . S
C1202 C1200 1.394 . S
C1202 C1203 1.369 . S
C1202 C1206 1.531 . S
C1203 C1202 1.369 . S
C1203 C1204 1.410 . S
C1203 C1211 1.503 . S
C1204 C1203 1.410 . S
C1204 C1205 1.392 . S
C1204 C1207 1.511 . S
C1205 C1201 1.376 . S
C1205 C1204 1.392 . S
C1205 H1217 0.929 . S
C1206 C1202 1.531 . S
C1206 H1218 0.960 . S
C1206 H1219 0.962 . S
C1206 H1220 0.960 . S
C1207 C1204 1.511 . S
C1207 H1221 0.961 . S
C1207 H1222 0.961 . S
C1207 H1223 0.961 . S
C1208 C1209 1.370 . S
C1208 C1210 1.363 . S
C1208 H1224 0.931 . S
C1209 C1208 1.370 . S
C1209 C1213 1.408 . S
C1210 C1208 1.363 . S
C1210 C1211 1.370 . S
C1210 C1214 1.524 . S
C1211 C1203 1.503 . S
C1211 C1210 1.370 . S
C1211 C1212 1.403 . S
C1212 C1211 1.403 . S
C1212 C1213 1.404 . S
C1212 C1215 1.539 . S
C1213 C1209 1.408 . S
C1213 C1212 1.404 . S
C1213 H1225 0.930 . S
C1214 C1210 1.524 . S
C1214 H1226 0.956 . S
C1214 H1227 0.961 . S
C1214 H1228 0.961 . S
C1215 C1212 1.539 . S
C1215 H1229 0.958 . S
C1215 H1230 0.961 . S
C1215 H1231 0.960 . S
H1216 C1200 0.931 . S
H1217 C1205 0.929 . S
H1218 C1206 0.960 . S
H1219 C1206 0.962 . S
H1220 C1206 0.960 . S
H1221 C1207 0.961 . S
H1222 C1207 0.961 . S
H1223 C1207 0.961 . S
H1224 C1208 0.931 . S
H1225 C1213 0.930 . S
H1226 C1214 0.956 . S
H1227 C1214 0.961 . S
H1228 C1214 0.961 . S
H1229 C1215 0.958 . S
H1230 C1215 0.961 . S
H1231 C1215 0.960 . S
C1232 C1233 1.391 . S
C1232 C1234 1.394 . S
C1232 H1248 0.931 . S
C1233 C1232 1.391 . S
C1233 C1237 1.376 . S
C1234 C1232 1.394 . S
C1234 C1235 1.369 . S
C1234 C1238 1.531 . S
C1235 C1234 1.369 . S
C1235 C1236 1.410 . S
C1235 C1243 1.503 . S
C1236 C1235 1.410 . S
C1236 C1237 1.392 . S
C1236 C1239 1.511 . S
C1237 C1233 1.376 . S
C1237 C1236 1.392 . S
C1237 H1249 0.929 . S
C1238 C1234 1.531 . S
C1238 H1250 0.960 . S
C1238 H1251 0.962 . S
C1238 H1252 0.960 . S
C1239 C1236 1.511 . S
C1239 H1253 0.961 . S
C1239 H1254 0.961 . S
C1239 H1255 0.961 . S
C1240 C1241 1.370 . S
C1240 C1242 1.363 . S
C1240 H1256 0.931 . S
C1241 C1240 1.370 . S
C1241 C1245 1.408 . S
C1242 C1240 1.363 . S
C1242 C1243 1.370 . S
C1242 C1246 1.524 . S
C1243 C1235 1.503 . S
C1243 C1242 1.370 . S
C1243 C1244 1.403 . S
C1244 C1243 1.403 . S
C1244 C1245 1.404 . S
C1244 C1247 1.539 . S
C1245 C1241 1.408 . S
C1245 C1244 1.404 . S
C1245 H1257 0.930 . S
C1246 C1242 1.524 . S
C1246 H1258 0.956 . S
C1246 H1259 0.961 . S
C1246 H1260 0.961 . S
C1247 C1244 1.539 . S
C1247 H1261 0.958 . S
C1247 H1262 0.961 . S
C1247 H1263 0.960 . S
H1248 C1232 0.931 . S
H1249 C1237 0.929 . S
H1250 C1238 0.960 . S
H1251 C1238 0.962 . S
H1252 C1238 0.960 . S
H1253 C1239 0.961 . S
H1254 C1239 0.961 . S
H1255 C1239 0.961 . S
H1256 C1240 0.931 . S
H1257 C1245 0.930 . S
H1258 C1246 0.956 . S
H1259 C1246 0.961 . S
H1260 C1246 0.961 . S
H1261 C1247 0.958 . S
H1262 C1247 0.961 . S
H1263 C1247 0.960 . S
C1264 C1265 1.391 . S
C1264 C1266 1.394 . S
C1264 H1280 0.931 . S
C1265 C1264 1.391 . S
C1265 C1269 1.376 . S
C1266 C1264 1.394 . S
C1266 C1267 1.369 . S
C1266 C1270 1.531 . S
C1267 C1266 1.369 . S
C1267 C1268 1.410 . S
C1267 C1275 1.503 1_554 S
C1268 C1267 1.410 . S
C1268 C1269 1.392 . S
C1268 C1271 1.511 . S
C1269 C1265 1.376 . S
C1269 C1268 1.392 . S
C1269 H1281 0.929 . S
C1270 C1266 1.531 . S
C1270 H1282 0.960 1_554 S
C1270 H1283 0.962 . S
C1270 H1284 0.960 . S
C1271 C1268 1.511 . S
C1271 H1285 0.961 . S
C1271 H1286 0.961 1_554 S
C1271 H1287 0.961 . S
C1272 C1273 1.370 . S
C1272 C1274 1.363 . S
C1272 H1288 0.931 . S
C1273 C1272 1.370 . S
C1273 C1277 1.408 . S
C1274 C1272 1.363 . S
C1274 C1275 1.370 . S
C1274 C1278 1.524 . S
C1275 C1267 1.503 1_556 S
C1275 C1274 1.370 . S
C1275 C1276 1.403 . S
C1276 C1275 1.403 . S
C1276 C1277 1.404 . S
C1276 C1279 1.539 . S
C1277 C1273 1.408 . S
C1277 C1276 1.404 . S
C1277 H1289 0.930 . S
C1278 C1274 1.524 . S
C1278 H1290 0.956 1_556 S
C1278 H1291 0.961 1_556 S
C1278 H1292 0.961 . S
C1279 C1276 1.539 . S
C1279 H1293 0.958 . S
C1279 H1294 0.961 . S
C1279 H1295 0.960 . S
H1280 C1264 0.931 . S
H1281 C1269 0.929 . S
H1282 C1270 0.960 1_556 S
H1283 C1270 0.962 . S
H1284 C1270 0.960 . S
H1285 C1271 0.961 . S
H1286 C1271 0.961 1_556 S
H1287 C1271 0.961 . S
H1288 C1272 0.931 . S
H1289 C1277 0.930 . S
H1290 C1278 0.956 1_554 S
H1291 C1278 0.961 1_554 S
H1292 C1278 0.961 . S
H1293 C1279 0.958 . S
H1294 C1279 0.961 . S
H1295 C1279 0.960 . S
C1296 C1297 1.391 1_455 S
C1296 C1298 1.394 . S
C1296 H1312 0.931 . S
C1297 C1296 1.391 1_655 S
C1297 C1301 1.376 . S
C1298 C1296 1.394 . S
C1298 C1299 1.369 1_455 S
C1298 C1302 1.531 . S
C1299 C1298 1.369 1_655 S
C1299 C1300 1.410 . S
C1299 C1307 1.503 . S
C1300 C1299 1.410 . S
C1300 C1301 1.392 . S
C1300 C1303 1.511 . S
C1301 C1297 1.376 . S
C1301 C1300 1.392 . S
C1301 H1313 0.929 . S
C1302 C1298 1.531 . S
C1302 H1314 0.960 . S
C1302 H1315 0.962 . S
C1302 H1316 0.960 . S
C1303 C1300 1.511 . S
C1303 H1317 0.961 . S
C1303 H1318 0.961 . S
C1303 H1319 0.961 . S
C1304 C1305 1.370 1_455 S
C1304 C1306 1.363 . S
C1304 H1320 0.931 . S
C1305 C1304 1.370 1_655 S
C1305 C1309 1.408 . S
C1306 C1304 1.363 . S
C1306 C1307 1.370 1_455 S
C1306 C1310 1.524 . S
C1307 C1299 1.503 . S
C1307 C1306 1.370 1_655 S
C1307 C1308 1.403 . S
C1308 C1307 1.403 . S
C1308 C1309 1.404 . S
C1308 C1311 1.539 . S
C1309 C1305 1.408 . S
C1309 C1308 1.404 . S
C1309 H1321 0.930 . S
C1310 C1306 1.524 . S
C1310 H1322 0.956 . S
C1310 H1323 0.961 . S
C1310 H1324 0.961 . S
C1311 C1308 1.539 . S
C1311 H1325 0.958 . S
C1311 H1326 0.961 . S
C1311 H1327 0.960 . S
H1312 C1296 0.931 . S
H1313 C1301 0.929 . S
H1314 C1302 0.960 . S
H1315 C1302 0.962 . S
H1316 C1302 0.960 . S
H1317 C1303 0.961 . S
H1318 C1303 0.961 . S
H1319 C1303 0.961 . S
H1320 C1304 0.931 . S
H1321 C1309 0.930 . S
H1322 C1310 0.956 . S
H1323 C1310 0.961 . S
H1324 C1310 0.961 . S
H1325 C1311 0.958 . S
H1326 C1311 0.961 . S
H1327 C1311 0.960 . S
C1328 C1329 1.391 . S
C1328 C1330 1.394 . S
C1328 H1344 0.931 . S
C1329 C1328 1.391 . S
C1329 C1333 1.376 . S
C1330 C1328 1.394 . S
C1330 C1331 1.369 . S
C1330 C1334 1.531 . S
C1331 C1330 1.369 . S
C1331 C1332 1.410 . S
C1331 C1339 1.503 . S
C1332 C1331 1.410 . S
C1332 C1333 1.392 . S
C1332 C1335 1.511 . S
C1333 C1329 1.376 . S
C1333 C1332 1.392 . S
C1333 H1345 0.929 . S
C1334 C1330 1.531 . S
C1334 H1346 0.960 . S
C1334 H1347 0.962 . S
C1334 H1348 0.960 . S
C1335 C1332 1.511 . S
C1335 H1349 0.961 . S
C1335 H1350 0.961 . S
C1335 H1351 0.961 . S
C1336 C1337 1.370 . S
C1336 C1338 1.363 . S
C1336 H1352 0.931 . S
C1337 C1336 1.370 . S
C1337 C1341 1.408 . S
C1338 C1336 1.363 . S
C1338 C1339 1.370 . S
C1338 C1342 1.524 . S
C1339 C1331 1.503 . S
C1339 C1338 1.370 . S
C1339 C1340 1.403 . S
C1340 C1339 1.403 . S
C1340 C1341 1.404 . S
C1340 C1343 1.539 . S
C1341 C1337 1.408 . S
C1341 C1340 1.404 . S
C1341 H1353 0.930 . S
C1342 C1338 1.524 . S
C1342 H1354 0.956 . S
C1342 H1355 0.961 . S
C1342 H1356 0.961 . S
C1343 C1340 1.539 . S
C1343 H1357 0.958 . S
C1343 H1358 0.961 . S
C1343 H1359 0.960 . S
H1344 C1328 0.931 . S
H1345 C1333 0.929 . S
H1346 C1334 0.960 . S
H1347 C1334 0.962 . S
H1348 C1334 0.960 . S
H1349 C1335 0.961 . S
H1350 C1335 0.961 . S
H1351 C1335 0.961 . S
H1352 C1336 0.931 . S
H1353 C1341 0.930 . S
H1354 C1342 0.956 . S
H1355 C1342 0.961 . S
H1356 C1342 0.961 . S
H1357 C1343 0.958 . S
H1358 C1343 0.961 . S
H1359 C1343 0.960 . S
C1360 C1361 1.391 . S
C1360 C1362 1.394 . S
C1360 H1376 0.931 . S
C1361 C1360 1.391 . S
C1361 C1365 1.376 . S
C1362 C1360 1.394 . S
C1362 C1363 1.369 . S
C1362 C1366 1.531 . S
C1363 C1362 1.369 . S
C1363 C1364 1.410 . S
C1363 C1371 1.503 . S
C1364 C1363 1.410 . S
C1364 C1365 1.392 . S
C1364 C1367 1.511 . S
C1365 C1361 1.376 . S
C1365 C1364 1.392 . S
C1365 H1377 0.929 . S
C1366 C1362 1.531 . S
C1366 H1378 0.960 . S
C1366 H1379 0.962 . S
C1366 H1380 0.960 . S
C1367 C1364 1.511 . S
C1367 H1381 0.961 . S
C1367 H1382 0.961 . S
C1367 H1383 0.961 . S
C1368 C1369 1.370 . S
C1368 C1370 1.363 . S
C1368 H1384 0.931 . S
C1369 C1368 1.370 . S
C1369 C1373 1.408 . S
C1370 C1368 1.363 . S
C1370 C1371 1.370 . S
C1370 C1374 1.524 . S
C1371 C1363 1.503 . S
C1371 C1370 1.370 . S
C1371 C1372 1.403 . S
C1372 C1371 1.403 . S
C1372 C1373 1.404 . S
C1372 C1375 1.539 . S
C1373 C1369 1.408 . S
C1373 C1372 1.404 . S
C1373 H1385 0.930 . S
C1374 C1370 1.524 . S
C1374 H1386 0.956 . S
C1374 H1387 0.961 . S
C1374 H1388 0.961 . S
C1375 C1372 1.539 . S
C1375 H1389 0.958 . S
C1375 H1390 0.961 . S
C1375 H1391 0.960 . S
H1376 C1360 0.931 . S
H1377 C1365 0.929 . S
H1378 C1366 0.960 . S
H1379 C1366 0.962 . S
H1380 C1366 0.960 . S
H1381 C1367 0.961 . S
H1382 C1367 0.961 . S
H1383 C1367 0.961 . S
H1384 C1368 0.931 . S
H1385 C1373 0.930 . S
H1386 C1374 0.956 . S
H1387 C1374 0.961 . S
H1388 C1374 0.961 . S
H1389 C1375 0.958 . S
H1390 C1375 0.961 . S
H1391 C1375 0.960 . S
C1392 C1393 1.391 . S
C1392 C1394 1.394 . S
C1392 H1408 0.931 . S
C1393 C1392 1.391 . S
C1393 C1397 1.376 . S
C1394 C1392 1.394 . S
C1394 C1395 1.369 . S
C1394 C1398 1.531 . S
C1395 C1394 1.369 . S
C1395 C1396 1.410 . S
C1395 C1403 1.503 . S
C1396 C1395 1.410 . S
C1396 C1397 1.392 . S
C1396 C1399 1.511 . S
C1397 C1393 1.376 . S
C1397 C1396 1.392 . S
C1397 H1409 0.929 . S
C1398 C1394 1.531 . S
C1398 H1410 0.960 . S
C1398 H1411 0.962 . S
C1398 H1412 0.960 . S
C1399 C1396 1.511 . S
C1399 H1413 0.961 . S
C1399 H1414 0.961 . S
C1399 H1415 0.961 . S
C1400 C1401 1.370 . S
C1400 C1402 1.363 . S
C1400 H1416 0.931 . S
C1401 C1400 1.370 . S
C1401 C1405 1.408 . S
C1402 C1400 1.363 . S
C1402 C1403 1.370 . S
C1402 C1406 1.524 . S
C1403 C1395 1.503 . S
C1403 C1402 1.370 . S
C1403 C1404 1.403 . S
C1404 C1403 1.403 . S
C1404 C1405 1.404 . S
C1404 C1407 1.539 . S
C1405 C1401 1.408 . S
C1405 C1404 1.404 . S
C1405 H1417 0.930 . S
C1406 C1402 1.524 . S
C1406 H1418 0.956 . S
C1406 H1419 0.961 . S
C1406 H1420 0.961 . S
C1407 C1404 1.539 . S
C1407 H1421 0.958 . S
C1407 H1422 0.961 . S
C1407 H1423 0.960 . S
H1408 C1392 0.931 . S
H1409 C1397 0.929 . S
H1410 C1398 0.960 . S
H1411 C1398 0.962 . S
H1412 C1398 0.960 . S
H1413 C1399 0.961 . S
H1414 C1399 0.961 . S
H1415 C1399 0.961 . S
H1416 C1400 0.931 . S
H1417 C1405 0.930 . S
H1418 C1406 0.956 . S
H1419 C1406 0.961 . S
H1420 C1406 0.961 . S
H1421 C1407 0.958 . S
H1422 C1407 0.961 . S
H1423 C1407 0.960 . S
C1424 C1425 1.391 . S
C1424 C1426 1.394 . S
C1424 H1440 0.931 . S
C1425 C1424 1.391 . S
C1425 C1429 1.376 . S
C1426 C1424 1.394 . S
C1426 C1427 1.369 . S
C1426 C1430 1.531 . S
C1427 C1426 1.369 . S
C1427 C1428 1.410 . S
C1427 C1435 1.503 . S
C1428 C1427 1.410 . S
C1428 C1429 1.392 . S
C1428 C1431 1.511 . S
C1429 C1425 1.376 . S
C1429 C1428 1.392 . S
C1429 H1441 0.929 . S
C1430 C1426 1.531 . S
C1430 H1442 0.960 . S
C1430 H1443 0.962 . S
C1430 H1444 0.960 . S
C1431 C1428 1.511 . S
C1431 H1445 0.961 . S
C1431 H1446 0.961 . S
C1431 H1447 0.961 . S
C1432 C1433 1.370 . S
C1432 C1434 1.363 . S
C1432 H1448 0.931 . S
C1433 C1432 1.370 . S
C1433 C1437 1.408 . S
C1434 C1432 1.363 . S
C1434 C1435 1.370 . S
C1434 C1438 1.524 . S
C1435 C1427 1.503 . S
C1435 C1434 1.370 . S
C1435 C1436 1.403 . S
C1436 C1435 1.403 . S
C1436 C1437 1.404 . S
C1436 C1439 1.539 . S
C1437 C1433 1.408 . S
C1437 C1436 1.404 . S
C1437 H1449 0.930 . S
C1438 C1434 1.524 . S
C1438 H1450 0.956 . S
C1438 H1451 0.961 . S
C1438 H1452 0.961 . S
C1439 C1436 1.539 . S
C1439 H1453 0.958 . S
C1439 H1454 0.961 . S
C1439 H1455 0.960 . S
H1440 C1424 0.931 . S
H1441 C1429 0.929 . S
H1442 C1430 0.960 . S
H1443 C1430 0.962 . S
H1444 C1430 0.960 . S
H1445 C1431 0.961 . S
H1446 C1431 0.961 . S
H1447 C1431 0.961 . S
H1448 C1432 0.931 . S
H1449 C1437 0.930 . S
H1450 C1438 0.956 . S
H1451 C1438 0.961 . S
H1452 C1438 0.961 . S
H1453 C1439 0.958 . S
H1454 C1439 0.961 . S
H1455 C1439 0.960 . S
C1456 C1457 1.391 . S
C1456 C1458 1.394 . S
C1456 H1472 0.931 . S
C1457 C1456 1.391 . S
C1457 C1461 1.376 . S
C1458 C1456 1.394 . S
C1458 C1459 1.369 . S
C1458 C1462 1.531 . S
C1459 C1458 1.369 . S
C1459 C1460 1.410 . S
C1459 C1467 1.503 . S
C1460 C1459 1.410 . S
C1460 C1461 1.392 . S
C1460 C1463 1.511 . S
C1461 C1457 1.376 . S
C1461 C1460 1.392 . S
C1461 H1473 0.929 . S
C1462 C1458 1.531 . S
C1462 H1474 0.960 . S
C1462 H1475 0.962 . S
C1462 H1476 0.960 . S
C1463 C1460 1.511 . S
C1463 H1477 0.961 . S
C1463 H1478 0.961 . S
C1463 H1479 0.961 . S
C1464 C1465 1.370 . S
C1464 C1466 1.363 . S
C1464 H1480 0.931 . S
C1465 C1464 1.370 . S
C1465 C1469 1.408 . S
C1466 C1464 1.363 . S
C1466 C1467 1.370 . S
C1466 C1470 1.524 . S
C1467 C1459 1.503 . S
C1467 C1466 1.370 . S
C1467 C1468 1.403 . S
C1468 C1467 1.403 . S
C1468 C1469 1.404 . S
C1468 C1471 1.539 . S
C1469 C1465 1.408 . S
C1469 C1468 1.404 . S
C1469 H1481 0.930 . S
C1470 C1466 1.524 . S
C1470 H1482 0.956 . S
C1470 H1483 0.961 . S
C1470 H1484 0.961 . S
C1471 C1468 1.539 . S
C1471 H1485 0.958 . S
C1471 H1486 0.961 . S
C1471 H1487 0.960 . S
H1472 C1456 0.931 . S
H1473 C1461 0.929 . S
H1474 C1462 0.960 . S
H1475 C1462 0.962 . S
H1476 C1462 0.960 . S
H1477 C1463 0.961 . S
H1478 C1463 0.961 . S
H1479 C1463 0.961 . S
H1480 C1464 0.931 . S
H1481 C1469 0.930 . S
H1482 C1470 0.956 . S
H1483 C1470 0.961 . S
H1484 C1470 0.961 . S
H1485 C1471 0.958 . S
H1486 C1471 0.961 . S
H1487 C1471 0.960 . S
C1488 C1489 1.391 . S
C1488 C1490 1.394 . S
C1488 H1504 0.931 . S
C1489 C1488 1.391 . S
C1489 C1493 1.376 . S
C1490 C1488 1.394 . S
C1490 C1491 1.369 . S
C1490 C1494 1.531 . S
C1491 C1490 1.369 . S
C1491 C1492 1.410 . S
C1491 C1499 1.503 . S
C1492 C1491 1.410 . S
C1492 C1493 1.392 . S
C1492 C1495 1.511 . S
C1493 C1489 1.376 . S
C1493 C1492 1.392 . S
C1493 H1505 0.929 . S
C1494 C1490 1.531 . S
C1494 H1506 0.960 . S
C1494 H1507 0.962 . S
C1494 H1508 0.960 . S
C1495 C1492 1.511 . S
C1495 H1509 0.961 . S
C1495 H1510 0.961 . S
C1495 H1511 0.961 . S
C1496 C1497 1.370 . S
C1496 C1498 1.363 . S
C1496 H1512 0.931 . S
C1497 C1496 1.370 . S
C1497 C1501 1.408 . S
C1498 C1496 1.363 . S
C1498 C1499 1.370 . S
C1498 C1502 1.524 . S
C1499 C1491 1.503 . S
C1499 C1498 1.370 . S
C1499 C1500 1.403 . S
C1500 C1499 1.403 . S
C1500 C1501 1.404 . S
C1500 C1503 1.539 . S
C1501 C1497 1.408 . S
C1501 C1500 1.404 . S
C1501 H1513 0.930 . S
C1502 C1498 1.524 . S
C1502 H1514 0.956 . S
C1502 H1515 0.961 . S
C1502 H1516 0.961 . S
C1503 C1500 1.539 . S
C1503 H1517 0.958 . S
C1503 H1518 0.961 . S
C1503 H1519 0.960 . S
H1504 C1488 0.931 . S
H1505 C1493 0.929 . S
H1506 C1494 0.960 . S
H1507 C1494 0.962 . S
H1508 C1494 0.960 . S
H1509 C1495 0.961 . S
H1510 C1495 0.961 . S
H1511 C1495 0.961 . S
H1512 C1496 0.931 . S
H1513 C1501 0.930 . S
H1514 C1502 0.956 . S
H1515 C1502 0.961 . S
H1516 C1502 0.961 . S
H1517 C1503 0.958 . S
H1518 C1503 0.961 . S
H1519 C1503 0.960 . S
C1520 C1521 1.391 . S
C1520 C1522 1.394 . S
C1520 H1536 0.931 . S
C1521 C1520 1.391 . S
C1521 C1525 1.376 . S
C1522 C1520 1.394 . S
C1522 C1523 1.369 . S
C1522 C1526 1.531 . S
C1523 C1522 1.369 . S
C1523 C1524 1.410 . S
C1523 C1531 1.503 . S
C1524 C1523 1.410 . S
C1524 C1525 1.392 . S
C1524 C1527 1.511 . S
C1525 C1521 1.376 . S
C1525 C1524 1.392 . S
C1525 H1537 0.929 . S
C1526 C1522 1.531 . S
C1526 H1538 0.960 . S
C1526 H1539 0.962 . S
C1526 H1540 0.960 . S
C1527 C1524 1.511 . S
C1527 H1541 0.961 . S
C1527 H1542 0.961 . S
C1527 H1543 0.961 . S
C1528 C1529 1.370 . S
C1528 C1530 1.363 . S
C1528 H1544 0.931 . S
C1529 C1528 1.370 . S
C1529 C1533 1.408 . S
C1530 C1528 1.363 . S
C1530 C1531 1.370 . S
C1530 C1534 1.524 . S
C1531 C1523 1.503 . S
C1531 C1530 1.370 . S
C1531 C1532 1.403 . S
C1532 C1531 1.403 . S
C1532 C1533 1.404 . S
C1532 C1535 1.539 . S
C1533 C1529 1.408 . S
C1533 C1532 1.404 . S
C1533 H1545 0.930 . S
C1534 C1530 1.524 . S
C1534 H1546 0.956 . S
C1534 H1547 0.961 . S
C1534 H1548 0.961 . S
C1535 C1532 1.539 . S
C1535 H1549 0.958 . S
C1535 H1550 0.961 . S
C1535 H1551 0.960 . S
H1536 C1520 0.931 . S
H1537 C1525 0.929 . S
H1538 C1526 0.960 . S
H1539 C1526 0.962 . S
H1540 C1526 0.960 . S
H1541 C1527 0.961 . S
H1542 C1527 0.961 . S
H1543 C1527 0.961 . S
H1544 C1528 0.931 . S
H1545 C1533 0.930 . S
H1546 C1534 0.956 . S
H1547 C1534 0.961 . S
H1548 C1534 0.961 . S
H1549 C1535 0.958 . S
H1550 C1535 0.961 . S
H1551 C1535 0.960 . S
C1552 C1553 1.391 . S
C1552 C1554 1.394 . S
C1552 H1568 0.931 . S
C1553 C1552 1.391 . S
C1553 C1557 1.376 . S
C1554 C1552 1.394 . S
C1554 C1555 1.369 . S
C1554 C1558 1.531 . S
C1555 C1554 1.369 . S
C1555 C1556 1.410 . S
C1555 C1563 1.503 . S
C1556 C1555 1.410 . S
C1556 C1557 1.392 . S
C1556 C1559 1.511 . S
C1557 C1553 1.376 . S
C1557 C1556 1.392 . S
C1557 H1569 0.929 . S
C1558 C1554 1.531 . S
C1558 H1570 0.960 . S
C1558 H1571 0.962 . S
C1558 H1572 0.960 . S
C1559 C1556 1.511 . S
C1559 H1573 0.961 . S
C1559 H1574 0.961 . S
C1559 H1575 0.961 . S
C1560 C1561 1.370 . S
C1560 C1562 1.363 . S
C1560 H1576 0.931 . S
C1561 C1560 1.370 . S
C1561 C1565 1.408 . S
C1562 C1560 1.363 . S
C1562 C1563 1.370 . S
C1562 C1566 1.524 . S
C1563 C1555 1.503 . S
C1563 C1562 1.370 . S
C1563 C1564 1.403 . S
C1564 C1563 1.403 . S
C1564 C1565 1.404 . S
C1564 C1567 1.539 . S
C1565 C1561 1.408 . S
C1565 C1564 1.404 . S
C1565 H1577 0.930 . S
C1566 C1562 1.524 . S
C1566 H1578 0.956 . S
C1566 H1579 0.961 . S
C1566 H1580 0.961 . S
C1567 C1564 1.539 . S
C1567 H1581 0.958 . S
C1567 H1582 0.961 . S
C1567 H1583 0.960 . S
H1568 C1552 0.931 . S
H1569 C1557 0.929 . S
H1570 C1558 0.960 . S
H1571 C1558 0.962 . S
H1572 C1558 0.960 . S
H1573 C1559 0.961 . S
H1574 C1559 0.961 . S
H1575 C1559 0.961 . S
H1576 C1560 0.931 . S
H1577 C1565 0.930 . S
H1578 C1566 0.956 . S
H1579 C1566 0.961 . S
H1580 C1566 0.961 . S
H1581 C1567 0.958 . S
H1582 C1567 0.961 . S
H1583 C1567 0.960 . S
C1584 C1585 1.391 . S
C1584 C1586 1.394 . S
C1584 H1600 0.931 . S
C1585 C1584 1.391 . S
C1585 C1589 1.376 . S
C1586 C1584 1.394 . S
C1586 C1587 1.369 . S
C1586 C1590 1.531 . S
C1587 C1586 1.369 . S
C1587 C1588 1.410 . S
C1587 C1595 1.503 . S
C1588 C1587 1.410 . S
C1588 C1589 1.392 . S
C1588 C1591 1.511 . S
C1589 C1585 1.376 . S
C1589 C1588 1.392 . S
C1589 H1601 0.929 . S
C1590 C1586 1.531 . S
C1590 H1602 0.960 . S
C1590 H1603 0.962 . S
C1590 H1604 0.960 . S
C1591 C1588 1.511 . S
C1591 H1605 0.961 . S
C1591 H1606 0.961 . S
C1591 H1607 0.961 . S
C1592 C1593 1.370 . S
C1592 C1594 1.363 . S
C1592 H1608 0.931 . S
C1593 C1592 1.370 . S
C1593 C1597 1.408 . S
C1594 C1592 1.363 . S
C1594 C1595 1.370 . S
C1594 C1598 1.524 . S
C1595 C1587 1.503 . S
C1595 C1594 1.370 . S
C1595 C1596 1.403 . S
C1596 C1595 1.403 . S
C1596 C1597 1.404 . S
C1596 C1599 1.539 . S
C1597 C1593 1.408 . S
C1597 C1596 1.404 . S
C1597 H1609 0.930 . S
C1598 C1594 1.524 . S
C1598 H1610 0.956 . S
C1598 H1611 0.961 . S
C1598 H1612 0.961 . S
C1599 C1596 1.539 . S
C1599 H1613 0.958 . S
C1599 H1614 0.961 . S
C1599 H1615 0.960 . S
H1600 C1584 0.931 . S
H1601 C1589 0.929 . S
H1602 C1590 0.960 . S
H1603 C1590 0.962 . S
H1604 C1590 0.960 . S
H1605 C1591 0.961 . S
H1606 C1591 0.961 . S
H1607 C1591 0.961 . S
H1608 C1592 0.931 . S
H1609 C1597 0.930 . S
H1610 C1598 0.956 . S
H1611 C1598 0.961 . S
H1612 C1598 0.961 . S
H1613 C1599 0.958 . S
H1614 C1599 0.961 . S
H1615 C1599 0.960 . S
C1616 C1617 1.391 . S
C1616 C1618 1.394 . S
C1616 H1632 0.931 . S
C1617 C1616 1.391 . S
C1617 C1621 1.376 . S
C1618 C1616 1.394 . S
C1618 C1619 1.369 . S
C1618 C1622 1.531 . S
C1619 C1618 1.369 . S
C1619 C1620 1.410 . S
C1619 C1627 1.503 . S
C1620 C1619 1.410 . S
C1620 C1621 1.392 . S
C1620 C1623 1.511 . S
C1621 C1617 1.376 . S
C1621 C1620 1.392 . S
C1621 H1633 0.929 . S
C1622 C1618 1.531 . S
C1622 H1634 0.960 . S
C1622 H1635 0.962 . S
C1622 H1636 0.960 . S
C1623 C1620 1.511 . S
C1623 H1637 0.961 . S
C1623 H1638 0.961 . S
C1623 H1639 0.961 . S
C1624 C1625 1.370 . S
C1624 C1626 1.363 . S
C1624 H1640 0.931 . S
C1625 C1624 1.370 . S
C1625 C1629 1.408 . S
C1626 C1624 1.363 . S
C1626 C1627 1.370 . S
C1626 C1630 1.524 . S
C1627 C1619 1.503 . S
C1627 C1626 1.370 . S
C1627 C1628 1.403 . S
C1628 C1627 1.403 . S
C1628 C1629 1.404 . S
C1628 C1631 1.539 . S
C1629 C1625 1.408 . S
C1629 C1628 1.404 . S
C1629 H1641 0.930 . S
C1630 C1626 1.524 . S
C1630 H1642 0.956 . S
C1630 H1643 0.961 . S
C1630 H1644 0.961 . S
C1631 C1628 1.539 . S
C1631 H1645 0.958 . S
C1631 H1646 0.961 . S
C1631 H1647 0.960 . S
H1632 C1616 0.931 . S
H1633 C1621 0.929 . S
H1634 C1622 0.960 . S
H1635 C1622 0.962 . S
H1636 C1622 0.960 . S
H1637 C1623 0.961 . S
H1638 C1623 0.961 . S
H1639 C1623 0.961 . S
H1640 C1624 0.931 . S
H1641 C1629 0.930 . S
H1642 C1630 0.956 . S
H1643 C1630 0.961 . S
H1644 C1630 0.961 . S
H1645 C1631 0.958 . S
H1646 C1631 0.961 . S
H1647 C1631 0.960 . S
C1648 C1649 1.391 . S
C1648 C1650 1.394 . S
C1648 H1664 0.931 . S
C1649 C1648 1.391 . S
C1649 C1653 1.376 . S
C1650 C1648 1.394 . S
C1650 C1651 1.369 . S
C1650 C1654 1.531 . S
C1651 C1650 1.369 . S
C1651 C1652 1.410 . S
C1651 C1659 1.503 . S
C1652 C1651 1.410 . S
C1652 C1653 1.392 . S
C1652 C1655 1.511 . S
C1653 C1649 1.376 . S
C1653 C1652 1.392 . S
C1653 H1665 0.929 . S
C1654 C1650 1.531 . S
C1654 H1666 0.960 . S
C1654 H1667 0.962 . S
C1654 H1668 0.960 . S
C1655 C1652 1.511 . S
C1655 H1669 0.961 . S
C1655 H1670 0.961 . S
C1655 H1671 0.961 . S
C1656 C1657 1.370 . S
C1656 C1658 1.363 . S
C1656 H1672 0.931 . S
C1657 C1656 1.370 . S
C1657 C1661 1.408 . S
C1658 C1656 1.363 . S
C1658 C1659 1.370 . S
C1658 C1662 1.524 . S
C1659 C1651 1.503 . S
C1659 C1658 1.370 . S
C1659 C1660 1.403 . S
C1660 C1659 1.403 . S
C1660 C1661 1.404 . S
C1660 C1663 1.539 . S
C1661 C1657 1.408 . S
C1661 C1660 1.404 . S
C1661 H1673 0.930 . S
C1662 C1658 1.524 . S
C1662 H1674 0.956 . S
C1662 H1675 0.961 . S
C1662 H1676 0.961 . S
C1663 C1660 1.539 . S
C1663 H1677 0.958 . S
C1663 H1678 0.961 . S
C1663 H1679 0.960 . S
H1664 C1648 0.931 . S
H1665 C1653 0.929 . S
H1666 C1654 0.960 . S
H1667 C1654 0.962 . S
H1668 C1654 0.960 . S
H1669 C1655 0.961 . S
H1670 C1655 0.961 . S
H1671 C1655 0.961 . S
H1672 C1656 0.931 . S
H1673 C1661 0.930 . S
H1674 C1662 0.956 . S
H1675 C1662 0.961 . S
H1676 C1662 0.961 . S
H1677 C1663 0.958 . S
H1678 C1663 0.961 . S
H1679 C1663 0.960 . S
C1680 C1681 1.391 . S
C1680 C1682 1.394 . S
C1680 H1696 0.931 . S
C1681 C1680 1.391 . S
C1681 C1685 1.376 . S
C1682 C1680 1.394 . S
C1682 C1683 1.369 . S
C1682 C1686 1.531 . S
C1683 C1682 1.369 . S
C1683 C1684 1.410 . S
C1683 C1691 1.503 . S
C1684 C1683 1.410 . S
C1684 C1685 1.392 . S
C1684 C1687 1.511 . S
C1685 C1681 1.376 . S
C1685 C1684 1.392 . S
C1685 H1697 0.929 . S
C1686 C1682 1.531 . S
C1686 H1698 0.960 . S
C1686 H1699 0.962 . S
C1686 H1700 0.960 . S
C1687 C1684 1.511 . S
C1687 H1701 0.961 . S
C1687 H1702 0.961 . S
C1687 H1703 0.961 . S
C1688 C1689 1.370 . S
C1688 C1690 1.363 . S
C1688 H1704 0.931 . S
C1689 C1688 1.370 . S
C1689 C1693 1.408 . S
C1690 C1688 1.363 . S
C1690 C1691 1.370 . S
C1690 C1694 1.524 . S
C1691 C1683 1.503 . S
C1691 C1690 1.370 . S
C1691 C1692 1.403 . S
C1692 C1691 1.403 . S
C1692 C1693 1.404 . S
C1692 C1695 1.539 . S
C1693 C1689 1.408 . S
C1693 C1692 1.404 . S
C1693 H1705 0.930 . S
C1694 C1690 1.524 . S
C1694 H1706 0.956 . S
C1694 H1707 0.961 . S
C1694 H1708 0.961 . S
C1695 C1692 1.539 . S
C1695 H1709 0.958 . S
C1695 H1710 0.961 . S
C1695 H1711 0.960 . S
H1696 C1680 0.931 . S
H1697 C1685 0.929 . S
H1698 C1686 0.960 . S
H1699 C1686 0.962 . S
H1700 C1686 0.960 . S
H1701 C1687 0.961 . S
H1702 C1687 0.961 . S
H1703 C1687 0.961 . S
H1704 C1688 0.931 . S
H1705 C1693 0.930 . S
H1706 C1694 0.956 . S
H1707 C1694 0.961 . S
H1708 C1694 0.961 . S
H1709 C1695 0.958 . S
H1710 C1695 0.961 . S
H1711 C1695 0.960 . S
C1712 C1713 1.391 . S
C1712 C1714 1.394 . S
C1712 H1728 0.931 . S
C1713 C1712 1.391 . S
C1713 C1717 1.376 . S
C1714 C1712 1.394 . S
C1714 C1715 1.369 . S
C1714 C1718 1.531 . S
C1715 C1714 1.369 . S
C1715 C1716 1.410 . S
C1715 C1723 1.503 . S
C1716 C1715 1.410 . S
C1716 C1717 1.392 . S
C1716 C1719 1.511 . S
C1717 C1713 1.376 . S
C1717 C1716 1.392 . S
C1717 H1729 0.929 . S
C1718 C1714 1.531 . S
C1718 H1730 0.960 . S
C1718 H1731 0.962 . S
C1718 H1732 0.960 . S
C1719 C1716 1.511 . S
C1719 H1733 0.961 . S
C1719 H1734 0.961 . S
C1719 H1735 0.961 . S
C1720 C1721 1.370 . S
C1720 C1722 1.363 . S
C1720 H1736 0.931 . S
C1721 C1720 1.370 . S
C1721 C1725 1.408 . S
C1722 C1720 1.363 . S
C1722 C1723 1.370 . S
C1722 C1726 1.524 . S
C1723 C1715 1.503 . S
C1723 C1722 1.370 . S
C1723 C1724 1.403 . S
C1724 C1723 1.403 . S
C1724 C1725 1.404 . S
C1724 C1727 1.539 . S
C1725 C1721 1.408 . S
C1725 C1724 1.404 . S
C1725 H1737 0.930 . S
C1726 C1722 1.524 . S
C1726 H1738 0.956 . S
C1726 H1739 0.961 . S
C1726 H1740 0.961 . S
C1727 C1724 1.539 . S
C1727 H1741 0.958 . S
C1727 H1742 0.961 . S
C1727 H1743 0.960 . S
H1728 C1712 0.931 . S
H1729 C1717 0.929 . S
H1730 C1718 0.960 . S
H1731 C1718 0.962 . S
H1732 C1718 0.960 . S
H1733 C1719 0.961 . S
H1734 C1719 0.961 . S
H1735 C1719 0.961 . S
H1736 C1720 0.931 . S
H1737 C1725 0.930 . S
H1738 C1726 0.956 . S
H1739 C1726 0.961 . S
H1740 C1726 0.961 . S
H1741 C1727 0.958 . S
H1742 C1727 0.961 . S
H1743 C1727 0.960 . S
C1744 C1745 1.391 . S
C1744 C1746 1.394 . S
C1744 H1760 0.931 . S
C1745 C1744 1.391 . S
C1745 C1749 1.376 . S
C1746 C1744 1.394 . S
C1746 C1747 1.369 . S
C1746 C1750 1.531 . S
C1747 C1746 1.369 . S
C1747 C1748 1.410 . S
C1747 C1755 1.503 . S
C1748 C1747 1.410 . S
C1748 C1749 1.392 . S
C1748 C1751 1.511 . S
C1749 C1745 1.376 . S
C1749 C1748 1.392 . S
C1749 H1761 0.929 . S
C1750 C1746 1.531 . S
C1750 H1762 0.960 . S
C1750 H1763 0.962 . S
C1750 H1764 0.960 . S
C1751 C1748 1.511 . S
C1751 H1765 0.961 . S
C1751 H1766 0.961 . S
C1751 H1767 0.961 . S
C1752 C1753 1.370 . S
C1752 C1754 1.363 . S
C1752 H1768 0.931 . S
C1753 C1752 1.370 . S
C1753 C1757 1.408 . S
C1754 C1752 1.363 . S
C1754 C1755 1.370 . S
C1754 C1758 1.524 . S
C1755 C1747 1.503 . S
C1755 C1754 1.370 . S
C1755 C1756 1.403 . S
C1756 C1755 1.403 . S
C1756 C1757 1.404 . S
C1756 C1759 1.539 . S
C1757 C1753 1.408 . S
C1757 C1756 1.404 . S
C1757 H1769 0.930 . S
C1758 C1754 1.524 . S
C1758 H1770 0.956 . S
C1758 H1771 0.961 . S
C1758 H1772 0.961 . S
C1759 C1756 1.539 . S
C1759 H1773 0.958 . S
C1759 H1774 0.961 . S
C1759 H1775 0.960 . S
H1760 C1744 0.931 . S
H1761 C1749 0.929 . S
H1762 C1750 0.960 . S
H1763 C1750 0.962 . S
H1764 C1750 0.960 . S
H1765 C1751 0.961 . S
H1766 C1751 0.961 . S
H1767 C1751 0.961 . S
H1768 C1752 0.931 . S
H1769 C1757 0.930 . S
H1770 C1758 0.956 . S
H1771 C1758 0.961 . S
H1772 C1758 0.961 . S
H1773 C1759 0.958 . S
H1774 C1759 0.961 . S
H1775 C1759 0.960 . S
C1776 C1777 1.391 . S
C1776 C1778 1.394 . S
C1776 H1792 0.931 . S
C1777 C1776 1.391 . S
C1777 C1781 1.376 . S
C1778 C1776 1.394 . S
C1778 C1779 1.369 . S
C1778 C1782 1.531 . S
C1779 C1778 1.369 . S
C1779 C1780 1.410 . S
C1779 C1787 1.503 . S
C1780 C1779 1.410 . S
C1780 C1781 1.392 . S
C1780 C1783 1.511 . S
C1781 C1777 1.376 . S
C1781 C1780 1.392 . S
C1781 H1793 0.929 . S
C1782 C1778 1.531 . S
C1782 H1794 0.960 . S
C1782 H1795 0.962 . S
C1782 H1796 0.960 . S
C1783 C1780 1.511 . S
C1783 H1797 0.961 . S
C1783 H1798 0.961 . S
C1783 H1799 0.961 . S
C1784 C1785 1.370 . S
C1784 C1786 1.363 . S
C1784 H1800 0.931 . S
C1785 C1784 1.370 . S
C1785 C1789 1.408 . S
C1786 C1784 1.363 . S
C1786 C1787 1.370 . S
C1786 C1790 1.524 . S
C1787 C1779 1.503 . S
C1787 C1786 1.370 . S
C1787 C1788 1.403 . S
C1788 C1787 1.403 . S
C1788 C1789 1.404 . S
C1788 C1791 1.539 . S
C1789 C1785 1.408 . S
C1789 C1788 1.404 . S
C1789 H1801 0.930 . S
C1790 C1786 1.524 . S
C1790 H1802 0.956 . S
C1790 H1803 0.961 . S
C1790 H1804 0.961 . S
C1791 C1788 1.539 . S
C1791 H1805 0.958 . S
C1791 H1806 0.961 . S
C1791 H1807 0.960 . S
H1792 C1776 0.931 . S
H1793 C1781 0.929 . S
H1794 C1782 0.960 . S
H1795 C1782 0.962 . S
H1796 C1782 0.960 . S
H1797 C1783 0.961 . S
H1798 C1783 0.961 . S
H1799 C1783 0.961 . S
H1800 C1784 0.931 . S
H1801 C1789 0.930 . S
H1802 C1790 0.956 . S
H1803 C1790 0.961 . S
H1804 C1790 0.961 . S
H1805 C1791 0.958 . S
H1806 C1791 0.961 . S
H1807 C1791 0.960 . S
C1808 C1809 1.391 . S
C1808 C1810 1.394 . S
C1808 H1824 0.931 . S
C1809 C1808 1.391 . S
C1809 C1813 1.376 . S
C1810 C1808 1.394 . S
C1810 C1811 1.369 . S
C1810 C1814 1.531 . S
C1811 C1810 1.369 . S
C1811 C1812 1.410 . S
C1811 C1819 1.503 . S
C1812 C1811 1.410 . S
C1812 C1813 1.392 . S
C1812 C1815 1.511 . S
C1813 C1809 1.376 . S
C1813 C1812 1.392 . S
C1813 H1825 0.929 . S
C1814 C1810 1.531 . S
C1814 H1826 0.960 . S
C1814 H1827 0.962 . S
C1814 H1828 0.960 . S
C1815 C1812 1.511 . S
C1815 H1829 0.961 . S
C1815 H1830 0.961 . S
C1815 H1831 0.961 . S
C1816 C1817 1.370 . S
C1816 C1818 1.363 . S
C1816 H1832 0.931 . S
C1817 C1816 1.370 . S
C1817 C1821 1.408 . S
C1818 C1816 1.363 . S
C1818 C1819 1.370 . S
C1818 C1822 1.524 . S
C1819 C1811 1.503 . S
C1819 C1818 1.370 . S
C1819 C1820 1.403 . S
C1820 C1819 1.403 . S
C1820 C1821 1.404 . S
C1820 C1823 1.539 . S
C1821 C1817 1.408 . S
C1821 C1820 1.404 . S
C1821 H1833 0.930 . S
C1822 C1818 1.524 . S
C1822 H1834 0.956 . S
C1822 H1835 0.961 . S
C1822 H1836 0.961 . S
C1823 C1820 1.539 . S
C1823 H1837 0.958 . S
C1823 H1838 0.961 . S
C1823 H1839 0.960 . S
H1824 C1808 0.931 . S
H1825 C1813 0.929 . S
H1826 C1814 0.960 . S
H1827 C1814 0.962 . S
H1828 C1814 0.960 . S
H1829 C1815 0.961 . S
H1830 C1815 0.961 . S
H1831 C1815 0.961 . S
H1832 C1816 0.931 . S
H1833 C1821 0.930 . S
H1834 C1822 0.956 . S
H1835 C1822 0.961 . S
H1836 C1822 0.961 . S
H1837 C1823 0.958 . S
H1838 C1823 0.961 . S
H1839 C1823 0.960 . S
C1840 C1841 1.391 . S
C1840 C1842 1.394 . S
C1840 H1856 0.931 . S
C1841 C1840 1.391 . S
C1841 C1845 1.376 . S
C1842 C1840 1.394 . S
C1842 C1843 1.369 . S
C1842 C1846 1.531 . S
C1843 C1842 1.369 . S
C1843 C1844 1.410 . S
C1843 C1851 1.503 . S
C1844 C1843 1.410 . S
C1844 C1845 1.392 . S
C1844 C1847 1.511 . S
C1845 C1841 1.376 . S
C1845 C1844 1.392 . S
C1845 H1857 0.929 . S
C1846 C1842 1.531 . S
C1846 H1858 0.960 . S
C1846 H1859 0.962 . S
C1846 H1860 0.960 . S
C1847 C1844 1.511 . S
C1847 H1861 0.961 . S
C1847 H1862 0.961 . S
C1847 H1863 0.961 . S
C1848 C1849 1.370 . S
C1848 C1850 1.363 . S
C1848 H1864 0.931 . S
C1849 C1848 1.370 . S
C1849 C1853 1.408 . S
C1850 C1848 1.363 . S
C1850 C1851 1.370 . S
C1850 C1854 1.524 . S
C1851 C1843 1.503 . S
C1851 C1850 1.370 . S
C1851 C1852 1.403 . S
C1852 C1851 1.403 . S
C1852 C1853 1.404 . S
C1852 C1855 1.539 . S
C1853 C1849 1.408 . S
C1853 C1852 1.404 . S
C1853 H1865 0.930 . S
C1854 C1850 1.524 . S
C1854 H1866 0.956 . S
C1854 H1867 0.961 . S
C1854 H1868 0.961 . S
C1855 C1852 1.539 . S
C1855 H1869 0.958 . S
C1855 H1870 0.961 . S
C1855 H1871 0.960 . S
H1856 C1840 0.931 . S
H1857 C1845 0.929 . S
H1858 C1846 0.960 . S
H1859 C1846 0.962 . S
H1860 C1846 0.960 . S
H1861 C1847 0.961 . S
H1862 C1847 0.961 . S
H1863 C1847 0.961 . S
H1864 C1848 0.931 . S
H1865 C1853 0.930 . S
H1866 C1854 0.956 . S
H1867 C1854 0.961 . S
H1868 C1854 0.961 . S
H1869 C1855 0.958 . S
H1870 C1855 0.961 . S
H1871 C1855 0.960 . S
C849 C38 2.146 . S
C857 C251 2.147 . S
C881 C82 0.504 . S
C889 C294 0.550 . S
C913 C347 0.538 . S
C921 C135 0.489 . S
C945 C188 1.326 . S
C953 C410 1.317 . S
C977 C250 2.141 . S
C985 C39 2.152 . S
C1009 C552 0.524 . S
C1017 C446 0.555 . S
C1041 C340 0.532 . S
C1049 C128 0.485 . S
C1073 C499 1.310 . S
C1081 C621 1.324 . S
C1105 C674 1.336 . S
C1113 C764 1.360 . S
C1137 C453 0.528 . S
C1145 C559 0.479 . S
C1169 C718 0.524 . S
C1177 C824 0.481 . S
C1201 C622 1.337 . S
C1209 C506 1.346 . S
C1233 C771 1.334 . S
C1241 C675 1.352 . S
C1265 C75 0.509 . S
C1273 C287 0.490 . S
C1297 C711 0.515 . S
C1305 C817 0.496 . S
C1329 C409 1.353 . S
C1337 C181 1.344 . S
C1361 C29 1.214 . S
C1369 C393 1.191 . S
C1393 C234 1.455 . S
C1401 C91 1.454 . S
C1425 C303 1.990 . S
C1433 C144 1.996 . S
C1457 C197 1.661 . S
C1465 C356 1.653 . S
C1489 C22 1.177 . S
C1497 C612 1.216 . S
C1521 C463 1.455 . S
C1529 C241 1.454 . S
C1553 C569 1.988 . S
C1561 C145 1.991 . S
C1585 C516 1.645 . S
C1593 C357 1.661 . S
C1617 C665 1.234 . S
C1625 C605 1.205 . S
C1649 C781 1.496 . S
C1657 C462 1.480 . S
C1681 C568 1.996 . S
C1689 C727 1.999 . S
C1713 C833 1.645 . S
C1721 C515 1.661 . S
C1745 C400 1.194 . S
C1753 C658 1.220 . S
C1777 C780 1.496 . S
C1785 C92 1.477 . S
C1809 C304 1.997 . S
C1817 C728 1.996 . S
C1841 C834 1.648 . S
C1849 C198 1.656 . S
