# Generated by pormake.
# Topology mmt, (4)-cn, num edge types: 1
# Building blocks:
#     Node 0, Type 0, BuildingBlock: AZAVOO_clean_sbu_0, # of connection points: 4
#     Node 1, Type 0, BuildingBlock: AZAVOO_clean_sbu_0, # of connection points: 4
#     Node 2, Type 0, BuildingBlock: AZAVOO_clean_sbu_0, # of connection points: 4
#     Node 3, Type 0, BuildingBlock: AZAVOO_clean_sbu_0, # of connection points: 4
#     Node 4, Type 0, BuildingBlock: AZAVOO_clean_sbu_0, # of connection points: 4
#     Node 5, Type 0, BuildingBlock: AZAVOO_clean_sbu_0, # of connection points: 4
#     Node 6, Type 0, BuildingBlock: AZAVOO_clean_sbu_0, # of connection points: 4
#     Node 7, Type 0, BuildingBlock: AZAVOO_clean_sbu_0, # of connection points: 4
#     Edge 8, Type (0, 0), BuildingBlock: KIFKEQ_clean_linker_1, # of connection points: 2
#     Edge 9, Type (0, 0), BuildingBlock: KIFKEQ_clean_linker_1, # of connection points: 2
#     Edge 10, Type (0, 0), BuildingBlock: KIFKEQ_clean_linker_1, # of connection points: 2
#     Edge 11, Type (0, 0), BuildingBlock: KIFKEQ_clean_linker_1, # of connection points: 2
#     Edge 12, Type (0, 0), BuildingBlock: KIFKEQ_clean_linker_1, # of connection points: 2
#     Edge 13, Type (0, 0), BuildingBlock: KIFKEQ_clean_linker_1, # of connection points: 2
#     Edge 14, Type (0, 0), BuildingBlock: KIFKEQ_clean_linker_1, # of connection points: 2
#     Edge 15, Type (0, 0), BuildingBlock: KIFKEQ_clean_linker_1, # of connection points: 2
#     Edge 16, Type (0, 0), BuildingBlock: KIFKEQ_clean_linker_1, # of connection points: 2
#     Edge 17, Type (0, 0), BuildingBlock: KIFKEQ_clean_linker_1, # of connection points: 2
#     Edge 18, Type (0, 0), BuildingBlock: KIFKEQ_clean_linker_1, # of connection points: 2
#     Edge 19, Type (0, 0), BuildingBlock: KIFKEQ_clean_linker_1, # of connection points: 2
#     Edge 20, Type (0, 0), BuildingBlock: KIFKEQ_clean_linker_1, # of connection points: 2
#     Edge 21, Type (0, 0), BuildingBlock: KIFKEQ_clean_linker_1, # of connection points: 2
#     Edge 22, Type (0, 0), BuildingBlock: KIFKEQ_clean_linker_1, # of connection points: 2
#     Edge 23, Type (0, 0), BuildingBlock: KIFKEQ_clean_linker_1, # of connection points: 2
# Relax obj value: 0.098
# Max RMSD: 0.149
# Mean RMSD: 0.149
data_MOF--net-mmt--node1-AZAVOO_clean_sbu_0--edge1-KIFKEQ_clean_linker_1
_symmetry_space_group_name_H-M    P1
_symmetry_Int_Tables_number       1
_symmetry_cell_setting            triclinic
loop_
_symmetry_equiv_pos_as_xyz
'x, y, z'
_cell_length_a     21.082148
_cell_length_b     42.20907
_cell_length_c     44.293061
_cell_angle_alpha  89.914992
_cell_angle_beta   89.779911
_cell_angle_gamma 89.510084
loop_
_atom_site_label
_atom_site_type_symbol
_atom_site_fract_x
_atom_site_fract_y
_atom_site_fract_z
_atom_type_partial_charge
Mg0 Mg 0.22505 0.53945 0.36214 0.0
O1 O 0.14633 0.54031 0.32626 0.0
O2 O 0.18905 0.55731 0.28295 0.0
Mg3 Mg 0.29549 0.56518 0.28985 0.0
C4 C 0.14154 0.54774 0.29835 0.0
C5 C 0.15318 0.50733 0.41488 0.0
O6 O 0.19774 0.48651 0.40826 0.0
O7 O 0.22378 0.59422 0.36566 0.0
O8 O 0.27652 0.60542 0.32303 0.0
O9 O 0.25311 0.48943 0.34866 0.0
O10 O 0.29224 0.53256 0.32795 0.0
C11 C 0.25137 0.61391 0.34804 0.0
C12 C 0.28904 0.50227 0.32843 0.0
O13 O 0.15096 0.53316 0.39998 0.0
Mg14 Mg 0.26094 0.92437 0.36077 0.0
O15 O 0.33926 0.92733 0.32441 0.0
O16 O 0.30048 0.90964 0.28076 0.0
Mg17 Mg 0.19781 0.89505 0.28884 0.0
C18 C 0.34576 0.92093 0.29636 0.0
C19 C 0.32195 0.95365 0.41846 0.0
O20 O 0.26543 0.967 0.41902 0.0
O21 O 0.27432 0.87016 0.36428 0.0
O22 O 0.23316 0.8556 0.31994 0.0
O23 O 0.22381 0.97254 0.34713 0.0
O24 O 0.19122 0.92771 0.32737 0.0
C25 C 0.25871 0.84885 0.34525 0.0
C26 C 0.18879 0.95815 0.32759 0.0
O27 O 0.33512 0.93411 0.39744 0.0
Mg28 Mg 0.7282 0.42876 0.13386 0.0
O29 O 0.64744 0.43168 0.16918 0.0
O30 O 0.68369 0.41072 0.21232 0.0
Mg31 Mg 0.78755 0.39673 0.20579 0.0
C32 C 0.6395 0.42343 0.19672 0.0
C33 C 0.6352 0.46627 0.09076 0.0
O34 O 0.65324 0.48959 0.10828 0.0
O35 O 0.71607 0.37481 0.12918 0.0
O36 O 0.75566 0.35819 0.17335 0.0
O37 O 0.76451 0.47638 0.14875 0.0
O38 O 0.79536 0.43088 0.1684 0.0
C39 C 0.73141 0.35267 0.14756 0.0
C40 C 0.79809 0.46129 0.16861 0.0
O41 O 0.65698 0.43853 0.09566 0.0
Mg42 Mg 0.76364 0.04391 0.13509 0.0
O43 O 0.84282 0.04409 0.17063 0.0
O44 O 0.80299 0.0646 0.21316 0.0
Mg45 Mg 0.69744 0.07546 0.20601 0.0
C46 C 0.84909 0.05269 0.19809 0.0
C47 C 0.83768 0.00808 0.08409 0.0
O48 O 0.79551 -0.0132 0.09187 0.0
O49 O 0.76899 0.09823 0.12868 0.0
O50 O 0.718 0.11331 0.17078 0.0
O51 O 0.73162 -0.00442 0.15128 0.0
O52 O 0.69503 0.04066 0.16931 0.0
C53 C 0.74324 0.11959 0.14526 0.0
C54 C 0.6952 0.01028 0.17032 0.0
O55 O 0.83744 0.03462 0.0977 0.0
Mg56 Mg 0.76941 0.42665 0.63561 0.0
O57 O 0.84715 0.4307 0.67201 0.0
O58 O 0.80638 0.41422 0.71595 0.0
Mg59 Mg 0.70347 0.40006 0.70844 0.0
C60 C 0.85237 0.425 0.70028 0.0
C61 C 0.82978 0.4532 0.57654 0.0
O62 O 0.77282 0.46604 0.57564 0.0
O63 O 0.78142 0.37232 0.63396 0.0
O64 O 0.73801 0.35935 0.67848 0.0
O65 O 0.73271 0.47551 0.64699 0.0
O66 O 0.70048 0.43163 0.66923 0.0
C67 C 0.76428 0.35169 0.65348 0.0
C68 C 0.69882 0.46201 0.66767 0.0
O69 O 0.84361 0.43475 0.59835 0.0
Mg70 Mg 0.71704 0.04214 0.63074 0.0
O71 O 0.63712 0.03974 0.6665 0.0
O72 O 0.67693 0.05517 0.71081 0.0
Mg73 Mg 0.78134 0.06718 0.70425 0.0
C74 C 0.63083 0.04555 0.69471 0.0
C75 C 0.64532 0.00902 0.57849 0.0
O76 O 0.68844 -0.01224 0.58583 0.0
O77 O 0.70877 0.09672 0.62918 0.0
O78 O 0.75056 0.10849 0.6742 0.0
O79 O 0.75002 -0.00737 0.64264 0.0
O80 O 0.78398 0.03588 0.665 0.0
C81 C 0.72606 0.11682 0.64906 0.0
C82 C 0.78389 0.00552 0.66347 0.0
O83 O 0.64417 0.03528 0.59263 0.0
Mg84 Mg 0.26755 0.54582 0.86365 0.0
O85 O 0.34728 0.54201 0.82788 0.0
O86 O 0.3111 0.56307 0.7848 0.0
Mg87 Mg 0.20821 0.57854 0.79202 0.0
C88 C 0.35495 0.54984 0.80022 0.0
C89 C 0.33338 0.51081 0.91792 0.0
O90 O 0.28564 0.49171 0.91299 0.0
O91 O 0.28109 0.59962 0.86853 0.0
O92 O 0.24166 0.61677 0.8245 0.0
O93 O 0.22978 0.49863 0.8487 0.0
O94 O 0.19955 0.54449 0.82949 0.0
C95 C 0.26619 0.62195 0.85029 0.0
C96 C 0.1962 0.5141 0.82908 0.0
O97 O 0.33946 0.53525 0.90132 0.0
Mg98 Mg 0.2126 0.92955 0.85849 0.0
O99 O 0.13196 0.92892 0.82379 0.0
O100 O 0.16854 0.90581 0.78175 0.0
Mg101 Mg 0.2748 0.89579 0.78776 0.0
C102 C 0.12387 0.91888 0.7969 0.0
C103 C 0.15535 0.95719 0.91839 0.0
O104 O 0.21294 0.96879 0.91945 0.0
O105 O 0.20783 0.87538 0.86635 0.0
O106 O 0.25756 0.85902 0.82435 0.0
O107 O 0.24378 0.97741 0.84104 0.0
O108 O 0.27923 0.93187 0.82342 0.0
C109 C 0.23345 0.85357 0.85027 0.0
C110 C 0.27897 0.96224 0.82179 0.0
O111 O 0.14031 0.93972 0.89619 0.0
H112 H 0.2902 0.50832 0.26744 0.0
H113 H 0.37252 0.45489 0.34061 0.0
H114 H 0.365 0.48409 0.23214 0.0
H115 H 0.45081 0.43229 0.30618 0.0
H116 H 0.58039 0.38764 0.23934 0.0
H117 H 0.48462 0.40071 0.26772 0.0
H118 H 0.46834 0.48887 0.21811 0.0
H119 H 0.56108 0.47428 0.18835 0.0
C120 C 0.32431 0.49114 0.27583 0.0
C121 C 0.32603 0.48343 0.30661 0.0
C122 C 0.3678 0.47747 0.25571 0.0
C123 C 0.41547 0.4566 0.26614 0.0
C124 C 0.41475 0.44783 0.29691 0.0
C125 C 0.36996 0.46084 0.31683 0.0
C126 C 0.55546 0.40955 0.23427 0.0
C127 C 0.5782 0.43005 0.21179 0.0
C128 C 0.50076 0.41726 0.25074 0.0
C129 C 0.46853 0.44617 0.24578 0.0
C130 C 0.49058 0.46614 0.22247 0.0
C131 C 0.54426 0.45795 0.20543 0.0
H132 H 0.95071 0.01801 0.1774 0.0
H133 H 0.88429 0.07093 0.255 0.0
H134 H 0.04164 -0.0008 0.20639 0.0
H135 H 0.97529 0.05191 0.28391 0.0
H136 H 0.16932 0.02252 0.32296 0.0
H137 H 0.0958 0.05036 0.28902 0.0
H138 H 0.04233 0.96096 0.24982 0.0
H139 H 0.11372 0.93336 0.28369 0.0
C140 C 0.95598 0.02613 0.20043 0.0
C141 C 0.90954 0.04563 0.21397 0.0
C142 C 0.00803 0.01524 0.21707 0.0
C143 C 0.01517 0.02379 0.24752 0.0
C144 C 0.97121 0.04502 0.26046 0.0
C145 C 0.91884 0.05573 0.2439 0.0
C146 C 0.14231 0.00889 0.30686 0.0
C147 C 0.14801 0.97567 0.30591 0.0
C148 C 0.10021 0.02483 0.2875 0.0
C149 C 0.06379 0.00786 0.26656 0.0
C150 C 0.07067 0.97479 0.26524 0.0
C151 C 0.11179 0.95891 0.28477 0.0
H152 H 0.86766 0.43519 0.21431 0.0
H153 H 0.82189 0.52509 0.17263 0.0
H154 H 0.93989 0.46124 0.24833 0.0
H155 H 0.89618 0.55133 0.20678 0.0
H156 H 0.10869 0.56565 0.24094 0.0
H157 H 0.01627 0.54902 0.21228 0.0
H158 H 0.94423 0.50031 0.29083 0.0
H159 H 0.03668 0.51676 0.3196 0.0
C160 C 0.87188 0.46061 0.21273 0.0
C161 C 0.83834 0.478 0.1908 0.0
C162 C 0.91346 0.47561 0.23237 0.0
C163 C 0.92349 0.50837 0.23038 0.0
C164 C 0.88938 0.52602 0.2088 0.0
C165 C 0.8468 0.511 0.18933 0.0
C166 C 0.07266 0.55186 0.25232 0.0
C167 C 0.08071 0.54215 0.28249 0.0
C168 C 0.01944 0.54253 0.2359 0.0
C169 C 0.97336 0.5231 0.24922 0.0
C170 C 0.97943 0.51498 0.27988 0.0
C171 C 0.03235 0.52451 0.29638 0.0
H172 H 0.67467 0.94615 0.17534 0.0
H173 H 0.62079 0.03619 0.21445 0.0
H174 H 0.59839 0.91967 0.20874 0.0
H175 H 0.54698 0.01 0.24774 0.0
H176 H 0.44618 0.95449 0.31839 0.0
H177 H 0.54038 0.97162 0.29088 0.0
H178 H 0.47731 0.92126 0.21189 0.0
H179 H 0.3832 0.90396 0.23929 0.0
C180 C 0.64769 0.96023 0.19137 0.0
C181 C 0.65444 -0.00667 0.19231 0.0
C182 C 0.60399 0.94508 0.2104 0.0
C183 C 0.5671 0.96276 0.23101 0.0
C184 C 0.57554 -0.00437 0.23255 0.0
C185 C 0.61814 0.01071 0.21333 0.0
C186 C 0.45276 0.94665 0.29532 0.0
C187 C 0.40654 0.92825 0.28094 0.0
C188 C 0.50672 0.9565 0.27956 0.0
C189 C 0.51596 0.94794 0.24918 0.0
C190 C 0.47172 0.92803 0.23534 0.0
C191 C 0.41749 0.91839 0.25101 0.0
H192 H 0.42932 0.49767 0.80927 0.0
H193 H 0.41478 0.58277 0.75565 0.0
H194 H 0.51873 0.47988 0.7788 0.0
H195 H 0.50745 0.56645 0.72643 0.0
H196 H 0.6142 0.50872 0.65461 0.0
H197 H 0.53705 0.53285 0.68873 0.0
H198 H 0.62172 0.48201 0.76365 0.0
H199 H 0.69532 0.45633 0.72876 0.0
C200 C 0.44658 0.51299 0.79144 0.0
C201 C 0.41488 0.54144 0.78465 0.0
C202 C 0.49832 0.50292 0.77396 0.0
C203 C 0.52075 0.5215 0.74971 0.0
C204 C 0.49086 0.55092 0.74419 0.0
C205 C 0.43802 0.56052 0.76114 0.0
C206 C 0.61648 0.50312 0.67847 0.0
C207 C 0.65985 0.48045 0.68908 0.0
C208 C 0.57245 0.51707 0.69821 0.0
C209 C 0.57203 0.50924 0.72921 0.0
C210 C 0.61869 0.48796 0.73992 0.0
C211 C 0.66139 0.47337 0.72 0.0
H212 H 0.86917 0.95905 0.65054 0.0
H213 H 0.78284 0.00961 0.72465 0.0
H214 H 0.94427 0.93426 0.68505 0.0
H215 H 0.85405 0.9831 0.75991 0.0
H216 H 0.04465 0.969 0.80655 0.0
H217 H 0.95546 -0.01423 0.77604 0.0
H218 H 0.97447 0.90047 0.72243 0.0
H219 H 0.06728 0.88517 0.75185 0.0
C220 C 0.86524 0.96404 0.67446 0.0
C221 C 0.82109 -0.01356 0.685 0.0
C222 C 0.90807 0.9497 0.69443 0.0
C223 C 0.90648 0.95684 0.72556 0.0
C224 C 0.85875 0.9777 0.73613 0.0
C225 C 0.81734 -0.00726 0.716 0.0
C226 C 0.02914 0.95362 0.78851 0.0
C227 C 0.06323 0.9259 0.78146 0.0
C228 C 0.97741 0.96313 0.77096 0.0
C229 C 0.95722 0.94472 0.7463 0.0
C230 C 0.98926 0.91588 0.74054 0.0
C231 C 0.04218 0.90684 0.75762 0.0
H232 H 0.17437 0.45032 0.82339 0.0
H233 H 0.12368 0.54119 0.78498 0.0
H234 H 0.09953 0.42459 0.78924 0.0
H235 H 0.05055 0.51564 0.75096 0.0
H236 H 0.95183 0.46028 0.67913 0.0
H237 H 0.044 0.47819 0.70745 0.0
H238 H 0.98026 0.42561 0.78538 0.0
H239 H 0.88845 0.40755 0.7572 0.0
C240 C 0.14817 0.46475 0.80741 0.0
C241 C 0.1554 0.49783 0.80687 0.0
C242 C 0.10528 0.45003 0.78793 0.0
C243 C 0.06944 0.46809 0.76731 0.0
C244 C 0.07826 0.50099 0.76618 0.0
C245 C 0.12032 0.51567 0.78582 0.0
C246 C 0.95795 0.45212 0.70214 0.0
C247 C 0.91226 0.4328 0.71599 0.0
C248 C 0.01065 0.46247 0.71838 0.0
C249 C 0.01911 0.45347 0.74869 0.0
C250 C 0.97533 0.43276 0.762 0.0
C251 C 0.92239 0.42264 0.74588 0.0
H252 H 0.30249 0.02602 0.81653 0.0
H253 H 0.34784 0.93552 0.77605 0.0
H254 H 0.37854 0.05149 0.78233 0.0
H255 H 0.42163 0.96071 0.74209 0.0
H256 H 0.52781 0.0143 0.67215 0.0
H257 H 0.43188 -0.00095 0.69943 0.0
H258 H 0.49841 0.04782 0.77869 0.0
H259 H 0.59398 0.06326 0.75155 0.0
C260 C 0.32747 0.01166 0.80002 0.0
C261 C 0.31868 0.97868 0.79903 0.0
C262 C 0.37106 0.02622 0.78053 0.0
C263 C 0.40578 0.0081 0.75942 0.0
C264 C 0.39484 0.97544 0.75767 0.0
C265 C 0.35232 0.96092 0.77733 0.0
C266 C 0.52156 0.02222 0.69523 0.0
C267 C 0.56912 0.03956 0.70979 0.0
C268 C 0.46664 0.01346 0.71085 0.0
C269 C 0.45786 0.02208 0.74125 0.0
C270 C 0.50355 0.04104 0.75523 0.0
C271 C 0.55866 0.04959 0.73971 0.0
H272 H 0.05814 0.54576 0.43732 0.0
H273 H 0.14133 0.45241 0.44682 0.0
H274 H 0.98111 0.53318 0.47682 0.0
H275 H 0.06363 0.43955 0.48547 0.0
H276 H 0.95571 0.43643 0.57456 0.0
H277 H 0.03409 0.4506 0.53635 0.0
H278 H 0.88961 0.50138 0.48648 0.0
H279 H 0.81181 0.48798 0.52511 0.0
C280 C 0.05989 0.52254 0.44774 0.0
C281 C 0.10605 0.50015 0.4389 0.0
C282 C 0.01547 0.51522 0.47028 0.0
C283 C 0.01602 0.48531 0.48445 0.0
C284 C 0.06228 0.46299 0.47552 0.0
C285 C 0.10671 0.47033 0.45314 0.0
C286 C 0.94066 0.45058 0.55542 0.0
C287 C 0.8774 0.46102 0.55292 0.0
C288 C 0.98558 0.45863 0.5334 0.0
C289 C 0.96835 0.47718 0.50822 0.0
C290 C 0.90497 0.48752 0.50574 0.0
C291 C 0.86015 0.4796 0.52783 0.0
H292 H 0.44713 0.93562 0.42091 0.0
H293 H 0.30517 -0.00926 0.46848 0.0
H294 H 0.52568 0.9502 0.45856 0.0
H295 H 0.3831 0.00456 0.50659 0.0
H296 H 0.55295 0.04805 0.5547 0.0
H297 H 0.47613 0.03533 0.51545 0.0
H298 H 0.55372 0.94043 0.50975 0.0
H299 H 0.63123 0.95338 0.54812 0.0
C300 C 0.43254 0.95067 0.43951 0.0
C301 C 0.36976 0.96194 0.44166 0.0
C302 C 0.47756 0.95894 0.46123 0.0
C303 C 0.46091 0.97858 0.48575 0.0
C304 C 0.39804 -0.01017 0.48783 0.0
C305 C 0.35313 0.98167 0.46605 0.0
C306 C 0.55367 0.02452 0.54497 0.0
C307 C 0.5984 0.00179 0.55456 0.0
C308 C 0.50936 0.01714 0.52257 0.0
C309 C 0.50857 -0.01319 0.5093 0.0
C310 C 0.55343 0.96417 0.51898 0.0
C311 C 0.59775 0.97158 0.54121 0.0
H312 H 0.58348 0.52307 0.07342 0.0
H313 H 0.58697 0.42365 0.05035 0.0
H314 H 0.5115 0.53357 0.03162 0.0
H315 H 0.51568 0.43427 0.00817 0.0
H316 H 0.3336 0.46038 0.95675 0.0
H317 H 0.40632 0.4496 0.9982 0.0
H318 H 0.50928 0.5348 0.9767 0.0
H319 H 0.4358 0.5459 0.93548 0.0
C320 C 0.56905 0.50343 0.0594 0.0
C321 C 0.59105 0.47249 0.06531 0.0
C322 C 0.52805 0.50951 0.03526 0.0
C323 C 0.50783 0.4848 0.01643 0.0
C324 C 0.5297 0.45383 0.0224 0.0
C325 C 0.57086 0.44775 0.04652 0.0
C326 C 0.37177 0.47683 0.9608 0.0
C327 C 0.3787 0.50406 0.94277 0.0
C328 C 0.41375 0.47053 0.9845 0.0
C329 C 0.46374 0.49131 0.99084 0.0
C330 C 0.47085 0.51848 0.97272 0.0
C331 C 0.42891 0.52476 0.94895 0.0
H332 H 0.17453 -0.00857 0.9699 0.0
H333 H 0.0303 0.94016 0.9217 0.0
H334 H 0.09833 0.00378 0.00975 0.0
H335 H 0.95361 0.95316 0.96122 0.0
H336 H 0.85226 0.95293 0.05253 0.0
H337 H 0.9288 0.94082 0.01286 0.0
H338 H 0.00487 0.03521 0.02027 0.0
H339 H 0.92905 0.0471 0.06058 0.0
C340 C 0.12647 0.98289 0.96771 0.0
C341 C 0.10864 0.96472 0.94259 0.0
C342 C 0.08259 -0.00983 0.99051 0.0
C343 C 0.01967 0.97952 0.98877 0.0
C344 C 0.00184 0.9614 0.96357 0.0
C345 C 0.04577 0.95406 0.94079 0.0
C346 C 0.88528 0.97115 0.04574 0.0
C347 C 0.88444 0.00101 0.05979 0.0
C348 C 0.929 0.96425 0.0228 0.0
C349 C 0.97303 -0.01297 0.01322 0.0
C350 C 0.97222 0.01693 0.0273 0.0
C351 C 0.92848 0.02383 0.05032 0.0
H352 H 0.16843 0.65328 0.37924 0.0
H353 H 0.35265 0.65026 0.33633 0.0
H354 H 0.17789 0.71117 0.38479 0.0
H355 H 0.3624 0.70714 0.34231 0.0
H356 H 0.29498 0.80387 0.30572 0.0
H357 H 0.29768 0.74692 0.31313 0.0
H358 H 0.24516 0.75929 0.40673 0.0
H359 H 0.24287 0.81724 0.39921 0.0
C360 C 0.21137 0.66483 0.37171 0.0
C361 C 0.25909 0.64748 0.3567 0.0
C362 C 0.21695 0.69784 0.37499 0.0
C363 C 0.27049 0.71364 0.36351 0.0
C364 C 0.32014 0.6957 0.35086 0.0
C365 C 0.31438 0.66312 0.34737 0.0
C366 C 0.28502 0.79455 0.32804 0.0
C367 C 0.26902 0.81493 0.35191 0.0
C368 C 0.28668 0.76191 0.33232 0.0
C369 C 0.27172 0.74865 0.36053 0.0
C370 C 0.25675 0.76895 0.38475 0.0
C371 C 0.25612 0.80198 0.38054 0.0
H372 H 0.83248 0.15832 0.11864 0.0
H373 H 0.63721 0.15489 0.14796 0.0
H374 H 0.8222 0.21613 0.1117 0.0
H375 H 0.62668 0.21177 0.1406 0.0
H376 H 0.68455 0.30742 0.18379 0.0
H377 H 0.68311 0.25062 0.17502 0.0
H378 H 0.75909 0.26472 0.08536 0.0
H379 H 0.75958 0.32246 0.09417 0.0
C380 C 0.78704 0.16976 0.12263 0.0
C381 C 0.736 0.15244 0.13438 0.0
C382 C 0.78104 0.2027 0.11859 0.0
C383 C 0.72385 0.21838 0.12608 0.0
C384 C 0.6715 0.20037 0.1351 0.0
C385 C 0.67762 0.16785 0.13936 0.0
C386 C 0.6997 0.29848 0.16197 0.0
C387 C 0.72174 0.3192 0.13959 0.0
C388 C 0.69884 0.26599 0.1569 0.0
C389 C 0.7209 0.25329 0.12947 0.0
C390 C 0.74187 0.27399 0.10669 0.0
C391 C 0.74154 0.30687 0.11159 0.0
H392 H 0.76054 0.15023 0.59838 0.0
H393 H 0.68175 0.16069 0.68786 0.0
H394 H 0.77526 0.20794 0.59539 0.0
H395 H 0.69408 0.21776 0.68465 0.0
H396 H 0.80036 0.30625 0.6927 0.0
H397 H 0.78876 0.24936 0.68717 0.0
H398 H 0.72609 0.26255 0.59521 0.0
H399 H 0.74005 0.32008 0.60062 0.0
C400 C 0.74448 0.16499 0.61692 0.0
C401 C 0.72047 0.15116 0.64345 0.0
C402 C 0.75319 0.19794 0.61531 0.0
C403 C 0.73765 0.21732 0.64016 0.0
C404 C 0.70866 0.20345 0.66552 0.0
C405 C 0.7008 0.17079 0.66726 0.0
C406 C 0.78549 0.29696 0.67108 0.0
C407 C 0.77068 0.3175 0.64717 0.0
C408 C 0.77808 0.2644 0.66798 0.0
C409 C 0.75442 0.2515 0.64106 0.0
C410 C 0.74397 0.2718 0.61629 0.0
C411 C 0.75224 0.30465 0.61931 0.0
H412 H 0.31803 0.66767 0.81612 0.0
H413 H 0.22969 0.65142 0.90272 0.0
H414 H 0.31462 0.72452 0.82493 0.0
H415 H 0.22505 0.70908 0.91151 0.0
H416 H 0.14565 0.81274 0.87488 0.0
H417 H 0.16189 0.75544 0.88295 0.0
H418 H 0.36019 0.76545 0.86053 0.0
H419 H 0.34379 0.82189 0.85207 0.0
C420 C 0.29921 0.67636 0.83739 0.0
C421 C 0.27473 0.65531 0.85887 0.0
C422 C 0.2972 0.70889 0.84247 0.0
C423 C 0.26959 0.72121 0.86894 0.0
C424 C 0.24655 0.70014 0.89094 0.0
C425 C 0.24983 0.66729 0.88608 0.0
C426 C 0.19288 0.80269 0.87266 0.0
C427 C 0.2433 0.82142 0.86244 0.0
C428 C 0.20227 0.77003 0.87732 0.0
C429 C 0.26217 0.75603 0.8719 0.0
C430 C 0.31343 0.77553 0.86444 0.0
C431 C 0.30401 0.80779 0.85961 0.0
loop_
_geom_bond_atom_site_label_1
_geom_bond_atom_site_label_2
_geom_bond_distance
_geom_bond_site_symmetry_2
_ccdc_geom_bond_type
Mg0 O1 2.028 . S
Mg0 O7 1.986 . S
Mg0 O9 2.114 . S
Mg0 O10 2.251 . S
Mg0 O13 2.010 . S
O1 Mg0 2.028 . S
O1 C4 1.250 . S
O2 Mg3 2.028 . S
O2 C4 1.248 . S
Mg3 O2 2.028 . S
Mg3 O8 2.032 . S
Mg3 O10 2.079 . S
C4 O1 1.250 . S
C4 O2 1.248 . S
C5 O6 1.264 . S
C5 O13 1.249 . S
O6 C5 1.264 . S
O7 Mg0 1.986 . S
O7 C11 1.246 . S
O8 Mg3 2.032 . S
O8 C11 1.259 . S
O9 Mg0 2.114 . S
O9 C12 1.252 . S
O10 Mg0 2.251 . S
O10 Mg3 2.079 . S
O10 C12 1.273 . S
C11 O7 1.246 . S
C11 O8 1.259 . S
C12 O9 1.252 . S
C12 O10 1.273 . S
O13 Mg0 2.010 . S
O13 C5 1.249 . S
Mg14 O15 2.028 . S
Mg14 O21 1.986 . S
Mg14 O23 2.114 . S
Mg14 O24 2.251 . S
Mg14 O27 2.010 . S
O15 Mg14 2.028 . S
O15 C18 1.250 . S
O16 Mg17 2.028 . S
O16 C18 1.248 . S
Mg17 O16 2.028 . S
Mg17 O22 2.032 . S
Mg17 O24 2.079 . S
C18 O15 1.250 . S
C18 O16 1.248 . S
C19 O20 1.264 . S
C19 O27 1.249 . S
O20 C19 1.264 . S
O21 Mg14 1.986 . S
O21 C25 1.246 . S
O22 Mg17 2.032 . S
O22 C25 1.259 . S
O23 Mg14 2.114 . S
O23 C26 1.252 . S
O24 Mg14 2.251 . S
O24 Mg17 2.079 . S
O24 C26 1.273 . S
C25 O21 1.246 . S
C25 O22 1.259 . S
C26 O23 1.252 . S
C26 O24 1.273 . S
O27 Mg14 2.010 . S
O27 C19 1.249 . S
Mg28 O29 2.028 . S
Mg28 O35 1.986 . S
Mg28 O37 2.114 . S
Mg28 O38 2.251 . S
Mg28 O41 2.010 . S
O29 Mg28 2.028 . S
O29 C32 1.250 . S
O30 Mg31 2.028 . S
O30 C32 1.248 . S
Mg31 O30 2.028 . S
Mg31 O36 2.032 . S
Mg31 O38 2.079 . S
C32 O29 1.250 . S
C32 O30 1.248 . S
C33 O34 1.264 . S
C33 O41 1.249 . S
O34 C33 1.264 . S
O35 Mg28 1.986 . S
O35 C39 1.246 . S
O36 Mg31 2.032 . S
O36 C39 1.259 . S
O37 Mg28 2.114 . S
O37 C40 1.252 . S
O38 Mg28 2.251 . S
O38 Mg31 2.079 . S
O38 C40 1.273 . S
C39 O35 1.246 . S
C39 O36 1.259 . S
C40 O37 1.252 . S
C40 O38 1.273 . S
O41 Mg28 2.010 . S
O41 C33 1.249 . S
Mg42 O43 2.028 . S
Mg42 O49 1.986 . S
Mg42 O51 2.114 . S
Mg42 O52 2.251 . S
Mg42 O55 2.010 . S
O43 Mg42 2.028 . S
O43 C46 1.250 . S
O44 Mg45 2.028 . S
O44 C46 1.248 . S
Mg45 O44 2.028 . S
Mg45 O50 2.032 . S
Mg45 O52 2.079 . S
C46 O43 1.250 . S
C46 O44 1.248 . S
C47 O48 1.264 . S
C47 O55 1.249 . S
O48 C47 1.264 . S
O49 Mg42 1.986 . S
O49 C53 1.246 . S
O50 Mg45 2.032 . S
O50 C53 1.259 . S
O51 Mg42 2.114 . S
O51 C54 1.252 . S
O52 Mg42 2.251 . S
O52 Mg45 2.079 . S
O52 C54 1.273 . S
C53 O49 1.246 . S
C53 O50 1.259 . S
C54 O51 1.252 . S
C54 O52 1.273 . S
O55 Mg42 2.010 . S
O55 C47 1.249 . S
Mg56 O57 2.028 . S
Mg56 O63 1.986 . S
Mg56 O65 2.114 . S
Mg56 O66 2.251 . S
Mg56 O69 2.010 . S
O57 Mg56 2.028 . S
O57 C60 1.250 . S
O58 Mg59 2.028 . S
O58 C60 1.248 . S
Mg59 O58 2.028 . S
Mg59 O64 2.032 . S
Mg59 O66 2.079 . S
C60 O57 1.250 . S
C60 O58 1.248 . S
C61 O62 1.264 . S
C61 O69 1.249 . S
O62 C61 1.264 . S
O63 Mg56 1.986 . S
O63 C67 1.246 . S
O64 Mg59 2.032 . S
O64 C67 1.259 . S
O65 Mg56 2.114 . S
O65 C68 1.252 . S
O66 Mg56 2.251 . S
O66 Mg59 2.079 . S
O66 C68 1.273 . S
C67 O63 1.246 . S
C67 O64 1.259 . S
C68 O65 1.252 . S
C68 O66 1.273 . S
O69 Mg56 2.010 . S
O69 C61 1.249 . S
Mg70 O71 2.028 . S
Mg70 O77 1.986 . S
Mg70 O79 2.114 . S
Mg70 O80 2.251 . S
Mg70 O83 2.010 . S
O71 Mg70 2.028 . S
O71 C74 1.250 . S
O72 Mg73 2.028 . S
O72 C74 1.248 . S
Mg73 O72 2.028 . S
Mg73 O78 2.032 . S
Mg73 O80 2.079 . S
C74 O71 1.250 . S
C74 O72 1.248 . S
C75 O76 1.264 . S
C75 O83 1.249 . S
O76 C75 1.264 . S
O77 Mg70 1.986 . S
O77 C81 1.246 . S
O78 Mg73 2.032 . S
O78 C81 1.259 . S
O79 Mg70 2.114 . S
O79 C82 1.252 . S
O80 Mg70 2.251 . S
O80 Mg73 2.079 . S
O80 C82 1.273 . S
C81 O77 1.246 . S
C81 O78 1.259 . S
C82 O79 1.252 . S
C82 O80 1.273 . S
O83 Mg70 2.010 . S
O83 C75 1.249 . S
Mg84 O85 2.028 . S
Mg84 O91 1.986 . S
Mg84 O93 2.114 . S
Mg84 O94 2.251 . S
Mg84 O97 2.010 . S
O85 Mg84 2.028 . S
O85 C88 1.250 . S
O86 Mg87 2.028 . S
O86 C88 1.248 . S
Mg87 O86 2.028 . S
Mg87 O92 2.032 . S
Mg87 O94 2.079 . S
C88 O85 1.250 . S
C88 O86 1.248 . S
C89 O90 1.264 . S
C89 O97 1.249 . S
O90 C89 1.264 . S
O91 Mg84 1.986 . S
O91 C95 1.246 . S
O92 Mg87 2.032 . S
O92 C95 1.259 . S
O93 Mg84 2.114 . S
O93 C96 1.252 . S
O94 Mg84 2.251 . S
O94 Mg87 2.079 . S
O94 C96 1.273 . S
C95 O91 1.246 . S
C95 O92 1.259 . S
C96 O93 1.252 . S
C96 O94 1.273 . S
O97 Mg84 2.010 . S
O97 C89 1.249 . S
Mg98 O99 2.028 . S
Mg98 O105 1.986 . S
Mg98 O107 2.114 . S
Mg98 O108 2.251 . S
Mg98 O111 2.010 . S
O99 Mg98 2.028 . S
O99 C102 1.250 . S
O100 Mg101 2.028 . S
O100 C102 1.248 . S
Mg101 O100 2.028 . S
Mg101 O106 2.032 . S
Mg101 O108 2.079 . S
C102 O99 1.250 . S
C102 O100 1.248 . S
C103 O104 1.264 . S
C103 O111 1.249 . S
O104 C103 1.264 . S
O105 Mg98 1.986 . S
O105 C109 1.246 . S
O106 Mg101 2.032 . S
O106 C109 1.259 . S
O107 Mg98 2.114 . S
O107 C110 1.252 . S
O108 Mg98 2.251 . S
O108 Mg101 2.079 . S
O108 C110 1.273 . S
C109 O105 1.246 . S
C109 O106 1.259 . S
C110 O107 1.252 . S
C110 O108 1.273 . S
O111 Mg98 2.010 . S
O111 C103 1.249 . S
H112 C120 0.950 . S
H113 C125 0.950 . S
H114 C122 0.950 . S
H115 C124 0.950 . S
H116 C126 0.950 . S
H117 C128 0.950 . S
H118 C130 0.950 . S
H119 C131 0.950 . S
C120 H112 0.950 . S
C120 C121 1.386 . S
C120 C122 1.391 . S
C121 C120 1.386 . S
C121 C125 1.393 . S
C122 H114 0.950 . S
C122 C120 1.391 . S
C122 C123 1.400 . S
C123 C122 1.400 . S
C123 C124 1.398 . S
C123 C129 1.491 . S
C124 H115 0.950 . S
C124 C123 1.398 . S
C124 C125 1.391 . S
C125 H113 0.950 . S
C125 C121 1.393 . S
C125 C124 1.391 . S
C126 H116 0.950 . S
C126 C127 1.386 . S
C126 C128 1.391 . S
C127 C126 1.386 . S
C127 C131 1.393 . S
C128 H117 0.950 . S
C128 C126 1.391 . S
C128 C129 1.400 . S
C129 C123 1.491 . S
C129 C128 1.400 . S
C129 C130 1.398 . S
C130 H118 0.950 . S
C130 C129 1.398 . S
C130 C131 1.391 . S
C131 H119 0.950 . S
C131 C127 1.393 . S
C131 C130 1.391 . S
H132 C140 0.950 1_565 S
H133 C145 0.950 . S
H134 C142 0.950 . S
H135 C144 0.950 . S
H136 C146 0.950 . S
H137 C148 0.950 . S
H138 C150 0.950 . S
H139 C151 0.950 . S
C140 H132 0.950 1_545 S
C140 C141 1.386 . S
C140 C142 1.391 1_645 S
C141 C140 1.386 . S
C141 C145 1.393 1_655 S
C142 H134 0.950 . S
C142 C140 1.391 1_465 S
C142 C143 1.400 1_565 S
C143 C142 1.400 1_545 S
C143 C144 1.398 . S
C143 C149 1.491 . S
C144 H135 0.950 . S
C144 C143 1.398 . S
C144 C145 1.391 . S
C145 H133 0.950 . S
C145 C141 1.393 1_455 S
C145 C144 1.391 . S
C146 H136 0.950 . S
C146 C147 1.386 1_545 S
C146 C148 1.391 . S
C147 C146 1.386 1_565 S
C147 C151 1.393 . S
C148 H137 0.950 . S
C148 C146 1.391 . S
C148 C149 1.400 . S
C149 C143 1.491 . S
C149 C148 1.400 . S
C149 C150 1.398 1_545 S
C150 H138 0.950 . S
C150 C149 1.398 1_565 S
C150 C151 1.391 . S
C151 H139 0.950 . S
C151 C147 1.393 . S
C151 C150 1.391 . S
H152 C160 0.950 . S
H153 C165 0.950 . S
H154 C162 0.950 . S
H155 C164 0.950 . S
H156 C166 0.950 . S
H157 C168 0.950 . S
H158 C170 0.950 . S
H159 C171 0.950 . S
C160 H152 0.950 . S
C160 C161 1.386 . S
C160 C162 1.391 . S
C161 C160 1.386 . S
C161 C165 1.393 . S
C162 H154 0.950 . S
C162 C160 1.391 . S
C162 C163 1.400 . S
C163 C162 1.400 . S
C163 C164 1.398 . S
C163 C169 1.491 . S
C164 H155 0.950 . S
C164 C163 1.398 . S
C164 C165 1.391 . S
C165 H153 0.950 . S
C165 C161 1.393 . S
C165 C164 1.391 . S
C166 H156 0.950 . S
C166 C167 1.386 1_655 S
C166 C168 1.391 . S
C167 C166 1.386 1_455 S
C167 C171 1.393 . S
C168 H157 0.950 . S
C168 C166 1.391 . S
C168 C169 1.400 . S
C169 C163 1.491 . S
C169 C168 1.400 . S
C169 C170 1.398 . S
C170 H158 0.950 . S
C170 C169 1.398 . S
C170 C171 1.391 1_655 S
C171 H159 0.950 . S
C171 C167 1.393 . S
C171 C170 1.391 1_455 S
H172 C180 0.950 . S
H173 C185 0.950 . S
H174 C182 0.950 1_565 S
H175 C184 0.954 . S
H176 C186 0.950 . S
H177 C188 0.950 . S
H178 C190 0.950 . S
H179 C191 0.950 . S
C180 H172 0.950 . S
C180 C181 1.386 . S
C180 C182 1.391 . S
C181 C180 1.386 . S
C181 C185 1.393 . S
C182 H174 0.950 1_545 S
C182 C180 1.391 . S
C182 C183 1.400 1_545 S
C183 C182 1.400 1_565 S
C183 C184 1.400 . S
C183 C189 1.491 . S
C184 H175 0.954 . S
C184 C183 1.400 . S
C184 C185 1.385 1_565 S
C185 H173 0.950 . S
C185 C181 1.393 . S
C185 C184 1.385 1_545 S
C186 H176 0.950 . S
C186 C187 1.386 . S
C186 C188 1.391 . S
C187 C186 1.386 . S
C187 C191 1.393 . S
C188 H177 0.950 . S
C188 C186 1.391 . S
C188 C189 1.400 . S
C189 C183 1.491 . S
C189 C188 1.400 . S
C189 C190 1.398 . S
C190 H178 0.950 . S
C190 C189 1.398 . S
C190 C191 1.391 . S
C191 H179 0.950 . S
C191 C187 1.393 . S
C191 C190 1.391 . S
H192 C200 0.950 . S
H193 C205 0.950 . S
H194 C202 0.950 . S
H195 C204 0.950 . S
H196 C206 0.950 . S
H197 C208 0.950 . S
H198 C210 0.950 . S
H199 C211 0.950 . S
C200 H192 0.950 . S
C200 C201 1.386 . S
C200 C202 1.391 . S
C201 C200 1.386 . S
C201 C205 1.393 . S
C202 H194 0.950 . S
C202 C200 1.391 . S
C202 C203 1.400 . S
C203 C202 1.400 . S
C203 C204 1.398 . S
C203 C209 1.491 . S
C204 H195 0.950 . S
C204 C203 1.398 . S
C204 C205 1.391 . S
C205 H193 0.950 . S
C205 C201 1.393 . S
C205 C204 1.391 . S
C206 H196 0.950 . S
C206 C207 1.386 . S
C206 C208 1.391 . S
C207 C206 1.386 . S
C207 C211 1.393 . S
C208 H197 0.950 . S
C208 C206 1.391 . S
C208 C209 1.400 . S
C209 C203 1.491 . S
C209 C208 1.400 . S
C209 C210 1.398 . S
C210 H198 0.950 . S
C210 C209 1.398 . S
C210 C211 1.391 . S
C211 H199 0.950 . S
C211 C207 1.393 . S
C211 C210 1.391 . S
H212 C220 0.950 1_565 S
H213 C225 0.950 . S
H214 C222 0.950 . S
H215 C224 0.950 . S
H216 C226 0.950 . S
H217 C228 0.950 1_545 S
H218 C230 0.950 . S
H219 C231 0.950 . S
C220 H212 0.950 1_545 S
C220 C221 1.386 . S
C220 C222 1.391 1_545 S
C221 C220 1.386 . S
C221 C225 1.393 . S
C222 H214 0.950 . S
C222 C220 1.391 1_565 S
C222 C223 1.400 . S
C223 C222 1.400 . S
C223 C224 1.398 1_565 S
C223 C229 1.491 . S
C224 H215 0.950 . S
C224 C223 1.398 1_545 S
C224 C225 1.391 . S
C225 H213 0.950 . S
C225 C221 1.393 . S
C225 C224 1.391 . S
C226 H216 0.950 . S
C226 C227 1.386 1_655 S
C226 C228 1.391 . S
C227 C226 1.386 1_455 S
C227 C231 1.393 . S
C228 H217 0.950 1_565 S
C228 C226 1.391 . S
C228 C229 1.400 . S
C229 C223 1.491 . S
C229 C228 1.400 . S
C229 C230 1.398 . S
C230 H218 0.950 . S
C230 C229 1.398 . S
C230 C231 1.391 1_655 S
C231 H219 0.950 . S
C231 C227 1.393 . S
C231 C230 1.391 1_455 S
H232 C240 0.950 . S
H233 C245 0.950 . S
H234 C242 0.950 . S
H235 C244 0.950 . S
H236 C246 0.950 . S
H237 C248 0.950 . S
H238 C250 0.948 1_655 S
H239 C251 0.950 . S
C240 H232 0.950 . S
C240 C241 1.386 . S
C240 C242 1.391 . S
C241 C240 1.386 . S
C241 C245 1.393 . S
C242 H234 0.950 . S
C242 C240 1.391 . S
C242 C243 1.400 . S
C243 C242 1.400 . S
C243 C244 1.398 . S
C243 C249 1.491 . S
C244 H235 0.950 . S
C244 C243 1.398 . S
C244 C245 1.391 . S
C245 H233 0.950 . S
C245 C241 1.393 . S
C245 C244 1.391 . S
C246 H236 0.950 . S
C246 C247 1.386 1_455 S
C246 C248 1.391 . S
C247 C246 1.386 1_655 S
C247 C251 1.393 . S
C248 H237 0.950 . S
C248 C246 1.391 . S
C248 C249 1.400 . S
C249 C243 1.491 . S
C249 C248 1.400 . S
C249 C250 1.406 . S
C250 H238 0.948 1_455 S
C250 C249 1.406 . S
C250 C251 1.385 1_455 S
C251 H239 0.950 . S
C251 C247 1.393 . S
C251 C250 1.385 1_655 S
H252 C260 0.950 . S
H253 C265 0.950 . S
H254 C262 0.950 . S
H255 C264 0.950 . S
H256 C266 0.950 . S
H257 C268 0.950 . S
H258 C270 0.950 . S
H259 C271 0.950 . S
C260 H252 0.950 . S
C260 C261 1.386 . S
C260 C262 1.391 . S
C261 C260 1.386 . S
C261 C265 1.393 . S
C262 H254 0.950 . S
C262 C260 1.391 . S
C262 C263 1.400 1_565 S
C263 C262 1.400 1_545 S
C263 C264 1.398 . S
C263 C269 1.491 . S
C264 H255 0.950 . S
C264 C263 1.398 . S
C264 C265 1.391 1_545 S
C265 H253 0.950 . S
C265 C261 1.393 . S
C265 C264 1.391 1_565 S
C266 H256 0.950 . S
C266 C267 1.386 . S
C266 C268 1.391 . S
C267 C266 1.386 . S
C267 C271 1.393 . S
C268 H257 0.950 . S
C268 C266 1.391 . S
C268 C269 1.400 . S
C269 C263 1.491 . S
C269 C268 1.400 . S
C269 C270 1.398 . S
C270 H258 0.950 . S
C270 C269 1.398 . S
C270 C271 1.391 . S
C271 H259 0.950 . S
C271 C267 1.393 . S
C271 C270 1.391 . S
H272 C280 0.950 . S
H273 C285 0.950 . S
H274 C282 0.940 1_655 S
H275 C284 0.950 . S
H276 C286 0.950 . S
H277 C288 0.940 1_455 S
H278 C290 0.950 . S
H279 C291 0.950 . S
C280 H272 0.950 . S
C280 C281 1.386 . S
C280 C282 1.398 . S
C281 C280 1.386 . S
C281 C285 1.393 . S
C282 H274 0.940 1_455 S
C282 C280 1.398 . S
C282 C283 1.403 . S
C283 C282 1.403 . S
C283 C284 1.398 . S
C283 C289 1.491 1_455 S
C284 H275 0.950 . S
C284 C283 1.398 . S
C284 C285 1.391 . S
C285 H273 0.950 . S
C285 C281 1.393 . S
C285 C284 1.391 . S
C286 H276 0.950 . S
C286 C287 1.386 . S
C286 C288 1.398 . S
C287 C286 1.386 . S
C287 C291 1.393 . S
C288 H277 0.940 1_655 S
C288 C286 1.398 . S
C288 C289 1.403 . S
C289 C283 1.491 1_655 S
C289 C288 1.403 . S
C289 C290 1.398 . S
C290 H278 0.950 . S
C290 C289 1.398 . S
C290 C291 1.391 . S
C291 H279 0.950 . S
C291 C287 1.393 . S
C291 C290 1.391 . S
H292 C300 0.950 . S
H293 C305 0.950 . S
H294 C302 0.950 . S
H295 C304 0.950 . S
H296 C306 0.950 . S
H297 C308 0.950 . S
H298 C310 0.950 . S
H299 C311 0.950 . S
C300 H292 0.950 . S
C300 C301 1.386 . S
C300 C302 1.391 . S
C301 C300 1.386 . S
C301 C305 1.393 1_565 S
C302 H294 0.950 . S
C302 C300 1.391 . S
C302 C303 1.400 . S
C303 C302 1.400 . S
C303 C304 1.398 1_565 S
C303 C309 1.491 1_565 S
C304 H295 0.950 . S
C304 C303 1.398 1_545 S
C304 C305 1.391 . S
C305 H293 0.950 . S
C305 C301 1.393 1_545 S
C305 C304 1.391 . S
C306 H296 0.950 . S
C306 C307 1.386 . S
C306 C308 1.391 . S
C307 C306 1.386 . S
C307 C311 1.393 1_545 S
C308 H297 0.950 . S
C308 C306 1.391 . S
C308 C309 1.400 . S
C309 C303 1.491 1_545 S
C309 C308 1.400 . S
C309 C310 1.398 1_545 S
C310 H298 0.950 . S
C310 C309 1.398 1_565 S
C310 C311 1.391 . S
C311 H299 0.950 . S
C311 C307 1.393 1_565 S
C311 C310 1.391 . S
H312 C320 0.950 . S
H313 C325 0.950 . S
H314 C322 0.950 . S
H315 C324 0.950 . S
H316 C326 0.950 . S
H317 C328 0.950 . S
H318 C330 0.950 . S
H319 C331 0.950 . S
C320 H312 0.950 . S
C320 C321 1.386 . S
C320 C322 1.391 . S
C321 C320 1.386 . S
C321 C325 1.393 . S
C322 H314 0.950 . S
C322 C320 1.391 . S
C322 C323 1.400 . S
C323 C322 1.400 . S
C323 C324 1.398 . S
C323 C329 1.491 1_554 S
C324 H315 0.950 . S
C324 C323 1.398 . S
C324 C325 1.391 . S
C325 H313 0.950 . S
C325 C321 1.393 . S
C325 C324 1.391 . S
C326 H316 0.950 . S
C326 C327 1.386 . S
C326 C328 1.391 . S
C327 C326 1.386 . S
C327 C331 1.393 . S
C328 H317 0.950 . S
C328 C326 1.391 . S
C328 C329 1.400 . S
C329 C323 1.491 1_556 S
C329 C328 1.400 . S
C329 C330 1.398 . S
C330 H318 0.950 . S
C330 C329 1.398 . S
C330 C331 1.391 . S
C331 H319 0.950 . S
C331 C327 1.393 . S
C331 C330 1.391 . S
H332 C340 0.951 . S
H333 C345 0.950 1_655 S
H334 C342 0.950 . S
H335 C344 0.950 . S
H336 C346 0.951 . S
H337 C348 0.950 . S
H338 C350 0.950 . S
H339 C351 0.950 1_455 S
C340 H332 0.951 . S
C340 C341 1.386 . S
C340 C342 1.391 1_565 S
C341 C340 1.386 . S
C341 C345 1.393 . S
C342 H334 0.950 . S
C342 C340 1.391 1_545 S
C342 C343 1.400 1_545 S
C343 C342 1.400 1_565 S
C343 C344 1.398 1_455 S
C343 C349 1.491 1_466 S
C344 H335 0.950 . S
C344 C343 1.398 1_655 S
C344 C345 1.391 1_655 S
C345 H333 0.950 1_455 S
C345 C341 1.393 . S
C345 C344 1.391 1_455 S
C346 H336 0.951 . S
C346 C347 1.386 . S
C346 C348 1.391 1_545 S
C347 C346 1.386 . S
C347 C351 1.393 . S
C348 H337 0.950 . S
C348 C346 1.391 1_565 S
C348 C349 1.400 1_565 S
C349 C343 1.491 1_644 S
C349 C348 1.400 1_545 S
C349 C350 1.398 1_655 S
C350 H338 0.950 . S
C350 C349 1.398 1_455 S
C350 C351 1.391 1_455 S
C351 H339 0.950 1_655 S
C351 C347 1.393 . S
C351 C350 1.391 1_655 S
H352 C360 0.950 . S
H353 C365 0.950 . S
H354 C362 0.950 . S
H355 C364 0.950 . S
H356 C366 0.950 . S
H357 C368 0.950 . S
H358 C370 0.950 . S
H359 C371 0.950 . S
C360 H352 0.950 . S
C360 C361 1.386 . S
C360 C362 1.391 . S
C361 C360 1.386 . S
C361 C365 1.393 . S
C362 H354 0.950 . S
C362 C360 1.391 . S
C362 C363 1.400 . S
C363 C362 1.400 . S
C363 C364 1.398 . S
C363 C369 1.491 . S
C364 H355 0.950 . S
C364 C363 1.398 . S
C364 C365 1.391 . S
C365 H353 0.950 . S
C365 C361 1.393 . S
C365 C364 1.391 . S
C366 H356 0.950 . S
C366 C367 1.386 . S
C366 C368 1.391 . S
C367 C366 1.386 . S
C367 C371 1.393 . S
C368 H357 0.950 . S
C368 C366 1.391 . S
C368 C369 1.400 . S
C369 C363 1.491 . S
C369 C368 1.400 . S
C369 C370 1.398 . S
C370 H358 0.950 . S
C370 C369 1.398 . S
C370 C371 1.391 . S
C371 H359 0.950 . S
C371 C367 1.393 . S
C371 C370 1.391 . S
H372 C380 0.950 . S
H373 C385 0.950 . S
H374 C382 0.950 . S
H375 C384 0.950 . S
H376 C386 0.950 . S
H377 C388 0.950 . S
H378 C390 0.950 . S
H379 C391 0.950 . S
C380 H372 0.950 . S
C380 C381 1.386 . S
C380 C382 1.391 . S
C381 C380 1.386 . S
C381 C385 1.393 . S
C382 H374 0.950 . S
C382 C380 1.391 . S
C382 C383 1.400 . S
C383 C382 1.400 . S
C383 C384 1.398 . S
C383 C389 1.491 . S
C384 H375 0.950 . S
C384 C383 1.398 . S
C384 C385 1.391 . S
C385 H373 0.950 . S
C385 C381 1.393 . S
C385 C384 1.391 . S
C386 H376 0.950 . S
C386 C387 1.386 . S
C386 C388 1.391 . S
C387 C386 1.386 . S
C387 C391 1.393 . S
C388 H377 0.950 . S
C388 C386 1.391 . S
C388 C389 1.400 . S
C389 C383 1.491 . S
C389 C388 1.400 . S
C389 C390 1.398 . S
C390 H378 0.950 . S
C390 C389 1.398 . S
C390 C391 1.391 . S
C391 H379 0.950 . S
C391 C387 1.393 . S
C391 C390 1.391 . S
H392 C400 0.950 . S
H393 C405 0.950 . S
H394 C402 0.950 . S
H395 C404 0.950 . S
H396 C406 0.950 . S
H397 C408 0.950 . S
H398 C410 0.950 . S
H399 C411 0.950 . S
C400 H392 0.950 . S
C400 C401 1.386 . S
C400 C402 1.391 . S
C401 C400 1.386 . S
C401 C405 1.393 . S
C402 H394 0.950 . S
C402 C400 1.391 . S
C402 C403 1.400 . S
C403 C402 1.400 . S
C403 C404 1.398 . S
C403 C409 1.491 . S
C404 H395 0.950 . S
C404 C403 1.398 . S
C404 C405 1.391 . S
C405 H393 0.950 . S
C405 C401 1.393 . S
C405 C404 1.391 . S
C406 H396 0.950 . S
C406 C407 1.386 . S
C406 C408 1.391 . S
C407 C406 1.386 . S
C407 C411 1.393 . S
C408 H397 0.950 . S
C408 C406 1.391 . S
C408 C409 1.400 . S
C409 C403 1.491 . S
C409 C408 1.400 . S
C409 C410 1.398 . S
C410 H398 0.950 . S
C410 C409 1.398 . S
C410 C411 1.391 . S
C411 H399 0.950 . S
C411 C407 1.393 . S
C411 C410 1.391 . S
H412 C420 0.950 . S
H413 C425 0.950 . S
H414 C422 0.950 . S
H415 C424 0.950 . S
H416 C426 0.950 . S
H417 C428 0.950 . S
H418 C430 0.950 . S
H419 C431 0.950 . S
C420 H412 0.950 . S
C420 C421 1.386 . S
C420 C422 1.391 . S
C421 C420 1.386 . S
C421 C425 1.393 . S
C422 H414 0.950 . S
C422 C420 1.391 . S
C422 C423 1.400 . S
C423 C422 1.400 . S
C423 C424 1.398 . S
C423 C429 1.491 . S
C424 H415 0.950 . S
C424 C423 1.398 . S
C424 C425 1.391 . S
C425 H413 0.950 . S
C425 C421 1.393 . S
C425 C424 1.391 . S
C426 H416 0.950 . S
C426 C427 1.386 . S
C426 C428 1.391 . S
C427 C426 1.386 . S
C427 C431 1.393 . S
C428 H417 0.950 . S
C428 C426 1.391 . S
C428 C429 1.400 . S
C429 C423 1.491 . S
C429 C428 1.400 . S
C429 C430 1.398 . S
C430 H418 0.950 . S
C430 C429 1.398 . S
C430 C431 1.391 . S
C431 H419 0.950 . S
C431 C427 1.393 . S
C431 C430 1.391 . S
C121 C12 1.150 . S
C127 C32 1.133 . S
C141 C46 1.135 . S
C147 C26 1.151 . S
C161 C40 1.152 . S
C167 C4 1.136 . S
C181 C54 1.147 . S
C187 C18 1.120 . S
C201 C88 1.111 . S
C207 C68 1.143 . S
C221 C82 1.146 . S
C227 C102 1.126 . S
C241 C96 1.140 . S
C247 C60 1.112 . S
C261 C110 1.141 . S
C267 C74 1.114 . S
C281 C5 1.398 . S
C287 C61 1.398 . S
C301 C19 1.399 . S
C307 C75 1.399 . S
C321 C33 1.358 . S
C327 C89 1.358 . S
C341 C103 1.394 . S
C347 C47 1.394 . S
C361 C11 1.494 . S
C367 C25 1.482 . S
C381 C53 1.498 . S
C387 C39 1.483 . S
C401 C81 1.502 . S
C407 C67 1.492 . S
C421 C95 1.482 . S
C427 C109 1.492 . S
