# Generated by pormake.
# Topology yfz, (5)-cn, num edge types: 1
# Building blocks:
#     Node 0, Type 0, BuildingBlock: BEQFEK_clean_sbu_0, # of connection points: 5
#     Node 1, Type 0, BuildingBlock: BEQFEK_clean_sbu_0, # of connection points: 5
#     Node 2, Type 0, BuildingBlock: BEQFEK_clean_sbu_0, # of connection points: 5
#     Node 3, Type 0, BuildingBlock: BEQFEK_clean_sbu_0, # of connection points: 5
#     Node 4, Type 0, BuildingBlock: BEQFEK_clean_sbu_0, # of connection points: 5
#     Node 5, Type 0, BuildingBlock: BEQFEK_clean_sbu_0, # of connection points: 5
#     Node 6, Type 0, BuildingBlock: BEQFEK_clean_sbu_0, # of connection points: 5
#     Node 7, Type 0, BuildingBlock: BEQFEK_clean_sbu_0, # of connection points: 5
#     Edge 8, Type (0, 0), BuildingBlock: CIFDUS_clean_linker_0, # of connection points: 2
#     Edge 9, Type (0, 0), BuildingBlock: CIFDUS_clean_linker_0, # of connection points: 2
#     Edge 10, Type (0, 0), BuildingBlock: CIFDUS_clean_linker_0, # of connection points: 2
#     Edge 11, Type (0, 0), BuildingBlock: CIFDUS_clean_linker_0, # of connection points: 2
#     Edge 12, Type (0, 0), BuildingBlock: CIFDUS_clean_linker_0, # of connection points: 2
#     Edge 13, Type (0, 0), BuildingBlock: CIFDUS_clean_linker_0, # of connection points: 2
#     Edge 14, Type (0, 0), BuildingBlock: CIFDUS_clean_linker_0, # of connection points: 2
#     Edge 15, Type (0, 0), BuildingBlock: CIFDUS_clean_linker_0, # of connection points: 2
#     Edge 16, Type (0, 0), BuildingBlock: CIFDUS_clean_linker_0, # of connection points: 2
#     Edge 17, Type (0, 0), BuildingBlock: CIFDUS_clean_linker_0, # of connection points: 2
#     Edge 18, Type (0, 0), BuildingBlock: CIFDUS_clean_linker_0, # of connection points: 2
#     Edge 19, Type (0, 0), BuildingBlock: CIFDUS_clean_linker_0, # of connection points: 2
#     Edge 20, Type (0, 0), BuildingBlock: CIFDUS_clean_linker_0, # of connection points: 2
#     Edge 21, Type (0, 0), BuildingBlock: CIFDUS_clean_linker_0, # of connection points: 2
#     Edge 22, Type (0, 0), BuildingBlock: CIFDUS_clean_linker_0, # of connection points: 2
#     Edge 23, Type (0, 0), BuildingBlock: CIFDUS_clean_linker_0, # of connection points: 2
#     Edge 24, Type (0, 0), BuildingBlock: CIFDUS_clean_linker_0, # of connection points: 2
#     Edge 25, Type (0, 0), BuildingBlock: CIFDUS_clean_linker_0, # of connection points: 2
#     Edge 26, Type (0, 0), BuildingBlock: CIFDUS_clean_linker_0, # of connection points: 2
#     Edge 27, Type (0, 0), BuildingBlock: CIFDUS_clean_linker_0, # of connection points: 2
# Relax obj value: 0.201
# Max RMSD: 0.177
# Mean RMSD: 0.177
data_MOF--net-yfz--node1-BEQFEK_clean_sbu_0--edge1-CIFDUS_clean_linker_0
_symmetry_space_group_name_H-M    P1
_symmetry_Int_Tables_number       1
_symmetry_cell_setting            triclinic
loop_
_symmetry_equiv_pos_as_xyz
'x, y, z'
_cell_length_a     45.482492
_cell_length_b     45.502854
_cell_length_c     17.083802
_cell_angle_alpha  89.824256
_cell_angle_beta   90.096248
_cell_angle_gamma 90.041674
loop_
_atom_site_label
_atom_site_type_symbol
_atom_site_fract_x
_atom_site_fract_y
_atom_site_fract_z
_atom_type_partial_charge
Co0 Co 0.60202 0.1015 0.23939 0.0
Co1 Co 0.61705 0.11723 0.41171 0.0
C2 C 0.6639 0.09645 0.30931 0.0
O3 O 0.64523 0.09443 0.2539 0.0
O4 O 0.65626 0.10492 0.37715 0.0
C5 C 0.60925 0.07338 0.092 0.0
O6 O 0.63428 0.06451 0.12229 0.0
C7 C 0.63137 0.11353 0.58024 0.0
C8 C 0.59509 0.14047 0.62751 0.0
C9 C 0.61801 0.12218 0.6494 0.0
N10 N 0.61638 0.1256 0.52029 0.0
N11 N 0.59528 0.14228 0.54909 0.0
C12 C 0.65553 0.09144 0.57101 0.0
H13 H 0.65557 0.08207 0.51128 0.0
H14 H 0.65315 0.07341 0.61445 0.0
H15 H 0.67698 0.10241 0.58129 0.0
C16 C 0.55489 0.06707 0.31955 0.0
N17 N 0.57909 0.08416 0.31934 0.0
N18 N 0.58845 0.08749 0.39131 0.0
C19 C 0.5723 0.07039 0.43925 0.0
C20 C 0.54951 0.0574 0.39633 0.0
C21 C 0.53645 0.0625 0.24797 0.0
H22 H 0.54028 0.08047 0.20516 0.0
H23 H 0.54266 0.04143 0.21998 0.0
H24 H 0.51274 0.06197 0.26317 0.0
O25 O 0.59567 0.14386 0.23675 0.0
O26 O 0.60682 0.15548 0.35905 0.0
H27 H 0.57293 0.07957 0.56228 0.0
H28 H 0.57457 0.04074 0.53864 0.0
C29 C 0.58181 0.06306 0.52096 0.0
H30 H 0.60603 0.0633 0.52422 0.0
H31 H 0.57985 0.15346 0.51493 0.0
O32 O 0.59106 0.0872 0.13453 0.0
C33 C 0.59886 0.16293 0.29018 0.0
Co34 Co 0.39647 0.60318 0.75359 0.0
Co35 Co 0.38052 0.61952 0.92754 0.0
C36 C 0.40344 0.66471 0.81657 0.0
O37 O 0.40418 0.64526 0.76355 0.0
O38 O 0.39549 0.65827 0.8862 0.0
C39 C 0.42772 0.60818 0.60887 0.0
O40 O 0.4433 0.62766 0.64754 0.0
C41 C 0.38964 0.62546 0.09962 0.0
C42 C 0.34539 0.6126 0.14038 0.0
C43 C 0.37363 0.6184 0.16669 0.0
N44 N 0.37178 0.62258 0.03701 0.0
N45 N 0.34519 0.61584 0.06233 0.0
C46 C 0.42177 0.63226 0.09374 0.0
H47 H 0.42966 0.62895 0.03295 0.0
H48 H 0.43466 0.61852 0.13511 0.0
H49 H 0.42531 0.65561 0.1097 0.0
C50 C 0.43416 0.55925 0.83525 0.0
N51 N 0.41502 0.58186 0.83544 0.0
N52 N 0.40681 0.58725 0.90802 0.0
C53 C 0.41935 0.56706 0.95552 0.0
C54 C 0.43774 0.54937 0.91163 0.0
C55 C 0.44853 0.54753 0.76317 0.0
H56 H 0.43238 0.53398 0.73044 0.0
H57 H 0.45529 0.56601 0.72473 0.0
H58 H 0.46796 0.53383 0.77783 0.0
O59 O 0.35317 0.59726 0.756 0.0
O60 O 0.34236 0.6109 0.87705 0.0
H61 H 0.38723 0.56787 0.04806 0.0
H62 H 0.41158 0.53685 0.05061 0.0
C63 C 0.41016 0.56076 0.03805 0.0
H64 H 0.42524 0.57194 0.07918 0.0
H65 H 0.32727 0.61155 0.02596 0.0
O66 O 0.40908 0.59257 0.64594 0.0
C67 C 0.33443 0.60189 0.80984 0.0
Co68 Co 0.89845 0.40026 0.19352 0.0
Co69 Co 0.88381 0.38102 0.3646 0.0
C70 C 0.83744 0.40505 0.25702 0.0
O71 O 0.85602 0.40812 0.20215 0.0
O72 O 0.84515 0.39528 0.32398 0.0
C73 C 0.89509 0.42751 0.04284 0.0
O74 O 0.87074 0.43899 0.07037 0.0
C75 C 0.87086 0.39253 0.52851 0.0
C76 C 0.89002 0.35339 0.58604 0.0
C77 C 0.87742 0.38051 0.60108 0.0
N78 N 0.87979 0.37362 0.47325 0.0
N79 N 0.89052 0.34994 0.50791 0.0
C80 C 0.8599 0.42288 0.51136 0.0
H81 H 0.86538 0.42941 0.45045 0.0
H82 H 0.8694 0.43892 0.55321 0.0
H83 H 0.83564 0.42322 0.51811 0.0
C84 C 0.94173 0.4379 0.27684 0.0
N85 N 0.91987 0.41791 0.27592 0.0
N86 N 0.91477 0.40881 0.34786 0.0
C87 C 0.93396 0.42214 0.39659 0.0
C88 C 0.9513 0.44136 0.35355 0.0
C89 C 0.9527 0.4536 0.2056 0.0
H90 H 0.93397 0.45907 0.16651 0.0
H91 H 0.96464 0.47402 0.22135 0.0
H92 H 0.96777 0.43886 0.17314 0.0
O93 O 0.90393 0.35705 0.1933 0.0
O94 O 0.89324 0.34307 0.3143 0.0
H95 H 0.961 0.41942 0.50058 0.0
H96 H 0.92287 0.42713 0.51746 0.0
C97 C 0.9383 0.41427 0.48102 0.0
H98 H 0.93435 0.39052 0.49025 0.0
H99 H 0.89984 0.33224 0.47823 0.0
O100 O 0.91167 0.41291 0.08859 0.0
C101 C 0.90089 0.33696 0.24461 0.0
Co102 Co 0.10335 0.88989 0.74464 0.0
Co103 Co 0.11359 0.87678 0.92091 0.0
C104 C 0.09807 0.82855 0.81486 0.0
O105 O 0.09796 0.84709 0.75894 0.0
O106 O 0.10309 0.83655 0.88514 0.0
C107 C 0.07226 0.88442 0.59951 0.0
O108 O 0.05318 0.86839 0.63837 0.0
C109 C 0.11027 0.86537 0.09324 0.0
C110 C 0.14279 0.89852 0.13186 0.0
C111 C 0.1236 0.87728 0.15899 0.0
N112 N 0.12107 0.87929 0.02985 0.0
N113 N 0.14055 0.89891 0.05365 0.0
C114 C 0.08851 0.84071 0.09074 0.0
H115 H 0.08737 0.83107 0.03132 0.0
H116 H 0.06641 0.84905 0.10647 0.0
H117 H 0.09459 0.82355 0.13417 0.0
C118 C 0.06046 0.93265 0.81092 0.0
N119 N 0.08092 0.91138 0.81775 0.0
N120 N 0.08459 0.90494 0.89221 0.0
C121 C 0.06629 0.9216 0.93522 0.0
C122 C 0.05053 0.93995 0.88536 0.0
C123 C 0.05152 0.94624 0.73471 0.0
H124 H 0.07062 0.94725 0.69452 0.0
H125 H 0.03435 0.93235 0.70714 0.0
H126 H 0.04254 0.96866 0.74344 0.0
O127 O 0.14569 0.89911 0.75209 0.0
O128 O 0.15231 0.8874 0.87644 0.0
H129 H 0.08162 0.92787 0.0524 0.0
H130 H 0.04201 0.92888 0.04282 0.0
C131 C 0.0624 0.91821 0.02174 0.0
H132 H 0.06119 0.89458 0.03644 0.0
H133 H 0.15207 0.91297 0.01635 0.0
O134 O 0.09264 0.89772 0.63596 0.0
C135 C 0.16241 0.89614 0.81117 0.0
Co136 Co 0.6014 0.39983 0.29405 0.0
Co137 Co 0.61601 0.38192 0.12218 0.0
C138 C 0.66284 0.40411 0.22771 0.0
O139 O 0.64415 0.40666 0.28254 0.0
O140 O 0.65519 0.3952 0.16005 0.0
C141 C 0.60755 0.42718 0.44333 0.0
O142 O 0.63237 0.43705 0.41419 0.0
C143 C 0.6313 0.38797 0.95587 0.0
C144 C 0.60154 0.35485 0.90409 0.0
C145 C 0.6209 0.37727 0.88506 0.0
N146 N 0.61791 0.37309 0.01385 0.0
N147 N 0.60087 0.35275 0.98251 0.0
C148 C 0.65057 0.41424 0.96861 0.0
H149 H 0.64729 0.42333 0.02812 0.0
H150 H 0.64595 0.43151 0.92424 0.0
H151 H 0.6739 0.40752 0.9626 0.0
C152 C 0.55802 0.438 0.21238 0.0
N153 N 0.57968 0.41783 0.2124 0.0
N154 N 0.58607 0.41079 0.13974 0.0
C155 C 0.5687 0.42652 0.09097 0.0
C156 C 0.55023 0.44421 0.13531 0.0
C157 C 0.54475 0.45043 0.28518 0.0
H158 H 0.54163 0.43269 0.32905 0.0
H159 H 0.56009 0.46684 0.31048 0.0
H160 H 0.5233 0.46112 0.27296 0.0
O161 O 0.59491 0.35701 0.29626 0.0
O162 O 0.60602 0.34416 0.17492 0.0
H163 H 0.5672 0.4043 0.98074 0.0
H164 H 0.55688 0.44249 0.97445 0.0
C165 C 0.57168 0.42661 0.00367 0.0
H166 H 0.59435 0.43299 0.98825 0.0
H167 H 0.58731 0.33871 0.01469 0.0
O168 O 0.58975 0.41345 0.39914 0.0
C169 C 0.59806 0.33742 0.24409 0.0
Co170 Co 0.10793 0.60526 0.7147 0.0
Co171 Co 0.12187 0.61823 0.53958 0.0
C172 C 0.10238 0.66619 0.64233 0.0
O173 O 0.10143 0.64778 0.69852 0.0
O174 O 0.10937 0.65823 0.57322 0.0
C175 C 0.07818 0.61168 0.86203 0.0
O176 O 0.06088 0.63045 0.82594 0.0
C177 C 0.12105 0.62891 0.36636 0.0
C178 C 0.15233 0.59405 0.3321 0.0
C179 C 0.13399 0.61553 0.302 0.0
N180 N 0.131 0.61537 0.43141 0.0
N181 N 0.14992 0.59487 0.41023 0.0
C182 C 0.10039 0.65451 0.36627 0.0
H183 H 0.10218 0.66681 0.42197 0.0
H184 H 0.07745 0.64656 0.36026 0.0
H185 H 0.10516 0.66934 0.31614 0.0
C186 C 0.06709 0.56174 0.64268 0.0
N187 N 0.08769 0.58299 0.63874 0.0
N188 N 0.09295 0.58927 0.56488 0.0
C189 C 0.07549 0.57254 0.51937 0.0
C190 C 0.0587 0.55426 0.5669 0.0
C191 C 0.05617 0.54871 0.71768 0.0
H192 H 0.07433 0.54756 0.76101 0.0
H193 H 0.03874 0.56308 0.7419 0.0
H194 H 0.04695 0.52641 0.70821 0.0
O195 O 0.15052 0.59763 0.71242 0.0
O196 O 0.16027 0.60921 0.58956 0.0
H197 H 0.0923 0.56651 0.40368 0.0
H198 H 0.05261 0.56587 0.40901 0.0
C199 C 0.0728 0.57625 0.43257 0.0
H200 H 0.07196 0.59993 0.41839 0.0
H201 H 0.16065 0.58082 0.44929 0.0
O202 O 0.0965 0.59666 0.82291 0.0
C203 C 0.16878 0.60102 0.65702 0.0
Co204 Co 0.88945 0.10012 0.2324 0.0
Co205 Co 0.87843 0.12032 0.06084 0.0
C206 C 0.82951 0.09718 0.16155 0.0
O207 O 0.84702 0.09308 0.21862 0.0
O208 O 0.83868 0.10739 0.0965 0.0
C209 C 0.8839 0.07313 0.38306 0.0
O210 O 0.85862 0.06363 0.35584 0.0
C211 C 0.86587 0.10945 0.89718 0.0
C212 C 0.88778 0.14706 0.83941 0.0
C213 C 0.8732 0.1209 0.82468 0.0
N214 N 0.87608 0.12779 0.95225 0.0
N215 N 0.88855 0.15058 0.91753 0.0
C216 C 0.85283 0.07993 0.91452 0.0
H217 H 0.85842 0.07284 0.97495 0.0
H218 H 0.86072 0.06335 0.87191 0.0
H219 H 0.82855 0.08139 0.90934 0.0
C220 C 0.93273 0.06137 0.15439 0.0
N221 N 0.91161 0.08208 0.15267 0.0
N222 N 0.90791 0.09129 0.08026 0.0
C223 C 0.92722 0.07716 0.03371 0.0
C224 C 0.94329 0.0575 0.07889 0.0
C225 C 0.94191 0.04526 0.22687 0.0
H226 H 0.92225 0.03978 0.26241 0.0
H227 H 0.95397 0.02478 0.21268 0.0
H228 H 0.9563 0.05974 0.26241 0.0
O229 O 0.89627 0.14314 0.23448 0.0
O230 O 0.88878 0.15783 0.11232 0.0
H231 H 0.95487 0.07758 0.93078 0.0
H232 H 0.91629 0.07247 0.9126 0.0
C233 C 0.9325 0.08434 0.94928 0.0
H234 H 0.9302 0.10826 0.93928 0.0
H235 H 0.89903 0.16767 0.94718 0.0
O236 O 0.90131 0.08672 0.33751 0.0
C237 C 0.89525 0.16345 0.1832 0.0
Co238 Co 0.39105 0.90087 0.78543 0.0
Co239 Co 0.38583 0.87953 0.61297 0.0
C240 C 0.40142 0.83682 0.73022 0.0
O241 O 0.39873 0.8577 0.77929 0.0
O242 O 0.39824 0.8413 0.65688 0.0
C243 C 0.42264 0.90013 0.93021 0.0
O244 O 0.44312 0.88633 0.89063 0.0
C245 C 0.39013 0.86813 0.43854 0.0
C246 C 0.35653 0.90045 0.40138 0.0
C247 C 0.37641 0.88021 0.37317 0.0
N248 N 0.37879 0.88102 0.50279 0.0
N249 N 0.3587 0.90015 0.47956 0.0
C250 C 0.41266 0.84423 0.43967 0.0
H251 H 0.41667 0.83645 0.50038 0.0
H252 H 0.43354 0.85254 0.41447 0.0
H253 H 0.40514 0.8257 0.40255 0.0
C254 C 0.42833 0.94671 0.70696 0.0
N255 N 0.41227 0.92181 0.70814 0.0
N256 N 0.41306 0.90969 0.63874 0.0
C257 C 0.43166 0.92478 0.5928 0.0
C258 C 0.44141 0.94981 0.63278 0.0
C259 C 0.42885 0.96761 0.77435 0.0
H260 H 0.41028 0.96303 0.81464 0.0
H261 H 0.44966 0.96475 0.80752 0.0
H262 H 0.4273 0.99065 0.75325 0.0
O263 O 0.34885 0.90708 0.77309 0.0
O264 O 0.3456 0.8883 0.65428 0.0
H265 H 0.42858 0.91959 0.46839 0.0
H266 H 0.46591 0.9194 0.50622 0.0
C267 C 0.44292 0.91244 0.51747 0.0
H268 H 0.4425 0.88815 0.52059 0.0
H269 H 0.34677 0.91359 0.51728 0.0
O270 O 0.40082 0.9112 0.89411 0.0
C271 C 0.33354 0.89935 0.71451 0.0
H272 H 0.44882 0.96661 0.47896 0.0
H273 H 0.47679 0.98981 0.71282 0.0
H274 H 0.50611 0.02948 0.65914 0.0
H275 H 0.52611 0.05554 0.54503 0.0
H276 H 0.51729 0.01473 0.31789 0.0
H277 H 0.47822 0.9839 0.36842 0.0
C278 C 0.46236 0.97885 0.51921 0.0
C279 C 0.46017 0.97426 0.60082 0.0
C280 C 0.48264 0.9989 0.48798 0.0
C281 C 0.47662 0.99281 0.65026 0.0
C282 C 0.49408 0.01536 0.61936 0.0
C283 C 0.51709 0.03905 0.50652 0.0
C284 C 0.52538 0.03799 0.42691 0.0
C285 C 0.49771 0.01816 0.53818 0.0
C286 C 0.51112 0.01746 0.37832 0.0
C287 C 0.48902 0.99915 0.40772 0.0
H288 H 0.50782 0.4372 0.02453 0.0
H289 H 0.54575 0.50134 0.18012 0.0
H290 H 0.51388 0.53941 0.12493 0.0
H291 H 0.47691 0.55489 0.02833 0.0
H292 H 0.44151 0.49196 0.86552 0.0
H293 H 0.47164 0.45306 0.92503 0.0
C294 C 0.50917 0.45958 0.04587 0.0
C295 C 0.52917 0.46655 0.10598 0.0
C296 C 0.49171 0.48157 0.01146 0.0
C297 C 0.53034 0.49543 0.13441 0.0
C298 C 0.51237 0.51724 0.10229 0.0
C299 C 0.4759 0.53261 0.00596 0.0
C300 C 0.45723 0.52613 0.94275 0.0
C301 C 0.49329 0.51062 0.04016 0.0
C302 C 0.45607 0.49738 0.91361 0.0
C303 C 0.47307 0.47518 0.94804 0.0
H304 H 0.94744 0.47872 0.47558 0.0
H305 H 0.00756 0.44689 0.30061 0.0
H306 H 0.04679 0.47769 0.35492 0.0
H307 H 0.06377 0.51369 0.45221 0.0
H308 H 0.00296 0.54731 0.62319 0.0
H309 H 0.96443 0.51484 0.57281 0.0
C310 C 0.9692 0.47854 0.44965 0.0
C311 C 0.97472 0.46075 0.38418 0.0
C312 C 0.99152 0.49621 0.48128 0.0
C313 C 0.00281 0.46075 0.35044 0.0
C314 C 0.02524 0.47814 0.38185 0.0
C315 C 0.04203 0.51391 0.47821 0.0
C316 C 0.03612 0.53287 0.5411 0.0
C317 C 0.01981 0.49596 0.4472 0.0
C318 C 0.00809 0.53266 0.57528 0.0
C319 C 0.986 0.51435 0.54594 0.0
H320 H 0.94034 0.01957 0.95773 0.0
H321 H 0.99841 0.05086 0.13886 0.0
H322 H 0.0374 0.01828 0.09193 0.0
H323 H 0.05475 0.98083 -0.00053 0.0
H324 H 0.99608 0.94804 0.82157 0.0
H325 H 0.95779 0.98209 0.86494 0.0
C326 C 0.96161 0.01926 0.98655 0.0
C327 C 0.96661 0.03738 0.05169 0.0
C328 C 0.98382 0.00054 0.95915 0.0
C329 C 0.99407 0.03676 0.08918 0.0
C330 C 0.01636 0.01833 0.06204 0.0
C331 C 0.03351 0.98111 0.97051 0.0
C332 C 0.02811 0.96193 0.90776 0.0
C333 C 0.01144 0.0001 -0.0028 0.0
C334 C 0.00077 0.96281 0.8696 0.0
C335 C 0.97883 0.98205 0.89484 0.0
H336 H 0.59579 0.20975 0.38955 0.0
H337 H 0.59366 0.1869 0.14439 0.0
H338 H 0.59171 0.23869 0.10873 0.0
H339 H 0.59356 0.29056 0.14629 0.0
H340 H 0.59478 0.31377 0.39112 0.0
H341 H 0.59387 0.26187 0.42739 0.0
C342 C 0.59471 0.2161 0.32836 0.0
C343 C 0.59514 0.1944 0.26989 0.0
C344 C 0.5935 0.24603 0.30797 0.0
C345 C 0.59341 0.20305 0.19082 0.0
C346 C 0.59238 0.23272 0.17019 0.0
C347 C 0.59341 0.28429 0.20761 0.0
C348 C 0.5945 0.30606 0.26576 0.0
C349 C 0.59286 0.2544 0.22819 0.0
C350 C 0.59397 0.29751 0.34499 0.0
C351 C 0.59357 0.2678 0.36589 0.0
H352 H 0.19603 0.59649 0.79827 0.0
H353 H 0.21321 0.59758 0.5498 0.0
H354 H 0.26604 0.59579 0.57509 0.0
H355 H 0.30743 0.59713 0.66781 0.0
H356 H 0.2899 0.59823 0.91612 0.0
H357 H 0.23722 0.5958 0.89065 0.0
C358 C 0.21129 0.596 0.74956 0.0
C359 C 0.20063 0.59728 0.67229 0.0
C360 C 0.24164 0.59554 0.76445 0.0
C361 C 0.22079 0.59678 0.60992 0.0
C362 C 0.25103 0.59577 0.62429 0.0
C363 C 0.2921 0.59652 0.71637 0.0
C364 C 0.30265 0.59802 0.79373 0.0
C365 C 0.26172 0.59564 0.70134 0.0
C366 C 0.28243 0.59734 0.85594 0.0
C367 C 0.25226 0.59592 0.84149 0.0
H368 H 0.90273 0.21142 0.08953 0.0
H369 H 0.89805 0.18496 0.33217 0.0
H370 H 0.90113 0.2362 0.37276 0.0
H371 H 0.90192 0.28867 0.33932 0.0
H372 H 0.90704 0.31511 0.0967 0.0
H373 H 0.90729 0.26375 0.05654 0.0
C374 C 0.90258 0.21682 0.15132 0.0
C375 C 0.89987 0.19434 0.20757 0.0
C376 C 0.90436 0.24637 0.17442 0.0
C377 C 0.90005 0.20177 0.28747 0.0
C378 C 0.90173 0.23111 0.31084 0.0
C379 C 0.90332 0.28323 0.27767 0.0
C380 C 0.90417 0.30579 0.2212 0.0
C381 C 0.90339 0.25361 0.25479 0.0
C382 C 0.90629 0.29826 0.14158 0.0
C383 C 0.90633 0.26886 0.11842 0.0
H384 H 0.2997 0.90902 0.84266 0.0
H385 H 0.29447 0.89478 0.5933 0.0
H386 H 0.24083 0.89503 0.60013 0.0
H387 H 0.19543 0.89607 0.67832 0.0
H388 H 0.2012 0.90759 0.9286 0.0
H389 H 0.25454 0.91187 0.91978 0.0
C390 C 0.28686 0.90629 0.78961 0.0
C391 C 0.30111 0.90179 0.71768 0.0
C392 C 0.25606 0.90585 0.79415 0.0
C393 C 0.28407 0.89812 0.64959 0.0
C394 C 0.25338 0.89826 0.65339 0.0
C395 C 0.20835 0.8999 0.73074 0.0
C396 C 0.19437 0.90143 0.80398 0.0
C397 C 0.23914 0.90165 0.72555 0.0
C398 C 0.21143 0.90615 0.87152 0.0
C399 C 0.24194 0.90859 0.86659 0.0
H400 H 0.41527 0.78742 0.64811 0.0
H401 H 0.39721 0.8182 0.88194 0.0
H402 H 0.3985 0.76792 0.93124 0.0
H403 H 0.4005 0.71463 0.90616 0.0
H404 H 0.41944 0.68443 0.67205 0.0
H405 H 0.42236 0.73477 0.62575 0.0
C406 C 0.4119 0.78317 0.70997 0.0
C407 C 0.40577 0.80658 0.76076 0.0
C408 C 0.41269 0.75415 0.73827 0.0
C409 C 0.40183 0.80064 0.84109 0.0
C410 C 0.40248 0.77182 0.86954 0.0
C411 C 0.40567 0.71906 0.84532 0.0
C412 C 0.40932 0.6956 0.79286 0.0
C413 C 0.40726 0.74831 0.81839 0.0
C414 C 0.41624 0.70189 0.71411 0.0
C415 C 0.41786 0.73078 0.68717 0.0
H416 H 0.79203 0.40908 0.36054 0.0
H417 H 0.81192 0.41216 0.11356 0.0
H418 H 0.75968 0.41403 0.08253 0.0
H419 H 0.70818 0.41059 0.1248 0.0
H420 H 0.6883 0.4085 0.37184 0.0
H421 H 0.74051 0.41072 0.40311 0.0
C422 C 0.78495 0.41047 0.29998 0.0
C423 C 0.80592 0.41012 0.23963 0.0
C424 C 0.75479 0.41155 0.28228 0.0
C425 C 0.79633 0.41231 0.16141 0.0
C426 C 0.76639 0.41326 0.14342 0.0
C427 C 0.71526 0.4109 0.18546 0.0
C428 C 0.69432 0.40904 0.24569 0.0
C429 C 0.74541 0.41222 0.20329 0.0
C430 C 0.70389 0.40985 0.32409 0.0
C431 C 0.7338 0.411 0.34219 0.0
H432 H 0.09516 0.80407 0.67015 0.0
H433 H 0.09324 0.78193 0.91621 0.0
H434 H 0.09191 0.7297 0.88343 0.0
H435 H 0.09482 0.69061 0.78577 0.0
H436 H 0.09926 0.7127 0.53992 0.0
H437 H 0.09584 0.76491 0.57216 0.0
C438 C 0.09416 0.7879 0.71684 0.0
C439 C 0.09447 0.79699 0.79571 0.0
C440 C 0.094 0.75794 0.69763 0.0
C441 C 0.09317 0.77561 0.85513 0.0
C442 C 0.09245 0.74573 0.8364 0.0
C443 C 0.09476 0.70675 0.73892 0.0
C444 C 0.09746 0.69767 0.66038 0.0
C445 C 0.0934 0.73668 0.75794 0.0
C446 C 0.09733 0.71902 0.60078 0.0
C447 C 0.09543 0.74888 0.61921 0.0
H448 H 0.80172 0.08679 0.29935 0.0
H449 H 0.78542 0.09749 0.0518 0.0
H450 H 0.73243 0.09528 0.07523 0.0
H451 H 0.6909 0.09461 0.16727 0.0
H452 H 0.70777 0.08672 0.41529 0.0
H453 H 0.76045 0.0833 0.39012 0.0
C454 C 0.78666 0.08825 0.2502 0.0
C455 C 0.79759 0.09248 0.17393 0.0
C456 C 0.7563 0.08766 0.26426 0.0
C457 C 0.77764 0.09441 0.11116 0.0
C458 C 0.74733 0.09318 0.12453 0.0
C459 C 0.70606 0.09171 0.21576 0.0
C460 C 0.6954 0.09107 0.29311 0.0
C461 C 0.73642 0.09046 0.20104 0.0
C462 C 0.71539 0.08749 0.35526 0.0
C463 C 0.74552 0.08555 0.34093 0.0
H464 H 0.57508 0.1066 0.74882 0.0
H465 H 0.66948 0.10974 0.72643 0.0
H466 H 0.67489 0.0898 0.85888 0.0
H467 H 0.65265 0.07586 0.98441 0.0
H468 H 0.55824 0.07637 0.00919 0.0
H469 H 0.55285 0.09 0.87138 0.0
C470 C 0.59685 0.10292 0.77301 0.0
C471 C 0.62187 0.10961 0.7283 0.0
C472 C 0.59971 0.09193 0.84916 0.0
C473 C 0.64993 0.10442 0.75962 0.0
C474 C 0.653 0.09313 0.83533 0.0
C475 C 0.63089 0.07823 0.9591 0.0
C476 C 0.60584 0.07513 0.00653 0.0
C477 C 0.62803 0.08722 0.88096 0.0
C478 C 0.57779 0.07867 0.9735 0.0
C479 C 0.57472 0.08666 0.89506 0.0
H480 H 0.39429 0.57472 0.51213 0.0
H481 H 0.45727 0.6457 0.51072 0.0
H482 H 0.44743 0.65451 0.37195 0.0
H483 H 0.41682 0.64543 0.25453 0.0
H484 H 0.35357 0.57463 0.25931 0.0
H485 H 0.36726 0.5629 0.39322 0.0
C486 C 0.40627 0.59182 0.48133 0.0
C487 C 0.42627 0.60965 0.52219 0.0
C488 C 0.40003 0.59724 0.40216 0.0
C489 C 0.44167 0.63162 0.48093 0.0
C490 C 0.4359 0.63685 0.40156 0.0
C491 C 0.4065 0.62708 0.28427 0.0
C492 C 0.38412 0.61105 0.24668 0.0
C493 C 0.41449 0.62033 0.36205 0.0
C494 C 0.37058 0.58767 0.28698 0.0
C495 C 0.3785 0.58076 0.36359 0.0
H496 H 0.85538 0.43962 0.92797 0.0
H497 H 0.94358 0.40744 0.96621 0.0
H498 H 0.94622 0.39146 0.83029 0.0
H499 H 0.9215 0.3815 0.70572 0.0
H500 H 0.83313 0.41253 0.66711 0.0
H501 H 0.83245 0.43413 0.79839 0.0
C502 C 0.87543 0.42971 0.90619 0.0
C503 C 0.89911 0.42437 0.95747 0.0
C504 C 0.87655 0.4199 0.82845 0.0
C505 C 0.92495 0.41157 0.92815 0.0
C506 C 0.92642 0.40225 0.85058 0.0
C507 C 0.90214 0.3931 0.72614 0.0
C508 C 0.87727 0.39522 0.67774 0.0
C509 C 0.90198 0.40535 0.80121 0.0
C510 C 0.85251 0.41072 0.70372 0.0
C511 C 0.85212 0.42298 0.77866 0.0
H512 H 0.07048 0.87291 0.23187 0.0
H513 H 0.16413 0.87165 0.27241 0.0
H514 H 0.15609 0.87318 0.41334 0.0
H515 H 0.123 0.87912 0.52314 0.0
H516 H 0.02918 0.87967 0.48733 0.0
H517 H 0.03658 0.87403 0.34545 0.0
C518 C 0.08901 0.87195 0.27175 0.0
C519 C 0.11786 0.87191 0.24233 0.0
C520 C 0.08419 0.87339 0.35286 0.0
C521 C 0.14177 0.87161 0.29424 0.0
C522 C 0.1372 0.87266 0.37457 0.0
C523 C 0.10413 0.87816 0.48425 0.0
C524 C 0.07563 0.8806 0.51469 0.0
C525 C 0.10859 0.87444 0.40417 0.0
C526 C 0.05133 0.87828 0.46443 0.0
C527 C 0.05558 0.87498 0.38371 0.0
H528 H 0.65033 0.43048 0.55378 0.0
H529 H 0.5571 0.41634 0.52399 0.0
H530 H 0.55306 0.40095 0.66059 0.0
H531 H 0.57679 0.38672 0.78352 0.0
H532 H 0.67024 0.3985 0.81243 0.0
H533 H 0.67352 0.41965 0.68063 0.0
C534 C 0.629 0.4247 0.57764 0.0
C535 C 0.60405 0.42438 0.52882 0.0
C536 C 0.62702 0.41496 0.65543 0.0
C537 C 0.57662 0.41664 0.56043 0.0
C538 C 0.57434 0.40765 0.63828 0.0
C539 C 0.59788 0.39393 0.76087 0.0
C540 C 0.62329 0.39093 0.80699 0.0
C541 C 0.59954 0.4058 0.68536 0.0
C542 C 0.6504 0.40077 0.77786 0.0
C543 C 0.65225 0.41277 0.7026 0.0
H544 H 0.12954 0.60698 0.93737 0.0
H545 H 0.03734 0.62316 0.97615 0.0
H546 H 0.04662 0.6283 0.11736 0.0
H547 H 0.08117 0.62567 0.22947 0.0
H548 H 0.17356 0.61171 0.18568 0.0
H549 H 0.164 0.60849 0.04568 0.0
C550 C 0.11137 0.61136 0.97675 0.0
C551 C 0.08269 0.61396 0.94712 0.0
C552 C 0.11702 0.61506 0.05645 0.0
C553 C 0.05953 0.62063 -0.00176 0.0
C554 C 0.06488 0.6237 0.07862 0.0
C555 C 0.09929 0.6229 0.18912 0.0
C556 C 0.1281 0.61923 0.21771 0.0
C557 C 0.09359 0.62085 0.10841 0.0
C558 C 0.15123 0.61466 0.16485 0.0
C559 C 0.14578 0.61266 0.08495 0.0
H560 H 0.84383 0.06449 0.49871 0.0
H561 H 0.93463 0.08783 0.45836 0.0
H562 H 0.93958 0.10324 0.59431 0.0
H563 H 0.91653 0.11565 0.71935 0.0
H564 H 0.82571 0.09338 0.76006 0.0
H565 H 0.82224 0.07197 0.62887 0.0
C566 C 0.8649 0.07229 0.52007 0.0
C567 C 0.8887 0.07543 0.46825 0.0
C568 C 0.86739 0.08182 0.59779 0.0
C569 C 0.91588 0.08549 0.49693 0.0
C570 C 0.91869 0.09449 0.57449 0.0
C571 C 0.89604 0.10598 0.69936 0.0
C572 C 0.8713 0.10631 0.7482 0.0
C573 C 0.8943 0.09379 0.62441 0.0
C574 C 0.84499 0.09329 0.72295 0.0
C575 C 0.84303 0.08113 0.64812 0.0
H576 H 0.42908 0.88299 0.29719 0.0
H577 H 0.33598 0.87084 0.26154 0.0
H578 H 0.34231 0.87624 0.12055 0.0
H579 H 0.37329 0.88851 0.00942 0.0
H580 H 0.4667 0.89953 0.04023 0.0
H581 H 0.46141 0.89064 0.18165 0.0
C582 C 0.41044 0.88048 0.25814 0.0
C583 C 0.38214 0.87618 0.28919 0.0
C584 C 0.41419 0.88425 0.17693 0.0
C585 C 0.35796 0.87391 0.23848 0.0
C586 C 0.36152 0.87727 0.1581 0.0
C587 C 0.3925 0.88919 0.04718 0.0
C588 C 0.42022 0.89547 0.01532 0.0
C589 C 0.38934 0.88334 0.1271 0.0
C590 C 0.44507 0.89524 0.06414 0.0
C591 C 0.44204 0.89001 0.14467 0.0
loop_
_geom_bond_atom_site_label_1
_geom_bond_atom_site_label_2
_geom_bond_distance
_geom_bond_site_symmetry_2
_ccdc_geom_bond_type
Co0 O3 1.970 . S
Co0 N17 1.989 . S
Co0 O25 1.967 . S
Co0 O32 1.920 . S
Co1 O4 1.966 . S
Co1 N10 2.022 . S
Co1 N18 1.993 . S
Co1 O26 1.941 . S
C2 O3 1.258 . S
C2 O4 1.263 . S
O3 Co0 1.970 . S
O3 C2 1.258 . S
O4 Co1 1.966 . S
O4 C2 1.263 . S
C5 O6 1.235 . S
C5 O32 1.289 . S
O6 C5 1.235 . S
C7 C9 1.400 . S
C7 N10 1.351 . S
C7 C12 1.501 . S
C8 C9 1.387 . S
C8 N11 1.341 . S
C9 C7 1.400 . S
C9 C8 1.387 . S
N10 Co1 2.022 . S
N10 C7 1.351 . S
N10 N11 1.365 . S
N11 C8 1.341 . S
N11 N10 1.365 . S
N11 H31 0.862 . S
C12 C7 1.501 . S
C12 H13 0.961 . S
C12 H14 0.961 . S
C12 H15 0.960 . S
H13 C12 0.961 . S
H14 C12 0.961 . S
H15 C12 0.960 . S
C16 N17 1.342 . S
C16 C20 1.401 . S
C16 C21 1.499 . S
N17 Co0 1.989 . S
N17 C16 1.342 . S
N17 N18 1.388 . S
N18 Co1 1.993 . S
N18 N17 1.388 . S
N18 C19 1.346 . S
C19 N18 1.346 . S
C19 C20 1.396 . S
C19 C29 1.510 . S
C20 C16 1.401 . S
C20 C19 1.396 . S
C21 C16 1.499 . S
C21 H22 0.959 . S
C21 H23 0.960 . S
C21 H24 0.961 . S
H22 C21 0.959 . S
H23 C21 0.960 . S
H24 C21 0.961 . S
O25 Co0 1.967 . S
O25 C33 1.258 . S
O26 Co1 1.941 . S
O26 C33 1.266 . S
H27 C29 0.959 . S
H28 C29 0.961 . S
C29 C19 1.510 . S
C29 H27 0.959 . S
C29 H28 0.961 . S
C29 H30 0.960 . S
H30 C29 0.960 . S
H31 N11 0.862 . S
O32 Co0 1.920 . S
O32 C5 1.289 . S
C33 O25 1.258 . S
C33 O26 1.266 . S
Co34 O37 1.970 . S
Co34 N51 1.989 . S
Co34 O59 1.967 . S
Co34 O66 1.920 . S
Co35 O38 1.966 . S
Co35 N44 2.022 1_556 S
Co35 N52 1.993 . S
Co35 O60 1.941 . S
C36 O37 1.258 . S
C36 O38 1.263 . S
O37 Co34 1.970 . S
O37 C36 1.258 . S
O38 Co35 1.966 . S
O38 C36 1.263 . S
C39 O40 1.235 . S
C39 O66 1.289 . S
O40 C39 1.235 . S
C41 C43 1.400 . S
C41 N44 1.351 . S
C41 C46 1.501 . S
C42 C43 1.387 . S
C42 N45 1.341 . S
C43 C41 1.400 . S
C43 C42 1.387 . S
N44 Co35 2.022 1_554 S
N44 C41 1.351 . S
N44 N45 1.365 . S
N45 C42 1.341 . S
N45 N44 1.365 . S
N45 H65 0.862 . S
C46 C41 1.501 . S
C46 H47 0.961 . S
C46 H48 0.961 . S
C46 H49 0.960 . S
H47 C46 0.961 . S
H48 C46 0.961 . S
H49 C46 0.960 . S
C50 N51 1.342 . S
C50 C54 1.401 . S
C50 C55 1.499 . S
N51 Co34 1.989 . S
N51 C50 1.342 . S
N51 N52 1.388 . S
N52 Co35 1.993 . S
N52 N51 1.388 . S
N52 C53 1.346 . S
C53 N52 1.346 . S
C53 C54 1.396 . S
C53 C63 1.510 1_556 S
C54 C50 1.401 . S
C54 C53 1.396 . S
C55 C50 1.499 . S
C55 H56 0.959 . S
C55 H57 0.960 . S
C55 H58 0.961 . S
H56 C55 0.959 . S
H57 C55 0.960 . S
H58 C55 0.961 . S
O59 Co34 1.967 . S
O59 C67 1.258 . S
O60 Co35 1.941 . S
O60 C67 1.266 . S
H61 C63 0.959 . S
H62 C63 0.961 . S
C63 C53 1.510 1_554 S
C63 H61 0.959 . S
C63 H62 0.961 . S
C63 H64 0.960 . S
H64 C63 0.960 . S
H65 N45 0.862 . S
O66 Co34 1.920 . S
O66 C39 1.289 . S
C67 O59 1.258 . S
C67 O60 1.266 . S
Co68 O71 1.970 . S
Co68 N85 1.989 . S
Co68 O93 1.967 . S
Co68 O100 1.920 . S
Co69 O72 1.966 . S
Co69 N78 2.022 . S
Co69 N86 1.993 . S
Co69 O94 1.941 . S
C70 O71 1.258 . S
C70 O72 1.263 . S
O71 Co68 1.970 . S
O71 C70 1.258 . S
O72 Co69 1.966 . S
O72 C70 1.263 . S
C73 O74 1.235 . S
C73 O100 1.289 . S
O74 C73 1.235 . S
C75 C77 1.400 . S
C75 N78 1.351 . S
C75 C80 1.501 . S
C76 C77 1.387 . S
C76 N79 1.341 . S
C77 C75 1.400 . S
C77 C76 1.387 . S
N78 Co69 2.022 . S
N78 C75 1.351 . S
N78 N79 1.365 . S
N79 C76 1.341 . S
N79 N78 1.365 . S
N79 H99 0.862 . S
C80 C75 1.501 . S
C80 H81 0.961 . S
C80 H82 0.961 . S
C80 H83 0.960 . S
H81 C80 0.961 . S
H82 C80 0.961 . S
H83 C80 0.960 . S
C84 N85 1.342 . S
C84 C88 1.401 . S
C84 C89 1.499 . S
N85 Co68 1.989 . S
N85 C84 1.342 . S
N85 N86 1.388 . S
N86 Co69 1.993 . S
N86 N85 1.388 . S
N86 C87 1.346 . S
C87 N86 1.346 . S
C87 C88 1.396 . S
C87 C97 1.510 . S
C88 C84 1.401 . S
C88 C87 1.396 . S
C89 C84 1.499 . S
C89 H90 0.959 . S
C89 H91 0.960 . S
C89 H92 0.961 . S
H90 C89 0.959 . S
H91 C89 0.960 . S
H92 C89 0.961 . S
O93 Co68 1.967 . S
O93 C101 1.258 . S
O94 Co69 1.941 . S
O94 C101 1.266 . S
H95 C97 0.959 . S
H96 C97 0.961 . S
C97 C87 1.510 . S
C97 H95 0.959 . S
C97 H96 0.961 . S
C97 H98 0.960 . S
H98 C97 0.960 . S
H99 N79 0.862 . S
O100 Co68 1.920 . S
O100 C73 1.289 . S
C101 O93 1.258 . S
C101 O94 1.266 . S
Co102 O105 1.970 . S
Co102 N119 1.989 . S
Co102 O127 1.967 . S
Co102 O134 1.920 . S
Co103 O106 1.966 . S
Co103 N112 2.022 1_556 S
Co103 N120 1.993 . S
Co103 O128 1.941 . S
C104 O105 1.258 . S
C104 O106 1.263 . S
O105 Co102 1.970 . S
O105 C104 1.258 . S
O106 Co103 1.966 . S
O106 C104 1.263 . S
C107 O108 1.235 . S
C107 O134 1.289 . S
O108 C107 1.235 . S
C109 C111 1.400 . S
C109 N112 1.351 . S
C109 C114 1.501 . S
C110 C111 1.387 . S
C110 N113 1.341 . S
C111 C109 1.400 . S
C111 C110 1.387 . S
N112 Co103 2.022 1_554 S
N112 C109 1.351 . S
N112 N113 1.365 . S
N113 C110 1.341 . S
N113 N112 1.365 . S
N113 H133 0.862 . S
C114 C109 1.501 . S
C114 H115 0.961 . S
C114 H116 0.961 . S
C114 H117 0.960 . S
H115 C114 0.961 . S
H116 C114 0.961 . S
H117 C114 0.960 . S
C118 N119 1.342 . S
C118 C122 1.401 . S
C118 C123 1.499 . S
N119 Co102 1.989 . S
N119 C118 1.342 . S
N119 N120 1.388 . S
N120 Co103 1.993 . S
N120 N119 1.388 . S
N120 C121 1.346 . S
C121 N120 1.346 . S
C121 C122 1.396 . S
C121 C131 1.510 1_556 S
C122 C118 1.401 . S
C122 C121 1.396 . S
C123 C118 1.499 . S
C123 H124 0.959 . S
C123 H125 0.960 . S
C123 H126 0.961 . S
H124 C123 0.959 . S
H125 C123 0.960 . S
H126 C123 0.961 . S
O127 Co102 1.967 . S
O127 C135 1.258 . S
O128 Co103 1.941 . S
O128 C135 1.266 . S
H129 C131 0.959 . S
H130 C131 0.961 . S
C131 C121 1.510 1_554 S
C131 H129 0.959 . S
C131 H130 0.961 . S
C131 H132 0.960 . S
H132 C131 0.960 . S
H133 N113 0.862 . S
O134 Co102 1.920 . S
O134 C107 1.289 . S
C135 O127 1.258 . S
C135 O128 1.266 . S
Co136 O139 1.970 . S
Co136 N153 1.989 . S
Co136 O161 1.967 . S
Co136 O168 1.920 . S
Co137 O140 1.966 . S
Co137 N146 2.022 1_554 S
Co137 N154 1.993 . S
Co137 O162 1.941 . S
C138 O139 1.258 . S
C138 O140 1.263 . S
O139 Co136 1.970 . S
O139 C138 1.258 . S
O140 Co137 1.966 . S
O140 C138 1.263 . S
C141 O142 1.235 . S
C141 O168 1.289 . S
O142 C141 1.235 . S
C143 C145 1.400 . S
C143 N146 1.351 . S
C143 C148 1.501 . S
C144 C145 1.387 . S
C144 N147 1.341 . S
C145 C143 1.400 . S
C145 C144 1.387 . S
N146 Co137 2.022 1_556 S
N146 C143 1.351 . S
N146 N147 1.365 . S
N147 C144 1.341 . S
N147 N146 1.365 . S
N147 H167 0.862 . S
C148 C143 1.501 . S
C148 H149 0.961 . S
C148 H150 0.961 . S
C148 H151 0.960 . S
H149 C148 0.961 . S
H150 C148 0.961 . S
H151 C148 0.960 . S
C152 N153 1.342 . S
C152 C156 1.401 . S
C152 C157 1.499 . S
N153 Co136 1.989 . S
N153 C152 1.342 . S
N153 N154 1.388 . S
N154 Co137 1.993 . S
N154 N153 1.388 . S
N154 C155 1.346 . S
C155 N154 1.346 . S
C155 C156 1.396 . S
C155 C165 1.510 1_554 S
C156 C152 1.401 . S
C156 C155 1.396 . S
C157 C152 1.499 . S
C157 H158 0.959 . S
C157 H159 0.960 . S
C157 H160 0.961 . S
H158 C157 0.959 . S
H159 C157 0.960 . S
H160 C157 0.961 . S
O161 Co136 1.967 . S
O161 C169 1.258 . S
O162 Co137 1.941 . S
O162 C169 1.266 . S
H163 C165 0.959 . S
H164 C165 0.961 . S
C165 C155 1.510 1_556 S
C165 H163 0.959 . S
C165 H164 0.961 . S
C165 H166 0.960 . S
H166 C165 0.960 . S
H167 N147 0.862 . S
O168 Co136 1.920 . S
O168 C141 1.289 . S
C169 O161 1.258 . S
C169 O162 1.266 . S
Co170 O173 1.970 . S
Co170 N187 1.989 . S
Co170 O195 1.967 . S
Co170 O202 1.920 . S
Co171 O174 1.966 . S
Co171 N180 2.022 . S
Co171 N188 1.993 . S
Co171 O196 1.941 . S
C172 O173 1.258 . S
C172 O174 1.263 . S
O173 Co170 1.970 . S
O173 C172 1.258 . S
O174 Co171 1.966 . S
O174 C172 1.263 . S
C175 O176 1.235 . S
C175 O202 1.289 . S
O176 C175 1.235 . S
C177 C179 1.400 . S
C177 N180 1.351 . S
C177 C182 1.501 . S
C178 C179 1.387 . S
C178 N181 1.341 . S
C179 C177 1.400 . S
C179 C178 1.387 . S
N180 Co171 2.022 . S
N180 C177 1.351 . S
N180 N181 1.365 . S
N181 C178 1.341 . S
N181 N180 1.365 . S
N181 H201 0.862 . S
C182 C177 1.501 . S
C182 H183 0.961 . S
C182 H184 0.961 . S
C182 H185 0.960 . S
H183 C182 0.961 . S
H184 C182 0.961 . S
H185 C182 0.960 . S
C186 N187 1.342 . S
C186 C190 1.401 . S
C186 C191 1.499 . S
N187 Co170 1.989 . S
N187 C186 1.342 . S
N187 N188 1.388 . S
N188 Co171 1.993 . S
N188 N187 1.388 . S
N188 C189 1.346 . S
C189 N188 1.346 . S
C189 C190 1.396 . S
C189 C199 1.510 . S
C190 C186 1.401 . S
C190 C189 1.396 . S
C191 C186 1.499 . S
C191 H192 0.959 . S
C191 H193 0.960 . S
C191 H194 0.961 . S
H192 C191 0.959 . S
H193 C191 0.960 . S
H194 C191 0.961 . S
O195 Co170 1.967 . S
O195 C203 1.258 . S
O196 Co171 1.941 . S
O196 C203 1.266 . S
H197 C199 0.959 . S
H198 C199 0.961 . S
C199 C189 1.510 . S
C199 H197 0.959 . S
C199 H198 0.961 . S
C199 H200 0.960 . S
H200 C199 0.960 . S
H201 N181 0.862 . S
O202 Co170 1.920 . S
O202 C175 1.289 . S
C203 O195 1.258 . S
C203 O196 1.266 . S
Co204 O207 1.970 . S
Co204 N221 1.989 . S
Co204 O229 1.967 . S
Co204 O236 1.920 . S
Co205 O208 1.966 . S
Co205 N214 2.022 1_554 S
Co205 N222 1.993 . S
Co205 O230 1.941 . S
C206 O207 1.258 . S
C206 O208 1.263 . S
O207 Co204 1.970 . S
O207 C206 1.258 . S
O208 Co205 1.966 . S
O208 C206 1.263 . S
C209 O210 1.235 . S
C209 O236 1.289 . S
O210 C209 1.235 . S
C211 C213 1.400 . S
C211 N214 1.351 . S
C211 C216 1.501 . S
C212 C213 1.387 . S
C212 N215 1.341 . S
C213 C211 1.400 . S
C213 C212 1.387 . S
N214 Co205 2.022 1_556 S
N214 C211 1.351 . S
N214 N215 1.365 . S
N215 C212 1.341 . S
N215 N214 1.365 . S
N215 H235 0.862 . S
C216 C211 1.501 . S
C216 H217 0.961 . S
C216 H218 0.961 . S
C216 H219 0.960 . S
H217 C216 0.961 . S
H218 C216 0.961 . S
H219 C216 0.960 . S
C220 N221 1.342 . S
C220 C224 1.401 . S
C220 C225 1.499 . S
N221 Co204 1.989 . S
N221 C220 1.342 . S
N221 N222 1.388 . S
N222 Co205 1.993 . S
N222 N221 1.388 . S
N222 C223 1.346 . S
C223 N222 1.346 . S
C223 C224 1.396 . S
C223 C233 1.510 1_554 S
C224 C220 1.401 . S
C224 C223 1.396 . S
C225 C220 1.499 . S
C225 H226 0.959 . S
C225 H227 0.960 . S
C225 H228 0.961 . S
H226 C225 0.959 . S
H227 C225 0.960 . S
H228 C225 0.961 . S
O229 Co204 1.967 . S
O229 C237 1.258 . S
O230 Co205 1.941 . S
O230 C237 1.266 . S
H231 C233 0.959 . S
H232 C233 0.961 . S
C233 C223 1.510 1_556 S
C233 H231 0.959 . S
C233 H232 0.961 . S
C233 H234 0.960 . S
H234 C233 0.960 . S
H235 N215 0.862 . S
O236 Co204 1.920 . S
O236 C209 1.289 . S
C237 O229 1.258 . S
C237 O230 1.266 . S
Co238 O241 1.970 . S
Co238 N255 1.989 . S
Co238 O263 1.967 . S
Co238 O270 1.920 . S
Co239 O242 1.966 . S
Co239 N248 2.022 . S
Co239 N256 1.993 . S
Co239 O264 1.941 . S
C240 O241 1.258 . S
C240 O242 1.263 . S
O241 Co238 1.970 . S
O241 C240 1.258 . S
O242 Co239 1.966 . S
O242 C240 1.263 . S
C243 O244 1.235 . S
C243 O270 1.289 . S
O244 C243 1.235 . S
C245 C247 1.400 . S
C245 N248 1.351 . S
C245 C250 1.501 . S
C246 C247 1.387 . S
C246 N249 1.341 . S
C247 C245 1.400 . S
C247 C246 1.387 . S
N248 Co239 2.022 . S
N248 C245 1.351 . S
N248 N249 1.365 . S
N249 C246 1.341 . S
N249 N248 1.365 . S
N249 H269 0.862 . S
C250 C245 1.501 . S
C250 H251 0.961 . S
C250 H252 0.961 . S
C250 H253 0.960 . S
H251 C250 0.961 . S
H252 C250 0.961 . S
H253 C250 0.960 . S
C254 N255 1.342 . S
C254 C258 1.401 . S
C254 C259 1.499 . S
N255 Co238 1.989 . S
N255 C254 1.342 . S
N255 N256 1.388 . S
N256 Co239 1.993 . S
N256 N255 1.388 . S
N256 C257 1.346 . S
C257 N256 1.346 . S
C257 C258 1.396 . S
C257 C267 1.510 . S
C258 C254 1.401 . S
C258 C257 1.396 . S
C259 C254 1.499 . S
C259 H260 0.959 . S
C259 H261 0.960 . S
C259 H262 0.961 . S
H260 C259 0.959 . S
H261 C259 0.960 . S
H262 C259 0.961 . S
O263 Co238 1.967 . S
O263 C271 1.258 . S
O264 Co239 1.941 . S
O264 C271 1.266 . S
H265 C267 0.959 . S
H266 C267 0.961 . S
C267 C257 1.510 . S
C267 H265 0.959 . S
C267 H266 0.961 . S
C267 H268 0.960 . S
H268 C267 0.960 . S
H269 N249 0.862 . S
O270 Co238 1.920 . S
O270 C243 1.289 . S
C271 O263 1.258 . S
C271 O264 1.266 . S
H272 C278 0.930 . S
H273 C281 0.930 . S
H274 C282 0.930 . S
H275 C283 0.930 . S
H276 C286 0.930 . S
H277 C287 0.930 1_565 S
C278 H272 0.930 . S
C278 C279 1.355 . S
C278 C280 1.415 1_565 S
C279 C278 1.355 . S
C279 C281 1.419 . S
C280 C278 1.415 1_545 S
C280 C285 1.425 . S
C280 C287 1.409 . S
C281 H273 0.930 . S
C281 C279 1.419 . S
C281 C282 1.362 1_565 S
C282 H274 0.930 . S
C282 C281 1.362 1_545 S
C282 C285 1.409 . S
C283 H275 0.930 . S
C283 C284 1.355 . S
C283 C285 1.415 . S
C284 C283 1.355 . S
C284 C286 1.419 . S
C285 C280 1.425 . S
C285 C282 1.409 . S
C285 C283 1.415 . S
C286 H276 0.930 . S
C286 C284 1.419 . S
C286 C287 1.362 . S
C287 H277 0.930 1_545 S
C287 C280 1.409 . S
C287 C286 1.362 . S
H288 C294 0.930 . S
H289 C297 0.930 . S
H290 C298 0.930 . S
H291 C299 0.930 . S
H292 C302 0.930 . S
H293 C303 0.930 . S
C294 H288 0.930 . S
C294 C295 1.355 . S
C294 C296 1.415 . S
C295 C294 1.355 . S
C295 C297 1.419 . S
C296 C294 1.415 . S
C296 C301 1.425 1_554 S
C296 C303 1.409 . S
C297 H289 0.930 . S
C297 C295 1.419 . S
C297 C298 1.362 1_554 S
C298 H290 0.930 . S
C298 C297 1.362 1_556 S
C298 C301 1.409 . S
C299 H291 0.930 . S
C299 C300 1.355 . S
C299 C301 1.415 . S
C300 C299 1.355 . S
C300 C302 1.419 . S
C301 C296 1.425 1_556 S
C301 C298 1.409 . S
C301 C299 1.415 . S
C302 H292 0.930 . S
C302 C300 1.419 . S
C302 C303 1.362 1_556 S
C303 H293 0.930 . S
C303 C296 1.409 . S
C303 C302 1.362 1_554 S
H304 C310 0.930 . S
H305 C313 0.930 . S
H306 C314 0.930 . S
H307 C315 0.930 . S
H308 C318 0.930 . S
H309 C319 0.950 . S
C310 H304 0.930 . S
C310 C311 1.355 . S
C310 C312 1.405 1_655 S
C311 C310 1.355 . S
C311 C313 1.419 1_655 S
C312 C310 1.405 1_455 S
C312 C317 1.435 . S
C312 C319 1.408 1_455 S
C313 H305 0.930 . S
C313 C311 1.419 1_455 S
C313 C314 1.362 . S
C314 H306 0.930 . S
C314 C313 1.362 . S
C314 C317 1.409 . S
C315 H307 0.930 . S
C315 C316 1.355 . S
C315 C317 1.415 . S
C316 C315 1.355 . S
C316 C318 1.419 . S
C317 C312 1.435 . S
C317 C314 1.409 . S
C317 C315 1.415 . S
C318 H308 0.930 . S
C318 C316 1.419 . S
C318 C319 1.344 1_455 S
C319 H309 0.950 . S
C319 C312 1.408 1_655 S
C319 C318 1.344 1_655 S
H320 C326 0.930 . S
H321 C329 0.930 . S
H322 C330 0.930 . S
H323 C331 0.930 . S
H324 C334 0.930 . S
H325 C335 0.930 . S
C326 H320 0.930 . S
C326 C327 1.355 . S
C326 C328 1.415 1_554 S
C327 C326 1.355 . S
C327 C329 1.419 1_655 S
C328 C326 1.415 1_556 S
C328 C333 1.425 1_656 S
C328 C335 1.409 1_545 S
C329 H321 0.930 . S
C329 C327 1.419 1_455 S
C329 C330 1.362 . S
C330 H322 0.930 . S
C330 C329 1.362 . S
C330 C333 1.409 . S
C331 H323 0.930 . S
C331 C332 1.355 . S
C331 C333 1.415 1_566 S
C332 C331 1.355 . S
C332 C334 1.419 . S
C333 C328 1.425 1_454 S
C333 C330 1.409 . S
C333 C331 1.415 1_544 S
C334 H324 0.930 . S
C334 C332 1.419 . S
C334 C335 1.362 1_455 S
C335 H325 0.930 . S
C335 C328 1.409 1_565 S
C335 C334 1.362 1_655 S
H336 C342 0.930 . S
H337 C345 0.930 . S
H338 C346 0.930 . S
H339 C347 0.930 . S
H340 C350 0.930 . S
H341 C351 0.930 . S
C342 H336 0.930 . S
C342 C343 1.355 . S
C342 C344 1.415 . S
C343 C342 1.355 . S
C343 C345 1.419 . S
C344 C342 1.415 . S
C344 C349 1.425 . S
C344 C351 1.409 . S
C345 H337 0.930 . S
C345 C343 1.419 . S
C345 C346 1.362 . S
C346 H338 0.930 . S
C346 C345 1.362 . S
C346 C349 1.409 . S
C347 H339 0.930 . S
C347 C348 1.355 . S
C347 C349 1.415 . S
C348 C347 1.355 . S
C348 C350 1.419 . S
C349 C344 1.425 . S
C349 C346 1.409 . S
C349 C347 1.415 . S
C350 H340 0.930 . S
C350 C348 1.419 . S
C350 C351 1.362 . S
C351 H341 0.930 . S
C351 C344 1.409 . S
C351 C350 1.362 . S
H352 C358 0.930 . S
H353 C361 0.930 . S
H354 C362 0.930 . S
H355 C363 0.930 . S
H356 C366 0.930 . S
H357 C367 0.930 . S
C358 H352 0.930 . S
C358 C359 1.355 . S
C358 C360 1.415 . S
C359 C358 1.355 . S
C359 C361 1.419 . S
C360 C358 1.415 . S
C360 C365 1.425 . S
C360 C367 1.409 . S
C361 H353 0.930 . S
C361 C359 1.419 . S
C361 C362 1.362 . S
C362 H354 0.930 . S
C362 C361 1.362 . S
C362 C365 1.409 . S
C363 H355 0.930 . S
C363 C364 1.355 . S
C363 C365 1.415 . S
C364 C363 1.355 . S
C364 C366 1.419 . S
C365 C360 1.425 . S
C365 C362 1.409 . S
C365 C363 1.415 . S
C366 H356 0.930 . S
C366 C364 1.419 . S
C366 C367 1.362 . S
C367 H357 0.930 . S
C367 C360 1.409 . S
C367 C366 1.362 . S
H368 C374 0.930 . S
H369 C377 0.930 . S
H370 C378 0.930 . S
H371 C379 0.930 . S
H372 C382 0.930 . S
H373 C383 0.930 . S
C374 H368 0.930 . S
C374 C375 1.355 . S
C374 C376 1.415 . S
C375 C374 1.355 . S
C375 C377 1.419 . S
C376 C374 1.415 . S
C376 C381 1.425 . S
C376 C383 1.409 . S
C377 H369 0.930 . S
C377 C375 1.419 . S
C377 C378 1.362 . S
C378 H370 0.930 . S
C378 C377 1.362 . S
C378 C381 1.409 . S
C379 H371 0.930 . S
C379 C380 1.355 . S
C379 C381 1.415 . S
C380 C379 1.355 . S
C380 C382 1.419 . S
C381 C376 1.425 . S
C381 C378 1.409 . S
C381 C379 1.415 . S
C382 H372 0.930 . S
C382 C380 1.419 . S
C382 C383 1.362 . S
C383 H373 0.930 . S
C383 C376 1.409 . S
C383 C382 1.362 . S
H384 C390 0.930 . S
H385 C393 0.930 . S
H386 C394 0.930 . S
H387 C395 0.930 . S
H388 C398 0.930 . S
H389 C399 0.930 . S
C390 H384 0.930 . S
C390 C391 1.355 . S
C390 C392 1.415 . S
C391 C390 1.355 . S
C391 C393 1.419 . S
C392 C390 1.415 . S
C392 C397 1.425 . S
C392 C399 1.409 . S
C393 H385 0.930 . S
C393 C391 1.419 . S
C393 C394 1.362 . S
C394 H386 0.930 . S
C394 C393 1.362 . S
C394 C397 1.409 . S
C395 H387 0.930 . S
C395 C396 1.355 . S
C395 C397 1.415 . S
C396 C395 1.355 . S
C396 C398 1.419 . S
C397 C392 1.425 . S
C397 C394 1.409 . S
C397 C395 1.415 . S
C398 H388 0.930 . S
C398 C396 1.419 . S
C398 C399 1.362 . S
C399 H389 0.930 . S
C399 C392 1.409 . S
C399 C398 1.362 . S
H400 C406 0.930 . S
H401 C409 0.930 . S
H402 C410 0.930 . S
H403 C411 0.930 . S
H404 C414 0.930 . S
H405 C415 0.930 . S
C406 H400 0.930 . S
C406 C407 1.355 . S
C406 C408 1.415 . S
C407 C406 1.355 . S
C407 C409 1.419 . S
C408 C406 1.415 . S
C408 C413 1.425 . S
C408 C415 1.409 . S
C409 H401 0.930 . S
C409 C407 1.419 . S
C409 C410 1.362 . S
C410 H402 0.930 . S
C410 C409 1.362 . S
C410 C413 1.409 . S
C411 H403 0.930 . S
C411 C412 1.355 . S
C411 C413 1.415 . S
C412 C411 1.355 . S
C412 C414 1.419 . S
C413 C408 1.425 . S
C413 C410 1.409 . S
C413 C411 1.415 . S
C414 H404 0.930 . S
C414 C412 1.419 . S
C414 C415 1.362 . S
C415 H405 0.930 . S
C415 C408 1.409 . S
C415 C414 1.362 . S
H416 C422 0.930 . S
H417 C425 0.930 . S
H418 C426 0.930 . S
H419 C427 0.930 . S
H420 C430 0.930 . S
H421 C431 0.930 . S
C422 H416 0.930 . S
C422 C423 1.355 . S
C422 C424 1.415 . S
C423 C422 1.355 . S
C423 C425 1.419 . S
C424 C422 1.415 . S
C424 C429 1.425 . S
C424 C431 1.409 . S
C425 H417 0.930 . S
C425 C423 1.419 . S
C425 C426 1.362 . S
C426 H418 0.930 . S
C426 C425 1.362 . S
C426 C429 1.409 . S
C427 H419 0.930 . S
C427 C428 1.355 . S
C427 C429 1.415 . S
C428 C427 1.355 . S
C428 C430 1.419 . S
C429 C424 1.425 . S
C429 C426 1.409 . S
C429 C427 1.415 . S
C430 H420 0.930 . S
C430 C428 1.419 . S
C430 C431 1.362 . S
C431 H421 0.930 . S
C431 C424 1.409 . S
C431 C430 1.362 . S
H432 C438 0.930 . S
H433 C441 0.930 . S
H434 C442 0.930 . S
H435 C443 0.930 . S
H436 C446 0.930 . S
H437 C447 0.930 . S
C438 H432 0.930 . S
C438 C439 1.355 . S
C438 C440 1.415 . S
C439 C438 1.355 . S
C439 C441 1.419 . S
C440 C438 1.415 . S
C440 C445 1.425 . S
C440 C447 1.409 . S
C441 H433 0.930 . S
C441 C439 1.419 . S
C441 C442 1.362 . S
C442 H434 0.930 . S
C442 C441 1.362 . S
C442 C445 1.409 . S
C443 H435 0.930 . S
C443 C444 1.355 . S
C443 C445 1.415 . S
C444 C443 1.355 . S
C444 C446 1.419 . S
C445 C440 1.425 . S
C445 C442 1.409 . S
C445 C443 1.415 . S
C446 H436 0.930 . S
C446 C444 1.419 . S
C446 C447 1.362 . S
C447 H437 0.930 . S
C447 C440 1.409 . S
C447 C446 1.362 . S
H448 C454 0.930 . S
H449 C457 0.930 . S
H450 C458 0.930 . S
H451 C459 0.930 . S
H452 C462 0.930 . S
H453 C463 0.930 . S
C454 H448 0.930 . S
C454 C455 1.355 . S
C454 C456 1.415 . S
C455 C454 1.355 . S
C455 C457 1.419 . S
C456 C454 1.415 . S
C456 C461 1.425 . S
C456 C463 1.409 . S
C457 H449 0.930 . S
C457 C455 1.419 . S
C457 C458 1.362 . S
C458 H450 0.930 . S
C458 C457 1.362 . S
C458 C461 1.409 . S
C459 H451 0.930 . S
C459 C460 1.355 . S
C459 C461 1.415 . S
C460 C459 1.355 . S
C460 C462 1.419 . S
C461 C456 1.425 . S
C461 C458 1.409 . S
C461 C459 1.415 . S
C462 H452 0.930 . S
C462 C460 1.419 . S
C462 C463 1.362 . S
C463 H453 0.930 . S
C463 C456 1.409 . S
C463 C462 1.362 . S
H464 C470 0.930 . S
H465 C473 0.930 . S
H466 C474 0.930 . S
H467 C475 0.930 1_554 S
H468 C478 0.930 1_554 S
H469 C479 0.930 . S
C470 H464 0.930 . S
C470 C471 1.355 . S
C470 C472 1.415 . S
C471 C470 1.355 . S
C471 C473 1.419 . S
C472 C470 1.415 . S
C472 C477 1.425 . S
C472 C479 1.409 . S
C473 H465 0.930 . S
C473 C471 1.419 . S
C473 C474 1.362 . S
C474 H466 0.930 . S
C474 C473 1.362 . S
C474 C477 1.409 . S
C475 H467 0.930 1_556 S
C475 C476 1.355 1_556 S
C475 C477 1.415 . S
C476 C475 1.355 1_554 S
C476 C478 1.419 1_554 S
C477 C472 1.425 . S
C477 C474 1.409 . S
C477 C475 1.415 . S
C478 H468 0.930 1_556 S
C478 C476 1.419 1_556 S
C478 C479 1.362 . S
C479 H469 0.930 . S
C479 C472 1.409 . S
C479 C478 1.362 . S
H480 C486 0.930 . S
H481 C489 0.930 . S
H482 C490 0.930 . S
H483 C491 0.930 . S
H484 C494 0.930 . S
H485 C495 0.930 . S
C486 H480 0.930 . S
C486 C487 1.355 . S
C486 C488 1.415 . S
C487 C486 1.355 . S
C487 C489 1.419 . S
C488 C486 1.415 . S
C488 C493 1.425 . S
C488 C495 1.409 . S
C489 H481 0.930 . S
C489 C487 1.419 . S
C489 C490 1.362 . S
C490 H482 0.930 . S
C490 C489 1.362 . S
C490 C493 1.409 . S
C491 H483 0.930 . S
C491 C492 1.355 . S
C491 C493 1.415 . S
C492 C491 1.355 . S
C492 C494 1.419 . S
C493 C488 1.425 . S
C493 C490 1.409 . S
C493 C491 1.415 . S
C494 H484 0.930 . S
C494 C492 1.419 . S
C494 C495 1.362 . S
C495 H485 0.930 . S
C495 C488 1.409 . S
C495 C494 1.362 . S
H496 C502 0.930 1_554 S
H497 C505 0.930 1_554 S
H498 C506 0.930 . S
H499 C507 0.930 . S
H500 C510 0.930 . S
H501 C511 0.930 . S
C502 H496 0.930 1_556 S
C502 C503 1.355 1_556 S
C502 C504 1.415 . S
C503 C502 1.355 1_554 S
C503 C505 1.419 1_554 S
C504 C502 1.415 . S
C504 C509 1.425 . S
C504 C511 1.409 . S
C505 H497 0.930 1_556 S
C505 C503 1.419 1_556 S
C505 C506 1.362 . S
C506 H498 0.930 . S
C506 C505 1.362 . S
C506 C509 1.409 . S
C507 H499 0.930 . S
C507 C508 1.355 . S
C507 C509 1.415 . S
C508 C507 1.355 . S
C508 C510 1.419 . S
C509 C504 1.425 . S
C509 C506 1.409 . S
C509 C507 1.415 . S
C510 H500 0.930 . S
C510 C508 1.419 . S
C510 C511 1.362 . S
C511 H501 0.930 . S
C511 C504 1.409 . S
C511 C510 1.362 . S
H512 C518 0.930 . S
H513 C521 0.930 . S
H514 C522 0.930 . S
H515 C523 0.930 . S
H516 C526 0.930 . S
H517 C527 0.930 . S
C518 H512 0.930 . S
C518 C519 1.355 . S
C518 C520 1.415 . S
C519 C518 1.355 . S
C519 C521 1.419 . S
C520 C518 1.415 . S
C520 C525 1.425 . S
C520 C527 1.409 . S
C521 H513 0.930 . S
C521 C519 1.419 . S
C521 C522 1.362 . S
C522 H514 0.930 . S
C522 C521 1.362 . S
C522 C525 1.409 . S
C523 H515 0.930 . S
C523 C524 1.355 . S
C523 C525 1.415 . S
C524 C523 1.355 . S
C524 C526 1.419 . S
C525 C520 1.425 . S
C525 C522 1.409 . S
C525 C523 1.415 . S
C526 H516 0.930 . S
C526 C524 1.419 . S
C526 C527 1.362 . S
C527 H517 0.930 . S
C527 C520 1.409 . S
C527 C526 1.362 . S
H528 C534 0.930 . S
H529 C537 0.930 . S
H530 C538 0.930 . S
H531 C539 0.930 . S
H532 C542 0.930 . S
H533 C543 0.930 . S
C534 H528 0.930 . S
C534 C535 1.355 . S
C534 C536 1.415 . S
C535 C534 1.355 . S
C535 C537 1.419 . S
C536 C534 1.415 . S
C536 C541 1.425 . S
C536 C543 1.409 . S
C537 H529 0.930 . S
C537 C535 1.419 . S
C537 C538 1.362 . S
C538 H530 0.930 . S
C538 C537 1.362 . S
C538 C541 1.409 . S
C539 H531 0.930 . S
C539 C540 1.355 . S
C539 C541 1.415 . S
C540 C539 1.355 . S
C540 C542 1.419 . S
C541 C536 1.425 . S
C541 C538 1.409 . S
C541 C539 1.415 . S
C542 H532 0.930 . S
C542 C540 1.419 . S
C542 C543 1.362 . S
C543 H533 0.930 . S
C543 C536 1.409 . S
C543 C542 1.362 . S
H544 C550 0.930 . S
H545 C553 0.921 1_556 S
H546 C554 0.930 . S
H547 C555 0.930 . S
H548 C558 0.930 . S
H549 C559 0.930 . S
C550 H544 0.930 . S
C550 C551 1.355 1_554 S
C550 C552 1.415 . S
C551 C550 1.355 1_556 S
C551 C553 1.414 1_556 S
C552 C550 1.415 . S
C552 C557 1.425 . S
C552 C559 1.409 . S
C553 H545 0.921 1_554 S
C553 C551 1.414 1_554 S
C553 C554 1.376 . S
C554 H546 0.930 . S
C554 C553 1.376 . S
C554 C557 1.409 . S
C555 H547 0.930 . S
C555 C556 1.355 . S
C555 C557 1.415 . S
C556 C555 1.355 . S
C556 C558 1.419 . S
C557 C552 1.425 . S
C557 C554 1.409 . S
C557 C555 1.415 . S
C558 H548 0.930 . S
C558 C556 1.419 . S
C558 C559 1.362 . S
C559 H549 0.930 . S
C559 C552 1.409 . S
C559 C558 1.362 . S
H560 C566 0.930 . S
H561 C569 0.930 . S
H562 C570 0.930 . S
H563 C571 0.930 . S
H564 C574 0.930 . S
H565 C575 0.930 . S
C566 H560 0.930 . S
C566 C567 1.355 . S
C566 C568 1.415 . S
C567 C566 1.355 . S
C567 C569 1.419 . S
C568 C566 1.415 . S
C568 C573 1.425 . S
C568 C575 1.409 . S
C569 H561 0.930 . S
C569 C567 1.419 . S
C569 C570 1.362 . S
C570 H562 0.930 . S
C570 C569 1.362 . S
C570 C573 1.409 . S
C571 H563 0.930 . S
C571 C572 1.355 . S
C571 C573 1.415 . S
C572 C571 1.355 . S
C572 C574 1.419 . S
C573 C568 1.425 . S
C573 C570 1.409 . S
C573 C571 1.415 . S
C574 H564 0.930 . S
C574 C572 1.419 . S
C574 C575 1.362 . S
C575 H565 0.930 . S
C575 C568 1.409 . S
C575 C574 1.362 . S
H576 C582 0.930 . S
H577 C585 0.930 . S
H578 C586 0.930 . S
H579 C587 0.930 1_556 S
H580 C590 0.930 1_556 S
H581 C591 0.930 . S
C582 H576 0.930 . S
C582 C583 1.355 . S
C582 C584 1.415 . S
C583 C582 1.355 . S
C583 C585 1.419 . S
C584 C582 1.415 . S
C584 C589 1.425 . S
C584 C591 1.409 . S
C585 H577 0.930 . S
C585 C583 1.419 . S
C585 C586 1.362 . S
C586 H578 0.930 . S
C586 C585 1.362 . S
C586 C589 1.409 . S
C587 H579 0.930 1_554 S
C587 C588 1.355 1_554 S
C587 C589 1.415 . S
C588 C587 1.355 1_556 S
C588 C590 1.419 1_556 S
C589 C584 1.425 . S
C589 C586 1.409 . S
C589 C587 1.415 . S
C590 H580 0.930 1_554 S
C590 C588 1.419 1_554 S
C590 C591 1.362 . S
C591 H581 0.930 . S
C591 C584 1.409 . S
C591 C590 1.362 . S
C279 C258 1.591 . S
C284 C20 1.599 . S
C295 C156 1.548 . S
C300 C54 1.567 . S
C311 C88 1.596 . S
C316 C190 1.595 . S
C327 C224 1.599 . S
C332 C122 1.587 . S
C343 C33 1.211 . S
C348 C169 1.226 . S
C359 C203 1.235 . S
C364 C67 1.243 . S
C375 C237 1.210 . S
C380 C101 1.237 . S
C391 C271 1.232 . S
C396 C135 1.245 . S
C407 C240 1.638 . S
C412 C36 1.638 . S
C423 C70 1.640 . S
C428 C138 1.640 . S
C439 C104 1.658 . S
C444 C172 1.658 . S
C455 C206 1.675 . S
C460 C2 1.675 . S
C471 C9 1.215 . S
C476 C5 1.268 . S
C487 C39 1.196 . S
C492 C43 1.127 . S
C503 C73 1.260 . S
C508 C77 1.233 . S
C519 C111 1.138 . S
C524 C107 1.238 . S
C535 C141 1.218 . S
C540 C145 1.194 . S
C551 C175 1.235 . S
C556 C179 1.135 . S
C567 C209 1.261 . S
C572 C213 1.233 . S
C583 C247 1.153 . S
C588 C243 1.247 . S
