# Generated by pormake.
# Topology umg, (4)-cn, num edge types: 1
# Building blocks:
#     Node 0, Type 0, BuildingBlock: QUQFOY_clean_sbu_1, # of connection points: 4
#     Node 1, Type 0, BuildingBlock: QUQFOY_clean_sbu_1, # of connection points: 4
#     Node 2, Type 0, BuildingBlock: QUQFOY_clean_sbu_1, # of connection points: 4
#     Node 3, Type 0, BuildingBlock: QUQFOY_clean_sbu_1, # of connection points: 4
#     Node 4, Type 0, BuildingBlock: QUQFOY_clean_sbu_1, # of connection points: 4
#     Node 5, Type 0, BuildingBlock: QUQFOY_clean_sbu_1, # of connection points: 4
#     Node 6, Type 0, BuildingBlock: QUQFOY_clean_sbu_1, # of connection points: 4
#     Node 7, Type 0, BuildingBlock: QUQFOY_clean_sbu_1, # of connection points: 4
#     Node 8, Type 0, BuildingBlock: QUQFOY_clean_sbu_1, # of connection points: 4
#     Node 9, Type 0, BuildingBlock: QUQFOY_clean_sbu_1, # of connection points: 4
#     Node 10, Type 0, BuildingBlock: QUQFOY_clean_sbu_1, # of connection points: 4
#     Node 11, Type 0, BuildingBlock: QUQFOY_clean_sbu_1, # of connection points: 4
#     Edge 12, Type (0, 0), BuildingBlock: MIFKUJ_clean_linker_0, # of connection points: 2
#     Edge 13, Type (0, 0), BuildingBlock: MIFKUJ_clean_linker_0, # of connection points: 2
#     Edge 14, Type (0, 0), BuildingBlock: MIFKUJ_clean_linker_0, # of connection points: 2
#     Edge 15, Type (0, 0), BuildingBlock: MIFKUJ_clean_linker_0, # of connection points: 2
#     Edge 16, Type (0, 0), BuildingBlock: MIFKUJ_clean_linker_0, # of connection points: 2
#     Edge 17, Type (0, 0), BuildingBlock: MIFKUJ_clean_linker_0, # of connection points: 2
#     Edge 18, Type (0, 0), BuildingBlock: MIFKUJ_clean_linker_0, # of connection points: 2
#     Edge 19, Type (0, 0), BuildingBlock: MIFKUJ_clean_linker_0, # of connection points: 2
#     Edge 20, Type (0, 0), BuildingBlock: MIFKUJ_clean_linker_0, # of connection points: 2
#     Edge 21, Type (0, 0), BuildingBlock: MIFKUJ_clean_linker_0, # of connection points: 2
#     Edge 22, Type (0, 0), BuildingBlock: MIFKUJ_clean_linker_0, # of connection points: 2
#     Edge 23, Type (0, 0), BuildingBlock: MIFKUJ_clean_linker_0, # of connection points: 2
#     Edge 24, Type (0, 0), BuildingBlock: MIFKUJ_clean_linker_0, # of connection points: 2
#     Edge 25, Type (0, 0), BuildingBlock: MIFKUJ_clean_linker_0, # of connection points: 2
#     Edge 26, Type (0, 0), BuildingBlock: MIFKUJ_clean_linker_0, # of connection points: 2
#     Edge 27, Type (0, 0), BuildingBlock: MIFKUJ_clean_linker_0, # of connection points: 2
#     Edge 28, Type (0, 0), BuildingBlock: MIFKUJ_clean_linker_0, # of connection points: 2
#     Edge 29, Type (0, 0), BuildingBlock: MIFKUJ_clean_linker_0, # of connection points: 2
#     Edge 30, Type (0, 0), BuildingBlock: MIFKUJ_clean_linker_0, # of connection points: 2
#     Edge 31, Type (0, 0), BuildingBlock: MIFKUJ_clean_linker_0, # of connection points: 2
#     Edge 32, Type (0, 0), BuildingBlock: MIFKUJ_clean_linker_0, # of connection points: 2
#     Edge 33, Type (0, 0), BuildingBlock: MIFKUJ_clean_linker_0, # of connection points: 2
#     Edge 34, Type (0, 0), BuildingBlock: MIFKUJ_clean_linker_0, # of connection points: 2
#     Edge 35, Type (0, 0), BuildingBlock: MIFKUJ_clean_linker_0, # of connection points: 2
# Relax obj value: 0.074
# Max RMSD: 0.188
# Mean RMSD: 0.187
data_MOF--net-umg--node1-QUQFOY_clean_sbu_1--edge1-MIFKUJ_clean_linker_0
_symmetry_space_group_name_H-M    P1
_symmetry_Int_Tables_number       1
_symmetry_cell_setting            triclinic
loop_
_symmetry_equiv_pos_as_xyz
'x, y, z'
_cell_length_a     38.005
_cell_length_b     38.049671
_cell_length_c     113.74799
_cell_angle_alpha  90.209633
_cell_angle_beta   89.964395
_cell_angle_gamma 119.91601
loop_
_atom_site_label
_atom_site_type_symbol
_atom_site_fract_x
_atom_site_fract_y
_atom_site_fract_z
_atom_type_partial_charge
O0 O 0.30222 0.58643 0.06943 0.0
Cd1 Cd 0.29331 0.56231 0.08604 0.0
Cd2 Cd 0.31057 0.63938 0.09137 0.0
O3 O 0.33242 0.65147 0.07417 0.0
O4 O 0.30711 0.51705 0.08603 0.0
O5 O 0.34515 0.5768 0.09436 0.0
C6 C 0.34031 0.54197 0.09143 0.0
C7 C 0.34568 0.66557 0.10904 0.0
C8 C 0.32101 0.62356 0.0664 0.0
C9 C 0.22442 0.57251 0.09465 0.0
O10 O 0.2486 0.61015 0.09303 0.0
O11 O 0.23721 0.54727 0.09373 0.0
O12 O 0.33526 0.687 0.10267 0.0
O13 O 0.33847 0.63106 0.10492 0.0
O14 O 0.72599 0.29819 0.40356 0.0
Cd15 Cd 0.74147 0.28777 0.42001 0.0
Cd16 Cd 0.68056 0.30279 0.42564 0.0
O17 O 0.68775 0.32457 0.40852 0.0
O18 O 0.80098 0.30371 0.41966 0.0
O19 O 0.77736 0.33839 0.4291 0.0
C20 C 0.80814 0.33556 0.42565 0.0
C21 C 0.68499 0.3379 0.44297 0.0
C22 C 0.70592 0.31546 0.40068 0.0
C23 C 0.66468 0.21683 0.4284 0.0
O24 O 0.65054 0.24072 0.4274 0.0
O25 O 0.70263 0.2302 0.42704 0.0
O26 O 0.65228 0.32217 0.43669 0.0
O27 O 0.71569 0.33591 0.439 0.0
O28 O 0.42544 0.72204 0.7348 0.0
Cd29 Cd 0.45433 0.73629 0.75084 0.0
Cd30 Cd 0.378 0.67547 0.75729 0.0
O31 O 0.36171 0.68325 0.74043 0.0
O32 O 0.49964 0.79503 0.75002 0.0
O33 O 0.44413 0.77414 0.76059 0.0
C34 C 0.47745 0.80381 0.75666 0.0
C35 C 0.35492 0.6858 0.77533 0.0
C36 C 0.38774 0.70194 0.73237 0.0
C37 C 0.44672 0.65749 0.75875 0.0
O38 O 0.40863 0.64392 0.75831 0.0
O39 O 0.47158 0.69525 0.75721 0.0
O40 O 0.33275 0.65313 0.76931 0.0
O41 O 0.38835 0.71302 0.77069 0.0
O42 O 0.72036 0.4314 0.07037 0.0
Cd43 Cd 0.72937 0.45582 0.08699 0.0
Cd44 Cd 0.71404 0.37917 0.09216 0.0
O45 O 0.6922 0.36646 0.07492 0.0
O46 O 0.71439 0.50018 0.08688 0.0
O47 O 0.67796 0.44109 0.09559 0.0
C48 C 0.6818 0.47532 0.09249 0.0
C49 C 0.67863 0.35141 0.10963 0.0
C50 C 0.70253 0.3943 0.06725 0.0
C51 C 0.7996 0.44819 0.09558 0.0
O52 O 0.7761 0.4103 0.09409 0.0
O53 O 0.78604 0.47271 0.09447 0.0
O54 O 0.6911 0.33149 0.1033 0.0
O55 O 0.68399 0.38528 0.10558 0.0
O56 O 0.29902 0.7164 0.40169 0.0
Cd57 Cd 0.28239 0.7252 0.41817 0.0
Cd58 Cd 0.33957 0.70546 0.42415 0.0
O59 O 0.33055 0.6833 0.40694 0.0
O60 O 0.22319 0.7111 0.41802 0.0
O61 O 0.24511 0.67333 0.42636 0.0
C62 C 0.21502 0.678 0.4234 0.0
C63 C 0.33108 0.67018 0.44173 0.0
C64 C 0.31629 0.69618 0.39895 0.0
C65 C 0.3611 0.79256 0.42726 0.0
O66 O 0.37361 0.76741 0.42588 0.0
O67 O 0.3234 0.78089 0.42606 0.0
O68 O 0.36273 0.68066 0.43525 0.0
O69 O 0.30363 0.67748 0.4378 0.0
O70 O 0.58922 0.28643 0.73505 0.0
Cd71 Cd 0.56048 0.27459 0.75109 0.0
Cd72 Cd 0.63702 0.33514 0.75706 0.0
O73 O 0.65321 0.32507 0.74045 0.0
O74 O 0.51443 0.21638 0.75017 0.0
O75 O 0.5684 0.23661 0.76144 0.0
C76 C 0.53525 0.20724 0.75724 0.0
C77 C 0.66074 0.32687 0.77519 0.0
C78 C 0.62683 0.30556 0.73252 0.0
C79 C 0.56901 0.35446 0.75811 0.0
O80 O 0.607 0.36749 0.75765 0.0
O81 O 0.54374 0.31663 0.75687 0.0
O82 O 0.68251 0.35893 0.76897 0.0
O83 O 0.62719 0.29899 0.77072 0.0
O84 O 0.43189 0.71074 0.60622 0.0
Cd85 Cd 0.45906 0.72111 0.58998 0.0
Cd86 Cd 0.38211 0.70228 0.5835 0.0
O87 O 0.36761 0.67963 0.60058 0.0
O88 O 0.50435 0.70729 0.59059 0.0
O89 O 0.44624 0.67031 0.58133 0.0
C90 C 0.48047 0.67473 0.58476 0.0
C91 C 0.35751 0.66747 0.56568 0.0
C92 C 0.39424 0.69115 0.60872 0.0
C93 C 0.44878 0.78931 0.58103 0.0
O94 O 0.41098 0.76431 0.58201 0.0
O95 O 0.47454 0.7774 0.58248 0.0
O96 O 0.33566 0.67812 0.57181 0.0
O97 O 0.39152 0.67431 0.5701 0.0
O98 O 0.72221 0.42653 0.93925 0.0
Cd99 Cd 0.7361 0.45148 0.92269 0.0
Cd100 Cd 0.67438 0.37433 0.91763 0.0
O101 O 0.68448 0.36156 0.93468 0.0
O102 O 0.79496 0.49719 0.92285 0.0
O103 O 0.77393 0.43873 0.91381 0.0
C104 C 0.80365 0.47328 0.91703 0.0
C105 C 0.68373 0.34966 0.89976 0.0
C106 C 0.70296 0.38946 0.94234 0.0
C107 C 0.65659 0.44255 0.91483 0.0
O108 O 0.64273 0.40477 0.91631 0.0
O109 O 0.69475 0.46735 0.9156 0.0
O110 O 0.65143 0.32789 0.90592 0.0
O111 O 0.71114 0.3835 0.9042 0.0
O112 O 0.30186 0.71706 0.27288 0.0
Cd113 Cd 0.28699 0.73201 0.25707 0.0
Cd114 Cd 0.30177 0.67041 0.24991 0.0
O115 O 0.32273 0.67488 0.26713 0.0
O116 O 0.30048 0.79056 0.25834 0.0
O117 O 0.33428 0.76987 0.24722 0.0
C118 C 0.33096 0.79945 0.25151 0.0
C119 C 0.33943 0.68191 0.23267 0.0
C120 C 0.31723 0.69489 0.27524 0.0
C121 C 0.21579 0.65558 0.24784 0.0
O122 O 0.23982 0.6414 0.24742 0.0
O123 O 0.22861 0.69237 0.25083 0.0
O124 O 0.32508 0.64772 0.23812 0.0
O125 O 0.3345 0.70984 0.23747 0.0
O126 O 0.58892 0.29066 0.60577 0.0
Cd127 Cd 0.56363 0.28333 0.5893 0.0
Cd128 Cd 0.63928 0.29945 0.5834 0.0
O129 O 0.65362 0.31891 0.60077 0.0
O130 O 0.52036 0.29968 0.58979 0.0
O131 O 0.57964 0.33546 0.58101 0.0
C132 C 0.5457 0.33225 0.58428 0.0
C133 C 0.67067 0.33593 0.56637 0.0
C134 C 0.62625 0.30774 0.60866 0.0
C135 C 0.56974 0.21364 0.57992 0.0
O136 O 0.60769 0.23758 0.58106 0.0
O137 O 0.54503 0.22676 0.58148 0.0
O138 O 0.68733 0.31961 0.5725 0.0
O139 O 0.63794 0.33381 0.57034 0.0
O140 O 0.29427 0.58783 0.93859 0.0
Cd141 Cd 0.27977 0.56293 0.92199 0.0
Cd142 Cd 0.34209 0.63968 0.91685 0.0
O143 O 0.3333 0.65256 0.93409 0.0
O144 O 0.22056 0.51834 0.9221 0.0
O145 O 0.24301 0.57691 0.9131 0.0
C146 C 0.21271 0.54279 0.91631 0.0
C147 C 0.33402 0.66745 0.89945 0.0
C148 C 0.31442 0.62489 0.94172 0.0
C149 C 0.35785 0.56992 0.9136 0.0
O150 O 0.37241 0.60793 0.91486 0.0
O151 O 0.3198 0.5456 0.91485 0.0
O152 O 0.36675 0.68718 0.90564 0.0
O153 O 0.30551 0.63379 0.9036 0.0
O154 O 0.7185 0.28823 0.27415 0.0
Cd155 Cd 0.72634 0.2696 0.25798 0.0
Cd156 Cd 0.71153 0.32999 0.25104 0.0
O157 O 0.69182 0.32549 0.2685 0.0
O158 O 0.70982 0.21001 0.2586 0.0
O159 O 0.67369 0.2336 0.25 0.0
C160 C 0.67686 0.20297 0.25329 0.0
C161 C 0.67511 0.32022 0.23355 0.0
C162 C 0.7017 0.30903 0.27666 0.0
C163 C 0.79646 0.34452 0.24798 0.0
O164 O 0.77332 0.3597 0.24849 0.0
O165 O 0.78297 0.30719 0.25036 0.0
O166 O 0.68779 0.35324 0.23959 0.0
O167 O 0.68049 0.29213 0.23795 0.0
H168 H 0.27865 0.57191 0.95972 0.0
H169 H 0.28363 0.58596 0.98062 0.0
H170 H 0.35965 0.71383 0.97392 0.0
H171 H 0.35554 0.69982 0.95268 0.0
H172 H 0.38919 0.6897 0.99201 0.0
H173 H 0.26207 0.67757 0.98289 0.0
H174 H 0.19419 0.6482 0.97386 0.0
H175 H 0.15402 0.53893 0.99368 0.0
H176 H 0.22182 0.56736 1.0027 0.0
H177 H 0.35903 0.69881 0.05574 0.0
H178 H 0.36241 0.71293 0.03453 0.0
H179 H 0.29835 0.58457 0.02723 0.0
H180 H 0.29516 0.57022 0.0481 0.0
H181 H 0.26437 0.62736 0.01637 0.0
H182 H 0.39631 0.63718 0.0224 0.0
H183 H 0.46449 0.66719 0.03128 0.0
H184 H 0.49478 0.78373 0.01739 0.0
H185 H 0.42652 0.75445 0.00855 0.0
C186 C 0.2963 0.60317 0.96259 0.0
C187 C 0.31653 0.63477 0.95445 0.0
C188 C 0.29895 0.61117 0.97461 0.0
C189 C 0.32139 0.65103 0.97887 0.0
C190 C 0.34191 0.68284 0.97083 0.0
C191 C 0.3394 0.6748 0.95869 0.0
C192 C 0.32376 0.65836 0.99178 0.0
C193 C 0.3619 0.677 0.99734 0.0
C194 C 0.28821 0.64181 0.99877 0.0
C195 C 0.24715 0.62461 0.99345 0.0
C196 C 0.23884 0.64719 0.98528 0.0
C197 C 0.20036 0.63071 0.98016 0.0
C198 C 0.16982 0.59172 0.98319 0.0
C199 C 0.17769 0.56915 0.99135 0.0
C200 C 0.21613 0.58547 0.99649 0.0
C201 C 0.34606 0.67366 0.04959 0.0
C202 C 0.32667 0.63337 0.05366 0.0
C203 C 0.348 0.68179 0.0375 0.0
C204 C 0.33037 0.64976 0.02933 0.0
C205 C 0.31188 0.60973 0.03338 0.0
C206 C 0.31024 0.60162 0.04536 0.0
C207 C 0.32959 0.65692 0.01654 0.0
C208 C 0.29164 0.64104 0.01103 0.0
C209 C 0.36524 0.67629 0.00965 0.0
C210 C 0.40617 0.69377 0.01496 0.0
C211 C 0.41737 0.66928 0.02134 0.0
C212 C 0.45606 0.68614 0.02634 0.0
C213 C 0.4839 0.72738 0.02494 0.0
C214 C 0.47315 0.75182 0.01849 0.0
C215 C 0.43449 0.73511 0.01348 0.0
H216 H 0.51384 0.74037 0.02881 0.0
H217 H 0.14006 0.57901 0.97921 0.0
H218 H 0.73599 0.29333 0.38218 0.0
H219 H 0.73184 0.30483 0.36143 0.0
H220 H 0.66637 0.36758 0.36932 0.0
H221 H 0.66965 0.3553 0.39042 0.0
H222 H 0.63312 0.31635 0.35051 0.0
H223 H 0.76449 0.42213 0.36066 0.0
H224 H 0.83199 0.45414 0.37004 0.0
H225 H 0.86379 0.37936 0.34942 0.0
H226 H 0.7963 0.34646 0.34004 0.0
H227 H 0.66998 0.35399 0.28657 0.0
H228 H 0.66662 0.36714 0.30767 0.0
H229 H 0.71813 0.29187 0.31616 0.0
H230 H 0.72122 0.27833 0.29546 0.0
H231 H 0.75864 0.37014 0.32662 0.0
H232 H 0.62096 0.25604 0.32002 0.0
H233 H 0.55316 0.22433 0.31082 0.0
H234 H 0.53451 0.31893 0.32467 0.0
H235 H 0.60248 0.35147 0.33383 0.0
C236 C 0.72081 0.30979 0.37961 0.0
C237 C 0.70343 0.32367 0.38804 0.0
C238 C 0.71861 0.31649 0.36767 0.0
C239 C 0.69954 0.33782 0.3638 0.0
C240 C 0.68154 0.35133 0.37212 0.0
C241 C 0.68354 0.34439 0.38417 0.0
C242 C 0.69839 0.34488 0.35098 0.0
C243 C 0.66066 0.32912 0.34529 0.0
C244 C 0.73428 0.36172 0.34414 0.0
C245 C 0.77522 0.38176 0.34965 0.0
C246 C 0.7858 0.41237 0.35816 0.0
C247 C 0.82408 0.43068 0.36348 0.0
C248 C 0.85215 0.41878 0.36033 0.0
C249 C 0.84203 0.38859 0.35184 0.0
C250 C 0.80379 0.37016 0.3465 0.0
C251 C 0.68019 0.33998 0.29296 0.0
C252 C 0.6961 0.3153 0.28928 0.0
C253 C 0.67828 0.34755 0.30499 0.0
C254 C 0.69247 0.33072 0.31345 0.0
C255 C 0.70737 0.30545 0.30977 0.0
C256 C 0.70899 0.29767 0.29789 0.0
C257 C 0.69339 0.33966 0.32619 0.0
C258 C 0.73124 0.3586 0.33186 0.0
C259 C 0.65772 0.32611 0.33295 0.0
C260 C 0.61696 0.30647 0.32746 0.0
C261 C 0.60256 0.27028 0.321 0.0
C262 C 0.56407 0.25211 0.31582 0.0
C263 C 0.5396 0.26969 0.31712 0.0
C264 C 0.55353 0.3054 0.32364 0.0
C265 C 0.59202 0.32371 0.32883 0.0
H266 H 0.50981 0.25557 0.3131 0.0
H267 H 0.88176 0.43297 0.36446 0.0
H268 H 0.31568 0.64585 0.72199 0.0
H269 H 0.29993 0.63733 0.70085 0.0
H270 H 0.41638 0.74224 0.69355 0.0
H271 H 0.43204 0.75106 0.71443 0.0
H272 H 0.35908 0.74204 0.67996 0.0
H273 H 0.4019 0.64647 0.69156 0.0
H274 H 0.39693 0.58905 0.70292 0.0
H275 H 0.27737 0.51137 0.68908 0.0
H276 H 0.28148 0.56853 0.67774 0.0
H277 H 0.44361 0.72402 0.62771 0.0
H278 H 0.42484 0.71815 0.64833 0.0
H279 H 0.29945 0.63773 0.6393 0.0
H280 H 0.31789 0.64397 0.61833 0.0
H281 H 0.34113 0.61709 0.66055 0.0
H282 H 0.30793 0.7154 0.64574 0.0
H283 H 0.32057 0.77491 0.63399 0.0
H284 H 0.42905 0.84956 0.65382 0.0
H285 H 0.41741 0.79034 0.66556 0.0
C286 C 0.33756 0.66745 0.71587 0.0
C287 C 0.37523 0.69896 0.71989 0.0
C288 C 0.32863 0.66241 0.7038 0.0
C289 C 0.35715 0.68893 0.69559 0.0
C290 C 0.39387 0.7214 0.69968 0.0
C291 C 0.40286 0.72629 0.71166 0.0
C292 C 0.35053 0.68229 0.6827 0.0
C293 C 0.35474 0.71454 0.67573 0.0
C294 C 0.34423 0.64618 0.67715 0.0
C295 C 0.34175 0.61186 0.68394 0.0
C296 C 0.37442 0.61722 0.69102 0.0
C297 C 0.37179 0.58472 0.69744 0.0
C298 C 0.33679 0.54663 0.69676 0.0
C299 C 0.30441 0.54093 0.68962 0.0
C300 C 0.30687 0.57335 0.6832 0.0
C301 C 0.41199 0.70475 0.63002 0.0
C302 C 0.38222 0.68455 0.62131 0.0
C303 C 0.40136 0.7015 0.64185 0.0
C304 C 0.36082 0.67768 0.64531 0.0
C305 C 0.33095 0.65627 0.63676 0.0
C306 C 0.34152 0.65996 0.62481 0.0
C307 C 0.35056 0.67716 0.6579 0.0
C308 C 0.34371 0.64385 0.6648 0.0
C309 C 0.35501 0.71251 0.66342 0.0
C310 C 0.36189 0.74835 0.65648 0.0
C311 C 0.33464 0.74444 0.64753 0.0
C312 C 0.3416 0.77813 0.64088 0.0
C313 C 0.37562 0.81598 0.64314 0.0
C314 C 0.40271 0.82023 0.65208 0.0
C315 C 0.3959 0.78661 0.65874 0.0
H316 H 0.38096 0.84203 0.63798 0.0
H317 H 0.33482 0.5215 0.70173 0.0
H318 H 0.73218 0.4474 0.04909 0.0
H319 H 0.72238 0.43336 0.0282 0.0
H320 H 0.64728 0.30558 0.03519 0.0
H321 H 0.65793 0.31941 0.05644 0.0
H322 H 0.69844 0.31859 0.01687 0.0
H323 H 0.6032 0.36014 0.02636 0.0
H324 H 0.57791 0.40214 0.03551 0.0
H325 H 0.66307 0.50495 0.01541 0.0
H326 H 0.68931 0.46377 0.00626 0.0
H327 H 0.65691 0.31562 0.95338 0.0
H328 H 0.64776 0.30335 0.97469 0.0
H329 H 0.73301 0.42961 0.98126 0.0
H330 H 0.7425 0.44207 0.96026 0.0
H331 H 0.65868 0.40147 0.9927 0.0
H332 H 0.75993 0.3602 0.9859 0.0
H333 H 0.78426 0.3172 0.97687 0.0
H334 H 0.68346 0.21117 0.99175 0.0
H335 H 0.65825 0.25355 1.00074 0.0
C336 C 0.71336 0.41621 0.04628 0.0
C337 C 0.69548 0.38456 0.05451 0.0
C338 C 0.70767 0.40825 0.03427 0.0
C339 C 0.68334 0.36852 0.03009 0.0
C340 C 0.66592 0.33653 0.03822 0.0
C341 C 0.67192 0.34449 0.05035 0.0
C342 C 0.67695 0.36138 0.0172 0.0
C343 C 0.6888 0.33596 0.01159 0.0
C344 C 0.66429 0.38395 0.01026 0.0
C345 C 0.64831 0.40883 0.01564 0.0
C346 C 0.61668 0.39176 0.02393 0.0
C347 C 0.60217 0.41543 0.02912 0.0
C348 C 0.61889 0.45619 0.02605 0.0
C349 C 0.65012 0.47336 0.01777 0.0
C350 C 0.66477 0.44984 0.01256 0.0
C351 C 0.67411 0.34059 0.95938 0.0
C352 C 0.70019 0.3799 0.95508 0.0
C353 C 0.66881 0.33353 0.97155 0.0
C354 C 0.68948 0.36567 0.97954 0.0
C355 C 0.71649 0.40445 0.97525 0.0
C356 C 0.72192 0.41147 0.9632 0.0
C357 C 0.68208 0.36034 0.99241 0.0
C358 C 0.66736 0.38335 0.99799 0.0
C359 C 0.69169 0.33529 0.99925 0.0
C360 C 0.70692 0.30996 0.99386 0.0
C361 C 0.74274 0.32768 0.98715 0.0
C362 C 0.75675 0.30343 0.98206 0.0
C363 C 0.73534 0.26146 0.9837 0.0
C364 C 0.69996 0.24367 0.99046 0.0
C365 C 0.68582 0.26779 0.99556 0.0
H366 H 0.74623 0.24274 0.97975 0.0
H367 H 0.60763 0.47447 0.03008 0.0
H368 H 0.32074 0.74318 0.29336 0.0
H369 H 0.33183 0.73693 0.31404 0.0
H370 H 0.34773 0.63458 0.30643 0.0
H371 H 0.33592 0.6403 0.28541 0.0
H372 H 0.29675 0.62037 0.32527 0.0
H373 H 0.42905 0.72232 0.31468 0.0
H374 H 0.48053 0.7844 0.3048 0.0
H375 H 0.4439 0.85571 0.32526 0.0
H376 H 0.39173 0.79401 0.33513 0.0
H377 H 0.33811 0.64377 0.38876 0.0
H378 H 0.34867 0.63704 0.36768 0.0
H379 H 0.31874 0.72975 0.35971 0.0
H380 H 0.30757 0.73618 0.38047 0.0
H381 H 0.39143 0.74099 0.3488 0.0
H382 H 0.25002 0.63683 0.35532 0.0
H383 H 0.19625 0.57465 0.36461 0.0
H384 H 0.25161 0.50764 0.35157 0.0
H385 H 0.30605 0.56965 0.34234 0.0
C386 C 0.32687 0.71941 0.29599 0.0
C387 C 0.32741 0.6922 0.28768 0.0
C388 C 0.33348 0.71605 0.30786 0.0
C389 C 0.34118 0.68564 0.31179 0.0
C390 C 0.34209 0.65844 0.30357 0.0
C391 C 0.33553 0.66187 0.29157 0.0
C392 C 0.34629 0.68199 0.32461 0.0
C393 C 0.3183 0.64633 0.33041 0.0
C394 C 0.37426 0.71592 0.33133 0.0
C395 C 0.40635 0.75341 0.32564 0.0
C396 C 0.43185 0.75121 0.31705 0.0
C397 C 0.46116 0.78635 0.31145 0.0
C398 C 0.46545 0.82397 0.31439 0.0
C399 C 0.44056 0.82654 0.32299 0.0
C400 C 0.41116 0.79149 0.32862 0.0
C401 C 0.33367 0.66256 0.38249 0.0
C402 C 0.32186 0.6904 0.38631 0.0
C403 C 0.33974 0.65871 0.37047 0.0
C404 C 0.33468 0.68308 0.36216 0.0
C405 C 0.32305 0.71085 0.36599 0.0
C406 C 0.31641 0.71425 0.37788 0.0
C407 C 0.34084 0.68006 0.3494 0.0
C408 C 0.37095 0.71457 0.34364 0.0
C409 C 0.31501 0.64508 0.34273 0.0
C410 C 0.28239 0.60794 0.3483 0.0
C411 C 0.25095 0.60893 0.35454 0.0
C412 C 0.22031 0.57371 0.35977 0.0
C413 C 0.2206 0.53725 0.35872 0.0
C414 C 0.25148 0.53593 0.35241 0.0
C415 C 0.28223 0.57109 0.34718 0.0
H416 H 0.19684 0.51001 0.36277 0.0
H417 H 0.48808 0.85112 0.31001 0.0
H418 H 0.57882 0.25898 0.71459 0.0
H419 H 0.59518 0.26308 0.69386 0.0
H420 H 0.71806 0.3571 0.70113 0.0
H421 H 0.70154 0.35369 0.72216 0.0
H422 H 0.68618 0.37693 0.68268 0.0
H423 H 0.70014 0.26394 0.69253 0.0
H424 H 0.68231 0.19893 0.70197 0.0
H425 H 0.5724 0.13899 0.68171 0.0
H426 H 0.58923 0.20373 0.67226 0.0
H427 H 0.70145 0.35296 0.61916 0.0
H428 H 0.71733 0.35662 0.64027 0.0
H429 H 0.591 0.27438 0.64771 0.0
H430 H 0.57485 0.271 0.62692 0.0
H431 H 0.64544 0.25341 0.65863 0.0
H432 H 0.62642 0.37001 0.65256 0.0
H433 H 0.64342 0.43548 0.64356 0.0
H434 H 0.7651 0.48845 0.65691 0.0
H435 H 0.7489 0.42306 0.66586 0.0
C436 C 0.60951 0.28036 0.71187 0.0
C437 C 0.63886 0.30605 0.72008 0.0
C438 C 0.61891 0.28247 0.69997 0.0
C439 C 0.65802 0.31 0.69592 0.0
C440 C 0.68773 0.33545 0.70407 0.0
C441 C 0.67831 0.33333 0.71608 0.0
C442 C 0.66627 0.31306 0.68307 0.0
C443 C 0.67844 0.35016 0.67743 0.0
C444 C 0.65601 0.27812 0.6762 0.0
C445 C 0.64596 0.23881 0.68169 0.0
C446 C 0.67208 0.23694 0.69011 0.0
C447 C 0.66215 0.20013 0.69547 0.0
C448 C 0.62625 0.16486 0.69244 0.0
C449 C 0.60023 0.16633 0.68403 0.0
C450 C 0.61001 0.20308 0.67865 0.0
C451 C 0.67711 0.33583 0.62532 0.0
C452 C 0.63687 0.31179 0.62134 0.0
C453 C 0.68623 0.33792 0.63736 0.0
C454 C 0.65532 0.31558 0.64553 0.0
C455 C 0.61532 0.29165 0.64155 0.0
C456 C 0.60614 0.29 0.62963 0.0
C457 C 0.66366 0.31679 0.65831 0.0
C458 C 0.65453 0.28042 0.66391 0.0
C459 C 0.67696 0.35238 0.66512 0.0
C460 C 0.68664 0.39155 0.65973 0.0
C461 C 0.65691 0.39551 0.65347 0.0
C462 C 0.66637 0.43262 0.6484 0.0
C463 C 0.70536 0.46606 0.64962 0.0
C464 C 0.73494 0.46249 0.65594 0.0
C465 C 0.72564 0.42543 0.66102 0.0
H466 H 0.71262 0.49478 0.6457 0.0
H467 H 0.61862 0.1364 0.6966 0.0
H468 H 0.3714 0.75058 0.21941 0.0
H469 H 0.3872 0.75675 0.19846 0.0
H470 H 0.36134 0.63282 0.19757 0.0
H471 H 0.34539 0.62627 0.21861 0.0
H472 H 0.42762 0.68615 0.18283 0.0
H473 H 0.28836 0.64987 0.19076 0.0
H474 H 0.23501 0.659 0.20019 0.0
H475 H 0.28334 0.77617 0.18421 0.0
H476 H 0.3374 0.76796 0.17482 0.0
H477 H 0.36267 0.62214 0.12469 0.0
H478 H 0.37608 0.63485 0.14559 0.0
H479 H 0.37733 0.74839 0.14213 0.0
H480 H 0.36213 0.73491 0.12111 0.0
H481 H 0.33065 0.70841 0.15927 0.0
H482 H 0.46531 0.7416 0.14922 0.0
H483 H 0.51892 0.73281 0.13983 0.0
H484 H 0.48134 0.62368 0.15949 0.0
H485 H 0.42713 0.63148 0.1689 0.0
C486 C 0.36987 0.72482 0.21484 0.0
C487 C 0.35663 0.68773 0.22066 0.0
C488 C 0.3789 0.72844 0.20285 0.0
C489 C 0.37484 0.69508 0.19643 0.0
C490 C 0.36459 0.65892 0.20237 0.0
C491 C 0.35543 0.65521 0.21439 0.0
C492 C 0.37701 0.6966 0.1834 0.0
C493 C 0.40637 0.69079 0.17764 0.0
C494 C 0.3499 0.70372 0.17666 0.0
C495 C 0.31718 0.7085 0.1822 0.0
C496 C 0.2878 0.67771 0.18933 0.0
C497 C 0.25741 0.6827 0.19466 0.0
C498 C 0.25586 0.71819 0.19283 0.0
C499 C 0.28463 0.74872 0.18564 0.0
C500 C 0.31514 0.74392 0.18031 0.0
C501 C 0.36655 0.65026 0.12829 0.0
C502 C 0.36112 0.67745 0.12121 0.0
C503 C 0.37456 0.65765 0.14029 0.0
C504 C 0.37819 0.69282 0.1455 0.0
C505 C 0.3747 0.72102 0.13834 0.0
C506 C 0.36619 0.7134 0.12631 0.0
C507 C 0.3813 0.69778 0.15853 0.0
C508 C 0.3526 0.70454 0.16436 0.0
C509 C 0.40919 0.69171 0.16529 0.0
C510 C 0.44196 0.68702 0.15971 0.0
C511 C 0.4683 0.71558 0.15149 0.0
C512 C 0.49883 0.71079 0.14617 0.0
C513 C 0.50349 0.67767 0.14905 0.0
C514 C 0.47769 0.64932 0.15727 0.0
C515 C 0.44709 0.65395 0.16262 0.0
H516 H 0.52713 0.67401 0.14491 0.0
H517 H 0.2323 0.722 0.19696 0.0
H518 H 0.62338 0.30893 0.45876 0.0
H519 H 0.62841 0.32352 0.47975 0.0
H520 H 0.75394 0.41622 0.4754 0.0
H521 H 0.74962 0.39894 0.4545 0.0
H522 H 0.7531 0.37922 0.49273 0.0
H523 H 0.6706 0.43506 0.48335 0.0
H524 H 0.61419 0.4402 0.47446 0.0
H525 H 0.52829 0.33759 0.49449 0.0
H526 H 0.58412 0.33146 0.50339 0.0
H527 H 0.6659 0.39662 0.55513 0.0
H528 H 0.67902 0.41465 0.53432 0.0
H529 H 0.71522 0.3244 0.5296 0.0
H530 H 0.70532 0.30899 0.55051 0.0
H531 H 0.64347 0.37718 0.51685 0.0
H532 H 0.76864 0.33471 0.50602 0.0
H533 H 0.83144 0.34288 0.51493 0.0
H534 H 0.84432 0.44376 0.53536 0.0
H535 H 0.78192 0.43659 0.52646 0.0
C536 C 0.65175 0.33308 0.46225 0.0
C537 C 0.68603 0.353 0.45501 0.0
C538 C 0.65464 0.34163 0.47429 0.0
C539 C 0.69146 0.37151 0.47929 0.0
C540 C 0.7252 0.3929 0.47187 0.0
C541 C 0.72266 0.38332 0.45989 0.0
C542 C 0.69559 0.37768 0.49232 0.0
C543 C 0.72928 0.37926 0.49797 0.0
C544 C 0.66542 0.37916 0.49929 0.0
C545 C 0.6316 0.38268 0.49399 0.0
C546 C 0.63967 0.41343 0.48581 0.0
C547 C 0.60779 0.41654 0.48077 0.0
C548 C 0.56768 0.3892 0.48389 0.0
C549 C 0.55937 0.35875 0.49208 0.0
C550 C 0.59114 0.35549 0.49714 0.0
C551 C 0.67799 0.38171 0.54968 0.0
C552 C 0.68506 0.35177 0.55444 0.0
C553 C 0.68514 0.39172 0.53776 0.0
C554 C 0.69842 0.37118 0.53026 0.0
C555 C 0.70629 0.34182 0.53514 0.0
C556 C 0.70044 0.33281 0.54713 0.0
C557 C 0.70042 0.37758 0.51725 0.0
C558 C 0.66776 0.37812 0.51161 0.0
C559 C 0.7326 0.38021 0.51029 0.0
C560 C 0.7704 0.38491 0.51562 0.0
C561 C 0.78498 0.35879 0.51236 0.0
C562 C 0.82049 0.36321 0.51742 0.0
C563 C 0.8418 0.39376 0.52572 0.0
C564 C 0.82771 0.42003 0.52895 0.0
C565 C 0.79224 0.41576 0.52391 0.0
H566 H 0.86926 0.39711 0.52964 0.0
H567 H 0.54304 0.39165 0.47998 0.0
H568 H 0.28635 0.63559 0.78796 0.0
H569 H 0.27527 0.63955 0.80903 0.0
H570 H 0.39164 0.74909 0.81167 0.0
H571 H 0.40199 0.74627 0.79068 0.0
H572 H 0.31563 0.6325 0.82608 0.0
H573 H 0.39897 0.80586 0.83499 0.0
H574 H 0.41063 0.86841 0.82513 0.0
H575 H 0.30027 0.80046 0.80547 0.0
H576 H 0.28764 0.73759 0.81532 0.0
H577 H 0.39312 0.72858 0.88615 0.0
H578 H 0.39042 0.73885 0.86496 0.0
H579 H 0.26502 0.644 0.86418 0.0
H580 H 0.26739 0.63349 0.88524 0.0
H581 H 0.34119 0.75416 0.84905 0.0
H582 H 0.25532 0.58151 0.8413 0.0
H583 H 0.24509 0.51918 0.85101 0.0
H584 H 0.36133 0.58652 0.86787 0.0
H585 H 0.37247 0.64906 0.85813 0.0
C586 C 0.30907 0.66103 0.79299 0.0
C587 C 0.34502 0.69058 0.78763 0.0
C588 C 0.30281 0.6632 0.80505 0.0
C589 C 0.33244 0.69481 0.81199 0.0
C590 C 0.3678 0.72492 0.80654 0.0
C591 C 0.3738 0.72308 0.79449 0.0
C592 C 0.32832 0.69432 0.82503 0.0
C593 C 0.32029 0.6589 0.83104 0.0
C594 C 0.33572 0.72912 0.83162 0.0
C595 C 0.34254 0.76694 0.82584 0.0
C596 C 0.37706 0.80429 0.82862 0.0
C597 C 0.38389 0.8398 0.82301 0.0
C598 C 0.35629 0.83839 0.81465 0.0
C599 C 0.32171 0.80149 0.81192 0.0
C600 C 0.31472 0.7659 0.8175 0.0
C601 C 0.36469 0.71064 0.88152 0.0
C602 C 0.33064 0.67988 0.88736 0.0
C603 C 0.36319 0.71658 0.86942 0.0
C604 C 0.32771 0.69173 0.86298 0.0
C605 C 0.29285 0.66316 0.86896 0.0
C606 C 0.29429 0.65724 0.88101 0.0
C607 C 0.32821 0.69236 0.84992 0.0
C608 C 0.33588 0.72774 0.84399 0.0
C609 C 0.32053 0.65759 0.84335 0.0
C610 C 0.31446 0.62001 0.84909 0.0
C611 C 0.27873 0.58295 0.84705 0.0
C612 C 0.27277 0.5476 0.85256 0.0
C613 C 0.30247 0.54893 0.86009 0.0
C614 C 0.33827 0.58557 0.86208 0.0
C615 C 0.3444 0.62098 0.85657 0.0
H616 H 0.29778 0.52154 0.86435 0.0
H617 H 0.36164 0.86589 0.81031 0.0
H618 H 0.64823 0.38658 0.12428 0.0
H619 H 0.63484 0.37477 0.14529 0.0
H620 H 0.66145 0.27716 0.14367 0.0
H621 H 0.6749 0.28873 0.12253 0.0
H622 H 0.59694 0.2616 0.15909 0.0
H623 H 0.73441 0.36665 0.15162 0.0
H624 H 0.78738 0.43041 0.14283 0.0
H625 H 0.73821 0.49631 0.16047 0.0
H626 H 0.68458 0.4328 0.16925 0.0
H627 H 0.65886 0.2598 0.21782 0.0
H628 H 0.64628 0.25923 0.19686 0.0
H629 H 0.64326 0.37065 0.20051 0.0
H630 H 0.65782 0.37233 0.22154 0.0
H631 H 0.69114 0.37888 0.18379 0.0
H632 H 0.55614 0.2731 0.19278 0.0
H633 H 0.5021 0.20843 0.20084 0.0
H634 H 0.54578 0.14303 0.1804 0.0
H635 H 0.60035 0.20727 0.17231 0.0
C636 C 0.6505 0.36204 0.12831 0.0
C637 C 0.66308 0.33886 0.12174 0.0
C638 C 0.64291 0.35542 0.14034 0.0
C639 C 0.64784 0.32558 0.14608 0.0
C640 C 0.6576 0.30045 0.13942 0.0
C641 C 0.66528 0.3071 0.12734 0.0
C642 C 0.6463 0.32311 0.15911 0.0
C643 C 0.61766 0.28704 0.16454 0.0
C644 C 0.67283 0.35666 0.16618 0.0
C645 C 0.70524 0.39493 0.16099 0.0
C646 C 0.73471 0.3947 0.15355 0.0
C647 C 0.76488 0.43079 0.14858 0.0
C648 C 0.76609 0.46737 0.15106 0.0
C649 C 0.7372 0.46794 0.15855 0.0
C650 C 0.70692 0.43192 0.16353 0.0
C651 C 0.65469 0.28381 0.21424 0.0
C652 C 0.65959 0.31628 0.22137 0.0
C653 C 0.64717 0.28328 0.2022 0.0
C654 C 0.64343 0.31471 0.19702 0.0
C655 C 0.64609 0.34604 0.20426 0.0
C656 C 0.65423 0.34691 0.2163 0.0
C657 C 0.64138 0.31722 0.18396 0.0
C658 C 0.66978 0.35341 0.17846 0.0
C659 C 0.61461 0.28365 0.17687 0.0
C660 C 0.58249 0.24507 0.18199 0.0
C661 C 0.55447 0.24496 0.19009 0.0
C662 C 0.52367 0.20836 0.19464 0.0
C663 C 0.52048 0.17166 0.19111 0.0
C664 C 0.54824 0.17148 0.1831 0.0
C665 C 0.57907 0.20796 0.17852 0.0
H666 H 0.49642 0.14332 0.19455 0.0
H667 H 0.78947 0.49529 0.14721 0.0
H668 H 0.29244 0.65718 0.55246 0.0
H669 H 0.28267 0.64379 0.53125 0.0
H670 H 0.38947 0.63159 0.52997 0.0
H671 H 0.39931 0.6446 0.55105 0.0
H672 H 0.39223 0.68849 0.51446 0.0
H673 H 0.29926 0.55056 0.52522 0.0
H674 H 0.2405 0.49592 0.53557 0.0
H675 H 0.16111 0.52965 0.51843 0.0
H676 H 0.2195 0.58489 0.5081 0.0
H677 H 0.38554 0.6556 0.45353 0.0
H678 H 0.38509 0.6413 0.47453 0.0
H679 H 0.27031 0.63751 0.4784 0.0
H680 H 0.26992 0.65043 0.45745 0.0
H681 H 0.27198 0.58431 0.49268 0.0
H682 H 0.36134 0.72484 0.48392 0.0
H683 H 0.41804 0.78304 0.47398 0.0
H684 H 0.50172 0.74893 0.48789 0.0
H685 H 0.44538 0.69017 0.4978 0.0
C686 C 0.31326 0.65067 0.54771 0.0
C687 C 0.34681 0.65226 0.55344 0.0
C688 C 0.30763 0.64301 0.53559 0.0
C689 C 0.33546 0.63685 0.52903 0.0
C690 C 0.36773 0.6364 0.53485 0.0
C691 C 0.37322 0.64377 0.54693 0.0
C692 C 0.33344 0.63491 0.51599 0.0
C693 C 0.36626 0.66522 0.50969 0.0
C694 C 0.299 0.60538 0.50979 0.0
C695 C 0.26383 0.57211 0.51597 0.0
C696 C 0.26932 0.54656 0.52374 0.0
C697 C 0.23607 0.51542 0.52958 0.0
C698 C 0.19711 0.50937 0.52768 0.0
C699 C 0.19131 0.53439 0.51991 0.0
C700 C 0.22447 0.56559 0.51404 0.0
C701 C 0.35979 0.65082 0.45881 0.0
C702 C 0.32803 0.65466 0.45384 0.0
C703 C 0.35966 0.64288 0.47083 0.0
C704 C 0.3281 0.63926 0.47812 0.0
C705 C 0.29509 0.64036 0.473 0.0
C706 C 0.29502 0.64791 0.46099 0.0
C707 C 0.33091 0.63783 0.49115 0.0
C708 C 0.2982 0.6072 0.49745 0.0
C709 C 0.36516 0.66754 0.49741 0.0
C710 C 0.3991 0.70286 0.49148 0.0
C711 C 0.3918 0.72959 0.48479 0.0
C712 C 0.42387 0.76269 0.47917 0.0
C713 C 0.46344 0.7696 0.48027 0.0
C714 C 0.47104 0.74348 0.48702 0.0
C715 C 0.43905 0.71028 0.49264 0.0
H716 H 0.48824 0.79526 0.47592 0.0
H717 H 0.1714 0.48525 0.53222 0.0
H718 H 0.62866 0.28476 0.8865 0.0
H719 H 0.63148 0.2754 0.86522 0.0
H720 H 0.7499 0.38245 0.86387 0.0
H721 H 0.7476 0.39182 0.88501 0.0
H722 H 0.69357 0.38447 0.84856 0.0
H723 H 0.74246 0.29384 0.85905 0.0
H724 H 0.73983 0.23549 0.86924 0.0
H725 H 0.62735 0.15497 0.85194 0.0
H726 H 0.62901 0.21294 0.84177 0.0
H727 H 0.72685 0.38185 0.78795 0.0
H728 H 0.7376 0.38066 0.80913 0.0
H729 H 0.62807 0.26442 0.81161 0.0
H730 H 0.61778 0.26484 0.79047 0.0
H731 H 0.68225 0.26661 0.82646 0.0
H732 H 0.62775 0.35289 0.81748 0.0
H733 H 0.6244 0.40888 0.80768 0.0
H734 H 0.73969 0.49466 0.8226 0.0
H735 H 0.74395 0.43909 0.83238 0.0
C736 C 0.65568 0.30572 0.88171 0.0
C737 C 0.68775 0.33918 0.88745 0.0
C738 C 0.65725 0.30035 0.86956 0.0
C739 C 0.69084 0.32839 0.86297 0.0
C740 C 0.72365 0.36058 0.86878 0.0
C741 C 0.72226 0.36579 0.88089 0.0
C742 C 0.6904 0.32653 0.84993 0.0
C743 C 0.69183 0.35902 0.84372 0.0
C744 C 0.68666 0.29268 0.84365 0.0
C745 C 0.68567 0.2578 0.84974 0.0
C746 C 0.71697 0.26374 0.8575 0.0
C747 C 0.7157 0.23072 0.86325 0.0
C748 C 0.68339 0.19156 0.86126 0.0
C749 C 0.65234 0.18533 0.85348 0.0
C750 C 0.65345 0.21825 0.84771 0.0
C751 C 0.70552 0.35567 0.79297 0.0
C752 C 0.67124 0.32367 0.78754 0.0
C753 C 0.71155 0.35512 0.80509 0.0
C754 C 0.68313 0.32284 0.81202 0.0
C755 C 0.65031 0.28973 0.80648 0.0
C756 C 0.64442 0.29011 0.79437 0.0
C757 C 0.68584 0.3248 0.82508 0.0
C758 C 0.68447 0.29227 0.8313 0.0
C759 C 0.68882 0.35829 0.83143 0.0
C760 C 0.68639 0.39179 0.82555 0.0
C761 C 0.65254 0.38366 0.81859 0.0
C762 C 0.65044 0.41532 0.81306 0.0
C763 C 0.68187 0.45528 0.81448 0.0
C764 C 0.71541 0.46368 0.82148 0.0
C765 C 0.71767 0.43212 0.82703 0.0
H766 H 0.6802 0.47974 0.81019 0.0
H767 H 0.68247 0.16604 0.86572 0.0
H768 H 0.83509 0.40306 0.10078 0.0
H769 H 0.90705 0.42554 0.1025 0.0
H770 H 0.93609 0.54937 0.09729 0.0
H771 H 0.86353 0.52687 0.09536 0.0
H772 H 0.98173 0.53106 0.08349 0.0
H773 H 0.94813 0.51582 0.12425 0.0
H774 H 0.90916 0.48125 0.14201 0.0
H775 H 0.93948 0.38746 0.13733 0.0
H776 H 0.97814 0.42113 0.11942 0.0
H777 H 0.18936 0.61966 0.09675 0.0
H778 H 0.11772 0.59829 0.09858 0.0
H779 H 0.08797 0.4732 0.09941 0.0
H780 H 0.16036 0.4944 0.09752 0.0
H781 H 0.04331 0.49288 0.11592 0.0
H782 H 0.07487 0.50764 0.07473 0.0
H783 H 0.11398 0.54287 0.05706 0.0
H784 H 0.08737 0.63878 0.06287 0.0
H785 H 0.04858 0.60439 0.0807 0.0
C786 C 0.85662 0.4352 0.10012 0.0
C787 C 0.84337 0.46315 0.0979 0.0
C788 C 0.89791 0.44803 0.10117 0.0
C789 C 0.92715 0.48921 0.10012 0.0
C790 C 0.9141 0.51741 0.09816 0.0
C791 C 0.8726 0.50455 0.09711 0.0
C792 C 0.97122 0.50217 0.10039 0.0
C793 C 0.99528 0.52332 0.0907 0.0
C794 C 0.98881 0.4911 0.10962 0.0
C795 C 0.96575 0.47083 0.12042 0.0
C796 C 0.94623 0.48765 0.12695 0.0
C797 C 0.92424 0.46824 0.13705 0.0
C798 C 0.92177 0.43213 0.14078 0.0
C799 C 0.94139 0.41541 0.13442 0.0
C800 C 0.96338 0.43467 0.1243 0.0
C801 C 0.16783 0.58753 0.09741 0.0
C802 C 0.18081 0.55873 0.09688 0.0
C803 C 0.12673 0.57539 0.09844 0.0
C804 C 0.09741 0.53416 0.09898 0.0
C805 C 0.11013 0.50522 0.09897 0.0
C806 C 0.15149 0.51737 0.09787 0.0
C807 C 0.05354 0.52173 0.09905 0.0
C808 C 0.02962 0.50068 0.10877 0.0
C809 C 0.03601 0.53297 0.08987 0.0
C810 C 0.05916 0.55363 0.07912 0.0
C811 C 0.07764 0.53641 0.0723 0.0
C812 C 0.0997 0.5562 0.06224 0.0
C813 C 0.10325 0.59309 0.05886 0.0
C814 C 0.08465 0.61022 0.06551 0.0
C815 C 0.06259 0.59058 0.07559 0.0
H816 H 0.12033 0.60836 0.05107 0.0
H817 H 0.90473 0.41716 0.1486 0.0
H818 H 0.67994 0.153 0.42943 0.0
H819 H 0.62993 0.08055 0.43113 0.0
H820 H 0.53358 0.10908 0.43325 0.0
H821 H 0.58297 0.1809 0.4319 0.0
H822 H 0.51756 0.05045 0.44779 0.0
H823 H 0.55785 0.07646 0.40718 0.0
H824 H 0.60604 0.0998 0.39061 0.0
H825 H 0.64359 0.01413 0.39986 0.0
H826 H 0.59597 0.99063 0.41659 0.0
H827 H 0.34938 0.85848 0.42922 0.0
H828 H 0.4018 0.93016 0.43122 0.0
H829 H 0.49441 0.89629 0.43222 0.0
H830 H 0.44276 0.82522 0.43024 0.0
H831 H 0.51344 0.9567 0.41672 0.0
H832 H 0.46888 0.92825 0.45685 0.0
H833 H 0.41889 0.90478 0.47295 0.0
H834 H 0.38711 0.995 0.46401 0.0
H835 H 0.43655 0.01865 0.44774 0.0
C836 C 0.64816 0.14384 0.43039 0.0
C837 C 0.63563 0.17295 0.43044 0.0
C838 C 0.6195 0.10235 0.43129 0.0
C839 C 0.57773 0.08911 0.43213 0.0
C840 C 0.56547 0.11827 0.4326 0.0
C841 C 0.59394 0.15954 0.43177 0.0
C842 C 0.5464 0.04507 0.4321 0.0
C843 C 0.51652 0.03008 0.44093 0.0
C844 C 0.54509 0.01809 0.42326 0.0
C845 C 0.5737 0.03213 0.41321 0.0
C846 C 0.57662 0.06283 0.40573 0.0
C847 C 0.60378 0.07604 0.3963 0.0
C848 C 0.62795 0.05854 0.3942 0.0
C849 C 0.62491 0.02771 0.40151 0.0
C850 C 0.59783 0.01442 0.41096 0.0
C851 C 0.38085 0.86627 0.43 0.0
C852 C 0.39169 0.83591 0.42953 0.0
C853 C 0.41082 0.90728 0.43116 0.0
C854 C 0.45216 0.9187 0.43187 0.0
C855 C 0.46284 0.88836 0.43163 0.0
C856 C 0.43307 0.84758 0.43053 0.0
C857 C 0.48461 0.96218 0.43238 0.0
C858 C 0.51464 0.97705 0.42361 0.0
C859 C 0.48581 0.98905 0.44121 0.0
C860 C 0.45613 0.97495 0.451 0.0
C861 C 0.45099 0.94286 0.45825 0.0
C862 C 0.4228 0.92957 0.46742 0.0
C863 C 0.39976 0.94832 0.46949 0.0
C864 C 0.40494 0.98047 0.4624 0.0
C865 C 0.43307 0.99385 0.4532 0.0
H866 H 0.37795 0.93799 0.47659 0.0
H867 H 0.64896 0.06881 0.38689 0.0
H868 H 0.61613 0.43648 0.76046 0.0
H869 H 0.59487 0.48688 0.76175 0.0
H870 H 0.46937 0.39225 0.76049 0.0
H871 H 0.49058 0.34109 0.7589 0.0
H872 H 0.48193 0.4528 0.74622 0.0
H873 H 0.51453 0.4442 0.78626 0.0
H874 H 0.55684 0.44348 0.80258 0.0
H875 H 0.64872 0.56529 0.79437 0.0
H876 H 0.60725 0.56654 0.77787 0.0
H877 H 0.40045 0.57608 0.76236 0.0
H878 H 0.42218 0.52593 0.76338 0.0
H879 H 0.54703 0.62035 0.75996 0.0
H880 H 0.52546 0.67141 0.75889 0.0
H881 H 0.53437 0.56004 0.77697 0.0
H882 H 0.50156 0.56728 0.73662 0.0
H883 H 0.4585 0.56749 0.72044 0.0
H884 H 0.36572 0.44709 0.72965 0.0
H885 H 0.40798 0.4464 0.74601 0.0
C886 C 0.58391 0.42608 0.76053 0.0
C887 C 0.55506 0.38449 0.7596 0.0
C888 C 0.5718 0.45513 0.76133 0.0
C889 C 0.53049 0.4435 0.76139 0.0
C890 C 0.50146 0.40201 0.76051 0.0
C891 C 0.5136 0.37276 0.75965 0.0
C892 C 0.51802 0.47496 0.76197 0.0
C893 C 0.49287 0.47579 0.75307 0.0
C894 C 0.53311 0.50574 0.77073 0.0
C895 C 0.55789 0.50533 0.78076 0.0
C896 C 0.54387 0.47075 0.78788 0.0
C897 C 0.56769 0.47025 0.79717 0.0
C898 C 0.60548 0.50428 0.79949 0.0
C899 C 0.61946 0.53894 0.79255 0.0
C900 C 0.59578 0.53958 0.78324 0.0
C901 C 0.43265 0.58653 0.7619 0.0
C902 C 0.46119 0.62797 0.76044 0.0
C903 C 0.44497 0.55763 0.76247 0.0
C904 C 0.48614 0.56926 0.76159 0.0
C905 C 0.51504 0.61069 0.76062 0.0
C906 C 0.50267 0.63983 0.75999 0.0
C907 C 0.49837 0.5377 0.76124 0.0
C908 C 0.52343 0.53691 0.77016 0.0
C909 C 0.48309 0.50683 0.75254 0.0
C910 C 0.4578 0.50694 0.74261 0.0
C911 C 0.47185 0.54096 0.73525 0.0
C912 C 0.44761 0.54115 0.72604 0.0
C913 C 0.40935 0.50737 0.72403 0.0
C914 C 0.39533 0.47326 0.73122 0.0
C915 C 0.41944 0.47294 0.74045 0.0
H916 H 0.39062 0.5076 0.7169 0.0
H917 H 0.62389 0.50382 0.80668 0.0
H918 H 0.49087 0.14998 0.57803 0.0
H919 H 0.46865 0.07755 0.57625 0.0
H920 H 0.59362 0.10597 0.57557 0.0
H921 H 0.61585 0.17776 0.57693 0.0
H922 H 0.55344 0.04744 0.56097 0.0
H923 H 0.53288 0.07327 0.60113 0.0
H924 H 0.5055 0.09653 0.61713 0.0
H925 H 0.38393 0.0109 0.60631 0.0
H926 H 0.41061 0.98749 0.59014 0.0
H927 H 0.52666 0.85511 0.58006 0.0
H928 H 0.54635 0.92688 0.57809 0.0
H929 H 0.4203 0.89344 0.57526 0.0
H930 H 0.40046 0.82229 0.57723 0.0
H931 H 0.4592 0.95358 0.59103 0.0
H932 H 0.4821 0.92544 0.55135 0.0
H933 H 0.51159 0.90224 0.53594 0.0
H934 H 0.63162 0.99242 0.54668 0.0
H935 H 0.60284 0.01581 0.56226 0.0
C936 C 0.51356 0.14079 0.57734 0.0
C937 C 0.55516 0.16986 0.57771 0.0
C938 C 0.50085 0.09931 0.57641 0.0
C939 C 0.52945 0.08603 0.57599 0.0
C940 C 0.57087 0.11517 0.5759 0.0
C941 C 0.58354 0.15643 0.57672 0.0
C942 C 0.51678 0.042 0.57608 0.0
C943 C 0.53308 0.02705 0.56762 0.0
C944 C 0.48983 0.01498 0.58463 0.0
C945 C 0.47374 0.02896 0.59435 0.0
C946 C 0.50031 0.05962 0.60211 0.0
C947 C 0.48492 0.07279 0.61122 0.0
C948 C 0.443 0.05529 0.61272 0.0
C949 C 0.41639 0.02449 0.60513 0.0
C950 C 0.43162 0.01124 0.596 0.0
C951 C 0.50319 0.86302 0.57889 0.0
C952 C 0.46197 0.83276 0.57885 0.0
C953 C 0.51448 0.90408 0.57775 0.0
C954 C 0.48478 0.91563 0.57651 0.0
C955 C 0.44377 0.8854 0.57625 0.0
C956 C 0.43252 0.84458 0.57735 0.0
C957 C 0.49593 0.95914 0.57595 0.0
C958 C 0.47938 0.97396 0.58435 0.0
C959 C 0.52297 0.98607 0.56743 0.0
C960 C 0.54032 0.97211 0.55805 0.0
C961 C 0.51479 0.94011 0.55049 0.0
C962 C 0.53138 0.92696 0.54171 0.0
C963 C 0.57346 0.94577 0.54035 0.0
C964 C 0.59904 0.97784 0.54775 0.0
C965 C 0.5826 0.99108 0.55655 0.0
H966 H 0.58624 0.93556 0.53355 0.0
H967 H 0.43114 0.06552 0.61977 0.0
H968 H 0.43797 0.61423 0.90776 0.0
H969 H 0.48738 0.59153 0.90628 0.0
H970 H 0.39323 0.46859 0.91301 0.0
H971 H 0.34326 0.49133 0.9147 0.0
H972 H 0.45829 0.48902 0.92658 0.0
H973 H 0.43662 0.49805 0.88568 0.0
H974 H 0.4308 0.52987 0.8675 0.0
H975 H 0.55517 0.62412 0.8709 0.0
H976 H 0.56158 0.59321 0.88922 0.0
H977 H 0.57414 0.39647 0.91371 0.0
H978 H 0.52455 0.41876 0.91202 0.0
H979 H 0.62095 0.54303 0.90978 0.0
H980 H 0.67152 0.5209 0.91153 0.0
H981 H 0.55514 0.52182 0.89357 0.0
H982 H 0.57548 0.51287 0.93482 0.0
H983 H 0.58069 0.48013 0.95289 0.0
H984 H 0.45745 0.38432 0.94849 0.0
H985 H 0.45169 0.41619 0.93029 0.0
C986 C 0.42748 0.58222 0.90881 0.0
C987 C 0.38649 0.55462 0.91138 0.0
C988 C 0.45589 0.56925 0.90789 0.0
C989 C 0.44413 0.52828 0.90944 0.0
C990 C 0.40307 0.50038 0.91176 0.0
C991 C 0.37446 0.51337 0.91266 0.0
C992 C 0.47525 0.51529 0.90932 0.0
C993 C 0.47895 0.4956 0.91926 0.0
C994 C 0.50313 0.52487 0.89993 0.0
C995 C 0.49946 0.5435 0.88889 0.0
C996 C 0.46265 0.52575 0.88261 0.0
C997 C 0.45926 0.54359 0.87227 0.0
C998 C 0.49257 0.57905 0.86806 0.0
C999 C 0.52938 0.59667 0.87418 0.0
C1000 C 0.53292 0.57898 0.88453 0.0
C1001 C 0.58514 0.42861 0.91279 0.0
C1002 C 0.62706 0.45691 0.91285 0.0
C1003 C 0.55654 0.44128 0.91184 0.0
C1004 C 0.56895 0.48256 0.91091 0.0
C1005 C 0.61071 0.51098 0.91052 0.0
C1006 C 0.63957 0.4983 0.91154 0.0
C1007 C 0.53793 0.49557 0.9108 0.0
C1008 C 0.53433 0.51525 0.90085 0.0
C1009 C 0.51 0.48589 0.92016 0.0
C1010 C 0.51329 0.46672 0.93113 0.0
C1011 C 0.5496 0.48464 0.93765 0.0
C1012 C 0.55263 0.46627 0.94793 0.0
C1013 C 0.51946 0.43011 0.95182 0.0
C1014 C 0.48314 0.4123 0.94546 0.0
C1015 C 0.47996 0.43052 0.93517 0.0
H1016 H 0.52186 0.41594 0.95978 0.0
H1017 H 0.48988 0.59281 0.86005 0.0
H1018 H 0.18271 0.59417 0.23187 0.0
H1019 H 0.11131 0.54262 0.22957 0.0
H1020 H 0.07947 0.59958 0.25728 0.0
H1021 H 0.15067 0.6527 0.25899 0.0
H1022 H 0.0642 0.4873 0.24246 0.0
H1023 H 0.98237 0.57568 0.25651 0.0
H1024 H 0.99151 0.64433 0.25467 0.0
H1025 H 0.06447 0.66523 0.22383 0.0
H1026 H 0.05535 0.59654 0.22539 0.0
H1027 H 0.86167 0.34661 0.25872 0.0
H1028 H 0.93287 0.39957 0.257 0.0
H1029 H 0.90057 0.45694 0.22967 0.0
H1030 H 0.82912 0.40565 0.23206 0.0
H1031 H 0.94798 0.51209 0.24252 0.0
H1032 H 0.95686 0.40269 0.22521 0.0
H1033 H 0.94778 0.334 0.22354 0.0
H1034 H 0.02075 0.35519 0.25442 0.0
H1035 H 0.02985 0.42384 0.25636 0.0
C1036 C 0.16026 0.59613 0.23727 0.0
C1037 C 0.17214 0.6276 0.24554 0.0
C1038 C 0.11943 0.56645 0.23603 0.0
C1039 C 0.08953 0.56695 0.2432 0.0
C1040 C 0.10146 0.59879 0.25139 0.0
C1041 C 0.14225 0.62919 0.2524 0.0
C1042 C 0.04649 0.53304 0.24251 0.0
C1043 C 0.03885 0.49285 0.2424 0.0
C1044 C 0.01305 0.53981 0.24219 0.0
C1045 C 0.01849 0.58109 0.24114 0.0
C1046 C 1.00024 0.59487 0.24931 0.0
C1047 C 1.00544 0.6338 0.24832 0.0
C1048 C 0.02866 0.65917 0.23916 0.0
C1049 C 0.04662 0.64561 0.23094 0.0
C1050 C 0.04149 0.6067 0.23189 0.0
C1051 C 0.87 0.37013 0.2522 0.0
C1052 C 0.83999 0.37194 0.24547 0.0
C1053 C 0.9108 0.40046 0.25118 0.0
C1054 C 0.92262 0.43239 0.2431 0.0
C1055 C 0.89257 0.43304 0.23604 0.0
C1056 C 0.85171 0.40348 0.23732 0.0
C1057 C 0.96567 0.46631 0.24245 0.0
C1058 C 0.97332 0.50651 0.24243 0.0
C1059 C 0.99912 0.45955 0.24211 0.0
C1060 C 0.99373 0.41828 0.24098 0.0
C1061 C 0.97074 0.3926 0.23169 0.0
C1062 C 0.96563 0.35369 0.23069 0.0
C1063 C 0.9836 0.34021 0.23888 0.0
C1064 C 1.00681 0.36566 0.24808 0.0
C1065 C 0.012 0.40459 0.24913 0.0
H1066 H 0.97961 0.31008 0.23809 0.0
H1067 H 0.03267 0.6893 0.23841 0.0
H1068 H 0.68216 0.54754 0.09009 0.0
H1069 H 0.62366 0.55836 0.09158 0.0
H1070 H 0.54614 0.43217 0.09999 0.0
H1071 H 0.60419 0.42132 0.09886 0.0
H1072 H 0.51979 0.46522 0.08037 0.0
H1073 H 0.56434 0.49039 0.12095 0.0
H1074 H 0.61453 0.5247 0.13676 0.0
H1075 H 0.63029 0.63964 0.12589 0.0
H1076 H 0.58063 0.60606 0.10989 0.0
H1077 H 0.33723 0.4681 0.09059 0.0
H1078 H 0.3942 0.45539 0.09247 0.0
H1079 H 0.47614 0.58352 0.09757 0.0
H1080 H 0.41928 0.59584 0.09642 0.0
H1081 H 0.50078 0.54817 0.11072 0.0
H1082 H 0.46258 0.52917 0.07006 0.0
H1083 H 0.41687 0.50013 0.05299 0.0
H1084 H 0.39465 0.3813 0.06203 0.0
H1085 H 0.43986 0.40959 0.07925 0.0
C1086 C 0.65276 0.52227 0.09242 0.0
C1087 C 0.64791 0.48361 0.09438 0.0
C1088 C 0.61939 0.52847 0.09325 0.0
C1089 C 0.58056 0.496 0.09586 0.0
C1090 C 0.5758 0.4576 0.09796 0.0
C1091 C 0.60914 0.45155 0.09736 0.0
C1092 C 0.54449 0.50149 0.09597 0.0
C1093 C 0.51528 0.48295 0.08708 0.0
C1094 C 0.53934 0.52559 0.10451 0.0
C1095 C 0.56912 0.54576 0.11414 0.0
C1096 C 0.57882 0.52303 0.12185 0.0
C1097 C 0.6071 0.54233 0.13087 0.0
C1098 C 0.62568 0.58434 0.13231 0.0
C1099 C 0.61593 0.60711 0.12475 0.0
C1100 C 0.5877 0.58796 0.11572 0.0
C1101 C 0.36736 0.49342 0.09225 0.0
C1102 C 0.37368 0.53296 0.09333 0.0
C1103 C 0.40006 0.48623 0.09321 0.0
C1104 C 0.43994 0.51859 0.0949 0.0
C1105 C 0.44591 0.55791 0.09627 0.0
C1106 C 0.41323 0.56495 0.09558 0.0
C1107 C 0.47565 0.51202 0.09504 0.0
C1108 C 0.50497 0.53036 0.10398 0.0
C1109 C 0.48145 0.48854 0.08635 0.0
C1110 C 0.45424 0.47143 0.07601 0.0
C1111 C 0.44771 0.49681 0.06845 0.0
C1112 C 0.42193 0.48049 0.05875 0.0
C1113 C 0.40277 0.43888 0.05645 0.0
C1114 C 0.40945 0.41351 0.06384 0.0
C1115 C 0.43516 0.42967 0.07357 0.0
H1116 H 0.38283 0.42631 0.04893 0.0
H1117 H 0.64755 0.59922 0.13929 0.0
H1118 H 0.88048 0.33619 0.42303 0.0
H1119 H 0.94936 0.39517 0.42432 0.0
H1120 H 0.89931 0.47165 0.43303 0.0
H1121 H 0.83075 0.41301 0.43211 0.0
H1122 H 0.95873 0.49725 0.41291 0.0
H1123 H 0.94046 0.45672 0.45379 0.0
H1124 H 0.92503 0.40799 0.46991 0.0
H1125 H 0.0239 0.39095 0.45921 0.0
H1126 H 0.03954 0.43916 0.44291 0.0
H1127 H 0.14398 0.68074 0.42228 0.0
H1128 H 0.07447 0.62392 0.42431 0.0
H1129 H 0.12117 0.54261 0.43003 0.0
H1130 H 0.19021 0.59938 0.42869 0.0
H1131 H 0.06138 0.51917 0.44328 0.0
H1132 H 0.07966 0.55347 0.40241 0.0
H1133 H 0.0958 0.59739 0.38502 0.0
H1134 H 0.99909 0.62035 0.39369 0.0
H1135 H 0.98269 0.57695 0.41122 0.0
C1136 C 0.8842 0.36545 0.4254 0.0
C1137 C 0.85009 0.36982 0.4275 0.0
C1138 C 0.92353 0.39911 0.42611 0.0
C1139 C 0.92938 0.43779 0.42873 0.0
C1140 C 0.89546 0.4421 0.43098 0.0
C1141 C 0.85628 0.40844 0.43051 0.0
C1142 C 0.97073 0.47408 0.4287 0.0
C1143 C 0.98111 0.50243 0.41963 0.0
C1144 C 1.00018 0.48007 0.43725 0.0
C1145 C 0.99087 0.4512 0.44706 0.0
C1146 C 0.95865 0.44227 0.4548 0.0
C1147 C 0.94993 0.41482 0.46399 0.0
C1148 C 0.97339 0.39629 0.46556 0.0
C1149 C 1.00571 0.40527 0.45797 0.0
C1150 C 0.01453 0.43268 0.44876 0.0
C1151 C 0.13933 0.65079 0.42409 0.0
C1152 C 0.17268 0.64465 0.4253 0.0
C1153 C 0.09952 0.61816 0.42515 0.0
C1154 C 0.09217 0.57847 0.42708 0.0
C1155 C 0.12563 0.57268 0.42855 0.0
C1156 C 0.16528 0.60531 0.42775 0.0
C1157 C 0.04995 0.5428 0.4274 0.0
C1158 C 0.03923 0.51436 0.43654 0.0
C1159 C 0.02044 0.53617 0.41872 0.0
C1160 C 0.03026 0.56235 0.4082 0.0
C1161 C 0.06204 0.56814 0.40065 0.0
C1162 C 0.0712 0.59289 0.39076 0.0
C1163 C 0.04857 0.61175 0.38827 0.0
C1164 C 0.01665 0.60579 0.39565 0.0
C1165 C 1.00739 0.5811 0.40556 0.0
H1166 H 0.0557 0.63089 0.38061 0.0
H1167 H 0.9666 0.37506 0.47268 0.0
H1168 H 0.57132 0.17984 0.7726 0.0
H1169 H 0.56167 0.11152 0.77389 0.0
H1170 H 0.46592 0.06952 0.74808 0.0
H1171 H 0.47571 0.13807 0.74663 0.0
H1172 H 0.50131 0.03724 0.77948 0.0
H1173 H 0.47426 1.00264 0.72975 0.0
H1174 H 0.49034 0.03959 0.71094 0.0
H1175 H 0.59626 0.13929 0.72645 0.0
H1176 H 0.5811 0.10272 0.7453 0.0
H1177 H 0.43148 0.82935 0.76831 0.0
H1178 H 0.44238 0.89791 0.76973 0.0
H1179 H 0.55619 0.94367 0.75135 0.0
H1180 H 0.54465 0.87447 0.74951 0.0
H1181 H 0.5165 0.97644 0.74252 0.0
H1182 H 0.54968 0.95907 0.78186 0.0
H1183 H 0.53884 0.92426 0.80089 0.0
H1184 H 0.43188 0.93305 0.80677 0.0
H1185 H 0.44175 0.96742 0.7877 0.0
C1186 C 0.54773 0.15597 0.76732 0.0
C1187 C 0.52445 0.16454 0.75945 0.0
C1188 C 0.54224 0.11685 0.76809 0.0
C1189 C 0.51355 0.08545 0.76095 0.0
C1190 C 0.48871 0.09339 0.75354 0.0
C1191 C 0.49413 0.13255 0.75279 0.0
C1192 C 0.51128 0.04518 0.76081 0.0
C1193 C 0.50449 0.02386 0.7714 0.0
C1194 C 0.51645 0.02809 0.75032 0.0
C1195 C 0.52626 0.05009 0.73897 0.0
C1196 C 0.50106 0.03238 0.72913 0.0
C1197 C 0.51 0.05327 0.71847 0.0
C1198 C 0.54421 0.09183 0.71752 0.0
C1199 C 0.56968 0.10949 0.72721 0.0
C1200 C 0.56089 0.08871 0.73789 0.0
C1201 C 0.45916 0.85399 0.76469 0.0
C1202 C 0.48727 0.84632 0.75881 0.0
C1203 C 0.46543 0.89336 0.76556 0.0
C1204 C 0.50034 0.92629 0.76077 0.0
C1205 C 0.52898 0.91886 0.75513 0.0
C1206 C 0.52251 0.8793 0.75415 0.0
C1207 C 0.50585 0.968 0.76118 0.0
C1208 C 0.51326 0.98966 0.75063 0.0
C1209 C 0.50202 0.98572 0.77175 0.0
C1210 C 0.49631 0.96556 0.7833 0.0
C1211 C 0.52372 0.95338 0.78718 0.0
C1212 C 0.51775 0.93373 0.79797 0.0
C1213 C 0.48462 0.92633 0.80501 0.0
C1214 C 0.45748 0.93872 0.8013 0.0
C1215 C 0.46329 0.95835 0.7905 0.0
H1216 H 0.48005 0.91109 0.81336 0.0
H1217 H 0.55099 0.10798 0.70926 0.0
H1218 H 0.55296 0.67599 0.58817 0.0
H1219 H 0.5651 0.61836 0.58666 0.0
H1220 H 0.44055 0.54045 0.57628 0.0
H1221 H 0.42844 0.59762 0.57745 0.0
H1222 H 0.47065 0.51258 0.59614 0.0
H1223 H 0.50333 0.56249 0.55618 0.0
H1224 H 0.54062 0.61492 0.54123 0.0
H1225 H 0.65354 0.62973 0.55402 0.0
H1226 H 0.61692 0.57777 0.56916 0.0
H1227 H 0.47276 0.33105 0.5845 0.0
H1228 H 0.46181 0.38913 0.58304 0.0
H1229 H 0.5911 0.46946 0.57984 0.0
H1230 H 0.60171 0.4114 0.5805 0.0
H1231 H 0.55903 0.49773 0.56682 0.0
H1232 H 0.53245 0.45315 0.60678 0.0
H1233 H 0.50021 0.40503 0.6231 0.0
H1234 H 0.38334 0.38559 0.61255 0.0
H1235 H 0.41484 0.43324 0.59607 0.0
C1236 C 0.52836 0.64671 0.58541 0.0
C1237 C 0.48977 0.64149 0.58292 0.0
C1238 C 0.53531 0.61383 0.58456 0.0
C1239 C 0.50365 0.57511 0.58139 0.0
C1240 C 0.46536 0.57002 0.57876 0.0
C1241 C 0.45859 0.60287 0.57939 0.0
C1242 C 0.50971 0.5394 0.58123 0.0
C1243 C 0.48962 0.50902 0.58966 0.0
C1244 C 0.53545 0.53547 0.57301 0.0
C1245 C 0.55742 0.56658 0.56389 0.0
C1246 C 0.53614 0.57721 0.55588 0.0
C1247 C 0.55714 0.60678 0.54735 0.0
C1248 C 0.59943 0.62574 0.5467 0.0
C1249 C 0.62079 0.61507 0.55455 0.0
C1250 C 0.59992 0.58554 0.5631 0.0
C1251 C 0.49873 0.36109 0.58335 0.0
C1252 C 0.53807 0.36659 0.58263 0.0
C1253 C 0.49255 0.39442 0.58264 0.0
C1254 C 0.5257 0.43416 0.58163 0.0
C1255 C 0.56489 0.43938 0.58063 0.0
C1256 C 0.57096 0.40604 0.58103 0.0
C1257 C 0.51991 0.47035 0.58179 0.0
C1258 C 0.54006 0.501 0.57335 0.0
C1259 C 0.495 0.47507 0.59023 0.0
C1260 C 0.47596 0.44643 0.60012 0.0
C1261 C 0.49984 0.4384 0.60789 0.0
C1262 C 0.48171 0.41124 0.61718 0.0
C1263 C 0.43974 0.39218 0.61884 0.0
C1264 C 0.41583 0.40032 0.61124 0.0
C1265 C 0.43381 0.42742 0.60193 0.0
H1266 H 0.42576 0.37117 0.62603 0.0
H1267 H 0.61564 0.64862 0.54009 0.0
H1268 H 0.14119 0.47016 0.91838 0.0
H1269 H 0.0717 0.45888 0.91682 0.0
H1270 H 0.11961 0.58539 0.90901 0.0
H1271 H 0.1887 0.59669 0.91016 0.0
H1272 H 0.05803 0.54659 0.92923 0.0
H1273 H 0.08259 0.53463 0.88786 0.0
H1274 H 0.10116 0.50542 0.87122 0.0
H1275 H 1.00272 0.38693 0.87962 0.0
H1276 H 0.98397 0.41538 0.89643 0.0
H1277 H 0.87417 0.54676 0.91938 0.0
H1278 H 0.94402 0.55999 0.91759 0.0
H1279 H 0.89879 0.43385 0.90923 0.0
H1280 H 0.82947 0.42115 0.91034 0.0
H1281 H 0.96076 0.47325 0.89693 0.0
H1282 H 0.93537 0.47892 0.93789 0.0
H1283 H 0.91587 0.50196 0.95576 0.0
H1284 H 0.0133 0.62343 0.95007 0.0
H1285 H 0.03306 0.60119 0.93207 0.0
C1286 C 0.13686 0.4954 0.91616 0.0
C1287 C 0.17051 0.53428 0.91436 0.0
C1288 C 0.09721 0.48894 0.91529 0.0
C1289 C 0.09061 0.52137 0.91284 0.0
C1290 C 0.12407 0.56 0.91092 0.0
C1291 C 0.16355 0.5663 0.91153 0.0
C1292 C 0.04894 0.51555 0.91271 0.0
C1293 C 0.03681 0.53099 0.92211 0.0
C1294 C 0.02102 0.49412 0.90361 0.0
C1295 C 0.03219 0.47706 0.89348 0.0
C1296 C 0.06518 0.50228 0.88624 0.0
C1297 C 0.07567 0.48588 0.87675 0.0
C1298 C 0.05322 0.44432 0.87438 0.0
C1299 C 0.02014 0.4191 0.88148 0.0
C1300 C 1.00955 0.43535 0.89098 0.0
C1301 C 0.87922 0.52203 0.91702 0.0
C1302 C 0.8462 0.48291 0.91504 0.0
C1303 C 0.91921 0.52949 0.9161 0.0
C1304 C 0.92702 0.49774 0.91354 0.0
C1305 C 0.89394 0.45897 0.91123 0.0
C1306 C 0.85413 0.45172 0.91189 0.0
C1307 C 0.96931 0.50434 0.91351 0.0
C1308 C 0.98172 0.48897 0.90408 0.0
C1309 C 0.99722 0.52497 0.92277 0.0
C1310 C 0.9854 0.53847 0.93357 0.0
C1311 C 0.95244 0.5106 0.9404 0.0
C1312 C 0.94137 0.52351 0.95056 0.0
C1313 C 0.96325 0.56416 0.95403 0.0
C1314 C 0.99632 0.59197 0.94736 0.0
C1315 C 1.00749 0.57923 0.93718 0.0
H1316 H 0.95464 0.57409 0.9619 0.0
H1317 H 0.06137 0.43168 0.86704 0.0
H1318 H 0.40434 0.82524 0.24106 0.0
H1319 H 0.46208 0.89416 0.24037 0.0
H1320 H 0.39038 0.93917 0.25704 0.0
H1321 H 0.3323 0.86984 0.25799 0.0
H1322 H 0.44148 0.98769 0.23732 0.0
H1323 H 0.44938 0.92868 0.27387 0.0
H1324 H 0.45003 0.87606 0.28632 0.0
H1325 H 0.55536 0.89038 0.26811 0.0
H1326 H 0.55499 0.94272 0.25544 0.0
H1327 H 0.59754 0.18085 0.25455 0.0
H1328 H 0.53877 0.11297 0.25361 0.0
H1329 H 0.61759 0.06327 0.24764 0.0
H1330 H 0.67704 0.13154 0.2496 0.0
H1331 H 0.56194 0.01574 0.26126 0.0
H1332 H 0.55535 0.07736 0.22486 0.0
H1333 H 0.55524 0.13184 0.21316 0.0
H1334 H 0.44742 0.11286 0.23089 0.0
H1335 H 0.4471 0.05863 0.24278 0.0
C1336 C 0.40051 0.84978 0.24444 0.0
C1337 C 0.36366 0.84197 0.24963 0.0
C1338 C 0.43367 0.88917 0.24407 0.0
C1339 C 0.43062 0.92168 0.24875 0.0
C1340 C 0.39334 0.91442 0.2534 0.0
C1341 C 0.3602 0.87482 0.25393 0.0
C1342 C 0.46702 0.96281 0.24929 0.0
C1343 C 0.46776 0.99404 0.24261 0.0
C1344 C 0.50155 0.97073 0.25601 0.0
C1345 C 0.50188 0.93929 0.26362 0.0
C1346 C 0.47244 0.92033 0.27245 0.0
C1347 C 0.47281 0.89062 0.27956 0.0
C1348 C 0.50264 0.8798 0.27798 0.0
C1349 C 0.53223 0.89874 0.26931 0.0
C1350 C 0.53197 0.92846 0.26216 0.0
C1351 C 0.60235 0.15546 0.25295 0.0
C1352 C 0.64183 0.16148 0.25199 0.0
C1353 C 0.5686 0.11655 0.25232 0.0
C1354 C 0.57329 0.08272 0.25014 0.0
C1355 C 0.61291 0.08873 0.24922 0.0
C1356 C 0.64691 0.12772 0.25028 0.0
C1357 C 0.53693 0.04119 0.24919 0.0
C1358 C 0.53605 0.00963 0.25582 0.0
C1359 C 0.50232 0.03296 0.24236 0.0
C1360 C 0.50139 0.06415 0.23477 0.0
C1361 C 0.53162 0.08481 0.22626 0.0
C1362 C 0.53166 0.11568 0.21961 0.0
C1363 C 0.50147 0.12592 0.22134 0.0
C1364 C 0.47083 0.10495 0.22959 0.0
C1365 C 0.47065 0.07409 0.23626 0.0
H1366 H 0.50181 0.15018 0.21633 0.0
H1367 H 0.50289 0.85681 0.28351 0.0
loop_
_geom_bond_atom_site_label_1
_geom_bond_atom_site_label_2
_geom_bond_distance
_geom_bond_site_symmetry_2
_ccdc_geom_bond_type
O0 Cd1 2.223 . S
O0 C8 1.315 . S
Cd1 O0 2.223 . S
Cd1 O4 2.297 . S
Cd1 O5 2.439 . S
Cd1 O11 2.240 . S
Cd2 O3 2.240 . S
Cd2 O10 2.223 . S
Cd2 O12 2.297 . S
Cd2 O13 2.439 . S
O3 Cd2 2.240 . S
O3 C8 1.279 . S
O4 Cd1 2.297 . S
O4 C6 1.247 . S
O5 Cd1 2.439 . S
O5 C6 1.208 . S
C6 O4 1.247 . S
C6 O5 1.208 . S
C7 O12 1.247 . S
C7 O13 1.208 . S
C8 O0 1.315 . S
C8 O3 1.279 . S
C9 O10 1.315 . S
C9 O11 1.279 . S
O10 Cd2 2.223 . S
O10 C9 1.315 . S
O11 Cd1 2.240 . S
O11 C9 1.279 . S
O12 Cd2 2.297 . S
O12 C7 1.247 . S
O13 Cd2 2.439 . S
O13 C7 1.208 . S
O14 Cd15 2.223 . S
O14 C22 1.315 . S
Cd15 O14 2.223 . S
Cd15 O18 2.297 . S
Cd15 O19 2.439 . S
Cd15 O25 2.240 . S
Cd16 O17 2.240 . S
Cd16 O24 2.223 . S
Cd16 O26 2.297 . S
Cd16 O27 2.439 . S
O17 Cd16 2.240 . S
O17 C22 1.279 . S
O18 Cd15 2.297 . S
O18 C20 1.247 . S
O19 Cd15 2.439 . S
O19 C20 1.208 . S
C20 O18 1.247 . S
C20 O19 1.208 . S
C21 O26 1.247 . S
C21 O27 1.208 . S
C22 O14 1.315 . S
C22 O17 1.279 . S
C23 O24 1.315 . S
C23 O25 1.279 . S
O24 Cd16 2.223 . S
O24 C23 1.315 . S
O25 Cd15 2.240 . S
O25 C23 1.279 . S
O26 Cd16 2.297 . S
O26 C21 1.247 . S
O27 Cd16 2.439 . S
O27 C21 1.208 . S
O28 Cd29 2.223 . S
O28 C36 1.315 . S
Cd29 O28 2.223 . S
Cd29 O32 2.297 . S
Cd29 O33 2.439 . S
Cd29 O39 2.240 . S
Cd30 O31 2.240 . S
Cd30 O38 2.223 . S
Cd30 O40 2.297 . S
Cd30 O41 2.439 . S
O31 Cd30 2.240 . S
O31 C36 1.279 . S
O32 Cd29 2.297 . S
O32 C34 1.247 . S
O33 Cd29 2.439 . S
O33 C34 1.208 . S
C34 O32 1.247 . S
C34 O33 1.208 . S
C35 O40 1.247 . S
C35 O41 1.208 . S
C36 O28 1.315 . S
C36 O31 1.279 . S
C37 O38 1.315 . S
C37 O39 1.279 . S
O38 Cd30 2.223 . S
O38 C37 1.315 . S
O39 Cd29 2.240 . S
O39 C37 1.279 . S
O40 Cd30 2.297 . S
O40 C35 1.247 . S
O41 Cd30 2.439 . S
O41 C35 1.208 . S
O42 Cd43 2.223 . S
O42 C50 1.315 . S
Cd43 O42 2.223 . S
Cd43 O46 2.297 . S
Cd43 O47 2.439 . S
Cd43 O53 2.240 . S
Cd44 O45 2.240 . S
Cd44 O52 2.223 . S
Cd44 O54 2.297 . S
Cd44 O55 2.439 . S
O45 Cd44 2.240 . S
O45 C50 1.279 . S
O46 Cd43 2.297 . S
O46 C48 1.247 . S
O47 Cd43 2.439 . S
O47 C48 1.208 . S
C48 O46 1.247 . S
C48 O47 1.208 . S
C49 O54 1.247 . S
C49 O55 1.208 . S
C50 O42 1.315 . S
C50 O45 1.279 . S
C51 O52 1.315 . S
C51 O53 1.279 . S
O52 Cd44 2.223 . S
O52 C51 1.315 . S
O53 Cd43 2.240 . S
O53 C51 1.279 . S
O54 Cd44 2.297 . S
O54 C49 1.247 . S
O55 Cd44 2.439 . S
O55 C49 1.208 . S
O56 Cd57 2.223 . S
O56 C64 1.315 . S
Cd57 O56 2.223 . S
Cd57 O60 2.297 . S
Cd57 O61 2.439 . S
Cd57 O67 2.240 . S
Cd58 O59 2.240 . S
Cd58 O66 2.223 . S
Cd58 O68 2.297 . S
Cd58 O69 2.439 . S
O59 Cd58 2.240 . S
O59 C64 1.279 . S
O60 Cd57 2.297 . S
O60 C62 1.247 . S
O61 Cd57 2.439 . S
O61 C62 1.208 . S
C62 O60 1.247 . S
C62 O61 1.208 . S
C63 O68 1.247 . S
C63 O69 1.208 . S
C64 O56 1.315 . S
C64 O59 1.279 . S
C65 O66 1.315 . S
C65 O67 1.279 . S
O66 Cd58 2.223 . S
O66 C65 1.315 . S
O67 Cd57 2.240 . S
O67 C65 1.279 . S
O68 Cd58 2.297 . S
O68 C63 1.247 . S
O69 Cd58 2.439 . S
O69 C63 1.208 . S
O70 Cd71 2.223 . S
O70 C78 1.315 . S
Cd71 O70 2.223 . S
Cd71 O74 2.297 . S
Cd71 O75 2.439 . S
Cd71 O81 2.240 . S
Cd72 O73 2.240 . S
Cd72 O80 2.223 . S
Cd72 O82 2.297 . S
Cd72 O83 2.439 . S
O73 Cd72 2.240 . S
O73 C78 1.279 . S
O74 Cd71 2.297 . S
O74 C76 1.247 . S
O75 Cd71 2.439 . S
O75 C76 1.208 . S
C76 O74 1.247 . S
C76 O75 1.208 . S
C77 O82 1.247 . S
C77 O83 1.208 . S
C78 O70 1.315 . S
C78 O73 1.279 . S
C79 O80 1.315 . S
C79 O81 1.279 . S
O80 Cd72 2.223 . S
O80 C79 1.315 . S
O81 Cd71 2.240 . S
O81 C79 1.279 . S
O82 Cd72 2.297 . S
O82 C77 1.247 . S
O83 Cd72 2.439 . S
O83 C77 1.208 . S
O84 Cd85 2.223 . S
O84 C92 1.315 . S
Cd85 O84 2.223 . S
Cd85 O88 2.297 . S
Cd85 O89 2.439 . S
Cd85 O95 2.240 . S
Cd86 O87 2.240 . S
Cd86 O94 2.223 . S
Cd86 O96 2.297 . S
Cd86 O97 2.439 . S
O87 Cd86 2.240 . S
O87 C92 1.279 . S
O88 Cd85 2.297 . S
O88 C90 1.247 . S
O89 Cd85 2.439 . S
O89 C90 1.208 . S
C90 O88 1.247 . S
C90 O89 1.208 . S
C91 O96 1.247 . S
C91 O97 1.208 . S
C92 O84 1.315 . S
C92 O87 1.279 . S
C93 O94 1.315 . S
C93 O95 1.279 . S
O94 Cd86 2.223 . S
O94 C93 1.315 . S
O95 Cd85 2.240 . S
O95 C93 1.279 . S
O96 Cd86 2.297 . S
O96 C91 1.247 . S
O97 Cd86 2.439 . S
O97 C91 1.208 . S
O98 Cd99 2.223 . S
O98 C106 1.315 . S
Cd99 O98 2.223 . S
Cd99 O102 2.297 . S
Cd99 O103 2.439 . S
Cd99 O109 2.240 . S
Cd100 O101 2.240 . S
Cd100 O108 2.223 . S
Cd100 O110 2.297 . S
Cd100 O111 2.439 . S
O101 Cd100 2.240 . S
O101 C106 1.279 . S
O102 Cd99 2.297 . S
O102 C104 1.247 . S
O103 Cd99 2.439 . S
O103 C104 1.208 . S
C104 O102 1.247 . S
C104 O103 1.208 . S
C105 O110 1.247 . S
C105 O111 1.208 . S
C106 O98 1.315 . S
C106 O101 1.279 . S
C107 O108 1.315 . S
C107 O109 1.279 . S
O108 Cd100 2.223 . S
O108 C107 1.315 . S
O109 Cd99 2.240 . S
O109 C107 1.279 . S
O110 Cd100 2.297 . S
O110 C105 1.247 . S
O111 Cd100 2.439 . S
O111 C105 1.208 . S
O112 Cd113 2.223 . S
O112 C120 1.315 . S
Cd113 O112 2.223 . S
Cd113 O116 2.297 . S
Cd113 O117 2.439 . S
Cd113 O123 2.240 . S
Cd114 O115 2.240 . S
Cd114 O122 2.223 . S
Cd114 O124 2.297 . S
Cd114 O125 2.439 . S
O115 Cd114 2.240 . S
O115 C120 1.279 . S
O116 Cd113 2.297 . S
O116 C118 1.247 . S
O117 Cd113 2.439 . S
O117 C118 1.208 . S
C118 O116 1.247 . S
C118 O117 1.208 . S
C119 O124 1.247 . S
C119 O125 1.208 . S
C120 O112 1.315 . S
C120 O115 1.279 . S
C121 O122 1.315 . S
C121 O123 1.279 . S
O122 Cd114 2.223 . S
O122 C121 1.315 . S
O123 Cd113 2.240 . S
O123 C121 1.279 . S
O124 Cd114 2.297 . S
O124 C119 1.247 . S
O125 Cd114 2.439 . S
O125 C119 1.208 . S
O126 Cd127 2.223 . S
O126 C134 1.315 . S
Cd127 O126 2.223 . S
Cd127 O130 2.297 . S
Cd127 O131 2.439 . S
Cd127 O137 2.240 . S
Cd128 O129 2.240 . S
Cd128 O136 2.223 . S
Cd128 O138 2.297 . S
Cd128 O139 2.439 . S
O129 Cd128 2.240 . S
O129 C134 1.279 . S
O130 Cd127 2.297 . S
O130 C132 1.247 . S
O131 Cd127 2.439 . S
O131 C132 1.208 . S
C132 O130 1.247 . S
C132 O131 1.208 . S
C133 O138 1.247 . S
C133 O139 1.208 . S
C134 O126 1.315 . S
C134 O129 1.279 . S
C135 O136 1.315 . S
C135 O137 1.279 . S
O136 Cd128 2.223 . S
O136 C135 1.315 . S
O137 Cd127 2.240 . S
O137 C135 1.279 . S
O138 Cd128 2.297 . S
O138 C133 1.247 . S
O139 Cd128 2.439 . S
O139 C133 1.208 . S
O140 Cd141 2.223 . S
O140 C148 1.315 . S
Cd141 O140 2.223 . S
Cd141 O144 2.297 . S
Cd141 O145 2.439 . S
Cd141 O151 2.240 . S
Cd142 O143 2.240 . S
Cd142 O150 2.223 . S
Cd142 O152 2.297 . S
Cd142 O153 2.439 . S
O143 Cd142 2.240 . S
O143 C148 1.279 . S
O144 Cd141 2.297 . S
O144 C146 1.247 . S
O145 Cd141 2.439 . S
O145 C146 1.208 . S
C146 O144 1.247 . S
C146 O145 1.208 . S
C147 O152 1.247 . S
C147 O153 1.208 . S
C148 O140 1.315 . S
C148 O143 1.279 . S
C149 O150 1.315 . S
C149 O151 1.279 . S
O150 Cd142 2.223 . S
O150 C149 1.315 . S
O151 Cd141 2.240 . S
O151 C149 1.279 . S
O152 Cd142 2.297 . S
O152 C147 1.247 . S
O153 Cd142 2.439 . S
O153 C147 1.208 . S
O154 Cd155 2.223 . S
O154 C162 1.315 . S
Cd155 O154 2.223 . S
Cd155 O158 2.297 . S
Cd155 O159 2.439 . S
Cd155 O165 2.240 . S
Cd156 O157 2.240 . S
Cd156 O164 2.223 . S
Cd156 O166 2.297 . S
Cd156 O167 2.439 . S
O157 Cd156 2.240 . S
O157 C162 1.279 . S
O158 Cd155 2.297 . S
O158 C160 1.247 . S
O159 Cd155 2.439 . S
O159 C160 1.208 . S
C160 O158 1.247 . S
C160 O159 1.208 . S
C161 O166 1.247 . S
C161 O167 1.208 . S
C162 O154 1.315 . S
C162 O157 1.279 . S
C163 O164 1.315 . S
C163 O165 1.279 . S
O164 Cd156 2.223 . S
O164 C163 1.315 . S
O165 Cd155 2.240 . S
O165 C163 1.279 . S
O166 Cd156 2.297 . S
O166 C161 1.247 . S
O167 Cd156 2.439 . S
O167 C161 1.208 . S
H168 C186 0.951 . S
H169 C188 0.951 . S
H170 C190 0.950 . S
H171 C191 0.950 . S
H172 C193 0.950 . S
H173 C196 0.950 . S
H174 C197 0.950 . S
H175 C199 0.950 . S
H176 C200 0.950 . S
H177 C201 0.951 . S
H178 C203 0.951 . S
H179 C205 0.950 . S
H180 C206 0.950 . S
H181 C208 0.950 . S
H182 C211 0.950 . S
H183 C212 0.950 . S
H184 C214 0.950 . S
H185 C215 0.950 . S
C186 H168 0.951 . S
C186 C187 1.366 . S
C186 C188 1.388 . S
C187 C186 1.366 . S
C187 C191 1.385 . S
C188 H169 0.951 . S
C188 C186 1.388 . S
C188 C189 1.366 . S
C189 C188 1.366 . S
C189 C190 1.414 . S
C189 C192 1.499 . S
C190 H170 0.950 . S
C190 C189 1.414 . S
C190 C191 1.374 . S
C191 H171 0.950 . S
C191 C187 1.385 . S
C191 C190 1.374 . S
C192 C189 1.499 . S
C192 C193 1.373 . S
C192 C194 1.389 . S
C193 H172 0.950 . S
C193 C192 1.373 . S
C193 C209 1.377 1_556 S
C194 C192 1.389 . S
C194 C195 1.524 . S
C194 C208 1.377 1_556 S
C195 C194 1.524 . S
C195 C196 1.397 . S
C195 C200 1.363 . S
C196 H173 0.950 . S
C196 C195 1.397 . S
C196 C197 1.334 . S
C197 H174 0.950 . S
C197 C196 1.334 . S
C197 C198 1.287 . S
C198 C197 1.287 . S
C198 C199 1.524 . S
C198 H217 0.913 . S
C199 H175 0.950 . S
C199 C198 1.524 . S
C199 C200 1.415 . S
C200 H176 0.950 . S
C200 C195 1.363 . S
C200 C199 1.415 . S
C201 H177 0.951 . S
C201 C202 1.366 . S
C201 C203 1.388 . S
C202 C201 1.366 . S
C202 C206 1.385 . S
C203 H178 0.951 . S
C203 C201 1.388 . S
C203 C204 1.366 . S
C204 C203 1.366 . S
C204 C205 1.414 . S
C204 C207 1.499 . S
C205 H179 0.950 . S
C205 C204 1.414 . S
C205 C206 1.374 . S
C206 H180 0.950 . S
C206 C202 1.385 . S
C206 C205 1.374 . S
C207 C204 1.499 . S
C207 C208 1.373 . S
C207 C209 1.389 . S
C208 H181 0.950 . S
C208 C194 1.377 1_554 S
C208 C207 1.373 . S
C209 C193 1.377 1_554 S
C209 C207 1.389 . S
C209 C210 1.524 . S
C210 C209 1.524 . S
C210 C211 1.397 . S
C210 C215 1.363 . S
C211 H182 0.950 . S
C211 C210 1.397 . S
C211 C212 1.334 . S
C212 H183 0.950 . S
C212 C211 1.334 . S
C212 C213 1.287 . S
C213 C212 1.287 . S
C213 C214 1.524 . S
C213 H216 0.999 . S
C214 H184 0.950 . S
C214 C213 1.524 . S
C214 C215 1.415 . S
C215 H185 0.950 . S
C215 C210 1.363 . S
C215 C214 1.415 . S
H216 C213 0.999 . S
H217 C198 0.913 . S
H218 C236 0.951 . S
H219 C238 0.951 . S
H220 C240 0.950 . S
H221 C241 0.950 . S
H222 C243 0.950 . S
H223 C246 0.950 . S
H224 C247 0.950 . S
H225 C249 0.950 . S
H226 C250 0.950 . S
H227 C251 0.951 . S
H228 C253 0.951 . S
H229 C255 0.950 . S
H230 C256 0.950 . S
H231 C258 0.950 . S
H232 C261 0.950 . S
H233 C262 0.950 . S
H234 C264 0.950 . S
H235 C265 0.950 . S
C236 H218 0.951 . S
C236 C237 1.366 . S
C236 C238 1.388 . S
C237 C236 1.366 . S
C237 C241 1.385 . S
C238 H219 0.951 . S
C238 C236 1.388 . S
C238 C239 1.366 . S
C239 C238 1.366 . S
C239 C240 1.414 . S
C239 C242 1.499 . S
C240 H220 0.950 . S
C240 C239 1.414 . S
C240 C241 1.374 . S
C241 H221 0.950 . S
C241 C237 1.385 . S
C241 C240 1.374 . S
C242 C239 1.499 . S
C242 C243 1.373 . S
C242 C244 1.389 . S
C243 H222 0.950 . S
C243 C242 1.373 . S
C243 C259 1.377 . S
C244 C242 1.389 . S
C244 C245 1.524 . S
C244 C258 1.377 . S
C245 C244 1.524 . S
C245 C246 1.397 . S
C245 C250 1.363 . S
C246 H223 0.950 . S
C246 C245 1.397 . S
C246 C247 1.334 . S
C247 H224 0.950 . S
C247 C246 1.334 . S
C247 C248 1.287 . S
C248 C247 1.287 . S
C248 C249 1.524 . S
C248 H267 0.913 . S
C249 H225 0.950 . S
C249 C248 1.524 . S
C249 C250 1.415 . S
C250 H226 0.950 . S
C250 C245 1.363 . S
C250 C249 1.415 . S
C251 H227 0.951 . S
C251 C252 1.366 . S
C251 C253 1.388 . S
C252 C251 1.366 . S
C252 C256 1.385 . S
C253 H228 0.951 . S
C253 C251 1.388 . S
C253 C254 1.366 . S
C254 C253 1.366 . S
C254 C255 1.414 . S
C254 C257 1.499 . S
C255 H229 0.950 . S
C255 C254 1.414 . S
C255 C256 1.374 . S
C256 H230 0.950 . S
C256 C252 1.385 . S
C256 C255 1.374 . S
C257 C254 1.499 . S
C257 C258 1.373 . S
C257 C259 1.389 . S
C258 H231 0.950 . S
C258 C244 1.377 . S
C258 C257 1.373 . S
C259 C243 1.377 . S
C259 C257 1.389 . S
C259 C260 1.524 . S
C260 C259 1.524 . S
C260 C261 1.397 . S
C260 C265 1.363 . S
C261 H232 0.950 . S
C261 C260 1.397 . S
C261 C262 1.334 . S
C262 H233 0.950 . S
C262 C261 1.334 . S
C262 C263 1.287 . S
C263 C262 1.287 . S
C263 C264 1.524 . S
C263 H266 0.999 . S
C264 H234 0.950 . S
C264 C263 1.524 . S
C264 C265 1.415 . S
C265 H235 0.950 . S
C265 C260 1.363 . S
C265 C264 1.415 . S
H266 C263 0.999 . S
H267 C248 0.913 . S
H268 C286 0.951 . S
H269 C288 0.951 . S
H270 C290 0.950 . S
H271 C291 0.950 . S
H272 C293 0.950 . S
H273 C296 0.950 . S
H274 C297 0.950 . S
H275 C299 0.950 . S
H276 C300 0.950 . S
H277 C301 0.951 . S
H278 C303 0.951 . S
H279 C305 0.950 . S
H280 C306 0.950 . S
H281 C308 0.950 . S
H282 C311 0.950 . S
H283 C312 0.950 . S
H284 C314 0.950 . S
H285 C315 0.950 . S
C286 H268 0.951 . S
C286 C287 1.366 . S
C286 C288 1.388 . S
C287 C286 1.366 . S
C287 C291 1.385 . S
C288 H269 0.951 . S
C288 C286 1.388 . S
C288 C289 1.366 . S
C289 C288 1.366 . S
C289 C290 1.414 . S
C289 C292 1.499 . S
C290 H270 0.950 . S
C290 C289 1.414 . S
C290 C291 1.374 . S
C291 H271 0.950 . S
C291 C287 1.385 . S
C291 C290 1.374 . S
C292 C289 1.499 . S
C292 C293 1.373 . S
C292 C294 1.389 . S
C293 H272 0.950 . S
C293 C292 1.373 . S
C293 C309 1.377 . S
C294 C292 1.389 . S
C294 C295 1.524 . S
C294 C308 1.377 . S
C295 C294 1.524 . S
C295 C296 1.397 . S
C295 C300 1.363 . S
C296 H273 0.950 . S
C296 C295 1.397 . S
C296 C297 1.334 . S
C297 H274 0.950 . S
C297 C296 1.334 . S
C297 C298 1.287 . S
C298 C297 1.287 . S
C298 C299 1.524 . S
C298 H317 0.913 . S
C299 H275 0.950 . S
C299 C298 1.524 . S
C299 C300 1.415 . S
C300 H276 0.950 . S
C300 C295 1.363 . S
C300 C299 1.415 . S
C301 H277 0.951 . S
C301 C302 1.366 . S
C301 C303 1.388 . S
C302 C301 1.366 . S
C302 C306 1.385 . S
C303 H278 0.951 . S
C303 C301 1.388 . S
C303 C304 1.366 . S
C304 C303 1.366 . S
C304 C305 1.414 . S
C304 C307 1.499 . S
C305 H279 0.950 . S
C305 C304 1.414 . S
C305 C306 1.374 . S
C306 H280 0.950 . S
C306 C302 1.385 . S
C306 C305 1.374 . S
C307 C304 1.499 . S
C307 C308 1.373 . S
C307 C309 1.389 . S
C308 H281 0.950 . S
C308 C294 1.377 . S
C308 C307 1.373 . S
C309 C293 1.377 . S
C309 C307 1.389 . S
C309 C310 1.524 . S
C310 C309 1.524 . S
C310 C311 1.397 . S
C310 C315 1.363 . S
C311 H282 0.950 . S
C311 C310 1.397 . S
C311 C312 1.334 . S
C312 H283 0.950 . S
C312 C311 1.334 . S
C312 C313 1.287 . S
C313 C312 1.287 . S
C313 C314 1.524 . S
C313 H316 0.999 . S
C314 H284 0.950 . S
C314 C313 1.524 . S
C314 C315 1.415 . S
C315 H285 0.950 . S
C315 C310 1.363 . S
C315 C314 1.415 . S
H316 C313 0.999 . S
H317 C298 0.913 . S
H318 C336 0.951 . S
H319 C338 0.951 . S
H320 C340 0.950 . S
H321 C341 0.950 . S
H322 C343 0.950 . S
H323 C346 0.950 . S
H324 C347 0.950 . S
H325 C349 0.950 . S
H326 C350 0.950 . S
H327 C351 0.951 . S
H328 C353 0.951 . S
H329 C355 0.950 . S
H330 C356 0.950 . S
H331 C358 0.950 . S
H332 C361 0.950 . S
H333 C362 0.950 . S
H334 C364 0.950 . S
H335 C365 0.950 . S
C336 H318 0.951 . S
C336 C337 1.366 . S
C336 C338 1.388 . S
C337 C336 1.366 . S
C337 C341 1.385 . S
C338 H319 0.951 . S
C338 C336 1.388 . S
C338 C339 1.366 . S
C339 C338 1.366 . S
C339 C340 1.414 . S
C339 C342 1.499 . S
C340 H320 0.950 . S
C340 C339 1.414 . S
C340 C341 1.374 . S
C341 H321 0.950 . S
C341 C337 1.385 . S
C341 C340 1.374 . S
C342 C339 1.499 . S
C342 C343 1.373 . S
C342 C344 1.389 . S
C343 H322 0.950 . S
C343 C342 1.373 . S
C343 C359 1.377 1_554 S
C344 C342 1.389 . S
C344 C345 1.524 . S
C344 C358 1.377 1_554 S
C345 C344 1.524 . S
C345 C346 1.397 . S
C345 C350 1.363 . S
C346 H323 0.950 . S
C346 C345 1.397 . S
C346 C347 1.334 . S
C347 H324 0.950 . S
C347 C346 1.334 . S
C347 C348 1.287 . S
C348 C347 1.287 . S
C348 C349 1.524 . S
C348 H367 0.913 . S
C349 H325 0.950 . S
C349 C348 1.524 . S
C349 C350 1.415 . S
C350 H326 0.950 . S
C350 C345 1.363 . S
C350 C349 1.415 . S
C351 H327 0.951 . S
C351 C352 1.366 . S
C351 C353 1.388 . S
C352 C351 1.366 . S
C352 C356 1.385 . S
C353 H328 0.951 . S
C353 C351 1.388 . S
C353 C354 1.366 . S
C354 C353 1.366 . S
C354 C355 1.414 . S
C354 C357 1.499 . S
C355 H329 0.950 . S
C355 C354 1.414 . S
C355 C356 1.374 . S
C356 H330 0.950 . S
C356 C352 1.385 . S
C356 C355 1.374 . S
C357 C354 1.499 . S
C357 C358 1.373 . S
C357 C359 1.389 . S
C358 H331 0.950 . S
C358 C344 1.377 1_556 S
C358 C357 1.373 . S
C359 C343 1.377 1_556 S
C359 C357 1.389 . S
C359 C360 1.524 . S
C360 C359 1.524 . S
C360 C361 1.397 . S
C360 C365 1.363 . S
C361 H332 0.950 . S
C361 C360 1.397 . S
C361 C362 1.334 . S
C362 H333 0.950 . S
C362 C361 1.334 . S
C362 C363 1.287 . S
C363 C362 1.287 . S
C363 C364 1.524 . S
C363 H366 0.999 . S
C364 H334 0.950 . S
C364 C363 1.524 . S
C364 C365 1.415 . S
C365 H335 0.950 . S
C365 C360 1.363 . S
C365 C364 1.415 . S
H366 C363 0.999 . S
H367 C348 0.913 . S
H368 C386 0.951 . S
H369 C388 0.951 . S
H370 C390 0.950 . S
H371 C391 0.950 . S
H372 C393 0.950 . S
H373 C396 0.950 . S
H374 C397 0.950 . S
H375 C399 0.950 . S
H376 C400 0.950 . S
H377 C401 0.951 . S
H378 C403 0.951 . S
H379 C405 0.950 . S
H380 C406 0.950 . S
H381 C408 0.950 . S
H382 C411 0.950 . S
H383 C412 0.950 . S
H384 C414 0.950 . S
H385 C415 0.950 . S
C386 H368 0.951 . S
C386 C387 1.366 . S
C386 C388 1.388 . S
C387 C386 1.366 . S
C387 C391 1.385 . S
C388 H369 0.951 . S
C388 C386 1.388 . S
C388 C389 1.366 . S
C389 C388 1.366 . S
C389 C390 1.414 . S
C389 C392 1.499 . S
C390 H370 0.950 . S
C390 C389 1.414 . S
C390 C391 1.374 . S
C391 H371 0.950 . S
C391 C387 1.385 . S
C391 C390 1.374 . S
C392 C389 1.499 . S
C392 C393 1.373 . S
C392 C394 1.389 . S
C393 H372 0.950 . S
C393 C392 1.373 . S
C393 C409 1.377 . S
C394 C392 1.389 . S
C394 C395 1.524 . S
C394 C408 1.377 . S
C395 C394 1.524 . S
C395 C396 1.397 . S
C395 C400 1.363 . S
C396 H373 0.950 . S
C396 C395 1.397 . S
C396 C397 1.334 . S
C397 H374 0.950 . S
C397 C396 1.334 . S
C397 C398 1.287 . S
C398 C397 1.287 . S
C398 C399 1.524 . S
C398 H417 0.913 . S
C399 H375 0.950 . S
C399 C398 1.524 . S
C399 C400 1.415 . S
C400 H376 0.950 . S
C400 C395 1.363 . S
C400 C399 1.415 . S
C401 H377 0.951 . S
C401 C402 1.366 . S
C401 C403 1.388 . S
C402 C401 1.366 . S
C402 C406 1.385 . S
C403 H378 0.951 . S
C403 C401 1.388 . S
C403 C404 1.366 . S
C404 C403 1.366 . S
C404 C405 1.414 . S
C404 C407 1.499 . S
C405 H379 0.950 . S
C405 C404 1.414 . S
C405 C406 1.374 . S
C406 H380 0.950 . S
C406 C402 1.385 . S
C406 C405 1.374 . S
C407 C404 1.499 . S
C407 C408 1.373 . S
C407 C409 1.389 . S
C408 H381 0.950 . S
C408 C394 1.377 . S
C408 C407 1.373 . S
C409 C393 1.377 . S
C409 C407 1.389 . S
C409 C410 1.524 . S
C410 C409 1.524 . S
C410 C411 1.397 . S
C410 C415 1.363 . S
C411 H382 0.950 . S
C411 C410 1.397 . S
C411 C412 1.334 . S
C412 H383 0.950 . S
C412 C411 1.334 . S
C412 C413 1.287 . S
C413 C412 1.287 . S
C413 C414 1.524 . S
C413 H416 0.999 . S
C414 H384 0.950 . S
C414 C413 1.524 . S
C414 C415 1.415 . S
C415 H385 0.950 . S
C415 C410 1.363 . S
C415 C414 1.415 . S
H416 C413 0.999 . S
H417 C398 0.913 . S
H418 C436 0.951 . S
H419 C438 0.951 . S
H420 C440 0.950 . S
H421 C441 0.950 . S
H422 C443 0.950 . S
H423 C446 0.950 . S
H424 C447 0.950 . S
H425 C449 0.950 . S
H426 C450 0.950 . S
H427 C451 0.951 . S
H428 C453 0.951 . S
H429 C455 0.950 . S
H430 C456 0.950 . S
H431 C458 0.950 . S
H432 C461 0.950 . S
H433 C462 0.950 . S
H434 C464 0.950 . S
H435 C465 0.950 . S
C436 H418 0.951 . S
C436 C437 1.366 . S
C436 C438 1.388 . S
C437 C436 1.366 . S
C437 C441 1.385 . S
C438 H419 0.951 . S
C438 C436 1.388 . S
C438 C439 1.366 . S
C439 C438 1.366 . S
C439 C440 1.414 . S
C439 C442 1.499 . S
C440 H420 0.950 . S
C440 C439 1.414 . S
C440 C441 1.374 . S
C441 H421 0.950 . S
C441 C437 1.385 . S
C441 C440 1.374 . S
C442 C439 1.499 . S
C442 C443 1.373 . S
C442 C444 1.389 . S
C443 H422 0.950 . S
C443 C442 1.373 . S
C443 C459 1.377 . S
C444 C442 1.389 . S
C444 C445 1.524 . S
C444 C458 1.377 . S
C445 C444 1.524 . S
C445 C446 1.397 . S
C445 C450 1.363 . S
C446 H423 0.950 . S
C446 C445 1.397 . S
C446 C447 1.334 . S
C447 H424 0.950 . S
C447 C446 1.334 . S
C447 C448 1.287 . S
C448 C447 1.287 . S
C448 C449 1.524 . S
C448 H467 0.913 . S
C449 H425 0.950 . S
C449 C448 1.524 . S
C449 C450 1.415 . S
C450 H426 0.950 . S
C450 C445 1.363 . S
C450 C449 1.415 . S
C451 H427 0.951 . S
C451 C452 1.366 . S
C451 C453 1.388 . S
C452 C451 1.366 . S
C452 C456 1.385 . S
C453 H428 0.951 . S
C453 C451 1.388 . S
C453 C454 1.366 . S
C454 C453 1.366 . S
C454 C455 1.414 . S
C454 C457 1.499 . S
C455 H429 0.950 . S
C455 C454 1.414 . S
C455 C456 1.374 . S
C456 H430 0.950 . S
C456 C452 1.385 . S
C456 C455 1.374 . S
C457 C454 1.499 . S
C457 C458 1.373 . S
C457 C459 1.389 . S
C458 H431 0.950 . S
C458 C444 1.377 . S
C458 C457 1.373 . S
C459 C443 1.377 . S
C459 C457 1.389 . S
C459 C460 1.524 . S
C460 C459 1.524 . S
C460 C461 1.397 . S
C460 C465 1.363 . S
C461 H432 0.950 . S
C461 C460 1.397 . S
C461 C462 1.334 . S
C462 H433 0.950 . S
C462 C461 1.334 . S
C462 C463 1.287 . S
C463 C462 1.287 . S
C463 C464 1.524 . S
C463 H466 0.999 . S
C464 H434 0.950 . S
C464 C463 1.524 . S
C464 C465 1.415 . S
C465 H435 0.950 . S
C465 C460 1.363 . S
C465 C464 1.415 . S
H466 C463 0.999 . S
H467 C448 0.913 . S
H468 C486 0.951 . S
H469 C488 0.951 . S
H470 C490 0.950 . S
H471 C491 0.950 . S
H472 C493 0.950 . S
H473 C496 0.950 . S
H474 C497 0.950 . S
H475 C499 0.950 . S
H476 C500 0.950 . S
H477 C501 0.951 . S
H478 C503 0.951 . S
H479 C505 0.950 . S
H480 C506 0.950 . S
H481 C508 0.950 . S
H482 C511 0.950 . S
H483 C512 0.950 . S
H484 C514 0.950 . S
H485 C515 0.950 . S
C486 H468 0.951 . S
C486 C487 1.366 . S
C486 C488 1.388 . S
C487 C486 1.366 . S
C487 C491 1.385 . S
C488 H469 0.951 . S
C488 C486 1.388 . S
C488 C489 1.366 . S
C489 C488 1.366 . S
C489 C490 1.414 . S
C489 C492 1.499 . S
C490 H470 0.950 . S
C490 C489 1.414 . S
C490 C491 1.374 . S
C491 H471 0.950 . S
C491 C487 1.385 . S
C491 C490 1.374 . S
C492 C489 1.499 . S
C492 C493 1.373 . S
C492 C494 1.389 . S
C493 H472 0.950 . S
C493 C492 1.373 . S
C493 C509 1.377 . S
C494 C492 1.389 . S
C494 C495 1.524 . S
C494 C508 1.377 . S
C495 C494 1.524 . S
C495 C496 1.397 . S
C495 C500 1.363 . S
C496 H473 0.950 . S
C496 C495 1.397 . S
C496 C497 1.334 . S
C497 H474 0.950 . S
C497 C496 1.334 . S
C497 C498 1.287 . S
C498 C497 1.287 . S
C498 C499 1.524 . S
C498 H517 0.913 . S
C499 H475 0.950 . S
C499 C498 1.524 . S
C499 C500 1.415 . S
C500 H476 0.950 . S
C500 C495 1.363 . S
C500 C499 1.415 . S
C501 H477 0.951 . S
C501 C502 1.366 . S
C501 C503 1.388 . S
C502 C501 1.366 . S
C502 C506 1.385 . S
C503 H478 0.951 . S
C503 C501 1.388 . S
C503 C504 1.366 . S
C504 C503 1.366 . S
C504 C505 1.414 . S
C504 C507 1.499 . S
C505 H479 0.950 . S
C505 C504 1.414 . S
C505 C506 1.374 . S
C506 H480 0.950 . S
C506 C502 1.385 . S
C506 C505 1.374 . S
C507 C504 1.499 . S
C507 C508 1.373 . S
C507 C509 1.389 . S
C508 H481 0.950 . S
C508 C494 1.377 . S
C508 C507 1.373 . S
C509 C493 1.377 . S
C509 C507 1.389 . S
C509 C510 1.524 . S
C510 C509 1.524 . S
C510 C511 1.397 . S
C510 C515 1.363 . S
C511 H482 0.950 . S
C511 C510 1.397 . S
C511 C512 1.334 . S
C512 H483 0.950 . S
C512 C511 1.334 . S
C512 C513 1.287 . S
C513 C512 1.287 . S
C513 C514 1.524 . S
C513 H516 0.999 . S
C514 H484 0.950 . S
C514 C513 1.524 . S
C514 C515 1.415 . S
C515 H485 0.950 . S
C515 C510 1.363 . S
C515 C514 1.415 . S
H516 C513 0.999 . S
H517 C498 0.913 . S
H518 C536 0.951 . S
H519 C538 0.951 . S
H520 C540 0.950 . S
H521 C541 0.950 . S
H522 C543 0.950 . S
H523 C546 0.950 . S
H524 C547 0.950 . S
H525 C549 0.950 . S
H526 C550 0.950 . S
H527 C551 0.951 . S
H528 C553 0.951 . S
H529 C555 0.950 . S
H530 C556 0.950 . S
H531 C558 0.950 . S
H532 C561 0.950 . S
H533 C562 0.950 . S
H534 C564 0.950 . S
H535 C565 0.950 . S
C536 H518 0.951 . S
C536 C537 1.366 . S
C536 C538 1.388 . S
C537 C536 1.366 . S
C537 C541 1.385 . S
C538 H519 0.951 . S
C538 C536 1.388 . S
C538 C539 1.366 . S
C539 C538 1.366 . S
C539 C540 1.414 . S
C539 C542 1.499 . S
C540 H520 0.950 . S
C540 C539 1.414 . S
C540 C541 1.374 . S
C541 H521 0.950 . S
C541 C537 1.385 . S
C541 C540 1.374 . S
C542 C539 1.499 . S
C542 C543 1.373 . S
C542 C544 1.389 . S
C543 H522 0.950 . S
C543 C542 1.373 . S
C543 C559 1.377 . S
C544 C542 1.389 . S
C544 C545 1.524 . S
C544 C558 1.377 . S
C545 C544 1.524 . S
C545 C546 1.397 . S
C545 C550 1.363 . S
C546 H523 0.950 . S
C546 C545 1.397 . S
C546 C547 1.334 . S
C547 H524 0.950 . S
C547 C546 1.334 . S
C547 C548 1.287 . S
C548 C547 1.287 . S
C548 C549 1.524 . S
C548 H567 0.913 . S
C549 H525 0.950 . S
C549 C548 1.524 . S
C549 C550 1.415 . S
C550 H526 0.950 . S
C550 C545 1.363 . S
C550 C549 1.415 . S
C551 H527 0.951 . S
C551 C552 1.366 . S
C551 C553 1.388 . S
C552 C551 1.366 . S
C552 C556 1.385 . S
C553 H528 0.951 . S
C553 C551 1.388 . S
C553 C554 1.366 . S
C554 C553 1.366 . S
C554 C555 1.414 . S
C554 C557 1.499 . S
C555 H529 0.950 . S
C555 C554 1.414 . S
C555 C556 1.374 . S
C556 H530 0.950 . S
C556 C552 1.385 . S
C556 C555 1.374 . S
C557 C554 1.499 . S
C557 C558 1.373 . S
C557 C559 1.389 . S
C558 H531 0.950 . S
C558 C544 1.377 . S
C558 C557 1.373 . S
C559 C543 1.377 . S
C559 C557 1.389 . S
C559 C560 1.524 . S
C560 C559 1.524 . S
C560 C561 1.397 . S
C560 C565 1.363 . S
C561 H532 0.950 . S
C561 C560 1.397 . S
C561 C562 1.334 . S
C562 H533 0.950 . S
C562 C561 1.334 . S
C562 C563 1.287 . S
C563 C562 1.287 . S
C563 C564 1.524 . S
C563 H566 0.999 . S
C564 H534 0.950 . S
C564 C563 1.524 . S
C564 C565 1.415 . S
C565 H535 0.950 . S
C565 C560 1.363 . S
C565 C564 1.415 . S
H566 C563 0.999 . S
H567 C548 0.913 . S
H568 C586 0.951 . S
H569 C588 0.951 . S
H570 C590 0.950 . S
H571 C591 0.950 . S
H572 C593 0.950 . S
H573 C596 0.950 . S
H574 C597 0.950 . S
H575 C599 0.950 . S
H576 C600 0.950 . S
H577 C601 0.951 . S
H578 C603 0.951 . S
H579 C605 0.950 . S
H580 C606 0.950 . S
H581 C608 0.950 . S
H582 C611 0.950 . S
H583 C612 0.950 . S
H584 C614 0.950 . S
H585 C615 0.950 . S
C586 H568 0.951 . S
C586 C587 1.366 . S
C586 C588 1.388 . S
C587 C586 1.366 . S
C587 C591 1.385 . S
C588 H569 0.951 . S
C588 C586 1.388 . S
C588 C589 1.366 . S
C589 C588 1.366 . S
C589 C590 1.414 . S
C589 C592 1.499 . S
C590 H570 0.950 . S
C590 C589 1.414 . S
C590 C591 1.374 . S
C591 H571 0.950 . S
C591 C587 1.385 . S
C591 C590 1.374 . S
C592 C589 1.499 . S
C592 C593 1.373 . S
C592 C594 1.389 . S
C593 H572 0.950 . S
C593 C592 1.373 . S
C593 C609 1.377 . S
C594 C592 1.389 . S
C594 C595 1.524 . S
C594 C608 1.377 . S
C595 C594 1.524 . S
C595 C596 1.397 . S
C595 C600 1.363 . S
C596 H573 0.950 . S
C596 C595 1.397 . S
C596 C597 1.334 . S
C597 H574 0.950 . S
C597 C596 1.334 . S
C597 C598 1.287 . S
C598 C597 1.287 . S
C598 C599 1.524 . S
C598 H617 0.913 . S
C599 H575 0.950 . S
C599 C598 1.524 . S
C599 C600 1.415 . S
C600 H576 0.950 . S
C600 C595 1.363 . S
C600 C599 1.415 . S
C601 H577 0.951 . S
C601 C602 1.366 . S
C601 C603 1.388 . S
C602 C601 1.366 . S
C602 C606 1.385 . S
C603 H578 0.951 . S
C603 C601 1.388 . S
C603 C604 1.366 . S
C604 C603 1.366 . S
C604 C605 1.414 . S
C604 C607 1.499 . S
C605 H579 0.950 . S
C605 C604 1.414 . S
C605 C606 1.374 . S
C606 H580 0.950 . S
C606 C602 1.385 . S
C606 C605 1.374 . S
C607 C604 1.499 . S
C607 C608 1.373 . S
C607 C609 1.389 . S
C608 H581 0.950 . S
C608 C594 1.377 . S
C608 C607 1.373 . S
C609 C593 1.377 . S
C609 C607 1.389 . S
C609 C610 1.524 . S
C610 C609 1.524 . S
C610 C611 1.397 . S
C610 C615 1.363 . S
C611 H582 0.950 . S
C611 C610 1.397 . S
C611 C612 1.334 . S
C612 H583 0.950 . S
C612 C611 1.334 . S
C612 C613 1.287 . S
C613 C612 1.287 . S
C613 C614 1.524 . S
C613 H616 0.999 . S
C614 H584 0.950 . S
C614 C613 1.524 . S
C614 C615 1.415 . S
C615 H585 0.950 . S
C615 C610 1.363 . S
C615 C614 1.415 . S
H616 C613 0.999 . S
H617 C598 0.913 . S
H618 C636 0.951 . S
H619 C638 0.951 . S
H620 C640 0.950 . S
H621 C641 0.950 . S
H622 C643 0.950 . S
H623 C646 0.950 . S
H624 C647 0.950 . S
H625 C649 0.950 . S
H626 C650 0.950 . S
H627 C651 0.951 . S
H628 C653 0.951 . S
H629 C655 0.950 . S
H630 C656 0.950 . S
H631 C658 0.950 . S
H632 C661 0.950 . S
H633 C662 0.950 . S
H634 C664 0.950 . S
H635 C665 0.950 . S
C636 H618 0.951 . S
C636 C637 1.366 . S
C636 C638 1.388 . S
C637 C636 1.366 . S
C637 C641 1.385 . S
C638 H619 0.951 . S
C638 C636 1.388 . S
C638 C639 1.366 . S
C639 C638 1.366 . S
C639 C640 1.414 . S
C639 C642 1.499 . S
C640 H620 0.950 . S
C640 C639 1.414 . S
C640 C641 1.374 . S
C641 H621 0.950 . S
C641 C637 1.385 . S
C641 C640 1.374 . S
C642 C639 1.499 . S
C642 C643 1.373 . S
C642 C644 1.389 . S
C643 H622 0.950 . S
C643 C642 1.373 . S
C643 C659 1.377 . S
C644 C642 1.389 . S
C644 C645 1.524 . S
C644 C658 1.377 . S
C645 C644 1.524 . S
C645 C646 1.397 . S
C645 C650 1.363 . S
C646 H623 0.950 . S
C646 C645 1.397 . S
C646 C647 1.334 . S
C647 H624 0.950 . S
C647 C646 1.334 . S
C647 C648 1.287 . S
C648 C647 1.287 . S
C648 C649 1.524 . S
C648 H667 0.913 . S
C649 H625 0.950 . S
C649 C648 1.524 . S
C649 C650 1.415 . S
C650 H626 0.950 . S
C650 C645 1.363 . S
C650 C649 1.415 . S
C651 H627 0.951 . S
C651 C652 1.366 . S
C651 C653 1.388 . S
C652 C651 1.366 . S
C652 C656 1.385 . S
C653 H628 0.951 . S
C653 C651 1.388 . S
C653 C654 1.366 . S
C654 C653 1.366 . S
C654 C655 1.414 . S
C654 C657 1.499 . S
C655 H629 0.950 . S
C655 C654 1.414 . S
C655 C656 1.374 . S
C656 H630 0.950 . S
C656 C652 1.385 . S
C656 C655 1.374 . S
C657 C654 1.499 . S
C657 C658 1.373 . S
C657 C659 1.389 . S
C658 H631 0.950 . S
C658 C644 1.377 . S
C658 C657 1.373 . S
C659 C643 1.377 . S
C659 C657 1.389 . S
C659 C660 1.524 . S
C660 C659 1.524 . S
C660 C661 1.397 . S
C660 C665 1.363 . S
C661 H632 0.950 . S
C661 C660 1.397 . S
C661 C662 1.334 . S
C662 H633 0.950 . S
C662 C661 1.334 . S
C662 C663 1.287 . S
C663 C662 1.287 . S
C663 C664 1.524 . S
C663 H666 0.999 . S
C664 H634 0.950 . S
C664 C663 1.524 . S
C664 C665 1.415 . S
C665 H635 0.950 . S
C665 C660 1.363 . S
C665 C664 1.415 . S
H666 C663 0.999 . S
H667 C648 0.913 . S
H668 C686 0.951 . S
H669 C688 0.951 . S
H670 C690 0.950 . S
H671 C691 0.950 . S
H672 C693 0.950 . S
H673 C696 0.950 . S
H674 C697 0.950 . S
H675 C699 0.950 . S
H676 C700 0.950 . S
H677 C701 0.951 . S
H678 C703 0.951 . S
H679 C705 0.950 . S
H680 C706 0.950 . S
H681 C708 0.950 . S
H682 C711 0.950 . S
H683 C712 0.950 . S
H684 C714 0.950 . S
H685 C715 0.950 . S
C686 H668 0.951 . S
C686 C687 1.366 . S
C686 C688 1.388 . S
C687 C686 1.366 . S
C687 C691 1.385 . S
C688 H669 0.951 . S
C688 C686 1.388 . S
C688 C689 1.366 . S
C689 C688 1.366 . S
C689 C690 1.414 . S
C689 C692 1.499 . S
C690 H670 0.950 . S
C690 C689 1.414 . S
C690 C691 1.374 . S
C691 H671 0.950 . S
C691 C687 1.385 . S
C691 C690 1.374 . S
C692 C689 1.499 . S
C692 C693 1.373 . S
C692 C694 1.389 . S
C693 H672 0.950 . S
C693 C692 1.373 . S
C693 C709 1.377 . S
C694 C692 1.389 . S
C694 C695 1.524 . S
C694 C708 1.377 . S
C695 C694 1.524 . S
C695 C696 1.397 . S
C695 C700 1.363 . S
C696 H673 0.950 . S
C696 C695 1.397 . S
C696 C697 1.334 . S
C697 H674 0.950 . S
C697 C696 1.334 . S
C697 C698 1.287 . S
C698 C697 1.287 . S
C698 C699 1.524 . S
C698 H717 0.913 . S
C699 H675 0.950 . S
C699 C698 1.524 . S
C699 C700 1.415 . S
C700 H676 0.950 . S
C700 C695 1.363 . S
C700 C699 1.415 . S
C701 H677 0.951 . S
C701 C702 1.366 . S
C701 C703 1.388 . S
C702 C701 1.366 . S
C702 C706 1.385 . S
C703 H678 0.951 . S
C703 C701 1.388 . S
C703 C704 1.366 . S
C704 C703 1.366 . S
C704 C705 1.414 . S
C704 C707 1.499 . S
C705 H679 0.950 . S
C705 C704 1.414 . S
C705 C706 1.374 . S
C706 H680 0.950 . S
C706 C702 1.385 . S
C706 C705 1.374 . S
C707 C704 1.499 . S
C707 C708 1.373 . S
C707 C709 1.389 . S
C708 H681 0.950 . S
C708 C694 1.377 . S
C708 C707 1.373 . S
C709 C693 1.377 . S
C709 C707 1.389 . S
C709 C710 1.524 . S
C710 C709 1.524 . S
C710 C711 1.397 . S
C710 C715 1.363 . S
C711 H682 0.950 . S
C711 C710 1.397 . S
C711 C712 1.334 . S
C712 H683 0.950 . S
C712 C711 1.334 . S
C712 C713 1.287 . S
C713 C712 1.287 . S
C713 C714 1.524 . S
C713 H716 0.999 . S
C714 H684 0.950 . S
C714 C713 1.524 . S
C714 C715 1.415 . S
C715 H685 0.950 . S
C715 C710 1.363 . S
C715 C714 1.415 . S
H716 C713 0.999 . S
H717 C698 0.913 . S
H718 C736 0.951 . S
H719 C738 0.951 . S
H720 C740 0.950 . S
H721 C741 0.950 . S
H722 C743 0.950 . S
H723 C746 0.950 . S
H724 C747 0.950 . S
H725 C749 0.950 . S
H726 C750 0.950 . S
H727 C751 0.951 . S
H728 C753 0.951 . S
H729 C755 0.950 . S
H730 C756 0.950 . S
H731 C758 0.950 . S
H732 C761 0.950 . S
H733 C762 0.950 . S
H734 C764 0.950 . S
H735 C765 0.950 . S
C736 H718 0.951 . S
C736 C737 1.366 . S
C736 C738 1.388 . S
C737 C736 1.366 . S
C737 C741 1.385 . S
C738 H719 0.951 . S
C738 C736 1.388 . S
C738 C739 1.366 . S
C739 C738 1.366 . S
C739 C740 1.414 . S
C739 C742 1.499 . S
C740 H720 0.950 . S
C740 C739 1.414 . S
C740 C741 1.374 . S
C741 H721 0.950 . S
C741 C737 1.385 . S
C741 C740 1.374 . S
C742 C739 1.499 . S
C742 C743 1.373 . S
C742 C744 1.389 . S
C743 H722 0.950 . S
C743 C742 1.373 . S
C743 C759 1.377 . S
C744 C742 1.389 . S
C744 C745 1.524 . S
C744 C758 1.377 . S
C745 C744 1.524 . S
C745 C746 1.397 . S
C745 C750 1.363 . S
C746 H723 0.950 . S
C746 C745 1.397 . S
C746 C747 1.334 . S
C747 H724 0.950 . S
C747 C746 1.334 . S
C747 C748 1.287 . S
C748 C747 1.287 . S
C748 C749 1.524 . S
C748 H767 0.913 . S
C749 H725 0.950 . S
C749 C748 1.524 . S
C749 C750 1.415 . S
C750 H726 0.950 . S
C750 C745 1.363 . S
C750 C749 1.415 . S
C751 H727 0.951 . S
C751 C752 1.366 . S
C751 C753 1.388 . S
C752 C751 1.366 . S
C752 C756 1.385 . S
C753 H728 0.951 . S
C753 C751 1.388 . S
C753 C754 1.366 . S
C754 C753 1.366 . S
C754 C755 1.414 . S
C754 C757 1.499 . S
C755 H729 0.950 . S
C755 C754 1.414 . S
C755 C756 1.374 . S
C756 H730 0.950 . S
C756 C752 1.385 . S
C756 C755 1.374 . S
C757 C754 1.499 . S
C757 C758 1.373 . S
C757 C759 1.389 . S
C758 H731 0.950 . S
C758 C744 1.377 . S
C758 C757 1.373 . S
C759 C743 1.377 . S
C759 C757 1.389 . S
C759 C760 1.524 . S
C760 C759 1.524 . S
C760 C761 1.397 . S
C760 C765 1.363 . S
C761 H732 0.950 . S
C761 C760 1.397 . S
C761 C762 1.334 . S
C762 H733 0.950 . S
C762 C761 1.334 . S
C762 C763 1.287 . S
C763 C762 1.287 . S
C763 C764 1.524 . S
C763 H766 0.999 . S
C764 H734 0.950 . S
C764 C763 1.524 . S
C764 C765 1.415 . S
C765 H735 0.950 . S
C765 C760 1.363 . S
C765 C764 1.415 . S
H766 C763 0.999 . S
H767 C748 0.913 . S
H768 C786 0.951 . S
H769 C788 0.951 . S
H770 C790 0.950 . S
H771 C791 0.950 . S
H772 C793 0.950 . S
H773 C796 0.950 . S
H774 C797 0.950 . S
H775 C799 0.950 . S
H776 C800 0.950 . S
H777 C801 0.951 . S
H778 C803 0.951 . S
H779 C805 0.950 . S
H780 C806 0.950 . S
H781 C808 0.950 . S
H782 C811 0.950 . S
H783 C812 0.950 . S
H784 C814 0.950 . S
H785 C815 0.950 . S
C786 H768 0.951 . S
C786 C787 1.366 . S
C786 C788 1.388 . S
C787 C786 1.366 . S
C787 C791 1.385 . S
C788 H769 0.951 . S
C788 C786 1.388 . S
C788 C789 1.366 . S
C789 C788 1.366 . S
C789 C790 1.414 . S
C789 C792 1.499 . S
C790 H770 0.950 . S
C790 C789 1.414 . S
C790 C791 1.374 . S
C791 H771 0.950 . S
C791 C787 1.385 . S
C791 C790 1.374 . S
C792 C789 1.499 . S
C792 C793 1.373 . S
C792 C794 1.389 . S
C793 H772 0.950 . S
C793 C792 1.373 . S
C793 C809 1.377 1_655 S
C794 C792 1.389 . S
C794 C795 1.524 . S
C794 C808 1.377 1_655 S
C795 C794 1.524 . S
C795 C796 1.397 . S
C795 C800 1.363 . S
C796 H773 0.950 . S
C796 C795 1.397 . S
C796 C797 1.334 . S
C797 H774 0.950 . S
C797 C796 1.334 . S
C797 C798 1.287 . S
C798 C797 1.287 . S
C798 C799 1.524 . S
C798 H817 0.913 . S
C799 H775 0.950 . S
C799 C798 1.524 . S
C799 C800 1.415 . S
C800 H776 0.950 . S
C800 C795 1.363 . S
C800 C799 1.415 . S
C801 H777 0.951 . S
C801 C802 1.366 . S
C801 C803 1.388 . S
C802 C801 1.366 . S
C802 C806 1.385 . S
C803 H778 0.951 . S
C803 C801 1.388 . S
C803 C804 1.366 . S
C804 C803 1.366 . S
C804 C805 1.414 . S
C804 C807 1.499 . S
C805 H779 0.950 . S
C805 C804 1.414 . S
C805 C806 1.374 . S
C806 H780 0.950 . S
C806 C802 1.385 . S
C806 C805 1.374 . S
C807 C804 1.499 . S
C807 C808 1.373 . S
C807 C809 1.389 . S
C808 H781 0.950 . S
C808 C794 1.377 1_455 S
C808 C807 1.373 . S
C809 C793 1.377 1_455 S
C809 C807 1.389 . S
C809 C810 1.524 . S
C810 C809 1.524 . S
C810 C811 1.397 . S
C810 C815 1.363 . S
C811 H782 0.950 . S
C811 C810 1.397 . S
C811 C812 1.334 . S
C812 H783 0.950 . S
C812 C811 1.334 . S
C812 C813 1.287 . S
C813 C812 1.287 . S
C813 C814 1.524 . S
C813 H816 0.999 . S
C814 H784 0.950 . S
C814 C813 1.524 . S
C814 C815 1.415 . S
C815 H785 0.950 . S
C815 C810 1.363 . S
C815 C814 1.415 . S
H816 C813 0.999 . S
H817 C798 0.913 . S
H818 C836 0.951 . S
H819 C838 0.951 . S
H820 C840 0.950 . S
H821 C841 0.950 . S
H822 C843 0.950 . S
H823 C846 0.950 . S
H824 C847 0.950 . S
H825 C849 0.950 1_565 S
H826 C850 0.940 1_565 S
H827 C851 0.951 . S
H828 C853 0.951 . S
H829 C855 0.950 . S
H830 C856 0.950 . S
H831 C858 0.950 . S
H832 C861 0.950 . S
H833 C862 0.950 . S
H834 C864 0.950 1_545 S
H835 C865 0.930 1_545 S
C836 H818 0.951 . S
C836 C837 1.366 . S
C836 C838 1.388 . S
C837 C836 1.366 . S
C837 C841 1.385 . S
C838 H819 0.951 . S
C838 C836 1.388 . S
C838 C839 1.366 . S
C839 C838 1.366 . S
C839 C840 1.414 . S
C839 C842 1.499 . S
C840 H820 0.950 . S
C840 C839 1.414 . S
C840 C841 1.374 . S
C841 H821 0.950 . S
C841 C837 1.385 . S
C841 C840 1.374 . S
C842 C839 1.499 . S
C842 C843 1.373 . S
C842 C844 1.389 . S
C843 H822 0.950 . S
C843 C842 1.373 . S
C843 C859 1.377 1_545 S
C844 C842 1.389 . S
C844 C845 1.524 . S
C844 C858 1.377 1_545 S
C845 C844 1.524 . S
C845 C846 1.397 . S
C845 C850 1.376 . S
C846 H823 0.950 . S
C846 C845 1.397 . S
C846 C847 1.334 . S
C847 H824 0.950 . S
C847 C846 1.334 . S
C847 C848 1.287 . S
C848 C847 1.287 . S
C848 C849 1.524 . S
C848 H867 0.913 . S
C849 H825 0.950 1_545 S
C849 C848 1.524 . S
C849 C850 1.412 . S
C850 H826 0.940 1_545 S
C850 C845 1.376 . S
C850 C849 1.412 . S
C851 H827 0.951 . S
C851 C852 1.366 . S
C851 C853 1.388 . S
C852 C851 1.366 . S
C852 C856 1.385 . S
C853 H828 0.951 . S
C853 C851 1.388 . S
C853 C854 1.366 . S
C854 C853 1.366 . S
C854 C855 1.414 . S
C854 C857 1.499 . S
C855 H829 0.950 . S
C855 C854 1.414 . S
C855 C856 1.374 . S
C856 H830 0.950 . S
C856 C852 1.385 . S
C856 C855 1.374 . S
C857 C854 1.499 . S
C857 C858 1.373 . S
C857 C859 1.389 . S
C858 H831 0.950 . S
C858 C844 1.377 1_565 S
C858 C857 1.373 . S
C859 C843 1.377 1_565 S
C859 C857 1.389 . S
C859 C860 1.524 . S
C860 C859 1.524 . S
C860 C861 1.397 . S
C860 C865 1.389 . S
C861 H832 0.950 . S
C861 C860 1.397 . S
C861 C862 1.334 . S
C862 H833 0.950 . S
C862 C861 1.334 . S
C862 C863 1.287 . S
C863 C862 1.287 . S
C863 C864 1.524 . S
C863 H866 0.999 . S
C864 H834 0.950 1_565 S
C864 C863 1.524 . S
C864 C865 1.410 . S
C865 H835 0.930 1_565 S
C865 C860 1.389 . S
C865 C864 1.410 . S
H866 C863 0.999 . S
H867 C848 0.913 . S
H868 C886 0.951 . S
H869 C888 0.951 . S
H870 C890 0.950 . S
H871 C891 0.950 . S
H872 C893 0.950 . S
H873 C896 0.950 . S
H874 C897 0.950 . S
H875 C899 0.950 . S
H876 C900 0.950 . S
H877 C901 0.951 . S
H878 C903 0.951 . S
H879 C905 0.950 . S
H880 C906 0.950 . S
H881 C908 0.950 . S
H882 C911 0.950 . S
H883 C912 0.950 . S
H884 C914 0.950 . S
H885 C915 0.950 . S
C886 H868 0.951 . S
C886 C887 1.366 . S
C886 C888 1.388 . S
C887 C886 1.366 . S
C887 C891 1.385 . S
C888 H869 0.951 . S
C888 C886 1.388 . S
C888 C889 1.366 . S
C889 C888 1.366 . S
C889 C890 1.414 . S
C889 C892 1.499 . S
C890 H870 0.950 . S
C890 C889 1.414 . S
C890 C891 1.374 . S
C891 H871 0.950 . S
C891 C887 1.385 . S
C891 C890 1.374 . S
C892 C889 1.499 . S
C892 C893 1.373 . S
C892 C894 1.389 . S
C893 H872 0.950 . S
C893 C892 1.373 . S
C893 C909 1.377 . S
C894 C892 1.389 . S
C894 C895 1.524 . S
C894 C908 1.377 . S
C895 C894 1.524 . S
C895 C896 1.397 . S
C895 C900 1.363 . S
C896 H873 0.950 . S
C896 C895 1.397 . S
C896 C897 1.334 . S
C897 H874 0.950 . S
C897 C896 1.334 . S
C897 C898 1.287 . S
C898 C897 1.287 . S
C898 C899 1.524 . S
C898 H917 0.913 . S
C899 H875 0.950 . S
C899 C898 1.524 . S
C899 C900 1.415 . S
C900 H876 0.950 . S
C900 C895 1.363 . S
C900 C899 1.415 . S
C901 H877 0.951 . S
C901 C902 1.366 . S
C901 C903 1.388 . S
C902 C901 1.366 . S
C902 C906 1.385 . S
C903 H878 0.951 . S
C903 C901 1.388 . S
C903 C904 1.366 . S
C904 C903 1.366 . S
C904 C905 1.414 . S
C904 C907 1.499 . S
C905 H879 0.950 . S
C905 C904 1.414 . S
C905 C906 1.374 . S
C906 H880 0.950 . S
C906 C902 1.385 . S
C906 C905 1.374 . S
C907 C904 1.499 . S
C907 C908 1.373 . S
C907 C909 1.389 . S
C908 H881 0.950 . S
C908 C894 1.377 . S
C908 C907 1.373 . S
C909 C893 1.377 . S
C909 C907 1.389 . S
C909 C910 1.524 . S
C910 C909 1.524 . S
C910 C911 1.397 . S
C910 C915 1.363 . S
C911 H882 0.950 . S
C911 C910 1.397 . S
C911 C912 1.334 . S
C912 H883 0.950 . S
C912 C911 1.334 . S
C912 C913 1.287 . S
C913 C912 1.287 . S
C913 C914 1.524 . S
C913 H916 0.999 . S
C914 H884 0.950 . S
C914 C913 1.524 . S
C914 C915 1.415 . S
C915 H885 0.950 . S
C915 C910 1.363 . S
C915 C914 1.415 . S
H916 C913 0.999 . S
H917 C898 0.913 . S
H918 C936 0.951 . S
H919 C938 0.951 . S
H920 C940 0.950 . S
H921 C941 0.950 . S
H922 C943 0.950 . S
H923 C946 0.950 . S
H924 C947 0.950 . S
H925 C949 0.950 1_565 S
H926 C950 0.950 . S
H927 C951 0.951 . S
H928 C953 0.951 . S
H929 C955 0.950 . S
H930 C956 0.950 . S
H931 C958 0.950 . S
H932 C961 0.950 . S
H933 C962 0.950 . S
H934 C964 0.950 1_545 S
H935 C965 0.950 . S
C936 H918 0.951 . S
C936 C937 1.366 . S
C936 C938 1.388 . S
C937 C936 1.366 . S
C937 C941 1.385 . S
C938 H919 0.951 . S
C938 C936 1.388 . S
C938 C939 1.366 . S
C939 C938 1.366 . S
C939 C940 1.414 . S
C939 C942 1.499 . S
C940 H920 0.950 . S
C940 C939 1.414 . S
C940 C941 1.374 . S
C941 H921 0.950 . S
C941 C937 1.385 . S
C941 C940 1.374 . S
C942 C939 1.499 . S
C942 C943 1.373 . S
C942 C944 1.389 . S
C943 H922 0.950 . S
C943 C942 1.373 . S
C943 C959 1.377 1_545 S
C944 C942 1.389 . S
C944 C945 1.524 . S
C944 C958 1.377 1_545 S
C945 C944 1.524 . S
C945 C946 1.397 . S
C945 C950 1.363 1_545 S
C946 H923 0.950 . S
C946 C945 1.397 . S
C946 C947 1.334 . S
C947 H924 0.950 . S
C947 C946 1.334 . S
C947 C948 1.287 . S
C948 C947 1.287 . S
C948 C949 1.524 . S
C948 H967 0.913 . S
C949 H925 0.950 1_545 S
C949 C948 1.524 . S
C949 C950 1.415 1_545 S
C950 H926 0.950 . S
C950 C945 1.363 1_565 S
C950 C949 1.415 1_565 S
C951 H927 0.951 . S
C951 C952 1.366 . S
C951 C953 1.388 . S
C952 C951 1.366 . S
C952 C956 1.385 . S
C953 H928 0.951 . S
C953 C951 1.388 . S
C953 C954 1.366 . S
C954 C953 1.366 . S
C954 C955 1.414 . S
C954 C957 1.499 . S
C955 H929 0.950 . S
C955 C954 1.414 . S
C955 C956 1.374 . S
C956 H930 0.950 . S
C956 C952 1.385 . S
C956 C955 1.374 . S
C957 C954 1.499 . S
C957 C958 1.373 . S
C957 C959 1.389 . S
C958 H931 0.950 . S
C958 C944 1.377 1_565 S
C958 C957 1.373 . S
C959 C943 1.377 1_565 S
C959 C957 1.389 . S
C959 C960 1.524 . S
C960 C959 1.524 . S
C960 C961 1.397 . S
C960 C965 1.363 1_565 S
C961 H932 0.950 . S
C961 C960 1.397 . S
C961 C962 1.334 . S
C962 H933 0.950 . S
C962 C961 1.334 . S
C962 C963 1.287 . S
C963 C962 1.287 . S
C963 C964 1.524 . S
C963 H966 0.999 . S
C964 H934 0.950 1_565 S
C964 C963 1.524 . S
C964 C965 1.415 1_565 S
C965 H935 0.950 . S
C965 C960 1.363 1_545 S
C965 C964 1.415 1_545 S
H966 C963 0.999 . S
H967 C948 0.913 . S
H968 C986 0.951 . S
H969 C988 0.951 . S
H970 C990 0.950 . S
H971 C991 0.950 . S
H972 C993 0.950 . S
H973 C996 0.950 . S
H974 C997 0.950 . S
H975 C999 0.950 . S
H976 C1000 0.950 . S
H977 C1001 0.951 . S
H978 C1003 0.951 . S
H979 C1005 0.950 . S
H980 C1006 0.950 . S
H981 C1008 0.950 . S
H982 C1011 0.950 . S
H983 C1012 0.950 . S
H984 C1014 0.950 . S
H985 C1015 0.950 . S
C986 H968 0.951 . S
C986 C987 1.366 . S
C986 C988 1.388 . S
C987 C986 1.366 . S
C987 C991 1.385 . S
C988 H969 0.951 . S
C988 C986 1.388 . S
C988 C989 1.366 . S
C989 C988 1.366 . S
C989 C990 1.414 . S
C989 C992 1.499 . S
C990 H970 0.950 . S
C990 C989 1.414 . S
C990 C991 1.374 . S
C991 H971 0.950 . S
C991 C987 1.385 . S
C991 C990 1.374 . S
C992 C989 1.499 . S
C992 C993 1.373 . S
C992 C994 1.389 . S
C993 H972 0.950 . S
C993 C992 1.373 . S
C993 C1009 1.377 . S
C994 C992 1.389 . S
C994 C995 1.524 . S
C994 C1008 1.377 . S
C995 C994 1.524 . S
C995 C996 1.397 . S
C995 C1000 1.363 . S
C996 H973 0.950 . S
C996 C995 1.397 . S
C996 C997 1.334 . S
C997 H974 0.950 . S
C997 C996 1.334 . S
C997 C998 1.287 . S
C998 C997 1.287 . S
C998 C999 1.524 . S
C998 H1017 0.913 . S
C999 H975 0.950 . S
C999 C998 1.524 . S
C999 C1000 1.415 . S
C1000 H976 0.950 . S
C1000 C995 1.363 . S
C1000 C999 1.415 . S
C1001 H977 0.951 . S
C1001 C1002 1.366 . S
C1001 C1003 1.388 . S
C1002 C1001 1.366 . S
C1002 C1006 1.385 . S
C1003 H978 0.951 . S
C1003 C1001 1.388 . S
C1003 C1004 1.366 . S
C1004 C1003 1.366 . S
C1004 C1005 1.414 . S
C1004 C1007 1.499 . S
C1005 H979 0.950 . S
C1005 C1004 1.414 . S
C1005 C1006 1.374 . S
C1006 H980 0.950 . S
C1006 C1002 1.385 . S
C1006 C1005 1.374 . S
C1007 C1004 1.499 . S
C1007 C1008 1.373 . S
C1007 C1009 1.389 . S
C1008 H981 0.950 . S
C1008 C994 1.377 . S
C1008 C1007 1.373 . S
C1009 C993 1.377 . S
C1009 C1007 1.389 . S
C1009 C1010 1.524 . S
C1010 C1009 1.524 . S
C1010 C1011 1.397 . S
C1010 C1015 1.363 . S
C1011 H982 0.950 . S
C1011 C1010 1.397 . S
C1011 C1012 1.334 . S
C1012 H983 0.950 . S
C1012 C1011 1.334 . S
C1012 C1013 1.287 . S
C1013 C1012 1.287 . S
C1013 C1014 1.524 . S
C1013 H1016 0.999 . S
C1014 H984 0.950 . S
C1014 C1013 1.524 . S
C1014 C1015 1.415 . S
C1015 H985 0.950 . S
C1015 C1010 1.363 . S
C1015 C1014 1.415 . S
H1016 C1013 0.999 . S
H1017 C998 0.913 . S
H1018 C1036 0.951 . S
H1019 C1038 0.951 . S
H1020 C1040 0.950 . S
H1021 C1041 0.950 . S
H1022 C1043 0.950 . S
H1023 C1046 0.950 . S
H1024 C1047 0.950 . S
H1025 C1049 0.950 . S
H1026 C1050 0.950 1_655 S
H1027 C1051 0.951 . S
H1028 C1053 0.951 . S
H1029 C1055 0.950 . S
H1030 C1056 0.950 . S
H1031 C1058 0.950 . S
H1032 C1061 0.950 . S
H1033 C1062 0.950 . S
H1034 C1064 0.950 . S
H1035 C1065 0.950 1_455 S
C1036 H1018 0.951 . S
C1036 C1037 1.366 . S
C1036 C1038 1.388 . S
C1037 C1036 1.366 . S
C1037 C1041 1.385 . S
C1038 H1019 0.951 . S
C1038 C1036 1.388 . S
C1038 C1039 1.366 . S
C1039 C1038 1.366 . S
C1039 C1040 1.414 . S
C1039 C1042 1.499 . S
C1040 H1020 0.950 . S
C1040 C1039 1.414 . S
C1040 C1041 1.374 . S
C1041 H1021 0.950 . S
C1041 C1037 1.385 . S
C1041 C1040 1.374 . S
C1042 C1039 1.499 . S
C1042 C1043 1.373 . S
C1042 C1044 1.389 . S
C1043 H1022 0.950 . S
C1043 C1042 1.373 . S
C1043 C1059 1.377 1_455 S
C1044 C1042 1.389 . S
C1044 C1045 1.524 . S
C1044 C1058 1.377 1_455 S
C1045 C1044 1.524 . S
C1045 C1046 1.397 . S
C1045 C1050 1.363 . S
C1046 H1023 0.950 . S
C1046 C1045 1.397 . S
C1046 C1047 1.334 . S
C1047 H1024 0.950 . S
C1047 C1046 1.334 . S
C1047 C1048 1.287 . S
C1048 C1047 1.287 . S
C1048 C1049 1.524 . S
C1048 H1067 0.913 . S
C1049 H1025 0.950 . S
C1049 C1048 1.524 . S
C1049 C1050 1.415 . S
C1050 H1026 0.950 1_455 S
C1050 C1045 1.363 . S
C1050 C1049 1.415 . S
C1051 H1027 0.951 . S
C1051 C1052 1.366 . S
C1051 C1053 1.388 . S
C1052 C1051 1.366 . S
C1052 C1056 1.385 . S
C1053 H1028 0.951 . S
C1053 C1051 1.388 . S
C1053 C1054 1.366 . S
C1054 C1053 1.366 . S
C1054 C1055 1.414 . S
C1054 C1057 1.499 . S
C1055 H1029 0.950 . S
C1055 C1054 1.414 . S
C1055 C1056 1.374 . S
C1056 H1030 0.950 . S
C1056 C1052 1.385 . S
C1056 C1055 1.374 . S
C1057 C1054 1.499 . S
C1057 C1058 1.373 . S
C1057 C1059 1.389 . S
C1058 H1031 0.950 . S
C1058 C1044 1.377 1_655 S
C1058 C1057 1.373 . S
C1059 C1043 1.377 1_655 S
C1059 C1057 1.389 . S
C1059 C1060 1.524 . S
C1060 C1059 1.524 . S
C1060 C1061 1.397 . S
C1060 C1065 1.363 . S
C1061 H1032 0.950 . S
C1061 C1060 1.397 . S
C1061 C1062 1.334 . S
C1062 H1033 0.950 . S
C1062 C1061 1.334 . S
C1062 C1063 1.287 . S
C1063 C1062 1.287 . S
C1063 C1064 1.524 . S
C1063 H1066 0.999 . S
C1064 H1034 0.950 . S
C1064 C1063 1.524 . S
C1064 C1065 1.415 . S
C1065 H1035 0.950 1_655 S
C1065 C1060 1.363 . S
C1065 C1064 1.415 . S
H1066 C1063 0.999 . S
H1067 C1048 0.913 . S
H1068 C1086 0.951 . S
H1069 C1088 0.951 . S
H1070 C1090 0.950 . S
H1071 C1091 0.950 . S
H1072 C1093 0.950 . S
H1073 C1096 0.950 . S
H1074 C1097 0.950 . S
H1075 C1099 0.950 . S
H1076 C1100 0.950 . S
H1077 C1101 0.951 . S
H1078 C1103 0.951 . S
H1079 C1105 0.950 . S
H1080 C1106 0.950 . S
H1081 C1108 0.950 . S
H1082 C1111 0.950 . S
H1083 C1112 0.950 . S
H1084 C1114 0.950 . S
H1085 C1115 0.950 . S
C1086 H1068 0.951 . S
C1086 C1087 1.366 . S
C1086 C1088 1.388 . S
C1087 C1086 1.366 . S
C1087 C1091 1.385 . S
C1088 H1069 0.951 . S
C1088 C1086 1.388 . S
C1088 C1089 1.366 . S
C1089 C1088 1.366 . S
C1089 C1090 1.414 . S
C1089 C1092 1.499 . S
C1090 H1070 0.950 . S
C1090 C1089 1.414 . S
C1090 C1091 1.374 . S
C1091 H1071 0.950 . S
C1091 C1087 1.385 . S
C1091 C1090 1.374 . S
C1092 C1089 1.499 . S
C1092 C1093 1.373 . S
C1092 C1094 1.389 . S
C1093 H1072 0.950 . S
C1093 C1092 1.373 . S
C1093 C1109 1.377 . S
C1094 C1092 1.389 . S
C1094 C1095 1.524 . S
C1094 C1108 1.377 . S
C1095 C1094 1.524 . S
C1095 C1096 1.397 . S
C1095 C1100 1.363 . S
C1096 H1073 0.950 . S
C1096 C1095 1.397 . S
C1096 C1097 1.334 . S
C1097 H1074 0.950 . S
C1097 C1096 1.334 . S
C1097 C1098 1.287 . S
C1098 C1097 1.287 . S
C1098 C1099 1.524 . S
C1098 H1117 0.913 . S
C1099 H1075 0.950 . S
C1099 C1098 1.524 . S
C1099 C1100 1.415 . S
C1100 H1076 0.950 . S
C1100 C1095 1.363 . S
C1100 C1099 1.415 . S
C1101 H1077 0.951 . S
C1101 C1102 1.366 . S
C1101 C1103 1.388 . S
C1102 C1101 1.366 . S
C1102 C1106 1.385 . S
C1103 H1078 0.951 . S
C1103 C1101 1.388 . S
C1103 C1104 1.366 . S
C1104 C1103 1.366 . S
C1104 C1105 1.414 . S
C1104 C1107 1.499 . S
C1105 H1079 0.950 . S
C1105 C1104 1.414 . S
C1105 C1106 1.374 . S
C1106 H1080 0.950 . S
C1106 C1102 1.385 . S
C1106 C1105 1.374 . S
C1107 C1104 1.499 . S
C1107 C1108 1.373 . S
C1107 C1109 1.389 . S
C1108 H1081 0.950 . S
C1108 C1094 1.377 . S
C1108 C1107 1.373 . S
C1109 C1093 1.377 . S
C1109 C1107 1.389 . S
C1109 C1110 1.524 . S
C1110 C1109 1.524 . S
C1110 C1111 1.397 . S
C1110 C1115 1.363 . S
C1111 H1082 0.950 . S
C1111 C1110 1.397 . S
C1111 C1112 1.334 . S
C1112 H1083 0.950 . S
C1112 C1111 1.334 . S
C1112 C1113 1.287 . S
C1113 C1112 1.287 . S
C1113 C1114 1.524 . S
C1113 H1116 0.999 . S
C1114 H1084 0.950 . S
C1114 C1113 1.524 . S
C1114 C1115 1.415 . S
C1115 H1085 0.950 . S
C1115 C1110 1.363 . S
C1115 C1114 1.415 . S
H1116 C1113 0.999 . S
H1117 C1098 0.913 . S
H1118 C1136 0.951 . S
H1119 C1138 0.951 . S
H1120 C1140 0.950 . S
H1121 C1141 0.950 . S
H1122 C1143 0.950 . S
H1123 C1146 0.950 . S
H1124 C1147 0.950 . S
H1125 C1149 0.950 . S
H1126 C1150 0.950 . S
H1127 C1151 0.951 . S
H1128 C1153 0.951 . S
H1129 C1155 0.950 . S
H1130 C1156 0.950 . S
H1131 C1158 0.950 . S
H1132 C1161 0.950 . S
H1133 C1162 0.950 . S
H1134 C1164 0.950 . S
H1135 C1165 0.950 . S
C1136 H1118 0.951 . S
C1136 C1137 1.366 . S
C1136 C1138 1.388 . S
C1137 C1136 1.366 . S
C1137 C1141 1.385 . S
C1138 H1119 0.951 . S
C1138 C1136 1.388 . S
C1138 C1139 1.366 . S
C1139 C1138 1.366 . S
C1139 C1140 1.414 . S
C1139 C1142 1.499 . S
C1140 H1120 0.950 . S
C1140 C1139 1.414 . S
C1140 C1141 1.374 . S
C1141 H1121 0.950 . S
C1141 C1137 1.385 . S
C1141 C1140 1.374 . S
C1142 C1139 1.499 . S
C1142 C1143 1.373 . S
C1142 C1144 1.389 . S
C1143 H1122 0.950 . S
C1143 C1142 1.373 . S
C1143 C1159 1.377 1_655 S
C1144 C1142 1.389 . S
C1144 C1145 1.524 . S
C1144 C1158 1.377 1_655 S
C1145 C1144 1.524 . S
C1145 C1146 1.397 . S
C1145 C1150 1.363 1_655 S
C1146 H1123 0.950 . S
C1146 C1145 1.397 . S
C1146 C1147 1.334 . S
C1147 H1124 0.950 . S
C1147 C1146 1.334 . S
C1147 C1148 1.287 . S
C1148 C1147 1.287 . S
C1148 C1149 1.524 1_655 S
C1148 H1167 0.913 . S
C1149 H1125 0.950 . S
C1149 C1148 1.524 1_455 S
C1149 C1150 1.415 . S
C1150 H1126 0.950 . S
C1150 C1145 1.363 1_455 S
C1150 C1149 1.415 . S
C1151 H1127 0.951 . S
C1151 C1152 1.366 . S
C1151 C1153 1.388 . S
C1152 C1151 1.366 . S
C1152 C1156 1.385 . S
C1153 H1128 0.951 . S
C1153 C1151 1.388 . S
C1153 C1154 1.366 . S
C1154 C1153 1.366 . S
C1154 C1155 1.414 . S
C1154 C1157 1.499 . S
C1155 H1129 0.950 . S
C1155 C1154 1.414 . S
C1155 C1156 1.374 . S
C1156 H1130 0.950 . S
C1156 C1152 1.385 . S
C1156 C1155 1.374 . S
C1157 C1154 1.499 . S
C1157 C1158 1.373 . S
C1157 C1159 1.389 . S
C1158 H1131 0.950 . S
C1158 C1144 1.377 1_455 S
C1158 C1157 1.373 . S
C1159 C1143 1.377 1_455 S
C1159 C1157 1.389 . S
C1159 C1160 1.524 . S
C1160 C1159 1.524 . S
C1160 C1161 1.397 . S
C1160 C1165 1.363 1_455 S
C1161 H1132 0.950 . S
C1161 C1160 1.397 . S
C1161 C1162 1.334 . S
C1162 H1133 0.950 . S
C1162 C1161 1.334 . S
C1162 C1163 1.287 . S
C1163 C1162 1.287 . S
C1163 C1164 1.524 1_455 S
C1163 H1166 0.999 . S
C1164 H1134 0.950 . S
C1164 C1163 1.524 1_655 S
C1164 C1165 1.415 . S
C1165 H1135 0.950 . S
C1165 C1160 1.363 1_655 S
C1165 C1164 1.415 . S
H1166 C1163 0.999 . S
H1167 C1148 0.913 . S
H1168 C1186 0.951 . S
H1169 C1188 0.951 . S
H1170 C1190 0.950 . S
H1171 C1191 0.950 . S
H1172 C1193 0.950 . S
H1173 C1196 0.950 . S
H1174 C1197 0.950 . S
H1175 C1199 0.950 . S
H1176 C1200 0.950 . S
H1177 C1201 0.951 . S
H1178 C1203 0.951 . S
H1179 C1205 0.950 . S
H1180 C1206 0.950 . S
H1181 C1208 0.950 . S
H1182 C1211 0.950 . S
H1183 C1212 0.950 . S
H1184 C1214 0.950 . S
H1185 C1215 0.950 . S
C1186 H1168 0.951 . S
C1186 C1187 1.366 . S
C1186 C1188 1.388 . S
C1187 C1186 1.366 . S
C1187 C1191 1.385 . S
C1188 H1169 0.951 . S
C1188 C1186 1.388 . S
C1188 C1189 1.366 . S
C1189 C1188 1.366 . S
C1189 C1190 1.414 . S
C1189 C1192 1.499 . S
C1190 H1170 0.950 . S
C1190 C1189 1.414 . S
C1190 C1191 1.374 . S
C1191 H1171 0.950 . S
C1191 C1187 1.385 . S
C1191 C1190 1.374 . S
C1192 C1189 1.499 . S
C1192 C1193 1.373 . S
C1192 C1194 1.389 . S
C1193 H1172 0.950 . S
C1193 C1192 1.373 . S
C1193 C1209 1.377 1_545 S
C1194 C1192 1.389 . S
C1194 C1195 1.524 . S
C1194 C1208 1.377 1_545 S
C1195 C1194 1.524 . S
C1195 C1196 1.397 . S
C1195 C1200 1.363 . S
C1196 H1173 0.950 . S
C1196 C1195 1.397 . S
C1196 C1197 1.334 . S
C1197 H1174 0.950 . S
C1197 C1196 1.334 . S
C1197 C1198 1.287 . S
C1198 C1197 1.287 . S
C1198 C1199 1.524 . S
C1198 H1217 0.913 . S
C1199 H1175 0.950 . S
C1199 C1198 1.524 . S
C1199 C1200 1.415 . S
C1200 H1176 0.950 . S
C1200 C1195 1.363 . S
C1200 C1199 1.415 . S
C1201 H1177 0.951 . S
C1201 C1202 1.366 . S
C1201 C1203 1.388 . S
C1202 C1201 1.366 . S
C1202 C1206 1.385 . S
C1203 H1178 0.951 . S
C1203 C1201 1.388 . S
C1203 C1204 1.366 . S
C1204 C1203 1.366 . S
C1204 C1205 1.414 . S
C1204 C1207 1.499 . S
C1205 H1179 0.950 . S
C1205 C1204 1.414 . S
C1205 C1206 1.374 . S
C1206 H1180 0.950 . S
C1206 C1202 1.385 . S
C1206 C1205 1.374 . S
C1207 C1204 1.499 . S
C1207 C1208 1.373 . S
C1207 C1209 1.389 . S
C1208 H1181 0.950 . S
C1208 C1194 1.377 1_565 S
C1208 C1207 1.373 . S
C1209 C1193 1.377 1_565 S
C1209 C1207 1.389 . S
C1209 C1210 1.524 . S
C1210 C1209 1.524 . S
C1210 C1211 1.397 . S
C1210 C1215 1.363 . S
C1211 H1182 0.950 . S
C1211 C1210 1.397 . S
C1211 C1212 1.334 . S
C1212 H1183 0.950 . S
C1212 C1211 1.334 . S
C1212 C1213 1.287 . S
C1213 C1212 1.287 . S
C1213 C1214 1.524 . S
C1213 H1216 0.999 . S
C1214 H1184 0.950 . S
C1214 C1213 1.524 . S
C1214 C1215 1.415 . S
C1215 H1185 0.950 . S
C1215 C1210 1.363 . S
C1215 C1214 1.415 . S
H1216 C1213 0.999 . S
H1217 C1198 0.913 . S
H1218 C1236 0.951 . S
H1219 C1238 0.951 . S
H1220 C1240 0.950 . S
H1221 C1241 0.950 . S
H1222 C1243 0.950 . S
H1223 C1246 0.950 . S
H1224 C1247 0.950 . S
H1225 C1249 0.950 . S
H1226 C1250 0.950 . S
H1227 C1251 0.951 . S
H1228 C1253 0.951 . S
H1229 C1255 0.950 . S
H1230 C1256 0.950 . S
H1231 C1258 0.950 . S
H1232 C1261 0.950 . S
H1233 C1262 0.950 . S
H1234 C1264 0.950 . S
H1235 C1265 0.950 . S
C1236 H1218 0.951 . S
C1236 C1237 1.366 . S
C1236 C1238 1.388 . S
C1237 C1236 1.366 . S
C1237 C1241 1.385 . S
C1238 H1219 0.951 . S
C1238 C1236 1.388 . S
C1238 C1239 1.366 . S
C1239 C1238 1.366 . S
C1239 C1240 1.414 . S
C1239 C1242 1.499 . S
C1240 H1220 0.950 . S
C1240 C1239 1.414 . S
C1240 C1241 1.374 . S
C1241 H1221 0.950 . S
C1241 C1237 1.385 . S
C1241 C1240 1.374 . S
C1242 C1239 1.499 . S
C1242 C1243 1.373 . S
C1242 C1244 1.389 . S
C1243 H1222 0.950 . S
C1243 C1242 1.373 . S
C1243 C1259 1.377 . S
C1244 C1242 1.389 . S
C1244 C1245 1.524 . S
C1244 C1258 1.377 . S
C1245 C1244 1.524 . S
C1245 C1246 1.397 . S
C1245 C1250 1.363 . S
C1246 H1223 0.950 . S
C1246 C1245 1.397 . S
C1246 C1247 1.334 . S
C1247 H1224 0.950 . S
C1247 C1246 1.334 . S
C1247 C1248 1.287 . S
C1248 C1247 1.287 . S
C1248 C1249 1.524 . S
C1248 H1267 0.913 . S
C1249 H1225 0.950 . S
C1249 C1248 1.524 . S
C1249 C1250 1.415 . S
C1250 H1226 0.950 . S
C1250 C1245 1.363 . S
C1250 C1249 1.415 . S
C1251 H1227 0.951 . S
C1251 C1252 1.366 . S
C1251 C1253 1.388 . S
C1252 C1251 1.366 . S
C1252 C1256 1.385 . S
C1253 H1228 0.951 . S
C1253 C1251 1.388 . S
C1253 C1254 1.366 . S
C1254 C1253 1.366 . S
C1254 C1255 1.414 . S
C1254 C1257 1.499 . S
C1255 H1229 0.950 . S
C1255 C1254 1.414 . S
C1255 C1256 1.374 . S
C1256 H1230 0.950 . S
C1256 C1252 1.385 . S
C1256 C1255 1.374 . S
C1257 C1254 1.499 . S
C1257 C1258 1.373 . S
C1257 C1259 1.389 . S
C1258 H1231 0.950 . S
C1258 C1244 1.377 . S
C1258 C1257 1.373 . S
C1259 C1243 1.377 . S
C1259 C1257 1.389 . S
C1259 C1260 1.524 . S
C1260 C1259 1.524 . S
C1260 C1261 1.397 . S
C1260 C1265 1.363 . S
C1261 H1232 0.950 . S
C1261 C1260 1.397 . S
C1261 C1262 1.334 . S
C1262 H1233 0.950 . S
C1262 C1261 1.334 . S
C1262 C1263 1.287 . S
C1263 C1262 1.287 . S
C1263 C1264 1.524 . S
C1263 H1266 0.999 . S
C1264 H1234 0.950 . S
C1264 C1263 1.524 . S
C1264 C1265 1.415 . S
C1265 H1235 0.950 . S
C1265 C1260 1.363 . S
C1265 C1264 1.415 . S
H1266 C1263 0.999 . S
H1267 C1248 0.913 . S
H1268 C1286 0.951 . S
H1269 C1288 0.951 . S
H1270 C1290 0.950 . S
H1271 C1291 0.950 . S
H1272 C1293 0.950 . S
H1273 C1296 0.950 . S
H1274 C1297 0.950 . S
H1275 C1299 0.950 1_655 S
H1276 C1300 0.969 . S
H1277 C1301 0.951 . S
H1278 C1303 0.951 . S
H1279 C1305 0.950 . S
H1280 C1306 0.950 . S
H1281 C1308 0.950 . S
H1282 C1311 0.950 . S
H1283 C1312 0.950 . S
H1284 C1314 0.950 1_455 S
H1285 C1315 0.962 . S
C1286 H1268 0.951 . S
C1286 C1287 1.366 . S
C1286 C1288 1.388 . S
C1287 C1286 1.366 . S
C1287 C1291 1.385 . S
C1288 H1269 0.951 . S
C1288 C1286 1.388 . S
C1288 C1289 1.366 . S
C1289 C1288 1.366 . S
C1289 C1290 1.414 . S
C1289 C1292 1.499 . S
C1290 H1270 0.950 . S
C1290 C1289 1.414 . S
C1290 C1291 1.374 . S
C1291 H1271 0.950 . S
C1291 C1287 1.385 . S
C1291 C1290 1.374 . S
C1292 C1289 1.499 . S
C1292 C1293 1.373 . S
C1292 C1294 1.389 . S
C1293 H1272 0.950 . S
C1293 C1292 1.373 . S
C1293 C1309 1.377 1_455 S
C1294 C1292 1.389 . S
C1294 C1295 1.524 . S
C1294 C1308 1.377 1_455 S
C1295 C1294 1.524 . S
C1295 C1296 1.397 . S
C1295 C1300 1.362 1_455 S
C1296 H1273 0.950 . S
C1296 C1295 1.397 . S
C1296 C1297 1.334 . S
C1297 H1274 0.950 . S
C1297 C1296 1.334 . S
C1297 C1298 1.287 . S
C1298 C1297 1.287 . S
C1298 C1299 1.524 . S
C1298 H1317 0.913 . S
C1299 H1275 0.950 1_455 S
C1299 C1298 1.524 . S
C1299 C1300 1.399 1_455 S
C1300 H1276 0.969 . S
C1300 C1295 1.362 1_655 S
C1300 C1299 1.399 1_655 S
C1301 H1277 0.951 . S
C1301 C1302 1.366 . S
C1301 C1303 1.388 . S
C1302 C1301 1.366 . S
C1302 C1306 1.385 . S
C1303 H1278 0.951 . S
C1303 C1301 1.388 . S
C1303 C1304 1.366 . S
C1304 C1303 1.366 . S
C1304 C1305 1.414 . S
C1304 C1307 1.499 . S
C1305 H1279 0.950 . S
C1305 C1304 1.414 . S
C1305 C1306 1.374 . S
C1306 H1280 0.950 . S
C1306 C1302 1.385 . S
C1306 C1305 1.374 . S
C1307 C1304 1.499 . S
C1307 C1308 1.373 . S
C1307 C1309 1.389 . S
C1308 H1281 0.950 . S
C1308 C1294 1.377 1_655 S
C1308 C1307 1.373 . S
C1309 C1293 1.377 1_655 S
C1309 C1307 1.389 . S
C1309 C1310 1.524 . S
C1310 C1309 1.524 . S
C1310 C1311 1.397 . S
C1310 C1315 1.362 1_655 S
C1311 H1282 0.950 . S
C1311 C1310 1.397 . S
C1311 C1312 1.334 . S
C1312 H1283 0.950 . S
C1312 C1311 1.334 . S
C1312 C1313 1.287 . S
C1313 C1312 1.287 . S
C1313 C1314 1.524 . S
C1313 H1316 0.999 . S
C1314 H1284 0.950 1_655 S
C1314 C1313 1.524 . S
C1314 C1315 1.404 1_655 S
C1315 H1285 0.962 . S
C1315 C1310 1.362 1_455 S
C1315 C1314 1.404 1_455 S
H1316 C1313 0.999 . S
H1317 C1298 0.913 . S
H1318 C1336 0.951 . S
H1319 C1338 0.951 . S
H1320 C1340 0.950 . S
H1321 C1341 0.950 . S
H1322 C1343 0.950 . S
H1323 C1346 0.950 . S
H1324 C1347 0.950 . S
H1325 C1349 0.950 . S
H1326 C1350 0.950 . S
H1327 C1351 0.951 . S
H1328 C1353 0.951 . S
H1329 C1355 0.950 . S
H1330 C1356 0.950 . S
H1331 C1358 0.950 . S
H1332 C1361 0.950 . S
H1333 C1362 0.950 . S
H1334 C1364 0.950 . S
H1335 C1365 0.950 . S
C1336 H1318 0.951 . S
C1336 C1337 1.366 . S
C1336 C1338 1.388 . S
C1337 C1336 1.366 . S
C1337 C1341 1.385 . S
C1338 H1319 0.951 . S
C1338 C1336 1.388 . S
C1338 C1339 1.366 . S
C1339 C1338 1.366 . S
C1339 C1340 1.414 . S
C1339 C1342 1.499 . S
C1340 H1320 0.950 . S
C1340 C1339 1.414 . S
C1340 C1341 1.374 . S
C1341 H1321 0.950 . S
C1341 C1337 1.385 . S
C1341 C1340 1.374 . S
C1342 C1339 1.499 . S
C1342 C1343 1.373 . S
C1342 C1344 1.389 . S
C1343 H1322 0.950 . S
C1343 C1342 1.373 . S
C1343 C1359 1.377 1_565 S
C1344 C1342 1.389 . S
C1344 C1345 1.524 . S
C1344 C1358 1.377 1_565 S
C1345 C1344 1.524 . S
C1345 C1346 1.397 . S
C1345 C1350 1.363 . S
C1346 H1323 0.950 . S
C1346 C1345 1.397 . S
C1346 C1347 1.334 . S
C1347 H1324 0.950 . S
C1347 C1346 1.334 . S
C1347 C1348 1.287 . S
C1348 C1347 1.287 . S
C1348 C1349 1.524 . S
C1348 H1367 0.913 . S
C1349 H1325 0.950 . S
C1349 C1348 1.524 . S
C1349 C1350 1.415 . S
C1350 H1326 0.950 . S
C1350 C1345 1.363 . S
C1350 C1349 1.415 . S
C1351 H1327 0.951 . S
C1351 C1352 1.366 . S
C1351 C1353 1.388 . S
C1352 C1351 1.366 . S
C1352 C1356 1.385 . S
C1353 H1328 0.951 . S
C1353 C1351 1.388 . S
C1353 C1354 1.366 . S
C1354 C1353 1.366 . S
C1354 C1355 1.414 . S
C1354 C1357 1.499 . S
C1355 H1329 0.950 . S
C1355 C1354 1.414 . S
C1355 C1356 1.374 . S
C1356 H1330 0.950 . S
C1356 C1352 1.385 . S
C1356 C1355 1.374 . S
C1357 C1354 1.499 . S
C1357 C1358 1.373 . S
C1357 C1359 1.389 . S
C1358 H1331 0.950 . S
C1358 C1344 1.377 1_545 S
C1358 C1357 1.373 . S
C1359 C1343 1.377 1_545 S
C1359 C1357 1.389 . S
C1359 C1360 1.524 . S
C1360 C1359 1.524 . S
C1360 C1361 1.397 . S
C1360 C1365 1.363 . S
C1361 H1332 0.950 . S
C1361 C1360 1.397 . S
C1361 C1362 1.334 . S
C1362 H1333 0.950 . S
C1362 C1361 1.334 . S
C1362 C1363 1.287 . S
C1363 C1362 1.287 . S
C1363 C1364 1.524 . S
C1363 H1366 0.999 . S
C1364 H1334 0.950 . S
C1364 C1363 1.524 . S
C1364 C1365 1.415 . S
C1365 H1335 0.950 . S
C1365 C1360 1.363 . S
C1365 C1364 1.415 . S
H1366 C1363 0.999 . S
H1367 C1348 0.913 . S
C187 C148 1.079 . S
C202 C8 1.078 . S
C237 C22 1.080 . S
C252 C162 1.078 . S
C287 C36 1.078 . S
C302 C92 1.078 . S
C337 C50 1.079 . S
C352 C106 1.077 . S
C387 C120 1.078 . S
C402 C64 1.078 . S
C437 C78 1.078 . S
C452 C134 1.078 . S
C487 C119 1.371 . S
C502 C7 1.370 . S
C537 C21 1.372 . S
C552 C133 1.371 . S
C587 C35 1.373 . S
C602 C147 1.373 . S
C637 C49 1.373 . S
C652 C161 1.373 . S
C687 C91 1.372 . S
C702 C63 1.372 . S
C737 C105 1.370 . S
C752 C77 1.371 . S
C787 C51 1.657 . S
C802 C9 1.657 . S
C837 C23 1.657 . S
C852 C65 1.657 . S
C887 C79 1.657 . S
C902 C37 1.657 . S
C937 C135 1.657 . S
C952 C93 1.657 . S
C987 C149 1.656 . S
C1002 C107 1.656 . S
C1037 C121 1.657 . S
C1052 C163 1.657 . S
C1087 C48 1.136 . S
C1102 C6 1.136 . S
C1137 C20 1.136 . S
C1152 C62 1.136 . S
C1187 C76 1.135 . S
C1202 C34 1.135 . S
C1237 C90 1.136 . S
C1252 C132 1.136 . S
C1287 C146 1.135 . S
C1302 C104 1.136 . S
C1337 C118 1.136 . S
C1352 C160 1.136 . S
