# Generated by pormake.
# Topology uno, (4)-cn, num edge types: 1
# Building blocks:
#     Node 0, Type 0, BuildingBlock: QUQFOY_clean_sbu_1, # of connection points: 4
#     Node 1, Type 0, BuildingBlock: QUQFOY_clean_sbu_1, # of connection points: 4
#     Node 2, Type 0, BuildingBlock: QUQFOY_clean_sbu_1, # of connection points: 4
#     Node 3, Type 0, BuildingBlock: QUQFOY_clean_sbu_1, # of connection points: 4
#     Node 4, Type 0, BuildingBlock: QUQFOY_clean_sbu_1, # of connection points: 4
#     Node 5, Type 0, BuildingBlock: QUQFOY_clean_sbu_1, # of connection points: 4
#     Node 6, Type 0, BuildingBlock: QUQFOY_clean_sbu_1, # of connection points: 4
#     Node 7, Type 0, BuildingBlock: QUQFOY_clean_sbu_1, # of connection points: 4
#     Node 8, Type 0, BuildingBlock: QUQFOY_clean_sbu_1, # of connection points: 4
#     Node 9, Type 0, BuildingBlock: QUQFOY_clean_sbu_1, # of connection points: 4
#     Node 10, Type 0, BuildingBlock: QUQFOY_clean_sbu_1, # of connection points: 4
#     Node 11, Type 0, BuildingBlock: QUQFOY_clean_sbu_1, # of connection points: 4
#     Node 12, Type 0, BuildingBlock: QUQFOY_clean_sbu_1, # of connection points: 4
#     Node 13, Type 0, BuildingBlock: QUQFOY_clean_sbu_1, # of connection points: 4
#     Node 14, Type 0, BuildingBlock: QUQFOY_clean_sbu_1, # of connection points: 4
#     Node 15, Type 0, BuildingBlock: QUQFOY_clean_sbu_1, # of connection points: 4
#     Node 16, Type 0, BuildingBlock: QUQFOY_clean_sbu_1, # of connection points: 4
#     Node 17, Type 0, BuildingBlock: QUQFOY_clean_sbu_1, # of connection points: 4
#     Node 18, Type 0, BuildingBlock: QUQFOY_clean_sbu_1, # of connection points: 4
#     Node 19, Type 0, BuildingBlock: QUQFOY_clean_sbu_1, # of connection points: 4
#     Node 20, Type 0, BuildingBlock: QUQFOY_clean_sbu_1, # of connection points: 4
#     Node 21, Type 0, BuildingBlock: QUQFOY_clean_sbu_1, # of connection points: 4
#     Node 22, Type 0, BuildingBlock: QUQFOY_clean_sbu_1, # of connection points: 4
#     Node 23, Type 0, BuildingBlock: QUQFOY_clean_sbu_1, # of connection points: 4
#     Edge 24, Type (0, 0), BuildingBlock: CIFDUS_clean_linker_0, # of connection points: 2
#     Edge 25, Type (0, 0), BuildingBlock: CIFDUS_clean_linker_0, # of connection points: 2
#     Edge 26, Type (0, 0), BuildingBlock: CIFDUS_clean_linker_0, # of connection points: 2
#     Edge 27, Type (0, 0), BuildingBlock: CIFDUS_clean_linker_0, # of connection points: 2
#     Edge 28, Type (0, 0), BuildingBlock: CIFDUS_clean_linker_0, # of connection points: 2
#     Edge 29, Type (0, 0), BuildingBlock: CIFDUS_clean_linker_0, # of connection points: 2
#     Edge 30, Type (0, 0), BuildingBlock: CIFDUS_clean_linker_0, # of connection points: 2
#     Edge 31, Type (0, 0), BuildingBlock: CIFDUS_clean_linker_0, # of connection points: 2
#     Edge 32, Type (0, 0), BuildingBlock: CIFDUS_clean_linker_0, # of connection points: 2
#     Edge 33, Type (0, 0), BuildingBlock: CIFDUS_clean_linker_0, # of connection points: 2
#     Edge 34, Type (0, 0), BuildingBlock: CIFDUS_clean_linker_0, # of connection points: 2
#     Edge 35, Type (0, 0), BuildingBlock: CIFDUS_clean_linker_0, # of connection points: 2
#     Edge 36, Type (0, 0), BuildingBlock: CIFDUS_clean_linker_0, # of connection points: 2
#     Edge 37, Type (0, 0), BuildingBlock: CIFDUS_clean_linker_0, # of connection points: 2
#     Edge 38, Type (0, 0), BuildingBlock: CIFDUS_clean_linker_0, # of connection points: 2
#     Edge 39, Type (0, 0), BuildingBlock: CIFDUS_clean_linker_0, # of connection points: 2
#     Edge 40, Type (0, 0), BuildingBlock: CIFDUS_clean_linker_0, # of connection points: 2
#     Edge 41, Type (0, 0), BuildingBlock: CIFDUS_clean_linker_0, # of connection points: 2
#     Edge 42, Type (0, 0), BuildingBlock: CIFDUS_clean_linker_0, # of connection points: 2
#     Edge 43, Type (0, 0), BuildingBlock: CIFDUS_clean_linker_0, # of connection points: 2
#     Edge 44, Type (0, 0), BuildingBlock: CIFDUS_clean_linker_0, # of connection points: 2
#     Edge 45, Type (0, 0), BuildingBlock: CIFDUS_clean_linker_0, # of connection points: 2
#     Edge 46, Type (0, 0), BuildingBlock: CIFDUS_clean_linker_0, # of connection points: 2
#     Edge 47, Type (0, 0), BuildingBlock: CIFDUS_clean_linker_0, # of connection points: 2
#     Edge 48, Type (0, 0), BuildingBlock: CIFDUS_clean_linker_0, # of connection points: 2
#     Edge 49, Type (0, 0), BuildingBlock: CIFDUS_clean_linker_0, # of connection points: 2
#     Edge 50, Type (0, 0), BuildingBlock: CIFDUS_clean_linker_0, # of connection points: 2
#     Edge 51, Type (0, 0), BuildingBlock: CIFDUS_clean_linker_0, # of connection points: 2
#     Edge 52, Type (0, 0), BuildingBlock: CIFDUS_clean_linker_0, # of connection points: 2
#     Edge 53, Type (0, 0), BuildingBlock: CIFDUS_clean_linker_0, # of connection points: 2
#     Edge 54, Type (0, 0), BuildingBlock: CIFDUS_clean_linker_0, # of connection points: 2
#     Edge 55, Type (0, 0), BuildingBlock: CIFDUS_clean_linker_0, # of connection points: 2
#     Edge 56, Type (0, 0), BuildingBlock: CIFDUS_clean_linker_0, # of connection points: 2
#     Edge 57, Type (0, 0), BuildingBlock: CIFDUS_clean_linker_0, # of connection points: 2
#     Edge 58, Type (0, 0), BuildingBlock: CIFDUS_clean_linker_0, # of connection points: 2
#     Edge 59, Type (0, 0), BuildingBlock: CIFDUS_clean_linker_0, # of connection points: 2
#     Edge 60, Type (0, 0), BuildingBlock: CIFDUS_clean_linker_0, # of connection points: 2
#     Edge 61, Type (0, 0), BuildingBlock: CIFDUS_clean_linker_0, # of connection points: 2
#     Edge 62, Type (0, 0), BuildingBlock: CIFDUS_clean_linker_0, # of connection points: 2
#     Edge 63, Type (0, 0), BuildingBlock: CIFDUS_clean_linker_0, # of connection points: 2
#     Edge 64, Type (0, 0), BuildingBlock: CIFDUS_clean_linker_0, # of connection points: 2
#     Edge 65, Type (0, 0), BuildingBlock: CIFDUS_clean_linker_0, # of connection points: 2
#     Edge 66, Type (0, 0), BuildingBlock: CIFDUS_clean_linker_0, # of connection points: 2
#     Edge 67, Type (0, 0), BuildingBlock: CIFDUS_clean_linker_0, # of connection points: 2
#     Edge 68, Type (0, 0), BuildingBlock: CIFDUS_clean_linker_0, # of connection points: 2
#     Edge 69, Type (0, 0), BuildingBlock: CIFDUS_clean_linker_0, # of connection points: 2
#     Edge 70, Type (0, 0), BuildingBlock: CIFDUS_clean_linker_0, # of connection points: 2
#     Edge 71, Type (0, 0), BuildingBlock: CIFDUS_clean_linker_0, # of connection points: 2
# Relax obj value: 0.230
# Max RMSD: 0.259
# Mean RMSD: 0.235
data_MOF--net-uno--node1-QUQFOY_clean_sbu_1--edge1-CIFDUS_clean_linker_0
_symmetry_space_group_name_H-M    P1
_symmetry_Int_Tables_number       1
_symmetry_cell_setting            triclinic
loop_
_symmetry_equiv_pos_as_xyz
'x, y, z'
_cell_length_a     48.296957
_cell_length_b     48.303339
_cell_length_c     48.203905
_cell_angle_alpha  90.091914
_cell_angle_beta   90.070281
_cell_angle_gamma 90.060618
loop_
_atom_site_label
_atom_site_type_symbol
_atom_site_fract_x
_atom_site_fract_y
_atom_site_fract_z
_atom_type_partial_charge
O0 O 0.12754 0.26925 0.2336 0.0
Cd1 Cd 0.10297 0.27452 0.26883 0.0
Cd2 Cd 0.09256 0.2075 0.24261 0.0
O3 O 0.12122 0.22622 0.21683 0.0
O4 O 0.09652 0.31413 0.27767 0.0
O5 O 0.06365 0.28565 0.26232 0.0
C6 C 0.07116 0.31026 0.26993 0.0
C7 C 0.06442 0.17002 0.23257 0.0
C8 C 0.1329 0.25 0.21613 0.0
C9 C 0.10946 0.22712 0.29789 0.0
O10 O 0.08935 0.22397 0.28124 0.0
O11 O 0.11573 0.25198 0.30315 0.0
O12 O 0.09 0.1666 0.23966 0.0
O13 O 0.05551 0.195 0.2288 0.0
O14 O 0.02619 0.80007 0.47588 0.0
Cd15 Cd 0.04771 0.79435 0.43911 0.0
Cd16 Cd 0.97277 0.80881 0.4722 0.0
O17 O 1.00012 0.82638 0.50087 0.0
O18 O 0.08856 0.79596 0.44073 0.0
O19 O 0.06406 0.75686 0.43873 0.0
C20 C 0.0876 0.7692 0.44261 0.0
C21 C 0.9283 0.79414 0.47955 0.0
C22 C 0.02446 0.81998 0.49305 0.0
C23 C 0.99976 0.81264 0.41486 0.0
O24 O 0.99292 0.79811 0.43573 0.0
O25 O 0.02426 0.80914 0.40572 0.0
O26 O 0.93315 0.81914 0.47114 0.0
O27 O 0.94899 0.77801 0.48498 0.0
O28 O 0.38231 0.70892 0.74296 0.0
Cd29 Cd 0.40187 0.70007 0.7803 0.0
Cd30 Cd 0.41967 0.7671 0.75912 0.0
O31 O 0.39689 0.75006 0.72653 0.0
O32 O 0.41418 0.66113 0.78478 0.0
O33 O 0.44245 0.69615 0.77471 0.0
C34 C 0.43867 0.66985 0.77818 0.0
C35 C 0.43811 0.81087 0.76222 0.0
C36 C 0.38273 0.72771 0.72428 0.0
C37 C 0.39575 0.74579 0.80934 0.0
O38 O 0.4181 0.74673 0.79565 0.0
O39 O 0.38701 0.72167 0.81435 0.0
O40 O 0.41206 0.80653 0.76638 0.0
O41 O 0.45331 0.79056 0.75357 0.0
O42 O 0.47462 0.19175 0.99885 0.0
Cd43 Cd 0.49241 0.21985 0.97308 0.0
Cd44 Cd 0.53561 0.1994 0.99902 0.0
O45 O 0.50815 0.18461 0.02894 0.0
O46 O 0.45807 0.23965 0.96194 0.0
O47 O 0.49024 0.25843 0.98858 0.0
C48 C 0.46527 0.25899 0.97894 0.0
C49 C 0.56929 0.23386 0.00382 0.0
C50 C 0.48294 0.18181 0.02168 0.0
C51 C 0.52553 0.18158 0.93986 0.0
O52 O 0.53684 0.17594 0.96305 0.0
O53 O 0.50941 0.20237 0.93781 0.0
O54 O 0.57401 0.20883 0.01209 0.0
O55 O 0.54484 0.2395 0.99445 0.0
O56 O 0.0247 0.02025 0.36408 0.0
Cd57 Cd 0.99708 0.00869 0.33275 0.0
Cd58 Cd 0.0304 0.96948 0.3344 0.0
O59 O 0.05904 0.99976 0.34234 0.0
O60 O 0.98413 0.04119 0.31023 0.0
O61 O 0.01666 0.01188 0.29666 0.0
C62 C 0.00309 0.03448 0.2925 0.0
C63 C 0.02668 0.9341 0.30209 0.0
C64 C 0.05067 0.01671 0.36078 0.0
C65 C 0.97997 0.95886 0.35897 0.0
O66 O 0.00469 0.96199 0.36705 0.0
O67 O 0.97161 0.97379 0.33892 0.0
O68 O 0.04402 0.93226 0.3225 0.0
O69 O 0.01441 0.95753 0.29815 0.0
O70 O 0.26438 0.73286 0.59564 0.0
Cd71 Cd 0.2794 0.77229 0.59845 0.0
Cd72 Cd 0.21391 0.74605 0.60259 0.0
O73 O 0.23411 0.71347 0.62151 0.0
O74 O 0.31949 0.77435 0.60736 0.0
O75 O 0.30227 0.78063 0.56506 0.0
C76 C 0.32357 0.77742 0.58104 0.0
C77 C 0.19636 0.74514 0.558 0.0
C78 C 0.25941 0.71707 0.616 0.0
C79 C 0.23076 0.8026 0.62837 0.0
O80 O 0.21358 0.78266 0.62528 0.0
O81 O 0.25522 0.80226 0.61813 0.0
O82 O 0.18139 0.73729 0.57883 0.0
O83 O 0.22159 0.75289 0.56256 0.0
O84 O 0.46855 0.02568 0.8135 0.0
Cd85 Cd 0.49363 0.99957 0.83618 0.0
Cd86 Cd 0.49107 0.07482 0.80129 0.0
O87 O 0.45084 0.06683 0.81317 0.0
O88 O 0.47477 0.96647 0.85097 0.0
O89 O 0.50356 0.96602 0.81483 0.0
C90 C 0.48594 0.95317 0.83046 0.0
C91 C 0.50537 0.10546 0.76793 0.0
C92 C 0.45124 0.04268 0.82368 0.0
C93 C 0.52591 0.04529 0.84669 0.0
O94 O 0.5167 0.04731 0.82199 0.0
O95 O 0.52411 0.02145 0.85784 0.0
O96 O 0.5021 0.11334 0.79339 0.0
O97 O 0.5 0.08001 0.76132 0.0
O98 O 0.25317 0.27928 0.09091 0.0
Cd99 Cd 0.23353 0.24249 0.08761 0.0
Cd100 Cd 0.30146 0.27043 0.10498 0.0
O101 O 0.27643 0.30125 0.12159 0.0
O102 O 0.19395 0.2449 0.09878 0.0
O103 O 0.2075 0.23901 0.05521 0.0
C104 C 0.18768 0.24296 0.07282 0.0
C105 C 0.3329 0.27801 0.06933 0.0
C106 C 0.2529 0.2945 0.11236 0.0
C107 C 0.27781 0.20984 0.12045 0.0
O108 O 0.29465 0.23044 0.12105 0.0
O109 O 0.25481 0.21023 0.10705 0.0
O110 O 0.34031 0.28064 0.09503 0.0
O111 O 0.30743 0.27148 0.06408 0.0
O112 O 0.23776 0.10553 0.28985 0.0
Cd113 Cd 0.27737 0.08856 0.29261 0.0
Cd114 Cd 0.24984 0.07477 0.22731 0.0
O115 O 0.2177 0.09331 0.24949 0.0
O116 O 0.28728 0.07268 0.32954 0.0
O117 O 0.27764 0.04727 0.2923 0.0
C118 C 0.28351 0.04851 0.3185 0.0
C119 C 0.24764 0.04453 0.19019 0.0
C120 C 0.21713 0.10546 0.27314 0.0
C121 C 0.30172 0.10406 0.24526 0.0
O122 O 0.28875 0.08146 0.24197 0.0
O123 O 0.30702 0.11032 0.2702 0.0
O124 O 0.24592 0.07097 0.18642 0.0
O125 O 0.24758 0.03521 0.21534 0.0
O126 O 0.17719 0.97092 0.44717 0.0
Cd127 Cd 0.2032 0.94136 0.4623 0.0
Cd128 Cd 0.18698 0.96565 0.50749 0.0
O129 O 0.17648 0.99937 0.48292 0.0
O130 O 0.22426 0.93239 0.42785 0.0
O131 O 0.24251 0.95461 0.46362 0.0
C132 C 0.24412 0.94729 0.43787 0.0
C133 C 0.22046 0.96251 0.542 0.0
C134 C 0.17127 0.9943 0.45755 0.0
C135 C 0.16261 0.91027 0.49455 0.0
O136 O 0.15888 0.93356 0.50634 0.0
O137 O 0.18331 0.90672 0.4785 0.0
O138 O 0.19726 0.97503 0.54665 0.0
O139 O 0.22528 0.95352 0.51722 0.0
O140 O 0.28615 0.88792 0.80094 0.0
Cd141 Cd 0.25036 0.91225 0.80345 0.0
Cd142 Cd 0.27551 0.91199 0.73409 0.0
O143 O 0.30198 0.8867 0.75697 0.0
O144 O 0.24271 0.92758 0.84103 0.0
O145 O 0.25659 0.9531 0.80535 0.0
C146 C 0.24986 0.95149 0.83129 0.0
C147 C 0.28151 0.92931 0.68975 0.0
C148 C 0.30334 0.87957 0.78253 0.0
C149 C 0.22047 0.90273 0.75695 0.0
O150 O 0.23884 0.92095 0.7526 0.0
O151 O 0.21612 0.89703 0.78215 0.0
O152 O 0.27381 0.90398 0.69363 0.0
O153 O 0.28844 0.94396 0.71118 0.0
O154 O 0.37086 0.05733 0.03059 0.0
Cd155 Cd 0.35262 0.02032 0.01983 0.0
Cd156 Cd 0.32879 0.05488 0.98386 0.0
O157 O 0.33864 0.0848 0.01318 0.0
O158 O 0.3416 0.99877 0.05416 0.0
O159 O 0.31255 0.0217 0.02724 0.0
C160 C 0.31684 0.00808 0.04975 0.0
C161 C 0.28928 0.04509 0.95749 0.0
C162 C 0.36045 0.0814 0.02785 0.0
C163 C 0.37491 0.01825 0.96457 0.0
O164 O 0.36292 0.04154 0.96345 0.0
O165 O 0.36988 0.00162 0.98447 0.0
O166 O 0.30402 0.06681 0.95225 0.0
O167 O 0.29509 0.03119 0.97948 0.0
O168 O 0.79697 0.31663 0.89897 0.0
Cd169 Cd 0.79047 0.28202 0.92332 0.0
Cd170 Cd 0.74289 0.30887 0.9327 0.0
O171 O 0.76348 0.34291 0.91569 0.0
O172 O 0.8268 0.26814 0.93777 0.0
O173 O 0.79434 0.28651 0.96448 0.0
C174 C 0.81894 0.27621 0.9621 0.0
C175 C 0.71056 0.30688 0.96862 0.0
C176 C 0.78447 0.33982 0.89992 0.0
C177 C 0.74216 0.25645 0.89787 0.0
O178 O 0.73093 0.27913 0.90489 0.0
O179 O 0.76693 0.25108 0.90497 0.0
O180 O 0.70567 0.32078 0.94632 0.0
O181 O 0.73541 0.29762 0.97222 0.0
O182 O 0.0184 0.50549 0.20049 0.0
Cd183 Cd 0.98276 0.48312 0.20192 0.0
Cd184 Cd 1.00009 0.55418 0.1886 0.0
O185 O 0.034 0.53453 0.17092 0.0
O186 O 0.98552 0.44328 0.19198 0.0
O187 O 0.98057 0.45857 0.23519 0.0
C188 C 0.98454 0.43814 0.21825 0.0
C189 C 0.00107 0.58787 0.22295 0.0
C190 C 0.03256 0.50959 0.17875 0.0
C191 C 0.94381 0.52482 0.17199 0.0
O192 O 0.96153 0.54455 0.17123 0.0
O193 O 0.94841 0.50181 0.18431 0.0
O194 O 0.00433 0.59436 0.19711 0.0
O195 O 0.99882 0.56191 0.22927 0.0
O196 O 0.68104 0.72391 0.38356 0.0
Cd197 Cd 0.67668 0.75957 0.40764 0.0
Cd198 Cd 0.74226 0.73618 0.42064 0.0
O199 O 0.72411 0.70927 0.39241 0.0
O200 O 0.63786 0.76803 0.41855 0.0
O201 O 0.67016 0.75407 0.44821 0.0
C202 C 0.64476 0.76127 0.4436 0.0
C203 C 0.78554 0.72927 0.43934 0.0
C204 C 0.70102 0.70699 0.37963 0.0
C205 C 0.7239 0.79171 0.406 0.0
O206 O 0.72612 0.7749 0.42605 0.0
O207 O 0.70021 0.79303 0.39483 0.0
O208 O 0.78259 0.73736 0.41404 0.0
O209 O 0.76375 0.72324 0.45367 0.0
O210 O 0.87393 0.72625 0.27035 0.0
Cd211 Cd 0.90142 0.74488 0.29686 0.0
Cd212 Cd 0.88666 0.78691 0.26539 0.0
O213 O 0.8705 0.75809 0.23783 0.0
O214 O 0.92289 0.71229 0.31079 0.0
O215 O 0.94066 0.74438 0.28345 0.0
C216 C 0.94293 0.72042 0.29506 0.0
C217 C 0.92173 0.81895 0.25675 0.0
C218 C 0.86533 0.73381 0.24664 0.0
C219 C 0.86478 0.7852 0.32391 0.0
O220 O 0.86196 0.79446 0.29938 0.0
O221 O 0.88319 0.767 0.32912 0.0
O222 O 0.89684 0.82299 0.24773 0.0
O223 O 0.92688 0.79592 0.26931 0.0
O224 O 0.64446 0.28359 0.71543 0.0
Cd225 Cd 0.62115 0.25741 0.73942 0.0
Cd226 Cd 0.65223 0.22327 0.70283 0.0
O227 O 0.66424 0.25875 0.68238 0.0
O228 O 0.59918 0.28463 0.76169 0.0
O229 O 0.58025 0.25673 0.73077 0.0
C230 C 0.57767 0.27731 0.74764 0.0
C231 C 0.61434 0.19536 0.69345 0.0
C232 C 0.65917 0.28206 0.69362 0.0
C233 C 0.66462 0.21985 0.76372 0.0
O234 O 0.67338 0.21542 0.73921 0.0
O235 O 0.6422 0.23319 0.76781 0.0
O236 O 0.63835 0.18881 0.68349 0.0
O237 O 0.61211 0.21847 0.70657 0.0
O238 O 0.47362 0.48079 0.6822 0.0
Cd239 Cd 0.51009 0.50021 0.68999 0.0
Cd240 Cd 0.48887 0.43406 0.6623 0.0
O241 O 0.4562 0.4582 0.64827 0.0
O242 O 0.50995 0.54105 0.6945 0.0
O243 O 0.51271 0.51147 0.7297 0.0
C244 C 0.51026 0.53668 0.72095 0.0
C245 C 0.48642 0.39211 0.68511 0.0
C246 C 0.45963 0.48142 0.65993 0.0
C247 C 0.5475 0.46318 0.65354 0.0
O248 O 0.52851 0.44525 0.64889 0.0
O249 O 0.54408 0.48389 0.66977 0.0
O250 O 0.48361 0.3935 0.65844 0.0
O251 O 0.48838 0.41503 0.69895 0.0
O252 O 0.02302 0.37935 0.06018 0.0
Cd253 Cd 0.01696 0.35115 0.02837 0.0
Cd254 Cd 0.97723 0.33809 0.06077 0.0
O255 O 0.0017 0.35466 0.09213 0.0
O256 O 0.05323 0.34211 0.01069 0.0
O257 O 0.02989 0.3129 0.03736 0.0
C258 C 0.05198 0.31856 0.02334 0.0
C259 C 0.94984 0.29934 0.05564 0.0
C260 C 0.0171 0.37509 0.08556 0.0
C261 C 0.96295 0.36859 0.0102 0.0
O262 O 0.95843 0.36647 0.036 0.0
O263 O 0.9857 0.36012 1.00006 0.0
O264 O 0.94394 0.31786 0.07411 0.0
O265 O 0.97411 0.30026 0.04431 0.0
O266 O 0.47284 0.62486 0.55911 0.0
Cd267 Cd 0.4795 0.65378 0.5284 0.0
Cd268 Cd 0.52134 0.66469 0.56107 0.0
O269 O 0.49851 0.6445 0.59159 0.0
O270 O 0.44344 0.66626 0.51207 0.0
O271 O 0.46994 0.69254 0.53888 0.0
C272 C 0.44719 0.68934 0.52518 0.0
C273 C 0.54654 0.70539 0.55921 0.0
C274 C 0.48118 0.62595 0.58417 0.0
C275 C 0.53273 0.63574 0.50751 0.0
O276 O 0.53953 0.63924 0.53269 0.0
O277 O 0.50894 0.64311 0.49895 0.0
O278 O 0.55436 0.68537 0.57517 0.0
O279 O 0.52203 0.704 0.54854 0.0
O280 O 0.6716 0.49168 0.54075 0.0
Cd281 Cd 0.69918 0.51414 0.51725 0.0
Cd282 Cd 0.67295 0.48347 0.4806 0.0
O283 O 0.66145 0.45744 0.51239 0.0
O284 O 0.71885 0.53444 0.54748 0.0
O285 O 0.73944 0.50305 0.52151 0.0
C286 C 0.74032 0.51947 0.54266 0.0
C287 C 0.69911 0.47629 0.44153 0.0
C288 C 0.66012 0.46841 0.53634 0.0
C289 C 0.65876 0.54277 0.48173 0.0
O290 O 0.64937 0.51861 0.4772 0.0
O291 O 0.68198 0.54577 0.49394 0.0
O292 O 0.67437 0.46617 0.44334 0.0
O293 O 0.71008 0.48739 0.46343 0.0
O294 O 0.76458 0.41709 0.71106 0.0
Cd295 Cd 0.80379 0.43539 0.71199 0.0
Cd296 Cd 0.75953 0.44921 0.77345 0.0
O297 O 0.73481 0.42923 0.74476 0.0
O298 O 0.81947 0.43212 0.67399 0.0
O299 O 0.8055 0.4718 0.69254 0.0
C300 C 0.81403 0.45817 0.67103 0.0
C301 C 0.74486 0.46782 0.81499 0.0
C302 C 0.74059 0.4164 0.72225 0.0
C303 C 0.81807 0.43108 0.76623 0.0
O304 O 0.80024 0.45011 0.76324 0.0
O305 O 0.83008 0.42355 0.74414 0.0
O306 O 0.74942 0.44155 0.81252 0.0
O307 O 0.74701 0.48328 0.79318 0.0
O308 O 0.84031 0.4781 0.9869 0.0
Cd309 Cd 0.81847 0.51379 0.99433 0.0
Cd310 Cd 0.79357 0.4817 0.02903 0.0
O311 O 0.80884 0.45009 0.00437 0.0
O312 O 0.8151 0.5346 0.95884 0.0
O313 O 0.78027 0.51245 0.97911 0.0
C314 C 0.78986 0.52561 0.95787 0.0
C315 C 0.75016 0.48606 0.04944 0.0
C316 C 0.83126 0.4537 0.99091 0.0
C317 C 0.83411 0.52363 0.05125 0.0
O318 O 0.82247 0.50022 0.05415 0.0
O319 O 0.83212 0.53643 0.02828 0.0
O320 O 0.76685 0.4665 0.05667 0.0
O321 O 0.7568 0.50088 0.0282 0.0
O322 O 0.68251 0.58838 0.24632 0.0
Cd323 Cd 0.72021 0.57976 0.26268 0.0
Cd324 Cd 0.69396 0.61009 0.19978 0.0
O325 O 0.6632 0.62321 0.22687 0.0
O326 O 0.72314 0.58164 0.30369 0.0
O327 O 0.72664 0.54243 0.27979 0.0
C328 C 0.72697 0.5552 0.30342 0.0
C329 C 0.68742 0.58231 0.16116 0.0
C330 C 0.66847 0.61043 0.2491 0.0
C331 C 0.75447 0.61826 0.22409 0.0
O332 O 0.73432 0.62417 0.20784 0.0
O333 O 0.75235 0.60081 0.24392 0.0
O334 O 0.68488 0.60894 0.15954 0.0
O335 O 0.69224 0.57151 0.18525 0.0
H336 H 0.23936 0.2492 0.1412 0.0
H337 H 0.21615 0.33415 0.12861 0.0
H338 H 0.1767 0.32831 0.16034 0.0
H339 H 0.14816 0.29805 0.19057 0.0
H340 H 0.16931 0.21157 0.1979 0.0
H341 H 0.20978 0.21856 0.16851 0.0
C342 C 0.22546 0.26627 0.14521 0.0
C343 C 0.23012 0.29183 0.13236 0.0
C344 C 0.20234 0.26231 0.16222 0.0
C345 C 0.2126 0.3142 0.13819 0.0
C346 C 0.19006 0.31079 0.15617 0.0
C347 C 0.16158 0.28077 0.18552 0.0
C348 C 0.15577 0.25433 0.19631 0.0
C349 C 0.18454 0.2848 0.16804 0.0
C350 C 0.17318 0.23203 0.18958 0.0
C351 C 0.19645 0.23605 0.173 0.0
H352 H 0.98056 0.83289 0.36594 0.0
H353 H 0.99032 0.853 0.45254 0.0
H354 H 0.97685 0.9007 0.44359 0.0
H355 H 0.97181 0.93816 0.40983 0.0
H356 H 0.96256 0.91905 0.32308 0.0
H357 H 0.96497 0.8695 0.33332 0.0
C358 C 0.97893 0.84764 0.38286 0.0
C359 C 0.9864 0.83956 0.40985 0.0
C360 C 0.97122 0.87521 0.37748 0.0
C361 C 0.98431 0.85867 0.4317 0.0
C362 C 0.97678 0.88603 0.42655 0.0
C363 C 0.96887 0.92304 0.3934 0.0
C364 C 0.9672 0.93209 0.3658 0.0
C365 C 0.97132 0.89476 0.39938 0.0
C366 C 0.96364 0.9125 0.34453 0.0
C367 C 0.96564 0.88417 0.35033 0.0
H368 H 0.31515 0.7234 0.61225 0.0
H369 H 0.25068 0.69966 0.66928 0.0
H370 H 0.28411 0.69845 0.70718 0.0
H371 H 0.3305 0.70872 0.72512 0.0
H372 H 0.39357 0.7393 0.66987 0.0
H373 H 0.36178 0.73437 0.63039 0.0
C374 C 0.30836 0.71867 0.63311 0.0
C375 C 0.28029 0.71285 0.6381 0.0
C376 C 0.32739 0.71958 0.65515 0.0
C377 C 0.27206 0.70478 0.66488 0.0
C378 C 0.29114 0.70422 0.68664 0.0
C379 C 0.3373 0.7141 0.70437 0.0
C380 C 0.36424 0.72423 0.70023 0.0
C381 C 0.31864 0.71233 0.68215 0.0
C382 C 0.37281 0.73156 0.67342 0.0
C383 C 0.35469 0.72871 0.65092 0.0
H384 H 0.55455 0.13329 0.93911 0.0
H385 H 0.50022 0.18355 0.88892 0.0
H386 H 0.49668 0.14622 0.85484 0.0
H387 H 0.5049 0.09764 0.8422 0.0
H388 H 0.55878 0.04734 0.89229 0.0
H389 H 0.56602 0.08617 0.92408 0.0
C390 C 0.5423 0.13636 0.9205 0.0
C391 C 0.52755 0.16125 0.91676 0.0
C392 C 0.53988 0.1146 0.90126 0.0
C393 C 0.51181 0.16469 0.89243 0.0
C394 C 0.50961 0.14325 0.87299 0.0
C395 C 0.51901 0.09544 0.85935 0.0
C396 C 0.53165 0.06974 0.86445 0.0
C397 C 0.52301 0.11788 0.87754 0.0
C398 C 0.5488 0.06692 0.88784 0.0
C399 C 0.553 0.08913 0.90599 0.0
H400 H 0.21814 0.15516 0.29842 0.0
H401 H 0.16222 0.09522 0.2628 0.0
H402 H 0.12301 0.12634 0.27149 0.0
H403 H 0.10527 0.17193 0.28719 0.0
H404 H 0.16302 0.2339 0.31544 0.0
H405 H 0.20058 0.20036 0.31329 0.0
C406 C 0.1973 0.14877 0.2929 0.0
C407 C 0.19298 0.1229 0.28018 0.0
C408 C 0.1752 0.16721 0.29676 0.0
C409 C 0.16599 0.11505 0.27264 0.0
C410 C 0.14362 0.13283 0.2776 0.0
C411 C 0.12622 0.17823 0.29197 0.0
C412 C 0.13143 0.20572 0.3001 0.0
C413 C 0.14809 0.15922 0.28911 0.0
C414 C 0.15836 0.21306 0.30854 0.0
C415 C 0.17995 0.19391 0.3072 0.0
H416 H 0.0796 0.80882 0.49051 0.0
H417 H 0.02162 0.87453 0.5072 0.0
H418 H 0.05967 0.90748 0.51169 0.0
H419 H 0.10885 0.91842 0.50734 0.0
H420 H 0.16715 0.85407 0.48648 0.0
H421 H 0.12961 0.81985 0.48697 0.0
C422 C 0.07537 0.83046 0.49451 0.0
C423 C 0.04781 0.83934 0.49765 0.0
C424 C 0.09738 0.84952 0.4963 0.0
C425 C 0.04261 0.86715 0.50445 0.0
C426 C 0.06436 0.88605 0.50692 0.0
C427 C 0.11347 0.89684 0.50313 0.0
C428 C 0.14078 0.8888 0.4969 0.0
C429 C 0.09175 0.87756 0.50239 0.0
C430 C 0.1463 0.86081 0.49121 0.0
C431 C 0.12483 0.84127 0.49137 0.0
H432 H 0.30573 0.8277 0.76293 0.0
H433 H 0.34467 0.88317 0.8211 0.0
H434 H 0.37657 0.84626 0.83554 0.0
H435 H 0.39385 0.79798 0.83065 0.0
H436 H 0.35127 0.74196 0.77551 0.0
H437 H 0.32024 0.77903 0.76085 0.0
C438 C 0.3214 0.83166 0.7786 0.0
C439 C 0.3234 0.85807 0.79058 0.0
C440 C 0.33882 0.81015 0.78743 0.0
C441 C 0.34314 0.86297 0.81141 0.0
C442 C 0.36123 0.84187 0.81971 0.0
C443 C 0.37745 0.79394 0.81579 0.0
C444 C 0.37489 0.76743 0.80398 0.0
C445 C 0.35927 0.81533 0.80786 0.0
C446 C 0.35366 0.76227 0.78473 0.0
C447 C 0.33599 0.78347 0.77628 0.0
H448 H 0.41104 0.08106 0.05287 0.0
H449 H 0.34752 0.13643 0.02293 0.0
H450 H 0.37998 0.17509 0.0254 0.0
H451 H 0.42826 0.19042 0.02584 0.0
H452 H 0.4928 0.13427 0.05116 0.0
H453 H 0.45798 0.09879 0.06152 0.0
C454 C 0.40401 0.10169 0.04754 0.0
C455 C 0.37702 0.10566 0.03696 0.0
C456 C 0.42313 0.12362 0.04791 0.0
C457 C 0.36823 0.13265 0.03067 0.0
C458 C 0.38685 0.15477 0.03195 0.0
C459 C 0.43462 0.17067 0.03446 0.0
C460 C 0.46301 0.16467 0.03725 0.0
C461 C 0.41467 0.15011 0.03899 0.0
C462 C 0.47107 0.1393 0.04881 0.0
C463 C 0.45116 0.11893 0.05436 0.0
H464 H 0.1057 0.0254 0.3546 0.0
H465 H 0.04002 0.02908 0.41497 0.0
H466 H 0.07395 0.02998 0.45255 0.0
H467 H 0.1213 0.01767 0.46769 0.0
H468 H 0.18623 0.01172 0.40682 0.0
H469 H 0.15397 0.02476 0.37016 0.0
C470 C 0.09888 0.02732 0.37595 0.0
C471 C 0.07048 0.02642 0.38206 0.0
C472 C 0.11848 0.02723 0.39745 0.0
C473 C 0.06182 0.02945 0.40974 0.0
C474 C 0.08123 0.02975 0.4313 0.0
C475 C 0.12857 0.02069 0.44663 0.0
C476 C 0.1559 0.01359 0.43978 0.0
C477 C 0.10954 0.02695 0.42542 0.0
C478 C 0.16518 0.01712 0.41241 0.0
C479 C 0.14667 0.02421 0.3914 0.0
H480 H 0.21096 0.79785 0.68024 0.0
H481 H 0.23519 0.85811 0.61906 0.0
H482 H 0.22822 0.89549 0.65283 0.0
H483 H 0.2213 0.91017 0.70134 0.0
H484 H 0.20417 0.84874 0.7638 0.0
H485 H 0.20159 0.81285 0.72815 0.0
C486 C 0.21428 0.81925 0.67428 0.0
C487 C 0.22343 0.82539 0.64732 0.0
C488 C 0.2119 0.84034 0.69422 0.0
C489 C 0.22815 0.85303 0.63977 0.0
C490 C 0.2243 0.87432 0.65909 0.0
C491 C 0.21711 0.88887 0.70708 0.0
C492 C 0.21396 0.88198 0.73521 0.0
C493 C 0.21718 0.86811 0.68663 0.0
C494 C 0.20719 0.85458 0.74234 0.0
C495 C 0.20588 0.83399 0.72196 0.0
H496 H 0.41379 0.05285 0.94755 0.0
H497 H 0.37966 0.97214 0.93095 0.0
H498 H 0.40292 0.97145 0.88548 0.0
H499 H 0.42696 0.99763 0.8478 0.0
H500 H 0.45634 0.08036 0.86476 0.0
H501 H 0.44062 0.07677 0.91255 0.0
C502 C 0.41209 0.03475 0.93426 0.0
C503 C 0.39515 0.01259 0.94243 0.0
C504 C 0.42399 0.03535 0.90788 0.0
C505 C 0.39295 0.98926 0.92518 0.0
C506 C 0.40583 0.98914 0.89903 0.0
C507 C 0.43007 0.01466 0.86216 0.0
C508 C 0.44231 0.0394 0.85274 0.0
C509 C 0.42038 0.01265 0.88968 0.0
C510 C 0.44639 0.06137 0.87139 0.0
C511 C 0.43763 0.05926 0.89877 0.0
H512 H 0.28698 0.0997 0.19073 0.0
H513 H 0.31897 0.15768 0.25074 0.0
H514 H 0.31685 0.19464 0.21643 0.0
H515 H 0.30266 0.21142 0.17061 0.0
H516 H 0.26504 0.15509 0.11218 0.0
H517 H 0.27172 0.11667 0.14476 0.0
C518 C 0.29277 0.12051 0.19646 0.0
C519 C 0.30216 0.12594 0.22358 0.0
C520 C 0.29041 0.142 0.17689 0.0
C521 C 0.31123 0.15285 0.23019 0.0
C522 C 0.30999 0.17407 0.21057 0.0
C523 C 0.29627 0.19065 0.16483 0.0
C524 C 0.28365 0.18602 0.1389 0.0
C525 C 0.29917 0.169 0.18403 0.0
C526 C 0.2749 0.15913 0.13197 0.0
C527 C 0.27869 0.1372 0.1506 0.0
H528 H 0.80098 0.44225 0.81917 0.0
H529 H 0.8356 0.37745 0.76835 0.0
H530 H 0.83096 0.34473 0.80641 0.0
H531 H 0.81309 0.33313 0.85224 0.0
H532 H 0.77324 0.39579 0.90196 0.0
H533 H 0.78324 0.43051 0.86619 0.0
C534 C 0.80688 0.42081 0.81632 0.0
C535 C 0.81758 0.41215 0.79055 0.0
C536 C 0.80305 0.40165 0.83807 0.0
C537 C 0.82686 0.3847 0.78772 0.0
C538 C 0.82412 0.36587 0.80949 0.0
C539 C 0.80683 0.35444 0.85551 0.0
C540 C 0.79249 0.36181 0.87986 0.0
C541 C 0.81164 0.37394 0.83448 0.0
C542 C 0.78428 0.38951 0.88344 0.0
C543 C 0.78992 0.40935 0.86294 0.0
H544 H 0.93422 0.55786 0.12713 0.0
H545 H 0.89541 0.49714 0.18005 0.0
H546 H 0.85564 0.49504 0.14895 0.0
H547 H 0.83501 0.50554 0.10413 0.0
H548 H 0.87469 0.56363 0.04905 0.0
H549 H 0.91067 0.57222 0.08393 0.0
C550 C 0.91678 0.54462 0.13215 0.0
C551 C 0.91792 0.52743 0.15573 0.0
C552 C 0.89425 0.5429 0.11369 0.0
C553 C 0.89521 0.51032 0.16189 0.0
C554 C 0.87246 0.5091 0.14411 0.0
C555 C 0.85129 0.52042 0.09983 0.0
C556 C 0.85242 0.53358 0.07383 0.0
C557 C 0.87225 0.52452 0.11951 0.0
C558 C 0.87339 0.55314 0.06884 0.0
C559 C 0.89408 0.55788 0.08871 0.0
H560 H 0.65411 0.68823 0.35351 0.0
H561 H 0.74302 0.67849 0.35512 0.0
H562 H 0.74069 0.64788 0.31508 0.0
H563 H 0.71398 0.62692 0.27733 0.0
H564 H 0.62517 0.63311 0.27678 0.0
H565 H 0.62684 0.66305 0.31799 0.0
C566 C 0.67292 0.67916 0.3453 0.0
C567 C 0.69869 0.68583 0.35735 0.0
C568 C 0.67149 0.66126 0.32223 0.0
C569 C 0.72286 0.67374 0.34644 0.0
C570 C 0.72162 0.65632 0.32338 0.0
C571 C 0.69496 0.63369 0.287 0.0
C572 C 0.66945 0.62684 0.2749 0.0
C573 C 0.69612 0.65023 0.31092 0.0
C574 C 0.64501 0.63768 0.28626 0.0
C575 C 0.64599 0.65476 0.30975 0.0
H576 H 0.76226 0.66961 0.20166 0.0
H577 H 0.80533 0.60279 0.24252 0.0
H578 H 0.84597 0.63208 0.24843 0.0
H579 H 0.86615 0.6783 0.24896 0.0
H580 H 0.82288 0.74637 0.21084 0.0
H581 H 0.78576 0.71485 0.19618 0.0
C582 C 0.78079 0.66127 0.21122 0.0
C583 C 0.78059 0.63419 0.22207 0.0
C584 C 0.80395 0.67854 0.21526 0.0
C585 C 0.80477 0.62368 0.23439 0.0
C586 C 0.82804 0.64042 0.23781 0.0
C587 C 0.84886 0.68615 0.23691 0.0
C588 C 0.84696 0.71463 0.23137 0.0
C589 C 0.82738 0.66816 0.22941 0.0
C590 C 0.82475 0.7245 0.21538 0.0
C591 C 0.80341 0.70652 0.20726 0.0
H592 H 0.64288 0.33436 0.70337 0.0
H593 H 0.7083 0.28692 0.66539 0.0
H594 H 0.73853 0.32765 0.66634 0.0
H595 H 0.74909 0.37293 0.68736 0.0
H596 H 0.68467 0.41785 0.73013 0.0
H597 H 0.65128 0.38191 0.71794 0.0
C598 C 0.66354 0.33311 0.69463 0.0
C599 C 0.67362 0.30755 0.68494 0.0
C600 C 0.68117 0.356 0.69677 0.0
C601 C 0.70014 0.30633 0.67312 0.0
C602 C 0.71753 0.32953 0.67402 0.0
C603 C 0.7276 0.37519 0.69347 0.0
C604 C 0.71948 0.39775 0.71015 0.0
C605 C 0.70875 0.35392 0.68729 0.0
C606 C 0.69155 0.40044 0.71775 0.0
C607 C 0.67244 0.37991 0.71076 0.0
H608 H 0.4631 0.57515 0.56972 0.0
H609 H 0.48258 0.62514 0.64138 0.0
H610 H 0.47373 0.58532 0.67174 0.0
H611 H 0.46283 0.53519 0.67726 0.0
H612 H 0.45019 0.48517 0.60421 0.0
H613 H 0.45243 0.52624 0.57517 0.0
C614 C 0.46509 0.57755 0.59201 0.0
C615 C 0.47342 0.60315 0.60326 0.0
C616 C 0.46112 0.55442 0.60908 0.0
C617 C 0.47622 0.60567 0.63219 0.0
C618 C 0.47119 0.58289 0.64952 0.0
C619 C 0.46148 0.5333 0.65494 0.0
C620 C 0.45774 0.50697 0.64294 0.0
C621 C 0.46424 0.55697 0.63811 0.0
C622 C 0.45366 0.50503 0.6141 0.0
C623 C 0.45506 0.52853 0.59739 0.0
H624 H 0.75923 0.23075 0.85063 0.0
H625 H 0.68862 0.24232 0.90398 0.0
H626 H 0.65774 0.22571 0.86753 0.0
H627 H 0.65022 0.21815 0.81802 0.0
H628 H 0.72031 0.20933 0.76334 0.0
H629 H 0.75189 0.21388 0.80267 0.0
C630 C 0.73722 0.22851 0.85453 0.0
C631 C 0.72607 0.23795 0.87971 0.0
C632 C 0.7194 0.22001 0.83299 0.0
C633 C 0.69753 0.23529 0.88458 0.0
C634 C 0.67985 0.226 0.8637 0.0
C635 C 0.67239 0.21648 0.81479 0.0
C636 C 0.68288 0.21415 0.78773 0.0
C637 C 0.69042 0.2199 0.83736 0.0
C638 C 0.71164 0.21144 0.78394 0.0
C639 C 0.72977 0.21425 0.80643 0.0
H640 H 0.03751 0.45429 0.18822 0.0
H641 H 0.03696 0.51466 0.12241 0.0
H642 H 0.03575 0.47777 0.08792 0.0
H643 H 0.02879 0.42896 0.07647 0.0
H644 H 0.02328 0.36837 0.14188 0.0
H645 H 0.03273 0.40453 0.17644 0.0
C646 C 0.0369 0.45927 0.1663 0.0
C647 C 0.03625 0.48717 0.15799 0.0
C648 C 0.03481 0.43788 0.14651 0.0
C649 C 0.03694 0.4934 0.12951 0.0
C650 C 0.03609 0.47228 0.10971 0.0
C651 C 0.02994 0.42354 0.09827 0.0
C652 C 0.02528 0.39601 0.10659 0.0
C653 C 0.03403 0.44454 0.118 0.0
C654 C 0.02662 0.38943 0.13495 0.0
C655 C 0.03194 0.41011 0.1547 0.0
H656 H 0.7782 0.78982 0.4217 0.0
H657 H 0.72533 0.8123 0.35315 0.0
H658 H 0.76557 0.81681 0.32311 0.0
H659 H 0.81431 0.80728 0.3143 0.0
H660 H 0.86686 0.77829 0.38062 0.0
H661 H 0.82841 0.78309 0.41336 0.0
C662 C 0.77554 0.79552 0.40012 0.0
C663 C 0.74866 0.79948 0.38945 0.0
C664 C 0.79873 0.79657 0.38246 0.0
C665 C 0.74564 0.80841 0.36185 0.0
C666 C 0.76868 0.81089 0.34457 0.0
C667 C 0.8176 0.80244 0.33602 0.0
C668 C 0.84346 0.79229 0.34493 0.0
C669 C 0.79512 0.80388 0.35434 0.0
C670 C 0.84717 0.78601 0.37315 0.0
C671 C 0.82512 0.78865 0.39186 0.0
H672 H 0.55798 0.43223 0.60731 0.0
H673 H 0.59616 0.48981 0.66441 0.0
H674 H 0.63699 0.49232 0.63489 0.0
H675 H 0.6588 0.48341 0.59027 0.0
H676 H 0.61972 0.42856 0.53126 0.0
H677 H 0.58267 0.41906 0.56455 0.0
C678 C 0.57543 0.44494 0.61357 0.0
C679 C 0.57378 0.46118 0.63785 0.0
C680 C 0.59864 0.44685 0.59611 0.0
C681 C 0.59666 0.47744 0.64565 0.0
C682 C 0.62005 0.47888 0.62879 0.0
C683 C 0.64245 0.46897 0.5848 0.0
C684 C 0.64177 0.45709 0.55813 0.0
C685 C 0.6208 0.46447 0.60355 0.0
C686 C 0.62069 0.43808 0.55159 0.0
C687 C 0.59937 0.43285 0.57054 0.0
H688 H 0.90949 0.35457 0.01059 0.0
H689 H 0.9675 0.41079 0.97278 0.0
H690 H 0.92915 0.44026 0.95728 0.0
H691 H 0.88082 0.45462 0.96416 0.0
H692 H 0.82353 0.3993 0.00486 0.0
H693 H 0.85972 0.36435 0.00871 0.0
C694 C 0.91357 0.37284 0.99813 0.0
C695 C 0.94106 0.38093 0.9931 0.0
C696 C 0.89158 0.38994 0.99018 0.0
C697 C 0.94641 0.40431 0.9768 0.0
C698 C 0.9245 0.42125 0.96824 0.0
C699 C 0.87601 0.43465 0.97321 0.0
C700 C 0.84974 0.42995 0.98506 0.0
C701 C 0.8972 0.41503 0.97626 0.0
C702 C 0.84368 0.4037 0.99607 0.0
C703 C 0.86444 0.38375 0.99844 0.0
H704 H 0.60674 0.54329 0.45975 0.0
H705 H 0.66962 0.59688 0.49437 0.0
H706 H 0.63565 0.63375 0.49965 0.0
H707 H 0.58685 0.6466 0.50402 0.0
H708 H 0.52336 0.59259 0.47198 0.0
H709 H 0.55884 0.56021 0.45549 0.0
C710 C 0.6132 0.56326 0.4678 0.0
C711 C 0.64052 0.56702 0.47747 0.0
C712 C 0.59336 0.58416 0.47151 0.0
C713 C 0.64864 0.59321 0.48728 0.0
C714 C 0.62919 0.61431 0.49041 0.0
C715 C 0.5809 0.62815 0.49256 0.0
C716 C 0.55273 0.62161 0.48948 0.0
C717 C 0.60128 0.60941 0.48406 0.0
C718 C 0.54501 0.59794 0.47448 0.0
C719 C 0.56528 0.57932 0.46539 0.0
H720 H 0.98025 0.08428 0.27821 0.0
H721 H 0.04784 0.02916 0.25869 0.0
H722 H 0.07121 0.06601 0.23358 0.0
H723 H 0.0766 0.1158 0.22527 0.0
H724 H 0.00922 0.17117 0.24411 0.0
H725 H 0.98143 0.13228 0.26071 0.0
C726 C 0.9997 0.08012 0.26779 0.0
C727 C 0.01257 0.05418 0.27097 0.0
C728 C 0.01328 0.10156 0.25349 0.0
C729 C 0.03759 0.04902 0.25696 0.0
C730 C 0.05111 0.07015 0.24266 0.0
C731 C 0.05551 0.1192 0.23219 0.0
C732 C 0.04515 0.14631 0.23392 0.0
C733 C 0.0398 0.09682 0.24202 0.0
C734 C 0.01769 0.15047 0.24263 0.0
C735 C 0.00188 0.12825 0.2524 0.0
H736 H 0.15522 0.7139 0.53587 0.0
H737 H 0.20996 0.78207 0.51779 0.0
H738 H 0.1838 0.79231 0.4756 0.0
H739 H 0.14086 0.78661 0.4487 0.0
H740 H 0.08611 0.71846 0.46716 0.0
H741 H 0.1175 0.70263 0.50337 0.0
C742 C 0.16172 0.73061 0.52234 0.0
C743 C 0.18405 0.74756 0.53011 0.0
C744 C 0.14666 0.7363 0.49809 0.0
C745 C 0.19268 0.76884 0.51225 0.0
C746 C 0.1777 0.77475 0.48817 0.0
C747 C 0.13623 0.76782 0.46009 0.0
C748 C 0.11082 0.75425 0.45581 0.0
C749 C 0.154 0.75928 0.48151 0.0
C750 C 0.10539 0.72954 0.47022 0.0
C751 C 0.12317 0.72064 0.49124 0.0
H752 H 0.5063 0.91886 0.79041 0.0
H753 H 0.44276 0.92495 0.85311 0.0
H754 H 0.42175 0.88222 0.83631 0.0
H755 H 0.42036 0.84416 0.80299 0.0
H756 H 0.48472 0.83594 0.74168 0.0
H757 H 0.50639 0.8788 0.75853 0.0
C758 C 0.48807 0.91064 0.80062 0.0
C759 C 0.47611 0.92514 0.82295 0.0
C760 C 0.47601 0.88601 0.79081 0.0
C761 C 0.4525 0.91418 0.83599 0.0
C762 C 0.44031 0.88985 0.82626 0.0
C763 C 0.43894 0.85194 0.79308 0.0
C764 C 0.45064 0.83737 0.77076 0.0
C765 C 0.45162 0.8759 0.80343 0.0
C766 C 0.4752 0.84711 0.75868 0.0
C767 C 0.48762 0.87147 0.7684 0.0
H768 H 0.38595 0.29742 0.0724 0.0
H769 H 0.32592 0.26398 0.01497 0.0
H770 H 0.3613 0.26096 0.97908 0.0
H771 H 0.4104 0.26083 0.96656 0.0
H772 H 0.47092 0.29276 0.0243 0.0
H773 H 0.43412 0.30444 0.05692 0.0
C774 C 0.38052 0.28988 0.0519 0.0
C775 C 0.35343 0.28041 0.0466 0.0
C776 C 0.40107 0.28802 0.0313 0.0
C777 C 0.34665 0.27113 0.01977 0.0
C778 C 0.3669 0.26938 0.99918 0.0
C779 C 0.41554 0.27115 0.9859 0.0
C780 C 0.44349 0.27537 0.99313 0.0
C781 C 0.39437 0.27683 0.00503 0.0
C782 C 0.44964 0.28908 0.01818 0.0
C783 C 0.42859 0.29544 0.03706 0.0
H784 H 0.23136 0.04937 0.1366 0.0
H785 H 0.28217 1.0002 0.19104 0.0
H786 H 0.30634 0.98046 0.15113 0.0
H787 H 0.31875 0.9844 0.10148 0.0
H788 H 0.26619 0.03237 0.04728 0.0
H789 H 0.23675 0.04472 0.08616 0.0
C790 C 0.24707 0.03361 0.13962 0.0
C791 C 0.25523 0.02651 0.16663 0.0
C792 C 0.26092 0.02242 0.1166 0.0
C793 C 0.27547 0.00596 0.17038 0.0
C794 C 0.28953 0.99487 0.14756 0.0
C795 C 0.30039 0.99685 0.09804 0.0
C796 C 0.29523 0.00804 0.0716 0.0
C797 C 0.28334 0.004 0.12064 0.0
C798 C 0.27106 0.02381 0.06746 0.0
C799 C 0.25417 0.03105 0.08975 0.0
H800 H 0.24866 0.94101 0.38188 0.0
H801 H 0.28209 0.98735 0.45086 0.0
H802 H 0.30071 0.02178 0.41897 0.0
H803 H 0.29967 0.04304 0.37253 0.0
H804 H 0.26529 0.99705 0.30378 0.0
H805 H 0.25507 0.9583 0.33448 0.0
C806 C 0.26078 0.95815 0.38994 0.0
C807 C 0.26344 0.9618 0.41882 0.0
C808 C 0.27073 0.97839 0.37151 0.0
C809 C 0.27947 0.98404 0.42878 0.0
C810 C 0.2899 0.00398 0.41054 0.0
C811 C 0.29046 0.02432 0.36415 0.0
C812 C 0.28277 0.02323 0.33597 0.0
C813 C 0.28437 0.00211 0.38201 0.0
C814 C 0.27121 0.99863 0.32541 0.0
C815 C 0.26527 0.97642 0.34299 0.0
H816 H 0.28463 0.90472 0.63908 0.0
H817 H 0.2679 0.98278 0.67914 0.0
H818 H 0.24915 0.00123 0.63588 0.0
H819 H 0.23155 0.99279 0.58844 0.0
H820 H 0.25071 0.91568 0.54765 0.0
H821 H 0.27449 0.89926 0.58925 0.0
C822 C 0.2776 0.92602 0.63808 0.0
C823 C 0.27743 0.94228 0.66229 0.0
C824 C 0.26684 0.93651 0.61311 0.0
C825 C 0.26836 0.96987 0.66075 0.0
C826 C 0.25735 0.98036 0.63608 0.0
C827 C 0.24147 0.97266 0.58854 0.0
C828 C 0.23917 0.95536 0.56518 0.0
C829 C 0.25555 0.96352 0.6124 0.0
C830 C 0.25229 0.9294 0.56539 0.0
C831 C 0.26577 0.91993 0.58922 0.0
H832 H 0.23131 0.95647 0.88431 0.0
H833 H 0.27453 0.00121 0.82016 0.0
H834 H 0.28592 0.03794 0.85315 0.0
H835 H 0.29 0.05333 0.90171 0.0
H836 H 0.24834 0.00737 0.96599 0.0
H837 H 0.22926 0.97571 0.9314 0.0
C838 C 0.24282 0.97448 0.87741 0.0
C839 C 0.25249 0.97581 0.84993 0.0
C840 C 0.24959 0.99538 0.89658 0.0
C841 C 0.26703 0.9995 0.84125 0.0
C842 C 0.27362 0.02052 0.86014 0.0
C843 C 0.27592 0.03701 0.90803 0.0
C844 C 0.2708 0.03256 0.93642 0.0
C845 C 0.26587 0.01819 0.88809 0.0
C846 C 0.2527 0.01115 0.94428 0.0
C847 C 0.242 0.99286 0.92453 0.0
H848 H 0.06382 0.28018 0.06251 0.0
H849 H 0.09567 0.31669 0.98744 0.0
H850 H 0.13962 0.29241 0.99394 0.0
H851 H 0.17093 0.26583 0.02423 0.0
H852 H 0.14033 0.23375 0.10179 0.0
H853 H 0.09396 0.25085 0.09096 0.0
C854 C 0.08015 0.28232 0.04723 0.0
C855 C 0.07651 0.30023 0.02454 0.0
C856 C 0.10574 0.26923 0.05174 0.0
C857 C 0.098 0.30308 0.00512 0.0
C858 C 0.12317 0.28926 0.00888 0.0
C859 C 0.15392 0.26197 0.03838 0.0
C860 C 0.15898 0.24847 0.06371 0.0
C861 C 0.12758 0.27299 0.03258 0.0
C862 C 0.1369 0.24406 0.08214 0.0
C863 C 0.11042 0.25394 0.07601 0.0
H864 H 0.65646 0.32259 0.96601 0.0
H865 H 0.71169 0.267 0.00888 0.0
H866 H 0.67214 0.24088 0.02647 0.0
H867 H 0.62237 0.22949 0.02339 0.0
H868 H 0.56742 0.28498 0.97992 0.0
H869 H 0.60623 0.31539 0.96911 0.0
C870 C 0.65987 0.30522 0.97982 0.0
C871 C 0.68711 0.29662 0.98576 0.0
C872 C 0.63701 0.28987 0.98937 0.0
C873 C 0.69103 0.27414 0.00387 0.0
C874 C 0.66837 0.25897 0.01373 0.0
C875 C 0.61878 0.24851 0.01201 0.0
C876 C 0.592 0.25462 0.00211 0.0
C877 C 0.64133 0.26592 0.00562 0.0
C878 C 0.58777 0.27954 0.98764 0.0
C879 C 0.61002 0.29697 0.98135 0.0
H880 H 0.02925 0.31721 0.2331 0.0
H881 H 0.07094 0.3568 0.30167 0.0
H882 H 0.04371 0.39882 0.29446 0.0
H883 H 0.01241 0.42606 0.26519 0.0
H884 H 0.97497 0.38841 0.1932 0.0
H885 H 0.99572 0.34382 0.20531 0.0
C886 C 0.0319 0.33487 0.24679 0.0
C887 C 0.052 0.33398 0.2679 0.0
C888 C 0.01701 0.35935 0.24176 0.0
C889 C 0.05563 0.35709 0.28523 0.0
C890 C 0.04009 0.38111 0.2811 0.0
C891 C 0.00817 0.40788 0.25263 0.0
C892 C 0.99204 0.41037 0.2285 0.0
C893 C 0.0213 0.38274 0.25896 0.0
C894 C 0.98719 0.38687 0.212 0.0
C895 C 0.99921 0.36144 0.21881 0.0
H896 H 0.91137 0.74275 0.46571 0.0
H897 H 0.88157 0.82214 0.49362 0.0
H898 H 0.83368 0.80628 0.48843 0.0
H899 H 0.80074 0.77203 0.4704 0.0
H900 H 0.83062 0.69564 0.43555 0.0
H901 H 0.87813 0.70763 0.44937 0.0
C902 C 0.89433 0.75629 0.47124 0.0
C903 C 0.89979 0.78345 0.48021 0.0
C904 C 0.86697 0.74748 0.46685 0.0
C905 C 0.8777 0.80113 0.48673 0.0
C906 C 0.8504 0.79208 0.48372 0.0
C907 C 0.81765 0.75771 0.4667 0.0
C908 C 0.8125 0.73279 0.45269 0.0
C909 C 0.84484 0.76559 0.4731 0.0
C910 C 0.83435 0.71467 0.44689 0.0
C911 C 0.86141 0.72168 0.45453 0.0
H912 H 0.33477 0.75382 0.53153 0.0
H913 H 0.37387 0.78587 0.60536 0.0
H914 H 0.41768 0.76449 0.59176 0.0
H915 H 0.44238 0.73067 0.56298 0.0
H916 H 0.40148 0.69433 0.49209 0.0
H917 H 0.36097 0.72354 0.50021 0.0
C918 C 0.35313 0.75691 0.54414 0.0
C919 C 0.35117 0.77147 0.56935 0.0
C920 C 0.37779 0.74328 0.53694 0.0
C921 C 0.37496 0.77485 0.58579 0.0
C922 C 0.39993 0.76241 0.57814 0.0
C923 C 0.42485 0.72957 0.54893 0.0
C924 C 0.42485 0.71021 0.52707 0.0
C925 C 0.40124 0.74563 0.55438 0.0
C926 C 0.40191 0.70892 0.50917 0.0
C927 C 0.37872 0.72559 0.51384 0.0
H928 H 0.98699 0.93097 0.26222 0.0
H929 H 0.04247 0.88038 0.31069 0.0
H930 H 0.01651 0.83903 0.2975 0.0
H931 H 0.97376 0.81855 0.27872 0.0
H932 H 0.9169 0.86982 0.23258 0.0
H933 H 0.94777 0.90945 0.23821 0.0
C934 C 0.99392 0.91083 0.26928 0.0
C935 C 0.0165 0.9089 0.28769 0.0
C936 C 0.97829 0.88724 0.26245 0.0
C937 C 0.02517 0.88256 0.29655 0.0
C938 C 0.01016 0.85887 0.28921 0.0
C939 C 0.96837 0.83824 0.26938 0.0
C940 C 0.94283 0.84126 0.25558 0.0
C941 C 0.98597 0.86115 0.2732 0.0
C942 C 0.93628 0.86692 0.24352 0.0
C943 C 0.95392 0.88965 0.24678 0.0
H944 H 0.54242 0.09417 0.72728 0.0
H945 H 0.49501 0.16029 0.76406 0.0
H946 H 0.52118 0.19439 0.73747 0.0
H947 H 0.56245 0.20551 0.71109 0.0
H948 H 0.61445 0.14015 0.67947 0.0
H949 H 0.58107 0.10559 0.69564 0.0
C950 C 0.53739 0.11601 0.72878 0.0
C951 C 0.51704 0.12488 0.74762 0.0
C952 C 0.55351 0.13558 0.71449 0.0
C953 C 0.51078 0.15315 0.74977 0.0
C954 C 0.52574 0.1726 0.73463 0.0
C955 C 0.56626 0.18374 0.70715 0.0
C956 C 0.59119 0.17537 0.69467 0.0
C957 C 0.54795 0.1641 0.71799 0.0
C958 C 0.59551 0.14712 0.68923 0.0
C959 C 0.57656 0.12734 0.69876 0.0
H960 H 0.53577 0.27614 0.71002 0.0
H961 H 0.5649 0.32012 0.78239 0.0
H962 H 0.53367 0.35841 0.77202 0.0
H963 H 0.50611 0.38312 0.73719 0.0
H964 H 0.48009 0.34046 0.66285 0.0
H965 H 0.50156 0.2979 0.67943 0.0
C966 C 0.53465 0.29369 0.72404 0.0
C967 C 0.55305 0.29551 0.74662 0.0
C968 C 0.51751 0.31618 0.71728 0.0
C969 C 0.55121 0.31834 0.76465 0.0
C970 C 0.53347 0.34037 0.75863 0.0
C971 C 0.5044 0.36431 0.72498 0.0
C972 C 0.49201 0.36514 0.69855 0.0
C973 C 0.51773 0.34015 0.73416 0.0
C974 C 0.48984 0.34052 0.68309 0.0
C975 C 0.50225 0.31616 0.69251 0.0
H976 H 0.87054 0.25325 0.96452 0.0
H977 H 0.8114 0.29918 0.01333 0.0
H978 H 0.84591 0.30567 0.04977 0.0
H979 H 0.89444 0.30412 0.06456 0.0
H980 H 0.95425 0.26003 0.01489 0.0
H981 H 0.91773 0.24619 0.98263 0.0
C982 C 0.86503 0.26426 0.98334 0.0
C983 C 0.83847 0.27603 0.98595 0.0
C984 C 0.88514 0.26821 0.00417 0.0
C985 C 0.83168 0.29003 0.01062 0.0
C986 C 0.85146 0.2938 0.0315 0.0
C987 C 0.89943 0.29073 0.04719 0.0
C988 C 0.92721 0.2834 0.04208 0.0
C989 C 0.87849 0.28375 0.0281 0.0
C990 C 0.93313 0.26607 0.01937 0.0
C991 C 0.91226 0.25839 1.0007 0.0
H992 H 0.95066 0.66723 0.31223 0.0
H993 H 0.9826 0.72851 0.25554 0.0
H994 H 0.00692 0.69252 0.2298 0.0
H995 H 0.012 0.64305 0.21856 0.0
H996 H 0.97962 0.58176 0.27492 0.0
H997 H 0.9629 0.61829 0.30563 0.0
C998 C 0.9636 0.67286 0.29474 0.0
C999 C 0.9643 0.70051 0.28555 0.0
C1000 C 0.97706 0.65193 0.27957 0.0
C1001 C 0.98144 0.7074 0.263 0.0
C1002 C 0.99519 0.68675 0.24806 0.0
C1003 C 0.0018 0.63768 0.23785 0.0
C1004 C 0.9966 0.60971 0.24413 0.0
C1005 C 0.992 0.65883 0.25535 0.0
C1006 C 0.98373 0.60311 0.26943 0.0
C1007 C 0.97403 0.62402 0.28698 0.0
H1008 H 0.53926 0.74135 0.51656 0.0
H1009 H 0.60114 0.71111 0.57358 0.0
H1010 H 0.63774 0.72915 0.54373 0.0
H1011 H 0.652 0.74574 0.49759 0.0
H1012 H 0.58973 0.77343 0.43963 0.0
H1013 H 0.5536 0.76413 0.47363 0.0
C1014 C 0.5607 0.73944 0.52297 0.0
C1015 C 0.56738 0.72447 0.54712 0.0
C1016 C 0.58168 0.74878 0.5051 0.0
C1017 C 0.59534 0.72238 0.55506 0.0
C1018 C 0.61634 0.73242 0.5378 0.0
C1019 C 0.63058 0.75019 0.49255 0.0
C1020 C 0.6236 0.75979 0.46586 0.0
C1021 C 0.60975 0.74436 0.5121 0.0
C1022 C 0.59573 0.76571 0.45985 0.0
C1023 C 0.57499 0.7604 0.47931 0.0
H1024 H 0.73397 0.51733 0.42719 0.0
H1025 H 0.68998 0.44712 0.39365 0.0
H1026 H 0.69874 0.46365 0.34648 0.0
H1027 H 0.71178 0.50227 0.31553 0.0
H1028 H 0.75021 0.57502 0.35052 0.0
H1029 H 0.75084 0.55343 0.39624 0.0
C1030 C 0.72712 0.50513 0.40955 0.0
C1031 C 0.71136 0.48105 0.41388 0.0
C1032 C 0.73068 0.51567 0.38269 0.0
C1033 C 0.70221 0.46571 0.39081 0.0
C1034 C 0.70697 0.47532 0.36386 0.0
C1035 C 0.72079 0.51307 0.3331 0.0
C1036 C 0.73073 0.54023 0.3298 0.0
C1037 C 0.72004 0.50094 0.35962 0.0
C1038 C 0.74217 0.55419 0.35269 0.0
C1039 C 0.74257 0.54185 0.37881 0.0
H1040 H 0.77926 0.47904 0.54857 0.0
H1041 H 0.75041 0.55528 0.58518 0.0
H1042 H 0.77603 0.54524 0.62756 0.0
H1043 H 0.79829 0.51051 0.65718 0.0
H1044 H 0.82532 0.4332 0.62136 0.0
H1045 H 0.8094 0.44822 0.57579 0.0
C1046 C 0.77934 0.4939 0.56545 0.0
C1047 C 0.76249 0.5176 0.56388 0.0
C1048 C 0.79345 0.48757 0.59021 0.0
C1049 C 0.7629 0.53668 0.58596 0.0
C1050 C 0.77744 0.53088 0.61032 0.0
C1051 C 0.80146 0.49725 0.63928 0.0
C1052 C 0.81242 0.47051 0.64288 0.0
C1053 C 0.79152 0.50569 0.6132 0.0
C1054 C 0.81663 0.45376 0.61934 0.0
C1055 C 0.80736 0.46227 0.59322 0.0
H1056 H 0.75047 0.4892 0.94213 0.0
H1057 H 0.79644 0.5602 0.9135 0.0
H1058 H 0.78094 0.55133 0.86597 0.0
H1059 H 0.76203 0.51835 0.83199 0.0
H1060 H 0.72184 0.44394 0.86054 0.0
H1061 H 0.72699 0.45922 0.90862 0.0
C1062 C 0.75636 0.50327 0.92564 0.0
C1063 C 0.77466 0.52526 0.93126 0.0
C1064 C 0.74874 0.49707 0.89823 0.0
C1065 C 0.78241 0.5431 0.90964 0.0
C1066 C 0.77371 0.5379 0.88244 0.0
C1067 C 0.7536 0.50595 0.84872 0.0
C1068 C 0.74161 0.48006 0.84283 0.0
C1069 C 0.758 0.51419 0.87634 0.0
C1070 C 0.73116 0.46394 0.86465 0.0
C1071 C 0.73424 0.47261 0.89213 0.0
H1072 H 0.69415 0.52644 0.15756 0.0
H1073 H 0.68339 0.59959 0.10738 0.0
H1074 H 0.69624 0.57355 0.06599 0.0
H1075 H 0.7192 0.53291 0.04606 0.0
H1076 H 0.7324 0.46054 0.09677 0.0
H1077 H 0.70912 0.48306 0.13558 0.0
C1078 C 0.69397 0.53655 0.13748 0.0
C1079 C 0.68845 0.5651 0.1357 0.0
C1080 C 0.70203 0.5216 0.1138 0.0
C1081 C 0.68793 0.57774 0.10945 0.0
C1082 C 0.69537 0.56286 0.08573 0.0
C1083 C 0.71621 0.52168 0.06529 0.0
C1084 C 0.72812 0.49531 0.06867 0.0
C1085 C 0.70376 0.53517 0.0879 0.0
C1086 C 0.72377 0.481 0.09368 0.0
C1087 C 0.71065 0.49397 0.11601 0.0
H1088 H 0.44594 0.61773 0.79807 0.0
H1089 H 0.47994 0.67721 0.74079 0.0
H1090 H 0.50869 0.64129 0.71986 0.0
H1091 H 0.51824 0.59172 0.71314 0.0
H1092 H 0.48573 0.53245 0.77151 0.0
H1093 H 0.46288 0.56959 0.79712 0.0
C1094 C 0.46018 0.62291 0.78148 0.0
C1095 C 0.46054 0.6499 0.77068 0.0
C1096 C 0.47677 0.60217 0.76961 0.0
C1097 C 0.47929 0.65653 0.74943 0.0
C1098 C 0.4956 0.63596 0.73731 0.0
C1099 C 0.50678 0.58707 0.73191 0.0
C1100 C 0.50331 0.55941 0.7402 0.0
C1101 C 0.49366 0.60851 0.74652 0.0
C1102 C 0.48868 0.55361 0.7647 0.0
C1103 C 0.47539 0.57482 0.77923 0.0
loop_
_geom_bond_atom_site_label_1
_geom_bond_atom_site_label_2
_geom_bond_distance
_geom_bond_site_symmetry_2
_ccdc_geom_bond_type
O0 Cd1 2.223 . S
O0 C8 1.315 . S
Cd1 O0 2.223 . S
Cd1 O4 2.297 . S
Cd1 O5 2.439 . S
Cd1 O11 2.240 . S
Cd2 O3 2.240 . S
Cd2 O10 2.223 . S
Cd2 O12 2.297 . S
Cd2 O13 2.439 . S
O3 Cd2 2.240 . S
O3 C8 1.279 . S
O4 Cd1 2.297 . S
O4 C6 1.247 . S
O5 Cd1 2.439 . S
O5 C6 1.208 . S
C6 O4 1.247 . S
C6 O5 1.208 . S
C7 O12 1.247 . S
C7 O13 1.208 . S
C8 O0 1.315 . S
C8 O3 1.279 . S
C9 O10 1.315 . S
C9 O11 1.279 . S
O10 Cd2 2.223 . S
O10 C9 1.315 . S
O11 Cd1 2.240 . S
O11 C9 1.279 . S
O12 Cd2 2.297 . S
O12 C7 1.247 . S
O13 Cd2 2.439 . S
O13 C7 1.208 . S
O14 Cd15 2.223 . S
O14 C22 1.315 . S
Cd15 O14 2.223 . S
Cd15 O18 2.297 . S
Cd15 O19 2.439 . S
Cd15 O25 2.240 1_455 S
Cd16 O17 2.240 1_655 S
Cd16 O24 2.223 . S
Cd16 O26 2.297 . S
Cd16 O27 2.439 . S
O17 Cd16 2.240 1_455 S
O17 C22 1.279 . S
O18 Cd15 2.297 . S
O18 C20 1.247 . S
O19 Cd15 2.439 . S
O19 C20 1.208 . S
C20 O18 1.247 . S
C20 O19 1.208 . S
C21 O26 1.247 . S
C21 O27 1.208 . S
C22 O14 1.315 . S
C22 O17 1.279 . S
C23 O24 1.315 . S
C23 O25 1.279 . S
O24 Cd16 2.223 . S
O24 C23 1.315 . S
O25 Cd15 2.240 1_655 S
O25 C23 1.279 . S
O26 Cd16 2.297 . S
O26 C21 1.247 . S
O27 Cd16 2.439 . S
O27 C21 1.208 . S
O28 Cd29 2.223 . S
O28 C36 1.315 . S
Cd29 O28 2.223 . S
Cd29 O32 2.297 . S
Cd29 O33 2.439 . S
Cd29 O39 2.240 . S
Cd30 O31 2.240 . S
Cd30 O38 2.223 . S
Cd30 O40 2.297 . S
Cd30 O41 2.439 . S
O31 Cd30 2.240 . S
O31 C36 1.279 . S
O32 Cd29 2.297 . S
O32 C34 1.247 . S
O33 Cd29 2.439 . S
O33 C34 1.208 . S
C34 O32 1.247 . S
C34 O33 1.208 . S
C35 O40 1.247 . S
C35 O41 1.208 . S
C36 O28 1.315 . S
C36 O31 1.279 . S
C37 O38 1.315 . S
C37 O39 1.279 . S
O38 Cd30 2.223 . S
O38 C37 1.315 . S
O39 Cd29 2.240 . S
O39 C37 1.279 . S
O40 Cd30 2.297 . S
O40 C35 1.247 . S
O41 Cd30 2.439 . S
O41 C35 1.208 . S
O42 Cd43 2.219 1_554 S
O42 C50 1.324 . S
Cd43 O42 2.219 1_556 S
Cd43 O46 2.297 1_556 S
Cd43 O47 2.439 1_556 S
Cd43 O53 2.240 . S
Cd44 O45 2.240 . S
Cd44 O52 2.223 1_554 S
Cd44 O54 2.297 1_554 S
Cd44 O55 2.439 . S
O45 Cd44 2.240 . S
O45 C50 1.279 . S
O46 Cd43 2.297 1_554 S
O46 C48 1.247 . S
O47 Cd43 2.439 1_554 S
O47 C48 1.208 . S
C48 O46 1.247 . S
C48 O47 1.208 . S
C49 O54 1.247 . S
C49 O55 1.208 1_556 S
C50 O42 1.324 . S
C50 O45 1.279 . S
C51 O52 1.315 . S
C51 O53 1.279 . S
O52 Cd44 2.223 1_556 S
O52 C51 1.315 . S
O53 Cd43 2.240 . S
O53 C51 1.279 . S
O54 Cd44 2.297 1_556 S
O54 C49 1.247 . S
O55 Cd44 2.439 . S
O55 C49 1.208 1_554 S
O56 Cd57 2.223 1_455 S
O56 C64 1.315 . S
Cd57 O56 2.223 1_655 S
Cd57 O60 2.297 1_655 S
Cd57 O61 2.439 . S
Cd57 O67 2.240 1_545 S
Cd58 O59 2.225 1_565 S
Cd58 O66 2.220 1_455 S
Cd58 O68 2.297 1_455 S
Cd58 O69 2.439 1_455 S
O59 Cd58 2.225 1_545 S
O59 C64 1.283 . S
O60 Cd57 2.297 1_455 S
O60 C62 1.247 . S
O61 Cd57 2.439 . S
O61 C62 1.208 1_655 S
C62 O60 1.247 . S
C62 O61 1.208 1_455 S
C63 O68 1.247 . S
C63 O69 1.208 . S
C64 O56 1.315 . S
C64 O59 1.283 . S
C65 O66 1.322 . S
C65 O67 1.279 . S
O66 Cd58 2.220 1_655 S
O66 C65 1.322 . S
O67 Cd57 2.240 1_565 S
O67 C65 1.279 . S
O68 Cd58 2.297 1_655 S
O68 C63 1.247 . S
O69 Cd58 2.439 1_655 S
O69 C63 1.208 . S
O70 Cd71 2.223 . S
O70 C78 1.315 . S
Cd71 O70 2.223 . S
Cd71 O74 2.297 . S
Cd71 O75 2.439 . S
Cd71 O81 2.240 . S
Cd72 O73 2.240 . S
Cd72 O80 2.223 . S
Cd72 O82 2.297 . S
Cd72 O83 2.439 . S
O73 Cd72 2.240 . S
O73 C78 1.279 . S
O74 Cd71 2.297 . S
O74 C76 1.247 . S
O75 Cd71 2.439 . S
O75 C76 1.208 . S
C76 O74 1.247 . S
C76 O75 1.208 . S
C77 O82 1.247 . S
C77 O83 1.208 . S
C78 O70 1.315 . S
C78 O73 1.279 . S
C79 O80 1.315 . S
C79 O81 1.279 . S
O80 Cd72 2.223 . S
O80 C79 1.315 . S
O81 Cd71 2.240 . S
O81 C79 1.279 . S
O82 Cd72 2.297 . S
O82 C77 1.247 . S
O83 Cd72 2.439 . S
O83 C77 1.208 . S
O84 Cd85 2.223 . S
O84 C92 1.315 . S
Cd85 O84 2.223 . S
Cd85 O88 2.297 . S
Cd85 O89 2.439 . S
Cd85 O95 2.240 1_565 S
Cd86 O87 2.240 1_545 S
Cd86 O94 2.223 . S
Cd86 O96 2.297 . S
Cd86 O97 2.439 . S
O87 Cd86 2.240 1_565 S
O87 C92 1.279 . S
O88 Cd85 2.297 . S
O88 C90 1.247 . S
O89 Cd85 2.439 . S
O89 C90 1.208 . S
C90 O88 1.247 . S
C90 O89 1.208 . S
C91 O96 1.247 . S
C91 O97 1.208 . S
C92 O84 1.315 . S
C92 O87 1.279 . S
C93 O94 1.315 . S
C93 O95 1.279 . S
O94 Cd86 2.223 . S
O94 C93 1.315 . S
O95 Cd85 2.240 1_545 S
O95 C93 1.279 . S
O96 Cd86 2.297 . S
O96 C91 1.247 . S
O97 Cd86 2.439 . S
O97 C91 1.208 . S
O98 Cd99 2.223 . S
O98 C106 1.315 . S
Cd99 O98 2.223 . S
Cd99 O102 2.297 . S
Cd99 O103 2.439 . S
Cd99 O109 2.240 . S
Cd100 O101 2.240 . S
Cd100 O108 2.223 . S
Cd100 O110 2.297 . S
Cd100 O111 2.439 . S
O101 Cd100 2.240 . S
O101 C106 1.279 . S
O102 Cd99 2.297 . S
O102 C104 1.247 . S
O103 Cd99 2.439 . S
O103 C104 1.208 . S
C104 O102 1.247 . S
C104 O103 1.208 . S
C105 O110 1.247 . S
C105 O111 1.208 . S
C106 O98 1.315 . S
C106 O101 1.279 . S
C107 O108 1.315 . S
C107 O109 1.279 . S
O108 Cd100 2.223 . S
O108 C107 1.315 . S
O109 Cd99 2.240 . S
O109 C107 1.279 . S
O110 Cd100 2.297 . S
O110 C105 1.247 . S
O111 Cd100 2.439 . S
O111 C105 1.208 . S
O112 Cd113 2.223 . S
O112 C120 1.315 . S
Cd113 O112 2.223 . S
Cd113 O116 2.297 . S
Cd113 O117 2.439 . S
Cd113 O123 2.240 . S
Cd114 O115 2.240 . S
Cd114 O122 2.223 . S
Cd114 O124 2.297 . S
Cd114 O125 2.439 . S
O115 Cd114 2.240 . S
O115 C120 1.279 . S
O116 Cd113 2.297 . S
O116 C118 1.247 . S
O117 Cd113 2.439 . S
O117 C118 1.208 . S
C118 O116 1.247 . S
C118 O117 1.208 . S
C119 O124 1.247 . S
C119 O125 1.208 . S
C120 O112 1.315 . S
C120 O115 1.279 . S
C121 O122 1.315 . S
C121 O123 1.279 . S
O122 Cd114 2.223 . S
O122 C121 1.315 . S
O123 Cd113 2.240 . S
O123 C121 1.279 . S
O124 Cd114 2.297 . S
O124 C119 1.247 . S
O125 Cd114 2.439 . S
O125 C119 1.208 . S
O126 Cd127 2.219 1_545 S
O126 C134 1.324 . S
Cd127 O126 2.219 1_565 S
Cd127 O130 2.297 1_565 S
Cd127 O131 2.439 1_565 S
Cd127 O137 2.240 . S
Cd128 O129 2.240 . S
Cd128 O136 2.223 1_545 S
Cd128 O138 2.297 1_545 S
Cd128 O139 2.439 . S
O129 Cd128 2.240 . S
O129 C134 1.279 . S
O130 Cd127 2.297 1_545 S
O130 C132 1.247 . S
O131 Cd127 2.439 1_545 S
O131 C132 1.208 . S
C132 O130 1.247 . S
C132 O131 1.208 . S
C133 O138 1.247 . S
C133 O139 1.208 1_565 S
C134 O126 1.324 . S
C134 O129 1.279 . S
C135 O136 1.315 . S
C135 O137 1.279 . S
O136 Cd128 2.223 1_565 S
O136 C135 1.315 . S
O137 Cd127 2.240 . S
O137 C135 1.279 . S
O138 Cd128 2.297 1_565 S
O138 C133 1.247 . S
O139 Cd128 2.439 . S
O139 C133 1.208 1_545 S
O140 Cd141 2.223 . S
O140 C148 1.315 . S
Cd141 O140 2.223 . S
Cd141 O144 2.297 . S
Cd141 O145 2.439 . S
Cd141 O151 2.240 . S
Cd142 O143 2.240 . S
Cd142 O150 2.223 . S
Cd142 O152 2.297 . S
Cd142 O153 2.439 . S
O143 Cd142 2.240 . S
O143 C148 1.279 . S
O144 Cd141 2.297 . S
O144 C146 1.247 . S
O145 Cd141 2.439 . S
O145 C146 1.208 . S
C146 O144 1.247 . S
C146 O145 1.208 . S
C147 O152 1.247 . S
C147 O153 1.208 . S
C148 O140 1.315 . S
C148 O143 1.279 . S
C149 O150 1.315 . S
C149 O151 1.279 . S
O150 Cd142 2.223 . S
O150 C149 1.315 . S
O151 Cd141 2.240 . S
O151 C149 1.279 . S
O152 Cd142 2.297 . S
O152 C147 1.247 . S
O153 Cd142 2.439 . S
O153 C147 1.208 . S
O154 Cd155 2.223 1_545 S
O154 C162 1.315 . S
Cd155 O154 2.223 1_565 S
Cd155 O158 2.297 1_565 S
Cd155 O159 2.439 . S
Cd155 O165 2.240 1_554 S
Cd156 O157 2.225 1_556 S
Cd156 O164 2.220 1_545 S
Cd156 O166 2.297 1_545 S
Cd156 O167 2.439 1_545 S
O157 Cd156 2.225 1_554 S
O157 C162 1.283 . S
O158 Cd155 2.297 1_545 S
O158 C160 1.247 . S
O159 Cd155 2.439 . S
O159 C160 1.208 1_565 S
C160 O158 1.247 . S
C160 O159 1.208 1_545 S
C161 O166 1.247 . S
C161 O167 1.208 . S
C162 O154 1.315 . S
C162 O157 1.283 . S
C163 O164 1.322 . S
C163 O165 1.279 . S
O164 Cd156 2.220 1_565 S
O164 C163 1.322 . S
O165 Cd155 2.240 1_556 S
O165 C163 1.279 . S
O166 Cd156 2.297 1_565 S
O166 C161 1.247 . S
O167 Cd156 2.439 1_565 S
O167 C161 1.208 . S
O168 Cd169 2.223 . S
O168 C176 1.315 . S
Cd169 O168 2.223 . S
Cd169 O172 2.297 . S
Cd169 O173 2.439 . S
Cd169 O179 2.240 . S
Cd170 O171 2.240 . S
Cd170 O178 2.223 . S
Cd170 O180 2.297 . S
Cd170 O181 2.439 . S
O171 Cd170 2.240 . S
O171 C176 1.279 . S
O172 Cd169 2.297 . S
O172 C174 1.247 . S
O173 Cd169 2.439 . S
O173 C174 1.208 . S
C174 O172 1.247 . S
C174 O173 1.208 . S
C175 O180 1.247 . S
C175 O181 1.208 . S
C176 O168 1.315 . S
C176 O171 1.279 . S
C177 O178 1.315 . S
C177 O179 1.279 . S
O178 Cd170 2.223 . S
O178 C177 1.315 . S
O179 Cd169 2.240 . S
O179 C177 1.279 . S
O180 Cd170 2.297 . S
O180 C175 1.247 . S
O181 Cd170 2.439 . S
O181 C175 1.208 . S
O182 Cd183 2.219 1_455 S
O182 C190 1.324 . S
Cd183 O182 2.219 1_655 S
Cd183 O186 2.297 1_655 S
Cd183 O187 2.439 1_655 S
Cd183 O193 2.240 . S
Cd184 O185 2.240 . S
Cd184 O192 2.223 1_455 S
Cd184 O194 2.297 1_455 S
Cd184 O195 2.439 . S
O185 Cd184 2.240 . S
O185 C190 1.279 . S
O186 Cd183 2.297 1_455 S
O186 C188 1.247 . S
O187 Cd183 2.439 1_455 S
O187 C188 1.208 . S
C188 O186 1.247 . S
C188 O187 1.208 . S
C189 O194 1.247 . S
C189 O195 1.208 1_655 S
C190 O182 1.324 . S
C190 O185 1.279 . S
C191 O192 1.315 . S
C191 O193 1.279 . S
O192 Cd184 2.223 1_655 S
O192 C191 1.315 . S
O193 Cd183 2.240 . S
O193 C191 1.279 . S
O194 Cd184 2.297 1_655 S
O194 C189 1.247 . S
O195 Cd184 2.439 . S
O195 C189 1.208 1_455 S
O196 Cd197 2.223 . S
O196 C204 1.315 . S
Cd197 O196 2.223 . S
Cd197 O200 2.297 . S
Cd197 O201 2.439 . S
Cd197 O207 2.240 . S
Cd198 O199 2.240 . S
Cd198 O206 2.223 . S
Cd198 O208 2.297 . S
Cd198 O209 2.439 . S
O199 Cd198 2.240 . S
O199 C204 1.279 . S
O200 Cd197 2.297 . S
O200 C202 1.247 . S
O201 Cd197 2.439 . S
O201 C202 1.208 . S
C202 O200 1.247 . S
C202 O201 1.208 . S
C203 O208 1.247 . S
C203 O209 1.208 . S
C204 O196 1.315 . S
C204 O199 1.279 . S
C205 O206 1.315 . S
C205 O207 1.279 . S
O206 Cd198 2.223 . S
O206 C205 1.315 . S
O207 Cd197 2.240 . S
O207 C205 1.279 . S
O208 Cd198 2.297 . S
O208 C203 1.247 . S
O209 Cd198 2.439 . S
O209 C203 1.208 . S
O210 Cd211 2.223 . S
O210 C218 1.315 . S
Cd211 O210 2.223 . S
Cd211 O214 2.297 . S
Cd211 O215 2.439 . S
Cd211 O221 2.240 . S
Cd212 O213 2.240 . S
Cd212 O220 2.223 . S
Cd212 O222 2.297 . S
Cd212 O223 2.439 . S
O213 Cd212 2.240 . S
O213 C218 1.279 . S
O214 Cd211 2.297 . S
O214 C216 1.247 . S
O215 Cd211 2.439 . S
O215 C216 1.208 . S
C216 O214 1.247 . S
C216 O215 1.208 . S
C217 O222 1.247 . S
C217 O223 1.208 . S
C218 O210 1.315 . S
C218 O213 1.279 . S
C219 O220 1.315 . S
C219 O221 1.279 . S
O220 Cd212 2.223 . S
O220 C219 1.315 . S
O221 Cd211 2.240 . S
O221 C219 1.279 . S
O222 Cd212 2.297 . S
O222 C217 1.247 . S
O223 Cd212 2.439 . S
O223 C217 1.208 . S
O224 Cd225 2.223 . S
O224 C232 1.315 . S
Cd225 O224 2.223 . S
Cd225 O228 2.297 . S
Cd225 O229 2.439 . S
Cd225 O235 2.240 . S
Cd226 O227 2.240 . S
Cd226 O234 2.223 . S
Cd226 O236 2.297 . S
Cd226 O237 2.439 . S
O227 Cd226 2.240 . S
O227 C232 1.279 . S
O228 Cd225 2.297 . S
O228 C230 1.247 . S
O229 Cd225 2.439 . S
O229 C230 1.208 . S
C230 O228 1.247 . S
C230 O229 1.208 . S
C231 O236 1.247 . S
C231 O237 1.208 . S
C232 O224 1.315 . S
C232 O227 1.279 . S
C233 O234 1.315 . S
C233 O235 1.279 . S
O234 Cd226 2.223 . S
O234 C233 1.315 . S
O235 Cd225 2.240 . S
O235 C233 1.279 . S
O236 Cd226 2.297 . S
O236 C231 1.247 . S
O237 Cd226 2.439 . S
O237 C231 1.208 . S
O238 Cd239 2.223 . S
O238 C246 1.315 . S
Cd239 O238 2.223 . S
Cd239 O242 2.297 . S
Cd239 O243 2.439 . S
Cd239 O249 2.240 . S
Cd240 O241 2.240 . S
Cd240 O248 2.223 . S
Cd240 O250 2.297 . S
Cd240 O251 2.439 . S
O241 Cd240 2.240 . S
O241 C246 1.279 . S
O242 Cd239 2.297 . S
O242 C244 1.247 . S
O243 Cd239 2.439 . S
O243 C244 1.208 . S
C244 O242 1.247 . S
C244 O243 1.208 . S
C245 O250 1.247 . S
C245 O251 1.208 . S
C246 O238 1.315 . S
C246 O241 1.279 . S
C247 O248 1.315 . S
C247 O249 1.279 . S
O248 Cd240 2.223 . S
O248 C247 1.315 . S
O249 Cd239 2.240 . S
O249 C247 1.279 . S
O250 Cd240 2.297 . S
O250 C245 1.247 . S
O251 Cd240 2.439 . S
O251 C245 1.208 . S
O252 Cd253 2.223 1_554 S
O252 C260 1.315 . S
Cd253 O252 2.223 1_556 S
Cd253 O256 2.297 1_556 S
Cd253 O257 2.439 . S
Cd253 O263 2.240 1_455 S
Cd254 O255 2.225 1_655 S
Cd254 O262 2.220 1_554 S
Cd254 O264 2.297 1_554 S
Cd254 O265 2.439 1_554 S
O255 Cd254 2.225 1_455 S
O255 C260 1.283 . S
O256 Cd253 2.297 1_554 S
O256 C258 1.247 . S
O257 Cd253 2.439 . S
O257 C258 1.208 1_556 S
C258 O256 1.247 . S
C258 O257 1.208 1_554 S
C259 O264 1.247 . S
C259 O265 1.208 . S
C260 O252 1.315 . S
C260 O255 1.283 . S
C261 O262 1.322 . S
C261 O263 1.279 . S
O262 Cd254 2.220 1_556 S
O262 C261 1.322 . S
O263 Cd253 2.240 1_655 S
O263 C261 1.279 . S
O264 Cd254 2.297 1_556 S
O264 C259 1.247 . S
O265 Cd254 2.439 1_556 S
O265 C259 1.208 . S
O266 Cd267 2.223 . S
O266 C274 1.315 . S
Cd267 O266 2.223 . S
Cd267 O270 2.297 . S
Cd267 O271 2.439 . S
Cd267 O277 2.240 . S
Cd268 O269 2.240 . S
Cd268 O276 2.223 . S
Cd268 O278 2.297 . S
Cd268 O279 2.439 . S
O269 Cd268 2.240 . S
O269 C274 1.279 . S
O270 Cd267 2.297 . S
O270 C272 1.247 . S
O271 Cd267 2.439 . S
O271 C272 1.208 . S
C272 O270 1.247 . S
C272 O271 1.208 . S
C273 O278 1.247 . S
C273 O279 1.208 . S
C274 O266 1.315 . S
C274 O269 1.279 . S
C275 O276 1.315 . S
C275 O277 1.279 . S
O276 Cd268 2.223 . S
O276 C275 1.315 . S
O277 Cd267 2.240 . S
O277 C275 1.279 . S
O278 Cd268 2.297 . S
O278 C273 1.247 . S
O279 Cd268 2.439 . S
O279 C273 1.208 . S
O280 Cd281 2.223 . S
O280 C288 1.315 . S
Cd281 O280 2.223 . S
Cd281 O284 2.297 . S
Cd281 O285 2.439 . S
Cd281 O291 2.240 . S
Cd282 O283 2.240 . S
Cd282 O290 2.223 . S
Cd282 O292 2.297 . S
Cd282 O293 2.439 . S
O283 Cd282 2.240 . S
O283 C288 1.279 . S
O284 Cd281 2.297 . S
O284 C286 1.247 . S
O285 Cd281 2.439 . S
O285 C286 1.208 . S
C286 O284 1.247 . S
C286 O285 1.208 . S
C287 O292 1.247 . S
C287 O293 1.208 . S
C288 O280 1.315 . S
C288 O283 1.279 . S
C289 O290 1.315 . S
C289 O291 1.279 . S
O290 Cd282 2.223 . S
O290 C289 1.315 . S
O291 Cd281 2.240 . S
O291 C289 1.279 . S
O292 Cd282 2.297 . S
O292 C287 1.247 . S
O293 Cd282 2.439 . S
O293 C287 1.208 . S
O294 Cd295 2.223 . S
O294 C302 1.315 . S
Cd295 O294 2.223 . S
Cd295 O298 2.297 . S
Cd295 O299 2.439 . S
Cd295 O305 2.240 . S
Cd296 O297 2.240 . S
Cd296 O304 2.223 . S
Cd296 O306 2.297 . S
Cd296 O307 2.439 . S
O297 Cd296 2.240 . S
O297 C302 1.279 . S
O298 Cd295 2.297 . S
O298 C300 1.247 . S
O299 Cd295 2.439 . S
O299 C300 1.208 . S
C300 O298 1.247 . S
C300 O299 1.208 . S
C301 O306 1.247 . S
C301 O307 1.208 . S
C302 O294 1.315 . S
C302 O297 1.279 . S
C303 O304 1.315 . S
C303 O305 1.279 . S
O304 Cd296 2.223 . S
O304 C303 1.315 . S
O305 Cd295 2.240 . S
O305 C303 1.279 . S
O306 Cd296 2.297 . S
O306 C301 1.247 . S
O307 Cd296 2.439 . S
O307 C301 1.208 . S
O308 Cd309 2.223 . S
O308 C316 1.315 . S
Cd309 O308 2.223 . S
Cd309 O312 2.297 . S
Cd309 O313 2.439 . S
Cd309 O319 2.240 1_556 S
Cd310 O311 2.240 1_554 S
Cd310 O318 2.223 . S
Cd310 O320 2.297 . S
Cd310 O321 2.439 . S
O311 Cd310 2.240 1_556 S
O311 C316 1.279 . S
O312 Cd309 2.297 . S
O312 C314 1.247 . S
O313 Cd309 2.439 . S
O313 C314 1.208 . S
C314 O312 1.247 . S
C314 O313 1.208 . S
C315 O320 1.247 . S
C315 O321 1.208 . S
C316 O308 1.315 . S
C316 O311 1.279 . S
C317 O318 1.315 . S
C317 O319 1.279 . S
O318 Cd310 2.223 . S
O318 C317 1.315 . S
O319 Cd309 2.240 1_554 S
O319 C317 1.279 . S
O320 Cd310 2.297 . S
O320 C315 1.247 . S
O321 Cd310 2.439 . S
O321 C315 1.208 . S
O322 Cd323 2.223 . S
O322 C330 1.315 . S
Cd323 O322 2.223 . S
Cd323 O326 2.297 . S
Cd323 O327 2.439 . S
Cd323 O333 2.240 . S
Cd324 O325 2.240 . S
Cd324 O332 2.223 . S
Cd324 O334 2.297 . S
Cd324 O335 2.439 . S
O325 Cd324 2.240 . S
O325 C330 1.279 . S
O326 Cd323 2.297 . S
O326 C328 1.247 . S
O327 Cd323 2.439 . S
O327 C328 1.208 . S
C328 O326 1.247 . S
C328 O327 1.208 . S
C329 O334 1.247 . S
C329 O335 1.208 . S
C330 O322 1.315 . S
C330 O325 1.279 . S
C331 O332 1.315 . S
C331 O333 1.279 . S
O332 Cd324 2.223 . S
O332 C331 1.315 . S
O333 Cd323 2.240 . S
O333 C331 1.279 . S
O334 Cd324 2.297 . S
O334 C329 1.247 . S
O335 Cd324 2.439 . S
O335 C329 1.208 . S
H336 C342 0.930 . S
H337 C345 0.930 . S
H338 C346 0.930 . S
H339 C347 0.930 . S
H340 C350 0.930 . S
H341 C351 0.930 . S
C342 H336 0.930 . S
C342 C343 1.355 . S
C342 C344 1.415 . S
C343 C342 1.355 . S
C343 C345 1.419 . S
C344 C342 1.415 . S
C344 C349 1.425 . S
C344 C351 1.409 . S
C345 H337 0.930 . S
C345 C343 1.419 . S
C345 C346 1.362 . S
C346 H338 0.930 . S
C346 C345 1.362 . S
C346 C349 1.409 . S
C347 H339 0.930 . S
C347 C348 1.355 . S
C347 C349 1.415 . S
C348 C347 1.355 . S
C348 C350 1.419 . S
C349 C344 1.425 . S
C349 C346 1.409 . S
C349 C347 1.415 . S
C350 H340 0.930 . S
C350 C348 1.419 . S
C350 C351 1.362 . S
C351 H341 0.930 . S
C351 C344 1.409 . S
C351 C350 1.362 . S
H352 C358 0.930 . S
H353 C361 0.930 . S
H354 C362 0.930 . S
H355 C363 0.930 1_455 S
H356 C366 0.930 . S
H357 C367 0.930 . S
C358 H352 0.930 . S
C358 C359 1.356 . S
C358 C360 1.415 . S
C359 C358 1.356 . S
C359 C361 1.418 1_655 S
C360 C358 1.415 . S
C360 C365 1.425 . S
C360 C367 1.409 . S
C361 H353 0.930 . S
C361 C359 1.418 1_455 S
C361 C362 1.362 . S
C362 H354 0.930 . S
C362 C361 1.362 . S
C362 C365 1.409 1_455 S
C363 H355 0.930 1_655 S
C363 C364 1.355 . S
C363 C365 1.415 . S
C364 C363 1.355 . S
C364 C366 1.419 . S
C365 C360 1.425 . S
C365 C362 1.409 1_655 S
C365 C363 1.415 . S
C366 H356 0.930 . S
C366 C364 1.419 . S
C366 C367 1.362 . S
C367 H357 0.930 . S
C367 C360 1.409 . S
C367 C366 1.362 . S
H368 C374 0.930 . S
H369 C377 0.930 . S
H370 C378 0.930 . S
H371 C379 0.930 . S
H372 C382 0.930 . S
H373 C383 0.930 . S
C374 H368 0.930 . S
C374 C375 1.355 . S
C374 C376 1.415 . S
C375 C374 1.355 . S
C375 C377 1.419 . S
C376 C374 1.415 . S
C376 C381 1.425 . S
C376 C383 1.409 . S
C377 H369 0.930 . S
C377 C375 1.419 . S
C377 C378 1.362 . S
C378 H370 0.930 . S
C378 C377 1.362 . S
C378 C381 1.409 . S
C379 H371 0.930 . S
C379 C380 1.355 . S
C379 C381 1.415 . S
C380 C379 1.355 . S
C380 C382 1.419 . S
C381 C376 1.425 . S
C381 C378 1.409 . S
C381 C379 1.415 . S
C382 H372 0.930 . S
C382 C380 1.419 . S
C382 C383 1.362 . S
C383 H373 0.930 . S
C383 C376 1.409 . S
C383 C382 1.362 . S
H384 C390 0.930 . S
H385 C393 0.930 . S
H386 C394 0.930 . S
H387 C395 0.930 . S
H388 C398 0.930 . S
H389 C399 0.930 . S
C390 H384 0.930 . S
C390 C391 1.355 . S
C390 C392 1.415 . S
C391 C390 1.355 . S
C391 C393 1.419 . S
C392 C390 1.415 . S
C392 C397 1.425 . S
C392 C399 1.409 . S
C393 H385 0.930 . S
C393 C391 1.419 . S
C393 C394 1.362 . S
C394 H386 0.930 . S
C394 C393 1.362 . S
C394 C397 1.409 . S
C395 H387 0.930 . S
C395 C396 1.355 . S
C395 C397 1.415 . S
C396 C395 1.355 . S
C396 C398 1.419 . S
C397 C392 1.425 . S
C397 C394 1.409 . S
C397 C395 1.415 . S
C398 H388 0.930 . S
C398 C396 1.419 . S
C398 C399 1.362 . S
C399 H389 0.930 . S
C399 C392 1.409 . S
C399 C398 1.362 . S
H400 C406 0.930 . S
H401 C409 0.930 . S
H402 C410 0.930 . S
H403 C411 0.930 . S
H404 C414 0.930 . S
H405 C415 0.930 . S
C406 H400 0.930 . S
C406 C407 1.355 . S
C406 C408 1.415 . S
C407 C406 1.355 . S
C407 C409 1.419 . S
C408 C406 1.415 . S
C408 C413 1.425 . S
C408 C415 1.409 . S
C409 H401 0.930 . S
C409 C407 1.419 . S
C409 C410 1.362 . S
C410 H402 0.930 . S
C410 C409 1.362 . S
C410 C413 1.409 . S
C411 H403 0.930 . S
C411 C412 1.355 . S
C411 C413 1.415 . S
C412 C411 1.355 . S
C412 C414 1.419 . S
C413 C408 1.425 . S
C413 C410 1.409 . S
C413 C411 1.415 . S
C414 H404 0.930 . S
C414 C412 1.419 . S
C414 C415 1.362 . S
C415 H405 0.930 . S
C415 C408 1.409 . S
C415 C414 1.362 . S
H416 C422 0.930 . S
H417 C425 0.930 . S
H418 C426 0.930 . S
H419 C427 0.930 . S
H420 C430 0.930 . S
H421 C431 0.930 . S
C422 H416 0.930 . S
C422 C423 1.355 . S
C422 C424 1.415 . S
C423 C422 1.355 . S
C423 C425 1.419 . S
C424 C422 1.415 . S
C424 C429 1.425 . S
C424 C431 1.409 . S
C425 H417 0.930 . S
C425 C423 1.419 . S
C425 C426 1.362 . S
C426 H418 0.930 . S
C426 C425 1.362 . S
C426 C429 1.409 . S
C427 H419 0.930 . S
C427 C428 1.355 . S
C427 C429 1.415 . S
C428 C427 1.355 . S
C428 C430 1.419 . S
C429 C424 1.425 . S
C429 C426 1.409 . S
C429 C427 1.415 . S
C430 H420 0.930 . S
C430 C428 1.419 . S
C430 C431 1.362 . S
C431 H421 0.930 . S
C431 C424 1.409 . S
C431 C430 1.362 . S
H432 C438 0.930 . S
H433 C441 0.930 . S
H434 C442 0.930 . S
H435 C443 0.930 . S
H436 C446 0.930 . S
H437 C447 0.930 . S
C438 H432 0.930 . S
C438 C439 1.355 . S
C438 C440 1.415 . S
C439 C438 1.355 . S
C439 C441 1.419 . S
C440 C438 1.415 . S
C440 C445 1.425 . S
C440 C447 1.409 . S
C441 H433 0.930 . S
C441 C439 1.419 . S
C441 C442 1.362 . S
C442 H434 0.930 . S
C442 C441 1.362 . S
C442 C445 1.409 . S
C443 H435 0.930 . S
C443 C444 1.355 . S
C443 C445 1.415 . S
C444 C443 1.355 . S
C444 C446 1.419 . S
C445 C440 1.425 . S
C445 C442 1.409 . S
C445 C443 1.415 . S
C446 H436 0.930 . S
C446 C444 1.419 . S
C446 C447 1.362 . S
C447 H437 0.930 . S
C447 C440 1.409 . S
C447 C446 1.362 . S
H448 C454 0.930 1_556 S
H449 C457 0.930 . S
H450 C458 0.930 . S
H451 C459 0.930 . S
H452 C462 0.930 . S
H453 C463 0.918 1_556 S
C454 H448 0.930 1_554 S
C454 C455 1.355 . S
C454 C456 1.415 . S
C455 C454 1.355 . S
C455 C457 1.419 . S
C456 C454 1.415 . S
C456 C461 1.425 . S
C456 C463 1.409 . S
C457 H449 0.930 . S
C457 C455 1.419 . S
C457 C458 1.362 . S
C458 H450 0.930 . S
C458 C457 1.362 . S
C458 C461 1.409 . S
C459 H451 0.930 . S
C459 C460 1.355 . S
C459 C461 1.415 . S
C460 C459 1.355 . S
C460 C462 1.419 . S
C461 C456 1.425 . S
C461 C458 1.409 . S
C461 C459 1.415 . S
C462 H452 0.930 . S
C462 C460 1.419 . S
C462 C463 1.362 . S
C463 H453 0.918 1_554 S
C463 C456 1.409 . S
C463 C462 1.362 . S
H464 C470 0.930 . S
H465 C473 0.930 . S
H466 C474 0.930 . S
H467 C475 0.930 . S
H468 C478 0.941 . S
H469 C479 0.930 . S
C470 H464 0.930 . S
C470 C471 1.355 1_565 S
C470 C472 1.415 1_565 S
C471 C470 1.355 1_545 S
C471 C473 1.419 . S
C472 C470 1.415 1_545 S
C472 C477 1.425 . S
C472 C479 1.409 1_545 S
C473 H465 0.930 . S
C473 C471 1.419 . S
C473 C474 1.362 . S
C474 H466 0.930 . S
C474 C473 1.362 . S
C474 C477 1.409 . S
C475 H467 0.930 . S
C475 C476 1.355 . S
C475 C477 1.415 . S
C476 C475 1.355 . S
C476 C478 1.419 . S
C477 C472 1.425 . S
C477 C474 1.409 . S
C477 C475 1.415 . S
C478 H468 0.941 . S
C478 C476 1.419 . S
C478 C479 1.362 1_545 S
C479 H469 0.930 . S
C479 C472 1.409 1_565 S
C479 C478 1.362 1_565 S
H480 C486 0.930 . S
H481 C489 0.930 . S
H482 C490 0.930 . S
H483 C491 0.930 . S
H484 C494 0.930 . S
H485 C495 0.930 . S
C486 H480 0.930 . S
C486 C487 1.355 . S
C486 C488 1.415 . S
C487 C486 1.355 . S
C487 C489 1.419 . S
C488 C486 1.415 . S
C488 C493 1.425 . S
C488 C495 1.409 . S
C489 H481 0.930 . S
C489 C487 1.419 . S
C489 C490 1.362 . S
C490 H482 0.930 . S
C490 C489 1.362 . S
C490 C493 1.409 . S
C491 H483 0.930 . S
C491 C492 1.355 . S
C491 C493 1.415 . S
C492 C491 1.355 . S
C492 C494 1.419 . S
C493 C488 1.425 . S
C493 C490 1.409 . S
C493 C491 1.415 . S
C494 H484 0.930 . S
C494 C492 1.419 . S
C494 C495 1.362 . S
C495 H485 0.930 . S
C495 C488 1.409 . S
C495 C494 1.362 . S
H496 C502 0.930 . S
H497 C505 0.930 . S
H498 C506 0.930 . S
H499 C507 0.934 . S
H500 C510 0.930 . S
H501 C511 0.930 . S
C502 H496 0.930 . S
C502 C503 1.355 . S
C502 C504 1.415 . S
C503 C502 1.355 . S
C503 C505 1.419 . S
C504 C502 1.415 . S
C504 C509 1.425 . S
C504 C511 1.409 . S
C505 H497 0.930 . S
C505 C503 1.419 . S
C505 C506 1.362 . S
C506 H498 0.930 . S
C506 C505 1.362 . S
C506 C509 1.409 . S
C507 H499 0.934 . S
C507 C508 1.355 . S
C507 C509 1.415 . S
C508 C507 1.355 . S
C508 C510 1.419 . S
C509 C504 1.425 . S
C509 C506 1.409 . S
C509 C507 1.415 . S
C510 H500 0.930 . S
C510 C508 1.419 . S
C510 C511 1.362 . S
C511 H501 0.930 . S
C511 C504 1.409 . S
C511 C510 1.362 . S
H512 C518 0.930 . S
H513 C521 0.930 . S
H514 C522 0.930 . S
H515 C523 0.930 . S
H516 C526 0.930 . S
H517 C527 0.930 . S
C518 H512 0.930 . S
C518 C519 1.355 . S
C518 C520 1.415 . S
C519 C518 1.355 . S
C519 C521 1.419 . S
C520 C518 1.415 . S
C520 C525 1.425 . S
C520 C527 1.409 . S
C521 H513 0.930 . S
C521 C519 1.419 . S
C521 C522 1.362 . S
C522 H514 0.930 . S
C522 C521 1.362 . S
C522 C525 1.409 . S
C523 H515 0.930 . S
C523 C524 1.355 . S
C523 C525 1.415 . S
C524 C523 1.355 . S
C524 C526 1.419 . S
C525 C520 1.425 . S
C525 C522 1.409 . S
C525 C523 1.415 . S
C526 H516 0.930 . S
C526 C524 1.419 . S
C526 C527 1.362 . S
C527 H517 0.930 . S
C527 C520 1.409 . S
C527 C526 1.362 . S
H528 C534 0.930 . S
H529 C537 0.930 . S
H530 C538 0.930 . S
H531 C539 0.930 . S
H532 C542 0.930 . S
H533 C543 0.930 . S
C534 H528 0.930 . S
C534 C535 1.355 . S
C534 C536 1.415 . S
C535 C534 1.355 . S
C535 C537 1.419 . S
C536 C534 1.415 . S
C536 C541 1.425 . S
C536 C543 1.409 . S
C537 H529 0.930 . S
C537 C535 1.419 . S
C537 C538 1.362 . S
C538 H530 0.930 . S
C538 C537 1.362 . S
C538 C541 1.409 . S
C539 H531 0.930 . S
C539 C540 1.355 . S
C539 C541 1.415 . S
C540 C539 1.355 . S
C540 C542 1.419 . S
C541 C536 1.425 . S
C541 C538 1.409 . S
C541 C539 1.415 . S
C542 H532 0.930 . S
C542 C540 1.419 . S
C542 C543 1.362 . S
C543 H533 0.930 . S
C543 C536 1.409 . S
C543 C542 1.362 . S
H544 C550 0.930 . S
H545 C553 0.930 . S
H546 C554 0.930 . S
H547 C555 0.930 . S
H548 C558 0.930 . S
H549 C559 0.930 . S
C550 H544 0.930 . S
C550 C551 1.355 . S
C550 C552 1.415 . S
C551 C550 1.355 . S
C551 C553 1.419 . S
C552 C550 1.415 . S
C552 C557 1.425 . S
C552 C559 1.409 . S
C553 H545 0.930 . S
C553 C551 1.419 . S
C553 C554 1.362 . S
C554 H546 0.930 . S
C554 C553 1.362 . S
C554 C557 1.409 . S
C555 H547 0.930 . S
C555 C556 1.355 . S
C555 C557 1.415 . S
C556 C555 1.355 . S
C556 C558 1.419 . S
C557 C552 1.425 . S
C557 C554 1.409 . S
C557 C555 1.415 . S
C558 H548 0.930 . S
C558 C556 1.419 . S
C558 C559 1.362 . S
C559 H549 0.930 . S
C559 C552 1.409 . S
C559 C558 1.362 . S
H560 C566 0.930 . S
H561 C569 0.930 . S
H562 C570 0.930 . S
H563 C571 0.930 . S
H564 C574 0.930 . S
H565 C575 0.930 . S
C566 H560 0.930 . S
C566 C567 1.355 . S
C566 C568 1.415 . S
C567 C566 1.355 . S
C567 C569 1.419 . S
C568 C566 1.415 . S
C568 C573 1.425 . S
C568 C575 1.409 . S
C569 H561 0.930 . S
C569 C567 1.419 . S
C569 C570 1.362 . S
C570 H562 0.930 . S
C570 C569 1.362 . S
C570 C573 1.409 . S
C571 H563 0.930 . S
C571 C572 1.355 . S
C571 C573 1.415 . S
C572 C571 1.355 . S
C572 C574 1.419 . S
C573 C568 1.425 . S
C573 C570 1.409 . S
C573 C571 1.415 . S
C574 H564 0.930 . S
C574 C572 1.419 . S
C574 C575 1.362 . S
C575 H565 0.930 . S
C575 C568 1.409 . S
C575 C574 1.362 . S
H576 C582 0.930 . S
H577 C585 0.930 . S
H578 C586 0.930 . S
H579 C587 0.930 . S
H580 C590 0.930 . S
H581 C591 0.930 . S
C582 H576 0.930 . S
C582 C583 1.355 . S
C582 C584 1.415 . S
C583 C582 1.355 . S
C583 C585 1.419 . S
C584 C582 1.415 . S
C584 C589 1.425 . S
C584 C591 1.409 . S
C585 H577 0.930 . S
C585 C583 1.419 . S
C585 C586 1.362 . S
C586 H578 0.930 . S
C586 C585 1.362 . S
C586 C589 1.409 . S
C587 H579 0.930 . S
C587 C588 1.355 . S
C587 C589 1.415 . S
C588 C587 1.355 . S
C588 C590 1.419 . S
C589 C584 1.425 . S
C589 C586 1.409 . S
C589 C587 1.415 . S
C590 H580 0.930 . S
C590 C588 1.419 . S
C590 C591 1.362 . S
C591 H581 0.930 . S
C591 C584 1.409 . S
C591 C590 1.362 . S
H592 C598 0.930 . S
H593 C601 0.930 . S
H594 C602 0.930 . S
H595 C603 0.930 . S
H596 C606 0.930 . S
H597 C607 0.930 . S
C598 H592 0.930 . S
C598 C599 1.355 . S
C598 C600 1.415 . S
C599 C598 1.355 . S
C599 C601 1.419 . S
C600 C598 1.415 . S
C600 C605 1.425 . S
C600 C607 1.409 . S
C601 H593 0.930 . S
C601 C599 1.419 . S
C601 C602 1.362 . S
C602 H594 0.930 . S
C602 C601 1.362 . S
C602 C605 1.409 . S
C603 H595 0.930 . S
C603 C604 1.355 . S
C603 C605 1.415 . S
C604 C603 1.355 . S
C604 C606 1.419 . S
C605 C600 1.425 . S
C605 C602 1.409 . S
C605 C603 1.415 . S
C606 H596 0.930 . S
C606 C604 1.419 . S
C606 C607 1.362 . S
C607 H597 0.930 . S
C607 C600 1.409 . S
C607 C606 1.362 . S
H608 C614 0.930 . S
H609 C617 0.930 . S
H610 C618 0.930 . S
H611 C619 0.930 . S
H612 C622 0.930 . S
H613 C623 0.930 . S
C614 H608 0.930 . S
C614 C615 1.355 . S
C614 C616 1.415 . S
C615 C614 1.355 . S
C615 C617 1.419 . S
C616 C614 1.415 . S
C616 C621 1.425 . S
C616 C623 1.409 . S
C617 H609 0.930 . S
C617 C615 1.419 . S
C617 C618 1.362 . S
C618 H610 0.930 . S
C618 C617 1.362 . S
C618 C621 1.409 . S
C619 H611 0.930 . S
C619 C620 1.355 . S
C619 C621 1.415 . S
C620 C619 1.355 . S
C620 C622 1.419 . S
C621 C616 1.425 . S
C621 C618 1.409 . S
C621 C619 1.415 . S
C622 H612 0.930 . S
C622 C620 1.419 . S
C622 C623 1.362 . S
C623 H613 0.930 . S
C623 C616 1.409 . S
C623 C622 1.362 . S
H624 C630 0.930 . S
H625 C633 0.930 . S
H626 C634 0.930 . S
H627 C635 0.930 . S
H628 C638 0.930 . S
H629 C639 0.930 . S
C630 H624 0.930 . S
C630 C631 1.355 . S
C630 C632 1.415 . S
C631 C630 1.355 . S
C631 C633 1.419 . S
C632 C630 1.415 . S
C632 C637 1.425 . S
C632 C639 1.409 . S
C633 H625 0.930 . S
C633 C631 1.419 . S
C633 C634 1.362 . S
C634 H626 0.930 . S
C634 C633 1.362 . S
C634 C637 1.409 . S
C635 H627 0.930 . S
C635 C636 1.355 . S
C635 C637 1.415 . S
C636 C635 1.355 . S
C636 C638 1.419 . S
C637 C632 1.425 . S
C637 C634 1.409 . S
C637 C635 1.415 . S
C638 H628 0.930 . S
C638 C636 1.419 . S
C638 C639 1.362 . S
C639 H629 0.930 . S
C639 C632 1.409 . S
C639 C638 1.362 . S
H640 C646 0.930 . S
H641 C649 0.933 . S
H642 C650 0.930 . S
H643 C651 0.930 . S
H644 C654 0.930 . S
H645 C655 0.930 . S
C646 H640 0.930 . S
C646 C647 1.355 . S
C646 C648 1.415 . S
C647 C646 1.355 . S
C647 C649 1.412 1_455 S
C648 C646 1.415 . S
C648 C653 1.425 . S
C648 C655 1.409 . S
C649 H641 0.933 . S
C649 C647 1.412 1_655 S
C649 C650 1.365 . S
C650 H642 0.930 . S
C650 C649 1.365 . S
C650 C653 1.409 1_655 S
C651 H643 0.930 . S
C651 C652 1.355 1_655 S
C651 C653 1.415 1_655 S
C652 C651 1.355 1_455 S
C652 C654 1.419 . S
C653 C648 1.425 . S
C653 C650 1.409 1_455 S
C653 C651 1.415 1_455 S
C654 H644 0.930 . S
C654 C652 1.419 . S
C654 C655 1.362 . S
C655 H645 0.930 . S
C655 C648 1.409 . S
C655 C654 1.362 . S
H656 C662 0.930 . S
H657 C665 0.930 . S
H658 C666 0.930 . S
H659 C667 0.930 . S
H660 C670 0.930 . S
H661 C671 0.930 . S
C662 H656 0.930 . S
C662 C663 1.355 . S
C662 C664 1.415 . S
C663 C662 1.355 . S
C663 C665 1.419 . S
C664 C662 1.415 . S
C664 C669 1.425 . S
C664 C671 1.409 . S
C665 H657 0.930 . S
C665 C663 1.419 . S
C665 C666 1.362 . S
C666 H658 0.930 . S
C666 C665 1.362 . S
C666 C669 1.409 . S
C667 H659 0.930 . S
C667 C668 1.355 . S
C667 C669 1.415 . S
C668 C667 1.355 . S
C668 C670 1.419 . S
C669 C664 1.425 . S
C669 C666 1.409 . S
C669 C667 1.415 . S
C670 H660 0.930 . S
C670 C668 1.419 . S
C670 C671 1.362 . S
C671 H661 0.930 . S
C671 C664 1.409 . S
C671 C670 1.362 . S
H672 C678 0.930 . S
H673 C681 0.930 . S
H674 C682 0.930 . S
H675 C683 0.930 . S
H676 C686 0.930 . S
H677 C687 0.930 . S
C678 H672 0.930 . S
C678 C679 1.355 . S
C678 C680 1.415 . S
C679 C678 1.355 . S
C679 C681 1.419 . S
C680 C678 1.415 . S
C680 C685 1.425 . S
C680 C687 1.409 . S
C681 H673 0.930 . S
C681 C679 1.419 . S
C681 C682 1.362 . S
C682 H674 0.930 . S
C682 C681 1.362 . S
C682 C685 1.409 . S
C683 H675 0.930 . S
C683 C684 1.355 . S
C683 C685 1.415 . S
C684 C683 1.355 . S
C684 C686 1.419 . S
C685 C680 1.425 . S
C685 C682 1.409 . S
C685 C683 1.415 . S
C686 H676 0.930 . S
C686 C684 1.419 . S
C686 C687 1.362 . S
C687 H677 0.930 . S
C687 C680 1.409 . S
C687 C686 1.362 . S
H688 C694 0.930 . S
H689 C697 0.930 . S
H690 C698 0.930 . S
H691 C699 0.930 . S
H692 C702 0.933 . S
H693 C703 0.930 . S
C694 H688 0.930 . S
C694 C695 1.355 . S
C694 C696 1.415 . S
C695 C694 1.355 . S
C695 C697 1.419 . S
C696 C694 1.415 . S
C696 C701 1.425 . S
C696 C703 1.409 . S
C697 H689 0.930 . S
C697 C695 1.419 . S
C697 C698 1.362 . S
C698 H690 0.930 . S
C698 C697 1.362 . S
C698 C701 1.409 . S
C699 H691 0.930 . S
C699 C700 1.355 . S
C699 C701 1.415 . S
C700 C699 1.355 . S
C700 C702 1.418 1_556 S
C701 C696 1.425 . S
C701 C698 1.409 . S
C701 C699 1.415 . S
C702 H692 0.933 . S
C702 C700 1.418 1_554 S
C702 C703 1.360 1_554 S
C703 H693 0.930 . S
C703 C696 1.409 . S
C703 C702 1.360 1_556 S
H704 C710 0.930 . S
H705 C713 0.930 . S
H706 C714 0.930 . S
H707 C715 0.930 . S
H708 C718 0.930 . S
H709 C719 0.930 . S
C710 H704 0.930 . S
C710 C711 1.355 . S
C710 C712 1.415 . S
C711 C710 1.355 . S
C711 C713 1.419 . S
C712 C710 1.415 . S
C712 C717 1.425 . S
C712 C719 1.409 . S
C713 H705 0.930 . S
C713 C711 1.419 . S
C713 C714 1.362 . S
C714 H706 0.930 . S
C714 C713 1.362 . S
C714 C717 1.409 . S
C715 H707 0.930 . S
C715 C716 1.355 . S
C715 C717 1.415 . S
C716 C715 1.355 . S
C716 C718 1.419 . S
C717 C712 1.425 . S
C717 C714 1.409 . S
C717 C715 1.415 . S
C718 H708 0.930 . S
C718 C716 1.419 . S
C718 C719 1.362 . S
C719 H709 0.930 . S
C719 C712 1.409 . S
C719 C718 1.362 . S
H720 C726 0.930 1_655 S
H721 C729 0.930 . S
H722 C730 0.930 . S
H723 C731 0.930 . S
H724 C734 0.930 . S
H725 C735 0.930 . S
C726 H720 0.930 1_455 S
C726 C727 1.355 . S
C726 C728 1.415 . S
C727 C726 1.355 . S
C727 C729 1.419 . S
C728 C726 1.415 . S
C728 C733 1.425 . S
C728 C735 1.409 . S
C729 H721 0.930 . S
C729 C727 1.419 . S
C729 C730 1.362 . S
C730 H722 0.930 . S
C730 C729 1.362 . S
C730 C733 1.409 . S
C731 H723 0.930 . S
C731 C732 1.355 . S
C731 C733 1.415 . S
C732 C731 1.355 . S
C732 C734 1.419 . S
C733 C728 1.425 . S
C733 C730 1.409 . S
C733 C731 1.415 . S
C734 H724 0.930 . S
C734 C732 1.419 . S
C734 C735 1.362 . S
C735 H725 0.930 . S
C735 C728 1.409 . S
C735 C734 1.362 . S
H736 C742 0.930 . S
H737 C745 0.930 . S
H738 C746 0.930 . S
H739 C747 0.930 . S
H740 C750 0.930 . S
H741 C751 0.930 . S
C742 H736 0.930 . S
C742 C743 1.355 . S
C742 C744 1.415 . S
C743 C742 1.355 . S
C743 C745 1.419 . S
C744 C742 1.415 . S
C744 C749 1.425 . S
C744 C751 1.409 . S
C745 H737 0.930 . S
C745 C743 1.419 . S
C745 C746 1.362 . S
C746 H738 0.930 . S
C746 C745 1.362 . S
C746 C749 1.409 . S
C747 H739 0.930 . S
C747 C748 1.355 . S
C747 C749 1.415 . S
C748 C747 1.355 . S
C748 C750 1.419 . S
C749 C744 1.425 . S
C749 C746 1.409 . S
C749 C747 1.415 . S
C750 H740 0.930 . S
C750 C748 1.419 . S
C750 C751 1.362 . S
C751 H741 0.930 . S
C751 C744 1.409 . S
C751 C750 1.362 . S
H752 C758 0.930 . S
H753 C761 0.930 . S
H754 C762 0.930 . S
H755 C763 0.930 . S
H756 C766 0.930 . S
H757 C767 0.930 . S
C758 H752 0.930 . S
C758 C759 1.355 . S
C758 C760 1.415 . S
C759 C758 1.355 . S
C759 C761 1.419 . S
C760 C758 1.415 . S
C760 C765 1.425 . S
C760 C767 1.409 . S
C761 H753 0.930 . S
C761 C759 1.419 . S
C761 C762 1.362 . S
C762 H754 0.930 . S
C762 C761 1.362 . S
C762 C765 1.409 . S
C763 H755 0.930 . S
C763 C764 1.355 . S
C763 C765 1.415 . S
C764 C763 1.355 . S
C764 C766 1.419 . S
C765 C760 1.425 . S
C765 C762 1.409 . S
C765 C763 1.415 . S
C766 H756 0.930 . S
C766 C764 1.419 . S
C766 C767 1.362 . S
C767 H757 0.930 . S
C767 C760 1.409 . S
C767 C766 1.362 . S
H768 C774 0.930 . S
H769 C777 0.930 . S
H770 C778 0.930 . S
H771 C779 0.930 . S
H772 C782 0.930 . S
H773 C783 0.930 . S
C774 H768 0.930 . S
C774 C775 1.355 . S
C774 C776 1.415 . S
C775 C774 1.355 . S
C775 C777 1.419 . S
C776 C774 1.415 . S
C776 C781 1.425 . S
C776 C783 1.409 . S
C777 H769 0.930 . S
C777 C775 1.419 . S
C777 C778 1.362 . S
C778 H770 0.930 . S
C778 C777 1.362 . S
C778 C781 1.409 . S
C779 H771 0.930 . S
C779 C780 1.355 . S
C779 C781 1.415 . S
C780 C779 1.355 . S
C780 C782 1.419 . S
C781 C776 1.425 . S
C781 C778 1.409 . S
C781 C779 1.415 . S
C782 H772 0.930 . S
C782 C780 1.419 . S
C782 C783 1.362 . S
C783 H773 0.930 . S
C783 C776 1.409 . S
C783 C782 1.362 . S
H784 C790 0.930 . S
H785 C793 0.930 . S
H786 C794 0.930 . S
H787 C795 0.930 . S
H788 C798 0.930 . S
H789 C799 0.930 . S
C790 H784 0.930 . S
C790 C791 1.355 . S
C790 C792 1.415 . S
C791 C790 1.355 . S
C791 C793 1.419 . S
C792 C790 1.415 . S
C792 C797 1.425 . S
C792 C799 1.409 . S
C793 H785 0.930 . S
C793 C791 1.419 . S
C793 C794 1.362 . S
C794 H786 0.930 . S
C794 C793 1.362 . S
C794 C797 1.409 . S
C795 H787 0.930 . S
C795 C796 1.355 . S
C795 C797 1.415 . S
C796 C795 1.355 . S
C796 C798 1.419 . S
C797 C792 1.425 . S
C797 C794 1.409 . S
C797 C795 1.415 . S
C798 H788 0.930 . S
C798 C796 1.419 . S
C798 C799 1.362 . S
C799 H789 0.930 . S
C799 C792 1.409 . S
C799 C798 1.362 . S
H800 C806 0.930 . S
H801 C809 0.930 . S
H802 C810 0.930 . S
H803 C811 0.930 . S
H804 C814 0.930 . S
H805 C815 0.930 . S
C806 H800 0.930 . S
C806 C807 1.355 . S
C806 C808 1.415 . S
C807 C806 1.355 . S
C807 C809 1.419 . S
C808 C806 1.415 . S
C808 C813 1.425 . S
C808 C815 1.409 . S
C809 H801 0.930 . S
C809 C807 1.419 . S
C809 C810 1.362 . S
C810 H802 0.930 . S
C810 C809 1.362 . S
C810 C813 1.409 . S
C811 H803 0.930 . S
C811 C812 1.355 . S
C811 C813 1.415 . S
C812 C811 1.355 . S
C812 C814 1.419 . S
C813 C808 1.425 . S
C813 C810 1.409 . S
C813 C811 1.415 . S
C814 H804 0.930 . S
C814 C812 1.419 . S
C814 C815 1.362 . S
C815 H805 0.930 . S
C815 C808 1.409 . S
C815 C814 1.362 . S
H816 C822 0.930 . S
H817 C825 0.930 . S
H818 C826 0.930 . S
H819 C827 0.930 . S
H820 C830 0.930 . S
H821 C831 0.930 . S
C822 H816 0.930 . S
C822 C823 1.355 . S
C822 C824 1.415 . S
C823 C822 1.355 . S
C823 C825 1.419 . S
C824 C822 1.415 . S
C824 C829 1.425 . S
C824 C831 1.409 . S
C825 H817 0.930 . S
C825 C823 1.419 . S
C825 C826 1.362 . S
C826 H818 0.930 . S
C826 C825 1.362 . S
C826 C829 1.409 . S
C827 H819 0.930 . S
C827 C828 1.355 . S
C827 C829 1.415 . S
C828 C827 1.355 . S
C828 C830 1.419 . S
C829 C824 1.425 . S
C829 C826 1.409 . S
C829 C827 1.415 . S
C830 H820 0.930 . S
C830 C828 1.419 . S
C830 C831 1.362 . S
C831 H821 0.930 . S
C831 C824 1.409 . S
C831 C830 1.362 . S
H832 C838 0.930 . S
H833 C841 0.930 . S
H834 C842 0.930 . S
H835 C843 0.930 . S
H836 C846 0.930 . S
H837 C847 0.930 . S
C838 H832 0.930 . S
C838 C839 1.355 . S
C838 C840 1.415 . S
C839 C838 1.355 . S
C839 C841 1.419 . S
C840 C838 1.415 . S
C840 C845 1.425 . S
C840 C847 1.409 . S
C841 H833 0.930 . S
C841 C839 1.419 . S
C841 C842 1.362 . S
C842 H834 0.930 . S
C842 C841 1.362 . S
C842 C845 1.409 . S
C843 H835 0.930 . S
C843 C844 1.355 . S
C843 C845 1.415 . S
C844 C843 1.355 . S
C844 C846 1.419 . S
C845 C840 1.425 . S
C845 C842 1.409 . S
C845 C843 1.415 . S
C846 H836 0.930 . S
C846 C844 1.419 . S
C846 C847 1.362 . S
C847 H837 0.930 . S
C847 C840 1.409 . S
C847 C846 1.362 . S
H848 C854 0.930 . S
H849 C857 0.930 . S
H850 C858 0.930 1_556 S
H851 C859 0.930 . S
H852 C862 0.930 . S
H853 C863 0.930 . S
C854 H848 0.930 . S
C854 C855 1.355 . S
C854 C856 1.415 . S
C855 C854 1.355 . S
C855 C857 1.419 1_554 S
C856 C854 1.415 . S
C856 C861 1.425 . S
C856 C863 1.409 . S
C857 H849 0.930 . S
C857 C855 1.419 1_556 S
C857 C858 1.362 1_556 S
C858 H850 0.930 1_554 S
C858 C857 1.362 1_554 S
C858 C861 1.409 . S
C859 H851 0.930 . S
C859 C860 1.355 . S
C859 C861 1.415 . S
C860 C859 1.355 . S
C860 C862 1.419 . S
C861 C856 1.425 . S
C861 C858 1.409 . S
C861 C859 1.415 . S
C862 H852 0.930 . S
C862 C860 1.419 . S
C862 C863 1.362 . S
C863 H853 0.930 . S
C863 C856 1.409 . S
C863 C862 1.362 . S
H864 C870 0.930 . S
H865 C873 0.930 . S
H866 C874 0.930 . S
H867 C875 0.930 1_554 S
H868 C878 0.930 . S
H869 C879 0.930 . S
C870 H864 0.930 . S
C870 C871 1.355 . S
C870 C872 1.415 . S
C871 C870 1.355 . S
C871 C873 1.419 . S
C872 C870 1.415 . S
C872 C877 1.425 . S
C872 C879 1.409 . S
C873 H865 0.930 . S
C873 C871 1.419 . S
C873 C874 1.362 . S
C874 H866 0.930 . S
C874 C873 1.362 . S
C874 C877 1.409 . S
C875 H867 0.930 1_556 S
C875 C876 1.355 . S
C875 C877 1.415 . S
C876 C875 1.355 . S
C876 C878 1.419 . S
C877 C872 1.425 . S
C877 C874 1.409 . S
C877 C875 1.415 . S
C878 H868 0.930 . S
C878 C876 1.419 . S
C878 C879 1.362 . S
C879 H869 0.930 . S
C879 C872 1.409 . S
C879 C878 1.362 . S
H880 C886 0.930 . S
H881 C889 0.930 . S
H882 C890 0.930 . S
H883 C891 0.930 . S
H884 C894 0.930 1_655 S
H885 C895 0.930 . S
C886 H880 0.930 . S
C886 C887 1.355 . S
C886 C888 1.415 . S
C887 C886 1.355 . S
C887 C889 1.419 . S
C888 C886 1.415 . S
C888 C893 1.425 . S
C888 C895 1.409 . S
C889 H881 0.930 . S
C889 C887 1.419 . S
C889 C890 1.362 . S
C890 H882 0.930 . S
C890 C889 1.362 . S
C890 C893 1.409 . S
C891 H883 0.930 . S
C891 C892 1.355 . S
C891 C893 1.415 . S
C892 C891 1.355 . S
C892 C894 1.419 . S
C893 C888 1.425 . S
C893 C890 1.409 . S
C893 C891 1.415 . S
C894 H884 0.930 1_455 S
C894 C892 1.419 . S
C894 C895 1.362 . S
C895 H885 0.930 . S
C895 C888 1.409 . S
C895 C894 1.362 . S
H896 C902 0.930 . S
H897 C905 0.930 . S
H898 C906 0.930 . S
H899 C907 0.930 . S
H900 C910 0.930 . S
H901 C911 0.930 . S
C902 H896 0.930 . S
C902 C903 1.355 . S
C902 C904 1.415 . S
C903 C902 1.355 . S
C903 C905 1.419 . S
C904 C902 1.415 . S
C904 C909 1.425 . S
C904 C911 1.409 . S
C905 H897 0.930 . S
C905 C903 1.419 . S
C905 C906 1.362 . S
C906 H898 0.930 . S
C906 C905 1.362 . S
C906 C909 1.409 . S
C907 H899 0.930 . S
C907 C908 1.355 . S
C907 C909 1.415 . S
C908 C907 1.355 . S
C908 C910 1.419 . S
C909 C904 1.425 . S
C909 C906 1.409 . S
C909 C907 1.415 . S
C910 H900 0.930 . S
C910 C908 1.419 . S
C910 C911 1.362 . S
C911 H901 0.930 . S
C911 C904 1.409 . S
C911 C910 1.362 . S
H912 C918 0.930 . S
H913 C921 0.930 . S
H914 C922 0.930 . S
H915 C923 0.930 . S
H916 C926 0.930 . S
H917 C927 0.930 . S
C918 H912 0.930 . S
C918 C919 1.355 . S
C918 C920 1.415 . S
C919 C918 1.355 . S
C919 C921 1.419 . S
C920 C918 1.415 . S
C920 C925 1.425 . S
C920 C927 1.409 . S
C921 H913 0.930 . S
C921 C919 1.419 . S
C921 C922 1.362 . S
C922 H914 0.930 . S
C922 C921 1.362 . S
C922 C925 1.409 . S
C923 H915 0.930 . S
C923 C924 1.355 . S
C923 C925 1.415 . S
C924 C923 1.355 . S
C924 C926 1.419 . S
C925 C920 1.425 . S
C925 C922 1.409 . S
C925 C923 1.415 . S
C926 H916 0.930 . S
C926 C924 1.419 . S
C926 C927 1.362 . S
C927 H917 0.930 . S
C927 C920 1.409 . S
C927 C926 1.362 . S
H928 C934 0.930 . S
H929 C937 0.930 . S
H930 C938 0.930 . S
H931 C939 0.930 . S
H932 C942 0.930 . S
H933 C943 0.930 . S
C934 H928 0.930 . S
C934 C935 1.355 . S
C934 C936 1.415 . S
C935 C934 1.355 . S
C935 C937 1.419 . S
C936 C934 1.415 . S
C936 C941 1.425 . S
C936 C943 1.409 . S
C937 H929 0.930 . S
C937 C935 1.419 . S
C937 C938 1.362 . S
C938 H930 0.930 . S
C938 C937 1.362 . S
C938 C941 1.409 . S
C939 H931 0.930 . S
C939 C940 1.355 . S
C939 C941 1.415 . S
C940 C939 1.355 . S
C940 C942 1.419 . S
C941 C936 1.425 . S
C941 C938 1.409 . S
C941 C939 1.415 . S
C942 H932 0.930 . S
C942 C940 1.419 . S
C942 C943 1.362 . S
C943 H933 0.930 . S
C943 C936 1.409 . S
C943 C942 1.362 . S
H944 C950 0.930 . S
H945 C953 0.930 . S
H946 C954 0.930 . S
H947 C955 0.930 . S
H948 C958 0.930 . S
H949 C959 0.930 . S
C950 H944 0.930 . S
C950 C951 1.355 . S
C950 C952 1.415 . S
C951 C950 1.355 . S
C951 C953 1.419 . S
C952 C950 1.415 . S
C952 C957 1.425 . S
C952 C959 1.409 . S
C953 H945 0.930 . S
C953 C951 1.419 . S
C953 C954 1.362 . S
C954 H946 0.930 . S
C954 C953 1.362 . S
C954 C957 1.409 . S
C955 H947 0.930 . S
C955 C956 1.355 . S
C955 C957 1.415 . S
C956 C955 1.355 . S
C956 C958 1.419 . S
C957 C952 1.425 . S
C957 C954 1.409 . S
C957 C955 1.415 . S
C958 H948 0.930 . S
C958 C956 1.419 . S
C958 C959 1.362 . S
C959 H949 0.930 . S
C959 C952 1.409 . S
C959 C958 1.362 . S
H960 C966 0.930 . S
H961 C969 0.930 . S
H962 C970 0.930 . S
H963 C971 0.930 . S
H964 C974 0.930 . S
H965 C975 0.930 . S
C966 H960 0.930 . S
C966 C967 1.355 . S
C966 C968 1.415 . S
C967 C966 1.355 . S
C967 C969 1.419 . S
C968 C966 1.415 . S
C968 C973 1.425 . S
C968 C975 1.409 . S
C969 H961 0.930 . S
C969 C967 1.419 . S
C969 C970 1.362 . S
C970 H962 0.930 . S
C970 C969 1.362 . S
C970 C973 1.409 . S
C971 H963 0.930 . S
C971 C972 1.355 . S
C971 C973 1.415 . S
C972 C971 1.355 . S
C972 C974 1.419 . S
C973 C968 1.425 . S
C973 C970 1.409 . S
C973 C971 1.415 . S
C974 H964 0.930 . S
C974 C972 1.419 . S
C974 C975 1.362 . S
C975 H965 0.930 . S
C975 C968 1.409 . S
C975 C974 1.362 . S
H976 C982 0.930 . S
H977 C985 0.930 . S
H978 C986 0.930 . S
H979 C987 0.930 . S
H980 C990 0.930 . S
H981 C991 0.930 . S
C982 H976 0.930 . S
C982 C983 1.355 . S
C982 C984 1.415 . S
C983 C982 1.355 . S
C983 C985 1.419 . S
C984 C982 1.415 . S
C984 C989 1.425 . S
C984 C991 1.409 . S
C985 H977 0.930 . S
C985 C983 1.419 . S
C985 C986 1.362 . S
C986 H978 0.930 . S
C986 C985 1.362 . S
C986 C989 1.409 . S
C987 H979 0.930 . S
C987 C988 1.355 . S
C987 C989 1.415 . S
C988 C987 1.355 . S
C988 C990 1.419 . S
C989 C984 1.425 . S
C989 C986 1.409 . S
C989 C987 1.415 . S
C990 H980 0.930 . S
C990 C988 1.419 . S
C990 C991 1.362 . S
C991 H981 0.930 . S
C991 C984 1.409 . S
C991 C990 1.362 . S
H992 C998 0.930 . S
H993 C1001 0.930 . S
H994 C1002 0.970 . S
H995 C1003 0.930 1_455 S
H996 C1006 0.930 . S
H997 C1007 0.930 . S
C998 H992 0.930 . S
C998 C999 1.355 . S
C998 C1000 1.415 . S
C999 C998 1.355 . S
C999 C1001 1.419 . S
C1000 C998 1.415 . S
C1000 C1005 1.425 . S
C1000 C1007 1.409 . S
C1001 H993 0.930 . S
C1001 C999 1.419 . S
C1001 C1002 1.362 . S
C1002 H994 0.970 . S
C1002 C1001 1.362 . S
C1002 C1005 1.409 . S
C1003 H995 0.930 1_655 S
C1003 C1004 1.355 . S
C1003 C1005 1.415 . S
C1004 C1003 1.355 . S
C1004 C1006 1.419 . S
C1005 C1000 1.425 . S
C1005 C1002 1.409 . S
C1005 C1003 1.415 . S
C1006 H996 0.930 . S
C1006 C1004 1.419 . S
C1006 C1007 1.362 . S
C1007 H997 0.930 . S
C1007 C1000 1.409 . S
C1007 C1006 1.362 . S
H1008 C1014 0.930 . S
H1009 C1017 0.930 . S
H1010 C1018 0.930 . S
H1011 C1019 0.930 . S
H1012 C1022 0.930 . S
H1013 C1023 0.930 . S
C1014 H1008 0.930 . S
C1014 C1015 1.355 . S
C1014 C1016 1.415 . S
C1015 C1014 1.355 . S
C1015 C1017 1.419 . S
C1016 C1014 1.415 . S
C1016 C1021 1.425 . S
C1016 C1023 1.409 . S
C1017 H1009 0.930 . S
C1017 C1015 1.419 . S
C1017 C1018 1.362 . S
C1018 H1010 0.930 . S
C1018 C1017 1.362 . S
C1018 C1021 1.409 . S
C1019 H1011 0.930 . S
C1019 C1020 1.355 . S
C1019 C1021 1.415 . S
C1020 C1019 1.355 . S
C1020 C1022 1.419 . S
C1021 C1016 1.425 . S
C1021 C1018 1.409 . S
C1021 C1019 1.415 . S
C1022 H1012 0.930 . S
C1022 C1020 1.419 . S
C1022 C1023 1.362 . S
C1023 H1013 0.930 . S
C1023 C1016 1.409 . S
C1023 C1022 1.362 . S
H1024 C1030 0.930 . S
H1025 C1033 0.930 . S
H1026 C1034 0.930 . S
H1027 C1035 0.930 . S
H1028 C1038 0.930 . S
H1029 C1039 0.930 . S
C1030 H1024 0.930 . S
C1030 C1031 1.355 . S
C1030 C1032 1.415 . S
C1031 C1030 1.355 . S
C1031 C1033 1.419 . S
C1032 C1030 1.415 . S
C1032 C1037 1.425 . S
C1032 C1039 1.409 . S
C1033 H1025 0.930 . S
C1033 C1031 1.419 . S
C1033 C1034 1.362 . S
C1034 H1026 0.930 . S
C1034 C1033 1.362 . S
C1034 C1037 1.409 . S
C1035 H1027 0.930 . S
C1035 C1036 1.355 . S
C1035 C1037 1.415 . S
C1036 C1035 1.355 . S
C1036 C1038 1.419 . S
C1037 C1032 1.425 . S
C1037 C1034 1.409 . S
C1037 C1035 1.415 . S
C1038 H1028 0.930 . S
C1038 C1036 1.419 . S
C1038 C1039 1.362 . S
C1039 H1029 0.930 . S
C1039 C1032 1.409 . S
C1039 C1038 1.362 . S
H1040 C1046 0.930 . S
H1041 C1049 0.930 . S
H1042 C1050 0.930 . S
H1043 C1051 0.930 . S
H1044 C1054 0.930 . S
H1045 C1055 0.930 . S
C1046 H1040 0.930 . S
C1046 C1047 1.355 . S
C1046 C1048 1.415 . S
C1047 C1046 1.355 . S
C1047 C1049 1.419 . S
C1048 C1046 1.415 . S
C1048 C1053 1.425 . S
C1048 C1055 1.409 . S
C1049 H1041 0.930 . S
C1049 C1047 1.419 . S
C1049 C1050 1.362 . S
C1050 H1042 0.930 . S
C1050 C1049 1.362 . S
C1050 C1053 1.409 . S
C1051 H1043 0.930 . S
C1051 C1052 1.355 . S
C1051 C1053 1.415 . S
C1052 C1051 1.355 . S
C1052 C1054 1.419 . S
C1053 C1048 1.425 . S
C1053 C1050 1.409 . S
C1053 C1051 1.415 . S
C1054 H1044 0.930 . S
C1054 C1052 1.419 . S
C1054 C1055 1.362 . S
C1055 H1045 0.930 . S
C1055 C1048 1.409 . S
C1055 C1054 1.362 . S
H1056 C1062 0.930 . S
H1057 C1065 0.930 . S
H1058 C1066 0.930 . S
H1059 C1067 0.930 . S
H1060 C1070 0.930 . S
H1061 C1071 0.930 . S
C1062 H1056 0.930 . S
C1062 C1063 1.355 . S
C1062 C1064 1.415 . S
C1063 C1062 1.355 . S
C1063 C1065 1.419 . S
C1064 C1062 1.415 . S
C1064 C1069 1.425 . S
C1064 C1071 1.409 . S
C1065 H1057 0.930 . S
C1065 C1063 1.419 . S
C1065 C1066 1.362 . S
C1066 H1058 0.930 . S
C1066 C1065 1.362 . S
C1066 C1069 1.409 . S
C1067 H1059 0.930 . S
C1067 C1068 1.355 . S
C1067 C1069 1.415 . S
C1068 C1067 1.355 . S
C1068 C1070 1.419 . S
C1069 C1064 1.425 . S
C1069 C1066 1.409 . S
C1069 C1067 1.415 . S
C1070 H1060 0.930 . S
C1070 C1068 1.419 . S
C1070 C1071 1.362 . S
C1071 H1061 0.930 . S
C1071 C1064 1.409 . S
C1071 C1070 1.362 . S
H1072 C1078 0.930 . S
H1073 C1081 0.930 . S
H1074 C1082 0.930 . S
H1075 C1083 0.930 . S
H1076 C1086 0.930 . S
H1077 C1087 0.930 . S
C1078 H1072 0.930 . S
C1078 C1079 1.355 . S
C1078 C1080 1.415 . S
C1079 C1078 1.355 . S
C1079 C1081 1.419 . S
C1080 C1078 1.415 . S
C1080 C1085 1.425 . S
C1080 C1087 1.409 . S
C1081 H1073 0.930 . S
C1081 C1079 1.419 . S
C1081 C1082 1.362 . S
C1082 H1074 0.930 . S
C1082 C1081 1.362 . S
C1082 C1085 1.409 . S
C1083 H1075 0.930 . S
C1083 C1084 1.355 . S
C1083 C1085 1.415 . S
C1084 C1083 1.355 . S
C1084 C1086 1.419 . S
C1085 C1080 1.425 . S
C1085 C1082 1.409 . S
C1085 C1083 1.415 . S
C1086 H1076 0.930 . S
C1086 C1084 1.419 . S
C1086 C1087 1.362 . S
C1087 H1077 0.930 . S
C1087 C1080 1.409 . S
C1087 C1086 1.362 . S
H1088 C1094 0.930 . S
H1089 C1097 0.930 . S
H1090 C1098 0.930 . S
H1091 C1099 0.930 . S
H1092 C1102 0.930 . S
H1093 C1103 0.930 . S
C1094 H1088 0.930 . S
C1094 C1095 1.355 . S
C1094 C1096 1.415 . S
C1095 C1094 1.355 . S
C1095 C1097 1.419 . S
C1096 C1094 1.415 . S
C1096 C1101 1.425 . S
C1096 C1103 1.409 . S
C1097 H1089 0.930 . S
C1097 C1095 1.419 . S
C1097 C1098 1.362 . S
C1098 H1090 0.930 . S
C1098 C1097 1.362 . S
C1098 C1101 1.409 . S
C1099 H1091 0.930 . S
C1099 C1100 1.355 . S
C1099 C1101 1.415 . S
C1100 C1099 1.355 . S
C1100 C1102 1.419 . S
C1101 C1096 1.425 . S
C1101 C1098 1.409 . S
C1101 C1099 1.415 . S
C1102 H1092 0.930 . S
C1102 C1100 1.419 . S
C1102 C1103 1.362 . S
C1103 H1093 0.930 . S
C1103 C1096 1.409 . S
C1103 C1102 1.362 . S
C343 C106 1.241 . S
C348 C8 1.393 . S
C359 C23 0.956 . S
C364 C65 0.939 . S
C375 C78 1.086 . S
C380 C36 1.344 . S
C391 C51 1.096 . S
C396 C93 1.055 . S
C407 C120 1.322 . S
C412 C9 1.095 . S
C423 C22 0.904 . S
C428 C135 0.974 . S
C439 C148 1.388 . S
C444 C37 1.235 . S
C455 C162 0.920 . S
C460 C50 0.879 . S
C471 C64 0.831 . S
C476 C134 0.775 . S
C487 C79 1.135 . S
C492 C149 0.932 . S
C503 C163 0.783 . S
C508 C92 0.833 . S
C519 C121 1.105 . S
C524 C107 1.326 . S
C535 C303 1.100 . S
C540 C176 1.334 . S
C551 C191 1.066 . S
C556 C317 1.008 . S
C567 C204 1.419 . S
C572 C330 1.240 . S
C583 C331 1.201 . S
C588 C218 1.069 . S
C599 C232 1.120 . S
C604 C302 1.359 . S
C615 C274 0.995 . S
C620 C246 0.850 . S
C631 C177 1.035 . S
C636 C233 1.186 . S
C647 C190 0.777 . S
C652 C260 0.831 . S
C663 C205 1.112 . S
C668 C219 1.338 . S
C679 C247 1.053 . S
C684 C288 0.949 . S
C695 C261 0.972 . S
C700 C316 0.984 . S
C711 C289 1.056 . S
C716 C275 0.963 . S
C727 C62 1.790 . S
C732 C7 1.801 . S
C743 C77 1.510 . S
C748 C20 1.503 . S
C759 C90 1.847 . S
C764 C35 1.885 . S
C775 C105 1.746 . S
C780 C48 1.795 . S
C791 C119 1.801 . S
C796 C160 1.781 . S
C807 C132 1.763 . S
C812 C118 1.788 . S
C823 C147 1.622 . S
C828 C133 1.586 . S
C839 C146 1.380 . S
C844 C161 1.354 . S
C855 C258 1.793 . S
C860 C104 1.754 . S
C871 C175 1.583 . S
C876 C49 1.504 . S
C887 C6 1.721 . S
C892 C188 1.769 . S
C903 C21 1.887 . S
C908 C203 1.860 . S
C919 C76 1.715 . S
C924 C272 1.698 . S
C935 C63 1.352 . S
C940 C217 1.380 . S
C951 C91 1.463 . S
C956 C231 1.466 . S
C967 C230 1.733 . S
C972 C245 1.714 . S
C983 C174 1.344 . S
C988 C259 1.391 . S
C999 C216 1.597 . S
C1004 C189 1.514 . S
C1015 C273 1.896 . S
C1020 C202 1.876 . S
C1031 C287 1.658 . S
C1036 C328 1.696 . S
C1047 C286 1.893 . S
C1052 C300 1.875 . S
C1063 C314 1.852 . S
C1068 C301 1.868 . S
C1079 C329 1.498 . S
C1084 C315 1.464 . S
C1095 C34 1.879 . S
C1100 C244 1.910 . S
