# Generated by pormake.
# Topology smu, (6)-cn, num edge types: 1
# Building blocks:
#     Node 0, Type 0, BuildingBlock: BETDIP_clean_sbu_0, # of connection points: 6
#     Node 1, Type 0, BuildingBlock: BETDIP_clean_sbu_0, # of connection points: 6
#     Node 2, Type 0, BuildingBlock: BETDIP_clean_sbu_0, # of connection points: 6
#     Node 3, Type 0, BuildingBlock: BETDIP_clean_sbu_0, # of connection points: 6
#     Node 4, Type 0, BuildingBlock: BETDIP_clean_sbu_0, # of connection points: 6
#     Node 5, Type 0, BuildingBlock: BETDIP_clean_sbu_0, # of connection points: 6
#     Edge 6, Type (0, 0), BuildingBlock: CIFDUS_clean_linker_0, # of connection points: 2
#     Edge 7, Type (0, 0), BuildingBlock: CIFDUS_clean_linker_0, # of connection points: 2
#     Edge 8, Type (0, 0), BuildingBlock: CIFDUS_clean_linker_0, # of connection points: 2
#     Edge 9, Type (0, 0), BuildingBlock: CIFDUS_clean_linker_0, # of connection points: 2
#     Edge 10, Type (0, 0), BuildingBlock: CIFDUS_clean_linker_0, # of connection points: 2
#     Edge 11, Type (0, 0), BuildingBlock: CIFDUS_clean_linker_0, # of connection points: 2
#     Edge 12, Type (0, 0), BuildingBlock: CIFDUS_clean_linker_0, # of connection points: 2
#     Edge 13, Type (0, 0), BuildingBlock: CIFDUS_clean_linker_0, # of connection points: 2
#     Edge 14, Type (0, 0), BuildingBlock: CIFDUS_clean_linker_0, # of connection points: 2
#     Edge 15, Type (0, 0), BuildingBlock: CIFDUS_clean_linker_0, # of connection points: 2
#     Edge 16, Type (0, 0), BuildingBlock: CIFDUS_clean_linker_0, # of connection points: 2
#     Edge 17, Type (0, 0), BuildingBlock: CIFDUS_clean_linker_0, # of connection points: 2
#     Edge 18, Type (0, 0), BuildingBlock: CIFDUS_clean_linker_0, # of connection points: 2
#     Edge 19, Type (0, 0), BuildingBlock: CIFDUS_clean_linker_0, # of connection points: 2
#     Edge 20, Type (0, 0), BuildingBlock: CIFDUS_clean_linker_0, # of connection points: 2
#     Edge 21, Type (0, 0), BuildingBlock: CIFDUS_clean_linker_0, # of connection points: 2
#     Edge 22, Type (0, 0), BuildingBlock: CIFDUS_clean_linker_0, # of connection points: 2
#     Edge 23, Type (0, 0), BuildingBlock: CIFDUS_clean_linker_0, # of connection points: 2
# Relax obj value: 0.232
# Max RMSD: 0.323
# Mean RMSD: 0.323
data_MOF--net-smu--node1-BETDIP_clean_sbu_0--edge1-CIFDUS_clean_linker_0
_symmetry_space_group_name_H-M    P1
_symmetry_Int_Tables_number       1
_symmetry_cell_setting            triclinic
loop_
_symmetry_equiv_pos_as_xyz
'x, y, z'
_cell_length_a     34.899209
_cell_length_b     34.869844
_cell_length_c     22.448587
_cell_angle_alpha  90.470033
_cell_angle_beta   90.139375
_cell_angle_gamma 120.27504
loop_
_atom_site_label
_atom_site_type_symbol
_atom_site_fract_x
_atom_site_fract_y
_atom_site_fract_z
_atom_type_partial_charge
Tb0 Tb 0.34014 0.05871 0.30646 0.0
Tb1 Tb 0.39835 0.15549 0.30678 0.0
C2 C 0.28777 0.97929 0.33162 0.0
C3 C 0.23873 0.95417 0.32783 0.0
C4 C 0.21417 0.92667 0.37497 0.0
C5 C 0.16809 0.90838 0.3772 0.0
C6 C 0.14543 0.91742 0.33247 0.0
C7 C 0.17014 0.94443 0.28465 0.0
C8 C 0.21623 0.96268 0.28246 0.0
C9 C 0.34532 0.0922 0.19919 0.0
C10 C 0.29964 0.12159 0.30326 0.0
C11 C 0.45121 0.23723 0.29753 0.0
C12 C 0.48233 0.28554 0.29105 0.0
C13 C 0.48819 0.30539 0.23512 0.0
C14 C 0.51625 0.35115 0.22871 0.0
C15 C 0.53884 0.37838 0.27816 0.0
C16 C 0.53233 0.35871 0.33448 0.0
C17 C 0.50453 0.31264 0.34079 0.0
C18 C 0.37083 0.11572 0.41266 0.0
C19 C 0.44415 0.0984 0.29059 0.0
O20 O 0.30342 1.01158 0.37108 0.0
O21 O 0.30982 0.99131 0.28133 0.0
O22 O 0.37706 0.10472 0.23628 0.0
O23 O 0.30977 0.06211 0.22438 0.0
O24 O 0.29549 0.0852 0.32774 0.0
O25 O 0.33751 0.15152 0.28114 0.0
O26 O 0.42021 0.21401 0.25797 0.0
O27 O 0.45363 0.21392 0.3413 0.0
O28 O 0.38427 0.10431 0.36873 0.0
O29 O 0.37092 0.15168 0.39851 0.0
O30 O 0.4472 0.13748 0.28497 0.0
O31 O 0.4055 0.06186 0.3023 0.0
H32 H 0.23086 0.92038 0.41109 0.0
H33 H 0.15026 0.88726 0.41425 0.0
H34 H 0.15411 0.95269 0.24977 0.0
H35 H 0.23437 0.98462 0.24624 0.0
H36 H 0.47123 0.28548 0.19608 0.0
H37 H 0.52036 0.36532 0.1848 0.0
H38 H 0.54955 0.37876 0.3733 0.0
H39 H 0.50015 0.29828 0.38461 0.0
Tb40 Tb 0.78022 0.74095 0.30132 0.0
Tb41 Tb 0.81609 0.68182 0.30301 0.0
C42 C 0.75423 0.79414 0.32578 0.0
C43 C 0.77964 0.84356 0.32681 0.0
C44 C 0.80306 0.86629 0.37873 0.0
C45 C 0.83005 0.91239 0.37959 0.0
C46 C 0.83392 0.9375 0.32895 0.0
C47 C 0.81037 0.91495 0.27692 0.0
C48 C 0.78356 0.86847 0.27584 0.0
C49 C 0.80924 0.73458 0.1947 0.0
C50 C 0.88347 0.77964 0.3004 0.0
C51 C 0.8418 0.62671 0.30179 0.0
C52 C 0.85636 0.59362 0.30249 0.0
C53 C 0.88667 0.59474 0.26038 0.0
C54 C 0.90167 0.5643 0.26329 0.0
C55 C 0.88657 0.53229 0.30838 0.0
C56 C 0.85711 0.53208 0.35118 0.0
C57 C 0.8421 0.56225 0.34818 0.0
C58 C 0.80406 0.7108 0.40856 0.0
C59 C 0.71412 0.63732 0.28279 0.0
O60 O 0.76679 0.77566 0.36592 0.0
O61 O 0.74643 0.77381 0.27383 0.0
O62 O 0.78867 0.703 0.23099 0.0
O63 O 0.81555 0.77058 0.22026 0.0
O64 O 0.85163 0.78466 0.32476 0.0
O65 O 0.87442 0.74143 0.27745 0.0
O66 O 0.85631 0.65929 0.26366 0.0
O67 O 0.81123 0.62409 0.33794 0.0
O68 O 0.77929 0.69703 0.36438 0.0
O69 O 0.83989 0.7107 0.3947 0.0
O70 O 0.74977 0.63419 0.27406 0.0
O71 O 0.71719 0.67594 0.2974 0.0
H72 H 0.8012 0.84839 0.41886 0.0
H73 H 0.84827 0.92832 0.42011 0.0
H74 H 0.81213 0.93321 0.23725 0.0
H75 H 0.76617 0.85209 0.23503 0.0
H76 H 0.89871 0.61904 0.22516 0.0
H77 H 0.92414 0.56509 0.22949 0.0
H78 H 0.84544 0.50834 0.3871 0.0
H79 H 0.81948 0.56112 0.38202 0.0
Tb80 Tb 1.02029 0.30404 0.29804 0.0
Tb81 Tb 0.92529 0.25643 0.29775 0.0
C82 C 0.09811 0.32201 0.32067 0.0
C83 C 0.11722 0.29247 0.32364 0.0
C84 C 0.14185 0.29373 0.37384 0.0
C85 C 0.15899 0.26511 0.37799 0.0
C86 C 0.15182 0.2344 0.33198 0.0
C87 C 0.12655 0.23281 0.28203 0.0
C88 C 0.10938 0.26137 0.27797 0.0
C89 C 0.99008 0.29944 0.19014 0.0
C90 C 0.96324 0.19764 0.28542 0.0
C91 C 0.84297 0.22504 0.28944 0.0
C92 C 0.79435 0.20652 0.28441 0.0
C93 C 0.776 0.21153 0.23149 0.0
C94 C 0.7305 0.19569 0.22679 0.0
C95 C 0.70198 0.17502 0.27525 0.0
C96 C 0.7202 0.16889 0.32786 0.0
C97 C 0.76592 0.18441 0.33232 0.0
C98 C 0.9666 0.27691 0.40427 0.0
C99 C 0.97562 0.36177 0.29612 0.0
O100 O 0.06948 0.31637 0.36213 0.0
O101 O 0.08511 0.3271 0.26811 0.0
O102 O 0.97334 0.26744 0.2273 0.0
O103 O 1.0225 0.33422 0.21533 0.0
O104 O 0.99839 0.23217 0.31001 0.0
O105 O 0.93107 0.20229 0.26419 0.0
O106 O 0.87121 0.25366 0.25166 0.0
O107 O 0.86122 0.21397 0.33171 0.0
O108 O 0.97441 0.30004 0.35976 0.0
O109 O 0.9331 0.23827 0.39153 0.0
O110 O 0.9396 0.32385 0.28188 0.0
O111 O 1.01281 0.36264 0.3122 0.0
H112 H 0.14786 0.31693 0.40998 0.0
H113 H 0.17861 0.26771 0.41686 0.0
H114 H 0.11961 0.20917 0.24618 0.0
H115 H 0.0897 0.25883 0.23913 0.0
H116 H 0.79688 0.22796 0.19358 0.0
H117 H 0.71772 0.20016 0.18502 0.0
H118 H 0.69946 0.15349 0.36623 0.0
H119 H 0.77915 0.18002 0.37376 0.0
Tb120 Tb 0.11758 0.40006 0.79337 0.0
Tb121 Tb 0.15224 0.33624 0.78881 0.0
C122 C 0.09107 0.45412 0.81227 0.0
C123 C 0.11427 0.50321 0.8079 0.0
C124 C 0.15831 0.53014 0.82798 0.0
C125 C 0.18073 0.57625 0.81974 0.0
C126 C 0.15971 0.59659 0.79104 0.0
C127 C 0.11539 0.56939 0.77175 0.0
C128 C 0.0931 0.52336 0.77986 0.0
C129 C 0.13055 0.37747 0.68322 0.0
C130 C 0.21828 0.43809 0.78753 0.0
C131 C 0.19588 0.29918 0.7647 0.0
C132 C 0.20356 0.26308 0.78034 0.0
C133 C 0.22349 0.24933 0.73786 0.0
C134 C 0.23718 0.21948 0.75311 0.0
C135 C 0.23116 0.20298 0.81125 0.0
C136 C 0.20998 0.21588 0.85348 0.0
C137 C 0.19631 0.2459 0.83814 0.0
C138 C 0.12447 0.34334 0.89436 0.0
C139 C 0.05025 0.29595 0.78953 0.0
O140 O 0.10419 0.43768 0.85449 0.0
O141 O 0.08474 0.43267 0.76191 0.0
O142 O 0.11773 0.35467 0.72914 0.0
O143 O 0.13816 0.41653 0.69945 0.0
O144 O 0.18781 0.44481 0.81142 0.0
O145 O 0.20736 0.40002 0.76177 0.0
O146 O 0.15858 0.28901 0.73756 0.0
O147 O 0.20799 0.33081 0.80476 0.0
O148 O 0.14443 0.37458 0.85738 0.0
O149 O 0.12557 0.30871 0.87553 0.0
O150 O 0.08309 0.28972 0.77259 0.0
O151 O 0.05631 0.33543 0.80616 0.0
H152 H 0.17577 0.51553 0.8492 0.0
H153 H 0.2149 0.59574 0.83458 0.0
H154 H 0.09763 0.58361 0.75044 0.0
H155 H 0.05933 0.50335 0.76359 0.0
H156 H 0.22949 0.26258 0.69317 0.0
H157 H 0.25239 0.20924 0.71932 0.0
H158 H 0.20487 0.2035 0.89858 0.0
H159 H 0.18123 0.25656 0.87161 0.0
Tb160 Tb 0.34939 0.96417 0.80345 0.0
Tb161 Tb 0.25297 0.92849 0.7923 0.0
C162 C 0.42887 0.98885 0.82635 0.0
C163 C 0.45196 0.96313 0.81845 0.0
C164 C 0.47178 0.95504 0.8675 0.0
C165 C 0.49042 0.92775 0.86164 0.0
C166 C 0.48993 0.90798 0.80636 0.0
C167 C 0.47016 0.91634 0.75721 0.0
C168 C 0.45124 0.9433 0.76321 0.0
C169 C 0.31958 0.95411 0.69073 0.0
C170 C 0.28828 0.8627 0.79037 0.0
C171 C 0.17273 0.88458 0.76372 0.0
C172 C 0.12759 0.87726 0.76579 0.0
C173 C 0.10476 0.86879 0.71165 0.0
C174 C 0.05972 0.85426 0.71069 0.0
C175 C 1.03646 0.84849 0.764 0.0
C176 C 0.05951 0.8578 0.81859 0.0
C177 C 0.10489 0.87198 0.81953 0.0
C178 C 0.28345 0.95327 0.90178 0.0
C179 C 0.31087 1.02995 0.80564 0.0
O180 O 0.39812 0.97427 0.86713 0.0
O181 O 0.41621 0.99995 0.7778 0.0
O182 O 0.30761 0.96702 0.73537 0.0
O183 O 0.34778 0.94319 0.71004 0.0
O184 O 0.32439 0.89351 0.81725 0.0
O185 O 0.26155 0.87349 0.76414 0.0
O186 O 0.20237 0.91751 0.73185 0.0
O187 O 0.18915 0.87733 0.812 0.0
O188 O 0.29594 0.93411 0.86474 0.0
O189 O 0.24963 0.9541 0.87951 0.0
O190 O 0.273 0.99722 0.78406 0.0
O191 O 0.34465 1.02436 0.82128 0.0
H192 H 0.47212 0.96918 0.91078 0.0
H193 H 0.50449 0.92156 0.90087 0.0
H194 H 0.46955 0.90236 0.71373 0.0
H195 H 0.43568 0.94819 0.7245 0.0
H196 H 0.12146 0.87173 0.66983 0.0
H197 H 1.04292 0.84651 0.6679 0.0
H198 H 1.04255 0.85411 0.86035 0.0
H199 H 0.12184 0.87782 0.862 0.0
Tb200 Tb 0.67866 0.7325 0.80065 0.0
Tb201 Tb 0.73997 0.82917 0.79207 0.0
C202 C 0.62444 0.6528 0.82273 0.0
C203 C 0.57539 0.62851 0.81496 0.0
C204 C 0.54771 0.61505 0.86501 0.0
C205 C 0.50168 0.59584 0.85848 0.0
C206 C 0.48204 0.58929 0.80159 0.0
C207 C 0.50982 0.60235 0.75148 0.0
C208 C 0.55582 0.62184 0.75805 0.0
C209 C 0.69525 0.76261 0.6885 0.0
C210 C 0.63931 0.79391 0.79105 0.0
C211 C 0.77434 0.90956 0.76773 0.0
C212 C 0.80854 0.95577 0.77717 0.0
C213 C 0.81157 0.98599 0.73446 0.0
C214 C 0.83809 1.03128 0.74477 0.0
C215 C 0.8633 0.04744 0.79756 0.0
C216 C 0.86095 1.01676 0.84005 0.0
C217 C 0.83332 0.97108 0.83014 0.0
C218 C 0.73603 0.79768 0.89939 0.0
C219 C 0.78317 0.7711 0.79442 0.0
O220 O 0.64047 0.68394 0.86383 0.0
O221 O 0.64808 0.66553 0.77415 0.0
O222 O 0.72128 0.77486 0.73216 0.0
O223 O 0.65669 0.73343 0.70864 0.0
O224 O 0.63386 0.7581 0.81775 0.0
O225 O 0.67633 0.81948 0.76319 0.0
O226 O 0.78436 0.88284 0.73925 0.0
O227 O 0.74609 0.89047 0.811 0.0
O228 O 0.70373 0.78574 0.86367 0.0
O229 O 0.7707 0.83165 0.8776 0.0
O230 O 0.78738 0.80892 0.77578 0.0
O231 O 0.74452 0.73771 0.81349 0.0
H232 H 0.56181 0.62024 0.90943 0.0
H233 H 0.48161 0.58693 0.89824 0.0
H234 H 0.49606 0.59725 0.7069 0.0
H235 H 0.576 0.63211 0.71834 0.0
H236 H 0.79187 0.97456 0.69389 0.0
H237 H 0.83779 0.05351 0.71167 0.0
H238 H 0.8803 1.02791 0.88083 0.0
H239 H 0.83065 0.94791 0.864 0.0
H240 H 0.28365 1.02613 0.94172 0.0
H241 H 0.33843 0.94281 0.98096 0.0
H242 H 0.37034 0.98481 0.0744 0.0
H243 H 0.37405 0.0397 0.15006 0.0
H244 H 0.31865 0.12207 0.10697 0.0
H245 H 0.29737 0.08755 1.00802 0.0
C246 C 0.30348 1.01774 0.96972 0.0
C247 C 0.3084 0.98119 0.95439 0.0
C248 C 0.32209 0.04243 1.02229 0.0
C249 C 0.3341 0.97073 0.99168 0.0
C250 C 0.35227 0.99477 1.04509 0.0
C251 C 0.35923 0.05145 0.11781 0.0
C252 C 0.34885 0.08425 0.13519 0.0
C253 C 0.34562 1.03014 0.0615 0.0
C254 C 0.32801 0.0979 0.09403 0.0
C255 C 0.31516 0.07757 1.03788 0.0
H256 H 0.77897 0.7842 0.65595 0.0
H257 H 0.64548 0.72645 0.58745 0.0
H258 H 0.66817 0.70594 0.49496 0.0
H259 H 0.72425 0.69969 0.43698 0.0
H260 H 0.85749 0.75502 0.50566 0.0
H261 H 0.8363 0.77993 0.59618 0.0
C262 C 0.75493 0.76755 0.62062 0.0
C263 C 0.71042 0.75678 0.62886 0.0
C264 C 0.76799 0.75458 0.56841 0.0
C265 C 0.6798 0.7352 0.58238 0.0
C266 C 0.69274 0.72316 0.52971 0.0
C267 C 0.74885 0.71747 0.47159 0.0
C268 C 0.79254 0.7257 0.4645 0.0
C269 C 0.73644 0.73183 0.52286 0.0
C270 C 0.82375 0.7483 0.51002 0.0
C271 C 0.81162 0.7627 0.56154 0.0
H272 H 1.02264 0.36511 0.11146 0.0
H273 H 0.97459 0.22488 0.12593 0.0
H274 H 1.0101 0.22626 1.03099 0.0
H275 H 0.06409 0.26987 0.95271 0.0
H276 H 0.12152 0.41208 0.94971 0.0
H277 H 0.07382 0.40782 1.03211 0.0
C278 C 1.01886 0.33451 0.09295 0.0
C279 C 0.99595 0.29492 0.12565 0.0
C280 C 1.04226 0.33641 1.04133 0.0
C281 C 0.99143 0.25561 0.10136 0.0
C282 C 1.01255 0.25667 1.04769 0.0
C283 C 0.06601 0.29996 0.9699 0.0
C284 C 0.09583 0.34137 0.94432 0.0
C285 C 1.03968 0.29728 1.01885 0.0
C286 C 0.09801 0.37989 0.96726 0.0
C287 C 0.07095 0.37739 1.01469 0.0
H288 H 0.38121 0.04661 0.44085 0.0
H289 H 0.32829 0.12591 0.5103 0.0
H290 H 0.3044 0.08037 0.60076 0.0
H291 H 0.30035 1.01878 0.66065 0.0
H292 H 0.35431 0.94069 0.58944 0.0
H293 H 0.37468 0.98413 0.49798 0.0
C294 C 0.36419 0.0539 0.4756 0.0
C295 C 0.35641 0.08963 0.46868 0.0
C296 C 0.35025 1.02734 0.52674 0.0
C297 C 0.33473 0.09873 0.51445 0.0
C298 C 0.32091 0.07251 0.56599 0.0
C299 C 0.316 1.01079 0.62479 0.0
C300 C 0.32573 0.97623 0.63203 0.0
C301 C 0.32855 0.0367 0.57265 0.0
C302 C 0.34632 0.9668 0.58513 0.0
C303 C 0.35824 0.99188 0.53298 0.0
H304 H 0.80798 0.79497 0.93666 0.0
H305 H 0.67009 0.74395 0.97705 0.0
H306 H 0.67878 0.71134 0.06926 0.0
H307 H 0.72873 0.70672 0.14443 0.0
H308 H 0.86682 0.76003 0.10341 0.0
H309 H 0.85476 0.78086 1.00422 0.0
C310 C 0.77962 0.77615 0.96524 0.0
C311 C 0.73858 0.77246 0.95072 0.0
C312 C 0.78495 0.75747 1.01766 0.0
C313 C 0.70201 0.74743 0.98754 0.0
C314 C 0.70707 0.72887 1.04023 0.0
C315 C 0.75562 0.72102 0.11259 0.0
C316 C 0.79849 0.73093 0.13053 0.0
C317 C 0.74871 0.73469 0.05653 0.0
C318 C 0.83346 0.75108 0.08996 0.0
C319 C 0.82667 0.76368 1.03368 0.0
H320 H 1.00692 0.24567 0.47993 0.0
H321 H 0.98307 0.35402 0.45177 0.0
H322 H 1.03618 0.39751 0.52996 0.0
H323 H 0.09027 0.40588 0.60577 0.0
H324 H 0.1144 0.29821 0.63758 0.0
H325 H 0.06157 0.25402 0.55842 0.0
C326 C 1.01242 0.27818 0.49247 0.0
C327 C 0.99012 0.29609 0.46129 0.0
C328 C 1.04424 0.30384 0.53693 0.0
C329 C 0.99897 0.33907 0.47621 0.0
C330 C 1.02986 0.36429 0.52034 0.0
C331 C 0.0849 0.37323 0.59436 0.0
C332 C 0.10718 0.3559 0.6266 0.0
C333 C 0.05322 0.34739 0.55041 0.0
C334 C 0.09858 0.31284 0.61235 0.0
C335 C 0.06779 0.28723 0.56769 0.0
H336 H 0.51596 0.15857 0.23247 0.0
H337 H 0.46955 0.04091 0.33838 0.0
H338 H 0.54569 0.05341 0.34249 0.0
H339 H 0.62689 0.10166 0.32052 0.0
H340 H 0.66971 0.22285 0.22283 0.0
H341 H 0.59358 0.2054 0.21224 0.0
C342 C 0.5221 0.13524 0.25637 0.0
C343 C 0.48692 0.09887 0.28526 0.0
C344 C 0.56567 0.14372 0.26061 0.0
C345 C 0.4958 0.0689 0.31517 0.0
C346 C 0.53948 0.07646 0.31813 0.0
C347 C 0.6195 0.12423 0.29705 0.0
C348 C 0.6544 0.16319 0.27136 0.0
C349 C 0.57497 0.11441 0.29197 0.0
C350 C 0.64392 0.19203 0.24139 0.0
C351 C 0.60023 0.18224 0.23558 0.0
H352 H 0.69307 0.56897 0.20857 0.0
H353 H 0.64135 0.60889 0.35539 0.0
H354 H 0.58146 0.53145 0.36763 0.0
H355 H 0.54797 0.45087 0.34125 0.0
H356 H 0.60336 0.41365 0.19541 0.0
H357 H 0.65804 0.49129 0.17884 0.0
C358 C 0.66805 0.56094 0.24241 0.0
C359 C 0.6714 0.59468 0.28065 0.0
C360 C 0.63491 0.51652 0.25015 0.0
C361 C 0.63895 0.58371 0.32453 0.0
C362 C 0.60518 0.53929 0.33213 0.0
C363 C 0.57199 0.45994 0.30582 0.0
C364 C 0.57144 0.4264 0.26942 0.0
C365 C 0.60354 0.50516 0.29614 0.0
C366 C 0.60266 0.43869 0.22354 0.0
C367 C 0.63401 0.48312 0.21404 0.0
H368 H 0.90003 0.35987 0.31985 0.0
H369 H 1.0379 0.45133 0.28315 0.0
H370 H 1.02279 0.51327 0.28341 0.0
H371 H 0.96854 0.54015 0.29144 0.0
H372 H 0.83094 0.44473 0.32588 0.0
H373 H 0.84791 0.38536 0.32874 0.0
C374 C 0.92703 0.39332 0.31163 0.0
C375 C 0.96996 0.40098 0.30074 0.0
C376 C 0.91798 0.42796 0.31138 0.0
C377 C 1.00457 0.44465 0.29169 0.0
C378 C 0.9958 0.47989 0.2915 0.0
C379 C 0.94239 0.5063 0.29933 0.0
C380 C 0.89853 0.497 0.309 0.0
C381 C 0.95238 0.4718 0.3007 0.0
C382 C 0.86502 0.45302 0.31944 0.0
C383 C 0.87462 0.41894 0.32079 0.0
H384 H 0.22149 0.66427 0.86285 0.0
H385 H 0.15303 0.64009 0.69394 0.0
H386 H 0.18774 0.71963 0.67818 0.0
H387 H 0.23519 0.79636 0.71363 0.0
H388 H 0.30755 0.82157 0.87892 0.0
H389 H 0.27454 0.74154 0.894 0.0
C390 C 0.2146 0.67622 0.82211 0.0
C391 C 0.18373 0.64567 0.78031 0.0
C392 C 0.2356 0.72239 0.81244 0.0
C393 C 0.17535 0.66237 0.72799 0.0
C394 C 0.1956 0.70804 0.71853 0.0
C395 C 0.24429 0.78434 0.75251 0.0
C396 C 0.27398 0.8149 0.79494 0.0
C397 C 0.22534 0.73835 0.76071 0.0
C398 C 0.28533 0.7988 0.84513 0.0
C399 C 0.26612 0.75299 0.85402 0.0
H400 H 0.56466 0.91818 0.86091 0.0
H401 H 0.46141 0.83279 0.7366 0.0
H402 H 0.49669 0.78815 0.72274 0.0
H403 H 0.5589 0.77453 0.74362 0.0
H404 H 0.66042 0.85964 0.86945 0.0
H405 H 0.62329 0.90226 0.88618 0.0
C406 C 0.54923 0.88936 0.8316 0.0
C407 C 0.51036 0.87929 0.79979 0.0
C408 C 0.56933 0.86337 0.8244 0.0
C409 C 0.49171 0.84212 0.76101 0.0
C410 C 0.51169 0.81621 0.75335 0.0
C411 C 0.57208 0.80176 0.77562 0.0
C412 C 0.61176 0.81356 0.80617 0.0
C413 C 0.5507 0.82662 0.78454 0.0
C414 C 0.62943 0.84964 0.8463 0.0
C415 C 0.60841 0.87419 0.85556 0.0
H416 H 0.2797 0.51212 0.72946 0.0
H417 H 0.26194 0.42693 0.87731 0.0
H418 H 0.34194 0.46681 0.89634 0.0
H419 H 0.41705 0.52227 0.86664 0.0
H420 H 0.43582 0.60924 0.71995 0.0
H421 H 0.3557 0.57206 0.70423 0.0
C422 C 0.29354 0.50316 0.7665 0.0
C423 C 0.26536 0.46733 0.80263 0.0
C424 C 0.33975 0.526 0.77674 0.0
C425 C 0.2833 0.45502 0.84971 0.0
C426 C 0.32897 0.47757 0.86029 0.0
C427 C 0.40379 0.53381 0.83192 0.0
C428 C 0.43285 0.56841 0.79433 0.0
C429 C 0.3576 0.51268 0.82354 0.0
C430 C 0.41458 0.58212 0.7489 0.0
C431 C 0.36862 0.56109 0.7401 0.0
H432 H 0.2463 0.12376 0.39088 0.0
H433 H 0.27378 0.1434 0.20311 0.0
H434 H 0.22847 0.17817 0.19435 0.0
H435 H 0.18832 0.21063 0.24182 0.0
H436 H 0.16052 0.19233 0.42991 0.0
H437 H 0.1988 0.15004 0.43689 0.0
C438 C 0.24087 0.1342 0.34785 0.0
C439 C 0.26269 0.13044 0.29755 0.0
C440 C 0.21565 0.15551 0.34341 0.0
C441 C 0.2567 0.14541 0.24225 0.0
C442 C 0.23118 0.16572 0.23731 0.0
C443 C 0.18967 0.19663 0.28418 0.0
C444 C 0.17179 0.20522 0.33533 0.0
C445 C 0.21157 0.17214 0.28788 0.0
C446 C 0.17473 0.18719 0.38993 0.0
C447 C 0.19636 0.16263 0.39393 0.0
H448 H 0.94017 0.82874 0.39065 0.0
H449 H 0.93126 0.80727 0.20067 0.0
H450 H 1.01192 0.84988 0.19292 0.0
H451 H 0.08488 0.88569 0.24122 0.0
H452 H 0.09516 0.90733 0.43156 0.0
H453 H 1.01455 0.87196 0.43818 0.0
C454 C 0.95603 0.83502 0.34749 0.0
C455 C 0.92996 0.81576 0.29616 0.0
C456 C 1.00278 0.85851 0.34357 0.0
C457 C 0.95079 0.8226 0.2406 0.0
C458 C 0.99692 0.8465 0.23623 0.0
C459 C 0.06972 0.88357 0.28409 0.0
C460 C 0.09636 0.89876 0.33584 0.0
C461 C 1.0233 0.86347 0.2876 0.0
C462 C 0.07564 0.89501 0.39103 0.0
C463 C 1.02944 0.87512 0.39486 0.0
H464 H 0.93053 0.14445 0.37932 0.0
H465 H 0.9714 0.1484 0.19781 0.0
H466 H 0.93615 0.06715 0.19543 0.0
H467 H 0.8877 0.99471 0.24268 0.0
H468 H 0.84146 0.99208 0.42174 0.0
H469 H 0.88488 0.07265 0.42766 0.0
C470 C 0.93314 0.12744 0.34018 0.0
C471 C 0.95483 0.15208 0.28957 0.0
C472 C 0.91098 0.08082 0.33839 0.0
C473 C 0.95623 0.12992 0.23793 0.0
C474 C 0.93545 0.08351 0.23634 0.0
C475 C 0.88704 1.01174 0.28295 0.0
C476 C 0.86131 0.987 0.33173 0.0
C477 C 0.91162 0.0585 0.28582 0.0
C478 C 0.86141 1.00989 0.38377 0.0
C479 C 0.88613 0.05615 0.3872 0.0
H480 H 0.30924 0.20738 0.7835 0.0
H481 H 0.18453 0.12658 0.87274 0.0
H482 H 0.20297 0.06863 0.88716 0.0
H483 H 0.24848 0.03703 0.86148 0.0
H484 H 0.37245 0.11436 0.77037 0.0
H485 H 0.36033 0.17813 0.76879 0.0
C486 C 0.28639 0.17719 0.80656 0.0
C487 C 0.24537 0.17093 0.82654 0.0
C488 C 0.29693 0.14366 0.81387 0.0
C489 C 0.21632 0.13219 0.85729 0.0
C490 C 0.22671 0.09898 0.86521 0.0
C491 C 0.27377 0.06846 0.84343 0.0
C492 C 0.31153 0.07162 0.81689 0.0
C493 C 0.26617 0.10393 0.84215 0.0
C494 C 0.34357 0.11181 0.79204 0.0
C495 C 0.33631 0.14786 0.7906 0.0
H496 H 0.96945 0.78952 0.83687 0.0
H497 H 0.99587 0.87479 0.68507 0.0
H498 H 0.91757 0.84873 0.67414 0.0
H499 H 0.84372 0.80755 0.71078 0.0
H500 H 0.81437 0.73064 0.87087 0.0
H501 H 0.89166 0.74632 0.87465 0.0
C502 C 0.95798 0.80254 0.80176 0.0
C503 C 0.98855 0.8336 0.76122 0.0
C504 C 0.91253 0.78847 0.79679 0.0
C505 C 0.97314 0.85005 0.71585 0.0
C506 C 0.92834 0.83531 0.70962 0.0
C507 C 0.85379 0.7934 0.74609 0.0
C508 C 0.82369 0.76825 0.79063 0.0
C509 C 0.89804 0.80498 0.74997 0.0
C510 C 0.83708 0.74987 0.8358 0.0
C511 C 0.88135 0.7595 0.83841 0.0
H512 H 0.99241 0.24702 0.87537 0.0
H513 H 1.01247 0.25877 0.6856 0.0
H514 H 0.95453 0.18157 0.67102 0.0
H515 H 0.90845 0.10917 0.71343 0.0
H516 H 0.88359 0.0956 0.90274 0.0
H517 H 0.93477 0.17521 0.91681 0.0
C518 C 0.98243 0.23298 0.83088 0.0
C519 C 1.00592 0.25798 0.78148 0.0
C520 C 0.94984 0.18814 0.82305 0.0
C521 C 0.994 0.23978 0.72391 0.0
C522 C 0.96148 0.1956 0.71571 0.0
C523 C 0.91273 0.12345 0.75771 0.0
C524 C 0.89225 0.09608 0.8069 0.0
C525 C 0.94069 0.1691 0.76518 0.0
C526 C 0.89975 0.11556 0.86409 0.0
C527 C 0.92854 0.1612 0.87214 0.0
loop_
_geom_bond_atom_site_label_1
_geom_bond_atom_site_label_2
_geom_bond_distance
_geom_bond_site_symmetry_2
_ccdc_geom_bond_type
Tb0 C2 2.809 1_545 S
Tb0 O20 2.484 . S
Tb0 O21 2.440 1_545 S
Tb0 O22 2.658 . S
Tb0 O23 2.409 . S
Tb0 O24 2.378 . S
Tb0 O28 2.325 . S
Tb0 O31 2.341 . S
Tb1 C11 2.809 . S
Tb1 O22 2.325 . S
Tb1 O25 2.341 . S
Tb1 O26 2.484 . S
Tb1 O27 2.440 . S
Tb1 O28 2.658 . S
Tb1 O29 2.409 . S
Tb1 O30 2.378 . S
C2 Tb0 2.809 1_565 S
C2 C3 1.514 . S
C2 O20 1.248 1_565 S
C2 O21 1.266 . S
C3 C2 1.514 . S
C3 C4 1.359 . S
C3 C8 1.348 . S
C4 C3 1.359 . S
C4 C5 1.380 . S
C4 H32 0.929 . S
C5 C4 1.380 . S
C5 C6 1.347 . S
C5 H33 0.931 . S
C6 C5 1.347 . S
C6 C7 1.369 . S
C7 C6 1.369 . S
C7 C8 1.408 . S
C7 H34 0.930 . S
C8 C3 1.348 . S
C8 C7 1.408 . S
C8 H35 0.930 . S
C9 O22 1.281 . S
C9 O23 1.254 . S
C10 O24 1.236 . S
C10 O25 1.266 . S
C11 Tb1 2.809 . S
C11 C12 1.514 . S
C11 O26 1.248 . S
C11 O27 1.266 . S
C12 C11 1.514 . S
C12 C13 1.359 . S
C12 C17 1.348 . S
C13 C12 1.359 . S
C13 C14 1.380 . S
C13 H36 0.929 . S
C14 C13 1.380 . S
C14 C15 1.347 . S
C14 H37 0.931 . S
C15 C14 1.347 . S
C15 C16 1.369 . S
C16 C15 1.369 . S
C16 C17 1.408 . S
C16 H38 0.930 . S
C17 C12 1.348 . S
C17 C16 1.408 . S
C17 H39 0.930 . S
C18 O28 1.281 . S
C18 O29 1.254 . S
C19 O30 1.236 . S
C19 O31 1.266 . S
O20 Tb0 2.484 . S
O20 C2 1.248 1_545 S
O21 Tb0 2.440 1_565 S
O21 C2 1.266 . S
O22 Tb0 2.658 . S
O22 Tb1 2.325 . S
O22 C9 1.281 . S
O23 Tb0 2.409 . S
O23 C9 1.254 . S
O24 Tb0 2.378 . S
O24 C10 1.236 . S
O25 Tb1 2.341 . S
O25 C10 1.266 . S
O26 Tb1 2.484 . S
O26 C11 1.248 . S
O27 Tb1 2.440 . S
O27 C11 1.266 . S
O28 Tb0 2.325 . S
O28 Tb1 2.658 . S
O28 C18 1.281 . S
O29 Tb1 2.409 . S
O29 C18 1.254 . S
O30 Tb1 2.378 . S
O30 C19 1.236 . S
O31 Tb0 2.341 . S
O31 C19 1.266 . S
H32 C4 0.929 . S
H33 C5 0.931 . S
H34 C7 0.930 . S
H35 C8 0.930 . S
H36 C13 0.929 . S
H37 C14 0.931 . S
H38 C16 0.930 . S
H39 C17 0.930 . S
Tb40 C42 2.809 . S
Tb40 O60 2.484 . S
Tb40 O61 2.440 . S
Tb40 O62 2.658 . S
Tb40 O63 2.409 . S
Tb40 O64 2.378 . S
Tb40 O68 2.325 . S
Tb40 O71 2.341 . S
Tb41 C51 2.809 . S
Tb41 O62 2.325 . S
Tb41 O65 2.341 . S
Tb41 O66 2.484 . S
Tb41 O67 2.440 . S
Tb41 O68 2.658 . S
Tb41 O69 2.409 . S
Tb41 O70 2.378 . S
C42 Tb40 2.809 . S
C42 C43 1.514 . S
C42 O60 1.248 . S
C42 O61 1.266 . S
C43 C42 1.514 . S
C43 C44 1.359 . S
C43 C48 1.348 . S
C44 C43 1.359 . S
C44 C45 1.380 . S
C44 H72 0.929 . S
C45 C44 1.380 . S
C45 C46 1.347 . S
C45 H73 0.931 . S
C46 C45 1.347 . S
C46 C47 1.369 . S
C47 C46 1.369 . S
C47 C48 1.408 . S
C47 H74 0.930 . S
C48 C43 1.348 . S
C48 C47 1.408 . S
C48 H75 0.930 . S
C49 O62 1.281 . S
C49 O63 1.254 . S
C50 O64 1.236 . S
C50 O65 1.266 . S
C51 Tb41 2.809 . S
C51 C52 1.514 . S
C51 O66 1.248 . S
C51 O67 1.266 . S
C52 C51 1.514 . S
C52 C53 1.359 . S
C52 C57 1.348 . S
C53 C52 1.359 . S
C53 C54 1.380 . S
C53 H76 0.929 . S
C54 C53 1.380 . S
C54 C55 1.347 . S
C54 H77 0.931 . S
C55 C54 1.347 . S
C55 C56 1.369 . S
C56 C55 1.369 . S
C56 C57 1.408 . S
C56 H78 0.930 . S
C57 C52 1.348 . S
C57 C56 1.408 . S
C57 H79 0.930 . S
C58 O68 1.281 . S
C58 O69 1.254 . S
C59 O70 1.236 . S
C59 O71 1.266 . S
O60 Tb40 2.484 . S
O60 C42 1.248 . S
O61 Tb40 2.440 . S
O61 C42 1.266 . S
O62 Tb40 2.658 . S
O62 Tb41 2.325 . S
O62 C49 1.281 . S
O63 Tb40 2.409 . S
O63 C49 1.254 . S
O64 Tb40 2.378 . S
O64 C50 1.236 . S
O65 Tb41 2.341 . S
O65 C50 1.266 . S
O66 Tb41 2.484 . S
O66 C51 1.248 . S
O67 Tb41 2.440 . S
O67 C51 1.266 . S
O68 Tb40 2.325 . S
O68 Tb41 2.658 . S
O68 C58 1.281 . S
O69 Tb41 2.409 . S
O69 C58 1.254 . S
O70 Tb41 2.378 . S
O70 C59 1.236 . S
O71 Tb40 2.341 . S
O71 C59 1.266 . S
H72 C44 0.929 . S
H73 C45 0.931 . S
H74 C47 0.930 . S
H75 C48 0.930 . S
H76 C53 0.929 . S
H77 C54 0.931 . S
H78 C56 0.930 . S
H79 C57 0.930 . S
Tb80 C82 2.809 1_655 S
Tb80 O100 2.484 . S
Tb80 O101 2.440 1_655 S
Tb80 O102 2.658 . S
Tb80 O103 2.409 . S
Tb80 O104 2.378 . S
Tb80 O108 2.325 . S
Tb80 O111 2.341 . S
Tb81 C91 2.809 . S
Tb81 O102 2.325 . S
Tb81 O105 2.341 . S
Tb81 O106 2.484 . S
Tb81 O107 2.440 . S
Tb81 O108 2.658 . S
Tb81 O109 2.409 . S
Tb81 O110 2.378 . S
C82 Tb80 2.809 1_455 S
C82 C83 1.514 . S
C82 O100 1.248 1_455 S
C82 O101 1.266 . S
C83 C82 1.514 . S
C83 C84 1.359 . S
C83 C88 1.348 . S
C84 C83 1.359 . S
C84 C85 1.380 . S
C84 H112 0.929 . S
C85 C84 1.380 . S
C85 C86 1.347 . S
C85 H113 0.931 . S
C86 C85 1.347 . S
C86 C87 1.369 . S
C87 C86 1.369 . S
C87 C88 1.408 . S
C87 H114 0.930 . S
C88 C83 1.348 . S
C88 C87 1.408 . S
C88 H115 0.930 . S
C89 O102 1.281 . S
C89 O103 1.254 . S
C90 O104 1.236 . S
C90 O105 1.266 . S
C91 Tb81 2.809 . S
C91 C92 1.514 . S
C91 O106 1.248 . S
C91 O107 1.266 . S
C92 C91 1.514 . S
C92 C93 1.359 . S
C92 C97 1.348 . S
C93 C92 1.359 . S
C93 C94 1.380 . S
C93 H116 0.929 . S
C94 C93 1.380 . S
C94 C95 1.347 . S
C94 H117 0.931 . S
C95 C94 1.347 . S
C95 C96 1.369 . S
C96 C95 1.369 . S
C96 C97 1.408 . S
C96 H118 0.930 . S
C97 C92 1.348 . S
C97 C96 1.408 . S
C97 H119 0.930 . S
C98 O108 1.281 . S
C98 O109 1.254 . S
C99 O110 1.236 . S
C99 O111 1.266 . S
O100 Tb80 2.484 . S
O100 C82 1.248 1_655 S
O101 Tb80 2.440 1_455 S
O101 C82 1.266 . S
O102 Tb80 2.658 . S
O102 Tb81 2.325 . S
O102 C89 1.281 . S
O103 Tb80 2.409 . S
O103 C89 1.254 . S
O104 Tb80 2.378 . S
O104 C90 1.236 . S
O105 Tb81 2.341 . S
O105 C90 1.266 . S
O106 Tb81 2.484 . S
O106 C91 1.248 . S
O107 Tb81 2.440 . S
O107 C91 1.266 . S
O108 Tb80 2.325 . S
O108 Tb81 2.658 . S
O108 C98 1.281 . S
O109 Tb81 2.409 . S
O109 C98 1.254 . S
O110 Tb81 2.378 . S
O110 C99 1.236 . S
O111 Tb80 2.341 . S
O111 C99 1.266 . S
H112 C84 0.929 . S
H113 C85 0.931 . S
H114 C87 0.930 . S
H115 C88 0.930 . S
H116 C93 0.929 . S
H117 C94 0.931 . S
H118 C96 0.930 . S
H119 C97 0.930 . S
Tb120 C122 2.809 . S
Tb120 O140 2.484 . S
Tb120 O141 2.440 . S
Tb120 O142 2.658 . S
Tb120 O143 2.409 . S
Tb120 O144 2.378 . S
Tb120 O148 2.325 . S
Tb120 O151 2.341 . S
Tb121 C131 2.809 . S
Tb121 O142 2.325 . S
Tb121 O145 2.341 . S
Tb121 O146 2.484 . S
Tb121 O147 2.440 . S
Tb121 O148 2.658 . S
Tb121 O149 2.409 . S
Tb121 O150 2.378 . S
C122 Tb120 2.809 . S
C122 C123 1.514 . S
C122 O140 1.248 . S
C122 O141 1.266 . S
C123 C122 1.514 . S
C123 C124 1.359 . S
C123 C128 1.348 . S
C124 C123 1.359 . S
C124 C125 1.380 . S
C124 H152 0.929 . S
C125 C124 1.380 . S
C125 C126 1.347 . S
C125 H153 0.931 . S
C126 C125 1.347 . S
C126 C127 1.369 . S
C127 C126 1.369 . S
C127 C128 1.408 . S
C127 H154 0.930 . S
C128 C123 1.348 . S
C128 C127 1.408 . S
C128 H155 0.930 . S
C129 O142 1.281 . S
C129 O143 1.254 . S
C130 O144 1.236 . S
C130 O145 1.266 . S
C131 Tb121 2.809 . S
C131 C132 1.514 . S
C131 O146 1.248 . S
C131 O147 1.266 . S
C132 C131 1.514 . S
C132 C133 1.359 . S
C132 C137 1.348 . S
C133 C132 1.359 . S
C133 C134 1.380 . S
C133 H156 0.929 . S
C134 C133 1.380 . S
C134 C135 1.347 . S
C134 H157 0.931 . S
C135 C134 1.347 . S
C135 C136 1.369 . S
C136 C135 1.369 . S
C136 C137 1.408 . S
C136 H158 0.930 . S
C137 C132 1.348 . S
C137 C136 1.408 . S
C137 H159 0.930 . S
C138 O148 1.281 . S
C138 O149 1.254 . S
C139 O150 1.236 . S
C139 O151 1.266 . S
O140 Tb120 2.484 . S
O140 C122 1.248 . S
O141 Tb120 2.440 . S
O141 C122 1.266 . S
O142 Tb120 2.658 . S
O142 Tb121 2.325 . S
O142 C129 1.281 . S
O143 Tb120 2.409 . S
O143 C129 1.254 . S
O144 Tb120 2.378 . S
O144 C130 1.236 . S
O145 Tb121 2.341 . S
O145 C130 1.266 . S
O146 Tb121 2.484 . S
O146 C131 1.248 . S
O147 Tb121 2.440 . S
O147 C131 1.266 . S
O148 Tb120 2.325 . S
O148 Tb121 2.658 . S
O148 C138 1.281 . S
O149 Tb121 2.409 . S
O149 C138 1.254 . S
O150 Tb121 2.378 . S
O150 C139 1.236 . S
O151 Tb120 2.341 . S
O151 C139 1.266 . S
H152 C124 0.929 . S
H153 C125 0.931 . S
H154 C127 0.930 . S
H155 C128 0.930 . S
H156 C133 0.929 . S
H157 C134 0.931 . S
H158 C136 0.930 . S
H159 C137 0.930 . S
Tb160 C162 2.809 . S
Tb160 O180 2.484 . S
Tb160 O181 2.440 . S
Tb160 O182 2.658 . S
Tb160 O183 2.409 . S
Tb160 O184 2.378 . S
Tb160 O188 2.325 . S
Tb160 O191 2.341 . S
Tb161 C171 2.809 . S
Tb161 O182 2.325 . S
Tb161 O185 2.341 . S
Tb161 O186 2.484 . S
Tb161 O187 2.440 . S
Tb161 O188 2.658 . S
Tb161 O189 2.409 . S
Tb161 O190 2.378 . S
C162 Tb160 2.809 . S
C162 C163 1.514 . S
C162 O180 1.248 . S
C162 O181 1.266 . S
C163 C162 1.514 . S
C163 C164 1.359 . S
C163 C168 1.348 . S
C164 C163 1.359 . S
C164 C165 1.380 . S
C164 H192 0.929 . S
C165 C164 1.380 . S
C165 C166 1.347 . S
C165 H193 0.931 . S
C166 C165 1.347 . S
C166 C167 1.369 . S
C167 C166 1.369 . S
C167 C168 1.408 . S
C167 H194 0.930 . S
C168 C163 1.348 . S
C168 C167 1.408 . S
C168 H195 0.930 . S
C169 O182 1.281 . S
C169 O183 1.254 . S
C170 O184 1.236 . S
C170 O185 1.266 . S
C171 Tb161 2.809 . S
C171 C172 1.514 . S
C171 O186 1.248 . S
C171 O187 1.266 . S
C172 C171 1.514 . S
C172 C173 1.359 . S
C172 C177 1.348 . S
C173 C172 1.359 . S
C173 C174 1.380 . S
C173 H196 0.929 . S
C174 C173 1.380 . S
C174 C175 1.347 1_455 S
C174 H197 0.931 . S
C175 C174 1.347 1_655 S
C175 C176 1.369 . S
C176 C175 1.369 . S
C176 C177 1.408 1_655 S
C176 H198 0.930 . S
C177 C172 1.348 . S
C177 C176 1.408 1_455 S
C177 H199 0.930 . S
C178 O188 1.281 . S
C178 O189 1.254 . S
C179 O190 1.236 . S
C179 O191 1.266 . S
O180 Tb160 2.484 . S
O180 C162 1.248 . S
O181 Tb160 2.440 . S
O181 C162 1.266 . S
O182 Tb160 2.658 . S
O182 Tb161 2.325 . S
O182 C169 1.281 . S
O183 Tb160 2.409 . S
O183 C169 1.254 . S
O184 Tb160 2.378 . S
O184 C170 1.236 . S
O185 Tb161 2.341 . S
O185 C170 1.266 . S
O186 Tb161 2.484 . S
O186 C171 1.248 . S
O187 Tb161 2.440 . S
O187 C171 1.266 . S
O188 Tb160 2.325 . S
O188 Tb161 2.658 . S
O188 C178 1.281 . S
O189 Tb161 2.409 . S
O189 C178 1.254 . S
O190 Tb161 2.378 . S
O190 C179 1.236 . S
O191 Tb160 2.341 . S
O191 C179 1.266 . S
H192 C164 0.929 . S
H193 C165 0.931 . S
H194 C167 0.930 . S
H195 C168 0.930 . S
H196 C173 0.929 . S
H197 C174 0.931 . S
H198 C176 0.930 . S
H199 C177 0.930 . S
Tb200 C202 2.809 . S
Tb200 O220 2.484 . S
Tb200 O221 2.440 . S
Tb200 O222 2.658 . S
Tb200 O223 2.409 . S
Tb200 O224 2.378 . S
Tb200 O228 2.325 . S
Tb200 O231 2.341 . S
Tb201 C211 2.809 . S
Tb201 O222 2.325 . S
Tb201 O225 2.341 . S
Tb201 O226 2.484 . S
Tb201 O227 2.440 . S
Tb201 O228 2.658 . S
Tb201 O229 2.409 . S
Tb201 O230 2.378 . S
C202 Tb200 2.809 . S
C202 C203 1.514 . S
C202 O220 1.248 . S
C202 O221 1.266 . S
C203 C202 1.514 . S
C203 C204 1.359 . S
C203 C208 1.348 . S
C204 C203 1.359 . S
C204 C205 1.380 . S
C204 H232 0.929 . S
C205 C204 1.380 . S
C205 C206 1.347 . S
C205 H233 0.931 . S
C206 C205 1.347 . S
C206 C207 1.369 . S
C207 C206 1.369 . S
C207 C208 1.408 . S
C207 H234 0.930 . S
C208 C203 1.348 . S
C208 C207 1.408 . S
C208 H235 0.930 . S
C209 O222 1.281 . S
C209 O223 1.254 . S
C210 O224 1.236 . S
C210 O225 1.266 . S
C211 Tb201 2.809 . S
C211 C212 1.514 . S
C211 O226 1.248 . S
C211 O227 1.266 . S
C212 C211 1.514 . S
C212 C213 1.359 . S
C212 C217 1.348 . S
C213 C212 1.359 . S
C213 C214 1.380 . S
C213 H236 0.929 . S
C214 C213 1.380 . S
C214 C215 1.347 1_565 S
C214 H237 0.931 . S
C215 C214 1.347 1_545 S
C215 C216 1.369 . S
C216 C215 1.369 . S
C216 C217 1.408 1_545 S
C216 H238 0.930 . S
C217 C212 1.348 . S
C217 C216 1.408 1_565 S
C217 H239 0.930 . S
C218 O228 1.281 . S
C218 O229 1.254 . S
C219 O230 1.236 . S
C219 O231 1.266 . S
O220 Tb200 2.484 . S
O220 C202 1.248 . S
O221 Tb200 2.440 . S
O221 C202 1.266 . S
O222 Tb200 2.658 . S
O222 Tb201 2.325 . S
O222 C209 1.281 . S
O223 Tb200 2.409 . S
O223 C209 1.254 . S
O224 Tb200 2.378 . S
O224 C210 1.236 . S
O225 Tb201 2.341 . S
O225 C210 1.266 . S
O226 Tb201 2.484 . S
O226 C211 1.248 . S
O227 Tb201 2.440 . S
O227 C211 1.266 . S
O228 Tb200 2.325 . S
O228 Tb201 2.658 . S
O228 C218 1.281 . S
O229 Tb201 2.409 . S
O229 C218 1.254 . S
O230 Tb201 2.378 . S
O230 C219 1.236 . S
O231 Tb200 2.341 . S
O231 C219 1.266 . S
H232 C204 0.929 . S
H233 C205 0.931 . S
H234 C207 0.930 . S
H235 C208 0.930 . S
H236 C213 0.929 . S
H237 C214 0.931 . S
H238 C216 0.930 . S
H239 C217 0.930 . S
H240 C246 0.930 . S
H241 C249 0.930 . S
H242 C250 0.930 . S
H243 C251 0.930 . S
H244 C254 0.930 . S
H245 C255 0.930 . S
C246 H240 0.930 . S
C246 C247 1.355 . S
C246 C248 1.415 1_565 S
C247 C246 1.355 . S
C247 C249 1.419 . S
C248 C246 1.415 1_545 S
C248 C253 1.417 1_546 S
C248 C255 1.409 . S
C249 H241 0.930 . S
C249 C247 1.419 . S
C249 C250 1.362 1_556 S
C250 H242 0.930 . S
C250 C249 1.362 1_554 S
C250 C253 1.425 . S
C251 H243 0.930 . S
C251 C252 1.355 . S
C251 C253 1.406 1_545 S
C252 C251 1.355 . S
C252 C254 1.419 . S
C253 C248 1.417 1_564 S
C253 C250 1.425 . S
C253 C251 1.406 1_565 S
C254 H244 0.930 . S
C254 C252 1.419 . S
C254 C255 1.362 1_554 S
C255 H245 0.930 . S
C255 C248 1.409 . S
C255 C254 1.362 1_556 S
H256 C262 0.930 . S
H257 C265 0.930 . S
H258 C266 0.930 . S
H259 C267 0.930 . S
H260 C270 0.930 . S
H261 C271 0.930 . S
C262 H256 0.930 . S
C262 C263 1.355 . S
C262 C264 1.415 . S
C263 C262 1.355 . S
C263 C265 1.419 . S
C264 C262 1.415 . S
C264 C269 1.425 . S
C264 C271 1.409 . S
C265 H257 0.930 . S
C265 C263 1.419 . S
C265 C266 1.362 . S
C266 H258 0.930 . S
C266 C265 1.362 . S
C266 C269 1.409 . S
C267 H259 0.930 . S
C267 C268 1.355 . S
C267 C269 1.415 . S
C268 C267 1.355 . S
C268 C270 1.419 . S
C269 C264 1.425 . S
C269 C266 1.409 . S
C269 C267 1.415 . S
C270 H260 0.930 . S
C270 C268 1.419 . S
C270 C271 1.362 . S
C271 H261 0.930 . S
C271 C264 1.409 . S
C271 C270 1.362 . S
H272 C278 0.930 . S
H273 C281 0.930 . S
H274 C282 0.930 . S
H275 C283 0.930 . S
H276 C286 0.930 . S
H277 C287 0.930 . S
C278 H272 0.930 . S
C278 C279 1.355 . S
C278 C280 1.415 1_554 S
C279 C278 1.355 . S
C279 C281 1.419 . S
C280 C278 1.415 1_556 S
C280 C285 1.425 1_656 S
C280 C287 1.409 . S
C281 H273 0.930 . S
C281 C279 1.419 . S
C281 C282 1.362 1_655 S
C282 H274 0.930 . S
C282 C281 1.362 1_455 S
C282 C285 1.409 . S
C283 H275 0.930 . S
C283 C284 1.355 . S
C283 C285 1.415 1_556 S
C284 C283 1.355 . S
C284 C286 1.419 . S
C285 C280 1.425 1_454 S
C285 C282 1.409 . S
C285 C283 1.415 1_554 S
C286 H276 0.930 . S
C286 C284 1.419 . S
C286 C287 1.362 1_455 S
C287 H277 0.930 . S
C287 C280 1.409 . S
C287 C286 1.362 1_655 S
H288 C294 0.930 . S
H289 C297 0.930 . S
H290 C298 0.930 . S
H291 C299 0.930 . S
H292 C302 0.930 . S
H293 C303 0.930 . S
C294 H288 0.930 . S
C294 C295 1.355 . S
C294 C296 1.415 . S
C295 C294 1.355 . S
C295 C297 1.419 . S
C296 C294 1.415 . S
C296 C301 1.425 1_545 S
C296 C303 1.409 . S
C297 H289 0.930 . S
C297 C295 1.419 . S
C297 C298 1.362 1_545 S
C298 H290 0.930 . S
C298 C297 1.362 1_565 S
C298 C301 1.409 . S
C299 H291 0.930 . S
C299 C300 1.355 . S
C299 C301 1.415 . S
C300 C299 1.355 . S
C300 C302 1.419 . S
C301 C296 1.425 1_565 S
C301 C298 1.409 . S
C301 C299 1.415 . S
C302 H292 0.930 . S
C302 C300 1.419 . S
C302 C303 1.362 1_565 S
C303 H293 0.930 . S
C303 C296 1.409 . S
C303 C302 1.362 1_545 S
H304 C310 0.930 . S
H305 C313 0.930 . S
H306 C314 0.930 . S
H307 C315 0.930 . S
H308 C318 0.930 . S
H309 C319 0.930 . S
C310 H304 0.930 . S
C310 C311 1.355 . S
C310 C312 1.415 . S
C311 C310 1.355 . S
C311 C313 1.419 . S
C312 C310 1.415 . S
C312 C317 1.425 1_556 S
C312 C319 1.409 . S
C313 H305 0.930 . S
C313 C311 1.419 . S
C313 C314 1.362 1_556 S
C314 H306 0.930 . S
C314 C313 1.362 1_554 S
C314 C317 1.409 . S
C315 H307 0.930 . S
C315 C316 1.355 . S
C315 C317 1.415 . S
C316 C315 1.355 . S
C316 C318 1.419 . S
C317 C312 1.425 1_554 S
C317 C314 1.409 . S
C317 C315 1.415 . S
C318 H308 0.930 . S
C318 C316 1.419 . S
C318 C319 1.362 1_554 S
C319 H309 0.930 . S
C319 C312 1.409 . S
C319 C318 1.362 1_556 S
H320 C326 0.930 . S
H321 C329 0.930 . S
H322 C330 0.930 . S
H323 C331 0.930 . S
H324 C334 0.930 . S
H325 C335 0.930 . S
C326 H320 0.930 . S
C326 C327 1.355 . S
C326 C328 1.415 . S
C327 C326 1.355 . S
C327 C329 1.419 . S
C328 C326 1.415 . S
C328 C333 1.425 1_655 S
C328 C335 1.409 . S
C329 H321 0.930 . S
C329 C327 1.419 . S
C329 C330 1.362 1_655 S
C330 H322 0.930 . S
C330 C329 1.362 1_455 S
C330 C333 1.409 . S
C331 H323 0.930 . S
C331 C332 1.355 . S
C331 C333 1.415 . S
C332 C331 1.355 . S
C332 C334 1.419 . S
C333 C328 1.425 1_455 S
C333 C330 1.409 . S
C333 C331 1.415 . S
C334 H324 0.930 . S
C334 C332 1.419 . S
C334 C335 1.362 1_455 S
C335 H325 0.930 . S
C335 C328 1.409 . S
C335 C334 1.362 1_655 S
H336 C342 0.930 . S
H337 C345 0.930 . S
H338 C346 0.930 . S
H339 C347 0.930 . S
H340 C350 0.930 . S
H341 C351 0.930 . S
C342 H336 0.930 . S
C342 C343 1.355 . S
C342 C344 1.415 . S
C343 C342 1.355 . S
C343 C345 1.419 . S
C344 C342 1.415 . S
C344 C349 1.425 . S
C344 C351 1.409 . S
C345 H337 0.930 . S
C345 C343 1.419 . S
C345 C346 1.362 . S
C346 H338 0.930 . S
C346 C345 1.362 . S
C346 C349 1.409 . S
C347 H339 0.930 . S
C347 C348 1.355 . S
C347 C349 1.415 . S
C348 C347 1.355 . S
C348 C350 1.419 . S
C349 C344 1.425 . S
C349 C346 1.409 . S
C349 C347 1.415 . S
C350 H340 0.930 . S
C350 C348 1.419 . S
C350 C351 1.362 . S
C351 H341 0.930 . S
C351 C344 1.409 . S
C351 C350 1.362 . S
H352 C358 0.930 . S
H353 C361 0.930 . S
H354 C362 0.930 . S
H355 C363 0.930 . S
H356 C366 0.930 . S
H357 C367 0.930 . S
C358 H352 0.930 . S
C358 C359 1.355 . S
C358 C360 1.415 . S
C359 C358 1.355 . S
C359 C361 1.419 . S
C360 C358 1.415 . S
C360 C365 1.425 . S
C360 C367 1.409 . S
C361 H353 0.930 . S
C361 C359 1.419 . S
C361 C362 1.362 . S
C362 H354 0.930 . S
C362 C361 1.362 . S
C362 C365 1.409 . S
C363 H355 0.930 . S
C363 C364 1.355 . S
C363 C365 1.415 . S
C364 C363 1.355 . S
C364 C366 1.419 . S
C365 C360 1.425 . S
C365 C362 1.409 . S
C365 C363 1.415 . S
C366 H356 0.930 . S
C366 C364 1.419 . S
C366 C367 1.362 . S
C367 H357 0.930 . S
C367 C360 1.409 . S
C367 C366 1.362 . S
H368 C374 0.930 . S
H369 C377 0.930 . S
H370 C378 0.930 . S
H371 C379 0.930 . S
H372 C382 0.930 . S
H373 C383 0.930 . S
C374 H368 0.930 . S
C374 C375 1.355 . S
C374 C376 1.415 . S
C375 C374 1.355 . S
C375 C377 1.419 . S
C376 C374 1.415 . S
C376 C381 1.425 . S
C376 C383 1.409 . S
C377 H369 0.930 . S
C377 C375 1.419 . S
C377 C378 1.362 . S
C378 H370 0.930 . S
C378 C377 1.362 . S
C378 C381 1.409 . S
C379 H371 0.930 . S
C379 C380 1.355 . S
C379 C381 1.415 . S
C380 C379 1.355 . S
C380 C382 1.419 . S
C381 C376 1.425 . S
C381 C378 1.409 . S
C381 C379 1.415 . S
C382 H372 0.930 . S
C382 C380 1.419 . S
C382 C383 1.362 . S
C383 H373 0.930 . S
C383 C376 1.409 . S
C383 C382 1.362 . S
H384 C390 0.930 . S
H385 C393 0.930 . S
H386 C394 0.930 . S
H387 C395 0.930 . S
H388 C398 0.930 . S
H389 C399 0.930 . S
C390 H384 0.930 . S
C390 C391 1.355 . S
C390 C392 1.415 . S
C391 C390 1.355 . S
C391 C393 1.419 . S
C392 C390 1.415 . S
C392 C397 1.425 . S
C392 C399 1.409 . S
C393 H385 0.930 . S
C393 C391 1.419 . S
C393 C394 1.362 . S
C394 H386 0.930 . S
C394 C393 1.362 . S
C394 C397 1.409 . S
C395 H387 0.930 . S
C395 C396 1.355 . S
C395 C397 1.415 . S
C396 C395 1.355 . S
C396 C398 1.419 . S
C397 C392 1.425 . S
C397 C394 1.409 . S
C397 C395 1.415 . S
C398 H388 0.930 . S
C398 C396 1.419 . S
C398 C399 1.362 . S
C399 H389 0.930 . S
C399 C392 1.409 . S
C399 C398 1.362 . S
H400 C406 0.930 . S
H401 C409 0.930 . S
H402 C410 0.930 . S
H403 C411 0.930 . S
H404 C414 0.930 . S
H405 C415 0.930 . S
C406 H400 0.930 . S
C406 C407 1.355 . S
C406 C408 1.415 . S
C407 C406 1.355 . S
C407 C409 1.419 . S
C408 C406 1.415 . S
C408 C413 1.425 . S
C408 C415 1.409 . S
C409 H401 0.930 . S
C409 C407 1.419 . S
C409 C410 1.362 . S
C410 H402 0.930 . S
C410 C409 1.362 . S
C410 C413 1.409 . S
C411 H403 0.930 . S
C411 C412 1.355 . S
C411 C413 1.415 . S
C412 C411 1.355 . S
C412 C414 1.419 . S
C413 C408 1.425 . S
C413 C410 1.409 . S
C413 C411 1.415 . S
C414 H404 0.930 . S
C414 C412 1.419 . S
C414 C415 1.362 . S
C415 H405 0.930 . S
C415 C408 1.409 . S
C415 C414 1.362 . S
H416 C422 0.930 . S
H417 C425 0.930 . S
H418 C426 0.930 . S
H419 C427 0.930 . S
H420 C430 0.930 . S
H421 C431 0.930 . S
C422 H416 0.930 . S
C422 C423 1.355 . S
C422 C424 1.415 . S
C423 C422 1.355 . S
C423 C425 1.419 . S
C424 C422 1.415 . S
C424 C429 1.425 . S
C424 C431 1.409 . S
C425 H417 0.930 . S
C425 C423 1.419 . S
C425 C426 1.362 . S
C426 H418 0.930 . S
C426 C425 1.362 . S
C426 C429 1.409 . S
C427 H419 0.930 . S
C427 C428 1.355 . S
C427 C429 1.415 . S
C428 C427 1.355 . S
C428 C430 1.419 . S
C429 C424 1.425 . S
C429 C426 1.409 . S
C429 C427 1.415 . S
C430 H420 0.930 . S
C430 C428 1.419 . S
C430 C431 1.362 . S
C431 H421 0.930 . S
C431 C424 1.409 . S
C431 C430 1.362 . S
H432 C438 0.930 . S
H433 C441 0.930 . S
H434 C442 0.930 . S
H435 C443 0.930 . S
H436 C446 0.930 . S
H437 C447 0.930 . S
C438 H432 0.930 . S
C438 C439 1.355 . S
C438 C440 1.415 . S
C439 C438 1.355 . S
C439 C441 1.419 . S
C440 C438 1.415 . S
C440 C445 1.425 . S
C440 C447 1.409 . S
C441 H433 0.930 . S
C441 C439 1.419 . S
C441 C442 1.362 . S
C442 H434 0.930 . S
C442 C441 1.362 . S
C442 C445 1.409 . S
C443 H435 0.930 . S
C443 C444 1.355 . S
C443 C445 1.415 . S
C444 C443 1.355 . S
C444 C446 1.419 . S
C445 C440 1.425 . S
C445 C442 1.409 . S
C445 C443 1.415 . S
C446 H436 0.930 . S
C446 C444 1.419 . S
C446 C447 1.362 . S
C447 H437 0.930 . S
C447 C440 1.409 . S
C447 C446 1.362 . S
H448 C454 0.930 . S
H449 C457 0.930 . S
H450 C458 0.930 . S
H451 C459 0.930 . S
H452 C462 0.930 . S
H453 C463 0.930 . S
C454 H448 0.930 . S
C454 C455 1.355 . S
C454 C456 1.415 . S
C455 C454 1.355 . S
C455 C457 1.419 . S
C456 C454 1.415 . S
C456 C461 1.425 . S
C456 C463 1.409 . S
C457 H449 0.930 . S
C457 C455 1.419 . S
C457 C458 1.362 . S
C458 H450 0.930 . S
C458 C457 1.362 . S
C458 C461 1.409 . S
C459 H451 0.930 . S
C459 C460 1.355 . S
C459 C461 1.415 1_455 S
C460 C459 1.355 . S
C460 C462 1.419 . S
C461 C456 1.425 . S
C461 C458 1.409 . S
C461 C459 1.415 1_655 S
C462 H452 0.930 . S
C462 C460 1.419 . S
C462 C463 1.362 1_455 S
C463 H453 0.930 . S
C463 C456 1.409 . S
C463 C462 1.362 1_655 S
H464 C470 0.930 . S
H465 C473 0.930 . S
H466 C474 0.930 . S
H467 C475 0.930 . S
H468 C478 0.930 . S
H469 C479 0.930 . S
C470 H464 0.930 . S
C470 C471 1.355 . S
C470 C472 1.415 . S
C471 C470 1.355 . S
C471 C473 1.419 . S
C472 C470 1.415 . S
C472 C477 1.425 . S
C472 C479 1.409 . S
C473 H465 0.930 . S
C473 C471 1.419 . S
C473 C474 1.362 . S
C474 H466 0.930 . S
C474 C473 1.362 . S
C474 C477 1.409 . S
C475 H467 0.930 . S
C475 C476 1.355 . S
C475 C477 1.415 1_565 S
C476 C475 1.355 . S
C476 C478 1.419 . S
C477 C472 1.425 . S
C477 C474 1.409 . S
C477 C475 1.415 1_545 S
C478 H468 0.930 . S
C478 C476 1.419 . S
C478 C479 1.362 1_565 S
C479 H469 0.930 . S
C479 C472 1.409 . S
C479 C478 1.362 1_545 S
H480 C486 0.930 . S
H481 C489 0.930 1_565 S
H482 C490 0.930 . S
H483 C491 0.930 . S
H484 C494 0.930 . S
H485 C495 0.930 . S
C486 H480 0.930 . S
C486 C487 1.355 . S
C486 C488 1.415 . S
C487 C486 1.355 . S
C487 C489 1.419 . S
C488 C486 1.415 . S
C488 C493 1.425 . S
C488 C495 1.409 . S
C489 H481 0.930 1_545 S
C489 C487 1.419 . S
C489 C490 1.362 1_545 S
C490 H482 0.930 . S
C490 C489 1.362 1_565 S
C490 C493 1.409 1_565 S
C491 H483 0.930 . S
C491 C492 1.355 . S
C491 C493 1.415 1_565 S
C492 C491 1.355 . S
C492 C494 1.419 1_565 S
C493 C488 1.425 . S
C493 C490 1.409 1_545 S
C493 C491 1.415 1_545 S
C494 H484 0.930 . S
C494 C492 1.419 1_545 S
C494 C495 1.362 . S
C495 H485 0.930 . S
C495 C488 1.409 . S
C495 C494 1.362 . S
H496 C502 0.930 . S
H497 C505 0.930 . S
H498 C506 0.930 . S
H499 C507 0.930 . S
H500 C510 0.930 . S
H501 C511 0.930 . S
C502 H496 0.930 . S
C502 C503 1.355 . S
C502 C504 1.415 . S
C503 C502 1.355 . S
C503 C505 1.419 . S
C504 C502 1.415 . S
C504 C509 1.425 . S
C504 C511 1.409 . S
C505 H497 0.930 . S
C505 C503 1.419 . S
C505 C506 1.362 . S
C506 H498 0.930 . S
C506 C505 1.362 . S
C506 C509 1.409 . S
C507 H499 0.930 . S
C507 C508 1.355 . S
C507 C509 1.415 . S
C508 C507 1.355 . S
C508 C510 1.419 . S
C509 C504 1.425 . S
C509 C506 1.409 . S
C509 C507 1.415 . S
C510 H500 0.930 . S
C510 C508 1.419 . S
C510 C511 1.362 . S
C511 H501 0.930 . S
C511 C504 1.409 . S
C511 C510 1.362 . S
H512 C518 0.930 . S
H513 C521 0.930 . S
H514 C522 0.930 . S
H515 C523 0.930 1_455 S
H516 C526 0.930 . S
H517 C527 0.930 . S
C518 H512 0.930 . S
C518 C519 1.355 1_655 S
C518 C520 1.415 . S
C519 C518 1.355 1_455 S
C519 C521 1.419 . S
C520 C518 1.415 . S
C520 C525 1.425 . S
C520 C527 1.409 . S
C521 H513 0.930 . S
C521 C519 1.419 . S
C521 C522 1.362 . S
C522 H514 0.930 . S
C522 C521 1.362 . S
C522 C525 1.409 1_455 S
C523 H515 0.930 1_655 S
C523 C524 1.355 . S
C523 C525 1.415 . S
C524 C523 1.355 . S
C524 C526 1.419 . S
C525 C520 1.425 . S
C525 C522 1.409 1_655 S
C525 C523 1.415 . S
C526 H516 0.930 . S
C526 C524 1.419 . S
C526 C527 1.362 . S
C527 H517 0.930 . S
C527 C520 1.409 . S
C527 C526 1.362 . S
C247 C178 2.618 . S
C252 C9 2.231 . S
C263 C209 2.217 . S
C268 C58 2.596 . S
C279 C89 2.192 . S
C284 C138 2.604 . S
C295 C18 2.587 . S
C300 C169 2.187 . S
C311 C218 2.619 . S
C316 C49 2.238 . S
C327 C98 2.587 . S
C332 C129 2.192 . S
C343 C19 2.097 . S
C348 C95 2.039 . S
C359 C59 2.080 . S
C364 C15 2.026 . S
C375 C99 2.097 . S
C380 C55 2.027 . S
C391 C126 1.910 . S
C396 C170 1.871 . S
C407 C166 1.895 . S
C412 C210 1.843 . S
C423 C130 1.827 . S
C428 C206 1.893 . S
C439 C10 1.127 . S
C444 C86 1.194 . S
C455 C50 1.142 . S
C460 C6 1.207 . S
C471 C90 1.168 . S
C476 C46 1.223 . S
C487 C135 1.370 . S
C492 C179 1.412 . S
C503 C175 1.370 . S
C508 C219 1.406 . S
C519 C139 1.340 . S
C524 C215 1.273 . S
