# Generated by pormake.
# Topology umf, (4)-cn, num edge types: 1
# Building blocks:
#     Node 0, Type 0, BuildingBlock: QUQFOY_clean_sbu_3, # of connection points: 4
#     Node 1, Type 0, BuildingBlock: QUQFOY_clean_sbu_3, # of connection points: 4
#     Node 2, Type 0, BuildingBlock: QUQFOY_clean_sbu_3, # of connection points: 4
#     Node 3, Type 0, BuildingBlock: QUQFOY_clean_sbu_3, # of connection points: 4
#     Node 4, Type 0, BuildingBlock: QUQFOY_clean_sbu_3, # of connection points: 4
#     Node 5, Type 0, BuildingBlock: QUQFOY_clean_sbu_3, # of connection points: 4
#     Node 6, Type 0, BuildingBlock: QUQFOY_clean_sbu_3, # of connection points: 4
#     Node 7, Type 0, BuildingBlock: QUQFOY_clean_sbu_3, # of connection points: 4
#     Edge 8, Type (0, 0), BuildingBlock: EZIPEK_clean_linker_0, # of connection points: 2
#     Edge 9, Type (0, 0), BuildingBlock: EZIPEK_clean_linker_0, # of connection points: 2
#     Edge 10, Type (0, 0), BuildingBlock: EZIPEK_clean_linker_0, # of connection points: 2
#     Edge 11, Type (0, 0), BuildingBlock: EZIPEK_clean_linker_0, # of connection points: 2
#     Edge 12, Type (0, 0), BuildingBlock: EZIPEK_clean_linker_0, # of connection points: 2
#     Edge 13, Type (0, 0), BuildingBlock: EZIPEK_clean_linker_0, # of connection points: 2
#     Edge 14, Type (0, 0), BuildingBlock: EZIPEK_clean_linker_0, # of connection points: 2
#     Edge 15, Type (0, 0), BuildingBlock: EZIPEK_clean_linker_0, # of connection points: 2
#     Edge 16, Type (0, 0), BuildingBlock: EZIPEK_clean_linker_0, # of connection points: 2
#     Edge 17, Type (0, 0), BuildingBlock: EZIPEK_clean_linker_0, # of connection points: 2
#     Edge 18, Type (0, 0), BuildingBlock: EZIPEK_clean_linker_0, # of connection points: 2
#     Edge 19, Type (0, 0), BuildingBlock: EZIPEK_clean_linker_0, # of connection points: 2
#     Edge 20, Type (0, 0), BuildingBlock: EZIPEK_clean_linker_0, # of connection points: 2
#     Edge 21, Type (0, 0), BuildingBlock: EZIPEK_clean_linker_0, # of connection points: 2
#     Edge 22, Type (0, 0), BuildingBlock: EZIPEK_clean_linker_0, # of connection points: 2
#     Edge 23, Type (0, 0), BuildingBlock: EZIPEK_clean_linker_0, # of connection points: 2
# Relax obj value: 0.167
# Max RMSD: 0.288
# Mean RMSD: 0.288
data_MOF--net-umf--node1-QUQFOY_clean_sbu_3--edge1-EZIPEK_clean_linker_0
_symmetry_space_group_name_H-M    P1
_symmetry_Int_Tables_number       1
_symmetry_cell_setting            triclinic
loop_
_symmetry_equiv_pos_as_xyz
'x, y, z'
_cell_length_a     21.206381
_cell_length_b     20.972114
_cell_length_c     38.543567
_cell_angle_alpha  90.07249
_cell_angle_beta   90.075281
_cell_angle_gamma 90.039789
loop_
_atom_site_label
_atom_site_type_symbol
_atom_site_fract_x
_atom_site_fract_y
_atom_site_fract_z
_atom_type_partial_charge
C0 C 0.10875 0.28893 0.20507 0.0
O1 O 0.1328 0.32219 0.18111 0.0
Cd2 Cd 0.02956 0.3347 0.15316 0.0
O3 O 0.04945 0.28218 0.2051 0.0
Cd4 Cd -0.0045 0.35103 0.15824 0.0
C5 C 0.9233 0.23305 0.16768 0.0
O6 O 0.03583 0.34094 0.09452 0.0
O7 O 0.93549 0.34896 0.10361 0.0
O8 O 0.05926 0.44508 0.17343 0.0
C9 C 0.98043 0.34442 0.08208 0.0
O10 O 0.97814 0.22978 0.15497 0.0
C11 C 0.01206 0.48095 0.17845 0.0
O12 O 0.90334 0.28732 0.17725 0.0
O13 O 0.95757 0.4557 0.17639 0.0
C14 C 0.75824 0.11758 0.68562 0.0
O15 O 0.76591 0.15083 0.65853 0.0
Cd16 Cd 0.79931 0.09119 0.60799 0.0
O17 O 0.75747 0.05718 0.68357 0.0
Cd18 Cd 0.7582 0.971 0.64092 0.0
C19 C 0.91365 0.99193 0.64025 0.0
O20 O 0.72768 0.01267 0.58293 0.0
O21 O 0.7768 0.92178 0.58661 0.0
O22 O 0.65385 0.94656 0.6587 0.0
C23 C 0.74815 0.9623 0.56804 0.0
O24 O 0.90001 0.04384 0.6249 0.0
C25 C 0.66498 0.88964 0.66791 0.0
O26 O 0.87026 0.95463 0.6507 0.0
O27 O 0.72162 0.87011 0.66599 0.0
C28 C 0.73729 0.78108 0.1678 0.0
O29 O 0.71001 0.79224 0.13922 0.0
Cd30 Cd 0.77459 0.85568 0.10029 0.0
O31 O 0.79512 0.79468 0.17154 0.0
Cd32 Cd 0.88792 0.829 0.14001 0.0
C33 C 0.84018 0.97914 0.14628 0.0
O34 O 0.86806 0.8011 0.07844 0.0
O35 O 0.94856 0.86148 0.09126 0.0
O36 O 0.91521 0.72359 0.15458 0.0
C37 C 0.91862 0.82901 0.06889 0.0
O38 O 0.79708 0.96069 0.12553 0.0
C39 C 0.96536 0.73628 0.171 0.0
O40 O 0.88039 0.93972 0.15812 0.0
O41 O 0.98178 0.79453 0.17358 0.0
C42 C 0.25784 0.71878 0.68614 0.0
O43 O 0.28277 0.68603 0.66224 0.0
Cd44 Cd 0.23875 0.75269 0.61529 0.0
O45 O 0.23915 0.77443 0.67899 0.0
Cd46 Cd 0.2917 0.82558 0.62919 0.0
C47 C 0.15819 0.87825 0.64414 0.0
O48 O 0.28881 0.79745 0.56525 0.0
O49 O 0.28584 0.89729 0.58201 0.0
O50 O 0.38886 0.77215 0.64311 0.0
C51 C 0.289 0.85684 0.55758 0.0
O52 O 0.15097 0.82299 0.6311 0.0
C53 C 0.4173 0.82287 0.65212 0.0
O54 O 0.21328 0.89968 0.64966 0.0
O55 O 0.38655 0.875 0.65097 0.0
C56 C 0.19536 0.74903 0.82325 0.0
O57 O 0.22078 0.74719 0.85292 0.0
Cd58 Cd 0.16603 0.81949 0.89141 0.0
O59 O 0.14113 0.77374 0.81984 0.0
Cd60 Cd 0.05669 0.79959 0.86104 0.0
C61 C 0.1009 0.94918 0.85377 0.0
O62 O 0.07735 0.77831 0.92393 0.0
O63 O 0.00113 0.8426 0.90872 0.0
O64 O 0.02623 0.69206 0.8535 0.0
C65 C 0.02888 0.81114 0.93228 0.0
O66 O 0.14925 0.92775 0.86943 0.0
C67 C 0.97421 0.70295 0.83847 0.0
O68 O 0.0571 0.91131 0.84441 0.0
O69 O 0.95893 0.76084 0.833 0.0
C70 C 0.2241 0.14262 0.31305 0.0
O71 O 0.25465 0.15861 0.33995 0.0
Cd72 Cd 0.26228 0.04679 0.35799 0.0
O73 O 0.21614 0.08371 0.30732 0.0
Cd74 Cd 0.28028 0.01232 0.34844 0.0
C75 C 0.15651 0.95155 0.33419 0.0
O76 O 0.27609 0.02829 0.4155 0.0
O77 O 0.28689 0.93278 0.3947 0.0
O78 O 0.37261 0.07982 0.33866 0.0
C79 C 0.28346 0.96895 0.42106 0.0
O80 O 0.15656 0.00201 0.35222 0.0
C81 C 0.40678 0.03472 0.32745 0.0
O82 O 0.20883 0.93193 0.32232 0.0
O83 O 0.38105 0.98021 0.32377 0.0
C84 C 0.79088 0.2279 0.82126 0.0
O85 O 0.76699 0.20885 0.8495 0.0
Cd86 Cd 0.8401 0.21558 0.8975 0.0
O87 O 0.84057 0.26161 0.82161 0.0
Cd88 Cd 0.90573 0.32068 0.86326 0.0
C89 C 0.98231 0.18624 0.85624 0.0
O90 O 0.86488 0.3164 0.92352 0.0
O91 O 0.9665 0.32135 0.91588 0.0
O92 O 0.85256 0.41938 0.84874 0.0
C93 C 0.91995 0.32277 0.93646 0.0
O94 O 0.93773 0.1685 0.87614 0.0
C95 C 0.9028 0.44909 0.84107 0.0
O96 O 0.98472 0.24294 0.84449 0.0
O97 O 0.95419 0.41778 0.84143 0.0
C98 C 0.71864 0.75873 0.30352 0.0
O99 O 0.7273 0.72265 0.3294 0.0
Cd100 Cd 0.7804 0.77559 0.37743 0.0
O101 O 0.72868 0.81809 0.30637 0.0
Cd102 Cd 0.75192 0.90087 0.34844 0.0
C103 C 0.90291 0.86148 0.34235 0.0
O104 O 0.71988 0.85919 0.40607 0.0
O105 O 0.78017 0.94322 0.40366 0.0
O106 O 0.64788 0.92919 0.33317 0.0
C107 C 0.74634 0.90589 0.42156 0.0
O108 O 0.88507 0.81208 0.35887 0.0
C109 C 0.65933 0.9861 0.32431 0.0
O110 O 0.8631 0.90322 0.3326 0.0
O111 O 0.71622 0.00538 0.326 0.0
C112 C 0.04972 0.58824 0.15793 0.0
C113 C 0.01954 0.55041 0.18373 0.0
C114 C 0.97839 0.64653 0.21164 0.0
C115 C 0.00324 0.68283 0.18401 0.0
N116 N 0.08078 0.69453 0.1395 0.0
N117 N 0.97269 0.54367 0.2405 0.0
C118 C 0.04619 0.65559 0.1605 0.0
C119 C 0.98994 0.57981 0.21261 0.0
N120 N 0.07625 0.5605 0.12932 0.0
N121 N 0.94091 0.67589 0.2356 0.0
H122 H 0.98182 0.49482 0.24179 0.0
H123 H 0.95437 0.56252 0.26334 0.0
H124 H 0.93436 0.72527 0.23563 0.0
H125 H 0.91583 0.6519 0.25474 0.0
H126 H 0.09203 0.5863 0.10797 0.0
H127 H 0.07841 0.51147 0.12535 0.0
H128 H 0.11679 0.67825 0.12342 0.0
H129 H 0.07735 0.74412 0.14107 0.0
C130 C 0.50132 0.85385 0.69431 0.0
C131 C 0.48394 0.82197 0.66321 0.0
C132 C 0.59513 0.80103 0.65117 0.0
C133 C 0.61133 0.84764 0.67602 0.0
N134 N 0.58346 0.9114 0.72528 0.0
N135 N 0.51532 0.76618 0.61076 0.0
C136 C 0.56547 0.87064 0.69945 0.0
C137 C 0.53094 0.79403 0.64171 0.0
N138 N 0.45657 0.86811 0.71858 0.0
N139 N 0.64119 0.76557 0.63576 0.0
H140 H 0.46934 0.76235 0.60154 0.0
H141 H 0.54875 0.75186 0.59258 0.0
H142 H 0.68841 0.76928 0.64302 0.0
H143 H 0.63166 0.72753 0.61914 0.0
H144 H 0.46703 0.88679 0.74295 0.0
H145 H 0.40919 0.85592 0.71548 0.0
H146 H 0.55196 0.93643 0.74087 0.0
H147 H 0.63094 0.92125 0.7302 0.0
C148 C 0.88379 0.56066 0.86227 0.0
C149 C 0.90277 0.51872 0.83515 0.0
C150 C 0.94705 0.60841 0.8027 0.0
C151 C 0.93239 0.64874 0.83096 0.0
N152 N 0.86935 0.67024 0.88116 0.0
N153 N 0.93535 0.50405 0.77587 0.0
C154 C 0.89391 0.62709 0.85831 0.0
C155 C 0.92856 0.54326 0.80396 0.0
N156 N 0.86158 0.537 0.89298 0.0
N157 N 0.98119 0.63219 0.77562 0.0
H158 H 0.92127 0.45635 0.77626 0.0
H159 H 0.94984 0.51965 0.75154 0.0
H160 H -0.00742 0.68054 0.77385 0.0
H161 H -0.0006 0.60442 0.75562 0.0
H162 H 0.8546 0.56491 0.915 0.0
H163 H 0.8544 0.48867 0.89767 0.0
H164 H 0.83655 0.65847 0.90019 0.0
H165 H 0.87727 0.71916 0.87863 0.0
C166 C 0.50118 0.0229 0.28933 0.0
C167 C 0.47498 0.04377 0.32121 0.0
C168 C 0.58122 0.06444 0.34343 0.0
C169 C 0.60567 0.02771 0.31598 0.0
N170 N 0.59291 0.97867 0.26024 0.0
N171 N 0.49074 0.08371 0.37979 0.0
C172 C 0.56691 0.01041 0.28765 0.0
C173 C 0.51501 0.06639 0.3483 0.0
N174 N 0.46307 0.01483 0.26106 0.0
N175 N 0.62161 0.09429 0.36576 0.0
H176 H 0.44284 0.08361 0.38555 0.0
H177 H 0.51866 0.09321 0.40144 0.0
H178 H 0.6704 0.09247 0.36242 0.0
H179 H 0.60679 0.12595 0.38493 0.0
H180 H 0.47986 0.0039 0.23639 0.0
H181 H 0.41489 0.02495 0.26173 0.0
H182 H 0.56664 0.95822 0.24031 0.0
H183 H 0.64154 0.97156 0.25829 0.0
C184 C 0.92994 0.27424 0.99555 0.0
C185 C 0.93104 0.32937 0.97423 0.0
C186 C 0.96429 0.39491 0.02387 0.0
C187 C 0.96719 0.33908 0.04454 0.0
N188 N 0.96003 0.22493 0.05015 0.0
N189 N 0.95417 0.44101 0.96635 0.0
C190 C 0.95185 0.27851 0.03041 0.0
C191 C 0.94963 0.38945 0.98792 0.0
N192 N 0.90763 0.21792 0.98245 0.0
N193 N 0.97401 0.45323 0.03892 0.0
H194 H 0.94051 0.43965 0.94034 0.0
H195 H 0.97434 0.4843 0.97355 0.0
H196 H 0.98708 0.45871 0.06486 0.0
H197 H 0.96568 0.49641 0.02646 0.0
H198 H 0.899 0.17761 0.99742 0.0
H199 H 0.89356 0.21243 0.95671 0.0
H200 H 0.95592 0.17866 0.04064 0.0
H201 H 0.97548 0.22641 0.07585 0.0
C202 C 0.68669 0.94839 0.51215 0.0
C203 C 0.74528 0.95229 0.52997 0.0
C204 C 0.79989 0.9118 0.47863 0.0
C205 C 0.74301 0.91489 0.45956 0.0
N206 N 0.6331 0.94378 0.45644 0.0
N207 N 0.85894 0.95202 0.52748 0.0
C208 C 0.68641 0.9352 0.47582 0.0
C209 C 0.80227 0.93808 0.51238 0.0
N210 N 0.63147 0.95466 0.53004 0.0
N211 N 0.85125 0.88182 0.46481 0.0
H212 H 0.86225 0.97435 0.55157 0.0
H213 H 0.90191 0.94812 0.51457 0.0
H214 H 0.84977 0.8592 0.44071 0.0
H215 H 0.89246 0.87311 0.47877 0.0
H216 H 0.5874 0.94543 0.51916 0.0
H217 H 0.62987 0.96438 0.55656 0.0
H218 H 0.59237 0.96515 0.46606 0.0
H219 H 0.63102 0.93345 0.42998 0.0
C220 C 0.95982 0.76182 0.0196 0.0
C221 C 0.94424 0.82269 0.03336 0.0
C222 C -0.00488 0.87421 0.98385 0.0
C223 C 0.00425 0.81369 0.96817 0.0
N224 N 0.98442 0.70024 0.96816 0.0
N225 N 0.93549 0.93644 0.02521 0.0
C226 C 0.98375 0.75742 0.98521 0.0
C227 C 0.95862 0.87883 0.01451 0.0
N228 N 0.95448 0.70851 0.03976 0.0
N229 N 0.02311 0.92716 0.97006 0.0
H230 H 0.90684 0.94156 0.04701 0.0
H231 H 0.9392 0.97795 0.01053 0.0
H232 H 0.05185 0.92535 0.94816 0.0
H233 H 0.02326 0.97146 0.98232 0.0
H234 H 0.97161 0.66405 0.03224 0.0
H235 H 0.93824 0.70963 0.06527 0.0
H236 H 0.96354 0.65911 0.97804 0.0
H237 H 0.0008 0.69499 0.94282 0.0
C238 C 0.34373 0.91889 0.46991 0.0
C239 C 0.28555 0.94154 0.45639 0.0
C240 C 0.22925 0.89817 0.50668 0.0
C241 C 0.28787 0.87964 0.52133 0.0
N242 N 0.40129 0.87694 0.51947 0.0
N243 N 0.17362 0.95828 0.46235 0.0
C244 C 0.34528 0.89095 0.50357 0.0
C245 C 0.22845 0.93284 0.47496 0.0
N246 N 0.39735 0.92372 0.45039 0.0
N247 N 0.17434 0.88117 0.52286 0.0
H248 H 0.17078 0.98189 0.4386 0.0
H249 H 0.13155 0.95974 0.47617 0.0
H250 H 0.17336 0.85586 0.54614 0.0
H251 H 0.12971 0.88764 0.51221 0.0
H252 H 0.43983 0.90187 0.45681 0.0
H253 H 0.39874 0.94716 0.42654 0.0
H254 H 0.44512 0.89067 0.50993 0.0
H255 H 0.4039 0.85425 0.54351 0.0
C256 C 0.19405 0.21432 0.22502 0.0
C257 C 0.14709 0.26011 0.233 0.0
C258 C 0.15588 0.2348 0.29492 0.0
C259 C 0.20318 0.1895 0.2869 0.0
N260 N 0.28018 0.14944 0.24641 0.0
N261 N 0.09598 0.32659 0.27561 0.0
C262 C 0.22647 0.18366 0.25256 0.0
C263 C 0.13206 0.2744 0.26805 0.0
N264 N 0.20508 0.19711 0.19134 0.0
N265 N 0.13135 0.23774 0.32765 0.0
H266 H 0.07899 0.35741 0.25653 0.0
H267 H 0.08827 0.34292 0.30078 0.0
H268 H 0.14801 0.20992 0.3481 0.0
H269 H 0.09162 0.26447 0.33398 0.0
H270 H 0.23338 0.1586 0.18439 0.0
H271 H 0.1821 0.21789 0.1703 0.0
H272 H 0.30285 0.14849 0.22246 0.0
H273 H 0.30575 0.12731 0.26617 0.0
C274 C 0.81133 0.14324 0.77819 0.0
C275 C 0.77412 0.19601 0.78838 0.0
C276 C 0.72067 0.19463 0.73188 0.0
C277 C 0.76349 0.14699 0.72048 0.0
N278 N 0.85963 0.08783 0.7303 0.0
N279 N 0.69696 0.27627 0.77484 0.0
C280 C 0.81143 0.12428 0.74302 0.0
C281 C 0.72958 0.223 0.76521 0.0
N282 N 0.84694 0.11133 0.80215 0.0
N283 N 0.67073 0.21125 0.71139 0.0
H284 H 0.70094 0.29627 0.79956 0.0
H285 H 0.66883 0.30241 0.75788 0.0
H286 H 0.66304 0.19121 0.68697 0.0
H287 H 0.63451 0.24114 0.7196 0.0
H288 H 0.86989 0.06852 0.79682 0.0
H289 H 0.84854 0.12408 0.8283 0.0
H290 H 0.89829 0.0739 0.74507 0.0
H291 H 0.86493 0.0774 0.70401 0.0
C292 C 0.65114 0.77238 0.25185 0.0
C293 C 0.69706 0.73509 0.26919 0.0
C294 C 0.73725 0.69837 0.21339 0.0
C295 C 0.70532 0.75002 0.19746 0.0
N296 N 0.62097 0.82664 0.19867 0.0
N297 N 0.77114 0.64829 0.2672 0.0
C298 C 0.65714 0.78268 0.21556 0.0
C299 C 0.73495 0.69199 0.25012 0.0
N300 N 0.60404 0.79977 0.27083 0.0
N301 N 0.77164 0.65788 0.19309 0.0
H302 H 0.76713 0.64041 0.29377 0.0
H303 H 0.80399 0.61879 0.25528 0.0
H304 H 0.77253 0.66258 0.16611 0.0
H305 H 0.79543 0.61791 0.2022 0.0
H306 H 0.56687 0.82556 0.26018 0.0
H307 H 0.60004 0.79184 0.29749 0.0
H308 H 0.58924 0.85692 0.21095 0.0
H309 H 0.62286 0.83289 0.17189 0.0
C310 C 0.30182 0.72472 0.74528 0.0
C311 C 0.25626 0.69832 0.72268 0.0
C312 C 0.18769 0.67731 0.77203 0.0
C313 C 0.22493 0.71952 0.79234 0.0
N314 N 0.3205 0.78134 0.79907 0.0
N315 N 0.1582 0.64335 0.71402 0.0
C316 C 0.28399 0.74116 0.77966 0.0
C317 C 0.20047 0.67124 0.73606 0.0
N318 N 0.36142 0.73537 0.73334 0.0
N319 N 0.14017 0.64358 0.7873 0.0
H320 H 0.16818 0.63631 0.68777 0.0
H321 H 0.113 0.62956 0.72145 0.0
H322 H 0.13087 0.6467 0.81384 0.0
H323 H 0.11493 0.60794 0.77455 0.0
H324 H 0.39861 0.7496 0.74924 0.0
H325 H 0.37462 0.7231 0.70812 0.0
H326 H 0.3601 0.8046 0.78933 0.0
H327 H 0.30947 0.79436 0.82441 0.0
C328 C 0.88178 0.13225 0.19406 0.0
C329 C 0.88274 0.17599 0.16617 0.0
C330 C 0.85041 0.09266 0.12576 0.0
C331 C 0.84813 0.04822 0.15366 0.0
N332 N 0.84515 0.02992 0.21546 0.0
N333 N 0.84807 0.20375 0.10881 0.0
C334 C 0.85845 0.06942 0.18827 0.0
C335 C 0.85953 0.15809 0.13325 0.0
N336 N 0.90547 0.15003 0.22558 0.0
N337 N 0.85 0.07242 0.09201 0.0
H338 H 0.85426 0.25221 0.11396 0.0
H339 H 0.82623 0.19407 0.08514 0.0
H340 H 0.84862 0.02469 0.08465 0.0
H341 H 0.85837 0.10279 0.07113 0.0
H342 H 0.9131 0.11817 0.24586 0.0
H343 H 0.92026 0.19659 0.23072 0.0
H344 H 0.84695 0.04447 0.24129 0.0
H345 H 0.82635 0.98435 0.21203 0.0
C346 C 0.08527 0.95634 0.61811 0.0
C347 C 0.10278 0.91986 0.64732 0.0
C348 C 0.00303 0.94647 0.67553 0.0
C349 C 0.98072 0.97235 0.64366 0.0
N350 N -0.00036 0.99247 0.58239 0.0
N351 N 0.07964 0.87808 0.70396 0.0
C352 C 0.02181 0.97585 0.61446 0.0
C353 C 0.06221 0.91465 0.67625 0.0
N354 N 0.12909 0.97129 0.59343 0.0
N355 N 0.96857 0.95376 0.7052 0.0
H356 H 0.12402 0.85682 0.70581 0.0
H357 H 0.04917 0.86625 0.72414 0.0
H358 H 0.92579 0.97807 0.70581 0.0
H359 H 0.98519 0.94125 0.7297 0.0
H360 H 0.12042 0.00324 0.5733 0.0
H361 H 0.17605 0.95699 0.59509 0.0
H362 H 0.0261 0.98768 0.55977 0.0
H363 H 0.9532 0.00478 0.57731 0.0
C364 C 0.03519 0.10383 0.81905 0.0
C365 C 0.03367 0.14022 0.84995 0.0
C366 C 0.09293 0.05872 0.88098 0.0
C367 C 0.09049 0.01912 0.8508 0.0
N368 N 0.07743 0.01114 0.78888 0.0
N369 N 0.0809 0.16522 0.90476 0.0
C370 C 0.06787 0.04441 0.81893 0.0
C371 C 0.07003 0.12201 0.87887 0.0
N372 N 0.00315 0.1249 0.79056 0.0
N373 N 0.11105 0.03496 0.91249 0.0
H374 H 0.06382 0.21187 0.90354 0.0
H375 H 0.11203 0.15708 0.92522 0.0
H376 H 0.12785 0.98912 0.91655 0.0
H377 H 0.10487 0.05966 0.9357 0.0
H378 H -0.00201 0.09856 0.76786 0.0
H379 H 0.98046 0.16903 0.79004 0.0
H380 H 0.06582 0.02821 0.76436 0.0
H381 H 0.10238 0.96825 0.78834 0.0
C382 C 0.01108 0.87466 0.36802 0.0
C383 C 0.97137 0.87428 0.33823 0.0
C384 C 0.05895 0.91459 0.30282 0.0
C385 C 0.09821 0.91324 0.33255 0.0
N386 N 0.11792 0.87399 0.39015 0.0
N387 N 0.96137 0.87902 0.27592 0.0
C388 C 0.07627 0.8867 0.36395 0.0
C389 C -0.00343 0.88955 0.30509 0.0
N390 N 0.98617 0.869 0.40057 0.0
N391 N 0.08034 0.94211 0.27298 0.0
H392 H 0.91607 0.85962 0.27678 0.0
H393 H 0.97905 0.88393 0.25087 0.0
H394 H 0.12651 0.95871 0.27035 0.0
H395 H 0.05164 0.95136 0.25163 0.0
H396 H 0.01235 0.87611 0.42315 0.0
H397 H 0.93818 0.8642 0.40534 0.0
H398 H 0.10555 0.8493 0.41258 0.0
H399 H 0.16625 0.88223 0.38773 0.0
loop_
_geom_bond_atom_site_label_1
_geom_bond_atom_site_label_2
_geom_bond_distance
_geom_bond_site_symmetry_2
_ccdc_geom_bond_type
C0 O1 1.306 . S
C0 O3 1.160 . S
O1 C0 1.306 . S
O1 Cd2 2.228 . S
Cd2 O1 2.228 . S
Cd2 O6 2.273 . S
Cd2 O10 2.277 . S
O3 C0 1.160 . S
O3 Cd4 2.203 . S
Cd4 O3 2.203 . S
Cd4 O6 2.411 . S
Cd4 O7 2.333 . S
Cd4 O8 2.352 . S
Cd4 O12 2.277 1_455 S
Cd4 O13 2.356 1_455 S
C5 O10 1.209 . S
C5 O12 1.226 1_455 S
O6 Cd2 2.273 . S
O6 Cd4 2.411 . S
O6 C9 1.320 . S
O7 Cd4 2.333 . S
O7 C9 1.214 . S
O8 Cd4 2.352 . S
O8 C11 1.258 . S
C9 O6 1.320 . S
C9 O7 1.214 . S
O10 Cd2 2.277 . S
O10 C5 1.209 . S
C11 O8 1.258 . S
C11 O13 1.282 1_455 S
O12 Cd4 2.277 1_655 S
O12 C5 1.226 1_655 S
O13 Cd4 2.356 1_655 S
O13 C11 1.282 1_655 S
C14 O15 1.306 . S
C14 O17 1.160 . S
O15 C14 1.306 . S
O15 Cd16 2.228 . S
Cd16 O15 2.228 . S
Cd16 O20 2.273 . S
Cd16 O24 2.277 . S
O17 C14 1.160 . S
O17 Cd18 2.203 . S
Cd18 O17 2.203 . S
Cd18 O20 2.411 . S
Cd18 O21 2.333 . S
Cd18 O22 2.352 . S
Cd18 O26 2.277 1_545 S
Cd18 O27 2.356 1_545 S
C19 O24 1.209 . S
C19 O26 1.226 1_545 S
O20 Cd16 2.273 . S
O20 Cd18 2.411 . S
O20 C23 1.320 . S
O21 Cd18 2.333 . S
O21 C23 1.214 . S
O22 Cd18 2.352 . S
O22 C25 1.258 . S
C23 O20 1.320 . S
C23 O21 1.214 . S
O24 Cd16 2.277 . S
O24 C19 1.209 . S
C25 O22 1.258 . S
C25 O27 1.282 1_545 S
O26 Cd18 2.277 1_565 S
O26 C19 1.226 1_565 S
O27 Cd18 2.356 1_565 S
O27 C25 1.282 1_565 S
C28 O29 1.306 . S
C28 O31 1.160 . S
O29 C28 1.306 . S
O29 Cd30 2.228 . S
Cd30 O29 2.228 . S
Cd30 O34 2.273 . S
Cd30 O38 2.277 . S
O31 C28 1.160 . S
O31 Cd32 2.203 . S
Cd32 O31 2.203 . S
Cd32 O34 2.411 . S
Cd32 O35 2.333 . S
Cd32 O36 2.352 . S
Cd32 O40 2.277 1_655 S
Cd32 O41 2.356 1_655 S
C33 O38 1.209 . S
C33 O40 1.226 1_655 S
O34 Cd30 2.273 . S
O34 Cd32 2.411 . S
O34 C37 1.320 . S
O35 Cd32 2.333 . S
O35 C37 1.214 . S
O36 Cd32 2.352 . S
O36 C39 1.258 . S
C37 O34 1.320 . S
C37 O35 1.214 . S
O38 Cd30 2.277 . S
O38 C33 1.209 . S
C39 O36 1.258 . S
C39 O41 1.282 1_655 S
O40 Cd32 2.277 1_455 S
O40 C33 1.226 1_455 S
O41 Cd32 2.356 1_455 S
O41 C39 1.282 1_455 S
C42 O43 1.306 . S
C42 O45 1.160 . S
O43 C42 1.306 . S
O43 Cd44 2.228 . S
Cd44 O43 2.228 . S
Cd44 O48 2.273 . S
Cd44 O52 2.277 . S
O45 C42 1.160 . S
O45 Cd46 2.203 . S
Cd46 O45 2.203 . S
Cd46 O48 2.411 . S
Cd46 O49 2.333 . S
Cd46 O50 2.352 . S
Cd46 O54 2.277 1_565 S
Cd46 O55 2.356 1_565 S
C47 O52 1.209 . S
C47 O54 1.226 1_565 S
O48 Cd44 2.273 . S
O48 Cd46 2.411 . S
O48 C51 1.320 . S
O49 Cd46 2.333 . S
O49 C51 1.214 . S
O50 Cd46 2.352 . S
O50 C53 1.258 . S
C51 O48 1.320 . S
C51 O49 1.214 . S
O52 Cd44 2.277 . S
O52 C47 1.209 . S
C53 O50 1.258 . S
C53 O55 1.282 1_565 S
O54 Cd46 2.277 1_545 S
O54 C47 1.226 1_545 S
O55 Cd46 2.356 1_545 S
O55 C53 1.282 1_545 S
C56 O57 1.306 . S
C56 O59 1.160 . S
O57 C56 1.306 . S
O57 Cd58 2.228 . S
Cd58 O57 2.228 . S
Cd58 O62 2.273 . S
Cd58 O66 2.277 . S
O59 C56 1.160 . S
O59 Cd60 2.203 . S
Cd60 O59 2.203 . S
Cd60 O62 2.411 . S
Cd60 O63 2.333 . S
Cd60 O64 2.352 . S
Cd60 O68 2.277 1_455 S
Cd60 O69 2.356 1_455 S
C61 O66 1.209 . S
C61 O68 1.226 1_455 S
O62 Cd58 2.273 . S
O62 Cd60 2.411 . S
O62 C65 1.320 . S
O63 Cd60 2.333 . S
O63 C65 1.214 . S
O64 Cd60 2.352 . S
O64 C67 1.258 . S
C65 O62 1.320 . S
C65 O63 1.214 . S
O66 Cd58 2.277 . S
O66 C61 1.209 . S
C67 O64 1.258 . S
C67 O69 1.282 1_455 S
O68 Cd60 2.277 1_655 S
O68 C61 1.226 1_655 S
O69 Cd60 2.356 1_655 S
O69 C67 1.282 1_655 S
C70 O71 1.306 . S
C70 O73 1.160 . S
O71 C70 1.306 . S
O71 Cd72 2.228 . S
Cd72 O71 2.228 . S
Cd72 O76 2.273 . S
Cd72 O80 2.277 . S
O73 C70 1.160 . S
O73 Cd74 2.203 . S
Cd74 O73 2.203 . S
Cd74 O76 2.411 . S
Cd74 O77 2.333 . S
Cd74 O78 2.352 . S
Cd74 O82 2.277 1_545 S
Cd74 O83 2.356 1_545 S
C75 O80 1.209 . S
C75 O82 1.226 1_545 S
O76 Cd72 2.273 . S
O76 Cd74 2.411 . S
O76 C79 1.320 . S
O77 Cd74 2.333 . S
O77 C79 1.214 . S
O78 Cd74 2.352 . S
O78 C81 1.258 . S
C79 O76 1.320 . S
C79 O77 1.214 . S
O80 Cd72 2.277 . S
O80 C75 1.209 . S
C81 O78 1.258 . S
C81 O83 1.282 1_545 S
O82 Cd74 2.277 1_565 S
O82 C75 1.226 1_565 S
O83 Cd74 2.356 1_565 S
O83 C81 1.282 1_565 S
C84 O85 1.306 . S
C84 O87 1.160 . S
O85 C84 1.306 . S
O85 Cd86 2.228 . S
Cd86 O85 2.228 . S
Cd86 O90 2.273 . S
Cd86 O94 2.277 . S
O87 C84 1.160 . S
O87 Cd88 2.203 . S
Cd88 O87 2.203 . S
Cd88 O90 2.411 . S
Cd88 O91 2.333 . S
Cd88 O92 2.352 . S
Cd88 O96 2.277 1_655 S
Cd88 O97 2.356 1_655 S
C89 O94 1.209 . S
C89 O96 1.226 1_655 S
O90 Cd86 2.273 . S
O90 Cd88 2.411 . S
O90 C93 1.320 . S
O91 Cd88 2.333 . S
O91 C93 1.214 . S
O92 Cd88 2.352 . S
O92 C95 1.258 . S
C93 O90 1.320 . S
C93 O91 1.214 . S
O94 Cd86 2.277 . S
O94 C89 1.209 . S
C95 O92 1.258 . S
C95 O97 1.282 1_655 S
O96 Cd88 2.277 1_455 S
O96 C89 1.226 1_455 S
O97 Cd88 2.356 1_455 S
O97 C95 1.282 1_455 S
C98 O99 1.306 . S
C98 O101 1.160 . S
O99 C98 1.306 . S
O99 Cd100 2.228 . S
Cd100 O99 2.228 . S
Cd100 O104 2.273 . S
Cd100 O108 2.277 . S
O101 C98 1.160 . S
O101 Cd102 2.203 . S
Cd102 O101 2.203 . S
Cd102 O104 2.411 . S
Cd102 O105 2.333 . S
Cd102 O106 2.352 . S
Cd102 O110 2.277 1_565 S
Cd102 O111 2.356 1_565 S
C103 O108 1.209 . S
C103 O110 1.226 1_565 S
O104 Cd100 2.273 . S
O104 Cd102 2.411 . S
O104 C107 1.320 . S
O105 Cd102 2.333 . S
O105 C107 1.214 . S
O106 Cd102 2.352 . S
O106 C109 1.258 . S
C107 O104 1.320 . S
C107 O105 1.214 . S
O108 Cd100 2.277 . S
O108 C103 1.209 . S
C109 O106 1.258 . S
C109 O111 1.282 1_565 S
O110 Cd102 2.277 1_545 S
O110 C103 1.226 1_545 S
O111 Cd102 2.356 1_545 S
O111 C109 1.282 1_545 S
C112 C113 1.363 . S
C112 C118 1.379 . S
C112 N120 1.356 . S
C113 C112 1.363 . S
C113 C119 1.363 1_455 S
C114 C115 1.363 . S
C114 C119 1.379 . S
C114 N121 1.356 . S
C115 C114 1.363 . S
C115 C118 1.363 1_655 S
N116 C118 1.356 . S
N116 H128 0.984 . S
N116 H129 0.985 . S
N117 C119 1.356 . S
N117 H122 0.984 . S
N117 H123 0.985 . S
C118 C112 1.379 . S
C118 C115 1.363 1_455 S
C118 N116 1.356 . S
C119 C113 1.363 1_655 S
C119 C114 1.379 . S
C119 N117 1.356 . S
N120 C112 1.356 . S
N120 H126 0.984 . S
N120 H127 0.984 . S
N121 C114 1.356 . S
N121 H124 0.984 . S
N121 H125 0.985 . S
H122 N117 0.984 . S
H123 N117 0.985 . S
H124 N121 0.984 . S
H125 N121 0.985 . S
H126 N120 0.984 . S
H127 N120 0.984 . S
H128 N116 0.984 . S
H129 N116 0.985 . S
C130 C131 1.363 1_545 S
C130 C136 1.379 . S
C130 N138 1.356 . S
C131 C130 1.363 1_565 S
C131 C137 1.363 . S
C132 C133 1.363 1_565 S
C132 C137 1.379 . S
C132 N139 1.356 . S
C133 C132 1.363 1_545 S
C133 C136 1.363 . S
N134 C136 1.356 . S
N134 H146 0.984 . S
N134 H147 0.985 . S
N135 C137 1.356 . S
N135 H140 0.984 . S
N135 H141 0.985 . S
C136 C130 1.379 . S
C136 C133 1.363 . S
C136 N134 1.356 . S
C137 C131 1.363 . S
C137 C132 1.379 . S
C137 N135 1.356 . S
N138 C130 1.356 . S
N138 H144 0.984 . S
N138 H145 0.984 . S
N139 C132 1.356 . S
N139 H142 0.984 . S
N139 H143 0.985 . S
H140 N135 0.984 . S
H141 N135 0.985 . S
H142 N139 0.984 . S
H143 N139 0.985 . S
H144 N138 0.984 . S
H145 N138 0.984 . S
H146 N134 0.984 . S
H147 N134 0.985 . S
C148 C149 1.363 . S
C148 C154 1.379 . S
C148 N156 1.356 . S
C149 C148 1.363 . S
C149 C155 1.363 1_655 S
C150 C151 1.363 . S
C150 C155 1.379 . S
C150 N157 1.356 . S
C151 C150 1.363 . S
C151 C154 1.363 1_455 S
N152 C154 1.356 . S
N152 H164 0.984 . S
N152 H165 0.985 . S
N153 C155 1.356 . S
N153 H158 0.984 . S
N153 H159 0.985 . S
C154 C148 1.379 . S
C154 C151 1.363 1_655 S
C154 N152 1.356 . S
C155 C149 1.363 1_455 S
C155 C150 1.379 . S
C155 N153 1.356 . S
N156 C148 1.356 . S
N156 H162 0.984 . S
N156 H163 0.984 . S
N157 C150 1.356 . S
N157 H160 0.984 . S
N157 H161 0.985 . S
H158 N153 0.984 . S
H159 N153 0.985 . S
H160 N157 0.984 . S
H161 N157 0.985 . S
H162 N156 0.984 . S
H163 N156 0.984 . S
H164 N152 0.984 . S
H165 N152 0.985 . S
C166 C167 1.363 1_565 S
C166 C172 1.379 . S
C166 N174 1.356 . S
C167 C166 1.363 1_545 S
C167 C173 1.363 . S
C168 C169 1.363 1_545 S
C168 C173 1.379 . S
C168 N175 1.356 . S
C169 C168 1.363 1_565 S
C169 C172 1.363 . S
N170 C172 1.356 . S
N170 H182 0.984 . S
N170 H183 0.985 . S
N171 C173 1.356 . S
N171 H176 0.984 . S
N171 H177 0.985 . S
C172 C166 1.379 . S
C172 C169 1.363 . S
C172 N170 1.356 . S
C173 C167 1.363 . S
C173 C168 1.379 . S
C173 N171 1.356 . S
N174 C166 1.356 . S
N174 H180 0.984 . S
N174 H181 0.984 . S
N175 C168 1.356 . S
N175 H178 0.984 . S
N175 H179 0.985 . S
H176 N171 0.984 . S
H177 N171 0.985 . S
H178 N175 0.984 . S
H179 N175 0.985 . S
H180 N174 0.984 . S
H181 N174 0.984 . S
H182 N170 0.984 . S
H183 N170 0.985 . S
C184 C185 1.363 1_554 S
C184 C190 1.379 1_655 S
C184 N192 1.356 . S
C185 C184 1.363 1_556 S
C185 C191 1.363 . S
C186 C187 1.363 1_556 S
C186 C191 1.379 1_455 S
C186 N193 1.356 . S
C187 C186 1.363 1_554 S
C187 C190 1.363 . S
N188 C190 1.356 . S
N188 H200 0.984 . S
N188 H201 0.985 . S
N189 C191 1.356 . S
N189 H194 0.984 . S
N189 H195 0.985 . S
C190 C184 1.379 1_455 S
C190 C187 1.363 . S
C190 N188 1.356 . S
C191 C185 1.363 . S
C191 C186 1.379 1_655 S
C191 N189 1.356 . S
N192 C184 1.356 . S
N192 H198 0.984 . S
N192 H199 0.985 1_554 S
N193 C186 1.356 . S
N193 H196 0.985 1_556 S
N193 H197 0.984 . S
H194 N189 0.984 . S
H195 N189 0.985 . S
H196 N193 0.985 1_554 S
H197 N193 0.984 . S
H198 N192 0.984 . S
H199 N192 0.985 1_556 S
H200 N188 0.984 . S
H201 N188 0.985 . S
C202 C203 1.363 . S
C202 C208 1.379 1_545 S
C202 N210 1.356 . S
C203 C202 1.363 . S
C203 C209 1.363 . S
C204 C205 1.363 . S
C204 C209 1.379 1_565 S
C204 N211 1.356 . S
C205 C204 1.363 . S
C205 C208 1.363 . S
N206 C208 1.356 . S
N206 H218 0.984 1_565 S
N206 H219 0.985 . S
N207 C209 1.356 . S
N207 H212 0.984 . S
N207 H213 0.985 1_545 S
C208 C202 1.379 1_565 S
C208 C205 1.363 . S
C208 N206 1.356 . S
C209 C203 1.363 . S
C209 C204 1.379 1_545 S
C209 N207 1.356 . S
N210 C202 1.356 . S
N210 H216 0.984 . S
N210 H217 0.984 . S
N211 C204 1.356 . S
N211 H214 0.984 . S
N211 H215 0.985 . S
H212 N207 0.984 . S
H213 N207 0.985 1_565 S
H214 N211 0.984 . S
H215 N211 0.985 . S
H216 N210 0.984 . S
H217 N210 0.984 . S
H218 N206 0.984 1_545 S
H219 N206 0.985 . S
C220 C221 1.363 . S
C220 C226 1.379 1_655 S
C220 N228 1.356 . S
C221 C220 1.363 . S
C221 C227 1.363 1_554 S
C222 C223 1.363 . S
C222 C227 1.379 1_455 S
C222 N229 1.356 . S
C223 C222 1.363 . S
C223 C226 1.363 1_556 S
N224 C226 1.356 . S
N224 H236 0.984 . S
N224 H237 0.985 1_554 S
N225 C227 1.356 . S
N225 H230 0.985 1_556 S
N225 H231 0.984 . S
C226 C220 1.379 1_455 S
C226 C223 1.363 1_554 S
C226 N224 1.356 . S
C227 C221 1.363 1_556 S
C227 C222 1.379 1_655 S
C227 N225 1.356 . S
N228 C220 1.356 . S
N228 H234 0.984 . S
N228 H235 0.984 . S
N229 C222 1.356 . S
N229 H232 0.984 . S
N229 H233 0.985 . S
H230 N225 0.985 1_554 S
H231 N225 0.984 . S
H232 N229 0.984 . S
H233 N229 0.985 . S
H234 N228 0.984 . S
H235 N228 0.984 . S
H236 N224 0.984 . S
H237 N224 0.985 1_556 S
C238 C239 1.363 . S
C238 C244 1.393 . S
C238 N246 1.356 . S
C239 C238 1.363 . S
C239 C245 1.348 1_545 S
C240 C241 1.363 . S
C240 C245 1.393 . S
C240 N247 1.356 . S
C241 C240 1.363 . S
C241 C244 1.348 1_565 S
N242 C244 1.352 1_565 S
N242 H254 0.984 1_565 S
N242 H255 0.985 . S
N243 C245 1.352 1_545 S
N243 H248 0.984 . S
N243 H249 0.985 1_545 S
C244 C238 1.393 . S
C244 C241 1.348 1_545 S
C244 N242 1.352 1_545 S
C245 C239 1.348 1_565 S
C245 C240 1.393 . S
C245 N243 1.352 1_565 S
N246 C238 1.356 . S
N246 H252 0.984 . S
N246 H253 0.984 . S
N247 C240 1.356 . S
N247 H250 0.984 . S
N247 H251 0.985 . S
H248 N243 0.984 . S
H249 N243 0.985 1_565 S
H250 N247 0.984 . S
H251 N247 0.985 . S
H252 N246 0.984 . S
H253 N246 0.984 . S
H254 N242 0.984 1_545 S
H255 N242 0.985 . S
C256 C257 1.363 . S
C256 C262 1.379 . S
C256 N264 1.356 . S
C257 C256 1.363 . S
C257 C263 1.363 . S
C258 C259 1.363 . S
C258 C263 1.379 . S
C258 N265 1.356 . S
C259 C258 1.363 . S
C259 C262 1.363 . S
N260 C262 1.356 . S
N260 H272 0.984 . S
N260 H273 0.985 . S
N261 C263 1.356 . S
N261 H266 0.984 . S
N261 H267 0.985 . S
C262 C256 1.379 . S
C262 C259 1.363 . S
C262 N260 1.356 . S
C263 C257 1.363 . S
C263 C258 1.379 . S
C263 N261 1.356 . S
N264 C256 1.356 . S
N264 H270 0.984 . S
N264 H271 0.984 . S
N265 C258 1.356 . S
N265 H268 0.984 . S
N265 H269 0.985 . S
H266 N261 0.984 . S
H267 N261 0.985 . S
H268 N265 0.984 . S
H269 N265 0.985 . S
H270 N264 0.984 . S
H271 N264 0.984 . S
H272 N260 0.984 . S
H273 N260 0.985 . S
C274 C275 1.363 . S
C274 C280 1.379 . S
C274 N282 1.356 . S
C275 C274 1.363 . S
C275 C281 1.363 . S
C276 C277 1.363 . S
C276 C281 1.379 . S
C276 N283 1.356 . S
C277 C276 1.363 . S
C277 C280 1.363 . S
N278 C280 1.356 . S
N278 H290 0.984 . S
N278 H291 0.985 . S
N279 C281 1.356 . S
N279 H284 0.984 . S
N279 H285 0.985 . S
C280 C274 1.379 . S
C280 C277 1.363 . S
C280 N278 1.356 . S
C281 C275 1.363 . S
C281 C276 1.379 . S
C281 N279 1.356 . S
N282 C274 1.356 . S
N282 H288 0.984 . S
N282 H289 0.984 . S
N283 C276 1.356 . S
N283 H286 0.984 . S
N283 H287 0.985 . S
H284 N279 0.984 . S
H285 N279 0.985 . S
H286 N283 0.984 . S
H287 N283 0.985 . S
H288 N282 0.984 . S
H289 N282 0.984 . S
H290 N278 0.984 . S
H291 N278 0.985 . S
C292 C293 1.363 . S
C292 C298 1.379 . S
C292 N300 1.356 . S
C293 C292 1.363 . S
C293 C299 1.363 . S
C294 C295 1.363 . S
C294 C299 1.379 . S
C294 N301 1.356 . S
C295 C294 1.363 . S
C295 C298 1.363 . S
N296 C298 1.356 . S
N296 H308 0.984 . S
N296 H309 0.985 . S
N297 C299 1.356 . S
N297 H302 0.984 . S
N297 H303 0.985 . S
C298 C292 1.379 . S
C298 C295 1.363 . S
C298 N296 1.356 . S
C299 C293 1.363 . S
C299 C294 1.379 . S
C299 N297 1.356 . S
N300 C292 1.356 . S
N300 H306 0.984 . S
N300 H307 0.984 . S
N301 C294 1.356 . S
N301 H304 0.984 . S
N301 H305 0.985 . S
H302 N297 0.984 . S
H303 N297 0.985 . S
H304 N301 0.984 . S
H305 N301 0.985 . S
H306 N300 0.984 . S
H307 N300 0.984 . S
H308 N296 0.984 . S
H309 N296 0.985 . S
C310 C311 1.363 . S
C310 C316 1.379 . S
C310 N318 1.356 . S
C311 C310 1.363 . S
C311 C317 1.363 . S
C312 C313 1.363 . S
C312 C317 1.379 . S
C312 N319 1.356 . S
C313 C312 1.363 . S
C313 C316 1.363 . S
N314 C316 1.356 . S
N314 H326 0.984 . S
N314 H327 0.985 . S
N315 C317 1.356 . S
N315 H320 0.984 . S
N315 H321 0.985 . S
C316 C310 1.379 . S
C316 C313 1.363 . S
C316 N314 1.356 . S
C317 C311 1.363 . S
C317 C312 1.379 . S
C317 N315 1.356 . S
N318 C310 1.356 . S
N318 H324 0.984 . S
N318 H325 0.984 . S
N319 C312 1.356 . S
N319 H322 0.984 . S
N319 H323 0.985 . S
H320 N315 0.984 . S
H321 N315 0.985 . S
H322 N319 0.984 . S
H323 N319 0.985 . S
H324 N318 0.984 . S
H325 N318 0.984 . S
H326 N314 0.984 . S
H327 N314 0.985 . S
C328 C329 1.363 . S
C328 C334 1.379 1_545 S
C328 N336 1.356 . S
C329 C328 1.363 . S
C329 C335 1.363 1_455 S
C330 C331 1.363 . S
C330 C335 1.379 1_565 S
C330 N337 1.356 . S
C331 C330 1.363 . S
C331 C334 1.363 1_655 S
N332 C334 1.356 . S
N332 H344 0.984 . S
N332 H345 0.985 . S
N333 C335 1.356 . S
N333 H338 0.984 . S
N333 H339 0.985 . S
C334 C328 1.379 1_565 S
C334 C331 1.363 1_455 S
C334 N332 1.356 . S
C335 C329 1.363 1_655 S
C335 C330 1.379 1_545 S
C335 N333 1.356 . S
N336 C328 1.356 . S
N336 H342 0.984 . S
N336 H343 0.984 . S
N337 C330 1.356 . S
N337 H340 0.984 . S
N337 H341 0.985 . S
H338 N333 0.984 . S
H339 N333 0.985 . S
H340 N337 0.984 . S
H341 N337 0.985 . S
H342 N336 0.984 . S
H343 N336 0.984 . S
H344 N332 0.984 . S
H345 N332 0.985 . S
C346 C347 1.363 1_545 S
C346 C352 1.379 1_455 S
C346 N354 1.356 . S
C347 C346 1.363 1_565 S
C347 C353 1.363 . S
C348 C349 1.363 1_565 S
C348 C353 1.379 1_655 S
C348 N355 1.356 . S
C349 C348 1.363 1_545 S
C349 C352 1.363 . S
N350 C352 1.356 . S
N350 H362 0.984 . S
N350 H363 0.985 . S
N351 C353 1.356 . S
N351 H356 0.984 . S
N351 H357 0.985 . S
C352 C346 1.379 1_655 S
C352 C349 1.363 . S
C352 N350 1.356 . S
C353 C347 1.363 . S
C353 C348 1.379 1_455 S
C353 N351 1.356 . S
N354 C346 1.356 . S
N354 H360 0.984 . S
N354 H361 0.984 . S
N355 C348 1.356 . S
N355 H358 0.984 . S
N355 H359 0.985 . S
H356 N351 0.984 . S
H357 N351 0.985 . S
H358 N355 0.984 . S
H359 N355 0.985 . S
H360 N354 0.984 . S
H361 N354 0.984 . S
H362 N350 0.984 . S
H363 N350 0.985 . S
C364 C365 1.363 . S
C364 C370 1.379 1_545 S
C364 N372 1.356 . S
C365 C364 1.363 . S
C365 C371 1.363 1_655 S
C366 C367 1.363 . S
C366 C371 1.379 1_565 S
C366 N373 1.356 . S
C367 C366 1.363 . S
C367 C370 1.363 1_455 S
N368 C370 1.356 . S
N368 H380 0.984 . S
N368 H381 0.985 . S
N369 C371 1.356 . S
N369 H374 0.984 . S
N369 H375 0.985 . S
C370 C364 1.379 1_565 S
C370 C367 1.363 1_655 S
C370 N368 1.356 . S
C371 C365 1.363 1_455 S
C371 C366 1.379 1_545 S
C371 N369 1.356 . S
N372 C364 1.356 . S
N372 H378 0.984 . S
N372 H379 0.984 . S
N373 C366 1.356 . S
N373 H376 0.984 . S
N373 H377 0.985 . S
H374 N369 0.984 . S
H375 N369 0.985 . S
H376 N373 0.984 . S
H377 N373 0.985 . S
H378 N372 0.984 . S
H379 N372 0.984 . S
H380 N368 0.984 . S
H381 N368 0.985 . S
C382 C383 1.363 1_545 S
C382 C388 1.379 1_655 S
C382 N390 1.356 . S
C383 C382 1.363 1_565 S
C383 C389 1.363 . S
C384 C385 1.363 1_565 S
C384 C389 1.379 1_455 S
C384 N391 1.356 . S
C385 C384 1.363 1_545 S
C385 C388 1.363 . S
N386 C388 1.356 . S
N386 H398 0.984 . S
N386 H399 0.985 . S
N387 C389 1.356 . S
N387 H392 0.984 . S
N387 H393 0.985 . S
C388 C382 1.379 1_455 S
C388 C385 1.363 . S
C388 N386 1.356 . S
C389 C383 1.363 . S
C389 C384 1.379 1_655 S
C389 N387 1.356 . S
N390 C382 1.356 . S
N390 H396 0.984 . S
N390 H397 0.984 . S
N391 C384 1.356 . S
N391 H394 0.984 . S
N391 H395 0.985 . S
H392 N387 0.984 . S
H393 N387 0.985 . S
H394 N391 0.984 . S
H395 N391 0.985 . S
H396 N390 0.984 . S
H397 N390 0.984 . S
H398 N386 0.984 . S
H399 N386 0.985 . S
C113 C11 1.438 . S
C115 C39 1.438 . S
C131 C53 1.438 . S
C133 C25 1.438 . S
C149 C95 1.438 . S
C151 C67 1.438 . S
C167 C81 1.438 . S
C169 C109 1.438 . S
C185 C93 1.715 . S
C187 C9 1.715 . S
C203 C23 1.715 . S
C205 C107 1.715 . S
C221 C37 1.715 . S
C223 C65 1.715 . S
C239 C79 1.715 . S
C241 C51 1.715 . S
C257 C0 1.588 . S
C259 C70 1.588 . S
C275 C84 1.588 . S
C277 C14 1.588 . S
C293 C98 1.588 . S
C295 C28 1.588 . S
C311 C42 1.588 . S
C313 C56 1.588 . S
C329 C5 1.127 . S
C331 C33 1.127 . S
C347 C47 1.127 . S
C349 C19 1.127 . S
C365 C89 1.127 . S
C367 C61 1.127 . S
C383 C103 1.127 . S
C385 C75 1.127 . S
