# Generated by pormake.
# Topology mon, (4)-cn, num edge types: 1
# Building blocks:
#     Node 0, Type 0, BuildingBlock: TATPOV_clean_sbu_0, # of connection points: 4
#     Node 1, Type 0, BuildingBlock: TATPOV_clean_sbu_0, # of connection points: 4
#     Node 2, Type 0, BuildingBlock: TATPOV_clean_sbu_0, # of connection points: 4
#     Node 3, Type 0, BuildingBlock: TATPOV_clean_sbu_0, # of connection points: 4
#     Node 4, Type 0, BuildingBlock: TATPOV_clean_sbu_0, # of connection points: 4
#     Node 5, Type 0, BuildingBlock: TATPOV_clean_sbu_0, # of connection points: 4
#     Node 6, Type 0, BuildingBlock: TATPOV_clean_sbu_0, # of connection points: 4
#     Node 7, Type 0, BuildingBlock: TATPOV_clean_sbu_0, # of connection points: 4
#     Node 8, Type 0, BuildingBlock: TATPOV_clean_sbu_0, # of connection points: 4
#     Node 9, Type 0, BuildingBlock: TATPOV_clean_sbu_0, # of connection points: 4
#     Node 10, Type 0, BuildingBlock: TATPOV_clean_sbu_0, # of connection points: 4
#     Node 11, Type 0, BuildingBlock: TATPOV_clean_sbu_0, # of connection points: 4
#     Node 12, Type 0, BuildingBlock: TATPOV_clean_sbu_0, # of connection points: 4
#     Node 13, Type 0, BuildingBlock: TATPOV_clean_sbu_0, # of connection points: 4
#     Node 14, Type 0, BuildingBlock: TATPOV_clean_sbu_0, # of connection points: 4
#     Node 15, Type 0, BuildingBlock: TATPOV_clean_sbu_0, # of connection points: 4
#     Edge 16, Type (0, 0), BuildingBlock: ZUJKAS_clean_linker_0, # of connection points: 2
#     Edge 17, Type (0, 0), BuildingBlock: ZUJKAS_clean_linker_0, # of connection points: 2
#     Edge 18, Type (0, 0), BuildingBlock: ZUJKAS_clean_linker_0, # of connection points: 2
#     Edge 19, Type (0, 0), BuildingBlock: ZUJKAS_clean_linker_0, # of connection points: 2
#     Edge 20, Type (0, 0), BuildingBlock: ZUJKAS_clean_linker_0, # of connection points: 2
#     Edge 21, Type (0, 0), BuildingBlock: ZUJKAS_clean_linker_0, # of connection points: 2
#     Edge 22, Type (0, 0), BuildingBlock: ZUJKAS_clean_linker_0, # of connection points: 2
#     Edge 23, Type (0, 0), BuildingBlock: ZUJKAS_clean_linker_0, # of connection points: 2
#     Edge 24, Type (0, 0), BuildingBlock: ZUJKAS_clean_linker_0, # of connection points: 2
#     Edge 25, Type (0, 0), BuildingBlock: ZUJKAS_clean_linker_0, # of connection points: 2
#     Edge 26, Type (0, 0), BuildingBlock: ZUJKAS_clean_linker_0, # of connection points: 2
#     Edge 27, Type (0, 0), BuildingBlock: ZUJKAS_clean_linker_0, # of connection points: 2
#     Edge 28, Type (0, 0), BuildingBlock: ZUJKAS_clean_linker_0, # of connection points: 2
#     Edge 29, Type (0, 0), BuildingBlock: ZUJKAS_clean_linker_0, # of connection points: 2
#     Edge 30, Type (0, 0), BuildingBlock: ZUJKAS_clean_linker_0, # of connection points: 2
#     Edge 31, Type (0, 0), BuildingBlock: ZUJKAS_clean_linker_0, # of connection points: 2
#     Edge 32, Type (0, 0), BuildingBlock: ZUJKAS_clean_linker_0, # of connection points: 2
#     Edge 33, Type (0, 0), BuildingBlock: ZUJKAS_clean_linker_0, # of connection points: 2
#     Edge 34, Type (0, 0), BuildingBlock: ZUJKAS_clean_linker_0, # of connection points: 2
#     Edge 35, Type (0, 0), BuildingBlock: ZUJKAS_clean_linker_0, # of connection points: 2
#     Edge 36, Type (0, 0), BuildingBlock: ZUJKAS_clean_linker_0, # of connection points: 2
#     Edge 37, Type (0, 0), BuildingBlock: ZUJKAS_clean_linker_0, # of connection points: 2
#     Edge 38, Type (0, 0), BuildingBlock: ZUJKAS_clean_linker_0, # of connection points: 2
#     Edge 39, Type (0, 0), BuildingBlock: ZUJKAS_clean_linker_0, # of connection points: 2
#     Edge 40, Type (0, 0), BuildingBlock: ZUJKAS_clean_linker_0, # of connection points: 2
#     Edge 41, Type (0, 0), BuildingBlock: ZUJKAS_clean_linker_0, # of connection points: 2
#     Edge 42, Type (0, 0), BuildingBlock: ZUJKAS_clean_linker_0, # of connection points: 2
#     Edge 43, Type (0, 0), BuildingBlock: ZUJKAS_clean_linker_0, # of connection points: 2
#     Edge 44, Type (0, 0), BuildingBlock: ZUJKAS_clean_linker_0, # of connection points: 2
#     Edge 45, Type (0, 0), BuildingBlock: ZUJKAS_clean_linker_0, # of connection points: 2
#     Edge 46, Type (0, 0), BuildingBlock: ZUJKAS_clean_linker_0, # of connection points: 2
#     Edge 47, Type (0, 0), BuildingBlock: ZUJKAS_clean_linker_0, # of connection points: 2
# Relax obj value: 0.114
# Max RMSD: 0.119
# Mean RMSD: 0.119
data_MOF--net-mon--node1-TATPOV_clean_sbu_0--edge1-ZUJKAS_clean_linker_0
_symmetry_space_group_name_H-M    P1
_symmetry_Int_Tables_number       1
_symmetry_cell_setting            triclinic
loop_
_symmetry_equiv_pos_as_xyz
'x, y, z'
_cell_length_a     43.43323
_cell_length_b     43.409103
_cell_length_c     110.01987
_cell_angle_alpha  90.00897
_cell_angle_beta   90.034129
_cell_angle_gamma 89.993064
loop_
_atom_site_label
_atom_site_type_symbol
_atom_site_fract_x
_atom_site_fract_y
_atom_site_fract_z
_atom_type_partial_charge
Zn0 Zn 0.01516 0.96063 0.58196 0.0
Zn1 Zn 0.01841 0.02114 0.58449 0.0
O2 O 0.05556 0.00596 0.59463 0.0
O3 O 0.04942 0.95562 0.59402 0.0
O4 O 0.02058 0.06719 0.58598 0.0
O5 O 0.02422 0.96398 0.56411 0.0
O6 O 0.02336 0.01441 0.56608 0.0
C7 C 0.06398 0.979 0.59778 0.0
C8 C 0.95926 0.98626 0.59116 0.0
O9 O 0.97477 0.01119 0.59105 0.0
O10 O 0.97137 0.96143 0.58749 0.0
C11 C 0.01916 0.0806 0.59623 0.0
O12 O 0.01658 0.06391 0.60614 0.0
C13 C 0.02583 0.99054 0.55941 0.0
Zn14 Zn 0.30401 0.74758 0.83767 0.0
Zn15 Zn 0.24371 0.7522 0.83927 0.0
O16 O 0.2588 0.7931 0.84715 0.0
O17 O 0.30885 0.7899 0.84437 0.0
O18 O 0.19752 0.75537 0.8401 0.0
O19 O 0.30174 0.74207 0.81961 0.0
O20 O 0.25173 0.74956 0.82085 0.0
C21 C 0.28563 0.80487 0.84801 0.0
C22 C 0.27818 0.69897 0.85168 0.0
O23 O 0.25293 0.71145 0.84842 0.0
O24 O 0.30362 0.71102 0.84873 0.0
C25 C 0.18309 0.75616 0.85014 0.0
O26 O 0.19874 0.75517 0.86036 0.0
C27 C 0.27582 0.74496 0.81448 0.0
Zn28 Zn 0.52912 0.03476 0.09235 0.0
Zn29 Zn 0.51888 0.97475 0.09048 0.0
O30 O 0.47829 0.99078 0.09824 0.0
O31 O 0.48623 0.04084 0.09834 0.0
O32 O 0.51169 0.92911 0.08867 0.0
O33 O 0.5373 0.03797 0.0744 0.0
O34 O 0.52488 0.98897 0.07284 0.0
C35 C 0.46875 0.01808 0.10032 0.0
C36 C 0.57265 -0.00051 0.1058 0.0
O37 O 0.55875 0.97693 0.10081 0.0
O38 O 0.5634 0.02678 0.10412 0.0
C39 C 0.51022 0.91147 0.09788 0.0
O40 O 0.5131 0.9234 0.1088 0.0
C41 C 0.53265 0.01437 0.0679 0.0
Zn42 Zn 0.23143 0.25458 0.34869 0.0
Zn43 Zn 0.29258 0.25356 0.34521 0.0
O44 O 0.2841 0.21287 0.35437 0.0
O45 O 0.23424 0.21493 0.35795 0.0
O46 O 0.3385 0.25269 0.34309 0.0
O47 O 0.22559 0.25423 0.33038 0.0
O48 O 0.27589 0.25307 0.32786 0.0
C49 C 0.2598 0.20115 0.35891 0.0
C50 C 0.26139 0.3074 0.35864 0.0
O51 O 0.28537 0.29488 0.35416 0.0
O52 O 0.23545 0.29436 0.35773 0.0
C53 C 0.35541 0.25158 0.35251 0.0
O54 O 0.3423 0.2512 0.36327 0.0
C55 C 0.2488 0.2534 0.32341 0.0
Zn56 Zn 0.01614 0.03888 0.40616 0.0
Zn57 Zn 0.0136 0.97787 0.40477 0.0
O58 O 0.05331 0.98835 0.39535 0.0
O59 O 0.05255 0.03905 0.39489 0.0
O60 O 0.01184 0.93178 0.40355 0.0
O61 O 0.02227 0.03604 0.42427 0.0
O62 O 0.01715 0.98568 0.42313 0.0
C63 C 0.06504 0.0138 0.39193 0.0
C64 C 0.95933 0.01778 0.39608 0.0
O65 O 0.97213 0.99149 0.39716 0.0
O66 O 0.97339 0.04179 0.39951 0.0
C67 C 0.01304 0.91884 0.3932 0.0
O68 O 0.01516 0.93603 0.38341 0.0
C69 C 0.02103 0.01001 0.42943 0.0
Zn70 Zn 0.22832 0.7289 0.66163 0.0
Zn71 Zn 0.28881 0.72985 0.6591 0.0
O72 O 0.27498 0.76888 0.64977 0.0
O73 O 0.22446 0.76499 0.65038 0.0
O74 O 0.33487 0.73079 0.65743 0.0
O75 O 0.2322 0.73543 0.67962 0.0
O76 O 0.28252 0.73262 0.6776 0.0
C77 C 0.24842 0.77897 0.64687 0.0
C78 C 0.25129 0.67337 0.65109 0.0
O79 O 0.27689 0.6877 0.65155 0.0
O80 O 0.2271 0.68599 0.65512 0.0
C81 C 0.34754 0.73098 0.64703 0.0
O82 O 0.33011 0.7304 0.63726 0.0
C83 C 0.25878 0.73529 0.68433 0.0
Zn84 Zn 0.52838 0.96638 0.91753 0.0
Zn85 Zn 0.5255 0.02589 0.91221 0.0
O86 O 0.48309 0.0104 0.90621 0.0
O87 O 0.48629 0.96088 0.91029 0.0
O88 O 0.5242 0.07161 0.90909 0.0
O89 O 0.53236 0.97495 0.93523 0.0
O90 O 0.53088 0.0244 0.9309 0.0
C91 C 0.47119 0.98355 0.90617 0.0
C92 C 0.5767 0.9849 0.90158 0.0
O93 O 0.56301 0.01086 0.90215 0.0
O94 O 0.56654 0.9621 0.9075 0.0
C95 C 0.52534 0.08349 0.89854 0.0
O96 O 0.52731 0.06537 0.88901 0.0
C97 C 0.53302 0.00272 0.93868 0.0
Zn98 Zn 0.30066 0.24867 0.17413 0.0
Zn99 Zn 0.2419 0.24946 0.16784 0.0
O100 O 0.25749 0.20861 0.16024 0.0
O101 O 0.30612 0.20801 0.16582 0.0
O102 O 0.197 0.25011 0.16339 0.0
O103 O 0.2895 0.2495 0.19174 0.0
O104 O 0.24055 0.24944 0.1866 0.0
C105 C 0.28368 0.19534 0.16045 0.0
C106 C 0.28541 0.30183 0.16005 0.0
O107 O 0.25863 0.28979 0.16022 0.0
O108 O 0.30764 0.28831 0.16524 0.0
C109 C 0.18763 0.24585 0.15257 0.0
O110 O 0.20786 0.24097 0.14391 0.0
C111 C 0.2614 0.24954 0.19476 0.0
Zn112 Zn 0.73906 0.2487 0.15227 0.0
Zn113 Zn 0.79882 0.24431 0.15021 0.0
O114 O 0.78763 0.28147 0.13918 0.0
O115 O 0.73706 0.27881 0.13855 0.0
O116 O 0.84496 0.24261 0.14917 0.0
O117 O 0.74281 0.26425 0.16945 0.0
O118 O 0.79204 0.25238 0.16841 0.0
C119 C 0.76193 0.29113 0.13508 0.0
C120 C 0.75845 0.18791 0.14564 0.0
O121 O 0.78477 0.20077 0.14482 0.0
O122 O 0.73539 0.2034 0.14912 0.0
C123 C 0.85956 0.23876 0.13928 0.0
O124 O 0.8441 0.23523 0.12911 0.0
C125 C 0.76883 0.26146 0.1745 0.0
Zn126 Zn 0.80028 0.76163 0.64393 0.0
Zn127 Zn 0.73917 0.7578 0.64691 0.0
O128 O 0.75094 0.71713 0.63811 0.0
O129 O 0.80043 0.72258 0.63436 0.0
O130 O 0.6932 0.75424 0.64844 0.0
O131 O 0.80498 0.75974 0.66226 0.0
O132 O 0.75448 0.7598 0.66444 0.0
C133 C 0.77593 0.70697 0.63354 0.0
C134 C 0.76815 0.81327 0.63391 0.0
O135 O 0.74452 0.79919 0.6379 0.0
O136 O 0.79476 0.8019 0.63523 0.0
C137 C 0.67717 0.75286 0.63878 0.0
O138 O 0.69118 0.7538 0.62821 0.0
C139 C 0.78141 0.75981 0.66903 0.0
Zn140 Zn 0.80318 0.2488 0.32624 0.0
Zn141 Zn 0.74305 0.24571 0.32838 0.0
O142 O 0.75494 0.28371 0.33876 0.0
O143 O 0.80548 0.28032 0.33952 0.0
O144 O 0.69706 0.24409 0.33012 0.0
O145 O 0.79865 0.26272 0.30886 0.0
O146 O 0.74912 0.25216 0.31007 0.0
C147 C 0.78074 0.2933 0.34277 0.0
C148 C 0.78312 0.18945 0.33411 0.0
O149 O 0.75709 0.20296 0.33456 0.0
O150 O 0.8065 0.20384 0.33025 0.0
C151 C 0.68484 0.24213 0.34059 0.0
O152 O 0.70271 0.24088 0.35022 0.0
C153 C 0.7725 0.2603 0.30387 0.0
Zn154 Zn 0.7416 0.75036 0.81777 0.0
Zn155 Zn 0.79864 0.75106 0.82539 0.0
O156 O 0.78153 0.71135 0.83341 0.0
O157 O 0.73227 0.71539 0.82904 0.0
O158 O 0.84344 0.75169 0.83007 0.0
O159 O 0.75416 0.74053 0.80075 0.0
O160 O 0.80176 0.74986 0.80663 0.0
C161 C 0.75403 0.70125 0.83428 0.0
C162 C 0.7569 0.80657 0.8298 0.0
O163 O 0.78146 0.79182 0.83235 0.0
O164 O 0.73669 0.79459 0.82299 0.0
C165 C 0.85359 0.75364 0.84088 0.0
O166 O 0.834 0.75514 0.84996 0.0
C167 C 0.78235 0.74384 0.79827 0.0
Zn168 Zn 0.51155 0.46015 0.08089 0.0
Zn169 Zn 0.51055 0.52002 0.08405 0.0
O170 O 0.55144 0.5066 0.09227 0.0
O171 O 0.5488 0.45601 0.09142 0.0
O172 O 0.51061 0.56601 0.08655 0.0
O173 O 0.51608 0.46541 0.06291 0.0
O174 O 0.51101 0.51546 0.06538 0.0
C175 C 0.56265 0.4802 0.09476 0.0
C176 C 0.45644 0.47948 0.09252 0.0
O177 O 0.46968 0.50572 0.09219 0.0
O178 O 0.4696 0.45619 0.08797 0.0
C179 C 0.48901 0.58291 0.08251 0.0
O180 O 0.466 0.57 0.07665 0.0
C181 C 0.51408 0.49217 0.05843 0.0
Zn182 Zn 0.015 0.5308 0.58076 0.0
Zn183 Zn 0.01661 0.47051 0.58286 0.0
O184 O 0.97885 0.48309 0.59329 0.0
O185 O 0.98279 0.53361 0.5937 0.0
O186 O 0.0173 0.42443 0.5844 0.0
O187 O 0.00185 0.52698 0.56327 0.0
O188 O 0.0104 0.47703 0.56454 0.0
C189 C 0.96943 0.50918 0.59709 0.0
C190 C 0.0737 0.5092 0.58881 0.0
O191 O 0.05972 0.48338 0.58903 0.0
O192 O 0.05978 0.53307 0.58514 0.0
C193 C 0.01837 0.4114 0.59473 0.0
O194 O 0.01916 0.4285 0.60459 0.0
C195 C 0.00338 0.50074 0.5583 0.0
Zn196 Zn 0.51378 0.53525 0.90524 0.0
Zn197 Zn 0.51888 0.47512 0.90376 0.0
O198 O 0.56043 0.49025 0.89644 0.0
O199 O 0.55699 0.54023 0.89952 0.0
O200 O 0.52181 0.42884 0.90302 0.0
O201 O 0.5057 0.53321 0.92314 0.0
O202 O 0.51464 0.48338 0.92214 0.0
C203 C 0.5723 0.51713 0.89597 0.0
C204 C 0.46703 0.50944 0.89037 0.0
O205 O 0.47905 0.48426 0.89398 0.0
O206 O 0.47883 0.53494 0.8934 0.0
C207 C 0.52343 0.4144 0.89298 0.0
O208 O 0.52382 0.43011 0.88278 0.0
C209 C 0.50873 0.50743 0.92837 0.0
Zn210 Zn 0.01486 0.46907 0.40658 0.0
Zn211 Zn 0.01517 0.52916 0.40431 0.0
O212 O 0.9783 0.51527 0.39373 0.0
O213 O 0.98449 0.46499 0.39292 0.0
O214 O 0.01414 0.57517 0.40275 0.0
O215 O -0.00056 0.47284 0.42381 0.0
O216 O 0.00874 0.52263 0.4226 0.0
C217 C 0.97027 0.48903 0.38963 0.0
C218 C 0.07382 0.49265 0.39951 0.0
O219 O 0.05893 0.51781 0.39849 0.0
O220 O 0.0604 0.46868 0.40336 0.0
C221 C 0.01733 0.5884 0.39253 0.0
O222 O 0.02157 0.57154 0.38276 0.0
C223 C 0.0011 0.49906 0.42879 0.0
H224 H 0.02231 0.12144 0.57739 0.0
H225 H 0.02225 0.17765 0.57846 0.0
H226 H 0.01677 0.17324 0.61755 0.0
H227 H 0.01704 0.11687 0.6166 0.0
H228 H 0.97564 0.21532 0.58906 0.0
H229 H 0.08985 0.23227 0.61101 0.0
H230 H 0.07902 0.19654 0.60376 0.0
H231 H 0.0641 0.20601 0.61851 0.0
C232 C 0.02127 0.13236 0.58623 0.0
C233 C 0.01975 0.11465 0.59692 0.0
C234 C 0.0212 0.16449 0.58681 0.0
C235 C 0.01983 0.17953 0.59808 0.0
C236 C 0.01834 0.16201 0.60877 0.0
H237 H 0.0185 0.376 0.61534 0.0
H238 H 0.01763 0.31968 0.61666 0.0
C239 C 0.01835 0.12982 0.60821 0.0
C240 C 0.01901 0.21359 0.59852 0.0
H241 H 0.05985 0.27679 0.60753 0.0
C242 C 0.99402 0.22879 0.59311 0.0
C243 C 0.04294 0.231 0.60388 0.0
C244 C 0.07066 0.21574 0.60955 0.0
C245 C 0.99232 0.26105 0.59288 0.0
C246 C 0.01661 0.2785 0.59798 0.0
C247 C 0.04132 0.2633 0.60361 0.0
C248 C 0.01723 0.31255 0.5972 0.0
C249 C 0.9644 0.27613 0.58728 0.0
C250 C 0.01779 0.32713 0.58582 0.0
C251 C 0.01822 0.35922 0.58503 0.0
C252 C 0.01834 0.37738 0.59562 0.0
C253 C 0.01831 0.36269 0.60701 0.0
C254 C 0.01783 0.33053 0.60779 0.0
H255 H 0.94441 0.26018 0.58701 0.0
H256 H 0.95771 0.29716 0.59238 0.0
H257 H 0.96981 0.28291 0.57779 0.0
H258 H 0.01804 0.31365 0.57753 0.0
H259 H 0.01847 0.36976 0.57611 0.0
H260 H 0.89956 0.75217 0.82398 0.0
H261 H 0.955 0.75422 0.82747 0.0
H262 H 0.93962 0.75987 0.86612 0.0
H263 H 0.88387 0.75756 0.86274 0.0
H264 H 0.98849 0.8017 0.8394 0.0
H265 H 0.00186 0.68827 0.86241 0.0
H266 H 0.96799 0.69815 0.85372 0.0
H267 H 0.97342 0.71387 0.86866 0.0
C268 C 0.90787 0.75371 0.83325 0.0
C269 C 0.88724 0.7546 0.84309 0.0
C270 C 0.9396 0.75493 0.83521 0.0
C271 C 0.9514 0.75688 0.84705 0.0
C272 C 0.93096 0.75788 0.85692 0.0
H273 H 0.14482 0.75807 0.86993 0.0
H274 H 0.08845 0.76033 0.86999 0.0
C275 C 0.89912 0.75669 0.85497 0.0
C276 C 0.98514 0.75849 0.84891 0.0
H277 H 0.04663 0.71835 0.86003 0.0
C278 C 0.00121 0.78355 0.84396 0.0
C279 C 0.0016 0.73488 0.85494 0.0
C280 C 0.98548 0.70711 0.86018 0.0
C281 C 0.0334 0.78548 0.84473 0.0
C282 C 0.04997 0.76137 0.85039 0.0
C283 C 0.03385 0.73674 0.85567 0.0
C284 C 0.08409 0.76056 0.8504 0.0
C285 C 0.04935 0.81335 0.83949 0.0
C286 C 0.10026 0.75957 0.83937 0.0
C287 C 0.13239 0.75832 0.8393 0.0
C288 C 0.14902 0.7578 0.85027 0.0
C289 C 0.13273 0.75854 0.86132 0.0
C290 C 0.10053 0.7598 0.86138 0.0
H291 H 0.03349 0.83337 0.83884 0.0
H292 H 0.06957 0.82005 0.84509 0.0
H293 H 0.05754 0.80788 0.83019 0.0
H294 H 0.088 0.75943 0.8308 0.0
H295 H 0.14416 0.75757 0.83063 0.0
H296 H 0.44675 0.62569 0.075 0.0
H297 H 0.44929 0.68169 0.0774 0.0
H298 H 0.53582 0.67276 0.09631 0.0
H299 H 0.53369 0.61683 0.09385 0.0
H300 H 0.45298 0.71709 0.09876 0.0
H301 H 0.55494 0.735 0.06921 0.0
H302 H 0.53318 0.69957 0.06924 0.0
H303 H 0.56067 0.70721 0.08108 0.0
C304 C 0.46636 0.63561 0.07965 0.0
C305 C 0.49012 0.61678 0.08417 0.0
C306 C 0.46774 0.66762 0.08103 0.0
C307 C 0.49296 0.68138 0.08687 0.0
C308 C 0.51645 0.66264 0.09156 0.0
H309 H 0.50822 0.86709 0.11553 0.0
H310 H 0.50283 0.81144 0.11279 0.0
C311 C 0.5151 0.63065 0.0902 0.0
C312 C 0.49457 0.71533 0.08815 0.0
H313 H 0.5381 0.77806 0.08074 0.0
C314 C 0.47151 0.73048 0.0948 0.0
C315 C 0.51857 0.73274 0.08283 0.0
C316 C 0.54312 0.7179 0.07509 0.0
C317 C 0.47213 0.76256 0.09646 0.0
C318 C 0.4967 0.77983 0.09148 0.0
C319 C 0.51943 0.76474 0.08464 0.0
C320 C 0.49924 0.81362 0.09319 0.0
C321 C 0.44625 0.77772 0.10338 0.0
C322 C 0.49963 0.83327 0.08307 0.0
C323 C 0.50291 0.86507 0.08459 0.0
C324 C 0.50605 0.87783 0.09628 0.0
C325 C 0.50568 0.85806 0.10641 0.0
C326 C 0.50242 0.82624 0.10487 0.0
H327 H 0.42549 0.7628 0.10376 0.0
H328 H 0.45386 0.7822 0.11284 0.0
H329 H 0.43981 0.80007 0.09919 0.0
H330 H 0.49736 0.82397 0.07397 0.0
H331 H 0.50315 0.87961 0.07659 0.0
H332 H 0.65134 0.2398 0.36162 0.0
H333 H 0.59525 0.24014 0.36373 0.0
H334 H 0.5856 0.24473 0.32476 0.0
H335 H 0.64157 0.24411 0.32253 0.0
H336 H 0.55399 0.2859 0.35552 0.0
H337 H 0.52944 0.17245 0.3343 0.0
H338 H 0.56744 0.18339 0.33937 0.0
H339 H 0.55268 0.1977 0.32519 0.0
C340 C 0.6373 0.24069 0.35349 0.0
C341 C 0.65093 0.24182 0.3419 0.0
C342 C 0.60527 0.24092 0.35472 0.0
C343 C 0.58633 0.24204 0.34439 0.0
C344 C 0.59983 0.24326 0.33283 0.0
H345 H 0.38981 0.25205 0.33167 0.0
H346 H 0.44594 0.25035 0.32994 0.0
C347 C 0.63183 0.24307 0.33158 0.0
C348 C 0.55244 0.24297 0.34574 0.0
H349 H 0.48641 0.20453 0.33843 0.0
C350 C 0.53918 0.26805 0.35185 0.0
C351 C 0.53327 0.21966 0.34091 0.0
C352 C 0.54637 0.19161 0.33466 0.0
C353 C 0.50713 0.27076 0.35306 0.0
C354 C 0.48795 0.24748 0.3482 0.0
C355 C 0.50122 0.22236 0.34212 0.0
C356 C 0.45402 0.24875 0.34933 0.0
C357 C 0.49405 0.29886 0.35927 0.0
C358 C 0.44001 0.24807 0.36081 0.0
C359 C 0.40796 0.24908 0.36184 0.0
C360 C 0.38934 0.25059 0.3514 0.0
C361 C 0.40348 0.25098 0.3399 0.0
C362 C 0.43553 0.24997 0.33888 0.0
H363 H 0.51107 0.31794 0.3597 0.0
H364 H 0.47313 0.30722 0.35449 0.0
H365 H 0.4875 0.29279 0.36871 0.0
H366 H 0.45386 0.24651 0.36898 0.0
H367 H 0.39782 0.24856 0.37083 0.0
H368 H 0.00729 0.87694 0.4116 0.0
H369 H 0.00722 0.82078 0.41 0.0
H370 H 0.01721 0.82755 0.3711 0.0
H371 H 0.01753 0.88381 0.37259 0.0
H372 H 0.96606 0.78296 0.39623 0.0
H373 H 0.08803 0.76951 0.3817 0.0
H374 H 0.07363 0.80456 0.38847 0.0
H375 H 0.06509 0.79578 0.37288 0.0
C376 C 0.00953 0.86653 0.4027 0.0
C377 C 0.01255 0.88485 0.39223 0.0
C378 C 0.00945 0.83445 0.40181 0.0
C379 C 0.01259 0.82009 0.39046 0.0
C380 C 0.01527 0.83824 0.37997 0.0
H381 H 0.02336 0.62433 0.3722 0.0
H382 H 0.02076 0.68063 0.37099 0.0
C383 C 0.01529 0.87037 0.38084 0.0
C384 C 0.01263 0.78609 0.38966 0.0
H385 H 0.05807 0.72427 0.38287 0.0
C386 C 0.98613 0.77009 0.39329 0.0
C387 C 0.03881 0.76948 0.38574 0.0
C388 C 0.06814 0.78559 0.38205 0.0
C389 C 0.98514 0.7378 0.39317 0.0
C390 C 0.01158 0.72115 0.38954 0.0
C391 C 0.03787 0.73715 0.38566 0.0
C392 C 0.01285 0.68714 0.39023 0.0
C393 C 0.95575 0.7218 0.39684 0.0
C394 C 0.00972 0.67227 0.40147 0.0
C395 C 0.01117 0.64021 0.40221 0.0
C396 C 0.016 0.62239 0.3917 0.0
C397 C 0.01951 0.63738 0.38045 0.0
C398 C 0.01805 0.66952 0.37974 0.0
H399 H 0.93549 0.73729 0.39597 0.0
H400 H 0.95171 0.70091 0.39123 0.0
H401 H 0.95751 0.7146 0.4065 0.0
H402 H 0.00636 0.68551 0.40971 0.0
H403 H 0.00857 0.62943 0.41102 0.0
H404 H 0.38203 0.73275 0.62622 0.0
H405 H 0.43818 0.73511 0.62455 0.0
H406 H 0.44593 0.73486 0.66362 0.0
H407 H 0.38993 0.73219 0.66541 0.0
H408 H 0.47788 0.78063 0.63388 0.0
H409 H 0.50448 0.66551 0.65317 0.0
H410 H 0.46641 0.6761 0.64806 0.0
H411 H 0.4802 0.68893 0.66261 0.0
C412 C 0.39567 0.73303 0.63447 0.0
C413 C 0.3815 0.73215 0.64595 0.0
C414 C 0.42773 0.7344 0.63348 0.0
C415 C 0.44618 0.7347 0.64396 0.0
C416 C 0.43212 0.73402 0.65543 0.0
H417 H 0.64104 0.74989 0.65913 0.0
H418 H 0.5849 0.74594 0.66007 0.0
C419 C 0.40009 0.73267 0.65642 0.0
C420 C 0.4801 0.73669 0.64291 0.0
H421 H 0.54679 0.6994 0.65023 0.0
C422 C 0.49298 0.7628 0.63737 0.0
C423 C 0.49967 0.71339 0.6475 0.0
C424 C 0.48705 0.68425 0.65308 0.0
C425 C 0.52501 0.76658 0.63656 0.0
C426 C 0.54457 0.74337 0.64123 0.0
C427 C 0.53169 0.71718 0.64669 0.0
C428 C 0.57852 0.74588 0.64057 0.0
C429 C 0.53764 0.79572 0.63098 0.0
C430 C 0.5935 0.74679 0.62929 0.0
C431 C 0.62556 0.74907 0.62871 0.0
C432 C 0.64322 0.75032 0.63942 0.0
C433 C 0.62812 0.74908 0.65071 0.0
C434 C 0.59606 0.74678 0.65128 0.0
H435 H 0.52001 0.81425 0.63059 0.0
H436 H 0.55779 0.80428 0.6362 0.0
H437 H 0.5453 0.79083 0.62156 0.0
H438 H 0.58041 0.74553 0.62092 0.0
H439 H 0.63646 0.7498 0.61986 0.0
H440 H 0.52718 0.37621 0.8732 0.0
H441 H 0.52646 0.31978 0.87304 0.0
H442 H 0.52034 0.31899 0.91215 0.0
H443 H 0.52078 0.37525 0.91242 0.0
H444 H 0.56728 0.27791 0.88456 0.0
H445 H 0.44763 0.26467 0.90138 0.0
H446 H 0.46223 0.30062 0.89547 0.0
H447 H 0.47131 0.28892 0.91074 0.0
C448 C 0.52564 0.36404 0.88177 0.0
C449 C 0.52385 0.38026 0.89282 0.0
C450 C 0.52525 0.33181 0.88165 0.0
C451 C 0.52284 0.31526 0.89256 0.0
C452 C 0.52159 0.33135 0.90361 0.0
H453 H 0.52118 0.12699 0.91642 0.0
H454 H 0.52073 0.18294 0.91412 0.0
C455 C 0.52202 0.36352 0.90375 0.0
C456 C 0.52208 0.28112 0.89247 0.0
H457 H 0.47858 0.21941 0.90111 0.0
C458 C 0.54781 0.26505 0.88807 0.0
C459 C 0.49658 0.26449 0.89702 0.0
C460 C 0.46773 0.2805 0.90132 0.0
C461 C 0.54917 0.23273 0.88852 0.0
C462 C 0.52392 0.21613 0.89331 0.0
C463 C 0.49795 0.23221 0.89748 0.0
C464 C 0.52435 0.18212 0.89452 0.0
C465 C 0.57803 0.21667 0.88425 0.0
C466 C 0.52621 0.16309 0.88423 0.0
C467 C 0.52651 0.131 0.88551 0.0
C468 C 0.52479 0.11743 0.8971 0.0
C469 C 0.52261 0.13664 0.90736 0.0
C470 C 0.52231 0.16864 0.90607 0.0
H471 H 0.5977 0.23288 0.88338 0.0
H472 H 0.58459 0.19794 0.89062 0.0
H473 H 0.57374 0.20621 0.87521 0.0
H474 H 0.52723 0.17303 0.87521 0.0
H475 H 0.52805 0.11689 0.87741 0.0
H476 H 0.15932 0.23606 0.13063 0.0
H477 H 0.10393 0.2364 0.12633 0.0
H478 H 0.08522 0.25604 0.16403 0.0
H479 H 0.1403 0.25606 0.1684 0.0
H480 H 0.0577 0.19904 0.13666 0.0
H481 H 0.03634 0.32266 0.14597 0.0
H482 H 0.07448 0.30729 0.14354 0.0
H483 H 0.05613 0.30339 0.15812 0.0
C484 C 0.14341 0.24062 0.13799 0.0
C485 C 0.15424 0.24619 0.14985 0.0
C486 C 0.11181 0.24077 0.13552 0.0
C487 C 0.09056 0.24674 0.14482 0.0
C488 C 0.10128 0.25204 0.15667 0.0
H489 H 0.89778 0.24726 0.1587 0.0
H490 H 0.95394 0.2488 0.15875 0.0
C491 C 0.13279 0.25186 0.15915 0.0
C492 C 0.05705 0.2465 0.14233 0.0
H493 H 0.99202 0.29002 0.14519 0.0
C494 C 0.04332 0.21902 0.13835 0.0
C495 C 0.03845 0.27267 0.14451 0.0
C496 C 0.05211 0.30327 0.14815 0.0
C497 C 0.01123 0.21658 0.13706 0.0
C498 C 0.99258 0.24244 0.13968 0.0
C499 C 0.00642 0.27019 0.14327 0.0
C500 C 0.95855 0.24079 0.13944 0.0
C501 C 0.99742 0.18606 0.13341 0.0
C502 C 0.94255 0.23587 0.12852 0.0
C503 C 0.91034 0.23497 0.12845 0.0
C504 C 0.89365 0.23906 0.13929 0.0
C505 C 0.90987 0.24396 0.15019 0.0
C506 C 0.94197 0.24491 0.15024 0.0
H507 H 0.01446 0.16701 0.13389 0.0
H508 H 0.97754 0.18027 0.13933 0.0
H509 H 0.98889 0.1876 0.12392 0.0
H510 H 0.95496 0.23309 0.12006 0.0
H511 H 0.89855 0.23126 0.11989 0.0
H512 H 0.02068 0.95834 0.44377 0.0
H513 H 0.02396 0.95607 0.46599 0.0
H514 H 0.03108 0.05506 0.4675 0.0
H515 H 0.02765 0.05769 0.44539 0.0
H516 H 0.07222 0.98054 0.48163 0.0
H517 H 0.95766 0.03352 0.49015 0.0
H518 H 0.96832 0.01749 0.4756 0.0
H519 H 0.98246 0.05467 0.48009 0.0
C520 C 0.02293 0.97963 0.44883 0.0
C521 C 0.02371 0.00821 0.44281 0.0
C522 C 0.02485 0.97827 0.4615 0.0
C523 C 0.02735 0.00544 0.46833 0.0
C524 C 0.02866 0.0339 0.46237 0.0
H525 H 0.0288 0.04356 0.54592 0.0
H526 H 0.03193 0.04789 0.52376 0.0
C527 C 0.02681 0.03531 0.44973 0.0
C528 C 0.02861 0.00411 0.48172 0.0
H529 H 0.98931 0.02478 0.50729 0.0
C530 C 0.05411 0.99012 0.48727 0.0
C531 C 0.00498 0.01683 0.48898 0.0
C532 C 0.97665 0.03127 0.48344 0.0
C533 C 0.05675 0.98877 0.49996 0.0
C534 C 0.03296 0.00123 0.50723 0.0
C535 C 0.00757 0.01539 0.50167 0.0
C536 C 0.03321 0.99869 0.52063 0.0
C537 C 0.08516 0.97444 0.50548 0.0
C538 C 0.03282 0.96961 0.52615 0.0
C539 C 0.03109 0.96704 0.53877 0.0
C540 C 0.02943 0.99355 0.5461 0.0
C541 C 0.03011 0.0227 0.54054 0.0
C542 C 0.03188 0.02523 0.52789 0.0
H543 H 0.10471 0.9743 0.49896 0.0
H544 H 0.09234 0.9869 0.51382 0.0
H545 H 0.08009 0.9502 0.50797 0.0
H546 H 0.03312 0.94885 0.52069 0.0
H547 H 0.03048 0.94423 0.54274 0.0
H548 H 0.32302 0.73633 0.79849 0.0
H549 H 0.32052 0.73581 0.77635 0.0
H550 H 0.22227 0.74966 0.77788 0.0
H551 H 0.22451 0.75065 0.80011 0.0
H552 H 0.28722 0.69643 0.76117 0.0
H553 H 0.25203 0.81852 0.7551 0.0
H554 H 0.26706 0.8039 0.76928 0.0
H555 H 0.22772 0.79661 0.76509 0.0
C556 C 0.30083 0.73931 0.79415 0.0
C557 C 0.27395 0.74371 0.80107 0.0
C558 C 0.29949 0.73899 0.78149 0.0
C559 C 0.27132 0.74316 0.77551 0.0
C560 C 0.24433 0.74702 0.78235 0.0
H561 H 0.21285 0.74326 0.70091 0.0
H562 H 0.21739 0.74529 0.72299 0.0
C563 C 0.24563 0.74738 0.79505 0.0
C564 C 0.27027 0.74299 0.7621 0.0
H565 H 0.25212 0.7871 0.73745 0.0
C566 C 0.2797 0.71627 0.75596 0.0
C567 C 0.26056 0.769 0.75539 0.0
C568 C 0.25152 0.79876 0.76152 0.0
C569 C 0.27898 0.71461 0.74324 0.0
C570 C 0.26901 0.74053 0.73654 0.0
C571 C 0.25978 0.76731 0.74267 0.0
C572 C 0.26688 0.73992 0.72315 0.0
C573 C 0.28813 0.68492 0.73708 0.0
C574 C 0.29335 0.73668 0.71596 0.0
C575 C 0.29089 0.73549 0.7033 0.0
C576 C 0.26189 0.73761 0.69767 0.0
C577 C 0.23553 0.74143 0.70494 0.0
C578 C 0.23804 0.74265 0.71756 0.0
H579 H 0.28895 0.66532 0.74356 0.0
H580 H 0.27182 0.67918 0.72964 0.0
H581 H 0.31137 0.68764 0.73303 0.0
H582 H 0.31587 0.73504 0.72015 0.0
H583 H 0.31163 0.73268 0.69796 0.0
H584 H 0.5472 0.06537 0.05448 0.0
H585 H 0.54769 0.07017 0.03234 0.0
H586 H 0.52415 0.97405 0.02894 0.0
H587 H 0.52322 0.96901 0.05105 0.0
H588 H 0.58253 0.03818 0.01473 0.0
H589 H 0.45724 0.01837 0.00906 0.0
H590 H 0.47444 0.02747 0.02358 0.0
H591 H 0.476 0.98879 0.01774 0.0
C592 C 0.54218 0.0452 0.04903 0.0
C593 C 0.5349 0.01683 0.05453 0.0
C594 C 0.5425 0.04803 0.03639 0.0
C595 C 0.53538 0.02263 0.02906 0.0
C596 C 0.52904 0.99408 0.03448 0.0
H597 H 0.5369 0.96123 0.95713 0.0
H598 H 0.53819 0.97143 0.97887 0.0
C599 C 0.5287 0.99121 0.04712 0.0
C600 C 0.53457 0.02578 0.0157 0.0
H601 H 0.48816 0.01413 0.99111 0.0
C602 C 0.56181 0.03345 0.00955 0.0
C603 C 0.50736 0.01996 0.00902 0.0
C604 C 0.47702 0.0135 0.01518 0.0
C605 C 0.56295 0.03363 -0.0032 0.0
C606 C 0.53619 0.02607 0.99017 0.0
C607 C 0.50863 0.01984 -0.0037 0.0
C608 C 0.53708 0.02095 0.97695 0.0
C609 C 0.59295 0.04035 0.99045 0.0
C610 C 0.53618 0.04562 0.96873 0.0
C611 C 0.53534 0.03992 0.95621 0.0
C612 C 0.53537 0.00946 0.95182 0.0
C613 C 0.5368 0.98496 0.96017 0.0
C614 C 0.53755 0.99068 0.9726 0.0
H615 H 0.61182 0.04564 -0.00306 0.0
H616 H 0.59979 0.02022 0.98483 0.0
H617 H 0.58996 0.06025 0.98422 0.0
H618 H 0.53566 0.06915 0.97201 0.0
H619 H 0.53425 0.05926 0.95001 0.0
H620 H 0.20378 0.2503 0.20519 0.0
H621 H 0.1916 0.24889 0.227 0.0
H622 H 0.28852 0.24671 0.23545 0.0
H623 H 0.30092 0.24797 0.21392 0.0
H624 H 0.24969 0.2001 0.24728 0.0
H625 H 0.20724 0.32076 0.25224 0.0
H626 H 0.19191 0.29713 0.24021 0.0
H627 H 0.23131 0.30929 0.23964 0.0
C628 C 0.22246 0.24961 0.21171 0.0
C629 C 0.25332 0.24926 0.20781 0.0
C630 C 0.21545 0.2489 0.22413 0.0
C631 C 0.23921 0.24784 0.23277 0.0
C632 C 0.2699 0.24751 0.22889 0.0
H633 H 0.29301 0.24721 0.30595 0.0
H634 H 0.28566 0.24403 0.28399 0.0
C635 C 0.27691 0.24829 0.21656 0.0
C636 C 0.23279 0.2466 0.24592 0.0
H637 H 0.21454 0.29214 0.27014 0.0
C638 C 0.24149 0.22001 0.25229 0.0
C639 C 0.22195 0.27259 0.25235 0.0
C640 C 0.21261 0.30171 0.24584 0.0
C641 C 0.241 0.21921 0.26501 0.0
C642 C 0.23206 0.24587 0.27147 0.0
C643 C 0.22157 0.27184 0.26511 0.0
C644 C 0.23604 0.24804 0.28477 0.0
C645 C 0.25084 0.19012 0.27143 0.0
C646 C 0.21059 0.25214 0.29242 0.0
C647 C 0.21469 0.25403 0.305 0.0
C648 C 0.24438 0.25215 0.31009 0.0
C649 C 0.26984 0.24862 0.30234 0.0
C650 C 0.26569 0.24662 0.2898 0.0
H651 H 0.24832 0.1696 0.26548 0.0
H652 H 0.27547 0.19209 0.27402 0.0
H653 H 0.23719 0.18643 0.27984 0.0
H654 H 0.18757 0.25354 0.28866 0.0
H655 H 0.1946 0.25689 0.31072 0.0
H656 H 0.73862 0.30483 0.18772 0.0
H657 H 0.74089 0.31273 0.20972 0.0
H658 H 0.80536 0.23736 0.21281 0.0
H659 H 0.80479 0.23102 0.19075 0.0
H660 H 0.72304 0.27864 0.2267 0.0
H661 H 0.8472 0.29587 0.23433 0.0
H662 H 0.83079 0.29575 0.21928 0.0
H663 H 0.8413 0.26005 0.22662 0.0
C664 C 0.75372 0.29042 0.19312 0.0
C665 C 0.77172 0.2675 0.1876 0.0
C666 C 0.75497 0.29487 0.20567 0.0
C667 C 0.77371 0.27601 0.21296 0.0
C668 C 0.79162 0.253 0.2074 0.0
H669 H 0.73668 0.22971 0.28759 0.0
H670 H 0.73592 0.2364 0.26553 0.0
C671 C 0.79109 0.24918 0.1948 0.0
C672 C 0.77272 0.27882 0.2264 0.0
H673 H 0.81794 0.27858 0.25172 0.0
C674 C 0.74384 0.27918 0.23215 0.0
C675 C 0.79973 0.28024 0.23358 0.0
C676 C 0.83143 0.28333 0.2281 0.0
C677 C 0.74124 0.2798 0.24485 0.0
C678 C 0.76826 0.27835 0.25202 0.0
C679 C 0.79713 0.27914 0.24627 0.0
C680 C 0.76734 0.27524 0.26546 0.0
C681 C 0.70952 0.28243 0.25035 0.0
C682 C 0.786 0.29408 0.27278 0.0
C683 C 0.78738 0.28941 0.28531 0.0
C684 C 0.76957 0.2663 0.29078 0.0
C685 C 0.75025 0.24799 0.28356 0.0
C686 C 0.74961 0.25202 0.27097 0.0
H687 H 0.6936 0.29496 0.24418 0.0
H688 H 0.6999 0.25902 0.25174 0.0
H689 H 0.71005 0.29463 0.25922 0.0
H690 H 0.79993 0.31212 0.26877 0.0
H691 H 0.80241 0.30384 0.29073 0.0
H692 H 0.74499 0.78748 0.6859 0.0
H693 H 0.75126 0.78668 0.70799 0.0
H694 H 0.83128 0.72842 0.70411 0.0
H695 H 0.82628 0.7311 0.68201 0.0
H696 H 0.74648 0.74283 0.72272 0.0
H697 H 0.86509 0.78688 0.72793 0.0
H698 H 0.84497 0.78818 0.7136 0.0
H699 H 0.86445 0.75351 0.71836 0.0
C700 C 0.76412 0.77486 0.6898 0.0
C701 C 0.78526 0.7595 0.68231 0.0
C702 C 0.76773 0.77439 0.7024 0.0
C703 C 0.79212 0.75796 0.70776 0.0
C704 C 0.81298 0.74221 0.70024 0.0
H705 H 0.77207 0.69742 0.78245 0.0
H706 H 0.77876 0.69901 0.76036 0.0
C707 C 0.80992 0.74347 0.68761 0.0
C708 C 0.79428 0.7556 0.7212 0.0
H709 H 0.84358 0.76135 0.7453 0.0
C710 C 0.76769 0.74721 0.72764 0.0
C711 C 0.82181 0.76168 0.72769 0.0
C712 C 0.85056 0.7734 0.72153 0.0
C713 C 0.76778 0.74461 0.74031 0.0
C714 C 0.79576 0.74877 0.74674 0.0
C715 C 0.82232 0.7575 0.74035 0.0
C716 C 0.7974 0.74531 0.76013 0.0
C717 C 0.73755 0.73843 0.74665 0.0
C718 C 0.80833 0.76962 0.76739 0.0
C719 C 0.80576 0.76811 0.78004 0.0
C720 C 0.79179 0.74253 0.78551 0.0
C721 C 0.78274 0.71744 0.77834 0.0
C722 C 0.7862 0.71852 0.76575 0.0
H723 H 0.71765 0.74577 0.741 0.0
H724 H 0.73517 0.71333 0.7483 0.0
H725 H 0.73622 0.75064 0.75551 0.0
H726 H 0.81734 0.79039 0.76326 0.0
H727 H 0.81269 0.78776 0.78547 0.0
H728 H 0.51824 0.4573 0.94305 0.0
H729 H 0.51772 0.45606 0.96531 0.0
H730 H 0.49484 0.5527 0.96617 0.0
H731 H 0.49493 0.55418 0.94402 0.0
H732 H 0.55569 0.4923 0.98059 0.0
H733 H 0.43157 0.51399 0.98932 0.0
H734 H 0.44589 0.50167 0.97469 0.0
H735 H 0.44961 0.54121 0.9793 0.0
C736 C 0.51274 0.47819 0.94798 0.0
C737 C 0.50662 0.50583 0.94177 0.0
C738 C 0.5125 0.47745 0.96068 0.0
C739 C 0.5059 0.50421 0.96734 0.0
C740 C 0.49942 0.53169 0.96118 0.0
H741 H 0.5043 0.54472 0.04507 0.0
H742 H 0.50379 0.54943 0.02284 0.0
C743 C 0.49967 0.53249 0.94851 0.0
C744 C 0.50748 0.50388 0.98074 0.0
H745 H 0.46492 0.51549 0.0064 0.0
C746 C 0.53584 0.49724 0.98625 0.0
C747 C 0.48157 0.51067 0.98804 0.0
C748 C 0.45035 0.51704 0.98257 0.0
C749 C 0.53904 0.49731 -0.00108 0.0
C750 C 0.51307 0.50374 0.00623 0.0
C751 C 0.48478 0.51074 0.00073 0.0
C752 C 0.51436 0.50142 0.0196 0.0
C753 C 0.57024 0.49077 0.00439 0.0
C754 C 0.52025 0.47287 0.02504 0.0
C755 C 0.52052 0.47009 0.03765 0.0
C756 C 0.51476 0.49583 0.04508 0.0
C757 C 0.50894 0.52452 0.0396 0.0
C758 C 0.50859 0.52724 0.02693 0.0
H759 H 0.58907 0.49465 -0.00226 0.0
H760 H 0.57442 0.50544 0.0125 0.0
H761 H 0.57119 0.46631 0.0073 0.0
H762 H 0.52421 0.45258 0.01951 0.0
H763 H 0.525 0.44763 0.04155 0.0
H764 H 0.96032 0.53119 0.54511 0.0
H765 H 0.95239 0.52912 0.52312 0.0
H766 H 0.02776 0.46468 0.51994 0.0
H767 H 0.03402 0.46497 0.54203 0.0
H768 H 0.98601 0.54716 0.50618 0.0
H769 H 0.96949 0.42286 0.49838 0.0
H770 H 0.96977 0.43911 0.51345 0.0
H771 H 0.00539 0.42904 0.50599 0.0
C772 C 0.97474 0.51614 0.53969 0.0
C773 C 0.9976 0.49804 0.54519 0.0
C774 C 0.97028 0.51501 0.52714 0.0
C775 C 0.98912 0.49634 0.51983 0.0
C776 C 0.01214 0.47837 0.52537 0.0
H777 H 0.03182 0.53506 0.44492 0.0
H778 H 0.02627 0.5353 0.46702 0.0
C779 C 0.01592 0.47874 0.53798 0.0
C780 C 0.98616 0.49745 0.50639 0.0
H781 H 0.98563 0.45255 0.48097 0.0
C782 C 0.98539 0.52642 0.50069 0.0
C783 C 0.98466 0.47051 0.49916 0.0
C784 C 0.98199 0.4387 0.5046 0.0
C785 C 0.98415 0.52919 0.488 0.0
C786 C 0.98543 0.50226 0.48076 0.0
C787 C 0.98517 0.47329 0.48647 0.0
C788 C 0.98783 0.50342 0.46731 0.0
C789 C 0.98096 0.56099 0.4826 0.0
C790 C 0.96885 0.48464 0.46008 0.0
C791 C 0.9729 0.48356 0.4475 0.0
C792 C 0.99548 0.50179 0.44191 0.0
C793 C 0.0139 0.5212 0.44905 0.0
C794 C 0.01053 0.52153 0.46166 0.0
H795 H 0.96858 0.5767 0.4889 0.0
H796 H 0.0042 0.57087 0.48107 0.0
H797 H 0.96836 0.5605 0.47382 0.0
H798 H 0.95121 0.47041 0.46419 0.0
H799 H 0.95843 0.4684 0.44215 0.0
H800 H 0.28628 0.8297 0.64682 0.0
H801 H 0.27401 0.88079 0.63831 0.0
H802 H 0.18991 0.84422 0.62326 0.0
H803 H 0.20169 0.79379 0.63176 0.0
H804 H 0.22803 0.88884 0.60773 0.0
H805 H 0.19668 0.92808 0.65438 0.0
H806 H 0.23326 0.90991 0.65136 0.0
H807 H 0.19866 0.8874 0.65111 0.0
C808 C 0.26559 0.83252 0.64144 0.0
C809 C 0.24474 0.80795 0.64003 0.0
C810 C 0.2586 0.86164 0.63663 0.0
C811 C 0.231 0.86617 0.63023 0.0
C812 C 0.21135 0.84112 0.62816 0.0
H813 H 0.07392 0.93315 0.61388 0.0
H814 H 0.1229 0.91791 0.62283 0.0
C815 C 0.21804 0.81236 0.63306 0.0
C816 C 0.21997 0.89711 0.62673 0.0
H817 H 0.17077 0.95129 0.63794 0.0
C818 C 0.21665 0.90355 0.61431 0.0
C819 C 0.20522 0.91613 0.63538 0.0
C820 C 0.20852 0.91028 0.64883 0.0
C821 C 0.196 0.92623 0.61028 0.0
C822 C 0.17832 0.94258 0.61893 0.0
C823 C 0.18443 0.93869 0.63135 0.0
C824 C 0.14849 0.9563 0.6154 0.0
C825 C 0.1905 0.92998 0.59682 0.0
C826 C 0.14647 0.98366 0.60864 0.0
C827 C 0.1182 0.99265 0.60359 0.0
C828 C 0.09197 0.97403 0.60511 0.0
C829 C 0.09383 0.94779 0.61251 0.0
C830 C 0.12177 0.93913 0.61766 0.0
H831 H 0.20682 0.91614 0.59129 0.0
H832 H 0.16665 0.92273 0.59455 0.0
H833 H 0.19294 0.95457 0.59425 0.0
H834 H 0.16692 0.99717 0.60683 0.0
H835 H 0.11733 0.01292 0.59786 0.0
H836 H 0.24474 0.8419 0.86059 0.0
H837 H 0.25604 0.89201 0.87013 0.0
H838 H 0.34911 0.88715 0.85655 0.0
H839 H 0.33807 0.83837 0.847 0.0
H840 H 0.29603 0.90243 0.88781 0.0
H841 H 0.33204 0.97563 0.85004 0.0
H842 H 0.30932 0.94128 0.84759 0.0
H843 H 0.35089 0.93938 0.84794 0.0
C844 C 0.26738 0.85196 0.85948 0.0
C845 C 0.29055 0.83605 0.8531 0.0
C846 C 0.27376 0.88058 0.86488 0.0
C847 C 0.3032 0.89382 0.86379 0.0
C848 C 0.3259 0.87815 0.85717 0.0
H849 H 0.43987 0.92947 0.90599 0.0
H850 H 0.38983 0.91875 0.89738 0.0
C851 C 0.31965 0.84982 0.85186 0.0
C852 C 0.31256 0.92133 0.8709 0.0
H853 H 0.36636 0.97809 0.86859 0.0
C854 C 0.31041 0.91985 0.8836 0.0
C855 C 0.33025 0.94511 0.86554 0.0
C856 C 0.33036 0.95058 0.85201 0.0
C857 C 0.3295 0.93804 0.89097 0.0
C858 C 0.35179 0.95725 0.88544 0.0
C859 C 0.35013 0.96252 0.87287 0.0
C860 C 0.3806 0.96579 0.89187 0.0
C861 C 0.32728 0.93463 0.90458 0.0
C862 C 0.39284 0.99574 0.89134 0.0
C863 C 0.42214 0.00195 0.89615 0.0
C864 C 0.4397 0.97818 0.90143 0.0
C865 C 0.42709 0.94841 0.90204 0.0
C866 C 0.39809 0.9423 0.89726 0.0
H867 H 0.30286 0.93198 0.90739 0.0
H868 H 0.33965 0.91346 0.90744 0.0
H869 H 0.33735 0.95474 0.9094 0.0
H870 H 0.38 0.01412 0.88703 0.0
H871 H 0.43123 0.02513 0.89554 0.0
H872 H 0.425 0.97649 0.1084 0.0
H873 H 0.37352 0.98866 0.1165 0.0
H874 H 0.39069 0.08538 0.11053 0.0
H875 H 0.44098 0.07367 0.10243 0.0
H876 H 0.36029 0.02234 0.13638 0.0
H877 H 0.30443 0.07925 0.09787 0.0
H878 H 0.33731 0.05419 0.09587 0.0
H879 H 0.34252 0.09469 0.09904 0.0
C880 C 0.41748 0.00027 0.10867 0.0
C881 C 0.43716 0.0241 0.1048 0.0
C882 C 0.38808 0.00716 0.11325 0.0
C883 C 0.37787 0.03787 0.1138 0.0
C884 C 0.39747 0.06143 0.1098 0.0
H885 H 0.33494 0.15978 0.16162 0.0
H886 H 0.34571 0.11246 0.15087 0.0
C887 C 0.42658 0.05467 0.10532 0.0
C888 C 0.34878 0.04672 0.11992 0.0
H889 H 0.29664 0.10512 0.11808 0.0
C890 C 0.34545 0.03954 0.13228 0.0
C891 C 0.32836 0.06818 0.11455 0.0
C892 C 0.32817 0.07415 0.10105 0.0
C893 C 0.32581 0.05691 0.13973 0.0
C894 C 0.31007 0.0825 0.13472 0.0
C895 C 0.3095 0.08621 0.12205 0.0
C896 C 0.3008 0.10906 0.14239 0.0
C897 C 0.32406 0.04919 0.15307 0.0
C898 C 0.27212 0.12368 0.141 0.0
C899 C 0.26596 0.15145 0.14708 0.0
C900 C 0.28858 0.16513 0.15449 0.0
C901 C 0.31694 0.15001 0.156 0.0
C902 C 0.32299 0.12252 0.14998 0.0
H903 H 0.32434 0.02382 0.1544 0.0
H904 H 0.34458 0.05867 0.15779 0.0
H905 H 0.30298 0.05878 0.15734 0.0
H906 H 0.25483 0.11401 0.13501 0.0
H907 H 0.24389 0.16256 0.14572 0.0
H908 H 0.08328 0.05635 0.37553 0.0
H909 H 0.13519 0.06488 0.36802 0.0
H910 H 0.16634 0.98284 0.38645 0.0
H911 H 0.11373 0.97398 0.39396 0.0
H912 H 0.19777 0.03505 0.39338 0.0
H913 H 0.19602 0.03062 0.34354 0.0
H914 H 0.16223 0.05036 0.34868 0.0
H915 H 0.16795 0.01048 0.35273 0.0
C916 C 0.10094 0.03957 0.37767 0.0
C917 C 0.09459 0.01463 0.38536 0.0
C918 C 0.1306 0.04427 0.37326 0.0
C919 C 0.15463 0.02426 0.37652 0.0
C920 C 0.14804 0.99829 0.38368 0.0
H921 H 0.29305 0.15086 0.35166 0.0
H922 H 0.28209 0.09703 0.35713 0.0
C923 C 0.11805 0.99327 0.38795 0.0
C924 C 0.18667 0.0344 0.37427 0.0
H925 H 0.22511 0.07472 0.35255 0.0
C926 C 0.20461 0.04261 0.38438 0.0
C927 C 0.19633 0.04346 0.36254 0.0
C928 C 0.17971 0.03289 0.35126 0.0
C929 C 0.22877 0.06385 0.38324 0.0
C930 C 0.23461 0.07731 0.37178 0.0
C931 C 0.22018 0.06504 0.36142 0.0
C932 C 0.24806 0.10857 0.37075 0.0
C933 C 0.24582 0.07389 0.3945 0.0
C934 C 0.23324 0.13285 0.37683 0.0
C935 C 0.2391 0.16329 0.37361 0.0
C936 C 0.26006 0.17013 0.36431 0.0
C937 C 0.27696 0.14611 0.35894 0.0
C938 C 0.27071 0.11541 0.36204 0.0
H939 H 0.2491 0.05411 0.40077 0.0
H940 H 0.26865 0.0839 0.39225 0.0
H941 H 0.23199 0.09148 0.39938 0.0
H942 H 0.21511 0.12828 0.38334 0.0
H943 H 0.22576 0.18142 0.37787 0.0
H944 H 0.92482 0.06973 0.39512 0.0
H945 H 0.87588 0.07741 0.38516 0.0
H946 H 0.87306 0.98136 0.3751 0.0
H947 H 0.92328 0.97347 0.385 0.0
H948 H 0.86126 0.01599 0.35608 0.0
H949 H 0.78795 0.06029 0.39234 0.0
H950 H 0.82372 0.08042 0.39366 0.0
H951 H 0.8228 0.03908 0.39563 0.0
C952 C 0.91377 0.04999 0.39097 0.0
C953 C 0.92812 0.02099 0.39081 0.0
C954 C 0.88537 0.05434 0.38541 0.0
C955 C 0.87021 0.02979 0.37967 0.0
C956 C 0.88408 0.00052 0.37967 0.0
H957 H 0.74041 0.15198 0.34534 0.0
H958 H 0.74986 0.10122 0.35449 0.0
C959 C 0.91278 0.99609 0.38528 0.0
C960 C 0.84247 0.03673 0.37228 0.0
H961 H 0.7851 0.09008 0.37258 0.0
C962 C 0.84374 0.0312 0.35973 0.0
C963 C 0.81845 0.05529 0.37696 0.0
C964 C 0.81301 0.0587 0.39043 0.0
C965 C 0.82516 0.04801 0.35167 0.0
C966 C 0.80592 0.07156 0.35633 0.0
C967 C 0.80075 0.07299 0.36891 0.0
C968 C 0.79759 0.09888 0.34889 0.0
C969 C 0.82818 0.04205 0.33823 0.0
C970 C 0.8211 0.11439 0.34263 0.0
C971 C 0.8158 0.14309 0.33743 0.0
C972 C 0.78694 0.15743 0.33851 0.0
C973 C 0.76293 0.14155 0.34437 0.0
C974 C 0.76826 0.11251 0.34957 0.0
H975 H 0.8299 0.0169 0.33648 0.0
H976 H 0.80835 0.05145 0.33305 0.0
H977 H 0.84974 0.05272 0.33483 0.0
H978 H 0.84426 0.10517 0.34233 0.0
H979 H 0.83486 0.15455 0.33298 0.0
H980 H 0.62345 0.96692 0.09894 0.0
H981 H 0.67565 0.97427 0.10713 0.0
H982 H 0.6384 0.03104 0.13577 0.0
H983 H 0.58688 0.02419 0.12753 0.0
H984 H 0.69704 0.03348 0.10676 0.0
H985 H 0.70953 0.99009 0.15333 0.0
H986 H 0.68224 0.97372 0.1427 0.0
H987 H 0.67214 0.00702 0.15168 0.0
C988 C 0.62642 0.97969 0.10732 0.0
C989 C 0.60136 0.99505 0.11265 0.0
C990 C 0.6562 0.98393 0.11197 0.0
C991 C 0.66096 0.00292 0.12214 0.0
C992 C 0.63535 0.01567 0.1281 0.0
H993 H 0.708 0.1533 0.15037 0.0
H994 H 0.6981 0.10037 0.14464 0.0
C995 C 0.60587 0.01195 0.12335 0.0
C996 C 0.69175 0.01585 0.12493 0.0
H997 H 0.72977 0.0433 0.14973 0.0
C998 C 0.70537 0.03464 0.11605 0.0
C999 C 0.703 0.01695 0.13697 0.0
C1000 C 0.6911 0.99553 0.14666 0.0
C1001 C 0.72606 0.05808 0.11929 0.0
C1002 C 0.73343 0.06233 0.1317 0.0
C1003 C 0.72368 0.04034 0.14024 0.0
C1004 C 0.74258 0.09309 0.13627 0.0
C1005 C 0.73663 0.08053 0.1097 0.0
C1006 C 0.77118 0.10661 0.13359 0.0
C1007 C 0.77695 0.13738 0.13683 0.0
C1008 C 0.7541 0.15489 0.14272 0.0
C1009 C 0.72603 0.14072 0.14572 0.0
C1010 C 0.7204 0.11026 0.14255 0.0
H1011 H 0.72873 0.0739 0.10045 0.0
H1012 H 0.72772 0.10392 0.11178 0.0
H1013 H 0.76214 0.08172 0.10965 0.0
H1014 H 0.78867 0.09365 0.12879 0.0
H1015 H 0.79889 0.14762 0.13448 0.0
H1016 H 0.72924 0.85536 0.819 0.0
H1017 H 0.70999 0.90198 0.82885 0.0
H1018 H 0.74819 0.87109 0.86299 0.0
H1019 H 0.76915 0.82547 0.85293 0.0
H1020 H 0.66752 0.90005 0.84434 0.0
H1021 H 0.76324 0.96006 0.867 0.0
H1022 H 0.76983 0.93086 0.85561 0.0
H1023 H 0.76376 0.9203 0.87129 0.0
C1024 C 0.73438 0.85913 0.82852 0.0
C1025 C 0.75054 0.8369 0.83524 0.0
C1026 C 0.72339 0.88576 0.83415 0.0
C1027 C 0.7277 0.89032 0.84668 0.0
C1028 C 0.74526 0.86875 0.85326 0.0
H1029 H 0.6218 0.94254 0.90458 0.0
H1030 H 0.66218 0.92864 0.89022 0.0
C1031 C 0.75702 0.84248 0.84754 0.0
C1032 C 0.70956 0.91432 0.85315 0.0
H1033 H 0.7125 0.96559 0.8767 0.0
C1034 C 0.6776 0.9151 0.85113 0.0
C1035 C 0.7225 0.9341 0.86203 0.0
C1036 C 0.75678 0.9365 0.86399 0.0
C1037 C 0.6581 0.93324 0.8583 0.0
C1038 C 0.67083 0.95104 0.86779 0.0
C1039 C 0.70287 0.95182 0.8694 0.0
C1040 C 0.65072 0.96429 0.87727 0.0
C1041 C 0.62375 0.93153 0.85627 0.0
C1042 C 0.63157 0.98966 0.87488 0.0
C1043 C 0.6084 0.99782 0.88315 0.0
C1044 C 0.60396 0.98035 0.89376 0.0
C1045 C 0.62444 0.95619 0.8964 0.0
C1046 C 0.64768 0.94835 0.88826 0.0
H1047 H 0.61749 0.91534 0.84885 0.0
H1048 H 0.61206 0.92404 0.86474 0.0
H1049 H 0.61484 0.95472 0.8539 0.0
H1050 H 0.63362 0.00215 0.8664 0.0
H1051 H 0.59294 0.01656 0.88091 0.0
H1052 H 0.74102 0.86462 0.64333 0.0
H1053 H 0.75024 0.91789 0.63655 0.0
H1054 H 0.79991 0.88332 0.60544 0.0
H1055 H 0.79147 0.8307 0.61234 0.0
H1056 H 0.81172 0.93638 0.63531 0.0
H1057 H 0.75693 0.95907 0.59121 0.0
H1058 H 0.7414 0.93173 0.60202 0.0
H1059 H 0.77119 0.92032 0.59153 0.0
C1060 C 0.75274 0.86858 0.63478 0.0
C1061 C 0.76554 0.84382 0.62829 0.0
C1062 C 0.75799 0.89892 0.63093 0.0
C1063 C 0.77535 0.9046 0.62039 0.0
C1064 C 0.78578 0.87958 0.61342 0.0
H1065 H 0.91805 0.94048 0.58754 0.0
H1066 H 0.86619 0.9362 0.59539 0.0
C1067 C 0.78116 0.84949 0.6174 0.0
C1068 C 0.7889 0.93526 0.61794 0.0
H1069 H 0.81195 0.9753 0.59298 0.0
C1070 C 0.81088 0.94619 0.62625 0.0
C1071 C 0.78734 0.94849 0.60624 0.0
C1072 C 0.76264 0.93947 0.5973 0.0
C1073 C 0.83475 0.96572 0.62243 0.0
C1074 C 0.83617 0.97457 0.61008 0.0
C1075 C 0.81114 0.96804 0.60241 0.0
C1076 C 0.86631 0.98066 0.6043 0.0
C1077 C 0.8605 0.97311 0.63116 0.0
C1078 C 0.88364 0.00738 0.60659 0.0
C1079 C 0.91381 0.00989 0.60209 0.0
C1080 C 0.92691 0.98559 0.59536 0.0
C1081 C 0.90891 0.9595 0.5928 0.0
C1082 C 0.87905 0.95712 0.59719 0.0
H1083 H 0.85532 0.96534 0.64057 0.0
H1084 H 0.88206 0.96176 0.62811 0.0
H1085 H 0.86461 0.99833 0.63132 0.0
H1086 H 0.87414 0.02585 0.61203 0.0
H1087 H 0.9271 0.03035 0.60414 0.0
H1088 H 0.79875 0.34241 0.13583 0.0
H1089 H 0.7854 0.3934 0.12759 0.0
H1090 H 0.70646 0.35377 0.10963 0.0
H1091 H 0.7196 0.30332 0.11775 0.0
H1092 H 0.73568 0.40329 0.09643 0.0
H1093 H 0.70951 0.43212 0.14479 0.0
H1094 H 0.74787 0.42075 0.14051 0.0
H1095 H 0.71734 0.3929 0.14037 0.0
C1096 C 0.77926 0.34449 0.12974 0.0
C1097 C 0.75993 0.3191 0.12753 0.0
C1098 C 0.77156 0.37362 0.12512 0.0
C1099 C 0.74466 0.3774 0.11818 0.0
C1100 C 0.7273 0.35139 0.11497 0.0
H1101 H 0.5805 0.43421 0.10967 0.0
H1102 H 0.63267 0.42215 0.11622 0.0
C1103 C 0.73476 0.32255 0.11965 0.0
C1104 C 0.73102 0.40808 0.11579 0.0
H1105 H 0.68082 0.45704 0.12976 0.0
C1106 C 0.7247 0.41612 0.1037 0.0
C1107 C 0.71685 0.42479 0.12532 0.0
C1108 C 0.72306 0.41738 0.1385 0.0
C1109 C 0.70163 0.43763 0.10088 0.0
C1110 C 0.68472 0.45135 0.11043 0.0
C1111 C 0.69386 0.44635 0.12249 0.0
C1112 C 0.65314 0.46287 0.10826 0.0
C1113 C 0.69297 0.44272 0.08775 0.0
C1114 C 0.64721 0.49044 0.10201 0.0
C1115 C 0.61709 0.49758 0.09833 0.0
C1116 C 0.59287 0.47693 0.10074 0.0
C1117 C 0.59876 0.45041 0.10764 0.0
C1118 C 0.62855 0.44356 0.11142 0.0
H1119 H 0.70889 0.4308 0.0814 0.0
H1120 H 0.66924 0.43414 0.08611 0.0
H1121 H 0.69324 0.46773 0.08567 0.0
H1122 H 0.66595 0.50566 0.09954 0.0
H1123 H 0.61311 0.51811 0.09296 0.0
H1124 H 0.82034 0.30414 0.36122 0.0
H1125 H 0.83318 0.35402 0.37002 0.0
H1126 H 0.76067 0.39673 0.34916 0.0
H1127 H 0.74726 0.34627 0.34045 0.0
H1128 H 0.82085 0.41969 0.34463 0.0
H1129 H 0.79775 0.41787 0.39391 0.0
H1130 H 0.81436 0.38218 0.38895 0.0
H1131 H 0.77719 0.39365 0.38325 0.0
C1132 C 0.80638 0.32395 0.35886 0.0
C1133 C 0.78288 0.32147 0.35017 0.0
C1134 C 0.81359 0.35243 0.36394 0.0
C1135 C 0.79769 0.37904 0.36033 0.0
C1136 C 0.77293 0.37638 0.35218 0.0
H1137 H 0.91641 0.52126 0.39136 0.0
H1138 H 0.86657 0.50607 0.38258 0.0
C1139 C 0.76526 0.34761 0.34725 0.0
C1140 C 0.8111 0.40938 0.36341 0.0
H1141 H 0.84453 0.44538 0.38754 0.0
C1142 C 0.82508 0.42617 0.35401 0.0
C1143 C 0.81625 0.41816 0.3756 0.0
C1144 C 0.80028 0.40217 0.38599 0.0
C1145 C 0.84722 0.4488 0.35656 0.0
C1146 C 0.85545 0.45454 0.36877 0.0
C1147 C 0.83848 0.44069 0.37816 0.0
C1148 C 0.8854 0.46863 0.37195 0.0
C1149 C 0.86341 0.46457 0.34617 0.0
C1150 C 0.91243 0.45301 0.36866 0.0
C1151 C 0.94058 0.46123 0.37378 0.0
C1152 C 0.9423 0.48547 0.38218 0.0
C1153 C 0.91568 0.50269 0.38479 0.0
C1154 C 0.88725 0.49402 0.37982 0.0
H1155 H 0.84808 0.46641 0.33811 0.0
H1156 H 0.87132 0.48798 0.3488 0.0
H1157 H 0.88381 0.45075 0.3435 0.0
H1158 H 0.91144 0.43297 0.3628 0.0
H1159 H 0.96076 0.44757 0.37167 0.0
H1160 H 0.91932 0.47052 0.59751 0.0
H1161 H 0.86812 0.48298 0.60574 0.0
H1162 H 0.90445 0.5673 0.62076 0.0
H1163 H 0.9551 0.55497 0.61274 0.0
H1164 H 0.859 0.5386 0.63555 0.0
H1165 H 0.82178 0.5517 0.58727 0.0
H1166 H 0.83597 0.51513 0.59258 0.0
H1167 H 0.86193 0.54705 0.59101 0.0
C1168 C 0.91648 0.49119 0.60291 0.0
C1169 C 0.94101 0.51205 0.60435 0.0
C1170 C 0.88722 0.49836 0.60752 0.0
C1171 C 0.8824 0.52632 0.61367 0.0
C1172 C 0.9076 0.54562 0.61603 0.0
H1173 H 0.81544 0.68764 0.61619 0.0
H1174 H 0.8281 0.63469 0.61104 0.0
C1175 C 0.93656 0.53863 0.61139 0.0
C1176 C 0.85121 0.53847 0.61626 0.0
H1177 H 0.79689 0.58185 0.60182 0.0
C1178 C 0.84446 0.54708 0.62826 0.0
C1179 C 0.83222 0.54924 0.6067 0.0
C1180 C 0.83815 0.54045 0.59364 0.0
C1181 C 0.82203 0.56947 0.63078 0.0
C1182 C 0.80579 0.58317 0.62103 0.0
C1183 C 0.80954 0.57137 0.60925 0.0
C1184 C 0.79257 0.61447 0.62229 0.0
C1185 C 0.81861 0.58095 0.64366 0.0
C1186 C 0.76735 0.62079 0.62989 0.0
C1187 C 0.75995 0.65137 0.63284 0.0
C1188 C 0.77791 0.67575 0.62829 0.0
C1189 C 0.80141 0.6693 0.61992 0.0
C1190 C 0.80858 0.63901 0.61693 0.0
H1191 H 0.83363 0.56828 0.65013 0.0
H1192 H 0.82444 0.60583 0.64413 0.0
H1193 H 0.79436 0.57821 0.64664 0.0
H1194 H 0.75449 0.60215 0.63401 0.0
H1195 H 0.74171 0.65576 0.63932 0.0
H1196 H 0.79428 0.65973 0.84482 0.0
H1197 H 0.7809 0.61091 0.85495 0.0
H1198 H 0.68458 0.62964 0.84891 0.0
H1199 H 0.69745 0.67751 0.83884 0.0
H1200 H 0.74536 0.60035 0.87533 0.0
H1201 H 0.69167 0.54212 0.83643 0.0
H1202 H 0.7173 0.5746 0.83457 0.0
H1203 H 0.67678 0.58053 0.83736 0.0
C1204 C 0.77029 0.65329 0.84564 0.0
C1205 C 0.74696 0.67242 0.84093 0.0
C1206 C 0.76272 0.62538 0.85136 0.0
C1207 C 0.7318 0.61618 0.85232 0.0
C1208 C 0.70865 0.63567 0.84788 0.0
H1209 H 0.60685 0.56844 0.89884 0.0
H1210 H 0.65526 0.58099 0.88928 0.0
C1211 C 0.71609 0.6633 0.84222 0.0
C1212 C 0.72254 0.58756 0.85867 0.0
H1213 H 0.66657 0.53296 0.85637 0.0
C1214 C 0.72898 0.5848 0.87112 0.0
C1215 C 0.70217 0.56632 0.85315 0.0
C1216 C 0.69693 0.56585 0.8396 0.0
C1217 C 0.71206 0.56444 0.87844 0.0
C1218 C 0.68765 0.54733 0.8732 0.0
C1219 C 0.68463 0.54668 0.86051 0.0
C1220 C 0.66115 0.53657 0.88059 0.0
C1221 C 0.71908 0.56312 0.89185 0.0
C1222 C 0.64771 0.50741 0.87881 0.0
C1223 C 0.6193 0.50022 0.8842 0.0
C1224 C 0.6038 0.52231 0.89127 0.0
C1225 C 0.61799 0.55091 0.89338 0.0
C1226 C 0.64613 0.55797 0.88807 0.0
H1227 H 0.74433 0.56441 0.8934 0.0
H1228 H 0.70856 0.58332 0.89644 0.0
H1229 H 0.71011 0.54171 0.89609 0.0
H1230 H 0.65865 0.49067 0.87292 0.0
H1231 H 0.60892 0.47799 0.88242 0.0
H1232 H 0.44936 0.55147 0.87372 0.0
H1233 H 0.39739 0.56071 0.86637 0.0
H1234 H 0.36572 0.47863 0.88461 0.0
H1235 H 0.41836 0.46924 0.8921 0.0
H1236 H 0.35028 0.52727 0.8535 0.0
H1237 H 0.32048 0.55044 0.90197 0.0
H1238 H 0.36022 0.54603 0.89756 0.0
H1239 H 0.33496 0.51331 0.89743 0.0
C1240 C 0.43154 0.53489 0.8759 0.0
C1241 C 0.43773 0.5099 0.8836 0.0
C1242 C 0.40184 0.54009 0.87165 0.0
C1243 C 0.3776 0.5206 0.87509 0.0
C1244 C 0.38408 0.49409 0.88195 0.0
H1245 H 0.23867 0.65001 0.84903 0.0
H1246 H 0.24838 0.59682 0.85587 0.0
C1247 C 0.41413 0.48866 0.88615 0.0
C1248 C 0.3458 0.53159 0.87288 0.0
H1249 H 0.29513 0.57948 0.88711 0.0
C1250 C 0.33712 0.53758 0.86082 0.0
C1251 C 0.32851 0.54468 0.88248 0.0
C1252 C 0.33631 0.53841 0.89562 0.0
C1253 C 0.31486 0.56001 0.85812 0.0
C1254 C 0.30093 0.57648 0.86775 0.0
C1255 C 0.3061 0.56695 0.87977 0.0
C1256 C 0.28985 0.60835 0.86579 0.0
C1257 C 0.30949 0.56876 0.84501 0.0
C1258 C 0.309 0.63249 0.86963 0.0
C1259 C 0.30363 0.66248 0.86574 0.0
C1260 C 0.2788 0.66907 0.85802 0.0
C1261 C 0.25793 0.64547 0.85503 0.0
C1262 C 0.26354 0.61512 0.85885 0.0
H1263 H 0.32193 0.55338 0.83861 0.0
H1264 H 0.28452 0.5676 0.84291 0.0
H1265 H 0.31725 0.5928 0.84343 0.0
H1266 H 0.32945 0.6278 0.87497 0.0
H1267 H 0.31995 0.68029 0.86824 0.0
H1268 H 0.1083 0.5612 0.58946 0.0
H1269 H 0.15888 0.56814 0.59812 0.0
H1270 H 0.16391 0.47109 0.60643 0.0
H1271 H 0.11197 0.46403 0.598 0.0
H1272 H 0.17938 0.50155 0.62539 0.0
H1273 H 0.24547 0.55467 0.58898 0.0
H1274 H 0.20962 0.57489 0.58912 0.0
H1275 H 0.2102 0.53405 0.58584 0.0
C1276 C 0.12019 0.54109 0.59293 0.0
C1277 C 0.10592 0.51206 0.59309 0.0
C1278 C 0.14955 0.54503 0.59772 0.0
C1279 C 0.16582 0.52 0.60262 0.0
C1280 C 0.15205 0.49068 0.60252 0.0
H1281 H 0.29482 0.64097 0.63796 0.0
H1282 H 0.28713 0.59168 0.62733 0.0
C1283 C 0.12233 0.48671 0.59775 0.0
C1284 C 0.19463 0.5263 0.60947 0.0
H1285 H 0.25014 0.5816 0.60952 0.0
C1286 C 0.19573 0.51808 0.6218 0.0
C1287 C 0.21735 0.54651 0.60483 0.0
C1288 C 0.22073 0.5526 0.59141 0.0
C1289 C 0.21509 0.53383 0.62989 0.0
C1290 C 0.23258 0.55908 0.62558 0.0
C1291 C 0.23572 0.56321 0.61299 0.0
C1292 C 0.24033 0.5854 0.63365 0.0
C1293 C 0.21455 0.52502 0.64315 0.0
C1294 C 0.21674 0.59823 0.64074 0.0
C1295 C 0.22102 0.62606 0.64674 0.0
C1296 C 0.24888 0.64224 0.64568 0.0
C1297 C 0.27306 0.62904 0.63894 0.0
C1298 C 0.26874 0.60086 0.6329 0.0
H1299 H 0.21431 0.49954 0.64409 0.0
H1300 H 0.23473 0.53436 0.64814 0.0
H1301 H 0.19311 0.53382 0.64739 0.0
H1302 H 0.19419 0.58763 0.64113 0.0
H1303 H 0.20189 0.63541 0.65186 0.0
H1304 H 0.11472 0.4502 0.40741 0.0
H1305 H 0.16719 0.44233 0.40067 0.0
H1306 H 0.1608 0.52243 0.37758 0.0
H1307 H 0.10738 0.5305 0.38437 0.0
H1308 H 0.17837 0.47162 0.36527 0.0
H1309 H 0.25137 0.47851 0.40575 0.0
H1310 H 0.21752 0.45726 0.40972 0.0
H1311 H 0.21407 0.49699 0.40504 0.0
C1312 C 0.12454 0.46656 0.40106 0.0
C1313 C 0.10681 0.49077 0.39632 0.0
C1314 C 0.15484 0.46233 0.39736 0.0
C1315 C 0.16829 0.4822 0.38882 0.0
C1316 C 0.15105 0.50715 0.38434 0.0
H1317 H 0.29472 0.35783 0.35143 0.0
H1318 H 0.28594 0.41137 0.35808 0.0
C1319 C 0.12056 0.51164 0.38818 0.0
C1320 C 0.19792 0.47284 0.38325 0.0
H1321 H 0.26179 0.43309 0.39203 0.0
C1322 C 0.19754 0.4645 0.37093 0.0
C1323 C 0.22333 0.46416 0.39053 0.0
C1324 C 0.22669 0.4751 0.40347 0.0
C1325 C 0.21894 0.44328 0.36632 0.0
C1326 C 0.24105 0.43037 0.37427 0.0
C1327 C 0.24446 0.44261 0.386 0.0
C1328 C 0.25293 0.39901 0.37197 0.0
C1329 C 0.21509 0.43166 0.35348 0.0
C1330 C 0.23829 0.37452 0.37793 0.0
C1331 C 0.24291 0.34436 0.3741 0.0
C1332 C 0.26265 0.33804 0.36433 0.0
C1333 C 0.27951 0.36222 0.35904 0.0
C1334 C 0.27446 0.39271 0.36278 0.0
H1335 H 0.19766 0.44508 0.34832 0.0
H1336 H 0.23739 0.43304 0.34859 0.0
H1337 H 0.20787 0.40712 0.35364 0.0
H1338 H 0.22148 0.37893 0.38501 0.0
H1339 H 0.22976 0.32608 0.37834 0.0
H1340 H 0.421 0.4282 0.09185 0.0
H1341 H 0.37441 0.41767 0.103 0.0
H1342 H 0.37496 0.51007 0.1175 0.0
H1343 H 0.42303 0.52069 0.10643 0.0
H1344 H 0.36798 0.47109 0.13508 0.0
H1345 H 0.28541 0.43483 0.10055 0.0
H1346 H 0.32033 0.4148 0.09715 0.0
H1347 H 0.31951 0.45643 0.09656 0.0
C1348 C 0.41113 0.44661 0.09724 0.0
C1349 C 0.42599 0.47524 0.09833 0.0
C1350 C 0.38399 0.44067 0.10348 0.0
C1351 C 0.37053 0.46328 0.11087 0.0
C1352 C 0.38465 0.49239 0.11171 0.0
H1353 H 0.24356 0.34121 0.14927 0.0
H1354 H 0.25478 0.39031 0.13901 0.0
C1355 C 0.41214 0.4984 0.10541 0.0
C1356 C 0.34494 0.45403 0.11904 0.0
H1357 H 0.28714 0.40096 0.1193 0.0
C1358 C 0.34949 0.45674 0.13163 0.0
C1359 C 0.3198 0.43636 0.11473 0.0
C1360 C 0.31086 0.43585 0.10149 0.0
C1361 C 0.33283 0.43839 0.13979 0.0
C1362 C 0.31204 0.41615 0.13518 0.0
C1363 C 0.30397 0.41711 0.12284 0.0
C1364 C 0.30389 0.38829 0.14231 0.0
C1365 C 0.33934 0.44147 0.1532 0.0
C1366 C 0.32773 0.37058 0.14733 0.0
C1367 C 0.32147 0.34283 0.15313 0.0
C1368 C 0.29117 0.33166 0.15392 0.0
C1369 C 0.26714 0.34922 0.14883 0.0
C1370 C 0.27349 0.37732 0.14303 0.0
H1371 H 0.34331 0.466 0.15562 0.0
H1372 H 0.32012 0.4324 0.15881 0.0
H1373 H 0.36069 0.42864 0.15547 0.0
H1374 H 0.35151 0.37777 0.14647 0.0
H1375 H 0.34063 0.32988 0.15683 0.0
loop_
_geom_bond_atom_site_label_1
_geom_bond_atom_site_label_2
_geom_bond_distance
_geom_bond_site_symmetry_2
_ccdc_geom_bond_type
Zn0 O3 2.031 . S
Zn0 O5 2.049 . S
Zn0 O10 2.067 1_455 S
Zn1 O2 1.962 . S
Zn1 O4 1.986 . S
Zn1 O6 1.996 . S
Zn1 O9 1.943 1_455 S
O2 Zn1 1.962 . S
O2 C7 1.254 1_545 S
O3 Zn0 2.031 . S
O3 C7 1.269 . S
O4 Zn1 1.986 . S
O4 C11 1.262 . S
O5 Zn0 2.049 . S
O5 C13 1.260 1_565 S
O6 Zn1 1.996 . S
O6 C13 1.257 . S
C7 O2 1.254 1_565 S
C7 O3 1.269 . S
C8 O9 1.235 1_565 S
C8 O10 1.281 . S
O9 Zn1 1.943 1_655 S
O9 C8 1.235 1_545 S
O10 Zn0 2.067 1_655 S
O10 C8 1.281 . S
C11 O4 1.262 . S
C11 O12 1.232 . S
O12 C11 1.232 . S
C13 O5 1.260 1_545 S
C13 O6 1.257 . S
Zn14 O17 2.031 . S
Zn14 O19 2.049 . S
Zn14 O24 2.067 . S
Zn15 O16 1.962 . S
Zn15 O18 1.986 . S
Zn15 O20 1.996 . S
Zn15 O23 1.943 . S
O16 Zn15 1.962 . S
O16 C21 1.254 . S
O17 Zn14 2.031 . S
O17 C21 1.269 . S
O18 Zn15 1.986 . S
O18 C25 1.262 . S
O19 Zn14 2.049 . S
O19 C27 1.260 . S
O20 Zn15 1.996 . S
O20 C27 1.257 . S
C21 O16 1.254 . S
C21 O17 1.269 . S
C22 O23 1.249 . S
C22 O24 1.270 . S
O23 Zn15 1.943 . S
O23 C22 1.249 . S
O24 Zn14 2.067 . S
O24 C22 1.270 . S
C25 O18 1.262 . S
C25 O26 1.232 . S
O26 C25 1.232 . S
C27 O19 1.260 . S
C27 O20 1.257 . S
Zn28 O31 2.031 . S
Zn28 O33 2.049 . S
Zn28 O38 2.067 . S
Zn29 O30 1.962 . S
Zn29 O32 1.986 . S
Zn29 O34 1.996 . S
Zn29 O37 1.943 . S
O30 Zn29 1.962 . S
O30 C35 1.254 1_565 S
O31 Zn28 2.031 . S
O31 C35 1.269 . S
O32 Zn29 1.986 . S
O32 C39 1.262 . S
O33 Zn28 2.049 . S
O33 C41 1.260 1_545 S
O34 Zn29 1.996 . S
O34 C41 1.257 . S
C35 O30 1.254 1_545 S
C35 O31 1.269 . S
C36 O37 1.236 1_545 S
C36 O38 1.281 . S
O37 Zn29 1.943 . S
O37 C36 1.236 1_565 S
O38 Zn28 2.067 . S
O38 C36 1.281 . S
C39 O32 1.262 . S
C39 O40 1.232 . S
O40 C39 1.232 . S
C41 O33 1.260 1_565 S
C41 O34 1.257 . S
Zn42 O45 2.031 . S
Zn42 O47 2.049 . S
Zn42 O52 2.067 . S
Zn43 O44 1.962 . S
Zn43 O46 1.986 . S
Zn43 O48 1.996 . S
Zn43 O51 1.943 . S
O44 Zn43 1.962 . S
O44 C49 1.254 . S
O45 Zn42 2.031 . S
O45 C49 1.269 . S
O46 Zn43 1.986 . S
O46 C53 1.262 . S
O47 Zn42 2.049 . S
O47 C55 1.260 . S
O48 Zn43 1.996 . S
O48 C55 1.257 . S
C49 O44 1.254 . S
C49 O45 1.269 . S
C50 O51 1.249 . S
C50 O52 1.270 . S
O51 Zn43 1.943 . S
O51 C50 1.249 . S
O52 Zn42 2.067 . S
O52 C50 1.270 . S
C53 O46 1.262 . S
C53 O54 1.232 . S
O54 C53 1.232 . S
C55 O47 1.260 . S
C55 O48 1.257 . S
Zn56 O59 2.031 . S
Zn56 O61 2.049 . S
Zn56 O66 2.067 1_455 S
Zn57 O58 1.962 . S
Zn57 O60 1.986 . S
Zn57 O62 1.996 . S
Zn57 O65 1.943 1_455 S
O58 Zn57 1.962 . S
O58 C63 1.254 1_565 S
O59 Zn56 2.031 . S
O59 C63 1.269 . S
O60 Zn57 1.986 . S
O60 C67 1.262 . S
O61 Zn56 2.049 . S
O61 C69 1.260 1_545 S
O62 Zn57 1.996 . S
O62 C69 1.257 . S
C63 O58 1.254 1_545 S
C63 O59 1.269 . S
C64 O65 1.235 1_545 S
C64 O66 1.281 . S
O65 Zn57 1.943 1_655 S
O65 C64 1.235 1_565 S
O66 Zn56 2.067 1_655 S
O66 C64 1.281 . S
C67 O60 1.262 . S
C67 O68 1.232 . S
O68 C67 1.232 . S
C69 O61 1.260 1_565 S
C69 O62 1.257 . S
Zn70 O73 2.031 . S
Zn70 O75 2.049 . S
Zn70 O80 2.067 . S
Zn71 O72 1.962 . S
Zn71 O74 1.986 . S
Zn71 O76 1.996 . S
Zn71 O79 1.943 . S
O72 Zn71 1.962 . S
O72 C77 1.254 . S
O73 Zn70 2.031 . S
O73 C77 1.269 . S
O74 Zn71 1.986 . S
O74 C81 1.262 . S
O75 Zn70 2.049 . S
O75 C83 1.260 . S
O76 Zn71 1.996 . S
O76 C83 1.257 . S
C77 O72 1.254 . S
C77 O73 1.269 . S
C78 O79 1.249 . S
C78 O80 1.270 . S
O79 Zn71 1.943 . S
O79 C78 1.249 . S
O80 Zn70 2.067 . S
O80 C78 1.270 . S
C81 O74 1.262 . S
C81 O82 1.232 . S
O82 C81 1.232 . S
C83 O75 1.260 . S
C83 O76 1.257 . S
Zn84 O87 2.031 . S
Zn84 O89 2.049 . S
Zn84 O94 2.067 . S
Zn85 O86 1.962 . S
Zn85 O88 1.986 . S
Zn85 O90 1.996 . S
Zn85 O93 1.943 . S
O86 Zn85 1.962 . S
O86 C91 1.254 1_545 S
O87 Zn84 2.031 . S
O87 C91 1.269 . S
O88 Zn85 1.986 . S
O88 C95 1.262 . S
O89 Zn84 2.049 . S
O89 C97 1.260 1_565 S
O90 Zn85 1.996 . S
O90 C97 1.257 . S
C91 O86 1.254 1_565 S
C91 O87 1.269 . S
C92 O93 1.236 1_565 S
C92 O94 1.281 . S
O93 Zn85 1.943 . S
O93 C92 1.236 1_545 S
O94 Zn84 2.067 . S
O94 C92 1.281 . S
C95 O88 1.262 . S
C95 O96 1.232 . S
O96 C95 1.232 . S
C97 O89 1.260 1_545 S
C97 O90 1.257 . S
Zn98 O101 2.031 . S
Zn98 O103 2.049 . S
Zn98 O108 2.067 . S
Zn99 O100 1.962 . S
Zn99 O102 1.986 . S
Zn99 O104 1.996 . S
Zn99 O107 1.943 . S
O100 Zn99 1.962 . S
O100 C105 1.254 . S
O101 Zn98 2.031 . S
O101 C105 1.269 . S
O102 Zn99 1.986 . S
O102 C109 1.262 . S
O103 Zn98 2.049 . S
O103 C111 1.260 . S
O104 Zn99 1.996 . S
O104 C111 1.257 . S
C105 O100 1.254 . S
C105 O101 1.269 . S
C106 O107 1.249 . S
C106 O108 1.270 . S
O107 Zn99 1.943 . S
O107 C106 1.249 . S
O108 Zn98 2.067 . S
O108 C106 1.270 . S
C109 O102 1.262 . S
C109 O110 1.232 . S
O110 C109 1.232 . S
C111 O103 1.260 . S
C111 O104 1.257 . S
Zn112 O115 2.031 . S
Zn112 O117 2.049 . S
Zn112 O122 2.067 . S
Zn113 O114 1.962 . S
Zn113 O116 1.986 . S
Zn113 O118 1.996 . S
Zn113 O121 1.943 . S
O114 Zn113 1.962 . S
O114 C119 1.254 . S
O115 Zn112 2.031 . S
O115 C119 1.269 . S
O116 Zn113 1.986 . S
O116 C123 1.262 . S
O117 Zn112 2.049 . S
O117 C125 1.260 . S
O118 Zn113 1.996 . S
O118 C125 1.257 . S
C119 O114 1.254 . S
C119 O115 1.269 . S
C120 O121 1.249 . S
C120 O122 1.270 . S
O121 Zn113 1.943 . S
O121 C120 1.249 . S
O122 Zn112 2.067 . S
O122 C120 1.270 . S
C123 O116 1.262 . S
C123 O124 1.232 . S
O124 C123 1.232 . S
C125 O117 1.260 . S
C125 O118 1.257 . S
Zn126 O129 2.031 . S
Zn126 O131 2.049 . S
Zn126 O136 2.067 . S
Zn127 O128 1.962 . S
Zn127 O130 1.986 . S
Zn127 O132 1.996 . S
Zn127 O135 1.943 . S
O128 Zn127 1.962 . S
O128 C133 1.254 . S
O129 Zn126 2.031 . S
O129 C133 1.269 . S
O130 Zn127 1.986 . S
O130 C137 1.262 . S
O131 Zn126 2.049 . S
O131 C139 1.260 . S
O132 Zn127 1.996 . S
O132 C139 1.257 . S
C133 O128 1.254 . S
C133 O129 1.269 . S
C134 O135 1.249 . S
C134 O136 1.270 . S
O135 Zn127 1.943 . S
O135 C134 1.249 . S
O136 Zn126 2.067 . S
O136 C134 1.270 . S
C137 O130 1.262 . S
C137 O138 1.232 . S
O138 C137 1.232 . S
C139 O131 1.260 . S
C139 O132 1.257 . S
Zn140 O143 2.031 . S
Zn140 O145 2.049 . S
Zn140 O150 2.067 . S
Zn141 O142 1.962 . S
Zn141 O144 1.986 . S
Zn141 O146 1.996 . S
Zn141 O149 1.943 . S
O142 Zn141 1.962 . S
O142 C147 1.254 . S
O143 Zn140 2.031 . S
O143 C147 1.269 . S
O144 Zn141 1.986 . S
O144 C151 1.262 . S
O145 Zn140 2.049 . S
O145 C153 1.260 . S
O146 Zn141 1.996 . S
O146 C153 1.257 . S
C147 O142 1.254 . S
C147 O143 1.269 . S
C148 O149 1.249 . S
C148 O150 1.270 . S
O149 Zn141 1.943 . S
O149 C148 1.249 . S
O150 Zn140 2.067 . S
O150 C148 1.270 . S
C151 O144 1.262 . S
C151 O152 1.232 . S
O152 C151 1.232 . S
C153 O145 1.260 . S
C153 O146 1.257 . S
Zn154 O157 2.031 . S
Zn154 O159 2.049 . S
Zn154 O164 2.067 . S
Zn155 O156 1.962 . S
Zn155 O158 1.986 . S
Zn155 O160 1.996 . S
Zn155 O163 1.943 . S
O156 Zn155 1.962 . S
O156 C161 1.254 . S
O157 Zn154 2.031 . S
O157 C161 1.269 . S
O158 Zn155 1.986 . S
O158 C165 1.262 . S
O159 Zn154 2.049 . S
O159 C167 1.260 . S
O160 Zn155 1.996 . S
O160 C167 1.257 . S
C161 O156 1.254 . S
C161 O157 1.269 . S
C162 O163 1.249 . S
C162 O164 1.270 . S
O163 Zn155 1.943 . S
O163 C162 1.249 . S
O164 Zn154 2.067 . S
O164 C162 1.270 . S
C165 O158 1.262 . S
C165 O166 1.232 . S
O166 C165 1.232 . S
C167 O159 1.260 . S
C167 O160 1.257 . S
Zn168 O171 2.031 . S
Zn168 O173 2.049 . S
Zn168 O178 2.067 . S
Zn169 O170 1.962 . S
Zn169 O172 1.986 . S
Zn169 O174 1.996 . S
Zn169 O177 1.943 . S
O170 Zn169 1.962 . S
O170 C175 1.254 . S
O171 Zn168 2.031 . S
O171 C175 1.269 . S
O172 Zn169 1.986 . S
O172 C179 1.262 . S
O173 Zn168 2.049 . S
O173 C181 1.260 . S
O174 Zn169 1.996 . S
O174 C181 1.257 . S
C175 O170 1.254 . S
C175 O171 1.269 . S
C176 O177 1.249 . S
C176 O178 1.270 . S
O177 Zn169 1.943 . S
O177 C176 1.249 . S
O178 Zn168 2.067 . S
O178 C176 1.270 . S
C179 O172 1.262 . S
C179 O180 1.232 . S
O180 C179 1.232 . S
C181 O173 1.260 . S
C181 O174 1.257 . S
Zn182 O185 2.031 . S
Zn182 O187 2.049 . S
Zn182 O192 2.067 . S
Zn183 O184 1.962 1_455 S
Zn183 O186 1.986 . S
Zn183 O188 1.996 . S
Zn183 O191 1.943 . S
O184 Zn183 1.962 1_655 S
O184 C189 1.254 . S
O185 Zn182 2.031 . S
O185 C189 1.269 1_455 S
O186 Zn183 1.986 . S
O186 C193 1.262 . S
O187 Zn182 2.049 . S
O187 C195 1.260 . S
O188 Zn183 1.996 . S
O188 C195 1.257 . S
C189 O184 1.254 . S
C189 O185 1.269 1_655 S
C190 O191 1.249 . S
C190 O192 1.270 . S
O191 Zn183 1.943 . S
O191 C190 1.249 . S
O192 Zn182 2.067 . S
O192 C190 1.270 . S
C193 O186 1.262 . S
C193 O194 1.232 . S
O194 C193 1.232 . S
C195 O187 1.260 . S
C195 O188 1.257 . S
Zn196 O199 2.031 . S
Zn196 O201 2.049 . S
Zn196 O206 2.067 . S
Zn197 O198 1.962 . S
Zn197 O200 1.986 . S
Zn197 O202 1.996 . S
Zn197 O205 1.943 . S
O198 Zn197 1.962 . S
O198 C203 1.254 . S
O199 Zn196 2.031 . S
O199 C203 1.269 . S
O200 Zn197 1.986 . S
O200 C207 1.262 . S
O201 Zn196 2.049 . S
O201 C209 1.260 . S
O202 Zn197 1.996 . S
O202 C209 1.257 . S
C203 O198 1.254 . S
C203 O199 1.269 . S
C204 O205 1.249 . S
C204 O206 1.270 . S
O205 Zn197 1.943 . S
O205 C204 1.249 . S
O206 Zn196 2.067 . S
O206 C204 1.270 . S
C207 O200 1.262 . S
C207 O208 1.232 . S
O208 C207 1.232 . S
C209 O201 1.260 . S
C209 O202 1.257 . S
Zn210 O213 2.031 . S
Zn210 O215 2.049 . S
Zn210 O220 2.067 . S
Zn211 O212 1.962 1_455 S
Zn211 O214 1.986 . S
Zn211 O216 1.996 . S
Zn211 O219 1.943 . S
O212 Zn211 1.962 1_655 S
O212 C217 1.254 . S
O213 Zn210 2.031 . S
O213 C217 1.269 1_455 S
O214 Zn211 1.986 . S
O214 C221 1.262 . S
O215 Zn210 2.049 . S
O215 C223 1.260 . S
O216 Zn211 1.996 . S
O216 C223 1.257 . S
C217 O212 1.254 . S
C217 O213 1.269 1_655 S
C218 O219 1.249 . S
C218 O220 1.270 . S
O219 Zn211 1.943 . S
O219 C218 1.249 . S
O220 Zn210 2.067 . S
O220 C218 1.270 . S
C221 O214 1.262 . S
C221 O222 1.232 . S
O222 C221 1.232 . S
C223 O215 1.260 . S
C223 O216 1.257 . S
H224 C232 0.929 . S
H225 C234 0.930 . S
H226 C236 0.930 . S
H227 C239 0.929 . S
H228 C242 0.930 . S
H229 C244 0.960 . S
H230 C244 0.960 . S
H231 C244 0.960 1_655 S
C232 H224 0.929 . S
C232 C233 1.377 . S
C232 C234 1.384 . S
C233 C232 1.377 . S
C233 C239 1.390 1_455 S
C234 H225 0.930 . S
C234 C232 1.384 . S
C234 C235 1.372 . S
C235 C234 1.372 . S
C235 C236 1.400 1_455 S
C235 C240 1.490 . S
C236 H226 0.930 . S
C236 C235 1.400 1_655 S
C236 C239 1.386 . S
H237 C253 0.930 . S
H238 C254 0.931 . S
C239 H227 0.929 . S
C239 C233 1.390 1_655 S
C239 C236 1.386 . S
C240 C235 1.490 . S
C240 C242 1.395 . S
C240 C243 1.403 . S
H241 C247 0.930 . S
C242 H228 0.930 . S
C242 C240 1.395 . S
C242 C245 1.403 . S
C243 C240 1.403 . S
C243 C244 1.524 . S
C243 C247 1.400 . S
C244 H229 0.960 . S
C244 H230 0.960 . S
C244 H231 0.960 1_455 S
C244 C243 1.524 . S
C245 C242 1.403 . S
C245 C246 1.392 . S
C245 C249 1.495 . S
C246 C245 1.392 . S
C246 C247 1.385 . S
C246 C248 1.478 . S
C247 H241 0.930 . S
C247 C243 1.400 . S
C247 C246 1.385 . S
C248 C246 1.478 . S
C248 C250 1.381 . S
C248 C254 1.383 1_455 S
C249 C245 1.495 . S
C249 H255 0.959 . S
C249 H256 0.961 . S
C249 H257 0.960 . S
C250 C248 1.381 . S
C250 C251 1.394 . S
C250 H258 0.930 . S
C251 C250 1.394 . S
C251 C252 1.383 . S
C251 H259 0.929 . S
C252 C251 1.383 . S
C252 C253 1.377 1_455 S
C253 H237 0.930 . S
C253 C252 1.377 1_655 S
C253 C254 1.379 . S
C254 H238 0.931 . S
C254 C248 1.383 1_655 S
C254 C253 1.379 . S
H255 C249 0.959 . S
H256 C249 0.961 . S
H257 C249 0.960 . S
H258 C250 0.930 . S
H259 C251 0.929 . S
H260 C268 0.929 . S
H261 C270 0.930 . S
H262 C272 0.930 . S
H263 C275 0.929 . S
H264 C278 0.930 1_655 S
H265 C280 0.960 1_455 S
H266 C280 0.960 . S
H267 C280 0.960 . S
C268 H260 0.929 . S
C268 C269 1.377 . S
C268 C270 1.384 . S
C269 C268 1.377 . S
C269 C275 1.390 . S
C270 H261 0.930 . S
C270 C268 1.384 . S
C270 C271 1.372 . S
C271 C270 1.372 . S
C271 C272 1.400 . S
C271 C276 1.490 . S
C272 H262 0.930 . S
C272 C271 1.400 . S
C272 C275 1.386 . S
H273 C289 0.930 . S
H274 C290 0.931 . S
C275 H263 0.929 . S
C275 C269 1.390 . S
C275 C272 1.386 . S
C276 C271 1.490 . S
C276 C278 1.395 1_655 S
C276 C279 1.403 1_655 S
H277 C283 0.930 . S
C278 H264 0.930 1_455 S
C278 C276 1.395 1_455 S
C278 C281 1.403 . S
C279 C276 1.403 1_455 S
C279 C280 1.524 1_455 S
C279 C283 1.400 . S
C280 H265 0.960 1_655 S
C280 H266 0.960 . S
C280 H267 0.960 . S
C280 C279 1.524 1_655 S
C281 C278 1.403 . S
C281 C282 1.392 . S
C281 C285 1.495 . S
C282 C281 1.392 . S
C282 C283 1.385 . S
C282 C284 1.478 . S
C283 H277 0.930 . S
C283 C279 1.400 . S
C283 C282 1.385 . S
C284 C282 1.478 . S
C284 C286 1.381 . S
C284 C290 1.383 . S
C285 C281 1.495 . S
C285 H291 0.959 . S
C285 H292 0.961 . S
C285 H293 0.960 . S
C286 C284 1.381 . S
C286 C287 1.394 . S
C286 H294 0.930 . S
C287 C286 1.394 . S
C287 C288 1.383 . S
C287 H295 0.929 . S
C288 C287 1.383 . S
C288 C289 1.377 . S
C289 H273 0.930 . S
C289 C288 1.377 . S
C289 C290 1.379 . S
C290 H274 0.931 . S
C290 C284 1.383 . S
C290 C289 1.379 . S
H291 C285 0.959 . S
H292 C285 0.961 . S
H293 C285 0.960 . S
H294 C286 0.930 . S
H295 C287 0.929 . S
H296 C304 0.929 . S
H297 C306 0.930 . S
H298 C308 0.930 . S
H299 C311 0.929 . S
H300 C314 0.930 . S
H301 C316 0.960 . S
H302 C316 0.960 . S
H303 C316 0.960 . S
C304 H296 0.929 . S
C304 C305 1.377 . S
C304 C306 1.384 . S
C305 C304 1.377 . S
C305 C311 1.390 . S
C306 H297 0.930 . S
C306 C304 1.384 . S
C306 C307 1.372 . S
C307 C306 1.372 . S
C307 C308 1.400 . S
C307 C312 1.490 . S
C308 H298 0.930 . S
C308 C307 1.400 . S
C308 C311 1.386 . S
H309 C325 0.930 . S
H310 C326 0.931 . S
C311 H299 0.929 . S
C311 C305 1.390 . S
C311 C308 1.386 . S
C312 C307 1.490 . S
C312 C314 1.395 . S
C312 C315 1.403 . S
H313 C319 0.930 . S
C314 H300 0.930 . S
C314 C312 1.395 . S
C314 C317 1.403 . S
C315 C312 1.403 . S
C315 C316 1.524 . S
C315 C319 1.400 . S
C316 H301 0.960 . S
C316 H302 0.960 . S
C316 H303 0.960 . S
C316 C315 1.524 . S
C317 C314 1.403 . S
C317 C318 1.392 . S
C317 C321 1.495 . S
C318 C317 1.392 . S
C318 C319 1.385 . S
C318 C320 1.478 . S
C319 H313 0.930 . S
C319 C315 1.400 . S
C319 C318 1.385 . S
C320 C318 1.478 . S
C320 C322 1.381 . S
C320 C326 1.383 . S
C321 C317 1.495 . S
C321 H327 0.959 . S
C321 H328 0.961 . S
C321 H329 0.960 . S
C322 C320 1.381 . S
C322 C323 1.394 . S
C322 H330 0.930 . S
C323 C322 1.394 . S
C323 C324 1.383 . S
C323 H331 0.929 . S
C324 C323 1.383 . S
C324 C325 1.377 . S
C325 H309 0.930 . S
C325 C324 1.377 . S
C325 C326 1.379 . S
C326 H310 0.931 . S
C326 C320 1.383 . S
C326 C325 1.379 . S
H327 C321 0.959 . S
H328 C321 0.961 . S
H329 C321 0.960 . S
H330 C322 0.930 . S
H331 C323 0.929 . S
H332 C340 0.929 . S
H333 C342 0.930 . S
H334 C344 0.930 . S
H335 C347 0.929 . S
H336 C350 0.930 . S
H337 C352 0.960 . S
H338 C352 0.960 . S
H339 C352 0.960 . S
C340 H332 0.929 . S
C340 C341 1.377 . S
C340 C342 1.384 . S
C341 C340 1.377 . S
C341 C347 1.390 . S
C342 H333 0.930 . S
C342 C340 1.384 . S
C342 C343 1.372 . S
C343 C342 1.372 . S
C343 C344 1.400 . S
C343 C348 1.490 . S
C344 H334 0.930 . S
C344 C343 1.400 . S
C344 C347 1.386 . S
H345 C361 0.930 . S
H346 C362 0.931 . S
C347 H335 0.929 . S
C347 C341 1.390 . S
C347 C344 1.386 . S
C348 C343 1.490 . S
C348 C350 1.395 . S
C348 C351 1.403 . S
H349 C355 0.930 . S
C350 H336 0.930 . S
C350 C348 1.395 . S
C350 C353 1.403 . S
C351 C348 1.403 . S
C351 C352 1.524 . S
C351 C355 1.400 . S
C352 H337 0.960 . S
C352 H338 0.960 . S
C352 H339 0.960 . S
C352 C351 1.524 . S
C353 C350 1.403 . S
C353 C354 1.392 . S
C353 C357 1.495 . S
C354 C353 1.392 . S
C354 C355 1.385 . S
C354 C356 1.478 . S
C355 H349 0.930 . S
C355 C351 1.400 . S
C355 C354 1.385 . S
C356 C354 1.478 . S
C356 C358 1.381 . S
C356 C362 1.383 . S
C357 C353 1.495 . S
C357 H363 0.959 . S
C357 H364 0.961 . S
C357 H365 0.960 . S
C358 C356 1.381 . S
C358 C359 1.394 . S
C358 H366 0.930 . S
C359 C358 1.394 . S
C359 C360 1.383 . S
C359 H367 0.929 . S
C360 C359 1.383 . S
C360 C361 1.377 . S
C361 H345 0.930 . S
C361 C360 1.377 . S
C361 C362 1.379 . S
C362 H346 0.931 . S
C362 C356 1.383 . S
C362 C361 1.379 . S
H363 C357 0.959 . S
H364 C357 0.961 . S
H365 C357 0.960 . S
H366 C358 0.930 . S
H367 C359 0.929 . S
H368 C376 0.929 . S
H369 C378 0.930 . S
H370 C380 0.930 . S
H371 C383 0.929 . S
H372 C386 0.930 . S
H373 C388 0.960 . S
H374 C388 0.960 . S
H375 C388 0.960 . S
C376 H368 0.929 . S
C376 C377 1.377 1_655 S
C376 C378 1.384 . S
C377 C376 1.377 1_455 S
C377 C383 1.390 . S
C378 H369 0.930 . S
C378 C376 1.384 . S
C378 C379 1.372 1_655 S
C379 C378 1.372 1_455 S
C379 C380 1.400 . S
C379 C384 1.490 . S
C380 H370 0.930 . S
C380 C379 1.400 . S
C380 C383 1.386 . S
H381 C397 0.930 . S
H382 C398 0.931 . S
C383 H371 0.929 . S
C383 C377 1.390 . S
C383 C380 1.386 . S
C384 C379 1.490 . S
C384 C386 1.395 1_455 S
C384 C387 1.403 . S
H385 C391 0.930 . S
C386 H372 0.930 . S
C386 C384 1.395 1_655 S
C386 C389 1.403 . S
C387 C384 1.403 . S
C387 C388 1.524 . S
C387 C391 1.400 . S
C388 H373 0.960 . S
C388 H374 0.960 . S
C388 H375 0.960 . S
C388 C387 1.524 . S
C389 C386 1.403 . S
C389 C390 1.392 1_655 S
C389 C393 1.495 . S
C390 C389 1.392 1_455 S
C390 C391 1.385 . S
C390 C392 1.478 . S
C391 H385 0.930 . S
C391 C387 1.400 . S
C391 C390 1.385 . S
C392 C390 1.478 . S
C392 C394 1.381 1_455 S
C392 C398 1.383 . S
C393 C389 1.495 . S
C393 H399 0.959 . S
C393 H400 0.961 . S
C393 H401 0.960 . S
C394 C392 1.381 1_655 S
C394 C395 1.393 1_655 S
C394 H402 0.930 . S
C395 C394 1.393 1_455 S
C395 C396 1.390 . S
C395 H403 0.924 1_455 S
C396 C395 1.390 . S
C396 C397 1.377 . S
C397 H381 0.930 . S
C397 C396 1.377 . S
C397 C398 1.379 . S
C398 H382 0.931 . S
C398 C392 1.383 . S
C398 C397 1.379 . S
H399 C393 0.959 . S
H400 C393 0.961 . S
H401 C393 0.960 . S
H402 C394 0.930 . S
H403 C395 0.924 1_655 S
H404 C412 0.929 . S
H405 C414 0.930 . S
H406 C416 0.930 . S
H407 C419 0.929 . S
H408 C422 0.930 . S
H409 C424 0.960 . S
H410 C424 0.960 . S
H411 C424 0.960 . S
C412 H404 0.929 . S
C412 C413 1.377 . S
C412 C414 1.384 . S
C413 C412 1.377 . S
C413 C419 1.390 . S
C414 H405 0.930 . S
C414 C412 1.384 . S
C414 C415 1.372 . S
C415 C414 1.372 . S
C415 C416 1.400 . S
C415 C420 1.490 . S
C416 H406 0.930 . S
C416 C415 1.400 . S
C416 C419 1.386 . S
H417 C433 0.930 . S
H418 C434 0.931 . S
C419 H407 0.929 . S
C419 C413 1.390 . S
C419 C416 1.386 . S
C420 C415 1.490 . S
C420 C422 1.395 . S
C420 C423 1.403 . S
H421 C427 0.930 . S
C422 H408 0.930 . S
C422 C420 1.395 . S
C422 C425 1.403 . S
C423 C420 1.403 . S
C423 C424 1.524 . S
C423 C427 1.400 . S
C424 H409 0.960 . S
C424 H410 0.960 . S
C424 H411 0.960 . S
C424 C423 1.524 . S
C425 C422 1.403 . S
C425 C426 1.392 . S
C425 C429 1.495 . S
C426 C425 1.392 . S
C426 C427 1.385 . S
C426 C428 1.478 . S
C427 H421 0.930 . S
C427 C423 1.400 . S
C427 C426 1.385 . S
C428 C426 1.478 . S
C428 C430 1.381 . S
C428 C434 1.383 . S
C429 C425 1.495 . S
C429 H435 0.959 . S
C429 H436 0.961 . S
C429 H437 0.960 . S
C430 C428 1.381 . S
C430 C431 1.394 . S
C430 H438 0.930 . S
C431 C430 1.394 . S
C431 C432 1.383 . S
C431 H439 0.929 . S
C432 C431 1.383 . S
C432 C433 1.377 . S
C433 H417 0.930 . S
C433 C432 1.377 . S
C433 C434 1.379 . S
C434 H418 0.931 . S
C434 C428 1.383 . S
C434 C433 1.379 . S
H435 C429 0.959 . S
H436 C429 0.961 . S
H437 C429 0.960 . S
H438 C430 0.930 . S
H439 C431 0.929 . S
H440 C448 0.929 . S
H441 C450 0.930 . S
H442 C452 0.930 . S
H443 C455 0.929 . S
H444 C458 0.930 . S
H445 C460 0.960 . S
H446 C460 0.960 . S
H447 C460 0.960 . S
C448 H440 0.929 . S
C448 C449 1.377 . S
C448 C450 1.384 . S
C449 C448 1.377 . S
C449 C455 1.390 . S
C450 H441 0.930 . S
C450 C448 1.384 . S
C450 C451 1.372 . S
C451 C450 1.372 . S
C451 C452 1.400 . S
C451 C456 1.490 . S
C452 H442 0.930 . S
C452 C451 1.400 . S
C452 C455 1.386 . S
H453 C469 0.930 . S
H454 C470 0.931 . S
C455 H443 0.929 . S
C455 C449 1.390 . S
C455 C452 1.386 . S
C456 C451 1.490 . S
C456 C458 1.395 . S
C456 C459 1.403 . S
H457 C463 0.930 . S
C458 H444 0.930 . S
C458 C456 1.395 . S
C458 C461 1.403 . S
C459 C456 1.403 . S
C459 C460 1.524 . S
C459 C463 1.400 . S
C460 H445 0.960 . S
C460 H446 0.960 . S
C460 H447 0.960 . S
C460 C459 1.524 . S
C461 C458 1.403 . S
C461 C462 1.392 . S
C461 C465 1.495 . S
C462 C461 1.392 . S
C462 C463 1.385 . S
C462 C464 1.478 . S
C463 H457 0.930 . S
C463 C459 1.400 . S
C463 C462 1.385 . S
C464 C462 1.478 . S
C464 C466 1.381 . S
C464 C470 1.383 . S
C465 C461 1.495 . S
C465 H471 0.959 . S
C465 H472 0.961 . S
C465 H473 0.960 . S
C466 C464 1.381 . S
C466 C467 1.394 . S
C466 H474 0.930 . S
C467 C466 1.394 . S
C467 C468 1.383 . S
C467 H475 0.929 . S
C468 C467 1.383 . S
C468 C469 1.377 . S
C469 H453 0.930 . S
C469 C468 1.377 . S
C469 C470 1.379 . S
C470 H454 0.931 . S
C470 C464 1.383 . S
C470 C469 1.379 . S
H471 C465 0.959 . S
H472 C465 0.961 . S
H473 C465 0.960 . S
H474 C466 0.930 . S
H475 C467 0.929 . S
H476 C484 0.929 . S
H477 C486 0.930 . S
H478 C488 0.930 . S
H479 C491 0.929 . S
H480 C494 0.930 . S
H481 C496 0.960 . S
H482 C496 0.960 . S
H483 C496 0.960 . S
C484 H476 0.929 . S
C484 C485 1.377 . S
C484 C486 1.384 . S
C485 C484 1.377 . S
C485 C491 1.390 . S
C486 H477 0.930 . S
C486 C484 1.384 . S
C486 C487 1.372 . S
C487 C486 1.372 . S
C487 C488 1.400 . S
C487 C492 1.490 . S
C488 H478 0.930 . S
C488 C487 1.400 . S
C488 C491 1.386 . S
H489 C505 0.930 . S
H490 C506 0.931 . S
C491 H479 0.929 . S
C491 C485 1.390 . S
C491 C488 1.386 . S
C492 C487 1.490 . S
C492 C494 1.395 . S
C492 C495 1.403 . S
H493 C499 0.947 . S
C494 H480 0.930 . S
C494 C492 1.395 . S
C494 C497 1.403 . S
C495 C492 1.403 . S
C495 C496 1.524 . S
C495 C499 1.372 1_455 S
C496 H481 0.960 . S
C496 H482 0.960 . S
C496 H483 0.960 . S
C496 C495 1.524 . S
C497 C494 1.403 . S
C497 C498 1.392 1_455 S
C497 C501 1.495 1_455 S
C498 C497 1.392 1_655 S
C498 C499 1.397 . S
C498 C500 1.478 . S
C499 H493 0.947 . S
C499 C495 1.372 1_655 S
C499 C498 1.397 . S
C500 C498 1.478 . S
C500 C502 1.381 . S
C500 C506 1.383 . S
C501 C497 1.495 1_655 S
C501 H507 0.959 1_655 S
C501 H508 0.961 . S
C501 H509 0.960 . S
C502 C500 1.381 . S
C502 C503 1.394 . S
C502 H510 0.930 . S
C503 C502 1.394 . S
C503 C504 1.383 . S
C503 H511 0.929 . S
C504 C503 1.383 . S
C504 C505 1.377 . S
C505 H489 0.930 . S
C505 C504 1.377 . S
C505 C506 1.379 . S
C506 H490 0.931 . S
C506 C500 1.383 . S
C506 C505 1.379 . S
H507 C501 0.959 1_455 S
H508 C501 0.961 . S
H509 C501 0.960 . S
H510 C502 0.930 . S
H511 C503 0.929 . S
H512 C520 0.929 . S
H513 C522 0.930 . S
H514 C524 0.930 . S
H515 C527 0.929 . S
H516 C530 0.930 . S
H517 C532 0.960 . S
H518 C532 0.960 1_565 S
H519 C532 0.960 . S
C520 H512 0.929 . S
C520 C521 1.377 . S
C520 C522 1.384 . S
C521 C520 1.377 . S
C521 C527 1.390 1_465 S
C522 H513 0.930 . S
C522 C520 1.384 . S
C522 C523 1.372 . S
C523 C522 1.372 . S
C523 C524 1.400 1_465 S
C523 C528 1.490 . S
C524 H514 0.930 . S
C524 C523 1.400 1_645 S
C524 C527 1.386 . S
H525 C541 0.930 1_655 S
H526 C542 0.931 . S
C527 H515 0.929 . S
C527 C521 1.390 1_645 S
C527 C524 1.386 . S
C528 C523 1.490 . S
C528 C530 1.395 . S
C528 C531 1.403 1_465 S
H529 C535 0.930 . S
C530 H516 0.930 . S
C530 C528 1.395 . S
C530 C533 1.403 . S
C531 C528 1.403 1_645 S
C531 C532 1.524 . S
C531 C535 1.400 . S
C532 H517 0.960 . S
C532 H518 0.960 1_545 S
C532 H519 0.960 . S
C532 C531 1.524 . S
C533 C530 1.403 . S
C533 C534 1.392 1_565 S
C533 C537 1.495 . S
C534 C533 1.392 1_545 S
C534 C535 1.385 1_455 S
C534 C536 1.478 . S
C535 H529 0.930 . S
C535 C531 1.400 . S
C535 C534 1.385 1_655 S
C536 C534 1.478 . S
C536 C538 1.381 1_545 S
C536 C542 1.383 . S
C537 C533 1.495 . S
C537 H543 0.959 . S
C537 H544 0.961 1_565 S
C537 H545 0.960 . S
C538 C536 1.381 1_565 S
C538 C539 1.394 . S
C538 H546 0.930 . S
C539 C538 1.394 . S
C539 C540 1.383 1_565 S
C539 H547 0.929 . S
C540 C539 1.383 1_545 S
C540 C541 1.377 . S
C541 H525 0.930 1_455 S
C541 C540 1.377 . S
C541 C542 1.379 . S
C542 H526 0.931 . S
C542 C536 1.383 . S
C542 C541 1.379 . S
H543 C537 0.959 . S
H544 C537 0.961 1_545 S
H545 C537 0.960 . S
H546 C538 0.930 . S
H547 C539 0.929 . S
H548 C556 0.929 . S
H549 C558 0.930 . S
H550 C560 0.930 . S
H551 C563 0.929 . S
H552 C566 0.930 . S
H553 C568 0.960 . S
H554 C568 0.960 . S
H555 C568 0.960 . S
C556 H548 0.929 . S
C556 C557 1.377 . S
C556 C558 1.384 . S
C557 C556 1.377 . S
C557 C563 1.390 . S
C558 H549 0.930 . S
C558 C556 1.384 . S
C558 C559 1.372 . S
C559 C558 1.372 . S
C559 C560 1.400 . S
C559 C564 1.490 . S
C560 H550 0.930 . S
C560 C559 1.400 . S
C560 C563 1.386 . S
H561 C577 0.930 . S
H562 C578 0.931 . S
C563 H551 0.929 . S
C563 C557 1.390 . S
C563 C560 1.386 . S
C564 C559 1.490 . S
C564 C566 1.395 . S
C564 C567 1.403 . S
H565 C571 0.930 . S
C566 H552 0.930 . S
C566 C564 1.395 . S
C566 C569 1.403 . S
C567 C564 1.403 . S
C567 C568 1.524 . S
C567 C571 1.400 . S
C568 H553 0.960 . S
C568 H554 0.960 . S
C568 H555 0.960 . S
C568 C567 1.524 . S
C569 C566 1.403 . S
C569 C570 1.392 . S
C569 C573 1.495 . S
C570 C569 1.392 . S
C570 C571 1.385 . S
C570 C572 1.478 . S
C571 H565 0.930 . S
C571 C567 1.400 . S
C571 C570 1.385 . S
C572 C570 1.478 . S
C572 C574 1.381 . S
C572 C578 1.383 . S
C573 C569 1.495 . S
C573 H579 0.959 . S
C573 H580 0.961 . S
C573 H581 0.960 . S
C574 C572 1.381 . S
C574 C575 1.394 . S
C574 H582 0.930 . S
C575 C574 1.394 . S
C575 C576 1.383 . S
C575 H583 0.929 . S
C576 C575 1.383 . S
C576 C577 1.377 . S
C577 H561 0.930 . S
C577 C576 1.377 . S
C577 C578 1.379 . S
C578 H562 0.931 . S
C578 C572 1.383 . S
C578 C577 1.379 . S
H579 C573 0.959 . S
H580 C573 0.961 . S
H581 C573 0.960 . S
H582 C574 0.930 . S
H583 C575 0.929 . S
H584 C592 0.929 . S
H585 C594 0.930 . S
H586 C596 0.930 . S
H587 C599 0.929 . S
H588 C602 0.930 . S
H589 C604 0.960 . S
H590 C604 0.960 . S
H591 C604 0.960 . S
C592 H584 0.929 . S
C592 C593 1.377 1_545 S
C592 C594 1.384 . S
C593 C592 1.377 1_565 S
C593 C599 1.390 . S
C594 H585 0.930 . S
C594 C592 1.384 . S
C594 C595 1.372 1_545 S
C595 C594 1.372 1_565 S
C595 C596 1.400 . S
C595 C600 1.490 . S
C596 H586 0.930 . S
C596 C595 1.400 . S
C596 C599 1.386 . S
H597 C613 0.930 1_565 S
H598 C614 0.931 1_565 S
C599 H587 0.929 . S
C599 C593 1.390 . S
C599 C596 1.386 . S
C600 C595 1.490 . S
C600 C602 1.395 1_565 S
C600 C603 1.403 . S
H601 C607 0.930 . S
C602 H588 0.930 . S
C602 C600 1.395 1_545 S
C602 C605 1.403 1_554 S
C603 C600 1.403 . S
C603 C604 1.524 . S
C603 C607 1.400 1_554 S
C604 H589 0.960 . S
C604 H590 0.960 . S
C604 H591 0.960 . S
C604 C603 1.524 . S
C605 C602 1.403 1_556 S
C605 C606 1.392 . S
C605 C609 1.495 . S
C606 C605 1.392 . S
C606 C607 1.385 1_545 S
C606 C608 1.478 . S
C607 H601 0.930 . S
C607 C603 1.400 1_556 S
C607 C606 1.385 1_565 S
C608 C606 1.478 . S
C608 C610 1.381 . S
C608 C614 1.383 . S
C609 C605 1.495 . S
C609 H615 0.959 . S
C609 H616 0.961 . S
C609 H617 0.960 . S
C610 C608 1.381 . S
C610 C611 1.394 . S
C610 H618 0.930 . S
C611 C610 1.394 . S
C611 C612 1.383 . S
C611 H619 0.929 . S
C612 C611 1.383 . S
C612 C613 1.377 . S
C613 H597 0.930 1_545 S
C613 C612 1.377 . S
C613 C614 1.379 . S
C614 H598 0.931 1_545 S
C614 C608 1.383 . S
C614 C613 1.379 . S
H615 C609 0.959 . S
H616 C609 0.961 . S
H617 C609 0.960 . S
H618 C610 0.930 . S
H619 C611 0.929 . S
H620 C628 0.929 . S
H621 C630 0.930 . S
H622 C632 0.930 . S
H623 C635 0.929 . S
H624 C638 0.930 . S
H625 C640 0.960 . S
H626 C640 0.960 . S
H627 C640 0.960 . S
C628 H620 0.929 . S
C628 C629 1.377 . S
C628 C630 1.384 . S
C629 C628 1.377 . S
C629 C635 1.390 . S
C630 H621 0.930 . S
C630 C628 1.384 . S
C630 C631 1.372 . S
C631 C630 1.372 . S
C631 C632 1.400 . S
C631 C636 1.490 . S
C632 H622 0.930 . S
C632 C631 1.400 . S
C632 C635 1.386 . S
H633 C649 0.930 . S
H634 C650 0.931 . S
C635 H623 0.929 . S
C635 C629 1.390 . S
C635 C632 1.386 . S
C636 C631 1.490 . S
C636 C638 1.395 . S
C636 C639 1.403 . S
H637 C643 0.930 . S
C638 H624 0.930 . S
C638 C636 1.395 . S
C638 C641 1.403 . S
C639 C636 1.403 . S
C639 C640 1.524 . S
C639 C643 1.400 . S
C640 H625 0.960 . S
C640 H626 0.960 . S
C640 H627 0.960 . S
C640 C639 1.524 . S
C641 C638 1.403 . S
C641 C642 1.392 . S
C641 C645 1.495 . S
C642 C641 1.392 . S
C642 C643 1.385 . S
C642 C644 1.478 . S
C643 H637 0.930 . S
C643 C639 1.400 . S
C643 C642 1.385 . S
C644 C642 1.478 . S
C644 C646 1.381 . S
C644 C650 1.383 . S
C645 C641 1.495 . S
C645 H651 0.959 . S
C645 H652 0.961 . S
C645 H653 0.960 . S
C646 C644 1.381 . S
C646 C647 1.394 . S
C646 H654 0.930 . S
C647 C646 1.394 . S
C647 C648 1.383 . S
C647 H655 0.929 . S
C648 C647 1.383 . S
C648 C649 1.377 . S
C649 H633 0.930 . S
C649 C648 1.377 . S
C649 C650 1.379 . S
C650 H634 0.931 . S
C650 C644 1.383 . S
C650 C649 1.379 . S
H651 C645 0.959 . S
H652 C645 0.961 . S
H653 C645 0.960 . S
H654 C646 0.930 . S
H655 C647 0.929 . S
H656 C664 0.929 . S
H657 C666 0.930 . S
H658 C668 0.930 . S
H659 C671 0.929 . S
H660 C674 0.930 . S
H661 C676 0.960 . S
H662 C676 0.960 . S
H663 C676 0.960 . S
C664 H656 0.929 . S
C664 C665 1.377 . S
C664 C666 1.384 . S
C665 C664 1.377 . S
C665 C671 1.390 . S
C666 H657 0.930 . S
C666 C664 1.384 . S
C666 C667 1.372 . S
C667 C666 1.372 . S
C667 C668 1.400 . S
C667 C672 1.490 . S
C668 H658 0.930 . S
C668 C667 1.400 . S
C668 C671 1.386 . S
H669 C685 0.930 . S
H670 C686 0.931 . S
C671 H659 0.929 . S
C671 C665 1.390 . S
C671 C668 1.386 . S
C672 C667 1.490 . S
C672 C674 1.395 . S
C672 C675 1.403 . S
H673 C679 0.930 . S
C674 H660 0.930 . S
C674 C672 1.395 . S
C674 C677 1.403 . S
C675 C672 1.403 . S
C675 C676 1.524 . S
C675 C679 1.400 . S
C676 H661 0.960 . S
C676 H662 0.960 . S
C676 H663 0.960 . S
C676 C675 1.524 . S
C677 C674 1.403 . S
C677 C678 1.392 . S
C677 C681 1.495 . S
C678 C677 1.392 . S
C678 C679 1.385 . S
C678 C680 1.478 . S
C679 H673 0.930 . S
C679 C675 1.400 . S
C679 C678 1.385 . S
C680 C678 1.478 . S
C680 C682 1.381 . S
C680 C686 1.383 . S
C681 C677 1.495 . S
C681 H687 0.959 . S
C681 H688 0.961 . S
C681 H689 0.960 . S
C682 C680 1.381 . S
C682 C683 1.394 . S
C682 H690 0.930 . S
C683 C682 1.394 . S
C683 C684 1.383 . S
C683 H691 0.929 . S
C684 C683 1.383 . S
C684 C685 1.377 . S
C685 H669 0.930 . S
C685 C684 1.377 . S
C685 C686 1.379 . S
C686 H670 0.931 . S
C686 C680 1.383 . S
C686 C685 1.379 . S
H687 C681 0.959 . S
H688 C681 0.961 . S
H689 C681 0.960 . S
H690 C682 0.930 . S
H691 C683 0.929 . S
H692 C700 0.929 . S
H693 C702 0.930 . S
H694 C704 0.930 . S
H695 C707 0.929 . S
H696 C710 0.930 . S
H697 C712 0.960 . S
H698 C712 0.960 . S
H699 C712 0.960 . S
C700 H692 0.929 . S
C700 C701 1.377 . S
C700 C702 1.384 . S
C701 C700 1.377 . S
C701 C707 1.390 . S
C702 H693 0.930 . S
C702 C700 1.384 . S
C702 C703 1.372 . S
C703 C702 1.372 . S
C703 C704 1.400 . S
C703 C708 1.490 . S
C704 H694 0.930 . S
C704 C703 1.400 . S
C704 C707 1.386 . S
H705 C721 0.930 . S
H706 C722 0.931 . S
C707 H695 0.929 . S
C707 C701 1.390 . S
C707 C704 1.386 . S
C708 C703 1.490 . S
C708 C710 1.395 . S
C708 C711 1.403 . S
H709 C715 0.930 . S
C710 H696 0.930 . S
C710 C708 1.395 . S
C710 C713 1.403 . S
C711 C708 1.403 . S
C711 C712 1.524 . S
C711 C715 1.400 . S
C712 H697 0.960 . S
C712 H698 0.960 . S
C712 H699 0.960 . S
C712 C711 1.524 . S
C713 C710 1.403 . S
C713 C714 1.392 . S
C713 C717 1.495 . S
C714 C713 1.392 . S
C714 C715 1.385 . S
C714 C716 1.478 . S
C715 H709 0.930 . S
C715 C711 1.400 . S
C715 C714 1.385 . S
C716 C714 1.478 . S
C716 C718 1.381 . S
C716 C722 1.383 . S
C717 C713 1.495 . S
C717 H723 0.959 . S
C717 H724 0.961 . S
C717 H725 0.960 . S
C718 C716 1.381 . S
C718 C719 1.394 . S
C718 H726 0.930 . S
C719 C718 1.394 . S
C719 C720 1.383 . S
C719 H727 0.929 . S
C720 C719 1.383 . S
C720 C721 1.377 . S
C721 H705 0.930 . S
C721 C720 1.377 . S
C721 C722 1.379 . S
C722 H706 0.931 . S
C722 C716 1.383 . S
C722 C721 1.379 . S
H723 C717 0.959 . S
H724 C717 0.961 . S
H725 C717 0.960 . S
H726 C718 0.930 . S
H727 C719 0.929 . S
H728 C736 0.929 . S
H729 C738 0.930 . S
H730 C740 0.930 . S
H731 C743 0.929 . S
H732 C746 0.930 . S
H733 C748 0.960 . S
H734 C748 0.960 . S
H735 C748 0.960 . S
C736 H728 0.929 . S
C736 C737 1.377 . S
C736 C738 1.384 . S
C737 C736 1.377 . S
C737 C743 1.390 . S
C738 H729 0.930 . S
C738 C736 1.384 . S
C738 C739 1.372 . S
C739 C738 1.372 . S
C739 C740 1.400 . S
C739 C744 1.490 . S
C740 H730 0.930 . S
C740 C739 1.400 . S
C740 C743 1.386 . S
H741 C757 0.930 . S
H742 C758 0.931 . S
C743 H731 0.929 . S
C743 C737 1.390 . S
C743 C740 1.386 . S
C744 C739 1.490 . S
C744 C746 1.395 . S
C744 C747 1.403 . S
H745 C751 0.930 . S
C746 H732 0.930 . S
C746 C744 1.395 . S
C746 C749 1.403 1_556 S
C747 C744 1.403 . S
C747 C748 1.524 . S
C747 C751 1.400 1_556 S
C748 H733 0.960 . S
C748 H734 0.960 . S
C748 H735 0.960 . S
C748 C747 1.524 . S
C749 C746 1.403 1_554 S
C749 C750 1.392 . S
C749 C753 1.495 . S
C750 C749 1.392 . S
C750 C751 1.385 . S
C750 C752 1.478 . S
C751 H745 0.930 . S
C751 C747 1.400 1_554 S
C751 C750 1.385 . S
C752 C750 1.478 . S
C752 C754 1.381 . S
C752 C758 1.383 . S
C753 C749 1.495 . S
C753 H759 0.959 . S
C753 H760 0.961 . S
C753 H761 0.960 . S
C754 C752 1.381 . S
C754 C755 1.394 . S
C754 H762 0.930 . S
C755 C754 1.394 . S
C755 C756 1.383 . S
C755 H763 0.929 . S
C756 C755 1.383 . S
C756 C757 1.377 . S
C757 H741 0.930 . S
C757 C756 1.377 . S
C757 C758 1.379 . S
C758 H742 0.931 . S
C758 C752 1.383 . S
C758 C757 1.379 . S
H759 C753 0.959 . S
H760 C753 0.961 . S
H761 C753 0.960 . S
H762 C754 0.930 . S
H763 C755 0.929 . S
H764 C772 0.929 1_655 S
H765 C774 0.930 1_655 S
H766 C776 0.930 . S
H767 C779 0.929 . S
H768 C782 0.930 . S
H769 C784 0.960 . S
H770 C784 0.960 . S
H771 C784 0.960 . S
C772 H764 0.929 1_455 S
C772 C773 1.377 . S
C772 C774 1.384 . S
C773 C772 1.377 . S
C773 C779 1.390 . S
C774 H765 0.930 1_455 S
C774 C772 1.384 . S
C774 C775 1.372 . S
C775 C774 1.372 . S
C775 C776 1.400 . S
C775 C780 1.490 . S
C776 H766 0.930 . S
C776 C775 1.400 . S
C776 C779 1.386 . S
H777 C793 0.930 . S
H778 C794 0.931 . S
C779 H767 0.929 . S
C779 C773 1.390 . S
C779 C776 1.386 . S
C780 C775 1.490 . S
C780 C782 1.395 . S
C780 C783 1.403 . S
H781 C787 0.930 . S
C782 H768 0.930 . S
C782 C780 1.395 . S
C782 C785 1.403 . S
C783 C780 1.403 . S
C783 C784 1.524 . S
C783 C787 1.400 . S
C784 H769 0.960 . S
C784 H770 0.960 . S
C784 H771 0.960 . S
C784 C783 1.524 . S
C785 C782 1.403 . S
C785 C786 1.392 . S
C785 C789 1.495 1_455 S
C786 C785 1.392 . S
C786 C787 1.385 . S
C786 C788 1.478 . S
C787 H781 0.930 . S
C787 C783 1.400 . S
C787 C786 1.385 . S
C788 C786 1.478 . S
C788 C790 1.403 . S
C788 C794 1.383 . S
C789 C785 1.495 1_655 S
C789 H795 0.959 . S
C789 H796 0.961 1_655 S
C789 H797 0.960 . S
C790 C788 1.403 . S
C790 C791 1.395 . S
C790 H798 0.907 1_455 S
C791 C790 1.395 . S
C791 C792 1.383 . S
C791 H799 0.929 1_455 S
C792 C791 1.383 . S
C792 C793 1.377 . S
C793 H777 0.930 . S
C793 C792 1.377 . S
C793 C794 1.379 . S
C794 H778 0.931 . S
C794 C788 1.383 . S
C794 C793 1.379 . S
H795 C789 0.959 . S
H796 C789 0.961 1_455 S
H797 C789 0.960 . S
H798 C790 0.907 1_655 S
H799 C791 0.929 1_655 S
H800 C808 0.929 . S
H801 C810 0.930 . S
H802 C812 0.930 . S
H803 C815 0.929 . S
H804 C818 0.930 . S
H805 C820 0.960 . S
H806 C820 0.960 . S
H807 C820 0.960 . S
C808 H800 0.929 . S
C808 C809 1.377 . S
C808 C810 1.384 . S
C809 C808 1.377 . S
C809 C815 1.390 . S
C810 H801 0.930 . S
C810 C808 1.384 . S
C810 C811 1.372 . S
C811 C810 1.372 . S
C811 C812 1.400 . S
C811 C816 1.490 . S
C812 H802 0.930 . S
C812 C811 1.400 . S
C812 C815 1.386 . S
H813 C829 0.930 . S
H814 C830 0.931 . S
C815 H803 0.929 . S
C815 C809 1.390 . S
C815 C812 1.386 . S
C816 C811 1.490 . S
C816 C818 1.395 . S
C816 C819 1.403 . S
H817 C823 0.930 . S
C818 H804 0.930 . S
C818 C816 1.395 . S
C818 C821 1.403 . S
C819 C816 1.403 . S
C819 C820 1.524 . S
C819 C823 1.400 . S
C820 H805 0.960 . S
C820 H806 0.960 . S
C820 H807 0.960 . S
C820 C819 1.524 . S
C821 C818 1.403 . S
C821 C822 1.392 . S
C821 C825 1.495 . S
C822 C821 1.392 . S
C822 C823 1.385 . S
C822 C824 1.478 . S
C823 H817 0.930 . S
C823 C819 1.400 . S
C823 C822 1.385 . S
C824 C822 1.478 . S
C824 C826 1.381 . S
C824 C830 1.383 . S
C825 C821 1.495 . S
C825 H831 0.959 . S
C825 H832 0.961 . S
C825 H833 0.960 . S
C826 C824 1.381 . S
C826 C827 1.394 . S
C826 H834 0.930 . S
C827 C826 1.394 . S
C827 C828 1.383 . S
C827 H835 0.929 . S
C828 C827 1.383 . S
C828 C829 1.377 . S
C829 H813 0.930 . S
C829 C828 1.377 . S
C829 C830 1.379 . S
C830 H814 0.931 . S
C830 C824 1.383 . S
C830 C829 1.379 . S
H831 C825 0.959 . S
H832 C825 0.961 . S
H833 C825 0.960 . S
H834 C826 0.930 . S
H835 C827 0.929 . S
H836 C844 0.929 . S
H837 C846 0.930 . S
H838 C848 0.930 . S
H839 C851 0.929 . S
H840 C854 0.930 . S
H841 C856 0.960 . S
H842 C856 0.960 . S
H843 C856 0.960 . S
C844 H836 0.929 . S
C844 C845 1.377 . S
C844 C846 1.384 . S
C845 C844 1.377 . S
C845 C851 1.390 . S
C846 H837 0.930 . S
C846 C844 1.384 . S
C846 C847 1.372 . S
C847 C846 1.372 . S
C847 C848 1.400 . S
C847 C852 1.490 . S
C848 H838 0.930 . S
C848 C847 1.400 . S
C848 C851 1.386 . S
H849 C865 0.930 . S
H850 C866 0.931 . S
C851 H839 0.929 . S
C851 C845 1.390 . S
C851 C848 1.386 . S
C852 C847 1.490 . S
C852 C854 1.395 . S
C852 C855 1.403 . S
H853 C859 0.930 . S
C854 H840 0.930 . S
C854 C852 1.395 . S
C854 C857 1.403 . S
C855 C852 1.403 . S
C855 C856 1.524 . S
C855 C859 1.400 . S
C856 H841 0.960 . S
C856 H842 0.960 . S
C856 H843 0.960 . S
C856 C855 1.524 . S
C857 C854 1.403 . S
C857 C858 1.392 . S
C857 C861 1.495 . S
C858 C857 1.392 . S
C858 C859 1.385 . S
C858 C860 1.478 . S
C859 H853 0.930 . S
C859 C855 1.400 . S
C859 C858 1.385 . S
C860 C858 1.478 . S
C860 C862 1.381 . S
C860 C866 1.383 . S
C861 C857 1.495 . S
C861 H867 0.959 . S
C861 H868 0.961 . S
C861 H869 0.960 . S
C862 C860 1.381 . S
C862 C863 1.394 . S
C862 H870 0.930 . S
C863 C862 1.394 . S
C863 C864 1.383 . S
C863 H871 0.929 . S
C864 C863 1.383 . S
C864 C865 1.377 . S
C865 H849 0.930 . S
C865 C864 1.377 . S
C865 C866 1.379 . S
C866 H850 0.931 . S
C866 C860 1.383 . S
C866 C865 1.379 . S
H867 C861 0.959 . S
H868 C861 0.961 . S
H869 C861 0.960 . S
H870 C862 0.930 . S
H871 C863 0.929 . S
H872 C880 0.929 . S
H873 C882 0.930 . S
H874 C884 0.930 . S
H875 C887 0.929 . S
H876 C890 0.930 . S
H877 C892 0.960 . S
H878 C892 0.960 . S
H879 C892 0.960 . S
C880 H872 0.929 . S
C880 C881 1.377 . S
C880 C882 1.384 . S
C881 C880 1.377 . S
C881 C887 1.390 . S
C882 H873 0.930 . S
C882 C880 1.384 . S
C882 C883 1.372 . S
C883 C882 1.372 . S
C883 C884 1.400 . S
C883 C888 1.490 . S
C884 H874 0.930 . S
C884 C883 1.400 . S
C884 C887 1.386 . S
H885 C901 0.930 . S
H886 C902 0.931 . S
C887 H875 0.929 . S
C887 C881 1.390 . S
C887 C884 1.386 . S
C888 C883 1.490 . S
C888 C890 1.395 . S
C888 C891 1.403 . S
H889 C895 0.930 . S
C890 H876 0.930 . S
C890 C888 1.395 . S
C890 C893 1.403 . S
C891 C888 1.403 . S
C891 C892 1.524 . S
C891 C895 1.400 . S
C892 H877 0.960 . S
C892 H878 0.960 . S
C892 H879 0.960 . S
C892 C891 1.524 . S
C893 C890 1.403 . S
C893 C894 1.392 . S
C893 C897 1.495 . S
C894 C893 1.392 . S
C894 C895 1.385 . S
C894 C896 1.478 . S
C895 H889 0.930 . S
C895 C891 1.400 . S
C895 C894 1.385 . S
C896 C894 1.478 . S
C896 C898 1.381 . S
C896 C902 1.383 . S
C897 C893 1.495 . S
C897 H903 0.959 . S
C897 H904 0.961 . S
C897 H905 0.960 . S
C898 C896 1.381 . S
C898 C899 1.394 . S
C898 H906 0.930 . S
C899 C898 1.394 . S
C899 C900 1.383 . S
C899 H907 0.929 . S
C900 C899 1.383 . S
C900 C901 1.377 . S
C901 H885 0.930 . S
C901 C900 1.377 . S
C901 C902 1.379 . S
C902 H886 0.931 . S
C902 C896 1.383 . S
C902 C901 1.379 . S
H903 C897 0.959 . S
H904 C897 0.961 . S
H905 C897 0.960 . S
H906 C898 0.930 . S
H907 C899 0.929 . S
H908 C916 0.929 . S
H909 C918 0.930 . S
H910 C920 0.930 . S
H911 C923 0.929 . S
H912 C926 0.930 . S
H913 C928 0.960 . S
H914 C928 0.960 . S
H915 C928 0.960 . S
C916 H908 0.929 . S
C916 C917 1.377 . S
C916 C918 1.384 . S
C917 C916 1.377 . S
C917 C923 1.390 . S
C918 H909 0.930 . S
C918 C916 1.384 . S
C918 C919 1.372 . S
C919 C918 1.372 . S
C919 C920 1.400 . S
C919 C924 1.490 . S
C920 H910 0.930 . S
C920 C919 1.400 . S
C920 C923 1.386 . S
H921 C937 0.930 . S
H922 C938 0.931 . S
C923 H911 0.929 . S
C923 C917 1.390 . S
C923 C920 1.386 . S
C924 C919 1.490 . S
C924 C926 1.395 . S
C924 C927 1.403 . S
H925 C931 0.930 . S
C926 H912 0.930 . S
C926 C924 1.395 . S
C926 C929 1.403 . S
C927 C924 1.403 . S
C927 C928 1.524 . S
C927 C931 1.400 . S
C928 H913 0.960 . S
C928 H914 0.960 . S
C928 H915 0.960 . S
C928 C927 1.524 . S
C929 C926 1.403 . S
C929 C930 1.392 . S
C929 C933 1.495 . S
C930 C929 1.392 . S
C930 C931 1.385 . S
C930 C932 1.478 . S
C931 H925 0.930 . S
C931 C927 1.400 . S
C931 C930 1.385 . S
C932 C930 1.478 . S
C932 C934 1.381 . S
C932 C938 1.383 . S
C933 C929 1.495 . S
C933 H939 0.959 . S
C933 H940 0.961 . S
C933 H941 0.960 . S
C934 C932 1.381 . S
C934 C935 1.394 . S
C934 H942 0.930 . S
C935 C934 1.394 . S
C935 C936 1.383 . S
C935 H943 0.929 . S
C936 C935 1.383 . S
C936 C937 1.377 . S
C937 H921 0.930 . S
C937 C936 1.377 . S
C937 C938 1.379 . S
C938 H922 0.931 . S
C938 C932 1.383 . S
C938 C937 1.379 . S
H939 C933 0.959 . S
H940 C933 0.961 . S
H941 C933 0.960 . S
H942 C934 0.930 . S
H943 C935 0.929 . S
H944 C952 0.929 . S
H945 C954 0.930 . S
H946 C956 0.930 . S
H947 C959 0.929 . S
H948 C962 0.930 . S
H949 C964 0.960 . S
H950 C964 0.960 . S
H951 C964 0.960 . S
C952 H944 0.929 . S
C952 C953 1.377 . S
C952 C954 1.384 . S
C953 C952 1.377 . S
C953 C959 1.390 . S
C954 H945 0.930 . S
C954 C952 1.384 . S
C954 C955 1.372 . S
C955 C954 1.372 . S
C955 C956 1.400 . S
C955 C960 1.490 . S
C956 H946 0.930 . S
C956 C955 1.400 . S
C956 C959 1.386 . S
H957 C973 0.930 . S
H958 C974 0.931 . S
C959 H947 0.929 . S
C959 C953 1.390 . S
C959 C956 1.386 . S
C960 C955 1.490 . S
C960 C962 1.395 . S
C960 C963 1.403 . S
H961 C967 0.930 . S
C962 H948 0.930 . S
C962 C960 1.395 . S
C962 C965 1.403 . S
C963 C960 1.403 . S
C963 C964 1.524 . S
C963 C967 1.400 . S
C964 H949 0.960 . S
C964 H950 0.960 . S
C964 H951 0.960 . S
C964 C963 1.524 . S
C965 C962 1.403 . S
C965 C966 1.392 . S
C965 C969 1.495 . S
C966 C965 1.392 . S
C966 C967 1.385 . S
C966 C968 1.478 . S
C967 H961 0.930 . S
C967 C963 1.400 . S
C967 C966 1.385 . S
C968 C966 1.478 . S
C968 C970 1.381 . S
C968 C974 1.383 . S
C969 C965 1.495 . S
C969 H975 0.959 . S
C969 H976 0.961 . S
C969 H977 0.960 . S
C970 C968 1.381 . S
C970 C971 1.394 . S
C970 H978 0.930 . S
C971 C970 1.394 . S
C971 C972 1.383 . S
C971 H979 0.929 . S
C972 C971 1.383 . S
C972 C973 1.377 . S
C973 H957 0.930 . S
C973 C972 1.377 . S
C973 C974 1.379 . S
C974 H958 0.931 . S
C974 C968 1.383 . S
C974 C973 1.379 . S
H975 C969 0.959 . S
H976 C969 0.961 . S
H977 C969 0.960 . S
H978 C970 0.930 . S
H979 C971 0.929 . S
H980 C988 0.917 1_565 S
H981 C990 0.930 . S
H982 C992 0.930 . S
H983 C995 0.929 . S
H984 C998 0.930 . S
H985 C1000 0.960 . S
H986 C1000 0.960 . S
H987 C1000 0.960 . S
C988 H980 0.917 1_545 S
C988 C989 1.377 . S
C988 C990 1.384 . S
C989 C988 1.377 . S
C989 C995 1.390 . S
C990 H981 0.930 . S
C990 C988 1.384 . S
C990 C991 1.372 . S
C991 C990 1.372 . S
C991 C992 1.400 . S
C991 C996 1.490 . S
C992 H982 0.930 . S
C992 C991 1.400 . S
C992 C995 1.386 . S
H993 C1009 0.930 . S
H994 C1010 0.931 . S
C995 H983 0.929 . S
C995 C989 1.390 . S
C995 C992 1.386 . S
C996 C991 1.490 . S
C996 C998 1.395 . S
C996 C999 1.403 . S
H997 C1003 0.930 . S
C998 H984 0.930 . S
C998 C996 1.395 . S
C998 C1001 1.403 . S
C999 C996 1.403 . S
C999 C1000 1.524 . S
C999 C1003 1.400 . S
C1000 H985 0.960 . S
C1000 H986 0.960 . S
C1000 H987 0.960 . S
C1000 C999 1.524 . S
C1001 C998 1.403 . S
C1001 C1002 1.392 . S
C1001 C1005 1.495 . S
C1002 C1001 1.392 . S
C1002 C1003 1.385 . S
C1002 C1004 1.478 . S
C1003 H997 0.930 . S
C1003 C999 1.400 . S
C1003 C1002 1.385 . S
C1004 C1002 1.478 . S
C1004 C1006 1.381 . S
C1004 C1010 1.383 . S
C1005 C1001 1.495 . S
C1005 H1011 0.959 . S
C1005 H1012 0.961 . S
C1005 H1013 0.960 . S
C1006 C1004 1.381 . S
C1006 C1007 1.394 . S
C1006 H1014 0.930 . S
C1007 C1006 1.394 . S
C1007 C1008 1.383 . S
C1007 H1015 0.929 . S
C1008 C1007 1.383 . S
C1008 C1009 1.377 . S
C1009 H993 0.930 . S
C1009 C1008 1.377 . S
C1009 C1010 1.379 . S
C1010 H994 0.931 . S
C1010 C1004 1.383 . S
C1010 C1009 1.379 . S
H1011 C1005 0.959 . S
H1012 C1005 0.961 . S
H1013 C1005 0.960 . S
H1014 C1006 0.930 . S
H1015 C1007 0.929 . S
H1016 C1024 0.929 . S
H1017 C1026 0.930 . S
H1018 C1028 0.930 . S
H1019 C1031 0.929 . S
H1020 C1034 0.930 . S
H1021 C1036 0.960 . S
H1022 C1036 0.960 . S
H1023 C1036 0.960 . S
C1024 H1016 0.929 . S
C1024 C1025 1.377 . S
C1024 C1026 1.384 . S
C1025 C1024 1.377 . S
C1025 C1031 1.390 . S
C1026 H1017 0.930 . S
C1026 C1024 1.384 . S
C1026 C1027 1.372 . S
C1027 C1026 1.372 . S
C1027 C1028 1.400 . S
C1027 C1032 1.490 . S
C1028 H1018 0.930 . S
C1028 C1027 1.400 . S
C1028 C1031 1.386 . S
H1029 C1045 0.930 . S
H1030 C1046 0.931 . S
C1031 H1019 0.929 . S
C1031 C1025 1.390 . S
C1031 C1028 1.386 . S
C1032 C1027 1.490 . S
C1032 C1034 1.395 . S
C1032 C1035 1.403 . S
H1033 C1039 0.930 . S
C1034 H1020 0.930 . S
C1034 C1032 1.395 . S
C1034 C1037 1.403 . S
C1035 C1032 1.403 . S
C1035 C1036 1.524 . S
C1035 C1039 1.400 . S
C1036 H1021 0.960 . S
C1036 H1022 0.960 . S
C1036 H1023 0.960 . S
C1036 C1035 1.524 . S
C1037 C1034 1.403 . S
C1037 C1038 1.392 . S
C1037 C1041 1.495 . S
C1038 C1037 1.392 . S
C1038 C1039 1.385 . S
C1038 C1040 1.478 . S
C1039 H1033 0.930 . S
C1039 C1035 1.400 . S
C1039 C1038 1.385 . S
C1040 C1038 1.478 . S
C1040 C1042 1.381 . S
C1040 C1046 1.383 . S
C1041 C1037 1.495 . S
C1041 H1047 0.959 . S
C1041 H1048 0.961 . S
C1041 H1049 0.960 . S
C1042 C1040 1.381 . S
C1042 C1043 1.394 . S
C1042 H1050 0.930 . S
C1043 C1042 1.394 . S
C1043 C1044 1.383 . S
C1043 H1051 0.929 . S
C1044 C1043 1.383 . S
C1044 C1045 1.377 . S
C1045 H1029 0.930 . S
C1045 C1044 1.377 . S
C1045 C1046 1.379 . S
C1046 H1030 0.931 . S
C1046 C1040 1.383 . S
C1046 C1045 1.379 . S
H1047 C1041 0.959 . S
H1048 C1041 0.961 . S
H1049 C1041 0.960 . S
H1050 C1042 0.930 . S
H1051 C1043 0.929 . S
H1052 C1060 0.929 . S
H1053 C1062 0.930 . S
H1054 C1064 0.930 . S
H1055 C1067 0.929 . S
H1056 C1070 0.930 . S
H1057 C1072 0.960 . S
H1058 C1072 0.960 . S
H1059 C1072 0.960 . S
C1060 H1052 0.929 . S
C1060 C1061 1.377 . S
C1060 C1062 1.384 . S
C1061 C1060 1.377 . S
C1061 C1067 1.390 . S
C1062 H1053 0.930 . S
C1062 C1060 1.384 . S
C1062 C1063 1.372 . S
C1063 C1062 1.372 . S
C1063 C1064 1.400 . S
C1063 C1068 1.490 . S
C1064 H1054 0.930 . S
C1064 C1063 1.400 . S
C1064 C1067 1.386 . S
H1065 C1081 0.930 . S
H1066 C1082 0.931 . S
C1067 H1055 0.929 . S
C1067 C1061 1.390 . S
C1067 C1064 1.386 . S
C1068 C1063 1.490 . S
C1068 C1070 1.395 . S
C1068 C1071 1.403 . S
H1069 C1075 0.930 . S
C1070 H1056 0.930 . S
C1070 C1068 1.395 . S
C1070 C1073 1.403 . S
C1071 C1068 1.403 . S
C1071 C1072 1.524 . S
C1071 C1075 1.400 . S
C1072 H1057 0.960 . S
C1072 H1058 0.960 . S
C1072 H1059 0.960 . S
C1072 C1071 1.524 . S
C1073 C1070 1.403 . S
C1073 C1074 1.392 . S
C1073 C1077 1.495 . S
C1074 C1073 1.392 . S
C1074 C1075 1.385 . S
C1074 C1076 1.478 . S
C1075 H1069 0.930 . S
C1075 C1071 1.400 . S
C1075 C1074 1.385 . S
C1076 C1074 1.478 . S
C1076 C1078 1.381 . S
C1076 C1082 1.383 . S
C1077 C1073 1.495 . S
C1077 H1083 0.959 . S
C1077 H1084 0.961 . S
C1077 H1085 0.960 . S
C1078 C1076 1.381 . S
C1078 C1079 1.394 . S
C1078 H1086 0.930 . S
C1079 C1078 1.394 . S
C1079 C1080 1.383 . S
C1079 H1087 0.929 1_565 S
C1080 C1079 1.383 . S
C1080 C1081 1.377 . S
C1081 H1065 0.930 . S
C1081 C1080 1.377 . S
C1081 C1082 1.379 . S
C1082 H1066 0.931 . S
C1082 C1076 1.383 . S
C1082 C1081 1.379 . S
H1083 C1077 0.959 . S
H1084 C1077 0.961 . S
H1085 C1077 0.960 . S
H1086 C1078 0.930 . S
H1087 C1079 0.929 1_545 S
H1088 C1096 0.929 . S
H1089 C1098 0.930 . S
H1090 C1100 0.930 . S
H1091 C1103 0.929 . S
H1092 C1106 0.930 . S
H1093 C1108 0.960 . S
H1094 C1108 0.960 . S
H1095 C1108 0.960 . S
C1096 H1088 0.929 . S
C1096 C1097 1.377 . S
C1096 C1098 1.384 . S
C1097 C1096 1.377 . S
C1097 C1103 1.390 . S
C1098 H1089 0.930 . S
C1098 C1096 1.384 . S
C1098 C1099 1.372 . S
C1099 C1098 1.372 . S
C1099 C1100 1.400 . S
C1099 C1104 1.490 . S
C1100 H1090 0.930 . S
C1100 C1099 1.400 . S
C1100 C1103 1.386 . S
H1101 C1117 0.930 . S
H1102 C1118 0.931 . S
C1103 H1091 0.929 . S
C1103 C1097 1.390 . S
C1103 C1100 1.386 . S
C1104 C1099 1.490 . S
C1104 C1106 1.395 . S
C1104 C1107 1.403 . S
H1105 C1111 0.930 . S
C1106 H1092 0.930 . S
C1106 C1104 1.395 . S
C1106 C1109 1.403 . S
C1107 C1104 1.403 . S
C1107 C1108 1.524 . S
C1107 C1111 1.400 . S
C1108 H1093 0.960 . S
C1108 H1094 0.960 . S
C1108 H1095 0.960 . S
C1108 C1107 1.524 . S
C1109 C1106 1.403 . S
C1109 C1110 1.392 . S
C1109 C1113 1.495 . S
C1110 C1109 1.392 . S
C1110 C1111 1.385 . S
C1110 C1112 1.478 . S
C1111 H1105 0.930 . S
C1111 C1107 1.400 . S
C1111 C1110 1.385 . S
C1112 C1110 1.478 . S
C1112 C1114 1.381 . S
C1112 C1118 1.383 . S
C1113 C1109 1.495 . S
C1113 H1119 0.959 . S
C1113 H1120 0.961 . S
C1113 H1121 0.960 . S
C1114 C1112 1.381 . S
C1114 C1115 1.394 . S
C1114 H1122 0.930 . S
C1115 C1114 1.394 . S
C1115 C1116 1.383 . S
C1115 H1123 0.929 . S
C1116 C1115 1.383 . S
C1116 C1117 1.377 . S
C1117 H1101 0.930 . S
C1117 C1116 1.377 . S
C1117 C1118 1.379 . S
C1118 H1102 0.931 . S
C1118 C1112 1.383 . S
C1118 C1117 1.379 . S
H1119 C1113 0.959 . S
H1120 C1113 0.961 . S
H1121 C1113 0.960 . S
H1122 C1114 0.930 . S
H1123 C1115 0.929 . S
H1124 C1132 0.929 . S
H1125 C1134 0.930 . S
H1126 C1136 0.930 . S
H1127 C1139 0.929 . S
H1128 C1142 0.930 . S
H1129 C1144 0.960 . S
H1130 C1144 0.960 . S
H1131 C1144 0.960 . S
C1132 H1124 0.929 . S
C1132 C1133 1.377 . S
C1132 C1134 1.384 . S
C1133 C1132 1.377 . S
C1133 C1139 1.390 . S
C1134 H1125 0.930 . S
C1134 C1132 1.384 . S
C1134 C1135 1.372 . S
C1135 C1134 1.372 . S
C1135 C1136 1.400 . S
C1135 C1140 1.490 . S
C1136 H1126 0.930 . S
C1136 C1135 1.400 . S
C1136 C1139 1.386 . S
H1137 C1153 0.930 . S
H1138 C1154 0.931 . S
C1139 H1127 0.929 . S
C1139 C1133 1.390 . S
C1139 C1136 1.386 . S
C1140 C1135 1.490 . S
C1140 C1142 1.395 . S
C1140 C1143 1.403 . S
H1141 C1147 0.930 . S
C1142 H1128 0.930 . S
C1142 C1140 1.395 . S
C1142 C1145 1.403 . S
C1143 C1140 1.403 . S
C1143 C1144 1.524 . S
C1143 C1147 1.400 . S
C1144 H1129 0.960 . S
C1144 H1130 0.960 . S
C1144 H1131 0.960 . S
C1144 C1143 1.524 . S
C1145 C1142 1.403 . S
C1145 C1146 1.392 . S
C1145 C1149 1.495 . S
C1146 C1145 1.392 . S
C1146 C1147 1.385 . S
C1146 C1148 1.478 . S
C1147 H1141 0.930 . S
C1147 C1143 1.400 . S
C1147 C1146 1.385 . S
C1148 C1146 1.478 . S
C1148 C1150 1.381 . S
C1148 C1154 1.383 . S
C1149 C1145 1.495 . S
C1149 H1155 0.959 . S
C1149 H1156 0.961 . S
C1149 H1157 0.960 . S
C1150 C1148 1.381 . S
C1150 C1151 1.394 . S
C1150 H1158 0.930 . S
C1151 C1150 1.394 . S
C1151 C1152 1.383 . S
C1151 H1159 0.929 . S
C1152 C1151 1.383 . S
C1152 C1153 1.377 . S
C1153 H1137 0.930 . S
C1153 C1152 1.377 . S
C1153 C1154 1.379 . S
C1154 H1138 0.931 . S
C1154 C1148 1.383 . S
C1154 C1153 1.379 . S
H1155 C1149 0.959 . S
H1156 C1149 0.961 . S
H1157 C1149 0.960 . S
H1158 C1150 0.930 . S
H1159 C1151 0.929 . S
H1160 C1168 0.929 . S
H1161 C1170 0.930 . S
H1162 C1172 0.930 . S
H1163 C1175 0.929 . S
H1164 C1178 0.930 . S
H1165 C1180 0.960 . S
H1166 C1180 0.960 . S
H1167 C1180 0.960 . S
C1168 H1160 0.929 . S
C1168 C1169 1.377 . S
C1168 C1170 1.384 . S
C1169 C1168 1.377 . S
C1169 C1175 1.390 . S
C1170 H1161 0.930 . S
C1170 C1168 1.384 . S
C1170 C1171 1.372 . S
C1171 C1170 1.372 . S
C1171 C1172 1.400 . S
C1171 C1176 1.490 . S
C1172 H1162 0.930 . S
C1172 C1171 1.400 . S
C1172 C1175 1.386 . S
H1173 C1189 0.930 . S
H1174 C1190 0.931 . S
C1175 H1163 0.929 . S
C1175 C1169 1.390 . S
C1175 C1172 1.386 . S
C1176 C1171 1.490 . S
C1176 C1178 1.395 . S
C1176 C1179 1.403 . S
H1177 C1183 0.930 . S
C1178 H1164 0.930 . S
C1178 C1176 1.395 . S
C1178 C1181 1.403 . S
C1179 C1176 1.403 . S
C1179 C1180 1.524 . S
C1179 C1183 1.400 . S
C1180 H1165 0.960 . S
C1180 H1166 0.960 . S
C1180 H1167 0.960 . S
C1180 C1179 1.524 . S
C1181 C1178 1.403 . S
C1181 C1182 1.392 . S
C1181 C1185 1.495 . S
C1182 C1181 1.392 . S
C1182 C1183 1.385 . S
C1182 C1184 1.478 . S
C1183 H1177 0.930 . S
C1183 C1179 1.400 . S
C1183 C1182 1.385 . S
C1184 C1182 1.478 . S
C1184 C1186 1.381 . S
C1184 C1190 1.383 . S
C1185 C1181 1.495 . S
C1185 H1191 0.959 . S
C1185 H1192 0.961 . S
C1185 H1193 0.960 . S
C1186 C1184 1.381 . S
C1186 C1187 1.394 . S
C1186 H1194 0.930 . S
C1187 C1186 1.394 . S
C1187 C1188 1.383 . S
C1187 H1195 0.929 . S
C1188 C1187 1.383 . S
C1188 C1189 1.377 . S
C1189 H1173 0.930 . S
C1189 C1188 1.377 . S
C1189 C1190 1.379 . S
C1190 H1174 0.931 . S
C1190 C1184 1.383 . S
C1190 C1189 1.379 . S
H1191 C1185 0.959 . S
H1192 C1185 0.961 . S
H1193 C1185 0.960 . S
H1194 C1186 0.930 . S
H1195 C1187 0.929 . S
H1196 C1204 0.929 . S
H1197 C1206 0.930 . S
H1198 C1208 0.930 . S
H1199 C1211 0.929 . S
H1200 C1214 0.930 . S
H1201 C1216 0.960 . S
H1202 C1216 0.960 . S
H1203 C1216 0.960 . S
C1204 H1196 0.929 . S
C1204 C1205 1.377 . S
C1204 C1206 1.384 . S
C1205 C1204 1.377 . S
C1205 C1211 1.390 . S
C1206 H1197 0.930 . S
C1206 C1204 1.384 . S
C1206 C1207 1.372 . S
C1207 C1206 1.372 . S
C1207 C1208 1.400 . S
C1207 C1212 1.490 . S
C1208 H1198 0.930 . S
C1208 C1207 1.400 . S
C1208 C1211 1.386 . S
H1209 C1225 0.930 . S
H1210 C1226 0.931 . S
C1211 H1199 0.929 . S
C1211 C1205 1.390 . S
C1211 C1208 1.386 . S
C1212 C1207 1.490 . S
C1212 C1214 1.395 . S
C1212 C1215 1.403 . S
H1213 C1219 0.930 . S
C1214 H1200 0.930 . S
C1214 C1212 1.395 . S
C1214 C1217 1.403 . S
C1215 C1212 1.403 . S
C1215 C1216 1.524 . S
C1215 C1219 1.400 . S
C1216 H1201 0.960 . S
C1216 H1202 0.960 . S
C1216 H1203 0.960 . S
C1216 C1215 1.524 . S
C1217 C1214 1.403 . S
C1217 C1218 1.392 . S
C1217 C1221 1.495 . S
C1218 C1217 1.392 . S
C1218 C1219 1.385 . S
C1218 C1220 1.478 . S
C1219 H1213 0.930 . S
C1219 C1215 1.400 . S
C1219 C1218 1.385 . S
C1220 C1218 1.478 . S
C1220 C1222 1.381 . S
C1220 C1226 1.383 . S
C1221 C1217 1.495 . S
C1221 H1227 0.959 . S
C1221 H1228 0.961 . S
C1221 H1229 0.960 . S
C1222 C1220 1.381 . S
C1222 C1223 1.394 . S
C1222 H1230 0.930 . S
C1223 C1222 1.394 . S
C1223 C1224 1.383 . S
C1223 H1231 0.929 . S
C1224 C1223 1.383 . S
C1224 C1225 1.377 . S
C1225 H1209 0.930 . S
C1225 C1224 1.377 . S
C1225 C1226 1.379 . S
C1226 H1210 0.931 . S
C1226 C1220 1.383 . S
C1226 C1225 1.379 . S
H1227 C1221 0.959 . S
H1228 C1221 0.961 . S
H1229 C1221 0.960 . S
H1230 C1222 0.930 . S
H1231 C1223 0.929 . S
H1232 C1240 0.929 . S
H1233 C1242 0.930 . S
H1234 C1244 0.930 . S
H1235 C1247 0.929 . S
H1236 C1250 0.930 . S
H1237 C1252 0.960 . S
H1238 C1252 0.960 . S
H1239 C1252 0.960 . S
C1240 H1232 0.929 . S
C1240 C1241 1.377 . S
C1240 C1242 1.384 . S
C1241 C1240 1.377 . S
C1241 C1247 1.390 . S
C1242 H1233 0.930 . S
C1242 C1240 1.384 . S
C1242 C1243 1.372 . S
C1243 C1242 1.372 . S
C1243 C1244 1.400 . S
C1243 C1248 1.490 . S
C1244 H1234 0.930 . S
C1244 C1243 1.400 . S
C1244 C1247 1.386 . S
H1245 C1261 0.930 . S
H1246 C1262 0.931 . S
C1247 H1235 0.929 . S
C1247 C1241 1.390 . S
C1247 C1244 1.386 . S
C1248 C1243 1.490 . S
C1248 C1250 1.395 . S
C1248 C1251 1.403 . S
H1249 C1255 0.930 . S
C1250 H1236 0.930 . S
C1250 C1248 1.395 . S
C1250 C1253 1.403 . S
C1251 C1248 1.403 . S
C1251 C1252 1.524 . S
C1251 C1255 1.400 . S
C1252 H1237 0.960 . S
C1252 H1238 0.960 . S
C1252 H1239 0.960 . S
C1252 C1251 1.524 . S
C1253 C1250 1.403 . S
C1253 C1254 1.392 . S
C1253 C1257 1.495 . S
C1254 C1253 1.392 . S
C1254 C1255 1.385 . S
C1254 C1256 1.478 . S
C1255 H1249 0.930 . S
C1255 C1251 1.400 . S
C1255 C1254 1.385 . S
C1256 C1254 1.478 . S
C1256 C1258 1.381 . S
C1256 C1262 1.383 . S
C1257 C1253 1.495 . S
C1257 H1263 0.959 . S
C1257 H1264 0.961 . S
C1257 H1265 0.960 . S
C1258 C1256 1.381 . S
C1258 C1259 1.394 . S
C1258 H1266 0.930 . S
C1259 C1258 1.394 . S
C1259 C1260 1.383 . S
C1259 H1267 0.929 . S
C1260 C1259 1.383 . S
C1260 C1261 1.377 . S
C1261 H1245 0.930 . S
C1261 C1260 1.377 . S
C1261 C1262 1.379 . S
C1262 H1246 0.931 . S
C1262 C1256 1.383 . S
C1262 C1261 1.379 . S
H1263 C1257 0.959 . S
H1264 C1257 0.961 . S
H1265 C1257 0.960 . S
H1266 C1258 0.930 . S
H1267 C1259 0.929 . S
H1268 C1276 0.929 . S
H1269 C1278 0.930 . S
H1270 C1280 0.930 . S
H1271 C1283 0.929 . S
H1272 C1286 0.930 . S
H1273 C1288 0.960 . S
H1274 C1288 0.960 . S
H1275 C1288 0.960 . S
C1276 H1268 0.929 . S
C1276 C1277 1.377 . S
C1276 C1278 1.384 . S
C1277 C1276 1.377 . S
C1277 C1283 1.390 . S
C1278 H1269 0.930 . S
C1278 C1276 1.384 . S
C1278 C1279 1.372 . S
C1279 C1278 1.372 . S
C1279 C1280 1.400 . S
C1279 C1284 1.490 . S
C1280 H1270 0.930 . S
C1280 C1279 1.400 . S
C1280 C1283 1.386 . S
H1281 C1297 0.930 . S
H1282 C1298 0.931 . S
C1283 H1271 0.929 . S
C1283 C1277 1.390 . S
C1283 C1280 1.386 . S
C1284 C1279 1.490 . S
C1284 C1286 1.395 . S
C1284 C1287 1.403 . S
H1285 C1291 0.930 . S
C1286 H1272 0.930 . S
C1286 C1284 1.395 . S
C1286 C1289 1.403 . S
C1287 C1284 1.403 . S
C1287 C1288 1.524 . S
C1287 C1291 1.400 . S
C1288 H1273 0.960 . S
C1288 H1274 0.960 . S
C1288 H1275 0.960 . S
C1288 C1287 1.524 . S
C1289 C1286 1.403 . S
C1289 C1290 1.392 . S
C1289 C1293 1.495 . S
C1290 C1289 1.392 . S
C1290 C1291 1.385 . S
C1290 C1292 1.478 . S
C1291 H1285 0.930 . S
C1291 C1287 1.400 . S
C1291 C1290 1.385 . S
C1292 C1290 1.478 . S
C1292 C1294 1.381 . S
C1292 C1298 1.383 . S
C1293 C1289 1.495 . S
C1293 H1299 0.959 . S
C1293 H1300 0.961 . S
C1293 H1301 0.960 . S
C1294 C1292 1.381 . S
C1294 C1295 1.394 . S
C1294 H1302 0.930 . S
C1295 C1294 1.394 . S
C1295 C1296 1.383 . S
C1295 H1303 0.929 . S
C1296 C1295 1.383 . S
C1296 C1297 1.377 . S
C1297 H1281 0.930 . S
C1297 C1296 1.377 . S
C1297 C1298 1.379 . S
C1298 H1282 0.931 . S
C1298 C1292 1.383 . S
C1298 C1297 1.379 . S
H1299 C1293 0.959 . S
H1300 C1293 0.961 . S
H1301 C1293 0.960 . S
H1302 C1294 0.930 . S
H1303 C1295 0.929 . S
H1304 C1312 0.929 . S
H1305 C1314 0.930 . S
H1306 C1316 0.930 . S
H1307 C1319 0.929 . S
H1308 C1322 0.930 . S
H1309 C1324 0.960 . S
H1310 C1324 0.960 . S
H1311 C1324 0.960 . S
C1312 H1304 0.929 . S
C1312 C1313 1.377 . S
C1312 C1314 1.384 . S
C1313 C1312 1.377 . S
C1313 C1319 1.390 . S
C1314 H1305 0.930 . S
C1314 C1312 1.384 . S
C1314 C1315 1.372 . S
C1315 C1314 1.372 . S
C1315 C1316 1.400 . S
C1315 C1320 1.490 . S
C1316 H1306 0.930 . S
C1316 C1315 1.400 . S
C1316 C1319 1.386 . S
H1317 C1333 0.930 . S
H1318 C1334 0.931 . S
C1319 H1307 0.929 . S
C1319 C1313 1.390 . S
C1319 C1316 1.386 . S
C1320 C1315 1.490 . S
C1320 C1322 1.395 . S
C1320 C1323 1.403 . S
H1321 C1327 0.930 . S
C1322 H1308 0.930 . S
C1322 C1320 1.395 . S
C1322 C1325 1.403 . S
C1323 C1320 1.403 . S
C1323 C1324 1.524 . S
C1323 C1327 1.400 . S
C1324 H1309 0.960 . S
C1324 H1310 0.960 . S
C1324 H1311 0.960 . S
C1324 C1323 1.524 . S
C1325 C1322 1.403 . S
C1325 C1326 1.392 . S
C1325 C1329 1.495 . S
C1326 C1325 1.392 . S
C1326 C1327 1.385 . S
C1326 C1328 1.478 . S
C1327 H1321 0.930 . S
C1327 C1323 1.400 . S
C1327 C1326 1.385 . S
C1328 C1326 1.478 . S
C1328 C1330 1.381 . S
C1328 C1334 1.383 . S
C1329 C1325 1.495 . S
C1329 H1335 0.959 . S
C1329 H1336 0.961 . S
C1329 H1337 0.960 . S
C1330 C1328 1.381 . S
C1330 C1331 1.394 . S
C1330 H1338 0.930 . S
C1331 C1330 1.394 . S
C1331 C1332 1.383 . S
C1331 H1339 0.929 . S
C1332 C1331 1.383 . S
C1332 C1333 1.377 . S
C1333 H1317 0.930 . S
C1333 C1332 1.377 . S
C1333 C1334 1.379 . S
C1334 H1318 0.931 . S
C1334 C1328 1.383 . S
C1334 C1333 1.379 . S
H1335 C1329 0.959 . S
H1336 C1329 0.961 . S
H1337 C1329 0.960 . S
H1338 C1330 0.930 . S
H1339 C1331 0.929 . S
H1340 C1348 0.929 . S
H1341 C1350 0.930 . S
H1342 C1352 0.930 . S
H1343 C1355 0.929 . S
H1344 C1358 0.930 . S
H1345 C1360 0.960 . S
H1346 C1360 0.960 . S
H1347 C1360 0.960 . S
C1348 H1340 0.929 . S
C1348 C1349 1.377 . S
C1348 C1350 1.384 . S
C1349 C1348 1.377 . S
C1349 C1355 1.390 . S
C1350 H1341 0.930 . S
C1350 C1348 1.384 . S
C1350 C1351 1.372 . S
C1351 C1350 1.372 . S
C1351 C1352 1.400 . S
C1351 C1356 1.490 . S
C1352 H1342 0.930 . S
C1352 C1351 1.400 . S
C1352 C1355 1.386 . S
H1353 C1369 0.930 . S
H1354 C1370 0.931 . S
C1355 H1343 0.929 . S
C1355 C1349 1.390 . S
C1355 C1352 1.386 . S
C1356 C1351 1.490 . S
C1356 C1358 1.395 . S
C1356 C1359 1.403 . S
H1357 C1363 0.930 . S
C1358 H1344 0.930 . S
C1358 C1356 1.395 . S
C1358 C1361 1.403 . S
C1359 C1356 1.403 . S
C1359 C1360 1.524 . S
C1359 C1363 1.400 . S
C1360 H1345 0.960 . S
C1360 H1346 0.960 . S
C1360 H1347 0.960 . S
C1360 C1359 1.524 . S
C1361 C1358 1.403 . S
C1361 C1362 1.392 . S
C1361 C1365 1.495 . S
C1362 C1361 1.392 . S
C1362 C1363 1.385 . S
C1362 C1364 1.478 . S
C1363 H1357 0.930 . S
C1363 C1359 1.400 . S
C1363 C1362 1.385 . S
C1364 C1362 1.478 . S
C1364 C1366 1.381 . S
C1364 C1370 1.383 . S
C1365 C1361 1.495 . S
C1365 H1371 0.959 . S
C1365 H1372 0.961 . S
C1365 H1373 0.960 . S
C1366 C1364 1.381 . S
C1366 C1367 1.394 . S
C1366 H1374 0.930 . S
C1367 C1366 1.394 . S
C1367 C1368 1.383 . S
C1367 H1375 0.929 . S
C1368 C1367 1.383 . S
C1368 C1369 1.377 . S
C1369 H1353 0.930 . S
C1369 C1368 1.377 . S
C1369 C1370 1.379 . S
C1370 H1354 0.931 . S
C1370 C1364 1.383 . S
C1370 C1369 1.379 . S
H1371 C1365 0.959 . S
H1372 C1365 0.961 . S
H1373 C1365 0.960 . S
H1374 C1366 0.930 . S
H1375 C1367 0.929 . S
C233 C11 0.913 . S
C252 C193 0.908 . S
C269 C165 0.913 . S
C288 C25 0.904 . S
C305 C179 0.915 . S
C324 C39 0.915 . S
C341 C151 0.917 . S
C360 C53 0.926 . S
C377 C67 0.913 . S
C396 C221 0.905 . S
C413 C81 0.917 . S
C432 C137 0.926 . S
C449 C207 0.916 . S
C468 C95 0.923 . S
C485 C109 0.917 . S
C504 C123 0.926 . S
C521 C69 1.517 . S
C540 C13 1.496 . S
C557 C27 1.504 . S
C576 C83 1.515 . S
C593 C41 1.511 . S
C612 C97 1.542 . S
C629 C111 1.514 . S
C648 C55 1.536 . S
C665 C125 1.515 . S
C684 C153 1.535 . S
C701 C139 1.507 . S
C720 C167 1.481 . S
C737 C209 1.518 . S
C756 C181 1.502 . S
C773 C195 1.515 . S
C792 C223 1.533 . S
C809 C77 1.303 . S
C828 C7 1.271 . S
C845 C21 1.294 . S
C864 C91 1.318 . S
C881 C35 1.294 . S
C900 C105 1.310 . S
C917 C63 1.294 . S
C936 C49 1.320 . S
C953 C64 1.202 . S
C972 C148 1.196 . S
C989 C36 1.208 . S
C1008 C120 1.213 . S
C1025 C162 1.196 . S
C1044 C92 1.185 . S
C1061 C134 1.198 . S
C1080 C8 1.200 . S
C1097 C119 1.301 . S
C1116 C175 1.276 . S
C1133 C147 1.303 . S
C1152 C217 1.284 . S
C1169 C189 1.300 . S
C1188 C133 1.281 . S
C1205 C161 1.295 . S
C1224 C203 1.307 . S
C1241 C204 1.190 . S
C1260 C22 1.162 . S
C1277 C190 1.193 . S
C1296 C78 1.182 . S
C1313 C218 1.191 . S
C1332 C50 1.162 . S
C1349 C176 1.190 . S
C1368 C106 1.162 . S
