# Generated by pormake.
# Topology uow, (4)-cn, num edge types: 1
# Building blocks:
#     Node 0, Type 0, BuildingBlock: TATPOV_clean_sbu_0, # of connection points: 4
#     Node 1, Type 0, BuildingBlock: TATPOV_clean_sbu_0, # of connection points: 4
#     Node 2, Type 0, BuildingBlock: TATPOV_clean_sbu_0, # of connection points: 4
#     Node 3, Type 0, BuildingBlock: TATPOV_clean_sbu_0, # of connection points: 4
#     Node 4, Type 0, BuildingBlock: TATPOV_clean_sbu_0, # of connection points: 4
#     Node 5, Type 0, BuildingBlock: TATPOV_clean_sbu_0, # of connection points: 4
#     Node 6, Type 0, BuildingBlock: TATPOV_clean_sbu_0, # of connection points: 4
#     Node 7, Type 0, BuildingBlock: TATPOV_clean_sbu_0, # of connection points: 4
#     Node 8, Type 0, BuildingBlock: TATPOV_clean_sbu_0, # of connection points: 4
#     Node 9, Type 0, BuildingBlock: TATPOV_clean_sbu_0, # of connection points: 4
#     Node 10, Type 0, BuildingBlock: TATPOV_clean_sbu_0, # of connection points: 4
#     Node 11, Type 0, BuildingBlock: TATPOV_clean_sbu_0, # of connection points: 4
#     Node 12, Type 0, BuildingBlock: TATPOV_clean_sbu_0, # of connection points: 4
#     Node 13, Type 0, BuildingBlock: TATPOV_clean_sbu_0, # of connection points: 4
#     Node 14, Type 0, BuildingBlock: TATPOV_clean_sbu_0, # of connection points: 4
#     Node 15, Type 0, BuildingBlock: TATPOV_clean_sbu_0, # of connection points: 4
#     Node 16, Type 0, BuildingBlock: TATPOV_clean_sbu_0, # of connection points: 4
#     Node 17, Type 0, BuildingBlock: TATPOV_clean_sbu_0, # of connection points: 4
#     Node 18, Type 0, BuildingBlock: TATPOV_clean_sbu_0, # of connection points: 4
#     Node 19, Type 0, BuildingBlock: TATPOV_clean_sbu_0, # of connection points: 4
#     Node 20, Type 0, BuildingBlock: TATPOV_clean_sbu_0, # of connection points: 4
#     Node 21, Type 0, BuildingBlock: TATPOV_clean_sbu_0, # of connection points: 4
#     Node 22, Type 0, BuildingBlock: TATPOV_clean_sbu_0, # of connection points: 4
#     Node 23, Type 0, BuildingBlock: TATPOV_clean_sbu_0, # of connection points: 4
#     Node 24, Type 0, BuildingBlock: TATPOV_clean_sbu_0, # of connection points: 4
#     Node 25, Type 0, BuildingBlock: TATPOV_clean_sbu_0, # of connection points: 4
#     Node 26, Type 0, BuildingBlock: TATPOV_clean_sbu_0, # of connection points: 4
#     Node 27, Type 0, BuildingBlock: TATPOV_clean_sbu_0, # of connection points: 4
#     Node 28, Type 0, BuildingBlock: TATPOV_clean_sbu_0, # of connection points: 4
#     Node 29, Type 0, BuildingBlock: TATPOV_clean_sbu_0, # of connection points: 4
#     Node 30, Type 0, BuildingBlock: TATPOV_clean_sbu_0, # of connection points: 4
#     Node 31, Type 0, BuildingBlock: TATPOV_clean_sbu_0, # of connection points: 4
#     Edge 32, Type (0, 0), BuildingBlock: XUDNAN_clean_linker_2, # of connection points: 2
#     Edge 33, Type (0, 0), BuildingBlock: XUDNAN_clean_linker_2, # of connection points: 2
#     Edge 34, Type (0, 0), BuildingBlock: XUDNAN_clean_linker_2, # of connection points: 2
#     Edge 35, Type (0, 0), BuildingBlock: XUDNAN_clean_linker_2, # of connection points: 2
#     Edge 36, Type (0, 0), BuildingBlock: XUDNAN_clean_linker_2, # of connection points: 2
#     Edge 37, Type (0, 0), BuildingBlock: XUDNAN_clean_linker_2, # of connection points: 2
#     Edge 38, Type (0, 0), BuildingBlock: XUDNAN_clean_linker_2, # of connection points: 2
#     Edge 39, Type (0, 0), BuildingBlock: XUDNAN_clean_linker_2, # of connection points: 2
#     Edge 40, Type (0, 0), BuildingBlock: XUDNAN_clean_linker_2, # of connection points: 2
#     Edge 41, Type (0, 0), BuildingBlock: XUDNAN_clean_linker_2, # of connection points: 2
#     Edge 42, Type (0, 0), BuildingBlock: XUDNAN_clean_linker_2, # of connection points: 2
#     Edge 43, Type (0, 0), BuildingBlock: XUDNAN_clean_linker_2, # of connection points: 2
#     Edge 44, Type (0, 0), BuildingBlock: XUDNAN_clean_linker_2, # of connection points: 2
#     Edge 45, Type (0, 0), BuildingBlock: XUDNAN_clean_linker_2, # of connection points: 2
#     Edge 46, Type (0, 0), BuildingBlock: XUDNAN_clean_linker_2, # of connection points: 2
#     Edge 47, Type (0, 0), BuildingBlock: XUDNAN_clean_linker_2, # of connection points: 2
#     Edge 48, Type (0, 0), BuildingBlock: XUDNAN_clean_linker_2, # of connection points: 2
#     Edge 49, Type (0, 0), BuildingBlock: XUDNAN_clean_linker_2, # of connection points: 2
#     Edge 50, Type (0, 0), BuildingBlock: XUDNAN_clean_linker_2, # of connection points: 2
#     Edge 51, Type (0, 0), BuildingBlock: XUDNAN_clean_linker_2, # of connection points: 2
#     Edge 52, Type (0, 0), BuildingBlock: XUDNAN_clean_linker_2, # of connection points: 2
#     Edge 53, Type (0, 0), BuildingBlock: XUDNAN_clean_linker_2, # of connection points: 2
#     Edge 54, Type (0, 0), BuildingBlock: XUDNAN_clean_linker_2, # of connection points: 2
#     Edge 55, Type (0, 0), BuildingBlock: XUDNAN_clean_linker_2, # of connection points: 2
#     Edge 56, Type (0, 0), BuildingBlock: XUDNAN_clean_linker_2, # of connection points: 2
#     Edge 57, Type (0, 0), BuildingBlock: XUDNAN_clean_linker_2, # of connection points: 2
#     Edge 58, Type (0, 0), BuildingBlock: XUDNAN_clean_linker_2, # of connection points: 2
#     Edge 59, Type (0, 0), BuildingBlock: XUDNAN_clean_linker_2, # of connection points: 2
#     Edge 60, Type (0, 0), BuildingBlock: XUDNAN_clean_linker_2, # of connection points: 2
#     Edge 61, Type (0, 0), BuildingBlock: XUDNAN_clean_linker_2, # of connection points: 2
#     Edge 62, Type (0, 0), BuildingBlock: XUDNAN_clean_linker_2, # of connection points: 2
#     Edge 63, Type (0, 0), BuildingBlock: XUDNAN_clean_linker_2, # of connection points: 2
#     Edge 64, Type (0, 0), BuildingBlock: XUDNAN_clean_linker_2, # of connection points: 2
#     Edge 65, Type (0, 0), BuildingBlock: XUDNAN_clean_linker_2, # of connection points: 2
#     Edge 66, Type (0, 0), BuildingBlock: XUDNAN_clean_linker_2, # of connection points: 2
#     Edge 67, Type (0, 0), BuildingBlock: XUDNAN_clean_linker_2, # of connection points: 2
#     Edge 68, Type (0, 0), BuildingBlock: XUDNAN_clean_linker_2, # of connection points: 2
#     Edge 69, Type (0, 0), BuildingBlock: XUDNAN_clean_linker_2, # of connection points: 2
#     Edge 70, Type (0, 0), BuildingBlock: XUDNAN_clean_linker_2, # of connection points: 2
#     Edge 71, Type (0, 0), BuildingBlock: XUDNAN_clean_linker_2, # of connection points: 2
#     Edge 72, Type (0, 0), BuildingBlock: XUDNAN_clean_linker_2, # of connection points: 2
#     Edge 73, Type (0, 0), BuildingBlock: XUDNAN_clean_linker_2, # of connection points: 2
#     Edge 74, Type (0, 0), BuildingBlock: XUDNAN_clean_linker_2, # of connection points: 2
#     Edge 75, Type (0, 0), BuildingBlock: XUDNAN_clean_linker_2, # of connection points: 2
#     Edge 76, Type (0, 0), BuildingBlock: XUDNAN_clean_linker_2, # of connection points: 2
#     Edge 77, Type (0, 0), BuildingBlock: XUDNAN_clean_linker_2, # of connection points: 2
#     Edge 78, Type (0, 0), BuildingBlock: XUDNAN_clean_linker_2, # of connection points: 2
#     Edge 79, Type (0, 0), BuildingBlock: XUDNAN_clean_linker_2, # of connection points: 2
#     Edge 80, Type (0, 0), BuildingBlock: XUDNAN_clean_linker_2, # of connection points: 2
#     Edge 81, Type (0, 0), BuildingBlock: XUDNAN_clean_linker_2, # of connection points: 2
#     Edge 82, Type (0, 0), BuildingBlock: XUDNAN_clean_linker_2, # of connection points: 2
#     Edge 83, Type (0, 0), BuildingBlock: XUDNAN_clean_linker_2, # of connection points: 2
#     Edge 84, Type (0, 0), BuildingBlock: XUDNAN_clean_linker_2, # of connection points: 2
#     Edge 85, Type (0, 0), BuildingBlock: XUDNAN_clean_linker_2, # of connection points: 2
#     Edge 86, Type (0, 0), BuildingBlock: XUDNAN_clean_linker_2, # of connection points: 2
#     Edge 87, Type (0, 0), BuildingBlock: XUDNAN_clean_linker_2, # of connection points: 2
#     Edge 88, Type (0, 0), BuildingBlock: XUDNAN_clean_linker_2, # of connection points: 2
#     Edge 89, Type (0, 0), BuildingBlock: XUDNAN_clean_linker_2, # of connection points: 2
#     Edge 90, Type (0, 0), BuildingBlock: XUDNAN_clean_linker_2, # of connection points: 2
#     Edge 91, Type (0, 0), BuildingBlock: XUDNAN_clean_linker_2, # of connection points: 2
#     Edge 92, Type (0, 0), BuildingBlock: XUDNAN_clean_linker_2, # of connection points: 2
#     Edge 93, Type (0, 0), BuildingBlock: XUDNAN_clean_linker_2, # of connection points: 2
#     Edge 94, Type (0, 0), BuildingBlock: XUDNAN_clean_linker_2, # of connection points: 2
#     Edge 95, Type (0, 0), BuildingBlock: XUDNAN_clean_linker_2, # of connection points: 2
# Relax obj value: 0.174
# Max RMSD: 0.205
# Mean RMSD: 0.205
data_MOF--net-uow--node1-TATPOV_clean_sbu_0--edge1-XUDNAN_clean_linker_2
_symmetry_space_group_name_H-M    P1
_symmetry_Int_Tables_number       1
_symmetry_cell_setting            triclinic
loop_
_symmetry_equiv_pos_as_xyz
'x, y, z'
_cell_length_a     60.296028
_cell_length_b     60.302242
_cell_length_c     42.174876
_cell_angle_alpha  89.956075
_cell_angle_beta   89.955331
_cell_angle_gamma 90.063065
loop_
_atom_site_label
_atom_site_type_symbol
_atom_site_fract_x
_atom_site_fract_y
_atom_site_fract_z
_atom_type_partial_charge
Zn0 Zn 0.03413 0.3174 0.27723 0.0
Zn1 Zn 0.02374 0.35969 0.28528 0.0
O2 O 0.99603 0.34319 0.30242 0.0
O3 O 0.0062 0.3082 0.29981 0.0
O4 O 0.01528 0.39193 0.28533 0.0
O5 O 0.03492 0.31993 0.22987 0.0
O6 O 0.0325 0.35581 0.23859 0.0
C7 C 0.99204 0.32271 0.30755 0.0
C8 C 0.06529 0.34235 0.31613 0.0
O9 O 0.05092 0.35772 0.31415 0.0
O10 O 0.0623 0.32415 0.30171 0.0
C11 C 0.02068 0.40573 0.30673 0.0
O12 O 0.03138 0.39874 0.33194 0.0
C13 C 0.03563 0.33965 0.21973 0.0
Zn14 Zn 0.92429 0.8389 0.5735 0.0
Zn15 Zn 0.88745 0.81847 0.55775 0.0
O16 O 0.9062 0.79216 0.57347 0.0
O17 O 0.93638 0.80943 0.58942 0.0
O18 O 0.8592 0.80443 0.54171 0.0
O19 O 0.93051 0.85048 0.53024 0.0
O20 O 0.89908 0.83427 0.51716 0.0
C21 C 0.92527 0.79168 0.58652 0.0
C22 C 0.88756 0.85333 0.61062 0.0
O23 O 0.87765 0.83769 0.59605 0.0
O24 O 0.90734 0.85821 0.60333 0.0
C25 C 0.84119 0.81534 0.54034 0.0
O26 O 0.84085 0.83589 0.55064 0.0
C27 C 0.9159 0.84604 0.50975 0.0
Zn28 Zn 0.4227 0.65779 0.77653 0.0
Zn29 Zn 0.43638 0.61862 0.75665 0.0
O30 O 0.46611 0.6335 0.76888 0.0
O31 O 0.45465 0.66665 0.7832 0.0
O32 O 0.44545 0.5891 0.73842 0.0
O33 O 0.40679 0.6647 0.73664 0.0
O34 O 0.41997 0.63306 0.7185 0.0
C35 C 0.47034 0.65301 0.77884 0.0
C36 C 0.40579 0.62244 0.81444 0.0
O37 O 0.41725 0.61026 0.796 0.0
O38 O 0.40554 0.64326 0.81098 0.0
C39 C 0.43133 0.57352 0.73609 0.0
O40 O 0.411 0.5768 0.7463 0.0
C41 C 0.40872 0.65074 0.71454 0.0
Zn42 Zn 0.60435 0.25841 0.98704 0.0
Zn43 Zn 0.64281 0.24303 0.97679 0.0
O44 O 0.64598 0.27677 0.98698 0.0
O45 O 0.61242 0.29025 0.98179 0.0
O46 O 0.67324 0.23428 0.96194 0.0
O47 O 0.58955 0.24232 0.95189 0.0
O48 O 0.62319 0.23095 0.94039 0.0
C49 C 0.63287 0.29337 0.98636 0.0
C50 C 0.62094 0.22892 0.03654 0.0
O51 O 0.63663 0.22521 0.01704 0.0
O52 O 0.60635 0.2434 0.03021 0.0
C53 C 0.69095 0.23825 0.97721 0.0
O54 O 0.68973 0.24813 0.00491 0.0
C55 C 0.60246 0.23123 0.93447 0.0
Zn56 Zn 0.99079 0.64224 0.19386 0.0
Zn57 Zn 6e-05 0.60345 0.21134 0.0
O58 O 0.96582 0.60263 0.20578 0.0
O59 O 0.95877 0.63832 0.20533 0.0
O60 O 0.00705 0.57368 0.23003 0.0
O61 O 0.01191 0.6568 0.22406 0.0
O62 O 0.01297 0.62377 0.24606 0.0
C63 C 0.9519 0.61851 0.20636 0.0
C64 C 0.01531 0.61931 0.1469 0.0
O65 O 0.01809 0.60573 0.16974 0.0
O66 O 0.00176 0.63521 0.14993 0.0
C67 C 0.99882 0.55535 0.221 0.0
O68 O 0.98541 0.55497 0.19647 0.0
C69 C 0.01813 0.64427 0.24633 0.0
Zn70 Zn 0.6065 0.77114 0.45975 0.0
Zn71 Zn 0.64665 0.78158 0.46418 0.0
O72 O 0.64518 0.74723 0.46006 0.0
O73 O 0.61073 0.73927 0.47221 0.0
O74 O 0.67935 0.78743 0.47073 0.0
O75 O 0.59685 0.79379 0.4914 0.0
O76 O 0.63224 0.79594 0.50378 0.0
C77 C 0.63022 0.73288 0.46615 0.0
C78 C 0.6219 0.7936 0.40476 0.0
O79 O 0.63817 0.79812 0.42293 0.0
O80 O 0.6072 0.77996 0.41373 0.0
C81 C 0.69404 0.77532 0.45778 0.0
O82 O 0.68781 0.75938 0.43851 0.0
C83 C 0.61206 0.80103 0.50917 0.0
Zn84 Zn 0.45949 0.33596 0.73051 0.0
Zn85 Zn 0.44705 0.37484 0.70896 0.0
O86 O 0.48088 0.37602 0.71647 0.0
O87 O 0.49029 0.34588 0.74233 0.0
O88 O 0.44063 0.40655 0.69716 0.0
O89 O 0.43464 0.33618 0.76209 0.0
O90 O 0.42702 0.37048 0.74803 0.0
C91 C 0.49559 0.36442 0.73047 0.0
C92 C 0.44342 0.33512 0.66565 0.0
O93 O 0.43808 0.35526 0.67085 0.0
O94 O 0.45375 0.32411 0.68655 0.0
C95 C 0.45405 0.4178 0.68033 0.0
O96 O 0.47117 0.40781 0.66742 0.0
C97 C 0.42335 0.35368 0.76558 0.0
Zn98 Zn 0.93364 0.19273 0.96231 0.0
Zn99 Zn 0.89056 0.20297 0.95144 0.0
O100 O 0.90695 0.23081 0.93582 0.0
O101 O 0.94219 0.22217 0.94188 0.0
O102 O 0.85823 0.21068 0.94766 0.0
O103 O 0.92797 0.1899 0.00909 0.0
O104 O 0.89276 0.19645 -0.00106 0.0
C105 C 0.92742 0.23578 0.93302 0.0
C106 C 0.91054 0.16165 0.92153 0.0
O107 O 0.89453 0.17534 0.92342 0.0
O108 O 0.92853 0.16521 0.93615 0.0
C109 C 0.84638 0.20711 0.92329 0.0
O110 O 0.85555 0.19848 0.89788 0.0
C111 C 0.90811 0.19163 0.01846 0.0
Zn112 Zn 0.02863 0.67298 0.77033 0.0
Zn113 Zn 0.00791 0.63581 0.75299 0.0
O114 O 0.04041 0.63395 0.73769 0.0
O115 O 0.05864 0.66288 0.7556 0.0
O116 O 0.99803 0.60398 0.74753 0.0
O117 O 0.01978 0.66975 0.816 0.0
O118 O -5e-05 0.64122 0.79992 0.0
C119 C 0.05842 0.64493 0.74011 0.0
C120 C 0.99314 0.67734 0.7211 0.0
O121 O 0.99041 0.65641 0.72362 0.0
O122 O 0.00753 0.68717 0.73806 0.0
C123 C 0.97981 0.59572 0.73798 0.0
O124 O 0.96388 0.60891 0.72824 0.0
C125 C 0.00599 0.65447 0.82175 0.0
Zn126 Zn 0.09888 0.2411 0.47281 0.0
Zn127 Zn 0.13272 0.21932 0.4563 0.0
O128 O 0.13949 0.253 0.45124 0.0
O129 O 0.11323 0.27072 0.47657 0.0
O130 O 0.16272 0.20581 0.44871 0.0
O131 O 0.09326 0.22303 0.51095 0.0
O132 O 0.12421 0.20557 0.49967 0.0
C133 C 0.13125 0.27115 0.46134 0.0
C134 C 0.09227 0.21563 0.41533 0.0
O135 O 0.11143 0.2079 0.42183 0.0
O136 O 0.08422 0.23113 0.43206 0.0
C137 C 0.17591 0.21298 0.42752 0.0
O138 O 0.169 0.22827 0.40765 0.0
C139 C 0.10732 0.20821 0.51743 0.0
Zn140 Zn 0.56555 0.3382 0.20631 0.0
Zn141 Zn 0.56054 0.38257 0.20998 0.0
O142 O 0.52917 0.37116 0.19964 0.0
O143 O 0.53207 0.33479 0.20238 0.0
O144 O 0.55635 0.41554 0.21612 0.0
O145 O 0.58044 0.33716 0.24846 0.0
O146 O 0.57388 0.37299 0.25316 0.0
C147 C 0.52031 0.35199 0.19864 0.0
C148 C 0.59021 0.363 0.15877 0.0
O149 O 0.58193 0.38009 0.17199 0.0
O150 O 0.58531 0.34373 0.16852 0.0
C151 C 0.53877 0.42302 0.22892 0.0
O152 O 0.52316 0.40908 0.23762 0.0
C153 C 0.58155 0.3549 0.26431 0.0
Zn154 Zn 0.41137 0.73318 0.9883 0.0
Zn155 Zn 0.37034 0.74715 0.97644 0.0
O156 O 0.37077 0.71279 0.97283 0.0
O157 O 0.40396 0.70093 0.98566 0.0
O158 O 0.33752 0.75299 0.97191 0.0
O159 O 0.41108 0.74875 0.03028 0.0
O160 O 0.37785 0.76172 0.01911 0.0
C161 C 0.38429 0.69682 0.97719 0.0
C162 C 0.40687 0.76197 0.9323 0.0
O163 O 0.38643 0.76327 0.93993 0.0
O164 O 0.42003 0.75005 0.94843 0.0
C165 C 0.32695 0.74314 0.94999 0.0
O166 O 0.33811 0.73149 0.92906 0.0
C167 C 0.39455 0.76064 0.03749 0.0
Zn168 Zn 0.01654 0.35152 0.74088 0.0
Zn169 Zn 0.99442 0.3877 0.75036 0.0
O170 O 0.02834 0.39454 0.75277 0.0
O171 O 0.0465 0.36516 0.73666 0.0
O172 O 0.9808 0.41853 0.75151 0.0
O173 O 0.99922 0.34333 0.70271 0.0
O174 O 0.97994 0.37375 0.71043 0.0
C175 C 0.04666 0.38501 0.74616 0.0
C176 C 0.99029 0.35153 0.79922 0.0
O177 O 0.98357 0.37043 0.78952 0.0
O178 O 0.00495 0.34108 0.78366 0.0
C179 C 0.99012 0.43427 0.76656 0.0
O180 O 0.00766 0.42991 0.78393 0.0
C181 C 0.98338 0.35591 0.69495 0.0
Zn182 Zn 0.41688 0.16629 0.5208 0.0
Zn183 Zn 0.37586 0.17664 0.50169 0.0
O184 O 0.38762 0.2069 0.51686 0.0
O185 O 0.42149 0.19861 0.53224 0.0
O186 O 0.3459 0.18399 0.48293 0.0
O187 O 0.42565 0.15426 0.47882 0.0
O188 O 0.3921 0.16341 0.46276 0.0
C189 C 0.40621 0.2128 0.52849 0.0
C190 C 0.38289 0.14348 0.55578 0.0
O191 O 0.36967 0.15512 0.53909 0.0
O192 O 0.40363 0.1451 0.5519 0.0
C193 C 0.32737 0.17676 0.493 0.0
O194 O 0.32686 0.1638 0.51803 0.0
C195 C 0.41116 0.15512 0.45726 0.0
Zn196 Zn 0.55945 0.67071 0.27697 0.0
Zn197 Zn 0.54701 0.6299 0.2768 0.0
O198 O 0.51809 0.64622 0.29018 0.0
O199 O 0.53048 0.68032 0.29546 0.0
O200 O 0.53787 0.59783 0.2744 0.0
O201 O 0.56324 0.67207 0.23053 0.0
O202 O 0.55786 0.63595 0.23062 0.0
C203 C 0.51477 0.66647 0.29757 0.0
C204 C 0.58566 0.64487 0.3186 0.0
O205 O 0.57108 0.63027 0.31194 0.0
O206 O 0.58532 0.66349 0.30478 0.0
C207 C 0.55201 0.58343 0.26571 0.0
O208 O 0.57236 0.58985 0.25929 0.0
C209 C 0.56264 0.65382 0.21595 0.0
Zn210 Zn 0.08644 0.76467 0.02383 0.0
Zn211 Zn 0.12937 0.75648 0.02698 0.0
O212 O 0.11607 0.72517 0.03384 0.0
O213 O 0.08051 0.73191 0.0272 0.0
O214 O 0.16238 0.7513 0.02218 0.0
O215 O 0.08775 0.77934 0.98201 0.0
O216 O 0.12306 0.77015 0.98272 0.0
C217 C 0.0961 0.71828 0.03216 0.0
C218 C 0.10739 0.78695 0.07579 0.0
O219 O 0.12502 0.77746 0.06592 0.0
O220 O 0.08907 0.7838 0.06195 0.0
C221 C 0.16725 0.73951 -0.00185 0.0
O222 O 0.15101 0.73074 0.98156 0.0
C223 C 0.10649 0.77881 0.96872 0.0
Zn224 Zn 0.55951 0.8346 0.77904 0.0
Zn225 Zn 0.54385 0.87527 0.77368 0.0
O226 O 0.51662 0.85777 0.79076 0.0
O227 O 0.52993 0.82396 0.79518 0.0
O228 O 0.53145 0.90562 0.76372 0.0
O229 O 0.56788 0.83196 0.73381 0.0
O230 O 0.55556 0.86617 0.72919 0.0
C231 C 0.51397 0.83742 0.79823 0.0
C232 C 0.58273 0.86629 0.81777 0.0
O233 O 0.56823 0.88002 0.80787 0.0
O234 O 0.58245 0.84634 0.80861 0.0
C235 C 0.54168 0.92385 0.76785 0.0
O236 O 0.56134 0.92372 0.78127 0.0
C237 C 0.56457 0.84901 0.71708 0.0
Zn238 Zn 0.40173 0.29792 0.01047 0.0
Zn239 Zn 0.36024 0.29799 0.03079 0.0
O240 O 0.36766 0.26455 0.02893 0.0
O241 O 0.40231 0.26464 0.01266 0.0
O242 O 0.32738 0.29857 0.03987 0.0
O243 O 0.39442 0.31278 0.96999 0.0
O244 O 0.36012 0.31476 0.98778 0.0
C245 C 0.38524 0.25405 0.02146 0.0
C246 C 0.39639 0.31989 0.07062 0.0
O247 O 0.37629 0.31338 0.06844 0.0
O248 O 0.41001 0.31616 0.04841 0.0
C249 C 0.31656 0.28364 0.05451 0.0
O250 O 0.32733 0.26723 0.06801 0.0
C251 C 0.37458 0.31895 0.9666 0.0
Zn252 Zn 0.91345 0.16366 0.30504 0.0
Zn253 Zn 0.92556 0.12186 0.29323 0.0
O254 O 0.95526 0.136 0.30646 0.0
O255 O 0.94542 0.17048 0.31618 0.0
O256 O 0.93352 0.09027 0.28226 0.0
O257 O 0.90231 0.16804 0.26115 0.0
O258 O 0.91351 0.13401 0.2507 0.0
C259 C 0.96031 0.1557 0.31473 0.0
C260 C 0.89055 0.13236 0.34412 0.0
O261 O 0.90289 0.11829 0.33008 0.0
O262 O 0.89191 0.15275 0.33735 0.0
C263 C 0.94937 0.08599 0.26334 0.0
O264 O 0.96089 0.10246 0.25124 0.0
C265 C 0.90467 0.1522 0.24187 0.0
Zn266 Zn 0.07693 0.70168 0.50718 0.0
Zn267 Zn 0.11865 0.71195 0.49442 0.0
O268 O 0.10754 0.74263 0.50919 0.0
O269 O 0.07252 0.73405 0.51789 0.0
O270 O 0.15044 0.71546 0.48038 0.0
O271 O 0.07039 0.6904 0.46409 0.0
O272 O 0.10445 0.7008 0.45251 0.0
C273 C 0.088 0.74831 0.51749 0.0
C274 C 0.10694 0.67822 0.54682 0.0
O275 O 0.12128 0.68972 0.53182 0.0
O276 O 0.08656 0.68002 0.54023 0.0
C277 C 0.16466 0.72996 0.48848 0.0
O278 O 0.15903 0.74558 0.50862 0.0
C279 C 0.08588 0.69254 0.44416 0.0
Zn280 Zn 0.48007 0.16028 0.73411 0.0
Zn281 Zn 0.49907 0.12114 0.72642 0.0
O282 O 0.46496 0.11714 0.7224 0.0
O283 O 0.44895 0.14869 0.73445 0.0
O284 O 0.50972 0.08939 0.72499 0.0
O285 O 0.49643 0.1652 0.77475 0.0
O286 O 0.51263 0.13289 0.76785 0.0
C287 C 0.44738 0.1285 0.72674 0.0
C288 C 0.50933 0.15687 0.67862 0.0
O289 O 0.51334 0.13737 0.68879 0.0
O290 O 0.49526 0.16902 0.69272 0.0
C291 C 0.50068 0.07565 0.70613 0.0
O292 O 0.48579 0.08285 0.68587 0.0
C293 C 0.51021 0.1507 0.78372 0.0
Zn294 Zn 0.08543 0.32111 0.94019 0.0
Zn295 Zn 0.1267 0.31281 0.95331 0.0
O296 O 0.11557 0.28273 0.93491 0.0
O297 O 0.08194 0.29161 0.91927 0.0
O298 O 0.15781 0.30627 0.96837 0.0
O299 O 0.07609 0.32425 0.985 0.0
O300 O 0.1119 0.32328 -0.00483 0.0
C301 C 0.09733 0.27745 0.92152 0.0
C302 C 0.11569 0.35063 0.90863 0.0
O303 O 0.13032 0.33737 0.91937 0.0
O304 O 0.09547 0.34792 0.91582 0.0
C305 C 0.16016 0.29214 0.99053 0.0
O306 O 0.14252 0.28188 0.00151 0.0
C307 C 0.09194 0.32603 0.00433 0.0
Zn308 Zn 0.96656 0.83567 0.23309 0.0
Zn309 Zn 0.97047 0.87931 0.22259 0.0
O310 O 0.00195 0.86746 0.21296 0.0
O311 O -0.00021 0.83253 0.22808 0.0
O312 O 0.9734 0.91261 0.2186 0.0
O313 O 0.95334 0.84026 0.27611 0.0
O314 O 0.95983 0.87583 0.26898 0.0
C315 C 0.01111 0.84868 0.2177 0.0
C316 C 0.94016 0.85172 0.18049 0.0
O317 O 0.94752 0.87072 0.18841 0.0
O318 O 0.94634 0.83441 0.19499 0.0
C319 C 0.95817 0.92485 0.22997 0.0
O320 O 0.94067 0.91543 0.2428 0.0
C321 C 0.95308 0.85993 0.28645 0.0
Zn322 Zn 0.40637 0.76452 0.48106 0.0
Zn323 Zn 0.3658 0.75633 0.46409 0.0
O324 O 0.37023 0.79037 0.46083 0.0
O325 O 0.4016 0.79734 0.48526 0.0
O326 O 0.33299 0.75267 0.45642 0.0
O327 O 0.40469 0.74409 0.51836 0.0
O328 O 0.36925 0.74056 0.50717 0.0
C329 C 0.38445 0.80428 0.47116 0.0
C330 C 0.40269 0.74069 0.42153 0.0
O331 O 0.38216 0.73945 0.42857 0.0
O332 O 0.41584 0.75172 0.43888 0.0
C333 C 0.32448 0.73531 0.44444 0.0
O334 O 0.33756 0.71926 0.43479 0.0
C335 C 0.38582 0.73611 0.52477 0.0
Zn336 Zn 0.47712 0.16669 0.18641 0.0
Zn337 Zn 0.48355 0.12336 0.17872 0.0
O338 O 0.51451 0.13648 0.16901 0.0
O339 O 0.50978 0.17177 0.18032 0.0
O340 O 0.48823 0.09039 0.17948 0.0
O341 O 0.464 0.16307 0.22967 0.0
O342 O 0.4717 0.12766 0.22399 0.0
C343 C 0.5223 0.15607 0.17159 0.0
C344 C 0.45206 0.14754 0.13471 0.0
O345 O 0.46038 0.12916 0.14359 0.0
O346 O 0.45711 0.16547 0.1485 0.0
C347 C 0.48579 0.07685 0.15671 0.0
O348 O 0.48049 0.08435 0.12847 0.0
C349 C 0.46417 0.14356 0.24064 0.0
Zn350 Zn 0.5868 0.74108 0.95964 0.0
Zn351 Zn 0.62554 0.72433 0.94859 0.0
O352 O 0.62945 0.75874 0.94719 0.0
O353 O 0.59749 0.77219 0.96297 0.0
O354 O 0.65729 0.71402 0.94631 0.0
O355 O 0.58205 0.72324 -0.00132 0.0
O356 O 0.61536 0.7096 0.99057 0.0
C357 C 0.61732 0.77535 0.95436 0.0
C358 C 0.58911 0.71594 0.901 0.0
O359 O 0.60883 0.71139 0.90984 0.0
O360 O 0.57718 0.72882 0.91749 0.0
C361 C 0.6709 0.71856 0.9242 0.0
O362 O 0.66391 0.72942 0.89911 0.0
C363 C 0.59765 0.71055 0.00704 0.0
Zn364 Zn 0.01153 0.82272 0.72732 0.0
Zn365 Zn 0.02481 0.86383 0.73572 0.0
O366 O 0.99079 0.8647 0.74086 0.0
O367 O 0.98093 0.82969 0.74412 0.0
O368 O 0.03366 0.89472 0.74874 0.0
O369 O 0.03555 0.81078 0.7558 0.0
O370 O 0.04217 0.84562 0.7681 0.0
C371 C 0.9759 0.85004 0.74564 0.0
C372 C 0.03058 0.84278 0.67118 0.0
O373 O 0.03591 0.85843 0.69004 0.0
O374 O 0.0186 0.82686 0.68085 0.0
C375 C 0.03935 0.91116 0.73171 0.0
O376 O 0.04009 0.90902 0.70073 0.0
C377 C 0.0459 0.82505 0.77202 0.0
Zn378 Zn 0.89392 0.22943 0.51385 0.0
Zn379 Zn 0.85644 0.24957 0.51009 0.0
O380 O 0.85023 0.21561 0.50708 0.0
O381 O 0.88141 0.19905 0.51949 0.0
O382 O 0.82567 0.26258 0.51223 0.0
O383 O 0.90412 0.24693 0.55089 0.0
O384 O 0.87189 0.26381 0.54902 0.0
C385 C 0.86112 0.19783 0.51228 0.0
C386 C 0.88889 0.25596 0.45663 0.0
O387 O 0.87063 0.26181 0.46939 0.0
O388 O 0.90095 0.24149 0.46999 0.0
C389 C 0.82301 0.28334 0.51569 0.0
O390 O 0.84057 0.29625 0.51644 0.0
C391 C 0.89103 0.26153 0.56142 0.0
Zn392 Zn 0.46719 0.83993 0.28166 0.0
Zn393 Zn 0.47205 0.88001 0.25793 0.0
O394 O 0.50452 0.87084 0.26874 0.0
O395 O 0.49982 0.83697 0.28713 0.0
O396 O 0.4757 0.90885 0.23454 0.0
O397 O 0.45332 0.82752 0.24309 0.0
O398 O 0.45549 0.8614 0.22386 0.0
C399 C 0.51255 0.85284 0.27973 0.0
C400 C 0.44401 0.87403 0.3168 0.0
O401 O 0.45263 0.88745 0.29697 0.0
O402 O 0.44772 0.85342 0.31497 0.0
C403 C 0.48193 0.92698 0.24697 0.0
O404 O 0.48642 0.92761 0.27744 0.0
C405 C 0.44953 0.84119 0.22106 0.0
Zn406 Zn 0.89921 0.70737 0.05921 0.0
Zn407 Zn 0.86787 0.70472 0.02313 0.0
O408 O 0.86942 0.73842 0.03639 0.0
O409 O 0.90317 0.73974 0.05571 0.0
O410 O 0.84103 0.70392 0.99431 0.0
O411 O 0.91888 0.68827 0.03314 0.0
O412 O 0.89424 0.6932 -0.00453 0.0
C413 C 0.88585 0.74964 0.04679 0.0
C414 C 0.8665 0.68202 0.08754 0.0
O415 O 0.85994 0.68214 0.05883 0.0
O416 O 0.8823 0.69456 0.0957 0.0
C417 C 0.8219 0.70384 0.00705 0.0
O418 O 0.8204 0.70407 0.03813 0.0
C419 C 0.91322 0.68617 0.00445 0.0
Zn420 Zn 0.01447 0.14379 0.74613 0.0
Zn421 Zn 0.03727 0.10924 0.76136 0.0
O422 O 0.00403 0.10253 0.77083 0.0
O423 O 0.98473 0.13028 0.75176 0.0
O424 O 0.05047 0.07894 0.76692 0.0
O425 O 0.02749 0.14581 0.70318 0.0
O426 O 0.04779 0.11695 0.71602 0.0
C427 C 0.98532 0.11163 0.76534 0.0
C428 C 0.04493 0.1504 0.7995 0.0
O429 O 0.05105 0.13048 0.79422 0.0
O430 O 0.02961 0.15901 0.78299 0.0
C431 C 0.04709 0.06714 0.79141 0.0
O432 O 0.03684 0.07591 0.81586 0.0
C433 C 0.04234 0.13188 0.69617 0.0
Zn434 Zn 0.57836 0.31722 0.54246 0.0
Zn435 Zn 0.62036 0.30579 0.54992 0.0
O436 O 0.60521 0.27555 0.55809 0.0
O437 O 0.57024 0.28547 0.55305 0.0
O438 O 0.65344 0.30043 0.55111 0.0
O439 O 0.58198 0.32732 0.49791 0.0
O440 O 0.617 0.3182 0.50427 0.0
C441 C 0.5846 0.27068 0.55889 0.0
C442 C 0.59884 0.34022 0.59376 0.0
O443 O 0.61509 0.3275 0.58726 0.0
O444 O 0.58144 0.33966 0.57704 0.0
C445 C 0.66519 0.31789 0.54866 0.0
O446 O 0.65513 0.33718 0.54708 0.0
C447 C 0.60147 0.32604 0.48708 0.0
H448 H 0.02693 0.31498 0.16708 0.0
H449 H 0.06263 0.37303 0.19994 0.0
H450 H 0.08138 0.37602 0.14792 0.0
H451 H 0.06927 0.2909 0.12324 0.0
H452 H 0.05209 0.28166 0.09087 0.0
H453 H 0.04034 0.28487 0.12983 0.0
H454 H 0.01051 0.31166 0.10768 0.0
H455 H 0.02187 0.30816 0.06849 0.0
H456 H 0.01902 0.33556 0.08502 0.0
H457 H 0.0999 0.36928 0.09505 0.0
H458 H 0.11145 0.35778 0.04098 0.0
H459 H 0.06098 0.30656 0.04144 0.0
C460 C 0.03833 0.32859 0.163 0.0
C461 C 0.04341 0.34378 0.18728 0.0
C462 C 0.0584 0.36139 0.18135 0.0
C463 C 0.06924 0.3631 0.15205 0.0
C464 C 0.06443 0.34738 0.12886 0.0
C465 C 0.04882 0.33088 0.13367 0.0
C466 C 0.04651 0.3162 0.10485 0.0
C467 C 0.05241 0.29198 0.11269 0.0
C468 C 0.02309 0.31801 0.09067 0.0
C469 C 0.06367 0.32663 0.08341 0.0
C470 C 0.07408 0.3444 0.09779 0.0
C471 C 0.09158 0.35568 0.08327 0.0
C472 C 0.09816 0.34896 0.05284 0.0
C473 C 0.08692 0.33148 0.03735 0.0
C474 C 0.0696 0.32016 0.05286 0.0
H475 H 0.92844 0.83246 0.32407 0.0
H476 H 0.96095 0.89671 0.32288 0.0
H477 H 0.95138 0.90188 0.37941 0.0
H478 H 0.88309 0.84831 0.37931 0.0
H479 H 0.88322 0.82149 0.39822 0.0
H480 H 0.89058 0.82398 0.35693 0.0
H481 H 0.92804 0.80446 0.36816 0.0
H482 H 0.92085 0.80198 0.40939 0.0
H483 H 0.94627 0.81561 0.39804 0.0
H484 H 0.94317 0.8975 0.43726 0.0
H485 H 0.9345 0.88514 0.49175 0.0
H486 H 0.90515 0.82487 0.45461 0.0
C487 C 0.93324 0.84779 0.33555 0.0
C488 C 0.94553 0.86416 0.31919 0.0
C489 C 0.95148 0.88399 0.33498 0.0
C490 C 0.9461 0.88707 0.36704 0.0
C491 C 0.9344 0.87036 0.38266 0.0
C492 C 0.92773 0.85126 0.36732 0.0
C493 C 0.91627 0.83536 0.38981 0.0
C494 C 0.89183 0.8321 0.38051 0.0
C495 C 0.9286 0.81304 0.39144 0.0
C496 C 0.91832 0.8481 0.42054 0.0
C497 C 0.92877 0.86829 0.41587 0.0
C498 C 0.9345 0.88201 0.44112 0.0
C499 C 0.92961 0.87482 0.47193 0.0
C500 C 0.9189 0.85424 0.47716 0.0
C501 C 0.91282 0.84094 0.45111 0.0
H502 H 0.43109 0.65688 0.65972 0.0
H503 H 0.36565 0.65964 0.70168 0.0
H504 H 0.35115 0.67784 0.65336 0.0
H505 H 0.43013 0.7093 0.63186 0.0
H506 H 0.44533 0.70453 0.5957 0.0
H507 H 0.44947 0.68659 0.62919 0.0
H508 H 0.43938 0.65227 0.59517 0.0
H509 H 0.43565 0.67007 0.56124 0.0
H510 H 0.41358 0.65182 0.57362 0.0
H511 H 0.34507 0.70024 0.60401 0.0
H512 H 0.34813 0.72582 0.55822 0.0
H513 H 0.41838 0.71107 0.55126 0.0
C514 C 0.41351 0.66033 0.65788 0.0
C515 C 0.39923 0.65634 0.68365 0.0
C516 C 0.37658 0.66214 0.68159 0.0
C517 C 0.36826 0.67248 0.65432 0.0
C518 C 0.38294 0.67712 0.62966 0.0
C519 C 0.40511 0.67117 0.63116 0.0
C520 C 0.41813 0.68103 0.60391 0.0
C521 C 0.43685 0.69627 0.6159 0.0
C522 C 0.42721 0.6627 0.5822 0.0
C523 C 0.40006 0.69414 0.58764 0.0
C524 C 0.37977 0.69125 0.60229 0.0
C525 C 0.36083 0.70244 0.59211 0.0
C526 C 0.36272 0.71699 0.56624 0.0
C527 C 0.38351 0.72054 0.5515 0.0
C528 C 0.4023 0.70881 0.56227 0.0
H529 H 0.50539 0.1832 0.82797 0.0
H530 H 0.55049 0.13161 0.79664 0.0
H531 H 0.57946 0.14648 0.83228 0.0
H532 H 0.54343 0.2259 0.82978 0.0
H533 H 0.53259 0.23916 0.8648 0.0
H534 H 0.51453 0.22297 0.83998 0.0
H535 H 0.50339 0.19834 0.88784 0.0
H536 H 0.52097 0.21483 0.91305 0.0
H537 H 0.5247 0.1852 0.91117 0.0
H538 H 0.60478 0.16994 0.86676 0.0
H539 H 0.62267 0.19687 0.90292 0.0
H540 H 0.56043 0.23255 0.91092 0.0
C541 C 0.52116 0.17466 0.82916 0.0
C542 C 0.52571 0.15627 0.80956 0.0
C543 C 0.54659 0.14562 0.8117 0.0
C544 C 0.5632 0.15404 0.83167 0.0
C545 C 0.55848 0.1729 0.84955 0.0
C546 C 0.53779 0.18275 0.84897 0.0
C547 C 0.53705 0.20324 0.86951 0.0
C548 C 0.53158 0.22403 0.84983 0.0
C549 C 0.52056 0.20021 0.89703 0.0
C550 C 0.5607 0.20372 0.8812 0.0
C551 C 0.57287 0.18615 0.86946 0.0
C552 C 0.59533 0.18361 0.8764 0.0
C553 C 0.6054 0.1991 0.89668 0.0
C554 C 0.59293 0.21677 0.90975 0.0
C555 C 0.5704 0.21918 0.90142 0.0
H556 H 0.0195 0.63084 0.3081 0.0
H557 H 0.0479 0.67814 0.24201 0.0
H558 H 0.07155 0.69326 0.28474 0.0
H559 H 0.01535 0.66864 0.37172 0.0
H560 H 0.02146 0.64841 0.40196 0.0
H561 H 0.00875 0.63981 0.36541 0.0
H562 H 0.04061 0.61166 0.35631 0.0
H563 H 0.05351 0.62031 0.3928 0.0
H564 H 0.06893 0.62126 0.3562 0.0
H565 H 0.09164 0.70356 0.33504 0.0
H566 H 0.10289 0.71151 0.3904 0.0
H567 H 0.05913 0.65931 0.42368 0.0
C568 C 0.03092 0.64419 0.30261 0.0
C569 C 0.03209 0.65325 0.27186 0.0
C570 C 0.04681 0.67103 0.26555 0.0
C571 C 0.06041 0.67958 0.28955 0.0
C572 C 0.05883 0.67032 0.31973 0.0
C573 C 0.04422 0.65324 0.32642 0.0
C574 C 0.04417 0.64764 0.36135 0.0
C575 C 0.02106 0.65136 0.37596 0.0
C576 C 0.05229 0.6238 0.36698 0.0
C577 C 0.06079 0.66444 0.37332 0.0
C578 C 0.06947 0.67704 0.34891 0.0
C579 C 0.08498 0.69379 0.35437 0.0
C580 C 0.09134 0.69813 0.38577 0.0
C581 C 0.08177 0.68607 0.41109 0.0
C582 C 0.06662 0.66882 0.40467 0.0
H583 H 0.62774 0.79815 0.56957 0.0
H584 H 0.58165 0.83411 0.50994 0.0
H585 H 0.56777 0.85451 0.55674 0.0
H586 H 0.59019 0.78853 0.62938 0.0
H587 H 0.60959 0.79081 0.66171 0.0
H588 H 0.61915 0.78251 0.62314 0.0
H589 H 0.64761 0.81477 0.62289 0.0
H590 H 0.63821 0.82312 0.66167 0.0
H591 H 0.63819 0.84276 0.62944 0.0
H592 H 0.55649 0.86835 0.61049 0.0
H593 H 0.5467 0.87221 0.66731 0.0
H594 H 0.59811 0.82491 0.69162 0.0
C595 C 0.61528 0.81088 0.56636 0.0
C596 C 0.60598 0.81496 0.53633 0.0
C597 C 0.58907 0.83102 0.53291 0.0
C598 C 0.58118 0.84273 0.55927 0.0
C599 C 0.59023 0.83794 0.58885 0.0
C600 C 0.60684 0.8223 0.59257 0.0
C601 C 0.61157 0.81799 0.62722 0.0
C602 C 0.60736 0.79352 0.63585 0.0
C603 C 0.6353 0.82509 0.6358 0.0
C604 C 0.59459 0.83311 0.64234 0.0
C605 C 0.58284 0.84493 0.61991 0.0
C606 C 0.56572 0.85934 0.62832 0.0
C607 C 0.56026 0.86143 0.66055 0.0
C608 C 0.57156 0.84874 0.68364 0.0
C609 C 0.58913 0.83472 0.67437 0.0
H610 H 0.36978 0.29803 0.91146 0.0
H611 H 0.36888 0.36294 0.9546 0.0
H612 H 0.37221 0.38032 0.90161 0.0
H613 H 0.41126 0.30664 0.86585 0.0
H614 H 0.40266 0.29115 0.83143 0.0
H615 H 0.39167 0.28414 0.86955 0.0
H616 H 0.35157 0.28945 0.84903 0.0
H617 H 0.36241 0.29608 0.81029 0.0
H618 H 0.34386 0.31506 0.82994 0.0
H619 H 0.38598 0.38972 0.84742 0.0
H620 H 0.40837 0.39014 0.7982 0.0
H621 H 0.40141 0.31882 0.79093 0.0
C622 C 0.36882 0.31591 0.9093 0.0
C623 C 0.36845 0.32928 0.93653 0.0
C624 C 0.36842 0.35258 0.93363 0.0
C625 C 0.37036 0.36252 0.90364 0.0
C626 C 0.37217 0.34882 0.87706 0.0
C627 C 0.37096 0.32593 0.87963 0.0
C628 C 0.37769 0.31466 0.8491 0.0
C629 C 0.39696 0.29823 0.85433 0.0
C630 C 0.35768 0.30314 0.83367 0.0
C631 C 0.3849 0.33458 0.82998 0.0
C632 C 0.38083 0.35422 0.84587 0.0
C633 C 0.38863 0.37451 0.83436 0.0
C634 C 0.4014 0.37461 0.80647 0.0
C635 C 0.40661 0.35448 0.79101 0.0
C636 C 0.39755 0.33444 0.80232 0.0
H637 H 0.93201 0.16654 0.05995 0.0
H638 H 0.87148 0.20499 0.05163 0.0
H639 H 0.86206 0.19591 0.10724 0.0
H640 H 0.90839 0.12272 0.10946 0.0
H641 H 0.9334 0.11946 0.13236 0.0
H642 H 0.93498 0.12835 0.09161 0.0
H643 H 0.95699 0.16335 0.10854 0.0
H644 H 0.95568 0.15445 0.14922 0.0
H645 H 0.94552 0.1815 0.13828 0.0
H646 H 0.86119 0.18562 0.16469 0.0
H647 H 0.8685 0.17411 0.21999 0.0
H648 H 0.92799 0.1399 0.18954 0.0
C649 C 0.91678 0.17307 0.06984 0.0
C650 C 0.90254 0.18663 0.0517 0.0
C651 C 0.88261 0.19462 0.06525 0.0
C652 C 0.8771 0.18948 0.0967 0.0
C653 C 0.89149 0.176 0.11391 0.0
C654 C 0.91083 0.16776 0.1009 0.0
C655 C 0.92366 0.15399 0.12461 0.0
C656 C 0.92519 0.12969 0.11386 0.0
C657 C 0.94682 0.16393 0.13051 0.0
C658 C 0.90887 0.15635 0.15336 0.0
C659 C 0.89036 0.16907 0.14665 0.0
C660 C 0.87533 0.17526 0.1701 0.0
C661 C 0.8796 0.16867 0.20134 0.0
C662 C 0.89853 0.15582 0.20864 0.0
C663 C 0.91304 0.14914 0.18427 0.0
H664 H 0.96187 0.65413 0.8346 0.0
H665 H 0.02665 0.6544 0.87893 0.0
H666 H 0.009 0.65772 0.93172 0.0
H667 H 0.94066 0.69637 0.88089 0.0
H668 H 0.91275 0.68577 0.88337 0.0
H669 H 0.92988 0.67885 0.84988 0.0
H670 H 0.92394 0.637 0.86094 0.0
H671 H 0.90661 0.64378 0.8944 0.0
H672 H 0.9303 0.62594 0.8996 0.0
H673 H 0.98496 0.6643 0.97834 0.0
H674 H 0.95656 0.67651 0.01618 0.0
H675 H 0.90703 0.6753 0.94138 0.0
C676 C 0.97219 0.6541 0.85561 0.0
C677 C 0.99552 0.65345 0.85312 0.0
C678 C 0.00873 0.6545 0.88071 0.0
C679 C 0.99884 0.65632 0.91066 0.0
C680 C 0.97578 0.65746 0.91238 0.0
C681 C 0.96258 0.65655 0.88561 0.0
C682 C 0.93849 0.66115 0.89363 0.0
C683 C 0.92996 0.68176 0.87589 0.0
C684 C 0.92398 0.64075 0.88673 0.0
C685 C 0.9403 0.66536 0.92893 0.0
C686 C 0.96188 0.66261 0.93928 0.0
C687 C 0.96797 0.66632 0.97061 0.0
C688 C 0.95165 0.67331 0.99191 0.0
C689 C 0.9295 0.67692 0.98176 0.0
C690 C 0.92376 0.67262 0.94987 0.0
H691 H 0.06744 0.20194 0.54501 0.0
H692 H 0.13552 0.17876 0.54762 0.0
H693 H 0.12533 0.15219 0.59035 0.0
H694 H 0.05725 0.20111 0.62589 0.0
H695 H 0.02888 0.19212 0.62179 0.0
H696 H 0.04182 0.20769 0.59052 0.0
H697 H 0.03224 0.17625 0.55076 0.0
H698 H 0.01954 0.1604 0.58215 0.0
H699 H 0.04143 0.14836 0.55869 0.0
H700 H 0.10739 0.1304 0.63624 0.0
H701 H 0.08443 0.1174 0.68141 0.0
H702 H 0.02848 0.15447 0.64463 0.0
C703 C 0.08033 0.19133 0.55446 0.0
C704 C 0.10233 0.19256 0.54332 0.0
C705 C 0.11856 0.17812 0.55605 0.0
C706 C 0.11288 0.16292 0.58009 0.0
C707 C 0.09088 0.16218 0.59045 0.0
C708 C 0.07492 0.17602 0.57779 0.0
C709 C 0.05267 0.173 0.59345 0.0
C710 C 0.04471 0.19476 0.60883 0.0
C711 C 0.03546 0.16396 0.56985 0.0
C712 C 0.05865 0.15585 0.61793 0.0
C713 C 0.08063 0.14948 0.61576 0.0
C714 C 0.09009 0.13502 0.63779 0.0
C715 C 0.07692 0.12763 0.66325 0.0
C716 C 0.05471 0.13497 0.66639 0.0
C717 C 0.04538 0.14851 0.64274 0.0
H718 H 0.57587 0.35306 0.45047 0.0
H719 H 0.63646 0.31429 0.44914 0.0
H720 H 0.64084 0.3223 0.39197 0.0
H721 H 0.55479 0.33515 0.3801 0.0
H722 H 0.54323 0.36131 0.3677 0.0
H723 H 0.54676 0.35554 0.40918 0.0
H724 H 0.57032 0.39123 0.41551 0.0
H725 H 0.56678 0.3972 0.37393 0.0
H726 H 0.59425 0.39542 0.39056 0.0
H727 H 0.63476 0.32855 0.33419 0.0
H728 H 0.62009 0.33483 0.28022 0.0
H729 H 0.56493 0.37178 0.31931 0.0
C730 C 0.59034 0.34665 0.4383 0.0
C731 C 0.60579 0.33298 0.45411 0.0
C732 C 0.62448 0.32488 0.43746 0.0
C733 C 0.62711 0.32938 0.40503 0.0
C734 C 0.61119 0.34241 0.38994 0.0
C735 C 0.59337 0.35126 0.40616 0.0
C736 C 0.5777 0.36334 0.38405 0.0
C737 C 0.55425 0.35322 0.38534 0.0
C738 C 0.57725 0.38828 0.39146 0.0
C739 C 0.58885 0.35888 0.35257 0.0
C740 C 0.60826 0.34693 0.35653 0.0
C741 C 0.62 0.33847 0.3308 0.0
C742 C 0.61153 0.34202 0.30032 0.0
C743 C 0.5917 0.35413 0.29589 0.0
C744 C 0.58052 0.36311 0.32222 0.0
H745 H 0.44981 0.79939 0.19769 0.0
H746 H 0.42357 0.86517 0.1799 0.0
H747 H 0.40298 0.85065 0.13338 0.0
H748 H 0.45922 0.78592 0.1172 0.0
H749 H 0.45231 0.75704 0.1222 0.0
H750 H 0.4633 0.77257 0.15502 0.0
H751 H 0.42902 0.76161 0.18881 0.0
H752 H 0.41777 0.74628 0.15588 0.0
H753 H 0.40159 0.76781 0.17437 0.0
H754 H 0.3853 0.82837 0.08876 0.0
H755 H 0.37668 0.80192 0.04553 0.0
H756 H 0.41657 0.75179 0.09211 0.0
C757 C 0.4396 0.81073 0.18415 0.0
C758 C 0.43805 0.83332 0.19242 0.0
C759 C 0.42493 0.84778 0.17382 0.0
C760 C 0.41306 0.83964 0.14762 0.0
C761 C 0.41476 0.81713 0.14035 0.0
C762 C 0.42802 0.80301 0.15785 0.0
C763 C 0.42853 0.77995 0.14395 0.0
C764 C 0.45224 0.77351 0.13399 0.0
C765 C 0.41863 0.76291 0.16714 0.0
C766 C 0.41369 0.78328 0.11557 0.0
C767 C 0.40547 0.80467 0.11419 0.0
C768 C 0.39162 0.81159 0.08964 0.0
C769 C 0.38669 0.79645 0.06536 0.0
C770 C 0.396 0.77491 0.06566 0.0
C771 C 0.40923 0.76818 0.09142 0.0
H772 H 0.98696 0.31891 0.65867 0.0
H773 H 0.94255 0.37361 0.67948 0.0
H774 H 0.91305 0.35522 0.64809 0.0
H775 H 0.96749 0.30729 0.57862 0.0
H776 H 0.97085 0.27783 0.58394 0.0
H777 H 0.98856 0.29683 0.60496 0.0
H778 H 0.97693 0.27831 0.65798 0.0
H779 H 0.95872 0.25967 0.63723 0.0
H780 H 0.94797 0.27698 0.66847 0.0
H781 H 0.88766 0.32886 0.61659 0.0
H782 H 0.87026 0.29894 0.58482 0.0
H783 H 0.9317 0.26157 0.5891 0.0
C784 C 0.97122 0.32736 0.65617 0.0
C785 C 0.9671 0.34774 0.67147 0.0
C786 C 0.94616 0.35807 0.6677 0.0
C787 C 0.92926 0.34766 0.65014 0.0
C788 C 0.93365 0.327 0.63663 0.0
C789 C 0.95426 0.31717 0.63923 0.0
C790 C 0.95478 0.29458 0.62392 0.0
C791 C 0.97139 0.29412 0.59621 0.0
C792 C 0.9599 0.27632 0.64837 0.0
C793 C 0.93118 0.29306 0.61236 0.0
C794 C 0.91914 0.31185 0.61971 0.0
C795 C 0.89698 0.31409 0.61073 0.0
C796 C 0.88718 0.29694 0.59294 0.0
C797 C 0.89957 0.27785 0.58457 0.0
C798 C 0.92166 0.27583 0.59518 0.0
H799 H 0.43541 0.16928 0.27436 0.0
H800 H 0.47354 0.10837 0.27929 0.0
H801 H 0.46074 0.10261 0.33439 0.0
H802 H 0.44608 0.18803 0.35067 0.0
H803 H 0.41876 0.1991 0.35765 0.0
H804 H 0.42933 0.19731 0.31786 0.0
H805 H 0.39496 0.17423 0.30121 0.0
H806 H 0.38427 0.17593 0.34106 0.0
H807 H 0.38818 0.14925 0.32266 0.0
H808 H 0.44806 0.10629 0.3905 0.0
H809 H 0.43435 0.11791 0.44319 0.0
H810 H 0.40207 0.17478 0.4006 0.0
C811 C 0.44088 0.15461 0.28693 0.0
C812 C 0.45555 0.13932 0.27275 0.0
C813 C 0.46226 0.12025 0.28979 0.0
C814 C 0.45505 0.11683 0.32101 0.0
C815 C 0.4408 0.13239 0.33445 0.0
C816 C 0.43353 0.15074 0.31783 0.0
C817 C 0.41893 0.16541 0.33809 0.0
C818 C 0.42888 0.18884 0.34125 0.0
C819 C 0.39517 0.16625 0.32497 0.0
C820 C 0.41984 0.15291 0.36914 0.0
C821 C 0.4325 0.13387 0.36651 0.0
C822 C 0.43765 0.12082 0.39272 0.0
C823 C 0.42988 0.12756 0.42248 0.0
C824 C 0.4169 0.14695 0.42557 0.0
C825 C 0.41143 0.15952 0.39854 0.0
H826 H 0.54511 0.68185 0.17356 0.0
H827 H 0.59134 0.62733 0.1825 0.0
H828 H 0.60444 0.63415 0.12739 0.0
H829 H 0.53196 0.67335 0.08793 0.0
H830 H 0.52994 0.70283 0.08146 0.0
H831 H 0.52256 0.69123 0.11942 0.0
H832 H 0.55044 0.71787 0.14662 0.0
H833 H 0.55828 0.72921 0.10882 0.0
H834 H 0.57913 0.71759 0.13451 0.0
H835 H 0.61611 0.65138 0.07424 0.0
H836 H 0.6221 0.67422 0.026 0.0
H837 H 0.56686 0.71617 0.05321 0.0
C838 C 0.55751 0.67092 0.16349 0.0
C839 C 0.56722 0.65404 0.18182 0.0
C840 C 0.58355 0.64014 0.16836 0.0
C841 C 0.59113 0.644 0.13726 0.0
C842 C 0.58178 0.66149 0.12013 0.0
C843 C 0.56492 0.67434 0.13263 0.0
C844 C 0.55832 0.69285 0.11053 0.0
C845 C 0.53427 0.68988 0.09915 0.0
C846 C 0.56176 0.71572 0.12606 0.0
C847 C 0.57462 0.68902 0.084 0.0
C848 C 0.58805 0.6709 0.08972 0.0
C849 C 0.60537 0.66532 0.06925 0.0
C850 C 0.60876 0.67846 0.04209 0.0
C851 C 0.59484 0.69685 0.03578 0.0
C852 C 0.5776 0.70204 0.05709 0.0
H853 H 0.05397 0.84434 0.82884 0.0
H854 H 0.07327 0.78907 0.76939 0.0
H855 H 0.09855 0.77573 0.81147 0.0
H856 H 0.10772 0.85157 0.8731 0.0
H857 H 0.09322 0.85687 0.9097 0.0
H858 H 0.08107 0.86508 0.87244 0.0
H859 H 0.0456 0.84251 0.88573 0.0
H860 H 0.05754 0.83448 0.92295 0.0
H861 H 0.0481 0.81353 0.89563 0.0
H862 H 0.11802 0.76601 0.86191 0.0
H863 H 0.12494 0.75737 0.91847 0.0
H864 H 0.09028 0.81722 0.94579 0.0
C865 C 0.06409 0.82984 0.82439 0.0
C866 C 0.06204 0.81786 0.79593 0.0
C867 C 0.07481 0.79848 0.79114 0.0
C868 C 0.08935 0.79096 0.81472 0.0
C869 C 0.09073 0.80293 0.84292 0.0
C870 C 0.0782 0.82183 0.84796 0.0
C871 C 0.0795 0.82943 0.88203 0.0
C872 C 0.09107 0.85208 0.88444 0.0
C873 C 0.05632 0.82999 0.89747 0.0
C874 C 0.09378 0.81124 0.89576 0.0
C875 C 0.10089 0.79662 0.87264 0.0
C876 C 0.11289 0.77753 0.88014 0.0
C877 C 0.11683 0.77279 0.91221 0.0
C878 C 0.1082 0.78678 0.93605 0.0
C879 C 0.09727 0.80654 0.92772 0.0
H880 H 0.10413 0.32021 0.3117 0.0
H881 H 0.06954 0.36882 0.36853 0.0
H882 H 0.09733 0.36441 0.41082 0.0
H883 H 0.11015 0.28338 0.36195 0.0
H884 H 0.13775 0.27362 0.35306 0.0
H885 H 0.12225 0.28762 0.32325 0.0
H886 H 0.15405 0.31616 0.31678 0.0
H887 H 0.16967 0.30212 0.34724 0.0
H888 H 0.16396 0.33135 0.35073 0.0
H889 H 0.11747 0.34505 0.45193 0.0
H890 H 0.12527 0.31276 0.48551 0.0
H891 H 0.15022 0.27715 0.40413 0.0
C892 C 0.10314 0.33064 0.33252 0.0
C893 C 0.0847 0.34462 0.33715 0.0
C894 C 0.08363 0.35805 0.36451 0.0
C895 C 0.0995 0.35574 0.38858 0.0
C896 C 0.11659 0.34034 0.38455 0.0
C897 C 0.11888 0.32844 0.35664 0.0
C898 C 0.13542 0.30973 0.36037 0.0
C899 C 0.12577 0.28731 0.34908 0.0
C900 C 0.15706 0.31518 0.34274 0.0
C901 C 0.13898 0.31045 0.39591 0.0
C902 C 0.12915 0.3291 0.40916 0.0
C903 C 0.12589 0.33086 0.44184 0.0
C904 C 0.13043 0.3124 0.4609 0.0
C905 C 0.13808 0.29246 0.44714 0.0
C906 C 0.14467 0.29238 0.4151 0.0
H907 H 0.8955 0.8932 0.63692 0.0
H908 H 0.86339 0.83051 0.65452 0.0
H909 H 0.87323 0.83291 0.71059 0.0
H910 H 0.93877 0.88458 0.6614 0.0
H911 H 0.94734 0.90885 0.68325 0.0
H912 H 0.92618 0.91129 0.65415 0.0
H913 H 0.89933 0.92764 0.69553 0.0
H914 H 0.92084 0.92557 0.7251 0.0
H915 H 0.89411 0.91309 0.73211 0.0
H916 H 0.90216 0.82986 0.74899 0.0
H917 H 0.94083 0.82466 0.76523 0.0
H918 H 0.95768 0.88897 0.7268 0.0
C919 C 0.88914 0.88102 0.65346 0.0
C920 C 0.87949 0.86142 0.64158 0.0
C921 C 0.87102 0.84563 0.6631 0.0
C922 C 0.87677 0.84685 0.69523 0.0
C923 C 0.89055 0.86416 0.7053 0.0
C924 C 0.89568 0.8818 0.68534 0.0
C925 C 0.91512 0.89505 0.69828 0.0
C926 C 0.93288 0.90013 0.67276 0.0
C927 C 0.90685 0.9166 0.71369 0.0
C928 C 0.92339 0.87914 0.72344 0.0
C929 C 0.90805 0.86239 0.72894 0.0
C930 C 0.91386 0.8433 0.74581 0.0
C931 C 0.93601 0.84035 0.75478 0.0
C932 C 0.9522 0.85639 0.74688 0.0
C933 C 0.94544 0.87668 0.73341 0.0
H934 H 0.41163 0.66115 0.97363 0.0
H935 H 0.34419 0.68187 0.95495 0.0
H936 H 0.33871 0.64915 0.92126 0.0
H937 H 0.42643 0.65377 0.90482 0.0
H938 H 0.44354 0.62935 0.9083 0.0
H939 H 0.4389 0.64627 0.94222 0.0
H940 H 0.42378 0.61231 0.97289 0.0
H941 H 0.42838 0.59514 0.93849 0.0
H942 H 0.40132 0.59619 0.95662 0.0
H943 H 0.34466 0.62605 0.87565 0.0
H944 H 0.3617 0.6184 0.82396 0.0
H945 H 0.42552 0.61074 0.8685 0.0
C946 C 0.39535 0.65807 0.96378 0.0
C947 C 0.37845 0.67413 0.96661 0.0
C948 C 0.35743 0.66981 0.95313 0.0
C949 C 0.35414 0.65108 0.93405 0.0
C950 C 0.37195 0.6367 0.92882 0.0
C951 C 0.39211 0.63972 0.94399 0.0
C952 C 0.41012 0.62573 0.92884 0.0
C953 C 0.4309 0.63964 0.92051 0.0
C954 C 0.41625 0.60618 0.9505 0.0
C955 C 0.39797 0.61758 0.89962 0.0
C956 C 0.37554 0.62269 0.90125 0.0
C957 C 0.3619 0.62115 0.87459 0.0
C958 C 0.37166 0.6166 0.84518 0.0
C959 C 0.39479 0.61363 0.84273 0.0
C960 C 0.40767 0.61211 0.87042 0.0
H961 H 0.60128 0.2403 0.09185 0.0
H962 H 0.63113 0.18491 0.04253 0.0
H963 H 0.61493 0.15911 0.08182 0.0
H964 H 0.60329 0.2141 0.17598 0.0
H965 H 0.57696 0.22668 0.18518 0.0
H966 H 0.59632 0.2408 0.15954 0.0
H967 H 0.56591 0.24371 0.1164 0.0
H968 H 0.54665 0.22943 0.14148 0.0
H969 H 0.55256 0.21879 0.10244 0.0
H970 H 0.58727 0.13944 0.11621 0.0
H971 H 0.55307 0.12816 0.14429 0.0
H972 H 0.54243 0.19643 0.17273 0.0
C973 C 0.60527 0.22282 0.09031 0.0
C974 C 0.61743 0.21454 0.06437 0.0
C975 C 0.6221 0.19159 0.06257 0.0
C976 C 0.61292 0.17682 0.08478 0.0
C977 C 0.59966 0.18539 0.10901 0.0
C978 C 0.5964 0.20799 0.1124 0.0
C979 C 0.57902 0.21296 0.13726 0.0
C980 C 0.58953 0.2243 0.16621 0.0
C981 C 0.55993 0.22702 0.12354 0.0
C982 C 0.57154 0.18969 0.14525 0.0
C983 C 0.58396 0.17393 0.12941 0.0
C984 C 0.57792 0.15156 0.12958 0.0
C985 C 0.5584 0.14529 0.14551 0.0
C986 C 0.54508 0.1614 0.16078 0.0
C987 C 0.55237 0.18365 0.16166 0.0
H988 H 0.00737 0.63627 0.08864 0.0
H989 H 0.05875 0.60637 0.14598 0.0
H990 H 0.08722 0.62192 0.11036 0.0
H991 H 0.04108 0.63614 0.00798 0.0
H992 H 0.02884 0.66254 -0.00172 0.0
H993 H 0.0129 0.64202 0.01952 0.0
H994 H 0.00508 0.67082 0.06345 0.0
H995 H 0.02125 0.69118 0.04305 0.0
H996 H 0.02805 0.68399 0.0834 0.0
H997 H 0.1092 0.65029 0.0814 0.0
H998 H 0.12211 0.68617 0.0599 0.0
H999 H 0.05672 0.69791 0.02081 0.0
C1000 C 0.02458 0.6319 0.09244 0.0
C1001 C 0.0309 0.62017 0.11991 0.0
C1002 C 0.05352 0.61505 0.12477 0.0
C1003 C 0.06984 0.62392 0.10464 0.0
C1004 C 0.06319 0.63737 0.0794 0.0
C1005 C 0.04095 0.64073 0.0726 0.0
C1006 C 0.03792 0.65896 0.04826 0.0
C1007 C 0.02971 0.64933 0.01663 0.0
C1008 C 0.02219 0.6773 0.06032 0.0
C1009 C 0.06157 0.66712 0.04538 0.0
C1010 C 0.07608 0.65396 0.06244 0.0
C1011 C 0.09816 0.66025 0.06705 0.0
C1012 C 0.10536 0.68073 0.05487 0.0
C1013 C 0.09038 0.69484 0.03878 0.0
C1014 C 0.06857 0.68739 0.03284 0.0
H1015 H 0.53553 0.81467 0.27692 0.0
H1016 H 0.54288 0.88451 0.29802 0.0
H1017 H 0.57988 0.87708 0.32126 0.0
H1018 H 0.55178 0.7959 0.34495 0.0
H1019 H 0.56633 0.77156 0.33146 0.0
H1020 H 0.54484 0.78321 0.30752 0.0
H1021 H 0.57218 0.78689 0.26035 0.0
H1022 H 0.59393 0.7751 0.28435 0.0
H1023 H 0.59794 0.80164 0.2655 0.0
H1024 H 0.61046 0.86074 0.35429 0.0
H1025 H 0.62979 0.83772 0.39416 0.0
H1026 H 0.60231 0.77855 0.35155 0.0
C1027 C 0.5454 0.82852 0.2852 0.0
C1028 C 0.5365 0.85012 0.28572 0.0
C1029 C 0.5496 0.86787 0.29705 0.0
C1030 C 0.57064 0.86376 0.31025 0.0
C1031 C 0.57841 0.84191 0.3112 0.0
C1032 C 0.56625 0.82464 0.29835 0.0
C1033 C 0.57596 0.80233 0.30698 0.0
C1034 C 0.55871 0.78742 0.32374 0.0
C1035 C 0.58558 0.79082 0.27754 0.0
C1036 C 0.59421 0.80956 0.32922 0.0
C1037 C 0.59604 0.83244 0.33046 0.0
C1038 C 0.60966 0.84285 0.35276 0.0
C1039 C 0.62069 0.82965 0.37528 0.0
C1040 C 0.61757 0.8064 0.37563 0.0
C1041 C 0.60519 0.79628 0.35131 0.0
H1042 H 0.44312 0.22952 0.55729 0.0
H1043 H 0.37691 0.24787 0.52678 0.0
H1044 H 0.38158 0.28461 0.55206 0.0
H1045 H 0.43938 0.25087 0.63142 0.0
H1046 H 0.46766 0.26039 0.63407 0.0
H1047 H 0.46082 0.2376 0.60847 0.0
H1048 H 0.4777 0.25847 0.56005 0.0
H1049 H 0.48523 0.28092 0.58614 0.0
H1050 H 0.46872 0.28626 0.55135 0.0
H1051 H 0.39205 0.31771 0.58662 0.0
H1052 H 0.40634 0.34234 0.62909 0.0
H1053 H 0.46487 0.30109 0.63728 0.0
C1054 C 0.42977 0.24142 0.55512 0.0
C1055 C 0.40968 0.23581 0.53991 0.0
C1056 C 0.39252 0.25182 0.53814 0.0
C1057 C 0.39506 0.27277 0.55234 0.0
C1058 C 0.4149 0.27751 0.56796 0.0
C1059 C 0.43198 0.26224 0.56922 0.0
C1060 C 0.45066 0.27015 0.59025 0.0
C1061 C 0.45485 0.25378 0.61767 0.0
C1062 C 0.47184 0.27419 0.5708 0.0
C1063 C 0.441 0.29173 0.60197 0.0
C1064 C 0.42065 0.29611 0.58828 0.0
C1065 C 0.40813 0.31459 0.5971 0.0
C1066 C 0.41637 0.32853 0.62113 0.0
C1067 C 0.43667 0.32356 0.63636 0.0
C1068 C 0.44932 0.3053 0.62594 0.0
H1069 H 0.94373 0.12832 0.75984 0.0
H1070 H 0.98159 0.07775 0.80846 0.0
H1071 H 0.95338 0.07626 0.85026 0.0
H1072 H 0.9376 0.15994 0.81482 0.0
H1073 H 0.90954 0.16972 0.80987 0.0
H1074 H 0.92414 0.15882 0.77662 0.0
H1075 H 0.89317 0.12995 0.76709 0.0
H1076 H 0.87806 0.14111 0.80039 0.0
H1077 H 0.88445 0.11194 0.79887 0.0
H1078 H 0.93389 0.09156 0.89475 0.0
H1079 H 0.92389 0.11975 0.93429 0.0
H1080 H 0.89698 0.16145 0.86047 0.0
C1081 C 0.94531 0.11602 0.77839 0.0
C1082 C 0.965 0.10353 0.78132 0.0
C1083 C 0.96669 0.08759 0.80575 0.0
C1084 C 0.9506 0.08662 0.82969 0.0
C1085 C 0.93283 0.10147 0.82859 0.0
C1086 C 0.92961 0.1154 0.80284 0.0
C1087 C 0.91278 0.13334 0.81044 0.0
C1088 C 0.92159 0.15679 0.80253 0.0
C1089 C 0.89081 0.1288 0.79318 0.0
C1090 C 0.91015 0.12977 0.84579 0.0
C1091 C 0.92077 0.11049 0.85542 0.0
C1092 C 0.92472 0.1061 0.88742 0.0
C1093 C 0.91911 0.12226 0.90978 0.0
C1094 C 0.90947 0.14248 0.90014 0.0
C1095 C 0.90365 0.14568 0.86817 0.0
H1096 H 0.99681 0.72172 0.70902 0.0
H1097 H 0.96032 0.66295 0.68036 0.0
H1098 H 0.93966 0.68545 0.64107 0.0
H1099 H 0.9515 0.75976 0.70285 0.0
H1100 H 0.96861 0.78215 0.68849 0.0
H1101 H 0.98033 0.76128 0.71396 0.0
H1102 H 0.01066 0.75264 0.67172 0.0
H1103 H 0.99906 0.77413 0.64728 0.0
H1104 H 0.00232 0.74647 0.63163 0.0
H1105 H 0.9223 0.71516 0.60571 0.0
H1106 H 0.90993 0.7491 0.57778 0.0
H1107 H 0.95917 0.78745 0.62907 0.0
C1108 C 0.98449 0.71346 0.69455 0.0
C1109 C 0.9802 0.69051 0.69784 0.0
C1110 C 0.9639 0.6805 0.67832 0.0
C1111 C 0.95211 0.69315 0.65591 0.0
C1112 C 0.9569 0.71573 0.65324 0.0
C1113 C 0.97272 0.72575 0.6721 0.0
C1114 C 0.97469 0.75028 0.66507 0.0
C1115 C 0.9684 0.76418 0.69433 0.0
C1116 C 0.99807 0.7562 0.65318 0.0
C1117 C 0.95761 0.75256 0.63904 0.0
C1118 C 0.94738 0.73253 0.63263 0.0
C1119 C 0.93034 0.73087 0.61039 0.0
C1120 C 0.92344 0.75023 0.59461 0.0
C1121 C 0.9337 0.77091 0.60098 0.0
C1122 C 0.95118 0.77188 0.62324 0.0
H1123 H 0.97546 0.1954 0.33708 0.0
H1124 H 0.99749 0.12919 0.31197 0.0
H1125 H 0.03564 0.139 0.32858 0.0
H1126 H 0.0262 0.22559 0.31437 0.0
H1127 H 0.02374 0.24411 0.34772 0.0
H1128 H 0.99924 0.23244 0.32993 0.0
H1129 H 0.98723 0.21644 0.38492 0.0
H1130 H 0.0116 0.22866 0.40226 0.0
H1131 H 0.00643 0.19937 0.40667 0.0
H1132 H 0.07082 0.1554 0.35261 0.0
H1133 H 0.09861 0.17585 0.38445 0.0
H1134 H 0.05273 0.23091 0.39315 0.0
C1135 C 0.98832 0.18301 0.33451 0.0
C1136 C 0.98347 0.16153 0.32311 0.0
C1137 C 0.00081 0.14578 0.32059 0.0
C1138 C 0.02255 0.15124 0.3298 0.0
C1139 C 0.02668 0.17254 0.34128 0.0
C1140 C 0.00998 0.18814 0.34362 0.0
C1141 C 0.01804 0.20917 0.35933 0.0
C1142 C 0.01673 0.229 0.33647 0.0
C1143 C 0.00507 0.21367 0.39012 0.0
C1144 C 0.04182 0.20288 0.36609 0.0
C1145 C 0.04668 0.18183 0.35521 0.0
C1146 C 0.06727 0.17201 0.36084 0.0
C1147 C 0.08299 0.18378 0.37885 0.0
C1148 C 0.0779 0.20501 0.39124 0.0
C1149 C 0.05726 0.2148 0.38385 0.0
H1150 H 0.65758 0.29837 0.03857 0.0
H1151 H 0.61977 0.33497 0.96918 0.0
H1152 H 0.61534 0.36571 0.007 0.0
H1153 H 0.6228 0.30273 0.09226 0.0
H1154 H 0.64019 0.3055 0.1268 0.0
H1155 H 0.65092 0.29251 0.09203 0.0
H1156 H 0.68342 0.32048 0.08976 0.0
H1157 H 0.67308 0.33344 0.12536 0.0
H1158 H 0.67787 0.34985 0.09027 0.0
H1159 H 0.60343 0.38508 0.05522 0.0
H1160 H 0.58516 0.39007 0.10723 0.0
H1161 H 0.62708 0.33913 0.1473 0.0
C1162 C 0.6499 0.31364 0.03071 0.0
C1163 C 0.63935 0.31457 0.00097 0.0
C1164 C 0.62837 0.33422 0.9917 0.0
C1165 C 0.62573 0.35174 0.0132 0.0
C1166 C 0.634 0.34926 0.04391 0.0
C1167 C 0.64627 0.33074 0.05254 0.0
C1168 C 0.64815 0.32886 0.08829 0.0
C1169 C 0.63999 0.30609 0.10049 0.0
C1170 C 0.67205 0.33344 0.09905 0.0
C1171 C 0.63288 0.34746 0.09833 0.0
C1172 C 0.62591 0.35988 0.0726 0.0
C1173 C 0.60934 0.37596 0.07563 0.0
C1174 C 0.59899 0.37871 0.10523 0.0
C1175 C 0.60486 0.36497 0.13099 0.0
C1176 C 0.62261 0.34996 0.12783 0.0
H1177 H 0.44223 0.75142 0.89559 0.0
H1178 H 0.39305 0.80272 0.9105 0.0
H1179 H 0.41316 0.82717 0.8728 0.0
H1180 H 0.48802 0.78437 0.89475 0.0
H1181 H 0.50267 0.76964 0.86405 0.0
H1182 H 0.48266 0.75531 0.88818 0.0
H1183 H 0.46064 0.7433 0.83785 0.0
H1184 H 0.48129 0.75703 0.81383 0.0
H1185 H 0.45242 0.76404 0.80948 0.0
H1186 H 0.4423 0.84771 0.83931 0.0
H1187 H 0.47586 0.86121 0.81127 0.0
H1188 H 0.50451 0.79538 0.81787 0.0
C1189 C 0.43537 0.7676 0.89033 0.0
C1190 C 0.41612 0.77521 0.90589 0.0
C1191 C 0.40767 0.7965 0.89852 0.0
C1192 C 0.41903 0.8105 0.87724 0.0
C1193 C 0.43848 0.80272 0.8631 0.0
C1194 C 0.44627 0.78154 0.86896 0.0
C1195 C 0.46808 0.77735 0.85239 0.0
C1196 C 0.48643 0.77132 0.87627 0.0
C1197 C 0.46546 0.75936 0.82687 0.0
C1198 C 0.47206 0.79981 0.83761 0.0
C1199 C 0.45477 0.81424 0.8436 0.0
C1200 C 0.45571 0.83639 0.83399 0.0
C1201 C 0.47486 0.84394 0.81814 0.0
C1202 C 0.49283 0.82937 0.81222 0.0
C1203 C 0.49106 0.80697 0.8217 0.0
H1204 H 0.96784 0.24676 0.90789 0.0
H1205 H 0.90182 0.2729 0.92448 0.0
H1206 H 0.91252 0.30785 0.89781 0.0
H1207 H 0.99887 0.2997 0.91572 0.0
H1208 H 0.01757 0.29214 0.88416 0.0
H1209 H 0.00532 0.27096 0.90875 0.0
H1210 H 0.99055 0.25171 0.85792 0.0
H1211 H 0.002 0.27333 0.83348 0.0
H1212 H 0.97284 0.26698 0.83129 0.0
H1213 H 0.92971 0.33898 0.86598 0.0
H1214 H 0.95068 0.36202 0.82776 0.0
H1215 H 0.00488 0.31477 0.83086 0.0
C1216 C 0.95576 0.26 0.90653 0.0
C1217 C 0.93405 0.25718 0.91855 0.0
C1218 C 0.91857 0.27472 0.91555 0.0
C1219 C 0.92454 0.29468 0.90061 0.0
C1220 C 0.94603 0.29683 0.88874 0.0
C1221 C 0.96136 0.27989 0.89141 0.0
C1222 C 0.9826 0.28541 0.87393 0.0
C1223 C 0.00225 0.28716 0.89702 0.0
C1224 C 0.98725 0.26835 0.84761 0.0
C1225 C 0.97664 0.30787 0.86034 0.0
C1226 C 0.95567 0.31441 0.86964 0.0
C1227 C 0.94624 0.33413 0.8588 0.0
C1228 C 0.95831 0.34717 0.83719 0.0
C1229 C 0.97942 0.34024 0.82632 0.0
C1230 C 0.98883 0.32061 0.83879 0.0
H1231 H 0.44006 0.09397 0.6871 0.0
H1232 H 0.40617 0.14513 0.73993 0.0
H1233 H 0.37375 0.1413 0.70528 0.0
H1234 H 0.43435 0.11276 0.62171 0.0
H1235 H 0.42883 0.08864 0.59762 0.0
H1236 H 0.44268 0.08543 0.63456 0.0
H1237 H 0.4128 0.0576 0.65313 0.0
H1238 H 0.39871 0.0607 0.61566 0.0
H1239 H 0.38391 0.0652 0.65223 0.0
H1240 H 0.35423 0.14475 0.65574 0.0
H1241 H 0.35231 0.15602 0.5998 0.0
H1242 H 0.39798 0.10383 0.57484 0.0
C1243 C 0.42521 0.10328 0.69245 0.0
C1244 C 0.42568 0.11999 0.71579 0.0
C1245 C 0.4062 0.13225 0.72204 0.0
C1246 C 0.38758 0.13005 0.70246 0.0
C1247 C 0.38863 0.11548 0.67677 0.0
C1248 C 0.40682 0.10172 0.67225 0.0
C1249 C 0.40684 0.09201 0.6391 0.0
C1250 C 0.42948 0.09498 0.62231 0.0
C1251 C 0.40015 0.06742 0.6401 0.0
C1252 C 0.38864 0.10577 0.62405 0.0
C1253 C 0.37709 0.11782 0.64667 0.0
C1254 C 0.36256 0.13486 0.63797 0.0
C1255 C 0.36145 0.14118 0.60599 0.0
C1256 C 0.37513 0.13072 0.5834 0.0
C1257 C 0.38722 0.11169 0.59204 0.0
H1258 H 0.65597 0.71659 0.41945 0.0
H1259 H 0.6102 0.69688 0.49316 0.0
H1260 H 0.60482 0.66085 0.46694 0.0
H1261 H 0.62539 0.70536 0.36296 0.0
H1262 H 0.64491 0.69475 0.33431 0.0
H1263 H 0.6544 0.71262 0.36509 0.0
H1264 H 0.68274 0.68302 0.38312 0.0
H1265 H 0.67333 0.66489 0.35187 0.0
H1266 H 0.67352 0.65532 0.39236 0.0
H1267 H 0.59368 0.63495 0.42582 0.0
H1268 H 0.57642 0.62474 0.37501 0.0
H1269 H 0.627 0.66146 0.32469 0.0
C1270 C 0.64605 0.70399 0.43104 0.0
C1271 C 0.63369 0.70929 0.45836 0.0
C1272 C 0.62004 0.69296 0.4724 0.0
C1273 C 0.61696 0.67238 0.45763 0.0
C1274 C 0.62754 0.66842 0.4287 0.0
C1275 C 0.64218 0.68374 0.41574 0.0
C1276 C 0.64675 0.67867 0.38114 0.0
C1277 C 0.64255 0.69903 0.35969 0.0
C1278 C 0.67049 0.66995 0.37689 0.0
C1279 C 0.63 0.66035 0.37554 0.0
C1280 C 0.6202 0.65358 0.40366 0.0
C1281 C 0.60171 0.63956 0.40383 0.0
C1282 C 0.59199 0.63373 0.37478 0.0
C1283 C 0.60048 0.64242 0.34615 0.0
C1284 C 0.62053 0.65445 0.34646 0.0
H1285 H 0.09158 0.82839 0.07954 0.0
H1286 H 0.11948 0.77545 0.13585 0.0
H1287 H 0.10416 0.79262 0.18436 0.0
H1288 H 0.09407 0.87437 0.14574 0.0
H1289 H 0.06807 0.88525 0.13157 0.0
H1290 H 0.08777 0.87366 0.10398 0.0
H1291 H 0.05733 0.84715 0.08316 0.0
H1292 H 0.03776 0.85814 0.1109 0.0
H1293 H 0.04345 0.8288 0.11057 0.0
H1294 H 0.07609 0.80747 0.22154 0.0
H1295 H 0.04111 0.82085 0.24515 0.0
H1296 H 0.03207 0.86572 0.16608 0.0
C1297 C 0.09567 0.82135 0.10244 0.0
C1298 C 0.10699 0.80094 0.10429 0.0
C1299 C 0.11139 0.79144 0.13421 0.0
C1300 C 0.1026 0.80106 0.16183 0.0
C1301 C 0.08991 0.82037 0.15899 0.0
C1302 C 0.08706 0.83084 0.13006 0.0
C1303 C 0.06977 0.84902 0.13212 0.0
C1304 C 0.08057 0.87194 0.12813 0.0
C1305 C 0.05099 0.84553 0.10778 0.0
C1306 C 0.06168 0.84569 0.16576 0.0
C1307 C 0.07387 0.82947 0.18117 0.0
C1308 C 0.06705 0.82082 0.21028 0.0
C1309 C 0.04709 0.82841 0.22345 0.0
C1310 C 0.0342 0.8446 0.20765 0.0
C1311 C 0.04208 0.85394 0.17915 0.0
H1312 H 0.59492 0.81331 0.96686 0.0
H1313 H 0.6553 0.78892 0.92382 0.0
H1314 H 0.6599 0.82439 0.89592 0.0
H1315 H 0.57159 0.82901 0.90675 0.0
H1316 H 0.55835 0.85427 0.91973 0.0
H1317 H 0.56575 0.83378 0.94819 0.0
H1318 H 0.58886 0.86281 0.97889 0.0
H1319 H 0.58145 0.8836 0.95 0.0
H1320 H 0.61021 0.87835 0.9588 0.0
H1321 H 0.65044 0.85257 0.85795 0.0
H1322 H 0.62742 0.86642 0.81436 0.0
H1323 H 0.57223 0.87451 0.87826 0.0
C1324 C 0.60971 0.81596 0.95282 0.0
C1325 C 0.62456 0.79831 0.94715 0.0
C1326 C 0.64368 0.80219 0.92859 0.0
C1327 C 0.64646 0.82246 0.91272 0.0
C1328 C 0.6301 0.83875 0.91585 0.0
C1329 C 0.61226 0.8359 0.9362 0.0
C1330 C 0.5942 0.85279 0.92963 0.0
C1331 C 0.57118 0.84177 0.92577 0.0
C1332 C 0.59366 0.87044 0.95589 0.0
C1333 C 0.60275 0.86271 0.89892 0.0
C1334 C 0.62428 0.85571 0.89276 0.0
C1335 C 0.634 0.85881 0.86303 0.0
C1336 C 0.62085 0.8669 0.83827 0.0
C1337 C 0.59823 0.87169 0.84339 0.0
C1338 C 0.58975 0.87163 0.87445 0.0
H1339 H 0.49758 0.37443 0.15337 0.0
H1340 H 0.49048 0.32298 0.22429 0.0
H1341 H 0.45219 0.3157 0.20585 0.0
H1342 H 0.43735 0.39248 0.14889 0.0
H1343 H 0.43901 0.39528 0.1064 0.0
H1344 H 0.46309 0.40072 0.13054 0.0
H1345 H 0.48566 0.37202 0.09809 0.0
H1346 H 0.46182 0.36671 0.07385 0.0
H1347 H 0.47523 0.34411 0.09422 0.0
H1348 H 0.41708 0.31036 0.17505 0.0
H1349 H 0.39167 0.30314 0.13018 0.0
H1350 H 0.42322 0.35562 0.07653 0.0
C1351 C 0.48756 0.36228 0.16578 0.0
C1352 C 0.49664 0.3496 0.19065 0.0
C1353 C 0.48359 0.33307 0.20546 0.0
C1354 C 0.46179 0.32897 0.1953 0.0
C1355 C 0.45343 0.34136 0.17004 0.0
C1356 C 0.46605 0.35755 0.15526 0.0
C1357 C 0.45513 0.36551 0.12502 0.0
C1358 C 0.44823 0.38995 0.1279 0.0
C1359 C 0.47036 0.36184 0.09612 0.0
C1360 C 0.43501 0.35047 0.12416 0.0
C1361 C 0.43377 0.33733 0.151 0.0
C1362 C 0.41763 0.32085 0.15424 0.0
C1363 C 0.40314 0.31695 0.12876 0.0
C1364 C 0.40538 0.32908 0.10026 0.0
C1365 C 0.42091 0.34654 0.09846 0.0
H1366 H 0.82981 0.19082 0.46763 0.0
H1367 H 0.87496 0.15652 0.53014 0.0
H1368 H 0.87482 0.12436 0.49461 0.0
H1369 H 0.80507 0.13497 0.42585 0.0
H1370 H 0.80449 0.15016 0.38905 0.0
H1371 H 0.7974 0.16384 0.42571 0.0
H1372 H 0.82684 0.19387 0.41386 0.0
H1373 H 0.83413 0.18034 0.37787 0.0
H1374 H 0.85526 0.18566 0.40719 0.0
H1375 H 0.88388 0.1056 0.44567 0.0
H1376 H 0.89993 0.10332 0.39205 0.0
H1377 H 0.8504 0.14903 0.35765 0.0
C1378 C 0.83832 0.17585 0.47479 0.0
C1379 C 0.85255 0.17618 0.50126 0.0
C1380 C 0.86393 0.1566 0.50987 0.0
C1381 C 0.8639 0.13817 0.4897 0.0
C1382 C 0.85229 0.13949 0.46112 0.0
C1383 C 0.83899 0.15765 0.45411 0.0
C1384 C 0.83292 0.15801 0.41922 0.0
C1385 C 0.80852 0.15133 0.4147 0.0
C1386 C 0.83765 0.18078 0.40369 0.0
C1387 C 0.84815 0.13998 0.40694 0.0
C1388 C 0.85794 0.12837 0.43159 0.0
C1389 C 0.87572 0.11394 0.42618 0.0
C1390 C 0.8848 0.11267 0.39557 0.0
C1391 C 0.87628 0.12609 0.37104 0.0
C1392 C 0.85683 0.13848 0.37627 0.0
H1393 H 0.08677 0.64093 0.56739 0.0
H1394 H 0.13962 0.68676 0.59008 0.0
H1395 H 0.14056 0.67232 0.6448 0.0
H1396 H 0.05636 0.64983 0.6265 0.0
H1397 H 0.04637 0.62223 0.63481 0.0
H1398 H 0.05591 0.62894 0.59589 0.0
H1399 H 0.08421 0.59673 0.59814 0.0
H1400 H 0.07457 0.58974 0.63741 0.0
H1401 H 0.10361 0.59505 0.63056 0.0
H1402 H 0.12677 0.66372 0.69823 0.0
H1403 H 0.1009 0.66111 0.74324 0.0
H1404 H 0.05766 0.61906 0.68756 0.0
C1405 C 0.09936 0.64696 0.58353 0.0
C1406 C 0.1131 0.66486 0.57475 0.0
C1407 C 0.12917 0.67279 0.5963 0.0
C1408 C 0.12979 0.66464 0.62748 0.0
C1409 C 0.11463 0.6482 0.63635 0.0
C1410 C 0.10012 0.63892 0.61461 0.0
C1411 C 0.0827 0.62481 0.63088 0.0
C1412 C 0.05898 0.63192 0.62149 0.0
C1413 C 0.08651 0.60011 0.62384 0.0
C1414 C 0.08777 0.62999 0.66522 0.0
C1415 C 0.10682 0.64272 0.66801 0.0
C1416 C 0.11237 0.65307 0.69653 0.0
C1417 C 0.09751 0.65155 0.72205 0.0
C1418 C 0.07727 0.63985 0.71884 0.0
C1419 C 0.07323 0.62769 0.69088 0.0
H1420 H 0.54202 0.25764 0.57018 0.0
H1421 H 0.60983 0.23365 0.57245 0.0
H1422 H 0.59669 0.19836 0.59599 0.0
H1423 H 0.52782 0.2394 0.64305 0.0
H1424 H 0.49966 0.2317 0.63409 0.0
H1425 H 0.51315 0.25294 0.61123 0.0
H1426 H 0.50651 0.2314 0.5584 0.0
H1427 H 0.49127 0.21121 0.58133 0.0
H1428 H 0.51389 0.20255 0.55627 0.0
H1429 H 0.57629 0.16741 0.62513 0.0
H1430 H 0.55152 0.14562 0.66018 0.0
H1431 H 0.49777 0.1912 0.64011 0.0
C1432 C 0.55413 0.24477 0.57473 0.0
C1433 C 0.57698 0.24839 0.5692 0.0
C1434 C 0.59223 0.23123 0.57624 0.0
C1435 C 0.58489 0.21108 0.5895 0.0
C1436 C 0.56226 0.20834 0.59542 0.0
C1437 C 0.54714 0.22478 0.58813 0.0
C1438 C 0.52418 0.21912 0.60014 0.0
C1439 C 0.51572 0.23684 0.6235 0.0
C1440 C 0.50798 0.21587 0.5724 0.0
C1441 C 0.52885 0.19739 0.61667 0.0
C1442 C 0.55073 0.19105 0.61298 0.0
C1443 C 0.55907 0.17209 0.62776 0.0
C1444 C 0.54486 0.15975 0.64752 0.0
C1445 C 0.52273 0.16673 0.6528 0.0
C1446 C 0.51458 0.18541 0.63639 0.0
H1447 H 0.05216 0.41418 0.79404 0.0
H1448 H 0.08859 0.37473 0.72633 0.0
H1449 H 0.12117 0.37539 0.76109 0.0
H1450 H 0.10665 0.44043 0.83748 0.0
H1451 H 0.09188 0.43799 0.87449 0.0
H1452 H 0.07732 0.44604 0.83894 0.0
H1453 H 0.04952 0.41406 0.84798 0.0
H1454 H 0.06392 0.40584 0.88285 0.0
H1455 H 0.05972 0.38601 0.85138 0.0
H1456 H 0.1413 0.36543 0.80841 0.0
H1457 H 0.14516 0.3465 0.85979 0.0
H1458 H 0.09635 0.39041 0.90056 0.0
C1459 C 0.06756 0.40709 0.78572 0.0
C1460 C 0.06786 0.39425 0.75782 0.0
C1461 C 0.08803 0.38468 0.74769 0.0
C1462 C 0.1067 0.38504 0.76741 0.0
C1463 C 0.10498 0.39508 0.79714 0.0
C1464 C 0.08601 0.40664 0.80593 0.0
C1465 C 0.08565 0.41078 0.84139 0.0
C1466 C 0.09069 0.43526 0.84848 0.0
C1467 C 0.06343 0.40368 0.85672 0.0
C1468 C 0.10482 0.39623 0.85165 0.0
C1469 C 0.11684 0.38872 0.82577 0.0
C1470 C 0.13257 0.37181 0.82889 0.0
C1471 C 0.13474 0.36109 0.85826 0.0
C1472 C 0.12091 0.36707 0.88384 0.0
C1473 C 0.10719 0.38588 0.88116 0.0
H1474 H 0.91842 0.77928 0.03748 0.0
H1475 H 0.85145 0.77293 0.07289 0.0
H1476 H 0.85564 0.80834 0.10178 0.0
H1477 H 0.94148 0.79091 0.10261 0.0
H1478 H 0.96189 0.81084 0.08964 0.0
H1479 H 0.95111 0.7911 0.06209 0.0
H1480 H 0.93863 0.8227 0.02461 0.0
H1481 H 0.94977 0.84277 0.05202 0.0
H1482 H 0.92126 0.84466 0.03951 0.0
H1483 H 0.87099 0.83563 0.13987 0.0
H1484 H 0.89511 0.85257 0.18064 0.0
H1485 H 0.95235 0.84176 0.12107 0.0
C1486 C 0.90423 0.78617 0.04976 0.0
C1487 C 0.88459 0.77366 0.05284 0.0
C1488 C 0.86645 0.78258 0.06972 0.0
C1489 C 0.86878 0.80267 0.0863 0.0
C1490 C 0.88917 0.81373 0.08513 0.0
C1491 C 0.90644 0.80605 0.06645 0.0
C1492 C 0.92791 0.81807 0.07374 0.0
C1493 C 0.94665 0.80176 0.08258 0.0
C1494 C 0.93479 0.83294 0.04581 0.0
C1495 C 0.92071 0.83188 0.10182 0.0
C1496 C 0.89813 0.82989 0.10732 0.0
C1497 C 0.88844 0.83811 0.13502 0.0
C1498 C 0.90221 0.84775 0.15807 0.0
C1499 C 0.92535 0.84899 0.15323 0.0
C1500 C 0.93453 0.84178 0.1244 0.0
H1501 H 0.43813 0.75223 0.38585 0.0
H1502 H 0.38937 0.70016 0.39859 0.0
H1503 H 0.41079 0.67593 0.36222 0.0
H1504 H 0.45186 0.73932 0.30065 0.0
H1505 H 0.48059 0.7463 0.30706 0.0
H1506 H 0.4592 0.76038 0.32909 0.0
H1507 H 0.4785 0.74909 0.38158 0.0
H1508 H 0.49967 0.73473 0.35985 0.0
H1509 H 0.48373 0.72017 0.38946 0.0
H1510 H 0.44147 0.65549 0.33202 0.0
H1511 H 0.47655 0.64205 0.30804 0.0
H1512 H 0.50388 0.70848 0.31494 0.0
C1513 C 0.43158 0.73598 0.38015 0.0
C1514 C 0.41214 0.72802 0.39486 0.0
C1515 C 0.40412 0.70662 0.38716 0.0
C1516 C 0.41623 0.69276 0.36665 0.0
C1517 C 0.43598 0.7008 0.35363 0.0
C1518 C 0.44327 0.72216 0.3596 0.0
C1519 C 0.46576 0.72646 0.34508 0.0
C1520 C 0.46425 0.74416 0.31891 0.0
C1521 C 0.48291 0.73297 0.37051 0.0
C1522 C 0.47061 0.70386 0.33136 0.0
C1523 C 0.45323 0.68926 0.33608 0.0
C1524 C 0.45496 0.66694 0.3276 0.0
C1525 C 0.47496 0.65942 0.31412 0.0
C1526 C 0.49297 0.6742 0.30951 0.0
C1527 C 0.49044 0.69673 0.31784 0.0
H1528 H 0.46148 0.16099 0.07582 0.0
H1529 H 0.40772 0.14054 0.1368 0.0
H1530 H 0.38088 0.15883 0.10123 0.0
H1531 H 0.4477 0.21074 0.06858 0.0
H1532 H 0.45467 0.21603 0.02768 0.0
H1533 H 0.46812 0.19401 0.04845 0.0
H1534 H 0.45528 0.16572 0.00619 0.0
H1535 H 0.44202 0.18788 0.98461 0.0
H1536 H 0.42631 0.16371 -0.00396 0.0
H1537 H 0.36272 0.18912 0.07184 0.0
H1538 H 0.35503 0.22637 0.05039 0.0
H1539 H 0.42022 0.22749 0.00704 0.0
C1540 C 0.44387 0.15902 0.08011 0.0
C1541 C 0.43644 0.14893 0.10824 0.0
C1542 C 0.41351 0.14757 0.11464 0.0
C1543 C 0.39819 0.15803 0.09458 0.0
C1544 C 0.40615 0.16955 0.06816 0.0
C1545 C 0.42851 0.16954 0.06034 0.0
C1546 C 0.4336 0.18665 0.03504 0.0
C1547 C 0.45207 0.2028 0.04563 0.0
C1548 C 0.43965 0.17531 0.0036 0.0
C1549 C 0.41133 0.19805 0.03267 0.0
C1550 C 0.39545 0.18746 0.05093 0.0
C1551 C 0.37475 0.19709 0.05655 0.0
C1552 C 0.37053 0.21835 0.04436 0.0
C1553 C 0.38707 0.22987 0.02711 0.0
C1554 C 0.40717 0.219 0.01987 0.0
H1555 H 0.48413 0.69395 0.79743 0.0
H1556 H 0.50807 0.62706 0.78151 0.0
H1557 H 0.54464 0.63782 0.80349 0.0
H1558 H 0.53741 0.72425 0.78329 0.0
H1559 H 0.53068 0.74345 0.81461 0.0
H1560 H 0.50888 0.73088 0.79154 0.0
H1561 H 0.49101 0.71688 0.84445 0.0
H1562 H 0.51338 0.7288 0.8668 0.0
H1563 H 0.50716 0.69972 0.87063 0.0
H1564 H 0.57683 0.65494 0.83487 0.0
H1565 H 0.59993 0.67591 0.87323 0.0
H1566 H 0.55399 0.731 0.8675 0.0
C1567 C 0.49719 0.68163 0.79769 0.0
C1568 C 0.49322 0.65967 0.78762 0.0
C1569 C 0.51075 0.64406 0.78887 0.0
C1570 C 0.53161 0.65004 0.80125 0.0
C1571 C 0.5347 0.67175 0.81192 0.0
C1572 C 0.51791 0.6873 0.80997 0.0
C1573 C 0.52413 0.70867 0.82632 0.0
C1574 C 0.52536 0.72796 0.80253 0.0
C1575 C 0.50796 0.71381 0.85365 0.0
C1576 C 0.54682 0.70265 0.83865 0.0
C1577 C 0.55292 0.68143 0.82986 0.0
C1578 C 0.57238 0.67172 0.84131 0.0
C1579 C 0.58546 0.68376 0.863 0.0
C1580 C 0.57876 0.70509 0.87324 0.0
C1581 C 0.55964 0.7148 0.85993 0.0
H1582 H 0.01266 0.82354 0.61922 0.0
H1583 H 0.07235 0.85545 0.65339 0.0
H1584 H 0.09312 0.84062 0.60755 0.0
H1585 H 0.03323 0.77629 0.60241 0.0
H1586 H 0.01868 0.76987 0.56622 0.0
H1587 H 0.00665 0.78877 0.59397 0.0
H1588 H 0.00381 0.81943 0.55183 0.0
H1589 H 0.01508 0.80055 0.52286 0.0
H1590 H 0.02794 0.82718 0.52912 0.0
H1591 H 0.10902 0.81399 0.56783 0.0
H1592 H 0.11774 0.78031 0.5368 0.0
H1593 H 0.04746 0.76659 0.52756 0.0
C1594 C 0.02983 0.82836 0.61604 0.0
C1595 C 0.04092 0.84069 0.6396 0.0
C1596 C 0.06348 0.84635 0.63525 0.0
C1597 C 0.07541 0.83792 0.60929 0.0
C1598 C 0.06434 0.82442 0.58752 0.0
C1599 C 0.04181 0.82027 0.59014 0.0
C1600 C 0.03434 0.80282 0.56668 0.0
C1601 C 0.02259 0.78329 0.58335 0.0
C1602 C 0.01941 0.81312 0.5411 0.0
C1603 C 0.05649 0.79606 0.55292 0.0
C1604 C 0.07355 0.80916 0.56431 0.0
C1605 C 0.09573 0.8041 0.55796 0.0
C1606 C 0.10056 0.7849 0.54036 0.0
C1607 C 0.08328 0.77083 0.52979 0.0
C1608 C 0.06103 0.7771 0.53513 0.0
H1609 H 0.92308 0.24281 0.41882 0.0
H1610 H 0.87498 0.29557 0.43105 0.0
H1611 H 0.89406 0.31748 0.38949 0.0
H1612 H 0.9688 0.27637 0.41211 0.0
H1613 H 0.98299 0.25977 0.383 0.0
H1614 H 0.9637 0.24697 0.40997 0.0
H1615 H 0.94158 0.23105 0.36267 0.0
H1616 H 0.96053 0.24382 0.33513 0.0
H1617 H 0.93128 0.24949 0.33241 0.0
H1618 H 0.92214 0.3358 0.35261 0.0
H1619 H 0.95484 0.34755 0.32116 0.0
H1620 H 0.98334 0.28199 0.33273 0.0
C1621 C 0.91616 0.25872 0.41222 0.0
C1622 C 0.89751 0.26746 0.42814 0.0
C1623 C 0.88913 0.28845 0.41896 0.0
C1624 C 0.8999 0.30103 0.39544 0.0
C1625 C 0.91879 0.29222 0.38106 0.0
C1626 C 0.9266 0.27136 0.38882 0.0
C1627 C 0.94807 0.26621 0.37186 0.0
C1628 C 0.96699 0.26208 0.39565 0.0
C1629 C 0.94518 0.24647 0.34917 0.0
C1630 C 0.95152 0.28764 0.35394 0.0
C1631 C 0.93451 0.30249 0.35942 0.0
C1632 C 0.93529 0.32412 0.34761 0.0
C1633 C 0.95397 0.33068 0.3299 0.0
C1634 C 0.97156 0.31565 0.32419 0.0
C1635 C 0.97002 0.2938 0.33609 0.0
H1636 H 0.40085 0.86512 0.32136 0.0
H1637 H 0.45521 0.89656 0.37025 0.0
H1638 H 0.43519 0.89274 0.42094 0.0
H1639 H 0.35366 0.8817 0.38531 0.0
H1640 H 0.3411 0.85498 0.37858 0.0
H1641 H 0.35353 0.86995 0.34603 0.0
H1642 H 0.3779 0.83582 0.33347 0.0
H1643 H 0.36591 0.82099 0.36577 0.0
H1644 H 0.3956 0.82458 0.36401 0.0
H1645 H 0.41854 0.87254 0.46474 0.0
H1646 H 0.40748 0.8396 0.49523 0.0
H1647 H 0.36234 0.82063 0.42031 0.0
C1648 C 0.40757 0.87267 0.34258 0.0
C1649 C 0.42917 0.8815 0.34216 0.0
C1650 C 0.43834 0.89036 0.37014 0.0
C1651 C 0.42703 0.88814 0.39907 0.0
C1652 C 0.40653 0.87724 0.39939 0.0
C1653 C 0.39649 0.87024 0.37155 0.0
C1654 C 0.37738 0.85455 0.37831 0.0
C1655 C 0.3551 0.86599 0.37168 0.0
C1656 C 0.37939 0.83272 0.35933 0.0
C1657 C 0.38052 0.85098 0.41356 0.0
C1658 C 0.39656 0.86514 0.42564 0.0
C1659 C 0.40541 0.86197 0.45588 0.0
C1660 C 0.39907 0.84312 0.47311 0.0
C1661 C 0.3841 0.82755 0.45999 0.0
C1662 C 0.37347 0.83252 0.43108 0.0
H1663 H 0.91861 0.64374 0.22849 0.0
H1664 H 0.93203 0.58575 0.17179 0.0
H1665 H 0.89589 0.58982 0.14552 0.0
H1666 H 0.85096 0.63936 0.22048 0.0
H1667 H 0.85035 0.66922 0.21915 0.0
H1668 H 0.86951 0.6552 0.24517 0.0
H1669 H 0.9019 0.67706 0.22001 0.0
H1670 H 0.88311 0.69088 0.19427 0.0
H1671 H 0.90614 0.6757 0.17765 0.0
H1672 H 0.86996 0.60847 0.11078 0.0
H1673 H 0.86005 0.63836 0.07384 0.0
H1674 H 0.8615 0.68557 0.1506 0.0
C1675 C 0.91307 0.63117 0.212 0.0
C1676 C 0.92795 0.61463 0.2019 0.0
C1677 C 0.92073 0.59844 0.18008 0.0
C1678 C 0.90011 0.60069 0.16501 0.0
C1679 C 0.88681 0.61896 0.17249 0.0
C1680 C 0.89268 0.63355 0.19653 0.0
C1681 C 0.87893 0.65456 0.19507 0.0
C1682 C 0.86139 0.65457 0.22153 0.0
C1683 C 0.89341 0.67573 0.19674 0.0
C1684 C 0.86802 0.65154 0.16302 0.0
C1685 C 0.87125 0.63021 0.15154 0.0
C1686 C 0.86664 0.62489 0.11994 0.0
C1687 C 0.86087 0.64201 0.09896 0.0
C1688 C 0.86023 0.66417 0.10967 0.0
C1689 C 0.8617 0.66857 0.14237 0.0
H1690 H 0.05924 0.26169 0.89537 0.0
H1691 H 0.12684 0.24241 0.91737 0.0
H1692 H 0.11999 0.20567 0.8927 0.0
H1693 H 0.03342 0.20759 0.90816 0.0
H1694 H 0.01433 0.21166 0.8758 0.0
H1695 H 0.02439 0.23514 0.89789 0.0
H1696 H 0.0385 0.25324 0.84562 0.0
H1697 H 0.02819 0.22982 0.82375 0.0
H1698 H 0.05691 0.2378 0.82022 0.0
H1699 H 0.10569 0.17155 0.86199 0.0
H1700 H 0.08617 0.14484 0.82693 0.0
H1701 H 0.02866 0.18798 0.82602 0.0
C1702 C 0.07264 0.24975 0.8954 0.0
C1703 C 0.09361 0.25497 0.90831 0.0
C1704 C 0.11062 0.23877 0.90766 0.0
C1705 C 0.10685 0.21786 0.89379 0.0
C1706 C 0.08596 0.21341 0.88094 0.0
C1707 C 0.06918 0.229 0.88178 0.0
C1708 C 0.04861 0.221 0.86489 0.0
C1709 C 0.02904 0.2187 0.88808 0.0
C1710 C 0.04272 0.23637 0.83696 0.0
C1711 C 0.05652 0.19863 0.85359 0.0
C1712 C 0.07796 0.19426 0.86334 0.0
C1713 C 0.08883 0.17477 0.85449 0.0
C1714 C 0.07763 0.15966 0.83468 0.0
C1715 C 0.05593 0.16435 0.8237 0.0
C1716 C 0.04524 0.18389 0.83394 0.0
H1717 H 0.57867 0.37945 0.6033 0.0
H1718 H 0.61522 0.32788 0.65138 0.0
H1719 H 0.59944 0.33985 0.70238 0.0
H1720 H 0.57415 0.42006 0.67949 0.0
H1721 H 0.54675 0.42758 0.66624 0.0
H1722 H 0.56856 0.4229 0.63771 0.0
H1723 H 0.54371 0.39419 0.60924 0.0
H1724 H 0.5222 0.39851 0.63754 0.0
H1725 H 0.5329 0.37092 0.63137 0.0
H1726 H 0.56949 0.34538 0.74018 0.0
H1727 H 0.53125 0.34542 0.76033 0.0
H1728 H 0.5134 0.39499 0.69063 0.0
C1729 C 0.58439 0.37177 0.62501 0.0
C1730 C 0.59799 0.35281 0.62364 0.0
C1731 C 0.60503 0.34265 0.65205 0.0
C1732 C 0.59605 0.34938 0.68119 0.0
C1733 C 0.58054 0.36661 0.68146 0.0
C1734 C 0.5754 0.37832 0.65412 0.0
C1735 C 0.55502 0.39265 0.65887 0.0
C1736 C 0.56152 0.41725 0.6607 0.0
C1737 C 0.53745 0.38876 0.63276 0.0
C1738 C 0.54737 0.38431 0.69094 0.0
C1739 C 0.5629 0.37022 0.70439 0.0
C1740 C 0.55762 0.35703 0.73057 0.0
C1741 C 0.53574 0.35706 0.74183 0.0
C1742 C 0.51934 0.37012 0.72682 0.0
C1743 C 0.5257 0.3851 0.70278 0.0
H1744 H 0.99946 0.42544 0.25665 0.0
H1745 H 0.03438 0.44026 0.34416 0.0
H1746 H 0.03166 0.48028 0.33233 0.0
H1747 H 0.02507 0.46634 0.20978 0.0
H1748 H 0.00056 0.47316 0.18738 0.0
H1749 H 0.00377 0.44577 0.20372 0.0
H1750 H 0.96627 0.44962 0.23326 0.0
H1751 H 0.96282 0.47697 0.21677 0.0
H1752 H 0.96179 0.47299 0.25911 0.0
H1753 H 0.02757 0.51834 0.30911 0.0
H1754 H 0.02042 0.55211 0.27779 0.0
H1755 H 0.98771 0.51245 0.20569 0.0
C1756 C 0.00628 0.43708 0.27359 0.0
C1757 C 0.01714 0.4297 0.30136 0.0
C1758 C 0.02592 0.44551 0.32279 0.0
C1759 C 0.0245 0.46827 0.31625 0.0
C1760 C 0.01411 0.47492 0.28831 0.0
C1761 C 0.00495 0.45982 0.26749 0.0
C1762 C 0.99522 0.47126 0.23871 0.0
C1763 C 0.00686 0.46368 0.2081 0.0
C1764 C 0.97003 0.46749 0.23687 0.0
C1765 C 0.00064 0.49516 0.24636 0.0
C1766 C 0.01154 0.4969 0.27508 0.0
C1767 C 0.01887 0.51721 0.28673 0.0
C1768 C 0.01481 0.53629 0.26867 0.0
C1769 C 0.00345 0.53494 0.2393 0.0
C1770 C 0.99631 0.51405 0.2281 0.0
H1771 H 0.79873 0.8316 0.54144 0.0
H1772 H 0.8383 0.7767 0.50645 0.0
H1773 H 0.80511 0.76091 0.48063 0.0
H1774 H 0.74969 0.79937 0.55853 0.0
H1775 H 0.73087 0.82103 0.54663 0.0
H1776 H 0.7578 0.82804 0.56212 0.0
H1777 H 0.7662 0.85084 0.51138 0.0
H1778 H 0.73934 0.8438 0.49566 0.0
H1779 H 0.764 0.8377 0.47313 0.0
H1780 H 0.76779 0.75159 0.45753 0.0
H1781 H 0.72856 0.74814 0.4416 0.0
H1782 H 0.71316 0.80862 0.4929 0.0
C1783 C 0.80043 0.81625 0.52838 0.0
C1784 C 0.82114 0.80542 0.52589 0.0
C1785 C 0.82261 0.78528 0.50874 0.0
C1786 C 0.80386 0.77621 0.4939 0.0
C1787 C 0.78375 0.7874 0.49663 0.0
C1788 C 0.78186 0.80687 0.51366 0.0
C1789 C 0.75824 0.81539 0.51342 0.0
C1790 C 0.74858 0.81598 0.54718 0.0
C1791 C 0.75688 0.83829 0.49744 0.0
C1792 C 0.74714 0.79772 0.49346 0.0
C1793 C 0.76217 0.7818 0.48386 0.0
C1794 C 0.75585 0.76392 0.465 0.0
C1795 C 0.73353 0.76215 0.45599 0.0
C1796 C 0.71775 0.77808 0.46603 0.0
C1797 C 0.72478 0.79614 0.48488 0.0
H1798 H 0.42113 0.44368 0.70564 0.0
H1799 H 0.48383 0.44734 0.65519 0.0
H1800 H 0.48383 0.48804 0.66131 0.0
H1801 H 0.3977 0.49597 0.67427 0.0
H1802 H 0.3846 0.50256 0.71151 0.0
H1803 H 0.38848 0.47402 0.70019 0.0
H1804 H 0.40945 0.46676 0.7528 0.0
H1805 H 0.40586 0.49529 0.76413 0.0
H1806 H 0.43329 0.48348 0.76255 0.0
H1807 H 0.47909 0.52779 0.67825 0.0
H1808 H 0.46849 0.56395 0.70125 0.0
H1809 H 0.40852 0.53431 0.73949 0.0
C1810 C 0.43463 0.45305 0.69525 0.0
C1811 C 0.45246 0.44229 0.67988 0.0
C1812 C 0.46992 0.45519 0.6669 0.0
C1813 C 0.4701 0.47834 0.67032 0.0
C1814 C 0.45259 0.48834 0.68646 0.0
C1815 C 0.43503 0.47614 0.69832 0.0
C1816 C 0.41878 0.49075 0.71598 0.0
C1817 C 0.39604 0.49083 0.69949 0.0
C1818 C 0.41674 0.48364 0.75093 0.0
C1819 C 0.43021 0.51299 0.71287 0.0
C1820 C 0.44968 0.51128 0.69573 0.0
C1821 C 0.46371 0.5294 0.69129 0.0
C1822 C 0.45761 0.54984 0.70458 0.0
C1823 C 0.43762 0.55198 0.72199 0.0
C1824 C 0.42376 0.53328 0.72597 0.0
H1825 H 0.82253 0.22468 0.97258 0.0
H1826 H 0.81555 0.19907 0.87688 0.0
H1827 H 0.77501 0.2046 0.8801 0.0
H1828 H 0.77394 0.19967 0.00437 0.0
H1829 H 0.76697 0.22288 0.02935 0.0
H1830 H 0.79549 0.21764 0.01913 0.0
H1831 H 0.79913 0.25749 -0.00335 0.0
H1832 H 0.77064 0.2629 0.00694 0.0
H1833 H 0.77996 0.26683 0.9667 0.0
H1834 H 0.73516 0.2117 0.89451 0.0
H1835 H 0.69896 0.22099 0.91829 0.0
H1836 H 0.73215 0.24222 0.00447 0.0
C1837 C 0.81253 0.22036 0.95217 0.0
C1838 C 0.82223 0.21144 0.92445 0.0
C1839 C 0.80851 0.20596 0.89834 0.0
C1840 C 0.78547 0.20902 0.89996 0.0
C1841 C 0.77645 0.21762 0.92779 0.0
C1842 C 0.78956 0.22333 0.95336 0.0
C1843 C 0.77574 0.23202 0.98065 0.0
C1844 C 0.77818 0.21716 0.01011 0.0
C1845 C 0.78172 0.25625 0.98816 0.0
C1846 C 0.75276 0.23019 0.96651 0.0
C1847 C 0.75353 0.22184 0.93602 0.0
C1848 C 0.73436 0.21835 0.91832 0.0
C1849 C 0.71387 0.22364 0.93208 0.0
C1850 C 0.71269 0.23237 0.96325 0.0
C1851 C 0.73246 0.23564 0.98059 0.0
H1852 H 0.01198 0.47189 0.78489 0.0
H1853 H 0.9527 0.44944 0.73619 0.0
H1854 H 0.94278 0.48844 0.72457 0.0
H1855 H 0.98858 0.52196 0.81934 0.0
H1856 H 0.01371 0.53767 0.81354 0.0
H1857 H 0.01508 0.50815 0.81971 0.0
H1858 H 0.03707 0.50389 0.76723 0.0
H1859 H 0.03563 0.53336 0.76077 0.0
H1860 H 0.02546 0.51456 0.73091 0.0
H1861 H 0.94016 0.53038 0.71691 0.0
H1862 H 0.94526 0.5711 0.71369 0.0
H1863 H 0.00693 0.56513 0.76603 0.0
C1864 C 0.99672 0.47512 0.7722 0.0
C1865 C 0.98303 0.45758 0.76164 0.0
C1866 C 0.9634 0.4626 0.74464 0.0
C1867 C 0.95763 0.48471 0.73793 0.0
C1868 C 0.97172 0.50158 0.74826 0.0
C1869 C 0.99085 0.49699 0.76507 0.0
C1870 C 0.00372 0.51792 0.77238 0.0
C1871 C 0.00536 0.52164 0.80838 0.0
C1872 C 0.02683 0.51739 0.75689 0.0
C1873 C 0.98896 0.53505 0.75689 0.0
C1874 C 0.97049 0.5254 0.74327 0.0
C1875 C 0.95456 0.53808 0.72755 0.0
C1876 C 0.9576 0.56119 0.72581 0.0
C1877 C 0.97652 0.57135 0.73947 0.0
C1878 C 0.99232 0.55795 0.75516 0.0
H1879 H 0.28473 0.16672 0.51069 0.0
H1880 H 0.32295 0.20055 0.43793 0.0
H1881 H 0.28825 0.21096 0.41071 0.0
H1882 H 0.24115 0.14568 0.45889 0.0
H1883 H 0.21962 0.15011 0.48787 0.0
H1884 H 0.24751 0.14418 0.5006 0.0
H1885 H 0.24789 0.1802 0.53412 0.0
H1886 H 0.22 0.18616 0.52165 0.0
H1887 H 0.24165 0.20631 0.51531 0.0
H1888 H 0.24927 0.21924 0.39284 0.0
H1889 H 0.20907 0.22595 0.38694 0.0
H1890 H 0.19657 0.18651 0.47129 0.0
C1891 C 0.28585 0.17614 0.48888 0.0
C1892 C 0.30658 0.18276 0.47642 0.0
C1893 C 0.30727 0.19527 0.44796 0.0
C1894 C 0.28765 0.2012 0.43224 0.0
C1895 C 0.26749 0.19444 0.44522 0.0
C1896 C 0.26646 0.18223 0.47293 0.0
C1897 C 0.24269 0.17795 0.48276 0.0
C1898 C 0.23744 0.153 0.48251 0.0
C1899 C 0.23778 0.18828 0.51538 0.0
C1900 C 0.2305 0.18996 0.45652 0.0
C1901 C 0.24508 0.19922 0.43495 0.0
C1902 C 0.23768 0.21192 0.40943 0.0
C1903 C 0.21481 0.21561 0.40626 0.0
C1904 C 0.19963 0.2067 0.42856 0.0
C1905 C 0.20767 0.19338 0.45363 0.0
H1906 H 0.57856 0.54854 0.24853 0.0
H1907 H 0.5108 0.56505 0.2742 0.0
H1908 H 0.49994 0.52588 0.26693 0.0
H1909 H 0.56541 0.50895 0.1881 0.0
H1910 H 0.58794 0.49059 0.19803 0.0
H1911 H 0.59043 0.51989 0.2055 0.0
H1912 H 0.599 0.51192 0.26464 0.0
H1913 H 0.59662 0.48259 0.25732 0.0
H1914 H 0.5799 0.49542 0.28761 0.0
H1915 H 0.49656 0.48484 0.25723 0.0
H1916 H 0.50088 0.44492 0.24586 0.0
H1917 H 0.57075 0.45542 0.22581 0.0
C1918 C 0.56143 0.54396 0.25266 0.0
C1919 C 0.54553 0.55989 0.26195 0.0
C1920 C 0.52329 0.55315 0.26713 0.0
C1921 C 0.51696 0.53094 0.26303 0.0
C1922 C 0.53304 0.51569 0.25376 0.0
C1923 C 0.55482 0.52189 0.24869 0.0
C1924 C 0.56891 0.50225 0.23899 0.0
C1925 C 0.57874 0.50563 0.20567 0.0
C1926 C 0.58718 0.49778 0.26361 0.0
C1927 C 0.55161 0.48404 0.23917 0.0
C1928 C 0.53105 0.49212 0.24789 0.0
C1929 C 0.51257 0.47834 0.25033 0.0
C1930 C 0.5152 0.45568 0.24385 0.0
C1931 C 0.53613 0.44705 0.23486 0.0
C1932 C 0.5545 0.46152 0.23237 0.0
H1933 H 0.20544 0.75728 0.02418 0.0
H1934 H 0.18148 0.71701 0.94597 0.0
H1935 H 0.21932 0.71501 0.92433 0.0
H1936 H 0.2454 0.78864 0.97936 0.0
H1937 H 0.2659 0.78904 0.01044 0.0
H1938 H 0.23687 0.78738 0.02031 0.0
H1939 H 0.24398 0.75154 0.05267 0.0
H1940 H 0.27305 0.75322 0.04316 0.0
H1941 H 0.25765 0.72842 0.03396 0.0
H1942 H 0.25936 0.71763 0.91046 0.0
H1943 H 0.29986 0.72264 0.90718 0.0
H1944 H 0.29846 0.76096 0.99435 0.0
C1945 C 0.20818 0.74794 0.00261 0.0
C1946 C 0.19042 0.73732 0.98679 0.0
C1947 C 0.19475 0.72529 0.95859 0.0
C1948 C 0.2162 0.7241 0.946 0.0
C1949 C 0.23324 0.73498 0.96187 0.0
C1950 C 0.22958 0.74652 0.98969 0.0
C1951 C 0.25101 0.75643 0.00215 0.0
C1952 C 0.24971 0.78188 0.00311 0.0
C1953 C 0.25676 0.74682 0.03492 0.0
C1954 C 0.26721 0.7486 0.97701 0.0
C1955 C 0.25654 0.73637 0.95392 0.0
C1956 C 0.26793 0.72717 0.92839 0.0
C1957 C 0.29095 0.73017 0.92671 0.0
C1958 C 0.30239 0.74222 0.95045 0.0
C1959 C 0.29022 0.75178 0.9757 0.0
H1960 H 0.55525 0.96651 0.78029 0.0
H1961 H 0.50688 0.92846 0.72684 0.0
H1962 H 0.49222 0.96306 0.70374 0.0
H1963 H 0.51874 0.01216 0.79845 0.0
H1964 H 0.54021 0.03284 0.79502 0.0
H1965 H 0.54715 0.00502 0.80692 0.0
H1966 H 0.57546 0.00254 0.76079 0.0
H1967 H 0.56847 0.0303 0.74861 0.0
H1968 H 0.56635 0.00773 0.72077 0.0
H1969 H 0.4833 0.0016 0.68553 0.0
H1970 H 0.47861 0.04176 0.67682 0.0
H1971 H 0.53196 0.055 0.74333 0.0
C1972 C 0.54157 0.96546 0.76375 0.0
C1973 C 0.53226 0.94476 0.75531 0.0
C1974 C 0.51425 0.94411 0.73375 0.0
C1975 C 0.50587 0.96367 0.72037 0.0
C1976 C 0.51554 0.98377 0.72897 0.0
C1977 C 0.53282 0.98485 0.75041 0.0
C1978 C 0.53979 0.00865 0.7563 0.0
C1979 C 0.53625 0.01504 0.79124 0.0
C1980 C 0.56395 0.01252 0.74599 0.0
C1981 C 0.52374 0.02076 0.73477 0.0
C1982 C 0.51004 0.00607 0.71902 0.0
C1983 C 0.49389 0.01328 0.69779 0.0
C1984 C 0.49142 0.03614 0.69291 0.0
C1985 C 0.5049 0.05156 0.7094 0.0
C1986 C 0.5214 0.04366 0.73036 0.0
H1987 H 0.28995 0.31001 0.01773 0.0
H1988 H 0.28773 0.25571 0.08533 0.0
H1989 H 0.24722 0.25264 0.07739 0.0
H1990 H 0.23661 0.33483 0.0385 0.0
H1991 H 0.23027 0.34178 -0.00207 0.0
H1992 H 0.2587 0.34074 0.01092 0.0
H1993 H 0.26757 0.31259 0.96628 0.0
H1994 H 0.23914 0.31337 0.95335 0.0
H1995 H 0.25176 0.28726 0.96366 0.0
H1996 H 0.20724 0.25436 0.06004 0.0
H1997 H 0.17075 0.26108 0.03537 0.0
H1998 H 0.19947 0.31369 0.97816 0.0
C1999 C 0.28094 0.29771 0.03133 0.0
C2000 C 0.29203 0.28317 0.05233 0.0
C2001 C 0.2796 0.26709 0.06923 0.0
C2002 C 0.25659 0.26521 0.06485 0.0
C2003 C 0.24628 0.2795 0.04346 0.0
C2004 C 0.25804 0.2955 0.02707 0.0
C2005 C 0.24323 0.30817 0.00443 0.0
C2006 C 0.24214 0.33284 0.0135 0.0
C2007 C 0.25088 0.30515 0.96989 0.0
C2008 C 0.22129 0.29666 0.01039 0.0
C2009 C 0.22337 0.28026 0.0331 0.0
C2010 C 0.2054 0.26723 0.04233 0.0
C2011 C 0.18474 0.27115 0.02811 0.0
C2012 C 0.18222 0.28789 0.00477 0.0
C2013 C 0.20083 0.30074 -0.00415 0.0
H2014 H 0.92637 0.04837 0.27973 0.0
H2015 H 0.98401 0.07102 0.22707 0.0
H2016 H 0.99245 0.03232 0.2122 0.0
H2017 H 0.95055 0.99834 0.31011 0.0
H2018 H 0.92538 0.98242 0.30635 0.0
H2019 H 0.92399 0.0119 0.31281 0.0
H2020 H 0.89996 0.01624 0.26225 0.0
H2021 H 0.90132 0.98678 0.2556 0.0
H2022 H 0.91013 0.00572 0.22498 0.0
H2023 H 0.99479 0.99086 0.20361 0.0
H2024 H 0.99061 0.95008 0.20171 0.0
H2025 H 0.93107 0.95497 0.25923 0.0
C2026 C 0.9408 0.04523 0.26512 0.0
C2027 C 0.95455 0.06276 0.25462 0.0
C2028 C 0.97322 0.05789 0.23541 0.0
C2029 C 0.97815 0.03595 0.22683 0.0
C2030 C 0.96422 0.01908 0.23754 0.0
C2031 C 0.9459 0.02348 0.25623 0.0
C2032 C 0.93352 0.00241 0.26453 0.0
C2033 C 0.93336 0.99854 0.30059 0.0
C2034 C 0.90983 0.00282 0.25102 0.0
C2035 C 0.94775 0.98544 0.24769 0.0
C2036 C 0.96541 0.99535 0.23229 0.0
C2037 C 0.98098 0.98293 0.21551 0.0
C2038 C 0.97847 0.95978 0.21456 0.0
C2039 C 0.96048 0.94931 0.23021 0.0
C2040 C 0.94493 0.96243 0.24684 0.0
H2041 H 0.29318 0.76093 0.47427 0.0
H2042 H 0.30068 0.70287 0.4144 0.0
H2043 H 0.26024 0.69652 0.41682 0.0
H2044 H 0.25305 0.73794 0.52539 0.0
H2045 H 0.2375 0.76322 0.53027 0.0
H2046 H 0.26671 0.76443 0.52158 0.0
H2047 H 0.25879 0.7889 0.47236 0.0
H2048 H 0.22953 0.78786 0.48097 0.0
H2049 H 0.23959 0.77926 0.44265 0.0
H2050 H 0.21948 0.69532 0.42799 0.0
H2051 H 0.18116 0.69897 0.4475 0.0
H2052 H 0.20013 0.75747 0.5011 0.0
C2053 C 0.28629 0.74708 0.46122 0.0
C2054 C 0.30009 0.73245 0.44397 0.0
C2055 C 0.29044 0.71432 0.42769 0.0
C2056 C 0.26749 0.7106 0.42888 0.0
C2057 C 0.25442 0.72514 0.44649 0.0
C2058 C 0.26344 0.74304 0.46234 0.0
C2059 C 0.24589 0.75546 0.48095 0.0
C2060 C 0.2511 0.75524 0.51666 0.0
C2061 C 0.2433 0.77928 0.46848 0.0
C2062 C 0.22562 0.74155 0.47347 0.0
C2063 C 0.2309 0.72427 0.45332 0.0
C2064 C 0.21512 0.70886 0.44361 0.0
C2065 C 0.19337 0.71108 0.4549 0.0
C2066 C 0.18757 0.72852 0.47587 0.0
C2067 C 0.20397 0.74401 0.48504 0.0
H2068 H 0.49392 0.05647 0.21353 0.0
H2069 H 0.48008 0.04265 0.11445 0.0
H2070 H 0.47947 0.0025 0.12634 0.0
H2071 H 0.52925 0.0083 0.22817 0.0
H2072 H 0.51855 0.00427 0.26768 0.0
H2073 H 0.51952 0.03171 0.25079 0.0
H2074 H 0.47741 0.03628 0.2612 0.0
H2075 H 0.47626 0.00885 0.27795 0.0
H2076 H 0.45831 0.01609 0.2454 0.0
H2077 H 0.47799 0.9641 0.14982 0.0
H2078 H 0.47635 0.93029 0.18272 0.0
H2079 H 0.49114 0.96948 0.26645 0.0
C2080 C 0.49106 0.04503 0.19417 0.0
C2081 C 0.48709 0.05272 0.163 0.0
C2082 C 0.48322 0.03716 0.13848 0.0
C2083 C 0.48285 0.01432 0.14501 0.0
C2084 C 0.48646 0.00737 0.17612 0.0
C2085 C 0.4906 0.02227 0.20026 0.0
C2086 C 0.49304 0.01063 0.2319 0.0
C2087 C 0.51649 0.01392 0.24542 0.0
C2088 C 0.47519 0.01843 0.25549 0.0
C2089 C 0.48925 0.98684 0.22192 0.0
C2090 C 0.48561 0.98529 0.18963 0.0
C2091 C 0.48101 0.96509 0.17507 0.0
C2092 C 0.48006 0.94599 0.19401 0.0
C2093 C 0.48366 0.94721 0.22719 0.0
C2094 C 0.48845 0.96794 0.24116 0.0
H2095 H 0.77919 0.69838 0.0273 0.0
H2096 H 0.81841 0.71046 0.9427 0.0
H2097 H 0.78395 0.71317 0.91107 0.0
H2098 H 0.73615 0.66512 0.98911 0.0
H2099 H 0.71444 0.67654 0.01352 0.0
H2100 H 0.74223 0.67432 0.02884 0.0
H2101 H 0.74232 0.71639 0.04143 0.0
H2102 H 0.71457 0.71874 0.02618 0.0
H2103 H 0.73635 0.73596 0.01025 0.0
H2104 H 0.74474 0.71746 0.88966 0.0
H2105 H 0.70446 0.72194 0.88026 0.0
H2106 H 0.69159 0.70575 0.97887 0.0
C2107 C 0.7806 0.7014 0.00207 0.0
C2108 C 0.80151 0.70424 0.98748 0.0
C2109 C 0.80257 0.70816 0.95438 0.0
C2110 C 0.78309 0.70973 0.93622 0.0
C2111 C 0.76272 0.70708 0.95148 0.0
C2112 C 0.7614 0.70282 0.98363 0.0
C2113 C 0.73757 0.70127 -0.00536 0.0
C2114 C 0.73229 0.67792 0.00726 0.0
C2115 C 0.73241 0.71916 0.01959 0.0
C2116 C 0.72561 0.70577 0.9638 0.0
C2117 C 0.74034 0.70904 0.93911 0.0
C2118 C 0.73306 0.71464 0.90875 0.0
C2119 C 0.71016 0.71717 0.90364 0.0
C2120 C 0.69484 0.71402 0.92874 0.0
C2121 C 0.70279 0.70795 0.95903 0.0
H2122 H 0.05527 0.04209 0.73861 0.0
H2123 H 0.04619 0.03735 0.84049 0.0
H2124 H 0.04708 0.99647 0.83664 0.0
H2125 H 0.01937 -0.00032 0.71929 0.0
H2126 H 0.03518 0.98919 0.68627 0.0
H2127 H 0.03753 0.01788 0.6974 0.0
H2128 H 0.08008 0.01362 0.70338 0.0
H2129 H 0.07791 0.98491 0.69194 0.0
H2130 H 0.09104 0.99227 0.72885 0.0
H2131 H 0.0449 0.95648 0.82108 0.0
H2132 H 0.03971 0.92024 0.79524 0.0
H2133 H 0.04915 0.95106 0.70309 0.0
C2134 C 0.05414 0.03249 0.76027 0.0
C2135 C 0.05088 0.04292 0.78994 0.0
C2136 C 0.04886 0.02973 0.81757 0.0
C2137 C 0.04937 0.0065 0.8156 0.0
C2138 C 0.05192 0.99676 0.78584 0.0
C2139 C 0.05438 0.00934 0.75867 0.0
C2140 C 0.05476 0.99488 0.72929 0.0
C2141 C 0.03557 0.00076 0.70676 0.0
C2142 C 0.07729 0.99652 0.71238 0.0
C2143 C 0.0515 0.97223 0.74409 0.0
C2144 C 0.05022 0.97366 0.77676 0.0
C2145 C 0.04615 0.95512 0.79556 0.0
C2146 C 0.04315 0.9346 0.78059 0.0
C2147 C 0.04404 0.93276 0.74708 0.0
C2148 C 0.04854 0.95185 0.72873 0.0
H2149 H 0.69145 0.28078 0.54146 0.0
H2150 H 0.69426 0.35257 0.54881 0.0
H2151 H 0.73475 0.35142 0.54125 0.0
H2152 H 0.74328 0.26973 0.58245 0.0
H2153 H 0.75071 0.24697 0.55689 0.0
H2154 H 0.72193 0.25332 0.56387 0.0
H2155 H 0.71555 0.25676 0.50332 0.0
H2156 H 0.74433 0.25055 0.49617 0.0
H2157 H 0.73239 0.27568 0.48054 0.0
H2158 H 0.77474 0.34279 0.53188 0.0
H2159 H 0.81187 0.32705 0.5222 0.0
H2160 H 0.78336 0.26088 0.52031 0.0
C2161 C 0.70061 0.29623 0.54177 0.0
C2162 C 0.68965 0.31677 0.54579 0.0
C2163 C 0.70224 0.33663 0.54577 0.0
C2164 C 0.72528 0.33617 0.54149 0.0
C2165 C 0.73553 0.31573 0.53721 0.0
C2166 C 0.72367 0.2961 0.53739 0.0
C2167 C 0.73878 0.27641 0.53173 0.0
C2168 C 0.73866 0.26068 0.56045 0.0
C2169 C 0.73237 0.26413 0.50112 0.0
C2170 C 0.76093 0.28808 0.52827 0.0
C2171 C 0.75867 0.31075 0.53155 0.0
C2172 C 0.77675 0.32505 0.5293 0.0
C2173 C 0.79778 0.31594 0.52376 0.0
C2174 C 0.80057 0.29273 0.52045 0.0
C2175 C 0.7818 0.27869 0.52263 0.0
loop_
_geom_bond_atom_site_label_1
_geom_bond_atom_site_label_2
_geom_bond_distance
_geom_bond_site_symmetry_2
_ccdc_geom_bond_type
Zn0 O3 2.031 . S
Zn0 O5 2.049 . S
Zn0 O10 2.067 . S
Zn1 O2 1.962 1_455 S
Zn1 O4 1.986 . S
Zn1 O6 1.996 . S
Zn1 O9 1.943 . S
O2 Zn1 1.962 1_655 S
O2 C7 1.254 . S
O3 Zn0 2.031 . S
O3 C7 1.269 1_455 S
O4 Zn1 1.986 . S
O4 C11 1.262 . S
O5 Zn0 2.049 . S
O5 C13 1.260 . S
O6 Zn1 1.996 . S
O6 C13 1.257 . S
C7 O2 1.254 . S
C7 O3 1.269 1_655 S
C8 O9 1.249 . S
C8 O10 1.270 . S
O9 Zn1 1.943 . S
O9 C8 1.249 . S
O10 Zn0 2.067 . S
O10 C8 1.270 . S
C11 O4 1.262 . S
C11 O12 1.232 . S
O12 C11 1.232 . S
C13 O5 1.260 . S
C13 O6 1.257 . S
Zn14 O17 2.031 . S
Zn14 O19 2.049 . S
Zn14 O24 2.067 . S
Zn15 O16 1.962 . S
Zn15 O18 1.986 . S
Zn15 O20 1.996 . S
Zn15 O23 1.943 . S
O16 Zn15 1.962 . S
O16 C21 1.254 . S
O17 Zn14 2.031 . S
O17 C21 1.269 . S
O18 Zn15 1.986 . S
O18 C25 1.262 . S
O19 Zn14 2.049 . S
O19 C27 1.260 . S
O20 Zn15 1.996 . S
O20 C27 1.257 . S
C21 O16 1.254 . S
C21 O17 1.269 . S
C22 O23 1.249 . S
C22 O24 1.270 . S
O23 Zn15 1.943 . S
O23 C22 1.249 . S
O24 Zn14 2.067 . S
O24 C22 1.270 . S
C25 O18 1.262 . S
C25 O26 1.232 . S
O26 C25 1.232 . S
C27 O19 1.260 . S
C27 O20 1.257 . S
Zn28 O31 2.031 . S
Zn28 O33 2.049 . S
Zn28 O38 2.067 . S
Zn29 O30 1.962 . S
Zn29 O32 1.986 . S
Zn29 O34 1.996 . S
Zn29 O37 1.943 . S
O30 Zn29 1.962 . S
O30 C35 1.254 . S
O31 Zn28 2.031 . S
O31 C35 1.269 . S
O32 Zn29 1.986 . S
O32 C39 1.262 . S
O33 Zn28 2.049 . S
O33 C41 1.260 . S
O34 Zn29 1.996 . S
O34 C41 1.257 . S
C35 O30 1.254 . S
C35 O31 1.269 . S
C36 O37 1.249 . S
C36 O38 1.270 . S
O37 Zn29 1.943 . S
O37 C36 1.249 . S
O38 Zn28 2.067 . S
O38 C36 1.270 . S
C39 O32 1.262 . S
C39 O40 1.232 . S
O40 C39 1.232 . S
C41 O33 1.260 . S
C41 O34 1.257 . S
Zn42 O45 2.031 . S
Zn42 O47 2.049 1_554 S
Zn42 O52 2.067 . S
Zn43 O44 1.962 . S
Zn43 O46 1.986 . S
Zn43 O48 1.996 1_554 S
Zn43 O51 1.943 . S
O44 Zn43 1.962 . S
O44 C49 1.254 . S
O45 Zn42 2.031 . S
O45 C49 1.269 . S
O46 Zn43 1.986 . S
O46 C53 1.262 . S
O47 Zn42 2.049 1_556 S
O47 C55 1.260 . S
O48 Zn43 1.996 1_556 S
O48 C55 1.257 . S
C49 O44 1.254 . S
C49 O45 1.269 . S
C50 O51 1.249 . S
C50 O52 1.270 . S
O51 Zn43 1.943 . S
O51 C50 1.249 . S
O52 Zn42 2.067 . S
O52 C50 1.270 . S
C53 O46 1.262 . S
C53 O54 1.232 . S
O54 C53 1.232 . S
C55 O47 1.260 . S
C55 O48 1.257 . S
Zn56 O59 2.031 . S
Zn56 O61 2.049 . S
Zn56 O66 2.067 . S
Zn57 O58 1.962 1_455 S
Zn57 O60 1.986 . S
Zn57 O62 1.996 . S
Zn57 O65 1.943 . S
O58 Zn57 1.962 1_655 S
O58 C63 1.254 . S
O59 Zn56 2.031 . S
O59 C63 1.269 1_455 S
O60 Zn57 1.986 . S
O60 C67 1.262 . S
O61 Zn56 2.049 . S
O61 C69 1.260 . S
O62 Zn57 1.996 . S
O62 C69 1.257 . S
C63 O58 1.254 . S
C63 O59 1.269 1_655 S
C64 O65 1.249 . S
C64 O66 1.270 . S
O65 Zn57 1.943 . S
O65 C64 1.249 . S
O66 Zn56 2.067 . S
O66 C64 1.270 . S
C67 O60 1.262 . S
C67 O68 1.232 . S
O68 C67 1.232 . S
C69 O61 1.260 . S
C69 O62 1.257 . S
Zn70 O73 2.031 . S
Zn70 O75 2.049 . S
Zn70 O80 2.067 . S
Zn71 O72 1.962 . S
Zn71 O74 1.986 . S
Zn71 O76 1.996 . S
Zn71 O79 1.943 . S
O72 Zn71 1.962 . S
O72 C77 1.254 . S
O73 Zn70 2.031 . S
O73 C77 1.269 . S
O74 Zn71 1.986 . S
O74 C81 1.262 . S
O75 Zn70 2.049 . S
O75 C83 1.260 . S
O76 Zn71 1.996 . S
O76 C83 1.257 . S
C77 O72 1.254 . S
C77 O73 1.269 . S
C78 O79 1.249 . S
C78 O80 1.270 . S
O79 Zn71 1.943 . S
O79 C78 1.249 . S
O80 Zn70 2.067 . S
O80 C78 1.270 . S
C81 O74 1.262 . S
C81 O82 1.232 . S
O82 C81 1.232 . S
C83 O75 1.260 . S
C83 O76 1.257 . S
Zn84 O87 2.031 . S
Zn84 O89 2.049 . S
Zn84 O94 2.067 . S
Zn85 O86 1.962 . S
Zn85 O88 1.986 . S
Zn85 O90 1.996 . S
Zn85 O93 1.943 . S
O86 Zn85 1.962 . S
O86 C91 1.254 . S
O87 Zn84 2.031 . S
O87 C91 1.269 . S
O88 Zn85 1.986 . S
O88 C95 1.262 . S
O89 Zn84 2.049 . S
O89 C97 1.260 . S
O90 Zn85 1.996 . S
O90 C97 1.257 . S
C91 O86 1.254 . S
C91 O87 1.269 . S
C92 O93 1.249 . S
C92 O94 1.270 . S
O93 Zn85 1.943 . S
O93 C92 1.249 . S
O94 Zn84 2.067 . S
O94 C92 1.270 . S
C95 O88 1.262 . S
C95 O96 1.232 . S
O96 C95 1.232 . S
C97 O89 1.260 . S
C97 O90 1.257 . S
Zn98 O101 2.031 . S
Zn98 O103 2.049 1_556 S
Zn98 O108 2.067 . S
Zn99 O100 1.962 . S
Zn99 O102 1.986 . S
Zn99 O104 1.996 1_556 S
Zn99 O107 1.943 . S
O100 Zn99 1.962 . S
O100 C105 1.254 . S
O101 Zn98 2.031 . S
O101 C105 1.269 . S
O102 Zn99 1.986 . S
O102 C109 1.262 . S
O103 Zn98 2.049 1_554 S
O103 C111 1.260 . S
O104 Zn99 1.996 1_554 S
O104 C111 1.257 . S
C105 O100 1.254 . S
C105 O101 1.269 . S
C106 O107 1.249 . S
C106 O108 1.270 . S
O107 Zn99 1.943 . S
O107 C106 1.249 . S
O108 Zn98 2.067 . S
O108 C106 1.270 . S
C109 O102 1.262 . S
C109 O110 1.232 . S
O110 C109 1.232 . S
C111 O103 1.260 . S
C111 O104 1.257 . S
Zn112 O115 2.031 . S
Zn112 O117 2.049 . S
Zn112 O122 2.067 . S
Zn113 O114 1.962 1_655 S
Zn113 O116 1.986 . S
Zn113 O118 1.996 . S
Zn113 O121 1.943 . S
O114 Zn113 1.962 1_455 S
O114 C119 1.254 . S
O115 Zn112 2.031 . S
O115 C119 1.269 1_655 S
O116 Zn113 1.986 . S
O116 C123 1.262 . S
O117 Zn112 2.049 . S
O117 C125 1.260 . S
O118 Zn113 1.996 . S
O118 C125 1.257 . S
C119 O114 1.254 . S
C119 O115 1.269 1_455 S
C120 O121 1.249 . S
C120 O122 1.270 . S
O121 Zn113 1.943 . S
O121 C120 1.249 . S
O122 Zn112 2.067 . S
O122 C120 1.270 . S
C123 O116 1.262 . S
C123 O124 1.232 . S
O124 C123 1.232 . S
C125 O117 1.260 . S
C125 O118 1.257 . S
Zn126 O129 2.031 . S
Zn126 O131 2.049 . S
Zn126 O136 2.067 . S
Zn127 O128 1.962 . S
Zn127 O130 1.986 . S
Zn127 O132 1.996 . S
Zn127 O135 1.943 . S
O128 Zn127 1.962 . S
O128 C133 1.254 . S
O129 Zn126 2.031 . S
O129 C133 1.269 . S
O130 Zn127 1.986 . S
O130 C137 1.262 . S
O131 Zn126 2.049 . S
O131 C139 1.260 . S
O132 Zn127 1.996 . S
O132 C139 1.257 . S
C133 O128 1.254 . S
C133 O129 1.269 . S
C134 O135 1.249 . S
C134 O136 1.270 . S
O135 Zn127 1.943 . S
O135 C134 1.249 . S
O136 Zn126 2.067 . S
O136 C134 1.270 . S
C137 O130 1.262 . S
C137 O138 1.232 . S
O138 C137 1.232 . S
C139 O131 1.260 . S
C139 O132 1.257 . S
Zn140 O143 2.031 . S
Zn140 O145 2.049 . S
Zn140 O150 2.067 . S
Zn141 O142 1.962 . S
Zn141 O144 1.986 . S
Zn141 O146 1.996 . S
Zn141 O149 1.943 . S
O142 Zn141 1.962 . S
O142 C147 1.254 . S
O143 Zn140 2.031 . S
O143 C147 1.269 . S
O144 Zn141 1.986 . S
O144 C151 1.262 . S
O145 Zn140 2.049 . S
O145 C153 1.260 . S
O146 Zn141 1.996 . S
O146 C153 1.257 . S
C147 O142 1.254 . S
C147 O143 1.269 . S
C148 O149 1.249 . S
C148 O150 1.270 . S
O149 Zn141 1.943 . S
O149 C148 1.249 . S
O150 Zn140 2.067 . S
O150 C148 1.270 . S
C151 O144 1.262 . S
C151 O152 1.232 . S
O152 C151 1.232 . S
C153 O145 1.260 . S
C153 O146 1.257 . S
Zn154 O157 2.031 . S
Zn154 O159 2.049 1_556 S
Zn154 O164 2.067 . S
Zn155 O156 1.962 . S
Zn155 O158 1.986 . S
Zn155 O160 1.996 1_556 S
Zn155 O163 1.943 . S
O156 Zn155 1.962 . S
O156 C161 1.254 . S
O157 Zn154 2.031 . S
O157 C161 1.269 . S
O158 Zn155 1.986 . S
O158 C165 1.262 . S
O159 Zn154 2.049 1_554 S
O159 C167 1.260 . S
O160 Zn155 1.996 1_554 S
O160 C167 1.257 . S
C161 O156 1.254 . S
C161 O157 1.269 . S
C162 O163 1.249 . S
C162 O164 1.270 . S
O163 Zn155 1.943 . S
O163 C162 1.249 . S
O164 Zn154 2.067 . S
O164 C162 1.270 . S
C165 O158 1.262 . S
C165 O166 1.232 . S
O166 C165 1.232 . S
C167 O159 1.260 . S
C167 O160 1.257 . S
Zn168 O171 2.031 . S
Zn168 O173 2.049 . S
Zn168 O178 2.067 . S
Zn169 O170 1.962 1_655 S
Zn169 O172 1.986 . S
Zn169 O174 1.996 . S
Zn169 O177 1.943 . S
O170 Zn169 1.962 1_455 S
O170 C175 1.254 . S
O171 Zn168 2.031 . S
O171 C175 1.269 1_655 S
O172 Zn169 1.986 . S
O172 C179 1.262 . S
O173 Zn168 2.049 . S
O173 C181 1.260 . S
O174 Zn169 1.996 . S
O174 C181 1.257 . S
C175 O170 1.254 . S
C175 O171 1.269 1_455 S
C176 O177 1.249 . S
C176 O178 1.270 . S
O177 Zn169 1.943 . S
O177 C176 1.249 . S
O178 Zn168 2.067 . S
O178 C176 1.270 . S
C179 O172 1.262 . S
C179 O180 1.232 . S
O180 C179 1.232 . S
C181 O173 1.260 . S
C181 O174 1.257 . S
Zn182 O185 2.031 . S
Zn182 O187 2.049 . S
Zn182 O192 2.067 . S
Zn183 O184 1.962 . S
Zn183 O186 1.986 . S
Zn183 O188 1.996 . S
Zn183 O191 1.943 . S
O184 Zn183 1.962 . S
O184 C189 1.254 . S
O185 Zn182 2.031 . S
O185 C189 1.269 . S
O186 Zn183 1.986 . S
O186 C193 1.262 . S
O187 Zn182 2.049 . S
O187 C195 1.260 . S
O188 Zn183 1.996 . S
O188 C195 1.257 . S
C189 O184 1.254 . S
C189 O185 1.269 . S
C190 O191 1.249 . S
C190 O192 1.270 . S
O191 Zn183 1.943 . S
O191 C190 1.249 . S
O192 Zn182 2.067 . S
O192 C190 1.270 . S
C193 O186 1.262 . S
C193 O194 1.232 . S
O194 C193 1.232 . S
C195 O187 1.260 . S
C195 O188 1.257 . S
Zn196 O199 2.031 . S
Zn196 O201 2.049 . S
Zn196 O206 2.067 . S
Zn197 O198 1.962 . S
Zn197 O200 1.986 . S
Zn197 O202 1.996 . S
Zn197 O205 1.943 . S
O198 Zn197 1.962 . S
O198 C203 1.254 . S
O199 Zn196 2.031 . S
O199 C203 1.269 . S
O200 Zn197 1.986 . S
O200 C207 1.262 . S
O201 Zn196 2.049 . S
O201 C209 1.260 . S
O202 Zn197 1.996 . S
O202 C209 1.257 . S
C203 O198 1.254 . S
C203 O199 1.269 . S
C204 O205 1.249 . S
C204 O206 1.270 . S
O205 Zn197 1.943 . S
O205 C204 1.249 . S
O206 Zn196 2.067 . S
O206 C204 1.270 . S
C207 O200 1.262 . S
C207 O208 1.232 . S
O208 C207 1.232 . S
C209 O201 1.260 . S
C209 O202 1.257 . S
Zn210 O213 2.031 . S
Zn210 O215 2.049 1_554 S
Zn210 O220 2.067 . S
Zn211 O212 1.962 . S
Zn211 O214 1.986 . S
Zn211 O216 1.996 1_554 S
Zn211 O219 1.943 . S
O212 Zn211 1.962 . S
O212 C217 1.254 . S
O213 Zn210 2.031 . S
O213 C217 1.269 . S
O214 Zn211 1.986 . S
O214 C221 1.262 . S
O215 Zn210 2.049 1_556 S
O215 C223 1.260 . S
O216 Zn211 1.996 1_556 S
O216 C223 1.257 . S
C217 O212 1.254 . S
C217 O213 1.269 . S
C218 O219 1.249 . S
C218 O220 1.270 . S
O219 Zn211 1.943 . S
O219 C218 1.249 . S
O220 Zn210 2.067 . S
O220 C218 1.270 . S
C221 O214 1.262 . S
C221 O222 1.232 . S
O222 C221 1.232 . S
C223 O215 1.260 . S
C223 O216 1.257 . S
Zn224 O227 2.031 . S
Zn224 O229 2.049 . S
Zn224 O234 2.067 . S
Zn225 O226 1.962 . S
Zn225 O228 1.986 . S
Zn225 O230 1.996 . S
Zn225 O233 1.943 . S
O226 Zn225 1.962 . S
O226 C231 1.254 . S
O227 Zn224 2.031 . S
O227 C231 1.269 . S
O228 Zn225 1.986 . S
O228 C235 1.262 . S
O229 Zn224 2.049 . S
O229 C237 1.260 . S
O230 Zn225 1.996 . S
O230 C237 1.257 . S
C231 O226 1.254 . S
C231 O227 1.269 . S
C232 O233 1.249 . S
C232 O234 1.270 . S
O233 Zn225 1.943 . S
O233 C232 1.249 . S
O234 Zn224 2.067 . S
O234 C232 1.270 . S
C235 O228 1.262 . S
C235 O236 1.232 . S
O236 C235 1.232 . S
C237 O229 1.260 . S
C237 O230 1.257 . S
Zn238 O241 2.031 . S
Zn238 O243 2.049 1_554 S
Zn238 O248 2.067 . S
Zn239 O240 1.962 . S
Zn239 O242 1.986 . S
Zn239 O244 1.996 1_554 S
Zn239 O247 1.943 . S
O240 Zn239 1.962 . S
O240 C245 1.254 . S
O241 Zn238 2.031 . S
O241 C245 1.269 . S
O242 Zn239 1.986 . S
O242 C249 1.262 . S
O243 Zn238 2.049 1_556 S
O243 C251 1.260 . S
O244 Zn239 1.996 1_556 S
O244 C251 1.257 . S
C245 O240 1.254 . S
C245 O241 1.269 . S
C246 O247 1.249 . S
C246 O248 1.270 . S
O247 Zn239 1.943 . S
O247 C246 1.249 . S
O248 Zn238 2.067 . S
O248 C246 1.270 . S
C249 O242 1.262 . S
C249 O250 1.232 . S
O250 C249 1.232 . S
C251 O243 1.260 . S
C251 O244 1.257 . S
Zn252 O255 2.031 . S
Zn252 O257 2.049 . S
Zn252 O262 2.067 . S
Zn253 O254 1.962 1_655 S
Zn253 O256 1.986 . S
Zn253 O258 1.996 . S
Zn253 O261 1.943 . S
O254 Zn253 1.962 1_455 S
O254 C259 1.254 . S
O255 Zn252 2.031 . S
O255 C259 1.269 1_655 S
O256 Zn253 1.986 . S
O256 C263 1.262 . S
O257 Zn252 2.049 . S
O257 C265 1.260 . S
O258 Zn253 1.996 . S
O258 C265 1.257 . S
C259 O254 1.254 . S
C259 O255 1.269 1_455 S
C260 O261 1.249 . S
C260 O262 1.270 . S
O261 Zn253 1.943 . S
O261 C260 1.249 . S
O262 Zn252 2.067 . S
O262 C260 1.270 . S
C263 O256 1.262 . S
C263 O264 1.232 . S
O264 C263 1.232 . S
C265 O257 1.260 . S
C265 O258 1.257 . S
Zn266 O269 2.031 . S
Zn266 O271 2.049 . S
Zn266 O276 2.067 . S
Zn267 O268 1.962 . S
Zn267 O270 1.986 . S
Zn267 O272 1.996 . S
Zn267 O275 1.943 . S
O268 Zn267 1.962 . S
O268 C273 1.254 . S
O269 Zn266 2.031 . S
O269 C273 1.269 . S
O270 Zn267 1.986 . S
O270 C277 1.262 . S
O271 Zn266 2.049 . S
O271 C279 1.260 . S
O272 Zn267 1.996 . S
O272 C279 1.257 . S
C273 O268 1.254 . S
C273 O269 1.269 . S
C274 O275 1.249 . S
C274 O276 1.270 . S
O275 Zn267 1.943 . S
O275 C274 1.249 . S
O276 Zn266 2.067 . S
O276 C274 1.270 . S
C277 O270 1.262 . S
C277 O278 1.232 . S
O278 C277 1.232 . S
C279 O271 1.260 . S
C279 O272 1.257 . S
Zn280 O283 2.031 . S
Zn280 O285 2.049 . S
Zn280 O290 2.067 . S
Zn281 O282 1.962 . S
Zn281 O284 1.986 . S
Zn281 O286 1.996 . S
Zn281 O289 1.943 . S
O282 Zn281 1.962 . S
O282 C287 1.254 . S
O283 Zn280 2.031 . S
O283 C287 1.269 . S
O284 Zn281 1.986 . S
O284 C291 1.262 . S
O285 Zn280 2.049 . S
O285 C293 1.260 . S
O286 Zn281 1.996 . S
O286 C293 1.257 . S
C287 O282 1.254 . S
C287 O283 1.269 . S
C288 O289 1.249 . S
C288 O290 1.270 . S
O289 Zn281 1.943 . S
O289 C288 1.249 . S
O290 Zn280 2.067 . S
O290 C288 1.270 . S
C291 O284 1.262 . S
C291 O292 1.232 . S
O292 C291 1.232 . S
C293 O285 1.260 . S
C293 O286 1.257 . S
Zn294 O297 2.031 . S
Zn294 O299 2.049 1_556 S
Zn294 O304 2.067 . S
Zn295 O296 1.962 . S
Zn295 O298 1.986 . S
Zn295 O300 1.996 1_556 S
Zn295 O303 1.943 . S
O296 Zn295 1.962 . S
O296 C301 1.254 . S
O297 Zn294 2.031 . S
O297 C301 1.269 . S
O298 Zn295 1.986 . S
O298 C305 1.262 . S
O299 Zn294 2.049 1_554 S
O299 C307 1.260 . S
O300 Zn295 1.996 1_554 S
O300 C307 1.257 . S
C301 O296 1.254 . S
C301 O297 1.269 . S
C302 O303 1.249 . S
C302 O304 1.270 . S
O303 Zn295 1.943 . S
O303 C302 1.249 . S
O304 Zn294 2.067 . S
O304 C302 1.270 . S
C305 O298 1.262 . S
C305 O306 1.232 . S
O306 C305 1.232 . S
C307 O299 1.260 . S
C307 O300 1.257 . S
Zn308 O311 2.031 . S
Zn308 O313 2.049 . S
Zn308 O318 2.067 . S
Zn309 O310 1.962 1_655 S
Zn309 O312 1.986 . S
Zn309 O314 1.996 . S
Zn309 O317 1.943 . S
O310 Zn309 1.962 1_455 S
O310 C315 1.254 . S
O311 Zn308 2.031 . S
O311 C315 1.269 1_655 S
O312 Zn309 1.986 . S
O312 C319 1.262 . S
O313 Zn308 2.049 . S
O313 C321 1.260 . S
O314 Zn309 1.996 . S
O314 C321 1.257 . S
C315 O310 1.254 . S
C315 O311 1.269 1_455 S
C316 O317 1.249 . S
C316 O318 1.270 . S
O317 Zn309 1.943 . S
O317 C316 1.249 . S
O318 Zn308 2.067 . S
O318 C316 1.270 . S
C319 O312 1.262 . S
C319 O320 1.232 . S
O320 C319 1.232 . S
C321 O313 1.260 . S
C321 O314 1.257 . S
Zn322 O325 2.031 . S
Zn322 O327 2.049 . S
Zn322 O332 2.067 . S
Zn323 O324 1.962 . S
Zn323 O326 1.986 . S
Zn323 O328 1.996 . S
Zn323 O331 1.943 . S
O324 Zn323 1.962 . S
O324 C329 1.254 . S
O325 Zn322 2.031 . S
O325 C329 1.269 . S
O326 Zn323 1.986 . S
O326 C333 1.262 . S
O327 Zn322 2.049 . S
O327 C335 1.260 . S
O328 Zn323 1.996 . S
O328 C335 1.257 . S
C329 O324 1.254 . S
C329 O325 1.269 . S
C330 O331 1.249 . S
C330 O332 1.270 . S
O331 Zn323 1.943 . S
O331 C330 1.249 . S
O332 Zn322 2.067 . S
O332 C330 1.270 . S
C333 O326 1.262 . S
C333 O334 1.232 . S
O334 C333 1.232 . S
C335 O327 1.260 . S
C335 O328 1.257 . S
Zn336 O339 2.031 . S
Zn336 O341 2.049 . S
Zn336 O346 2.067 . S
Zn337 O338 1.962 . S
Zn337 O340 1.986 . S
Zn337 O342 1.996 . S
Zn337 O345 1.943 . S
O338 Zn337 1.962 . S
O338 C343 1.254 . S
O339 Zn336 2.031 . S
O339 C343 1.269 . S
O340 Zn337 1.986 . S
O340 C347 1.262 . S
O341 Zn336 2.049 . S
O341 C349 1.260 . S
O342 Zn337 1.996 . S
O342 C349 1.257 . S
C343 O338 1.254 . S
C343 O339 1.269 . S
C344 O345 1.249 . S
C344 O346 1.270 . S
O345 Zn337 1.943 . S
O345 C344 1.249 . S
O346 Zn336 2.067 . S
O346 C344 1.270 . S
C347 O340 1.262 . S
C347 O348 1.232 . S
O348 C347 1.232 . S
C349 O341 1.260 . S
C349 O342 1.257 . S
Zn350 O353 2.031 . S
Zn350 O355 2.049 1_556 S
Zn350 O360 2.067 . S
Zn351 O352 1.962 . S
Zn351 O354 1.986 . S
Zn351 O356 1.996 1_556 S
Zn351 O359 1.943 . S
O352 Zn351 1.962 . S
O352 C357 1.254 . S
O353 Zn350 2.031 . S
O353 C357 1.269 . S
O354 Zn351 1.986 . S
O354 C361 1.262 . S
O355 Zn350 2.049 1_554 S
O355 C363 1.260 . S
O356 Zn351 1.996 1_554 S
O356 C363 1.257 . S
C357 O352 1.254 . S
C357 O353 1.269 . S
C358 O359 1.249 . S
C358 O360 1.270 . S
O359 Zn351 1.943 . S
O359 C358 1.249 . S
O360 Zn350 2.067 . S
O360 C358 1.270 . S
C361 O354 1.262 . S
C361 O362 1.232 . S
O362 C361 1.232 . S
C363 O355 1.260 . S
C363 O356 1.257 . S
Zn364 O367 2.031 . S
Zn364 O369 2.049 . S
Zn364 O374 2.067 . S
Zn365 O366 1.962 1_455 S
Zn365 O368 1.986 . S
Zn365 O370 1.996 . S
Zn365 O373 1.943 . S
O366 Zn365 1.962 1_655 S
O366 C371 1.254 . S
O367 Zn364 2.031 . S
O367 C371 1.269 1_455 S
O368 Zn365 1.986 . S
O368 C375 1.262 . S
O369 Zn364 2.049 . S
O369 C377 1.260 . S
O370 Zn365 1.996 . S
O370 C377 1.257 . S
C371 O366 1.254 . S
C371 O367 1.269 1_655 S
C372 O373 1.249 . S
C372 O374 1.270 . S
O373 Zn365 1.943 . S
O373 C372 1.249 . S
O374 Zn364 2.067 . S
O374 C372 1.270 . S
C375 O368 1.262 . S
C375 O376 1.232 . S
O376 C375 1.232 . S
C377 O369 1.260 . S
C377 O370 1.257 . S
Zn378 O381 2.031 . S
Zn378 O383 2.049 . S
Zn378 O388 2.067 . S
Zn379 O380 1.962 . S
Zn379 O382 1.986 . S
Zn379 O384 1.996 . S
Zn379 O387 1.943 . S
O380 Zn379 1.962 . S
O380 C385 1.254 . S
O381 Zn378 2.031 . S
O381 C385 1.269 . S
O382 Zn379 1.986 . S
O382 C389 1.262 . S
O383 Zn378 2.049 . S
O383 C391 1.260 . S
O384 Zn379 1.996 . S
O384 C391 1.257 . S
C385 O380 1.254 . S
C385 O381 1.269 . S
C386 O387 1.249 . S
C386 O388 1.270 . S
O387 Zn379 1.943 . S
O387 C386 1.249 . S
O388 Zn378 2.067 . S
O388 C386 1.270 . S
C389 O382 1.262 . S
C389 O390 1.232 . S
O390 C389 1.232 . S
C391 O383 1.260 . S
C391 O384 1.257 . S
Zn392 O395 2.031 . S
Zn392 O397 2.049 . S
Zn392 O402 2.067 . S
Zn393 O394 1.962 . S
Zn393 O396 1.986 . S
Zn393 O398 1.996 . S
Zn393 O401 1.943 . S
O394 Zn393 1.962 . S
O394 C399 1.254 . S
O395 Zn392 2.031 . S
O395 C399 1.269 . S
O396 Zn393 1.986 . S
O396 C403 1.262 . S
O397 Zn392 2.049 . S
O397 C405 1.260 . S
O398 Zn393 1.996 . S
O398 C405 1.257 . S
C399 O394 1.254 . S
C399 O395 1.269 . S
C400 O401 1.249 . S
C400 O402 1.270 . S
O401 Zn393 1.943 . S
O401 C400 1.249 . S
O402 Zn392 2.067 . S
O402 C400 1.270 . S
C403 O396 1.262 . S
C403 O404 1.232 . S
O404 C403 1.232 . S
C405 O397 1.260 . S
C405 O398 1.257 . S
Zn406 O409 2.031 . S
Zn406 O411 2.049 1_554 S
Zn406 O416 2.067 . S
Zn407 O408 1.962 . S
Zn407 O410 1.986 . S
Zn407 O412 1.996 1_554 S
Zn407 O415 1.943 . S
O408 Zn407 1.962 . S
O408 C413 1.254 . S
O409 Zn406 2.031 . S
O409 C413 1.269 . S
O410 Zn407 1.986 . S
O410 C417 1.262 . S
O411 Zn406 2.049 1_556 S
O411 C419 1.260 . S
O412 Zn407 1.996 1_556 S
O412 C419 1.257 . S
C413 O408 1.254 . S
C413 O409 1.269 . S
C414 O415 1.249 . S
C414 O416 1.270 . S
O415 Zn407 1.943 . S
O415 C414 1.249 . S
O416 Zn406 2.067 . S
O416 C414 1.270 . S
C417 O410 1.262 . S
C417 O418 1.232 . S
O418 C417 1.232 . S
C419 O411 1.260 . S
C419 O412 1.257 . S
Zn420 O423 2.031 . S
Zn420 O425 2.049 . S
Zn420 O430 2.067 . S
Zn421 O422 1.962 1_455 S
Zn421 O424 1.986 . S
Zn421 O426 1.996 . S
Zn421 O429 1.943 . S
O422 Zn421 1.962 1_655 S
O422 C427 1.254 . S
O423 Zn420 2.031 . S
O423 C427 1.269 1_455 S
O424 Zn421 1.986 . S
O424 C431 1.262 . S
O425 Zn420 2.049 . S
O425 C433 1.260 . S
O426 Zn421 1.996 . S
O426 C433 1.257 . S
C427 O422 1.254 . S
C427 O423 1.269 1_655 S
C428 O429 1.249 . S
C428 O430 1.270 . S
O429 Zn421 1.943 . S
O429 C428 1.249 . S
O430 Zn420 2.067 . S
O430 C428 1.270 . S
C431 O424 1.262 . S
C431 O432 1.232 . S
O432 C431 1.232 . S
C433 O425 1.260 . S
C433 O426 1.257 . S
Zn434 O437 2.031 . S
Zn434 O439 2.049 . S
Zn434 O444 2.067 . S
Zn435 O436 1.962 . S
Zn435 O438 1.986 . S
Zn435 O440 1.996 . S
Zn435 O443 1.943 . S
O436 Zn435 1.962 . S
O436 C441 1.254 . S
O437 Zn434 2.031 . S
O437 C441 1.269 . S
O438 Zn435 1.986 . S
O438 C445 1.262 . S
O439 Zn434 2.049 . S
O439 C447 1.260 . S
O440 Zn435 1.996 . S
O440 C447 1.257 . S
C441 O436 1.254 . S
C441 O437 1.269 . S
C442 O443 1.249 . S
C442 O444 1.270 . S
O443 Zn435 1.943 . S
O443 C442 1.249 . S
O444 Zn434 2.067 . S
O444 C442 1.270 . S
C445 O438 1.262 . S
C445 O446 1.232 . S
O446 C445 1.232 . S
C447 O439 1.260 . S
C447 O440 1.257 . S
H448 C460 0.930 . S
H449 C462 0.930 . S
H450 C463 0.930 . S
H451 C467 0.959 . S
H452 C467 0.959 . S
H453 C467 0.961 . S
H454 C468 0.960 . S
H455 C468 0.961 . S
H456 C468 0.959 . S
H457 C471 0.929 . S
H458 C472 0.931 . S
H459 C474 0.930 . S
C460 H448 0.930 . S
C460 C461 1.399 . S
C460 C465 1.399 . S
C461 C460 1.399 . S
C461 C462 1.376 . S
C462 H449 0.930 . S
C462 C461 1.376 . S
C462 C463 1.388 . S
C463 H450 0.930 . S
C463 C462 1.388 . S
C463 C464 1.390 . S
C464 C463 1.390 . S
C464 C465 1.394 . S
C464 C470 1.465 . S
C465 C460 1.399 . S
C465 C464 1.394 . S
C465 C466 1.516 . S
C466 C465 1.516 . S
C466 C467 1.502 . S
C466 C468 1.561 . S
C466 C469 1.526 . S
C467 H451 0.959 . S
C467 H452 0.959 . S
C467 H453 0.961 . S
C467 C466 1.502 . S
C468 H454 0.960 . S
C468 H455 0.961 . S
C468 H456 0.959 . S
C468 C466 1.561 . S
C469 C466 1.526 . S
C469 C470 1.396 . S
C469 C474 1.390 . S
C470 C464 1.465 . S
C470 C469 1.396 . S
C470 C471 1.399 . S
C471 H457 0.929 . S
C471 C470 1.399 . S
C471 C472 1.385 . S
C472 H458 0.931 . S
C472 C471 1.385 . S
C472 C473 1.389 . S
C473 C472 1.389 . S
C473 C474 1.387 . S
C474 H459 0.930 . S
C474 C469 1.390 . S
C474 C473 1.387 . S
H475 C487 0.930 . S
H476 C489 0.930 . S
H477 C490 0.930 . S
H478 C494 0.959 . S
H479 C494 0.959 . S
H480 C494 0.961 . S
H481 C495 0.960 . S
H482 C495 0.961 . S
H483 C495 0.959 . S
H484 C498 0.929 . S
H485 C499 0.931 . S
H486 C501 0.930 . S
C487 H475 0.930 . S
C487 C488 1.399 . S
C487 C492 1.399 . S
C488 C487 1.399 . S
C488 C489 1.376 . S
C489 H476 0.930 . S
C489 C488 1.376 . S
C489 C490 1.388 . S
C490 H477 0.930 . S
C490 C489 1.388 . S
C490 C491 1.390 . S
C491 C490 1.390 . S
C491 C492 1.394 . S
C491 C497 1.465 . S
C492 C487 1.399 . S
C492 C491 1.394 . S
C492 C493 1.516 . S
C493 C492 1.516 . S
C493 C494 1.502 . S
C493 C495 1.561 . S
C493 C496 1.526 . S
C494 H478 0.959 . S
C494 H479 0.959 . S
C494 H480 0.961 . S
C494 C493 1.502 . S
C495 H481 0.960 . S
C495 H482 0.961 . S
C495 H483 0.959 . S
C495 C493 1.561 . S
C496 C493 1.526 . S
C496 C497 1.396 . S
C496 C501 1.390 . S
C497 C491 1.465 . S
C497 C496 1.396 . S
C497 C498 1.399 . S
C498 H484 0.929 . S
C498 C497 1.399 . S
C498 C499 1.385 . S
C499 H485 0.931 . S
C499 C498 1.385 . S
C499 C500 1.389 . S
C500 C499 1.389 . S
C500 C501 1.387 . S
C501 H486 0.930 . S
C501 C496 1.390 . S
C501 C500 1.387 . S
H502 C514 0.930 . S
H503 C516 0.930 . S
H504 C517 0.930 . S
H505 C521 0.959 . S
H506 C521 0.959 . S
H507 C521 0.961 . S
H508 C522 0.960 . S
H509 C522 0.961 . S
H510 C522 0.959 . S
H511 C525 0.929 . S
H512 C526 0.931 . S
H513 C528 0.930 . S
C514 H502 0.930 . S
C514 C515 1.399 . S
C514 C519 1.399 . S
C515 C514 1.399 . S
C515 C516 1.376 . S
C516 H503 0.930 . S
C516 C515 1.376 . S
C516 C517 1.388 . S
C517 H504 0.930 . S
C517 C516 1.388 . S
C517 C518 1.390 . S
C518 C517 1.390 . S
C518 C519 1.394 . S
C518 C524 1.465 . S
C519 C514 1.399 . S
C519 C518 1.394 . S
C519 C520 1.516 . S
C520 C519 1.516 . S
C520 C521 1.502 . S
C520 C522 1.561 . S
C520 C523 1.526 . S
C521 H505 0.959 . S
C521 H506 0.959 . S
C521 H507 0.961 . S
C521 C520 1.502 . S
C522 H508 0.960 . S
C522 H509 0.961 . S
C522 H510 0.959 . S
C522 C520 1.561 . S
C523 C520 1.526 . S
C523 C524 1.396 . S
C523 C528 1.390 . S
C524 C518 1.465 . S
C524 C523 1.396 . S
C524 C525 1.399 . S
C525 H511 0.929 . S
C525 C524 1.399 . S
C525 C526 1.385 . S
C526 H512 0.931 . S
C526 C525 1.385 . S
C526 C527 1.389 . S
C527 C526 1.389 . S
C527 C528 1.387 . S
C528 H513 0.930 . S
C528 C523 1.390 . S
C528 C527 1.387 . S
H529 C541 0.930 . S
H530 C543 0.930 . S
H531 C544 0.930 . S
H532 C548 0.959 . S
H533 C548 0.959 . S
H534 C548 0.961 . S
H535 C549 0.960 . S
H536 C549 0.961 . S
H537 C549 0.959 . S
H538 C552 0.929 . S
H539 C553 0.931 . S
H540 C555 0.930 . S
C541 H529 0.930 . S
C541 C542 1.399 . S
C541 C546 1.399 . S
C542 C541 1.399 . S
C542 C543 1.376 . S
C543 H530 0.930 . S
C543 C542 1.376 . S
C543 C544 1.388 . S
C544 H531 0.930 . S
C544 C543 1.388 . S
C544 C545 1.390 . S
C545 C544 1.390 . S
C545 C546 1.394 . S
C545 C551 1.465 . S
C546 C541 1.399 . S
C546 C545 1.394 . S
C546 C547 1.516 . S
C547 C546 1.516 . S
C547 C548 1.502 . S
C547 C549 1.561 . S
C547 C550 1.526 . S
C548 H532 0.959 . S
C548 H533 0.959 . S
C548 H534 0.961 . S
C548 C547 1.502 . S
C549 H535 0.960 . S
C549 H536 0.961 . S
C549 H537 0.959 . S
C549 C547 1.561 . S
C550 C547 1.526 . S
C550 C551 1.396 . S
C550 C555 1.390 . S
C551 C545 1.465 . S
C551 C550 1.396 . S
C551 C552 1.399 . S
C552 H538 0.929 . S
C552 C551 1.399 . S
C552 C553 1.385 . S
C553 H539 0.931 . S
C553 C552 1.385 . S
C553 C554 1.389 . S
C554 C553 1.389 . S
C554 C555 1.387 . S
C555 H540 0.930 . S
C555 C550 1.390 . S
C555 C554 1.387 . S
H556 C568 0.930 . S
H557 C570 0.930 . S
H558 C571 0.930 . S
H559 C575 0.959 . S
H560 C575 0.959 . S
H561 C575 0.961 . S
H562 C576 0.960 . S
H563 C576 0.961 . S
H564 C576 0.959 . S
H565 C579 0.929 . S
H566 C580 0.931 . S
H567 C582 0.930 . S
C568 H556 0.930 . S
C568 C569 1.399 . S
C568 C573 1.399 . S
C569 C568 1.399 . S
C569 C570 1.376 . S
C570 H557 0.930 . S
C570 C569 1.376 . S
C570 C571 1.388 . S
C571 H558 0.930 . S
C571 C570 1.388 . S
C571 C572 1.390 . S
C572 C571 1.390 . S
C572 C573 1.394 . S
C572 C578 1.465 . S
C573 C568 1.399 . S
C573 C572 1.394 . S
C573 C574 1.516 . S
C574 C573 1.516 . S
C574 C575 1.502 . S
C574 C576 1.561 . S
C574 C577 1.526 . S
C575 H559 0.959 . S
C575 H560 0.959 . S
C575 H561 0.961 . S
C575 C574 1.502 . S
C576 H562 0.960 . S
C576 H563 0.961 . S
C576 H564 0.959 . S
C576 C574 1.561 . S
C577 C574 1.526 . S
C577 C578 1.396 . S
C577 C582 1.390 . S
C578 C572 1.465 . S
C578 C577 1.396 . S
C578 C579 1.399 . S
C579 H565 0.929 . S
C579 C578 1.399 . S
C579 C580 1.385 . S
C580 H566 0.931 . S
C580 C579 1.385 . S
C580 C581 1.389 . S
C581 C580 1.389 . S
C581 C582 1.387 . S
C582 H567 0.930 . S
C582 C577 1.390 . S
C582 C581 1.387 . S
H583 C595 0.930 . S
H584 C597 0.930 . S
H585 C598 0.930 . S
H586 C602 0.959 . S
H587 C602 0.959 . S
H588 C602 0.961 . S
H589 C603 0.960 . S
H590 C603 0.961 . S
H591 C603 0.959 . S
H592 C606 0.929 . S
H593 C607 0.931 . S
H594 C609 0.930 . S
C595 H583 0.930 . S
C595 C596 1.399 . S
C595 C600 1.399 . S
C596 C595 1.399 . S
C596 C597 1.376 . S
C597 H584 0.930 . S
C597 C596 1.376 . S
C597 C598 1.388 . S
C598 H585 0.930 . S
C598 C597 1.388 . S
C598 C599 1.390 . S
C599 C598 1.390 . S
C599 C600 1.394 . S
C599 C605 1.465 . S
C600 C595 1.399 . S
C600 C599 1.394 . S
C600 C601 1.516 . S
C601 C600 1.516 . S
C601 C602 1.502 . S
C601 C603 1.561 . S
C601 C604 1.526 . S
C602 H586 0.959 . S
C602 H587 0.959 . S
C602 H588 0.961 . S
C602 C601 1.502 . S
C603 H589 0.960 . S
C603 H590 0.961 . S
C603 H591 0.959 . S
C603 C601 1.561 . S
C604 C601 1.526 . S
C604 C605 1.396 . S
C604 C609 1.390 . S
C605 C599 1.465 . S
C605 C604 1.396 . S
C605 C606 1.399 . S
C606 H592 0.929 . S
C606 C605 1.399 . S
C606 C607 1.385 . S
C607 H593 0.931 . S
C607 C606 1.385 . S
C607 C608 1.389 . S
C608 C607 1.389 . S
C608 C609 1.387 . S
C609 H594 0.930 . S
C609 C604 1.390 . S
C609 C608 1.387 . S
H610 C622 0.930 . S
H611 C624 0.930 . S
H612 C625 0.930 . S
H613 C629 0.959 . S
H614 C629 0.959 . S
H615 C629 0.961 . S
H616 C630 0.960 . S
H617 C630 0.961 . S
H618 C630 0.959 . S
H619 C633 0.929 . S
H620 C634 0.931 . S
H621 C636 0.930 . S
C622 H610 0.930 . S
C622 C623 1.399 . S
C622 C627 1.399 . S
C623 C622 1.399 . S
C623 C624 1.376 . S
C624 H611 0.930 . S
C624 C623 1.376 . S
C624 C625 1.388 . S
C625 H612 0.930 . S
C625 C624 1.388 . S
C625 C626 1.390 . S
C626 C625 1.390 . S
C626 C627 1.394 . S
C626 C632 1.465 . S
C627 C622 1.399 . S
C627 C626 1.394 . S
C627 C628 1.516 . S
C628 C627 1.516 . S
C628 C629 1.502 . S
C628 C630 1.561 . S
C628 C631 1.526 . S
C629 H613 0.959 . S
C629 H614 0.959 . S
C629 H615 0.961 . S
C629 C628 1.502 . S
C630 H616 0.960 . S
C630 H617 0.961 . S
C630 H618 0.959 . S
C630 C628 1.561 . S
C631 C628 1.526 . S
C631 C632 1.396 . S
C631 C636 1.390 . S
C632 C626 1.465 . S
C632 C631 1.396 . S
C632 C633 1.399 . S
C633 H619 0.929 . S
C633 C632 1.399 . S
C633 C634 1.385 . S
C634 H620 0.931 . S
C634 C633 1.385 . S
C634 C635 1.389 . S
C635 C634 1.389 . S
C635 C636 1.387 . S
C636 H621 0.930 . S
C636 C631 1.390 . S
C636 C635 1.387 . S
H637 C649 0.930 . S
H638 C651 0.930 . S
H639 C652 0.930 . S
H640 C656 0.959 . S
H641 C656 0.959 . S
H642 C656 0.961 . S
H643 C657 0.960 . S
H644 C657 0.961 . S
H645 C657 0.959 . S
H646 C660 0.929 . S
H647 C661 0.931 . S
H648 C663 0.930 . S
C649 H637 0.930 . S
C649 C650 1.399 . S
C649 C654 1.399 . S
C650 C649 1.399 . S
C650 C651 1.376 . S
C651 H638 0.930 . S
C651 C650 1.376 . S
C651 C652 1.388 . S
C652 H639 0.930 . S
C652 C651 1.388 . S
C652 C653 1.390 . S
C653 C652 1.390 . S
C653 C654 1.394 . S
C653 C659 1.465 . S
C654 C649 1.399 . S
C654 C653 1.394 . S
C654 C655 1.516 . S
C655 C654 1.516 . S
C655 C656 1.502 . S
C655 C657 1.561 . S
C655 C658 1.526 . S
C656 H640 0.959 . S
C656 H641 0.959 . S
C656 H642 0.961 . S
C656 C655 1.502 . S
C657 H643 0.960 . S
C657 H644 0.961 . S
C657 H645 0.959 . S
C657 C655 1.561 . S
C658 C655 1.526 . S
C658 C659 1.396 . S
C658 C663 1.390 . S
C659 C653 1.465 . S
C659 C658 1.396 . S
C659 C660 1.399 . S
C660 H646 0.929 . S
C660 C659 1.399 . S
C660 C661 1.385 . S
C661 H647 0.931 . S
C661 C660 1.385 . S
C661 C662 1.389 . S
C662 C661 1.389 . S
C662 C663 1.387 . S
C663 H648 0.930 . S
C663 C658 1.390 . S
C663 C662 1.387 . S
H664 C676 0.930 . S
H665 C678 0.930 . S
H666 C679 0.930 . S
H667 C683 0.959 . S
H668 C683 0.959 . S
H669 C683 0.961 . S
H670 C684 0.960 . S
H671 C684 0.961 . S
H672 C684 0.959 . S
H673 C687 0.929 . S
H674 C688 0.931 . S
H675 C690 0.930 . S
C676 H664 0.930 . S
C676 C677 1.399 . S
C676 C681 1.399 . S
C677 C676 1.399 . S
C677 C678 1.376 . S
C678 H665 0.930 . S
C678 C677 1.376 . S
C678 C679 1.388 . S
C679 H666 0.930 . S
C679 C678 1.388 . S
C679 C680 1.390 . S
C680 C679 1.390 . S
C680 C681 1.394 . S
C680 C686 1.465 . S
C681 C676 1.399 . S
C681 C680 1.394 . S
C681 C682 1.516 . S
C682 C681 1.516 . S
C682 C683 1.502 . S
C682 C684 1.561 . S
C682 C685 1.526 . S
C683 H667 0.959 . S
C683 H668 0.959 . S
C683 H669 0.961 . S
C683 C682 1.502 . S
C684 H670 0.960 . S
C684 H671 0.961 . S
C684 H672 0.959 . S
C684 C682 1.561 . S
C685 C682 1.526 . S
C685 C686 1.396 . S
C685 C690 1.390 . S
C686 C680 1.465 . S
C686 C685 1.396 . S
C686 C687 1.399 . S
C687 H673 0.929 . S
C687 C686 1.399 . S
C687 C688 1.385 . S
C688 H674 0.931 . S
C688 C687 1.385 . S
C688 C689 1.389 . S
C689 C688 1.389 . S
C689 C690 1.387 . S
C690 H675 0.930 . S
C690 C685 1.390 . S
C690 C689 1.387 . S
H691 C703 0.930 . S
H692 C705 0.930 . S
H693 C706 0.930 . S
H694 C710 0.959 . S
H695 C710 0.959 . S
H696 C710 0.961 . S
H697 C711 0.960 . S
H698 C711 0.961 . S
H699 C711 0.959 . S
H700 C714 0.929 . S
H701 C715 0.931 . S
H702 C717 0.930 . S
C703 H691 0.930 . S
C703 C704 1.399 . S
C703 C708 1.399 . S
C704 C703 1.399 . S
C704 C705 1.376 . S
C705 H692 0.930 . S
C705 C704 1.376 . S
C705 C706 1.388 . S
C706 H693 0.930 . S
C706 C705 1.388 . S
C706 C707 1.390 . S
C707 C706 1.390 . S
C707 C708 1.394 . S
C707 C713 1.465 . S
C708 C703 1.399 . S
C708 C707 1.394 . S
C708 C709 1.516 . S
C709 C708 1.516 . S
C709 C710 1.502 . S
C709 C711 1.561 . S
C709 C712 1.526 . S
C710 H694 0.959 . S
C710 H695 0.959 . S
C710 H696 0.961 . S
C710 C709 1.502 . S
C711 H697 0.960 . S
C711 H698 0.961 . S
C711 H699 0.959 . S
C711 C709 1.561 . S
C712 C709 1.526 . S
C712 C713 1.396 . S
C712 C717 1.390 . S
C713 C707 1.465 . S
C713 C712 1.396 . S
C713 C714 1.399 . S
C714 H700 0.929 . S
C714 C713 1.399 . S
C714 C715 1.385 . S
C715 H701 0.931 . S
C715 C714 1.385 . S
C715 C716 1.389 . S
C716 C715 1.389 . S
C716 C717 1.387 . S
C717 H702 0.930 . S
C717 C712 1.390 . S
C717 C716 1.387 . S
H718 C730 0.930 . S
H719 C732 0.930 . S
H720 C733 0.930 . S
H721 C737 0.959 . S
H722 C737 0.959 . S
H723 C737 0.961 . S
H724 C738 0.960 . S
H725 C738 0.961 . S
H726 C738 0.959 . S
H727 C741 0.929 . S
H728 C742 0.931 . S
H729 C744 0.930 . S
C730 H718 0.930 . S
C730 C731 1.399 . S
C730 C735 1.399 . S
C731 C730 1.399 . S
C731 C732 1.376 . S
C732 H719 0.930 . S
C732 C731 1.376 . S
C732 C733 1.388 . S
C733 H720 0.930 . S
C733 C732 1.388 . S
C733 C734 1.390 . S
C734 C733 1.390 . S
C734 C735 1.394 . S
C734 C740 1.465 . S
C735 C730 1.399 . S
C735 C734 1.394 . S
C735 C736 1.516 . S
C736 C735 1.516 . S
C736 C737 1.502 . S
C736 C738 1.561 . S
C736 C739 1.526 . S
C737 H721 0.959 . S
C737 H722 0.959 . S
C737 H723 0.961 . S
C737 C736 1.502 . S
C738 H724 0.960 . S
C738 H725 0.961 . S
C738 H726 0.959 . S
C738 C736 1.561 . S
C739 C736 1.526 . S
C739 C740 1.396 . S
C739 C744 1.390 . S
C740 C734 1.465 . S
C740 C739 1.396 . S
C740 C741 1.399 . S
C741 H727 0.929 . S
C741 C740 1.399 . S
C741 C742 1.385 . S
C742 H728 0.931 . S
C742 C741 1.385 . S
C742 C743 1.389 . S
C743 C742 1.389 . S
C743 C744 1.387 . S
C744 H729 0.930 . S
C744 C739 1.390 . S
C744 C743 1.387 . S
H745 C757 0.930 . S
H746 C759 0.930 . S
H747 C760 0.930 . S
H748 C764 0.959 . S
H749 C764 0.959 . S
H750 C764 0.961 . S
H751 C765 0.960 . S
H752 C765 0.961 . S
H753 C765 0.959 . S
H754 C768 0.929 . S
H755 C769 0.931 . S
H756 C771 0.930 . S
C757 H745 0.930 . S
C757 C758 1.399 . S
C757 C762 1.399 . S
C758 C757 1.399 . S
C758 C759 1.376 . S
C759 H746 0.930 . S
C759 C758 1.376 . S
C759 C760 1.388 . S
C760 H747 0.930 . S
C760 C759 1.388 . S
C760 C761 1.390 . S
C761 C760 1.390 . S
C761 C762 1.394 . S
C761 C767 1.465 . S
C762 C757 1.399 . S
C762 C761 1.394 . S
C762 C763 1.516 . S
C763 C762 1.516 . S
C763 C764 1.502 . S
C763 C765 1.561 . S
C763 C766 1.526 . S
C764 H748 0.959 . S
C764 H749 0.959 . S
C764 H750 0.961 . S
C764 C763 1.502 . S
C765 H751 0.960 . S
C765 H752 0.961 . S
C765 H753 0.959 . S
C765 C763 1.561 . S
C766 C763 1.526 . S
C766 C767 1.396 . S
C766 C771 1.390 . S
C767 C761 1.465 . S
C767 C766 1.396 . S
C767 C768 1.399 . S
C768 H754 0.929 . S
C768 C767 1.399 . S
C768 C769 1.385 . S
C769 H755 0.931 . S
C769 C768 1.385 . S
C769 C770 1.389 . S
C770 C769 1.389 . S
C770 C771 1.387 . S
C771 H756 0.930 . S
C771 C766 1.390 . S
C771 C770 1.387 . S
H772 C784 0.930 . S
H773 C786 0.930 . S
H774 C787 0.930 . S
H775 C791 0.959 . S
H776 C791 0.959 . S
H777 C791 0.961 . S
H778 C792 0.960 . S
H779 C792 0.961 . S
H780 C792 0.959 . S
H781 C795 0.929 . S
H782 C796 0.931 . S
H783 C798 0.930 . S
C784 H772 0.930 . S
C784 C785 1.399 . S
C784 C789 1.399 . S
C785 C784 1.399 . S
C785 C786 1.376 . S
C786 H773 0.930 . S
C786 C785 1.376 . S
C786 C787 1.388 . S
C787 H774 0.930 . S
C787 C786 1.388 . S
C787 C788 1.390 . S
C788 C787 1.390 . S
C788 C789 1.394 . S
C788 C794 1.465 . S
C789 C784 1.399 . S
C789 C788 1.394 . S
C789 C790 1.516 . S
C790 C789 1.516 . S
C790 C791 1.502 . S
C790 C792 1.561 . S
C790 C793 1.526 . S
C791 H775 0.959 . S
C791 H776 0.959 . S
C791 H777 0.961 . S
C791 C790 1.502 . S
C792 H778 0.960 . S
C792 H779 0.961 . S
C792 H780 0.959 . S
C792 C790 1.561 . S
C793 C790 1.526 . S
C793 C794 1.396 . S
C793 C798 1.390 . S
C794 C788 1.465 . S
C794 C793 1.396 . S
C794 C795 1.399 . S
C795 H781 0.929 . S
C795 C794 1.399 . S
C795 C796 1.385 . S
C796 H782 0.931 . S
C796 C795 1.385 . S
C796 C797 1.389 . S
C797 C796 1.389 . S
C797 C798 1.387 . S
C798 H783 0.930 . S
C798 C793 1.390 . S
C798 C797 1.387 . S
H799 C811 0.930 . S
H800 C813 0.930 . S
H801 C814 0.930 . S
H802 C818 0.959 . S
H803 C818 0.959 . S
H804 C818 0.961 . S
H805 C819 0.960 . S
H806 C819 0.961 . S
H807 C819 0.959 . S
H808 C822 0.929 . S
H809 C823 0.931 . S
H810 C825 0.930 . S
C811 H799 0.930 . S
C811 C812 1.399 . S
C811 C816 1.399 . S
C812 C811 1.399 . S
C812 C813 1.376 . S
C813 H800 0.930 . S
C813 C812 1.376 . S
C813 C814 1.388 . S
C814 H801 0.930 . S
C814 C813 1.388 . S
C814 C815 1.390 . S
C815 C814 1.390 . S
C815 C816 1.394 . S
C815 C821 1.465 . S
C816 C811 1.399 . S
C816 C815 1.394 . S
C816 C817 1.516 . S
C817 C816 1.516 . S
C817 C818 1.502 . S
C817 C819 1.561 . S
C817 C820 1.526 . S
C818 H802 0.959 . S
C818 H803 0.959 . S
C818 H804 0.961 . S
C818 C817 1.502 . S
C819 H805 0.960 . S
C819 H806 0.961 . S
C819 H807 0.959 . S
C819 C817 1.561 . S
C820 C817 1.526 . S
C820 C821 1.396 . S
C820 C825 1.390 . S
C821 C815 1.465 . S
C821 C820 1.396 . S
C821 C822 1.399 . S
C822 H808 0.929 . S
C822 C821 1.399 . S
C822 C823 1.385 . S
C823 H809 0.931 . S
C823 C822 1.385 . S
C823 C824 1.389 . S
C824 C823 1.389 . S
C824 C825 1.387 . S
C825 H810 0.930 . S
C825 C820 1.390 . S
C825 C824 1.387 . S
H826 C838 0.930 . S
H827 C840 0.930 . S
H828 C841 0.930 . S
H829 C845 0.959 . S
H830 C845 0.959 . S
H831 C845 0.961 . S
H832 C846 0.960 . S
H833 C846 0.961 . S
H834 C846 0.959 . S
H835 C849 0.929 . S
H836 C850 0.931 . S
H837 C852 0.930 . S
C838 H826 0.930 . S
C838 C839 1.399 . S
C838 C843 1.399 . S
C839 C838 1.399 . S
C839 C840 1.376 . S
C840 H827 0.930 . S
C840 C839 1.376 . S
C840 C841 1.388 . S
C841 H828 0.930 . S
C841 C840 1.388 . S
C841 C842 1.390 . S
C842 C841 1.390 . S
C842 C843 1.394 . S
C842 C848 1.465 . S
C843 C838 1.399 . S
C843 C842 1.394 . S
C843 C844 1.516 . S
C844 C843 1.516 . S
C844 C845 1.502 . S
C844 C846 1.561 . S
C844 C847 1.526 . S
C845 H829 0.959 . S
C845 H830 0.959 . S
C845 H831 0.961 . S
C845 C844 1.502 . S
C846 H832 0.960 . S
C846 H833 0.961 . S
C846 H834 0.959 . S
C846 C844 1.561 . S
C847 C844 1.526 . S
C847 C848 1.396 . S
C847 C852 1.390 . S
C848 C842 1.465 . S
C848 C847 1.396 . S
C848 C849 1.399 . S
C849 H835 0.929 . S
C849 C848 1.399 . S
C849 C850 1.385 . S
C850 H836 0.931 . S
C850 C849 1.385 . S
C850 C851 1.389 . S
C851 C850 1.389 . S
C851 C852 1.387 . S
C852 H837 0.930 . S
C852 C847 1.390 . S
C852 C851 1.387 . S
H853 C865 0.930 . S
H854 C867 0.930 . S
H855 C868 0.930 . S
H856 C872 0.959 . S
H857 C872 0.959 . S
H858 C872 0.961 . S
H859 C873 0.960 . S
H860 C873 0.961 . S
H861 C873 0.959 . S
H862 C876 0.929 . S
H863 C877 0.931 . S
H864 C879 0.930 . S
C865 H853 0.930 . S
C865 C866 1.399 . S
C865 C870 1.399 . S
C866 C865 1.399 . S
C866 C867 1.376 . S
C867 H854 0.930 . S
C867 C866 1.376 . S
C867 C868 1.388 . S
C868 H855 0.930 . S
C868 C867 1.388 . S
C868 C869 1.390 . S
C869 C868 1.390 . S
C869 C870 1.394 . S
C869 C875 1.465 . S
C870 C865 1.399 . S
C870 C869 1.394 . S
C870 C871 1.516 . S
C871 C870 1.516 . S
C871 C872 1.502 . S
C871 C873 1.561 . S
C871 C874 1.526 . S
C872 H856 0.959 . S
C872 H857 0.959 . S
C872 H858 0.961 . S
C872 C871 1.502 . S
C873 H859 0.960 . S
C873 H860 0.961 . S
C873 H861 0.959 . S
C873 C871 1.561 . S
C874 C871 1.526 . S
C874 C875 1.396 . S
C874 C879 1.390 . S
C875 C869 1.465 . S
C875 C874 1.396 . S
C875 C876 1.399 . S
C876 H862 0.929 . S
C876 C875 1.399 . S
C876 C877 1.385 . S
C877 H863 0.931 . S
C877 C876 1.385 . S
C877 C878 1.389 . S
C878 C877 1.389 . S
C878 C879 1.387 . S
C879 H864 0.930 . S
C879 C874 1.390 . S
C879 C878 1.387 . S
H880 C892 0.930 . S
H881 C894 0.930 . S
H882 C895 0.930 . S
H883 C899 0.959 . S
H884 C899 0.959 . S
H885 C899 0.961 . S
H886 C900 0.960 . S
H887 C900 0.961 . S
H888 C900 0.959 . S
H889 C903 0.929 . S
H890 C904 0.931 . S
H891 C906 0.930 . S
C892 H880 0.930 . S
C892 C893 1.399 . S
C892 C897 1.399 . S
C893 C892 1.399 . S
C893 C894 1.376 . S
C894 H881 0.930 . S
C894 C893 1.376 . S
C894 C895 1.388 . S
C895 H882 0.930 . S
C895 C894 1.388 . S
C895 C896 1.390 . S
C896 C895 1.390 . S
C896 C897 1.394 . S
C896 C902 1.465 . S
C897 C892 1.399 . S
C897 C896 1.394 . S
C897 C898 1.516 . S
C898 C897 1.516 . S
C898 C899 1.502 . S
C898 C900 1.561 . S
C898 C901 1.526 . S
C899 H883 0.959 . S
C899 H884 0.959 . S
C899 H885 0.961 . S
C899 C898 1.502 . S
C900 H886 0.960 . S
C900 H887 0.961 . S
C900 H888 0.959 . S
C900 C898 1.561 . S
C901 C898 1.526 . S
C901 C902 1.396 . S
C901 C906 1.390 . S
C902 C896 1.465 . S
C902 C901 1.396 . S
C902 C903 1.399 . S
C903 H889 0.929 . S
C903 C902 1.399 . S
C903 C904 1.385 . S
C904 H890 0.931 . S
C904 C903 1.385 . S
C904 C905 1.389 . S
C905 C904 1.389 . S
C905 C906 1.387 . S
C906 H891 0.930 . S
C906 C901 1.390 . S
C906 C905 1.387 . S
H907 C919 0.930 . S
H908 C921 0.930 . S
H909 C922 0.930 . S
H910 C926 0.959 . S
H911 C926 0.959 . S
H912 C926 0.961 . S
H913 C927 0.960 . S
H914 C927 0.961 . S
H915 C927 0.959 . S
H916 C930 0.929 . S
H917 C931 0.931 . S
H918 C933 0.930 . S
C919 H907 0.930 . S
C919 C920 1.399 . S
C919 C924 1.399 . S
C920 C919 1.399 . S
C920 C921 1.376 . S
C921 H908 0.930 . S
C921 C920 1.376 . S
C921 C922 1.388 . S
C922 H909 0.930 . S
C922 C921 1.388 . S
C922 C923 1.390 . S
C923 C922 1.390 . S
C923 C924 1.394 . S
C923 C929 1.465 . S
C924 C919 1.399 . S
C924 C923 1.394 . S
C924 C925 1.516 . S
C925 C924 1.516 . S
C925 C926 1.502 . S
C925 C927 1.561 . S
C925 C928 1.526 . S
C926 H910 0.959 . S
C926 H911 0.959 . S
C926 H912 0.961 . S
C926 C925 1.502 . S
C927 H913 0.960 . S
C927 H914 0.961 . S
C927 H915 0.959 . S
C927 C925 1.561 . S
C928 C925 1.526 . S
C928 C929 1.396 . S
C928 C933 1.390 . S
C929 C923 1.465 . S
C929 C928 1.396 . S
C929 C930 1.399 . S
C930 H916 0.929 . S
C930 C929 1.399 . S
C930 C931 1.385 . S
C931 H917 0.931 . S
C931 C930 1.385 . S
C931 C932 1.389 . S
C932 C931 1.389 . S
C932 C933 1.387 . S
C933 H918 0.930 . S
C933 C928 1.390 . S
C933 C932 1.387 . S
H934 C946 0.930 . S
H935 C948 0.930 . S
H936 C949 0.930 . S
H937 C953 0.959 . S
H938 C953 0.959 . S
H939 C953 0.961 . S
H940 C954 0.960 . S
H941 C954 0.961 . S
H942 C954 0.959 . S
H943 C957 0.929 . S
H944 C958 0.931 . S
H945 C960 0.930 . S
C946 H934 0.930 . S
C946 C947 1.399 . S
C946 C951 1.399 . S
C947 C946 1.399 . S
C947 C948 1.376 . S
C948 H935 0.930 . S
C948 C947 1.376 . S
C948 C949 1.388 . S
C949 H936 0.930 . S
C949 C948 1.388 . S
C949 C950 1.390 . S
C950 C949 1.390 . S
C950 C951 1.394 . S
C950 C956 1.465 . S
C951 C946 1.399 . S
C951 C950 1.394 . S
C951 C952 1.516 . S
C952 C951 1.516 . S
C952 C953 1.502 . S
C952 C954 1.561 . S
C952 C955 1.526 . S
C953 H937 0.959 . S
C953 H938 0.959 . S
C953 H939 0.961 . S
C953 C952 1.502 . S
C954 H940 0.960 . S
C954 H941 0.961 . S
C954 H942 0.959 . S
C954 C952 1.561 . S
C955 C952 1.526 . S
C955 C956 1.396 . S
C955 C960 1.390 . S
C956 C950 1.465 . S
C956 C955 1.396 . S
C956 C957 1.399 . S
C957 H943 0.929 . S
C957 C956 1.399 . S
C957 C958 1.385 . S
C958 H944 0.931 . S
C958 C957 1.385 . S
C958 C959 1.389 . S
C959 C958 1.389 . S
C959 C960 1.387 . S
C960 H945 0.930 . S
C960 C955 1.390 . S
C960 C959 1.387 . S
H961 C973 0.930 . S
H962 C975 0.930 . S
H963 C976 0.930 . S
H964 C980 0.959 . S
H965 C980 0.959 . S
H966 C980 0.961 . S
H967 C981 0.960 . S
H968 C981 0.961 . S
H969 C981 0.959 . S
H970 C984 0.929 . S
H971 C985 0.931 . S
H972 C987 0.930 . S
C973 H961 0.930 . S
C973 C974 1.399 . S
C973 C978 1.399 . S
C974 C973 1.399 . S
C974 C975 1.376 . S
C975 H962 0.930 . S
C975 C974 1.376 . S
C975 C976 1.388 . S
C976 H963 0.930 . S
C976 C975 1.388 . S
C976 C977 1.390 . S
C977 C976 1.390 . S
C977 C978 1.394 . S
C977 C983 1.465 . S
C978 C973 1.399 . S
C978 C977 1.394 . S
C978 C979 1.516 . S
C979 C978 1.516 . S
C979 C980 1.502 . S
C979 C981 1.561 . S
C979 C982 1.526 . S
C980 H964 0.959 . S
C980 H965 0.959 . S
C980 H966 0.961 . S
C980 C979 1.502 . S
C981 H967 0.960 . S
C981 H968 0.961 . S
C981 H969 0.959 . S
C981 C979 1.561 . S
C982 C979 1.526 . S
C982 C983 1.396 . S
C982 C987 1.390 . S
C983 C977 1.465 . S
C983 C982 1.396 . S
C983 C984 1.399 . S
C984 H970 0.929 . S
C984 C983 1.399 . S
C984 C985 1.385 . S
C985 H971 0.931 . S
C985 C984 1.385 . S
C985 C986 1.389 . S
C986 C985 1.389 . S
C986 C987 1.387 . S
C987 H972 0.930 . S
C987 C982 1.390 . S
C987 C986 1.387 . S
H988 C1000 0.930 . S
H989 C1002 0.930 . S
H990 C1003 0.930 . S
H991 C1007 0.959 . S
H992 C1007 0.959 . S
H993 C1007 0.961 . S
H994 C1008 0.960 . S
H995 C1008 0.961 . S
H996 C1008 0.959 . S
H997 C1011 0.929 . S
H998 C1012 0.931 . S
H999 C1014 0.930 . S
C1000 H988 0.930 . S
C1000 C1001 1.399 . S
C1000 C1005 1.399 . S
C1001 C1000 1.399 . S
C1001 C1002 1.376 . S
C1002 H989 0.930 . S
C1002 C1001 1.376 . S
C1002 C1003 1.388 . S
C1003 H990 0.930 . S
C1003 C1002 1.388 . S
C1003 C1004 1.390 . S
C1004 C1003 1.390 . S
C1004 C1005 1.394 . S
C1004 C1010 1.465 . S
C1005 C1000 1.399 . S
C1005 C1004 1.394 . S
C1005 C1006 1.516 . S
C1006 C1005 1.516 . S
C1006 C1007 1.502 . S
C1006 C1008 1.561 . S
C1006 C1009 1.526 . S
C1007 H991 0.959 . S
C1007 H992 0.959 . S
C1007 H993 0.961 . S
C1007 C1006 1.502 . S
C1008 H994 0.960 . S
C1008 H995 0.961 . S
C1008 H996 0.959 . S
C1008 C1006 1.561 . S
C1009 C1006 1.526 . S
C1009 C1010 1.396 . S
C1009 C1014 1.390 . S
C1010 C1004 1.465 . S
C1010 C1009 1.396 . S
C1010 C1011 1.399 . S
C1011 H997 0.929 . S
C1011 C1010 1.399 . S
C1011 C1012 1.385 . S
C1012 H998 0.931 . S
C1012 C1011 1.385 . S
C1012 C1013 1.389 . S
C1013 C1012 1.389 . S
C1013 C1014 1.387 . S
C1014 H999 0.930 . S
C1014 C1009 1.390 . S
C1014 C1013 1.387 . S
H1015 C1027 0.930 . S
H1016 C1029 0.930 . S
H1017 C1030 0.930 . S
H1018 C1034 0.959 . S
H1019 C1034 0.959 . S
H1020 C1034 0.961 . S
H1021 C1035 0.960 . S
H1022 C1035 0.961 . S
H1023 C1035 0.959 . S
H1024 C1038 0.929 . S
H1025 C1039 0.931 . S
H1026 C1041 0.930 . S
C1027 H1015 0.930 . S
C1027 C1028 1.399 . S
C1027 C1032 1.399 . S
C1028 C1027 1.399 . S
C1028 C1029 1.376 . S
C1029 H1016 0.930 . S
C1029 C1028 1.376 . S
C1029 C1030 1.388 . S
C1030 H1017 0.930 . S
C1030 C1029 1.388 . S
C1030 C1031 1.390 . S
C1031 C1030 1.390 . S
C1031 C1032 1.394 . S
C1031 C1037 1.465 . S
C1032 C1027 1.399 . S
C1032 C1031 1.394 . S
C1032 C1033 1.516 . S
C1033 C1032 1.516 . S
C1033 C1034 1.502 . S
C1033 C1035 1.561 . S
C1033 C1036 1.526 . S
C1034 H1018 0.959 . S
C1034 H1019 0.959 . S
C1034 H1020 0.961 . S
C1034 C1033 1.502 . S
C1035 H1021 0.960 . S
C1035 H1022 0.961 . S
C1035 H1023 0.959 . S
C1035 C1033 1.561 . S
C1036 C1033 1.526 . S
C1036 C1037 1.396 . S
C1036 C1041 1.390 . S
C1037 C1031 1.465 . S
C1037 C1036 1.396 . S
C1037 C1038 1.399 . S
C1038 H1024 0.929 . S
C1038 C1037 1.399 . S
C1038 C1039 1.385 . S
C1039 H1025 0.931 . S
C1039 C1038 1.385 . S
C1039 C1040 1.389 . S
C1040 C1039 1.389 . S
C1040 C1041 1.387 . S
C1041 H1026 0.930 . S
C1041 C1036 1.390 . S
C1041 C1040 1.387 . S
H1042 C1054 0.930 . S
H1043 C1056 0.930 . S
H1044 C1057 0.930 . S
H1045 C1061 0.959 . S
H1046 C1061 0.959 . S
H1047 C1061 0.961 . S
H1048 C1062 0.960 . S
H1049 C1062 0.961 . S
H1050 C1062 0.959 . S
H1051 C1065 0.929 . S
H1052 C1066 0.931 . S
H1053 C1068 0.930 . S
C1054 H1042 0.930 . S
C1054 C1055 1.399 . S
C1054 C1059 1.399 . S
C1055 C1054 1.399 . S
C1055 C1056 1.376 . S
C1056 H1043 0.930 . S
C1056 C1055 1.376 . S
C1056 C1057 1.388 . S
C1057 H1044 0.930 . S
C1057 C1056 1.388 . S
C1057 C1058 1.390 . S
C1058 C1057 1.390 . S
C1058 C1059 1.394 . S
C1058 C1064 1.465 . S
C1059 C1054 1.399 . S
C1059 C1058 1.394 . S
C1059 C1060 1.516 . S
C1060 C1059 1.516 . S
C1060 C1061 1.502 . S
C1060 C1062 1.561 . S
C1060 C1063 1.526 . S
C1061 H1045 0.959 . S
C1061 H1046 0.959 . S
C1061 H1047 0.961 . S
C1061 C1060 1.502 . S
C1062 H1048 0.960 . S
C1062 H1049 0.961 . S
C1062 H1050 0.959 . S
C1062 C1060 1.561 . S
C1063 C1060 1.526 . S
C1063 C1064 1.396 . S
C1063 C1068 1.390 . S
C1064 C1058 1.465 . S
C1064 C1063 1.396 . S
C1064 C1065 1.399 . S
C1065 H1051 0.929 . S
C1065 C1064 1.399 . S
C1065 C1066 1.385 . S
C1066 H1052 0.931 . S
C1066 C1065 1.385 . S
C1066 C1067 1.389 . S
C1067 C1066 1.389 . S
C1067 C1068 1.387 . S
C1068 H1053 0.930 . S
C1068 C1063 1.390 . S
C1068 C1067 1.387 . S
H1069 C1081 0.930 . S
H1070 C1083 0.930 . S
H1071 C1084 0.930 . S
H1072 C1088 0.959 . S
H1073 C1088 0.959 . S
H1074 C1088 0.961 . S
H1075 C1089 0.960 . S
H1076 C1089 0.961 . S
H1077 C1089 0.959 . S
H1078 C1092 0.929 . S
H1079 C1093 0.931 . S
H1080 C1095 0.930 . S
C1081 H1069 0.930 . S
C1081 C1082 1.399 . S
C1081 C1086 1.399 . S
C1082 C1081 1.399 . S
C1082 C1083 1.376 . S
C1083 H1070 0.930 . S
C1083 C1082 1.376 . S
C1083 C1084 1.388 . S
C1084 H1071 0.930 . S
C1084 C1083 1.388 . S
C1084 C1085 1.390 . S
C1085 C1084 1.390 . S
C1085 C1086 1.394 . S
C1085 C1091 1.465 . S
C1086 C1081 1.399 . S
C1086 C1085 1.394 . S
C1086 C1087 1.516 . S
C1087 C1086 1.516 . S
C1087 C1088 1.502 . S
C1087 C1089 1.561 . S
C1087 C1090 1.526 . S
C1088 H1072 0.959 . S
C1088 H1073 0.959 . S
C1088 H1074 0.961 . S
C1088 C1087 1.502 . S
C1089 H1075 0.960 . S
C1089 H1076 0.961 . S
C1089 H1077 0.959 . S
C1089 C1087 1.561 . S
C1090 C1087 1.526 . S
C1090 C1091 1.396 . S
C1090 C1095 1.390 . S
C1091 C1085 1.465 . S
C1091 C1090 1.396 . S
C1091 C1092 1.399 . S
C1092 H1078 0.929 . S
C1092 C1091 1.399 . S
C1092 C1093 1.385 . S
C1093 H1079 0.931 . S
C1093 C1092 1.385 . S
C1093 C1094 1.389 . S
C1094 C1093 1.389 . S
C1094 C1095 1.387 . S
C1095 H1080 0.930 . S
C1095 C1090 1.390 . S
C1095 C1094 1.387 . S
H1096 C1108 0.930 . S
H1097 C1110 0.930 . S
H1098 C1111 0.930 . S
H1099 C1115 0.959 . S
H1100 C1115 0.959 . S
H1101 C1115 0.961 . S
H1102 C1116 0.960 . S
H1103 C1116 0.961 . S
H1104 C1116 0.959 . S
H1105 C1119 0.929 . S
H1106 C1120 0.931 . S
H1107 C1122 0.930 . S
C1108 H1096 0.930 . S
C1108 C1109 1.399 . S
C1108 C1113 1.399 . S
C1109 C1108 1.399 . S
C1109 C1110 1.376 . S
C1110 H1097 0.930 . S
C1110 C1109 1.376 . S
C1110 C1111 1.388 . S
C1111 H1098 0.930 . S
C1111 C1110 1.388 . S
C1111 C1112 1.390 . S
C1112 C1111 1.390 . S
C1112 C1113 1.394 . S
C1112 C1118 1.465 . S
C1113 C1108 1.399 . S
C1113 C1112 1.394 . S
C1113 C1114 1.516 . S
C1114 C1113 1.516 . S
C1114 C1115 1.502 . S
C1114 C1116 1.561 . S
C1114 C1117 1.526 . S
C1115 H1099 0.959 . S
C1115 H1100 0.959 . S
C1115 H1101 0.961 . S
C1115 C1114 1.502 . S
C1116 H1102 0.960 . S
C1116 H1103 0.961 . S
C1116 H1104 0.959 . S
C1116 C1114 1.561 . S
C1117 C1114 1.526 . S
C1117 C1118 1.396 . S
C1117 C1122 1.390 . S
C1118 C1112 1.465 . S
C1118 C1117 1.396 . S
C1118 C1119 1.399 . S
C1119 H1105 0.929 . S
C1119 C1118 1.399 . S
C1119 C1120 1.385 . S
C1120 H1106 0.931 . S
C1120 C1119 1.385 . S
C1120 C1121 1.389 . S
C1121 C1120 1.389 . S
C1121 C1122 1.387 . S
C1122 H1107 0.930 . S
C1122 C1117 1.390 . S
C1122 C1121 1.387 . S
H1123 C1135 0.930 . S
H1124 C1137 0.930 . S
H1125 C1138 0.930 . S
H1126 C1142 0.959 . S
H1127 C1142 0.959 . S
H1128 C1142 0.961 . S
H1129 C1143 0.960 . S
H1130 C1143 0.961 . S
H1131 C1143 0.959 . S
H1132 C1146 0.929 . S
H1133 C1147 0.931 . S
H1134 C1149 0.930 . S
C1135 H1123 0.930 . S
C1135 C1136 1.399 . S
C1135 C1140 1.399 . S
C1136 C1135 1.399 . S
C1136 C1137 1.376 . S
C1137 H1124 0.930 . S
C1137 C1136 1.376 . S
C1137 C1138 1.388 . S
C1138 H1125 0.930 . S
C1138 C1137 1.388 . S
C1138 C1139 1.390 . S
C1139 C1138 1.390 . S
C1139 C1140 1.394 . S
C1139 C1145 1.465 . S
C1140 C1135 1.399 . S
C1140 C1139 1.394 . S
C1140 C1141 1.516 . S
C1141 C1140 1.516 . S
C1141 C1142 1.502 . S
C1141 C1143 1.561 . S
C1141 C1144 1.526 . S
C1142 H1126 0.959 . S
C1142 H1127 0.959 . S
C1142 H1128 0.961 . S
C1142 C1141 1.502 . S
C1143 H1129 0.960 . S
C1143 H1130 0.961 . S
C1143 H1131 0.959 . S
C1143 C1141 1.561 . S
C1144 C1141 1.526 . S
C1144 C1145 1.396 . S
C1144 C1149 1.390 . S
C1145 C1139 1.465 . S
C1145 C1144 1.396 . S
C1145 C1146 1.399 . S
C1146 H1132 0.929 . S
C1146 C1145 1.399 . S
C1146 C1147 1.385 . S
C1147 H1133 0.931 . S
C1147 C1146 1.385 . S
C1147 C1148 1.389 . S
C1148 C1147 1.389 . S
C1148 C1149 1.387 . S
C1149 H1134 0.930 . S
C1149 C1144 1.390 . S
C1149 C1148 1.387 . S
H1150 C1162 0.930 . S
H1151 C1164 0.930 . S
H1152 C1165 0.930 . S
H1153 C1169 0.959 . S
H1154 C1169 0.959 . S
H1155 C1169 0.961 . S
H1156 C1170 0.960 . S
H1157 C1170 0.961 . S
H1158 C1170 0.959 . S
H1159 C1173 0.929 . S
H1160 C1174 0.931 . S
H1161 C1176 0.930 . S
C1162 H1150 0.930 . S
C1162 C1163 1.399 . S
C1162 C1167 1.399 . S
C1163 C1162 1.399 . S
C1163 C1164 1.376 . S
C1164 H1151 0.930 . S
C1164 C1163 1.376 . S
C1164 C1165 1.388 . S
C1165 H1152 0.930 . S
C1165 C1164 1.388 . S
C1165 C1166 1.390 . S
C1166 C1165 1.390 . S
C1166 C1167 1.394 . S
C1166 C1172 1.465 . S
C1167 C1162 1.399 . S
C1167 C1166 1.394 . S
C1167 C1168 1.516 . S
C1168 C1167 1.516 . S
C1168 C1169 1.502 . S
C1168 C1170 1.561 . S
C1168 C1171 1.526 . S
C1169 H1153 0.959 . S
C1169 H1154 0.959 . S
C1169 H1155 0.961 . S
C1169 C1168 1.502 . S
C1170 H1156 0.960 . S
C1170 H1157 0.961 . S
C1170 H1158 0.959 . S
C1170 C1168 1.561 . S
C1171 C1168 1.526 . S
C1171 C1172 1.396 . S
C1171 C1176 1.390 . S
C1172 C1166 1.465 . S
C1172 C1171 1.396 . S
C1172 C1173 1.399 . S
C1173 H1159 0.929 . S
C1173 C1172 1.399 . S
C1173 C1174 1.385 . S
C1174 H1160 0.931 . S
C1174 C1173 1.385 . S
C1174 C1175 1.389 . S
C1175 C1174 1.389 . S
C1175 C1176 1.387 . S
C1176 H1161 0.930 . S
C1176 C1171 1.390 . S
C1176 C1175 1.387 . S
H1177 C1189 0.930 . S
H1178 C1191 0.930 . S
H1179 C1192 0.930 . S
H1180 C1196 0.959 . S
H1181 C1196 0.959 . S
H1182 C1196 0.961 . S
H1183 C1197 0.960 . S
H1184 C1197 0.961 . S
H1185 C1197 0.959 . S
H1186 C1200 0.929 . S
H1187 C1201 0.931 . S
H1188 C1203 0.930 . S
C1189 H1177 0.930 . S
C1189 C1190 1.399 . S
C1189 C1194 1.399 . S
C1190 C1189 1.399 . S
C1190 C1191 1.376 . S
C1191 H1178 0.930 . S
C1191 C1190 1.376 . S
C1191 C1192 1.388 . S
C1192 H1179 0.930 . S
C1192 C1191 1.388 . S
C1192 C1193 1.390 . S
C1193 C1192 1.390 . S
C1193 C1194 1.394 . S
C1193 C1199 1.465 . S
C1194 C1189 1.399 . S
C1194 C1193 1.394 . S
C1194 C1195 1.516 . S
C1195 C1194 1.516 . S
C1195 C1196 1.502 . S
C1195 C1197 1.561 . S
C1195 C1198 1.526 . S
C1196 H1180 0.959 . S
C1196 H1181 0.959 . S
C1196 H1182 0.961 . S
C1196 C1195 1.502 . S
C1197 H1183 0.960 . S
C1197 H1184 0.961 . S
C1197 H1185 0.959 . S
C1197 C1195 1.561 . S
C1198 C1195 1.526 . S
C1198 C1199 1.396 . S
C1198 C1203 1.390 . S
C1199 C1193 1.465 . S
C1199 C1198 1.396 . S
C1199 C1200 1.399 . S
C1200 H1186 0.929 . S
C1200 C1199 1.399 . S
C1200 C1201 1.385 . S
C1201 H1187 0.931 . S
C1201 C1200 1.385 . S
C1201 C1202 1.389 . S
C1202 C1201 1.389 . S
C1202 C1203 1.387 . S
C1203 H1188 0.930 . S
C1203 C1198 1.390 . S
C1203 C1202 1.387 . S
H1204 C1216 0.930 . S
H1205 C1218 0.930 . S
H1206 C1219 0.930 . S
H1207 C1223 0.959 . S
H1208 C1223 0.959 . S
H1209 C1223 0.961 . S
H1210 C1224 0.960 . S
H1211 C1224 0.961 . S
H1212 C1224 0.959 . S
H1213 C1227 0.929 . S
H1214 C1228 0.931 . S
H1215 C1230 0.930 . S
C1216 H1204 0.930 . S
C1216 C1217 1.399 . S
C1216 C1221 1.399 . S
C1217 C1216 1.399 . S
C1217 C1218 1.376 . S
C1218 H1205 0.930 . S
C1218 C1217 1.376 . S
C1218 C1219 1.388 . S
C1219 H1206 0.930 . S
C1219 C1218 1.388 . S
C1219 C1220 1.390 . S
C1220 C1219 1.390 . S
C1220 C1221 1.394 . S
C1220 C1226 1.465 . S
C1221 C1216 1.399 . S
C1221 C1220 1.394 . S
C1221 C1222 1.516 . S
C1222 C1221 1.516 . S
C1222 C1223 1.502 . S
C1222 C1224 1.561 . S
C1222 C1225 1.526 . S
C1223 H1207 0.959 . S
C1223 H1208 0.959 . S
C1223 H1209 0.961 . S
C1223 C1222 1.502 . S
C1224 H1210 0.960 . S
C1224 H1211 0.961 . S
C1224 H1212 0.959 . S
C1224 C1222 1.561 . S
C1225 C1222 1.526 . S
C1225 C1226 1.396 . S
C1225 C1230 1.390 . S
C1226 C1220 1.465 . S
C1226 C1225 1.396 . S
C1226 C1227 1.399 . S
C1227 H1213 0.929 . S
C1227 C1226 1.399 . S
C1227 C1228 1.385 . S
C1228 H1214 0.931 . S
C1228 C1227 1.385 . S
C1228 C1229 1.389 . S
C1229 C1228 1.389 . S
C1229 C1230 1.387 . S
C1230 H1215 0.930 . S
C1230 C1225 1.390 . S
C1230 C1229 1.387 . S
H1231 C1243 0.930 . S
H1232 C1245 0.930 . S
H1233 C1246 0.930 . S
H1234 C1250 0.959 . S
H1235 C1250 0.959 . S
H1236 C1250 0.961 . S
H1237 C1251 0.960 . S
H1238 C1251 0.961 . S
H1239 C1251 0.959 . S
H1240 C1254 0.929 . S
H1241 C1255 0.931 . S
H1242 C1257 0.930 . S
C1243 H1231 0.930 . S
C1243 C1244 1.399 . S
C1243 C1248 1.399 . S
C1244 C1243 1.399 . S
C1244 C1245 1.376 . S
C1245 H1232 0.930 . S
C1245 C1244 1.376 . S
C1245 C1246 1.388 . S
C1246 H1233 0.930 . S
C1246 C1245 1.388 . S
C1246 C1247 1.390 . S
C1247 C1246 1.390 . S
C1247 C1248 1.394 . S
C1247 C1253 1.465 . S
C1248 C1243 1.399 . S
C1248 C1247 1.394 . S
C1248 C1249 1.516 . S
C1249 C1248 1.516 . S
C1249 C1250 1.502 . S
C1249 C1251 1.561 . S
C1249 C1252 1.526 . S
C1250 H1234 0.959 . S
C1250 H1235 0.959 . S
C1250 H1236 0.961 . S
C1250 C1249 1.502 . S
C1251 H1237 0.960 . S
C1251 H1238 0.961 . S
C1251 H1239 0.959 . S
C1251 C1249 1.561 . S
C1252 C1249 1.526 . S
C1252 C1253 1.396 . S
C1252 C1257 1.390 . S
C1253 C1247 1.465 . S
C1253 C1252 1.396 . S
C1253 C1254 1.399 . S
C1254 H1240 0.929 . S
C1254 C1253 1.399 . S
C1254 C1255 1.385 . S
C1255 H1241 0.931 . S
C1255 C1254 1.385 . S
C1255 C1256 1.389 . S
C1256 C1255 1.389 . S
C1256 C1257 1.387 . S
C1257 H1242 0.930 . S
C1257 C1252 1.390 . S
C1257 C1256 1.387 . S
H1258 C1270 0.930 . S
H1259 C1272 0.930 . S
H1260 C1273 0.930 . S
H1261 C1277 0.959 . S
H1262 C1277 0.959 . S
H1263 C1277 0.961 . S
H1264 C1278 0.960 . S
H1265 C1278 0.961 . S
H1266 C1278 0.959 . S
H1267 C1281 0.929 . S
H1268 C1282 0.931 . S
H1269 C1284 0.930 . S
C1270 H1258 0.930 . S
C1270 C1271 1.399 . S
C1270 C1275 1.399 . S
C1271 C1270 1.399 . S
C1271 C1272 1.376 . S
C1272 H1259 0.930 . S
C1272 C1271 1.376 . S
C1272 C1273 1.388 . S
C1273 H1260 0.930 . S
C1273 C1272 1.388 . S
C1273 C1274 1.390 . S
C1274 C1273 1.390 . S
C1274 C1275 1.394 . S
C1274 C1280 1.465 . S
C1275 C1270 1.399 . S
C1275 C1274 1.394 . S
C1275 C1276 1.516 . S
C1276 C1275 1.516 . S
C1276 C1277 1.502 . S
C1276 C1278 1.561 . S
C1276 C1279 1.526 . S
C1277 H1261 0.959 . S
C1277 H1262 0.959 . S
C1277 H1263 0.961 . S
C1277 C1276 1.502 . S
C1278 H1264 0.960 . S
C1278 H1265 0.961 . S
C1278 H1266 0.959 . S
C1278 C1276 1.561 . S
C1279 C1276 1.526 . S
C1279 C1280 1.396 . S
C1279 C1284 1.390 . S
C1280 C1274 1.465 . S
C1280 C1279 1.396 . S
C1280 C1281 1.399 . S
C1281 H1267 0.929 . S
C1281 C1280 1.399 . S
C1281 C1282 1.385 . S
C1282 H1268 0.931 . S
C1282 C1281 1.385 . S
C1282 C1283 1.389 . S
C1283 C1282 1.389 . S
C1283 C1284 1.387 . S
C1284 H1269 0.930 . S
C1284 C1279 1.390 . S
C1284 C1283 1.387 . S
H1285 C1297 0.930 . S
H1286 C1299 0.930 . S
H1287 C1300 0.930 . S
H1288 C1304 0.959 . S
H1289 C1304 0.959 . S
H1290 C1304 0.961 . S
H1291 C1305 0.960 . S
H1292 C1305 0.961 . S
H1293 C1305 0.959 . S
H1294 C1308 0.929 . S
H1295 C1309 0.931 . S
H1296 C1311 0.930 . S
C1297 H1285 0.930 . S
C1297 C1298 1.399 . S
C1297 C1302 1.399 . S
C1298 C1297 1.399 . S
C1298 C1299 1.376 . S
C1299 H1286 0.930 . S
C1299 C1298 1.376 . S
C1299 C1300 1.388 . S
C1300 H1287 0.930 . S
C1300 C1299 1.388 . S
C1300 C1301 1.390 . S
C1301 C1300 1.390 . S
C1301 C1302 1.394 . S
C1301 C1307 1.465 . S
C1302 C1297 1.399 . S
C1302 C1301 1.394 . S
C1302 C1303 1.516 . S
C1303 C1302 1.516 . S
C1303 C1304 1.502 . S
C1303 C1305 1.561 . S
C1303 C1306 1.526 . S
C1304 H1288 0.959 . S
C1304 H1289 0.959 . S
C1304 H1290 0.961 . S
C1304 C1303 1.502 . S
C1305 H1291 0.960 . S
C1305 H1292 0.961 . S
C1305 H1293 0.959 . S
C1305 C1303 1.561 . S
C1306 C1303 1.526 . S
C1306 C1307 1.396 . S
C1306 C1311 1.390 . S
C1307 C1301 1.465 . S
C1307 C1306 1.396 . S
C1307 C1308 1.399 . S
C1308 H1294 0.929 . S
C1308 C1307 1.399 . S
C1308 C1309 1.385 . S
C1309 H1295 0.931 . S
C1309 C1308 1.385 . S
C1309 C1310 1.389 . S
C1310 C1309 1.389 . S
C1310 C1311 1.387 . S
C1311 H1296 0.930 . S
C1311 C1306 1.390 . S
C1311 C1310 1.387 . S
H1312 C1324 0.930 . S
H1313 C1326 0.930 . S
H1314 C1327 0.930 . S
H1315 C1331 0.959 . S
H1316 C1331 0.959 . S
H1317 C1331 0.961 . S
H1318 C1332 0.960 . S
H1319 C1332 0.961 . S
H1320 C1332 0.959 . S
H1321 C1335 0.929 . S
H1322 C1336 0.931 . S
H1323 C1338 0.930 . S
C1324 H1312 0.930 . S
C1324 C1325 1.399 . S
C1324 C1329 1.399 . S
C1325 C1324 1.399 . S
C1325 C1326 1.376 . S
C1326 H1313 0.930 . S
C1326 C1325 1.376 . S
C1326 C1327 1.388 . S
C1327 H1314 0.930 . S
C1327 C1326 1.388 . S
C1327 C1328 1.390 . S
C1328 C1327 1.390 . S
C1328 C1329 1.394 . S
C1328 C1334 1.465 . S
C1329 C1324 1.399 . S
C1329 C1328 1.394 . S
C1329 C1330 1.516 . S
C1330 C1329 1.516 . S
C1330 C1331 1.502 . S
C1330 C1332 1.561 . S
C1330 C1333 1.526 . S
C1331 H1315 0.959 . S
C1331 H1316 0.959 . S
C1331 H1317 0.961 . S
C1331 C1330 1.502 . S
C1332 H1318 0.960 . S
C1332 H1319 0.961 . S
C1332 H1320 0.959 . S
C1332 C1330 1.561 . S
C1333 C1330 1.526 . S
C1333 C1334 1.396 . S
C1333 C1338 1.390 . S
C1334 C1328 1.465 . S
C1334 C1333 1.396 . S
C1334 C1335 1.399 . S
C1335 H1321 0.929 . S
C1335 C1334 1.399 . S
C1335 C1336 1.385 . S
C1336 H1322 0.931 . S
C1336 C1335 1.385 . S
C1336 C1337 1.389 . S
C1337 C1336 1.389 . S
C1337 C1338 1.387 . S
C1338 H1323 0.930 . S
C1338 C1333 1.390 . S
C1338 C1337 1.387 . S
H1339 C1351 0.930 . S
H1340 C1353 0.930 . S
H1341 C1354 0.930 . S
H1342 C1358 0.959 . S
H1343 C1358 0.959 . S
H1344 C1358 0.961 . S
H1345 C1359 0.960 . S
H1346 C1359 0.961 . S
H1347 C1359 0.959 . S
H1348 C1362 0.929 . S
H1349 C1363 0.931 . S
H1350 C1365 0.930 . S
C1351 H1339 0.930 . S
C1351 C1352 1.399 . S
C1351 C1356 1.399 . S
C1352 C1351 1.399 . S
C1352 C1353 1.376 . S
C1353 H1340 0.930 . S
C1353 C1352 1.376 . S
C1353 C1354 1.388 . S
C1354 H1341 0.930 . S
C1354 C1353 1.388 . S
C1354 C1355 1.390 . S
C1355 C1354 1.390 . S
C1355 C1356 1.394 . S
C1355 C1361 1.465 . S
C1356 C1351 1.399 . S
C1356 C1355 1.394 . S
C1356 C1357 1.516 . S
C1357 C1356 1.516 . S
C1357 C1358 1.502 . S
C1357 C1359 1.561 . S
C1357 C1360 1.526 . S
C1358 H1342 0.959 . S
C1358 H1343 0.959 . S
C1358 H1344 0.961 . S
C1358 C1357 1.502 . S
C1359 H1345 0.960 . S
C1359 H1346 0.961 . S
C1359 H1347 0.959 . S
C1359 C1357 1.561 . S
C1360 C1357 1.526 . S
C1360 C1361 1.396 . S
C1360 C1365 1.390 . S
C1361 C1355 1.465 . S
C1361 C1360 1.396 . S
C1361 C1362 1.399 . S
C1362 H1348 0.929 . S
C1362 C1361 1.399 . S
C1362 C1363 1.385 . S
C1363 H1349 0.931 . S
C1363 C1362 1.385 . S
C1363 C1364 1.389 . S
C1364 C1363 1.389 . S
C1364 C1365 1.387 . S
C1365 H1350 0.930 . S
C1365 C1360 1.390 . S
C1365 C1364 1.387 . S
H1366 C1378 0.930 . S
H1367 C1380 0.930 . S
H1368 C1381 0.930 . S
H1369 C1385 0.959 . S
H1370 C1385 0.959 . S
H1371 C1385 0.961 . S
H1372 C1386 0.960 . S
H1373 C1386 0.961 . S
H1374 C1386 0.959 . S
H1375 C1389 0.929 . S
H1376 C1390 0.931 . S
H1377 C1392 0.930 . S
C1378 H1366 0.930 . S
C1378 C1379 1.399 . S
C1378 C1383 1.399 . S
C1379 C1378 1.399 . S
C1379 C1380 1.376 . S
C1380 H1367 0.930 . S
C1380 C1379 1.376 . S
C1380 C1381 1.388 . S
C1381 H1368 0.930 . S
C1381 C1380 1.388 . S
C1381 C1382 1.390 . S
C1382 C1381 1.390 . S
C1382 C1383 1.394 . S
C1382 C1388 1.465 . S
C1383 C1378 1.399 . S
C1383 C1382 1.394 . S
C1383 C1384 1.516 . S
C1384 C1383 1.516 . S
C1384 C1385 1.502 . S
C1384 C1386 1.561 . S
C1384 C1387 1.526 . S
C1385 H1369 0.959 . S
C1385 H1370 0.959 . S
C1385 H1371 0.961 . S
C1385 C1384 1.502 . S
C1386 H1372 0.960 . S
C1386 H1373 0.961 . S
C1386 H1374 0.959 . S
C1386 C1384 1.561 . S
C1387 C1384 1.526 . S
C1387 C1388 1.396 . S
C1387 C1392 1.390 . S
C1388 C1382 1.465 . S
C1388 C1387 1.396 . S
C1388 C1389 1.399 . S
C1389 H1375 0.929 . S
C1389 C1388 1.399 . S
C1389 C1390 1.385 . S
C1390 H1376 0.931 . S
C1390 C1389 1.385 . S
C1390 C1391 1.389 . S
C1391 C1390 1.389 . S
C1391 C1392 1.387 . S
C1392 H1377 0.930 . S
C1392 C1387 1.390 . S
C1392 C1391 1.387 . S
H1393 C1405 0.930 . S
H1394 C1407 0.930 . S
H1395 C1408 0.930 . S
H1396 C1412 0.959 . S
H1397 C1412 0.959 . S
H1398 C1412 0.961 . S
H1399 C1413 0.960 . S
H1400 C1413 0.961 . S
H1401 C1413 0.959 . S
H1402 C1416 0.929 . S
H1403 C1417 0.931 . S
H1404 C1419 0.930 . S
C1405 H1393 0.930 . S
C1405 C1406 1.399 . S
C1405 C1410 1.399 . S
C1406 C1405 1.399 . S
C1406 C1407 1.376 . S
C1407 H1394 0.930 . S
C1407 C1406 1.376 . S
C1407 C1408 1.388 . S
C1408 H1395 0.930 . S
C1408 C1407 1.388 . S
C1408 C1409 1.390 . S
C1409 C1408 1.390 . S
C1409 C1410 1.394 . S
C1409 C1415 1.465 . S
C1410 C1405 1.399 . S
C1410 C1409 1.394 . S
C1410 C1411 1.516 . S
C1411 C1410 1.516 . S
C1411 C1412 1.502 . S
C1411 C1413 1.561 . S
C1411 C1414 1.526 . S
C1412 H1396 0.959 . S
C1412 H1397 0.959 . S
C1412 H1398 0.961 . S
C1412 C1411 1.502 . S
C1413 H1399 0.960 . S
C1413 H1400 0.961 . S
C1413 H1401 0.959 . S
C1413 C1411 1.561 . S
C1414 C1411 1.526 . S
C1414 C1415 1.396 . S
C1414 C1419 1.390 . S
C1415 C1409 1.465 . S
C1415 C1414 1.396 . S
C1415 C1416 1.399 . S
C1416 H1402 0.929 . S
C1416 C1415 1.399 . S
C1416 C1417 1.385 . S
C1417 H1403 0.931 . S
C1417 C1416 1.385 . S
C1417 C1418 1.389 . S
C1418 C1417 1.389 . S
C1418 C1419 1.387 . S
C1419 H1404 0.930 . S
C1419 C1414 1.390 . S
C1419 C1418 1.387 . S
H1420 C1432 0.930 . S
H1421 C1434 0.930 . S
H1422 C1435 0.930 . S
H1423 C1439 0.959 . S
H1424 C1439 0.959 . S
H1425 C1439 0.961 . S
H1426 C1440 0.960 . S
H1427 C1440 0.961 . S
H1428 C1440 0.959 . S
H1429 C1443 0.929 . S
H1430 C1444 0.931 . S
H1431 C1446 0.930 . S
C1432 H1420 0.930 . S
C1432 C1433 1.399 . S
C1432 C1437 1.399 . S
C1433 C1432 1.399 . S
C1433 C1434 1.376 . S
C1434 H1421 0.930 . S
C1434 C1433 1.376 . S
C1434 C1435 1.388 . S
C1435 H1422 0.930 . S
C1435 C1434 1.388 . S
C1435 C1436 1.390 . S
C1436 C1435 1.390 . S
C1436 C1437 1.394 . S
C1436 C1442 1.465 . S
C1437 C1432 1.399 . S
C1437 C1436 1.394 . S
C1437 C1438 1.516 . S
C1438 C1437 1.516 . S
C1438 C1439 1.502 . S
C1438 C1440 1.561 . S
C1438 C1441 1.526 . S
C1439 H1423 0.959 . S
C1439 H1424 0.959 . S
C1439 H1425 0.961 . S
C1439 C1438 1.502 . S
C1440 H1426 0.960 . S
C1440 H1427 0.961 . S
C1440 H1428 0.959 . S
C1440 C1438 1.561 . S
C1441 C1438 1.526 . S
C1441 C1442 1.396 . S
C1441 C1446 1.390 . S
C1442 C1436 1.465 . S
C1442 C1441 1.396 . S
C1442 C1443 1.399 . S
C1443 H1429 0.929 . S
C1443 C1442 1.399 . S
C1443 C1444 1.385 . S
C1444 H1430 0.931 . S
C1444 C1443 1.385 . S
C1444 C1445 1.389 . S
C1445 C1444 1.389 . S
C1445 C1446 1.387 . S
C1446 H1431 0.930 . S
C1446 C1441 1.390 . S
C1446 C1445 1.387 . S
H1447 C1459 0.930 . S
H1448 C1461 0.930 . S
H1449 C1462 0.930 . S
H1450 C1466 0.959 . S
H1451 C1466 0.959 . S
H1452 C1466 0.961 . S
H1453 C1467 0.960 . S
H1454 C1467 0.961 . S
H1455 C1467 0.959 . S
H1456 C1470 0.929 . S
H1457 C1471 0.931 . S
H1458 C1473 0.930 . S
C1459 H1447 0.930 . S
C1459 C1460 1.399 . S
C1459 C1464 1.399 . S
C1460 C1459 1.399 . S
C1460 C1461 1.376 . S
C1461 H1448 0.930 . S
C1461 C1460 1.376 . S
C1461 C1462 1.388 . S
C1462 H1449 0.930 . S
C1462 C1461 1.388 . S
C1462 C1463 1.390 . S
C1463 C1462 1.390 . S
C1463 C1464 1.394 . S
C1463 C1469 1.465 . S
C1464 C1459 1.399 . S
C1464 C1463 1.394 . S
C1464 C1465 1.516 . S
C1465 C1464 1.516 . S
C1465 C1466 1.502 . S
C1465 C1467 1.561 . S
C1465 C1468 1.526 . S
C1466 H1450 0.959 . S
C1466 H1451 0.959 . S
C1466 H1452 0.961 . S
C1466 C1465 1.502 . S
C1467 H1453 0.960 . S
C1467 H1454 0.961 . S
C1467 H1455 0.959 . S
C1467 C1465 1.561 . S
C1468 C1465 1.526 . S
C1468 C1469 1.396 . S
C1468 C1473 1.390 . S
C1469 C1463 1.465 . S
C1469 C1468 1.396 . S
C1469 C1470 1.399 . S
C1470 H1456 0.929 . S
C1470 C1469 1.399 . S
C1470 C1471 1.385 . S
C1471 H1457 0.931 . S
C1471 C1470 1.385 . S
C1471 C1472 1.389 . S
C1472 C1471 1.389 . S
C1472 C1473 1.387 . S
C1473 H1458 0.930 . S
C1473 C1468 1.390 . S
C1473 C1472 1.387 . S
H1474 C1486 0.930 . S
H1475 C1488 0.930 . S
H1476 C1489 0.930 . S
H1477 C1493 0.959 . S
H1478 C1493 0.959 . S
H1479 C1493 0.961 . S
H1480 C1494 0.960 . S
H1481 C1494 0.961 . S
H1482 C1494 0.959 . S
H1483 C1497 0.929 . S
H1484 C1498 0.931 . S
H1485 C1500 0.930 . S
C1486 H1474 0.930 . S
C1486 C1487 1.399 . S
C1486 C1491 1.399 . S
C1487 C1486 1.399 . S
C1487 C1488 1.376 . S
C1488 H1475 0.930 . S
C1488 C1487 1.376 . S
C1488 C1489 1.388 . S
C1489 H1476 0.930 . S
C1489 C1488 1.388 . S
C1489 C1490 1.390 . S
C1490 C1489 1.390 . S
C1490 C1491 1.394 . S
C1490 C1496 1.465 . S
C1491 C1486 1.399 . S
C1491 C1490 1.394 . S
C1491 C1492 1.516 . S
C1492 C1491 1.516 . S
C1492 C1493 1.502 . S
C1492 C1494 1.561 . S
C1492 C1495 1.526 . S
C1493 H1477 0.959 . S
C1493 H1478 0.959 . S
C1493 H1479 0.961 . S
C1493 C1492 1.502 . S
C1494 H1480 0.960 . S
C1494 H1481 0.961 . S
C1494 H1482 0.959 . S
C1494 C1492 1.561 . S
C1495 C1492 1.526 . S
C1495 C1496 1.396 . S
C1495 C1500 1.390 . S
C1496 C1490 1.465 . S
C1496 C1495 1.396 . S
C1496 C1497 1.399 . S
C1497 H1483 0.929 . S
C1497 C1496 1.399 . S
C1497 C1498 1.385 . S
C1498 H1484 0.931 . S
C1498 C1497 1.385 . S
C1498 C1499 1.389 . S
C1499 C1498 1.389 . S
C1499 C1500 1.387 . S
C1500 H1485 0.930 . S
C1500 C1495 1.390 . S
C1500 C1499 1.387 . S
H1501 C1513 0.930 . S
H1502 C1515 0.930 . S
H1503 C1516 0.930 . S
H1504 C1520 0.959 . S
H1505 C1520 0.959 . S
H1506 C1520 0.961 . S
H1507 C1521 0.960 . S
H1508 C1521 0.961 . S
H1509 C1521 0.959 . S
H1510 C1524 0.929 . S
H1511 C1525 0.931 . S
H1512 C1527 0.930 . S
C1513 H1501 0.930 . S
C1513 C1514 1.399 . S
C1513 C1518 1.399 . S
C1514 C1513 1.399 . S
C1514 C1515 1.376 . S
C1515 H1502 0.930 . S
C1515 C1514 1.376 . S
C1515 C1516 1.388 . S
C1516 H1503 0.930 . S
C1516 C1515 1.388 . S
C1516 C1517 1.390 . S
C1517 C1516 1.390 . S
C1517 C1518 1.394 . S
C1517 C1523 1.465 . S
C1518 C1513 1.399 . S
C1518 C1517 1.394 . S
C1518 C1519 1.516 . S
C1519 C1518 1.516 . S
C1519 C1520 1.502 . S
C1519 C1521 1.561 . S
C1519 C1522 1.526 . S
C1520 H1504 0.959 . S
C1520 H1505 0.959 . S
C1520 H1506 0.961 . S
C1520 C1519 1.502 . S
C1521 H1507 0.960 . S
C1521 H1508 0.961 . S
C1521 H1509 0.959 . S
C1521 C1519 1.561 . S
C1522 C1519 1.526 . S
C1522 C1523 1.396 . S
C1522 C1527 1.390 . S
C1523 C1517 1.465 . S
C1523 C1522 1.396 . S
C1523 C1524 1.399 . S
C1524 H1510 0.929 . S
C1524 C1523 1.399 . S
C1524 C1525 1.385 . S
C1525 H1511 0.931 . S
C1525 C1524 1.385 . S
C1525 C1526 1.389 . S
C1526 C1525 1.389 . S
C1526 C1527 1.387 . S
C1527 H1512 0.930 . S
C1527 C1522 1.390 . S
C1527 C1526 1.387 . S
H1528 C1540 0.930 . S
H1529 C1542 0.930 . S
H1530 C1543 0.930 . S
H1531 C1547 0.959 . S
H1532 C1547 0.959 . S
H1533 C1547 0.961 . S
H1534 C1548 0.960 . S
H1535 C1548 0.961 . S
H1536 C1548 0.959 . S
H1537 C1551 0.929 . S
H1538 C1552 0.931 . S
H1539 C1554 0.930 . S
C1540 H1528 0.930 . S
C1540 C1541 1.399 . S
C1540 C1545 1.399 . S
C1541 C1540 1.399 . S
C1541 C1542 1.376 . S
C1542 H1529 0.930 . S
C1542 C1541 1.376 . S
C1542 C1543 1.388 . S
C1543 H1530 0.930 . S
C1543 C1542 1.388 . S
C1543 C1544 1.390 . S
C1544 C1543 1.390 . S
C1544 C1545 1.394 . S
C1544 C1550 1.465 . S
C1545 C1540 1.399 . S
C1545 C1544 1.394 . S
C1545 C1546 1.516 . S
C1546 C1545 1.516 . S
C1546 C1547 1.502 . S
C1546 C1548 1.561 . S
C1546 C1549 1.526 . S
C1547 H1531 0.959 . S
C1547 H1532 0.959 . S
C1547 H1533 0.961 . S
C1547 C1546 1.502 . S
C1548 H1534 0.960 . S
C1548 H1535 0.961 . S
C1548 H1536 0.959 . S
C1548 C1546 1.561 . S
C1549 C1546 1.526 . S
C1549 C1550 1.396 . S
C1549 C1554 1.390 . S
C1550 C1544 1.465 . S
C1550 C1549 1.396 . S
C1550 C1551 1.399 . S
C1551 H1537 0.929 . S
C1551 C1550 1.399 . S
C1551 C1552 1.385 . S
C1552 H1538 0.931 . S
C1552 C1551 1.385 . S
C1552 C1553 1.389 . S
C1553 C1552 1.389 . S
C1553 C1554 1.387 . S
C1554 H1539 0.930 . S
C1554 C1549 1.390 . S
C1554 C1553 1.387 . S
H1555 C1567 0.930 . S
H1556 C1569 0.930 . S
H1557 C1570 0.930 . S
H1558 C1574 0.959 . S
H1559 C1574 0.959 . S
H1560 C1574 0.961 . S
H1561 C1575 0.960 . S
H1562 C1575 0.961 . S
H1563 C1575 0.959 . S
H1564 C1578 0.929 . S
H1565 C1579 0.931 . S
H1566 C1581 0.930 . S
C1567 H1555 0.930 . S
C1567 C1568 1.399 . S
C1567 C1572 1.399 . S
C1568 C1567 1.399 . S
C1568 C1569 1.376 . S
C1569 H1556 0.930 . S
C1569 C1568 1.376 . S
C1569 C1570 1.388 . S
C1570 H1557 0.930 . S
C1570 C1569 1.388 . S
C1570 C1571 1.390 . S
C1571 C1570 1.390 . S
C1571 C1572 1.394 . S
C1571 C1577 1.465 . S
C1572 C1567 1.399 . S
C1572 C1571 1.394 . S
C1572 C1573 1.516 . S
C1573 C1572 1.516 . S
C1573 C1574 1.502 . S
C1573 C1575 1.561 . S
C1573 C1576 1.526 . S
C1574 H1558 0.959 . S
C1574 H1559 0.959 . S
C1574 H1560 0.961 . S
C1574 C1573 1.502 . S
C1575 H1561 0.960 . S
C1575 H1562 0.961 . S
C1575 H1563 0.959 . S
C1575 C1573 1.561 . S
C1576 C1573 1.526 . S
C1576 C1577 1.396 . S
C1576 C1581 1.390 . S
C1577 C1571 1.465 . S
C1577 C1576 1.396 . S
C1577 C1578 1.399 . S
C1578 H1564 0.929 . S
C1578 C1577 1.399 . S
C1578 C1579 1.385 . S
C1579 H1565 0.931 . S
C1579 C1578 1.385 . S
C1579 C1580 1.389 . S
C1580 C1579 1.389 . S
C1580 C1581 1.387 . S
C1581 H1566 0.930 . S
C1581 C1576 1.390 . S
C1581 C1580 1.387 . S
H1582 C1594 0.930 . S
H1583 C1596 0.930 . S
H1584 C1597 0.930 . S
H1585 C1601 0.959 . S
H1586 C1601 0.959 . S
H1587 C1601 0.961 . S
H1588 C1602 0.960 . S
H1589 C1602 0.961 . S
H1590 C1602 0.959 . S
H1591 C1605 0.929 . S
H1592 C1606 0.931 . S
H1593 C1608 0.930 . S
C1594 H1582 0.930 . S
C1594 C1595 1.399 . S
C1594 C1599 1.399 . S
C1595 C1594 1.399 . S
C1595 C1596 1.376 . S
C1596 H1583 0.930 . S
C1596 C1595 1.376 . S
C1596 C1597 1.388 . S
C1597 H1584 0.930 . S
C1597 C1596 1.388 . S
C1597 C1598 1.390 . S
C1598 C1597 1.390 . S
C1598 C1599 1.394 . S
C1598 C1604 1.465 . S
C1599 C1594 1.399 . S
C1599 C1598 1.394 . S
C1599 C1600 1.516 . S
C1600 C1599 1.516 . S
C1600 C1601 1.502 . S
C1600 C1602 1.561 . S
C1600 C1603 1.526 . S
C1601 H1585 0.959 . S
C1601 H1586 0.959 . S
C1601 H1587 0.961 . S
C1601 C1600 1.502 . S
C1602 H1588 0.960 . S
C1602 H1589 0.961 . S
C1602 H1590 0.959 . S
C1602 C1600 1.561 . S
C1603 C1600 1.526 . S
C1603 C1604 1.396 . S
C1603 C1608 1.390 . S
C1604 C1598 1.465 . S
C1604 C1603 1.396 . S
C1604 C1605 1.399 . S
C1605 H1591 0.929 . S
C1605 C1604 1.399 . S
C1605 C1606 1.385 . S
C1606 H1592 0.931 . S
C1606 C1605 1.385 . S
C1606 C1607 1.389 . S
C1607 C1606 1.389 . S
C1607 C1608 1.387 . S
C1608 H1593 0.930 . S
C1608 C1603 1.390 . S
C1608 C1607 1.387 . S
H1609 C1621 0.930 . S
H1610 C1623 0.930 . S
H1611 C1624 0.930 . S
H1612 C1628 0.959 . S
H1613 C1628 0.959 . S
H1614 C1628 0.961 . S
H1615 C1629 0.960 . S
H1616 C1629 0.961 . S
H1617 C1629 0.959 . S
H1618 C1632 0.929 . S
H1619 C1633 0.931 . S
H1620 C1635 0.930 . S
C1621 H1609 0.930 . S
C1621 C1622 1.399 . S
C1621 C1626 1.399 . S
C1622 C1621 1.399 . S
C1622 C1623 1.376 . S
C1623 H1610 0.930 . S
C1623 C1622 1.376 . S
C1623 C1624 1.388 . S
C1624 H1611 0.930 . S
C1624 C1623 1.388 . S
C1624 C1625 1.390 . S
C1625 C1624 1.390 . S
C1625 C1626 1.394 . S
C1625 C1631 1.465 . S
C1626 C1621 1.399 . S
C1626 C1625 1.394 . S
C1626 C1627 1.516 . S
C1627 C1626 1.516 . S
C1627 C1628 1.502 . S
C1627 C1629 1.561 . S
C1627 C1630 1.526 . S
C1628 H1612 0.959 . S
C1628 H1613 0.959 . S
C1628 H1614 0.961 . S
C1628 C1627 1.502 . S
C1629 H1615 0.960 . S
C1629 H1616 0.961 . S
C1629 H1617 0.959 . S
C1629 C1627 1.561 . S
C1630 C1627 1.526 . S
C1630 C1631 1.396 . S
C1630 C1635 1.390 . S
C1631 C1625 1.465 . S
C1631 C1630 1.396 . S
C1631 C1632 1.399 . S
C1632 H1618 0.929 . S
C1632 C1631 1.399 . S
C1632 C1633 1.385 . S
C1633 H1619 0.931 . S
C1633 C1632 1.385 . S
C1633 C1634 1.389 . S
C1634 C1633 1.389 . S
C1634 C1635 1.387 . S
C1635 H1620 0.930 . S
C1635 C1630 1.390 . S
C1635 C1634 1.387 . S
H1636 C1648 0.930 . S
H1637 C1650 0.930 . S
H1638 C1651 0.930 . S
H1639 C1655 0.959 . S
H1640 C1655 0.959 . S
H1641 C1655 0.961 . S
H1642 C1656 0.960 . S
H1643 C1656 0.961 . S
H1644 C1656 0.959 . S
H1645 C1659 0.929 . S
H1646 C1660 0.931 . S
H1647 C1662 0.930 . S
C1648 H1636 0.930 . S
C1648 C1649 1.399 . S
C1648 C1653 1.399 . S
C1649 C1648 1.399 . S
C1649 C1650 1.376 . S
C1650 H1637 0.930 . S
C1650 C1649 1.376 . S
C1650 C1651 1.388 . S
C1651 H1638 0.930 . S
C1651 C1650 1.388 . S
C1651 C1652 1.390 . S
C1652 C1651 1.390 . S
C1652 C1653 1.394 . S
C1652 C1658 1.465 . S
C1653 C1648 1.399 . S
C1653 C1652 1.394 . S
C1653 C1654 1.516 . S
C1654 C1653 1.516 . S
C1654 C1655 1.502 . S
C1654 C1656 1.561 . S
C1654 C1657 1.526 . S
C1655 H1639 0.959 . S
C1655 H1640 0.959 . S
C1655 H1641 0.961 . S
C1655 C1654 1.502 . S
C1656 H1642 0.960 . S
C1656 H1643 0.961 . S
C1656 H1644 0.959 . S
C1656 C1654 1.561 . S
C1657 C1654 1.526 . S
C1657 C1658 1.396 . S
C1657 C1662 1.390 . S
C1658 C1652 1.465 . S
C1658 C1657 1.396 . S
C1658 C1659 1.399 . S
C1659 H1645 0.929 . S
C1659 C1658 1.399 . S
C1659 C1660 1.385 . S
C1660 H1646 0.931 . S
C1660 C1659 1.385 . S
C1660 C1661 1.389 . S
C1661 C1660 1.389 . S
C1661 C1662 1.387 . S
C1662 H1647 0.930 . S
C1662 C1657 1.390 . S
C1662 C1661 1.387 . S
H1663 C1675 0.930 . S
H1664 C1677 0.930 1_455 S
H1665 C1678 0.930 . S
H1666 C1682 0.959 . S
H1667 C1682 0.959 . S
H1668 C1682 0.961 . S
H1669 C1683 0.960 . S
H1670 C1683 0.961 . S
H1671 C1683 0.959 . S
H1672 C1686 0.929 . S
H1673 C1687 0.931 . S
H1674 C1689 0.930 . S
C1675 H1663 0.930 . S
C1675 C1676 1.399 . S
C1675 C1680 1.399 . S
C1676 C1675 1.399 . S
C1676 C1677 1.376 . S
C1677 H1664 0.930 1_655 S
C1677 C1676 1.376 . S
C1677 C1678 1.388 . S
C1678 H1665 0.930 . S
C1678 C1677 1.388 . S
C1678 C1679 1.390 . S
C1679 C1678 1.390 . S
C1679 C1680 1.394 . S
C1679 C1685 1.465 . S
C1680 C1675 1.399 . S
C1680 C1679 1.394 . S
C1680 C1681 1.516 . S
C1681 C1680 1.516 . S
C1681 C1682 1.502 . S
C1681 C1683 1.561 . S
C1681 C1684 1.526 . S
C1682 H1666 0.959 . S
C1682 H1667 0.959 . S
C1682 H1668 0.961 . S
C1682 C1681 1.502 . S
C1683 H1669 0.960 . S
C1683 H1670 0.961 . S
C1683 H1671 0.959 . S
C1683 C1681 1.561 . S
C1684 C1681 1.526 . S
C1684 C1685 1.396 . S
C1684 C1689 1.390 . S
C1685 C1679 1.465 . S
C1685 C1684 1.396 . S
C1685 C1686 1.399 . S
C1686 H1672 0.929 . S
C1686 C1685 1.399 . S
C1686 C1687 1.385 . S
C1687 H1673 0.931 . S
C1687 C1686 1.385 . S
C1687 C1688 1.389 . S
C1688 C1687 1.389 . S
C1688 C1689 1.387 . S
C1689 H1674 0.930 . S
C1689 C1684 1.390 . S
C1689 C1688 1.387 . S
H1690 C1702 0.930 . S
H1691 C1704 0.930 . S
H1692 C1705 0.930 . S
H1693 C1709 0.959 . S
H1694 C1709 0.959 . S
H1695 C1709 0.961 . S
H1696 C1710 0.960 . S
H1697 C1710 0.961 . S
H1698 C1710 0.959 . S
H1699 C1713 0.929 . S
H1700 C1714 0.931 . S
H1701 C1716 0.930 . S
C1702 H1690 0.930 . S
C1702 C1703 1.399 . S
C1702 C1707 1.399 . S
C1703 C1702 1.399 . S
C1703 C1704 1.376 . S
C1704 H1691 0.930 . S
C1704 C1703 1.376 . S
C1704 C1705 1.388 . S
C1705 H1692 0.930 . S
C1705 C1704 1.388 . S
C1705 C1706 1.390 . S
C1706 C1705 1.390 . S
C1706 C1707 1.394 . S
C1706 C1712 1.465 . S
C1707 C1702 1.399 . S
C1707 C1706 1.394 . S
C1707 C1708 1.516 . S
C1708 C1707 1.516 . S
C1708 C1709 1.502 . S
C1708 C1710 1.561 . S
C1708 C1711 1.526 . S
C1709 H1693 0.959 . S
C1709 H1694 0.959 . S
C1709 H1695 0.961 . S
C1709 C1708 1.502 . S
C1710 H1696 0.960 . S
C1710 H1697 0.961 . S
C1710 H1698 0.959 . S
C1710 C1708 1.561 . S
C1711 C1708 1.526 . S
C1711 C1712 1.396 . S
C1711 C1716 1.390 . S
C1712 C1706 1.465 . S
C1712 C1711 1.396 . S
C1712 C1713 1.399 . S
C1713 H1699 0.929 . S
C1713 C1712 1.399 . S
C1713 C1714 1.385 . S
C1714 H1700 0.931 . S
C1714 C1713 1.385 . S
C1714 C1715 1.389 . S
C1715 C1714 1.389 . S
C1715 C1716 1.387 . S
C1716 H1701 0.930 . S
C1716 C1711 1.390 . S
C1716 C1715 1.387 . S
H1717 C1729 0.930 . S
H1718 C1731 0.930 . S
H1719 C1732 0.930 . S
H1720 C1736 0.959 . S
H1721 C1736 0.959 . S
H1722 C1736 0.961 . S
H1723 C1737 0.960 . S
H1724 C1737 0.961 . S
H1725 C1737 0.959 . S
H1726 C1740 0.929 . S
H1727 C1741 0.931 . S
H1728 C1743 0.930 . S
C1729 H1717 0.930 . S
C1729 C1730 1.399 . S
C1729 C1734 1.399 . S
C1730 C1729 1.399 . S
C1730 C1731 1.376 . S
C1731 H1718 0.930 . S
C1731 C1730 1.376 . S
C1731 C1732 1.388 . S
C1732 H1719 0.930 . S
C1732 C1731 1.388 . S
C1732 C1733 1.390 . S
C1733 C1732 1.390 . S
C1733 C1734 1.394 . S
C1733 C1739 1.465 . S
C1734 C1729 1.399 . S
C1734 C1733 1.394 . S
C1734 C1735 1.516 . S
C1735 C1734 1.516 . S
C1735 C1736 1.502 . S
C1735 C1737 1.561 . S
C1735 C1738 1.526 . S
C1736 H1720 0.959 . S
C1736 H1721 0.959 . S
C1736 H1722 0.961 . S
C1736 C1735 1.502 . S
C1737 H1723 0.960 . S
C1737 H1724 0.961 . S
C1737 H1725 0.959 . S
C1737 C1735 1.561 . S
C1738 C1735 1.526 . S
C1738 C1739 1.396 . S
C1738 C1743 1.390 . S
C1739 C1733 1.465 . S
C1739 C1738 1.396 . S
C1739 C1740 1.399 . S
C1740 H1726 0.929 . S
C1740 C1739 1.399 . S
C1740 C1741 1.385 . S
C1741 H1727 0.931 . S
C1741 C1740 1.385 . S
C1741 C1742 1.389 . S
C1742 C1741 1.389 . S
C1742 C1743 1.387 . S
C1743 H1728 0.930 . S
C1743 C1738 1.390 . S
C1743 C1742 1.387 . S
H1744 C1756 0.930 . S
H1745 C1758 0.930 . S
H1746 C1759 0.930 . S
H1747 C1763 0.959 . S
H1748 C1763 0.959 . S
H1749 C1763 0.961 . S
H1750 C1764 0.960 . S
H1751 C1764 0.961 . S
H1752 C1764 0.959 . S
H1753 C1767 0.929 . S
H1754 C1768 0.931 . S
H1755 C1770 0.930 . S
C1756 H1744 0.930 . S
C1756 C1757 1.399 . S
C1756 C1761 1.399 . S
C1757 C1756 1.399 . S
C1757 C1758 1.376 . S
C1758 H1745 0.930 . S
C1758 C1757 1.376 . S
C1758 C1759 1.388 . S
C1759 H1746 0.930 . S
C1759 C1758 1.388 . S
C1759 C1760 1.390 . S
C1760 C1759 1.390 . S
C1760 C1761 1.394 . S
C1760 C1766 1.465 . S
C1761 C1756 1.399 . S
C1761 C1760 1.394 . S
C1761 C1762 1.516 . S
C1762 C1761 1.516 . S
C1762 C1763 1.502 . S
C1762 C1764 1.561 . S
C1762 C1765 1.526 . S
C1763 H1747 0.959 . S
C1763 H1748 0.959 . S
C1763 H1749 0.961 . S
C1763 C1762 1.502 . S
C1764 H1750 0.960 . S
C1764 H1751 0.961 . S
C1764 H1752 0.959 . S
C1764 C1762 1.561 . S
C1765 C1762 1.526 . S
C1765 C1766 1.396 . S
C1765 C1770 1.390 . S
C1766 C1760 1.465 . S
C1766 C1765 1.396 . S
C1766 C1767 1.399 . S
C1767 H1753 0.929 . S
C1767 C1766 1.399 . S
C1767 C1768 1.385 . S
C1768 H1754 0.931 . S
C1768 C1767 1.385 . S
C1768 C1769 1.389 . S
C1769 C1768 1.389 . S
C1769 C1770 1.387 . S
C1770 H1755 0.930 . S
C1770 C1765 1.390 . S
C1770 C1769 1.387 . S
H1771 C1783 0.930 . S
H1772 C1785 0.930 . S
H1773 C1786 0.930 . S
H1774 C1790 0.959 . S
H1775 C1790 0.959 . S
H1776 C1790 0.961 . S
H1777 C1791 0.960 . S
H1778 C1791 0.961 . S
H1779 C1791 0.959 . S
H1780 C1794 0.929 . S
H1781 C1795 0.931 . S
H1782 C1797 0.930 . S
C1783 H1771 0.930 . S
C1783 C1784 1.399 . S
C1783 C1788 1.399 . S
C1784 C1783 1.399 . S
C1784 C1785 1.376 . S
C1785 H1772 0.930 . S
C1785 C1784 1.376 . S
C1785 C1786 1.388 . S
C1786 H1773 0.930 . S
C1786 C1785 1.388 . S
C1786 C1787 1.390 . S
C1787 C1786 1.390 . S
C1787 C1788 1.394 . S
C1787 C1793 1.465 . S
C1788 C1783 1.399 . S
C1788 C1787 1.394 . S
C1788 C1789 1.516 . S
C1789 C1788 1.516 . S
C1789 C1790 1.502 . S
C1789 C1791 1.561 . S
C1789 C1792 1.526 . S
C1790 H1774 0.959 . S
C1790 H1775 0.959 . S
C1790 H1776 0.961 . S
C1790 C1789 1.502 . S
C1791 H1777 0.960 . S
C1791 H1778 0.961 . S
C1791 H1779 0.959 . S
C1791 C1789 1.561 . S
C1792 C1789 1.526 . S
C1792 C1793 1.396 . S
C1792 C1797 1.390 . S
C1793 C1787 1.465 . S
C1793 C1792 1.396 . S
C1793 C1794 1.399 . S
C1794 H1780 0.929 . S
C1794 C1793 1.399 . S
C1794 C1795 1.385 . S
C1795 H1781 0.931 . S
C1795 C1794 1.385 . S
C1795 C1796 1.389 . S
C1796 C1795 1.389 . S
C1796 C1797 1.387 . S
C1797 H1782 0.930 . S
C1797 C1792 1.390 . S
C1797 C1796 1.387 . S
H1798 C1810 0.930 . S
H1799 C1812 0.930 . S
H1800 C1813 0.930 . S
H1801 C1817 0.959 . S
H1802 C1817 0.959 . S
H1803 C1817 0.961 . S
H1804 C1818 0.960 . S
H1805 C1818 0.961 . S
H1806 C1818 0.959 . S
H1807 C1821 0.929 . S
H1808 C1822 0.931 . S
H1809 C1824 0.930 . S
C1810 H1798 0.930 . S
C1810 C1811 1.399 . S
C1810 C1815 1.399 . S
C1811 C1810 1.399 . S
C1811 C1812 1.376 . S
C1812 H1799 0.930 . S
C1812 C1811 1.376 . S
C1812 C1813 1.388 . S
C1813 H1800 0.930 . S
C1813 C1812 1.388 . S
C1813 C1814 1.390 . S
C1814 C1813 1.390 . S
C1814 C1815 1.394 . S
C1814 C1820 1.465 . S
C1815 C1810 1.399 . S
C1815 C1814 1.394 . S
C1815 C1816 1.516 . S
C1816 C1815 1.516 . S
C1816 C1817 1.502 . S
C1816 C1818 1.561 . S
C1816 C1819 1.526 . S
C1817 H1801 0.959 . S
C1817 H1802 0.959 . S
C1817 H1803 0.961 . S
C1817 C1816 1.502 . S
C1818 H1804 0.960 . S
C1818 H1805 0.961 . S
C1818 H1806 0.959 . S
C1818 C1816 1.561 . S
C1819 C1816 1.526 . S
C1819 C1820 1.396 . S
C1819 C1824 1.390 . S
C1820 C1814 1.465 . S
C1820 C1819 1.396 . S
C1820 C1821 1.399 . S
C1821 H1807 0.929 . S
C1821 C1820 1.399 . S
C1821 C1822 1.385 . S
C1822 H1808 0.931 . S
C1822 C1821 1.385 . S
C1822 C1823 1.389 . S
C1823 C1822 1.389 . S
C1823 C1824 1.387 . S
C1824 H1809 0.930 . S
C1824 C1819 1.390 . S
C1824 C1823 1.387 . S
H1825 C1837 0.930 1_554 S
H1826 C1839 0.930 . S
H1827 C1840 0.930 . S
H1828 C1844 0.959 . S
H1829 C1844 0.959 . S
H1830 C1844 0.961 . S
H1831 C1845 0.960 . S
H1832 C1845 0.961 1_554 S
H1833 C1845 0.959 . S
H1834 C1848 0.929 . S
H1835 C1849 0.931 . S
H1836 C1851 0.930 . S
C1837 H1825 0.930 1_556 S
C1837 C1838 1.399 . S
C1837 C1842 1.399 . S
C1838 C1837 1.399 . S
C1838 C1839 1.376 . S
C1839 H1826 0.930 . S
C1839 C1838 1.376 . S
C1839 C1840 1.388 . S
C1840 H1827 0.930 . S
C1840 C1839 1.388 . S
C1840 C1841 1.390 . S
C1841 C1840 1.390 . S
C1841 C1842 1.394 . S
C1841 C1847 1.465 . S
C1842 C1837 1.399 . S
C1842 C1841 1.394 . S
C1842 C1843 1.516 1_556 S
C1843 C1842 1.516 1_554 S
C1843 C1844 1.502 . S
C1843 C1845 1.561 1_554 S
C1843 C1846 1.526 . S
C1844 H1828 0.959 . S
C1844 H1829 0.959 . S
C1844 H1830 0.961 . S
C1844 C1843 1.502 . S
C1845 H1831 0.960 . S
C1845 H1832 0.961 1_556 S
C1845 H1833 0.959 . S
C1845 C1843 1.561 1_556 S
C1846 C1843 1.526 . S
C1846 C1847 1.396 1_554 S
C1846 C1851 1.390 . S
C1847 C1841 1.465 . S
C1847 C1846 1.396 1_556 S
C1847 C1848 1.399 . S
C1848 H1834 0.929 . S
C1848 C1847 1.399 . S
C1848 C1849 1.385 . S
C1849 H1835 0.931 . S
C1849 C1848 1.385 . S
C1849 C1850 1.389 1_556 S
C1850 C1849 1.389 1_554 S
C1850 C1851 1.387 . S
C1851 H1836 0.930 . S
C1851 C1846 1.390 . S
C1851 C1850 1.387 . S
H1852 C1864 0.930 . S
H1853 C1866 0.930 . S
H1854 C1867 0.930 . S
H1855 C1871 0.959 . S
H1856 C1871 0.959 . S
H1857 C1871 0.961 . S
H1858 C1872 0.960 . S
H1859 C1872 0.961 . S
H1860 C1872 0.959 . S
H1861 C1875 0.929 . S
H1862 C1876 0.931 . S
H1863 C1878 0.930 . S
C1864 H1852 0.930 . S
C1864 C1865 1.399 . S
C1864 C1869 1.399 . S
C1865 C1864 1.399 . S
C1865 C1866 1.376 . S
C1866 H1853 0.930 . S
C1866 C1865 1.376 . S
C1866 C1867 1.388 . S
C1867 H1854 0.930 . S
C1867 C1866 1.388 . S
C1867 C1868 1.390 . S
C1868 C1867 1.390 . S
C1868 C1869 1.394 . S
C1868 C1874 1.465 . S
C1869 C1864 1.399 . S
C1869 C1868 1.394 . S
C1869 C1870 1.516 . S
C1870 C1869 1.516 . S
C1870 C1871 1.502 . S
C1870 C1872 1.561 1_655 S
C1870 C1873 1.526 . S
C1871 H1855 0.959 . S
C1871 H1856 0.959 . S
C1871 H1857 0.961 . S
C1871 C1870 1.502 . S
C1872 H1858 0.960 . S
C1872 H1859 0.961 . S
C1872 H1860 0.959 . S
C1872 C1870 1.561 1_455 S
C1873 C1870 1.526 . S
C1873 C1874 1.396 . S
C1873 C1878 1.390 . S
C1874 C1868 1.465 . S
C1874 C1873 1.396 . S
C1874 C1875 1.399 . S
C1875 H1861 0.929 . S
C1875 C1874 1.399 . S
C1875 C1876 1.385 . S
C1876 H1862 0.931 . S
C1876 C1875 1.385 . S
C1876 C1877 1.389 . S
C1877 C1876 1.389 . S
C1877 C1878 1.387 . S
C1878 H1863 0.930 . S
C1878 C1873 1.390 . S
C1878 C1877 1.387 . S
H1879 C1891 0.930 . S
H1880 C1893 0.930 . S
H1881 C1894 0.930 . S
H1882 C1898 0.959 . S
H1883 C1898 0.959 . S
H1884 C1898 0.961 . S
H1885 C1899 0.960 . S
H1886 C1899 0.961 . S
H1887 C1899 0.959 . S
H1888 C1902 0.929 . S
H1889 C1903 0.931 . S
H1890 C1905 0.930 . S
C1891 H1879 0.930 . S
C1891 C1892 1.399 . S
C1891 C1896 1.399 . S
C1892 C1891 1.399 . S
C1892 C1893 1.376 . S
C1893 H1880 0.930 . S
C1893 C1892 1.376 . S
C1893 C1894 1.388 . S
C1894 H1881 0.930 . S
C1894 C1893 1.388 . S
C1894 C1895 1.390 . S
C1895 C1894 1.390 . S
C1895 C1896 1.394 . S
C1895 C1901 1.465 . S
C1896 C1891 1.399 . S
C1896 C1895 1.394 . S
C1896 C1897 1.516 . S
C1897 C1896 1.516 . S
C1897 C1898 1.502 . S
C1897 C1899 1.561 . S
C1897 C1900 1.526 . S
C1898 H1882 0.959 . S
C1898 H1883 0.959 . S
C1898 H1884 0.961 . S
C1898 C1897 1.502 . S
C1899 H1885 0.960 . S
C1899 H1886 0.961 . S
C1899 H1887 0.959 . S
C1899 C1897 1.561 . S
C1900 C1897 1.526 . S
C1900 C1901 1.396 . S
C1900 C1905 1.390 . S
C1901 C1895 1.465 . S
C1901 C1900 1.396 . S
C1901 C1902 1.399 . S
C1902 H1888 0.929 . S
C1902 C1901 1.399 . S
C1902 C1903 1.385 . S
C1903 H1889 0.931 . S
C1903 C1902 1.385 . S
C1903 C1904 1.389 . S
C1904 C1903 1.389 . S
C1904 C1905 1.387 . S
C1905 H1890 0.930 . S
C1905 C1900 1.390 . S
C1905 C1904 1.387 . S
H1906 C1918 0.930 . S
H1907 C1920 0.930 . S
H1908 C1921 0.930 . S
H1909 C1925 0.959 . S
H1910 C1925 0.959 . S
H1911 C1925 0.961 . S
H1912 C1926 0.960 . S
H1913 C1926 0.961 . S
H1914 C1926 0.959 . S
H1915 C1929 0.929 . S
H1916 C1930 0.931 . S
H1917 C1932 0.930 . S
C1918 H1906 0.930 . S
C1918 C1919 1.399 . S
C1918 C1923 1.399 . S
C1919 C1918 1.399 . S
C1919 C1920 1.376 . S
C1920 H1907 0.930 . S
C1920 C1919 1.376 . S
C1920 C1921 1.388 . S
C1921 H1908 0.930 . S
C1921 C1920 1.388 . S
C1921 C1922 1.390 . S
C1922 C1921 1.390 . S
C1922 C1923 1.394 . S
C1922 C1928 1.465 . S
C1923 C1918 1.399 . S
C1923 C1922 1.394 . S
C1923 C1924 1.516 . S
C1924 C1923 1.516 . S
C1924 C1925 1.502 . S
C1924 C1926 1.561 . S
C1924 C1927 1.526 . S
C1925 H1909 0.959 . S
C1925 H1910 0.959 . S
C1925 H1911 0.961 . S
C1925 C1924 1.502 . S
C1926 H1912 0.960 . S
C1926 H1913 0.961 . S
C1926 H1914 0.959 . S
C1926 C1924 1.561 . S
C1927 C1924 1.526 . S
C1927 C1928 1.396 . S
C1927 C1932 1.390 . S
C1928 C1922 1.465 . S
C1928 C1927 1.396 . S
C1928 C1929 1.399 . S
C1929 H1915 0.929 . S
C1929 C1928 1.399 . S
C1929 C1930 1.385 . S
C1930 H1916 0.931 . S
C1930 C1929 1.385 . S
C1930 C1931 1.389 . S
C1931 C1930 1.389 . S
C1931 C1932 1.387 . S
C1932 H1917 0.930 . S
C1932 C1927 1.390 . S
C1932 C1931 1.387 . S
H1933 C1945 0.930 . S
H1934 C1947 0.930 . S
H1935 C1948 0.930 . S
H1936 C1952 0.959 . S
H1937 C1952 0.959 . S
H1938 C1952 0.961 . S
H1939 C1953 0.960 . S
H1940 C1953 0.961 . S
H1941 C1953 0.959 . S
H1942 C1956 0.925 1_554 S
H1943 C1957 0.931 . S
H1944 C1959 0.930 . S
C1945 H1933 0.930 . S
C1945 C1946 1.399 . S
C1945 C1950 1.399 . S
C1946 C1945 1.399 . S
C1946 C1947 1.376 . S
C1947 H1934 0.930 . S
C1947 C1946 1.376 . S
C1947 C1948 1.388 . S
C1948 H1935 0.930 . S
C1948 C1947 1.388 . S
C1948 C1949 1.390 . S
C1949 C1948 1.390 . S
C1949 C1950 1.394 . S
C1949 C1955 1.465 . S
C1950 C1945 1.399 . S
C1950 C1949 1.394 . S
C1950 C1951 1.516 1_554 S
C1951 C1950 1.516 1_556 S
C1951 C1952 1.502 . S
C1951 C1953 1.561 1_556 S
C1951 C1954 1.526 . S
C1952 H1936 0.959 . S
C1952 H1937 0.959 . S
C1952 H1938 0.961 . S
C1952 C1951 1.502 . S
C1953 H1939 0.960 . S
C1953 H1940 0.961 . S
C1953 H1941 0.959 . S
C1953 C1951 1.561 1_554 S
C1954 C1951 1.526 . S
C1954 C1955 1.396 1_556 S
C1954 C1959 1.390 . S
C1955 C1949 1.465 . S
C1955 C1954 1.396 1_554 S
C1955 C1956 1.398 1_554 S
C1956 H1942 0.925 1_556 S
C1956 C1955 1.398 1_556 S
C1956 C1957 1.390 . S
C1957 H1943 0.931 . S
C1957 C1956 1.390 . S
C1957 C1958 1.389 . S
C1958 C1957 1.389 . S
C1958 C1959 1.387 . S
C1959 H1944 0.930 . S
C1959 C1954 1.390 . S
C1959 C1958 1.387 . S
H1960 C1972 0.930 . S
H1961 C1974 0.930 . S
H1962 C1975 0.930 . S
H1963 C1979 0.959 . S
H1964 C1979 0.959 . S
H1965 C1979 0.961 1_565 S
H1966 C1980 0.959 . S
H1967 C1980 0.961 . S
H1968 C1980 0.959 . S
H1969 C1983 0.929 . S
H1970 C1984 0.931 . S
H1971 C1986 0.930 . S
C1972 H1960 0.930 . S
C1972 C1973 1.399 . S
C1972 C1977 1.399 . S
C1973 C1972 1.399 . S
C1973 C1974 1.376 . S
C1974 H1961 0.930 . S
C1974 C1973 1.376 . S
C1974 C1975 1.388 . S
C1975 H1962 0.930 . S
C1975 C1974 1.388 . S
C1975 C1976 1.390 . S
C1976 C1975 1.390 . S
C1976 C1977 1.394 . S
C1976 C1982 1.465 1_565 S
C1977 C1972 1.399 . S
C1977 C1976 1.394 . S
C1977 C1978 1.516 1_565 S
C1978 C1977 1.516 1_545 S
C1978 C1979 1.502 . S
C1978 C1980 1.561 . S
C1978 C1981 1.526 . S
C1979 H1963 0.959 . S
C1979 H1964 0.959 . S
C1979 H1965 0.961 1_545 S
C1979 C1978 1.502 . S
C1980 H1966 0.959 . S
C1980 H1967 0.961 . S
C1980 H1968 0.959 . S
C1980 C1978 1.561 . S
C1981 C1978 1.526 . S
C1981 C1982 1.396 . S
C1981 C1986 1.390 . S
C1982 C1976 1.465 1_545 S
C1982 C1981 1.396 . S
C1982 C1983 1.399 . S
C1983 H1969 0.929 . S
C1983 C1982 1.399 . S
C1983 C1984 1.385 . S
C1984 H1970 0.931 . S
C1984 C1983 1.385 . S
C1984 C1985 1.389 . S
C1985 C1984 1.389 . S
C1985 C1986 1.387 . S
C1986 H1971 0.930 . S
C1986 C1981 1.390 . S
C1986 C1985 1.387 . S
H1987 C1999 0.930 . S
H1988 C2001 0.930 . S
H1989 C2002 0.930 . S
H1990 C2006 0.959 . S
H1991 C2006 0.959 . S
H1992 C2006 0.961 . S
H1993 C2007 0.960 . S
H1994 C2007 0.961 . S
H1995 C2007 0.959 . S
H1996 C2010 0.929 . S
H1997 C2011 0.931 . S
H1998 C2013 0.930 . S
C1999 H1987 0.930 . S
C1999 C2000 1.399 . S
C1999 C2004 1.399 . S
C2000 C1999 1.399 . S
C2000 C2001 1.376 . S
C2001 H1988 0.930 . S
C2001 C2000 1.376 . S
C2001 C2002 1.388 1_554 S
C2002 H1989 0.930 . S
C2002 C2001 1.388 1_556 S
C2002 C2003 1.390 . S
C2003 C2002 1.390 . S
C2003 C2004 1.394 1_556 S
C2003 C2009 1.465 . S
C2004 C1999 1.399 . S
C2004 C2003 1.394 1_554 S
C2004 C2005 1.516 . S
C2005 C2004 1.516 . S
C2005 C2006 1.502 . S
C2005 C2007 1.561 1_554 S
C2005 C2008 1.526 1_554 S
C2006 H1990 0.959 . S
C2006 H1991 0.959 . S
C2006 H1992 0.961 . S
C2006 C2005 1.502 . S
C2007 H1993 0.960 . S
C2007 H1994 0.961 . S
C2007 H1995 0.959 . S
C2007 C2005 1.561 1_556 S
C2008 C2005 1.526 1_556 S
C2008 C2009 1.396 . S
C2008 C2013 1.390 . S
C2009 C2003 1.465 . S
C2009 C2008 1.396 . S
C2009 C2010 1.399 . S
C2010 H1996 0.929 . S
C2010 C2009 1.399 . S
C2010 C2011 1.385 . S
C2011 H1997 0.931 . S
C2011 C2010 1.385 . S
C2011 C2012 1.389 . S
C2012 C2011 1.389 . S
C2012 C2013 1.387 . S
C2013 H1998 0.930 . S
C2013 C2008 1.390 . S
C2013 C2012 1.387 . S
H2014 C2026 0.930 . S
H2015 C2028 0.930 . S
H2016 C2029 0.930 . S
H2017 C2033 0.959 . S
H2018 C2033 0.959 1_565 S
H2019 C2033 0.961 . S
H2020 C2034 0.960 . S
H2021 C2034 0.961 . S
H2022 C2034 0.959 . S
H2023 C2037 0.929 . S
H2024 C2038 0.931 . S
H2025 C2040 0.930 . S
C2026 H2014 0.930 . S
C2026 C2027 1.399 . S
C2026 C2031 1.399 . S
C2027 C2026 1.399 . S
C2027 C2028 1.376 . S
C2028 H2015 0.930 . S
C2028 C2027 1.376 . S
C2028 C2029 1.388 . S
C2029 H2016 0.930 . S
C2029 C2028 1.388 . S
C2029 C2030 1.390 . S
C2030 C2029 1.390 . S
C2030 C2031 1.394 . S
C2030 C2036 1.465 1_545 S
C2031 C2026 1.399 . S
C2031 C2030 1.394 . S
C2031 C2032 1.516 . S
C2032 C2031 1.516 . S
C2032 C2033 1.502 . S
C2032 C2034 1.561 . S
C2032 C2035 1.526 1_545 S
C2033 H2017 0.959 . S
C2033 H2018 0.959 1_545 S
C2033 H2019 0.961 . S
C2033 C2032 1.502 . S
C2034 H2020 0.960 . S
C2034 H2021 0.961 . S
C2034 H2022 0.959 . S
C2034 C2032 1.561 . S
C2035 C2032 1.526 1_565 S
C2035 C2036 1.396 . S
C2035 C2040 1.390 . S
C2036 C2030 1.465 1_565 S
C2036 C2035 1.396 . S
C2036 C2037 1.399 . S
C2037 H2023 0.929 . S
C2037 C2036 1.399 . S
C2037 C2038 1.385 . S
C2038 H2024 0.931 . S
C2038 C2037 1.385 . S
C2038 C2039 1.389 . S
C2039 C2038 1.389 . S
C2039 C2040 1.387 . S
C2040 H2025 0.930 . S
C2040 C2035 1.390 . S
C2040 C2039 1.387 . S
H2041 C2053 0.930 . S
H2042 C2055 0.930 . S
H2043 C2056 0.930 . S
H2044 C2060 0.959 . S
H2045 C2060 0.959 . S
H2046 C2060 0.961 . S
H2047 C2061 0.960 . S
H2048 C2061 0.961 . S
H2049 C2061 0.959 . S
H2050 C2064 0.929 . S
H2051 C2065 0.931 . S
H2052 C2067 0.930 . S
C2053 H2041 0.930 . S
C2053 C2054 1.399 . S
C2053 C2058 1.399 . S
C2054 C2053 1.399 . S
C2054 C2055 1.376 . S
C2055 H2042 0.930 . S
C2055 C2054 1.376 . S
C2055 C2056 1.388 . S
C2056 H2043 0.930 . S
C2056 C2055 1.388 . S
C2056 C2057 1.390 . S
C2057 C2056 1.390 . S
C2057 C2058 1.394 . S
C2057 C2063 1.465 . S
C2058 C2053 1.399 . S
C2058 C2057 1.394 . S
C2058 C2059 1.516 . S
C2059 C2058 1.516 . S
C2059 C2060 1.502 . S
C2059 C2061 1.561 . S
C2059 C2062 1.526 . S
C2060 H2044 0.959 . S
C2060 H2045 0.959 . S
C2060 H2046 0.961 . S
C2060 C2059 1.502 . S
C2061 H2047 0.960 . S
C2061 H2048 0.961 . S
C2061 H2049 0.959 . S
C2061 C2059 1.561 . S
C2062 C2059 1.526 . S
C2062 C2063 1.396 . S
C2062 C2067 1.390 . S
C2063 C2057 1.465 . S
C2063 C2062 1.396 . S
C2063 C2064 1.399 . S
C2064 H2050 0.929 . S
C2064 C2063 1.399 . S
C2064 C2065 1.385 . S
C2065 H2051 0.931 . S
C2065 C2064 1.385 . S
C2065 C2066 1.389 . S
C2066 C2065 1.389 . S
C2066 C2067 1.387 . S
C2067 H2052 0.930 . S
C2067 C2062 1.390 . S
C2067 C2066 1.387 . S
H2068 C2080 0.930 . S
H2069 C2082 0.930 . S
H2070 C2083 0.930 . S
H2071 C2087 0.959 . S
H2072 C2087 0.980 . S
H2073 C2087 0.961 . S
H2074 C2088 0.960 . S
H2075 C2088 0.943 1_565 S
H2076 C2088 0.959 . S
H2077 C2091 0.929 . S
H2078 C2092 0.931 . S
H2079 C2094 0.930 . S
C2080 H2068 0.930 . S
C2080 C2081 1.399 . S
C2080 C2085 1.399 . S
C2081 C2080 1.399 . S
C2081 C2082 1.376 . S
C2082 H2069 0.930 . S
C2082 C2081 1.376 . S
C2082 C2083 1.388 . S
C2083 H2070 0.930 . S
C2083 C2082 1.388 . S
C2083 C2084 1.390 . S
C2084 C2083 1.390 . S
C2084 C2085 1.394 . S
C2084 C2090 1.465 1_545 S
C2085 C2080 1.399 . S
C2085 C2084 1.394 . S
C2085 C2086 1.516 . S
C2086 C2085 1.516 . S
C2086 C2087 1.502 . S
C2086 C2088 1.561 . S
C2086 C2089 1.526 1_545 S
C2087 H2071 0.959 . S
C2087 H2072 0.980 . S
C2087 H2073 0.961 . S
C2087 C2086 1.502 . S
C2088 H2074 0.960 . S
C2088 H2075 0.943 1_545 S
C2088 H2076 0.959 . S
C2088 C2086 1.561 . S
C2089 C2086 1.526 1_565 S
C2089 C2090 1.396 . S
C2089 C2094 1.390 . S
C2090 C2084 1.465 1_565 S
C2090 C2089 1.396 . S
C2090 C2091 1.399 . S
C2091 H2077 0.929 . S
C2091 C2090 1.399 . S
C2091 C2092 1.385 . S
C2092 H2078 0.931 . S
C2092 C2091 1.385 . S
C2092 C2093 1.389 . S
C2093 C2092 1.389 . S
C2093 C2094 1.387 . S
C2094 H2079 0.930 . S
C2094 C2089 1.390 . S
C2094 C2093 1.387 . S
H2095 C2107 0.930 . S
H2096 C2109 0.930 . S
H2097 C2110 0.930 . S
H2098 C2114 0.959 . S
H2099 C2114 0.959 . S
H2100 C2114 0.961 . S
H2101 C2115 0.960 . S
H2102 C2115 0.961 . S
H2103 C2115 0.959 . S
H2104 C2118 0.929 . S
H2105 C2119 0.931 . S
H2106 C2121 0.930 . S
C2107 H2095 0.930 . S
C2107 C2108 1.399 . S
C2107 C2112 1.399 . S
C2108 C2107 1.399 . S
C2108 C2109 1.376 . S
C2109 H2096 0.930 . S
C2109 C2108 1.376 . S
C2109 C2110 1.388 1_554 S
C2110 H2097 0.930 . S
C2110 C2109 1.388 1_556 S
C2110 C2111 1.390 . S
C2111 C2110 1.390 . S
C2111 C2112 1.394 1_556 S
C2111 C2117 1.465 . S
C2112 C2107 1.399 . S
C2112 C2111 1.394 1_554 S
C2112 C2113 1.516 . S
C2113 C2112 1.516 . S
C2113 C2114 1.502 . S
C2113 C2115 1.561 1_554 S
C2113 C2116 1.526 1_554 S
C2114 H2098 0.959 . S
C2114 H2099 0.959 . S
C2114 H2100 0.961 . S
C2114 C2113 1.502 . S
C2115 H2101 0.960 . S
C2115 H2102 0.961 . S
C2115 H2103 0.959 . S
C2115 C2113 1.561 1_556 S
C2116 C2113 1.526 1_556 S
C2116 C2117 1.396 . S
C2116 C2121 1.390 . S
C2117 C2111 1.465 . S
C2117 C2116 1.396 . S
C2117 C2118 1.399 . S
C2118 H2104 0.929 . S
C2118 C2117 1.399 . S
C2118 C2119 1.385 . S
C2119 H2105 0.931 . S
C2119 C2118 1.385 . S
C2119 C2120 1.389 . S
C2120 C2119 1.389 . S
C2120 C2121 1.387 . S
C2121 H2106 0.930 . S
C2121 C2116 1.390 . S
C2121 C2120 1.387 . S
H2122 C2134 0.930 . S
H2123 C2136 0.930 . S
H2124 C2137 0.930 . S
H2125 C2141 0.959 1_655 S
H2126 C2141 0.959 1_565 S
H2127 C2141 0.961 . S
H2128 C2142 0.960 . S
H2129 C2142 0.961 . S
H2130 C2142 0.959 . S
H2131 C2145 0.929 . S
H2132 C2146 0.931 . S
H2133 C2148 0.930 . S
C2134 H2122 0.930 . S
C2134 C2135 1.399 . S
C2134 C2139 1.399 . S
C2135 C2134 1.399 . S
C2135 C2136 1.376 . S
C2136 H2123 0.930 . S
C2136 C2135 1.376 . S
C2136 C2137 1.388 . S
C2137 H2124 0.930 . S
C2137 C2136 1.388 . S
C2137 C2138 1.390 . S
C2138 C2137 1.390 . S
C2138 C2139 1.394 . S
C2138 C2144 1.465 1_545 S
C2139 C2134 1.399 . S
C2139 C2138 1.394 . S
C2139 C2140 1.516 . S
C2140 C2139 1.516 . S
C2140 C2141 1.502 . S
C2140 C2142 1.561 . S
C2140 C2143 1.526 1_545 S
C2141 H2125 0.959 1_455 S
C2141 H2126 0.959 1_545 S
C2141 H2127 0.961 . S
C2141 C2140 1.502 . S
C2142 H2128 0.960 . S
C2142 H2129 0.961 . S
C2142 H2130 0.959 . S
C2142 C2140 1.561 . S
C2143 C2140 1.526 1_565 S
C2143 C2144 1.396 . S
C2143 C2148 1.390 . S
C2144 C2138 1.465 1_565 S
C2144 C2143 1.396 . S
C2144 C2145 1.399 . S
C2145 H2131 0.929 . S
C2145 C2144 1.399 . S
C2145 C2146 1.385 . S
C2146 H2132 0.931 . S
C2146 C2145 1.385 . S
C2146 C2147 1.389 . S
C2147 C2146 1.389 . S
C2147 C2148 1.387 . S
C2148 H2133 0.930 . S
C2148 C2143 1.390 . S
C2148 C2147 1.387 . S
H2149 C2161 0.930 . S
H2150 C2163 0.930 . S
H2151 C2164 0.930 . S
H2152 C2168 0.959 . S
H2153 C2168 0.959 . S
H2154 C2168 0.961 . S
H2155 C2169 0.960 . S
H2156 C2169 0.961 . S
H2157 C2169 0.959 . S
H2158 C2172 0.929 . S
H2159 C2173 0.931 . S
H2160 C2175 0.930 . S
C2161 H2149 0.930 . S
C2161 C2162 1.399 . S
C2161 C2166 1.399 . S
C2162 C2161 1.399 . S
C2162 C2163 1.376 . S
C2163 H2150 0.930 . S
C2163 C2162 1.376 . S
C2163 C2164 1.388 . S
C2164 H2151 0.930 . S
C2164 C2163 1.388 . S
C2164 C2165 1.390 . S
C2165 C2164 1.390 . S
C2165 C2166 1.394 . S
C2165 C2171 1.465 . S
C2166 C2161 1.399 . S
C2166 C2165 1.394 . S
C2166 C2167 1.516 . S
C2167 C2166 1.516 . S
C2167 C2168 1.502 . S
C2167 C2169 1.561 . S
C2167 C2170 1.526 . S
C2168 H2152 0.959 . S
C2168 H2153 0.959 . S
C2168 H2154 0.961 . S
C2168 C2167 1.502 . S
C2169 H2155 0.960 . S
C2169 H2156 0.961 . S
C2169 H2157 0.959 . S
C2169 C2167 1.561 . S
C2170 C2167 1.526 . S
C2170 C2171 1.396 . S
C2170 C2175 1.390 . S
C2171 C2165 1.465 . S
C2171 C2170 1.396 . S
C2171 C2172 1.399 . S
C2172 H2158 0.929 . S
C2172 C2171 1.399 . S
C2172 C2173 1.385 . S
C2173 H2159 0.931 . S
C2173 C2172 1.385 . S
C2173 C2174 1.389 . S
C2174 C2173 1.389 . S
C2174 C2175 1.387 . S
C2175 H2160 0.930 . S
C2175 C2170 1.390 . S
C2175 C2174 1.387 . S
C461 C13 1.352 . S
C473 C307 1.392 . S
C488 C321 1.349 . S
C500 C27 1.283 . S
C515 C41 1.282 . S
C527 C335 1.349 . S
C542 C293 1.305 . S
C554 C55 1.375 . S
C569 C69 1.309 . S
C581 C279 1.378 . S
C596 C83 1.307 . S
C608 C237 1.275 . S
C623 C251 1.346 . S
C635 C97 1.391 . S
C650 C111 1.312 . S
C662 C265 1.274 . S
C677 C125 1.298 . S
C689 C419 1.299 . S
C704 C139 1.372 . S
C716 C433 1.279 . S
C731 C447 1.386 . S
C743 C153 1.343 . S
C758 C405 1.356 . S
C770 C167 1.378 . S
C785 C181 1.346 . S
C797 C391 1.384 . S
C812 C349 1.337 . S
C824 C195 1.276 . S
C839 C209 1.388 . S
C851 C363 1.338 . S
C866 C377 1.297 . S
C878 C223 1.300 . S
C893 C8 1.079 . S
C905 C133 1.079 . S
C920 C22 1.064 . S
C932 C371 1.048 . S
C947 C161 1.006 . S
C959 C36 0.961 . S
C974 C50 0.996 . S
C986 C343 1.057 . S
C1001 C64 0.955 . S
C1013 C217 1.017 . S
C1028 C399 1.083 . S
C1040 C78 1.066 . S
C1055 C189 1.041 . S
C1067 C92 0.975 . S
C1082 C427 1.079 . S
C1094 C106 1.043 . S
C1109 C120 1.044 . S
C1121 C21 1.056 . S
C1136 C259 1.028 . S
C1148 C134 0.989 . S
C1163 C49 1.044 . S
C1175 C148 1.026 . S
C1190 C162 1.080 . S
C1202 C231 1.082 . S
C1217 C105 1.042 . S
C1229 C176 1.011 . S
C1244 C287 1.056 . S
C1256 C190 1.043 . S
C1271 C77 1.083 . S
C1283 C204 1.080 . S
C1298 C218 1.004 . S
C1310 C315 1.031 . S
C1325 C357 1.080 . S
C1337 C232 1.047 . S
C1352 C147 1.004 . S
C1364 C246 0.975 . S
C1379 C385 1.028 . S
C1391 C260 1.038 . S
C1406 C274 1.063 . S
C1418 C119 1.047 . S
C1433 C441 1.038 . S
C1445 C288 0.972 . S
C1460 C175 1.016 . S
C1472 C302 1.017 . S
C1487 C413 1.063 . S
C1499 C316 1.006 . S
C1514 C330 0.958 . S
C1526 C203 1.023 . S
C1541 C344 1.040 . S
C1553 C245 1.061 . S
C1568 C35 1.062 . S
C1580 C358 1.041 . S
C1595 C372 1.043 . S
C1607 C273 1.062 . S
C1622 C386 1.071 . S
C1634 C7 1.078 . S
C1649 C400 1.030 . S
C1661 C329 1.047 . S
C1676 C63 1.008 . S
C1688 C414 0.961 . S
C1703 C301 1.009 . S
C1715 C428 0.962 . S
C1730 C442 1.066 . S
C1742 C91 1.071 . S
C1757 C11 1.252 . S
C1769 C67 1.241 . S
C1784 C25 1.239 . S
C1796 C81 1.251 . S
C1811 C95 1.252 . S
C1823 C39 1.241 . S
C1838 C109 1.276 . S
C1850 C53 1.265 . S
C1865 C179 1.247 . S
C1877 C123 1.273 . S
C1892 C193 1.255 . S
C1904 C137 1.277 . S
C1919 C207 1.238 . S
C1931 C151 1.260 . S
C1946 C221 1.249 . S
C1958 C165 1.238 . S
C1973 C235 1.265 . S
C1985 C291 1.276 . S
C2000 C249 1.237 . S
C2012 C305 1.244 . S
C2027 C263 1.253 . S
C2039 C319 1.241 . S
C2054 C333 1.278 . S
C2066 C277 1.269 . S
C2081 C347 1.275 . S
C2093 C403 1.250 . S
C2108 C417 1.266 . S
C2120 C361 1.278 . S
C2135 C431 1.278 . S
C2147 C375 1.256 . S
C2162 C445 1.267 . S
C2174 C389 1.278 . S
