# Generated by pormake.
# Topology wkf, (6)-cn, num edge types: 1
# Building blocks:
#     Node 0, Type 0, BuildingBlock: KUMBOL_clean_sbu_1, # of connection points: 6
#     Node 1, Type 0, BuildingBlock: KUMBOL_clean_sbu_1, # of connection points: 6
#     Node 2, Type 0, BuildingBlock: KUMBOL_clean_sbu_1, # of connection points: 6
#     Node 3, Type 0, BuildingBlock: KUMBOL_clean_sbu_1, # of connection points: 6
#     Node 4, Type 0, BuildingBlock: KUMBOL_clean_sbu_1, # of connection points: 6
#     Node 5, Type 0, BuildingBlock: KUMBOL_clean_sbu_1, # of connection points: 6
#     Node 6, Type 0, BuildingBlock: KUMBOL_clean_sbu_1, # of connection points: 6
#     Node 7, Type 0, BuildingBlock: KUMBOL_clean_sbu_1, # of connection points: 6
#     Node 8, Type 0, BuildingBlock: KUMBOL_clean_sbu_1, # of connection points: 6
#     Node 9, Type 0, BuildingBlock: KUMBOL_clean_sbu_1, # of connection points: 6
#     Node 10, Type 0, BuildingBlock: KUMBOL_clean_sbu_1, # of connection points: 6
#     Node 11, Type 0, BuildingBlock: KUMBOL_clean_sbu_1, # of connection points: 6
#     Edge 12, Type (0, 0), BuildingBlock: UVAHIK_clean_linker_0, # of connection points: 2
#     Edge 13, Type (0, 0), BuildingBlock: UVAHIK_clean_linker_0, # of connection points: 2
#     Edge 14, Type (0, 0), BuildingBlock: UVAHIK_clean_linker_0, # of connection points: 2
#     Edge 15, Type (0, 0), BuildingBlock: UVAHIK_clean_linker_0, # of connection points: 2
#     Edge 16, Type (0, 0), BuildingBlock: UVAHIK_clean_linker_0, # of connection points: 2
#     Edge 17, Type (0, 0), BuildingBlock: UVAHIK_clean_linker_0, # of connection points: 2
#     Edge 18, Type (0, 0), BuildingBlock: UVAHIK_clean_linker_0, # of connection points: 2
#     Edge 19, Type (0, 0), BuildingBlock: UVAHIK_clean_linker_0, # of connection points: 2
#     Edge 20, Type (0, 0), BuildingBlock: UVAHIK_clean_linker_0, # of connection points: 2
#     Edge 21, Type (0, 0), BuildingBlock: UVAHIK_clean_linker_0, # of connection points: 2
#     Edge 22, Type (0, 0), BuildingBlock: UVAHIK_clean_linker_0, # of connection points: 2
#     Edge 23, Type (0, 0), BuildingBlock: UVAHIK_clean_linker_0, # of connection points: 2
#     Edge 24, Type (0, 0), BuildingBlock: UVAHIK_clean_linker_0, # of connection points: 2
#     Edge 25, Type (0, 0), BuildingBlock: UVAHIK_clean_linker_0, # of connection points: 2
#     Edge 26, Type (0, 0), BuildingBlock: UVAHIK_clean_linker_0, # of connection points: 2
#     Edge 27, Type (0, 0), BuildingBlock: UVAHIK_clean_linker_0, # of connection points: 2
#     Edge 28, Type (0, 0), BuildingBlock: UVAHIK_clean_linker_0, # of connection points: 2
#     Edge 29, Type (0, 0), BuildingBlock: UVAHIK_clean_linker_0, # of connection points: 2
#     Edge 30, Type (0, 0), BuildingBlock: UVAHIK_clean_linker_0, # of connection points: 2
#     Edge 31, Type (0, 0), BuildingBlock: UVAHIK_clean_linker_0, # of connection points: 2
#     Edge 32, Type (0, 0), BuildingBlock: UVAHIK_clean_linker_0, # of connection points: 2
#     Edge 33, Type (0, 0), BuildingBlock: UVAHIK_clean_linker_0, # of connection points: 2
#     Edge 34, Type (0, 0), BuildingBlock: UVAHIK_clean_linker_0, # of connection points: 2
#     Edge 35, Type (0, 0), BuildingBlock: UVAHIK_clean_linker_0, # of connection points: 2
#     Edge 36, Type (0, 0), BuildingBlock: UVAHIK_clean_linker_0, # of connection points: 2
#     Edge 37, Type (0, 0), BuildingBlock: UVAHIK_clean_linker_0, # of connection points: 2
#     Edge 38, Type (0, 0), BuildingBlock: UVAHIK_clean_linker_0, # of connection points: 2
#     Edge 39, Type (0, 0), BuildingBlock: UVAHIK_clean_linker_0, # of connection points: 2
#     Edge 40, Type (0, 0), BuildingBlock: UVAHIK_clean_linker_0, # of connection points: 2
#     Edge 41, Type (0, 0), BuildingBlock: UVAHIK_clean_linker_0, # of connection points: 2
#     Edge 42, Type (0, 0), BuildingBlock: UVAHIK_clean_linker_0, # of connection points: 2
#     Edge 43, Type (0, 0), BuildingBlock: UVAHIK_clean_linker_0, # of connection points: 2
#     Edge 44, Type (0, 0), BuildingBlock: UVAHIK_clean_linker_0, # of connection points: 2
#     Edge 45, Type (0, 0), BuildingBlock: UVAHIK_clean_linker_0, # of connection points: 2
#     Edge 46, Type (0, 0), BuildingBlock: UVAHIK_clean_linker_0, # of connection points: 2
#     Edge 47, Type (0, 0), BuildingBlock: UVAHIK_clean_linker_0, # of connection points: 2
# Relax obj value: 0.192
# Max RMSD: 0.281
# Mean RMSD: 0.276
data_MOF--net-wkf--node1-KUMBOL_clean_sbu_1--edge1-UVAHIK_clean_linker_0
_symmetry_space_group_name_H-M    P1
_symmetry_Int_Tables_number       1
_symmetry_cell_setting            triclinic
loop_
_symmetry_equiv_pos_as_xyz
'x, y, z'
_cell_length_a     37.85251
_cell_length_b     37.73824
_cell_length_c     107.37945
_cell_angle_alpha  90.007925
_cell_angle_beta   90.023537
_cell_angle_gamma 119.82855
loop_
_atom_site_label
_atom_site_type_symbol
_atom_site_fract_x
_atom_site_fract_y
_atom_site_fract_z
_atom_type_partial_charge
C0 C 0.54943 0.96536 0.36324 0.0
C1 C 0.57311 0.98894 0.34231 0.0
C2 C 0.54942 0.98683 0.35277 0.0
C3 C 0.59672 0.96971 0.34262 0.0
C4 C 0.57227 0.94504 0.36346 0.0
C5 C 0.59617 0.94767 0.35315 0.0
N6 N 0.52548 0.96253 0.37298 0.0
C7 C 0.5223 0.9394 0.38316 0.0
C8 C 0.56976 0.92191 0.37395 0.0
C9 C 0.54447 0.91891 0.38382 0.0
Gd10 Gd 0.39751 0.96759 0.34902 0.0
Gd11 Gd 0.49003 0.99855 0.37163 0.0
N12 N 0.52504 1.00396 0.35258 0.0
C13 C 0.57192 1.00968 0.33171 0.0
C14 C 0.52269 1.02256 0.34193 0.0
C15 C 0.54653 0.02646 0.33153 0.0
H16 H 0.5019 0.03364 0.34101 0.0
H17 H 0.54462 0.04178 0.32325 0.0
H18 H 0.3474 1.01622 0.35784 0.0
H19 H 0.50197 0.93598 0.3907 0.0
H20 H 0.32852 0.06448 0.34886 0.0
H21 H 0.58977 1.01215 0.32353 0.0
H22 H 0.61501 0.97113 0.33467 0.0
H23 H 0.45619 0.95578 0.32656 0.0
H24 H 0.58667 0.90573 0.37444 0.0
H25 H 0.54176 0.90054 0.39189 0.0
H26 H 0.38785 0.09304 0.30812 0.0
H27 H 0.61396 0.93236 0.35317 0.0
H28 H 0.46567 0.03088 0.29583 0.0
H29 H 0.48118 0.98128 0.30579 0.0
N30 N 0.42831 0.99255 0.32936 0.0
C31 C 0.41781 1.01851 0.32375 0.0
C32 C 0.44964 0.97822 0.3228 0.0
C33 C 0.45482 1.02022 0.30518 0.0
C34 C 0.46372 0.99232 0.31078 0.0
C35 C 0.43121 0.03328 0.31157 0.0
H36 H 0.43032 0.07168 0.29671 0.0
N37 N 0.38116 1.01642 0.34193 0.0
C38 C 0.39323 0.03031 0.33012 0.0
C39 C 0.35877 0.06971 0.33142 0.0
C40 C 0.38237 0.05748 0.32458 0.0
C41 C 0.35825 0.02839 0.34867 0.0
C42 C 0.34688 0.05529 0.34353 0.0
O43 O 0.45835 0.93233 0.36613 0.0
O44 O 0.43682 0.93639 0.34662 0.0
O45 O 0.3312 0.93651 0.34802 0.0
O46 O 0.36348 0.92106 0.33477 0.0
O47 O 0.4984 0.0562 0.36194 0.0
O48 O 0.43994 0.03798 0.35027 0.0
O49 O 0.38718 0.99053 0.36776 0.0
O50 O 0.45154 0.0262 0.37683 0.0
O51 O 0.54727 0.0454 0.37978 0.0
O52 O 0.50054 0.99995 0.39145 0.0
O53 O 0.37876 0.92631 0.36621 0.0
O54 O 0.43117 0.9522 0.38092 0.0
C55 C 0.44925 0.91847 0.35474 0.0
C56 C 0.47553 0.06598 0.355 0.0
C57 C 0.3014 0.91672 0.32773 0.0
C58 C 0.25525 0.88504 0.30978 0.0
C59 C 0.26889 0.95103 0.31774 0.0
C60 C 0.29345 0.94925 0.32705 0.0
C61 C 0.25011 0.91945 0.30918 0.0
C62 C 0.28203 0.88428 0.31896 0.0
C63 C 0.32823 0.91617 0.33792 0.0
C64 C 0.39589 0.07217 0.31251 0.0
C65 C 0.42022 0.06012 0.30604 0.0
H66 H 0.34986 0.09053 0.32747 0.0
C67 C 0.41336 1.01707 0.37589 0.0
C68 C 0.39325 0.92655 0.37749 0.0
C69 C 0.534 0.06711 0.39903 0.0
C70 C 0.57035 0.1362 0.40747 0.0
C71 C 0.49843 0.09246 0.41191 0.0
C72 C 0.49811 0.06131 0.40484 0.0
C73 C 0.53427 0.12978 0.41321 0.0
C74 C 0.56992 0.10461 0.40039 0.0
C75 C 0.53372 0.03501 0.39109 0.0
H76 H 0.26378 0.9768 0.31731 0.0
H77 H 0.30557 0.97328 0.33383 0.0
H78 H 0.23094 0.92177 0.3021 0.0
H79 H 0.28668 0.85823 0.31953 0.0
H80 H 0.47081 0.08762 0.41642 0.0
H81 H 0.46965 0.03286 0.40389 0.0
H82 H 0.53388 0.15338 0.41886 0.0
H83 H 0.59735 0.1094 0.39572 0.0
C84 C 0.61808 0.55304 0.53155 0.0
C85 C 0.61584 0.58408 0.51205 0.0
C86 C 0.59534 0.5568 0.52199 0.0
C87 C 0.65854 0.60502 0.51149 0.0
C88 C 0.66112 0.5749 0.53113 0.0
C89 C 0.6811 0.60029 0.52097 0.0
N90 N 0.5983 0.52816 0.5413 0.0
C91 C 0.61959 0.52473 0.5511 0.0
C92 C 0.68299 0.57092 0.54102 0.0
C93 C 0.66212 0.54595 0.55108 0.0
Gd94 Gd 0.47248 0.40088 0.51685 0.0
Gd95 Gd 0.52677 0.49255 0.54062 0.0
N96 N 0.55371 0.5354 0.52261 0.0
C97 C 0.59306 0.5907 0.50311 0.0
C98 C 0.53182 0.54352 0.51399 0.0
C99 C 0.551 0.57096 0.50424 0.0
H100 H 0.49953 0.52961 0.51416 0.0
H101 H 0.53307 0.57644 0.49746 0.0
H102 H 0.37201 0.34607 0.51633 0.0
H103 H 0.6038 0.50421 0.55872 0.0
H104 H 0.31578 0.33107 0.50161 0.0
H105 H 0.60768 0.61158 0.49543 0.0
H106 H 0.67446 0.62559 0.50384 0.0
H107 H 0.55985 0.48623 0.50441 0.0
H108 H 0.71599 0.5871 0.54098 0.0
H109 H 0.67876 0.54255 0.55875 0.0
H110 H 0.38186 0.4216 0.46733 0.0
H111 H 0.71406 0.61703 0.52046 0.0
H112 H 0.52555 0.51102 0.46934 0.0
H113 H 0.57808 0.52326 0.48497 0.0
N114 N 0.49643 0.44842 0.50004 0.0
C115 C 0.46696 0.44129 0.4914 0.0
C116 C 0.53592 0.47801 0.49776 0.0
C117 C 0.51699 0.49329 0.47786 0.0
C118 C 0.54671 0.50019 0.48665 0.0
C119 C 0.47656 0.46388 0.48019 0.0
H120 H 0.45271 0.4735 0.46295 0.0
N121 N 0.41758 0.39014 0.50454 0.0
C122 C 0.42665 0.41143 0.49372 0.0
C123 C 0.35534 0.37476 0.48799 0.0
C124 C 0.39554 0.40426 0.48513 0.0
C125 C 0.3785 0.36193 0.50753 0.0
C126 C 0.34677 0.35362 0.49927 0.0
O127 O 0.56766 0.46727 0.53456 0.0
O128 O 0.5424 0.43033 0.51632 0.0
O129 O 0.4419 0.3346 0.51775 0.0
O130 O 0.47435 0.36418 0.50116 0.0
O131 O 0.47194 0.49241 0.53176 0.0
O132 O 0.43737 0.43621 0.5187 0.0
O133 O 0.43 0.38911 0.53356 0.0
O134 O 0.46406 0.445 0.54697 0.0
O135 O 0.52689 0.5455 0.54896 0.0
O136 O 0.54126 0.50732 0.56009 0.0
O137 O 0.49589 0.38382 0.53416 0.0
O138 O 0.51457 0.43346 0.54965 0.0
C139 C 0.57268 0.45155 0.52422 0.0
C140 C 0.44132 0.46951 0.52418 0.0
C141 C 0.41812 0.29565 0.49892 0.0
C142 C 0.396 0.24536 0.48175 0.0
C143 C 0.34679 0.24364 0.49669 0.0
C144 C 0.37766 0.27614 0.50321 0.0
C145 C 0.35575 0.22844 0.48608 0.0
C146 C 0.4272 0.27994 0.48807 0.0
C147 C 0.45091 0.32936 0.50648 0.0
C148 C 0.40533 0.42677 0.47404 0.0
C149 C 0.44568 0.45639 0.47157 0.0
H150 H 0.33067 0.36839 0.48162 0.0
C151 C 0.43249 0.40957 0.5439 0.0
C152 C 0.50599 0.39682 0.54576 0.0
C153 C 0.4992 0.52909 0.56926 0.0
C154 C 0.46095 0.55529 0.58043 0.0
C155 C 0.4437 0.48465 0.58308 0.0
C156 C 0.47446 0.49055 0.57477 0.0
C157 C 0.43684 0.51676 0.58588 0.0
C158 C 0.49227 0.56133 0.57215 0.0
C159 C 0.53106 0.53527 0.56018 0.0
H160 H 0.31575 0.22947 0.50005 0.0
H161 H 0.36967 0.28535 0.5118 0.0
H162 H 0.331 0.20271 0.48134 0.0
H163 H 0.45843 0.29337 0.48491 0.0
H164 H 0.42518 0.45514 0.58739 0.0
H165 H 0.47875 0.46487 0.57267 0.0
H166 H 0.41307 0.51167 0.59246 0.0
H167 H 0.51083 0.59088 0.5678 0.0
C168 C 0.07894 0.60173 0.69756 0.0
C169 C 0.04386 0.60107 0.67868 0.0
C170 C 0.05006 0.5799 0.68855 0.0
C171 C 0.06918 0.6435 0.67751 0.0
C172 C 0.10312 0.64469 0.69677 0.0
C173 C 0.09878 0.66528 0.68654 0.0
N174 N 0.08303 0.58107 0.70724 0.0
C175 C 0.10979 0.60154 0.71668 0.0
C176 C 0.13081 0.66576 0.70634 0.0
C177 C 0.13387 0.64409 0.7164 0.0
Gd178 Gd 0.0769 0.45577 0.6809 0.0
Gd179 Gd 0.04501 0.50929 0.70672 0.0
N180 N 1.02603 0.53868 0.68996 0.0
C181 C 1.0111 0.57944 0.67063 0.0
C182 C 0.99136 0.51881 0.68285 0.0
C183 C 0.98397 0.53848 0.67301 0.0
H184 H 0.9679 0.48822 0.68465 0.0
H185 H 0.95701 0.52196 0.6673 0.0
H186 H 0.04905 0.35698 0.68412 0.0
H187 H 0.11388 0.58501 0.72422 0.0
H188 H 1.00899 0.29242 0.67248 0.0
H189 H 1.00519 0.59455 0.663 0.0
H190 H 0.06516 0.65997 0.66988 0.0
H191 H 0.05476 0.52505 0.66704 0.0
H192 H 0.14993 0.69869 0.70605 0.0
H193 H 0.1554 0.66003 0.72382 0.0
H194 H 0.9571 0.33031 0.63726 0.0
H195 H 0.1175 0.69814 0.68567 0.0
H196 H 0.98179 0.46732 0.63514 0.0
H197 H 1.01923 0.52807 0.64849 0.0
N198 N 0.03854 0.46255 0.66456 0.0
C199 C 1.01848 0.42877 0.65713 0.0
C200 C 0.03894 0.4979 0.66148 0.0
C201 C 0.99765 0.46559 0.64331 0.0
C202 C 1.01864 0.4999 0.65086 0.0
C203 C 0.99715 0.42939 0.64642 0.0
H204 H 0.95937 0.39396 0.63092 0.0
N205 N 0.03763 0.39251 0.67109 0.0
C206 C 1.01805 0.39284 0.6605 0.0
C207 C 0.9924 0.32045 0.65785 0.0
C208 C 0.99513 0.35675 0.65354 0.0
C209 C 0.0338 0.35692 0.6756 0.0
C210 C 1.01143 0.32046 0.66899 0.0
O211 O 0.11093 0.54417 0.70018 0.0
O212 O 0.10346 0.52564 0.67986 0.0
O213 O 0.10768 0.42578 0.67209 0.0
O214 O 0.13276 0.49005 0.67014 0.0
O215 O 0.98834 0.45522 0.69796 0.0
O216 O 1.00713 0.42624 0.68204 0.0
O217 O 0.05427 0.41443 0.69835 0.0
O218 O 1.02232 0.44257 0.71014 0.0
O219 O 0.99717 0.51191 0.71747 0.0
O220 O 0.05103 0.52018 0.72657 0.0
O221 O 0.11324 0.46533 0.69896 0.0
O222 O 0.09381 0.49696 0.71411 0.0
C223 C 0.12327 0.55294 0.68862 0.0
C224 C 0.97901 0.42819 0.68883 0.0
C225 C 0.1382 0.45509 0.65252 0.0
C226 C 0.16997 0.44557 0.6336 0.0
C227 C 0.11326 0.45863 0.63194 0.0
C228 C 0.11264 0.46239 0.64478 0.0
C229 C 0.14122 0.44992 0.62641 0.0
C230 C 0.16746 0.44685 0.64685 0.0
C231 C 0.13455 0.45825 0.66631 0.0
C232 C 0.97459 0.35767 0.64277 0.0
C233 C 0.97575 0.3939 0.63919 0.0
H234 H 0.97497 0.29209 0.65278 0.0
C235 C 1.02932 0.41256 0.7074 0.0
C236 C 0.11609 0.48101 0.71026 0.0
C237 C 0.98965 0.47884 0.73684 0.0
C238 C 0.93038 0.44278 0.7503 0.0
C239 C 0.97804 0.41782 0.748 0.0
C240 C 1.00128 0.44968 0.73981 0.0
C241 C 0.94287 0.41442 0.75328 0.0
C242 C 0.95408 0.47508 0.74207 0.0
C243 C 1.014 0.51231 0.72805 0.0
H244 H 0.09248 0.46343 0.6262 0.0
H245 H 0.09257 0.47195 0.64864 0.0
H246 H 0.14099 0.44762 0.61635 0.0
H247 H 0.18878 0.44299 0.65261 0.0
H248 H 0.98733 0.39569 0.75027 0.0
H249 H 1.02836 0.45139 0.73582 0.0
H250 H 0.92558 0.3898 0.75976 0.0
H251 H 0.94456 0.49688 0.73955 0.0
C252 C 0.51237 0.08018 0.85794 0.0
C253 C 0.49959 0.05979 0.83625 0.0
C254 C 0.51952 0.06227 0.84765 0.0
C255 C 0.47093 0.07302 0.83559 0.0
C256 C 0.48547 0.09589 0.85703 0.0
C257 C 0.46396 0.0911 0.84595 0.0
N258 N 0.53444 0.08563 0.86845 0.0
C259 C 0.53278 0.10857 0.87809 0.0
C260 C 0.48214 0.11748 0.86713 0.0
C261 C 0.50636 0.12436 0.87763 0.0
Gd262 Gd 0.67406 0.09325 0.84981 0.0
Gd263 Gd 0.57403 0.05321 0.86891 0.0
N264 N 0.5486 0.05102 0.84841 0.0
C265 C 0.51047 0.04602 0.82565 0.0
C266 C 0.56146 0.04108 0.83775 0.0
C267 C 0.5422 0.03755 0.82636 0.0
H268 H 0.58736 0.03715 0.83771 0.0
H269 H 0.55244 0.02903 0.81806 0.0
H270 H 0.71343 0.19474 0.84838 0.0
H271 H 0.55219 0.11504 0.88616 0.0
H272 H 0.77686 0.25741 0.85465 0.0
H273 H 0.49598 0.04381 0.81675 0.0
H274 H 0.45516 0.07087 0.82695 0.0
H275 H 0.70193 1.02217 0.84591 0.0
H276 H 0.46197 0.13012 0.86674 0.0
H277 H 0.50497 0.14212 0.88533 0.0
H278 H 0.86199 0.20715 0.87079 0.0
H279 H 0.44288 0.10257 0.84515 0.0
H280 H 0.81929 0.06673 0.86262 0.0
H281 H 0.75905 1.01157 0.85193 0.0
N282 N 0.72864 0.08172 0.85377 0.0
C283 C 0.76239 0.11319 0.85894 0.0
C284 C 0.72798 0.04626 0.85066 0.0
C285 C 0.79411 0.07133 0.86014 0.0
C286 C 0.76024 0.04018 0.85405 0.0
C287 C 0.79603 0.10883 0.86233 0.0
H288 H 0.85712 0.13967 0.86999 0.0
N289 N 0.73326 0.15458 0.85514 0.0
C290 C 0.76491 0.15101 0.85959 0.0
C291 C 0.8051 0.22427 0.86193 0.0
C292 C 0.80143 0.18569 0.86335 0.0
C293 C 0.73798 0.19228 0.85269 0.0
C294 C 0.77372 0.22765 0.85622 0.0
O295 O 0.60139 0.11973 0.86408 0.0
O296 O 0.63247 0.12138 0.8456 0.0
O297 O 0.71887 0.12487 0.83536 0.0
O298 O 0.6583 0.0793 0.83002 0.0
O299 O 0.57214 0.99999 0.85835 0.0
O300 O 0.63483 1.02221 0.84863 0.0
O301 O 0.66774 0.04538 0.86424 0.0
O302 O 0.62088 0.04274 0.87866 0.0
O303 O 0.52355 0.99388 0.8747 0.0
O304 O 0.54227 0.0465 0.88622 0.0
O305 O 0.67802 0.13415 0.86614 0.0
O306 O 0.62942 0.09391 0.88067 0.0
C307 C 0.61513 0.13631 0.85314 0.0
C308 C 0.59793 0.99256 0.85212 0.0
C309 C 0.71402 0.09382 0.81606 0.0
C310 C 0.76294 0.11469 0.79864 0.0
C311 C 0.72878 0.04458 0.80639 0.0
C312 C 0.70804 0.05415 0.81533 0.0
C313 C 0.75604 0.07446 0.79817 0.0
C314 C 0.74131 0.12397 0.80762 0.0
C315 C 0.69496 0.10542 0.82616 0.0
C316 C 0.83393 0.18098 0.86764 0.0
C317 C 0.83118 0.14255 0.86717 0.0
H318 H 0.83274 0.25169 0.86467 0.0
C319 C 0.6493 0.03448 0.87517 0.0
C320 C 0.66488 0.12579 0.87775 0.0
C321 C 0.52634 0.98597 0.89645 0.0
C322 C 0.49973 0.92676 0.9101 0.0
C323 C 0.56677 0.98484 0.9139 0.0
C324 C 0.5622 1.00484 0.90364 0.0
C325 C 0.53583 0.94589 0.9171 0.0
C326 C 0.49525 0.94692 0.89971 0.0
C327 C 0.52136 1.00721 0.88566 0.0
H328 H 0.72398 1.01384 0.80588 0.0
H329 H 0.68778 0.03073 0.82177 0.0
H330 H 0.77155 0.06592 0.79135 0.0
H331 H 0.74661 0.15489 0.80831 0.0
H332 H 0.59414 0.99982 0.91949 0.0
H333 H 0.58659 0.03524 0.90144 0.0
H334 H 0.53961 0.93121 0.92526 0.0
H335 H 0.46757 0.93233 0.8942 0.0
C336 C 0.45444 0.50482 0.02946 0.0
C337 C 0.45397 0.48024 0.00861 0.0
C338 C 0.47571 0.5035 0.01912 0.0
C339 C 0.41121 0.45891 0.00866 0.0
C340 C 0.41141 0.48397 0.02945 0.0
C341 C 0.38999 0.46091 0.01903 0.0
N342 N 0.47572 0.52796 0.03933 0.0
C343 C 0.4561 0.53202 0.04944 0.0
C344 C 0.39111 0.48749 0.03986 0.0
C345 C 0.41359 0.51176 0.04988 0.0
Gd346 Gd 0.61031 0.65385 0.01599 0.0
Gd347 Gd 0.5469 0.56054 0.03828 0.0
N348 N 0.51728 0.52574 0.01918 0.0
C349 C 0.47571 0.47929 0.99826 0.0
C350 C 0.5382 0.52544 0.00883 0.0
C351 C 0.51797 0.50187 0.9984 0.0
H352 H 0.57038 0.54388 1.00811 0.0
H353 H 0.53513 0.50183 0.99034 0.0
H354 H 0.70911 0.70655 0.02407 0.0
H355 H 0.47322 0.55171 0.05709 0.0
H356 H 0.77564 0.72574 0.01475 0.0
H357 H 0.46018 0.46165 0.99006 0.0
H358 H 0.39424 0.44108 1.00065 0.0
H359 H 0.53885 0.5915 0.99419 0.0
H360 H 0.35815 0.47212 0.04016 0.0
H361 H 0.39821 0.51523 0.05788 0.0
H362 H 0.74306 0.66322 0.97442 0.0
H363 H 0.35699 0.44474 0.01887 0.0
H364 H 0.60304 0.58203 0.96313 0.0
H365 H 0.53853 0.56555 0.97351 0.0
N366 N 0.60361 0.62153 0.99651 0.0
C367 C 0.63968 0.63252 0.99065 0.0
C368 C 0.56771 0.59883 0.99023 0.0
C369 C 0.60365 0.59349 0.97243 0.0
C370 C 0.5672 0.58406 0.97827 0.0
C371 C 0.64048 0.61831 0.97853 0.0
H372 H 0.67893 0.61892 0.96348 0.0
N373 N 0.67499 0.67127 0.00844 0.0
C374 C 0.67622 0.65829 0.99672 0.0
C375 C 0.74987 0.6939 0.99755 0.0
C376 C 0.71385 0.66933 0.99097 0.0
C377 C 0.71005 0.69509 0.01494 0.0
C378 C 0.74794 0.70662 0.00961 0.0
O379 O 0.51472 0.59491 0.03307 0.0
O380 O 0.54005 0.61595 0.01357 0.0
O381 O 0.64531 0.72035 0.01492 0.0
O382 O 0.59751 0.6876 1.00173 0.0
O383 O 0.59693 0.55263 0.02886 0.0
O384 O 0.63717 0.6107 0.01699 0.0
O385 O 0.64548 0.66226 0.03436 0.0
O386 O 0.61224 0.59837 0.04387 0.0
O387 O 0.53558 0.50229 0.04603 0.0
O388 O 0.53582 0.54812 0.05796 0.0
O389 O 0.58975 0.67325 0.03346 0.0
O390 O 0.56146 0.61983 0.04787 0.0
C391 C 0.51003 0.60419 0.02171 0.0
C392 C 0.62946 0.57522 0.02187 0.0
C393 C 0.65534 0.74872 0.99436 0.0
C394 C 0.66664 0.78499 0.97433 0.0
C395 C 0.7229 0.78435 0.98501 0.0
C396 C 0.6972 0.76183 0.99474 0.0
C397 C 0.70779 0.79557 0.97486 0.0
C398 C 0.64023 0.76127 0.98413 0.0
C399 C 0.62815 0.7229 1.00471 0.0
C400 C 0.71445 0.655 0.97897 0.0
C401 C 0.67791 0.62964 0.97277 0.0
H402 H 0.77931 0.70295 0.99345 0.0
C403 C 0.64378 0.63522 0.04261 0.0
C404 C 0.57519 0.65837 0.04466 0.0
C405 C 0.56873 0.5138 0.06555 0.0
C406 C 0.60309 0.47788 0.07313 0.0
C407 C 0.62667 0.5478 0.07958 0.0
C408 C 0.59625 0.54847 0.07244 0.0
C409 C 0.63026 0.5128 0.07992 0.0
C410 C 0.57239 0.47869 0.06596 0.0
C411 C 0.53773 0.51486 0.05744 0.0
H412 H 0.75494 0.79365 0.98544 0.0
H413 H 0.7105 0.75519 1.00262 0.0
H414 H 0.72868 0.81371 0.96754 0.0
H415 H 0.60833 0.75263 0.98379 0.0
H416 H 0.64762 0.57459 0.08484 0.0
H417 H 0.59468 0.57634 0.07224 0.0
H418 H 0.65384 0.51286 0.08565 0.0
H419 H 0.55173 0.45223 0.06049 0.0
C420 C 0.94557 0.41748 0.19991 0.0
C421 C 0.98297 0.3983 0.18553 0.0
C422 C 0.97901 0.42852 0.19209 0.0
C423 C 0.95346 0.35698 0.18702 0.0
C424 C 0.91571 0.37595 0.20126 0.0
C425 C 0.91999 0.34586 0.19485 0.0
N426 N 0.94154 0.44725 0.20584 0.0
C427 C 0.9092 0.43742 0.21351 0.0
C428 C 0.88196 0.36585 0.20885 0.0
C429 C 0.87876 0.3967 0.21501 0.0
Gd430 Gd 0.95485 0.58004 0.18521 0.0
Gd431 Gd 0.99689 0.51331 0.20308 0.0
N432 N 1.0068 0.46879 0.19054 0.0
C433 C 1.01629 0.41054 0.17754 0.0
C434 C 0.03955 0.48097 0.18289 0.0
C435 C 0.04467 0.45203 0.17622 0.0
H436 H 0.06198 0.51291 0.182 0.0
H437 H 0.07062 0.46169 0.17011 0.0
H438 H 0.85381 0.52869 0.18835 0.0
H439 H 0.90691 0.46048 0.21874 0.0
H440 H 0.79954 0.53923 0.19737 0.0
H441 H 1.02036 0.38822 0.17233 0.0
H442 H 0.95603 0.33338 0.18204 0.0
H443 H 0.03359 0.67346 0.17976 0.0
H444 H 0.85825 0.33434 0.21003 0.0
H445 H 0.85302 0.38908 0.22102 0.0
H446 H 0.86941 0.68069 0.20942 0.0
H447 H 0.89726 0.31387 0.19577 0.0
H448 H 1.00895 0.76159 0.1967 0.0
H449 H 0.05549 0.74515 0.18508 0.0
N450 N 0.97621 0.64952 0.18869 0.0
C451 C 0.94959 0.65819 0.19446 0.0
C452 C 1.01327 0.68032 0.18487 0.0
C453 C 0.99939 0.73009 0.19445 0.0
C454 C 1.02569 0.72094 0.18787 0.0
C455 C 0.96042 0.6986 0.19761 0.0
H456 H 0.93941 0.73707 0.206 0.0
N457 N 0.90104 0.58902 0.19235 0.0
C458 C 0.91056 0.6267 0.1964 0.0
C459 C 0.84051 0.60217 0.20215 0.0
C460 C 0.88073 0.63439 0.20151 0.0
C461 C 0.86148 0.55817 0.19218 0.0
C462 C 0.83072 0.56408 0.19724 0.0
O463 O 0.96275 0.4915 0.18447 0.0
O464 O 0.91431 0.50977 0.18567 0.0
O465 O 0.92087 0.58954 0.17062 0.0
O466 O 0.96582 0.57254 0.16562 0.0
O467 O 0.04824 0.5639 0.19185 0.0
O468 O 1.02407 0.60327 0.18209 0.0
O469 O 0.99744 0.61746 0.20111 0.0
O470 O 1.0209 0.57705 0.21036 0.0
O471 O 0.05406 0.52087 0.2103 0.0
O472 O 0.9979 0.48425 0.22035 0.0
O473 O 0.91651 0.53221 0.1995 0.0
O474 O 0.9582 0.53152 0.21458 0.0
C475 C 0.92434 0.48168 0.18311 0.0
C476 C 0.05409 0.59583 0.1851 0.0
C477 C 0.95201 0.6132 0.15115 0.0
C478 C 0.93263 0.64256 0.13366 0.0
C479 C 1.00338 0.67365 0.1405 0.0
C480 C 0.99263 0.64417 0.14979 0.0
C481 C 0.97381 0.673 0.13255 0.0
C482 C 0.92207 0.61237 0.143 0.0
C483 C 0.93988 0.58341 0.16155 0.0
C484 C 0.89175 0.67419 0.20533 0.0
C485 C 0.93159 0.70629 0.20338 0.0
H486 H 0.81665 0.60674 0.20603 0.0
C487 C 1.01981 0.61122 0.20934 0.0
C488 C 0.92676 0.53503 0.21126 0.0
C489 C 0.0546 0.53041 0.23199 0.0
C490 C 0.10955 0.56525 0.24699 0.0
C491 C 0.05196 0.57677 0.24725 0.0
C492 C 0.03457 0.54975 0.23731 0.0
C493 C 0.08934 0.58462 0.25207 0.0
C494 C 0.09205 0.53824 0.23689 0.0
C495 C 0.03745 0.5042 0.22093 0.0
H496 H 0.03485 0.6974 0.13951 0.0
H497 H 1.01601 0.64585 0.15599 0.0
H498 H 0.98334 0.69628 0.12542 0.0
H499 H 0.8905 0.58893 0.14416 0.0
H500 H 0.03646 0.59172 0.2512 0.0
H501 H 1.0056 0.54435 0.23373 0.0
H502 H 0.10212 0.60529 0.2599 0.0
H503 H 0.10783 0.52384 0.23271 0.0
C504 C 0.11879 0.51224 0.48467 0.0
C505 C 0.08362 0.45525 0.49904 0.0
C506 C 0.08559 0.48844 0.4924 0.0
C507 C 0.115 0.44591 0.49774 0.0
C508 C 0.15047 0.50297 0.48348 0.0
C509 C 0.14828 0.46967 0.48999 0.0
N510 N 0.12061 0.54484 0.47858 0.0
C511 C 0.15226 0.568 0.47075 0.0
C512 C 0.18368 0.52765 0.47584 0.0
C513 C 0.18446 0.56015 0.46942 0.0
Gd514 Gd 0.10198 0.66023 0.49893 0.0
Gd515 Gd 0.06269 0.55172 0.48121 0.0
N516 N 0.05594 0.49852 0.49376 0.0
C517 C 0.05034 0.43267 0.50691 0.0
C518 C 1.02316 0.47641 0.50127 0.0
C519 C 1.01999 0.44329 0.50802 0.0
H520 H 0.99927 0.48404 0.50199 0.0
H521 H 0.99404 0.42582 0.51403 0.0
H522 H 0.20292 0.71214 0.49559 0.0
H523 H 0.15264 0.59185 0.4652 0.0
H524 H 0.25572 0.77759 0.48653 0.0
H525 H 0.04778 0.407 0.51218 0.0
H526 H 0.11401 0.42057 0.50279 0.0
H527 H 1.02126 0.67173 0.50449 0.0
H528 H 0.20869 0.52165 0.47476 0.0
H529 H 0.20964 0.57886 0.46329 0.0
H530 H 0.18207 0.84588 0.47489 0.0
H531 H 0.1724 0.46224 0.48918 0.0
H532 H 0.04234 0.7836 0.48777 0.0
H533 H 0.99724 0.72002 0.4993 0.0
N534 N 0.07848 0.70671 0.49559 0.0
C535 C 0.10428 0.74229 0.48984 0.0
C536 C 0.04098 0.69923 0.49943 0.0
C537 C 0.05286 0.76235 0.48997 0.0
C538 C 1.02735 0.72655 0.4965 0.0
C539 C 0.09221 0.77102 0.48676 0.0
H540 H 0.11143 0.83022 0.47845 0.0
N541 N 0.15443 0.72358 0.49177 0.0
C542 C 0.1437 0.75098 0.48781 0.0
C543 C 0.21325 0.79796 0.48194 0.0
C544 C 0.17265 0.78883 0.4827 0.0
C545 C 0.19433 0.73337 0.49183 0.0
C546 C 0.22425 0.7704 0.48675 0.0
O547 O 0.0934 0.56502 0.50034 0.0
O548 O 0.1425 0.63099 0.49851 0.0
O549 O 0.1348 0.70384 0.51361 0.0
O550 O 0.09241 0.64088 0.51841 0.0
O551 O 1.01115 0.5494 0.49263 0.0
O552 O 0.0339 0.61271 0.5024 0.0
O553 O 0.05815 0.653 0.48317 0.0
O554 O 0.03707 0.58984 0.47372 0.0
O555 O 1.00572 0.50134 0.47424 0.0
O556 O 0.0619 0.52034 0.46424 0.0
O557 O 0.14119 0.65185 0.48467 0.0
O558 O 0.09991 0.60878 0.46965 0.0
C559 C 0.13169 0.59341 0.50188 0.0
C560 C 1.00482 0.57481 0.49954 0.0
C561 C 0.10522 0.69313 0.53354 0.0
C562 C 0.12467 0.73827 0.55193 0.0
C563 C 0.05328 0.69611 0.54594 0.0
C564 C 0.06419 0.68061 0.53576 0.0
C565 C 0.08305 0.72452 0.55395 0.0
C566 C 0.13538 0.72197 0.54165 0.0
C567 C 0.1174 0.67772 0.52259 0.0
C568 C 0.16041 0.8168 0.47898 0.0
C569 C 0.1202 0.8079 0.48101 0.0
H570 H 0.23646 0.82668 0.47806 0.0
C571 C 0.03669 0.62436 0.47485 0.0
C572 C 0.13091 0.64408 0.47292 0.0
C573 C 1.00484 0.50833 0.45249 0.0
C574 C 0.9493 0.48646 0.43761 0.0
C575 C 1.00628 0.55578 0.43688 0.0
C576 C 1.02427 0.54724 0.44691 0.0
C577 C 0.96889 0.52562 0.43226 0.0
C578 C 0.96741 0.47807 0.4478 0.0
C579 C 1.02234 0.50047 0.4637 0.0
H580 H 1.02149 0.68607 0.54764 0.0
H581 H 0.04059 0.65897 0.52962 0.0
H582 H 0.07329 0.7354 0.56183 0.0
H583 H 0.16717 0.73224 0.53978 0.0
H584 H 1.02129 0.5859 0.43273 0.0
H585 H 0.05316 0.57129 0.45036 0.0
H586 H 0.95558 0.53274 0.42439 0.0
H587 H 0.95209 0.4483 0.45222 0.0
C588 C 0.6127 0.09987 0.65171 0.0
C589 C 0.63365 0.06511 0.66657 0.0
C590 C 0.60286 0.06717 0.65976 0.0
C591 C 0.67441 0.0959 0.66512 0.0
C592 C 0.65366 0.13102 0.65038 0.0
C593 C 0.68437 0.12872 0.65706 0.0
N594 N 0.58231 0.10178 0.64545 0.0
C595 C 0.59118 0.13299 0.63734 0.0
C596 C 0.66261 0.16384 0.64245 0.0
C597 C 0.63126 0.16472 0.63588 0.0
Gd598 Gd 0.44894 0.0851 0.66603 0.0
Gd599 Gd 0.51739 0.04458 0.64834 0.0
N600 N 0.56309 0.03824 0.6613 0.0
C601 C 0.62248 0.03241 0.67479 0.0
C602 C 0.55194 1.00602 0.66915 0.0
C603 C 0.58147 1.00275 0.67608 0.0
H604 H 0.52034 0.98271 0.67 0.0
H605 H 0.57263 0.97727 0.68236 0.0
H606 H 0.49813 0.18566 0.66025 0.0
H607 H 0.56796 0.13332 0.63167 0.0
H608 H 0.48562 0.23594 0.64922 0.0
H609 H 0.64526 0.0298 0.6802 0.0
H610 H 0.69845 0.09484 0.67029 0.0
H611 H 0.3574 1.00658 0.67301 0.0
H612 H 0.69365 0.18847 0.64127 0.0
H613 H 0.63804 0.18958 0.62953 0.0
H614 H 0.34374 0.15992 0.63832 0.0
H615 H 0.71593 0.15243 0.65615 0.0
H616 H 0.26651 0.024 0.65476 0.0
H617 H 0.28514 0.98169 0.66782 0.0
N618 N 0.37929 0.06149 0.66266 0.0
C619 C 0.36948 0.0859 0.65603 0.0
C620 C 0.34949 0.02511 0.6673 0.0
C621 C 0.29821 0.0349 0.65697 0.0
C622 C 0.30859 1.01098 0.66437 0.0
C623 C 0.32876 0.07327 0.65289 0.0
H624 H 0.28882 0.09055 0.64352 0.0
N625 N 0.43826 0.13616 0.65718 0.0
C626 C 0.40017 0.12462 0.65312 0.0
C627 C 0.4228 0.1925 0.64525 0.0
C628 C 0.39131 0.15228 0.64697 0.0
C629 C 0.46835 0.17605 0.65635 0.0
C630 C 0.46133 0.20462 0.65017 0.0
O631 O 0.53551 0.07617 0.6674 0.0
O632 O 0.51862 0.12553 0.66585 0.0
O633 O 0.43826 0.12036 0.67994 0.0
O634 O 0.45729 0.07756 0.68581 0.0
O635 O 0.46667 0.99289 0.65932 0.0
O636 O 0.42839 1.01684 0.66988 0.0
O637 O 0.41139 0.03764 0.65114 0.0
O638 O 0.45515 1.02212 0.64011 0.0
O639 O 0.51032 0.98651 0.64212 0.0
O640 O 0.54767 0.04161 0.63158 0.0
O641 O 0.4976 0.12276 0.65189 0.0
O642 O 0.49858 0.08225 0.63653 0.0
C643 C 0.54562 0.1147 0.66893 0.0
C644 C 0.43578 0.98702 0.66652 0.0
C645 C 0.41721 0.09263 0.7 0.0
C646 C 0.39096 0.11405 0.7178 0.0
C647 C 0.35875 0.04236 0.71162 0.0
C648 C 0.38658 0.05208 0.70191 0.0
C649 C 0.36083 0.07288 0.71948 0.0
C650 C 0.41937 0.12356 0.708 0.0
C651 C 0.4458 0.10353 0.68936 0.0
C652 C 0.35114 0.13929 0.64319 0.0
C653 C 0.31987 0.09981 0.64616 0.0
H654 H 0.41734 0.21472 0.64053 0.0
C655 C 0.41931 1.01895 0.64204 0.0
C656 C 0.49438 0.11315 0.64007 0.0
C657 C 0.50256 0.98272 0.62034 0.0
C658 C 0.46119 0.9216 0.60798 0.0
C659 C 0.46271 0.98501 0.60289 0.0
C660 C 0.4894 1.00443 0.61278 0.0
C661 C 0.44861 0.94379 0.60048 0.0
C662 C 0.48838 0.9414 0.61788 0.0
C663 C 0.52777 1.00187 0.63147 0.0
H664 H 0.3353 1.01093 0.71305 0.0
H665 H 0.38403 0.02794 0.69586 0.0
H666 H 0.33897 0.06405 0.72699 0.0
H667 H 0.4426 0.15503 0.7064 0.0
H668 H 0.45252 1.00183 0.59718 0.0
H669 H 0.49909 0.03619 0.61462 0.0
H670 H 0.42746 0.92913 0.59287 0.0
H671 H 0.49851 0.9247 0.6237 0.0
C672 C 0.55316 0.61136 0.81816 0.0
C673 C 0.57813 0.61221 0.83898 0.0
C674 C 0.55436 0.59025 0.82857 0.0
C675 C 0.60086 0.65505 0.83864 0.0
C676 C 0.57501 0.65451 0.81794 0.0
C677 C 0.59919 0.67615 0.82817 0.0
N678 N 0.52868 0.58988 0.80854 0.0
C679 C 0.524 0.60948 0.79852 0.0
C680 C 0.57108 0.67475 0.80758 0.0
C681 C 0.54524 0.65211 0.79786 0.0
Gd682 Gd 0.4052 0.45574 0.83307 0.0
Gd683 Gd 0.49565 0.51843 0.80981 0.0
N684 N 0.53068 0.5487 0.82881 0.0
C685 C 0.57769 0.59065 0.84958 0.0
C686 C 0.52889 0.52815 0.83948 0.0
C687 C 0.55281 0.54847 0.84984 0.0
H688 H 0.50842 0.49635 0.84048 0.0
H689 H 0.55133 0.53154 0.85815 0.0
H690 H 0.35758 0.35566 0.82538 0.0
H691 H 0.5032 0.59232 0.7911 0.0
H692 H 0.34462 0.29091 0.83467 0.0
H693 H 0.59559 0.60634 0.85772 0.0
H694 H 0.61921 0.6722 0.84655 0.0
H695 H 0.46027 0.52897 0.85533 0.0
H696 H 0.58718 0.70781 0.80711 0.0
H697 H 0.54134 0.66747 0.78991 0.0
H698 H 0.40693 0.32813 0.8749 0.0
H699 H 0.61619 0.70925 0.82815 0.0
H700 H 0.47723 0.46904 0.88627 0.0
H701 H 0.48755 0.53192 0.87598 0.0
N702 N 0.43652 0.46476 0.85284 0.0
C703 C 0.42859 0.42938 0.85869 0.0
C704 C 0.45619 0.50101 0.85919 0.0
C705 C 0.46543 0.46738 0.87696 0.0
C706 C 0.47144 0.50292 0.87117 0.0
C707 C 0.44337 0.42998 0.87083 0.0
H708 H 0.44657 0.39338 0.88587 0.0
N709 N 0.39194 0.39207 0.84084 0.0
C710 C 0.40536 0.39214 0.8526 0.0
C711 C 0.37572 0.31866 0.85178 0.0
C712 C 0.39763 0.3553 0.85835 0.0
C713 C 0.37013 0.35623 0.83443 0.0
C714 C 0.36199 0.31916 0.83977 0.0
O715 O 0.4612 0.55037 0.81515 0.0
O716 O 0.44357 0.52666 0.83494 0.0
O717 O 0.33893 0.42018 0.83349 0.0
O718 O 0.36981 0.46482 0.8477 0.0
O719 O 0.50568 0.46954 0.81916 0.0
O720 O 0.44991 0.43056 0.83203 0.0
O721 O 0.39603 0.41889 0.81501 0.0
O722 O 0.4583 0.45241 0.80473 0.0
O723 O 0.5528 0.52925 0.80147 0.0
O724 O 0.50632 0.52959 0.79007 0.0
O725 O 0.3847 0.47684 0.81589 0.0
O726 O 0.43504 0.49973 0.80057 0.0
C727 C 0.45433 0.55635 0.82666 0.0
C728 C 0.4846 0.43797 0.82668 0.0
C729 C 0.30704 0.40559 0.85356 0.0
C730 C 0.26036 0.38801 0.87153 0.0
C731 C 0.26941 0.33566 0.86123 0.0
C732 C 0.29617 0.36423 0.85274 0.0
C733 C 0.25163 0.34733 0.8705 0.0
C734 C 0.28899 0.41752 0.86314 0.0
C735 C 0.33497 0.43515 0.84397 0.0
C736 C 0.41261 0.35612 0.87036 0.0
C737 C 0.43534 0.39331 0.87658 0.0
H738 H 0.3693 0.28983 0.85588 0.0
C739 C 0.42212 0.42035 0.80648 0.0
C740 C 0.39736 0.48743 0.80426 0.0
C741 C 0.53947 0.49638 0.78179 0.0
C742 C 0.5712 0.45726 0.77478 0.0
C743 C 0.5054 0.44202 0.76651 0.0
C744 C 0.50623 0.47295 0.77383 0.0
C745 C 0.53761 0.43409 0.76698 0.0
C746 C 0.57183 0.48835 0.78217 0.0
C747 C 0.53937 0.5274 0.79019 0.0
H748 H 0.26175 0.30403 0.86046 0.0
H749 H 0.30755 0.35343 0.84535 0.0
H750 H 0.23045 0.3242 0.87686 0.0
H751 H 0.29602 0.44901 0.86377 0.0
H752 H 0.47962 0.42404 0.76048 0.0
H753 H 0.4805 0.47801 0.77334 0.0
H754 H 0.53651 0.41028 0.76107 0.0
H755 H 0.59718 0.50586 0.78841 0.0
C756 C 0.97789 0.54515 0.98934 0.0
C757 C 1.00305 0.569 0.01015 0.0
C758 C 1.00003 0.54512 0.99961 0.0
C759 C 0.98414 0.59293 0.01009 0.0
C760 C 0.95771 0.56816 0.98941 0.0
C761 C 0.96137 0.59236 0.99977 0.0
N762 N 0.97415 0.52095 0.97954 0.0
C763 C 0.94985 0.51742 0.96965 0.0
C764 C 0.9336 0.56543 0.97918 0.0
C765 C 0.92944 0.53971 0.96929 0.0
Gd766 Gd 0.9799 0.39223 1.00281 0.0
Gd767 Gd 1.01033 0.48539 0.98036 0.0
N768 N 1.01679 0.52039 0.99955 0.0
C769 C 1.02427 0.56758 0.02058 0.0
C770 C 0.03566 0.51767 0.01008 0.0
C771 C 0.04048 0.54168 0.02055 0.0
H772 H 0.04622 0.49641 0.01088 0.0
H773 H 0.05605 0.53948 0.02872 0.0
H774 H 1.02733 0.34098 0.99402 0.0
H775 H 0.94532 0.49664 0.9621 0.0
H776 H 0.07563 0.3221 1.00289 0.0
H777 H 1.02743 0.58556 0.02881 0.0
H778 H 0.98629 0.61138 0.0181 0.0
H779 H 0.96802 0.4506 0.02545 0.0
H780 H 0.91748 0.58243 0.97893 0.0
H781 H 0.9102 0.53671 0.96144 0.0
H782 H 0.10601 0.38305 0.04346 0.0
H783 H 0.94622 0.61031 0.99997 0.0
H784 H 0.04412 0.461 0.05593 0.0
H785 H 0.99403 0.476 0.04615 0.0
N786 N 1.00501 0.42306 0.02248 0.0
C787 C 0.03117 0.41276 0.02802 0.0
C788 C 0.99068 0.4443 0.02912 0.0
C789 C 0.03324 0.44999 0.04661 0.0
C790 C 1.00506 0.4586 0.04111 0.0
C791 C 0.04623 0.42638 0.04016 0.0
H792 H 0.08504 0.42584 0.05492 0.0
N793 N 1.02843 0.37556 0.00987 0.0
C794 C 0.04276 0.38801 0.02162 0.0
C795 C 0.08179 0.35319 0.02026 0.0
C796 C 0.06999 0.37718 0.0271 0.0
C797 C 0.03989 0.35217 1.00314 0.0
C798 C 0.06682 0.34081 1.00822 0.0
O799 O 0.94439 0.45288 0.98582 0.0
O800 O 0.94922 0.43202 1.00533 0.0
O801 O 0.94891 0.32569 1.00383 0.0
O802 O 0.93323 0.3582 0.01697 0.0
O803 O 0.06805 0.49341 0.98982 0.0
O804 O 0.05 0.43465 1.00142 0.0
O805 O 1.00326 0.38217 0.98407 0.0
O806 O 0.03743 0.44661 0.97487 0.0
O807 O 0.05825 0.54153 0.97188 0.0
O808 O 1.00914 0.4969 0.96072 0.0
O809 O 0.93847 0.3736 0.9857 0.0
O810 O 0.96511 0.42613 0.97102 0.0
C811 C 0.93082 0.44389 0.99721 0.0
C812 C 0.07786 0.47029 0.99666 0.0
C813 C 0.9283 0.29582 0.02409 0.0
C814 C 0.89539 0.24893 0.04182 0.0
C815 C 0.96219 0.26363 0.03454 0.0
C816 C 0.96104 0.28841 0.02517 0.0
C817 C 0.92987 0.24419 0.04279 0.0
C818 C 0.89517 0.27583 0.03256 0.0
C819 C 0.92831 0.32279 0.01385 0.0
C820 C 0.08507 0.39104 0.03912 0.0
C821 C 0.07324 0.41555 0.04562 0.0
H822 H 0.10263 0.34429 0.02417 0.0
C823 C 1.02923 0.40858 0.97586 0.0
C824 C 0.9393 0.38815 0.9744 0.0
C825 C 0.0743 0.52541 0.9521 0.0
C826 C 0.14104 0.55679 0.94226 0.0
C827 C 0.09284 0.48507 0.93874 0.0
C828 C 0.0647 0.48794 0.94643 0.0
C829 C 0.13096 0.51921 0.9367 0.0
C830 C 0.1125 0.55963 0.94996 0.0
C831 C 0.04536 0.52837 0.96066 0.0
H832 H 0.98807 0.2589 0.03527 0.0
H833 H 0.98573 0.30116 0.01865 0.0
H834 H 0.9317 0.22487 0.04993 0.0
H835 H 0.86903 0.28013 0.0317 0.0
H836 H 0.08506 0.45628 0.93436 0.0
H837 H 0.03557 0.46068 0.94797 0.0
H838 H 0.15227 0.51639 0.93062 0.0
H839 H 0.12022 0.58831 0.95447 0.0
C840 C 0.42617 0.93754 0.15019 0.0
C841 C 0.40707 0.97557 0.16437 0.0
C842 C 0.4372 0.9713 0.15792 0.0
C843 C 0.36586 0.94602 0.16286 0.0
C844 C 0.38474 0.90765 0.14882 0.0
C845 C 0.35475 0.91223 0.15512 0.0
N846 N 0.45584 0.93322 0.14437 0.0
C847 C 0.44602 0.90057 0.13679 0.0
C848 C 0.37465 0.87359 0.14132 0.0
C849 C 0.4054 0.87012 0.13526 0.0
Gd850 Gd 0.58753 0.94579 0.16525 0.0
Gd851 Gd 0.52179 0.98855 0.14718 0.0
N852 N 0.47735 0.99912 0.15949 0.0
C853 C 0.41929 1.00923 0.17227 0.0
C854 C 0.48952 0.0322 0.16705 0.0
C855 C 0.46066 0.03764 0.17361 0.0
H856 H 0.52137 0.05465 0.16796 0.0
H857 H 0.47032 0.06385 0.17964 0.0
H858 H 0.53577 0.84444 0.16212 0.0
H859 H 0.46902 0.89805 0.13164 0.0
H860 H 0.54592 0.78965 0.1532 0.0
H861 H 0.39704 1.01354 0.17738 0.0
H862 H 0.34234 0.94883 0.16775 0.0
H863 H 0.68086 0.02438 0.17077 0.0
H864 H 0.34321 0.84986 0.14012 0.0
H865 H 0.39779 0.84413 0.12931 0.0
H866 H 0.68706 0.85883 0.14132 0.0
H867 H 0.32284 0.88948 0.15419 0.0
H868 H 0.76836 0.99878 0.15402 0.0
H869 H 0.75229 0.04583 0.16556 0.0
N870 N 0.65673 0.96675 0.16186 0.0
C871 C 0.66519 0.93984 0.15614 0.0
C872 C 0.68757 1.00384 0.1657 0.0
C873 C 0.73699 0.98941 0.15622 0.0
C874 C 0.72804 1.01601 0.16276 0.0
C875 C 0.70544 0.95041 0.15305 0.0
H876 H 0.74357 0.92889 0.14476 0.0
N877 N 0.5961 0.8915 0.15819 0.0
C878 C 0.63363 0.90077 0.15419 0.0
C879 C 0.60879 0.83039 0.14848 0.0
C880 C 0.64109 0.87064 0.14913 0.0
C881 C 0.56515 0.85191 0.15834 0.0
C882 C 0.57083 0.82085 0.15334 0.0
O883 O 0.49949 0.95439 0.16578 0.0
O884 O 0.51743 0.90553 0.16472 0.0
O885 O 0.59653 0.9115 0.17987 0.0
O886 O 0.58013 0.95702 0.18482 0.0
O887 O 0.57204 0.03981 0.15855 0.0
O888 O 0.61102 1.0153 0.16836 0.0
O889 O 0.62521 0.98832 0.14937 0.0
O890 O 0.58557 1.01265 0.14014 0.0
O891 O 0.52974 0.04591 0.13983 0.0
O892 O 0.49351 0.98954 0.12975 0.0
O893 O 0.53999 0.90754 0.15089 0.0
O894 O 0.53997 0.94958 0.13579 0.0
C895 C 0.48952 0.91582 0.16719 0.0
C896 C 0.60377 0.04552 0.16534 0.0
C897 C 0.62043 0.94288 0.19931 0.0
C898 C 0.64972 0.92327 0.21676 0.0
C899 C 0.68088 0.99426 0.20995 0.0
C900 C 0.65142 0.98359 0.20068 0.0
C901 C 0.68017 0.96453 0.21788 0.0
C902 C 0.61955 0.91279 0.20744 0.0
C903 C 0.59068 0.93082 0.18892 0.0
C904 C 0.68074 0.8814 0.14537 0.0
C905 C 0.71291 0.92128 0.14733 0.0
H906 H 0.61319 0.8063 0.14465 0.0
C907 C 0.61943 1.01116 0.14119 0.0
C908 C 0.54321 0.91793 0.13913 0.0
C909 C 0.54046 0.04621 0.11821 0.0
C910 C 0.57706 0.10151 0.10341 0.0
C911 C 0.58748 0.04309 0.10338 0.0
C912 C 0.55961 0.0257 0.11309 0.0
C913 C 0.59637 0.08092 0.09857 0.0
C914 C 0.54924 0.08406 0.11331 0.0
C915 C 0.51365 0.02921 0.12915 0.0
H916 H 0.70464 0.02579 0.21095 0.0
H917 H 0.65314 1.00708 0.1945 0.0
H918 H 0.70344 0.97399 0.22499 0.0
H919 H 0.5961 0.88116 0.20627 0.0
H920 H 0.60233 0.02725 0.0996 0.0
H921 H 0.55345 0.99639 0.11665 0.0
H922 H 0.61781 0.09375 0.09095 0.0
H923 H 0.53494 0.10017 0.11732 0.0
C924 C 0.51269 0.44371 0.32112 0.0
C925 C 0.48962 0.44397 0.34212 0.0
C926 C 0.5123 0.46538 0.33149 0.0
C927 C 0.46747 0.40109 0.34207 0.0
C928 C 0.4913 0.40056 0.32116 0.0
C929 C 0.46845 0.37944 0.33164 0.0
N930 N 0.53574 0.46472 0.31122 0.0
C931 C 0.53937 0.44466 0.30113 0.0
C932 C 0.49424 0.37982 0.31077 0.0
C933 C 0.51857 0.402 0.30073 0.0
Gd934 Gd 0.66241 0.60079 0.33417 0.0
Gd935 Gd 0.56889 0.53618 0.31215 0.0
N936 N 0.53537 0.50699 0.33142 0.0
C937 C 0.49035 0.46614 0.3526 0.0
C938 C 0.53721 0.52825 0.34195 0.0
C939 C 0.51429 0.50843 0.35251 0.0
H940 H 0.55695 0.56035 0.34267 0.0
H941 H 0.5158 0.52588 0.36069 0.0
H942 H 0.71231 0.69948 0.32529 0.0
H943 H 0.55906 0.46152 0.29347 0.0
H944 H 0.73033 0.76648 0.33411 0.0
H945 H 0.47323 0.45087 0.3609 0.0
H946 H 0.45001 0.38435 0.35016 0.0
H947 H 0.60545 0.53081 0.35694 0.0
H948 H 0.47845 0.34674 0.31049 0.0
H949 H 0.52165 0.38628 0.29274 0.0
H950 H 0.6715 0.73618 0.37491 0.0
H951 H 0.45182 0.34634 0.33183 0.0
H952 H 0.59565 0.59661 0.38756 0.0
H953 H 0.58086 0.53154 0.37774 0.0
N954 N 0.63238 0.59524 0.35396 0.0
C955 C 0.64258 0.6317 0.3595 0.0
C956 C 0.61167 0.55976 0.36062 0.0
C957 C 0.60633 0.59668 0.37819 0.0
C958 C 0.59784 0.55991 0.37267 0.0
C959 C 0.62936 0.6332 0.3717 0.0
H960 H 0.62996 0.67258 0.38649 0.0
N961 N 0.67873 0.666 0.34124 0.0
C962 C 0.66669 0.66795 0.35304 0.0
C963 C 0.70031 0.74167 0.3516 0.0
C964 C 0.67716 0.70597 0.35851 0.0
C965 C 0.70128 0.70078 0.33444 0.0
C966 C 0.71224 0.73902 0.3395 0.0
O967 O 0.60337 0.50423 0.3174 0.0
O968 O 0.62412 0.5303 0.33684 0.0
O969 O 0.72875 0.63649 0.33485 0.0
O970 O 0.69744 0.58905 0.34826 0.0
O971 O 0.55998 0.58557 0.32171 0.0
O972 O 0.61855 0.62692 0.33322 0.0
O973 O 0.6701 0.63479 0.31561 0.0
O974 O 0.60566 0.60184 0.30659 0.0
O975 O 0.51072 0.52447 0.30436 0.0
O976 O 0.55652 0.52474 0.29248 0.0
O977 O 0.68117 0.57909 0.31683 0.0
O978 O 0.62788 0.55092 0.30243 0.0
C979 C 0.61253 0.49986 0.3288 0.0
C980 C 0.58265 0.61856 0.32857 0.0
C981 C 0.75932 0.64725 0.35506 0.0
C982 C 0.80502 0.66192 0.37315 0.0
C983 C 0.79201 0.71434 0.36484 0.0
C984 C 0.7676 0.68785 0.35555 0.0
C985 C 0.81036 0.70156 0.37358 0.0
C986 C 0.77834 0.63425 0.36399 0.0
C987 C 0.73236 0.61956 0.34496 0.0
C988 C 0.66374 0.70727 0.37058 0.0
C989 C 0.63995 0.67102 0.37715 0.0
H990 H 0.70891 0.77138 0.35548 0.0
C991 C 0.64261 0.63327 0.30761 0.0
C992 C 0.66628 0.56451 0.30563 0.0
C993 C 0.52211 0.5574 0.2848 0.0
C994 C 0.48581 0.591 0.27693 0.0
C995 C 0.55606 0.61583 0.27089 0.0
C996 C 0.55688 0.5855 0.27809 0.0
C997 C 0.52081 0.61875 0.27033 0.0
C998 C 0.48674 0.56037 0.28415 0.0
C999 C 0.52327 0.5265 0.29296 0.0
H1000 H 0.79732 0.74529 0.36514 0.0
H1001 H 0.7558 0.69971 0.34863 0.0
H1002 H 0.82938 0.72316 0.38064 0.0
H1003 H 0.77346 0.60346 0.36356 0.0
H1004 H 0.58292 0.63723 0.26578 0.0
H1005 H 0.58495 0.58447 0.27848 0.0
H1006 H 0.52076 0.6423 0.26458 0.0
H1007 H 0.46019 0.53926 0.28947 0.0
C1008 C 0.08385 0.64737 0.2218 0.0
C1009 C 0.04641 0.64387 0.2183 0.0
C1010 C 0.10722 0.67344 0.23146 0.0
C1011 C 0.11822 0.75894 0.25212 0.0
H1012 H 0.18079 0.72491 0.27248 0.0
C1013 C 0.18976 0.83852 0.29871 0.0
C1014 C 0.23099 0.85065 0.30087 0.0
C1015 C 0.16798 0.81214 0.28892 0.0
C1016 C 0.1638 0.73507 0.26684 0.0
H1017 H 1.00457 0.66586 0.2221 0.0
H1018 H 0.04477 0.71088 0.23924 0.0
H1019 H 0.14125 0.6828 0.25494 0.0
H1020 H 0.28067 0.84203 0.29476 0.0
H1021 H 0.24208 0.79474 0.27771 0.0
H1022 H 0.13999 0.81065 0.26432 0.0
C1023 C 0.0567 0.69405 0.23434 0.0
C1024 C 0.14108 0.71094 0.25668 0.0
C1025 C 0.03349 0.66823 0.22448 0.0
C1026 C 0.24901 0.83328 0.29341 0.0
C1027 C 0.22691 0.80636 0.2836 0.0
C1028 C 0.14048 0.78273 0.26237 0.0
C1029 C 0.09373 0.69658 0.23814 0.0
C1030 C 0.1179 0.72245 0.2491 0.0
C1031 C 0.18643 0.79646 0.281 0.0
C1032 C 0.16356 0.77116 0.2699 0.0
H1033 H 0.09487 0.6292 0.21718 0.0
H1034 H 0.13585 0.67504 0.23372 0.0
H1035 H 0.10168 0.76962 0.24649 0.0
H1036 H 0.17454 0.85059 0.30439 0.0
H1037 H 0.13665 0.80446 0.28744 0.0
C1038 C 0.38516 0.18168 0.47091 0.0
C1039 C 0.40382 0.22461 0.47102 0.0
C1040 C 0.38625 0.16063 0.46031 0.0
C1041 C 0.43816 0.17098 0.42996 0.0
H1042 H 0.33737 0.07235 0.42179 0.0
C1043 C 0.42293 0.0827 0.38426 0.0
C1044 C 0.40146 0.03978 0.38464 0.0
C1045 C 0.42115 0.10586 0.3942 0.0
C1046 C 0.36597 0.0995 0.42395 0.0
H1047 H 0.44015 0.27905 0.46009 0.0
H1048 H 0.44249 0.24221 0.44148 0.0
H1049 H 0.34083 0.11172 0.44017 0.0
H1050 H 0.36141 0.98745 0.39582 0.0
H1051 H 0.358 0.02762 0.41326 0.0
H1052 H 0.46353 0.15849 0.41384 0.0
C1053 C 0.42679 0.22483 0.44968 0.0
C1054 C 0.36798 0.12225 0.43455 0.0
C1055 C 0.42562 0.24605 0.46037 0.0
C1056 C 0.37708 1.02045 0.39507 0.0
C1057 C 0.3755 0.04367 0.40511 0.0
C1058 C 0.43622 0.1481 0.41937 0.0
C1059 C 0.40616 0.18167 0.44939 0.0
C1060 C 0.40415 0.15825 0.4378 0.0
C1061 C 0.39835 0.08684 0.40498 0.0
C1062 C 0.40009 0.11185 0.41618 0.0
H1063 H 0.36868 0.1641 0.479 0.0
H1064 H 0.37101 0.12759 0.46065 0.0
H1065 H 0.46669 0.19816 0.43217 0.0
H1066 H 0.44271 0.09846 0.37646 0.0
H1067 H 0.43859 0.13883 0.39352 0.0
C1068 C 0.22065 0.46685 0.61616 0.0
C1069 C 0.20273 0.44203 0.62669 0.0
C1070 C 0.24575 0.46019 0.60809 0.0
C1071 C 0.27549 0.3816 0.59923 0.0
H1072 H 0.34944 0.46962 0.57759 0.0
C1073 C 0.39702 0.38154 0.56425 0.0
C1074 C 0.39674 0.39624 0.55223 0.0
C1075 C 0.371 0.38159 0.57362 0.0
C1076 C 0.32886 0.44463 0.58354 0.0
H1077 H 0.19993 0.39205 0.63734 0.0
H1078 H 0.24592 0.38163 0.6236 0.0
H1079 H 0.31506 0.48366 0.59427 0.0
H1080 H 0.36849 0.42198 0.54064 0.0
H1081 H 0.32419 0.42335 0.55699 0.0
H1082 H 0.29208 0.3434 0.58868 0.0
C1083 C 0.23905 0.40545 0.62128 0.0
C1084 C 0.30855 0.45251 0.59312 0.0
C1085 C 0.2131 0.41181 0.62934 0.0
C1086 C 0.36884 0.4096 0.54969 0.0
C1087 C 0.34373 0.41078 0.55911 0.0
C1088 C 0.29698 0.37404 0.58983 0.0
C1089 C 0.25522 0.42905 0.61033 0.0
C1090 C 0.28047 0.42099 0.60098 0.0
C1091 C 0.34527 0.39786 0.5713 0.0
C1092 C 0.32327 0.40533 0.58169 0.0
H1093 H 0.214 0.49087 0.61384 0.0
H1094 H 0.2563 0.47884 0.5998 0.0
H1095 H 0.25417 0.35617 0.60487 0.0
H1096 H 0.41909 0.37232 0.56661 0.0
H1097 H 0.3732 0.37173 0.58292 0.0
C1098 C 0.96252 0.36292 0.71656 0.0
C1099 C 1.00369 0.37447 0.7147 0.0
C1100 C 0.93861 0.33357 0.72539 0.0
C1101 C 0.92877 0.24964 0.74576 0.0
H1102 H 0.86075 0.27902 0.76515 0.0
C1103 C 0.83058 0.14876 0.7873 0.0
C1104 C 0.79289 0.14634 0.7898 0.0
C1105 C 0.85783 0.17662 0.77853 0.0
C1106 C 0.87888 0.26968 0.75977 0.0
H1107 H 0.05165 0.36293 0.72063 0.0
H1108 H 1.00935 0.31058 0.73619 0.0
H1109 H 0.90433 0.32453 0.74897 0.0
H1110 H 0.75467 0.17183 0.7849 0.0
H1111 H 0.80126 0.21947 0.76943 0.0
H1112 H 0.90221 0.19398 0.75627 0.0
C1113 C 0.99564 0.32444 0.73061 0.0
C1114 C 0.90436 0.29621 0.75047 0.0
C1115 C 1.01986 0.35419 0.72162 0.0
C1116 C 0.78353 0.17307 0.78335 0.0
C1117 C 0.81057 0.20061 0.77445 0.0
C1118 C 0.90277 0.22269 0.75499 0.0
C1119 C 0.95493 0.31467 0.73287 0.0
C1120 C 0.92952 0.2866 0.74323 0.0
C1121 C 0.84824 0.20285 0.77182 0.0
C1122 C 0.87705 0.23206 0.76212 0.0
H1123 H 0.94899 0.37803 0.71153 0.0
H1124 H 0.90734 0.32644 0.72658 0.0
H1125 H 0.94736 0.24091 0.74034 0.0
H1126 H 0.83921 0.12912 0.79219 0.0
H1127 H 0.88664 0.17766 0.77712 0.0
C1128 C 0.65927 1.01891 0.89704 0.0
C1129 C 0.65893 1.01062 0.88427 0.0
C1130 C 0.65961 0.99235 0.90606 0.0
C1131 C 0.67921 0.90743 0.91243 0.0
H1132 H 0.60236 0.88387 0.93935 0.0
C1133 C 0.65977 0.79218 0.95133 0.0
C1134 C 0.65351 0.80097 0.96359 0.0
C1135 C 0.65675 0.81399 0.94118 0.0
C1136 C 0.62442 0.89032 0.93204 0.0
H1137 H 0.6606 0.96842 0.87096 0.0
H1138 H 0.66138 0.92157 0.88684 0.0
H1139 H 0.60767 0.93 0.9227 0.0
H1140 H 0.63847 0.83924 0.97476 0.0
H1141 H 0.63374 0.87784 0.95719 0.0
H1142 H 0.69705 0.86891 0.92192 0.0
C1143 C 0.66144 0.949 0.88983 0.0
C1144 C 0.62734 0.91681 0.92241 0.0
C1145 C 0.66129 0.97595 0.88073 0.0
C1146 C 0.64256 0.8311 0.96541 0.0
C1147 C 0.64003 0.85337 0.95526 0.0
C1148 C 0.67666 0.88125 0.92216 0.0
C1149 C 0.65924 0.95624 0.90264 0.0
C1150 C 0.65505 0.92613 0.91251 0.0
C1151 C 0.6481 0.84592 0.94297 0.0
C1152 C 0.64941 0.87243 0.93222 0.0
H1153 H 0.65785 0.04545 0.9001 0.0
H1154 H 0.65926 0.99972 0.9158 0.0
H1155 H 0.70107 0.91405 0.90503 0.0
H1156 H 0.6686 0.76934 0.94963 0.0
H1157 H 0.66215 0.80629 0.93193 0.0
C1158 C 0.90321 0.68035 0.122 0.0
C1159 C 0.90149 0.64319 0.12506 0.0
C1160 C 0.87612 0.6818 0.11334 0.0
C1161 C 0.77793 0.61531 0.0963 0.0
H1162 H 0.81583 0.7093 0.07452 0.0
C1163 C 0.68518 0.60966 0.05328 0.0
C1164 C 0.67941 0.643 0.05058 0.0
C1165 C 0.71348 0.61258 0.06216 0.0
C1166 C 0.80456 0.68301 0.08061 0.0
H1167 H 0.8691 0.57823 0.12132 0.0
H1168 H 0.82236 0.58061 0.1061 0.0
H1169 H 0.86147 0.70763 0.09033 0.0
H1170 H 0.70096 0.70654 0.05482 0.0
H1171 H 0.75132 0.71198 0.07048 0.0
H1172 H 0.72144 0.59033 0.08642 0.0
C1173 C 0.84423 0.60881 0.11057 0.0
C1174 C 0.83078 0.68199 0.08975 0.0
C1175 C 0.87118 0.60734 0.11933 0.0
C1176 C 0.70467 0.68035 0.05662 0.0
C1177 C 0.73338 0.68331 0.06563 0.0
C1178 C 0.75195 0.61621 0.08713 0.0
C1179 C 0.84637 0.64615 0.10733 0.0
C1180 C 0.81805 0.64793 0.09772 0.0
C1181 C 0.7373 0.64899 0.06877 0.0
C1182 C 0.76488 0.64985 0.07903 0.0
H1183 H 0.92563 0.70858 0.12634 0.0
H1184 H 0.87846 0.71106 0.11143 0.0
H1185 H 0.76624 0.58893 0.10236 0.0
H1186 H 0.66679 0.58045 0.04873 0.0
H1187 H 0.71619 0.5858 0.06397 0.0
C1188 C 0.38965 0.9586 0.62773 0.0
C1189 C 0.38616 0.99026 0.63349 0.0
C1190 C 0.36101 0.93267 0.619 0.0
C1191 C 0.25612 0.89577 0.60676 0.0
H1192 H 0.2967 0.86149 0.57877 0.0
C1193 C 0.15114 0.80111 0.56564 0.0
C1194 C 0.15618 0.7694 0.56058 0.0
C1195 C 0.17904 0.82891 0.57427 0.0
C1196 C 0.28464 0.87029 0.58658 0.0
H1197 H 0.3484 1.01828 0.6348 0.0
H1198 H 0.29807 0.97296 0.61938 0.0
H1199 H 0.34415 0.90807 0.59421 0.0
H1200 H 0.19559 0.74299 0.56072 0.0
H1201 H 0.2443 0.79149 0.57567 0.0
H1202 H 0.19655 0.85794 0.59905 0.0
C1203 C 0.32325 0.96822 0.6217 0.0
C1204 C 0.31198 0.89717 0.5955 0.0
C1205 C 0.35211 0.99431 0.63055 0.0
C1206 C 0.19072 0.76709 0.56425 0.0
C1207 C 0.21874 0.79502 0.57288 0.0
C1208 C 0.22873 0.86892 0.59781 0.0
C1209 C 0.32767 0.93736 0.61564 0.0
C1210 C 0.2982 0.91009 0.60582 0.0
C1211 C 0.21316 0.82618 0.57812 0.0
C1212 C 0.24251 0.8555 0.5876 0.0
H1213 H 0.41479 0.95367 0.62996 0.0
H1214 H 0.36507 0.90868 0.61493 0.0
H1215 H 0.2441 0.90447 0.6146 0.0
H1216 H 0.12557 0.80468 0.56289 0.0
H1217 H 0.17399 0.85286 0.57783 0.0
C1218 C 0.35592 0.14419 0.73057 0.0
C1219 C 0.39224 0.14626 0.72639 0.0
C1220 C 0.35658 0.17225 0.7393 0.0
C1221 C 0.42272 0.24514 0.76384 0.0
H1222 H 0.3467 0.28578 0.76233 0.0
C1223 C 0.44655 0.38266 0.79313 0.0
C1224 C 0.41332 0.38435 0.79843 0.0
C1225 C 0.44088 0.3515 0.78497 0.0
C1226 C 0.36774 0.27427 0.76302 0.0
H1227 H 0.45795 0.18079 0.72807 0.0
H1228 H 0.45924 0.23004 0.7431 0.0
H1229 H 0.34412 0.2379 0.74648 0.0
H1230 H 0.34751 0.35325 0.79926 0.0
H1231 H 0.33731 0.298 0.78479 0.0
H1232 H 0.44652 0.2815 0.78028 0.0
C1233 C 0.43001 0.20616 0.73976 0.0
C1234 C 0.36638 0.24681 0.75387 0.0
C1235 C 0.42935 0.17814 0.73098 0.0
C1236 C 0.37381 0.35299 0.7954 0.0
C1237 C 0.36804 0.32153 0.78704 0.0
C1238 C 0.42404 0.27245 0.77294 0.0
C1239 C 0.3936 0.2034 0.74419 0.0
C1240 C 0.39423 0.23219 0.75405 0.0
C1241 C 0.40167 0.32043 0.7817 0.0
C1242 C 0.39701 0.28799 0.7726 0.0
H1243 H 0.32669 0.12057 0.72714 0.0
H1244 H 0.32786 0.16877 0.74245 0.0
H1245 H 0.444 0.23394 0.76456 0.0
H1246 H 0.47759 0.4059 0.79517 0.0
H1247 H 0.46762 0.35246 0.78097 0.0
C1248 C 0.09502 0.42243 0.96656 0.0
C1249 C 0.05244 0.39735 0.96707 0.0
C1250 C 0.11756 0.42032 0.95652 0.0
C1251 C 0.10596 0.39113 0.92308 0.0
H1252 H 0.21549 0.40888 0.92675 0.0
C1253 C 0.19476 0.37325 0.88171 0.0
C1254 C 0.2375 0.39731 0.88119 0.0
C1255 C 0.17276 0.37534 0.89191 0.0
C1256 C 0.18521 0.40455 0.92549 0.0
H1257 H 1.0001 0.35018 0.95737 0.0
H1258 H 0.03947 0.34571 0.93982 0.0
H1259 H 0.1759 0.40433 0.9452 0.0
H1260 H 0.29041 0.44362 0.89092 0.0
H1261 H 0.25196 0.44806 0.90873 0.0
H1262 H 0.11528 0.39158 0.90338 0.0
C1263 C 0.05557 0.36711 0.94726 0.0
C1264 C 0.16228 0.40169 0.93614 0.0
C1265 C 0.03297 0.36903 0.95743 0.0
C1266 C 0.25752 0.42499 0.89096 0.0
C1267 C 0.23542 0.427 0.90126 0.0
C1268 C 0.12891 0.39407 0.91244 0.0
C1269 C 0.09818 0.39339 0.94652 0.0
C1270 C 0.12218 0.39481 0.93513 0.0
C1271 C 0.19267 0.40155 0.90202 0.0
C1272 C 0.16892 0.40067 0.91343 0.0
H1273 H 0.1108 0.44535 0.97367 0.0
H1274 H 0.15 0.44157 0.95629 0.0
H1275 H 0.07567 0.3868 0.92183 0.0
H1276 H 0.17836 0.35141 0.87439 0.0
H1277 H 0.14015 0.35489 0.89208 0.0
C1278 C 0.65634 0.07576 0.12895 0.0
C1279 C 0.6522 0.03779 0.1323 0.0
C1280 C 0.68237 0.09913 0.11929 0.0
C1281 C 0.7289 0.08938 0.09034 0.0
H1282 H 0.79743 0.20693 0.09287 0.0
C1283 C 0.84814 0.18279 0.0525 0.0
C1284 C 0.86035 0.22417 0.05043 0.0
C1285 C 0.82072 0.1604 0.06199 0.0
C1286 C 0.77798 0.17426 0.09185 0.0
H1287 H 0.67295 0.995 0.12823 0.0
H1288 H 0.71857 0.03585 0.11117 0.0
H1289 H 0.75662 0.16798 0.11069 0.0
H1290 H 0.85107 0.27366 0.05641 0.0
H1291 H 0.80177 0.23416 0.07279 0.0
H1292 H 0.74912 0.0954 0.07146 0.0
C1293 C 0.7015 0.04748 0.1161 0.0
C1294 C 0.75473 0.1518 0.10217 0.0
C1295 C 0.67578 0.02427 0.12596 0.0
C1296 C 0.84233 0.24188 0.05771 0.0
C1297 C 0.81449 0.21927 0.06725 0.0
C1298 C 0.75171 0.11184 0.07998 0.0
C1299 C 0.70477 0.08505 0.11254 0.0
C1300 C 0.73014 0.10897 0.1016 0.0
C1301 C 0.80391 0.17832 0.06973 0.0
C1302 C 0.77708 0.15468 0.08057 0.0
H1303 H 0.63845 0.08701 0.1336 0.0
H1304 H 0.68366 0.12755 0.11678 0.0
H1305 H 0.70964 0.05661 0.08945 0.0
H1306 H 0.86106 0.16792 0.04701 0.0
H1307 H 0.81415 0.12937 0.06354 0.0
C1308 C 0.61707 0.67486 0.297 0.0
C1309 C 0.65025 0.66889 0.29961 0.0
C1310 C 0.61992 0.70325 0.28814 0.0
C1311 C 0.69005 0.79437 0.26962 0.0
H1312 H 0.59593 0.75626 0.24801 0.0
C1313 C 0.68729 0.89349 0.22833 0.0
C1314 C 0.65029 0.89195 0.22533 0.0
C1315 C 0.68871 0.86624 0.23696 0.0
C1316 C 0.62232 0.7679 0.25402 0.0
H1317 H 0.71345 0.69019 0.29524 0.0
H1318 H 0.71875 0.74067 0.2796 0.0
H1319 H 0.59736 0.71124 0.2639 0.0
H1320 H 0.58558 0.85974 0.22913 0.0
H1321 H 0.58791 0.81274 0.24431 0.0
H1322 H 0.71467 0.85144 0.25991 0.0
C1323 C 0.69027 0.72283 0.28451 0.0
C1324 C 0.62324 0.74179 0.26317 0.0
C1325 C 0.68737 0.69404 0.2935 0.0
C1326 C 0.61456 0.86167 0.23108 0.0
C1327 C 0.61601 0.83457 0.23982 0.0
C1328 C 0.68902 0.82072 0.2605 0.0
C1329 C 0.6561 0.72695 0.28146 0.0
C1330 C 0.6569 0.75465 0.27122 0.0
C1331 C 0.65319 0.83652 0.243 0.0
C1332 C 0.65495 0.80807 0.25259 0.0
H1333 H 0.58806 0.6566 0.30162 0.0
H1334 H 0.59328 0.70613 0.28638 0.0
H1335 H 0.71635 0.80558 0.27567 0.0
H1336 H 0.71541 0.91588 0.22396 0.0
H1337 H 0.71784 0.86844 0.23882 0.0
C1338 C 1.02255 0.66735 0.45973 0.0
C1339 C 1.01008 0.62991 0.46576 0.0
C1340 C 0.99979 0.66974 0.4497 0.0
C1341 C 0.89766 0.6176 0.43472 0.0
H1342 H 0.95611 0.67001 0.4045 0.0
C1343 C 0.8109 0.61608 0.38948 0.0
C1344 C 0.82899 0.65177 0.38219 0.0
C1345 C 0.83278 0.61081 0.39928 0.0
C1346 C 0.93906 0.65575 0.41288 0.0
H1347 H 0.96308 0.56612 0.4663 0.0
H1348 H 0.92318 0.57059 0.44919 0.0
H1349 H 0.9936 0.66935 0.42284 0.0
H1350 H 0.88526 0.70853 0.37905 0.0
H1351 H 0.92233 0.70026 0.39605 0.0
H1352 H 0.84319 0.60487 0.42495 0.0
C1353 C 0.9505 0.59805 0.45208 0.0
C1354 C 0.96079 0.65538 0.42344 0.0
C1355 C 0.9735 0.59551 0.4619 0.0
C1356 C 0.87002 0.68085 0.38455 0.0
C1357 C 0.89161 0.67582 0.39431 0.0
C1358 C 0.87591 0.61851 0.42421 0.0
C1359 C 0.96367 0.63495 0.44565 0.0
C1360 C 0.94045 0.63642 0.43452 0.0
C1361 C 0.87332 0.64109 0.40203 0.0
C1362 C 0.89622 0.63781 0.4131 0.0
H1363 H 0.05077 0.69425 0.46239 0.0
H1364 H 1.01067 0.69874 0.44501 0.0
H1365 H 0.88095 0.60275 0.44311 0.0
H1366 H 0.7794 0.59306 0.38796 0.0
H1367 H 0.81762 0.58318 0.40478 0.0
C1368 C 0.59253 0.68683 0.33643 0.0
C1369 C 0.56731 0.6484 0.33093 0.0
C1370 C 0.57908 0.71515 0.33848 0.0
C1371 C 0.49848 0.74191 0.32924 0.0
H1372 H 0.53716 0.81061 0.35857 0.0
C1373 C 0.46484 0.87752 0.33857 0.0
C1374 C 0.4589 0.88535 0.35103 0.0
C1375 C 0.47716 0.84855 0.33565 0.0
C1376 C 0.52561 0.79164 0.35034 0.0
H1377 H 0.50729 0.6109 0.32294 0.0
H1378 H 0.48368 0.65987 0.32651 0.0
H1379 H 0.55867 0.76069 0.35471 0.0
H1380 H 0.46012 0.86671 0.37005 0.0
H1381 H 0.48126 0.81734 0.36506 0.0
H1382 H 0.46488 0.77275 0.32503 0.0
C1383 C 0.51435 0.66828 0.3293 0.0
C1384 C 0.53853 0.76301 0.34801 0.0
C1385 C 0.5279 0.6398 0.32731 0.0
C1386 C 0.46487 0.86245 0.36035 0.0
C1387 C 0.47732 0.8339 0.35746 0.0
C1388 C 0.48568 0.77081 0.33154 0.0
C1389 C 0.53961 0.70659 0.33501 0.0
C1390 C 0.52525 0.73736 0.33743 0.0
C1391 C 0.48417 0.82646 0.34507 0.0
C1392 C 0.49876 0.79616 0.34221 0.0
H1393 H 0.62326 0.69562 0.339 0.0
H1394 H 0.60025 0.74431 0.3426 0.0
H1395 H 0.48765 0.72342 0.3209 0.0
H1396 H 0.46091 0.89441 0.33108 0.0
H1397 H 0.48217 0.84424 0.32598 0.0
C1398 C 0.64301 0.46602 0.53124 0.0
C1399 C 0.6155 0.45954 0.52146 0.0
C1400 C 0.68422 0.47782 0.52896 0.0
C1401 C 0.75841 0.48664 0.50344 0.0
H1402 H 0.83942 0.55218 0.52813 0.0
C1403 C 0.92833 0.52397 0.49829 0.0
C1404 C 0.96067 0.56073 0.50312 0.0
C1405 C 0.88705 0.51187 0.50062 0.0
C1406 C 0.81763 0.53421 0.52099 0.0
H1407 H 0.6111 0.4601 0.50138 0.0
H1408 H 0.68247 0.48071 0.49734 0.0
H1409 H 0.76837 0.53205 0.53153 0.0
H1410 H 0.97292 0.61266 0.51467 0.0
H1411 H 0.90173 0.59241 0.51848 0.0
H1412 H 0.80783 0.48993 0.49271 0.0
C1413 C 0.67224 0.47631 0.50691 0.0
C1414 C 0.7761 0.52191 0.52306 0.0
C1415 C 0.63082 0.46433 0.50922 0.0
C1416 C 0.94958 0.58443 0.51061 0.0
C1417 C 0.90815 0.57238 0.51291 0.0
C1418 C 0.79996 0.49903 0.50135 0.0
C1419 C 0.70017 0.48378 0.51674 0.0
C1420 C 0.74529 0.49761 0.51437 0.0
C1421 C 0.87572 0.53591 0.50788 0.0
C1422 C 0.83073 0.523 0.5101 0.0
H1423 H 0.63265 0.46197 0.54079 0.0
H1424 H 0.70348 0.48193 0.5369 0.0
H1425 H 0.73647 0.4678 0.49644 0.0
H1426 H 0.93475 0.5044 0.49248 0.0
H1427 H 0.86396 0.48319 0.49671 0.0
C1428 C 0.37177 0.93171 0.67795 0.0
C1429 C 0.40467 0.9426 0.66969 0.0
C1430 C 0.34156 0.89021 0.67996 0.0
C1431 C 0.29783 0.78349 0.66588 0.0
H1432 H 0.24581 0.74693 0.69799 0.0
C1433 C 0.1604 0.61502 0.67395 0.0
C1434 C 0.15682 0.5964 0.68565 0.0
C1435 C 0.18985 0.65671 0.67182 0.0
C1436 C 0.26 0.75617 0.68893 0.0
H1437 H 0.43024 0.91619 0.65711 0.0
H1438 H 0.37881 0.84529 0.66064 0.0
H1439 H 0.29741 0.81845 0.69499 0.0
H1440 H 0.18349 0.60813 0.70408 0.0
H1441 H 0.23403 0.6795 0.70045 0.0
H1442 H 0.2607 0.7211 0.65986 0.0
C1443 C 0.37577 0.86867 0.66556 0.0
C1444 C 0.28966 0.79787 0.68715 0.0
C1445 C 0.40599 0.90995 0.66363 0.0
C1446 C 0.18455 0.62097 0.69498 0.0
C1447 C 0.21372 0.66248 0.69289 0.0
C1448 C 0.26795 0.74185 0.66763 0.0
C1449 C 0.34257 0.8576 0.67371 0.0
C1450 C 0.30962 0.81262 0.6756 0.0
C1451 C 0.217 0.68165 0.6813 0.0
C1452 C 0.24846 0.72699 0.67924 0.0
H1453 H 0.36908 0.9553 0.68286 0.0
H1454 H 0.31679 0.88385 0.68626 0.0
H1455 H 0.31146 0.79285 0.65675 0.0
H1456 H 0.13966 0.59767 0.6665 0.0
H1457 H 0.19059 0.66965 0.66277 0.0
C1458 C 0.52293 0.40142 0.8199 0.0
C1459 C 0.50045 0.40869 0.82903 0.0
C1460 C 0.53576 0.37239 0.82178 0.0
C1461 C 0.51982 0.28504 0.84347 0.0
H1462 H 0.61379 0.29402 0.82619 0.0
C1463 C 0.59458 0.18899 0.85837 0.0
C1464 C 0.60617 0.16977 0.84924 0.0
C1465 C 0.58209 0.21726 0.85522 0.0
C1466 C 0.58723 0.2907 0.83103 0.0
H1467 H 0.47669 0.39223 0.84769 0.0
H1468 H 0.49935 0.3431 0.85118 0.0
H1469 H 0.59248 0.34452 0.82245 0.0
H1470 H 0.61503 0.16772 0.82939 0.0
H1471 H 0.5946 0.21853 0.82387 0.0
H1472 H 0.51549 0.23192 0.85232 0.0
C1473 C 0.50574 0.35815 0.84223 0.0
C1474 C 0.5747 0.31988 0.82886 0.0
C1475 C 0.49248 0.38672 0.84025 0.0
C1476 C 0.60646 0.1816 0.83675 0.0
C1477 C 0.59456 0.21078 0.83358 0.0
C1478 C 0.5327 0.25636 0.84577 0.0
C1479 C 0.52733 0.34978 0.83299 0.0
C1480 C 0.54077 0.31797 0.83509 0.0
C1481 C 0.58143 0.22863 0.84277 0.0
C1482 C 0.5668 0.25865 0.83967 0.0
H1483 H 0.52993 0.41759 0.81111 0.0
H1484 H 0.5517 0.36729 0.81426 0.0
H1485 H 0.49291 0.28086 0.84828 0.0
H1486 H 0.59491 0.18204 0.86813 0.0
H1487 H 0.57321 0.23061 0.86265 0.0
C1488 C 0.13589 0.46022 1.00475 0.0
C1489 C 0.12282 0.48523 0.99896 0.0
C1490 C 0.17755 0.47355 1.00671 0.0
C1491 C 0.28404 0.55233 0.99656 0.0
H1492 H 0.31583 0.51813 0.02652 0.0
C1493 C 0.45286 0.58631 1.00568 0.0
C1494 C 0.46753 0.59491 0.01803 0.0
C1495 C 0.41158 0.57364 1.00287 0.0
C1496 C 0.30786 0.52837 0.0181 0.0
H1497 H 0.14541 0.54471 0.99042 0.0
H1498 H 0.21764 0.56799 0.99381 0.0
H1499 H 0.24436 0.49605 0.02284 0.0
H1500 H 0.44944 0.59815 0.03695 0.0
H1501 H 0.37882 0.57638 0.03216 0.0
H1502 H 0.34792 0.58506 0.99194 0.0
C1503 C 0.19543 0.53761 0.99689 0.0
C1504 C 0.26633 0.51515 0.0159 0.0
C1505 C 0.15358 0.52424 0.995 0.0
C1506 C 0.43965 0.59138 0.02735 0.0
C1507 C 0.39864 0.57855 0.02458 0.0
C1508 C 0.32568 0.56534 0.99873 0.0
C1509 C 0.20838 0.51261 1.00285 0.0
C1510 C 0.25338 0.52692 1.00511 0.0
C1511 C 0.38343 0.56893 0.01232 0.0
C1512 C 0.33856 0.55391 0.00961 0.0
H1513 H 0.11395 0.4298 1.00761 0.0
H1514 H 0.18552 0.45263 0.01108 0.0
H1515 H 0.27589 0.56193 0.98806 0.0
H1516 H 0.47291 0.58821 0.99821 0.0
H1517 H 0.40148 0.56646 0.99331 0.0
C1518 C 0.85119 0.42197 0.18545 0.0
C1519 C 0.89104 0.43736 0.18073 0.0
C1520 C 0.82072 0.38035 0.18401 0.0
C1521 C 0.80474 0.27458 0.17597 0.0
H1522 H 0.69147 0.24552 0.17337 0.0
C1523 C 0.67119 0.101 0.17547 0.0
C1524 C 0.63569 0.09007 0.16837 0.0
C1525 C 0.70201 0.14255 0.17718 0.0
C1526 C 0.72283 0.25256 0.17399 0.0
H1527 H 0.92834 0.41957 0.17016 0.0
H1528 H 0.87583 0.34771 0.16761 0.0
H1529 H 0.74393 0.31695 0.17539 0.0
H1530 H 0.60625 0.11686 0.15765 0.0
H1531 H 0.65867 0.1877 0.16064 0.0
H1532 H 0.78353 0.21007 0.17442 0.0
C1533 C 0.86808 0.3676 0.17272 0.0
C1534 C 0.75339 0.2942 0.17532 0.0
C1535 C 0.89855 0.40932 0.17416 0.0
C1536 C 0.63239 0.12296 0.16329 0.0
C1537 C 0.66296 0.16433 0.16505 0.0
C1538 C 0.77409 0.23282 0.17472 0.0
C1539 C 0.82834 0.35185 0.17769 0.0
C1540 C 0.79525 0.30648 0.1763 0.0
C1541 C 0.69882 0.17542 0.17197 0.0
C1542 C 0.73223 0.22061 0.17363 0.0
H1543 H 0.84368 0.44199 0.19062 0.0
H1544 H 0.79121 0.3704 0.18816 0.0
H1545 H 0.8361 0.28173 0.17682 0.0
H1546 H 0.6754 0.07744 0.17974 0.0
H1547 H 0.72833 0.14881 0.18275 0.0
C1548 C 0.2041 0.60522 0.50053 0.0
C1549 C 0.16398 0.58215 0.50511 0.0
C1550 C 0.23366 0.59341 0.50276 0.0
C1551 C 0.24542 0.50319 0.51244 0.0
H1552 H 0.35912 0.58508 0.51621 0.0
C1553 C 0.3751 0.4595 0.51422 0.0
C1554 C 0.40945 0.48234 0.52188 0.0
C1555 C 0.34537 0.47133 0.5123 0.0
C1556 C 0.32756 0.56151 0.51527 0.0
H1557 H 0.12486 0.52925 0.51628 0.0
H1558 H 0.17599 0.50877 0.52023 0.0
H1559 H 0.30832 0.60603 0.5131 0.0
H1560 H 0.4383 0.53644 0.53352 0.0
H1561 H 0.3872 0.55689 0.53022 0.0
H1562 H 0.26468 0.45866 0.51472 0.0
C1563 C 0.1846 0.53568 0.51462 0.0
C1564 C 0.29812 0.57368 0.51332 0.0
C1565 C 0.15504 0.54756 0.51239 0.0
C1566 C 0.41275 0.51775 0.5275 0.0
C1567 C 0.38319 0.52974 0.52553 0.0
C1568 C 0.27493 0.491 0.5143 0.0
C1569 C 0.22454 0.55811 0.50975 0.0
C1570 C 0.2563 0.54484 0.51188 0.0
C1571 C 0.3487 0.50682 0.51789 0.0
C1572 C 0.31674 0.51987 0.51579 0.0
H1573 H 0.21246 0.63196 0.49485 0.0
H1574 H 0.26354 0.6116 0.49867 0.0
H1575 H 0.21393 0.47966 0.51128 0.0
H1576 H 0.37095 0.43223 0.50967 0.0
H1577 H 0.31994 0.45276 0.50623 0.0
C1578 C 0.6155 0.13914 0.67911 0.0
C1579 C 0.58936 0.14734 0.67182 0.0
C1580 C 0.65687 0.16913 0.68109 0.0
C1581 C 0.73159 0.28322 0.67899 0.0
H1582 H 0.81363 0.25058 0.68061 0.0
C1583 C 0.90243 0.40031 0.69224 0.0
C1584 C 0.93423 0.39662 0.68663 0.0
C1585 C 0.86092 0.37047 0.69048 0.0
C1586 C 0.79142 0.26065 0.68012 0.0
H1587 H 0.58728 0.19511 0.66124 0.0
H1588 H 0.65849 0.24687 0.66465 0.0
H1589 H 0.74214 0.19905 0.67758 0.0
H1590 H 0.9454 0.35661 0.67487 0.0
H1591 H 0.874 0.30539 0.67172 0.0
H1592 H 0.7808 0.3448 0.68143 0.0
C1593 C 0.64726 0.21722 0.66893 0.0
C1594 C 0.74985 0.23066 0.6785 0.0
C1595 C 0.60598 0.18724 0.66694 0.0
C1596 C 0.92247 0.36147 0.67925 0.0
C1597 C 0.88099 0.33146 0.67756 0.0
C1598 C 0.77308 0.31314 0.68072 0.0
C1599 C 0.67391 0.20887 0.67596 0.0
C1600 C 0.71886 0.24119 0.67786 0.0
C1601 C 0.84909 0.33518 0.68312 0.0
C1602 C 0.80412 0.30268 0.6813 0.0
H1603 H 0.60402 0.10923 0.68324 0.0
H1604 H 0.6755 0.16103 0.68673 0.0
H1605 H 0.70932 0.29324 0.6787 0.0
H1606 H 0.90958 0.42641 0.69809 0.0
H1607 H 0.83803 0.37486 0.69514 0.0
C1608 C 0.54735 0.91634 0.85413 0.0
C1609 C 0.58435 0.94804 0.84927 0.0
C1610 C 0.5346 0.87474 0.85202 0.0
C1611 C 0.55143 0.80327 0.83134 0.0
H1612 H 0.48978 0.72366 0.85688 0.0
C1613 C 0.46827 0.6275 0.82103 0.0
C1614 C 0.46622 0.59988 0.83026 0.0
C1615 C 0.48347 0.66928 0.82361 0.0
C1616 C 0.50716 0.74524 0.84962 0.0
H1617 H 0.63668 0.95909 0.8382 0.0
H1618 H 0.61454 0.88685 0.83448 0.0
H1619 H 0.51519 0.79615 0.86072 0.0
H1620 H 0.47889 0.59623 0.84973 0.0
H1621 H 0.50466 0.6687 0.85433 0.0
H1622 H 0.54372 0.75236 0.82028 0.0
C1623 C 0.59504 0.89427 0.83992 0.0
C1624 C 0.5215 0.78726 0.85178 0.0
C1625 C 0.60799 0.9361 0.84211 0.0
C1626 C 0.47915 0.61582 0.84235 0.0
C1627 C 0.49425 0.65784 0.84498 0.0
C1628 C 0.53685 0.76122 0.82915 0.0
C1629 C 0.55808 0.86257 0.84489 0.0
C1630 C 0.54377 0.81731 0.84267 0.0
C1631 C 0.49718 0.68563 0.83561 0.0
C1632 C 0.51411 0.73115 0.8382 0.0
H1633 H 0.52796 0.92355 0.85973 0.0
H1634 H 0.50573 0.85202 0.85591 0.0
H1635 H 0.56809 0.82473 0.82398 0.0
H1636 H 0.45847 0.61686 0.81161 0.0
H1637 H 0.4842 0.68877 0.8161 0.0
C1638 C 0.65212 0.52167 0.02386 0.0
C1639 C 0.65959 0.56028 0.01965 0.0
C1640 C 0.6809 0.50851 0.02205 0.0
C1641 C 0.77406 0.53123 1.00295 0.0
H1642 H 0.78699 0.46188 0.02697 0.0
C1643 C 0.87367 0.45738 0.99155 0.0
C1644 C 0.89763 0.45328 1.0009 0.0
C1645 C 0.8451 0.46978 0.99431 0.0
C1646 C 0.78416 0.48149 0.02016 0.0
H1647 H 0.70509 0.61534 0.01061 0.0
H1648 H 0.75435 0.59294 1.00737 0.0
H1649 H 0.73748 0.48447 0.0308 0.0
H1650 H 0.90868 0.45865 0.02077 0.0
H1651 H 0.85842 0.47987 0.02568 0.0
H1652 H 0.82098 0.5289 0.9924 0.0
C1653 C 0.72584 0.57208 0.01185 0.0
C1654 C 0.75515 0.49416 0.0223 0.0
C1655 C 0.6972 0.58517 0.0137 0.0
C1656 C 0.89088 0.46103 0.01327 0.0
C1657 C 0.86189 0.47335 0.01608 0.0
C1658 C 0.80282 0.51846 1.00079 0.0
C1659 C 0.71839 0.53338 0.01593 0.0
C1660 C 0.74942 0.51934 0.01373 0.0
C1661 C 0.83874 0.47851 1.00661 0.0
C1662 C 0.80844 0.49312 0.0093 0.0
H1663 H 0.62389 0.50139 0.02859 0.0
H1664 H 0.67333 0.47842 0.02531 0.0
H1665 H 0.77082 0.55011 0.99597 0.0
H1666 H 0.87717 0.45123 0.98191 0.0
H1667 H 0.82768 0.47223 0.9867 0.0
C1668 C 0.41736 0.89051 0.17603 0.0
C1669 C 0.44526 0.88261 0.16957 0.0
C1670 C 0.37571 0.8601 0.17748 0.0
C1671 C 0.30219 0.74502 0.17514 0.0
H1672 H 0.21864 0.77571 0.17581 0.0
C1673 C 0.13127 0.62433 0.18719 0.0
C1674 C 0.09856 0.62772 0.18208 0.0
C1675 C 0.17256 0.65484 0.18541 0.0
C1676 C 0.24121 0.7661 0.17557 0.0
H1677 H 0.4497 0.83466 0.15991 0.0
H1678 H 0.37824 0.78231 0.16238 0.0
H1679 H 0.29013 0.82816 0.17337 0.0
H1680 H 0.08615 0.66756 0.17065 0.0
H1681 H 0.15738 0.72038 0.16762 0.0
H1682 H 0.25349 0.68304 0.17719 0.0
C1683 C 0.38824 0.81206 0.16644 0.0
C1684 C 0.2829 0.7967 0.17431 0.0
C1685 C 0.42979 0.84246 0.16498 0.0
C1686 C 0.10959 0.66327 0.17494 0.0
C1687 C 0.15106 0.69404 0.17322 0.0
C1688 C 0.26062 0.71451 0.17649 0.0
C1689 C 0.35989 0.82006 0.17264 0.0
C1690 C 0.3146 0.78702 0.17405 0.0
C1691 C 0.18376 0.69075 0.17845 0.0
C1692 C 0.22887 0.7241 0.17677 0.0
H1693 H 0.42766 0.92055 0.17992 0.0
H1694 H 0.35594 0.86817 0.1825 0.0
H1695 H 0.32476 0.7354 0.17514 0.0
H1696 H 0.12509 0.59815 0.19286 0.0
H1697 H 0.19579 0.65047 0.18985 0.0
C1698 C 0.59884 0.42876 0.32341 0.0
C1699 C 0.60279 0.45718 0.33264 0.0
C1700 C 0.58565 0.38762 0.32629 0.0
C1701 C 0.57182 0.31488 0.35236 0.0
H1702 H 0.50251 0.23296 0.32835 0.0
C1703 C 0.52954 0.14192 0.3566 0.0
C1704 C 0.49068 0.1111 0.35258 0.0
C1705 C 0.54313 0.18391 0.35462 0.0
C1706 C 0.5216 0.25509 0.33527 0.0
H1707 H 0.5963 0.46324 0.35243 0.0
H1708 H 0.57394 0.39159 0.35754 0.0
H1709 H 0.52504 0.30466 0.3245 0.0
H1710 H 0.43579 0.10236 0.3437 0.0
H1711 H 0.45898 0.17416 0.34007 0.0
H1712 H 0.56795 0.26501 0.36319 0.0
C1713 C 0.58111 0.40139 0.34795 0.0
C1714 C 0.53509 0.29677 0.33297 0.0
C1715 C 0.59414 0.44283 0.34502 0.0
C1716 C 0.46607 0.1243 0.34662 0.0
C1717 C 0.47962 0.16611 0.34457 0.0
C1718 C 0.55853 0.27308 0.35464 0.0
C1719 C 0.57604 0.37274 0.33859 0.0
C1720 C 0.56067 0.3277 0.34142 0.0
C1721 C 0.51852 0.197 0.34849 0.0
C1722 C 0.5331 0.24219 0.34613 0.0
H1723 H 0.60557 0.43823 0.31378 0.0
H1724 H 0.58321 0.36742 0.31877 0.0
H1725 H 0.59156 0.33727 0.35914 0.0
H1726 H 0.54971 0.13368 0.36131 0.0
H1727 H 0.57337 0.20612 0.35776 0.0
C1728 C 0.19999 0.69611 0.46469 0.0
C1729 C 0.1577 0.67214 0.46298 0.0
C1730 C 0.22488 0.72296 0.45535 0.0
C1731 C 0.22127 0.77623 0.42631 0.0
H1732 H 0.32969 0.79246 0.42123 0.0
C1733 C 0.3238 0.87049 0.38457 0.0
C1734 C 0.36561 0.89625 0.38695 0.0
C1735 C 0.29805 0.8427 0.39362 0.0
C1736 C 0.29966 0.78868 0.42258 0.0
H1737 H 0.10852 0.65667 0.44993 0.0
H1738 H 0.15181 0.70266 0.43352 0.0
H1739 H 0.28611 0.74538 0.43727 0.0
H1740 H 0.41275 0.91247 0.4009 0.0
H1741 H 0.36815 0.86447 0.41654 0.0
H1742 H 0.2349 0.81946 0.41155 0.0
C1743 C 0.16586 0.70169 0.4422 0.0
C1744 C 0.27455 0.7616 0.43184 0.0
C1745 C 0.141 0.67494 0.45157 0.0
C1746 C 0.38084 0.89321 0.39864 0.0
C1747 C 0.35519 0.86535 0.40764 0.0
C1748 C 0.24637 0.80323 0.41702 0.0
C1749 C 0.20825 0.72629 0.44394 0.0
C1750 C 0.23496 0.75501 0.43391 0.0
C1751 C 0.31336 0.83965 0.4053 0.0
C1752 C 0.28606 0.81005 0.41504 0.0
H1753 H 0.21399 0.69377 0.4732 0.0
H1754 H 0.2572 0.74144 0.45715 0.0
H1755 H 0.19132 0.77263 0.42769 0.0
H1756 H 0.31081 0.87186 0.37572 0.0
H1757 H 0.26615 0.82321 0.39139 0.0
C1758 C 0.5006 0.37314 0.56793 0.0
C1759 C 0.5064 0.36809 0.55526 0.0
C1760 C 0.49938 0.34562 0.57693 0.0
C1761 C 0.49097 0.24201 0.58047 0.0
H1762 H 0.52154 0.2794 0.61443 0.0
C1763 C 0.46997 0.12813 0.62013 0.0
C1764 C 0.49602 0.14228 0.63048 0.0
C1765 C 0.47109 0.15548 0.61106 0.0
C1766 C 0.51344 0.26823 0.60499 0.0
H1767 H 0.51636 0.33025 0.54219 0.0
H1768 H 0.51662 0.28361 0.55786 0.0
H1769 H 0.52633 0.32703 0.59859 0.0
H1770 H 0.54465 0.19591 0.63928 0.0
H1771 H 0.54835 0.24343 0.62328 0.0
H1772 H 0.48062 0.18383 0.58673 0.0
C1773 C 0.51133 0.3079 0.5609 0.0
C1774 C 0.51539 0.2957 0.59583 0.0
C1775 C 0.51157 0.33498 0.55185 0.0
C1776 C 0.52378 0.18425 0.63148 0.0
C1777 C 0.52559 0.21156 0.62228 0.0
C1778 C 0.48984 0.21473 0.58958 0.0
C1779 C 0.50495 0.31252 0.57363 0.0
C1780 C 0.50387 0.28312 0.58339 0.0
C1781 C 0.49912 0.19778 0.6119 0.0
C1782 C 0.5008 0.2272 0.60205 0.0
H1783 H 0.49599 0.39798 0.57092 0.0
H1784 H 0.49329 0.35014 0.58646 0.0
H1785 H 0.48116 0.23042 0.57115 0.0
H1786 H 0.44812 0.09587 0.61917 0.0
H1787 H 0.44945 0.14326 0.60347 0.0
C1788 C 0.37721 0.48756 0.78187 0.0
C1789 C 0.36797 0.48596 0.79464 0.0
C1790 C 0.34989 0.48577 0.77273 0.0
C1791 C 0.2408 0.45874 0.76791 0.0
H1792 H 0.28296 0.51757 0.73691 0.0
C1793 C 0.13942 0.48373 0.73239 0.0
C1794 C 0.14465 0.47934 0.71959 0.0
C1795 C 0.16612 0.48296 0.7413 0.0
C1796 C 0.2706 0.50058 0.74545 0.0
H1797 H 0.32222 0.48138 0.80768 0.0
H1798 H 0.27517 0.4796 0.79181 0.0
H1799 H 0.33002 0.52051 0.75291 0.0
H1800 H 0.18252 0.47052 0.70625 0.0
H1801 H 0.22962 0.46977 0.72183 0.0
H1802 H 0.18135 0.43981 0.76049 0.0
C1803 C 0.30323 0.48124 0.7888 0.0
C1804 C 0.29768 0.50214 0.75468 0.0
C1805 C 0.33045 0.48256 0.79797 0.0
C1806 C 0.17746 0.47398 0.71599 0.0
C1807 C 0.20462 0.47379 0.72493 0.0
C1808 C 0.21377 0.45758 0.75873 0.0
C1809 C 0.31243 0.48277 0.77599 0.0
C1810 C 0.28332 0.48123 0.7661 0.0
C1811 C 0.19929 0.47824 0.73773 0.0
C1812 C 0.22823 0.4785 0.74736 0.0
H1813 H 0.40551 0.48964 0.77888 0.0
H1814 H 0.35807 0.48612 0.76305 0.0
H1815 H 0.22815 0.44145 0.77637 0.0
H1816 H 0.11447 0.48769 0.73559 0.0
H1817 H 0.16115 0.48687 0.75101 0.0
C1818 C 0.72021 0.19422 0.88556 0.0
C1819 C 0.69019 0.15366 0.88799 0.0
C1820 C 0.74596 0.21933 0.89505 0.0
C1821 C 0.81222 0.25785 0.91477 0.0
H1822 H 0.77225 0.25309 0.94832 0.0
C1823 C 0.91115 0.37467 0.95258 0.0
C1824 C 0.9096 0.36063 0.96483 0.0
C1825 C 0.88392 0.34913 0.94345 0.0
C1826 C 0.78408 0.25451 0.93904 0.0
H1827 H 0.66192 0.10877 0.90265 0.0
H1828 H 0.70701 0.15198 0.91915 0.0
H1829 H 0.72543 0.21005 0.93206 0.0
H1830 H 0.87761 0.30819 0.97698 0.0
H1831 H 0.83017 0.26357 0.96104 0.0
H1832 H 0.87078 0.30239 0.92172 0.0
C1833 C 0.71101 0.16455 0.90986 0.0
C1834 C 0.75715 0.22975 0.92968 0.0
C1835 C 0.68526 0.13952 0.90034 0.0
C1836 C 0.87977 0.32021 0.96768 0.0
C1837 C 0.85236 0.29463 0.95853 0.0
C1838 C 0.83907 0.28264 0.92411 0.0
C1839 C 0.74218 0.20471 0.90733 0.0
C1840 C 0.77078 0.23111 0.91738 0.0
C1841 C 0.85417 0.30868 0.94626 0.0
C1842 C 0.82542 0.28148 0.93638 0.0
H1843 H 0.72339 0.20687 0.87636 0.0
H1844 H 0.76862 0.25043 0.89276 0.0
H1845 H 0.8242 0.25927 0.90552 0.0
H1846 H 0.93354 0.40555 0.94995 0.0
H1847 H 0.88596 0.36135 0.93419 0.0
C1848 C 0.52655 0.84882 0.13079 0.0
C1849 C 0.54553 0.89136 0.12929 0.0
C1850 C 0.52989 0.82418 0.12159 0.0
C1851 C 0.59155 0.82884 0.09367 0.0
H1852 H 0.50032 0.72075 0.08728 0.0
C1853 C 0.58914 0.72808 0.05201 0.0
C1854 C 0.57241 0.68592 0.05419 0.0
C1855 C 0.58614 0.75354 0.06101 0.0
C1856 C 0.52632 0.75069 0.089 0.0
H1857 H 0.58186 0.9413 0.11673 0.0
H1858 H 0.58693 0.8985 0.10055 0.0
H1859 H 0.49436 0.76378 0.10308 0.0
H1860 H 0.53933 0.63789 0.06774 0.0
H1861 H 0.53429 0.68201 0.0833 0.0
H1862 H 0.62334 0.81569 0.07949 0.0
C1863 C 0.57032 0.88401 0.10898 0.0
C1864 C 0.52292 0.77548 0.09813 0.0
C1865 C 0.56706 0.9086 0.11821 0.0
C1866 C 0.55263 0.6701 0.06564 0.0
C1867 C 0.54944 0.69546 0.07459 0.0
C1868 C 0.59488 0.80407 0.0845 0.0
C1869 C 0.55193 0.84135 0.11053 0.0
C1870 C 0.55552 0.81495 0.10066 0.0
C1871 C 0.56608 0.73759 0.07243 0.0
C1872 C 0.56237 0.76452 0.08205 0.0
H1873 H 0.50873 0.83445 0.13905 0.0
H1874 H 0.5155 0.79163 0.12325 0.0
H1875 H 0.61763 0.85868 0.09542 0.0
H1876 H 0.60462 0.74152 0.04333 0.0
H1877 H 0.59903 0.78571 0.05893 0.0
C1878 C 0.6781 0.54217 0.2846 0.0
C1879 C 0.69375 0.56172 0.29611 0.0
C1880 C 0.7035 0.53914 0.27566 0.0
C1881 C 0.81202 0.58488 0.26597 0.0
H1882 H 0.77214 0.4847 0.24703 0.0
C1883 C 0.91697 0.55794 0.23231 0.0
C1884 C 0.90005 0.53688 0.22113 0.0
C1885 C 0.89223 0.56086 0.24153 0.0
C1886 C 0.78373 0.51317 0.25208 0.0
H1887 H 0.74904 0.59365 0.30706 0.0
H1888 H 0.79324 0.5883 0.29149 0.0
H1889 H 0.72887 0.49025 0.26279 0.0
H1890 H 0.84355 0.50048 0.21118 0.0
H1891 H 0.8005 0.50665 0.22696 0.0
H1892 H 0.86676 0.60795 0.2552 0.0
C1893 C 0.76122 0.57549 0.28935 0.0
C1894 C 0.7588 0.51633 0.26118 0.0
C1895 C 0.73573 0.57835 0.29835 0.0
C1896 C 0.85768 0.51796 0.21952 0.0
C1897 C 0.8329 0.52095 0.22871 0.0
C1898 C 0.83693 0.58178 0.25683 0.0
C1899 C 0.74547 0.55571 0.27788 0.0
C1900 C 0.77248 0.55226 0.26826 0.0
C1901 C 0.84975 0.54258 0.23987 0.0
C1902 C 0.82319 0.54588 0.24971 0.0
H1903 H 0.64603 0.52899 0.28246 0.0
H1904 H 0.69021 0.52419 0.2669 0.0
H1905 H 0.82353 0.61326 0.27107 0.0
H1906 H 0.94953 0.57267 0.23387 0.0
H1907 H 0.90647 0.57715 0.25003 0.0
C1908 C 0.87883 0.46262 0.42961 0.0
C1909 C 0.9101 0.45422 0.43256 0.0
C1910 C 0.84154 0.4317 0.42509 0.0
C1911 C 0.7932 0.32965 0.41052 0.0
H1912 H 0.69444 0.3148 0.4262 0.0
C1913 C 0.64551 0.17617 0.41093 0.0
C1914 C 0.60857 0.17559 0.40892 0.0
C1915 C 0.68166 0.2131 0.41224 0.0
C1916 C 0.72169 0.31898 0.42158 0.0
H1917 H 0.92748 0.40748 0.4328 0.0
H1918 H 0.86229 0.35341 0.42512 0.0
H1919 H 0.75963 0.37502 0.4312 0.0
H1920 H 0.58054 0.21326 0.40659 0.0
H1921 H 0.64402 0.2781 0.40908 0.0
H1922 H 0.75547 0.27302 0.40119 0.0
C1923 C 0.8666 0.38386 0.42618 0.0
C1924 C 0.75896 0.35341 0.42443 0.0
C1925 C 0.90371 0.41465 0.43073 0.0
C1926 C 0.60851 0.21278 0.40829 0.0
C1927 C 0.64476 0.24982 0.40966 0.0
C1928 C 0.75602 0.29525 0.40769 0.0
C1929 C 0.83508 0.39201 0.42337 0.0
C1930 C 0.79517 0.3585 0.41916 0.0
C1931 C 0.68166 0.25025 0.41161 0.0
C1932 C 0.72009 0.28909 0.41344 0.0
H1933 H 0.88294 0.49287 0.43102 0.0
H1934 H 0.81779 0.43882 0.42294 0.0
H1935 H 0.82057 0.33324 0.40614 0.0
H1936 H 0.64641 0.14801 0.4117 0.0
H1937 H 0.70956 0.21253 0.414 0.0
C1938 C 0.43577 0.84999 0.61525 0.0
C1939 C 0.44692 0.87806 0.6054 0.0
C1940 C 0.42746 0.81019 0.61301 0.0
C1941 C 0.40769 0.73361 0.58849 0.0
H1942 H 0.47173 0.70428 0.6099 0.0
C1943 C 0.48675 0.62775 0.58663 0.0
C1944 C 0.45383 0.58934 0.58353 0.0
C1945 C 0.48016 0.65976 0.58984 0.0
C1946 C 0.45358 0.71202 0.60389 0.0
H1947 H 0.45574 0.88592 0.58543 0.0
H1948 H 0.44131 0.81631 0.58152 0.0
H1949 H 0.4674 0.76518 0.61452 0.0
H1950 H 0.38831 0.55424 0.58112 0.0
H1951 H 0.37679 0.61067 0.58668 0.0
H1952 H 0.39511 0.68092 0.57763 0.0
C1953 C 0.4387 0.825 0.59094 0.0
C1954 C 0.45071 0.74658 0.6066 0.0
C1955 C 0.44706 0.86486 0.59318 0.0
C1956 C 0.41417 0.58356 0.58357 0.0
C1957 C 0.40761 0.61579 0.58666 0.0
C1958 C 0.41032 0.69875 0.58583 0.0
C1959 C 0.43007 0.7977 0.60089 0.0
C1960 C 0.42842 0.75818 0.59879 0.0
C1961 C 0.44055 0.65405 0.58991 0.0
C1962 C 0.43408 0.68826 0.59335 0.0
H1963 H 0.43451 0.85915 0.62472 0.0
H1964 H 0.42021 0.78951 0.62081 0.0
H1965 H 0.39015 0.74181 0.58236 0.0
H1966 H 0.51757 0.63287 0.58676 0.0
H1967 H 0.50612 0.68915 0.59217 0.0
C1968 C 0.64605 0.48285 0.7753 0.0
C1969 C 0.60604 0.44976 0.775 0.0
C1970 C 0.67906 0.47619 0.77509 0.0
C1971 C 0.70868 0.40433 0.76387 0.0
H1972 H 0.80514 0.46954 0.78386 0.0
C1973 C 0.85701 0.39975 0.75627 0.0
C1974 C 0.89233 0.43834 0.75561 0.0
C1975 C 0.82063 0.3959 0.76073 0.0
C1976 C 0.77844 0.45115 0.77821 0.0
H1977 H 0.56922 0.38364 0.77461 0.0
H1978 H 0.62731 0.37206 0.77395 0.0
H1979 H 0.74306 0.47211 0.78801 0.0
H1980 H 0.91768 0.50287 0.75952 0.0
H1981 H 0.85405 0.49636 0.76698 0.0
H1982 H 0.74445 0.38476 0.7537 0.0
C1983 C 0.63287 0.40311 0.77434 0.0
C1984 C 0.74296 0.45254 0.78061 0.0
C1985 C 0.59973 0.40977 0.77465 0.0
C1986 C 0.89082 0.47282 0.75977 0.0
C1987 C 0.8545 0.46898 0.76421 0.0
C1988 C 0.74425 0.40308 0.76143 0.0
C1989 C 0.67281 0.43631 0.7745 0.0
C1990 C 0.70814 0.43001 0.77324 0.0
C1991 C 0.81892 0.43056 0.76462 0.0
C1992 C 0.77981 0.42737 0.76836 0.0
H1993 H 0.65195 0.51403 0.77534 0.0
H1994 H 0.70955 0.50236 0.77497 0.0
H1995 H 0.68233 0.38694 0.75798 0.0
H1996 H 0.8572 0.37265 0.75304 0.0
H1997 H 0.79377 0.36587 0.76102 0.0
C1998 C 0.42631 0.88091 0.91478 0.0
C1999 C 0.46588 0.88684 0.91405 0.0
C2000 C 0.39441 0.844 0.91903 0.0
C2001 C 0.36036 0.73598 0.92227 0.0
H2002 H 0.28363 0.73921 0.94555 0.0
C2003 C 0.21692 0.59085 0.94022 0.0
C2004 C 0.18106 0.59327 0.93995 0.0
C2005 C 0.25467 0.62571 0.9382 0.0
C2006 C 0.30477 0.73786 0.93903 0.0
H2007 H 0.50329 0.85888 0.91699 0.0
H2008 H 0.44699 0.79375 0.92442 0.0
H2009 H 0.34485 0.8024 0.93983 0.0
H2010 H 0.1563 0.63353 0.937 0.0
H2011 H 0.222 0.69424 0.93348 0.0
H2012 H 0.31951 0.67146 0.92119 0.0
C2013 C 0.44089 0.81784 0.92171 0.0
C2014 C 0.33973 0.77394 0.93578 0.0
C2015 C 0.47298 0.85501 0.91753 0.0
C2016 C 0.18353 0.63096 0.93751 0.0
C2017 C 0.22112 0.66569 0.93552 0.0
C2018 C 0.32521 0.69977 0.9255 0.0
C2019 C 0.40144 0.81225 0.9226 0.0
C2020 C 0.36725 0.77343 0.92713 0.0
C2021 C 0.25705 0.66348 0.93591 0.0
C2022 C 0.29661 0.70062 0.93365 0.0
H2023 H 0.42013 0.90513 0.91228 0.0
H2024 H 0.36412 0.8402 0.91947 0.0
H2025 H 0.38113 0.7349 0.91554 0.0
H2026 H 0.21584 0.56217 0.94219 0.0
H2027 H 0.28198 0.62328 0.9386 0.0
C2028 C 0.55297 0.14765 0.09528 0.0
C2029 C 0.58537 0.14087 0.09801 0.0
C2030 C 0.56046 0.18474 0.09025 0.0
C2031 C 0.63744 0.29217 0.08892 0.0
H2032 H 0.56515 0.29525 0.06387 0.0
C2033 C 0.64423 0.44233 0.0735 0.0
C2034 C 0.60612 0.44031 0.07371 0.0
C2035 C 0.64674 0.40672 0.07437 0.0
C2036 C 0.58564 0.29484 0.07084 0.0
H2037 H 0.651 0.16727 0.09759 0.0
H2038 H 0.66417 0.23258 0.08875 0.0
H2039 H 0.56059 0.23026 0.06918 0.0
H2040 H 0.54088 0.39952 0.0751 0.0
H2041 H 0.54526 0.33758 0.07653 0.0
H2042 H 0.66145 0.35659 0.09089 0.0
C2043 C 0.63301 0.20907 0.09052 0.0
C2044 C 0.58303 0.25773 0.07388 0.0
C2045 C 0.62547 0.17175 0.0955 0.0
C2046 C 0.57064 0.40203 0.07467 0.0
C2047 C 0.57314 0.36654 0.07547 0.0
C2048 C 0.64007 0.32937 0.08587 0.0
C2049 C 0.60052 0.21587 0.08787 0.0
C2050 C 0.60796 0.25586 0.08324 0.0
C2051 C 0.61117 0.36852 0.07539 0.0
C2052 C 0.61324 0.33076 0.0771 0.0
H2053 H 0.52176 0.12418 0.09701 0.0
H2054 H 0.53486 0.18938 0.08848 0.0
H2055 H 0.65687 0.29154 0.09622 0.0
H2056 H 0.67207 0.4714 0.0726 0.0
H2057 H 0.67642 0.409 0.07423 0.0
C2058 C 0.41023 0.55754 0.27494 0.0
C2059 C 0.44806 0.59341 0.27616 0.0
C2060 C 0.37457 0.55949 0.27403 0.0
C2061 C 0.33655 0.62634 0.26402 0.0
H2062 H 0.23772 0.54502 0.28029 0.0
C2063 C 0.17966 0.61276 0.25504 0.0
C2064 C 0.14865 0.57283 0.25231 0.0
C2065 C 0.21682 0.6197 0.25987 0.0
C2066 C 0.26511 0.56794 0.27571 0.0
H2067 H 0.47818 0.65945 0.27759 0.0
H2068 H 0.41549 0.66285 0.2758 0.0
H2069 H 0.30261 0.54955 0.28545 0.0
H2070 H 0.13156 0.50885 0.25277 0.0
H2071 H 0.19654 0.52092 0.26104 0.0
H2072 H 0.29878 0.64379 0.25396 0.0
C2073 C 0.41368 0.6333 0.27553 0.0
C2074 C 0.30216 0.57054 0.27866 0.0
C2075 C 0.44947 0.63134 0.2765 0.0
C2076 C 0.15514 0.53995 0.25467 0.0
C2077 C 0.19211 0.54684 0.25956 0.0
C2078 C 0.29942 0.62374 0.26107 0.0
C2079 C 0.37593 0.59735 0.27427 0.0
C2080 C 0.33801 0.59892 0.27256 0.0
C2081 C 0.22337 0.58676 0.26215 0.0
C2082 C 0.26323 0.59368 0.26661 0.0
H2083 H 0.40824 0.52794 0.27441 0.0
H2084 H 0.34597 0.53134 0.27279 0.0
H2085 H 0.36371 0.64832 0.25913 0.0
H2086 H 0.17544 0.63865 0.25322 0.0
H2087 H 0.24042 0.65075 0.26182 0.0
loop_
_geom_bond_atom_site_label_1
_geom_bond_atom_site_label_2
_geom_bond_distance
_geom_bond_site_symmetry_2
_ccdc_geom_bond_type
C0 C2 1.422 . S
C0 C4 1.415 . S
C0 N6 1.369 . S
C1 C2 1.421 . S
C1 C3 1.417 . S
C1 C13 1.422 1_565 S
C2 C0 1.422 . S
C2 C1 1.421 . S
C2 N12 1.359 1_565 S
C3 C1 1.417 . S
C3 C5 1.329 . S
C3 H22 0.930 . S
C4 C0 1.415 . S
C4 C5 1.437 . S
C4 C8 1.413 . S
C5 C3 1.329 . S
C5 C4 1.437 . S
C5 H27 0.929 . S
N6 C0 1.369 . S
N6 C7 1.338 . S
N6 Gd11 2.622 1_565 S
C7 N6 1.338 . S
C7 C9 1.378 . S
C7 H19 0.929 . S
C8 C4 1.413 . S
C8 C9 1.348 . S
C8 H24 0.931 . S
C9 C7 1.378 . S
C9 C8 1.348 . S
C9 H25 0.930 . S
Gd10 N30 2.622 1_565 S
Gd10 N37 2.570 . S
Gd10 O44 2.353 . S
Gd10 O45 2.468 . S
Gd10 O46 2.427 . S
Gd10 O48 2.388 1_565 S
Gd10 O49 2.386 1_565 S
Gd10 O53 2.307 . S
Gd10 C63 2.805 . S
Gd11 N6 2.622 1_545 S
Gd11 N12 2.570 . S
Gd11 O43 2.386 1_545 S
Gd11 O47 2.307 . S
Gd11 O50 2.353 . S
Gd11 O51 2.468 . S
Gd11 O52 2.427 . S
Gd11 O54 2.388 1_545 S
Gd11 C75 2.805 . S
N12 C2 1.359 1_545 S
N12 Gd11 2.570 . S
N12 C14 1.343 . S
C13 C1 1.422 1_545 S
C13 C15 1.321 . S
C13 H21 0.931 . S
C14 N12 1.343 . S
C14 C15 1.390 . S
C14 H16 0.931 . S
C15 C13 1.321 . S
C15 C14 1.390 . S
C15 H17 0.930 . S
H16 C14 0.931 . S
H17 C15 0.930 . S
H18 C41 0.931 . S
H19 C7 0.929 . S
H20 C42 0.930 . S
H21 C13 0.931 . S
H22 C3 0.930 . S
H23 C32 0.929 . S
H24 C8 0.931 . S
H25 C9 0.930 . S
H26 C64 0.930 . S
H27 C5 0.929 . S
H28 C33 0.931 . S
H29 C34 0.930 . S
N30 Gd10 2.622 1_545 S
N30 C31 1.369 . S
N30 C32 1.338 . S
C31 N30 1.369 . S
C31 C35 1.415 . S
C31 C38 1.422 . S
C32 H23 0.929 . S
C32 N30 1.338 . S
C32 C34 1.378 . S
C33 H28 0.931 . S
C33 C34 1.348 . S
C33 C35 1.413 . S
C34 H29 0.930 . S
C34 C32 1.378 . S
C34 C33 1.348 . S
C35 C31 1.415 . S
C35 C33 1.413 . S
C35 C65 1.437 . S
H36 C65 0.929 . S
N37 Gd10 2.570 . S
N37 C38 1.359 1_565 S
N37 C41 1.343 . S
C38 C31 1.422 . S
C38 N37 1.359 1_545 S
C38 C40 1.421 . S
C39 C40 1.422 1_565 S
C39 C42 1.321 . S
C39 H66 0.931 . S
C40 C38 1.421 . S
C40 C39 1.422 1_545 S
C40 C64 1.417 . S
C41 H18 0.931 . S
C41 N37 1.343 . S
C41 C42 1.390 . S
C42 H20 0.930 . S
C42 C39 1.321 . S
C42 C41 1.390 . S
O43 Gd11 2.386 1_565 S
O43 C55 1.265 . S
O44 Gd10 2.353 . S
O44 C55 1.242 . S
O45 Gd10 2.468 . S
O45 C63 1.263 . S
O46 Gd10 2.427 . S
O46 C63 1.252 . S
O47 Gd11 2.307 . S
O47 C56 1.261 . S
O48 Gd10 2.388 1_545 S
O48 C56 1.252 . S
O49 Gd10 2.386 1_545 S
O49 C67 1.265 . S
O50 Gd11 2.353 . S
O50 C67 1.242 . S
O51 Gd11 2.468 . S
O51 C75 1.263 . S
O52 Gd11 2.427 . S
O52 C75 1.252 . S
O53 Gd10 2.307 . S
O53 C68 1.261 . S
O54 Gd11 2.388 1_565 S
O54 C68 1.252 . S
C55 O43 1.265 . S
C55 O44 1.242 . S
C56 O47 1.261 . S
C56 O48 1.252 . S
C57 C60 1.394 . S
C57 C62 1.370 . S
C57 C63 1.500 . S
C58 C61 1.383 . S
C58 C62 1.395 . S
C59 C60 1.396 . S
C59 C61 1.365 . S
C59 H76 0.929 . S
C60 C57 1.394 . S
C60 C59 1.396 . S
C60 H77 0.930 . S
C61 C58 1.383 . S
C61 C59 1.365 . S
C61 H78 0.931 . S
C62 C57 1.370 . S
C62 C58 1.395 . S
C62 H79 0.930 . S
C63 Gd10 2.805 . S
C63 O45 1.263 . S
C63 O46 1.252 . S
C63 C57 1.500 . S
C64 H26 0.930 . S
C64 C40 1.417 . S
C64 C65 1.329 . S
C65 C35 1.437 . S
C65 H36 0.929 . S
C65 C64 1.329 . S
H66 C39 0.931 . S
C67 O49 1.265 . S
C67 O50 1.242 . S
C68 O53 1.261 . S
C68 O54 1.252 . S
C69 C72 1.394 . S
C69 C74 1.370 . S
C69 C75 1.500 . S
C70 C73 1.383 . S
C70 C74 1.395 . S
C71 C72 1.396 . S
C71 C73 1.365 . S
C71 H80 0.929 . S
C72 C69 1.394 . S
C72 C71 1.396 . S
C72 H81 0.930 . S
C73 C70 1.383 . S
C73 C71 1.365 . S
C73 H82 0.931 . S
C74 C69 1.370 . S
C74 C70 1.395 . S
C74 H83 0.930 . S
C75 Gd11 2.805 . S
C75 O51 1.263 . S
C75 O52 1.252 . S
C75 C69 1.500 . S
H76 C59 0.929 . S
H77 C60 0.930 . S
H78 C61 0.931 . S
H79 C62 0.930 . S
H80 C71 0.929 . S
H81 C72 0.930 . S
H82 C73 0.931 . S
H83 C74 0.930 . S
C84 C86 1.422 . S
C84 C88 1.415 . S
C84 N90 1.369 . S
C85 C86 1.421 . S
C85 C87 1.417 . S
C85 C97 1.422 . S
C86 C84 1.422 . S
C86 C85 1.421 . S
C86 N96 1.359 . S
C87 C85 1.417 . S
C87 C89 1.329 . S
C87 H106 0.930 . S
C88 C84 1.415 . S
C88 C89 1.437 . S
C88 C92 1.413 . S
C89 C87 1.329 . S
C89 C88 1.437 . S
C89 H111 0.929 . S
N90 C84 1.369 . S
N90 C91 1.338 . S
N90 Gd95 2.622 . S
C91 N90 1.338 . S
C91 C93 1.378 . S
C91 H103 0.929 . S
C92 C88 1.413 . S
C92 C93 1.348 . S
C92 H108 0.931 . S
C93 C91 1.378 . S
C93 C92 1.348 . S
C93 H109 0.930 . S
Gd94 N114 2.622 . S
Gd94 N121 2.570 . S
Gd94 O128 2.353 . S
Gd94 O129 2.468 . S
Gd94 O130 2.427 . S
Gd94 O132 2.388 . S
Gd94 O133 2.386 . S
Gd94 O137 2.307 . S
Gd94 C147 2.805 . S
Gd95 N90 2.622 . S
Gd95 N96 2.570 . S
Gd95 O127 2.386 . S
Gd95 O131 2.307 . S
Gd95 O134 2.353 . S
Gd95 O135 2.468 . S
Gd95 O136 2.427 . S
Gd95 O138 2.388 . S
Gd95 C159 2.805 . S
N96 C86 1.359 . S
N96 Gd95 2.570 . S
N96 C98 1.343 . S
C97 C85 1.422 . S
C97 C99 1.321 . S
C97 H105 0.931 . S
C98 N96 1.343 . S
C98 C99 1.390 . S
C98 H100 0.931 . S
C99 C97 1.321 . S
C99 C98 1.390 . S
C99 H101 0.930 . S
H100 C98 0.931 . S
H101 C99 0.930 . S
H102 C125 0.931 . S
H103 C91 0.929 . S
H104 C126 0.930 . S
H105 C97 0.931 . S
H106 C87 0.930 . S
H107 C116 0.929 . S
H108 C92 0.931 . S
H109 C93 0.930 . S
H110 C148 0.930 . S
H111 C89 0.929 . S
H112 C117 0.931 . S
H113 C118 0.930 . S
N114 Gd94 2.622 . S
N114 C115 1.369 . S
N114 C116 1.338 . S
C115 N114 1.369 . S
C115 C119 1.415 . S
C115 C122 1.422 . S
C116 H107 0.929 . S
C116 N114 1.338 . S
C116 C118 1.378 . S
C117 H112 0.931 . S
C117 C118 1.348 . S
C117 C119 1.413 . S
C118 H113 0.930 . S
C118 C116 1.378 . S
C118 C117 1.348 . S
C119 C115 1.415 . S
C119 C117 1.413 . S
C119 C149 1.437 . S
H120 C149 0.929 . S
N121 Gd94 2.570 . S
N121 C122 1.359 . S
N121 C125 1.343 . S
C122 C115 1.422 . S
C122 N121 1.359 . S
C122 C124 1.421 . S
C123 C124 1.422 . S
C123 C126 1.321 . S
C123 H150 0.931 . S
C124 C122 1.421 . S
C124 C123 1.422 . S
C124 C148 1.417 . S
C125 H102 0.931 . S
C125 N121 1.343 . S
C125 C126 1.390 . S
C126 H104 0.930 . S
C126 C123 1.321 . S
C126 C125 1.390 . S
O127 Gd95 2.386 . S
O127 C139 1.265 . S
O128 Gd94 2.353 . S
O128 C139 1.242 . S
O129 Gd94 2.468 . S
O129 C147 1.263 . S
O130 Gd94 2.427 . S
O130 C147 1.252 . S
O131 Gd95 2.307 . S
O131 C140 1.261 . S
O132 Gd94 2.388 . S
O132 C140 1.252 . S
O133 Gd94 2.386 . S
O133 C151 1.265 . S
O134 Gd95 2.353 . S
O134 C151 1.242 . S
O135 Gd95 2.468 . S
O135 C159 1.263 . S
O136 Gd95 2.427 . S
O136 C159 1.252 . S
O137 Gd94 2.307 . S
O137 C152 1.261 . S
O138 Gd95 2.388 . S
O138 C152 1.252 . S
C139 O127 1.265 . S
C139 O128 1.242 . S
C140 O131 1.261 . S
C140 O132 1.252 . S
C141 C144 1.394 . S
C141 C146 1.370 . S
C141 C147 1.500 . S
C142 C145 1.383 . S
C142 C146 1.395 . S
C143 C144 1.396 . S
C143 C145 1.365 . S
C143 H160 0.929 . S
C144 C141 1.394 . S
C144 C143 1.396 . S
C144 H161 0.930 . S
C145 C142 1.383 . S
C145 C143 1.365 . S
C145 H162 0.931 . S
C146 C141 1.370 . S
C146 C142 1.395 . S
C146 H163 0.930 . S
C147 Gd94 2.805 . S
C147 O129 1.263 . S
C147 O130 1.252 . S
C147 C141 1.500 . S
C148 H110 0.930 . S
C148 C124 1.417 . S
C148 C149 1.329 . S
C149 C119 1.437 . S
C149 H120 0.929 . S
C149 C148 1.329 . S
H150 C123 0.931 . S
C151 O133 1.265 . S
C151 O134 1.242 . S
C152 O137 1.261 . S
C152 O138 1.252 . S
C153 C156 1.394 . S
C153 C158 1.370 . S
C153 C159 1.500 . S
C154 C157 1.383 . S
C154 C158 1.395 . S
C155 C156 1.396 . S
C155 C157 1.365 . S
C155 H164 0.929 . S
C156 C153 1.394 . S
C156 C155 1.396 . S
C156 H165 0.930 . S
C157 C154 1.383 . S
C157 C155 1.365 . S
C157 H166 0.931 . S
C158 C153 1.370 . S
C158 C154 1.395 . S
C158 H167 0.930 . S
C159 Gd95 2.805 . S
C159 O135 1.263 . S
C159 O136 1.252 . S
C159 C153 1.500 . S
H160 C143 0.929 . S
H161 C144 0.930 . S
H162 C145 0.931 . S
H163 C146 0.930 . S
H164 C155 0.929 . S
H165 C156 0.930 . S
H166 C157 0.931 . S
H167 C158 0.930 . S
C168 C170 1.422 . S
C168 C172 1.415 . S
C168 N174 1.369 . S
C169 C170 1.421 . S
C169 C171 1.417 . S
C169 C181 1.422 1_455 S
C170 C168 1.422 . S
C170 C169 1.421 . S
C170 N180 1.359 1_455 S
C171 C169 1.417 . S
C171 C173 1.329 . S
C171 H190 0.930 . S
C172 C168 1.415 . S
C172 C173 1.437 . S
C172 C176 1.413 . S
C173 C171 1.329 . S
C173 C172 1.437 . S
C173 H195 0.929 . S
N174 C168 1.369 . S
N174 C175 1.338 . S
N174 Gd179 2.622 1_455 S
C175 N174 1.338 . S
C175 C177 1.378 . S
C175 H187 0.929 . S
C176 C172 1.413 . S
C176 C177 1.348 . S
C176 H192 0.931 . S
C177 C175 1.378 . S
C177 C176 1.348 . S
C177 H193 0.930 . S
Gd178 N198 2.622 1_455 S
Gd178 N205 2.570 . S
Gd178 O212 2.353 . S
Gd178 O213 2.468 . S
Gd178 O214 2.427 . S
Gd178 O216 2.388 1_455 S
Gd178 O217 2.386 1_455 S
Gd178 O221 2.307 . S
Gd178 C231 2.805 . S
Gd179 N174 2.622 1_655 S
Gd179 N180 2.570 . S
Gd179 O211 2.386 1_655 S
Gd179 O215 2.307 . S
Gd179 O218 2.353 . S
Gd179 O219 2.468 . S
Gd179 O220 2.427 . S
Gd179 O222 2.388 1_655 S
Gd179 C243 2.805 . S
N180 C170 1.359 1_655 S
N180 Gd179 2.570 . S
N180 C182 1.343 . S
C181 C169 1.422 1_655 S
C181 C183 1.321 . S
C181 H189 0.931 . S
C182 N180 1.343 . S
C182 C183 1.390 . S
C182 H184 0.931 . S
C183 C181 1.321 . S
C183 C182 1.390 . S
C183 H185 0.930 . S
H184 C182 0.931 . S
H185 C183 0.930 . S
H186 C209 0.931 . S
H187 C175 0.929 . S
H188 C210 0.930 . S
H189 C181 0.931 . S
H190 C171 0.930 . S
H191 C200 0.929 . S
H192 C176 0.931 . S
H193 C177 0.930 . S
H194 C232 0.930 . S
H195 C173 0.929 . S
H196 C201 0.931 . S
H197 C202 0.930 . S
N198 Gd178 2.622 1_655 S
N198 C199 1.369 . S
N198 C200 1.338 . S
C199 N198 1.369 . S
C199 C203 1.415 . S
C199 C206 1.422 . S
C200 H191 0.929 . S
C200 N198 1.338 . S
C200 C202 1.378 . S
C201 H196 0.931 . S
C201 C202 1.348 . S
C201 C203 1.413 . S
C202 H197 0.930 . S
C202 C200 1.378 . S
C202 C201 1.348 . S
C203 C199 1.415 . S
C203 C201 1.413 . S
C203 C233 1.437 . S
H204 C233 0.929 . S
N205 Gd178 2.570 . S
N205 C206 1.359 1_455 S
N205 C209 1.343 . S
C206 C199 1.422 . S
C206 N205 1.359 1_655 S
C206 C208 1.421 . S
C207 C208 1.422 1_455 S
C207 C210 1.321 . S
C207 H234 0.931 . S
C208 C206 1.421 . S
C208 C207 1.422 1_655 S
C208 C232 1.417 . S
C209 H186 0.931 . S
C209 N205 1.343 . S
C209 C210 1.390 . S
C210 H188 0.930 . S
C210 C207 1.321 . S
C210 C209 1.390 . S
O211 Gd179 2.386 1_455 S
O211 C223 1.265 . S
O212 Gd178 2.353 . S
O212 C223 1.242 . S
O213 Gd178 2.468 . S
O213 C231 1.263 . S
O214 Gd178 2.427 . S
O214 C231 1.252 . S
O215 Gd179 2.307 . S
O215 C224 1.261 . S
O216 Gd178 2.388 1_655 S
O216 C224 1.252 . S
O217 Gd178 2.386 1_655 S
O217 C235 1.265 . S
O218 Gd179 2.353 . S
O218 C235 1.242 . S
O219 Gd179 2.468 . S
O219 C243 1.263 . S
O220 Gd179 2.427 . S
O220 C243 1.252 . S
O221 Gd178 2.307 . S
O221 C236 1.261 . S
O222 Gd179 2.388 1_455 S
O222 C236 1.252 . S
C223 O211 1.265 . S
C223 O212 1.242 . S
C224 O215 1.261 . S
C224 O216 1.252 . S
C225 C228 1.394 . S
C225 C230 1.370 . S
C225 C231 1.500 . S
C226 C229 1.383 . S
C226 C230 1.395 . S
C227 C228 1.396 . S
C227 C229 1.365 . S
C227 H244 0.929 . S
C228 C225 1.394 . S
C228 C227 1.396 . S
C228 H245 0.930 . S
C229 C226 1.383 . S
C229 C227 1.365 . S
C229 H246 0.931 . S
C230 C225 1.370 . S
C230 C226 1.395 . S
C230 H247 0.930 . S
C231 Gd178 2.805 . S
C231 O213 1.263 . S
C231 O214 1.252 . S
C231 C225 1.500 . S
C232 H194 0.930 . S
C232 C208 1.417 . S
C232 C233 1.329 . S
C233 C203 1.437 . S
C233 H204 0.929 . S
C233 C232 1.329 . S
H234 C207 0.931 . S
C235 O217 1.265 . S
C235 O218 1.242 . S
C236 O221 1.261 . S
C236 O222 1.252 . S
C237 C240 1.394 . S
C237 C242 1.370 . S
C237 C243 1.500 . S
C238 C241 1.383 . S
C238 C242 1.395 . S
C239 C240 1.396 . S
C239 C241 1.365 . S
C239 H248 0.929 . S
C240 C237 1.394 . S
C240 C239 1.396 . S
C240 H249 0.930 . S
C241 C238 1.383 . S
C241 C239 1.365 . S
C241 H250 0.931 . S
C242 C237 1.370 . S
C242 C238 1.395 . S
C242 H251 0.930 . S
C243 Gd179 2.805 . S
C243 O219 1.263 . S
C243 O220 1.252 . S
C243 C237 1.500 . S
H244 C227 0.929 . S
H245 C228 0.930 . S
H246 C229 0.931 . S
H247 C230 0.930 . S
H248 C239 0.929 . S
H249 C240 0.930 . S
H250 C241 0.931 . S
H251 C242 0.930 . S
C252 C254 1.422 . S
C252 C256 1.415 . S
C252 N258 1.369 . S
C253 C254 1.421 . S
C253 C255 1.417 . S
C253 C265 1.422 1_545 S
C254 C252 1.422 . S
C254 C253 1.421 . S
C254 N264 1.359 1_545 S
C255 C253 1.417 . S
C255 C257 1.329 . S
C255 H274 0.930 . S
C256 C252 1.415 . S
C256 C257 1.437 . S
C256 C260 1.413 . S
C257 C255 1.329 . S
C257 C256 1.437 . S
C257 H279 0.929 . S
N258 C252 1.369 . S
N258 C259 1.338 . S
N258 Gd263 2.622 1_545 S
C259 N258 1.338 . S
C259 C261 1.378 . S
C259 H271 0.929 . S
C260 C256 1.413 . S
C260 C261 1.348 . S
C260 H276 0.931 . S
C261 C259 1.378 . S
C261 C260 1.348 . S
C261 H277 0.930 . S
Gd262 N282 2.622 1_545 S
Gd262 N289 2.570 . S
Gd262 O296 2.353 . S
Gd262 O297 2.468 . S
Gd262 O298 2.427 . S
Gd262 O300 2.388 1_545 S
Gd262 O301 2.386 1_545 S
Gd262 O305 2.307 . S
Gd262 C315 2.805 . S
Gd263 N258 2.622 1_565 S
Gd263 N264 2.570 . S
Gd263 O295 2.386 1_565 S
Gd263 O299 2.307 . S
Gd263 O302 2.353 . S
Gd263 O303 2.468 . S
Gd263 O304 2.427 . S
Gd263 O306 2.388 1_565 S
Gd263 C327 2.805 . S
N264 C254 1.359 1_565 S
N264 Gd263 2.570 . S
N264 C266 1.343 . S
C265 C253 1.422 1_565 S
C265 C267 1.321 . S
C265 H273 0.931 . S
C266 N264 1.343 . S
C266 C267 1.390 . S
C266 H268 0.931 . S
C267 C265 1.321 . S
C267 C266 1.390 . S
C267 H269 0.930 . S
H268 C266 0.931 . S
H269 C267 0.930 . S
H270 C293 0.931 . S
H271 C259 0.929 . S
H272 C294 0.930 . S
H273 C265 0.931 . S
H274 C255 0.930 . S
H275 C284 0.929 . S
H276 C260 0.931 . S
H277 C261 0.930 . S
H278 C316 0.930 . S
H279 C257 0.929 . S
H280 C285 0.931 . S
H281 C286 0.930 . S
N282 Gd262 2.622 1_565 S
N282 C283 1.369 . S
N282 C284 1.338 . S
C283 N282 1.369 . S
C283 C287 1.415 . S
C283 C290 1.422 . S
C284 H275 0.929 . S
C284 N282 1.338 . S
C284 C286 1.378 . S
C285 H280 0.931 . S
C285 C286 1.348 . S
C285 C287 1.413 . S
C286 H281 0.930 . S
C286 C284 1.378 . S
C286 C285 1.348 . S
C287 C283 1.415 . S
C287 C285 1.413 . S
C287 C317 1.437 . S
H288 C317 0.929 . S
N289 Gd262 2.570 . S
N289 C290 1.359 1_545 S
N289 C293 1.343 . S
C290 C283 1.422 . S
C290 N289 1.359 1_565 S
C290 C292 1.421 . S
C291 C292 1.422 1_545 S
C291 C294 1.321 . S
C291 H318 0.931 . S
C292 C290 1.421 . S
C292 C291 1.422 1_565 S
C292 C316 1.417 . S
C293 H270 0.931 . S
C293 N289 1.343 . S
C293 C294 1.390 . S
C294 H272 0.930 . S
C294 C291 1.321 . S
C294 C293 1.390 . S
O295 Gd263 2.386 1_545 S
O295 C307 1.265 . S
O296 Gd262 2.353 . S
O296 C307 1.242 . S
O297 Gd262 2.468 . S
O297 C315 1.263 . S
O298 Gd262 2.427 . S
O298 C315 1.252 . S
O299 Gd263 2.307 . S
O299 C308 1.261 . S
O300 Gd262 2.388 1_565 S
O300 C308 1.252 . S
O301 Gd262 2.386 1_565 S
O301 C319 1.265 . S
O302 Gd263 2.353 . S
O302 C319 1.242 . S
O303 Gd263 2.468 . S
O303 C327 1.263 . S
O304 Gd263 2.427 . S
O304 C327 1.252 . S
O305 Gd262 2.307 . S
O305 C320 1.261 . S
O306 Gd263 2.388 1_545 S
O306 C320 1.252 . S
C307 O295 1.265 . S
C307 O296 1.242 . S
C308 O299 1.261 . S
C308 O300 1.252 . S
C309 C312 1.394 . S
C309 C314 1.370 . S
C309 C315 1.500 . S
C310 C313 1.383 . S
C310 C314 1.395 . S
C311 C312 1.396 . S
C311 C313 1.365 . S
C311 H328 0.929 . S
C312 C309 1.394 . S
C312 C311 1.396 . S
C312 H329 0.930 . S
C313 C310 1.383 . S
C313 C311 1.365 . S
C313 H330 0.931 . S
C314 C309 1.370 . S
C314 C310 1.395 . S
C314 H331 0.930 . S
C315 Gd262 2.805 . S
C315 O297 1.263 . S
C315 O298 1.252 . S
C315 C309 1.500 . S
C316 H278 0.930 . S
C316 C292 1.417 . S
C316 C317 1.329 . S
C317 C287 1.437 . S
C317 H288 0.929 . S
C317 C316 1.329 . S
H318 C291 0.931 . S
C319 O301 1.265 . S
C319 O302 1.242 . S
C320 O305 1.261 . S
C320 O306 1.252 . S
C321 C324 1.394 . S
C321 C326 1.370 . S
C321 C327 1.500 . S
C322 C325 1.383 . S
C322 C326 1.395 . S
C323 C324 1.396 . S
C323 C325 1.365 . S
C323 H332 0.929 . S
C324 C321 1.394 . S
C324 C323 1.396 . S
C324 H333 0.930 . S
C325 C322 1.383 . S
C325 C323 1.365 . S
C325 H334 0.931 . S
C326 C321 1.370 . S
C326 C322 1.395 . S
C326 H335 0.930 . S
C327 Gd263 2.805 . S
C327 O303 1.263 . S
C327 O304 1.252 . S
C327 C321 1.500 . S
H328 C311 0.929 . S
H329 C312 0.930 . S
H330 C313 0.931 . S
H331 C314 0.930 . S
H332 C323 0.929 . S
H333 C324 0.930 . S
H334 C325 0.931 . S
H335 C326 0.930 . S
C336 C338 1.422 . S
C336 C340 1.415 . S
C336 N342 1.369 . S
C337 C338 1.421 . S
C337 C339 1.417 . S
C337 C349 1.422 . S
C338 C336 1.422 . S
C338 C337 1.421 . S
C338 N348 1.359 . S
C339 C337 1.417 . S
C339 C341 1.329 . S
C339 H358 0.930 . S
C340 C336 1.415 . S
C340 C341 1.437 . S
C340 C344 1.413 . S
C341 C339 1.329 . S
C341 C340 1.437 . S
C341 H363 0.929 . S
N342 C336 1.369 . S
N342 C343 1.338 . S
N342 Gd347 2.622 . S
C343 N342 1.338 . S
C343 C345 1.378 . S
C343 H355 0.929 . S
C344 C340 1.413 . S
C344 C345 1.348 . S
C344 H360 0.931 . S
C345 C343 1.378 . S
C345 C344 1.348 . S
C345 H361 0.930 . S
Gd346 N366 2.622 . S
Gd346 N373 2.570 . S
Gd346 O380 2.353 . S
Gd346 O381 2.468 . S
Gd346 O382 2.427 . S
Gd346 O384 2.388 . S
Gd346 O385 2.386 . S
Gd346 O389 2.307 . S
Gd346 C399 2.805 . S
Gd347 N342 2.622 . S
Gd347 N348 2.570 . S
Gd347 O379 2.386 . S
Gd347 O383 2.307 . S
Gd347 O386 2.353 . S
Gd347 O387 2.468 . S
Gd347 O388 2.427 . S
Gd347 O390 2.388 . S
Gd347 C411 2.805 . S
N348 C338 1.359 . S
N348 Gd347 2.570 . S
N348 C350 1.343 . S
C349 C337 1.422 . S
C349 C351 1.321 . S
C349 H357 0.931 . S
C350 N348 1.343 . S
C350 C351 1.390 . S
C350 H352 0.931 . S
C351 C349 1.321 . S
C351 C350 1.390 . S
C351 H353 0.930 . S
H352 C350 0.931 . S
H353 C351 0.930 . S
H354 C377 0.931 . S
H355 C343 0.929 . S
H356 C378 0.930 . S
H357 C349 0.931 . S
H358 C339 0.930 . S
H359 C368 0.929 . S
H360 C344 0.931 . S
H361 C345 0.930 . S
H362 C400 0.930 . S
H363 C341 0.929 . S
H364 C369 0.931 . S
H365 C370 0.930 1_556 S
N366 Gd346 2.622 . S
N366 C367 1.369 . S
N366 C368 1.338 . S
C367 N366 1.369 . S
C367 C371 1.415 . S
C367 C374 1.422 . S
C368 H359 0.929 . S
C368 N366 1.338 . S
C368 C370 1.378 . S
C369 H364 0.931 . S
C369 C370 1.348 . S
C369 C371 1.413 . S
C370 H365 0.930 1_554 S
C370 C368 1.378 . S
C370 C369 1.348 . S
C371 C367 1.415 . S
C371 C369 1.413 . S
C371 C401 1.437 . S
H372 C401 0.929 . S
N373 Gd346 2.570 . S
N373 C374 1.359 . S
N373 C377 1.343 . S
C374 C367 1.422 . S
C374 N373 1.359 . S
C374 C376 1.421 . S
C375 C376 1.422 . S
C375 C378 1.321 . S
C375 H402 0.931 . S
C376 C374 1.421 . S
C376 C375 1.422 . S
C376 C400 1.417 . S
C377 H354 0.931 . S
C377 N373 1.343 . S
C377 C378 1.390 . S
C378 H356 0.930 . S
C378 C375 1.321 . S
C378 C377 1.390 . S
O379 Gd347 2.386 . S
O379 C391 1.265 . S
O380 Gd346 2.353 . S
O380 C391 1.242 . S
O381 Gd346 2.468 . S
O381 C399 1.263 . S
O382 Gd346 2.427 . S
O382 C399 1.252 . S
O383 Gd347 2.307 . S
O383 C392 1.261 . S
O384 Gd346 2.388 . S
O384 C392 1.252 . S
O385 Gd346 2.386 . S
O385 C403 1.265 . S
O386 Gd347 2.353 . S
O386 C403 1.242 . S
O387 Gd347 2.468 . S
O387 C411 1.263 . S
O388 Gd347 2.427 . S
O388 C411 1.252 . S
O389 Gd346 2.307 . S
O389 C404 1.261 . S
O390 Gd347 2.388 . S
O390 C404 1.252 . S
C391 O379 1.265 . S
C391 O380 1.242 . S
C392 O383 1.261 . S
C392 O384 1.252 . S
C393 C396 1.394 . S
C393 C398 1.370 1_556 S
C393 C399 1.500 1_556 S
C394 C397 1.383 . S
C394 C398 1.395 1_556 S
C395 C396 1.396 . S
C395 C397 1.365 . S
C395 H412 0.929 . S
C396 C393 1.394 . S
C396 C395 1.396 . S
C396 H413 0.930 . S
C397 C394 1.383 . S
C397 C395 1.365 . S
C397 H414 0.931 . S
C398 C393 1.370 1_554 S
C398 C394 1.395 1_554 S
C398 H415 0.930 . S
C399 Gd346 2.805 . S
C399 O381 1.263 . S
C399 O382 1.252 . S
C399 C393 1.500 1_554 S
C400 H362 0.930 . S
C400 C376 1.417 . S
C400 C401 1.329 . S
C401 C371 1.437 . S
C401 H372 0.929 . S
C401 C400 1.329 . S
H402 C375 0.931 . S
C403 O385 1.265 . S
C403 O386 1.242 . S
C404 O389 1.261 . S
C404 O390 1.252 . S
C405 C408 1.394 . S
C405 C410 1.370 . S
C405 C411 1.500 . S
C406 C409 1.383 . S
C406 C410 1.395 . S
C407 C408 1.396 . S
C407 C409 1.365 . S
C407 H416 0.929 . S
C408 C405 1.394 . S
C408 C407 1.396 . S
C408 H417 0.930 . S
C409 C406 1.383 . S
C409 C407 1.365 . S
C409 H418 0.931 . S
C410 C405 1.370 . S
C410 C406 1.395 . S
C410 H419 0.930 . S
C411 Gd347 2.805 . S
C411 O387 1.263 . S
C411 O388 1.252 . S
C411 C405 1.500 . S
H412 C395 0.929 . S
H413 C396 0.930 . S
H414 C397 0.931 . S
H415 C398 0.930 . S
H416 C407 0.929 . S
H417 C408 0.930 . S
H418 C409 0.931 . S
H419 C410 0.930 . S
C420 C422 1.422 . S
C420 C424 1.415 . S
C420 N426 1.369 . S
C421 C422 1.421 . S
C421 C423 1.417 . S
C421 C433 1.422 1_655 S
C422 C420 1.422 . S
C422 C421 1.421 . S
C422 N432 1.359 1_655 S
C423 C421 1.417 . S
C423 C425 1.329 . S
C423 H442 0.930 . S
C424 C420 1.415 . S
C424 C425 1.437 . S
C424 C428 1.413 . S
C425 C423 1.329 . S
C425 C424 1.437 . S
C425 H447 0.929 . S
N426 C420 1.369 . S
N426 C427 1.338 . S
N426 Gd431 2.622 1_655 S
C427 N426 1.338 . S
C427 C429 1.378 . S
C427 H439 0.929 . S
C428 C424 1.413 . S
C428 C429 1.348 . S
C428 H444 0.931 . S
C429 C427 1.378 . S
C429 C428 1.348 . S
C429 H445 0.930 . S
Gd430 N450 2.622 1_655 S
Gd430 N457 2.570 . S
Gd430 O464 2.353 . S
Gd430 O465 2.468 . S
Gd430 O466 2.427 . S
Gd430 O468 2.388 1_655 S
Gd430 O469 2.386 1_655 S
Gd430 O473 2.307 . S
Gd430 C483 2.805 . S
Gd431 N426 2.622 1_455 S
Gd431 N432 2.570 . S
Gd431 O463 2.386 1_455 S
Gd431 O467 2.307 . S
Gd431 O470 2.353 . S
Gd431 O471 2.468 . S
Gd431 O472 2.427 . S
Gd431 O474 2.388 1_455 S
Gd431 C495 2.805 . S
N432 C422 1.359 1_455 S
N432 Gd431 2.570 . S
N432 C434 1.343 . S
C433 C421 1.422 1_455 S
C433 C435 1.321 . S
C433 H441 0.931 . S
C434 N432 1.343 . S
C434 C435 1.390 . S
C434 H436 0.931 . S
C435 C433 1.321 . S
C435 C434 1.390 . S
C435 H437 0.930 . S
H436 C434 0.931 . S
H437 C435 0.930 . S
H438 C461 0.931 . S
H439 C427 0.929 . S
H440 C462 0.930 . S
H441 C433 0.931 . S
H442 C423 0.930 . S
H443 C452 0.929 . S
H444 C428 0.931 . S
H445 C429 0.930 . S
H446 C484 0.930 . S
H447 C425 0.929 . S
H448 C453 0.931 . S
H449 C454 0.930 . S
N450 Gd430 2.622 1_455 S
N450 C451 1.369 . S
N450 C452 1.338 . S
C451 N450 1.369 . S
C451 C455 1.415 . S
C451 C458 1.422 . S
C452 H443 0.929 . S
C452 N450 1.338 . S
C452 C454 1.378 . S
C453 H448 0.931 . S
C453 C454 1.348 . S
C453 C455 1.413 . S
C454 H449 0.930 . S
C454 C452 1.378 . S
C454 C453 1.348 . S
C455 C451 1.415 . S
C455 C453 1.413 . S
C455 C485 1.437 . S
H456 C485 0.929 . S
N457 Gd430 2.570 . S
N457 C458 1.359 1_655 S
N457 C461 1.343 . S
C458 C451 1.422 . S
C458 N457 1.359 1_455 S
C458 C460 1.421 . S
C459 C460 1.422 1_655 S
C459 C462 1.321 . S
C459 H486 0.931 . S
C460 C458 1.421 . S
C460 C459 1.422 1_455 S
C460 C484 1.417 . S
C461 H438 0.931 . S
C461 N457 1.343 . S
C461 C462 1.390 . S
C462 H440 0.930 . S
C462 C459 1.321 . S
C462 C461 1.390 . S
O463 Gd431 2.386 1_655 S
O463 C475 1.265 . S
O464 Gd430 2.353 . S
O464 C475 1.242 . S
O465 Gd430 2.468 . S
O465 C483 1.263 . S
O466 Gd430 2.427 . S
O466 C483 1.252 . S
O467 Gd431 2.307 . S
O467 C476 1.261 . S
O468 Gd430 2.388 1_455 S
O468 C476 1.252 . S
O469 Gd430 2.386 1_455 S
O469 C487 1.265 . S
O470 Gd431 2.353 . S
O470 C487 1.242 . S
O471 Gd431 2.468 . S
O471 C495 1.263 . S
O472 Gd431 2.427 . S
O472 C495 1.252 . S
O473 Gd430 2.307 . S
O473 C488 1.261 . S
O474 Gd431 2.388 1_655 S
O474 C488 1.252 . S
C475 O463 1.265 . S
C475 O464 1.242 . S
C476 O467 1.261 . S
C476 O468 1.252 . S
C477 C480 1.394 . S
C477 C482 1.370 . S
C477 C483 1.500 . S
C478 C481 1.383 . S
C478 C482 1.395 . S
C479 C480 1.396 . S
C479 C481 1.365 . S
C479 H496 0.929 . S
C480 C477 1.394 . S
C480 C479 1.396 . S
C480 H497 0.930 . S
C481 C478 1.383 . S
C481 C479 1.365 . S
C481 H498 0.931 . S
C482 C477 1.370 . S
C482 C478 1.395 . S
C482 H499 0.930 . S
C483 Gd430 2.805 . S
C483 O465 1.263 . S
C483 O466 1.252 . S
C483 C477 1.500 . S
C484 H446 0.930 . S
C484 C460 1.417 . S
C484 C485 1.329 . S
C485 C455 1.437 . S
C485 H456 0.929 . S
C485 C484 1.329 . S
H486 C459 0.931 . S
C487 O469 1.265 . S
C487 O470 1.242 . S
C488 O473 1.261 . S
C488 O474 1.252 . S
C489 C492 1.394 . S
C489 C494 1.370 . S
C489 C495 1.500 . S
C490 C493 1.383 . S
C490 C494 1.395 . S
C491 C492 1.396 . S
C491 C493 1.365 . S
C491 H500 0.929 . S
C492 C489 1.394 . S
C492 C491 1.396 . S
C492 H501 0.930 . S
C493 C490 1.383 . S
C493 C491 1.365 . S
C493 H502 0.931 . S
C494 C489 1.370 . S
C494 C490 1.395 . S
C494 H503 0.930 . S
C495 Gd431 2.805 . S
C495 O471 1.263 . S
C495 O472 1.252 . S
C495 C489 1.500 . S
H496 C479 0.929 . S
H497 C480 0.930 . S
H498 C481 0.931 . S
H499 C482 0.930 . S
H500 C491 0.929 . S
H501 C492 0.930 . S
H502 C493 0.931 . S
H503 C494 0.930 . S
C504 C506 1.422 . S
C504 C508 1.415 . S
C504 N510 1.369 . S
C505 C506 1.421 . S
C505 C507 1.417 . S
C505 C517 1.422 1_455 S
C506 C504 1.422 . S
C506 C505 1.421 . S
C506 N516 1.359 1_455 S
C507 C505 1.417 . S
C507 C509 1.329 . S
C507 H526 0.930 . S
C508 C504 1.415 . S
C508 C509 1.437 . S
C508 C512 1.413 . S
C509 C507 1.329 . S
C509 C508 1.437 . S
C509 H531 0.929 . S
N510 C504 1.369 . S
N510 C511 1.338 . S
N510 Gd515 2.622 1_455 S
C511 N510 1.338 . S
C511 C513 1.378 . S
C511 H523 0.929 . S
C512 C508 1.413 . S
C512 C513 1.348 . S
C512 H528 0.931 . S
C513 C511 1.378 . S
C513 C512 1.348 . S
C513 H529 0.930 . S
Gd514 N534 2.622 1_455 S
Gd514 N541 2.570 . S
Gd514 O548 2.353 . S
Gd514 O549 2.468 . S
Gd514 O550 2.427 . S
Gd514 O552 2.388 1_455 S
Gd514 O553 2.386 1_455 S
Gd514 O557 2.307 . S
Gd514 C567 2.805 . S
Gd515 N510 2.622 1_655 S
Gd515 N516 2.570 . S
Gd515 O547 2.386 1_655 S
Gd515 O551 2.307 . S
Gd515 O554 2.353 . S
Gd515 O555 2.468 . S
Gd515 O556 2.427 . S
Gd515 O558 2.388 1_655 S
Gd515 C579 2.805 . S
N516 C506 1.359 1_655 S
N516 Gd515 2.570 . S
N516 C518 1.343 . S
C517 C505 1.422 1_655 S
C517 C519 1.321 . S
C517 H525 0.931 . S
C518 N516 1.343 . S
C518 C519 1.390 . S
C518 H520 0.931 . S
C519 C517 1.321 . S
C519 C518 1.390 . S
C519 H521 0.930 . S
H520 C518 0.931 . S
H521 C519 0.930 . S
H522 C545 0.931 . S
H523 C511 0.929 . S
H524 C546 0.930 . S
H525 C517 0.931 . S
H526 C507 0.930 . S
H527 C536 0.929 . S
H528 C512 0.931 . S
H529 C513 0.930 . S
H530 C568 0.930 . S
H531 C509 0.929 . S
H532 C537 0.931 . S
H533 C538 0.930 . S
N534 Gd514 2.622 1_655 S
N534 C535 1.369 . S
N534 C536 1.338 . S
C535 N534 1.369 . S
C535 C539 1.415 . S
C535 C542 1.422 . S
C536 H527 0.929 . S
C536 N534 1.338 . S
C536 C538 1.378 . S
C537 H532 0.931 . S
C537 C538 1.348 . S
C537 C539 1.413 . S
C538 H533 0.930 . S
C538 C536 1.378 . S
C538 C537 1.348 . S
C539 C535 1.415 . S
C539 C537 1.413 . S
C539 C569 1.437 . S
H540 C569 0.929 . S
N541 Gd514 2.570 . S
N541 C542 1.359 1_455 S
N541 C545 1.343 . S
C542 C535 1.422 . S
C542 N541 1.359 1_655 S
C542 C544 1.421 . S
C543 C544 1.422 1_455 S
C543 C546 1.321 . S
C543 H570 0.931 . S
C544 C542 1.421 . S
C544 C543 1.422 1_655 S
C544 C568 1.417 . S
C545 H522 0.931 . S
C545 N541 1.343 . S
C545 C546 1.390 . S
C546 H524 0.930 . S
C546 C543 1.321 . S
C546 C545 1.390 . S
O547 Gd515 2.386 1_455 S
O547 C559 1.265 . S
O548 Gd514 2.353 . S
O548 C559 1.242 . S
O549 Gd514 2.468 . S
O549 C567 1.263 . S
O550 Gd514 2.427 . S
O550 C567 1.252 . S
O551 Gd515 2.307 . S
O551 C560 1.261 . S
O552 Gd514 2.388 1_655 S
O552 C560 1.252 . S
O553 Gd514 2.386 1_655 S
O553 C571 1.265 . S
O554 Gd515 2.353 . S
O554 C571 1.242 . S
O555 Gd515 2.468 . S
O555 C579 1.263 . S
O556 Gd515 2.427 . S
O556 C579 1.252 . S
O557 Gd514 2.307 . S
O557 C572 1.261 . S
O558 Gd515 2.388 1_455 S
O558 C572 1.252 . S
C559 O547 1.265 . S
C559 O548 1.242 . S
C560 O551 1.261 . S
C560 O552 1.252 . S
C561 C564 1.394 . S
C561 C566 1.370 . S
C561 C567 1.500 . S
C562 C565 1.383 . S
C562 C566 1.395 . S
C563 C564 1.396 . S
C563 C565 1.365 . S
C563 H580 0.929 . S
C564 C561 1.394 . S
C564 C563 1.396 . S
C564 H581 0.930 . S
C565 C562 1.383 . S
C565 C563 1.365 . S
C565 H582 0.931 . S
C566 C561 1.370 . S
C566 C562 1.395 . S
C566 H583 0.930 . S
C567 Gd514 2.805 . S
C567 O549 1.263 . S
C567 O550 1.252 . S
C567 C561 1.500 . S
C568 H530 0.930 . S
C568 C544 1.417 . S
C568 C569 1.329 . S
C569 C539 1.437 . S
C569 H540 0.929 . S
C569 C568 1.329 . S
H570 C543 0.931 . S
C571 O553 1.265 . S
C571 O554 1.242 . S
C572 O557 1.261 . S
C572 O558 1.252 . S
C573 C576 1.394 . S
C573 C578 1.370 . S
C573 C579 1.500 . S
C574 C577 1.383 . S
C574 C578 1.395 . S
C575 C576 1.396 . S
C575 C577 1.365 . S
C575 H584 0.929 . S
C576 C573 1.394 . S
C576 C575 1.396 . S
C576 H585 0.930 . S
C577 C574 1.383 . S
C577 C575 1.365 . S
C577 H586 0.931 . S
C578 C573 1.370 . S
C578 C574 1.395 . S
C578 H587 0.930 . S
C579 Gd515 2.805 . S
C579 O555 1.263 . S
C579 O556 1.252 . S
C579 C573 1.500 . S
H580 C563 0.929 . S
H581 C564 0.930 . S
H582 C565 0.931 . S
H583 C566 0.930 . S
H584 C575 0.929 . S
H585 C576 0.930 . S
H586 C577 0.931 . S
H587 C578 0.930 . S
C588 C590 1.422 . S
C588 C592 1.415 . S
C588 N594 1.369 . S
C589 C590 1.421 . S
C589 C591 1.417 . S
C589 C601 1.422 1_545 S
C590 C588 1.422 . S
C590 C589 1.421 . S
C590 N600 1.359 1_545 S
C591 C589 1.417 . S
C591 C593 1.329 . S
C591 H610 0.930 . S
C592 C588 1.415 . S
C592 C593 1.437 . S
C592 C596 1.413 . S
C593 C591 1.329 . S
C593 C592 1.437 . S
C593 H615 0.929 . S
N594 C588 1.369 . S
N594 C595 1.338 . S
N594 Gd599 2.622 1_545 S
C595 N594 1.338 . S
C595 C597 1.378 . S
C595 H607 0.929 . S
C596 C592 1.413 . S
C596 C597 1.348 . S
C596 H612 0.931 . S
C597 C595 1.378 . S
C597 C596 1.348 . S
C597 H613 0.930 . S
Gd598 N618 2.622 1_545 S
Gd598 N625 2.570 . S
Gd598 O632 2.353 . S
Gd598 O633 2.468 . S
Gd598 O634 2.427 . S
Gd598 O636 2.388 1_545 S
Gd598 O637 2.386 1_545 S
Gd598 O641 2.307 . S
Gd598 C651 2.805 . S
Gd599 N594 2.622 1_565 S
Gd599 N600 2.570 . S
Gd599 O631 2.386 1_565 S
Gd599 O635 2.307 . S
Gd599 O638 2.353 . S
Gd599 O639 2.468 . S
Gd599 O640 2.427 . S
Gd599 O642 2.388 1_565 S
Gd599 C663 2.805 . S
N600 C590 1.359 1_565 S
N600 Gd599 2.570 . S
N600 C602 1.343 . S
C601 C589 1.422 1_565 S
C601 C603 1.321 . S
C601 H609 0.931 . S
C602 N600 1.343 . S
C602 C603 1.390 . S
C602 H604 0.931 . S
C603 C601 1.321 . S
C603 C602 1.390 . S
C603 H605 0.930 . S
H604 C602 0.931 . S
H605 C603 0.930 . S
H606 C629 0.931 . S
H607 C595 0.929 . S
H608 C630 0.930 . S
H609 C601 0.931 . S
H610 C591 0.930 . S
H611 C620 0.929 . S
H612 C596 0.931 . S
H613 C597 0.930 . S
H614 C652 0.930 . S
H615 C593 0.929 . S
H616 C621 0.931 . S
H617 C622 0.930 . S
N618 Gd598 2.622 1_565 S
N618 C619 1.369 . S
N618 C620 1.338 . S
C619 N618 1.369 . S
C619 C623 1.415 . S
C619 C626 1.422 . S
C620 H611 0.929 . S
C620 N618 1.338 . S
C620 C622 1.378 . S
C621 H616 0.931 . S
C621 C622 1.348 . S
C621 C623 1.413 . S
C622 H617 0.930 . S
C622 C620 1.378 . S
C622 C621 1.348 . S
C623 C619 1.415 . S
C623 C621 1.413 . S
C623 C653 1.437 . S
H624 C653 0.929 . S
N625 Gd598 2.570 . S
N625 C626 1.359 1_545 S
N625 C629 1.343 . S
C626 C619 1.422 . S
C626 N625 1.359 1_565 S
C626 C628 1.421 . S
C627 C628 1.422 1_545 S
C627 C630 1.321 . S
C627 H654 0.931 . S
C628 C626 1.421 . S
C628 C627 1.422 1_565 S
C628 C652 1.417 . S
C629 H606 0.931 . S
C629 N625 1.343 . S
C629 C630 1.390 . S
C630 H608 0.930 . S
C630 C627 1.321 . S
C630 C629 1.390 . S
O631 Gd599 2.386 1_545 S
O631 C643 1.265 . S
O632 Gd598 2.353 . S
O632 C643 1.242 . S
O633 Gd598 2.468 . S
O633 C651 1.263 . S
O634 Gd598 2.427 . S
O634 C651 1.252 . S
O635 Gd599 2.307 . S
O635 C644 1.261 . S
O636 Gd598 2.388 1_565 S
O636 C644 1.252 . S
O637 Gd598 2.386 1_565 S
O637 C655 1.265 . S
O638 Gd599 2.353 . S
O638 C655 1.242 . S
O639 Gd599 2.468 . S
O639 C663 1.263 . S
O640 Gd599 2.427 . S
O640 C663 1.252 . S
O641 Gd598 2.307 . S
O641 C656 1.261 . S
O642 Gd599 2.388 1_545 S
O642 C656 1.252 . S
C643 O631 1.265 . S
C643 O632 1.242 . S
C644 O635 1.261 . S
C644 O636 1.252 . S
C645 C648 1.394 . S
C645 C650 1.370 . S
C645 C651 1.500 . S
C646 C649 1.383 . S
C646 C650 1.395 . S
C647 C648 1.396 . S
C647 C649 1.365 . S
C647 H664 0.929 . S
C648 C645 1.394 . S
C648 C647 1.396 . S
C648 H665 0.930 . S
C649 C646 1.383 . S
C649 C647 1.365 . S
C649 H666 0.931 . S
C650 C645 1.370 . S
C650 C646 1.395 . S
C650 H667 0.930 . S
C651 Gd598 2.805 . S
C651 O633 1.263 . S
C651 O634 1.252 . S
C651 C645 1.500 . S
C652 H614 0.930 . S
C652 C628 1.417 . S
C652 C653 1.329 . S
C653 C623 1.437 . S
C653 H624 0.929 . S
C653 C652 1.329 . S
H654 C627 0.931 . S
C655 O637 1.265 . S
C655 O638 1.242 . S
C656 O641 1.261 . S
C656 O642 1.252 . S
C657 C660 1.394 . S
C657 C662 1.370 . S
C657 C663 1.500 . S
C658 C661 1.383 . S
C658 C662 1.395 . S
C659 C660 1.396 . S
C659 C661 1.365 . S
C659 H668 0.929 . S
C660 C657 1.394 . S
C660 C659 1.396 . S
C660 H669 0.930 . S
C661 C658 1.383 . S
C661 C659 1.365 . S
C661 H670 0.931 . S
C662 C657 1.370 . S
C662 C658 1.395 . S
C662 H671 0.930 . S
C663 Gd599 2.805 . S
C663 O639 1.263 . S
C663 O640 1.252 . S
C663 C657 1.500 . S
H664 C647 0.929 . S
H665 C648 0.930 . S
H666 C649 0.931 . S
H667 C650 0.930 . S
H668 C659 0.929 . S
H669 C660 0.930 . S
H670 C661 0.931 . S
H671 C662 0.930 . S
C672 C674 1.422 . S
C672 C676 1.415 . S
C672 N678 1.369 . S
C673 C674 1.421 . S
C673 C675 1.417 . S
C673 C685 1.422 . S
C674 C672 1.422 . S
C674 C673 1.421 . S
C674 N684 1.359 . S
C675 C673 1.417 . S
C675 C677 1.329 . S
C675 H694 0.930 . S
C676 C672 1.415 . S
C676 C677 1.437 . S
C676 C680 1.413 . S
C677 C675 1.329 . S
C677 C676 1.437 . S
C677 H699 0.929 . S
N678 C672 1.369 . S
N678 C679 1.338 . S
N678 Gd683 2.622 . S
C679 N678 1.338 . S
C679 C681 1.378 . S
C679 H691 0.929 . S
C680 C676 1.413 . S
C680 C681 1.348 . S
C680 H696 0.931 . S
C681 C679 1.378 . S
C681 C680 1.348 . S
C681 H697 0.930 . S
Gd682 N702 2.622 . S
Gd682 N709 2.570 . S
Gd682 O716 2.353 . S
Gd682 O717 2.468 . S
Gd682 O718 2.427 . S
Gd682 O720 2.388 . S
Gd682 O721 2.386 . S
Gd682 O725 2.307 . S
Gd682 C735 2.805 . S
Gd683 N678 2.622 . S
Gd683 N684 2.570 . S
Gd683 O715 2.386 . S
Gd683 O719 2.307 . S
Gd683 O722 2.353 . S
Gd683 O723 2.468 . S
Gd683 O724 2.427 . S
Gd683 O726 2.388 . S
Gd683 C747 2.805 . S
N684 C674 1.359 . S
N684 Gd683 2.570 . S
N684 C686 1.343 . S
C685 C673 1.422 . S
C685 C687 1.321 . S
C685 H693 0.931 . S
C686 N684 1.343 . S
C686 C687 1.390 . S
C686 H688 0.931 . S
C687 C685 1.321 . S
C687 C686 1.390 . S
C687 H689 0.930 . S
H688 C686 0.931 . S
H689 C687 0.930 . S
H690 C713 0.931 . S
H691 C679 0.929 . S
H692 C714 0.930 . S
H693 C685 0.931 . S
H694 C675 0.930 . S
H695 C704 0.929 . S
H696 C680 0.931 . S
H697 C681 0.930 . S
H698 C736 0.930 . S
H699 C677 0.929 . S
H700 C705 0.931 . S
H701 C706 0.930 . S
N702 Gd682 2.622 . S
N702 C703 1.369 . S
N702 C704 1.338 . S
C703 N702 1.369 . S
C703 C707 1.415 . S
C703 C710 1.422 . S
C704 H695 0.929 . S
C704 N702 1.338 . S
C704 C706 1.378 . S
C705 H700 0.931 . S
C705 C706 1.348 . S
C705 C707 1.413 . S
C706 H701 0.930 . S
C706 C704 1.378 . S
C706 C705 1.348 . S
C707 C703 1.415 . S
C707 C705 1.413 . S
C707 C737 1.437 . S
H708 C737 0.929 . S
N709 Gd682 2.570 . S
N709 C710 1.359 . S
N709 C713 1.343 . S
C710 C703 1.422 . S
C710 N709 1.359 . S
C710 C712 1.421 . S
C711 C712 1.422 . S
C711 C714 1.321 . S
C711 H738 0.931 . S
C712 C710 1.421 . S
C712 C711 1.422 . S
C712 C736 1.417 . S
C713 H690 0.931 . S
C713 N709 1.343 . S
C713 C714 1.390 . S
C714 H692 0.930 . S
C714 C711 1.321 . S
C714 C713 1.390 . S
O715 Gd683 2.386 . S
O715 C727 1.265 . S
O716 Gd682 2.353 . S
O716 C727 1.242 . S
O717 Gd682 2.468 . S
O717 C735 1.263 . S
O718 Gd682 2.427 . S
O718 C735 1.252 . S
O719 Gd683 2.307 . S
O719 C728 1.261 . S
O720 Gd682 2.388 . S
O720 C728 1.252 . S
O721 Gd682 2.386 . S
O721 C739 1.265 . S
O722 Gd683 2.353 . S
O722 C739 1.242 . S
O723 Gd683 2.468 . S
O723 C747 1.263 . S
O724 Gd683 2.427 . S
O724 C747 1.252 . S
O725 Gd682 2.307 . S
O725 C740 1.261 . S
O726 Gd683 2.388 . S
O726 C740 1.252 . S
C727 O715 1.265 . S
C727 O716 1.242 . S
C728 O719 1.261 . S
C728 O720 1.252 . S
C729 C732 1.394 . S
C729 C734 1.370 . S
C729 C735 1.500 . S
C730 C733 1.383 . S
C730 C734 1.395 . S
C731 C732 1.396 . S
C731 C733 1.365 . S
C731 H748 0.929 . S
C732 C729 1.394 . S
C732 C731 1.396 . S
C732 H749 0.930 . S
C733 C730 1.383 . S
C733 C731 1.365 . S
C733 H750 0.931 . S
C734 C729 1.370 . S
C734 C730 1.395 . S
C734 H751 0.930 . S
C735 Gd682 2.805 . S
C735 O717 1.263 . S
C735 O718 1.252 . S
C735 C729 1.500 . S
C736 H698 0.930 . S
C736 C712 1.417 . S
C736 C737 1.329 . S
C737 C707 1.437 . S
C737 H708 0.929 . S
C737 C736 1.329 . S
H738 C711 0.931 . S
C739 O721 1.265 . S
C739 O722 1.242 . S
C740 O725 1.261 . S
C740 O726 1.252 . S
C741 C744 1.394 . S
C741 C746 1.370 . S
C741 C747 1.500 . S
C742 C745 1.383 . S
C742 C746 1.395 . S
C743 C744 1.396 . S
C743 C745 1.365 . S
C743 H752 0.929 . S
C744 C741 1.394 . S
C744 C743 1.396 . S
C744 H753 0.930 . S
C745 C742 1.383 . S
C745 C743 1.365 . S
C745 H754 0.931 . S
C746 C741 1.370 . S
C746 C742 1.395 . S
C746 H755 0.930 . S
C747 Gd683 2.805 . S
C747 O723 1.263 . S
C747 O724 1.252 . S
C747 C741 1.500 . S
H748 C731 0.929 . S
H749 C732 0.930 . S
H750 C733 0.931 . S
H751 C734 0.930 . S
H752 C743 0.929 . S
H753 C744 0.930 . S
H754 C745 0.931 . S
H755 C746 0.930 . S
C756 C758 1.422 . S
C756 C760 1.415 . S
C756 N762 1.369 . S
C757 C758 1.421 . S
C757 C759 1.417 . S
C757 C769 1.422 1_655 S
C758 C756 1.422 . S
C758 C757 1.421 . S
C758 N768 1.359 1_655 S
C759 C757 1.417 . S
C759 C761 1.329 . S
C759 H778 0.930 . S
C760 C756 1.415 . S
C760 C761 1.437 . S
C760 C764 1.413 . S
C761 C759 1.329 . S
C761 C760 1.437 . S
C761 H783 0.929 . S
N762 C756 1.369 . S
N762 C763 1.338 . S
N762 Gd767 2.622 1_655 S
C763 N762 1.338 . S
C763 C765 1.378 . S
C763 H775 0.929 . S
C764 C760 1.413 . S
C764 C765 1.348 . S
C764 H780 0.931 . S
C765 C763 1.378 . S
C765 C764 1.348 . S
C765 H781 0.930 . S
Gd766 N786 2.622 1_655 S
Gd766 N793 2.570 . S
Gd766 O800 2.353 . S
Gd766 O801 2.468 . S
Gd766 O802 2.427 . S
Gd766 O804 2.388 1_655 S
Gd766 O805 2.386 1_655 S
Gd766 O809 2.307 . S
Gd766 C819 2.805 . S
Gd767 N762 2.622 1_455 S
Gd767 N768 2.570 . S
Gd767 O799 2.386 1_455 S
Gd767 O803 2.307 . S
Gd767 O806 2.353 . S
Gd767 O807 2.468 . S
Gd767 O808 2.427 . S
Gd767 O810 2.388 1_455 S
Gd767 C831 2.805 . S
N768 C758 1.359 1_455 S
N768 Gd767 2.570 . S
N768 C770 1.343 . S
C769 C757 1.422 1_455 S
C769 C771 1.321 . S
C769 H777 0.931 . S
C770 N768 1.343 . S
C770 C771 1.390 . S
C770 H772 0.931 . S
C771 C769 1.321 . S
C771 C770 1.390 . S
C771 H773 0.930 . S
H772 C770 0.931 . S
H773 C771 0.930 . S
H774 C797 0.931 . S
H775 C763 0.929 . S
H776 C798 0.930 . S
H777 C769 0.931 . S
H778 C759 0.930 . S
H779 C788 0.929 . S
H780 C764 0.931 . S
H781 C765 0.930 . S
H782 C820 0.930 . S
H783 C761 0.929 . S
H784 C789 0.931 . S
H785 C790 0.930 1_554 S
N786 Gd766 2.622 1_455 S
N786 C787 1.369 . S
N786 C788 1.338 . S
C787 N786 1.369 . S
C787 C791 1.415 . S
C787 C794 1.422 . S
C788 H779 0.929 . S
C788 N786 1.338 . S
C788 C790 1.378 . S
C789 H784 0.931 . S
C789 C790 1.348 . S
C789 C791 1.413 . S
C790 H785 0.930 1_556 S
C790 C788 1.378 . S
C790 C789 1.348 . S
C791 C787 1.415 . S
C791 C789 1.413 . S
C791 C821 1.437 . S
H792 C821 0.929 . S
N793 Gd766 2.570 . S
N793 C794 1.359 1_655 S
N793 C797 1.343 . S
C794 C787 1.422 . S
C794 N793 1.359 1_455 S
C794 C796 1.421 . S
C795 C796 1.422 1_655 S
C795 C798 1.321 . S
C795 H822 0.931 . S
C796 C794 1.421 . S
C796 C795 1.422 1_455 S
C796 C820 1.417 . S
C797 H774 0.931 . S
C797 N793 1.343 . S
C797 C798 1.390 . S
C798 H776 0.930 . S
C798 C795 1.321 . S
C798 C797 1.390 . S
O799 Gd767 2.386 1_655 S
O799 C811 1.265 . S
O800 Gd766 2.353 . S
O800 C811 1.242 . S
O801 Gd766 2.468 . S
O801 C819 1.263 . S
O802 Gd766 2.427 . S
O802 C819 1.252 . S
O803 Gd767 2.307 . S
O803 C812 1.261 . S
O804 Gd766 2.388 1_455 S
O804 C812 1.252 . S
O805 Gd766 2.386 1_455 S
O805 C823 1.265 . S
O806 Gd767 2.353 . S
O806 C823 1.242 . S
O807 Gd767 2.468 . S
O807 C831 1.263 . S
O808 Gd767 2.427 . S
O808 C831 1.252 . S
O809 Gd766 2.307 . S
O809 C824 1.261 . S
O810 Gd767 2.388 1_655 S
O810 C824 1.252 . S
C811 O799 1.265 . S
C811 O800 1.242 . S
C812 O803 1.261 . S
C812 O804 1.252 . S
C813 C816 1.394 . S
C813 C818 1.370 . S
C813 C819 1.500 1_554 S
C814 C817 1.383 . S
C814 C818 1.395 . S
C815 C816 1.396 . S
C815 C817 1.365 . S
C815 H832 0.929 . S
C816 C813 1.394 . S
C816 C815 1.396 . S
C816 H833 0.930 . S
C817 C814 1.383 . S
C817 C815 1.365 . S
C817 H834 0.931 . S
C818 C813 1.370 . S
C818 C814 1.395 . S
C818 H835 0.930 1_554 S
C819 Gd766 2.805 . S
C819 O801 1.263 . S
C819 O802 1.252 . S
C819 C813 1.500 1_556 S
C820 H782 0.930 . S
C820 C796 1.417 . S
C820 C821 1.329 . S
C821 C791 1.437 . S
C821 H792 0.929 . S
C821 C820 1.329 . S
H822 C795 0.931 . S
C823 O805 1.265 . S
C823 O806 1.242 . S
C824 O809 1.261 . S
C824 O810 1.252 . S
C825 C828 1.394 . S
C825 C830 1.370 . S
C825 C831 1.500 . S
C826 C829 1.383 . S
C826 C830 1.395 . S
C827 C828 1.396 . S
C827 C829 1.365 . S
C827 H836 0.929 . S
C828 C825 1.394 . S
C828 C827 1.396 . S
C828 H837 0.930 . S
C829 C826 1.383 . S
C829 C827 1.365 . S
C829 H838 0.931 . S
C830 C825 1.370 . S
C830 C826 1.395 . S
C830 H839 0.930 . S
C831 Gd767 2.805 . S
C831 O807 1.263 . S
C831 O808 1.252 . S
C831 C825 1.500 . S
H832 C815 0.929 . S
H833 C816 0.930 . S
H834 C817 0.931 . S
H835 C818 0.930 1_556 S
H836 C827 0.929 . S
H837 C828 0.930 . S
H838 C829 0.931 . S
H839 C830 0.930 . S
C840 C842 1.422 . S
C840 C844 1.415 . S
C840 N846 1.369 . S
C841 C842 1.421 . S
C841 C843 1.417 . S
C841 C853 1.422 1_565 S
C842 C840 1.422 . S
C842 C841 1.421 . S
C842 N852 1.359 1_565 S
C843 C841 1.417 . S
C843 C845 1.329 . S
C843 H862 0.930 . S
C844 C840 1.415 . S
C844 C845 1.437 . S
C844 C848 1.413 . S
C845 C843 1.329 . S
C845 C844 1.437 . S
C845 H867 0.929 . S
N846 C840 1.369 . S
N846 C847 1.338 . S
N846 Gd851 2.622 1_565 S
C847 N846 1.338 . S
C847 C849 1.378 . S
C847 H859 0.929 . S
C848 C844 1.413 . S
C848 C849 1.348 . S
C848 H864 0.931 . S
C849 C847 1.378 . S
C849 C848 1.348 . S
C849 H865 0.930 . S
Gd850 N870 2.622 1_565 S
Gd850 N877 2.570 . S
Gd850 O884 2.353 . S
Gd850 O885 2.468 . S
Gd850 O886 2.427 . S
Gd850 O888 2.388 1_565 S
Gd850 O889 2.386 1_565 S
Gd850 O893 2.307 . S
Gd850 C903 2.805 . S
Gd851 N846 2.622 1_545 S
Gd851 N852 2.570 . S
Gd851 O883 2.386 1_545 S
Gd851 O887 2.307 . S
Gd851 O890 2.353 . S
Gd851 O891 2.468 . S
Gd851 O892 2.427 . S
Gd851 O894 2.388 1_545 S
Gd851 C915 2.805 . S
N852 C842 1.359 1_545 S
N852 Gd851 2.570 . S
N852 C854 1.343 . S
C853 C841 1.422 1_545 S
C853 C855 1.321 . S
C853 H861 0.931 . S
C854 N852 1.343 . S
C854 C855 1.390 . S
C854 H856 0.931 . S
C855 C853 1.321 . S
C855 C854 1.390 . S
C855 H857 0.930 . S
H856 C854 0.931 . S
H857 C855 0.930 . S
H858 C881 0.931 . S
H859 C847 0.929 . S
H860 C882 0.930 . S
H861 C853 0.931 . S
H862 C843 0.930 . S
H863 C872 0.929 . S
H864 C848 0.931 . S
H865 C849 0.930 . S
H866 C904 0.930 . S
H867 C845 0.929 . S
H868 C873 0.931 . S
H869 C874 0.930 . S
N870 Gd850 2.622 1_545 S
N870 C871 1.369 . S
N870 C872 1.338 . S
C871 N870 1.369 . S
C871 C875 1.415 . S
C871 C878 1.422 . S
C872 H863 0.929 . S
C872 N870 1.338 . S
C872 C874 1.378 . S
C873 H868 0.931 . S
C873 C874 1.348 . S
C873 C875 1.413 . S
C874 H869 0.930 . S
C874 C872 1.378 . S
C874 C873 1.348 . S
C875 C871 1.415 . S
C875 C873 1.413 . S
C875 C905 1.437 . S
H876 C905 0.929 . S
N877 Gd850 2.570 . S
N877 C878 1.359 1_565 S
N877 C881 1.343 . S
C878 C871 1.422 . S
C878 N877 1.359 1_545 S
C878 C880 1.421 . S
C879 C880 1.422 1_565 S
C879 C882 1.321 . S
C879 H906 0.931 . S
C880 C878 1.421 . S
C880 C879 1.422 1_545 S
C880 C904 1.417 . S
C881 H858 0.931 . S
C881 N877 1.343 . S
C881 C882 1.390 . S
C882 H860 0.930 . S
C882 C879 1.321 . S
C882 C881 1.390 . S
O883 Gd851 2.386 1_565 S
O883 C895 1.265 . S
O884 Gd850 2.353 . S
O884 C895 1.242 . S
O885 Gd850 2.468 . S
O885 C903 1.263 . S
O886 Gd850 2.427 . S
O886 C903 1.252 . S
O887 Gd851 2.307 . S
O887 C896 1.261 . S
O888 Gd850 2.388 1_545 S
O888 C896 1.252 . S
O889 Gd850 2.386 1_545 S
O889 C907 1.265 . S
O890 Gd851 2.353 . S
O890 C907 1.242 . S
O891 Gd851 2.468 . S
O891 C915 1.263 . S
O892 Gd851 2.427 . S
O892 C915 1.252 . S
O893 Gd850 2.307 . S
O893 C908 1.261 . S
O894 Gd851 2.388 1_565 S
O894 C908 1.252 . S
C895 O883 1.265 . S
C895 O884 1.242 . S
C896 O887 1.261 . S
C896 O888 1.252 . S
C897 C900 1.394 . S
C897 C902 1.370 . S
C897 C903 1.500 . S
C898 C901 1.383 . S
C898 C902 1.395 . S
C899 C900 1.396 . S
C899 C901 1.365 . S
C899 H916 0.929 . S
C900 C897 1.394 . S
C900 C899 1.396 . S
C900 H917 0.930 . S
C901 C898 1.383 . S
C901 C899 1.365 . S
C901 H918 0.931 . S
C902 C897 1.370 . S
C902 C898 1.395 . S
C902 H919 0.930 . S
C903 Gd850 2.805 . S
C903 O885 1.263 . S
C903 O886 1.252 . S
C903 C897 1.500 . S
C904 H866 0.930 . S
C904 C880 1.417 . S
C904 C905 1.329 . S
C905 C875 1.437 . S
C905 H876 0.929 . S
C905 C904 1.329 . S
H906 C879 0.931 . S
C907 O889 1.265 . S
C907 O890 1.242 . S
C908 O893 1.261 . S
C908 O894 1.252 . S
C909 C912 1.394 . S
C909 C914 1.370 . S
C909 C915 1.500 . S
C910 C913 1.383 . S
C910 C914 1.395 . S
C911 C912 1.396 . S
C911 C913 1.365 . S
C911 H920 0.929 . S
C912 C909 1.394 . S
C912 C911 1.396 . S
C912 H921 0.930 . S
C913 C910 1.383 . S
C913 C911 1.365 . S
C913 H922 0.931 . S
C914 C909 1.370 . S
C914 C910 1.395 . S
C914 H923 0.930 . S
C915 Gd851 2.805 . S
C915 O891 1.263 . S
C915 O892 1.252 . S
C915 C909 1.500 . S
H916 C899 0.929 . S
H917 C900 0.930 . S
H918 C901 0.931 . S
H919 C902 0.930 . S
H920 C911 0.929 . S
H921 C912 0.930 . S
H922 C913 0.931 . S
H923 C914 0.930 . S
C924 C926 1.422 . S
C924 C928 1.415 . S
C924 N930 1.369 . S
C925 C926 1.421 . S
C925 C927 1.417 . S
C925 C937 1.422 . S
C926 C924 1.422 . S
C926 C925 1.421 . S
C926 N936 1.359 . S
C927 C925 1.417 . S
C927 C929 1.329 . S
C927 H946 0.930 . S
C928 C924 1.415 . S
C928 C929 1.437 . S
C928 C932 1.413 . S
C929 C927 1.329 . S
C929 C928 1.437 . S
C929 H951 0.929 . S
N930 C924 1.369 . S
N930 C931 1.338 . S
N930 Gd935 2.622 . S
C931 N930 1.338 . S
C931 C933 1.378 . S
C931 H943 0.929 . S
C932 C928 1.413 . S
C932 C933 1.348 . S
C932 H948 0.931 . S
C933 C931 1.378 . S
C933 C932 1.348 . S
C933 H949 0.930 . S
Gd934 N954 2.622 . S
Gd934 N961 2.570 . S
Gd934 O968 2.353 . S
Gd934 O969 2.468 . S
Gd934 O970 2.427 . S
Gd934 O972 2.388 . S
Gd934 O973 2.386 . S
Gd934 O977 2.307 . S
Gd934 C987 2.805 . S
Gd935 N930 2.622 . S
Gd935 N936 2.570 . S
Gd935 O967 2.386 . S
Gd935 O971 2.307 . S
Gd935 O974 2.353 . S
Gd935 O975 2.468 . S
Gd935 O976 2.427 . S
Gd935 O978 2.388 . S
Gd935 C999 2.805 . S
N936 C926 1.359 . S
N936 Gd935 2.570 . S
N936 C938 1.343 . S
C937 C925 1.422 . S
C937 C939 1.321 . S
C937 H945 0.931 . S
C938 N936 1.343 . S
C938 C939 1.390 . S
C938 H940 0.931 . S
C939 C937 1.321 . S
C939 C938 1.390 . S
C939 H941 0.930 . S
H940 C938 0.931 . S
H941 C939 0.930 . S
H942 C965 0.931 . S
H943 C931 0.929 . S
H944 C966 0.930 . S
H945 C937 0.931 . S
H946 C927 0.930 . S
H947 C956 0.929 . S
H948 C932 0.931 . S
H949 C933 0.930 . S
H950 C988 0.930 . S
H951 C929 0.929 . S
H952 C957 0.931 . S
H953 C958 0.930 . S
N954 Gd934 2.622 . S
N954 C955 1.369 . S
N954 C956 1.338 . S
C955 N954 1.369 . S
C955 C959 1.415 . S
C955 C962 1.422 . S
C956 H947 0.929 . S
C956 N954 1.338 . S
C956 C958 1.378 . S
C957 H952 0.931 . S
C957 C958 1.348 . S
C957 C959 1.413 . S
C958 H953 0.930 . S
C958 C956 1.378 . S
C958 C957 1.348 . S
C959 C955 1.415 . S
C959 C957 1.413 . S
C959 C989 1.437 . S
H960 C989 0.929 . S
N961 Gd934 2.570 . S
N961 C962 1.359 . S
N961 C965 1.343 . S
C962 C955 1.422 . S
C962 N961 1.359 . S
C962 C964 1.421 . S
C963 C964 1.422 . S
C963 C966 1.321 . S
C963 H990 0.931 . S
C964 C962 1.421 . S
C964 C963 1.422 . S
C964 C988 1.417 . S
C965 H942 0.931 . S
C965 N961 1.343 . S
C965 C966 1.390 . S
C966 H944 0.930 . S
C966 C963 1.321 . S
C966 C965 1.390 . S
O967 Gd935 2.386 . S
O967 C979 1.265 . S
O968 Gd934 2.353 . S
O968 C979 1.242 . S
O969 Gd934 2.468 . S
O969 C987 1.263 . S
O970 Gd934 2.427 . S
O970 C987 1.252 . S
O971 Gd935 2.307 . S
O971 C980 1.261 . S
O972 Gd934 2.388 . S
O972 C980 1.252 . S
O973 Gd934 2.386 . S
O973 C991 1.265 . S
O974 Gd935 2.353 . S
O974 C991 1.242 . S
O975 Gd935 2.468 . S
O975 C999 1.263 . S
O976 Gd935 2.427 . S
O976 C999 1.252 . S
O977 Gd934 2.307 . S
O977 C992 1.261 . S
O978 Gd935 2.388 . S
O978 C992 1.252 . S
C979 O967 1.265 . S
C979 O968 1.242 . S
C980 O971 1.261 . S
C980 O972 1.252 . S
C981 C984 1.394 . S
C981 C986 1.370 . S
C981 C987 1.500 . S
C982 C985 1.383 . S
C982 C986 1.395 . S
C983 C984 1.396 . S
C983 C985 1.365 . S
C983 H1000 0.929 . S
C984 C981 1.394 . S
C984 C983 1.396 . S
C984 H1001 0.930 . S
C985 C982 1.383 . S
C985 C983 1.365 . S
C985 H1002 0.931 . S
C986 C981 1.370 . S
C986 C982 1.395 . S
C986 H1003 0.930 . S
C987 Gd934 2.805 . S
C987 O969 1.263 . S
C987 O970 1.252 . S
C987 C981 1.500 . S
C988 H950 0.930 . S
C988 C964 1.417 . S
C988 C989 1.329 . S
C989 C959 1.437 . S
C989 H960 0.929 . S
C989 C988 1.329 . S
H990 C963 0.931 . S
C991 O973 1.265 . S
C991 O974 1.242 . S
C992 O977 1.261 . S
C992 O978 1.252 . S
C993 C996 1.394 . S
C993 C998 1.370 . S
C993 C999 1.500 . S
C994 C997 1.383 . S
C994 C998 1.395 . S
C995 C996 1.396 . S
C995 C997 1.365 . S
C995 H1004 0.929 . S
C996 C993 1.394 . S
C996 C995 1.396 . S
C996 H1005 0.930 . S
C997 C994 1.383 . S
C997 C995 1.365 . S
C997 H1006 0.931 . S
C998 C993 1.370 . S
C998 C994 1.395 . S
C998 H1007 0.930 . S
C999 Gd935 2.805 . S
C999 O975 1.263 . S
C999 O976 1.252 . S
C999 C993 1.500 . S
H1000 C983 0.929 . S
H1001 C984 0.930 . S
H1002 C985 0.931 . S
H1003 C986 0.930 . S
H1004 C995 0.929 . S
H1005 C996 0.930 . S
H1006 C997 0.931 . S
H1007 C998 0.930 . S
C1008 C1009 1.349 . S
C1008 C1010 1.327 . S
C1008 H1033 0.950 . S
C1009 C1008 1.349 . S
C1009 C1025 1.349 . S
C1010 C1008 1.327 . S
C1010 C1029 1.429 . S
C1010 H1034 0.950 . S
C1011 C1028 1.574 . S
C1011 C1030 1.368 . S
C1011 H1035 0.949 . S
H1012 C1016 0.949 . S
C1013 C1014 1.349 . S
C1013 C1015 1.327 . S
C1013 H1036 0.950 . S
C1014 C1013 1.349 . S
C1014 C1026 1.349 . S
C1015 C1013 1.327 . S
C1015 C1031 1.429 . S
C1015 H1037 0.950 . S
C1016 H1012 0.949 . S
C1016 C1024 1.574 . S
C1016 C1032 1.368 . S
H1017 C1025 0.950 . S
H1018 C1023 0.950 . S
H1019 C1024 0.949 . S
H1020 C1026 0.950 . S
H1021 C1027 0.950 . S
H1022 C1028 0.949 . S
C1023 H1018 0.950 . S
C1023 C1025 1.327 . S
C1023 C1029 1.429 . S
C1024 C1016 1.574 . S
C1024 H1019 0.949 . S
C1024 C1030 1.368 . S
C1025 C1009 1.349 . S
C1025 H1017 0.950 . S
C1025 C1023 1.327 . S
C1026 C1014 1.349 . S
C1026 H1020 0.950 . S
C1026 C1027 1.327 . S
C1027 H1021 0.950 . S
C1027 C1026 1.327 . S
C1027 C1031 1.429 . S
C1028 C1011 1.574 . S
C1028 H1022 0.949 . S
C1028 C1032 1.368 . S
C1029 C1010 1.429 . S
C1029 C1023 1.429 . S
C1029 C1030 1.523 . S
C1030 C1011 1.368 . S
C1030 C1024 1.368 . S
C1030 C1029 1.523 . S
C1031 C1015 1.429 . S
C1031 C1027 1.429 . S
C1031 C1032 1.523 . S
C1032 C1016 1.368 . S
C1032 C1028 1.368 . S
C1032 C1031 1.523 . S
H1033 C1008 0.950 . S
H1034 C1010 0.950 . S
H1035 C1011 0.949 . S
H1036 C1013 0.950 . S
H1037 C1015 0.950 . S
C1038 C1039 1.349 . S
C1038 C1040 1.327 . S
C1038 H1063 0.950 . S
C1039 C1038 1.349 . S
C1039 C1055 1.349 . S
C1040 C1038 1.327 . S
C1040 C1059 1.429 . S
C1040 H1064 0.950 . S
C1041 C1058 1.574 . S
C1041 C1060 1.368 . S
C1041 H1065 0.949 . S
H1042 C1046 0.949 . S
C1043 C1044 1.349 . S
C1043 C1045 1.327 . S
C1043 H1066 0.950 . S
C1044 C1043 1.349 . S
C1044 C1056 1.349 . S
C1045 C1043 1.327 . S
C1045 C1061 1.429 . S
C1045 H1067 0.950 . S
C1046 H1042 0.949 . S
C1046 C1054 1.574 . S
C1046 C1062 1.368 . S
H1047 C1055 0.950 . S
H1048 C1053 0.950 . S
H1049 C1054 0.949 . S
H1050 C1056 0.950 . S
H1051 C1057 0.950 . S
H1052 C1058 0.949 . S
C1053 H1048 0.950 . S
C1053 C1055 1.327 . S
C1053 C1059 1.429 . S
C1054 C1046 1.574 . S
C1054 H1049 0.949 . S
C1054 C1060 1.368 . S
C1055 C1039 1.349 . S
C1055 H1047 0.950 . S
C1055 C1053 1.327 . S
C1056 C1044 1.349 . S
C1056 H1050 0.950 . S
C1056 C1057 1.327 . S
C1057 H1051 0.950 . S
C1057 C1056 1.327 . S
C1057 C1061 1.429 . S
C1058 C1041 1.574 . S
C1058 H1052 0.949 . S
C1058 C1062 1.368 . S
C1059 C1040 1.429 . S
C1059 C1053 1.429 . S
C1059 C1060 1.523 . S
C1060 C1041 1.368 . S
C1060 C1054 1.368 . S
C1060 C1059 1.523 . S
C1061 C1045 1.429 . S
C1061 C1057 1.429 . S
C1061 C1062 1.523 . S
C1062 C1046 1.368 . S
C1062 C1058 1.368 . S
C1062 C1061 1.523 . S
H1063 C1038 0.950 . S
H1064 C1040 0.950 . S
H1065 C1041 0.949 . S
H1066 C1043 0.950 . S
H1067 C1045 0.950 . S
C1068 C1069 1.349 . S
C1068 C1070 1.327 . S
C1068 H1093 0.950 . S
C1069 C1068 1.349 . S
C1069 C1085 1.349 . S
C1070 C1068 1.327 . S
C1070 C1089 1.429 . S
C1070 H1094 0.950 . S
C1071 C1088 1.574 . S
C1071 C1090 1.368 . S
C1071 H1095 0.949 . S
H1072 C1076 0.949 . S
C1073 C1074 1.349 . S
C1073 C1075 1.327 . S
C1073 H1096 0.950 . S
C1074 C1073 1.349 . S
C1074 C1086 1.349 . S
C1075 C1073 1.327 . S
C1075 C1091 1.429 . S
C1075 H1097 0.950 . S
C1076 H1072 0.949 . S
C1076 C1084 1.574 . S
C1076 C1092 1.368 . S
H1077 C1085 0.950 . S
H1078 C1083 0.950 . S
H1079 C1084 0.949 . S
H1080 C1086 0.950 . S
H1081 C1087 0.950 . S
H1082 C1088 0.949 . S
C1083 H1078 0.950 . S
C1083 C1085 1.327 . S
C1083 C1089 1.429 . S
C1084 C1076 1.574 . S
C1084 H1079 0.949 . S
C1084 C1090 1.368 . S
C1085 C1069 1.349 . S
C1085 H1077 0.950 . S
C1085 C1083 1.327 . S
C1086 C1074 1.349 . S
C1086 H1080 0.950 . S
C1086 C1087 1.327 . S
C1087 H1081 0.950 . S
C1087 C1086 1.327 . S
C1087 C1091 1.429 . S
C1088 C1071 1.574 . S
C1088 H1082 0.949 . S
C1088 C1092 1.368 . S
C1089 C1070 1.429 . S
C1089 C1083 1.429 . S
C1089 C1090 1.523 . S
C1090 C1071 1.368 . S
C1090 C1084 1.368 . S
C1090 C1089 1.523 . S
C1091 C1075 1.429 . S
C1091 C1087 1.429 . S
C1091 C1092 1.523 . S
C1092 C1076 1.368 . S
C1092 C1088 1.368 . S
C1092 C1091 1.523 . S
H1093 C1068 0.950 . S
H1094 C1070 0.950 . S
H1095 C1071 0.949 . S
H1096 C1073 0.950 . S
H1097 C1075 0.950 . S
C1098 C1099 1.349 . S
C1098 C1100 1.327 . S
C1098 H1123 0.950 . S
C1099 C1098 1.349 . S
C1099 C1115 1.349 . S
C1100 C1098 1.327 . S
C1100 C1119 1.429 . S
C1100 H1124 0.950 . S
C1101 C1118 1.574 . S
C1101 C1120 1.368 . S
C1101 H1125 0.949 . S
H1102 C1106 0.949 . S
C1103 C1104 1.349 . S
C1103 C1105 1.327 . S
C1103 H1126 0.950 . S
C1104 C1103 1.349 . S
C1104 C1116 1.349 . S
C1105 C1103 1.327 . S
C1105 C1121 1.429 . S
C1105 H1127 0.950 . S
C1106 H1102 0.949 . S
C1106 C1114 1.574 . S
C1106 C1122 1.368 . S
H1107 C1115 0.950 . S
H1108 C1113 0.950 . S
H1109 C1114 0.949 . S
H1110 C1116 0.950 . S
H1111 C1117 0.950 . S
H1112 C1118 0.949 . S
C1113 H1108 0.950 . S
C1113 C1115 1.327 . S
C1113 C1119 1.429 . S
C1114 C1106 1.574 . S
C1114 H1109 0.949 . S
C1114 C1120 1.368 . S
C1115 C1099 1.349 . S
C1115 H1107 0.950 . S
C1115 C1113 1.327 . S
C1116 C1104 1.349 . S
C1116 H1110 0.950 . S
C1116 C1117 1.327 . S
C1117 H1111 0.950 . S
C1117 C1116 1.327 . S
C1117 C1121 1.429 . S
C1118 C1101 1.574 . S
C1118 H1112 0.949 . S
C1118 C1122 1.368 . S
C1119 C1100 1.429 . S
C1119 C1113 1.429 . S
C1119 C1120 1.523 . S
C1120 C1101 1.368 . S
C1120 C1114 1.368 . S
C1120 C1119 1.523 . S
C1121 C1105 1.429 . S
C1121 C1117 1.429 . S
C1121 C1122 1.523 . S
C1122 C1106 1.368 . S
C1122 C1118 1.368 . S
C1122 C1121 1.523 . S
H1123 C1098 0.950 . S
H1124 C1100 0.950 . S
H1125 C1101 0.949 . S
H1126 C1103 0.950 . S
H1127 C1105 0.950 . S
C1128 C1129 1.349 . S
C1128 C1130 1.327 . S
C1128 H1153 0.950 . S
C1129 C1128 1.349 . S
C1129 C1145 1.349 . S
C1130 C1128 1.327 . S
C1130 C1149 1.429 . S
C1130 H1154 0.950 . S
C1131 C1148 1.574 . S
C1131 C1150 1.368 . S
C1131 H1155 0.949 . S
H1132 C1136 0.949 . S
C1133 C1134 1.349 . S
C1133 C1135 1.327 . S
C1133 H1156 0.950 . S
C1134 C1133 1.349 . S
C1134 C1146 1.349 . S
C1135 C1133 1.327 . S
C1135 C1151 1.429 . S
C1135 H1157 0.950 . S
C1136 H1132 0.949 . S
C1136 C1144 1.574 . S
C1136 C1152 1.368 . S
H1137 C1145 0.950 . S
H1138 C1143 0.950 . S
H1139 C1144 0.949 . S
H1140 C1146 0.950 . S
H1141 C1147 0.950 . S
H1142 C1148 0.949 . S
C1143 H1138 0.950 . S
C1143 C1145 1.327 . S
C1143 C1149 1.429 . S
C1144 C1136 1.574 . S
C1144 H1139 0.949 . S
C1144 C1150 1.368 . S
C1145 C1129 1.349 . S
C1145 H1137 0.950 . S
C1145 C1143 1.327 . S
C1146 C1134 1.349 . S
C1146 H1140 0.950 . S
C1146 C1147 1.327 . S
C1147 H1141 0.950 . S
C1147 C1146 1.327 . S
C1147 C1151 1.429 . S
C1148 C1131 1.574 . S
C1148 H1142 0.949 . S
C1148 C1152 1.368 . S
C1149 C1130 1.429 . S
C1149 C1143 1.429 . S
C1149 C1150 1.523 . S
C1150 C1131 1.368 . S
C1150 C1144 1.368 . S
C1150 C1149 1.523 . S
C1151 C1135 1.429 . S
C1151 C1147 1.429 . S
C1151 C1152 1.523 . S
C1152 C1136 1.368 . S
C1152 C1148 1.368 . S
C1152 C1151 1.523 . S
H1153 C1128 0.950 . S
H1154 C1130 0.950 . S
H1155 C1131 0.949 . S
H1156 C1133 0.950 . S
H1157 C1135 0.950 . S
C1158 C1159 1.349 . S
C1158 C1160 1.327 . S
C1158 H1183 0.950 . S
C1159 C1158 1.349 . S
C1159 C1175 1.349 . S
C1160 C1158 1.327 . S
C1160 C1179 1.429 . S
C1160 H1184 0.950 . S
C1161 C1178 1.574 . S
C1161 C1180 1.368 . S
C1161 H1185 0.949 . S
H1162 C1166 0.949 . S
C1163 C1164 1.349 . S
C1163 C1165 1.327 . S
C1163 H1186 0.950 . S
C1164 C1163 1.349 . S
C1164 C1176 1.349 . S
C1165 C1163 1.327 . S
C1165 C1181 1.429 . S
C1165 H1187 0.950 . S
C1166 H1162 0.949 . S
C1166 C1174 1.574 . S
C1166 C1182 1.368 . S
H1167 C1175 0.950 . S
H1168 C1173 0.950 . S
H1169 C1174 0.949 . S
H1170 C1176 0.950 . S
H1171 C1177 0.950 . S
H1172 C1178 0.949 . S
C1173 H1168 0.950 . S
C1173 C1175 1.327 . S
C1173 C1179 1.429 . S
C1174 C1166 1.574 . S
C1174 H1169 0.949 . S
C1174 C1180 1.368 . S
C1175 C1159 1.349 . S
C1175 H1167 0.950 . S
C1175 C1173 1.327 . S
C1176 C1164 1.349 . S
C1176 H1170 0.950 . S
C1176 C1177 1.327 . S
C1177 H1171 0.950 . S
C1177 C1176 1.327 . S
C1177 C1181 1.429 . S
C1178 C1161 1.574 . S
C1178 H1172 0.949 . S
C1178 C1182 1.368 . S
C1179 C1160 1.429 . S
C1179 C1173 1.429 . S
C1179 C1180 1.523 . S
C1180 C1161 1.368 . S
C1180 C1174 1.368 . S
C1180 C1179 1.523 . S
C1181 C1165 1.429 . S
C1181 C1177 1.429 . S
C1181 C1182 1.523 . S
C1182 C1166 1.368 . S
C1182 C1178 1.368 . S
C1182 C1181 1.523 . S
H1183 C1158 0.950 . S
H1184 C1160 0.950 . S
H1185 C1161 0.949 . S
H1186 C1163 0.950 . S
H1187 C1165 0.950 . S
C1188 C1189 1.349 . S
C1188 C1190 1.327 . S
C1188 H1213 0.950 . S
C1189 C1188 1.349 . S
C1189 C1205 1.349 . S
C1190 C1188 1.327 . S
C1190 C1209 1.429 . S
C1190 H1214 0.950 . S
C1191 C1208 1.574 . S
C1191 C1210 1.368 . S
C1191 H1215 0.949 . S
H1192 C1196 0.949 . S
C1193 C1194 1.349 . S
C1193 C1195 1.327 . S
C1193 H1216 0.950 . S
C1194 C1193 1.349 . S
C1194 C1206 1.349 . S
C1195 C1193 1.327 . S
C1195 C1211 1.429 . S
C1195 H1217 0.950 . S
C1196 H1192 0.949 . S
C1196 C1204 1.574 . S
C1196 C1212 1.368 . S
H1197 C1205 0.950 . S
H1198 C1203 0.950 . S
H1199 C1204 0.949 . S
H1200 C1206 0.950 . S
H1201 C1207 0.950 . S
H1202 C1208 0.949 . S
C1203 H1198 0.950 . S
C1203 C1205 1.327 . S
C1203 C1209 1.429 . S
C1204 C1196 1.574 . S
C1204 H1199 0.949 . S
C1204 C1210 1.368 . S
C1205 C1189 1.349 . S
C1205 H1197 0.950 . S
C1205 C1203 1.327 . S
C1206 C1194 1.349 . S
C1206 H1200 0.950 . S
C1206 C1207 1.327 . S
C1207 H1201 0.950 . S
C1207 C1206 1.327 . S
C1207 C1211 1.429 . S
C1208 C1191 1.574 . S
C1208 H1202 0.949 . S
C1208 C1212 1.368 . S
C1209 C1190 1.429 . S
C1209 C1203 1.429 . S
C1209 C1210 1.523 . S
C1210 C1191 1.368 . S
C1210 C1204 1.368 . S
C1210 C1209 1.523 . S
C1211 C1195 1.429 . S
C1211 C1207 1.429 . S
C1211 C1212 1.523 . S
C1212 C1196 1.368 . S
C1212 C1208 1.368 . S
C1212 C1211 1.523 . S
H1213 C1188 0.950 . S
H1214 C1190 0.950 . S
H1215 C1191 0.949 . S
H1216 C1193 0.950 . S
H1217 C1195 0.950 . S
C1218 C1219 1.349 . S
C1218 C1220 1.327 . S
C1218 H1243 0.950 . S
C1219 C1218 1.349 . S
C1219 C1235 1.349 . S
C1220 C1218 1.327 . S
C1220 C1239 1.429 . S
C1220 H1244 0.950 . S
C1221 C1238 1.574 . S
C1221 C1240 1.368 . S
C1221 H1245 0.949 . S
H1222 C1226 0.949 . S
C1223 C1224 1.349 . S
C1223 C1225 1.327 . S
C1223 H1246 0.950 . S
C1224 C1223 1.349 . S
C1224 C1236 1.349 . S
C1225 C1223 1.327 . S
C1225 C1241 1.429 . S
C1225 H1247 0.950 . S
C1226 H1222 0.949 . S
C1226 C1234 1.574 . S
C1226 C1242 1.368 . S
H1227 C1235 0.950 . S
H1228 C1233 0.950 . S
H1229 C1234 0.949 . S
H1230 C1236 0.950 . S
H1231 C1237 0.950 . S
H1232 C1238 0.949 . S
C1233 H1228 0.950 . S
C1233 C1235 1.327 . S
C1233 C1239 1.429 . S
C1234 C1226 1.574 . S
C1234 H1229 0.949 . S
C1234 C1240 1.368 . S
C1235 C1219 1.349 . S
C1235 H1227 0.950 . S
C1235 C1233 1.327 . S
C1236 C1224 1.349 . S
C1236 H1230 0.950 . S
C1236 C1237 1.327 . S
C1237 H1231 0.950 . S
C1237 C1236 1.327 . S
C1237 C1241 1.429 . S
C1238 C1221 1.574 . S
C1238 H1232 0.949 . S
C1238 C1242 1.368 . S
C1239 C1220 1.429 . S
C1239 C1233 1.429 . S
C1239 C1240 1.523 . S
C1240 C1221 1.368 . S
C1240 C1234 1.368 . S
C1240 C1239 1.523 . S
C1241 C1225 1.429 . S
C1241 C1237 1.429 . S
C1241 C1242 1.523 . S
C1242 C1226 1.368 . S
C1242 C1238 1.368 . S
C1242 C1241 1.523 . S
H1243 C1218 0.950 . S
H1244 C1220 0.950 . S
H1245 C1221 0.949 . S
H1246 C1223 0.950 . S
H1247 C1225 0.950 . S
C1248 C1249 1.349 . S
C1248 C1250 1.327 . S
C1248 H1273 0.950 . S
C1249 C1248 1.349 . S
C1249 C1265 1.349 . S
C1250 C1248 1.327 . S
C1250 C1269 1.429 . S
C1250 H1274 0.950 . S
C1251 C1268 1.574 . S
C1251 C1270 1.368 . S
C1251 H1275 0.949 . S
H1252 C1256 0.949 . S
C1253 C1254 1.349 . S
C1253 C1255 1.327 . S
C1253 H1276 0.950 . S
C1254 C1253 1.349 . S
C1254 C1266 1.349 . S
C1255 C1253 1.327 . S
C1255 C1271 1.429 . S
C1255 H1277 0.950 . S
C1256 H1252 0.949 . S
C1256 C1264 1.574 . S
C1256 C1272 1.368 . S
H1257 C1265 0.950 . S
H1258 C1263 0.950 . S
H1259 C1264 0.949 . S
H1260 C1266 0.950 . S
H1261 C1267 0.950 . S
H1262 C1268 0.949 . S
C1263 H1258 0.950 . S
C1263 C1265 1.327 . S
C1263 C1269 1.429 . S
C1264 C1256 1.574 . S
C1264 H1259 0.949 . S
C1264 C1270 1.368 . S
C1265 C1249 1.349 . S
C1265 H1257 0.950 . S
C1265 C1263 1.327 . S
C1266 C1254 1.349 . S
C1266 H1260 0.950 . S
C1266 C1267 1.327 . S
C1267 H1261 0.950 . S
C1267 C1266 1.327 . S
C1267 C1271 1.429 . S
C1268 C1251 1.574 . S
C1268 H1262 0.949 . S
C1268 C1272 1.368 . S
C1269 C1250 1.429 . S
C1269 C1263 1.429 . S
C1269 C1270 1.523 . S
C1270 C1251 1.368 . S
C1270 C1264 1.368 . S
C1270 C1269 1.523 . S
C1271 C1255 1.429 . S
C1271 C1267 1.429 . S
C1271 C1272 1.523 . S
C1272 C1256 1.368 . S
C1272 C1268 1.368 . S
C1272 C1271 1.523 . S
H1273 C1248 0.950 . S
H1274 C1250 0.950 . S
H1275 C1251 0.949 . S
H1276 C1253 0.950 . S
H1277 C1255 0.950 . S
C1278 C1279 1.349 . S
C1278 C1280 1.327 . S
C1278 H1303 0.950 . S
C1279 C1278 1.349 . S
C1279 C1295 1.349 . S
C1280 C1278 1.327 . S
C1280 C1299 1.429 . S
C1280 H1304 0.950 . S
C1281 C1298 1.574 . S
C1281 C1300 1.368 . S
C1281 H1305 0.949 . S
H1282 C1286 0.949 . S
C1283 C1284 1.349 . S
C1283 C1285 1.327 . S
C1283 H1306 0.950 . S
C1284 C1283 1.349 . S
C1284 C1296 1.349 . S
C1285 C1283 1.327 . S
C1285 C1301 1.429 . S
C1285 H1307 0.950 . S
C1286 H1282 0.949 . S
C1286 C1294 1.574 . S
C1286 C1302 1.368 . S
H1287 C1295 0.950 . S
H1288 C1293 0.950 . S
H1289 C1294 0.949 . S
H1290 C1296 0.950 . S
H1291 C1297 0.950 . S
H1292 C1298 0.949 . S
C1293 H1288 0.950 . S
C1293 C1295 1.327 . S
C1293 C1299 1.429 . S
C1294 C1286 1.574 . S
C1294 H1289 0.949 . S
C1294 C1300 1.368 . S
C1295 C1279 1.349 . S
C1295 H1287 0.950 . S
C1295 C1293 1.327 . S
C1296 C1284 1.349 . S
C1296 H1290 0.950 . S
C1296 C1297 1.327 . S
C1297 H1291 0.950 . S
C1297 C1296 1.327 . S
C1297 C1301 1.429 . S
C1298 C1281 1.574 . S
C1298 H1292 0.949 . S
C1298 C1302 1.368 . S
C1299 C1280 1.429 . S
C1299 C1293 1.429 . S
C1299 C1300 1.523 . S
C1300 C1281 1.368 . S
C1300 C1294 1.368 . S
C1300 C1299 1.523 . S
C1301 C1285 1.429 . S
C1301 C1297 1.429 . S
C1301 C1302 1.523 . S
C1302 C1286 1.368 . S
C1302 C1298 1.368 . S
C1302 C1301 1.523 . S
H1303 C1278 0.950 . S
H1304 C1280 0.950 . S
H1305 C1281 0.949 . S
H1306 C1283 0.950 . S
H1307 C1285 0.950 . S
C1308 C1309 1.349 . S
C1308 C1310 1.327 . S
C1308 H1333 0.950 . S
C1309 C1308 1.349 . S
C1309 C1325 1.349 . S
C1310 C1308 1.327 . S
C1310 C1329 1.429 . S
C1310 H1334 0.950 . S
C1311 C1328 1.574 . S
C1311 C1330 1.368 . S
C1311 H1335 0.949 . S
H1312 C1316 0.949 . S
C1313 C1314 1.349 . S
C1313 C1315 1.327 . S
C1313 H1336 0.950 . S
C1314 C1313 1.349 . S
C1314 C1326 1.349 . S
C1315 C1313 1.327 . S
C1315 C1331 1.429 . S
C1315 H1337 0.950 . S
C1316 H1312 0.949 . S
C1316 C1324 1.574 . S
C1316 C1332 1.368 . S
H1317 C1325 0.950 . S
H1318 C1323 0.950 . S
H1319 C1324 0.949 . S
H1320 C1326 0.950 . S
H1321 C1327 0.950 . S
H1322 C1328 0.949 . S
C1323 H1318 0.950 . S
C1323 C1325 1.327 . S
C1323 C1329 1.429 . S
C1324 C1316 1.574 . S
C1324 H1319 0.949 . S
C1324 C1330 1.368 . S
C1325 C1309 1.349 . S
C1325 H1317 0.950 . S
C1325 C1323 1.327 . S
C1326 C1314 1.349 . S
C1326 H1320 0.950 . S
C1326 C1327 1.327 . S
C1327 H1321 0.950 . S
C1327 C1326 1.327 . S
C1327 C1331 1.429 . S
C1328 C1311 1.574 . S
C1328 H1322 0.949 . S
C1328 C1332 1.368 . S
C1329 C1310 1.429 . S
C1329 C1323 1.429 . S
C1329 C1330 1.523 . S
C1330 C1311 1.368 . S
C1330 C1324 1.368 . S
C1330 C1329 1.523 . S
C1331 C1315 1.429 . S
C1331 C1327 1.429 . S
C1331 C1332 1.523 . S
C1332 C1316 1.368 . S
C1332 C1328 1.368 . S
C1332 C1331 1.523 . S
H1333 C1308 0.950 . S
H1334 C1310 0.950 . S
H1335 C1311 0.949 . S
H1336 C1313 0.950 . S
H1337 C1315 0.950 . S
C1338 C1339 1.349 . S
C1338 C1340 1.327 . S
C1338 H1363 0.950 . S
C1339 C1338 1.349 . S
C1339 C1355 1.349 . S
C1340 C1338 1.327 . S
C1340 C1359 1.429 . S
C1340 H1364 0.950 . S
C1341 C1358 1.574 . S
C1341 C1360 1.368 . S
C1341 H1365 0.949 . S
H1342 C1346 0.949 . S
C1343 C1344 1.349 . S
C1343 C1345 1.327 . S
C1343 H1366 0.950 . S
C1344 C1343 1.349 . S
C1344 C1356 1.349 . S
C1345 C1343 1.327 . S
C1345 C1361 1.429 . S
C1345 H1367 0.950 . S
C1346 H1342 0.949 . S
C1346 C1354 1.574 . S
C1346 C1362 1.368 . S
H1347 C1355 0.950 . S
H1348 C1353 0.950 . S
H1349 C1354 0.949 . S
H1350 C1356 0.950 . S
H1351 C1357 0.950 . S
H1352 C1358 0.949 . S
C1353 H1348 0.950 . S
C1353 C1355 1.327 . S
C1353 C1359 1.429 . S
C1354 C1346 1.574 . S
C1354 H1349 0.949 . S
C1354 C1360 1.368 . S
C1355 C1339 1.349 . S
C1355 H1347 0.950 . S
C1355 C1353 1.327 . S
C1356 C1344 1.349 . S
C1356 H1350 0.950 . S
C1356 C1357 1.327 . S
C1357 H1351 0.950 . S
C1357 C1356 1.327 . S
C1357 C1361 1.429 . S
C1358 C1341 1.574 . S
C1358 H1352 0.949 . S
C1358 C1362 1.368 . S
C1359 C1340 1.429 . S
C1359 C1353 1.429 . S
C1359 C1360 1.523 . S
C1360 C1341 1.368 . S
C1360 C1354 1.368 . S
C1360 C1359 1.523 . S
C1361 C1345 1.429 . S
C1361 C1357 1.429 . S
C1361 C1362 1.523 . S
C1362 C1346 1.368 . S
C1362 C1358 1.368 . S
C1362 C1361 1.523 . S
H1363 C1338 0.950 . S
H1364 C1340 0.950 . S
H1365 C1341 0.949 . S
H1366 C1343 0.950 . S
H1367 C1345 0.950 . S
C1368 C1369 1.349 . S
C1368 C1370 1.327 . S
C1368 H1393 0.950 . S
C1369 C1368 1.349 . S
C1369 C1385 1.349 . S
C1370 C1368 1.327 . S
C1370 C1389 1.429 . S
C1370 H1394 0.950 . S
C1371 C1388 1.574 . S
C1371 C1390 1.368 . S
C1371 H1395 0.949 . S
H1372 C1376 0.949 . S
C1373 C1374 1.349 . S
C1373 C1375 1.327 . S
C1373 H1396 0.950 . S
C1374 C1373 1.349 . S
C1374 C1386 1.349 . S
C1375 C1373 1.327 . S
C1375 C1391 1.429 . S
C1375 H1397 0.950 . S
C1376 H1372 0.949 . S
C1376 C1384 1.574 . S
C1376 C1392 1.368 . S
H1377 C1385 0.950 . S
H1378 C1383 0.950 . S
H1379 C1384 0.949 . S
H1380 C1386 0.950 . S
H1381 C1387 0.950 . S
H1382 C1388 0.949 . S
C1383 H1378 0.950 . S
C1383 C1385 1.327 . S
C1383 C1389 1.429 . S
C1384 C1376 1.574 . S
C1384 H1379 0.949 . S
C1384 C1390 1.368 . S
C1385 C1369 1.349 . S
C1385 H1377 0.950 . S
C1385 C1383 1.327 . S
C1386 C1374 1.349 . S
C1386 H1380 0.950 . S
C1386 C1387 1.327 . S
C1387 H1381 0.950 . S
C1387 C1386 1.327 . S
C1387 C1391 1.429 . S
C1388 C1371 1.574 . S
C1388 H1382 0.949 . S
C1388 C1392 1.368 . S
C1389 C1370 1.429 . S
C1389 C1383 1.429 . S
C1389 C1390 1.523 . S
C1390 C1371 1.368 . S
C1390 C1384 1.368 . S
C1390 C1389 1.523 . S
C1391 C1375 1.429 . S
C1391 C1387 1.429 . S
C1391 C1392 1.523 . S
C1392 C1376 1.368 . S
C1392 C1388 1.368 . S
C1392 C1391 1.523 . S
H1393 C1368 0.950 . S
H1394 C1370 0.950 . S
H1395 C1371 0.949 . S
H1396 C1373 0.950 . S
H1397 C1375 0.950 . S
C1398 C1399 1.349 . S
C1398 C1400 1.327 . S
C1398 H1423 0.950 . S
C1399 C1398 1.349 . S
C1399 C1415 1.349 . S
C1400 C1398 1.327 . S
C1400 C1419 1.429 . S
C1400 H1424 0.950 . S
C1401 C1418 1.574 . S
C1401 C1420 1.368 . S
C1401 H1425 0.949 . S
H1402 C1406 0.949 . S
C1403 C1404 1.349 . S
C1403 C1405 1.327 . S
C1403 H1426 0.950 . S
C1404 C1403 1.349 . S
C1404 C1416 1.349 . S
C1405 C1403 1.327 . S
C1405 C1421 1.429 . S
C1405 H1427 0.950 . S
C1406 H1402 0.949 . S
C1406 C1414 1.574 . S
C1406 C1422 1.368 . S
H1407 C1415 0.950 . S
H1408 C1413 0.950 . S
H1409 C1414 0.949 . S
H1410 C1416 0.950 . S
H1411 C1417 0.950 . S
H1412 C1418 0.949 . S
C1413 H1408 0.950 . S
C1413 C1415 1.327 . S
C1413 C1419 1.429 . S
C1414 C1406 1.574 . S
C1414 H1409 0.949 . S
C1414 C1420 1.368 . S
C1415 C1399 1.349 . S
C1415 H1407 0.950 . S
C1415 C1413 1.327 . S
C1416 C1404 1.349 . S
C1416 H1410 0.950 . S
C1416 C1417 1.327 . S
C1417 H1411 0.950 . S
C1417 C1416 1.327 . S
C1417 C1421 1.429 . S
C1418 C1401 1.574 . S
C1418 H1412 0.949 . S
C1418 C1422 1.368 . S
C1419 C1400 1.429 . S
C1419 C1413 1.429 . S
C1419 C1420 1.523 . S
C1420 C1401 1.368 . S
C1420 C1414 1.368 . S
C1420 C1419 1.523 . S
C1421 C1405 1.429 . S
C1421 C1417 1.429 . S
C1421 C1422 1.523 . S
C1422 C1406 1.368 . S
C1422 C1418 1.368 . S
C1422 C1421 1.523 . S
H1423 C1398 0.950 . S
H1424 C1400 0.950 . S
H1425 C1401 0.949 . S
H1426 C1403 0.950 . S
H1427 C1405 0.950 . S
C1428 C1429 1.349 . S
C1428 C1430 1.327 . S
C1428 H1453 0.950 . S
C1429 C1428 1.349 . S
C1429 C1445 1.349 . S
C1430 C1428 1.327 . S
C1430 C1449 1.429 . S
C1430 H1454 0.950 . S
C1431 C1448 1.574 . S
C1431 C1450 1.368 . S
C1431 H1455 0.949 . S
H1432 C1436 0.949 . S
C1433 C1434 1.349 . S
C1433 C1435 1.327 . S
C1433 H1456 0.950 . S
C1434 C1433 1.349 . S
C1434 C1446 1.349 . S
C1435 C1433 1.327 . S
C1435 C1451 1.429 . S
C1435 H1457 0.950 . S
C1436 H1432 0.949 . S
C1436 C1444 1.574 . S
C1436 C1452 1.368 . S
H1437 C1445 0.950 . S
H1438 C1443 0.950 . S
H1439 C1444 0.949 . S
H1440 C1446 0.950 . S
H1441 C1447 0.950 . S
H1442 C1448 0.949 . S
C1443 H1438 0.950 . S
C1443 C1445 1.327 . S
C1443 C1449 1.429 . S
C1444 C1436 1.574 . S
C1444 H1439 0.949 . S
C1444 C1450 1.368 . S
C1445 C1429 1.349 . S
C1445 H1437 0.950 . S
C1445 C1443 1.327 . S
C1446 C1434 1.349 . S
C1446 H1440 0.950 . S
C1446 C1447 1.327 . S
C1447 H1441 0.950 . S
C1447 C1446 1.327 . S
C1447 C1451 1.429 . S
C1448 C1431 1.574 . S
C1448 H1442 0.949 . S
C1448 C1452 1.368 . S
C1449 C1430 1.429 . S
C1449 C1443 1.429 . S
C1449 C1450 1.523 . S
C1450 C1431 1.368 . S
C1450 C1444 1.368 . S
C1450 C1449 1.523 . S
C1451 C1435 1.429 . S
C1451 C1447 1.429 . S
C1451 C1452 1.523 . S
C1452 C1436 1.368 . S
C1452 C1448 1.368 . S
C1452 C1451 1.523 . S
H1453 C1428 0.950 . S
H1454 C1430 0.950 . S
H1455 C1431 0.949 . S
H1456 C1433 0.950 . S
H1457 C1435 0.950 . S
C1458 C1459 1.349 . S
C1458 C1460 1.327 . S
C1458 H1483 0.950 . S
C1459 C1458 1.349 . S
C1459 C1475 1.349 . S
C1460 C1458 1.327 . S
C1460 C1479 1.429 . S
C1460 H1484 0.950 . S
C1461 C1478 1.574 . S
C1461 C1480 1.368 . S
C1461 H1485 0.949 . S
H1462 C1466 0.949 . S
C1463 C1464 1.349 . S
C1463 C1465 1.327 . S
C1463 H1486 0.950 . S
C1464 C1463 1.349 . S
C1464 C1476 1.349 . S
C1465 C1463 1.327 . S
C1465 C1481 1.429 . S
C1465 H1487 0.950 . S
C1466 H1462 0.949 . S
C1466 C1474 1.574 . S
C1466 C1482 1.368 . S
H1467 C1475 0.950 . S
H1468 C1473 0.950 . S
H1469 C1474 0.949 . S
H1470 C1476 0.950 . S
H1471 C1477 0.950 . S
H1472 C1478 0.949 . S
C1473 H1468 0.950 . S
C1473 C1475 1.327 . S
C1473 C1479 1.429 . S
C1474 C1466 1.574 . S
C1474 H1469 0.949 . S
C1474 C1480 1.368 . S
C1475 C1459 1.349 . S
C1475 H1467 0.950 . S
C1475 C1473 1.327 . S
C1476 C1464 1.349 . S
C1476 H1470 0.950 . S
C1476 C1477 1.327 . S
C1477 H1471 0.950 . S
C1477 C1476 1.327 . S
C1477 C1481 1.429 . S
C1478 C1461 1.574 . S
C1478 H1472 0.949 . S
C1478 C1482 1.368 . S
C1479 C1460 1.429 . S
C1479 C1473 1.429 . S
C1479 C1480 1.523 . S
C1480 C1461 1.368 . S
C1480 C1474 1.368 . S
C1480 C1479 1.523 . S
C1481 C1465 1.429 . S
C1481 C1477 1.429 . S
C1481 C1482 1.523 . S
C1482 C1466 1.368 . S
C1482 C1478 1.368 . S
C1482 C1481 1.523 . S
H1483 C1458 0.950 . S
H1484 C1460 0.950 . S
H1485 C1461 0.949 . S
H1486 C1463 0.950 . S
H1487 C1465 0.950 . S
C1488 C1489 1.349 . S
C1488 C1490 1.327 . S
C1488 H1513 0.950 . S
C1489 C1488 1.349 . S
C1489 C1505 1.349 . S
C1490 C1488 1.327 . S
C1490 C1509 1.429 . S
C1490 H1514 0.950 . S
C1491 C1508 1.584 . S
C1491 C1510 1.368 . S
C1491 H1515 0.949 . S
H1492 C1496 0.949 . S
C1493 C1494 1.349 . S
C1493 C1495 1.327 . S
C1493 H1516 0.950 . S
C1494 C1493 1.349 . S
C1494 C1506 1.349 . S
C1495 C1493 1.327 . S
C1495 C1511 1.429 . S
C1495 H1517 0.950 . S
C1496 H1492 0.949 . S
C1496 C1504 1.553 1_554 S
C1496 C1512 1.368 . S
H1497 C1505 0.950 . S
H1498 C1503 0.950 . S
H1499 C1504 0.956 . S
H1500 C1506 0.950 . S
H1501 C1507 0.950 . S
H1502 C1508 0.949 . S
C1503 H1498 0.950 . S
C1503 C1505 1.327 . S
C1503 C1509 1.429 . S
C1504 C1496 1.553 1_556 S
C1504 H1499 0.956 . S
C1504 C1510 1.392 . S
C1505 C1489 1.349 . S
C1505 H1497 0.950 . S
C1505 C1503 1.327 . S
C1506 C1494 1.349 . S
C1506 H1500 0.950 . S
C1506 C1507 1.327 . S
C1507 H1501 0.950 . S
C1507 C1506 1.327 . S
C1507 C1511 1.429 . S
C1508 C1491 1.584 . S
C1508 H1502 0.949 . S
C1508 C1512 1.360 1_556 S
C1509 C1490 1.429 . S
C1509 C1503 1.429 . S
C1509 C1510 1.523 . S
C1510 C1491 1.368 . S
C1510 C1504 1.392 . S
C1510 C1509 1.523 . S
C1511 C1495 1.429 . S
C1511 C1507 1.429 . S
C1511 C1512 1.523 . S
C1512 C1496 1.368 . S
C1512 C1508 1.360 1_554 S
C1512 C1511 1.523 . S
H1513 C1488 0.950 . S
H1514 C1490 0.950 . S
H1515 C1491 0.949 . S
H1516 C1493 0.950 . S
H1517 C1495 0.950 . S
C1518 C1519 1.349 . S
C1518 C1520 1.327 . S
C1518 H1543 0.950 . S
C1519 C1518 1.349 . S
C1519 C1535 1.349 . S
C1520 C1518 1.327 . S
C1520 C1539 1.429 . S
C1520 H1544 0.950 . S
C1521 C1538 1.574 . S
C1521 C1540 1.368 . S
C1521 H1545 0.949 . S
H1522 C1526 0.949 . S
C1523 C1524 1.349 . S
C1523 C1525 1.327 . S
C1523 H1546 0.950 . S
C1524 C1523 1.349 . S
C1524 C1536 1.349 . S
C1525 C1523 1.327 . S
C1525 C1541 1.429 . S
C1525 H1547 0.950 . S
C1526 H1522 0.949 . S
C1526 C1534 1.574 . S
C1526 C1542 1.368 . S
H1527 C1535 0.950 . S
H1528 C1533 0.950 . S
H1529 C1534 0.949 . S
H1530 C1536 0.950 . S
H1531 C1537 0.950 . S
H1532 C1538 0.949 . S
C1533 H1528 0.950 . S
C1533 C1535 1.327 . S
C1533 C1539 1.429 . S
C1534 C1526 1.574 . S
C1534 H1529 0.949 . S
C1534 C1540 1.368 . S
C1535 C1519 1.349 . S
C1535 H1527 0.950 . S
C1535 C1533 1.327 . S
C1536 C1524 1.349 . S
C1536 H1530 0.950 . S
C1536 C1537 1.327 . S
C1537 H1531 0.950 . S
C1537 C1536 1.327 . S
C1537 C1541 1.429 . S
C1538 C1521 1.574 . S
C1538 H1532 0.949 . S
C1538 C1542 1.368 . S
C1539 C1520 1.429 . S
C1539 C1533 1.429 . S
C1539 C1540 1.523 . S
C1540 C1521 1.368 . S
C1540 C1534 1.368 . S
C1540 C1539 1.523 . S
C1541 C1525 1.429 . S
C1541 C1537 1.429 . S
C1541 C1542 1.523 . S
C1542 C1526 1.368 . S
C1542 C1538 1.368 . S
C1542 C1541 1.523 . S
H1543 C1518 0.950 . S
H1544 C1520 0.950 . S
H1545 C1521 0.949 . S
H1546 C1523 0.950 . S
H1547 C1525 0.950 . S
C1548 C1549 1.349 . S
C1548 C1550 1.327 . S
C1548 H1573 0.950 . S
C1549 C1548 1.349 . S
C1549 C1565 1.349 . S
C1550 C1548 1.327 . S
C1550 C1569 1.429 . S
C1550 H1574 0.950 . S
C1551 C1568 1.574 . S
C1551 C1570 1.368 . S
C1551 H1575 0.949 . S
H1552 C1556 0.949 . S
C1553 C1554 1.349 . S
C1553 C1555 1.327 . S
C1553 H1576 0.950 . S
C1554 C1553 1.349 . S
C1554 C1566 1.349 . S
C1555 C1553 1.327 . S
C1555 C1571 1.429 . S
C1555 H1577 0.950 . S
C1556 H1552 0.949 . S
C1556 C1564 1.574 . S
C1556 C1572 1.368 . S
H1557 C1565 0.950 . S
H1558 C1563 0.950 . S
H1559 C1564 0.949 . S
H1560 C1566 0.950 . S
H1561 C1567 0.950 . S
H1562 C1568 0.949 . S
C1563 H1558 0.950 . S
C1563 C1565 1.327 . S
C1563 C1569 1.429 . S
C1564 C1556 1.574 . S
C1564 H1559 0.949 . S
C1564 C1570 1.368 . S
C1565 C1549 1.349 . S
C1565 H1557 0.950 . S
C1565 C1563 1.327 . S
C1566 C1554 1.349 . S
C1566 H1560 0.950 . S
C1566 C1567 1.327 . S
C1567 H1561 0.950 . S
C1567 C1566 1.327 . S
C1567 C1571 1.429 . S
C1568 C1551 1.574 . S
C1568 H1562 0.949 . S
C1568 C1572 1.368 . S
C1569 C1550 1.429 . S
C1569 C1563 1.429 . S
C1569 C1570 1.523 . S
C1570 C1551 1.368 . S
C1570 C1564 1.368 . S
C1570 C1569 1.523 . S
C1571 C1555 1.429 . S
C1571 C1567 1.429 . S
C1571 C1572 1.523 . S
C1572 C1556 1.368 . S
C1572 C1568 1.368 . S
C1572 C1571 1.523 . S
H1573 C1548 0.950 . S
H1574 C1550 0.950 . S
H1575 C1551 0.949 . S
H1576 C1553 0.950 . S
H1577 C1555 0.950 . S
C1578 C1579 1.349 . S
C1578 C1580 1.327 . S
C1578 H1603 0.950 . S
C1579 C1578 1.349 . S
C1579 C1595 1.349 . S
C1580 C1578 1.327 . S
C1580 C1599 1.429 . S
C1580 H1604 0.950 . S
C1581 C1598 1.574 . S
C1581 C1600 1.368 . S
C1581 H1605 0.949 . S
H1582 C1586 0.949 . S
C1583 C1584 1.349 . S
C1583 C1585 1.327 . S
C1583 H1606 0.950 . S
C1584 C1583 1.349 . S
C1584 C1596 1.349 . S
C1585 C1583 1.327 . S
C1585 C1601 1.429 . S
C1585 H1607 0.950 . S
C1586 H1582 0.949 . S
C1586 C1594 1.574 . S
C1586 C1602 1.368 . S
H1587 C1595 0.950 . S
H1588 C1593 0.950 . S
H1589 C1594 0.949 . S
H1590 C1596 0.950 . S
H1591 C1597 0.950 . S
H1592 C1598 0.949 . S
C1593 H1588 0.950 . S
C1593 C1595 1.327 . S
C1593 C1599 1.429 . S
C1594 C1586 1.574 . S
C1594 H1589 0.949 . S
C1594 C1600 1.368 . S
C1595 C1579 1.349 . S
C1595 H1587 0.950 . S
C1595 C1593 1.327 . S
C1596 C1584 1.349 . S
C1596 H1590 0.950 . S
C1596 C1597 1.327 . S
C1597 H1591 0.950 . S
C1597 C1596 1.327 . S
C1597 C1601 1.429 . S
C1598 C1581 1.574 . S
C1598 H1592 0.949 . S
C1598 C1602 1.368 . S
C1599 C1580 1.429 . S
C1599 C1593 1.429 . S
C1599 C1600 1.523 . S
C1600 C1581 1.368 . S
C1600 C1594 1.368 . S
C1600 C1599 1.523 . S
C1601 C1585 1.429 . S
C1601 C1597 1.429 . S
C1601 C1602 1.523 . S
C1602 C1586 1.368 . S
C1602 C1598 1.368 . S
C1602 C1601 1.523 . S
H1603 C1578 0.950 . S
H1604 C1580 0.950 . S
H1605 C1581 0.949 . S
H1606 C1583 0.950 . S
H1607 C1585 0.950 . S
C1608 C1609 1.349 . S
C1608 C1610 1.327 . S
C1608 H1633 0.950 . S
C1609 C1608 1.349 . S
C1609 C1625 1.349 . S
C1610 C1608 1.327 . S
C1610 C1629 1.429 . S
C1610 H1634 0.950 . S
C1611 C1628 1.574 . S
C1611 C1630 1.368 . S
C1611 H1635 0.949 . S
H1612 C1616 0.949 . S
C1613 C1614 1.349 . S
C1613 C1615 1.327 . S
C1613 H1636 0.950 . S
C1614 C1613 1.349 . S
C1614 C1626 1.349 . S
C1615 C1613 1.327 . S
C1615 C1631 1.429 . S
C1615 H1637 0.950 . S
C1616 H1612 0.949 . S
C1616 C1624 1.574 . S
C1616 C1632 1.368 . S
H1617 C1625 0.950 . S
H1618 C1623 0.950 . S
H1619 C1624 0.949 . S
H1620 C1626 0.950 . S
H1621 C1627 0.950 . S
H1622 C1628 0.949 . S
C1623 H1618 0.950 . S
C1623 C1625 1.327 . S
C1623 C1629 1.429 . S
C1624 C1616 1.574 . S
C1624 H1619 0.949 . S
C1624 C1630 1.368 . S
C1625 C1609 1.349 . S
C1625 H1617 0.950 . S
C1625 C1623 1.327 . S
C1626 C1614 1.349 . S
C1626 H1620 0.950 . S
C1626 C1627 1.327 . S
C1627 H1621 0.950 . S
C1627 C1626 1.327 . S
C1627 C1631 1.429 . S
C1628 C1611 1.574 . S
C1628 H1622 0.949 . S
C1628 C1632 1.368 . S
C1629 C1610 1.429 . S
C1629 C1623 1.429 . S
C1629 C1630 1.523 . S
C1630 C1611 1.368 . S
C1630 C1624 1.368 . S
C1630 C1629 1.523 . S
C1631 C1615 1.429 . S
C1631 C1627 1.429 . S
C1631 C1632 1.523 . S
C1632 C1616 1.368 . S
C1632 C1628 1.368 . S
C1632 C1631 1.523 . S
H1633 C1608 0.950 . S
H1634 C1610 0.950 . S
H1635 C1611 0.949 . S
H1636 C1613 0.950 . S
H1637 C1615 0.950 . S
C1638 C1639 1.349 . S
C1638 C1640 1.327 . S
C1638 H1663 0.950 . S
C1639 C1638 1.349 . S
C1639 C1655 1.349 . S
C1640 C1638 1.327 . S
C1640 C1659 1.429 . S
C1640 H1664 0.950 . S
C1641 C1658 1.554 1_554 S
C1641 C1660 1.414 . S
C1641 H1665 0.930 1_554 S
H1642 C1646 0.949 . S
C1643 C1644 1.349 . S
C1643 C1645 1.327 . S
C1643 H1666 0.950 . S
C1644 C1643 1.349 . S
C1644 C1656 1.349 . S
C1645 C1643 1.327 . S
C1645 C1661 1.429 . S
C1645 H1667 0.950 . S
C1646 H1642 0.949 . S
C1646 C1654 1.574 . S
C1646 C1662 1.414 . S
H1647 C1655 0.950 . S
H1648 C1653 0.950 . S
H1649 C1654 0.949 . S
H1650 C1656 0.968 . S
H1651 C1657 0.961 . S
H1652 C1658 0.949 . S
C1653 H1648 0.950 . S
C1653 C1655 1.327 . S
C1653 C1659 1.429 . S
C1654 C1646 1.574 . S
C1654 H1649 0.949 . S
C1654 C1660 1.368 . S
C1655 C1639 1.349 . S
C1655 H1647 0.950 . S
C1655 C1653 1.327 . S
C1656 C1644 1.349 . S
C1656 H1650 0.968 . S
C1656 C1657 1.321 1_556 S
C1657 H1651 0.961 . S
C1657 C1656 1.321 1_554 S
C1657 C1661 1.424 1_554 S
C1658 C1641 1.554 1_556 S
C1658 H1652 0.949 . S
C1658 C1662 1.345 1_556 S
C1659 C1640 1.429 . S
C1659 C1653 1.429 . S
C1659 C1660 1.523 . S
C1660 C1641 1.414 . S
C1660 C1654 1.368 . S
C1660 C1659 1.523 . S
C1661 C1645 1.429 . S
C1661 C1657 1.424 1_556 S
C1661 C1662 1.503 1_556 S
C1662 C1646 1.414 . S
C1662 C1658 1.345 1_554 S
C1662 C1661 1.503 1_554 S
H1663 C1638 0.950 . S
H1664 C1640 0.950 . S
H1665 C1641 0.930 1_556 S
H1666 C1643 0.950 . S
H1667 C1645 0.950 . S
C1668 C1669 1.349 . S
C1668 C1670 1.327 . S
C1668 H1693 0.950 . S
C1669 C1668 1.349 . S
C1669 C1685 1.349 . S
C1670 C1668 1.327 . S
C1670 C1689 1.429 . S
C1670 H1694 0.950 . S
C1671 C1688 1.574 . S
C1671 C1690 1.368 . S
C1671 H1695 0.949 . S
H1672 C1676 0.949 . S
C1673 C1674 1.349 . S
C1673 C1675 1.327 . S
C1673 H1696 0.950 . S
C1674 C1673 1.349 . S
C1674 C1686 1.349 . S
C1675 C1673 1.327 . S
C1675 C1691 1.429 . S
C1675 H1697 0.950 . S
C1676 H1672 0.949 . S
C1676 C1684 1.574 . S
C1676 C1692 1.368 . S
H1677 C1685 0.950 . S
H1678 C1683 0.950 . S
H1679 C1684 0.949 . S
H1680 C1686 0.950 . S
H1681 C1687 0.950 . S
H1682 C1688 0.949 . S
C1683 H1678 0.950 . S
C1683 C1685 1.327 . S
C1683 C1689 1.429 . S
C1684 C1676 1.574 . S
C1684 H1679 0.949 . S
C1684 C1690 1.368 . S
C1685 C1669 1.349 . S
C1685 H1677 0.950 . S
C1685 C1683 1.327 . S
C1686 C1674 1.349 . S
C1686 H1680 0.950 . S
C1686 C1687 1.327 . S
C1687 H1681 0.950 . S
C1687 C1686 1.327 . S
C1687 C1691 1.429 . S
C1688 C1671 1.574 . S
C1688 H1682 0.949 . S
C1688 C1692 1.368 . S
C1689 C1670 1.429 . S
C1689 C1683 1.429 . S
C1689 C1690 1.523 . S
C1690 C1671 1.368 . S
C1690 C1684 1.368 . S
C1690 C1689 1.523 . S
C1691 C1675 1.429 . S
C1691 C1687 1.429 . S
C1691 C1692 1.523 . S
C1692 C1676 1.368 . S
C1692 C1688 1.368 . S
C1692 C1691 1.523 . S
H1693 C1668 0.950 . S
H1694 C1670 0.950 . S
H1695 C1671 0.949 . S
H1696 C1673 0.950 . S
H1697 C1675 0.950 . S
C1698 C1699 1.349 . S
C1698 C1700 1.327 . S
C1698 H1723 0.950 . S
C1699 C1698 1.349 . S
C1699 C1715 1.349 . S
C1700 C1698 1.327 . S
C1700 C1719 1.429 . S
C1700 H1724 0.950 . S
C1701 C1718 1.574 . S
C1701 C1720 1.368 . S
C1701 H1725 0.949 . S
H1702 C1706 0.949 . S
C1703 C1704 1.349 . S
C1703 C1705 1.327 . S
C1703 H1726 0.950 . S
C1704 C1703 1.349 . S
C1704 C1716 1.349 . S
C1705 C1703 1.327 . S
C1705 C1721 1.429 . S
C1705 H1727 0.950 . S
C1706 H1702 0.949 . S
C1706 C1714 1.574 . S
C1706 C1722 1.368 . S
H1707 C1715 0.950 . S
H1708 C1713 0.950 . S
H1709 C1714 0.949 . S
H1710 C1716 0.950 . S
H1711 C1717 0.950 . S
H1712 C1718 0.949 . S
C1713 H1708 0.950 . S
C1713 C1715 1.327 . S
C1713 C1719 1.429 . S
C1714 C1706 1.574 . S
C1714 H1709 0.949 . S
C1714 C1720 1.368 . S
C1715 C1699 1.349 . S
C1715 H1707 0.950 . S
C1715 C1713 1.327 . S
C1716 C1704 1.349 . S
C1716 H1710 0.950 . S
C1716 C1717 1.327 . S
C1717 H1711 0.950 . S
C1717 C1716 1.327 . S
C1717 C1721 1.429 . S
C1718 C1701 1.574 . S
C1718 H1712 0.949 . S
C1718 C1722 1.368 . S
C1719 C1700 1.429 . S
C1719 C1713 1.429 . S
C1719 C1720 1.523 . S
C1720 C1701 1.368 . S
C1720 C1714 1.368 . S
C1720 C1719 1.523 . S
C1721 C1705 1.429 . S
C1721 C1717 1.429 . S
C1721 C1722 1.523 . S
C1722 C1706 1.368 . S
C1722 C1718 1.368 . S
C1722 C1721 1.523 . S
H1723 C1698 0.950 . S
H1724 C1700 0.950 . S
H1725 C1701 0.949 . S
H1726 C1703 0.950 . S
H1727 C1705 0.950 . S
C1728 C1729 1.349 . S
C1728 C1730 1.327 . S
C1728 H1753 0.950 . S
C1729 C1728 1.349 . S
C1729 C1745 1.349 . S
C1730 C1728 1.327 . S
C1730 C1749 1.429 . S
C1730 H1754 0.950 . S
C1731 C1748 1.574 . S
C1731 C1750 1.368 . S
C1731 H1755 0.949 . S
H1732 C1736 0.949 . S
C1733 C1734 1.349 . S
C1733 C1735 1.327 . S
C1733 H1756 0.950 . S
C1734 C1733 1.349 . S
C1734 C1746 1.349 . S
C1735 C1733 1.327 . S
C1735 C1751 1.429 . S
C1735 H1757 0.950 . S
C1736 H1732 0.949 . S
C1736 C1744 1.574 . S
C1736 C1752 1.368 . S
H1737 C1745 0.950 . S
H1738 C1743 0.950 . S
H1739 C1744 0.949 . S
H1740 C1746 0.950 . S
H1741 C1747 0.950 . S
H1742 C1748 0.949 . S
C1743 H1738 0.950 . S
C1743 C1745 1.327 . S
C1743 C1749 1.429 . S
C1744 C1736 1.574 . S
C1744 H1739 0.949 . S
C1744 C1750 1.368 . S
C1745 C1729 1.349 . S
C1745 H1737 0.950 . S
C1745 C1743 1.327 . S
C1746 C1734 1.349 . S
C1746 H1740 0.950 . S
C1746 C1747 1.327 . S
C1747 H1741 0.950 . S
C1747 C1746 1.327 . S
C1747 C1751 1.429 . S
C1748 C1731 1.574 . S
C1748 H1742 0.949 . S
C1748 C1752 1.368 . S
C1749 C1730 1.429 . S
C1749 C1743 1.429 . S
C1749 C1750 1.523 . S
C1750 C1731 1.368 . S
C1750 C1744 1.368 . S
C1750 C1749 1.523 . S
C1751 C1735 1.429 . S
C1751 C1747 1.429 . S
C1751 C1752 1.523 . S
C1752 C1736 1.368 . S
C1752 C1748 1.368 . S
C1752 C1751 1.523 . S
H1753 C1728 0.950 . S
H1754 C1730 0.950 . S
H1755 C1731 0.949 . S
H1756 C1733 0.950 . S
H1757 C1735 0.950 . S
C1758 C1759 1.349 . S
C1758 C1760 1.327 . S
C1758 H1783 0.950 . S
C1759 C1758 1.349 . S
C1759 C1775 1.349 . S
C1760 C1758 1.327 . S
C1760 C1779 1.429 . S
C1760 H1784 0.950 . S
C1761 C1778 1.574 . S
C1761 C1780 1.368 . S
C1761 H1785 0.949 . S
H1762 C1766 0.949 . S
C1763 C1764 1.349 . S
C1763 C1765 1.327 . S
C1763 H1786 0.950 . S
C1764 C1763 1.349 . S
C1764 C1776 1.349 . S
C1765 C1763 1.327 . S
C1765 C1781 1.429 . S
C1765 H1787 0.950 . S
C1766 H1762 0.949 . S
C1766 C1774 1.574 . S
C1766 C1782 1.368 . S
H1767 C1775 0.950 . S
H1768 C1773 0.950 . S
H1769 C1774 0.949 . S
H1770 C1776 0.950 . S
H1771 C1777 0.950 . S
H1772 C1778 0.949 . S
C1773 H1768 0.950 . S
C1773 C1775 1.327 . S
C1773 C1779 1.429 . S
C1774 C1766 1.574 . S
C1774 H1769 0.949 . S
C1774 C1780 1.368 . S
C1775 C1759 1.349 . S
C1775 H1767 0.950 . S
C1775 C1773 1.327 . S
C1776 C1764 1.349 . S
C1776 H1770 0.950 . S
C1776 C1777 1.327 . S
C1777 H1771 0.950 . S
C1777 C1776 1.327 . S
C1777 C1781 1.429 . S
C1778 C1761 1.574 . S
C1778 H1772 0.949 . S
C1778 C1782 1.368 . S
C1779 C1760 1.429 . S
C1779 C1773 1.429 . S
C1779 C1780 1.523 . S
C1780 C1761 1.368 . S
C1780 C1774 1.368 . S
C1780 C1779 1.523 . S
C1781 C1765 1.429 . S
C1781 C1777 1.429 . S
C1781 C1782 1.523 . S
C1782 C1766 1.368 . S
C1782 C1778 1.368 . S
C1782 C1781 1.523 . S
H1783 C1758 0.950 . S
H1784 C1760 0.950 . S
H1785 C1761 0.949 . S
H1786 C1763 0.950 . S
H1787 C1765 0.950 . S
C1788 C1789 1.349 . S
C1788 C1790 1.327 . S
C1788 H1813 0.950 . S
C1789 C1788 1.349 . S
C1789 C1805 1.349 . S
C1790 C1788 1.327 . S
C1790 C1809 1.429 . S
C1790 H1814 0.950 . S
C1791 C1808 1.574 . S
C1791 C1810 1.368 . S
C1791 H1815 0.949 . S
H1792 C1796 0.949 . S
C1793 C1794 1.349 . S
C1793 C1795 1.327 . S
C1793 H1816 0.950 . S
C1794 C1793 1.349 . S
C1794 C1806 1.349 . S
C1795 C1793 1.327 . S
C1795 C1811 1.429 . S
C1795 H1817 0.950 . S
C1796 H1792 0.949 . S
C1796 C1804 1.574 . S
C1796 C1812 1.368 . S
H1797 C1805 0.950 . S
H1798 C1803 0.950 . S
H1799 C1804 0.949 . S
H1800 C1806 0.950 . S
H1801 C1807 0.950 . S
H1802 C1808 0.949 . S
C1803 H1798 0.950 . S
C1803 C1805 1.327 . S
C1803 C1809 1.429 . S
C1804 C1796 1.574 . S
C1804 H1799 0.949 . S
C1804 C1810 1.368 . S
C1805 C1789 1.349 . S
C1805 H1797 0.950 . S
C1805 C1803 1.327 . S
C1806 C1794 1.349 . S
C1806 H1800 0.950 . S
C1806 C1807 1.327 . S
C1807 H1801 0.950 . S
C1807 C1806 1.327 . S
C1807 C1811 1.429 . S
C1808 C1791 1.574 . S
C1808 H1802 0.949 . S
C1808 C1812 1.368 . S
C1809 C1790 1.429 . S
C1809 C1803 1.429 . S
C1809 C1810 1.523 . S
C1810 C1791 1.368 . S
C1810 C1804 1.368 . S
C1810 C1809 1.523 . S
C1811 C1795 1.429 . S
C1811 C1807 1.429 . S
C1811 C1812 1.523 . S
C1812 C1796 1.368 . S
C1812 C1808 1.368 . S
C1812 C1811 1.523 . S
H1813 C1788 0.950 . S
H1814 C1790 0.950 . S
H1815 C1791 0.949 . S
H1816 C1793 0.950 . S
H1817 C1795 0.950 . S
C1818 C1819 1.349 . S
C1818 C1820 1.327 . S
C1818 H1843 0.950 . S
C1819 C1818 1.349 . S
C1819 C1835 1.349 . S
C1820 C1818 1.327 . S
C1820 C1839 1.429 . S
C1820 H1844 0.950 . S
C1821 C1838 1.574 . S
C1821 C1840 1.368 . S
C1821 H1845 0.949 . S
H1822 C1826 0.949 . S
C1823 C1824 1.349 . S
C1823 C1825 1.327 . S
C1823 H1846 0.950 . S
C1824 C1823 1.349 . S
C1824 C1836 1.349 . S
C1825 C1823 1.327 . S
C1825 C1841 1.429 . S
C1825 H1847 0.950 . S
C1826 H1822 0.949 . S
C1826 C1834 1.574 . S
C1826 C1842 1.368 . S
H1827 C1835 0.950 . S
H1828 C1833 0.950 . S
H1829 C1834 0.949 . S
H1830 C1836 0.950 . S
H1831 C1837 0.950 . S
H1832 C1838 0.949 . S
C1833 H1828 0.950 . S
C1833 C1835 1.327 . S
C1833 C1839 1.429 . S
C1834 C1826 1.574 . S
C1834 H1829 0.949 . S
C1834 C1840 1.368 . S
C1835 C1819 1.349 . S
C1835 H1827 0.950 . S
C1835 C1833 1.327 . S
C1836 C1824 1.349 . S
C1836 H1830 0.950 . S
C1836 C1837 1.327 . S
C1837 H1831 0.950 . S
C1837 C1836 1.327 . S
C1837 C1841 1.429 . S
C1838 C1821 1.574 . S
C1838 H1832 0.949 . S
C1838 C1842 1.368 . S
C1839 C1820 1.429 . S
C1839 C1833 1.429 . S
C1839 C1840 1.523 . S
C1840 C1821 1.368 . S
C1840 C1834 1.368 . S
C1840 C1839 1.523 . S
C1841 C1825 1.429 . S
C1841 C1837 1.429 . S
C1841 C1842 1.523 . S
C1842 C1826 1.368 . S
C1842 C1838 1.368 . S
C1842 C1841 1.523 . S
H1843 C1818 0.950 . S
H1844 C1820 0.950 . S
H1845 C1821 0.949 . S
H1846 C1823 0.950 . S
H1847 C1825 0.950 . S
C1848 C1849 1.349 . S
C1848 C1850 1.327 . S
C1848 H1873 0.950 . S
C1849 C1848 1.349 . S
C1849 C1865 1.349 . S
C1850 C1848 1.327 . S
C1850 C1869 1.429 . S
C1850 H1874 0.950 . S
C1851 C1868 1.574 . S
C1851 C1870 1.368 . S
C1851 H1875 0.949 . S
H1852 C1856 0.949 . S
C1853 C1854 1.349 . S
C1853 C1855 1.327 . S
C1853 H1876 0.950 . S
C1854 C1853 1.349 . S
C1854 C1866 1.349 . S
C1855 C1853 1.327 . S
C1855 C1871 1.429 . S
C1855 H1877 0.950 . S
C1856 H1852 0.949 . S
C1856 C1864 1.574 . S
C1856 C1872 1.368 . S
H1857 C1865 0.950 . S
H1858 C1863 0.950 . S
H1859 C1864 0.949 . S
H1860 C1866 0.950 . S
H1861 C1867 0.950 . S
H1862 C1868 0.949 . S
C1863 H1858 0.950 . S
C1863 C1865 1.327 . S
C1863 C1869 1.429 . S
C1864 C1856 1.574 . S
C1864 H1859 0.949 . S
C1864 C1870 1.368 . S
C1865 C1849 1.349 . S
C1865 H1857 0.950 . S
C1865 C1863 1.327 . S
C1866 C1854 1.349 . S
C1866 H1860 0.950 . S
C1866 C1867 1.327 . S
C1867 H1861 0.950 . S
C1867 C1866 1.327 . S
C1867 C1871 1.429 . S
C1868 C1851 1.574 . S
C1868 H1862 0.949 . S
C1868 C1872 1.368 . S
C1869 C1850 1.429 . S
C1869 C1863 1.429 . S
C1869 C1870 1.523 . S
C1870 C1851 1.368 . S
C1870 C1864 1.368 . S
C1870 C1869 1.523 . S
C1871 C1855 1.429 . S
C1871 C1867 1.429 . S
C1871 C1872 1.523 . S
C1872 C1856 1.368 . S
C1872 C1868 1.368 . S
C1872 C1871 1.523 . S
H1873 C1848 0.950 . S
H1874 C1850 0.950 . S
H1875 C1851 0.949 . S
H1876 C1853 0.950 . S
H1877 C1855 0.950 . S
C1878 C1879 1.349 . S
C1878 C1880 1.327 . S
C1878 H1903 0.950 . S
C1879 C1878 1.349 . S
C1879 C1895 1.349 . S
C1880 C1878 1.327 . S
C1880 C1899 1.429 . S
C1880 H1904 0.950 . S
C1881 C1898 1.574 . S
C1881 C1900 1.368 . S
C1881 H1905 0.949 . S
H1882 C1886 0.949 . S
C1883 C1884 1.349 . S
C1883 C1885 1.327 . S
C1883 H1906 0.950 . S
C1884 C1883 1.349 . S
C1884 C1896 1.349 . S
C1885 C1883 1.327 . S
C1885 C1901 1.429 . S
C1885 H1907 0.950 . S
C1886 H1882 0.949 . S
C1886 C1894 1.574 . S
C1886 C1902 1.368 . S
H1887 C1895 0.950 . S
H1888 C1893 0.950 . S
H1889 C1894 0.949 . S
H1890 C1896 0.950 . S
H1891 C1897 0.950 . S
H1892 C1898 0.949 . S
C1893 H1888 0.950 . S
C1893 C1895 1.327 . S
C1893 C1899 1.429 . S
C1894 C1886 1.574 . S
C1894 H1889 0.949 . S
C1894 C1900 1.368 . S
C1895 C1879 1.349 . S
C1895 H1887 0.950 . S
C1895 C1893 1.327 . S
C1896 C1884 1.349 . S
C1896 H1890 0.950 . S
C1896 C1897 1.327 . S
C1897 H1891 0.950 . S
C1897 C1896 1.327 . S
C1897 C1901 1.429 . S
C1898 C1881 1.574 . S
C1898 H1892 0.949 . S
C1898 C1902 1.368 . S
C1899 C1880 1.429 . S
C1899 C1893 1.429 . S
C1899 C1900 1.523 . S
C1900 C1881 1.368 . S
C1900 C1894 1.368 . S
C1900 C1899 1.523 . S
C1901 C1885 1.429 . S
C1901 C1897 1.429 . S
C1901 C1902 1.523 . S
C1902 C1886 1.368 . S
C1902 C1898 1.368 . S
C1902 C1901 1.523 . S
H1903 C1878 0.950 . S
H1904 C1880 0.950 . S
H1905 C1881 0.949 . S
H1906 C1883 0.950 . S
H1907 C1885 0.950 . S
C1908 C1909 1.349 . S
C1908 C1910 1.327 . S
C1908 H1933 0.950 . S
C1909 C1908 1.349 . S
C1909 C1925 1.349 . S
C1910 C1908 1.327 . S
C1910 C1929 1.429 . S
C1910 H1934 0.950 . S
C1911 C1928 1.574 . S
C1911 C1930 1.368 . S
C1911 H1935 0.949 . S
H1912 C1916 0.949 . S
C1913 C1914 1.349 . S
C1913 C1915 1.327 . S
C1913 H1936 0.950 . S
C1914 C1913 1.349 . S
C1914 C1926 1.349 . S
C1915 C1913 1.327 . S
C1915 C1931 1.429 . S
C1915 H1937 0.950 . S
C1916 H1912 0.949 . S
C1916 C1924 1.574 . S
C1916 C1932 1.368 . S
H1917 C1925 0.950 . S
H1918 C1923 0.950 . S
H1919 C1924 0.949 . S
H1920 C1926 0.950 . S
H1921 C1927 0.950 . S
H1922 C1928 0.949 . S
C1923 H1918 0.950 . S
C1923 C1925 1.327 . S
C1923 C1929 1.429 . S
C1924 C1916 1.574 . S
C1924 H1919 0.949 . S
C1924 C1930 1.368 . S
C1925 C1909 1.349 . S
C1925 H1917 0.950 . S
C1925 C1923 1.327 . S
C1926 C1914 1.349 . S
C1926 H1920 0.950 . S
C1926 C1927 1.327 . S
C1927 H1921 0.950 . S
C1927 C1926 1.327 . S
C1927 C1931 1.429 . S
C1928 C1911 1.574 . S
C1928 H1922 0.949 . S
C1928 C1932 1.368 . S
C1929 C1910 1.429 . S
C1929 C1923 1.429 . S
C1929 C1930 1.523 . S
C1930 C1911 1.368 . S
C1930 C1924 1.368 . S
C1930 C1929 1.523 . S
C1931 C1915 1.429 . S
C1931 C1927 1.429 . S
C1931 C1932 1.523 . S
C1932 C1916 1.368 . S
C1932 C1928 1.368 . S
C1932 C1931 1.523 . S
H1933 C1908 0.950 . S
H1934 C1910 0.950 . S
H1935 C1911 0.949 . S
H1936 C1913 0.950 . S
H1937 C1915 0.950 . S
C1938 C1939 1.349 . S
C1938 C1940 1.327 . S
C1938 H1963 0.950 . S
C1939 C1938 1.349 . S
C1939 C1955 1.349 . S
C1940 C1938 1.327 . S
C1940 C1959 1.429 . S
C1940 H1964 0.950 . S
C1941 C1958 1.574 . S
C1941 C1960 1.368 . S
C1941 H1965 0.949 . S
H1942 C1946 0.949 . S
C1943 C1944 1.349 . S
C1943 C1945 1.327 . S
C1943 H1966 0.950 . S
C1944 C1943 1.349 . S
C1944 C1956 1.349 . S
C1945 C1943 1.327 . S
C1945 C1961 1.429 . S
C1945 H1967 0.950 . S
C1946 H1942 0.949 . S
C1946 C1954 1.574 . S
C1946 C1962 1.368 . S
H1947 C1955 0.950 . S
H1948 C1953 0.950 . S
H1949 C1954 0.949 . S
H1950 C1956 0.950 . S
H1951 C1957 0.950 . S
H1952 C1958 0.949 . S
C1953 H1948 0.950 . S
C1953 C1955 1.327 . S
C1953 C1959 1.429 . S
C1954 C1946 1.574 . S
C1954 H1949 0.949 . S
C1954 C1960 1.368 . S
C1955 C1939 1.349 . S
C1955 H1947 0.950 . S
C1955 C1953 1.327 . S
C1956 C1944 1.349 . S
C1956 H1950 0.950 . S
C1956 C1957 1.327 . S
C1957 H1951 0.950 . S
C1957 C1956 1.327 . S
C1957 C1961 1.429 . S
C1958 C1941 1.574 . S
C1958 H1952 0.949 . S
C1958 C1962 1.368 . S
C1959 C1940 1.429 . S
C1959 C1953 1.429 . S
C1959 C1960 1.523 . S
C1960 C1941 1.368 . S
C1960 C1954 1.368 . S
C1960 C1959 1.523 . S
C1961 C1945 1.429 . S
C1961 C1957 1.429 . S
C1961 C1962 1.523 . S
C1962 C1946 1.368 . S
C1962 C1958 1.368 . S
C1962 C1961 1.523 . S
H1963 C1938 0.950 . S
H1964 C1940 0.950 . S
H1965 C1941 0.949 . S
H1966 C1943 0.950 . S
H1967 C1945 0.950 . S
C1968 C1969 1.349 . S
C1968 C1970 1.327 . S
C1968 H1993 0.950 . S
C1969 C1968 1.349 . S
C1969 C1985 1.349 . S
C1970 C1968 1.327 . S
C1970 C1989 1.429 . S
C1970 H1994 0.950 . S
C1971 C1988 1.574 . S
C1971 C1990 1.368 . S
C1971 H1995 0.949 . S
H1972 C1976 0.949 . S
C1973 C1974 1.349 . S
C1973 C1975 1.327 . S
C1973 H1996 0.950 . S
C1974 C1973 1.349 . S
C1974 C1986 1.349 . S
C1975 C1973 1.327 . S
C1975 C1991 1.429 . S
C1975 H1997 0.950 . S
C1976 H1972 0.949 . S
C1976 C1984 1.574 . S
C1976 C1992 1.368 . S
H1977 C1985 0.950 . S
H1978 C1983 0.950 . S
H1979 C1984 0.949 . S
H1980 C1986 0.950 . S
H1981 C1987 0.950 . S
H1982 C1988 0.949 . S
C1983 H1978 0.950 . S
C1983 C1985 1.327 . S
C1983 C1989 1.429 . S
C1984 C1976 1.574 . S
C1984 H1979 0.949 . S
C1984 C1990 1.368 . S
C1985 C1969 1.349 . S
C1985 H1977 0.950 . S
C1985 C1983 1.327 . S
C1986 C1974 1.349 . S
C1986 H1980 0.950 . S
C1986 C1987 1.327 . S
C1987 H1981 0.950 . S
C1987 C1986 1.327 . S
C1987 C1991 1.429 . S
C1988 C1971 1.574 . S
C1988 H1982 0.949 . S
C1988 C1992 1.368 . S
C1989 C1970 1.429 . S
C1989 C1983 1.429 . S
C1989 C1990 1.523 . S
C1990 C1971 1.368 . S
C1990 C1984 1.368 . S
C1990 C1989 1.523 . S
C1991 C1975 1.429 . S
C1991 C1987 1.429 . S
C1991 C1992 1.523 . S
C1992 C1976 1.368 . S
C1992 C1988 1.368 . S
C1992 C1991 1.523 . S
H1993 C1968 0.950 . S
H1994 C1970 0.950 . S
H1995 C1971 0.949 . S
H1996 C1973 0.950 . S
H1997 C1975 0.950 . S
C1998 C1999 1.349 . S
C1998 C2000 1.327 . S
C1998 H2023 0.950 . S
C1999 C1998 1.349 . S
C1999 C2015 1.349 . S
C2000 C1998 1.327 . S
C2000 C2019 1.429 . S
C2000 H2024 0.950 . S
C2001 C2018 1.574 . S
C2001 C2020 1.368 . S
C2001 H2025 0.949 . S
H2002 C2006 0.949 . S
C2003 C2004 1.349 . S
C2003 C2005 1.327 . S
C2003 H2026 0.950 . S
C2004 C2003 1.349 . S
C2004 C2016 1.349 . S
C2005 C2003 1.327 . S
C2005 C2021 1.429 . S
C2005 H2027 0.950 . S
C2006 H2002 0.949 . S
C2006 C2014 1.574 . S
C2006 C2022 1.368 . S
H2007 C2015 0.950 . S
H2008 C2013 0.950 . S
H2009 C2014 0.949 . S
H2010 C2016 0.950 . S
H2011 C2017 0.950 . S
H2012 C2018 0.949 . S
C2013 H2008 0.950 . S
C2013 C2015 1.327 . S
C2013 C2019 1.429 . S
C2014 C2006 1.574 . S
C2014 H2009 0.949 . S
C2014 C2020 1.368 . S
C2015 C1999 1.349 . S
C2015 H2007 0.950 . S
C2015 C2013 1.327 . S
C2016 C2004 1.349 . S
C2016 H2010 0.950 . S
C2016 C2017 1.327 . S
C2017 H2011 0.950 . S
C2017 C2016 1.327 . S
C2017 C2021 1.429 . S
C2018 C2001 1.574 . S
C2018 H2012 0.949 . S
C2018 C2022 1.368 . S
C2019 C2000 1.429 . S
C2019 C2013 1.429 . S
C2019 C2020 1.523 . S
C2020 C2001 1.368 . S
C2020 C2014 1.368 . S
C2020 C2019 1.523 . S
C2021 C2005 1.429 . S
C2021 C2017 1.429 . S
C2021 C2022 1.523 . S
C2022 C2006 1.368 . S
C2022 C2018 1.368 . S
C2022 C2021 1.523 . S
H2023 C1998 0.950 . S
H2024 C2000 0.950 . S
H2025 C2001 0.949 . S
H2026 C2003 0.950 . S
H2027 C2005 0.950 . S
C2028 C2029 1.349 . S
C2028 C2030 1.327 . S
C2028 H2053 0.950 . S
C2029 C2028 1.349 . S
C2029 C2045 1.349 . S
C2030 C2028 1.327 . S
C2030 C2049 1.429 . S
C2030 H2054 0.950 . S
C2031 C2048 1.574 . S
C2031 C2050 1.368 . S
C2031 H2055 0.949 . S
H2032 C2036 0.949 . S
C2033 C2034 1.349 . S
C2033 C2035 1.327 . S
C2033 H2056 0.950 . S
C2034 C2033 1.349 . S
C2034 C2046 1.349 . S
C2035 C2033 1.327 . S
C2035 C2051 1.429 . S
C2035 H2057 0.950 . S
C2036 H2032 0.949 . S
C2036 C2044 1.574 . S
C2036 C2052 1.368 . S
H2037 C2045 0.950 . S
H2038 C2043 0.950 . S
H2039 C2044 0.949 . S
H2040 C2046 0.950 . S
H2041 C2047 0.950 . S
H2042 C2048 0.949 . S
C2043 H2038 0.950 . S
C2043 C2045 1.327 . S
C2043 C2049 1.429 . S
C2044 C2036 1.574 . S
C2044 H2039 0.949 . S
C2044 C2050 1.368 . S
C2045 C2029 1.349 . S
C2045 H2037 0.950 . S
C2045 C2043 1.327 . S
C2046 C2034 1.349 . S
C2046 H2040 0.950 . S
C2046 C2047 1.327 . S
C2047 H2041 0.950 . S
C2047 C2046 1.327 . S
C2047 C2051 1.429 . S
C2048 C2031 1.574 . S
C2048 H2042 0.949 . S
C2048 C2052 1.368 . S
C2049 C2030 1.429 . S
C2049 C2043 1.429 . S
C2049 C2050 1.523 . S
C2050 C2031 1.368 . S
C2050 C2044 1.368 . S
C2050 C2049 1.523 . S
C2051 C2035 1.429 . S
C2051 C2047 1.429 . S
C2051 C2052 1.523 . S
C2052 C2036 1.368 . S
C2052 C2048 1.368 . S
C2052 C2051 1.523 . S
H2053 C2028 0.950 . S
H2054 C2030 0.950 . S
H2055 C2031 0.949 . S
H2056 C2033 0.950 . S
H2057 C2035 0.950 . S
C2058 C2059 1.349 . S
C2058 C2060 1.327 . S
C2058 H2083 0.950 . S
C2059 C2058 1.349 . S
C2059 C2075 1.349 . S
C2060 C2058 1.327 . S
C2060 C2079 1.429 . S
C2060 H2084 0.950 . S
C2061 C2078 1.574 . S
C2061 C2080 1.368 . S
C2061 H2085 0.949 . S
H2062 C2066 0.949 . S
C2063 C2064 1.349 . S
C2063 C2065 1.327 . S
C2063 H2086 0.950 . S
C2064 C2063 1.349 . S
C2064 C2076 1.349 . S
C2065 C2063 1.327 . S
C2065 C2081 1.429 . S
C2065 H2087 0.950 . S
C2066 H2062 0.949 . S
C2066 C2074 1.574 . S
C2066 C2082 1.368 . S
H2067 C2075 0.950 . S
H2068 C2073 0.950 . S
H2069 C2074 0.949 . S
H2070 C2076 0.950 . S
H2071 C2077 0.950 . S
H2072 C2078 0.949 . S
C2073 H2068 0.950 . S
C2073 C2075 1.327 . S
C2073 C2079 1.429 . S
C2074 C2066 1.574 . S
C2074 H2069 0.949 . S
C2074 C2080 1.368 . S
C2075 C2059 1.349 . S
C2075 H2067 0.950 . S
C2075 C2073 1.327 . S
C2076 C2064 1.349 . S
C2076 H2070 0.950 . S
C2076 C2077 1.327 . S
C2077 H2071 0.950 . S
C2077 C2076 1.327 . S
C2077 C2081 1.429 . S
C2078 C2061 1.574 . S
C2078 H2072 0.949 . S
C2078 C2082 1.368 . S
C2079 C2060 1.429 . S
C2079 C2073 1.429 . S
C2079 C2080 1.523 . S
C2080 C2061 1.368 . S
C2080 C2074 1.368 . S
C2080 C2079 1.523 . S
C2081 C2065 1.429 . S
C2081 C2077 1.429 . S
C2081 C2082 1.523 . S
C2082 C2066 1.368 . S
C2082 C2078 1.368 . S
C2082 C2081 1.523 . S
H2083 C2058 0.950 . S
H2084 C2060 0.950 . S
H2085 C2061 0.949 . S
H2086 C2063 0.950 . S
H2087 C2065 0.950 . S
C1009 C487 1.538 . S
C1014 C58 1.235 . S
C1039 C142 1.227 . S
C1044 C67 1.564 . S
C1069 C226 1.291 . S
C1074 C151 1.612 . S
C1099 C235 1.539 . S
C1104 C310 1.235 . S
C1129 C319 1.566 . S
C1134 C394 1.224 . S
C1159 C478 1.291 . S
C1164 C403 1.612 . S
C1189 C655 1.538 . S
C1194 C562 1.235 . S
C1219 C646 1.291 . S
C1224 C739 1.612 . S
C1249 C823 1.566 . S
C1254 C730 1.223 . S
C1279 C907 1.539 . S
C1284 C814 1.235 . S
C1309 C991 1.609 . S
C1314 C898 1.295 . S
C1339 C571 1.567 . S
C1344 C982 1.224 . S
C1369 C980 3.291 . S
C1374 C55 3.260 . S
C1399 C139 2.940 . S
C1404 C560 2.966 . S
C1429 C644 3.141 . S
C1434 C223 3.103 . S
C1459 C728 3.291 . S
C1464 C307 3.260 . S
C1489 C812 2.970 . S
C1494 C391 2.936 . S
C1519 C475 3.105 . S
C1524 C896 3.138 . S
C1549 C559 3.257 . S
C1554 C140 3.294 . S
C1579 C643 3.105 . S
C1584 C224 3.139 . S
C1609 C308 2.970 . S
C1614 C727 2.936 . S
C1639 C392 3.291 . S
C1644 C811 3.261 . S
C1669 C895 3.105 . S
C1674 C476 3.138 . S
C1699 C979 2.940 . S
C1704 C56 2.967 . S
C1729 C572 1.584 . S
C1734 C68 1.587 . S
C1759 C152 1.054 . S
C1764 C656 1.061 . S
C1789 C740 1.054 . S
C1794 C236 1.061 . S
C1819 C320 1.584 . S
C1824 C824 1.587 . S
C1849 C908 1.058 . S
C1854 C404 1.057 . S
C1879 C992 1.054 . S
C1884 C488 1.061 . S
C1909 C574 0.531 . S
C1914 C70 0.534 . S
C1939 C658 0.381 . S
C1944 C154 0.367 . S
C1969 C742 0.367 . S
C1974 C238 0.381 . S
C1999 C322 0.531 . S
C2004 C826 0.534 . S
C2029 C910 0.381 . S
C2034 C406 0.367 . S
C2059 C994 0.367 . S
C2064 C490 0.381 . S
