# Generated by pormake.
# Topology sxa, (6)-cn, num edge types: 1
# Building blocks:
#     Node 0, Type 0, BuildingBlock: PAMTUU_clean_sbu_0, # of connection points: 6
#     Node 1, Type 0, BuildingBlock: PAMTUU_clean_sbu_0, # of connection points: 6
#     Node 2, Type 0, BuildingBlock: PAMTUU_clean_sbu_0, # of connection points: 6
#     Node 3, Type 0, BuildingBlock: PAMTUU_clean_sbu_0, # of connection points: 6
#     Edge 4, Type (0, 0), BuildingBlock: UVAHIK_clean_linker_0, # of connection points: 2
#     Edge 5, Type (0, 0), BuildingBlock: UVAHIK_clean_linker_0, # of connection points: 2
#     Edge 6, Type (0, 0), BuildingBlock: UVAHIK_clean_linker_0, # of connection points: 2
#     Edge 7, Type (0, 0), BuildingBlock: UVAHIK_clean_linker_0, # of connection points: 2
#     Edge 8, Type (0, 0), BuildingBlock: UVAHIK_clean_linker_0, # of connection points: 2
#     Edge 9, Type (0, 0), BuildingBlock: UVAHIK_clean_linker_0, # of connection points: 2
#     Edge 10, Type (0, 0), BuildingBlock: UVAHIK_clean_linker_0, # of connection points: 2
#     Edge 11, Type (0, 0), BuildingBlock: UVAHIK_clean_linker_0, # of connection points: 2
#     Edge 12, Type (0, 0), BuildingBlock: UVAHIK_clean_linker_0, # of connection points: 2
#     Edge 13, Type (0, 0), BuildingBlock: UVAHIK_clean_linker_0, # of connection points: 2
#     Edge 14, Type (0, 0), BuildingBlock: UVAHIK_clean_linker_0, # of connection points: 2
#     Edge 15, Type (0, 0), BuildingBlock: UVAHIK_clean_linker_0, # of connection points: 2
# Relax obj value: 0.171
# Max RMSD: 0.258
# Mean RMSD: 0.258
data_MOF--net-sxa--node1-PAMTUU_clean_sbu_0--edge1-UVAHIK_clean_linker_0
_symmetry_space_group_name_H-M    P1
_symmetry_Int_Tables_number       1
_symmetry_cell_setting            triclinic
loop_
_symmetry_equiv_pos_as_xyz
'x, y, z'
_cell_length_a     43.960217
_cell_length_b     36.000504
_cell_length_c     20.296372
_cell_angle_alpha  93.083337
_cell_angle_beta   60.186496
_cell_angle_gamma 98.957247
loop_
_atom_site_label
_atom_site_type_symbol
_atom_site_fract_x
_atom_site_fract_y
_atom_site_fract_z
_atom_type_partial_charge
Tb0 Tb 0.09064 0.77647 0.06914 0.0
Tb1 Tb 0.09376 0.77496 0.22701 0.0
C2 C 0.09337 0.70133 0.12859 0.0
C3 C 0.05418 0.79739 0.95459 0.0
C4 C 0.98736 0.81071 0.98462 0.0
C5 C 1.00714 0.78837 0.92341 0.0
C6 C 0.04034 0.78157 0.90876 0.0
C7 C 0.03601 0.82252 1.01096 0.0
C8 C 1.00288 0.82919 0.0258 0.0
C9 C 0.08228 0.78136 0.95656 0.0
O10 O 0.03515 0.77084 0.16482 0.0
O11 O 0.03718 0.7637 0.27546 0.0
O12 O 0.07651 0.82946 0.22365 0.0
O13 O 0.10185 0.83418 0.09405 0.0
O14 O 0.11561 0.74481 0.27442 0.0
O15 O 0.09336 0.79467 0.32821 0.0
O16 O 0.14346 0.80234 0.13614 0.0
O17 O 0.14506 0.77091 0.0347 0.0
O18 O 0.10519 0.7225 0.06837 0.0
O19 O 0.08186 0.71599 0.19661 0.0
C20 C 0.0194 0.76525 0.23953 0.0
O21 O 0.10476 0.80506 0.9681 0.0
O22 O 0.07054 0.75132 1.00049 0.0
C23 C 0.08631 0.84895 0.16084 0.0
C24 C 0.1401 0.77761 0.34634 0.0
C25 C 0.19522 0.78283 0.38462 0.0
C26 C 0.15925 0.78085 0.44133 0.0
C27 C 0.13225 0.77827 0.42243 0.0
C28 C 0.17598 0.78071 0.2892 0.0
C29 C 0.20311 0.78336 0.30805 0.0
C30 C 0.11044 0.76819 0.32903 0.0
C31 C 0.16131 0.78911 0.06863 0.0
H32 H 0.99601 0.77429 0.88995 0.0
H33 H 0.05391 0.76184 0.86556 0.0
H34 H 0.04602 0.83454 0.04786 0.0
H35 H 0.98827 0.84624 0.07375 0.0
H36 H 0.15162 0.77975 0.50085 0.0
H37 H 0.1049 0.77529 0.46777 0.0
H38 H 0.18302 0.78002 0.22989 0.0
H39 H 0.2303 0.78545 0.26233 0.0
Tb40 Tb 0.55406 0.24788 0.11413 0.0
Tb41 Tb 0.56919 0.27022 0.25454 0.0
C42 C 0.5522 0.18687 0.21179 0.0
C43 C 0.53166 0.24739 0.96163 0.0
C44 C 0.50042 0.27839 0.88998 0.0
C45 C 0.5221 0.25041 0.85449 0.0
C46 C 0.53761 0.23501 0.89021 0.0
C47 C 0.51137 0.27637 0.9958 0.0
C48 C 0.49583 0.29174 0.96032 0.0
C49 C 0.54663 0.23013 1.00041 0.0
O50 O 0.50532 0.26809 0.2006 0.0
O51 O 0.51133 0.26307 0.30675 0.0
O52 O 0.55813 0.3232 0.22456 0.0
O53 O 0.56784 0.30823 0.1042 0.0
O54 O 0.56466 0.25382 0.35816 0.0
O55 O 0.59654 0.3057 0.30003 0.0
O56 O 0.61788 0.28263 0.14851 0.0
O57 O 0.6065 0.23453 0.08387 0.0
O58 O 0.53193 0.20112 0.19364 0.0
O59 O 0.57509 0.2101 0.22436 0.0
C60 C 0.49188 0.26698 0.27521 0.0
O61 O 0.5752 0.24946 0.99598 0.0
O62 O 0.52418 0.21723 0.06925 0.0
C63 C 0.56258 0.33274 0.15764 0.0
C64 C 0.61501 0.27594 0.37421 0.0
C65 C 0.66792 0.26973 0.41446 0.0
C66 C 0.63175 0.26711 0.47005 0.0
C67 C 0.60581 0.27022 0.45021 0.0
C68 C 0.65093 0.27766 0.318 0.0
C69 C 0.67699 0.27455 0.33784 0.0
C70 C 0.58706 0.28265 0.35652 0.0
C71 C 0.62928 0.25787 0.09569 0.0
H72 H 0.52633 0.23982 0.80006 0.0
H73 H 0.55365 0.21295 0.86282 0.0
H74 H 0.50675 0.28634 0.05089 0.0
H75 H 0.47882 0.31278 0.98983 0.0
H76 H 0.62329 0.26262 0.5294 0.0
H77 H 0.57842 0.26879 0.49481 0.0
H78 H 0.65898 0.28214 0.25883 0.0
H79 H 0.7044 0.277 0.29311 0.0
Tb80 Tb 0.03466 0.2504 0.7977 0.0
Tb81 Tb 0.04751 0.25699 0.94393 0.0
C82 C 0.05144 0.18271 0.86462 0.0
C83 C 0.98969 0.25036 0.67691 0.0
C84 C 0.93609 0.25566 0.63835 0.0
C85 C 0.97231 0.26013 0.58257 0.0
C86 C 0.99859 0.25749 0.60159 0.0
C87 C 0.95369 0.24677 0.73342 0.0
C88 C 0.92727 0.24949 0.71442 0.0
C89 C 0.01808 0.24369 0.69317 0.0
O90 O 0.98503 0.25773 0.89628 0.0
O91 O 0.99258 0.2299 0.98504 0.0
O92 O 0.0233 0.3048 0.94608 0.0
O93 O 0.04688 0.31099 0.81818 0.0
O94 O 0.04583 0.23225 0.03738 0.0
O95 O 0.06248 0.29201 0.01189 0.0
O96 O 0.09907 0.27662 0.84314 0.0
O97 O 0.09126 0.24885 0.74637 0.0
O98 O 0.03058 0.19291 0.84127 0.0
O99 O 0.06918 0.20807 0.88558 0.0
C100 C 0.97202 0.23967 0.96102 0.0
O101 O 0.03834 0.27272 0.69893 0.0
O102 O 1.00989 0.21764 0.74375 0.0
C103 C 0.03479 0.32606 0.88599 0.0
C104 C 0.0961 0.26132 0.0436 0.0
C105 C 0.1677 0.27209 1.0057 0.0
C106 C 0.1428 0.28965 0.06915 0.0
C107 C 0.1072 0.28438 0.08779 0.0
C108 C 0.12049 0.2421 0.98303 0.0
C109 C 0.15593 0.24741 0.96428 0.0
C110 C 0.06184 0.26338 0.04953 0.0
C111 C 0.11207 0.26518 0.77234 0.0
H112 H 0.98051 0.26564 0.52369 0.0
H113 H 0.02604 0.2603 0.55679 0.0
H114 H 0.94587 0.24105 0.79204 0.0
H115 H 0.89982 0.24563 0.7592 0.0
H116 H 0.15106 0.30844 0.1027 0.0
H117 H 0.0888 0.29987 0.13397 0.0
H118 H 0.11268 0.22482 0.94703 0.0
H119 H 0.17444 0.23392 0.9144 0.0
Tb120 Tb 0.56155 0.75814 0.76999 0.0
Tb121 Tb 0.58097 0.78161 0.9044 0.0
C122 C 0.57257 0.69621 0.86186 0.0
C123 C 0.51401 0.75404 0.65317 0.0
C124 C 0.46154 0.76229 0.61251 0.0
C125 C 0.49772 0.76446 0.55717 0.0
C126 C 0.52342 0.76037 0.5772 0.0
C127 C 0.47808 0.75269 0.70916 0.0
C128 C 0.45226 0.75685 0.68913 0.0
C129 C 0.54179 0.74628 0.67077 0.0
O130 O 0.51483 0.74279 0.87794 0.0
O131 O 0.52664 0.79067 0.94264 0.0
O132 O 0.59963 0.82746 0.82379 0.0
O133 O 0.55289 0.81713 0.80557 0.0
O134 O 0.5628 0.78008 0.02144 0.0
O135 O 0.61074 0.81633 0.94481 0.0
O136 O 0.62914 0.762 0.81527 0.0
O137 O 0.6197 0.76627 0.71344 0.0
O138 O 0.57355 0.70517 0.79795 0.0
O139 O 0.57039 0.72112 0.91316 0.0
C140 C 0.50379 0.76575 0.93423 0.0
O141 O 0.56534 0.77432 0.66698 0.0
O142 O 0.53195 0.72367 0.72812 0.0
C143 C 0.57656 0.84116 0.81401 0.0
C144 C 0.60704 0.79307 0.0551 0.0
C145 C 0.64358 0.77975 0.13002 0.0
C146 C 0.61394 0.79869 0.16657 0.0
C147 C 0.59587 0.80539 0.12916 0.0
C148 C 0.63508 0.77204 0.02014 0.0
C149 C 0.65332 0.76551 0.05726 0.0
C150 C 0.5899 0.80366 0.01453 0.0
C151 C 0.64073 0.76286 0.74137 0.0
H152 H 0.50636 0.76934 0.49785 0.0
H153 H 0.5508 0.76153 0.53271 0.0
H154 H 0.46982 0.74773 0.76829 0.0
H155 H 0.42483 0.75472 0.73367 0.0
H156 H 0.60556 0.80956 0.22288 0.0
H157 H 0.57386 0.82124 0.15714 0.0
H158 H 0.64371 0.76197 0.96314 0.0
H159 H 0.67631 0.75124 0.02704 0.0
C160 C 0.06817 0.39232 0.85101 0.0
C161 C 0.03744 0.36738 0.89811 0.0
C162 C 0.07404 0.429 0.87474 0.0
C163 C 0.02944 0.50065 0.01994 0.0
H164 H 0.12409 0.53559 0.98641 0.0
C165 C 0.05921 0.6353 0.16373 0.0
C166 C 0.09008 0.66001 0.11639 0.0
C167 C 0.05311 0.59859 0.14038 0.0
C168 C 0.09751 0.52653 0.99596 0.0
H169 H 0.98805 0.36214 1.00505 0.0
H170 H 0.99784 0.42546 0.0455 0.0
H171 H 0.11243 0.47655 0.93259 0.0
H172 H 0.13949 0.6648 1.0095 0.0
H173 H 0.12928 0.60149 0.96967 0.0
H174 H 1.01453 0.55065 0.08328 0.0
C175 C 0.01755 0.41722 0.99032 0.0
C176 C 0.09085 0.49259 0.96455 0.0
C177 C 1.01188 0.38073 0.967 0.0
C178 C 0.11551 0.64642 0.04766 0.0
C179 C 0.10962 0.60991 0.02473 0.0
C180 C 0.03611 0.5346 0.05133 0.0
C181 C 0.04917 0.44166 0.9458 0.0
C182 C 0.0567 0.47904 0.97596 0.0
C183 C 0.0779 0.58566 0.06952 0.0
C184 C 0.07028 0.54818 0.0398 0.0
H185 H 0.08866 0.38276 0.79829 0.0
H186 H 0.09852 0.4471 0.83824 0.0
H187 H 1.00286 0.49156 0.0295 0.0
H188 H 0.03885 0.64504 0.21641 0.0
H189 H 0.02857 0.58064 0.17708 0.0
C190 C 0.54447 0.37437 0.09313 0.0
C191 C 0.5595 0.37124 0.13943 0.0
C192 C 0.54537 0.40924 0.06452 0.0
C193 C 0.56165 0.51329 0.08333 0.0
H194 H 0.57696 0.51502 0.87789 0.0
C195 C 0.59151 0.65376 0.92342 0.0
C196 C 0.5754 0.65744 0.87942 0.0
C197 C 0.5902 0.61875 0.95214 0.0
C198 C 0.57225 0.51511 0.93558 0.0
H199 H 0.58631 0.40312 0.19404 0.0
H200 H 0.58828 0.46466 0.14337 0.0
H201 H 0.57333 0.45588 0.93624 0.0
H202 H 0.54643 0.62628 0.82865 0.0
H203 H 0.5441 0.56444 0.87896 0.0
H204 H 0.56079 0.57261 0.08237 0.0
C205 C 0.57543 0.43976 0.12967 0.0
C206 C 0.57013 0.48101 0.96941 0.0
C207 C 0.57426 0.40449 0.15908 0.0
C208 C 0.55931 0.62451 0.86183 0.0
C209 C 0.5579 0.58908 0.89105 0.0
C210 C 0.56385 0.5474 0.04942 0.0
C211 C 0.56168 0.44254 0.08037 0.0
C212 C 0.56469 0.47944 0.04402 0.0
C213 C 0.5726 0.58586 0.93835 0.0
C214 C 0.56929 0.54895 0.97485 0.0
H215 H 0.53239 0.34947 0.07756 0.0
H216 H 0.53342 0.40991 0.02916 0.0
H217 H 0.5569 0.51344 0.14104 0.0
H218 H 0.60467 0.67835 0.93735 0.0
H219 H 0.60284 0.61761 0.98602 0.0
C220 C 0.60222 0.90633 0.82485 0.0
C221 C 0.57194 0.88068 0.8384 0.0
C222 C 0.59941 0.93971 0.86489 0.0
C223 C 0.53826 0.98049 0.04763 0.0
H224 H 0.60675 0.07094 0.96264 0.0
C225 C 0.52466 0.12188 0.20547 0.0
C226 C 0.55534 0.14657 0.19286 0.0
C227 C 0.52695 0.08788 0.16741 0.0
C228 C 0.58772 0.04573 0.98782 0.0
H229 H 0.51464 0.87129 0.90231 0.0
H230 H 0.50943 0.93022 0.97153 0.0
H231 H 0.60833 1.01821 0.88112 0.0
H232 H 0.61259 0.15348 0.13357 0.0
H233 H 0.61684 0.09378 0.0671 0.0
H234 H 0.51747 1.0083 0.15425 0.0
C235 C 0.5356 0.92412 0.93045 0.0
C236 C 0.5885 1.01537 0.94075 0.0
C237 C 0.53847 0.89058 0.88975 0.0
C238 C 0.58847 0.13501 0.14514 0.0
C239 C 0.59083 0.10102 0.1061 0.0
C240 C 0.5374 1.01094 0.09466 0.0
C241 C 0.56614 0.94867 0.92031 0.0
C242 C 0.56385 0.98212 0.96979 0.0
C243 C 0.56007 0.07755 0.11473 0.0
C244 C 0.56217 0.04407 0.0656 0.0
H245 H 0.62845 0.8994 0.78638 0.0
H246 H 0.62363 0.95733 0.85539 0.0
H247 H 0.51924 0.95529 0.07291 0.0
H248 H 0.49871 0.13012 0.24109 0.0
H249 H 0.50263 0.07096 0.17566 0.0
C250 C 0.04352 0.89262 0.18073 0.0
C251 C 0.07815 0.88746 0.1606 0.0
C252 C 0.03738 0.92476 0.15491 0.0
C253 C 0.08091 0.02066 0.06238 0.0
H254 H 0.01502 1.0051 0.98545 0.0
C255 C 0.08433 0.1331 0.86767 0.0
C256 C 0.05211 0.14295 0.88054 0.0
C257 C 0.08516 0.10064 0.90144 0.0
C258 C 0.03329 1.01012 1.00721 0.0
H259 H 0.13328 0.91218 0.0981 0.0
H260 H 0.1228 0.96838 0.05546 0.0
H261 H 0.01989 0.95346 0.0519 0.0
H262 H 0.99539 0.12521 0.93726 0.0
H263 H 0.99672 0.06788 0.9961 0.0
H264 H 0.09463 0.07699 0.01743 0.0
C265 C 0.10009 0.94816 0.09198 0.0
C266 C 0.03602 0.98044 0.04577 0.0
C267 C 0.10618 0.91598 0.11712 0.0
C268 C 0.02074 0.11803 0.92464 0.0
C269 C 0.02154 0.08533 0.95904 0.0
C270 C 0.07825 0.05014 0.02388 0.0
C271 C 0.06573 0.95264 0.10836 0.0
C272 C 0.06029 0.98507 0.07308 0.0
C273 C 0.05371 0.07695 0.95024 0.0
C274 C 0.05486 0.04529 0.99442 0.0
H275 H 0.02151 0.87047 0.2115 0.0
H276 H 1.01051 0.92715 0.16943 0.0
H277 H 0.09933 0.02587 0.08375 0.0
H278 H 0.10896 0.15179 0.83453 0.0
H279 H 0.11058 0.09483 0.89121 0.0
C280 C 0.40406 0.78295 0.63535 0.0
C281 C 0.43389 0.76491 0.58979 0.0
C282 C 0.37865 0.78553 0.61329 0.0
C283 C 0.34533 0.74285 0.48331 0.0
H284 H 0.30139 0.83287 0.52284 0.0
C285 C 0.25358 0.76451 0.36123 0.0
C286 C 0.22387 0.78292 0.40565 0.0
C287 C 0.2793 0.76307 0.38282 0.0
C288 C 0.31295 0.80723 0.51198 0.0
H289 H 0.45923 0.73471 0.48516 0.0
H290 H 0.41573 0.73974 0.44653 0.0
H291 H 0.3447 0.82858 0.56279 0.0
H292 H 0.19933 0.8153 0.5075 0.0
H293 H 0.24327 0.812 0.54572 0.0
H294 H 0.31352 0.72137 0.43293 0.0
C295 C 0.41171 0.75179 0.49981 0.0
C296 C 0.33799 0.80477 0.53509 0.0
C297 C 0.43713 0.74933 0.52167 0.0
C298 C 0.22129 0.80032 0.47191 0.0
C299 C 0.24698 0.79885 0.49352 0.0
C300 C 0.32025 0.74528 0.46037 0.0
C301 C 0.38197 0.76996 0.54506 0.0
C302 C 0.35474 0.77255 0.52109 0.0
C303 C 0.27641 0.77996 0.44974 0.0
C304 C 0.30356 0.77753 0.47411 0.0
H305 H 0.40049 0.79561 0.68786 0.0
H306 H 0.3561 0.79942 0.65045 0.0
H307 H 0.35692 0.71723 0.47242 0.0
H308 H 0.25671 0.75037 0.31027 0.0
H309 H 0.30164 0.74871 0.3465 0.0
C310 C 0.17477 0.27617 0.75074 0.0
C311 C 0.15143 0.26889 0.72136 0.0
C312 C 0.21156 0.27727 0.70311 0.0
C313 C 0.27855 0.24818 0.50989 0.0
H314 H 0.34563 0.31397 0.55047 0.0
C315 C 0.43028 0.26861 0.29609 0.0
C316 C 0.45328 0.26961 0.32592 0.0
C317 C 0.39384 0.26954 0.34413 0.0
C318 C 0.3273 0.29517 0.53852 0.0
H319 H 0.1491 0.25807 0.61776 0.0
H320 H 0.21276 0.26122 0.53491 0.0
H321 H 0.28217 0.31408 0.63363 0.0
H322 H 0.45541 0.27303 0.43065 0.0
H323 H 0.39221 0.27484 0.51385 0.0
H324 H 0.32376 0.22964 0.41429 0.0
C325 C 0.20281 0.26499 0.5951 0.0
C326 C 0.29069 0.29514 0.58657 0.0
C327 C 0.16607 0.26349 0.64278 0.0
C328 C 0.43873 0.27219 0.40522 0.0
C329 C 0.40236 0.27344 0.45316 0.0
C330 C 0.3151 0.24846 0.46158 0.0
C331 C 0.22626 0.27146 0.62438 0.0
C332 C 0.2656 0.27164 0.57313 0.0
C333 C 0.37925 0.27183 0.4235 0.0
C334 C 0.34011 0.27194 0.47504 0.0
H335 H 0.16457 0.28016 0.81099 0.0
H336 H 0.22833 0.28182 0.72863 0.0
H337 H 0.26044 0.22897 0.49803 0.0
H338 H 0.44032 0.26667 0.23549 0.0
H339 H 0.3771 0.26873 0.31886 0.0
C340 C 0.91171 0.24136 0.54788 0.0
C341 C 0.90794 0.25667 0.61656 0.0
C342 C 0.88591 0.24254 0.52662 0.0
C343 C 0.79131 0.25716 0.60356 0.0
H344 H 0.82106 0.27118 0.39082 0.0
C345 C 0.69234 0.28395 0.50499 0.0
C346 C 0.69581 0.26815 0.43686 0.0
C347 C 0.71798 0.28237 0.52658 0.0
C348 C 0.81207 0.26677 0.45046 0.0
H349 H 0.87321 0.28542 0.71644 0.0
H350 H 0.82849 0.28767 0.67944 0.0
H351 H 0.86527 0.26902 0.42898 0.0
H352 H 0.7298 0.23796 0.33853 0.0
H353 H 0.77432 0.23529 0.3759 0.0
H354 H 0.7381 0.25504 0.62499 0.0
C355 C 0.8513 0.27417 0.64219 0.0
C356 C 0.83761 0.26551 0.47256 0.0
C357 C 0.87713 0.27292 0.66356 0.0
C358 C 0.72613 0.25094 0.39085 0.0
C359 C 0.75184 0.2494 0.41246 0.0
C360 C 0.76577 0.25848 0.58146 0.0
C361 C 0.85525 0.25912 0.57312 0.0
C362 C 0.82775 0.26066 0.54955 0.0
C363 C 0.7482 0.26501 0.48088 0.0
C364 C 0.77564 0.26332 0.50448 0.0
H365 H 0.93449 0.22781 0.51061 0.0
H366 H 0.88986 0.22984 0.4739 0.0
H367 H 0.78229 0.25271 0.6632 0.0
H368 H 0.66998 0.29823 0.54151 0.0
H369 H 0.7143 0.29545 0.57883 0.0
C370 C 0.95871 0.76673 0.25423 0.0
C371 C 0.97986 0.76214 0.28649 0.0
C372 C 0.92172 0.76516 0.30002 0.0
C373 C 0.84616 0.73313 0.49351 0.0
H374 H 0.79724 0.80156 0.45279 0.0
C375 C 0.70239 0.75607 0.7138 0.0
C376 C 0.67909 0.76078 0.68721 0.0
C377 C 0.73851 0.75497 0.66295 0.0
C378 C 0.81033 0.78191 0.46466 0.0
H379 H 0.97802 0.75228 0.39312 0.0
H380 H 0.91449 0.75009 0.47189 0.0
H381 H 0.86058 0.80155 0.36738 0.0
H382 H 0.6761 0.76786 0.58516 0.0
H383 H 0.73877 0.76574 0.49696 0.0
H384 H 0.79607 0.71376 0.59111 0.0
C385 C 0.92611 0.75422 0.41116 0.0
C386 C 0.84681 0.78186 0.41538 0.0
C387 C 0.96288 0.75575 0.36564 0.0
C388 C 0.69306 0.76422 0.60813 0.0
C389 C 0.7292 0.76327 0.5573 0.0
C390 C 0.80979 0.73327 0.5428 0.0
C391 C 0.90483 0.7589 0.37936 0.0
C392 C 0.86542 0.75772 0.42941 0.0
C393 C 0.75255 0.75866 0.58386 0.0
C394 C 0.7913 0.75786 0.52962 0.0
H395 H 0.97069 0.77183 0.19364 0.0
H396 H 0.90636 0.76857 0.27303 0.0
H397 H 0.85914 0.71347 0.50566 0.0
H398 H 0.69282 0.75342 0.77412 0.0
H399 H 0.75559 0.75187 0.6859 0.0
C400 C 0.45303 0.80199 1.00494 0.0
C401 C 0.46559 0.76788 0.97591 0.0
C402 C 0.41827 0.80607 0.02561 0.0
C403 C 0.33207 0.75315 0.05682 0.0
H404 H 0.32829 0.84156 0.96142 0.0
C405 C 0.21715 0.76122 1.00313 0.0
C406 C 0.19976 0.79229 0.0365 0.0
C407 C 0.25082 0.76036 0.99339 0.0
C408 C 0.32903 0.81682 0.98843 0.0
H409 H 0.45091 0.71021 0.9536 0.0
H410 H 0.39083 0.71724 0.98915 0.0
H411 H 0.38205 0.83588 0.96521 0.0
H412 H 0.20454 0.84798 0.07978 0.0
H413 H 0.2637 0.8469 0.0607 0.0
H414 H 0.27935 0.7337 0.07809 0.0
C415 C 0.40742 0.74096 0.99591 0.0
C416 C 0.35956 0.81375 0.99152 0.0
C417 C 0.44199 0.73697 0.97507 0.0
C418 C 0.2176 0.82375 0.05367 0.0
C419 C 0.25136 0.82313 0.04291 0.0
C420 C 0.30172 0.75607 0.05305 0.0
C421 C 0.39563 0.77597 0.01825 0.0
C422 C 0.36158 0.78163 0.02485 0.0
C423 C 0.26758 0.79082 0.01578 0.0
C424 C 0.30014 0.78768 0.01791 0.0
H425 H 0.47064 0.82617 1.00669 0.0
H426 H 0.40963 0.83321 0.04403 0.0
H427 H 0.33263 0.72831 0.08382 0.0
H428 H 0.20366 0.7365 0.99037 0.0
H429 H 0.26311 0.73529 0.97155 0.0
C430 C 0.22149 0.31902 0.9774 0.0
C431 C 0.20616 0.28155 0.97856 0.0
C432 C 0.25813 0.32831 0.9465 0.0
C433 C 0.34245 0.2935 0.81841 0.0
H434 H 0.37574 0.34695 0.94685 0.0
C435 C 0.46079 0.26282 0.83429 0.0
C436 C 0.47888 0.29016 0.85954 0.0
C437 C 0.43402 0.27169 0.82283 0.0
C438 C 0.36724 0.33302 0.90885 0.0
H439 H 0.21714 0.2244 0.94977 0.0
H440 H 0.28102 0.24066 0.89571 0.0
H441 H 0.3139 0.34312 0.98133 0.0
H442 H 0.48613 0.34927 0.88373 0.0
H443 H 0.43908 0.36482 0.8638 0.0
H444 H 0.39547 0.28192 0.74774 0.0
C445 C 0.26476 0.26291 0.91738 0.0
C446 C 0.33169 0.33067 0.92896 0.0
C447 C 0.22818 0.25358 0.94875 0.0
C448 C 0.47205 0.32744 0.86584 0.0
C449 C 0.4452 0.33635 0.85433 0.0
C450 C 0.37807 0.29605 0.79798 0.0
C451 C 0.28008 0.30037 0.91563 0.0
C452 C 0.31869 0.30943 0.88583 0.0
C453 C 0.42476 0.30811 0.83638 0.0
C454 C 0.39043 0.31428 0.84503 0.0
H455 H 0.2053 0.34132 0.99865 0.0
H456 H 0.26935 0.35739 0.94585 0.0
H457 H 0.33313 0.27761 0.78337 0.0
H458 H 0.46517 0.23377 0.82949 0.0
H459 H 0.41861 0.24911 0.8098 0.0
C460 C 0.69084 0.28242 0.06556 0.0
C461 C 0.66684 0.25281 0.06197 0.0
C462 C 0.72436 0.27656 0.04957 0.0
C463 C 0.77115 0.20279 0.05649 0.0
H464 H 0.85231 0.28126 0.96154 0.0
C465 C 0.91613 0.19772 0.99337 0.0
C466 C 0.93332 0.23145 1.00535 0.0
C467 C 0.88145 0.19548 1.00635 0.0
C468 C 0.82977 0.25923 0.98881 0.0
H469 H 0.66011 0.19437 0.03354 0.0
H470 H 0.71927 0.18392 1.00548 0.0
H471 H 0.79865 0.28641 0.95785 0.0
H472 H 0.9276 0.2883 0.04452 0.0
H473 H 0.86681 0.28421 0.06928 0.0
H474 H 0.80283 0.17568 0.08712 0.0
C475 C 0.71168 0.21161 0.02177 0.0
C476 C 0.79911 0.26208 0.98634 0.0
C477 C 0.67798 0.21764 0.0372 0.0
C478 C 0.91449 0.26174 0.0367 0.0
C479 C 0.87999 0.25957 0.04954 0.0
C480 C 0.80213 0.19978 0.05842 0.0
C481 C 0.73489 0.24088 0.02951 0.0
C482 C 0.76908 0.23445 0.02187 0.0
C483 C 0.86389 0.22715 0.03058 0.0
C484 C 0.83135 0.22856 0.0264 0.0
H485 H 0.68313 0.30992 0.08422 0.0
H486 H 0.74133 0.29966 0.05685 0.0
H487 H 0.74836 0.18116 0.08486 0.0
H488 H 0.93064 0.17444 0.96696 0.0
H489 H 0.86968 0.17022 0.99109 0.0
C490 C 0.9276 0.7761 0.01798 0.0
C491 C 0.94912 0.81026 0.01302 0.0
C492 C 0.89095 0.77422 0.05309 0.0
C493 C 0.8215 0.83228 0.10498 0.0
H494 H 0.76029 0.74286 0.22309 0.0
C495 C 0.67682 0.8129 0.19144 0.0
C496 C 0.66747 0.77969 0.16175 0.0
C497 C 0.70605 0.81672 0.20228 0.0
C498 C 0.77705 0.76813 0.1909 0.0
H499 H 0.94916 0.86941 0.03971 0.0
H500 H 0.88486 0.86604 0.102 0.0
H501 H 0.82372 0.75087 0.18007 0.0
H502 H 0.67831 0.72277 0.12996 0.0
H503 H 0.73 0.72978 0.14684 0.0
H504 H 0.77535 0.84897 0.1131 0.0
C505 C 0.89646 0.84076 0.07831 0.0
C506 C 0.81331 0.77262 0.16587 0.0
C507 C 0.93322 0.84268 0.04285 0.0
C508 C 0.68542 0.74895 0.15132 0.0
C509 C 0.71477 0.75284 0.16188 0.0
C510 C 0.78531 0.82789 0.13026 0.0
C511 C 0.87495 0.8064 0.08445 0.0
C512 C 0.83603 0.80416 0.12048 0.0
C513 C 0.7265 0.78751 0.18324 0.0
C514 C 0.76291 0.79524 0.17143 0.0
H515 H 0.93892 0.75044 0.99693 0.0
H516 H 0.87516 0.7475 0.05545 0.0
H517 H 0.83832 0.85669 0.06954 0.0
H518 H 0.66358 0.83716 0.2001 0.0
H519 H 0.71422 0.84352 0.22006 0.0
loop_
_geom_bond_atom_site_label_1
_geom_bond_atom_site_label_2
_geom_bond_distance
_geom_bond_site_symmetry_2
_ccdc_geom_bond_type
Tb0 C9 2.764 . S
Tb0 O10 2.325 1_455 S
Tb0 O13 2.303 . S
Tb0 O17 2.322 . S
Tb0 O18 2.349 . S
Tb0 O21 2.415 . S
Tb0 O22 2.399 . S
Tb1 O11 2.322 . S
Tb1 O12 2.349 . S
Tb1 O14 2.415 . S
Tb1 O15 2.399 . S
Tb1 O16 2.325 . S
Tb1 O19 2.303 . S
Tb1 C30 2.764 . S
C2 O18 1.261 . S
C2 O19 1.257 . S
C3 C6 1.358 1_554 S
C3 C7 1.332 . S
C3 C9 1.504 1_655 S
C4 C5 1.373 . S
C4 C8 1.308 1_556 S
C5 C4 1.373 . S
C5 C6 1.429 . S
C5 H32 0.932 . S
C6 C3 1.358 1_556 S
C6 C5 1.429 . S
C6 H33 0.930 . S
C7 C3 1.332 . S
C7 C8 1.394 . S
C7 H34 0.932 . S
C8 C4 1.308 1_554 S
C8 C7 1.394 . S
C8 H35 0.929 . S
C9 Tb0 2.764 . S
C9 C3 1.504 1_455 S
C9 O21 1.239 . S
C9 O22 1.263 . S
O10 Tb0 2.325 1_655 S
O10 C20 1.236 . S
O11 Tb1 2.322 . S
O11 C20 1.257 1_455 S
O12 Tb1 2.349 . S
O12 C23 1.261 . S
O13 Tb0 2.303 . S
O13 C23 1.257 . S
O14 Tb1 2.415 . S
O14 C30 1.239 . S
O15 Tb1 2.399 . S
O15 C30 1.263 . S
O16 Tb1 2.325 . S
O16 C31 1.236 . S
O17 Tb0 2.322 . S
O17 C31 1.257 . S
O18 Tb0 2.349 . S
O18 C2 1.261 . S
O19 Tb1 2.303 . S
O19 C2 1.257 . S
C20 O10 1.236 . S
C20 O11 1.257 1_655 S
O21 Tb0 2.415 . S
O21 C9 1.239 . S
O22 Tb0 2.399 . S
O22 C9 1.263 . S
C23 O12 1.261 . S
C23 O13 1.257 . S
C24 C27 1.358 . S
C24 C28 1.332 . S
C24 C30 1.504 . S
C25 C26 1.373 . S
C25 C29 1.308 . S
C26 C25 1.373 . S
C26 C27 1.429 . S
C26 H36 0.932 . S
C27 C24 1.358 . S
C27 C26 1.429 . S
C27 H37 0.930 . S
C28 C24 1.332 . S
C28 C29 1.394 . S
C28 H38 0.932 . S
C29 C25 1.308 . S
C29 C28 1.394 . S
C29 H39 0.929 . S
C30 Tb1 2.764 . S
C30 O14 1.239 . S
C30 O15 1.263 . S
C30 C24 1.504 . S
C31 O16 1.236 . S
C31 O17 1.257 . S
H32 C5 0.932 . S
H33 C6 0.930 . S
H34 C7 0.932 . S
H35 C8 0.929 . S
H36 C26 0.932 . S
H37 C27 0.930 . S
H38 C28 0.932 . S
H39 C29 0.929 . S
Tb40 C49 2.764 . S
Tb40 O50 2.325 . S
Tb40 O53 2.303 . S
Tb40 O57 2.322 . S
Tb40 O58 2.349 . S
Tb40 O61 2.415 . S
Tb40 O62 2.399 . S
Tb41 O51 2.322 . S
Tb41 O52 2.349 . S
Tb41 O54 2.415 . S
Tb41 O55 2.399 . S
Tb41 O56 2.325 . S
Tb41 O59 2.303 . S
Tb41 C70 2.764 . S
C42 O58 1.261 . S
C42 O59 1.257 . S
C43 C46 1.358 1_554 S
C43 C47 1.332 . S
C43 C49 1.504 . S
C44 C45 1.373 . S
C44 C48 1.308 1_556 S
C45 C44 1.373 . S
C45 C46 1.429 . S
C45 H72 0.932 . S
C46 C43 1.358 1_556 S
C46 C45 1.429 . S
C46 H73 0.930 . S
C47 C43 1.332 . S
C47 C48 1.394 . S
C47 H74 0.932 . S
C48 C44 1.308 1_554 S
C48 C47 1.394 . S
C48 H75 0.929 . S
C49 Tb40 2.764 . S
C49 C43 1.504 . S
C49 O61 1.239 . S
C49 O62 1.263 . S
O50 Tb40 2.325 . S
O50 C60 1.236 . S
O51 Tb41 2.322 . S
O51 C60 1.257 . S
O52 Tb41 2.349 . S
O52 C63 1.261 . S
O53 Tb40 2.303 . S
O53 C63 1.257 . S
O54 Tb41 2.415 . S
O54 C70 1.239 . S
O55 Tb41 2.399 . S
O55 C70 1.263 . S
O56 Tb41 2.325 . S
O56 C71 1.236 . S
O57 Tb40 2.322 . S
O57 C71 1.257 . S
O58 Tb40 2.349 . S
O58 C42 1.261 . S
O59 Tb41 2.303 . S
O59 C42 1.257 . S
C60 O50 1.236 . S
C60 O51 1.257 . S
O61 Tb40 2.415 . S
O61 C49 1.239 . S
O62 Tb40 2.399 . S
O62 C49 1.263 . S
C63 O52 1.261 . S
C63 O53 1.257 . S
C64 C67 1.358 . S
C64 C68 1.332 . S
C64 C70 1.504 . S
C65 C66 1.373 . S
C65 C69 1.308 . S
C66 C65 1.373 . S
C66 C67 1.429 . S
C66 H76 0.932 . S
C67 C64 1.358 . S
C67 C66 1.429 . S
C67 H77 0.930 . S
C68 C64 1.332 . S
C68 C69 1.394 . S
C68 H78 0.932 . S
C69 C65 1.308 . S
C69 C68 1.394 . S
C69 H79 0.929 . S
C70 Tb41 2.764 . S
C70 O54 1.239 . S
C70 O55 1.263 . S
C70 C64 1.504 . S
C71 O56 1.236 . S
C71 O57 1.257 . S
H72 C45 0.932 . S
H73 C46 0.930 . S
H74 C47 0.932 . S
H75 C48 0.929 . S
H76 C66 0.932 . S
H77 C67 0.930 . S
H78 C68 0.932 . S
H79 C69 0.929 . S
Tb80 C89 2.764 1_455 S
Tb80 O90 2.325 1_455 S
Tb80 O93 2.303 . S
Tb80 O97 2.322 . S
Tb80 O98 2.349 . S
Tb80 O101 2.415 . S
Tb80 O102 2.399 . S
Tb81 O91 2.322 1_455 S
Tb81 O92 2.349 . S
Tb81 O94 2.415 . S
Tb81 O95 2.399 . S
Tb81 O96 2.325 . S
Tb81 O99 2.303 . S
Tb81 C110 2.764 . S
C82 O98 1.261 . S
C82 O99 1.257 . S
C83 C86 1.358 . S
C83 C87 1.332 . S
C83 C89 1.504 . S
C84 C85 1.373 . S
C84 C88 1.308 . S
C85 C84 1.373 . S
C85 C86 1.429 . S
C85 H112 0.932 . S
C86 C83 1.358 . S
C86 C85 1.429 . S
C86 H113 0.930 . S
C87 C83 1.332 . S
C87 C88 1.394 . S
C87 H114 0.932 . S
C88 C84 1.308 . S
C88 C87 1.394 . S
C88 H115 0.929 . S
C89 Tb80 2.764 1_655 S
C89 C83 1.504 . S
C89 O101 1.239 1_655 S
C89 O102 1.263 1_655 S
O90 Tb80 2.325 1_655 S
O90 C100 1.236 . S
O91 Tb81 2.322 1_655 S
O91 C100 1.257 . S
O92 Tb81 2.349 . S
O92 C103 1.261 . S
O93 Tb80 2.303 . S
O93 C103 1.257 . S
O94 Tb81 2.415 . S
O94 C110 1.239 . S
O95 Tb81 2.399 . S
O95 C110 1.263 . S
O96 Tb81 2.325 . S
O96 C111 1.236 . S
O97 Tb80 2.322 . S
O97 C111 1.257 . S
O98 Tb80 2.349 . S
O98 C82 1.261 . S
O99 Tb81 2.303 . S
O99 C82 1.257 . S
C100 O90 1.236 . S
C100 O91 1.257 . S
O101 Tb80 2.415 . S
O101 C89 1.239 1_455 S
O102 Tb80 2.399 . S
O102 C89 1.263 1_455 S
C103 O92 1.261 . S
C103 O93 1.257 . S
C104 C107 1.358 1_556 S
C104 C108 1.332 . S
C104 C110 1.504 . S
C105 C106 1.373 . S
C105 C109 1.308 1_554 S
C106 C105 1.373 . S
C106 C107 1.429 . S
C106 H116 0.932 . S
C107 C104 1.358 1_554 S
C107 C106 1.429 . S
C107 H117 0.930 . S
C108 C104 1.332 . S
C108 C109 1.394 . S
C108 H118 0.932 . S
C109 C105 1.308 1_556 S
C109 C108 1.394 . S
C109 H119 0.929 . S
C110 Tb81 2.764 . S
C110 O94 1.239 . S
C110 O95 1.263 . S
C110 C104 1.504 . S
C111 O96 1.236 . S
C111 O97 1.257 . S
H112 C85 0.932 . S
H113 C86 0.930 . S
H114 C87 0.932 . S
H115 C88 0.929 . S
H116 C106 0.932 . S
H117 C107 0.930 . S
H118 C108 0.932 . S
H119 C109 0.929 . S
Tb120 C129 2.764 . S
Tb120 O130 2.325 . S
Tb120 O133 2.303 . S
Tb120 O137 2.322 . S
Tb120 O138 2.349 . S
Tb120 O141 2.415 . S
Tb120 O142 2.399 . S
Tb121 O131 2.322 . S
Tb121 O132 2.349 . S
Tb121 O134 2.415 . S
Tb121 O135 2.399 . S
Tb121 O136 2.325 . S
Tb121 O139 2.303 . S
Tb121 C150 2.764 . S
C122 O138 1.261 . S
C122 O139 1.257 . S
C123 C126 1.358 . S
C123 C127 1.332 . S
C123 C129 1.504 . S
C124 C125 1.373 . S
C124 C128 1.308 . S
C125 C124 1.373 . S
C125 C126 1.429 . S
C125 H152 0.932 . S
C126 C123 1.358 . S
C126 C125 1.429 . S
C126 H153 0.930 . S
C127 C123 1.332 . S
C127 C128 1.394 . S
C127 H154 0.932 . S
C128 C124 1.308 . S
C128 C127 1.394 . S
C128 H155 0.929 . S
C129 Tb120 2.764 . S
C129 C123 1.504 . S
C129 O141 1.239 . S
C129 O142 1.263 . S
O130 Tb120 2.325 . S
O130 C140 1.236 . S
O131 Tb121 2.322 . S
O131 C140 1.257 . S
O132 Tb121 2.349 . S
O132 C143 1.261 . S
O133 Tb120 2.303 . S
O133 C143 1.257 . S
O134 Tb121 2.415 . S
O134 C150 1.239 . S
O135 Tb121 2.399 . S
O135 C150 1.263 . S
O136 Tb121 2.325 . S
O136 C151 1.236 . S
O137 Tb120 2.322 . S
O137 C151 1.257 . S
O138 Tb120 2.349 . S
O138 C122 1.261 . S
O139 Tb121 2.303 . S
O139 C122 1.257 . S
C140 O130 1.236 . S
C140 O131 1.257 . S
O141 Tb120 2.415 . S
O141 C129 1.239 . S
O142 Tb120 2.399 . S
O142 C129 1.263 . S
C143 O132 1.261 . S
C143 O133 1.257 . S
C144 C147 1.358 1_556 S
C144 C148 1.332 . S
C144 C150 1.504 . S
C145 C146 1.373 . S
C145 C149 1.308 1_554 S
C146 C145 1.373 . S
C146 C147 1.429 . S
C146 H156 0.932 . S
C147 C144 1.358 1_554 S
C147 C146 1.429 . S
C147 H157 0.930 . S
C148 C144 1.332 . S
C148 C149 1.394 . S
C148 H158 0.932 . S
C149 C145 1.308 1_556 S
C149 C148 1.394 . S
C149 H159 0.929 . S
C150 Tb121 2.764 . S
C150 O134 1.239 . S
C150 O135 1.263 . S
C150 C144 1.504 . S
C151 O136 1.236 . S
C151 O137 1.257 . S
H152 C125 0.932 . S
H153 C126 0.930 . S
H154 C127 0.932 . S
H155 C128 0.929 . S
H156 C146 0.932 . S
H157 C147 0.930 . S
H158 C148 0.932 . S
H159 C149 0.929 . S
C160 C161 1.349 . S
C160 C162 1.327 . S
C160 H185 0.950 . S
C161 C160 1.349 . S
C161 C177 1.349 . S
C162 C160 1.327 . S
C162 C181 1.429 . S
C162 H186 0.950 . S
C163 C180 1.574 1_556 S
C163 C182 1.368 . S
C163 H187 0.949 . S
H164 C168 0.949 . S
C165 C166 1.349 . S
C165 C167 1.327 . S
C165 H188 0.950 . S
C166 C165 1.349 . S
C166 C178 1.349 . S
C167 C165 1.327 . S
C167 C183 1.429 . S
C167 H189 0.950 . S
C168 H164 0.949 . S
C168 C176 1.574 1_554 S
C168 C184 1.368 . S
H169 C177 0.950 . S
H170 C175 0.950 . S
H171 C176 0.949 . S
H172 C178 0.950 . S
H173 C179 0.950 . S
H174 C180 0.949 . S
C175 H170 0.950 . S
C175 C177 1.327 . S
C175 C181 1.429 . S
C176 C168 1.574 1_556 S
C176 H171 0.949 . S
C176 C182 1.368 . S
C177 C161 1.349 . S
C177 H169 0.950 . S
C177 C175 1.327 . S
C178 C166 1.349 . S
C178 H172 0.950 . S
C178 C179 1.327 . S
C179 H173 0.950 . S
C179 C178 1.327 . S
C179 C183 1.429 . S
C180 C163 1.574 1_554 S
C180 H174 0.949 . S
C180 C184 1.368 . S
C181 C162 1.429 . S
C181 C175 1.429 . S
C181 C182 1.523 . S
C182 C163 1.368 . S
C182 C176 1.368 . S
C182 C181 1.523 . S
C183 C167 1.429 . S
C183 C179 1.429 . S
C183 C184 1.523 . S
C184 C168 1.368 . S
C184 C180 1.368 . S
C184 C183 1.523 . S
H185 C160 0.950 . S
H186 C162 0.950 . S
H187 C163 0.949 . S
H188 C165 0.950 . S
H189 C167 0.950 . S
C190 C191 1.349 . S
C190 C192 1.327 . S
C190 H215 0.950 . S
C191 C190 1.349 . S
C191 C207 1.349 . S
C192 C190 1.327 . S
C192 C211 1.429 . S
C192 H216 0.950 . S
C193 C210 1.574 . S
C193 C212 1.368 . S
C193 H217 0.949 . S
H194 C198 0.949 . S
C195 C196 1.349 . S
C195 C197 1.327 . S
C195 H218 0.950 . S
C196 C195 1.349 . S
C196 C208 1.349 . S
C197 C195 1.327 . S
C197 C213 1.429 . S
C197 H219 0.950 . S
C198 H194 0.949 . S
C198 C206 1.574 . S
C198 C214 1.368 . S
H199 C207 0.950 . S
H200 C205 0.950 . S
H201 C206 0.949 . S
H202 C208 0.950 . S
H203 C209 0.950 . S
H204 C210 0.949 . S
C205 H200 0.950 . S
C205 C207 1.327 . S
C205 C211 1.429 . S
C206 C198 1.574 . S
C206 H201 0.949 . S
C206 C212 1.368 1_556 S
C207 C191 1.349 . S
C207 H199 0.950 . S
C207 C205 1.327 . S
C208 C196 1.349 . S
C208 H202 0.950 . S
C208 C209 1.327 . S
C209 H203 0.950 . S
C209 C208 1.327 . S
C209 C213 1.429 . S
C210 C193 1.574 . S
C210 H204 0.949 . S
C210 C214 1.368 1_554 S
C211 C192 1.429 . S
C211 C205 1.429 . S
C211 C212 1.523 . S
C212 C193 1.368 . S
C212 C206 1.368 1_554 S
C212 C211 1.523 . S
C213 C197 1.429 . S
C213 C209 1.429 . S
C213 C214 1.523 . S
C214 C198 1.368 . S
C214 C210 1.368 1_556 S
C214 C213 1.523 . S
H215 C190 0.950 . S
H216 C192 0.950 . S
H217 C193 0.949 . S
H218 C195 0.950 . S
H219 C197 0.950 . S
C220 C221 1.349 . S
C220 C222 1.327 . S
C220 H245 0.950 . S
C221 C220 1.349 . S
C221 C237 1.349 . S
C222 C220 1.327 . S
C222 C241 1.429 . S
C222 H246 0.950 . S
C223 C240 1.574 1_565 S
C223 C242 1.368 1_554 S
C223 H247 0.949 . S
H224 C228 0.949 . S
C225 C226 1.349 . S
C225 C227 1.327 . S
C225 H248 0.950 . S
C226 C225 1.349 . S
C226 C238 1.349 . S
C227 C225 1.327 . S
C227 C243 1.429 . S
C227 H249 0.950 . S
C228 H224 0.949 . S
C228 C236 1.574 1_545 S
C228 C244 1.368 1_556 S
H229 C237 0.950 . S
H230 C235 0.950 1_554 S
H231 C236 0.949 . S
H232 C238 0.950 . S
H233 C239 0.950 1_556 S
H234 C240 0.949 . S
C235 H230 0.950 1_556 S
C235 C237 1.327 . S
C235 C241 1.429 . S
C236 C228 1.574 1_565 S
C236 H231 0.949 . S
C236 C242 1.368 . S
C237 C221 1.349 . S
C237 H229 0.950 . S
C237 C235 1.327 . S
C238 C226 1.349 . S
C238 H232 0.950 . S
C238 C239 1.327 . S
C239 H233 0.950 1_554 S
C239 C238 1.327 . S
C239 C243 1.429 . S
C240 C223 1.574 1_545 S
C240 H234 0.949 . S
C240 C244 1.368 . S
C241 C222 1.429 . S
C241 C235 1.429 . S
C241 C242 1.523 . S
C242 C223 1.368 1_556 S
C242 C236 1.368 . S
C242 C241 1.523 . S
C243 C227 1.429 . S
C243 C239 1.429 . S
C243 C244 1.523 . S
C244 C228 1.368 1_554 S
C244 C240 1.368 . S
C244 C243 1.523 . S
H245 C220 0.950 . S
H246 C222 0.950 . S
H247 C223 0.949 . S
H248 C225 0.950 . S
H249 C227 0.950 . S
C250 C251 1.349 . S
C250 C252 1.327 . S
C250 H275 0.950 . S
C251 C250 1.349 . S
C251 C267 1.349 . S
C252 C250 1.327 . S
C252 C271 1.429 . S
C252 H276 0.950 . S
C253 C270 1.574 . S
C253 C272 1.368 1_545 S
C253 H277 0.949 . S
H254 C258 0.949 . S
C255 C256 1.349 . S
C255 C257 1.327 . S
C255 H278 0.950 . S
C256 C255 1.349 . S
C256 C268 1.349 . S
C257 C255 1.327 . S
C257 C273 1.429 . S
C257 H279 0.950 . S
C258 H254 0.949 . S
C258 C266 1.574 . S
C258 C274 1.368 1_565 S
H259 C267 0.950 . S
H260 C265 0.950 . S
H261 C266 0.949 . S
H262 C268 0.950 . S
H263 C269 0.950 . S
H264 C270 0.949 . S
C265 H260 0.950 . S
C265 C267 1.327 . S
C265 C271 1.429 . S
C266 C258 1.574 . S
C266 H261 0.949 . S
C266 C272 1.368 1_556 S
C267 C251 1.349 . S
C267 H259 0.950 . S
C267 C265 1.327 . S
C268 C256 1.349 . S
C268 H262 0.950 . S
C268 C269 1.327 . S
C269 H263 0.950 . S
C269 C268 1.327 . S
C269 C273 1.429 . S
C270 C253 1.574 . S
C270 H264 0.949 . S
C270 C274 1.368 1_554 S
C271 C252 1.429 . S
C271 C265 1.429 . S
C271 C272 1.523 . S
C272 C253 1.368 1_565 S
C272 C266 1.368 1_554 S
C272 C271 1.523 . S
C273 C257 1.429 . S
C273 C269 1.429 . S
C273 C274 1.523 . S
C274 C258 1.368 1_545 S
C274 C270 1.368 1_556 S
C274 C273 1.523 . S
H275 C250 0.950 . S
H276 C252 0.950 . S
H277 C253 0.949 . S
H278 C255 0.950 . S
H279 C257 0.950 . S
C280 C281 1.349 . S
C280 C282 1.327 . S
C280 H305 0.950 . S
C281 C280 1.349 . S
C281 C297 1.349 . S
C282 C280 1.327 . S
C282 C301 1.429 . S
C282 H306 0.950 . S
C283 C300 1.574 . S
C283 C302 1.368 . S
C283 H307 0.949 . S
H284 C288 0.949 . S
C285 C286 1.349 . S
C285 C287 1.327 . S
C285 H308 0.950 . S
C286 C285 1.349 . S
C286 C298 1.349 . S
C287 C285 1.327 . S
C287 C303 1.429 . S
C287 H309 0.950 . S
C288 H284 0.949 . S
C288 C296 1.574 . S
C288 C304 1.368 . S
H289 C297 0.950 . S
H290 C295 0.950 . S
H291 C296 0.949 . S
H292 C298 0.950 . S
H293 C299 0.950 . S
H294 C300 0.949 . S
C295 H290 0.950 . S
C295 C297 1.327 . S
C295 C301 1.429 . S
C296 C288 1.574 . S
C296 H291 0.949 . S
C296 C302 1.368 . S
C297 C281 1.349 . S
C297 H289 0.950 . S
C297 C295 1.327 . S
C298 C286 1.349 . S
C298 H292 0.950 . S
C298 C299 1.327 . S
C299 H293 0.950 . S
C299 C298 1.327 . S
C299 C303 1.429 . S
C300 C283 1.574 . S
C300 H294 0.949 . S
C300 C304 1.368 . S
C301 C282 1.429 . S
C301 C295 1.429 . S
C301 C302 1.523 . S
C302 C283 1.368 . S
C302 C296 1.368 . S
C302 C301 1.523 . S
C303 C287 1.429 . S
C303 C299 1.429 . S
C303 C304 1.523 . S
C304 C288 1.368 . S
C304 C300 1.368 . S
C304 C303 1.523 . S
H305 C280 0.950 . S
H306 C282 0.950 . S
H307 C283 0.949 . S
H308 C285 0.950 . S
H309 C287 0.950 . S
C310 C311 1.349 . S
C310 C312 1.327 . S
C310 H335 0.950 . S
C311 C310 1.349 . S
C311 C327 1.349 . S
C312 C310 1.327 . S
C312 C331 1.429 . S
C312 H336 0.950 . S
C313 C330 1.574 . S
C313 C332 1.368 . S
C313 H337 0.949 . S
H314 C318 0.949 . S
C315 C316 1.349 . S
C315 C317 1.327 . S
C315 H338 0.950 . S
C316 C315 1.349 . S
C316 C328 1.349 . S
C317 C315 1.327 . S
C317 C333 1.429 . S
C317 H339 0.950 . S
C318 H314 0.949 . S
C318 C326 1.574 . S
C318 C334 1.368 . S
H319 C327 0.950 . S
H320 C325 0.950 . S
H321 C326 0.949 . S
H322 C328 0.950 . S
H323 C329 0.950 . S
H324 C330 0.949 . S
C325 H320 0.950 . S
C325 C327 1.327 . S
C325 C331 1.429 . S
C326 C318 1.574 . S
C326 H321 0.949 . S
C326 C332 1.368 . S
C327 C311 1.349 . S
C327 H319 0.950 . S
C327 C325 1.327 . S
C328 C316 1.349 . S
C328 H322 0.950 . S
C328 C329 1.327 . S
C329 H323 0.950 . S
C329 C328 1.327 . S
C329 C333 1.429 . S
C330 C313 1.574 . S
C330 H324 0.949 . S
C330 C334 1.368 . S
C331 C312 1.429 . S
C331 C325 1.429 . S
C331 C332 1.523 . S
C332 C313 1.368 . S
C332 C326 1.368 . S
C332 C331 1.523 . S
C333 C317 1.429 . S
C333 C329 1.429 . S
C333 C334 1.523 . S
C334 C318 1.368 . S
C334 C330 1.368 . S
C334 C333 1.523 . S
H335 C310 0.950 . S
H336 C312 0.950 . S
H337 C313 0.949 . S
H338 C315 0.950 . S
H339 C317 0.950 . S
C340 C341 1.349 . S
C340 C342 1.327 . S
C340 H365 0.950 . S
C341 C340 1.349 . S
C341 C357 1.349 . S
C342 C340 1.327 . S
C342 C361 1.429 . S
C342 H366 0.950 . S
C343 C360 1.574 . S
C343 C362 1.368 . S
C343 H367 0.949 . S
H344 C348 0.949 . S
C345 C346 1.349 . S
C345 C347 1.327 . S
C345 H368 0.950 . S
C346 C345 1.349 . S
C346 C358 1.349 . S
C347 C345 1.327 . S
C347 C363 1.429 . S
C347 H369 0.950 . S
C348 H344 0.949 . S
C348 C356 1.574 . S
C348 C364 1.368 . S
H349 C357 0.950 . S
H350 C355 0.950 . S
H351 C356 0.949 . S
H352 C358 0.950 . S
H353 C359 0.950 . S
H354 C360 0.949 . S
C355 H350 0.950 . S
C355 C357 1.327 . S
C355 C361 1.429 . S
C356 C348 1.574 . S
C356 H351 0.949 . S
C356 C362 1.368 . S
C357 C341 1.349 . S
C357 H349 0.950 . S
C357 C355 1.327 . S
C358 C346 1.349 . S
C358 H352 0.950 . S
C358 C359 1.327 . S
C359 H353 0.950 . S
C359 C358 1.327 . S
C359 C363 1.429 . S
C360 C343 1.574 . S
C360 H354 0.949 . S
C360 C364 1.368 . S
C361 C342 1.429 . S
C361 C355 1.429 . S
C361 C362 1.523 . S
C362 C343 1.368 . S
C362 C356 1.368 . S
C362 C361 1.523 . S
C363 C347 1.429 . S
C363 C359 1.429 . S
C363 C364 1.523 . S
C364 C348 1.368 . S
C364 C360 1.368 . S
C364 C363 1.523 . S
H365 C340 0.950 . S
H366 C342 0.950 . S
H367 C343 0.949 . S
H368 C345 0.950 . S
H369 C347 0.950 . S
C370 C371 1.349 . S
C370 C372 1.327 . S
C370 H395 0.950 . S
C371 C370 1.349 . S
C371 C387 1.349 . S
C372 C370 1.327 . S
C372 C391 1.429 . S
C372 H396 0.950 . S
C373 C390 1.574 . S
C373 C392 1.368 . S
C373 H397 0.949 . S
H374 C378 0.949 . S
C375 C376 1.349 . S
C375 C377 1.327 . S
C375 H398 0.950 . S
C376 C375 1.349 . S
C376 C388 1.349 . S
C377 C375 1.327 . S
C377 C393 1.429 . S
C377 H399 0.950 . S
C378 H374 0.949 . S
C378 C386 1.574 . S
C378 C394 1.368 . S
H379 C387 0.950 . S
H380 C385 0.950 . S
H381 C386 0.949 . S
H382 C388 0.950 . S
H383 C389 0.950 . S
H384 C390 0.949 . S
C385 H380 0.950 . S
C385 C387 1.327 . S
C385 C391 1.429 . S
C386 C378 1.574 . S
C386 H381 0.949 . S
C386 C392 1.368 . S
C387 C371 1.349 . S
C387 H379 0.950 . S
C387 C385 1.327 . S
C388 C376 1.349 . S
C388 H382 0.950 . S
C388 C389 1.327 . S
C389 H383 0.950 . S
C389 C388 1.327 . S
C389 C393 1.429 . S
C390 C373 1.574 . S
C390 H384 0.949 . S
C390 C394 1.368 . S
C391 C372 1.429 . S
C391 C385 1.429 . S
C391 C392 1.523 . S
C392 C373 1.368 . S
C392 C386 1.368 . S
C392 C391 1.523 . S
C393 C377 1.429 . S
C393 C389 1.429 . S
C393 C394 1.523 . S
C394 C378 1.368 . S
C394 C390 1.368 . S
C394 C393 1.523 . S
H395 C370 0.950 . S
H396 C372 0.950 . S
H397 C373 0.949 . S
H398 C375 0.950 . S
H399 C377 0.950 . S
C400 C401 1.349 1_554 S
C400 C402 1.327 . S
C400 H425 0.950 . S
C401 C400 1.349 1_556 S
C401 C417 1.349 . S
C402 C400 1.327 . S
C402 C421 1.429 1_554 S
C402 H426 0.950 . S
C403 C420 1.574 . S
C403 C422 1.368 . S
C403 H427 0.949 . S
H404 C408 0.949 . S
C405 C406 1.349 1_556 S
C405 C407 1.327 . S
C405 H428 0.950 . S
C406 C405 1.349 1_554 S
C406 C418 1.349 . S
C407 C405 1.327 . S
C407 C423 1.429 1_556 S
C407 H429 0.950 . S
C408 H404 0.949 . S
C408 C416 1.574 . S
C408 C424 1.368 . S
H409 C417 0.950 . S
H410 C415 0.950 . S
H411 C416 0.949 . S
H412 C418 0.950 . S
H413 C419 0.950 . S
H414 C420 0.949 . S
C415 H410 0.950 . S
C415 C417 1.327 . S
C415 C421 1.429 . S
C416 C408 1.574 . S
C416 H411 0.949 . S
C416 C422 1.368 1_554 S
C417 C401 1.349 . S
C417 H409 0.950 . S
C417 C415 1.327 . S
C418 C406 1.349 . S
C418 H412 0.950 . S
C418 C419 1.327 . S
C419 H413 0.950 . S
C419 C418 1.327 . S
C419 C423 1.429 . S
C420 C403 1.574 . S
C420 H414 0.949 . S
C420 C424 1.368 1_556 S
C421 C402 1.429 1_556 S
C421 C415 1.429 . S
C421 C422 1.523 . S
C422 C403 1.368 . S
C422 C416 1.368 1_556 S
C422 C421 1.523 . S
C423 C407 1.429 1_554 S
C423 C419 1.429 . S
C423 C424 1.523 . S
C424 C408 1.368 . S
C424 C420 1.368 1_554 S
C424 C423 1.523 . S
H425 C400 0.950 . S
H426 C402 0.950 . S
H427 C403 0.949 . S
H428 C405 0.950 . S
H429 C407 0.950 . S
C430 C431 1.349 . S
C430 C432 1.327 . S
C430 H455 0.950 . S
C431 C430 1.349 . S
C431 C447 1.349 . S
C432 C430 1.327 . S
C432 C451 1.429 . S
C432 H456 0.950 . S
C433 C450 1.574 . S
C433 C452 1.368 1_556 S
C433 H457 0.949 . S
H434 C438 0.949 . S
C435 C436 1.349 . S
C435 C437 1.327 . S
C435 H458 0.950 . S
C436 C435 1.349 . S
C436 C448 1.349 . S
C437 C435 1.327 . S
C437 C453 1.429 . S
C437 H459 0.950 . S
C438 H434 0.949 . S
C438 C446 1.574 . S
C438 C454 1.368 1_554 S
H439 C447 0.950 . S
H440 C445 0.950 1_556 S
H441 C446 0.949 . S
H442 C448 0.950 . S
H443 C449 0.950 1_554 S
H444 C450 0.949 . S
C445 H440 0.950 1_554 S
C445 C447 1.327 . S
C445 C451 1.429 . S
C446 C438 1.574 . S
C446 H441 0.949 . S
C446 C452 1.368 . S
C447 C431 1.349 . S
C447 H439 0.950 . S
C447 C445 1.327 . S
C448 C436 1.349 . S
C448 H442 0.950 . S
C448 C449 1.327 . S
C449 H443 0.950 1_556 S
C449 C448 1.327 . S
C449 C453 1.429 . S
C450 C433 1.574 . S
C450 H444 0.949 . S
C450 C454 1.368 . S
C451 C432 1.429 . S
C451 C445 1.429 . S
C451 C452 1.523 . S
C452 C433 1.368 1_554 S
C452 C446 1.368 . S
C452 C451 1.523 . S
C453 C437 1.429 . S
C453 C449 1.429 . S
C453 C454 1.523 . S
C454 C438 1.368 1_556 S
C454 C450 1.368 . S
C454 C453 1.523 . S
H455 C430 0.950 . S
H456 C432 0.950 . S
H457 C433 0.949 . S
H458 C435 0.950 . S
H459 C437 0.950 . S
C460 C461 1.349 . S
C460 C462 1.327 1_554 S
C460 H485 0.950 1_554 S
C461 C460 1.349 . S
C461 C477 1.349 . S
C462 C460 1.327 1_556 S
C462 C481 1.429 1_556 S
C462 H486 0.950 . S
C463 C480 1.574 . S
C463 C482 1.368 . S
C463 H487 0.949 . S
H464 C468 0.949 . S
C465 C466 1.349 . S
C465 C467 1.327 1_556 S
C465 H488 0.950 1_556 S
C466 C465 1.349 . S
C466 C478 1.349 . S
C467 C465 1.327 1_554 S
C467 C483 1.429 1_554 S
C467 H489 0.950 . S
C468 H464 0.949 . S
C468 C476 1.574 . S
C468 C484 1.368 . S
H469 C477 0.950 . S
H470 C475 0.950 . S
H471 C476 0.949 . S
H472 C478 0.950 . S
H473 C479 0.950 . S
H474 C480 0.949 . S
C475 H470 0.950 . S
C475 C477 1.327 . S
C475 C481 1.429 . S
C476 C468 1.574 . S
C476 H471 0.949 . S
C476 C482 1.368 1_556 S
C477 C461 1.349 . S
C477 H469 0.950 . S
C477 C475 1.327 . S
C478 C466 1.349 . S
C478 H472 0.950 . S
C478 C479 1.327 . S
C479 H473 0.950 . S
C479 C478 1.327 . S
C479 C483 1.429 . S
C480 C463 1.574 . S
C480 H474 0.949 . S
C480 C484 1.368 1_554 S
C481 C462 1.429 1_554 S
C481 C475 1.429 . S
C481 C482 1.523 . S
C482 C463 1.368 . S
C482 C476 1.368 1_554 S
C482 C481 1.523 . S
C483 C467 1.429 1_556 S
C483 C479 1.429 . S
C483 C484 1.523 . S
C484 C468 1.368 . S
C484 C480 1.368 1_556 S
C484 C483 1.523 . S
H485 C460 0.950 1_556 S
H486 C462 0.950 . S
H487 C463 0.949 . S
H488 C465 0.950 1_554 S
H489 C467 0.950 . S
C490 C491 1.349 . S
C490 C492 1.327 1_556 S
C490 H515 0.950 1_556 S
C491 C490 1.349 . S
C491 C507 1.349 . S
C492 C490 1.327 1_554 S
C492 C511 1.429 1_554 S
C492 H516 0.950 . S
C493 C510 1.574 . S
C493 C512 1.368 . S
C493 H517 0.949 . S
H494 C498 0.949 . S
C495 C496 1.349 . S
C495 C497 1.327 1_554 S
C495 H518 0.950 1_554 S
C496 C495 1.349 . S
C496 C508 1.349 . S
C497 C495 1.327 1_556 S
C497 C513 1.429 1_556 S
C497 H519 0.950 . S
C498 H494 0.949 . S
C498 C506 1.574 . S
C498 C514 1.368 . S
H499 C507 0.950 . S
H500 C505 0.950 . S
H501 C506 0.949 . S
H502 C508 0.950 . S
H503 C509 0.950 . S
H504 C510 0.949 . S
C505 H500 0.950 . S
C505 C507 1.327 . S
C505 C511 1.429 . S
C506 C498 1.574 . S
C506 H501 0.949 . S
C506 C512 1.368 1_554 S
C507 C491 1.349 . S
C507 H499 0.950 . S
C507 C505 1.327 . S
C508 C496 1.349 . S
C508 H502 0.950 . S
C508 C509 1.327 . S
C509 H503 0.950 . S
C509 C508 1.327 . S
C509 C513 1.429 . S
C510 C493 1.574 . S
C510 H504 0.949 . S
C510 C514 1.368 1_556 S
C511 C492 1.429 1_556 S
C511 C505 1.429 . S
C511 C512 1.523 . S
C512 C493 1.368 . S
C512 C506 1.368 1_556 S
C512 C511 1.523 . S
C513 C497 1.429 1_554 S
C513 C509 1.429 . S
C513 C514 1.523 . S
C514 C498 1.368 . S
C514 C510 1.368 1_554 S
C514 C513 1.523 . S
H515 C490 0.950 1_554 S
H516 C492 0.950 . S
H517 C493 0.949 . S
H518 C495 0.950 1_556 S
H519 C497 0.950 . S
C161 C103 1.886 . S
C166 C2 1.886 . S
C191 C63 2.474 . S
C196 C122 2.474 . S
C221 C143 1.886 . S
C226 C42 1.886 . S
C251 C23 2.474 . S
C256 C82 2.474 . S
C281 C124 1.581 . S
C286 C25 1.581 . S
C311 C111 1.587 . S
C316 C60 1.587 . S
C341 C84 1.581 . S
C346 C65 1.581 . S
C371 C20 1.586 . S
C376 C151 1.586 . S
C401 C140 1.686 . S
C406 C31 1.686 . S
C431 C105 0.479 . S
C436 C44 0.479 . S
C461 C71 1.685 . S
C466 C100 1.685 . S
C491 C4 0.479 . S
C496 C145 0.479 . S
