# Generated by pormake.
# Topology ana, (4)-cn, num edge types: 1
# Building blocks:
#     Node 0, Type 0, BuildingBlock: CEKHIL_clean_sbu_0, # of connection points: 4
#     Node 1, Type 0, BuildingBlock: CEKHIL_clean_sbu_0, # of connection points: 4
#     Node 2, Type 0, BuildingBlock: CEKHIL_clean_sbu_0, # of connection points: 4
#     Node 3, Type 0, BuildingBlock: CEKHIL_clean_sbu_0, # of connection points: 4
#     Node 4, Type 0, BuildingBlock: CEKHIL_clean_sbu_0, # of connection points: 4
#     Node 5, Type 0, BuildingBlock: CEKHIL_clean_sbu_0, # of connection points: 4
#     Node 6, Type 0, BuildingBlock: CEKHIL_clean_sbu_0, # of connection points: 4
#     Node 7, Type 0, BuildingBlock: CEKHIL_clean_sbu_0, # of connection points: 4
#     Node 8, Type 0, BuildingBlock: CEKHIL_clean_sbu_0, # of connection points: 4
#     Node 9, Type 0, BuildingBlock: CEKHIL_clean_sbu_0, # of connection points: 4
#     Node 10, Type 0, BuildingBlock: CEKHIL_clean_sbu_0, # of connection points: 4
#     Node 11, Type 0, BuildingBlock: CEKHIL_clean_sbu_0, # of connection points: 4
#     Node 12, Type 0, BuildingBlock: CEKHIL_clean_sbu_0, # of connection points: 4
#     Node 13, Type 0, BuildingBlock: CEKHIL_clean_sbu_0, # of connection points: 4
#     Node 14, Type 0, BuildingBlock: CEKHIL_clean_sbu_0, # of connection points: 4
#     Node 15, Type 0, BuildingBlock: CEKHIL_clean_sbu_0, # of connection points: 4
#     Node 16, Type 0, BuildingBlock: CEKHIL_clean_sbu_0, # of connection points: 4
#     Node 17, Type 0, BuildingBlock: CEKHIL_clean_sbu_0, # of connection points: 4
#     Node 18, Type 0, BuildingBlock: CEKHIL_clean_sbu_0, # of connection points: 4
#     Node 19, Type 0, BuildingBlock: CEKHIL_clean_sbu_0, # of connection points: 4
#     Node 20, Type 0, BuildingBlock: CEKHIL_clean_sbu_0, # of connection points: 4
#     Node 21, Type 0, BuildingBlock: CEKHIL_clean_sbu_0, # of connection points: 4
#     Node 22, Type 0, BuildingBlock: CEKHIL_clean_sbu_0, # of connection points: 4
#     Node 23, Type 0, BuildingBlock: CEKHIL_clean_sbu_0, # of connection points: 4
#     Node 24, Type 0, BuildingBlock: CEKHIL_clean_sbu_0, # of connection points: 4
#     Node 25, Type 0, BuildingBlock: CEKHIL_clean_sbu_0, # of connection points: 4
#     Node 26, Type 0, BuildingBlock: CEKHIL_clean_sbu_0, # of connection points: 4
#     Node 27, Type 0, BuildingBlock: CEKHIL_clean_sbu_0, # of connection points: 4
#     Node 28, Type 0, BuildingBlock: CEKHIL_clean_sbu_0, # of connection points: 4
#     Node 29, Type 0, BuildingBlock: CEKHIL_clean_sbu_0, # of connection points: 4
#     Node 30, Type 0, BuildingBlock: CEKHIL_clean_sbu_0, # of connection points: 4
#     Node 31, Type 0, BuildingBlock: CEKHIL_clean_sbu_0, # of connection points: 4
#     Node 32, Type 0, BuildingBlock: CEKHIL_clean_sbu_0, # of connection points: 4
#     Node 33, Type 0, BuildingBlock: CEKHIL_clean_sbu_0, # of connection points: 4
#     Node 34, Type 0, BuildingBlock: CEKHIL_clean_sbu_0, # of connection points: 4
#     Node 35, Type 0, BuildingBlock: CEKHIL_clean_sbu_0, # of connection points: 4
#     Node 36, Type 0, BuildingBlock: CEKHIL_clean_sbu_0, # of connection points: 4
#     Node 37, Type 0, BuildingBlock: CEKHIL_clean_sbu_0, # of connection points: 4
#     Node 38, Type 0, BuildingBlock: CEKHIL_clean_sbu_0, # of connection points: 4
#     Node 39, Type 0, BuildingBlock: CEKHIL_clean_sbu_0, # of connection points: 4
#     Node 40, Type 0, BuildingBlock: CEKHIL_clean_sbu_0, # of connection points: 4
#     Node 41, Type 0, BuildingBlock: CEKHIL_clean_sbu_0, # of connection points: 4
#     Node 42, Type 0, BuildingBlock: CEKHIL_clean_sbu_0, # of connection points: 4
#     Node 43, Type 0, BuildingBlock: CEKHIL_clean_sbu_0, # of connection points: 4
#     Node 44, Type 0, BuildingBlock: CEKHIL_clean_sbu_0, # of connection points: 4
#     Node 45, Type 0, BuildingBlock: CEKHIL_clean_sbu_0, # of connection points: 4
#     Node 46, Type 0, BuildingBlock: CEKHIL_clean_sbu_0, # of connection points: 4
#     Node 47, Type 0, BuildingBlock: CEKHIL_clean_sbu_0, # of connection points: 4
#     Edge 48, Type (0, 0), BuildingBlock: MIFKUJ_clean_linker_0, # of connection points: 2
#     Edge 49, Type (0, 0), BuildingBlock: MIFKUJ_clean_linker_0, # of connection points: 2
#     Edge 50, Type (0, 0), BuildingBlock: MIFKUJ_clean_linker_0, # of connection points: 2
#     Edge 51, Type (0, 0), BuildingBlock: MIFKUJ_clean_linker_0, # of connection points: 2
#     Edge 52, Type (0, 0), BuildingBlock: MIFKUJ_clean_linker_0, # of connection points: 2
#     Edge 53, Type (0, 0), BuildingBlock: MIFKUJ_clean_linker_0, # of connection points: 2
#     Edge 54, Type (0, 0), BuildingBlock: MIFKUJ_clean_linker_0, # of connection points: 2
#     Edge 55, Type (0, 0), BuildingBlock: MIFKUJ_clean_linker_0, # of connection points: 2
#     Edge 56, Type (0, 0), BuildingBlock: MIFKUJ_clean_linker_0, # of connection points: 2
#     Edge 57, Type (0, 0), BuildingBlock: MIFKUJ_clean_linker_0, # of connection points: 2
#     Edge 58, Type (0, 0), BuildingBlock: MIFKUJ_clean_linker_0, # of connection points: 2
#     Edge 59, Type (0, 0), BuildingBlock: MIFKUJ_clean_linker_0, # of connection points: 2
#     Edge 60, Type (0, 0), BuildingBlock: MIFKUJ_clean_linker_0, # of connection points: 2
#     Edge 61, Type (0, 0), BuildingBlock: MIFKUJ_clean_linker_0, # of connection points: 2
#     Edge 62, Type (0, 0), BuildingBlock: MIFKUJ_clean_linker_0, # of connection points: 2
#     Edge 63, Type (0, 0), BuildingBlock: MIFKUJ_clean_linker_0, # of connection points: 2
#     Edge 64, Type (0, 0), BuildingBlock: MIFKUJ_clean_linker_0, # of connection points: 2
#     Edge 65, Type (0, 0), BuildingBlock: MIFKUJ_clean_linker_0, # of connection points: 2
#     Edge 66, Type (0, 0), BuildingBlock: MIFKUJ_clean_linker_0, # of connection points: 2
#     Edge 67, Type (0, 0), BuildingBlock: MIFKUJ_clean_linker_0, # of connection points: 2
#     Edge 68, Type (0, 0), BuildingBlock: MIFKUJ_clean_linker_0, # of connection points: 2
#     Edge 69, Type (0, 0), BuildingBlock: MIFKUJ_clean_linker_0, # of connection points: 2
#     Edge 70, Type (0, 0), BuildingBlock: MIFKUJ_clean_linker_0, # of connection points: 2
#     Edge 71, Type (0, 0), BuildingBlock: MIFKUJ_clean_linker_0, # of connection points: 2
#     Edge 72, Type (0, 0), BuildingBlock: MIFKUJ_clean_linker_0, # of connection points: 2
#     Edge 73, Type (0, 0), BuildingBlock: MIFKUJ_clean_linker_0, # of connection points: 2
#     Edge 74, Type (0, 0), BuildingBlock: MIFKUJ_clean_linker_0, # of connection points: 2
#     Edge 75, Type (0, 0), BuildingBlock: MIFKUJ_clean_linker_0, # of connection points: 2
#     Edge 76, Type (0, 0), BuildingBlock: MIFKUJ_clean_linker_0, # of connection points: 2
#     Edge 77, Type (0, 0), BuildingBlock: MIFKUJ_clean_linker_0, # of connection points: 2
#     Edge 78, Type (0, 0), BuildingBlock: MIFKUJ_clean_linker_0, # of connection points: 2
#     Edge 79, Type (0, 0), BuildingBlock: MIFKUJ_clean_linker_0, # of connection points: 2
#     Edge 80, Type (0, 0), BuildingBlock: MIFKUJ_clean_linker_0, # of connection points: 2
#     Edge 81, Type (0, 0), BuildingBlock: MIFKUJ_clean_linker_0, # of connection points: 2
#     Edge 82, Type (0, 0), BuildingBlock: MIFKUJ_clean_linker_0, # of connection points: 2
#     Edge 83, Type (0, 0), BuildingBlock: MIFKUJ_clean_linker_0, # of connection points: 2
#     Edge 84, Type (0, 0), BuildingBlock: MIFKUJ_clean_linker_0, # of connection points: 2
#     Edge 85, Type (0, 0), BuildingBlock: MIFKUJ_clean_linker_0, # of connection points: 2
#     Edge 86, Type (0, 0), BuildingBlock: MIFKUJ_clean_linker_0, # of connection points: 2
#     Edge 87, Type (0, 0), BuildingBlock: MIFKUJ_clean_linker_0, # of connection points: 2
#     Edge 88, Type (0, 0), BuildingBlock: MIFKUJ_clean_linker_0, # of connection points: 2
#     Edge 89, Type (0, 0), BuildingBlock: MIFKUJ_clean_linker_0, # of connection points: 2
#     Edge 90, Type (0, 0), BuildingBlock: MIFKUJ_clean_linker_0, # of connection points: 2
#     Edge 91, Type (0, 0), BuildingBlock: MIFKUJ_clean_linker_0, # of connection points: 2
#     Edge 92, Type (0, 0), BuildingBlock: MIFKUJ_clean_linker_0, # of connection points: 2
#     Edge 93, Type (0, 0), BuildingBlock: MIFKUJ_clean_linker_0, # of connection points: 2
#     Edge 94, Type (0, 0), BuildingBlock: MIFKUJ_clean_linker_0, # of connection points: 2
#     Edge 95, Type (0, 0), BuildingBlock: MIFKUJ_clean_linker_0, # of connection points: 2
#     Edge 96, Type (0, 0), BuildingBlock: MIFKUJ_clean_linker_0, # of connection points: 2
#     Edge 97, Type (0, 0), BuildingBlock: MIFKUJ_clean_linker_0, # of connection points: 2
#     Edge 98, Type (0, 0), BuildingBlock: MIFKUJ_clean_linker_0, # of connection points: 2
#     Edge 99, Type (0, 0), BuildingBlock: MIFKUJ_clean_linker_0, # of connection points: 2
#     Edge 100, Type (0, 0), BuildingBlock: MIFKUJ_clean_linker_0, # of connection points: 2
#     Edge 101, Type (0, 0), BuildingBlock: MIFKUJ_clean_linker_0, # of connection points: 2
#     Edge 102, Type (0, 0), BuildingBlock: MIFKUJ_clean_linker_0, # of connection points: 2
#     Edge 103, Type (0, 0), BuildingBlock: MIFKUJ_clean_linker_0, # of connection points: 2
#     Edge 104, Type (0, 0), BuildingBlock: MIFKUJ_clean_linker_0, # of connection points: 2
#     Edge 105, Type (0, 0), BuildingBlock: MIFKUJ_clean_linker_0, # of connection points: 2
#     Edge 106, Type (0, 0), BuildingBlock: MIFKUJ_clean_linker_0, # of connection points: 2
#     Edge 107, Type (0, 0), BuildingBlock: MIFKUJ_clean_linker_0, # of connection points: 2
#     Edge 108, Type (0, 0), BuildingBlock: MIFKUJ_clean_linker_0, # of connection points: 2
#     Edge 109, Type (0, 0), BuildingBlock: MIFKUJ_clean_linker_0, # of connection points: 2
#     Edge 110, Type (0, 0), BuildingBlock: MIFKUJ_clean_linker_0, # of connection points: 2
#     Edge 111, Type (0, 0), BuildingBlock: MIFKUJ_clean_linker_0, # of connection points: 2
#     Edge 112, Type (0, 0), BuildingBlock: MIFKUJ_clean_linker_0, # of connection points: 2
#     Edge 113, Type (0, 0), BuildingBlock: MIFKUJ_clean_linker_0, # of connection points: 2
#     Edge 114, Type (0, 0), BuildingBlock: MIFKUJ_clean_linker_0, # of connection points: 2
#     Edge 115, Type (0, 0), BuildingBlock: MIFKUJ_clean_linker_0, # of connection points: 2
#     Edge 116, Type (0, 0), BuildingBlock: MIFKUJ_clean_linker_0, # of connection points: 2
#     Edge 117, Type (0, 0), BuildingBlock: MIFKUJ_clean_linker_0, # of connection points: 2
#     Edge 118, Type (0, 0), BuildingBlock: MIFKUJ_clean_linker_0, # of connection points: 2
#     Edge 119, Type (0, 0), BuildingBlock: MIFKUJ_clean_linker_0, # of connection points: 2
#     Edge 120, Type (0, 0), BuildingBlock: MIFKUJ_clean_linker_0, # of connection points: 2
#     Edge 121, Type (0, 0), BuildingBlock: MIFKUJ_clean_linker_0, # of connection points: 2
#     Edge 122, Type (0, 0), BuildingBlock: MIFKUJ_clean_linker_0, # of connection points: 2
#     Edge 123, Type (0, 0), BuildingBlock: MIFKUJ_clean_linker_0, # of connection points: 2
#     Edge 124, Type (0, 0), BuildingBlock: MIFKUJ_clean_linker_0, # of connection points: 2
#     Edge 125, Type (0, 0), BuildingBlock: MIFKUJ_clean_linker_0, # of connection points: 2
#     Edge 126, Type (0, 0), BuildingBlock: MIFKUJ_clean_linker_0, # of connection points: 2
#     Edge 127, Type (0, 0), BuildingBlock: MIFKUJ_clean_linker_0, # of connection points: 2
#     Edge 128, Type (0, 0), BuildingBlock: MIFKUJ_clean_linker_0, # of connection points: 2
#     Edge 129, Type (0, 0), BuildingBlock: MIFKUJ_clean_linker_0, # of connection points: 2
#     Edge 130, Type (0, 0), BuildingBlock: MIFKUJ_clean_linker_0, # of connection points: 2
#     Edge 131, Type (0, 0), BuildingBlock: MIFKUJ_clean_linker_0, # of connection points: 2
#     Edge 132, Type (0, 0), BuildingBlock: MIFKUJ_clean_linker_0, # of connection points: 2
#     Edge 133, Type (0, 0), BuildingBlock: MIFKUJ_clean_linker_0, # of connection points: 2
#     Edge 134, Type (0, 0), BuildingBlock: MIFKUJ_clean_linker_0, # of connection points: 2
#     Edge 135, Type (0, 0), BuildingBlock: MIFKUJ_clean_linker_0, # of connection points: 2
#     Edge 136, Type (0, 0), BuildingBlock: MIFKUJ_clean_linker_0, # of connection points: 2
#     Edge 137, Type (0, 0), BuildingBlock: MIFKUJ_clean_linker_0, # of connection points: 2
#     Edge 138, Type (0, 0), BuildingBlock: MIFKUJ_clean_linker_0, # of connection points: 2
#     Edge 139, Type (0, 0), BuildingBlock: MIFKUJ_clean_linker_0, # of connection points: 2
#     Edge 140, Type (0, 0), BuildingBlock: MIFKUJ_clean_linker_0, # of connection points: 2
#     Edge 141, Type (0, 0), BuildingBlock: MIFKUJ_clean_linker_0, # of connection points: 2
#     Edge 142, Type (0, 0), BuildingBlock: MIFKUJ_clean_linker_0, # of connection points: 2
#     Edge 143, Type (0, 0), BuildingBlock: MIFKUJ_clean_linker_0, # of connection points: 2
# Relax obj value: 0.099
# Max RMSD: 0.121
# Mean RMSD: 0.112
data_MOF--net-ana--node1-CEKHIL_clean_sbu_0--edge1-MIFKUJ_clean_linker_0
_symmetry_space_group_name_H-M    P1
_symmetry_Int_Tables_number       1
_symmetry_cell_setting            triclinic
loop_
_symmetry_equiv_pos_as_xyz
'x, y, z'
_cell_length_a     84.622013
_cell_length_b     83.073542
_cell_length_c     83.193595
_cell_angle_alpha  90.06024
_cell_angle_beta   90.058883
_cell_angle_gamma 90.318192
loop_
_atom_site_label
_atom_site_type_symbol
_atom_site_fract_x
_atom_site_fract_y
_atom_site_fract_z
_atom_type_partial_charge
Co0 Co 0.12323 0.16975 0.41693 0.0
O1 O 0.1458 0.17193 0.41548 0.0
O2 O 0.13217 0.15028 0.40813 0.0
C3 C 0.1176 0.19416 0.40664 0.0
O4 O 0.09999 0.16329 0.41573 0.0
Co5 Co 0.10348 0.19242 0.43855 0.0
O6 O 0.08502 0.18137 0.42879 0.0
C7 C 0.12353 0.16762 0.45329 0.0
C8 C 0.14581 0.15743 0.40963 0.0
C9 C 0.08649 0.16884 0.42008 0.0
O10 O 0.12546 0.16099 0.43944 0.0
O11 O 0.1164 0.18104 0.45517 0.0
O12 O 0.12059 0.18213 0.39712 0.0
O13 O 0.11931 0.19136 0.42179 0.0
Co14 Co 0.09338 0.86703 0.66028 0.0
O15 O 0.11023 0.86505 0.67571 0.0
O16 O 0.08671 0.87575 0.6806 0.0
C17 C 0.09511 0.84208 0.6502 0.0
O18 O 0.07285 0.87031 0.64821 0.0
Co19 Co 0.09898 0.865 0.62374 0.0
O20 O 0.07558 0.86363 0.62224 0.0
C21 C 0.10735 0.89482 0.64087 0.0
C22 C 0.10063 0.87179 0.68583 0.0
C23 C 0.06703 0.86757 0.6342 0.0
O24 O 0.1013 0.88887 0.65373 0.0
O25 O 0.10854 0.88686 0.62775 0.0
O26 O 0.0875 0.84467 0.66351 0.0
O27 O 0.10263 0.85428 0.6442 0.0
Co28 Co 0.36643 0.82713 0.90707 0.0
O29 O 0.34411 0.82309 0.90784 0.0
O30 O 0.35517 0.84579 0.89937 0.0
C31 C 0.37301 0.80339 0.89602 0.0
O32 O 0.38895 0.8353 0.90385 0.0
Co33 Co 0.3894 0.80583 0.92696 0.0
O34 O 0.40604 0.81836 0.91577 0.0
C35 C 0.36925 0.82938 0.94337 0.0
C36 C 0.34236 0.83749 0.90211 0.0
C37 C 0.40308 0.83071 0.90723 0.0
O38 O 0.36579 0.83577 0.92973 0.0
O39 O 0.37722 0.8164 0.94468 0.0
O40 O 0.36796 0.81503 0.88696 0.0
O41 O 0.37249 0.806 0.91129 0.0
Co42 Co 0.40767 0.12985 0.16055 0.0
O43 O 0.38992 0.13067 0.17493 0.0
O44 O 0.41333 0.12038 0.18088 0.0
C45 C 0.40606 0.1553 0.15174 0.0
O46 O 0.42892 0.12749 0.14942 0.0
Co47 Co 0.40365 0.13381 0.12378 0.0
O48 O 0.42703 0.13518 0.12361 0.0
C49 C 0.39469 0.10316 0.139 0.0
C50 C 0.39902 0.12375 0.18542 0.0
C51 C 0.43518 0.13079 0.13571 0.0
O52 O 0.40031 0.1083 0.15242 0.0
O53 O 0.39408 0.11176 0.12626 0.0
O54 O 0.41286 0.15213 0.16538 0.0
O55 O 0.39917 0.1433 0.14464 0.0
Co56 Co 0.12159 0.83807 0.08556 0.0
O57 O 0.09933 0.83395 0.0837 0.0
O58 O 0.11098 0.84503 0.1049 0.0
C59 C 0.12458 0.8489 0.06099 0.0
O60 O 0.14408 0.84487 0.09144 0.0
Co61 Co 0.14568 0.82139 0.06292 0.0
O62 O 0.15949 0.83933 0.07017 0.0
C63 C 0.13142 0.80309 0.0897 0.0
C64 C 0.09801 0.84023 0.09793 0.0
C65 C 0.15707 0.84639 0.08353 0.0
O66 O 0.12477 0.81596 0.09492 0.0
O67 O 0.13953 0.80257 0.07671 0.0
O68 O 0.11935 0.85764 0.07279 0.0
O69 O 0.12644 0.8338 0.06407 0.0
Co70 Co 0.4099 0.87905 0.34547 0.0
O71 O 0.42459 0.87589 0.36284 0.0
O72 O 0.42884 0.86921 0.33738 0.0
C73 C 0.40339 0.90456 0.35122 0.0
O74 O 0.39816 0.88089 0.32429 0.0
Co75 Co 0.37432 0.88529 0.35162 0.0
O76 O 0.37393 0.891 0.32842 0.0
C77 C 0.38698 0.85258 0.35562 0.0
C78 C 0.43402 0.86994 0.35207 0.0
C79 C 0.38506 0.88667 0.31908 0.0
O80 O 0.40021 0.85734 0.34967 0.0
O81 O 0.3755 0.86213 0.3586 0.0
O82 O 0.41636 0.90142 0.34353 0.0
O83 O 0.39571 0.89221 0.35668 0.0
Co84 Co 0.37962 0.15905 0.58089 0.0
O85 O 0.40221 0.16105 0.58031 0.0
O86 O 0.38842 0.15236 0.60126 0.0
C87 C 0.37679 0.14703 0.55686 0.0
O88 O 0.35635 0.15449 0.58549 0.0
Co89 Co 0.35891 0.17712 0.55586 0.0
O90 O 0.34168 0.16374 0.56488 0.0
C91 C 0.37346 0.19516 0.58254 0.0
C92 C 0.40213 0.15561 0.59493 0.0
C93 C 0.3431 0.15596 0.57798 0.0
O94 O 0.37799 0.18189 0.58898 0.0
O95 O 0.36662 0.1959 0.56883 0.0
O96 O 0.38074 0.13861 0.56938 0.0
O97 O 0.37636 0.16243 0.55893 0.0
Co98 Co 0.08713 0.12337 0.84892 0.0
O99 O 0.07211 0.12807 0.86558 0.0
O100 O 0.06757 0.13043 0.83943 0.0
C101 C 0.09546 0.09967 0.85844 0.0
O102 O 0.09924 0.11882 0.82825 0.0
Co103 Co 0.12304 0.12107 0.85641 0.0
O104 O 0.12445 0.11262 0.8342 0.0
C105 C 0.10791 0.15283 0.85514 0.0
C106 C 0.06232 0.13158 0.85407 0.0
C107 C 0.11307 0.11384 0.82424 0.0
O108 O 0.09515 0.14621 0.84987 0.0
O109 O 0.12006 0.14481 0.85948 0.0
O110 O 0.08228 0.10059 0.85047 0.0
O111 O 0.10211 0.11326 0.86203 0.0
Co112 Co 0.16623 0.40371 0.13118 0.0
O113 O 0.18274 0.38809 0.12917 0.0
O114 O 0.18485 0.41383 0.12235 0.0
C115 C 0.15853 0.39755 0.15621 0.0
O116 O 0.15203 0.42334 0.13214 0.0
Co117 Co 0.13132 0.39239 0.13475 0.0
O118 O 0.12724 0.41563 0.13841 0.0
C119 C 0.14734 0.38908 0.10375 0.0
C120 C 0.19136 0.39973 0.12345 0.0
C121 C 0.1376 0.42652 0.13578 0.0
O122 O 0.15856 0.39816 0.10896 0.0
O123 O 0.1361 0.3839 0.11267 0.0
O124 O 0.1709 0.40659 0.1539 0.0
O125 O 0.15253 0.391 0.14347 0.0
Co126 Co 0.6595 0.09739 0.87504 0.0
O127 O 0.67541 0.11399 0.87588 0.0
O128 O 0.67911 0.0884 0.88248 0.0
C129 C 0.65023 0.10299 0.85053 0.0
O130 O 0.64654 0.07678 0.87503 0.0
Co131 Co 0.62395 0.10527 0.87327 0.0
O132 O 0.62138 0.08198 0.86837 0.0
C133 C 0.64075 0.109 0.90405 0.0
C134 C 0.68496 0.10278 0.88069 0.0
C135 C 0.63255 0.07213 0.87113 0.0
O136 O 0.653 0.10251 0.89771 0.0
O137 O 0.62827 0.1123 0.89601 0.0
O138 O 0.6629 0.09445 0.85226 0.0
O139 O 0.64443 0.10933 0.86345 0.0
Co140 Co 0.84306 0.90692 0.38196 0.0
O141 O 0.86141 0.9206 0.38083 0.0
O142 O 0.83756 0.92695 0.37185 0.0
C143 C 0.84607 0.89936 0.40761 0.0
O144 O 0.82128 0.89657 0.38165 0.0
Co145 Co 0.84598 0.87027 0.38732 0.0
O146 O 0.82261 0.87067 0.38926 0.0
C147 C 0.8543 0.88396 0.35593 0.0
C148 C 0.85225 0.93109 0.37403 0.0
C149 C 0.81472 0.88308 0.38536 0.0
O150 O 0.84846 0.89743 0.36051 0.0
O151 O 0.85568 0.87182 0.3653 0.0
O152 O 0.83964 0.91309 0.40412 0.0
O153 O 0.85187 0.89138 0.39563 0.0
Co154 Co 0.84225 0.08511 0.11789 0.0
O155 O 0.85895 0.06976 0.12029 0.0
O156 O 0.83398 0.06569 0.12745 0.0
C157 C 0.84754 0.09258 0.09259 0.0
O158 O 0.82183 0.09778 0.11671 0.0
Co159 Co 0.85013 0.12132 0.11314 0.0
O160 O 0.82715 0.12299 0.10844 0.0
C161 C 0.85559 0.10611 0.14441 0.0
C162 C 0.84834 0.06027 0.12648 0.0
C163 C 0.81739 0.11176 0.1119 0.0
O164 O 0.84727 0.094 0.13976 0.0
O165 O 0.85956 0.11768 0.13506 0.0
O166 O 0.83967 0.0794 0.09537 0.0
O167 O 0.85347 0.09967 0.10508 0.0
Co168 Co 0.34328 0.59029 0.62366 0.0
O169 O 0.35982 0.57458 0.62363 0.0
O170 O 0.33555 0.5705 0.63295 0.0
C171 C 0.34645 0.59887 0.59837 0.0
O172 O 0.32307 0.60323 0.62512 0.0
Co173 Co 0.35107 0.62652 0.61992 0.0
O174 O 0.32787 0.62852 0.61684 0.0
C175 C 0.35866 0.61011 0.65013 0.0
C176 C 0.34965 0.56494 0.63033 0.0
C177 C 0.31835 0.61731 0.62094 0.0
O178 O 0.35051 0.59794 0.64533 0.0
O179 O 0.36152 0.62235 0.64124 0.0
O180 O 0.3384 0.58583 0.6013 0.0
O181 O 0.35368 0.60527 0.61053 0.0
Co182 Co 0.16222 0.59914 0.36802 0.0
O183 O 0.17831 0.6144 0.37414 0.0
O184 O 0.17994 0.58792 0.37716 0.0
C185 C 0.15752 0.60902 0.34344 0.0
O186 O 0.14865 0.57965 0.36261 0.0
Co187 Co 0.12774 0.60969 0.36148 0.0
O188 O 0.12452 0.5871 0.3542 0.0
C189 C 0.1395 0.60832 0.3947 0.0
C190 C 0.18656 0.60201 0.37855 0.0
C191 C 0.13492 0.57636 0.35679 0.0
O192 O 0.15202 0.60119 0.38971 0.0
O193 O 0.12903 0.61411 0.38525 0.0
O194 O 0.1695 0.59967 0.34599 0.0
O195 O 0.14978 0.6135 0.35609 0.0
Co196 Co 0.33863 0.39719 0.87182 0.0
O197 O 0.32248 0.38201 0.87798 0.0
O198 O 0.32064 0.40858 0.88001 0.0
C199 C 0.34425 0.38641 0.84786 0.0
O200 O 0.3521 0.41666 0.8661 0.0
Co201 Co 0.37349 0.38705 0.86694 0.0
O202 O 0.37671 0.40939 0.8591 0.0
C203 C 0.36044 0.38912 0.89962 0.0
C204 C 0.31408 0.39451 0.88177 0.0
C205 C 0.366 0.41998 0.86077 0.0
O206 O 0.3481 0.39602 0.89393 0.0
O207 O 0.37136 0.38332 0.89072 0.0
O208 O 0.33203 0.39564 0.84959 0.0
O209 O 0.35169 0.38263 0.86091 0.0
Co210 Co 0.87391 0.83565 0.59958 0.0
O211 O 0.8775 0.82005 0.61626 0.0
O212 O 0.88431 0.81717 0.59067 0.0
C213 C 0.84875 0.84135 0.60564 0.0
O214 O 0.8715 0.84826 0.57889 0.0
Co215 Co 0.86705 0.87143 0.60717 0.0
O216 O 0.86114 0.87253 0.5841 0.0
C217 C 0.8995 0.8594 0.6103 0.0
C218 C 0.88384 0.81122 0.60511 0.0
C219 C 0.86535 0.86159 0.57427 0.0
O220 O 0.89498 0.84596 0.60414 0.0
O221 O 0.88996 0.87087 0.61355 0.0
O222 O 0.85213 0.82849 0.59745 0.0
O223 O 0.86068 0.8493 0.61139 0.0
Co224 Co 0.90889 0.1236 0.33366 0.0
O225 O 0.89303 0.12023 0.31754 0.0
O226 O 0.91844 0.1145 0.3146 0.0
C227 C 0.9017 0.14872 0.34035 0.0
O228 O 0.92861 0.12597 0.34759 0.0
Co229 Co 0.89863 0.12846 0.36917 0.0
O230 O 0.92124 0.13397 0.37231 0.0
C231 C 0.89659 0.09629 0.35456 0.0
C232 C 0.90427 0.11478 0.3085 0.0
C233 C 0.93188 0.13088 0.36193 0.0
O234 O 0.9045 0.10148 0.34243 0.0
O235 O 0.89183 0.10548 0.36591 0.0
O236 O 0.91058 0.14625 0.32787 0.0
O237 O 0.8962 0.13595 0.34729 0.0
Co238 Co 0.62662 0.1552 0.10183 0.0
O239 O 0.62437 0.17079 0.11879 0.0
O240 O 0.61493 0.17337 0.09405 0.0
C241 C 0.65241 0.15045 0.1054 0.0
O242 O 0.62714 0.1426 0.08089 0.0
Co243 Co 0.6353 0.11971 0.10791 0.0
O244 O 0.64051 0.11967 0.08464 0.0
C245 C 0.6029 0.1305 0.11441 0.0
C246 C 0.61681 0.17946 0.10832 0.0
C247 C 0.63432 0.13014 0.07545 0.0
O248 O 0.60652 0.1444 0.10873 0.0
O249 O 0.61276 0.11894 0.11569 0.0
O250 O 0.64777 0.16302 0.09743 0.0
O251 O 0.64139 0.14197 0.11221 0.0
Co252 Co 0.58462 0.87567 0.84093 0.0
O253 O 0.60236 0.87516 0.82664 0.0
O254 O 0.57868 0.88453 0.82032 0.0
C255 C 0.58739 0.85036 0.84996 0.0
O256 O 0.56336 0.87734 0.85217 0.0
Co257 Co 0.58945 0.87234 0.87758 0.0
O258 O 0.56613 0.86998 0.878 0.0
C259 C 0.59735 0.90299 0.86182 0.0
C260 C 0.5931 0.88139 0.81592 0.0
C261 C 0.55754 0.87384 0.86603 0.0
O262 O 0.59119 0.89764 0.84872 0.0
O263 O 0.59892 0.89433 0.87444 0.0
O264 O 0.58015 0.85313 0.83648 0.0
O265 O 0.59388 0.86274 0.8568 0.0
Co266 Co 0.87549 0.15566 0.90718 0.0
O267 O 0.87293 0.13799 0.9219 0.0
O268 O 0.86592 0.16325 0.92668 0.0
C269 C 0.90052 0.15064 0.89999 0.0
O270 O 0.87672 0.17706 0.89563 0.0
Co271 Co 0.88093 0.15022 0.87081 0.0
O272 O 0.88574 0.1737 0.87049 0.0
C273 C 0.84952 0.14425 0.88465 0.0
C274 C 0.86694 0.14849 0.93172 0.0
C275 C 0.88177 0.1827 0.88221 0.0
O276 O 0.85414 0.15099 0.89774 0.0
O277 O 0.85879 0.14137 0.87284 0.0
O278 O 0.89748 0.1581 0.91336 0.0
O279 O 0.88841 0.14499 0.89228 0.0
Co280 Co 0.58194 0.11455 0.6585 0.0
O281 O 0.56632 0.11576 0.64175 0.0
O282 O 0.5626 0.12315 0.66708 0.0
C283 C 0.59033 0.08954 0.65312 0.0
O284 O 0.59462 0.11442 0.67926 0.0
Co285 Co 0.61769 0.11104 0.65103 0.0
O286 O 0.61986 0.10759 0.67446 0.0
C287 C 0.60246 0.14262 0.64731 0.0
C288 C 0.5569 0.1215 0.65265 0.0
C289 C 0.6086 0.11078 0.68408 0.0
O290 O 0.58952 0.13687 0.65304 0.0
O291 O 0.61481 0.13415 0.6448 0.0
O292 O 0.57754 0.09178 0.66144 0.0
O293 O 0.59671 0.10232 0.64701 0.0
Co294 Co 0.62037 0.85386 0.40929 0.0
O295 O 0.61987 0.87137 0.42449 0.0
O296 O 0.63068 0.84749 0.42887 0.0
C297 C 0.59503 0.85526 0.40154 0.0
O298 O 0.6224 0.8326 0.39746 0.0
Co299 Co 0.61505 0.8587 0.3729 0.0
O300 O 0.61311 0.83489 0.3723 0.0
C301 C 0.6459 0.86718 0.38691 0.0
C302 C 0.62721 0.86173 0.43423 0.0
C303 C 0.61813 0.8264 0.38396 0.0
O304 O 0.6411 0.86176 0.40053 0.0
O305 O 0.63709 0.86778 0.37441 0.0
O306 O 0.59885 0.84806 0.41484 0.0
O307 O 0.60637 0.86277 0.39419 0.0
Co308 Co 0.91611 0.87769 0.16103 0.0
O309 O 0.93077 0.87657 0.14338 0.0
O310 O 0.93603 0.8695 0.16852 0.0
C311 C 0.90704 0.90256 0.15612 0.0
O312 O 0.90466 0.87767 0.18249 0.0
Co313 Co 0.8799 0.8807 0.15581 0.0
O314 O 0.87919 0.88445 0.1793 0.0
C315 C 0.89544 0.84945 0.15059 0.0
C316 C 0.94087 0.8711 0.15379 0.0
C317 C 0.89101 0.88125 0.18821 0.0
O318 O 0.90852 0.85524 0.15603 0.0
O319 O 0.88296 0.85787 0.14865 0.0
O320 O 0.92038 0.90059 0.1636 0.0
O321 O 0.90048 0.88964 0.15049 0.0
Co322 Co 0.82997 0.59504 0.86539 0.0
O323 O 0.81315 0.61041 0.86409 0.0
O324 O 0.81099 0.58586 0.8744 0.0
C325 C 0.83899 0.59823 0.84027 0.0
O326 O 0.84409 0.57558 0.86794 0.0
Co327 Co 0.86519 0.605 0.862 0.0
O328 O 0.86835 0.58158 0.85875 0.0
C329 C 0.84895 0.60985 0.89295 0.0
C330 C 0.80433 0.59942 0.87071 0.0
C331 C 0.85803 0.57143 0.86351 0.0
O332 O 0.83633 0.60336 0.88719 0.0
O333 O 0.86149 0.61226 0.88468 0.0
O334 O 0.82675 0.58913 0.84302 0.0
O335 O 0.84433 0.60634 0.85241 0.0
Co336 Co 0.34135 0.91191 0.12172 0.0
O337 O 0.3585 0.9271 0.12073 0.0
O338 O 0.33465 0.93224 0.13052 0.0
C339 C 0.34392 0.90239 0.0966 0.0
O340 O 0.32057 0.89975 0.12383 0.0
Co341 Co 0.34764 0.87534 0.11919 0.0
O342 O 0.32428 0.87366 0.1178 0.0
C343 C 0.35507 0.89216 0.14929 0.0
C344 C 0.34881 0.93734 0.1271 0.0
C345 C 0.31528 0.88544 0.12118 0.0
O346 O 0.3483 0.90477 0.14368 0.0
O347 O 0.35729 0.87943 0.14092 0.0
O348 O 0.33653 0.9158 0.09923 0.0
O349 O 0.35089 0.89609 0.10893 0.0
Co350 Co 0.16833 0.08914 0.63595 0.0
O351 O 0.18431 0.10563 0.63544 0.0
O352 O 0.18753 0.08049 0.62705 0.0
C353 C 0.15983 0.09335 0.66107 0.0
O354 O 0.15496 0.06885 0.63515 0.0
Co355 Co 0.133 0.09799 0.63925 0.0
O356 O 0.12998 0.07445 0.64227 0.0
C357 C 0.1492 0.10343 0.60852 0.0
C358 C 0.19345 0.09483 0.62915 0.0
C359 C 0.14082 0.06444 0.63879 0.0
O360 O 0.16114 0.09561 0.61386 0.0
O361 O 0.13726 0.10703 0.61724 0.0
O362 O 0.17243 0.08486 0.65848 0.0
O363 O 0.15387 0.10054 0.6487 0.0
Co364 Co 0.15812 0.91626 0.87681 0.0
O365 O 0.14255 0.93276 0.87418 0.0
O366 O 0.1676 0.93472 0.86652 0.0
C367 C 0.15252 0.9104 0.90249 0.0
O368 O 0.17773 0.90229 0.8781 0.0
Co369 Co 0.14857 0.88092 0.88369 0.0
O370 O 0.17139 0.87802 0.88817 0.0
C371 C 0.14481 0.89393 0.85101 0.0
C372 C 0.15374 0.9413 0.86769 0.0
C373 C 0.1816 0.88841 0.88367 0.0
O374 O 0.15196 0.90692 0.85536 0.0
O375 O 0.14147 0.88245 0.86071 0.0
O376 O 0.16161 0.92256 0.89905 0.0
O377 O 0.14598 0.90314 0.89042 0.0
Co378 Co 0.66202 0.41862 0.37413 0.0
O379 O 0.64421 0.43262 0.37203 0.0
O380 O 0.66877 0.4388 0.36487 0.0
C381 C 0.6572 0.41074 0.39944 0.0
O382 O 0.68336 0.40754 0.37513 0.0
Co383 Co 0.6568 0.38196 0.37888 0.0
O384 O 0.67971 0.38222 0.38394 0.0
C385 C 0.65119 0.39638 0.34716 0.0
C386 C 0.65406 0.44311 0.36618 0.0
C387 C 0.68871 0.394 0.38024 0.0
O388 O 0.65756 0.40954 0.35217 0.0
O389 O 0.64857 0.38429 0.35633 0.0
O390 O 0.66429 0.42436 0.39667 0.0
O391 O 0.65182 0.40324 0.38693 0.0
Co392 Co 0.83051 0.40123 0.63168 0.0
O393 O 0.81721 0.38284 0.62735 0.0
O394 O 0.81138 0.4081 0.62122 0.0
C395 C 0.83649 0.39495 0.65723 0.0
O396 O 0.84064 0.42326 0.63455 0.0
Co397 Co 0.86618 0.39776 0.63961 0.0
O398 O 0.86492 0.42096 0.64522 0.0
C399 C 0.85503 0.39327 0.6063 0.0
C400 C 0.80726 0.393 0.62125 0.0
C401 C 0.85326 0.42945 0.64064 0.0
O402 O 0.84128 0.39838 0.61034 0.0
O403 O 0.86617 0.39084 0.61644 0.0
O404 O 0.82319 0.4019 0.65384 0.0
O405 O 0.84498 0.39069 0.64506 0.0
Co406 Co 0.6622 0.59308 0.13671 0.0
O407 O 0.67724 0.61043 0.13521 0.0
O408 O 0.68153 0.5853 0.12735 0.0
C409 C 0.65466 0.59774 0.16213 0.0
O410 O 0.65009 0.57195 0.13691 0.0
Co411 Co 0.62651 0.5996 0.14158 0.0
O412 O 0.62436 0.57584 0.14247 0.0
C413 C 0.64082 0.60502 0.10983 0.0
C414 C 0.68685 0.59991 0.12915 0.0
C415 C 0.63602 0.56669 0.13953 0.0
O416 O 0.65369 0.59856 0.11482 0.0
O417 O 0.62903 0.60778 0.11903 0.0
O418 O 0.66753 0.58983 0.15912 0.0
O419 O 0.64761 0.60393 0.14981 0.0
Co420 Co 0.62871 0.66825 0.91554 0.0
O421 O 0.65118 0.6669 0.91787 0.0
O422 O 0.63593 0.64775 0.90742 0.0
C423 C 0.6281 0.69316 0.90514 0.0
O424 O 0.60518 0.66573 0.91075 0.0
Co425 Co 0.60973 0.69385 0.93476 0.0
O426 O 0.59251 0.68766 0.91983 0.0
C427 C 0.62136 0.66479 0.95119 0.0
C428 C 0.65001 0.65272 0.91141 0.0
C429 C 0.59273 0.67452 0.91192 0.0
O430 O 0.62601 0.65894 0.9377 0.0
O431 O 0.61543 0.67886 0.95268 0.0
O432 O 0.63108 0.68089 0.89595 0.0
O433 O 0.62726 0.69015 0.92034 0.0
Co434 Co 0.59817 0.37058 0.15702 0.0
O435 O 0.61577 0.37087 0.17165 0.0
O436 O 0.59202 0.38077 0.17683 0.0
C437 C 0.6004 0.34483 0.1494 0.0
O438 O 0.57701 0.3719 0.14554 0.0
Co439 Co 0.60233 0.36484 0.12054 0.0
O440 O 0.57923 0.36058 0.12114 0.0
C441 C 0.60991 0.39669 0.13417 0.0
C442 C 0.60633 0.37792 0.18172 0.0
C443 C 0.5709 0.36618 0.13257 0.0
O444 O 0.60505 0.39184 0.14798 0.0
O445 O 0.61039 0.38765 0.12171 0.0
O446 O 0.59336 0.34849 0.16278 0.0
O447 O 0.60715 0.35662 0.14186 0.0
Co448 Co 0.86841 0.33125 0.41201 0.0
O449 O 0.84606 0.332 0.41546 0.0
O450 O 0.86031 0.35178 0.40487 0.0
C451 C 0.86864 0.30657 0.40097 0.0
O452 O 0.89154 0.33446 0.40596 0.0
Co453 Co 0.88912 0.30567 0.42905 0.0
O454 O 0.90494 0.31219 0.41271 0.0
C455 C 0.8776 0.33378 0.44728 0.0
C456 C 0.84653 0.34631 0.40924 0.0
C457 C 0.90401 0.32566 0.40547 0.0
O458 O 0.87214 0.34001 0.43427 0.0
O459 O 0.88389 0.31981 0.44786 0.0
O460 O 0.86526 0.31904 0.39222 0.0
O461 O 0.87043 0.30925 0.41615 0.0
Co462 Co 0.91016 0.623 0.65703 0.0
O463 O 0.89378 0.62542 0.67271 0.0
O464 O 0.91672 0.61335 0.67705 0.0
C465 C 0.90963 0.64833 0.64787 0.0
O466 O 0.93008 0.61897 0.64414 0.0
Co467 Co 0.903 0.62648 0.62085 0.0
O468 O 0.92638 0.6286 0.61921 0.0
C469 C 0.8934 0.59687 0.63749 0.0
C470 C 0.90306 0.61789 0.68256 0.0
C471 C 0.93533 0.62327 0.63029 0.0
O472 O 0.90082 0.60189 0.65001 0.0
O473 O 0.89181 0.60537 0.62477 0.0
O474 O 0.91744 0.64485 0.66086 0.0
O475 O 0.90118 0.63682 0.64175 0.0
Co476 Co 0.6179 0.33579 0.57886 0.0
O477 O 0.59532 0.3367 0.57899 0.0
O478 O 0.61064 0.34329 0.59963 0.0
C479 C 0.62134 0.34772 0.55494 0.0
O480 O 0.64168 0.33717 0.58254 0.0
Co481 Co 0.63485 0.31544 0.55269 0.0
O482 O 0.65408 0.32616 0.56126 0.0
C483 C 0.61847 0.29922 0.57931 0.0
C484 C 0.59647 0.34189 0.59365 0.0
C485 C 0.65427 0.33399 0.57445 0.0
O486 O 0.61702 0.31281 0.58656 0.0
O487 O 0.62392 0.29791 0.56502 0.0
O488 O 0.61907 0.3564 0.56772 0.0
O489 O 0.61976 0.33237 0.55679 0.0
Co490 Co 0.91201 0.38124 0.8463 0.0
O491 O 0.92821 0.38168 0.86238 0.0
O492 O 0.93117 0.3721 0.83765 0.0
C493 C 0.90382 0.40656 0.85009 0.0
O494 O 0.89822 0.37974 0.82635 0.0
Co495 Co 0.87691 0.38475 0.85613 0.0
O496 O 0.8736 0.38754 0.83267 0.0
C497 C 0.89285 0.35389 0.86128 0.0
C498 C 0.93736 0.37536 0.85161 0.0
C499 C 0.88403 0.38359 0.82237 0.0
O500 O 0.9049 0.35935 0.85361 0.0
O501 O 0.88085 0.36253 0.86479 0.0
O502 O 0.91617 0.40364 0.84132 0.0
O503 O 0.89784 0.39433 0.8576 0.0
Co504 Co 0.8759 0.65648 0.08236 0.0
O505 O 0.89841 0.65742 0.0798 0.0
O506 O 0.88605 0.64958 0.10197 0.0
C507 C 0.87033 0.64468 0.05877 0.0
O508 O 0.85297 0.65328 0.08903 0.0
Co509 Co 0.85436 0.67594 0.05901 0.0
O510 O 0.83698 0.66533 0.07103 0.0
C511 C 0.87389 0.69278 0.08282 0.0
C512 C 0.8993 0.65233 0.09452 0.0
C513 C 0.83917 0.65677 0.08354 0.0
O514 O 0.87601 0.67942 0.0903 0.0
O515 O 0.86711 0.69366 0.0691 0.0
O516 O 0.87505 0.63593 0.07079 0.0
O517 O 0.87088 0.66004 0.0609 0.0
Co518 Co 0.58694 0.62842 0.35236 0.0
O519 O 0.5714 0.63198 0.36884 0.0
O520 O 0.56849 0.63806 0.34304 0.0
C521 C 0.59324 0.60309 0.35893 0.0
O522 O 0.59963 0.62598 0.33182 0.0
Co523 Co 0.62221 0.62246 0.36047 0.0
O524 O 0.62348 0.61575 0.3376 0.0
C525 C 0.60944 0.65526 0.36279 0.0
C526 C 0.56255 0.63769 0.35743 0.0
C527 C 0.61286 0.61977 0.32753 0.0
O528 O 0.59639 0.65025 0.35659 0.0
O529 O 0.62089 0.64589 0.36632 0.0
O530 O 0.58057 0.60599 0.35061 0.0
O531 O 0.60061 0.61558 0.36453 0.0
Co532 Co 0.66393 0.89992 0.63145 0.0
O533 O 0.67839 0.8823 0.62915 0.0
O534 O 0.68369 0.90773 0.62293 0.0
C535 C 0.65556 0.8942 0.65639 0.0
O536 O 0.65249 0.92135 0.63278 0.0
Co537 Co 0.62791 0.89412 0.6352 0.0
O538 O 0.62801 0.91692 0.64229 0.0
C539 C 0.64248 0.891 0.60323 0.0
C540 C 0.68844 0.8929 0.62384 0.0
C541 C 0.63934 0.92639 0.63862 0.0
O542 O 0.65573 0.89586 0.6091 0.0
O543 O 0.63007 0.88874 0.61175 0.0
O544 O 0.66888 0.90172 0.65416 0.0
O545 O 0.64867 0.88882 0.64355 0.0
Co546 Co 0.37589 0.34324 0.09667 0.0
O547 O 0.37793 0.32761 0.11362 0.0
O548 O 0.38484 0.32378 0.08819 0.0
C549 C 0.35113 0.35105 0.10204 0.0
O550 O 0.37514 0.3558 0.07582 0.0
Co551 Co 0.37168 0.37959 0.10361 0.0
O552 O 0.3665 0.38092 0.08034 0.0
C553 C 0.40294 0.36485 0.10792 0.0
C554 C 0.38368 0.31811 0.10269 0.0
C555 C 0.37032 0.36956 0.07082 0.0
O556 O 0.39756 0.35181 0.10161 0.0
O557 O 0.39424 0.37706 0.11091 0.0
O558 O 0.35369 0.33785 0.09408 0.0
O559 O 0.3635 0.35812 0.10797 0.0
Co560 Co 0.41469 0.61728 0.83877 0.0
O561 O 0.39966 0.61539 0.82162 0.0
O562 O 0.42512 0.60912 0.81986 0.0
C563 C 0.40796 0.64214 0.84648 0.0
O564 O 0.4338 0.61822 0.85354 0.0
Co565 Co 0.40394 0.6203 0.87397 0.0
O566 O 0.42596 0.62792 0.87741 0.0
C567 C 0.40175 0.58885 0.85786 0.0
C568 C 0.41136 0.61023 0.813 0.0
C569 C 0.43679 0.62429 0.86744 0.0
O570 O 0.40919 0.59485 0.84581 0.0
O571 O 0.39769 0.59718 0.87013 0.0
O572 O 0.41754 0.63999 0.8345 0.0
O573 O 0.40156 0.62928 0.8525 0.0
Co574 Co 0.12823 0.65468 0.59243 0.0
O575 O 0.12705 0.67002 0.60966 0.0
O576 O 0.11792 0.67394 0.58497 0.0
C577 C 0.15365 0.6481 0.59634 0.0
O578 O 0.12802 0.64229 0.57139 0.0
Co579 Co 0.13424 0.61868 0.59882 0.0
O580 O 0.13707 0.61723 0.57517 0.0
C581 C 0.10268 0.63189 0.60496 0.0
C582 C 0.12024 0.6795 0.5994 0.0
C583 C 0.1325 0.62855 0.56597 0.0
O584 O 0.10726 0.64526 0.59873 0.0
O585 O 0.11198 0.62001 0.60726 0.0
O586 O 0.14993 0.66095 0.58834 0.0
O587 O 0.14199 0.64039 0.60293 0.0
Co588 Co 0.08651 0.37903 0.33882 0.0
O589 O 0.10386 0.38103 0.32413 0.0
O590 O 0.07895 0.38716 0.31855 0.0
C591 C 0.09225 0.35422 0.34757 0.0
O592 O 0.06543 0.3779 0.3505 0.0
Co593 Co 0.09231 0.37662 0.37527 0.0
O594 O 0.06963 0.3706 0.37612 0.0
C595 C 0.09641 0.40782 0.35935 0.0
C596 C 0.09355 0.38618 0.3138 0.0
C597 C 0.06037 0.37335 0.36436 0.0
O598 O 0.09066 0.40155 0.3465 0.0
O599 O 0.09894 0.39973 0.37218 0.0
O600 O 0.08465 0.3563 0.33418 0.0
O601 O 0.09752 0.36718 0.3545 0.0
Co602 Co 0.37591 0.65694 0.41046 0.0
O603 O 0.3768 0.64021 0.42631 0.0
O604 O 0.36579 0.66414 0.42992 0.0
C605 C 0.40116 0.65534 0.40256 0.0
O606 O 0.37347 0.67737 0.39737 0.0
Co607 Co 0.38078 0.64932 0.3744 0.0
O608 O 0.38307 0.67308 0.37256 0.0
C609 C 0.35073 0.64063 0.38978 0.0
C610 C 0.36946 0.65013 0.43575 0.0
C611 C 0.37794 0.68245 0.38349 0.0
O612 O 0.35518 0.64837 0.40237 0.0
O613 O 0.3597 0.63837 0.37761 0.0
O614 O 0.39747 0.66324 0.41549 0.0
O615 O 0.38979 0.64732 0.3958 0.0
Co616 Co 0.08074 0.61646 0.15517 0.0
O617 O 0.0648 0.61863 0.13885 0.0
O618 O 0.06239 0.62678 0.16413 0.0
C619 C 0.08677 0.59075 0.15002 0.0
O620 O 0.09398 0.61582 0.17547 0.0
Co621 Co 0.1157 0.60955 0.147 0.0
O622 O 0.11761 0.60483 0.17032 0.0
C623 C 0.10316 0.64239 0.14274 0.0
C624 C 0.05618 0.62529 0.1499 0.0
C625 C 0.10725 0.61 0.18013 0.0
O626 O 0.09001 0.63794 0.1491 0.0
O627 O 0.11451 0.63265 0.1399 0.0
O628 O 0.07464 0.59419 0.15891 0.0
O629 O 0.09401 0.60276 0.14339 0.0
Co630 Co 0.12189 0.34759 0.91124 0.0
O631 O 0.12389 0.36384 0.92758 0.0
O632 O 0.13057 0.3382 0.93046 0.0
C633 C 0.09729 0.35328 0.90326 0.0
O634 O 0.1209 0.32739 0.89762 0.0
Co635 Co 0.1183 0.3569 0.87538 0.0
O636 O 0.11453 0.33347 0.87208 0.0
C637 C 0.14879 0.36141 0.8915 0.0
C638 C 0.12947 0.35251 0.93669 0.0
C639 C 0.11714 0.32327 0.88321 0.0
O640 O 0.14369 0.35292 0.90331 0.0
O641 O 0.14002 0.36585 0.8798 0.0
O642 O 0.09966 0.34467 0.91606 0.0
O643 O 0.10973 0.35974 0.89687 0.0
Co644 Co 0.4174 0.38108 0.65836 0.0
O645 O 0.43297 0.37962 0.64161 0.0
O646 O 0.43667 0.37235 0.66697 0.0
C647 C 0.40928 0.4062 0.65291 0.0
O648 O 0.40483 0.38145 0.67912 0.0
Co649 Co 0.38163 0.38533 0.65107 0.0
O650 O 0.37993 0.38947 0.67448 0.0
C651 C 0.39675 0.35382 0.64576 0.0
C652 C 0.4424 0.37401 0.65258 0.0
C653 C 0.39111 0.38584 0.68406 0.0
O654 O 0.40937 0.35883 0.65288 0.0
O655 O 0.38497 0.36295 0.64274 0.0
O656 O 0.42211 0.4039 0.66118 0.0
O657 O 0.40275 0.39343 0.64696 0.0
Co658 Co 0.32544 0.0932 0.36672 0.0
O659 O 0.31045 0.11013 0.37021 0.0
O660 O 0.30575 0.08421 0.37445 0.0
C661 C 0.33376 0.10139 0.34242 0.0
O662 O 0.33761 0.07228 0.36382 0.0
Co663 Co 0.36137 0.10034 0.3632 0.0
O664 O 0.36189 0.07815 0.35454 0.0
C665 C 0.34691 0.0997 0.39546 0.0
C666 C 0.30059 0.09894 0.37458 0.0
C667 C 0.35093 0.06806 0.35768 0.0
O668 O 0.33346 0.09575 0.3894 0.0
O669 O 0.35929 0.1026 0.38711 0.0
O670 O 0.32075 0.09313 0.34381 0.0
O671 O 0.34037 0.10577 0.35574 0.0
H672 H 0.10516 0.34574 0.37661 0.0
H673 H 0.10944 0.31838 0.38676 0.0
H674 H 0.09032 0.29877 0.34273 0.0
H675 H 0.08565 0.32588 0.33279 0.0
H676 H 0.07829 0.28359 0.36697 0.0
H677 H 0.13052 0.29884 0.35105 0.0
H678 H 0.15457 0.31572 0.3502 0.0
H679 H 0.16111 0.30919 0.40096 0.0
H680 H 0.13697 0.29245 0.40215 0.0
H681 H 0.10844 0.20283 0.37627 0.0
H682 H 0.10312 0.23017 0.36646 0.0
H683 H 0.1126 0.24923 0.41374 0.0
H684 H 0.1176 0.22206 0.42368 0.0
H685 H 0.12974 0.26444 0.38791 0.0
H686 H 0.07639 0.25038 0.40335 0.0
H687 H 0.05139 0.23509 0.40386 0.0
H688 H 0.04752 0.23922 0.35254 0.0
H689 H 0.07252 0.25465 0.35177 0.0
C690 C 0.1019 0.33556 0.36913 0.0
C691 C 0.09506 0.33792 0.35393 0.0
C692 C 0.10443 0.31996 0.37488 0.0
C693 C 0.10035 0.30652 0.36542 0.0
C694 C 0.09355 0.30894 0.35025 0.0
C695 C 0.0909 0.32446 0.34458 0.0
C696 C 0.10265 0.28989 0.37142 0.0
C697 C 0.08962 0.27936 0.37131 0.0
C698 C 0.11734 0.28443 0.37738 0.0
C699 C 0.13184 0.29454 0.37672 0.0
C700 C 0.13701 0.30112 0.36206 0.0
C701 C 0.15067 0.31064 0.36151 0.0
C702 C 0.15933 0.31357 0.37552 0.0
C703 C 0.15437 0.30694 0.39012 0.0
C704 C 0.1407 0.29743 0.39073 0.0
C705 C 0.10924 0.21285 0.38457 0.0
C706 C 0.11347 0.21034 0.40071 0.0
C707 C 0.10617 0.22841 0.37898 0.0
C708 C 0.1075 0.24166 0.3894 0.0
C709 C 0.11154 0.23914 0.40554 0.0
C710 C 0.11435 0.22361 0.41118 0.0
C711 C 0.1054 0.25825 0.38338 0.0
C712 C 0.11846 0.26873 0.38348 0.0
C713 C 0.09082 0.26362 0.3772 0.0
C714 C 0.0764 0.25347 0.37749 0.0
C715 C 0.07032 0.24782 0.39216 0.0
C716 C 0.05609 0.23922 0.3925 0.0
C717 C 0.04787 0.23615 0.37823 0.0
C718 C 0.0539 0.24161 0.36358 0.0
C719 C 0.06808 0.25031 0.36319 0.0
H720 H 0.03678 0.22959 0.37852 0.0
H721 H 0.16992 0.32093 0.37507 0.0
H722 H 0.04988 0.86462 0.60631 0.0
H723 H 0.02115 0.8657 0.6033 0.0
H724 H 0.01629 0.87451 0.65415 0.0
H725 H 0.04489 0.87338 0.65734 0.0
H726 H 0.99664 0.85093 0.64398 0.0
H727 H 0.01042 0.90451 0.62831 0.0
H728 H 0.02482 0.92533 0.61302 0.0
H729 H 0.00543 0.90693 0.56892 0.0
H730 H 0.9911 0.88582 0.58393 0.0
H731 H 0.91478 0.88672 0.62082 0.0
H732 H 0.94307 0.89015 0.62606 0.0
H733 H 0.95113 0.84085 0.61216 0.0
H734 H 0.923 0.83721 0.60705 0.0
H735 H 0.96871 0.88717 0.60616 0.0
H736 H 0.97967 0.8253 0.63627 0.0
H737 H 0.96526 0.80541 0.65275 0.0
H738 H 0.93489 0.84262 0.67054 0.0
H739 H 0.9493 0.86278 0.6544 0.0
C740 C 0.04272 0.86687 0.61684 0.0
C741 C 0.04972 0.86888 0.63207 0.0
C742 C 0.02631 0.86756 0.61509 0.0
C743 C 0.01663 0.87027 0.6285 0.0
C744 C 0.02357 0.8724 0.64366 0.0
C745 C 0.03994 0.87178 0.64543 0.0
C746 C 0.99922 0.8702 0.62686 0.0
C747 C 0.99053 0.85887 0.63574 0.0
C748 C 0.99127 0.88076 0.61631 0.0
C749 C -0.00021 0.89349 0.60724 0.0
C750 C 0.00932 0.90482 0.61534 0.0
C751 C 0.01746 0.91669 0.60673 0.0
C752 C 0.01607 0.91743 0.59001 0.0
C753 C 0.00651 0.90633 0.58187 0.0
C754 C 0.99836 0.89442 0.59043 0.0
C755 C 0.92256 0.87658 0.61892 0.0
C756 C 0.91658 0.86167 0.61357 0.0
C757 C 0.93872 0.8786 0.62185 0.0
C758 C 0.94914 0.86572 0.61962 0.0
C759 C 0.94325 0.85088 0.61415 0.0
C760 C 0.92714 0.84886 0.61119 0.0
C761 C 0.9662 0.86766 0.62303 0.0
C762 C 0.97483 0.87929 0.61446 0.0
C763 C 0.9741 0.85752 0.63405 0.0
C764 C 0.96548 0.84552 0.644 0.0
C765 C 0.96996 0.82925 0.64376 0.0
C766 C 0.96179 0.81792 0.65303 0.0
C767 C 0.94912 0.82273 0.66264 0.0
C768 C 0.94466 0.83889 0.66305 0.0
C769 C 0.95282 0.85028 0.65383 0.0
H770 H 0.9428 0.81395 0.66979 0.0
H771 H 0.02237 0.92663 0.58336 0.0
H772 H 0.36518 0.79001 0.86712 0.0
H773 H 0.37076 0.76253 0.85811 0.0
H774 H 0.39829 0.75446 0.90105 0.0
H775 H 0.39208 0.78154 0.91041 0.0
H776 H 0.39484 0.74553 0.85061 0.0
H777 H 0.39424 0.71716 0.91456 0.0
H778 H 0.38168 0.72197 0.94087 0.0
H779 H 0.34337 0.74644 0.91766 0.0
H780 H 0.35559 0.74158 0.89121 0.0
H781 H 0.42703 0.66837 0.84487 0.0
H782 H 0.42095 0.69584 0.85314 0.0
H783 H 0.3748 0.68019 0.86906 0.0
H784 H 0.38127 0.65245 0.86161 0.0
H785 H 0.38481 0.70084 0.88888 0.0
H786 H 0.3814 0.70031 0.83184 0.0
H787 H 0.39007 0.6953 0.804 0.0
H788 H 0.4291 0.72792 0.81048 0.0
H789 H 0.42078 0.73297 0.83844 0.0
C790 C 0.37252 0.78237 0.87454 0.0
C791 C 0.37803 0.78776 0.88954 0.0
C792 C 0.37571 0.7667 0.86939 0.0
C793 C 0.38462 0.75629 0.87909 0.0
C794 C 0.39098 0.76209 0.89359 0.0
C795 C 0.38751 0.77759 0.89889 0.0
C796 C 0.38686 0.73922 0.87437 0.0
C797 C 0.39263 0.73575 0.85896 0.0
C798 C 0.3835 0.72641 0.88508 0.0
C799 C 0.37591 0.72912 0.90093 0.0
C800 C 0.3831 0.72349 0.91507 0.0
C801 C 0.37604 0.72624 0.93001 0.0
C802 C 0.36176 0.73454 0.93094 0.0
C803 C 0.35446 0.74005 0.91693 0.0
C804 C 0.36145 0.73731 0.90197 0.0
C805 C 0.41563 0.67081 0.85024 0.0
C806 C 0.40455 0.65839 0.85251 0.0
C807 C 0.41211 0.68652 0.85485 0.0
C808 C 0.39724 0.69021 0.86131 0.0
C809 C 0.38632 0.67768 0.86402 0.0
C810 C 0.39 0.66185 0.85977 0.0
C811 C 0.39312 0.70713 0.86521 0.0
C812 C 0.38698 0.71058 0.88048 0.0
C813 C 0.39552 0.71986 0.85412 0.0
C814 C 0.40053 0.71692 0.83728 0.0
C815 C 0.39189 0.70634 0.82736 0.0
C816 C 0.39673 0.7035 0.81155 0.0
C817 C 0.41014 0.71126 0.80549 0.0
C818 C 0.41872 0.72191 0.8152 0.0
C819 C 0.41393 0.72478 0.83102 0.0
H820 H 0.41388 0.70904 0.79325 0.0
H821 H 0.35633 0.73669 0.94251 0.0
H822 H 0.4524 0.13322 0.108 0.0
H823 H 0.48092 0.13067 0.10484 0.0
H824 H 0.48582 0.1226 0.15582 0.0
H825 H 0.45724 0.12479 0.15907 0.0
H826 H 0.5039 0.14825 0.11598 0.0
H827 H 0.5173 0.09826 0.16291 0.0
H828 H 0.50437 0.07412 0.17426 0.0
H829 H 0.47612 0.06916 0.13162 0.0
H830 H 0.48903 0.09311 0.11993 0.0
H831 H 0.58442 0.15146 0.13052 0.0
H832 H 0.55612 0.14912 0.13572 0.0
H833 H 0.55562 0.10207 0.11363 0.0
H834 H 0.58427 0.10403 0.10927 0.0
H835 H 0.53512 0.10246 0.13704 0.0
H836 H 0.54598 0.13683 0.09219 0.0
H837 H 0.55895 0.15946 0.07815 0.0
H838 H 0.53788 0.19287 0.11109 0.0
H839 H 0.52496 0.17041 0.12546 0.0
C840 C 0.45951 0.13085 0.11856 0.0
C841 C 0.4525 0.1292 0.1338 0.0
C842 C 0.47583 0.1294 0.11672 0.0
C843 C 0.48549 0.1263 0.13006 0.0
C844 C 0.47857 0.12471 0.1453 0.0
C845 C 0.46222 0.12605 0.14715 0.0
C846 C 0.50287 0.12534 0.12807 0.0
C847 C 0.5107 0.13821 0.12057 0.0
C848 C 0.51174 0.11211 0.13376 0.0
C849 C 0.50403 0.09758 0.14063 0.0
C850 C 0.50837 0.09198 0.15594 0.0
C851 C 0.50104 0.07834 0.16243 0.0
C852 C 0.4894 0.07015 0.15369 0.0
C853 C 0.4851 0.07555 0.13841 0.0
C854 C 0.4924 0.08917 0.13185 0.0
C855 C 0.5783 0.1405 0.12705 0.0
C856 C 0.5864 0.12798 0.11936 0.0
C857 C 0.56213 0.1392 0.12994 0.0
C858 C 0.55365 0.12564 0.12461 0.0
C859 C 0.5619 0.1127 0.11774 0.0
C860 C 0.57823 0.11382 0.11524 0.0
C861 C 0.53613 0.12551 0.12523 0.0
C862 C 0.52829 0.11246 0.13245 0.0
C863 C 0.52716 0.13836 0.11883 0.0
C864 C 0.5346 0.15193 0.10996 0.0
C865 C 0.54416 0.149 0.09647 0.0
C866 C 0.55151 0.16179 0.08846 0.0
C867 C 0.54927 0.17759 0.09375 0.0
C868 C 0.53962 0.18063 0.10701 0.0
C869 C 0.53226 0.16787 0.11508 0.0
H870 H 0.555 0.18747 0.08756 0.0
H871 H 0.48373 0.05959 0.15874 0.0
H872 H 0.12907 0.65683 0.12916 0.0
H873 H 0.13316 0.68538 0.12378 0.0
H874 H 0.08692 0.69584 0.14277 0.0
H875 H 0.08257 0.66722 0.14798 0.0
H876 H 0.09177 0.71183 0.11573 0.0
H877 H 0.1198 0.70484 0.16446 0.0
H878 H 0.13834 0.69229 0.18352 0.0
H879 H 0.17709 0.70302 0.15195 0.0
H880 H 0.15875 0.7154 0.13256 0.0
H881 H 0.10836 0.79599 0.11167 0.0
H882 H 0.10319 0.76994 0.12446 0.0
H883 H 0.14411 0.75003 0.10105 0.0
H884 H 0.14933 0.77591 0.08814 0.0
H885 H 0.14027 0.74039 0.13394 0.0
H886 H 0.11029 0.74443 0.08406 0.0
H887 H 0.09112 0.75743 0.06596 0.0
H888 H 0.05502 0.75287 0.10194 0.0
H889 H 0.07407 0.74005 0.12034 0.0
C890 C 0.11974 0.66516 0.1322 0.0
C891 C 0.1055 0.65969 0.13905 0.0
C892 C 0.12215 0.68151 0.12922 0.0
C893 C 0.11045 0.69276 0.13313 0.0
C894 C 0.09614 0.68736 0.13974 0.0
C895 C 0.09368 0.67098 0.14271 0.0
C896 C 0.11307 0.7101 0.12985 0.0
C897 C 0.10221 0.71815 0.11999 0.0
C898 C 0.12674 0.71834 0.13534 0.0
C899 C 0.13787 0.71094 0.14698 0.0
C900 C 0.13226 0.70441 0.16151 0.0
C901 C 0.14273 0.69734 0.17239 0.0
C902 C 0.15887 0.69683 0.16893 0.0
C903 C 0.16458 0.70341 0.1546 0.0
C904 C 0.15415 0.71047 0.14367 0.0
C905 C 0.11639 0.78613 0.10943 0.0
C906 C 0.12917 0.78796 0.09876 0.0
C907 C 0.1134 0.77128 0.11672 0.0
C908 C 0.12322 0.75809 0.11358 0.0
C909 C 0.13642 0.76009 0.10361 0.0
C910 C 0.13931 0.77486 0.09616 0.0
C911 C 0.11914 0.74187 0.11961 0.0
C912 C 0.12972 0.73407 0.12994 0.0
C913 C 0.10511 0.73391 0.11475 0.0
C914 C 0.09364 0.74147 0.10363 0.0
C915 C 0.0983 0.74632 0.08815 0.0
C916 C 0.08745 0.75364 0.07784 0.0
C917 C 0.07188 0.75602 0.08282 0.0
C918 C 0.0671 0.75105 0.09811 0.0
C919 C 0.07792 0.74375 0.10849 0.0
H920 H 0.0635 0.76169 0.07481 0.0
H921 H 0.16697 0.69136 0.17737 0.0
H922 H 0.4595 0.86854 0.33219 0.0
H923 H 0.48695 0.86364 0.33973 0.0
H924 H 0.47245 0.85505 0.38876 0.0
H925 H 0.44511 0.86088 0.38139 0.0
H926 H 0.49586 0.87379 0.38936 0.0
H927 H 0.48615 0.82427 0.36164 0.0
H928 H 0.47771 0.80672 0.33926 0.0
H929 H 0.51292 0.82803 0.30871 0.0
H930 H 0.52144 0.84586 0.33085 0.0
H931 H 0.56894 0.84359 0.41669 0.0
H932 H 0.54167 0.84379 0.40705 0.0
H933 H 0.55689 0.86569 0.36267 0.0
H934 H 0.58433 0.86565 0.3723 0.0
H935 H 0.53369 0.83953 0.35951 0.0
H936 H 0.54241 0.88942 0.38847 0.0
H937 H 0.5509 0.90549 0.41191 0.0
H938 H 0.5169 0.88099 0.44151 0.0
H939 H 0.50836 0.86461 0.41827 0.0
C940 C 0.46217 0.8654 0.34453 0.0
C941 C 0.45024 0.86513 0.35623 0.0
C942 C 0.47786 0.86249 0.34882 0.0
C943 C 0.48182 0.85879 0.3648 0.0
C944 C 0.46974 0.85794 0.37637 0.0
C945 C 0.45412 0.86123 0.37215 0.0
C946 C 0.4986 0.85701 0.36974 0.0
C947 C 0.504 0.86604 0.38295 0.0
C948 C 0.50942 0.84723 0.36121 0.0
C949 C 0.50434 0.83651 0.34787 0.0
C950 C 0.49202 0.8253 0.35011 0.0
C951 C 0.48723 0.81529 0.33748 0.0
C952 C 0.49475 0.81629 0.32256 0.0
C953 C 0.5071 0.82728 0.32027 0.0
C954 C 0.51192 0.83733 0.33286 0.0
C955 C 0.56652 0.84836 0.40483 0.0
C956 C 0.57873 0.85473 0.39529 0.0
C957 C 0.55095 0.84845 0.39936 0.0
C958 C 0.54732 0.85483 0.38421 0.0
C959 C 0.55952 0.86071 0.3744 0.0
C960 C 0.57513 0.86076 0.37994 0.0
C961 C 0.53066 0.85616 0.37909 0.0
C962 C 0.52539 0.84713 0.36587 0.0
C963 C 0.51985 0.86572 0.38774 0.0
C964 C 0.52485 0.8757 0.40167 0.0
C965 C 0.53682 0.88738 0.4 0.0
C966 C 0.54163 0.89655 0.41325 0.0
C967 C 0.53447 0.89423 0.4282 0.0
C968 C 0.52245 0.88276 0.42992 0.0
C969 C 0.51761 0.87354 0.41672 0.0
H970 H 0.53821 0.90134 0.43844 0.0
H971 H 0.49102 0.80853 0.31279 0.0
H972 H 0.35724 0.22317 0.57958 0.0
H973 H 0.3631 0.24896 0.59225 0.0
H974 H 0.4025 0.22778 0.61733 0.0
H975 H 0.39629 0.20162 0.60507 0.0
H976 H 0.38781 0.24863 0.63635 0.0
H977 H 0.40838 0.25028 0.58307 0.0
H978 H 0.40794 0.24701 0.5536 0.0
H979 H 0.37115 0.28222 0.54999 0.0
H980 H 0.37122 0.28554 0.57946 0.0
H981 H 0.41759 0.32928 0.65204 0.0
H982 H 0.41564 0.30122 0.64302 0.0
H983 H 0.37167 0.31175 0.61911 0.0
H984 H 0.37343 0.33961 0.62795 0.0
H985 H 0.39289 0.29557 0.59982 0.0
H986 H 0.37152 0.29198 0.6539 0.0
H987 H 0.37278 0.29516 0.68335 0.0
H988 H 0.41283 0.2637 0.68525 0.0
H989 H 0.41194 0.26051 0.65577 0.0
C990 C 0.36711 0.22396 0.58785 0.0
C991 C 0.37643 0.21043 0.59118 0.0
C992 C 0.37048 0.23873 0.59505 0.0
C993 C 0.38351 0.24041 0.6054 0.0
C994 C 0.39248 0.22678 0.60928 0.0
C995 C 0.38892 0.21186 0.60226 0.0
C996 C 0.38789 0.25654 0.61168 0.0
C997 C 0.3892 0.25885 0.62835 0.0
C998 C 0.3897 0.26989 0.60125 0.0
C999 C 0.38975 0.26808 0.58349 0.0
C1000 C 0.40014 0.25726 0.576 0.0
C1001 C 0.39996 0.25541 0.55929 0.0
C1002 C 0.38951 0.26439 0.54993 0.0
C1003 C 0.37924 0.27527 0.55726 0.0
C1004 C 0.37936 0.27716 0.57396 0.0
C1005 C 0.40748 0.32561 0.64489 0.0
C1006 C 0.39568 0.33674 0.64071 0.0
C1007 C 0.40638 0.30957 0.63981 0.0
C1008 C 0.39349 0.30445 0.63044 0.0
C1009 C 0.38172 0.31549 0.62631 0.0
C1010 C 0.38275 0.33143 0.63143 0.0
C1011 C 0.39228 0.28771 0.62446 0.0
C1012 C 0.39168 0.2853 0.6078 0.0
C1013 C 0.39131 0.27431 0.63489 0.0
C1014 C 0.39178 0.27616 0.65262 0.0
C1015 C 0.38068 0.28585 0.66058 0.0
C1016 C 0.38131 0.28764 0.67728 0.0
C1017 C 0.39291 0.27968 0.68616 0.0
C1018 C 0.40387 0.26988 0.67836 0.0
C1019 C 0.4033 0.26808 0.66166 0.0
H1020 H 0.39338 0.28108 0.69909 0.0
H1021 H 0.38938 0.26292 0.53701 0.0
H1022 H 0.03777 0.1339 0.83283 0.0
H1023 H 0.00989 0.13825 0.83913 0.0
H1024 H 0.02167 0.14333 0.88938 0.0
H1025 H 0.04945 0.13856 0.88321 0.0
H1026 H 0.99804 0.12336 0.88607 0.0
H1027 H 0.01058 0.17582 0.86554 0.0
H1028 H 0.02056 0.19559 0.84587 0.0
H1029 H 0.98616 0.17938 0.8114 0.0
H1030 H 0.97611 0.15935 0.8308 0.0
H1031 H 0.92768 0.15682 0.91631 0.0
H1032 H 0.95478 0.15416 0.90662 0.0
H1033 H 0.93741 0.13898 0.86024 0.0
H1034 H 0.91011 0.14142 0.86994 0.0
H1035 H 0.96293 0.16326 0.86002 0.0
H1036 H 0.95016 0.11117 0.88176 0.0
H1037 H 0.94012 0.09242 0.90236 0.0
H1038 H 0.97535 0.1093 0.93561 0.0
H1039 H 0.98546 0.12833 0.91528 0.0
C1040 C 0.03443 0.13614 0.84519 0.0
C1041 C 0.04576 0.13582 0.85754 0.0
C1042 C 0.0185 0.13868 0.84877 0.0
C1043 C 0.01369 0.14119 0.86473 0.0
C1044 C 0.0251 0.14135 0.87699 0.0
C1045 C 0.04097 0.13866 0.87345 0.0
C1046 C 0.99671 0.1427 0.86885 0.0
C1047 C 0.99045 0.13223 0.88049 0.0
C1048 C 0.98666 0.15396 0.86126 0.0
C1049 C 0.99271 0.16596 0.84956 0.0
C1050 C 0.00523 0.17637 0.85371 0.0
C1051 C 0.01088 0.18764 0.84262 0.0
C1052 C 0.00403 0.1887 0.82738 0.0
C1053 C 0.99148 0.17852 0.8232 0.0
C1054 C 0.98579 0.16721 0.83424 0.0
C1055 C 0.92961 0.15294 0.90404 0.0
C1056 C 0.91681 0.14924 0.8939 0.0
C1057 C 0.94508 0.15143 0.89853 0.0
C1058 C 0.94803 0.14632 0.88276 0.0
C1059 C 0.9353 0.14295 0.87246 0.0
C1060 C 0.91977 0.14426 0.87803 0.0
C1061 C 0.96449 0.14411 0.87733 0.0
C1062 C 0.97059 0.15438 0.86548 0.0
C1063 C 0.97447 0.13278 0.88481 0.0
C1064 C 0.96847 0.12128 0.89704 0.0
C1065 C 0.95568 0.11099 0.89351 0.0
C1066 C 0.94999 0.10029 0.90513 0.0
C1067 C 0.95707 0.0997 0.9203 0.0
C1068 C 0.96987 0.10978 0.92386 0.0
C1069 C 0.9756 0.12052 0.91229 0.0
H1070 H 0.95265 0.09141 0.92928 0.0
H1071 H 0.00842 0.19744 0.81881 0.0
H1072 H 0.37003 0.13017 0.19798 0.0
H1073 H 0.36108 0.12576 0.22551 0.0
H1074 H 0.40628 0.10528 0.23764 0.0
H1075 H 0.41532 0.10955 0.20998 0.0
H1076 H 0.38167 0.08812 0.25073 0.0
H1077 H 0.39914 0.14276 0.24855 0.0
H1078 H 0.40091 0.17028 0.2376 0.0
H1079 H 0.35122 0.17679 0.24555 0.0
H1080 H 0.34911 0.14921 0.25633 0.0
H1081 H 0.35979 0.11977 0.33606 0.0
H1082 H 0.37323 0.12308 0.31021 0.0
H1083 H 0.33893 0.09168 0.28776 0.0
H1084 H 0.32541 0.08836 0.31352 0.0
H1085 H 0.36202 0.13511 0.2816 0.0
H1086 H 0.35876 0.06848 0.26036 0.0
H1087 H 0.35874 0.04137 0.27245 0.0
H1088 H 0.38398 0.05956 0.31348 0.0
H1089 H 0.38433 0.08671 0.30156 0.0
C1090 C 0.37806 0.12466 0.20646 0.0
C1091 C 0.39342 0.12031 0.20186 0.0
C1092 C 0.37294 0.12218 0.2222 0.0
C1093 C 0.3831 0.11539 0.23364 0.0
C1094 C 0.39828 0.11058 0.22898 0.0
C1095 C 0.40344 0.11307 0.21321 0.0
C1096 C 0.3779 0.11375 0.25054 0.0
C1097 C 0.37741 0.09838 0.25751 0.0
C1098 C 0.37272 0.12722 0.25949 0.0
C1099 C 0.37395 0.14387 0.25313 0.0
C1100 C 0.38857 0.15002 0.24786 0.0
C1101 C 0.38964 0.16563 0.24169 0.0
C1102 C 0.37618 0.17527 0.24085 0.0
C1103 C 0.36164 0.16931 0.2462 0.0
C1104 C 0.3605 0.15369 0.25235 0.0
C1105 C 0.3551 0.11361 0.3256 0.0
C1106 C 0.34155 0.10382 0.32678 0.0
C1107 C 0.36277 0.11552 0.31087 0.0
C1108 C 0.35714 0.10751 0.29716 0.0
C1109 C 0.34355 0.09782 0.29827 0.0
C1110 C 0.3358 0.096 0.31296 0.0
C1111 C 0.3653 0.10942 0.28157 0.0
C1112 C 0.36636 0.12486 0.27486 0.0
C1113 C 0.37129 0.09606 0.27301 0.0
C1114 C 0.37143 0.07967 0.28011 0.0
C1115 C 0.36437 0.06668 0.27192 0.0
C1116 C 0.36428 0.0513 0.27876 0.0
C1117 C 0.37129 0.04875 0.29376 0.0
C1118 C 0.37847 0.06156 0.30191 0.0
C1119 C 0.3786 0.07694 0.29512 0.0
H1120 H 0.37119 0.03685 0.29905 0.0
H1121 H 0.37703 0.18735 0.23607 0.0
H1122 H 0.13879 0.13847 0.45548 0.0
H1123 H 0.1479 0.12503 0.48001 0.0
H1124 H 0.13093 0.1648 0.50843 0.0
H1125 H 0.12204 0.17832 0.48424 0.0
H1126 H 0.15939 0.15522 0.51877 0.0
H1127 H 0.10923 0.13019 0.50379 0.0
H1128 H 0.09149 0.11515 0.48556 0.0
H1129 H 0.1239 0.07556 0.485 0.0
H1130 H 0.14192 0.09047 0.50309 0.0
H1131 H 0.13346 0.12849 0.5948 0.0
H1132 H 0.1339 0.13671 0.56655 0.0
H1133 H 0.16504 0.09738 0.55534 0.0
H1134 H 0.16503 0.08929 0.58369 0.0
H1135 H 0.13517 0.10299 0.53437 0.0
H1136 H 0.18279 0.1269 0.55411 0.0
H1137 H 0.199 0.14212 0.57356 0.0
H1138 H 0.17085 0.18418 0.56554 0.0
H1139 H 0.15412 0.16907 0.54641 0.0
C1140 C 0.13706 0.14437 0.46695 0.0
C1141 C 0.12956 0.15943 0.46787 0.0
C1142 C 0.14227 0.13667 0.48095 0.0
C1143 C 0.14001 0.14389 0.49604 0.0
C1144 C 0.13286 0.15904 0.49691 0.0
C1145 C 0.12769 0.16672 0.48302 0.0
C1146 C 0.14435 0.13562 0.51117 0.0
C1147 C 0.15415 0.14377 0.52215 0.0
C1148 C 0.13784 0.12047 0.51542 0.0
C1149 C 0.127 0.11151 0.50461 0.0
C1150 C 0.11262 0.11833 0.49967 0.0
C1151 C 0.10251 0.10982 0.48939 0.0
C1152 C 0.10659 0.09443 0.48408 0.0
C1153 C 0.12077 0.0875 0.48909 0.0
C1154 C 0.13094 0.09596 0.49936 0.0
C1155 C 0.14038 0.12158 0.58633 0.0
C1156 C 0.14923 0.10828 0.59145 0.0
C1157 C 0.14065 0.1263 0.57024 0.0
C1158 C 0.14953 0.11763 0.55897 0.0
C1159 C 0.15814 0.10418 0.56392 0.0
C1160 C 0.15816 0.09964 0.5801 0.0
C1161 C 0.14973 0.12289 0.54204 0.0
C1162 C 0.14078 0.1142 0.53078 0.0
C1163 C 0.15695 0.13757 0.53755 0.0
C1164 C 0.1671 0.14679 0.54892 0.0
C1165 C 0.17994 0.13934 0.55661 0.0
C1166 C 0.18925 0.14796 0.56756 0.0
C1167 C 0.18598 0.16411 0.57077 0.0
C1168 C 0.17337 0.17167 0.56304 0.0
C1169 C 0.16395 0.16308 0.55215 0.0
H1170 H 0.19321 0.17076 0.57923 0.0
H1171 H 0.09874 0.08787 0.47612 0.0
H1172 H 0.14031 0.86603 0.83422 0.0
H1173 H 0.133 0.86316 0.80586 0.0
H1174 H 0.13132 0.91479 0.80107 0.0
H1175 H 0.13899 0.91782 0.82935 0.0
H1176 H 0.10346 0.8943 0.78856 0.0
H1177 H 0.16059 0.90122 0.78625 0.0
H1178 H 0.1878 0.89433 0.79422 0.0
H1179 H 0.18069 0.8459 0.7775 0.0
H1180 H 0.15334 0.85246 0.76967 0.0
H1181 H 0.09385 0.89781 0.70432 0.0
H1182 H 0.10186 0.90262 0.73218 0.0
H1183 H 0.12485 0.8563 0.73315 0.0
H1184 H 0.11798 0.8522 0.70488 0.0
H1185 H 0.14212 0.87486 0.74827 0.0
H1186 H 0.0863 0.86542 0.75118 0.0
H1187 H 0.05815 0.8694 0.74465 0.0
H1188 H 0.06099 0.91816 0.76163 0.0
H1189 H 0.08921 0.91454 0.76808 0.0
C1190 C 0.13837 0.87677 0.82714 0.0
C1191 C 0.14025 0.89215 0.83397 0.0
C1192 C 0.13423 0.87511 0.81097 0.0
C1193 C 0.13166 0.88878 0.80148 0.0
C1194 C 0.13327 0.90414 0.80828 0.0
C1195 C 0.13772 0.90583 0.82437 0.0
C1196 C 0.12743 0.88698 0.78437 0.0
C1197 C 0.1119 0.89026 0.77964 0.0
C1198 C 0.13837 0.88116 0.77301 0.0
C1199 C 0.15488 0.87729 0.77753 0.0
C1200 C 0.16478 0.88907 0.78441 0.0
C1201 C 0.18024 0.88523 0.78887 0.0
C1202 C 0.18596 0.86968 0.78641 0.0
C1203 C 0.17624 0.85794 0.77942 0.0
C1204 C 0.16077 0.86172 0.77496 0.0
C1205 C 0.10065 0.88872 0.71055 0.0
C1206 C 0.10528 0.87463 0.7026 0.0
C1207 C 0.10512 0.89139 0.7265 0.0
C1208 C 0.11365 0.87966 0.735 0.0
C1209 C 0.11829 0.86557 0.72693 0.0
C1210 C 0.11433 0.86319 0.71081 0.0
C1211 C 0.11794 0.88208 0.75219 0.0
C1212 C 0.13354 0.87892 0.75705 0.0
C1213 C 0.10689 0.88756 0.76377 0.0
C1214 C 0.0899 0.88975 0.75997 0.0
C1215 C 0.08094 0.87702 0.75343 0.0
C1216 C 0.06497 0.87921 0.74976 0.0
C1217 C 0.0578 0.89403 0.75269 0.0
C1218 C 0.06657 0.90669 0.75935 0.0
C1219 C 0.08254 0.90457 0.76303 0.0
H1220 H 0.04543 0.8957 0.74983 0.0
H1221 H 0.19793 0.86673 0.78988 0.0
H1222 H 0.36981 0.81732 0.97384 0.0
H1223 H 0.36246 0.83086 0.99867 0.0
H1224 H 0.34978 0.87331 0.9719 0.0
H1225 H 0.35717 0.85982 0.94681 0.0
H1226 H 0.36876 0.88006 0.99808 0.0
H1227 H 0.32135 0.85144 0.9874 0.0
H1228 H 0.30467 0.82812 0.98025 0.0
H1229 H 0.31983 0.80343 0.02282 0.0
H1230 H 0.3369 0.82648 0.03008 0.0
H1231 H 0.33556 0.91621 0.06823 0.0
H1232 H 0.33749 0.90456 0.04129 0.0
H1233 H 0.35536 0.86049 0.06154 0.0
H1234 H 0.35365 0.87214 0.08858 0.0
H1235 H 0.3312 0.85638 0.03741 0.0
H1236 H 0.3807 0.88442 0.04607 0.0
H1237 H 0.39731 0.90796 0.05282 0.0
H1238 H 0.37719 0.93427 0.01347 0.0
H1239 H 0.36028 0.91094 0.00662 0.0
C1240 C 0.36541 0.82951 0.97316 0.0
C1241 C 0.36414 0.8375 0.95832 0.0
C1242 C 0.36112 0.8372 0.98738 0.0
C1243 C 0.35546 0.85302 0.98709 0.0
C1244 C 0.35409 0.86106 0.97233 0.0
C1245 C 0.35828 0.85332 0.95803 0.0
C1246 C 0.35166 0.86125 0.00237 0.0
C1247 C 0.3603 0.87509 0.00655 0.0
C1248 C 0.34081 0.85457 0.01348 0.0
C1249 C 0.33052 0.84066 0.00922 0.0
C1250 C 0.32125 0.84099 0.99518 0.0
C1251 C 0.3117 0.82782 0.99111 0.0
C1252 C 0.31119 0.8143 0.00106 0.0
C1253 C 0.32024 0.81392 0.01511 0.0
C1254 C 0.32986 0.82703 0.01921 0.0
C1255 C 0.33984 0.90401 0.06696 0.0
C1256 C 0.34454 0.89508 0.08047 0.0
C1257 C 0.34095 0.8974 0.05157 0.0
C1258 C 0.34662 0.88172 0.04948 0.0
C1259 C 0.35094 0.87262 0.06297 0.0
C1260 C 0.35003 0.8793 0.07836 0.0
C1261 C 0.3485 0.87498 0.03316 0.0
C1262 C 0.33949 0.86144 0.02883 0.0
C1263 C 0.35893 0.88199 0.02186 0.0
C1264 C 0.36908 0.89601 0.02596 0.0
C1265 C 0.3797 0.89528 0.03895 0.0
C1266 C 0.38919 0.90857 0.04278 0.0
C1267 C 0.38827 0.92262 0.03361 0.0
C1268 C 0.37787 0.92339 0.02058 0.0
C1269 C 0.36834 0.91014 0.01672 0.0
H1270 H 0.39563 0.9329 0.03659 0.0
H1271 H 0.30377 0.80412 0.99789 0.0
H1272 H 0.40139 0.87112 0.29551 0.0
H1273 H 0.39709 0.87246 0.26658 0.0
H1274 H 0.35942 0.90652 0.27387 0.0
H1275 H 0.36324 0.90471 0.30295 0.0
H1276 H 0.35062 0.88545 0.25277 0.0
H1277 H 0.39713 0.91776 0.25962 0.0
H1278 H 0.42413 0.92414 0.2689 0.0
H1279 H 0.44244 0.88519 0.24065 0.0
H1280 H 0.4155 0.87845 0.23136 0.0
H1281 H 0.34607 0.91339 0.17256 0.0
H1282 H 0.35224 0.9125 0.20119 0.0
H1283 H 0.38073 0.8703 0.1937 0.0
H1284 H 0.37448 0.87092 0.16493 0.0
H1285 H 0.39448 0.89538 0.21442 0.0
H1286 H 0.34703 0.8636 0.20782 0.0
H1287 H 0.31984 0.85856 0.19831 0.0
H1288 H 0.30324 0.89862 0.22612 0.0
H1289 H 0.33039 0.90404 0.23561 0.0
C1290 C 0.39223 0.87896 0.29097 0.0
C1291 C 0.38269 0.88787 0.30152 0.0
C1292 C 0.38984 0.87978 0.2744 0.0
C1293 C 0.37811 0.8898 0.268 0.0
C1294 C 0.36857 0.89872 0.27852 0.0
C1295 C 0.37078 0.89771 0.29513 0.0
C1296 C 0.37551 0.89062 0.25038 0.0
C1297 C 0.3602 0.88787 0.24444 0.0
C1298 C 0.38805 0.89343 0.23942 0.0
C1299 C 0.40428 0.89751 0.24491 0.0
C1300 C 0.4069 0.91049 0.25547 0.0
C1301 C 0.4222 0.91418 0.26072 0.0
C1302 C 0.43499 0.90505 0.2554 0.0
C1303 C 0.43252 0.89224 0.24477 0.0
C1304 C 0.41724 0.88849 0.2395 0.0
C1305 C 0.35375 0.90396 0.17692 0.0
C1306 C 0.35972 0.89216 0.16644 0.0
C1307 C 0.35722 0.90348 0.1933 0.0
C1308 C 0.36683 0.89128 0.1995 0.0
C1309 C 0.37327 0.87979 0.18907 0.0
C1310 C 0.36964 0.88013 0.17268 0.0
C1311 C 0.36966 0.8903 0.21699 0.0
C1312 C 0.38498 0.893 0.22284 0.0
C1313 C 0.35712 0.88765 0.22789 0.0
C1314 C 0.34077 0.88433 0.22229 0.0
C1315 C 0.3376 0.87142 0.2118 0.0
C1316 C 0.32219 0.86848 0.20643 0.0
C1317 C 0.30983 0.87829 0.21157 0.0
C1318 C 0.31284 0.89104 0.22213 0.0
C1319 C 0.32823 0.89405 0.22752 0.0
H1320 H 0.2979 0.87599 0.2074 0.0
H1321 H 0.44682 0.90793 0.25948 0.0
H1322 H 0.35985 0.16029 0.53247 0.0
H1323 H 0.35324 0.14806 0.50655 0.0
H1324 H 0.37769 0.10479 0.52026 0.0
H1325 H 0.384 0.1168 0.5465 0.0
H1326 H 0.38618 0.12129 0.4887 0.0
H1327 H 0.34258 0.0997 0.51917 0.0
H1328 H 0.32003 0.1018 0.53778 0.0
H1329 H 0.29663 0.13377 0.50508 0.0
H1330 H 0.31917 0.13207 0.48638 0.0
H1331 H 0.36808 0.08486 0.41475 0.0
H1332 H 0.37157 0.08854 0.44373 0.0
H1333 H 0.33304 0.12246 0.44413 0.0
H1334 H 0.32875 0.11766 0.41538 0.0
H1335 H 0.33196 0.10757 0.47028 0.0
H1336 H 0.37481 0.13337 0.44208 0.0
H1337 H 0.39751 0.13508 0.42356 0.0
H1338 H 0.4223 0.09984 0.45148 0.0
H1339 H 0.39966 0.09779 0.47008 0.0
C1340 C 0.36372 0.14813 0.53003 0.0
C1341 C 0.37246 0.13948 0.54145 0.0
C1342 C 0.35988 0.14116 0.51527 0.0
C1343 C 0.36493 0.12555 0.51162 0.0
C1344 C 0.37365 0.11684 0.52297 0.0
C1345 C 0.37722 0.12369 0.5379 0.0
C1346 C 0.3618 0.11879 0.49553 0.0
C1347 C 0.3744 0.11794 0.48469 0.0
C1348 C 0.34633 0.11503 0.49033 0.0
C1349 C 0.33264 0.11586 0.50143 0.0
C1350 C 0.33269 0.10728 0.516 0.0
C1351 C 0.31989 0.10838 0.52656 0.0
C1352 C 0.30692 0.11794 0.52263 0.0
C1353 C 0.30669 0.12637 0.50811 0.0
C1354 C 0.31947 0.12533 0.49752 0.0
C1355 C 0.36026 0.09292 0.42115 0.0
C1356 C 0.34826 0.10111 0.41298 0.0
C1357 C 0.36232 0.09512 0.43766 0.0
C1358 C 0.3529 0.10617 0.44609 0.0
C1359 C 0.34051 0.11392 0.43794 0.0
C1360 C 0.33809 0.11125 0.42153 0.0
C1361 C 0.35635 0.11023 0.46316 0.0
C1362 C 0.34381 0.11066 0.47423 0.0
C1363 C 0.37186 0.11406 0.4685 0.0
C1364 C 0.38548 0.1153 0.45735 0.0
C1365 C 0.38507 0.12591 0.44421 0.0
C1366 C 0.39792 0.12696 0.43371 0.0
C1367 C 0.41131 0.11754 0.43631 0.0
C1368 C 0.4119 0.1071 0.44946 0.0
C1369 C 0.39907 0.106 0.45999 0.0
H1370 H 0.42125 0.11836 0.42817 0.0
H1371 H 0.29703 0.11879 0.53082 0.0
H1372 H 0.0923 0.10142 0.80219 0.0
H1373 H 0.09787 0.09401 0.77423 0.0
H1374 H 0.14608 0.11033 0.78012 0.0
H1375 H 0.1408 0.11678 0.80813 0.0
H1376 H 0.10498 0.10978 0.74956 0.0
H1377 H 0.17115 0.09368 0.7579 0.0
H1378 H 0.18837 0.07956 0.77718 0.0
H1379 H 0.14879 0.05167 0.79375 0.0
H1380 H 0.13127 0.06578 0.77468 0.0
H1381 H 0.14511 0.11846 0.67565 0.0
H1382 H 0.13446 0.11917 0.70298 0.0
H1383 H 0.14562 0.0688 0.70876 0.0
H1384 H 0.15737 0.06853 0.68195 0.0
H1385 H 0.15424 0.08207 0.73344 0.0
H1386 H 0.10581 0.0849 0.70488 0.0
H1387 H 0.08658 0.09469 0.68492 0.0
H1388 H 0.08663 0.14119 0.70752 0.0
H1389 H 0.10603 0.13175 0.72749 0.0
C1390 C 0.1041 0.10331 0.79748 0.0
C1391 C 0.11614 0.10961 0.80731 0.0
C1392 C 0.10728 0.09906 0.78152 0.0
C1393 C 0.12249 0.1013 0.77508 0.0
C1394 C 0.1344 0.10791 0.78488 0.0
C1395 C 0.13134 0.11176 0.80088 0.0
C1396 C 0.12584 0.09757 0.75793 0.0
C1397 C 0.11567 0.10357 0.74602 0.0
C1398 C 0.13954 0.0891 0.75322 0.0
C1399 C 0.1499 0.08088 0.76499 0.0
C1400 C 0.16612 0.08457 0.7657 0.0
C1401 C 0.17591 0.07661 0.77662 0.0
C1402 C 0.16963 0.06481 0.78677 0.0
C1403 C 0.15356 0.06095 0.78602 0.0
C1404 C 0.14369 0.06898 0.77522 0.0
C1405 C 0.14516 0.10757 0.68279 0.0
C1406 C 0.15214 0.0935 0.67687 0.0
C1407 C 0.13894 0.1079 0.69835 0.0
C1408 C 0.13902 0.09398 0.70798 0.0
C1409 C 0.1455 0.07975 0.7017 0.0
C1410 C 0.15218 0.07957 0.68638 0.0
C1411 C 0.13352 0.09451 0.72496 0.0
C1412 C 0.14336 0.088 0.73688 0.0
C1413 C 0.11917 0.10189 0.7296 0.0
C1414 C 0.10747 0.10763 0.71762 0.0
C1415 C 0.1018 0.09724 0.70554 0.0
C1416 C 0.09086 0.10273 0.69422 0.0
C1417 C 0.08541 0.11856 0.69493 0.0
C1418 C 0.09087 0.12893 0.70698 0.0
C1419 C 0.10182 0.12351 0.71831 0.0
H1420 H 0.07694 0.12279 0.68617 0.0
H1421 H 0.17724 0.05861 0.79517 0.0
H1422 H 0.14333 0.83551 0.03812 0.0
H1423 H 0.15043 0.84668 0.01202 0.0
H1424 H 0.12209 0.88861 0.02192 0.0
H1425 H 0.11568 0.87781 0.04849 0.0
H1426 H 0.1345 0.85225 0.98742 0.0
H1427 H 0.13513 0.92109 0.00183 0.0
H1428 H 0.14227 0.93906 0.02436 0.0
H1429 H 0.17348 0.90311 0.04318 0.0
H1430 H 0.16673 0.88503 0.02066 0.0
H1431 H 0.1277 0.89355 0.91466 0.0
H1432 H 0.12431 0.88393 0.94218 0.0
H1433 H 0.16988 0.9039 0.95493 0.0
H1434 H 0.17279 0.91442 0.92762 0.0
H1435 H 0.15173 0.90867 0.97833 0.0
H1436 H 0.16342 0.86226 0.94739 0.0
H1437 H 0.16095 0.84283 0.92508 0.0
H1438 H 0.11369 0.83117 0.93998 0.0
H1439 H 0.11579 0.85071 0.96224 0.0
C1440 C 0.13874 0.84719 0.0348 0.0
C1441 C 0.12899 0.85584 0.04533 0.0
C1442 C 0.14277 0.85354 0.01985 0.0
C1443 C 0.13692 0.86855 0.015 0.0
C1444 C 0.12707 0.87717 0.0255 0.0
C1445 C 0.12332 0.87096 0.04064 0.0
C1446 C 0.14061 0.87482 0.99871 0.0
C1447 C 0.13832 0.86458 0.98546 0.0
C1448 C 0.14603 0.89076 0.99612 0.0
C1449 C 0.15028 0.90165 0.00963 0.0
C1450 C 0.14357 0.91705 0.01074 0.0
C1451 C 0.14754 0.92725 0.02352 0.0
C1452 C 0.15828 0.92221 0.03522 0.0
C1453 C 0.16512 0.90698 0.03414 0.0
C1454 C 0.16121 0.89675 0.02138 0.0
C1455 C 0.13695 0.8959 0.92337 0.0
C1456 C 0.15052 0.90464 0.91907 0.0
C1457 C 0.13507 0.89033 0.93907 0.0
C1458 C 0.147 0.89287 0.95059 0.0
C1459 C 0.16051 0.90177 0.94629 0.0
C1460 C 0.16219 0.90773 0.93069 0.0
C1461 C 0.14538 0.88616 0.96706 0.0
C1462 C 0.148 0.89632 0.98031 0.0
C1463 C 0.14102 0.8699 0.96972 0.0
C1464 C 0.13972 0.85805 0.95641 0.0
C1465 C 0.15246 0.85562 0.94585 0.0
C1466 C 0.15113 0.84459 0.93321 0.0
C1467 C 0.13716 0.8358 0.93109 0.0
C1468 C 0.1245 0.838 0.94163 0.0
C1469 C 0.12576 0.84904 0.95426 0.0
H1470 H 0.13615 0.82726 0.92131 0.0
H1471 H 0.16133 0.93013 0.04511 0.0
H1472 H 0.34308 0.38193 0.1098 0.0
H1473 H 0.31649 0.39331 0.11092 0.0
H1474 H 0.29667 0.34693 0.09849 0.0
H1475 H 0.3232 0.33576 0.09662 0.0
H1476 H 0.28171 0.36866 0.08283 0.0
H1477 H 0.29749 0.36267 0.13826 0.0
H1478 H 0.31456 0.36682 0.16198 0.0
H1479 H 0.30813 0.41793 0.15842 0.0
H1480 H 0.29116 0.41409 0.13456 0.0
H1481 H 0.20525 0.37101 0.11715 0.0
H1482 H 0.23296 0.36607 0.11068 0.0
H1483 H 0.24264 0.41705 0.11285 0.0
H1484 H 0.21475 0.42215 0.1191 0.0
H1485 H 0.2632 0.39703 0.13176 0.0
H1486 H 0.24378 0.40135 0.07791 0.0
H1487 H 0.22575 0.39563 0.05529 0.0
H1488 H 0.23793 0.34558 0.05725 0.0
H1489 H 0.2559 0.35095 0.08003 0.0
C1490 C 0.33303 0.37419 0.10732 0.0
C1491 C 0.33517 0.35796 0.1032 0.0
C1492 C 0.31784 0.38069 0.10801 0.0
C1493 C 0.30453 0.37094 0.105 0.0
C1494 C 0.30672 0.35472 0.10081 0.0
C1495 C 0.32189 0.34832 0.09983 0.0
C1496 C 0.28826 0.37742 0.10634 0.0
C1497 C 0.27766 0.37477 0.09359 0.0
C1498 C 0.28303 0.38578 0.12019 0.0
C1499 C 0.29323 0.3881 0.13452 0.0
C1500 C 0.29982 0.3748 0.14247 0.0
C1501 C 0.30945 0.37709 0.15595 0.0
C1502 C 0.31247 0.39263 0.16167 0.0
C1503 C 0.30581 0.40591 0.15396 0.0
C1504 C 0.29618 0.40368 0.14046 0.0
C1505 C 0.21324 0.38119 0.11612 0.0
C1506 C 0.20789 0.39696 0.11867 0.0
C1507 C 0.22903 0.37835 0.11235 0.0
C1508 C 0.23977 0.39121 0.11123 0.0
C1509 C 0.23446 0.407 0.11362 0.0
C1510 C 0.21857 0.40988 0.11715 0.0
C1511 C 0.25668 0.3879 0.10845 0.0
C1512 C 0.26737 0.39115 0.12093 0.0
C1513 C 0.2619 0.37985 0.09449 0.0
C1514 C 0.25113 0.37655 0.08075 0.0
C1515 C 0.24253 0.3891 0.07361 0.0
C1516 C 0.23234 0.38593 0.06073 0.0
C1517 C 0.23071 0.37026 0.05483 0.0
C1518 C 0.23924 0.35772 0.06181 0.0
C1519 C 0.24945 0.36083 0.07469 0.0
H1520 H 0.22284 0.36783 0.04484 0.0
H1521 H 0.31993 0.39439 0.17211 0.0
H1522 H 0.70931 0.08209 0.8762 0.0
H1523 H 0.73752 0.08841 0.87674 0.0
H1524 H 0.72698 0.13713 0.89125 0.0
H1525 H 0.69872 0.13106 0.88959 0.0
H1526 H 0.74757 0.13883 0.86995 0.0
H1527 H 0.74361 0.10651 0.91732 0.0
H1528 H 0.73662 0.08278 0.93367 0.0
H1529 H 0.76662 0.0532 0.90451 0.0
H1530 H 0.77365 0.07672 0.88785 0.0
H1531 H 0.82473 0.15788 0.90024 0.0
H1532 H 0.79689 0.14996 0.89892 0.0
H1533 H 0.80834 0.11226 0.86532 0.0
H1534 H 0.8363 0.12035 0.86625 0.0
H1535 H 0.78817 0.10438 0.89549 0.0
H1536 H 0.79209 0.13927 0.84885 0.0
H1537 H 0.79941 0.16454 0.83515 0.0
H1538 H 0.76936 0.19114 0.86701 0.0
H1539 H 0.76204 0.16604 0.88106 0.0
C1540 C 0.71306 0.09408 0.87969 0.0
C1541 C 0.70191 0.1061 0.88289 0.0
C1542 C 0.7292 0.09768 0.88008 0.0
C1543 C 0.73448 0.11321 0.88425 0.0
C1544 C 0.72326 0.12508 0.88792 0.0
C1545 C 0.70712 0.1216 0.88707 0.0
C1546 C 0.75159 0.11736 0.88397 0.0
C1547 C 0.75636 0.13135 0.87575 0.0
C1548 C 0.76322 0.10752 0.89124 0.0
C1549 C 0.75903 0.09335 0.90124 0.0
C1550 C 0.74863 0.09492 0.91432 0.0
C1551 C 0.74468 0.08151 0.92366 0.0
C1552 C 0.75114 0.06648 0.92011 0.0
C1553 C 0.76161 0.06484 0.90724 0.0
C1554 C 0.76559 0.07821 0.89785 0.0
C1555 C 0.82133 0.14793 0.89252 0.0
C1556 C 0.83267 0.13973 0.88333 0.0
C1557 C 0.80545 0.14346 0.89178 0.0
C1558 C 0.80067 0.13055 0.88205 0.0
C1559 C 0.8119 0.12226 0.87289 0.0
C1560 C 0.8278 0.12694 0.87337 0.0
C1561 C 0.78387 0.12575 0.88163 0.0
C1562 C 0.77924 0.11171 0.8897 0.0
C1563 C 0.77233 0.13573 0.87461 0.0
C1564 C 0.77664 0.1508 0.8661 0.0
C1565 C 0.78716 0.15053 0.85303 0.0
C1566 C 0.79128 0.16481 0.84518 0.0
C1567 C 0.78489 0.17944 0.85023 0.0
C1568 C 0.77432 0.1798 0.86312 0.0
C1569 C 0.77017 0.16555 0.87101 0.0
H1570 H 0.7881 0.19049 0.84414 0.0
H1571 H 0.74807 0.05611 0.92735 0.0
H1572 H 0.10774 0.43856 0.13377 0.0
H1573 H 0.09966 0.46664 0.1356 0.0
H1574 H 0.14823 0.48098 0.14306 0.0
H1575 H 0.15646 0.45294 0.14057 0.0
H1576 H 0.10032 0.48729 0.15805 0.0
H1577 H 0.15494 0.51833 0.12884 0.0
H1578 H 0.17486 0.51265 0.10797 0.0
H1579 H 0.14285 0.47955 0.08502 0.0
H1580 H 0.12268 0.4852 0.10561 0.0
H1581 H 0.09318 0.57005 0.17425 0.0
H1582 H 0.10319 0.54255 0.17192 0.0
H1583 H 0.10255 0.54678 0.12014 0.0
H1584 H 0.09393 0.57477 0.12265 0.0
H1585 H 0.12611 0.53089 0.12678 0.0
H1586 H 0.07232 0.52608 0.14444 0.0
H1587 H 0.04941 0.5311 0.16203 0.0
H1588 H 0.0742 0.51035 0.20195 0.0
H1589 H 0.09732 0.50537 0.18463 0.0
C1590 C 0.11671 0.4477 0.13574 0.0
C1591 C 0.13275 0.44354 0.13694 0.0
C1592 C 0.11207 0.46375 0.13682 0.0
C1593 C 0.12333 0.47598 0.13931 0.0
C1594 C 0.13935 0.47182 0.14078 0.0
C1595 C 0.14403 0.45578 0.13942 0.0
C1596 C 0.11824 0.49301 0.14056 0.0
C1597 C 0.10594 0.49682 0.15118 0.0
C1598 C 0.12535 0.50543 0.13139 0.0
C1599 C 0.13738 0.50206 0.11888 0.0
C1600 C 0.15214 0.50988 0.11931 0.0
C1601 C 0.16348 0.50666 0.10753 0.0
C1602 C 0.16014 0.4957 0.09522 0.0
C1603 C 0.14544 0.48799 0.09461 0.0
C1604 C 0.13406 0.49118 0.10634 0.0
C1605 C 0.09526 0.56502 0.16242 0.0
C1606 C 0.09269 0.57428 0.14861 0.0
C1607 C 0.10086 0.5493 0.16106 0.0
C1608 C 0.10323 0.54233 0.14583 0.0
C1609 C 0.10082 0.55179 0.13203 0.0
C1610 C 0.09582 0.56772 0.13343 0.0
C1611 C 0.10808 0.52521 0.14422 0.0
C1612 C 0.12042 0.52138 0.13361 0.0
C1613 C 0.10053 0.51265 0.15288 0.0
C1614 C 0.08659 0.51548 0.16327 0.0
C1615 C 0.0729 0.52266 0.15699 0.0
C1616 C 0.05988 0.52549 0.1669 0.0
C1617 C 0.06036 0.52108 0.1831 0.0
C1618 C 0.07385 0.51377 0.1894 0.0
C1619 C 0.08691 0.51093 0.17954 0.0
H1620 H 0.05027 0.52329 0.19076 0.0
H1621 H 0.16894 0.49322 0.08612 0.0
H1622 H 0.66416 0.86811 0.35979 0.0
H1623 H 0.69282 0.8719 0.35841 0.0
H1624 H 0.69417 0.88101 0.40948 0.0
H1625 H 0.66567 0.87668 0.41103 0.0
H1626 H 0.71386 0.8944 0.36454 0.0
H1627 H 0.72577 0.86389 0.42608 0.0
H1628 H 0.7133 0.84371 0.44382 0.0
H1629 H 0.69014 0.8221 0.40316 0.0
H1630 H 0.70263 0.842 0.38517 0.0
H1631 H 0.79351 0.9077 0.3867 0.0
H1632 H 0.76472 0.90582 0.38593 0.0
H1633 H 0.76773 0.85414 0.38159 0.0
H1634 H 0.79652 0.8559 0.38301 0.0
H1635 H 0.7458 0.86075 0.40144 0.0
H1636 H 0.75872 0.8794 0.34887 0.0
H1637 H 0.77121 0.89699 0.32863 0.0
H1638 H 0.7451 0.93738 0.34655 0.0
H1639 H 0.73261 0.92007 0.36705 0.0
C1640 C 0.67054 0.87114 0.37068 0.0
C1641 C 0.66271 0.87187 0.38555 0.0
C1642 C 0.68692 0.87331 0.36987 0.0
C1643 C 0.69568 0.87638 0.3839 0.0
C1644 C 0.68771 0.87824 0.39857 0.0
C1645 C 0.67141 0.87582 0.39942 0.0
C1646 C 0.7132 0.87669 0.38341 0.0
C1647 C 0.72086 0.88707 0.37261 0.0
C1648 C 0.72235 0.86677 0.39362 0.0
C1649 C 0.71502 0.85454 0.40431 0.0
C1650 C 0.71808 0.85478 0.42092 0.0
C1651 C 0.71099 0.8434 0.43102 0.0
C1652 C 0.7009 0.83166 0.42463 0.0
C1653 C 0.69792 0.83123 0.40811 0.0
C1654 C 0.70499 0.84256 0.39796 0.0
C1655 C 0.78804 0.89593 0.38555 0.0
C1656 C 0.79729 0.88194 0.38487 0.0
C1657 C 0.77157 0.89488 0.38503 0.0
C1658 C 0.76404 0.87986 0.38343 0.0
C1659 C 0.77326 0.86587 0.38282 0.0
C1660 C 0.78972 0.86689 0.38362 0.0
C1661 C 0.74654 0.87868 0.38274 0.0
C1662 C 0.73885 0.86811 0.39335 0.0
C1663 C 0.73742 0.88802 0.37196 0.0
C1664 C 0.74483 0.89846 0.35958 0.0
C1665 C 0.75572 0.89206 0.34857 0.0
C1666 C 0.76279 0.90197 0.33704 0.0
C1667 C 0.75898 0.9183 0.33633 0.0
C1668 C 0.74805 0.92474 0.34712 0.0
C1669 C 0.74096 0.91487 0.35869 0.0
H1670 H 0.76447 0.92596 0.3274 0.0
H1671 H 0.6954 0.82288 0.43247 0.0
H1672 H 0.87621 0.90899 0.14914 0.0
H1673 H 0.86379 0.93538 0.14694 0.0
H1674 H 0.90854 0.95831 0.15745 0.0
H1675 H 0.92081 0.93192 0.16045 0.0
H1676 H 0.88657 0.97375 0.17218 0.0
H1677 H 0.89295 0.95426 0.11802 0.0
H1678 H 0.88982 0.93516 0.09551 0.0
H1679 H 0.83935 0.93897 0.09891 0.0
H1680 H 0.84219 0.95796 0.12158 0.0
H1681 H 0.8777 0.04912 0.1333 0.0
H1682 H 0.88499 0.02189 0.14142 0.0
H1683 H 0.83595 0.00751 0.14027 0.0
H1684 H 0.8285 0.03489 0.13233 0.0
H1685 H 0.857 0.98736 0.12253 0.0
H1686 H 0.85191 0.01018 0.17512 0.0
H1687 H 0.85646 0.0304 0.19636 0.0
H1688 H 0.90636 0.02158 0.19438 0.0
H1689 H 0.90214 0.00144 0.17296 0.0
C1690 C 0.88338 0.91967 0.15103 0.0
C1691 C 0.89949 0.91844 0.15486 0.0
C1692 C 0.87628 0.93475 0.14971 0.0
C1693 C 0.88529 0.94886 0.15174 0.0
C1694 C 0.90134 0.94761 0.15583 0.0
C1695 C 0.90836 0.93253 0.15747 0.0
C1696 C 0.87814 0.96495 0.1493 0.0
C1697 C 0.88021 0.97674 0.16126 0.0
C1698 C 0.86951 0.9688 0.13522 0.0
C1699 C 0.86778 0.95737 0.12161 0.0
C1700 C 0.88119 0.95092 0.11404 0.0
C1701 C 0.87947 0.94014 0.10124 0.0
C1702 C 0.8644 0.93581 0.09582 0.0
C1703 C 0.85102 0.9423 0.10315 0.0
C1704 C 0.85267 0.95308 0.11597 0.0
C1705 C 0.86845 0.04019 0.13488 0.0
C1706 C 0.85254 0.04406 0.13212 0.0
C1707 C 0.87263 0.02469 0.1396 0.0
C1708 C 0.86099 0.01278 0.1415 0.0
C1709 C 0.84507 0.01661 0.1389 0.0
C1710 C 0.84084 0.03221 0.1344 0.0
C1711 C 0.86569 0.99611 0.14525 0.0
C1712 C 0.86317 0.98425 0.13353 0.0
C1713 C 0.87413 0.9923 0.1594 0.0
C1714 C 0.87671 0.00435 0.17236 0.0
C1715 C 0.86387 0.01262 0.17913 0.0
C1716 C 0.86638 0.02405 0.19123 0.0
C1717 C 0.88168 0.02724 0.19674 0.0
C1718 C 0.89451 0.01904 0.19014 0.0
C1719 C 0.89206 0.00761 0.17803 0.0
H1720 H 0.8836 0.0361 0.2061 0.0
H1721 H 0.86309 0.92746 0.0859 0.0
H1722 H 0.1798 0.66444 0.58658 0.0
H1723 H 0.20734 0.65763 0.59144 0.0
H1724 H 0.1928 0.61425 0.61592 0.0
H1725 H 0.16502 0.62126 0.61143 0.0
H1726 H 0.21538 0.62942 0.63243 0.0
H1727 H 0.20833 0.61338 0.57775 0.0
H1728 H 0.2008 0.61613 0.54929 0.0
H1729 H 0.23451 0.65453 0.54356 0.0
H1730 H 0.24197 0.65228 0.57212 0.0
H1731 H 0.29429 0.59767 0.63124 0.0
H1732 H 0.2659 0.60195 0.62817 0.0
H1733 H 0.27503 0.648 0.60606 0.0
H1734 H 0.30341 0.64386 0.609 0.0
H1735 H 0.25489 0.62911 0.58842 0.0
H1736 H 0.26061 0.64633 0.64337 0.0
H1737 H 0.26841 0.64358 0.67179 0.0
H1738 H 0.23762 0.60262 0.67673 0.0
H1739 H 0.2298 0.60499 0.64826 0.0
C1740 C 0.18244 0.65339 0.59291 0.0
C1741 C 0.17026 0.64335 0.5986 0.0
C1742 C 0.19821 0.64948 0.59563 0.0
C1743 C 0.20215 0.63532 0.60385 0.0
C1744 C 0.19001 0.62521 0.60951 0.0
C1745 C 0.17417 0.62919 0.60689 0.0
C1746 C 0.21896 0.6314 0.60686 0.0
C1747 C 0.22398 0.62906 0.62278 0.0
C1748 C 0.23022 0.63125 0.59429 0.0
C1749 C 0.22563 0.63273 0.57713 0.0
C1750 C 0.21403 0.62252 0.57047 0.0
C1751 C 0.20979 0.62398 0.5543 0.0
C1752 C 0.21719 0.63549 0.54461 0.0
C1753 C 0.22879 0.64562 0.55109 0.0
C1754 C 0.23303 0.64426 0.56726 0.0
C1755 C 0.29028 0.60878 0.62586 0.0
C1756 C 0.30115 0.6204 0.62031 0.0
C1757 C 0.27404 0.61122 0.62417 0.0
C1758 C 0.2684 0.6253 0.61693 0.0
C1759 C 0.27918 0.63705 0.61168 0.0
C1760 C 0.2954 0.63467 0.61342 0.0
C1761 C 0.25131 0.62745 0.61397 0.0
C1762 C 0.24625 0.62938 0.59805 0.0
C1763 C 0.24005 0.62719 0.62652 0.0
C1764 C 0.24476 0.62573 0.64363 0.0
C1765 C 0.25562 0.63664 0.65047 0.0
C1766 C 0.26002 0.63517 0.6666 0.0
C1767 C 0.25355 0.6229 0.67605 0.0
C1768 C 0.24264 0.6121 0.66939 0.0
C1769 C 0.23821 0.61351 0.65326 0.0
H1770 H 0.25697 0.62179 0.68854 0.0
H1771 H 0.214 0.63657 0.53207 0.0
H1772 H 0.10404 0.42555 0.33308 0.0
H1773 H 0.11086 0.45402 0.33188 0.0
H1774 H 0.10419 0.45797 0.38318 0.0
H1775 H 0.09805 0.42914 0.38454 0.0
H1776 H 0.0955 0.47948 0.33717 0.0
H1777 H 0.1268 0.48801 0.39844 0.0
H1778 H 0.1426 0.47237 0.4178 0.0
H1779 H 0.15807 0.44121 0.3798 0.0
H1780 H 0.14251 0.45677 0.36019 0.0
H1781 H 0.10542 0.56282 0.35468 0.0
H1782 H 0.09882 0.5342 0.35359 0.0
H1783 H 0.14843 0.52264 0.35103 0.0
H1784 H 0.1551 0.5512 0.35276 0.0
H1785 H 0.13583 0.5049 0.37239 0.0
H1786 H 0.1219 0.51615 0.31729 0.0
H1787 H 0.10865 0.53002 0.29482 0.0
H1788 H 0.06342 0.52027 0.31611 0.0
H1789 H 0.07639 0.5061 0.33856 0.0
C1790 C 0.10406 0.43246 0.34413 0.0
C1791 C 0.10053 0.42511 0.35892 0.0
C1792 C 0.10793 0.44877 0.34342 0.0
C1793 C 0.10816 0.45818 0.35743 0.0
C1794 C 0.10442 0.45092 0.37223 0.0
C1795 C 0.10085 0.43446 0.373 0.0
C1796 C 0.11219 0.47558 0.35636 0.0
C1797 C 0.10434 0.48502 0.34488 0.0
C1798 C 0.12386 0.48284 0.36624 0.0
C1799 C 0.13335 0.47345 0.3779 0.0
C1800 C 0.13361 0.47784 0.39422 0.0
C1801 C 0.14252 0.46899 0.40523 0.0
C1802 C 0.15129 0.45577 0.40004 0.0
C1803 C 0.15122 0.45141 0.38381 0.0
C1804 C 0.14234 0.46023 0.37275 0.0
C1805 C 0.11491 0.55419 0.35366 0.0
C1806 C 0.13079 0.55926 0.35398 0.0
C1807 C 0.11112 0.53781 0.35294 0.0
C1808 C 0.12312 0.52621 0.35218 0.0
C1809 C 0.13896 0.53133 0.35175 0.0
C1810 C 0.14276 0.54767 0.35271 0.0
C1811 C 0.1193 0.50874 0.35304 0.0
C1812 C 0.12705 0.49934 0.36462 0.0
C1813 C 0.10792 0.5014 0.34291 0.0
C1814 C 0.10011 0.51023 0.32967 0.0
C1815 C 0.10914 0.51707 0.31722 0.0
C1816 C 0.10168 0.52493 0.30447 0.0
C1817 C 0.08522 0.52615 0.30411 0.0
C1818 C 0.07617 0.51937 0.31643 0.0
C1819 C 0.08355 0.51135 0.32912 0.0
H1820 H 0.07948 0.53228 0.29425 0.0
H1821 H 0.15817 0.44893 0.40859 0.0
H1822 H 0.39975 0.56979 0.83128 0.0
H1823 H 0.39278 0.54133 0.82994 0.0
H1824 H 0.38792 0.54006 0.88157 0.0
H1825 H 0.39431 0.56879 0.88294 0.0
H1826 H 0.40608 0.51596 0.84002 0.0
H1827 H 0.3611 0.51212 0.8928 0.0
H1828 H 0.34108 0.52913 0.90594 0.0
H1829 H 0.33608 0.55682 0.8627 0.0
H1830 H 0.3559 0.53986 0.84924 0.0
H1831 H 0.39474 0.43483 0.86302 0.0
H1832 H 0.4004 0.46354 0.86033 0.0
H1833 H 0.35175 0.47202 0.84724 0.0
H1834 H 0.34589 0.44342 0.85083 0.0
H1835 H 0.35922 0.49287 0.86754 0.0
H1836 H 0.38431 0.47603 0.81893 0.0
H1837 H 0.40185 0.46012 0.80145 0.0
H1838 H 0.44199 0.47465 0.82966 0.0
H1839 H 0.42471 0.49081 0.84719 0.0
C1840 C 0.39717 0.56347 0.84237 0.0
C1841 C 0.39757 0.57155 0.85724 0.0
C1842 C 0.39321 0.54717 0.84158 0.0
C1843 C 0.3897 0.53854 0.85562 0.0
C1844 C 0.39026 0.54653 0.87052 0.0
C1845 C 0.39399 0.56293 0.87131 0.0
C1846 C 0.38569 0.52114 0.85462 0.0
C1847 C 0.3958 0.51092 0.84601 0.0
C1848 C 0.37208 0.51457 0.86208 0.0
C1849 C 0.36012 0.52482 0.87008 0.0
C1850 C 0.3557 0.52182 0.88609 0.0
C1851 C 0.34439 0.53145 0.89359 0.0
C1852 C 0.33736 0.54408 0.88518 0.0
C1853 C 0.34159 0.54708 0.86923 0.0
C1854 C 0.35288 0.53747 0.86166 0.0
C1855 C 0.38531 0.44281 0.85937 0.0
C1856 C 0.36985 0.43694 0.85724 0.0
C1857 C 0.38857 0.45923 0.85773 0.0
C1858 C 0.37654 0.47001 0.85344 0.0
C1859 C 0.36123 0.464 0.85067 0.0
C1860 C 0.35789 0.44766 0.85268 0.0
C1861 C 0.37964 0.48765 0.85297 0.0
C1862 C 0.36943 0.4979 0.86143 0.0
C1863 C 0.39279 0.49434 0.84482 0.0
C1864 C 0.4032 0.48452 0.83443 0.0
C1865 C 0.39687 0.47577 0.82144 0.0
C1866 C 0.40677 0.46676 0.81149 0.0
C1867 C 0.42301 0.46629 0.8145 0.0
C1868 C 0.42941 0.47498 0.82736 0.0
C1869 C 0.41958 0.48414 0.83726 0.0
H1870 H 0.43063 0.45923 0.80683 0.0
H1871 H 0.32861 0.55153 0.89102 0.0
H1872 H 0.88708 0.66284 0.62976 0.0
H1873 H 0.88692 0.69068 0.62037 0.0
H1874 H 0.93369 0.6979 0.64006 0.0
H1875 H 0.93338 0.67034 0.65035 0.0
H1876 H 0.91808 0.72176 0.64766 0.0
H1877 H 0.9254 0.69598 0.59774 0.0
H1878 H 0.92092 0.67641 0.57589 0.0
H1879 H 0.8744 0.6953 0.56824 0.0
H1880 H 0.87849 0.71484 0.59021 0.0
H1881 H 0.90286 0.79267 0.58626 0.0
H1882 H 0.91207 0.76535 0.59177 0.0
H1883 H 0.88681 0.76559 0.63683 0.0
H1884 H 0.87816 0.79305 0.63169 0.0
H1885 H 0.8976 0.73861 0.59443 0.0
H1886 H 0.90363 0.74298 0.66452 0.0
H1887 H 0.91218 0.76299 0.68469 0.0
H1888 H 0.93981 0.78751 0.64895 0.0
H1889 H 0.93167 0.76752 0.62864 0.0
C1890 C 0.89737 0.67035 0.63192 0.0
C1891 C 0.9102 0.66454 0.64081 0.0
C1892 C 0.89734 0.68624 0.62644 0.0
C1893 C 0.9104 0.69641 0.62928 0.0
C1894 C 0.92345 0.69036 0.63775 0.0
C1895 C 0.92329 0.67461 0.64359 0.0
C1896 C 0.90991 0.71363 0.62444 0.0
C1897 C 0.91373 0.72541 0.63596 0.0
C1898 C 0.90477 0.71852 0.609 0.0
C1899 C 0.90223 0.70682 0.59571 0.0
C1900 C 0.91417 0.6959 0.59147 0.0
C1901 C 0.91171 0.68481 0.57906 0.0
C1902 C 0.89738 0.68459 0.5707 0.0
C1903 C 0.88549 0.69548 0.57473 0.0
C1904 C 0.88789 0.70658 0.58715 0.0
C1905 C 0.89942 0.78692 0.59741 0.0
C1906 C 0.88985 0.79498 0.60859 0.0
C1907 C 0.90466 0.77131 0.60053 0.0
C1908 C 0.90031 0.76346 0.6148 0.0
C1909 C 0.89067 0.77151 0.62592 0.0
C1910 C 0.88565 0.78719 0.62293 0.0
C1911 C 0.9052 0.7466 0.61786 0.0
C1912 C 0.9022 0.73492 0.60602 0.0
C1913 C 0.91178 0.74184 0.63275 0.0
C1914 C 0.91693 0.75379 0.64502 0.0
C1915 C 0.91161 0.75258 0.66098 0.0
C1916 C 0.91638 0.76394 0.67244 0.0
C1917 C 0.92651 0.77654 0.6681 0.0
C1918 C 0.93194 0.77778 0.6523 0.0
C1919 C 0.92724 0.76644 0.6408 0.0
H1920 H 0.93017 0.78533 0.67699 0.0
H1921 H 0.89549 0.676 0.56109 0.0
H1922 H 0.95875 0.1253 0.3441 0.0
H1923 H 0.98627 0.1291 0.35265 0.0
H1924 H 0.97034 0.14451 0.3994 0.0
H1925 H 0.94303 0.14097 0.39104 0.0
H1926 H 0.99192 0.16482 0.3872 0.0
H1927 H 0.98587 0.1072 0.39351 0.0
H1928 H 0.97997 0.07967 0.38405 0.0
H1929 H 0.01741 0.08321 0.3494 0.0
H1930 H 0.02339 0.11086 0.35853 0.0
H1931 H 0.05816 0.16719 0.43535 0.0
H1932 H 0.03316 0.15708 0.42458 0.0
H1933 H 0.05667 0.14275 0.3809 0.0
H1934 H 0.08196 0.15228 0.39196 0.0
H1935 H 0.03251 0.12193 0.38841 0.0
H1936 H 0.04006 0.17871 0.38405 0.0
H1937 H 0.04681 0.20539 0.39487 0.0
H1938 H 0.00582 0.204 0.42524 0.0
H1939 H -0.00068 0.17678 0.41527 0.0
C1940 C 0.96111 0.12947 0.35621 0.0
C1941 C 0.94863 0.13287 0.36685 0.0
C1942 C 0.97685 0.13155 0.36109 0.0
C1943 C 0.98034 0.13701 0.37669 0.0
C1944 C 0.96791 0.14032 0.3873 0.0
C1945 C 0.95227 0.13826 0.38247 0.0
C1946 C 0.99683 0.13996 0.38201 0.0
C1947 C 0.00074 0.1554 0.38759 0.0
C1948 C 0.00849 0.12779 0.382 0.0
C1949 C 0.00495 0.11116 0.37658 0.0
C1950 C 0.99275 0.10216 0.38379 0.0
C1951 C 0.98942 0.08652 0.3785 0.0
C1952 C 0.99828 0.07971 0.3661 0.0
C1953 C 0.01054 0.08851 0.35899 0.0
C1954 C 0.01391 0.10416 0.36422 0.0
C1955 C 0.05805 0.16164 0.42356 0.0
C1956 C 0.07193 0.16077 0.41437 0.0
C1957 C 0.04378 0.15584 0.41743 0.0
C1958 C 0.04298 0.14954 0.40177 0.0
C1959 C 0.057 0.14765 0.39297 0.0
C1960 C 0.07141 0.15316 0.39927 0.0
C1961 C 0.02736 0.14665 0.39412 0.0
C1962 C 0.02369 0.13135 0.38795 0.0
C1963 C 0.01584 0.15895 0.39353 0.0
C1964 C 0.01927 0.17563 0.39899 0.0
C1965 C 0.03252 0.18404 0.3931 0.0
C1966 C 0.03632 0.19927 0.39912 0.0
C1967 C 0.02668 0.20648 0.41066 0.0
C1968 C 0.01326 0.19841 0.41628 0.0
C1969 C 0.00956 0.18303 0.41052 0.0
H1970 H 0.02962 0.2183 0.41529 0.0
H1971 H 0.99568 0.06761 0.36202 0.0
H1972 H 0.60107 0.20033 0.08873 0.0
H1973 H 0.59579 0.22883 0.09381 0.0
H1974 H 0.61554 0.22432 0.1414 0.0
H1975 H 0.62098 0.1959 0.1364 0.0
H1976 H 0.5792 0.24649 0.11674 0.0
H1977 H 0.63989 0.25624 0.14735 0.0
H1978 H 0.66649 0.24421 0.1472 0.0
H1979 H 0.65907 0.22739 0.09894 0.0
H1980 H 0.63254 0.23952 0.09872 0.0
H1981 H 0.58445 0.319 0.16143 0.0
H1982 H 0.58495 0.29129 0.15163 0.0
H1983 H 0.61628 0.30552 0.11324 0.0
H1984 H 0.61588 0.33334 0.12303 0.0
H1985 H 0.62689 0.27927 0.12927 0.0
H1986 H 0.57912 0.29633 0.1047 0.0
H1987 H 0.55283 0.30893 0.10367 0.0
H1988 H 0.53474 0.27337 0.13633 0.0
H1989 H 0.56101 0.26073 0.13782 0.0
C1990 C 0.60409 0.20536 0.10036 0.0
C1991 C 0.61164 0.19596 0.1121 0.0
C1992 C 0.601 0.22161 0.10325 0.0
C1993 C 0.60551 0.22868 0.11787 0.0
C1994 C 0.61218 0.21909 0.12995 0.0
C1995 C 0.61526 0.20286 0.12708 0.0
C1996 C 0.60444 0.24629 0.12009 0.0
C1997 C 0.58959 0.25369 0.11947 0.0
C1998 C 0.61809 0.2557 0.12321 0.0
C1999 C 0.63418 0.24867 0.12309 0.0
C2000 C 0.64398 0.25005 0.13668 0.0
C2001 C 0.65903 0.2432 0.13666 0.0
C2002 C 0.66445 0.235 0.12308 0.0
C2003 C 0.65485 0.23369 0.10947 0.0
C2004 C 0.63979 0.24054 0.10942 0.0
C2005 C 0.59137 0.31625 0.15084 0.0
C2006 C 0.60019 0.32829 0.14302 0.0
C2007 C 0.59157 0.30044 0.14521 0.0
C2008 C 0.60056 0.29641 0.13165 0.0
C2009 C 0.60925 0.30844 0.12371 0.0
C2010 C 0.60899 0.32429 0.1293 0.0
C2011 C 0.60159 0.27945 0.12641 0.0
C2012 C 0.61647 0.27214 0.12645 0.0
C2013 C 0.58799 0.27024 0.12251 0.0
C2014 C 0.57209 0.27765 0.12146 0.0
C2015 C 0.56957 0.29126 0.11176 0.0
C2016 C 0.55467 0.29841 0.11108 0.0
C2017 C 0.54213 0.29197 0.11995 0.0
C2018 C 0.54446 0.27834 0.12948 0.0
C2019 C 0.55936 0.27117 0.13023 0.0
H2020 H 0.5306 0.29752 0.11942 0.0
H2021 H 0.6761 0.22969 0.12311 0.0
H2022 H 0.43147 0.83485 0.92177 0.0
H2023 H 0.45474 0.84876 0.91129 0.0
H2024 H 0.42899 0.86138 0.8684 0.0
H2025 H 0.40533 0.8477 0.87907 0.0
H2026 H 0.45954 0.8449 0.86404 0.0
H2027 H 0.43784 0.891 0.88918 0.0
H2028 H 0.42511 0.90669 0.91069 0.0
H2029 H 0.46467 0.89807 0.94181 0.0
H2030 H 0.47754 0.8821 0.92059 0.0
H2031 H 0.53463 0.87889 0.84317 0.0
H2032 H 0.50594 0.87761 0.84681 0.0
H2033 H 0.51251 0.86793 0.8973 0.0
H2034 H 0.54103 0.86937 0.89388 0.0
H2035 H 0.48841 0.88857 0.89254 0.0
H2036 H 0.50632 0.83757 0.87063 0.0
H2037 H 0.51926 0.82045 0.85036 0.0
H2038 H 0.48687 0.83712 0.81433 0.0
H2039 H 0.47387 0.85452 0.83439 0.0
C2040 C 0.43069 0.84072 0.91018 0.0
C2041 C 0.41664 0.84015 0.90119 0.0
C2042 C 0.44395 0.84874 0.90426 0.0
C2043 C 0.44351 0.85614 0.88913 0.0
C2044 C 0.42947 0.8558 0.88015 0.0
C2045 C 0.41601 0.84803 0.88625 0.0
C2046 C 0.45825 0.86303 0.88249 0.0
C2047 C 0.46569 0.85478 0.86991 0.0
C2048 C 0.46632 0.8757 0.89042 0.0
C2049 C 0.45863 0.88527 0.90329 0.0
C2050 C 0.44378 0.89232 0.90066 0.0
C2051 C 0.43654 0.90129 0.91279 0.0
C2052 C 0.44407 0.90336 0.92761 0.0
C2053 C 0.45885 0.89646 0.93032 0.0
C2054 C 0.46614 0.88747 0.91823 0.0
C2055 C 0.52997 0.87664 0.85508 0.0
C2056 C 0.54016 0.87409 0.8682 0.0
C2057 C 0.51357 0.8759 0.85712 0.0
C2058 C 0.50711 0.87256 0.8723 0.0
C2059 C 0.51724 0.87057 0.88549 0.0
C2060 C 0.53358 0.8713 0.88347 0.0
C2061 C 0.4899 0.87005 0.87448 0.0
C2062 C 0.48206 0.87907 0.88628 0.0
C2063 C 0.4815 0.85796 0.86596 0.0
C2064 C 0.48927 0.8475 0.85393 0.0
C2065 C 0.50205 0.83768 0.85835 0.0
C2066 C 0.50937 0.82791 0.84691 0.0
C2067 C 0.50393 0.82774 0.83105 0.0
C2068 C 0.49111 0.8373 0.82661 0.0
C2069 C 0.48376 0.84712 0.83801 0.0
H2070 H 0.50961 0.82016 0.82221 0.0
H2071 H 0.43845 0.91031 0.93699 0.0
H2072 H 0.89745 0.19984 0.85896 0.0
H2073 H 0.8996 0.22916 0.85662 0.0
H2074 H 0.87077 0.23478 0.89895 0.0
H2075 H 0.86855 0.20558 0.90144 0.0
H2076 H 0.86187 0.25471 0.87332 0.0
H2077 H 0.90885 0.23989 0.90253 0.0
H2078 H 0.93342 0.22465 0.90683 0.0
H2079 H 0.95275 0.24409 0.86323 0.0
H2080 H 0.92819 0.25927 0.85855 0.0
H2081 H 0.87434 0.33837 0.88351 0.0
H2082 H 0.87295 0.30941 0.88866 0.0
H2083 H 0.90863 0.30131 0.85254 0.0
H2084 H 0.91058 0.33016 0.84787 0.0
H2085 H 0.91392 0.28237 0.87614 0.0
H2086 H 0.86762 0.29585 0.84552 0.0
H2087 H 0.843 0.31042 0.8395 0.0
H2088 H 0.82236 0.29298 0.88332 0.0
H2089 H 0.84695 0.27846 0.8897 0.0
C2090 C 0.89152 0.20731 0.86774 0.0
C2091 C 0.88287 0.20038 0.88041 0.0
C2092 C 0.89282 0.22403 0.86642 0.0
C2093 C 0.88543 0.23406 0.87769 0.0
C2094 C 0.87657 0.2272 0.89016 0.0
C2095 C 0.87538 0.21052 0.89158 0.0
C2096 C 0.88693 0.25175 0.87652 0.0
C2097 C 0.87321 0.26082 0.87414 0.0
C2098 C 0.90178 0.25958 0.87722 0.0
C2099 C 0.91663 0.2506 0.88012 0.0
C2100 C 0.91829 0.24082 0.8938 0.0
C2101 C 0.93223 0.23221 0.89631 0.0
C2102 C 0.94462 0.23337 0.88529 0.0
C2103 C 0.94313 0.24319 0.87175 0.0
C2104 C 0.92922 0.25181 0.86917 0.0
C2105 C 0.88196 0.33041 0.87676 0.0
C2106 C 0.8925 0.33655 0.86522 0.0
C2107 C 0.8811 0.31385 0.87965 0.0
C2108 C 0.89046 0.30313 0.87076 0.0
C2109 C 0.90128 0.30931 0.85955 0.0
C2110 C 0.90235 0.32584 0.85687 0.0
C2111 C 0.88884 0.28545 0.87279 0.0
C2112 C 0.90255 0.27633 0.87535 0.0
C2113 C 0.87398 0.27754 0.872 0.0
C2114 C 0.85918 0.28622 0.86817 0.0
C2115 C 0.85787 0.29522 0.85392 0.0
C2116 C 0.84391 0.30345 0.85044 0.0
C2117 C 0.83114 0.30266 0.86104 0.0
C2118 C 0.83228 0.2936 0.87514 0.0
C2119 C 0.84621 0.28536 0.87869 0.0
H2120 H 0.82035 0.30904 0.85833 0.0
H2121 H 0.9554 0.22669 0.88725 0.0
H2122 H 0.43153 0.1542 0.5821 0.0
H2123 H 0.45633 0.1485 0.59591 0.0
H2124 H 0.43165 0.14533 0.6411 0.0
H2125 H 0.4065 0.1507 0.62725 0.0
H2126 H 0.464 0.16582 0.6374 0.0
H2127 H 0.43945 0.11333 0.63253 0.0
H2128 H 0.42504 0.09196 0.61794 0.0
H2129 H 0.46221 0.08973 0.58292 0.0
H2130 H 0.47673 0.11129 0.59718 0.0
H2131 H 0.53402 0.13231 0.67317 0.0
H2132 H 0.50646 0.13843 0.66666 0.0
H2133 H 0.51514 0.12652 0.61696 0.0
H2134 H 0.54253 0.12016 0.62339 0.0
H2135 H 0.48864 0.11271 0.62717 0.0
H2136 H 0.51233 0.16552 0.62973 0.0
H2137 H 0.52709 0.1879 0.64235 0.0
H2138 H 0.49235 0.19065 0.67982 0.0
H2139 H 0.4775 0.16812 0.66754 0.0
C2140 C 0.43134 0.15238 0.59499 0.0
C2141 C 0.41708 0.15283 0.60361 0.0
C2142 C 0.44551 0.14914 0.60284 0.0
C2143 C 0.44574 0.14652 0.61946 0.0
C2144 C 0.43163 0.14738 0.62825 0.0
C2145 C 0.41732 0.15036 0.62033 0.0
C2146 C 0.46079 0.14219 0.62725 0.0
C2147 C 0.4693 0.1541 0.63556 0.0
C2148 C 0.46774 0.12705 0.6244 0.0
C2149 C 0.45909 0.11402 0.61584 0.0
C2150 C 0.44447 0.10839 0.62163 0.0
C2151 C 0.4363 0.09622 0.61344 0.0
C2152 C 0.44269 0.08952 0.59949 0.0
C2153 C 0.45727 0.09495 0.59372 0.0
C2154 C 0.46548 0.10713 0.60186 0.0
C2155 C 0.53004 0.13105 0.66085 0.0
C2156 C 0.54042 0.12573 0.64878 0.0
C2157 C 0.51432 0.1346 0.65715 0.0
C2158 C 0.50877 0.13299 0.64131 0.0
C2159 C 0.51916 0.12778 0.62927 0.0
C2160 C 0.53482 0.1242 0.63295 0.0
C2161 C 0.4921 0.13643 0.63717 0.0
C2162 C 0.48329 0.12434 0.62942 0.0
C2163 C 0.48498 0.15148 0.64042 0.0
C2164 C 0.49391 0.16501 0.64783 0.0
C2165 C 0.50792 0.1708 0.64074 0.0
C2166 C 0.51628 0.18353 0.64782 0.0
C2167 C 0.51068 0.19066 0.6619 0.0
C2168 C 0.49669 0.1851 0.66893 0.0
C2169 C 0.48829 0.17235 0.66192 0.0
H2170 H 0.51715 0.20053 0.66735 0.0
H2171 H 0.43635 0.08009 0.59317 0.0
H2172 H 0.62489 0.80405 0.40703 0.0
H2173 H 0.62526 0.77481 0.40414 0.0
H2174 H 0.61338 0.77933 0.35394 0.0
H2175 H 0.61301 0.80863 0.35664 0.0
H2176 H 0.60101 0.75479 0.39531 0.0
H2177 H 0.63207 0.74856 0.33374 0.0
H2178 H 0.65194 0.76293 0.31739 0.0
H2179 H 0.67262 0.78295 0.36016 0.0
H2180 H 0.65304 0.76853 0.37678 0.0
H2181 H 0.58698 0.67864 0.35991 0.0
H2182 H 0.59012 0.70748 0.36443 0.0
H2183 H 0.63909 0.7005 0.37688 0.0
H2184 H 0.63615 0.67156 0.37227 0.0
H2185 H 0.6349 0.72592 0.35622 0.0
H2186 H 0.61303 0.70691 0.40599 0.0
H2187 H 0.59383 0.69231 0.42292 0.0
H2188 H 0.55652 0.72255 0.40564 0.0
H2189 H 0.57545 0.73716 0.38839 0.0
C2190 C 0.62245 0.79887 0.39533 0.0
C2191 C 0.61891 0.80871 0.38205 0.0
C2192 C 0.62262 0.78215 0.39373 0.0
C2193 C 0.61943 0.77495 0.37883 0.0
C2194 C 0.61604 0.78469 0.36551 0.0
C2195 C 0.61578 0.80143 0.3671 0.0
C2196 C 0.61918 0.75722 0.37734 0.0
C2197 C 0.60844 0.74847 0.38679 0.0
C2198 C 0.62901 0.749 0.36634 0.0
C2199 C 0.64098 0.75758 0.35648 0.0
C2200 C 0.6409 0.75598 0.33966 0.0
C2201 C 0.65211 0.76414 0.33034 0.0
C2202 C 0.6635 0.77389 0.33773 0.0
C2203 C 0.66375 0.77545 0.35445 0.0
C2204 C 0.65258 0.7673 0.36382 0.0
C2205 C 0.59844 0.68318 0.36361 0.0
C2206 C 0.61131 0.67275 0.36576 0.0
C2207 C 0.60018 0.69968 0.36624 0.0
C2208 C 0.6148 0.70607 0.3711 0.0
C2209 C 0.62771 0.69576 0.37314 0.0
C2210 C 0.62598 0.67923 0.37056 0.0
C2211 C 0.61656 0.72355 0.37401 0.0
C2212 C 0.62753 0.73225 0.36479 0.0
C2213 C 0.60704 0.73172 0.38532 0.0
C2214 C 0.59565 0.72305 0.3958 0.0
C2215 C 0.60071 0.71037 0.40571 0.0
C2216 C 0.58988 0.7021 0.41537 0.0
C2217 C 0.57395 0.70646 0.41531 0.0
C2218 C 0.56885 0.71915 0.40564 0.0
C2219 C 0.57963 0.72745 0.39593 0.0
H2220 H 0.56558 0.70004 0.4228 0.0
H2221 H 0.67216 0.7802 0.33049 0.0
H2222 H 0.06935 0.8355 0.0839 0.0
H2223 H 0.04334 0.84056 0.09539 0.0
H2224 H 0.06496 0.85474 0.14021 0.0
H2225 H 0.09124 0.84985 0.1287 0.0
H2226 H 0.03709 0.83313 0.14244 0.0
H2227 H 0.05377 0.88338 0.11888 0.0
H2228 H 0.06443 0.90049 0.0972 0.0
H2229 H 0.0258 0.88671 0.06654 0.0
H2230 H 0.01503 0.86933 0.08797 0.0
H2231 H 0.9664 0.86749 0.17347 0.0
H2232 H 0.99367 0.86201 0.1656 0.0
H2233 H 0.9793 0.85969 0.11583 0.0
H2234 H 0.95217 0.86589 0.1236 0.0
H2235 H 0.00479 0.87625 0.11776 0.0
H2236 H 0.98846 0.82525 0.13948 0.0
H2237 H 0.9776 0.80677 0.15991 0.0
H2238 H 0.01481 0.82008 0.19254 0.0
H2239 H 0.02578 0.8388 0.17236 0.0
C2240 C 0.06862 0.83959 0.09624 0.0
C2241 C 0.08234 0.84237 0.10538 0.0
C2242 C 0.05374 0.84249 0.10277 0.0
C2243 C 0.05229 0.84812 0.11858 0.0
C2244 C 0.0659 0.8504 0.12796 0.0
C2245 C 0.08086 0.84767 0.12137 0.0
C2246 C 0.0365 0.85215 0.12493 0.0
C2247 C 0.03007 0.84271 0.13728 0.0
C2248 C 0.0273 0.86439 0.11784 0.0
C2249 C 0.03367 0.87495 0.10499 0.0
C2250 C 0.04762 0.8839 0.10747 0.0
C2251 C 0.05367 0.89366 0.09524 0.0
C2252 C 0.04582 0.89466 0.08049 0.0
C2253 C 0.03188 0.88592 0.07796 0.0
C2254 C 0.02579 0.87613 0.09016 0.0
C2255 C 0.96907 0.86573 0.16086 0.0
C2256 C 0.95719 0.86711 0.14913 0.0
C2257 C 0.98465 0.86252 0.15638 0.0
C2258 C 0.98854 0.86022 0.14013 0.0
C2259 C 0.97662 0.86145 0.12844 0.0
C2260 C 0.96111 0.86495 0.13288 0.0
C2261 C 0.0051 0.85704 0.13518 0.0
C2262 C 0.01174 0.86668 0.12306 0.0
C2263 C 0.01439 0.84483 0.14235 0.0
C2264 C 0.00784 0.83355 0.15447 0.0
C2265 C 0.99425 0.82433 0.15106 0.0
C2266 C 0.98809 0.81379 0.16258 0.0
C2267 C 0.99548 0.81229 0.17753 0.0
C2268 C 0.00908 0.82128 0.18096 0.0
C2269 C 0.01528 0.83184 0.16948 0.0
H2270 H 0.9907 0.80413 0.18643 0.0
H2271 H 0.05053 0.90222 0.07103 0.0
H2272 H 0.66698 0.90643 0.68447 0.0
H2273 H 0.65474 0.90526 0.71101 0.0
H2274 H 0.61488 0.87954 0.691 0.0
H2275 H 0.62716 0.88053 0.66436 0.0
H2276 H 0.62722 0.91663 0.72284 0.0
H2277 H 0.60288 0.85174 0.71897 0.0
H2278 H 0.60851 0.82621 0.70495 0.0
H2279 H 0.65741 0.83967 0.70085 0.0
H2280 H 0.6521 0.86516 0.71502 0.0
H2281 H 0.57828 0.89758 0.79149 0.0
H2282 H 0.58766 0.90085 0.76373 0.0
H2283 H 0.62969 0.8741 0.77529 0.0
H2284 H 0.62057 0.87093 0.80289 0.0
H2285 H 0.61498 0.86355 0.7473 0.0
H2286 H 0.63285 0.91249 0.77233 0.0
H2287 H 0.62975 0.93766 0.78766 0.0
H2288 H 0.59839 0.95587 0.75147 0.0
H2289 H 0.60106 0.93063 0.73605 0.0
C2290 C 0.65561 0.90052 0.6857 0.0
C2291 C 0.64807 0.89345 0.67237 0.0
C2292 C 0.64859 0.89996 0.70086 0.0
C2293 C 0.63395 0.89226 0.70297 0.0
C2294 C 0.62626 0.88542 0.68963 0.0
C2295 C 0.63328 0.88597 0.67444 0.0
C2296 C 0.62709 0.89092 0.71928 0.0
C2297 C 0.62441 0.90504 0.72815 0.0
C2298 C 0.62367 0.87578 0.72627 0.0
C2299 C 0.62704 0.86043 0.71788 0.0
C2300 C 0.61483 0.84922 0.7151 0.0
C2301 C 0.61797 0.83477 0.70713 0.0
C2302 C 0.63329 0.83135 0.70195 0.0
C2303 C 0.64553 0.84236 0.7048 0.0
C2304 C 0.64246 0.85682 0.71278 0.0
C2305 C 0.58954 0.89247 0.7881 0.0
C2306 C 0.5987 0.88401 0.79934 0.0
C2307 C 0.59487 0.89435 0.77228 0.0
C2308 C 0.60933 0.88767 0.76752 0.0
C2309 C 0.61847 0.87927 0.77875 0.0
C2310 C 0.61326 0.87755 0.79453 0.0
C2311 C 0.61506 0.88924 0.75082 0.0
C2312 C 0.61752 0.87516 0.74189 0.0
C2313 C 0.61859 0.90438 0.74392 0.0
C2314 C 0.61699 0.91958 0.75314 0.0
C2315 C 0.62516 0.92179 0.76772 0.0
C2316 C 0.62351 0.93609 0.77641 0.0
C2317 C 0.61385 0.94835 0.77057 0.0
C2318 C 0.60584 0.94634 0.756 0.0
C2319 C 0.60741 0.93204 0.74727 0.0
H2320 H 0.61261 0.95942 0.77732 0.0
H2321 H 0.6357 0.82016 0.69577 0.0
H2322 H 0.87093 0.84045 0.5497 0.0
H2323 H 0.86685 0.84477 0.52099 0.0
H2324 H 0.85065 0.89298 0.53056 0.0
H2325 H 0.85444 0.88872 0.55934 0.0
H2326 H 0.83173 0.87761 0.50931 0.0
H2327 H 0.88793 0.88597 0.51649 0.0
H2328 H 0.91478 0.87833 0.52504 0.0
H2329 H 0.91328 0.83742 0.49347 0.0
H2330 H 0.88634 0.84472 0.48489 0.0
H2331 H 0.83836 0.91586 0.43462 0.0
H2332 H 0.84083 0.90701 0.4624 0.0
H2333 H 0.8582 0.86099 0.44627 0.0
H2334 H 0.85616 0.87 0.41829 0.0
H2335 H 0.87569 0.87222 0.47028 0.0
H2336 H 0.82046 0.86499 0.46127 0.0
H2337 H 0.79369 0.8726 0.45248 0.0
H2338 H 0.79307 0.91079 0.48728 0.0
H2339 H 0.81994 0.90357 0.49612 0.0
C2340 C 0.86653 0.852 0.54573 0.0
C2341 C 0.86307 0.86427 0.55684 0.0
C2342 C 0.86424 0.85444 0.5293 0.0
C2343 C 0.8586 0.86924 0.52366 0.0
C2344 C 0.85502 0.88146 0.5347 0.0
C2345 C 0.85725 0.87902 0.55113 0.0
C2346 C 0.85637 0.87203 0.50625 0.0
C2347 C 0.84136 0.87658 0.50078 0.0
C2348 C 0.86883 0.87013 0.49509 0.0
C2349 C 0.88506 0.8658 0.50018 0.0
C2350 C 0.89328 0.87528 0.51147 0.0
C2351 C 0.90852 0.87102 0.5163 0.0
C2352 C 0.91571 0.85737 0.50984 0.0
C2353 C 0.90769 0.84797 0.49849 0.0
C2354 C 0.89244 0.85217 0.49363 0.0
C2355 C 0.84262 0.90381 0.43696 0.0
C2356 C 0.84704 0.89359 0.42431 0.0
C2357 C 0.84394 0.89874 0.45285 0.0
C2358 C 0.84945 0.88324 0.4564 0.0
C2359 C 0.85386 0.87297 0.44378 0.0
C2360 C 0.85266 0.87811 0.42783 0.0
C2361 C 0.85111 0.87811 0.47335 0.0
C2362 C 0.866 0.87309 0.47876 0.0
C2363 C 0.83852 0.87952 0.48445 0.0
C2364 C 0.82227 0.88379 0.47928 0.0
C2365 C 0.81466 0.87507 0.46698 0.0
C2366 C 0.79946 0.87931 0.462 0.0
C2367 C 0.79169 0.89218 0.4693 0.0
C2368 C 0.7991 0.90082 0.48163 0.0
C2369 C 0.81431 0.89665 0.48665 0.0
H2370 H 0.77993 0.89545 0.46542 0.0
H2371 H 0.92751 0.85409 0.5136 0.0
H2372 H 0.88225 0.12023 0.15663 0.0
H2373 H 0.89163 0.11941 0.18455 0.0
H2374 H 0.85024 0.09218 0.19813 0.0
H2375 H 0.84101 0.09251 0.17022 0.0
H2376 H 0.85933 0.12204 0.21748 0.0
H2377 H 0.87833 0.07165 0.1963 0.0
H2378 H 0.89266 0.05501 0.17665 0.0
H2379 H 0.93596 0.07951 0.18841 0.0
H2380 H 0.92178 0.09671 0.20775 0.0
H2381 H 0.8766 0.10331 0.29672 0.0
H2382 H 0.86951 0.09918 0.26857 0.0
H2383 H 0.91693 0.11215 0.25434 0.0
H2384 H 0.92428 0.11561 0.2827 0.0
H2385 H 0.90533 0.08945 0.23472 0.0
H2386 H 0.88723 0.14022 0.25485 0.0
H2387 H 0.87347 0.15834 0.27364 0.0
H2388 H 0.82941 0.13461 0.26327 0.0
H2389 H 0.84295 0.11619 0.24459 0.0
C2390 C 0.87513 0.11413 0.16559 0.0
C2391 C 0.8609 0.10645 0.16129 0.0
C2392 C 0.88054 0.1136 0.18146 0.0
C2393 C 0.87163 0.10565 0.19326 0.0
C2394 C 0.85726 0.0983 0.1891 0.0
C2395 C 0.85204 0.0985 0.17319 0.0
C2396 C 0.87715 0.10526 0.21007 0.0
C2397 C 0.86926 0.11478 0.22134 0.0
C2398 C 0.89037 0.09609 0.21484 0.0
C2399 C 0.89894 0.08564 0.20332 0.0
C2400 C 0.89086 0.07366 0.19455 0.0
C2401 C 0.89897 0.06409 0.18349 0.0
C2402 C 0.91521 0.06619 0.18129 0.0
C2403 C 0.92337 0.0779 0.19012 0.0
C2404 C 0.9153 0.08759 0.20111 0.0
C2405 C 0.88559 0.105 0.2876 0.0
C2406 C 0.90092 0.10999 0.2918 0.0
C2407 C 0.88152 0.10269 0.27153 0.0
C2408 C 0.89256 0.10582 0.25933 0.0
C2409 C 0.90819 0.10979 0.26356 0.0
C2410 C 0.91237 0.11178 0.27973 0.0
C2411 C 0.8874 0.10615 0.24229 0.0
C2412 C 0.89539 0.0967 0.23093 0.0
C2413 C 0.87434 0.11555 0.23734 0.0
C2414 C 0.86613 0.12674 0.24843 0.0
C2415 C 0.87462 0.1388 0.25665 0.0
C2416 C 0.86686 0.14913 0.26727 0.0
C2417 C 0.85058 0.1476 0.26967 0.0
C2418 C 0.84202 0.13577 0.26142 0.0
C2419 C 0.84973 0.12539 0.2508 0.0
H2420 H 0.8446 0.15561 0.27791 0.0
H2421 H 0.92147 0.05873 0.17276 0.0
H2422 H 0.619 0.12571 0.92182 0.0
H2423 H 0.61883 0.12983 0.95092 0.0
H2424 H 0.66248 0.10361 0.9551 0.0
H2425 H 0.66281 0.09942 0.92606 0.0
H2426 H 0.63958 0.09353 0.9768 0.0
H2427 H 0.66328 0.14312 0.95894 0.0
H2428 H 0.66497 0.16803 0.94293 0.0
H2429 H 0.6217 0.18472 0.96391 0.0
H2430 H 0.61964 0.1598 0.97989 0.0
H2431 H 0.65513 0.1115 0.05866 0.0
H2432 H 0.657 0.1084 0.02951 0.0
H2433 H 0.61731 0.14024 0.02338 0.0
H2434 H 0.61575 0.14384 0.05245 0.0
H2435 H 0.63883 0.14746 0.00244 0.0
H2436 H 0.6141 0.09821 0.01944 0.0
H2437 H 0.61138 0.07326 0.03525 0.0
H2438 H 0.65499 0.05578 0.01569 0.0
H2439 H 0.65806 0.08073 -9e-05 0.0
C2440 C 0.62862 0.12088 0.9289 0.0
C2441 C 0.64091 0.11222 0.92157 0.0
C2442 C 0.62852 0.1233 0.94552 0.0
C2443 C 0.64068 0.11707 0.95512 0.0
C2444 C 0.65299 0.1085 0.94788 0.0
C2445 C 0.65317 0.10618 0.93126 0.0
C2446 C 0.64034 0.11912 0.97279 0.0
C2447 C 0.63964 0.10531 0.98245 0.0
C2448 C 0.63999 0.1345 0.98006 0.0
C2449 C 0.64123 0.14952 0.97049 0.0
C2450 C 0.65405 0.15204 0.96004 0.0
C2451 C 0.65509 0.16618 0.95099 0.0
C2452 C 0.64343 0.17793 0.95237 0.0
C2453 C 0.63072 0.1756 0.96284 0.0
C2454 C 0.62962 0.16147 0.97191 0.0
C2455 C 0.64675 0.11777 0.0511 0.0
C2456 C 0.63523 0.12785 0.05785 0.0
C2457 C 0.64781 0.11596 0.03443 0.0
C2458 C 0.63714 0.1239 0.02424 0.0
C2459 C 0.62567 0.134 0.03099 0.0
C2460 C 0.62476 0.13601 0.04762 0.0
C2461 C 0.63799 0.12185 0.00653 0.0
C2462 C 0.63879 0.13566 0.99684 0.0
C2463 C 0.63825 0.10645 -0.00079 0.0
C2464 C 0.63639 0.0914 0.00862 0.0
C2465 C 0.62316 0.08909 0.0186 0.0
C2466 C 0.62155 0.07494 0.02754 0.0
C2467 C 0.63302 0.06296 0.02651 0.0
C2468 C 0.64612 0.06508 0.0165 0.0
C2469 C 0.6478 0.07922 0.00754 0.0
H2470 H 0.63176 0.05201 0.03345 0.0
H2471 H 0.64425 0.18887 0.94536 0.0
H2472 H 0.64297 0.07856 0.83047 0.0
H2473 H 0.6332 0.08054 0.80288 0.0
H2474 H 0.63167 0.13232 0.80734 0.0
H2475 H 0.64034 0.13016 0.83544 0.0
H2476 H 0.60926 0.12385 0.78881 0.0
H2477 H 0.66422 0.11148 0.7902 0.0
H2478 H 0.68811 0.09648 0.79794 0.0
H2479 H 0.6697 0.05398 0.77504 0.0
H2480 H 0.6456 0.06868 0.76733 0.0
H2481 H 0.63691 0.11569 0.69891 0.0
H2482 H 0.64234 0.11589 0.72771 0.0
H2483 H 0.59332 0.10492 0.73734 0.0
H2484 H 0.58768 0.10552 0.70852 0.0
H2485 H 0.64163 0.09449 0.74879 0.0
H2486 H 0.58207 0.11902 0.77349 0.0
H2487 H 0.56105 0.13776 0.76523 0.0
H2488 H 0.59385 0.16288 0.73477 0.0
H2489 H 0.61509 0.14444 0.74301 0.0
C2490 C 0.64024 0.09032 0.82558 0.0
C2491 C 0.64249 0.10424 0.83484 0.0
C2492 C 0.63478 0.09146 0.80982 0.0
C2493 C 0.63222 0.10662 0.80283 0.0
C2494 C 0.63368 0.12051 0.81242 0.0
C2495 C 0.63864 0.1193 0.82841 0.0
C2496 C 0.62901 0.10797 0.78532 0.0
C2497 C 0.61633 0.11743 0.78006 0.0
C2498 C 0.63852 0.1 0.77381 0.0
C2499 C 0.65305 0.09114 0.77832 0.0
C2500 C 0.66523 0.09891 0.78689 0.0
C2501 C 0.67881 0.09046 0.79127 0.0
C2502 C 0.68041 0.07428 0.78702 0.0
C2503 C 0.66844 0.06651 0.77834 0.0
C2504 C 0.65483 0.0749 0.77395 0.0
C2505 C 0.62728 0.11338 0.70718 0.0
C2506 C 0.61186 0.11064 0.70149 0.0
C2507 C 0.63039 0.11348 0.72364 0.0
C2508 C 0.61822 0.1106 0.73475 0.0
C2509 C 0.60284 0.10758 0.72906 0.0
C2510 C 0.59965 0.10782 0.71258 0.0
C2511 C 0.62179 0.11028 0.75223 0.0
C2512 C 0.63454 0.10094 0.75751 0.0
C2513 C 0.61279 0.11897 0.76363 0.0
C2514 C 0.60012 0.13023 0.75875 0.0
C2515 C 0.5848 0.12858 0.76508 0.0
C2516 C 0.57285 0.13915 0.76039 0.0
C2517 C 0.5761 0.15147 0.74944 0.0
C2518 C 0.59133 0.15329 0.7432 0.0
C2519 C 0.60332 0.14278 0.74786 0.0
H2520 H 0.56683 0.15962 0.74581 0.0
H2521 H 0.69093 0.06776 0.79042 0.0
H2522 H 0.61119 0.88306 0.45274 0.0
H2523 H 0.61522 0.88876 0.48123 0.0
H2524 H 0.6555 0.85704 0.48171 0.0
H2525 H 0.65078 0.85052 0.45342 0.0
H2526 H 0.63985 0.85111 0.50637 0.0
H2527 H 0.65806 0.90046 0.484 0.0
H2528 H 0.6575 0.92484 0.46713 0.0
H2529 H 0.61648 0.94152 0.49237 0.0
H2530 H 0.61667 0.91713 0.50926 0.0
H2531 H 0.66648 0.88272 0.58305 0.0
H2532 H 0.66499 0.87825 0.55395 0.0
H2533 H 0.61519 0.88882 0.55476 0.0
H2534 H 0.61644 0.8929 0.58394 0.0
H2535 H 0.6374 0.90593 0.52994 0.0
H2536 H 0.62012 0.85393 0.55132 0.0
H2537 H 0.6235 0.82995 0.56842 0.0
H2538 H 0.66726 0.81929 0.5447 0.0
H2539 H 0.66424 0.84336 0.52762 0.0
C2540 C 0.621 0.87746 0.45891 0.0
C2541 C 0.63069 0.86638 0.45094 0.0
C2542 C 0.62338 0.8808 0.47518 0.0
C2543 C 0.63585 0.87356 0.48365 0.0
C2544 C 0.64578 0.86277 0.47551 0.0
C2545 C 0.64313 0.85909 0.45934 0.0
C2546 C 0.63793 0.8765 0.50117 0.0
C2547 C 0.63958 0.86316 0.51141 0.0
C2548 C 0.63745 0.89218 0.50792 0.0
C2549 C 0.6373 0.90689 0.49781 0.0
C2550 C 0.64885 0.90927 0.48588 0.0
C2551 C 0.64861 0.9231 0.47633 0.0
C2552 C 0.63694 0.9347 0.47866 0.0
C2553 C 0.62551 0.93251 0.49057 0.0
C2554 C 0.62569 0.9187 0.50015 0.0
C2555 C 0.65521 0.88407 0.57703 0.0
C2556 C 0.64156 0.88812 0.58574 0.0
C2557 C 0.65439 0.88151 0.56046 0.0
C2558 C 0.64 0.88325 0.55233 0.0
C2559 C 0.62639 0.88746 0.56091 0.0
C2560 C 0.62712 0.88969 0.57755 0.0
C2561 C 0.63913 0.88059 0.53482 0.0
C2562 C 0.63775 0.89397 0.5247 0.0
C2563 C 0.64028 0.86503 0.52813 0.0
C2564 C 0.64204 0.85054 0.53834 0.0
C2565 C 0.63054 0.84656 0.54987 0.0
C2566 C 0.63237 0.83294 0.55953 0.0
C2567 C 0.64561 0.82313 0.55768 0.0
C2568 C 0.65702 0.82691 0.54614 0.0
C2569 C 0.65525 0.84053 0.53646 0.0
H2570 H 0.64701 0.81259 0.56517 0.0
H2571 H 0.63677 0.9454 0.47124 0.0
H2572 H 0.86936 0.85859 0.34142 0.0
H2573 H 0.87831 0.85686 0.31349 0.0
H2574 H 0.85977 0.90424 0.30429 0.0
H2575 H 0.85109 0.90624 0.33207 0.0
H2576 H 0.86216 0.85762 0.28576 0.0
H2577 H 0.88289 0.92382 0.27757 0.0
H2578 H 0.89413 0.94586 0.2939 0.0
H2579 H 0.91377 0.91151 0.32675 0.0
H2580 H 0.90294 0.88923 0.31043 0.0
H2581 H 0.86318 0.88253 0.20481 0.0
H2582 H 0.85948 0.88138 0.23387 0.0
H2583 H 0.90991 0.87844 0.24065 0.0
H2584 H 0.9138 0.87958 0.21153 0.0
H2585 H 0.8955 0.90033 0.26117 0.0
H2586 H 0.88939 0.84546 0.24492 0.0
H2587 H 0.87871 0.82309 0.22864 0.0
H2588 H 0.83184 0.83361 0.24519 0.0
H2589 H 0.84221 0.85622 0.26139 0.0
C2590 C 0.86722 0.86865 0.33346 0.0
C2591 C 0.85957 0.88258 0.33903 0.0
C2592 C 0.87232 0.86763 0.31751 0.0
C2593 C 0.86991 0.88051 0.30691 0.0
C2594 C 0.86205 0.89429 0.31236 0.0
C2595 C 0.85703 0.89536 0.32826 0.0
C2596 C 0.87526 0.87953 0.29002 0.0
C2597 C 0.86953 0.8669 0.28041 0.0
C2598 C 0.88506 0.89155 0.28311 0.0
C2599 C 0.89198 0.90485 0.29283 0.0
C2600 C 0.88969 0.92095 0.28822 0.0
C2601 C 0.89597 0.9335 0.29749 0.0
C2602 C 0.90459 0.9301 0.3114 0.0
C2603 C 0.90703 0.91413 0.31601 0.0
C2604 C 0.90083 0.90154 0.30675 0.0
C2605 C 0.87351 0.88169 0.21245 0.0
C2606 C 0.88879 0.88109 0.20583 0.0
C2607 C 0.87136 0.88095 0.22905 0.0
C2608 C 0.88442 0.87965 0.23934 0.0
C2609 C 0.8997 0.87938 0.23285 0.0
C2610 C 0.90187 0.87999 0.21623 0.0
C2611 C 0.88203 0.87868 0.25689 0.0
C2612 C 0.88829 0.89096 0.2666 0.0
C2613 C 0.87284 0.86628 0.26391 0.0
C2614 C 0.86657 0.85261 0.25428 0.0
C2615 C 0.87679 0.84308 0.245 0.0
C2616 C 0.87079 0.83035 0.2358 0.0
C2617 C 0.8546 0.82695 0.23586 0.0
C2618 C 0.84438 0.83626 0.24515 0.0
C2619 C 0.85031 0.84903 0.25436 0.0
H2620 H 0.84999 0.81709 0.22872 0.0
H2621 H 0.9094 0.93983 0.31858 0.0
H2622 H 0.86273 0.16842 0.95735 0.0
H2623 H 0.8572 0.16064 0.9852 0.0
H2624 H 0.85465 0.11079 0.97091 0.0
H2625 H 0.86053 0.11841 0.94309 0.0
H2626 H 0.8296 0.12319 0.9938 0.0
H2627 H 0.88663 0.12024 0.98504 0.0
H2628 H 0.91223 0.1318 0.97665 0.0
H2629 H 0.9073 0.16965 0.01146 0.0
H2630 H 0.88153 0.15843 0.01988 0.0
H2631 H 0.83967 0.07819 0.06432 0.0
H2632 H 0.841 0.08974 0.0374 0.0
H2633 H 0.85833 0.13449 0.05733 0.0
H2634 H 0.85757 0.12275 0.08428 0.0
H2635 H 0.87451 0.12753 0.03202 0.0
H2636 H 0.81979 0.13016 0.04346 0.0
H2637 H 0.7936 0.12051 0.05225 0.0
H2638 H 0.79257 0.08643 0.01342 0.0
H2639 H 0.8189 0.09568 0.00455 0.0
C2640 C 0.86081 0.15582 0.96012 0.0
C2641 C 0.86216 0.14399 0.94812 0.0
C2642 C 0.85765 0.15143 0.97599 0.0
C2643 C 0.85556 0.13517 0.98 0.0
C2644 C 0.8562 0.1234 0.96795 0.0
C2645 C 0.85964 0.12775 0.95213 0.0
C2646 C 0.85388 0.13031 0.99695 0.0
C2647 C 0.8394 0.12399 0.00219 0.0
C2648 C 0.86655 0.13197 0.0079 0.0
C2649 C 0.88209 0.13861 0.00295 0.0
C2650 C 0.89094 0.13111 0.9908 0.0
C2651 C 0.90549 0.13758 0.98606 0.0
C2652 C 0.91136 0.15148 0.99348 0.0
C2653 C 0.90272 0.1589 0.0057 0.0
C2654 C 0.88815 0.15249 0.01046 0.0
C2655 C 0.84376 0.09049 0.06296 0.0
C2656 C 0.84849 0.09959 0.07637 0.0
C2657 C 0.8444 0.09713 0.04759 0.0
C2658 C 0.84947 0.11309 0.04537 0.0
C2659 C 0.85431 0.12217 0.05877 0.0
C2660 C 0.85387 0.11545 0.07415 0.0
C2661 C 0.85023 0.12006 0.02899 0.0
C2662 C 0.86457 0.12683 0.0238 0.0
C2663 C 0.8373 0.1191 0.01819 0.0
C2664 C 0.8214 0.11353 0.02341 0.0
C2665 C 0.81404 0.12052 0.03686 0.0
C2666 C 0.79916 0.11514 0.04185 0.0
C2667 C 0.79144 0.10284 0.03342 0.0
C2668 C 0.79858 0.09594 0.01995 0.0
C2669 C 0.81348 0.10126 0.01492 0.0
H2670 H 0.77992 0.09869 0.0373 0.0
H2671 H 0.92263 0.15647 0.9898 0.0
H2672 H 0.78568 0.58597 0.89387 0.0
H2673 H 0.75796 0.59205 0.89952 0.0
H2674 H 0.75708 0.62453 0.85901 0.0
H2675 H 0.78498 0.61922 0.85404 0.0
H2676 H 0.74434 0.63855 0.88168 0.0
H2677 H 0.73737 0.58598 0.86001 0.0
H2678 H 0.74185 0.55684 0.85695 0.0
H2679 H 0.72604 0.54889 0.90533 0.0
H2680 H 0.72166 0.57802 0.90876 0.0
H2681 H 0.65393 0.62867 0.88923 0.0
H2682 H 0.67903 0.61624 0.88129 0.0
H2683 H 0.7031 0.64266 0.91878 0.0
H2684 H 0.67832 0.65541 0.92636 0.0
H2685 H 0.7026 0.59839 0.89447 0.0
H2686 H 0.73604 0.65892 0.90454 0.0
H2687 H 0.73038 0.68802 0.90403 0.0
H2688 H 0.69159 0.67967 0.87172 0.0
H2689 H 0.69716 0.65057 0.87184 0.0
C2690 C 0.77949 0.59433 0.88616 0.0
C2691 C 0.78743 0.60224 0.87362 0.0
C2692 C 0.76361 0.5977 0.88929 0.0
C2693 C 0.7553 0.60863 0.87958 0.0
C2694 C 0.7632 0.61613 0.86674 0.0
C2695 C 0.77915 0.6131 0.8639 0.0
C2696 C 0.73879 0.61323 0.88346 0.0
C2697 C 0.73525 0.62969 0.88436 0.0
C2698 C 0.72674 0.60176 0.88671 0.0
C2699 C 0.7293 0.58421 0.88468 0.0
C2700 C 0.73495 0.57804 0.87003 0.0
C2701 C 0.73746 0.56151 0.86823 0.0
C2702 C 0.73427 0.55102 0.88095 0.0
C2703 C 0.72852 0.55703 0.89549 0.0
C2704 C 0.726 0.57354 0.89737 0.0
C2705 C 0.66456 0.63159 0.89591 0.0
C2706 C 0.66429 0.6432 0.9082 0.0
C2707 C 0.67885 0.62447 0.8914 0.0
C2708 C 0.69295 0.62881 0.89923 0.0
C2709 C 0.69241 0.63942 0.91235 0.0
C2710 C 0.67825 0.64669 0.91667 0.0
C2711 C 0.70846 0.62358 0.89292 0.0
C2712 C 0.71176 0.6071 0.89162 0.0
C2713 C 0.72019 0.635 0.88869 0.0
C2714 C 0.71694 0.65255 0.88833 0.0
C2715 C 0.72635 0.66331 0.89727 0.0
C2716 C 0.72315 0.6798 0.89705 0.0
C2717 C 0.7106 0.68568 0.88789 0.0
C2718 C 0.70127 0.67509 0.87886 0.0
C2719 C 0.70444 0.6586 0.879 0.0
H2720 H 0.70813 0.69845 0.88776 0.0
H2721 H 0.73622 0.53824 0.87952 0.0
H2722 H 0.29169 0.90785 0.12008 0.0
H2723 H 0.26329 0.90285 0.11791 0.0
H2724 H 0.27139 0.85172 0.12131 0.0
H2725 H 0.29978 0.85658 0.12302 0.0
H2726 H 0.25374 0.85745 0.09693 0.0
H2727 H 0.25308 0.87344 0.15185 0.0
H2728 H 0.25873 0.89076 0.17527 0.0
H2729 H 0.23158 0.92885 0.15424 0.0
H2730 H 0.22595 0.91184 0.13057 0.0
H2731 H 0.16596 0.84775 0.11512 0.0
H2732 H 0.19161 0.85715 0.12541 0.0
H2733 H 0.20375 0.87469 0.07818 0.0
H2734 H 0.17849 0.86482 0.06778 0.0
H2735 H 0.21064 0.88429 0.12704 0.0
H2736 H 0.23934 0.86133 0.06837 0.0
H2737 H 0.23352 0.84203 0.04656 0.0
H2738 H 0.205 0.81385 0.07875 0.0
H2739 H 0.21085 0.83284 0.10079 0.0
C2740 C 0.28741 0.89555 0.12059 0.0
C2741 C 0.29801 0.8826 0.12156 0.0
C2742 C 0.27115 0.89272 0.11944 0.0
C2743 C 0.26518 0.87691 0.11952 0.0
C2744 C 0.27572 0.86402 0.12116 0.0
C2745 C 0.29196 0.86682 0.12212 0.0
C2746 C 0.2482 0.87369 0.11634 0.0
C2747 C 0.24437 0.8633 0.1036 0.0
C2748 C 0.23591 0.88114 0.12513 0.0
C2749 C 0.23921 0.8914 0.13937 0.0
C2750 C 0.24842 0.88555 0.15216 0.0
C2751 C 0.2516 0.89531 0.16549 0.0
C2752 C 0.24555 0.9109 0.16623 0.0
C2753 C 0.23627 0.91677 0.15365 0.0
C2754 C 0.23306 0.90707 0.14028 0.0
C2755 C 0.17396 0.854 0.10708 0.0
C2756 C 0.17046 0.8553 0.09062 0.0
C2757 C 0.18857 0.85939 0.11296 0.0
C2758 C 0.1997 0.86626 0.10246 0.0
C2759 C 0.19545 0.86911 0.0864 0.0
C2760 C 0.18104 0.86347 0.08048 0.0
C2761 C 0.21638 0.86835 0.1075 0.0
C2762 C 0.22011 0.87847 0.12049 0.0
C2763 C 0.22866 0.86034 0.09925 0.0
C2764 C 0.22543 0.84859 0.08618 0.0
C2765 C 0.23191 0.85096 0.0708 0.0
C2766 C 0.22859 0.84008 0.0584 0.0
C2767 C 0.21886 0.82674 0.06125 0.0
C2768 C 0.2125 0.8242 0.07654 0.0
C2769 C 0.21581 0.83502 0.08899 0.0
H2770 H 0.21627 0.81836 0.05162 0.0
H2771 H 0.24803 0.91844 0.17656 0.0
H2772 H 0.88447 0.55725 0.85121 0.0
H2773 H 0.89024 0.52854 0.84979 0.0
H2774 H 0.84664 0.51776 0.87442 0.0
H2775 H 0.84073 0.54649 0.87601 0.0
H2776 H 0.87245 0.49968 0.88538 0.0
H2777 H 0.84719 0.51347 0.83567 0.0
H2778 H 0.84337 0.52972 0.81121 0.0
H2779 H 0.88987 0.51724 0.79496 0.0
H2780 H 0.89409 0.50115 0.81949 0.0
H2781 H 0.87717 0.41605 0.86605 0.0
H2782 H 0.86711 0.44355 0.86875 0.0
H2783 H 0.90602 0.46128 0.84017 0.0
H2784 H 0.91586 0.43395 0.83714 0.0
H2785 H 0.8795 0.47529 0.83139 0.0
H2786 H 0.90597 0.46392 0.88155 0.0
H2787 H 0.911 0.44873 0.90647 0.0
H2788 H 0.86339 0.4572 0.92202 0.0
H2789 H 0.85802 0.47228 0.89707 0.0
C2790 C 0.87615 0.54882 0.85646 0.0
C2791 C 0.86208 0.55416 0.86362 0.0
C2792 C 0.87945 0.53242 0.85558 0.0
C2793 C 0.86875 0.5211 0.86182 0.0
C2794 C 0.85499 0.52637 0.86949 0.0
C2795 C 0.85163 0.54277 0.87032 0.0
C2796 C 0.87176 0.50373 0.85983 0.0
C2797 C 0.87373 0.49424 0.87359 0.0
C2798 C 0.87363 0.49681 0.84443 0.0
C2799 C 0.871 0.50619 0.82949 0.0
C2800 C 0.85664 0.51427 0.82694 0.0
C2801 C 0.8544 0.52345 0.81305 0.0
C2802 C 0.86638 0.52454 0.80155 0.0
C2803 C 0.8806 0.5164 0.80389 0.0
C2804 C 0.88292 0.50723 0.81777 0.0
C2805 C 0.88351 0.42583 0.86031 0.0
C2806 C 0.89733 0.4229 0.85146 0.0
C2807 C 0.8778 0.44151 0.8619 0.0
C2808 C 0.88593 0.45446 0.8548 0.0
C2809 C 0.89956 0.45146 0.84572 0.0
C2810 C 0.90519 0.43584 0.84405 0.0
C2811 C 0.88054 0.47123 0.85696 0.0
C2812 C 0.87805 0.48064 0.8432 0.0
C2813 C 0.87831 0.47809 0.87237 0.0
C2814 C 0.88154 0.46905 0.88736 0.0
C2815 C 0.89654 0.46243 0.89022 0.0
C2816 C 0.89946 0.45386 0.90436 0.0
C2817 C 0.88751 0.45196 0.9158 0.0
C2818 C 0.87263 0.45866 0.91313 0.0
C2819 C 0.86964 0.46722 0.899 0.0
H2820 H 0.8898 0.44533 0.92674 0.0
H2821 H 0.86463 0.53167 0.79082 0.0
H2822 H 0.20518 0.12455 0.62259 0.0
H2823 H 0.2319 0.13156 0.61377 0.0
H2824 H 0.24521 0.08158 0.61597 0.0
H2825 H 0.21823 0.07436 0.62441 0.0
H2826 H 0.26647 0.10847 0.63219 0.0
H2827 H 0.24178 0.09087 0.5827 0.0
H2828 H 0.22028 0.09041 0.56269 0.0
H2829 H 0.22632 0.14113 0.55476 0.0
H2830 H 0.24763 0.14197 0.57501 0.0
H2831 H 0.3408 0.128 0.59525 0.0
H2832 H 0.31648 0.11443 0.60402 0.0
H2833 H 0.28893 0.15357 0.58478 0.0
H2834 H 0.31302 0.16663 0.57535 0.0
H2835 H 0.27566 0.12758 0.57649 0.0
H2836 H 0.2966 0.14732 0.62674 0.0
H2837 H 0.31645 0.15054 0.64825 0.0
H2838 H 0.31618 0.09947 0.65618 0.0
H2839 H 0.29646 0.09593 0.63457 0.0
C2840 C 0.21379 0.11505 0.62124 0.0
C2841 C 0.20968 0.09892 0.62417 0.0
C2842 C 0.22901 0.11907 0.61619 0.0
C2843 C 0.24042 0.10707 0.61425 0.0
C2844 C 0.23649 0.09097 0.61744 0.0
C2845 C 0.22112 0.08688 0.62218 0.0
C2846 C 0.25637 0.11156 0.60867 0.0
C2847 C 0.26866 0.11235 0.61994 0.0
C2848 C 0.25892 0.11702 0.59282 0.0
C2849 C 0.24621 0.1165 0.5805 0.0
C2850 C 0.23842 0.10196 0.57682 0.0
C2851 C 0.22628 0.10163 0.56541 0.0
C2852 C 0.22191 0.11574 0.55749 0.0
C2853 C 0.22971 0.13021 0.56092 0.0
C2854 C 0.24181 0.13062 0.57237 0.0
C2855 C 0.32953 0.13372 0.59305 0.0
C2856 C 0.32875 0.14834 0.58463 0.0
C2857 C 0.31564 0.12599 0.59808 0.0
C2858 C 0.30083 0.13301 0.59516 0.0
C2859 C 0.30017 0.14781 0.58706 0.0
C2860 C 0.31395 0.15532 0.58174 0.0
C2861 C 0.28588 0.12496 0.60012 0.0
C2862 C 0.27369 0.12349 0.58871 0.0
C2863 C 0.28333 0.11925 0.61596 0.0
C2864 C 0.29522 0.12135 0.62891 0.0
C2865 C 0.30088 0.13677 0.63298 0.0
C2866 C 0.31208 0.13865 0.64521 0.0
C2867 C 0.31762 0.12521 0.65354 0.0
C2868 C 0.31192 0.10987 0.64969 0.0
C2869 C 0.30072 0.10791 0.63746 0.0
H2870 H 0.32629 0.1267 0.66301 0.0
H2871 H 0.2125 0.11546 0.54867 0.0
H2872 H 0.17526 0.96578 0.86531 0.0
H2873 H 0.16953 0.99442 0.86108 0.0
H2874 H 0.12015 0.98299 0.85465 0.0
H2875 H 0.1257 0.95451 0.85923 0.0
H2876 H 0.13344 0.00791 0.83285 0.0
H2877 H 0.1298 0.99216 0.88972 0.0
H2878 H 0.14107 0.98069 0.91452 0.0
H2879 H 0.17865 0.01562 0.91331 0.0
H2880 H 0.1677 0.02714 0.88833 0.0
H2881 H 0.08334 0.06991 0.85277 0.0
H2882 H 0.09739 0.04439 0.85295 0.0
H2883 H 0.13994 0.06873 0.86845 0.0
H2884 H 0.12579 0.09442 0.86862 0.0
H2885 H 0.13594 0.03968 0.88342 0.0
H2886 H 0.13572 0.05991 0.83061 0.0
H2887 H 0.12372 0.0724 0.80677 0.0
H2888 H 0.09518 0.03019 0.79913 0.0
H2889 H 0.10649 0.01769 0.82338 0.0
C2890 C 0.16325 0.96938 0.86267 0.0
C2891 C 0.15088 0.95803 0.86275 0.0
C2892 C 0.16001 0.98569 0.86025 0.0
C2893 C 0.14443 0.99073 0.85759 0.0
C2894 C 0.13226 0.97927 0.85661 0.0
C2895 C 0.13542 0.96305 0.85934 0.0
C2896 C 0.14036 0.00797 0.85776 0.0
C2897 C 0.13401 0.01493 0.84384 0.0
C2898 C 0.14159 0.01718 0.87202 0.0
C2899 C 0.14806 0.01036 0.88708 0.0
C2900 C 0.14054 0.99729 0.89467 0.0
C2901 C 0.14685 0.99081 0.90876 0.0
C2902 C 0.1606 0.99739 0.91546 0.0
C2903 C 0.16803 0.01051 0.90809 0.0
C2904 C 0.16178 0.01702 0.89397 0.0
C2905 C 0.09563 0.06983 0.85639 0.0
C2906 C 0.10353 0.08416 0.86048 0.0
C2907 C 0.10366 0.05526 0.85643 0.0
C2908 C 0.11978 0.05478 0.86034 0.0
C2909 C 0.12752 0.06892 0.86526 0.0
C2910 C 0.11944 0.08355 0.86533 0.0
C2911 C 0.1285 0.0395 0.85865 0.0
C2912 C 0.13573 0.0329 0.87227 0.0
C2913 C 0.12827 0.03074 0.84403 0.0
C2914 C 0.12191 0.03788 0.82895 0.0
C2915 C 0.12679 0.05332 0.82395 0.0
C2916 C 0.12004 0.06044 0.8104 0.0
C2917 C 0.10868 0.0521 0.80144 0.0
C2918 C 0.10399 0.03664 0.80607 0.0
C2919 C 0.11054 0.02954 0.81977 0.0
H2920 H 0.10353 0.05762 0.79089 0.0
H2921 H 0.16547 0.99236 0.92637 0.0
H2922 H 0.81696 0.33746 0.41823 0.0
H2923 H 0.79213 0.3502 0.41102 0.0
H2924 H 0.8175 0.38814 0.38668 0.0
H2925 H 0.8427 0.37533 0.39385 0.0
H2926 H 0.78905 0.39756 0.4068 0.0
H2927 H 0.80443 0.36341 0.36314 0.0
H2928 H 0.81478 0.33848 0.35109 0.0
H2929 H 0.77614 0.31157 0.37124 0.0
H2930 H 0.76569 0.3363 0.38363 0.0
H2931 H 0.7124 0.41544 0.37251 0.0
H2932 H 0.74096 0.41144 0.37511 0.0
H2933 H 0.7326 0.36393 0.39431 0.0
H2934 H 0.70426 0.36767 0.39158 0.0
H2935 H 0.75509 0.3635 0.37175 0.0
H2936 H 0.74214 0.396 0.41852 0.0
H2937 H 0.73182 0.42017 0.43209 0.0
H2938 H 0.76556 0.44967 0.40705 0.0
H2939 H 0.77594 0.42567 0.39317 0.0
C2940 C 0.81735 0.34861 0.41151 0.0
C2941 C 0.83178 0.3553 0.40644 0.0
C2942 C 0.80313 0.35588 0.40742 0.0
C2943 C 0.80304 0.36997 0.39819 0.0
C2944 C 0.8174 0.37723 0.39381 0.0
C2945 C 0.83174 0.36989 0.39787 0.0
C2946 C 0.78776 0.37613 0.39229 0.0
C2947 C 0.78171 0.39038 0.39881 0.0
C2948 C 0.77823 0.36659 0.38203 0.0
C2949 C 0.78432 0.35171 0.37438 0.0
C2950 C 0.79819 0.35216 0.36509 0.0
C2951 C 0.80407 0.33806 0.35819 0.0
C2952 C 0.79614 0.32345 0.36041 0.0
C2953 C 0.78228 0.3229 0.36952 0.0
C2954 C 0.77635 0.33696 0.37646 0.0
C2955 C 0.71665 0.40414 0.37728 0.0
C2956 C 0.70601 0.39186 0.3818 0.0
C2957 C 0.73297 0.40191 0.3788 0.0
C2958 C 0.73888 0.38741 0.38495 0.0
C2959 C 0.72829 0.37518 0.38945 0.0
C2960 C 0.71206 0.37737 0.38792 0.0
C2961 C 0.75607 0.38466 0.38673 0.0
C2962 C 0.7625 0.37098 0.37939 0.0
C2963 C 0.76587 0.3947 0.39628 0.0
C2964 C 0.75968 0.40909 0.40466 0.0
C2965 C 0.74727 0.40766 0.41581 0.0
C2966 C 0.74142 0.42132 0.42357 0.0
C2967 C 0.74799 0.43645 0.42039 0.0
C2968 C 0.76046 0.43794 0.40947 0.0
C2969 C 0.76633 0.42432 0.40166 0.0
H2970 H 0.74346 0.44701 0.42641 0.0
H2971 H 0.80071 0.31254 0.35507 0.0
H2972 H 0.87428 0.44734 0.65828 0.0
H2973 H 0.87772 0.47659 0.65803 0.0
H2974 H 0.83926 0.48093 0.62431 0.0
H2975 H 0.83561 0.4517 0.62456 0.0
H2976 H 0.86748 0.49736 0.61526 0.0
H2977 H 0.83269 0.49264 0.66058 0.0
H2978 H 0.82382 0.48179 0.68665 0.0
H2979 H 0.86636 0.49916 0.70906 0.0
H2980 H 0.8756 0.5099 0.68306 0.0
H2981 H 0.87153 0.58305 0.61719 0.0
H2982 H 0.86145 0.55537 0.61792 0.0
H2983 H 0.89113 0.54544 0.65892 0.0
H2984 H 0.90074 0.57306 0.65864 0.0
H2985 H 0.86403 0.53219 0.66359 0.0
H2986 H 0.90067 0.53378 0.61933 0.0
H2987 H 0.91157 0.54351 0.59361 0.0
H2988 H 0.86823 0.53101 0.56966 0.0
H2989 H 0.85699 0.52139 0.5953 0.0
C2990 C 0.86646 0.45452 0.65091 0.0
C2991 C 0.85468 0.44719 0.64142 0.0
C2992 C 0.86841 0.47122 0.65083 0.0
C2993 C 0.8587 0.48087 0.64119 0.0
C2994 C 0.84684 0.47365 0.63184 0.0
C2995 C 0.84474 0.45696 0.63206 0.0
C2996 C 0.86145 0.49844 0.64037 0.0
C2997 C 0.86645 0.50508 0.62573 0.0
C2998 C 0.86048 0.50832 0.65416 0.0
C2999 C 0.85489 0.50197 0.66984 0.0
C3000 C 0.84022 0.49403 0.67104 0.0
C3001 C 0.83511 0.48792 0.68581 0.0
C3002 C 0.84454 0.48975 0.6995 0.0
C3003 C 0.85908 0.49774 0.69845 0.0
C3004 C 0.86424 0.50386 0.6837 0.0
C3005 C 0.87586 0.57497 0.62637 0.0
C3006 C 0.88697 0.58026 0.63782 0.0
C3007 C 0.87013 0.55913 0.62675 0.0
C3008 C 0.87567 0.54824 0.63836 0.0
C3009 C 0.88662 0.5536 0.64988 0.0
C3010 C 0.89215 0.56943 0.64966 0.0
C3011 C 0.87039 0.53117 0.63851 0.0
C3012 C 0.8649 0.52457 0.65303 0.0
C3013 C 0.8712 0.52125 0.62467 0.0
C3014 C 0.87792 0.52705 0.60926 0.0
C3015 C 0.89342 0.53323 0.6086 0.0
C3016 C 0.89967 0.5387 0.59404 0.0
C3017 C 0.89058 0.53793 0.58002 0.0
C3018 C 0.87524 0.53163 0.58054 0.0
C3019 C 0.86892 0.52617 0.59508 0.0
H3020 H 0.89544 0.54216 0.56876 0.0
H3021 H 0.84056 0.48501 0.71092 0.0
H3022 H 0.61267 0.55133 0.12321 0.0
H3023 H 0.60897 0.52228 0.12009 0.0
H3024 H 0.64897 0.51398 0.1513 0.0
H3025 H 0.65339 0.54306 0.15327 0.0
H3026 H 0.65083 0.49403 0.1293 0.0
H3027 H 0.60745 0.50951 0.16283 0.0
H3028 H 0.58384 0.52485 0.17079 0.0
H3029 H 0.55912 0.50764 0.12901 0.0
H3030 H 0.58267 0.49235 0.1207 0.0
H3031 H 0.6228 0.41577 0.15733 0.0
H3032 H 0.62835 0.44468 0.15576 0.0
H3033 H 0.61236 0.44521 0.10655 0.0
H3034 H 0.6072 0.4161 0.10783 0.0
H3035 H 0.59815 0.46834 0.13569 0.0
H3036 H 0.64397 0.4517 0.10401 0.0
H3037 H 0.66786 0.43537 0.09974 0.0
H3038 H 0.68802 0.45401 0.14339 0.0
H3039 H 0.66413 0.47027 0.14803 0.0
C3040 C 0.62058 0.54323 0.12943 0.0
C3041 C 0.63323 0.54928 0.13855 0.0
C3042 C 0.61843 0.52664 0.12773 0.0
C3043 C 0.62848 0.51584 0.13573 0.0
C3044 C 0.64106 0.522 0.14498 0.0
C3045 C 0.64354 0.53858 0.14619 0.0
C3046 C 0.62612 0.49816 0.13425 0.0
C3047 C 0.63929 0.48849 0.13084 0.0
C3048 C 0.61106 0.49078 0.13606 0.0
C3049 C 0.59688 0.49993 0.14106 0.0
C3050 C 0.59702 0.50909 0.15529 0.0
C3051 C 0.58364 0.51776 0.15987 0.0
C3052 C 0.57 0.51725 0.15039 0.0
C3053 C 0.5697 0.50804 0.13633 0.0
C3054 C 0.58305 0.49936 0.13168 0.0
C3055 C 0.62067 0.422 0.1461 0.0
C3056 C 0.61457 0.41374 0.13269 0.0
C3057 C 0.62386 0.43846 0.14524 0.0
C3058 C 0.62076 0.44693 0.13105 0.0
C3059 C 0.61488 0.43874 0.11756 0.0
C3060 C 0.61201 0.42217 0.11829 0.0
C3061 C 0.62279 0.46454 0.13081 0.0
C3062 C 0.60958 0.47409 0.134 0.0
C3063 C 0.63782 0.47175 0.12928 0.0
C3064 C 0.6522 0.46204 0.12645 0.0
C3065 C 0.65342 0.45217 0.11278 0.0
C3066 C 0.66698 0.44297 0.11027 0.0
C3067 C 0.67943 0.44361 0.12131 0.0
C3068 C 0.67836 0.4535 0.13486 0.0
C3069 C 0.66482 0.46272 0.13743 0.0
H3070 H 0.68992 0.43648 0.11934 0.0
H3071 H 0.55966 0.52397 0.15395 0.0
H3072 H 0.61577 0.71866 0.92129 0.0
H3073 H 0.6077 0.74454 0.91019 0.0
H3074 H 0.62324 0.72962 0.86315 0.0
H3075 H 0.63114 0.70347 0.87413 0.0
H3076 H 0.63313 0.76139 0.87272 0.0
H3077 H 0.58673 0.72885 0.86831 0.0
H3078 H 0.56661 0.70979 0.87834 0.0
H3079 H 0.55155 0.74454 0.91327 0.0
H3080 H 0.57182 0.7637 0.90368 0.0
H3081 H 0.57407 0.8227 0.83844 0.0
H3082 H 0.5798 0.79511 0.84685 0.0
H3083 H 0.61108 0.81323 0.88371 0.0
H3084 H 0.60544 0.84084 0.87538 0.0
H3085 H 0.57701 0.77833 0.87575 0.0
H3086 H 0.64419 0.78982 0.88291 0.0
H3087 H 0.6648 0.8079 0.87208 0.0
H3088 H 0.63803 0.81369 0.82861 0.0
H3089 H 0.61739 0.79546 0.83907 0.0
C3090 C 0.6175 0.72087 0.90859 0.0
C3091 C 0.624 0.70903 0.89854 0.0
C3092 C 0.61286 0.73563 0.90228 0.0
C3093 C 0.61478 0.73886 0.88587 0.0
C3094 C 0.62165 0.72726 0.87585 0.0
C3095 C 0.62611 0.71237 0.88213 0.0
C3096 C 0.60948 0.75438 0.87927 0.0
C3097 C 0.62087 0.7651 0.87331 0.0
C3098 C 0.59343 0.75899 0.87983 0.0
C3099 C 0.5809 0.74768 0.88535 0.0
C3100 C 0.57921 0.7324 0.8782 0.0
C3101 C 0.56777 0.72157 0.8838 0.0
C3102 C 0.55783 0.72594 0.89645 0.0
C3103 C 0.55927 0.74117 0.90348 0.0
C3104 C 0.57073 0.75202 0.89796 0.0
C3105 C 0.58203 0.8208 0.84846 0.0
C3106 C 0.58944 0.83389 0.85617 0.0
C3107 C 0.58524 0.80506 0.85327 0.0
C3108 C 0.596 0.80218 0.86574 0.0
C3109 C 0.60287 0.81524 0.87392 0.0
C3110 C 0.59961 0.83099 0.86918 0.0
C3111 C 0.60076 0.78554 0.86964 0.0
C3112 C 0.58926 0.7746 0.87508 0.0
C3113 C 0.6167 0.78062 0.86838 0.0
C3114 C 0.62918 0.7914 0.86185 0.0
C3115 C 0.64274 0.7949 0.87101 0.0
C3116 C 0.65442 0.80518 0.86494 0.0
C3117 C 0.6527 0.81198 0.84968 0.0
C3118 C 0.63933 0.80846 0.84044 0.0
C3119 C 0.62762 0.79817 0.84645 0.0
H3120 H 0.66176 0.81995 0.84501 0.0
H3121 H 0.54899 0.71754 0.90079 0.0
H3122 H 0.55012 0.38672 0.14679 0.0
H3123 H 0.52149 0.38766 0.14313 0.0
H3124 H 0.5239 0.34697 0.11091 0.0
H3125 H 0.55262 0.34646 0.11397 0.0
H3126 H 0.50507 0.36791 0.09894 0.0
H3127 H 0.51059 0.34424 0.15127 0.0
H3128 H 0.51998 0.34251 0.17928 0.0
H3129 H 0.49602 0.38648 0.1907 0.0
H3130 H 0.48664 0.38858 0.16269 0.0
H3131 H 0.42551 0.34282 0.10015 0.0
H3132 H 0.45382 0.34447 0.1051 0.0
H3133 H 0.44783 0.39033 0.12856 0.0
H3134 H 0.41928 0.38885 0.12366 0.0
H3135 H 0.46804 0.3686 0.14515 0.0
H3136 H 0.46146 0.39067 0.09212 0.0
H3137 H 0.45168 0.39075 0.06419 0.0
H3138 H 0.47747 0.34749 0.05432 0.0
H3139 H 0.48723 0.34702 0.08227 0.0
C3140 C 0.54452 0.37795 0.13896 0.0
C3141 C 0.55357 0.36652 0.13066 0.0
C3142 C 0.52815 0.37845 0.13694 0.0
C3143 C 0.52048 0.36723 0.12693 0.0
C3144 C 0.52954 0.35577 0.11867 0.0
C3145 C 0.54594 0.35547 0.12044 0.0
C3146 C 0.50308 0.3676 0.12478 0.0
C3147 C 0.497 0.36786 0.10907 0.0
C3148 C 0.4925 0.36793 0.13798 0.0
C3149 C 0.49805 0.36664 0.15485 0.0
C3150 C 0.50741 0.35359 0.15973 0.0
C3151 C 0.51272 0.35254 0.17561 0.0
C3152 C 0.50863 0.3644 0.18675 0.0
C3153 C 0.49919 0.37731 0.18205 0.0
C3154 C 0.49387 0.37843 0.16618 0.0
C3155 C 0.43012 0.35328 0.10641 0.0
C3156 C 0.42009 0.36576 0.11143 0.0
C3157 C 0.44634 0.3542 0.10918 0.0
C3158 C 0.45289 0.36759 0.11703 0.0
C3159 C 0.44295 0.37992 0.12243 0.0
C3160 C 0.42667 0.37907 0.11957 0.0
C3161 C 0.47017 0.36868 0.11938 0.0
C3162 C 0.47618 0.36872 0.13509 0.0
C3163 C 0.4807 0.36839 0.1062 0.0
C3164 C 0.47498 0.36875 0.08933 0.0
C3165 C 0.46496 0.38111 0.08403 0.0
C3166 C 0.45943 0.38124 0.06819 0.0
C3167 C 0.46393 0.36912 0.0575 0.0
C3168 C 0.47399 0.35687 0.06262 0.0
C3169 C 0.47954 0.35668 0.07845 0.0
H3170 H 0.45963 0.36923 0.04524 0.0
H3171 H 0.51276 0.36356 0.19904 0.0
H3172 H 0.89088 0.15743 0.36995 0.0
H3173 H 0.88503 0.18458 0.37947 0.0
H3174 H 0.89809 0.20388 0.33315 0.0
H3175 H 0.90471 0.17681 0.32387 0.0
H3176 H 0.90914 0.22258 0.35496 0.0
H3177 H 0.85834 0.19893 0.34558 0.0
H3178 H 0.83717 0.17853 0.34778 0.0
H3179 H 0.83536 0.18574 0.39886 0.0
H3180 H 0.85667 0.20604 0.39699 0.0
H3181 H 0.87214 0.29872 0.36928 0.0
H3182 H 0.87725 0.27194 0.35802 0.0
H3183 H 0.87597 0.25157 0.40567 0.0
H3184 H 0.87106 0.27824 0.41701 0.0
H3185 H 0.85816 0.23417 0.3819 0.0
H3186 H 0.91003 0.25774 0.39028 0.0
H3187 H 0.93004 0.27915 0.3869 0.0
H3188 H 0.92837 0.27289 0.33569 0.0
H3189 H 0.90815 0.25159 0.33875 0.0
C3190 C 0.89251 0.16747 0.36182 0.0
C3191 C 0.89817 0.16505 0.34616 0.0
C3192 C 0.88907 0.18298 0.36723 0.0
C3193 C 0.8908 0.19627 0.35692 0.0
C3194 C 0.89663 0.19383 0.34131 0.0
C3195 C 0.90037 0.17837 0.33601 0.0
C3196 C 0.88668 0.21271 0.36245 0.0
C3197 C 0.89789 0.22512 0.36062 0.0
C3198 C 0.87206 0.21607 0.37 0.0
C3199 C 0.8592 0.2039 0.37116 0.0
C3200 C 0.8535 0.19609 0.35729 0.0
C3201 C 0.84146 0.18455 0.35848 0.0
C3202 C 0.83495 0.18082 0.37345 0.0
C3203 C 0.84043 0.18864 0.38727 0.0
C3204 C 0.85247 0.20017 0.38615 0.0
C3205 C 0.8729 0.28851 0.37732 0.0
C3206 C 0.87125 0.29052 0.39401 0.0
C3207 C 0.87583 0.27327 0.3709 0.0
C3208 C 0.87701 0.25987 0.38106 0.0
C3209 C 0.87506 0.2618 0.39767 0.0
C3210 C 0.87233 0.27703 0.40411 0.0
C3211 C 0.88063 0.24381 0.37448 0.0
C3212 C 0.86934 0.23153 0.37613 0.0
C3213 C 0.89505 0.24064 0.36656 0.0
C3214 C 0.90746 0.25319 0.36473 0.0
C3215 C 0.91385 0.26101 0.37829 0.0
C3216 C 0.92524 0.27312 0.37643 0.0
C3217 C 0.93044 0.27742 0.36109 0.0
C3218 C 0.92431 0.26956 0.34757 0.0
C3219 C 0.9129 0.25746 0.34936 0.0
H3220 H 0.93924 0.28682 0.35968 0.0
H3221 H 0.82563 0.17188 0.37435 0.0
H3222 H 0.95281 0.64128 0.60947 0.0
H3223 H 0.98138 0.64076 0.60563 0.0
H3224 H 0.98511 0.60215 0.64012 0.0
H3225 H 0.95656 0.6032 0.64458 0.0
H3226 H 0.00724 0.62241 0.64564 0.0
H3227 H 0.98905 0.59637 0.59787 0.0
H3228 H 0.97313 0.59284 0.57326 0.0
H3229 H 0.99353 0.63584 0.55335 0.0
H3230 H 0.00942 0.63975 0.57793 0.0
H3231 H 0.08809 0.60751 0.62178 0.0
H3232 H 0.0597 0.60417 0.62674 0.0
H3233 H 0.05053 0.64853 0.60163 0.0
H3234 H 0.0787 0.65207 0.59671 0.0
H3235 H 0.03164 0.62238 0.59145 0.0
H3236 H 0.04858 0.64859 0.64067 0.0
H3237 H 0.06458 0.65121 0.66533 0.0
H3238 H 0.04665 0.60584 0.68226 0.0
H3239 H 0.03071 0.60285 0.65757 0.0
C3240 C 0.95971 0.63258 0.61612 0.0
C3241 C 0.95247 0.62223 0.62726 0.0
C3242 C 0.97604 0.63223 0.61387 0.0
C3243 C 0.9854 0.6212 0.62235 0.0
C3244 C 0.97815 0.61075 0.63341 0.0
C3245 C 0.96184 0.61133 0.63592 0.0
C3246 C 0.00281 0.62101 0.62013 0.0
C3247 C 0.01256 0.62208 0.63378 0.0
C3248 C 0.00981 0.62078 0.60466 0.0
C3249 C 0.00035 0.61841 0.5898 0.0
C3250 C 0.99007 0.60512 0.58829 0.0
C3251 C 0.98106 0.60305 0.57434 0.0
C3252 C 0.9823 0.61412 0.56176 0.0
C3253 C 0.99258 0.62727 0.5631 0.0
C3254 C 0.00161 0.62941 0.57703 0.0
C3255 C 0.08004 0.61659 0.61739 0.0
C3256 C 0.08569 0.63004 0.60882 0.0
C3257 C 0.06385 0.61467 0.62026 0.0
C3258 C 0.05308 0.6261 0.61452 0.0
C3259 C 0.05868 0.63956 0.6061 0.0
C3260 C 0.07481 0.64158 0.60337 0.0
C3261 C 0.03589 0.624 0.61691 0.0
C3262 C 0.02624 0.62249 0.60328 0.0
C3263 C 0.02901 0.62361 0.63237 0.0
C3264 C 0.03861 0.6254 0.64719 0.0
C3265 C 0.04817 0.6391 0.64958 0.0
C3266 C 0.05721 0.64066 0.66358 0.0
C3267 C 0.05668 0.62867 0.67533 0.0
C3268 C 0.04708 0.6151 0.67313 0.0
C3269 C 0.03804 0.61347 0.65914 0.0
H3270 H 0.06367 0.62991 0.68617 0.0
H3271 H 0.97531 0.6125 0.55098 0.0
H3272 H 0.61269 0.29552 0.61158 0.0
H3273 H 0.60876 0.2702 0.62615 0.0
H3274 H 0.61073 0.24398 0.58143 0.0
H3275 H 0.61495 0.26902 0.56684 0.0
H3276 H 0.58752 0.24538 0.62577 0.0
H3277 H 0.63301 0.2114 0.58603 0.0
H3278 H 0.65711 0.21746 0.57044 0.0
H3279 H 0.66631 0.2587 0.60024 0.0
H3280 H 0.64242 0.25275 0.61615 0.0
H3281 H 0.57893 0.16108 0.63496 0.0
H3282 H 0.58074 0.18918 0.62646 0.0
H3283 H 0.62906 0.19128 0.64322 0.0
H3284 H 0.62755 0.16287 0.65067 0.0
H3285 H 0.62855 0.20397 0.61643 0.0
H3286 H 0.59626 0.21138 0.66266 0.0
H3287 H 0.57379 0.20612 0.68081 0.0
H3288 H 0.54131 0.21969 0.6436 0.0
H3289 H 0.56359 0.2249 0.62516 0.0
C3290 C 0.61214 0.28437 0.60483 0.0
C3291 C 0.61441 0.28426 0.58807 0.0
C3292 C 0.60983 0.26994 0.61318 0.0
C3293 C 0.60974 0.25523 0.60489 0.0
C3294 C 0.61108 0.25519 0.58808 0.0
C3295 C 0.6135 0.26954 0.57977 0.0
C3296 C 0.60931 0.23977 0.61371 0.0
C3297 C 0.59649 0.2363 0.62383 0.0
C3298 C 0.6213 0.22818 0.61155 0.0
C3299 C 0.63584 0.2317 0.60218 0.0
C3300 C 0.64022 0.22171 0.5893 0.0
C3301 C 0.65384 0.22514 0.5804 0.0
C3302 C 0.66321 0.23848 0.58432 0.0
C3303 C 0.65901 0.2484 0.59718 0.0
C3304 C 0.64543 0.24501 0.60613 0.0
C3305 C 0.58988 0.16762 0.63691 0.0
C3306 C 0.60314 0.15986 0.64335 0.0
C3307 C 0.59088 0.18373 0.63219 0.0
C3308 C 0.60498 0.19249 0.63438 0.0
C3309 C 0.61807 0.1848 0.64132 0.0
C3310 C 0.61721 0.16858 0.64558 0.0
C3311 C 0.60652 0.20925 0.62832 0.0
C3312 C 0.6196 0.21301 0.61862 0.0
C3313 C 0.59503 0.22123 0.63136 0.0
C3314 C 0.5816 0.21844 0.6425 0.0
C3315 C 0.58432 0.21319 0.65833 0.0
C3316 C 0.57162 0.21023 0.66867 0.0
C3317 C 0.55614 0.21255 0.66335 0.0
C3318 C 0.55332 0.21791 0.6477 0.0
C3319 C 0.56598 0.2209 0.63731 0.0
H3320 H 0.54633 0.21022 0.67137 0.0
H3321 H 0.67374 0.24112 0.57741 0.0
H3322 H 0.08759 0.37456 0.88031 0.0
H3323 H 0.06076 0.37777 0.86969 0.0
H3324 H 0.04486 0.33782 0.89872 0.0
H3325 H 0.07141 0.33497 0.90976 0.0
H3326 H 0.04035 0.36011 0.85323 0.0
H3327 H 0.00889 0.34482 0.91335 0.0
H3328 H 0.01403 0.34663 0.9425 0.0
H3329 H 0.0467 0.38553 0.93453 0.0
H3330 H 0.0416 0.3841 0.90538 0.0
H3331 H 0.9572 0.35282 0.83872 0.0
H3332 H 0.98499 0.34834 0.84587 0.0
H3333 H 0.98317 0.38858 0.87876 0.0
H3334 H 0.95537 0.39235 0.87239 0.0
H3335 H 0.99702 0.3664 0.89282 0.0
H3336 H 0.00241 0.38935 0.84016 0.0
H3337 H 0.99786 0.39157 0.81096 0.0
H3338 H 0.01813 0.34484 0.8038 0.0
H3339 H 0.02262 0.34226 0.83299 0.0
C3340 C 0.07835 0.36647 0.88437 0.0
C3341 C 0.08147 0.3547 0.89604 0.0
C3342 C 0.06307 0.36825 0.87824 0.0
C3343 C 0.05076 0.35821 0.88362 0.0
C3344 C 0.0541 0.34593 0.89468 0.0
C3345 C 0.06927 0.34432 0.90097 0.0
C3346 C 0.03429 0.36103 0.87835 0.0
C3347 C 0.03085 0.3615 0.86185 0.0
C3348 C 0.02196 0.36316 0.88961 0.0
C3349 C 0.02498 0.36422 0.90717 0.0
C3350 C 0.01713 0.35379 0.91783 0.0
C3351 C 0.02004 0.35475 0.93435 0.0
C3352 C 0.03073 0.36615 0.94036 0.0
C3353 C 0.03848 0.37666 0.92986 0.0
C3354 C 0.03559 0.37577 0.91334 0.0
C3355 C 0.96283 0.36067 0.84744 0.0
C3356 C 0.9542 0.37284 0.8551 0.0
C3357 C 0.9787 0.35819 0.85145 0.0
C3358 C 0.98626 0.36821 0.86278 0.0
C3359 C 0.97762 0.38059 0.8701 0.0
C3360 C 0.96173 0.38276 0.86644 0.0
C3361 C 0.00295 0.36559 0.86761 0.0
C3362 C 0.00646 0.36503 0.88411 0.0
C3363 C 0.01537 0.36401 0.85632 0.0
C3364 C 0.0127 0.36555 0.83877 0.0
C3365 C 0.00579 0.3795 0.83237 0.0
C3366 C 0.00324 0.38083 0.81582 0.0
C3367 C 0.00766 0.36834 0.80553 0.0
C3368 C 0.01469 0.3545 0.81178 0.0
C3369 C 0.01725 0.3531 0.82832 0.0
H3370 H 0.00568 0.36939 0.79272 0.0
H3371 H 0.03298 0.36686 0.95315 0.0
H3372 H 0.88156 0.7209 0.06805 0.0
H3373 H 0.88832 0.74654 0.08061 0.0
H3374 H 0.8838 0.72483 0.12752 0.0
H3375 H 0.87768 0.69889 0.11494 0.0
H3376 H 0.8709 0.76429 0.0977 0.0
H3377 H 0.90539 0.74576 0.15516 0.0
H3378 H 0.92391 0.72466 0.16388 0.0
H3379 H 0.93904 0.71794 0.11509 0.0
H3380 H 0.92078 0.73915 0.10612 0.0
H3381 H 0.86955 0.82985 0.14967 0.0
H3382 H 0.8681 0.80212 0.14003 0.0
H3383 H 0.91831 0.80275 0.1309 0.0
H3384 H 0.91994 0.83033 0.14121 0.0
H3385 H 0.90996 0.77412 0.14117 0.0
H3386 H 0.89122 0.8101 0.1006 0.0
H3387 H 0.87494 0.83189 0.08932 0.0
H3388 H 0.83278 0.80476 0.09945 0.0
H3389 H 0.84881 0.78289 0.11098 0.0
C3390 C 0.88217 0.72154 0.08104 0.0
C3391 C 0.87899 0.70793 0.09053 0.0
C3392 C 0.88603 0.73621 0.08821 0.0
C3393 C 0.88659 0.73764 0.10501 0.0
C3394 C 0.88372 0.72397 0.11453 0.0
C3395 C 0.88014 0.70918 0.10734 0.0
C3396 C 0.88906 0.7537 0.11243 0.0
C3397 C 0.87949 0.7664 0.10717 0.0
C3398 C 0.90039 0.75656 0.12465 0.0
C3399 C 0.91159 0.74394 0.12996 0.0
C3400 C 0.91272 0.73983 0.14631 0.0
C3401 C 0.92316 0.72784 0.15129 0.0
C3402 C 0.93261 0.71993 0.14004 0.0
C3403 C 0.93167 0.72403 0.12379 0.0
C3404 C 0.92126 0.73603 0.11874 0.0
C3405 C 0.88031 0.82403 0.14574 0.0
C3406 C 0.89482 0.83231 0.14598 0.0
C3407 C 0.87946 0.8082 0.14022 0.0
C3408 C 0.89303 0.8005 0.13439 0.0
C3409 C 0.90768 0.80848 0.13529 0.0
C3410 C 0.90858 0.82424 0.14112 0.0
C3411 C 0.89173 0.78456 0.12646 0.0
C3412 C 0.90144 0.77193 0.13166 0.0
C3413 C 0.88088 0.78183 0.11378 0.0
C3414 C 0.87121 0.79493 0.10678 0.0
C3415 C 0.87847 0.80883 0.10052 0.0
C3416 C 0.86929 0.82119 0.09407 0.0
C3417 C 0.85284 0.81973 0.0937 0.0
C3418 C 0.84553 0.80588 0.09975 0.0
C3419 C 0.85465 0.7935 0.10624 0.0
H3420 H 0.84575 0.82931 0.08871 0.0
H3421 H 0.94067 0.71063 0.14392 0.0
H3422 H 0.41086 0.64821 0.37207 0.0
H3423 H 0.438 0.64821 0.36189 0.0
H3424 H 0.4551 0.66205 0.40888 0.0
H3425 H 0.428 0.66292 0.41877 0.0
H3426 H 0.47126 0.67731 0.38807 0.0
H3427 H 0.45576 0.62177 0.39386 0.0
H3428 H 0.4392 0.59765 0.38939 0.0
H3429 H 0.44788 0.60054 0.33863 0.0
H3430 H 0.46435 0.62481 0.34278 0.0
H3431 H 0.54887 0.64385 0.38643 0.0
H3432 H 0.52107 0.64999 0.39164 0.0
H3433 H 0.51136 0.64844 0.34076 0.0
H3434 H 0.5392 0.64254 0.33541 0.0
H3435 H 0.49139 0.6285 0.36065 0.0
H3436 H 0.51022 0.68305 0.35698 0.0
H3437 H 0.52807 0.70568 0.36355 0.0
H3438 H 0.51438 0.70281 0.41315 0.0
H3439 H 0.49661 0.67999 0.40692 0.0
C3440 C 0.42044 0.65131 0.38016 0.0
C3441 C 0.41739 0.65546 0.39621 0.0
C3442 C 0.43594 0.65125 0.37437 0.0
C3443 C 0.44866 0.65485 0.38469 0.0
C3444 C 0.44552 0.65926 0.40066 0.0
C3445 C 0.43003 0.65968 0.40633 0.0
C3446 C 0.46527 0.65367 0.37909 0.0
C3447 C 0.47566 0.66657 0.38218 0.0
C3448 C 0.47101 0.63979 0.37114 0.0
C3449 C 0.46112 0.62521 0.36861 0.0
C3450 C 0.45404 0.61733 0.38173 0.0
C3451 C 0.44469 0.60362 0.37926 0.0
C3452 C 0.44245 0.5976 0.36373 0.0
C3453 C 0.4496 0.60524 0.35065 0.0
C3454 C 0.45895 0.61897 0.35305 0.0
C3455 C 0.54085 0.64501 0.37635 0.0
C3456 C 0.54615 0.64269 0.36053 0.0
C3457 C 0.52502 0.64856 0.37933 0.0
C3458 C 0.51425 0.64969 0.36656 0.0
C3459 C 0.51955 0.64764 0.35074 0.0
C3460 C 0.53543 0.64433 0.34772 0.0
C3461 C 0.49728 0.65199 0.36986 0.0
C3462 C 0.48688 0.63929 0.36636 0.0
C3463 C 0.49163 0.66587 0.37774 0.0
C3464 C 0.50216 0.67973 0.38149 0.0
C3465 C 0.5111 0.68716 0.36931 0.0
C3466 C 0.52119 0.70004 0.37297 0.0
C3467 C 0.52238 0.70566 0.38876 0.0
C3468 C 0.51345 0.69844 0.40092 0.0
C3469 C 0.50335 0.68555 0.39733 0.0
H3470 H 0.53018 0.71564 0.39156 0.0
H3471 H 0.43521 0.58698 0.36184 0.0
H3472 H 0.85985 0.62053 0.82908 0.0
H3473 H 0.87241 0.62129 0.80265 0.0
H3474 H 0.84994 0.57614 0.79032 0.0
H3475 H 0.83678 0.57573 0.8165 0.0
H3476 H 0.89228 0.6038 0.78659 0.0
H3477 H 0.84047 0.57569 0.75115 0.0
H3478 H 0.81152 0.57247 0.75321 0.0
H3479 H 0.80888 0.61557 0.7816 0.0
H3480 H 0.83777 0.61913 0.77954 0.0
H3481 H 0.91587 0.59661 0.70402 0.0
H3482 H 0.90646 0.59069 0.73128 0.0
H3483 H 0.86985 0.62627 0.7258 0.0
H3484 H 0.87881 0.63176 0.69855 0.0
H3485 H 0.85779 0.60085 0.73842 0.0
H3486 H 0.9045 0.63296 0.74825 0.0
H3487 H 0.93284 0.6398 0.74642 0.0
H3488 H 0.94471 0.59524 0.76947 0.0
H3489 H 0.91642 0.58805 0.77126 0.0
C3490 C 0.8576 0.61078 0.82071 0.0
C3491 C 0.84714 0.59823 0.82467 0.0
C3492 C 0.86487 0.61116 0.80567 0.0
C3493 C 0.86194 0.5989 0.79441 0.0
C3494 C 0.85209 0.58593 0.79868 0.0
C3495 C 0.84458 0.5857 0.81361 0.0
C3496 C 0.8685 0.60024 0.77795 0.0
C3497 C 0.88476 0.60307 0.77604 0.0
C3498 C 0.85867 0.59946 0.76419 0.0
C3499 C 0.84128 0.59755 0.76534 0.0
C3500 C 0.83369 0.58449 0.75779 0.0
C3501 C 0.8173 0.58261 0.75896 0.0
C3502 C 0.80837 0.59378 0.76758 0.0
C3503 C 0.81581 0.60689 0.77498 0.0
C3504 C 0.83219 0.60884 0.77383 0.0
C3505 C 0.90586 0.60317 0.7087 0.0
C3506 C 0.89805 0.61462 0.6992 0.0
C3507 C 0.90052 0.59982 0.72426 0.0
C3508 C 0.88749 0.6081 0.73061 0.0
C3509 C 0.87984 0.61964 0.72113 0.0
C3510 C 0.88501 0.62281 0.70557 0.0
C3511 C 0.88153 0.60477 0.74704 0.0
C3512 C 0.86537 0.60141 0.74893 0.0
C3513 C 0.89138 0.60559 0.76078 0.0
C3514 C 0.90837 0.60989 0.75972 0.0
C3515 C 0.91316 0.62457 0.75281 0.0
C3516 C 0.92921 0.62852 0.7518 0.0
C3517 C 0.94057 0.61793 0.75777 0.0
C3518 C 0.9359 0.60341 0.76481 0.0
C3519 C 0.91986 0.5994 0.76584 0.0
H3520 H 0.95299 0.62101 0.75698 0.0
H3521 H 0.79569 0.59229 0.76849 0.0
H3522 H 0.66247 0.59967 0.08595 0.0
H3523 H 0.65994 0.60606 0.05743 0.0
H3524 H 0.61372 0.62593 0.06603 0.0
H3525 H 0.61597 0.61935 0.09449 0.0
H3526 H 0.61378 0.60758 0.0394 0.0
H3527 H 0.64597 0.65018 0.06183 0.0
H3528 H 0.66875 0.66149 0.07659 0.0
H3529 H 0.70054 0.63991 0.04274 0.0
H3530 H 0.67793 0.62828 0.02789 0.0
H3531 H 0.60339 0.66581 0.97824 0.0
H3532 H 0.60753 0.65102 0.00326 0.0
H3533 H 0.64783 0.62727 0.98247 0.0
H3534 H 0.64356 0.6418 0.95715 0.0
H3535 H 0.65285 0.64378 0.01325 0.0
H3536 H 0.61957 0.60446 0.98871 0.0
H3537 H 0.59627 0.59427 0.974 0.0
H3538 H 0.56594 0.61083 0.01184 0.0
H3539 H 0.58905 0.62136 0.02667 0.0
C3540 C 0.65175 0.6054 0.08181 0.0
C3541 C 0.63945 0.60907 0.09256 0.0
C3542 C 0.65034 0.60905 0.06549 0.0
C3543 C 0.63669 0.61657 0.05965 0.0
C3544 C 0.62433 0.62008 0.07029 0.0
C3545 C 0.62569 0.61639 0.08659 0.0
C3546 C 0.63534 0.62115 0.04253 0.0
C3547 C 0.62227 0.61556 0.0337 0.0
C3548 C 0.64668 0.63119 0.03498 0.0
C3549 C 0.66028 0.6382 0.04387 0.0
C3550 C 0.65782 0.64773 0.05761 0.0
C3551 C 0.6707 0.65422 0.06598 0.0
C3552 C 0.68608 0.65138 0.06064 0.0
C3553 C 0.68862 0.64208 0.04689 0.0
C3554 C 0.67578 0.63554 0.03849 0.0
C3555 C 0.61303 0.65731 0.97893 0.0
C3556 C 0.6232 0.65498 0.96581 0.0
C3557 C 0.61532 0.64883 0.99318 0.0
C3558 C 0.62794 0.63807 0.99461 0.0
C3559 C 0.638 0.63551 0.98149 0.0
C3560 C 0.63552 0.64377 0.96708 0.0
C3561 C 0.63113 0.63048 0.01029 0.0
C3562 C 0.64453 0.63555 0.01887 0.0
C3563 C 0.62003 0.62008 0.01763 0.0
C3564 C 0.60606 0.61382 0.00874 0.0
C3565 C 0.60793 0.60607 0.99383 0.0
C3566 C 0.59475 0.60021 0.98548 0.0
C3567 C 0.57963 0.60194 0.99196 0.0
C3568 C 0.57766 0.60952 0.00682 0.0
C3569 C 0.5908 0.61542 0.01522 0.0
H3570 H 0.56945 0.59738 0.98549 0.0
H3571 H 0.69604 0.65642 0.06714 0.0
H3572 H 0.5881 0.38795 0.20683 0.0
H3573 H 0.59645 0.39249 0.23461 0.0
H3574 H 0.64457 0.38159 0.22154 0.0
H3575 H 0.63621 0.3766 0.19386 0.0
H3576 H 0.63709 0.36615 0.24763 0.0
H3577 H 0.63241 0.42057 0.2297 0.0
H3578 H 0.61934 0.44399 0.21739 0.0
H3579 H 0.58313 0.44223 0.25347 0.0
H3580 H 0.59587 0.41866 0.26588 0.0
H3581 H 0.65812 0.4177 0.32309 0.0
H3582 H 0.65123 0.41557 0.2947 0.0
H3583 H 0.62707 0.37064 0.30385 0.0
H3584 H 0.63423 0.37244 0.33223 0.0
H3585 H 0.62415 0.41498 0.27926 0.0
H3586 H 0.63073 0.34598 0.27176 0.0
H3587 H 0.64618 0.32368 0.28329 0.0
H3588 H 0.68313 0.35679 0.29649 0.0
H3589 H 0.66801 0.37924 0.28485 0.0
C3590 C 0.60048 0.38666 0.20985 0.0
C3591 C 0.6115 0.38189 0.1982 0.0
C3592 C 0.60524 0.38932 0.22572 0.0
C3593 C 0.62116 0.38749 0.23013 0.0
C3594 C 0.63222 0.38302 0.21842 0.0
C3595 C 0.62744 0.38022 0.2026 0.0
C3596 C 0.62617 0.38952 0.2471 0.0
C3597 C 0.63428 0.37685 0.25453 0.0
C3598 C 0.6227 0.40356 0.25604 0.0
C3599 C 0.61502 0.41776 0.24863 0.0
C3600 C 0.62159 0.4251 0.23494 0.0
C3601 C 0.61426 0.43842 0.22795 0.0
C3602 C 0.6004 0.44457 0.23462 0.0
C3603 C 0.59386 0.43744 0.24831 0.0
C3604 C 0.60114 0.42411 0.25533 0.0
C3605 C 0.65137 0.40732 0.3191 0.0
C3606 C 0.64683 0.39517 0.32995 0.0
C3607 C 0.64739 0.40617 0.30285 0.0
C3608 C 0.63879 0.39287 0.29712 0.0
C3609 C 0.63397 0.38087 0.30796 0.0
C3610 C 0.63805 0.38194 0.3242 0.0
C3611 C 0.63492 0.39154 0.27979 0.0
C3612 C 0.62698 0.40431 0.27233 0.0
C3613 C 0.63888 0.37775 0.27069 0.0
C3614 C 0.64815 0.3643 0.27758 0.0
C3615 C 0.64218 0.34849 0.27707 0.0
C3616 C 0.65088 0.33582 0.28363 0.0
C3617 C 0.66561 0.33882 0.29066 0.0
C3618 C 0.6717 0.35449 0.29109 0.0
C3619 C 0.66306 0.36719 0.28454 0.0
H3620 H 0.67232 0.32901 0.29574 0.0
H3621 H 0.59473 0.45488 0.2292 0.0
H3622 H 0.83846 0.40424 0.58034 0.0
H3623 H 0.84303 0.39807 0.55202 0.0
H3624 H 0.88269 0.36837 0.56509 0.0
H3625 H 0.87856 0.37495 0.59338 0.0
H3626 H 0.8895 0.38478 0.53904 0.0
H3627 H 0.84516 0.35253 0.55682 0.0
H3628 H 0.81884 0.34818 0.56883 0.0
H3629 H 0.7978 0.37731 0.53206 0.0
H3630 H 0.82404 0.38202 0.51996 0.0
H3631 H 0.89328 0.32851 0.47547 0.0
H3632 H 0.89001 0.34267 0.50093 0.0
H3633 H 0.85568 0.374 0.47908 0.0
H3634 H 0.85888 0.35989 0.45342 0.0
H3635 H 0.84552 0.36024 0.50785 0.0
H3636 H 0.89033 0.38924 0.48821 0.0
H3637 H 0.91686 0.39242 0.47638 0.0
H3638 H 0.93731 0.36804 0.51678 0.0
H3639 H 0.91086 0.36447 0.52874 0.0
C3640 C 0.84819 0.39644 0.57718 0.0
C3641 C 0.85807 0.38996 0.58912 0.0
C3642 C 0.85077 0.39291 0.56099 0.0
C3643 C 0.86303 0.38254 0.55645 0.0
C3644 C 0.87315 0.3764 0.56831 0.0
C3645 C 0.87074 0.38012 0.58449 0.0
C3646 C 0.86501 0.37754 0.53946 0.0
C3647 C 0.87991 0.37932 0.53226 0.0
C3648 C 0.85238 0.37078 0.53046 0.0
C3649 C 0.83658 0.36777 0.53759 0.0
C3650 C 0.83493 0.35808 0.55135 0.0
C3651 C 0.82003 0.35555 0.55817 0.0
C3652 C 0.80666 0.36251 0.55124 0.0
C3653 C 0.80816 0.37196 0.53744 0.0
C3654 C 0.82305 0.37456 0.53059 0.0
C3655 C 0.8851 0.33848 0.476 0.0
C3656 C 0.8763 0.34303 0.46242 0.0
C3657 C 0.88332 0.34662 0.49055 0.0
C3658 C 0.87269 0.35943 0.49182 0.0
C3659 C 0.86399 0.36416 0.47828 0.0
C3660 C 0.86587 0.35611 0.46365 0.0
C3661 C 0.87006 0.3672 0.50759 0.0
C3662 C 0.85504 0.36592 0.51456 0.0
C3663 C 0.88261 0.37425 0.51641 0.0
C3664 C 0.89857 0.37649 0.50932 0.0
C3665 C 0.90046 0.38445 0.49452 0.0
C3666 C 0.91549 0.38634 0.4878 0.0
C3667 C 0.92876 0.38041 0.49581 0.0
C3668 C 0.92702 0.37262 0.51058 0.0
C3669 C 0.91201 0.37068 0.51735 0.0
H3670 H 0.94038 0.38188 0.49058 0.0
H3671 H 0.79514 0.36054 0.55655 0.0
H3672 H 0.90311 0.3779 0.79637 0.0
H3673 H 0.89576 0.37853 0.76796 0.0
H3674 H 0.84775 0.38987 0.7809 0.0
H3675 H 0.85488 0.38912 0.8093 0.0
H3676 H 0.84891 0.36709 0.75755 0.0
H3677 H 0.87222 0.41897 0.76797 0.0
H3678 H 0.89302 0.43771 0.77727 0.0
H3679 H 0.92526 0.41822 0.74259 0.0
H3680 H 0.9047 0.3992 0.73324 0.0
H3681 H 0.8196 0.39957 0.68469 0.0
H3682 H 0.82863 0.39605 0.71241 0.0
H3683 H 0.87466 0.38215 0.69524 0.0
H3684 H 0.86569 0.38554 0.66745 0.0
H3685 H 0.8757 0.40487 0.72014 0.0
H3686 H 0.85156 0.35389 0.70879 0.0
H3687 H 0.83045 0.33551 0.69955 0.0
H3688 H 0.79941 0.3537 0.73602 0.0
H3689 H 0.82027 0.37237 0.74533 0.0
C3690 C 0.89097 0.38047 0.7932 0.0
C3691 C 0.8796 0.38352 0.80514 0.0
C3692 C 0.88681 0.38088 0.77695 0.0
C3693 C 0.87125 0.38439 0.77235 0.0
C3694 C 0.85982 0.38713 0.78421 0.0
C3695 C 0.86396 0.38676 0.80045 0.0
C3696 C 0.86685 0.38543 0.75515 0.0
C3697 C 0.85465 0.37546 0.7494 0.0
C3698 C 0.87462 0.39609 0.74447 0.0
C3699 C 0.88698 0.40754 0.75003 0.0
C3700 C 0.88379 0.41859 0.76242 0.0
C3701 C 0.89552 0.42928 0.76768 0.0
C3702 C 0.91046 0.42912 0.76055 0.0
C3703 C 0.91369 0.41831 0.74812 0.0
C3704 C 0.90199 0.40758 0.74283 0.0
C3705 C 0.83163 0.39574 0.68682 0.0
C3706 C 0.84193 0.3928 0.67393 0.0
C3707 C 0.83675 0.39369 0.70264 0.0
C3708 C 0.85227 0.38873 0.70582 0.0
C3709 C 0.86264 0.38596 0.69299 0.0
C3710 C 0.85748 0.38786 0.67715 0.0
C3711 C 0.85767 0.38665 0.7226 0.0
C3712 C 0.87004 0.39643 0.72827 0.0
C3713 C 0.85002 0.37586 0.73322 0.0
C3714 C 0.83744 0.36465 0.72766 0.0
C3715 C 0.84019 0.35408 0.71475 0.0
C3716 C 0.82827 0.34359 0.70952 0.0
C3717 C 0.81358 0.34347 0.71717 0.0
C3718 C 0.81079 0.35382 0.73009 0.0
C3719 C 0.82266 0.36435 0.73536 0.0
H3720 H 0.80438 0.33533 0.7131 0.0
H3721 H 0.91953 0.43741 0.76464 0.0
H3722 H 0.87482 0.61137 0.91238 0.0
H3723 H 0.87539 0.61555 0.94149 0.0
H3724 H 0.82479 0.62123 0.94182 0.0
H3725 H 0.82399 0.61659 0.91268 0.0
H3726 H 0.85016 0.64658 0.95888 0.0
H3727 H 0.82911 0.5916 0.95564 0.0
H3728 H 0.82987 0.56375 0.94536 0.0
H3729 H 0.87654 0.55793 0.96476 0.0
H3730 H 0.87614 0.58586 0.97491 0.0
H3731 H 0.84457 0.65349 0.04175 0.0
H3732 H 0.83751 0.64511 0.01455 0.0
H3733 H 0.87758 0.61315 0.01367 0.0
H3734 H 0.8839 0.62067 0.04148 0.0
H3735 H 0.85571 0.60053 0.99644 0.0
H3736 H 0.87899 0.65313 0.9987 0.0
H3737 H 0.88187 0.68123 0.00791 0.0
H3738 H 0.83588 0.69226 0.98918 0.0
H3739 H 0.83265 0.66415 0.98004 0.0
C3740 C 0.86381 0.61363 0.91861 0.0
C3741 C 0.84935 0.61368 0.91027 0.0
C3742 C 0.86417 0.61591 0.93521 0.0
C3743 C 0.85013 0.61853 0.94367 0.0
C3744 C 0.83571 0.61909 0.9354 0.0
C3745 C 0.83529 0.61647 0.91881 0.0
C3746 C 0.85067 0.62082 0.96121 0.0
C3747 C 0.85103 0.63655 0.96718 0.0
C3748 C 0.85249 0.60769 0.97179 0.0
C3749 C 0.85266 0.59086 0.96586 0.0
C3750 C 0.83959 0.58444 0.95756 0.0
C3751 C 0.83994 0.56863 0.95179 0.0
C3752 C 0.85326 0.5591 0.95436 0.0
C3753 C 0.86624 0.56534 0.96275 0.0
C3754 C 0.86595 0.58115 0.96852 0.0
C3755 C 0.85163 0.6444 0.03586 0.0
C3756 C 0.86484 0.63781 0.04352 0.0
C3757 C 0.84767 0.6397 0.02029 0.0
C3758 C 0.85734 0.62894 0.01184 0.0
C3759 C 0.87001 0.62158 0.01989 0.0
C3760 C 0.87364 0.62587 0.03573 0.0
C3761 C 0.85501 0.6264 0.99433 0.0
C3762 C 0.85453 0.61062 0.98827 0.0
C3763 C 0.85352 0.63955 0.98356 0.0
C3764 C 0.85552 0.65651 0.98883 0.0
C3765 C 0.86946 0.66154 0.99662 0.0
C3766 C 0.87116 0.67746 0.00182 0.0
C3767 C 0.85905 0.68851 -0.00083 0.0
C3768 C 0.84524 0.68368 0.99125 0.0
C3769 C 0.84348 0.66776 0.98604 0.0
H3770 H 0.86038 0.70083 0.00322 0.0
H3771 H 0.85351 0.54686 0.94989 0.0
H3772 H 0.63703 0.60307 0.31367 0.0
H3773 H 0.64248 0.59981 0.28508 0.0
H3774 H 0.60143 0.62813 0.2735 0.0
H3775 H 0.59566 0.63119 0.30212 0.0
H3776 H 0.60355 0.60258 0.25399 0.0
H3777 H 0.6382 0.6447 0.27152 0.0
H3778 H 0.65825 0.65769 0.2888 0.0
H3779 H 0.69174 0.62108 0.27639 0.0
H3780 H 0.67181 0.60774 0.25921 0.0
H3781 H 0.62871 0.61448 0.17218 0.0
H3782 H 0.61997 0.61865 0.19996 0.0
H3783 H 0.65855 0.58949 0.21699 0.0
H3784 H 0.66742 0.58544 0.18941 0.0
H3785 H 0.65653 0.6176 0.23317 0.0
H3786 H 0.621 0.57504 0.21628 0.0
H3787 H 0.60077 0.56263 0.19878 0.0
H3788 H 0.56876 0.60107 0.20959 0.0
H3789 H 0.58888 0.61383 0.22699 0.0
C3790 C 0.62915 0.60862 0.30507 0.0
C3791 C 0.61599 0.61752 0.31019 0.0
C3792 C 0.6323 0.60677 0.28873 0.0
C3793 C 0.6225 0.61396 0.27719 0.0
C3794 C 0.60916 0.62254 0.28222 0.0
C3795 C 0.60592 0.6243 0.29858 0.0
C3796 C 0.62636 0.61265 0.25989 0.0
C3797 C 0.61505 0.60608 0.24937 0.0
C3798 C 0.64141 0.6171 0.25393 0.0
C3799 C 0.65347 0.62515 0.26418 0.0
C3800 C 0.64981 0.63936 0.27257 0.0
C3801 C 0.66115 0.64679 0.28233 0.0
C3802 C 0.67625 0.6402 0.28372 0.0
C3803 C 0.68004 0.62617 0.27531 0.0
C3804 C 0.66873 0.61868 0.26554 0.0
C3805 C 0.63525 0.6089 0.18186 0.0
C3806 C 0.64876 0.59968 0.17866 0.0
C3807 C 0.63022 0.61124 0.19769 0.0
C3808 C 0.6386 0.60432 0.21049 0.0
C3809 C 0.65196 0.59496 0.20727 0.0
C3810 C 0.65698 0.59263 0.1915 0.0
C3811 C 0.63387 0.60719 0.22735 0.0
C3812 C 0.64501 0.61416 0.23777 0.0
C3813 C 0.61864 0.60321 0.23316 0.0
C3814 C 0.60651 0.59548 0.2228 0.0
C3815 C 0.60969 0.58091 0.21483 0.0
C3816 C 0.59824 0.5738 0.20495 0.0
C3817 C 0.58351 0.58108 0.20304 0.0
C3818 C 0.58018 0.59546 0.21106 0.0
C3819 C 0.5916 0.60263 0.22094 0.0
H3820 H 0.57466 0.57556 0.19539 0.0
H3821 H 0.68501 0.64597 0.29129 0.0
H3822 H 0.62328 0.33265 0.52602 0.0
H3823 H 0.63172 0.34418 0.50045 0.0
H3824 H 0.63989 0.38999 0.52364 0.0
H3825 H 0.63095 0.37861 0.54923 0.0
H3826 H 0.62504 0.39418 0.49634 0.0
H3827 H 0.67025 0.36504 0.51297 0.0
H3828 H 0.68495 0.34155 0.52296 0.0
H3829 H 0.67321 0.31528 0.4801 0.0
H3830 H 0.65793 0.33838 0.47007 0.0
H3831 H 0.66419 0.42595 0.42757 0.0
H3832 H 0.66049 0.41566 0.45486 0.0
H3833 H 0.64316 0.37066 0.43565 0.0
H3834 H 0.64673 0.38089 0.40827 0.0
H3835 H 0.66503 0.36757 0.4619 0.0
H3836 H 0.61728 0.39637 0.44753 0.0
H3837 H 0.60251 0.4201 0.43818 0.0
H3838 H 0.62083 0.44786 0.47765 0.0
H3839 H 0.6359 0.42434 0.4871 0.0
C3840 C 0.62689 0.34517 0.52567 0.0
C3841 C 0.62648 0.35475 0.53958 0.0
C3842 C 0.6318 0.35172 0.51108 0.0
C3843 C 0.63669 0.36787 0.5102 0.0
C3844 C 0.63622 0.37748 0.52408 0.0
C3845 C 0.63112 0.37098 0.53866 0.0
C3846 C 0.64179 0.37479 0.49465 0.0
C3847 C 0.63401 0.38852 0.48896 0.0
C3848 C 0.65337 0.36729 0.48495 0.0
C3849 C 0.66282 0.35344 0.49081 0.0
C3850 C 0.67068 0.35422 0.50571 0.0
C3851 C 0.67914 0.34097 0.51138 0.0
C3852 C 0.68006 0.32696 0.50215 0.0
C3853 C 0.67249 0.32615 0.48723 0.0
C3854 C 0.66391 0.33931 0.48156 0.0
C3855 C 0.65967 0.41383 0.42915 0.0
C3856 C 0.65563 0.40424 0.41583 0.0
C3857 C 0.65758 0.40799 0.44473 0.0
C3858 C 0.65148 0.39247 0.4472 0.0
C3859 C 0.6479 0.38268 0.43393 0.0
C3860 C 0.64986 0.38856 0.41833 0.0
C3861 C 0.64809 0.38671 0.46362 0.0
C3862 C 0.65622 0.37326 0.46943 0.0
C3863 C 0.63697 0.39455 0.47354 0.0
C3864 C 0.62785 0.40866 0.46791 0.0
C3865 C 0.61826 0.40757 0.45413 0.0
C3866 C 0.60982 0.42098 0.44883 0.0
C3867 C 0.61077 0.43549 0.45729 0.0
C3868 C 0.62013 0.43662 0.47109 0.0
C3869 C 0.62861 0.42326 0.47643 0.0
H3870 H 0.60421 0.44586 0.45317 0.0
H3871 H 0.68663 0.31673 0.50656 0.0
H3872 H 0.71447 0.91233 0.62262 0.0
H3873 H 0.74184 0.90417 0.61823 0.0
H3874 H 0.72635 0.85511 0.61074 0.0
H3875 H 0.69909 0.86311 0.61594 0.0
H3876 H 0.74983 0.85479 0.62964 0.0
H3877 H 0.74026 0.88099 0.57939 0.0
H3878 H 0.73217 0.90295 0.56129 0.0
H3879 H 0.76822 0.93363 0.58118 0.0
H3880 H 0.7764 0.91192 0.59955 0.0
H3881 H 0.82179 0.82527 0.59759 0.0
H3882 H 0.7946 0.83487 0.59967 0.0
H3883 H 0.81148 0.88014 0.61864 0.0
H3884 H 0.83877 0.87057 0.61673 0.0
H3885 H 0.78788 0.88269 0.59373 0.0
H3886 H 0.79692 0.85519 0.64402 0.0
H3887 H 0.805 0.83218 0.66077 0.0
H3888 H 0.76935 0.80258 0.6386 0.0
H3889 H 0.76121 0.82537 0.62156 0.0
C3890 C 0.71692 0.89984 0.61986 0.0
C3891 C 0.70471 0.88833 0.61966 0.0
C3892 C 0.73256 0.8952 0.61727 0.0
C3893 C 0.73619 0.87903 0.61398 0.0
C3894 C 0.72388 0.86763 0.61331 0.0
C3895 C 0.70831 0.87221 0.61625 0.0
C3896 C 0.75285 0.87379 0.61222 0.0
C3897 C 0.75803 0.86077 0.62157 0.0
C3898 C 0.76373 0.88178 0.60199 0.0
C3899 C 0.75884 0.89487 0.59096 0.0
C3900 C 0.74638 0.89246 0.57999 0.0
C3901 C 0.74179 0.90485 0.56967 0.0
C3902 C 0.74965 0.91969 0.57012 0.0
C3903 C 0.76213 0.92214 0.58086 0.0
C3904 C 0.76676 0.90979 0.59122 0.0
C3905 C 0.81972 0.83726 0.60222 0.0
C3906 C 0.83238 0.84715 0.60707 0.0
C3907 C 0.8042 0.84271 0.6034 0.0
C3908 C 0.8011 0.85817 0.60936 0.0
C3909 C 0.8137 0.86818 0.614 0.0
C3910 C 0.82924 0.86266 0.61298 0.0
C3911 C 0.78462 0.86371 0.61102 0.0
C3912 C 0.77955 0.87677 0.60172 0.0
C3913 C 0.77375 0.85562 0.62108 0.0
C3914 C 0.77856 0.84194 0.63142 0.0
C3915 C 0.79089 0.84374 0.64263 0.0
C3916 C 0.79546 0.83074 0.65219 0.0
C3917 C 0.78772 0.81591 0.65072 0.0
C3918 C 0.77535 0.81407 0.63972 0.0
C3919 C 0.77074 0.82702 0.63012 0.0
H3920 H 0.79128 0.80586 0.65814 0.0
H3921 H 0.74608 0.92927 0.56211 0.0
H3922 H 0.20998 0.57992 0.37558 0.0
H3923 H 0.23831 0.58455 0.3789 0.0
H3924 H 0.22906 0.6328 0.39571 0.0
H3925 H 0.20078 0.62846 0.39148 0.0
H3926 H 0.25023 0.63454 0.37467 0.0
H3927 H 0.24357 0.6006 0.42058 0.0
H3928 H 0.23528 0.57647 0.43569 0.0
H3929 H 0.26553 0.54713 0.40656 0.0
H3930 H 0.27386 0.57106 0.39114 0.0
H3931 H 0.32601 0.65125 0.40768 0.0
H3932 H 0.29851 0.64235 0.40647 0.0
H3933 H 0.31042 0.60758 0.37002 0.0
H3934 H 0.33811 0.61667 0.37084 0.0
H3935 H 0.28891 0.59795 0.4003 0.0
H3936 H 0.29479 0.63397 0.35445 0.0
H3937 H 0.30339 0.65937 0.34176 0.0
H3938 H 0.27426 0.68616 0.37435 0.0
H3939 H 0.26569 0.66091 0.3874 0.0
C3940 C 0.214 0.59139 0.38028 0.0
C3941 C 0.20324 0.60386 0.38324 0.0
C3942 C 0.23021 0.59403 0.38224 0.0
C3943 C 0.23589 0.60901 0.38765 0.0
C3944 C 0.22501 0.62117 0.39141 0.0
C3945 C 0.20885 0.61867 0.38908 0.0
C3946 C 0.25313 0.61253 0.38811 0.0
C3947 C 0.25859 0.62658 0.38048 0.0
C3948 C 0.2642 0.60202 0.39535 0.0
C3949 C 0.25922 0.58761 0.4046 0.0
C3950 C 0.24836 0.58898 0.41731 0.0
C3951 C 0.24367 0.57535 0.42595 0.0
C3952 C 0.24984 0.56027 0.42206 0.0
C3953 C 0.26074 0.55881 0.40954 0.0
C3954 C 0.26547 0.57241 0.40086 0.0
C3955 C 0.32286 0.64163 0.39945 0.0
C3956 C 0.33424 0.63469 0.3893 0.0
C3957 C 0.30715 0.63658 0.39881 0.0
C3958 C 0.30255 0.62433 0.38819 0.0
C3959 C 0.31386 0.61703 0.37832 0.0
C3960 C 0.3296 0.62229 0.37874 0.0
C3961 C 0.2857 0.61987 0.387 0.0
C3962 C 0.2804 0.60574 0.39448 0.0
C3963 C 0.2747 0.63041 0.37992 0.0
C3964 C 0.27974 0.64557 0.372 0.0
C3965 C 0.29035 0.64529 0.35901 0.0
C3966 C 0.29518 0.65965 0.35173 0.0
C3967 C 0.28941 0.67437 0.35727 0.0
C3968 C 0.27874 0.67475 0.37008 0.0
C3969 C 0.27388 0.66042 0.37741 0.0
H3970 H 0.29316 0.68548 0.35162 0.0
H3971 H 0.24619 0.54973 0.42876 0.0
H3972 H 0.58076 0.06165 0.66731 0.0
H3973 H 0.59291 0.03516 0.66508 0.0
H3974 H 0.62866 0.05476 0.63363 0.0
H3975 H 0.61649 0.08139 0.63575 0.0
H3976 H 0.61621 0.02643 0.62227 0.0
H3977 H 0.63857 0.04584 0.67092 0.0
H3978 H 0.63873 0.05841 0.69777 0.0
H3979 H 0.61005 0.01981 0.71612 0.0
H3980 H 0.60947 0.00714 0.6893 0.0
H3981 H 0.65692 0.95112 0.62597 0.0
H3982 H 0.65215 0.98004 0.6288 0.0
H3983 H 0.61192 0.97008 0.65904 0.0
H3984 H 0.61653 0.94124 0.6563 0.0
H3985 H 0.63108 0.99505 0.67066 0.0
H3986 H 0.60597 0.97816 0.6209 0.0
H3987 H 0.60559 0.96592 0.59388 0.0
H3988 H 0.64016 0.00029 0.57773 0.0
H3989 H 0.64091 0.01259 0.60475 0.0
C3990 C 0.59122 0.06034 0.65993 0.0
C3991 C 0.5977 0.07357 0.65172 0.0
C3992 C 0.5982 0.04523 0.65874 0.0
C3993 C 0.61179 0.04307 0.64935 0.0
C3994 C 0.61821 0.05622 0.64099 0.0
C3995 C 0.61126 0.07139 0.64223 0.0
C3996 C 0.61895 0.02693 0.64802 0.0
C3997 C 0.61979 0.01969 0.63281 0.0
C3998 C 0.62346 0.01811 0.66181 0.0
C3999 C 0.62388 0.0256 0.67804 0.0
C4000 C 0.63219 0.04009 0.68064 0.0
C4001 C 0.63237 0.04723 0.69586 0.0
C4002 C 0.62438 0.03993 0.70864 0.0
C4003 C 0.61622 0.02545 0.70621 0.0
C4004 C 0.61598 0.01828 0.691 0.0
C4005 C 0.64712 0.95509 0.63331 0.0
C4006 C 0.63702 0.94388 0.6408 0.0
C4007 C 0.64442 0.9716 0.63488 0.0
C4008 C 0.63164 0.97714 0.64405 0.0
C4009 C 0.62185 0.96601 0.65193 0.0
C4010 C 0.62445 0.94954 0.65025 0.0
C4011 C 0.62796 0.99448 0.64498 0.0
C4012 C 0.62777 0.00193 0.66012 0.0
C4013 C 0.62412 0.00351 0.63113 0.0
C4014 C 0.62364 0.99616 0.61488 0.0
C4015 C 0.6136 0.98301 0.61163 0.0
C4016 C 0.61329 0.97608 0.59631 0.0
C4017 C 0.62288 0.98229 0.58411 0.0
C4018 C 0.63277 0.99547 0.5872 0.0
C4019 C 0.63313 0.00243 0.60251 0.0
H4020 H 0.62263 0.97691 0.57226 0.0
H4021 H 0.62453 0.04548 0.72041 0.0
H4022 H 0.16227 0.38838 0.87861 0.0
H4023 H 0.1902 0.39609 0.87918 0.0
H4024 H 0.20124 0.35199 0.90415 0.0
H4025 H 0.17325 0.34476 0.90442 0.0
H4026 H 0.21762 0.37417 0.91667 0.0
H4027 H 0.20789 0.3584 0.86204 0.0
H4028 H 0.19462 0.35866 0.83563 0.0
H4029 H 0.20706 0.40847 0.82957 0.0
H4030 H 0.22024 0.40855 0.85604 0.0
H4031 H 0.2988 0.36737 0.89189 0.0
H4032 H 0.27035 0.36396 0.89626 0.0
H4033 H 0.26315 0.41423 0.88582 0.0
H4034 H 0.2916 0.41782 0.88174 0.0
H4035 H 0.24501 0.391 0.8667 0.0
H4036 H 0.25737 0.40436 0.92168 0.0
H4037 H 0.27186 0.40153 0.94723 0.0
H4038 H 0.25575 0.35261 0.95138 0.0
H4039 H 0.24134 0.35508 0.92572 0.0
C4040 C 0.17069 0.38035 0.88418 0.0
C4041 C 0.16565 0.36595 0.8914 0.0
C4042 C 0.18665 0.38472 0.88446 0.0
C4043 C 0.19791 0.3745 0.89146 0.0
C4044 C 0.19282 0.36012 0.8987 0.0
C4045 C 0.17683 0.35595 0.8988 0.0
C4046 C 0.21499 0.37868 0.89126 0.0
C4047 C 0.22361 0.37769 0.90568 0.0
C4048 C 0.22283 0.38353 0.87701 0.0
C4049 C 0.21489 0.38353 0.8611 0.0
C4050 C 0.20769 0.36944 0.85513 0.0
C4051 C 0.2002 0.36952 0.84014 0.0
C4052 C 0.19995 0.38359 0.83095 0.0
C4053 C 0.20723 0.39759 0.83671 0.0
C4054 C 0.21472 0.39758 0.8517 0.0
C4055 C 0.29118 0.37774 0.89081 0.0
C4056 C 0.29737 0.39284 0.88642 0.0
C4057 C 0.27498 0.37579 0.89334 0.0
C4058 C 0.26474 0.38886 0.89133 0.0
C4059 C 0.27093 0.40404 0.88743 0.0
C4060 C 0.28716 0.40606 0.88517 0.0
C4061 C 0.24749 0.38632 0.892 0.0
C4062 C 0.23891 0.3876 0.87766 0.0
C4063 C 0.2398 0.38134 0.90621 0.0
C4064 C 0.24839 0.37987 0.92169 0.0
C4065 C 0.25703 0.39296 0.92796 0.0
C4066 C 0.2652 0.39143 0.94249 0.0
C4067 C 0.26476 0.37689 0.95091 0.0
C4068 C 0.25609 0.36386 0.94484 0.0
C4069 C 0.24791 0.36533 0.93032 0.0
H4070 H 0.2711 0.37573 0.96215 0.0
H4071 H 0.19415 0.38363 0.81935 0.0
H4072 H 0.42213 0.43534 0.66065 0.0
H4073 H 0.4097 0.46173 0.65852 0.0
H4074 H 0.36694 0.4393 0.64084 0.0
H4075 H 0.37956 0.41298 0.6423 0.0
H4076 H 0.37254 0.46442 0.62398 0.0
H4077 H 0.3702 0.4544 0.67994 0.0
H4078 H 0.3799 0.44686 0.70683 0.0
H4079 H 0.41162 0.48738 0.70675 0.0
H4080 H 0.4023 0.49503 0.67972 0.0
H4081 H 0.33019 0.53892 0.63445 0.0
H4082 H 0.33812 0.5111 0.64023 0.0
H4083 H 0.38693 0.52618 0.64236 0.0
H4084 H 0.37917 0.55382 0.63619 0.0
H4085 H 0.3749 0.5041 0.66857 0.0
H4086 H 0.37773 0.51117 0.61019 0.0
H4087 H 0.36609 0.51824 0.58395 0.0
H4088 H 0.33018 0.48209 0.59034 0.0
H4089 H 0.34149 0.47498 0.61675 0.0
C4090 C 0.41008 0.43606 0.65633 0.0
C4091 C 0.4018 0.42213 0.65169 0.0
C4092 C 0.40294 0.45112 0.65522 0.0
C4093 C 0.38726 0.45249 0.6498 0.0
C4094 C 0.37901 0.43856 0.6451 0.0
C4095 C 0.38624 0.42352 0.64597 0.0
C4096 C 0.37969 0.4685 0.64857 0.0
C4097 C 0.37282 0.47294 0.63386 0.0
C4098 C 0.38003 0.4797 0.66143 0.0
C4099 C 0.38563 0.47522 0.67773 0.0
C4100 C 0.37933 0.46165 0.6856 0.0
C4101 C 0.38475 0.45736 0.70088 0.0
C4102 C 0.39639 0.46662 0.70848 0.0
C4103 C 0.40261 0.48021 0.70083 0.0
C4104 C 0.39725 0.48454 0.68554 0.0
C4105 C 0.34258 0.53629 0.63627 0.0
C4106 C 0.3541 0.54844 0.63477 0.0
C4107 C 0.34707 0.52045 0.63957 0.0
C4108 C 0.36308 0.5167 0.6417 0.0
C4109 C 0.37452 0.52892 0.64079 0.0
C4110 C 0.37008 0.54464 0.63717 0.0
C4111 C 0.36813 0.4999 0.64399 0.0
C4112 C 0.37449 0.49538 0.65885 0.0
C4113 C 0.36702 0.48851 0.63143 0.0
C4114 C 0.36033 0.49269 0.61551 0.0
C4115 C 0.36726 0.50484 0.60606 0.0
C4116 C 0.36075 0.50883 0.59115 0.0
C4117 C 0.34737 0.50065 0.5855 0.0
C4118 C 0.34052 0.48843 0.59474 0.0
C4119 C 0.34698 0.48442 0.60967 0.0
H4120 H 0.34234 0.50376 0.57396 0.0
H4121 H 0.40057 0.46328 0.72031 0.0
H4122 H 0.80317 0.13947 0.1017 0.0
H4123 H 0.77495 0.1451 0.10025 0.0
H4124 H 0.76446 0.09728 0.1175 0.0
H4125 H 0.7927 0.09142 0.11885 0.0
H4126 H 0.74485 0.10604 0.09285 0.0
H4127 H 0.76276 0.12839 0.14291 0.0
H4128 H 0.77985 0.14487 0.16051 0.0
H4129 H 0.76614 0.18753 0.13507 0.0
H4130 H 0.74913 0.17126 0.11715 0.0
H4131 H 0.66508 0.12225 0.11622 0.0
H4132 H 0.6931 0.11494 0.11695 0.0
H4133 H 0.70554 0.1612 0.09697 0.0
H4134 H 0.67763 0.16854 0.09609 0.0
H4135 H 0.72391 0.15257 0.12349 0.0
H4136 H 0.70603 0.13024 0.07341 0.0
H4137 H 0.6884 0.11392 0.05623 0.0
H4138 H 0.70171 0.07128 0.08193 0.0
H4139 H 0.71921 0.08742 0.09947 0.0
C4140 C 0.79491 0.13011 0.10517 0.0
C4141 C 0.80025 0.11503 0.11055 0.0
C4142 C 0.77877 0.13337 0.10435 0.0
C4143 C 0.76764 0.12167 0.10897 0.0
C4144 C 0.77287 0.10648 0.11392 0.0
C4145 C 0.78903 0.10319 0.11474 0.0
C4146 C 0.75058 0.1255 0.10904 0.0
C4147 C 0.74022 0.11608 0.09972 0.0
C4148 C 0.74462 0.13876 0.11779 0.0
C4149 C 0.75479 0.14858 0.12859 0.0
C4150 C 0.76349 0.14127 0.14098 0.0
C4151 C 0.77314 0.15058 0.15103 0.0
C4152 C 0.77411 0.16723 0.14888 0.0
C4153 C 0.7654 0.17462 0.1367 0.0
C4154 C 0.75574 0.16537 0.12661 0.0
C4155 C 0.6738 0.13085 0.112 0.0
C4156 C 0.6692 0.14595 0.10608 0.0
C4157 C 0.68976 0.12665 0.11238 0.0
C4158 C 0.70132 0.13753 0.10695 0.0
C4159 C 0.69676 0.15266 0.10122 0.0
C4160 C 0.68083 0.1568 0.10068 0.0
C4161 C 0.71823 0.13319 0.10725 0.0
C4162 C 0.72854 0.14252 0.11666 0.0
C4163 C 0.72411 0.11985 0.09859 0.0
C4164 C 0.71381 0.11007 0.08788 0.0
C4165 C 0.70511 0.11741 0.07549 0.0
C4166 C 0.69514 0.10819 0.06567 0.0
C4167 C 0.6939 0.09158 0.06802 0.0
C4168 C 0.70266 0.08415 0.08015 0.0
C4169 C 0.71261 0.09333 0.09003 0.0
H4170 H 0.68617 0.08446 0.06041 0.0
H4171 H 0.78159 0.17442 0.15668 0.0
H4172 H 0.60395 0.05691 0.86722 0.0
H4173 H 0.59894 0.02793 0.86544 0.0
H4174 H 0.64883 0.01881 0.87031 0.0
H4175 H 0.65401 0.04769 0.87204 0.0
H4176 H 0.63523 0.00051 0.8465 0.0
H4177 H 0.62575 0.01374 0.90189 0.0
H4178 H 0.61357 0.02875 0.92421 0.0
H4179 H 0.56752 0.01302 0.90892 0.0
H4180 H 0.57943 0.99809 0.88636 0.0
H4181 H 0.61103 0.91916 0.88703 0.0
H4182 H 0.61832 0.94761 0.88831 0.0
H4183 H 0.602 0.95414 0.83963 0.0
H4184 H 0.59492 0.92568 0.83809 0.0
H4185 H 0.60013 0.97356 0.88606 0.0
H4186 H 0.62377 0.98336 0.82162 0.0
H4187 H 0.63727 0.96806 0.80028 0.0
H4188 H 0.65777 0.93697 0.83574 0.0
H4189 H 0.64454 0.95219 0.8573 0.0
C4190 C 0.61387 0.04875 0.86789 0.0
C4191 C 0.62937 0.05463 0.86988 0.0
C4192 C 0.61097 0.03221 0.8669 0.0
C4193 C 0.62351 0.02127 0.86785 0.0
C4194 C 0.639 0.02708 0.86955 0.0
C4195 C 0.64191 0.04359 0.87063 0.0
C4196 C 0.62049 0.00372 0.86734 0.0
C4197 C 0.62754 0.99459 0.85512 0.0
C4198 C 0.61065 0.99602 0.87875 0.0
C4199 C 0.60347 0.00493 0.89235 0.0
C4200 C 0.61302 0.01358 0.90321 0.0
C4201 C 0.60617 0.02206 0.91592 0.0
C4202 C 0.58978 0.02187 0.91796 0.0
C4203 C 0.58021 0.01317 0.90732 0.0
C4204 C 0.58701 0.00469 0.89457 0.0
C4205 C 0.60908 0.92659 0.87654 0.0
C4206 C 0.60237 0.92009 0.86246 0.0
C4207 C 0.61321 0.94287 0.87732 0.0
C4208 C 0.61079 0.95296 0.86404 0.0
C4209 C 0.60418 0.94652 0.84994 0.0
C4210 C 0.60008 0.93024 0.84912 0.0
C4211 C 0.61474 0.97032 0.86511 0.0
C4212 C 0.60781 0.97944 0.87741 0.0
C4213 C 0.62486 0.97795 0.8539 0.0
C4214 C 0.63305 0.96884 0.84105 0.0
C4215 C 0.63121 0.9733 0.82486 0.0
C4216 C 0.63881 0.96464 0.81273 0.0
C4217 C 0.64835 0.95154 0.81665 0.0
C4218 C 0.65034 0.94709 0.83272 0.0
C4219 C 0.64277 0.95572 0.8449 0.0
H4220 H 0.65421 0.94484 0.80724 0.0
H4221 H 0.5845 0.02844 0.92781 0.0
H4222 H 0.87776 0.08075 0.37641 0.0
H4223 H 0.87185 0.05202 0.37785 0.0
H4224 H 0.90129 0.04356 0.33642 0.0
H4225 H 0.90702 0.07234 0.33463 0.0
H4226 H 0.87482 0.02655 0.33417 0.0
H4227 H 0.91457 0.03491 0.37417 0.0
H4228 H 0.92708 0.0478 0.39771 0.0
H4229 H 0.88765 0.03392 0.42714 0.0
H4230 H 0.8748 0.02113 0.40372 0.0
H4231 H 0.88241 0.94249 0.37664 0.0
H4232 H 0.89188 0.96974 0.37098 0.0
H4233 H 0.84497 0.98339 0.35609 0.0
H4234 H 0.83545 0.95609 0.3615 0.0
H4235 H 0.88333 0.99684 0.38513 0.0
H4236 H 0.84763 0.0128 0.32752 0.0
H4237 H 0.83725 -0.00087 0.30336 0.0
H4238 H 0.87283 0.96275 0.30774 0.0
H4239 H 0.88363 0.97636 0.33173 0.0
C4240 C 0.88301 0.0728 0.3676 0.0
C4241 C 0.89295 0.07886 0.35547 0.0
C4242 C 0.87964 0.05637 0.36847 0.0
C4243 C 0.88631 0.04563 0.35737 0.0
C4244 C 0.89605 0.05164 0.34512 0.0
C4245 C 0.89935 0.0681 0.34416 0.0
C4246 C 0.88313 0.02813 0.35862 0.0
C4247 C 0.87671 0.02003 0.34529 0.0
C4248 C 0.88594 0.01956 0.37302 0.0
C4249 C 0.89367 0.02717 0.38716 0.0
C4250 C 0.90852 0.0347 0.38564 0.0
C4251 C 0.91568 0.04198 0.39896 0.0
C4252 C 0.90815 0.04171 0.4139 0.0
C4253 C 0.89346 0.03413 0.41556 0.0
C4254 C 0.88624 0.02685 0.40227 0.0
C4255 C 0.87414 0.95125 0.37201 0.0
C4256 C 0.85817 0.94719 0.36956 0.0
C4257 C 0.87957 0.96681 0.36881 0.0
C4258 C 0.86915 0.97855 0.36306 0.0
C4259 C 0.85326 0.97444 0.36031 0.0
C4260 C 0.84783 0.95887 0.36347 0.0
C4261 C 0.87468 0.99533 0.3608 0.0
C4262 C 0.88152 0.00331 0.37397 0.0
C4263 C 0.87258 0.00367 0.34614 0.0
C4264 C 0.86634 0.99554 0.33153 0.0
C4265 C 0.8533 0.00193 0.32328 0.0
C4266 C 0.84734 0.99419 0.30961 0.0
C4267 C 0.85436 0.98006 0.30404 0.0
C4268 C 0.86739 0.97368 0.31209 0.0
C4269 C 0.87342 0.98139 0.32573 0.0
H4270 H 0.84971 0.97407 0.29347 0.0
H4271 H 0.91372 0.04735 0.4242 0.0
H4272 H 0.38935 0.29368 0.0816 0.0
H4273 H 0.39559 0.26565 0.08799 0.0
H4274 H 0.39496 0.27698 0.13858 0.0
H4275 H 0.38848 0.30499 0.13232 0.0
H4276 H 0.42137 0.25698 0.12749 0.0
H4277 H 0.36398 0.26081 0.12475 0.0
H4278 H 0.33895 0.26759 0.1112 0.0
H4279 H 0.35019 0.23527 0.0726 0.0
H4280 H 0.37541 0.22848 0.08583 0.0
H4281 H 0.4124 0.18324 0.16749 0.0
H4282 H 0.41097 0.21054 0.15693 0.0
H4283 H 0.39869 0.19172 0.11012 0.0
H4284 H 0.39937 0.16431 0.12091 0.0
H4285 H 0.38058 0.2153 0.11627 0.0
H4286 H 0.43617 0.20887 0.11901 0.0
H4287 H 0.46192 0.20194 0.13096 0.0
H4288 H 0.45586 0.23853 0.16688 0.0
H4289 H 0.42996 0.24554 0.15529 0.0
C4290 C 0.39066 0.29022 0.09408 0.0
C4291 C 0.38834 0.30147 0.10648 0.0
C4292 C 0.39421 0.27423 0.09769 0.0
C4293 C 0.39568 0.26932 0.11373 0.0
C4294 C 0.39389 0.28062 0.12612 0.0
C4295 C 0.39011 0.29655 0.12253 0.0
C4296 C 0.39829 0.25221 0.11768 0.0
C4297 C 0.41246 0.24783 0.12518 0.0
C4298 C 0.38686 0.24029 0.11405 0.0
C4299 C 0.37165 0.24428 0.10618 0.0
C4300 C 0.36118 0.25526 0.11331 0.0
C4301 C 0.34695 0.25908 0.1057 0.0
C4302 C 0.34301 0.2519 0.09103 0.0
C4303 C 0.35327 0.24084 0.08395 0.0
C4304 C 0.36753 0.237 0.0915 0.0
C4305 C 0.4095 0.18492 0.15491 0.0
C4306 C 0.406 0.17169 0.145 0.0
C4307 C 0.40881 0.20054 0.14884 0.0
C4308 C 0.40501 0.20322 0.13263 0.0
C4309 C 0.40168 0.18996 0.12266 0.0
C4310 C 0.40209 0.17432 0.12882 0.0
C4311 C 0.40366 0.21991 0.12641 0.0
C4312 C 0.38968 0.22429 0.11845 0.0
C4313 C 0.41543 0.23176 0.12935 0.0
C4314 C 0.43105 0.22765 0.13634 0.0
C4315 C 0.44027 0.21537 0.12953 0.0
C4316 C 0.4549 0.21143 0.13623 0.0
C4317 C 0.46051 0.21977 0.14969 0.0
C4318 C 0.4515 0.23208 0.15645 0.0
C4319 C 0.43685 0.23606 0.14981 0.0
H4320 H 0.47184 0.2167 0.15486 0.0
H4321 H 0.33198 0.25487 0.08515 0.0
H4322 H 0.58723 0.64691 0.89442 0.0
H4323 H 0.56159 0.63646 0.88526 0.0
H4324 H 0.53857 0.67842 0.90452 0.0
H4325 H 0.56392 0.68906 0.9135 0.0
H4326 H 0.52618 0.64778 0.91516 0.0
H4327 H 0.54163 0.67609 0.8665 0.0
H4328 H 0.55932 0.68176 0.84364 0.0
H4329 H 0.5548 0.63276 0.82773 0.0
H4330 H 0.53725 0.62674 0.85065 0.0
H4331 H 0.44781 0.64651 0.88877 0.0
H4332 H 0.47524 0.65288 0.89517 0.0
H4333 H 0.4908 0.61545 0.86289 0.0
H4334 H 0.46327 0.60956 0.85585 0.0
H4335 H 0.50851 0.64018 0.85877 0.0
H4336 H 0.49208 0.61149 0.90532 0.0
H4337 H 0.47513 0.6043 0.92834 0.0
H4338 H 0.4825 0.65124 0.94876 0.0
H4339 H 0.49933 0.65879 0.92576 0.0
C4340 C 0.57674 0.654 0.89654 0.0
C4341 C 0.57764 0.66874 0.90486 0.0
C4342 C 0.56212 0.64801 0.89129 0.0
C4343 C 0.54825 0.65664 0.89435 0.0
C4344 C 0.54917 0.67155 0.90217 0.0
C4345 C 0.56371 0.67761 0.90727 0.0
C4346 C 0.53258 0.6499 0.89023 0.0
C4347 C 0.52222 0.6462 0.90284 0.0
C4348 C 0.52777 0.64726 0.87418 0.0
C4349 C 0.53829 0.65092 0.8604 0.0
C4350 C 0.54454 0.66649 0.85822 0.0
C4351 C 0.55451 0.66977 0.84523 0.0
C4352 C 0.55822 0.65762 0.83427 0.0
C4353 C 0.55193 0.64216 0.83625 0.0
C4354 C 0.54197 0.6388 0.84923 0.0
C4355 C 0.45706 0.63954 0.88315 0.0
C4356 C 0.4534 0.62746 0.8719 0.0
C4357 C 0.47276 0.64313 0.88686 0.0
C4358 C 0.48512 0.63442 0.87978 0.0
C4359 C 0.48148 0.62231 0.86856 0.0
C4360 C 0.46575 0.61892 0.86458 0.0
C4361 C 0.50181 0.63839 0.88374 0.0
C4362 C 0.51243 0.64153 0.87112 0.0
C4363 C 0.50698 0.64024 0.89984 0.0
C4364 C 0.49689 0.63574 0.91374 0.0
C4365 C 0.49001 0.62032 0.91467 0.0
C4366 C 0.48043 0.61617 0.92772 0.0
C4367 C 0.47772 0.62732 0.93999 0.0
C4368 C 0.48461 0.64262 0.93924 0.0
C4369 C 0.49419 0.64683 0.92621 0.0
H4370 H 0.47029 0.62409 0.95008 0.0
H4371 H 0.56594 0.66019 0.82421 0.0
H4372 H 0.09886 0.69931 0.58481 0.0
H4373 H 0.09244 0.72706 0.59229 0.0
H4374 H 0.12653 0.72495 0.6309 0.0
H4375 H 0.13227 0.69709 0.62403 0.0
H4376 H 0.10282 0.73933 0.64141 0.0
H4377 H 0.13346 0.74457 0.59325 0.0
H4378 H 0.14038 0.73984 0.56484 0.0
H4379 H 0.09634 0.76052 0.54995 0.0
H4380 H 0.08908 0.76518 0.5783 0.0
H4381 H 0.11671 0.83078 0.62878 0.0
H4382 H 0.11909 0.80323 0.61873 0.0
H4383 H 0.07649 0.7899 0.64407 0.0
H4384 H 0.07454 0.81723 0.65478 0.0
H4385 H 0.10354 0.78332 0.60114 0.0
H4386 H 0.0789 0.7525 0.65848 0.0
H4387 H 0.07675 0.75783 0.68758 0.0
H4388 H 0.11717 0.78922 0.68531 0.0
H4389 H 0.11968 0.78391 0.65625 0.0
C4390 C 0.1049 0.7048 0.59493 0.0
C4391 C 0.11604 0.6961 0.60386 0.0
C4392 C 0.10131 0.72068 0.59914 0.0
C4393 C 0.10916 0.72822 0.61203 0.0
C4394 C 0.12024 0.71942 0.62096 0.0
C4395 C 0.12355 0.70349 0.617 0.0
C4396 C 0.10593 0.74524 0.61638 0.0
C4397 C 0.10294 0.74892 0.63256 0.0
C4398 C 0.10633 0.75785 0.60493 0.0
C4399 C 0.11066 0.75506 0.58789 0.0
C4400 C 0.12521 0.74799 0.58392 0.0
C4401 C 0.1292 0.74535 0.56783 0.0
C4402 C 0.11878 0.74983 0.5556 0.0
C4403 C 0.10438 0.75702 0.55944 0.0
C4404 C 0.10032 0.75968 0.57551 0.0
C4405 C 0.10781 0.82198 0.63211 0.0
C4406 C 0.09559 0.82601 0.64275 0.0
C4407 C 0.10914 0.80626 0.62632 0.0
C4408 C 0.09815 0.79439 0.6309 0.0
C4409 C 0.08535 0.79872 0.64071 0.0
C4410 C 0.08422 0.81434 0.64678 0.0
C4411 C 0.10058 0.77736 0.62616 0.0
C4412 C 0.10333 0.77368 0.60993 0.0
C4413 C 0.10067 0.7648 0.63766 0.0
C4414 C 0.09935 0.76795 0.65517 0.0
C4415 C 0.08735 0.7605 0.66421 0.0
C4416 C 0.08606 0.76352 0.68069 0.0
C4417 C 0.09678 0.77391 0.68828 0.0
C4418 C 0.10884 0.78124 0.67941 0.0
C4419 C 0.11019 0.77823 0.66293 0.0
H4420 H 0.09575 0.77624 0.70103 0.0
H4421 H 0.1219 0.74778 0.54316 0.0
H4422 H 0.04522 0.36398 0.39183 0.0
H4423 H 0.01715 0.35859 0.39547 0.0
H4424 H 0.00826 0.37206 0.34624 0.0
H4425 H 0.03648 0.3773 0.34235 0.0
H4426 H 0.99115 0.37663 0.39336 0.0
H4427 H 0.9784 0.34724 0.33212 0.0
H4428 H 0.99254 0.33318 0.31034 0.0
H4429 H 0.02707 0.31644 0.3442 0.0
H4430 H 0.01302 0.33023 0.36618 0.0
H4431 H 0.90963 0.35613 0.39397 0.0
H4432 H 0.93445 0.36667 0.38301 0.0
H4433 H 0.95542 0.31966 0.38731 0.0
H4434 H 0.93074 0.309 0.39806 0.0
H4435 H 0.9651 0.33449 0.36014 0.0
H4436 H 0.96009 0.34709 0.41682 0.0
H4437 H 0.94695 0.35899 0.44044 0.0
H4438 H 0.94987 0.40582 0.41881 0.0
H4439 H 0.96284 0.39414 0.39496 0.0
C4440 C 0.03734 0.3659 0.38176 0.0
C4441 C 0.04316 0.37098 0.36676 0.0
C4442 C 0.02125 0.36288 0.3839 0.0
C4443 C 0.01064 0.36482 0.37111 0.0
C4444 C 0.01629 0.37032 0.35623 0.0
C4445 C 0.03242 0.37333 0.35405 0.0
C4446 C 0.9938 0.36039 0.37334 0.0
C4447 C 0.98539 0.36756 0.38597 0.0
C4448 C 0.98633 0.34845 0.36379 0.0
C4449 C 0.99476 0.33993 0.35073 0.0
C4450 C 0.98899 0.34053 0.3349 0.0
C4451 C 0.99699 0.33261 0.32253 0.0
C4452 C 0.01073 0.32398 0.32588 0.0
C4453 C 0.01646 0.32318 0.34161 0.0
C4454 C 0.00849 0.33106 0.35403 0.0
C4455 C 0.91945 0.34798 0.39236 0.0
C4456 C 0.91828 0.33177 0.39714 0.0
C4457 C 0.93362 0.35403 0.38611 0.0
C4458 C 0.94682 0.34399 0.38456 0.0
C4459 C 0.94539 0.32762 0.38844 0.0
C4460 C 0.93128 0.32158 0.3947 0.0
C4461 C 0.96254 0.35062 0.38025 0.0
C4462 C 0.97072 0.34386 0.36726 0.0
C4463 C 0.96995 0.36268 0.38968 0.0
C4464 C 0.96225 0.36972 0.40405 0.0
C4465 C 0.95782 0.35991 0.41706 0.0
C4466 C 0.95042 0.36661 0.43049 0.0
C4467 C 0.94753 0.38315 0.4311 0.0
C4468 C 0.95208 0.39301 0.4183 0.0
C4469 C 0.95946 0.38636 0.40483 0.0
H4470 H 0.9418 0.38831 0.44151 0.0
H4471 H 0.01692 0.31787 0.31628 0.0
H4472 H 0.36363 0.83773 0.37314 0.0
H4473 H 0.36028 0.80882 0.37797 0.0
H4474 H 0.40203 0.79921 0.34995 0.0
H4475 H 0.40555 0.82796 0.34512 0.0
H4476 H 0.37586 0.77949 0.34206 0.0
H4477 H 0.40483 0.79788 0.38896 0.0
H4478 H 0.40907 0.81487 0.41291 0.0
H4479 H 0.36564 0.79742 0.4333 0.0
H4480 H 0.36104 0.78048 0.40934 0.0
H4481 H 0.39487 0.69946 0.36133 0.0
H4482 H 0.39445 0.72843 0.35664 0.0
H4483 H 0.35857 0.73377 0.39309 0.0
H4484 H 0.35945 0.70484 0.39831 0.0
H4485 H 0.37925 0.75612 0.3968 0.0
H4486 H 0.35044 0.73659 0.35145 0.0
H4487 H 0.34514 0.71976 0.3276 0.0
H4488 H 0.3861 0.73946 0.30421 0.0
H4489 H 0.39177 0.75626 0.32801 0.0
C4490 C 0.3721 0.82947 0.36801 0.0
C4491 C 0.38487 0.83517 0.35877 0.0
C4492 C 0.37018 0.81298 0.37081 0.0
C4493 C 0.38094 0.80195 0.36433 0.0
C4494 C 0.3936 0.80757 0.35501 0.0
C4495 C 0.39562 0.82402 0.35235 0.0
C4496 C 0.37911 0.78449 0.36723 0.0
C4497 C 0.37671 0.77431 0.354 0.0
C4498 C 0.37971 0.7779 0.38287 0.0
C4499 C 0.3825 0.78806 0.39728 0.0
C4500 C 0.39611 0.79778 0.39848 0.0
C4501 C 0.3986 0.80738 0.41207 0.0
C4502 C 0.3876 0.80727 0.4246 0.0
C4503 C 0.37413 0.79752 0.42357 0.0
C4504 C 0.37158 0.78791 0.41 0.0
C4505 C 0.3868 0.70679 0.36826 0.0
C4506 C 0.37715 0.69988 0.38015 0.0
C4507 C 0.38651 0.72335 0.36551 0.0
C4508 C 0.37627 0.73328 0.37431 0.0
C4509 C 0.36655 0.72637 0.38613 0.0
C4510 C 0.36705 0.70983 0.38909 0.0
C4511 C 0.37616 0.75093 0.37157 0.0
C4512 C 0.3782 0.76121 0.38485 0.0
C4513 C 0.375 0.75763 0.35596 0.0
C4514 C 0.37159 0.7476 0.34158 0.0
C4515 C 0.35838 0.73726 0.34127 0.0
C4516 C 0.3553 0.72773 0.32775 0.0
C4517 C 0.3653 0.72851 0.31441 0.0
C4518 C 0.37837 0.73886 0.31455 0.0
C4519 C 0.38151 0.7484 0.32805 0.0
H4520 H 0.36289 0.72113 0.30396 0.0
H4521 H 0.38955 0.8147 0.43511 0.0
H4522 H 0.04245 0.62873 0.12055 0.0
H4523 H 0.01517 0.63611 0.11467 0.0
H4524 H 0.00568 0.64077 0.16538 0.0
H4525 H 0.03314 0.6335 0.1714 0.0
H4526 H 0.98326 0.62179 0.14825 0.0
H4527 H 0.00739 0.67371 0.14505 0.0
H4528 H 0.02738 0.69365 0.13655 0.0
H4529 H 0.01475 0.68588 0.08714 0.0
H4530 H 0.99485 0.66569 0.09532 0.0
H4531 H 0.90557 0.64884 0.12665 0.0
H4532 H 0.93159 0.64667 0.13944 0.0
H4533 H 0.95381 0.64864 0.09279 0.0
H4534 H 0.92802 0.65135 0.08009 0.0
H4535 H 0.96912 0.66727 0.11252 0.0
H4536 H 0.94856 0.61272 0.11489 0.0
H4537 H 0.92942 0.59156 0.1225 0.0
H4538 H 0.93594 0.60323 0.17237 0.0
H4539 H 0.95499 0.62459 0.16504 0.0
C4540 C 0.03461 0.63143 0.13046 0.0
C4541 C 0.03991 0.63053 0.14643 0.0
C4542 C 0.01905 0.6357 0.12708 0.0
C4543 C 0.00848 0.63907 0.1396 0.0
C4544 C 0.01371 0.63825 0.15558 0.0
C4545 C 0.02938 0.63416 0.15897 0.0
C4546 C 0.99183 0.6428 0.13581 0.0
C4547 C 0.98006 0.63192 0.14073 0.0
C4548 C 0.9878 0.65587 0.12578 0.0
C4549 C -0.00032 0.6681 0.1208 0.0
C4550 C 0.00895 0.67616 0.13236 0.0
C4551 C 0.02026 0.68752 0.1276 0.0
C4552 C 0.02235 0.69101 0.11132 0.0
C4553 C 0.01312 0.68316 0.09976 0.0
C4554 C 0.00181 0.67177 0.10445 0.0
C4555 C 0.91603 0.64874 0.11916 0.0
C4556 C 0.91479 0.65024 0.10238 0.0
C4557 C 0.93088 0.64747 0.12647 0.0
C4558 C 0.94467 0.64739 0.11707 0.0
C4559 C 0.94337 0.64877 0.10031 0.0
C4560 C 0.9286 0.65025 0.09305 0.0
C4561 C 0.96056 0.64591 0.12446 0.0
C4562 C 0.97221 0.65726 0.12027 0.0
C4563 C 0.96451 0.63317 0.13501 0.0
C4564 C 0.95303 0.62038 0.13941 0.0
C4565 C 0.9458 0.61086 0.12747 0.0
C4566 C 0.935 0.59881 0.13173 0.0
C4567 C 0.93143 0.59609 0.1479 0.0
C4568 C 0.93869 0.60538 0.15985 0.0
C4569 C 0.94949 0.61745 0.15565 0.0
H4570 H 0.92306 0.58675 0.15118 0.0
H4571 H 0.03111 0.69981 0.10766 0.0
H4572 H 0.12018 0.3083 0.85406 0.0
H4573 H 0.11809 0.27943 0.84847 0.0
H4574 H 0.10774 0.2705 0.8985 0.0
H4575 H 0.11052 0.29916 0.90423 0.0
H4576 H 0.12715 0.24953 0.88931 0.0
H4577 H 0.07874 0.26943 0.86777 0.0
H4578 H 0.06166 0.28667 0.85112 0.0
H4579 H 0.0836 0.26846 0.80833 0.0
H4580 H 0.10096 0.25126 0.82475 0.0
H4581 H 0.08303 0.17357 0.85684 0.0
H4582 H 0.08406 0.20269 0.86091 0.0
H4583 H 0.13503 0.20131 0.85997 0.0
H4584 H 0.1341 0.17214 0.85651 0.0
H4585 H 0.09429 0.2273 0.84505 0.0
H4586 H 0.15055 0.22852 0.88516 0.0
H4587 H 0.1643 0.21104 0.90457 0.0
H4588 H 0.12066 0.18666 0.91511 0.0
H4589 H 0.10662 0.20412 0.89594 0.0
C4590 C 0.11743 0.30015 0.86383 0.0
C4591 C 0.11557 0.30595 0.87958 0.0
C4592 C 0.11616 0.28367 0.86062 0.0
C4593 C 0.11258 0.27278 0.87303 0.0
C4594 C 0.11058 0.27863 0.88873 0.0
C4595 C 0.11216 0.29502 0.892 0.0
C4596 C 0.1113 0.25524 0.86985 0.0
C4597 C 0.11995 0.2447 0.87962 0.0
C4598 C 0.10168 0.24886 0.85742 0.0
C4599 C 0.09126 0.25918 0.8475 0.0
C4600 C 0.08 0.26919 0.85482 0.0
C4601 C 0.07026 0.27894 0.84542 0.0
C4602 C 0.07157 0.27869 0.82868 0.0
C4603 C 0.08261 0.26866 0.8213 0.0
C4604 C 0.0924 0.25889 0.83065 0.0
C4605 C 0.09446 0.17949 0.85744 0.0
C4606 C 0.10849 0.17055 0.85653 0.0
C4607 C 0.09503 0.19614 0.85973 0.0
C4608 C 0.10962 0.20416 0.86101 0.0
C4609 C 0.12364 0.19533 0.85941 0.0
C4610 C 0.12309 0.17866 0.85739 0.0
C4611 C 0.11018 0.22167 0.86447 0.0
C4612 C 0.10147 0.23218 0.85472 0.0
C4613 C 0.11926 0.22801 0.87733 0.0
C4614 C 0.12758 0.21752 0.88898 0.0
C4615 C 0.14389 0.21946 0.89166 0.0
C4616 C 0.15173 0.20955 0.90262 0.0
C4617 C 0.14337 0.19771 0.91103 0.0
C4618 C 0.12713 0.19579 0.90854 0.0
C4619 C 0.11923 0.20568 0.89762 0.0
H4620 H 0.14946 0.19004 0.91949 0.0
H4621 H 0.06402 0.28625 0.82143 0.0
H4622 H 0.56705 0.34593 0.5816 0.0
H4623 H 0.54307 0.35296 0.59602 0.0
H4624 H 0.56904 0.35448 0.64062 0.0
H4625 H 0.59345 0.34753 0.62611 0.0
H4626 H 0.53874 0.33637 0.64077 0.0
H4627 H 0.55942 0.38832 0.628 0.0
H4628 H 0.57153 0.40905 0.61069 0.0
H4629 H 0.53161 0.40674 0.57886 0.0
H4630 H 0.51936 0.38582 0.59584 0.0
H4631 H 0.46605 0.36693 0.67382 0.0
H4632 H 0.49402 0.36264 0.66774 0.0
H4633 H 0.48421 0.36837 0.61715 0.0
H4634 H 0.45641 0.37307 0.62317 0.0
H4635 H 0.50925 0.38546 0.62534 0.0
H4636 H 0.4908 0.33095 0.63502 0.0
H4637 H 0.47862 0.30923 0.65104 0.0
H4638 H 0.51401 0.31554 0.68757 0.0
H4639 H 0.52629 0.33745 0.67184 0.0
C4640 C 0.56774 0.34775 0.59448 0.0
C4641 C 0.58214 0.3462 0.60274 0.0
C4642 C 0.55401 0.35182 0.60268 0.0
C4643 C 0.55434 0.35434 0.61933 0.0
C4644 C 0.56862 0.35261 0.62774 0.0
C4645 C 0.58251 0.34871 0.61945 0.0
C4646 C 0.53952 0.35865 0.62761 0.0
C4647 C 0.53241 0.34729 0.63777 0.0
C4648 C 0.53124 0.37275 0.62339 0.0
C4649 C 0.53851 0.38543 0.61317 0.0
C4650 C 0.55327 0.39215 0.61725 0.0
C4651 C 0.56016 0.40395 0.6075 0.0
C4652 C 0.55236 0.4092 0.59367 0.0
C4653 C 0.53764 0.40267 0.58957 0.0
C4654 C 0.53071 0.39085 0.59927 0.0
C4655 C 0.46986 0.36716 0.66139 0.0
C4656 C 0.45906 0.37035 0.64896 0.0
C4657 C 0.48584 0.36468 0.65795 0.0
C4658 C 0.49121 0.36512 0.64199 0.0
C4659 C 0.48036 0.36806 0.62957 0.0
C4660 C 0.46445 0.37068 0.63301 0.0
C4661 C 0.50814 0.36288 0.63804 0.0
C4662 C 0.51566 0.37469 0.62869 0.0
C4663 C 0.51672 0.34913 0.64291 0.0
C4664 C 0.50934 0.33596 0.65235 0.0
C4665 C 0.49591 0.32779 0.64653 0.0
C4666 C 0.489 0.31543 0.65555 0.0
C4667 C 0.49551 0.31104 0.67034 0.0
C4668 C 0.50897 0.31898 0.67613 0.0
C4669 C 0.51591 0.33136 0.66716 0.0
H4670 H 0.49015 0.30147 0.6773 0.0
H4671 H 0.55771 0.41833 0.58614 0.0
H4672 H 0.12297 0.39394 0.30332 0.0
H4673 H 0.13145 0.39823 0.27556 0.0
H4674 H 0.08354 0.39115 0.25918 0.0
H4675 H 0.07487 0.38716 0.28706 0.0
H4676 H 0.10802 0.37117 0.24421 0.0
H4677 H 0.0961 0.42636 0.2559 0.0
H4678 H 0.0972 0.45134 0.2719 0.0
H4679 H 0.1476 0.45335 0.2662 0.0
H4680 H 0.14684 0.42823 0.25037 0.0
H4681 H 0.12885 0.38644 0.16299 0.0
H4682 H 0.11565 0.38628 0.18909 0.0
H4683 H 0.15773 0.40584 0.21126 0.0
H4684 H 0.17073 0.40666 0.18507 0.0
H4685 H 0.13336 0.4206 0.22262 0.0
H4686 H 0.14679 0.36518 0.21435 0.0
H4687 H 0.1476 0.33919 0.20003 0.0
H4688 H 0.09692 0.33638 0.20101 0.0
H4689 H 0.09581 0.36247 0.21517 0.0
C4690 C 0.11421 0.3935 0.29382 0.0
C4691 C 0.09829 0.39017 0.29727 0.0
C4692 C 0.11906 0.396 0.27802 0.0
C4693 C 0.10809 0.39502 0.26542 0.0
C4694 C 0.09212 0.39199 0.26882 0.0
C4695 C 0.0872 0.38977 0.2847 0.0
C4696 C 0.11364 0.39607 0.24866 0.0
C4697 C 0.11326 0.38205 0.23929 0.0
C4698 C 0.12093 0.41014 0.24263 0.0
C4699 C 0.12142 0.42533 0.25205 0.0
C4700 C 0.10744 0.43205 0.25817 0.0
C4701 C 0.108 0.44625 0.26719 0.0
C4702 C 0.12246 0.45391 0.27009 0.0
C4703 C 0.1364 0.4474 0.26395 0.0
C4704 C 0.13591 0.43319 0.25493 0.0
C4705 C 0.1353 0.39065 0.17344 0.0
C4706 C 0.15082 0.39653 0.17203 0.0
C4707 C 0.12776 0.39051 0.18836 0.0
C4708 C 0.13575 0.3959 0.20217 0.0
C4709 C 0.15131 0.40168 0.20076 0.0
C4710 C 0.15875 0.40206 0.18582 0.0
C4711 C 0.12795 0.39559 0.21811 0.0
C4712 C 0.12794 0.40975 0.22737 0.0
C4713 C 0.12057 0.38153 0.2242 0.0
C4714 C 0.12121 0.36587 0.21565 0.0
C4715 C 0.13581 0.35909 0.21139 0.0
C4716 C 0.13633 0.34433 0.20333 0.0
C4717 C 0.12232 0.33617 0.19957 0.0
C4718 C 0.10776 0.34273 0.2039 0.0
C4719 C 0.10718 0.3575 0.21195 0.0
H4720 H 0.12275 0.32474 0.19333 0.0
H4721 H 0.12287 0.4649 0.27708 0.0
H4722 H 0.34242 0.4038 0.92258 0.0
H4723 H 0.34457 0.40115 0.95172 0.0
H4724 H 0.38391 0.36888 0.94593 0.0
H4725 H 0.3819 0.37143 0.91672 0.0
H4726 H 0.36072 0.35765 0.96723 0.0
H4727 H 0.39105 0.40602 0.9577 0.0
H4728 H 0.39548 0.43334 0.94699 0.0
H4729 H 0.35681 0.45106 0.97517 0.0
H4730 H 0.35201 0.42378 0.98589 0.0
H4731 H 0.38627 0.35353 0.04741 0.0
H4732 H 0.3848 0.35767 0.01846 0.0
H4733 H 0.35074 0.39551 0.02556 0.0
H4734 H 0.35264 0.39183 0.0547 0.0
H4735 H 0.37075 0.40415 0.00339 0.0
H4736 H 0.33978 0.35681 0.01293 0.0
H4737 H 0.33403 0.32969 0.0235 0.0
H4738 H 0.37177 0.31016 0.99521 0.0
H4739 H 0.3779 0.33722 0.98462 0.0
C4740 C 0.35158 0.39616 0.92746 0.0
C4741 C 0.362 0.38783 0.91729 0.0
C4742 C 0.35281 0.39473 0.94413 0.0
C4743 C 0.36446 0.38491 0.95092 0.0
C4744 C 0.37486 0.37654 0.94086 0.0
C4745 C 0.37372 0.37806 0.92419 0.0
C4746 C 0.36553 0.38308 0.96855 0.0
C4747 C 0.36313 0.36775 0.97516 0.0
C4748 C 0.36814 0.3964 0.97883 0.0
C4749 C 0.37108 0.41283 0.97247 0.0
C4750 C 0.38341 0.41571 0.96151 0.0
C4751 C 0.386 0.43119 0.95546 0.0
C4752 C 0.37641 0.44392 0.96036 0.0
C4753 C 0.36422 0.44119 0.97137 0.0
C4754 C 0.36157 0.42573 0.97745 0.0
C4755 C 0.37845 0.36273 0.04282 0.0
C4756 C 0.36948 0.37229 0.05331 0.0
C4757 C 0.37757 0.36504 0.02625 0.0
C4758 C 0.36741 0.37667 0.01981 0.0
C4759 C 0.35862 0.38642 0.03027 0.0
C4760 C 0.3597 0.3843 0.0469 0.0
C4761 C 0.36602 0.37865 0.00215 0.0
C4762 C 0.36832 0.39401 0.99552 0.0
C4763 C 0.3631 0.36538 0.99183 0.0
C4764 C 0.35939 0.34907 0.99809 0.0
C4765 C 0.34693 0.34675 0.00904 0.0
C4766 C 0.34359 0.33139 0.01502 0.0
C4767 C 0.35255 0.31822 0.01006 0.0
C4768 C 0.36485 0.32038 -0.00094 0.0
C4769 C 0.36825 0.33572 0.99305 0.0
H4770 H 0.34995 0.30633 0.0147 0.0
H4771 H 0.37843 0.45589 0.95566 0.0
H4772 H 0.38044 0.63054 0.66386 0.0
H4773 H 0.39119 0.62926 0.69118 0.0
H4774 H 0.36214 0.58762 0.70103 0.0
H4775 H 0.35135 0.58873 0.67389 0.0
H4776 H 0.36077 0.61143 0.72473 0.0
H4777 H 0.40007 0.58249 0.69395 0.0
H4778 H 0.41951 0.57961 0.67209 0.0
H4779 H 0.44592 0.61985 0.6906 0.0
H4780 H 0.4265 0.62311 0.71246 0.0
H4781 H 0.38976 0.59013 0.79978 0.0
H4782 H 0.38296 0.58786 0.77126 0.0
H4783 H 0.41989 0.62203 0.75965 0.0
H4784 H 0.42748 0.6232 0.78807 0.0
H4785 H 0.41758 0.60247 0.73632 0.0
H4786 H 0.37932 0.63291 0.76593 0.0
H4787 H 0.35997 0.63795 0.7875 0.0
H4788 H 0.33161 0.59826 0.77089 0.0
H4789 H 0.35089 0.59286 0.74934 0.0
C4790 C 0.37631 0.62113 0.67185 0.0
C4791 C 0.36503 0.60974 0.66669 0.0
C4792 C 0.38253 0.62037 0.6874 0.0
C4793 C 0.37752 0.60827 0.69801 0.0
C4794 C 0.36616 0.59702 0.69297 0.0
C4795 C 0.36003 0.59768 0.67744 0.0
C4796 C 0.38378 0.60746 0.71456 0.0
C4797 C 0.37315 0.60929 0.72731 0.0
C4798 C 0.40001 0.6052 0.7178 0.0
C4799 C 0.41175 0.60313 0.70474 0.0
C4800 C 0.40996 0.5908 0.69329 0.0
C4801 C 0.42098 0.58908 0.68091 0.0
C4802 C 0.43392 0.59956 0.67993 0.0
C4803 C 0.43588 0.61175 0.69136 0.0
C4804 C 0.42488 0.61353 0.70375 0.0
C4805 C 0.39664 0.59678 0.79101 0.0
C4806 C 0.40906 0.60685 0.79592 0.0
C4807 C 0.39267 0.59564 0.77478 0.0
C4808 C 0.40053 0.60523 0.76336 0.0
C4809 C 0.41357 0.6146 0.76823 0.0
C4810 C 0.41791 0.61528 0.78442 0.0
C4811 C 0.39453 0.60631 0.74663 0.0
C4812 C 0.40518 0.60461 0.73381 0.0
C4813 C 0.37833 0.60905 0.74329 0.0
C4814 C 0.36661 0.6124 0.75612 0.0
C4815 C 0.36899 0.62522 0.76693 0.0
C4816 C 0.35804 0.62814 0.77914 0.0
C4817 C 0.34459 0.61841 0.78058 0.0
C4818 C 0.34204 0.60577 0.76977 0.0
C4819 C 0.35297 0.60279 0.75755 0.0
H4820 H 0.33613 0.62068 0.79005 0.0
H4821 H 0.44244 0.59822 0.67034 0.0
H4822 H 0.14156 0.60152 0.5495 0.0
H4823 H 0.14121 0.59722 0.52045 0.0
H4824 H 0.12237 0.64484 0.51351 0.0
H4825 H 0.1225 0.64924 0.54252 0.0
H4826 H 0.10742 0.62236 0.49461 0.0
H4827 H 0.16108 0.63761 0.50799 0.0
H4828 H 0.18659 0.6353 0.52205 0.0
H4829 H 0.19256 0.58761 0.50312 0.0
H4830 H 0.1669 0.58952 0.48919 0.0
H4831 H 0.12356 0.63163 0.41116 0.0
H4832 H 0.1209 0.63427 0.44033 0.0
H4833 H 0.14664 0.58998 0.44673 0.0
H4834 H 0.15004 0.58781 0.41771 0.0
H4835 H 0.15752 0.61032 0.46626 0.0
H4836 H 0.10475 0.59407 0.45275 0.0
H4837 H 0.07918 0.59524 0.43855 0.0
H4838 H 0.07108 0.64257 0.45752 0.0
H4839 H 0.09669 0.64177 0.47168 0.0
C4840 C 0.1373 0.61108 0.54183 0.0
C4841 C 0.13214 0.62577 0.54838 0.0
C4842 C 0.13714 0.6086 0.52522 0.0
C4843 C 0.1319 0.62077 0.51484 0.0
C4844 C 0.12646 0.6353 0.52132 0.0
C4845 C 0.12662 0.63781 0.53792 0.0
C4846 C 0.13244 0.61853 0.49719 0.0
C4847 C 0.11838 0.61986 0.48834 0.0
C4848 C 0.14667 0.61485 0.48913 0.0
C4849 C 0.162 0.61365 0.49767 0.0
C4850 C 0.16776 0.62657 0.50696 0.0
C4851 C 0.18227 0.62534 0.51488 0.0
C4852 C 0.19121 0.61131 0.51347 0.0
C4853 C 0.18563 0.59846 0.5042 0.0
C4854 C 0.1711 0.59961 0.49629 0.0
C4855 C 0.12855 0.62243 0.41883 0.0
C4856 C 0.13707 0.60957 0.41221 0.0
C4857 C 0.12694 0.62387 0.43549 0.0
C4858 C 0.13339 0.61221 0.44578 0.0
C4859 C 0.1416 0.59917 0.43909 0.0
C4860 C 0.14354 0.59794 0.42249 0.0
C4861 C 0.13245 0.61398 0.46353 0.0
C4862 C 0.14648 0.61266 0.47244 0.0
C4863 C 0.11814 0.61741 0.47163 0.0
C4864 C 0.10271 0.61792 0.46315 0.0
C4865 C 0.09757 0.60478 0.4538 0.0
C4866 C 0.08306 0.60537 0.44578 0.0
C4867 C 0.07353 0.61899 0.4471 0.0
C4868 C 0.07848 0.63203 0.45649 0.0
C4869 C 0.09298 0.63151 0.46453 0.0
H4870 H 0.0623 0.61942 0.44088 0.0
H4871 H 0.2025 0.61039 0.51951 0.0
H4872 H 0.09289 0.62761 0.20358 0.0
H4873 H 0.09974 0.62885 0.23209 0.0
H4874 H 0.13643 0.59382 0.22461 0.0
H4875 H 0.12977 0.59258 0.19597 0.0
H4876 H 0.11741 0.58846 0.25279 0.0
H4877 H 0.14743 0.63025 0.22637 0.0
H4878 H 0.15094 0.65405 0.20903 0.0
H4879 H 0.1208 0.68153 0.24004 0.0
H4880 H 0.11691 0.65779 0.25744 0.0
H4881 H 0.17036 0.59814 0.31569 0.0
H4882 H 0.1599 0.60105 0.28857 0.0
H4883 H 0.12202 0.63047 0.30661 0.0
H4884 H 0.13237 0.62748 0.33407 0.0
H4885 H 0.13893 0.63992 0.27434 0.0
H4886 H 0.10979 0.59798 0.30154 0.0
H4887 H 0.1096 0.57508 0.32039 0.0
H4888 H 0.13939 0.5483 0.28846 0.0
H4889 H 0.14001 0.57119 0.26954 0.0
C4890 C 0.10233 0.62006 0.208 0.0
C4891 C 0.11086 0.61006 0.1975 0.0
C4892 C 0.10623 0.62081 0.22428 0.0
C4893 C 0.1186 0.61148 0.23037 0.0
C4894 C 0.12682 0.60109 0.22007 0.0
C4895 C 0.12307 0.60048 0.20373 0.0
C4896 C 0.12346 0.61311 0.24734 0.0
C4897 C 0.1221 0.5997 0.25749 0.0
C4898 C 0.12934 0.62788 0.25349 0.0
C4899 C 0.13171 0.64218 0.24309 0.0
C4900 C 0.14142 0.64132 0.2294 0.0
C4901 C 0.14351 0.6548 0.21958 0.0
C4902 C 0.13605 0.66928 0.22339 0.0
C4903 C 0.12654 0.6703 0.23707 0.0
C4904 C 0.12439 0.65683 0.24692 0.0
C4905 C 0.15993 0.60542 0.31392 0.0
C4906 C 0.15206 0.61244 0.327 0.0
C4907 C 0.15402 0.60712 0.29841 0.0
C4908 C 0.14021 0.61591 0.2957 0.0
C4909 C 0.13275 0.62369 0.30856 0.0
C4910 C 0.13861 0.62189 0.32419 0.0
C4911 C 0.13286 0.61532 0.27967 0.0
C4912 C 0.13385 0.62884 0.26969 0.0
C4913 C 0.12659 0.6007 0.27367 0.0
C4914 C 0.12503 0.58634 0.28418 0.0
C4915 C 0.11628 0.58719 0.29853 0.0
C4916 C 0.11614 0.57425 0.30925 0.0
C4917 C 0.12459 0.56031 0.30568 0.0
C4918 C 0.13292 0.55915 0.29123 0.0
C4919 C 0.13315 0.5721 0.28048 0.0
H4920 H 0.12467 0.55041 0.31412 0.0
H4921 H 0.13769 0.67971 0.21578 0.0
H4922 H 0.13443 0.36234 0.08971 0.0
H4923 H 0.13391 0.35565 0.06098 0.0
H4924 H 0.15886 0.39972 0.05026 0.0
H4925 H 0.15988 0.40629 0.07896 0.0
H4926 H 0.12709 0.39111 0.03288 0.0
H4927 H 0.17975 0.37281 0.04629 0.0
H4928 H 0.19865 0.35714 0.0624 0.0
H4929 H 0.1752 0.31329 0.04862 0.0
H4930 H 0.15582 0.32875 0.03282 0.0
H4931 H 0.137 0.38144 0.95002 0.0
H4932 H 0.14257 0.38721 0.97825 0.0
H4933 H 0.13681 0.33683 0.98965 0.0
H4934 H 0.13199 0.33091 0.96122 0.0
H4935 H 0.15946 0.34861 0.00719 0.0
H4936 H 0.10659 0.36486 0.99538 0.0
H4937 H 0.08548 0.37897 0.98067 0.0
H4938 H 0.10672 0.42453 0.99253 0.0
H4939 H 0.12808 0.41067 0.00713 0.0
C4940 C 0.13987 0.37055 0.08123 0.0
C4941 C 0.14719 0.38484 0.08653 0.0
C4942 C 0.1396 0.36669 0.06489 0.0
C4943 C 0.14639 0.37719 0.05364 0.0
C4944 C 0.15363 0.39148 0.05886 0.0
C4945 C 0.15422 0.39517 0.07521 0.0
C4946 C 0.14536 0.37356 0.03634 0.0
C4947 C 0.13431 0.382 0.02715 0.0
C4948 C 0.15443 0.36128 0.02918 0.0
C4949 C 0.1662 0.35197 0.03853 0.0
C4950 C 0.17849 0.35985 0.04684 0.0
C4951 C 0.18932 0.351 0.05589 0.0
C4952 C 0.18814 0.33423 0.05652 0.0
C4953 C 0.1761 0.32628 0.04812 0.0
C4954 C 0.16517 0.33509 0.03914 0.0
C4955 C 0.13705 0.37159 0.95853 0.0
C4956 C 0.13389 0.35576 0.95351 0.0
C4957 C 0.14018 0.3749 0.97467 0.0
C4958 C 0.13971 0.36251 0.98615 0.0
C4959 C 0.13716 0.34659 0.98103 0.0
C4960 C 0.13436 0.34323 0.96481 0.0
C4961 C 0.14122 0.36629 0.00352 0.0
C4962 C 0.15227 0.35781 0.01281 0.0
C4963 C 0.1319 0.37833 0.0109 0.0
C4964 C 0.11901 0.38672 0.00221 0.0
C4965 C 0.10681 0.37788 0.99476 0.0
C4966 C 0.0948 0.38583 0.98645 0.0
C4967 C 0.09478 0.40263 0.98563 0.0
C4968 C 0.10676 0.41151 0.99316 0.0
C4969 C 0.11882 0.40362 0.00146 0.0
H4970 H 0.08547 0.40876 0.9792 0.0
H4971 H 0.19655 0.32741 0.06351 0.0
H4972 H 0.37413 0.37734 0.83942 0.0
H4973 H 0.38443 0.37431 0.81204 0.0
H4974 H 0.33791 0.38308 0.79283 0.0
H4975 H 0.32762 0.3864 0.82005 0.0
H4976 H 0.35564 0.35798 0.77673 0.0
H4977 H 0.36007 0.41339 0.7954 0.0
H4978 H 0.36856 0.43282 0.81617 0.0
H4979 H 0.41686 0.41884 0.80935 0.0
H4980 H 0.40859 0.39905 0.78876 0.0
H4981 H 0.3626 0.38887 0.69913 0.0
H4982 H 0.35724 0.38709 0.72788 0.0
H4983 H 0.40699 0.38139 0.73744 0.0
H4984 H 0.41255 0.38311 0.70861 0.0
H4985 H 0.39101 0.40259 0.75933 0.0
H4986 H 0.38679 0.34931 0.73805 0.0
H4987 H 0.378 0.32841 0.71892 0.0
H4988 H 0.32962 0.33755 0.73127 0.0
H4989 H 0.33811 0.35871 0.7503 0.0
C4990 C 0.36607 0.37834 0.82936 0.0
C4991 C 0.35014 0.38228 0.83178 0.0
C4992 C 0.37196 0.3766 0.81378 0.0
C4993 C 0.36191 0.37857 0.80051 0.0
C4994 C 0.3458 0.38149 0.80296 0.0
C4995 C 0.33998 0.38348 0.81848 0.0
C4996 C 0.3683 0.37929 0.78406 0.0
C4997 C 0.36336 0.36771 0.77288 0.0
C4998 C 0.37858 0.39188 0.77925 0.0
C4999 C 0.3837 0.40461 0.79069 0.0
C5000 C 0.3725 0.41444 0.79836 0.0
C5001 C 0.37726 0.42548 0.81012 0.0
C5002 C 0.39322 0.42695 0.81417 0.0
C5003 C 0.40449 0.4176 0.80626 0.0
C5004 C 0.39977 0.40647 0.79454 0.0
C5005 C 0.37245 0.38737 0.70731 0.0
C5006 C 0.38799 0.38596 0.70154 0.0
C5007 C 0.36935 0.38634 0.72373 0.0
C5008 C 0.38172 0.38394 0.73469 0.0
C5009 C 0.39731 0.3832 0.72911 0.0
C5010 C 0.40043 0.3841 0.71264 0.0
C5011 C 0.37811 0.3814 0.75186 0.0
C5012 C 0.38353 0.39269 0.76319 0.0
C5013 C 0.36827 0.3685 0.75683 0.0
C5014 C 0.36309 0.35569 0.74551 0.0
C5015 C 0.37427 0.34695 0.73659 0.0
C5016 C 0.36934 0.33505 0.72579 0.0
C5017 C 0.35326 0.33167 0.72386 0.0
C5018 C 0.34207 0.34018 0.73277 0.0
C5019 C 0.34694 0.35213 0.74358 0.0
H5020 H 0.34947 0.32245 0.71549 0.0
H5021 H 0.39686 0.43535 0.82343 0.0
H5022 H 0.34749 0.66347 0.45574 0.0
H5023 H 0.34171 0.65576 0.48355 0.0
H5024 H 0.37816 0.61965 0.48133 0.0
H5025 H 0.38336 0.62675 0.45342 0.0
H5026 H 0.35473 0.60751 0.49562 0.0
H5027 H 0.38287 0.65764 0.50078 0.0
H5028 H 0.3881 0.68648 0.496 0.0
H5029 H 0.34331 0.69844 0.51695 0.0
H5030 H 0.33774 0.66964 0.52167 0.0
H5031 H 0.36784 0.62063 0.58694 0.0
H5032 H 0.37011 0.63062 0.55937 0.0
H5033 H 0.32822 0.60381 0.54613 0.0
H5034 H 0.32634 0.59324 0.57346 0.0
H5035 H 0.35355 0.64778 0.53967 0.0
H5036 H 0.33139 0.58936 0.50874 0.0
H5037 H 0.3302 0.56015 0.51402 0.0
H5038 H 0.37038 0.56412 0.54536 0.0
H5039 H 0.37194 0.5933 0.5401 0.0
C5040 C 0.35421 0.65387 0.46123 0.0
C5041 C 0.36586 0.64569 0.45248 0.0
C5042 C 0.35097 0.64953 0.47713 0.0
C5043 C 0.35964 0.63726 0.48463 0.0
C5044 C 0.37126 0.62911 0.47581 0.0
C5045 C 0.37426 0.6332 0.45987 0.0
C5046 C 0.35666 0.6327 0.5016 0.0
C5047 C 0.35444 0.61635 0.50522 0.0
C5048 C 0.35648 0.64417 0.51421 0.0
C5049 C 0.35982 0.66149 0.51142 0.0
C5050 C 0.37409 0.66642 0.50426 0.0
C5051 C 0.37712 0.68275 0.50158 0.0
C5052 C 0.36602 0.69428 0.50612 0.0
C5053 C 0.35189 0.6895 0.51341 0.0
C5054 C 0.34879 0.67317 0.5161 0.0
C5055 C 0.3591 0.61694 0.57813 0.0
C5056 C 0.34708 0.60597 0.5822 0.0
C5057 C 0.36036 0.6227 0.56242 0.0
C5058 C 0.3495 0.61773 0.55061 0.0
C5059 C 0.33696 0.60749 0.55494 0.0
C5060 C 0.33588 0.60148 0.57055 0.0
C5061 C 0.35179 0.6226 0.53363 0.0
C5062 C 0.35377 0.63899 0.53002 0.0
C5063 C 0.35236 0.61111 0.52107 0.0
C5064 C 0.35165 0.59353 0.52416 0.0
C5065 C 0.34 0.58398 0.51671 0.0
C5066 C 0.33926 0.56743 0.51971 0.0
C5067 C 0.35017 0.56029 0.53006 0.0
C5068 C 0.3619 0.56967 0.53739 0.0
C5069 C 0.3627 0.58622 0.53442 0.0
H5070 H 0.34957 0.54749 0.53238 0.0
H5071 H 0.36839 0.70693 0.50404 0.0
H5072 H 0.15065 0.12565 0.40226 0.0
H5073 H 0.17584 0.1128 0.39539 0.0
H5074 H 0.1997 0.1586 0.39984 0.0
H5075 H 0.17475 0.17144 0.40677 0.0
H5076 H 0.20781 0.14158 0.37203 0.0
H5077 H 0.20193 0.13245 0.42945 0.0
H5078 H 0.18798 0.12204 0.45332 0.0
H5079 H 0.18992 0.0741 0.43409 0.0
H5080 H 0.20366 0.08428 0.40997 0.0
H5081 H 0.28834 0.12865 0.3798 0.0
H5082 H 0.26089 0.1356 0.38506 0.0
H5083 H 0.24796 0.0853 0.38399 0.0
H5084 H 0.27566 0.07819 0.37907 0.0
H5085 H 0.23242 0.10082 0.40759 0.0
H5086 H 0.24052 0.10883 0.35167 0.0
H5087 H 0.25406 0.11863 0.32732 0.0
H5088 H 0.24716 0.1675 0.3425 0.0
H5089 H 0.23377 0.15799 0.36707 0.0
C5090 C 0.16127 0.13296 0.40171 0.0
C5091 C 0.16075 0.14954 0.40508 0.0
C5092 C 0.17563 0.1256 0.39785 0.0
C5093 C 0.18961 0.13476 0.39718 0.0
C5094 C 0.18903 0.15134 0.40028 0.0
C5095 C 0.17477 0.15864 0.40429 0.0
C5096 C 0.20499 0.12725 0.39338 0.0
C5097 C 0.21324 0.13272 0.37983 0.0
C5098 C 0.21177 0.11528 0.40326 0.0
C5099 C 0.20365 0.10915 0.41782 0.0
C5100 C 0.19926 0.11971 0.43025 0.0
C5101 C 0.19141 0.11385 0.44383 0.0
C5102 C 0.18802 0.09743 0.4452 0.0
C5103 C 0.19252 0.08682 0.433 0.0
C5104 C 0.20034 0.09263 0.41937 0.0
C5105 C 0.27969 0.11904 0.38076 0.0
C5106 C 0.28412 0.10288 0.37887 0.0
C5107 C 0.26398 0.12303 0.38371 0.0
C5108 C 0.25231 0.11099 0.38455 0.0
C5109 C 0.25676 0.09478 0.38326 0.0
C5110 C 0.27257 0.09075 0.38044 0.0
C5111 C 0.23548 0.11555 0.38649 0.0
C5112 C 0.22693 0.1095 0.39963 0.0
C5113 C 0.22831 0.12688 0.37612 0.0
C5114 C 0.23623 0.13268 0.36127 0.0
C5115 C 0.24197 0.12167 0.34987 0.0
C5116 C 0.24961 0.12717 0.33602 0.0
C5117 C 0.25149 0.14367 0.33337 0.0
C5118 C 0.2457 0.15471 0.34456 0.0
C5119 C 0.23806 0.14928 0.35845 0.0
H5120 H 0.25741 0.14791 0.32264 0.0
H5121 H 0.18194 0.09291 0.45572 0.0
H5122 H 0.78073 0.4111 0.61758 0.0
H5123 H 0.75439 0.40177 0.60934 0.0
H5124 H 0.7724 0.35376 0.60282 0.0
H5125 H 0.79869 0.36289 0.61144 0.0
H5126 H 0.75163 0.36779 0.57661 0.0
H5127 H 0.75457 0.35803 0.63435 0.0
H5128 H 0.75922 0.36666 0.66234 0.0
H5129 H 0.72268 0.40206 0.65797 0.0
H5130 H 0.71798 0.39378 0.62986 0.0
H5131 H 0.6832 0.32083 0.56934 0.0
H5132 H 0.70888 0.33167 0.57728 0.0
H5133 H 0.68598 0.3721 0.59989 0.0
H5134 H 0.66013 0.36082 0.59262 0.0
H5135 H 0.70915 0.36387 0.61755 0.0
H5136 H 0.7045 0.37466 0.5617 0.0
H5137 H 0.69962 0.3691 0.533 0.0
H5138 H 0.7384 0.33599 0.53231 0.0
H5139 H 0.74342 0.34123 0.56106 0.0
C5140 C 0.7791 0.39858 0.61427 0.0
C5141 C 0.7917 0.38768 0.6152 0.0
C5142 C 0.76407 0.39329 0.60962 0.0
C5143 C 0.76152 0.37709 0.60556 0.0
C5144 C 0.7742 0.3663 0.60593 0.0
C5145 C 0.78915 0.37151 0.6109 0.0
C5146 C 0.74551 0.37127 0.60143 0.0
C5147 C 0.74234 0.36673 0.58553 0.0
C5148 C 0.73333 0.37056 0.61302 0.0
C5149 C 0.73605 0.37541 0.62996 0.0
C5150 C 0.74763 0.36775 0.63932 0.0
C5151 C 0.75025 0.37255 0.65521 0.0
C5152 C 0.74128 0.38493 0.66192 0.0
C5153 C 0.72963 0.39249 0.65275 0.0
C5154 C 0.72698 0.38774 0.63685 0.0
C5155 C 0.68364 0.33198 0.5761 0.0
C5156 C 0.66968 0.34003 0.5803 0.0
C5157 C 0.69834 0.33824 0.58052 0.0
C5158 C 0.69943 0.35295 0.58881 0.0
C5159 C 0.68547 0.36079 0.59342 0.0
C5160 C 0.6707 0.35433 0.58929 0.0
C5161 C 0.71515 0.36007 0.59263 0.0
C5162 C 0.71832 0.36492 0.6085 0.0
C5163 C 0.72723 0.36147 0.58088 0.0
C5164 C 0.72425 0.35824 0.56358 0.0
C5165 C 0.71192 0.36611 0.55546 0.0
C5166 C 0.70915 0.36304 0.53917 0.0
C5167 C 0.71868 0.35218 0.53084 0.0
C5168 C 0.73102 0.34439 0.53878 0.0
C5169 C 0.73385 0.34743 0.55507 0.0
H5170 H 0.7165 0.34981 0.51823 0.0
H5171 H 0.74333 0.38864 0.67422 0.0
H5172 H 0.37474 0.91417 0.3629 0.0
H5173 H 0.3643 0.94161 0.36368 0.0
H5174 H 0.40744 0.95951 0.34247 0.0
H5175 H 0.41796 0.9322 0.34169 0.0
H5176 H 0.39801 0.97773 0.36791 0.0
H5177 H 0.37532 0.95574 0.3197 0.0
H5178 H 0.36044 0.93576 0.30372 0.0
H5179 H 0.31902 0.9444 0.33218 0.0
H5180 H 0.33372 0.96434 0.34844 0.0
H5181 H 0.37674 0.05486 0.3432 0.0
H5182 H 0.38373 0.02651 0.34161 0.0
H5183 H 0.34002 0.01354 0.36496 0.0
H5184 H 0.33276 0.04202 0.36651 0.0
H5185 H 0.34848 0.99249 0.33964 0.0
H5186 H 0.37166 0.01568 0.38716 0.0
H5187 H 0.38708 0.03582 0.40241 0.0
H5188 H 0.42829 0.02482 0.3745 0.0
H5189 H 0.41304 0.00478 0.35891 0.0
C5190 C 0.382 0.92397 0.35845 0.0
C5191 C 0.39715 0.92106 0.35222 0.0
C5192 C 0.376 0.9396 0.35884 0.0
C5193 C 0.38506 0.95254 0.35301 0.0
C5194 C 0.40027 0.94967 0.34701 0.0
C5195 C 0.40624 0.93407 0.34655 0.0
C5196 C 0.37879 0.96913 0.3532 0.0
C5197 C 0.38727 0.98098 0.36161 0.0
C5198 C 0.36459 0.97326 0.34524 0.0
C5199 C 0.35566 0.9614 0.3354 0.0
C5200 C 0.36307 0.95329 0.32263 0.0
C5201 C 0.35466 0.94198 0.31351 0.0
C5202 C 0.33881 0.93875 0.31698 0.0
C5203 C 0.33131 0.94689 0.32953 0.0
C5204 C 0.33967 0.95821 0.33869 0.0
C5205 C 0.36849 0.04602 0.34787 0.0
C5206 C 0.35427 0.05075 0.3552 0.0
C5207 C 0.37253 0.02981 0.34695 0.0
C5208 C 0.36251 0.018 0.35342 0.0
C5209 C 0.34793 0.02253 0.35997 0.0
C5210 C 0.34384 0.0388 0.36088 0.0
C5211 C 0.36782 0.00108 0.35421 0.0
C5212 C 0.35916 0.98918 0.34602 0.0
C5213 C 0.38192 0.99689 0.36231 0.0
C5214 C 0.39117 0.00882 0.37178 0.0
C5215 C 0.38398 0.01764 0.3842 0.0
C5216 C 0.39269 0.02903 0.39291 0.0
C5217 C 0.40865 0.03162 0.3894 0.0
C5218 C 0.41593 0.02281 0.37719 0.0
C5219 C 0.40726 0.01142 0.36842 0.0
H5220 H 0.41538 0.04045 0.39616 0.0
H5221 H 0.33233 0.92998 0.30991 0.0
H5222 H 0.8361 0.62805 0.09926 0.0
H5223 H 0.81162 0.61622 0.11006 0.0
H5224 H 0.78622 0.65917 0.09713 0.0
H5225 H 0.81043 0.67085 0.08598 0.0
H5226 H 0.77969 0.64511 0.12958 0.0
H5227 H 0.78364 0.63172 0.07228 0.0
H5228 H 0.79745 0.61977 0.0491 0.0
H5229 H 0.798 0.57389 0.07282 0.0
H5230 H 0.78441 0.58566 0.09627 0.0
H5231 H 0.69887 0.63 0.12483 0.0
H5232 H 0.72628 0.63752 0.11959 0.0
H5233 H 0.73949 0.5874 0.11993 0.0
H5234 H 0.71186 0.57977 0.12451 0.0
H5235 H 0.75458 0.60179 0.09711 0.0
H5236 H 0.74749 0.61287 0.15245 0.0
H5237 H 0.73465 0.6237 0.17671 0.0
H5238 H 0.74134 0.67186 0.1592 0.0
H5239 H 0.75401 0.66131 0.13471 0.0
C5240 C 0.82533 0.63502 0.09896 0.0
C5241 C 0.82508 0.6503 0.09172 0.0
C5242 C 0.8114 0.62826 0.10508 0.0
C5243 C 0.7972 0.63686 0.10432 0.0
C5244 C 0.79712 0.65241 0.09783 0.0
C5245 C 0.8109 0.65901 0.09141 0.0
C5246 C 0.7821 0.62939 0.1092 0.0
C5247 C 0.77412 0.63566 0.12252 0.0
C5248 C 0.77521 0.61669 0.10025 0.0
C5249 C 0.7832 0.60961 0.08609 0.0
C5250 C 0.78684 0.61912 0.07261 0.0
C5251 C 0.7946 0.61238 0.05942 0.0
C5252 C 0.79865 0.59609 0.05951 0.0
C5253 C 0.79489 0.58651 0.07278 0.0
C5254 C 0.78716 0.59321 0.08602 0.0
C5255 C 0.70761 0.62058 0.12373 0.0
C5256 C 0.70328 0.60431 0.12517 0.0
C5257 C 0.7233 0.62489 0.12086 0.0
C5258 C 0.73504 0.61305 0.11979 0.0
C5259 C 0.73066 0.59675 0.12083 0.0
C5260 C 0.71489 0.59241 0.12344 0.0
C5261 C 0.7518 0.6178 0.11735 0.0
C5262 C 0.76015 0.61102 0.10445 0.0
C5263 C 0.75915 0.62983 0.12691 0.0
C5264 C 0.75162 0.63628 0.14168 0.0
C5265 C 0.74613 0.62576 0.15372 0.0
C5266 C 0.7389 0.63186 0.16752 0.0
C5267 C 0.73716 0.64846 0.16949 0.0
C5268 C 0.74269 0.659 0.15766 0.0
C5269 C 0.74992 0.65297 0.14382 0.0
H5270 H 0.73155 0.65315 0.18018 0.0
H5271 H 0.80465 0.59089 0.04929 0.0
H5272 H 0.57865 0.57494 0.351 0.0
H5273 H 0.58994 0.5479 0.35133 0.0
H5274 H 0.6341 0.56729 0.36883 0.0
H5275 H 0.62283 0.59441 0.36877 0.0
H5276 H 0.63646 0.54507 0.34183 0.0
H5277 H 0.613 0.5492 0.39455 0.0
H5278 H 0.59137 0.55465 0.4136 0.0
H5279 H 0.56309 0.51768 0.39149 0.0
H5280 H 0.58448 0.51216 0.37215 0.0
H5281 H 0.67189 0.47053 0.36437 0.0
H5282 H 0.66222 0.4981 0.36158 0.0
H5283 H 0.61462 0.47994 0.35588 0.0
H5284 H 0.62416 0.4525 0.35935 0.0
H5285 H 0.61452 0.50226 0.37698 0.0
H5286 H 0.63656 0.49759 0.32431 0.0
H5287 H 0.657 0.49201 0.30398 0.0
H5288 H 0.68641 0.52933 0.32384 0.0
H5289 H 0.66623 0.535 0.34444 0.0
C5290 C 0.59074 0.57344 0.355 0.0
C5291 C 0.59986 0.58675 0.35989 0.0
C5292 C 0.59716 0.55802 0.35517 0.0
C5293 C 0.61282 0.55568 0.3601 0.0
C5294 C 0.62199 0.56893 0.36495 0.0
C5295 C 0.61551 0.58436 0.36499 0.0
C5296 C 0.61953 0.53933 0.36027 0.0
C5297 C 0.63186 0.5357 0.34964 0.0
C5298 C 0.61313 0.52712 0.37014 0.0
C5299 C 0.60029 0.53038 0.38181 0.0
C5300 C 0.60212 0.54233 0.39366 0.0
C5301 C 0.58991 0.54541 0.40453 0.0
C5302 C 0.57585 0.53655 0.40373 0.0
C5303 C 0.57398 0.52455 0.39208 0.0
C5304 C 0.58615 0.52143 0.38118 0.0
C5305 C 0.65941 0.47245 0.36226 0.0
C5306 C 0.64875 0.45945 0.36218 0.0
C5307 C 0.65389 0.48819 0.3606 0.0
C5308 C 0.63768 0.49111 0.35847 0.0
C5309 C 0.62716 0.47801 0.35763 0.0
C5310 C 0.63262 0.46234 0.35957 0.0
C5311 C 0.63145 0.50776 0.35837 0.0
C5312 C 0.61919 0.51151 0.36909 0.0
C5313 C 0.63777 0.51999 0.34838 0.0
C5314 C 0.64995 0.5166 0.33602 0.0
C5315 C 0.64744 0.50451 0.32443 0.0
C5316 C 0.65897 0.50135 0.31284 0.0
C5317 C 0.67301 0.51028 0.31265 0.0
C5318 C 0.67554 0.52241 0.32402 0.0
C5319 C 0.66405 0.52561 0.33565 0.0
H5320 H 0.68192 0.50782 0.30366 0.0
H5321 H 0.56641 0.53895 0.41216 0.0
H5322 H 0.20716 0.90859 0.88057 0.0
H5323 H 0.23509 0.90174 0.88331 0.0
H5324 H 0.22235 0.85212 0.89189 0.0
H5325 H 0.19446 0.85891 0.88958 0.0
H5326 H 0.24356 0.86161 0.91284 0.0
H5327 H 0.23771 0.86555 0.85531 0.0
H5328 H 0.23069 0.87899 0.82988 0.0
H5329 H 0.26449 0.91648 0.83971 0.0
H5330 H 0.27156 0.90337 0.86531 0.0
H5331 H 0.31464 0.82091 0.90182 0.0
H5332 H 0.2881 0.83149 0.89811 0.0
H5333 H 0.30729 0.87935 0.89229 0.0
H5334 H 0.33412 0.86871 0.8956 0.0
H5335 H 0.2837 0.87346 0.871 0.0
H5336 H 0.29077 0.86762 0.92802 0.0
H5337 H 0.29757 0.85329 0.95304 0.0
H5338 H 0.26106 0.81842 0.94369 0.0
H5339 H 0.2542 0.83238 0.91851 0.0
C5340 C 0.2103 0.8962 0.88297 0.0
C5341 C 0.19856 0.88429 0.88485 0.0
C5342 C 0.22629 0.8923 0.88447 0.0
C5343 C 0.23083 0.87639 0.88765 0.0
C5344 C 0.21913 0.86449 0.88946 0.0
C5345 C 0.20317 0.86839 0.88811 0.0
C5346 C 0.24771 0.87208 0.88954 0.0
C5347 C 0.2523 0.86406 0.90361 0.0
C5348 C 0.25922 0.87573 0.87772 0.0
C5349 C 0.25504 0.88357 0.8623 0.0
C5350 C 0.24356 0.87673 0.8521 0.0
C5351 C 0.23959 0.88427 0.83765 0.0
C5352 C 0.24711 0.8986 0.8332 0.0
C5353 C 0.25865 0.90539 0.84318 0.0
C5354 C 0.26266 0.89791 0.85765 0.0
C5355 C 0.31325 0.83369 0.89972 0.0
C5356 C 0.32644 0.84402 0.89915 0.0
C5357 C 0.29806 0.83973 0.89765 0.0
C5358 C 0.2957 0.85626 0.89528 0.0
C5359 C 0.30887 0.86657 0.89422 0.0
C5360 C 0.32415 0.86049 0.89614 0.0
C5361 C 0.27941 0.86265 0.89412 0.0
C5362 C 0.27497 0.87112 0.88026 0.0
C5363 C 0.26797 0.85934 0.90609 0.0
C5364 C 0.27203 0.85101 0.92133 0.0
C5365 C 0.28426 0.85684 0.93125 0.0
C5366 C 0.28811 0.84879 0.94547 0.0
C5367 C 0.27975 0.83495 0.94994 0.0
C5368 C 0.26752 0.82914 0.94022 0.0
C5369 C 0.26363 0.83713 0.92599 0.0
H5370 H 0.28271 0.82873 0.96094 0.0
H5371 H 0.24401 0.90443 0.82201 0.0
H5372 H 0.37047 0.95433 0.11015 0.0
H5373 H 0.37786 0.98252 0.11349 0.0
H5374 H 0.34594 0.98633 0.1538 0.0
H5375 H 0.33773 0.95828 0.14969 0.0
H5376 H 0.34314 0.01152 0.13764 0.0
H5377 H 0.3884 0.98451 0.15752 0.0
H5378 H 0.41042 0.96519 0.15787 0.0
H5379 H 0.43051 0.98774 0.11615 0.0
H5380 H 0.4085 0.00707 0.11542 0.0
H5381 H 0.38313 0.08496 0.16362 0.0
H5382 H 0.37465 0.05672 0.16261 0.0
H5383 H 0.38551 0.05501 0.11203 0.0
H5384 H 0.39364 0.08339 0.11279 0.0
H5385 H 0.3992 0.02923 0.13568 0.0
H5386 H 0.35109 0.05566 0.11684 0.0
H5387 H 0.3295 0.07528 0.11964 0.0
H5388 H 0.31576 0.05361 0.16437 0.0
H5389 H 0.33744 0.034 0.16193 0.0
C5390 C 0.3651 0.96118 0.11977 0.0
C5391 C 0.3536 0.95418 0.12972 0.0
C5392 C 0.36941 0.97727 0.12176 0.0
C5393 C 0.36276 0.98652 0.13416 0.0
C5394 C 0.35128 0.97947 0.14417 0.0
C5395 C 0.34662 0.96345 0.14187 0.0
C5396 C 0.3674 0.00368 0.1362 0.0
C5397 C 0.35544 0.01529 0.13748 0.0
C5398 C 0.38343 0.00876 0.13595 0.0
C5399 C 0.39672 0.99716 0.13634 0.0
C5400 C 0.39746 0.98528 0.14835 0.0
C5401 C 0.40994 0.97434 0.14863 0.0
C5402 C 0.42184 0.97522 0.13702 0.0
C5403 C 0.42129 0.98707 0.12513 0.0
C5404 C 0.40882 0.99803 0.12479 0.0
C5405 C 0.38363 0.07859 0.15226 0.0
C5406 C 0.38903 0.08635 0.13827 0.0
C5407 C 0.37877 0.06251 0.15172 0.0
C5408 C 0.3795 0.05391 0.13726 0.0
C5409 C 0.38489 0.06156 0.12328 0.0
C5410 C 0.38944 0.07774 0.12373 0.0
C5411 C 0.37497 0.03677 0.1368 0.0
C5412 C 0.38697 0.02527 0.13592 0.0
C5413 C 0.35905 0.03177 0.13789 0.0
C5414 C 0.34599 0.0435 0.13929 0.0
C5415 C 0.34357 0.05519 0.12735 0.0
C5416 C 0.33129 0.06628 0.12885 0.0
C5417 C 0.3213 0.06572 0.1422 0.0
C5418 C 0.32353 0.05404 0.15405 0.0
C5419 C 0.3358 0.04293 0.15261 0.0
H5420 H 0.3118 0.07432 0.14334 0.0
H5421 H 0.4315 0.96673 0.13725 0.0
H5422 H 0.10652 0.91561 0.66635 0.0
H5423 H 0.11213 0.94439 0.66626 0.0
H5424 H 0.12504 0.9418 0.61618 0.0
H5425 H 0.11916 0.91297 0.61602 0.0
H5426 H 0.13762 0.96214 0.66078 0.0
H5427 H 0.11239 0.97596 0.59747 0.0
H5428 H 0.09231 0.96518 0.57875 0.0
H5429 H 0.0665 0.94499 0.61838 0.0
H5430 H 0.0863 0.95583 0.63734 0.0
H5431 H 0.1613 0.0394 0.63498 0.0
H5432 H 0.15529 0.01068 0.6358 0.0
H5433 H 0.10608 0.02112 0.64395 0.0
H5434 H 0.11192 0.04998 0.64307 0.0
H5435 H 0.11011 0.99728 0.6216 0.0
H5436 H 0.12765 0.00975 0.67462 0.0
H5437 H 0.1455 0.02117 0.69515 0.0
H5438 H 0.18252 0.98961 0.67968 0.0
H5439 H 0.16496 0.97817 0.65885 0.0
C5440 C 0.11064 0.92109 0.6553 0.0
C5441 C 0.11224 0.91196 0.64114 0.0
C5442 C 0.11388 0.93756 0.65531 0.0
C5443 C 0.11878 0.94526 0.64117 0.0
C5444 C 0.121 0.93612 0.62716 0.0
C5445 C 0.11772 0.91962 0.62712 0.0
C5446 C 0.12114 0.96293 0.64103 0.0
C5447 C 0.13164 0.96981 0.65218 0.0
C5448 C 0.11302 0.97298 0.63008 0.0
C5449 C 0.10093 0.96656 0.61879 0.0
C5450 C 0.1024 0.96926 0.60219 0.0
C5451 C 0.09107 0.96314 0.59154 0.0
C5452 C 0.07817 0.95436 0.59737 0.0
C5453 C 0.07654 0.95173 0.61387 0.0
C5454 C 0.08782 0.95785 0.62457 0.0
C5455 C 0.14917 0.03565 0.6369 0.0
C5456 C 0.13709 0.04702 0.639 0.0
C5457 C 0.14578 0.01921 0.63742 0.0
C5458 C 0.13028 0.01382 0.64007 0.0
C5459 C 0.11813 0.02509 0.6419 0.0
C5460 C 0.12151 0.04156 0.64145 0.0
C5461 C 0.12683 0.99639 0.6411 0.0
C5462 C 0.11612 0.98957 0.63014 0.0
C5463 C 0.13445 0.98646 0.65249 0.0
C5464 C 0.14503 0.99321 0.66507 0.0
C5465 C 0.13964 0.00533 0.67551 0.0
C5466 C 0.1497 0.01179 0.68721 0.0
C5467 C 0.16515 0.00614 0.6887 0.0
C5468 C 0.17056 0.99399 0.6785 0.0
C5469 C 0.16055 0.9875 0.66675 0.0
H5470 H 0.17292 0.01116 0.69777 0.0
H5471 H 0.06942 0.94961 0.5891 0.0
loop_
_geom_bond_atom_site_label_1
_geom_bond_atom_site_label_2
_geom_bond_distance
_geom_bond_site_symmetry_2
_ccdc_geom_bond_type
Co0 O1 2.216 . S
Co0 O2 2.091 . S
Co0 O4 2.004 . S
Co0 O10 2.021 . S
Co0 O12 2.137 . S
Co0 O13 2.244 . S
O1 Co0 2.216 . S
O1 C8 1.247 . S
O2 Co0 2.091 . S
O2 C8 1.261 . S
C3 O12 1.247 . S
C3 O13 1.272 . S
O4 Co0 2.004 . S
O4 C9 1.259 . S
Co5 O6 2.061 . S
Co5 O11 2.052 . S
Co5 O13 2.135 . S
O6 Co5 2.061 . S
O6 C9 1.235 . S
C7 O10 1.238 . S
C7 O11 1.241 . S
C8 O1 1.247 . S
C8 O2 1.261 . S
C9 O4 1.259 . S
C9 O6 1.235 . S
O10 Co0 2.021 . S
O10 C7 1.238 . S
O11 Co5 2.052 . S
O11 C7 1.241 . S
O12 Co0 2.137 . S
O12 C3 1.247 . S
O13 Co0 2.244 . S
O13 C3 1.272 . S
O13 Co5 2.135 . S
Co14 O15 2.216 . S
Co14 O16 2.091 . S
Co14 O18 2.004 . S
Co14 O24 2.021 . S
Co14 O26 2.137 . S
Co14 O27 2.244 . S
O15 Co14 2.216 . S
O15 C22 1.247 . S
O16 Co14 2.091 . S
O16 C22 1.261 . S
C17 O26 1.247 . S
C17 O27 1.272 . S
O18 Co14 2.004 . S
O18 C23 1.259 . S
Co19 O20 2.061 . S
Co19 O25 2.052 . S
Co19 O27 2.135 . S
O20 Co19 2.061 . S
O20 C23 1.235 . S
C21 O24 1.238 . S
C21 O25 1.241 . S
C22 O15 1.247 . S
C22 O16 1.261 . S
C23 O18 1.259 . S
C23 O20 1.235 . S
O24 Co14 2.021 . S
O24 C21 1.238 . S
O25 Co19 2.052 . S
O25 C21 1.241 . S
O26 Co14 2.137 . S
O26 C17 1.247 . S
O27 Co14 2.244 . S
O27 C17 1.272 . S
O27 Co19 2.135 . S
Co28 O29 2.216 . S
Co28 O30 2.091 . S
Co28 O32 2.004 . S
Co28 O38 2.021 . S
Co28 O40 2.137 . S
Co28 O41 2.244 . S
O29 Co28 2.216 . S
O29 C36 1.247 . S
O30 Co28 2.091 . S
O30 C36 1.261 . S
C31 O40 1.247 . S
C31 O41 1.272 . S
O32 Co28 2.004 . S
O32 C37 1.259 . S
Co33 O34 2.061 . S
Co33 O39 2.052 . S
Co33 O41 2.135 . S
O34 Co33 2.061 . S
O34 C37 1.235 . S
C35 O38 1.238 . S
C35 O39 1.241 . S
C36 O29 1.247 . S
C36 O30 1.261 . S
C37 O32 1.259 . S
C37 O34 1.235 . S
O38 Co28 2.021 . S
O38 C35 1.238 . S
O39 Co33 2.052 . S
O39 C35 1.241 . S
O40 Co28 2.137 . S
O40 C31 1.247 . S
O41 Co28 2.244 . S
O41 C31 1.272 . S
O41 Co33 2.135 . S
Co42 O43 2.216 . S
Co42 O44 2.091 . S
Co42 O46 2.004 . S
Co42 O52 2.021 . S
Co42 O54 2.137 . S
Co42 O55 2.244 . S
O43 Co42 2.216 . S
O43 C50 1.247 . S
O44 Co42 2.091 . S
O44 C50 1.261 . S
C45 O54 1.247 . S
C45 O55 1.272 . S
O46 Co42 2.004 . S
O46 C51 1.259 . S
Co47 O48 2.061 . S
Co47 O53 2.052 . S
Co47 O55 2.135 . S
O48 Co47 2.061 . S
O48 C51 1.235 . S
C49 O52 1.238 . S
C49 O53 1.241 . S
C50 O43 1.247 . S
C50 O44 1.261 . S
C51 O46 1.259 . S
C51 O48 1.235 . S
O52 Co42 2.021 . S
O52 C49 1.238 . S
O53 Co47 2.052 . S
O53 C49 1.241 . S
O54 Co42 2.137 . S
O54 C45 1.247 . S
O55 Co42 2.244 . S
O55 C45 1.272 . S
O55 Co47 2.135 . S
Co56 O57 2.216 . S
Co56 O58 2.091 . S
Co56 O60 2.004 . S
Co56 O66 2.021 . S
Co56 O68 2.137 . S
Co56 O69 2.244 . S
O57 Co56 2.216 . S
O57 C64 1.247 . S
O58 Co56 2.091 . S
O58 C64 1.261 . S
C59 O68 1.247 . S
C59 O69 1.272 . S
O60 Co56 2.004 . S
O60 C65 1.259 . S
Co61 O62 2.061 . S
Co61 O67 2.052 . S
Co61 O69 2.135 . S
O62 Co61 2.061 . S
O62 C65 1.235 . S
C63 O66 1.238 . S
C63 O67 1.241 . S
C64 O57 1.247 . S
C64 O58 1.261 . S
C65 O60 1.259 . S
C65 O62 1.235 . S
O66 Co56 2.021 . S
O66 C63 1.238 . S
O67 Co61 2.052 . S
O67 C63 1.241 . S
O68 Co56 2.137 . S
O68 C59 1.247 . S
O69 Co56 2.244 . S
O69 C59 1.272 . S
O69 Co61 2.135 . S
Co70 O71 2.216 . S
Co70 O72 2.091 . S
Co70 O74 2.004 . S
Co70 O80 2.021 . S
Co70 O82 2.137 . S
Co70 O83 2.244 . S
O71 Co70 2.216 . S
O71 C78 1.247 . S
O72 Co70 2.091 . S
O72 C78 1.261 . S
C73 O82 1.247 . S
C73 O83 1.272 . S
O74 Co70 2.004 . S
O74 C79 1.259 . S
Co75 O76 2.061 . S
Co75 O81 2.052 . S
Co75 O83 2.135 . S
O76 Co75 2.061 . S
O76 C79 1.235 . S
C77 O80 1.238 . S
C77 O81 1.241 . S
C78 O71 1.247 . S
C78 O72 1.261 . S
C79 O74 1.259 . S
C79 O76 1.235 . S
O80 Co70 2.021 . S
O80 C77 1.238 . S
O81 Co75 2.052 . S
O81 C77 1.241 . S
O82 Co70 2.137 . S
O82 C73 1.247 . S
O83 Co70 2.244 . S
O83 C73 1.272 . S
O83 Co75 2.135 . S
Co84 O85 2.216 . S
Co84 O86 2.091 . S
Co84 O88 2.004 . S
Co84 O94 2.021 . S
Co84 O96 2.137 . S
Co84 O97 2.244 . S
O85 Co84 2.216 . S
O85 C92 1.247 . S
O86 Co84 2.091 . S
O86 C92 1.261 . S
C87 O96 1.247 . S
C87 O97 1.272 . S
O88 Co84 2.004 . S
O88 C93 1.259 . S
Co89 O90 2.061 . S
Co89 O95 2.052 . S
Co89 O97 2.135 . S
O90 Co89 2.061 . S
O90 C93 1.235 . S
C91 O94 1.238 . S
C91 O95 1.241 . S
C92 O85 1.247 . S
C92 O86 1.261 . S
C93 O88 1.259 . S
C93 O90 1.235 . S
O94 Co84 2.021 . S
O94 C91 1.238 . S
O95 Co89 2.052 . S
O95 C91 1.241 . S
O96 Co84 2.137 . S
O96 C87 1.247 . S
O97 Co84 2.244 . S
O97 C87 1.272 . S
O97 Co89 2.135 . S
Co98 O99 2.216 . S
Co98 O100 2.091 . S
Co98 O102 2.004 . S
Co98 O108 2.021 . S
Co98 O110 2.137 . S
Co98 O111 2.244 . S
O99 Co98 2.216 . S
O99 C106 1.247 . S
O100 Co98 2.091 . S
O100 C106 1.261 . S
C101 O110 1.247 . S
C101 O111 1.272 . S
O102 Co98 2.004 . S
O102 C107 1.259 . S
Co103 O104 2.061 . S
Co103 O109 2.052 . S
Co103 O111 2.135 . S
O104 Co103 2.061 . S
O104 C107 1.235 . S
C105 O108 1.238 . S
C105 O109 1.241 . S
C106 O99 1.247 . S
C106 O100 1.261 . S
C107 O102 1.259 . S
C107 O104 1.235 . S
O108 Co98 2.021 . S
O108 C105 1.238 . S
O109 Co103 2.052 . S
O109 C105 1.241 . S
O110 Co98 2.137 . S
O110 C101 1.247 . S
O111 Co98 2.244 . S
O111 C101 1.272 . S
O111 Co103 2.135 . S
Co112 O113 2.216 . S
Co112 O114 2.091 . S
Co112 O116 2.004 . S
Co112 O122 2.021 . S
Co112 O124 2.137 . S
Co112 O125 2.244 . S
O113 Co112 2.216 . S
O113 C120 1.247 . S
O114 Co112 2.091 . S
O114 C120 1.261 . S
C115 O124 1.247 . S
C115 O125 1.272 . S
O116 Co112 2.004 . S
O116 C121 1.259 . S
Co117 O118 2.061 . S
Co117 O123 2.052 . S
Co117 O125 2.135 . S
O118 Co117 2.061 . S
O118 C121 1.235 . S
C119 O122 1.238 . S
C119 O123 1.241 . S
C120 O113 1.247 . S
C120 O114 1.261 . S
C121 O116 1.259 . S
C121 O118 1.235 . S
O122 Co112 2.021 . S
O122 C119 1.238 . S
O123 Co117 2.052 . S
O123 C119 1.241 . S
O124 Co112 2.137 . S
O124 C115 1.247 . S
O125 Co112 2.244 . S
O125 C115 1.272 . S
O125 Co117 2.135 . S
Co126 O127 2.216 . S
Co126 O128 2.091 . S
Co126 O130 2.004 . S
Co126 O136 2.021 . S
Co126 O138 2.137 . S
Co126 O139 2.244 . S
O127 Co126 2.216 . S
O127 C134 1.247 . S
O128 Co126 2.091 . S
O128 C134 1.261 . S
C129 O138 1.247 . S
C129 O139 1.272 . S
O130 Co126 2.004 . S
O130 C135 1.259 . S
Co131 O132 2.061 . S
Co131 O137 2.052 . S
Co131 O139 2.135 . S
O132 Co131 2.061 . S
O132 C135 1.235 . S
C133 O136 1.238 . S
C133 O137 1.241 . S
C134 O127 1.247 . S
C134 O128 1.261 . S
C135 O130 1.259 . S
C135 O132 1.235 . S
O136 Co126 2.021 . S
O136 C133 1.238 . S
O137 Co131 2.052 . S
O137 C133 1.241 . S
O138 Co126 2.137 . S
O138 C129 1.247 . S
O139 Co126 2.244 . S
O139 C129 1.272 . S
O139 Co131 2.135 . S
Co140 O141 2.216 . S
Co140 O142 2.091 . S
Co140 O144 2.004 . S
Co140 O150 2.021 . S
Co140 O152 2.137 . S
Co140 O153 2.244 . S
O141 Co140 2.216 . S
O141 C148 1.247 . S
O142 Co140 2.091 . S
O142 C148 1.261 . S
C143 O152 1.247 . S
C143 O153 1.272 . S
O144 Co140 2.004 . S
O144 C149 1.259 . S
Co145 O146 2.061 . S
Co145 O151 2.052 . S
Co145 O153 2.135 . S
O146 Co145 2.061 . S
O146 C149 1.235 . S
C147 O150 1.238 . S
C147 O151 1.241 . S
C148 O141 1.247 . S
C148 O142 1.261 . S
C149 O144 1.259 . S
C149 O146 1.235 . S
O150 Co140 2.021 . S
O150 C147 1.238 . S
O151 Co145 2.052 . S
O151 C147 1.241 . S
O152 Co140 2.137 . S
O152 C143 1.247 . S
O153 Co140 2.244 . S
O153 C143 1.272 . S
O153 Co145 2.135 . S
Co154 O155 2.216 . S
Co154 O156 2.091 . S
Co154 O158 2.004 . S
Co154 O164 2.021 . S
Co154 O166 2.137 . S
Co154 O167 2.244 . S
O155 Co154 2.216 . S
O155 C162 1.247 . S
O156 Co154 2.091 . S
O156 C162 1.261 . S
C157 O166 1.247 . S
C157 O167 1.272 . S
O158 Co154 2.004 . S
O158 C163 1.259 . S
Co159 O160 2.061 . S
Co159 O165 2.052 . S
Co159 O167 2.135 . S
O160 Co159 2.061 . S
O160 C163 1.235 . S
C161 O164 1.238 . S
C161 O165 1.241 . S
C162 O155 1.247 . S
C162 O156 1.261 . S
C163 O158 1.259 . S
C163 O160 1.235 . S
O164 Co154 2.021 . S
O164 C161 1.238 . S
O165 Co159 2.052 . S
O165 C161 1.241 . S
O166 Co154 2.137 . S
O166 C157 1.247 . S
O167 Co154 2.244 . S
O167 C157 1.272 . S
O167 Co159 2.135 . S
Co168 O169 2.216 . S
Co168 O170 2.091 . S
Co168 O172 2.004 . S
Co168 O178 2.021 . S
Co168 O180 2.137 . S
Co168 O181 2.244 . S
O169 Co168 2.216 . S
O169 C176 1.247 . S
O170 Co168 2.091 . S
O170 C176 1.261 . S
C171 O180 1.247 . S
C171 O181 1.272 . S
O172 Co168 2.004 . S
O172 C177 1.259 . S
Co173 O174 2.061 . S
Co173 O179 2.052 . S
Co173 O181 2.135 . S
O174 Co173 2.061 . S
O174 C177 1.235 . S
C175 O178 1.238 . S
C175 O179 1.241 . S
C176 O169 1.247 . S
C176 O170 1.261 . S
C177 O172 1.259 . S
C177 O174 1.235 . S
O178 Co168 2.021 . S
O178 C175 1.238 . S
O179 Co173 2.052 . S
O179 C175 1.241 . S
O180 Co168 2.137 . S
O180 C171 1.247 . S
O181 Co168 2.244 . S
O181 C171 1.272 . S
O181 Co173 2.135 . S
Co182 O183 2.216 . S
Co182 O184 2.091 . S
Co182 O186 2.004 . S
Co182 O192 2.021 . S
Co182 O194 2.137 . S
Co182 O195 2.244 . S
O183 Co182 2.216 . S
O183 C190 1.247 . S
O184 Co182 2.091 . S
O184 C190 1.261 . S
C185 O194 1.247 . S
C185 O195 1.272 . S
O186 Co182 2.004 . S
O186 C191 1.259 . S
Co187 O188 2.061 . S
Co187 O193 2.052 . S
Co187 O195 2.135 . S
O188 Co187 2.061 . S
O188 C191 1.235 . S
C189 O192 1.238 . S
C189 O193 1.241 . S
C190 O183 1.247 . S
C190 O184 1.261 . S
C191 O186 1.259 . S
C191 O188 1.235 . S
O192 Co182 2.021 . S
O192 C189 1.238 . S
O193 Co187 2.052 . S
O193 C189 1.241 . S
O194 Co182 2.137 . S
O194 C185 1.247 . S
O195 Co182 2.244 . S
O195 C185 1.272 . S
O195 Co187 2.135 . S
Co196 O197 2.216 . S
Co196 O198 2.091 . S
Co196 O200 2.004 . S
Co196 O206 2.021 . S
Co196 O208 2.137 . S
Co196 O209 2.244 . S
O197 Co196 2.216 . S
O197 C204 1.247 . S
O198 Co196 2.091 . S
O198 C204 1.261 . S
C199 O208 1.247 . S
C199 O209 1.272 . S
O200 Co196 2.004 . S
O200 C205 1.259 . S
Co201 O202 2.061 . S
Co201 O207 2.052 . S
Co201 O209 2.135 . S
O202 Co201 2.061 . S
O202 C205 1.235 . S
C203 O206 1.238 . S
C203 O207 1.241 . S
C204 O197 1.247 . S
C204 O198 1.261 . S
C205 O200 1.259 . S
C205 O202 1.235 . S
O206 Co196 2.021 . S
O206 C203 1.238 . S
O207 Co201 2.052 . S
O207 C203 1.241 . S
O208 Co196 2.137 . S
O208 C199 1.247 . S
O209 Co196 2.244 . S
O209 C199 1.272 . S
O209 Co201 2.135 . S
Co210 O211 2.216 . S
Co210 O212 2.091 . S
Co210 O214 2.004 . S
Co210 O220 2.021 . S
Co210 O222 2.137 . S
Co210 O223 2.244 . S
O211 Co210 2.216 . S
O211 C218 1.247 . S
O212 Co210 2.091 . S
O212 C218 1.261 . S
C213 O222 1.247 . S
C213 O223 1.272 . S
O214 Co210 2.004 . S
O214 C219 1.259 . S
Co215 O216 2.061 . S
Co215 O221 2.052 . S
Co215 O223 2.135 . S
O216 Co215 2.061 . S
O216 C219 1.235 . S
C217 O220 1.238 . S
C217 O221 1.241 . S
C218 O211 1.247 . S
C218 O212 1.261 . S
C219 O214 1.259 . S
C219 O216 1.235 . S
O220 Co210 2.021 . S
O220 C217 1.238 . S
O221 Co215 2.052 . S
O221 C217 1.241 . S
O222 Co210 2.137 . S
O222 C213 1.247 . S
O223 Co210 2.244 . S
O223 C213 1.272 . S
O223 Co215 2.135 . S
Co224 O225 2.216 . S
Co224 O226 2.091 . S
Co224 O228 2.004 . S
Co224 O234 2.021 . S
Co224 O236 2.137 . S
Co224 O237 2.244 . S
O225 Co224 2.216 . S
O225 C232 1.247 . S
O226 Co224 2.091 . S
O226 C232 1.261 . S
C227 O236 1.247 . S
C227 O237 1.272 . S
O228 Co224 2.004 . S
O228 C233 1.259 . S
Co229 O230 2.061 . S
Co229 O235 2.052 . S
Co229 O237 2.135 . S
O230 Co229 2.061 . S
O230 C233 1.235 . S
C231 O234 1.238 . S
C231 O235 1.241 . S
C232 O225 1.247 . S
C232 O226 1.261 . S
C233 O228 1.259 . S
C233 O230 1.235 . S
O234 Co224 2.021 . S
O234 C231 1.238 . S
O235 Co229 2.052 . S
O235 C231 1.241 . S
O236 Co224 2.137 . S
O236 C227 1.247 . S
O237 Co224 2.244 . S
O237 C227 1.272 . S
O237 Co229 2.135 . S
Co238 O239 2.216 . S
Co238 O240 2.091 . S
Co238 O242 2.004 . S
Co238 O248 2.021 . S
Co238 O250 2.137 . S
Co238 O251 2.244 . S
O239 Co238 2.216 . S
O239 C246 1.247 . S
O240 Co238 2.091 . S
O240 C246 1.261 . S
C241 O250 1.247 . S
C241 O251 1.272 . S
O242 Co238 2.004 . S
O242 C247 1.259 . S
Co243 O244 2.061 . S
Co243 O249 2.052 . S
Co243 O251 2.135 . S
O244 Co243 2.061 . S
O244 C247 1.235 . S
C245 O248 1.238 . S
C245 O249 1.241 . S
C246 O239 1.247 . S
C246 O240 1.261 . S
C247 O242 1.259 . S
C247 O244 1.235 . S
O248 Co238 2.021 . S
O248 C245 1.238 . S
O249 Co243 2.052 . S
O249 C245 1.241 . S
O250 Co238 2.137 . S
O250 C241 1.247 . S
O251 Co238 2.244 . S
O251 C241 1.272 . S
O251 Co243 2.135 . S
Co252 O253 2.216 . S
Co252 O254 2.091 . S
Co252 O256 2.004 . S
Co252 O262 2.021 . S
Co252 O264 2.137 . S
Co252 O265 2.244 . S
O253 Co252 2.216 . S
O253 C260 1.247 . S
O254 Co252 2.091 . S
O254 C260 1.261 . S
C255 O264 1.247 . S
C255 O265 1.272 . S
O256 Co252 2.004 . S
O256 C261 1.259 . S
Co257 O258 2.061 . S
Co257 O263 2.052 . S
Co257 O265 2.135 . S
O258 Co257 2.061 . S
O258 C261 1.235 . S
C259 O262 1.238 . S
C259 O263 1.241 . S
C260 O253 1.247 . S
C260 O254 1.261 . S
C261 O256 1.259 . S
C261 O258 1.235 . S
O262 Co252 2.021 . S
O262 C259 1.238 . S
O263 Co257 2.052 . S
O263 C259 1.241 . S
O264 Co252 2.137 . S
O264 C255 1.247 . S
O265 Co252 2.244 . S
O265 C255 1.272 . S
O265 Co257 2.135 . S
Co266 O267 2.216 . S
Co266 O268 2.091 . S
Co266 O270 2.004 . S
Co266 O276 2.021 . S
Co266 O278 2.137 . S
Co266 O279 2.244 . S
O267 Co266 2.216 . S
O267 C274 1.247 . S
O268 Co266 2.091 . S
O268 C274 1.261 . S
C269 O278 1.247 . S
C269 O279 1.272 . S
O270 Co266 2.004 . S
O270 C275 1.259 . S
Co271 O272 2.061 . S
Co271 O277 2.052 . S
Co271 O279 2.135 . S
O272 Co271 2.061 . S
O272 C275 1.235 . S
C273 O276 1.238 . S
C273 O277 1.241 . S
C274 O267 1.247 . S
C274 O268 1.261 . S
C275 O270 1.259 . S
C275 O272 1.235 . S
O276 Co266 2.021 . S
O276 C273 1.238 . S
O277 Co271 2.052 . S
O277 C273 1.241 . S
O278 Co266 2.137 . S
O278 C269 1.247 . S
O279 Co266 2.244 . S
O279 C269 1.272 . S
O279 Co271 2.135 . S
Co280 O281 2.216 . S
Co280 O282 2.091 . S
Co280 O284 2.004 . S
Co280 O290 2.021 . S
Co280 O292 2.137 . S
Co280 O293 2.244 . S
O281 Co280 2.216 . S
O281 C288 1.247 . S
O282 Co280 2.091 . S
O282 C288 1.261 . S
C283 O292 1.247 . S
C283 O293 1.272 . S
O284 Co280 2.004 . S
O284 C289 1.259 . S
Co285 O286 2.061 . S
Co285 O291 2.052 . S
Co285 O293 2.135 . S
O286 Co285 2.061 . S
O286 C289 1.235 . S
C287 O290 1.238 . S
C287 O291 1.241 . S
C288 O281 1.247 . S
C288 O282 1.261 . S
C289 O284 1.259 . S
C289 O286 1.235 . S
O290 Co280 2.021 . S
O290 C287 1.238 . S
O291 Co285 2.052 . S
O291 C287 1.241 . S
O292 Co280 2.137 . S
O292 C283 1.247 . S
O293 Co280 2.244 . S
O293 C283 1.272 . S
O293 Co285 2.135 . S
Co294 O295 2.216 . S
Co294 O296 2.091 . S
Co294 O298 2.004 . S
Co294 O304 2.021 . S
Co294 O306 2.137 . S
Co294 O307 2.244 . S
O295 Co294 2.216 . S
O295 C302 1.247 . S
O296 Co294 2.091 . S
O296 C302 1.261 . S
C297 O306 1.247 . S
C297 O307 1.272 . S
O298 Co294 2.004 . S
O298 C303 1.259 . S
Co299 O300 2.061 . S
Co299 O305 2.052 . S
Co299 O307 2.135 . S
O300 Co299 2.061 . S
O300 C303 1.235 . S
C301 O304 1.238 . S
C301 O305 1.241 . S
C302 O295 1.247 . S
C302 O296 1.261 . S
C303 O298 1.259 . S
C303 O300 1.235 . S
O304 Co294 2.021 . S
O304 C301 1.238 . S
O305 Co299 2.052 . S
O305 C301 1.241 . S
O306 Co294 2.137 . S
O306 C297 1.247 . S
O307 Co294 2.244 . S
O307 C297 1.272 . S
O307 Co299 2.135 . S
Co308 O309 2.216 . S
Co308 O310 2.091 . S
Co308 O312 2.004 . S
Co308 O318 2.021 . S
Co308 O320 2.137 . S
Co308 O321 2.244 . S
O309 Co308 2.216 . S
O309 C316 1.247 . S
O310 Co308 2.091 . S
O310 C316 1.261 . S
C311 O320 1.247 . S
C311 O321 1.272 . S
O312 Co308 2.004 . S
O312 C317 1.259 . S
Co313 O314 2.061 . S
Co313 O319 2.052 . S
Co313 O321 2.135 . S
O314 Co313 2.061 . S
O314 C317 1.235 . S
C315 O318 1.238 . S
C315 O319 1.241 . S
C316 O309 1.247 . S
C316 O310 1.261 . S
C317 O312 1.259 . S
C317 O314 1.235 . S
O318 Co308 2.021 . S
O318 C315 1.238 . S
O319 Co313 2.052 . S
O319 C315 1.241 . S
O320 Co308 2.137 . S
O320 C311 1.247 . S
O321 Co308 2.244 . S
O321 C311 1.272 . S
O321 Co313 2.135 . S
Co322 O323 2.216 . S
Co322 O324 2.091 . S
Co322 O326 2.004 . S
Co322 O332 2.021 . S
Co322 O334 2.137 . S
Co322 O335 2.244 . S
O323 Co322 2.216 . S
O323 C330 1.247 . S
O324 Co322 2.091 . S
O324 C330 1.261 . S
C325 O334 1.247 . S
C325 O335 1.272 . S
O326 Co322 2.004 . S
O326 C331 1.259 . S
Co327 O328 2.061 . S
Co327 O333 2.052 . S
Co327 O335 2.135 . S
O328 Co327 2.061 . S
O328 C331 1.235 . S
C329 O332 1.238 . S
C329 O333 1.241 . S
C330 O323 1.247 . S
C330 O324 1.261 . S
C331 O326 1.259 . S
C331 O328 1.235 . S
O332 Co322 2.021 . S
O332 C329 1.238 . S
O333 Co327 2.052 . S
O333 C329 1.241 . S
O334 Co322 2.137 . S
O334 C325 1.247 . S
O335 Co322 2.244 . S
O335 C325 1.272 . S
O335 Co327 2.135 . S
Co336 O337 2.216 . S
Co336 O338 2.091 . S
Co336 O340 2.004 . S
Co336 O346 2.021 . S
Co336 O348 2.137 . S
Co336 O349 2.244 . S
O337 Co336 2.216 . S
O337 C344 1.247 . S
O338 Co336 2.091 . S
O338 C344 1.261 . S
C339 O348 1.247 . S
C339 O349 1.272 . S
O340 Co336 2.004 . S
O340 C345 1.259 . S
Co341 O342 2.061 . S
Co341 O347 2.052 . S
Co341 O349 2.135 . S
O342 Co341 2.061 . S
O342 C345 1.235 . S
C343 O346 1.238 . S
C343 O347 1.241 . S
C344 O337 1.247 . S
C344 O338 1.261 . S
C345 O340 1.259 . S
C345 O342 1.235 . S
O346 Co336 2.021 . S
O346 C343 1.238 . S
O347 Co341 2.052 . S
O347 C343 1.241 . S
O348 Co336 2.137 . S
O348 C339 1.247 . S
O349 Co336 2.244 . S
O349 C339 1.272 . S
O349 Co341 2.135 . S
Co350 O351 2.216 . S
Co350 O352 2.091 . S
Co350 O354 2.004 . S
Co350 O360 2.021 . S
Co350 O362 2.137 . S
Co350 O363 2.244 . S
O351 Co350 2.216 . S
O351 C358 1.247 . S
O352 Co350 2.091 . S
O352 C358 1.261 . S
C353 O362 1.247 . S
C353 O363 1.272 . S
O354 Co350 2.004 . S
O354 C359 1.259 . S
Co355 O356 2.061 . S
Co355 O361 2.052 . S
Co355 O363 2.135 . S
O356 Co355 2.061 . S
O356 C359 1.235 . S
C357 O360 1.238 . S
C357 O361 1.241 . S
C358 O351 1.247 . S
C358 O352 1.261 . S
C359 O354 1.259 . S
C359 O356 1.235 . S
O360 Co350 2.021 . S
O360 C357 1.238 . S
O361 Co355 2.052 . S
O361 C357 1.241 . S
O362 Co350 2.137 . S
O362 C353 1.247 . S
O363 Co350 2.244 . S
O363 C353 1.272 . S
O363 Co355 2.135 . S
Co364 O365 2.216 . S
Co364 O366 2.091 . S
Co364 O368 2.004 . S
Co364 O374 2.021 . S
Co364 O376 2.137 . S
Co364 O377 2.244 . S
O365 Co364 2.216 . S
O365 C372 1.247 . S
O366 Co364 2.091 . S
O366 C372 1.261 . S
C367 O376 1.247 . S
C367 O377 1.272 . S
O368 Co364 2.004 . S
O368 C373 1.259 . S
Co369 O370 2.061 . S
Co369 O375 2.052 . S
Co369 O377 2.135 . S
O370 Co369 2.061 . S
O370 C373 1.235 . S
C371 O374 1.238 . S
C371 O375 1.241 . S
C372 O365 1.247 . S
C372 O366 1.261 . S
C373 O368 1.259 . S
C373 O370 1.235 . S
O374 Co364 2.021 . S
O374 C371 1.238 . S
O375 Co369 2.052 . S
O375 C371 1.241 . S
O376 Co364 2.137 . S
O376 C367 1.247 . S
O377 Co364 2.244 . S
O377 C367 1.272 . S
O377 Co369 2.135 . S
Co378 O379 2.216 . S
Co378 O380 2.091 . S
Co378 O382 2.004 . S
Co378 O388 2.021 . S
Co378 O390 2.137 . S
Co378 O391 2.244 . S
O379 Co378 2.216 . S
O379 C386 1.247 . S
O380 Co378 2.091 . S
O380 C386 1.261 . S
C381 O390 1.247 . S
C381 O391 1.272 . S
O382 Co378 2.004 . S
O382 C387 1.259 . S
Co383 O384 2.061 . S
Co383 O389 2.052 . S
Co383 O391 2.135 . S
O384 Co383 2.061 . S
O384 C387 1.235 . S
C385 O388 1.238 . S
C385 O389 1.241 . S
C386 O379 1.247 . S
C386 O380 1.261 . S
C387 O382 1.259 . S
C387 O384 1.235 . S
O388 Co378 2.021 . S
O388 C385 1.238 . S
O389 Co383 2.052 . S
O389 C385 1.241 . S
O390 Co378 2.137 . S
O390 C381 1.247 . S
O391 Co378 2.244 . S
O391 C381 1.272 . S
O391 Co383 2.135 . S
Co392 O393 2.216 . S
Co392 O394 2.091 . S
Co392 O396 2.004 . S
Co392 O402 2.021 . S
Co392 O404 2.137 . S
Co392 O405 2.244 . S
O393 Co392 2.216 . S
O393 C400 1.247 . S
O394 Co392 2.091 . S
O394 C400 1.261 . S
C395 O404 1.247 . S
C395 O405 1.272 . S
O396 Co392 2.004 . S
O396 C401 1.259 . S
Co397 O398 2.061 . S
Co397 O403 2.052 . S
Co397 O405 2.135 . S
O398 Co397 2.061 . S
O398 C401 1.235 . S
C399 O402 1.238 . S
C399 O403 1.241 . S
C400 O393 1.247 . S
C400 O394 1.261 . S
C401 O396 1.259 . S
C401 O398 1.235 . S
O402 Co392 2.021 . S
O402 C399 1.238 . S
O403 Co397 2.052 . S
O403 C399 1.241 . S
O404 Co392 2.137 . S
O404 C395 1.247 . S
O405 Co392 2.244 . S
O405 C395 1.272 . S
O405 Co397 2.135 . S
Co406 O407 2.216 . S
Co406 O408 2.091 . S
Co406 O410 2.004 . S
Co406 O416 2.021 . S
Co406 O418 2.137 . S
Co406 O419 2.244 . S
O407 Co406 2.216 . S
O407 C414 1.247 . S
O408 Co406 2.091 . S
O408 C414 1.261 . S
C409 O418 1.247 . S
C409 O419 1.272 . S
O410 Co406 2.004 . S
O410 C415 1.259 . S
Co411 O412 2.061 . S
Co411 O417 2.052 . S
Co411 O419 2.135 . S
O412 Co411 2.061 . S
O412 C415 1.235 . S
C413 O416 1.238 . S
C413 O417 1.241 . S
C414 O407 1.247 . S
C414 O408 1.261 . S
C415 O410 1.259 . S
C415 O412 1.235 . S
O416 Co406 2.021 . S
O416 C413 1.238 . S
O417 Co411 2.052 . S
O417 C413 1.241 . S
O418 Co406 2.137 . S
O418 C409 1.247 . S
O419 Co406 2.244 . S
O419 C409 1.272 . S
O419 Co411 2.135 . S
Co420 O421 2.216 . S
Co420 O422 2.091 . S
Co420 O424 2.004 . S
Co420 O430 2.021 . S
Co420 O432 2.137 . S
Co420 O433 2.244 . S
O421 Co420 2.216 . S
O421 C428 1.247 . S
O422 Co420 2.091 . S
O422 C428 1.261 . S
C423 O432 1.247 . S
C423 O433 1.272 . S
O424 Co420 2.004 . S
O424 C429 1.259 . S
Co425 O426 2.061 . S
Co425 O431 2.052 . S
Co425 O433 2.135 . S
O426 Co425 2.061 . S
O426 C429 1.235 . S
C427 O430 1.238 . S
C427 O431 1.241 . S
C428 O421 1.247 . S
C428 O422 1.261 . S
C429 O424 1.259 . S
C429 O426 1.235 . S
O430 Co420 2.021 . S
O430 C427 1.238 . S
O431 Co425 2.052 . S
O431 C427 1.241 . S
O432 Co420 2.137 . S
O432 C423 1.247 . S
O433 Co420 2.244 . S
O433 C423 1.272 . S
O433 Co425 2.135 . S
Co434 O435 2.216 . S
Co434 O436 2.091 . S
Co434 O438 2.004 . S
Co434 O444 2.021 . S
Co434 O446 2.137 . S
Co434 O447 2.244 . S
O435 Co434 2.216 . S
O435 C442 1.247 . S
O436 Co434 2.091 . S
O436 C442 1.261 . S
C437 O446 1.247 . S
C437 O447 1.272 . S
O438 Co434 2.004 . S
O438 C443 1.259 . S
Co439 O440 2.061 . S
Co439 O445 2.052 . S
Co439 O447 2.135 . S
O440 Co439 2.061 . S
O440 C443 1.235 . S
C441 O444 1.238 . S
C441 O445 1.241 . S
C442 O435 1.247 . S
C442 O436 1.261 . S
C443 O438 1.259 . S
C443 O440 1.235 . S
O444 Co434 2.021 . S
O444 C441 1.238 . S
O445 Co439 2.052 . S
O445 C441 1.241 . S
O446 Co434 2.137 . S
O446 C437 1.247 . S
O447 Co434 2.244 . S
O447 C437 1.272 . S
O447 Co439 2.135 . S
Co448 O449 2.216 . S
Co448 O450 2.091 . S
Co448 O452 2.004 . S
Co448 O458 2.021 . S
Co448 O460 2.137 . S
Co448 O461 2.244 . S
O449 Co448 2.216 . S
O449 C456 1.247 . S
O450 Co448 2.091 . S
O450 C456 1.261 . S
C451 O460 1.247 . S
C451 O461 1.272 . S
O452 Co448 2.004 . S
O452 C457 1.259 . S
Co453 O454 2.061 . S
Co453 O459 2.052 . S
Co453 O461 2.135 . S
O454 Co453 2.061 . S
O454 C457 1.235 . S
C455 O458 1.238 . S
C455 O459 1.241 . S
C456 O449 1.247 . S
C456 O450 1.261 . S
C457 O452 1.259 . S
C457 O454 1.235 . S
O458 Co448 2.021 . S
O458 C455 1.238 . S
O459 Co453 2.052 . S
O459 C455 1.241 . S
O460 Co448 2.137 . S
O460 C451 1.247 . S
O461 Co448 2.244 . S
O461 C451 1.272 . S
O461 Co453 2.135 . S
Co462 O463 2.216 . S
Co462 O464 2.091 . S
Co462 O466 2.004 . S
Co462 O472 2.021 . S
Co462 O474 2.137 . S
Co462 O475 2.244 . S
O463 Co462 2.216 . S
O463 C470 1.247 . S
O464 Co462 2.091 . S
O464 C470 1.261 . S
C465 O474 1.247 . S
C465 O475 1.272 . S
O466 Co462 2.004 . S
O466 C471 1.259 . S
Co467 O468 2.061 . S
Co467 O473 2.052 . S
Co467 O475 2.135 . S
O468 Co467 2.061 . S
O468 C471 1.235 . S
C469 O472 1.238 . S
C469 O473 1.241 . S
C470 O463 1.247 . S
C470 O464 1.261 . S
C471 O466 1.259 . S
C471 O468 1.235 . S
O472 Co462 2.021 . S
O472 C469 1.238 . S
O473 Co467 2.052 . S
O473 C469 1.241 . S
O474 Co462 2.137 . S
O474 C465 1.247 . S
O475 Co462 2.244 . S
O475 C465 1.272 . S
O475 Co467 2.135 . S
Co476 O477 2.216 . S
Co476 O478 2.091 . S
Co476 O480 2.004 . S
Co476 O486 2.021 . S
Co476 O488 2.137 . S
Co476 O489 2.244 . S
O477 Co476 2.216 . S
O477 C484 1.247 . S
O478 Co476 2.091 . S
O478 C484 1.261 . S
C479 O488 1.247 . S
C479 O489 1.272 . S
O480 Co476 2.004 . S
O480 C485 1.259 . S
Co481 O482 2.061 . S
Co481 O487 2.052 . S
Co481 O489 2.135 . S
O482 Co481 2.061 . S
O482 C485 1.235 . S
C483 O486 1.238 . S
C483 O487 1.241 . S
C484 O477 1.247 . S
C484 O478 1.261 . S
C485 O480 1.259 . S
C485 O482 1.235 . S
O486 Co476 2.021 . S
O486 C483 1.238 . S
O487 Co481 2.052 . S
O487 C483 1.241 . S
O488 Co476 2.137 . S
O488 C479 1.247 . S
O489 Co476 2.244 . S
O489 C479 1.272 . S
O489 Co481 2.135 . S
Co490 O491 2.216 . S
Co490 O492 2.091 . S
Co490 O494 2.004 . S
Co490 O500 2.021 . S
Co490 O502 2.137 . S
Co490 O503 2.244 . S
O491 Co490 2.216 . S
O491 C498 1.247 . S
O492 Co490 2.091 . S
O492 C498 1.261 . S
C493 O502 1.247 . S
C493 O503 1.272 . S
O494 Co490 2.004 . S
O494 C499 1.259 . S
Co495 O496 2.061 . S
Co495 O501 2.052 . S
Co495 O503 2.135 . S
O496 Co495 2.061 . S
O496 C499 1.235 . S
C497 O500 1.238 . S
C497 O501 1.241 . S
C498 O491 1.247 . S
C498 O492 1.261 . S
C499 O494 1.259 . S
C499 O496 1.235 . S
O500 Co490 2.021 . S
O500 C497 1.238 . S
O501 Co495 2.052 . S
O501 C497 1.241 . S
O502 Co490 2.137 . S
O502 C493 1.247 . S
O503 Co490 2.244 . S
O503 C493 1.272 . S
O503 Co495 2.135 . S
Co504 O505 2.216 . S
Co504 O506 2.091 . S
Co504 O508 2.004 . S
Co504 O514 2.021 . S
Co504 O516 2.137 . S
Co504 O517 2.244 . S
O505 Co504 2.216 . S
O505 C512 1.247 . S
O506 Co504 2.091 . S
O506 C512 1.261 . S
C507 O516 1.247 . S
C507 O517 1.272 . S
O508 Co504 2.004 . S
O508 C513 1.259 . S
Co509 O510 2.061 . S
Co509 O515 2.052 . S
Co509 O517 2.135 . S
O510 Co509 2.061 . S
O510 C513 1.235 . S
C511 O514 1.238 . S
C511 O515 1.241 . S
C512 O505 1.247 . S
C512 O506 1.261 . S
C513 O508 1.259 . S
C513 O510 1.235 . S
O514 Co504 2.021 . S
O514 C511 1.238 . S
O515 Co509 2.052 . S
O515 C511 1.241 . S
O516 Co504 2.137 . S
O516 C507 1.247 . S
O517 Co504 2.244 . S
O517 C507 1.272 . S
O517 Co509 2.135 . S
Co518 O519 2.216 . S
Co518 O520 2.091 . S
Co518 O522 2.004 . S
Co518 O528 2.021 . S
Co518 O530 2.137 . S
Co518 O531 2.244 . S
O519 Co518 2.216 . S
O519 C526 1.247 . S
O520 Co518 2.091 . S
O520 C526 1.261 . S
C521 O530 1.247 . S
C521 O531 1.272 . S
O522 Co518 2.004 . S
O522 C527 1.259 . S
Co523 O524 2.061 . S
Co523 O529 2.052 . S
Co523 O531 2.135 . S
O524 Co523 2.061 . S
O524 C527 1.235 . S
C525 O528 1.238 . S
C525 O529 1.241 . S
C526 O519 1.247 . S
C526 O520 1.261 . S
C527 O522 1.259 . S
C527 O524 1.235 . S
O528 Co518 2.021 . S
O528 C525 1.238 . S
O529 Co523 2.052 . S
O529 C525 1.241 . S
O530 Co518 2.137 . S
O530 C521 1.247 . S
O531 Co518 2.244 . S
O531 C521 1.272 . S
O531 Co523 2.135 . S
Co532 O533 2.216 . S
Co532 O534 2.091 . S
Co532 O536 2.004 . S
Co532 O542 2.021 . S
Co532 O544 2.137 . S
Co532 O545 2.244 . S
O533 Co532 2.216 . S
O533 C540 1.247 . S
O534 Co532 2.091 . S
O534 C540 1.261 . S
C535 O544 1.247 . S
C535 O545 1.272 . S
O536 Co532 2.004 . S
O536 C541 1.259 . S
Co537 O538 2.061 . S
Co537 O543 2.052 . S
Co537 O545 2.135 . S
O538 Co537 2.061 . S
O538 C541 1.235 . S
C539 O542 1.238 . S
C539 O543 1.241 . S
C540 O533 1.247 . S
C540 O534 1.261 . S
C541 O536 1.259 . S
C541 O538 1.235 . S
O542 Co532 2.021 . S
O542 C539 1.238 . S
O543 Co537 2.052 . S
O543 C539 1.241 . S
O544 Co532 2.137 . S
O544 C535 1.247 . S
O545 Co532 2.244 . S
O545 C535 1.272 . S
O545 Co537 2.135 . S
Co546 O547 2.216 . S
Co546 O548 2.091 . S
Co546 O550 2.004 . S
Co546 O556 2.021 . S
Co546 O558 2.137 . S
Co546 O559 2.244 . S
O547 Co546 2.216 . S
O547 C554 1.247 . S
O548 Co546 2.091 . S
O548 C554 1.261 . S
C549 O558 1.247 . S
C549 O559 1.272 . S
O550 Co546 2.004 . S
O550 C555 1.259 . S
Co551 O552 2.061 . S
Co551 O557 2.052 . S
Co551 O559 2.135 . S
O552 Co551 2.061 . S
O552 C555 1.235 . S
C553 O556 1.238 . S
C553 O557 1.241 . S
C554 O547 1.247 . S
C554 O548 1.261 . S
C555 O550 1.259 . S
C555 O552 1.235 . S
O556 Co546 2.021 . S
O556 C553 1.238 . S
O557 Co551 2.052 . S
O557 C553 1.241 . S
O558 Co546 2.137 . S
O558 C549 1.247 . S
O559 Co546 2.244 . S
O559 C549 1.272 . S
O559 Co551 2.135 . S
Co560 O561 2.216 . S
Co560 O562 2.091 . S
Co560 O564 2.004 . S
Co560 O570 2.021 . S
Co560 O572 2.137 . S
Co560 O573 2.244 . S
O561 Co560 2.216 . S
O561 C568 1.247 . S
O562 Co560 2.091 . S
O562 C568 1.261 . S
C563 O572 1.247 . S
C563 O573 1.272 . S
O564 Co560 2.004 . S
O564 C569 1.259 . S
Co565 O566 2.061 . S
Co565 O571 2.052 . S
Co565 O573 2.135 . S
O566 Co565 2.061 . S
O566 C569 1.235 . S
C567 O570 1.238 . S
C567 O571 1.241 . S
C568 O561 1.247 . S
C568 O562 1.261 . S
C569 O564 1.259 . S
C569 O566 1.235 . S
O570 Co560 2.021 . S
O570 C567 1.238 . S
O571 Co565 2.052 . S
O571 C567 1.241 . S
O572 Co560 2.137 . S
O572 C563 1.247 . S
O573 Co560 2.244 . S
O573 C563 1.272 . S
O573 Co565 2.135 . S
Co574 O575 2.216 . S
Co574 O576 2.091 . S
Co574 O578 2.004 . S
Co574 O584 2.021 . S
Co574 O586 2.137 . S
Co574 O587 2.244 . S
O575 Co574 2.216 . S
O575 C582 1.247 . S
O576 Co574 2.091 . S
O576 C582 1.261 . S
C577 O586 1.247 . S
C577 O587 1.272 . S
O578 Co574 2.004 . S
O578 C583 1.259 . S
Co579 O580 2.061 . S
Co579 O585 2.052 . S
Co579 O587 2.135 . S
O580 Co579 2.061 . S
O580 C583 1.235 . S
C581 O584 1.238 . S
C581 O585 1.241 . S
C582 O575 1.247 . S
C582 O576 1.261 . S
C583 O578 1.259 . S
C583 O580 1.235 . S
O584 Co574 2.021 . S
O584 C581 1.238 . S
O585 Co579 2.052 . S
O585 C581 1.241 . S
O586 Co574 2.137 . S
O586 C577 1.247 . S
O587 Co574 2.244 . S
O587 C577 1.272 . S
O587 Co579 2.135 . S
Co588 O589 2.216 . S
Co588 O590 2.091 . S
Co588 O592 2.004 . S
Co588 O598 2.021 . S
Co588 O600 2.137 . S
Co588 O601 2.244 . S
O589 Co588 2.216 . S
O589 C596 1.247 . S
O590 Co588 2.091 . S
O590 C596 1.261 . S
C591 O600 1.247 . S
C591 O601 1.272 . S
O592 Co588 2.004 . S
O592 C597 1.259 . S
Co593 O594 2.061 . S
Co593 O599 2.052 . S
Co593 O601 2.135 . S
O594 Co593 2.061 . S
O594 C597 1.235 . S
C595 O598 1.238 . S
C595 O599 1.241 . S
C596 O589 1.247 . S
C596 O590 1.261 . S
C597 O592 1.259 . S
C597 O594 1.235 . S
O598 Co588 2.021 . S
O598 C595 1.238 . S
O599 Co593 2.052 . S
O599 C595 1.241 . S
O600 Co588 2.137 . S
O600 C591 1.247 . S
O601 Co588 2.244 . S
O601 C591 1.272 . S
O601 Co593 2.135 . S
Co602 O603 2.216 . S
Co602 O604 2.091 . S
Co602 O606 2.004 . S
Co602 O612 2.021 . S
Co602 O614 2.137 . S
Co602 O615 2.244 . S
O603 Co602 2.216 . S
O603 C610 1.247 . S
O604 Co602 2.091 . S
O604 C610 1.261 . S
C605 O614 1.247 . S
C605 O615 1.272 . S
O606 Co602 2.004 . S
O606 C611 1.259 . S
Co607 O608 2.061 . S
Co607 O613 2.052 . S
Co607 O615 2.135 . S
O608 Co607 2.061 . S
O608 C611 1.235 . S
C609 O612 1.238 . S
C609 O613 1.241 . S
C610 O603 1.247 . S
C610 O604 1.261 . S
C611 O606 1.259 . S
C611 O608 1.235 . S
O612 Co602 2.021 . S
O612 C609 1.238 . S
O613 Co607 2.052 . S
O613 C609 1.241 . S
O614 Co602 2.137 . S
O614 C605 1.247 . S
O615 Co602 2.244 . S
O615 C605 1.272 . S
O615 Co607 2.135 . S
Co616 O617 2.216 . S
Co616 O618 2.091 . S
Co616 O620 2.004 . S
Co616 O626 2.021 . S
Co616 O628 2.137 . S
Co616 O629 2.244 . S
O617 Co616 2.216 . S
O617 C624 1.247 . S
O618 Co616 2.091 . S
O618 C624 1.261 . S
C619 O628 1.247 . S
C619 O629 1.272 . S
O620 Co616 2.004 . S
O620 C625 1.259 . S
Co621 O622 2.061 . S
Co621 O627 2.052 . S
Co621 O629 2.135 . S
O622 Co621 2.061 . S
O622 C625 1.235 . S
C623 O626 1.238 . S
C623 O627 1.241 . S
C624 O617 1.247 . S
C624 O618 1.261 . S
C625 O620 1.259 . S
C625 O622 1.235 . S
O626 Co616 2.021 . S
O626 C623 1.238 . S
O627 Co621 2.052 . S
O627 C623 1.241 . S
O628 Co616 2.137 . S
O628 C619 1.247 . S
O629 Co616 2.244 . S
O629 C619 1.272 . S
O629 Co621 2.135 . S
Co630 O631 2.216 . S
Co630 O632 2.091 . S
Co630 O634 2.004 . S
Co630 O640 2.021 . S
Co630 O642 2.137 . S
Co630 O643 2.244 . S
O631 Co630 2.216 . S
O631 C638 1.247 . S
O632 Co630 2.091 . S
O632 C638 1.261 . S
C633 O642 1.247 . S
C633 O643 1.272 . S
O634 Co630 2.004 . S
O634 C639 1.259 . S
Co635 O636 2.061 . S
Co635 O641 2.052 . S
Co635 O643 2.135 . S
O636 Co635 2.061 . S
O636 C639 1.235 . S
C637 O640 1.238 . S
C637 O641 1.241 . S
C638 O631 1.247 . S
C638 O632 1.261 . S
C639 O634 1.259 . S
C639 O636 1.235 . S
O640 Co630 2.021 . S
O640 C637 1.238 . S
O641 Co635 2.052 . S
O641 C637 1.241 . S
O642 Co630 2.137 . S
O642 C633 1.247 . S
O643 Co630 2.244 . S
O643 C633 1.272 . S
O643 Co635 2.135 . S
Co644 O645 2.216 . S
Co644 O646 2.091 . S
Co644 O648 2.004 . S
Co644 O654 2.021 . S
Co644 O656 2.137 . S
Co644 O657 2.244 . S
O645 Co644 2.216 . S
O645 C652 1.247 . S
O646 Co644 2.091 . S
O646 C652 1.261 . S
C647 O656 1.247 . S
C647 O657 1.272 . S
O648 Co644 2.004 . S
O648 C653 1.259 . S
Co649 O650 2.061 . S
Co649 O655 2.052 . S
Co649 O657 2.135 . S
O650 Co649 2.061 . S
O650 C653 1.235 . S
C651 O654 1.238 . S
C651 O655 1.241 . S
C652 O645 1.247 . S
C652 O646 1.261 . S
C653 O648 1.259 . S
C653 O650 1.235 . S
O654 Co644 2.021 . S
O654 C651 1.238 . S
O655 Co649 2.052 . S
O655 C651 1.241 . S
O656 Co644 2.137 . S
O656 C647 1.247 . S
O657 Co644 2.244 . S
O657 C647 1.272 . S
O657 Co649 2.135 . S
Co658 O659 2.216 . S
Co658 O660 2.091 . S
Co658 O662 2.004 . S
Co658 O668 2.021 . S
Co658 O670 2.137 . S
Co658 O671 2.244 . S
O659 Co658 2.216 . S
O659 C666 1.247 . S
O660 Co658 2.091 . S
O660 C666 1.261 . S
C661 O670 1.247 . S
C661 O671 1.272 . S
O662 Co658 2.004 . S
O662 C667 1.259 . S
Co663 O664 2.061 . S
Co663 O669 2.052 . S
Co663 O671 2.135 . S
O664 Co663 2.061 . S
O664 C667 1.235 . S
C665 O668 1.238 . S
C665 O669 1.241 . S
C666 O659 1.247 . S
C666 O660 1.261 . S
C667 O662 1.259 . S
C667 O664 1.235 . S
O668 Co658 2.021 . S
O668 C665 1.238 . S
O669 Co663 2.052 . S
O669 C665 1.241 . S
O670 Co658 2.137 . S
O670 C661 1.247 . S
O671 Co658 2.244 . S
O671 C661 1.272 . S
O671 Co663 2.135 . S
H672 C690 0.951 . S
H673 C692 0.951 . S
H674 C694 0.950 . S
H675 C695 0.950 . S
H676 C697 0.950 . S
H677 C700 0.950 . S
H678 C701 0.950 . S
H679 C703 0.950 . S
H680 C704 0.950 . S
H681 C705 0.951 . S
H682 C707 0.951 . S
H683 C709 0.950 . S
H684 C710 0.950 . S
H685 C712 0.950 . S
H686 C715 0.950 . S
H687 C716 0.950 . S
H688 C718 0.950 . S
H689 C719 0.950 . S
C690 H672 0.951 . S
C690 C691 1.366 . S
C690 C692 1.388 . S
C691 C690 1.366 . S
C691 C695 1.385 . S
C692 H673 0.951 . S
C692 C690 1.388 . S
C692 C693 1.366 . S
C693 C692 1.366 . S
C693 C694 1.414 . S
C693 C696 1.499 . S
C694 H674 0.950 . S
C694 C693 1.414 . S
C694 C695 1.374 . S
C695 H675 0.950 . S
C695 C691 1.385 . S
C695 C694 1.374 . S
C696 C693 1.499 . S
C696 C697 1.373 . S
C696 C698 1.389 . S
C697 H676 0.950 . S
C697 C696 1.373 . S
C697 C713 1.377 . S
C698 C696 1.389 . S
C698 C699 1.524 . S
C698 C712 1.377 . S
C699 C698 1.524 . S
C699 C700 1.397 . S
C699 C704 1.363 . S
C700 H677 0.950 . S
C700 C699 1.397 . S
C700 C701 1.334 . S
C701 H678 0.950 . S
C701 C700 1.334 . S
C701 C702 1.287 . S
C702 C701 1.287 . S
C702 C703 1.524 . S
C702 H721 0.913 . S
C703 H679 0.950 . S
C703 C702 1.524 . S
C703 C704 1.415 . S
C704 H680 0.950 . S
C704 C699 1.363 . S
C704 C703 1.415 . S
C705 H681 0.951 . S
C705 C706 1.366 . S
C705 C707 1.388 . S
C706 C705 1.366 . S
C706 C710 1.385 . S
C707 H682 0.951 . S
C707 C705 1.388 . S
C707 C708 1.366 . S
C708 C707 1.366 . S
C708 C709 1.414 . S
C708 C711 1.499 . S
C709 H683 0.950 . S
C709 C708 1.414 . S
C709 C710 1.374 . S
C710 H684 0.950 . S
C710 C706 1.385 . S
C710 C709 1.374 . S
C711 C708 1.499 . S
C711 C712 1.373 . S
C711 C713 1.389 . S
C712 H685 0.950 . S
C712 C698 1.377 . S
C712 C711 1.373 . S
C713 C697 1.377 . S
C713 C711 1.389 . S
C713 C714 1.524 . S
C714 C713 1.524 . S
C714 C715 1.397 . S
C714 C719 1.363 . S
C715 H686 0.950 . S
C715 C714 1.397 . S
C715 C716 1.334 . S
C716 H687 0.950 . S
C716 C715 1.334 . S
C716 C717 1.287 . S
C717 C716 1.287 . S
C717 C718 1.524 . S
C717 H720 0.999 . S
C718 H688 0.950 . S
C718 C717 1.524 . S
C718 C719 1.415 . S
C719 H689 0.950 . S
C719 C714 1.363 . S
C719 C718 1.415 . S
H720 C717 0.999 . S
H721 C702 0.913 . S
H722 C740 0.951 . S
H723 C742 0.951 . S
H724 C744 0.950 . S
H725 C745 0.950 . S
H726 C747 0.950 . S
H727 C750 0.950 . S
H728 C751 0.950 . S
H729 C753 0.950 . S
H730 C754 0.950 . S
H731 C755 0.951 . S
H732 C757 0.951 . S
H733 C759 0.950 . S
H734 C760 0.950 . S
H735 C762 0.950 . S
H736 C765 0.950 . S
H737 C766 0.950 . S
H738 C768 0.950 . S
H739 C769 0.950 . S
C740 H722 0.951 . S
C740 C741 1.366 . S
C740 C742 1.388 . S
C741 C740 1.366 . S
C741 C745 1.385 . S
C742 H723 0.951 . S
C742 C740 1.388 . S
C742 C743 1.366 . S
C743 C742 1.366 . S
C743 C744 1.414 . S
C743 C746 1.499 1_455 S
C744 H724 0.950 . S
C744 C743 1.414 . S
C744 C745 1.374 . S
C745 H725 0.950 . S
C745 C741 1.385 . S
C745 C744 1.374 . S
C746 C743 1.499 1_655 S
C746 C747 1.373 . S
C746 C748 1.389 . S
C747 H726 0.950 . S
C747 C746 1.373 . S
C747 C763 1.377 . S
C748 C746 1.389 . S
C748 C749 1.524 . S
C748 C762 1.377 . S
C749 C748 1.524 . S
C749 C750 1.397 1_655 S
C749 C754 1.363 . S
C750 H727 0.950 . S
C750 C749 1.397 1_455 S
C750 C751 1.334 . S
C751 H728 0.950 . S
C751 C750 1.334 . S
C751 C752 1.287 . S
C752 C751 1.287 . S
C752 C753 1.524 . S
C752 H771 0.913 . S
C753 H729 0.950 . S
C753 C752 1.524 . S
C753 C754 1.415 1_455 S
C754 H730 0.950 . S
C754 C749 1.363 . S
C754 C753 1.415 1_655 S
C755 H731 0.951 . S
C755 C756 1.366 . S
C755 C757 1.388 . S
C756 C755 1.366 . S
C756 C760 1.385 . S
C757 H732 0.951 . S
C757 C755 1.388 . S
C757 C758 1.366 . S
C758 C757 1.366 . S
C758 C759 1.414 . S
C758 C761 1.499 . S
C759 H733 0.950 . S
C759 C758 1.414 . S
C759 C760 1.374 . S
C760 H734 0.950 . S
C760 C756 1.385 . S
C760 C759 1.374 . S
C761 C758 1.499 . S
C761 C762 1.373 . S
C761 C763 1.389 . S
C762 H735 0.950 . S
C762 C748 1.377 . S
C762 C761 1.373 . S
C763 C747 1.377 . S
C763 C761 1.389 . S
C763 C764 1.524 . S
C764 C763 1.524 . S
C764 C765 1.397 . S
C764 C769 1.363 . S
C765 H736 0.950 . S
C765 C764 1.397 . S
C765 C766 1.334 . S
C766 H737 0.950 . S
C766 C765 1.334 . S
C766 C767 1.287 . S
C767 C766 1.287 . S
C767 C768 1.524 . S
C767 H770 0.999 . S
C768 H738 0.950 . S
C768 C767 1.524 . S
C768 C769 1.415 . S
C769 H739 0.950 . S
C769 C764 1.363 . S
C769 C768 1.415 . S
H770 C767 0.999 . S
H771 C752 0.913 . S
H772 C790 0.951 . S
H773 C792 0.951 . S
H774 C794 0.950 . S
H775 C795 0.950 . S
H776 C797 0.950 . S
H777 C800 0.950 . S
H778 C801 0.950 . S
H779 C803 0.950 . S
H780 C804 0.950 . S
H781 C805 0.951 . S
H782 C807 0.951 . S
H783 C809 0.950 . S
H784 C810 0.950 . S
H785 C812 0.950 . S
H786 C815 0.950 . S
H787 C816 0.950 . S
H788 C818 0.950 . S
H789 C819 0.950 . S
C790 H772 0.951 . S
C790 C791 1.366 . S
C790 C792 1.388 . S
C791 C790 1.366 . S
C791 C795 1.385 . S
C792 H773 0.951 . S
C792 C790 1.388 . S
C792 C793 1.366 . S
C793 C792 1.366 . S
C793 C794 1.414 . S
C793 C796 1.499 . S
C794 H774 0.950 . S
C794 C793 1.414 . S
C794 C795 1.374 . S
C795 H775 0.950 . S
C795 C791 1.385 . S
C795 C794 1.374 . S
C796 C793 1.499 . S
C796 C797 1.373 . S
C796 C798 1.389 . S
C797 H776 0.950 . S
C797 C796 1.373 . S
C797 C813 1.377 . S
C798 C796 1.389 . S
C798 C799 1.524 . S
C798 C812 1.377 . S
C799 C798 1.524 . S
C799 C800 1.397 . S
C799 C804 1.363 . S
C800 H777 0.950 . S
C800 C799 1.397 . S
C800 C801 1.334 . S
C801 H778 0.950 . S
C801 C800 1.334 . S
C801 C802 1.287 . S
C802 C801 1.287 . S
C802 C803 1.524 . S
C802 H821 0.913 . S
C803 H779 0.950 . S
C803 C802 1.524 . S
C803 C804 1.415 . S
C804 H780 0.950 . S
C804 C799 1.363 . S
C804 C803 1.415 . S
C805 H781 0.951 . S
C805 C806 1.366 . S
C805 C807 1.388 . S
C806 C805 1.366 . S
C806 C810 1.385 . S
C807 H782 0.951 . S
C807 C805 1.388 . S
C807 C808 1.366 . S
C808 C807 1.366 . S
C808 C809 1.414 . S
C808 C811 1.499 . S
C809 H783 0.950 . S
C809 C808 1.414 . S
C809 C810 1.374 . S
C810 H784 0.950 . S
C810 C806 1.385 . S
C810 C809 1.374 . S
C811 C808 1.499 . S
C811 C812 1.373 . S
C811 C813 1.389 . S
C812 H785 0.950 . S
C812 C798 1.377 . S
C812 C811 1.373 . S
C813 C797 1.377 . S
C813 C811 1.389 . S
C813 C814 1.524 . S
C814 C813 1.524 . S
C814 C815 1.397 . S
C814 C819 1.363 . S
C815 H786 0.950 . S
C815 C814 1.397 . S
C815 C816 1.334 . S
C816 H787 0.950 . S
C816 C815 1.334 . S
C816 C817 1.287 . S
C817 C816 1.287 . S
C817 C818 1.524 . S
C817 H820 0.999 . S
C818 H788 0.950 . S
C818 C817 1.524 . S
C818 C819 1.415 . S
C819 H789 0.950 . S
C819 C814 1.363 . S
C819 C818 1.415 . S
H820 C817 0.999 . S
H821 C802 0.913 . S
H822 C840 0.951 . S
H823 C842 0.951 . S
H824 C844 0.950 . S
H825 C845 0.950 . S
H826 C847 0.950 . S
H827 C850 0.950 . S
H828 C851 0.950 . S
H829 C853 0.950 . S
H830 C854 0.950 . S
H831 C855 0.951 . S
H832 C857 0.951 . S
H833 C859 0.950 . S
H834 C860 0.950 . S
H835 C862 0.950 . S
H836 C865 0.950 . S
H837 C866 0.950 . S
H838 C868 0.950 . S
H839 C869 0.950 . S
C840 H822 0.951 . S
C840 C841 1.366 . S
C840 C842 1.388 . S
C841 C840 1.366 . S
C841 C845 1.385 . S
C842 H823 0.951 . S
C842 C840 1.388 . S
C842 C843 1.366 . S
C843 C842 1.366 . S
C843 C844 1.414 . S
C843 C846 1.499 . S
C844 H824 0.950 . S
C844 C843 1.414 . S
C844 C845 1.374 . S
C845 H825 0.950 . S
C845 C841 1.385 . S
C845 C844 1.374 . S
C846 C843 1.499 . S
C846 C847 1.373 . S
C846 C848 1.389 . S
C847 H826 0.950 . S
C847 C846 1.373 . S
C847 C863 1.377 . S
C848 C846 1.389 . S
C848 C849 1.524 . S
C848 C862 1.377 . S
C849 C848 1.524 . S
C849 C850 1.397 . S
C849 C854 1.363 . S
C850 H827 0.950 . S
C850 C849 1.397 . S
C850 C851 1.334 . S
C851 H828 0.950 . S
C851 C850 1.334 . S
C851 C852 1.287 . S
C852 C851 1.287 . S
C852 C853 1.524 . S
C852 H871 0.913 . S
C853 H829 0.950 . S
C853 C852 1.524 . S
C853 C854 1.415 . S
C854 H830 0.950 . S
C854 C849 1.363 . S
C854 C853 1.415 . S
C855 H831 0.951 . S
C855 C856 1.366 . S
C855 C857 1.388 . S
C856 C855 1.366 . S
C856 C860 1.385 . S
C857 H832 0.951 . S
C857 C855 1.388 . S
C857 C858 1.366 . S
C858 C857 1.366 . S
C858 C859 1.414 . S
C858 C861 1.499 . S
C859 H833 0.950 . S
C859 C858 1.414 . S
C859 C860 1.374 . S
C860 H834 0.950 . S
C860 C856 1.385 . S
C860 C859 1.374 . S
C861 C858 1.499 . S
C861 C862 1.373 . S
C861 C863 1.389 . S
C862 H835 0.950 . S
C862 C848 1.377 . S
C862 C861 1.373 . S
C863 C847 1.377 . S
C863 C861 1.389 . S
C863 C864 1.524 . S
C864 C863 1.524 . S
C864 C865 1.397 . S
C864 C869 1.363 . S
C865 H836 0.950 . S
C865 C864 1.397 . S
C865 C866 1.334 . S
C866 H837 0.950 . S
C866 C865 1.334 . S
C866 C867 1.287 . S
C867 C866 1.287 . S
C867 C868 1.524 . S
C867 H870 0.999 . S
C868 H838 0.950 . S
C868 C867 1.524 . S
C868 C869 1.415 . S
C869 H839 0.950 . S
C869 C864 1.363 . S
C869 C868 1.415 . S
H870 C867 0.999 . S
H871 C852 0.913 . S
H872 C890 0.951 . S
H873 C892 0.951 . S
H874 C894 0.950 . S
H875 C895 0.950 . S
H876 C897 0.950 . S
H877 C900 0.950 . S
H878 C901 0.950 . S
H879 C903 0.950 . S
H880 C904 0.950 . S
H881 C905 0.951 . S
H882 C907 0.951 . S
H883 C909 0.950 . S
H884 C910 0.950 . S
H885 C912 0.950 . S
H886 C915 0.950 . S
H887 C916 0.950 . S
H888 C918 0.950 . S
H889 C919 0.950 . S
C890 H872 0.951 . S
C890 C891 1.366 . S
C890 C892 1.388 . S
C891 C890 1.366 . S
C891 C895 1.385 . S
C892 H873 0.951 . S
C892 C890 1.388 . S
C892 C893 1.366 . S
C893 C892 1.366 . S
C893 C894 1.414 . S
C893 C896 1.499 . S
C894 H874 0.950 . S
C894 C893 1.414 . S
C894 C895 1.374 . S
C895 H875 0.950 . S
C895 C891 1.385 . S
C895 C894 1.374 . S
C896 C893 1.499 . S
C896 C897 1.373 . S
C896 C898 1.389 . S
C897 H876 0.950 . S
C897 C896 1.373 . S
C897 C913 1.377 . S
C898 C896 1.389 . S
C898 C899 1.524 . S
C898 C912 1.377 . S
C899 C898 1.524 . S
C899 C900 1.397 . S
C899 C904 1.363 . S
C900 H877 0.950 . S
C900 C899 1.397 . S
C900 C901 1.334 . S
C901 H878 0.950 . S
C901 C900 1.334 . S
C901 C902 1.287 . S
C902 C901 1.287 . S
C902 C903 1.524 . S
C902 H921 0.913 . S
C903 H879 0.950 . S
C903 C902 1.524 . S
C903 C904 1.415 . S
C904 H880 0.950 . S
C904 C899 1.363 . S
C904 C903 1.415 . S
C905 H881 0.951 . S
C905 C906 1.366 . S
C905 C907 1.388 . S
C906 C905 1.366 . S
C906 C910 1.385 . S
C907 H882 0.951 . S
C907 C905 1.388 . S
C907 C908 1.366 . S
C908 C907 1.366 . S
C908 C909 1.414 . S
C908 C911 1.499 . S
C909 H883 0.950 . S
C909 C908 1.414 . S
C909 C910 1.374 . S
C910 H884 0.950 . S
C910 C906 1.385 . S
C910 C909 1.374 . S
C911 C908 1.499 . S
C911 C912 1.373 . S
C911 C913 1.389 . S
C912 H885 0.950 . S
C912 C898 1.377 . S
C912 C911 1.373 . S
C913 C897 1.377 . S
C913 C911 1.389 . S
C913 C914 1.524 . S
C914 C913 1.524 . S
C914 C915 1.397 . S
C914 C919 1.363 . S
C915 H886 0.950 . S
C915 C914 1.397 . S
C915 C916 1.334 . S
C916 H887 0.950 . S
C916 C915 1.334 . S
C916 C917 1.287 . S
C917 C916 1.287 . S
C917 C918 1.524 . S
C917 H920 0.999 . S
C918 H888 0.950 . S
C918 C917 1.524 . S
C918 C919 1.415 . S
C919 H889 0.950 . S
C919 C914 1.363 . S
C919 C918 1.415 . S
H920 C917 0.999 . S
H921 C902 0.913 . S
H922 C940 0.951 . S
H923 C942 0.951 . S
H924 C944 0.950 . S
H925 C945 0.950 . S
H926 C947 0.950 . S
H927 C950 0.950 . S
H928 C951 0.950 . S
H929 C953 0.950 . S
H930 C954 0.950 . S
H931 C955 0.951 . S
H932 C957 0.951 . S
H933 C959 0.950 . S
H934 C960 0.950 . S
H935 C962 0.950 . S
H936 C965 0.950 . S
H937 C966 0.950 . S
H938 C968 0.950 . S
H939 C969 0.950 . S
C940 H922 0.951 . S
C940 C941 1.366 . S
C940 C942 1.388 . S
C941 C940 1.366 . S
C941 C945 1.385 . S
C942 H923 0.951 . S
C942 C940 1.388 . S
C942 C943 1.366 . S
C943 C942 1.366 . S
C943 C944 1.414 . S
C943 C946 1.499 . S
C944 H924 0.950 . S
C944 C943 1.414 . S
C944 C945 1.374 . S
C945 H925 0.950 . S
C945 C941 1.385 . S
C945 C944 1.374 . S
C946 C943 1.499 . S
C946 C947 1.373 . S
C946 C948 1.389 . S
C947 H926 0.950 . S
C947 C946 1.373 . S
C947 C963 1.377 . S
C948 C946 1.389 . S
C948 C949 1.524 . S
C948 C962 1.377 . S
C949 C948 1.524 . S
C949 C950 1.397 . S
C949 C954 1.363 . S
C950 H927 0.950 . S
C950 C949 1.397 . S
C950 C951 1.334 . S
C951 H928 0.950 . S
C951 C950 1.334 . S
C951 C952 1.287 . S
C952 C951 1.287 . S
C952 C953 1.524 . S
C952 H971 0.913 . S
C953 H929 0.950 . S
C953 C952 1.524 . S
C953 C954 1.415 . S
C954 H930 0.950 . S
C954 C949 1.363 . S
C954 C953 1.415 . S
C955 H931 0.951 . S
C955 C956 1.366 . S
C955 C957 1.388 . S
C956 C955 1.366 . S
C956 C960 1.385 . S
C957 H932 0.951 . S
C957 C955 1.388 . S
C957 C958 1.366 . S
C958 C957 1.366 . S
C958 C959 1.414 . S
C958 C961 1.499 . S
C959 H933 0.950 . S
C959 C958 1.414 . S
C959 C960 1.374 . S
C960 H934 0.950 . S
C960 C956 1.385 . S
C960 C959 1.374 . S
C961 C958 1.499 . S
C961 C962 1.373 . S
C961 C963 1.389 . S
C962 H935 0.950 . S
C962 C948 1.377 . S
C962 C961 1.373 . S
C963 C947 1.377 . S
C963 C961 1.389 . S
C963 C964 1.524 . S
C964 C963 1.524 . S
C964 C965 1.397 . S
C964 C969 1.363 . S
C965 H936 0.950 . S
C965 C964 1.397 . S
C965 C966 1.334 . S
C966 H937 0.950 . S
C966 C965 1.334 . S
C966 C967 1.287 . S
C967 C966 1.287 . S
C967 C968 1.524 . S
C967 H970 0.999 . S
C968 H938 0.950 . S
C968 C967 1.524 . S
C968 C969 1.415 . S
C969 H939 0.950 . S
C969 C964 1.363 . S
C969 C968 1.415 . S
H970 C967 0.999 . S
H971 C952 0.913 . S
H972 C990 0.951 . S
H973 C992 0.951 . S
H974 C994 0.950 . S
H975 C995 0.950 . S
H976 C997 0.950 . S
H977 C1000 0.950 . S
H978 C1001 0.950 . S
H979 C1003 0.950 . S
H980 C1004 0.950 . S
H981 C1005 0.951 . S
H982 C1007 0.951 . S
H983 C1009 0.950 . S
H984 C1010 0.950 . S
H985 C1012 0.950 . S
H986 C1015 0.950 . S
H987 C1016 0.950 . S
H988 C1018 0.950 . S
H989 C1019 0.950 . S
C990 H972 0.951 . S
C990 C991 1.366 . S
C990 C992 1.388 . S
C991 C990 1.366 . S
C991 C995 1.385 . S
C992 H973 0.951 . S
C992 C990 1.388 . S
C992 C993 1.366 . S
C993 C992 1.366 . S
C993 C994 1.414 . S
C993 C996 1.499 . S
C994 H974 0.950 . S
C994 C993 1.414 . S
C994 C995 1.374 . S
C995 H975 0.950 . S
C995 C991 1.385 . S
C995 C994 1.374 . S
C996 C993 1.499 . S
C996 C997 1.373 . S
C996 C998 1.389 . S
C997 H976 0.950 . S
C997 C996 1.373 . S
C997 C1013 1.377 . S
C998 C996 1.389 . S
C998 C999 1.524 . S
C998 C1012 1.377 . S
C999 C998 1.524 . S
C999 C1000 1.397 . S
C999 C1004 1.363 . S
C1000 H977 0.950 . S
C1000 C999 1.397 . S
C1000 C1001 1.334 . S
C1001 H978 0.950 . S
C1001 C1000 1.334 . S
C1001 C1002 1.287 . S
C1002 C1001 1.287 . S
C1002 C1003 1.524 . S
C1002 H1021 0.913 . S
C1003 H979 0.950 . S
C1003 C1002 1.524 . S
C1003 C1004 1.415 . S
C1004 H980 0.950 . S
C1004 C999 1.363 . S
C1004 C1003 1.415 . S
C1005 H981 0.951 . S
C1005 C1006 1.366 . S
C1005 C1007 1.388 . S
C1006 C1005 1.366 . S
C1006 C1010 1.385 . S
C1007 H982 0.951 . S
C1007 C1005 1.388 . S
C1007 C1008 1.366 . S
C1008 C1007 1.366 . S
C1008 C1009 1.414 . S
C1008 C1011 1.499 . S
C1009 H983 0.950 . S
C1009 C1008 1.414 . S
C1009 C1010 1.374 . S
C1010 H984 0.950 . S
C1010 C1006 1.385 . S
C1010 C1009 1.374 . S
C1011 C1008 1.499 . S
C1011 C1012 1.373 . S
C1011 C1013 1.389 . S
C1012 H985 0.950 . S
C1012 C998 1.377 . S
C1012 C1011 1.373 . S
C1013 C997 1.377 . S
C1013 C1011 1.389 . S
C1013 C1014 1.524 . S
C1014 C1013 1.524 . S
C1014 C1015 1.397 . S
C1014 C1019 1.363 . S
C1015 H986 0.950 . S
C1015 C1014 1.397 . S
C1015 C1016 1.334 . S
C1016 H987 0.950 . S
C1016 C1015 1.334 . S
C1016 C1017 1.287 . S
C1017 C1016 1.287 . S
C1017 C1018 1.524 . S
C1017 H1020 0.999 . S
C1018 H988 0.950 . S
C1018 C1017 1.524 . S
C1018 C1019 1.415 . S
C1019 H989 0.950 . S
C1019 C1014 1.363 . S
C1019 C1018 1.415 . S
H1020 C1017 0.999 . S
H1021 C1002 0.913 . S
H1022 C1040 0.951 . S
H1023 C1042 0.951 . S
H1024 C1044 0.950 . S
H1025 C1045 0.950 . S
H1026 C1047 0.950 . S
H1027 C1050 0.950 . S
H1028 C1051 0.950 . S
H1029 C1053 0.950 . S
H1030 C1054 0.950 . S
H1031 C1055 0.951 . S
H1032 C1057 0.951 . S
H1033 C1059 0.950 . S
H1034 C1060 0.950 . S
H1035 C1062 0.950 . S
H1036 C1065 0.950 . S
H1037 C1066 0.950 . S
H1038 C1068 0.950 . S
H1039 C1069 0.950 . S
C1040 H1022 0.951 . S
C1040 C1041 1.366 . S
C1040 C1042 1.388 . S
C1041 C1040 1.366 . S
C1041 C1045 1.385 . S
C1042 H1023 0.951 . S
C1042 C1040 1.388 . S
C1042 C1043 1.366 . S
C1043 C1042 1.366 . S
C1043 C1044 1.414 . S
C1043 C1046 1.499 1_455 S
C1044 H1024 0.950 . S
C1044 C1043 1.414 . S
C1044 C1045 1.374 . S
C1045 H1025 0.950 . S
C1045 C1041 1.385 . S
C1045 C1044 1.374 . S
C1046 C1043 1.499 1_655 S
C1046 C1047 1.373 . S
C1046 C1048 1.389 . S
C1047 H1026 0.950 . S
C1047 C1046 1.373 . S
C1047 C1063 1.377 . S
C1048 C1046 1.389 . S
C1048 C1049 1.524 . S
C1048 C1062 1.377 . S
C1049 C1048 1.524 . S
C1049 C1050 1.397 1_655 S
C1049 C1054 1.363 . S
C1050 H1027 0.950 . S
C1050 C1049 1.397 1_455 S
C1050 C1051 1.334 . S
C1051 H1028 0.950 . S
C1051 C1050 1.334 . S
C1051 C1052 1.287 . S
C1052 C1051 1.287 . S
C1052 C1053 1.524 1_455 S
C1052 H1071 0.913 . S
C1053 H1029 0.950 . S
C1053 C1052 1.524 1_655 S
C1053 C1054 1.415 . S
C1054 H1030 0.950 . S
C1054 C1049 1.363 . S
C1054 C1053 1.415 . S
C1055 H1031 0.951 . S
C1055 C1056 1.366 . S
C1055 C1057 1.388 . S
C1056 C1055 1.366 . S
C1056 C1060 1.385 . S
C1057 H1032 0.951 . S
C1057 C1055 1.388 . S
C1057 C1058 1.366 . S
C1058 C1057 1.366 . S
C1058 C1059 1.414 . S
C1058 C1061 1.499 . S
C1059 H1033 0.950 . S
C1059 C1058 1.414 . S
C1059 C1060 1.374 . S
C1060 H1034 0.950 . S
C1060 C1056 1.385 . S
C1060 C1059 1.374 . S
C1061 C1058 1.499 . S
C1061 C1062 1.373 . S
C1061 C1063 1.389 . S
C1062 H1035 0.950 . S
C1062 C1048 1.377 . S
C1062 C1061 1.373 . S
C1063 C1047 1.377 . S
C1063 C1061 1.389 . S
C1063 C1064 1.524 . S
C1064 C1063 1.524 . S
C1064 C1065 1.397 . S
C1064 C1069 1.363 . S
C1065 H1036 0.950 . S
C1065 C1064 1.397 . S
C1065 C1066 1.334 . S
C1066 H1037 0.950 . S
C1066 C1065 1.334 . S
C1066 C1067 1.287 . S
C1067 C1066 1.287 . S
C1067 C1068 1.524 . S
C1067 H1070 0.999 . S
C1068 H1038 0.950 . S
C1068 C1067 1.524 . S
C1068 C1069 1.415 . S
C1069 H1039 0.950 . S
C1069 C1064 1.363 . S
C1069 C1068 1.415 . S
H1070 C1067 0.999 . S
H1071 C1052 0.913 . S
H1072 C1090 0.951 . S
H1073 C1092 0.951 . S
H1074 C1094 0.950 . S
H1075 C1095 0.950 . S
H1076 C1097 0.950 . S
H1077 C1100 0.950 . S
H1078 C1101 0.950 . S
H1079 C1103 0.950 . S
H1080 C1104 0.950 . S
H1081 C1105 0.951 . S
H1082 C1107 0.951 . S
H1083 C1109 0.950 . S
H1084 C1110 0.950 . S
H1085 C1112 0.950 . S
H1086 C1115 0.950 . S
H1087 C1116 0.950 . S
H1088 C1118 0.950 . S
H1089 C1119 0.950 . S
C1090 H1072 0.951 . S
C1090 C1091 1.366 . S
C1090 C1092 1.388 . S
C1091 C1090 1.366 . S
C1091 C1095 1.385 . S
C1092 H1073 0.951 . S
C1092 C1090 1.388 . S
C1092 C1093 1.366 . S
C1093 C1092 1.366 . S
C1093 C1094 1.414 . S
C1093 C1096 1.499 . S
C1094 H1074 0.950 . S
C1094 C1093 1.414 . S
C1094 C1095 1.374 . S
C1095 H1075 0.950 . S
C1095 C1091 1.385 . S
C1095 C1094 1.374 . S
C1096 C1093 1.499 . S
C1096 C1097 1.373 . S
C1096 C1098 1.389 . S
C1097 H1076 0.950 . S
C1097 C1096 1.373 . S
C1097 C1113 1.377 . S
C1098 C1096 1.389 . S
C1098 C1099 1.524 . S
C1098 C1112 1.377 . S
C1099 C1098 1.524 . S
C1099 C1100 1.397 . S
C1099 C1104 1.363 . S
C1100 H1077 0.950 . S
C1100 C1099 1.397 . S
C1100 C1101 1.334 . S
C1101 H1078 0.950 . S
C1101 C1100 1.334 . S
C1101 C1102 1.287 . S
C1102 C1101 1.287 . S
C1102 C1103 1.524 . S
C1102 H1121 0.913 . S
C1103 H1079 0.950 . S
C1103 C1102 1.524 . S
C1103 C1104 1.415 . S
C1104 H1080 0.950 . S
C1104 C1099 1.363 . S
C1104 C1103 1.415 . S
C1105 H1081 0.951 . S
C1105 C1106 1.366 . S
C1105 C1107 1.388 . S
C1106 C1105 1.366 . S
C1106 C1110 1.385 . S
C1107 H1082 0.951 . S
C1107 C1105 1.388 . S
C1107 C1108 1.366 . S
C1108 C1107 1.366 . S
C1108 C1109 1.414 . S
C1108 C1111 1.499 . S
C1109 H1083 0.950 . S
C1109 C1108 1.414 . S
C1109 C1110 1.374 . S
C1110 H1084 0.950 . S
C1110 C1106 1.385 . S
C1110 C1109 1.374 . S
C1111 C1108 1.499 . S
C1111 C1112 1.373 . S
C1111 C1113 1.389 . S
C1112 H1085 0.950 . S
C1112 C1098 1.377 . S
C1112 C1111 1.373 . S
C1113 C1097 1.377 . S
C1113 C1111 1.389 . S
C1113 C1114 1.524 . S
C1114 C1113 1.524 . S
C1114 C1115 1.397 . S
C1114 C1119 1.363 . S
C1115 H1086 0.950 . S
C1115 C1114 1.397 . S
C1115 C1116 1.334 . S
C1116 H1087 0.950 . S
C1116 C1115 1.334 . S
C1116 C1117 1.287 . S
C1117 C1116 1.287 . S
C1117 C1118 1.524 . S
C1117 H1120 0.999 . S
C1118 H1088 0.950 . S
C1118 C1117 1.524 . S
C1118 C1119 1.415 . S
C1119 H1089 0.950 . S
C1119 C1114 1.363 . S
C1119 C1118 1.415 . S
H1120 C1117 0.999 . S
H1121 C1102 0.913 . S
H1122 C1140 0.951 . S
H1123 C1142 0.951 . S
H1124 C1144 0.950 . S
H1125 C1145 0.950 . S
H1126 C1147 0.950 . S
H1127 C1150 0.950 . S
H1128 C1151 0.950 . S
H1129 C1153 0.950 . S
H1130 C1154 0.950 . S
H1131 C1155 0.951 . S
H1132 C1157 0.951 . S
H1133 C1159 0.950 . S
H1134 C1160 0.950 . S
H1135 C1162 0.950 . S
H1136 C1165 0.950 . S
H1137 C1166 0.950 . S
H1138 C1168 0.950 . S
H1139 C1169 0.950 . S
C1140 H1122 0.951 . S
C1140 C1141 1.366 . S
C1140 C1142 1.388 . S
C1141 C1140 1.366 . S
C1141 C1145 1.385 . S
C1142 H1123 0.951 . S
C1142 C1140 1.388 . S
C1142 C1143 1.366 . S
C1143 C1142 1.366 . S
C1143 C1144 1.414 . S
C1143 C1146 1.499 . S
C1144 H1124 0.950 . S
C1144 C1143 1.414 . S
C1144 C1145 1.374 . S
C1145 H1125 0.950 . S
C1145 C1141 1.385 . S
C1145 C1144 1.374 . S
C1146 C1143 1.499 . S
C1146 C1147 1.373 . S
C1146 C1148 1.389 . S
C1147 H1126 0.950 . S
C1147 C1146 1.373 . S
C1147 C1163 1.377 . S
C1148 C1146 1.389 . S
C1148 C1149 1.524 . S
C1148 C1162 1.377 . S
C1149 C1148 1.524 . S
C1149 C1150 1.397 . S
C1149 C1154 1.363 . S
C1150 H1127 0.950 . S
C1150 C1149 1.397 . S
C1150 C1151 1.334 . S
C1151 H1128 0.950 . S
C1151 C1150 1.334 . S
C1151 C1152 1.287 . S
C1152 C1151 1.287 . S
C1152 C1153 1.524 . S
C1152 H1171 0.913 . S
C1153 H1129 0.950 . S
C1153 C1152 1.524 . S
C1153 C1154 1.415 . S
C1154 H1130 0.950 . S
C1154 C1149 1.363 . S
C1154 C1153 1.415 . S
C1155 H1131 0.951 . S
C1155 C1156 1.366 . S
C1155 C1157 1.388 . S
C1156 C1155 1.366 . S
C1156 C1160 1.385 . S
C1157 H1132 0.951 . S
C1157 C1155 1.388 . S
C1157 C1158 1.366 . S
C1158 C1157 1.366 . S
C1158 C1159 1.414 . S
C1158 C1161 1.499 . S
C1159 H1133 0.950 . S
C1159 C1158 1.414 . S
C1159 C1160 1.374 . S
C1160 H1134 0.950 . S
C1160 C1156 1.385 . S
C1160 C1159 1.374 . S
C1161 C1158 1.499 . S
C1161 C1162 1.373 . S
C1161 C1163 1.389 . S
C1162 H1135 0.950 . S
C1162 C1148 1.377 . S
C1162 C1161 1.373 . S
C1163 C1147 1.377 . S
C1163 C1161 1.389 . S
C1163 C1164 1.524 . S
C1164 C1163 1.524 . S
C1164 C1165 1.397 . S
C1164 C1169 1.363 . S
C1165 H1136 0.950 . S
C1165 C1164 1.397 . S
C1165 C1166 1.334 . S
C1166 H1137 0.950 . S
C1166 C1165 1.334 . S
C1166 C1167 1.287 . S
C1167 C1166 1.287 . S
C1167 C1168 1.524 . S
C1167 H1170 0.999 . S
C1168 H1138 0.950 . S
C1168 C1167 1.524 . S
C1168 C1169 1.415 . S
C1169 H1139 0.950 . S
C1169 C1164 1.363 . S
C1169 C1168 1.415 . S
H1170 C1167 0.999 . S
H1171 C1152 0.913 . S
H1172 C1190 0.951 . S
H1173 C1192 0.951 . S
H1174 C1194 0.950 . S
H1175 C1195 0.950 . S
H1176 C1197 0.950 . S
H1177 C1200 0.950 . S
H1178 C1201 0.950 . S
H1179 C1203 0.950 . S
H1180 C1204 0.950 . S
H1181 C1205 0.951 . S
H1182 C1207 0.951 . S
H1183 C1209 0.950 . S
H1184 C1210 0.950 . S
H1185 C1212 0.950 . S
H1186 C1215 0.950 . S
H1187 C1216 0.950 . S
H1188 C1218 0.950 . S
H1189 C1219 0.950 . S
C1190 H1172 0.951 . S
C1190 C1191 1.366 . S
C1190 C1192 1.388 . S
C1191 C1190 1.366 . S
C1191 C1195 1.385 . S
C1192 H1173 0.951 . S
C1192 C1190 1.388 . S
C1192 C1193 1.366 . S
C1193 C1192 1.366 . S
C1193 C1194 1.414 . S
C1193 C1196 1.499 . S
C1194 H1174 0.950 . S
C1194 C1193 1.414 . S
C1194 C1195 1.374 . S
C1195 H1175 0.950 . S
C1195 C1191 1.385 . S
C1195 C1194 1.374 . S
C1196 C1193 1.499 . S
C1196 C1197 1.373 . S
C1196 C1198 1.389 . S
C1197 H1176 0.950 . S
C1197 C1196 1.373 . S
C1197 C1213 1.377 . S
C1198 C1196 1.389 . S
C1198 C1199 1.524 . S
C1198 C1212 1.377 . S
C1199 C1198 1.524 . S
C1199 C1200 1.397 . S
C1199 C1204 1.363 . S
C1200 H1177 0.950 . S
C1200 C1199 1.397 . S
C1200 C1201 1.334 . S
C1201 H1178 0.950 . S
C1201 C1200 1.334 . S
C1201 C1202 1.287 . S
C1202 C1201 1.287 . S
C1202 C1203 1.524 . S
C1202 H1221 0.913 . S
C1203 H1179 0.950 . S
C1203 C1202 1.524 . S
C1203 C1204 1.415 . S
C1204 H1180 0.950 . S
C1204 C1199 1.363 . S
C1204 C1203 1.415 . S
C1205 H1181 0.951 . S
C1205 C1206 1.366 . S
C1205 C1207 1.388 . S
C1206 C1205 1.366 . S
C1206 C1210 1.385 . S
C1207 H1182 0.951 . S
C1207 C1205 1.388 . S
C1207 C1208 1.366 . S
C1208 C1207 1.366 . S
C1208 C1209 1.414 . S
C1208 C1211 1.499 . S
C1209 H1183 0.950 . S
C1209 C1208 1.414 . S
C1209 C1210 1.374 . S
C1210 H1184 0.950 . S
C1210 C1206 1.385 . S
C1210 C1209 1.374 . S
C1211 C1208 1.499 . S
C1211 C1212 1.373 . S
C1211 C1213 1.389 . S
C1212 H1185 0.950 . S
C1212 C1198 1.377 . S
C1212 C1211 1.373 . S
C1213 C1197 1.377 . S
C1213 C1211 1.389 . S
C1213 C1214 1.524 . S
C1214 C1213 1.524 . S
C1214 C1215 1.397 . S
C1214 C1219 1.363 . S
C1215 H1186 0.950 . S
C1215 C1214 1.397 . S
C1215 C1216 1.334 . S
C1216 H1187 0.950 . S
C1216 C1215 1.334 . S
C1216 C1217 1.287 . S
C1217 C1216 1.287 . S
C1217 C1218 1.524 . S
C1217 H1220 0.999 . S
C1218 H1188 0.950 . S
C1218 C1217 1.524 . S
C1218 C1219 1.415 . S
C1219 H1189 0.950 . S
C1219 C1214 1.363 . S
C1219 C1218 1.415 . S
H1220 C1217 0.999 . S
H1221 C1202 0.913 . S
H1222 C1240 0.951 . S
H1223 C1242 0.951 . S
H1224 C1244 0.950 . S
H1225 C1245 0.950 . S
H1226 C1247 0.950 . S
H1227 C1250 0.950 . S
H1228 C1251 0.950 . S
H1229 C1253 0.950 . S
H1230 C1254 0.950 . S
H1231 C1255 0.951 . S
H1232 C1257 0.951 . S
H1233 C1259 0.950 . S
H1234 C1260 0.950 . S
H1235 C1262 0.950 . S
H1236 C1265 0.950 . S
H1237 C1266 0.950 . S
H1238 C1268 0.950 . S
H1239 C1269 0.950 . S
C1240 H1222 0.951 . S
C1240 C1241 1.366 . S
C1240 C1242 1.388 . S
C1241 C1240 1.366 . S
C1241 C1245 1.385 . S
C1242 H1223 0.951 . S
C1242 C1240 1.388 . S
C1242 C1243 1.366 . S
C1243 C1242 1.366 . S
C1243 C1244 1.414 . S
C1243 C1246 1.523 . S
C1244 H1224 0.950 . S
C1244 C1243 1.414 . S
C1244 C1245 1.374 . S
C1245 H1225 0.950 . S
C1245 C1241 1.385 . S
C1245 C1244 1.374 . S
C1246 C1243 1.523 . S
C1246 C1247 1.362 1_556 S
C1246 C1248 1.376 1_556 S
C1247 H1226 0.950 . S
C1247 C1246 1.362 1_554 S
C1247 C1263 1.377 . S
C1248 C1246 1.376 1_554 S
C1248 C1249 1.524 . S
C1248 C1262 1.377 . S
C1249 C1248 1.524 . S
C1249 C1250 1.397 1_554 S
C1249 C1254 1.363 . S
C1250 H1227 0.950 . S
C1250 C1249 1.397 1_556 S
C1250 C1251 1.334 . S
C1251 H1228 0.950 . S
C1251 C1250 1.334 . S
C1251 C1252 1.287 . S
C1252 C1251 1.287 . S
C1252 C1253 1.524 1_556 S
C1252 H1271 0.913 . S
C1253 H1229 0.950 . S
C1253 C1252 1.524 1_554 S
C1253 C1254 1.415 . S
C1254 H1230 0.950 . S
C1254 C1249 1.363 . S
C1254 C1253 1.415 . S
C1255 H1231 0.951 . S
C1255 C1256 1.366 . S
C1255 C1257 1.388 . S
C1256 C1255 1.366 . S
C1256 C1260 1.385 . S
C1257 H1232 0.951 . S
C1257 C1255 1.388 . S
C1257 C1258 1.366 . S
C1258 C1257 1.366 . S
C1258 C1259 1.414 . S
C1258 C1261 1.499 . S
C1259 H1233 0.950 . S
C1259 C1258 1.414 . S
C1259 C1260 1.374 . S
C1260 H1234 0.950 . S
C1260 C1256 1.385 . S
C1260 C1259 1.374 . S
C1261 C1258 1.499 . S
C1261 C1262 1.373 . S
C1261 C1263 1.389 . S
C1262 H1235 0.950 . S
C1262 C1248 1.377 . S
C1262 C1261 1.373 . S
C1263 C1247 1.377 . S
C1263 C1261 1.389 . S
C1263 C1264 1.524 . S
C1264 C1263 1.524 . S
C1264 C1265 1.397 . S
C1264 C1269 1.363 . S
C1265 H1236 0.950 . S
C1265 C1264 1.397 . S
C1265 C1266 1.334 . S
C1266 H1237 0.950 . S
C1266 C1265 1.334 . S
C1266 C1267 1.287 . S
C1267 C1266 1.287 . S
C1267 C1268 1.524 . S
C1267 H1270 0.999 . S
C1268 H1238 0.950 . S
C1268 C1267 1.524 . S
C1268 C1269 1.415 . S
C1269 H1239 0.950 . S
C1269 C1264 1.363 . S
C1269 C1268 1.415 . S
H1270 C1267 0.999 . S
H1271 C1252 0.913 . S
H1272 C1290 0.951 . S
H1273 C1292 0.951 . S
H1274 C1294 0.950 . S
H1275 C1295 0.950 . S
H1276 C1297 0.950 . S
H1277 C1300 0.950 . S
H1278 C1301 0.950 . S
H1279 C1303 0.950 . S
H1280 C1304 0.950 . S
H1281 C1305 0.951 . S
H1282 C1307 0.951 . S
H1283 C1309 0.950 . S
H1284 C1310 0.950 . S
H1285 C1312 0.950 . S
H1286 C1315 0.950 . S
H1287 C1316 0.950 . S
H1288 C1318 0.950 . S
H1289 C1319 0.950 . S
C1290 H1272 0.951 . S
C1290 C1291 1.366 . S
C1290 C1292 1.388 . S
C1291 C1290 1.366 . S
C1291 C1295 1.385 . S
C1292 H1273 0.951 . S
C1292 C1290 1.388 . S
C1292 C1293 1.366 . S
C1293 C1292 1.366 . S
C1293 C1294 1.414 . S
C1293 C1296 1.499 . S
C1294 H1274 0.950 . S
C1294 C1293 1.414 . S
C1294 C1295 1.374 . S
C1295 H1275 0.950 . S
C1295 C1291 1.385 . S
C1295 C1294 1.374 . S
C1296 C1293 1.499 . S
C1296 C1297 1.373 . S
C1296 C1298 1.389 . S
C1297 H1276 0.950 . S
C1297 C1296 1.373 . S
C1297 C1313 1.377 . S
C1298 C1296 1.389 . S
C1298 C1299 1.524 . S
C1298 C1312 1.377 . S
C1299 C1298 1.524 . S
C1299 C1300 1.397 . S
C1299 C1304 1.363 . S
C1300 H1277 0.950 . S
C1300 C1299 1.397 . S
C1300 C1301 1.334 . S
C1301 H1278 0.950 . S
C1301 C1300 1.334 . S
C1301 C1302 1.287 . S
C1302 C1301 1.287 . S
C1302 C1303 1.524 . S
C1302 H1321 0.913 . S
C1303 H1279 0.950 . S
C1303 C1302 1.524 . S
C1303 C1304 1.415 . S
C1304 H1280 0.950 . S
C1304 C1299 1.363 . S
C1304 C1303 1.415 . S
C1305 H1281 0.951 . S
C1305 C1306 1.366 . S
C1305 C1307 1.388 . S
C1306 C1305 1.366 . S
C1306 C1310 1.385 . S
C1307 H1282 0.951 . S
C1307 C1305 1.388 . S
C1307 C1308 1.366 . S
C1308 C1307 1.366 . S
C1308 C1309 1.414 . S
C1308 C1311 1.499 . S
C1309 H1283 0.950 . S
C1309 C1308 1.414 . S
C1309 C1310 1.374 . S
C1310 H1284 0.950 . S
C1310 C1306 1.385 . S
C1310 C1309 1.374 . S
C1311 C1308 1.499 . S
C1311 C1312 1.373 . S
C1311 C1313 1.389 . S
C1312 H1285 0.950 . S
C1312 C1298 1.377 . S
C1312 C1311 1.373 . S
C1313 C1297 1.377 . S
C1313 C1311 1.389 . S
C1313 C1314 1.524 . S
C1314 C1313 1.524 . S
C1314 C1315 1.397 . S
C1314 C1319 1.363 . S
C1315 H1286 0.950 . S
C1315 C1314 1.397 . S
C1315 C1316 1.334 . S
C1316 H1287 0.950 . S
C1316 C1315 1.334 . S
C1316 C1317 1.287 . S
C1317 C1316 1.287 . S
C1317 C1318 1.524 . S
C1317 H1320 0.999 . S
C1318 H1288 0.950 . S
C1318 C1317 1.524 . S
C1318 C1319 1.415 . S
C1319 H1289 0.950 . S
C1319 C1314 1.363 . S
C1319 C1318 1.415 . S
H1320 C1317 0.999 . S
H1321 C1302 0.913 . S
H1322 C1340 0.951 . S
H1323 C1342 0.951 . S
H1324 C1344 0.950 . S
H1325 C1345 0.950 . S
H1326 C1347 0.950 . S
H1327 C1350 0.950 . S
H1328 C1351 0.950 . S
H1329 C1353 0.950 . S
H1330 C1354 0.950 . S
H1331 C1355 0.951 . S
H1332 C1357 0.951 . S
H1333 C1359 0.950 . S
H1334 C1360 0.950 . S
H1335 C1362 0.950 . S
H1336 C1365 0.950 . S
H1337 C1366 0.950 . S
H1338 C1368 0.950 . S
H1339 C1369 0.950 . S
C1340 H1322 0.951 . S
C1340 C1341 1.366 . S
C1340 C1342 1.388 . S
C1341 C1340 1.366 . S
C1341 C1345 1.385 . S
C1342 H1323 0.951 . S
C1342 C1340 1.388 . S
C1342 C1343 1.366 . S
C1343 C1342 1.366 . S
C1343 C1344 1.414 . S
C1343 C1346 1.499 . S
C1344 H1324 0.950 . S
C1344 C1343 1.414 . S
C1344 C1345 1.374 . S
C1345 H1325 0.950 . S
C1345 C1341 1.385 . S
C1345 C1344 1.374 . S
C1346 C1343 1.499 . S
C1346 C1347 1.373 . S
C1346 C1348 1.389 . S
C1347 H1326 0.950 . S
C1347 C1346 1.373 . S
C1347 C1363 1.377 . S
C1348 C1346 1.389 . S
C1348 C1349 1.524 . S
C1348 C1362 1.377 . S
C1349 C1348 1.524 . S
C1349 C1350 1.397 . S
C1349 C1354 1.363 . S
C1350 H1327 0.950 . S
C1350 C1349 1.397 . S
C1350 C1351 1.334 . S
C1351 H1328 0.950 . S
C1351 C1350 1.334 . S
C1351 C1352 1.287 . S
C1352 C1351 1.287 . S
C1352 C1353 1.524 . S
C1352 H1371 0.913 . S
C1353 H1329 0.950 . S
C1353 C1352 1.524 . S
C1353 C1354 1.415 . S
C1354 H1330 0.950 . S
C1354 C1349 1.363 . S
C1354 C1353 1.415 . S
C1355 H1331 0.951 . S
C1355 C1356 1.366 . S
C1355 C1357 1.388 . S
C1356 C1355 1.366 . S
C1356 C1360 1.385 . S
C1357 H1332 0.951 . S
C1357 C1355 1.388 . S
C1357 C1358 1.366 . S
C1358 C1357 1.366 . S
C1358 C1359 1.414 . S
C1358 C1361 1.499 . S
C1359 H1333 0.950 . S
C1359 C1358 1.414 . S
C1359 C1360 1.374 . S
C1360 H1334 0.950 . S
C1360 C1356 1.385 . S
C1360 C1359 1.374 . S
C1361 C1358 1.499 . S
C1361 C1362 1.373 . S
C1361 C1363 1.389 . S
C1362 H1335 0.950 . S
C1362 C1348 1.377 . S
C1362 C1361 1.373 . S
C1363 C1347 1.377 . S
C1363 C1361 1.389 . S
C1363 C1364 1.524 . S
C1364 C1363 1.524 . S
C1364 C1365 1.397 . S
C1364 C1369 1.363 . S
C1365 H1336 0.950 . S
C1365 C1364 1.397 . S
C1365 C1366 1.334 . S
C1366 H1337 0.950 . S
C1366 C1365 1.334 . S
C1366 C1367 1.287 . S
C1367 C1366 1.287 . S
C1367 C1368 1.524 . S
C1367 H1370 0.999 . S
C1368 H1338 0.950 . S
C1368 C1367 1.524 . S
C1368 C1369 1.415 . S
C1369 H1339 0.950 . S
C1369 C1364 1.363 . S
C1369 C1368 1.415 . S
H1370 C1367 0.999 . S
H1371 C1352 0.913 . S
H1372 C1390 0.951 . S
H1373 C1392 0.951 . S
H1374 C1394 0.950 . S
H1375 C1395 0.950 . S
H1376 C1397 0.950 . S
H1377 C1400 0.950 . S
H1378 C1401 0.950 . S
H1379 C1403 0.950 . S
H1380 C1404 0.950 . S
H1381 C1405 0.951 . S
H1382 C1407 0.951 . S
H1383 C1409 0.950 . S
H1384 C1410 0.950 . S
H1385 C1412 0.950 . S
H1386 C1415 0.950 . S
H1387 C1416 0.950 . S
H1388 C1418 0.950 . S
H1389 C1419 0.950 . S
C1390 H1372 0.951 . S
C1390 C1391 1.366 . S
C1390 C1392 1.388 . S
C1391 C1390 1.366 . S
C1391 C1395 1.385 . S
C1392 H1373 0.951 . S
C1392 C1390 1.388 . S
C1392 C1393 1.366 . S
C1393 C1392 1.366 . S
C1393 C1394 1.414 . S
C1393 C1396 1.499 . S
C1394 H1374 0.950 . S
C1394 C1393 1.414 . S
C1394 C1395 1.374 . S
C1395 H1375 0.950 . S
C1395 C1391 1.385 . S
C1395 C1394 1.374 . S
C1396 C1393 1.499 . S
C1396 C1397 1.373 . S
C1396 C1398 1.389 . S
C1397 H1376 0.950 . S
C1397 C1396 1.373 . S
C1397 C1413 1.377 . S
C1398 C1396 1.389 . S
C1398 C1399 1.524 . S
C1398 C1412 1.377 . S
C1399 C1398 1.524 . S
C1399 C1400 1.397 . S
C1399 C1404 1.363 . S
C1400 H1377 0.950 . S
C1400 C1399 1.397 . S
C1400 C1401 1.334 . S
C1401 H1378 0.950 . S
C1401 C1400 1.334 . S
C1401 C1402 1.287 . S
C1402 C1401 1.287 . S
C1402 C1403 1.524 . S
C1402 H1421 0.913 . S
C1403 H1379 0.950 . S
C1403 C1402 1.524 . S
C1403 C1404 1.415 . S
C1404 H1380 0.950 . S
C1404 C1399 1.363 . S
C1404 C1403 1.415 . S
C1405 H1381 0.951 . S
C1405 C1406 1.366 . S
C1405 C1407 1.388 . S
C1406 C1405 1.366 . S
C1406 C1410 1.385 . S
C1407 H1382 0.951 . S
C1407 C1405 1.388 . S
C1407 C1408 1.366 . S
C1408 C1407 1.366 . S
C1408 C1409 1.414 . S
C1408 C1411 1.499 . S
C1409 H1383 0.950 . S
C1409 C1408 1.414 . S
C1409 C1410 1.374 . S
C1410 H1384 0.950 . S
C1410 C1406 1.385 . S
C1410 C1409 1.374 . S
C1411 C1408 1.499 . S
C1411 C1412 1.373 . S
C1411 C1413 1.389 . S
C1412 H1385 0.950 . S
C1412 C1398 1.377 . S
C1412 C1411 1.373 . S
C1413 C1397 1.377 . S
C1413 C1411 1.389 . S
C1413 C1414 1.524 . S
C1414 C1413 1.524 . S
C1414 C1415 1.397 . S
C1414 C1419 1.363 . S
C1415 H1386 0.950 . S
C1415 C1414 1.397 . S
C1415 C1416 1.334 . S
C1416 H1387 0.950 . S
C1416 C1415 1.334 . S
C1416 C1417 1.287 . S
C1417 C1416 1.287 . S
C1417 C1418 1.524 . S
C1417 H1420 0.999 . S
C1418 H1388 0.950 . S
C1418 C1417 1.524 . S
C1418 C1419 1.415 . S
C1419 H1389 0.950 . S
C1419 C1414 1.363 . S
C1419 C1418 1.415 . S
H1420 C1417 0.999 . S
H1421 C1402 0.913 . S
H1422 C1440 0.951 . S
H1423 C1442 0.951 . S
H1424 C1444 0.950 . S
H1425 C1445 0.950 . S
H1426 C1447 0.950 . S
H1427 C1450 0.950 . S
H1428 C1451 0.950 . S
H1429 C1453 0.950 . S
H1430 C1454 0.950 1_556 S
H1431 C1455 0.951 . S
H1432 C1457 0.951 . S
H1433 C1459 0.950 . S
H1434 C1460 0.950 . S
H1435 C1462 0.950 . S
H1436 C1465 0.950 . S
H1437 C1466 0.950 . S
H1438 C1468 0.950 . S
H1439 C1469 0.950 . S
C1440 H1422 0.951 . S
C1440 C1441 1.366 . S
C1440 C1442 1.388 . S
C1441 C1440 1.366 . S
C1441 C1445 1.385 . S
C1442 H1423 0.951 . S
C1442 C1440 1.388 . S
C1442 C1443 1.366 . S
C1443 C1442 1.366 . S
C1443 C1444 1.414 . S
C1443 C1446 1.499 . S
C1444 H1424 0.950 . S
C1444 C1443 1.414 . S
C1444 C1445 1.374 . S
C1445 H1425 0.950 . S
C1445 C1441 1.385 . S
C1445 C1444 1.374 . S
C1446 C1443 1.499 . S
C1446 C1447 1.373 1_554 S
C1446 C1448 1.389 1_554 S
C1447 H1426 0.950 . S
C1447 C1446 1.373 1_556 S
C1447 C1463 1.377 . S
C1448 C1446 1.389 1_556 S
C1448 C1449 1.524 1_556 S
C1448 C1462 1.377 . S
C1449 C1448 1.524 1_554 S
C1449 C1450 1.397 . S
C1449 C1454 1.363 . S
C1450 H1427 0.950 . S
C1450 C1449 1.397 . S
C1450 C1451 1.334 . S
C1451 H1428 0.950 . S
C1451 C1450 1.334 . S
C1451 C1452 1.287 . S
C1452 C1451 1.287 . S
C1452 C1453 1.524 . S
C1452 H1471 0.913 . S
C1453 H1429 0.950 . S
C1453 C1452 1.524 . S
C1453 C1454 1.415 . S
C1454 H1430 0.950 1_554 S
C1454 C1449 1.363 . S
C1454 C1453 1.415 . S
C1455 H1431 0.951 . S
C1455 C1456 1.366 . S
C1455 C1457 1.388 . S
C1456 C1455 1.366 . S
C1456 C1460 1.385 . S
C1457 H1432 0.951 . S
C1457 C1455 1.388 . S
C1457 C1458 1.366 . S
C1458 C1457 1.366 . S
C1458 C1459 1.414 . S
C1458 C1461 1.499 . S
C1459 H1433 0.950 . S
C1459 C1458 1.414 . S
C1459 C1460 1.374 . S
C1460 H1434 0.950 . S
C1460 C1456 1.385 . S
C1460 C1459 1.374 . S
C1461 C1458 1.499 . S
C1461 C1462 1.373 . S
C1461 C1463 1.389 . S
C1462 H1435 0.950 . S
C1462 C1448 1.377 . S
C1462 C1461 1.373 . S
C1463 C1447 1.377 . S
C1463 C1461 1.389 . S
C1463 C1464 1.524 . S
C1464 C1463 1.524 . S
C1464 C1465 1.397 . S
C1464 C1469 1.363 . S
C1465 H1436 0.950 . S
C1465 C1464 1.397 . S
C1465 C1466 1.334 . S
C1466 H1437 0.950 . S
C1466 C1465 1.334 . S
C1466 C1467 1.287 . S
C1467 C1466 1.287 . S
C1467 C1468 1.524 . S
C1467 H1470 0.999 . S
C1468 H1438 0.950 . S
C1468 C1467 1.524 . S
C1468 C1469 1.415 . S
C1469 H1439 0.950 . S
C1469 C1464 1.363 . S
C1469 C1468 1.415 . S
H1470 C1467 0.999 . S
H1471 C1452 0.913 . S
H1472 C1490 0.951 . S
H1473 C1492 0.951 . S
H1474 C1494 0.950 . S
H1475 C1495 0.950 . S
H1476 C1497 0.950 . S
H1477 C1500 0.950 . S
H1478 C1501 0.950 . S
H1479 C1503 0.950 . S
H1480 C1504 0.950 . S
H1481 C1505 0.951 . S
H1482 C1507 0.951 . S
H1483 C1509 0.950 . S
H1484 C1510 0.950 . S
H1485 C1512 0.950 . S
H1486 C1515 0.950 . S
H1487 C1516 0.950 . S
H1488 C1518 0.950 . S
H1489 C1519 0.950 . S
C1490 H1472 0.951 . S
C1490 C1491 1.366 . S
C1490 C1492 1.388 . S
C1491 C1490 1.366 . S
C1491 C1495 1.385 . S
C1492 H1473 0.951 . S
C1492 C1490 1.388 . S
C1492 C1493 1.366 . S
C1493 C1492 1.366 . S
C1493 C1494 1.414 . S
C1493 C1496 1.499 . S
C1494 H1474 0.950 . S
C1494 C1493 1.414 . S
C1494 C1495 1.374 . S
C1495 H1475 0.950 . S
C1495 C1491 1.385 . S
C1495 C1494 1.374 . S
C1496 C1493 1.499 . S
C1496 C1497 1.373 . S
C1496 C1498 1.389 . S
C1497 H1476 0.950 . S
C1497 C1496 1.373 . S
C1497 C1513 1.377 . S
C1498 C1496 1.389 . S
C1498 C1499 1.524 . S
C1498 C1512 1.377 . S
C1499 C1498 1.524 . S
C1499 C1500 1.397 . S
C1499 C1504 1.363 . S
C1500 H1477 0.950 . S
C1500 C1499 1.397 . S
C1500 C1501 1.334 . S
C1501 H1478 0.950 . S
C1501 C1500 1.334 . S
C1501 C1502 1.287 . S
C1502 C1501 1.287 . S
C1502 C1503 1.524 . S
C1502 H1521 0.913 . S
C1503 H1479 0.950 . S
C1503 C1502 1.524 . S
C1503 C1504 1.415 . S
C1504 H1480 0.950 . S
C1504 C1499 1.363 . S
C1504 C1503 1.415 . S
C1505 H1481 0.951 . S
C1505 C1506 1.366 . S
C1505 C1507 1.388 . S
C1506 C1505 1.366 . S
C1506 C1510 1.385 . S
C1507 H1482 0.951 . S
C1507 C1505 1.388 . S
C1507 C1508 1.366 . S
C1508 C1507 1.366 . S
C1508 C1509 1.414 . S
C1508 C1511 1.499 . S
C1509 H1483 0.950 . S
C1509 C1508 1.414 . S
C1509 C1510 1.374 . S
C1510 H1484 0.950 . S
C1510 C1506 1.385 . S
C1510 C1509 1.374 . S
C1511 C1508 1.499 . S
C1511 C1512 1.373 . S
C1511 C1513 1.389 . S
C1512 H1485 0.950 . S
C1512 C1498 1.377 . S
C1512 C1511 1.373 . S
C1513 C1497 1.377 . S
C1513 C1511 1.389 . S
C1513 C1514 1.524 . S
C1514 C1513 1.524 . S
C1514 C1515 1.397 . S
C1514 C1519 1.363 . S
C1515 H1486 0.950 . S
C1515 C1514 1.397 . S
C1515 C1516 1.334 . S
C1516 H1487 0.950 . S
C1516 C1515 1.334 . S
C1516 C1517 1.287 . S
C1517 C1516 1.287 . S
C1517 C1518 1.524 . S
C1517 H1520 0.999 . S
C1518 H1488 0.950 . S
C1518 C1517 1.524 . S
C1518 C1519 1.415 . S
C1519 H1489 0.950 . S
C1519 C1514 1.363 . S
C1519 C1518 1.415 . S
H1520 C1517 0.999 . S
H1521 C1502 0.913 . S
H1522 C1540 0.951 . S
H1523 C1542 0.951 . S
H1524 C1544 0.950 . S
H1525 C1545 0.950 . S
H1526 C1547 0.950 . S
H1527 C1550 0.950 . S
H1528 C1551 0.950 . S
H1529 C1553 0.950 . S
H1530 C1554 0.950 . S
H1531 C1555 0.951 . S
H1532 C1557 0.951 . S
H1533 C1559 0.950 . S
H1534 C1560 0.950 . S
H1535 C1562 0.950 . S
H1536 C1565 0.950 . S
H1537 C1566 0.950 . S
H1538 C1568 0.950 . S
H1539 C1569 0.950 . S
C1540 H1522 0.951 . S
C1540 C1541 1.366 . S
C1540 C1542 1.388 . S
C1541 C1540 1.366 . S
C1541 C1545 1.385 . S
C1542 H1523 0.951 . S
C1542 C1540 1.388 . S
C1542 C1543 1.366 . S
C1543 C1542 1.366 . S
C1543 C1544 1.414 . S
C1543 C1546 1.499 . S
C1544 H1524 0.950 . S
C1544 C1543 1.414 . S
C1544 C1545 1.374 . S
C1545 H1525 0.950 . S
C1545 C1541 1.385 . S
C1545 C1544 1.374 . S
C1546 C1543 1.499 . S
C1546 C1547 1.373 . S
C1546 C1548 1.389 . S
C1547 H1526 0.950 . S
C1547 C1546 1.373 . S
C1547 C1563 1.377 . S
C1548 C1546 1.389 . S
C1548 C1549 1.524 . S
C1548 C1562 1.377 . S
C1549 C1548 1.524 . S
C1549 C1550 1.397 . S
C1549 C1554 1.363 . S
C1550 H1527 0.950 . S
C1550 C1549 1.397 . S
C1550 C1551 1.334 . S
C1551 H1528 0.950 . S
C1551 C1550 1.334 . S
C1551 C1552 1.287 . S
C1552 C1551 1.287 . S
C1552 C1553 1.524 . S
C1552 H1571 0.913 . S
C1553 H1529 0.950 . S
C1553 C1552 1.524 . S
C1553 C1554 1.415 . S
C1554 H1530 0.950 . S
C1554 C1549 1.363 . S
C1554 C1553 1.415 . S
C1555 H1531 0.951 . S
C1555 C1556 1.366 . S
C1555 C1557 1.388 . S
C1556 C1555 1.366 . S
C1556 C1560 1.385 . S
C1557 H1532 0.951 . S
C1557 C1555 1.388 . S
C1557 C1558 1.366 . S
C1558 C1557 1.366 . S
C1558 C1559 1.414 . S
C1558 C1561 1.499 . S
C1559 H1533 0.950 . S
C1559 C1558 1.414 . S
C1559 C1560 1.374 . S
C1560 H1534 0.950 . S
C1560 C1556 1.385 . S
C1560 C1559 1.374 . S
C1561 C1558 1.499 . S
C1561 C1562 1.373 . S
C1561 C1563 1.389 . S
C1562 H1535 0.950 . S
C1562 C1548 1.377 . S
C1562 C1561 1.373 . S
C1563 C1547 1.377 . S
C1563 C1561 1.389 . S
C1563 C1564 1.524 . S
C1564 C1563 1.524 . S
C1564 C1565 1.397 . S
C1564 C1569 1.363 . S
C1565 H1536 0.950 . S
C1565 C1564 1.397 . S
C1565 C1566 1.334 . S
C1566 H1537 0.950 . S
C1566 C1565 1.334 . S
C1566 C1567 1.287 . S
C1567 C1566 1.287 . S
C1567 C1568 1.524 . S
C1567 H1570 0.999 . S
C1568 H1538 0.950 . S
C1568 C1567 1.524 . S
C1568 C1569 1.415 . S
C1569 H1539 0.950 . S
C1569 C1564 1.363 . S
C1569 C1568 1.415 . S
H1570 C1567 0.999 . S
H1571 C1552 0.913 . S
H1572 C1590 0.951 . S
H1573 C1592 0.951 . S
H1574 C1594 0.950 . S
H1575 C1595 0.950 . S
H1576 C1597 0.950 . S
H1577 C1600 0.950 . S
H1578 C1601 0.950 . S
H1579 C1603 0.950 . S
H1580 C1604 0.950 . S
H1581 C1605 0.951 . S
H1582 C1607 0.951 . S
H1583 C1609 0.950 . S
H1584 C1610 0.950 . S
H1585 C1612 0.950 . S
H1586 C1615 0.950 . S
H1587 C1616 0.950 . S
H1588 C1618 0.950 . S
H1589 C1619 0.950 . S
C1590 H1572 0.951 . S
C1590 C1591 1.366 . S
C1590 C1592 1.388 . S
C1591 C1590 1.366 . S
C1591 C1595 1.385 . S
C1592 H1573 0.951 . S
C1592 C1590 1.388 . S
C1592 C1593 1.366 . S
C1593 C1592 1.366 . S
C1593 C1594 1.414 . S
C1593 C1596 1.499 . S
C1594 H1574 0.950 . S
C1594 C1593 1.414 . S
C1594 C1595 1.374 . S
C1595 H1575 0.950 . S
C1595 C1591 1.385 . S
C1595 C1594 1.374 . S
C1596 C1593 1.499 . S
C1596 C1597 1.373 . S
C1596 C1598 1.389 . S
C1597 H1576 0.950 . S
C1597 C1596 1.373 . S
C1597 C1613 1.377 . S
C1598 C1596 1.389 . S
C1598 C1599 1.524 . S
C1598 C1612 1.377 . S
C1599 C1598 1.524 . S
C1599 C1600 1.397 . S
C1599 C1604 1.363 . S
C1600 H1577 0.950 . S
C1600 C1599 1.397 . S
C1600 C1601 1.334 . S
C1601 H1578 0.950 . S
C1601 C1600 1.334 . S
C1601 C1602 1.287 . S
C1602 C1601 1.287 . S
C1602 C1603 1.524 . S
C1602 H1621 0.913 . S
C1603 H1579 0.950 . S
C1603 C1602 1.524 . S
C1603 C1604 1.415 . S
C1604 H1580 0.950 . S
C1604 C1599 1.363 . S
C1604 C1603 1.415 . S
C1605 H1581 0.951 . S
C1605 C1606 1.366 . S
C1605 C1607 1.388 . S
C1606 C1605 1.366 . S
C1606 C1610 1.385 . S
C1607 H1582 0.951 . S
C1607 C1605 1.388 . S
C1607 C1608 1.366 . S
C1608 C1607 1.366 . S
C1608 C1609 1.414 . S
C1608 C1611 1.499 . S
C1609 H1583 0.950 . S
C1609 C1608 1.414 . S
C1609 C1610 1.374 . S
C1610 H1584 0.950 . S
C1610 C1606 1.385 . S
C1610 C1609 1.374 . S
C1611 C1608 1.499 . S
C1611 C1612 1.373 . S
C1611 C1613 1.389 . S
C1612 H1585 0.950 . S
C1612 C1598 1.377 . S
C1612 C1611 1.373 . S
C1613 C1597 1.377 . S
C1613 C1611 1.389 . S
C1613 C1614 1.524 . S
C1614 C1613 1.524 . S
C1614 C1615 1.397 . S
C1614 C1619 1.363 . S
C1615 H1586 0.950 . S
C1615 C1614 1.397 . S
C1615 C1616 1.334 . S
C1616 H1587 0.950 . S
C1616 C1615 1.334 . S
C1616 C1617 1.287 . S
C1617 C1616 1.287 . S
C1617 C1618 1.524 . S
C1617 H1620 0.999 . S
C1618 H1588 0.950 . S
C1618 C1617 1.524 . S
C1618 C1619 1.415 . S
C1619 H1589 0.950 . S
C1619 C1614 1.363 . S
C1619 C1618 1.415 . S
H1620 C1617 0.999 . S
H1621 C1602 0.913 . S
H1622 C1640 0.951 . S
H1623 C1642 0.951 . S
H1624 C1644 0.950 . S
H1625 C1645 0.950 . S
H1626 C1647 0.950 . S
H1627 C1650 0.950 . S
H1628 C1651 0.950 . S
H1629 C1653 0.950 . S
H1630 C1654 0.950 . S
H1631 C1655 0.951 . S
H1632 C1657 0.951 . S
H1633 C1659 0.950 . S
H1634 C1660 0.950 . S
H1635 C1662 0.950 . S
H1636 C1665 0.950 . S
H1637 C1666 0.950 . S
H1638 C1668 0.950 . S
H1639 C1669 0.950 . S
C1640 H1622 0.951 . S
C1640 C1641 1.366 . S
C1640 C1642 1.388 . S
C1641 C1640 1.366 . S
C1641 C1645 1.385 . S
C1642 H1623 0.951 . S
C1642 C1640 1.388 . S
C1642 C1643 1.366 . S
C1643 C1642 1.366 . S
C1643 C1644 1.414 . S
C1643 C1646 1.499 . S
C1644 H1624 0.950 . S
C1644 C1643 1.414 . S
C1644 C1645 1.374 . S
C1645 H1625 0.950 . S
C1645 C1641 1.385 . S
C1645 C1644 1.374 . S
C1646 C1643 1.499 . S
C1646 C1647 1.373 . S
C1646 C1648 1.389 . S
C1647 H1626 0.950 . S
C1647 C1646 1.373 . S
C1647 C1663 1.377 . S
C1648 C1646 1.389 . S
C1648 C1649 1.524 . S
C1648 C1662 1.377 . S
C1649 C1648 1.524 . S
C1649 C1650 1.397 . S
C1649 C1654 1.363 . S
C1650 H1627 0.950 . S
C1650 C1649 1.397 . S
C1650 C1651 1.334 . S
C1651 H1628 0.950 . S
C1651 C1650 1.334 . S
C1651 C1652 1.287 . S
C1652 C1651 1.287 . S
C1652 C1653 1.524 . S
C1652 H1671 0.913 . S
C1653 H1629 0.950 . S
C1653 C1652 1.524 . S
C1653 C1654 1.415 . S
C1654 H1630 0.950 . S
C1654 C1649 1.363 . S
C1654 C1653 1.415 . S
C1655 H1631 0.951 . S
C1655 C1656 1.366 . S
C1655 C1657 1.388 . S
C1656 C1655 1.366 . S
C1656 C1660 1.385 . S
C1657 H1632 0.951 . S
C1657 C1655 1.388 . S
C1657 C1658 1.366 . S
C1658 C1657 1.366 . S
C1658 C1659 1.414 . S
C1658 C1661 1.499 . S
C1659 H1633 0.950 . S
C1659 C1658 1.414 . S
C1659 C1660 1.374 . S
C1660 H1634 0.950 . S
C1660 C1656 1.385 . S
C1660 C1659 1.374 . S
C1661 C1658 1.499 . S
C1661 C1662 1.373 . S
C1661 C1663 1.389 . S
C1662 H1635 0.950 . S
C1662 C1648 1.377 . S
C1662 C1661 1.373 . S
C1663 C1647 1.377 . S
C1663 C1661 1.389 . S
C1663 C1664 1.524 . S
C1664 C1663 1.524 . S
C1664 C1665 1.397 . S
C1664 C1669 1.363 . S
C1665 H1636 0.950 . S
C1665 C1664 1.397 . S
C1665 C1666 1.334 . S
C1666 H1637 0.950 . S
C1666 C1665 1.334 . S
C1666 C1667 1.287 . S
C1667 C1666 1.287 . S
C1667 C1668 1.524 . S
C1667 H1670 0.999 . S
C1668 H1638 0.950 . S
C1668 C1667 1.524 . S
C1668 C1669 1.415 . S
C1669 H1639 0.950 . S
C1669 C1664 1.363 . S
C1669 C1668 1.415 . S
H1670 C1667 0.999 . S
H1671 C1652 0.913 . S
H1672 C1690 0.951 . S
H1673 C1692 0.951 . S
H1674 C1694 0.950 . S
H1675 C1695 0.950 . S
H1676 C1697 0.950 . S
H1677 C1700 0.950 . S
H1678 C1701 0.950 . S
H1679 C1703 0.950 . S
H1680 C1704 0.950 . S
H1681 C1705 0.951 . S
H1682 C1707 0.951 . S
H1683 C1709 0.950 . S
H1684 C1710 0.950 . S
H1685 C1712 0.950 . S
H1686 C1715 0.950 . S
H1687 C1716 0.950 . S
H1688 C1718 0.950 . S
H1689 C1719 0.950 1_565 S
C1690 H1672 0.951 . S
C1690 C1691 1.366 . S
C1690 C1692 1.388 . S
C1691 C1690 1.366 . S
C1691 C1695 1.385 . S
C1692 H1673 0.951 . S
C1692 C1690 1.388 . S
C1692 C1693 1.366 . S
C1693 C1692 1.366 . S
C1693 C1694 1.414 . S
C1693 C1696 1.499 . S
C1694 H1674 0.950 . S
C1694 C1693 1.414 . S
C1694 C1695 1.374 . S
C1695 H1675 0.950 . S
C1695 C1691 1.385 . S
C1695 C1694 1.374 . S
C1696 C1693 1.499 . S
C1696 C1697 1.373 . S
C1696 C1698 1.389 . S
C1697 H1676 0.950 . S
C1697 C1696 1.373 . S
C1697 C1713 1.377 . S
C1698 C1696 1.389 . S
C1698 C1699 1.524 . S
C1698 C1712 1.377 . S
C1699 C1698 1.524 . S
C1699 C1700 1.397 . S
C1699 C1704 1.363 . S
C1700 H1677 0.950 . S
C1700 C1699 1.397 . S
C1700 C1701 1.334 . S
C1701 H1678 0.950 . S
C1701 C1700 1.334 . S
C1701 C1702 1.287 . S
C1702 C1701 1.287 . S
C1702 C1703 1.524 . S
C1702 H1721 0.913 . S
C1703 H1679 0.950 . S
C1703 C1702 1.524 . S
C1703 C1704 1.415 . S
C1704 H1680 0.950 . S
C1704 C1699 1.363 . S
C1704 C1703 1.415 . S
C1705 H1681 0.951 . S
C1705 C1706 1.366 . S
C1705 C1707 1.388 . S
C1706 C1705 1.366 . S
C1706 C1710 1.385 . S
C1707 H1682 0.951 . S
C1707 C1705 1.388 . S
C1707 C1708 1.366 . S
C1708 C1707 1.366 . S
C1708 C1709 1.414 . S
C1708 C1711 1.499 1_545 S
C1709 H1683 0.950 . S
C1709 C1708 1.414 . S
C1709 C1710 1.374 . S
C1710 H1684 0.950 . S
C1710 C1706 1.385 . S
C1710 C1709 1.374 . S
C1711 C1708 1.499 1_565 S
C1711 C1712 1.373 . S
C1711 C1713 1.389 . S
C1712 H1685 0.950 . S
C1712 C1698 1.377 . S
C1712 C1711 1.373 . S
C1713 C1697 1.377 . S
C1713 C1711 1.389 . S
C1713 C1714 1.494 1_565 S
C1714 C1713 1.494 1_545 S
C1714 C1715 1.423 . S
C1714 C1719 1.365 . S
C1715 H1686 0.950 . S
C1715 C1714 1.423 . S
C1715 C1716 1.334 . S
C1716 H1687 0.950 . S
C1716 C1715 1.334 . S
C1716 C1717 1.287 . S
C1717 C1716 1.287 . S
C1717 C1718 1.524 . S
C1717 H1720 0.999 . S
C1718 H1688 0.950 . S
C1718 C1717 1.524 . S
C1718 C1719 1.415 . S
C1719 H1689 0.950 1_545 S
C1719 C1714 1.365 . S
C1719 C1718 1.415 . S
H1720 C1717 0.999 . S
H1721 C1702 0.913 . S
H1722 C1740 0.951 . S
H1723 C1742 0.951 . S
H1724 C1744 0.950 . S
H1725 C1745 0.950 . S
H1726 C1747 0.950 . S
H1727 C1750 0.950 . S
H1728 C1751 0.950 . S
H1729 C1753 0.950 . S
H1730 C1754 0.950 . S
H1731 C1755 0.951 . S
H1732 C1757 0.951 . S
H1733 C1759 0.950 . S
H1734 C1760 0.950 . S
H1735 C1762 0.950 . S
H1736 C1765 0.950 . S
H1737 C1766 0.950 . S
H1738 C1768 0.950 . S
H1739 C1769 0.950 . S
C1740 H1722 0.951 . S
C1740 C1741 1.366 . S
C1740 C1742 1.388 . S
C1741 C1740 1.366 . S
C1741 C1745 1.385 . S
C1742 H1723 0.951 . S
C1742 C1740 1.388 . S
C1742 C1743 1.366 . S
C1743 C1742 1.366 . S
C1743 C1744 1.414 . S
C1743 C1746 1.499 . S
C1744 H1724 0.950 . S
C1744 C1743 1.414 . S
C1744 C1745 1.374 . S
C1745 H1725 0.950 . S
C1745 C1741 1.385 . S
C1745 C1744 1.374 . S
C1746 C1743 1.499 . S
C1746 C1747 1.373 . S
C1746 C1748 1.389 . S
C1747 H1726 0.950 . S
C1747 C1746 1.373 . S
C1747 C1763 1.377 . S
C1748 C1746 1.389 . S
C1748 C1749 1.524 . S
C1748 C1762 1.377 . S
C1749 C1748 1.524 . S
C1749 C1750 1.397 . S
C1749 C1754 1.363 . S
C1750 H1727 0.950 . S
C1750 C1749 1.397 . S
C1750 C1751 1.334 . S
C1751 H1728 0.950 . S
C1751 C1750 1.334 . S
C1751 C1752 1.287 . S
C1752 C1751 1.287 . S
C1752 C1753 1.524 . S
C1752 H1771 0.913 . S
C1753 H1729 0.950 . S
C1753 C1752 1.524 . S
C1753 C1754 1.415 . S
C1754 H1730 0.950 . S
C1754 C1749 1.363 . S
C1754 C1753 1.415 . S
C1755 H1731 0.951 . S
C1755 C1756 1.366 . S
C1755 C1757 1.388 . S
C1756 C1755 1.366 . S
C1756 C1760 1.385 . S
C1757 H1732 0.951 . S
C1757 C1755 1.388 . S
C1757 C1758 1.366 . S
C1758 C1757 1.366 . S
C1758 C1759 1.414 . S
C1758 C1761 1.499 . S
C1759 H1733 0.950 . S
C1759 C1758 1.414 . S
C1759 C1760 1.374 . S
C1760 H1734 0.950 . S
C1760 C1756 1.385 . S
C1760 C1759 1.374 . S
C1761 C1758 1.499 . S
C1761 C1762 1.373 . S
C1761 C1763 1.389 . S
C1762 H1735 0.950 . S
C1762 C1748 1.377 . S
C1762 C1761 1.373 . S
C1763 C1747 1.377 . S
C1763 C1761 1.389 . S
C1763 C1764 1.524 . S
C1764 C1763 1.524 . S
C1764 C1765 1.397 . S
C1764 C1769 1.363 . S
C1765 H1736 0.950 . S
C1765 C1764 1.397 . S
C1765 C1766 1.334 . S
C1766 H1737 0.950 . S
C1766 C1765 1.334 . S
C1766 C1767 1.287 . S
C1767 C1766 1.287 . S
C1767 C1768 1.524 . S
C1767 H1770 0.999 . S
C1768 H1738 0.950 . S
C1768 C1767 1.524 . S
C1768 C1769 1.415 . S
C1769 H1739 0.950 . S
C1769 C1764 1.363 . S
C1769 C1768 1.415 . S
H1770 C1767 0.999 . S
H1771 C1752 0.913 . S
H1772 C1790 0.951 . S
H1773 C1792 0.951 . S
H1774 C1794 0.950 . S
H1775 C1795 0.950 . S
H1776 C1797 0.950 . S
H1777 C1800 0.950 . S
H1778 C1801 0.950 . S
H1779 C1803 0.950 . S
H1780 C1804 0.950 . S
H1781 C1805 0.951 . S
H1782 C1807 0.951 . S
H1783 C1809 0.950 . S
H1784 C1810 0.950 . S
H1785 C1812 0.950 . S
H1786 C1815 0.950 . S
H1787 C1816 0.950 . S
H1788 C1818 0.950 . S
H1789 C1819 0.950 . S
C1790 H1772 0.951 . S
C1790 C1791 1.366 . S
C1790 C1792 1.388 . S
C1791 C1790 1.366 . S
C1791 C1795 1.385 . S
C1792 H1773 0.951 . S
C1792 C1790 1.388 . S
C1792 C1793 1.366 . S
C1793 C1792 1.366 . S
C1793 C1794 1.414 . S
C1793 C1796 1.499 . S
C1794 H1774 0.950 . S
C1794 C1793 1.414 . S
C1794 C1795 1.374 . S
C1795 H1775 0.950 . S
C1795 C1791 1.385 . S
C1795 C1794 1.374 . S
C1796 C1793 1.499 . S
C1796 C1797 1.373 . S
C1796 C1798 1.389 . S
C1797 H1776 0.950 . S
C1797 C1796 1.373 . S
C1797 C1813 1.377 . S
C1798 C1796 1.389 . S
C1798 C1799 1.524 . S
C1798 C1812 1.377 . S
C1799 C1798 1.524 . S
C1799 C1800 1.397 . S
C1799 C1804 1.363 . S
C1800 H1777 0.950 . S
C1800 C1799 1.397 . S
C1800 C1801 1.334 . S
C1801 H1778 0.950 . S
C1801 C1800 1.334 . S
C1801 C1802 1.287 . S
C1802 C1801 1.287 . S
C1802 C1803 1.524 . S
C1802 H1821 0.913 . S
C1803 H1779 0.950 . S
C1803 C1802 1.524 . S
C1803 C1804 1.415 . S
C1804 H1780 0.950 . S
C1804 C1799 1.363 . S
C1804 C1803 1.415 . S
C1805 H1781 0.951 . S
C1805 C1806 1.366 . S
C1805 C1807 1.388 . S
C1806 C1805 1.366 . S
C1806 C1810 1.385 . S
C1807 H1782 0.951 . S
C1807 C1805 1.388 . S
C1807 C1808 1.366 . S
C1808 C1807 1.366 . S
C1808 C1809 1.414 . S
C1808 C1811 1.499 . S
C1809 H1783 0.950 . S
C1809 C1808 1.414 . S
C1809 C1810 1.374 . S
C1810 H1784 0.950 . S
C1810 C1806 1.385 . S
C1810 C1809 1.374 . S
C1811 C1808 1.499 . S
C1811 C1812 1.373 . S
C1811 C1813 1.389 . S
C1812 H1785 0.950 . S
C1812 C1798 1.377 . S
C1812 C1811 1.373 . S
C1813 C1797 1.377 . S
C1813 C1811 1.389 . S
C1813 C1814 1.524 . S
C1814 C1813 1.524 . S
C1814 C1815 1.397 . S
C1814 C1819 1.363 . S
C1815 H1786 0.950 . S
C1815 C1814 1.397 . S
C1815 C1816 1.334 . S
C1816 H1787 0.950 . S
C1816 C1815 1.334 . S
C1816 C1817 1.287 . S
C1817 C1816 1.287 . S
C1817 C1818 1.524 . S
C1817 H1820 0.999 . S
C1818 H1788 0.950 . S
C1818 C1817 1.524 . S
C1818 C1819 1.415 . S
C1819 H1789 0.950 . S
C1819 C1814 1.363 . S
C1819 C1818 1.415 . S
H1820 C1817 0.999 . S
H1821 C1802 0.913 . S
H1822 C1840 0.951 . S
H1823 C1842 0.951 . S
H1824 C1844 0.950 . S
H1825 C1845 0.950 . S
H1826 C1847 0.950 . S
H1827 C1850 0.950 . S
H1828 C1851 0.950 . S
H1829 C1853 0.950 . S
H1830 C1854 0.950 . S
H1831 C1855 0.951 . S
H1832 C1857 0.951 . S
H1833 C1859 0.950 . S
H1834 C1860 0.950 . S
H1835 C1862 0.950 . S
H1836 C1865 0.950 . S
H1837 C1866 0.950 . S
H1838 C1868 0.950 . S
H1839 C1869 0.950 . S
C1840 H1822 0.951 . S
C1840 C1841 1.366 . S
C1840 C1842 1.388 . S
C1841 C1840 1.366 . S
C1841 C1845 1.385 . S
C1842 H1823 0.951 . S
C1842 C1840 1.388 . S
C1842 C1843 1.366 . S
C1843 C1842 1.366 . S
C1843 C1844 1.414 . S
C1843 C1846 1.499 . S
C1844 H1824 0.950 . S
C1844 C1843 1.414 . S
C1844 C1845 1.374 . S
C1845 H1825 0.950 . S
C1845 C1841 1.385 . S
C1845 C1844 1.374 . S
C1846 C1843 1.499 . S
C1846 C1847 1.373 . S
C1846 C1848 1.389 . S
C1847 H1826 0.950 . S
C1847 C1846 1.373 . S
C1847 C1863 1.377 . S
C1848 C1846 1.389 . S
C1848 C1849 1.524 . S
C1848 C1862 1.377 . S
C1849 C1848 1.524 . S
C1849 C1850 1.397 . S
C1849 C1854 1.363 . S
C1850 H1827 0.950 . S
C1850 C1849 1.397 . S
C1850 C1851 1.334 . S
C1851 H1828 0.950 . S
C1851 C1850 1.334 . S
C1851 C1852 1.287 . S
C1852 C1851 1.287 . S
C1852 C1853 1.524 . S
C1852 H1871 0.913 . S
C1853 H1829 0.950 . S
C1853 C1852 1.524 . S
C1853 C1854 1.415 . S
C1854 H1830 0.950 . S
C1854 C1849 1.363 . S
C1854 C1853 1.415 . S
C1855 H1831 0.951 . S
C1855 C1856 1.366 . S
C1855 C1857 1.388 . S
C1856 C1855 1.366 . S
C1856 C1860 1.385 . S
C1857 H1832 0.951 . S
C1857 C1855 1.388 . S
C1857 C1858 1.366 . S
C1858 C1857 1.366 . S
C1858 C1859 1.414 . S
C1858 C1861 1.499 . S
C1859 H1833 0.950 . S
C1859 C1858 1.414 . S
C1859 C1860 1.374 . S
C1860 H1834 0.950 . S
C1860 C1856 1.385 . S
C1860 C1859 1.374 . S
C1861 C1858 1.499 . S
C1861 C1862 1.373 . S
C1861 C1863 1.389 . S
C1862 H1835 0.950 . S
C1862 C1848 1.377 . S
C1862 C1861 1.373 . S
C1863 C1847 1.377 . S
C1863 C1861 1.389 . S
C1863 C1864 1.524 . S
C1864 C1863 1.524 . S
C1864 C1865 1.397 . S
C1864 C1869 1.363 . S
C1865 H1836 0.950 . S
C1865 C1864 1.397 . S
C1865 C1866 1.334 . S
C1866 H1837 0.950 . S
C1866 C1865 1.334 . S
C1866 C1867 1.287 . S
C1867 C1866 1.287 . S
C1867 C1868 1.524 . S
C1867 H1870 0.999 . S
C1868 H1838 0.950 . S
C1868 C1867 1.524 . S
C1868 C1869 1.415 . S
C1869 H1839 0.950 . S
C1869 C1864 1.363 . S
C1869 C1868 1.415 . S
H1870 C1867 0.999 . S
H1871 C1852 0.913 . S
H1872 C1890 0.951 . S
H1873 C1892 0.951 . S
H1874 C1894 0.950 . S
H1875 C1895 0.950 . S
H1876 C1897 0.950 . S
H1877 C1900 0.950 . S
H1878 C1901 0.950 . S
H1879 C1903 0.950 . S
H1880 C1904 0.950 . S
H1881 C1905 0.951 . S
H1882 C1907 0.951 . S
H1883 C1909 0.950 . S
H1884 C1910 0.950 . S
H1885 C1912 0.950 . S
H1886 C1915 0.950 . S
H1887 C1916 0.950 . S
H1888 C1918 0.950 . S
H1889 C1919 0.950 . S
C1890 H1872 0.951 . S
C1890 C1891 1.366 . S
C1890 C1892 1.388 . S
C1891 C1890 1.366 . S
C1891 C1895 1.385 . S
C1892 H1873 0.951 . S
C1892 C1890 1.388 . S
C1892 C1893 1.366 . S
C1893 C1892 1.366 . S
C1893 C1894 1.414 . S
C1893 C1896 1.499 . S
C1894 H1874 0.950 . S
C1894 C1893 1.414 . S
C1894 C1895 1.374 . S
C1895 H1875 0.950 . S
C1895 C1891 1.385 . S
C1895 C1894 1.374 . S
C1896 C1893 1.499 . S
C1896 C1897 1.373 . S
C1896 C1898 1.389 . S
C1897 H1876 0.950 . S
C1897 C1896 1.373 . S
C1897 C1913 1.377 . S
C1898 C1896 1.389 . S
C1898 C1899 1.524 . S
C1898 C1912 1.377 . S
C1899 C1898 1.524 . S
C1899 C1900 1.397 . S
C1899 C1904 1.363 . S
C1900 H1877 0.950 . S
C1900 C1899 1.397 . S
C1900 C1901 1.334 . S
C1901 H1878 0.950 . S
C1901 C1900 1.334 . S
C1901 C1902 1.287 . S
C1902 C1901 1.287 . S
C1902 C1903 1.524 . S
C1902 H1921 0.913 . S
C1903 H1879 0.950 . S
C1903 C1902 1.524 . S
C1903 C1904 1.415 . S
C1904 H1880 0.950 . S
C1904 C1899 1.363 . S
C1904 C1903 1.415 . S
C1905 H1881 0.951 . S
C1905 C1906 1.366 . S
C1905 C1907 1.388 . S
C1906 C1905 1.366 . S
C1906 C1910 1.385 . S
C1907 H1882 0.951 . S
C1907 C1905 1.388 . S
C1907 C1908 1.366 . S
C1908 C1907 1.366 . S
C1908 C1909 1.414 . S
C1908 C1911 1.499 . S
C1909 H1883 0.950 . S
C1909 C1908 1.414 . S
C1909 C1910 1.374 . S
C1910 H1884 0.950 . S
C1910 C1906 1.385 . S
C1910 C1909 1.374 . S
C1911 C1908 1.499 . S
C1911 C1912 1.373 . S
C1911 C1913 1.389 . S
C1912 H1885 0.950 . S
C1912 C1898 1.377 . S
C1912 C1911 1.373 . S
C1913 C1897 1.377 . S
C1913 C1911 1.389 . S
C1913 C1914 1.524 . S
C1914 C1913 1.524 . S
C1914 C1915 1.397 . S
C1914 C1919 1.363 . S
C1915 H1886 0.950 . S
C1915 C1914 1.397 . S
C1915 C1916 1.334 . S
C1916 H1887 0.950 . S
C1916 C1915 1.334 . S
C1916 C1917 1.287 . S
C1917 C1916 1.287 . S
C1917 C1918 1.524 . S
C1917 H1920 0.999 . S
C1918 H1888 0.950 . S
C1918 C1917 1.524 . S
C1918 C1919 1.415 . S
C1919 H1889 0.950 . S
C1919 C1914 1.363 . S
C1919 C1918 1.415 . S
H1920 C1917 0.999 . S
H1921 C1902 0.913 . S
H1922 C1940 0.951 . S
H1923 C1942 0.951 . S
H1924 C1944 0.950 . S
H1925 C1945 0.950 . S
H1926 C1947 0.950 1_655 S
H1927 C1950 0.950 . S
H1928 C1951 0.950 . S
H1929 C1953 0.950 . S
H1930 C1954 0.950 . S
H1931 C1955 0.951 . S
H1932 C1957 0.951 . S
H1933 C1959 0.950 . S
H1934 C1960 0.950 . S
H1935 C1962 0.950 . S
H1936 C1965 0.950 . S
H1937 C1966 0.950 . S
H1938 C1968 0.950 . S
H1939 C1969 0.950 . S
C1940 H1922 0.951 . S
C1940 C1941 1.366 . S
C1940 C1942 1.388 . S
C1941 C1940 1.366 . S
C1941 C1945 1.385 . S
C1942 H1923 0.951 . S
C1942 C1940 1.388 . S
C1942 C1943 1.366 . S
C1943 C1942 1.366 . S
C1943 C1944 1.414 . S
C1943 C1946 1.499 . S
C1944 H1924 0.950 . S
C1944 C1943 1.414 . S
C1944 C1945 1.374 . S
C1945 H1925 0.950 . S
C1945 C1941 1.385 . S
C1945 C1944 1.374 . S
C1946 C1943 1.499 . S
C1946 C1947 1.373 1_655 S
C1946 C1948 1.389 1_655 S
C1947 H1926 0.950 1_455 S
C1947 C1946 1.373 1_455 S
C1947 C1963 1.377 . S
C1948 C1946 1.389 1_455 S
C1948 C1949 1.524 . S
C1948 C1962 1.377 . S
C1949 C1948 1.524 . S
C1949 C1950 1.397 1_455 S
C1949 C1954 1.363 . S
C1950 H1927 0.950 . S
C1950 C1949 1.397 1_655 S
C1950 C1951 1.334 . S
C1951 H1928 0.950 . S
C1951 C1950 1.334 . S
C1951 C1952 1.287 . S
C1952 C1951 1.287 . S
C1952 C1953 1.524 1_655 S
C1952 H1971 0.913 . S
C1953 H1929 0.950 . S
C1953 C1952 1.524 1_455 S
C1953 C1954 1.415 . S
C1954 H1930 0.950 . S
C1954 C1949 1.363 . S
C1954 C1953 1.415 . S
C1955 H1931 0.951 . S
C1955 C1956 1.366 . S
C1955 C1957 1.388 . S
C1956 C1955 1.366 . S
C1956 C1960 1.385 . S
C1957 H1932 0.951 . S
C1957 C1955 1.388 . S
C1957 C1958 1.366 . S
C1958 C1957 1.366 . S
C1958 C1959 1.414 . S
C1958 C1961 1.499 . S
C1959 H1933 0.950 . S
C1959 C1958 1.414 . S
C1959 C1960 1.374 . S
C1960 H1934 0.950 . S
C1960 C1956 1.385 . S
C1960 C1959 1.374 . S
C1961 C1958 1.499 . S
C1961 C1962 1.373 . S
C1961 C1963 1.389 . S
C1962 H1935 0.950 . S
C1962 C1948 1.377 . S
C1962 C1961 1.373 . S
C1963 C1947 1.377 . S
C1963 C1961 1.389 . S
C1963 C1964 1.524 . S
C1964 C1963 1.524 . S
C1964 C1965 1.397 . S
C1964 C1969 1.363 . S
C1965 H1936 0.950 . S
C1965 C1964 1.397 . S
C1965 C1966 1.334 . S
C1966 H1937 0.950 . S
C1966 C1965 1.334 . S
C1966 C1967 1.287 . S
C1967 C1966 1.287 . S
C1967 C1968 1.524 . S
C1967 H1970 0.999 . S
C1968 H1938 0.950 . S
C1968 C1967 1.524 . S
C1968 C1969 1.415 . S
C1969 H1939 0.950 . S
C1969 C1964 1.363 . S
C1969 C1968 1.415 . S
H1970 C1967 0.999 . S
H1971 C1952 0.913 . S
H1972 C1990 0.951 . S
H1973 C1992 0.951 . S
H1974 C1994 0.950 . S
H1975 C1995 0.950 . S
H1976 C1997 0.950 . S
H1977 C2000 0.950 . S
H1978 C2001 0.950 . S
H1979 C2003 0.950 . S
H1980 C2004 0.950 . S
H1981 C2005 0.951 . S
H1982 C2007 0.951 . S
H1983 C2009 0.950 . S
H1984 C2010 0.950 . S
H1985 C2012 0.950 . S
H1986 C2015 0.950 . S
H1987 C2016 0.950 . S
H1988 C2018 0.950 . S
H1989 C2019 0.950 . S
C1990 H1972 0.951 . S
C1990 C1991 1.366 . S
C1990 C1992 1.388 . S
C1991 C1990 1.366 . S
C1991 C1995 1.385 . S
C1992 H1973 0.951 . S
C1992 C1990 1.388 . S
C1992 C1993 1.366 . S
C1993 C1992 1.366 . S
C1993 C1994 1.414 . S
C1993 C1996 1.499 . S
C1994 H1974 0.950 . S
C1994 C1993 1.414 . S
C1994 C1995 1.374 . S
C1995 H1975 0.950 . S
C1995 C1991 1.385 . S
C1995 C1994 1.374 . S
C1996 C1993 1.499 . S
C1996 C1997 1.373 . S
C1996 C1998 1.389 . S
C1997 H1976 0.950 . S
C1997 C1996 1.373 . S
C1997 C2013 1.377 . S
C1998 C1996 1.389 . S
C1998 C1999 1.524 . S
C1998 C2012 1.377 . S
C1999 C1998 1.524 . S
C1999 C2000 1.397 . S
C1999 C2004 1.363 . S
C2000 H1977 0.950 . S
C2000 C1999 1.397 . S
C2000 C2001 1.334 . S
C2001 H1978 0.950 . S
C2001 C2000 1.334 . S
C2001 C2002 1.287 . S
C2002 C2001 1.287 . S
C2002 C2003 1.524 . S
C2002 H2021 0.913 . S
C2003 H1979 0.950 . S
C2003 C2002 1.524 . S
C2003 C2004 1.415 . S
C2004 H1980 0.950 . S
C2004 C1999 1.363 . S
C2004 C2003 1.415 . S
C2005 H1981 0.951 . S
C2005 C2006 1.366 . S
C2005 C2007 1.388 . S
C2006 C2005 1.366 . S
C2006 C2010 1.385 . S
C2007 H1982 0.951 . S
C2007 C2005 1.388 . S
C2007 C2008 1.366 . S
C2008 C2007 1.366 . S
C2008 C2009 1.414 . S
C2008 C2011 1.499 . S
C2009 H1983 0.950 . S
C2009 C2008 1.414 . S
C2009 C2010 1.374 . S
C2010 H1984 0.950 . S
C2010 C2006 1.385 . S
C2010 C2009 1.374 . S
C2011 C2008 1.499 . S
C2011 C2012 1.373 . S
C2011 C2013 1.389 . S
C2012 H1985 0.950 . S
C2012 C1998 1.377 . S
C2012 C2011 1.373 . S
C2013 C1997 1.377 . S
C2013 C2011 1.389 . S
C2013 C2014 1.524 . S
C2014 C2013 1.524 . S
C2014 C2015 1.397 . S
C2014 C2019 1.363 . S
C2015 H1986 0.950 . S
C2015 C2014 1.397 . S
C2015 C2016 1.334 . S
C2016 H1987 0.950 . S
C2016 C2015 1.334 . S
C2016 C2017 1.287 . S
C2017 C2016 1.287 . S
C2017 C2018 1.524 . S
C2017 H2020 0.999 . S
C2018 H1988 0.950 . S
C2018 C2017 1.524 . S
C2018 C2019 1.415 . S
C2019 H1989 0.950 . S
C2019 C2014 1.363 . S
C2019 C2018 1.415 . S
H2020 C2017 0.999 . S
H2021 C2002 0.913 . S
H2022 C2040 0.951 . S
H2023 C2042 0.951 . S
H2024 C2044 0.950 . S
H2025 C2045 0.950 . S
H2026 C2047 0.950 . S
H2027 C2050 0.950 . S
H2028 C2051 0.950 . S
H2029 C2053 0.950 . S
H2030 C2054 0.950 . S
H2031 C2055 0.951 . S
H2032 C2057 0.951 . S
H2033 C2059 0.950 . S
H2034 C2060 0.950 . S
H2035 C2062 0.950 . S
H2036 C2065 0.950 . S
H2037 C2066 0.950 . S
H2038 C2068 0.950 . S
H2039 C2069 0.950 . S
C2040 H2022 0.951 . S
C2040 C2041 1.366 . S
C2040 C2042 1.388 . S
C2041 C2040 1.366 . S
C2041 C2045 1.385 . S
C2042 H2023 0.951 . S
C2042 C2040 1.388 . S
C2042 C2043 1.366 . S
C2043 C2042 1.366 . S
C2043 C2044 1.414 . S
C2043 C2046 1.499 . S
C2044 H2024 0.950 . S
C2044 C2043 1.414 . S
C2044 C2045 1.374 . S
C2045 H2025 0.950 . S
C2045 C2041 1.385 . S
C2045 C2044 1.374 . S
C2046 C2043 1.499 . S
C2046 C2047 1.373 . S
C2046 C2048 1.389 . S
C2047 H2026 0.950 . S
C2047 C2046 1.373 . S
C2047 C2063 1.377 . S
C2048 C2046 1.389 . S
C2048 C2049 1.524 . S
C2048 C2062 1.377 . S
C2049 C2048 1.524 . S
C2049 C2050 1.397 . S
C2049 C2054 1.363 . S
C2050 H2027 0.950 . S
C2050 C2049 1.397 . S
C2050 C2051 1.334 . S
C2051 H2028 0.950 . S
C2051 C2050 1.334 . S
C2051 C2052 1.287 . S
C2052 C2051 1.287 . S
C2052 C2053 1.524 . S
C2052 H2071 0.913 . S
C2053 H2029 0.950 . S
C2053 C2052 1.524 . S
C2053 C2054 1.415 . S
C2054 H2030 0.950 . S
C2054 C2049 1.363 . S
C2054 C2053 1.415 . S
C2055 H2031 0.951 . S
C2055 C2056 1.366 . S
C2055 C2057 1.388 . S
C2056 C2055 1.366 . S
C2056 C2060 1.385 . S
C2057 H2032 0.951 . S
C2057 C2055 1.388 . S
C2057 C2058 1.366 . S
C2058 C2057 1.366 . S
C2058 C2059 1.414 . S
C2058 C2061 1.499 . S
C2059 H2033 0.950 . S
C2059 C2058 1.414 . S
C2059 C2060 1.374 . S
C2060 H2034 0.950 . S
C2060 C2056 1.385 . S
C2060 C2059 1.374 . S
C2061 C2058 1.499 . S
C2061 C2062 1.373 . S
C2061 C2063 1.389 . S
C2062 H2035 0.950 . S
C2062 C2048 1.377 . S
C2062 C2061 1.373 . S
C2063 C2047 1.377 . S
C2063 C2061 1.389 . S
C2063 C2064 1.524 . S
C2064 C2063 1.524 . S
C2064 C2065 1.397 . S
C2064 C2069 1.363 . S
C2065 H2036 0.950 . S
C2065 C2064 1.397 . S
C2065 C2066 1.334 . S
C2066 H2037 0.950 . S
C2066 C2065 1.334 . S
C2066 C2067 1.287 . S
C2067 C2066 1.287 . S
C2067 C2068 1.524 . S
C2067 H2070 0.999 . S
C2068 H2038 0.950 . S
C2068 C2067 1.524 . S
C2068 C2069 1.415 . S
C2069 H2039 0.950 . S
C2069 C2064 1.363 . S
C2069 C2068 1.415 . S
H2070 C2067 0.999 . S
H2071 C2052 0.913 . S
H2072 C2090 0.951 . S
H2073 C2092 0.951 . S
H2074 C2094 0.950 . S
H2075 C2095 0.950 . S
H2076 C2097 0.950 . S
H2077 C2100 0.950 . S
H2078 C2101 0.950 . S
H2079 C2103 0.950 . S
H2080 C2104 0.950 . S
H2081 C2105 0.951 . S
H2082 C2107 0.951 . S
H2083 C2109 0.950 . S
H2084 C2110 0.950 . S
H2085 C2112 0.950 . S
H2086 C2115 0.950 . S
H2087 C2116 0.950 . S
H2088 C2118 0.950 . S
H2089 C2119 0.950 . S
C2090 H2072 0.951 . S
C2090 C2091 1.366 . S
C2090 C2092 1.388 . S
C2091 C2090 1.366 . S
C2091 C2095 1.385 . S
C2092 H2073 0.951 . S
C2092 C2090 1.388 . S
C2092 C2093 1.366 . S
C2093 C2092 1.366 . S
C2093 C2094 1.414 . S
C2093 C2096 1.499 . S
C2094 H2074 0.950 . S
C2094 C2093 1.414 . S
C2094 C2095 1.374 . S
C2095 H2075 0.950 . S
C2095 C2091 1.385 . S
C2095 C2094 1.374 . S
C2096 C2093 1.499 . S
C2096 C2097 1.373 . S
C2096 C2098 1.389 . S
C2097 H2076 0.950 . S
C2097 C2096 1.373 . S
C2097 C2113 1.377 . S
C2098 C2096 1.389 . S
C2098 C2099 1.524 . S
C2098 C2112 1.377 . S
C2099 C2098 1.524 . S
C2099 C2100 1.397 . S
C2099 C2104 1.363 . S
C2100 H2077 0.950 . S
C2100 C2099 1.397 . S
C2100 C2101 1.334 . S
C2101 H2078 0.950 . S
C2101 C2100 1.334 . S
C2101 C2102 1.287 . S
C2102 C2101 1.287 . S
C2102 C2103 1.524 . S
C2102 H2121 0.913 . S
C2103 H2079 0.950 . S
C2103 C2102 1.524 . S
C2103 C2104 1.415 . S
C2104 H2080 0.950 . S
C2104 C2099 1.363 . S
C2104 C2103 1.415 . S
C2105 H2081 0.951 . S
C2105 C2106 1.366 . S
C2105 C2107 1.388 . S
C2106 C2105 1.366 . S
C2106 C2110 1.385 . S
C2107 H2082 0.951 . S
C2107 C2105 1.388 . S
C2107 C2108 1.366 . S
C2108 C2107 1.366 . S
C2108 C2109 1.414 . S
C2108 C2111 1.499 . S
C2109 H2083 0.950 . S
C2109 C2108 1.414 . S
C2109 C2110 1.374 . S
C2110 H2084 0.950 . S
C2110 C2106 1.385 . S
C2110 C2109 1.374 . S
C2111 C2108 1.499 . S
C2111 C2112 1.373 . S
C2111 C2113 1.389 . S
C2112 H2085 0.950 . S
C2112 C2098 1.377 . S
C2112 C2111 1.373 . S
C2113 C2097 1.377 . S
C2113 C2111 1.389 . S
C2113 C2114 1.524 . S
C2114 C2113 1.524 . S
C2114 C2115 1.397 . S
C2114 C2119 1.363 . S
C2115 H2086 0.950 . S
C2115 C2114 1.397 . S
C2115 C2116 1.334 . S
C2116 H2087 0.950 . S
C2116 C2115 1.334 . S
C2116 C2117 1.287 . S
C2117 C2116 1.287 . S
C2117 C2118 1.524 . S
C2117 H2120 0.999 . S
C2118 H2088 0.950 . S
C2118 C2117 1.524 . S
C2118 C2119 1.415 . S
C2119 H2089 0.950 . S
C2119 C2114 1.363 . S
C2119 C2118 1.415 . S
H2120 C2117 0.999 . S
H2121 C2102 0.913 . S
H2122 C2140 0.951 . S
H2123 C2142 0.951 . S
H2124 C2144 0.950 . S
H2125 C2145 0.950 . S
H2126 C2147 0.950 . S
H2127 C2150 0.950 . S
H2128 C2151 0.950 . S
H2129 C2153 0.950 . S
H2130 C2154 0.950 . S
H2131 C2155 0.951 . S
H2132 C2157 0.951 . S
H2133 C2159 0.950 . S
H2134 C2160 0.950 . S
H2135 C2162 0.950 . S
H2136 C2165 0.950 . S
H2137 C2166 0.950 . S
H2138 C2168 0.950 . S
H2139 C2169 0.950 . S
C2140 H2122 0.951 . S
C2140 C2141 1.366 . S
C2140 C2142 1.388 . S
C2141 C2140 1.366 . S
C2141 C2145 1.385 . S
C2142 H2123 0.951 . S
C2142 C2140 1.388 . S
C2142 C2143 1.366 . S
C2143 C2142 1.366 . S
C2143 C2144 1.414 . S
C2143 C2146 1.499 . S
C2144 H2124 0.950 . S
C2144 C2143 1.414 . S
C2144 C2145 1.374 . S
C2145 H2125 0.950 . S
C2145 C2141 1.385 . S
C2145 C2144 1.374 . S
C2146 C2143 1.499 . S
C2146 C2147 1.373 . S
C2146 C2148 1.389 . S
C2147 H2126 0.950 . S
C2147 C2146 1.373 . S
C2147 C2163 1.377 . S
C2148 C2146 1.389 . S
C2148 C2149 1.524 . S
C2148 C2162 1.377 . S
C2149 C2148 1.524 . S
C2149 C2150 1.397 . S
C2149 C2154 1.363 . S
C2150 H2127 0.950 . S
C2150 C2149 1.397 . S
C2150 C2151 1.334 . S
C2151 H2128 0.950 . S
C2151 C2150 1.334 . S
C2151 C2152 1.287 . S
C2152 C2151 1.287 . S
C2152 C2153 1.524 . S
C2152 H2171 0.913 . S
C2153 H2129 0.950 . S
C2153 C2152 1.524 . S
C2153 C2154 1.415 . S
C2154 H2130 0.950 . S
C2154 C2149 1.363 . S
C2154 C2153 1.415 . S
C2155 H2131 0.951 . S
C2155 C2156 1.366 . S
C2155 C2157 1.388 . S
C2156 C2155 1.366 . S
C2156 C2160 1.385 . S
C2157 H2132 0.951 . S
C2157 C2155 1.388 . S
C2157 C2158 1.366 . S
C2158 C2157 1.366 . S
C2158 C2159 1.414 . S
C2158 C2161 1.499 . S
C2159 H2133 0.950 . S
C2159 C2158 1.414 . S
C2159 C2160 1.374 . S
C2160 H2134 0.950 . S
C2160 C2156 1.385 . S
C2160 C2159 1.374 . S
C2161 C2158 1.499 . S
C2161 C2162 1.373 . S
C2161 C2163 1.389 . S
C2162 H2135 0.950 . S
C2162 C2148 1.377 . S
C2162 C2161 1.373 . S
C2163 C2147 1.377 . S
C2163 C2161 1.389 . S
C2163 C2164 1.524 . S
C2164 C2163 1.524 . S
C2164 C2165 1.397 . S
C2164 C2169 1.363 . S
C2165 H2136 0.950 . S
C2165 C2164 1.397 . S
C2165 C2166 1.334 . S
C2166 H2137 0.950 . S
C2166 C2165 1.334 . S
C2166 C2167 1.287 . S
C2167 C2166 1.287 . S
C2167 C2168 1.524 . S
C2167 H2170 0.999 . S
C2168 H2138 0.950 . S
C2168 C2167 1.524 . S
C2168 C2169 1.415 . S
C2169 H2139 0.950 . S
C2169 C2164 1.363 . S
C2169 C2168 1.415 . S
H2170 C2167 0.999 . S
H2171 C2152 0.913 . S
H2172 C2190 0.951 . S
H2173 C2192 0.951 . S
H2174 C2194 0.950 . S
H2175 C2195 0.950 . S
H2176 C2197 0.950 . S
H2177 C2200 0.950 . S
H2178 C2201 0.950 . S
H2179 C2203 0.950 . S
H2180 C2204 0.950 . S
H2181 C2205 0.951 . S
H2182 C2207 0.951 . S
H2183 C2209 0.950 . S
H2184 C2210 0.950 . S
H2185 C2212 0.950 . S
H2186 C2215 0.950 . S
H2187 C2216 0.950 . S
H2188 C2218 0.950 . S
H2189 C2219 0.950 . S
C2190 H2172 0.951 . S
C2190 C2191 1.366 . S
C2190 C2192 1.388 . S
C2191 C2190 1.366 . S
C2191 C2195 1.385 . S
C2192 H2173 0.951 . S
C2192 C2190 1.388 . S
C2192 C2193 1.366 . S
C2193 C2192 1.366 . S
C2193 C2194 1.414 . S
C2193 C2196 1.499 . S
C2194 H2174 0.950 . S
C2194 C2193 1.414 . S
C2194 C2195 1.374 . S
C2195 H2175 0.950 . S
C2195 C2191 1.385 . S
C2195 C2194 1.374 . S
C2196 C2193 1.499 . S
C2196 C2197 1.373 . S
C2196 C2198 1.389 . S
C2197 H2176 0.950 . S
C2197 C2196 1.373 . S
C2197 C2213 1.377 . S
C2198 C2196 1.389 . S
C2198 C2199 1.524 . S
C2198 C2212 1.377 . S
C2199 C2198 1.524 . S
C2199 C2200 1.397 . S
C2199 C2204 1.363 . S
C2200 H2177 0.950 . S
C2200 C2199 1.397 . S
C2200 C2201 1.334 . S
C2201 H2178 0.950 . S
C2201 C2200 1.334 . S
C2201 C2202 1.287 . S
C2202 C2201 1.287 . S
C2202 C2203 1.524 . S
C2202 H2221 0.913 . S
C2203 H2179 0.950 . S
C2203 C2202 1.524 . S
C2203 C2204 1.415 . S
C2204 H2180 0.950 . S
C2204 C2199 1.363 . S
C2204 C2203 1.415 . S
C2205 H2181 0.951 . S
C2205 C2206 1.366 . S
C2205 C2207 1.388 . S
C2206 C2205 1.366 . S
C2206 C2210 1.385 . S
C2207 H2182 0.951 . S
C2207 C2205 1.388 . S
C2207 C2208 1.366 . S
C2208 C2207 1.366 . S
C2208 C2209 1.414 . S
C2208 C2211 1.499 . S
C2209 H2183 0.950 . S
C2209 C2208 1.414 . S
C2209 C2210 1.374 . S
C2210 H2184 0.950 . S
C2210 C2206 1.385 . S
C2210 C2209 1.374 . S
C2211 C2208 1.499 . S
C2211 C2212 1.373 . S
C2211 C2213 1.389 . S
C2212 H2185 0.950 . S
C2212 C2198 1.377 . S
C2212 C2211 1.373 . S
C2213 C2197 1.377 . S
C2213 C2211 1.389 . S
C2213 C2214 1.524 . S
C2214 C2213 1.524 . S
C2214 C2215 1.397 . S
C2214 C2219 1.363 . S
C2215 H2186 0.950 . S
C2215 C2214 1.397 . S
C2215 C2216 1.334 . S
C2216 H2187 0.950 . S
C2216 C2215 1.334 . S
C2216 C2217 1.287 . S
C2217 C2216 1.287 . S
C2217 C2218 1.524 . S
C2217 H2220 0.999 . S
C2218 H2188 0.950 . S
C2218 C2217 1.524 . S
C2218 C2219 1.415 . S
C2219 H2189 0.950 . S
C2219 C2214 1.363 . S
C2219 C2218 1.415 . S
H2220 C2217 0.999 . S
H2221 C2202 0.913 . S
H2222 C2240 0.951 . S
H2223 C2242 0.951 . S
H2224 C2244 0.950 . S
H2225 C2245 0.950 . S
H2226 C2247 0.950 . S
H2227 C2250 0.950 . S
H2228 C2251 0.950 . S
H2229 C2253 0.950 . S
H2230 C2254 0.950 . S
H2231 C2255 0.951 . S
H2232 C2257 0.951 . S
H2233 C2259 0.950 . S
H2234 C2260 0.950 . S
H2235 C2262 0.950 1_655 S
H2236 C2265 0.950 . S
H2237 C2266 0.950 . S
H2238 C2268 0.950 . S
H2239 C2269 0.950 . S
C2240 H2222 0.951 . S
C2240 C2241 1.366 . S
C2240 C2242 1.388 . S
C2241 C2240 1.366 . S
C2241 C2245 1.385 . S
C2242 H2223 0.951 . S
C2242 C2240 1.388 . S
C2242 C2243 1.366 . S
C2243 C2242 1.366 . S
C2243 C2244 1.414 . S
C2243 C2246 1.499 . S
C2244 H2224 0.950 . S
C2244 C2243 1.414 . S
C2244 C2245 1.374 . S
C2245 H2225 0.950 . S
C2245 C2241 1.385 . S
C2245 C2244 1.374 . S
C2246 C2243 1.499 . S
C2246 C2247 1.373 . S
C2246 C2248 1.389 . S
C2247 H2226 0.950 . S
C2247 C2246 1.373 . S
C2247 C2263 1.377 . S
C2248 C2246 1.389 . S
C2248 C2249 1.524 . S
C2248 C2262 1.377 . S
C2249 C2248 1.524 . S
C2249 C2250 1.397 . S
C2249 C2254 1.363 . S
C2250 H2227 0.950 . S
C2250 C2249 1.397 . S
C2250 C2251 1.334 . S
C2251 H2228 0.950 . S
C2251 C2250 1.334 . S
C2251 C2252 1.287 . S
C2252 C2251 1.287 . S
C2252 C2253 1.524 . S
C2252 H2271 0.913 . S
C2253 H2229 0.950 . S
C2253 C2252 1.524 . S
C2253 C2254 1.415 . S
C2254 H2230 0.950 . S
C2254 C2249 1.363 . S
C2254 C2253 1.415 . S
C2255 H2231 0.951 . S
C2255 C2256 1.366 . S
C2255 C2257 1.388 . S
C2256 C2255 1.366 . S
C2256 C2260 1.385 . S
C2257 H2232 0.951 . S
C2257 C2255 1.388 . S
C2257 C2258 1.366 . S
C2258 C2257 1.366 . S
C2258 C2259 1.414 . S
C2258 C2261 1.539 . S
C2259 H2233 0.950 . S
C2259 C2258 1.414 . S
C2259 C2260 1.374 . S
C2260 H2234 0.950 . S
C2260 C2256 1.385 . S
C2260 C2259 1.374 . S
C2261 C2258 1.539 . S
C2261 C2262 1.361 1_655 S
C2261 C2263 1.360 1_655 S
C2262 H2235 0.950 1_455 S
C2262 C2248 1.377 . S
C2262 C2261 1.361 1_455 S
C2263 C2247 1.377 . S
C2263 C2261 1.360 1_455 S
C2263 C2264 1.524 . S
C2264 C2263 1.524 . S
C2264 C2265 1.397 1_455 S
C2264 C2269 1.363 . S
C2265 H2236 0.950 . S
C2265 C2264 1.397 1_655 S
C2265 C2266 1.334 . S
C2266 H2237 0.950 . S
C2266 C2265 1.334 . S
C2266 C2267 1.287 . S
C2267 C2266 1.287 . S
C2267 C2268 1.524 1_655 S
C2267 H2270 0.999 . S
C2268 H2238 0.950 . S
C2268 C2267 1.524 1_455 S
C2268 C2269 1.415 . S
C2269 H2239 0.950 . S
C2269 C2264 1.363 . S
C2269 C2268 1.415 . S
H2270 C2267 0.999 . S
H2271 C2252 0.913 . S
H2272 C2290 0.951 . S
H2273 C2292 0.951 . S
H2274 C2294 0.950 . S
H2275 C2295 0.950 . S
H2276 C2297 0.950 . S
H2277 C2300 0.950 . S
H2278 C2301 0.950 . S
H2279 C2303 0.950 . S
H2280 C2304 0.950 . S
H2281 C2305 0.951 . S
H2282 C2307 0.951 . S
H2283 C2309 0.950 . S
H2284 C2310 0.950 . S
H2285 C2312 0.950 . S
H2286 C2315 0.950 . S
H2287 C2316 0.950 . S
H2288 C2318 0.950 . S
H2289 C2319 0.950 . S
C2290 H2272 0.951 . S
C2290 C2291 1.366 . S
C2290 C2292 1.388 . S
C2291 C2290 1.366 . S
C2291 C2295 1.385 . S
C2292 H2273 0.951 . S
C2292 C2290 1.388 . S
C2292 C2293 1.366 . S
C2293 C2292 1.366 . S
C2293 C2294 1.414 . S
C2293 C2296 1.499 . S
C2294 H2274 0.950 . S
C2294 C2293 1.414 . S
C2294 C2295 1.374 . S
C2295 H2275 0.950 . S
C2295 C2291 1.385 . S
C2295 C2294 1.374 . S
C2296 C2293 1.499 . S
C2296 C2297 1.373 . S
C2296 C2298 1.389 . S
C2297 H2276 0.950 . S
C2297 C2296 1.373 . S
C2297 C2313 1.377 . S
C2298 C2296 1.389 . S
C2298 C2299 1.524 . S
C2298 C2312 1.377 . S
C2299 C2298 1.524 . S
C2299 C2300 1.397 . S
C2299 C2304 1.363 . S
C2300 H2277 0.950 . S
C2300 C2299 1.397 . S
C2300 C2301 1.334 . S
C2301 H2278 0.950 . S
C2301 C2300 1.334 . S
C2301 C2302 1.287 . S
C2302 C2301 1.287 . S
C2302 C2303 1.524 . S
C2302 H2321 0.913 . S
C2303 H2279 0.950 . S
C2303 C2302 1.524 . S
C2303 C2304 1.415 . S
C2304 H2280 0.950 . S
C2304 C2299 1.363 . S
C2304 C2303 1.415 . S
C2305 H2281 0.951 . S
C2305 C2306 1.366 . S
C2305 C2307 1.388 . S
C2306 C2305 1.366 . S
C2306 C2310 1.385 . S
C2307 H2282 0.951 . S
C2307 C2305 1.388 . S
C2307 C2308 1.366 . S
C2308 C2307 1.366 . S
C2308 C2309 1.414 . S
C2308 C2311 1.499 . S
C2309 H2283 0.950 . S
C2309 C2308 1.414 . S
C2309 C2310 1.374 . S
C2310 H2284 0.950 . S
C2310 C2306 1.385 . S
C2310 C2309 1.374 . S
C2311 C2308 1.499 . S
C2311 C2312 1.373 . S
C2311 C2313 1.389 . S
C2312 H2285 0.950 . S
C2312 C2298 1.377 . S
C2312 C2311 1.373 . S
C2313 C2297 1.377 . S
C2313 C2311 1.389 . S
C2313 C2314 1.524 . S
C2314 C2313 1.524 . S
C2314 C2315 1.397 . S
C2314 C2319 1.363 . S
C2315 H2286 0.950 . S
C2315 C2314 1.397 . S
C2315 C2316 1.334 . S
C2316 H2287 0.950 . S
C2316 C2315 1.334 . S
C2316 C2317 1.287 . S
C2317 C2316 1.287 . S
C2317 C2318 1.524 . S
C2317 H2320 0.999 . S
C2318 H2288 0.950 . S
C2318 C2317 1.524 . S
C2318 C2319 1.415 . S
C2319 H2289 0.950 . S
C2319 C2314 1.363 . S
C2319 C2318 1.415 . S
H2320 C2317 0.999 . S
H2321 C2302 0.913 . S
H2322 C2340 0.951 . S
H2323 C2342 0.951 . S
H2324 C2344 0.950 . S
H2325 C2345 0.950 . S
H2326 C2347 0.950 . S
H2327 C2350 0.950 . S
H2328 C2351 0.950 . S
H2329 C2353 0.950 . S
H2330 C2354 0.950 . S
H2331 C2355 0.951 . S
H2332 C2357 0.951 . S
H2333 C2359 0.950 . S
H2334 C2360 0.950 . S
H2335 C2362 0.950 . S
H2336 C2365 0.950 . S
H2337 C2366 0.950 . S
H2338 C2368 0.950 . S
H2339 C2369 0.950 . S
C2340 H2322 0.951 . S
C2340 C2341 1.366 . S
C2340 C2342 1.388 . S
C2341 C2340 1.366 . S
C2341 C2345 1.385 . S
C2342 H2323 0.951 . S
C2342 C2340 1.388 . S
C2342 C2343 1.366 . S
C2343 C2342 1.366 . S
C2343 C2344 1.414 . S
C2343 C2346 1.499 . S
C2344 H2324 0.950 . S
C2344 C2343 1.414 . S
C2344 C2345 1.374 . S
C2345 H2325 0.950 . S
C2345 C2341 1.385 . S
C2345 C2344 1.374 . S
C2346 C2343 1.499 . S
C2346 C2347 1.373 . S
C2346 C2348 1.389 . S
C2347 H2326 0.950 . S
C2347 C2346 1.373 . S
C2347 C2363 1.377 . S
C2348 C2346 1.389 . S
C2348 C2349 1.524 . S
C2348 C2362 1.377 . S
C2349 C2348 1.524 . S
C2349 C2350 1.397 . S
C2349 C2354 1.363 . S
C2350 H2327 0.950 . S
C2350 C2349 1.397 . S
C2350 C2351 1.334 . S
C2351 H2328 0.950 . S
C2351 C2350 1.334 . S
C2351 C2352 1.287 . S
C2352 C2351 1.287 . S
C2352 C2353 1.524 . S
C2352 H2371 0.913 . S
C2353 H2329 0.950 . S
C2353 C2352 1.524 . S
C2353 C2354 1.415 . S
C2354 H2330 0.950 . S
C2354 C2349 1.363 . S
C2354 C2353 1.415 . S
C2355 H2331 0.951 . S
C2355 C2356 1.366 . S
C2355 C2357 1.388 . S
C2356 C2355 1.366 . S
C2356 C2360 1.385 . S
C2357 H2332 0.951 . S
C2357 C2355 1.388 . S
C2357 C2358 1.366 . S
C2358 C2357 1.366 . S
C2358 C2359 1.414 . S
C2358 C2361 1.499 . S
C2359 H2333 0.950 . S
C2359 C2358 1.414 . S
C2359 C2360 1.374 . S
C2360 H2334 0.950 . S
C2360 C2356 1.385 . S
C2360 C2359 1.374 . S
C2361 C2358 1.499 . S
C2361 C2362 1.373 . S
C2361 C2363 1.389 . S
C2362 H2335 0.950 . S
C2362 C2348 1.377 . S
C2362 C2361 1.373 . S
C2363 C2347 1.377 . S
C2363 C2361 1.389 . S
C2363 C2364 1.524 . S
C2364 C2363 1.524 . S
C2364 C2365 1.397 . S
C2364 C2369 1.363 . S
C2365 H2336 0.950 . S
C2365 C2364 1.397 . S
C2365 C2366 1.334 . S
C2366 H2337 0.950 . S
C2366 C2365 1.334 . S
C2366 C2367 1.287 . S
C2367 C2366 1.287 . S
C2367 C2368 1.524 . S
C2367 H2370 0.999 . S
C2368 H2338 0.950 . S
C2368 C2367 1.524 . S
C2368 C2369 1.415 . S
C2369 H2339 0.950 . S
C2369 C2364 1.363 . S
C2369 C2368 1.415 . S
H2370 C2367 0.999 . S
H2371 C2352 0.913 . S
H2372 C2390 0.951 . S
H2373 C2392 0.951 . S
H2374 C2394 0.950 . S
H2375 C2395 0.950 . S
H2376 C2397 0.950 . S
H2377 C2400 0.950 . S
H2378 C2401 0.950 . S
H2379 C2403 0.950 . S
H2380 C2404 0.950 . S
H2381 C2405 0.951 . S
H2382 C2407 0.951 . S
H2383 C2409 0.950 . S
H2384 C2410 0.950 . S
H2385 C2412 0.950 . S
H2386 C2415 0.950 . S
H2387 C2416 0.950 . S
H2388 C2418 0.950 . S
H2389 C2419 0.950 . S
C2390 H2372 0.951 . S
C2390 C2391 1.366 . S
C2390 C2392 1.388 . S
C2391 C2390 1.366 . S
C2391 C2395 1.385 . S
C2392 H2373 0.951 . S
C2392 C2390 1.388 . S
C2392 C2393 1.366 . S
C2393 C2392 1.366 . S
C2393 C2394 1.414 . S
C2393 C2396 1.499 . S
C2394 H2374 0.950 . S
C2394 C2393 1.414 . S
C2394 C2395 1.374 . S
C2395 H2375 0.950 . S
C2395 C2391 1.385 . S
C2395 C2394 1.374 . S
C2396 C2393 1.499 . S
C2396 C2397 1.373 . S
C2396 C2398 1.389 . S
C2397 H2376 0.950 . S
C2397 C2396 1.373 . S
C2397 C2413 1.377 . S
C2398 C2396 1.389 . S
C2398 C2399 1.524 . S
C2398 C2412 1.377 . S
C2399 C2398 1.524 . S
C2399 C2400 1.397 . S
C2399 C2404 1.363 . S
C2400 H2377 0.950 . S
C2400 C2399 1.397 . S
C2400 C2401 1.334 . S
C2401 H2378 0.950 . S
C2401 C2400 1.334 . S
C2401 C2402 1.287 . S
C2402 C2401 1.287 . S
C2402 C2403 1.524 . S
C2402 H2421 0.913 . S
C2403 H2379 0.950 . S
C2403 C2402 1.524 . S
C2403 C2404 1.415 . S
C2404 H2380 0.950 . S
C2404 C2399 1.363 . S
C2404 C2403 1.415 . S
C2405 H2381 0.951 . S
C2405 C2406 1.366 . S
C2405 C2407 1.388 . S
C2406 C2405 1.366 . S
C2406 C2410 1.385 . S
C2407 H2382 0.951 . S
C2407 C2405 1.388 . S
C2407 C2408 1.366 . S
C2408 C2407 1.366 . S
C2408 C2409 1.414 . S
C2408 C2411 1.499 . S
C2409 H2383 0.950 . S
C2409 C2408 1.414 . S
C2409 C2410 1.374 . S
C2410 H2384 0.950 . S
C2410 C2406 1.385 . S
C2410 C2409 1.374 . S
C2411 C2408 1.499 . S
C2411 C2412 1.373 . S
C2411 C2413 1.389 . S
C2412 H2385 0.950 . S
C2412 C2398 1.377 . S
C2412 C2411 1.373 . S
C2413 C2397 1.377 . S
C2413 C2411 1.389 . S
C2413 C2414 1.524 . S
C2414 C2413 1.524 . S
C2414 C2415 1.397 . S
C2414 C2419 1.363 . S
C2415 H2386 0.950 . S
C2415 C2414 1.397 . S
C2415 C2416 1.334 . S
C2416 H2387 0.950 . S
C2416 C2415 1.334 . S
C2416 C2417 1.287 . S
C2417 C2416 1.287 . S
C2417 C2418 1.524 . S
C2417 H2420 0.999 . S
C2418 H2388 0.950 . S
C2418 C2417 1.524 . S
C2418 C2419 1.415 . S
C2419 H2389 0.950 . S
C2419 C2414 1.363 . S
C2419 C2418 1.415 . S
H2420 C2417 0.999 . S
H2421 C2402 0.913 . S
H2422 C2440 0.951 . S
H2423 C2442 0.951 . S
H2424 C2444 0.950 . S
H2425 C2445 0.950 . S
H2426 C2447 0.950 . S
H2427 C2450 0.950 . S
H2428 C2451 0.950 . S
H2429 C2453 0.950 . S
H2430 C2454 0.950 . S
H2431 C2455 0.951 . S
H2432 C2457 0.951 . S
H2433 C2459 0.950 . S
H2434 C2460 0.950 . S
H2435 C2462 0.950 . S
H2436 C2465 0.950 . S
H2437 C2466 0.950 . S
H2438 C2468 0.950 . S
H2439 C2469 0.950 1_556 S
C2440 H2422 0.951 . S
C2440 C2441 1.366 . S
C2440 C2442 1.388 . S
C2441 C2440 1.366 . S
C2441 C2445 1.385 . S
C2442 H2423 0.951 . S
C2442 C2440 1.388 . S
C2442 C2443 1.366 . S
C2443 C2442 1.366 . S
C2443 C2444 1.414 . S
C2443 C2446 1.499 . S
C2444 H2424 0.950 . S
C2444 C2443 1.414 . S
C2444 C2445 1.374 . S
C2445 H2425 0.950 . S
C2445 C2441 1.385 . S
C2445 C2444 1.374 . S
C2446 C2443 1.499 . S
C2446 C2447 1.373 . S
C2446 C2448 1.389 . S
C2447 H2426 0.950 . S
C2447 C2446 1.373 . S
C2447 C2463 1.377 . S
C2448 C2446 1.389 . S
C2448 C2449 1.524 . S
C2448 C2462 1.377 . S
C2449 C2448 1.524 . S
C2449 C2450 1.397 . S
C2449 C2454 1.363 . S
C2450 H2427 0.950 . S
C2450 C2449 1.397 . S
C2450 C2451 1.334 . S
C2451 H2428 0.950 . S
C2451 C2450 1.334 . S
C2451 C2452 1.287 . S
C2452 C2451 1.287 . S
C2452 C2453 1.524 . S
C2452 H2471 0.913 . S
C2453 H2429 0.950 . S
C2453 C2452 1.524 . S
C2453 C2454 1.415 . S
C2454 H2430 0.950 . S
C2454 C2449 1.363 . S
C2454 C2453 1.415 . S
C2455 H2431 0.951 . S
C2455 C2456 1.366 . S
C2455 C2457 1.388 . S
C2456 C2455 1.366 . S
C2456 C2460 1.385 . S
C2457 H2432 0.951 . S
C2457 C2455 1.388 . S
C2457 C2458 1.366 . S
C2458 C2457 1.366 . S
C2458 C2459 1.414 . S
C2458 C2461 1.467 1_554 S
C2459 H2433 0.950 . S
C2459 C2458 1.414 . S
C2459 C2460 1.374 . S
C2460 H2434 0.950 . S
C2460 C2456 1.385 . S
C2460 C2459 1.374 . S
C2461 C2458 1.467 1_556 S
C2461 C2462 1.396 . S
C2461 C2463 1.399 . S
C2462 H2435 0.950 . S
C2462 C2448 1.377 . S
C2462 C2461 1.396 . S
C2463 C2447 1.377 . S
C2463 C2461 1.399 . S
C2463 C2464 1.524 1_556 S
C2464 C2463 1.524 1_554 S
C2464 C2465 1.397 . S
C2464 C2469 1.363 . S
C2465 H2436 0.950 . S
C2465 C2464 1.397 . S
C2465 C2466 1.334 . S
C2466 H2437 0.950 . S
C2466 C2465 1.334 . S
C2466 C2467 1.287 . S
C2467 C2466 1.287 . S
C2467 C2468 1.524 . S
C2467 H2470 0.999 . S
C2468 H2438 0.950 . S
C2468 C2467 1.524 . S
C2468 C2469 1.415 . S
C2469 H2439 0.950 1_554 S
C2469 C2464 1.363 . S
C2469 C2468 1.415 . S
H2470 C2467 0.999 . S
H2471 C2452 0.913 . S
H2472 C2490 0.951 . S
H2473 C2492 0.951 . S
H2474 C2494 0.950 . S
H2475 C2495 0.950 . S
H2476 C2497 0.950 . S
H2477 C2500 0.950 . S
H2478 C2501 0.950 . S
H2479 C2503 0.950 . S
H2480 C2504 0.950 . S
H2481 C2505 0.951 . S
H2482 C2507 0.951 . S
H2483 C2509 0.950 . S
H2484 C2510 0.950 . S
H2485 C2512 0.950 . S
H2486 C2515 0.950 . S
H2487 C2516 0.950 . S
H2488 C2518 0.950 . S
H2489 C2519 0.950 . S
C2490 H2472 0.951 . S
C2490 C2491 1.366 . S
C2490 C2492 1.388 . S
C2491 C2490 1.366 . S
C2491 C2495 1.385 . S
C2492 H2473 0.951 . S
C2492 C2490 1.388 . S
C2492 C2493 1.366 . S
C2493 C2492 1.366 . S
C2493 C2494 1.414 . S
C2493 C2496 1.499 . S
C2494 H2474 0.950 . S
C2494 C2493 1.414 . S
C2494 C2495 1.374 . S
C2495 H2475 0.950 . S
C2495 C2491 1.385 . S
C2495 C2494 1.374 . S
C2496 C2493 1.499 . S
C2496 C2497 1.373 . S
C2496 C2498 1.389 . S
C2497 H2476 0.950 . S
C2497 C2496 1.373 . S
C2497 C2513 1.377 . S
C2498 C2496 1.389 . S
C2498 C2499 1.524 . S
C2498 C2512 1.377 . S
C2499 C2498 1.524 . S
C2499 C2500 1.397 . S
C2499 C2504 1.363 . S
C2500 H2477 0.950 . S
C2500 C2499 1.397 . S
C2500 C2501 1.334 . S
C2501 H2478 0.950 . S
C2501 C2500 1.334 . S
C2501 C2502 1.287 . S
C2502 C2501 1.287 . S
C2502 C2503 1.524 . S
C2502 H2521 0.913 . S
C2503 H2479 0.950 . S
C2503 C2502 1.524 . S
C2503 C2504 1.415 . S
C2504 H2480 0.950 . S
C2504 C2499 1.363 . S
C2504 C2503 1.415 . S
C2505 H2481 0.951 . S
C2505 C2506 1.366 . S
C2505 C2507 1.388 . S
C2506 C2505 1.366 . S
C2506 C2510 1.385 . S
C2507 H2482 0.951 . S
C2507 C2505 1.388 . S
C2507 C2508 1.366 . S
C2508 C2507 1.366 . S
C2508 C2509 1.414 . S
C2508 C2511 1.499 . S
C2509 H2483 0.950 . S
C2509 C2508 1.414 . S
C2509 C2510 1.374 . S
C2510 H2484 0.950 . S
C2510 C2506 1.385 . S
C2510 C2509 1.374 . S
C2511 C2508 1.499 . S
C2511 C2512 1.373 . S
C2511 C2513 1.389 . S
C2512 H2485 0.950 . S
C2512 C2498 1.377 . S
C2512 C2511 1.373 . S
C2513 C2497 1.377 . S
C2513 C2511 1.389 . S
C2513 C2514 1.524 . S
C2514 C2513 1.524 . S
C2514 C2515 1.397 . S
C2514 C2519 1.363 . S
C2515 H2486 0.950 . S
C2515 C2514 1.397 . S
C2515 C2516 1.334 . S
C2516 H2487 0.950 . S
C2516 C2515 1.334 . S
C2516 C2517 1.287 . S
C2517 C2516 1.287 . S
C2517 C2518 1.524 . S
C2517 H2520 0.999 . S
C2518 H2488 0.950 . S
C2518 C2517 1.524 . S
C2518 C2519 1.415 . S
C2519 H2489 0.950 . S
C2519 C2514 1.363 . S
C2519 C2518 1.415 . S
H2520 C2517 0.999 . S
H2521 C2502 0.913 . S
H2522 C2540 0.951 . S
H2523 C2542 0.951 . S
H2524 C2544 0.950 . S
H2525 C2545 0.950 . S
H2526 C2547 0.950 . S
H2527 C2550 0.950 . S
H2528 C2551 0.950 . S
H2529 C2553 0.950 . S
H2530 C2554 0.950 . S
H2531 C2555 0.951 . S
H2532 C2557 0.951 . S
H2533 C2559 0.950 . S
H2534 C2560 0.950 . S
H2535 C2562 0.950 . S
H2536 C2565 0.950 . S
H2537 C2566 0.950 . S
H2538 C2568 0.950 . S
H2539 C2569 0.950 . S
C2540 H2522 0.951 . S
C2540 C2541 1.366 . S
C2540 C2542 1.388 . S
C2541 C2540 1.366 . S
C2541 C2545 1.385 . S
C2542 H2523 0.951 . S
C2542 C2540 1.388 . S
C2542 C2543 1.366 . S
C2543 C2542 1.366 . S
C2543 C2544 1.414 . S
C2543 C2546 1.499 . S
C2544 H2524 0.950 . S
C2544 C2543 1.414 . S
C2544 C2545 1.374 . S
C2545 H2525 0.950 . S
C2545 C2541 1.385 . S
C2545 C2544 1.374 . S
C2546 C2543 1.499 . S
C2546 C2547 1.373 . S
C2546 C2548 1.389 . S
C2547 H2526 0.950 . S
C2547 C2546 1.373 . S
C2547 C2563 1.377 . S
C2548 C2546 1.389 . S
C2548 C2549 1.524 . S
C2548 C2562 1.377 . S
C2549 C2548 1.524 . S
C2549 C2550 1.397 . S
C2549 C2554 1.363 . S
C2550 H2527 0.950 . S
C2550 C2549 1.397 . S
C2550 C2551 1.334 . S
C2551 H2528 0.950 . S
C2551 C2550 1.334 . S
C2551 C2552 1.287 . S
C2552 C2551 1.287 . S
C2552 C2553 1.524 . S
C2552 H2571 0.913 . S
C2553 H2529 0.950 . S
C2553 C2552 1.524 . S
C2553 C2554 1.415 . S
C2554 H2530 0.950 . S
C2554 C2549 1.363 . S
C2554 C2553 1.415 . S
C2555 H2531 0.951 . S
C2555 C2556 1.366 . S
C2555 C2557 1.388 . S
C2556 C2555 1.366 . S
C2556 C2560 1.385 . S
C2557 H2532 0.951 . S
C2557 C2555 1.388 . S
C2557 C2558 1.366 . S
C2558 C2557 1.366 . S
C2558 C2559 1.414 . S
C2558 C2561 1.499 . S
C2559 H2533 0.950 . S
C2559 C2558 1.414 . S
C2559 C2560 1.374 . S
C2560 H2534 0.950 . S
C2560 C2556 1.385 . S
C2560 C2559 1.374 . S
C2561 C2558 1.499 . S
C2561 C2562 1.373 . S
C2561 C2563 1.389 . S
C2562 H2535 0.950 . S
C2562 C2548 1.377 . S
C2562 C2561 1.373 . S
C2563 C2547 1.377 . S
C2563 C2561 1.389 . S
C2563 C2564 1.524 . S
C2564 C2563 1.524 . S
C2564 C2565 1.397 . S
C2564 C2569 1.363 . S
C2565 H2536 0.950 . S
C2565 C2564 1.397 . S
C2565 C2566 1.334 . S
C2566 H2537 0.950 . S
C2566 C2565 1.334 . S
C2566 C2567 1.287 . S
C2567 C2566 1.287 . S
C2567 C2568 1.524 . S
C2567 H2570 0.999 . S
C2568 H2538 0.950 . S
C2568 C2567 1.524 . S
C2568 C2569 1.415 . S
C2569 H2539 0.950 . S
C2569 C2564 1.363 . S
C2569 C2568 1.415 . S
H2570 C2567 0.999 . S
H2571 C2552 0.913 . S
H2572 C2590 0.951 . S
H2573 C2592 0.951 . S
H2574 C2594 0.950 . S
H2575 C2595 0.950 . S
H2576 C2597 0.950 . S
H2577 C2600 0.950 . S
H2578 C2601 0.950 . S
H2579 C2603 0.950 . S
H2580 C2604 0.950 . S
H2581 C2605 0.951 . S
H2582 C2607 0.951 . S
H2583 C2609 0.950 . S
H2584 C2610 0.950 . S
H2585 C2612 0.950 . S
H2586 C2615 0.950 . S
H2587 C2616 0.950 . S
H2588 C2618 0.950 . S
H2589 C2619 0.950 . S
C2590 H2572 0.951 . S
C2590 C2591 1.366 . S
C2590 C2592 1.388 . S
C2591 C2590 1.366 . S
C2591 C2595 1.385 . S
C2592 H2573 0.951 . S
C2592 C2590 1.388 . S
C2592 C2593 1.366 . S
C2593 C2592 1.366 . S
C2593 C2594 1.414 . S
C2593 C2596 1.499 . S
C2594 H2574 0.950 . S
C2594 C2593 1.414 . S
C2594 C2595 1.374 . S
C2595 H2575 0.950 . S
C2595 C2591 1.385 . S
C2595 C2594 1.374 . S
C2596 C2593 1.499 . S
C2596 C2597 1.373 . S
C2596 C2598 1.389 . S
C2597 H2576 0.950 . S
C2597 C2596 1.373 . S
C2597 C2613 1.377 . S
C2598 C2596 1.389 . S
C2598 C2599 1.524 . S
C2598 C2612 1.377 . S
C2599 C2598 1.524 . S
C2599 C2600 1.397 . S
C2599 C2604 1.363 . S
C2600 H2577 0.950 . S
C2600 C2599 1.397 . S
C2600 C2601 1.334 . S
C2601 H2578 0.950 . S
C2601 C2600 1.334 . S
C2601 C2602 1.287 . S
C2602 C2601 1.287 . S
C2602 C2603 1.524 . S
C2602 H2621 0.913 . S
C2603 H2579 0.950 . S
C2603 C2602 1.524 . S
C2603 C2604 1.415 . S
C2604 H2580 0.950 . S
C2604 C2599 1.363 . S
C2604 C2603 1.415 . S
C2605 H2581 0.951 . S
C2605 C2606 1.366 . S
C2605 C2607 1.388 . S
C2606 C2605 1.366 . S
C2606 C2610 1.385 . S
C2607 H2582 0.951 . S
C2607 C2605 1.388 . S
C2607 C2608 1.366 . S
C2608 C2607 1.366 . S
C2608 C2609 1.414 . S
C2608 C2611 1.499 . S
C2609 H2583 0.950 . S
C2609 C2608 1.414 . S
C2609 C2610 1.374 . S
C2610 H2584 0.950 . S
C2610 C2606 1.385 . S
C2610 C2609 1.374 . S
C2611 C2608 1.499 . S
C2611 C2612 1.373 . S
C2611 C2613 1.389 . S
C2612 H2585 0.950 . S
C2612 C2598 1.377 . S
C2612 C2611 1.373 . S
C2613 C2597 1.377 . S
C2613 C2611 1.389 . S
C2613 C2614 1.524 . S
C2614 C2613 1.524 . S
C2614 C2615 1.397 . S
C2614 C2619 1.363 . S
C2615 H2586 0.950 . S
C2615 C2614 1.397 . S
C2615 C2616 1.334 . S
C2616 H2587 0.950 . S
C2616 C2615 1.334 . S
C2616 C2617 1.287 . S
C2617 C2616 1.287 . S
C2617 C2618 1.524 . S
C2617 H2620 0.999 . S
C2618 H2588 0.950 . S
C2618 C2617 1.524 . S
C2618 C2619 1.415 . S
C2619 H2589 0.950 . S
C2619 C2614 1.363 . S
C2619 C2618 1.415 . S
H2620 C2617 0.999 . S
H2621 C2602 0.913 . S
H2622 C2640 0.951 . S
H2623 C2642 0.951 . S
H2624 C2644 0.950 . S
H2625 C2645 0.950 . S
H2626 C2647 0.936 1_556 S
H2627 C2650 0.928 1_556 S
H2628 C2651 0.950 . S
H2629 C2653 0.950 . S
H2630 C2654 0.950 . S
H2631 C2655 0.951 . S
H2632 C2657 0.951 . S
H2633 C2659 0.950 . S
H2634 C2660 0.950 . S
H2635 C2662 0.950 . S
H2636 C2665 0.950 . S
H2637 C2666 0.950 . S
H2638 C2668 0.950 . S
H2639 C2669 0.950 . S
C2640 H2622 0.951 . S
C2640 C2641 1.366 . S
C2640 C2642 1.388 . S
C2641 C2640 1.366 . S
C2641 C2645 1.385 . S
C2642 H2623 0.951 . S
C2642 C2640 1.388 . S
C2642 C2643 1.366 . S
C2643 C2642 1.366 . S
C2643 C2644 1.414 . S
C2643 C2646 1.499 1_556 S
C2644 H2624 0.950 . S
C2644 C2643 1.414 . S
C2644 C2645 1.374 . S
C2645 H2625 0.950 . S
C2645 C2641 1.385 . S
C2645 C2644 1.374 . S
C2646 C2643 1.499 1_554 S
C2646 C2647 1.373 . S
C2646 C2648 1.389 . S
C2647 H2626 0.936 1_554 S
C2647 C2646 1.373 . S
C2647 C2663 1.377 . S
C2648 C2646 1.389 . S
C2648 C2649 1.524 . S
C2648 C2662 1.377 . S
C2649 C2648 1.524 . S
C2649 C2650 1.432 . S
C2649 C2654 1.363 . S
C2650 H2627 0.928 1_554 S
C2650 C2649 1.432 . S
C2650 C2651 1.323 1_554 S
C2651 H2628 0.950 . S
C2651 C2650 1.323 1_556 S
C2651 C2652 1.287 1_556 S
C2652 C2651 1.287 1_554 S
C2652 C2653 1.524 . S
C2652 H2671 0.913 . S
C2653 H2629 0.950 . S
C2653 C2652 1.524 . S
C2653 C2654 1.415 . S
C2654 H2630 0.950 . S
C2654 C2649 1.363 . S
C2654 C2653 1.415 . S
C2655 H2631 0.951 . S
C2655 C2656 1.366 . S
C2655 C2657 1.388 . S
C2656 C2655 1.366 . S
C2656 C2660 1.385 . S
C2657 H2632 0.951 . S
C2657 C2655 1.388 . S
C2657 C2658 1.366 . S
C2658 C2657 1.366 . S
C2658 C2659 1.414 . S
C2658 C2661 1.499 . S
C2659 H2633 0.950 . S
C2659 C2658 1.414 . S
C2659 C2660 1.374 . S
C2660 H2634 0.950 . S
C2660 C2656 1.385 . S
C2660 C2659 1.374 . S
C2661 C2658 1.499 . S
C2661 C2662 1.373 . S
C2661 C2663 1.389 . S
C2662 H2635 0.950 . S
C2662 C2648 1.377 . S
C2662 C2661 1.373 . S
C2663 C2647 1.377 . S
C2663 C2661 1.389 . S
C2663 C2664 1.524 . S
C2664 C2663 1.524 . S
C2664 C2665 1.397 . S
C2664 C2669 1.363 . S
C2665 H2636 0.950 . S
C2665 C2664 1.397 . S
C2665 C2666 1.334 . S
C2666 H2637 0.950 . S
C2666 C2665 1.334 . S
C2666 C2667 1.287 . S
C2667 C2666 1.287 . S
C2667 C2668 1.524 . S
C2667 H2670 0.999 . S
C2668 H2638 0.950 . S
C2668 C2667 1.524 . S
C2668 C2669 1.415 . S
C2669 H2639 0.950 . S
C2669 C2664 1.363 . S
C2669 C2668 1.415 . S
H2670 C2667 0.999 . S
H2671 C2652 0.913 . S
H2672 C2690 0.951 . S
H2673 C2692 0.951 . S
H2674 C2694 0.950 . S
H2675 C2695 0.950 . S
H2676 C2697 0.950 . S
H2677 C2700 0.950 . S
H2678 C2701 0.950 . S
H2679 C2703 0.950 . S
H2680 C2704 0.950 . S
H2681 C2705 0.951 . S
H2682 C2707 0.951 . S
H2683 C2709 0.950 . S
H2684 C2710 0.950 . S
H2685 C2712 0.950 . S
H2686 C2715 0.950 . S
H2687 C2716 0.950 . S
H2688 C2718 0.950 . S
H2689 C2719 0.950 . S
C2690 H2672 0.951 . S
C2690 C2691 1.366 . S
C2690 C2692 1.388 . S
C2691 C2690 1.366 . S
C2691 C2695 1.385 . S
C2692 H2673 0.951 . S
C2692 C2690 1.388 . S
C2692 C2693 1.366 . S
C2693 C2692 1.366 . S
C2693 C2694 1.414 . S
C2693 C2696 1.499 . S
C2694 H2674 0.950 . S
C2694 C2693 1.414 . S
C2694 C2695 1.374 . S
C2695 H2675 0.950 . S
C2695 C2691 1.385 . S
C2695 C2694 1.374 . S
C2696 C2693 1.499 . S
C2696 C2697 1.373 . S
C2696 C2698 1.389 . S
C2697 H2676 0.950 . S
C2697 C2696 1.373 . S
C2697 C2713 1.377 . S
C2698 C2696 1.389 . S
C2698 C2699 1.524 . S
C2698 C2712 1.377 . S
C2699 C2698 1.524 . S
C2699 C2700 1.397 . S
C2699 C2704 1.363 . S
C2700 H2677 0.950 . S
C2700 C2699 1.397 . S
C2700 C2701 1.334 . S
C2701 H2678 0.950 . S
C2701 C2700 1.334 . S
C2701 C2702 1.287 . S
C2702 C2701 1.287 . S
C2702 C2703 1.524 . S
C2702 H2721 0.913 . S
C2703 H2679 0.950 . S
C2703 C2702 1.524 . S
C2703 C2704 1.415 . S
C2704 H2680 0.950 . S
C2704 C2699 1.363 . S
C2704 C2703 1.415 . S
C2705 H2681 0.951 . S
C2705 C2706 1.366 . S
C2705 C2707 1.388 . S
C2706 C2705 1.366 . S
C2706 C2710 1.385 . S
C2707 H2682 0.951 . S
C2707 C2705 1.388 . S
C2707 C2708 1.366 . S
C2708 C2707 1.366 . S
C2708 C2709 1.414 . S
C2708 C2711 1.499 . S
C2709 H2683 0.950 . S
C2709 C2708 1.414 . S
C2709 C2710 1.374 . S
C2710 H2684 0.950 . S
C2710 C2706 1.385 . S
C2710 C2709 1.374 . S
C2711 C2708 1.499 . S
C2711 C2712 1.373 . S
C2711 C2713 1.389 . S
C2712 H2685 0.950 . S
C2712 C2698 1.377 . S
C2712 C2711 1.373 . S
C2713 C2697 1.377 . S
C2713 C2711 1.389 . S
C2713 C2714 1.524 . S
C2714 C2713 1.524 . S
C2714 C2715 1.397 . S
C2714 C2719 1.363 . S
C2715 H2686 0.950 . S
C2715 C2714 1.397 . S
C2715 C2716 1.334 . S
C2716 H2687 0.950 . S
C2716 C2715 1.334 . S
C2716 C2717 1.287 . S
C2717 C2716 1.287 . S
C2717 C2718 1.524 . S
C2717 H2720 0.999 . S
C2718 H2688 0.950 . S
C2718 C2717 1.524 . S
C2718 C2719 1.415 . S
C2719 H2689 0.950 . S
C2719 C2714 1.363 . S
C2719 C2718 1.415 . S
H2720 C2717 0.999 . S
H2721 C2702 0.913 . S
H2722 C2740 0.951 . S
H2723 C2742 0.951 . S
H2724 C2744 0.950 . S
H2725 C2745 0.950 . S
H2726 C2747 0.950 . S
H2727 C2750 0.950 . S
H2728 C2751 0.950 . S
H2729 C2753 0.950 . S
H2730 C2754 0.950 . S
H2731 C2755 0.951 . S
H2732 C2757 0.951 . S
H2733 C2759 0.950 . S
H2734 C2760 0.950 . S
H2735 C2762 0.950 . S
H2736 C2765 0.950 . S
H2737 C2766 0.950 . S
H2738 C2768 0.950 . S
H2739 C2769 0.950 . S
C2740 H2722 0.951 . S
C2740 C2741 1.366 . S
C2740 C2742 1.388 . S
C2741 C2740 1.366 . S
C2741 C2745 1.385 . S
C2742 H2723 0.951 . S
C2742 C2740 1.388 . S
C2742 C2743 1.366 . S
C2743 C2742 1.366 . S
C2743 C2744 1.414 . S
C2743 C2746 1.499 . S
C2744 H2724 0.950 . S
C2744 C2743 1.414 . S
C2744 C2745 1.374 . S
C2745 H2725 0.950 . S
C2745 C2741 1.385 . S
C2745 C2744 1.374 . S
C2746 C2743 1.499 . S
C2746 C2747 1.373 . S
C2746 C2748 1.389 . S
C2747 H2726 0.950 . S
C2747 C2746 1.373 . S
C2747 C2763 1.377 . S
C2748 C2746 1.389 . S
C2748 C2749 1.524 . S
C2748 C2762 1.377 . S
C2749 C2748 1.524 . S
C2749 C2750 1.397 . S
C2749 C2754 1.363 . S
C2750 H2727 0.950 . S
C2750 C2749 1.397 . S
C2750 C2751 1.334 . S
C2751 H2728 0.950 . S
C2751 C2750 1.334 . S
C2751 C2752 1.287 . S
C2752 C2751 1.287 . S
C2752 C2753 1.524 . S
C2752 H2771 0.913 . S
C2753 H2729 0.950 . S
C2753 C2752 1.524 . S
C2753 C2754 1.415 . S
C2754 H2730 0.950 . S
C2754 C2749 1.363 . S
C2754 C2753 1.415 . S
C2755 H2731 0.951 . S
C2755 C2756 1.366 . S
C2755 C2757 1.388 . S
C2756 C2755 1.366 . S
C2756 C2760 1.385 . S
C2757 H2732 0.951 . S
C2757 C2755 1.388 . S
C2757 C2758 1.366 . S
C2758 C2757 1.366 . S
C2758 C2759 1.414 . S
C2758 C2761 1.499 . S
C2759 H2733 0.950 . S
C2759 C2758 1.414 . S
C2759 C2760 1.374 . S
C2760 H2734 0.950 . S
C2760 C2756 1.385 . S
C2760 C2759 1.374 . S
C2761 C2758 1.499 . S
C2761 C2762 1.373 . S
C2761 C2763 1.389 . S
C2762 H2735 0.950 . S
C2762 C2748 1.377 . S
C2762 C2761 1.373 . S
C2763 C2747 1.377 . S
C2763 C2761 1.389 . S
C2763 C2764 1.524 . S
C2764 C2763 1.524 . S
C2764 C2765 1.397 . S
C2764 C2769 1.363 . S
C2765 H2736 0.950 . S
C2765 C2764 1.397 . S
C2765 C2766 1.334 . S
C2766 H2737 0.950 . S
C2766 C2765 1.334 . S
C2766 C2767 1.287 . S
C2767 C2766 1.287 . S
C2767 C2768 1.524 . S
C2767 H2770 0.999 . S
C2768 H2738 0.950 . S
C2768 C2767 1.524 . S
C2768 C2769 1.415 . S
C2769 H2739 0.950 . S
C2769 C2764 1.363 . S
C2769 C2768 1.415 . S
H2770 C2767 0.999 . S
H2771 C2752 0.913 . S
H2772 C2790 0.951 . S
H2773 C2792 0.951 . S
H2774 C2794 0.950 . S
H2775 C2795 0.950 . S
H2776 C2797 0.950 . S
H2777 C2800 0.950 . S
H2778 C2801 0.950 . S
H2779 C2803 0.950 . S
H2780 C2804 0.950 . S
H2781 C2805 0.951 . S
H2782 C2807 0.951 . S
H2783 C2809 0.950 . S
H2784 C2810 0.950 . S
H2785 C2812 0.950 . S
H2786 C2815 0.950 . S
H2787 C2816 0.950 . S
H2788 C2818 0.950 . S
H2789 C2819 0.950 . S
C2790 H2772 0.951 . S
C2790 C2791 1.366 . S
C2790 C2792 1.388 . S
C2791 C2790 1.366 . S
C2791 C2795 1.385 . S
C2792 H2773 0.951 . S
C2792 C2790 1.388 . S
C2792 C2793 1.366 . S
C2793 C2792 1.366 . S
C2793 C2794 1.414 . S
C2793 C2796 1.499 . S
C2794 H2774 0.950 . S
C2794 C2793 1.414 . S
C2794 C2795 1.374 . S
C2795 H2775 0.950 . S
C2795 C2791 1.385 . S
C2795 C2794 1.374 . S
C2796 C2793 1.499 . S
C2796 C2797 1.373 . S
C2796 C2798 1.389 . S
C2797 H2776 0.950 . S
C2797 C2796 1.373 . S
C2797 C2813 1.377 . S
C2798 C2796 1.389 . S
C2798 C2799 1.524 . S
C2798 C2812 1.377 . S
C2799 C2798 1.524 . S
C2799 C2800 1.397 . S
C2799 C2804 1.363 . S
C2800 H2777 0.950 . S
C2800 C2799 1.397 . S
C2800 C2801 1.334 . S
C2801 H2778 0.950 . S
C2801 C2800 1.334 . S
C2801 C2802 1.287 . S
C2802 C2801 1.287 . S
C2802 C2803 1.524 . S
C2802 H2821 0.913 . S
C2803 H2779 0.950 . S
C2803 C2802 1.524 . S
C2803 C2804 1.415 . S
C2804 H2780 0.950 . S
C2804 C2799 1.363 . S
C2804 C2803 1.415 . S
C2805 H2781 0.951 . S
C2805 C2806 1.366 . S
C2805 C2807 1.388 . S
C2806 C2805 1.366 . S
C2806 C2810 1.385 . S
C2807 H2782 0.951 . S
C2807 C2805 1.388 . S
C2807 C2808 1.366 . S
C2808 C2807 1.366 . S
C2808 C2809 1.414 . S
C2808 C2811 1.499 . S
C2809 H2783 0.950 . S
C2809 C2808 1.414 . S
C2809 C2810 1.374 . S
C2810 H2784 0.950 . S
C2810 C2806 1.385 . S
C2810 C2809 1.374 . S
C2811 C2808 1.499 . S
C2811 C2812 1.373 . S
C2811 C2813 1.389 . S
C2812 H2785 0.950 . S
C2812 C2798 1.377 . S
C2812 C2811 1.373 . S
C2813 C2797 1.377 . S
C2813 C2811 1.389 . S
C2813 C2814 1.524 . S
C2814 C2813 1.524 . S
C2814 C2815 1.397 . S
C2814 C2819 1.363 . S
C2815 H2786 0.950 . S
C2815 C2814 1.397 . S
C2815 C2816 1.334 . S
C2816 H2787 0.950 . S
C2816 C2815 1.334 . S
C2816 C2817 1.287 . S
C2817 C2816 1.287 . S
C2817 C2818 1.524 . S
C2817 H2820 0.999 . S
C2818 H2788 0.950 . S
C2818 C2817 1.524 . S
C2818 C2819 1.415 . S
C2819 H2789 0.950 . S
C2819 C2814 1.363 . S
C2819 C2818 1.415 . S
H2820 C2817 0.999 . S
H2821 C2802 0.913 . S
H2822 C2840 0.951 . S
H2823 C2842 0.951 . S
H2824 C2844 0.950 . S
H2825 C2845 0.950 . S
H2826 C2847 0.950 . S
H2827 C2850 0.950 . S
H2828 C2851 0.950 . S
H2829 C2853 0.950 . S
H2830 C2854 0.950 . S
H2831 C2855 0.951 . S
H2832 C2857 0.951 . S
H2833 C2859 0.950 . S
H2834 C2860 0.950 . S
H2835 C2862 0.950 . S
H2836 C2865 0.950 . S
H2837 C2866 0.950 . S
H2838 C2868 0.950 . S
H2839 C2869 0.950 . S
C2840 H2822 0.951 . S
C2840 C2841 1.366 . S
C2840 C2842 1.388 . S
C2841 C2840 1.366 . S
C2841 C2845 1.385 . S
C2842 H2823 0.951 . S
C2842 C2840 1.388 . S
C2842 C2843 1.366 . S
C2843 C2842 1.366 . S
C2843 C2844 1.414 . S
C2843 C2846 1.499 . S
C2844 H2824 0.950 . S
C2844 C2843 1.414 . S
C2844 C2845 1.374 . S
C2845 H2825 0.950 . S
C2845 C2841 1.385 . S
C2845 C2844 1.374 . S
C2846 C2843 1.499 . S
C2846 C2847 1.373 . S
C2846 C2848 1.389 . S
C2847 H2826 0.950 . S
C2847 C2846 1.373 . S
C2847 C2863 1.377 . S
C2848 C2846 1.389 . S
C2848 C2849 1.524 . S
C2848 C2862 1.377 . S
C2849 C2848 1.524 . S
C2849 C2850 1.397 . S
C2849 C2854 1.363 . S
C2850 H2827 0.950 . S
C2850 C2849 1.397 . S
C2850 C2851 1.334 . S
C2851 H2828 0.950 . S
C2851 C2850 1.334 . S
C2851 C2852 1.287 . S
C2852 C2851 1.287 . S
C2852 C2853 1.524 . S
C2852 H2871 0.913 . S
C2853 H2829 0.950 . S
C2853 C2852 1.524 . S
C2853 C2854 1.415 . S
C2854 H2830 0.950 . S
C2854 C2849 1.363 . S
C2854 C2853 1.415 . S
C2855 H2831 0.951 . S
C2855 C2856 1.366 . S
C2855 C2857 1.388 . S
C2856 C2855 1.366 . S
C2856 C2860 1.385 . S
C2857 H2832 0.951 . S
C2857 C2855 1.388 . S
C2857 C2858 1.366 . S
C2858 C2857 1.366 . S
C2858 C2859 1.414 . S
C2858 C2861 1.499 . S
C2859 H2833 0.950 . S
C2859 C2858 1.414 . S
C2859 C2860 1.374 . S
C2860 H2834 0.950 . S
C2860 C2856 1.385 . S
C2860 C2859 1.374 . S
C2861 C2858 1.499 . S
C2861 C2862 1.373 . S
C2861 C2863 1.389 . S
C2862 H2835 0.950 . S
C2862 C2848 1.377 . S
C2862 C2861 1.373 . S
C2863 C2847 1.377 . S
C2863 C2861 1.389 . S
C2863 C2864 1.524 . S
C2864 C2863 1.524 . S
C2864 C2865 1.397 . S
C2864 C2869 1.363 . S
C2865 H2836 0.950 . S
C2865 C2864 1.397 . S
C2865 C2866 1.334 . S
C2866 H2837 0.950 . S
C2866 C2865 1.334 . S
C2866 C2867 1.287 . S
C2867 C2866 1.287 . S
C2867 C2868 1.524 . S
C2867 H2870 0.999 . S
C2868 H2838 0.950 . S
C2868 C2867 1.524 . S
C2868 C2869 1.415 . S
C2869 H2839 0.950 . S
C2869 C2864 1.363 . S
C2869 C2868 1.415 . S
H2870 C2867 0.999 . S
H2871 C2852 0.913 . S
H2872 C2890 0.951 . S
H2873 C2892 0.951 . S
H2874 C2894 0.950 . S
H2875 C2895 0.950 . S
H2876 C2897 0.950 . S
H2877 C2900 0.950 . S
H2878 C2901 0.950 . S
H2879 C2903 0.950 . S
H2880 C2904 0.950 . S
H2881 C2905 0.951 . S
H2882 C2907 0.951 . S
H2883 C2909 0.950 . S
H2884 C2910 0.950 . S
H2885 C2912 0.950 . S
H2886 C2915 0.950 . S
H2887 C2916 0.950 . S
H2888 C2918 0.950 . S
H2889 C2919 0.950 . S
C2890 H2872 0.951 . S
C2890 C2891 1.366 . S
C2890 C2892 1.388 . S
C2891 C2890 1.366 . S
C2891 C2895 1.385 . S
C2892 H2873 0.951 . S
C2892 C2890 1.388 . S
C2892 C2893 1.366 . S
C2893 C2892 1.366 . S
C2893 C2894 1.414 . S
C2893 C2896 1.499 1_565 S
C2894 H2874 0.950 . S
C2894 C2893 1.414 . S
C2894 C2895 1.374 . S
C2895 H2875 0.950 . S
C2895 C2891 1.385 . S
C2895 C2894 1.374 . S
C2896 C2893 1.499 1_545 S
C2896 C2897 1.373 . S
C2896 C2898 1.389 . S
C2897 H2876 0.950 . S
C2897 C2896 1.373 . S
C2897 C2913 1.377 . S
C2898 C2896 1.389 . S
C2898 C2899 1.524 . S
C2898 C2912 1.377 . S
C2899 C2898 1.524 . S
C2899 C2900 1.397 1_545 S
C2899 C2904 1.363 . S
C2900 H2877 0.950 . S
C2900 C2899 1.397 1_565 S
C2900 C2901 1.334 . S
C2901 H2878 0.950 . S
C2901 C2900 1.334 . S
C2901 C2902 1.287 . S
C2902 C2901 1.287 . S
C2902 C2903 1.524 1_565 S
C2902 H2921 0.913 . S
C2903 H2879 0.950 . S
C2903 C2902 1.524 1_545 S
C2903 C2904 1.415 . S
C2904 H2880 0.950 . S
C2904 C2899 1.363 . S
C2904 C2903 1.415 . S
C2905 H2881 0.951 . S
C2905 C2906 1.366 . S
C2905 C2907 1.388 . S
C2906 C2905 1.366 . S
C2906 C2910 1.385 . S
C2907 H2882 0.951 . S
C2907 C2905 1.388 . S
C2907 C2908 1.366 . S
C2908 C2907 1.366 . S
C2908 C2909 1.414 . S
C2908 C2911 1.499 . S
C2909 H2883 0.950 . S
C2909 C2908 1.414 . S
C2909 C2910 1.374 . S
C2910 H2884 0.950 . S
C2910 C2906 1.385 . S
C2910 C2909 1.374 . S
C2911 C2908 1.499 . S
C2911 C2912 1.373 . S
C2911 C2913 1.389 . S
C2912 H2885 0.950 . S
C2912 C2898 1.377 . S
C2912 C2911 1.373 . S
C2913 C2897 1.377 . S
C2913 C2911 1.389 . S
C2913 C2914 1.524 . S
C2914 C2913 1.524 . S
C2914 C2915 1.397 . S
C2914 C2919 1.363 . S
C2915 H2886 0.950 . S
C2915 C2914 1.397 . S
C2915 C2916 1.334 . S
C2916 H2887 0.950 . S
C2916 C2915 1.334 . S
C2916 C2917 1.287 . S
C2917 C2916 1.287 . S
C2917 C2918 1.524 . S
C2917 H2920 0.999 . S
C2918 H2888 0.950 . S
C2918 C2917 1.524 . S
C2918 C2919 1.415 . S
C2919 H2889 0.950 . S
C2919 C2914 1.363 . S
C2919 C2918 1.415 . S
H2920 C2917 0.999 . S
H2921 C2902 0.913 . S
H2922 C2940 0.951 . S
H2923 C2942 0.951 . S
H2924 C2944 0.950 . S
H2925 C2945 0.950 . S
H2926 C2947 0.950 . S
H2927 C2950 0.950 . S
H2928 C2951 0.950 . S
H2929 C2953 0.950 . S
H2930 C2954 0.950 . S
H2931 C2955 0.951 . S
H2932 C2957 0.951 . S
H2933 C2959 0.950 . S
H2934 C2960 0.950 . S
H2935 C2962 0.950 . S
H2936 C2965 0.950 . S
H2937 C2966 0.950 . S
H2938 C2968 0.950 . S
H2939 C2969 0.950 . S
C2940 H2922 0.951 . S
C2940 C2941 1.366 . S
C2940 C2942 1.388 . S
C2941 C2940 1.366 . S
C2941 C2945 1.385 . S
C2942 H2923 0.951 . S
C2942 C2940 1.388 . S
C2942 C2943 1.366 . S
C2943 C2942 1.366 . S
C2943 C2944 1.414 . S
C2943 C2946 1.499 . S
C2944 H2924 0.950 . S
C2944 C2943 1.414 . S
C2944 C2945 1.374 . S
C2945 H2925 0.950 . S
C2945 C2941 1.385 . S
C2945 C2944 1.374 . S
C2946 C2943 1.499 . S
C2946 C2947 1.373 . S
C2946 C2948 1.389 . S
C2947 H2926 0.950 . S
C2947 C2946 1.373 . S
C2947 C2963 1.377 . S
C2948 C2946 1.389 . S
C2948 C2949 1.524 . S
C2948 C2962 1.377 . S
C2949 C2948 1.524 . S
C2949 C2950 1.397 . S
C2949 C2954 1.363 . S
C2950 H2927 0.950 . S
C2950 C2949 1.397 . S
C2950 C2951 1.334 . S
C2951 H2928 0.950 . S
C2951 C2950 1.334 . S
C2951 C2952 1.287 . S
C2952 C2951 1.287 . S
C2952 C2953 1.524 . S
C2952 H2971 0.913 . S
C2953 H2929 0.950 . S
C2953 C2952 1.524 . S
C2953 C2954 1.415 . S
C2954 H2930 0.950 . S
C2954 C2949 1.363 . S
C2954 C2953 1.415 . S
C2955 H2931 0.951 . S
C2955 C2956 1.366 . S
C2955 C2957 1.388 . S
C2956 C2955 1.366 . S
C2956 C2960 1.385 . S
C2957 H2932 0.951 . S
C2957 C2955 1.388 . S
C2957 C2958 1.366 . S
C2958 C2957 1.366 . S
C2958 C2959 1.414 . S
C2958 C2961 1.499 . S
C2959 H2933 0.950 . S
C2959 C2958 1.414 . S
C2959 C2960 1.374 . S
C2960 H2934 0.950 . S
C2960 C2956 1.385 . S
C2960 C2959 1.374 . S
C2961 C2958 1.499 . S
C2961 C2962 1.373 . S
C2961 C2963 1.389 . S
C2962 H2935 0.950 . S
C2962 C2948 1.377 . S
C2962 C2961 1.373 . S
C2963 C2947 1.377 . S
C2963 C2961 1.389 . S
C2963 C2964 1.524 . S
C2964 C2963 1.524 . S
C2964 C2965 1.397 . S
C2964 C2969 1.363 . S
C2965 H2936 0.950 . S
C2965 C2964 1.397 . S
C2965 C2966 1.334 . S
C2966 H2937 0.950 . S
C2966 C2965 1.334 . S
C2966 C2967 1.287 . S
C2967 C2966 1.287 . S
C2967 C2968 1.524 . S
C2967 H2970 0.999 . S
C2968 H2938 0.950 . S
C2968 C2967 1.524 . S
C2968 C2969 1.415 . S
C2969 H2939 0.950 . S
C2969 C2964 1.363 . S
C2969 C2968 1.415 . S
H2970 C2967 0.999 . S
H2971 C2952 0.913 . S
H2972 C2990 0.951 . S
H2973 C2992 0.951 . S
H2974 C2994 0.950 . S
H2975 C2995 0.950 . S
H2976 C2997 0.950 . S
H2977 C3000 0.950 . S
H2978 C3001 0.950 . S
H2979 C3003 0.950 . S
H2980 C3004 0.950 . S
H2981 C3005 0.951 . S
H2982 C3007 0.951 . S
H2983 C3009 0.950 . S
H2984 C3010 0.950 . S
H2985 C3012 0.950 . S
H2986 C3015 0.950 . S
H2987 C3016 0.950 . S
H2988 C3018 0.950 . S
H2989 C3019 0.950 . S
C2990 H2972 0.951 . S
C2990 C2991 1.366 . S
C2990 C2992 1.388 . S
C2991 C2990 1.366 . S
C2991 C2995 1.385 . S
C2992 H2973 0.951 . S
C2992 C2990 1.388 . S
C2992 C2993 1.366 . S
C2993 C2992 1.366 . S
C2993 C2994 1.414 . S
C2993 C2996 1.499 . S
C2994 H2974 0.950 . S
C2994 C2993 1.414 . S
C2994 C2995 1.374 . S
C2995 H2975 0.950 . S
C2995 C2991 1.385 . S
C2995 C2994 1.374 . S
C2996 C2993 1.499 . S
C2996 C2997 1.373 . S
C2996 C2998 1.389 . S
C2997 H2976 0.950 . S
C2997 C2996 1.373 . S
C2997 C3013 1.377 . S
C2998 C2996 1.389 . S
C2998 C2999 1.524 . S
C2998 C3012 1.377 . S
C2999 C2998 1.524 . S
C2999 C3000 1.397 . S
C2999 C3004 1.363 . S
C3000 H2977 0.950 . S
C3000 C2999 1.397 . S
C3000 C3001 1.334 . S
C3001 H2978 0.950 . S
C3001 C3000 1.334 . S
C3001 C3002 1.287 . S
C3002 C3001 1.287 . S
C3002 C3003 1.524 . S
C3002 H3021 0.913 . S
C3003 H2979 0.950 . S
C3003 C3002 1.524 . S
C3003 C3004 1.415 . S
C3004 H2980 0.950 . S
C3004 C2999 1.363 . S
C3004 C3003 1.415 . S
C3005 H2981 0.951 . S
C3005 C3006 1.366 . S
C3005 C3007 1.388 . S
C3006 C3005 1.366 . S
C3006 C3010 1.385 . S
C3007 H2982 0.951 . S
C3007 C3005 1.388 . S
C3007 C3008 1.366 . S
C3008 C3007 1.366 . S
C3008 C3009 1.414 . S
C3008 C3011 1.499 . S
C3009 H2983 0.950 . S
C3009 C3008 1.414 . S
C3009 C3010 1.374 . S
C3010 H2984 0.950 . S
C3010 C3006 1.385 . S
C3010 C3009 1.374 . S
C3011 C3008 1.499 . S
C3011 C3012 1.373 . S
C3011 C3013 1.389 . S
C3012 H2985 0.950 . S
C3012 C2998 1.377 . S
C3012 C3011 1.373 . S
C3013 C2997 1.377 . S
C3013 C3011 1.389 . S
C3013 C3014 1.524 . S
C3014 C3013 1.524 . S
C3014 C3015 1.397 . S
C3014 C3019 1.363 . S
C3015 H2986 0.950 . S
C3015 C3014 1.397 . S
C3015 C3016 1.334 . S
C3016 H2987 0.950 . S
C3016 C3015 1.334 . S
C3016 C3017 1.287 . S
C3017 C3016 1.287 . S
C3017 C3018 1.524 . S
C3017 H3020 0.999 . S
C3018 H2988 0.950 . S
C3018 C3017 1.524 . S
C3018 C3019 1.415 . S
C3019 H2989 0.950 . S
C3019 C3014 1.363 . S
C3019 C3018 1.415 . S
H3020 C3017 0.999 . S
H3021 C3002 0.913 . S
H3022 C3040 0.951 . S
H3023 C3042 0.951 . S
H3024 C3044 0.950 . S
H3025 C3045 0.950 . S
H3026 C3047 0.950 . S
H3027 C3050 0.950 . S
H3028 C3051 0.950 . S
H3029 C3053 0.950 . S
H3030 C3054 0.950 . S
H3031 C3055 0.951 . S
H3032 C3057 0.951 . S
H3033 C3059 0.950 . S
H3034 C3060 0.950 . S
H3035 C3062 0.950 . S
H3036 C3065 0.950 . S
H3037 C3066 0.950 . S
H3038 C3068 0.950 . S
H3039 C3069 0.950 . S
C3040 H3022 0.951 . S
C3040 C3041 1.366 . S
C3040 C3042 1.388 . S
C3041 C3040 1.366 . S
C3041 C3045 1.385 . S
C3042 H3023 0.951 . S
C3042 C3040 1.388 . S
C3042 C3043 1.366 . S
C3043 C3042 1.366 . S
C3043 C3044 1.414 . S
C3043 C3046 1.499 . S
C3044 H3024 0.950 . S
C3044 C3043 1.414 . S
C3044 C3045 1.374 . S
C3045 H3025 0.950 . S
C3045 C3041 1.385 . S
C3045 C3044 1.374 . S
C3046 C3043 1.499 . S
C3046 C3047 1.373 . S
C3046 C3048 1.389 . S
C3047 H3026 0.950 . S
C3047 C3046 1.373 . S
C3047 C3063 1.377 . S
C3048 C3046 1.389 . S
C3048 C3049 1.524 . S
C3048 C3062 1.377 . S
C3049 C3048 1.524 . S
C3049 C3050 1.397 . S
C3049 C3054 1.363 . S
C3050 H3027 0.950 . S
C3050 C3049 1.397 . S
C3050 C3051 1.334 . S
C3051 H3028 0.950 . S
C3051 C3050 1.334 . S
C3051 C3052 1.287 . S
C3052 C3051 1.287 . S
C3052 C3053 1.524 . S
C3052 H3071 0.913 . S
C3053 H3029 0.950 . S
C3053 C3052 1.524 . S
C3053 C3054 1.415 . S
C3054 H3030 0.950 . S
C3054 C3049 1.363 . S
C3054 C3053 1.415 . S
C3055 H3031 0.951 . S
C3055 C3056 1.366 . S
C3055 C3057 1.388 . S
C3056 C3055 1.366 . S
C3056 C3060 1.385 . S
C3057 H3032 0.951 . S
C3057 C3055 1.388 . S
C3057 C3058 1.366 . S
C3058 C3057 1.366 . S
C3058 C3059 1.414 . S
C3058 C3061 1.499 . S
C3059 H3033 0.950 . S
C3059 C3058 1.414 . S
C3059 C3060 1.374 . S
C3060 H3034 0.950 . S
C3060 C3056 1.385 . S
C3060 C3059 1.374 . S
C3061 C3058 1.499 . S
C3061 C3062 1.373 . S
C3061 C3063 1.389 . S
C3062 H3035 0.950 . S
C3062 C3048 1.377 . S
C3062 C3061 1.373 . S
C3063 C3047 1.377 . S
C3063 C3061 1.389 . S
C3063 C3064 1.524 . S
C3064 C3063 1.524 . S
C3064 C3065 1.397 . S
C3064 C3069 1.363 . S
C3065 H3036 0.950 . S
C3065 C3064 1.397 . S
C3065 C3066 1.334 . S
C3066 H3037 0.950 . S
C3066 C3065 1.334 . S
C3066 C3067 1.287 . S
C3067 C3066 1.287 . S
C3067 C3068 1.524 . S
C3067 H3070 0.999 . S
C3068 H3038 0.950 . S
C3068 C3067 1.524 . S
C3068 C3069 1.415 . S
C3069 H3039 0.950 . S
C3069 C3064 1.363 . S
C3069 C3068 1.415 . S
H3070 C3067 0.999 . S
H3071 C3052 0.913 . S
H3072 C3090 0.951 . S
H3073 C3092 0.951 . S
H3074 C3094 0.950 . S
H3075 C3095 0.950 . S
H3076 C3097 0.950 . S
H3077 C3100 0.950 . S
H3078 C3101 0.950 . S
H3079 C3103 0.950 . S
H3080 C3104 0.950 . S
H3081 C3105 0.951 . S
H3082 C3107 0.951 . S
H3083 C3109 0.950 . S
H3084 C3110 0.950 . S
H3085 C3112 0.950 . S
H3086 C3115 0.950 . S
H3087 C3116 0.950 . S
H3088 C3118 0.950 . S
H3089 C3119 0.950 . S
C3090 H3072 0.951 . S
C3090 C3091 1.366 . S
C3090 C3092 1.388 . S
C3091 C3090 1.366 . S
C3091 C3095 1.385 . S
C3092 H3073 0.951 . S
C3092 C3090 1.388 . S
C3092 C3093 1.366 . S
C3093 C3092 1.366 . S
C3093 C3094 1.414 . S
C3093 C3096 1.499 . S
C3094 H3074 0.950 . S
C3094 C3093 1.414 . S
C3094 C3095 1.374 . S
C3095 H3075 0.950 . S
C3095 C3091 1.385 . S
C3095 C3094 1.374 . S
C3096 C3093 1.499 . S
C3096 C3097 1.373 . S
C3096 C3098 1.389 . S
C3097 H3076 0.950 . S
C3097 C3096 1.373 . S
C3097 C3113 1.377 . S
C3098 C3096 1.389 . S
C3098 C3099 1.524 . S
C3098 C3112 1.377 . S
C3099 C3098 1.524 . S
C3099 C3100 1.397 . S
C3099 C3104 1.363 . S
C3100 H3077 0.950 . S
C3100 C3099 1.397 . S
C3100 C3101 1.334 . S
C3101 H3078 0.950 . S
C3101 C3100 1.334 . S
C3101 C3102 1.287 . S
C3102 C3101 1.287 . S
C3102 C3103 1.524 . S
C3102 H3121 0.913 . S
C3103 H3079 0.950 . S
C3103 C3102 1.524 . S
C3103 C3104 1.415 . S
C3104 H3080 0.950 . S
C3104 C3099 1.363 . S
C3104 C3103 1.415 . S
C3105 H3081 0.951 . S
C3105 C3106 1.366 . S
C3105 C3107 1.388 . S
C3106 C3105 1.366 . S
C3106 C3110 1.385 . S
C3107 H3082 0.951 . S
C3107 C3105 1.388 . S
C3107 C3108 1.366 . S
C3108 C3107 1.366 . S
C3108 C3109 1.414 . S
C3108 C3111 1.499 . S
C3109 H3083 0.950 . S
C3109 C3108 1.414 . S
C3109 C3110 1.374 . S
C3110 H3084 0.950 . S
C3110 C3106 1.385 . S
C3110 C3109 1.374 . S
C3111 C3108 1.499 . S
C3111 C3112 1.373 . S
C3111 C3113 1.389 . S
C3112 H3085 0.950 . S
C3112 C3098 1.377 . S
C3112 C3111 1.373 . S
C3113 C3097 1.377 . S
C3113 C3111 1.389 . S
C3113 C3114 1.524 . S
C3114 C3113 1.524 . S
C3114 C3115 1.397 . S
C3114 C3119 1.363 . S
C3115 H3086 0.950 . S
C3115 C3114 1.397 . S
C3115 C3116 1.334 . S
C3116 H3087 0.950 . S
C3116 C3115 1.334 . S
C3116 C3117 1.287 . S
C3117 C3116 1.287 . S
C3117 C3118 1.524 . S
C3117 H3120 0.999 . S
C3118 H3088 0.950 . S
C3118 C3117 1.524 . S
C3118 C3119 1.415 . S
C3119 H3089 0.950 . S
C3119 C3114 1.363 . S
C3119 C3118 1.415 . S
H3120 C3117 0.999 . S
H3121 C3102 0.913 . S
H3122 C3140 0.951 . S
H3123 C3142 0.951 . S
H3124 C3144 0.950 . S
H3125 C3145 0.950 . S
H3126 C3147 0.950 . S
H3127 C3150 0.950 . S
H3128 C3151 0.950 . S
H3129 C3153 0.950 . S
H3130 C3154 0.950 . S
H3131 C3155 0.951 . S
H3132 C3157 0.951 . S
H3133 C3159 0.950 . S
H3134 C3160 0.950 . S
H3135 C3162 0.950 . S
H3136 C3165 0.950 . S
H3137 C3166 0.950 . S
H3138 C3168 0.950 . S
H3139 C3169 0.950 . S
C3140 H3122 0.951 . S
C3140 C3141 1.366 . S
C3140 C3142 1.388 . S
C3141 C3140 1.366 . S
C3141 C3145 1.385 . S
C3142 H3123 0.951 . S
C3142 C3140 1.388 . S
C3142 C3143 1.366 . S
C3143 C3142 1.366 . S
C3143 C3144 1.414 . S
C3143 C3146 1.499 . S
C3144 H3124 0.950 . S
C3144 C3143 1.414 . S
C3144 C3145 1.374 . S
C3145 H3125 0.950 . S
C3145 C3141 1.385 . S
C3145 C3144 1.374 . S
C3146 C3143 1.499 . S
C3146 C3147 1.373 . S
C3146 C3148 1.389 . S
C3147 H3126 0.950 . S
C3147 C3146 1.373 . S
C3147 C3163 1.377 . S
C3148 C3146 1.389 . S
C3148 C3149 1.524 . S
C3148 C3162 1.377 . S
C3149 C3148 1.524 . S
C3149 C3150 1.397 . S
C3149 C3154 1.363 . S
C3150 H3127 0.950 . S
C3150 C3149 1.397 . S
C3150 C3151 1.334 . S
C3151 H3128 0.950 . S
C3151 C3150 1.334 . S
C3151 C3152 1.287 . S
C3152 C3151 1.287 . S
C3152 C3153 1.524 . S
C3152 H3171 0.913 . S
C3153 H3129 0.950 . S
C3153 C3152 1.524 . S
C3153 C3154 1.415 . S
C3154 H3130 0.950 . S
C3154 C3149 1.363 . S
C3154 C3153 1.415 . S
C3155 H3131 0.951 . S
C3155 C3156 1.366 . S
C3155 C3157 1.388 . S
C3156 C3155 1.366 . S
C3156 C3160 1.385 . S
C3157 H3132 0.951 . S
C3157 C3155 1.388 . S
C3157 C3158 1.366 . S
C3158 C3157 1.366 . S
C3158 C3159 1.414 . S
C3158 C3161 1.499 . S
C3159 H3133 0.950 . S
C3159 C3158 1.414 . S
C3159 C3160 1.374 . S
C3160 H3134 0.950 . S
C3160 C3156 1.385 . S
C3160 C3159 1.374 . S
C3161 C3158 1.499 . S
C3161 C3162 1.373 . S
C3161 C3163 1.389 . S
C3162 H3135 0.950 . S
C3162 C3148 1.377 . S
C3162 C3161 1.373 . S
C3163 C3147 1.377 . S
C3163 C3161 1.389 . S
C3163 C3164 1.524 . S
C3164 C3163 1.524 . S
C3164 C3165 1.397 . S
C3164 C3169 1.363 . S
C3165 H3136 0.950 . S
C3165 C3164 1.397 . S
C3165 C3166 1.334 . S
C3166 H3137 0.950 . S
C3166 C3165 1.334 . S
C3166 C3167 1.287 . S
C3167 C3166 1.287 . S
C3167 C3168 1.524 . S
C3167 H3170 0.999 . S
C3168 H3138 0.950 . S
C3168 C3167 1.524 . S
C3168 C3169 1.415 . S
C3169 H3139 0.950 . S
C3169 C3164 1.363 . S
C3169 C3168 1.415 . S
H3170 C3167 0.999 . S
H3171 C3152 0.913 . S
H3172 C3190 0.951 . S
H3173 C3192 0.951 . S
H3174 C3194 0.950 . S
H3175 C3195 0.950 . S
H3176 C3197 0.950 . S
H3177 C3200 0.950 . S
H3178 C3201 0.950 . S
H3179 C3203 0.950 . S
H3180 C3204 0.950 . S
H3181 C3205 0.951 . S
H3182 C3207 0.951 . S
H3183 C3209 0.950 . S
H3184 C3210 0.950 . S
H3185 C3212 0.950 . S
H3186 C3215 0.950 . S
H3187 C3216 0.950 . S
H3188 C3218 0.950 . S
H3189 C3219 0.950 . S
C3190 H3172 0.951 . S
C3190 C3191 1.366 . S
C3190 C3192 1.388 . S
C3191 C3190 1.366 . S
C3191 C3195 1.385 . S
C3192 H3173 0.951 . S
C3192 C3190 1.388 . S
C3192 C3193 1.366 . S
C3193 C3192 1.366 . S
C3193 C3194 1.414 . S
C3193 C3196 1.499 . S
C3194 H3174 0.950 . S
C3194 C3193 1.414 . S
C3194 C3195 1.374 . S
C3195 H3175 0.950 . S
C3195 C3191 1.385 . S
C3195 C3194 1.374 . S
C3196 C3193 1.499 . S
C3196 C3197 1.373 . S
C3196 C3198 1.389 . S
C3197 H3176 0.950 . S
C3197 C3196 1.373 . S
C3197 C3213 1.377 . S
C3198 C3196 1.389 . S
C3198 C3199 1.524 . S
C3198 C3212 1.377 . S
C3199 C3198 1.524 . S
C3199 C3200 1.397 . S
C3199 C3204 1.363 . S
C3200 H3177 0.950 . S
C3200 C3199 1.397 . S
C3200 C3201 1.334 . S
C3201 H3178 0.950 . S
C3201 C3200 1.334 . S
C3201 C3202 1.287 . S
C3202 C3201 1.287 . S
C3202 C3203 1.524 . S
C3202 H3221 0.913 . S
C3203 H3179 0.950 . S
C3203 C3202 1.524 . S
C3203 C3204 1.415 . S
C3204 H3180 0.950 . S
C3204 C3199 1.363 . S
C3204 C3203 1.415 . S
C3205 H3181 0.951 . S
C3205 C3206 1.366 . S
C3205 C3207 1.388 . S
C3206 C3205 1.366 . S
C3206 C3210 1.385 . S
C3207 H3182 0.951 . S
C3207 C3205 1.388 . S
C3207 C3208 1.366 . S
C3208 C3207 1.366 . S
C3208 C3209 1.414 . S
C3208 C3211 1.499 . S
C3209 H3183 0.950 . S
C3209 C3208 1.414 . S
C3209 C3210 1.374 . S
C3210 H3184 0.950 . S
C3210 C3206 1.385 . S
C3210 C3209 1.374 . S
C3211 C3208 1.499 . S
C3211 C3212 1.373 . S
C3211 C3213 1.389 . S
C3212 H3185 0.950 . S
C3212 C3198 1.377 . S
C3212 C3211 1.373 . S
C3213 C3197 1.377 . S
C3213 C3211 1.389 . S
C3213 C3214 1.524 . S
C3214 C3213 1.524 . S
C3214 C3215 1.397 . S
C3214 C3219 1.363 . S
C3215 H3186 0.950 . S
C3215 C3214 1.397 . S
C3215 C3216 1.334 . S
C3216 H3187 0.950 . S
C3216 C3215 1.334 . S
C3216 C3217 1.287 . S
C3217 C3216 1.287 . S
C3217 C3218 1.524 . S
C3217 H3220 0.999 . S
C3218 H3188 0.950 . S
C3218 C3217 1.524 . S
C3218 C3219 1.415 . S
C3219 H3189 0.950 . S
C3219 C3214 1.363 . S
C3219 C3218 1.415 . S
H3220 C3217 0.999 . S
H3221 C3202 0.913 . S
H3222 C3240 0.951 . S
H3223 C3242 0.951 . S
H3224 C3244 0.950 . S
H3225 C3245 0.950 . S
H3226 C3247 0.950 . S
H3227 C3250 0.950 . S
H3228 C3251 0.950 . S
H3229 C3253 0.950 . S
H3230 C3254 0.950 1_455 S
H3231 C3255 0.951 . S
H3232 C3257 0.951 . S
H3233 C3259 0.950 . S
H3234 C3260 0.950 . S
H3235 C3262 0.950 . S
H3236 C3265 0.950 . S
H3237 C3266 0.950 . S
H3238 C3268 0.950 . S
H3239 C3269 0.950 . S
C3240 H3222 0.951 . S
C3240 C3241 1.366 . S
C3240 C3242 1.388 . S
C3241 C3240 1.366 . S
C3241 C3245 1.385 . S
C3242 H3223 0.951 . S
C3242 C3240 1.388 . S
C3242 C3243 1.366 . S
C3243 C3242 1.366 . S
C3243 C3244 1.414 . S
C3243 C3246 1.499 1_655 S
C3244 H3224 0.950 . S
C3244 C3243 1.414 . S
C3244 C3245 1.374 . S
C3245 H3225 0.950 . S
C3245 C3241 1.385 . S
C3245 C3244 1.374 . S
C3246 C3243 1.499 1_455 S
C3246 C3247 1.373 . S
C3246 C3248 1.389 . S
C3247 H3226 0.950 . S
C3247 C3246 1.373 . S
C3247 C3263 1.377 . S
C3248 C3246 1.389 . S
C3248 C3249 1.524 1_455 S
C3248 C3262 1.377 . S
C3249 C3248 1.524 1_655 S
C3249 C3250 1.397 . S
C3249 C3254 1.363 . S
C3250 H3227 0.950 . S
C3250 C3249 1.397 . S
C3250 C3251 1.334 . S
C3251 H3228 0.950 . S
C3251 C3250 1.334 . S
C3251 C3252 1.287 . S
C3252 C3251 1.287 . S
C3252 C3253 1.524 . S
C3252 H3271 0.913 . S
C3253 H3229 0.950 . S
C3253 C3252 1.524 . S
C3253 C3254 1.415 . S
C3254 H3230 0.950 1_655 S
C3254 C3249 1.363 . S
C3254 C3253 1.415 . S
C3255 H3231 0.951 . S
C3255 C3256 1.366 . S
C3255 C3257 1.388 . S
C3256 C3255 1.366 . S
C3256 C3260 1.385 . S
C3257 H3232 0.951 . S
C3257 C3255 1.388 . S
C3257 C3258 1.366 . S
C3258 C3257 1.366 . S
C3258 C3259 1.414 . S
C3258 C3261 1.499 . S
C3259 H3233 0.950 . S
C3259 C3258 1.414 . S
C3259 C3260 1.374 . S
C3260 H3234 0.950 . S
C3260 C3256 1.385 . S
C3260 C3259 1.374 . S
C3261 C3258 1.499 . S
C3261 C3262 1.373 . S
C3261 C3263 1.389 . S
C3262 H3235 0.950 . S
C3262 C3248 1.377 . S
C3262 C3261 1.373 . S
C3263 C3247 1.377 . S
C3263 C3261 1.389 . S
C3263 C3264 1.524 . S
C3264 C3263 1.524 . S
C3264 C3265 1.397 . S
C3264 C3269 1.363 . S
C3265 H3236 0.950 . S
C3265 C3264 1.397 . S
C3265 C3266 1.334 . S
C3266 H3237 0.950 . S
C3266 C3265 1.334 . S
C3266 C3267 1.287 . S
C3267 C3266 1.287 . S
C3267 C3268 1.524 . S
C3267 H3270 0.999 . S
C3268 H3238 0.950 . S
C3268 C3267 1.524 . S
C3268 C3269 1.415 . S
C3269 H3239 0.950 . S
C3269 C3264 1.363 . S
C3269 C3268 1.415 . S
H3270 C3267 0.999 . S
H3271 C3252 0.913 . S
H3272 C3290 0.951 . S
H3273 C3292 0.951 . S
H3274 C3294 0.950 . S
H3275 C3295 0.950 . S
H3276 C3297 0.950 . S
H3277 C3300 0.950 . S
H3278 C3301 0.950 . S
H3279 C3303 0.950 . S
H3280 C3304 0.950 . S
H3281 C3305 0.951 . S
H3282 C3307 0.951 . S
H3283 C3309 0.950 . S
H3284 C3310 0.950 . S
H3285 C3312 0.950 . S
H3286 C3315 0.950 . S
H3287 C3316 0.950 . S
H3288 C3318 0.950 . S
H3289 C3319 0.950 . S
C3290 H3272 0.951 . S
C3290 C3291 1.366 . S
C3290 C3292 1.388 . S
C3291 C3290 1.366 . S
C3291 C3295 1.385 . S
C3292 H3273 0.951 . S
C3292 C3290 1.388 . S
C3292 C3293 1.366 . S
C3293 C3292 1.366 . S
C3293 C3294 1.414 . S
C3293 C3296 1.499 . S
C3294 H3274 0.950 . S
C3294 C3293 1.414 . S
C3294 C3295 1.374 . S
C3295 H3275 0.950 . S
C3295 C3291 1.385 . S
C3295 C3294 1.374 . S
C3296 C3293 1.499 . S
C3296 C3297 1.373 . S
C3296 C3298 1.389 . S
C3297 H3276 0.950 . S
C3297 C3296 1.373 . S
C3297 C3313 1.377 . S
C3298 C3296 1.389 . S
C3298 C3299 1.524 . S
C3298 C3312 1.377 . S
C3299 C3298 1.524 . S
C3299 C3300 1.397 . S
C3299 C3304 1.363 . S
C3300 H3277 0.950 . S
C3300 C3299 1.397 . S
C3300 C3301 1.334 . S
C3301 H3278 0.950 . S
C3301 C3300 1.334 . S
C3301 C3302 1.287 . S
C3302 C3301 1.287 . S
C3302 C3303 1.524 . S
C3302 H3321 0.913 . S
C3303 H3279 0.950 . S
C3303 C3302 1.524 . S
C3303 C3304 1.415 . S
C3304 H3280 0.950 . S
C3304 C3299 1.363 . S
C3304 C3303 1.415 . S
C3305 H3281 0.951 . S
C3305 C3306 1.366 . S
C3305 C3307 1.388 . S
C3306 C3305 1.366 . S
C3306 C3310 1.385 . S
C3307 H3282 0.951 . S
C3307 C3305 1.388 . S
C3307 C3308 1.366 . S
C3308 C3307 1.366 . S
C3308 C3309 1.414 . S
C3308 C3311 1.499 . S
C3309 H3283 0.950 . S
C3309 C3308 1.414 . S
C3309 C3310 1.374 . S
C3310 H3284 0.950 . S
C3310 C3306 1.385 . S
C3310 C3309 1.374 . S
C3311 C3308 1.499 . S
C3311 C3312 1.373 . S
C3311 C3313 1.389 . S
C3312 H3285 0.950 . S
C3312 C3298 1.377 . S
C3312 C3311 1.373 . S
C3313 C3297 1.377 . S
C3313 C3311 1.389 . S
C3313 C3314 1.524 . S
C3314 C3313 1.524 . S
C3314 C3315 1.397 . S
C3314 C3319 1.363 . S
C3315 H3286 0.950 . S
C3315 C3314 1.397 . S
C3315 C3316 1.334 . S
C3316 H3287 0.950 . S
C3316 C3315 1.334 . S
C3316 C3317 1.287 . S
C3317 C3316 1.287 . S
C3317 C3318 1.524 . S
C3317 H3320 0.999 . S
C3318 H3288 0.950 . S
C3318 C3317 1.524 . S
C3318 C3319 1.415 . S
C3319 H3289 0.950 . S
C3319 C3314 1.363 . S
C3319 C3318 1.415 . S
H3320 C3317 0.999 . S
H3321 C3302 0.913 . S
H3322 C3340 0.951 . S
H3323 C3342 0.951 . S
H3324 C3344 0.950 . S
H3325 C3345 0.950 . S
H3326 C3347 0.950 . S
H3327 C3350 0.950 . S
H3328 C3351 0.950 . S
H3329 C3353 0.950 . S
H3330 C3354 0.950 . S
H3331 C3355 0.951 . S
H3332 C3357 0.951 . S
H3333 C3359 0.950 . S
H3334 C3360 0.950 . S
H3335 C3362 0.950 . S
H3336 C3365 0.950 . S
H3337 C3366 0.950 . S
H3338 C3368 0.950 . S
H3339 C3369 0.950 . S
C3340 H3322 0.951 . S
C3340 C3341 1.366 . S
C3340 C3342 1.388 . S
C3341 C3340 1.366 . S
C3341 C3345 1.385 . S
C3342 H3323 0.951 . S
C3342 C3340 1.388 . S
C3342 C3343 1.366 . S
C3343 C3342 1.366 . S
C3343 C3344 1.414 . S
C3343 C3346 1.499 . S
C3344 H3324 0.950 . S
C3344 C3343 1.414 . S
C3344 C3345 1.374 . S
C3345 H3325 0.950 . S
C3345 C3341 1.385 . S
C3345 C3344 1.374 . S
C3346 C3343 1.499 . S
C3346 C3347 1.373 . S
C3346 C3348 1.389 . S
C3347 H3326 0.950 . S
C3347 C3346 1.373 . S
C3347 C3363 1.377 . S
C3348 C3346 1.389 . S
C3348 C3349 1.524 . S
C3348 C3362 1.377 . S
C3349 C3348 1.524 . S
C3349 C3350 1.397 . S
C3349 C3354 1.363 . S
C3350 H3327 0.950 . S
C3350 C3349 1.397 . S
C3350 C3351 1.334 . S
C3351 H3328 0.950 . S
C3351 C3350 1.334 . S
C3351 C3352 1.287 . S
C3352 C3351 1.287 . S
C3352 C3353 1.524 . S
C3352 H3371 0.913 . S
C3353 H3329 0.950 . S
C3353 C3352 1.524 . S
C3353 C3354 1.415 . S
C3354 H3330 0.950 . S
C3354 C3349 1.363 . S
C3354 C3353 1.415 . S
C3355 H3331 0.951 . S
C3355 C3356 1.366 . S
C3355 C3357 1.388 . S
C3356 C3355 1.366 . S
C3356 C3360 1.385 . S
C3357 H3332 0.951 . S
C3357 C3355 1.388 . S
C3357 C3358 1.366 . S
C3358 C3357 1.366 . S
C3358 C3359 1.414 . S
C3358 C3361 1.499 1_655 S
C3359 H3333 0.950 . S
C3359 C3358 1.414 . S
C3359 C3360 1.374 . S
C3360 H3334 0.950 . S
C3360 C3356 1.385 . S
C3360 C3359 1.374 . S
C3361 C3358 1.499 1_455 S
C3361 C3362 1.373 . S
C3361 C3363 1.389 . S
C3362 H3335 0.950 . S
C3362 C3348 1.377 . S
C3362 C3361 1.373 . S
C3363 C3347 1.377 . S
C3363 C3361 1.389 . S
C3363 C3364 1.524 . S
C3364 C3363 1.524 . S
C3364 C3365 1.397 . S
C3364 C3369 1.363 . S
C3365 H3336 0.950 . S
C3365 C3364 1.397 . S
C3365 C3366 1.334 1_455 S
C3366 H3337 0.950 . S
C3366 C3365 1.334 1_655 S
C3366 C3367 1.278 1_655 S
C3367 C3366 1.278 1_455 S
C3367 C3368 1.547 . S
C3367 H3370 0.984 1_455 S
C3368 H3338 0.950 . S
C3368 C3367 1.547 . S
C3368 C3369 1.415 . S
C3369 H3339 0.950 . S
C3369 C3364 1.363 . S
C3369 C3368 1.415 . S
H3370 C3367 0.984 1_655 S
H3371 C3352 0.913 . S
H3372 C3390 0.951 . S
H3373 C3392 0.951 . S
H3374 C3394 0.950 . S
H3375 C3395 0.950 . S
H3376 C3397 0.950 . S
H3377 C3400 0.950 . S
H3378 C3401 0.950 . S
H3379 C3403 0.950 . S
H3380 C3404 0.950 . S
H3381 C3405 0.951 . S
H3382 C3407 0.951 . S
H3383 C3409 0.950 . S
H3384 C3410 0.950 . S
H3385 C3412 0.950 . S
H3386 C3415 0.950 . S
H3387 C3416 0.950 . S
H3388 C3418 0.950 . S
H3389 C3419 0.950 . S
C3390 H3372 0.951 . S
C3390 C3391 1.366 . S
C3390 C3392 1.388 . S
C3391 C3390 1.366 . S
C3391 C3395 1.385 . S
C3392 H3373 0.951 . S
C3392 C3390 1.388 . S
C3392 C3393 1.366 . S
C3393 C3392 1.366 . S
C3393 C3394 1.414 . S
C3393 C3396 1.499 . S
C3394 H3374 0.950 . S
C3394 C3393 1.414 . S
C3394 C3395 1.374 . S
C3395 H3375 0.950 . S
C3395 C3391 1.385 . S
C3395 C3394 1.374 . S
C3396 C3393 1.499 . S
C3396 C3397 1.373 . S
C3396 C3398 1.389 . S
C3397 H3376 0.950 . S
C3397 C3396 1.373 . S
C3397 C3413 1.377 . S
C3398 C3396 1.389 . S
C3398 C3399 1.524 . S
C3398 C3412 1.377 . S
C3399 C3398 1.524 . S
C3399 C3400 1.397 . S
C3399 C3404 1.363 . S
C3400 H3377 0.950 . S
C3400 C3399 1.397 . S
C3400 C3401 1.334 . S
C3401 H3378 0.950 . S
C3401 C3400 1.334 . S
C3401 C3402 1.287 . S
C3402 C3401 1.287 . S
C3402 C3403 1.524 . S
C3402 H3421 0.913 . S
C3403 H3379 0.950 . S
C3403 C3402 1.524 . S
C3403 C3404 1.415 . S
C3404 H3380 0.950 . S
C3404 C3399 1.363 . S
C3404 C3403 1.415 . S
C3405 H3381 0.951 . S
C3405 C3406 1.366 . S
C3405 C3407 1.388 . S
C3406 C3405 1.366 . S
C3406 C3410 1.385 . S
C3407 H3382 0.951 . S
C3407 C3405 1.388 . S
C3407 C3408 1.366 . S
C3408 C3407 1.366 . S
C3408 C3409 1.414 . S
C3408 C3411 1.499 . S
C3409 H3383 0.950 . S
C3409 C3408 1.414 . S
C3409 C3410 1.374 . S
C3410 H3384 0.950 . S
C3410 C3406 1.385 . S
C3410 C3409 1.374 . S
C3411 C3408 1.499 . S
C3411 C3412 1.373 . S
C3411 C3413 1.389 . S
C3412 H3385 0.950 . S
C3412 C3398 1.377 . S
C3412 C3411 1.373 . S
C3413 C3397 1.377 . S
C3413 C3411 1.389 . S
C3413 C3414 1.524 . S
C3414 C3413 1.524 . S
C3414 C3415 1.397 . S
C3414 C3419 1.363 . S
C3415 H3386 0.950 . S
C3415 C3414 1.397 . S
C3415 C3416 1.334 . S
C3416 H3387 0.950 . S
C3416 C3415 1.334 . S
C3416 C3417 1.287 . S
C3417 C3416 1.287 . S
C3417 C3418 1.524 . S
C3417 H3420 0.999 . S
C3418 H3388 0.950 . S
C3418 C3417 1.524 . S
C3418 C3419 1.415 . S
C3419 H3389 0.950 . S
C3419 C3414 1.363 . S
C3419 C3418 1.415 . S
H3420 C3417 0.999 . S
H3421 C3402 0.913 . S
H3422 C3440 0.951 . S
H3423 C3442 0.951 . S
H3424 C3444 0.950 . S
H3425 C3445 0.950 . S
H3426 C3447 0.950 . S
H3427 C3450 0.950 . S
H3428 C3451 0.950 . S
H3429 C3453 0.950 . S
H3430 C3454 0.950 . S
H3431 C3455 0.951 . S
H3432 C3457 0.951 . S
H3433 C3459 0.950 . S
H3434 C3460 0.950 . S
H3435 C3462 0.950 . S
H3436 C3465 0.950 . S
H3437 C3466 0.950 . S
H3438 C3468 0.950 . S
H3439 C3469 0.950 . S
C3440 H3422 0.951 . S
C3440 C3441 1.366 . S
C3440 C3442 1.388 . S
C3441 C3440 1.366 . S
C3441 C3445 1.385 . S
C3442 H3423 0.951 . S
C3442 C3440 1.388 . S
C3442 C3443 1.366 . S
C3443 C3442 1.366 . S
C3443 C3444 1.414 . S
C3443 C3446 1.499 . S
C3444 H3424 0.950 . S
C3444 C3443 1.414 . S
C3444 C3445 1.374 . S
C3445 H3425 0.950 . S
C3445 C3441 1.385 . S
C3445 C3444 1.374 . S
C3446 C3443 1.499 . S
C3446 C3447 1.373 . S
C3446 C3448 1.389 . S
C3447 H3426 0.950 . S
C3447 C3446 1.373 . S
C3447 C3463 1.377 . S
C3448 C3446 1.389 . S
C3448 C3449 1.524 . S
C3448 C3462 1.377 . S
C3449 C3448 1.524 . S
C3449 C3450 1.397 . S
C3449 C3454 1.363 . S
C3450 H3427 0.950 . S
C3450 C3449 1.397 . S
C3450 C3451 1.334 . S
C3451 H3428 0.950 . S
C3451 C3450 1.334 . S
C3451 C3452 1.287 . S
C3452 C3451 1.287 . S
C3452 C3453 1.524 . S
C3452 H3471 0.913 . S
C3453 H3429 0.950 . S
C3453 C3452 1.524 . S
C3453 C3454 1.415 . S
C3454 H3430 0.950 . S
C3454 C3449 1.363 . S
C3454 C3453 1.415 . S
C3455 H3431 0.951 . S
C3455 C3456 1.366 . S
C3455 C3457 1.388 . S
C3456 C3455 1.366 . S
C3456 C3460 1.385 . S
C3457 H3432 0.951 . S
C3457 C3455 1.388 . S
C3457 C3458 1.366 . S
C3458 C3457 1.366 . S
C3458 C3459 1.414 . S
C3458 C3461 1.499 . S
C3459 H3433 0.950 . S
C3459 C3458 1.414 . S
C3459 C3460 1.374 . S
C3460 H3434 0.950 . S
C3460 C3456 1.385 . S
C3460 C3459 1.374 . S
C3461 C3458 1.499 . S
C3461 C3462 1.373 . S
C3461 C3463 1.389 . S
C3462 H3435 0.950 . S
C3462 C3448 1.377 . S
C3462 C3461 1.373 . S
C3463 C3447 1.377 . S
C3463 C3461 1.389 . S
C3463 C3464 1.524 . S
C3464 C3463 1.524 . S
C3464 C3465 1.397 . S
C3464 C3469 1.363 . S
C3465 H3436 0.950 . S
C3465 C3464 1.397 . S
C3465 C3466 1.334 . S
C3466 H3437 0.950 . S
C3466 C3465 1.334 . S
C3466 C3467 1.287 . S
C3467 C3466 1.287 . S
C3467 C3468 1.524 . S
C3467 H3470 0.999 . S
C3468 H3438 0.950 . S
C3468 C3467 1.524 . S
C3468 C3469 1.415 . S
C3469 H3439 0.950 . S
C3469 C3464 1.363 . S
C3469 C3468 1.415 . S
H3470 C3467 0.999 . S
H3471 C3452 0.913 . S
H3472 C3490 0.951 . S
H3473 C3492 0.951 . S
H3474 C3494 0.950 . S
H3475 C3495 0.950 . S
H3476 C3497 0.950 . S
H3477 C3500 0.950 . S
H3478 C3501 0.950 . S
H3479 C3503 0.950 . S
H3480 C3504 0.950 . S
H3481 C3505 0.951 . S
H3482 C3507 0.951 . S
H3483 C3509 0.950 . S
H3484 C3510 0.950 . S
H3485 C3512 0.950 . S
H3486 C3515 0.950 . S
H3487 C3516 0.950 . S
H3488 C3518 0.950 . S
H3489 C3519 0.950 . S
C3490 H3472 0.951 . S
C3490 C3491 1.366 . S
C3490 C3492 1.388 . S
C3491 C3490 1.366 . S
C3491 C3495 1.385 . S
C3492 H3473 0.951 . S
C3492 C3490 1.388 . S
C3492 C3493 1.366 . S
C3493 C3492 1.366 . S
C3493 C3494 1.414 . S
C3493 C3496 1.499 . S
C3494 H3474 0.950 . S
C3494 C3493 1.414 . S
C3494 C3495 1.374 . S
C3495 H3475 0.950 . S
C3495 C3491 1.385 . S
C3495 C3494 1.374 . S
C3496 C3493 1.499 . S
C3496 C3497 1.373 . S
C3496 C3498 1.389 . S
C3497 H3476 0.950 . S
C3497 C3496 1.373 . S
C3497 C3513 1.377 . S
C3498 C3496 1.389 . S
C3498 C3499 1.524 . S
C3498 C3512 1.377 . S
C3499 C3498 1.524 . S
C3499 C3500 1.397 . S
C3499 C3504 1.363 . S
C3500 H3477 0.950 . S
C3500 C3499 1.397 . S
C3500 C3501 1.334 . S
C3501 H3478 0.950 . S
C3501 C3500 1.334 . S
C3501 C3502 1.287 . S
C3502 C3501 1.287 . S
C3502 C3503 1.524 . S
C3502 H3521 0.913 . S
C3503 H3479 0.950 . S
C3503 C3502 1.524 . S
C3503 C3504 1.415 . S
C3504 H3480 0.950 . S
C3504 C3499 1.363 . S
C3504 C3503 1.415 . S
C3505 H3481 0.951 . S
C3505 C3506 1.366 . S
C3505 C3507 1.388 . S
C3506 C3505 1.366 . S
C3506 C3510 1.385 . S
C3507 H3482 0.951 . S
C3507 C3505 1.388 . S
C3507 C3508 1.366 . S
C3508 C3507 1.366 . S
C3508 C3509 1.414 . S
C3508 C3511 1.499 . S
C3509 H3483 0.950 . S
C3509 C3508 1.414 . S
C3509 C3510 1.374 . S
C3510 H3484 0.950 . S
C3510 C3506 1.385 . S
C3510 C3509 1.374 . S
C3511 C3508 1.499 . S
C3511 C3512 1.373 . S
C3511 C3513 1.389 . S
C3512 H3485 0.950 . S
C3512 C3498 1.377 . S
C3512 C3511 1.373 . S
C3513 C3497 1.377 . S
C3513 C3511 1.389 . S
C3513 C3514 1.524 . S
C3514 C3513 1.524 . S
C3514 C3515 1.397 . S
C3514 C3519 1.363 . S
C3515 H3486 0.950 . S
C3515 C3514 1.397 . S
C3515 C3516 1.334 . S
C3516 H3487 0.950 . S
C3516 C3515 1.334 . S
C3516 C3517 1.287 . S
C3517 C3516 1.287 . S
C3517 C3518 1.524 . S
C3517 H3520 0.999 . S
C3518 H3488 0.950 . S
C3518 C3517 1.524 . S
C3518 C3519 1.415 . S
C3519 H3489 0.950 . S
C3519 C3514 1.363 . S
C3519 C3518 1.415 . S
H3520 C3517 0.999 . S
H3521 C3502 0.913 . S
H3522 C3540 0.951 . S
H3523 C3542 0.951 . S
H3524 C3544 0.950 . S
H3525 C3545 0.950 . S
H3526 C3547 0.950 . S
H3527 C3550 0.950 . S
H3528 C3551 0.950 . S
H3529 C3553 0.950 . S
H3530 C3554 0.950 . S
H3531 C3555 0.951 . S
H3532 C3557 0.951 . S
H3533 C3559 0.950 . S
H3534 C3560 0.950 . S
H3535 C3562 0.950 . S
H3536 C3565 0.950 . S
H3537 C3566 0.950 . S
H3538 C3568 0.950 . S
H3539 C3569 0.950 1_554 S
C3540 H3522 0.951 . S
C3540 C3541 1.366 . S
C3540 C3542 1.388 . S
C3541 C3540 1.366 . S
C3541 C3545 1.385 . S
C3542 H3523 0.951 . S
C3542 C3540 1.388 . S
C3542 C3543 1.366 . S
C3543 C3542 1.366 . S
C3543 C3544 1.414 . S
C3543 C3546 1.499 . S
C3544 H3524 0.950 . S
C3544 C3543 1.414 . S
C3544 C3545 1.374 . S
C3545 H3525 0.950 . S
C3545 C3541 1.385 . S
C3545 C3544 1.374 . S
C3546 C3543 1.499 . S
C3546 C3547 1.373 . S
C3546 C3548 1.389 . S
C3547 H3526 0.950 . S
C3547 C3546 1.373 . S
C3547 C3563 1.377 . S
C3548 C3546 1.389 . S
C3548 C3549 1.524 . S
C3548 C3562 1.377 . S
C3549 C3548 1.524 . S
C3549 C3550 1.397 . S
C3549 C3554 1.363 . S
C3550 H3527 0.950 . S
C3550 C3549 1.397 . S
C3550 C3551 1.334 . S
C3551 H3528 0.950 . S
C3551 C3550 1.334 . S
C3551 C3552 1.287 . S
C3552 C3551 1.287 . S
C3552 C3553 1.524 . S
C3552 H3571 0.913 . S
C3553 H3529 0.950 . S
C3553 C3552 1.524 . S
C3553 C3554 1.415 . S
C3554 H3530 0.950 . S
C3554 C3549 1.363 . S
C3554 C3553 1.415 . S
C3555 H3531 0.951 . S
C3555 C3556 1.366 . S
C3555 C3557 1.388 . S
C3556 C3555 1.366 . S
C3556 C3560 1.385 . S
C3557 H3532 0.951 . S
C3557 C3555 1.388 . S
C3557 C3558 1.366 . S
C3558 C3557 1.366 . S
C3558 C3559 1.414 . S
C3558 C3561 1.485 1_556 S
C3559 H3533 0.950 . S
C3559 C3558 1.414 . S
C3559 C3560 1.374 . S
C3560 H3534 0.950 . S
C3560 C3556 1.385 . S
C3560 C3559 1.374 . S
C3561 C3558 1.485 1_554 S
C3561 C3562 1.383 . S
C3561 C3563 1.395 . S
C3562 H3535 0.950 . S
C3562 C3548 1.377 . S
C3562 C3561 1.383 . S
C3563 C3547 1.377 . S
C3563 C3561 1.395 . S
C3563 C3564 1.524 1_554 S
C3564 C3563 1.524 1_556 S
C3564 C3565 1.397 . S
C3564 C3569 1.363 . S
C3565 H3536 0.950 . S
C3565 C3564 1.397 . S
C3565 C3566 1.334 . S
C3566 H3537 0.950 . S
C3566 C3565 1.334 . S
C3566 C3567 1.287 . S
C3567 C3566 1.287 . S
C3567 C3568 1.524 . S
C3567 H3570 0.999 . S
C3568 H3538 0.950 . S
C3568 C3567 1.524 . S
C3568 C3569 1.415 . S
C3569 H3539 0.950 1_556 S
C3569 C3564 1.363 . S
C3569 C3568 1.415 . S
H3570 C3567 0.999 . S
H3571 C3552 0.913 . S
H3572 C3590 0.951 . S
H3573 C3592 0.951 . S
H3574 C3594 0.950 . S
H3575 C3595 0.950 . S
H3576 C3597 0.950 . S
H3577 C3600 0.950 . S
H3578 C3601 0.950 . S
H3579 C3603 0.950 . S
H3580 C3604 0.950 . S
H3581 C3605 0.951 . S
H3582 C3607 0.951 . S
H3583 C3609 0.950 . S
H3584 C3610 0.950 . S
H3585 C3612 0.950 . S
H3586 C3615 0.950 . S
H3587 C3616 0.950 . S
H3588 C3618 0.950 . S
H3589 C3619 0.950 . S
C3590 H3572 0.951 . S
C3590 C3591 1.366 . S
C3590 C3592 1.388 . S
C3591 C3590 1.366 . S
C3591 C3595 1.385 . S
C3592 H3573 0.951 . S
C3592 C3590 1.388 . S
C3592 C3593 1.366 . S
C3593 C3592 1.366 . S
C3593 C3594 1.414 . S
C3593 C3596 1.499 . S
C3594 H3574 0.950 . S
C3594 C3593 1.414 . S
C3594 C3595 1.374 . S
C3595 H3575 0.950 . S
C3595 C3591 1.385 . S
C3595 C3594 1.374 . S
C3596 C3593 1.499 . S
C3596 C3597 1.373 . S
C3596 C3598 1.389 . S
C3597 H3576 0.950 . S
C3597 C3596 1.373 . S
C3597 C3613 1.377 . S
C3598 C3596 1.389 . S
C3598 C3599 1.524 . S
C3598 C3612 1.377 . S
C3599 C3598 1.524 . S
C3599 C3600 1.397 . S
C3599 C3604 1.363 . S
C3600 H3577 0.950 . S
C3600 C3599 1.397 . S
C3600 C3601 1.334 . S
C3601 H3578 0.950 . S
C3601 C3600 1.334 . S
C3601 C3602 1.287 . S
C3602 C3601 1.287 . S
C3602 C3603 1.524 . S
C3602 H3621 0.913 . S
C3603 H3579 0.950 . S
C3603 C3602 1.524 . S
C3603 C3604 1.415 . S
C3604 H3580 0.950 . S
C3604 C3599 1.363 . S
C3604 C3603 1.415 . S
C3605 H3581 0.951 . S
C3605 C3606 1.366 . S
C3605 C3607 1.388 . S
C3606 C3605 1.366 . S
C3606 C3610 1.385 . S
C3607 H3582 0.951 . S
C3607 C3605 1.388 . S
C3607 C3608 1.366 . S
C3608 C3607 1.366 . S
C3608 C3609 1.414 . S
C3608 C3611 1.499 . S
C3609 H3583 0.950 . S
C3609 C3608 1.414 . S
C3609 C3610 1.374 . S
C3610 H3584 0.950 . S
C3610 C3606 1.385 . S
C3610 C3609 1.374 . S
C3611 C3608 1.499 . S
C3611 C3612 1.373 . S
C3611 C3613 1.389 . S
C3612 H3585 0.950 . S
C3612 C3598 1.377 . S
C3612 C3611 1.373 . S
C3613 C3597 1.377 . S
C3613 C3611 1.389 . S
C3613 C3614 1.524 . S
C3614 C3613 1.524 . S
C3614 C3615 1.397 . S
C3614 C3619 1.363 . S
C3615 H3586 0.950 . S
C3615 C3614 1.397 . S
C3615 C3616 1.334 . S
C3616 H3587 0.950 . S
C3616 C3615 1.334 . S
C3616 C3617 1.287 . S
C3617 C3616 1.287 . S
C3617 C3618 1.524 . S
C3617 H3620 0.999 . S
C3618 H3588 0.950 . S
C3618 C3617 1.524 . S
C3618 C3619 1.415 . S
C3619 H3589 0.950 . S
C3619 C3614 1.363 . S
C3619 C3618 1.415 . S
H3620 C3617 0.999 . S
H3621 C3602 0.913 . S
H3622 C3640 0.951 . S
H3623 C3642 0.951 . S
H3624 C3644 0.950 . S
H3625 C3645 0.950 . S
H3626 C3647 0.950 . S
H3627 C3650 0.950 . S
H3628 C3651 0.950 . S
H3629 C3653 0.950 . S
H3630 C3654 0.950 . S
H3631 C3655 0.951 . S
H3632 C3657 0.951 . S
H3633 C3659 0.950 . S
H3634 C3660 0.950 . S
H3635 C3662 0.950 . S
H3636 C3665 0.950 . S
H3637 C3666 0.950 . S
H3638 C3668 0.950 . S
H3639 C3669 0.950 . S
C3640 H3622 0.951 . S
C3640 C3641 1.366 . S
C3640 C3642 1.388 . S
C3641 C3640 1.366 . S
C3641 C3645 1.385 . S
C3642 H3623 0.951 . S
C3642 C3640 1.388 . S
C3642 C3643 1.366 . S
C3643 C3642 1.366 . S
C3643 C3644 1.414 . S
C3643 C3646 1.499 . S
C3644 H3624 0.950 . S
C3644 C3643 1.414 . S
C3644 C3645 1.374 . S
C3645 H3625 0.950 . S
C3645 C3641 1.385 . S
C3645 C3644 1.374 . S
C3646 C3643 1.499 . S
C3646 C3647 1.373 . S
C3646 C3648 1.389 . S
C3647 H3626 0.950 . S
C3647 C3646 1.373 . S
C3647 C3663 1.377 . S
C3648 C3646 1.389 . S
C3648 C3649 1.524 . S
C3648 C3662 1.377 . S
C3649 C3648 1.524 . S
C3649 C3650 1.397 . S
C3649 C3654 1.363 . S
C3650 H3627 0.950 . S
C3650 C3649 1.397 . S
C3650 C3651 1.334 . S
C3651 H3628 0.950 . S
C3651 C3650 1.334 . S
C3651 C3652 1.287 . S
C3652 C3651 1.287 . S
C3652 C3653 1.524 . S
C3652 H3671 0.913 . S
C3653 H3629 0.950 . S
C3653 C3652 1.524 . S
C3653 C3654 1.415 . S
C3654 H3630 0.950 . S
C3654 C3649 1.363 . S
C3654 C3653 1.415 . S
C3655 H3631 0.951 . S
C3655 C3656 1.366 . S
C3655 C3657 1.388 . S
C3656 C3655 1.366 . S
C3656 C3660 1.385 . S
C3657 H3632 0.951 . S
C3657 C3655 1.388 . S
C3657 C3658 1.366 . S
C3658 C3657 1.366 . S
C3658 C3659 1.414 . S
C3658 C3661 1.499 . S
C3659 H3633 0.950 . S
C3659 C3658 1.414 . S
C3659 C3660 1.374 . S
C3660 H3634 0.950 . S
C3660 C3656 1.385 . S
C3660 C3659 1.374 . S
C3661 C3658 1.499 . S
C3661 C3662 1.373 . S
C3661 C3663 1.389 . S
C3662 H3635 0.950 . S
C3662 C3648 1.377 . S
C3662 C3661 1.373 . S
C3663 C3647 1.377 . S
C3663 C3661 1.389 . S
C3663 C3664 1.524 . S
C3664 C3663 1.524 . S
C3664 C3665 1.397 . S
C3664 C3669 1.363 . S
C3665 H3636 0.950 . S
C3665 C3664 1.397 . S
C3665 C3666 1.334 . S
C3666 H3637 0.950 . S
C3666 C3665 1.334 . S
C3666 C3667 1.287 . S
C3667 C3666 1.287 . S
C3667 C3668 1.524 . S
C3667 H3670 0.999 . S
C3668 H3638 0.950 . S
C3668 C3667 1.524 . S
C3668 C3669 1.415 . S
C3669 H3639 0.950 . S
C3669 C3664 1.363 . S
C3669 C3668 1.415 . S
H3670 C3667 0.999 . S
H3671 C3652 0.913 . S
H3672 C3690 0.951 . S
H3673 C3692 0.951 . S
H3674 C3694 0.950 . S
H3675 C3695 0.950 . S
H3676 C3697 0.950 . S
H3677 C3700 0.950 . S
H3678 C3701 0.950 . S
H3679 C3703 0.950 . S
H3680 C3704 0.950 . S
H3681 C3705 0.951 . S
H3682 C3707 0.951 . S
H3683 C3709 0.950 . S
H3684 C3710 0.950 . S
H3685 C3712 0.950 . S
H3686 C3715 0.950 . S
H3687 C3716 0.950 . S
H3688 C3718 0.950 . S
H3689 C3719 0.950 . S
C3690 H3672 0.951 . S
C3690 C3691 1.366 . S
C3690 C3692 1.388 . S
C3691 C3690 1.366 . S
C3691 C3695 1.385 . S
C3692 H3673 0.951 . S
C3692 C3690 1.388 . S
C3692 C3693 1.366 . S
C3693 C3692 1.366 . S
C3693 C3694 1.414 . S
C3693 C3696 1.499 . S
C3694 H3674 0.950 . S
C3694 C3693 1.414 . S
C3694 C3695 1.374 . S
C3695 H3675 0.950 . S
C3695 C3691 1.385 . S
C3695 C3694 1.374 . S
C3696 C3693 1.499 . S
C3696 C3697 1.373 . S
C3696 C3698 1.389 . S
C3697 H3676 0.950 . S
C3697 C3696 1.373 . S
C3697 C3713 1.377 . S
C3698 C3696 1.389 . S
C3698 C3699 1.524 . S
C3698 C3712 1.377 . S
C3699 C3698 1.524 . S
C3699 C3700 1.397 . S
C3699 C3704 1.363 . S
C3700 H3677 0.950 . S
C3700 C3699 1.397 . S
C3700 C3701 1.334 . S
C3701 H3678 0.950 . S
C3701 C3700 1.334 . S
C3701 C3702 1.287 . S
C3702 C3701 1.287 . S
C3702 C3703 1.524 . S
C3702 H3721 0.913 . S
C3703 H3679 0.950 . S
C3703 C3702 1.524 . S
C3703 C3704 1.415 . S
C3704 H3680 0.950 . S
C3704 C3699 1.363 . S
C3704 C3703 1.415 . S
C3705 H3681 0.951 . S
C3705 C3706 1.366 . S
C3705 C3707 1.388 . S
C3706 C3705 1.366 . S
C3706 C3710 1.385 . S
C3707 H3682 0.951 . S
C3707 C3705 1.388 . S
C3707 C3708 1.366 . S
C3708 C3707 1.366 . S
C3708 C3709 1.414 . S
C3708 C3711 1.499 . S
C3709 H3683 0.950 . S
C3709 C3708 1.414 . S
C3709 C3710 1.374 . S
C3710 H3684 0.950 . S
C3710 C3706 1.385 . S
C3710 C3709 1.374 . S
C3711 C3708 1.499 . S
C3711 C3712 1.373 . S
C3711 C3713 1.389 . S
C3712 H3685 0.950 . S
C3712 C3698 1.377 . S
C3712 C3711 1.373 . S
C3713 C3697 1.377 . S
C3713 C3711 1.389 . S
C3713 C3714 1.524 . S
C3714 C3713 1.524 . S
C3714 C3715 1.397 . S
C3714 C3719 1.363 . S
C3715 H3686 0.950 . S
C3715 C3714 1.397 . S
C3715 C3716 1.334 . S
C3716 H3687 0.950 . S
C3716 C3715 1.334 . S
C3716 C3717 1.287 . S
C3717 C3716 1.287 . S
C3717 C3718 1.524 . S
C3717 H3720 0.999 . S
C3718 H3688 0.950 . S
C3718 C3717 1.524 . S
C3718 C3719 1.415 . S
C3719 H3689 0.950 . S
C3719 C3714 1.363 . S
C3719 C3718 1.415 . S
H3720 C3717 0.999 . S
H3721 C3702 0.913 . S
H3722 C3740 0.951 . S
H3723 C3742 0.951 . S
H3724 C3744 0.950 . S
H3725 C3745 0.950 . S
H3726 C3747 0.950 . S
H3727 C3750 0.950 . S
H3728 C3751 0.950 . S
H3729 C3753 0.950 . S
H3730 C3754 0.950 . S
H3731 C3755 0.951 . S
H3732 C3757 0.951 . S
H3733 C3759 0.950 . S
H3734 C3760 0.950 . S
H3735 C3762 0.950 1_554 S
H3736 C3765 0.961 . S
H3737 C3766 0.950 . S
H3738 C3768 0.950 . S
H3739 C3769 0.950 . S
C3740 H3722 0.951 . S
C3740 C3741 1.366 . S
C3740 C3742 1.388 . S
C3741 C3740 1.366 . S
C3741 C3745 1.385 . S
C3742 H3723 0.951 . S
C3742 C3740 1.388 . S
C3742 C3743 1.366 . S
C3743 C3742 1.366 . S
C3743 C3744 1.414 . S
C3743 C3746 1.499 . S
C3744 H3724 0.950 . S
C3744 C3743 1.414 . S
C3744 C3745 1.374 . S
C3745 H3725 0.950 . S
C3745 C3741 1.385 . S
C3745 C3744 1.374 . S
C3746 C3743 1.499 . S
C3746 C3747 1.373 . S
C3746 C3748 1.389 . S
C3747 H3726 0.950 . S
C3747 C3746 1.373 . S
C3747 C3763 1.377 . S
C3748 C3746 1.389 . S
C3748 C3749 1.524 . S
C3748 C3762 1.377 . S
C3749 C3748 1.524 . S
C3749 C3750 1.397 . S
C3749 C3754 1.363 . S
C3750 H3727 0.950 . S
C3750 C3749 1.397 . S
C3750 C3751 1.334 . S
C3751 H3728 0.950 . S
C3751 C3750 1.334 . S
C3751 C3752 1.287 . S
C3752 C3751 1.287 . S
C3752 C3753 1.524 . S
C3752 H3771 0.913 . S
C3753 H3729 0.950 . S
C3753 C3752 1.524 . S
C3753 C3754 1.415 . S
C3754 H3730 0.950 . S
C3754 C3749 1.363 . S
C3754 C3753 1.415 . S
C3755 H3731 0.951 . S
C3755 C3756 1.366 . S
C3755 C3757 1.388 . S
C3756 C3755 1.366 . S
C3756 C3760 1.385 . S
C3757 H3732 0.951 . S
C3757 C3755 1.388 . S
C3757 C3758 1.366 . S
C3758 C3757 1.366 . S
C3758 C3759 1.414 . S
C3758 C3761 1.499 . S
C3759 H3733 0.950 . S
C3759 C3758 1.414 . S
C3759 C3760 1.374 . S
C3760 H3734 0.950 . S
C3760 C3756 1.385 . S
C3760 C3759 1.374 . S
C3761 C3758 1.499 . S
C3761 C3762 1.373 1_554 S
C3761 C3763 1.389 1_554 S
C3762 H3735 0.950 1_556 S
C3762 C3748 1.377 . S
C3762 C3761 1.373 1_556 S
C3763 C3747 1.377 . S
C3763 C3761 1.389 1_556 S
C3763 C3764 1.524 . S
C3764 C3763 1.524 . S
C3764 C3765 1.376 1_556 S
C3764 C3769 1.363 . S
C3765 H3736 0.961 . S
C3765 C3764 1.376 1_554 S
C3765 C3766 1.347 . S
C3766 H3737 0.950 . S
C3766 C3765 1.347 . S
C3766 C3767 1.289 . S
C3767 C3766 1.289 . S
C3767 C3768 1.520 1_554 S
C3767 H3770 1.001 . S
C3768 H3738 0.950 . S
C3768 C3767 1.520 1_556 S
C3768 C3769 1.415 . S
C3769 H3739 0.950 . S
C3769 C3764 1.363 . S
C3769 C3768 1.415 . S
H3770 C3767 1.001 . S
H3771 C3752 0.913 . S
H3772 C3790 0.951 . S
H3773 C3792 0.951 . S
H3774 C3794 0.950 . S
H3775 C3795 0.950 . S
H3776 C3797 0.950 . S
H3777 C3800 0.950 . S
H3778 C3801 0.950 . S
H3779 C3803 0.950 . S
H3780 C3804 0.950 . S
H3781 C3805 0.951 . S
H3782 C3807 0.951 . S
H3783 C3809 0.950 . S
H3784 C3810 0.950 . S
H3785 C3812 0.950 . S
H3786 C3815 0.950 . S
H3787 C3816 0.950 . S
H3788 C3818 0.950 . S
H3789 C3819 0.950 . S
C3790 H3772 0.951 . S
C3790 C3791 1.366 . S
C3790 C3792 1.388 . S
C3791 C3790 1.366 . S
C3791 C3795 1.385 . S
C3792 H3773 0.951 . S
C3792 C3790 1.388 . S
C3792 C3793 1.366 . S
C3793 C3792 1.366 . S
C3793 C3794 1.414 . S
C3793 C3796 1.499 . S
C3794 H3774 0.950 . S
C3794 C3793 1.414 . S
C3794 C3795 1.374 . S
C3795 H3775 0.950 . S
C3795 C3791 1.385 . S
C3795 C3794 1.374 . S
C3796 C3793 1.499 . S
C3796 C3797 1.373 . S
C3796 C3798 1.389 . S
C3797 H3776 0.950 . S
C3797 C3796 1.373 . S
C3797 C3813 1.377 . S
C3798 C3796 1.389 . S
C3798 C3799 1.524 . S
C3798 C3812 1.377 . S
C3799 C3798 1.524 . S
C3799 C3800 1.397 . S
C3799 C3804 1.363 . S
C3800 H3777 0.950 . S
C3800 C3799 1.397 . S
C3800 C3801 1.334 . S
C3801 H3778 0.950 . S
C3801 C3800 1.334 . S
C3801 C3802 1.287 . S
C3802 C3801 1.287 . S
C3802 C3803 1.524 . S
C3802 H3821 0.913 . S
C3803 H3779 0.950 . S
C3803 C3802 1.524 . S
C3803 C3804 1.415 . S
C3804 H3780 0.950 . S
C3804 C3799 1.363 . S
C3804 C3803 1.415 . S
C3805 H3781 0.951 . S
C3805 C3806 1.366 . S
C3805 C3807 1.388 . S
C3806 C3805 1.366 . S
C3806 C3810 1.385 . S
C3807 H3782 0.951 . S
C3807 C3805 1.388 . S
C3807 C3808 1.366 . S
C3808 C3807 1.366 . S
C3808 C3809 1.414 . S
C3808 C3811 1.499 . S
C3809 H3783 0.950 . S
C3809 C3808 1.414 . S
C3809 C3810 1.374 . S
C3810 H3784 0.950 . S
C3810 C3806 1.385 . S
C3810 C3809 1.374 . S
C3811 C3808 1.499 . S
C3811 C3812 1.373 . S
C3811 C3813 1.389 . S
C3812 H3785 0.950 . S
C3812 C3798 1.377 . S
C3812 C3811 1.373 . S
C3813 C3797 1.377 . S
C3813 C3811 1.389 . S
C3813 C3814 1.524 . S
C3814 C3813 1.524 . S
C3814 C3815 1.397 . S
C3814 C3819 1.363 . S
C3815 H3786 0.950 . S
C3815 C3814 1.397 . S
C3815 C3816 1.334 . S
C3816 H3787 0.950 . S
C3816 C3815 1.334 . S
C3816 C3817 1.287 . S
C3817 C3816 1.287 . S
C3817 C3818 1.524 . S
C3817 H3820 0.999 . S
C3818 H3788 0.950 . S
C3818 C3817 1.524 . S
C3818 C3819 1.415 . S
C3819 H3789 0.950 . S
C3819 C3814 1.363 . S
C3819 C3818 1.415 . S
H3820 C3817 0.999 . S
H3821 C3802 0.913 . S
H3822 C3840 0.951 . S
H3823 C3842 0.951 . S
H3824 C3844 0.950 . S
H3825 C3845 0.950 . S
H3826 C3847 0.950 . S
H3827 C3850 0.950 . S
H3828 C3851 0.950 . S
H3829 C3853 0.950 . S
H3830 C3854 0.950 . S
H3831 C3855 0.951 . S
H3832 C3857 0.951 . S
H3833 C3859 0.950 . S
H3834 C3860 0.950 . S
H3835 C3862 0.950 . S
H3836 C3865 0.950 . S
H3837 C3866 0.950 . S
H3838 C3868 0.950 . S
H3839 C3869 0.950 . S
C3840 H3822 0.951 . S
C3840 C3841 1.366 . S
C3840 C3842 1.388 . S
C3841 C3840 1.366 . S
C3841 C3845 1.385 . S
C3842 H3823 0.951 . S
C3842 C3840 1.388 . S
C3842 C3843 1.366 . S
C3843 C3842 1.366 . S
C3843 C3844 1.414 . S
C3843 C3846 1.499 . S
C3844 H3824 0.950 . S
C3844 C3843 1.414 . S
C3844 C3845 1.374 . S
C3845 H3825 0.950 . S
C3845 C3841 1.385 . S
C3845 C3844 1.374 . S
C3846 C3843 1.499 . S
C3846 C3847 1.373 . S
C3846 C3848 1.389 . S
C3847 H3826 0.950 . S
C3847 C3846 1.373 . S
C3847 C3863 1.377 . S
C3848 C3846 1.389 . S
C3848 C3849 1.524 . S
C3848 C3862 1.377 . S
C3849 C3848 1.524 . S
C3849 C3850 1.397 . S
C3849 C3854 1.363 . S
C3850 H3827 0.950 . S
C3850 C3849 1.397 . S
C3850 C3851 1.334 . S
C3851 H3828 0.950 . S
C3851 C3850 1.334 . S
C3851 C3852 1.287 . S
C3852 C3851 1.287 . S
C3852 C3853 1.524 . S
C3852 H3871 0.913 . S
C3853 H3829 0.950 . S
C3853 C3852 1.524 . S
C3853 C3854 1.415 . S
C3854 H3830 0.950 . S
C3854 C3849 1.363 . S
C3854 C3853 1.415 . S
C3855 H3831 0.951 . S
C3855 C3856 1.366 . S
C3855 C3857 1.388 . S
C3856 C3855 1.366 . S
C3856 C3860 1.385 . S
C3857 H3832 0.951 . S
C3857 C3855 1.388 . S
C3857 C3858 1.366 . S
C3858 C3857 1.366 . S
C3858 C3859 1.414 . S
C3858 C3861 1.499 . S
C3859 H3833 0.950 . S
C3859 C3858 1.414 . S
C3859 C3860 1.374 . S
C3860 H3834 0.950 . S
C3860 C3856 1.385 . S
C3860 C3859 1.374 . S
C3861 C3858 1.499 . S
C3861 C3862 1.373 . S
C3861 C3863 1.389 . S
C3862 H3835 0.950 . S
C3862 C3848 1.377 . S
C3862 C3861 1.373 . S
C3863 C3847 1.377 . S
C3863 C3861 1.389 . S
C3863 C3864 1.524 . S
C3864 C3863 1.524 . S
C3864 C3865 1.397 . S
C3864 C3869 1.363 . S
C3865 H3836 0.950 . S
C3865 C3864 1.397 . S
C3865 C3866 1.334 . S
C3866 H3837 0.950 . S
C3866 C3865 1.334 . S
C3866 C3867 1.287 . S
C3867 C3866 1.287 . S
C3867 C3868 1.524 . S
C3867 H3870 0.999 . S
C3868 H3838 0.950 . S
C3868 C3867 1.524 . S
C3868 C3869 1.415 . S
C3869 H3839 0.950 . S
C3869 C3864 1.363 . S
C3869 C3868 1.415 . S
H3870 C3867 0.999 . S
H3871 C3852 0.913 . S
H3872 C3890 0.951 . S
H3873 C3892 0.951 . S
H3874 C3894 0.950 . S
H3875 C3895 0.950 . S
H3876 C3897 0.950 . S
H3877 C3900 0.950 . S
H3878 C3901 0.950 . S
H3879 C3903 0.950 . S
H3880 C3904 0.950 . S
H3881 C3905 0.951 . S
H3882 C3907 0.951 . S
H3883 C3909 0.950 . S
H3884 C3910 0.950 . S
H3885 C3912 0.950 . S
H3886 C3915 0.950 . S
H3887 C3916 0.950 . S
H3888 C3918 0.950 . S
H3889 C3919 0.950 . S
C3890 H3872 0.951 . S
C3890 C3891 1.366 . S
C3890 C3892 1.388 . S
C3891 C3890 1.366 . S
C3891 C3895 1.385 . S
C3892 H3873 0.951 . S
C3892 C3890 1.388 . S
C3892 C3893 1.366 . S
C3893 C3892 1.366 . S
C3893 C3894 1.414 . S
C3893 C3896 1.499 . S
C3894 H3874 0.950 . S
C3894 C3893 1.414 . S
C3894 C3895 1.374 . S
C3895 H3875 0.950 . S
C3895 C3891 1.385 . S
C3895 C3894 1.374 . S
C3896 C3893 1.499 . S
C3896 C3897 1.373 . S
C3896 C3898 1.389 . S
C3897 H3876 0.950 . S
C3897 C3896 1.373 . S
C3897 C3913 1.377 . S
C3898 C3896 1.389 . S
C3898 C3899 1.524 . S
C3898 C3912 1.377 . S
C3899 C3898 1.524 . S
C3899 C3900 1.397 . S
C3899 C3904 1.363 . S
C3900 H3877 0.950 . S
C3900 C3899 1.397 . S
C3900 C3901 1.334 . S
C3901 H3878 0.950 . S
C3901 C3900 1.334 . S
C3901 C3902 1.287 . S
C3902 C3901 1.287 . S
C3902 C3903 1.524 . S
C3902 H3921 0.913 . S
C3903 H3879 0.950 . S
C3903 C3902 1.524 . S
C3903 C3904 1.415 . S
C3904 H3880 0.950 . S
C3904 C3899 1.363 . S
C3904 C3903 1.415 . S
C3905 H3881 0.951 . S
C3905 C3906 1.366 . S
C3905 C3907 1.388 . S
C3906 C3905 1.366 . S
C3906 C3910 1.385 . S
C3907 H3882 0.951 . S
C3907 C3905 1.388 . S
C3907 C3908 1.366 . S
C3908 C3907 1.366 . S
C3908 C3909 1.414 . S
C3908 C3911 1.499 . S
C3909 H3883 0.950 . S
C3909 C3908 1.414 . S
C3909 C3910 1.374 . S
C3910 H3884 0.950 . S
C3910 C3906 1.385 . S
C3910 C3909 1.374 . S
C3911 C3908 1.499 . S
C3911 C3912 1.373 . S
C3911 C3913 1.389 . S
C3912 H3885 0.950 . S
C3912 C3898 1.377 . S
C3912 C3911 1.373 . S
C3913 C3897 1.377 . S
C3913 C3911 1.389 . S
C3913 C3914 1.524 . S
C3914 C3913 1.524 . S
C3914 C3915 1.397 . S
C3914 C3919 1.363 . S
C3915 H3886 0.950 . S
C3915 C3914 1.397 . S
C3915 C3916 1.334 . S
C3916 H3887 0.950 . S
C3916 C3915 1.334 . S
C3916 C3917 1.287 . S
C3917 C3916 1.287 . S
C3917 C3918 1.524 . S
C3917 H3920 0.999 . S
C3918 H3888 0.950 . S
C3918 C3917 1.524 . S
C3918 C3919 1.415 . S
C3919 H3889 0.950 . S
C3919 C3914 1.363 . S
C3919 C3918 1.415 . S
H3920 C3917 0.999 . S
H3921 C3902 0.913 . S
H3922 C3940 0.951 . S
H3923 C3942 0.951 . S
H3924 C3944 0.950 . S
H3925 C3945 0.950 . S
H3926 C3947 0.950 . S
H3927 C3950 0.950 . S
H3928 C3951 0.950 . S
H3929 C3953 0.950 . S
H3930 C3954 0.950 . S
H3931 C3955 0.951 . S
H3932 C3957 0.951 . S
H3933 C3959 0.950 . S
H3934 C3960 0.950 . S
H3935 C3962 0.950 . S
H3936 C3965 0.950 . S
H3937 C3966 0.950 . S
H3938 C3968 0.950 . S
H3939 C3969 0.950 . S
C3940 H3922 0.951 . S
C3940 C3941 1.366 . S
C3940 C3942 1.388 . S
C3941 C3940 1.366 . S
C3941 C3945 1.385 . S
C3942 H3923 0.951 . S
C3942 C3940 1.388 . S
C3942 C3943 1.366 . S
C3943 C3942 1.366 . S
C3943 C3944 1.414 . S
C3943 C3946 1.499 . S
C3944 H3924 0.950 . S
C3944 C3943 1.414 . S
C3944 C3945 1.374 . S
C3945 H3925 0.950 . S
C3945 C3941 1.385 . S
C3945 C3944 1.374 . S
C3946 C3943 1.499 . S
C3946 C3947 1.373 . S
C3946 C3948 1.389 . S
C3947 H3926 0.950 . S
C3947 C3946 1.373 . S
C3947 C3963 1.377 . S
C3948 C3946 1.389 . S
C3948 C3949 1.524 . S
C3948 C3962 1.377 . S
C3949 C3948 1.524 . S
C3949 C3950 1.397 . S
C3949 C3954 1.363 . S
C3950 H3927 0.950 . S
C3950 C3949 1.397 . S
C3950 C3951 1.334 . S
C3951 H3928 0.950 . S
C3951 C3950 1.334 . S
C3951 C3952 1.287 . S
C3952 C3951 1.287 . S
C3952 C3953 1.524 . S
C3952 H3971 0.913 . S
C3953 H3929 0.950 . S
C3953 C3952 1.524 . S
C3953 C3954 1.415 . S
C3954 H3930 0.950 . S
C3954 C3949 1.363 . S
C3954 C3953 1.415 . S
C3955 H3931 0.951 . S
C3955 C3956 1.366 . S
C3955 C3957 1.388 . S
C3956 C3955 1.366 . S
C3956 C3960 1.385 . S
C3957 H3932 0.951 . S
C3957 C3955 1.388 . S
C3957 C3958 1.366 . S
C3958 C3957 1.366 . S
C3958 C3959 1.414 . S
C3958 C3961 1.499 . S
C3959 H3933 0.950 . S
C3959 C3958 1.414 . S
C3959 C3960 1.374 . S
C3960 H3934 0.950 . S
C3960 C3956 1.385 . S
C3960 C3959 1.374 . S
C3961 C3958 1.499 . S
C3961 C3962 1.373 . S
C3961 C3963 1.389 . S
C3962 H3935 0.950 . S
C3962 C3948 1.377 . S
C3962 C3961 1.373 . S
C3963 C3947 1.377 . S
C3963 C3961 1.389 . S
C3963 C3964 1.524 . S
C3964 C3963 1.524 . S
C3964 C3965 1.397 . S
C3964 C3969 1.363 . S
C3965 H3936 0.950 . S
C3965 C3964 1.397 . S
C3965 C3966 1.334 . S
C3966 H3937 0.950 . S
C3966 C3965 1.334 . S
C3966 C3967 1.287 . S
C3967 C3966 1.287 . S
C3967 C3968 1.524 . S
C3967 H3970 0.999 . S
C3968 H3938 0.950 . S
C3968 C3967 1.524 . S
C3968 C3969 1.415 . S
C3969 H3939 0.950 . S
C3969 C3964 1.363 . S
C3969 C3968 1.415 . S
H3970 C3967 0.999 . S
H3971 C3952 0.913 . S
H3972 C3990 0.951 . S
H3973 C3992 0.951 . S
H3974 C3994 0.950 . S
H3975 C3995 0.950 . S
H3976 C3997 0.950 . S
H3977 C4000 0.950 . S
H3978 C4001 0.950 . S
H3979 C4003 0.950 . S
H3980 C4004 0.950 . S
H3981 C4005 0.951 . S
H3982 C4007 0.951 . S
H3983 C4009 0.950 . S
H3984 C4010 0.950 . S
H3985 C4012 0.950 . S
H3986 C4015 0.950 . S
H3987 C4016 0.950 . S
H3988 C4018 0.950 . S
H3989 C4019 0.950 . S
C3990 H3972 0.951 . S
C3990 C3991 1.366 . S
C3990 C3992 1.388 . S
C3991 C3990 1.366 . S
C3991 C3995 1.385 . S
C3992 H3973 0.951 . S
C3992 C3990 1.388 . S
C3992 C3993 1.366 . S
C3993 C3992 1.366 . S
C3993 C3994 1.414 . S
C3993 C3996 1.499 . S
C3994 H3974 0.950 . S
C3994 C3993 1.414 . S
C3994 C3995 1.374 . S
C3995 H3975 0.950 . S
C3995 C3991 1.385 . S
C3995 C3994 1.374 . S
C3996 C3993 1.499 . S
C3996 C3997 1.373 . S
C3996 C3998 1.389 . S
C3997 H3976 0.950 . S
C3997 C3996 1.373 . S
C3997 C4013 1.377 . S
C3998 C3996 1.389 . S
C3998 C3999 1.524 . S
C3998 C4012 1.377 . S
C3999 C3998 1.524 . S
C3999 C4000 1.397 . S
C3999 C4004 1.363 . S
C4000 H3977 0.950 . S
C4000 C3999 1.397 . S
C4000 C4001 1.334 . S
C4001 H3978 0.950 . S
C4001 C4000 1.334 . S
C4001 C4002 1.287 . S
C4002 C4001 1.287 . S
C4002 C4003 1.524 . S
C4002 H4021 0.913 . S
C4003 H3979 0.950 . S
C4003 C4002 1.524 . S
C4003 C4004 1.415 . S
C4004 H3980 0.950 . S
C4004 C3999 1.363 . S
C4004 C4003 1.415 . S
C4005 H3981 0.951 . S
C4005 C4006 1.366 . S
C4005 C4007 1.388 . S
C4006 C4005 1.366 . S
C4006 C4010 1.385 . S
C4007 H3982 0.951 . S
C4007 C4005 1.388 . S
C4007 C4008 1.366 . S
C4008 C4007 1.366 . S
C4008 C4009 1.414 . S
C4008 C4011 1.429 1_565 S
C4009 H3983 0.950 . S
C4009 C4008 1.414 . S
C4009 C4010 1.374 . S
C4010 H3984 0.950 . S
C4010 C4006 1.385 . S
C4010 C4009 1.374 . S
C4011 C4008 1.429 1_545 S
C4011 C4012 1.416 . S
C4011 C4013 1.422 . S
C4012 H3985 0.950 . S
C4012 C3998 1.377 . S
C4012 C4011 1.416 . S
C4013 C3997 1.377 . S
C4013 C4011 1.422 . S
C4013 C4014 1.524 1_545 S
C4014 C4013 1.524 1_565 S
C4014 C4015 1.397 . S
C4014 C4019 1.363 1_565 S
C4015 H3986 0.950 . S
C4015 C4014 1.397 . S
C4015 C4016 1.334 . S
C4016 H3987 0.950 . S
C4016 C4015 1.334 . S
C4016 C4017 1.287 . S
C4017 C4016 1.287 . S
C4017 C4018 1.524 . S
C4017 H4020 0.999 . S
C4018 H3988 0.950 . S
C4018 C4017 1.524 . S
C4018 C4019 1.415 1_565 S
C4019 H3989 0.950 . S
C4019 C4014 1.363 1_545 S
C4019 C4018 1.415 1_545 S
H4020 C4017 0.999 . S
H4021 C4002 0.913 . S
H4022 C4040 0.951 . S
H4023 C4042 0.951 . S
H4024 C4044 0.950 . S
H4025 C4045 0.950 . S
H4026 C4047 0.950 . S
H4027 C4050 0.950 . S
H4028 C4051 0.950 . S
H4029 C4053 0.950 . S
H4030 C4054 0.950 . S
H4031 C4055 0.951 . S
H4032 C4057 0.951 . S
H4033 C4059 0.950 . S
H4034 C4060 0.950 . S
H4035 C4062 0.950 . S
H4036 C4065 0.950 . S
H4037 C4066 0.950 . S
H4038 C4068 0.950 . S
H4039 C4069 0.950 . S
C4040 H4022 0.951 . S
C4040 C4041 1.366 . S
C4040 C4042 1.388 . S
C4041 C4040 1.366 . S
C4041 C4045 1.385 . S
C4042 H4023 0.951 . S
C4042 C4040 1.388 . S
C4042 C4043 1.366 . S
C4043 C4042 1.366 . S
C4043 C4044 1.414 . S
C4043 C4046 1.499 . S
C4044 H4024 0.950 . S
C4044 C4043 1.414 . S
C4044 C4045 1.374 . S
C4045 H4025 0.950 . S
C4045 C4041 1.385 . S
C4045 C4044 1.374 . S
C4046 C4043 1.499 . S
C4046 C4047 1.373 . S
C4046 C4048 1.389 . S
C4047 H4026 0.950 . S
C4047 C4046 1.373 . S
C4047 C4063 1.377 . S
C4048 C4046 1.389 . S
C4048 C4049 1.524 . S
C4048 C4062 1.377 . S
C4049 C4048 1.524 . S
C4049 C4050 1.397 . S
C4049 C4054 1.363 . S
C4050 H4027 0.950 . S
C4050 C4049 1.397 . S
C4050 C4051 1.334 . S
C4051 H4028 0.950 . S
C4051 C4050 1.334 . S
C4051 C4052 1.287 . S
C4052 C4051 1.287 . S
C4052 C4053 1.524 . S
C4052 H4071 0.913 . S
C4053 H4029 0.950 . S
C4053 C4052 1.524 . S
C4053 C4054 1.415 . S
C4054 H4030 0.950 . S
C4054 C4049 1.363 . S
C4054 C4053 1.415 . S
C4055 H4031 0.951 . S
C4055 C4056 1.366 . S
C4055 C4057 1.388 . S
C4056 C4055 1.366 . S
C4056 C4060 1.385 . S
C4057 H4032 0.951 . S
C4057 C4055 1.388 . S
C4057 C4058 1.366 . S
C4058 C4057 1.366 . S
C4058 C4059 1.414 . S
C4058 C4061 1.499 . S
C4059 H4033 0.950 . S
C4059 C4058 1.414 . S
C4059 C4060 1.374 . S
C4060 H4034 0.950 . S
C4060 C4056 1.385 . S
C4060 C4059 1.374 . S
C4061 C4058 1.499 . S
C4061 C4062 1.373 . S
C4061 C4063 1.389 . S
C4062 H4035 0.950 . S
C4062 C4048 1.377 . S
C4062 C4061 1.373 . S
C4063 C4047 1.377 . S
C4063 C4061 1.389 . S
C4063 C4064 1.524 . S
C4064 C4063 1.524 . S
C4064 C4065 1.397 . S
C4064 C4069 1.363 . S
C4065 H4036 0.950 . S
C4065 C4064 1.397 . S
C4065 C4066 1.334 . S
C4066 H4037 0.950 . S
C4066 C4065 1.334 . S
C4066 C4067 1.287 . S
C4067 C4066 1.287 . S
C4067 C4068 1.524 . S
C4067 H4070 0.999 . S
C4068 H4038 0.950 . S
C4068 C4067 1.524 . S
C4068 C4069 1.415 . S
C4069 H4039 0.950 . S
C4069 C4064 1.363 . S
C4069 C4068 1.415 . S
H4070 C4067 0.999 . S
H4071 C4052 0.913 . S
H4072 C4090 0.951 . S
H4073 C4092 0.951 . S
H4074 C4094 0.950 . S
H4075 C4095 0.950 . S
H4076 C4097 0.950 . S
H4077 C4100 0.950 . S
H4078 C4101 0.950 . S
H4079 C4103 0.950 . S
H4080 C4104 0.950 . S
H4081 C4105 0.951 . S
H4082 C4107 0.951 . S
H4083 C4109 0.950 . S
H4084 C4110 0.950 . S
H4085 C4112 0.950 . S
H4086 C4115 0.950 . S
H4087 C4116 0.950 . S
H4088 C4118 0.950 . S
H4089 C4119 0.950 . S
C4090 H4072 0.951 . S
C4090 C4091 1.366 . S
C4090 C4092 1.388 . S
C4091 C4090 1.366 . S
C4091 C4095 1.385 . S
C4092 H4073 0.951 . S
C4092 C4090 1.388 . S
C4092 C4093 1.366 . S
C4093 C4092 1.366 . S
C4093 C4094 1.414 . S
C4093 C4096 1.499 . S
C4094 H4074 0.950 . S
C4094 C4093 1.414 . S
C4094 C4095 1.374 . S
C4095 H4075 0.950 . S
C4095 C4091 1.385 . S
C4095 C4094 1.374 . S
C4096 C4093 1.499 . S
C4096 C4097 1.373 . S
C4096 C4098 1.389 . S
C4097 H4076 0.950 . S
C4097 C4096 1.373 . S
C4097 C4113 1.377 . S
C4098 C4096 1.389 . S
C4098 C4099 1.524 . S
C4098 C4112 1.377 . S
C4099 C4098 1.524 . S
C4099 C4100 1.397 . S
C4099 C4104 1.363 . S
C4100 H4077 0.950 . S
C4100 C4099 1.397 . S
C4100 C4101 1.334 . S
C4101 H4078 0.950 . S
C4101 C4100 1.334 . S
C4101 C4102 1.287 . S
C4102 C4101 1.287 . S
C4102 C4103 1.524 . S
C4102 H4121 0.913 . S
C4103 H4079 0.950 . S
C4103 C4102 1.524 . S
C4103 C4104 1.415 . S
C4104 H4080 0.950 . S
C4104 C4099 1.363 . S
C4104 C4103 1.415 . S
C4105 H4081 0.951 . S
C4105 C4106 1.366 . S
C4105 C4107 1.388 . S
C4106 C4105 1.366 . S
C4106 C4110 1.385 . S
C4107 H4082 0.951 . S
C4107 C4105 1.388 . S
C4107 C4108 1.366 . S
C4108 C4107 1.366 . S
C4108 C4109 1.414 . S
C4108 C4111 1.499 . S
C4109 H4083 0.950 . S
C4109 C4108 1.414 . S
C4109 C4110 1.374 . S
C4110 H4084 0.950 . S
C4110 C4106 1.385 . S
C4110 C4109 1.374 . S
C4111 C4108 1.499 . S
C4111 C4112 1.373 . S
C4111 C4113 1.389 . S
C4112 H4085 0.950 . S
C4112 C4098 1.377 . S
C4112 C4111 1.373 . S
C4113 C4097 1.377 . S
C4113 C4111 1.389 . S
C4113 C4114 1.524 . S
C4114 C4113 1.524 . S
C4114 C4115 1.397 . S
C4114 C4119 1.363 . S
C4115 H4086 0.950 . S
C4115 C4114 1.397 . S
C4115 C4116 1.334 . S
C4116 H4087 0.950 . S
C4116 C4115 1.334 . S
C4116 C4117 1.287 . S
C4117 C4116 1.287 . S
C4117 C4118 1.524 . S
C4117 H4120 0.999 . S
C4118 H4088 0.950 . S
C4118 C4117 1.524 . S
C4118 C4119 1.415 . S
C4119 H4089 0.950 . S
C4119 C4114 1.363 . S
C4119 C4118 1.415 . S
H4120 C4117 0.999 . S
H4121 C4102 0.913 . S
H4122 C4140 0.951 . S
H4123 C4142 0.951 . S
H4124 C4144 0.950 . S
H4125 C4145 0.950 . S
H4126 C4147 0.950 . S
H4127 C4150 0.950 . S
H4128 C4151 0.950 . S
H4129 C4153 0.950 . S
H4130 C4154 0.950 . S
H4131 C4155 0.951 . S
H4132 C4157 0.951 . S
H4133 C4159 0.950 . S
H4134 C4160 0.950 . S
H4135 C4162 0.950 . S
H4136 C4165 0.950 . S
H4137 C4166 0.950 . S
H4138 C4168 0.950 . S
H4139 C4169 0.950 . S
C4140 H4122 0.951 . S
C4140 C4141 1.366 . S
C4140 C4142 1.388 . S
C4141 C4140 1.366 . S
C4141 C4145 1.385 . S
C4142 H4123 0.951 . S
C4142 C4140 1.388 . S
C4142 C4143 1.366 . S
C4143 C4142 1.366 . S
C4143 C4144 1.414 . S
C4143 C4146 1.499 . S
C4144 H4124 0.950 . S
C4144 C4143 1.414 . S
C4144 C4145 1.374 . S
C4145 H4125 0.950 . S
C4145 C4141 1.385 . S
C4145 C4144 1.374 . S
C4146 C4143 1.499 . S
C4146 C4147 1.373 . S
C4146 C4148 1.389 . S
C4147 H4126 0.950 . S
C4147 C4146 1.373 . S
C4147 C4163 1.377 . S
C4148 C4146 1.389 . S
C4148 C4149 1.524 . S
C4148 C4162 1.377 . S
C4149 C4148 1.524 . S
C4149 C4150 1.397 . S
C4149 C4154 1.363 . S
C4150 H4127 0.950 . S
C4150 C4149 1.397 . S
C4150 C4151 1.334 . S
C4151 H4128 0.950 . S
C4151 C4150 1.334 . S
C4151 C4152 1.287 . S
C4152 C4151 1.287 . S
C4152 C4153 1.524 . S
C4152 H4171 0.913 . S
C4153 H4129 0.950 . S
C4153 C4152 1.524 . S
C4153 C4154 1.415 . S
C4154 H4130 0.950 . S
C4154 C4149 1.363 . S
C4154 C4153 1.415 . S
C4155 H4131 0.951 . S
C4155 C4156 1.366 . S
C4155 C4157 1.388 . S
C4156 C4155 1.366 . S
C4156 C4160 1.385 . S
C4157 H4132 0.951 . S
C4157 C4155 1.388 . S
C4157 C4158 1.366 . S
C4158 C4157 1.366 . S
C4158 C4159 1.414 . S
C4158 C4161 1.499 . S
C4159 H4133 0.950 . S
C4159 C4158 1.414 . S
C4159 C4160 1.374 . S
C4160 H4134 0.950 . S
C4160 C4156 1.385 . S
C4160 C4159 1.374 . S
C4161 C4158 1.499 . S
C4161 C4162 1.373 . S
C4161 C4163 1.389 . S
C4162 H4135 0.950 . S
C4162 C4148 1.377 . S
C4162 C4161 1.373 . S
C4163 C4147 1.377 . S
C4163 C4161 1.389 . S
C4163 C4164 1.524 . S
C4164 C4163 1.524 . S
C4164 C4165 1.397 . S
C4164 C4169 1.363 . S
C4165 H4136 0.950 . S
C4165 C4164 1.397 . S
C4165 C4166 1.334 . S
C4166 H4137 0.950 . S
C4166 C4165 1.334 . S
C4166 C4167 1.287 . S
C4167 C4166 1.287 . S
C4167 C4168 1.524 . S
C4167 H4170 0.999 . S
C4168 H4138 0.950 . S
C4168 C4167 1.524 . S
C4168 C4169 1.415 . S
C4169 H4139 0.950 . S
C4169 C4164 1.363 . S
C4169 C4168 1.415 . S
H4170 C4167 0.999 . S
H4171 C4152 0.913 . S
H4172 C4190 0.951 . S
H4173 C4192 0.951 . S
H4174 C4194 0.950 . S
H4175 C4195 0.950 . S
H4176 C4197 0.950 . S
H4177 C4200 0.950 . S
H4178 C4201 0.950 . S
H4179 C4203 0.950 . S
H4180 C4204 0.950 . S
H4181 C4205 0.951 . S
H4182 C4207 0.951 . S
H4183 C4209 0.950 . S
H4184 C4210 0.950 . S
H4185 C4212 0.950 . S
H4186 C4215 0.950 . S
H4187 C4216 0.950 . S
H4188 C4218 0.950 . S
H4189 C4219 0.950 . S
C4190 H4172 0.951 . S
C4190 C4191 1.366 . S
C4190 C4192 1.388 . S
C4191 C4190 1.366 . S
C4191 C4195 1.385 . S
C4192 H4173 0.951 . S
C4192 C4190 1.388 . S
C4192 C4193 1.366 . S
C4193 C4192 1.366 . S
C4193 C4194 1.414 . S
C4193 C4196 1.499 1_545 S
C4194 H4174 0.950 . S
C4194 C4193 1.414 . S
C4194 C4195 1.374 . S
C4195 H4175 0.950 . S
C4195 C4191 1.385 . S
C4195 C4194 1.374 . S
C4196 C4193 1.499 1_565 S
C4196 C4197 1.373 . S
C4196 C4198 1.389 . S
C4197 H4176 0.950 . S
C4197 C4196 1.373 . S
C4197 C4213 1.377 . S
C4198 C4196 1.389 . S
C4198 C4199 1.524 . S
C4198 C4212 1.377 . S
C4199 C4198 1.524 . S
C4199 C4200 1.397 1_565 S
C4199 C4204 1.363 . S
C4200 H4177 0.950 . S
C4200 C4199 1.397 1_545 S
C4200 C4201 1.334 . S
C4201 H4178 0.950 . S
C4201 C4200 1.334 . S
C4201 C4202 1.287 . S
C4202 C4201 1.287 . S
C4202 C4203 1.524 . S
C4202 H4221 0.913 . S
C4203 H4179 0.950 . S
C4203 C4202 1.524 . S
C4203 C4204 1.415 1_545 S
C4204 H4180 0.950 . S
C4204 C4199 1.363 . S
C4204 C4203 1.415 1_565 S
C4205 H4181 0.951 . S
C4205 C4206 1.366 . S
C4205 C4207 1.388 . S
C4206 C4205 1.366 . S
C4206 C4210 1.385 . S
C4207 H4182 0.951 . S
C4207 C4205 1.388 . S
C4207 C4208 1.366 . S
C4208 C4207 1.366 . S
C4208 C4209 1.414 . S
C4208 C4211 1.499 . S
C4209 H4183 0.950 . S
C4209 C4208 1.414 . S
C4209 C4210 1.374 . S
C4210 H4184 0.950 . S
C4210 C4206 1.385 . S
C4210 C4209 1.374 . S
C4211 C4208 1.499 . S
C4211 C4212 1.373 . S
C4211 C4213 1.389 . S
C4212 H4185 0.950 . S
C4212 C4198 1.377 . S
C4212 C4211 1.373 . S
C4213 C4197 1.377 . S
C4213 C4211 1.389 . S
C4213 C4214 1.524 . S
C4214 C4213 1.524 . S
C4214 C4215 1.397 . S
C4214 C4219 1.363 . S
C4215 H4186 0.950 . S
C4215 C4214 1.397 . S
C4215 C4216 1.334 . S
C4216 H4187 0.950 . S
C4216 C4215 1.334 . S
C4216 C4217 1.287 . S
C4217 C4216 1.287 . S
C4217 C4218 1.524 . S
C4217 H4220 0.999 . S
C4218 H4188 0.950 . S
C4218 C4217 1.524 . S
C4218 C4219 1.415 . S
C4219 H4189 0.950 . S
C4219 C4214 1.363 . S
C4219 C4218 1.415 . S
H4220 C4217 0.999 . S
H4221 C4202 0.913 . S
H4222 C4240 0.951 . S
H4223 C4242 0.951 . S
H4224 C4244 0.950 . S
H4225 C4245 0.950 . S
H4226 C4247 0.950 . S
H4227 C4250 0.950 . S
H4228 C4251 0.950 . S
H4229 C4253 0.950 . S
H4230 C4254 0.950 . S
H4231 C4255 0.951 . S
H4232 C4257 0.951 . S
H4233 C4259 0.950 . S
H4234 C4260 0.950 . S
H4235 C4262 0.950 . S
H4236 C4265 0.950 . S
H4237 C4266 0.950 . S
H4238 C4268 0.950 . S
H4239 C4269 0.950 . S
C4240 H4222 0.951 . S
C4240 C4241 1.366 . S
C4240 C4242 1.388 . S
C4241 C4240 1.366 . S
C4241 C4245 1.385 . S
C4242 H4223 0.951 . S
C4242 C4240 1.388 . S
C4242 C4243 1.366 . S
C4243 C4242 1.366 . S
C4243 C4244 1.414 . S
C4243 C4246 1.499 . S
C4244 H4224 0.950 . S
C4244 C4243 1.414 . S
C4244 C4245 1.374 . S
C4245 H4225 0.950 . S
C4245 C4241 1.385 . S
C4245 C4244 1.374 . S
C4246 C4243 1.499 . S
C4246 C4247 1.373 . S
C4246 C4248 1.389 . S
C4247 H4226 0.950 . S
C4247 C4246 1.373 . S
C4247 C4263 1.377 . S
C4248 C4246 1.389 . S
C4248 C4249 1.524 . S
C4248 C4262 1.377 . S
C4249 C4248 1.524 . S
C4249 C4250 1.397 . S
C4249 C4254 1.363 . S
C4250 H4227 0.950 . S
C4250 C4249 1.397 . S
C4250 C4251 1.334 . S
C4251 H4228 0.950 . S
C4251 C4250 1.334 . S
C4251 C4252 1.287 . S
C4252 C4251 1.287 . S
C4252 C4253 1.524 . S
C4252 H4271 0.913 . S
C4253 H4229 0.950 . S
C4253 C4252 1.524 . S
C4253 C4254 1.415 . S
C4254 H4230 0.950 . S
C4254 C4249 1.363 . S
C4254 C4253 1.415 . S
C4255 H4231 0.951 . S
C4255 C4256 1.366 . S
C4255 C4257 1.388 . S
C4256 C4255 1.366 . S
C4256 C4260 1.385 . S
C4257 H4232 0.951 . S
C4257 C4255 1.388 . S
C4257 C4258 1.366 . S
C4258 C4257 1.366 . S
C4258 C4259 1.414 . S
C4258 C4261 1.499 1_565 S
C4259 H4233 0.950 . S
C4259 C4258 1.414 . S
C4259 C4260 1.374 . S
C4260 H4234 0.950 . S
C4260 C4256 1.385 . S
C4260 C4259 1.374 . S
C4261 C4258 1.499 1_545 S
C4261 C4262 1.373 . S
C4261 C4263 1.389 . S
C4262 H4235 0.950 . S
C4262 C4248 1.377 . S
C4262 C4261 1.373 . S
C4263 C4247 1.377 . S
C4263 C4261 1.389 . S
C4263 C4264 1.524 . S
C4264 C4263 1.524 . S
C4264 C4265 1.397 1_545 S
C4264 C4269 1.363 . S
C4265 H4236 0.950 . S
C4265 C4264 1.397 1_565 S
C4265 C4266 1.334 . S
C4266 H4237 0.950 . S
C4266 C4265 1.334 . S
C4266 C4267 1.287 . S
C4267 C4266 1.287 . S
C4267 C4268 1.524 . S
C4267 H4270 0.999 . S
C4268 H4238 0.950 . S
C4268 C4267 1.524 . S
C4268 C4269 1.415 1_565 S
C4269 H4239 0.950 . S
C4269 C4264 1.363 . S
C4269 C4268 1.415 1_545 S
H4270 C4267 0.999 . S
H4271 C4252 0.913 . S
H4272 C4290 0.951 . S
H4273 C4292 0.951 . S
H4274 C4294 0.950 . S
H4275 C4295 0.950 . S
H4276 C4297 0.950 . S
H4277 C4300 0.950 . S
H4278 C4301 0.950 . S
H4279 C4303 0.950 . S
H4280 C4304 0.950 . S
H4281 C4305 0.951 . S
H4282 C4307 0.951 . S
H4283 C4309 0.950 . S
H4284 C4310 0.950 . S
H4285 C4312 0.950 . S
H4286 C4315 0.950 . S
H4287 C4316 0.950 . S
H4288 C4318 0.950 . S
H4289 C4319 0.950 . S
C4290 H4272 0.951 . S
C4290 C4291 1.366 . S
C4290 C4292 1.388 . S
C4291 C4290 1.366 . S
C4291 C4295 1.385 . S
C4292 H4273 0.951 . S
C4292 C4290 1.388 . S
C4292 C4293 1.366 . S
C4293 C4292 1.366 . S
C4293 C4294 1.414 . S
C4293 C4296 1.499 . S
C4294 H4274 0.950 . S
C4294 C4293 1.414 . S
C4294 C4295 1.374 . S
C4295 H4275 0.950 . S
C4295 C4291 1.385 . S
C4295 C4294 1.374 . S
C4296 C4293 1.499 . S
C4296 C4297 1.373 . S
C4296 C4298 1.389 . S
C4297 H4276 0.950 . S
C4297 C4296 1.373 . S
C4297 C4313 1.377 . S
C4298 C4296 1.389 . S
C4298 C4299 1.524 . S
C4298 C4312 1.377 . S
C4299 C4298 1.524 . S
C4299 C4300 1.397 . S
C4299 C4304 1.363 . S
C4300 H4277 0.950 . S
C4300 C4299 1.397 . S
C4300 C4301 1.334 . S
C4301 H4278 0.950 . S
C4301 C4300 1.334 . S
C4301 C4302 1.287 . S
C4302 C4301 1.287 . S
C4302 C4303 1.524 . S
C4302 H4321 0.913 . S
C4303 H4279 0.950 . S
C4303 C4302 1.524 . S
C4303 C4304 1.415 . S
C4304 H4280 0.950 . S
C4304 C4299 1.363 . S
C4304 C4303 1.415 . S
C4305 H4281 0.951 . S
C4305 C4306 1.366 . S
C4305 C4307 1.388 . S
C4306 C4305 1.366 . S
C4306 C4310 1.385 . S
C4307 H4282 0.951 . S
C4307 C4305 1.388 . S
C4307 C4308 1.366 . S
C4308 C4307 1.366 . S
C4308 C4309 1.414 . S
C4308 C4311 1.499 . S
C4309 H4283 0.950 . S
C4309 C4308 1.414 . S
C4309 C4310 1.374 . S
C4310 H4284 0.950 . S
C4310 C4306 1.385 . S
C4310 C4309 1.374 . S
C4311 C4308 1.499 . S
C4311 C4312 1.373 . S
C4311 C4313 1.389 . S
C4312 H4285 0.950 . S
C4312 C4298 1.377 . S
C4312 C4311 1.373 . S
C4313 C4297 1.377 . S
C4313 C4311 1.389 . S
C4313 C4314 1.524 . S
C4314 C4313 1.524 . S
C4314 C4315 1.397 . S
C4314 C4319 1.363 . S
C4315 H4286 0.950 . S
C4315 C4314 1.397 . S
C4315 C4316 1.334 . S
C4316 H4287 0.950 . S
C4316 C4315 1.334 . S
C4316 C4317 1.287 . S
C4317 C4316 1.287 . S
C4317 C4318 1.524 . S
C4317 H4320 0.999 . S
C4318 H4288 0.950 . S
C4318 C4317 1.524 . S
C4318 C4319 1.415 . S
C4319 H4289 0.950 . S
C4319 C4314 1.363 . S
C4319 C4318 1.415 . S
H4320 C4317 0.999 . S
H4321 C4302 0.913 . S
H4322 C4340 0.951 . S
H4323 C4342 0.951 . S
H4324 C4344 0.950 . S
H4325 C4345 0.950 . S
H4326 C4347 0.950 . S
H4327 C4350 0.950 . S
H4328 C4351 0.950 . S
H4329 C4353 0.950 . S
H4330 C4354 0.950 . S
H4331 C4355 0.951 . S
H4332 C4357 0.951 . S
H4333 C4359 0.950 . S
H4334 C4360 0.950 . S
H4335 C4362 0.950 . S
H4336 C4365 0.950 . S
H4337 C4366 0.950 . S
H4338 C4368 0.950 . S
H4339 C4369 0.950 . S
C4340 H4322 0.951 . S
C4340 C4341 1.366 . S
C4340 C4342 1.388 . S
C4341 C4340 1.366 . S
C4341 C4345 1.385 . S
C4342 H4323 0.951 . S
C4342 C4340 1.388 . S
C4342 C4343 1.366 . S
C4343 C4342 1.366 . S
C4343 C4344 1.414 . S
C4343 C4346 1.499 . S
C4344 H4324 0.950 . S
C4344 C4343 1.414 . S
C4344 C4345 1.374 . S
C4345 H4325 0.950 . S
C4345 C4341 1.385 . S
C4345 C4344 1.374 . S
C4346 C4343 1.499 . S
C4346 C4347 1.373 . S
C4346 C4348 1.389 . S
C4347 H4326 0.950 . S
C4347 C4346 1.373 . S
C4347 C4363 1.377 . S
C4348 C4346 1.389 . S
C4348 C4349 1.524 . S
C4348 C4362 1.377 . S
C4349 C4348 1.524 . S
C4349 C4350 1.397 . S
C4349 C4354 1.363 . S
C4350 H4327 0.950 . S
C4350 C4349 1.397 . S
C4350 C4351 1.334 . S
C4351 H4328 0.950 . S
C4351 C4350 1.334 . S
C4351 C4352 1.287 . S
C4352 C4351 1.287 . S
C4352 C4353 1.524 . S
C4352 H4371 0.913 . S
C4353 H4329 0.950 . S
C4353 C4352 1.524 . S
C4353 C4354 1.415 . S
C4354 H4330 0.950 . S
C4354 C4349 1.363 . S
C4354 C4353 1.415 . S
C4355 H4331 0.951 . S
C4355 C4356 1.366 . S
C4355 C4357 1.388 . S
C4356 C4355 1.366 . S
C4356 C4360 1.385 . S
C4357 H4332 0.951 . S
C4357 C4355 1.388 . S
C4357 C4358 1.366 . S
C4358 C4357 1.366 . S
C4358 C4359 1.414 . S
C4358 C4361 1.499 . S
C4359 H4333 0.950 . S
C4359 C4358 1.414 . S
C4359 C4360 1.374 . S
C4360 H4334 0.950 . S
C4360 C4356 1.385 . S
C4360 C4359 1.374 . S
C4361 C4358 1.499 . S
C4361 C4362 1.373 . S
C4361 C4363 1.389 . S
C4362 H4335 0.950 . S
C4362 C4348 1.377 . S
C4362 C4361 1.373 . S
C4363 C4347 1.377 . S
C4363 C4361 1.389 . S
C4363 C4364 1.524 . S
C4364 C4363 1.524 . S
C4364 C4365 1.397 . S
C4364 C4369 1.363 . S
C4365 H4336 0.950 . S
C4365 C4364 1.397 . S
C4365 C4366 1.334 . S
C4366 H4337 0.950 . S
C4366 C4365 1.334 . S
C4366 C4367 1.287 . S
C4367 C4366 1.287 . S
C4367 C4368 1.524 . S
C4367 H4370 0.999 . S
C4368 H4338 0.950 . S
C4368 C4367 1.524 . S
C4368 C4369 1.415 . S
C4369 H4339 0.950 . S
C4369 C4364 1.363 . S
C4369 C4368 1.415 . S
H4370 C4367 0.999 . S
H4371 C4352 0.913 . S
H4372 C4390 0.951 . S
H4373 C4392 0.951 . S
H4374 C4394 0.950 . S
H4375 C4395 0.950 . S
H4376 C4397 0.950 . S
H4377 C4400 0.950 . S
H4378 C4401 0.950 . S
H4379 C4403 0.950 . S
H4380 C4404 0.950 . S
H4381 C4405 0.951 . S
H4382 C4407 0.951 . S
H4383 C4409 0.950 . S
H4384 C4410 0.950 . S
H4385 C4412 0.950 . S
H4386 C4415 0.950 . S
H4387 C4416 0.950 . S
H4388 C4418 0.950 . S
H4389 C4419 0.950 . S
C4390 H4372 0.951 . S
C4390 C4391 1.366 . S
C4390 C4392 1.388 . S
C4391 C4390 1.366 . S
C4391 C4395 1.385 . S
C4392 H4373 0.951 . S
C4392 C4390 1.388 . S
C4392 C4393 1.366 . S
C4393 C4392 1.366 . S
C4393 C4394 1.414 . S
C4393 C4396 1.499 . S
C4394 H4374 0.950 . S
C4394 C4393 1.414 . S
C4394 C4395 1.374 . S
C4395 H4375 0.950 . S
C4395 C4391 1.385 . S
C4395 C4394 1.374 . S
C4396 C4393 1.499 . S
C4396 C4397 1.373 . S
C4396 C4398 1.389 . S
C4397 H4376 0.950 . S
C4397 C4396 1.373 . S
C4397 C4413 1.377 . S
C4398 C4396 1.389 . S
C4398 C4399 1.524 . S
C4398 C4412 1.377 . S
C4399 C4398 1.524 . S
C4399 C4400 1.397 . S
C4399 C4404 1.363 . S
C4400 H4377 0.950 . S
C4400 C4399 1.397 . S
C4400 C4401 1.334 . S
C4401 H4378 0.950 . S
C4401 C4400 1.334 . S
C4401 C4402 1.287 . S
C4402 C4401 1.287 . S
C4402 C4403 1.524 . S
C4402 H4421 0.913 . S
C4403 H4379 0.950 . S
C4403 C4402 1.524 . S
C4403 C4404 1.415 . S
C4404 H4380 0.950 . S
C4404 C4399 1.363 . S
C4404 C4403 1.415 . S
C4405 H4381 0.951 . S
C4405 C4406 1.366 . S
C4405 C4407 1.388 . S
C4406 C4405 1.366 . S
C4406 C4410 1.385 . S
C4407 H4382 0.951 . S
C4407 C4405 1.388 . S
C4407 C4408 1.366 . S
C4408 C4407 1.366 . S
C4408 C4409 1.414 . S
C4408 C4411 1.499 . S
C4409 H4383 0.950 . S
C4409 C4408 1.414 . S
C4409 C4410 1.374 . S
C4410 H4384 0.950 . S
C4410 C4406 1.385 . S
C4410 C4409 1.374 . S
C4411 C4408 1.499 . S
C4411 C4412 1.373 . S
C4411 C4413 1.389 . S
C4412 H4385 0.950 . S
C4412 C4398 1.377 . S
C4412 C4411 1.373 . S
C4413 C4397 1.377 . S
C4413 C4411 1.389 . S
C4413 C4414 1.524 . S
C4414 C4413 1.524 . S
C4414 C4415 1.397 . S
C4414 C4419 1.363 . S
C4415 H4386 0.950 . S
C4415 C4414 1.397 . S
C4415 C4416 1.334 . S
C4416 H4387 0.950 . S
C4416 C4415 1.334 . S
C4416 C4417 1.287 . S
C4417 C4416 1.287 . S
C4417 C4418 1.524 . S
C4417 H4420 0.999 . S
C4418 H4388 0.950 . S
C4418 C4417 1.524 . S
C4418 C4419 1.415 . S
C4419 H4389 0.950 . S
C4419 C4414 1.363 . S
C4419 C4418 1.415 . S
H4420 C4417 0.999 . S
H4421 C4402 0.913 . S
H4422 C4440 0.951 . S
H4423 C4442 0.951 . S
H4424 C4444 0.950 . S
H4425 C4445 0.950 . S
H4426 C4447 0.919 1_455 S
H4427 C4450 0.950 . S
H4428 C4451 0.950 . S
H4429 C4453 0.953 . S
H4430 C4454 0.950 . S
H4431 C4455 0.951 . S
H4432 C4457 0.951 . S
H4433 C4459 0.950 . S
H4434 C4460 0.950 . S
H4435 C4462 0.950 . S
H4436 C4465 0.950 . S
H4437 C4466 0.950 . S
H4438 C4468 0.950 . S
H4439 C4469 0.950 . S
C4440 H4422 0.951 . S
C4440 C4441 1.366 . S
C4440 C4442 1.388 . S
C4441 C4440 1.366 . S
C4441 C4445 1.385 . S
C4442 H4423 0.951 . S
C4442 C4440 1.388 . S
C4442 C4443 1.366 . S
C4443 C4442 1.366 . S
C4443 C4444 1.414 . S
C4443 C4446 1.499 . S
C4444 H4424 0.950 . S
C4444 C4443 1.414 . S
C4444 C4445 1.374 . S
C4445 H4425 0.950 . S
C4445 C4441 1.385 . S
C4445 C4444 1.374 . S
C4446 C4443 1.499 . S
C4446 C4447 1.373 1_455 S
C4446 C4448 1.389 1_455 S
C4447 H4426 0.919 1_655 S
C4447 C4446 1.373 1_655 S
C4447 C4463 1.377 . S
C4448 C4446 1.389 1_655 S
C4448 C4449 1.524 . S
C4448 C4462 1.377 . S
C4449 C4448 1.524 . S
C4449 C4450 1.397 1_655 S
C4449 C4454 1.363 . S
C4450 H4427 0.950 . S
C4450 C4449 1.397 1_455 S
C4450 C4451 1.334 . S
C4451 H4428 0.950 . S
C4451 C4450 1.334 . S
C4451 C4452 1.287 . S
C4452 C4451 1.287 . S
C4452 C4453 1.510 1_455 S
C4452 H4471 0.913 . S
C4453 H4429 0.953 . S
C4453 C4452 1.510 1_655 S
C4453 C4454 1.427 . S
C4454 H4430 0.950 . S
C4454 C4449 1.363 . S
C4454 C4453 1.427 . S
C4455 H4431 0.951 . S
C4455 C4456 1.366 . S
C4455 C4457 1.388 . S
C4456 C4455 1.366 . S
C4456 C4460 1.385 . S
C4457 H4432 0.951 . S
C4457 C4455 1.388 . S
C4457 C4458 1.366 . S
C4458 C4457 1.366 . S
C4458 C4459 1.414 . S
C4458 C4461 1.499 . S
C4459 H4433 0.950 . S
C4459 C4458 1.414 . S
C4459 C4460 1.374 . S
C4460 H4434 0.950 . S
C4460 C4456 1.385 . S
C4460 C4459 1.374 . S
C4461 C4458 1.499 . S
C4461 C4462 1.373 . S
C4461 C4463 1.389 . S
C4462 H4435 0.950 . S
C4462 C4448 1.377 . S
C4462 C4461 1.373 . S
C4463 C4447 1.377 . S
C4463 C4461 1.389 . S
C4463 C4464 1.524 . S
C4464 C4463 1.524 . S
C4464 C4465 1.397 . S
C4464 C4469 1.363 . S
C4465 H4436 0.950 . S
C4465 C4464 1.397 . S
C4465 C4466 1.334 . S
C4466 H4437 0.950 . S
C4466 C4465 1.334 . S
C4466 C4467 1.287 . S
C4467 C4466 1.287 . S
C4467 C4468 1.524 . S
C4467 H4470 0.999 . S
C4468 H4438 0.950 . S
C4468 C4467 1.524 . S
C4468 C4469 1.415 . S
C4469 H4439 0.950 . S
C4469 C4464 1.363 . S
C4469 C4468 1.415 . S
H4470 C4467 0.999 . S
H4471 C4452 0.913 . S
H4472 C4490 0.951 . S
H4473 C4492 0.951 . S
H4474 C4494 0.950 . S
H4475 C4495 0.950 . S
H4476 C4497 0.950 . S
H4477 C4500 0.950 . S
H4478 C4501 0.950 . S
H4479 C4503 0.950 . S
H4480 C4504 0.950 . S
H4481 C4505 0.951 . S
H4482 C4507 0.951 . S
H4483 C4509 0.950 . S
H4484 C4510 0.950 . S
H4485 C4512 0.950 . S
H4486 C4515 0.950 . S
H4487 C4516 0.950 . S
H4488 C4518 0.950 . S
H4489 C4519 0.950 . S
C4490 H4472 0.951 . S
C4490 C4491 1.366 . S
C4490 C4492 1.388 . S
C4491 C4490 1.366 . S
C4491 C4495 1.385 . S
C4492 H4473 0.951 . S
C4492 C4490 1.388 . S
C4492 C4493 1.366 . S
C4493 C4492 1.366 . S
C4493 C4494 1.414 . S
C4493 C4496 1.499 . S
C4494 H4474 0.950 . S
C4494 C4493 1.414 . S
C4494 C4495 1.374 . S
C4495 H4475 0.950 . S
C4495 C4491 1.385 . S
C4495 C4494 1.374 . S
C4496 C4493 1.499 . S
C4496 C4497 1.373 . S
C4496 C4498 1.389 . S
C4497 H4476 0.950 . S
C4497 C4496 1.373 . S
C4497 C4513 1.377 . S
C4498 C4496 1.389 . S
C4498 C4499 1.524 . S
C4498 C4512 1.377 . S
C4499 C4498 1.524 . S
C4499 C4500 1.397 . S
C4499 C4504 1.363 . S
C4500 H4477 0.950 . S
C4500 C4499 1.397 . S
C4500 C4501 1.334 . S
C4501 H4478 0.950 . S
C4501 C4500 1.334 . S
C4501 C4502 1.287 . S
C4502 C4501 1.287 . S
C4502 C4503 1.524 . S
C4502 H4521 0.913 . S
C4503 H4479 0.950 . S
C4503 C4502 1.524 . S
C4503 C4504 1.415 . S
C4504 H4480 0.950 . S
C4504 C4499 1.363 . S
C4504 C4503 1.415 . S
C4505 H4481 0.951 . S
C4505 C4506 1.366 . S
C4505 C4507 1.388 . S
C4506 C4505 1.366 . S
C4506 C4510 1.385 . S
C4507 H4482 0.951 . S
C4507 C4505 1.388 . S
C4507 C4508 1.366 . S
C4508 C4507 1.366 . S
C4508 C4509 1.414 . S
C4508 C4511 1.499 . S
C4509 H4483 0.950 . S
C4509 C4508 1.414 . S
C4509 C4510 1.374 . S
C4510 H4484 0.950 . S
C4510 C4506 1.385 . S
C4510 C4509 1.374 . S
C4511 C4508 1.499 . S
C4511 C4512 1.373 . S
C4511 C4513 1.389 . S
C4512 H4485 0.950 . S
C4512 C4498 1.377 . S
C4512 C4511 1.373 . S
C4513 C4497 1.377 . S
C4513 C4511 1.389 . S
C4513 C4514 1.524 . S
C4514 C4513 1.524 . S
C4514 C4515 1.397 . S
C4514 C4519 1.363 . S
C4515 H4486 0.950 . S
C4515 C4514 1.397 . S
C4515 C4516 1.334 . S
C4516 H4487 0.950 . S
C4516 C4515 1.334 . S
C4516 C4517 1.287 . S
C4517 C4516 1.287 . S
C4517 C4518 1.524 . S
C4517 H4520 0.999 . S
C4518 H4488 0.950 . S
C4518 C4517 1.524 . S
C4518 C4519 1.415 . S
C4519 H4489 0.950 . S
C4519 C4514 1.363 . S
C4519 C4518 1.415 . S
H4520 C4517 0.999 . S
H4521 C4502 0.913 . S
H4522 C4540 0.951 . S
H4523 C4542 0.951 . S
H4524 C4544 0.950 . S
H4525 C4545 0.950 . S
H4526 C4547 0.950 . S
H4527 C4550 0.950 . S
H4528 C4551 0.950 . S
H4529 C4553 0.950 . S
H4530 C4554 0.950 1_655 S
H4531 C4555 0.951 . S
H4532 C4557 0.951 . S
H4533 C4559 0.950 . S
H4534 C4560 0.950 . S
H4535 C4562 0.950 . S
H4536 C4565 0.950 . S
H4537 C4566 0.950 . S
H4538 C4568 0.950 . S
H4539 C4569 0.950 . S
C4540 H4522 0.951 . S
C4540 C4541 1.366 . S
C4540 C4542 1.388 . S
C4541 C4540 1.366 . S
C4541 C4545 1.385 . S
C4542 H4523 0.951 . S
C4542 C4540 1.388 . S
C4542 C4543 1.366 . S
C4543 C4542 1.366 . S
C4543 C4544 1.414 . S
C4543 C4546 1.499 . S
C4544 H4524 0.950 . S
C4544 C4543 1.414 . S
C4544 C4545 1.374 . S
C4545 H4525 0.950 . S
C4545 C4541 1.385 . S
C4545 C4544 1.374 . S
C4546 C4543 1.499 . S
C4546 C4547 1.373 1_455 S
C4546 C4548 1.389 1_455 S
C4547 H4526 0.950 . S
C4547 C4546 1.373 1_655 S
C4547 C4563 1.377 . S
C4548 C4546 1.389 1_655 S
C4548 C4549 1.524 1_655 S
C4548 C4562 1.377 . S
C4549 C4548 1.524 1_455 S
C4549 C4550 1.397 . S
C4549 C4554 1.363 . S
C4550 H4527 0.950 . S
C4550 C4549 1.397 . S
C4550 C4551 1.334 . S
C4551 H4528 0.950 . S
C4551 C4550 1.334 . S
C4551 C4552 1.287 . S
C4552 C4551 1.287 . S
C4552 C4553 1.524 . S
C4552 H4571 0.913 . S
C4553 H4529 0.950 . S
C4553 C4552 1.524 . S
C4553 C4554 1.415 . S
C4554 H4530 0.950 1_455 S
C4554 C4549 1.363 . S
C4554 C4553 1.415 . S
C4555 H4531 0.951 . S
C4555 C4556 1.366 . S
C4555 C4557 1.388 . S
C4556 C4555 1.366 . S
C4556 C4560 1.385 . S
C4557 H4532 0.951 . S
C4557 C4555 1.388 . S
C4557 C4558 1.366 . S
C4558 C4557 1.366 . S
C4558 C4559 1.414 . S
C4558 C4561 1.499 . S
C4559 H4533 0.950 . S
C4559 C4558 1.414 . S
C4559 C4560 1.374 . S
C4560 H4534 0.950 . S
C4560 C4556 1.385 . S
C4560 C4559 1.374 . S
C4561 C4558 1.499 . S
C4561 C4562 1.373 . S
C4561 C4563 1.389 . S
C4562 H4535 0.950 . S
C4562 C4548 1.377 . S
C4562 C4561 1.373 . S
C4563 C4547 1.377 . S
C4563 C4561 1.389 . S
C4563 C4564 1.524 . S
C4564 C4563 1.524 . S
C4564 C4565 1.397 . S
C4564 C4569 1.363 . S
C4565 H4536 0.950 . S
C4565 C4564 1.397 . S
C4565 C4566 1.334 . S
C4566 H4537 0.950 . S
C4566 C4565 1.334 . S
C4566 C4567 1.287 . S
C4567 C4566 1.287 . S
C4567 C4568 1.524 . S
C4567 H4570 0.999 . S
C4568 H4538 0.950 . S
C4568 C4567 1.524 . S
C4568 C4569 1.415 . S
C4569 H4539 0.950 . S
C4569 C4564 1.363 . S
C4569 C4568 1.415 . S
H4570 C4567 0.999 . S
H4571 C4552 0.913 . S
H4572 C4590 0.951 . S
H4573 C4592 0.951 . S
H4574 C4594 0.950 . S
H4575 C4595 0.950 . S
H4576 C4597 0.950 . S
H4577 C4600 0.950 . S
H4578 C4601 0.950 . S
H4579 C4603 0.950 . S
H4580 C4604 0.950 . S
H4581 C4605 0.951 . S
H4582 C4607 0.951 . S
H4583 C4609 0.950 . S
H4584 C4610 0.950 . S
H4585 C4612 0.950 . S
H4586 C4615 0.950 . S
H4587 C4616 0.950 . S
H4588 C4618 0.950 . S
H4589 C4619 0.950 . S
C4590 H4572 0.951 . S
C4590 C4591 1.366 . S
C4590 C4592 1.388 . S
C4591 C4590 1.366 . S
C4591 C4595 1.385 . S
C4592 H4573 0.951 . S
C4592 C4590 1.388 . S
C4592 C4593 1.366 . S
C4593 C4592 1.366 . S
C4593 C4594 1.414 . S
C4593 C4596 1.499 . S
C4594 H4574 0.950 . S
C4594 C4593 1.414 . S
C4594 C4595 1.374 . S
C4595 H4575 0.950 . S
C4595 C4591 1.385 . S
C4595 C4594 1.374 . S
C4596 C4593 1.499 . S
C4596 C4597 1.373 . S
C4596 C4598 1.389 . S
C4597 H4576 0.950 . S
C4597 C4596 1.373 . S
C4597 C4613 1.377 . S
C4598 C4596 1.389 . S
C4598 C4599 1.524 . S
C4598 C4612 1.377 . S
C4599 C4598 1.524 . S
C4599 C4600 1.397 . S
C4599 C4604 1.363 . S
C4600 H4577 0.950 . S
C4600 C4599 1.397 . S
C4600 C4601 1.334 . S
C4601 H4578 0.950 . S
C4601 C4600 1.334 . S
C4601 C4602 1.287 . S
C4602 C4601 1.287 . S
C4602 C4603 1.524 . S
C4602 H4621 0.913 . S
C4603 H4579 0.950 . S
C4603 C4602 1.524 . S
C4603 C4604 1.415 . S
C4604 H4580 0.950 . S
C4604 C4599 1.363 . S
C4604 C4603 1.415 . S
C4605 H4581 0.951 . S
C4605 C4606 1.366 . S
C4605 C4607 1.388 . S
C4606 C4605 1.366 . S
C4606 C4610 1.385 . S
C4607 H4582 0.951 . S
C4607 C4605 1.388 . S
C4607 C4608 1.366 . S
C4608 C4607 1.366 . S
C4608 C4609 1.414 . S
C4608 C4611 1.499 . S
C4609 H4583 0.950 . S
C4609 C4608 1.414 . S
C4609 C4610 1.374 . S
C4610 H4584 0.950 . S
C4610 C4606 1.385 . S
C4610 C4609 1.374 . S
C4611 C4608 1.499 . S
C4611 C4612 1.373 . S
C4611 C4613 1.389 . S
C4612 H4585 0.950 . S
C4612 C4598 1.377 . S
C4612 C4611 1.373 . S
C4613 C4597 1.377 . S
C4613 C4611 1.389 . S
C4613 C4614 1.524 . S
C4614 C4613 1.524 . S
C4614 C4615 1.397 . S
C4614 C4619 1.363 . S
C4615 H4586 0.950 . S
C4615 C4614 1.397 . S
C4615 C4616 1.334 . S
C4616 H4587 0.950 . S
C4616 C4615 1.334 . S
C4616 C4617 1.287 . S
C4617 C4616 1.287 . S
C4617 C4618 1.524 . S
C4617 H4620 0.999 . S
C4618 H4588 0.950 . S
C4618 C4617 1.524 . S
C4618 C4619 1.415 . S
C4619 H4589 0.950 . S
C4619 C4614 1.363 . S
C4619 C4618 1.415 . S
H4620 C4617 0.999 . S
H4621 C4602 0.913 . S
H4622 C4640 0.951 . S
H4623 C4642 0.951 . S
H4624 C4644 0.950 . S
H4625 C4645 0.950 . S
H4626 C4647 0.950 . S
H4627 C4650 0.950 . S
H4628 C4651 0.950 . S
H4629 C4653 0.950 . S
H4630 C4654 0.950 . S
H4631 C4655 0.951 . S
H4632 C4657 0.951 . S
H4633 C4659 0.950 . S
H4634 C4660 0.950 . S
H4635 C4662 0.950 . S
H4636 C4665 0.950 . S
H4637 C4666 0.950 . S
H4638 C4668 0.950 . S
H4639 C4669 0.950 . S
C4640 H4622 0.951 . S
C4640 C4641 1.366 . S
C4640 C4642 1.388 . S
C4641 C4640 1.366 . S
C4641 C4645 1.385 . S
C4642 H4623 0.951 . S
C4642 C4640 1.388 . S
C4642 C4643 1.366 . S
C4643 C4642 1.366 . S
C4643 C4644 1.414 . S
C4643 C4646 1.499 . S
C4644 H4624 0.950 . S
C4644 C4643 1.414 . S
C4644 C4645 1.374 . S
C4645 H4625 0.950 . S
C4645 C4641 1.385 . S
C4645 C4644 1.374 . S
C4646 C4643 1.499 . S
C4646 C4647 1.373 . S
C4646 C4648 1.389 . S
C4647 H4626 0.950 . S
C4647 C4646 1.373 . S
C4647 C4663 1.377 . S
C4648 C4646 1.389 . S
C4648 C4649 1.524 . S
C4648 C4662 1.377 . S
C4649 C4648 1.524 . S
C4649 C4650 1.397 . S
C4649 C4654 1.363 . S
C4650 H4627 0.950 . S
C4650 C4649 1.397 . S
C4650 C4651 1.334 . S
C4651 H4628 0.950 . S
C4651 C4650 1.334 . S
C4651 C4652 1.287 . S
C4652 C4651 1.287 . S
C4652 C4653 1.524 . S
C4652 H4671 0.913 . S
C4653 H4629 0.950 . S
C4653 C4652 1.524 . S
C4653 C4654 1.415 . S
C4654 H4630 0.950 . S
C4654 C4649 1.363 . S
C4654 C4653 1.415 . S
C4655 H4631 0.951 . S
C4655 C4656 1.366 . S
C4655 C4657 1.388 . S
C4656 C4655 1.366 . S
C4656 C4660 1.385 . S
C4657 H4632 0.951 . S
C4657 C4655 1.388 . S
C4657 C4658 1.366 . S
C4658 C4657 1.366 . S
C4658 C4659 1.414 . S
C4658 C4661 1.499 . S
C4659 H4633 0.950 . S
C4659 C4658 1.414 . S
C4659 C4660 1.374 . S
C4660 H4634 0.950 . S
C4660 C4656 1.385 . S
C4660 C4659 1.374 . S
C4661 C4658 1.499 . S
C4661 C4662 1.373 . S
C4661 C4663 1.389 . S
C4662 H4635 0.950 . S
C4662 C4648 1.377 . S
C4662 C4661 1.373 . S
C4663 C4647 1.377 . S
C4663 C4661 1.389 . S
C4663 C4664 1.524 . S
C4664 C4663 1.524 . S
C4664 C4665 1.397 . S
C4664 C4669 1.363 . S
C4665 H4636 0.950 . S
C4665 C4664 1.397 . S
C4665 C4666 1.334 . S
C4666 H4637 0.950 . S
C4666 C4665 1.334 . S
C4666 C4667 1.287 . S
C4667 C4666 1.287 . S
C4667 C4668 1.524 . S
C4667 H4670 0.999 . S
C4668 H4638 0.950 . S
C4668 C4667 1.524 . S
C4668 C4669 1.415 . S
C4669 H4639 0.950 . S
C4669 C4664 1.363 . S
C4669 C4668 1.415 . S
H4670 C4667 0.999 . S
H4671 C4652 0.913 . S
H4672 C4690 0.951 . S
H4673 C4692 0.951 . S
H4674 C4694 0.950 . S
H4675 C4695 0.950 . S
H4676 C4697 0.950 . S
H4677 C4700 0.950 . S
H4678 C4701 0.950 . S
H4679 C4703 0.950 . S
H4680 C4704 0.950 . S
H4681 C4705 0.951 . S
H4682 C4707 0.951 . S
H4683 C4709 0.950 . S
H4684 C4710 0.950 . S
H4685 C4712 0.950 . S
H4686 C4715 0.950 . S
H4687 C4716 0.950 . S
H4688 C4718 0.950 . S
H4689 C4719 0.950 . S
C4690 H4672 0.951 . S
C4690 C4691 1.366 . S
C4690 C4692 1.388 . S
C4691 C4690 1.366 . S
C4691 C4695 1.385 . S
C4692 H4673 0.951 . S
C4692 C4690 1.388 . S
C4692 C4693 1.366 . S
C4693 C4692 1.366 . S
C4693 C4694 1.414 . S
C4693 C4696 1.499 . S
C4694 H4674 0.950 . S
C4694 C4693 1.414 . S
C4694 C4695 1.374 . S
C4695 H4675 0.950 . S
C4695 C4691 1.385 . S
C4695 C4694 1.374 . S
C4696 C4693 1.499 . S
C4696 C4697 1.373 . S
C4696 C4698 1.389 . S
C4697 H4676 0.950 . S
C4697 C4696 1.373 . S
C4697 C4713 1.377 . S
C4698 C4696 1.389 . S
C4698 C4699 1.524 . S
C4698 C4712 1.377 . S
C4699 C4698 1.524 . S
C4699 C4700 1.397 . S
C4699 C4704 1.363 . S
C4700 H4677 0.950 . S
C4700 C4699 1.397 . S
C4700 C4701 1.334 . S
C4701 H4678 0.950 . S
C4701 C4700 1.334 . S
C4701 C4702 1.287 . S
C4702 C4701 1.287 . S
C4702 C4703 1.524 . S
C4702 H4721 0.913 . S
C4703 H4679 0.950 . S
C4703 C4702 1.524 . S
C4703 C4704 1.415 . S
C4704 H4680 0.950 . S
C4704 C4699 1.363 . S
C4704 C4703 1.415 . S
C4705 H4681 0.951 . S
C4705 C4706 1.366 . S
C4705 C4707 1.388 . S
C4706 C4705 1.366 . S
C4706 C4710 1.385 . S
C4707 H4682 0.951 . S
C4707 C4705 1.388 . S
C4707 C4708 1.366 . S
C4708 C4707 1.366 . S
C4708 C4709 1.414 . S
C4708 C4711 1.499 . S
C4709 H4683 0.950 . S
C4709 C4708 1.414 . S
C4709 C4710 1.374 . S
C4710 H4684 0.950 . S
C4710 C4706 1.385 . S
C4710 C4709 1.374 . S
C4711 C4708 1.499 . S
C4711 C4712 1.373 . S
C4711 C4713 1.389 . S
C4712 H4685 0.950 . S
C4712 C4698 1.377 . S
C4712 C4711 1.373 . S
C4713 C4697 1.377 . S
C4713 C4711 1.389 . S
C4713 C4714 1.524 . S
C4714 C4713 1.524 . S
C4714 C4715 1.397 . S
C4714 C4719 1.363 . S
C4715 H4686 0.950 . S
C4715 C4714 1.397 . S
C4715 C4716 1.334 . S
C4716 H4687 0.950 . S
C4716 C4715 1.334 . S
C4716 C4717 1.287 . S
C4717 C4716 1.287 . S
C4717 C4718 1.524 . S
C4717 H4720 0.999 . S
C4718 H4688 0.950 . S
C4718 C4717 1.524 . S
C4718 C4719 1.415 . S
C4719 H4689 0.950 . S
C4719 C4714 1.363 . S
C4719 C4718 1.415 . S
H4720 C4717 0.999 . S
H4721 C4702 0.913 . S
H4722 C4740 0.951 . S
H4723 C4742 0.951 . S
H4724 C4744 0.950 . S
H4725 C4745 0.950 . S
H4726 C4747 0.950 . S
H4727 C4750 0.950 . S
H4728 C4751 0.950 . S
H4729 C4753 0.950 . S
H4730 C4754 0.950 . S
H4731 C4755 0.951 . S
H4732 C4757 0.951 . S
H4733 C4759 0.950 . S
H4734 C4760 0.950 . S
H4735 C4762 0.950 1_554 S
H4736 C4765 0.944 1_554 S
H4737 C4766 0.950 . S
H4738 C4768 0.950 . S
H4739 C4769 0.950 . S
C4740 H4722 0.951 . S
C4740 C4741 1.366 . S
C4740 C4742 1.388 . S
C4741 C4740 1.366 . S
C4741 C4745 1.385 . S
C4742 H4723 0.951 . S
C4742 C4740 1.388 . S
C4742 C4743 1.366 . S
C4743 C4742 1.366 . S
C4743 C4744 1.414 . S
C4743 C4746 1.499 . S
C4744 H4724 0.950 . S
C4744 C4743 1.414 . S
C4744 C4745 1.374 . S
C4745 H4725 0.950 . S
C4745 C4741 1.385 . S
C4745 C4744 1.374 . S
C4746 C4743 1.499 . S
C4746 C4747 1.373 . S
C4746 C4748 1.389 . S
C4747 H4726 0.950 . S
C4747 C4746 1.373 . S
C4747 C4763 1.377 . S
C4748 C4746 1.389 . S
C4748 C4749 1.524 . S
C4748 C4762 1.377 . S
C4749 C4748 1.524 . S
C4749 C4750 1.397 . S
C4749 C4754 1.363 . S
C4750 H4727 0.950 . S
C4750 C4749 1.397 . S
C4750 C4751 1.334 . S
C4751 H4728 0.950 . S
C4751 C4750 1.334 . S
C4751 C4752 1.287 . S
C4752 C4751 1.287 . S
C4752 C4753 1.524 . S
C4752 H4771 0.913 . S
C4753 H4729 0.950 . S
C4753 C4752 1.524 . S
C4753 C4754 1.415 . S
C4754 H4730 0.950 . S
C4754 C4749 1.363 . S
C4754 C4753 1.415 . S
C4755 H4731 0.951 . S
C4755 C4756 1.366 . S
C4755 C4757 1.388 . S
C4756 C4755 1.366 . S
C4756 C4760 1.385 . S
C4757 H4732 0.951 . S
C4757 C4755 1.388 . S
C4757 C4758 1.366 . S
C4758 C4757 1.366 . S
C4758 C4759 1.414 . S
C4758 C4761 1.450 1_554 S
C4759 H4733 0.950 . S
C4759 C4758 1.414 . S
C4759 C4760 1.374 . S
C4760 H4734 0.950 . S
C4760 C4756 1.385 . S
C4760 C4759 1.374 . S
C4761 C4758 1.450 1_556 S
C4761 C4762 1.386 . S
C4761 C4763 1.427 . S
C4762 H4735 0.950 1_556 S
C4762 C4748 1.377 . S
C4762 C4761 1.386 . S
C4763 C4747 1.377 . S
C4763 C4761 1.427 . S
C4763 C4764 1.524 . S
C4764 C4763 1.524 . S
C4764 C4765 1.404 . S
C4764 C4769 1.363 . S
C4765 H4736 0.944 1_556 S
C4765 C4764 1.404 . S
C4765 C4766 1.332 1_556 S
C4766 H4737 0.950 . S
C4766 C4765 1.332 1_554 S
C4766 C4767 1.287 1_554 S
C4767 C4766 1.287 1_556 S
C4767 C4768 1.524 . S
C4767 H4770 0.999 . S
C4768 H4738 0.950 . S
C4768 C4767 1.524 . S
C4768 C4769 1.415 . S
C4769 H4739 0.950 . S
C4769 C4764 1.363 . S
C4769 C4768 1.415 . S
H4770 C4767 0.999 . S
H4771 C4752 0.913 . S
H4772 C4790 0.951 . S
H4773 C4792 0.951 . S
H4774 C4794 0.950 . S
H4775 C4795 0.950 . S
H4776 C4797 0.950 . S
H4777 C4800 0.950 . S
H4778 C4801 0.950 . S
H4779 C4803 0.950 . S
H4780 C4804 0.950 . S
H4781 C4805 0.951 . S
H4782 C4807 0.951 . S
H4783 C4809 0.950 . S
H4784 C4810 0.950 . S
H4785 C4812 0.950 . S
H4786 C4815 0.950 . S
H4787 C4816 0.950 . S
H4788 C4818 0.950 . S
H4789 C4819 0.950 . S
C4790 H4772 0.951 . S
C4790 C4791 1.366 . S
C4790 C4792 1.388 . S
C4791 C4790 1.366 . S
C4791 C4795 1.385 . S
C4792 H4773 0.951 . S
C4792 C4790 1.388 . S
C4792 C4793 1.366 . S
C4793 C4792 1.366 . S
C4793 C4794 1.414 . S
C4793 C4796 1.499 . S
C4794 H4774 0.950 . S
C4794 C4793 1.414 . S
C4794 C4795 1.374 . S
C4795 H4775 0.950 . S
C4795 C4791 1.385 . S
C4795 C4794 1.374 . S
C4796 C4793 1.499 . S
C4796 C4797 1.373 . S
C4796 C4798 1.389 . S
C4797 H4776 0.950 . S
C4797 C4796 1.373 . S
C4797 C4813 1.377 . S
C4798 C4796 1.389 . S
C4798 C4799 1.524 . S
C4798 C4812 1.377 . S
C4799 C4798 1.524 . S
C4799 C4800 1.397 . S
C4799 C4804 1.363 . S
C4800 H4777 0.950 . S
C4800 C4799 1.397 . S
C4800 C4801 1.334 . S
C4801 H4778 0.950 . S
C4801 C4800 1.334 . S
C4801 C4802 1.287 . S
C4802 C4801 1.287 . S
C4802 C4803 1.524 . S
C4802 H4821 0.913 . S
C4803 H4779 0.950 . S
C4803 C4802 1.524 . S
C4803 C4804 1.415 . S
C4804 H4780 0.950 . S
C4804 C4799 1.363 . S
C4804 C4803 1.415 . S
C4805 H4781 0.951 . S
C4805 C4806 1.366 . S
C4805 C4807 1.388 . S
C4806 C4805 1.366 . S
C4806 C4810 1.385 . S
C4807 H4782 0.951 . S
C4807 C4805 1.388 . S
C4807 C4808 1.366 . S
C4808 C4807 1.366 . S
C4808 C4809 1.414 . S
C4808 C4811 1.499 . S
C4809 H4783 0.950 . S
C4809 C4808 1.414 . S
C4809 C4810 1.374 . S
C4810 H4784 0.950 . S
C4810 C4806 1.385 . S
C4810 C4809 1.374 . S
C4811 C4808 1.499 . S
C4811 C4812 1.373 . S
C4811 C4813 1.389 . S
C4812 H4785 0.950 . S
C4812 C4798 1.377 . S
C4812 C4811 1.373 . S
C4813 C4797 1.377 . S
C4813 C4811 1.389 . S
C4813 C4814 1.524 . S
C4814 C4813 1.524 . S
C4814 C4815 1.397 . S
C4814 C4819 1.363 . S
C4815 H4786 0.950 . S
C4815 C4814 1.397 . S
C4815 C4816 1.334 . S
C4816 H4787 0.950 . S
C4816 C4815 1.334 . S
C4816 C4817 1.287 . S
C4817 C4816 1.287 . S
C4817 C4818 1.524 . S
C4817 H4820 0.999 . S
C4818 H4788 0.950 . S
C4818 C4817 1.524 . S
C4818 C4819 1.415 . S
C4819 H4789 0.950 . S
C4819 C4814 1.363 . S
C4819 C4818 1.415 . S
H4820 C4817 0.999 . S
H4821 C4802 0.913 . S
H4822 C4840 0.951 . S
H4823 C4842 0.951 . S
H4824 C4844 0.950 . S
H4825 C4845 0.950 . S
H4826 C4847 0.950 . S
H4827 C4850 0.950 . S
H4828 C4851 0.950 . S
H4829 C4853 0.950 . S
H4830 C4854 0.950 . S
H4831 C4855 0.951 . S
H4832 C4857 0.951 . S
H4833 C4859 0.950 . S
H4834 C4860 0.950 . S
H4835 C4862 0.950 . S
H4836 C4865 0.950 . S
H4837 C4866 0.950 . S
H4838 C4868 0.950 . S
H4839 C4869 0.950 . S
C4840 H4822 0.951 . S
C4840 C4841 1.366 . S
C4840 C4842 1.388 . S
C4841 C4840 1.366 . S
C4841 C4845 1.385 . S
C4842 H4823 0.951 . S
C4842 C4840 1.388 . S
C4842 C4843 1.366 . S
C4843 C4842 1.366 . S
C4843 C4844 1.414 . S
C4843 C4846 1.499 . S
C4844 H4824 0.950 . S
C4844 C4843 1.414 . S
C4844 C4845 1.374 . S
C4845 H4825 0.950 . S
C4845 C4841 1.385 . S
C4845 C4844 1.374 . S
C4846 C4843 1.499 . S
C4846 C4847 1.373 . S
C4846 C4848 1.389 . S
C4847 H4826 0.950 . S
C4847 C4846 1.373 . S
C4847 C4863 1.377 . S
C4848 C4846 1.389 . S
C4848 C4849 1.524 . S
C4848 C4862 1.377 . S
C4849 C4848 1.524 . S
C4849 C4850 1.397 . S
C4849 C4854 1.363 . S
C4850 H4827 0.950 . S
C4850 C4849 1.397 . S
C4850 C4851 1.334 . S
C4851 H4828 0.950 . S
C4851 C4850 1.334 . S
C4851 C4852 1.287 . S
C4852 C4851 1.287 . S
C4852 C4853 1.524 . S
C4852 H4871 0.913 . S
C4853 H4829 0.950 . S
C4853 C4852 1.524 . S
C4853 C4854 1.415 . S
C4854 H4830 0.950 . S
C4854 C4849 1.363 . S
C4854 C4853 1.415 . S
C4855 H4831 0.951 . S
C4855 C4856 1.366 . S
C4855 C4857 1.388 . S
C4856 C4855 1.366 . S
C4856 C4860 1.385 . S
C4857 H4832 0.951 . S
C4857 C4855 1.388 . S
C4857 C4858 1.366 . S
C4858 C4857 1.366 . S
C4858 C4859 1.414 . S
C4858 C4861 1.499 . S
C4859 H4833 0.950 . S
C4859 C4858 1.414 . S
C4859 C4860 1.374 . S
C4860 H4834 0.950 . S
C4860 C4856 1.385 . S
C4860 C4859 1.374 . S
C4861 C4858 1.499 . S
C4861 C4862 1.373 . S
C4861 C4863 1.389 . S
C4862 H4835 0.950 . S
C4862 C4848 1.377 . S
C4862 C4861 1.373 . S
C4863 C4847 1.377 . S
C4863 C4861 1.389 . S
C4863 C4864 1.524 . S
C4864 C4863 1.524 . S
C4864 C4865 1.397 . S
C4864 C4869 1.363 . S
C4865 H4836 0.950 . S
C4865 C4864 1.397 . S
C4865 C4866 1.334 . S
C4866 H4837 0.950 . S
C4866 C4865 1.334 . S
C4866 C4867 1.287 . S
C4867 C4866 1.287 . S
C4867 C4868 1.524 . S
C4867 H4870 0.999 . S
C4868 H4838 0.950 . S
C4868 C4867 1.524 . S
C4868 C4869 1.415 . S
C4869 H4839 0.950 . S
C4869 C4864 1.363 . S
C4869 C4868 1.415 . S
H4870 C4867 0.999 . S
H4871 C4852 0.913 . S
H4872 C4890 0.951 . S
H4873 C4892 0.951 . S
H4874 C4894 0.950 . S
H4875 C4895 0.950 . S
H4876 C4897 0.950 . S
H4877 C4900 0.950 . S
H4878 C4901 0.950 . S
H4879 C4903 0.950 . S
H4880 C4904 0.950 . S
H4881 C4905 0.951 . S
H4882 C4907 0.951 . S
H4883 C4909 0.950 . S
H4884 C4910 0.950 . S
H4885 C4912 0.950 . S
H4886 C4915 0.950 . S
H4887 C4916 0.950 . S
H4888 C4918 0.950 . S
H4889 C4919 0.950 . S
C4890 H4872 0.951 . S
C4890 C4891 1.366 . S
C4890 C4892 1.388 . S
C4891 C4890 1.366 . S
C4891 C4895 1.385 . S
C4892 H4873 0.951 . S
C4892 C4890 1.388 . S
C4892 C4893 1.366 . S
C4893 C4892 1.366 . S
C4893 C4894 1.414 . S
C4893 C4896 1.499 . S
C4894 H4874 0.950 . S
C4894 C4893 1.414 . S
C4894 C4895 1.374 . S
C4895 H4875 0.950 . S
C4895 C4891 1.385 . S
C4895 C4894 1.374 . S
C4896 C4893 1.499 . S
C4896 C4897 1.373 . S
C4896 C4898 1.389 . S
C4897 H4876 0.950 . S
C4897 C4896 1.373 . S
C4897 C4913 1.377 . S
C4898 C4896 1.389 . S
C4898 C4899 1.524 . S
C4898 C4912 1.377 . S
C4899 C4898 1.524 . S
C4899 C4900 1.397 . S
C4899 C4904 1.363 . S
C4900 H4877 0.950 . S
C4900 C4899 1.397 . S
C4900 C4901 1.334 . S
C4901 H4878 0.950 . S
C4901 C4900 1.334 . S
C4901 C4902 1.287 . S
C4902 C4901 1.287 . S
C4902 C4903 1.524 . S
C4902 H4921 0.913 . S
C4903 H4879 0.950 . S
C4903 C4902 1.524 . S
C4903 C4904 1.415 . S
C4904 H4880 0.950 . S
C4904 C4899 1.363 . S
C4904 C4903 1.415 . S
C4905 H4881 0.951 . S
C4905 C4906 1.366 . S
C4905 C4907 1.388 . S
C4906 C4905 1.366 . S
C4906 C4910 1.385 . S
C4907 H4882 0.951 . S
C4907 C4905 1.388 . S
C4907 C4908 1.366 . S
C4908 C4907 1.366 . S
C4908 C4909 1.414 . S
C4908 C4911 1.499 . S
C4909 H4883 0.950 . S
C4909 C4908 1.414 . S
C4909 C4910 1.374 . S
C4910 H4884 0.950 . S
C4910 C4906 1.385 . S
C4910 C4909 1.374 . S
C4911 C4908 1.499 . S
C4911 C4912 1.373 . S
C4911 C4913 1.389 . S
C4912 H4885 0.950 . S
C4912 C4898 1.377 . S
C4912 C4911 1.373 . S
C4913 C4897 1.377 . S
C4913 C4911 1.389 . S
C4913 C4914 1.524 . S
C4914 C4913 1.524 . S
C4914 C4915 1.397 . S
C4914 C4919 1.363 . S
C4915 H4886 0.950 . S
C4915 C4914 1.397 . S
C4915 C4916 1.334 . S
C4916 H4887 0.950 . S
C4916 C4915 1.334 . S
C4916 C4917 1.287 . S
C4917 C4916 1.287 . S
C4917 C4918 1.524 . S
C4917 H4920 0.999 . S
C4918 H4888 0.950 . S
C4918 C4917 1.524 . S
C4918 C4919 1.415 . S
C4919 H4889 0.950 . S
C4919 C4914 1.363 . S
C4919 C4918 1.415 . S
H4920 C4917 0.999 . S
H4921 C4902 0.913 . S
H4922 C4940 0.951 . S
H4923 C4942 0.951 . S
H4924 C4944 0.950 . S
H4925 C4945 0.950 . S
H4926 C4947 0.950 . S
H4927 C4950 0.950 . S
H4928 C4951 0.950 . S
H4929 C4953 0.950 . S
H4930 C4954 0.950 . S
H4931 C4955 0.951 . S
H4932 C4957 0.951 . S
H4933 C4959 0.950 . S
H4934 C4960 0.950 . S
H4935 C4962 0.950 . S
H4936 C4965 0.950 . S
H4937 C4966 0.950 . S
H4938 C4968 0.950 . S
H4939 C4969 0.947 1_554 S
C4940 H4922 0.951 . S
C4940 C4941 1.366 . S
C4940 C4942 1.388 . S
C4941 C4940 1.366 . S
C4941 C4945 1.385 . S
C4942 H4923 0.951 . S
C4942 C4940 1.388 . S
C4942 C4943 1.366 . S
C4943 C4942 1.366 . S
C4943 C4944 1.414 . S
C4943 C4946 1.499 . S
C4944 H4924 0.950 . S
C4944 C4943 1.414 . S
C4944 C4945 1.374 . S
C4945 H4925 0.950 . S
C4945 C4941 1.385 . S
C4945 C4944 1.374 . S
C4946 C4943 1.499 . S
C4946 C4947 1.373 . S
C4946 C4948 1.389 . S
C4947 H4926 0.950 . S
C4947 C4946 1.373 . S
C4947 C4963 1.377 . S
C4948 C4946 1.389 . S
C4948 C4949 1.524 . S
C4948 C4962 1.377 . S
C4949 C4948 1.524 . S
C4949 C4950 1.397 . S
C4949 C4954 1.363 . S
C4950 H4927 0.950 . S
C4950 C4949 1.397 . S
C4950 C4951 1.334 . S
C4951 H4928 0.950 . S
C4951 C4950 1.334 . S
C4951 C4952 1.287 . S
C4952 C4951 1.287 . S
C4952 C4953 1.524 . S
C4952 H4971 0.913 . S
C4953 H4929 0.950 . S
C4953 C4952 1.524 . S
C4953 C4954 1.415 . S
C4954 H4930 0.950 . S
C4954 C4949 1.363 . S
C4954 C4953 1.415 . S
C4955 H4931 0.951 . S
C4955 C4956 1.366 . S
C4955 C4957 1.388 . S
C4956 C4955 1.366 . S
C4956 C4960 1.385 . S
C4957 H4932 0.951 . S
C4957 C4955 1.388 . S
C4957 C4958 1.366 . S
C4958 C4957 1.366 . S
C4958 C4959 1.414 . S
C4958 C4961 1.499 1_556 S
C4959 H4933 0.950 . S
C4959 C4958 1.414 . S
C4959 C4960 1.374 . S
C4960 H4934 0.950 . S
C4960 C4956 1.385 . S
C4960 C4959 1.374 . S
C4961 C4958 1.499 1_554 S
C4961 C4962 1.373 . S
C4961 C4963 1.389 . S
C4962 H4935 0.950 . S
C4962 C4948 1.377 . S
C4962 C4961 1.373 . S
C4963 C4947 1.377 . S
C4963 C4961 1.389 . S
C4963 C4964 1.532 . S
C4964 C4963 1.532 . S
C4964 C4965 1.391 1_554 S
C4964 C4969 1.362 1_554 S
C4965 H4936 0.950 . S
C4965 C4964 1.391 1_556 S
C4965 C4966 1.334 . S
C4966 H4937 0.950 . S
C4966 C4965 1.334 . S
C4966 C4967 1.287 . S
C4967 C4966 1.287 . S
C4967 C4968 1.524 . S
C4967 H4970 0.999 . S
C4968 H4938 0.950 . S
C4968 C4967 1.524 . S
C4968 C4969 1.419 . S
C4969 H4939 0.947 1_556 S
C4969 C4964 1.362 1_556 S
C4969 C4968 1.419 . S
H4970 C4967 0.999 . S
H4971 C4952 0.913 . S
H4972 C4990 0.951 . S
H4973 C4992 0.951 . S
H4974 C4994 0.950 . S
H4975 C4995 0.950 . S
H4976 C4997 0.950 . S
H4977 C5000 0.950 . S
H4978 C5001 0.950 . S
H4979 C5003 0.950 . S
H4980 C5004 0.950 . S
H4981 C5005 0.951 . S
H4982 C5007 0.951 . S
H4983 C5009 0.950 . S
H4984 C5010 0.950 . S
H4985 C5012 0.950 . S
H4986 C5015 0.950 . S
H4987 C5016 0.950 . S
H4988 C5018 0.950 . S
H4989 C5019 0.950 . S
C4990 H4972 0.951 . S
C4990 C4991 1.366 . S
C4990 C4992 1.388 . S
C4991 C4990 1.366 . S
C4991 C4995 1.385 . S
C4992 H4973 0.951 . S
C4992 C4990 1.388 . S
C4992 C4993 1.366 . S
C4993 C4992 1.366 . S
C4993 C4994 1.414 . S
C4993 C4996 1.499 . S
C4994 H4974 0.950 . S
C4994 C4993 1.414 . S
C4994 C4995 1.374 . S
C4995 H4975 0.950 . S
C4995 C4991 1.385 . S
C4995 C4994 1.374 . S
C4996 C4993 1.499 . S
C4996 C4997 1.373 . S
C4996 C4998 1.389 . S
C4997 H4976 0.950 . S
C4997 C4996 1.373 . S
C4997 C5013 1.377 . S
C4998 C4996 1.389 . S
C4998 C4999 1.524 . S
C4998 C5012 1.377 . S
C4999 C4998 1.524 . S
C4999 C5000 1.397 . S
C4999 C5004 1.363 . S
C5000 H4977 0.950 . S
C5000 C4999 1.397 . S
C5000 C5001 1.334 . S
C5001 H4978 0.950 . S
C5001 C5000 1.334 . S
C5001 C5002 1.287 . S
C5002 C5001 1.287 . S
C5002 C5003 1.524 . S
C5002 H5021 0.913 . S
C5003 H4979 0.950 . S
C5003 C5002 1.524 . S
C5003 C5004 1.415 . S
C5004 H4980 0.950 . S
C5004 C4999 1.363 . S
C5004 C5003 1.415 . S
C5005 H4981 0.951 . S
C5005 C5006 1.366 . S
C5005 C5007 1.388 . S
C5006 C5005 1.366 . S
C5006 C5010 1.385 . S
C5007 H4982 0.951 . S
C5007 C5005 1.388 . S
C5007 C5008 1.366 . S
C5008 C5007 1.366 . S
C5008 C5009 1.414 . S
C5008 C5011 1.499 . S
C5009 H4983 0.950 . S
C5009 C5008 1.414 . S
C5009 C5010 1.374 . S
C5010 H4984 0.950 . S
C5010 C5006 1.385 . S
C5010 C5009 1.374 . S
C5011 C5008 1.499 . S
C5011 C5012 1.373 . S
C5011 C5013 1.389 . S
C5012 H4985 0.950 . S
C5012 C4998 1.377 . S
C5012 C5011 1.373 . S
C5013 C4997 1.377 . S
C5013 C5011 1.389 . S
C5013 C5014 1.524 . S
C5014 C5013 1.524 . S
C5014 C5015 1.397 . S
C5014 C5019 1.363 . S
C5015 H4986 0.950 . S
C5015 C5014 1.397 . S
C5015 C5016 1.334 . S
C5016 H4987 0.950 . S
C5016 C5015 1.334 . S
C5016 C5017 1.287 . S
C5017 C5016 1.287 . S
C5017 C5018 1.524 . S
C5017 H5020 0.999 . S
C5018 H4988 0.950 . S
C5018 C5017 1.524 . S
C5018 C5019 1.415 . S
C5019 H4989 0.950 . S
C5019 C5014 1.363 . S
C5019 C5018 1.415 . S
H5020 C5017 0.999 . S
H5021 C5002 0.913 . S
H5022 C5040 0.951 . S
H5023 C5042 0.951 . S
H5024 C5044 0.950 . S
H5025 C5045 0.950 . S
H5026 C5047 0.950 . S
H5027 C5050 0.950 . S
H5028 C5051 0.950 . S
H5029 C5053 0.950 . S
H5030 C5054 0.950 . S
H5031 C5055 0.951 . S
H5032 C5057 0.951 . S
H5033 C5059 0.950 . S
H5034 C5060 0.950 . S
H5035 C5062 0.950 . S
H5036 C5065 0.950 . S
H5037 C5066 0.950 . S
H5038 C5068 0.950 . S
H5039 C5069 0.950 . S
C5040 H5022 0.951 . S
C5040 C5041 1.366 . S
C5040 C5042 1.388 . S
C5041 C5040 1.366 . S
C5041 C5045 1.385 . S
C5042 H5023 0.951 . S
C5042 C5040 1.388 . S
C5042 C5043 1.366 . S
C5043 C5042 1.366 . S
C5043 C5044 1.414 . S
C5043 C5046 1.499 . S
C5044 H5024 0.950 . S
C5044 C5043 1.414 . S
C5044 C5045 1.374 . S
C5045 H5025 0.950 . S
C5045 C5041 1.385 . S
C5045 C5044 1.374 . S
C5046 C5043 1.499 . S
C5046 C5047 1.373 . S
C5046 C5048 1.389 . S
C5047 H5026 0.950 . S
C5047 C5046 1.373 . S
C5047 C5063 1.377 . S
C5048 C5046 1.389 . S
C5048 C5049 1.524 . S
C5048 C5062 1.377 . S
C5049 C5048 1.524 . S
C5049 C5050 1.397 . S
C5049 C5054 1.363 . S
C5050 H5027 0.950 . S
C5050 C5049 1.397 . S
C5050 C5051 1.334 . S
C5051 H5028 0.950 . S
C5051 C5050 1.334 . S
C5051 C5052 1.287 . S
C5052 C5051 1.287 . S
C5052 C5053 1.524 . S
C5052 H5071 0.913 . S
C5053 H5029 0.950 . S
C5053 C5052 1.524 . S
C5053 C5054 1.415 . S
C5054 H5030 0.950 . S
C5054 C5049 1.363 . S
C5054 C5053 1.415 . S
C5055 H5031 0.951 . S
C5055 C5056 1.366 . S
C5055 C5057 1.388 . S
C5056 C5055 1.366 . S
C5056 C5060 1.385 . S
C5057 H5032 0.951 . S
C5057 C5055 1.388 . S
C5057 C5058 1.366 . S
C5058 C5057 1.366 . S
C5058 C5059 1.414 . S
C5058 C5061 1.499 . S
C5059 H5033 0.950 . S
C5059 C5058 1.414 . S
C5059 C5060 1.374 . S
C5060 H5034 0.950 . S
C5060 C5056 1.385 . S
C5060 C5059 1.374 . S
C5061 C5058 1.499 . S
C5061 C5062 1.373 . S
C5061 C5063 1.389 . S
C5062 H5035 0.950 . S
C5062 C5048 1.377 . S
C5062 C5061 1.373 . S
C5063 C5047 1.377 . S
C5063 C5061 1.389 . S
C5063 C5064 1.524 . S
C5064 C5063 1.524 . S
C5064 C5065 1.397 . S
C5064 C5069 1.363 . S
C5065 H5036 0.950 . S
C5065 C5064 1.397 . S
C5065 C5066 1.334 . S
C5066 H5037 0.950 . S
C5066 C5065 1.334 . S
C5066 C5067 1.287 . S
C5067 C5066 1.287 . S
C5067 C5068 1.524 . S
C5067 H5070 0.999 . S
C5068 H5038 0.950 . S
C5068 C5067 1.524 . S
C5068 C5069 1.415 . S
C5069 H5039 0.950 . S
C5069 C5064 1.363 . S
C5069 C5068 1.415 . S
H5070 C5067 0.999 . S
H5071 C5052 0.913 . S
H5072 C5090 0.951 . S
H5073 C5092 0.951 . S
H5074 C5094 0.950 . S
H5075 C5095 0.950 . S
H5076 C5097 0.950 . S
H5077 C5100 0.950 . S
H5078 C5101 0.950 . S
H5079 C5103 0.950 . S
H5080 C5104 0.950 . S
H5081 C5105 0.951 . S
H5082 C5107 0.951 . S
H5083 C5109 0.950 . S
H5084 C5110 0.950 . S
H5085 C5112 0.950 . S
H5086 C5115 0.950 . S
H5087 C5116 0.950 . S
H5088 C5118 0.950 . S
H5089 C5119 0.950 . S
C5090 H5072 0.951 . S
C5090 C5091 1.366 . S
C5090 C5092 1.388 . S
C5091 C5090 1.366 . S
C5091 C5095 1.385 . S
C5092 H5073 0.951 . S
C5092 C5090 1.388 . S
C5092 C5093 1.366 . S
C5093 C5092 1.366 . S
C5093 C5094 1.414 . S
C5093 C5096 1.499 . S
C5094 H5074 0.950 . S
C5094 C5093 1.414 . S
C5094 C5095 1.374 . S
C5095 H5075 0.950 . S
C5095 C5091 1.385 . S
C5095 C5094 1.374 . S
C5096 C5093 1.499 . S
C5096 C5097 1.373 . S
C5096 C5098 1.389 . S
C5097 H5076 0.950 . S
C5097 C5096 1.373 . S
C5097 C5113 1.377 . S
C5098 C5096 1.389 . S
C5098 C5099 1.524 . S
C5098 C5112 1.377 . S
C5099 C5098 1.524 . S
C5099 C5100 1.397 . S
C5099 C5104 1.363 . S
C5100 H5077 0.950 . S
C5100 C5099 1.397 . S
C5100 C5101 1.334 . S
C5101 H5078 0.950 . S
C5101 C5100 1.334 . S
C5101 C5102 1.287 . S
C5102 C5101 1.287 . S
C5102 C5103 1.524 . S
C5102 H5121 0.913 . S
C5103 H5079 0.950 . S
C5103 C5102 1.524 . S
C5103 C5104 1.415 . S
C5104 H5080 0.950 . S
C5104 C5099 1.363 . S
C5104 C5103 1.415 . S
C5105 H5081 0.951 . S
C5105 C5106 1.366 . S
C5105 C5107 1.388 . S
C5106 C5105 1.366 . S
C5106 C5110 1.385 . S
C5107 H5082 0.951 . S
C5107 C5105 1.388 . S
C5107 C5108 1.366 . S
C5108 C5107 1.366 . S
C5108 C5109 1.414 . S
C5108 C5111 1.499 . S
C5109 H5083 0.950 . S
C5109 C5108 1.414 . S
C5109 C5110 1.374 . S
C5110 H5084 0.950 . S
C5110 C5106 1.385 . S
C5110 C5109 1.374 . S
C5111 C5108 1.499 . S
C5111 C5112 1.373 . S
C5111 C5113 1.389 . S
C5112 H5085 0.950 . S
C5112 C5098 1.377 . S
C5112 C5111 1.373 . S
C5113 C5097 1.377 . S
C5113 C5111 1.389 . S
C5113 C5114 1.524 . S
C5114 C5113 1.524 . S
C5114 C5115 1.397 . S
C5114 C5119 1.363 . S
C5115 H5086 0.950 . S
C5115 C5114 1.397 . S
C5115 C5116 1.334 . S
C5116 H5087 0.950 . S
C5116 C5115 1.334 . S
C5116 C5117 1.287 . S
C5117 C5116 1.287 . S
C5117 C5118 1.524 . S
C5117 H5120 0.999 . S
C5118 H5088 0.950 . S
C5118 C5117 1.524 . S
C5118 C5119 1.415 . S
C5119 H5089 0.950 . S
C5119 C5114 1.363 . S
C5119 C5118 1.415 . S
H5120 C5117 0.999 . S
H5121 C5102 0.913 . S
H5122 C5140 0.951 . S
H5123 C5142 0.951 . S
H5124 C5144 0.950 . S
H5125 C5145 0.950 . S
H5126 C5147 0.950 . S
H5127 C5150 0.950 . S
H5128 C5151 0.950 . S
H5129 C5153 0.950 . S
H5130 C5154 0.950 . S
H5131 C5155 0.951 . S
H5132 C5157 0.951 . S
H5133 C5159 0.950 . S
H5134 C5160 0.950 . S
H5135 C5162 0.950 . S
H5136 C5165 0.950 . S
H5137 C5166 0.950 . S
H5138 C5168 0.950 . S
H5139 C5169 0.950 . S
C5140 H5122 0.951 . S
C5140 C5141 1.366 . S
C5140 C5142 1.388 . S
C5141 C5140 1.366 . S
C5141 C5145 1.385 . S
C5142 H5123 0.951 . S
C5142 C5140 1.388 . S
C5142 C5143 1.366 . S
C5143 C5142 1.366 . S
C5143 C5144 1.414 . S
C5143 C5146 1.499 . S
C5144 H5124 0.950 . S
C5144 C5143 1.414 . S
C5144 C5145 1.374 . S
C5145 H5125 0.950 . S
C5145 C5141 1.385 . S
C5145 C5144 1.374 . S
C5146 C5143 1.499 . S
C5146 C5147 1.373 . S
C5146 C5148 1.389 . S
C5147 H5126 0.950 . S
C5147 C5146 1.373 . S
C5147 C5163 1.377 . S
C5148 C5146 1.389 . S
C5148 C5149 1.524 . S
C5148 C5162 1.377 . S
C5149 C5148 1.524 . S
C5149 C5150 1.397 . S
C5149 C5154 1.363 . S
C5150 H5127 0.950 . S
C5150 C5149 1.397 . S
C5150 C5151 1.334 . S
C5151 H5128 0.950 . S
C5151 C5150 1.334 . S
C5151 C5152 1.287 . S
C5152 C5151 1.287 . S
C5152 C5153 1.524 . S
C5152 H5171 0.913 . S
C5153 H5129 0.950 . S
C5153 C5152 1.524 . S
C5153 C5154 1.415 . S
C5154 H5130 0.950 . S
C5154 C5149 1.363 . S
C5154 C5153 1.415 . S
C5155 H5131 0.951 . S
C5155 C5156 1.366 . S
C5155 C5157 1.388 . S
C5156 C5155 1.366 . S
C5156 C5160 1.385 . S
C5157 H5132 0.951 . S
C5157 C5155 1.388 . S
C5157 C5158 1.366 . S
C5158 C5157 1.366 . S
C5158 C5159 1.414 . S
C5158 C5161 1.499 . S
C5159 H5133 0.950 . S
C5159 C5158 1.414 . S
C5159 C5160 1.374 . S
C5160 H5134 0.950 . S
C5160 C5156 1.385 . S
C5160 C5159 1.374 . S
C5161 C5158 1.499 . S
C5161 C5162 1.373 . S
C5161 C5163 1.389 . S
C5162 H5135 0.950 . S
C5162 C5148 1.377 . S
C5162 C5161 1.373 . S
C5163 C5147 1.377 . S
C5163 C5161 1.389 . S
C5163 C5164 1.524 . S
C5164 C5163 1.524 . S
C5164 C5165 1.397 . S
C5164 C5169 1.363 . S
C5165 H5136 0.950 . S
C5165 C5164 1.397 . S
C5165 C5166 1.334 . S
C5166 H5137 0.950 . S
C5166 C5165 1.334 . S
C5166 C5167 1.287 . S
C5167 C5166 1.287 . S
C5167 C5168 1.524 . S
C5167 H5170 0.999 . S
C5168 H5138 0.950 . S
C5168 C5167 1.524 . S
C5168 C5169 1.415 . S
C5169 H5139 0.950 . S
C5169 C5164 1.363 . S
C5169 C5168 1.415 . S
H5170 C5167 0.999 . S
H5171 C5152 0.913 . S
H5172 C5190 0.951 . S
H5173 C5192 0.951 . S
H5174 C5194 0.950 . S
H5175 C5195 0.950 . S
H5176 C5197 0.950 . S
H5177 C5200 0.950 . S
H5178 C5201 0.950 . S
H5179 C5203 0.950 . S
H5180 C5204 0.950 . S
H5181 C5205 0.951 . S
H5182 C5207 0.951 . S
H5183 C5209 0.950 . S
H5184 C5210 0.950 . S
H5185 C5212 0.950 . S
H5186 C5215 0.950 . S
H5187 C5216 0.950 . S
H5188 C5218 0.950 . S
H5189 C5219 0.928 1_565 S
C5190 H5172 0.951 . S
C5190 C5191 1.366 . S
C5190 C5192 1.388 . S
C5191 C5190 1.366 . S
C5191 C5195 1.385 . S
C5192 H5173 0.951 . S
C5192 C5190 1.388 . S
C5192 C5193 1.366 . S
C5193 C5192 1.366 . S
C5193 C5194 1.414 . S
C5193 C5196 1.499 . S
C5194 H5174 0.950 . S
C5194 C5193 1.414 . S
C5194 C5195 1.374 . S
C5195 H5175 0.950 . S
C5195 C5191 1.385 . S
C5195 C5194 1.374 . S
C5196 C5193 1.499 . S
C5196 C5197 1.373 . S
C5196 C5198 1.389 . S
C5197 H5176 0.950 . S
C5197 C5196 1.373 . S
C5197 C5213 1.377 . S
C5198 C5196 1.389 . S
C5198 C5199 1.524 . S
C5198 C5212 1.377 . S
C5199 C5198 1.524 . S
C5199 C5200 1.397 . S
C5199 C5204 1.363 . S
C5200 H5177 0.950 . S
C5200 C5199 1.397 . S
C5200 C5201 1.334 . S
C5201 H5178 0.950 . S
C5201 C5200 1.334 . S
C5201 C5202 1.287 . S
C5202 C5201 1.287 . S
C5202 C5203 1.524 . S
C5202 H5221 0.913 . S
C5203 H5179 0.950 . S
C5203 C5202 1.524 . S
C5203 C5204 1.415 . S
C5204 H5180 0.950 . S
C5204 C5199 1.363 . S
C5204 C5203 1.415 . S
C5205 H5181 0.951 . S
C5205 C5206 1.366 . S
C5205 C5207 1.388 . S
C5206 C5205 1.366 . S
C5206 C5210 1.385 . S
C5207 H5182 0.951 . S
C5207 C5205 1.388 . S
C5207 C5208 1.366 . S
C5208 C5207 1.366 . S
C5208 C5209 1.414 . S
C5208 C5211 1.468 1_545 S
C5209 H5183 0.950 . S
C5209 C5208 1.414 . S
C5209 C5210 1.374 . S
C5210 H5184 0.950 . S
C5210 C5206 1.385 . S
C5210 C5209 1.374 . S
C5211 C5208 1.468 1_565 S
C5211 C5212 1.394 . S
C5211 C5213 1.400 . S
C5212 H5185 0.950 . S
C5212 C5198 1.377 . S
C5212 C5211 1.394 . S
C5213 C5197 1.377 . S
C5213 C5211 1.400 . S
C5213 C5214 1.524 1_565 S
C5214 C5213 1.524 1_545 S
C5214 C5215 1.397 . S
C5214 C5219 1.363 . S
C5215 H5186 0.950 . S
C5215 C5214 1.397 . S
C5215 C5216 1.334 . S
C5216 H5187 0.950 . S
C5216 C5215 1.334 . S
C5216 C5217 1.287 . S
C5217 C5216 1.287 . S
C5217 C5218 1.524 . S
C5217 H5220 0.999 . S
C5218 H5188 0.950 . S
C5218 C5217 1.524 . S
C5218 C5219 1.415 . S
C5219 H5189 0.928 1_545 S
C5219 C5214 1.363 . S
C5219 C5218 1.415 . S
H5220 C5217 0.999 . S
H5221 C5202 0.913 . S
H5222 C5240 0.951 . S
H5223 C5242 0.951 . S
H5224 C5244 0.950 . S
H5225 C5245 0.950 . S
H5226 C5247 0.950 . S
H5227 C5250 0.950 . S
H5228 C5251 0.950 . S
H5229 C5253 0.950 . S
H5230 C5254 0.950 . S
H5231 C5255 0.951 . S
H5232 C5257 0.951 . S
H5233 C5259 0.950 . S
H5234 C5260 0.950 . S
H5235 C5262 0.950 . S
H5236 C5265 0.950 . S
H5237 C5266 0.950 . S
H5238 C5268 0.950 . S
H5239 C5269 0.950 . S
C5240 H5222 0.951 . S
C5240 C5241 1.366 . S
C5240 C5242 1.388 . S
C5241 C5240 1.366 . S
C5241 C5245 1.385 . S
C5242 H5223 0.951 . S
C5242 C5240 1.388 . S
C5242 C5243 1.366 . S
C5243 C5242 1.366 . S
C5243 C5244 1.414 . S
C5243 C5246 1.499 . S
C5244 H5224 0.950 . S
C5244 C5243 1.414 . S
C5244 C5245 1.374 . S
C5245 H5225 0.950 . S
C5245 C5241 1.385 . S
C5245 C5244 1.374 . S
C5246 C5243 1.499 . S
C5246 C5247 1.373 . S
C5246 C5248 1.389 . S
C5247 H5226 0.950 . S
C5247 C5246 1.373 . S
C5247 C5263 1.377 . S
C5248 C5246 1.389 . S
C5248 C5249 1.524 . S
C5248 C5262 1.377 . S
C5249 C5248 1.524 . S
C5249 C5250 1.397 . S
C5249 C5254 1.363 . S
C5250 H5227 0.950 . S
C5250 C5249 1.397 . S
C5250 C5251 1.334 . S
C5251 H5228 0.950 . S
C5251 C5250 1.334 . S
C5251 C5252 1.287 . S
C5252 C5251 1.287 . S
C5252 C5253 1.524 . S
C5252 H5271 0.913 . S
C5253 H5229 0.950 . S
C5253 C5252 1.524 . S
C5253 C5254 1.415 . S
C5254 H5230 0.950 . S
C5254 C5249 1.363 . S
C5254 C5253 1.415 . S
C5255 H5231 0.951 . S
C5255 C5256 1.366 . S
C5255 C5257 1.388 . S
C5256 C5255 1.366 . S
C5256 C5260 1.385 . S
C5257 H5232 0.951 . S
C5257 C5255 1.388 . S
C5257 C5258 1.366 . S
C5258 C5257 1.366 . S
C5258 C5259 1.414 . S
C5258 C5261 1.499 . S
C5259 H5233 0.950 . S
C5259 C5258 1.414 . S
C5259 C5260 1.374 . S
C5260 H5234 0.950 . S
C5260 C5256 1.385 . S
C5260 C5259 1.374 . S
C5261 C5258 1.499 . S
C5261 C5262 1.373 . S
C5261 C5263 1.389 . S
C5262 H5235 0.950 . S
C5262 C5248 1.377 . S
C5262 C5261 1.373 . S
C5263 C5247 1.377 . S
C5263 C5261 1.389 . S
C5263 C5264 1.524 . S
C5264 C5263 1.524 . S
C5264 C5265 1.397 . S
C5264 C5269 1.363 . S
C5265 H5236 0.950 . S
C5265 C5264 1.397 . S
C5265 C5266 1.334 . S
C5266 H5237 0.950 . S
C5266 C5265 1.334 . S
C5266 C5267 1.287 . S
C5267 C5266 1.287 . S
C5267 C5268 1.524 . S
C5267 H5270 0.999 . S
C5268 H5238 0.950 . S
C5268 C5267 1.524 . S
C5268 C5269 1.415 . S
C5269 H5239 0.950 . S
C5269 C5264 1.363 . S
C5269 C5268 1.415 . S
H5270 C5267 0.999 . S
H5271 C5252 0.913 . S
H5272 C5290 0.951 . S
H5273 C5292 0.951 . S
H5274 C5294 0.950 . S
H5275 C5295 0.950 . S
H5276 C5297 0.950 . S
H5277 C5300 0.950 . S
H5278 C5301 0.950 . S
H5279 C5303 0.950 . S
H5280 C5304 0.950 . S
H5281 C5305 0.951 . S
H5282 C5307 0.951 . S
H5283 C5309 0.950 . S
H5284 C5310 0.950 . S
H5285 C5312 0.950 . S
H5286 C5315 0.950 . S
H5287 C5316 0.950 . S
H5288 C5318 0.950 . S
H5289 C5319 0.950 . S
C5290 H5272 0.951 . S
C5290 C5291 1.366 . S
C5290 C5292 1.388 . S
C5291 C5290 1.366 . S
C5291 C5295 1.385 . S
C5292 H5273 0.951 . S
C5292 C5290 1.388 . S
C5292 C5293 1.366 . S
C5293 C5292 1.366 . S
C5293 C5294 1.414 . S
C5293 C5296 1.499 . S
C5294 H5274 0.950 . S
C5294 C5293 1.414 . S
C5294 C5295 1.374 . S
C5295 H5275 0.950 . S
C5295 C5291 1.385 . S
C5295 C5294 1.374 . S
C5296 C5293 1.499 . S
C5296 C5297 1.373 . S
C5296 C5298 1.389 . S
C5297 H5276 0.950 . S
C5297 C5296 1.373 . S
C5297 C5313 1.377 . S
C5298 C5296 1.389 . S
C5298 C5299 1.524 . S
C5298 C5312 1.377 . S
C5299 C5298 1.524 . S
C5299 C5300 1.397 . S
C5299 C5304 1.363 . S
C5300 H5277 0.950 . S
C5300 C5299 1.397 . S
C5300 C5301 1.334 . S
C5301 H5278 0.950 . S
C5301 C5300 1.334 . S
C5301 C5302 1.287 . S
C5302 C5301 1.287 . S
C5302 C5303 1.524 . S
C5302 H5321 0.913 . S
C5303 H5279 0.950 . S
C5303 C5302 1.524 . S
C5303 C5304 1.415 . S
C5304 H5280 0.950 . S
C5304 C5299 1.363 . S
C5304 C5303 1.415 . S
C5305 H5281 0.951 . S
C5305 C5306 1.366 . S
C5305 C5307 1.388 . S
C5306 C5305 1.366 . S
C5306 C5310 1.385 . S
C5307 H5282 0.951 . S
C5307 C5305 1.388 . S
C5307 C5308 1.366 . S
C5308 C5307 1.366 . S
C5308 C5309 1.414 . S
C5308 C5311 1.499 . S
C5309 H5283 0.950 . S
C5309 C5308 1.414 . S
C5309 C5310 1.374 . S
C5310 H5284 0.950 . S
C5310 C5306 1.385 . S
C5310 C5309 1.374 . S
C5311 C5308 1.499 . S
C5311 C5312 1.373 . S
C5311 C5313 1.389 . S
C5312 H5285 0.950 . S
C5312 C5298 1.377 . S
C5312 C5311 1.373 . S
C5313 C5297 1.377 . S
C5313 C5311 1.389 . S
C5313 C5314 1.524 . S
C5314 C5313 1.524 . S
C5314 C5315 1.397 . S
C5314 C5319 1.363 . S
C5315 H5286 0.950 . S
C5315 C5314 1.397 . S
C5315 C5316 1.334 . S
C5316 H5287 0.950 . S
C5316 C5315 1.334 . S
C5316 C5317 1.287 . S
C5317 C5316 1.287 . S
C5317 C5318 1.524 . S
C5317 H5320 0.999 . S
C5318 H5288 0.950 . S
C5318 C5317 1.524 . S
C5318 C5319 1.415 . S
C5319 H5289 0.950 . S
C5319 C5314 1.363 . S
C5319 C5318 1.415 . S
H5320 C5317 0.999 . S
H5321 C5302 0.913 . S
H5322 C5340 0.951 . S
H5323 C5342 0.951 . S
H5324 C5344 0.950 . S
H5325 C5345 0.950 . S
H5326 C5347 0.950 . S
H5327 C5350 0.950 . S
H5328 C5351 0.950 . S
H5329 C5353 0.950 . S
H5330 C5354 0.950 . S
H5331 C5355 0.951 . S
H5332 C5357 0.951 . S
H5333 C5359 0.950 . S
H5334 C5360 0.950 . S
H5335 C5362 0.950 . S
H5336 C5365 0.950 . S
H5337 C5366 0.950 . S
H5338 C5368 0.950 . S
H5339 C5369 0.950 . S
C5340 H5322 0.951 . S
C5340 C5341 1.366 . S
C5340 C5342 1.388 . S
C5341 C5340 1.366 . S
C5341 C5345 1.385 . S
C5342 H5323 0.951 . S
C5342 C5340 1.388 . S
C5342 C5343 1.366 . S
C5343 C5342 1.366 . S
C5343 C5344 1.414 . S
C5343 C5346 1.499 . S
C5344 H5324 0.950 . S
C5344 C5343 1.414 . S
C5344 C5345 1.374 . S
C5345 H5325 0.950 . S
C5345 C5341 1.385 . S
C5345 C5344 1.374 . S
C5346 C5343 1.499 . S
C5346 C5347 1.373 . S
C5346 C5348 1.389 . S
C5347 H5326 0.950 . S
C5347 C5346 1.373 . S
C5347 C5363 1.377 . S
C5348 C5346 1.389 . S
C5348 C5349 1.524 . S
C5348 C5362 1.377 . S
C5349 C5348 1.524 . S
C5349 C5350 1.397 . S
C5349 C5354 1.363 . S
C5350 H5327 0.950 . S
C5350 C5349 1.397 . S
C5350 C5351 1.334 . S
C5351 H5328 0.950 . S
C5351 C5350 1.334 . S
C5351 C5352 1.287 . S
C5352 C5351 1.287 . S
C5352 C5353 1.524 . S
C5352 H5371 0.913 . S
C5353 H5329 0.950 . S
C5353 C5352 1.524 . S
C5353 C5354 1.415 . S
C5354 H5330 0.950 . S
C5354 C5349 1.363 . S
C5354 C5353 1.415 . S
C5355 H5331 0.951 . S
C5355 C5356 1.366 . S
C5355 C5357 1.388 . S
C5356 C5355 1.366 . S
C5356 C5360 1.385 . S
C5357 H5332 0.951 . S
C5357 C5355 1.388 . S
C5357 C5358 1.366 . S
C5358 C5357 1.366 . S
C5358 C5359 1.414 . S
C5358 C5361 1.499 . S
C5359 H5333 0.950 . S
C5359 C5358 1.414 . S
C5359 C5360 1.374 . S
C5360 H5334 0.950 . S
C5360 C5356 1.385 . S
C5360 C5359 1.374 . S
C5361 C5358 1.499 . S
C5361 C5362 1.373 . S
C5361 C5363 1.389 . S
C5362 H5335 0.950 . S
C5362 C5348 1.377 . S
C5362 C5361 1.373 . S
C5363 C5347 1.377 . S
C5363 C5361 1.389 . S
C5363 C5364 1.524 . S
C5364 C5363 1.524 . S
C5364 C5365 1.397 . S
C5364 C5369 1.363 . S
C5365 H5336 0.950 . S
C5365 C5364 1.397 . S
C5365 C5366 1.334 . S
C5366 H5337 0.950 . S
C5366 C5365 1.334 . S
C5366 C5367 1.287 . S
C5367 C5366 1.287 . S
C5367 C5368 1.524 . S
C5367 H5370 0.999 . S
C5368 H5338 0.950 . S
C5368 C5367 1.524 . S
C5368 C5369 1.415 . S
C5369 H5339 0.950 . S
C5369 C5364 1.363 . S
C5369 C5368 1.415 . S
H5370 C5367 0.999 . S
H5371 C5352 0.913 . S
H5372 C5390 0.951 . S
H5373 C5392 0.951 . S
H5374 C5394 0.950 . S
H5375 C5395 0.950 . S
H5376 C5397 0.950 . S
H5377 C5400 0.950 . S
H5378 C5401 0.950 . S
H5379 C5403 0.950 . S
H5380 C5404 0.950 . S
H5381 C5405 0.951 . S
H5382 C5407 0.951 . S
H5383 C5409 0.950 . S
H5384 C5410 0.950 . S
H5385 C5412 0.950 . S
H5386 C5415 0.950 . S
H5387 C5416 0.950 . S
H5388 C5418 0.950 . S
H5389 C5419 0.950 . S
C5390 H5372 0.951 . S
C5390 C5391 1.366 . S
C5390 C5392 1.388 . S
C5391 C5390 1.366 . S
C5391 C5395 1.385 . S
C5392 H5373 0.951 . S
C5392 C5390 1.388 . S
C5392 C5393 1.366 . S
C5393 C5392 1.366 . S
C5393 C5394 1.414 . S
C5393 C5396 1.504 . S
C5394 H5374 0.950 . S
C5394 C5393 1.414 . S
C5394 C5395 1.374 . S
C5395 H5375 0.950 . S
C5395 C5391 1.385 . S
C5395 C5394 1.374 . S
C5396 C5393 1.504 . S
C5396 C5397 1.370 1_565 S
C5396 C5398 1.387 1_565 S
C5397 H5376 0.950 . S
C5397 C5396 1.370 1_545 S
C5397 C5413 1.377 . S
C5398 C5396 1.387 1_545 S
C5398 C5399 1.524 1_545 S
C5398 C5412 1.377 . S
C5399 C5398 1.524 1_565 S
C5399 C5400 1.397 . S
C5399 C5404 1.363 1_565 S
C5400 H5377 0.950 . S
C5400 C5399 1.397 . S
C5400 C5401 1.334 . S
C5401 H5378 0.950 . S
C5401 C5400 1.334 . S
C5401 C5402 1.287 . S
C5402 C5401 1.287 . S
C5402 C5403 1.524 . S
C5402 H5421 0.913 . S
C5403 H5379 0.950 . S
C5403 C5402 1.524 . S
C5403 C5404 1.415 1_565 S
C5404 H5380 0.950 . S
C5404 C5399 1.363 1_545 S
C5404 C5403 1.415 1_545 S
C5405 H5381 0.951 . S
C5405 C5406 1.366 . S
C5405 C5407 1.388 . S
C5406 C5405 1.366 . S
C5406 C5410 1.385 . S
C5407 H5382 0.951 . S
C5407 C5405 1.388 . S
C5407 C5408 1.366 . S
C5408 C5407 1.366 . S
C5408 C5409 1.414 . S
C5408 C5411 1.499 . S
C5409 H5383 0.950 . S
C5409 C5408 1.414 . S
C5409 C5410 1.374 . S
C5410 H5384 0.950 . S
C5410 C5406 1.385 . S
C5410 C5409 1.374 . S
C5411 C5408 1.499 . S
C5411 C5412 1.373 . S
C5411 C5413 1.389 . S
C5412 H5385 0.950 . S
C5412 C5398 1.377 . S
C5412 C5411 1.373 . S
C5413 C5397 1.377 . S
C5413 C5411 1.389 . S
C5413 C5414 1.524 . S
C5414 C5413 1.524 . S
C5414 C5415 1.397 . S
C5414 C5419 1.363 . S
C5415 H5386 0.950 . S
C5415 C5414 1.397 . S
C5415 C5416 1.334 . S
C5416 H5387 0.950 . S
C5416 C5415 1.334 . S
C5416 C5417 1.287 . S
C5417 C5416 1.287 . S
C5417 C5418 1.524 . S
C5417 H5420 0.999 . S
C5418 H5388 0.950 . S
C5418 C5417 1.524 . S
C5418 C5419 1.415 . S
C5419 H5389 0.950 . S
C5419 C5414 1.363 . S
C5419 C5418 1.415 . S
H5420 C5417 0.999 . S
H5421 C5402 0.913 . S
H5422 C5440 0.951 . S
H5423 C5442 0.951 . S
H5424 C5444 0.950 . S
H5425 C5445 0.950 . S
H5426 C5447 0.950 . S
H5427 C5450 0.950 . S
H5428 C5451 0.950 . S
H5429 C5453 0.950 . S
H5430 C5454 0.950 . S
H5431 C5455 0.951 . S
H5432 C5457 0.951 . S
H5433 C5459 0.950 . S
H5434 C5460 0.950 . S
H5435 C5462 0.950 . S
H5436 C5465 0.950 . S
H5437 C5466 0.950 . S
H5438 C5468 0.950 1_565 S
H5439 C5469 0.950 . S
C5440 H5422 0.951 . S
C5440 C5441 1.366 . S
C5440 C5442 1.388 . S
C5441 C5440 1.366 . S
C5441 C5445 1.385 . S
C5442 H5423 0.951 . S
C5442 C5440 1.388 . S
C5442 C5443 1.366 . S
C5443 C5442 1.366 . S
C5443 C5444 1.414 . S
C5443 C5446 1.499 . S
C5444 H5424 0.950 . S
C5444 C5443 1.414 . S
C5444 C5445 1.374 . S
C5445 H5425 0.950 . S
C5445 C5441 1.385 . S
C5445 C5444 1.374 . S
C5446 C5443 1.499 . S
C5446 C5447 1.373 . S
C5446 C5448 1.389 . S
C5447 H5426 0.950 . S
C5447 C5446 1.373 . S
C5447 C5463 1.377 . S
C5448 C5446 1.389 . S
C5448 C5449 1.524 . S
C5448 C5462 1.377 . S
C5449 C5448 1.524 . S
C5449 C5450 1.397 . S
C5449 C5454 1.363 . S
C5450 H5427 0.950 . S
C5450 C5449 1.397 . S
C5450 C5451 1.334 . S
C5451 H5428 0.950 . S
C5451 C5450 1.334 . S
C5451 C5452 1.287 . S
C5452 C5451 1.287 . S
C5452 C5453 1.524 . S
C5452 H5471 0.913 . S
C5453 H5429 0.950 . S
C5453 C5452 1.524 . S
C5453 C5454 1.415 . S
C5454 H5430 0.950 . S
C5454 C5449 1.363 . S
C5454 C5453 1.415 . S
C5455 H5431 0.951 . S
C5455 C5456 1.366 . S
C5455 C5457 1.388 . S
C5456 C5455 1.366 . S
C5456 C5460 1.385 . S
C5457 H5432 0.951 . S
C5457 C5455 1.388 . S
C5457 C5458 1.366 . S
C5458 C5457 1.366 . S
C5458 C5459 1.414 . S
C5458 C5461 1.499 . S
C5459 H5433 0.950 . S
C5459 C5458 1.414 . S
C5459 C5460 1.374 . S
C5460 H5434 0.950 . S
C5460 C5456 1.385 . S
C5460 C5459 1.374 . S
C5461 C5458 1.499 . S
C5461 C5462 1.373 1_545 S
C5461 C5463 1.389 1_545 S
C5462 H5435 0.950 . S
C5462 C5448 1.377 . S
C5462 C5461 1.373 1_565 S
C5463 C5447 1.377 . S
C5463 C5461 1.389 1_565 S
C5463 C5464 1.524 1_565 S
C5464 C5463 1.524 1_545 S
C5464 C5465 1.397 . S
C5464 C5469 1.363 1_545 S
C5465 H5436 0.950 . S
C5465 C5464 1.397 . S
C5465 C5466 1.334 . S
C5466 H5437 0.950 . S
C5466 C5465 1.334 . S
C5466 C5467 1.287 . S
C5467 C5466 1.287 . S
C5467 C5468 1.524 . S
C5467 H5470 0.999 . S
C5468 H5438 0.950 1_545 S
C5468 C5467 1.524 . S
C5468 C5469 1.415 1_545 S
C5469 H5439 0.950 . S
C5469 C5464 1.363 1_565 S
C5469 C5468 1.415 1_565 S
H5470 C5467 0.999 . S
H5471 C5452 0.913 . S
C691 C591 1.328 . S
C706 C3 1.344 . S
C741 C23 1.345 . S
C756 C217 1.345 . S
C791 C31 1.332 . S
C806 C563 1.316 . S
C841 C51 1.331 . S
C856 C245 1.332 . S
C891 C623 1.331 . S
C906 C63 1.312 . S
C941 C78 1.337 . S
C956 C297 1.326 . S
C991 C91 1.312 . S
C1006 C651 1.331 . S
C1041 C106 1.305 . S
C1056 C269 1.295 . S
C1091 C50 1.316 . S
C1106 C661 1.305 . S
C1141 C7 1.304 . S
C1156 C357 1.323 . S
C1191 C371 1.319 . S
C1206 C22 1.319 . S
C1241 C35 1.295 . S
C1256 C339 1.304 . S
C1291 C79 1.356 . S
C1306 C343 1.356 . S
C1341 C87 1.341 . S
C1356 C665 1.335 . S
C1391 C107 1.355 . S
C1406 C353 1.343 . S
C1441 C59 1.349 . S
C1456 C367 1.333 . S
C1491 C549 1.319 . S
C1506 C120 1.329 . S
C1541 C134 1.303 . S
C1556 C273 1.303 . S
C1591 C121 1.325 . S
C1606 C619 1.314 . S
C1641 C301 1.355 . S
C1656 C149 1.355 . S
C1691 C311 1.309 . S
C1706 C162 1.321 . S
C1741 C577 1.350 . S
C1756 C177 1.358 . S
C1791 C595 1.345 . S
C1806 C191 1.346 . S
C1841 C567 1.358 . S
C1856 C205 1.359 . S
C1891 C465 1.277 . S
C1906 C218 1.287 . S
C1941 C233 1.359 . S
C1956 C9 1.328 . S
C1991 C246 1.296 . S
C2006 C437 1.287 . S
C2041 C37 1.341 . S
C2056 C261 1.373 . S
C2091 C275 1.301 . S
C2106 C497 1.301 . S
C2141 C92 1.328 . S
C2156 C288 1.325 . S
C2191 C303 1.299 . S
C2206 C525 1.298 . S
C2241 C64 1.360 . S
C2256 C316 1.357 . S
C2291 C535 1.301 . S
C2306 C260 1.310 . S
C2341 C219 1.317 . S
C2356 C143 1.310 . S
C2391 C161 1.305 . S
C2406 C232 1.306 . S
C2441 C133 1.318 . S
C2456 C247 1.319 . S
C2491 C129 1.333 . S
C2506 C289 1.342 . S
C2541 C302 1.271 . S
C2556 C539 1.270 . S
C2591 C147 1.349 . S
C2606 C317 1.349 . S
C2641 C274 1.265 . S
C2656 C157 1.257 . S
C2691 C330 1.330 . S
C2706 C428 1.333 . S
C2741 C345 1.393 . S
C2756 C65 1.360 . S
C2791 C331 1.332 . S
C2806 C493 1.325 . S
C2841 C358 1.365 . S
C2856 C93 1.333 . S
C2891 C372 1.310 . S
C2906 C101 1.303 . S
C2941 C456 1.352 . S
C2956 C387 1.349 . S
C2991 C401 1.324 . S
C3006 C469 1.323 . S
C3041 C415 1.337 . S
C3056 C441 1.335 . S
C3091 C423 1.348 . S
C3106 C255 1.332 . S
C3141 C443 1.333 . S
C3156 C553 1.334 . S
C3191 C227 1.313 . S
C3206 C451 1.330 . S
C3241 C471 1.341 . S
C3256 C581 1.341 . S
C3291 C483 1.314 . S
C3306 C287 1.332 . S
C3341 C633 1.296 . S
C3356 C498 1.306 . S
C3391 C511 1.303 . S
C3406 C315 1.323 . S
C3441 C605 1.301 . S
C3456 C526 1.311 . S
C3491 C325 1.306 . S
C3506 C470 1.317 . S
C3541 C413 1.318 . S
C3556 C427 1.299 . S
C3591 C442 1.320 . S
C3606 C385 1.320 . S
C3641 C399 1.314 . S
C3656 C455 1.295 . S
C3691 C499 1.350 . S
C3706 C395 1.336 . S
C3741 C329 1.339 . S
C3756 C507 1.345 . S
C3791 C527 1.351 . S
C3806 C409 1.339 . S
C3841 C479 1.347 . S
C3856 C381 1.331 . S
C3891 C540 1.322 . S
C3906 C213 1.313 . S
C3941 C190 1.296 . S
C3956 C609 1.296 . S
C3991 C283 1.320 . S
C4006 C541 1.331 . S
C4041 C637 1.313 . S
C4056 C204 1.312 . S
C4091 C647 1.294 . S
C4106 C176 1.304 . S
C4141 C163 1.358 . S
C4156 C241 1.349 . S
C4191 C135 1.360 . S
C4206 C259 1.360 . S
C4241 C231 1.329 . S
C4256 C148 1.329 . S
C4291 C554 1.285 . S
C4306 C45 1.276 . S
C4341 C429 1.335 . S
C4356 C569 1.367 . S
C4391 C582 1.300 . S
C4406 C17 1.291 . S
C4441 C597 1.362 . S
C4456 C457 1.330 . S
C4491 C77 1.291 . S
C4506 C611 1.291 . S
C4541 C624 1.330 . S
C4556 C512 1.334 . S
C4591 C639 1.300 . S
C4606 C105 1.299 . S
C4641 C484 1.331 . S
C4656 C652 1.328 . S
C4691 C596 1.312 . S
C4706 C115 1.303 . S
C4741 C203 1.317 . S
C4756 C555 1.317 . S
C4791 C175 1.306 . S
C4806 C568 1.307 . S
C4841 C583 1.315 . S
C4856 C189 1.314 . S
C4891 C625 1.338 . S
C4906 C185 1.328 . S
C4941 C119 1.267 . S
C4956 C638 1.269 . S
C4991 C199 1.336 . S
C5006 C653 1.344 . S
C5041 C610 1.270 . S
C5056 C171 1.261 . S
C5091 C8 1.333 . S
C5106 C666 1.330 . S
C5141 C400 1.350 . S
C5156 C485 1.320 . S
C5191 C73 1.341 . S
C5206 C667 1.348 . S
C5241 C513 1.327 . S
C5256 C414 1.358 . S
C5291 C521 1.297 . S
C5306 C386 1.305 . S
C5341 C373 1.342 . S
C5356 C36 1.346 . S
C5391 C344 1.294 . S
C5406 C49 1.294 . S
C5441 C21 1.350 . S
C5456 C359 1.351 . S
