# Generated by pormake.
# Topology smc, (6)-cn, num edge types: 1
# Building blocks:
#     Node 0, Type 0, BuildingBlock: KUMBUR_clean_sbu_0, # of connection points: 6
#     Node 1, Type 0, BuildingBlock: KUMBUR_clean_sbu_0, # of connection points: 6
#     Node 2, Type 0, BuildingBlock: KUMBUR_clean_sbu_0, # of connection points: 6
#     Node 3, Type 0, BuildingBlock: KUMBUR_clean_sbu_0, # of connection points: 6
#     Node 4, Type 0, BuildingBlock: KUMBUR_clean_sbu_0, # of connection points: 6
#     Node 5, Type 0, BuildingBlock: KUMBUR_clean_sbu_0, # of connection points: 6
#     Node 6, Type 0, BuildingBlock: KUMBUR_clean_sbu_0, # of connection points: 6
#     Node 7, Type 0, BuildingBlock: KUMBUR_clean_sbu_0, # of connection points: 6
#     Node 8, Type 0, BuildingBlock: KUMBUR_clean_sbu_0, # of connection points: 6
#     Edge 9, Type (0, 0), BuildingBlock: AJUNOK_clean_linker_0, # of connection points: 2
#     Edge 10, Type (0, 0), BuildingBlock: AJUNOK_clean_linker_0, # of connection points: 2
#     Edge 11, Type (0, 0), BuildingBlock: AJUNOK_clean_linker_0, # of connection points: 2
#     Edge 12, Type (0, 0), BuildingBlock: AJUNOK_clean_linker_0, # of connection points: 2
#     Edge 13, Type (0, 0), BuildingBlock: AJUNOK_clean_linker_0, # of connection points: 2
#     Edge 14, Type (0, 0), BuildingBlock: AJUNOK_clean_linker_0, # of connection points: 2
#     Edge 15, Type (0, 0), BuildingBlock: AJUNOK_clean_linker_0, # of connection points: 2
#     Edge 16, Type (0, 0), BuildingBlock: AJUNOK_clean_linker_0, # of connection points: 2
#     Edge 17, Type (0, 0), BuildingBlock: AJUNOK_clean_linker_0, # of connection points: 2
#     Edge 18, Type (0, 0), BuildingBlock: AJUNOK_clean_linker_0, # of connection points: 2
#     Edge 19, Type (0, 0), BuildingBlock: AJUNOK_clean_linker_0, # of connection points: 2
#     Edge 20, Type (0, 0), BuildingBlock: AJUNOK_clean_linker_0, # of connection points: 2
#     Edge 21, Type (0, 0), BuildingBlock: AJUNOK_clean_linker_0, # of connection points: 2
#     Edge 22, Type (0, 0), BuildingBlock: AJUNOK_clean_linker_0, # of connection points: 2
#     Edge 23, Type (0, 0), BuildingBlock: AJUNOK_clean_linker_0, # of connection points: 2
#     Edge 24, Type (0, 0), BuildingBlock: AJUNOK_clean_linker_0, # of connection points: 2
#     Edge 25, Type (0, 0), BuildingBlock: AJUNOK_clean_linker_0, # of connection points: 2
#     Edge 26, Type (0, 0), BuildingBlock: AJUNOK_clean_linker_0, # of connection points: 2
#     Edge 27, Type (0, 0), BuildingBlock: AJUNOK_clean_linker_0, # of connection points: 2
#     Edge 28, Type (0, 0), BuildingBlock: AJUNOK_clean_linker_0, # of connection points: 2
#     Edge 29, Type (0, 0), BuildingBlock: AJUNOK_clean_linker_0, # of connection points: 2
#     Edge 30, Type (0, 0), BuildingBlock: AJUNOK_clean_linker_0, # of connection points: 2
#     Edge 31, Type (0, 0), BuildingBlock: AJUNOK_clean_linker_0, # of connection points: 2
#     Edge 32, Type (0, 0), BuildingBlock: AJUNOK_clean_linker_0, # of connection points: 2
#     Edge 33, Type (0, 0), BuildingBlock: AJUNOK_clean_linker_0, # of connection points: 2
#     Edge 34, Type (0, 0), BuildingBlock: AJUNOK_clean_linker_0, # of connection points: 2
#     Edge 35, Type (0, 0), BuildingBlock: AJUNOK_clean_linker_0, # of connection points: 2
# Relax obj value: 0.112
# Max RMSD: 0.303
# Mean RMSD: 0.303
data_MOF--net-smc--node1-KUMBUR_clean_sbu_0--edge1-AJUNOK_clean_linker_0
_symmetry_space_group_name_H-M    P1
_symmetry_Int_Tables_number       1
_symmetry_cell_setting            triclinic
loop_
_symmetry_equiv_pos_as_xyz
'x, y, z'
_cell_length_a     29.634431
_cell_length_b     29.656928
_cell_length_c     29.435443
_cell_angle_alpha  89.995132
_cell_angle_beta   89.922524
_cell_angle_gamma 119.90754
loop_
_atom_site_label
_atom_site_type_symbol
_atom_site_fract_x
_atom_site_fract_y
_atom_site_fract_z
_atom_type_partial_charge
Tb0 Tb 0.0894 0.52866 0.98725 0.0
C1 C 1.02249 0.32284 0.08453 0.0
C2 C 0.04355 0.27258 0.03296 0.0
C3 C 1.03834 0.25547 0.11414 0.0
C4 C 1.03292 0.31329 0.04097 0.0
C5 C 1.02413 0.2935 0.12155 0.0
C6 C 0.04772 0.24479 0.06986 0.0
C7 C 0.99014 0.33607 0.16903 0.0
N8 N 1.0068 0.35837 0.09008 0.0
C9 C 0.98808 0.36332 0.13126 0.0
C10 C 1.00902 0.30158 0.16445 0.0
Tb11 Tb 1.00419 0.40089 0.02603 0.0
N12 N 1.02818 0.34081 1.00617 0.0
C13 C 1.03049 0.32698 0.96221 0.0
C14 C 0.04679 0.25907 0.98808 0.0
C15 C 1.03878 0.28545 0.95261 0.0
H16 H 0.97294 0.38947 0.13533 0.0
H17 H 1.04035 0.27474 0.91773 0.0
H18 H 0.05655 0.21388 0.06438 0.0
H19 H 0.97649 0.34153 0.20136 0.0
H20 H 1.02583 0.34729 0.93398 0.0
H21 H 0.11761 0.63057 0.14863 0.0
H22 H 0.05411 0.22753 0.98047 0.0
H23 H 1.0164 0.52484 0.89332 0.0
H24 H 0.11943 0.56695 0.09953 0.0
H25 H 0.97248 0.56938 0.86811 0.0
H26 H 1.04023 0.23277 0.14214 0.0
H27 H 0.08133 0.68474 0.1218 0.0
H28 H 1.03938 0.70795 0.06071 0.0
H29 H 1.00983 0.27998 0.19379 0.0
H30 H 0.99826 0.68999 0.98569 0.0
N31 N 0.08069 0.57929 0.04307 0.0
C32 C 0.10115 0.58729 0.08618 0.0
C33 C 0.08098 0.65542 0.09966 0.0
C34 C 0.06004 0.64761 0.05614 0.0
C35 C 0.10114 0.62478 0.11488 0.0
C36 C 0.06005 0.60867 0.02833 0.0
H37 H 0.9714 0.63741 0.91513 0.0
N38 N 1.03715 0.5606 0.95981 0.0
C39 C 0.99006 0.57771 0.90151 0.0
C40 C 1.0372 0.59872 0.98577 0.0
C41 C 1.0147 0.55107 0.91732 0.0
C42 C 0.98984 0.6163 0.92793 0.0
C43 C 1.01393 0.62766 0.97029 0.0
O44 O 0.13506 0.57933 0.93474 0.0
O45 O 0.08455 0.45541 1.00126 0.0
O46 O 0.06393 0.42913 0.07774 0.0
O47 O 0.12451 0.51189 0.05089 0.0
O48 O 0.12161 0.49157 0.9442 0.0
O49 O 0.16149 0.59646 1.00309 0.0
O50 O 0.92795 0.37429 0.0503 0.0
O51 O 1.01079 0.47557 0.00794 0.0
O52 O 0.05171 0.48221 0.92492 0.0
O53 O 0.9913 0.40082 0.95364 0.0
O54 O 0.98064 0.4447 0.07043 0.0
O55 O 0.94134 0.33452 0.99593 0.0
C56 C 0.11449 0.45364 0.97047 0.0
C57 C 0.17834 0.66923 0.95562 0.0
C58 C 0.23117 0.76494 0.96459 0.0
C59 C 0.22469 0.71422 0.97045 0.0
C60 C 0.19026 0.7695 0.94558 0.0
C61 C 0.14088 0.6768 0.93296 0.0
C62 C 0.14588 0.7259 0.92947 0.0
C63 C 0.10795 0.47317 0.08216 0.0
C64 C 0.16877 0.61467 0.9619 0.0
C65 C 1.01544 0.66725 0.99734 0.0
C66 C 1.03877 0.67742 0.04002 0.0
C67 C 0.98947 0.48174 0.04289 0.0
C68 C 0.86602 0.28549 0.04206 0.0
C69 C 0.81267 0.26969 0.03693 0.0
C70 C 0.77373 0.22398 0.05841 0.0
C71 C 0.78972 0.19579 0.08612 0.0
C72 C 0.88007 0.25486 0.06801 0.0
C73 C 0.84219 0.21065 0.09025 0.0
C74 C 1.01229 0.43358 0.91975 0.0
C75 C 0.9065 0.33535 0.02239 0.0
H76 H 0.25578 0.71 0.98534 0.0
H77 H 0.19408 0.80745 0.94044 0.0
H78 H 0.10747 0.64475 0.9173 0.0
H79 H 0.11576 0.73035 0.91284 0.0
H80 H 0.80182 0.2936 0.01715 0.0
H81 H 0.76151 0.1614 0.10416 0.0
H82 H 0.92027 0.26533 0.07163 0.0
H83 H 0.85355 0.18778 0.11092 0.0
Tb84 Tb 0.55769 0.58011 0.97289 0.0
C85 C 0.75609 0.71293 0.09014 0.0
C86 C 0.80643 0.79475 0.05066 0.0
C87 C 0.81868 0.78964 0.13166 0.0
C88 C 0.76835 0.74147 0.05053 0.0
C89 C 0.78111 0.7366 0.13123 0.0
C90 C 0.83136 0.81871 0.09147 0.0
C91 C 0.7318 0.65319 0.16792 0.0
N92 N 0.71976 0.66166 0.08819 0.0
C93 C 0.70862 0.6313 0.12634 0.0
C94 C 0.76812 0.70612 0.17052 0.0
Tb95 Tb 0.68583 0.62915 0.01749 0.0
N96 N 0.74331 0.71688 0.01179 0.0
C97 C 0.75533 0.74381 0.9717 0.0
C98 C 0.81834 0.82234 0.0098 0.0
C99 C 0.79268 0.79673 0.97018 0.0
H100 H 0.6809 0.59029 0.12551 0.0
H101 H 0.80185 0.81781 0.9384 0.0
H102 H 0.86062 0.85959 0.09226 0.0
H103 H 0.72157 0.62891 0.19784 0.0
H104 H 0.73637 0.7251 0.94057 0.0
H105 H 0.45617 0.45822 0.11798 0.0
H106 H 0.84726 0.86331 0.00846 0.0
H107 H 0.5402 0.55657 0.86256 0.0
H108 H 0.52206 0.53706 0.0808 0.0
H109 H 0.49048 0.48143 0.81208 0.0
H110 H 0.83849 0.80833 0.16277 0.0
H111 H 0.40047 0.37972 0.07288 0.0
H112 H 0.37758 0.33543 0.99703 0.0
H113 H 0.78635 0.72293 0.20277 0.0
H114 H 0.38947 0.34069 0.91415 0.0
N115 N 0.50524 0.50543 0.01363 0.0
C116 C 0.49856 0.50401 0.05983 0.0
C117 C 0.42987 0.41447 0.05595 0.0
C118 C 0.43687 0.4156 0.00894 0.0
C119 C 0.46099 0.4588 0.08148 0.0
C120 C 0.47486 0.46236 0.98846 0.0
H121 H 0.43191 0.39464 0.84491 0.0
N122 N 0.51667 0.51164 0.92338 0.0
C123 C 0.48841 0.47596 0.84853 0.0
C124 C 0.48153 0.46532 0.9419 0.0
C125 C 0.51761 0.5182 0.87727 0.0
C126 C 0.45522 0.42717 0.86719 0.0
C127 C 0.45027 0.42167 0.91439 0.0
O128 O 0.51672 0.60498 0.931 0.0
O129 O 0.62745 0.65011 0.99288 0.0
O130 O 0.65083 0.65375 0.06898 0.0
O131 O 0.56441 0.61571 0.04366 0.0
O132 O 0.59715 0.64879 0.93089 0.0
O133 O 0.48726 0.57448 0.99697 0.0
O134 O 0.71904 0.58244 0.03408 0.0
O135 O 0.61418 0.56036 0.99532 0.0
O136 O 0.60854 0.57355 0.91776 0.0
O137 O 0.69023 0.63449 0.94406 0.0
O138 O 0.64658 0.55495 0.05434 0.0
O139 O 0.7541 0.64189 0.98366 0.0
C140 C 0.62927 0.68017 0.96083 0.0
C141 C 0.42351 0.55469 0.93815 0.0
C142 C 0.3268 0.50416 0.94271 0.0
C143 C 0.37633 0.53555 0.96378 0.0
C144 C 0.3258 0.49311 0.89612 0.0
C145 C 0.41953 0.54321 0.89145 0.0
C146 C 0.37146 0.51231 0.871 0.0
C147 C 0.60208 0.64185 0.07482 0.0
C148 C 0.47686 0.58846 0.95831 0.0
C149 C 0.41361 0.37463 0.93471 0.0
C150 C 0.40671 0.37169 0.98187 0.0
C151 C 0.60942 0.52915 0.02652 0.0
C152 C 0.81032 0.62088 0.02543 0.0
C153 C 0.82812 0.58438 0.02678 0.0
C154 C 0.87705 0.59785 0.04634 0.0
C155 C 0.90746 0.64842 0.06392 0.0
C156 C 0.84245 0.671 0.0427 0.0
C157 C 0.89042 0.68448 0.06192 0.0
C158 C 0.6603 0.6035 0.91166 0.0
C159 C 0.75825 0.60656 0.00664 0.0
H160 H 0.37811 0.54512 0.99947 0.0
H161 H 0.28915 0.47075 0.87841 0.0
H162 H 0.45368 0.55879 0.87001 0.0
H163 H 0.36953 0.50399 0.83502 0.0
H164 H 0.80381 0.54564 0.0132 0.0
H165 H 0.94517 0.66067 0.07875 0.0
H166 H 0.8307 0.7 0.04119 0.0
H167 H 0.91474 0.72331 0.07523 0.0
Tb168 Tb 0.51539 1.01355 0.98612 0.0
C169 C 0.35281 0.05794 0.07767 0.0
C170 C 0.27403 1.00172 0.03622 0.0
C171 C 0.2684 1.02689 0.1136 0.0
C172 C 0.32886 0.03092 0.03868 0.0
C173 C 0.3229 0.05705 0.11533 0.0
C174 C 0.24399 0.99915 0.07412 0.0
C175 C 0.40266 0.1178 0.1528 0.0
N176 N 0.40565 0.08568 0.07838 0.0
C177 C 0.4307 0.11727 0.11471 0.0
C178 C 0.34856 0.08708 0.15331 0.0
Tb179 Tb 0.44779 0.08127 0.01407 0.0
N180 N 0.35926 0.03432 1.00281 0.0
C181 C 0.33663 1.01266 0.96209 0.0
C182 C 0.25101 0.97653 0.99557 0.0
C183 C 0.28244 0.98245 0.95823 0.0
H184 H 0.47229 0.14237 0.11494 0.0
H185 H 0.2648 0.96332 0.92659 0.0
H186 H 0.20187 0.97656 0.07297 0.0
H187 H 0.42281 0.14221 0.18164 0.0
H188 H 0.35988 1.0173 0.93255 0.0
H189 H 0.5943 0.02899 0.15574 0.0
H190 H 0.20908 0.95327 0.99239 0.0
H191 H 0.57869 0.05686 0.88476 0.0
H192 H 0.52911 1.02139 0.1015 0.0
H193 H 0.66739 0.10006 0.85671 0.0
H194 H 0.2448 1.02532 0.14238 0.0
H195 H 0.68305 0.05443 0.12953 0.0
H196 H 0.74711 0.08214 0.06557 0.0
H197 H 0.32683 0.08774 0.18262 0.0
H198 H 0.76831 0.10801 0.98572 0.0
N199 N 0.57696 0.03722 0.04299 0.0
C200 C 0.56599 0.02974 0.08846 0.0
C201 C 0.65379 0.04996 0.10508 0.0
C202 C 0.66603 0.06084 0.05911 0.0
C203 C 0.60377 0.03542 0.11993 0.0
C204 C 0.62651 0.05463 0.02866 0.0
H205 H 0.73965 0.11779 0.90857 0.0
N206 N 0.59863 0.06033 0.95523 0.0
C207 C 0.65999 0.09248 0.89271 0.0
C208 C 0.63805 0.06809 0.9836 0.0
C209 C 0.6092 0.07013 0.90955 0.0
C210 C 0.70054 0.10189 0.92194 0.0
C211 C 0.68973 0.08847 0.96769 0.0
O212 O 0.51807 0.96127 0.93892 0.0
O213 O 0.43888 1.00428 0.99375 0.0
O214 O 0.42943 0.03132 0.07225 0.0
O215 O 0.46252 0.97726 0.04956 0.0
O216 O 0.4547 0.97676 0.93604 0.0
O217 O 0.51865 0.94743 0.00993 0.0
O218 O 0.49422 0.16342 0.01405 0.0
O219 O 0.52312 0.0866 1.00321 0.0
O220 O 0.52025 0.06579 0.92789 0.0
O221 O 0.44959 0.0771 0.94102 0.0
O222 O 0.51557 0.12244 0.05932 0.0
O223 O 0.42091 0.1263 0.98032 0.0
C224 C 0.41685 0.97383 0.95989 0.0
C225 C 0.56784 0.9215 0.9622 0.0
C226 C 0.60917 0.86707 0.9705 0.0
C227 C 0.56601 0.87509 0.97778 0.0
C228 C 0.65399 0.90626 0.94929 0.0
C229 C 0.61174 0.95661 0.9371 0.0
C230 C 0.65492 0.9503 0.93222 0.0
C231 C 0.43517 0.99054 0.0786 0.0
C232 C 0.52398 0.93282 0.96949 0.0
C233 C 0.72874 0.09328 0.99752 0.0
C234 C 0.71667 0.07855 0.04295 0.0
C235 C 0.54781 0.11436 0.03667 0.0
C236 C 0.44978 0.21066 0.0118 0.0
C237 C 0.48738 0.26428 0.00837 0.0
C238 C 0.4786 0.30229 0.02909 0.0
C239 C 0.43141 0.28572 0.05236 0.0
C240 C 0.40299 0.19575 0.03497 0.0
C241 C 0.39397 0.2331 0.055 0.0
C242 C 0.48788 0.08264 0.91496 0.0
C243 C 0.46041 0.17065 0.99251 0.0
H244 H 0.53117 0.84512 0.99419 0.0
H245 H 0.68717 0.90106 0.94301 0.0
H246 H 0.6125 0.98846 0.91978 0.0
H247 H 0.68858 0.97883 0.91346 0.0
H248 H 0.52374 0.27621 0.99072 0.0
H249 H 0.42338 0.31362 0.06867 0.0
H250 H 0.37344 0.15519 0.0379 0.0
H251 H 0.35787 0.22117 0.07302 0.0
Tb252 Tb 0.73225 0.84482 0.31015 0.0
C253 C 0.69937 0.65479 0.41833 0.0
C254 C 0.75258 0.62815 0.37676 0.0
C255 C 0.74067 0.61299 0.45807 0.0
C256 C 0.72182 0.65228 0.37805 0.0
C257 C 0.7081 0.63476 0.4587 0.0
C258 C 0.76265 0.60942 0.41708 0.0
C259 C 0.64872 0.65555 0.49689 0.0
N260 N 0.66844 0.67655 0.41784 0.0
C261 C 0.64011 0.67362 0.45579 0.0
C262 C 0.6837 0.63701 0.49849 0.0
Tb263 Tb 0.66473 0.71357 0.35015 0.0
N264 N 0.71221 0.67198 0.33991 0.0
C265 C 0.72875 0.66429 0.2986 0.0
C266 C 0.77179 0.62294 0.33493 0.0
C267 C 0.75917 0.6404 0.29564 0.0
H268 H 0.61244 0.68714 0.45518 0.0
H269 H 0.77343 0.63595 0.26307 0.0
H270 H 0.78678 0.59148 0.41681 0.0
H271 H 0.62853 0.65628 0.52727 0.0
H272 H 0.72012 0.67735 0.26749 0.0
H273 H 0.72863 0.94217 0.46483 0.0
H274 H 0.7956 0.60474 0.33249 0.0
H275 H 0.6987 0.85596 0.20311 0.0
H276 H 0.74231 0.88134 0.41986 0.0
H277 H 0.65522 0.89663 0.16397 0.0
H278 H 0.74829 0.59796 0.48891 0.0
H279 H 0.69146 0.99179 0.42938 0.0
H280 H 0.65508 1.01127 0.36036 0.0
H281 H 0.69111 0.62361 0.53024 0.0
H282 H 0.63178 0.99613 0.2796 0.0
N283 N 0.71099 0.89254 0.35855 0.0
C284 C 0.72475 0.90077 0.40345 0.0
C285 C 0.69652 0.96402 0.40928 0.0
C286 C 0.6825 0.95589 0.36347 0.0
C287 C 0.71748 0.93611 0.42938 0.0
C288 C 0.69047 0.91964 0.33864 0.0
H289 H 0.63038 0.95266 0.2066 0.0
N290 N 0.68846 0.87827 0.2698 0.0
C291 C 0.66014 0.90022 0.20046 0.0
C292 C 0.67793 0.91154 0.29306 0.0
C293 C 0.68282 0.87519 0.2233 0.0
C294 C 0.64668 0.93217 0.22454 0.0
C295 C 0.65683 0.93933 0.27111 0.0
O296 O 0.78652 0.89392 0.26099 0.0
O297 O 0.74149 0.77856 0.3248 0.0
O298 O 0.7124 0.75243 0.40749 0.0
O299 O 0.76889 0.83447 0.37624 0.0
O300 O 0.76551 0.81352 0.26298 0.0
O301 O 0.79883 0.91559 0.33087 0.0
O302 O 0.58258 0.68117 0.34458 0.0
O303 O 0.66027 0.78323 0.33527 0.0
O304 O 0.67251 0.79089 0.25841 0.0
O305 O 0.66821 0.71398 0.27727 0.0
O306 O 0.62623 0.74457 0.39409 0.0
O307 O 0.61725 0.63475 0.33213 0.0
C308 C 0.77061 0.7828 0.29083 0.0
C309 C 0.82824 0.98579 0.27663 0.0
C310 C 0.88475 0.08186 0.2784 0.0
C311 C 0.8737 0.03125 0.29265 0.0
C312 C 0.84945 0.08627 0.24975 0.0
C313 C 0.79645 0.99299 0.24554 0.0
C314 C 0.80593 0.04225 0.23332 0.0
C315 C 0.75409 0.79834 0.40988 0.0
C316 C 0.81478 0.93106 0.28955 0.0
C317 C 0.64797 0.97459 0.29589 0.0
C318 C 0.66125 0.98322 0.34185 0.0
C319 C 0.63491 0.78392 0.36952 0.0
C320 C 0.53137 0.59128 0.36326 0.0
C321 C 0.47784 0.57473 0.35583 0.0
C322 C 0.4383 0.53313 0.38151 0.0
C323 C 0.45347 0.50804 0.41359 0.0
C324 C 0.54439 0.56512 0.3959 0.0
C325 C 0.50578 0.52395 0.4207 0.0
C326 C 0.65679 0.74095 0.24934 0.0
C327 C 0.57355 0.6346 0.33645 0.0
H328 H 0.90069 1.02729 0.31477 0.0
H329 H 0.85684 0.12416 0.23845 0.0
H330 H 0.76472 0.96063 0.22928 0.0
H331 H 0.78011 0.04626 0.20977 0.0
H332 H 0.46716 0.5944 0.33067 0.0
H333 H 0.42461 0.47542 0.43316 0.0
H334 H 0.58457 0.57607 0.40207 0.0
H335 H 0.51646 0.504 0.44555 0.0
Tb336 Tb 0.22097 0.90367 0.31408 0.0
C337 C 0.40468 0.03258 0.42955 0.0
C338 C 0.44097 0.11851 0.39656 0.0
C339 C 0.44977 0.10929 0.47744 0.0
C340 C 0.41256 0.0638 0.39209 0.0
C341 C 0.42462 0.05508 0.47232 0.0
C342 C 0.45792 0.14099 0.43962 0.0
C343 C 0.39954 0.96948 0.50086 0.0
N344 N 0.38077 0.98032 0.42342 0.0
C345 C 0.38102 0.94898 0.45774 0.0
C346 C 0.42035 1.02262 0.50838 0.0
Tb347 Tb 0.35048 0.95152 0.35114 0.0
N348 N 0.39653 0.0408 0.3508 0.0
C349 C 0.41248 0.07061 0.31229 0.0
C350 C 0.45385 0.14903 0.35738 0.0
C351 C 0.44082 0.12493 0.31505 0.0
H352 H 0.36418 0.9076 0.4524 0.0
H353 H 0.45243 0.1482 0.28438 0.0
H354 H 0.479 0.18287 0.44376 0.0
H355 H 0.3975 0.94423 0.52823 0.0
H356 H 0.40334 0.05336 0.279 0.0
H357 H 0.12786 0.79003 0.46415 0.0
H358 H 0.47576 0.19111 0.35934 0.0
H359 H 0.20752 0.86763 0.20245 0.0
H360 H 0.18706 0.86853 0.42237 0.0
H361 H 0.16696 0.78693 0.15886 0.0
H362 H 0.46469 0.12718 0.51016 0.0
H363 H 0.07725 0.70671 0.4236 0.0
H364 H 0.05461 0.65753 0.35037 0.0
H365 H 0.43411 0.0386 0.54175 0.0
H366 H 0.0695 0.65579 0.26862 0.0
N367 N 0.17536 0.83082 0.35823 0.0
C368 C 0.16812 0.83265 0.40401 0.0
C369 C 0.1047 0.74111 0.40499 0.0
C370 C 0.1116 0.73923 0.35821 0.0
C371 C 0.13338 0.78797 0.42801 0.0
C372 C 0.14777 0.78522 0.33546 0.0
H373 H 0.11299 0.70303 0.19783 0.0
N374 N 0.18805 0.83033 0.26784 0.0
C375 C 0.16436 0.7855 0.19557 0.0
C376 C 0.15544 0.78463 0.28914 0.0
C377 C 0.18935 0.83131 0.22096 0.0
C378 C 0.13356 0.73837 0.21754 0.0
C379 C 0.12721 0.73769 0.26452 0.0
O380 O 0.16844 0.91291 0.27173 0.0
O381 O 0.29236 0.97512 0.32941 0.0
O382 O 0.30248 0.93776 0.41094 0.0
O383 O 0.23835 0.95008 0.3799 0.0
O384 O 0.25427 0.97223 0.27092 0.0
O385 O 0.15192 0.89804 0.34199 0.0
O386 O 0.38311 0.90537 0.3696 0.0
O387 O 0.27186 0.88308 0.34815 0.0
O388 O 0.2721 0.90414 0.25659 0.0
O389 O 0.35637 0.96295 0.27877 0.0
O390 O 0.33168 0.87509 0.32391 0.0
O391 O 0.42798 0.97638 0.33139 0.0
C392 C 0.29145 1.00403 0.2972 0.0
C393 C 0.0784 0.85856 0.29173 0.0
C394 C 0.98239 0.81506 0.29863 0.0
C395 C 1.03294 0.85722 0.30949 0.0
C396 C 0.97828 0.77398 0.27205 0.0
C397 C 0.07109 0.81923 0.26111 0.0
C398 C 1.02225 0.77651 0.2529 0.0
C399 C 0.26954 0.95487 0.41472 0.0
C400 C 0.1331 0.90083 0.30296 0.0
C401 C 0.09166 0.69191 0.2871 0.0
C402 C 0.08325 0.69289 0.33366 0.0
C403 C 0.28285 0.85046 0.33157 0.0
C404 C 0.47432 0.9428 0.37353 0.0
C405 C 0.48915 0.90447 0.36865 0.0
C406 C 0.53385 0.90956 0.39074 0.0
C407 C 0.56227 0.95342 0.41876 0.0
C408 C 0.50379 0.98603 0.40125 0.0
C409 C 0.54738 0.99106 0.42388 0.0
C410 C 0.32319 0.93222 0.2482 0.0
C411 C 0.42736 0.93589 0.34989 0.0
H412 H 1.03669 0.88909 0.3302 0.0
H413 H 0.94045 0.74166 0.26304 0.0
H414 H 0.10287 0.82183 0.24214 0.0
H415 H 1.01831 0.74622 0.22996 0.0
H416 H 0.46516 0.87044 0.34821 0.0
H417 H 0.59685 0.95938 0.43631 0.0
H418 H 0.49303 1.01572 0.40554 0.0
H419 H 0.57 1.02451 0.44537 0.0
Tb420 Tb 0.1671 0.32319 0.31743 0.0
C421 C 1.02106 0.38749 0.41083 0.0
C422 C 0.93943 0.33545 0.37158 0.0
C423 C 0.93939 0.36544 0.44839 0.0
C424 C 0.99426 0.36009 0.37279 0.0
C425 C 0.994 0.39116 0.44886 0.0
C426 C 0.91214 0.33759 0.40981 0.0
C427 C 0.07686 0.44748 0.48401 0.0
N428 N 0.07383 0.4106 0.41045 0.0
C429 C 0.10197 0.4424 0.44573 0.0
C430 C 1.02265 0.42105 0.48598 0.0
Tb431 Tb 0.11071 0.4001 0.3452 0.0
N432 N 1.02198 0.35855 0.33662 0.0
C433 C 0.99709 0.33641 0.29684 0.0
C434 C 0.9137 0.30985 0.33183 0.0
C435 C 0.9427 0.31071 0.29418 0.0
H436 H 0.14383 0.46432 0.44498 0.0
H437 H 0.92308 0.29158 0.26309 0.0
H438 H 0.87001 0.31848 0.40964 0.0
H439 H 0.09944 0.47229 0.51178 0.0
H440 H 1.01881 0.33789 0.26705 0.0
H441 H 0.25963 0.35285 0.48319 0.0
H442 H 0.87162 0.2901 0.3296 0.0
H443 H 0.21575 0.33919 0.2131 0.0
H444 H 0.18879 0.33606 0.43202 0.0
H445 H 0.3007 0.36776 0.17714 0.0
H446 H 0.91792 0.3674 0.47744 0.0
H447 H 0.34628 0.37642 0.45267 0.0
H448 H 0.40415 0.39443 0.38516 0.0
H449 H 1.00338 0.425 0.51578 0.0
H450 H 0.41615 0.40176 0.30239 0.0
N451 N 0.23209 0.34667 0.371 0.0
C452 C 0.22499 0.34432 0.41713 0.0
C453 C 0.31468 0.36815 0.42951 0.0
C454 C 0.32243 0.3717 0.38255 0.0
C455 C 0.26583 0.35472 0.44683 0.0
C456 C 0.28 0.36071 0.35381 0.0
H457 H 0.37832 0.39315 0.22479 0.0
N458 N 0.24546 0.35499 0.28054 0.0
C459 C 0.29772 0.36831 0.21376 0.0
C460 C 0.28689 0.36524 0.30716 0.0
C461 C 0.24977 0.35341 0.23431 0.0
C462 C 0.34128 0.3822 0.24075 0.0
C463 C 0.33606 0.37981 0.28802 0.0
O464 O 0.14525 0.25886 0.2748 0.0
O465 O 0.09249 0.31905 0.32664 0.0
O466 O 0.09247 0.35261 0.40522 0.0
O467 O 0.11786 0.29239 0.3831 0.0
O468 O 0.10671 0.2926 0.2669 0.0
O469 O 0.18046 0.26186 0.33872 0.0
O470 O 0.16111 0.48154 0.3419 0.0
O471 O 0.18309 0.39977 0.33252 0.0
O472 O 0.18238 0.38171 0.26089 0.0
O473 O 0.11237 0.3946 0.27183 0.0
O474 O 0.18093 0.43948 0.38785 0.0
O475 O 0.08488 0.44722 0.31354 0.0
C476 C 0.06987 0.29114 0.2914 0.0
C477 C 0.20036 0.22151 0.27588 0.0
C478 C 0.25064 0.17492 0.27239 0.0
C479 C 0.22161 0.19323 0.29764 0.0
C480 C 0.25924 0.1874 0.22585 0.0
C481 C 0.20875 0.23073 0.22886 0.0
C482 C 0.23878 0.21506 0.2046 0.0
C483 C 0.09457 0.30988 0.41251 0.0
C484 C 0.16572 0.23772 0.29993 0.0
C485 C 0.37818 0.39051 0.3165 0.0
C486 C 0.37132 0.38627 0.36362 0.0
C487 C 0.21067 0.42835 0.36461 0.0
C488 C 0.12106 0.53284 0.34472 0.0
C489 C 0.16055 0.58542 0.33943 0.0
C490 C 0.15639 0.62605 0.36075 0.0
C491 C 0.11293 0.61237 0.38889 0.0
C492 C 0.07724 0.52124 0.37124 0.0
C493 C 0.07367 0.56068 0.39365 0.0
C494 C 0.15164 0.40032 0.24682 0.0
C495 C 0.12684 0.49061 0.32357 0.0
H496 H 0.21465 0.1848 0.33356 0.0
H497 H 0.27984 0.17357 0.20484 0.0
H498 H 0.19131 0.24947 0.21007 0.0
H499 H 0.24479 0.22292 0.16852 0.0
H500 H 0.19459 0.59432 0.31925 0.0
H501 H 0.10827 0.64181 0.40646 0.0
H502 H 0.04581 0.4817 0.37498 0.0
H503 H 1.04004 0.55119 0.41461 0.0
Tb504 Tb 0.43336 0.18257 0.63785 0.0
C505 C 0.36313 0.99183 0.75755 0.0
C506 C 0.39816 0.94306 0.72056 0.0
C507 C 0.38503 0.93636 0.80212 0.0
C508 C 0.3808 0.97964 0.71842 0.0
C509 C 0.36384 0.96923 0.79955 0.0
C510 C 0.40192 0.92303 0.76269 0.0
C511 C 0.31581 1.00704 0.83239 0.0
N512 N 0.34134 1.02251 0.75381 0.0
C513 C 0.31503 1.02771 0.79004 0.0
C514 C 0.34091 0.97818 0.83738 0.0
Tb515 Tb 0.34671 0.05839 0.6834 0.0
N516 N 0.37599 0.99927 0.67797 0.0
C517 C 0.38262 0.97876 0.63839 0.0
C518 C 0.40818 0.92509 0.68019 0.0
C519 C 0.39851 0.94156 0.63906 0.0
H520 H 0.29454 0.04901 0.78707 0.0
H521 H 0.40397 0.92603 0.60759 0.0
H522 H 0.41595 0.89562 0.76492 0.0
H523 H 0.29659 1.0132 0.86092 0.0
H524 H 0.376 0.98987 0.60552 0.0
H525 H 0.41716 0.29477 0.77626 0.0
H526 H 0.42096 0.89663 0.6804 0.0
H527 H 0.43281 0.19794 0.52647 0.0
H528 H 0.43284 0.22843 0.74277 0.0
H529 H 0.41038 0.24746 0.47255 0.0
H530 H 0.38637 0.91927 0.8341 0.0
H531 H 0.39015 0.34507 0.72791 0.0
H532 H 0.36867 0.36376 0.65028 0.0
H533 H 0.34037 0.96098 0.86997 0.0
H534 H 0.36396 0.34883 0.5679 0.0
N535 N 0.41412 0.23925 0.675 0.0
C536 C 0.42088 0.24937 0.72071 0.0
C537 C 0.39661 0.3155 0.71271 0.0
C538 C 0.39058 0.30584 0.666 0.0
C539 C 0.41207 0.28733 0.7401 0.0
C540 C 0.40015 0.26731 0.64784 0.0
H541 H 0.37947 0.3057 0.50129 0.0
N542 N 0.40918 0.22316 0.58497 0.0
C543 C 0.40533 0.25016 0.50868 0.0
C544 C 0.397 0.25854 0.60144 0.0
C545 C 0.41722 0.22158 0.53931 0.0
C546 C 0.38806 0.28307 0.52504 0.0
C547 C 0.38518 0.28878 0.57194 0.0
O548 O 0.50042 0.21996 0.5968 0.0
O549 O 0.42863 0.11107 0.66091 0.0
O550 O 0.39535 0.09741 0.7411 0.0
O551 O 0.46052 0.17415 0.70834 0.0
O552 O 0.46286 0.13945 0.60009 0.0
O553 O 0.49789 0.25379 0.66031 0.0
O554 O 0.27536 0.04149 0.65253 0.0
O555 O 0.35522 0.13238 0.6616 0.0
O556 O 0.37397 0.13298 0.58413 0.0
O557 O 0.3546 0.05234 0.61106 0.0
O558 O 0.3233 0.10516 0.72397 0.0
O559 O 0.27921 0.98427 0.69255 0.0
C560 C 0.45739 0.10615 0.63102 0.0
C561 C 0.54439 0.31354 0.59928 0.0
C562 C 0.58862 0.41025 0.59933 0.0
C563 C 0.56834 0.36203 0.6233 0.0
C564 C 0.58518 0.40865 0.55164 0.0
C565 C 0.54275 0.31491 0.55155 0.0
C566 C 0.56245 0.36174 0.52823 0.0
C567 C 0.44031 0.14056 0.74329 0.0
C568 C 0.52323 0.26141 0.62235 0.0
C569 C 0.37354 0.32561 0.59002 0.0
C570 C 0.37637 0.33421 0.63694 0.0
C571 C 0.33342 0.1409 0.69471 0.0
C572 C 0.19862 0.98418 0.69326 0.0
C573 C 0.15036 0.93992 0.68138 0.0
C574 C 0.10343 0.93034 0.70295 0.0
C575 C 0.10559 0.96612 0.73541 0.0
C576 C 0.19865 1.01843 0.72622 0.0
C577 C 0.15272 1.0095 0.74698 0.0
C578 C 0.3514 0.08124 0.57881 0.0
C579 C 0.24846 0.99582 0.67059 0.0
H580 H 0.57112 0.36225 0.65999 0.0
H581 H 0.60126 0.44427 0.53199 0.0
H582 H 0.52668 0.27958 0.53165 0.0
H583 H 0.56073 0.36171 0.49149 0.0
H584 H 0.14932 0.91317 0.65577 0.0
H585 H 0.07042 0.961 0.75147 0.0
H586 H 0.23385 0.05275 0.7359 0.0
H587 H 0.15363 0.03674 0.77195 0.0
Tb588 Tb 0.90183 0.24274 0.65774 0.0
C589 C 0.11709 0.38395 0.74391 0.0
C590 C 0.15244 0.46252 0.69885 0.0
C591 C 0.18285 0.46621 0.77615 0.0
C592 C 0.11821 0.4086 0.70384 0.0
C593 C 0.14956 0.41232 0.78052 0.0
C594 C 0.18431 0.49127 0.73537 0.0
C595 C 0.11465 0.33191 0.82252 0.0
N596 N 0.08359 0.33202 0.7471 0.0
C597 C 0.08336 0.30544 0.78528 0.0
C598 C 0.14764 0.38567 0.82031 0.0
Tb599 Tb 1.03487 0.29215 0.68356 0.0
N600 N 0.08672 0.37946 0.66938 0.0
C601 C 0.09015 0.40177 0.62787 0.0
C602 C 0.15415 0.4858 0.65712 0.0
C603 C 0.12321 0.45517 0.62139 0.0
H604 H 0.05837 0.2639 0.78769 0.0
H605 H 0.12511 0.47267 0.58872 0.0
H606 H 0.21059 0.53277 0.73225 0.0
H607 H 0.11331 0.31069 0.85284 0.0
H608 H 0.06765 0.37889 0.59934 0.0
H609 H 0.83835 0.15023 0.82308 0.0
H610 H 0.17983 0.52712 0.6519 0.0
H611 H 0.8645 0.19702 0.55288 0.0
H612 H 0.89428 0.22048 0.77168 0.0
H613 H 0.80235 0.11405 0.51708 0.0
H614 H 0.20791 0.48874 0.80395 0.0
H615 H 0.77195 0.06514 0.79259 0.0
H616 H 0.72894 1.00866 0.72504 0.0
H617 H 0.17183 0.4061 0.84923 0.0
H618 H 0.72126 0.99795 0.64218 0.0
N619 N 0.85952 0.17787 0.7109 0.0
C620 C 0.86508 0.18473 0.75699 0.0
C621 C 0.79619 0.09637 0.76941 0.0
C622 C 0.79104 0.089 0.72241 0.0
C623 C 0.83354 0.14435 0.78672 0.0
C624 C 0.82363 0.13091 0.69364 0.0
H625 H 0.74863 0.03666 0.56458 0.0
N626 N 0.85111 0.16597 0.62016 0.0
C627 C 0.80737 0.11619 0.55358 0.0
C628 C 0.81953 0.12474 0.64688 0.0
C629 C 0.84338 0.16296 0.57408 0.0
C630 C 0.77694 0.07274 0.5805 0.0
C631 C 0.78208 0.07685 0.62775 0.0
O632 O 0.86177 0.26993 0.61803 0.0
O633 O 0.9747 0.31468 0.66582 0.0
O634 O 1.00937 0.31794 0.74152 0.0
O635 O 0.9228 0.29212 0.72316 0.0
O636 O 0.93521 0.30212 0.6061 0.0
O637 O 0.82855 0.23219 0.6807 0.0
O638 O 0.07117 0.24707 0.69409 0.0
O639 O 0.95998 0.2226 0.67179 0.0
O640 O 0.94029 0.22461 0.59959 0.0
O641 O 1.02711 0.2864 0.61056 0.0
O642 O 1.0021 0.22028 0.72493 0.0
O643 O 0.09827 0.30503 0.64188 0.0
C644 C 0.97059 0.33851 0.63081 0.0
C645 C 0.76933 0.21834 0.61846 0.0
C646 C 0.67293 0.16624 0.61477 0.0
C647 C 0.71973 0.19416 0.64053 0.0
C648 C 0.67697 0.16388 0.5673 0.0
C649 C 0.77046 0.21517 0.57072 0.0
C650 C 0.72502 0.18781 0.54572 0.0
C651 C 0.96501 0.31616 0.75068 0.0
C652 C 0.82021 0.2499 0.6431 0.0
C653 C 0.75003 0.03501 0.65628 0.0
C654 C 0.75437 0.04114 0.70347 0.0
C655 C 0.96024 0.19295 0.7023 0.0
C656 C 0.16064 0.28654 0.67552 0.0
C657 C 0.1779 0.2497 0.67519 0.0
C658 C 0.22896 0.26405 0.68937 0.0
C659 C 0.26223 0.3155 0.70343 0.0
C660 C 0.19545 0.33787 0.68875 0.0
C661 C 0.24575 0.3521 0.70271 0.0
C662 C 0.99008 0.25026 0.58571 0.0
C663 C 0.10624 0.27097 0.66298 0.0
H664 H 0.71754 0.1973 0.67702 0.0
H665 H 0.64245 0.14462 0.54629 0.0
H666 H 0.80673 0.23441 0.55201 0.0
H667 H 0.72703 0.18598 0.50909 0.0
H668 H 0.15152 0.20996 0.66485 0.0
H669 H 0.30127 0.32749 0.7149 0.0
H670 H 0.18386 0.36709 0.6884 0.0
H671 H 0.27208 0.39171 0.71325 0.0
Tb672 Tb 0.83576 0.66141 0.6422 0.0
C673 C 0.72311 0.72563 0.77038 0.0
C674 C 0.63204 0.67177 0.75109 0.0
C675 C 0.65662 0.70516 0.82778 0.0
C676 C 0.68511 0.69644 0.73877 0.0
C677 C 0.70917 0.73181 0.81474 0.0
C678 C 0.6181 0.67469 0.79617 0.0
C679 C 0.79952 0.79469 0.82866 0.0
N680 N 0.77356 0.75128 0.7565 0.0
C681 C 0.81154 0.78725 0.78436 0.0
C682 C 0.74814 0.76667 0.84394 0.0
Tb683 Tb 0.78727 0.7406 0.68158 0.0
N684 N 0.6999 0.69637 0.69506 0.0
C685 C 0.66356 0.67677 0.66145 0.0
C686 C 0.59456 0.64772 0.71716 0.0
C687 C 0.6104 0.65149 0.67201 0.0
H688 H 0.8512 0.80961 0.77237 0.0
H689 H 0.5816 0.63582 0.64527 0.0
H690 H 0.57757 0.65559 0.80637 0.0
H691 H 0.82973 0.82263 0.85071 0.0
H692 H 0.67543 0.68165 0.62635 0.0
H693 H 0.95155 0.68535 0.7916 0.0
H694 H 0.55339 0.62862 0.72514 0.0
H695 H 0.87155 0.68299 0.53174 0.0
H696 H 0.871 0.65561 0.74874 0.0
H697 H 0.95235 0.73162 0.48789 0.0
H698 H 0.64531 0.70946 0.86172 0.0
H699 H 1.0367 0.73591 0.75332 0.0
H700 H 0.08678 0.77578 0.68184 0.0
H701 H 0.73849 0.77378 0.87761 0.0
H702 H 0.08694 0.79034 0.59964 0.0
N703 N 0.90883 0.69146 0.68652 0.0
C704 C 0.90731 0.67913 0.73151 0.0
C705 C 1.00118 0.7233 0.7342 0.0
C706 C 1.00269 0.73416 0.68784 0.0
C707 C 0.95323 0.69506 0.75596 0.0
C708 C 0.95525 0.71674 0.66445 0.0
H709 H 1.0372 0.77481 0.52724 0.0
N710 N 0.90873 0.70614 0.59659 0.0
C711 C 0.95379 0.73136 0.52462 0.0
C712 C 0.95527 0.72545 0.61826 0.0
C713 C 0.90781 0.70516 0.54986 0.0
C714 C 1.00156 0.75537 0.54693 0.0
C715 C 1.00285 0.7511 0.59412 0.0
O716 O 0.83354 0.60322 0.59874 0.0
O717 O 0.76315 0.65866 0.65889 0.0
O718 O 0.80241 0.70603 0.74044 0.0
O719 O 0.78855 0.62979 0.7077 0.0
O720 O 0.76676 0.62561 0.59949 0.0
O721 O 0.8422 0.59805 0.66944 0.0
O722 O 0.83269 0.82199 0.68936 0.0
O723 O 0.85736 0.73306 0.67717 0.0
O724 O 0.83198 0.71199 0.58527 0.0
O725 O 0.76817 0.72907 0.61034 0.0
O726 O 0.86137 0.7981 0.65106 0.0
O727 O 0.7533 0.78709 0.66667 0.0
C728 C 0.734 0.62809 0.62702 0.0
C729 C 0.88913 0.56921 0.62139 0.0
C730 C 0.93516 0.51828 0.62786 0.0
C731 C 0.89061 0.52404 0.63682 0.0
C732 C 0.97762 0.55827 0.60474 0.0
C733 C 0.93142 0.60534 0.59522 0.0
C734 C 0.97547 0.60095 0.58821 0.0
C735 C 0.78477 0.65582 0.74349 0.0
C736 C 0.84412 0.57907 0.63023 0.0
C737 C 0.05012 0.77006 0.61755 0.0
C738 C 0.05003 0.76158 0.6643 0.0
C739 C 0.88848 0.77661 0.65938 0.0
C740 C 0.79201 0.8721 0.70189 0.0
C741 C 0.82937 0.92536 0.69437 0.0
C742 C 0.82736 0.9655 0.71901 0.0
C743 C 0.78722 0.95084 0.75122 0.0
C744 C 0.7525 0.85941 0.73397 0.0
C745 C 0.75028 0.89856 0.75842 0.0
C746 C 0.80069 0.7321 0.57856 0.0
C747 C 0.79578 0.83063 0.67665 0.0
H748 H 0.85749 0.49361 0.65477 0.0
H749 H 1.01175 0.55508 0.59721 0.0
H750 H 0.93038 0.63674 0.57873 0.0
H751 H 1.00765 0.63023 0.5685 0.0
H752 H 0.86042 0.93527 0.67007 0.0
H753 H 0.78399 0.98002 0.77079 0.0
H754 H 0.72347 0.81924 0.74032 0.0
H755 H 0.71969 0.88832 0.78325 0.0
C756 C 0.262 0.52079 0.98518 0.0
C757 C 0.2748 0.48528 0.9659 0.0
C758 C 0.20956 0.50744 0.99248 0.0
C759 C 0.16684 0.45803 0.98059 0.0
H760 H 0.29227 0.56069 0.99071 0.0
H761 H 0.20276 0.53834 1.00306 0.0
S762 S 0.18061 0.34779 0.93769 0.0
N763 N 0.24118 0.39561 0.94296 0.0
N764 N 0.14365 0.37205 0.95371 0.0
C765 C 0.17992 0.42104 0.96527 0.0
C766 C 0.23333 0.43417 0.9589 0.0
C767 C 0.58052 0.7773 0.94409 0.0
C768 C 0.60691 0.81598 0.9767 0.0
C769 C 0.58911 0.73507 0.93956 0.0
C770 C 0.62353 0.72781 0.96833 0.0
H771 H 0.55537 0.7814 0.91976 0.0
H772 H 0.56853 0.70826 0.9122 0.0
S773 S 0.70207 0.81934 0.06024 0.0
N774 N 0.66996 0.8461 0.03783 0.0
N775 N 0.68263 0.7643 0.03234 0.0
C776 C 0.64871 0.76566 1.00244 0.0
C777 C 0.64128 0.81007 1.00588 0.0
C778 C 0.32988 0.90612 0.9956 0.0
C779 C 0.37058 0.91905 0.96433 0.0
C780 C 0.28599 0.85542 0.99788 0.0
C781 C 0.28207 0.81436 0.97066 0.0
H782 H 0.33104 0.93557 0.01764 0.0
H783 H 0.2542 0.84858 0.02033 0.0
S784 S 0.3802 0.82339 0.88773 0.0
N785 N 0.40483 0.88285 0.90803 0.0
N786 N 0.32412 0.78879 0.91415 0.0
C787 C 0.32375 0.82547 0.94163 0.0
C788 C 0.36746 0.87716 0.93809 0.0
C789 C 0.53627 0.38663 0.98681 0.0
C790 C 0.51805 0.35922 0.02813 0.0
C791 C 0.56692 0.44158 0.98596 0.0
C792 C 0.57984 0.47094 0.02638 0.0
H793 H 0.52486 0.36573 0.9549 0.0
H794 H 0.57915 0.46125 0.95349 0.0
S795 S 0.54866 0.41752 0.14342 0.0
N796 N 0.52053 0.36569 0.11043 0.0
N797 N 0.57755 0.46788 0.1088 0.0
C798 C 0.56517 0.44361 0.06778 0.0
C799 C 0.53405 0.38815 0.06867 0.0
C800 C 0.62812 0.15604 0.08452 0.0
C801 C 0.60529 0.14794 0.04133 0.0
C802 C 0.68246 0.18279 0.08988 0.0
C803 C 0.71645 0.20408 0.05238 0.0
H804 H 0.60382 0.1393 0.11427 0.0
H805 H 0.69794 0.18562 0.12372 0.0
S806 S 0.67512 0.20764 0.93393 0.0
N807 N 0.61988 0.17328 0.96191 0.0
N808 N 0.72205 0.22314 0.97141 0.0
C809 C 0.69372 0.20117 0.00959 0.0
C810 C 0.63817 0.17342 1.00422 0.0
C811 C 0.92719 0.50715 0.00717 0.0
C812 C 0.95666 0.50708 0.04475 0.0
C813 C 0.89899 0.53408 0.00847 0.0
C814 C 0.89845 0.56119 0.04767 0.0
H815 H 0.92723 0.48763 0.97611 0.0
H816 H 0.87967 0.53576 0.97784 0.0
S817 S 0.95876 0.56166 0.15849 0.0
N818 N 0.97605 0.52867 0.12439 0.0
N819 N 0.92295 0.57818 0.12736 0.0
C820 C 0.92375 0.5569 0.08669 0.0
C821 C 0.95242 0.52977 0.08521 0.0
C822 C 0.84021 0.76744 0.32775 0.0
C823 C 0.82644 0.79435 0.29639 0.0
C824 C 0.89183 0.777 0.33168 0.0
C825 C 0.9329 0.81596 0.30584 0.0
H826 H 0.81073 0.73742 0.34833 0.0
H827 H 0.89931 0.75229 0.35383 0.0
S828 S 0.92138 0.90157 0.22089 0.0
N829 N 0.86148 0.86417 0.23956 0.0
N830 N 0.95735 0.88323 0.24936 0.0
C831 C 0.92077 0.84526 0.27625 0.0
C832 C 0.86817 0.83435 0.2709 0.0
C833 C 0.31405 0.14057 0.27477 0.0
C834 C 0.26795 0.13831 0.29107 0.0
C835 C 0.3237 0.0988 0.28019 0.0
C836 C 0.28977 0.05367 0.30469 0.0
H837 H 0.34128 0.17336 0.25439 0.0
H838 H 0.35591 0.10045 0.26162 0.0
S839 S 0.1641 0.02847 0.35615 0.0
N840 N 0.18843 0.08695 0.33375 0.0
N841 N 0.2074 1.01038 0.34562 0.0
C842 C 0.24501 0.05245 0.3235 0.0
C843 C 0.23442 0.0944 0.31697 0.0
C844 C 1.01435 0.20313 0.25549 0.0
C845 C 1.02079 0.23777 0.29147 0.0
C846 C 0.97288 0.15157 0.25394 0.0
C847 C 0.93454 0.13126 0.28788 0.0
H848 H 1.04179 0.21582 0.22756 0.0
H849 H 0.96963 0.12791 0.22471 0.0
S850 S 0.92698 0.20403 0.38679 0.0
N851 N 0.98183 0.24617 0.3613 0.0
N852 N 0.90233 0.15019 0.3565 0.0
C853 C 0.93898 0.16487 0.32345 0.0
C854 C 0.98223 0.21755 0.32574 0.0
C855 C 0.2376 0.77248 0.38262 0.0
C856 C 0.25467 0.79329 0.33902 0.0
C857 C 0.20862 0.7184 0.38967 0.0
C858 C 0.19535 0.68274 0.35339 0.0
H859 H 0.24572 0.79822 0.41135 0.0
H860 H 0.19524 0.70453 0.42381 0.0
S861 S 0.23918 0.71854 0.23374 0.0
N862 N 0.26367 0.77493 0.26034 0.0
N863 N 0.20701 0.67351 0.27261 0.0
C864 C 0.21589 0.70345 0.31013 0.0
C865 C 0.2463 0.75861 0.30328 0.0
C866 C 0.30149 0.47381 0.32905 0.0
C867 C 0.26897 0.45956 0.36771 0.0
C868 C 0.35648 0.50017 0.33312 0.0
C869 C 0.381 0.51425 0.37597 0.0
H870 H 0.28436 0.46303 0.29554 0.0
H871 H 0.37972 0.50737 0.30272 0.0
S872 S 0.31348 0.49581 0.48667 0.0
N873 N 0.26575 0.46839 0.44938 0.0
N874 N 0.36786 0.51854 0.45705 0.0
C875 C 0.34869 0.50418 0.4143 0.0
C876 C 0.29315 0.47715 0.41014 0.0
C877 C 0.57451 0.85867 0.42221 0.0
C878 C 0.55223 0.87064 0.38498 0.0
C879 C 0.59927 0.82902 0.41699 0.0
C880 C 0.60376 0.81063 0.37422 0.0
H881 H 0.57405 0.87344 0.45574 0.0
H882 H 0.61725 0.82255 0.44641 0.0
S883 S 0.54067 0.81811 0.26807 0.0
N884 N 0.52909 0.85324 0.30484 0.0
N885 N 0.57429 0.79635 0.29599 0.0
C886 C 0.57717 0.81728 0.33765 0.0
C887 C 0.5519 0.84766 0.34277 0.0
C888 C 0.60254 0.17341 0.6573 0.0
C889 C 0.61871 0.14237 0.63428 0.0
C890 C 0.54922 0.15806 0.66126 0.0
C891 C 0.50924 0.11088 0.64253 0.0
H892 H 0.63126 0.21206 0.66843 0.0
H893 H 0.54015 0.1862 0.67517 0.0
S894 S 0.53134 1.01258 0.58413 0.0
N895 N 0.59032 0.05892 0.59818 0.0
N896 N 0.49147 0.03214 0.60296 0.0
C897 C 0.52523 0.07797 0.62269 0.0
C898 C 0.57934 0.09297 0.61956 0.0
C899 C 0.92751 0.38909 0.60273 0.0
C900 C 0.96321 0.38604 0.63324 0.0
C901 C 0.91466 0.42884 0.60471 0.0
C902 C 0.93803 0.46961 0.63612 0.0
H903 H 0.90888 0.36046 0.57616 0.0
H904 H 0.88823 0.42918 0.57948 0.0
S905 S 1.04039 0.48788 0.71853 0.0
N906 N 1.02437 0.43169 0.69403 0.0
N907 N 1.00313 0.50829 0.69524 0.0
C908 C 0.97528 0.46897 0.66564 0.0
C909 C 0.98717 0.42715 0.66477 0.0
C910 C 0.69757 0.53472 0.65253 0.0
C911 C 0.68808 0.57408 0.63556 0.0
C912 C 0.66254 0.48098 0.64552 0.0
C913 C 0.61595 0.46358 0.62114 0.0
H914 H 0.73474 0.54533 0.66762 0.0
H915 H 0.67438 0.4533 0.65566 0.0
S916 S 0.56775 0.54782 0.57415 0.0
N917 N 0.62524 0.58918 0.59557 0.0
N918 N 0.55879 0.48944 0.58532 0.0
C919 C 0.60351 0.50179 0.60785 0.0
C920 C 0.63963 0.55642 0.61401 0.0
C921 C 0.88665 0.05528 0.75111 0.0
C922 C 0.86638 1.02265 0.71272 0.0
C923 C 0.91814 0.10966 0.74702 0.0
C924 C 0.92983 0.13452 0.70443 0.0
H925 H 0.87738 0.0387 0.78494 0.0
H926 H 0.93171 0.13271 0.77774 0.0
S927 S 0.89567 0.06738 0.59285 0.0
N928 N 0.86648 1.01968 0.63014 0.0
N929 N 0.92617 0.12157 0.62277 0.0
C930 C 0.91337 0.10242 0.66563 0.0
C931 C 0.88144 0.04674 0.66971 0.0
C932 C 0.97992 0.84154 0.63643 0.0
C933 C 0.94453 0.81076 0.6706 0.0
C934 C 1.03242 0.87739 0.64647 0.0
C935 C 0.05113 0.88509 0.69137 0.0
H936 H 0.96674 0.838 0.60162 0.0
H937 H 0.05783 0.901 0.61923 0.0
S938 S 0.97319 0.81692 0.79366 0.0
N939 N 0.93135 0.79237 0.7513 0.0
N940 N 1.0295 0.85879 0.77035 0.0
C941 C 1.01592 0.85441 0.7258 0.0
C942 C 0.96272 0.81789 0.71549 0.0
C943 C 0.28458 0.17789 0.65206 0.0
C944 C 0.30294 0.1687 0.69327 0.0
C945 C 0.25804 0.20643 0.65097 0.0
C946 C 0.24858 0.22638 0.69108 0.0
H947 H 0.292 0.16417 0.62037 0.0
H948 H 0.24681 0.21477 0.61842 0.0
S949 S 0.28328 0.20795 0.8079 0.0
N950 N 0.30515 0.17765 0.77532 0.0
N951 N 0.25643 0.23161 0.77319 0.0
C952 C 0.26438 0.21503 0.7325 0.0
C953 C 0.29082 0.18577 0.73363 0.0
C954 C 0.14983 0.47205 0.20256 0.0
C955 C 0.15888 0.42941 0.20276 0.0
C956 C 0.14087 0.49214 0.16217 0.0
C957 C 0.14125 0.47115 0.11952 0.0
H958 H 0.14597 0.488 0.23432 0.0
H959 H 0.12876 0.52097 0.16495 0.0
S960 S 0.16899 0.36356 0.09941 0.0
N961 N 0.1718 0.37004 0.15524 0.0
N962 N 0.15638 0.40823 0.07962 0.0
C963 C 0.15479 0.43161 0.11879 0.0
C964 C 0.16335 0.41072 0.16009 0.0
C965 C 0.62502 0.73892 0.16728 0.0
C966 C 0.62959 0.71307 0.20576 0.0
C967 C 0.60704 0.71295 0.12498 0.0
C968 C 0.59292 0.66025 0.11919 0.0
H969 H 0.63764 0.77987 0.16894 0.0
H970 H 0.6071 0.7351 0.09586 0.0
S971 S 0.58727 0.57133 0.20992 0.0
N972 N 0.60934 0.6279 0.2355 0.0
N973 N 0.57796 0.58166 0.15665 0.0
C974 C 0.59219 0.63291 0.15809 0.0
C975 C 0.61005 0.65864 0.20096 0.0
C976 C 0.3505 0.94783 0.12081 0.0
C977 C 0.40217 0.95696 0.11729 0.0
C978 C 0.32308 0.93569 0.16232 0.0
C979 C 0.34602 0.93195 0.20267 0.0
H980 H 0.33229 0.95431 0.09183 0.0
H981 H 0.28552 0.9335 0.16324 0.0
S982 S 0.4753 0.94047 0.21181 0.0
N983 N 0.47119 0.95258 0.15765 0.0
N984 N 0.42027 0.92984 0.23548 0.0
C985 C 0.39545 0.93567 0.19912 0.0
C986 C 0.42327 0.94789 0.15661 0.0
C987 C 0.47539 0.14552 0.86664 0.0
C988 C 0.49105 0.10757 0.86954 0.0
C989 C 0.46544 0.16197 0.82474 0.0
C990 C 0.47174 0.14217 0.78344 0.0
H991 H 0.46755 0.16053 0.89727 0.0
H992 H 0.44876 0.18722 0.82494 0.0
S993 S 0.51588 0.04555 0.77066 0.0
N994 N 0.51476 0.05294 0.82618 0.0
N995 N 0.49786 0.08494 0.7478 0.0
C996 C 0.491 0.10717 0.78554 0.0
C997 C 0.5004 0.08975 0.82832 0.0
C998 C 1.02971 0.42566 0.83753 0.0
C999 C 0.99413 0.4102 0.87343 0.0
C1000 C 1.01766 0.39633 0.79742 0.0
C1001 C 0.96919 0.35056 0.79007 0.0
H1002 H 0.06862 0.45859 0.84149 0.0
H1003 H 0.04811 0.40895 0.77247 0.0
S1004 S 0.85932 0.29646 0.87162 0.0
N1005 N 0.90572 0.34806 0.89783 0.0
N1006 N 0.88353 0.29399 0.82167 0.0
C1007 C 0.93166 0.33665 0.82438 0.0
C1008 C 0.94408 0.36615 0.86603 0.0
C1009 C 0.77509 0.65219 0.82767 0.0
C1010 C 0.75335 0.63008 0.78554 0.0
C1011 C 0.74457 0.64137 0.86709 0.0
C1012 C 0.68962 0.60803 0.86743 0.0
H1013 H 0.81622 0.68058 0.82983 0.0
H1014 H 0.76513 0.66172 0.89742 0.0
S1015 S 0.61282 0.53847 0.76524 0.0
N1016 N 0.67316 0.57212 0.74603 0.0
N1017 N 0.61571 0.55086 0.82024 0.0
C1018 C 0.6674 0.58385 0.82554 0.0
C1019 C 0.69906 0.59505 0.78485 0.0
C1020 C 0.80941 0.77033 0.45202 0.0
C1021 C 0.78637 0.8023 0.45057 0.0
C1022 C 0.81691 0.74995 0.49309 0.0
C1023 C 0.80107 0.75996 0.53513 0.0
H1024 H 0.81737 0.75671 0.42085 0.0
H1025 H 0.83165 0.72321 0.49126 0.0
S1026 S 0.74606 0.84784 0.55175 0.0
N1027 N 0.75289 0.84683 0.49622 0.0
N1028 N 0.76783 0.81072 0.57279 0.0
C1029 C 0.7821 0.79549 0.53451 0.0
C1030 C 0.7746 0.81604 0.49269 0.0
C1031 C 0.27532 0.96504 0.49892 0.0
C1032 C 0.27586 0.9867 0.45644 0.0
C1033 C 0.29701 0.99611 0.53773 0.0
C1034 C 0.32227 0.05129 0.53648 0.0
H1035 H 0.26047 0.92355 0.50177 0.0
H1036 H 0.29564 0.97597 0.5688 0.0
S1037 S 0.329 0.12752 0.43399 0.0
N1038 N 0.29977 0.06676 0.41585 0.0
N1039 N 0.34018 0.12519 0.4887 0.0
C1040 C 0.31978 0.07333 0.49471 0.0
C1041 C 0.29701 0.0412 0.45487 0.0
C1042 C 0.98763 0.26326 0.50248 0.0
C1043 C 1.00634 0.24658 0.53842 0.0
C1044 C 1.01508 0.27961 0.46128 0.0
C1045 C 0.06188 0.27905 0.45271 0.0
H1046 H 0.95431 0.26854 0.50752 0.0
H1047 H 1.00031 0.29544 0.43653 0.0
S1048 S 0.12428 0.23257 0.53484 0.0
N1049 N 0.07275 0.22627 0.56233 0.0
N1050 N 0.12285 0.25526 0.48388 0.0
C1051 C 0.07877 0.25828 0.48723 0.0
C1052 C 0.05136 0.24256 0.53009 0.0
loop_
_geom_bond_atom_site_label_1
_geom_bond_atom_site_label_2
_geom_bond_distance
_geom_bond_site_symmetry_2
_ccdc_geom_bond_type
Tb0 N31 2.659 1_456 S
Tb0 N38 2.600 . S
Tb0 O44 2.546 . S
Tb0 O45 2.610 1_556 S
Tb0 O47 2.320 1_556 S
Tb0 O48 2.552 . S
Tb0 O49 2.413 1_556 S
Tb0 O51 2.358 1_456 S
Tb0 O52 2.421 . S
Tb0 C64 2.833 . S
C1 C4 1.432 . S
C1 C5 1.414 . S
C1 N8 1.359 1_455 S
C2 C4 1.417 1_556 S
C2 C6 1.432 1_556 S
C2 C14 1.410 . S
C3 C5 1.444 . S
C3 C6 1.317 . S
C3 H26 0.929 . S
C4 C1 1.432 . S
C4 C2 1.417 1_554 S
C4 N12 1.360 1_554 S
C5 C1 1.414 . S
C5 C3 1.444 . S
C5 C10 1.385 . S
C6 C2 1.432 1_554 S
C6 C3 1.317 . S
C6 H18 0.930 . S
C7 C9 1.392 . S
C7 C10 1.370 1_655 S
C7 H19 0.931 . S
N8 C1 1.359 1_655 S
N8 C9 1.327 . S
N8 Tb11 2.600 . S
C9 C7 1.392 . S
C9 N8 1.327 . S
C9 H16 0.930 . S
C10 C5 1.385 . S
C10 C7 1.370 1_455 S
C10 H29 0.930 . S
Tb11 N8 2.600 . S
Tb11 N12 2.660 1_654 S
Tb11 O45 2.362 1_655 S
Tb11 O46 2.421 . S
Tb11 O50 2.546 . S
Tb11 O51 2.614 . S
Tb11 O53 2.320 1_554 S
Tb11 O54 2.552 . S
Tb11 O55 2.413 1_554 S
Tb11 C75 2.833 . S
N12 C4 1.360 1_556 S
N12 Tb11 2.660 1_456 S
N12 C13 1.305 . S
C13 N12 1.305 . S
C13 C15 1.407 . S
C13 H20 0.930 . S
C14 C2 1.410 . S
C14 C15 1.345 . S
C14 H22 0.930 . S
C15 C13 1.407 . S
C15 C14 1.345 . S
C15 H17 0.930 . S
H16 C9 0.930 . S
H17 C15 0.930 . S
H18 C6 0.930 . S
H19 C7 0.931 . S
H20 C13 0.930 . S
H21 C35 0.930 . S
H22 C14 0.930 . S
H23 C41 0.930 . S
H24 C32 0.946 . S
H25 C39 0.931 . S
H26 C3 0.929 . S
H27 C33 0.930 . S
H28 C66 0.930 . S
H29 C10 0.930 . S
H30 C65 0.929 . S
N31 Tb0 2.659 1_654 S
N31 C32 1.305 . S
N31 C36 1.361 1_554 S
C32 H24 0.946 . S
C32 N31 1.305 . S
C32 C35 1.407 . S
C33 H27 0.930 . S
C33 C34 1.410 . S
C33 C35 1.345 . S
C34 C33 1.410 . S
C34 C36 1.417 1_554 S
C34 C66 1.432 1_554 S
C35 H21 0.930 . S
C35 C32 1.407 . S
C35 C33 1.345 . S
C36 N31 1.361 1_556 S
C36 C34 1.417 1_556 S
C36 C40 1.432 . S
H37 C42 0.930 . S
N38 Tb0 2.600 . S
N38 C40 1.359 1_455 S
N38 C41 1.327 . S
C39 H25 0.931 . S
C39 C41 1.392 . S
C39 C42 1.370 1_455 S
C40 C36 1.432 . S
C40 N38 1.359 1_655 S
C40 C43 1.414 . S
C41 H23 0.930 . S
C41 N38 1.327 . S
C41 C39 1.392 . S
C42 H37 0.930 . S
C42 C39 1.370 1_655 S
C42 C43 1.385 . S
C43 C40 1.414 . S
C43 C42 1.385 . S
C43 C65 1.444 . S
O44 Tb0 2.546 . S
O44 C64 1.251 . S
O45 Tb0 2.610 1_554 S
O45 Tb11 2.362 1_455 S
O45 C56 1.283 1_554 S
O46 Tb11 2.421 . S
O46 C63 1.262 1_655 S
O47 Tb0 2.320 1_554 S
O47 C63 1.260 . S
O48 Tb0 2.552 . S
O48 C56 1.243 . S
O49 Tb0 2.413 1_554 S
O49 C64 1.256 1_554 S
O50 Tb11 2.546 . S
O50 C75 1.251 . S
O51 Tb0 2.358 1_654 S
O51 Tb11 2.614 . S
O51 C67 1.287 . S
O52 Tb0 2.421 . S
O52 C74 1.262 1_455 S
O53 Tb11 2.320 1_556 S
O53 C74 1.260 . S
O54 Tb11 2.552 . S
O54 C67 1.243 . S
O55 Tb11 2.413 1_556 S
O55 C75 1.256 1_556 S
C56 O45 1.283 1_556 S
C56 O48 1.243 . S
C57 C59 1.382 1_556 S
C57 C61 1.393 . S
C57 C64 1.500 . S
C58 C59 1.400 . S
C58 C60 1.384 1_554 S
C59 C57 1.382 1_554 S
C59 C58 1.400 . S
C59 H76 0.930 . S
C60 C58 1.384 1_556 S
C60 C62 1.392 . S
C60 H77 0.931 . S
C61 C57 1.393 . S
C61 C62 1.401 . S
C61 H78 0.930 . S
C62 C60 1.392 . S
C62 C61 1.401 . S
C62 H79 0.930 . S
C63 O46 1.262 1_455 S
C63 O47 1.260 . S
C64 Tb0 2.833 . S
C64 O44 1.251 . S
C64 O49 1.256 1_556 S
C64 C57 1.500 . S
C65 H30 0.929 . S
C65 C43 1.444 . S
C65 C66 1.317 . S
C66 H28 0.930 . S
C66 C34 1.432 1_556 S
C66 C65 1.317 . S
C67 O51 1.287 . S
C67 O54 1.243 . S
C68 C69 1.382 1_554 S
C68 C72 1.393 . S
C68 C75 1.500 . S
C69 C68 1.382 1_556 S
C69 C70 1.400 . S
C69 H80 0.930 . S
C70 C69 1.400 . S
C70 C71 1.383 1_556 S
C71 C70 1.383 1_554 S
C71 C73 1.392 . S
C71 H81 0.931 . S
C72 C68 1.393 . S
C72 C73 1.401 . S
C72 H82 0.930 . S
C73 C71 1.392 . S
C73 C72 1.401 . S
C73 H83 0.930 . S
C74 O52 1.262 1_655 S
C74 O53 1.260 . S
C75 Tb11 2.833 . S
C75 O50 1.251 . S
C75 O55 1.256 1_554 S
C75 C68 1.500 . S
H76 C59 0.930 . S
H77 C60 0.931 . S
H78 C61 0.930 . S
H79 C62 0.930 . S
H80 C69 0.930 . S
H81 C71 0.931 . S
H82 C72 0.930 . S
H83 C73 0.930 . S
Tb84 N115 2.660 1_556 S
Tb84 N122 2.600 . S
Tb84 O128 2.546 . S
Tb84 O129 2.610 1_556 S
Tb84 O131 2.320 1_556 S
Tb84 O132 2.552 . S
Tb84 O133 2.413 1_556 S
Tb84 O135 2.358 1_556 S
Tb84 O136 2.421 . S
Tb84 C148 2.833 . S
C85 C88 1.432 . S
C85 C89 1.414 . S
C85 N92 1.359 . S
C86 C88 1.417 1_556 S
C86 C90 1.432 1_556 S
C86 C98 1.410 . S
C87 C89 1.444 . S
C87 C90 1.317 . S
C87 H110 0.929 . S
C88 C85 1.432 . S
C88 C86 1.417 1_554 S
C88 N96 1.360 1_554 S
C89 C85 1.414 . S
C89 C87 1.444 . S
C89 C94 1.385 . S
C90 C86 1.432 1_554 S
C90 C87 1.317 . S
C90 H102 0.930 . S
C91 C93 1.392 . S
C91 C94 1.370 . S
C91 H103 0.931 . S
N92 C85 1.359 . S
N92 C93 1.327 . S
N92 Tb95 2.600 . S
C93 C91 1.392 . S
C93 N92 1.327 . S
C93 H100 0.930 . S
C94 C89 1.385 . S
C94 C91 1.370 . S
C94 H113 0.930 . S
Tb95 N92 2.600 . S
Tb95 N96 2.660 1_554 S
Tb95 O129 2.362 . S
Tb95 O130 2.421 . S
Tb95 O134 2.546 . S
Tb95 O135 2.614 . S
Tb95 O137 2.320 1_554 S
Tb95 O138 2.552 . S
Tb95 O139 2.413 1_554 S
Tb95 C159 2.833 . S
N96 C88 1.360 1_556 S
N96 Tb95 2.660 1_556 S
N96 C97 1.305 . S
C97 N96 1.305 . S
C97 C99 1.407 . S
C97 H104 0.930 . S
C98 C86 1.410 . S
C98 C99 1.345 . S
C98 H106 0.930 . S
C99 C97 1.407 . S
C99 C98 1.345 . S
C99 H101 0.930 . S
H100 C93 0.930 . S
H101 C99 0.930 . S
H102 C90 0.930 . S
H103 C91 0.931 . S
H104 C97 0.930 . S
H105 C119 0.930 . S
H106 C98 0.930 . S
H107 C125 0.930 . S
H108 C116 0.930 . S
H109 C123 0.931 . S
H110 C87 0.929 . S
H111 C117 0.930 . S
H112 C150 0.930 . S
H113 C94 0.930 . S
H114 C149 0.929 . S
N115 Tb84 2.660 1_554 S
N115 C116 1.305 . S
N115 C120 1.360 1_554 S
C116 H108 0.930 . S
C116 N115 1.305 . S
C116 C119 1.407 . S
C117 H111 0.930 . S
C117 C118 1.410 . S
C117 C119 1.345 . S
C118 C117 1.410 . S
C118 C120 1.417 1_554 S
C118 C150 1.432 1_554 S
C119 H105 0.930 . S
C119 C116 1.407 . S
C119 C117 1.345 . S
C120 N115 1.360 1_556 S
C120 C118 1.417 1_556 S
C120 C124 1.432 . S
H121 C126 0.930 . S
N122 Tb84 2.600 . S
N122 C124 1.359 . S
N122 C125 1.327 . S
C123 H109 0.931 . S
C123 C125 1.392 . S
C123 C126 1.370 . S
C124 C120 1.432 . S
C124 N122 1.359 . S
C124 C127 1.414 . S
C125 H107 0.930 . S
C125 N122 1.327 . S
C125 C123 1.392 . S
C126 H121 0.930 . S
C126 C123 1.370 . S
C126 C127 1.385 . S
C127 C124 1.414 . S
C127 C126 1.385 . S
C127 C149 1.444 . S
O128 Tb84 2.546 . S
O128 C148 1.251 . S
O129 Tb84 2.610 1_554 S
O129 Tb95 2.362 . S
O129 C140 1.283 1_554 S
O130 Tb95 2.421 . S
O130 C147 1.262 . S
O131 Tb84 2.320 1_554 S
O131 C147 1.260 . S
O132 Tb84 2.552 . S
O132 C140 1.243 . S
O133 Tb84 2.413 1_554 S
O133 C148 1.256 1_554 S
O134 Tb95 2.546 . S
O134 C159 1.251 . S
O135 Tb84 2.358 1_554 S
O135 Tb95 2.614 . S
O135 C151 1.287 . S
O136 Tb84 2.421 . S
O136 C158 1.262 . S
O137 Tb95 2.320 1_556 S
O137 C158 1.260 . S
O138 Tb95 2.552 . S
O138 C151 1.243 . S
O139 Tb95 2.413 1_556 S
O139 C159 1.256 1_556 S
C140 O129 1.283 1_556 S
C140 O132 1.243 . S
C141 C143 1.382 1_556 S
C141 C145 1.393 . S
C141 C148 1.500 . S
C142 C143 1.400 . S
C142 C144 1.384 1_554 S
C143 C141 1.382 1_554 S
C143 C142 1.400 . S
C143 H160 0.930 . S
C144 C142 1.384 1_556 S
C144 C146 1.392 . S
C144 H161 0.931 . S
C145 C141 1.393 . S
C145 C146 1.401 . S
C145 H162 0.930 . S
C146 C144 1.392 . S
C146 C145 1.401 . S
C146 H163 0.930 . S
C147 O130 1.262 . S
C147 O131 1.260 . S
C148 Tb84 2.833 . S
C148 O128 1.251 . S
C148 O133 1.256 1_556 S
C148 C141 1.500 . S
C149 H114 0.929 . S
C149 C127 1.444 . S
C149 C150 1.317 . S
C150 H112 0.930 . S
C150 C118 1.432 1_556 S
C150 C149 1.317 . S
C151 O135 1.287 . S
C151 O138 1.243 . S
C152 C153 1.382 1_554 S
C152 C156 1.393 . S
C152 C159 1.500 . S
C153 C152 1.382 1_556 S
C153 C154 1.400 . S
C153 H164 0.930 . S
C154 C153 1.400 . S
C154 C155 1.382 1_556 S
C155 C154 1.382 1_554 S
C155 C157 1.392 . S
C155 H165 0.931 . S
C156 C152 1.393 . S
C156 C157 1.401 . S
C156 H166 0.930 . S
C157 C155 1.392 . S
C157 C156 1.401 . S
C157 H167 0.930 . S
C158 O136 1.262 . S
C158 O137 1.260 . S
C159 Tb95 2.833 . S
C159 O134 1.251 . S
C159 O139 1.256 1_554 S
C159 C152 1.500 . S
H160 C143 0.930 . S
H161 C144 0.931 . S
H162 C145 0.930 . S
H163 C146 0.930 . S
H164 C153 0.930 . S
H165 C155 0.931 . S
H166 C156 0.930 . S
H167 C157 0.930 . S
Tb168 N199 2.660 1_566 S
Tb168 N206 2.600 . S
Tb168 O212 2.546 . S
Tb168 O213 2.610 1_556 S
Tb168 O215 2.320 1_556 S
Tb168 O216 2.552 . S
Tb168 O217 2.413 1_556 S
Tb168 O219 2.358 1_566 S
Tb168 O220 2.420 . S
Tb168 C232 2.833 . S
C169 C172 1.432 . S
C169 C173 1.414 . S
C169 N176 1.359 1_565 S
C170 C172 1.417 1_556 S
C170 C174 1.432 1_556 S
C170 C182 1.410 . S
C171 C173 1.444 . S
C171 C174 1.317 . S
C171 H194 0.929 . S
C172 C169 1.432 . S
C172 C170 1.417 1_554 S
C172 N180 1.363 1_564 S
C173 C169 1.414 . S
C173 C171 1.444 . S
C173 C178 1.385 . S
C174 C170 1.432 1_554 S
C174 C171 1.317 . S
C174 H186 0.930 . S
C175 C177 1.392 . S
C175 C178 1.370 1_545 S
C175 H187 0.931 . S
N176 C169 1.359 1_545 S
N176 C177 1.327 . S
N176 Tb179 2.600 . S
C177 C175 1.392 . S
C177 N176 1.327 . S
C177 H184 0.930 . S
C178 C173 1.385 . S
C178 C175 1.370 1_565 S
C178 H197 0.930 . S
Tb179 N176 2.600 . S
Tb179 N180 2.660 1_554 S
Tb179 O213 2.362 1_545 S
Tb179 O214 2.421 . S
Tb179 O218 2.546 . S
Tb179 O219 2.614 . S
Tb179 O221 2.320 1_554 S
Tb179 O222 2.552 . S
Tb179 O223 2.413 1_554 S
Tb179 C243 2.833 . S
N180 C172 1.363 1_546 S
N180 Tb179 2.660 1_556 S
N180 C181 1.301 1_545 S
C181 N180 1.301 1_565 S
C181 C183 1.407 . S
C181 H188 0.930 1_565 S
C182 C170 1.410 . S
C182 C183 1.345 . S
C182 H190 0.930 . S
C183 C181 1.407 . S
C183 C182 1.345 . S
C183 H185 0.930 . S
H184 C177 0.930 . S
H185 C183 0.930 . S
H186 C174 0.930 . S
H187 C175 0.931 . S
H188 C181 0.930 1_545 S
H189 C203 0.930 . S
H190 C182 0.930 . S
H191 C209 0.930 . S
H192 C200 0.930 . S
H193 C207 0.931 . S
H194 C171 0.929 . S
H195 C201 0.930 . S
H196 C234 0.930 . S
H197 C178 0.930 . S
H198 C233 0.929 . S
N199 Tb168 2.660 1_544 S
N199 C200 1.305 . S
N199 C204 1.360 1_554 S
C200 H192 0.930 . S
C200 N199 1.305 . S
C200 C203 1.407 . S
C201 H195 0.930 . S
C201 C202 1.410 . S
C201 C203 1.345 . S
C202 C201 1.410 . S
C202 C204 1.417 1_554 S
C202 C234 1.432 1_554 S
C203 H189 0.930 . S
C203 C200 1.407 . S
C203 C201 1.345 . S
C204 N199 1.360 1_556 S
C204 C202 1.417 1_556 S
C204 C208 1.432 . S
H205 C210 0.930 . S
N206 Tb168 2.600 . S
N206 C208 1.359 1_565 S
N206 C209 1.327 . S
C207 H193 0.931 . S
C207 C209 1.392 . S
C207 C210 1.370 1_565 S
C208 C204 1.432 . S
C208 N206 1.359 1_545 S
C208 C211 1.414 . S
C209 H191 0.930 . S
C209 N206 1.327 . S
C209 C207 1.392 . S
C210 H205 0.930 . S
C210 C207 1.370 1_545 S
C210 C211 1.385 . S
C211 C208 1.414 . S
C211 C210 1.385 . S
C211 C233 1.444 . S
O212 Tb168 2.546 . S
O212 C232 1.251 . S
O213 Tb168 2.610 1_554 S
O213 Tb179 2.362 1_565 S
O213 C224 1.283 1_554 S
O214 Tb179 2.421 . S
O214 C231 1.262 1_545 S
O215 Tb168 2.320 1_554 S
O215 C231 1.260 . S
O216 Tb168 2.552 . S
O216 C224 1.243 . S
O217 Tb168 2.413 1_554 S
O217 C232 1.256 1_554 S
O218 Tb179 2.546 . S
O218 C243 1.251 . S
O219 Tb168 2.358 1_544 S
O219 Tb179 2.614 . S
O219 C235 1.287 . S
O220 Tb168 2.420 . S
O220 C242 1.263 1_565 S
O221 Tb179 2.320 1_556 S
O221 C242 1.260 . S
O222 Tb179 2.552 . S
O222 C235 1.243 . S
O223 Tb179 2.413 1_556 S
O223 C243 1.256 1_556 S
C224 O213 1.283 1_556 S
C224 O216 1.243 . S
C225 C227 1.382 1_556 S
C225 C229 1.393 . S
C225 C232 1.500 . S
C226 C227 1.400 . S
C226 C228 1.384 1_554 S
C227 C225 1.382 1_554 S
C227 C226 1.400 . S
C227 H244 0.930 . S
C228 C226 1.384 1_556 S
C228 C230 1.392 . S
C228 H245 0.931 . S
C229 C225 1.393 . S
C229 C230 1.401 . S
C229 H246 0.930 . S
C230 C228 1.392 . S
C230 C229 1.401 . S
C230 H247 0.930 . S
C231 O214 1.262 1_565 S
C231 O215 1.260 . S
C232 Tb168 2.833 . S
C232 O212 1.251 . S
C232 O217 1.256 1_556 S
C232 C225 1.500 . S
C233 H198 0.929 . S
C233 C211 1.444 . S
C233 C234 1.317 . S
C234 H196 0.930 . S
C234 C202 1.432 1_556 S
C234 C233 1.317 . S
C235 O219 1.287 . S
C235 O222 1.243 . S
C236 C237 1.382 1_554 S
C236 C240 1.393 . S
C236 C243 1.500 . S
C237 C236 1.382 1_556 S
C237 C238 1.400 . S
C237 H248 0.930 . S
C238 C237 1.400 . S
C238 C239 1.383 1_556 S
C239 C238 1.383 1_554 S
C239 C241 1.392 . S
C239 H249 0.931 . S
C240 C236 1.393 . S
C240 C241 1.401 . S
C240 H250 0.930 . S
C241 C239 1.392 . S
C241 C240 1.401 . S
C241 H251 0.930 . S
C242 O220 1.263 1_545 S
C242 O221 1.260 . S
C243 Tb179 2.833 . S
C243 O218 1.251 . S
C243 O223 1.256 1_554 S
C243 C236 1.500 . S
H244 C227 0.930 . S
H245 C228 0.931 . S
H246 C229 0.930 . S
H247 C230 0.930 . S
H248 C237 0.930 . S
H249 C239 0.931 . S
H250 C240 0.930 . S
H251 C241 0.930 . S
Tb252 N283 2.660 . S
Tb252 N290 2.600 . S
Tb252 O296 2.546 . S
Tb252 O297 2.610 . S
Tb252 O299 2.320 . S
Tb252 O300 2.552 . S
Tb252 O301 2.413 . S
Tb252 O303 2.362 . S
Tb252 O304 2.421 . S
Tb252 C316 2.833 . S
C253 C256 1.432 . S
C253 C257 1.414 . S
C253 N260 1.359 . S
C254 C256 1.417 . S
C254 C258 1.432 . S
C254 C266 1.410 . S
C255 C257 1.444 . S
C255 C258 1.317 . S
C255 H278 0.929 . S
C256 C253 1.432 . S
C256 C254 1.417 . S
C256 N264 1.360 . S
C257 C253 1.414 . S
C257 C255 1.444 . S
C257 C262 1.385 . S
C258 C254 1.432 . S
C258 C255 1.317 . S
C258 H270 0.930 . S
C259 C261 1.392 . S
C259 C262 1.370 . S
C259 H271 0.931 . S
N260 C253 1.359 . S
N260 C261 1.327 . S
N260 Tb263 2.600 . S
C261 C259 1.392 . S
C261 N260 1.327 . S
C261 H268 0.930 . S
C262 C257 1.385 . S
C262 C259 1.370 . S
C262 H281 0.930 . S
Tb263 N260 2.600 . S
Tb263 N264 2.660 . S
Tb263 O297 2.362 . S
Tb263 O298 2.421 . S
Tb263 O302 2.546 . S
Tb263 O303 2.610 . S
Tb263 O305 2.320 . S
Tb263 O306 2.552 . S
Tb263 O307 2.413 . S
Tb263 C327 2.833 . S
N264 C256 1.360 . S
N264 Tb263 2.660 . S
N264 C265 1.305 . S
C265 N264 1.305 . S
C265 C267 1.407 . S
C265 H272 0.930 . S
C266 C254 1.410 . S
C266 C267 1.345 . S
C266 H274 0.930 . S
C267 C265 1.407 . S
C267 C266 1.345 . S
C267 H269 0.930 . S
H268 C261 0.930 . S
H269 C267 0.930 . S
H270 C258 0.930 . S
H271 C259 0.931 . S
H272 C265 0.930 . S
H273 C287 0.930 . S
H274 C266 0.930 . S
H275 C293 0.930 . S
H276 C284 0.930 . S
H277 C291 0.931 . S
H278 C255 0.929 . S
H279 C285 0.930 . S
H280 C318 0.911 1_545 S
H281 C262 0.930 . S
H282 C317 0.929 . S
N283 Tb252 2.660 . S
N283 C284 1.305 . S
N283 C288 1.360 . S
C284 H276 0.930 . S
C284 N283 1.305 . S
C284 C287 1.407 . S
C285 H279 0.930 . S
C285 C286 1.410 . S
C285 C287 1.345 . S
C286 C285 1.410 . S
C286 C288 1.417 . S
C286 C318 1.449 . S
C287 H273 0.930 . S
C287 C284 1.407 . S
C287 C285 1.345 . S
C288 N283 1.360 . S
C288 C286 1.417 . S
C288 C292 1.432 . S
H289 C294 0.923 1_545 S
N290 Tb252 2.600 . S
N290 C292 1.359 . S
N290 C293 1.327 . S
C291 H277 0.931 . S
C291 C293 1.392 . S
C291 C294 1.370 . S
C292 C288 1.432 . S
C292 N290 1.359 . S
C292 C295 1.414 . S
C293 H275 0.930 . S
C293 N290 1.327 . S
C293 C291 1.392 . S
C294 H289 0.923 1_565 S
C294 C291 1.370 . S
C294 C295 1.385 . S
C295 C292 1.414 . S
C295 C294 1.385 . S
C295 C317 1.444 1_565 S
O296 Tb252 2.546 . S
O296 C316 1.251 . S
O297 Tb252 2.610 . S
O297 Tb263 2.362 . S
O297 C308 1.283 . S
O298 Tb263 2.421 . S
O298 C315 1.262 . S
O299 Tb252 2.320 . S
O299 C315 1.260 . S
O300 Tb252 2.552 . S
O300 C308 1.243 . S
O301 Tb252 2.413 . S
O301 C316 1.256 . S
O302 Tb263 2.546 . S
O302 C327 1.251 . S
O303 Tb252 2.362 . S
O303 Tb263 2.610 . S
O303 C319 1.283 . S
O304 Tb252 2.421 . S
O304 C326 1.262 . S
O305 Tb263 2.320 . S
O305 C326 1.260 . S
O306 Tb263 2.552 . S
O306 C319 1.243 . S
O307 Tb263 2.413 . S
O307 C327 1.256 . S
C308 O297 1.283 . S
C308 O300 1.243 . S
C309 C311 1.382 . S
C309 C313 1.393 . S
C309 C316 1.500 1_545 S
C310 C311 1.400 . S
C310 C312 1.384 . S
C311 C309 1.382 . S
C311 C310 1.400 . S
C311 H328 0.930 . S
C312 C310 1.384 . S
C312 C314 1.392 . S
C312 H329 0.931 . S
C313 C309 1.393 . S
C313 C314 1.401 . S
C313 H330 0.930 . S
C314 C312 1.392 . S
C314 C313 1.401 . S
C314 H331 0.930 . S
C315 O298 1.262 . S
C315 O299 1.260 . S
C316 Tb252 2.833 . S
C316 O296 1.251 . S
C316 O301 1.256 . S
C316 C309 1.500 1_565 S
C317 H282 0.929 . S
C317 C295 1.444 1_545 S
C317 C318 1.318 1_545 S
C318 H280 0.911 1_565 S
C318 C286 1.449 . S
C318 C317 1.318 1_565 S
C319 O303 1.283 . S
C319 O306 1.243 . S
C320 C321 1.382 . S
C320 C324 1.393 . S
C320 C327 1.500 . S
C321 C320 1.382 . S
C321 C322 1.400 . S
C321 H332 0.930 . S
C322 C321 1.400 . S
C322 C323 1.384 . S
C323 C322 1.384 . S
C323 C325 1.392 . S
C323 H333 0.931 . S
C324 C320 1.393 . S
C324 C325 1.401 . S
C324 H334 0.930 . S
C325 C323 1.392 . S
C325 C324 1.401 . S
C325 H335 0.930 . S
C326 O304 1.262 . S
C326 O305 1.260 . S
C327 Tb263 2.833 . S
C327 O302 1.251 . S
C327 O307 1.256 . S
C327 C320 1.500 . S
H328 C311 0.930 . S
H329 C312 0.931 . S
H330 C313 0.930 . S
H331 C314 0.930 . S
H332 C321 0.930 . S
H333 C323 0.931 . S
H334 C324 0.930 . S
H335 C325 0.930 . S
Tb336 N367 2.660 . S
Tb336 N374 2.600 . S
Tb336 O380 2.546 . S
Tb336 O381 2.610 . S
Tb336 O383 2.320 . S
Tb336 O384 2.552 . S
Tb336 O385 2.413 . S
Tb336 O387 2.362 . S
Tb336 O388 2.421 . S
Tb336 C400 2.833 . S
C337 C340 1.432 . S
C337 C341 1.414 . S
C337 N344 1.359 1_545 S
C338 C340 1.417 . S
C338 C342 1.432 . S
C338 C350 1.410 . S
C339 C341 1.444 . S
C339 C342 1.317 . S
C339 H362 0.929 . S
C340 C337 1.432 . S
C340 C338 1.417 . S
C340 N348 1.360 1_545 S
C341 C337 1.414 . S
C341 C339 1.444 . S
C341 C346 1.385 . S
C342 C338 1.432 . S
C342 C339 1.317 . S
C342 H354 0.930 . S
C343 C345 1.392 1_545 S
C343 C346 1.370 . S
C343 H355 0.931 . S
N344 C337 1.359 1_565 S
N344 C345 1.327 . S
N344 Tb347 2.600 . S
C345 C343 1.392 1_565 S
C345 N344 1.327 . S
C345 H352 0.930 . S
C346 C341 1.385 . S
C346 C343 1.370 . S
C346 H365 0.930 . S
Tb347 N344 2.600 . S
Tb347 N348 2.660 . S
Tb347 O381 2.362 . S
Tb347 O382 2.421 . S
Tb347 O386 2.546 . S
Tb347 O387 2.610 . S
Tb347 O389 2.320 . S
Tb347 O390 2.552 . S
Tb347 O391 2.413 . S
Tb347 C411 2.833 . S
N348 C340 1.360 1_565 S
N348 Tb347 2.660 . S
N348 C349 1.305 . S
C349 N348 1.305 . S
C349 C351 1.407 1_565 S
C349 H356 0.930 . S
C350 C338 1.410 . S
C350 C351 1.345 . S
C350 H358 0.930 . S
C351 C349 1.407 1_545 S
C351 C350 1.345 . S
C351 H353 0.930 . S
H352 C345 0.930 . S
H353 C351 0.930 . S
H354 C342 0.930 . S
H355 C343 0.931 . S
H356 C349 0.930 . S
H357 C371 0.930 . S
H358 C350 0.930 . S
H359 C377 0.930 . S
H360 C368 0.930 . S
H361 C375 0.931 . S
H362 C339 0.929 . S
H363 C369 0.930 . S
H364 C402 0.930 1_655 S
H365 C346 0.930 . S
H366 C401 0.929 1_655 S
N367 Tb336 2.660 . S
N367 C368 1.305 . S
N367 C372 1.360 . S
C368 H360 0.930 . S
C368 N367 1.305 . S
C368 C371 1.407 . S
C369 H363 0.930 . S
C369 C370 1.410 . S
C369 C371 1.345 . S
C370 C369 1.410 . S
C370 C372 1.417 . S
C370 C402 1.432 . S
C371 H357 0.930 . S
C371 C368 1.407 . S
C371 C369 1.345 . S
C372 N367 1.360 . S
C372 C370 1.417 . S
C372 C376 1.432 . S
H373 C378 0.930 . S
N374 Tb336 2.600 . S
N374 C376 1.359 . S
N374 C377 1.327 . S
C375 H361 0.931 . S
C375 C377 1.392 . S
C375 C378 1.370 . S
C376 C372 1.432 . S
C376 N374 1.359 . S
C376 C379 1.414 . S
C377 H359 0.930 . S
C377 N374 1.327 . S
C377 C375 1.392 . S
C378 H373 0.930 . S
C378 C375 1.370 . S
C378 C379 1.385 . S
C379 C376 1.414 . S
C379 C378 1.385 . S
C379 C401 1.444 . S
O380 Tb336 2.546 . S
O380 C400 1.251 . S
O381 Tb336 2.610 . S
O381 Tb347 2.362 . S
O381 C392 1.283 . S
O382 Tb347 2.421 . S
O382 C399 1.262 . S
O383 Tb336 2.320 . S
O383 C399 1.260 . S
O384 Tb336 2.552 . S
O384 C392 1.243 . S
O385 Tb336 2.413 . S
O385 C400 1.256 . S
O386 Tb347 2.546 . S
O386 C411 1.251 . S
O387 Tb336 2.362 . S
O387 Tb347 2.610 . S
O387 C403 1.283 . S
O388 Tb336 2.421 . S
O388 C410 1.262 . S
O389 Tb347 2.320 . S
O389 C410 1.260 . S
O390 Tb347 2.552 . S
O390 C403 1.243 . S
O391 Tb347 2.413 . S
O391 C411 1.256 . S
C392 O381 1.283 . S
C392 O384 1.243 . S
C393 C395 1.382 . S
C393 C397 1.393 . S
C393 C400 1.500 1_655 S
C394 C395 1.400 . S
C394 C396 1.384 . S
C395 C393 1.382 . S
C395 C394 1.400 . S
C395 H412 0.930 1_655 S
C396 C394 1.384 . S
C396 C398 1.392 . S
C396 H413 0.931 . S
C397 C393 1.393 . S
C397 C398 1.401 . S
C397 H414 0.930 . S
C398 C396 1.392 . S
C398 C397 1.401 . S
C398 H415 0.930 . S
C399 O382 1.262 . S
C399 O383 1.260 . S
C400 Tb336 2.833 . S
C400 O380 1.251 . S
C400 O385 1.256 . S
C400 C393 1.500 1_455 S
C401 H366 0.929 1_455 S
C401 C379 1.444 . S
C401 C402 1.317 . S
C402 H364 0.930 1_455 S
C402 C370 1.432 . S
C402 C401 1.317 . S
C403 O387 1.283 . S
C403 O390 1.243 . S
C404 C405 1.382 . S
C404 C408 1.393 . S
C404 C411 1.500 . S
C405 C404 1.382 . S
C405 C406 1.400 . S
C405 H416 0.930 . S
C406 C405 1.400 . S
C406 C407 1.384 . S
C407 C406 1.384 . S
C407 C409 1.392 . S
C407 H417 0.931 . S
C408 C404 1.393 . S
C408 C409 1.401 . S
C408 H418 0.930 . S
C409 C407 1.392 . S
C409 C408 1.401 . S
C409 H419 0.930 . S
C410 O388 1.262 . S
C410 O389 1.260 . S
C411 Tb347 2.833 . S
C411 O386 1.251 . S
C411 O391 1.256 . S
C411 C404 1.500 . S
H412 C395 0.930 1_455 S
H413 C396 0.931 . S
H414 C397 0.930 . S
H415 C398 0.930 . S
H416 C405 0.930 . S
H417 C407 0.931 . S
H418 C408 0.930 . S
H419 C409 0.930 . S
Tb420 N451 2.660 . S
Tb420 N458 2.600 . S
Tb420 O464 2.546 . S
Tb420 O465 2.610 . S
Tb420 O467 2.320 . S
Tb420 O468 2.552 . S
Tb420 O469 2.413 . S
Tb420 O471 2.362 . S
Tb420 O472 2.421 . S
Tb420 C484 2.833 . S
C421 C424 1.432 . S
C421 C425 1.414 . S
C421 N428 1.359 1_655 S
C422 C424 1.417 . S
C422 C426 1.432 . S
C422 C434 1.410 . S
C423 C425 1.444 . S
C423 C426 1.317 . S
C423 H446 0.929 . S
C424 C421 1.432 . S
C424 C422 1.417 . S
C424 N432 1.360 1_655 S
C425 C421 1.414 . S
C425 C423 1.444 . S
C425 C430 1.385 . S
C426 C422 1.432 . S
C426 C423 1.317 . S
C426 H438 0.930 . S
C427 C429 1.373 1_655 S
C427 C430 1.391 . S
C427 H439 0.929 1_655 S
N428 C421 1.359 1_455 S
N428 C429 1.327 . S
N428 Tb431 2.600 . S
C429 C427 1.373 1_455 S
C429 N428 1.327 . S
C429 H436 0.930 . S
C430 C425 1.385 . S
C430 C427 1.391 . S
C430 H449 0.930 . S
Tb431 N428 2.600 . S
Tb431 N432 2.660 . S
Tb431 O465 2.362 . S
Tb431 O466 2.421 . S
Tb431 O470 2.546 . S
Tb431 O471 2.610 . S
Tb431 O473 2.320 . S
Tb431 O474 2.552 . S
Tb431 O475 2.413 . S
Tb431 C495 2.833 . S
N432 C424 1.360 1_455 S
N432 Tb431 2.660 . S
N432 C433 1.305 . S
C433 N432 1.305 . S
C433 C435 1.407 1_455 S
C433 H440 0.930 . S
C434 C422 1.410 . S
C434 C435 1.345 . S
C434 H442 0.930 . S
C435 C433 1.407 1_655 S
C435 C434 1.345 . S
C435 H437 0.930 . S
H436 C429 0.930 . S
H437 C435 0.930 . S
H438 C426 0.930 . S
H439 C427 0.929 1_455 S
H440 C433 0.930 . S
H441 C455 0.930 . S
H442 C434 0.930 . S
H443 C461 0.930 . S
H444 C452 0.930 . S
H445 C459 0.931 . S
H446 C423 0.929 . S
H447 C453 0.930 . S
H448 C486 0.930 . S
H449 C430 0.930 . S
H450 C485 0.929 . S
N451 Tb420 2.660 . S
N451 C452 1.305 . S
N451 C456 1.360 . S
C452 H444 0.930 . S
C452 N451 1.305 . S
C452 C455 1.407 . S
C453 H447 0.930 . S
C453 C454 1.410 . S
C453 C455 1.345 . S
C454 C453 1.410 . S
C454 C456 1.417 . S
C454 C486 1.432 . S
C455 H441 0.930 . S
C455 C452 1.407 . S
C455 C453 1.345 . S
C456 N451 1.360 . S
C456 C454 1.417 . S
C456 C460 1.432 . S
H457 C462 0.930 . S
N458 Tb420 2.600 . S
N458 C460 1.359 . S
N458 C461 1.327 . S
C459 H445 0.931 . S
C459 C461 1.392 . S
C459 C462 1.370 . S
C460 C456 1.432 . S
C460 N458 1.359 . S
C460 C463 1.414 . S
C461 H443 0.930 . S
C461 N458 1.327 . S
C461 C459 1.392 . S
C462 H457 0.930 . S
C462 C459 1.370 . S
C462 C463 1.385 . S
C463 C460 1.414 . S
C463 C462 1.385 . S
C463 C485 1.444 . S
O464 Tb420 2.546 . S
O464 C484 1.251 . S
O465 Tb420 2.610 . S
O465 Tb431 2.362 . S
O465 C476 1.283 . S
O466 Tb431 2.421 . S
O466 C483 1.262 . S
O467 Tb420 2.320 . S
O467 C483 1.260 . S
O468 Tb420 2.552 . S
O468 C476 1.243 . S
O469 Tb420 2.413 . S
O469 C484 1.256 . S
O470 Tb431 2.546 . S
O470 C495 1.251 . S
O471 Tb420 2.362 . S
O471 Tb431 2.610 . S
O471 C487 1.283 . S
O472 Tb420 2.421 . S
O472 C494 1.262 . S
O473 Tb431 2.320 . S
O473 C494 1.260 . S
O474 Tb431 2.552 . S
O474 C487 1.243 . S
O475 Tb431 2.413 . S
O475 C495 1.256 . S
C476 O465 1.283 . S
C476 O468 1.243 . S
C477 C479 1.382 . S
C477 C481 1.393 . S
C477 C484 1.500 . S
C478 C479 1.400 . S
C478 C480 1.384 . S
C479 C477 1.382 . S
C479 C478 1.400 . S
C479 H496 0.930 . S
C480 C478 1.384 . S
C480 C482 1.392 . S
C480 H497 0.931 . S
C481 C477 1.393 . S
C481 C482 1.401 . S
C481 H498 0.930 . S
C482 C480 1.392 . S
C482 C481 1.401 . S
C482 H499 0.930 . S
C483 O466 1.262 . S
C483 O467 1.260 . S
C484 Tb420 2.833 . S
C484 O464 1.251 . S
C484 O469 1.256 . S
C484 C477 1.500 . S
C485 H450 0.929 . S
C485 C463 1.444 . S
C485 C486 1.317 . S
C486 H448 0.930 . S
C486 C454 1.432 . S
C486 C485 1.317 . S
C487 O471 1.283 . S
C487 O474 1.243 . S
C488 C489 1.382 . S
C488 C492 1.393 . S
C488 C495 1.500 . S
C489 C488 1.382 . S
C489 C490 1.400 . S
C489 H500 0.930 . S
C490 C489 1.400 . S
C490 C491 1.384 . S
C491 C490 1.384 . S
C491 C493 1.392 . S
C491 H501 0.931 . S
C492 C488 1.393 . S
C492 C493 1.401 . S
C492 H502 0.930 . S
C493 C491 1.392 . S
C493 C492 1.401 . S
C493 H503 0.930 . S
C494 O472 1.262 . S
C494 O473 1.260 . S
C495 Tb431 2.833 . S
C495 O470 1.251 . S
C495 O475 1.256 . S
C495 C488 1.500 . S
H496 C479 0.930 . S
H497 C480 0.931 . S
H498 C481 0.930 . S
H499 C482 0.930 . S
H500 C489 0.930 . S
H501 C491 0.931 . S
H502 C492 0.930 . S
H503 C493 0.930 . S
Tb504 N535 2.660 . S
Tb504 N542 2.600 . S
Tb504 O548 2.546 . S
Tb504 O549 2.610 . S
Tb504 O551 2.320 . S
Tb504 O552 2.552 . S
Tb504 O553 2.413 . S
Tb504 O555 2.362 . S
Tb504 O556 2.421 . S
Tb504 C568 2.833 . S
C505 C508 1.432 . S
C505 C509 1.414 . S
C505 N512 1.359 1_565 S
C506 C508 1.417 . S
C506 C510 1.432 . S
C506 C518 1.410 . S
C507 C509 1.444 . S
C507 C510 1.317 . S
C507 H530 0.929 . S
C508 C505 1.432 . S
C508 C506 1.417 . S
C508 N516 1.360 1_565 S
C509 C505 1.414 . S
C509 C507 1.444 . S
C509 C514 1.385 . S
C510 C506 1.432 . S
C510 C507 1.317 . S
C510 H522 0.930 . S
C511 C513 1.392 1_565 S
C511 C514 1.370 . S
C511 H523 0.931 . S
N512 C505 1.359 1_545 S
N512 C513 1.327 . S
N512 Tb515 2.600 . S
C513 C511 1.392 1_545 S
C513 N512 1.327 . S
C513 H520 0.930 . S
C514 C509 1.385 . S
C514 C511 1.370 . S
C514 H533 0.930 . S
Tb515 N512 2.600 . S
Tb515 N516 2.660 . S
Tb515 O549 2.362 . S
Tb515 O550 2.421 . S
Tb515 O554 2.546 1_545 S
Tb515 O555 2.610 . S
Tb515 O557 2.320 . S
Tb515 O558 2.552 . S
Tb515 O559 2.413 1_545 S
Tb515 C579 2.833 1_545 S
N516 C508 1.360 1_545 S
N516 Tb515 2.660 . S
N516 C517 1.305 . S
C517 N516 1.305 . S
C517 C519 1.407 . S
C517 H524 0.930 . S
C518 C506 1.410 . S
C518 C519 1.345 1_565 S
C518 H526 0.930 . S
C519 C517 1.407 . S
C519 C518 1.345 1_545 S
C519 H521 0.930 . S
H520 C513 0.930 . S
H521 C519 0.930 . S
H522 C510 0.930 . S
H523 C511 0.931 . S
H524 C517 0.930 . S
H525 C539 0.930 . S
H526 C518 0.930 . S
H527 C545 0.930 . S
H528 C536 0.930 . S
H529 C543 0.931 . S
H530 C507 0.929 . S
H531 C537 0.930 . S
H532 C570 0.930 . S
H533 C514 0.930 . S
H534 C569 0.929 . S
N535 Tb504 2.660 . S
N535 C536 1.305 . S
N535 C540 1.360 . S
C536 H528 0.930 . S
C536 N535 1.305 . S
C536 C539 1.407 . S
C537 H531 0.930 . S
C537 C538 1.410 . S
C537 C539 1.345 . S
C538 C537 1.410 . S
C538 C540 1.417 . S
C538 C570 1.432 . S
C539 H525 0.930 . S
C539 C536 1.407 . S
C539 C537 1.345 . S
C540 N535 1.360 . S
C540 C538 1.417 . S
C540 C544 1.432 . S
H541 C546 0.930 . S
N542 Tb504 2.600 . S
N542 C544 1.359 . S
N542 C545 1.327 . S
C543 H529 0.931 . S
C543 C545 1.392 . S
C543 C546 1.370 . S
C544 C540 1.432 . S
C544 N542 1.359 . S
C544 C547 1.414 . S
C545 H527 0.930 . S
C545 N542 1.327 . S
C545 C543 1.392 . S
C546 H541 0.930 . S
C546 C543 1.370 . S
C546 C547 1.385 . S
C547 C544 1.414 . S
C547 C546 1.385 . S
C547 C569 1.444 . S
O548 Tb504 2.546 . S
O548 C568 1.251 . S
O549 Tb504 2.610 . S
O549 Tb515 2.362 . S
O549 C560 1.283 . S
O550 Tb515 2.421 . S
O550 C567 1.262 . S
O551 Tb504 2.320 . S
O551 C567 1.260 . S
O552 Tb504 2.552 . S
O552 C560 1.243 . S
O553 Tb504 2.413 . S
O553 C568 1.256 . S
O554 Tb515 2.546 1_565 S
O554 C579 1.251 . S
O555 Tb504 2.362 . S
O555 Tb515 2.610 . S
O555 C571 1.283 . S
O556 Tb504 2.421 . S
O556 C578 1.262 . S
O557 Tb515 2.320 . S
O557 C578 1.260 . S
O558 Tb515 2.552 . S
O558 C571 1.243 . S
O559 Tb515 2.413 1_565 S
O559 C579 1.256 . S
C560 O549 1.283 . S
C560 O552 1.243 . S
C561 C563 1.382 . S
C561 C565 1.393 . S
C561 C568 1.500 . S
C562 C563 1.400 . S
C562 C564 1.384 . S
C563 C561 1.382 . S
C563 C562 1.400 . S
C563 H580 0.930 . S
C564 C562 1.384 . S
C564 C566 1.392 . S
C564 H581 0.931 . S
C565 C561 1.393 . S
C565 C566 1.401 . S
C565 H582 0.930 . S
C566 C564 1.392 . S
C566 C565 1.401 . S
C566 H583 0.930 . S
C567 O550 1.262 . S
C567 O551 1.260 . S
C568 Tb504 2.833 . S
C568 O548 1.251 . S
C568 O553 1.256 . S
C568 C561 1.500 . S
C569 H534 0.929 . S
C569 C547 1.444 . S
C569 C570 1.317 . S
C570 H532 0.930 . S
C570 C538 1.432 . S
C570 C569 1.317 . S
C571 O555 1.283 . S
C571 O558 1.243 . S
C572 C573 1.382 . S
C572 C576 1.393 . S
C572 C579 1.500 . S
C573 C572 1.382 . S
C573 C574 1.400 . S
C573 H584 0.930 . S
C574 C573 1.400 . S
C574 C575 1.384 . S
C575 C574 1.384 . S
C575 C577 1.392 . S
C575 H585 0.931 . S
C576 C572 1.393 . S
C576 C577 1.401 . S
C576 H586 0.930 . S
C577 C575 1.392 . S
C577 C576 1.401 . S
C577 H587 0.930 . S
C578 O556 1.262 . S
C578 O557 1.260 . S
C579 Tb515 2.833 1_565 S
C579 O554 1.251 . S
C579 O559 1.256 . S
C579 C572 1.500 . S
H580 C563 0.930 . S
H581 C564 0.931 . S
H582 C565 0.930 . S
H583 C566 0.930 . S
H584 C573 0.930 . S
H585 C575 0.931 . S
H586 C576 0.930 . S
H587 C577 0.930 . S
Tb588 N619 2.660 . S
Tb588 N626 2.600 . S
Tb588 O632 2.546 . S
Tb588 O633 2.610 . S
Tb588 O635 2.320 . S
Tb588 O636 2.552 . S
Tb588 O637 2.413 . S
Tb588 O639 2.362 . S
Tb588 O640 2.421 . S
Tb588 C652 2.833 . S
C589 C592 1.432 . S
C589 C593 1.414 . S
C589 N596 1.359 1_455 S
C590 C592 1.417 . S
C590 C594 1.432 . S
C590 C602 1.410 . S
C591 C593 1.444 . S
C591 C594 1.317 . S
C591 H614 0.929 . S
C592 C589 1.432 . S
C592 C590 1.417 . S
C592 N600 1.360 1_455 S
C593 C589 1.414 . S
C593 C591 1.444 . S
C593 C598 1.385 . S
C594 C590 1.432 . S
C594 C591 1.317 . S
C594 H606 0.930 . S
C595 C597 1.392 1_455 S
C595 C598 1.370 . S
C595 H607 0.931 . S
N596 C589 1.359 1_655 S
N596 C597 1.327 . S
N596 Tb599 2.600 . S
C597 C595 1.392 1_655 S
C597 N596 1.327 . S
C597 H604 0.930 . S
C598 C593 1.385 . S
C598 C595 1.370 . S
C598 H617 0.930 . S
Tb599 N596 2.600 . S
Tb599 N600 2.660 . S
Tb599 O633 2.362 . S
Tb599 O634 2.421 . S
Tb599 O638 2.546 1_655 S
Tb599 O639 2.610 . S
Tb599 O641 2.320 . S
Tb599 O642 2.552 . S
Tb599 O643 2.413 1_655 S
Tb599 C663 2.833 1_655 S
N600 C592 1.360 1_655 S
N600 Tb599 2.660 . S
N600 C601 1.305 . S
C601 N600 1.305 . S
C601 C603 1.407 1_655 S
C601 H608 0.930 . S
C602 C590 1.410 . S
C602 C603 1.345 . S
C602 H610 0.930 . S
C603 C601 1.407 1_455 S
C603 C602 1.345 . S
C603 H605 0.930 . S
H604 C597 0.930 . S
H605 C603 0.930 . S
H606 C594 0.930 . S
H607 C595 0.931 . S
H608 C601 0.930 . S
H609 C623 0.930 . S
H610 C602 0.930 . S
H611 C629 0.930 . S
H612 C620 0.930 . S
H613 C627 0.931 . S
H614 C591 0.929 . S
H615 C621 0.930 . S
H616 C654 0.930 . S
H617 C598 0.930 . S
H618 C653 0.929 . S
N619 Tb588 2.660 . S
N619 C620 1.305 . S
N619 C624 1.360 . S
C620 H612 0.930 . S
C620 N619 1.305 . S
C620 C623 1.407 . S
C621 H615 0.930 . S
C621 C622 1.410 . S
C621 C623 1.345 1_565 S
C622 C621 1.410 . S
C622 C624 1.417 1_565 S
C622 C654 1.432 . S
C623 H609 0.930 . S
C623 C620 1.407 . S
C623 C621 1.345 1_545 S
C624 N619 1.360 . S
C624 C622 1.417 1_545 S
C624 C628 1.432 . S
H625 C630 0.930 1_565 S
N626 Tb588 2.600 . S
N626 C628 1.359 . S
N626 C629 1.327 . S
C627 H613 0.931 . S
C627 C629 1.392 . S
C627 C630 1.370 . S
C628 C624 1.432 . S
C628 N626 1.359 . S
C628 C631 1.414 . S
C629 H611 0.930 . S
C629 N626 1.327 . S
C629 C627 1.392 . S
C630 H625 0.930 1_545 S
C630 C627 1.370 . S
C630 C631 1.385 . S
C631 C628 1.414 . S
C631 C630 1.385 . S
C631 C653 1.444 1_545 S
O632 Tb588 2.546 . S
O632 C652 1.251 . S
O633 Tb588 2.610 . S
O633 Tb599 2.362 . S
O633 C644 1.283 . S
O634 Tb599 2.421 . S
O634 C651 1.262 . S
O635 Tb588 2.320 . S
O635 C651 1.260 . S
O636 Tb588 2.552 . S
O636 C644 1.243 . S
O637 Tb588 2.413 . S
O637 C652 1.256 . S
O638 Tb599 2.546 1_455 S
O638 C663 1.251 . S
O639 Tb588 2.362 . S
O639 Tb599 2.610 . S
O639 C655 1.283 . S
O640 Tb588 2.421 . S
O640 C662 1.262 . S
O641 Tb599 2.320 . S
O641 C662 1.260 . S
O642 Tb599 2.552 . S
O642 C655 1.243 . S
O643 Tb599 2.413 1_455 S
O643 C663 1.256 . S
C644 O633 1.283 . S
C644 O636 1.243 . S
C645 C647 1.382 . S
C645 C649 1.393 . S
C645 C652 1.500 . S
C646 C647 1.400 . S
C646 C648 1.384 . S
C647 C645 1.382 . S
C647 C646 1.400 . S
C647 H664 0.930 . S
C648 C646 1.384 . S
C648 C650 1.392 . S
C648 H665 0.931 . S
C649 C645 1.393 . S
C649 C650 1.401 . S
C649 H666 0.930 . S
C650 C648 1.392 . S
C650 C649 1.401 . S
C650 H667 0.930 . S
C651 O634 1.262 . S
C651 O635 1.260 . S
C652 Tb588 2.833 . S
C652 O632 1.251 . S
C652 O637 1.256 . S
C652 C645 1.500 . S
C653 H618 0.929 . S
C653 C631 1.444 1_565 S
C653 C654 1.317 . S
C654 H616 0.930 . S
C654 C622 1.432 . S
C654 C653 1.317 . S
C655 O639 1.283 . S
C655 O642 1.243 . S
C656 C657 1.382 . S
C656 C660 1.393 . S
C656 C663 1.500 . S
C657 C656 1.382 . S
C657 C658 1.400 . S
C657 H668 0.930 . S
C658 C657 1.400 . S
C658 C659 1.384 . S
C659 C658 1.384 . S
C659 C661 1.392 . S
C659 H669 0.931 . S
C660 C656 1.393 . S
C660 C661 1.401 . S
C660 H670 0.930 . S
C661 C659 1.392 . S
C661 C660 1.401 . S
C661 H671 0.930 . S
C662 O640 1.262 . S
C662 O641 1.260 . S
C663 Tb599 2.833 1_455 S
C663 O638 1.251 . S
C663 O643 1.256 . S
C663 C656 1.500 . S
H664 C647 0.930 . S
H665 C648 0.931 . S
H666 C649 0.930 . S
H667 C650 0.930 . S
H668 C657 0.930 . S
H669 C659 0.931 . S
H670 C660 0.930 . S
H671 C661 0.930 . S
Tb672 N703 2.660 . S
Tb672 N710 2.600 . S
Tb672 O716 2.546 . S
Tb672 O717 2.610 . S
Tb672 O719 2.320 . S
Tb672 O720 2.552 . S
Tb672 O721 2.413 . S
Tb672 O723 2.362 . S
Tb672 O724 2.421 . S
Tb672 C736 2.833 . S
C673 C676 1.432 . S
C673 C677 1.414 . S
C673 N680 1.359 . S
C674 C676 1.417 . S
C674 C678 1.432 . S
C674 C686 1.410 . S
C675 C677 1.444 . S
C675 C678 1.317 . S
C675 H698 0.929 . S
C676 C673 1.432 . S
C676 C674 1.417 . S
C676 N684 1.360 . S
C677 C673 1.414 . S
C677 C675 1.444 . S
C677 C682 1.385 . S
C678 C674 1.432 . S
C678 C675 1.317 . S
C678 H690 0.930 . S
C679 C681 1.392 . S
C679 C682 1.370 . S
C679 H691 0.931 . S
N680 C673 1.359 . S
N680 C681 1.327 . S
N680 Tb683 2.600 . S
C681 C679 1.392 . S
C681 N680 1.327 . S
C681 H688 0.930 . S
C682 C677 1.385 . S
C682 C679 1.370 . S
C682 H701 0.930 . S
Tb683 N680 2.600 . S
Tb683 N684 2.660 . S
Tb683 O717 2.362 . S
Tb683 O718 2.421 . S
Tb683 O722 2.546 . S
Tb683 O723 2.610 . S
Tb683 O725 2.320 . S
Tb683 O726 2.552 . S
Tb683 O727 2.413 . S
Tb683 C747 2.833 . S
N684 C676 1.360 . S
N684 Tb683 2.660 . S
N684 C685 1.305 . S
C685 N684 1.305 . S
C685 C687 1.407 . S
C685 H692 0.930 . S
C686 C674 1.410 . S
C686 C687 1.345 . S
C686 H694 0.930 . S
C687 C685 1.407 . S
C687 C686 1.345 . S
C687 H689 0.930 . S
H688 C681 0.930 . S
H689 C687 0.930 . S
H690 C678 0.930 . S
H691 C679 0.931 . S
H692 C685 0.930 . S
H693 C707 0.930 . S
H694 C686 0.930 . S
H695 C713 0.930 . S
H696 C704 0.930 . S
H697 C711 0.931 . S
H698 C675 0.929 . S
H699 C705 0.930 . S
H700 C738 0.930 . S
H701 C682 0.930 . S
H702 C737 0.929 . S
N703 Tb672 2.660 . S
N703 C704 1.305 . S
N703 C708 1.360 . S
C704 H696 0.930 . S
C704 N703 1.305 . S
C704 C707 1.407 . S
C705 H699 0.930 . S
C705 C706 1.410 . S
C705 C707 1.345 1_455 S
C706 C705 1.410 . S
C706 C708 1.417 1_455 S
C706 C738 1.432 . S
C707 H693 0.930 . S
C707 C704 1.407 . S
C707 C705 1.345 1_655 S
C708 N703 1.360 . S
C708 C706 1.417 1_655 S
C708 C712 1.432 . S
H709 C714 0.930 1_455 S
N710 Tb672 2.600 . S
N710 C712 1.359 . S
N710 C713 1.327 . S
C711 H697 0.931 . S
C711 C713 1.392 . S
C711 C714 1.370 . S
C712 C708 1.432 . S
C712 N710 1.359 . S
C712 C715 1.414 1_655 S
C713 H695 0.930 . S
C713 N710 1.327 . S
C713 C711 1.392 . S
C714 H709 0.930 1_655 S
C714 C711 1.370 . S
C714 C715 1.385 1_655 S
C715 C712 1.414 1_455 S
C715 C714 1.385 1_455 S
C715 C737 1.444 . S
O716 Tb672 2.546 . S
O716 C736 1.251 . S
O717 Tb672 2.610 . S
O717 Tb683 2.362 . S
O717 C728 1.283 . S
O718 Tb683 2.421 . S
O718 C735 1.262 . S
O719 Tb672 2.320 . S
O719 C735 1.260 . S
O720 Tb672 2.552 . S
O720 C728 1.243 . S
O721 Tb672 2.413 . S
O721 C736 1.256 . S
O722 Tb683 2.546 . S
O722 C747 1.251 . S
O723 Tb672 2.362 . S
O723 Tb683 2.610 . S
O723 C739 1.283 . S
O724 Tb672 2.421 . S
O724 C746 1.262 . S
O725 Tb683 2.320 . S
O725 C746 1.260 . S
O726 Tb683 2.552 . S
O726 C739 1.243 . S
O727 Tb683 2.413 . S
O727 C747 1.256 . S
C728 O717 1.283 . S
C728 O720 1.243 . S
C729 C731 1.382 . S
C729 C733 1.393 . S
C729 C736 1.500 . S
C730 C731 1.400 . S
C730 C732 1.384 . S
C731 C729 1.382 . S
C731 C730 1.400 . S
C731 H748 0.930 . S
C732 C730 1.384 . S
C732 C734 1.392 . S
C732 H749 0.931 . S
C733 C729 1.393 . S
C733 C734 1.401 . S
C733 H750 0.930 . S
C734 C732 1.392 . S
C734 C733 1.401 . S
C734 H751 0.930 . S
C735 O718 1.262 . S
C735 O719 1.260 . S
C736 Tb672 2.833 . S
C736 O716 1.251 . S
C736 O721 1.256 . S
C736 C729 1.500 . S
C737 H702 0.929 . S
C737 C715 1.444 . S
C737 C738 1.317 . S
C738 H700 0.930 . S
C738 C706 1.432 . S
C738 C737 1.317 . S
C739 O723 1.283 . S
C739 O726 1.243 . S
C740 C741 1.382 . S
C740 C744 1.393 . S
C740 C747 1.500 . S
C741 C740 1.382 . S
C741 C742 1.400 . S
C741 H752 0.930 . S
C742 C741 1.400 . S
C742 C743 1.384 . S
C743 C742 1.384 . S
C743 C745 1.392 . S
C743 H753 0.931 . S
C744 C740 1.393 . S
C744 C745 1.401 . S
C744 H754 0.930 . S
C745 C743 1.392 . S
C745 C744 1.401 . S
C745 H755 0.930 . S
C746 O724 1.262 . S
C746 O725 1.260 . S
C747 Tb683 2.833 . S
C747 O722 1.251 . S
C747 O727 1.256 . S
C747 C740 1.500 . S
H748 C731 0.930 . S
H749 C732 0.931 . S
H750 C733 0.930 . S
H751 C734 0.930 . S
H752 C741 0.930 . S
H753 C743 0.931 . S
H754 C744 0.930 . S
H755 C745 0.930 . S
C756 C757 1.369 . S
C756 C758 1.419 . S
C756 H760 0.930 . S
C757 C756 1.369 . S
C757 C766 1.429 1_554 S
C758 C756 1.419 . S
C758 C759 1.363 . S
C758 H761 0.929 . S
C759 C758 1.363 . S
C759 C765 1.428 1_554 S
H760 C756 0.930 . S
H761 C758 0.929 . S
S762 N763 1.613 . S
S762 N764 1.610 . S
N763 S762 1.613 . S
N763 C766 1.350 . S
N764 S762 1.610 . S
N764 C765 1.351 . S
C765 C759 1.428 1_556 S
C765 N764 1.351 . S
C765 C766 1.434 . S
C766 C757 1.429 1_556 S
C766 N763 1.350 . S
C766 C765 1.434 . S
C767 C768 1.369 . S
C767 C769 1.420 . S
C767 H771 0.930 . S
C768 C767 1.369 . S
C768 C777 1.429 . S
C769 C767 1.420 . S
C769 C770 1.364 . S
C769 H772 0.927 1_554 S
C770 C769 1.364 . S
C770 C776 1.428 . S
H771 C767 0.930 . S
H772 C769 0.927 1_556 S
S773 N774 1.613 . S
S773 N775 1.610 . S
N774 S773 1.613 . S
N774 C777 1.350 . S
N775 S773 1.610 . S
N775 C776 1.351 . S
C776 C770 1.428 . S
C776 N775 1.351 . S
C776 C777 1.434 . S
C777 C768 1.429 . S
C777 N774 1.350 . S
C777 C776 1.434 . S
C778 C779 1.369 . S
C778 C780 1.419 . S
C778 H782 0.930 . S
C779 C778 1.369 . S
C779 C788 1.429 1_554 S
C780 C778 1.419 . S
C780 C781 1.363 . S
C780 H783 0.929 . S
C781 C780 1.363 . S
C781 C787 1.428 1_554 S
H782 C778 0.930 . S
H783 C780 0.929 . S
S784 N785 1.613 . S
S784 N786 1.610 . S
N785 S784 1.613 . S
N785 C788 1.350 . S
N786 S784 1.610 . S
N786 C787 1.351 . S
C787 C781 1.428 1_556 S
C787 N786 1.351 . S
C787 C788 1.434 . S
C788 C779 1.429 1_556 S
C788 N785 1.350 . S
C788 C787 1.434 . S
C789 C790 1.369 . S
C789 C791 1.422 . S
C789 H793 0.930 . S
C790 C789 1.369 . S
C790 C799 1.429 . S
C791 C789 1.422 . S
C791 C792 1.363 1_556 S
C791 H794 0.926 1_556 S
C792 C791 1.363 1_554 S
C792 C798 1.427 1_554 S
H793 C789 0.930 . S
H794 C791 0.926 1_554 S
S795 N796 1.613 . S
S795 N797 1.610 . S
N796 S795 1.613 . S
N796 C799 1.350 . S
N797 S795 1.610 . S
N797 C798 1.351 . S
C798 C792 1.427 1_556 S
C798 N797 1.351 . S
C798 C799 1.434 . S
C799 C790 1.429 . S
C799 N796 1.350 . S
C799 C798 1.434 . S
C800 C801 1.371 . S
C800 C802 1.419 . S
C800 H804 0.930 . S
C801 C800 1.371 . S
C801 C810 1.426 1_554 S
C802 C800 1.419 . S
C802 C803 1.363 1_554 S
C802 H805 0.929 . S
C803 C802 1.363 1_556 S
C803 C809 1.428 . S
H804 C800 0.930 . S
H805 C802 0.929 . S
S806 N807 1.613 . S
S806 N808 1.610 . S
N807 S806 1.613 . S
N807 C810 1.350 . S
N808 S806 1.610 . S
N808 C809 1.351 . S
C809 C803 1.428 . S
C809 N808 1.351 . S
C809 C810 1.434 . S
C810 C801 1.426 1_556 S
C810 N807 1.350 . S
C810 C809 1.434 . S
C811 C812 1.369 1_556 S
C811 C813 1.419 . S
C811 H815 0.930 . S
C812 C811 1.369 1_554 S
C812 C821 1.429 . S
C813 C811 1.419 . S
C813 C814 1.363 . S
C813 H816 0.929 . S
C814 C813 1.363 . S
C814 C820 1.428 1_556 S
H815 C811 0.930 . S
H816 C813 0.929 . S
S817 N818 1.613 . S
S817 N819 1.610 . S
N818 S817 1.613 . S
N818 C821 1.350 . S
N819 S817 1.610 . S
N819 C820 1.351 . S
C820 C814 1.428 1_554 S
C820 N819 1.351 . S
C820 C821 1.434 . S
C821 C812 1.429 . S
C821 N818 1.350 . S
C821 C820 1.434 . S
C822 C823 1.369 . S
C822 C824 1.419 . S
C822 H826 0.930 . S
C823 C822 1.369 . S
C823 C832 1.429 . S
C824 C822 1.419 . S
C824 C825 1.363 . S
C824 H827 0.929 . S
C825 C824 1.363 . S
C825 C831 1.428 . S
H826 C822 0.930 . S
H827 C824 0.929 . S
S828 N829 1.613 . S
S828 N830 1.610 . S
N829 S828 1.613 . S
N829 C832 1.350 . S
N830 S828 1.610 . S
N830 C831 1.351 . S
C831 C825 1.428 . S
C831 N830 1.351 . S
C831 C832 1.434 . S
C832 C823 1.429 . S
C832 N829 1.350 . S
C832 C831 1.434 . S
C833 C834 1.369 . S
C833 C835 1.419 . S
C833 H837 0.930 . S
C834 C833 1.369 . S
C834 C843 1.429 1_545 S
C835 C833 1.419 . S
C835 C836 1.363 1_545 S
C835 H838 0.929 . S
C836 C835 1.363 1_565 S
C836 C842 1.428 . S
H837 C833 0.930 . S
H838 C835 0.929 . S
S839 N840 1.613 . S
S839 N841 1.610 . S
N840 S839 1.613 . S
N840 C843 1.350 . S
N841 S839 1.610 . S
N841 C842 1.351 . S
C842 C836 1.428 . S
C842 N841 1.351 . S
C842 C843 1.434 . S
C843 C834 1.429 1_565 S
C843 N840 1.350 . S
C843 C842 1.434 . S
C844 C845 1.369 . S
C844 C846 1.419 1_455 S
C844 H848 0.930 . S
C845 C844 1.369 . S
C845 C854 1.429 1_455 S
C846 C844 1.419 1_655 S
C846 C847 1.363 . S
C846 H849 0.929 . S
C847 C846 1.363 . S
C847 C853 1.428 . S
H848 C844 0.930 . S
H849 C846 0.929 . S
S850 N851 1.613 . S
S850 N852 1.610 . S
N851 S850 1.613 . S
N851 C854 1.350 . S
N852 S850 1.610 . S
N852 C853 1.351 . S
C853 C847 1.428 . S
C853 N852 1.351 . S
C853 C854 1.434 . S
C854 C845 1.429 1_655 S
C854 N851 1.350 . S
C854 C853 1.434 . S
C855 C856 1.369 . S
C855 C857 1.419 . S
C855 H859 0.930 . S
C856 C855 1.369 . S
C856 C865 1.429 . S
C857 C855 1.419 . S
C857 C858 1.363 . S
C857 H860 0.929 . S
C858 C857 1.363 . S
C858 C864 1.428 . S
H859 C855 0.930 . S
H860 C857 0.929 . S
S861 N862 1.613 . S
S861 N863 1.610 . S
N862 S861 1.613 . S
N862 C865 1.350 . S
N863 S861 1.610 . S
N863 C864 1.351 . S
C864 C858 1.428 . S
C864 N863 1.351 . S
C864 C865 1.434 . S
C865 C856 1.429 . S
C865 N862 1.350 . S
C865 C864 1.434 . S
C866 C867 1.369 . S
C866 C868 1.419 . S
C866 H870 0.930 . S
C867 C866 1.369 . S
C867 C876 1.429 . S
C868 C866 1.419 . S
C868 C869 1.363 . S
C868 H871 0.929 . S
C869 C868 1.363 . S
C869 C875 1.428 . S
H870 C866 0.930 . S
H871 C868 0.929 . S
S872 N873 1.613 . S
S872 N874 1.610 . S
N873 S872 1.613 . S
N873 C876 1.350 . S
N874 S872 1.610 . S
N874 C875 1.351 . S
C875 C869 1.428 . S
C875 N874 1.351 . S
C875 C876 1.434 . S
C876 C867 1.429 . S
C876 N873 1.350 . S
C876 C875 1.434 . S
C877 C878 1.369 . S
C877 C879 1.419 . S
C877 H881 0.930 . S
C878 C877 1.369 . S
C878 C887 1.429 . S
C879 C877 1.419 . S
C879 C880 1.363 . S
C879 H882 0.929 . S
C880 C879 1.363 . S
C880 C886 1.428 . S
H881 C877 0.930 . S
H882 C879 0.929 . S
S883 N884 1.613 . S
S883 N885 1.610 . S
N884 S883 1.613 . S
N884 C887 1.350 . S
N885 S883 1.610 . S
N885 C886 1.351 . S
C886 C880 1.428 . S
C886 N885 1.351 . S
C886 C887 1.434 . S
C887 C878 1.429 . S
C887 N884 1.350 . S
C887 C886 1.434 . S
C888 C889 1.369 . S
C888 C890 1.419 . S
C888 H892 0.930 . S
C889 C888 1.369 . S
C889 C898 1.429 . S
C890 C888 1.419 . S
C890 C891 1.363 . S
C890 H893 0.929 . S
C891 C890 1.363 . S
C891 C897 1.428 . S
H892 C888 0.930 . S
H893 C890 0.929 . S
S894 N895 1.613 . S
S894 N896 1.610 . S
N895 S894 1.613 . S
N895 C898 1.350 . S
N896 S894 1.610 . S
N896 C897 1.351 . S
C897 C891 1.428 . S
C897 N896 1.351 . S
C897 C898 1.434 . S
C898 C889 1.429 . S
C898 N895 1.350 . S
C898 C897 1.434 . S
C899 C900 1.369 . S
C899 C901 1.419 . S
C899 H903 0.930 . S
C900 C899 1.369 . S
C900 C909 1.429 . S
C901 C899 1.419 . S
C901 C902 1.363 . S
C901 H904 0.929 . S
C902 C901 1.363 . S
C902 C908 1.428 . S
H903 C899 0.930 . S
H904 C901 0.929 . S
S905 N906 1.613 . S
S905 N907 1.610 . S
N906 S905 1.613 . S
N906 C909 1.350 . S
N907 S905 1.610 . S
N907 C908 1.351 . S
C908 C902 1.428 . S
C908 N907 1.351 . S
C908 C909 1.434 . S
C909 C900 1.429 . S
C909 N906 1.350 . S
C909 C908 1.434 . S
C910 C911 1.369 . S
C910 C912 1.419 . S
C910 H914 0.930 . S
C911 C910 1.369 . S
C911 C920 1.429 . S
C912 C910 1.419 . S
C912 C913 1.363 . S
C912 H915 0.929 . S
C913 C912 1.363 . S
C913 C919 1.428 . S
H914 C910 0.930 . S
H915 C912 0.929 . S
S916 N917 1.613 . S
S916 N918 1.610 . S
N917 S916 1.613 . S
N917 C920 1.350 . S
N918 S916 1.610 . S
N918 C919 1.351 . S
C919 C913 1.428 . S
C919 N918 1.351 . S
C919 C920 1.434 . S
C920 C911 1.429 . S
C920 N917 1.350 . S
C920 C919 1.434 . S
C921 C922 1.370 . S
C921 C923 1.410 1_565 S
C921 H925 0.938 . S
C922 C921 1.370 . S
C922 C931 1.429 . S
C923 C921 1.410 1_545 S
C923 C924 1.363 . S
C923 H926 0.929 . S
C924 C923 1.363 . S
C924 C930 1.428 . S
H925 C921 0.938 . S
H926 C923 0.929 . S
S927 N928 1.613 1_545 S
S927 N929 1.610 . S
N928 S927 1.613 1_565 S
N928 C931 1.350 . S
N929 S927 1.610 . S
N929 C930 1.351 . S
C930 C924 1.428 . S
C930 N929 1.351 . S
C930 C931 1.434 1_545 S
C931 C922 1.429 . S
C931 N928 1.350 . S
C931 C930 1.434 1_565 S
C932 C933 1.369 . S
C932 C934 1.419 1_655 S
C932 H936 0.930 . S
C933 C932 1.369 . S
C933 C942 1.429 . S
C934 C932 1.419 1_455 S
C934 C935 1.363 . S
C934 H937 0.929 . S
C935 C934 1.363 . S
C935 C941 1.428 . S
H936 C932 0.930 . S
H937 C934 0.929 . S
S938 N939 1.613 1_455 S
S938 N940 1.610 . S
N939 S938 1.613 1_655 S
N939 C942 1.350 . S
N940 S938 1.610 . S
N940 C941 1.351 . S
C941 C935 1.428 . S
C941 N940 1.351 . S
C941 C942 1.434 1_455 S
C942 C933 1.429 . S
C942 N939 1.350 . S
C942 C941 1.434 1_655 S
C943 C944 1.369 . S
C943 C945 1.419 . S
C943 H947 0.930 . S
C944 C943 1.369 . S
C944 C953 1.429 . S
C945 C943 1.419 . S
C945 C946 1.363 . S
C945 H948 0.929 . S
C946 C945 1.363 . S
C946 C952 1.428 . S
H947 C943 0.930 . S
H948 C945 0.929 . S
S949 N950 1.613 . S
S949 N951 1.610 . S
N950 S949 1.613 . S
N950 C953 1.350 . S
N951 S949 1.610 . S
N951 C952 1.351 . S
C952 C946 1.428 . S
C952 N951 1.351 . S
C952 C953 1.434 . S
C953 C944 1.429 . S
C953 N950 1.350 . S
C953 C952 1.434 . S
C954 C955 1.369 . S
C954 C956 1.419 . S
C954 H958 0.930 . S
C955 C954 1.369 . S
C955 C964 1.429 . S
C956 C954 1.419 . S
C956 C957 1.363 . S
C956 H959 0.929 . S
C957 C956 1.363 . S
C957 C963 1.428 . S
H958 C954 0.930 . S
H959 C956 0.929 . S
S960 N961 1.613 . S
S960 N962 1.610 . S
N961 S960 1.613 . S
N961 C964 1.350 . S
N962 S960 1.610 . S
N962 C963 1.351 . S
C963 C957 1.428 . S
C963 N962 1.351 . S
C963 C964 1.434 . S
C964 C955 1.429 . S
C964 N961 1.350 . S
C964 C963 1.434 . S
C965 C966 1.369 . S
C965 C967 1.419 . S
C965 H969 0.930 . S
C966 C965 1.369 . S
C966 C975 1.429 . S
C967 C965 1.419 . S
C967 C968 1.363 . S
C967 H970 0.929 . S
C968 C967 1.363 . S
C968 C974 1.428 . S
H969 C965 0.930 . S
H970 C967 0.929 . S
S971 N972 1.613 . S
S971 N973 1.610 . S
N972 S971 1.613 . S
N972 C975 1.350 . S
N973 S971 1.610 . S
N973 C974 1.351 . S
C974 C968 1.428 . S
C974 N973 1.351 . S
C974 C975 1.434 . S
C975 C966 1.429 . S
C975 N972 1.350 . S
C975 C974 1.434 . S
C976 C977 1.369 . S
C976 C978 1.419 . S
C976 H980 0.930 . S
C977 C976 1.369 . S
C977 C986 1.429 . S
C978 C976 1.419 . S
C978 C979 1.363 . S
C978 H981 0.929 . S
C979 C978 1.363 . S
C979 C985 1.428 . S
H980 C976 0.930 . S
H981 C978 0.929 . S
S982 N983 1.613 . S
S982 N984 1.610 1_545 S
N983 S982 1.613 . S
N983 C986 1.350 1_545 S
N984 S982 1.610 1_565 S
N984 C985 1.351 . S
C985 C979 1.428 . S
C985 N984 1.351 . S
C985 C986 1.434 . S
C986 C977 1.429 . S
C986 N983 1.350 1_565 S
C986 C985 1.434 . S
C987 C988 1.369 . S
C987 C989 1.419 . S
C987 H991 0.930 . S
C988 C987 1.369 . S
C988 C997 1.429 . S
C989 C987 1.419 . S
C989 C990 1.363 . S
C989 H992 0.929 . S
C990 C989 1.363 . S
C990 C996 1.428 . S
H991 C987 0.930 . S
H992 C989 0.929 . S
S993 N994 1.613 1_565 S
S993 N995 1.610 1_565 S
N994 S993 1.613 1_545 S
N994 C997 1.350 . S
N995 S993 1.610 1_545 S
N995 C996 1.351 . S
C996 C990 1.428 . S
C996 N995 1.351 . S
C996 C997 1.434 . S
C997 C988 1.429 . S
C997 N994 1.350 . S
C997 C996 1.434 . S
C998 C999 1.369 . S
C998 C1000 1.419 . S
C998 H1002 0.930 . S
C999 C998 1.369 . S
C999 C1008 1.429 . S
C1000 C998 1.419 . S
C1000 C1001 1.363 . S
C1000 H1003 0.929 . S
C1001 C1000 1.363 . S
C1001 C1007 1.428 . S
H1002 C998 0.930 . S
H1003 C1000 0.929 . S
S1004 N1005 1.613 . S
S1004 N1006 1.610 . S
N1005 S1004 1.613 . S
N1005 C1008 1.350 . S
N1006 S1004 1.610 . S
N1006 C1007 1.351 . S
C1007 C1001 1.428 . S
C1007 N1006 1.351 . S
C1007 C1008 1.434 . S
C1008 C999 1.429 . S
C1008 N1005 1.350 . S
C1008 C1007 1.434 . S
C1009 C1010 1.369 . S
C1009 C1011 1.419 . S
C1009 H1013 0.930 . S
C1010 C1009 1.369 . S
C1010 C1019 1.429 . S
C1011 C1009 1.419 . S
C1011 C1012 1.363 . S
C1011 H1014 0.929 . S
C1012 C1011 1.363 . S
C1012 C1018 1.428 . S
H1013 C1009 0.930 . S
H1014 C1011 0.929 . S
S1015 N1016 1.613 . S
S1015 N1017 1.610 . S
N1016 S1015 1.613 . S
N1016 C1019 1.350 . S
N1017 S1015 1.610 . S
N1017 C1018 1.351 . S
C1018 C1012 1.428 . S
C1018 N1017 1.351 . S
C1018 C1019 1.434 . S
C1019 C1010 1.429 . S
C1019 N1016 1.350 . S
C1019 C1018 1.434 . S
C1020 C1021 1.369 . S
C1020 C1022 1.419 . S
C1020 H1024 0.930 . S
C1021 C1020 1.369 . S
C1021 C1030 1.429 . S
C1022 C1020 1.419 . S
C1022 C1023 1.363 . S
C1022 H1025 0.929 . S
C1023 C1022 1.363 . S
C1023 C1029 1.428 . S
H1024 C1020 0.930 . S
H1025 C1022 0.929 . S
S1026 N1027 1.613 . S
S1026 N1028 1.610 . S
N1027 S1026 1.613 . S
N1027 C1030 1.350 . S
N1028 S1026 1.610 . S
N1028 C1029 1.351 . S
C1029 C1023 1.428 . S
C1029 N1028 1.351 . S
C1029 C1030 1.434 . S
C1030 C1021 1.429 . S
C1030 N1027 1.350 . S
C1030 C1029 1.434 . S
C1031 C1032 1.369 . S
C1031 C1033 1.419 . S
C1031 H1035 0.930 . S
C1032 C1031 1.369 . S
C1032 C1041 1.429 . S
C1033 C1031 1.419 . S
C1033 C1034 1.363 1_565 S
C1033 H1036 0.929 . S
C1034 C1033 1.363 1_545 S
C1034 C1040 1.428 . S
H1035 C1031 0.930 . S
H1036 C1033 0.929 . S
S1037 N1038 1.613 . S
S1037 N1039 1.610 . S
N1038 S1037 1.613 . S
N1038 C1041 1.350 1_545 S
N1039 S1037 1.610 . S
N1039 C1040 1.351 . S
C1040 C1034 1.428 . S
C1040 N1039 1.351 . S
C1040 C1041 1.434 1_545 S
C1041 C1032 1.429 . S
C1041 N1038 1.350 1_565 S
C1041 C1040 1.434 1_565 S
C1042 C1043 1.369 . S
C1042 C1044 1.419 1_655 S
C1042 H1046 0.930 . S
C1043 C1042 1.369 . S
C1043 C1052 1.429 1_655 S
C1044 C1042 1.419 1_455 S
C1044 C1045 1.363 . S
C1044 H1047 0.929 . S
C1045 C1044 1.363 . S
C1045 C1051 1.428 . S
H1046 C1042 0.930 . S
H1047 C1044 0.929 . S
S1048 N1049 1.613 . S
S1048 N1050 1.610 . S
N1049 S1048 1.613 . S
N1049 C1052 1.350 . S
N1050 S1048 1.610 . S
N1050 C1051 1.351 . S
C1051 C1045 1.428 . S
C1051 N1050 1.351 . S
C1051 C1052 1.434 . S
C1052 C1043 1.429 1_455 S
C1052 N1049 1.350 . S
C1052 C1051 1.434 . S
C757 C142 1.167 . S
C759 C56 1.375 1_554 S
C768 C226 1.166 . S
C770 C140 1.382 1_554 S
C779 C224 1.371 1_554 S
C781 C58 1.172 . S
C790 C238 1.263 . S
C792 C151 1.450 . S
C801 C235 1.450 . S
C803 C70 1.265 . S
C812 C67 1.447 . S
C814 C154 1.257 . S
C823 C308 1.369 . S
C825 C394 1.176 . S
C834 C478 1.185 . S
C836 C392 1.372 . S
C845 C476 1.378 . S
C847 C310 1.181 . S
C856 C403 1.448 . S
C858 C490 1.270 . S
C867 C487 1.447 . S
C869 C322 1.257 . S
C878 C406 1.268 . S
C880 C319 1.449 . S
C889 C646 1.164 . S
C891 C560 1.381 . S
C900 C644 1.384 . S
C902 C730 1.172 . S
C911 C728 1.384 . S
C913 C562 1.168 . S
C922 C742 1.268 . S
C924 C655 1.449 . S
C933 C739 1.448 . S
C935 C574 1.258 . S
C944 C571 1.447 . S
C946 C658 1.266 . S
C955 C494 2.580 . S
C957 C63 2.651 . S
C966 C326 2.574 . S
C968 C147 2.647 . S
C977 C231 2.648 . S
C979 C410 2.573 . S
C988 C242 2.575 . S
C990 C567 2.646 . S
C999 C74 2.573 . S
C1001 C651 2.650 . S
C1010 C735 2.646 . S
C1012 C158 2.578 . S
C1021 C315 2.647 . S
C1023 C746 2.573 . S
C1032 C399 2.646 . S
C1034 C578 2.576 . S
C1043 C662 2.573 . S
C1045 C483 2.650 . S
