# Generated by pormake.
# Topology vby, (6)-cn, num edge types: 1
# Building blocks:
#     Node 0, Type 0, BuildingBlock: KUMBOL_clean_sbu_0, # of connection points: 6
#     Node 1, Type 0, BuildingBlock: KUMBOL_clean_sbu_0, # of connection points: 6
#     Node 2, Type 0, BuildingBlock: KUMBOL_clean_sbu_0, # of connection points: 6
#     Node 3, Type 0, BuildingBlock: KUMBOL_clean_sbu_0, # of connection points: 6
#     Node 4, Type 0, BuildingBlock: KUMBOL_clean_sbu_0, # of connection points: 6
#     Node 5, Type 0, BuildingBlock: KUMBOL_clean_sbu_0, # of connection points: 6
#     Node 6, Type 0, BuildingBlock: KUMBOL_clean_sbu_0, # of connection points: 6
#     Node 7, Type 0, BuildingBlock: KUMBOL_clean_sbu_0, # of connection points: 6
#     Edge 8, Type (0, 0), BuildingBlock: XUDNAN_clean_linker_2, # of connection points: 2
#     Edge 9, Type (0, 0), BuildingBlock: XUDNAN_clean_linker_2, # of connection points: 2
#     Edge 10, Type (0, 0), BuildingBlock: XUDNAN_clean_linker_2, # of connection points: 2
#     Edge 11, Type (0, 0), BuildingBlock: XUDNAN_clean_linker_2, # of connection points: 2
#     Edge 12, Type (0, 0), BuildingBlock: XUDNAN_clean_linker_2, # of connection points: 2
#     Edge 13, Type (0, 0), BuildingBlock: XUDNAN_clean_linker_2, # of connection points: 2
#     Edge 14, Type (0, 0), BuildingBlock: XUDNAN_clean_linker_2, # of connection points: 2
#     Edge 15, Type (0, 0), BuildingBlock: XUDNAN_clean_linker_2, # of connection points: 2
#     Edge 16, Type (0, 0), BuildingBlock: XUDNAN_clean_linker_2, # of connection points: 2
#     Edge 17, Type (0, 0), BuildingBlock: XUDNAN_clean_linker_2, # of connection points: 2
#     Edge 18, Type (0, 0), BuildingBlock: XUDNAN_clean_linker_2, # of connection points: 2
#     Edge 19, Type (0, 0), BuildingBlock: XUDNAN_clean_linker_2, # of connection points: 2
#     Edge 20, Type (0, 0), BuildingBlock: XUDNAN_clean_linker_2, # of connection points: 2
#     Edge 21, Type (0, 0), BuildingBlock: XUDNAN_clean_linker_2, # of connection points: 2
#     Edge 22, Type (0, 0), BuildingBlock: XUDNAN_clean_linker_2, # of connection points: 2
#     Edge 23, Type (0, 0), BuildingBlock: XUDNAN_clean_linker_2, # of connection points: 2
#     Edge 24, Type (0, 0), BuildingBlock: XUDNAN_clean_linker_2, # of connection points: 2
#     Edge 25, Type (0, 0), BuildingBlock: XUDNAN_clean_linker_2, # of connection points: 2
#     Edge 26, Type (0, 0), BuildingBlock: XUDNAN_clean_linker_2, # of connection points: 2
#     Edge 27, Type (0, 0), BuildingBlock: XUDNAN_clean_linker_2, # of connection points: 2
#     Edge 28, Type (0, 0), BuildingBlock: XUDNAN_clean_linker_2, # of connection points: 2
#     Edge 29, Type (0, 0), BuildingBlock: XUDNAN_clean_linker_2, # of connection points: 2
#     Edge 30, Type (0, 0), BuildingBlock: XUDNAN_clean_linker_2, # of connection points: 2
#     Edge 31, Type (0, 0), BuildingBlock: XUDNAN_clean_linker_2, # of connection points: 2
# Relax obj value: 0.107
# Max RMSD: 0.195
# Mean RMSD: 0.195
data_MOF--net-vby--node1-KUMBOL_clean_sbu_0--edge1-XUDNAN_clean_linker_2
_symmetry_space_group_name_H-M    P1
_symmetry_Int_Tables_number       1
_symmetry_cell_setting            triclinic
loop_
_symmetry_equiv_pos_as_xyz
'x, y, z'
_cell_length_a     14.580078
_cell_length_b     98.661589
_cell_length_c     30.190621
_cell_angle_alpha  114.90905
_cell_angle_beta   90.006596
_cell_angle_gamma 90.019689
loop_
_atom_site_label
_atom_site_type_symbol
_atom_site_fract_x
_atom_site_fract_y
_atom_site_fract_z
_atom_type_partial_charge
Gd0 Gd 0.09121 0.36071 0.984 0.0
Gd1 Gd 0.11599 0.40129 0.02026 0.0
C2 C 0.40774 0.41062 0.98363 0.0
C3 C 0.47881 0.42182 0.06354 0.0
C4 C 0.32023 0.4131 0.05507 0.0
C5 C 0.32524 0.40855 0.00482 0.0
C6 C 0.39747 0.4198 0.08474 0.0
C7 C 0.48373 0.41733 0.01322 0.0
C8 C 0.41241 0.40571 0.93309 0.0
C9 C 0.33724 0.39859 0.90456 0.0
N10 N 0.25137 0.4017 0.9765 0.0
C11 C 0.25733 0.39667 0.92671 0.0
H12 H 0.20196 0.39117 0.90263 0.0
C13 C 0.23301 0.41658 0.12499 0.0
N14 N 0.24064 0.41106 0.07513 0.0
C15 C 0.30808 0.42296 0.15534 0.0
C16 C 0.39093 0.42446 0.13515 0.0
H17 H 0.16876 0.41685 0.14273 0.0
H18 H 0.54707 0.41903 -0.00253 0.0
H19 H 0.92135 0.36289 0.06173 0.0
H20 H 0.47411 0.40721 0.91565 0.0
H21 H 0.34053 0.3946 0.86525 0.0
H22 H 0.53836 0.42692 0.08584 0.0
H23 H 0.17997 0.34004 0.87402 0.0
H24 H 0.69246 0.33774 0.97976 0.0
H25 H 0.76369 0.35373 0.05895 0.0
H26 H 0.80951 0.31417 0.81674 0.0
H27 H 0.30115 0.42708 0.19456 0.0
H28 H 0.44874 0.42957 0.15891 0.0
H29 H 0.70958 0.32324 0.88909 0.0
H30 H 0.12901 0.32107 0.79366 0.0
N31 N 0.93857 0.35294 0.98449 0.0
C32 C 0.76147 0.34192 0.9806 0.0
C33 C 0.80161 0.35087 0.02539 0.0
C34 C 0.81248 0.33787 0.93766 0.0
C35 C 0.90214 0.34359 0.94084 0.0
C36 C 0.89123 0.35609 0.02674 0.0
N37 N 0.04711 0.34305 0.90585 0.0
C38 C 0.95854 0.33834 0.90022 0.0
C39 C 0.08029 0.32589 0.82324 0.0
C40 C 0.98857 0.32137 0.81628 0.0
C41 C 0.10891 0.33663 0.86872 0.0
C42 C 0.92673 0.32741 0.85523 0.0
H43 H 0.96678 0.31295 0.78114 0.0
O44 O 0.18556 0.34222 0.97126 0.0
O45 O 0.19106 0.38021 0.01146 0.0
O46 O 0.07041 0.3908 0.94139 0.0
O47 O 0.04914 0.36517 0.91872 0.0
O48 O 0.23468 0.36086 0.95461 0.0
O49 O 0.08771 0.34857 0.02985 0.0
O50 O 0.08251 0.4241 0.07014 0.0
O51 O 1.01893 0.38234 0.00537 0.0
O52 O 0.07411 0.37302 0.06628 0.0
O53 O 0.07754 0.39882 0.08882 0.0
O54 O 0.95961 0.40282 0.02651 0.0
O55 O 0.09164 0.41803 0.9923 0.0
C56 C 0.26009 0.37408 0.98435 0.0
C57 C 0.83556 0.32244 0.85113 0.0
C58 C 0.77861 0.32763 0.89231 0.0
C59 C 0.14987 0.33888 0.00495 0.0
C60 C 0.12696 0.32291 0.99066 0.0
C61 C 0.04874 0.31676 0.96238 0.0
C62 C 0.18171 0.31373 0.00548 0.0
C63 C 0.15821 0.29851 0.99145 0.0
C64 C 1.02525 0.30186 0.94842 0.0
C65 C 0.07927 0.29279 0.96278 0.0
C66 C 0.04766 0.37717 0.90936 0.0
C67 C 0.94082 0.38886 0.01249 0.0
C68 C 0.08007 0.42884 0.0357 0.0
C69 C 0.126 0.44323 0.04555 0.0
C70 C 0.20678 0.44742 0.07329 0.0
C71 C 0.087 0.45314 0.02809 0.0
C72 C 0.12791 0.46718 0.03847 0.0
C73 C 0.24856 0.4611 0.08295 0.0
C74 C 0.20957 0.47092 0.0659 0.0
C75 C 0.06879 0.3871 0.09916 0.0
H76 H 1.00498 0.32349 0.95141 0.0
H77 H 0.24225 0.31837 0.0275 0.0
H78 H 0.96424 0.29735 0.92673 0.0
H79 H 0.05784 0.28134 0.95224 0.0
H80 H 0.23708 0.44027 0.08819 0.0
H81 H 1.02465 0.4499 0.0066 0.0
H82 H 0.31074 0.46421 0.10453 0.0
H83 H 0.24227 0.48164 0.0755 0.0
Gd84 Gd 0.98813 0.61367 -0.00078 0.0
Gd85 Gd 0.99138 0.65309 0.03126 0.0
C86 C 0.27482 0.6739 0.07655 0.0
C87 C 0.25384 0.68926 0.16325 0.0
C88 C 0.12569 0.6752 0.11347 0.0
C89 C 0.18242 0.66927 0.07295 0.0
C90 C 0.15994 0.68576 0.1585 0.0
C91 C 0.31122 0.68334 0.12229 0.0
C92 C 0.32609 0.66973 0.03367 0.0
C93 C 0.28339 0.66197 0.98861 0.0
N94 N 0.14464 0.6604 0.02905 0.0
C95 C 0.19185 0.65749 0.98691 0.0
H96 H 0.1606 0.65147 0.95171 0.0
C97 C 0.97317 0.68018 0.14254 0.0
N98 N 1.03491 0.67189 0.10742 0.0
C99 C 1.00387 0.69064 0.18802 0.0
C100 C 0.09789 0.69314 0.19648 0.0
H101 H 0.90047 0.67818 0.1361 0.0
H102 H 0.38245 0.68678 0.12587 0.0
H103 H 0.95627 0.60538 0.09773 0.0
H104 H 0.39715 0.67308 0.03484 0.0
H105 H 0.32129 0.65924 0.95511 0.0
H106 H 0.28177 0.69713 0.19779 0.0
H107 H 0.90133 0.60776 0.888 0.0
H108 H 0.67498 0.59469 0.10346 0.0
H109 H 0.8303 0.59926 0.1394 0.0
H110 H 0.55601 0.59058 0.95113 0.0
H111 H 0.95508 0.69673 0.21648 0.0
H112 H 0.12147 0.70134 0.23161 0.0
H113 H 0.57415 0.59117 0.03275 0.0
H114 H 0.75891 0.59981 0.84254 0.0
N115 N 0.87194 0.60684 0.04171 0.0
C116 C 0.72972 0.59795 0.08567 0.0
C117 C 0.81702 0.60059 0.10617 0.0
C118 C 0.71552 0.59862 0.0409 0.0
C119 C 0.78905 0.603 0.01924 0.0
C120 C 0.88807 0.60452 0.08283 0.0
N121 N 0.85062 0.60686 0.9531 0.0
C122 C 0.77883 0.60265 0.9732 0.0
C123 C 0.76309 0.60071 0.87947 0.0
C124 C 0.68785 0.59697 0.90042 0.0
C125 C 0.84424 0.60552 0.90618 0.0
C126 C 0.69504 0.59784 0.94767 0.0
H127 H 0.62487 0.59332 0.8797 0.0
O128 O 1.03557 0.59421 0.93581 0.0
O129 O 0.08228 0.63272 0.00709 0.0
O130 O 1.01237 0.64118 0.94956 0.0
O131 O 1.0387 0.6161 0.93174 0.0
O132 O 0.12601 0.61871 0.03761 0.0
O133 O 1.02948 0.59333 0.00568 0.0
O134 O 0.8837 0.65978 0.99446 0.0
O135 O 0.89814 0.63308 0.00728 0.0
O136 O 1.00266 0.62525 0.08112 0.0
O137 O 0.99778 0.65088 0.10287 0.0
O138 O 0.85916 0.65181 0.0685 0.0
O139 O 0.99125 0.6752 0.0308 0.0
C140 C 0.14934 0.63014 0.02977 0.0
C141 C 0.62104 0.59405 0.96992 0.0
C142 C 0.63121 0.59448 0.01648 0.0
C143 C 1.03967 0.58568 0.95899 0.0
C144 C 0.99102 0.57112 0.9371 0.0
C145 C 0.92825 0.56811 0.89873 0.0
C146 C 1.00453 0.56028 0.95565 0.0
C147 C 0.95425 0.54678 0.93672 0.0
C148 C 0.87939 0.55473 0.87959 0.0
C149 C 0.89189 0.54417 0.89844 0.0
C150 C 1.03302 0.62735 0.91875 0.0
C151 C 0.83338 0.63859 0.03838 0.0
C152 C 0.91344 0.67335 0.00831 0.0
C153 C 0.8453 0.6855 0.02978 0.0
C154 C 0.77759 0.6847 0.06162 0.0
C155 C 0.84694 0.69795 0.01809 0.0
C156 C 0.78057 0.70941 0.03767 0.0
C157 C 0.71258 0.69603 0.08142 0.0
C158 C 0.71385 0.70827 0.06962 0.0
C159 C 1.00314 0.63928 0.11381 0.0
H160 H 0.9163 0.57612 0.88354 0.0
H161 H 0.0521 0.56251 0.98552 0.0
H162 H 0.83116 0.55256 0.85011 0.0
H163 H 0.85297 0.53386 0.88282 0.0
H164 H 0.77458 0.6753 0.07112 0.0
H165 H 0.89861 0.69854 0.99316 0.0
H166 H 0.66078 0.69532 0.10604 0.0
H167 H 0.6629 0.71694 0.08602 0.0
Gd168 Gd 0.11956 0.65521 0.55627 0.0
Gd169 Gd 0.14291 0.61443 0.48256 0.0
C170 C 0.3976 0.59416 0.39048 0.0
C171 C 0.33702 0.58475 0.30788 0.0
C172 C 0.23649 0.59723 0.37757 0.0
C173 C 0.30975 0.59962 0.40899 0.0
C174 C 0.24869 0.58941 0.32672 0.0
C175 C 0.41142 0.58714 0.33973 0.0
C176 C 0.46768 0.59526 0.42352 0.0
C177 C 0.44789 0.60094 0.47333 0.0
N178 N 0.29351 0.60618 0.45773 0.0
C179 C 0.35939 0.6061 0.48976 0.0
H180 H 0.34432 0.61044 0.52836 0.0
C181 C 0.07581 0.598 0.36799 0.0
N182 N 0.15208 0.60179 0.39704 0.0
C183 C 0.08432 0.59015 0.31735 0.0
C184 C 0.17128 0.58602 0.29653 0.0
H185 H 1.00854 0.60128 0.38386 0.0
H186 H 0.47862 0.58302 0.3248 0.0
H187 H 0.92711 0.66117 0.50694 0.0
H188 H 0.53615 0.59121 0.41083 0.0
H189 H 0.50065 0.60137 0.49909 0.0
H190 H 0.348 0.57888 0.26887 0.0
H191 H 0.24011 0.66293 0.66057 0.0
H192 H 0.73711 0.68478 0.62134 0.0
H193 H 0.77551 0.67276 0.53343 0.0
H194 H 0.90684 0.69343 0.7665 0.0
H195 H 1.02388 0.58735 0.2944 0.0
H196 H 0.17767 0.57994 0.25728 0.0
H197 H 0.78589 0.69215 0.70805 0.0
H198 H 0.21786 0.6763 0.7489 0.0
N199 N 0.97221 0.66556 0.5787 0.0
C200 C 0.80315 0.67942 0.6098 0.0
C201 C 0.82465 0.6727 0.56021 0.0
C202 C 0.86813 0.67953 0.64404 0.0
C203 C 0.95352 0.67251 0.62715 0.0
C204 C 0.91043 0.666 0.54531 0.0
N205 N 0.10381 0.66673 0.64235 0.0
C206 C 1.02156 0.67325 0.66 0.0
C207 C 0.16206 0.67551 0.7243 0.0
C208 C 0.07775 0.68212 0.74281 0.0
C209 C 0.1743 0.66793 0.67384 0.0
C210 C 1.00605 0.68099 0.71069 0.0
H211 H 0.06872 0.68807 0.78195 0.0
O212 O 0.22764 0.67107 0.56209 0.0
O213 O 0.21753 0.63652 0.51271 0.0
O214 O 0.17528 0.62229 0.56339 0.0
O215 O 0.08535 0.64334 0.60352 0.0
O216 O 0.26737 0.65293 0.57611 0.0
O217 O 0.09374 0.67422 0.53844 0.0
O218 O 0.06013 0.5945 0.46656 0.0
O219 O 0.04655 0.63354 0.51827 0.0
O220 O 0.07464 0.64802 0.47764 0.0
O221 O 0.14633 0.62537 0.42977 0.0
O222 O 0.98693 0.61364 0.47558 0.0
O223 O 0.1826 0.5983 0.51057 0.0
C224 C 0.28958 0.64081 0.53918 0.0
C225 C 0.92018 0.68755 0.7277 0.0
C226 C 0.85129 0.68681 0.69444 0.0
C227 C 0.17523 0.67986 0.5511 0.0
C228 C 0.18153 0.696 0.58405 0.0
C229 C 0.18106 0.7006 0.63473 0.0
C230 C 0.19321 0.70683 0.56527 0.0
C231 C 0.20668 0.72214 0.59708 0.0
C232 C 0.19429 0.71554 0.66626 0.0
C233 C 0.20814 0.72617 0.64781 0.0
C234 C 0.12734 0.63127 0.60188 0.0
C235 C 0.96854 0.6273 0.50405 0.0
C236 C 0.11222 0.58962 0.49188 0.0
C237 C 0.06617 0.58381 0.52393 0.0
C238 C 1.01947 0.5935 0.56589 0.0
C239 C 0.07239 0.56849 0.51368 0.0
C240 C 1.03466 0.56299 0.54601 0.0
C241 C 0.9829 0.58818 0.59829 0.0
C242 C 0.99097 0.57307 0.58871 0.0
C243 C 0.10459 0.63791 0.43499 0.0
H244 H 0.17264 0.69258 0.65008 0.0
H245 H 0.19199 0.70326 0.5261 0.0
H246 H 0.19549 0.71888 0.70532 0.0
H247 H 0.22189 0.73752 0.67377 0.0
H248 H 1.01208 0.60521 0.57376 0.0
H249 H 0.10783 0.56092 0.48106 0.0
H250 H 0.94807 0.59579 0.63098 0.0
H251 H 0.96121 0.56918 0.61416 0.0
Gd252 Gd 0.90491 0.40402 0.54204 0.0
Gd253 Gd 0.92861 0.36339 0.47171 0.0
C254 C 0.19017 0.33864 0.39824 0.0
C255 C 0.15103 0.32901 0.31216 0.0
C256 C 0.04077 0.34386 0.37406 0.0
C257 C 0.1036 0.34564 0.41038 0.0
C258 C 0.06309 0.33528 0.32456 0.0
C259 C 0.2144 0.33066 0.34895 0.0
C260 C 0.24837 0.33935 0.43598 0.0
C261 C 0.21914 0.34665 0.4843 0.0
N262 N 0.07773 0.35328 0.45766 0.0
C263 C 0.13259 0.35335 0.49445 0.0
H264 H 0.11039 0.35869 0.53197 0.0
C265 C 0.8884 0.34697 0.35302 0.0
N266 N 0.95596 0.3499 0.38733 0.0
C267 C 0.90736 0.33853 0.30353 0.0
C268 C 0.99539 0.33281 0.28915 0.0
H269 H 0.82011 0.35132 0.3636 0.0
H270 H 0.28103 0.32538 0.33896 0.0
H271 H 0.77116 0.40355 0.44926 0.0
H272 H 0.31488 0.33396 0.42817 0.0
H273 H 0.26291 0.34703 0.51375 0.0
H274 H 0.16974 0.32251 0.27431 0.0
H275 H 0.93197 0.4195 0.6642 0.0
H276 H 0.50878 0.42119 0.50705 0.0
H277 H 0.61575 0.41071 0.43729 0.0
H278 H 0.53715 0.43379 0.67749 0.0
H279 H 0.85408 0.33647 0.27648 0.0
H280 H 1.00981 0.32626 0.25077 0.0
H281 H 0.4783 0.42888 0.59582 0.0
H282 H 0.83648 0.43089 0.7384 0.0
N283 N 0.75457 0.4097 0.52564 0.0
C284 C 0.57726 0.41795 0.51259 0.0
C285 C 0.63765 0.41214 0.47326 0.0
C286 C 0.60659 0.41987 0.55892 0.0
C287 C 0.69737 0.41585 0.5646 0.0
C288 C 0.72643 0.4081 0.48042 0.0
N289 N 0.81974 0.41557 0.61519 0.0
C290 C 0.73048 0.41863 0.61057 0.0
C291 C 0.80541 0.42732 0.70269 0.0
C292 C 0.71183 0.42943 0.69836 0.0
C293 C 0.85905 0.42076 0.66061 0.0
C294 C 0.67372 0.42547 0.65203 0.0
H295 H 0.67048 0.43467 0.73102 0.0
O296 O 0.97086 0.42511 0.58686 0.0
O297 O 1.00557 0.38532 0.5049 0.0
O298 O 0.95885 0.36985 0.55148 0.0
O299 O 0.89829 0.39365 0.5961 0.0
O300 O 0.0501 0.40304 0.56729 0.0
O301 O 0.91589 0.42158 0.51622 0.0
O302 O 0.82734 0.34564 0.45354 0.0
O303 O 0.82985 0.38211 0.51321 0.0
O304 O 0.92288 0.39806 0.46117 0.0
O305 O 0.9659 0.37309 0.41836 0.0
O306 O 0.782 0.36581 0.44932 0.0
O307 O 0.9403 0.34662 0.50088 0.0
C308 C 0.07532 0.39047 0.53294 0.0
C309 C 0.58197 0.42871 0.64615 0.0
C310 C 0.54856 0.42596 0.59969 0.0
C311 C 0.95891 0.43074 0.55519 0.0
C312 C 1.03437 0.43981 0.54888 0.0
C313 C 0.12635 0.43641 0.55354 0.0
C314 C 1.01371 0.45272 0.54165 0.0
C315 C 0.08415 0.46243 0.54081 0.0
C316 C 0.19632 0.44593 0.55227 0.0
C317 C 0.17547 0.45892 0.54648 0.0
C318 C 0.93105 0.38075 0.59276 0.0
C319 C 0.75863 0.37785 0.48626 0.0
C320 C 0.86893 0.33908 0.4774 0.0
C321 C 0.87865 0.32261 0.45219 0.0
C322 C 0.90435 0.31573 0.40287 0.0
C323 C 0.85991 0.3136 0.47716 0.0
C324 C 0.86577 0.29781 0.45283 0.0
C325 C 0.91089 0.30021 0.37874 0.0
C326 C 0.89166 0.29131 0.40332 0.0
C327 C 0.95008 0.3866 0.42085 0.0
H328 H 0.14405 0.42656 0.55895 0.0
H329 H 0.94284 0.45544 0.53812 0.0
H330 H 0.26704 0.44329 0.55624 0.0
H331 H 0.23084 0.46615 0.5458 0.0
H332 H 0.91874 0.32232 0.38281 0.0
H333 H 0.83932 0.31887 0.51517 0.0
H334 H 0.93096 0.29504 0.3407 0.0
H335 H 0.89856 0.27931 0.38366 0.0
Gd336 Gd 0.58226 0.85975 0.97352 0.0
Gd337 Gd 0.61123 0.90071 0.0337 0.0
C338 C 0.85459 0.9249 0.12874 0.0
C339 C 0.78816 0.93499 0.21021 0.0
C340 C 0.6942 0.9205 0.13944 0.0
C341 C 0.76931 0.91839 0.10911 0.0
C342 C 0.70284 0.92876 0.19034 0.0
C343 C 0.8638 0.93309 0.17948 0.0
C344 C 0.92755 0.92321 0.09668 0.0
C345 C 0.91351 0.9156 0.04638 0.0
N346 N 0.75846 0.91026 0.06031 0.0
C347 C 0.82749 0.90939 0.02872 0.0
H348 H 0.81649 0.90368 0.98975 0.0
C349 C 0.53714 0.91582 0.14749 0.0
N350 N 0.61307 0.91409 0.11913 0.0
C351 C 0.54243 0.92391 0.19819 0.0
C352 C 0.62562 0.9304 0.21974 0.0
H353 H 0.47295 0.91066 0.13123 0.0
H354 H 0.92892 0.9381 0.19527 0.0
H355 H 0.40882 0.85698 0.0417 0.0
H356 H 0.99423 0.92801 0.11028 0.0
H357 H 0.96879 0.91452 0.02121 0.0
H358 H 0.79627 0.94134 0.24926 0.0
H359 H 0.67567 0.84531 0.86203 0.0
H360 H 0.18371 0.83518 0.94802 0.0
H361 H 0.25086 0.84726 0.03075 0.0
H362 H 0.30729 0.82146 0.7878 0.0
H363 H 0.48247 0.92508 0.22064 0.0
H364 H 0.62954 0.93661 0.25904 0.0
H365 H 0.20454 0.82594 0.85726 0.0
H366 H 0.62781 0.83072 0.77639 0.0
N367 N 0.43003 0.85114 0.96611 0.0
C368 C 0.25281 0.8396 0.95261 0.0
C369 C 0.29063 0.84634 -0.00066 0.0
C370 C 0.30588 0.83814 0.91222 0.0
C371 C 0.39564 0.84402 0.92028 0.0
C372 C 0.3803 0.85188 0.00538 0.0
N373 N 0.54169 0.8461 0.89089 0.0
C374 C 0.4534 0.84141 0.88129 0.0
C375 C 0.57798 0.8337 0.80554 0.0
C376 C 0.48648 0.82933 0.79493 0.0
C377 C 0.60487 0.84195 0.85405 0.0
C378 C 0.42317 0.83296 0.83304 0.0
H379 H 0.46599 0.82282 0.75736 0.0
O380 O 0.67431 0.84066 0.95283 0.0
O381 O 0.68355 0.87861 0.00727 0.0
O382 O 0.63816 0.89066 0.9522 0.0
O383 O 0.5465 0.86951 0.91973 0.0
O384 O 0.72989 0.86054 0.94831 0.0
O385 O 0.57599 0.84491 0.01035 0.0
O386 O 0.544 0.9219 0.04961 0.0
O387 O 0.51144 0.88177 0.00616 0.0
O388 O 0.55904 0.86934 0.05626 0.0
O389 O 0.64743 0.89095 0.08666 0.0
O390 O 0.45493 0.90229 0.04215 0.0
O391 O 0.65225 0.91404 0.9953 0.0
C392 C 0.75431 0.87345 0.9808 0.0
C393 C 0.33211 0.82785 0.82463 0.0
C394 C 0.27362 0.8304 0.86419 0.0
C395 C 0.63789 0.83574 0.98267 0.0
C396 C 0.61437 0.81964 0.96176 0.0
C397 C 0.54989 0.81391 0.92394 0.0
C398 C 0.65555 0.80988 0.97937 0.0
C399 C 0.63114 0.79455 0.95947 0.0
C400 C 0.52599 0.79885 0.904 0.0
C401 C 0.56607 0.78924 0.9215 0.0
C402 C 0.58748 0.88102 0.91637 0.0
C403 C 0.43443 0.8884 0.01865 0.0
C404 C 0.59168 0.92448 0.01729 0.0
C405 C 0.5406 0.93014 0.98639 0.0
C406 C 0.4768 0.92102 0.95208 0.0
C407 C 0.55606 0.94481 0.99118 0.0
C408 C 0.5083 0.9504 0.96162 0.0
C409 C 0.42974 0.92639 0.92249 0.0
C410 C 0.44508 0.94093 0.92716 0.0
C411 C 0.60531 0.87989 0.09219 0.0
H412 H 0.51811 0.82105 0.90962 0.0
H413 H 0.70523 0.81423 0.00874 0.0
H414 H 0.47631 0.79458 0.87465 0.0
H415 H 0.54696 0.77754 0.9047 0.0
H416 H 0.46371 0.90976 0.94811 0.0
H417 H 0.60605 0.95177 0.01752 0.0
H418 H 0.38072 0.91927 0.89593 0.0
H419 H 0.40609 0.94482 0.90426 0.0
Gd420 Gd 0.50712 0.11275 0.98721 0.0
Gd421 Gd 0.52036 0.15241 0.0197 0.0
C422 C 0.80866 0.17214 0.05569 0.0
C423 C 0.79408 0.18951 0.14104 0.0
C424 C 0.66336 0.1746 0.09708 0.0
C425 C 0.7167 0.16769 0.0558 0.0
C426 C 0.7005 0.18598 0.13962 0.0
C427 C 0.84807 0.18262 0.09906 0.0
C428 C 0.85598 0.16679 0.01128 0.0
C429 C 0.80977 0.15803 0.96814 0.0
N430 N 0.67517 0.15815 0.01402 0.0
C431 C 0.71852 0.15391 0.97015 0.0
H432 H 0.68337 0.14716 0.93665 0.0
C433 C 0.5137 0.17978 0.1302 0.0
N434 N 0.57269 0.17124 0.09391 0.0
C435 C 0.54724 0.19122 0.17308 0.0
C436 C 0.64137 0.19411 0.17828 0.0
H437 H 0.44095 0.17745 0.12652 0.0
H438 H 0.91886 0.18606 0.09983 0.0
H439 H 0.44913 0.10727 0.08896 0.0
H440 H 0.92661 0.16996 0.0096 0.0
H441 H 0.84455 0.15433 0.93334 0.0
H442 H 0.82422 0.19809 0.17358 0.0
H443 H 0.44581 0.10204 0.8682 0.0
H444 H 0.16362 0.09832 0.08463 0.0
H445 H 0.31195 0.10337 0.12804 0.0
H446 H 0.0785 0.08977 0.92249 0.0
H447 H 0.5006 0.19772 0.20218 0.0
H448 H 0.66718 0.203 0.21146 0.0
H449 H 0.0782 0.09285 0.00744 0.0
H450 H 0.30979 0.09416 0.81728 0.0
N451 N 0.3793 0.10749 0.02701 0.0
C452 C 0.22362 0.10073 0.06798 0.0
C453 C 0.30688 0.10369 0.09271 0.0
C454 C 0.22021 0.09993 0.02074 0.0
C455 C 0.30033 0.10326 0.00073 0.0
C456 C 0.38467 0.1065 0.07091 0.0
N457 N 0.37831 0.10472 0.93431 0.0
C458 C 0.30038 0.10155 0.95283 0.0
C459 C 0.3055 0.09646 0.85559 0.0
C460 C 0.22368 0.09409 0.87491 0.0
C461 C 0.3827 0.10145 0.88552 0.0
C462 C 0.22067 0.09634 0.92374 0.0
H463 H 0.16398 0.09017 0.85156 0.0
O464 O 0.56254 0.09351 0.92627 0.0
O465 O 0.60515 0.13127 0.99477 0.0
O466 O 0.51103 0.14008 0.93772 0.0
O467 O 0.55996 0.11611 0.92176 0.0
O468 O 0.64743 0.11661 0.02322 0.0
O469 O 0.53306 0.09178 0.99461 0.0
O470 O 0.43024 0.17157 0.0334 0.0
O471 O 0.423 0.13273 0.99454 0.0
O472 O 0.52363 0.12455 0.0696 0.0
O473 O 0.54933 0.14983 0.08937 0.0
O474 O 0.38222 0.15184 0.05336 0.0
O475 O 0.52259 0.16404 0.97248 0.0
C476 C 0.67266 0.12807 0.01588 0.0
C477 C 0.14042 0.09353 0.9441 0.0
C478 C 0.14012 0.09537 0.99254 0.0
C479 C 0.56265 0.08513 0.94993 0.0
C480 C 0.59643 0.06947 0.92713 0.0
C481 C 0.65227 0.06502 0.88549 0.0
C482 C 0.57339 0.05887 0.9456 0.0
C483 C 0.60509 0.04392 0.92194 0.0
C484 C 0.68491 0.05043 0.86267 0.0
C485 C 0.66178 0.03998 0.88062 0.0
C486 C 0.54208 0.12685 0.90758 0.0
C487 C 0.35675 0.13855 0.02416 0.0
C488 C 0.46723 0.17463 -0.0005 0.0
C489 C 0.50044 0.19019 0.01403 0.0
C490 C 0.59459 0.19331 0.02214 0.0
C491 C 0.43977 0.20201 0.01967 0.0
C492 C 0.47366 0.21674 0.03473 0.0
C493 C 0.62774 0.2078 0.03745 0.0
C494 C 0.56784 0.21945 0.044 0.0
C495 C 0.54293 0.13839 0.10125 0.0
H496 H 0.67143 0.07287 0.87059 0.0
H497 H 0.52948 0.06214 0.97737 0.0
H498 H 0.72856 0.04719 0.83085 0.0
H499 H 0.68947 0.0288 0.86228 0.0
H500 H 0.64331 0.18454 0.01611 0.0
H501 H 0.36714 0.1998 0.01275 0.0
H502 H 0.70045 0.20998 0.04382 0.0
H503 H 0.59552 0.23061 0.05533 0.0
Gd504 Gd 0.6412 0.1547 0.5421 0.0
Gd505 Gd 0.66949 0.11406 0.47306 0.0
C506 C 0.94776 0.09352 0.41004 0.0
C507 C 0.92127 0.08405 0.32269 0.0
C508 C 0.79953 0.09687 0.38017 0.0
C509 C 0.85791 0.09937 0.41878 0.0
C510 C 0.82943 0.08868 0.33168 0.0
C511 C 0.98026 0.08638 0.36186 0.0
C512 C 1.00005 0.09411 0.44966 0.0
C513 C 0.96122 0.09987 0.49616 0.0
N514 N 0.82288 0.10573 0.46464 0.0
C515 C 0.87153 0.10538 0.50283 0.0
H516 H 0.84245 0.10961 0.53897 0.0
C517 C 0.6456 0.09544 0.35422 0.0
N518 N 0.71015 0.10069 0.39037 0.0
C519 C 0.67201 0.08751 0.30545 0.0
C520 C 0.76467 0.08443 0.294 0.0
H521 H 0.57386 0.09786 0.36292 0.0
H522 H 0.04955 0.08203 0.35448 0.0
H523 H 0.46495 0.15807 0.47554 0.0
H524 H 0.06892 0.08958 0.44449 0.0
H525 H 1.0001 0.1 0.52687 0.0
H526 H 0.94589 0.07791 0.28568 0.0
H527 H 0.73488 0.16857 0.65358 0.0
H528 H 0.23652 0.17679 0.57038 0.0
H529 H 0.30529 0.16681 0.48784 0.0
H530 H 0.36242 0.18923 0.7294 0.0
H531 H 0.62091 0.08382 0.27678 0.0
H532 H 0.78484 0.07814 0.25627 0.0
H533 H 0.25806 0.18485 0.66058 0.0
H534 H 0.68605 0.18195 0.7396 0.0
N535 N 0.4876 0.16285 0.55039 0.0
C536 C 0.30711 0.17301 0.56528 0.0
C537 C 0.34563 0.1674 0.51867 0.0
C538 C 0.3614 0.17427 0.60504 0.0
C539 C 0.45288 0.16916 0.59632 0.0
C540 C 0.43666 0.16248 0.51189 0.0
N541 N 0.60042 0.16752 0.62496 0.0
C542 C 0.5113 0.17161 0.63495 0.0
C543 C 0.63613 0.17905 0.7105 0.0
C544 C 0.54388 0.18279 0.72142 0.0
C545 C 0.66358 0.1715 0.66178 0.0
C546 C 0.48028 0.17923 0.68345 0.0
H547 H 0.52287 0.18871 0.75919 0.0
O548 O 0.72902 0.17444 0.56727 0.0
O549 O 0.7442 0.13619 0.5035 0.0
O550 O 0.69629 0.12222 0.55442 0.0
O551 O 0.61065 0.14386 0.59312 0.0
O552 O 0.78697 0.15375 0.5666 0.0
O553 O 0.63336 0.17036 0.50864 0.0
O554 O 0.58472 0.09396 0.44823 0.0
O555 O 0.56941 0.13259 0.51139 0.0
O556 O 0.61743 0.14741 0.46131 0.0
O557 O 0.68623 0.12414 0.41857 0.0
O558 O 0.51986 0.11524 0.45116 0.0
O559 O 0.67332 0.0993 0.51016 0.0
C560 C 0.81349 0.14142 0.5318 0.0
C561 C 0.38786 0.18353 0.69237 0.0
C562 C 0.32844 0.18103 0.65319 0.0
C563 C 0.69328 0.17961 0.53785 0.0
C564 C 0.66748 0.19563 0.5595 0.0
C565 C 0.59921 0.2008 0.59549 0.0
C566 C 0.71077 0.20588 0.54463 0.0
C567 C 0.68666 0.22119 0.56662 0.0
C568 C 0.5746 0.21585 0.61677 0.0
C569 C 0.61825 0.22599 0.6027 0.0
C570 C 0.65114 0.13184 0.59284 0.0
C571 C 0.49716 0.12791 0.48564 0.0
C572 C 0.61894 0.08935 0.47932 0.0
C573 C 0.65213 0.07368 0.45934 0.0
C574 C 0.71429 0.06864 0.42029 0.0
C575 C 0.62485 0.06379 0.47985 0.0
C576 C 0.66155 0.04914 0.46183 0.0
C577 C 0.75054 0.05427 0.40247 0.0
C578 C 0.72483 0.04461 0.42312 0.0
C579 C 0.65138 0.13683 0.42097 0.0
H580 H 0.5651 0.19324 0.60738 0.0
H581 H 0.76394 0.20205 0.51699 0.0
H582 H 0.52189 0.21969 0.64458 0.0
H583 H 0.59865 0.23766 0.62012 0.0
H584 H 0.73499 0.07579 0.4034 0.0
H585 H 0.57659 0.06751 0.50993 0.0
H586 H 0.79862 0.05059 0.37236 0.0
H587 H 0.75322 0.03342 0.40807 0.0
Gd588 Gd 0.43738 0.90229 0.53269 0.0
Gd589 Gd 0.46281 0.86119 0.47973 0.0
C590 C 0.73205 0.83907 0.40879 0.0
C591 C 0.69093 0.82707 0.32277 0.0
C592 C 0.57649 0.84085 0.38366 0.0
C593 C 0.6417 0.84455 0.42014 0.0
C594 C 0.59984 0.83187 0.33465 0.0
C595 C 0.75688 0.83064 0.3598 0.0
C596 C 0.79367 0.84176 0.44714 0.0
C597 C 0.76345 0.84922 0.49532 0.0
N598 N 0.61541 0.85273 0.46705 0.0
C599 C 0.67318 0.85447 0.50465 0.0
H600 H 0.6507 0.86029 0.54205 0.0
C601 C 0.42002 0.84083 0.36261 0.0
N602 N 0.48912 0.84567 0.39646 0.0
C603 C 0.43998 0.83202 0.31345 0.0
C604 C 0.53049 0.8277 0.29928 0.0
H605 H 0.35015 0.84431 0.37348 0.0
H606 H 0.82625 0.82649 0.3503 0.0
H607 H 0.32766 0.89456 0.42584 0.0
H608 H 0.8637 0.83775 0.44002 0.0
H609 H 0.80965 0.85098 0.52529 0.0
H610 H 0.71049 0.82028 0.28526 0.0
H611 H 0.43567 0.92167 0.65492 0.0
H612 H 0.0644 0.91516 0.45866 0.0
H613 H 0.18216 0.90075 0.39842 0.0
H614 H 0.05619 0.93829 0.63298 0.0
H615 H 0.38566 0.82862 0.2865 0.0
H616 H 0.54571 0.82086 0.26118 0.0
H617 H 1.01805 0.92899 0.5459 0.0
H618 H 0.32711 0.9366 0.71967 0.0
N619 N 0.29458 0.90526 0.50166 0.0
C620 C 0.12869 0.91248 0.47114 0.0
C621 C 0.19504 0.90439 0.43705 0.0
C622 C 0.14662 0.91725 0.52094 0.0
C623 C 0.23142 0.91347 0.53544 0.0
C624 C 0.27798 0.90087 0.45295 0.0
N625 N 0.33702 0.91564 0.59772 0.0
C626 C 0.25274 0.91862 0.58473 0.0
C627 C 0.30473 0.93142 0.68199 0.0
C628 C 0.21601 0.9338 0.66959 0.0
C629 C 0.36552 0.92272 0.64527 0.0
C630 C 0.18997 0.92779 0.62044 0.0
H631 H 0.16958 0.94082 0.69801 0.0
O632 O 0.51119 0.92318 0.57227 0.0
O633 O 0.53657 0.88321 0.50287 0.0
O634 O 0.49233 0.87144 0.56129 0.0
O635 O 0.42587 0.89521 0.59421 0.0
O636 O 0.58307 0.90202 0.5605 0.0
O637 O 0.43794 0.91948 0.50577 0.0
O638 O 0.38889 0.84042 0.46173 0.0
O639 O 0.36348 0.8804 0.50681 0.0
O640 O 0.48068 0.89412 0.4535 0.0
O641 O 0.48506 0.86796 0.4172 0.0
O642 O 0.3087 0.85986 0.4667 0.0
O643 O 0.48117 0.84863 0.52361 0.0
C644 C 0.60698 0.88879 0.5295 0.0
C645 C 0.10508 0.93129 0.60603 0.0
C646 C 0.08344 0.92603 0.55644 0.0
C647 C 0.49082 0.92847 0.54047 0.0
C648 C 0.56476 0.93562 0.52463 0.0
C649 C 0.64487 0.92774 0.50345 0.0
C650 C 0.552 0.95015 0.52768 0.0
C651 C 0.61824 0.95682 0.50885 0.0
C652 C 0.71115 0.93422 0.48511 0.0
C653 C 0.69792 0.94854 0.48739 0.0
C654 C 0.46272 0.88359 0.59856 0.0
C655 C 0.28712 0.87363 0.49146 0.0
C656 C 0.42137 0.83841 0.49875 0.0
C657 C 0.35384 0.83419 0.52712 0.0
C658 C 0.28702 0.84444 0.55484 0.0
C659 C 0.35409 0.81964 0.52509 0.0
C660 C 0.2864 0.81513 0.54979 0.0
C661 C 0.22015 0.84017 0.57946 0.0
C662 C 0.2191 0.82567 0.57667 0.0
C663 C 0.49141 0.88109 0.41533 0.0
H664 H 0.65539 0.91651 0.50037 0.0
H665 H 0.49005 0.95617 0.54454 0.0
H666 H 0.77248 0.92801 0.46826 0.0
H667 H 0.74955 0.95293 0.47121 0.0
H668 H 0.286 0.85568 0.55696 0.0
H669 H 0.40731 0.81193 0.50432 0.0
H670 H 0.16797 0.8481 0.60032 0.0
H671 H 0.16413 0.82271 0.59502 0.0
H672 H 0.41154 0.36923 0.92308 0.0
H673 H 0.33921 0.38487 0.07577 0.0
H674 H 0.50389 0.38858 0.09794 0.0
H675 H 0.61288 0.34911 0.92783 0.0
H676 H 0.68259 0.35384 0.88694 0.0
H677 H 0.55953 0.35295 0.88064 0.0
H678 H 0.54981 0.38006 0.88971 0.0
H679 H 0.6733 0.38056 0.89153 0.0
H680 H 0.60875 0.39462 0.93979 0.0
H681 H 0.67874 0.39142 0.10415 0.0
H682 H 0.8458 0.39341 0.09424 0.0
H683 H 0.81155 0.3753 0.93742 0.0
C684 C 0.43041 0.37358 0.96127 0.0
C685 C 0.36087 0.37719 -0.00216 0.0
C686 C 0.3897 0.38243 0.04713 0.0
C687 C 0.48372 0.38447 0.06001 0.0
C688 C 0.5501 0.38105 0.02331 0.0
C689 C 0.52469 0.37576 0.97483 0.0
C690 C 0.61032 0.37281 0.94255 0.0
C691 C 0.61681 0.35619 0.90741 0.0
C692 C 0.6104 0.3826 0.91423 0.0
C693 C 0.68781 0.37738 0.98035 0.0
C694 C 0.65105 0.38207 0.02673 0.0
C695 C 0.70776 0.38753 0.0679 0.0
C696 C 0.80327 0.3885 0.06189 0.0
C697 C 0.84382 0.38381 0.01503 0.0
C698 C 0.78423 0.37824 0.97365 0.0
H699 H 0.29017 0.63812 0.09765 0.0
H700 H 0.23812 0.62485 0.94386 0.0
H701 H 0.40479 0.62587 0.92949 0.0
H702 H 0.48617 0.66314 0.11041 0.0
H703 H 0.54683 0.65731 0.15145 0.0
H704 H 0.42324 0.65676 0.14943 0.0
H705 H 0.43022 0.62888 0.1329 0.0
H706 H 0.55384 0.62896 0.13205 0.0
H707 H 0.49106 0.61589 0.08022 0.0
H708 H 0.58002 0.62991 0.9331 0.0
H709 H 0.74615 0.63297 0.95175 0.0
H710 H 0.68934 0.64068 0.10114 0.0
C711 C 0.31386 0.63576 0.06115 0.0
C712 C 0.24977 0.63223 0.0223 0.0
C713 C 0.28465 0.62833 0.97463 0.0
C714 C 0.3797 0.62878 0.9661 0.0
C715 C 0.44075 0.63271 0.00533 0.0
C716 C 0.40919 0.63594 0.05187 0.0
C717 C 0.48985 0.63889 0.08705 0.0
C718 C 0.48628 0.65498 0.12697 0.0
C719 C 0.49135 0.62748 0.10939 0.0
C720 C 0.57166 0.63675 0.05314 0.0
C721 C 0.54159 0.63348 0.00631 0.0
C722 C 0.6039 0.63203 0.96937 0.0
C723 C 0.69871 0.6336 0.98011 0.0
C724 C 0.73217 0.6361 0.02703 0.0
C725 C 0.66678 0.63807 0.06426 0.0
H726 H 0.83803 0.63529 0.57925 0.0
H727 H 0.87696 0.6304 0.43117 0.0
H728 H 0.7099 0.63302 0.42306 0.0
H729 H 0.63445 0.61438 0.55702 0.0
H730 H 0.57671 0.62575 0.61327 0.0
H731 H 0.70021 0.62524 0.61096 0.0
H732 H 0.71009 0.65414 0.64068 0.0
H733 H 0.58704 0.65443 0.64703 0.0
H734 H 0.63958 0.66283 0.61083 0.0
H735 H 0.5329 0.63371 0.428 0.0
H736 H 0.36743 0.63541 0.44944 0.0
H737 H 0.43961 0.64093 0.59522 0.0
C738 C 0.81175 0.63543 0.54591 0.0
C739 C 0.87247 0.63328 0.50648 0.0
C740 C 0.83338 0.63262 0.46254 0.0
C741 C 0.73787 0.63394 0.45742 0.0
C742 C 0.67986 0.63581 0.49642 0.0
C743 C 0.71556 0.63686 0.54028 0.0
C744 C 0.63737 0.63839 0.57589 0.0
C745 C 0.6372 0.62515 0.59013 0.0
C746 C 0.64405 0.65333 0.62132 0.0
C747 C 0.55274 0.63802 0.54536 0.0
C748 C 0.57869 0.63634 0.49935 0.0
C749 C 0.5124 0.63519 0.4642 0.0
C750 C 0.41804 0.63607 0.47653 0.0
C751 C 0.38936 0.63814 0.52383 0.0
C752 C 0.45864 0.63922 0.55858 0.0
H753 H 0.60296 0.37581 0.42982 0.0
H754 H 0.68492 0.38515 0.57779 0.0
H755 H 0.52142 0.3876 0.60239 0.0
H756 H 0.40097 0.40217 0.46421 0.0
H757 H 0.33819 0.38968 0.41161 0.0
H758 H 0.46178 0.39 0.40995 0.0
H759 H 0.45288 0.36147 0.38326 0.0
H760 H 0.3306 0.36153 0.39222 0.0
H761 H 0.40675 0.35439 0.42456 0.0
H762 H 0.34742 0.38877 0.61125 0.0
H763 H 0.17967 0.39067 0.60627 0.0
H764 H 0.2017 0.38116 0.45283 0.0
C765 C 0.58645 0.37853 0.46758 0.0
C766 C 0.65844 0.38057 0.50209 0.0
C767 C 0.63264 0.38383 0.55079 0.0
C768 C 0.53928 0.38516 0.56501 0.0
C769 C 0.47052 0.38318 0.53031 0.0
C770 C 0.49286 0.38018 0.48266 0.0
C771 C 0.40495 0.37875 0.45284 0.0
C772 C 0.40144 0.39087 0.43349 0.0
C773 C 0.39824 0.3631 0.41071 0.0
C774 C 0.32947 0.38128 0.49097 0.0
C775 C 0.36968 0.38376 0.53532 0.0
C776 C 0.31586 0.38679 0.57662 0.0
C777 C 0.21979 0.38776 0.57331 0.0
C778 C 0.17533 0.38569 0.52904 0.0
C779 C 0.23194 0.3823 0.48698 0.0
H780 H 0.90614 0.87221 0.92328 0.0
H781 H 0.83087 0.88124 0.07188 0.0
H782 H 0.99523 0.88406 0.09505 0.0
H783 H 0.10754 0.85156 0.91381 0.0
H784 H 0.17791 0.85963 0.88192 0.0
H785 H 0.05503 0.85897 0.87484 0.0
H786 H 0.04308 0.88729 0.90302 0.0
H787 H 0.16645 0.88832 0.9068 0.0
H788 H 0.09798 0.89967 0.95899 0.0
H789 H 0.17097 0.88569 0.10217 0.0
H790 H 0.33836 0.88819 0.09479 0.0
H791 H 0.30539 0.87874 0.94209 0.0
C792 C 0.92429 0.87491 0.96083 0.0
C793 C 0.85419 0.87664 -0.00415 0.0
C794 C 0.88189 0.88005 0.04444 0.0
C795 C 0.97573 0.88159 0.05785 0.0
C796 C 0.04284 0.87978 0.02252 0.0
C797 C 1.01816 0.8768 0.97513 0.0
C798 C 0.10395 0.87598 0.94474 0.0
C799 C 0.11168 0.86062 0.90125 0.0
C800 C 0.10278 0.88856 0.92736 0.0
C801 C 0.18111 0.87845 0.98183 0.0
C802 C 0.14383 0.88067 0.02655 0.0
C803 C 0.20029 0.8838 0.06712 0.0
C804 C 0.296 0.88506 0.06248 0.0
C805 C 0.33701 0.88297 0.01742 0.0
C806 C 0.27771 0.87966 0.97651 0.0
H807 H 0.21259 0.14183 0.08793 0.0
H808 H 0.26962 0.13043 0.93568 0.0
H809 H 0.1035 0.12654 0.91709 0.0
H810 H 1.0194 0.11664 0.0729 0.0
H811 H 0.95696 0.1302 0.12361 0.0
H812 H 0.08047 0.13085 0.12277 0.0
H813 H 0.06825 0.15839 0.13526 0.0
H814 H 0.94472 0.15752 0.13261 0.0
H815 H 1.00789 0.16278 0.09093 0.0
H816 H 0.92874 0.12174 0.91415 0.0
H817 H 0.76222 0.12064 0.92897 0.0
H818 H 0.81349 0.13782 0.08432 0.0
C819 C 0.19013 0.13828 0.05052 0.0
C820 C 0.25563 0.13562 0.01273 0.0
C821 C 0.22215 0.13183 0.96487 0.0
C822 C 0.12737 0.1297 0.95406 0.0
C823 C 0.06509 0.13181 0.99168 0.0
C824 C 0.09509 0.13632 0.03922 0.0
C825 C 1.01319 0.1389 0.07347 0.0
C826 C 1.01785 0.12853 0.09974 0.0
C827 C 1.00818 0.15538 0.11028 0.0
C828 C 0.93263 0.1348 0.0378 0.0
C829 C 0.96433 0.13056 0.99066 0.0
C830 C 0.90353 0.12544 0.95111 0.0
C831 C 0.80858 0.12492 0.95988 0.0
C832 C 0.77337 0.12993 0.00798 0.0
C833 C 0.83729 0.13458 0.04728 0.0
H834 H 0.34325 0.12757 0.43007 0.0
H835 H 0.42303 0.13516 0.5769 0.0
H836 H 0.25943 0.13786 0.60125 0.0
H837 H 0.14751 0.1555 0.47232 0.0
H838 H 0.08057 0.14461 0.41897 0.0
H839 H 0.20409 0.14414 0.4156 0.0
H840 H 0.19307 0.11566 0.38148 0.0
H841 H 0.07068 0.11577 0.38976 0.0
H842 H 0.14508 0.10706 0.4181 0.0
H843 H 0.0853 0.13903 0.60955 0.0
H844 H 0.91765 0.14104 0.60436 0.0
H845 H 0.94186 0.13356 0.45273 0.0
C846 C 0.32623 0.12996 0.46753 0.0
C847 C 0.3976 0.13129 0.50169 0.0
C848 C 0.37125 0.13432 0.55014 0.0
C849 C 0.27779 0.13577 0.56421 0.0
C850 C 0.20956 0.13435 0.52976 0.0
C851 C 0.23263 0.13189 0.48265 0.0
C852 C 0.14541 0.13149 0.4535 0.0
C853 C 0.14441 0.14472 0.43924 0.0
C854 C 0.13793 0.1166 0.40803 0.0
C855 C 0.06915 0.13324 0.49064 0.0
C856 C 0.10867 0.13506 0.53454 0.0
C857 C 0.05425 0.13755 0.57525 0.0
C858 C 0.95825 0.13859 0.57182 0.0
C859 C 0.91429 0.13699 0.52788 0.0
C860 C 0.97161 0.13424 0.48646 0.0
H861 H 0.75963 0.89219 0.58885 0.0
H862 H 0.68219 0.87805 0.43736 0.0
H863 H 0.84576 0.87449 0.4136 0.0
H864 H 0.95369 0.91194 0.59069 0.0
H865 H 1.03179 0.90578 0.62507 0.0
H866 H 0.9098 0.90587 0.63481 0.0
H867 H 0.89862 0.8781 0.61402 0.0
H868 H 1.02218 0.87763 0.61113 0.0
H869 H 0.95598 0.86479 0.56049 0.0
H870 H 1.01891 0.87187 0.40558 0.0
H871 H 0.18606 0.86976 0.41281 0.0
H872 H 0.16009 0.8859 0.56958 0.0
C873 C 0.77722 0.88821 0.55059 0.0
C874 C 0.70667 0.8853 0.51491 0.0
C875 C 0.73351 0.88022 0.46539 0.0
C876 C 0.82692 0.87821 0.45158 0.0
C877 C 0.89442 0.88117 0.48749 0.0
C878 C 0.87079 0.88577 0.53594 0.0
C879 C 0.9574 0.88776 0.56693 0.0
C880 C 0.96383 0.9038 0.60674 0.0
C881 C 0.95855 0.8764 0.58949 0.0
C882 C 1.03384 0.8843 0.52879 0.0
C883 C 0.99505 0.88025 0.4831 0.0
C884 C 0.04963 0.87533 0.44132 0.0
C885 C 0.14528 0.8743 0.44587 0.0
C886 C 0.18863 0.87862 0.49193 0.0
C887 C 0.13094 0.88351 0.53409 0.0
H888 H 0.11295 0.5344 0.9539 0.0
H889 H 0.81657 0.53321 0.96401 0.0
H890 H 0.82855 0.51278 0.99052 0.0
H891 H 0.14675 0.49491 0.90571 0.0
H892 H 0.25097 0.49598 0.93914 0.0
H893 H 0.22008 0.51107 0.92336 0.0
H894 H 0.22949 0.52979 0.01442 0.0
H895 H 0.26111 0.51477 0.03043 0.0
H896 H 0.16347 0.52634 0.05913 0.0
H897 H 0.87193 0.49202 0.01391 0.0
H898 H 0.94399 0.47295 0.03525 0.0
H899 H 0.2125 0.4868 0.00729 0.0
C900 C 0.05081 0.52998 0.96247 0.0
C901 C 0.96375 0.53541 0.9569 0.0
C902 C 0.8839 0.52917 0.96773 0.0
C903 C 0.89001 0.51757 0.98288 0.0
C904 C 0.97655 0.51224 0.98699 0.0
C905 C 0.05564 0.51826 0.97732 0.0
C906 C 0.13991 0.51017 0.98347 0.0
C907 C 0.1925 0.50258 0.93503 0.0
C908 C 0.20216 0.52091 0.0243 0.0
C909 C 0.09574 0.4987 -0.00197 0.0
C910 C 1.00148 0.5001 -0.00012 0.0
C911 C 0.94576 0.49079 0.01248 0.0
C912 C 0.98743 0.47986 0.0241 0.0
C913 C 0.08417 0.47823 0.02293 0.0
C914 C 0.13852 0.48778 0.00922 0.0
H915 H 0.12447 0.4915 0.6025 0.0
H916 H 0.99901 0.46431 0.46296 0.0
H917 H 0.97604 0.48692 0.44785 0.0
H918 H 0.96949 0.52323 0.63272 0.0
H919 H 0.05742 0.53687 0.66282 0.0
H920 H 0.06423 0.51854 0.66204 0.0
H921 H 0.22622 0.51508 0.6236 0.0
H922 H 0.21956 0.53335 0.62387 0.0
H923 H 0.24208 0.51721 0.56763 0.0
H924 H 0.97605 0.51254 0.44614 0.0
H925 H 0.9808 0.53933 0.46226 0.0
H926 H 0.09583 0.55008 0.60554 0.0
C927 C 0.09166 0.49036 0.56892 0.0
C928 C 0.06365 0.47617 0.53373 0.0
C929 C 1.02047 0.47509 0.49039 0.0
C930 C 1.00768 0.48786 0.48145 0.0
C931 C 1.03704 0.50169 0.51662 0.0
C932 C 0.07657 0.50305 0.55993 0.0
C933 C 0.09928 0.51925 0.59246 0.0
C934 C 0.04431 0.5248 0.64034 0.0
C935 C 0.20295 0.52134 0.60246 0.0
C936 C 0.06762 0.52679 0.56049 0.0
C937 C 1.03292 0.51645 0.51663 0.0
C938 C 1.00228 0.52072 0.48056 0.0
C939 C 1.00577 0.53594 0.48986 0.0
C940 C 1.03835 0.54678 0.53513 0.0
C941 C 0.06992 0.54206 0.57072 0.0
H942 H 0.51594 0.96022 0.88858 0.0
H943 H 0.53415 0.97612 0.04597 0.0
H944 H 0.55456 1.00195 0.05398 0.0
H945 H 0.6836 0.98481 0.87647 0.0
H946 H 0.62254 0.98741 0.82873 0.0
H947 H 0.60895 0.97032 0.83593 0.0
H948 H 0.43301 0.97433 0.84312 0.0
H949 H 0.44607 0.99148 0.83614 0.0
H950 H 0.38728 0.99152 0.88871 0.0
H951 H 0.57324 0.02646 0.04413 0.0
H952 H 0.59686 0.04665 0.01683 0.0
H953 H 0.56062 0.01447 0.86647 0.0
C954 C 0.52329 0.96911 0.92487 0.0
C955 C 0.52315 0.96603 0.96665 0.0
C956 C 0.53501 0.97808 0.01327 0.0
C957 C 0.54589 0.99284 0.01824 0.0
C958 C 0.54478 0.99547 0.97628 0.0
C959 C 0.53407 0.98388 0.93047 0.0
C960 C 0.53688 0.98954 0.89096 0.0
C961 C 0.61781 0.98261 0.85598 0.0
C962 C 0.44535 0.98654 0.8631 0.0
C963 C 0.55138 1.0061 0.92152 0.0
C964 C 0.55535 0.00938 0.9707 0.0
C965 C 0.56993 0.02398 0.00567 0.0
C966 C 0.58261 0.03542 0.98986 0.0
C967 C 0.58114 0.03222 0.93947 0.0
C968 C 0.56345 0.01735 0.90524 0.0
H969 H 0.77347 0.0319 0.48988 0.0
H970 H 0.48716 0.04094 0.47487 0.0
H971 H 0.44266 0.01934 0.49196 0.0
H972 H 0.76214 0.99346 0.43008 0.0
H973 H 0.84155 0.98965 0.46918 0.0
H974 H 0.84996 1.00686 0.46237 0.0
H975 H 0.83636 0.02202 0.55605 0.0
H976 H 0.82916 1.00482 0.56327 0.0
H977 H 0.74057 0.01874 0.58802 0.0
H978 H 0.43215 0.99446 0.49896 0.0
H979 H 0.4548 0.97006 0.50156 0.0
H980 H 0.74846 0.97825 0.517 0.0
C981 C 0.70126 0.02955 0.4914 0.0
C982 C 0.63363 0.03813 0.48123 0.0
C983 C 0.53995 0.03465 0.48323 0.0
C984 C 0.5142 0.02234 0.4926 0.0
C985 C 0.58292 0.01377 0.50072 0.0
C986 C 0.67454 0.01743 0.50114 0.0
C987 C 0.73551 1.00608 0.50843 0.0
C988 C 0.80112 0.99857 0.46492 0.0
C989 C 0.78851 0.01335 0.55683 0.0
C990 C 0.66429 0.99515 0.51036 0.0
C991 C 0.57665 0.99977 0.50603 0.0
C992 C 0.50042 0.99093 0.50351 0.0
C993 C 0.51412 0.97705 0.50533 0.0
C994 C 0.60353 0.97204 0.50987 0.0
C995 C 0.67909 0.98147 0.51307 0.0
H996 H 0.20416 0.26903 0.93712 0.0
H997 H 0.23324 0.30506 0.08191 0.0
H998 H 0.30814 0.28758 0.11009 0.0
H999 H 0.1495 0.24024 0.97571 0.0
H1000 H 0.21265 0.22591 0.9272 0.0
H1001 H 0.16396 0.2413 0.91795 0.0
H1002 H 0.32368 0.24774 0.89436 0.0
H1003 H 0.37249 0.23222 0.90273 0.0
H1004 H 0.41895 0.25073 0.93551 0.0
H1005 H 0.37798 0.26592 0.12256 0.0
H1006 H 0.44967 0.24249 0.11655 0.0
H1007 H 0.37058 0.22038 0.96431 0.0
C1008 C 0.22615 0.27328 0.97483 0.0
C1009 C 0.21235 0.28848 0.00737 0.0
C1010 C 0.24379 0.29357 0.05614 0.0
C1011 C 0.28553 0.28366 0.07259 0.0
C1012 C 0.29551 0.26868 0.03984 0.0
C1013 C 0.26756 0.26356 0.99183 0.0
C1014 C 0.28725 0.247 0.96374 0.0
C1015 C 0.19801 0.23809 0.94506 0.0
C1016 C 0.35461 0.24427 0.9216 0.0
C1017 C 0.33094 0.24355 0.00339 0.0
C1018 C 0.33464 0.25621 0.0471 0.0
C1019 C 0.3749 0.25595 0.08861 0.0
C1020 C 0.41489 0.24258 0.08496 0.0
C1021 C 0.41417 0.22958 0.04024 0.0
C1022 C 0.36991 0.23003 -0.00076 0.0
H1023 H 0.54366 0.77274 0.97737 0.0
H1024 H 0.8128 0.79179 0.98008 0.0
H1025 H 0.88215 0.77212 0.00023 0.0
H1026 H 0.58171 0.76184 0.07665 0.0
H1027 H 0.51546 0.74493 0.048 0.0
H1028 H 0.48833 0.76093 0.03634 0.0
H1029 H 0.50522 0.74472 0.94336 0.0
H1030 H 0.53318 0.7287 0.95474 0.0
H1031 H 0.61065 0.73471 0.92003 0.0
H1032 H 0.92213 0.74898 0.0155 0.0
H1033 H 0.92696 0.7262 0.03091 0.0
H1034 H 0.63094 0.72257 0.01662 0.0
C1035 C 0.61725 0.77285 0.98237 0.0
C1036 C 0.6728 0.78382 0.97693 0.0
C1037 C 0.76866 0.78362 0.98448 0.0
C1038 C 0.80869 0.7724 0.99556 0.0
C1039 C 0.75193 0.76152 -0.00067 0.0
C1040 C 0.65805 0.7618 0.99346 0.0
C1041 C 0.61167 0.74884 -0.00113 0.0
C1042 C 0.54539 0.75447 0.04257 0.0
C1043 C 0.56229 0.73864 0.95143 0.0
C1044 C 0.69396 0.74109 0.00841 0.0
C1045 C 0.77447 0.74849 0.00841 0.0
C1046 C 0.85927 0.74318 0.01578 0.0
C1047 C 0.86148 0.73015 0.02413 0.0
C1048 C 0.77939 0.72259 0.0253 0.0
C1049 C 0.69493 0.72816 0.01675 0.0
H1050 H 0.16179 0.75227 0.64201 0.0
H1051 H 0.28695 0.71926 0.50993 0.0
H1052 H 0.31781 0.73907 0.48235 0.0
H1053 H 0.06202 0.77575 0.59203 0.0
H1054 H 0.08947 0.79282 0.64432 0.0
H1055 H 0.071 0.77585 0.65173 0.0
H1056 H 0.2308 0.77871 0.69233 0.0
H1057 H 0.24964 0.79571 0.68516 0.0
H1058 H 0.33103 0.78062 0.66045 0.0
H1059 H 0.33558 0.76311 0.46953 0.0
H1060 H 0.34207 0.7886 0.47381 0.0
H1061 H 0.22454 0.80587 0.61959 0.0
C1062 C 0.19686 0.74905 0.6075 0.0
C1063 C 0.22177 0.73396 0.57846 0.0
C1064 C 0.26515 0.73054 0.53285 0.0
C1065 C 0.28393 0.7418 0.51695 0.0
C1066 C 0.2602 0.75654 0.5472 0.0
C1067 C 0.21822 0.76015 0.59172 0.0
C1068 C 0.2031 0.77687 0.61862 0.0
C1069 C 0.10029 0.78053 0.62716 0.0
C1070 C 0.25686 0.78336 0.66699 0.0
C1071 C 0.24255 0.78214 0.58217 0.0
C1072 C 0.27447 0.77028 0.54099 0.0
C1073 C 0.31161 0.77247 0.50192 0.0
C1074 C 0.31583 0.7871 0.50497 0.0
C1075 C 0.28424 0.79953 0.54713 0.0
C1076 C 0.24801 0.79682 0.58628 0.0
H1077 H 0.77205 0.27094 0.4182 0.0
H1078 H 0.9178 0.30228 0.54553 0.0
H1079 H 0.89477 0.28543 0.58625 0.0
H1080 H 0.60381 0.25985 0.48424 0.0
H1081 H 0.60081 0.24065 0.43984 0.0
H1082 H 0.62873 0.25522 0.42101 0.0
H1083 H 0.78057 0.24166 0.38336 0.0
H1084 H 0.75355 0.22712 0.40254 0.0
H1085 H 0.86019 0.23721 0.42098 0.0
H1086 H 0.85586 0.26512 0.61327 0.0
H1087 H 0.79578 0.24367 0.62655 0.0
H1088 H 0.67788 0.22508 0.48134 0.0
C1089 C 0.79962 0.27425 0.45458 0.0
C1090 C 0.84712 0.288 0.47856 0.0
C1091 C 0.88043 0.29195 0.52651 0.0
C1092 C 0.86834 0.28236 0.54979 0.0
C1093 C 0.8225 0.26883 0.5248 0.0
C1094 C 0.78796 0.26482 0.47839 0.0
C1095 C 0.73933 0.2498 0.46004 0.0
C1096 C 0.63711 0.25149 0.45075 0.0
C1097 C 0.78624 0.23827 0.414 0.0
C1098 C 0.75232 0.24592 0.50327 0.0
C1099 C 0.80065 0.25706 0.5402 0.0
C1100 C 0.81857 0.25631 0.58446 0.0
C1101 C 0.78464 0.24405 0.59162 0.0
C1102 C 0.73384 0.23261 0.55469 0.0
C1103 C 0.71851 0.23348 0.50969 0.0
H1104 H 0.07362 0.36702 0.141 0.0
H1105 H 1.01583 0.41348 0.17396 0.0
H1106 H 0.98166 0.41827 0.25917 0.0
H1107 H 0.89411 0.36285 0.2162 0.0
H1108 H 0.96053 0.3508 0.23497 0.0
H1109 H 0.98221 0.35109 0.17674 0.0
H1110 H 0.15304 0.35729 0.2005 0.0
H1111 H 0.13129 0.35706 0.25893 0.0
H1112 H 0.18159 0.37335 0.25594 0.0
H1113 H 0.95168 0.41809 0.34051 0.0
H1114 H 0.92825 0.41305 0.41276 0.0
H1115 H 1.00736 0.36676 0.32844 0.0
C1116 C 0.054 0.37822 0.1661 0.0
C1117 C 0.04834 0.3899 0.15059 0.0
C1118 C 1.022 0.40437 0.18481 0.0
C1119 C 1.00206 0.40721 0.23338 0.0
C1120 C 1.00864 0.39548 0.24743 0.0
C1121 C 1.03411 0.38128 0.2149 0.0
C1122 C 1.03445 0.37063 0.23942 0.0
C1123 C 0.96359 0.3581 0.21541 0.0
C1124 C 0.13085 0.36421 0.23865 0.0
C1125 C 1.00598 0.38111 0.29093 0.0
C1126 C 0.99106 0.39537 0.29456 0.0
C1127 C 0.9633 0.40697 0.33813 0.0
C1128 C 0.95022 0.40396 0.37911 0.0
C1129 C 0.96526 0.38944 0.37663 0.0
C1130 C 0.99417 0.37792 0.33175 0.0
H1131 H 0.08826 0.62153 0.15088 0.0
H1132 H 0.93716 0.663 0.19406 0.0
H1133 H 0.9508 0.66737 0.28055 0.0
H1134 H 0.98559 0.61046 0.23883 0.0
H1135 H 0.09032 0.60222 0.24756 0.0
H1136 H 0.06887 0.6031 0.1903 0.0
H1137 H 0.22513 0.61685 0.19992 0.0
H1138 H 0.24353 0.61631 0.25817 0.0
H1139 H 0.24534 0.63394 0.25354 0.0
H1140 H 0.97646 0.6668 0.36169 0.0
H1141 H 1.01355 0.66182 0.43268 0.0
H1142 H 0.14932 0.62054 0.3377 0.0
C1143 C 0.0581 0.63154 0.17856 0.0
C1144 C 1.01236 0.64203 0.16575 0.0
C1145 C 0.97427 0.65501 0.20304 0.0
C1146 C 0.98106 0.65751 0.25226 0.0
C1147 C 1.02635 0.64693 0.2636 0.0
C1148 C 0.06458 0.63423 0.22788 0.0
C1149 C 0.10791 0.62447 0.2498 0.0
C1150 C 0.06022 0.60916 0.2305 0.0
C1151 C 0.21165 0.62281 0.23975 0.0
C1152 C 0.08808 0.63366 0.30362 0.0
C1153 C 0.04078 0.64655 0.31056 0.0
C1154 C 1.01366 0.65677 0.35673 0.0
C1155 C 1.03525 0.65379 0.39695 0.0
C1156 C 0.08393 0.64068 0.39114 0.0
C1157 C 0.11112 0.63055 0.34361 0.0
H1158 H 0.96819 0.64269 0.86843 0.0
H1159 H 0.1468 0.60595 0.85431 0.0
H1160 H 0.18869 0.60254 0.77069 0.0
H1161 H 0.88807 0.62552 0.74127 0.0
H1162 H 0.88093 0.64321 0.73734 0.0
H1163 H 0.86317 0.64231 0.79511 0.0
H1164 H 0.99429 0.66183 0.83514 0.0
H1165 H 1.00418 0.66298 0.77763 0.0
H1166 H 0.10406 0.65876 0.80484 0.0
H1167 H 0.21653 0.60416 0.69001 0.0
H1168 H 0.22365 0.60985 0.61793 0.0
H1169 H 1.02303 0.64519 0.68481 0.0
C1170 C 1.01606 0.63391 0.8477 0.0
C1171 C 0.05496 0.62466 0.86789 0.0
C1172 C 0.11614 0.61314 0.83942 0.0
C1173 C 0.1404 0.61115 0.79199 0.0
C1174 C 0.10157 0.62061 0.77339 0.0
C1175 C 1.03971 0.63162 0.80018 0.0
C1176 C 1.00681 0.6402 0.77179 0.0
C1177 C 0.90363 0.63765 0.76073 0.0
C1178 C 1.02893 0.65693 0.79901 0.0
C1179 C 0.06321 0.63281 0.72567 0.0
C1180 C 0.11656 0.6214 0.72698 0.0
C1181 C 0.17478 0.61303 0.68857 0.0
C1182 C 0.17852 0.61639 0.6478 0.0
C1183 C 0.12442 0.62805 0.64567 0.0
C1184 C 0.06594 0.6363 0.68528 0.0
H1185 H 0.98432 0.40028 0.68574 0.0
H1186 H 0.89383 0.3548 0.5996 0.0
H1187 H 0.90737 0.34935 0.67194 0.0
H1188 H 0.15273 0.3909 0.75405 0.0
H1189 H 0.13357 0.40721 0.81029 0.0
H1190 H 0.11132 0.40793 0.75264 0.0
H1191 H 0.94477 0.41653 0.77979 0.0
H1192 H 0.96644 0.41587 0.83763 0.0
H1193 H 0.87227 0.40544 0.8 0.0
H1194 H 0.93077 0.3487 0.75299 0.0
H1195 H 0.97154 0.35244 0.83624 0.0
H1196 H 0.05416 0.39798 0.87015 0.0
C1197 C 0.96561 0.38929 0.68246 0.0
C1198 C 0.93675 0.37801 0.63724 0.0
C1199 C 0.91597 0.3636 0.63392 0.0
C1200 C 0.92306 0.36041 0.67485 0.0
C1201 C 0.95198 0.37173 0.71886 0.0
C1202 C 0.9736 0.38585 0.72297 0.0
C1203 C 1.00782 0.3957 0.77403 0.0
C1204 C 0.10726 0.40073 0.77264 0.0
C1205 C 0.944 0.40918 0.79936 0.0
C1206 C 1.00205 0.38489 0.79781 0.0
C1207 C 0.96895 0.37117 0.76536 0.0
C1208 C 0.95751 0.35937 0.77861 0.0
C1209 C 0.98167 0.36155 0.82607 0.0
C1210 C 1.0182 0.37534 0.85985 0.0
C1211 C 1.02717 0.38722 0.84539 0.0
H1212 H 0.49773 0.86392 0.13014 0.0
H1213 H 0.71988 0.89619 0.16678 0.0
H1214 H 0.71574 0.8993 0.25164 0.0
H1215 H 0.37243 0.88132 0.23991 0.0
H1216 H 0.34135 0.86439 0.24525 0.0
H1217 H 0.36278 0.86399 0.18596 0.0
H1218 H 0.48594 0.84344 0.16896 0.0
H1219 H 0.46385 0.84372 0.22808 0.0
H1220 H 0.57863 0.84665 0.21176 0.0
H1221 H 0.67965 0.90098 0.33355 0.0
H1222 H 0.62297 0.8992 0.40779 0.0
H1223 H 0.43297 0.86434 0.32042 0.0
C1224 C 0.54637 0.87145 0.15588 0.0
C1225 C 0.60772 0.88008 0.14174 0.0
C1226 C 0.6704 0.88977 0.17666 0.0
C1227 C 0.66922 0.89154 0.22509 0.0
C1228 C 0.60651 0.88326 0.2382 0.0
C1229 C 0.54732 0.87318 0.20466 0.0
C1230 C 0.48664 0.8658 0.22925 0.0
C1231 C 0.38476 0.86908 0.22482 0.0
C1232 C 0.50488 0.8489 0.20825 0.0
C1233 C 0.51971 0.87361 0.28183 0.0
C1234 C 0.5887 0.88368 0.28589 0.0
C1235 C 0.62676 0.89297 0.3308 0.0
C1236 C 0.59376 0.89194 0.37278 0.0
C1237 C 0.52432 0.88157 0.36972 0.0
C1238 C 0.48731 0.87217 0.32356 0.0
H1239 H 0.56701 0.11741 0.13905 0.0
H1240 H 0.5783 0.16505 0.17937 0.0
H1241 H 0.61482 0.16962 0.26364 0.0
H1242 H 0.45628 0.12011 0.24869 0.0
H1243 H 0.51911 0.10473 0.25124 0.0
H1244 H 0.4973 0.10522 0.19322 0.0
H1245 H 0.67174 0.10277 0.17491 0.0
H1246 H 0.69398 0.10247 0.23318 0.0
H1247 H 0.7497 0.11614 0.21742 0.0
H1248 H 0.64357 0.1692 0.34457 0.0
H1249 H 0.6623 0.16378 0.41653 0.0
H1250 H 0.62857 0.11654 0.32483 0.0
C1251 C 0.5749 0.12884 0.16554 0.0
C1252 C 0.566 0.14095 0.15227 0.0
C1253 C 0.58207 0.15562 0.18826 0.0
C1254 C 0.6036 0.15833 0.23645 0.0
C1255 C 0.60959 0.14619 0.24835 0.0
C1256 C 0.59581 0.13173 0.214 0.0
C1257 C 0.6044 0.1207 0.23677 0.0
C1258 C 0.51389 0.11219 0.23221 0.0
C1259 C 0.68475 0.10989 0.21422 0.0
C1260 C 0.62416 0.1313 0.28937 0.0
C1261 C 0.62736 0.14593 0.2951 0.0
C1262 C 0.6416 0.15776 0.34049 0.0
C1263 C 0.65172 0.15456 0.38124 0.0
C1264 C 0.64756 0.13966 0.37651 0.0
C1265 C 0.63452 0.12793 0.32974 0.0
H1266 H 0.49481 0.14464 0.86165 0.0
H1267 H 0.63995 0.1038 0.83891 0.0
H1268 H 0.68427 0.10078 0.75627 0.0
H1269 H 0.40794 0.13242 0.73829 0.0
H1270 H 0.42296 0.15051 0.73794 0.0
H1271 H 0.40075 0.14911 0.79455 0.0
H1272 H 0.54879 0.16425 0.83188 0.0
H1273 H 0.57041 0.16567 0.7754 0.0
H1274 H 0.65666 0.15794 0.80074 0.0
H1275 H 0.71759 0.10276 0.67742 0.0
H1276 H 0.73072 0.10868 0.60628 0.0
H1277 H 0.55993 0.14793 0.67953 0.0
C1278 C 0.5354 0.13498 0.83925 0.0
C1279 C 0.5639 0.12445 0.85685 0.0
C1280 C 0.61692 0.11199 0.82623 0.0
C1281 C 0.64268 0.1102 0.77927 0.0
C1282 C 0.61439 0.12091 0.76337 0.0
C1283 C 0.56117 0.13298 0.79225 0.0
C1284 C 0.54062 0.14298 0.76677 0.0
C1285 C 0.4369 0.14379 0.75892 0.0
C1286 C 0.58162 0.15864 0.79541 0.0
C1287 C 0.59026 0.13463 0.7188 0.0
C1288 C 0.63289 0.12199 0.71778 0.0
C1289 C 0.68404 0.11258 0.6777 0.0
C1290 C 0.69104 0.11607 0.63737 0.0
C1291 C 0.64653 0.12882 0.63705 0.0
C1292 C 0.59561 0.1382 0.67857 0.0
H1293 H 0.42702 0.86452 0.6423 0.0
H1294 H 0.55491 0.90673 0.66621 0.0
H1295 H 0.60096 0.91032 0.74902 0.0
H1296 H 0.33795 0.8767 0.76637 0.0
H1297 H 0.35882 0.85901 0.76876 0.0
H1298 H 0.33564 0.85966 0.71105 0.0
H1299 H 0.48773 0.84563 0.67615 0.0
H1300 H 0.5105 0.84494 0.73372 0.0
H1301 H 0.59381 0.85303 0.70792 0.0
H1302 H 0.63967 0.90896 0.82674 0.0
H1303 H 0.65897 0.90391 0.89894 0.0
H1304 H 0.49608 0.86346 0.82999 0.0
C1305 C 0.46428 0.87453 0.66529 0.0
C1306 C 0.4865 0.88549 0.64835 0.0
C1307 C 0.53551 0.89841 0.67906 0.0
C1308 C 0.56263 0.90047 0.72595 0.0
C1309 C 0.53948 0.88956 0.74186 0.0
C1310 C 0.49045 0.87693 0.71291 0.0
C1311 C 0.47356 0.86713 0.7398 0.0
C1312 C 0.37034 0.86554 0.74692 0.0
C1313 C 0.51917 0.85178 0.71278 0.0
C1314 C 0.52104 0.87625 0.78821 0.0
C1315 C 0.55939 0.88904 0.78806 0.0
C1316 C 0.60925 0.89905 0.82754 0.0
C1317 C 0.61973 0.89605 0.86859 0.0
C1318 C 0.57893 0.88328 0.87072 0.0
C1319 C 0.52879 0.87325 0.82969 0.0
loop_
_geom_bond_atom_site_label_1
_geom_bond_atom_site_label_2
_geom_bond_distance
_geom_bond_site_symmetry_2
_ccdc_geom_bond_type
Gd0 N31 2.661 1_456 S
Gd0 N37 2.601 1_455 S
Gd0 O44 2.545 . S
Gd0 O45 2.606 1_556 S
Gd0 O47 2.429 . S
Gd0 O48 2.545 . S
Gd0 O49 2.412 . S
Gd0 O51 2.363 1_456 S
Gd0 O52 2.324 1_556 S
Gd0 C59 2.828 . S
Gd1 N10 2.661 . S
Gd1 N14 2.601 . S
Gd1 O45 2.362 . S
Gd1 O46 2.324 1_554 S
Gd1 O50 2.545 . S
Gd1 O51 2.607 1_455 S
Gd1 O53 2.429 . S
Gd1 O54 2.545 1_455 S
Gd1 O55 2.412 . S
Gd1 C68 2.828 . S
C2 C5 1.417 . S
C2 C7 1.431 . S
C2 C8 1.412 1_554 S
C3 C6 1.437 . S
C3 C7 1.317 . S
C3 H22 0.929 . S
C4 C5 1.426 . S
C4 C6 1.413 . S
C4 N14 1.359 . S
C5 C2 1.417 . S
C5 C4 1.426 . S
C5 N10 1.350 . S
C6 C3 1.437 . S
C6 C4 1.413 . S
C6 C16 1.391 . S
C7 C2 1.431 . S
C7 C3 1.317 . S
C7 H18 0.930 . S
C8 C2 1.412 1_556 S
C8 C9 1.355 . S
C8 H20 0.930 . S
C9 C8 1.355 . S
C9 C11 1.402 . S
C9 H21 0.930 . S
N10 Gd1 2.661 . S
N10 C5 1.350 . S
N10 C11 1.307 1_554 S
C11 C9 1.402 . S
C11 N10 1.307 1_556 S
C11 H12 0.930 . S
H12 C11 0.930 . S
C13 N14 1.334 . S
C13 C15 1.394 . S
C13 H17 0.930 . S
N14 Gd1 2.601 . S
N14 C4 1.359 . S
N14 C13 1.334 . S
C15 C13 1.394 . S
C15 C16 1.359 . S
C15 H27 0.930 . S
C16 C6 1.391 . S
C16 C15 1.359 . S
C16 H28 0.929 . S
H17 C13 0.930 . S
H18 C7 0.930 . S
H19 C36 0.930 . S
H20 C8 0.930 . S
H21 C9 0.930 . S
H22 C3 0.929 . S
H23 C41 0.930 1_455 S
H24 C32 0.930 . S
H25 C33 0.930 . S
H26 C57 0.929 . S
H27 C15 0.930 . S
H28 C16 0.929 . S
H29 C58 0.930 . S
H30 C39 0.930 . S
N31 Gd0 2.661 1_654 S
N31 C35 1.350 1_554 S
N31 C36 1.307 . S
C32 H24 0.930 . S
C32 C33 1.355 . S
C32 C34 1.412 1_554 S
C33 H25 0.930 . S
C33 C32 1.355 . S
C33 C36 1.402 . S
C34 C32 1.412 1_556 S
C34 C35 1.417 . S
C34 C58 1.431 . S
C35 N31 1.350 1_556 S
C35 C34 1.417 . S
C35 C38 1.426 . S
C36 H19 0.930 . S
C36 N31 1.307 . S
C36 C33 1.402 . S
N37 Gd0 2.601 1_655 S
N37 C38 1.359 . S
N37 C41 1.334 . S
C38 C35 1.426 . S
C38 N37 1.359 . S
C38 C42 1.413 . S
C39 H30 0.930 . S
C39 C40 1.359 . S
C39 C41 1.394 . S
C40 C39 1.359 . S
C40 C42 1.391 . S
C40 H43 0.929 . S
C41 H23 0.930 1_655 S
C41 N37 1.334 . S
C41 C39 1.394 . S
C42 C38 1.413 . S
C42 C40 1.391 . S
C42 C57 1.437 . S
H43 C40 0.929 . S
O44 Gd0 2.545 . S
O44 C59 1.258 . S
O45 Gd0 2.606 1_554 S
O45 Gd1 2.362 . S
O45 C56 1.284 . S
O46 Gd1 2.324 1_556 S
O46 C66 1.254 . S
O47 Gd0 2.429 . S
O47 C66 1.268 . S
O48 Gd0 2.545 . S
O48 C56 1.250 1_556 S
O49 Gd0 2.412 . S
O49 C59 1.251 . S
O50 Gd1 2.545 . S
O50 C68 1.258 . S
O51 Gd0 2.363 1_654 S
O51 Gd1 2.607 1_655 S
O51 C67 1.283 . S
O52 Gd0 2.324 1_554 S
O52 C75 1.254 . S
O53 Gd1 2.429 . S
O53 C75 1.268 . S
O54 Gd1 2.545 1_655 S
O54 C67 1.250 . S
O55 Gd1 2.412 . S
O55 C68 1.252 . S
C56 O45 1.284 . S
C56 O48 1.250 1_554 S
C57 H26 0.929 . S
C57 C42 1.437 . S
C57 C58 1.317 . S
C58 H29 0.930 . S
C58 C34 1.431 . S
C58 C57 1.317 . S
C59 Gd0 2.828 . S
C59 O44 1.258 . S
C59 O49 1.251 . S
C59 C60 1.497 . S
C60 C59 1.497 . S
C60 C61 1.395 . S
C60 C62 1.380 . S
C61 C60 1.395 . S
C61 C64 1.398 . S
C61 H76 0.930 . S
C62 C60 1.380 . S
C62 C63 1.391 . S
C62 H77 0.930 1_556 S
C63 C62 1.391 . S
C63 C65 1.387 . S
C64 C61 1.398 . S
C64 C65 1.380 . S
C64 H78 0.930 . S
C65 C63 1.387 . S
C65 C64 1.380 . S
C65 H79 0.930 . S
C66 O46 1.254 . S
C66 O47 1.268 . S
C67 O51 1.283 . S
C67 O54 1.250 . S
C68 Gd1 2.828 . S
C68 O50 1.258 . S
C68 O55 1.252 . S
C68 C69 1.497 1_455 S
C69 C68 1.497 1_655 S
C69 C70 1.395 . S
C69 C71 1.380 . S
C70 C69 1.395 . S
C70 C73 1.398 . S
C70 H80 0.930 1_655 S
C71 C69 1.380 . S
C71 C72 1.391 . S
C71 H81 0.930 1_554 S
C72 C71 1.391 . S
C72 C74 1.387 . S
C73 C70 1.398 . S
C73 C74 1.380 . S
C73 H82 0.930 . S
C74 C72 1.387 . S
C74 C73 1.380 . S
C74 H83 0.930 . S
C75 O52 1.254 . S
C75 O53 1.268 . S
H76 C61 0.930 . S
H77 C62 0.930 1_554 S
H78 C64 0.930 . S
H79 C65 0.930 . S
H80 C70 0.930 1_455 S
H81 C71 0.930 1_556 S
H82 C73 0.930 . S
H83 C74 0.930 . S
Gd84 N115 2.661 1_556 S
Gd84 N121 2.601 . S
Gd84 O128 2.545 . S
Gd84 O129 2.606 1_656 S
Gd84 O131 2.429 . S
Gd84 O132 2.545 1_655 S
Gd84 O133 2.412 1_556 S
Gd84 O135 2.362 1_556 S
Gd84 O136 2.324 1_556 S
Gd84 C143 2.828 . S
Gd85 N94 2.661 1_655 S
Gd85 N98 2.601 1_655 S
Gd85 O129 2.362 1_655 S
Gd85 O130 2.324 1_554 S
Gd85 O134 2.545 . S
Gd85 O135 2.606 . S
Gd85 O137 2.429 . S
Gd85 O138 2.545 . S
Gd85 O139 2.412 . S
Gd85 C152 2.828 . S
C86 C89 1.417 . S
C86 C91 1.431 . S
C86 C92 1.412 1_554 S
C87 C90 1.437 . S
C87 C91 1.317 . S
C87 H106 0.929 . S
C88 C89 1.426 . S
C88 C90 1.413 . S
C88 N98 1.359 . S
C89 C86 1.417 . S
C89 C88 1.426 . S
C89 N94 1.350 . S
C90 C87 1.437 . S
C90 C88 1.413 . S
C90 C100 1.391 . S
C91 C86 1.431 . S
C91 C87 1.317 . S
C91 H102 0.930 . S
C92 C86 1.412 1_556 S
C92 C93 1.355 . S
C92 H104 0.930 . S
C93 C92 1.355 . S
C93 C95 1.402 . S
C93 H105 0.930 . S
N94 Gd85 2.661 1_455 S
N94 C89 1.350 . S
N94 C95 1.307 1_554 S
C95 C93 1.402 . S
C95 N94 1.307 1_556 S
C95 H96 0.930 . S
H96 C95 0.930 . S
C97 N98 1.334 . S
C97 C99 1.394 . S
C97 H101 0.930 1_455 S
N98 Gd85 2.601 1_455 S
N98 C88 1.359 . S
N98 C97 1.334 . S
C99 C97 1.394 . S
C99 C100 1.359 . S
C99 H111 0.930 . S
C100 C90 1.391 . S
C100 C99 1.359 . S
C100 H112 0.929 . S
H101 C97 0.930 1_655 S
H102 C91 0.930 . S
H103 C120 0.930 . S
H104 C92 0.930 . S
H105 C93 0.930 . S
H106 C87 0.929 . S
H107 C125 0.930 . S
H108 C116 0.930 . S
H109 C117 0.930 . S
H110 C141 0.929 . S
H111 C99 0.930 . S
H112 C100 0.929 . S
H113 C142 0.930 . S
H114 C123 0.930 . S
N115 Gd84 2.661 1_554 S
N115 C119 1.350 1_554 S
N115 C120 1.307 . S
C116 H108 0.930 . S
C116 C117 1.355 . S
C116 C118 1.412 1_554 S
C117 H109 0.930 . S
C117 C116 1.355 . S
C117 C120 1.402 . S
C118 C116 1.412 1_556 S
C118 C119 1.417 . S
C118 C142 1.431 . S
C119 N115 1.350 1_556 S
C119 C118 1.417 . S
C119 C122 1.426 . S
C120 H103 0.930 . S
C120 N115 1.307 . S
C120 C117 1.402 . S
N121 Gd84 2.601 . S
N121 C122 1.359 . S
N121 C125 1.334 . S
C122 C119 1.426 . S
C122 N121 1.359 . S
C122 C126 1.413 . S
C123 H114 0.930 . S
C123 C124 1.359 . S
C123 C125 1.394 . S
C124 C123 1.359 . S
C124 C126 1.391 . S
C124 H127 0.929 . S
C125 H107 0.930 . S
C125 N121 1.334 . S
C125 C123 1.394 . S
C126 C122 1.413 . S
C126 C124 1.391 . S
C126 C141 1.437 . S
H127 C124 0.929 . S
O128 Gd84 2.545 . S
O128 C143 1.258 . S
O129 Gd84 2.606 1_454 S
O129 Gd85 2.362 1_455 S
O129 C140 1.284 . S
O130 Gd85 2.324 1_556 S
O130 C150 1.254 . S
O131 Gd84 2.429 . S
O131 C150 1.268 . S
O132 Gd84 2.545 1_455 S
O132 C140 1.250 1_556 S
O133 Gd84 2.412 1_554 S
O133 C143 1.252 1_554 S
O134 Gd85 2.545 . S
O134 C152 1.258 . S
O135 Gd84 2.362 1_554 S
O135 Gd85 2.606 . S
O135 C151 1.284 . S
O136 Gd84 2.324 1_554 S
O136 C159 1.254 . S
O137 Gd85 2.429 . S
O137 C159 1.268 . S
O138 Gd85 2.545 . S
O138 C151 1.250 . S
O139 Gd85 2.412 . S
O139 C152 1.252 . S
C140 O129 1.284 . S
C140 O132 1.250 1_554 S
C141 H110 0.929 . S
C141 C126 1.437 . S
C141 C142 1.317 . S
C142 H113 0.930 . S
C142 C118 1.431 . S
C142 C141 1.317 . S
C143 Gd84 2.828 . S
C143 O128 1.258 . S
C143 O133 1.252 1_556 S
C143 C144 1.497 1_655 S
C144 C143 1.497 1_455 S
C144 C145 1.395 . S
C144 C146 1.380 . S
C145 C144 1.395 . S
C145 C148 1.398 . S
C145 H160 0.930 1_455 S
C146 C144 1.380 . S
C146 C147 1.391 . S
C146 H161 0.930 1_556 S
C147 C146 1.391 . S
C147 C149 1.387 . S
C148 C145 1.398 . S
C148 C149 1.380 . S
C148 H162 0.930 . S
C149 C147 1.387 . S
C149 C148 1.380 . S
C149 H163 0.930 . S
C150 O130 1.254 . S
C150 O131 1.268 . S
C151 O135 1.284 . S
C151 O138 1.250 . S
C152 Gd85 2.828 . S
C152 O134 1.258 . S
C152 O139 1.252 . S
C152 C153 1.497 . S
C153 C152 1.497 . S
C153 C154 1.395 . S
C153 C155 1.380 . S
C154 C153 1.395 . S
C154 C157 1.398 . S
C154 H164 0.930 . S
C155 C153 1.380 . S
C155 C156 1.391 . S
C155 H165 0.930 . S
C156 C155 1.391 . S
C156 C158 1.387 . S
C157 C154 1.398 . S
C157 C158 1.380 . S
C157 H166 0.930 . S
C158 C156 1.387 . S
C158 C157 1.380 . S
C158 H167 0.930 . S
C159 O136 1.254 . S
C159 O137 1.268 . S
H160 C145 0.930 1_655 S
H161 C146 0.930 1_554 S
H162 C148 0.930 . S
H163 C149 0.930 . S
H164 C154 0.930 . S
H165 C155 0.930 . S
H166 C157 0.930 . S
H167 C158 0.930 . S
Gd168 N199 2.661 1_455 S
Gd168 N205 2.601 1_455 S
Gd168 O212 2.545 . S
Gd168 O213 2.606 . S
Gd168 O215 2.429 . S
Gd168 O216 2.545 . S
Gd168 O217 2.412 . S
Gd168 O219 2.362 1_455 S
Gd168 O220 2.324 . S
Gd168 C227 2.828 . S
Gd169 N178 2.661 . S
Gd169 N182 2.601 . S
Gd169 O213 2.362 . S
Gd169 O214 2.324 . S
Gd169 O218 2.545 . S
Gd169 O219 2.606 1_455 S
Gd169 O221 2.429 . S
Gd169 O222 2.545 1_455 S
Gd169 O223 2.412 . S
Gd169 C236 2.828 . S
C170 C173 1.417 . S
C170 C175 1.431 . S
C170 C176 1.412 . S
C171 C174 1.437 . S
C171 C175 1.317 . S
C171 H190 0.929 . S
C172 C173 1.426 . S
C172 C174 1.413 . S
C172 N182 1.359 . S
C173 C170 1.417 . S
C173 C172 1.426 . S
C173 N178 1.350 . S
C174 C171 1.437 . S
C174 C172 1.413 . S
C174 C184 1.391 . S
C175 C170 1.431 . S
C175 C171 1.317 . S
C175 H186 0.930 . S
C176 C170 1.412 . S
C176 C177 1.355 . S
C176 H188 0.930 . S
C177 C176 1.355 . S
C177 C179 1.402 . S
C177 H189 0.930 . S
N178 Gd169 2.661 . S
N178 C173 1.350 . S
N178 C179 1.307 . S
C179 C177 1.402 . S
C179 N178 1.307 . S
C179 H180 0.930 . S
H180 C179 0.930 . S
C181 N182 1.334 . S
C181 C183 1.394 . S
C181 H185 0.930 . S
N182 Gd169 2.601 . S
N182 C172 1.359 . S
N182 C181 1.334 . S
C183 C181 1.394 . S
C183 C184 1.359 . S
C183 H195 0.930 . S
C184 C174 1.391 . S
C184 C183 1.359 . S
C184 H196 0.929 . S
H185 C181 0.930 . S
H186 C175 0.930 . S
H187 C204 0.930 . S
H188 C176 0.930 . S
H189 C177 0.930 . S
H190 C171 0.929 . S
H191 C209 0.930 1_455 S
H192 C200 0.930 . S
H193 C201 0.930 . S
H194 C225 0.929 . S
H195 C183 0.930 . S
H196 C184 0.929 . S
H197 C226 0.930 . S
H198 C207 0.930 . S
N199 Gd168 2.661 1_655 S
N199 C203 1.350 . S
N199 C204 1.307 . S
C200 H192 0.930 . S
C200 C201 1.355 . S
C200 C202 1.412 . S
C201 H193 0.930 . S
C201 C200 1.355 . S
C201 C204 1.402 . S
C202 C200 1.412 . S
C202 C203 1.417 . S
C202 C226 1.431 . S
C203 N199 1.350 . S
C203 C202 1.417 . S
C203 C206 1.426 . S
C204 H187 0.930 . S
C204 N199 1.307 . S
C204 C201 1.402 . S
N205 Gd168 2.601 1_655 S
N205 C206 1.359 . S
N205 C209 1.334 . S
C206 C203 1.426 . S
C206 N205 1.359 . S
C206 C210 1.413 . S
C207 H198 0.930 . S
C207 C208 1.359 . S
C207 C209 1.394 . S
C208 C207 1.359 . S
C208 C210 1.391 . S
C208 H211 0.929 . S
C209 H191 0.930 1_655 S
C209 N205 1.334 . S
C209 C207 1.394 . S
C210 C206 1.413 . S
C210 C208 1.391 . S
C210 C225 1.437 . S
H211 C208 0.929 . S
O212 Gd168 2.545 . S
O212 C227 1.258 . S
O213 Gd168 2.606 . S
O213 Gd169 2.362 . S
O213 C224 1.284 . S
O214 Gd169 2.324 . S
O214 C234 1.254 . S
O215 Gd168 2.429 . S
O215 C234 1.268 . S
O216 Gd168 2.545 . S
O216 C224 1.250 . S
O217 Gd168 2.412 . S
O217 C227 1.252 . S
O218 Gd169 2.545 . S
O218 C236 1.258 . S
O219 Gd168 2.362 1_655 S
O219 Gd169 2.606 1_655 S
O219 C235 1.284 . S
O220 Gd168 2.324 . S
O220 C243 1.254 . S
O221 Gd169 2.429 . S
O221 C243 1.268 . S
O222 Gd169 2.545 1_655 S
O222 C235 1.250 . S
O223 Gd169 2.412 . S
O223 C236 1.252 . S
C224 O213 1.284 . S
C224 O216 1.250 . S
C225 H194 0.929 . S
C225 C210 1.437 . S
C225 C226 1.317 . S
C226 H197 0.930 . S
C226 C202 1.431 . S
C226 C225 1.317 . S
C227 Gd168 2.828 . S
C227 O212 1.258 . S
C227 O217 1.252 . S
C227 C228 1.497 . S
C228 C227 1.497 . S
C228 C229 1.395 . S
C228 C230 1.380 . S
C229 C228 1.395 . S
C229 C232 1.398 . S
C229 H244 0.930 . S
C230 C228 1.380 . S
C230 C231 1.391 . S
C230 H245 0.930 . S
C231 C230 1.391 . S
C231 C233 1.387 . S
C232 C229 1.398 . S
C232 C233 1.380 . S
C232 H246 0.930 . S
C233 C231 1.387 . S
C233 C232 1.380 . S
C233 H247 0.930 . S
C234 O214 1.254 . S
C234 O215 1.268 . S
C235 O219 1.284 . S
C235 O222 1.250 . S
C236 Gd169 2.828 . S
C236 O218 1.258 . S
C236 O223 1.252 . S
C236 C237 1.497 1_455 S
C237 C236 1.497 1_655 S
C237 C238 1.395 . S
C237 C239 1.380 . S
C238 C237 1.395 . S
C238 C241 1.398 . S
C238 H248 0.930 1_655 S
C239 C237 1.380 . S
C239 C240 1.391 . S
C239 H249 0.930 . S
C240 C239 1.391 . S
C240 C242 1.387 . S
C241 C238 1.398 . S
C241 C242 1.380 . S
C241 H250 0.930 . S
C242 C240 1.387 . S
C242 C241 1.380 . S
C242 H251 0.930 . S
C243 O220 1.254 . S
C243 O221 1.268 . S
H244 C229 0.930 . S
H245 C230 0.930 . S
H246 C232 0.930 . S
H247 C233 0.930 . S
H248 C238 0.930 1_455 S
H249 C239 0.930 . S
H250 C241 0.930 . S
H251 C242 0.930 . S
Gd252 N283 2.661 . S
Gd252 N289 2.601 . S
Gd252 O296 2.545 . S
Gd252 O297 2.606 1_655 S
Gd252 O299 2.429 . S
Gd252 O300 2.545 1_655 S
Gd252 O301 2.412 . S
Gd252 O303 2.362 . S
Gd252 O304 2.324 . S
Gd252 C311 2.828 . S
Gd253 N262 2.661 1_655 S
Gd253 N266 2.601 1_655 S
Gd253 O297 2.362 1_655 S
Gd253 O298 2.324 . S
Gd253 O302 2.545 . S
Gd253 O303 2.606 . S
Gd253 O305 2.429 . S
Gd253 O306 2.545 . S
Gd253 O307 2.412 . S
Gd253 C320 2.828 . S
C254 C257 1.417 . S
C254 C259 1.431 . S
C254 C260 1.412 . S
C255 C258 1.437 . S
C255 C259 1.317 . S
C255 H274 0.929 . S
C256 C257 1.426 . S
C256 C258 1.413 . S
C256 N266 1.359 . S
C257 C254 1.417 . S
C257 C256 1.426 . S
C257 N262 1.350 . S
C258 C255 1.437 . S
C258 C256 1.413 . S
C258 C268 1.391 . S
C259 C254 1.431 . S
C259 C255 1.317 . S
C259 H270 0.930 . S
C260 C254 1.412 . S
C260 C261 1.355 . S
C260 H272 0.930 . S
C261 C260 1.355 . S
C261 C263 1.402 . S
C261 H273 0.930 . S
N262 Gd253 2.661 1_455 S
N262 C257 1.350 . S
N262 C263 1.307 . S
C263 C261 1.402 . S
C263 N262 1.307 . S
C263 H264 0.930 . S
H264 C263 0.930 . S
C265 N266 1.334 . S
C265 C267 1.394 . S
C265 H269 0.930 1_455 S
N266 Gd253 2.601 1_455 S
N266 C256 1.359 . S
N266 C265 1.334 . S
C267 C265 1.394 . S
C267 C268 1.359 . S
C267 H279 0.930 . S
C268 C258 1.391 . S
C268 C267 1.359 . S
C268 H280 0.929 . S
H269 C265 0.930 1_655 S
H270 C259 0.930 . S
H271 C288 0.930 . S
H272 C260 0.930 . S
H273 C261 0.930 . S
H274 C255 0.929 . S
H275 C293 0.930 . S
H276 C284 0.930 . S
H277 C285 0.930 . S
H278 C309 0.929 . S
H279 C267 0.930 . S
H280 C268 0.929 . S
H281 C310 0.930 . S
H282 C291 0.930 . S
N283 Gd252 2.661 . S
N283 C287 1.350 . S
N283 C288 1.307 . S
C284 H276 0.930 . S
C284 C285 1.355 . S
C284 C286 1.412 . S
C285 H277 0.930 . S
C285 C284 1.355 . S
C285 C288 1.402 . S
C286 C284 1.412 . S
C286 C287 1.417 . S
C286 C310 1.431 . S
C287 N283 1.350 . S
C287 C286 1.417 . S
C287 C290 1.426 . S
C288 H271 0.930 . S
C288 N283 1.307 . S
C288 C285 1.402 . S
N289 Gd252 2.601 . S
N289 C290 1.359 . S
N289 C293 1.334 . S
C290 C287 1.426 . S
C290 N289 1.359 . S
C290 C294 1.413 . S
C291 H282 0.930 . S
C291 C292 1.359 . S
C291 C293 1.394 . S
C292 C291 1.359 . S
C292 C294 1.391 . S
C292 H295 0.929 . S
C293 H275 0.930 . S
C293 N289 1.334 . S
C293 C291 1.394 . S
C294 C290 1.413 . S
C294 C292 1.391 . S
C294 C309 1.437 . S
H295 C292 0.929 . S
O296 Gd252 2.545 . S
O296 C311 1.258 . S
O297 Gd252 2.606 1_455 S
O297 Gd253 2.362 1_455 S
O297 C308 1.284 . S
O298 Gd253 2.324 . S
O298 C318 1.254 . S
O299 Gd252 2.429 . S
O299 C318 1.268 . S
O300 Gd252 2.545 1_455 S
O300 C308 1.250 . S
O301 Gd252 2.412 . S
O301 C311 1.252 . S
O302 Gd253 2.545 . S
O302 C320 1.258 . S
O303 Gd252 2.362 . S
O303 Gd253 2.606 . S
O303 C319 1.284 . S
O304 Gd252 2.324 . S
O304 C327 1.254 . S
O305 Gd253 2.429 . S
O305 C327 1.268 . S
O306 Gd253 2.545 . S
O306 C319 1.250 . S
O307 Gd253 2.412 . S
O307 C320 1.252 . S
C308 O297 1.284 . S
C308 O300 1.250 . S
C309 H278 0.929 . S
C309 C294 1.437 . S
C309 C310 1.317 . S
C310 H281 0.930 . S
C310 C286 1.431 . S
C310 C309 1.317 . S
C311 Gd252 2.828 . S
C311 O296 1.258 . S
C311 O301 1.252 . S
C311 C312 1.497 1_655 S
C312 C311 1.497 1_455 S
C312 C313 1.395 . S
C312 C314 1.380 . S
C313 C312 1.395 . S
C313 C316 1.398 . S
C313 H328 0.930 1_455 S
C314 C312 1.380 . S
C314 C315 1.391 . S
C314 H329 0.930 . S
C315 C314 1.391 . S
C315 C317 1.387 . S
C316 C313 1.398 . S
C316 C317 1.380 . S
C316 H330 0.930 . S
C317 C315 1.387 . S
C317 C316 1.380 . S
C317 H331 0.930 . S
C318 O298 1.254 . S
C318 O299 1.268 . S
C319 O303 1.284 . S
C319 O306 1.250 . S
C320 Gd253 2.828 . S
C320 O302 1.258 . S
C320 O307 1.252 . S
C320 C321 1.497 . S
C321 C320 1.497 . S
C321 C322 1.395 . S
C321 C323 1.380 . S
C322 C321 1.395 . S
C322 C325 1.398 . S
C322 H332 0.930 . S
C323 C321 1.380 . S
C323 C324 1.391 . S
C323 H333 0.930 . S
C324 C323 1.391 . S
C324 C326 1.387 . S
C325 C322 1.398 . S
C325 C326 1.380 . S
C325 H334 0.930 . S
C326 C324 1.387 . S
C326 C325 1.380 . S
C326 H335 0.930 . S
C327 O304 1.254 . S
C327 O305 1.268 . S
H328 C313 0.930 1_655 S
H329 C314 0.930 . S
H330 C316 0.930 . S
H331 C317 0.930 . S
H332 C322 0.930 . S
H333 C323 0.930 . S
H334 C325 0.930 . S
H335 C326 0.930 . S
Gd336 N367 2.661 1_556 S
Gd336 N373 2.601 . S
Gd336 O380 2.545 . S
Gd336 O381 2.606 1_556 S
Gd336 O383 2.429 . S
Gd336 O384 2.545 . S
Gd336 O385 2.411 . S
Gd336 O387 2.364 1_556 S
Gd336 O388 2.324 1_556 S
Gd336 C395 2.828 . S
Gd337 N346 2.661 . S
Gd337 N350 2.601 . S
Gd337 O381 2.362 . S
Gd337 O382 2.324 1_554 S
Gd337 O386 2.545 . S
Gd337 O387 2.607 . S
Gd337 O389 2.429 . S
Gd337 O390 2.545 . S
Gd337 O391 2.412 . S
Gd337 C404 2.828 . S
C338 C341 1.417 . S
C338 C343 1.431 . S
C338 C344 1.412 1_554 S
C339 C342 1.437 . S
C339 C343 1.317 . S
C339 H358 0.929 . S
C340 C341 1.426 . S
C340 C342 1.413 . S
C340 N350 1.359 . S
C341 C338 1.417 . S
C341 C340 1.426 . S
C341 N346 1.350 . S
C342 C339 1.437 . S
C342 C340 1.413 . S
C342 C352 1.391 . S
C343 C338 1.431 . S
C343 C339 1.317 . S
C343 H354 0.930 . S
C344 C338 1.412 1_556 S
C344 C345 1.355 . S
C344 H356 0.930 . S
C345 C344 1.355 . S
C345 C347 1.402 . S
C345 H357 0.930 . S
N346 Gd337 2.661 . S
N346 C341 1.350 . S
N346 C347 1.307 1_554 S
C347 C345 1.402 . S
C347 N346 1.307 1_556 S
C347 H348 0.930 . S
H348 C347 0.930 . S
C349 N350 1.334 . S
C349 C351 1.394 . S
C349 H353 0.930 . S
N350 Gd337 2.601 . S
N350 C340 1.359 . S
N350 C349 1.334 . S
C351 C349 1.394 . S
C351 C352 1.359 . S
C351 H363 0.930 . S
C352 C342 1.391 . S
C352 C351 1.359 . S
C352 H364 0.929 . S
H353 C349 0.930 . S
H354 C343 0.930 . S
H355 C372 0.930 . S
H356 C344 0.930 . S
H357 C345 0.930 . S
H358 C339 0.929 . S
H359 C377 0.930 . S
H360 C368 0.930 . S
H361 C369 0.930 . S
H362 C393 0.929 . S
H363 C351 0.930 . S
H364 C352 0.929 . S
H365 C394 0.930 . S
H366 C375 0.930 . S
N367 Gd336 2.661 1_554 S
N367 C371 1.350 1_554 S
N367 C372 1.307 . S
C368 H360 0.930 . S
C368 C369 1.355 . S
C368 C370 1.412 1_554 S
C369 H361 0.930 . S
C369 C368 1.355 . S
C369 C372 1.402 . S
C370 C368 1.412 1_556 S
C370 C371 1.417 . S
C370 C394 1.431 . S
C371 N367 1.350 1_556 S
C371 C370 1.417 . S
C371 C374 1.426 . S
C372 H355 0.930 . S
C372 N367 1.307 . S
C372 C369 1.402 . S
N373 Gd336 2.601 . S
N373 C374 1.359 . S
N373 C377 1.334 . S
C374 C371 1.426 . S
C374 N373 1.359 . S
C374 C378 1.413 . S
C375 H366 0.930 . S
C375 C376 1.359 . S
C375 C377 1.394 . S
C376 C375 1.359 . S
C376 C378 1.391 . S
C376 H379 0.929 . S
C377 H359 0.930 . S
C377 N373 1.334 . S
C377 C375 1.394 . S
C378 C374 1.413 . S
C378 C376 1.391 . S
C378 C393 1.437 . S
H379 C376 0.929 . S
O380 Gd336 2.545 . S
O380 C395 1.258 . S
O381 Gd336 2.606 1_554 S
O381 Gd337 2.362 . S
O381 C392 1.284 . S
O382 Gd337 2.324 1_556 S
O382 C402 1.254 . S
O383 Gd336 2.429 . S
O383 C402 1.268 . S
O384 Gd336 2.545 . S
O384 C392 1.250 1_556 S
O385 Gd336 2.411 . S
O385 C395 1.250 . S
O386 Gd337 2.545 . S
O386 C404 1.258 . S
O387 Gd336 2.364 1_554 S
O387 Gd337 2.607 . S
O387 C403 1.283 . S
O388 Gd336 2.324 1_554 S
O388 C411 1.254 . S
O389 Gd337 2.429 . S
O389 C411 1.268 . S
O390 Gd337 2.545 . S
O390 C403 1.250 . S
O391 Gd337 2.412 . S
O391 C404 1.252 . S
C392 O381 1.284 . S
C392 O384 1.250 1_554 S
C393 H362 0.929 . S
C393 C378 1.437 . S
C393 C394 1.317 . S
C394 H365 0.930 . S
C394 C370 1.431 . S
C394 C393 1.317 . S
C395 Gd336 2.828 . S
C395 O380 1.258 . S
C395 O385 1.250 . S
C395 C396 1.497 . S
C396 C395 1.497 . S
C396 C397 1.395 . S
C396 C398 1.380 . S
C397 C396 1.395 . S
C397 C400 1.398 . S
C397 H412 0.930 . S
C398 C396 1.380 . S
C398 C399 1.391 . S
C398 H413 0.930 1_556 S
C399 C398 1.391 . S
C399 C401 1.387 . S
C400 C397 1.398 . S
C400 C401 1.380 . S
C400 H414 0.930 . S
C401 C399 1.387 . S
C401 C400 1.380 . S
C401 H415 0.930 . S
C402 O382 1.254 . S
C402 O383 1.268 . S
C403 O387 1.283 . S
C403 O390 1.250 . S
C404 Gd337 2.828 . S
C404 O386 1.258 . S
C404 O391 1.252 . S
C404 C405 1.497 . S
C405 C404 1.497 . S
C405 C406 1.395 . S
C405 C407 1.380 . S
C406 C405 1.395 . S
C406 C409 1.398 . S
C406 H416 0.930 . S
C407 C405 1.380 . S
C407 C408 1.391 . S
C407 H417 0.930 1_554 S
C408 C407 1.391 . S
C408 C410 1.387 . S
C409 C406 1.398 . S
C409 C410 1.380 . S
C409 H418 0.930 . S
C410 C408 1.387 . S
C410 C409 1.380 . S
C410 H419 0.930 . S
C411 O388 1.254 . S
C411 O389 1.268 . S
H412 C397 0.930 . S
H413 C398 0.930 1_554 S
H414 C400 0.930 . S
H415 C401 0.930 . S
H416 C406 0.930 . S
H417 C407 0.930 1_556 S
H418 C409 0.930 . S
H419 C410 0.930 . S
Gd420 N451 2.661 1_556 S
Gd420 N457 2.601 . S
Gd420 O464 2.545 . S
Gd420 O465 2.606 1_556 S
Gd420 O467 2.429 . S
Gd420 O468 2.545 . S
Gd420 O469 2.412 1_556 S
Gd420 O471 2.362 1_556 S
Gd420 O472 2.324 1_556 S
Gd420 C479 2.828 . S
Gd421 N430 2.661 . S
Gd421 N434 2.601 . S
Gd421 O465 2.362 . S
Gd421 O466 2.324 1_554 S
Gd421 O470 2.545 . S
Gd421 O471 2.606 . S
Gd421 O473 2.429 . S
Gd421 O474 2.545 . S
Gd421 O475 2.412 . S
Gd421 C488 2.828 . S
C422 C425 1.417 . S
C422 C427 1.431 . S
C422 C428 1.412 1_554 S
C423 C426 1.437 . S
C423 C427 1.317 . S
C423 H442 0.929 . S
C424 C425 1.426 . S
C424 C426 1.413 . S
C424 N434 1.359 . S
C425 C422 1.417 . S
C425 C424 1.426 . S
C425 N430 1.350 . S
C426 C423 1.437 . S
C426 C424 1.413 . S
C426 C436 1.391 . S
C427 C422 1.431 . S
C427 C423 1.317 . S
C427 H438 0.930 . S
C428 C422 1.412 1_556 S
C428 C429 1.355 . S
C428 H440 0.930 . S
C429 C428 1.355 . S
C429 C431 1.402 . S
C429 H441 0.930 . S
N430 Gd421 2.661 . S
N430 C425 1.350 . S
N430 C431 1.307 1_554 S
C431 C429 1.402 . S
C431 N430 1.307 1_556 S
C431 H432 0.930 . S
H432 C431 0.930 . S
C433 N434 1.334 . S
C433 C435 1.394 . S
C433 H437 0.930 . S
N434 Gd421 2.601 . S
N434 C424 1.359 . S
N434 C433 1.334 . S
C435 C433 1.394 . S
C435 C436 1.359 . S
C435 H447 0.930 . S
C436 C426 1.391 . S
C436 C435 1.359 . S
C436 H448 0.929 . S
H437 C433 0.930 . S
H438 C427 0.930 . S
H439 C456 0.930 . S
H440 C428 0.930 . S
H441 C429 0.930 . S
H442 C423 0.929 . S
H443 C461 0.930 . S
H444 C452 0.930 . S
H445 C453 0.930 . S
H446 C477 0.929 . S
H447 C435 0.930 . S
H448 C436 0.929 . S
H449 C478 0.930 . S
H450 C459 0.930 . S
N451 Gd420 2.661 1_554 S
N451 C455 1.350 1_554 S
N451 C456 1.307 . S
C452 H444 0.930 . S
C452 C453 1.355 . S
C452 C454 1.412 1_554 S
C453 H445 0.930 . S
C453 C452 1.355 . S
C453 C456 1.402 . S
C454 C452 1.412 1_556 S
C454 C455 1.417 . S
C454 C478 1.431 . S
C455 N451 1.350 1_556 S
C455 C454 1.417 . S
C455 C458 1.426 . S
C456 H439 0.930 . S
C456 N451 1.307 . S
C456 C453 1.402 . S
N457 Gd420 2.601 . S
N457 C458 1.359 . S
N457 C461 1.334 . S
C458 C455 1.426 . S
C458 N457 1.359 . S
C458 C462 1.413 . S
C459 H450 0.930 . S
C459 C460 1.359 . S
C459 C461 1.394 . S
C460 C459 1.359 . S
C460 C462 1.391 . S
C460 H463 0.929 . S
C461 H443 0.930 . S
C461 N457 1.334 . S
C461 C459 1.394 . S
C462 C458 1.413 . S
C462 C460 1.391 . S
C462 C477 1.437 . S
H463 C460 0.929 . S
O464 Gd420 2.545 . S
O464 C479 1.258 . S
O465 Gd420 2.606 1_554 S
O465 Gd421 2.362 . S
O465 C476 1.284 . S
O466 Gd421 2.324 1_556 S
O466 C486 1.254 . S
O467 Gd420 2.429 . S
O467 C486 1.268 . S
O468 Gd420 2.545 . S
O468 C476 1.250 1_556 S
O469 Gd420 2.412 1_554 S
O469 C479 1.252 1_554 S
O470 Gd421 2.545 . S
O470 C488 1.258 . S
O471 Gd420 2.362 1_554 S
O471 Gd421 2.606 . S
O471 C487 1.284 . S
O472 Gd420 2.324 1_554 S
O472 C495 1.254 . S
O473 Gd421 2.429 . S
O473 C495 1.268 . S
O474 Gd421 2.545 . S
O474 C487 1.250 . S
O475 Gd421 2.412 . S
O475 C488 1.252 . S
C476 O465 1.284 . S
C476 O468 1.250 1_554 S
C477 H446 0.929 . S
C477 C462 1.437 . S
C477 C478 1.317 . S
C478 H449 0.930 . S
C478 C454 1.431 . S
C478 C477 1.317 . S
C479 Gd420 2.828 . S
C479 O464 1.258 . S
C479 O469 1.252 1_556 S
C479 C480 1.497 . S
C480 C479 1.497 . S
C480 C481 1.395 . S
C480 C482 1.380 . S
C481 C480 1.395 . S
C481 C484 1.398 . S
C481 H496 0.930 . S
C482 C480 1.380 . S
C482 C483 1.391 . S
C482 H497 0.930 1_556 S
C483 C482 1.391 . S
C483 C485 1.387 . S
C484 C481 1.398 . S
C484 C485 1.380 . S
C484 H498 0.930 . S
C485 C483 1.387 . S
C485 C484 1.380 . S
C485 H499 0.930 . S
C486 O466 1.254 . S
C486 O467 1.268 . S
C487 O471 1.284 . S
C487 O474 1.250 . S
C488 Gd421 2.828 . S
C488 O470 1.258 . S
C488 O475 1.252 . S
C488 C489 1.497 . S
C489 C488 1.497 . S
C489 C490 1.395 . S
C489 C491 1.380 . S
C490 C489 1.395 . S
C490 C493 1.398 . S
C490 H500 0.930 . S
C491 C489 1.380 . S
C491 C492 1.391 . S
C491 H501 0.930 . S
C492 C491 1.391 . S
C492 C494 1.387 . S
C493 C490 1.398 . S
C493 C494 1.380 . S
C493 H502 0.930 . S
C494 C492 1.387 . S
C494 C493 1.380 . S
C494 H503 0.930 . S
C495 O472 1.254 . S
C495 O473 1.268 . S
H496 C481 0.930 . S
H497 C482 0.930 1_554 S
H498 C484 0.930 . S
H499 C485 0.930 . S
H500 C490 0.930 . S
H501 C491 0.930 . S
H502 C493 0.930 . S
H503 C494 0.930 . S
Gd504 N535 2.661 . S
Gd504 N541 2.601 . S
Gd504 O548 2.545 . S
Gd504 O549 2.606 . S
Gd504 O551 2.429 . S
Gd504 O552 2.545 . S
Gd504 O553 2.412 . S
Gd504 O555 2.362 . S
Gd504 O556 2.324 . S
Gd504 C563 2.828 . S
Gd505 N514 2.661 . S
Gd505 N518 2.601 . S
Gd505 O549 2.362 . S
Gd505 O550 2.324 . S
Gd505 O554 2.545 . S
Gd505 O555 2.606 . S
Gd505 O557 2.429 . S
Gd505 O558 2.545 . S
Gd505 O559 2.412 . S
Gd505 C572 2.828 . S
C506 C509 1.417 . S
C506 C511 1.431 . S
C506 C512 1.412 . S
C507 C510 1.437 . S
C507 C511 1.317 . S
C507 H526 0.929 . S
C508 C509 1.426 . S
C508 C510 1.413 . S
C508 N518 1.359 . S
C509 C506 1.417 . S
C509 C508 1.426 . S
C509 N514 1.350 . S
C510 C507 1.437 . S
C510 C508 1.413 . S
C510 C520 1.391 . S
C511 C506 1.431 . S
C511 C507 1.317 . S
C511 H522 0.930 . S
C512 C506 1.412 . S
C512 C513 1.355 . S
C512 H524 0.930 . S
C513 C512 1.355 . S
C513 C515 1.402 . S
C513 H525 0.930 . S
N514 Gd505 2.661 . S
N514 C509 1.350 . S
N514 C515 1.307 . S
C515 C513 1.402 . S
C515 N514 1.307 . S
C515 H516 0.930 . S
H516 C515 0.930 . S
C517 N518 1.334 . S
C517 C519 1.394 . S
C517 H521 0.930 . S
N518 Gd505 2.601 . S
N518 C508 1.359 . S
N518 C517 1.334 . S
C519 C517 1.394 . S
C519 C520 1.359 . S
C519 H531 0.930 . S
C520 C510 1.391 . S
C520 C519 1.359 . S
C520 H532 0.929 . S
H521 C517 0.930 . S
H522 C511 0.930 . S
H523 C540 0.930 . S
H524 C512 0.930 . S
H525 C513 0.930 . S
H526 C507 0.929 . S
H527 C545 0.930 . S
H528 C536 0.930 . S
H529 C537 0.930 . S
H530 C561 0.929 . S
H531 C519 0.930 . S
H532 C520 0.929 . S
H533 C562 0.930 . S
H534 C543 0.930 . S
N535 Gd504 2.661 . S
N535 C539 1.350 . S
N535 C540 1.307 . S
C536 H528 0.930 . S
C536 C537 1.355 . S
C536 C538 1.412 . S
C537 H529 0.930 . S
C537 C536 1.355 . S
C537 C540 1.402 . S
C538 C536 1.412 . S
C538 C539 1.417 . S
C538 C562 1.431 . S
C539 N535 1.350 . S
C539 C538 1.417 . S
C539 C542 1.426 . S
C540 H523 0.930 . S
C540 N535 1.307 . S
C540 C537 1.402 . S
N541 Gd504 2.601 . S
N541 C542 1.359 . S
N541 C545 1.334 . S
C542 C539 1.426 . S
C542 N541 1.359 . S
C542 C546 1.413 . S
C543 H534 0.930 . S
C543 C544 1.359 . S
C543 C545 1.394 . S
C544 C543 1.359 . S
C544 C546 1.391 . S
C544 H547 0.929 . S
C545 H527 0.930 . S
C545 N541 1.334 . S
C545 C543 1.394 . S
C546 C542 1.413 . S
C546 C544 1.391 . S
C546 C561 1.437 . S
H547 C544 0.929 . S
O548 Gd504 2.545 . S
O548 C563 1.258 . S
O549 Gd504 2.606 . S
O549 Gd505 2.362 . S
O549 C560 1.284 . S
O550 Gd505 2.324 . S
O550 C570 1.254 . S
O551 Gd504 2.429 . S
O551 C570 1.268 . S
O552 Gd504 2.545 . S
O552 C560 1.250 . S
O553 Gd504 2.412 . S
O553 C563 1.252 . S
O554 Gd505 2.545 . S
O554 C572 1.258 . S
O555 Gd504 2.362 . S
O555 Gd505 2.606 . S
O555 C571 1.284 . S
O556 Gd504 2.324 . S
O556 C579 1.254 . S
O557 Gd505 2.429 . S
O557 C579 1.268 . S
O558 Gd505 2.545 . S
O558 C571 1.250 . S
O559 Gd505 2.412 . S
O559 C572 1.252 . S
C560 O549 1.284 . S
C560 O552 1.250 . S
C561 H530 0.929 . S
C561 C546 1.437 . S
C561 C562 1.317 . S
C562 H533 0.930 . S
C562 C538 1.431 . S
C562 C561 1.317 . S
C563 Gd504 2.828 . S
C563 O548 1.258 . S
C563 O553 1.252 . S
C563 C564 1.497 . S
C564 C563 1.497 . S
C564 C565 1.395 . S
C564 C566 1.380 . S
C565 C564 1.395 . S
C565 C568 1.398 . S
C565 H580 0.930 . S
C566 C564 1.380 . S
C566 C567 1.391 . S
C566 H581 0.930 . S
C567 C566 1.391 . S
C567 C569 1.387 . S
C568 C565 1.398 . S
C568 C569 1.380 . S
C568 H582 0.930 . S
C569 C567 1.387 . S
C569 C568 1.380 . S
C569 H583 0.930 . S
C570 O550 1.254 . S
C570 O551 1.268 . S
C571 O555 1.284 . S
C571 O558 1.250 . S
C572 Gd505 2.828 . S
C572 O554 1.258 . S
C572 O559 1.252 . S
C572 C573 1.497 . S
C573 C572 1.497 . S
C573 C574 1.395 . S
C573 C575 1.380 . S
C574 C573 1.395 . S
C574 C577 1.398 . S
C574 H584 0.930 . S
C575 C573 1.380 . S
C575 C576 1.391 . S
C575 H585 0.930 . S
C576 C575 1.391 . S
C576 C578 1.387 . S
C577 C574 1.398 . S
C577 C578 1.380 . S
C577 H586 0.930 . S
C578 C576 1.387 . S
C578 C577 1.380 . S
C578 H587 0.930 . S
C579 O556 1.254 . S
C579 O557 1.268 . S
H580 C565 0.930 . S
H581 C566 0.930 . S
H582 C568 0.930 . S
H583 C569 0.930 . S
H584 C574 0.930 . S
H585 C575 0.930 . S
H586 C577 0.930 . S
H587 C578 0.930 . S
Gd588 N619 2.661 . S
Gd588 N625 2.601 . S
Gd588 O632 2.545 . S
Gd588 O633 2.606 . S
Gd588 O635 2.429 . S
Gd588 O636 2.545 . S
Gd588 O637 2.412 . S
Gd588 O639 2.362 . S
Gd588 O640 2.324 . S
Gd588 C647 2.828 . S
Gd589 N598 2.661 . S
Gd589 N602 2.601 . S
Gd589 O633 2.362 . S
Gd589 O634 2.324 . S
Gd589 O638 2.545 . S
Gd589 O639 2.606 . S
Gd589 O641 2.429 . S
Gd589 O642 2.545 . S
Gd589 O643 2.412 . S
Gd589 C656 2.828 . S
C590 C593 1.417 . S
C590 C595 1.431 . S
C590 C596 1.412 . S
C591 C594 1.437 . S
C591 C595 1.317 . S
C591 H610 0.929 . S
C592 C593 1.426 . S
C592 C594 1.413 . S
C592 N602 1.359 . S
C593 C590 1.417 . S
C593 C592 1.426 . S
C593 N598 1.350 . S
C594 C591 1.437 . S
C594 C592 1.413 . S
C594 C604 1.391 . S
C595 C590 1.431 . S
C595 C591 1.317 . S
C595 H606 0.930 . S
C596 C590 1.412 . S
C596 C597 1.355 . S
C596 H608 0.930 . S
C597 C596 1.355 . S
C597 C599 1.402 . S
C597 H609 0.930 . S
N598 Gd589 2.661 . S
N598 C593 1.350 . S
N598 C599 1.307 . S
C599 C597 1.402 . S
C599 N598 1.307 . S
C599 H600 0.930 . S
H600 C599 0.930 . S
C601 N602 1.334 . S
C601 C603 1.394 . S
C601 H605 0.930 . S
N602 Gd589 2.601 . S
N602 C592 1.359 . S
N602 C601 1.334 . S
C603 C601 1.394 . S
C603 C604 1.359 . S
C603 H615 0.930 . S
C604 C594 1.391 . S
C604 C603 1.359 . S
C604 H616 0.929 . S
H605 C601 0.930 . S
H606 C595 0.930 . S
H607 C624 0.930 . S
H608 C596 0.930 . S
H609 C597 0.930 . S
H610 C591 0.929 . S
H611 C629 0.930 . S
H612 C620 0.930 . S
H613 C621 0.930 . S
H614 C645 0.929 . S
H615 C603 0.930 . S
H616 C604 0.929 . S
H617 C646 0.930 . S
H618 C627 0.930 . S
N619 Gd588 2.661 . S
N619 C623 1.350 . S
N619 C624 1.307 . S
C620 H612 0.930 . S
C620 C621 1.355 . S
C620 C622 1.412 . S
C621 H613 0.930 . S
C621 C620 1.355 . S
C621 C624 1.402 . S
C622 C620 1.412 . S
C622 C623 1.417 . S
C622 C646 1.431 . S
C623 N619 1.350 . S
C623 C622 1.417 . S
C623 C626 1.426 . S
C624 H607 0.930 . S
C624 N619 1.307 . S
C624 C621 1.402 . S
N625 Gd588 2.601 . S
N625 C626 1.359 . S
N625 C629 1.334 . S
C626 C623 1.426 . S
C626 N625 1.359 . S
C626 C630 1.413 . S
C627 H618 0.930 . S
C627 C628 1.359 . S
C627 C629 1.394 . S
C628 C627 1.359 . S
C628 C630 1.391 . S
C628 H631 0.929 . S
C629 H611 0.930 . S
C629 N625 1.334 . S
C629 C627 1.394 . S
C630 C626 1.413 . S
C630 C628 1.391 . S
C630 C645 1.437 . S
H631 C628 0.929 . S
O632 Gd588 2.545 . S
O632 C647 1.258 . S
O633 Gd588 2.606 . S
O633 Gd589 2.362 . S
O633 C644 1.284 . S
O634 Gd589 2.324 . S
O634 C654 1.254 . S
O635 Gd588 2.429 . S
O635 C654 1.268 . S
O636 Gd588 2.545 . S
O636 C644 1.250 . S
O637 Gd588 2.412 . S
O637 C647 1.252 . S
O638 Gd589 2.545 . S
O638 C656 1.258 . S
O639 Gd588 2.362 . S
O639 Gd589 2.606 . S
O639 C655 1.284 . S
O640 Gd588 2.324 . S
O640 C663 1.254 . S
O641 Gd589 2.429 . S
O641 C663 1.268 . S
O642 Gd589 2.545 . S
O642 C655 1.250 . S
O643 Gd589 2.412 . S
O643 C656 1.252 . S
C644 O633 1.284 . S
C644 O636 1.250 . S
C645 H614 0.929 . S
C645 C630 1.437 . S
C645 C646 1.317 . S
C646 H617 0.930 . S
C646 C622 1.431 . S
C646 C645 1.317 . S
C647 Gd588 2.828 . S
C647 O632 1.258 . S
C647 O637 1.252 . S
C647 C648 1.497 . S
C648 C647 1.497 . S
C648 C649 1.395 . S
C648 C650 1.380 . S
C649 C648 1.395 . S
C649 C652 1.398 . S
C649 H664 0.930 . S
C650 C648 1.380 . S
C650 C651 1.391 . S
C650 H665 0.930 . S
C651 C650 1.391 . S
C651 C653 1.387 . S
C652 C649 1.398 . S
C652 C653 1.380 . S
C652 H666 0.930 . S
C653 C651 1.387 . S
C653 C652 1.380 . S
C653 H667 0.930 . S
C654 O634 1.254 . S
C654 O635 1.268 . S
C655 O639 1.284 . S
C655 O642 1.250 . S
C656 Gd589 2.828 . S
C656 O638 1.258 . S
C656 O643 1.252 . S
C656 C657 1.497 . S
C657 C656 1.497 . S
C657 C658 1.395 . S
C657 C659 1.380 . S
C658 C657 1.395 . S
C658 C661 1.398 . S
C658 H668 0.930 . S
C659 C657 1.380 . S
C659 C660 1.391 . S
C659 H669 0.930 . S
C660 C659 1.391 . S
C660 C662 1.387 . S
C661 C658 1.398 . S
C661 C662 1.380 . S
C661 H670 0.930 . S
C662 C660 1.387 . S
C662 C661 1.380 . S
C662 H671 0.930 . S
C663 O640 1.254 . S
C663 O641 1.268 . S
H664 C649 0.930 . S
H665 C650 0.930 . S
H666 C652 0.930 . S
H667 C653 0.930 . S
H668 C658 0.930 . S
H669 C659 0.930 . S
H670 C661 0.930 . S
H671 C662 0.930 . S
H672 C684 0.930 . S
H673 C686 0.930 . S
H674 C687 0.930 . S
H675 C691 0.959 . S
H676 C691 0.959 . S
H677 C691 0.961 . S
H678 C692 0.960 . S
H679 C692 0.961 . S
H680 C692 0.959 . S
H681 C695 0.929 . S
H682 C696 0.931 . S
H683 C698 0.930 . S
C684 H672 0.930 . S
C684 C685 1.399 1_556 S
C684 C689 1.399 . S
C685 C684 1.399 1_554 S
C685 C686 1.376 . S
C686 H673 0.930 . S
C686 C685 1.376 . S
C686 C687 1.388 . S
C687 H674 0.930 . S
C687 C686 1.388 . S
C687 C688 1.390 . S
C688 C687 1.390 . S
C688 C689 1.394 1_554 S
C688 C694 1.465 . S
C689 C684 1.399 . S
C689 C688 1.394 1_556 S
C689 C690 1.516 . S
C690 C689 1.516 . S
C690 C691 1.502 . S
C690 C692 1.561 . S
C690 C693 1.526 . S
C691 H675 0.959 . S
C691 H676 0.959 . S
C691 H677 0.961 . S
C691 C690 1.502 . S
C692 H678 0.960 . S
C692 H679 0.961 . S
C692 H680 0.959 . S
C692 C690 1.561 . S
C693 C690 1.526 . S
C693 C694 1.396 1_556 S
C693 C698 1.390 . S
C694 C688 1.465 . S
C694 C693 1.396 1_554 S
C694 C695 1.399 . S
C695 H681 0.929 . S
C695 C694 1.399 . S
C695 C696 1.385 . S
C696 H682 0.931 . S
C696 C695 1.385 . S
C696 C697 1.389 . S
C697 C696 1.389 . S
C697 C698 1.387 1_554 S
C698 H683 0.930 . S
C698 C693 1.390 . S
C698 C697 1.387 1_556 S
H699 C711 0.930 . S
H700 C713 0.930 . S
H701 C714 0.940 . S
H702 C718 0.959 . S
H703 C718 0.959 . S
H704 C718 0.961 . S
H705 C719 0.960 . S
H706 C719 0.961 . S
H707 C719 0.959 . S
H708 C722 0.929 . S
H709 C723 0.931 . S
H710 C725 0.930 . S
C711 H699 0.930 . S
C711 C712 1.399 . S
C711 C716 1.399 . S
C712 C711 1.399 . S
C712 C713 1.376 . S
C713 H700 0.930 . S
C713 C712 1.376 . S
C713 C714 1.384 1_554 S
C714 H701 0.940 . S
C714 C713 1.384 1_556 S
C714 C715 1.384 1_556 S
C715 C714 1.384 1_554 S
C715 C716 1.394 . S
C715 C721 1.465 . S
C716 C711 1.399 . S
C716 C715 1.394 . S
C716 C717 1.516 . S
C717 C716 1.516 . S
C717 C718 1.502 . S
C717 C719 1.561 1_554 S
C717 C720 1.526 . S
C718 H702 0.959 . S
C718 H703 0.959 . S
C718 H704 0.961 . S
C718 C717 1.502 . S
C719 H705 0.960 . S
C719 H706 0.961 . S
C719 H707 0.959 . S
C719 C717 1.561 1_556 S
C720 C717 1.526 . S
C720 C721 1.396 . S
C720 C725 1.390 . S
C721 C715 1.465 . S
C721 C720 1.396 . S
C721 C722 1.399 1_554 S
C722 H708 0.929 . S
C722 C721 1.399 1_556 S
C722 C723 1.385 . S
C723 H709 0.931 . S
C723 C722 1.385 . S
C723 C724 1.389 1_556 S
C724 C723 1.389 1_554 S
C724 C725 1.387 . S
C725 H710 0.930 . S
C725 C720 1.390 . S
C725 C724 1.387 . S
H726 C738 0.930 . S
H727 C740 0.930 . S
H728 C741 0.930 . S
H729 C745 0.959 . S
H730 C745 0.959 . S
H731 C745 0.961 . S
H732 C746 0.960 . S
H733 C746 0.961 . S
H734 C746 0.959 . S
H735 C749 0.929 . S
H736 C750 0.931 . S
H737 C752 0.930 . S
C738 H726 0.930 . S
C738 C739 1.399 . S
C738 C743 1.399 . S
C739 C738 1.399 . S
C739 C740 1.376 . S
C740 H727 0.930 . S
C740 C739 1.376 . S
C740 C741 1.388 . S
C741 H728 0.930 . S
C741 C740 1.388 . S
C741 C742 1.390 . S
C742 C741 1.390 . S
C742 C743 1.394 . S
C742 C748 1.465 . S
C743 C738 1.399 . S
C743 C742 1.394 . S
C743 C744 1.516 . S
C744 C743 1.516 . S
C744 C745 1.502 . S
C744 C746 1.561 . S
C744 C747 1.526 . S
C745 H729 0.959 . S
C745 H730 0.959 . S
C745 H731 0.961 . S
C745 C744 1.502 . S
C746 H732 0.960 . S
C746 H733 0.961 . S
C746 H734 0.959 . S
C746 C744 1.561 . S
C747 C744 1.526 . S
C747 C748 1.396 . S
C747 C752 1.390 . S
C748 C742 1.465 . S
C748 C747 1.396 . S
C748 C749 1.399 . S
C749 H735 0.929 . S
C749 C748 1.399 . S
C749 C750 1.385 . S
C750 H736 0.931 . S
C750 C749 1.385 . S
C750 C751 1.389 . S
C751 C750 1.389 . S
C751 C752 1.387 . S
C752 H737 0.930 . S
C752 C747 1.390 . S
C752 C751 1.387 . S
H753 C765 0.930 . S
H754 C767 0.930 . S
H755 C768 0.930 . S
H756 C772 0.959 . S
H757 C772 0.959 . S
H758 C772 0.961 . S
H759 C773 0.960 . S
H760 C773 0.961 . S
H761 C773 0.959 . S
H762 C776 0.929 . S
H763 C777 0.931 . S
H764 C779 0.930 . S
C765 H753 0.930 . S
C765 C766 1.399 . S
C765 C770 1.399 . S
C766 C765 1.399 . S
C766 C767 1.376 . S
C767 H754 0.930 . S
C767 C766 1.376 . S
C767 C768 1.388 . S
C768 H755 0.930 . S
C768 C767 1.388 . S
C768 C769 1.390 . S
C769 C768 1.390 . S
C769 C770 1.394 . S
C769 C775 1.465 . S
C770 C765 1.399 . S
C770 C769 1.394 . S
C770 C771 1.516 . S
C771 C770 1.516 . S
C771 C772 1.502 . S
C771 C773 1.561 . S
C771 C774 1.526 . S
C772 H756 0.959 . S
C772 H757 0.959 . S
C772 H758 0.961 . S
C772 C771 1.502 . S
C773 H759 0.960 . S
C773 H760 0.961 . S
C773 H761 0.959 . S
C773 C771 1.561 . S
C774 C771 1.526 . S
C774 C775 1.396 . S
C774 C779 1.390 . S
C775 C769 1.465 . S
C775 C774 1.396 . S
C775 C776 1.399 . S
C776 H762 0.929 . S
C776 C775 1.399 . S
C776 C777 1.385 . S
C777 H763 0.931 . S
C777 C776 1.385 . S
C777 C778 1.389 . S
C778 C777 1.389 . S
C778 C779 1.387 . S
C779 H764 0.930 . S
C779 C774 1.390 . S
C779 C778 1.387 . S
H780 C792 0.930 . S
H781 C794 0.930 . S
H782 C795 0.930 . S
H783 C799 0.959 . S
H784 C799 0.959 . S
H785 C799 0.960 1_655 S
H786 C800 0.960 1_655 S
H787 C800 0.961 . S
H788 C800 0.959 . S
H789 C803 0.929 . S
H790 C804 0.931 . S
H791 C806 0.930 . S
C792 H780 0.930 . S
C792 C793 1.399 1_556 S
C792 C797 1.399 . S
C793 C792 1.399 1_554 S
C793 C794 1.376 . S
C794 H781 0.930 . S
C794 C793 1.376 . S
C794 C795 1.388 . S
C795 H782 0.930 . S
C795 C794 1.388 . S
C795 C796 1.390 1_655 S
C796 C795 1.390 1_455 S
C796 C797 1.394 1_454 S
C796 C802 1.465 . S
C797 C792 1.399 . S
C797 C796 1.394 1_656 S
C797 C798 1.516 1_655 S
C798 C797 1.516 1_455 S
C798 C799 1.502 . S
C798 C800 1.561 . S
C798 C801 1.526 . S
C799 H783 0.959 . S
C799 H784 0.959 . S
C799 H785 0.960 1_455 S
C799 C798 1.502 . S
C800 H786 0.960 1_455 S
C800 H787 0.961 . S
C800 H788 0.959 . S
C800 C798 1.561 . S
C801 C798 1.526 . S
C801 C802 1.396 1_556 S
C801 C806 1.390 . S
C802 C796 1.465 . S
C802 C801 1.396 1_554 S
C802 C803 1.399 . S
C803 H789 0.929 . S
C803 C802 1.399 . S
C803 C804 1.385 . S
C804 H790 0.931 . S
C804 C803 1.385 . S
C804 C805 1.389 . S
C805 C804 1.389 . S
C805 C806 1.387 1_554 S
C806 H791 0.930 . S
C806 C801 1.390 . S
C806 C805 1.387 1_556 S
H807 C819 0.930 . S
H808 C821 0.930 . S
H809 C822 0.930 . S
H810 C826 0.959 . S
H811 C826 0.959 . S
H812 C826 0.961 1_455 S
H813 C827 0.960 . S
H814 C827 0.961 . S
H815 C827 0.959 . S
H816 C830 0.929 . S
H817 C831 0.931 . S
H818 C833 0.930 . S
C819 H807 0.930 . S
C819 C820 1.399 . S
C819 C824 1.399 . S
C820 C819 1.399 . S
C820 C821 1.376 1_554 S
C821 H808 0.930 . S
C821 C820 1.376 1_556 S
C821 C822 1.388 . S
C822 H809 0.930 . S
C822 C821 1.388 . S
C822 C823 1.390 1_455 S
C823 C822 1.390 1_655 S
C823 C824 1.394 1_656 S
C823 C829 1.465 . S
C824 C819 1.399 . S
C824 C823 1.394 1_454 S
C824 C825 1.516 1_455 S
C825 C824 1.516 1_655 S
C825 C826 1.502 . S
C825 C827 1.561 . S
C825 C828 1.526 . S
C826 H810 0.959 . S
C826 H811 0.959 . S
C826 H812 0.961 1_655 S
C826 C825 1.502 . S
C827 H813 0.960 . S
C827 H814 0.961 . S
C827 H815 0.959 . S
C827 C825 1.561 . S
C828 C825 1.526 . S
C828 C829 1.396 1_554 S
C828 C833 1.390 . S
C829 C823 1.465 . S
C829 C828 1.396 1_556 S
C829 C830 1.399 . S
C830 H816 0.929 . S
C830 C829 1.399 . S
C830 C831 1.385 . S
C831 H817 0.931 . S
C831 C830 1.385 . S
C831 C832 1.389 1_556 S
C832 C831 1.389 1_554 S
C832 C833 1.387 . S
C833 H818 0.930 . S
C833 C828 1.390 . S
C833 C832 1.387 . S
H834 C846 0.930 . S
H835 C848 0.930 . S
H836 C849 0.930 . S
H837 C853 0.959 . S
H838 C853 0.959 . S
H839 C853 0.961 . S
H840 C854 0.960 . S
H841 C854 0.961 . S
H842 C854 0.959 . S
H843 C857 0.929 . S
H844 C858 0.931 . S
H845 C860 0.930 . S
C846 H834 0.930 . S
C846 C847 1.399 . S
C846 C851 1.399 . S
C847 C846 1.399 . S
C847 C848 1.376 . S
C848 H835 0.930 . S
C848 C847 1.376 . S
C848 C849 1.388 . S
C849 H836 0.930 . S
C849 C848 1.388 . S
C849 C850 1.390 . S
C850 C849 1.390 . S
C850 C851 1.394 . S
C850 C856 1.465 . S
C851 C846 1.399 . S
C851 C850 1.394 . S
C851 C852 1.516 . S
C852 C851 1.516 . S
C852 C853 1.502 . S
C852 C854 1.561 . S
C852 C855 1.526 1_455 S
C853 H837 0.959 . S
C853 H838 0.959 . S
C853 H839 0.961 . S
C853 C852 1.502 . S
C854 H840 0.960 . S
C854 H841 0.961 . S
C854 H842 0.959 . S
C854 C852 1.561 . S
C855 C852 1.526 1_655 S
C855 C856 1.396 1_655 S
C855 C860 1.390 . S
C856 C850 1.465 . S
C856 C855 1.396 1_455 S
C856 C857 1.399 1_455 S
C857 H843 0.929 . S
C857 C856 1.399 1_655 S
C857 C858 1.385 . S
C858 H844 0.931 . S
C858 C857 1.385 . S
C858 C859 1.389 . S
C859 C858 1.389 . S
C859 C860 1.387 . S
C860 H845 0.930 . S
C860 C855 1.390 . S
C860 C859 1.387 . S
H861 C873 0.930 . S
H862 C875 0.930 . S
H863 C876 0.930 . S
H864 C880 0.959 . S
H865 C880 0.959 1_455 S
H866 C880 0.961 . S
H867 C881 0.960 . S
H868 C881 0.961 . S
H869 C881 0.959 . S
H870 C884 0.929 . S
H871 C885 0.931 . S
H872 C887 0.930 . S
C873 H861 0.930 . S
C873 C874 1.399 . S
C873 C878 1.399 . S
C874 C873 1.399 . S
C874 C875 1.376 . S
C875 H862 0.930 . S
C875 C874 1.376 . S
C875 C876 1.388 . S
C876 H863 0.930 . S
C876 C875 1.388 . S
C876 C877 1.390 . S
C877 C876 1.390 . S
C877 C878 1.394 . S
C877 C883 1.465 . S
C878 C873 1.399 . S
C878 C877 1.394 . S
C878 C879 1.516 . S
C879 C878 1.516 . S
C879 C880 1.502 . S
C879 C881 1.561 . S
C879 C882 1.526 1_655 S
C880 H864 0.959 . S
C880 H865 0.959 1_655 S
C880 H866 0.961 . S
C880 C879 1.502 . S
C881 H867 0.960 . S
C881 H868 0.961 . S
C881 H869 0.959 . S
C881 C879 1.561 . S
C882 C879 1.526 1_455 S
C882 C883 1.396 1_455 S
C882 C887 1.390 . S
C883 C877 1.465 . S
C883 C882 1.396 1_655 S
C883 C884 1.399 1_655 S
C884 H870 0.929 . S
C884 C883 1.399 1_455 S
C884 C885 1.385 . S
C885 H871 0.931 . S
C885 C884 1.385 . S
C885 C886 1.389 . S
C886 C885 1.389 . S
C886 C887 1.387 . S
C887 H872 0.930 . S
C887 C882 1.390 . S
C887 C886 1.387 . S
H888 C900 0.930 . S
H889 C902 0.930 . S
H890 C903 0.930 . S
H891 C907 0.959 1_655 S
H892 C907 0.959 . S
H893 C907 0.961 . S
H894 C908 0.960 . S
H895 C908 0.961 . S
H896 C908 0.959 1_554 S
H897 C911 0.929 . S
H898 C912 0.931 . S
H899 C914 0.930 . S
C900 H888 0.930 . S
C900 C901 1.399 1_556 S
C900 C905 1.399 . S
C901 C900 1.399 1_554 S
C901 C902 1.376 . S
C902 H889 0.930 . S
C902 C901 1.376 . S
C902 C903 1.388 1_455 S
C903 H890 0.930 . S
C903 C902 1.388 1_655 S
C903 C904 1.390 1_655 S
C904 C903 1.390 1_455 S
C904 C905 1.394 1_554 S
C904 C910 1.465 1_455 S
C905 C900 1.399 . S
C905 C904 1.394 1_556 S
C905 C906 1.516 . S
C906 C905 1.516 . S
C906 C907 1.502 . S
C906 C908 1.561 . S
C906 C909 1.518 1_455 S
C907 H891 0.959 1_455 S
C907 H892 0.959 . S
C907 H893 0.961 . S
C907 C906 1.502 . S
C908 H894 0.960 . S
C908 H895 0.961 . S
C908 H896 0.959 1_556 S
C908 C906 1.561 . S
C909 C906 1.518 1_655 S
C909 C910 1.401 1_556 S
C909 C914 1.393 . S
C910 C904 1.465 1_655 S
C910 C909 1.401 1_554 S
C910 C911 1.399 . S
C911 H897 0.929 . S
C911 C910 1.399 . S
C911 C912 1.385 . S
C912 H898 0.931 . S
C912 C911 1.385 . S
C912 C913 1.389 . S
C913 C912 1.389 . S
C913 C914 1.387 1_554 S
C914 H899 0.930 . S
C914 C909 1.393 . S
C914 C913 1.387 1_556 S
H915 C927 0.930 . S
H916 C929 0.930 . S
H917 C930 0.930 . S
H918 C934 0.959 . S
H919 C934 0.959 . S
H920 C934 0.961 . S
H921 C935 0.960 . S
H922 C935 0.961 . S
H923 C935 0.959 . S
H924 C938 0.929 . S
H925 C939 0.931 . S
H926 C941 0.930 . S
C927 H915 0.930 . S
C927 C928 1.399 . S
C927 C932 1.399 . S
C928 C927 1.399 . S
C928 C929 1.376 . S
C929 H916 0.930 . S
C929 C928 1.376 . S
C929 C930 1.388 . S
C930 H917 0.930 . S
C930 C929 1.388 . S
C930 C931 1.390 . S
C931 C930 1.390 . S
C931 C932 1.394 . S
C931 C937 1.465 . S
C932 C927 1.399 . S
C932 C931 1.394 . S
C932 C933 1.516 1_455 S
C933 C932 1.516 1_655 S
C933 C934 1.502 . S
C933 C935 1.561 1_655 S
C933 C936 1.526 . S
C934 H918 0.959 . S
C934 H919 0.959 . S
C934 H920 0.961 . S
C934 C933 1.502 . S
C935 H921 0.960 . S
C935 H922 0.961 . S
C935 H923 0.959 . S
C935 C933 1.561 1_455 S
C936 C933 1.526 . S
C936 C937 1.396 1_655 S
C936 C941 1.390 . S
C937 C931 1.465 . S
C937 C936 1.396 1_455 S
C937 C938 1.399 . S
C938 H924 0.929 . S
C938 C937 1.399 . S
C938 C939 1.385 1_455 S
C939 H925 0.931 . S
C939 C938 1.385 1_655 S
C939 C940 1.389 . S
C940 C939 1.389 . S
C940 C941 1.387 . S
C941 H926 0.930 . S
C941 C936 1.390 . S
C941 C940 1.387 . S
H942 C954 0.930 . S
H943 C956 0.930 . S
H944 C957 0.930 . S
H945 C961 0.959 . S
H946 C961 0.959 . S
H947 C961 0.961 . S
H948 C962 0.960 1_565 S
H949 C962 0.961 . S
H950 C962 0.959 1_554 S
H951 C965 0.929 . S
H952 C966 0.931 . S
H953 C968 0.930 . S
C954 H942 0.930 . S
C954 C955 1.399 1_556 S
C954 C959 1.399 . S
C955 C954 1.399 1_554 S
C955 C956 1.376 . S
C956 H943 0.930 . S
C956 C955 1.376 . S
C956 C957 1.388 . S
C957 H944 0.930 . S
C957 C956 1.388 . S
C957 C958 1.390 . S
C958 C957 1.390 . S
C958 C959 1.394 1_554 S
C958 C964 1.465 1_565 S
C959 C954 1.399 . S
C959 C958 1.394 1_556 S
C959 C960 1.516 . S
C960 C959 1.516 . S
C960 C961 1.502 . S
C960 C962 1.561 1_565 S
C960 C963 1.526 1_565 S
C961 H945 0.959 . S
C961 H946 0.959 . S
C961 H947 0.961 . S
C961 C960 1.502 . S
C962 H948 0.960 1_545 S
C962 H949 0.961 . S
C962 H950 0.959 1_556 S
C962 C960 1.561 1_545 S
C963 C960 1.526 1_545 S
C963 C964 1.396 1_556 S
C963 C968 1.390 . S
C964 C958 1.465 1_545 S
C964 C963 1.396 1_554 S
C964 C965 1.399 . S
C965 H951 0.929 . S
C965 C964 1.399 . S
C965 C966 1.385 . S
C966 H952 0.931 . S
C966 C965 1.385 . S
C966 C967 1.389 . S
C967 C966 1.389 . S
C967 C968 1.387 1_554 S
C968 H953 0.930 . S
C968 C963 1.390 . S
C968 C967 1.387 1_556 S
H969 C981 0.930 . S
H970 C983 0.930 . S
H971 C984 0.930 1_565 S
H972 C988 0.959 . S
H973 C988 0.959 . S
H974 C988 0.961 . S
H975 C989 0.960 . S
H976 C989 0.961 . S
H977 C989 0.959 . S
H978 C992 0.929 . S
H979 C993 0.931 . S
H980 C995 0.930 . S
C981 H969 0.930 . S
C981 C982 1.399 . S
C981 C986 1.399 . S
C982 C981 1.399 . S
C982 C983 1.376 . S
C983 H970 0.930 . S
C983 C982 1.376 . S
C983 C984 1.388 . S
C984 H971 0.930 1_545 S
C984 C983 1.388 . S
C984 C985 1.390 . S
C985 C984 1.390 . S
C985 C986 1.394 . S
C985 C991 1.465 1_545 S
C986 C981 1.399 . S
C986 C985 1.394 . S
C986 C987 1.516 . S
C987 C986 1.516 . S
C987 C988 1.502 . S
C987 C989 1.561 . S
C987 C990 1.526 1_545 S
C988 H972 0.959 . S
C988 H973 0.959 . S
C988 H974 0.961 . S
C988 C987 1.502 . S
C989 H975 0.960 . S
C989 H976 0.961 . S
C989 H977 0.959 . S
C989 C987 1.561 . S
C990 C987 1.526 1_565 S
C990 C991 1.396 . S
C990 C995 1.390 . S
C991 C985 1.465 1_565 S
C991 C990 1.396 . S
C991 C992 1.399 . S
C992 H978 0.929 . S
C992 C991 1.399 . S
C992 C993 1.385 . S
C993 H979 0.931 . S
C993 C992 1.385 . S
C993 C994 1.389 . S
C994 C993 1.389 . S
C994 C995 1.387 . S
C995 H980 0.930 . S
C995 C990 1.390 . S
C995 C994 1.387 . S
H996 C1008 0.930 . S
H997 C1010 0.930 . S
H998 C1011 0.930 . S
H999 C1015 0.959 . S
H1000 C1015 0.959 . S
H1001 C1015 0.961 . S
H1002 C1016 0.960 . S
H1003 C1016 0.961 . S
H1004 C1016 0.959 . S
H1005 C1019 0.929 . S
H1006 C1020 0.931 . S
H1007 C1022 0.930 . S
C1008 H996 0.930 . S
C1008 C1009 1.399 1_556 S
C1008 C1013 1.399 . S
C1009 C1008 1.399 1_554 S
C1009 C1010 1.376 . S
C1010 H997 0.930 . S
C1010 C1009 1.376 . S
C1010 C1011 1.388 . S
C1011 H998 0.930 . S
C1011 C1010 1.388 . S
C1011 C1012 1.390 . S
C1012 C1011 1.390 . S
C1012 C1013 1.394 1_554 S
C1012 C1018 1.465 . S
C1013 C1008 1.399 . S
C1013 C1012 1.394 1_556 S
C1013 C1014 1.516 . S
C1014 C1013 1.516 . S
C1014 C1015 1.502 . S
C1014 C1016 1.561 . S
C1014 C1017 1.526 . S
C1015 H999 0.959 . S
C1015 H1000 0.959 . S
C1015 H1001 0.961 . S
C1015 C1014 1.502 . S
C1016 H1002 0.960 . S
C1016 H1003 0.961 . S
C1016 H1004 0.959 . S
C1016 C1014 1.561 . S
C1017 C1014 1.526 . S
C1017 C1018 1.396 1_556 S
C1017 C1022 1.390 . S
C1018 C1012 1.465 . S
C1018 C1017 1.396 1_554 S
C1018 C1019 1.399 . S
C1019 H1005 0.929 . S
C1019 C1018 1.399 . S
C1019 C1020 1.385 . S
C1020 H1006 0.931 . S
C1020 C1019 1.385 . S
C1020 C1021 1.389 . S
C1021 C1020 1.389 . S
C1021 C1022 1.387 1_554 S
C1022 H1007 0.930 . S
C1022 C1017 1.390 . S
C1022 C1021 1.387 1_556 S
H1023 C1035 0.930 . S
H1024 C1037 0.930 . S
H1025 C1038 0.930 . S
H1026 C1042 0.959 . S
H1027 C1042 0.959 . S
H1028 C1042 0.961 . S
H1029 C1043 0.960 . S
H1030 C1043 0.961 . S
H1031 C1043 0.959 . S
H1032 C1046 0.929 . S
H1033 C1047 0.931 . S
H1034 C1049 0.930 . S
C1035 H1023 0.930 . S
C1035 C1036 1.399 1_556 S
C1035 C1040 1.399 . S
C1036 C1035 1.399 1_554 S
C1036 C1037 1.376 . S
C1037 H1024 0.930 . S
C1037 C1036 1.376 . S
C1037 C1038 1.388 . S
C1038 H1025 0.930 . S
C1038 C1037 1.388 . S
C1038 C1039 1.390 . S
C1039 C1038 1.390 . S
C1039 C1040 1.394 1_554 S
C1039 C1045 1.465 . S
C1040 C1035 1.399 . S
C1040 C1039 1.394 1_556 S
C1040 C1041 1.516 . S
C1041 C1040 1.516 . S
C1041 C1042 1.502 . S
C1041 C1043 1.561 . S
C1041 C1044 1.526 . S
C1042 H1026 0.959 . S
C1042 H1027 0.959 . S
C1042 H1028 0.961 . S
C1042 C1041 1.502 . S
C1043 H1029 0.960 . S
C1043 H1030 0.961 . S
C1043 H1031 0.959 . S
C1043 C1041 1.561 . S
C1044 C1041 1.526 . S
C1044 C1045 1.396 1_556 S
C1044 C1049 1.390 . S
C1045 C1039 1.465 . S
C1045 C1044 1.396 1_554 S
C1045 C1046 1.399 . S
C1046 H1032 0.929 . S
C1046 C1045 1.399 . S
C1046 C1047 1.385 . S
C1047 H1033 0.931 . S
C1047 C1046 1.385 . S
C1047 C1048 1.389 . S
C1048 C1047 1.389 . S
C1048 C1049 1.387 1_554 S
C1049 H1034 0.930 . S
C1049 C1044 1.390 . S
C1049 C1048 1.387 1_556 S
H1050 C1062 0.930 . S
H1051 C1064 0.930 . S
H1052 C1065 0.930 . S
H1053 C1069 0.959 . S
H1054 C1069 0.959 . S
H1055 C1069 0.961 . S
H1056 C1070 0.960 . S
H1057 C1070 0.961 . S
H1058 C1070 0.959 . S
H1059 C1073 0.929 . S
H1060 C1074 0.931 . S
H1061 C1076 0.930 . S
C1062 H1050 0.930 . S
C1062 C1063 1.399 . S
C1062 C1067 1.399 . S
C1063 C1062 1.399 . S
C1063 C1064 1.376 . S
C1064 H1051 0.930 . S
C1064 C1063 1.376 . S
C1064 C1065 1.388 . S
C1065 H1052 0.930 . S
C1065 C1064 1.388 . S
C1065 C1066 1.390 . S
C1066 C1065 1.390 . S
C1066 C1067 1.394 . S
C1066 C1072 1.465 . S
C1067 C1062 1.399 . S
C1067 C1066 1.394 . S
C1067 C1068 1.516 . S
C1068 C1067 1.516 . S
C1068 C1069 1.502 . S
C1068 C1070 1.561 . S
C1068 C1071 1.526 . S
C1069 H1053 0.959 . S
C1069 H1054 0.959 . S
C1069 H1055 0.961 . S
C1069 C1068 1.502 . S
C1070 H1056 0.960 . S
C1070 H1057 0.961 . S
C1070 H1058 0.959 . S
C1070 C1068 1.561 . S
C1071 C1068 1.526 . S
C1071 C1072 1.396 . S
C1071 C1076 1.390 . S
C1072 C1066 1.465 . S
C1072 C1071 1.396 . S
C1072 C1073 1.399 . S
C1073 H1059 0.929 . S
C1073 C1072 1.399 . S
C1073 C1074 1.385 . S
C1074 H1060 0.931 . S
C1074 C1073 1.385 . S
C1074 C1075 1.389 . S
C1075 C1074 1.389 . S
C1075 C1076 1.387 . S
C1076 H1061 0.930 . S
C1076 C1071 1.390 . S
C1076 C1075 1.387 . S
H1077 C1089 0.930 . S
H1078 C1091 0.930 . S
H1079 C1092 0.930 . S
H1080 C1096 0.959 . S
H1081 C1096 0.959 . S
H1082 C1096 0.961 . S
H1083 C1097 0.960 . S
H1084 C1097 0.961 . S
H1085 C1097 0.959 . S
H1086 C1100 0.929 . S
H1087 C1101 0.931 . S
H1088 C1103 0.930 . S
C1089 H1077 0.930 . S
C1089 C1090 1.399 . S
C1089 C1094 1.399 . S
C1090 C1089 1.399 . S
C1090 C1091 1.376 . S
C1091 H1078 0.930 . S
C1091 C1090 1.376 . S
C1091 C1092 1.388 . S
C1092 H1079 0.930 . S
C1092 C1091 1.388 . S
C1092 C1093 1.390 . S
C1093 C1092 1.390 . S
C1093 C1094 1.394 . S
C1093 C1099 1.465 . S
C1094 C1089 1.399 . S
C1094 C1093 1.394 . S
C1094 C1095 1.516 . S
C1095 C1094 1.516 . S
C1095 C1096 1.502 . S
C1095 C1097 1.561 . S
C1095 C1098 1.526 . S
C1096 H1080 0.959 . S
C1096 H1081 0.959 . S
C1096 H1082 0.961 . S
C1096 C1095 1.502 . S
C1097 H1083 0.960 . S
C1097 H1084 0.961 . S
C1097 H1085 0.959 . S
C1097 C1095 1.561 . S
C1098 C1095 1.526 . S
C1098 C1099 1.396 . S
C1098 C1103 1.390 . S
C1099 C1093 1.465 . S
C1099 C1098 1.396 . S
C1099 C1100 1.399 . S
C1100 H1086 0.929 . S
C1100 C1099 1.399 . S
C1100 C1101 1.385 . S
C1101 H1087 0.931 . S
C1101 C1100 1.385 . S
C1101 C1102 1.389 . S
C1102 C1101 1.389 . S
C1102 C1103 1.387 . S
C1103 H1088 0.930 . S
C1103 C1098 1.390 . S
C1103 C1102 1.387 . S
H1104 C1116 0.930 . S
H1105 C1118 0.930 . S
H1106 C1119 0.930 . S
H1107 C1123 0.959 . S
H1108 C1123 0.959 . S
H1109 C1123 0.961 . S
H1110 C1124 0.960 . S
H1111 C1124 0.961 . S
H1112 C1124 0.959 . S
H1113 C1127 0.929 . S
H1114 C1128 0.931 . S
H1115 C1130 0.930 . S
C1116 H1104 0.930 . S
C1116 C1117 1.399 . S
C1116 C1121 1.399 . S
C1117 C1116 1.399 . S
C1117 C1118 1.376 1_455 S
C1118 H1105 0.930 . S
C1118 C1117 1.376 1_655 S
C1118 C1119 1.388 . S
C1119 H1106 0.930 . S
C1119 C1118 1.388 . S
C1119 C1120 1.390 1_655 S
C1120 C1119 1.390 1_455 S
C1120 C1121 1.394 . S
C1120 C1126 1.465 1_455 S
C1121 C1116 1.399 . S
C1121 C1120 1.394 . S
C1121 C1122 1.516 . S
C1122 C1121 1.516 . S
C1122 C1123 1.502 . S
C1122 C1124 1.561 . S
C1122 C1125 1.526 . S
C1123 H1107 0.959 . S
C1123 H1108 0.959 . S
C1123 H1109 0.961 . S
C1123 C1122 1.502 . S
C1124 H1110 0.960 . S
C1124 H1111 0.961 . S
C1124 H1112 0.959 . S
C1124 C1122 1.561 . S
C1125 C1122 1.526 . S
C1125 C1126 1.396 1_455 S
C1125 C1130 1.390 . S
C1126 C1120 1.465 1_655 S
C1126 C1125 1.396 1_655 S
C1126 C1127 1.399 . S
C1127 H1113 0.929 . S
C1127 C1126 1.399 . S
C1127 C1128 1.385 . S
C1128 H1114 0.931 . S
C1128 C1127 1.385 . S
C1128 C1129 1.389 . S
C1129 C1128 1.389 . S
C1129 C1130 1.387 1_655 S
C1130 H1115 0.930 . S
C1130 C1125 1.390 . S
C1130 C1129 1.387 1_455 S
H1131 C1143 0.930 . S
H1132 C1145 0.930 . S
H1133 C1146 0.930 . S
H1134 C1150 0.959 . S
H1135 C1150 0.959 . S
H1136 C1150 0.961 . S
H1137 C1151 0.960 . S
H1138 C1151 0.961 . S
H1139 C1151 0.959 . S
H1140 C1154 0.929 . S
H1141 C1155 0.931 . S
H1142 C1157 0.930 . S
C1143 H1131 0.930 . S
C1143 C1144 1.399 . S
C1143 C1148 1.399 1_655 S
C1144 C1143 1.399 . S
C1144 C1145 1.376 1_655 S
C1145 H1132 0.930 . S
C1145 C1144 1.376 1_455 S
C1145 C1146 1.388 . S
C1146 H1133 0.930 . S
C1146 C1145 1.388 . S
C1146 C1147 1.390 . S
C1147 C1146 1.390 . S
C1147 C1148 1.394 . S
C1147 C1153 1.465 . S
C1148 C1143 1.399 1_455 S
C1148 C1147 1.394 . S
C1148 C1149 1.516 . S
C1149 C1148 1.516 . S
C1149 C1150 1.502 1_455 S
C1149 C1151 1.561 . S
C1149 C1152 1.526 . S
C1150 H1134 0.959 . S
C1150 H1135 0.959 . S
C1150 H1136 0.961 . S
C1150 C1149 1.502 1_655 S
C1151 H1137 0.960 . S
C1151 H1138 0.961 . S
C1151 H1139 0.959 . S
C1151 C1149 1.561 . S
C1152 C1149 1.526 . S
C1152 C1153 1.396 . S
C1152 C1157 1.390 . S
C1153 C1147 1.465 . S
C1153 C1152 1.396 . S
C1153 C1154 1.399 . S
C1154 H1140 0.929 . S
C1154 C1153 1.399 . S
C1154 C1155 1.385 . S
C1155 H1141 0.931 . S
C1155 C1154 1.385 . S
C1155 C1156 1.389 . S
C1156 C1155 1.389 . S
C1156 C1157 1.387 . S
C1157 H1142 0.930 . S
C1157 C1152 1.390 . S
C1157 C1156 1.387 . S
H1158 C1170 0.930 . S
H1159 C1172 0.930 . S
H1160 C1173 0.930 . S
H1161 C1177 0.959 . S
H1162 C1177 0.959 . S
H1163 C1177 0.961 . S
H1164 C1178 0.960 . S
H1165 C1178 0.961 . S
H1166 C1178 0.959 . S
H1167 C1181 0.929 . S
H1168 C1182 0.931 . S
H1169 C1184 0.931 . S
C1170 H1158 0.930 . S
C1170 C1171 1.399 . S
C1170 C1175 1.399 . S
C1171 C1170 1.399 . S
C1171 C1172 1.376 . S
C1172 H1159 0.930 . S
C1172 C1171 1.376 . S
C1172 C1173 1.388 . S
C1173 H1160 0.930 . S
C1173 C1172 1.388 . S
C1173 C1174 1.390 . S
C1174 C1173 1.390 . S
C1174 C1175 1.394 . S
C1174 C1180 1.462 1_655 S
C1175 C1170 1.399 . S
C1175 C1174 1.394 . S
C1175 C1176 1.516 . S
C1176 C1175 1.516 . S
C1176 C1177 1.502 . S
C1176 C1178 1.561 1_655 S
C1176 C1179 1.526 . S
C1177 H1161 0.959 . S
C1177 H1162 0.959 . S
C1177 H1163 0.961 . S
C1177 C1176 1.502 . S
C1178 H1164 0.960 . S
C1178 H1165 0.961 . S
C1178 H1166 0.959 . S
C1178 C1176 1.561 1_455 S
C1179 C1176 1.526 . S
C1179 C1180 1.395 1_655 S
C1179 C1184 1.390 1_655 S
C1180 C1174 1.462 1_455 S
C1180 C1179 1.395 1_455 S
C1180 C1181 1.402 . S
C1181 H1167 0.929 . S
C1181 C1180 1.402 . S
C1181 C1182 1.385 . S
C1182 H1168 0.931 . S
C1182 C1181 1.385 . S
C1182 C1183 1.389 . S
C1183 C1182 1.389 . S
C1183 C1184 1.387 . S
C1184 H1169 0.931 . S
C1184 C1179 1.390 1_455 S
C1184 C1183 1.387 . S
H1185 C1197 0.930 . S
H1186 C1199 0.930 . S
H1187 C1200 0.930 . S
H1188 C1204 0.959 . S
H1189 C1204 0.959 . S
H1190 C1204 0.961 . S
H1191 C1205 0.960 . S
H1192 C1205 0.961 1_455 S
H1193 C1205 0.959 . S
H1194 C1208 0.929 . S
H1195 C1209 0.931 . S
H1196 C1211 0.930 . S
C1197 H1185 0.930 . S
C1197 C1198 1.399 . S
C1197 C1202 1.399 . S
C1198 C1197 1.399 . S
C1198 C1199 1.376 . S
C1199 H1186 0.930 . S
C1199 C1198 1.376 . S
C1199 C1200 1.388 . S
C1200 H1187 0.930 . S
C1200 C1199 1.388 . S
C1200 C1201 1.390 . S
C1201 C1200 1.390 . S
C1201 C1202 1.394 . S
C1201 C1207 1.465 . S
C1202 C1197 1.399 . S
C1202 C1201 1.394 . S
C1202 C1203 1.516 1_655 S
C1203 C1202 1.516 1_455 S
C1203 C1204 1.502 . S
C1203 C1205 1.561 1_455 S
C1203 C1206 1.526 . S
C1204 H1188 0.959 . S
C1204 H1189 0.959 . S
C1204 H1190 0.961 . S
C1204 C1203 1.502 . S
C1205 H1191 0.960 . S
C1205 H1192 0.961 1_655 S
C1205 H1193 0.959 . S
C1205 C1203 1.561 1_655 S
C1206 C1203 1.526 . S
C1206 C1207 1.396 1_455 S
C1206 C1211 1.390 . S
C1207 C1201 1.465 . S
C1207 C1206 1.396 1_655 S
C1207 C1208 1.399 . S
C1208 H1194 0.929 . S
C1208 C1207 1.399 . S
C1208 C1209 1.385 . S
C1209 H1195 0.931 . S
C1209 C1208 1.385 . S
C1209 C1210 1.389 1_655 S
C1210 C1209 1.389 1_455 S
C1210 C1211 1.387 . S
C1211 H1196 0.930 . S
C1211 C1206 1.390 . S
C1211 C1210 1.387 . S
H1212 C1224 0.930 . S
H1213 C1226 0.930 . S
H1214 C1227 0.930 . S
H1215 C1231 0.959 . S
H1216 C1231 0.959 . S
H1217 C1231 0.961 . S
H1218 C1232 0.960 . S
H1219 C1232 0.961 . S
H1220 C1232 0.959 . S
H1221 C1235 0.929 . S
H1222 C1236 0.931 . S
H1223 C1238 0.930 . S
C1224 H1212 0.930 . S
C1224 C1225 1.399 . S
C1224 C1229 1.399 . S
C1225 C1224 1.399 . S
C1225 C1226 1.376 . S
C1226 H1213 0.930 . S
C1226 C1225 1.376 . S
C1226 C1227 1.388 . S
C1227 H1214 0.930 . S
C1227 C1226 1.388 . S
C1227 C1228 1.390 . S
C1228 C1227 1.390 . S
C1228 C1229 1.394 . S
C1228 C1234 1.465 . S
C1229 C1224 1.399 . S
C1229 C1228 1.394 . S
C1229 C1230 1.516 . S
C1230 C1229 1.516 . S
C1230 C1231 1.502 . S
C1230 C1232 1.561 . S
C1230 C1233 1.526 . S
C1231 H1215 0.959 . S
C1231 H1216 0.959 . S
C1231 H1217 0.961 . S
C1231 C1230 1.502 . S
C1232 H1218 0.960 . S
C1232 H1219 0.961 . S
C1232 H1220 0.959 . S
C1232 C1230 1.561 . S
C1233 C1230 1.526 . S
C1233 C1234 1.396 . S
C1233 C1238 1.390 . S
C1234 C1228 1.465 . S
C1234 C1233 1.396 . S
C1234 C1235 1.399 . S
C1235 H1221 0.929 . S
C1235 C1234 1.399 . S
C1235 C1236 1.385 . S
C1236 H1222 0.931 . S
C1236 C1235 1.385 . S
C1236 C1237 1.389 . S
C1237 C1236 1.389 . S
C1237 C1238 1.387 . S
C1238 H1223 0.930 . S
C1238 C1233 1.390 . S
C1238 C1237 1.387 . S
H1239 C1251 0.930 . S
H1240 C1253 0.930 . S
H1241 C1254 0.930 . S
H1242 C1258 0.959 . S
H1243 C1258 0.959 . S
H1244 C1258 0.961 . S
H1245 C1259 0.960 . S
H1246 C1259 0.961 . S
H1247 C1259 0.959 . S
H1248 C1262 0.929 . S
H1249 C1263 0.931 . S
H1250 C1265 0.930 . S
C1251 H1239 0.930 . S
C1251 C1252 1.399 . S
C1251 C1256 1.399 . S
C1252 C1251 1.399 . S
C1252 C1253 1.376 . S
C1253 H1240 0.930 . S
C1253 C1252 1.376 . S
C1253 C1254 1.388 . S
C1254 H1241 0.930 . S
C1254 C1253 1.388 . S
C1254 C1255 1.390 . S
C1255 C1254 1.390 . S
C1255 C1256 1.394 . S
C1255 C1261 1.465 . S
C1256 C1251 1.399 . S
C1256 C1255 1.394 . S
C1256 C1257 1.516 . S
C1257 C1256 1.516 . S
C1257 C1258 1.502 . S
C1257 C1259 1.561 . S
C1257 C1260 1.526 . S
C1258 H1242 0.959 . S
C1258 H1243 0.959 . S
C1258 H1244 0.961 . S
C1258 C1257 1.502 . S
C1259 H1245 0.960 . S
C1259 H1246 0.961 . S
C1259 H1247 0.959 . S
C1259 C1257 1.561 . S
C1260 C1257 1.526 . S
C1260 C1261 1.396 . S
C1260 C1265 1.390 . S
C1261 C1255 1.465 . S
C1261 C1260 1.396 . S
C1261 C1262 1.399 . S
C1262 H1248 0.929 . S
C1262 C1261 1.399 . S
C1262 C1263 1.385 . S
C1263 H1249 0.931 . S
C1263 C1262 1.385 . S
C1263 C1264 1.389 . S
C1264 C1263 1.389 . S
C1264 C1265 1.387 . S
C1265 H1250 0.930 . S
C1265 C1260 1.390 . S
C1265 C1264 1.387 . S
H1266 C1278 0.930 . S
H1267 C1280 0.930 . S
H1268 C1281 0.930 . S
H1269 C1285 0.959 . S
H1270 C1285 0.959 . S
H1271 C1285 0.961 . S
H1272 C1286 0.960 . S
H1273 C1286 0.961 . S
H1274 C1286 0.959 . S
H1275 C1289 0.929 . S
H1276 C1290 0.931 . S
H1277 C1292 0.930 . S
C1278 H1266 0.930 . S
C1278 C1279 1.399 . S
C1278 C1283 1.399 . S
C1279 C1278 1.399 . S
C1279 C1280 1.376 . S
C1280 H1267 0.930 . S
C1280 C1279 1.376 . S
C1280 C1281 1.388 . S
C1281 H1268 0.930 . S
C1281 C1280 1.388 . S
C1281 C1282 1.390 . S
C1282 C1281 1.390 . S
C1282 C1283 1.394 . S
C1282 C1288 1.465 . S
C1283 C1278 1.399 . S
C1283 C1282 1.394 . S
C1283 C1284 1.516 . S
C1284 C1283 1.516 . S
C1284 C1285 1.502 . S
C1284 C1286 1.561 . S
C1284 C1287 1.526 . S
C1285 H1269 0.959 . S
C1285 H1270 0.959 . S
C1285 H1271 0.961 . S
C1285 C1284 1.502 . S
C1286 H1272 0.960 . S
C1286 H1273 0.961 . S
C1286 H1274 0.959 . S
C1286 C1284 1.561 . S
C1287 C1284 1.526 . S
C1287 C1288 1.396 . S
C1287 C1292 1.390 . S
C1288 C1282 1.465 . S
C1288 C1287 1.396 . S
C1288 C1289 1.399 . S
C1289 H1275 0.929 . S
C1289 C1288 1.399 . S
C1289 C1290 1.385 . S
C1290 H1276 0.931 . S
C1290 C1289 1.385 . S
C1290 C1291 1.389 . S
C1291 C1290 1.389 . S
C1291 C1292 1.387 . S
C1292 H1277 0.930 . S
C1292 C1287 1.390 . S
C1292 C1291 1.387 . S
H1293 C1305 0.930 . S
H1294 C1307 0.930 . S
H1295 C1308 0.930 . S
H1296 C1312 0.959 . S
H1297 C1312 0.959 . S
H1298 C1312 0.961 . S
H1299 C1313 0.960 . S
H1300 C1313 0.961 . S
H1301 C1313 0.959 . S
H1302 C1316 0.929 . S
H1303 C1317 0.931 . S
H1304 C1319 0.930 . S
C1305 H1293 0.930 . S
C1305 C1306 1.399 . S
C1305 C1310 1.399 . S
C1306 C1305 1.399 . S
C1306 C1307 1.376 . S
C1307 H1294 0.930 . S
C1307 C1306 1.376 . S
C1307 C1308 1.388 . S
C1308 H1295 0.930 . S
C1308 C1307 1.388 . S
C1308 C1309 1.390 . S
C1309 C1308 1.390 . S
C1309 C1310 1.394 . S
C1309 C1315 1.465 . S
C1310 C1305 1.399 . S
C1310 C1309 1.394 . S
C1310 C1311 1.516 . S
C1311 C1310 1.516 . S
C1311 C1312 1.502 . S
C1311 C1313 1.561 . S
C1311 C1314 1.526 . S
C1312 H1296 0.959 . S
C1312 H1297 0.959 . S
C1312 H1298 0.961 . S
C1312 C1311 1.502 . S
C1313 H1299 0.960 . S
C1313 H1300 0.961 . S
C1313 H1301 0.959 . S
C1313 C1311 1.561 . S
C1314 C1311 1.526 . S
C1314 C1315 1.396 . S
C1314 C1319 1.390 . S
C1315 C1309 1.465 . S
C1315 C1314 1.396 . S
C1315 C1316 1.399 . S
C1316 H1302 0.929 . S
C1316 C1315 1.399 . S
C1316 C1317 1.385 . S
C1317 H1303 0.931 . S
C1317 C1316 1.385 . S
C1317 C1318 1.389 . S
C1318 C1317 1.389 . S
C1318 C1319 1.387 . S
C1319 H1304 0.930 . S
C1319 C1314 1.390 . S
C1319 C1318 1.387 . S
C685 C56 2.086 . S
C697 C67 2.046 . S
C712 C140 2.059 . S
C724 C151 2.069 . S
C739 C235 2.042 . S
C751 C224 2.093 . S
C766 C319 2.087 . S
C778 C308 2.045 . S
C793 C392 2.094 . S
C805 C403 2.045 . S
C820 C487 2.082 . S
C832 C476 2.048 . S
C847 C571 2.061 . S
C859 C560 2.067 . S
C874 C644 2.084 . S
C886 C655 2.047 . S
C901 C147 1.833 1_554 S
C913 C72 1.761 . S
C928 C315 1.847 . S
C940 C240 1.731 . S
C955 C408 1.737 . S
C967 C483 1.846 1_554 S
C982 C576 1.782 . S
C994 C651 1.815 . S
C1009 C63 1.459 1_554 S
C1021 C492 1.328 . S
C1036 C399 1.456 1_554 S
C1048 C156 1.324 . S
C1063 C231 1.457 . S
C1075 C660 1.325 . S
C1090 C324 1.387 . S
C1102 C567 1.377 . S
C1117 C75 1.469 . S
C1129 C327 1.578 . S
C1144 C159 1.591 . S
C1156 C243 1.524 . S
C1171 C150 1.468 . S
C1183 C234 1.588 . S
C1198 C318 1.546 . S
C1210 C66 1.592 . S
C1225 C411 1.541 . S
C1237 C663 1.603 . S
C1252 C495 1.585 . S
C1264 C579 1.511 . S
C1279 C486 1.455 . S
C1291 C570 1.571 . S
C1306 C654 1.455 . S
C1318 C402 1.573 . S
