# Generated by pormake.
# Topology kag, (6)-cn, num edge types: 1
# Building blocks:
#     Node 0, Type 0, BuildingBlock: KUMJIN_clean_sbu_1, # of connection points: 6
#     Node 1, Type 0, BuildingBlock: KUMJIN_clean_sbu_1, # of connection points: 6
#     Node 2, Type 0, BuildingBlock: KUMJIN_clean_sbu_1, # of connection points: 6
#     Edge 3, Type (0, 0), BuildingBlock: TEMPAE_clean_linker_10, # of connection points: 2
#     Edge 4, Type (0, 0), BuildingBlock: TEMPAE_clean_linker_10, # of connection points: 2
#     Edge 5, Type (0, 0), BuildingBlock: TEMPAE_clean_linker_10, # of connection points: 2
#     Edge 6, Type (0, 0), BuildingBlock: TEMPAE_clean_linker_10, # of connection points: 2
#     Edge 7, Type (0, 0), BuildingBlock: TEMPAE_clean_linker_10, # of connection points: 2
#     Edge 8, Type (0, 0), BuildingBlock: TEMPAE_clean_linker_10, # of connection points: 2
#     Edge 9, Type (0, 0), BuildingBlock: TEMPAE_clean_linker_10, # of connection points: 2
#     Edge 10, Type (0, 0), BuildingBlock: TEMPAE_clean_linker_10, # of connection points: 2
#     Edge 11, Type (0, 0), BuildingBlock: TEMPAE_clean_linker_10, # of connection points: 2
# Relax obj value: 0.095
# Max RMSD: 0.184
# Mean RMSD: 0.126
data_MOF--net-kag--node1-KUMJIN_clean_sbu_1--edge1-TEMPAE_clean_linker_10
_symmetry_space_group_name_H-M    P1
_symmetry_Int_Tables_number       1
_symmetry_cell_setting            triclinic
loop_
_symmetry_equiv_pos_as_xyz
'x, y, z'
_cell_length_a     31.114878
_cell_length_b     41.005433
_cell_length_c     15.114567
_cell_angle_alpha  108.79372
_cell_angle_beta   97.42523
_cell_angle_gamma 98.614604
loop_
_atom_site_label
_atom_site_type_symbol
_atom_site_fract_x
_atom_site_fract_y
_atom_site_fract_z
_atom_type_partial_charge
Eu0 Eu 0.05538 0.5556 0.03305 0.0
C1 C 0.10586 0.41922 0.82195 0.0
N2 N 0.0679 0.43051 0.80302 0.0
C3 C 0.07502 0.41642 0.63932 0.0
C4 C 0.13123 0.40802 0.75105 0.0
C5 C 0.05064 0.42659 0.71153 0.0
C6 C 0.11607 0.40796 0.65973 0.0
C7 C 0.15415 0.40124 0.9292 0.0
C8 C 0.11747 0.41602 0.91007 0.0
C9 C 0.18093 0.39205 0.8608 0.0
C10 C 0.16964 0.39562 0.77209 0.0
Eu11 Eu 1.0308 0.44925 0.93285 0.0
N12 N 0.09179 0.42614 0.97607 0.0
C13 C 0.16236 0.39568 0.01602 0.0
C14 C 0.09862 0.41978 0.05947 0.0
C15 C 0.13418 0.40466 0.08102 0.0
H16 H 1.01779 0.43089 0.69323 0.0
H17 H 0.13992 0.40005 0.14774 0.0
H18 H 1.01118 0.57861 0.22879 0.0
H19 H 1.02991 0.59827 0.72563 0.0
H20 H 0.07673 0.42672 0.10941 0.0
H21 H 0.19005 0.3842 0.03313 0.0
H22 H 0.07076 0.5767 0.83905 0.0
H23 H 0.06175 0.41453 0.56764 0.0
H24 H 0.20985 0.3814 0.87498 0.0
H25 H 0.18988 0.38744 0.71897 0.0
H26 H 0.94756 0.6042 0.28172 0.0
H27 H 0.1346 0.39963 0.60334 0.0
H28 H 0.95946 0.6171 0.75433 0.0
N29 N 0.9973 0.58197 0.09126 0.0
C30 C 0.97266 0.59403 0.03252 0.0
C31 C 0.9541 0.6013 0.21126 0.0
C32 C 0.93621 0.60886 0.05944 0.0
C33 C 0.99006 0.58697 0.18151 0.0
C34 C 0.9266 0.61178 0.14937 0.0
N35 N 1.02176 0.57992 0.92589 0.0
C36 C 1.03927 0.58367 0.85055 0.0
C37 C 0.96113 0.60603 0.88539 0.0
C38 C 0.98491 0.59249 0.94662 0.0
C39 C 0.97681 0.60697 0.80333 0.0
C40 C 1.01654 0.59637 0.78684 0.0
H41 H 0.89872 0.62284 0.17248 0.0
H42 H 0.88254 0.63173 0.01529 0.0
H43 H 0.90446 0.62939 0.86293 0.0
O44 O 0.09074 0.60897 0.0565 0.0
O45 O 0.9856 0.5272 0.03584 0.0
O46 O 0.96951 0.47296 0.91465 0.0
O47 O 0.1041 0.58533 0.16266 0.0
O48 O 0.06544 0.52446 0.88691 0.0
O49 O 1.00847 0.47698 0.83225 0.0
O50 O 0.99283 0.41214 0.98506 0.0
O51 O 0.1011 0.481 0.01525 0.0
O52 O 0.10843 0.5285 0.96733 0.0
O53 O 0.99592 0.39729 0.83596 0.0
O54 O 1.021 0.47373 0.08355 0.0
O55 O 0.06517 0.52999 0.14467 0.0
C56 C 0.95691 0.49936 0.9751 0.0
C57 C 0.16511 0.62145 0.13702 0.0
C58 C 0.2271 0.65942 0.10988 0.0
C59 C 0.25617 0.64034 0.14055 0.0
C60 C 0.19502 0.60282 0.16682 0.0
C61 C 0.24014 0.61231 0.16859 0.0
C62 C 0.18145 0.64974 0.10874 0.0
C63 C 1.03349 0.50303 0.81912 0.0
C64 C 0.11695 0.61116 0.1334 0.0
C65 C 0.91107 0.62073 0.99655 0.0
C66 C 0.92348 0.61929 0.90965 0.0
C67 C 0.12655 0.50573 0.99592 0.0
C68 C 0.98916 0.35187 0.90066 0.0
C69 C 0.96115 0.29663 0.92204 0.0
C70 C 0.997 0.28322 0.88727 0.0
C71 C 1.02506 0.33819 0.86685 0.0
C72 C 0.95763 0.33114 0.92931 0.0
C73 C 1.02896 0.30407 0.86066 0.0
C74 C 0.0428 0.5019 0.15491 0.0
C75 C 0.98287 0.38694 0.90261 0.0
H76 H 0.29148 0.64727 0.14391 0.0
H77 H 0.18366 0.58077 0.1884 0.0
H78 H 0.26279 0.59783 0.19193 0.0
H79 H 0.15839 0.66373 0.08407 0.0
H80 H 1.00035 0.2567 0.88122 0.0
H81 H 0.04967 0.3536 0.84394 0.0
H82 H 0.92966 0.3415 0.95467 0.0
H83 H 0.05659 0.29361 0.83417 0.0
Eu84 Eu 0.45905 0.9857 0.97109 0.0
C85 C 0.65059 0.9786 0.18206 0.0
N86 N 0.62902 0.00569 0.19273 0.0
C87 C 0.64896 0.02355 0.3624 0.0
C88 C 0.67109 0.97225 0.262 0.0
C89 C 0.62961 0.02904 0.28095 0.0
C90 C 0.66925 0.99475 0.35292 0.0
C91 C 0.67812 0.93102 0.07758 0.0
C92 C 0.65409 0.95821 0.09098 0.0
C93 C 0.69727 0.92383 0.15684 0.0
C94 C 0.69366 0.94433 0.24878 0.0
Eu95 Eu 0.59397 0.01055 0.05083 0.0
N96 N 0.63446 0.96527 0.01541 0.0
C97 C 0.68254 0.91214 0.98492 0.0
C98 C 0.64064 0.94834 0.92552 0.0
C99 C 0.66421 0.92115 0.90875 0.0
H100 H 0.61468 0.05173 0.28849 0.0
H101 H 0.66818 0.90714 0.83717 0.0
H102 H 0.43424 0.01319 0.78865 0.0
H103 H 0.42002 0.03618 0.32915 0.0
H104 H 0.62632 0.95527 0.86669 0.0
H105 H 0.7007 0.89101 0.97165 0.0
H106 H 0.43349 0.99107 0.18869 0.0
H107 H 0.64839 0.04162 0.43235 0.0
H108 H 0.71545 0.90278 0.14791 0.0
H109 H 0.70926 0.93884 0.30932 0.0
H110 H 0.41488 0.06605 0.76129 0.0
H111 H 0.68448 0.9907 0.41613 0.0
H112 H 0.41205 0.09462 0.32335 0.0
N113 N 0.43478 0.03319 0.93721 0.0
C114 C 0.42747 0.05955 0.0115 0.0
C115 C 0.41833 0.06457 0.83199 0.0
C116 C 0.41683 0.0903 -0.0005 0.0
C117 C 0.42885 0.03461 0.8474 0.0
C118 C 0.41284 0.09274 0.90859 0.0
N119 N 0.43897 0.02486 0.10702 0.0
C120 C 0.43231 0.01694 0.1861 0.0
C121 C 0.42093 0.08173 0.17714 0.0
C122 C 0.4302 0.05545 0.09932 0.0
C123 C 0.41907 0.07514 0.26193 0.0
C124 C 0.42366 0.04224 0.26556 0.0
H125 H 0.40487 0.11597 0.89654 0.0
H126 H 0.40272 0.14146 0.07077 0.0
H127 H 0.40575 0.13379 0.22624 0.0
O128 O 0.39543 0.9555 0.97731 0.0
O129 O 0.50394 0.03245 0.95568 0.0
O130 O 0.55263 0.052 0.09474 0.0
O131 O 0.40826 0.9586 0.8441 0.0
O132 O 0.49054 0.97541 0.10182 0.0
O133 O 0.54836 0.02226 0.15707 0.0
O134 O 0.62434 0.0454 0.98256 0.0
O135 O 0.56568 0.95128 0.00148 0.0
O136 O 0.48831 0.93799 0.96611 0.0
O137 O 0.6604 0.04243 0.11076 0.0
O138 O 0.56839 0.99607 0.89132 0.0
O139 O 0.49317 0.96912 0.84494 0.0
C140 C 0.52897 0.05874 0.02721 0.0
C141 C 0.36917 0.90377 0.83888 0.0
C142 C 0.34035 0.84521 0.84237 0.0
C143 C 0.3451 0.83038 0.74723 0.0
C144 C 0.3728 0.88799 0.74321 0.0
C145 C 0.36115 0.85163 0.6983 0.0
C146 C 0.35284 0.88208 0.88832 0.0
C147 C 0.52313 0.99625 0.16996 0.0
C148 C 0.38274 0.94264 0.88534 0.0
C149 C 0.41024 0.1174 0.07817 0.0
C150 C 0.4122 0.11309 0.1668 0.0
C151 C 0.52711 0.92902 0.97635 0.0
C152 C 0.67208 0.09711 0.09047 0.0
C153 C 0.71935 0.15198 0.10261 0.0
C154 C 0.6978 0.17048 0.1729 0.0
C155 C 0.65052 0.11603 0.16007 0.0
C156 C 0.7066 0.11514 0.06205 0.0
C157 C 0.66344 0.15255 0.20112 0.0
C158 C 0.53217 0.97948 0.82605 0.0
C159 C 0.65955 0.05858 0.04951 0.0
H160 H 0.33671 0.80215 0.71063 0.0
H161 H 0.38492 0.90371 0.70273 0.0
H162 H 0.36457 0.83984 0.62504 0.0
H163 H 0.34925 0.89381 0.96155 0.0
H164 H 0.70758 0.19883 0.20581 0.0
H165 H 0.62409 0.10253 0.18345 0.0
H166 H 0.72328 0.10063 0.00818 0.0
H167 H 0.64683 0.167 0.25502 0.0
Eu168 Eu 0.52144 0.4441 0.95949 0.0
C169 C 0.64589 0.59291 0.21019 0.0
N170 N 0.60213 0.58111 0.20594 0.0
C171 C 0.61196 0.60597 0.37593 0.0
C172 C 0.67466 0.61117 0.2985 0.0
C173 C 0.5846 0.58839 0.28676 0.0
C174 C 0.65724 0.61717 0.38192 0.0
C175 C 0.70696 0.59988 0.12794 0.0
C176 C 0.66197 0.58731 0.12588 0.0
C177 C 0.73574 0.61764 0.21585 0.0
C178 C 0.71967 0.62319 0.30084 0.0
Eu179 Eu 0.55943 0.55047 0.05179 0.0
N180 N 0.63377 0.56878 0.04174 0.0
C181 C 0.72172 0.59405 0.04149 0.0
C182 C 0.64746 0.5644 0.95716 0.0
C183 C 0.69177 0.57645 0.95575 0.0
H184 H 0.54941 0.58085 0.28271 0.0
H185 H 0.70281 0.57212 0.88862 0.0
H186 H 0.49305 0.41692 0.72138 0.0
H187 H 0.41949 0.43766 0.22493 0.0
H188 H 0.62439 0.55075 0.89115 0.0
H189 H 0.75606 0.60323 0.04019 0.0
H190 H 0.48886 0.4471 0.16616 0.0
H191 H 0.59805 0.61113 0.43993 0.0
H192 H 0.7705 0.62722 0.21887 0.0
H193 H 0.74227 0.6371 0.36807 0.0
H194 H 0.42577 0.38992 0.59691 0.0
H195 H 0.67829 0.63098 0.45113 0.0
H196 H 0.34828 0.41398 0.11059 0.0
N197 N 0.45914 0.4193 0.83532 0.0
C198 C 0.42001 0.41074 0.86187 0.0
C199 C 0.42364 0.39587 0.67118 0.0
C200 C 0.38079 0.39483 0.79317 0.0
C201 C 0.46164 0.41162 0.74174 0.0
C202 C 0.38301 0.38753 0.69697 0.0
N203 N 0.45712 0.43494 0.02362 0.0
C204 C 0.45792 0.43974 0.11728 0.0
C205 C 0.3785 0.41134 0.98785 0.0
C206 C 0.41889 0.41907 0.95849 0.0
C207 C 0.37863 0.41936 0.08517 0.0
C208 C 0.41867 0.43306 0.15002 0.0
H209 H 0.3536 0.37539 0.64211 0.0
H210 H 0.31016 0.37509 0.77072 0.0
H211 H 0.30816 0.38945 0.94079 0.0
O212 O 0.53032 0.40403 0.02395 0.0
O213 O 0.47001 0.47836 0.93958 0.0
O214 O 0.48925 0.53024 0.06747 0.0
O215 O 0.52335 0.3902 0.87221 0.0
O216 O 0.55679 0.47428 0.11336 0.0
O217 O 0.52981 0.52503 0.14798 0.0
O218 O 0.54028 0.58051 0.96178 0.0
O219 O 0.6162 0.51985 0.04771 0.0
O220 O 0.59451 0.46065 0.95182 0.0
O221 O 0.55419 0.6056 0.11411 0.0
O222 O 0.53426 0.51907 0.89434 0.0
O223 O 0.55069 0.46365 0.85085 0.0
C224 C 0.45872 0.50514 0.0023 0.0
C225 C 0.56016 0.35511 0.94283 0.0
C226 C 0.57761 0.30026 0.95917 0.0
C227 C 0.61942 0.30944 0.93715 0.0
C228 C 0.60232 0.36352 0.9231 0.0
C229 C 0.6316 0.34072 0.91994 0.0
C230 C 0.54783 0.32344 0.96097 0.0
C231 C 0.54783 0.50211 0.17521 0.0
C232 C 0.52877 0.37903 0.94365 0.0
C233 C 0.34063 0.38718 0.8225 0.0
C234 C 0.33946 0.39551 0.91946 0.0
C235 C 0.62539 0.4892 0.00034 0.0
C236 C 0.50764 0.62981 0.02644 0.0
C237 C 0.48565 0.684 0.01716 0.0
C238 C 0.44215 0.6698 0.02121 0.0
C239 C 0.46402 0.61639 0.03006 0.0
C240 C 0.5183 0.66352 0.01925 0.0
C241 C 0.4315 0.63629 0.02722 0.0
C242 C 0.54836 0.49334 0.83536 0.0
C243 C 0.54259 0.60944 0.03283 0.0
H244 H 0.64288 0.29221 0.93213 0.0
H245 H 0.61249 0.38763 0.90944 0.0
H246 H 0.66395 0.34726 0.90362 0.0
H247 H 0.51543 0.31718 0.97752 0.0
H248 H 0.41613 0.68449 0.0188 0.0
H249 H 0.45522 0.59063 0.03558 0.0
H250 H 0.55213 0.67403 0.01732 0.0
H251 H 0.39785 0.62576 0.03 0.0
C252 C 0.07363 0.50429 0.68872 0.0
C253 C 1.03363 0.50259 0.72166 0.0
C254 C 0.07476 0.5032 0.59555 0.0
C255 C 1.03527 0.50231 0.5359 0.0
C256 C 0.99491 0.50158 0.57004 0.0
C257 C 0.99441 0.50089 0.66221 0.0
C258 C 0.11809 0.50251 0.56068 0.0
C259 C 0.9525 0.50199 0.50975 0.0
C260 C 0.05135 0.53384 0.33007 0.0
C261 C 1.04134 0.50206 0.25258 0.0
C262 C 0.04806 0.53437 0.42222 0.0
C263 C 1.03642 0.50225 0.4379 0.0
C264 C 1.02727 0.47002 0.36043 0.0
C265 C 1.02909 0.47036 0.2685 0.0
C266 C 0.05667 0.56932 0.50265 0.0
C267 C 1.01659 0.43515 0.3749 0.0
H268 H 0.10387 0.50534 0.73512 0.0
H269 H 0.96369 0.50005 0.68886 0.0
H270 H 0.11416 0.47929 0.49499 0.0
H271 H 0.12804 0.52629 0.54232 0.0
H272 H 0.1452 0.50141 0.61458 0.0
H273 H 0.92438 0.50278 0.54831 0.0
H274 H 0.95711 0.52526 0.48703 0.0
H275 H 0.94373 0.47826 0.44431 0.0
H276 H 0.06115 0.55844 0.31874 0.0
H277 H 1.02156 0.44564 0.20925 0.0
H278 H 0.08546 0.57122 0.55694 0.0
H279 H 1.02765 0.57145 0.53827 0.0
H280 H 0.06333 0.59196 0.47776 0.0
H281 H 0.0454 0.43196 0.42063 0.0
H282 H 1.00853 0.41251 0.30667 0.0
H283 H 0.98822 0.43431 0.41217 0.0
C284 C 0.53131 0.02141 0.34727 0.0
C285 C 0.52786 0.99231 0.26467 0.0
C286 C 0.53397 0.01768 0.43713 0.0
C287 C 0.53443 0.98415 0.44504 0.0
C288 C 0.53243 0.95489 0.36168 0.0
C289 C 0.52838 0.95922 0.2724 0.0
C290 C 0.53511 0.04948 0.52334 0.0
C291 C 0.53415 0.91891 0.36653 0.0
C292 C 0.57383 0.98438 0.69612 0.0
C293 C 0.53359 0.97637 0.72502 0.0
C294 C 0.57475 0.98563 0.60409 0.0
C295 C 0.53451 0.97953 0.53969 0.0
C296 C 0.49391 0.97056 0.56757 0.0
C297 C 0.49396 0.96868 0.65892 0.0
C298 C 0.61883 0.99439 0.57666 0.0
C299 C 0.45014 0.96437 0.50223 0.0
H300 H 0.53072 0.04698 0.34115 0.0
H301 H 0.52614 0.93676 0.20849 0.0
H302 H 0.5062 0.04469 0.5568 0.0
H303 H 0.56533 0.05418 0.57714 0.0
H304 H 0.53456 0.07364 0.5053 0.0
H305 H 0.53656 0.89975 0.29692 0.0
H306 H 0.56297 0.92057 0.42052 0.0
H307 H 0.50392 0.90871 0.38896 0.0
H308 H 0.6047 0.9903 0.74595 0.0
H309 H 0.46255 0.96251 0.67963 0.0
H310 H 0.62297 0.02073 0.56966 0.0
H311 H 0.62016 0.97511 0.50653 0.0
H312 H 0.64701 0.99453 0.63011 0.0
H313 H 0.44686 0.98856 0.48623 0.0
H314 H 0.42147 0.95701 0.53369 0.0
H315 H 0.44869 0.94314 0.4336 0.0
C316 C 0.55801 0.52829 0.72763 0.0
C317 C 0.5535 0.4956 0.74062 0.0
C318 C 0.56171 0.5312 0.63872 0.0
C319 C 0.55769 0.50041 0.55873 0.0
C320 C 0.55321 0.4673 0.57105 0.0
C321 C 0.55299 0.4655 0.66243 0.0
C322 C 0.5698 0.56729 0.63056 0.0
C323 C 0.54728 0.43361 0.48737 0.0
C324 C 0.51472 0.5073 0.31932 0.0
C325 C 0.55162 0.50438 0.27547 0.0
C326 C 0.51592 0.50499 0.41024 0.0
C327 C 0.55616 0.50276 0.46181 0.0
C328 C 0.59449 0.50249 0.42013 0.0
C329 C 0.59132 0.50202 0.326 0.0
C330 C 0.47365 0.50341 0.44923 0.0
C331 C 0.6388 0.50255 0.47431 0.0
H332 H 0.5592 0.55191 0.78739 0.0
H333 H 0.55113 0.44028 0.67162 0.0
H334 H 0.59647 0.5698 0.58949 0.0
H335 H 0.53944 0.57127 0.59171 0.0
H336 H 0.57926 0.58858 0.70139 0.0
H337 H 0.5386 0.40991 0.50704 0.0
H338 H 0.5208 0.43271 0.42933 0.0
H339 H 0.57828 0.43247 0.45882 0.0
H340 H 0.48406 0.50925 0.27999 0.0
H341 H 0.62006 0.50038 0.29236 0.0
H342 H 0.47666 0.52685 0.51369 0.0
H343 H 0.46749 0.47987 0.47052 0.0
H344 H 0.44449 0.50226 0.3966 0.0
H345 H 0.64417 0.52031 0.54954 0.0
H346 H 0.66648 0.51095 0.44165 0.0
H347 H 0.63994 0.47565 0.47416 0.0
C348 C 0.20142 0.52983 0.96559 0.0
C349 C 0.17594 0.50738 0.00159 0.0
C350 C 0.24744 0.53125 0.96809 0.0
C351 C 0.2692 0.50901 0.00514 0.0
C352 C 0.24389 0.48686 0.0434 0.0
C353 C 0.19823 0.48687 0.04284 0.0
C354 C 0.27284 0.55676 0.93106 0.0
C355 C 0.26493 0.46261 0.08389 0.0
C356 C 0.37703 0.48625 0.92223 0.0
C357 C 0.41029 0.5069 0.0013 0.0
C358 C 0.3315 0.48651 0.92281 0.0
C359 C 0.31808 0.50873 0.00349 0.0
C360 C 0.35164 0.53048 0.08244 0.0
C361 C 0.39684 0.52924 0.08046 0.0
C362 C 0.29753 0.46256 0.83704 0.0
C363 C 0.34009 0.55575 0.169 0.0
H364 H 0.18539 0.54652 0.93519 0.0
H365 H 0.17995 0.47073 0.07509 0.0
H366 H 0.30112 0.57422 0.98706 0.0
H367 H 0.28671 0.54214 0.86961 0.0
H368 H 0.25186 0.57338 0.90838 0.0
H369 H 0.2428 0.45031 0.12148 0.0
H370 H 0.273 0.44144 0.02517 0.0
H371 H 0.29638 0.47703 0.13426 0.0
H372 H 0.38657 0.46982 0.85918 0.0
H373 H 0.42178 0.5458 0.14186 0.0
H374 H 0.27588 0.47794 0.81064 0.0
H375 H 0.27601 0.44314 0.85758 0.0
H376 H 0.31298 0.44813 0.77799 0.0
H377 H 0.33169 0.57864 0.1518 0.0
H378 H 0.36809 0.56563 0.23072 0.0
H379 H 0.31083 0.54331 0.19007 0.0
C380 C 0.79799 0.16512 0.08388 0.0
C381 C 0.75498 0.17136 0.07188 0.0
C382 C 0.83254 0.18486 0.05975 0.0
C383 C 0.82348 0.21091 0.02118 0.0
C384 C 0.77976 0.21664 0.00696 0.0
C385 C 0.7461 0.19693 0.03313 0.0
C386 C 0.87883 0.17834 0.07722 0.0
C387 C 0.76851 0.24367 0.96442 0.0
C388 C 0.91571 0.28612 0.03864 0.0
C389 C 0.92675 0.27435 0.94832 0.0
C390 C 0.8828 0.26537 0.06405 0.0
C391 C 0.85975 0.23248 0.9966 0.0
C392 C 0.8707 0.2206 0.90504 0.0
C393 C 0.90446 0.24154 0.88236 0.0
C394 C 0.87263 0.27866 0.16292 0.0
C395 C 0.8462 0.18609 0.8305 0.0
H396 H 0.80473 0.14539 0.11431 0.0
H397 H 0.71268 0.2013 0.02261 0.0
H398 H 0.89152 0.171 0.00969 0.0
H399 H 0.90135 0.20282 0.12703 0.0
H400 H 0.88031 0.15712 0.1076 0.0
H401 H 0.73263 0.2442 0.95575 0.0
H402 H 0.78739 0.27024 0.01047 0.0
H403 H 0.77828 0.23803 0.8938 0.0
H404 H 0.9332 0.31145 0.08969 0.0
H405 H 0.91281 0.23265 0.81219 0.0
H406 H 0.87598 0.259 0.19812 0.0
H407 H 0.83789 0.28228 0.15876 0.0
H408 H 0.89484 0.30408 0.20816 0.0
H409 H 0.84926 0.16415 0.85713 0.0
H410 H 0.85877 0.18065 0.76274 0.0
H411 H 0.81042 0.18641 0.81563 0.0
C412 C 0.55855 0.88422 0.03145 0.0
C413 C 0.52632 0.89199 0.97168 0.0
C414 C 0.55502 0.85035 0.03743 0.0
C415 C 0.51836 0.82323 0.98196 0.0
C416 C 0.48628 0.83067 0.9195 0.0
C417 C 0.49043 0.8649 0.91578 0.0
C418 C 0.58954 0.84407 0.10656 0.0
C419 C 0.44655 0.80285 0.85904 0.0
C420 C 0.5222 0.72687 0.94709 0.0
C421 C 0.49632 0.72011 0.01127 0.0
C422 C 0.52995 0.76024 0.93719 0.0
C423 C 0.51197 0.78785 0.99366 0.0
C424 C 0.48682 0.78141 0.06026 0.0
C425 C 0.47907 0.74773 0.06774 0.0
C426 C 0.55651 0.76575 0.86459 0.0
C427 C 0.46769 0.81009 0.12324 0.0
H428 H 0.58535 0.90511 0.07772 0.0
H429 H 0.465 0.87062 0.87011 0.0
H430 H 0.57409 0.8381 0.16323 0.0
H431 H 0.60319 0.82096 0.06968 0.0
H432 H 0.61726 0.8672 0.1406 0.0
H433 H 0.45653 0.77763 0.82415 0.0
H434 H 0.42302 0.798 0.90484 0.0
H435 H 0.42899 0.81088 0.80321 0.0
H436 H 0.53533 0.70572 0.90246 0.0
H437 H 0.4595 0.74305 0.11843 0.0
H438 H 0.58495 0.7882 0.89938 0.0
H439 H 0.53558 0.77249 0.81046 0.0
H440 H 0.56924 0.74205 0.82788 0.0
H441 H 0.49416 0.83363 0.16296 0.0
H442 H 0.45116 0.80157 0.17529 0.0
H443 H 0.44325 0.81822 0.07872 0.0
C444 C 0.88502 0.47208 0.00906 0.0
C445 C 0.90818 0.49695 0.97727 0.0
C446 C 0.83939 0.4699 0.0135 0.0
C447 C 0.81536 0.49271 0.98384 0.0
C448 C 0.83867 0.51751 0.95016 0.0
C449 C 0.88443 0.51937 0.94768 0.0
C450 C 0.81696 0.44342 0.05151 0.0
C451 C 0.81553 0.5426 0.91763 0.0
C452 C 0.68712 0.46636 0.91774 0.0
C453 C 0.67375 0.48814 0.99782 0.0
C454 C 0.73259 0.46762 0.91214 0.0
C455 C 0.76632 0.49081 0.98898 0.0
C456 C 0.75287 0.51229 0.07073 0.0
C457 C 0.70727 0.51073 0.07399 0.0
C458 C 0.74457 0.4447 0.82249 0.0
C459 C 0.78676 0.53744 0.15489 0.0
H460 H 0.90289 0.45457 0.03204 0.0
H461 H 0.90151 0.53807 0.92078 0.0
H462 H 0.80347 0.45719 0.11462 0.0
H463 H 0.78863 0.42524 0.99707 0.0
H464 H 0.83988 0.42767 0.07221 0.0
H465 H 0.83502 0.55499 0.87599 0.0
H466 H 0.78234 0.529 0.87355 0.0
H467 H 0.8108 0.56381 0.98082 0.0
H468 H 0.66193 0.44898 0.85787 0.0
H469 H 0.6978 0.52736 0.137 0.0
H470 H 0.76601 0.42739 0.83952 0.0
H471 H 0.76376 0.46147 0.79034 0.0
H472 H 0.71492 0.42802 0.76904 0.0
H473 H 0.81174 0.52359 0.17741 0.0
H474 H 0.77147 0.54977 0.21658 0.0
H475 H 0.8045 0.55862 0.13432 0.0
C476 C 0.22687 0.71965 0.10022 0.0
C477 C 0.24443 0.68899 0.07823 0.0
C478 C 0.24236 0.74732 0.06913 0.0
C479 C 0.2765 0.74446 0.0152 0.0
C480 C 0.29499 0.71393 0.99431 0.0
C481 C 0.27864 0.68657 0.02561 0.0
C482 C 0.22168 0.77937 0.09263 0.0
C483 C 0.33165 0.70991 0.93754 0.0
C484 C 0.28539 0.79413 0.84318 0.0
C485 C 0.32196 0.82164 0.89151 0.0
C486 C 0.26977 0.7694 0.88359 0.0
C487 C 0.29098 0.77225 0.97518 0.0
C488 C 0.3269 0.80069 0.02605 0.0
C489 C 0.34205 0.82507 0.98355 0.0
C490 C 0.23128 0.73961 0.82694 0.0
C491 C 0.35003 0.80476 0.12421 0.0
H492 H 0.20104 0.72215 0.14223 0.0
H493 H 0.29214 0.66291 0.00701 0.0
H494 H 0.24763 0.80353 0.12906 0.0
H495 H 0.20513 0.7817 0.02601 0.0
H496 H 0.19688 0.77828 0.13884 0.0
H497 H 0.34153 0.68409 0.92485 0.0
H498 H 0.32103 0.71256 0.86767 0.0
H499 H 0.36113 0.73112 0.97584 0.0
H500 H 0.26922 0.79167 0.77269 0.0
H501 H 0.37053 0.84608 0.02099 0.0
H502 H 0.20467 0.73881 0.86893 0.0
H503 H 0.24223 0.71414 0.81142 0.0
H504 H 0.21722 0.74201 0.75845 0.0
H505 H 0.32562 0.80413 0.17132 0.0
H506 H 0.37505 0.82971 0.1574 0.0
H507 H 0.36672 0.78236 0.11992 0.0
C508 C 0.59932 0.25532 0.02847 0.0
C509 C 0.5663 0.26662 0.97975 0.0
C510 C 0.59157 0.22237 0.04008 0.0
C511 C 0.54936 0.19978 0.00428 0.0
C512 C 0.515 0.21167 0.95958 0.0
C513 C 0.52388 0.24473 0.94732 0.0
C514 C 0.62917 0.21131 0.08867 0.0
C515 C 0.46902 0.18916 0.92327 0.0
C516 C 0.54392 0.10059 0.93994 0.0
C517 C 0.53519 0.09492 0.02307 0.0
C518 C 0.54862 0.1344 0.93308 0.0
C519 C 0.54233 0.16322 0.00954 0.0
C520 C 0.53204 0.15723 0.09265 0.0
C521 C 0.52975 0.12342 0.09933 0.0
C522 C 0.56132 0.1394 0.84454 0.0
C523 C 0.52292 0.1864 0.17424 0.0
H524 H 0.63185 0.27219 0.05692 0.0
H525 H 0.49788 0.25289 0.90977 0.0
H526 H 0.62054 0.2068 0.15321 0.0
H527 H 0.63477 0.18611 0.04038 0.0
H528 H 0.66043 0.23135 0.11017 0.0
H529 H 0.44504 0.20313 0.89745 0.0
H530 H 0.4696 0.16486 0.86399 0.0
H531 H 0.45713 0.18093 0.98049 0.0
H532 H 0.54801 0.07857 0.88071 0.0
H533 H 0.52212 0.11897 0.16301 0.0
H534 H 0.59314 0.15867 0.86387 0.0
H535 H 0.53597 0.15027 0.81079 0.0
H536 H 0.56497 0.11441 0.79146 0.0
H537 H 0.55383 0.20625 0.2102 0.0
H538 H 0.50971 0.17652 0.22775 0.0
H539 H 0.49872 0.19996 0.14745 0.0
loop_
_geom_bond_atom_site_label_1
_geom_bond_atom_site_label_2
_geom_bond_distance
_geom_bond_site_symmetry_2
_ccdc_geom_bond_type
Eu0 N29 2.600 1_455 S
Eu0 N35 2.562 1_455 S
Eu0 O44 2.462 1_554 S
Eu0 O45 2.373 1_455 S
Eu0 O47 2.432 . S
Eu0 O48 2.291 1_454 S
Eu0 O52 2.335 . S
Eu0 O55 2.372 . S
Eu0 C64 2.787 . S
C1 N2 1.365 . S
C1 C4 1.405 . S
C1 C8 1.448 . S
N2 C1 1.365 . S
N2 C5 1.319 1_455 S
N2 Eu11 2.600 1_455 S
C3 C5 1.397 1_455 S
C3 C6 1.367 . S
C3 H23 0.931 . S
C4 C1 1.405 . S
C4 C6 1.403 . S
C4 C10 1.439 . S
C5 N2 1.319 1_655 S
C5 C3 1.397 1_655 S
C5 H16 0.930 . S
C6 C3 1.367 . S
C6 C4 1.403 . S
C6 H27 0.929 . S
C7 C8 1.430 . S
C7 C9 1.387 . S
C7 C13 1.404 1_556 S
C8 C1 1.448 . S
C8 C7 1.430 . S
C8 N12 1.351 . S
C9 C7 1.387 . S
C9 C10 1.374 . S
C9 H24 0.931 . S
C10 C4 1.439 . S
C10 C9 1.374 . S
C10 H25 0.931 . S
Eu11 N2 2.600 1_655 S
Eu11 N12 2.562 1_655 S
Eu11 O46 2.335 . S
Eu11 O49 2.372 . S
Eu11 O50 2.462 1_556 S
Eu11 O51 2.373 1_655 S
Eu11 O53 2.432 . S
Eu11 O54 2.291 1_656 S
Eu11 C75 2.787 . S
N12 C8 1.351 . S
N12 Eu11 2.562 1_455 S
N12 C14 1.325 1_556 S
C13 C7 1.404 1_554 S
C13 C15 1.366 . S
C13 H21 0.930 . S
C14 N12 1.325 1_554 S
C14 C15 1.416 . S
C14 H20 0.929 . S
C15 C13 1.366 . S
C15 C14 1.416 . S
C15 H17 0.930 . S
H16 C5 0.930 . S
H17 C15 0.930 . S
H18 C33 0.930 . S
H19 C40 0.930 . S
H20 C14 0.929 . S
H21 C13 0.930 . S
H22 C36 0.929 . S
H23 C3 0.931 . S
H24 C9 0.931 . S
H25 C10 0.931 . S
H26 C31 0.931 . S
H27 C6 0.929 . S
H28 C39 0.930 . S
N29 Eu0 2.600 1_655 S
N29 C30 1.365 . S
N29 C33 1.319 1_655 S
C30 N29 1.365 . S
C30 C32 1.405 . S
C30 C38 1.448 . S
C31 H26 0.931 . S
C31 C33 1.397 1_655 S
C31 C34 1.367 . S
C32 C30 1.405 . S
C32 C34 1.403 . S
C32 C65 1.439 . S
C33 H18 0.930 . S
C33 N29 1.319 1_455 S
C33 C31 1.397 1_455 S
C34 C31 1.367 . S
C34 C32 1.403 . S
C34 H41 0.929 . S
N35 Eu0 2.562 1_655 S
N35 C36 1.325 1_554 S
N35 C38 1.351 . S
C36 H22 0.929 . S
C36 N35 1.325 1_556 S
C36 C40 1.416 . S
C37 C38 1.430 . S
C37 C39 1.404 1_554 S
C37 C66 1.387 . S
C38 C30 1.448 . S
C38 N35 1.351 . S
C38 C37 1.430 . S
C39 H28 0.930 . S
C39 C37 1.404 1_556 S
C39 C40 1.366 . S
C40 H19 0.930 . S
C40 C36 1.416 . S
C40 C39 1.366 . S
H41 C34 0.929 . S
H42 C65 0.931 . S
H43 C66 0.931 . S
O44 Eu0 2.462 1_556 S
O44 C64 1.252 1_556 S
O45 Eu0 2.373 1_655 S
O45 C56 1.246 1_554 S
O46 Eu11 2.335 . S
O46 C56 1.265 . S
O47 Eu0 2.432 . S
O47 C64 1.268 . S
O48 Eu0 2.291 1_656 S
O48 C63 1.255 . S
O49 Eu11 2.372 . S
O49 C63 1.257 . S
O50 Eu11 2.462 1_554 S
O50 C75 1.252 1_554 S
O51 Eu11 2.373 1_455 S
O51 C67 1.249 1_556 S
O52 Eu0 2.335 . S
O52 C67 1.264 . S
O53 Eu11 2.432 . S
O53 C75 1.268 . S
O54 Eu11 2.291 1_454 S
O54 C74 1.255 . S
O55 Eu0 2.372 . S
O55 C74 1.257 . S
C56 O45 1.246 1_556 S
C56 O46 1.265 . S
C57 C60 1.382 . S
C57 C62 1.390 . S
C57 C64 1.506 . S
C58 C59 1.398 . S
C58 C62 1.392 . S
C59 C58 1.398 . S
C59 C61 1.372 . S
C59 H76 0.931 . S
C60 C57 1.382 . S
C60 C61 1.390 . S
C60 H77 0.931 . S
C61 C59 1.372 . S
C61 C60 1.390 . S
C61 H78 0.929 . S
C62 C57 1.390 . S
C62 C58 1.392 . S
C62 H79 0.930 1_554 S
C63 O48 1.255 . S
C63 O49 1.257 . S
C64 Eu0 2.787 . S
C64 O44 1.252 1_554 S
C64 O47 1.268 . S
C64 C57 1.506 . S
C65 C32 1.439 . S
C65 H42 0.931 . S
C65 C66 1.374 . S
C66 C37 1.387 . S
C66 H43 0.931 . S
C66 C65 1.374 . S
C67 O51 1.249 1_554 S
C67 O52 1.264 . S
C68 C71 1.382 . S
C68 C72 1.390 . S
C68 C75 1.506 . S
C69 C70 1.398 . S
C69 C72 1.392 . S
C70 C69 1.398 . S
C70 C73 1.372 . S
C70 H80 0.931 . S
C71 C68 1.382 . S
C71 C73 1.390 . S
C71 H81 0.931 . S
C72 C68 1.390 . S
C72 C69 1.392 . S
C72 H82 0.930 1_556 S
C73 C70 1.372 . S
C73 C71 1.390 . S
C73 H83 0.929 . S
C74 O54 1.255 . S
C74 O55 1.257 . S
C75 Eu11 2.787 . S
C75 O50 1.252 1_556 S
C75 O53 1.268 . S
C75 C68 1.506 . S
H76 C59 0.931 . S
H77 C60 0.931 . S
H78 C61 0.929 . S
H79 C62 0.930 1_556 S
H80 C70 0.931 . S
H81 C71 0.931 . S
H82 C72 0.930 1_554 S
H83 C73 0.929 . S
Eu84 N113 2.600 . S
Eu84 N119 2.562 1_566 S
Eu84 O128 2.462 1_556 S
Eu84 O129 2.373 1_565 S
Eu84 O131 2.432 . S
Eu84 O132 2.291 1_566 S
Eu84 O136 2.335 . S
Eu84 O139 2.372 . S
Eu84 C148 2.787 . S
C85 N86 1.365 1_565 S
C85 C88 1.405 . S
C85 C92 1.448 . S
N86 C85 1.365 1_545 S
N86 C89 1.319 . S
N86 Eu95 2.600 . S
C87 C89 1.397 . S
C87 C90 1.367 1_545 S
C87 H107 0.931 . S
C88 C85 1.405 . S
C88 C90 1.403 . S
C88 C94 1.439 . S
C89 N86 1.319 . S
C89 C87 1.397 . S
C89 H100 0.930 . S
C90 C87 1.367 1_565 S
C90 C88 1.403 . S
C90 H111 0.929 . S
C91 C92 1.430 1_556 S
C91 C93 1.387 1_556 S
C91 C97 1.404 . S
C92 C85 1.448 . S
C92 C91 1.430 1_554 S
C92 N96 1.351 1_554 S
C93 C91 1.387 1_554 S
C93 C94 1.374 . S
C93 H108 0.931 . S
C94 C88 1.439 . S
C94 C93 1.374 . S
C94 H109 0.931 . S
Eu95 N86 2.600 . S
Eu95 N96 2.562 1_544 S
Eu95 O130 2.335 . S
Eu95 O133 2.372 . S
Eu95 O134 2.462 1_554 S
Eu95 O135 2.373 1_545 S
Eu95 O137 2.432 . S
Eu95 O138 2.291 1_544 S
Eu95 C159 2.787 . S
N96 C92 1.351 1_556 S
N96 Eu95 2.562 1_566 S
N96 C98 1.325 . S
C97 C91 1.404 . S
C97 C99 1.366 . S
C97 H105 0.930 . S
C98 N96 1.325 . S
C98 C99 1.416 . S
C98 H104 0.929 . S
C99 C97 1.366 . S
C99 C98 1.416 . S
C99 H101 0.930 . S
H100 C89 0.930 . S
H101 C99 0.930 . S
H102 C117 0.930 . S
H103 C124 0.930 . S
H104 C98 0.929 . S
H105 C97 0.930 . S
H106 C120 0.929 . S
H107 C87 0.931 . S
H108 C93 0.931 . S
H109 C94 0.931 . S
H110 C115 0.931 . S
H111 C90 0.929 . S
H112 C123 0.930 . S
N113 Eu84 2.600 . S
N113 C114 1.365 1_565 S
N113 C117 1.319 . S
C114 N113 1.365 1_545 S
C114 C116 1.405 . S
C114 C122 1.448 . S
C115 H110 0.931 . S
C115 C117 1.397 . S
C115 C118 1.367 1_565 S
C116 C114 1.405 . S
C116 C118 1.403 . S
C116 C149 1.439 . S
C117 H102 0.930 . S
C117 N113 1.319 . S
C117 C115 1.397 . S
C118 C115 1.367 1_545 S
C118 C116 1.403 . S
C118 H125 0.929 . S
N119 Eu84 2.562 1_544 S
N119 C120 1.325 . S
N119 C122 1.351 1_554 S
C120 H106 0.929 . S
C120 N119 1.325 . S
C120 C124 1.416 . S
C121 C122 1.430 1_554 S
C121 C123 1.404 . S
C121 C150 1.387 1_554 S
C122 C114 1.448 . S
C122 N119 1.351 1_556 S
C122 C121 1.430 1_556 S
C123 H112 0.930 . S
C123 C121 1.404 . S
C123 C124 1.366 . S
C124 H103 0.930 . S
C124 C120 1.416 . S
C124 C123 1.366 . S
H125 C118 0.929 . S
H126 C149 0.931 . S
H127 C150 0.931 . S
O128 Eu84 2.462 1_554 S
O128 C148 1.252 1_554 S
O129 Eu84 2.373 1_545 S
O129 C140 1.249 1_556 S
O130 Eu95 2.335 . S
O130 C140 1.264 . S
O131 Eu84 2.432 . S
O131 C148 1.268 . S
O132 Eu84 2.291 1_544 S
O132 C147 1.255 . S
O133 Eu95 2.372 . S
O133 C147 1.257 . S
O134 Eu95 2.462 1_556 S
O134 C159 1.252 1_556 S
O135 Eu95 2.373 1_565 S
O135 C151 1.249 1_554 S
O136 Eu84 2.335 . S
O136 C151 1.264 . S
O137 Eu95 2.432 . S
O137 C159 1.268 . S
O138 Eu95 2.291 1_566 S
O138 C158 1.255 . S
O139 Eu84 2.372 . S
O139 C158 1.257 . S
C140 O129 1.249 1_554 S
C140 O130 1.264 . S
C141 C144 1.382 . S
C141 C146 1.390 1_556 S
C141 C148 1.506 . S
C142 C143 1.398 1_554 S
C142 C146 1.392 . S
C143 C142 1.398 1_556 S
C143 C145 1.372 . S
C143 H160 0.931 . S
C144 C141 1.382 . S
C144 C145 1.390 . S
C144 H161 0.931 . S
C145 C143 1.372 . S
C145 C144 1.390 . S
C145 H162 0.929 . S
C146 C141 1.390 1_554 S
C146 C142 1.392 . S
C146 H163 0.930 . S
C147 O132 1.255 . S
C147 O133 1.257 . S
C148 Eu84 2.787 . S
C148 O128 1.252 1_556 S
C148 O131 1.268 . S
C148 C141 1.506 . S
C149 C116 1.439 . S
C149 H126 0.931 . S
C149 C150 1.374 . S
C150 C121 1.387 1_556 S
C150 H127 0.931 . S
C150 C149 1.374 . S
C151 O135 1.249 1_556 S
C151 O136 1.264 . S
C152 C155 1.382 . S
C152 C156 1.390 1_554 S
C152 C159 1.506 . S
C153 C154 1.398 1_556 S
C153 C156 1.392 . S
C154 C153 1.398 1_554 S
C154 C157 1.372 . S
C154 H164 0.931 . S
C155 C152 1.382 . S
C155 C157 1.390 . S
C155 H165 0.931 . S
C156 C152 1.390 1_556 S
C156 C153 1.392 . S
C156 H166 0.930 . S
C157 C154 1.372 . S
C157 C155 1.390 . S
C157 H167 0.929 . S
C158 O138 1.255 . S
C158 O139 1.257 . S
C159 Eu95 2.787 . S
C159 O134 1.252 1_554 S
C159 O137 1.268 . S
C159 C152 1.506 . S
H160 C143 0.931 . S
H161 C144 0.931 . S
H162 C145 0.929 . S
H163 C146 0.930 . S
H164 C154 0.931 . S
H165 C155 0.931 . S
H166 C156 0.930 . S
H167 C157 0.929 . S
Eu168 N197 2.600 . S
Eu168 N203 2.562 . S
Eu168 O212 2.462 1_556 S
Eu168 O213 2.373 . S
Eu168 O215 2.432 . S
Eu168 O216 2.291 1_556 S
Eu168 O220 2.335 . S
Eu168 O223 2.372 . S
Eu168 C232 2.787 . S
C169 N170 1.365 . S
C169 C172 1.405 . S
C169 C176 1.448 . S
N170 C169 1.365 . S
N170 C173 1.319 . S
N170 Eu179 2.600 . S
C171 C173 1.397 . S
C171 C174 1.367 . S
C171 H191 0.931 . S
C172 C169 1.405 . S
C172 C174 1.403 . S
C172 C178 1.439 . S
C173 N170 1.319 . S
C173 C171 1.397 . S
C173 H184 0.930 . S
C174 C171 1.367 . S
C174 C172 1.403 . S
C174 H195 0.929 . S
C175 C176 1.430 . S
C175 C177 1.387 . S
C175 C181 1.416 . S
C176 C169 1.448 . S
C176 C175 1.430 . S
C176 N180 1.351 . S
C177 C175 1.387 . S
C177 C178 1.374 . S
C177 H192 0.931 . S
C178 C172 1.439 . S
C178 C177 1.374 . S
C178 H193 0.931 . S
Eu179 N170 2.600 . S
Eu179 N180 2.562 . S
Eu179 O214 2.335 . S
Eu179 O217 2.372 . S
Eu179 O218 2.462 1_554 S
Eu179 O219 2.373 . S
Eu179 O221 2.432 . S
Eu179 O222 2.291 1_554 S
Eu179 C243 2.787 . S
N180 C176 1.351 . S
N180 Eu179 2.562 . S
N180 C182 1.325 1_554 S
C181 C175 1.416 . S
C181 C183 1.360 1_554 S
C181 H189 0.925 1_554 S
C182 N180 1.325 1_556 S
C182 C183 1.416 . S
C182 H188 0.929 . S
C183 C181 1.360 1_556 S
C183 C182 1.416 . S
C183 H185 0.930 . S
H184 C173 0.930 . S
H185 C183 0.930 . S
H186 C201 0.930 . S
H187 C208 0.930 . S
H188 C182 0.929 . S
H189 C181 0.925 1_556 S
H190 C204 0.929 . S
H191 C171 0.931 . S
H192 C177 0.931 . S
H193 C178 0.931 . S
H194 C199 0.931 . S
H195 C174 0.929 . S
H196 C207 0.932 . S
N197 Eu168 2.600 . S
N197 C198 1.365 . S
N197 C201 1.319 . S
C198 N197 1.365 . S
C198 C200 1.405 . S
C198 C206 1.448 . S
C199 H194 0.931 . S
C199 C201 1.397 . S
C199 C202 1.367 . S
C200 C198 1.405 . S
C200 C202 1.403 . S
C200 C233 1.439 . S
C201 H186 0.930 . S
C201 N197 1.319 . S
C201 C199 1.397 . S
C202 C199 1.367 . S
C202 C200 1.403 . S
C202 H209 0.929 . S
N203 Eu168 2.562 . S
N203 C204 1.325 1_556 S
N203 C206 1.351 . S
C204 H190 0.929 . S
C204 N203 1.325 1_554 S
C204 C208 1.416 . S
C205 C206 1.430 . S
C205 C207 1.401 1_556 S
C205 C234 1.387 . S
C206 C198 1.448 . S
C206 N203 1.351 . S
C206 C205 1.430 . S
C207 H196 0.932 . S
C207 C205 1.401 1_554 S
C207 C208 1.368 . S
C208 H187 0.930 . S
C208 C204 1.416 . S
C208 C207 1.368 . S
H209 C202 0.929 . S
H210 C233 0.931 . S
H211 C234 0.931 . S
O212 Eu168 2.462 1_554 S
O212 C232 1.252 1_554 S
O213 Eu168 2.373 . S
O213 C224 1.249 . S
O214 Eu179 2.335 . S
O214 C224 1.264 1_554 S
O215 Eu168 2.432 . S
O215 C232 1.268 . S
O216 Eu168 2.291 1_554 S
O216 C231 1.255 . S
O217 Eu179 2.372 . S
O217 C231 1.257 . S
O218 Eu179 2.462 1_556 S
O218 C243 1.252 1_556 S
O219 Eu179 2.373 . S
O219 C235 1.249 . S
O220 Eu168 2.335 . S
O220 C235 1.264 1_556 S
O221 Eu179 2.432 . S
O221 C243 1.268 . S
O222 Eu179 2.291 1_556 S
O222 C242 1.255 . S
O223 Eu168 2.372 . S
O223 C242 1.257 . S
C224 O213 1.249 . S
C224 O214 1.264 1_556 S
C225 C228 1.382 . S
C225 C230 1.390 1_556 S
C225 C232 1.506 . S
C226 C227 1.398 . S
C226 C230 1.392 1_556 S
C227 C226 1.398 . S
C227 C229 1.372 . S
C227 H244 0.931 . S
C228 C225 1.382 . S
C228 C229 1.390 . S
C228 H245 0.931 . S
C229 C227 1.372 . S
C229 C228 1.390 . S
C229 H246 0.929 . S
C230 C225 1.390 1_554 S
C230 C226 1.392 1_554 S
C230 H247 0.930 . S
C231 O216 1.255 . S
C231 O217 1.257 . S
C232 Eu168 2.787 . S
C232 O212 1.252 1_556 S
C232 O215 1.268 . S
C232 C225 1.506 . S
C233 C200 1.439 . S
C233 H210 0.931 . S
C233 C234 1.374 . S
C234 C205 1.387 . S
C234 H211 0.931 . S
C234 C233 1.374 . S
C235 O219 1.249 . S
C235 O220 1.264 1_554 S
C236 C239 1.382 . S
C236 C240 1.383 1_554 S
C236 C243 1.506 . S
C237 C238 1.398 . S
C237 C240 1.393 1_554 S
C238 C237 1.398 . S
C238 C241 1.372 . S
C238 H248 0.931 . S
C239 C236 1.382 . S
C239 C241 1.390 . S
C239 H249 0.931 . S
C240 C236 1.383 1_556 S
C240 C237 1.393 1_556 S
C240 H250 0.935 . S
C241 C238 1.372 . S
C241 C239 1.390 . S
C241 H251 0.929 . S
C242 O222 1.255 . S
C242 O223 1.257 . S
C243 Eu179 2.787 . S
C243 O218 1.252 1_554 S
C243 O221 1.268 . S
C243 C236 1.506 . S
H244 C227 0.931 . S
H245 C228 0.931 . S
H246 C229 0.929 . S
H247 C230 0.930 . S
H248 C238 0.931 . S
H249 C239 0.931 . S
H250 C240 0.935 . S
H251 C241 0.929 . S
C252 C253 1.391 1_455 S
C252 C254 1.394 . S
C252 H268 0.931 . S
C253 C252 1.391 1_655 S
C253 C257 1.376 . S
C254 C252 1.394 . S
C254 C255 1.369 1_455 S
C254 C258 1.531 . S
C255 C254 1.369 1_655 S
C255 C256 1.410 . S
C255 C263 1.503 . S
C256 C255 1.410 . S
C256 C257 1.392 . S
C256 C259 1.511 . S
C257 C253 1.376 . S
C257 C256 1.392 . S
C257 H269 0.929 . S
C258 C254 1.531 . S
C258 H270 0.960 . S
C258 H271 0.962 . S
C258 H272 0.960 . S
C259 C256 1.511 . S
C259 H273 0.961 . S
C259 H274 0.961 . S
C259 H275 0.961 . S
C260 C261 1.370 . S
C260 C262 1.363 . S
C260 H276 0.931 . S
C261 C260 1.370 . S
C261 C265 1.408 1_455 S
C262 C260 1.363 . S
C262 C263 1.370 1_455 S
C262 C266 1.524 . S
C263 C255 1.503 . S
C263 C262 1.370 1_655 S
C263 C264 1.403 . S
C264 C263 1.403 . S
C264 C265 1.404 . S
C264 C267 1.539 . S
C265 C261 1.408 1_655 S
C265 C264 1.404 . S
C265 H277 0.930 . S
C266 C262 1.524 . S
C266 H278 0.956 . S
C266 H279 0.961 . S
C266 H280 0.961 . S
C267 C264 1.539 . S
C267 H281 0.958 . S
C267 H282 0.961 . S
C267 H283 0.960 . S
H268 C252 0.931 . S
H269 C257 0.929 . S
H270 C258 0.960 . S
H271 C258 0.962 . S
H272 C258 0.960 . S
H273 C259 0.961 . S
H274 C259 0.961 . S
H275 C259 0.961 . S
H276 C260 0.931 . S
H277 C265 0.930 . S
H278 C266 0.956 . S
H279 C266 0.961 . S
H280 C266 0.961 . S
H281 C267 0.958 . S
H282 C267 0.961 . S
H283 C267 0.960 . S
C284 C285 1.391 . S
C284 C286 1.394 . S
C284 H300 0.931 . S
C285 C284 1.391 . S
C285 C289 1.376 1_545 S
C286 C284 1.394 . S
C286 C287 1.369 1_545 S
C286 C290 1.531 . S
C287 C286 1.369 1_565 S
C287 C288 1.410 . S
C287 C295 1.503 . S
C288 C287 1.410 . S
C288 C289 1.392 . S
C288 C291 1.511 . S
C289 C285 1.376 1_565 S
C289 C288 1.392 . S
C289 H301 0.929 . S
C290 C286 1.531 . S
C290 H302 0.960 . S
C290 H303 0.962 . S
C290 H304 0.960 . S
C291 C288 1.511 . S
C291 H305 0.961 . S
C291 H306 0.961 . S
C291 H307 0.961 . S
C292 C293 1.370 1_545 S
C292 C294 1.363 . S
C292 H308 0.931 . S
C293 C292 1.370 1_565 S
C293 C297 1.408 . S
C294 C292 1.363 . S
C294 C295 1.370 1_545 S
C294 C298 1.524 . S
C295 C287 1.503 . S
C295 C294 1.370 1_565 S
C295 C296 1.403 . S
C296 C295 1.403 . S
C296 C297 1.404 . S
C296 C299 1.539 . S
C297 C293 1.408 . S
C297 C296 1.404 . S
C297 H309 0.930 . S
C298 C294 1.524 . S
C298 H310 0.956 . S
C298 H311 0.961 . S
C298 H312 0.961 . S
C299 C296 1.539 . S
C299 H313 0.958 . S
C299 H314 0.961 . S
C299 H315 0.960 . S
H300 C284 0.931 . S
H301 C289 0.929 . S
H302 C290 0.960 . S
H303 C290 0.962 . S
H304 C290 0.960 . S
H305 C291 0.961 . S
H306 C291 0.961 . S
H307 C291 0.961 . S
H308 C292 0.931 . S
H309 C297 0.930 . S
H310 C298 0.956 . S
H311 C298 0.961 . S
H312 C298 0.961 . S
H313 C299 0.958 . S
H314 C299 0.961 . S
H315 C299 0.960 . S
C316 C317 1.391 . S
C316 C318 1.394 . S
C316 H332 0.931 . S
C317 C316 1.391 . S
C317 C321 1.376 . S
C318 C316 1.394 . S
C318 C319 1.369 . S
C318 C322 1.531 . S
C319 C318 1.369 . S
C319 C320 1.410 . S
C319 C327 1.503 . S
C320 C319 1.410 . S
C320 C321 1.392 . S
C320 C323 1.511 . S
C321 C317 1.376 . S
C321 C320 1.392 . S
C321 H333 0.929 . S
C322 C318 1.531 . S
C322 H334 0.960 . S
C322 H335 0.962 . S
C322 H336 0.960 . S
C323 C320 1.511 . S
C323 H337 0.961 . S
C323 H338 0.961 . S
C323 H339 0.961 . S
C324 C325 1.370 . S
C324 C326 1.363 . S
C324 H340 0.931 . S
C325 C324 1.370 . S
C325 C329 1.408 . S
C326 C324 1.363 . S
C326 C327 1.370 . S
C326 C330 1.524 . S
C327 C319 1.503 . S
C327 C326 1.370 . S
C327 C328 1.403 . S
C328 C327 1.403 . S
C328 C329 1.404 . S
C328 C331 1.539 . S
C329 C325 1.408 . S
C329 C328 1.404 . S
C329 H341 0.930 . S
C330 C326 1.524 . S
C330 H342 0.956 . S
C330 H343 0.961 . S
C330 H344 0.961 . S
C331 C328 1.539 . S
C331 H345 0.958 . S
C331 H346 0.961 . S
C331 H347 0.960 . S
H332 C316 0.931 . S
H333 C321 0.929 . S
H334 C322 0.960 . S
H335 C322 0.962 . S
H336 C322 0.960 . S
H337 C323 0.961 . S
H338 C323 0.961 . S
H339 C323 0.961 . S
H340 C324 0.931 . S
H341 C329 0.930 . S
H342 C330 0.956 . S
H343 C330 0.961 . S
H344 C330 0.961 . S
H345 C331 0.958 . S
H346 C331 0.961 . S
H347 C331 0.960 . S
C348 C349 1.391 1_556 S
C348 C350 1.395 1_556 S
C348 H364 0.931 . S
C349 C348 1.391 1_554 S
C349 C353 1.376 . S
C350 C348 1.395 1_554 S
C350 C351 1.373 . S
C350 C354 1.526 1_554 S
C351 C350 1.373 . S
C351 C352 1.410 . S
C351 C359 1.503 . S
C352 C351 1.410 . S
C352 C353 1.392 . S
C352 C355 1.511 . S
C353 C349 1.376 . S
C353 C352 1.392 . S
C353 H365 0.929 . S
C354 C350 1.526 1_556 S
C354 H366 0.960 1_556 S
C354 H367 0.962 . S
C354 H368 0.960 . S
C355 C352 1.511 . S
C355 H369 0.961 . S
C355 H370 0.961 . S
C355 H371 0.961 . S
C356 C357 1.370 . S
C356 C358 1.363 . S
C356 H372 0.931 . S
C357 C356 1.370 . S
C357 C361 1.408 1_556 S
C358 C356 1.363 . S
C358 C359 1.370 1_556 S
C358 C362 1.524 . S
C359 C351 1.503 . S
C359 C358 1.370 1_554 S
C359 C360 1.403 . S
C360 C359 1.403 . S
C360 C361 1.404 . S
C360 C363 1.539 . S
C361 C357 1.408 1_554 S
C361 C360 1.404 . S
C361 H373 0.930 . S
C362 C358 1.524 . S
C362 H374 0.956 . S
C362 H375 0.961 . S
C362 H376 0.961 . S
C363 C360 1.539 . S
C363 H377 0.958 . S
C363 H378 0.961 . S
C363 H379 0.960 . S
H364 C348 0.931 . S
H365 C353 0.929 . S
H366 C354 0.960 1_554 S
H367 C354 0.962 . S
H368 C354 0.960 . S
H369 C355 0.961 . S
H370 C355 0.961 . S
H371 C355 0.961 . S
H372 C356 0.931 . S
H373 C361 0.930 . S
H374 C362 0.956 . S
H375 C362 0.961 . S
H376 C362 0.961 . S
H377 C363 0.958 . S
H378 C363 0.961 . S
H379 C363 0.960 . S
C380 C381 1.391 . S
C380 C382 1.394 . S
C380 H396 0.931 . S
C381 C380 1.391 . S
C381 C385 1.376 . S
C382 C380 1.394 . S
C382 C383 1.369 . S
C382 C386 1.531 . S
C383 C382 1.369 . S
C383 C384 1.410 . S
C383 C391 1.503 . S
C384 C383 1.410 . S
C384 C385 1.392 . S
C384 C387 1.511 . S
C385 C381 1.376 . S
C385 C384 1.392 . S
C385 H397 0.929 . S
C386 C382 1.531 . S
C386 H398 0.960 . S
C386 H399 0.956 1_556 S
C386 H400 0.960 . S
C387 C384 1.511 . S
C387 H401 0.963 . S
C387 H402 0.961 1_556 S
C387 H403 0.961 . S
C388 C389 1.370 . S
C388 C390 1.363 . S
C388 H404 0.931 . S
C389 C388 1.370 . S
C389 C393 1.408 1_554 S
C390 C388 1.363 . S
C390 C391 1.370 1_554 S
C390 C394 1.524 . S
C391 C383 1.503 . S
C391 C390 1.370 1_556 S
C391 C392 1.403 . S
C392 C391 1.403 . S
C392 C393 1.404 . S
C392 C395 1.539 . S
C393 C389 1.408 1_556 S
C393 C392 1.404 . S
C393 H405 0.930 . S
C394 C390 1.524 . S
C394 H406 0.956 . S
C394 H407 0.961 . S
C394 H408 0.961 . S
C395 C392 1.539 . S
C395 H409 0.958 . S
C395 H410 0.961 . S
C395 H411 0.960 . S
H396 C380 0.931 . S
H397 C385 0.929 . S
H398 C386 0.960 . S
H399 C386 0.956 1_554 S
H400 C386 0.960 . S
H401 C387 0.963 . S
H402 C387 0.961 1_554 S
H403 C387 0.961 . S
H404 C388 0.931 . S
H405 C393 0.930 . S
H406 C394 0.956 . S
H407 C394 0.961 . S
H408 C394 0.961 . S
H409 C395 0.958 . S
H410 C395 0.961 . S
H411 C395 0.960 . S
C412 C413 1.391 . S
C412 C414 1.394 . S
C412 H428 0.931 . S
C413 C412 1.391 . S
C413 C417 1.376 . S
C414 C412 1.394 . S
C414 C415 1.369 . S
C414 C418 1.531 . S
C415 C414 1.369 . S
C415 C416 1.410 . S
C415 C423 1.503 . S
C416 C415 1.410 . S
C416 C417 1.392 . S
C416 C419 1.511 . S
C417 C413 1.376 . S
C417 C416 1.392 . S
C417 H429 0.929 . S
C418 C414 1.531 . S
C418 H430 0.960 1_556 S
C418 H431 0.962 . S
C418 H432 0.960 1_556 S
C419 C416 1.511 . S
C419 H433 0.961 . S
C419 H434 0.961 . S
C419 H435 0.961 1_556 S
C420 C421 1.370 . S
C420 C422 1.363 . S
C420 H436 0.931 . S
C421 C420 1.370 . S
C421 C425 1.408 1_556 S
C422 C420 1.363 . S
C422 C423 1.370 . S
C422 C426 1.524 . S
C423 C415 1.503 . S
C423 C422 1.370 . S
C423 C424 1.403 1_556 S
C424 C423 1.403 1_554 S
C424 C425 1.404 . S
C424 C427 1.539 . S
C425 C421 1.408 1_554 S
C425 C424 1.404 . S
C425 H437 0.930 . S
C426 C422 1.524 . S
C426 H438 0.956 . S
C426 H439 0.961 . S
C426 H440 0.961 . S
C427 C424 1.539 . S
C427 H441 0.958 . S
C427 H442 0.961 . S
C427 H443 0.960 . S
H428 C412 0.931 . S
H429 C417 0.929 . S
H430 C418 0.960 1_554 S
H431 C418 0.962 . S
H432 C418 0.960 1_554 S
H433 C419 0.961 . S
H434 C419 0.961 . S
H435 C419 0.961 1_554 S
H436 C420 0.931 . S
H437 C425 0.930 . S
H438 C426 0.956 . S
H439 C426 0.961 . S
H440 C426 0.961 . S
H441 C427 0.958 . S
H442 C427 0.961 . S
H443 C427 0.960 . S
C444 C445 1.389 1_554 S
C444 C446 1.394 . S
C444 H460 0.931 . S
C445 C444 1.389 1_556 S
C445 C449 1.377 . S
C446 C444 1.394 . S
C446 C447 1.369 . S
C446 C450 1.531 . S
C447 C446 1.369 . S
C447 C448 1.413 . S
C447 C455 1.503 . S
C448 C447 1.413 . S
C448 C449 1.391 1_554 S
C448 C451 1.509 1_554 S
C449 C445 1.377 . S
C449 C448 1.391 1_556 S
C449 H461 0.929 . S
C450 C446 1.531 . S
C450 H462 0.960 . S
C450 H463 0.962 1_554 S
C450 H464 0.960 . S
C451 C448 1.509 1_556 S
C451 H465 0.961 . S
C451 H466 0.961 . S
C451 H467 0.961 1_556 S
C452 C453 1.370 1_556 S
C452 C454 1.363 . S
C452 H468 0.931 . S
C453 C452 1.370 1_554 S
C453 C457 1.408 . S
C454 C452 1.363 . S
C454 C455 1.370 1_556 S
C454 C458 1.524 . S
C455 C447 1.503 . S
C455 C454 1.370 1_554 S
C455 C456 1.403 . S
C456 C455 1.403 . S
C456 C457 1.404 . S
C456 C459 1.539 . S
C457 C453 1.408 . S
C457 C456 1.404 . S
C457 H469 0.930 . S
C458 C454 1.524 . S
C458 H470 0.956 . S
C458 H471 0.961 . S
C458 H472 0.961 . S
C459 C456 1.539 . S
C459 H473 0.958 . S
C459 H474 0.961 . S
C459 H475 0.960 . S
H460 C444 0.931 . S
H461 C449 0.929 . S
H462 C450 0.960 . S
H463 C450 0.962 1_556 S
H464 C450 0.960 . S
H465 C451 0.961 . S
H466 C451 0.961 . S
H467 C451 0.961 1_554 S
H468 C452 0.931 . S
H469 C457 0.930 . S
H470 C458 0.956 . S
H471 C458 0.961 . S
H472 C458 0.961 . S
H473 C459 0.958 . S
H474 C459 0.961 . S
H475 C459 0.960 . S
C476 C477 1.391 1_554 S
C476 C478 1.394 . S
C476 H492 0.931 . S
C477 C476 1.391 1_556 S
C477 C481 1.376 . S
C478 C476 1.394 . S
C478 C479 1.369 . S
C478 C482 1.531 . S
C479 C478 1.369 . S
C479 C480 1.410 1_554 S
C479 C487 1.503 . S
C480 C479 1.410 1_556 S
C480 C481 1.392 . S
C480 C483 1.511 . S
C481 C477 1.376 . S
C481 C480 1.392 . S
C481 H493 0.929 . S
C482 C478 1.531 . S
C482 H494 0.960 . S
C482 H495 0.962 . S
C482 H496 0.960 . S
C483 C480 1.511 . S
C483 H497 0.961 . S
C483 H498 0.961 . S
C483 H499 0.961 . S
C484 C485 1.370 1_556 S
C484 C486 1.363 . S
C484 H500 0.931 . S
C485 C484 1.370 1_554 S
C485 C489 1.408 . S
C486 C484 1.363 . S
C486 C487 1.370 1_556 S
C486 C490 1.524 . S
C487 C479 1.503 . S
C487 C486 1.370 1_554 S
C487 C488 1.403 . S
C488 C487 1.403 . S
C488 C489 1.404 . S
C488 C491 1.539 . S
C489 C485 1.408 . S
C489 C488 1.404 . S
C489 H501 0.930 . S
C490 C486 1.524 . S
C490 H502 0.956 . S
C490 H503 0.961 . S
C490 H504 0.961 . S
C491 C488 1.539 . S
C491 H505 0.958 . S
C491 H506 0.961 . S
C491 H507 0.960 . S
H492 C476 0.931 . S
H493 C481 0.929 . S
H494 C482 0.960 . S
H495 C482 0.962 . S
H496 C482 0.960 . S
H497 C483 0.961 . S
H498 C483 0.961 . S
H499 C483 0.961 . S
H500 C484 0.931 . S
H501 C489 0.930 . S
H502 C490 0.956 . S
H503 C490 0.961 . S
H504 C490 0.961 . S
H505 C491 0.958 . S
H506 C491 0.961 . S
H507 C491 0.960 . S
C508 C509 1.391 . S
C508 C510 1.394 . S
C508 H524 0.931 . S
C509 C508 1.391 . S
C509 C513 1.376 1_554 S
C510 C508 1.394 . S
C510 C511 1.369 . S
C510 C514 1.531 . S
C511 C510 1.369 . S
C511 C512 1.410 1_554 S
C511 C519 1.503 . S
C512 C511 1.410 1_556 S
C512 C513 1.392 . S
C512 C515 1.511 . S
C513 C509 1.376 1_556 S
C513 C512 1.392 . S
C513 H525 0.929 . S
C514 C510 1.531 . S
C514 H526 0.960 . S
C514 H527 0.962 . S
C514 H528 0.960 . S
C515 C512 1.511 . S
C515 H529 0.961 . S
C515 H530 0.961 . S
C515 H531 0.961 . S
C516 C517 1.370 1_556 S
C516 C518 1.363 . S
C516 H532 0.931 . S
C517 C516 1.370 1_554 S
C517 C521 1.408 . S
C518 C516 1.363 . S
C518 C519 1.370 1_556 S
C518 C522 1.524 . S
C519 C511 1.503 . S
C519 C518 1.370 1_554 S
C519 C520 1.403 . S
C520 C519 1.403 . S
C520 C521 1.404 . S
C520 C523 1.539 . S
C521 C517 1.408 . S
C521 C520 1.404 . S
C521 H533 0.930 . S
C522 C518 1.524 . S
C522 H534 0.956 . S
C522 H535 0.961 . S
C522 H536 0.961 . S
C523 C520 1.539 . S
C523 H537 0.958 . S
C523 H538 0.961 . S
C523 H539 0.960 . S
H524 C508 0.931 . S
H525 C513 0.929 . S
H526 C514 0.960 . S
H527 C514 0.962 . S
H528 C514 0.960 . S
H529 C515 0.961 . S
H530 C515 0.961 . S
H531 C515 0.961 . S
H532 C516 0.931 . S
H533 C521 0.930 . S
H534 C522 0.956 . S
H535 C522 0.961 . S
H536 C522 0.961 . S
H537 C523 0.958 . S
H538 C523 0.961 . S
H539 C523 0.960 . S
C253 C63 1.462 . S
C261 C74 1.494 . S
C285 C147 1.537 . S
C293 C158 1.519 . S
C317 C242 1.463 . S
C325 C231 1.484 . S
C349 C67 2.300 . S
C357 C224 2.316 . S
C381 C153 0.880 . S
C389 C69 0.743 1_554 S
C413 C151 1.589 . S
C421 C237 1.467 1_556 S
C445 C56 2.285 . S
C453 C235 2.312 . S
C477 C58 0.711 1_556 S
C485 C142 0.809 . S
C509 C226 1.505 1_554 S
C517 C140 1.623 . S
