# Generated by pormake.
# Topology fcl, (5)-cn, num edge types: 1
# Building blocks:
#     Node 0, Type 0, BuildingBlock: BEQFEK_clean_sbu_0, # of connection points: 5
#     Node 1, Type 0, BuildingBlock: BEQFEK_clean_sbu_0, # of connection points: 5
#     Node 2, Type 0, BuildingBlock: BEQFEK_clean_sbu_0, # of connection points: 5
#     Node 3, Type 0, BuildingBlock: BEQFEK_clean_sbu_0, # of connection points: 5
#     Node 4, Type 0, BuildingBlock: BEQFEK_clean_sbu_0, # of connection points: 5
#     Node 5, Type 0, BuildingBlock: BEQFEK_clean_sbu_0, # of connection points: 5
#     Node 6, Type 0, BuildingBlock: BEQFEK_clean_sbu_0, # of connection points: 5
#     Node 7, Type 0, BuildingBlock: BEQFEK_clean_sbu_0, # of connection points: 5
#     Node 8, Type 0, BuildingBlock: BEQFEK_clean_sbu_0, # of connection points: 5
#     Node 9, Type 0, BuildingBlock: BEQFEK_clean_sbu_0, # of connection points: 5
#     Node 10, Type 0, BuildingBlock: BEQFEK_clean_sbu_0, # of connection points: 5
#     Node 11, Type 0, BuildingBlock: BEQFEK_clean_sbu_0, # of connection points: 5
#     Node 12, Type 0, BuildingBlock: BEQFEK_clean_sbu_0, # of connection points: 5
#     Node 13, Type 0, BuildingBlock: BEQFEK_clean_sbu_0, # of connection points: 5
#     Node 14, Type 0, BuildingBlock: BEQFEK_clean_sbu_0, # of connection points: 5
#     Node 15, Type 0, BuildingBlock: BEQFEK_clean_sbu_0, # of connection points: 5
#     Node 16, Type 0, BuildingBlock: BEQFEK_clean_sbu_0, # of connection points: 5
#     Node 17, Type 0, BuildingBlock: BEQFEK_clean_sbu_0, # of connection points: 5
#     Node 18, Type 0, BuildingBlock: BEQFEK_clean_sbu_0, # of connection points: 5
#     Node 19, Type 0, BuildingBlock: BEQFEK_clean_sbu_0, # of connection points: 5
#     Node 20, Type 0, BuildingBlock: BEQFEK_clean_sbu_0, # of connection points: 5
#     Node 21, Type 0, BuildingBlock: BEQFEK_clean_sbu_0, # of connection points: 5
#     Node 22, Type 0, BuildingBlock: BEQFEK_clean_sbu_0, # of connection points: 5
#     Node 23, Type 0, BuildingBlock: BEQFEK_clean_sbu_0, # of connection points: 5
#     Node 24, Type 0, BuildingBlock: BEQFEK_clean_sbu_0, # of connection points: 5
#     Node 25, Type 0, BuildingBlock: BEQFEK_clean_sbu_0, # of connection points: 5
#     Node 26, Type 0, BuildingBlock: BEQFEK_clean_sbu_0, # of connection points: 5
#     Node 27, Type 0, BuildingBlock: BEQFEK_clean_sbu_0, # of connection points: 5
#     Node 28, Type 0, BuildingBlock: BEQFEK_clean_sbu_0, # of connection points: 5
#     Node 29, Type 0, BuildingBlock: BEQFEK_clean_sbu_0, # of connection points: 5
#     Node 30, Type 0, BuildingBlock: BEQFEK_clean_sbu_0, # of connection points: 5
#     Node 31, Type 0, BuildingBlock: BEQFEK_clean_sbu_0, # of connection points: 5
#     Node 32, Type 0, BuildingBlock: BEQFEK_clean_sbu_0, # of connection points: 5
#     Node 33, Type 0, BuildingBlock: BEQFEK_clean_sbu_0, # of connection points: 5
#     Node 34, Type 0, BuildingBlock: BEQFEK_clean_sbu_0, # of connection points: 5
#     Node 35, Type 0, BuildingBlock: BEQFEK_clean_sbu_0, # of connection points: 5
#     Node 36, Type 0, BuildingBlock: BEQFEK_clean_sbu_0, # of connection points: 5
#     Node 37, Type 0, BuildingBlock: BEQFEK_clean_sbu_0, # of connection points: 5
#     Node 38, Type 0, BuildingBlock: BEQFEK_clean_sbu_0, # of connection points: 5
#     Node 39, Type 0, BuildingBlock: BEQFEK_clean_sbu_0, # of connection points: 5
#     Node 40, Type 0, BuildingBlock: BEQFEK_clean_sbu_0, # of connection points: 5
#     Node 41, Type 0, BuildingBlock: BEQFEK_clean_sbu_0, # of connection points: 5
#     Node 42, Type 0, BuildingBlock: BEQFEK_clean_sbu_0, # of connection points: 5
#     Node 43, Type 0, BuildingBlock: BEQFEK_clean_sbu_0, # of connection points: 5
#     Node 44, Type 0, BuildingBlock: BEQFEK_clean_sbu_0, # of connection points: 5
#     Node 45, Type 0, BuildingBlock: BEQFEK_clean_sbu_0, # of connection points: 5
#     Node 46, Type 0, BuildingBlock: BEQFEK_clean_sbu_0, # of connection points: 5
#     Node 47, Type 0, BuildingBlock: BEQFEK_clean_sbu_0, # of connection points: 5
#     Edge 48, Type (0, 0), BuildingBlock: OJICUG_clean_linker_0, # of connection points: 2
#     Edge 49, Type (0, 0), BuildingBlock: OJICUG_clean_linker_0, # of connection points: 2
#     Edge 50, Type (0, 0), BuildingBlock: OJICUG_clean_linker_0, # of connection points: 2
#     Edge 51, Type (0, 0), BuildingBlock: OJICUG_clean_linker_0, # of connection points: 2
#     Edge 52, Type (0, 0), BuildingBlock: OJICUG_clean_linker_0, # of connection points: 2
#     Edge 53, Type (0, 0), BuildingBlock: OJICUG_clean_linker_0, # of connection points: 2
#     Edge 54, Type (0, 0), BuildingBlock: OJICUG_clean_linker_0, # of connection points: 2
#     Edge 55, Type (0, 0), BuildingBlock: OJICUG_clean_linker_0, # of connection points: 2
#     Edge 56, Type (0, 0), BuildingBlock: OJICUG_clean_linker_0, # of connection points: 2
#     Edge 57, Type (0, 0), BuildingBlock: OJICUG_clean_linker_0, # of connection points: 2
#     Edge 58, Type (0, 0), BuildingBlock: OJICUG_clean_linker_0, # of connection points: 2
#     Edge 59, Type (0, 0), BuildingBlock: OJICUG_clean_linker_0, # of connection points: 2
#     Edge 60, Type (0, 0), BuildingBlock: OJICUG_clean_linker_0, # of connection points: 2
#     Edge 61, Type (0, 0), BuildingBlock: OJICUG_clean_linker_0, # of connection points: 2
#     Edge 62, Type (0, 0), BuildingBlock: OJICUG_clean_linker_0, # of connection points: 2
#     Edge 63, Type (0, 0), BuildingBlock: OJICUG_clean_linker_0, # of connection points: 2
#     Edge 64, Type (0, 0), BuildingBlock: OJICUG_clean_linker_0, # of connection points: 2
#     Edge 65, Type (0, 0), BuildingBlock: OJICUG_clean_linker_0, # of connection points: 2
#     Edge 66, Type (0, 0), BuildingBlock: OJICUG_clean_linker_0, # of connection points: 2
#     Edge 67, Type (0, 0), BuildingBlock: OJICUG_clean_linker_0, # of connection points: 2
#     Edge 68, Type (0, 0), BuildingBlock: OJICUG_clean_linker_0, # of connection points: 2
#     Edge 69, Type (0, 0), BuildingBlock: OJICUG_clean_linker_0, # of connection points: 2
#     Edge 70, Type (0, 0), BuildingBlock: OJICUG_clean_linker_0, # of connection points: 2
#     Edge 71, Type (0, 0), BuildingBlock: OJICUG_clean_linker_0, # of connection points: 2
#     Edge 72, Type (0, 0), BuildingBlock: OJICUG_clean_linker_0, # of connection points: 2
#     Edge 73, Type (0, 0), BuildingBlock: OJICUG_clean_linker_0, # of connection points: 2
#     Edge 74, Type (0, 0), BuildingBlock: OJICUG_clean_linker_0, # of connection points: 2
#     Edge 75, Type (0, 0), BuildingBlock: OJICUG_clean_linker_0, # of connection points: 2
#     Edge 76, Type (0, 0), BuildingBlock: OJICUG_clean_linker_0, # of connection points: 2
#     Edge 77, Type (0, 0), BuildingBlock: OJICUG_clean_linker_0, # of connection points: 2
#     Edge 78, Type (0, 0), BuildingBlock: OJICUG_clean_linker_0, # of connection points: 2
#     Edge 79, Type (0, 0), BuildingBlock: OJICUG_clean_linker_0, # of connection points: 2
#     Edge 80, Type (0, 0), BuildingBlock: OJICUG_clean_linker_0, # of connection points: 2
#     Edge 81, Type (0, 0), BuildingBlock: OJICUG_clean_linker_0, # of connection points: 2
#     Edge 82, Type (0, 0), BuildingBlock: OJICUG_clean_linker_0, # of connection points: 2
#     Edge 83, Type (0, 0), BuildingBlock: OJICUG_clean_linker_0, # of connection points: 2
#     Edge 84, Type (0, 0), BuildingBlock: OJICUG_clean_linker_0, # of connection points: 2
#     Edge 85, Type (0, 0), BuildingBlock: OJICUG_clean_linker_0, # of connection points: 2
#     Edge 86, Type (0, 0), BuildingBlock: OJICUG_clean_linker_0, # of connection points: 2
#     Edge 87, Type (0, 0), BuildingBlock: OJICUG_clean_linker_0, # of connection points: 2
#     Edge 88, Type (0, 0), BuildingBlock: OJICUG_clean_linker_0, # of connection points: 2
#     Edge 89, Type (0, 0), BuildingBlock: OJICUG_clean_linker_0, # of connection points: 2
#     Edge 90, Type (0, 0), BuildingBlock: OJICUG_clean_linker_0, # of connection points: 2
#     Edge 91, Type (0, 0), BuildingBlock: OJICUG_clean_linker_0, # of connection points: 2
#     Edge 92, Type (0, 0), BuildingBlock: OJICUG_clean_linker_0, # of connection points: 2
#     Edge 93, Type (0, 0), BuildingBlock: OJICUG_clean_linker_0, # of connection points: 2
#     Edge 94, Type (0, 0), BuildingBlock: OJICUG_clean_linker_0, # of connection points: 2
#     Edge 95, Type (0, 0), BuildingBlock: OJICUG_clean_linker_0, # of connection points: 2
#     Edge 96, Type (0, 0), BuildingBlock: OJICUG_clean_linker_0, # of connection points: 2
#     Edge 97, Type (0, 0), BuildingBlock: OJICUG_clean_linker_0, # of connection points: 2
#     Edge 98, Type (0, 0), BuildingBlock: OJICUG_clean_linker_0, # of connection points: 2
#     Edge 99, Type (0, 0), BuildingBlock: OJICUG_clean_linker_0, # of connection points: 2
#     Edge 100, Type (0, 0), BuildingBlock: OJICUG_clean_linker_0, # of connection points: 2
#     Edge 101, Type (0, 0), BuildingBlock: OJICUG_clean_linker_0, # of connection points: 2
#     Edge 102, Type (0, 0), BuildingBlock: OJICUG_clean_linker_0, # of connection points: 2
#     Edge 103, Type (0, 0), BuildingBlock: OJICUG_clean_linker_0, # of connection points: 2
#     Edge 104, Type (0, 0), BuildingBlock: OJICUG_clean_linker_0, # of connection points: 2
#     Edge 105, Type (0, 0), BuildingBlock: OJICUG_clean_linker_0, # of connection points: 2
#     Edge 106, Type (0, 0), BuildingBlock: OJICUG_clean_linker_0, # of connection points: 2
#     Edge 107, Type (0, 0), BuildingBlock: OJICUG_clean_linker_0, # of connection points: 2
#     Edge 108, Type (0, 0), BuildingBlock: OJICUG_clean_linker_0, # of connection points: 2
#     Edge 109, Type (0, 0), BuildingBlock: OJICUG_clean_linker_0, # of connection points: 2
#     Edge 110, Type (0, 0), BuildingBlock: OJICUG_clean_linker_0, # of connection points: 2
#     Edge 111, Type (0, 0), BuildingBlock: OJICUG_clean_linker_0, # of connection points: 2
#     Edge 112, Type (0, 0), BuildingBlock: OJICUG_clean_linker_0, # of connection points: 2
#     Edge 113, Type (0, 0), BuildingBlock: OJICUG_clean_linker_0, # of connection points: 2
#     Edge 114, Type (0, 0), BuildingBlock: OJICUG_clean_linker_0, # of connection points: 2
#     Edge 115, Type (0, 0), BuildingBlock: OJICUG_clean_linker_0, # of connection points: 2
#     Edge 116, Type (0, 0), BuildingBlock: OJICUG_clean_linker_0, # of connection points: 2
#     Edge 117, Type (0, 0), BuildingBlock: OJICUG_clean_linker_0, # of connection points: 2
#     Edge 118, Type (0, 0), BuildingBlock: OJICUG_clean_linker_0, # of connection points: 2
#     Edge 119, Type (0, 0), BuildingBlock: OJICUG_clean_linker_0, # of connection points: 2
#     Edge 120, Type (0, 0), BuildingBlock: OJICUG_clean_linker_0, # of connection points: 2
#     Edge 121, Type (0, 0), BuildingBlock: OJICUG_clean_linker_0, # of connection points: 2
#     Edge 122, Type (0, 0), BuildingBlock: OJICUG_clean_linker_0, # of connection points: 2
#     Edge 123, Type (0, 0), BuildingBlock: OJICUG_clean_linker_0, # of connection points: 2
#     Edge 124, Type (0, 0), BuildingBlock: OJICUG_clean_linker_0, # of connection points: 2
#     Edge 125, Type (0, 0), BuildingBlock: OJICUG_clean_linker_0, # of connection points: 2
#     Edge 126, Type (0, 0), BuildingBlock: OJICUG_clean_linker_0, # of connection points: 2
#     Edge 127, Type (0, 0), BuildingBlock: OJICUG_clean_linker_0, # of connection points: 2
#     Edge 128, Type (0, 0), BuildingBlock: OJICUG_clean_linker_0, # of connection points: 2
#     Edge 129, Type (0, 0), BuildingBlock: OJICUG_clean_linker_0, # of connection points: 2
#     Edge 130, Type (0, 0), BuildingBlock: OJICUG_clean_linker_0, # of connection points: 2
#     Edge 131, Type (0, 0), BuildingBlock: OJICUG_clean_linker_0, # of connection points: 2
#     Edge 132, Type (0, 0), BuildingBlock: OJICUG_clean_linker_0, # of connection points: 2
#     Edge 133, Type (0, 0), BuildingBlock: OJICUG_clean_linker_0, # of connection points: 2
#     Edge 134, Type (0, 0), BuildingBlock: OJICUG_clean_linker_0, # of connection points: 2
#     Edge 135, Type (0, 0), BuildingBlock: OJICUG_clean_linker_0, # of connection points: 2
#     Edge 136, Type (0, 0), BuildingBlock: OJICUG_clean_linker_0, # of connection points: 2
#     Edge 137, Type (0, 0), BuildingBlock: OJICUG_clean_linker_0, # of connection points: 2
#     Edge 138, Type (0, 0), BuildingBlock: OJICUG_clean_linker_0, # of connection points: 2
#     Edge 139, Type (0, 0), BuildingBlock: OJICUG_clean_linker_0, # of connection points: 2
#     Edge 140, Type (0, 0), BuildingBlock: OJICUG_clean_linker_0, # of connection points: 2
#     Edge 141, Type (0, 0), BuildingBlock: OJICUG_clean_linker_0, # of connection points: 2
#     Edge 142, Type (0, 0), BuildingBlock: OJICUG_clean_linker_0, # of connection points: 2
#     Edge 143, Type (0, 0), BuildingBlock: OJICUG_clean_linker_0, # of connection points: 2
#     Edge 144, Type (0, 0), BuildingBlock: OJICUG_clean_linker_0, # of connection points: 2
#     Edge 145, Type (0, 0), BuildingBlock: OJICUG_clean_linker_0, # of connection points: 2
#     Edge 146, Type (0, 0), BuildingBlock: OJICUG_clean_linker_0, # of connection points: 2
#     Edge 147, Type (0, 0), BuildingBlock: OJICUG_clean_linker_0, # of connection points: 2
#     Edge 148, Type (0, 0), BuildingBlock: OJICUG_clean_linker_0, # of connection points: 2
#     Edge 149, Type (0, 0), BuildingBlock: OJICUG_clean_linker_0, # of connection points: 2
#     Edge 150, Type (0, 0), BuildingBlock: OJICUG_clean_linker_0, # of connection points: 2
#     Edge 151, Type (0, 0), BuildingBlock: OJICUG_clean_linker_0, # of connection points: 2
#     Edge 152, Type (0, 0), BuildingBlock: OJICUG_clean_linker_0, # of connection points: 2
#     Edge 153, Type (0, 0), BuildingBlock: OJICUG_clean_linker_0, # of connection points: 2
#     Edge 154, Type (0, 0), BuildingBlock: OJICUG_clean_linker_0, # of connection points: 2
#     Edge 155, Type (0, 0), BuildingBlock: OJICUG_clean_linker_0, # of connection points: 2
#     Edge 156, Type (0, 0), BuildingBlock: OJICUG_clean_linker_0, # of connection points: 2
#     Edge 157, Type (0, 0), BuildingBlock: OJICUG_clean_linker_0, # of connection points: 2
#     Edge 158, Type (0, 0), BuildingBlock: OJICUG_clean_linker_0, # of connection points: 2
#     Edge 159, Type (0, 0), BuildingBlock: OJICUG_clean_linker_0, # of connection points: 2
#     Edge 160, Type (0, 0), BuildingBlock: OJICUG_clean_linker_0, # of connection points: 2
#     Edge 161, Type (0, 0), BuildingBlock: OJICUG_clean_linker_0, # of connection points: 2
#     Edge 162, Type (0, 0), BuildingBlock: OJICUG_clean_linker_0, # of connection points: 2
#     Edge 163, Type (0, 0), BuildingBlock: OJICUG_clean_linker_0, # of connection points: 2
#     Edge 164, Type (0, 0), BuildingBlock: OJICUG_clean_linker_0, # of connection points: 2
#     Edge 165, Type (0, 0), BuildingBlock: OJICUG_clean_linker_0, # of connection points: 2
#     Edge 166, Type (0, 0), BuildingBlock: OJICUG_clean_linker_0, # of connection points: 2
#     Edge 167, Type (0, 0), BuildingBlock: OJICUG_clean_linker_0, # of connection points: 2
# Relax obj value: 0.522
# Max RMSD: 0.277
# Mean RMSD: 0.277
data_MOF--net-fcl--node1-BEQFEK_clean_sbu_0--edge1-OJICUG_clean_linker_0
_symmetry_space_group_name_H-M    P1
_symmetry_Int_Tables_number       1
_symmetry_cell_setting            triclinic
loop_
_symmetry_equiv_pos_as_xyz
'x, y, z'
_cell_length_a     50.38611
_cell_length_b     50.506297
_cell_length_c     50.466687
_cell_angle_alpha  89.967251
_cell_angle_beta   90.039576
_cell_angle_gamma 90.06579
loop_
_atom_site_label
_atom_site_type_symbol
_atom_site_fract_x
_atom_site_fract_y
_atom_site_fract_z
_atom_type_partial_charge
Co0 Co 0.03772 0.1497 0.48242 0.0
Co1 Co 0.02691 0.1528 0.42183 0.0
C2 C 0.01786 0.19933 0.46108 0.0
O3 O 0.02337 0.1865 0.48233 0.0
O4 O 0.01878 0.18824 0.43822 0.0
C5 C 0.0408 0.13196 0.54068 0.0
O6 O 0.02509 0.15066 0.54964 0.0
C7 C 0.99574 0.15605 0.37241 0.0
C8 C 0.02272 0.13395 0.34585 0.0
C9 C 0.99761 0.1449 0.34726 0.0
N10 N 0.01839 0.1508 0.38542 0.0
N11 N 0.03463 0.13824 0.3692 0.0
C12 C 0.9735 0.17205 0.38381 0.0
H13 H 0.96043 0.15931 0.39599 0.0
H14 H 0.96153 0.18131 0.36784 0.0
H15 H 0.98164 0.18765 0.39701 0.0
C16 C 0.9929 0.11127 0.47755 0.0
N17 N 0.01188 0.12659 0.46643 0.0
N18 N 0.00919 0.12568 0.44057 0.0
C19 C 0.9894 0.10859 0.43441 0.0
C20 C 0.97793 0.09943 0.45768 0.0
C21 C 0.98864 0.10865 0.50676 0.0
H22 H 1.00504 0.09677 0.51528 0.0
H23 H 0.9889 0.12855 0.51602 0.0
H24 H 0.9697 0.09853 0.5115 0.0
O25 O 0.07331 0.15362 0.46425 0.0
O26 O 0.06517 0.14879 0.4216 0.0
H27 H 0.99725 0.10414 0.39275 0.0
H28 H 0.97357 0.08107 0.40583 0.0
C29 C 0.98066 0.10181 0.40688 0.0
H30 H 0.96385 0.11463 0.40106 0.0
H31 H 0.05331 0.13114 0.37455 0.0
O32 O 0.04687 0.13143 0.51625 0.0
C33 C 0.08136 0.15218 0.4404 0.0
Co34 Co 0.11214 0.78566 0.7283 0.0
Co35 Co 0.10642 0.77164 0.66813 0.0
C36 C 0.06156 0.7629 0.70766 0.0
O37 O 0.07448 0.77142 0.72791 0.0
O38 O 0.07228 0.7614 0.68469 0.0
C39 C 0.12914 0.78878 0.78701 0.0
O40 O 0.11002 0.77354 0.79601 0.0
C41 C 0.10389 0.74245 0.61725 0.0
C42 C 0.12824 0.76982 0.59306 0.0
C43 C 0.11616 0.74523 0.59269 0.0
N44 N 0.10957 0.76408 0.63166 0.0
N45 N 0.12348 0.78058 0.61683 0.0
C46 C 0.08629 0.72045 0.62664 0.0
H47 H 0.07088 0.72841 0.64015 0.0
H48 H 0.09797 0.70569 0.6379 0.0
H49 H 0.0767 0.71036 0.60959 0.0
C50 C 0.15158 0.74181 0.72375 0.0
N51 N 0.13536 0.75997 0.71254 0.0
N52 N 0.13505 0.75615 0.68681 0.0
C53 C 0.15204 0.7363 0.68075 0.0
C54 C 0.16259 0.72613 0.70402 0.0
C55 C 0.15553 0.73866 0.75294 0.0
H56 H 0.16677 0.75596 0.76048 0.0
H57 H 0.13596 0.73799 0.76295 0.0
H58 H 0.16693 0.72055 0.75787 0.0
O59 O 0.11017 0.82125 0.7099 0.0
O60 O 0.10565 0.80985 0.66797 0.0
H61 H 0.15612 0.74186 0.63878 0.0
H62 H 0.17613 0.71562 0.65202 0.0
C63 C 0.15665 0.72564 0.65349 0.0
H64 H 0.14121 0.7108 0.6488 0.0
H65 H 0.13111 0.79861 0.62347 0.0
O66 O 0.13003 0.79447 0.76249 0.0
C67 C 0.10659 0.82743 0.6857 0.0
Co68 Co 0.47411 0.86065 0.97971 0.0
Co69 Co 0.48716 0.85803 0.91961 0.0
C70 C 0.49537 0.81174 0.95994 0.0
O71 O 0.48901 0.82424 0.98109 0.0
O72 O 0.49502 0.82313 0.93723 0.0
C73 C 0.46902 0.87832 0.03724 0.0
O74 O 0.48533 0.85991 0.04577 0.0
C75 C 0.52452 0.85974 0.87532 0.0
C76 C 0.49721 0.87212 0.84332 0.0
C77 C 0.52386 0.86949 0.84954 0.0
N78 N 0.49941 0.85826 0.88416 0.0
N79 N 0.48319 0.86461 0.86461 0.0
C80 C 0.54829 0.85482 0.89247 0.0
H81 H 0.54253 0.85382 0.91367 0.0
H82 H 0.56364 0.87026 0.88948 0.0
H83 H 0.55716 0.83553 0.88685 0.0
C84 C 0.51886 0.89945 0.97628 0.0
N85 N 0.5002 0.88405 0.96474 0.0
N86 N 0.5023 0.88637 0.93894 0.0
C87 C 0.5208 0.90498 0.93331 0.0
C88 C 0.53272 0.91311 0.95675 0.0
C89 C 0.52342 0.90087 1.00552 0.0
H90 H 0.52309 0.88064 0.01404 0.0
H91 H 0.54245 0.91073 0.01048 0.0
H92 H 0.50718 0.91252 0.01462 0.0
O93 O 0.43975 0.85572 0.95923 0.0
O94 O 0.44897 0.86095 0.91675 0.0
H95 H 0.52445 0.93796 0.90697 0.0
H96 H 0.54672 0.91154 0.90017 0.0
C97 C 0.52613 0.9161 0.90634 0.0
H98 H 0.51151 0.90881 0.89171 0.0
H99 H 0.46263 0.86609 0.86648 0.0
O100 O 0.46278 0.8791 0.01285 0.0
C101 C 0.43238 0.85687 0.93508 0.0
Co102 Co 0.39899 0.22041 0.231 0.0
Co103 Co 0.40455 0.23429 0.17083 0.0
C104 C 0.44973 0.24231 0.21063 0.0
O105 O 0.43679 0.23424 0.23103 0.0
O106 O 0.43889 0.24357 0.18769 0.0
C107 C 0.38234 0.21826 0.28955 0.0
O108 O 0.40185 0.23346 0.29779 0.0
C109 C 0.40792 0.26561 0.12162 0.0
C110 C 0.38523 0.23906 0.09505 0.0
C111 C 0.39654 0.26398 0.09655 0.0
N112 N 0.40244 0.24302 0.13455 0.0
N113 N 0.38956 0.22701 0.11831 0.0
C114 C 0.42439 0.28755 0.133 0.0
H115 H 0.44045 0.27913 0.14547 0.0
H116 H 0.41208 0.30027 0.14594 0.0
H117 H 0.43316 0.29989 0.11704 0.0
C118 C 0.36025 0.26496 0.22645 0.0
N119 N 0.37616 0.24656 0.21525 0.0
N120 N 0.37616 0.25017 0.18947 0.0
C121 C 0.35915 0.27 0.18341 0.0
C122 C 0.34903 0.28047 0.20669 0.0
C123 C 0.35669 0.26844 0.25565 0.0
H124 H 0.3452 0.25144 0.26346 0.0
H125 H 0.37639 0.26885 0.26544 0.0
H126 H 0.34569 0.2868 0.2605 0.0
O127 O 0.40038 0.18484 0.21225 0.0
O128 O 0.40388 0.19611 0.17014 0.0
H129 H 0.35543 0.2638 0.14144 0.0
H130 H 0.33323 0.28819 0.15466 0.0
C131 C 0.35357 0.27999 0.15605 0.0
H132 H 0.3675 0.29621 0.15118 0.0
H133 H 0.38226 0.20842 0.12366 0.0
O134 O 0.38098 0.21184 0.26523 0.0
C135 C 0.40304 0.17856 0.18794 0.0
Co136 Co 0.04102 0.86687 0.03392 0.0
Co137 Co 0.03085 0.86457 0.09454 0.0
C138 C 0.02256 0.8171 0.05605 0.0
O139 O 0.02746 0.82976 0.03456 0.0
O140 O 0.02354 0.82857 0.07873 0.0
C141 C 0.0435 0.88372 0.9754 0.0
O142 O 0.02791 0.86466 0.96689 0.0
C143 C 0.99932 0.86123 0.14352 0.0
C144 C 0.02569 0.88377 0.1704 0.0
C145 C 1.0007 0.87254 0.16862 0.0
N146 N 0.02212 0.86665 0.13086 0.0
N147 N 0.03801 0.87948 0.14728 0.0
C148 C 0.97738 0.84499 0.13179 0.0
H149 H 0.96476 0.85748 0.11889 0.0
H150 H 0.96489 0.83607 0.14755 0.0
H151 H 0.98586 0.82911 0.11921 0.0
C152 C 0.99545 0.90438 0.03831 0.0
N153 N 0.01477 0.88963 0.0496 0.0
N154 N 0.01228 0.89096 0.07546 0.0
C155 C 0.99225 0.9078 0.08142 0.0
C156 C 0.98043 0.91631 0.05805 0.0
C157 C 0.99099 0.90643 0.00909 0.0
H158 H 1.00715 0.91846 1.0003 0.0
H159 H 0.99152 0.88638 1.00016 0.0
H160 H 0.97186 0.91611 1.00426 0.0
O161 O 0.07671 0.86405 0.05213 0.0
O162 O 0.0691 0.86976 0.09475 0.0
H163 H 1.00039 0.91297 0.12296 0.0
H164 H 0.97678 0.93589 0.10953 0.0
C165 C 0.98373 0.9151 0.10886 0.0
H166 H 0.96684 0.90248 0.11499 0.0
H167 H 0.0567 0.88676 0.14218 0.0
O168 O 0.04977 0.88477 0.99977 0.0
C169 C 0.0851 0.86625 0.07584 0.0
Co170 Co 0.40062 0.78919 0.28206 0.0
Co171 Co 0.40654 0.77241 0.34165 0.0
C172 C 0.45053 0.76337 0.30168 0.0
O173 O 0.43785 0.77371 0.28215 0.0
O174 O 0.43994 0.76106 0.32462 0.0
C175 C 0.38579 0.79127 0.22357 0.0
O176 O 0.40319 0.77293 0.2174 0.0
C177 C 0.40842 0.741 0.39126 0.0
C178 C 0.38504 0.7679 0.41678 0.0
C179 C 0.39634 0.74296 0.41599 0.0
N180 N 0.40333 0.76342 0.37785 0.0
N181 N 0.39002 0.77962 0.39349 0.0
C182 C 0.4253 0.71898 0.38079 0.0
H183 H 0.44072 0.72708 0.36736 0.0
H184 H 0.41308 0.70493 0.36918 0.0
H185 H 0.43489 0.70803 0.3973 0.0
C186 C 0.35785 0.74795 0.28594 0.0
N187 N 0.37599 0.76422 0.2972 0.0
N188 N 0.37692 0.75913 0.32273 0.0
C189 C 0.35872 0.74028 0.32858 0.0
C190 C 0.34647 0.73218 0.30538 0.0
C191 C 0.35218 0.74652 0.2569 0.0
H192 H 0.34418 0.76582 0.25023 0.0
H193 H 0.37083 0.74234 0.24608 0.0
H194 H 0.33735 0.73099 0.25215 0.0
O195 O 0.40332 0.82393 0.30177 0.0
O196 O 0.40892 0.81059 0.34307 0.0
H197 H 0.35523 0.74412 0.37074 0.0
H198 H 0.33503 0.71832 0.35685 0.0
C199 C 0.35448 0.72847 0.35544 0.0
H200 H 0.37005 0.71359 0.35934 0.0
H201 H 0.38293 0.79814 0.38769 0.0
O202 O 0.38449 0.7996 0.24731 0.0
C203 C 0.40772 0.82894 0.32612 0.0
Co204 Co 0.47604 0.14906 0.53274 0.0
Co205 Co 0.48855 0.15318 0.5931 0.0
C206 C 0.49813 0.19855 0.55267 0.0
O207 O 0.49133 0.18556 0.5319 0.0
O208 O 0.49767 0.1879 0.57577 0.0
C209 C 0.4723 0.13126 0.47484 0.0
O210 O 0.48815 0.15007 0.46626 0.0
C211 C 0.52113 0.15544 0.64169 0.0
C212 C 0.49376 0.13471 0.66901 0.0
C213 C 0.51944 0.14421 0.66686 0.0
N214 N 0.49782 0.15146 0.62937 0.0
N215 N 0.48138 0.13979 0.64608 0.0
C216 C 0.54381 0.17033 0.62959 0.0
H217 H 0.55607 0.1569 0.61735 0.0
H218 H 0.55649 0.17931 0.64519 0.0
H219 H 0.5361 0.18608 0.61632 0.0
C220 C 0.52016 0.10985 0.53761 0.0
N221 N 0.50164 0.12569 0.54872 0.0
N222 N 0.50461 0.12503 0.57456 0.0
C223 C 0.52394 0.1075 0.58074 0.0
C224 C 0.53499 0.09788 0.5575 0.0
C225 C 0.52424 0.10696 0.50841 0.0
H226 H 0.50755 0.09533 0.50005 0.0
H227 H 0.52436 0.12679 0.49899 0.0
H228 H 0.54295 0.09645 0.50369 0.0
O229 O 0.44087 0.15402 0.55162 0.0
O230 O 0.45026 0.15068 0.59419 0.0
H231 H 0.51617 0.1037 0.62248 0.0
H232 H 0.53846 0.07942 0.60944 0.0
C233 C 0.53252 0.10049 0.60827 0.0
H234 H 0.55009 0.11241 0.61386 0.0
H235 H 0.46219 0.13366 0.64127 0.0
O236 O 0.46601 0.13045 0.49922 0.0
C237 C 0.43357 0.15364 0.57578 0.0
Co238 Co 0.11354 0.22817 0.78399 0.0
Co239 Co 0.10749 0.24274 0.84411 0.0
C240 C 0.06273 0.25073 0.80412 0.0
O241 O 0.07578 0.24231 0.78393 0.0
O242 O 0.07337 0.25244 0.82713 0.0
C243 C 0.13127 0.22457 0.72548 0.0
O244 O 0.11235 0.23991 0.71627 0.0
C245 C 0.10485 0.2729 0.89444 0.0
C246 C 0.12807 0.24545 0.91958 0.0
C247 C 0.11659 0.2703 0.91929 0.0
N248 N 0.11023 0.25088 0.88053 0.0
N249 N 0.12347 0.23435 0.89593 0.0
C250 C 0.08798 0.29511 0.88431 0.0
H251 H 0.07272 0.28728 0.87051 0.0
H252 H 0.10026 0.30948 0.87317 0.0
H253 H 0.07822 0.30563 0.90098 0.0
C254 C 0.15323 0.27194 0.78857 0.0
N255 N 0.13666 0.25405 0.79975 0.0
N256 N 0.13627 0.25802 0.82547 0.0
C257 C 0.15357 0.27763 0.83154 0.0
C258 C 0.16441 0.28753 0.8083 0.0
C259 C 0.15748 0.27483 0.7594 0.0
H260 H 0.16874 0.25746 0.75213 0.0
H261 H 0.13801 0.27544 0.74916 0.0
H262 H 0.16899 0.29289 0.75445 0.0
O263 O 0.11136 0.19279 0.8029 0.0
O264 O 0.1069 0.20455 0.84474 0.0
H265 H 0.15724 0.27199 0.87356 0.0
H266 H 0.17836 0.29742 0.86036 0.0
C267 C 0.15848 0.28815 0.85882 0.0
H268 H 0.14366 0.3036 0.86341 0.0
H269 H 0.13076 0.21604 0.88977 0.0
O270 O 0.13188 0.2189 0.75003 0.0
C271 C 0.1078 0.18683 0.82717 0.0
Co272 Co 0.47734 0.03302 0.14879 0.0
Co273 Co 0.41825 0.01532 0.15865 0.0
C274 C 0.46269 0.00808 0.19968 0.0
O275 O 0.4813 0.01855 0.18584 0.0
O276 O 0.4391 1.00555 0.19056 0.0
C277 C 0.53448 0.03793 0.12947 0.0
O278 O 0.54325 0.02236 0.1484 0.0
C279 C 0.37363 0.97759 0.16081 0.0
C280 C 0.34112 1.00432 0.14884 0.0
C281 C 0.34717 0.97777 0.1525 0.0
N282 N 0.38276 1.00262 0.16033 0.0
N283 N 0.36294 0.01854 0.15419 0.0
C284 C 0.39007 0.95454 0.16969 0.0
H285 H 0.40322 0.94784 0.15348 0.0
H286 H 0.37729 0.93785 0.17621 0.0
H287 H 0.40311 0.96075 0.18631 0.0
C288 C 0.47209 0.98916 0.10964 0.0
N289 N 0.4612 0.00665 0.12671 0.0
N290 N 0.43546 1.0026 0.12761 0.0
C291 C 0.42902 0.98377 0.10962 0.0
C292 C 0.4521 0.97394 0.09837 0.0
C293 C 0.50123 0.98654 0.10473 0.0
H294 H 0.50813 1.00404 0.09339 0.0
H295 H 0.51192 0.98592 0.12392 0.0
H296 H 0.50604 0.96861 0.09303 0.0
O297 O 0.4562 0.06687 0.15259 0.0
O298 O 0.41499 0.05364 0.16011 0.0
H299 H 0.3994 0.97551 0.08034 0.0
H300 H 0.39741 0.95534 0.10911 0.0
C301 C 0.40141 0.97576 0.10221 0.0
H302 H 0.38666 0.98987 0.1101 0.0
H303 H 0.36482 0.03894 0.15152 0.0
O304 O 0.51 0.04407 0.12879 0.0
C305 C 0.43198 0.07197 0.15789 0.0
Co306 Co 0.22708 0.23077 0.40307 0.0
Co307 Co 0.24015 0.17067 0.40716 0.0
C308 C 0.24765 0.21166 0.45279 0.0
O309 O 0.24159 0.23263 0.43984 0.0
O310 O 0.24734 0.18884 0.44173 0.0
C311 C 0.22334 0.2881 0.38501 0.0
O312 O 0.24004 0.29598 0.40339 0.0
C313 C 0.27713 0.12577 0.40964 0.0
C314 C 0.24966 0.09261 0.40144 0.0
C315 C 0.2762 0.0988 0.40466 0.0
N316 N 0.25223 0.13518 0.40858 0.0
N317 N 0.23587 0.11515 0.40436 0.0
C318 C 0.30104 0.14233 0.41568 0.0
H319 H 0.29664 0.16365 0.41267 0.0
H320 H 0.31829 0.13627 0.40352 0.0
H321 H 0.30652 0.13931 0.43676 0.0
C322 C 0.27164 0.2265 0.36398 0.0
N323 N 0.2533 0.21529 0.38001 0.0
N324 N 0.25598 0.18946 0.37891 0.0
C325 C 0.27468 0.18344 0.3607 0.0
C326 C 0.28592 0.20668 0.35133 0.0
C327 C 0.27576 0.25568 0.36115 0.0
H328 H 0.25894 0.2641 0.34978 0.0
H329 H 0.27624 0.26497 0.38103 0.0
H330 H 0.29432 0.26042 0.35035 0.0
O331 O 0.19259 0.2104 0.40769 0.0
O332 O 0.20198 0.16788 0.40336 0.0
H333 H 0.28308 0.15474 0.33061 0.0
H334 H 0.30253 0.15176 0.35992 0.0
C335 C 0.28231 0.15608 0.3525 0.0
H336 H 0.26775 0.1413 0.35959 0.0
H337 H 0.21538 0.11704 0.40205 0.0
O338 O 0.21616 0.26397 0.3843 0.0
C339 C 0.18529 0.18623 0.40677 0.0
Co340 Co 0.03307 0.9749 0.64989 0.0
Co341 Co 0.0933 0.98951 0.65535 0.0
C342 C 0.05335 0.99824 0.70002 0.0
O343 O 0.03306 0.98942 0.68733 0.0
O344 O 0.07629 0.99966 0.68919 0.0
C345 C 0.97449 0.9717 0.6328 0.0
O346 O 0.96595 0.98755 0.65158 0.0
C347 C 0.14297 0.02067 0.65835 0.0
C348 C 0.16884 0.99419 0.63487 0.0
C349 C 0.16789 0.01892 0.64659 0.0
N350 N 0.12962 0.99834 0.65272 0.0
N351 N 0.14544 0.98238 0.63933 0.0
C352 C 0.13223 0.04243 0.67541 0.0
H353 H 0.11891 0.03402 0.69076 0.0
H354 H 0.12036 0.05637 0.66332 0.0
H355 H 0.14862 0.05354 0.68505 0.0
C356 C 0.03729 0.01892 0.6106 0.0
N357 N 0.04867 1.00069 0.62662 0.0
N358 N 0.07445 1.00456 0.62666 0.0
C359 C 0.08034 0.02447 0.60968 0.0
C360 C 0.05693 0.03467 0.59947 0.0
C361 C 0.00801 0.02211 0.60699 0.0
H362 H 1.00029 1.00484 0.59586 0.0
H363 H 0.99824 0.0228 0.62665 0.0
H364 H 1.003 0.04023 0.59565 0.0
O365 O 0.05214 0.93969 0.65227 0.0
O366 O 0.0942 0.95129 0.65617 0.0
H367 H 0.12241 0.01898 0.60567 0.0
H368 H 0.10896 0.04443 0.58483 0.0
C369 C 0.10761 0.0351 0.60465 0.0
H370 H 0.11232 0.05052 0.61946 0.0
H371 H 0.13972 0.96398 0.63186 0.0
O372 O 0.99891 0.96546 0.63194 0.0
C373 C 0.07645 0.93365 0.6556 0.0
Co374 Co 0.28594 0.77941 0.89729 0.0
Co375 Co 0.27425 0.83989 0.90032 0.0
C376 C 0.2641 0.80037 0.94635 0.0
O377 O 0.27078 0.77932 0.93381 0.0
O378 O 0.2649 0.82326 0.93529 0.0
C379 C 0.28977 0.72116 0.87979 0.0
O380 O 0.27455 0.71184 0.89876 0.0
C381 C 0.2434 0.88966 0.90314 0.0
C382 C 0.27061 0.91558 0.88046 0.0
C383 C 0.2456 0.91467 0.8917 0.0
N384 N 0.26579 0.87627 0.89781 0.0
N385 N 0.28215 0.89211 0.88487 0.0
C386 C 0.22116 0.87883 0.91958 0.0
H387 H 0.2071 0.86765 0.90696 0.0
H388 H 0.21023 0.89509 0.92955 0.0
H389 H 0.22909 0.86491 0.93462 0.0
C390 C 0.24164 0.78393 0.85834 0.0
N391 N 0.26047 0.79524 0.87372 0.0
N392 N 0.25755 0.82105 0.87277 0.0
C393 C 0.23775 0.82702 0.85566 0.0
C394 C 0.22654 0.80365 0.84647 0.0
C395 C 0.23749 0.75471 0.85592 0.0
H396 H 0.2539 0.74624 0.84402 0.0
H397 H 0.23786 0.74555 0.87588 0.0
H398 H 0.21855 0.74981 0.84587 0.0
O399 O 0.3214 0.79773 0.90165 0.0
O400 O 0.31261 0.8403 0.89763 0.0
H401 H 0.24497 0.86873 0.85104 0.0
H402 H 0.22052 0.85551 0.82885 0.0
C403 C 0.22844 0.85442 0.84929 0.0
H404 H 0.21213 0.85996 0.86284 0.0
H405 H 0.30069 0.88642 0.87766 0.0
O406 O 0.29529 0.7457 0.87911 0.0
C407 C 0.32906 0.82174 0.90075 0.0
Co408 Co 0.48235 0.97475 0.36493 0.0
Co409 Co 0.42258 0.98992 0.35663 0.0
C410 C 0.46554 0.99433 0.31315 0.0
O411 O 0.48547 0.98726 0.32727 0.0
O412 O 0.44216 0.9962 0.3229 0.0
C413 C 0.53958 0.97026 0.38476 0.0
O414 O 0.54909 0.9851 0.3656 0.0
C415 C 0.37626 0.02553 0.35516 0.0
C416 C 0.34479 0.99638 0.3643 0.0
C417 C 0.34968 0.02329 0.36237 0.0
N418 N 0.38667 1.00106 0.35448 0.0
N419 N 0.3675 0.98375 0.35886 0.0
C420 C 0.39229 0.05025 0.35152 0.0
H421 H 0.41384 0.04585 0.35264 0.0
H422 H 0.38686 0.06545 0.36639 0.0
H423 H 0.38797 0.05858 0.33164 0.0
C424 C 0.47734 0.02023 0.40225 0.0
N425 N 0.46634 1.00194 0.38609 0.0
N426 N 0.44048 1.00515 0.38607 0.0
C427 C 0.43413 0.02407 0.40395 0.0
C428 C 0.45732 0.035 0.41401 0.0
C429 C 0.50656 0.0236 0.40626 0.0
H430 H 0.51394 0.00711 0.41875 0.0
H431 H 0.5168 0.02285 0.38684 0.0
H432 H 0.51142 0.04243 0.41644 0.0
O433 O 0.46188 0.94018 0.36227 0.0
O434 O 0.41982 0.95198 0.35871 0.0
H435 H 0.40551 0.02944 0.43473 0.0
H436 H 0.40174 0.05136 0.40743 0.0
C437 C 0.40661 0.03067 0.41282 0.0
H438 H 0.39195 0.01655 0.40468 0.0
H439 H 0.37028 0.96334 0.36026 0.0
O440 O 0.51497 0.96466 0.38515 0.0
C441 C 0.43744 0.93425 0.35942 0.0
Co442 Co 0.28862 0.23216 0.61566 0.0
Co443 Co 0.27632 0.17184 0.61268 0.0
C444 C 0.26718 0.21139 0.56638 0.0
O445 O 0.27349 0.23248 0.57908 0.0
O446 O 0.26778 0.18851 0.57747 0.0
C447 C 0.29344 0.29016 0.63346 0.0
O448 O 0.278 0.29943 0.61464 0.0
C449 C 0.2447 0.12256 0.60954 0.0
C450 C 0.27144 0.09612 0.63215 0.0
C451 C 0.24647 0.09747 0.62084 0.0
N452 N 0.2673 0.13559 0.61501 0.0
N453 N 0.28339 0.11944 0.62791 0.0
C454 C 0.22267 0.13382 0.59312 0.0
H455 H 0.23091 0.14741 0.57791 0.0
H456 H 0.20903 0.14549 0.60571 0.0
H457 H 0.21122 0.11778 0.58333 0.0
C458 C 0.24414 0.22814 0.65452 0.0
N459 N 0.26284 0.21663 0.63917 0.0
N460 N 0.25956 0.19086 0.64008 0.0
C461 C 0.23964 0.18512 0.65714 0.0
C462 C 0.22873 0.2086 0.66634 0.0
C463 C 0.24044 0.25741 0.65698 0.0
H464 H 0.25702 0.26567 0.66883 0.0
H465 H 0.24085 0.26658 0.63702 0.0
H466 H 0.2216 0.26253 0.66708 0.0
O467 O 0.32369 0.21328 0.61076 0.0
O468 O 0.31463 0.17087 0.61578 0.0
H469 H 0.24629 0.14331 0.66165 0.0
H470 H 0.22219 0.15681 0.684 0.0
C471 C 0.22998 0.15781 0.66351 0.0
H472 H 0.21349 0.15249 0.65005 0.0
H473 H 0.302 0.12482 0.6352 0.0
O474 O 0.29889 0.26561 0.63411 0.0
C475 C 0.33117 0.18925 0.61191 0.0
Co476 Co 0.03412 0.03956 0.86419 0.0
Co477 Co 0.0943 0.02499 0.85811 0.0
C478 C 0.05382 0.01697 0.81365 0.0
O479 O 0.0336 0.02532 0.82668 0.0
O480 O 0.07687 0.01549 0.82426 0.0
C481 C 0.97576 0.04219 0.88129 0.0
O482 O 0.96767 0.02607 0.86251 0.0
C483 C 0.14331 0.99314 0.85448 0.0
C484 C 0.17021 0.01942 0.87713 0.0
C485 C 0.16849 0.99454 0.86578 0.0
N486 N 0.13056 0.0158 0.86006 0.0
N487 N 0.14699 0.03164 0.87292 0.0
C488 C 0.13171 0.97139 0.83795 0.0
H489 H 0.11852 0.97992 0.82254 0.0
H490 H 0.11948 0.95807 0.85039 0.0
H491 H 0.14762 0.9596 0.82838 0.0
C492 C 0.03876 0.99556 0.90356 0.0
N493 N 0.04992 0.01365 0.88723 0.0
N494 N 0.0757 0.00981 0.8869 0.0
C495 C 0.08183 0.99011 0.90403 0.0
C496 C 0.05856 0.97997 0.91462 0.0
C497 C 0.00955 0.99243 0.9077 0.0
H498 H 1.00203 0.00991 0.9186 0.0
H499 H 0.99945 0.99133 0.88821 0.0
H500 H 1.00472 0.97452 0.91947 0.0
O501 O 0.05341 0.07474 0.86166 0.0
O502 O 0.09548 0.06319 0.85775 0.0
H503 H 0.12391 0.99598 0.90751 0.0
H504 H 0.11079 0.97102 0.92914 0.0
C505 C 0.1092 0.9798 0.90909 0.0
H506 H 0.11384 0.96401 0.89468 0.0
H507 H 0.14181 0.05023 0.88027 0.0
O508 O 1.00005 0.04899 0.88229 0.0
C509 C 0.07775 0.08081 0.85833 0.0
Co510 Co 0.22883 0.78547 0.11185 0.0
Co511 Co 0.24493 0.84478 0.10396 0.0
C512 C 0.24652 0.80201 0.05994 0.0
O513 O 0.24128 0.78171 0.07423 0.0
O514 O 0.24764 0.82517 0.07001 0.0
C515 C 0.22447 0.72852 0.1286 0.0
O516 O 0.24249 0.72231 0.11086 0.0
C517 C 0.28176 0.88252 0.08606 0.0
C518 C 0.26672 0.88969 0.09571 0.0
C519 C 0.28777 0.90795 0.08539 0.0
N520 N 0.25987 0.87932 0.0995 0.0
N521 N 0.24864 0.89919 0.11311 0.0
C522 C 0.29853 0.86021 0.07125 0.0
H523 H 0.29769 0.84136 0.08254 0.0
H524 H 0.31944 0.86665 0.06866 0.0
H525 H 0.28982 0.85671 0.05135 0.0
C526 C 0.27449 0.78954 0.15023 0.0
N527 N 0.25674 0.8007 0.13348 0.0
N528 N 0.26262 0.82597 0.131 0.0
C529 C 0.28383 0.83175 0.14637 0.0
C530 C 0.29233 0.80875 0.15879 0.0
C531 C 0.27472 0.76087 0.15762 0.0
H532 H 0.25523 0.75544 0.16623 0.0
H533 H 0.27804 0.7488 0.13959 0.0
H534 H 0.2904 0.75633 0.17238 0.0
O535 O 0.19558 0.8076 0.10804 0.0
O536 O 0.20705 0.84982 0.11058 0.0
H537 H 0.28246 0.87415 0.14828 0.0
H538 H 0.31107 0.85994 0.16422 0.0
C539 C 0.29741 0.85813 0.14713 0.0
H540 H 0.30929 0.86068 0.12886 0.0
H541 H 0.23208 0.89203 0.12322 0.0
O542 O 0.21656 0.75237 0.13029 0.0
C543 C 0.18939 0.83208 0.10846 0.0
Co544 Co 0.15086 0.47997 0.04374 0.0
Co545 Co 0.15516 0.41986 0.02957 0.0
C546 C 0.20091 0.45898 0.0214 0.0
O547 O 0.18838 0.47951 0.02965 0.0
O548 O 0.18973 0.43621 0.02012 0.0
C549 C 0.13529 0.53874 0.04768 0.0
O550 O 0.15514 0.54744 0.03322 0.0
C551 C 0.15738 0.37076 0.99793 0.0
C552 C 0.13381 0.34474 0.02427 0.0
C553 C 0.14524 0.34603 0.99939 0.0
N554 N 0.1522 0.38371 0.02057 0.0
N555 N 0.13878 0.36779 0.03645 0.0
C556 C 0.1743 0.38173 0.97613 0.0
H557 H 0.19049 0.39394 0.98469 0.0
H558 H 0.16238 0.39479 0.96314 0.0
H559 H 0.18291 0.36555 0.964 0.0
C560 C 0.11221 0.47664 0.99915 0.0
N561 N 0.12766 0.46489 0.01763 0.0
N562 N 0.12709 0.43918 0.01384 0.0
C563 C 0.11014 0.4337 0.99374 0.0
C564 C 0.10071 0.4573 0.9833 0.0
C565 C 0.10942 0.50594 0.99598 0.0
H566 H 0.09792 0.51381 0.01294 0.0
H567 H 0.12935 0.51528 0.99604 0.0
H568 H 0.09878 0.51131 0.97751 0.0
O569 O 0.15252 0.46106 0.07905 0.0
O570 O 0.15489 0.41892 0.06787 0.0
H571 H 0.10556 0.39178 0.99948 0.0
H572 H 0.08387 0.40561 0.97498 0.0
C573 C 0.10414 0.40658 0.9834 0.0
H574 H 0.11812 0.40164 0.96727 0.0
H575 H 0.13156 0.37324 0.05503 0.0
O576 O 0.13344 0.51419 0.05286 0.0
C577 C 0.15478 0.43676 0.08539 0.0
Co578 Co 0.64803 0.03107 0.97479 0.0
Co579 Co 0.6536 0.09091 0.9899 0.0
C580 C 0.69827 0.05101 0.99891 0.0
O581 O 0.68555 0.03092 0.98971 0.0
O582 O 0.68744 0.07391 1.0005 0.0
C583 C 0.63039 0.97268 0.9707 0.0
O584 O 0.64952 0.96352 0.98583 0.0
C585 C 0.65611 0.14067 0.0207 0.0
C586 C 0.63299 0.16623 0.99353 0.0
C587 C 0.64437 0.16551 0.01847 0.0
N588 N 0.6508 0.12715 0.99841 0.0
N589 N 0.63763 0.14278 0.98205 0.0
C590 C 0.67284 0.13015 0.04286 0.0
H591 H 0.68829 0.11674 0.03485 0.0
H592 H 0.66051 0.11849 0.05677 0.0
H593 H 0.68238 0.1466 0.05393 0.0
C594 C 0.60787 0.03512 0.01826 0.0
N595 N 0.62442 0.04652 1.00049 0.0
N596 N 0.62456 0.0722 1.00456 0.0
C597 C 0.60711 0.07802 0.02411 0.0
C598 C 0.5964 0.05465 0.03386 0.0
C599 C 0.60404 1.00591 0.02118 0.0
H600 H 0.59267 0.99851 1.0039 0.0
H601 H 0.62364 0.99597 0.02162 0.0
H602 H 0.59277 1.00078 0.03934 0.0
O603 O 0.65102 0.05017 0.9395 0.0
O604 O 0.65499 0.09191 0.95167 0.0
H605 H 0.60335 0.12003 0.01881 0.0
H606 H 0.58211 0.10648 0.04396 0.0
C607 C 0.60205 0.10515 0.03484 0.0
H608 H 0.61677 0.10968 0.05045 0.0
H609 H 0.63041 0.13691 0.96358 0.0
O610 O 0.62965 0.99723 0.96514 0.0
C611 C 0.65464 0.07448 0.93377 0.0
Co612 Co 0.23396 0.39835 0.22873 0.0
Co613 Co 0.17685 0.41243 0.24895 0.0
C614 C 0.22331 0.45046 0.25422 0.0
O615 O 0.23995 0.43556 0.24211 0.0
O616 O 0.19946 0.44306 0.25872 0.0
C617 C 0.29022 0.37769 0.22308 0.0
O618 O 0.29964 0.39646 0.23846 0.0
C619 C 0.13172 0.41801 0.28595 0.0
C620 C 0.09845 0.41305 0.25783 0.0
C621 C 0.10435 0.41512 0.2845 0.0
N622 N 0.14151 0.41675 0.26122 0.0
N623 N 0.12142 0.41459 0.24451 0.0
C624 C 0.14831 0.42239 0.31017 0.0
H625 H 0.16925 0.41673 0.30638 0.0
H626 H 0.1403 0.41146 0.32746 0.0
H627 H 0.14788 0.44378 0.31514 0.0
C628 C 0.22805 0.35918 0.27274 0.0
N629 N 0.21767 0.37728 0.25594 0.0
N630 N 0.19238 0.38039 0.26154 0.0
C631 C 0.18561 0.36294 0.28075 0.0
C632 C 0.20812 0.34961 0.28913 0.0
C633 C 0.25677 0.35184 0.27384 0.0
H634 H 0.26201 0.34095 0.25552 0.0
H635 H 0.269 0.37006 0.27493 0.0
H636 H 0.26132 0.33893 0.29102 0.0
O637 O 0.21224 0.40171 0.19528 0.0
O638 O 0.17305 0.41386 0.21061 0.0
H639 H 0.1432 0.36714 0.2779 0.0
H640 H 0.15423 0.33754 0.29404 0.0
C641 C 0.15831 0.35896 0.29151 0.0
H642 H 0.15705 0.36806 0.31142 0.0
H643 H 0.12343 0.41258 0.22404 0.0
O644 O 0.26566 0.37747 0.2173 0.0
C645 C 0.18843 0.40923 0.19139 0.0
Co646 Co 0.86377 0.98043 0.47608 0.0
Co647 Co 0.85807 0.92035 0.49048 0.0
C648 C 0.81314 0.95986 0.49875 0.0
O649 O 0.82602 0.98017 0.4903 0.0
O650 O 0.82395 0.93696 0.50032 0.0
C651 C 0.881 0.03905 0.47263 0.0
O652 O 0.86183 0.048 0.4878 0.0
C653 C 0.85485 0.86992 0.52023 0.0
C654 C 0.87921 0.84516 0.49346 0.0
C655 C 0.86682 0.84521 0.5179 0.0
N656 N 0.86096 0.884 0.4985 0.0
N657 N 0.87488 0.86885 0.48234 0.0
C658 C 0.83714 0.87975 0.54192 0.0
H659 H 0.8218 0.89311 0.53355 0.0
H660 H 0.84877 0.89131 0.55651 0.0
H661 H 0.82746 0.86295 0.55231 0.0
C662 C 0.90312 0.97605 0.52023 0.0
N663 N 0.88694 0.96479 0.50203 0.0
N664 N 0.88662 0.93909 0.506 0.0
C665 C 0.90351 0.93311 0.52599 0.0
C666 C 0.91406 0.95639 0.53609 0.0
C667 C 0.90712 1.00523 0.52321 0.0
H668 H 0.91839 0.01267 0.50589 0.0
H669 H 0.88756 0.01526 0.52375 0.0
H670 H 0.9185 0.01022 0.54135 0.0
O671 O 0.86164 0.96168 0.44059 0.0
O672 O 0.85754 0.9198 0.45231 0.0
H673 H 0.90754 0.89114 0.52072 0.0
H674 H 0.92733 0.90443 0.54715 0.0
C675 C 0.90795 0.90591 0.53688 0.0
H676 H 0.89235 0.9013 0.55156 0.0
H677 H 0.88277 0.8752 0.46431 0.0
O678 O 0.88192 0.01454 0.46696 0.0
C679 C 0.85826 0.93741 0.4346 0.0
Co680 Co 0.78403 0.11476 0.22467 0.0
Co681 Co 0.84414 0.10947 0.23986 0.0
C682 C 0.80434 0.06454 0.24787 0.0
O683 O 0.78411 0.07724 0.23898 0.0
O684 O 0.82725 0.07544 0.24968 0.0
C685 C 0.7254 0.13152 0.22107 0.0
O686 O 0.71682 0.11254 0.23668 0.0
C687 C 0.89405 0.10657 0.27083 0.0
C688 C 0.91942 0.13088 0.24453 0.0
C689 C 0.91883 0.11866 0.26905 0.0
N690 N 0.88043 0.11247 0.24871 0.0
N691 N 0.89597 0.12637 0.23285 0.0
C692 C 0.88372 0.08894 0.29237 0.0
H693 H 0.87031 0.07373 0.28382 0.0
H694 H 0.87207 0.10059 0.30682 0.0
H695 H 0.90034 0.07915 0.30298 0.0
C696 C 0.78767 0.1537 0.26906 0.0
N697 N 0.7993 0.13794 0.25079 0.0
N698 N 0.82503 0.13791 0.25499 0.0
C699 C 0.83064 0.15462 0.27521 0.0
C700 C 0.80709 0.16466 0.28523 0.0
C701 C 0.75835 0.15716 0.27195 0.0
H702 H 0.75079 0.16834 0.25463 0.0
H703 H 0.74862 0.13747 0.27244 0.0
H704 H 0.75311 0.16836 0.29008 0.0
O705 O 0.80337 0.1125 0.18953 0.0
O706 O 0.84529 0.10871 0.20159 0.0
H707 H 0.87276 0.15894 0.27044 0.0
H708 H 0.85893 0.17884 0.29642 0.0
C709 C 0.85773 0.15938 0.28639 0.0
H710 H 0.86224 0.14404 0.30135 0.0
H711 H 0.89001 0.13411 0.21463 0.0
O712 O 0.74988 0.13261 0.21503 0.0
C713 C 0.82775 0.10919 0.18374 0.0
Co714 Co 0.35979 0.52967 0.53323 0.0
Co715 Co 0.35764 0.59045 0.52262 0.0
C716 C 0.31054 0.5519 0.51237 0.0
O717 O 0.3228 0.53036 0.51812 0.0
O718 O 0.32221 0.57447 0.51365 0.0
C719 C 0.37801 0.4712 0.53659 0.0
O720 O 0.35921 0.46197 0.52108 0.0
C721 C 0.35566 0.6399 0.49157 0.0
C722 C 0.37732 0.66624 0.51916 0.0
C723 C 0.36704 0.66494 0.49377 0.0
N724 N 0.36017 0.62684 0.51431 0.0
N725 N 0.37247 0.64294 0.53091 0.0
C726 C 0.34011 0.62862 0.46892 0.0
H727 H 0.32427 0.61539 0.47658 0.0
H728 H 0.35316 0.61652 0.45612 0.0
H729 H 0.33112 0.64464 0.45683 0.0
C730 C 0.39933 0.53465 0.48929 0.0
N731 N 0.38355 0.54571 0.5079 0.0
N732 N 0.38492 0.57156 0.50556 0.0
C733 C 0.40274 0.57777 0.48648 0.0
C734 C 0.41196 0.55456 0.47504 0.0
C735 C 0.40174 0.50549 0.48478 0.0
H736 H 0.41378 0.49681 0.50099 0.0
H737 H 0.38175 0.49629 0.48514 0.0
H738 H 0.41168 0.50088 0.46575 0.0
O739 O 0.35559 0.54785 0.56894 0.0
O740 O 0.361 0.59042 0.56076 0.0
H741 H 0.40764 0.61918 0.49516 0.0
H742 H 0.43117 0.60622 0.47194 0.0
C743 C 0.4102 0.60532 0.47842 0.0
H744 H 0.39788 0.61161 0.4614 0.0
H745 H 0.37902 0.63752 0.54976 0.0
O746 O 0.37837 0.49569 0.54245 0.0
C747 C 0.35723 0.57173 0.57693 0.0
Co748 Co 0.22692 0.6176 0.28383 0.0
Co749 Co 0.17246 0.59764 0.26081 0.0
C750 C 0.22073 0.56212 0.26411 0.0
O751 O 0.23585 0.57984 0.27421 0.0
O752 O 0.19664 0.56689 0.2579 0.0
C753 C 0.28193 0.6386 0.2888 0.0
O754 O 0.28986 0.61977 0.2727 0.0
C755 C 0.1367 0.57735 0.22267 0.0
C756 C 0.12867 0.58603 0.23772 0.0
C757 C 0.11134 0.57506 0.21619 0.0
N758 N 0.13873 0.59043 0.24485 0.0
N759 N 0.11777 0.60241 0.25599 0.0
C760 C 0.16022 0.56385 0.20634 0.0
H761 H 0.17849 0.57608 0.20774 0.0
H762 H 0.15438 0.56115 0.18529 0.0
H763 H 0.16457 0.54411 0.21499 0.0
C764 C 0.22101 0.65505 0.23817 0.0
N765 N 0.21137 0.63588 0.25424 0.0
N766 N 0.18798 0.62843 0.2453 0.0
C767 C 0.18191 0.64303 0.22359 0.0
C768 C 0.20281 0.66009 0.21819 0.0
C769 C 0.24753 0.668 0.24132 0.0
H770 H 0.24924 0.67631 0.26156 0.0
H771 H 0.26332 0.65302 0.23841 0.0
H772 H 0.25043 0.68428 0.22683 0.0
O773 O 0.20306 0.61523 0.31567 0.0
O774 O 0.16523 0.60031 0.29908 0.0
H775 H 0.13979 0.63859 0.21976 0.0
H776 H 0.15515 0.6558 0.19249 0.0
C777 C 0.15759 0.63943 0.20693 0.0
H778 H 0.1592 0.62067 0.19572 0.0
H779 H 0.124 0.61267 0.2728 0.0
O780 O 0.25775 0.63936 0.29591 0.0
C781 C 0.17932 0.60706 0.31878 0.0
Co782 Co 0.28506 0.40018 0.78955 0.0
Co783 Co 0.34508 0.40622 0.77475 0.0
C784 C 0.30378 0.45008 0.76595 0.0
O785 O 0.28367 0.43727 0.77486 0.0
O786 O 0.32679 0.43948 0.76477 0.0
C787 C 0.22696 0.3828 0.7929 0.0
O788 O 0.21872 0.40177 0.7771 0.0
C789 C 0.39135 0.40655 0.73951 0.0
C790 C 0.4225 0.39514 0.76823 0.0
C791 C 0.4177 0.39848 0.74141 0.0
N792 N 0.38102 0.40655 0.76403 0.0
N793 N 0.39996 0.40068 0.78114 0.0
C794 C 0.37527 0.41148 0.71503 0.0
H795 H 0.35373 0.41065 0.71956 0.0
H796 H 0.3802 0.39702 0.69927 0.0
H797 H 0.37997 0.43155 0.70741 0.0
C798 C 0.2896 0.36123 0.7454 0.0
N799 N 0.30084 0.37724 0.76368 0.0
N800 N 0.32673 0.3765 0.76077 0.0
C801 C 0.33277 0.35845 0.7419 0.0
C802 C 0.30943 0.34893 0.73083 0.0
C803 C 0.26033 0.3583 0.74145 0.0
H804 H 0.25203 0.34685 0.75825 0.0
H805 H 0.25093 0.37813 0.7411 0.0
H806 H 0.25547 0.34753 0.72293 0.0
O807 O 0.30484 0.40308 0.82448 0.0
O808 O 0.34697 0.40686 0.8129 0.0
H809 H 0.36103 0.32769 0.73476 0.0
H810 H 0.36514 0.35616 0.71446 0.0
C811 C 0.36018 0.34962 0.73481 0.0
H812 H 0.37491 0.35682 0.74936 0.0
H813 H 0.39704 0.3985 0.80148 0.0
O814 O 0.25133 0.38169 0.79938 0.0
C815 C 0.3292 0.40633 0.83053 0.0
Co816 Co 0.53692 0.64925 0.9805 0.0
Co817 Co 0.52435 0.65214 0.91985 0.0
C818 C 0.51505 0.69834 0.95925 0.0
O819 O 0.52161 0.68572 0.98035 0.0
O820 O 0.51549 0.68725 0.93637 0.0
C821 C 0.54124 0.63195 0.03881 0.0
O822 O 0.52517 0.65044 0.04758 0.0
C823 C 0.49234 0.65459 0.87052 0.0
C824 C 0.51894 0.63164 0.84431 0.0
C825 C 0.49397 0.64295 0.84554 0.0
N826 N 0.515 0.64932 0.88358 0.0
N827 N 0.53098 0.63619 0.86754 0.0
C828 C 0.4704 0.67121 0.88159 0.0
H829 H 0.47861 0.68602 0.89562 0.0
H830 H 0.45621 0.65867 0.89269 0.0
H831 H 0.45952 0.68144 0.86543 0.0
C832 C 0.49297 0.60992 0.97661 0.0
N833 N 0.51144 0.6255 0.96502 0.0
N834 N 0.50806 0.62461 0.93923 0.0
C835 C 0.48828 0.60736 0.93358 0.0
C836 C 0.47759 0.59802 0.95712 0.0
C837 C 0.48936 0.60734 1.0059 0.0
H838 H 0.50627 0.59597 0.01415 0.0
H839 H 0.4892 0.62729 0.01505 0.0
H840 H 0.47082 0.59669 0.01107 0.0
O841 O 0.57187 0.65415 0.96149 0.0
O842 O 0.56283 0.64985 0.91892 0.0
H843 H 0.49489 0.60232 0.89182 0.0
H844 H 0.47017 0.58068 0.90546 0.0
C845 C 0.4785 0.60097 0.90631 0.0
H846 H 0.46241 0.61479 0.90082 0.0
H847 H 0.54961 0.629 0.87296 0.0
O848 O 0.54722 0.63125 0.01435 0.0
C849 C 0.57935 0.65348 0.93741 0.0
Co850 Co 0.61359 0.2871 0.23053 0.0
Co851 Co 0.60783 0.27282 0.17047 0.0
C852 C 0.56327 0.26348 0.21039 0.0
O853 O 0.57603 0.27236 0.2306 0.0
O854 O 0.57403 0.26227 0.18744 0.0
C855 C 0.63057 0.29018 0.28914 0.0
O856 O 0.61135 0.27486 0.29779 0.0
C857 C 0.60481 0.24205 0.12086 0.0
C858 C 0.62784 0.26894 0.09493 0.0
C859 C 0.61644 0.24403 0.09593 0.0
N860 N 0.61025 0.26441 0.13417 0.0
N861 N 0.62334 0.28063 0.11831 0.0
C862 C 0.58811 0.22001 0.13171 0.0
H863 H 0.57227 0.22826 0.14452 0.0
H864 H 0.60033 0.2067 0.14415 0.0
H865 H 0.57904 0.20831 0.11543 0.0
C866 C 0.65323 0.24332 0.22594 0.0
N867 N 0.63693 0.26144 0.21477 0.0
N868 N 0.63676 0.25773 0.18901 0.0
C869 C 0.65396 0.23808 0.18292 0.0
C870 C 0.66447 0.22784 0.20618 0.0
C871 C 0.65707 0.24005 0.25514 0.0
H872 H 0.66828 0.25732 0.2628 0.0
H873 H 0.63747 0.23934 0.26507 0.0
H874 H 0.66846 0.22192 0.26002 0.0
O875 O 0.61131 0.32261 0.21173 0.0
O876 O 0.60702 0.31101 0.1698 0.0
H877 H 0.65756 0.24403 0.14093 0.0
H878 H 0.67912 0.219 0.15404 0.0
C879 C 0.65906 0.22782 0.15558 0.0
H880 H 0.64457 0.21207 0.15086 0.0
H881 H 0.63065 0.29911 0.12401 0.0
O882 O 0.63168 0.29616 0.26469 0.0
C883 C 0.60785 0.32867 0.18745 0.0
Co884 Co 0.97615 0.36179 0.48127 0.0
Co885 Co 0.98815 0.35826 0.42083 0.0
C886 C 0.99769 0.31271 0.46154 0.0
O887 O 0.99138 0.32536 0.48262 0.0
O888 O 0.99687 0.32385 0.43873 0.0
C889 C 0.97366 0.37976 0.53882 0.0
O890 O 0.99063 0.36148 0.54628 0.0
C891 C 0.02515 0.35951 0.37644 0.0
C892 C 0.99778 0.3712 0.34423 0.0
C893 C 0.02446 0.3688 0.3505 0.0
N894 N 1.00006 0.35803 0.38529 0.0
N895 N 0.98379 0.36399 0.36566 0.0
C896 C 0.04892 0.35513 0.39376 0.0
H897 H 0.04307 0.35425 0.41493 0.0
H898 H 0.06402 0.37081 0.39071 0.0
H899 H 0.05813 0.33593 0.38837 0.0
C900 C 0.02019 0.40141 0.476 0.0
N901 N 1.00163 0.38529 0.46528 0.0
N902 N 1.00304 0.38713 0.43939 0.0
C903 C 0.02089 0.40606 0.43289 0.0
C904 C 0.03316 0.41499 0.45583 0.0
C905 C 0.02556 0.40361 0.50505 0.0
H906 H 0.00923 0.41495 0.51438 0.0
H907 H 0.02618 0.38356 0.51398 0.0
H908 H 0.0444 0.41417 0.50922 0.0
O909 O 0.94126 0.35663 0.46144 0.0
O910 O 0.94998 0.3606 0.41866 0.0
H911 H 0.01035 0.40891 0.39151 0.0
H912 H 0.02343 0.43852 0.40574 0.0
C913 C 0.02531 0.41667 0.40554 0.0
H914 H 0.04575 0.41217 0.39885 0.0
H915 H 0.96322 0.36542 0.36754 0.0
O916 O 0.96586 0.38043 0.51485 0.0
C917 C 0.93362 0.35714 0.43732 0.0
Co918 Co 0.89738 0.72144 0.72892 0.0
Co919 Co 0.90239 0.73592 0.66884 0.0
C920 C 0.94761 0.74437 0.70841 0.0
O921 O 0.93495 0.7358 0.72879 0.0
O922 O 0.93658 0.74578 0.68558 0.0
C923 C 0.88096 0.71859 0.78755 0.0
O924 O 0.9005 0.73371 0.79585 0.0
C925 C 0.90522 0.76724 0.61958 0.0
C926 C 0.88205 0.74072 0.59339 0.0
C927 C 0.89354 0.76557 0.59465 0.0
N928 N 0.89976 0.74474 0.63265 0.0
N929 N 0.88658 0.72874 0.61664 0.0
C930 C 0.92197 0.78912 0.63066 0.0
H931 H 0.93794 0.78069 0.64323 0.0
H932 H 0.90982 0.80219 0.64341 0.0
H933 H 0.93087 0.80113 0.61451 0.0
C934 C 0.85834 0.76576 0.72497 0.0
N935 N 0.87412 0.74741 0.7135 0.0
N936 N 0.87385 0.75116 0.68775 0.0
C937 C 0.8568 0.77106 0.68198 0.0
C938 C 0.84692 0.7814 0.70542 0.0
C939 C 0.85532 0.76925 0.75423 0.0
H940 H 0.84379 0.75236 0.76222 0.0
H941 H 0.87518 0.76945 0.7637 0.0
H942 H 0.84458 0.78772 0.75928 0.0
O943 O 0.89962 0.68608 0.70986 0.0
O944 O 0.90282 0.69777 0.66785 0.0
H945 H 0.85267 0.76534 0.63999 0.0
H946 H 0.83104 0.79004 0.65361 0.0
C947 C 0.85122 0.78143 0.65477 0.0
H948 H 0.86545 0.7974 0.64995 0.0
H949 H 0.87925 0.71021 0.62215 0.0
O950 O 0.87951 0.7124 0.76317 0.0
C951 C 0.90256 0.68008 0.68551 0.0
Co952 Co 0.53621 0.36194 0.53011 0.0
Co953 Co 0.52399 0.35874 0.59019 0.0
C954 C 0.51746 0.31207 0.5501 0.0
O955 O 0.52262 0.32484 0.52876 0.0
O956 O 0.5179 0.32353 0.57274 0.0
C957 C 0.54097 0.38073 0.47248 0.0
O958 O 0.52546 0.36204 0.46307 0.0
C959 C 0.48865 0.35505 0.63636 0.0
C960 C 0.51693 0.36454 0.6685 0.0
C961 C 0.4904 0.35995 0.66329 0.0
N962 N 0.51307 0.35735 0.626 0.0
N963 N 0.52996 0.36235 0.64542 0.0
C964 C 0.46441 0.34788 0.62078 0.0
H965 H 0.46788 0.35073 0.59925 0.0
H966 H 0.44699 0.35952 0.62738 0.0
H967 H 0.45978 0.32669 0.62433 0.0
C968 C 0.49042 0.39946 0.53373 0.0
N969 N 0.5093 0.3844 0.54536 0.0
N970 N 0.50635 0.38579 0.57117 0.0
C971 C 0.4867 0.40316 0.57676 0.0
C972 C 0.47534 0.41177 0.55321 0.0
C973 C 0.48664 0.40169 0.50443 0.0
H974 H 0.50281 0.41407 0.49615 0.0
H975 H 0.48771 0.38174 0.49534 0.0
H976 H 0.4675 0.41115 0.49922 0.0
O977 O 0.57104 0.35816 0.55008 0.0
O978 O 0.56204 0.36438 0.59239 0.0
H979 H 0.47604 0.43304 0.60495 0.0
H980 H 0.45867 0.40251 0.60846 0.0
C981 C 0.47834 0.41124 0.60398 0.0
H982 H 0.49326 0.40532 0.61892 0.0
H983 H 0.55024 0.36558 0.64279 0.0
O984 O 0.54666 0.38103 0.49703 0.0
C985 C 0.57862 0.36031 0.57408 0.0
Co986 Co 0.8989 0.2943 0.78486 0.0
Co987 Co 0.90478 0.27966 0.84492 0.0
C988 C 0.94898 0.2703 0.80416 0.0
O989 O 0.93619 0.27927 0.78402 0.0
O990 O 0.93832 0.26916 0.82718 0.0
C991 C 0.88078 0.29789 0.7267 0.0
O992 O 0.90021 0.28303 0.71781 0.0
C993 C 0.90697 0.24686 0.89326 0.0
C994 C 0.88616 0.27392 0.92074 0.0
C995 C 0.89573 0.24835 0.91842 0.0
N996 N 0.90294 0.27017 0.88108 0.0
N997 N 0.89123 0.28644 0.89788 0.0
C998 C 0.92192 0.22434 0.88106 0.0
H999 H 0.93803 0.23215 0.86827 0.0
H1000 H 0.90859 0.21244 0.8683 0.0
H1001 H 0.9305 0.21133 0.89659 0.0
C1002 C 0.85978 0.25012 0.78949 0.0
N1003 N 0.87571 0.26854 0.80072 0.0
N1004 N 0.87544 0.26515 0.82651 0.0
C1005 C 0.85808 0.24556 0.83255 0.0
C1006 C 0.84817 0.23486 0.80925 0.0
C1007 C 0.85668 0.24634 0.76026 0.0
H1008 H 0.84474 0.2629 0.7522 0.0
H1009 H 0.87647 0.24656 0.75069 0.0
H1010 H 0.84629 0.2276 0.75539 0.0
O1011 O 0.90239 0.32952 0.8041 0.0
O1012 O 0.90606 0.31791 0.84613 0.0
H1013 H 0.85481 0.25225 0.8745 0.0
H1014 H 0.83073 0.22975 0.86128 0.0
C1015 C 0.85171 0.2362 0.85995 0.0
H1016 H 0.86411 0.21884 0.86493 0.0
H1017 H 0.88509 0.30558 0.89315 0.0
O1018 O 0.87989 0.30378 0.75119 0.0
C1019 C 0.90591 0.33556 0.82839 0.0
Co1020 Co 0.98213 0.65388 0.03747 0.0
Co1021 Co 0.99563 0.65767 0.0981 0.0
C1022 C 1.0038 0.70334 0.05711 0.0
O1023 O 0.99692 0.69058 0.03623 0.0
O1024 O 1.00378 0.69228 0.07999 0.0
C1025 C 0.9783 0.63532 0.97983 0.0
O1026 O 0.99503 0.65357 0.97173 0.0
C1027 C 0.03455 0.65599 0.14116 0.0
C1028 C 0.00909 0.6413 0.17354 0.0
C1029 C 0.03553 0.6448 0.16654 0.0
N1030 N 0.00903 0.65705 0.1334 0.0
N1031 N 0.99389 0.64928 0.15324 0.0
C1032 C 0.05691 0.66568 0.12417 0.0
H1033 H 0.06443 0.64951 0.11143 0.0
H1034 H 0.07337 0.67336 0.13662 0.0
H1035 H 0.04975 0.68165 0.11085 0.0
C1036 C 0.0265 0.61499 0.0417 0.0
N1037 N 0.00811 0.63086 0.05292 0.0
N1038 N 0.01018 0.62901 0.07878 0.0
C1039 C 0.02836 0.61024 0.08475 0.0
C1040 C 0.04006 0.6015 0.06148 0.0
C1041 C 0.03121 0.61296 0.01253 0.0
H1042 H 0.01496 0.60118 1.00355 0.0
H1043 H 0.03115 0.63304 1.00364 0.0
H1044 H 0.0502 0.60293 0.00791 0.0
O1045 O 0.94786 0.65828 0.05815 0.0
O1046 O 0.95713 0.65539 0.10098 0.0
H1047 H 0.01831 0.6062 0.12608 0.0
H1048 H 0.03307 0.57759 0.11145 0.0
C1049 C 0.0336 0.59951 0.1119 0.0
H1050 H 0.05375 0.60523 0.11853 0.0
H1051 H 0.97332 0.64712 0.15208 0.0
O1052 O 0.97116 0.63491 1.00402 0.0
C1053 C 0.94049 0.65816 0.08235 0.0
Co1054 Co 0.61614 0.72548 0.28264 0.0
Co1055 Co 0.60878 0.74129 0.34236 0.0
C1056 C 0.56448 0.74724 0.30179 0.0
O1057 O 0.5781 0.73879 0.28199 0.0
O1058 O 0.57461 0.74984 0.32495 0.0
C1059 C 0.63394 0.72131 0.22433 0.0
O1060 O 0.61465 0.73619 0.21512 0.0
C1061 C 0.60507 0.77145 0.39279 0.0
C1062 C 0.62939 0.74477 0.41772 0.0
C1063 C 0.61698 0.76916 0.4176 0.0
N1064 N 0.61125 0.74972 0.37874 0.0
N1065 N 0.62515 0.73364 0.39403 0.0
C1066 C 0.58727 0.79303 0.38288 0.0
H1067 H 0.57254 0.78477 0.36875 0.0
H1068 H 0.59896 0.80821 0.37219 0.0
H1069 H 0.57687 0.80274 0.39964 0.0
C1070 C 0.65494 0.77012 0.28687 0.0
N1071 N 0.63855 0.75214 0.29817 0.0
N1072 N 0.63746 0.75682 0.32374 0.0
C1073 C 0.65409 0.77704 0.32965 0.0
C1074 C 0.66524 0.78656 0.30639 0.0
C1075 C 0.6598 0.77231 0.25773 0.0
H1076 H 0.67112 0.75472 0.25108 0.0
H1077 H 0.64054 0.77274 0.2471 0.0
H1078 H 0.67146 0.79022 0.2526 0.0
O1079 O 0.61421 0.69041 0.30215 0.0
O1080 O 0.60869 0.70314 0.34357 0.0
H1081 H 0.65742 0.77279 0.37182 0.0
H1082 H 0.67697 0.79928 0.35832 0.0
C1083 C 0.65782 0.78861 0.35668 0.0
H1084 H 0.64186 0.80306 0.3606 0.0
H1085 H 0.63312 0.71565 0.38776 0.0
O1086 O 0.63484 0.7159 0.24893 0.0
C1087 C 0.61015 0.685 0.32647 0.0
Co1088 Co 0.98327 0.5369 0.64917 0.0
Co1089 Co 0.92498 0.51825 0.66147 0.0
C1090 C 0.9701 0.51792 0.70268 0.0
O1091 O 0.98875 0.52584 0.6873 0.0
O1092 O 0.94643 0.51427 0.69426 0.0
C1093 C 0.03945 0.54323 0.62731 0.0
O1094 O 0.04963 0.52861 0.64631 0.0
C1095 C 0.88066 0.48019 0.66755 0.0
C1096 C 0.84679 0.50768 0.66376 0.0
C1097 C 0.85323 0.48113 0.66528 0.0
N1098 N 0.88998 0.50511 0.66643 0.0
N1099 N 0.86954 0.52142 0.665 0.0
C1100 C 0.89768 0.45624 0.67152 0.0
H1101 H 0.91864 0.46063 0.6664 0.0
H1102 H 0.89022 0.43916 0.65992 0.0
H1103 H 0.89688 0.45054 0.69275 0.0
C1104 C 0.9785 0.49083 0.61215 0.0
N1105 N 0.96765 0.50827 0.62933 0.0
N1106 N 0.94216 0.50313 0.6315 0.0
C1107 C 0.93576 0.48369 0.61418 0.0
C1108 C 0.95868 0.47458 0.60206 0.0
C1109 C 1.00741 0.48958 0.60561 0.0
H1110 H 0.0127 0.50702 0.59335 0.0
H1111 H 0.0192 0.49016 0.62415 0.0
H1112 H 0.01248 0.4715 0.59424 0.0
O1113 O 0.96082 0.57029 0.65159 0.0
O1114 O 0.9199 0.55599 0.65841 0.0
H1115 H 0.89327 0.48762 0.61693 0.0
H1116 H 0.90501 0.47291 0.5869 0.0
C1117 C 0.90829 0.47405 0.60859 0.0
H1118 H 0.90601 0.45369 0.61644 0.0
H1119 H 0.87111 0.54195 0.66334 0.0
O1120 O 0.01473 0.54835 0.62747 0.0
C1121 C 0.93626 0.57478 0.65582 0.0
Co1122 Co 0.72639 0.73157 0.90157 0.0
Co1123 Co 0.73735 0.67094 0.90443 0.0
C1124 C 0.74741 0.7099 0.95093 0.0
O1125 O 0.74138 0.73116 0.93837 0.0
O1126 O 0.74634 0.68716 0.93968 0.0
C1127 C 0.72442 0.78991 0.88481 0.0
O1128 O 0.74108 0.79745 0.90338 0.0
C1129 C 0.7697 0.62272 0.90661 0.0
C1130 C 0.74281 0.59516 0.88556 0.0
C1131 C 0.76839 0.59763 0.89528 0.0
N1132 N 0.74632 0.63474 0.90249 0.0
N1133 N 0.73012 0.6179 0.89064 0.0
C1134 C 0.7922 0.63512 0.92154 0.0
H1135 H 0.78428 0.64722 0.93809 0.0
H1136 H 0.80348 0.64863 0.90842 0.0
H1137 H 0.80581 0.6198 0.92953 0.0
C1138 C 0.77053 0.7266 0.86213 0.0
N1139 N 0.75184 0.71562 0.87794 0.0
N1140 N 0.75423 0.68976 0.87686 0.0
C1141 C 0.77334 0.68347 0.85911 0.0
C1142 C 0.78485 0.70662 0.84977 0.0
C1143 C 0.77511 0.75573 0.85947 0.0
H1144 H 0.75833 0.76452 0.84832 0.0
H1145 H 0.7759 0.76487 0.87942 0.0
H1146 H 0.79367 0.76024 0.84857 0.0
O1147 O 0.69075 0.71311 0.90557 0.0
O1148 O 0.69916 0.67048 0.90108 0.0
H1149 H 0.76451 0.64202 0.85469 0.0
H1150 H 0.78698 0.65496 0.83045 0.0
C1151 C 0.78119 0.65591 0.85158 0.0
H1152 H 0.79867 0.64973 0.86331 0.0
H1153 H 0.71094 0.62253 0.88438 0.0
O1154 O 0.7171 0.76582 0.88372 0.0
C1155 C 0.68287 0.68916 0.9043 0.0
Co1156 Co 0.53563 0.47602 0.14987 0.0
Co1157 Co 0.59577 0.49091 0.15533 0.0
C1158 C 0.55607 0.49939 0.20009 0.0
O1159 O 0.53588 0.49052 0.18729 0.0
O1160 O 0.57904 0.5011 0.18933 0.0
C1161 C 0.47691 0.47253 0.13357 0.0
O1162 O 0.46854 0.48863 0.15221 0.0
C1163 C 0.6461 0.52135 0.15803 0.0
C1164 C 0.67102 0.49478 0.13363 0.0
C1165 C 0.67082 0.51928 0.14588 0.0
N1166 N 0.63216 0.49942 0.15216 0.0
N1167 N 0.64743 0.48341 0.1382 0.0
C1168 C 0.63615 0.54297 0.17572 0.0
H1169 H 0.62254 0.53462 0.19085 0.0
H1170 H 0.62483 0.5577 0.16406 0.0
H1171 H 0.65296 0.55321 0.18561 0.0
C1172 C 0.53953 0.51962 0.11004 0.0
N1173 N 0.55102 0.50173 0.12636 0.0
N1174 N 0.57674 0.50601 0.12667 0.0
C1175 C 0.58248 0.52596 0.10966 0.0
C1176 C 0.55902 0.53567 0.09904 0.0
C1177 C 0.51025 0.52222 0.10599 0.0
H1178 H 0.50289 0.50442 0.09546 0.0
H1179 H 0.50025 0.52352 0.1255 0.0
H1180 H 0.5051 0.53984 0.09392 0.0
O1181 O 0.55459 0.44085 0.15227 0.0
O1182 O 0.59658 0.45255 0.15648 0.0
H1183 H 0.62459 0.52129 0.10549 0.0
H1184 H 0.61086 0.54761 0.0859 0.0
C1185 C 0.60957 0.53724 0.1052 0.0
H1186 H 0.61403 0.55188 0.12085 0.0
H1187 H 0.64121 0.46528 0.13047 0.0
O1188 O 0.50134 0.46637 0.13248 0.0
C1189 C 0.57887 0.43485 0.15585 0.0
Co1190 Co 0.78629 0.28028 0.40143 0.0
Co1191 Co 0.77552 0.34089 0.40406 0.0
C1192 C 0.76617 0.30206 0.45089 0.0
O1193 O 0.77176 0.2807 0.4383 0.0
O1194 O 0.76715 0.3248 0.43956 0.0
C1195 C 0.78963 0.222 0.38324 0.0
O1196 O 0.77379 0.21265 0.40168 0.0
C1197 C 0.74489 0.39061 0.40687 0.0
C1198 C 0.77216 0.41664 0.38439 0.0
C1199 C 0.74709 0.41562 0.39547 0.0
N1200 N 0.76734 0.37729 0.40166 0.0
N1201 N 0.78376 0.3932 0.38886 0.0
C1202 C 0.72257 0.37964 0.42311 0.0
H1203 H 0.73056 0.36636 0.43871 0.0
H1204 H 0.70916 0.36767 0.4105 0.0
H1205 H 0.71096 0.39584 0.43239 0.0
C1206 C 0.74171 0.28503 0.36264 0.0
N1207 N 0.76059 0.2962 0.37807 0.0
N1208 N 0.75794 0.32204 0.37701 0.0
C1209 C 0.73829 0.32814 0.35976 0.0
C1210 C 0.72687 0.30485 0.3506 0.0
C1211 C 0.73743 0.25584 0.36011 0.0
H1212 H 0.75379 0.24735 0.34816 0.0
H1213 H 0.73776 0.2466 0.38004 0.0
H1214 H 0.71846 0.25106 0.35006 0.0
O1215 O 0.82193 0.29842 0.40543 0.0
O1216 O 0.81373 0.34097 0.40027 0.0
H1217 H 0.74622 0.36972 0.355 0.0
H1218 H 0.72219 0.35663 0.33228 0.0
C1219 C 0.72955 0.35562 0.35293 0.0
H1220 H 0.71294 0.36152 0.36598 0.0
H1221 H 0.80235 0.38758 0.38174 0.0
O1222 O 0.79553 0.24647 0.38307 0.0
C1223 C 0.82993 0.32228 0.40387 0.0
Co1224 Co 0.98478 0.47989 0.86744 0.0
Co1225 Co 0.92624 0.49797 0.85778 0.0
C1226 C 0.9684 0.50603 0.81612 0.0
O1227 O 0.98663 0.49473 0.82994 0.0
O1228 O 0.94488 0.50946 0.82519 0.0
C1229 C 0.04271 0.47524 0.88568 0.0
O1230 O 0.05189 0.49143 0.86747 0.0
C1231 C 0.87491 0.52712 0.85389 0.0
C1232 C 0.85094 0.4999 0.87863 0.0
C1233 C 0.85019 0.52412 0.86589 0.0
N1234 N 0.88972 0.50594 0.86029 0.0
N1235 N 0.87501 0.48954 0.87445 0.0
C1236 C 0.88398 0.54882 0.83578 0.0
H1237 H 0.89879 0.54105 0.82152 0.0
H1238 H 0.89358 0.56485 0.84727 0.0
H1239 H 0.86684 0.55736 0.82491 0.0
C1240 C 0.9802 0.5228 0.90826 0.0
N1241 N 0.96919 0.5059 0.89055 0.0
N1242 N 0.94392 0.51177 0.88802 0.0
C1243 C 0.93793 0.53187 0.90474 0.0
C1244 C 0.96082 0.53989 0.91777 0.0
C1245 C 0.0091 0.5237 0.91491 0.0
H1246 H 0.01474 0.5049 0.92472 0.0
H1247 H 0.02079 0.52585 0.89643 0.0
H1248 H 0.01395 0.54023 0.92854 0.0
O1249 O 0.96493 0.44516 0.86462 0.0
O1250 O 0.92485 0.45962 0.85505 0.0
H1251 H 0.9098 0.55782 0.92414 0.0
H1252 H 0.9091 0.55817 0.8887 0.0
C1253 C 0.91154 0.54528 0.90622 0.0
H1254 H 0.89548 0.53031 0.90658 0.0
H1255 H 0.88191 0.47184 0.88259 0.0
O1256 O 0.01818 0.46937 0.88594 0.0
C1257 C 0.94095 0.44074 0.85803 0.0
Co1258 Co 0.79045 0.73142 0.1137 0.0
Co1259 Co 0.78016 0.67071 0.11084 0.0
C1260 C 0.77056 0.7095 0.06402 0.0
O1261 O 0.77619 0.73079 0.07671 0.0
O1262 O 0.77164 0.68671 0.07524 0.0
C1263 C 0.79257 0.7899 0.13087 0.0
O1264 O 0.77662 0.7984 0.11211 0.0
C1265 C 0.74888 0.62148 0.10793 0.0
C1266 C 0.77571 0.59485 0.13017 0.0
C1267 C 0.75056 0.59641 0.11928 0.0
N1268 N 0.77166 0.63432 0.11302 0.0
N1269 N 0.78783 0.61806 0.12567 0.0
C1270 C 0.72666 0.63299 0.09193 0.0
H1271 H 0.73486 0.64566 0.07593 0.0
H1272 H 0.71406 0.64574 0.10456 0.0
H1273 H 0.7142 0.61712 0.08314 0.0
C1274 C 0.74565 0.72635 0.1521 0.0
N1275 N 0.76471 0.71534 0.13683 0.0
N1276 N 0.76226 0.68947 0.13789 0.0
C1277 C 0.74256 0.68323 0.15504 0.0
C1278 C 0.73089 0.70642 0.16407 0.0
C1279 C 0.74112 0.7555 0.15455 0.0
H1280 H 0.75752 0.76424 0.16632 0.0
H1281 H 0.74114 0.76464 0.13458 0.0
H1282 H 0.7222 0.7601 0.16474 0.0
O1283 O 0.82633 0.71362 0.1107 0.0
O1284 O 0.81854 0.67085 0.11496 0.0
H1285 H 0.75089 0.64174 0.15988 0.0
H1286 H 0.72722 0.65477 0.18295 0.0
C1287 C 0.73416 0.65569 0.16215 0.0
H1288 H 0.71731 0.64957 0.14948 0.0
H1289 H 0.80658 0.62332 0.13269 0.0
O1290 O 0.79907 0.76561 0.13164 0.0
C1291 C 0.83461 0.68986 0.11219 0.0
Co1292 Co 0.53483 0.53879 0.36437 0.0
Co1293 Co 0.59498 0.52383 0.35918 0.0
C1294 C 0.55538 0.51622 0.31402 0.0
O1295 O 0.53504 0.52474 0.32677 0.0
O1296 O 0.57825 0.51438 0.32497 0.0
C1297 C 0.47603 0.54185 0.38032 0.0
O1298 O 0.4679 0.52679 0.3607 0.0
C1299 C 0.6446 0.49272 0.35637 0.0
C1300 C 0.67034 0.51906 0.38026 0.0
C1301 C 0.66943 0.49442 0.36835 0.0
N1302 N 0.63124 0.515 0.36206 0.0
N1303 N 0.64699 0.53088 0.37568 0.0
C1304 C 0.63394 0.47109 0.33906 0.0
H1305 H 0.62091 0.47965 0.32353 0.0
H1306 H 0.62176 0.45718 0.35089 0.0
H1307 H 0.65038 0.45992 0.32964 0.0
C1308 C 0.53849 0.49438 0.40332 0.0
N1309 N 0.5501 0.51265 0.3875 0.0
N1310 N 0.57584 0.50859 0.38757 0.0
C1311 C 0.58149 0.48855 0.40446 0.0
C1312 C 0.55795 0.47845 0.41449 0.0
C1313 C 0.50917 0.49132 0.40669 0.0
H1314 H 0.50151 0.50852 0.41793 0.0
H1315 H 0.4995 0.49089 0.38696 0.0
H1316 H 0.50396 0.4731 0.4178 0.0
O1317 O 0.55418 0.57401 0.36221 0.0
O1318 O 0.59613 0.56198 0.35871 0.0
H1319 H 0.62357 0.49378 0.40879 0.0
H1320 H 0.60981 0.46827 0.42938 0.0
C1321 C 0.60864 0.47774 0.40961 0.0
H1322 H 0.61331 0.46239 0.39472 0.0
H1323 H 0.64125 0.54922 0.38325 0.0
O1324 O 0.50046 0.54798 0.38207 0.0
C1325 C 0.57861 0.5798 0.35907 0.0
Co1326 Co 0.72523 0.284 0.61397 0.0
Co1327 Co 0.73724 0.3442 0.60986 0.0
C1328 C 0.74616 0.30309 0.56444 0.0
O1329 O 0.74004 0.28214 0.57742 0.0
O1330 O 0.74545 0.326 0.57535 0.0
C1331 C 0.72218 0.22681 0.63314 0.0
O1332 O 0.73892 0.21857 0.61498 0.0
C1333 C 0.77418 0.38872 0.61025 0.0
C1334 C 0.74684 0.42078 0.6222 0.0
C1335 C 0.77351 0.41466 0.61947 0.0
N1336 N 0.74911 0.37973 0.60916 0.0
N1337 N 0.73284 0.39928 0.61524 0.0
C1338 C 0.79798 0.3716 0.60555 0.0
H1339 H 0.79227 0.35038 0.60497 0.0
H1340 H 0.81338 0.37492 0.62088 0.0
H1341 H 0.80677 0.37692 0.58611 0.0
C1342 C 0.77004 0.28924 0.65272 0.0
N1343 N 0.75118 0.29999 0.63699 0.0
N1344 N 0.75277 0.32586 0.63868 0.0
C1345 C 0.77113 0.33231 0.65718 0.0
C1346 C 0.78348 0.30936 0.66594 0.0
C1347 C 0.77527 0.26019 0.65488 0.0
H1348 H 0.75923 0.25098 0.66675 0.0
H1349 H 0.77524 0.25122 0.63484 0.0
H1350 H 0.79438 0.25594 0.66489 0.0
O1351 O 0.69034 0.30374 0.60891 0.0
O1352 O 0.69897 0.34648 0.61281 0.0
H1353 H 0.76097 0.37373 0.66007 0.0
H1354 H 0.77457 0.35948 0.6895 0.0
C1355 C 0.77598 0.35964 0.66759 0.0
H1356 H 0.79637 0.36618 0.66263 0.0
H1357 H 0.71231 0.3973 0.61697 0.0
O1358 O 0.71484 0.25088 0.6332 0.0
C1359 C 0.6826 0.32779 0.60946 0.0
Co1360 Co 0.64919 0.97906 0.54186 0.0
Co1361 Co 0.65473 0.91904 0.52762 0.0
C1362 C 0.69943 0.95924 0.51862 0.0
O1363 O 0.68665 0.97943 0.52734 0.0
O1364 O 0.68866 0.93628 0.51741 0.0
C1365 C 0.63198 0.03741 0.5447 0.0
O1366 O 0.65125 0.04603 0.52943 0.0
C1367 C 0.65706 0.87023 0.49567 0.0
C1368 C 0.63526 0.84342 0.52272 0.0
C1369 C 0.64557 0.84521 0.49738 0.0
N1370 N 0.65253 0.88285 0.51863 0.0
N1371 N 0.64019 0.86646 0.53492 0.0
C1372 C 0.67273 0.88187 0.47329 0.0
H1373 H 0.68893 0.89444 0.48129 0.0
H1374 H 0.65992 0.89471 0.46096 0.0
H1375 H 0.68127 0.86605 0.46065 0.0
C1376 C 0.61004 0.97459 0.49763 0.0
N1377 N 0.62603 0.96335 0.51599 0.0
N1378 N 0.62579 0.93759 0.51254 0.0
C1379 C 0.60846 0.93157 0.49292 0.0
C1380 C 0.59847 0.95486 0.48234 0.0
C1381 C 0.60684 1.00378 0.49391 0.0
H1382 H 0.62664 0.01338 0.49376 0.0
H1383 H 0.59615 0.00864 0.47533 0.0
H1384 H 0.59519 0.01179 0.51069 0.0
O1385 O 0.65151 0.96008 0.57729 0.0
O1386 O 0.65531 0.91808 0.56587 0.0
H1387 H 0.60478 0.88967 0.49947 0.0
H1388 H 0.58162 0.90295 0.476 0.0
C1389 C 0.60232 0.90423 0.48329 0.0
H1390 H 0.61543 0.89924 0.46646 0.0
H1391 H 0.6336 0.87159 0.55382 0.0
O1392 O 0.63095 0.01302 0.55089 0.0
C1393 C 0.6547 0.93582 0.58347 0.0
Co1394 Co 0.14584 0.53622 0.46781 0.0
Co1395 Co 0.15218 0.59603 0.48196 0.0
C1396 C 0.19715 0.556 0.48954 0.0
O1397 O 0.18384 0.53594 0.48121 0.0
O1398 O 0.18668 0.57906 0.49103 0.0
C1399 C 0.12926 0.47768 0.46545 0.0
O1400 O 0.14932 0.46932 0.47981 0.0
C1401 C 0.15586 0.64494 0.51359 0.0
C1402 C 0.13322 0.67173 0.48724 0.0
C1403 C 0.14449 0.67 0.51218 0.0
N1404 N 0.15038 0.63225 0.49087 0.0
N1405 N 0.13755 0.64862 0.47497 0.0
C1406 C 0.17228 0.63335 0.53545 0.0
H1407 H 0.18855 0.6213 0.52688 0.0
H1408 H 0.16005 0.61996 0.5478 0.0
H1409 H 0.1808 0.64915 0.54816 0.0
C1410 C 0.10783 0.54047 0.51311 0.0
N1411 N 0.12354 0.55177 0.49453 0.0
N1412 N 0.1238 0.57748 0.49836 0.0
C1413 C 0.10707 0.58342 0.51851 0.0
C1414 C 0.09692 0.5601 0.52897 0.0
C1415 C 0.10423 0.51127 0.51646 0.0
H1416 H 0.09234 0.50363 0.49964 0.0
H1417 H 0.12389 0.50142 0.51634 0.0
H1418 H 0.09363 0.50629 0.53505 0.0
O1419 O 0.14647 0.55507 0.43216 0.0
O1420 O 0.15067 0.59697 0.44362 0.0
H1421 H 0.10364 0.62543 0.51259 0.0
H1422 H 0.08115 0.61203 0.53668 0.0
C1423 C 0.10157 0.61069 0.52866 0.0
H1424 H 0.11533 0.61536 0.54509 0.0
H1425 H 0.13022 0.64346 0.45634 0.0
O1426 O 0.12756 0.50208 0.45948 0.0
C1427 C 0.14913 0.57938 0.4259 0.0
Co1428 Co 0.73336 0.90085 0.72818 0.0
Co1429 Co 0.67499 0.91277 0.74628 0.0
C1430 C 0.72007 0.95397 0.74751 0.0
O1431 O 0.73877 0.93871 0.7396 0.0
O1432 O 0.69635 0.94556 0.75076 0.0
C1433 C 0.78964 0.87957 0.72205 0.0
O1434 O 0.79976 0.89861 0.73664 0.0
C1435 C 0.63066 0.9186 0.78426 0.0
C1436 C 0.59678 0.91457 0.75674 0.0
C1437 C 0.60324 0.91615 0.78331 0.0
N1438 N 0.63995 0.91753 0.75933 0.0
N1439 N 0.61951 0.91595 0.74299 0.0
C1440 C 0.64769 0.92264 0.80824 0.0
H1441 H 0.66867 0.91758 0.80387 0.0
H1442 H 0.64029 0.91103 0.82535 0.0
H1443 H 0.64685 0.94385 0.81389 0.0
C1444 C 0.72862 0.86372 0.77408 0.0
N1445 N 0.71772 0.88081 0.75655 0.0
N1446 N 0.6922 0.88281 0.76153 0.0
C1447 C 0.68583 0.86546 0.78098 0.0
C1448 C 0.70881 0.85352 0.79024 0.0
C1449 C 0.75756 0.85738 0.77549 0.0
H1450 H 0.763 0.8452 0.75806 0.0
H1451 H 0.76924 0.87599 0.77498 0.0
H1452 H 0.76265 0.84602 0.7936 0.0
O1453 O 0.71122 0.90319 0.6946 0.0
O1454 O 0.67013 0.9099 0.70837 0.0
H1455 H 0.65519 0.83806 0.79165 0.0
H1456 H 0.65607 0.86755 0.81091 0.0
C1457 C 0.65839 0.85974 0.79054 0.0
H1458 H 0.64334 0.86804 0.77692 0.0
H1459 H 0.62107 0.91427 0.72245 0.0
O1460 O 0.76492 0.87955 0.71695 0.0
C1461 C 0.68671 0.90731 0.68978 0.0
Co1462 Co 0.36476 0.47899 0.97824 0.0
Co1463 Co 0.35948 0.41893 0.99279 0.0
C1464 C 0.31455 0.45818 1.00164 0.0
O1465 O 0.32728 0.47841 0.99281 0.0
O1466 O 0.32538 0.43529 1.00319 0.0
C1467 C 0.38112 0.53778 0.97431 0.0
O1468 O 0.36214 0.54675 0.9897 0.0
C1469 C 0.35701 0.36832 0.02244 0.0
C1470 C 0.38186 0.34408 0.99565 0.0
C1471 C 0.36942 0.34382 0.02006 0.0
N1472 N 0.36292 0.38259 1.00077 0.0
N1473 N 0.37715 0.36773 0.9846 0.0
C1474 C 0.33906 0.37774 0.04411 0.0
H1475 H 0.32368 0.3911 0.03581 0.0
H1476 H 0.35048 0.38915 0.05898 0.0
H1477 H 0.32942 0.36072 0.05419 0.0
C1478 C 0.40463 0.47505 0.02178 0.0
N1479 N 0.38831 0.4636 1.00385 0.0
N1480 N 0.38805 0.43793 0.00803 0.0
C1481 C 0.40509 0.43217 0.02796 0.0
C1482 C 0.41569 0.45557 0.03774 0.0
C1483 C 0.40863 0.50427 0.02444 0.0
H1484 H 0.41944 0.51161 1.00678 0.0
H1485 H 0.38907 0.51425 0.02539 0.0
H1486 H 0.42045 0.50944 0.04224 0.0
O1487 O 0.36274 0.46036 0.94288 0.0
O1488 O 0.3585 0.41847 0.95451 0.0
H1489 H 0.40949 0.3902 0.02316 0.0
H1490 H 0.42867 0.40383 0.04986 0.0
C1491 C 0.40951 0.40511 0.03919 0.0
H1492 H 0.39362 0.40053 0.05357 0.0
H1493 H 0.38497 0.37429 0.96662 0.0
O1494 O 0.3822 0.51323 0.96892 0.0
C1495 C 0.3593 0.43614 0.93684 0.0
Co1496 Co 0.281 0.6119 0.72296 0.0
Co1497 Co 0.34177 0.60934 0.73472 0.0
C1498 C 0.30203 0.56307 0.7444 0.0
O1499 O 0.2807 0.57556 0.73841 0.0
O1500 O 0.32487 0.57432 0.74342 0.0
C1501 C 0.22284 0.6295 0.71939 0.0
O1502 O 0.21427 0.61083 0.73539 0.0
C1503 C 0.3905 0.60667 0.76739 0.0
C1504 C 0.41785 0.62832 0.74078 0.0
C1505 C 0.41578 0.61779 0.76602 0.0
N1506 N 0.37807 0.61153 0.74432 0.0
N1507 N 0.39477 0.62385 0.72834 0.0
C1508 C 0.37847 0.591 0.78955 0.0
H1509 H 0.36464 0.57593 0.78144 0.0
H1510 H 0.36687 0.60415 0.80271 0.0
H1511 H 0.39414 0.58113 0.80145 0.0
C1512 C 0.2854 0.65071 0.76723 0.0
N1513 N 0.29678 0.63552 0.74837 0.0
N1514 N 0.32266 0.63683 0.75112 0.0
C1515 C 0.32856 0.65406 0.77079 0.0
C1516 C 0.30512 0.66284 0.78215 0.0
C1517 C 0.25612 0.6527 0.77161 0.0
H1518 H 0.24731 0.66446 0.75528 0.0
H1519 H 0.24724 0.63261 0.7714 0.0
H1520 H 0.25125 0.66269 0.79054 0.0
O1521 O 0.3 0.60669 0.68794 0.0
O1522 O 0.34266 0.61202 0.69639 0.0
H1523 H 0.3703 0.65887 0.76321 0.0
H1524 H 0.35682 0.68201 0.78649 0.0
C1525 C 0.35601 0.66119 0.77965 0.0
H1526 H 0.36182 0.64861 0.79663 0.0
H1527 H 0.38991 0.63062 0.70941 0.0
O1528 O 0.24723 0.6302 0.71297 0.0
C1529 C 0.32403 0.60777 0.68016 0.0
Co1530 Co 0.86416 0.03323 0.03751 0.0
Co1531 Co 0.85686 0.09301 0.02174 0.0
C1532 C 0.81252 0.05237 0.01539 0.0
O1533 O 0.82607 0.03258 0.02403 0.0
O1534 O 0.82275 0.07549 0.01286 0.0
C1535 C 0.88263 0.97499 0.04202 0.0
O1536 O 0.86347 0.96533 0.02722 0.0
C1537 C 0.85372 0.14338 0.99126 0.0
C1538 C 0.87734 0.16839 0.01851 0.0
C1539 C 0.8656 0.16819 0.99374 0.0
N1540 N 0.85932 0.12942 0.01325 0.0
N1541 N 0.87279 0.14476 0.02965 0.0
C1542 C 0.83648 0.13337 0.96924 0.0
H1543 H 0.82174 0.11906 0.97713 0.0
H1544 H 0.8486 0.12289 0.95428 0.0
H1545 H 0.82612 0.15005 0.95935 0.0
C1546 C 0.90315 0.03767 0.99309 0.0
N1547 N 0.88661 0.04888 0.01096 0.0
N1548 N 0.88568 0.07448 1.00645 0.0
C1549 C 0.90263 0.08048 0.98652 0.0
C1550 C 0.91377 0.05729 0.97697 0.0
C1551 C 0.90791 0.00855 0.99076 0.0
H1552 H 0.91949 1.00184 0.00819 0.0
H1553 H 0.88863 0.99795 0.99055 0.0
H1554 H 0.91931 1.00349 0.97268 0.0
O1555 O 0.8623 0.05268 0.07263 0.0
O1556 O 0.85665 0.0941 0.05998 0.0
H1557 H 0.90597 0.12257 0.99135 0.0
H1558 H 0.92642 0.10929 0.9655 0.0
C1559 C 0.90688 0.10762 0.97539 0.0
H1560 H 0.8915 0.11176 0.96033 0.0
H1561 H 0.88031 0.13858 0.0479 0.0
O1562 O 0.88315 0.99964 0.04715 0.0
C1563 C 0.85822 0.07696 0.0781 0.0
Co1564 Co 0.73244 0.11736 0.78981 0.0
Co1565 Co 0.67385 0.10662 0.7718 0.0
C1566 C 0.71756 0.06653 0.76268 0.0
O1567 O 0.73555 0.08043 0.77424 0.0
O1568 O 0.69378 0.07506 0.75972 0.0
C1569 C 0.78985 0.13686 0.79418 0.0
O1570 O 0.799 0.11832 0.77839 0.0
C1571 C 0.62399 0.10219 0.74052 0.0
C1572 C 0.59767 0.12381 0.76812 0.0
C1573 C 0.5987 0.11308 0.74293 0.0
N1574 N 0.63741 0.10749 0.76294 0.0
N1575 N 0.62129 0.11969 0.77955 0.0
C1576 C 0.63499 0.08612 0.71815 0.0
H1577 H 0.64926 0.07131 0.72592 0.0
H1578 H 0.64585 0.09898 0.70408 0.0
H1579 H 0.61877 0.07592 0.70729 0.0
C1580 C 0.72667 0.15772 0.74685 0.0
N1581 N 0.71601 0.14015 0.76408 0.0
N1582 N 0.69058 0.13771 0.75885 0.0
C1583 C 0.68409 0.15467 0.7391 0.0
C1584 C 0.70685 0.16739 0.73037 0.0
C1585 C 0.75562 0.16393 0.74495 0.0
H1586 H 0.76184 0.17453 0.76314 0.0
H1587 H 0.76704 0.14525 0.74342 0.0
H1588 H 0.76021 0.17674 0.7277 0.0
O1589 O 0.71255 0.11317 0.82442 0.0
O1590 O 0.6724 0.10332 0.81006 0.0
H1591 H 0.64164 0.15509 0.74239 0.0
H1592 H 0.65455 0.17686 0.71744 0.0
C1593 C 0.6571 0.15729 0.72702 0.0
H1594 H 0.65453 0.14205 0.71153 0.0
H1595 H 0.62694 0.12676 0.79813 0.0
O1596 O 0.76537 0.13699 0.80031 0.0
C1597 C 0.68867 0.10617 0.82887 0.0
Co1598 Co 0.78449 0.90002 0.28751 0.0
Co1599 Co 0.84467 0.90608 0.27271 0.0
C1600 C 0.80477 0.95066 0.26476 0.0
O1601 O 0.78458 0.93765 0.27334 0.0
O1602 O 0.82778 0.94005 0.26294 0.0
C1603 C 0.72593 0.88296 0.29034 0.0
O1604 O 0.71762 0.90147 0.27404 0.0
C1605 C 0.89528 0.90958 0.24284 0.0
C1606 C 0.92003 0.88488 0.26935 0.0
C1607 C 0.92004 0.89758 0.24508 0.0
N1608 N 0.88111 0.9032 0.26447 0.0
N1609 N 0.89627 0.88906 0.28046 0.0
C1610 C 0.88551 0.9276 0.22137 0.0
H1611 H 0.87162 0.94242 0.22978 0.0
H1612 H 0.87455 0.91615 0.2062 0.0
H1613 H 0.90239 0.93785 0.21162 0.0
C1614 C 0.78886 0.86055 0.24358 0.0
N1615 N 0.80013 0.87689 0.26161 0.0
N1616 N 0.82585 0.87753 0.25737 0.0
C1617 C 0.83181 0.86078 0.23732 0.0
C1618 C 0.8085 0.84993 0.22752 0.0
C1619 C 0.75965 0.85607 0.24089 0.0
H1620 H 0.75242 0.84544 0.25869 0.0
H1621 H 0.74939 0.87542 0.23951 0.0
H1622 H 0.75471 0.84394 0.22326 0.0
O1623 O 0.80351 0.9023 0.32281 0.0
O1624 O 0.84541 0.9068 0.31096 0.0
H1625 H 0.87394 0.85677 0.24202 0.0
H1626 H 0.86044 0.83798 0.21498 0.0
C1627 C 0.85896 0.85688 0.22599 0.0
H1628 H 0.86333 0.87306 0.21191 0.0
H1629 H 0.88987 0.88096 0.29838 0.0
O1630 O 0.75027 0.88217 0.29696 0.0
C1631 C 0.82781 0.90597 0.32872 0.0
C1632 C 0.06117 0.08692 0.54577 0.0
C1633 C 0.04687 0.10814 0.55697 0.0
H1634 H 0.07495 0.04697 0.55019 0.0
C1635 C 0.0365 0.10511 0.58266 0.0
H1636 H 0.06937 0.08839 0.52599 0.0
C1637 C 0.03989 0.08125 0.5965 0.0
C1638 C 0.05358 0.05997 0.58491 0.0
H1639 H 0.02531 0.12091 0.59186 0.0
H1640 H 0.03163 0.07934 0.61623 0.0
C1641 C 0.06438 0.06311 0.55955 0.0
C1642 C 0.19867 0.81081 0.80605 0.0
C1643 C 0.20121 0.80068 0.83175 0.0
H1644 H 0.17387 0.81558 0.77206 0.0
C1645 C 0.1793 0.78801 0.84349 0.0
H1646 H 0.2153 0.82053 0.79652 0.0
C1647 C 0.15544 0.78493 0.82945 0.0
C1648 C 0.15301 0.79461 0.80343 0.0
H1649 H 0.18072 0.78032 0.86348 0.0
H1650 H 0.13915 0.7745 0.83879 0.0
C1651 C 0.17485 0.80795 0.7921 0.0
C1652 C 0.46938 0.92766 0.09413 0.0
C1653 C 0.4551 0.94894 0.08323 0.0
H1654 H 0.48476 0.8885 0.08842 0.0
C1655 C 0.44374 0.94608 0.05806 0.0
H1656 H 0.47803 0.92931 0.11373 0.0
C1657 C 0.4473 0.92266 0.04367 0.0
C1658 C 0.46236 0.90156 0.05413 0.0
H1659 H 0.43274 0.96221 0.04917 0.0
H1660 H 0.43884 0.92143 0.02397 0.0
C1661 C 0.47303 0.90422 0.07974 0.0
C1662 C 0.33322 0.22172 0.34678 0.0
C1663 C 0.31081 0.20925 0.33579 0.0
H1664 H 0.37358 0.23416 0.34104 0.0
C1665 C 0.31263 0.19844 0.31031 0.0
H1666 H 0.33241 0.22986 0.36662 0.0
C1667 C 0.33624 0.2004 0.29587 0.0
C1668 C 0.3586 0.21345 0.30649 0.0
H1669 H 0.29562 0.18891 0.30128 0.0
H1670 H 0.33666 0.19225 0.27603 0.0
C1671 C 0.35687 0.2239 0.33226 0.0
C1672 C 0.06654 0.95236 0.95501 0.0
C1673 C 0.05543 0.95495 0.92971 0.0
H1674 H 0.07202 0.92775 0.98898 0.0
C1675 C 0.04165 0.93339 0.91868 0.0
H1676 H 0.07716 0.96874 0.96396 0.0
C1677 C 0.03853 0.90978 0.933 0.0
C1678 C 0.04923 0.90729 0.95862 0.0
H1679 H 0.03313 0.9349 0.89902 0.0
H1680 H 0.02727 0.89375 0.92423 0.0
C1681 C 0.06357 0.9288 0.96927 0.0
C1682 C 0.35972 0.78361 0.18154 0.0
C1683 C 0.36343 0.79765 0.20533 0.0
H1684 H 0.33417 0.77607 0.14823 0.0
C1685 C 0.3438 0.81591 0.21315 0.0
H1686 H 0.37425 0.76926 0.17499 0.0
C1687 C 0.3208 0.81946 0.19804 0.0
C1688 C 0.31689 0.80504 0.17465 0.0
H1689 H 0.34582 0.82699 0.23141 0.0
H1690 H 0.30579 0.83319 0.2049 0.0
C1691 C 0.33666 0.78727 0.16637 0.0
C1692 C 0.44907 0.06257 0.45453 0.0
C1693 C 0.46004 0.06004 0.42916 0.0
H1694 H 0.44392 0.08708 0.48864 0.0
C1695 C 0.47348 0.08178 0.41803 0.0
H1696 H 0.43877 0.04609 0.46363 0.0
C1697 C 0.47663 0.10536 0.43236 0.0
C1698 C 0.46628 0.10772 0.4581 0.0
H1699 H 0.48178 0.08042 0.39828 0.0
H1700 H 0.48769 0.12147 0.42347 0.0
C1701 C 0.4521 0.08612 0.46882 0.0
C1702 C 0.18168 0.22478 0.66923 0.0
C1703 C 0.2034 0.21187 0.68103 0.0
H1704 H 0.1417 0.23873 0.67377 0.0
C1705 C 0.20066 0.2018 0.70674 0.0
H1706 H 0.18325 0.23246 0.64924 0.0
C1707 C 0.17684 0.20497 0.72063 0.0
C1708 C 0.1552 0.21851 0.70921 0.0
H1709 H 0.21713 0.19189 0.71633 0.0
H1710 H 0.17571 0.19738 0.74068 0.0
C1711 C 0.15784 0.22814 0.68318 0.0
C1712 C 0.54071 0.05831 0.08437 0.0
C1713 C 0.55133 0.04407 0.10596 0.0
H1714 H 0.54646 0.07238 0.04459 0.0
C1715 C 0.57723 0.03394 0.10373 0.0
H1716 H 0.5208 0.06632 0.08523 0.0
C1717 C 0.59186 0.03749 0.08035 0.0
C1718 C 0.58092 0.05118 0.05869 0.0
H1719 H 0.58603 0.0228 0.11983 0.0
H1720 H 0.61172 0.02938 0.07911 0.0
C1721 C 0.55534 0.06177 0.06102 0.0
C1722 C 0.23014 0.32974 0.3583 0.0
C1723 C 0.21743 0.30516 0.36166 0.0
H1724 H 0.23719 0.36292 0.33257 0.0
C1725 C 0.20101 0.29571 0.34108 0.0
H1726 H 0.24302 0.3376 0.37359 0.0
C1727 C 0.19793 0.31011 0.31755 0.0
C1728 C 0.21118 0.33426 0.31404 0.0
H1729 H 0.19099 0.27681 0.34284 0.0
H1730 H 0.18564 0.30207 0.30188 0.0
C1731 C 0.22704 0.34412 0.33473 0.0
C1732 C 0.96843 0.95133 0.5878 0.0
C1733 C 0.95777 0.96586 0.60914 0.0
H1734 H 0.96324 0.93756 0.54789 0.0
C1735 C 0.93222 0.97673 0.60635 0.0
H1736 H 0.98808 0.94276 0.58907 0.0
C1737 C 0.91801 0.9736 0.58263 0.0
C1738 C 0.92906 0.95963 0.56122 0.0
H1739 H 0.92343 0.98813 0.62223 0.0
H1740 H 0.89841 0.98223 0.58092 0.0
C1741 C 0.95428 0.94836 0.56412 0.0
C1742 C 0.2866 0.67888 0.85332 0.0
C1743 C 0.2958 0.70505 0.85585 0.0
H1744 H 0.2825 0.64499 0.8279 0.0
C1745 C 0.3088 0.71681 0.83407 0.0
H1746 H 0.27644 0.66922 0.86958 0.0
C1747 C 0.31181 0.70312 0.8102 0.0
C1748 C 0.30213 0.67727 0.80756 0.0
H1749 H 0.31606 0.73698 0.83513 0.0
H1750 H 0.32121 0.71297 0.7936 0.0
C1751 C 0.28983 0.6651 0.82941 0.0
C1752 C 0.59566 0.9708 0.43533 0.0
C1753 C 0.58379 0.95796 0.45702 0.0
H1754 H 0.59125 0.98455 0.39533 0.0
C1755 C 0.55804 0.94785 0.45427 0.0
H1756 H 0.61567 0.97851 0.43694 0.0
C1757 C 0.54416 0.95097 0.43044 0.0
C1758 C 0.5557 0.96441 0.4088 0.0
H1759 H 0.54844 0.93795 0.47073 0.0
H1760 H 0.5241 0.94336 0.42925 0.0
C1761 C 0.58176 0.97404 0.41147 0.0
C1762 C 0.31358 0.29496 0.67877 0.0
C1763 C 0.29984 0.30639 0.65726 0.0
H1764 H 0.32677 0.29913 0.719 0.0
C1765 C 0.29022 0.33236 0.65995 0.0
H1766 H 0.32121 0.27496 0.67755 0.0
C1767 C 0.29362 0.3462 0.68379 0.0
C1768 C 0.30655 0.33435 0.70546 0.0
H1769 H 0.27953 0.34179 0.6439 0.0
H1770 H 0.28587 0.36614 0.68542 0.0
C1771 C 0.31684 0.30877 0.70259 0.0
C1772 C 0.9333 0.03653 0.90725 0.0
C1773 C 0.95869 0.04786 0.90471 0.0
H1774 H 0.89923 0.03064 0.93222 0.0
C1775 C 0.96885 0.06274 0.92609 0.0
H1776 H 0.92489 0.02484 0.89133 0.0
C1777 C 0.95432 0.06568 0.94952 0.0
C1778 C 0.92924 0.05399 0.95214 0.0
H1779 H 0.98838 0.07165 0.92502 0.0
H1780 H 0.96288 0.0768 0.96577 0.0
C1781 C 0.91872 0.0396 0.93072 0.0
C1782 C 0.19108 0.69882 0.18934 0.0
C1783 C 0.20692 0.67652 0.19415 0.0
H1784 H 0.18408 0.73271 0.16473 0.0
C1785 C 0.22737 0.67036 0.17631 0.0
H1786 H 0.17522 0.70394 0.20287 0.0
C1787 C 0.2323 0.68654 0.15429 0.0
C1788 C 0.21707 0.70946 0.14986 0.0
H1789 H 0.23978 0.65317 0.17963 0.0
H1790 H 0.24864 0.68158 0.14129 0.0
C1791 C 0.19618 0.71521 0.16749 0.0
C1792 C 0.1109 0.58224 0.0446 0.0
C1793 C 0.11192 0.55583 0.05333 0.0
H1794 H 0.08725 0.61738 0.04051 0.0
C1795 C 0.08922 0.5449 0.06553 0.0
H1796 H 0.1279 0.59129 0.03509 0.0
C1797 C 0.06592 0.55968 0.06818 0.0
C1798 C 0.06478 0.58578 0.05891 0.0
H1799 H 0.08912 0.52459 0.0724 0.0
H1800 H 0.0486 0.55043 0.07687 0.0
C1801 C 0.08757 0.59708 0.04746 0.0
C1802 C 0.5842 0.96791 0.95239 0.0
C1803 C 0.60636 0.95638 0.96501 0.0
H1804 H 0.54347 0.96371 0.94073 0.0
C1805 C 0.60415 0.93019 0.97423 0.0
H1806 H 0.585 0.98808 0.94516 0.0
C1807 C 0.58025 0.91618 0.97142 0.0
C1808 C 0.55799 0.92809 0.95954 0.0
H1809 H 0.62069 0.92067 0.98408 0.0
H1810 H 0.5791 0.89602 0.97867 0.0
C1811 C 0.56031 0.95396 0.94979 0.0
C1812 C 0.34623 0.32722 0.22316 0.0
C1813 C 0.33444 0.30578 0.20985 0.0
H1814 H 0.34174 0.36692 0.23756 0.0
C1815 C 0.30881 0.30872 0.1995 0.0
H1816 H 0.36614 0.32547 0.23108 0.0
C1817 C 0.29495 0.33247 0.20288 0.0
C1818 C 0.30637 0.35382 0.21683 0.0
H1819 H 0.29928 0.29244 0.18924 0.0
H1820 H 0.27495 0.3338 0.19511 0.0
C1821 C 0.33234 0.351 0.22666 0.0
C1822 C 0.93064 0.09602 0.47304 0.0
C1823 C 0.95268 0.08448 0.46048 0.0
H1824 H 0.89055 0.09096 0.48654 0.0
C1825 C 0.9504 0.0587 0.45052 0.0
H1826 H 0.93185 0.11604 0.48064 0.0
C1827 C 0.92673 0.04449 0.45349 0.0
C1828 C 0.90477 0.05565 0.46671 0.0
H1829 H 0.96713 0.04929 0.44093 0.0
H1830 H 0.92595 0.0244 0.44602 0.0
C1831 C 0.90693 0.08174 0.4762 0.0
C1832 C 0.71927 0.1767 0.2011 0.0
C1833 C 0.70859 0.1551 0.21528 0.0
H1834 H 0.71398 0.2167 0.18772 0.0
C1835 C 0.6829 0.15754 0.22589 0.0
H1836 H 0.73904 0.1757 0.19274 0.0
C1837 C 0.66856 0.18115 0.22286 0.0
C1838 C 0.67962 0.20281 0.20925 0.0
H1839 H 0.67408 0.14145 0.23703 0.0
H1840 H 0.64885 0.18258 0.2313 0.0
C1841 C 0.70499 0.20027 0.19822 0.0
C1842 C 0.40448 0.42884 0.53348 0.0
C1843 C 0.40194 0.45495 0.54284 0.0
H1844 H 0.42969 0.39476 0.52958 0.0
C1845 C 0.42364 0.46637 0.55635 0.0
H1846 H 0.3883 0.4194 0.52295 0.0
C1847 C 0.44738 0.45237 0.55978 0.0
C1848 C 0.45004 0.42658 0.54991 0.0
H1849 H 0.42259 0.48647 0.56373 0.0
H1850 H 0.4639 0.462 0.56959 0.0
C1851 C 0.42825 0.41481 0.53706 0.0
C1852 C 0.30501 0.70592 0.31331 0.0
C1853 C 0.33012 0.70805 0.30159 0.0
H1854 H 0.27026 0.68219 0.31884 0.0
C1855 C 0.33993 0.68674 0.28667 0.0
H1856 H 0.29705 0.72213 0.32488 0.0
C1857 C 0.3247 0.66378 0.28319 0.0
C1858 C 0.29932 0.6617 0.29458 0.0
H1859 H 0.35941 0.68789 0.27765 0.0
H1860 H 0.33265 0.64789 0.27119 0.0
C1861 C 0.28977 0.68299 0.30988 0.0
C1862 C 0.20537 0.31454 0.81622 0.0
C1863 C 0.17998 0.3123 0.80511 0.0
H1864 H 0.23984 0.33863 0.82157 0.0
C1865 C 0.16935 0.33397 0.79122 0.0
H1866 H 0.21401 0.29808 0.82694 0.0
C1867 C 0.18411 0.35732 0.78802 0.0
C1868 C 0.20981 0.35946 0.79871 0.0
H1869 H 0.14964 0.33276 0.78271 0.0
H1870 H 0.1756 0.37344 0.7767 0.0
C1871 C 0.22009 0.33785 0.81314 0.0
C1872 C 0.54099 0.58186 0.09526 0.0
C1873 C 0.55536 0.56077 0.08413 0.0
H1874 H 0.5255 0.62108 0.08994 0.0
C1875 C 0.56642 0.5639 0.05886 0.0
H1876 H 0.5325 0.57998 0.11489 0.0
C1877 C 0.56276 0.58746 0.04472 0.0
C1878 C 0.54779 0.60846 0.05546 0.0
H1879 H 0.57753 0.54792 0.04985 0.0
H1880 H 0.57114 0.58891 0.02501 0.0
C1881 C 0.53721 0.60546 0.08107 0.0
C1882 C 0.65604 0.28641 0.33212 0.0
C1883 C 0.6542 0.29595 0.30599 0.0
H1884 H 0.68054 0.2819 0.36672 0.0
C1885 C 0.67634 0.30911 0.29505 0.0
H1886 H 0.6395 0.27612 0.34116 0.0
C1887 C 0.69986 0.31199 0.30952 0.0
C1888 C 0.7018 0.30202 0.33535 0.0
H1889 H 0.67583 0.31661 0.27495 0.0
H1890 H 0.71675 0.32155 0.30029 0.0
C1891 C 0.67959 0.2895 0.34666 0.0
C1892 C 0.97711 0.42889 0.59593 0.0
C1893 C 0.96175 0.44999 0.58621 0.0
H1894 H 0.99266 0.39 0.5889 0.0
C1895 C 0.94903 0.44718 0.56166 0.0
H1896 H 0.98687 0.43048 0.615 0.0
C1897 C 0.95206 0.42395 0.54682 0.0
C1898 C 0.96794 0.40294 0.55618 0.0
H1899 H 0.93723 0.4632 0.55363 0.0
H1900 H 0.94243 0.42276 0.52767 0.0
C1901 C 0.9802 0.40562 0.58109 0.0
C1902 C 0.81123 0.69891 0.80843 0.0
C1903 C 0.80974 0.70907 0.83421 0.0
H1904 H 0.83491 0.69335 0.7738 0.0
C1905 C 0.83235 0.7211 0.84529 0.0
H1906 H 0.79404 0.68977 0.79934 0.0
C1907 C 0.85589 0.72343 0.83061 0.0
C1908 C 0.85731 0.7136 0.80457 0.0
H1909 H 0.83174 0.72884 0.8653 0.0
H1910 H 0.87276 0.73334 0.83948 0.0
C1911 C 0.83474 0.701 0.79384 0.0
C1912 C 0.5407 0.43187 0.41704 0.0
C1913 C 0.55434 0.45308 0.42891 0.0
H1914 H 0.526 0.39219 0.42125 0.0
C1915 C 0.56489 0.44976 0.45437 0.0
H1916 H 0.53264 0.43391 0.39724 0.0
C1917 C 0.56146 0.42586 0.46797 0.0
C1918 C 0.54725 0.40471 0.45647 0.0
H1919 H 0.57543 0.46584 0.46394 0.0
H1920 H 0.56946 0.42425 0.48784 0.0
C1921 C 0.53714 0.40793 0.43069 0.0
C1922 C 0.81053 0.31739 0.70702 0.0
C1923 C 0.80868 0.3074 0.68118 0.0
H1924 H 0.83473 0.32265 0.74144 0.0
C1925 C 0.83128 0.29587 0.66964 0.0
H1926 H 0.79342 0.32621 0.71649 0.0
C1927 C 0.85505 0.29359 0.68396 0.0
C1928 C 0.85679 0.303 0.71012 0.0
H1929 H 0.83049 0.28841 0.64953 0.0
H1930 H 0.87186 0.284 0.67469 0.0
C1931 C 0.83429 0.31529 0.7213 0.0
C1932 C 0.98095 0.58507 0.92356 0.0
C1933 C 0.96466 0.56466 0.93329 0.0
H1934 H 0.99772 0.62356 0.93027 0.0
C1935 C 0.95171 0.56826 0.9576 0.0
H1936 H 0.99095 0.58286 0.9047 0.0
C1937 C 0.95538 0.5916 0.9722 0.0
C1938 C 0.97208 0.61195 0.96279 0.0
H1939 H 0.939 0.55284 0.96549 0.0
H1940 H 0.94548 0.59343 0.99115 0.0
C1941 C 0.98461 0.60847 0.93811 0.0
C1942 C 0.65978 0.72453 0.18157 0.0
C1943 C 0.65774 0.71537 0.20782 0.0
H1944 H 0.68459 0.72874 0.14718 0.0
C1945 C 0.6798 0.70243 0.21914 0.0
H1946 H 0.64331 0.73465 0.17222 0.0
C1947 C 0.70346 0.69943 0.20493 0.0
C1948 C 0.70562 0.70909 0.17899 0.0
H1949 H 0.67912 0.69521 0.23934 0.0
H1950 H 0.72028 0.69007 0.21445 0.0
C1951 C 0.68347 0.72136 0.16731 0.0
C1952 C 0.09471 0.54354 0.57582 0.0
C1953 C 0.0826 0.55677 0.55451 0.0
H1954 H 0.09086 0.52914 0.61564 0.0
C1955 C 0.05691 0.56685 0.55781 0.0
H1956 H 0.11466 0.5358 0.57381 0.0
C1957 C 0.04333 0.56328 0.58177 0.0
C1958 C 0.05514 0.54949 0.60303 0.0
H1959 H 0.04712 0.57706 0.54166 0.0
H1960 H 0.02329 0.57085 0.58339 0.0
C1961 C 0.08115 0.53992 0.59983 0.0
C1962 C 0.72725 0.84738 0.83601 0.0
C1963 C 0.71193 0.83766 0.81485 0.0
H1964 H 0.74299 0.84022 0.87488 0.0
C1965 C 0.69939 0.81302 0.81754 0.0
H1966 H 0.73687 0.86652 0.8345 0.0
C1967 C 0.70261 0.79808 0.84071 0.0
C1968 C 0.7185 0.80741 0.86175 0.0
H1969 H 0.68762 0.805 0.80148 0.0
H1970 H 0.69312 0.77886 0.8418 0.0
C1971 C 0.73053 0.83243 0.85922 0.0
C1972 C 0.4704 0.45126 0.08909 0.0
C1973 C 0.45994 0.4662 0.11024 0.0
H1974 H 0.46487 0.43678 0.04949 0.0
C1975 C 0.43437 0.47701 0.1075 0.0
H1976 H 0.49007 0.44271 0.09034 0.0
C1977 C 0.41995 0.47345 0.08398 0.0
C1978 C 0.43083 0.45911 0.06273 0.0
H1979 H 0.42573 0.48871 0.12326 0.0
H1980 H 0.40034 0.48206 0.08228 0.0
C1981 C 0.45605 0.44787 0.0656 0.0
C1982 C 0.7857 0.18044 0.3557 0.0
C1983 C 0.79602 0.20609 0.35922 0.0
H1984 H 0.78117 0.14727 0.3294 0.0
C1985 C 0.81059 0.2176 0.33831 0.0
H1986 H 0.77429 0.171 0.37124 0.0
C1987 C 0.81414 0.20417 0.31435 0.0
C1988 C 0.80338 0.17886 0.31071 0.0
H1989 H 0.81877 0.23736 0.34016 0.0
H1990 H 0.82495 0.21377 0.29846 0.0
C1991 C 0.7894 0.16696 0.33168 0.0
C1992 C 0.08473 0.47844 0.91278 0.0
C1993 C 0.05884 0.46853 0.9095 0.0
H1994 H 0.11827 0.48253 0.93881 0.0
C1995 C 0.04727 0.4542 0.93054 0.0
H1996 H 0.09423 0.48963 0.89712 0.0
C1997 C 0.06083 0.45061 0.95445 0.0
C1998 C 0.08639 0.46098 0.95786 0.0
H1999 H 0.02732 0.44636 0.92888 0.0
H2000 H 0.05111 0.44016 0.97049 0.0
C2001 C 0.09838 0.47462 0.93671 0.0
C2002 C 0.78731 0.83187 0.15751 0.0
C2003 C 0.79848 0.80653 0.15452 0.0
H2004 H 0.78177 0.86543 0.1831 0.0
C2005 C 0.81347 0.79598 0.17564 0.0
H2006 H 0.77555 0.84056 0.1418 0.0
C2007 C 0.81665 0.81005 0.19929 0.0
C2008 C 0.8051 0.83505 0.20239 0.0
H2009 H 0.82229 0.77649 0.17419 0.0
H2010 H 0.82785 0.80119 0.21534 0.0
C2011 C 0.79064 0.84599 0.18122 0.0
C2012 C 0.45395 0.56186 0.44947 0.0
C2013 C 0.42798 0.55199 0.45047 0.0
H2014 H 0.48921 0.56696 0.42654 0.0
C2015 C 0.4172 0.54005 0.42771 0.0
H2016 H 0.46279 0.57098 0.46679 0.0
C2017 C 0.43236 0.5375 0.40453 0.0
C2018 C 0.4586 0.54701 0.40361 0.0
H2019 H 0.39705 0.53255 0.42792 0.0
H2020 H 0.42369 0.52767 0.38754 0.0
C2021 C 0.46904 0.55954 0.42633 0.0
C2022 C 0.69752 0.20665 0.70142 0.0
C2023 C 0.71011 0.18221 0.70515 0.0
H2024 H 0.69099 0.23962 0.67565 0.0
C2025 C 0.7254 0.17162 0.68443 0.0
H2026 H 0.68563 0.2152 0.7171 0.0
C2027 C 0.72854 0.18552 0.66057 0.0
C2028 C 0.71638 0.21033 0.65694 0.0
H2029 H 0.73506 0.15261 0.68678 0.0
H2030 H 0.74095 0.1771 0.64524 0.0
C2031 C 0.70057 0.22053 0.6776 0.0
C2032 C 0.5823 0.09415 0.54234 0.0
C2033 C 0.5601 0.08276 0.55482 0.0
H2034 H 0.6226 0.089 0.52958 0.0
C2035 C 0.56222 0.05715 0.56523 0.0
H2036 H 0.5812 0.11406 0.53442 0.0
C2037 C 0.58595 0.04299 0.56293 0.0
C2038 C 0.60812 0.05402 0.54989 0.0
H2039 H 0.54536 0.04785 0.57476 0.0
H2040 H 0.58662 0.02304 0.57079 0.0
C2041 C 0.60606 0.07991 0.53983 0.0
C2042 C 0.05911 0.45657 0.44747 0.0
C2043 C 0.05798 0.43078 0.45762 0.0
H2044 H 0.0825 0.49135 0.44148 0.0
C2045 C 0.08098 0.41974 0.46889 0.0
H2046 H 0.04166 0.46564 0.43888 0.0
C2047 C 0.10451 0.43451 0.47066 0.0
C2048 C 0.10554 0.4606 0.46099 0.0
H2049 H 0.08071 0.39966 0.47646 0.0
H2050 H 0.12168 0.42566 0.48003 0.0
C2051 C 0.08261 0.47127 0.44903 0.0
C2052 C 0.79337 0.83403 0.70232 0.0
C2053 C 0.80531 0.85535 0.71588 0.0
H2054 H 0.79701 0.79387 0.68883 0.0
C2055 C 0.83139 0.85224 0.72534 0.0
H2056 H 0.77328 0.83558 0.69483 0.0
C2057 C 0.8449 0.82824 0.72182 0.0
C2058 C 0.83263 0.80687 0.70884 0.0
H2059 H 0.84118 0.86813 0.73595 0.0
H2060 H 0.86492 0.82629 0.72941 0.0
C2061 C 0.80688 0.81007 0.69888 0.0
C2062 C 0.40707 0.58047 0.97731 0.0
C2063 C 0.40468 0.5544 0.96784 0.0
H2064 H 0.43214 0.61473 0.98121 0.0
C2065 C 0.4263 0.54322 0.95408 0.0
H2066 H 0.39094 0.58969 0.98805 0.0
C2067 C 0.4499 0.55738 0.9506 0.0
C2068 C 0.45243 0.58313 0.96055 0.0
H2069 H 0.42533 0.52316 0.94658 0.0
H2070 H 0.46639 0.54799 0.94058 0.0
C2071 C 0.43071 0.59471 0.97363 0.0
C2072 C 0.20284 0.69819 0.69606 0.0
C2073 C 0.17755 0.70101 0.7072 0.0
H2074 H 0.23669 0.67334 0.69064 0.0
C2075 C 0.1664 0.67955 0.72104 0.0
H2076 H 0.21188 0.71447 0.68536 0.0
C2077 C 0.18058 0.65587 0.72421 0.0
C2078 C 0.2062 0.65316 0.7135 0.0
H2079 H 0.14674 0.68119 0.72956 0.0
H2080 H 0.1717 0.63994 0.73552 0.0
C2081 C 0.21697 0.67455 0.69908 0.0
C2082 C 0.933 0.91874 0.04282 0.0
C2083 C 0.95495 0.93084 0.05509 0.0
H2084 H 0.89282 0.92293 0.02928 0.0
C2085 C 0.95239 0.95683 0.06445 0.0
H2086 H 0.93442 0.89857 0.03567 0.0
C2087 C 0.92854 0.97066 0.06116 0.0
C2088 C 0.90667 0.95891 0.04823 0.0
H2089 H 0.96904 0.96668 0.07379 0.0
H2090 H 0.92755 0.99091 0.06815 0.0
C2091 C 0.90913 0.93262 0.03937 0.0
C2092 C 0.83183 0.16388 0.79013 0.0
C2093 C 0.80595 0.16092 0.80012 0.0
H2094 H 0.86545 0.18967 0.7853 0.0
C2095 C 0.79444 0.18238 0.8138 0.0
H2096 H 0.8413 0.1479 0.77943 0.0
C2097 C 0.8081 0.20634 0.81672 0.0
C2098 C 0.83366 0.20941 0.80625 0.0
H2099 H 0.77449 0.18097 0.82166 0.0
H2100 H 0.79844 0.22267 0.82671 0.0
C2101 C 0.84556 0.18787 0.79325 0.0
C2102 C 0.66959 0.83264 0.28812 0.0
C2103 C 0.68031 0.81161 0.3029 0.0
H2104 H 0.67531 0.87189 0.27279 0.0
C2105 C 0.70523 0.81483 0.31479 0.0
H2106 H 0.65023 0.83068 0.27899 0.0
C2107 C 0.71942 0.83844 0.31163 0.0
C2108 C 0.70909 0.85941 0.29632 0.0
H2109 H 0.71393 0.79889 0.32624 0.0
H2110 H 0.73885 0.83997 0.32071 0.0
C2111 C 0.68384 0.8563 0.28482 0.0
C2112 C 0.01085 0.24268 0.43834 0.0
C2113 C 0.01223 0.22826 0.46213 0.0
H2114 H 1.00587 0.28006 0.41959 0.0
C2115 C 0.00947 0.24205 0.48624 0.0
H2116 H 0.01307 0.23296 0.41934 0.0
C2117 C 1.00515 0.26959 0.48639 0.0
C2118 C 1.00383 0.28387 0.46245 0.0
H2119 H 0.01058 0.23159 0.50495 0.0
H2120 H 1.00274 0.27963 0.50519 0.0
C2121 C 1.00688 0.26996 0.4385 0.0
C2122 C 0.01794 0.75639 0.68554 0.0
C2123 C 0.03252 0.75754 0.70926 0.0
H2124 H 0.98051 0.75214 0.6668 0.0
C2125 C 0.01873 0.75505 0.73343 0.0
H2126 H 0.02756 0.75854 0.66646 0.0
C2127 C 0.991 0.75104 0.73363 0.0
C2128 C 0.97662 0.75005 0.70968 0.0
H2129 H 0.02934 0.75604 0.75208 0.0
H2130 H 0.98089 0.74874 0.75242 0.0
C2131 C 0.9906 0.75295 0.68575 0.0
C2132 C 0.50338 0.76869 0.98467 0.0
C2133 C 0.50099 0.78282 0.96071 0.0
H2134 H 0.50969 0.73083 1.0032 0.0
C2135 C 0.50257 0.76872 0.93675 0.0
H2136 H 0.50209 0.77889 1.00349 0.0
C2137 C 0.50637 0.74142 0.93659 0.0
C2138 C 0.50906 0.72718 0.96038 0.0
H2139 H 0.5006 0.77871 0.91785 0.0
H2140 H 0.50755 0.73157 0.91756 0.0
C2141 C 0.50756 0.74114 0.9845 0.0
C2142 C 0.52009 0.2568 0.23601 0.0
C2143 C 0.53447 0.25681 0.21204 0.0
H2144 H 0.48183 0.25204 0.25468 0.0
C2145 C 0.5206 0.25191 0.18835 0.0
H2146 H 0.53009 0.26061 0.25462 0.0
C2147 C 0.49337 0.24767 0.18834 0.0
C2148 C 0.47876 0.24775 0.21205 0.0
H2149 H 0.53066 0.25177 0.16939 0.0
H2150 H 0.48381 0.24407 0.16944 0.0
C2151 C 0.49246 0.25204 0.23604 0.0
C2152 C 0.01005 0.74638 0.03177 0.0
C2153 C 0.0097 0.73225 0.05585 0.0
H2154 H 0.01435 0.7843 0.01275 0.0
C2155 C 0.01348 0.7464 0.07957 0.0
H2156 H 1.00708 0.73619 0.01313 0.0
C2157 C 0.01714 0.77375 0.07938 0.0
C2158 C 0.01748 0.78802 0.05546 0.0
H2159 H 0.01326 0.73642 0.09857 0.0
H2160 H 0.01992 0.78367 0.09821 0.0
C2161 C 0.01406 0.77398 0.03157 0.0
C2162 C 0.51993 0.74427 0.32224 0.0
C2163 C 0.53522 0.75028 0.29978 0.0
H2164 H 0.48187 0.74263 0.34009 0.0
C2165 C 0.52212 0.75843 0.27652 0.0
H2166 H 0.52919 0.73726 0.34032 0.0
C2167 C 0.49432 0.76187 0.27642 0.0
C2168 C 0.47925 0.75664 0.29941 0.0
H2169 H 0.53338 0.7629 0.2588 0.0
H2170 H 0.48477 0.76924 0.25866 0.0
C2171 C 0.49252 0.74715 0.32201 0.0
C2172 C 0.50872 0.26873 0.52601 0.0
C2173 C 0.51267 0.28297 0.54968 0.0
H2174 H 0.501 0.23079 0.50818 0.0
C2175 C 0.51291 0.26892 0.57375 0.0
H2176 H 0.50859 0.27889 0.50711 0.0
C2177 C 0.50906 0.24163 0.57434 0.0
C2178 C 0.50454 0.22731 0.5509 0.0
H2179 H 0.5162 0.27898 0.59243 0.0
H2180 H 0.50923 0.23186 0.59345 0.0
C2181 C 0.50452 0.24116 0.52663 0.0
C2182 C 0.99242 0.26515 0.77862 0.0
C2183 C 0.97777 0.26359 0.80239 0.0
H2184 H 0.03098 0.26218 0.76019 0.0
C2185 C 0.99141 0.25735 0.82589 0.0
H2186 H 0.98259 0.26998 0.76016 0.0
C2187 C 0.01871 0.25362 0.82599 0.0
C2188 C 0.0336 0.2555 0.80253 0.0
H2189 H 0.98113 0.25585 0.84468 0.0
H2190 H 0.02811 0.249 0.84474 0.0
C2191 C 0.02012 0.26085 0.77865 0.0
C2192 C 0.48856 0.01077 0.24289 0.0
C2193 C 0.46678 1.00125 0.22808 0.0
H2194 H 0.50556 0.01603 0.28186 0.0
C2195 C 0.44649 0.98762 0.24146 0.0
H2196 H 0.50452 0.02138 0.2332 0.0
C2197 C 0.44683 0.9852 0.26887 0.0
C2198 C 0.46766 0.9959 0.28393 0.0
H2199 H 0.42958 0.97962 0.23086 0.0
H2200 H 0.43036 0.97518 0.2784 0.0
C2201 C 0.4891 0.00789 0.2707 0.0
C2202 C 0.25824 0.1887 0.52338 0.0
C2203 C 0.26117 0.2125 0.5375 0.0
H2204 H 0.25229 0.16984 0.48622 0.0
C2205 C 0.25982 0.23656 0.52339 0.0
H2206 H 0.25925 0.16972 0.53334 0.0
C2207 C 0.25562 0.23665 0.49579 0.0
C2208 C 0.25303 0.21266 0.4818 0.0
H2209 H 0.26212 0.25528 0.53361 0.0
H2210 H 0.25449 0.25541 0.48545 0.0
C2211 C 0.25441 0.18877 0.49607 0.0
C2212 C 0.02793 1.00408 0.74333 0.0
C2213 C 0.05187 1.00431 0.72888 0.0
H2214 H 0.00944 0.00807 0.78171 0.0
C2215 C 0.07571 0.0087 0.74269 0.0
H2216 H 0.00921 1.00064 0.73334 0.0
C2217 C 0.07588 0.01221 0.76996 0.0
C2218 C 0.05219 0.01194 0.78464 0.0
H2219 H 0.09465 0.00896 0.73257 0.0
H2220 H 0.09489 0.01547 0.77946 0.0
C2221 C 0.02806 0.00816 0.77101 0.0
C2222 C 0.2594 0.77572 0.99003 0.0
C2223 C 0.25734 0.79921 0.97504 0.0
H2224 H 0.25757 0.7579 0.02885 0.0
C2225 C 0.25057 0.82275 0.98818 0.0
H2226 H 0.26462 0.75722 0.98055 0.0
C2227 C 0.24696 0.82316 0.01548 0.0
C2228 C 0.24975 0.80002 0.03073 0.0
H2229 H 0.24859 0.84125 0.9775 0.0
H2230 H 0.24207 0.84194 0.02463 0.0
C2231 C 0.25548 0.77609 0.01768 0.0
C2232 C 0.24399 0.43619 0.01398 0.0
C2233 C 0.22989 0.46012 0.01575 0.0
H2234 H 0.28102 0.41695 0.00888 0.0
C2235 C 0.24407 0.48408 0.01345 0.0
H2236 H 0.23404 0.41727 0.01588 0.0
C2237 C 0.27173 0.48389 0.0091 0.0
C2238 C 0.28565 0.45975 0.00755 0.0
H2239 H 0.23384 0.50287 0.01487 0.0
H2240 H 0.28215 0.50254 0.00701 0.0
C2241 C 0.27129 0.43602 0.01018 0.0
C2242 C 0.74061 0.07287 0.01208 0.0
C2243 C 0.72719 0.04943 1.00519 0.0
H2244 H 0.77726 0.09203 0.02015 0.0
C2245 C 0.74221 0.02604 1.00232 0.0
H2246 H 0.73005 0.09137 0.01463 0.0
C2247 C 0.77004 0.02642 1.00584 0.0
C2248 C 0.78326 0.05031 0.01168 0.0
H2249 H 0.73258 0.00763 0.99695 0.0
H2250 H 0.7812 0.00827 1.00343 0.0
C2251 C 0.76802 0.07334 0.01503 0.0
C2252 C 0.24373 0.49434 0.24224 0.0
C2253 C 0.22985 0.47837 0.26047 0.0
H2254 H 0.25175 0.53416 0.22898 0.0
C2255 C 0.21728 0.49049 0.28211 0.0
H2256 H 0.25324 0.48553 0.22514 0.0
C2257 C 0.21665 0.518 0.28433 0.0
C2258 C 0.2285 0.53403 0.26497 0.0
H2259 H 0.20635 0.47873 0.29639 0.0
H2260 H 0.20523 0.52681 0.30024 0.0
C2261 C 0.24286 0.52211 0.24436 0.0
C2262 C 0.74223 0.93734 0.50757 0.0
C2263 C 0.72828 0.96096 0.51225 0.0
H2264 H 0.77913 0.91858 0.50026 0.0
C2265 C 0.74261 0.98498 0.51238 0.0
H2266 H 0.7322 0.91836 0.50731 0.0
C2267 C 0.77028 0.98512 0.50799 0.0
C2268 C 0.78407 0.9612 0.50395 0.0
H2269 H 0.73252 1.00354 0.51602 0.0
H2270 H 0.78087 1.00379 0.50807 0.0
C2271 C 0.76951 0.93744 0.50372 0.0
C2272 C 0.82693 0.99433 0.25992 0.0
C2273 C 0.80319 0.97971 0.25998 0.0
H2274 H 0.84576 0.03174 0.2569 0.0
C2275 C 0.77903 0.99344 0.25698 0.0
H2276 H 0.84598 0.98475 0.26256 0.0
C2277 C 0.77891 0.02117 0.25339 0.0
C2278 C 0.8029 0.03558 0.25337 0.0
H2279 H 0.76037 0.9828 0.25717 0.0
H2280 H 0.76016 0.03125 0.25057 0.0
C2281 C 0.82678 0.02165 0.25691 0.0
C2282 C 0.24083 0.57701 0.4999 0.0
C2283 C 0.22603 0.55373 0.49584 0.0
H2284 H 0.27834 0.59466 0.50768 0.0
C2285 C 0.23945 0.52927 0.49687 0.0
H2286 H 0.23148 0.5963 0.49913 0.0
C2287 C 0.26697 0.5283 0.50206 0.0
C2288 C 0.28161 0.55179 0.50592 0.0
H2289 H 0.22873 0.51094 0.49373 0.0
H2290 H 0.27673 0.50923 0.50299 0.0
C2291 C 0.26803 0.57607 0.50468 0.0
C2292 C 0.27784 0.49286 0.75986 0.0
C2293 C 0.30194 0.47874 0.75931 0.0
H2294 H 0.25873 0.53077 0.75553 0.0
C2295 C 0.32548 0.49274 0.75394 0.0
H2296 H 0.25936 0.48274 0.76406 0.0
C2297 C 0.3252 0.51992 0.7497 0.0
C2298 C 0.30131 0.53422 0.75026 0.0
H2299 H 0.34452 0.48282 0.75339 0.0
H2300 H 0.34394 0.52966 0.7457 0.0
C2301 C 0.27751 0.52037 0.75515 0.0
C2302 C 0.99388 0.50383 0.74483 0.0
C2303 C 0.97357 0.5178 0.73182 0.0
H2304 H 0.00836 0.48902 0.7822 0.0
C2305 C 0.95425 0.53072 0.74709 0.0
H2306 H 0.00906 0.49377 0.73348 0.0
C2307 C 0.95402 0.52843 0.77456 0.0
C2308 C 0.97294 0.51281 0.78774 0.0
H2309 H 0.93862 0.54204 0.73762 0.0
H2310 H 0.93812 0.53798 0.78536 0.0
C2311 C 0.99349 0.50123 0.77268 0.0
C2312 C 0.75716 0.68679 0.99368 0.0
C2313 C 0.75406 0.71071 0.97973 0.0
H2314 H 0.76424 0.66769 0.03065 0.0
C2315 C 0.75618 0.73465 0.99389 0.0
H2316 H 0.75557 0.66788 0.98368 0.0
C2317 C 0.76134 0.73453 0.02132 0.0
C2318 C 0.76422 0.71047 0.03516 0.0
H2319 H 0.75379 0.75345 0.98383 0.0
H2320 H 0.76303 0.75325 0.03164 0.0
C2321 C 0.76201 0.68667 0.02088 0.0
C2322 C 0.53027 0.50523 0.24312 0.0
C2323 C 0.55443 0.50489 0.22903 0.0
H2324 H 0.51131 0.50923 0.28125 0.0
C2325 C 0.57819 0.50806 0.24329 0.0
H2326 H 0.5116 0.5027 0.23279 0.0
C2327 C 0.57805 0.51104 0.27063 0.0
C2328 C 0.55413 0.51144 0.28493 0.0
H2329 H 0.59728 0.50777 0.23343 0.0
H2330 H 0.59702 0.51339 0.28049 0.0
C2331 C 0.5301 0.50879 0.27086 0.0
C2332 C 0.75847 0.32534 0.49385 0.0
C2333 C 0.76041 0.30136 0.47985 0.0
H2334 H 0.7531 0.34461 0.53091 0.0
C2335 C 0.75814 0.27746 0.4941 0.0
H2336 H 0.76026 0.3442 0.48378 0.0
C2337 C 0.75384 0.27769 0.52167 0.0
C2338 C 0.75205 0.30183 0.53554 0.0
H2339 H 0.75968 0.25861 0.48399 0.0
H2340 H 0.75188 0.25904 0.53208 0.0
C2341 C 0.75451 0.32557 0.52115 0.0
C2342 C 0.70502 0.99861 0.73479 0.0
C2343 C 0.72371 0.98301 0.74825 0.0
H2344 H 0.68915 0.03706 0.72798 0.0
C2345 C 0.74333 0.99556 0.76357 0.0
H2346 H 0.68994 0.98946 0.72249 0.0
C2347 C 0.74277 0.02327 0.76698 0.0
C2348 C 0.72272 0.03861 0.75492 0.0
H2349 H 0.75798 0.98391 0.77409 0.0
H2350 H 0.75697 0.03241 0.78026 0.0
C2351 C 0.70462 0.02596 0.73792 0.0
C2352 C 0.96524 0.12832 0.28221 0.0
C2353 C 0.93886 0.12355 0.28976 0.0
H2354 H 1.00422 0.13959 0.29446 0.0
C2355 C 0.93154 0.127 0.31638 0.0
H2356 H 0.97138 0.12614 0.26176 0.0
C2357 C 0.95039 0.13472 0.33515 0.0
C2358 C 0.97673 0.13967 0.32749 0.0
H2359 H 0.91122 0.12445 0.32273 0.0
H2360 H 0.94435 0.13616 0.35565 0.0
C2361 C 0.98396 0.13626 0.30087 0.0
C2362 C 0.12651 0.73371 0.54611 0.0
C2363 C 0.12155 0.72527 0.57214 0.0
H2364 H 0.13847 0.72286 0.50701 0.0
C2365 C 0.1254 0.69853 0.57873 0.0
H2366 H 0.12404 0.75429 0.54056 0.0
C2367 C 0.1337 0.68051 0.55949 0.0
C2368 C 0.13884 0.68906 0.5335 0.0
H2369 H 0.12272 0.69153 0.59879 0.0
H2370 H 0.13544 0.65989 0.56495 0.0
C2371 C 0.13503 0.7158 0.527 0.0
C2372 C 0.53994 0.90595 0.82056 0.0
C2373 C 0.54541 0.88252 0.83463 0.0
H2374 H 0.55451 0.93543 0.79373 0.0
C2375 C 0.57113 0.87201 0.83397 0.0
H2376 H 0.52034 0.91472 0.8209 0.0
C2377 C 0.59081 0.88434 0.81888 0.0
C2378 C 0.58504 0.90728 0.8042 0.0
H2379 H 0.57577 0.85369 0.84407 0.0
H2380 H 0.60996 0.8749 0.81736 0.0
C2381 C 0.55954 0.91811 0.80538 0.0
C2382 C 0.37805 0.33025 0.06703 0.0
C2383 C 0.37451 0.32344 0.04029 0.0
H2384 H 0.38755 0.3168 0.10598 0.0
C2385 C 0.37943 0.29733 0.03218 0.0
H2386 H 0.37539 0.35038 0.07379 0.0
C2387 C 0.38759 0.27835 0.05043 0.0
C2388 C 0.39112 0.28509 0.07717 0.0
H2389 H 0.37718 0.29161 0.01161 0.0
H2390 H 0.39101 0.25829 0.04364 0.0
C2391 C 0.38603 0.31116 0.08538 0.0
C2392 C 0.93393 0.88993 0.19803 0.0
C2393 C 0.94061 0.89319 0.22485 0.0
H2394 H 0.94766 0.88111 0.15903 0.0
C2395 C 0.96685 0.88862 0.23299 0.0
H2396 H 0.91373 0.89236 0.19122 0.0
C2397 C 0.98605 0.881 0.21473 0.0
C2398 C 0.97942 0.87766 0.18793 0.0
H2399 H 0.97249 0.89069 0.25361 0.0
H2400 H 1.00617 0.87778 0.22159 0.0
C2401 C 0.95324 0.88249 0.17967 0.0
C2402 C 0.37697 0.71117 0.48053 0.0
C2403 C 0.37305 0.68468 0.47311 0.0
H2404 H 0.38823 0.75009 0.46839 0.0
C2405 C 0.37822 0.67708 0.44685 0.0
H2406 H 0.37348 0.71755 0.50073 0.0
C2407 C 0.38662 0.69578 0.42826 0.0
C2408 C 0.39061 0.72226 0.43578 0.0
H2409 H 0.37643 0.65668 0.44065 0.0
H2410 H 0.38926 0.68948 0.40798 0.0
C2411 C 0.38564 0.72974 0.46209 0.0
C2412 C 0.56669 0.13234 0.67779 0.0
C2413 C 0.54055 0.13749 0.686 0.0
H2414 H 0.6058 0.12091 0.68925 0.0
C2415 C 0.53359 0.13286 0.71252 0.0
H2416 H 0.57257 0.13461 0.65734 0.0
C2417 C 0.55231 0.12357 0.73051 0.0
C2418 C 0.57855 0.11882 0.72251 0.0
H2419 H 0.51352 0.13629 0.71941 0.0
H2420 H 0.54629 0.1205 0.7509 0.0
C2421 C 0.58561 0.12341 0.69597 0.0
C2422 C 0.12656 0.31704 0.93283 0.0
C2423 C 0.12201 0.29046 0.93967 0.0
H2424 H 0.13723 0.35566 0.94631 0.0
C2425 C 0.12627 0.28229 0.96592 0.0
H2426 H 0.12441 0.32381 0.91262 0.0
C2427 C 0.13482 0.30028 0.98497 0.0
C2428 C 0.13939 0.32685 0.9782 0.0
H2429 H 0.12323 0.26184 0.97169 0.0
H2430 H 0.13774 0.29341 1.0051 0.0
C2431 C 0.13491 0.33514 0.952 0.0
C2432 C 0.28995 0.94533 0.11732 0.0
C2433 C 0.30223 0.92357 0.10536 0.0
H2434 H 0.29421 0.97849 0.14316 0.0
C2435 C 0.32858 0.9175 0.11176 0.0
H2436 H 0.2696 0.95037 0.11257 0.0
C2437 C 0.34295 0.93383 0.12895 0.0
C2438 C 0.33105 0.95638 0.14025 0.0
H2439 H 0.33838 0.90075 0.10262 0.0
H2440 H 0.36369 0.92948 0.13178 0.0
C2441 C 0.30406 0.9613 0.13492 0.0
C2442 C 0.29891 0.05551 0.4067 0.0
C2443 C 0.29775 0.08117 0.39638 0.0
H2444 H 0.31656 0.01727 0.4042 0.0
C2445 C 0.31409 0.08807 0.3749 0.0
H2446 H 0.28604 0.04964 0.42288 0.0
C2447 C 0.33118 0.06944 0.3637 0.0
C2448 C 0.33221 0.04365 0.37392 0.0
H2449 H 0.31263 0.10736 0.3658 0.0
H2450 H 0.34275 0.07496 0.34651 0.0
C2451 C 0.3161 0.03697 0.39571 0.0
C2452 C 0.21428 0.03233 0.63726 0.0
C2453 C 0.1878 0.03971 0.64159 0.0
H2454 H 0.25332 0.04477 0.62651 0.0
C2455 C 0.18033 0.06622 0.63773 0.0
H2456 H 0.22055 0.01196 0.63975 0.0
C2457 C 0.19915 0.08507 0.63015 0.0
C2458 C 0.22562 0.07759 0.62574 0.0
H2459 H 0.15992 0.07242 0.63989 0.0
H2460 H 0.19298 0.10549 0.62844 0.0
C2461 C 0.23298 0.05106 0.62945 0.0
C2462 C 0.17997 0.94707 0.87504 0.0
C2463 C 0.18799 0.97339 0.87081 0.0
H2464 H 0.19183 0.90766 0.88459 0.0
C2465 C 0.21468 0.98027 0.8748 0.0
H2466 H 0.15941 0.94126 0.87315 0.0
C2467 C 0.23303 0.96125 0.88265 0.0
C2468 C 0.22513 0.9349 0.88671 0.0
H2469 H 0.22138 1.00047 0.87204 0.0
H2470 H 0.25354 0.96717 0.88535 0.0
C2471 C 0.19845 0.92792 0.88262 0.0
C2472 C 0.62647 0.19693 0.08403 0.0
C2473 C 0.62195 0.22324 0.07626 0.0
H2474 H 0.63676 0.15782 0.07189 0.0
C2475 C 0.62618 0.23051 0.04976 0.0
H2476 H 0.62442 0.19085 0.10447 0.0
C2477 C 0.63455 0.21183 0.03133 0.0
C2478 C 0.63892 0.18548 0.039 0.0
H2479 H 0.6232 0.25075 0.04328 0.0
H2480 H 0.63741 0.21798 0.01096 0.0
C2481 C 0.63458 0.17813 0.06549 0.0
C2482 C 0.09164 0.38372 0.32033 0.0
C2483 C 0.08584 0.40631 0.30514 0.0
H2484 H 0.07657 0.35336 0.34583 0.0
C2485 C 0.06016 0.41678 0.30561 0.0
H2486 H 0.11095 0.37453 0.31937 0.0
C2487 C 0.04046 0.40468 0.32072 0.0
C2488 C 0.04599 0.38163 0.33539 0.0
H2489 H 0.05511 0.43381 0.29355 0.0
H2490 H 0.02074 0.41321 0.32057 0.0
C2491 C 0.07185 0.37141 0.3353 0.0
C2492 C 0.87554 0.83184 0.56488 0.0
C2493 C 0.87171 0.82489 0.53821 0.0
H2494 H 0.88518 0.81852 0.60384 0.0
C2495 C 0.87622 0.79867 0.53024 0.0
H2496 H 0.87321 0.85204 0.57152 0.0
C2497 C 0.88429 0.77971 0.54854 0.0
C2498 C 0.88814 0.78659 0.5752 0.0
H2499 H 0.87374 0.79285 0.50972 0.0
H2500 H 0.88742 0.75958 0.54185 0.0
C2501 C 0.88342 0.81277 0.58329 0.0
C2502 C 0.0701 0.60203 0.21731 0.0
C2503 C 0.09332 0.59463 0.20407 0.0
H2504 H 0.03474 0.62509 0.2166 0.0
C2505 C 0.09909 0.60583 0.17935 0.0
H2506 H 0.06534 0.59363 0.23649 0.0
C2507 C 0.0813 0.62353 0.16752 0.0
C2508 C 0.05753 0.63067 0.18042 0.0
H2509 H 0.11698 0.60028 0.16885 0.0
H2510 H 0.08594 0.63028 0.14784 0.0
C2511 C 0.05269 0.6202 0.20587 0.0
C2512 C 0.46856 0.35607 0.70689 0.0
C2513 C 0.46917 0.36732 0.6816 0.0
H2514 H 0.45143 0.35695 0.74546 0.0
C2515 C 0.45257 0.38883 0.67567 0.0
H2516 H 0.48169 0.33986 0.71196 0.0
C2517 C 0.43573 0.3992 0.69499 0.0
C2518 C 0.4351 0.38799 0.72041 0.0
H2519 H 0.45364 0.39854 0.6566 0.0
H2520 H 0.42402 0.41651 0.69026 0.0
C2521 C 0.45153 0.36617 0.72608 0.0
C2522 C 0.44647 0.63462 0.83257 0.0
C2523 C 0.47319 0.63819 0.82545 0.0
H2524 H 0.40715 0.62575 0.81944 0.0
C2525 C 0.4808 0.63391 0.79905 0.0
H2526 H 0.44003 0.63681 0.85287 0.0
C2527 C 0.46217 0.62634 0.78014 0.0
C2528 C 0.43544 0.62282 0.78714 0.0
H2529 H 0.5013 0.63623 0.79299 0.0
H2530 H 0.46872 0.62335 0.75992 0.0
C2531 C 0.4277 0.62729 0.81351 0.0
C2532 C 0.87623 0.21464 0.98197 0.0
C2533 C 0.87097 0.18866 0.97359 0.0
H2534 H 0.88903 0.25347 0.97122 0.0
C2535 C 0.87473 0.18208 0.94681 0.0
H2536 H 0.87378 0.22026 1.00254 0.0
C2537 C 0.88343 0.20121 0.92878 0.0
C2538 C 0.88911 0.22708 0.93735 0.0
H2539 H 0.87177 0.16208 0.9398 0.0
H2540 H 0.88515 0.19573 0.90816 0.0
C2541 C 0.88521 0.2336 0.96409 0.0
C2542 C 0.63393 0.83437 0.45026 0.0
C2543 C 0.63934 0.82604 0.47628 0.0
H2544 H 0.62279 0.82296 0.41108 0.0
C2545 C 0.63552 0.79937 0.48303 0.0
H2546 H 0.63561 0.85495 0.44462 0.0
C2547 C 0.62691 0.78127 0.46411 0.0
C2548 C 0.62191 0.78942 0.43799 0.0
H2549 H 0.63914 0.79245 0.50304 0.0
H2550 H 0.62455 0.76072 0.46985 0.0
C2551 C 0.62556 0.81615 0.4312 0.0
C2552 C 0.80947 0.45916 0.66755 0.0
C2553 C 0.83493 0.46027 0.65656 0.0
H2554 H 0.77023 0.44363 0.66449 0.0
C2555 C 0.84053 0.44553 0.63362 0.0
H2556 H 0.80457 0.47085 0.68487 0.0
C2557 C 0.82075 0.43041 0.62149 0.0
C2558 C 0.79509 0.42978 0.63218 0.0
H2559 H 0.85964 0.44702 0.62405 0.0
H2560 H 0.82527 0.4202 0.6032 0.0
C2561 C 0.78978 0.44395 0.65558 0.0
C2562 C 0.83515 0.57066 0.87414 0.0
C2563 C 0.82914 0.54373 0.87072 0.0
H2564 H 0.8207 0.609 0.88425 0.0
C2565 C 0.8033 0.53476 0.87601 0.0
H2566 H 0.85503 0.57811 0.87113 0.0
C2567 C 0.78392 0.55227 0.88481 0.0
C2568 C 0.78994 0.57914 0.88854 0.0
H2569 H 0.79817 0.51404 0.87381 0.0
H2570 H 0.76416 0.54474 0.88873 0.0
C2571 C 0.81563 0.58827 0.8827 0.0
C2572 C 0.68418 0.5664 0.13753 0.0
C2573 C 0.69114 0.5397 0.14099 0.0
H2574 H 0.69747 0.60546 0.12826 0.0
C2575 C 0.71741 0.53183 0.13622 0.0
H2576 H 0.66394 0.573 0.1401 0.0
C2577 C 0.73636 0.55023 0.12823 0.0
C2578 C 0.72947 0.57692 0.12474 0.0
H2579 H 0.72327 0.51131 0.13842 0.0
H2580 H 0.75652 0.54357 0.12488 0.0
C2581 C 0.70325 0.58491 0.12975 0.0
C2582 C 0.7341 0.46205 0.38635 0.0
C2583 C 0.72648 0.43558 0.39012 0.0
H2584 H 0.72208 0.50116 0.3757 0.0
C2585 C 0.70002 0.42821 0.38534 0.0
H2586 H 0.75445 0.46824 0.38955 0.0
C2587 C 0.68145 0.4471 0.3774 0.0
C2588 C 0.68916 0.47356 0.37354 0.0
H2589 H 0.69368 0.40783 0.38707 0.0
H2590 H 0.66102 0.441 0.37499 0.0
C2591 C 0.71564 0.48083 0.37818 0.0
C2592 C 0.12114 0.18128 0.44531 0.0
C2593 C 0.1089 0.15932 0.43335 0.0
H2594 H 0.15444 0.20784 0.44534 0.0
C2595 C 0.12144 0.14705 0.41175 0.0
H2596 H 0.11157 0.19151 0.46158 0.0
C2597 C 0.146 0.15623 0.40262 0.0
C2598 C 0.158 0.17852 0.41422 0.0
H2599 H 0.11217 0.13039 0.40187 0.0
H2600 H 0.1556 0.14598 0.38639 0.0
C2601 C 0.14531 0.19101 0.43562 0.0
C2602 C 0.10423 0.90233 0.68196 0.0
C2603 C 0.08433 0.90636 0.66269 0.0
H2604 H 0.12651 0.87419 0.70493 0.0
C2605 C 0.072 0.88435 0.65119 0.0
H2606 H 0.11386 0.91905 0.69139 0.0
C2607 C 0.07983 0.85877 0.65843 0.0
C2608 C 0.09949 0.85474 0.67793 0.0
H2609 H 0.05659 0.8869 0.63643 0.0
H2610 H 0.07006 0.84207 0.64912 0.0
C2611 C 0.11143 0.87675 0.68984 0.0
C2612 C 0.36864 0.85109 0.89589 0.0
C2613 C 0.35648 0.82914 0.90797 0.0
H2614 H 0.40234 0.87709 0.89504 0.0
C2615 C 0.36891 0.81717 0.92982 0.0
H2616 H 0.3592 0.86097 0.87931 0.0
C2617 C 0.39292 0.82721 0.93962 0.0
C2618 C 0.40523 0.84896 0.92732 0.0
H2619 H 0.35962 0.80064 0.93989 0.0
H2620 H 0.40223 0.81749 0.95636 0.0
C2621 C 0.39304 0.86058 0.90514 0.0
C2622 C 0.43537 0.12115 0.15227 0.0
C2623 C 0.42377 0.09924 0.16471 0.0
H2624 H 0.43726 0.16336 0.14956 0.0
C2625 C 0.4048 0.10348 0.18482 0.0
H2626 H 0.45006 0.11847 0.13685 0.0
C2627 C 0.398 0.12919 0.19272 0.0
C2628 C 0.40937 0.15109 0.18001 0.0
H2629 H 0.39575 0.08686 0.19497 0.0
H2630 H 0.38375 0.13194 0.20854 0.0
C2631 C 0.42793 0.14679 0.15955 0.0
C2632 C 0.12464 0.83707 0.07095 0.0
C2633 C 0.11279 0.85935 0.08261 0.0
H2634 H 0.15762 0.81028 0.07095 0.0
C2635 C 0.12595 0.87216 0.10359 0.0
H2636 H 0.11465 0.82644 0.05518 0.0
C2637 C 0.15073 0.86312 0.1124 0.0
C2638 C 0.16222 0.8404 0.10118 0.0
H2639 H 0.11699 0.8891 0.11322 0.0
H2640 H 0.1608 0.87369 0.12815 0.0
C2641 C 0.14892 0.82747 0.08038 0.0
C2642 C 0.40924 0.90354 0.33291 0.0
C2643 C 0.42937 0.90711 0.35203 0.0
H2644 H 0.387 0.87605 0.30914 0.0
C2645 C 0.44211 0.88483 0.36253 0.0
H2646 H 0.39932 0.92046 0.32416 0.0
C2647 C 0.4345 0.85945 0.35438 0.0
C2648 C 0.41468 0.85594 0.33494 0.0
H2649 H 0.45776 0.88704 0.37709 0.0
H2650 H 0.44459 0.84251 0.36288 0.0
C2651 C 0.40225 0.87822 0.32413 0.0
C2652 C 0.39402 0.18314 0.57147 0.0
C2653 C 0.40637 0.16129 0.5835 0.0
H2654 H 0.36102 0.21001 0.57198 0.0
C2655 C 0.3945 0.1497 0.60587 0.0
H2656 H 0.40312 0.19286 0.55463 0.0
C2657 C 0.37044 0.15938 0.61567 0.0
C2658 C 0.35828 0.1815 0.60395 0.0
H2659 H 0.40389 0.13315 0.61581 0.0
H2660 H 0.3613 0.14958 0.63246 0.0
C2661 C 0.37033 0.19336 0.5818 0.0
C2662 C 0.11265 0.13747 0.82353 0.0
C2663 C 0.10071 0.15958 0.8352 0.0
H2664 H 0.1151 0.09517 0.82242 0.0
C2665 C 0.0811 0.15568 0.85477 0.0
H2666 H 0.12769 0.13991 0.8084 0.0
C2667 C 0.0733 0.13016 0.86229 0.0
C2668 C 0.08563 0.10806 0.85103 0.0
H2669 H 0.07133 0.17246 0.8639 0.0
H2670 H 0.05792 0.12772 0.87708 0.0
C2671 C 0.10548 0.11195 0.8317 0.0
C2672 C 0.18798 0.40105 0.1424 0.0
C2673 C 0.17886 0.41531 0.16435 0.0
H2674 H 0.18679 0.39628 0.10033 0.0
C2675 C 0.16086 0.4363 0.16032 0.0
H2676 H 0.20183 0.38484 0.14493 0.0
C2677 C 0.15273 0.44337 0.13473 0.0
C2678 C 0.16176 0.42899 0.11279 0.0
H2679 H 0.15365 0.4478 0.17693 0.0
H2680 H 0.13944 0.46 0.13211 0.0
C2681 C 0.1792 0.40755 0.11693 0.0
C2682 C 0.65288 0.0698 0.88415 0.0
C2683 C 0.66254 0.08272 0.90672 0.0
H2684 H 0.65321 0.06766 0.84177 0.0
C2685 C 0.68098 0.10355 0.90356 0.0
H2686 H 0.63882 0.05367 0.88599 0.0
C2687 C 0.68983 0.11109 0.87838 0.0
C2688 C 0.67981 0.09851 0.85578 0.0
H2689 H 0.68906 0.11369 0.92067 0.0
H2690 H 0.70423 0.12694 0.87658 0.0
C2691 C 0.66111 0.07791 0.8589 0.0
C2692 C 0.82366 0.90203 0.37814 0.0
C2693 C 0.83579 0.91337 0.35593 0.0
H2694 H 0.82194 0.90044 0.42048 0.0
C2695 C 0.85552 0.93287 0.35967 0.0
H2696 H 0.80837 0.88712 0.37582 0.0
C2697 C 0.86278 0.94112 0.38515 0.0
C2698 C 0.85106 0.92936 0.40737 0.0
H2699 H 0.86498 0.94222 0.34281 0.0
H2700 H 0.87774 0.95636 0.38748 0.0
C2701 C 0.83155 0.90964 0.40362 0.0
C2702 C 0.82341 0.11251 0.13426 0.0
C2703 C 0.83589 0.10176 0.15658 0.0
H2704 H 0.82135 0.11344 0.09191 0.0
C2705 C 0.85605 0.08271 0.15299 0.0
H2706 H 0.80779 0.12706 0.13645 0.0
C2707 C 0.86332 0.07428 0.12759 0.0
C2708 C 0.85118 0.0854 0.10526 0.0
H2709 H 0.8658 0.07381 0.16994 0.0
H2710 H 0.87857 0.05934 0.1254 0.0
C2711 C 0.83129 0.10473 0.10885 0.0
C2712 C 0.35394 0.61056 0.64079 0.0
C2713 C 0.33142 0.59959 0.65301 0.0
H2714 H 0.37983 0.61018 0.60709 0.0
C2715 C 0.31855 0.5781 0.6408 0.0
H2716 H 0.36451 0.62683 0.64999 0.0
C2717 C 0.32809 0.56775 0.61684 0.0
C2718 C 0.3503 0.57911 0.6044 0.0
H2719 H 0.30154 0.56883 0.65012 0.0
H2720 H 0.31754 0.55149 0.6076 0.0
C2721 C 0.36297 0.60074 0.61651 0.0
C2722 C 0.1524 0.57985 0.35055 0.0
C2723 C 0.16915 0.60175 0.34584 0.0
H2724 H 0.13328 0.55513 0.37958 0.0
C2725 C 0.17784 0.61684 0.36745 0.0
H2726 H 0.14562 0.56763 0.33426 0.0
C2727 C 0.17023 0.61006 0.39322 0.0
C2728 C 0.1544 0.58752 0.39811 0.0
H2729 H 0.19082 0.6337 0.36446 0.0
H2730 H 0.17771 0.62195 0.40946 0.0
C2731 C 0.14542 0.57256 0.37647 0.0
C2732 C 0.33268 0.40878 0.90544 0.0
C2733 C 0.35229 0.42831 0.90953 0.0
H2734 H 0.30944 0.38689 0.8772 0.0
C2735 C 0.3642 0.44031 0.88755 0.0
H2736 H 0.32294 0.39941 0.92213 0.0
C2737 C 0.35699 0.43254 0.86193 0.0
C2738 C 0.3371 0.41328 0.85784 0.0
H2739 H 0.37924 0.45543 0.89017 0.0
H2740 H 0.36658 0.44205 0.84523 0.0
C2741 C 0.32483 0.40165 0.87982 0.0
C2742 C 0.6431 0.66027 0.89846 0.0
C2743 C 0.65534 0.68182 0.91116 0.0
H2744 H 0.60935 0.63438 0.89687 0.0
C2745 C 0.64294 0.69318 0.93333 0.0
H2746 H 0.65251 0.65085 0.88164 0.0
C2747 C 0.61891 0.68292 0.94283 0.0
C2748 C 0.60654 0.66154 0.92994 0.0
H2749 H 0.65231 0.70937 0.94388 0.0
H2750 H 0.60964 0.69217 0.95983 0.0
C2751 C 0.61869 0.65057 0.90744 0.0
C2752 C 0.60647 0.40359 0.18256 0.0
C2753 C 0.58662 0.40758 0.16323 0.0
H2754 H 0.62836 0.37551 0.20601 0.0
C2755 C 0.57395 0.38553 0.15215 0.0
H2756 H 0.61634 0.42033 0.1917 0.0
C2757 C 0.58139 0.35998 0.15985 0.0
C2758 C 0.60099 0.35598 0.17942 0.0
H2759 H 0.55854 0.38804 0.13739 0.0
H2760 H 0.57138 0.34325 0.15084 0.0
C2761 C 0.61329 0.37803 0.1909 0.0
C2762 C 0.89391 0.32788 0.44261 0.0
C2763 C 0.90631 0.34939 0.42998 0.0
H2764 H 0.86045 0.30151 0.4433 0.0
C2765 C 0.89412 0.36077 0.40768 0.0
H2766 H 0.90322 0.31834 0.45945 0.0
C2767 C 0.86969 0.35127 0.39856 0.0
C2768 C 0.85743 0.32955 0.41094 0.0
H2769 H 0.9035 0.37707 0.39731 0.0
H2770 H 0.8603 0.36096 0.38185 0.0
C2771 C 0.86982 0.31784 0.43298 0.0
C2772 C 0.89946 0.63058 0.68994 0.0
C2773 C 0.91006 0.65294 0.67742 0.0
H2774 H 0.899 0.58826 0.6922 0.0
C2775 C 0.92906 0.64947 0.65718 0.0
H2776 H 0.88494 0.63269 0.70561 0.0
C2777 C 0.9377 0.62416 0.64997 0.0
C2778 C 0.92686 0.60177 0.66224 0.0
H2779 H 0.93783 0.66644 0.64737 0.0
H2780 H 0.95274 0.62209 0.63478 0.0
C2781 C 0.90746 0.60522 0.68211 0.0
C2782 C 0.61871 0.33145 0.5702 0.0
C2783 C 0.60604 0.35331 0.58187 0.0
H2784 H 0.65238 0.30543 0.5707 0.0
C2785 C 0.61814 0.3658 0.60363 0.0
H2786 H 0.60952 0.32105 0.55381 0.0
C2787 C 0.64273 0.35703 0.61311 0.0
C2788 C 0.6552 0.33492 0.60173 0.0
H2789 H 0.60858 0.3824 0.61328 0.0
H2790 H 0.65201 0.36751 0.6294 0.0
C2791 C 0.6429 0.32214 0.58025 0.0
C2792 C 0.93256 0.36609 0.85689 0.0
C2793 C 0.91398 0.36268 0.83622 0.0
H2794 H 0.9562 0.39331 0.87963 0.0
C2795 C 0.90442 0.38509 0.82296 0.0
H2796 H 0.94058 0.34911 0.86729 0.0
C2797 C 0.9129 0.4104 0.83056 0.0
C2798 C 0.93177 0.41376 0.85097 0.0
H2799 H 0.89026 0.38306 0.80693 0.0
H2800 H 0.90507 0.42739 0.82004 0.0
C2801 C 0.94167 0.39133 0.86392 0.0
C2802 C 0.87524 0.66234 0.11943 0.0
C2803 C 0.86255 0.68331 0.10621 0.0
H2804 H 0.91009 0.63806 0.12236 0.0
C2805 C 0.87533 0.69529 0.08456 0.0
H2806 H 0.86559 0.65249 0.1359 0.0
C2807 C 0.90013 0.68617 0.07602 0.0
C2808 C 0.91295 0.66539 0.08942 0.0
H2809 H 0.86572 0.71108 0.07365 0.0
H2810 H 0.90958 0.6958 0.05931 0.0
C2811 C 0.90046 0.65385 0.11147 0.0
C2812 C 0.61467 0.63552 0.32391 0.0
C2813 C 0.6028 0.65795 0.335 0.0
H2814 H 0.61666 0.5932 0.32353 0.0
C2815 C 0.58285 0.65459 0.35434 0.0
H2816 H 0.62994 0.63754 0.30894 0.0
C2817 C 0.57466 0.62929 0.36219 0.0
C2818 C 0.5869 0.60687 0.35149 0.0
H2819 H 0.57309 0.67162 0.36301 0.0
H2820 H 0.55902 0.62726 0.37677 0.0
C2821 C 0.60709 0.61023 0.3324 0.0
C2822 C 0.65067 0.94063 0.63289 0.0
C2823 C 0.66173 0.92798 0.61084 0.0
H2824 H 0.64943 0.94328 0.67521 0.0
C2825 C 0.6807 0.90784 0.61491 0.0
H2826 H 0.63613 0.95621 0.63032 0.0
C2827 C 0.6889 0.90092 0.64048 0.0
C2828 C 0.67764 0.91336 0.66254 0.0
H2829 H 0.6898 0.89792 0.5982 0.0
H2830 H 0.70396 0.88583 0.64301 0.0
C2831 C 0.65822 0.93308 0.65851 0.0
loop_
_geom_bond_atom_site_label_1
_geom_bond_atom_site_label_2
_geom_bond_distance
_geom_bond_site_symmetry_2
_ccdc_geom_bond_type
Co0 O3 1.970 . S
Co0 N17 1.989 . S
Co0 O25 1.967 . S
Co0 O32 1.920 . S
Co1 O4 1.966 . S
Co1 N10 2.022 1_455 S
Co1 N18 1.987 1_455 S
Co1 O26 1.941 . S
C2 O3 1.258 . S
C2 O4 1.263 . S
O3 Co0 1.970 . S
O3 C2 1.258 . S
O4 Co1 1.966 . S
O4 C2 1.263 . S
C5 O6 1.235 . S
C5 O32 1.289 . S
O6 C5 1.235 . S
C7 C9 1.400 . S
C7 N10 1.351 . S
C7 C12 1.501 . S
C8 C9 1.387 . S
C8 N11 1.341 . S
C9 C7 1.400 . S
C9 C8 1.387 . S
N10 Co1 2.022 1_655 S
N10 C7 1.351 . S
N10 N11 1.365 . S
N11 C8 1.341 . S
N11 N10 1.365 . S
N11 H31 0.862 1_655 S
C12 C7 1.501 . S
C12 H13 0.961 . S
C12 H14 0.961 . S
C12 H15 0.960 . S
H13 C12 0.961 . S
H14 C12 0.961 . S
H15 C12 0.960 . S
C16 N17 1.342 . S
C16 C20 1.401 1_455 S
C16 C21 1.499 . S
N17 Co0 1.989 . S
N17 C16 1.342 . S
N17 N18 1.380 1_455 S
N18 Co1 1.987 1_655 S
N18 N17 1.380 1_655 S
N18 C19 1.356 . S
C19 N18 1.356 . S
C19 C20 1.396 . S
C19 C29 1.510 . S
C20 C16 1.401 1_655 S
C20 C19 1.396 . S
C21 C16 1.499 . S
C21 H22 0.959 . S
C21 H23 0.970 . S
C21 H24 0.961 . S
H22 C21 0.959 . S
H23 C21 0.970 . S
H24 C21 0.961 . S
O25 Co0 1.967 . S
O25 C33 1.258 . S
O26 Co1 1.941 . S
O26 C33 1.266 . S
H27 C29 0.959 . S
H28 C29 0.961 . S
C29 C19 1.510 . S
C29 H27 0.959 . S
C29 H28 0.961 . S
C29 H30 0.960 . S
H30 C29 0.960 . S
H31 N11 0.862 1_455 S
O32 Co0 1.920 . S
O32 C5 1.289 . S
C33 O25 1.258 . S
C33 O26 1.266 . S
Co34 O37 1.970 . S
Co34 N51 1.989 . S
Co34 O59 1.967 . S
Co34 O66 1.920 . S
Co35 O38 1.966 . S
Co35 N44 2.022 . S
Co35 N52 1.993 . S
Co35 O60 1.941 . S
C36 O37 1.258 . S
C36 O38 1.263 . S
O37 Co34 1.970 . S
O37 C36 1.258 . S
O38 Co35 1.966 . S
O38 C36 1.263 . S
C39 O40 1.235 . S
C39 O66 1.289 . S
O40 C39 1.235 . S
C41 C43 1.400 . S
C41 N44 1.351 . S
C41 C46 1.501 . S
C42 C43 1.387 . S
C42 N45 1.341 . S
C43 C41 1.400 . S
C43 C42 1.387 . S
N44 Co35 2.022 . S
N44 C41 1.351 . S
N44 N45 1.365 . S
N45 C42 1.341 . S
N45 N44 1.365 . S
N45 H65 0.862 . S
C46 C41 1.501 . S
C46 H47 0.961 . S
C46 H48 0.961 . S
C46 H49 0.960 . S
H47 C46 0.961 . S
H48 C46 0.961 . S
H49 C46 0.960 . S
C50 N51 1.342 . S
C50 C54 1.401 . S
C50 C55 1.499 . S
N51 Co34 1.989 . S
N51 C50 1.342 . S
N51 N52 1.388 . S
N52 Co35 1.993 . S
N52 N51 1.388 . S
N52 C53 1.346 . S
C53 N52 1.346 . S
C53 C54 1.396 . S
C53 C63 1.510 . S
C54 C50 1.401 . S
C54 C53 1.396 . S
C55 C50 1.499 . S
C55 H56 0.959 . S
C55 H57 0.960 . S
C55 H58 0.961 . S
H56 C55 0.959 . S
H57 C55 0.960 . S
H58 C55 0.961 . S
O59 Co34 1.967 . S
O59 C67 1.258 . S
O60 Co35 1.941 . S
O60 C67 1.266 . S
H61 C63 0.959 . S
H62 C63 0.961 . S
C63 C53 1.510 . S
C63 H61 0.959 . S
C63 H62 0.961 . S
C63 H64 0.960 . S
H64 C63 0.960 . S
H65 N45 0.862 . S
O66 Co34 1.920 . S
O66 C39 1.289 . S
C67 O59 1.258 . S
C67 O60 1.266 . S
Co68 O71 1.970 . S
Co68 N85 1.989 . S
Co68 O93 1.967 . S
Co68 O100 1.920 . S
Co69 O72 1.966 . S
Co69 N78 2.022 . S
Co69 N86 1.993 . S
Co69 O94 1.941 . S
C70 O71 1.258 . S
C70 O72 1.263 . S
O71 Co68 1.970 . S
O71 C70 1.258 . S
O72 Co69 1.966 . S
O72 C70 1.263 . S
C73 O74 1.235 . S
C73 O100 1.289 1_554 S
O74 C73 1.235 . S
C75 C77 1.400 . S
C75 N78 1.351 . S
C75 C80 1.501 . S
C76 C77 1.387 . S
C76 N79 1.341 . S
C77 C75 1.400 . S
C77 C76 1.387 . S
N78 Co69 2.022 . S
N78 C75 1.351 . S
N78 N79 1.365 . S
N79 C76 1.341 . S
N79 N78 1.365 . S
N79 H99 0.862 . S
C80 C75 1.501 . S
C80 H81 0.961 . S
C80 H82 0.961 . S
C80 H83 0.960 . S
H81 C80 0.961 . S
H82 C80 0.961 . S
H83 C80 0.960 . S
C84 N85 1.342 . S
C84 C88 1.401 . S
C84 C89 1.499 . S
N85 Co68 1.989 . S
N85 C84 1.342 . S
N85 N86 1.388 . S
N86 Co69 1.993 . S
N86 N85 1.388 . S
N86 C87 1.346 . S
C87 N86 1.346 . S
C87 C88 1.396 . S
C87 C97 1.510 . S
C88 C84 1.401 . S
C88 C87 1.396 . S
C89 C84 1.499 . S
C89 H90 0.959 . S
C89 H91 0.960 . S
C89 H92 0.961 . S
H90 C89 0.959 . S
H91 C89 0.960 . S
H92 C89 0.961 . S
O93 Co68 1.967 . S
O93 C101 1.258 . S
O94 Co69 1.941 . S
O94 C101 1.266 . S
H95 C97 0.959 . S
H96 C97 0.961 . S
C97 C87 1.510 . S
C97 H95 0.959 . S
C97 H96 0.961 . S
C97 H98 0.960 . S
H98 C97 0.960 . S
H99 N79 0.862 . S
O100 Co68 1.920 . S
O100 C73 1.289 1_556 S
C101 O93 1.258 . S
C101 O94 1.266 . S
Co102 O105 1.970 . S
Co102 N119 1.989 . S
Co102 O127 1.967 . S
Co102 O134 1.920 . S
Co103 O106 1.966 . S
Co103 N112 2.022 . S
Co103 N120 1.993 . S
Co103 O128 1.941 . S
C104 O105 1.258 . S
C104 O106 1.263 . S
O105 Co102 1.970 . S
O105 C104 1.258 . S
O106 Co103 1.966 . S
O106 C104 1.263 . S
C107 O108 1.235 . S
C107 O134 1.289 . S
O108 C107 1.235 . S
C109 C111 1.400 . S
C109 N112 1.351 . S
C109 C114 1.501 . S
C110 C111 1.387 . S
C110 N113 1.341 . S
C111 C109 1.400 . S
C111 C110 1.387 . S
N112 Co103 2.022 . S
N112 C109 1.351 . S
N112 N113 1.365 . S
N113 C110 1.341 . S
N113 N112 1.365 . S
N113 H133 0.862 . S
C114 C109 1.501 . S
C114 H115 0.961 . S
C114 H116 0.961 . S
C114 H117 0.960 . S
H115 C114 0.961 . S
H116 C114 0.961 . S
H117 C114 0.960 . S
C118 N119 1.342 . S
C118 C122 1.401 . S
C118 C123 1.499 . S
N119 Co102 1.989 . S
N119 C118 1.342 . S
N119 N120 1.388 . S
N120 Co103 1.993 . S
N120 N119 1.388 . S
N120 C121 1.346 . S
C121 N120 1.346 . S
C121 C122 1.396 . S
C121 C131 1.510 . S
C122 C118 1.401 . S
C122 C121 1.396 . S
C123 C118 1.499 . S
C123 H124 0.959 . S
C123 H125 0.960 . S
C123 H126 0.961 . S
H124 C123 0.959 . S
H125 C123 0.960 . S
H126 C123 0.961 . S
O127 Co102 1.967 . S
O127 C135 1.258 . S
O128 Co103 1.941 . S
O128 C135 1.266 . S
H129 C131 0.959 . S
H130 C131 0.961 . S
C131 C121 1.510 . S
C131 H129 0.959 . S
C131 H130 0.961 . S
C131 H132 0.960 . S
H132 C131 0.960 . S
H133 N113 0.862 . S
O134 Co102 1.920 . S
O134 C107 1.289 . S
C135 O127 1.258 . S
C135 O128 1.266 . S
Co136 O139 1.970 . S
Co136 N153 1.989 . S
Co136 O161 1.967 . S
Co136 O168 1.920 . S
Co137 O140 1.966 . S
Co137 N146 2.022 1_455 S
Co137 N154 1.987 1_455 S
Co137 O162 1.941 . S
C138 O139 1.258 . S
C138 O140 1.263 . S
O139 Co136 1.970 . S
O139 C138 1.258 . S
O140 Co137 1.966 . S
O140 C138 1.263 . S
C141 O142 1.235 . S
C141 O168 1.289 1_556 S
O142 C141 1.235 . S
C143 C145 1.400 . S
C143 N146 1.351 . S
C143 C148 1.501 . S
C144 C145 1.387 . S
C144 N147 1.341 . S
C145 C143 1.400 . S
C145 C144 1.387 . S
N146 Co137 2.022 1_655 S
N146 C143 1.351 . S
N146 N147 1.365 . S
N147 C144 1.341 . S
N147 N146 1.365 . S
N147 H167 0.862 1_655 S
C148 C143 1.501 . S
C148 H149 0.961 . S
C148 H150 0.961 . S
C148 H151 0.960 . S
H149 C148 0.961 . S
H150 C148 0.961 . S
H151 C148 0.960 . S
C152 N153 1.342 . S
C152 C156 1.401 1_455 S
C152 C157 1.499 . S
N153 Co136 1.989 . S
N153 C152 1.342 . S
N153 N154 1.380 1_455 S
N154 Co137 1.987 1_655 S
N154 N153 1.380 1_655 S
N154 C155 1.356 . S
C155 N154 1.356 . S
C155 C156 1.396 . S
C155 C165 1.510 . S
C156 C152 1.401 1_655 S
C156 C155 1.396 . S
C157 C152 1.499 . S
C157 H158 0.959 . S
C157 H159 0.970 . S
C157 H160 0.961 . S
H158 C157 0.959 . S
H159 C157 0.970 . S
H160 C157 0.961 . S
O161 Co136 1.967 . S
O161 C169 1.258 . S
O162 Co137 1.941 . S
O162 C169 1.266 . S
H163 C165 0.959 . S
H164 C165 0.961 . S
C165 C155 1.510 . S
C165 H163 0.959 . S
C165 H164 0.961 . S
C165 H166 0.960 . S
H166 C165 0.960 . S
H167 N147 0.862 1_455 S
O168 Co136 1.920 . S
O168 C141 1.289 1_554 S
C169 O161 1.258 . S
C169 O162 1.266 . S
Co170 O173 1.970 . S
Co170 N187 1.989 . S
Co170 O195 1.967 . S
Co170 O202 1.920 . S
Co171 O174 1.966 . S
Co171 N180 2.022 . S
Co171 N188 1.993 . S
Co171 O196 1.941 . S
C172 O173 1.258 . S
C172 O174 1.263 . S
O173 Co170 1.970 . S
O173 C172 1.258 . S
O174 Co171 1.966 . S
O174 C172 1.263 . S
C175 O176 1.235 . S
C175 O202 1.289 . S
O176 C175 1.235 . S
C177 C179 1.400 . S
C177 N180 1.351 . S
C177 C182 1.501 . S
C178 C179 1.387 . S
C178 N181 1.341 . S
C179 C177 1.400 . S
C179 C178 1.387 . S
N180 Co171 2.022 . S
N180 C177 1.351 . S
N180 N181 1.365 . S
N181 C178 1.341 . S
N181 N180 1.365 . S
N181 H201 0.862 . S
C182 C177 1.501 . S
C182 H183 0.961 . S
C182 H184 0.961 . S
C182 H185 0.960 . S
H183 C182 0.961 . S
H184 C182 0.961 . S
H185 C182 0.960 . S
C186 N187 1.342 . S
C186 C190 1.401 . S
C186 C191 1.499 . S
N187 Co170 1.989 . S
N187 C186 1.342 . S
N187 N188 1.388 . S
N188 Co171 1.993 . S
N188 N187 1.388 . S
N188 C189 1.346 . S
C189 N188 1.346 . S
C189 C190 1.396 . S
C189 C199 1.510 . S
C190 C186 1.401 . S
C190 C189 1.396 . S
C191 C186 1.499 . S
C191 H192 0.959 . S
C191 H193 0.960 . S
C191 H194 0.961 . S
H192 C191 0.959 . S
H193 C191 0.960 . S
H194 C191 0.961 . S
O195 Co170 1.967 . S
O195 C203 1.258 . S
O196 Co171 1.941 . S
O196 C203 1.266 . S
H197 C199 0.959 . S
H198 C199 0.961 . S
C199 C189 1.510 . S
C199 H197 0.959 . S
C199 H198 0.961 . S
C199 H200 0.960 . S
H200 C199 0.960 . S
H201 N181 0.862 . S
O202 Co170 1.920 . S
O202 C175 1.289 . S
C203 O195 1.258 . S
C203 O196 1.266 . S
Co204 O207 1.970 . S
Co204 N221 1.989 . S
Co204 O229 1.967 . S
Co204 O236 1.920 . S
Co205 O208 1.966 . S
Co205 N214 2.022 . S
Co205 N222 1.993 . S
Co205 O230 1.941 . S
C206 O207 1.258 . S
C206 O208 1.263 . S
O207 Co204 1.970 . S
O207 C206 1.258 . S
O208 Co205 1.966 . S
O208 C206 1.263 . S
C209 O210 1.235 . S
C209 O236 1.289 . S
O210 C209 1.235 . S
C211 C213 1.400 . S
C211 N214 1.351 . S
C211 C216 1.501 . S
C212 C213 1.387 . S
C212 N215 1.341 . S
C213 C211 1.400 . S
C213 C212 1.387 . S
N214 Co205 2.022 . S
N214 C211 1.351 . S
N214 N215 1.365 . S
N215 C212 1.341 . S
N215 N214 1.365 . S
N215 H235 0.862 . S
C216 C211 1.501 . S
C216 H217 0.961 . S
C216 H218 0.961 . S
C216 H219 0.960 . S
H217 C216 0.961 . S
H218 C216 0.961 . S
H219 C216 0.960 . S
C220 N221 1.342 . S
C220 C224 1.401 . S
C220 C225 1.499 . S
N221 Co204 1.989 . S
N221 C220 1.342 . S
N221 N222 1.388 . S
N222 Co205 1.993 . S
N222 N221 1.388 . S
N222 C223 1.346 . S
C223 N222 1.346 . S
C223 C224 1.396 . S
C223 C233 1.510 . S
C224 C220 1.401 . S
C224 C223 1.396 . S
C225 C220 1.499 . S
C225 H226 0.959 . S
C225 H227 0.960 . S
C225 H228 0.961 . S
H226 C225 0.959 . S
H227 C225 0.960 . S
H228 C225 0.961 . S
O229 Co204 1.967 . S
O229 C237 1.258 . S
O230 Co205 1.941 . S
O230 C237 1.266 . S
H231 C233 0.959 . S
H232 C233 0.961 . S
C233 C223 1.510 . S
C233 H231 0.959 . S
C233 H232 0.961 . S
C233 H234 0.960 . S
H234 C233 0.960 . S
H235 N215 0.862 . S
O236 Co204 1.920 . S
O236 C209 1.289 . S
C237 O229 1.258 . S
C237 O230 1.266 . S
Co238 O241 1.970 . S
Co238 N255 1.989 . S
Co238 O263 1.967 . S
Co238 O270 1.920 . S
Co239 O242 1.966 . S
Co239 N248 2.022 . S
Co239 N256 1.993 . S
Co239 O264 1.941 . S
C240 O241 1.258 . S
C240 O242 1.263 . S
O241 Co238 1.970 . S
O241 C240 1.258 . S
O242 Co239 1.966 . S
O242 C240 1.263 . S
C243 O244 1.235 . S
C243 O270 1.289 . S
O244 C243 1.235 . S
C245 C247 1.400 . S
C245 N248 1.351 . S
C245 C250 1.501 . S
C246 C247 1.387 . S
C246 N249 1.341 . S
C247 C245 1.400 . S
C247 C246 1.387 . S
N248 Co239 2.022 . S
N248 C245 1.351 . S
N248 N249 1.365 . S
N249 C246 1.341 . S
N249 N248 1.365 . S
N249 H269 0.862 . S
C250 C245 1.501 . S
C250 H251 0.961 . S
C250 H252 0.961 . S
C250 H253 0.960 . S
H251 C250 0.961 . S
H252 C250 0.961 . S
H253 C250 0.960 . S
C254 N255 1.342 . S
C254 C258 1.401 . S
C254 C259 1.499 . S
N255 Co238 1.989 . S
N255 C254 1.342 . S
N255 N256 1.388 . S
N256 Co239 1.993 . S
N256 N255 1.388 . S
N256 C257 1.346 . S
C257 N256 1.346 . S
C257 C258 1.396 . S
C257 C267 1.510 . S
C258 C254 1.401 . S
C258 C257 1.396 . S
C259 C254 1.499 . S
C259 H260 0.959 . S
C259 H261 0.960 . S
C259 H262 0.961 . S
H260 C259 0.959 . S
H261 C259 0.960 . S
H262 C259 0.961 . S
O263 Co238 1.967 . S
O263 C271 1.258 . S
O264 Co239 1.941 . S
O264 C271 1.266 . S
H265 C267 0.959 . S
H266 C267 0.961 . S
C267 C257 1.510 . S
C267 H265 0.959 . S
C267 H266 0.961 . S
C267 H268 0.960 . S
H268 C267 0.960 . S
H269 N249 0.862 . S
O270 Co238 1.920 . S
O270 C243 1.289 . S
C271 O263 1.258 . S
C271 O264 1.266 . S
Co272 O275 1.970 . S
Co272 N289 1.989 . S
Co272 O297 1.967 . S
Co272 O304 1.920 . S
Co273 O276 1.966 . S
Co273 N282 2.022 1_545 S
Co273 N290 1.987 1_545 S
Co273 O298 1.941 . S
C274 O275 1.258 . S
C274 O276 1.263 . S
O275 Co272 1.970 . S
O275 C274 1.258 . S
O276 Co273 1.966 . S
O276 C274 1.263 . S
C277 O278 1.235 . S
C277 O304 1.289 . S
O278 C277 1.235 . S
C279 C281 1.400 . S
C279 N282 1.351 . S
C279 C284 1.501 . S
C280 C281 1.387 . S
C280 N283 1.341 . S
C281 C279 1.400 . S
C281 C280 1.387 . S
N282 Co273 2.022 1_565 S
N282 C279 1.351 . S
N282 N283 1.365 . S
N283 C280 1.341 . S
N283 N282 1.365 . S
N283 H303 0.862 1_565 S
C284 C279 1.501 . S
C284 H285 0.961 . S
C284 H286 0.961 . S
C284 H287 0.960 . S
H285 C284 0.961 . S
H286 C284 0.961 . S
H287 C284 0.960 . S
C288 N289 1.342 . S
C288 C292 1.401 1_545 S
C288 C293 1.499 . S
N289 Co272 1.989 . S
N289 C288 1.342 . S
N289 N290 1.380 1_545 S
N290 Co273 1.987 1_565 S
N290 N289 1.380 1_565 S
N290 C291 1.356 . S
C291 N290 1.356 . S
C291 C292 1.396 . S
C291 C301 1.510 . S
C292 C288 1.401 1_565 S
C292 C291 1.396 . S
C293 C288 1.499 . S
C293 H294 0.959 . S
C293 H295 0.970 . S
C293 H296 0.961 . S
H294 C293 0.959 . S
H295 C293 0.970 . S
H296 C293 0.961 . S
O297 Co272 1.967 . S
O297 C305 1.258 . S
O298 Co273 1.941 . S
O298 C305 1.266 . S
H299 C301 0.959 . S
H300 C301 0.961 . S
C301 C291 1.510 . S
C301 H299 0.959 . S
C301 H300 0.961 . S
C301 H302 0.960 . S
H302 C301 0.960 . S
H303 N283 0.862 1_545 S
O304 Co272 1.920 . S
O304 C277 1.289 . S
C305 O297 1.258 . S
C305 O298 1.266 . S
Co306 O309 1.970 . S
Co306 N323 1.989 . S
Co306 O331 1.967 . S
Co306 O338 1.920 . S
Co307 O310 1.966 . S
Co307 N316 2.022 . S
Co307 N324 1.993 . S
Co307 O332 1.941 . S
C308 O309 1.258 . S
C308 O310 1.263 . S
O309 Co306 1.970 . S
O309 C308 1.258 . S
O310 Co307 1.966 . S
O310 C308 1.263 . S
C311 O312 1.235 . S
C311 O338 1.289 . S
O312 C311 1.235 . S
C313 C315 1.400 . S
C313 N316 1.351 . S
C313 C318 1.501 . S
C314 C315 1.387 . S
C314 N317 1.341 . S
C315 C313 1.400 . S
C315 C314 1.387 . S
N316 Co307 2.022 . S
N316 C313 1.351 . S
N316 N317 1.365 . S
N317 C314 1.341 . S
N317 N316 1.365 . S
N317 H337 0.862 . S
C318 C313 1.501 . S
C318 H319 0.961 . S
C318 H320 0.961 . S
C318 H321 0.960 . S
H319 C318 0.961 . S
H320 C318 0.961 . S
H321 C318 0.960 . S
C322 N323 1.342 . S
C322 C326 1.401 . S
C322 C327 1.499 . S
N323 Co306 1.989 . S
N323 C322 1.342 . S
N323 N324 1.388 . S
N324 Co307 1.993 . S
N324 N323 1.388 . S
N324 C325 1.346 . S
C325 N324 1.346 . S
C325 C326 1.396 . S
C325 C335 1.510 . S
C326 C322 1.401 . S
C326 C325 1.396 . S
C327 C322 1.499 . S
C327 H328 0.959 . S
C327 H329 0.960 . S
C327 H330 0.961 . S
H328 C327 0.959 . S
H329 C327 0.960 . S
H330 C327 0.961 . S
O331 Co306 1.967 . S
O331 C339 1.258 . S
O332 Co307 1.941 . S
O332 C339 1.266 . S
H333 C335 0.959 . S
H334 C335 0.961 . S
C335 C325 1.510 . S
C335 H333 0.959 . S
C335 H334 0.961 . S
C335 H336 0.960 . S
H336 C335 0.960 . S
H337 N317 0.862 . S
O338 Co306 1.920 . S
O338 C311 1.289 . S
C339 O331 1.258 . S
C339 O332 1.266 . S
Co340 O343 1.970 . S
Co340 N357 1.989 . S
Co340 O365 1.967 . S
Co340 O372 1.920 . S
Co341 O344 1.966 . S
Co341 N350 2.022 1_565 S
Co341 N358 1.987 1_565 S
Co341 O366 1.941 . S
C342 O343 1.258 . S
C342 O344 1.263 . S
O343 Co340 1.970 . S
O343 C342 1.258 . S
O344 Co341 1.966 . S
O344 C342 1.263 . S
C345 O346 1.235 . S
C345 O372 1.289 1_655 S
O346 C345 1.235 . S
C347 C349 1.400 . S
C347 N350 1.351 . S
C347 C352 1.501 . S
C348 C349 1.387 . S
C348 N351 1.341 . S
C349 C347 1.400 . S
C349 C348 1.387 . S
N350 Co341 2.022 1_545 S
N350 C347 1.351 . S
N350 N351 1.365 . S
N351 C348 1.341 . S
N351 N350 1.365 . S
N351 H371 0.862 1_545 S
C352 C347 1.501 . S
C352 H353 0.961 . S
C352 H354 0.961 . S
C352 H355 0.960 . S
H353 C352 0.961 . S
H354 C352 0.961 . S
H355 C352 0.960 . S
C356 N357 1.342 . S
C356 C360 1.401 1_565 S
C356 C361 1.499 . S
N357 Co340 1.989 . S
N357 C356 1.342 . S
N357 N358 1.380 1_565 S
N358 Co341 1.987 1_545 S
N358 N357 1.380 1_545 S
N358 C359 1.356 . S
C359 N358 1.356 . S
C359 C360 1.396 . S
C359 C369 1.510 . S
C360 C356 1.401 1_545 S
C360 C359 1.396 . S
C361 C356 1.499 . S
C361 H362 0.959 . S
C361 H363 0.970 . S
C361 H364 0.961 . S
H362 C361 0.959 . S
H363 C361 0.970 . S
H364 C361 0.961 . S
O365 Co340 1.967 . S
O365 C373 1.258 . S
O366 Co341 1.941 . S
O366 C373 1.266 . S
H367 C369 0.959 . S
H368 C369 0.961 . S
C369 C359 1.510 . S
C369 H367 0.959 . S
C369 H368 0.961 . S
C369 H370 0.960 . S
H370 C369 0.960 . S
H371 N351 0.862 1_565 S
O372 Co340 1.920 . S
O372 C345 1.289 1_455 S
C373 O365 1.258 . S
C373 O366 1.266 . S
Co374 O377 1.970 . S
Co374 N391 1.989 . S
Co374 O399 1.967 . S
Co374 O406 1.920 . S
Co375 O378 1.966 . S
Co375 N384 2.022 . S
Co375 N392 1.993 . S
Co375 O400 1.941 . S
C376 O377 1.258 . S
C376 O378 1.263 . S
O377 Co374 1.970 . S
O377 C376 1.258 . S
O378 Co375 1.966 . S
O378 C376 1.263 . S
C379 O380 1.235 . S
C379 O406 1.289 . S
O380 C379 1.235 . S
C381 C383 1.400 . S
C381 N384 1.351 . S
C381 C386 1.501 . S
C382 C383 1.387 . S
C382 N385 1.341 . S
C383 C381 1.400 . S
C383 C382 1.387 . S
N384 Co375 2.022 . S
N384 C381 1.351 . S
N384 N385 1.365 . S
N385 C382 1.341 . S
N385 N384 1.365 . S
N385 H405 0.862 . S
C386 C381 1.501 . S
C386 H387 0.961 . S
C386 H388 0.961 . S
C386 H389 0.960 . S
H387 C386 0.961 . S
H388 C386 0.961 . S
H389 C386 0.960 . S
C390 N391 1.342 . S
C390 C394 1.401 . S
C390 C395 1.499 . S
N391 Co374 1.989 . S
N391 C390 1.342 . S
N391 N392 1.388 . S
N392 Co375 1.993 . S
N392 N391 1.388 . S
N392 C393 1.346 . S
C393 N392 1.346 . S
C393 C394 1.396 . S
C393 C403 1.510 . S
C394 C390 1.401 . S
C394 C393 1.396 . S
C395 C390 1.499 . S
C395 H396 0.959 . S
C395 H397 0.960 . S
C395 H398 0.961 . S
H396 C395 0.959 . S
H397 C395 0.960 . S
H398 C395 0.961 . S
O399 Co374 1.967 . S
O399 C407 1.258 . S
O400 Co375 1.941 . S
O400 C407 1.266 . S
H401 C403 0.959 . S
H402 C403 0.961 . S
C403 C393 1.510 . S
C403 H401 0.959 . S
C403 H402 0.961 . S
C403 H404 0.960 . S
H404 C403 0.960 . S
H405 N385 0.862 . S
O406 Co374 1.920 . S
O406 C379 1.289 . S
C407 O399 1.258 . S
C407 O400 1.266 . S
Co408 O411 1.970 . S
Co408 N425 1.989 . S
Co408 O433 1.967 . S
Co408 O440 1.920 . S
Co409 O412 1.966 . S
Co409 N418 2.022 1_565 S
Co409 N426 1.987 1_565 S
Co409 O434 1.941 . S
C410 O411 1.258 . S
C410 O412 1.263 . S
O411 Co408 1.970 . S
O411 C410 1.258 . S
O412 Co409 1.966 . S
O412 C410 1.263 . S
C413 O414 1.235 . S
C413 O440 1.289 . S
O414 C413 1.235 . S
C415 C417 1.400 . S
C415 N418 1.351 . S
C415 C420 1.501 . S
C416 C417 1.387 . S
C416 N419 1.341 . S
C417 C415 1.400 . S
C417 C416 1.387 . S
N418 Co409 2.022 1_545 S
N418 C415 1.351 . S
N418 N419 1.365 . S
N419 C416 1.341 . S
N419 N418 1.365 . S
N419 H439 0.862 1_545 S
C420 C415 1.501 . S
C420 H421 0.961 . S
C420 H422 0.961 . S
C420 H423 0.960 . S
H421 C420 0.961 . S
H422 C420 0.961 . S
H423 C420 0.960 . S
C424 N425 1.342 . S
C424 C428 1.401 1_565 S
C424 C429 1.499 . S
N425 Co408 1.989 . S
N425 C424 1.342 . S
N425 N426 1.380 1_565 S
N426 Co409 1.987 1_545 S
N426 N425 1.380 1_545 S
N426 C427 1.356 . S
C427 N426 1.356 . S
C427 C428 1.396 . S
C427 C437 1.510 . S
C428 C424 1.401 1_545 S
C428 C427 1.396 . S
C429 C424 1.499 . S
C429 H430 0.959 . S
C429 H431 0.970 . S
C429 H432 0.961 . S
H430 C429 0.959 . S
H431 C429 0.970 . S
H432 C429 0.961 . S
O433 Co408 1.967 . S
O433 C441 1.258 . S
O434 Co409 1.941 . S
O434 C441 1.266 . S
H435 C437 0.959 . S
H436 C437 0.961 . S
C437 C427 1.510 . S
C437 H435 0.959 . S
C437 H436 0.961 . S
C437 H438 0.960 . S
H438 C437 0.960 . S
H439 N419 0.862 1_565 S
O440 Co408 1.920 . S
O440 C413 1.289 . S
C441 O433 1.258 . S
C441 O434 1.266 . S
Co442 O445 1.970 . S
Co442 N459 1.989 . S
Co442 O467 1.967 . S
Co442 O474 1.920 . S
Co443 O446 1.966 . S
Co443 N452 2.022 . S
Co443 N460 1.993 . S
Co443 O468 1.941 . S
C444 O445 1.258 . S
C444 O446 1.263 . S
O445 Co442 1.970 . S
O445 C444 1.258 . S
O446 Co443 1.966 . S
O446 C444 1.263 . S
C447 O448 1.235 . S
C447 O474 1.289 . S
O448 C447 1.235 . S
C449 C451 1.400 . S
C449 N452 1.351 . S
C449 C454 1.501 . S
C450 C451 1.387 . S
C450 N453 1.341 . S
C451 C449 1.400 . S
C451 C450 1.387 . S
N452 Co443 2.022 . S
N452 C449 1.351 . S
N452 N453 1.365 . S
N453 C450 1.341 . S
N453 N452 1.365 . S
N453 H473 0.862 . S
C454 C449 1.501 . S
C454 H455 0.961 . S
C454 H456 0.961 . S
C454 H457 0.960 . S
H455 C454 0.961 . S
H456 C454 0.961 . S
H457 C454 0.960 . S
C458 N459 1.342 . S
C458 C462 1.401 . S
C458 C463 1.499 . S
N459 Co442 1.989 . S
N459 C458 1.342 . S
N459 N460 1.388 . S
N460 Co443 1.993 . S
N460 N459 1.388 . S
N460 C461 1.346 . S
C461 N460 1.346 . S
C461 C462 1.396 . S
C461 C471 1.510 . S
C462 C458 1.401 . S
C462 C461 1.396 . S
C463 C458 1.499 . S
C463 H464 0.959 . S
C463 H465 0.960 . S
C463 H466 0.961 . S
H464 C463 0.959 . S
H465 C463 0.960 . S
H466 C463 0.961 . S
O467 Co442 1.967 . S
O467 C475 1.258 . S
O468 Co443 1.941 . S
O468 C475 1.266 . S
H469 C471 0.959 . S
H470 C471 0.961 . S
C471 C461 1.510 . S
C471 H469 0.959 . S
C471 H470 0.961 . S
C471 H472 0.960 . S
H472 C471 0.960 . S
H473 N453 0.862 . S
O474 Co442 1.920 . S
O474 C447 1.289 . S
C475 O467 1.258 . S
C475 O468 1.266 . S
Co476 O479 1.970 . S
Co476 N493 1.989 . S
Co476 O501 1.967 . S
Co476 O508 1.920 . S
Co477 O480 1.966 . S
Co477 N486 2.022 1_545 S
Co477 N494 1.987 1_545 S
Co477 O502 1.941 . S
C478 O479 1.258 . S
C478 O480 1.263 . S
O479 Co476 1.970 . S
O479 C478 1.258 . S
O480 Co477 1.966 . S
O480 C478 1.263 . S
C481 O482 1.235 . S
C481 O508 1.289 1_655 S
O482 C481 1.235 . S
C483 C485 1.400 . S
C483 N486 1.351 . S
C483 C488 1.501 . S
C484 C485 1.387 . S
C484 N487 1.341 . S
C485 C483 1.400 . S
C485 C484 1.387 . S
N486 Co477 2.022 1_565 S
N486 C483 1.351 . S
N486 N487 1.365 . S
N487 C484 1.341 . S
N487 N486 1.365 . S
N487 H507 0.862 1_565 S
C488 C483 1.501 . S
C488 H489 0.961 . S
C488 H490 0.961 . S
C488 H491 0.960 . S
H489 C488 0.961 . S
H490 C488 0.961 . S
H491 C488 0.960 . S
C492 N493 1.342 . S
C492 C496 1.401 1_545 S
C492 C497 1.499 . S
N493 Co476 1.989 . S
N493 C492 1.342 . S
N493 N494 1.380 1_545 S
N494 Co477 1.987 1_565 S
N494 N493 1.380 1_565 S
N494 C495 1.356 . S
C495 N494 1.356 . S
C495 C496 1.396 . S
C495 C505 1.510 . S
C496 C492 1.401 1_565 S
C496 C495 1.396 . S
C497 C492 1.499 . S
C497 H498 0.959 . S
C497 H499 0.970 . S
C497 H500 0.961 . S
H498 C497 0.959 . S
H499 C497 0.970 . S
H500 C497 0.961 . S
O501 Co476 1.967 . S
O501 C509 1.258 . S
O502 Co477 1.941 . S
O502 C509 1.266 . S
H503 C505 0.959 . S
H504 C505 0.961 . S
C505 C495 1.510 . S
C505 H503 0.959 . S
C505 H504 0.961 . S
C505 H506 0.960 . S
H506 C505 0.960 . S
H507 N487 0.862 1_545 S
O508 Co476 1.920 . S
O508 C481 1.289 1_455 S
C509 O501 1.258 . S
C509 O502 1.266 . S
Co510 O513 1.970 . S
Co510 N527 1.989 . S
Co510 O535 1.967 . S
Co510 O542 1.920 . S
Co511 O514 1.966 . S
Co511 N520 2.022 . S
Co511 N528 1.993 . S
Co511 O536 1.941 . S
C512 O513 1.258 . S
C512 O514 1.263 . S
O513 Co510 1.970 . S
O513 C512 1.258 . S
O514 Co511 1.966 . S
O514 C512 1.263 . S
C515 O516 1.235 . S
C515 O542 1.289 . S
O516 C515 1.235 . S
C517 C519 1.400 . S
C517 N520 1.351 . S
C517 C522 1.501 . S
C518 C519 1.387 . S
C518 N521 1.341 . S
C519 C517 1.400 . S
C519 C518 1.387 . S
N520 Co511 2.022 . S
N520 C517 1.351 . S
N520 N521 1.365 . S
N521 C518 1.341 . S
N521 N520 1.365 . S
N521 H541 0.862 . S
C522 C517 1.501 . S
C522 H523 0.961 . S
C522 H524 0.961 . S
C522 H525 0.960 . S
H523 C522 0.961 . S
H524 C522 0.961 . S
H525 C522 0.960 . S
C526 N527 1.342 . S
C526 C530 1.401 . S
C526 C531 1.499 . S
N527 Co510 1.989 . S
N527 C526 1.342 . S
N527 N528 1.388 . S
N528 Co511 1.993 . S
N528 N527 1.388 . S
N528 C529 1.346 . S
C529 N528 1.346 . S
C529 C530 1.396 . S
C529 C539 1.510 . S
C530 C526 1.401 . S
C530 C529 1.396 . S
C531 C526 1.499 . S
C531 H532 0.959 . S
C531 H533 0.960 . S
C531 H534 0.961 . S
H532 C531 0.959 . S
H533 C531 0.960 . S
H534 C531 0.961 . S
O535 Co510 1.967 . S
O535 C543 1.258 . S
O536 Co511 1.941 . S
O536 C543 1.266 . S
H537 C539 0.959 . S
H538 C539 0.961 . S
C539 C529 1.510 . S
C539 H537 0.959 . S
C539 H538 0.961 . S
C539 H540 0.960 . S
H540 C539 0.960 . S
H541 N521 0.862 . S
O542 Co510 1.920 . S
O542 C515 1.289 . S
C543 O535 1.258 . S
C543 O536 1.266 . S
Co544 O547 1.970 . S
Co544 N561 1.989 . S
Co544 O569 1.967 . S
Co544 O576 1.920 . S
Co545 O548 1.966 . S
Co545 N554 2.022 1_554 S
Co545 N562 1.987 1_554 S
Co545 O570 1.941 . S
C546 O547 1.258 . S
C546 O548 1.263 . S
O547 Co544 1.970 . S
O547 C546 1.258 . S
O548 Co545 1.966 . S
O548 C546 1.263 . S
C549 O550 1.235 . S
C549 O576 1.289 . S
O550 C549 1.235 . S
C551 C553 1.400 . S
C551 N554 1.351 . S
C551 C556 1.501 . S
C552 C553 1.387 . S
C552 N555 1.341 . S
C553 C551 1.400 . S
C553 C552 1.387 . S
N554 Co545 2.022 1_556 S
N554 C551 1.351 . S
N554 N555 1.365 . S
N555 C552 1.341 . S
N555 N554 1.365 . S
N555 H575 0.862 1_556 S
C556 C551 1.501 . S
C556 H557 0.961 . S
C556 H558 0.961 . S
C556 H559 0.960 . S
H557 C556 0.961 . S
H558 C556 0.961 . S
H559 C556 0.960 . S
C560 N561 1.342 . S
C560 C564 1.401 1_554 S
C560 C565 1.499 . S
N561 Co544 1.989 . S
N561 C560 1.342 . S
N561 N562 1.380 1_554 S
N562 Co545 1.987 1_556 S
N562 N561 1.380 1_556 S
N562 C563 1.356 . S
C563 N562 1.356 . S
C563 C564 1.396 . S
C563 C573 1.510 . S
C564 C560 1.401 1_556 S
C564 C563 1.396 . S
C565 C560 1.499 . S
C565 H566 0.959 . S
C565 H567 0.970 . S
C565 H568 0.961 . S
H566 C565 0.959 . S
H567 C565 0.970 . S
H568 C565 0.961 . S
O569 Co544 1.967 . S
O569 C577 1.258 . S
O570 Co545 1.941 . S
O570 C577 1.266 . S
H571 C573 0.959 . S
H572 C573 0.961 . S
C573 C563 1.510 . S
C573 H571 0.959 . S
C573 H572 0.961 . S
C573 H574 0.960 . S
H574 C573 0.960 . S
H575 N555 0.862 1_554 S
O576 Co544 1.920 . S
O576 C549 1.289 . S
C577 O569 1.258 . S
C577 O570 1.266 . S
Co578 O581 1.970 . S
Co578 N595 1.989 . S
Co578 O603 1.967 . S
Co578 O610 1.920 . S
Co579 O582 1.966 . S
Co579 N588 2.022 1_556 S
Co579 N596 1.987 1_556 S
Co579 O604 1.941 . S
C580 O581 1.258 . S
C580 O582 1.263 . S
O581 Co578 1.970 . S
O581 C580 1.258 . S
O582 Co579 1.966 . S
O582 C580 1.263 . S
C583 O584 1.235 . S
C583 O610 1.289 1_565 S
O584 C583 1.235 . S
C585 C587 1.400 . S
C585 N588 1.351 . S
C585 C590 1.501 . S
C586 C587 1.387 . S
C586 N589 1.341 . S
C587 C585 1.400 . S
C587 C586 1.387 . S
N588 Co579 2.022 1_554 S
N588 C585 1.351 . S
N588 N589 1.365 . S
N589 C586 1.341 . S
N589 N588 1.365 . S
N589 H609 0.862 1_554 S
C590 C585 1.501 . S
C590 H591 0.961 . S
C590 H592 0.961 . S
C590 H593 0.960 . S
H591 C590 0.961 . S
H592 C590 0.961 . S
H593 C590 0.960 . S
C594 N595 1.342 . S
C594 C598 1.401 1_556 S
C594 C599 1.499 . S
N595 Co578 1.989 . S
N595 C594 1.342 . S
N595 N596 1.380 1_556 S
N596 Co579 1.987 1_554 S
N596 N595 1.380 1_554 S
N596 C597 1.356 . S
C597 N596 1.356 . S
C597 C598 1.396 . S
C597 C607 1.510 . S
C598 C594 1.401 1_554 S
C598 C597 1.396 . S
C599 C594 1.499 . S
C599 H600 0.959 . S
C599 H601 0.970 . S
C599 H602 0.961 . S
H600 C599 0.959 . S
H601 C599 0.970 . S
H602 C599 0.961 . S
O603 Co578 1.967 . S
O603 C611 1.258 . S
O604 Co579 1.941 . S
O604 C611 1.266 . S
H605 C607 0.959 . S
H606 C607 0.961 . S
C607 C597 1.510 . S
C607 H605 0.959 . S
C607 H606 0.961 . S
C607 H608 0.960 . S
H608 C607 0.960 . S
H609 N589 0.862 1_556 S
O610 Co578 1.920 . S
O610 C583 1.289 1_545 S
C611 O603 1.258 . S
C611 O604 1.266 . S
Co612 O615 1.970 . S
Co612 N629 1.989 . S
Co612 O637 1.967 . S
Co612 O644 1.920 . S
Co613 O616 1.966 . S
Co613 N622 2.022 . S
Co613 N630 1.993 . S
Co613 O638 1.941 . S
C614 O615 1.258 . S
C614 O616 1.263 . S
O615 Co612 1.970 . S
O615 C614 1.258 . S
O616 Co613 1.966 . S
O616 C614 1.263 . S
C617 O618 1.235 . S
C617 O644 1.289 . S
O618 C617 1.235 . S
C619 C621 1.400 . S
C619 N622 1.351 . S
C619 C624 1.501 . S
C620 C621 1.387 . S
C620 N623 1.341 . S
C621 C619 1.400 . S
C621 C620 1.387 . S
N622 Co613 2.022 . S
N622 C619 1.351 . S
N622 N623 1.365 . S
N623 C620 1.341 . S
N623 N622 1.365 . S
N623 H643 0.862 . S
C624 C619 1.501 . S
C624 H625 0.961 . S
C624 H626 0.961 . S
C624 H627 0.960 . S
H625 C624 0.961 . S
H626 C624 0.961 . S
H627 C624 0.960 . S
C628 N629 1.342 . S
C628 C632 1.401 . S
C628 C633 1.499 . S
N629 Co612 1.989 . S
N629 C628 1.342 . S
N629 N630 1.388 . S
N630 Co613 1.993 . S
N630 N629 1.388 . S
N630 C631 1.346 . S
C631 N630 1.346 . S
C631 C632 1.396 . S
C631 C641 1.510 . S
C632 C628 1.401 . S
C632 C631 1.396 . S
C633 C628 1.499 . S
C633 H634 0.959 . S
C633 H635 0.960 . S
C633 H636 0.961 . S
H634 C633 0.959 . S
H635 C633 0.960 . S
H636 C633 0.961 . S
O637 Co612 1.967 . S
O637 C645 1.258 . S
O638 Co613 1.941 . S
O638 C645 1.266 . S
H639 C641 0.959 . S
H640 C641 0.961 . S
C641 C631 1.510 . S
C641 H639 0.959 . S
C641 H640 0.961 . S
C641 H642 0.960 . S
H642 C641 0.960 . S
H643 N623 0.862 . S
O644 Co612 1.920 . S
O644 C617 1.289 . S
C645 O637 1.258 . S
C645 O638 1.266 . S
Co646 O649 1.970 . S
Co646 N663 1.989 . S
Co646 O671 1.967 . S
Co646 O678 1.920 . S
Co647 O650 1.966 . S
Co647 N656 2.022 . S
Co647 N664 1.993 . S
Co647 O672 1.941 . S
C648 O649 1.258 . S
C648 O650 1.263 . S
O649 Co646 1.970 . S
O649 C648 1.258 . S
O650 Co647 1.966 . S
O650 C648 1.263 . S
C651 O652 1.235 . S
C651 O678 1.289 1_545 S
O652 C651 1.235 . S
C653 C655 1.400 . S
C653 N656 1.351 . S
C653 C658 1.501 . S
C654 C655 1.387 . S
C654 N657 1.341 . S
C655 C653 1.400 . S
C655 C654 1.387 . S
N656 Co647 2.022 . S
N656 C653 1.351 . S
N656 N657 1.365 . S
N657 C654 1.341 . S
N657 N656 1.365 . S
N657 H677 0.862 . S
C658 C653 1.501 . S
C658 H659 0.961 . S
C658 H660 0.961 . S
C658 H661 0.960 . S
H659 C658 0.961 . S
H660 C658 0.961 . S
H661 C658 0.960 . S
C662 N663 1.342 . S
C662 C666 1.401 . S
C662 C667 1.499 . S
N663 Co646 1.989 . S
N663 C662 1.342 . S
N663 N664 1.388 . S
N664 Co647 1.993 . S
N664 N663 1.388 . S
N664 C665 1.346 . S
C665 N664 1.346 . S
C665 C666 1.396 . S
C665 C675 1.510 . S
C666 C662 1.401 . S
C666 C665 1.396 . S
C667 C662 1.499 . S
C667 H668 0.959 . S
C667 H669 0.960 . S
C667 H670 0.961 . S
H668 C667 0.959 . S
H669 C667 0.960 . S
H670 C667 0.961 . S
O671 Co646 1.967 . S
O671 C679 1.258 . S
O672 Co647 1.941 . S
O672 C679 1.266 . S
H673 C675 0.959 . S
H674 C675 0.961 . S
C675 C665 1.510 . S
C675 H673 0.959 . S
C675 H674 0.961 . S
C675 H676 0.960 . S
H676 C675 0.960 . S
H677 N657 0.862 . S
O678 Co646 1.920 . S
O678 C651 1.289 1_565 S
C679 O671 1.258 . S
C679 O672 1.266 . S
Co680 O683 1.970 . S
Co680 N697 1.989 . S
Co680 O705 1.967 . S
Co680 O712 1.920 . S
Co681 O684 1.966 . S
Co681 N690 2.022 . S
Co681 N698 1.993 . S
Co681 O706 1.941 . S
C682 O683 1.258 . S
C682 O684 1.263 . S
O683 Co680 1.970 . S
O683 C682 1.258 . S
O684 Co681 1.966 . S
O684 C682 1.263 . S
C685 O686 1.235 . S
C685 O712 1.289 . S
O686 C685 1.235 . S
C687 C689 1.400 . S
C687 N690 1.351 . S
C687 C692 1.501 . S
C688 C689 1.387 . S
C688 N691 1.341 . S
C689 C687 1.400 . S
C689 C688 1.387 . S
N690 Co681 2.022 . S
N690 C687 1.351 . S
N690 N691 1.365 . S
N691 C688 1.341 . S
N691 N690 1.365 . S
N691 H711 0.862 . S
C692 C687 1.501 . S
C692 H693 0.961 . S
C692 H694 0.961 . S
C692 H695 0.960 . S
H693 C692 0.961 . S
H694 C692 0.961 . S
H695 C692 0.960 . S
C696 N697 1.342 . S
C696 C700 1.401 . S
C696 C701 1.499 . S
N697 Co680 1.989 . S
N697 C696 1.342 . S
N697 N698 1.388 . S
N698 Co681 1.993 . S
N698 N697 1.388 . S
N698 C699 1.346 . S
C699 N698 1.346 . S
C699 C700 1.396 . S
C699 C709 1.510 . S
C700 C696 1.401 . S
C700 C699 1.396 . S
C701 C696 1.499 . S
C701 H702 0.959 . S
C701 H703 0.960 . S
C701 H704 0.961 . S
H702 C701 0.959 . S
H703 C701 0.960 . S
H704 C701 0.961 . S
O705 Co680 1.967 . S
O705 C713 1.258 . S
O706 Co681 1.941 . S
O706 C713 1.266 . S
H707 C709 0.959 . S
H708 C709 0.961 . S
C709 C699 1.510 . S
C709 H707 0.959 . S
C709 H708 0.961 . S
C709 H710 0.960 . S
H710 C709 0.960 . S
H711 N691 0.862 . S
O712 Co680 1.920 . S
O712 C685 1.289 . S
C713 O705 1.258 . S
C713 O706 1.266 . S
Co714 O717 1.970 . S
Co714 N731 1.989 . S
Co714 O739 1.967 . S
Co714 O746 1.920 . S
Co715 O718 1.966 . S
Co715 N724 2.022 . S
Co715 N732 1.993 . S
Co715 O740 1.941 . S
C716 O717 1.258 . S
C716 O718 1.263 . S
O717 Co714 1.970 . S
O717 C716 1.258 . S
O718 Co715 1.966 . S
O718 C716 1.263 . S
C719 O720 1.235 . S
C719 O746 1.289 . S
O720 C719 1.235 . S
C721 C723 1.400 . S
C721 N724 1.351 . S
C721 C726 1.501 . S
C722 C723 1.387 . S
C722 N725 1.341 . S
C723 C721 1.400 . S
C723 C722 1.387 . S
N724 Co715 2.022 . S
N724 C721 1.351 . S
N724 N725 1.365 . S
N725 C722 1.341 . S
N725 N724 1.365 . S
N725 H745 0.862 . S
C726 C721 1.501 . S
C726 H727 0.961 . S
C726 H728 0.961 . S
C726 H729 0.960 . S
H727 C726 0.961 . S
H728 C726 0.961 . S
H729 C726 0.960 . S
C730 N731 1.342 . S
C730 C734 1.401 . S
C730 C735 1.499 . S
N731 Co714 1.989 . S
N731 C730 1.342 . S
N731 N732 1.388 . S
N732 Co715 1.993 . S
N732 N731 1.388 . S
N732 C733 1.346 . S
C733 N732 1.346 . S
C733 C734 1.396 . S
C733 C743 1.510 . S
C734 C730 1.401 . S
C734 C733 1.396 . S
C735 C730 1.499 . S
C735 H736 0.959 . S
C735 H737 0.960 . S
C735 H738 0.961 . S
H736 C735 0.959 . S
H737 C735 0.960 . S
H738 C735 0.961 . S
O739 Co714 1.967 . S
O739 C747 1.258 . S
O740 Co715 1.941 . S
O740 C747 1.266 . S
H741 C743 0.959 . S
H742 C743 0.961 . S
C743 C733 1.510 . S
C743 H741 0.959 . S
C743 H742 0.961 . S
C743 H744 0.960 . S
H744 C743 0.960 . S
H745 N725 0.862 . S
O746 Co714 1.920 . S
O746 C719 1.289 . S
C747 O739 1.258 . S
C747 O740 1.266 . S
Co748 O751 1.970 . S
Co748 N765 1.989 . S
Co748 O773 1.967 . S
Co748 O780 1.920 . S
Co749 O752 1.966 . S
Co749 N758 2.022 . S
Co749 N766 1.993 . S
Co749 O774 1.941 . S
C750 O751 1.258 . S
C750 O752 1.263 . S
O751 Co748 1.970 . S
O751 C750 1.258 . S
O752 Co749 1.966 . S
O752 C750 1.263 . S
C753 O754 1.235 . S
C753 O780 1.289 . S
O754 C753 1.235 . S
C755 C757 1.400 . S
C755 N758 1.351 . S
C755 C760 1.501 . S
C756 C757 1.387 . S
C756 N759 1.341 . S
C757 C755 1.400 . S
C757 C756 1.387 . S
N758 Co749 2.022 . S
N758 C755 1.351 . S
N758 N759 1.365 . S
N759 C756 1.341 . S
N759 N758 1.365 . S
N759 H779 0.862 . S
C760 C755 1.501 . S
C760 H761 0.961 . S
C760 H762 0.961 . S
C760 H763 0.960 . S
H761 C760 0.961 . S
H762 C760 0.961 . S
H763 C760 0.960 . S
C764 N765 1.342 . S
C764 C768 1.401 . S
C764 C769 1.499 . S
N765 Co748 1.989 . S
N765 C764 1.342 . S
N765 N766 1.388 . S
N766 Co749 1.993 . S
N766 N765 1.388 . S
N766 C767 1.346 . S
C767 N766 1.346 . S
C767 C768 1.396 . S
C767 C777 1.510 . S
C768 C764 1.401 . S
C768 C767 1.396 . S
C769 C764 1.499 . S
C769 H770 0.959 . S
C769 H771 0.960 . S
C769 H772 0.961 . S
H770 C769 0.959 . S
H771 C769 0.960 . S
H772 C769 0.961 . S
O773 Co748 1.967 . S
O773 C781 1.258 . S
O774 Co749 1.941 . S
O774 C781 1.266 . S
H775 C777 0.959 . S
H776 C777 0.961 . S
C777 C767 1.510 . S
C777 H775 0.959 . S
C777 H776 0.961 . S
C777 H778 0.960 . S
H778 C777 0.960 . S
H779 N759 0.862 . S
O780 Co748 1.920 . S
O780 C753 1.289 . S
C781 O773 1.258 . S
C781 O774 1.266 . S
Co782 O785 1.970 . S
Co782 N799 1.989 . S
Co782 O807 1.967 . S
Co782 O814 1.920 . S
Co783 O786 1.966 . S
Co783 N792 2.022 . S
Co783 N800 1.993 . S
Co783 O808 1.941 . S
C784 O785 1.258 . S
C784 O786 1.263 . S
O785 Co782 1.970 . S
O785 C784 1.258 . S
O786 Co783 1.966 . S
O786 C784 1.263 . S
C787 O788 1.235 . S
C787 O814 1.289 . S
O788 C787 1.235 . S
C789 C791 1.400 . S
C789 N792 1.351 . S
C789 C794 1.501 . S
C790 C791 1.387 . S
C790 N793 1.341 . S
C791 C789 1.400 . S
C791 C790 1.387 . S
N792 Co783 2.022 . S
N792 C789 1.351 . S
N792 N793 1.365 . S
N793 C790 1.341 . S
N793 N792 1.365 . S
N793 H813 0.862 . S
C794 C789 1.501 . S
C794 H795 0.961 . S
C794 H796 0.961 . S
C794 H797 0.960 . S
H795 C794 0.961 . S
H796 C794 0.961 . S
H797 C794 0.960 . S
C798 N799 1.342 . S
C798 C802 1.401 . S
C798 C803 1.499 . S
N799 Co782 1.989 . S
N799 C798 1.342 . S
N799 N800 1.388 . S
N800 Co783 1.993 . S
N800 N799 1.388 . S
N800 C801 1.346 . S
C801 N800 1.346 . S
C801 C802 1.396 . S
C801 C811 1.510 . S
C802 C798 1.401 . S
C802 C801 1.396 . S
C803 C798 1.499 . S
C803 H804 0.959 . S
C803 H805 0.960 . S
C803 H806 0.961 . S
H804 C803 0.959 . S
H805 C803 0.960 . S
H806 C803 0.961 . S
O807 Co782 1.967 . S
O807 C815 1.258 . S
O808 Co783 1.941 . S
O808 C815 1.266 . S
H809 C811 0.959 . S
H810 C811 0.961 . S
C811 C801 1.510 . S
C811 H809 0.959 . S
C811 H810 0.961 . S
C811 H812 0.960 . S
H812 C811 0.960 . S
H813 N793 0.862 . S
O814 Co782 1.920 . S
O814 C787 1.289 . S
C815 O807 1.258 . S
C815 O808 1.266 . S
Co816 O819 1.970 . S
Co816 N833 1.989 . S
Co816 O841 1.967 . S
Co816 O848 1.920 . S
Co817 O820 1.966 . S
Co817 N826 2.022 . S
Co817 N834 1.993 . S
Co817 O842 1.941 . S
C818 O819 1.258 . S
C818 O820 1.263 . S
O819 Co816 1.970 . S
O819 C818 1.258 . S
O820 Co817 1.966 . S
O820 C818 1.263 . S
C821 O822 1.235 . S
C821 O848 1.289 1_554 S
O822 C821 1.235 . S
C823 C825 1.400 . S
C823 N826 1.351 . S
C823 C828 1.501 . S
C824 C825 1.387 . S
C824 N827 1.341 . S
C825 C823 1.400 . S
C825 C824 1.387 . S
N826 Co817 2.022 . S
N826 C823 1.351 . S
N826 N827 1.365 . S
N827 C824 1.341 . S
N827 N826 1.365 . S
N827 H847 0.862 . S
C828 C823 1.501 . S
C828 H829 0.961 . S
C828 H830 0.961 . S
C828 H831 0.960 . S
H829 C828 0.961 . S
H830 C828 0.961 . S
H831 C828 0.960 . S
C832 N833 1.342 . S
C832 C836 1.401 . S
C832 C837 1.499 . S
N833 Co816 1.989 . S
N833 C832 1.342 . S
N833 N834 1.388 . S
N834 Co817 1.993 . S
N834 N833 1.388 . S
N834 C835 1.346 . S
C835 N834 1.346 . S
C835 C836 1.396 . S
C835 C845 1.510 . S
C836 C832 1.401 . S
C836 C835 1.396 . S
C837 C832 1.499 . S
C837 H838 0.959 . S
C837 H839 0.960 . S
C837 H840 0.961 . S
H838 C837 0.959 . S
H839 C837 0.960 . S
H840 C837 0.961 . S
O841 Co816 1.967 . S
O841 C849 1.258 . S
O842 Co817 1.941 . S
O842 C849 1.266 . S
H843 C845 0.959 . S
H844 C845 0.961 . S
C845 C835 1.510 . S
C845 H843 0.959 . S
C845 H844 0.961 . S
C845 H846 0.960 . S
H846 C845 0.960 . S
H847 N827 0.862 . S
O848 Co816 1.920 . S
O848 C821 1.289 1_556 S
C849 O841 1.258 . S
C849 O842 1.266 . S
Co850 O853 1.970 . S
Co850 N867 1.989 . S
Co850 O875 1.967 . S
Co850 O882 1.920 . S
Co851 O854 1.966 . S
Co851 N860 2.022 . S
Co851 N868 1.993 . S
Co851 O876 1.941 . S
C852 O853 1.258 . S
C852 O854 1.263 . S
O853 Co850 1.970 . S
O853 C852 1.258 . S
O854 Co851 1.966 . S
O854 C852 1.263 . S
C855 O856 1.235 . S
C855 O882 1.289 . S
O856 C855 1.235 . S
C857 C859 1.400 . S
C857 N860 1.351 . S
C857 C862 1.501 . S
C858 C859 1.387 . S
C858 N861 1.341 . S
C859 C857 1.400 . S
C859 C858 1.387 . S
N860 Co851 2.022 . S
N860 C857 1.351 . S
N860 N861 1.365 . S
N861 C858 1.341 . S
N861 N860 1.365 . S
N861 H881 0.862 . S
C862 C857 1.501 . S
C862 H863 0.961 . S
C862 H864 0.961 . S
C862 H865 0.960 . S
H863 C862 0.961 . S
H864 C862 0.961 . S
H865 C862 0.960 . S
C866 N867 1.342 . S
C866 C870 1.401 . S
C866 C871 1.499 . S
N867 Co850 1.989 . S
N867 C866 1.342 . S
N867 N868 1.388 . S
N868 Co851 1.993 . S
N868 N867 1.388 . S
N868 C869 1.346 . S
C869 N868 1.346 . S
C869 C870 1.396 . S
C869 C879 1.510 . S
C870 C866 1.401 . S
C870 C869 1.396 . S
C871 C866 1.499 . S
C871 H872 0.959 . S
C871 H873 0.960 . S
C871 H874 0.961 . S
H872 C871 0.959 . S
H873 C871 0.960 . S
H874 C871 0.961 . S
O875 Co850 1.967 . S
O875 C883 1.258 . S
O876 Co851 1.941 . S
O876 C883 1.266 . S
H877 C879 0.959 . S
H878 C879 0.961 . S
C879 C869 1.510 . S
C879 H877 0.959 . S
C879 H878 0.961 . S
C879 H880 0.960 . S
H880 C879 0.960 . S
H881 N861 0.862 . S
O882 Co850 1.920 . S
O882 C855 1.289 . S
C883 O875 1.258 . S
C883 O876 1.266 . S
Co884 O887 1.970 . S
Co884 N901 1.989 . S
Co884 O909 1.967 . S
Co884 O916 1.920 . S
Co885 O888 1.966 . S
Co885 N894 2.022 1_655 S
Co885 N902 1.987 1_655 S
Co885 O910 1.941 . S
C886 O887 1.258 . S
C886 O888 1.263 . S
O887 Co884 1.970 . S
O887 C886 1.258 . S
O888 Co885 1.966 . S
O888 C886 1.263 . S
C889 O890 1.235 . S
C889 O916 1.289 . S
O890 C889 1.235 . S
C891 C893 1.400 . S
C891 N894 1.351 . S
C891 C896 1.501 . S
C892 C893 1.387 . S
C892 N895 1.341 . S
C893 C891 1.400 . S
C893 C892 1.387 . S
N894 Co885 2.022 1_455 S
N894 C891 1.351 . S
N894 N895 1.365 . S
N895 C892 1.341 . S
N895 N894 1.365 . S
N895 H915 0.862 1_455 S
C896 C891 1.501 . S
C896 H897 0.961 . S
C896 H898 0.961 . S
C896 H899 0.960 . S
H897 C896 0.961 . S
H898 C896 0.961 . S
H899 C896 0.960 . S
C900 N901 1.342 . S
C900 C904 1.401 1_655 S
C900 C905 1.499 . S
N901 Co884 1.989 . S
N901 C900 1.342 . S
N901 N902 1.380 1_655 S
N902 Co885 1.987 1_455 S
N902 N901 1.380 1_455 S
N902 C903 1.356 . S
C903 N902 1.356 . S
C903 C904 1.396 . S
C903 C913 1.510 . S
C904 C900 1.401 1_455 S
C904 C903 1.396 . S
C905 C900 1.499 . S
C905 H906 0.959 . S
C905 H907 0.970 . S
C905 H908 0.961 . S
H906 C905 0.959 . S
H907 C905 0.970 . S
H908 C905 0.961 . S
O909 Co884 1.967 . S
O909 C917 1.258 . S
O910 Co885 1.941 . S
O910 C917 1.266 . S
H911 C913 0.959 . S
H912 C913 0.961 . S
C913 C903 1.510 . S
C913 H911 0.959 . S
C913 H912 0.961 . S
C913 H914 0.960 . S
H914 C913 0.960 . S
H915 N895 0.862 1_655 S
O916 Co884 1.920 . S
O916 C889 1.289 . S
C917 O909 1.258 . S
C917 O910 1.266 . S
Co918 O921 1.970 . S
Co918 N935 1.989 . S
Co918 O943 1.967 . S
Co918 O950 1.920 . S
Co919 O922 1.966 . S
Co919 N928 2.022 . S
Co919 N936 1.993 . S
Co919 O944 1.941 . S
C920 O921 1.258 . S
C920 O922 1.263 . S
O921 Co918 1.970 . S
O921 C920 1.258 . S
O922 Co919 1.966 . S
O922 C920 1.263 . S
C923 O924 1.235 . S
C923 O950 1.289 . S
O924 C923 1.235 . S
C925 C927 1.400 . S
C925 N928 1.351 . S
C925 C930 1.501 . S
C926 C927 1.387 . S
C926 N929 1.341 . S
C927 C925 1.400 . S
C927 C926 1.387 . S
N928 Co919 2.022 . S
N928 C925 1.351 . S
N928 N929 1.365 . S
N929 C926 1.341 . S
N929 N928 1.365 . S
N929 H949 0.862 . S
C930 C925 1.501 . S
C930 H931 0.961 . S
C930 H932 0.961 . S
C930 H933 0.960 . S
H931 C930 0.961 . S
H932 C930 0.961 . S
H933 C930 0.960 . S
C934 N935 1.342 . S
C934 C938 1.401 . S
C934 C939 1.499 . S
N935 Co918 1.989 . S
N935 C934 1.342 . S
N935 N936 1.388 . S
N936 Co919 1.993 . S
N936 N935 1.388 . S
N936 C937 1.346 . S
C937 N936 1.346 . S
C937 C938 1.396 . S
C937 C947 1.510 . S
C938 C934 1.401 . S
C938 C937 1.396 . S
C939 C934 1.499 . S
C939 H940 0.959 . S
C939 H941 0.960 . S
C939 H942 0.961 . S
H940 C939 0.959 . S
H941 C939 0.960 . S
H942 C939 0.961 . S
O943 Co918 1.967 . S
O943 C951 1.258 . S
O944 Co919 1.941 . S
O944 C951 1.266 . S
H945 C947 0.959 . S
H946 C947 0.961 . S
C947 C937 1.510 . S
C947 H945 0.959 . S
C947 H946 0.961 . S
C947 H948 0.960 . S
H948 C947 0.960 . S
H949 N929 0.862 . S
O950 Co918 1.920 . S
O950 C923 1.289 . S
C951 O943 1.258 . S
C951 O944 1.266 . S
Co952 O955 1.970 . S
Co952 N969 1.989 . S
Co952 O977 1.967 . S
Co952 O984 1.920 . S
Co953 O956 1.966 . S
Co953 N962 2.022 . S
Co953 N970 1.993 . S
Co953 O978 1.941 . S
C954 O955 1.258 . S
C954 O956 1.263 . S
O955 Co952 1.970 . S
O955 C954 1.258 . S
O956 Co953 1.966 . S
O956 C954 1.263 . S
C957 O958 1.235 . S
C957 O984 1.289 . S
O958 C957 1.235 . S
C959 C961 1.400 . S
C959 N962 1.351 . S
C959 C964 1.501 . S
C960 C961 1.387 . S
C960 N963 1.341 . S
C961 C959 1.400 . S
C961 C960 1.387 . S
N962 Co953 2.022 . S
N962 C959 1.351 . S
N962 N963 1.365 . S
N963 C960 1.341 . S
N963 N962 1.365 . S
N963 H983 0.862 . S
C964 C959 1.501 . S
C964 H965 0.961 . S
C964 H966 0.961 . S
C964 H967 0.960 . S
H965 C964 0.961 . S
H966 C964 0.961 . S
H967 C964 0.960 . S
C968 N969 1.342 . S
C968 C972 1.401 . S
C968 C973 1.499 . S
N969 Co952 1.989 . S
N969 C968 1.342 . S
N969 N970 1.388 . S
N970 Co953 1.993 . S
N970 N969 1.388 . S
N970 C971 1.346 . S
C971 N970 1.346 . S
C971 C972 1.396 . S
C971 C981 1.510 . S
C972 C968 1.401 . S
C972 C971 1.396 . S
C973 C968 1.499 . S
C973 H974 0.959 . S
C973 H975 0.960 . S
C973 H976 0.961 . S
H974 C973 0.959 . S
H975 C973 0.960 . S
H976 C973 0.961 . S
O977 Co952 1.967 . S
O977 C985 1.258 . S
O978 Co953 1.941 . S
O978 C985 1.266 . S
H979 C981 0.959 . S
H980 C981 0.961 . S
C981 C971 1.510 . S
C981 H979 0.959 . S
C981 H980 0.961 . S
C981 H982 0.960 . S
H982 C981 0.960 . S
H983 N963 0.862 . S
O984 Co952 1.920 . S
O984 C957 1.289 . S
C985 O977 1.258 . S
C985 O978 1.266 . S
Co986 O989 1.970 . S
Co986 N1003 1.989 . S
Co986 O1011 1.967 . S
Co986 O1018 1.920 . S
Co987 O990 1.966 . S
Co987 N996 2.022 . S
Co987 N1004 1.993 . S
Co987 O1012 1.941 . S
C988 O989 1.258 . S
C988 O990 1.263 . S
O989 Co986 1.970 . S
O989 C988 1.258 . S
O990 Co987 1.966 . S
O990 C988 1.263 . S
C991 O992 1.235 . S
C991 O1018 1.289 . S
O992 C991 1.235 . S
C993 C995 1.400 . S
C993 N996 1.351 . S
C993 C998 1.501 . S
C994 C995 1.387 . S
C994 N997 1.341 . S
C995 C993 1.400 . S
C995 C994 1.387 . S
N996 Co987 2.022 . S
N996 C993 1.351 . S
N996 N997 1.365 . S
N997 C994 1.341 . S
N997 N996 1.365 . S
N997 H1017 0.862 . S
C998 C993 1.501 . S
C998 H999 0.961 . S
C998 H1000 0.961 . S
C998 H1001 0.960 . S
H999 C998 0.961 . S
H1000 C998 0.961 . S
H1001 C998 0.960 . S
C1002 N1003 1.342 . S
C1002 C1006 1.401 . S
C1002 C1007 1.499 . S
N1003 Co986 1.989 . S
N1003 C1002 1.342 . S
N1003 N1004 1.388 . S
N1004 Co987 1.993 . S
N1004 N1003 1.388 . S
N1004 C1005 1.346 . S
C1005 N1004 1.346 . S
C1005 C1006 1.396 . S
C1005 C1015 1.510 . S
C1006 C1002 1.401 . S
C1006 C1005 1.396 . S
C1007 C1002 1.499 . S
C1007 H1008 0.959 . S
C1007 H1009 0.960 . S
C1007 H1010 0.961 . S
H1008 C1007 0.959 . S
H1009 C1007 0.960 . S
H1010 C1007 0.961 . S
O1011 Co986 1.967 . S
O1011 C1019 1.258 . S
O1012 Co987 1.941 . S
O1012 C1019 1.266 . S
H1013 C1015 0.959 . S
H1014 C1015 0.961 . S
C1015 C1005 1.510 . S
C1015 H1013 0.959 . S
C1015 H1014 0.961 . S
C1015 H1016 0.960 . S
H1016 C1015 0.960 . S
H1017 N997 0.862 . S
O1018 Co986 1.920 . S
O1018 C991 1.289 . S
C1019 O1011 1.258 . S
C1019 O1012 1.266 . S
Co1020 O1023 1.970 . S
Co1020 N1037 1.989 . S
Co1020 O1045 1.967 . S
Co1020 O1052 1.920 . S
Co1021 O1024 1.966 . S
Co1021 N1030 2.022 1_655 S
Co1021 N1038 1.987 1_655 S
Co1021 O1046 1.941 . S
C1022 O1023 1.258 . S
C1022 O1024 1.263 . S
O1023 Co1020 1.970 . S
O1023 C1022 1.258 . S
O1024 Co1021 1.966 . S
O1024 C1022 1.263 . S
C1025 O1026 1.235 . S
C1025 O1052 1.289 1_556 S
O1026 C1025 1.235 . S
C1027 C1029 1.400 . S
C1027 N1030 1.351 . S
C1027 C1032 1.501 . S
C1028 C1029 1.387 . S
C1028 N1031 1.341 . S
C1029 C1027 1.400 . S
C1029 C1028 1.387 . S
N1030 Co1021 2.022 1_455 S
N1030 C1027 1.351 . S
N1030 N1031 1.365 . S
N1031 C1028 1.341 . S
N1031 N1030 1.365 . S
N1031 H1051 0.862 1_455 S
C1032 C1027 1.501 . S
C1032 H1033 0.961 . S
C1032 H1034 0.961 . S
C1032 H1035 0.960 . S
H1033 C1032 0.961 . S
H1034 C1032 0.961 . S
H1035 C1032 0.960 . S
C1036 N1037 1.342 . S
C1036 C1040 1.401 1_655 S
C1036 C1041 1.499 . S
N1037 Co1020 1.989 . S
N1037 C1036 1.342 . S
N1037 N1038 1.380 1_655 S
N1038 Co1021 1.987 1_455 S
N1038 N1037 1.380 1_455 S
N1038 C1039 1.356 . S
C1039 N1038 1.356 . S
C1039 C1040 1.396 . S
C1039 C1049 1.510 . S
C1040 C1036 1.401 1_455 S
C1040 C1039 1.396 . S
C1041 C1036 1.499 . S
C1041 H1042 0.959 . S
C1041 H1043 0.970 . S
C1041 H1044 0.961 . S
H1042 C1041 0.959 . S
H1043 C1041 0.970 . S
H1044 C1041 0.961 . S
O1045 Co1020 1.967 . S
O1045 C1053 1.258 . S
O1046 Co1021 1.941 . S
O1046 C1053 1.266 . S
H1047 C1049 0.959 . S
H1048 C1049 0.961 . S
C1049 C1039 1.510 . S
C1049 H1047 0.959 . S
C1049 H1048 0.961 . S
C1049 H1050 0.960 . S
H1050 C1049 0.960 . S
H1051 N1031 0.862 1_655 S
O1052 Co1020 1.920 . S
O1052 C1025 1.289 1_554 S
C1053 O1045 1.258 . S
C1053 O1046 1.266 . S
Co1054 O1057 1.970 . S
Co1054 N1071 1.989 . S
Co1054 O1079 1.967 . S
Co1054 O1086 1.920 . S
Co1055 O1058 1.966 . S
Co1055 N1064 2.022 . S
Co1055 N1072 1.993 . S
Co1055 O1080 1.941 . S
C1056 O1057 1.258 . S
C1056 O1058 1.263 . S
O1057 Co1054 1.970 . S
O1057 C1056 1.258 . S
O1058 Co1055 1.966 . S
O1058 C1056 1.263 . S
C1059 O1060 1.235 . S
C1059 O1086 1.289 . S
O1060 C1059 1.235 . S
C1061 C1063 1.400 . S
C1061 N1064 1.351 . S
C1061 C1066 1.501 . S
C1062 C1063 1.387 . S
C1062 N1065 1.341 . S
C1063 C1061 1.400 . S
C1063 C1062 1.387 . S
N1064 Co1055 2.022 . S
N1064 C1061 1.351 . S
N1064 N1065 1.365 . S
N1065 C1062 1.341 . S
N1065 N1064 1.365 . S
N1065 H1085 0.862 . S
C1066 C1061 1.501 . S
C1066 H1067 0.961 . S
C1066 H1068 0.961 . S
C1066 H1069 0.960 . S
H1067 C1066 0.961 . S
H1068 C1066 0.961 . S
H1069 C1066 0.960 . S
C1070 N1071 1.342 . S
C1070 C1074 1.401 . S
C1070 C1075 1.499 . S
N1071 Co1054 1.989 . S
N1071 C1070 1.342 . S
N1071 N1072 1.388 . S
N1072 Co1055 1.993 . S
N1072 N1071 1.388 . S
N1072 C1073 1.346 . S
C1073 N1072 1.346 . S
C1073 C1074 1.396 . S
C1073 C1083 1.510 . S
C1074 C1070 1.401 . S
C1074 C1073 1.396 . S
C1075 C1070 1.499 . S
C1075 H1076 0.959 . S
C1075 H1077 0.960 . S
C1075 H1078 0.961 . S
H1076 C1075 0.959 . S
H1077 C1075 0.960 . S
H1078 C1075 0.961 . S
O1079 Co1054 1.967 . S
O1079 C1087 1.258 . S
O1080 Co1055 1.941 . S
O1080 C1087 1.266 . S
H1081 C1083 0.959 . S
H1082 C1083 0.961 . S
C1083 C1073 1.510 . S
C1083 H1081 0.959 . S
C1083 H1082 0.961 . S
C1083 H1084 0.960 . S
H1084 C1083 0.960 . S
H1085 N1065 0.862 . S
O1086 Co1054 1.920 . S
O1086 C1059 1.289 . S
C1087 O1079 1.258 . S
C1087 O1080 1.266 . S
Co1088 O1091 1.970 . S
Co1088 N1105 1.989 . S
Co1088 O1113 1.967 . S
Co1088 O1120 1.920 . S
Co1089 O1092 1.966 . S
Co1089 N1098 2.022 . S
Co1089 N1106 1.993 . S
Co1089 O1114 1.941 . S
C1090 O1091 1.258 . S
C1090 O1092 1.263 . S
O1091 Co1088 1.970 . S
O1091 C1090 1.258 . S
O1092 Co1089 1.966 . S
O1092 C1090 1.263 . S
C1093 O1094 1.235 . S
C1093 O1120 1.289 1_455 S
O1094 C1093 1.235 . S
C1095 C1097 1.400 . S
C1095 N1098 1.351 . S
C1095 C1100 1.501 . S
C1096 C1097 1.387 . S
C1096 N1099 1.341 . S
C1097 C1095 1.400 . S
C1097 C1096 1.387 . S
N1098 Co1089 2.022 . S
N1098 C1095 1.351 . S
N1098 N1099 1.365 . S
N1099 C1096 1.341 . S
N1099 N1098 1.365 . S
N1099 H1119 0.862 . S
C1100 C1095 1.501 . S
C1100 H1101 0.961 . S
C1100 H1102 0.961 . S
C1100 H1103 0.960 . S
H1101 C1100 0.961 . S
H1102 C1100 0.961 . S
H1103 C1100 0.960 . S
C1104 N1105 1.342 . S
C1104 C1108 1.401 . S
C1104 C1109 1.499 . S
N1105 Co1088 1.989 . S
N1105 C1104 1.342 . S
N1105 N1106 1.388 . S
N1106 Co1089 1.993 . S
N1106 N1105 1.388 . S
N1106 C1107 1.346 . S
C1107 N1106 1.346 . S
C1107 C1108 1.396 . S
C1107 C1117 1.510 . S
C1108 C1104 1.401 . S
C1108 C1107 1.396 . S
C1109 C1104 1.499 . S
C1109 H1110 0.959 . S
C1109 H1111 0.960 . S
C1109 H1112 0.961 . S
H1110 C1109 0.959 . S
H1111 C1109 0.960 . S
H1112 C1109 0.961 . S
O1113 Co1088 1.967 . S
O1113 C1121 1.258 . S
O1114 Co1089 1.941 . S
O1114 C1121 1.266 . S
H1115 C1117 0.959 . S
H1116 C1117 0.961 . S
C1117 C1107 1.510 . S
C1117 H1115 0.959 . S
C1117 H1116 0.961 . S
C1117 H1118 0.960 . S
H1118 C1117 0.960 . S
H1119 N1099 0.862 . S
O1120 Co1088 1.920 . S
O1120 C1093 1.289 1_655 S
C1121 O1113 1.258 . S
C1121 O1114 1.266 . S
Co1122 O1125 1.970 . S
Co1122 N1139 1.989 . S
Co1122 O1147 1.967 . S
Co1122 O1154 1.920 . S
Co1123 O1126 1.966 . S
Co1123 N1132 2.022 . S
Co1123 N1140 1.993 . S
Co1123 O1148 1.941 . S
C1124 O1125 1.258 . S
C1124 O1126 1.263 . S
O1125 Co1122 1.970 . S
O1125 C1124 1.258 . S
O1126 Co1123 1.966 . S
O1126 C1124 1.263 . S
C1127 O1128 1.235 . S
C1127 O1154 1.289 . S
O1128 C1127 1.235 . S
C1129 C1131 1.400 . S
C1129 N1132 1.351 . S
C1129 C1134 1.501 . S
C1130 C1131 1.387 . S
C1130 N1133 1.341 . S
C1131 C1129 1.400 . S
C1131 C1130 1.387 . S
N1132 Co1123 2.022 . S
N1132 C1129 1.351 . S
N1132 N1133 1.365 . S
N1133 C1130 1.341 . S
N1133 N1132 1.365 . S
N1133 H1153 0.862 . S
C1134 C1129 1.501 . S
C1134 H1135 0.961 . S
C1134 H1136 0.961 . S
C1134 H1137 0.960 . S
H1135 C1134 0.961 . S
H1136 C1134 0.961 . S
H1137 C1134 0.960 . S
C1138 N1139 1.342 . S
C1138 C1142 1.401 . S
C1138 C1143 1.499 . S
N1139 Co1122 1.989 . S
N1139 C1138 1.342 . S
N1139 N1140 1.388 . S
N1140 Co1123 1.993 . S
N1140 N1139 1.388 . S
N1140 C1141 1.346 . S
C1141 N1140 1.346 . S
C1141 C1142 1.396 . S
C1141 C1151 1.510 . S
C1142 C1138 1.401 . S
C1142 C1141 1.396 . S
C1143 C1138 1.499 . S
C1143 H1144 0.959 . S
C1143 H1145 0.960 . S
C1143 H1146 0.961 . S
H1144 C1143 0.959 . S
H1145 C1143 0.960 . S
H1146 C1143 0.961 . S
O1147 Co1122 1.967 . S
O1147 C1155 1.258 . S
O1148 Co1123 1.941 . S
O1148 C1155 1.266 . S
H1149 C1151 0.959 . S
H1150 C1151 0.961 . S
C1151 C1141 1.510 . S
C1151 H1149 0.959 . S
C1151 H1150 0.961 . S
C1151 H1152 0.960 . S
H1152 C1151 0.960 . S
H1153 N1133 0.862 . S
O1154 Co1122 1.920 . S
O1154 C1127 1.289 . S
C1155 O1147 1.258 . S
C1155 O1148 1.266 . S
Co1156 O1159 1.970 . S
Co1156 N1173 1.989 . S
Co1156 O1181 1.967 . S
Co1156 O1188 1.920 . S
Co1157 O1160 1.966 . S
Co1157 N1166 2.022 . S
Co1157 N1174 1.993 . S
Co1157 O1182 1.941 . S
C1158 O1159 1.258 . S
C1158 O1160 1.263 . S
O1159 Co1156 1.970 . S
O1159 C1158 1.258 . S
O1160 Co1157 1.966 . S
O1160 C1158 1.263 . S
C1161 O1162 1.235 . S
C1161 O1188 1.289 . S
O1162 C1161 1.235 . S
C1163 C1165 1.400 . S
C1163 N1166 1.351 . S
C1163 C1168 1.501 . S
C1164 C1165 1.387 . S
C1164 N1167 1.341 . S
C1165 C1163 1.400 . S
C1165 C1164 1.387 . S
N1166 Co1157 2.022 . S
N1166 C1163 1.351 . S
N1166 N1167 1.365 . S
N1167 C1164 1.341 . S
N1167 N1166 1.365 . S
N1167 H1187 0.862 . S
C1168 C1163 1.501 . S
C1168 H1169 0.961 . S
C1168 H1170 0.961 . S
C1168 H1171 0.960 . S
H1169 C1168 0.961 . S
H1170 C1168 0.961 . S
H1171 C1168 0.960 . S
C1172 N1173 1.342 . S
C1172 C1176 1.401 . S
C1172 C1177 1.499 . S
N1173 Co1156 1.989 . S
N1173 C1172 1.342 . S
N1173 N1174 1.388 . S
N1174 Co1157 1.993 . S
N1174 N1173 1.388 . S
N1174 C1175 1.346 . S
C1175 N1174 1.346 . S
C1175 C1176 1.396 . S
C1175 C1185 1.510 . S
C1176 C1172 1.401 . S
C1176 C1175 1.396 . S
C1177 C1172 1.499 . S
C1177 H1178 0.959 . S
C1177 H1179 0.960 . S
C1177 H1180 0.961 . S
H1178 C1177 0.959 . S
H1179 C1177 0.960 . S
H1180 C1177 0.961 . S
O1181 Co1156 1.967 . S
O1181 C1189 1.258 . S
O1182 Co1157 1.941 . S
O1182 C1189 1.266 . S
H1183 C1185 0.959 . S
H1184 C1185 0.961 . S
C1185 C1175 1.510 . S
C1185 H1183 0.959 . S
C1185 H1184 0.961 . S
C1185 H1186 0.960 . S
H1186 C1185 0.960 . S
H1187 N1167 0.862 . S
O1188 Co1156 1.920 . S
O1188 C1161 1.289 . S
C1189 O1181 1.258 . S
C1189 O1182 1.266 . S
Co1190 O1193 1.970 . S
Co1190 N1207 1.989 . S
Co1190 O1215 1.967 . S
Co1190 O1222 1.920 . S
Co1191 O1194 1.966 . S
Co1191 N1200 2.022 . S
Co1191 N1208 1.993 . S
Co1191 O1216 1.941 . S
C1192 O1193 1.258 . S
C1192 O1194 1.263 . S
O1193 Co1190 1.970 . S
O1193 C1192 1.258 . S
O1194 Co1191 1.966 . S
O1194 C1192 1.263 . S
C1195 O1196 1.235 . S
C1195 O1222 1.289 . S
O1196 C1195 1.235 . S
C1197 C1199 1.400 . S
C1197 N1200 1.351 . S
C1197 C1202 1.501 . S
C1198 C1199 1.387 . S
C1198 N1201 1.341 . S
C1199 C1197 1.400 . S
C1199 C1198 1.387 . S
N1200 Co1191 2.022 . S
N1200 C1197 1.351 . S
N1200 N1201 1.365 . S
N1201 C1198 1.341 . S
N1201 N1200 1.365 . S
N1201 H1221 0.862 . S
C1202 C1197 1.501 . S
C1202 H1203 0.961 . S
C1202 H1204 0.961 . S
C1202 H1205 0.960 . S
H1203 C1202 0.961 . S
H1204 C1202 0.961 . S
H1205 C1202 0.960 . S
C1206 N1207 1.342 . S
C1206 C1210 1.401 . S
C1206 C1211 1.499 . S
N1207 Co1190 1.989 . S
N1207 C1206 1.342 . S
N1207 N1208 1.388 . S
N1208 Co1191 1.993 . S
N1208 N1207 1.388 . S
N1208 C1209 1.346 . S
C1209 N1208 1.346 . S
C1209 C1210 1.396 . S
C1209 C1219 1.510 . S
C1210 C1206 1.401 . S
C1210 C1209 1.396 . S
C1211 C1206 1.499 . S
C1211 H1212 0.959 . S
C1211 H1213 0.960 . S
C1211 H1214 0.961 . S
H1212 C1211 0.959 . S
H1213 C1211 0.960 . S
H1214 C1211 0.961 . S
O1215 Co1190 1.967 . S
O1215 C1223 1.258 . S
O1216 Co1191 1.941 . S
O1216 C1223 1.266 . S
H1217 C1219 0.959 . S
H1218 C1219 0.961 . S
C1219 C1209 1.510 . S
C1219 H1217 0.959 . S
C1219 H1218 0.961 . S
C1219 H1220 0.960 . S
H1220 C1219 0.960 . S
H1221 N1201 0.862 . S
O1222 Co1190 1.920 . S
O1222 C1195 1.289 . S
C1223 O1215 1.258 . S
C1223 O1216 1.266 . S
Co1224 O1227 1.970 . S
Co1224 N1241 1.989 . S
Co1224 O1249 1.967 . S
Co1224 O1256 1.920 . S
Co1225 O1228 1.966 . S
Co1225 N1234 2.022 . S
Co1225 N1242 1.993 . S
Co1225 O1250 1.941 . S
C1226 O1227 1.258 . S
C1226 O1228 1.263 . S
O1227 Co1224 1.970 . S
O1227 C1226 1.258 . S
O1228 Co1225 1.966 . S
O1228 C1226 1.263 . S
C1229 O1230 1.235 . S
C1229 O1256 1.289 1_455 S
O1230 C1229 1.235 . S
C1231 C1233 1.400 . S
C1231 N1234 1.351 . S
C1231 C1236 1.501 . S
C1232 C1233 1.387 . S
C1232 N1235 1.341 . S
C1233 C1231 1.400 . S
C1233 C1232 1.387 . S
N1234 Co1225 2.022 . S
N1234 C1231 1.351 . S
N1234 N1235 1.365 . S
N1235 C1232 1.341 . S
N1235 N1234 1.365 . S
N1235 H1255 0.862 . S
C1236 C1231 1.501 . S
C1236 H1237 0.961 . S
C1236 H1238 0.961 . S
C1236 H1239 0.960 . S
H1237 C1236 0.961 . S
H1238 C1236 0.961 . S
H1239 C1236 0.960 . S
C1240 N1241 1.342 . S
C1240 C1244 1.401 . S
C1240 C1245 1.499 . S
N1241 Co1224 1.989 . S
N1241 C1240 1.342 . S
N1241 N1242 1.388 . S
N1242 Co1225 1.993 . S
N1242 N1241 1.388 . S
N1242 C1243 1.346 . S
C1243 N1242 1.346 . S
C1243 C1244 1.396 . S
C1243 C1253 1.510 . S
C1244 C1240 1.401 . S
C1244 C1243 1.396 . S
C1245 C1240 1.499 . S
C1245 H1246 0.959 . S
C1245 H1247 0.960 . S
C1245 H1248 0.961 . S
H1246 C1245 0.959 . S
H1247 C1245 0.960 . S
H1248 C1245 0.961 . S
O1249 Co1224 1.967 . S
O1249 C1257 1.258 . S
O1250 Co1225 1.941 . S
O1250 C1257 1.266 . S
H1251 C1253 0.959 . S
H1252 C1253 0.961 . S
C1253 C1243 1.510 . S
C1253 H1251 0.959 . S
C1253 H1252 0.961 . S
C1253 H1254 0.960 . S
H1254 C1253 0.960 . S
H1255 N1235 0.862 . S
O1256 Co1224 1.920 . S
O1256 C1229 1.289 1_655 S
C1257 O1249 1.258 . S
C1257 O1250 1.266 . S
Co1258 O1261 1.970 . S
Co1258 N1275 1.989 . S
Co1258 O1283 1.967 . S
Co1258 O1290 1.920 . S
Co1259 O1262 1.966 . S
Co1259 N1268 2.022 . S
Co1259 N1276 1.993 . S
Co1259 O1284 1.941 . S
C1260 O1261 1.258 . S
C1260 O1262 1.263 . S
O1261 Co1258 1.970 . S
O1261 C1260 1.258 . S
O1262 Co1259 1.966 . S
O1262 C1260 1.263 . S
C1263 O1264 1.235 . S
C1263 O1290 1.289 . S
O1264 C1263 1.235 . S
C1265 C1267 1.400 . S
C1265 N1268 1.351 . S
C1265 C1270 1.501 . S
C1266 C1267 1.387 . S
C1266 N1269 1.341 . S
C1267 C1265 1.400 . S
C1267 C1266 1.387 . S
N1268 Co1259 2.022 . S
N1268 C1265 1.351 . S
N1268 N1269 1.365 . S
N1269 C1266 1.341 . S
N1269 N1268 1.365 . S
N1269 H1289 0.862 . S
C1270 C1265 1.501 . S
C1270 H1271 0.961 . S
C1270 H1272 0.961 . S
C1270 H1273 0.960 . S
H1271 C1270 0.961 . S
H1272 C1270 0.961 . S
H1273 C1270 0.960 . S
C1274 N1275 1.342 . S
C1274 C1278 1.401 . S
C1274 C1279 1.499 . S
N1275 Co1258 1.989 . S
N1275 C1274 1.342 . S
N1275 N1276 1.388 . S
N1276 Co1259 1.993 . S
N1276 N1275 1.388 . S
N1276 C1277 1.346 . S
C1277 N1276 1.346 . S
C1277 C1278 1.396 . S
C1277 C1287 1.510 . S
C1278 C1274 1.401 . S
C1278 C1277 1.396 . S
C1279 C1274 1.499 . S
C1279 H1280 0.959 . S
C1279 H1281 0.960 . S
C1279 H1282 0.961 . S
H1280 C1279 0.959 . S
H1281 C1279 0.960 . S
H1282 C1279 0.961 . S
O1283 Co1258 1.967 . S
O1283 C1291 1.258 . S
O1284 Co1259 1.941 . S
O1284 C1291 1.266 . S
H1285 C1287 0.959 . S
H1286 C1287 0.961 . S
C1287 C1277 1.510 . S
C1287 H1285 0.959 . S
C1287 H1286 0.961 . S
C1287 H1288 0.960 . S
H1288 C1287 0.960 . S
H1289 N1269 0.862 . S
O1290 Co1258 1.920 . S
O1290 C1263 1.289 . S
C1291 O1283 1.258 . S
C1291 O1284 1.266 . S
Co1292 O1295 1.970 . S
Co1292 N1309 1.989 . S
Co1292 O1317 1.967 . S
Co1292 O1324 1.920 . S
Co1293 O1296 1.966 . S
Co1293 N1302 2.022 . S
Co1293 N1310 1.993 . S
Co1293 O1318 1.941 . S
C1294 O1295 1.258 . S
C1294 O1296 1.263 . S
O1295 Co1292 1.970 . S
O1295 C1294 1.258 . S
O1296 Co1293 1.966 . S
O1296 C1294 1.263 . S
C1297 O1298 1.235 . S
C1297 O1324 1.289 . S
O1298 C1297 1.235 . S
C1299 C1301 1.400 . S
C1299 N1302 1.351 . S
C1299 C1304 1.501 . S
C1300 C1301 1.387 . S
C1300 N1303 1.341 . S
C1301 C1299 1.400 . S
C1301 C1300 1.387 . S
N1302 Co1293 2.022 . S
N1302 C1299 1.351 . S
N1302 N1303 1.365 . S
N1303 C1300 1.341 . S
N1303 N1302 1.365 . S
N1303 H1323 0.862 . S
C1304 C1299 1.501 . S
C1304 H1305 0.961 . S
C1304 H1306 0.961 . S
C1304 H1307 0.960 . S
H1305 C1304 0.961 . S
H1306 C1304 0.961 . S
H1307 C1304 0.960 . S
C1308 N1309 1.342 . S
C1308 C1312 1.401 . S
C1308 C1313 1.499 . S
N1309 Co1292 1.989 . S
N1309 C1308 1.342 . S
N1309 N1310 1.388 . S
N1310 Co1293 1.993 . S
N1310 N1309 1.388 . S
N1310 C1311 1.346 . S
C1311 N1310 1.346 . S
C1311 C1312 1.396 . S
C1311 C1321 1.510 . S
C1312 C1308 1.401 . S
C1312 C1311 1.396 . S
C1313 C1308 1.499 . S
C1313 H1314 0.959 . S
C1313 H1315 0.960 . S
C1313 H1316 0.961 . S
H1314 C1313 0.959 . S
H1315 C1313 0.960 . S
H1316 C1313 0.961 . S
O1317 Co1292 1.967 . S
O1317 C1325 1.258 . S
O1318 Co1293 1.941 . S
O1318 C1325 1.266 . S
H1319 C1321 0.959 . S
H1320 C1321 0.961 . S
C1321 C1311 1.510 . S
C1321 H1319 0.959 . S
C1321 H1320 0.961 . S
C1321 H1322 0.960 . S
H1322 C1321 0.960 . S
H1323 N1303 0.862 . S
O1324 Co1292 1.920 . S
O1324 C1297 1.289 . S
C1325 O1317 1.258 . S
C1325 O1318 1.266 . S
Co1326 O1329 1.970 . S
Co1326 N1343 1.989 . S
Co1326 O1351 1.967 . S
Co1326 O1358 1.920 . S
Co1327 O1330 1.966 . S
Co1327 N1336 2.022 . S
Co1327 N1344 1.993 . S
Co1327 O1352 1.941 . S
C1328 O1329 1.258 . S
C1328 O1330 1.263 . S
O1329 Co1326 1.970 . S
O1329 C1328 1.258 . S
O1330 Co1327 1.966 . S
O1330 C1328 1.263 . S
C1331 O1332 1.235 . S
C1331 O1358 1.289 . S
O1332 C1331 1.235 . S
C1333 C1335 1.400 . S
C1333 N1336 1.351 . S
C1333 C1338 1.501 . S
C1334 C1335 1.387 . S
C1334 N1337 1.341 . S
C1335 C1333 1.400 . S
C1335 C1334 1.387 . S
N1336 Co1327 2.022 . S
N1336 C1333 1.351 . S
N1336 N1337 1.365 . S
N1337 C1334 1.341 . S
N1337 N1336 1.365 . S
N1337 H1357 0.862 . S
C1338 C1333 1.501 . S
C1338 H1339 0.961 . S
C1338 H1340 0.961 . S
C1338 H1341 0.960 . S
H1339 C1338 0.961 . S
H1340 C1338 0.961 . S
H1341 C1338 0.960 . S
C1342 N1343 1.342 . S
C1342 C1346 1.401 . S
C1342 C1347 1.499 . S
N1343 Co1326 1.989 . S
N1343 C1342 1.342 . S
N1343 N1344 1.388 . S
N1344 Co1327 1.993 . S
N1344 N1343 1.388 . S
N1344 C1345 1.346 . S
C1345 N1344 1.346 . S
C1345 C1346 1.396 . S
C1345 C1355 1.510 . S
C1346 C1342 1.401 . S
C1346 C1345 1.396 . S
C1347 C1342 1.499 . S
C1347 H1348 0.959 . S
C1347 H1349 0.960 . S
C1347 H1350 0.961 . S
H1348 C1347 0.959 . S
H1349 C1347 0.960 . S
H1350 C1347 0.961 . S
O1351 Co1326 1.967 . S
O1351 C1359 1.258 . S
O1352 Co1327 1.941 . S
O1352 C1359 1.266 . S
H1353 C1355 0.959 . S
H1354 C1355 0.961 . S
C1355 C1345 1.510 . S
C1355 H1353 0.959 . S
C1355 H1354 0.961 . S
C1355 H1356 0.960 . S
H1356 C1355 0.960 . S
H1357 N1337 0.862 . S
O1358 Co1326 1.920 . S
O1358 C1331 1.289 . S
C1359 O1351 1.258 . S
C1359 O1352 1.266 . S
Co1360 O1363 1.970 . S
Co1360 N1377 1.989 . S
Co1360 O1385 1.967 . S
Co1360 O1392 1.920 . S
Co1361 O1364 1.966 . S
Co1361 N1370 2.022 . S
Co1361 N1378 1.993 . S
Co1361 O1386 1.941 . S
C1362 O1363 1.258 . S
C1362 O1364 1.263 . S
O1363 Co1360 1.970 . S
O1363 C1362 1.258 . S
O1364 Co1361 1.966 . S
O1364 C1362 1.263 . S
C1365 O1366 1.235 . S
C1365 O1392 1.289 1_545 S
O1366 C1365 1.235 . S
C1367 C1369 1.400 . S
C1367 N1370 1.351 . S
C1367 C1372 1.501 . S
C1368 C1369 1.387 . S
C1368 N1371 1.341 . S
C1369 C1367 1.400 . S
C1369 C1368 1.387 . S
N1370 Co1361 2.022 . S
N1370 C1367 1.351 . S
N1370 N1371 1.365 . S
N1371 C1368 1.341 . S
N1371 N1370 1.365 . S
N1371 H1391 0.862 . S
C1372 C1367 1.501 . S
C1372 H1373 0.961 . S
C1372 H1374 0.961 . S
C1372 H1375 0.960 . S
H1373 C1372 0.961 . S
H1374 C1372 0.961 . S
H1375 C1372 0.960 . S
C1376 N1377 1.342 . S
C1376 C1380 1.401 . S
C1376 C1381 1.499 . S
N1377 Co1360 1.989 . S
N1377 C1376 1.342 . S
N1377 N1378 1.388 . S
N1378 Co1361 1.993 . S
N1378 N1377 1.388 . S
N1378 C1379 1.346 . S
C1379 N1378 1.346 . S
C1379 C1380 1.396 . S
C1379 C1389 1.510 . S
C1380 C1376 1.401 . S
C1380 C1379 1.396 . S
C1381 C1376 1.499 . S
C1381 H1382 0.959 . S
C1381 H1383 0.960 . S
C1381 H1384 0.961 . S
H1382 C1381 0.959 . S
H1383 C1381 0.960 . S
H1384 C1381 0.961 . S
O1385 Co1360 1.967 . S
O1385 C1393 1.258 . S
O1386 Co1361 1.941 . S
O1386 C1393 1.266 . S
H1387 C1389 0.959 . S
H1388 C1389 0.961 . S
C1389 C1379 1.510 . S
C1389 H1387 0.959 . S
C1389 H1388 0.961 . S
C1389 H1390 0.960 . S
H1390 C1389 0.960 . S
H1391 N1371 0.862 . S
O1392 Co1360 1.920 . S
O1392 C1365 1.289 1_565 S
C1393 O1385 1.258 . S
C1393 O1386 1.266 . S
Co1394 O1397 1.970 . S
Co1394 N1411 1.989 . S
Co1394 O1419 1.967 . S
Co1394 O1426 1.920 . S
Co1395 O1398 1.966 . S
Co1395 N1404 2.022 . S
Co1395 N1412 1.993 . S
Co1395 O1420 1.941 . S
C1396 O1397 1.258 . S
C1396 O1398 1.263 . S
O1397 Co1394 1.970 . S
O1397 C1396 1.258 . S
O1398 Co1395 1.966 . S
O1398 C1396 1.263 . S
C1399 O1400 1.235 . S
C1399 O1426 1.289 . S
O1400 C1399 1.235 . S
C1401 C1403 1.400 . S
C1401 N1404 1.351 . S
C1401 C1406 1.501 . S
C1402 C1403 1.387 . S
C1402 N1405 1.341 . S
C1403 C1401 1.400 . S
C1403 C1402 1.387 . S
N1404 Co1395 2.022 . S
N1404 C1401 1.351 . S
N1404 N1405 1.365 . S
N1405 C1402 1.341 . S
N1405 N1404 1.365 . S
N1405 H1425 0.862 . S
C1406 C1401 1.501 . S
C1406 H1407 0.961 . S
C1406 H1408 0.961 . S
C1406 H1409 0.960 . S
H1407 C1406 0.961 . S
H1408 C1406 0.961 . S
H1409 C1406 0.960 . S
C1410 N1411 1.342 . S
C1410 C1414 1.401 . S
C1410 C1415 1.499 . S
N1411 Co1394 1.989 . S
N1411 C1410 1.342 . S
N1411 N1412 1.388 . S
N1412 Co1395 1.993 . S
N1412 N1411 1.388 . S
N1412 C1413 1.346 . S
C1413 N1412 1.346 . S
C1413 C1414 1.396 . S
C1413 C1423 1.510 . S
C1414 C1410 1.401 . S
C1414 C1413 1.396 . S
C1415 C1410 1.499 . S
C1415 H1416 0.959 . S
C1415 H1417 0.960 . S
C1415 H1418 0.961 . S
H1416 C1415 0.959 . S
H1417 C1415 0.960 . S
H1418 C1415 0.961 . S
O1419 Co1394 1.967 . S
O1419 C1427 1.258 . S
O1420 Co1395 1.941 . S
O1420 C1427 1.266 . S
H1421 C1423 0.959 . S
H1422 C1423 0.961 . S
C1423 C1413 1.510 . S
C1423 H1421 0.959 . S
C1423 H1422 0.961 . S
C1423 H1424 0.960 . S
H1424 C1423 0.960 . S
H1425 N1405 0.862 . S
O1426 Co1394 1.920 . S
O1426 C1399 1.289 . S
C1427 O1419 1.258 . S
C1427 O1420 1.266 . S
Co1428 O1431 1.970 . S
Co1428 N1445 1.989 . S
Co1428 O1453 1.967 . S
Co1428 O1460 1.920 . S
Co1429 O1432 1.966 . S
Co1429 N1438 2.022 . S
Co1429 N1446 1.993 . S
Co1429 O1454 1.941 . S
C1430 O1431 1.258 . S
C1430 O1432 1.263 . S
O1431 Co1428 1.970 . S
O1431 C1430 1.258 . S
O1432 Co1429 1.966 . S
O1432 C1430 1.263 . S
C1433 O1434 1.235 . S
C1433 O1460 1.289 . S
O1434 C1433 1.235 . S
C1435 C1437 1.400 . S
C1435 N1438 1.351 . S
C1435 C1440 1.501 . S
C1436 C1437 1.387 . S
C1436 N1439 1.341 . S
C1437 C1435 1.400 . S
C1437 C1436 1.387 . S
N1438 Co1429 2.022 . S
N1438 C1435 1.351 . S
N1438 N1439 1.365 . S
N1439 C1436 1.341 . S
N1439 N1438 1.365 . S
N1439 H1459 0.862 . S
C1440 C1435 1.501 . S
C1440 H1441 0.961 . S
C1440 H1442 0.961 . S
C1440 H1443 0.960 . S
H1441 C1440 0.961 . S
H1442 C1440 0.961 . S
H1443 C1440 0.960 . S
C1444 N1445 1.342 . S
C1444 C1448 1.401 . S
C1444 C1449 1.499 . S
N1445 Co1428 1.989 . S
N1445 C1444 1.342 . S
N1445 N1446 1.388 . S
N1446 Co1429 1.993 . S
N1446 N1445 1.388 . S
N1446 C1447 1.346 . S
C1447 N1446 1.346 . S
C1447 C1448 1.396 . S
C1447 C1457 1.510 . S
C1448 C1444 1.401 . S
C1448 C1447 1.396 . S
C1449 C1444 1.499 . S
C1449 H1450 0.959 . S
C1449 H1451 0.960 . S
C1449 H1452 0.961 . S
H1450 C1449 0.959 . S
H1451 C1449 0.960 . S
H1452 C1449 0.961 . S
O1453 Co1428 1.967 . S
O1453 C1461 1.258 . S
O1454 Co1429 1.941 . S
O1454 C1461 1.266 . S
H1455 C1457 0.959 . S
H1456 C1457 0.961 . S
C1457 C1447 1.510 . S
C1457 H1455 0.959 . S
C1457 H1456 0.961 . S
C1457 H1458 0.960 . S
H1458 C1457 0.960 . S
H1459 N1439 0.862 . S
O1460 Co1428 1.920 . S
O1460 C1433 1.289 . S
C1461 O1453 1.258 . S
C1461 O1454 1.266 . S
Co1462 O1465 1.970 . S
Co1462 N1479 1.989 . S
Co1462 O1487 1.967 . S
Co1462 O1494 1.920 . S
Co1463 O1466 1.966 . S
Co1463 N1472 2.022 1_556 S
Co1463 N1480 1.987 1_556 S
Co1463 O1488 1.941 . S
C1464 O1465 1.258 . S
C1464 O1466 1.263 . S
O1465 Co1462 1.970 . S
O1465 C1464 1.258 . S
O1466 Co1463 1.966 . S
O1466 C1464 1.263 . S
C1467 O1468 1.235 . S
C1467 O1494 1.289 . S
O1468 C1467 1.235 . S
C1469 C1471 1.400 . S
C1469 N1472 1.351 . S
C1469 C1474 1.501 . S
C1470 C1471 1.387 . S
C1470 N1473 1.341 . S
C1471 C1469 1.400 . S
C1471 C1470 1.387 . S
N1472 Co1463 2.022 1_554 S
N1472 C1469 1.351 . S
N1472 N1473 1.365 . S
N1473 C1470 1.341 . S
N1473 N1472 1.365 . S
N1473 H1493 0.862 1_554 S
C1474 C1469 1.501 . S
C1474 H1475 0.961 . S
C1474 H1476 0.961 . S
C1474 H1477 0.960 . S
H1475 C1474 0.961 . S
H1476 C1474 0.961 . S
H1477 C1474 0.960 . S
C1478 N1479 1.342 . S
C1478 C1482 1.401 1_556 S
C1478 C1483 1.499 . S
N1479 Co1462 1.989 . S
N1479 C1478 1.342 . S
N1479 N1480 1.380 1_556 S
N1480 Co1463 1.987 1_554 S
N1480 N1479 1.380 1_554 S
N1480 C1481 1.356 . S
C1481 N1480 1.356 . S
C1481 C1482 1.396 . S
C1481 C1491 1.510 . S
C1482 C1478 1.401 1_554 S
C1482 C1481 1.396 . S
C1483 C1478 1.499 . S
C1483 H1484 0.959 . S
C1483 H1485 0.970 . S
C1483 H1486 0.961 . S
H1484 C1483 0.959 . S
H1485 C1483 0.970 . S
H1486 C1483 0.961 . S
O1487 Co1462 1.967 . S
O1487 C1495 1.258 . S
O1488 Co1463 1.941 . S
O1488 C1495 1.266 . S
H1489 C1491 0.959 . S
H1490 C1491 0.961 . S
C1491 C1481 1.510 . S
C1491 H1489 0.959 . S
C1491 H1490 0.961 . S
C1491 H1492 0.960 . S
H1492 C1491 0.960 . S
H1493 N1473 0.862 1_556 S
O1494 Co1462 1.920 . S
O1494 C1467 1.289 . S
C1495 O1487 1.258 . S
C1495 O1488 1.266 . S
Co1496 O1499 1.970 . S
Co1496 N1513 1.989 . S
Co1496 O1521 1.967 . S
Co1496 O1528 1.920 . S
Co1497 O1500 1.966 . S
Co1497 N1506 2.022 . S
Co1497 N1514 1.993 . S
Co1497 O1522 1.941 . S
C1498 O1499 1.258 . S
C1498 O1500 1.263 . S
O1499 Co1496 1.970 . S
O1499 C1498 1.258 . S
O1500 Co1497 1.966 . S
O1500 C1498 1.263 . S
C1501 O1502 1.235 . S
C1501 O1528 1.289 . S
O1502 C1501 1.235 . S
C1503 C1505 1.400 . S
C1503 N1506 1.351 . S
C1503 C1508 1.501 . S
C1504 C1505 1.387 . S
C1504 N1507 1.341 . S
C1505 C1503 1.400 . S
C1505 C1504 1.387 . S
N1506 Co1497 2.022 . S
N1506 C1503 1.351 . S
N1506 N1507 1.365 . S
N1507 C1504 1.341 . S
N1507 N1506 1.365 . S
N1507 H1527 0.862 . S
C1508 C1503 1.501 . S
C1508 H1509 0.961 . S
C1508 H1510 0.961 . S
C1508 H1511 0.960 . S
H1509 C1508 0.961 . S
H1510 C1508 0.961 . S
H1511 C1508 0.960 . S
C1512 N1513 1.342 . S
C1512 C1516 1.401 . S
C1512 C1517 1.499 . S
N1513 Co1496 1.989 . S
N1513 C1512 1.342 . S
N1513 N1514 1.388 . S
N1514 Co1497 1.993 . S
N1514 N1513 1.388 . S
N1514 C1515 1.346 . S
C1515 N1514 1.346 . S
C1515 C1516 1.396 . S
C1515 C1525 1.510 . S
C1516 C1512 1.401 . S
C1516 C1515 1.396 . S
C1517 C1512 1.499 . S
C1517 H1518 0.959 . S
C1517 H1519 0.960 . S
C1517 H1520 0.961 . S
H1518 C1517 0.959 . S
H1519 C1517 0.960 . S
H1520 C1517 0.961 . S
O1521 Co1496 1.967 . S
O1521 C1529 1.258 . S
O1522 Co1497 1.941 . S
O1522 C1529 1.266 . S
H1523 C1525 0.959 . S
H1524 C1525 0.961 . S
C1525 C1515 1.510 . S
C1525 H1523 0.959 . S
C1525 H1524 0.961 . S
C1525 H1526 0.960 . S
H1526 C1525 0.960 . S
H1527 N1507 0.862 . S
O1528 Co1496 1.920 . S
O1528 C1501 1.289 . S
C1529 O1521 1.258 . S
C1529 O1522 1.266 . S
Co1530 O1533 1.970 . S
Co1530 N1547 1.989 . S
Co1530 O1555 1.967 . S
Co1530 O1562 1.920 . S
Co1531 O1534 1.966 . S
Co1531 N1540 2.022 1_554 S
Co1531 N1548 1.987 1_554 S
Co1531 O1556 1.941 . S
C1532 O1533 1.258 . S
C1532 O1534 1.263 . S
O1533 Co1530 1.970 . S
O1533 C1532 1.258 . S
O1534 Co1531 1.966 . S
O1534 C1532 1.263 . S
C1535 O1536 1.235 . S
C1535 O1562 1.289 1_565 S
O1536 C1535 1.235 . S
C1537 C1539 1.400 . S
C1537 N1540 1.351 . S
C1537 C1542 1.501 . S
C1538 C1539 1.387 . S
C1538 N1541 1.341 . S
C1539 C1537 1.400 . S
C1539 C1538 1.387 . S
N1540 Co1531 2.022 1_556 S
N1540 C1537 1.351 . S
N1540 N1541 1.365 . S
N1541 C1538 1.341 . S
N1541 N1540 1.365 . S
N1541 H1561 0.862 1_556 S
C1542 C1537 1.501 . S
C1542 H1543 0.961 . S
C1542 H1544 0.961 . S
C1542 H1545 0.960 . S
H1543 C1542 0.961 . S
H1544 C1542 0.961 . S
H1545 C1542 0.960 . S
C1546 N1547 1.342 . S
C1546 C1550 1.401 1_554 S
C1546 C1551 1.499 . S
N1547 Co1530 1.989 . S
N1547 C1546 1.342 . S
N1547 N1548 1.380 1_554 S
N1548 Co1531 1.987 1_556 S
N1548 N1547 1.380 1_556 S
N1548 C1549 1.356 . S
C1549 N1548 1.356 . S
C1549 C1550 1.396 . S
C1549 C1559 1.510 . S
C1550 C1546 1.401 1_556 S
C1550 C1549 1.396 . S
C1551 C1546 1.499 . S
C1551 H1552 0.959 . S
C1551 H1553 0.970 . S
C1551 H1554 0.961 . S
H1552 C1551 0.959 . S
H1553 C1551 0.970 . S
H1554 C1551 0.961 . S
O1555 Co1530 1.967 . S
O1555 C1563 1.258 . S
O1556 Co1531 1.941 . S
O1556 C1563 1.266 . S
H1557 C1559 0.959 . S
H1558 C1559 0.961 . S
C1559 C1549 1.510 . S
C1559 H1557 0.959 . S
C1559 H1558 0.961 . S
C1559 H1560 0.960 . S
H1560 C1559 0.960 . S
H1561 N1541 0.862 1_554 S
O1562 Co1530 1.920 . S
O1562 C1535 1.289 1_545 S
C1563 O1555 1.258 . S
C1563 O1556 1.266 . S
Co1564 O1567 1.970 . S
Co1564 N1581 1.989 . S
Co1564 O1589 1.967 . S
Co1564 O1596 1.920 . S
Co1565 O1568 1.966 . S
Co1565 N1574 2.022 . S
Co1565 N1582 1.993 . S
Co1565 O1590 1.941 . S
C1566 O1567 1.258 . S
C1566 O1568 1.263 . S
O1567 Co1564 1.970 . S
O1567 C1566 1.258 . S
O1568 Co1565 1.966 . S
O1568 C1566 1.263 . S
C1569 O1570 1.235 . S
C1569 O1596 1.289 . S
O1570 C1569 1.235 . S
C1571 C1573 1.400 . S
C1571 N1574 1.351 . S
C1571 C1576 1.501 . S
C1572 C1573 1.387 . S
C1572 N1575 1.341 . S
C1573 C1571 1.400 . S
C1573 C1572 1.387 . S
N1574 Co1565 2.022 . S
N1574 C1571 1.351 . S
N1574 N1575 1.365 . S
N1575 C1572 1.341 . S
N1575 N1574 1.365 . S
N1575 H1595 0.862 . S
C1576 C1571 1.501 . S
C1576 H1577 0.961 . S
C1576 H1578 0.961 . S
C1576 H1579 0.960 . S
H1577 C1576 0.961 . S
H1578 C1576 0.961 . S
H1579 C1576 0.960 . S
C1580 N1581 1.342 . S
C1580 C1584 1.401 . S
C1580 C1585 1.499 . S
N1581 Co1564 1.989 . S
N1581 C1580 1.342 . S
N1581 N1582 1.388 . S
N1582 Co1565 1.993 . S
N1582 N1581 1.388 . S
N1582 C1583 1.346 . S
C1583 N1582 1.346 . S
C1583 C1584 1.396 . S
C1583 C1593 1.510 . S
C1584 C1580 1.401 . S
C1584 C1583 1.396 . S
C1585 C1580 1.499 . S
C1585 H1586 0.959 . S
C1585 H1587 0.960 . S
C1585 H1588 0.961 . S
H1586 C1585 0.959 . S
H1587 C1585 0.960 . S
H1588 C1585 0.961 . S
O1589 Co1564 1.967 . S
O1589 C1597 1.258 . S
O1590 Co1565 1.941 . S
O1590 C1597 1.266 . S
H1591 C1593 0.959 . S
H1592 C1593 0.961 . S
C1593 C1583 1.510 . S
C1593 H1591 0.959 . S
C1593 H1592 0.961 . S
C1593 H1594 0.960 . S
H1594 C1593 0.960 . S
H1595 N1575 0.862 . S
O1596 Co1564 1.920 . S
O1596 C1569 1.289 . S
C1597 O1589 1.258 . S
C1597 O1590 1.266 . S
Co1598 O1601 1.970 . S
Co1598 N1615 1.989 . S
Co1598 O1623 1.967 . S
Co1598 O1630 1.920 . S
Co1599 O1602 1.966 . S
Co1599 N1608 2.022 . S
Co1599 N1616 1.993 . S
Co1599 O1624 1.941 . S
C1600 O1601 1.258 . S
C1600 O1602 1.263 . S
O1601 Co1598 1.970 . S
O1601 C1600 1.258 . S
O1602 Co1599 1.966 . S
O1602 C1600 1.263 . S
C1603 O1604 1.235 . S
C1603 O1630 1.289 . S
O1604 C1603 1.235 . S
C1605 C1607 1.400 . S
C1605 N1608 1.351 . S
C1605 C1610 1.501 . S
C1606 C1607 1.387 . S
C1606 N1609 1.341 . S
C1607 C1605 1.400 . S
C1607 C1606 1.387 . S
N1608 Co1599 2.022 . S
N1608 C1605 1.351 . S
N1608 N1609 1.365 . S
N1609 C1606 1.341 . S
N1609 N1608 1.365 . S
N1609 H1629 0.862 . S
C1610 C1605 1.501 . S
C1610 H1611 0.961 . S
C1610 H1612 0.961 . S
C1610 H1613 0.960 . S
H1611 C1610 0.961 . S
H1612 C1610 0.961 . S
H1613 C1610 0.960 . S
C1614 N1615 1.342 . S
C1614 C1618 1.401 . S
C1614 C1619 1.499 . S
N1615 Co1598 1.989 . S
N1615 C1614 1.342 . S
N1615 N1616 1.388 . S
N1616 Co1599 1.993 . S
N1616 N1615 1.388 . S
N1616 C1617 1.346 . S
C1617 N1616 1.346 . S
C1617 C1618 1.396 . S
C1617 C1627 1.510 . S
C1618 C1614 1.401 . S
C1618 C1617 1.396 . S
C1619 C1614 1.499 . S
C1619 H1620 0.959 . S
C1619 H1621 0.960 . S
C1619 H1622 0.961 . S
H1620 C1619 0.959 . S
H1621 C1619 0.960 . S
H1622 C1619 0.961 . S
O1623 Co1598 1.967 . S
O1623 C1631 1.258 . S
O1624 Co1599 1.941 . S
O1624 C1631 1.266 . S
H1625 C1627 0.959 . S
H1626 C1627 0.961 . S
C1627 C1617 1.510 . S
C1627 H1625 0.959 . S
C1627 H1626 0.961 . S
C1627 H1628 0.960 . S
H1628 C1627 0.960 . S
H1629 N1609 0.862 . S
O1630 Co1598 1.920 . S
O1630 C1603 1.289 . S
C1631 O1623 1.258 . S
C1631 O1624 1.266 . S
C1632 C1633 1.387 . S
C1632 H1636 0.950 . S
C1632 C1641 1.390 . S
C1633 C1632 1.387 . S
C1633 C1635 1.387 . S
H1634 C1641 0.950 . S
C1635 C1633 1.387 . S
C1635 C1637 1.390 . S
C1635 H1639 0.950 . S
H1636 C1632 0.950 . S
C1637 C1635 1.390 . S
C1637 C1638 1.387 . S
C1637 H1640 0.950 . S
C1638 C1637 1.387 . S
C1638 C1641 1.387 . S
H1639 C1635 0.950 . S
H1640 C1637 0.950 . S
C1641 C1632 1.390 . S
C1641 H1634 0.950 . S
C1641 C1638 1.387 . S
C1642 C1643 1.387 . S
C1642 H1646 0.950 . S
C1642 C1651 1.390 . S
C1643 C1642 1.387 . S
C1643 C1645 1.387 . S
H1644 C1651 0.950 . S
C1645 C1643 1.387 . S
C1645 C1647 1.390 . S
C1645 H1649 0.950 . S
H1646 C1642 0.950 . S
C1647 C1645 1.390 . S
C1647 C1648 1.387 . S
C1647 H1650 0.950 . S
C1648 C1647 1.387 . S
C1648 C1651 1.387 . S
H1649 C1645 0.950 . S
H1650 C1647 0.950 . S
C1651 C1642 1.390 . S
C1651 H1644 0.950 . S
C1651 C1648 1.387 . S
C1652 C1653 1.387 . S
C1652 H1656 0.950 . S
C1652 C1661 1.390 . S
C1653 C1652 1.387 . S
C1653 C1655 1.387 . S
H1654 C1661 0.950 . S
C1655 C1653 1.387 . S
C1655 C1657 1.390 . S
C1655 H1659 0.950 . S
H1656 C1652 0.950 . S
C1657 C1655 1.390 . S
C1657 C1658 1.387 . S
C1657 H1660 0.950 1_554 S
C1658 C1657 1.387 . S
C1658 C1661 1.387 . S
H1659 C1655 0.950 . S
H1660 C1657 0.950 1_556 S
C1661 C1652 1.390 . S
C1661 H1654 0.950 . S
C1661 C1658 1.387 . S
C1662 C1663 1.387 . S
C1662 H1666 0.950 . S
C1662 C1671 1.390 . S
C1663 C1662 1.387 . S
C1663 C1665 1.387 . S
H1664 C1671 0.950 . S
C1665 C1663 1.387 . S
C1665 C1667 1.390 . S
C1665 H1669 0.950 . S
H1666 C1662 0.950 . S
C1667 C1665 1.390 . S
C1667 C1668 1.387 . S
C1667 H1670 0.950 . S
C1668 C1667 1.387 . S
C1668 C1671 1.387 . S
H1669 C1665 0.950 . S
H1670 C1667 0.950 . S
C1671 C1662 1.390 . S
C1671 H1664 0.950 . S
C1671 C1668 1.387 . S
C1672 C1673 1.387 . S
C1672 H1676 0.950 . S
C1672 C1681 1.390 . S
C1673 C1672 1.387 . S
C1673 C1675 1.387 . S
H1674 C1681 0.950 . S
C1675 C1673 1.387 . S
C1675 C1677 1.390 . S
C1675 H1679 0.950 . S
H1676 C1672 0.950 . S
C1677 C1675 1.390 . S
C1677 C1678 1.387 . S
C1677 H1680 0.950 . S
C1678 C1677 1.387 . S
C1678 C1681 1.387 . S
H1679 C1675 0.950 . S
H1680 C1677 0.950 . S
C1681 C1672 1.390 . S
C1681 H1674 0.950 . S
C1681 C1678 1.387 . S
C1682 C1683 1.387 . S
C1682 H1686 0.950 . S
C1682 C1691 1.390 . S
C1683 C1682 1.387 . S
C1683 C1685 1.387 . S
H1684 C1691 0.950 . S
C1685 C1683 1.387 . S
C1685 C1687 1.390 . S
C1685 H1689 0.950 . S
H1686 C1682 0.950 . S
C1687 C1685 1.390 . S
C1687 C1688 1.387 . S
C1687 H1690 0.950 . S
C1688 C1687 1.387 . S
C1688 C1691 1.387 . S
H1689 C1685 0.950 . S
H1690 C1687 0.950 . S
C1691 C1682 1.390 . S
C1691 H1684 0.950 . S
C1691 C1688 1.387 . S
C1692 C1693 1.387 . S
C1692 H1696 0.950 . S
C1692 C1701 1.390 . S
C1693 C1692 1.387 . S
C1693 C1695 1.387 . S
H1694 C1701 0.950 . S
C1695 C1693 1.387 . S
C1695 C1697 1.390 . S
C1695 H1699 0.950 . S
H1696 C1692 0.950 . S
C1697 C1695 1.390 . S
C1697 C1698 1.387 . S
C1697 H1700 0.950 . S
C1698 C1697 1.387 . S
C1698 C1701 1.387 . S
H1699 C1695 0.950 . S
H1700 C1697 0.950 . S
C1701 C1692 1.390 . S
C1701 H1694 0.950 . S
C1701 C1698 1.387 . S
C1702 C1703 1.387 . S
C1702 H1706 0.950 . S
C1702 C1711 1.390 . S
C1703 C1702 1.387 . S
C1703 C1705 1.387 . S
H1704 C1711 0.950 . S
C1705 C1703 1.387 . S
C1705 C1707 1.390 . S
C1705 H1709 0.950 . S
H1706 C1702 0.950 . S
C1707 C1705 1.390 . S
C1707 C1708 1.387 . S
C1707 H1710 0.950 . S
C1708 C1707 1.387 . S
C1708 C1711 1.387 . S
H1709 C1705 0.950 . S
H1710 C1707 0.950 . S
C1711 C1702 1.390 . S
C1711 H1704 0.950 . S
C1711 C1708 1.387 . S
C1712 C1713 1.387 . S
C1712 H1716 0.950 . S
C1712 C1721 1.390 . S
C1713 C1712 1.387 . S
C1713 C1715 1.387 . S
H1714 C1721 0.950 . S
C1715 C1713 1.387 . S
C1715 C1717 1.390 . S
C1715 H1719 0.950 . S
H1716 C1712 0.950 . S
C1717 C1715 1.390 . S
C1717 C1718 1.387 . S
C1717 H1720 0.950 . S
C1718 C1717 1.387 . S
C1718 C1721 1.387 . S
H1719 C1715 0.950 . S
H1720 C1717 0.950 . S
C1721 C1712 1.390 . S
C1721 H1714 0.950 . S
C1721 C1718 1.387 . S
C1722 C1723 1.387 . S
C1722 H1726 0.950 . S
C1722 C1731 1.390 . S
C1723 C1722 1.387 . S
C1723 C1725 1.387 . S
H1724 C1731 0.950 . S
C1725 C1723 1.387 . S
C1725 C1727 1.390 . S
C1725 H1729 0.950 . S
H1726 C1722 0.950 . S
C1727 C1725 1.390 . S
C1727 C1728 1.387 . S
C1727 H1730 0.950 . S
C1728 C1727 1.387 . S
C1728 C1731 1.387 . S
H1729 C1725 0.950 . S
H1730 C1727 0.950 . S
C1731 C1722 1.390 . S
C1731 H1724 0.950 . S
C1731 C1728 1.387 . S
C1732 C1733 1.387 . S
C1732 H1736 0.950 . S
C1732 C1741 1.390 . S
C1733 C1732 1.387 . S
C1733 C1735 1.387 . S
H1734 C1741 0.950 . S
C1735 C1733 1.387 . S
C1735 C1737 1.390 . S
C1735 H1739 0.950 . S
H1736 C1732 0.950 . S
C1737 C1735 1.390 . S
C1737 C1738 1.387 . S
C1737 H1740 0.950 . S
C1738 C1737 1.387 . S
C1738 C1741 1.387 . S
H1739 C1735 0.950 . S
H1740 C1737 0.950 . S
C1741 C1732 1.390 . S
C1741 H1734 0.950 . S
C1741 C1738 1.387 . S
C1742 C1743 1.387 . S
C1742 H1746 0.950 . S
C1742 C1751 1.390 . S
C1743 C1742 1.387 . S
C1743 C1745 1.387 . S
H1744 C1751 0.950 . S
C1745 C1743 1.387 . S
C1745 C1747 1.390 . S
C1745 H1749 0.950 . S
H1746 C1742 0.950 . S
C1747 C1745 1.390 . S
C1747 C1748 1.387 . S
C1747 H1750 0.950 . S
C1748 C1747 1.387 . S
C1748 C1751 1.387 . S
H1749 C1745 0.950 . S
H1750 C1747 0.950 . S
C1751 C1742 1.390 . S
C1751 H1744 0.950 . S
C1751 C1748 1.387 . S
C1752 C1753 1.387 . S
C1752 H1756 0.950 . S
C1752 C1761 1.390 . S
C1753 C1752 1.387 . S
C1753 C1755 1.387 . S
H1754 C1761 0.950 . S
C1755 C1753 1.387 . S
C1755 C1757 1.390 . S
C1755 H1759 0.950 . S
H1756 C1752 0.950 . S
C1757 C1755 1.390 . S
C1757 C1758 1.387 . S
C1757 H1760 0.950 . S
C1758 C1757 1.387 . S
C1758 C1761 1.387 . S
H1759 C1755 0.950 . S
H1760 C1757 0.950 . S
C1761 C1752 1.390 . S
C1761 H1754 0.950 . S
C1761 C1758 1.387 . S
C1762 C1763 1.387 . S
C1762 H1766 0.950 . S
C1762 C1771 1.390 . S
C1763 C1762 1.387 . S
C1763 C1765 1.387 . S
H1764 C1771 0.950 . S
C1765 C1763 1.387 . S
C1765 C1767 1.390 . S
C1765 H1769 0.950 . S
H1766 C1762 0.950 . S
C1767 C1765 1.390 . S
C1767 C1768 1.387 . S
C1767 H1770 0.950 . S
C1768 C1767 1.387 . S
C1768 C1771 1.387 . S
H1769 C1765 0.950 . S
H1770 C1767 0.950 . S
C1771 C1762 1.390 . S
C1771 H1764 0.950 . S
C1771 C1768 1.387 . S
C1772 C1773 1.387 . S
C1772 H1776 0.950 . S
C1772 C1781 1.390 . S
C1773 C1772 1.387 . S
C1773 C1775 1.387 . S
H1774 C1781 0.950 . S
C1775 C1773 1.387 . S
C1775 C1777 1.390 . S
C1775 H1779 0.950 . S
H1776 C1772 0.950 . S
C1777 C1775 1.390 . S
C1777 C1778 1.387 . S
C1777 H1780 0.950 . S
C1778 C1777 1.387 . S
C1778 C1781 1.387 . S
H1779 C1775 0.950 . S
H1780 C1777 0.950 . S
C1781 C1772 1.390 . S
C1781 H1774 0.950 . S
C1781 C1778 1.387 . S
C1782 C1783 1.387 . S
C1782 H1786 0.950 . S
C1782 C1791 1.390 . S
C1783 C1782 1.387 . S
C1783 C1785 1.387 . S
H1784 C1791 0.950 . S
C1785 C1783 1.387 . S
C1785 C1787 1.390 . S
C1785 H1789 0.950 . S
H1786 C1782 0.950 . S
C1787 C1785 1.390 . S
C1787 C1788 1.387 . S
C1787 H1790 0.950 . S
C1788 C1787 1.387 . S
C1788 C1791 1.387 . S
H1789 C1785 0.950 . S
H1790 C1787 0.950 . S
C1791 C1782 1.390 . S
C1791 H1784 0.950 . S
C1791 C1788 1.387 . S
C1792 C1793 1.387 . S
C1792 H1796 0.950 . S
C1792 C1801 1.390 . S
C1793 C1792 1.387 . S
C1793 C1795 1.387 . S
H1794 C1801 0.950 . S
C1795 C1793 1.387 . S
C1795 C1797 1.390 . S
C1795 H1799 0.950 . S
H1796 C1792 0.950 . S
C1797 C1795 1.390 . S
C1797 C1798 1.387 . S
C1797 H1800 0.950 . S
C1798 C1797 1.387 . S
C1798 C1801 1.387 . S
H1799 C1795 0.950 . S
H1800 C1797 0.950 . S
C1801 C1792 1.390 . S
C1801 H1794 0.950 . S
C1801 C1798 1.387 . S
C1802 C1803 1.387 . S
C1802 H1806 0.950 . S
C1802 C1811 1.390 . S
C1803 C1802 1.387 . S
C1803 C1805 1.387 . S
H1804 C1811 0.950 . S
C1805 C1803 1.387 . S
C1805 C1807 1.390 . S
C1805 H1809 0.950 . S
H1806 C1802 0.950 . S
C1807 C1805 1.390 . S
C1807 C1808 1.387 . S
C1807 H1810 0.950 . S
C1808 C1807 1.387 . S
C1808 C1811 1.387 . S
H1809 C1805 0.950 . S
H1810 C1807 0.950 . S
C1811 C1802 1.390 . S
C1811 H1804 0.950 . S
C1811 C1808 1.387 . S
C1812 C1813 1.387 . S
C1812 H1816 0.950 . S
C1812 C1821 1.390 . S
C1813 C1812 1.387 . S
C1813 C1815 1.387 . S
H1814 C1821 0.950 . S
C1815 C1813 1.387 . S
C1815 C1817 1.390 . S
C1815 H1819 0.950 . S
H1816 C1812 0.950 . S
C1817 C1815 1.390 . S
C1817 C1818 1.387 . S
C1817 H1820 0.950 . S
C1818 C1817 1.387 . S
C1818 C1821 1.387 . S
H1819 C1815 0.950 . S
H1820 C1817 0.950 . S
C1821 C1812 1.390 . S
C1821 H1814 0.950 . S
C1821 C1818 1.387 . S
C1822 C1823 1.387 . S
C1822 H1826 0.950 . S
C1822 C1831 1.390 . S
C1823 C1822 1.387 . S
C1823 C1825 1.387 . S
H1824 C1831 0.950 . S
C1825 C1823 1.387 . S
C1825 C1827 1.390 . S
C1825 H1829 0.950 . S
H1826 C1822 0.950 . S
C1827 C1825 1.390 . S
C1827 C1828 1.387 . S
C1827 H1830 0.950 . S
C1828 C1827 1.387 . S
C1828 C1831 1.387 . S
H1829 C1825 0.950 . S
H1830 C1827 0.950 . S
C1831 C1822 1.390 . S
C1831 H1824 0.950 . S
C1831 C1828 1.387 . S
C1832 C1833 1.387 . S
C1832 H1836 0.950 . S
C1832 C1841 1.390 . S
C1833 C1832 1.387 . S
C1833 C1835 1.387 . S
H1834 C1841 0.950 . S
C1835 C1833 1.387 . S
C1835 C1837 1.390 . S
C1835 H1839 0.950 . S
H1836 C1832 0.950 . S
C1837 C1835 1.390 . S
C1837 C1838 1.387 . S
C1837 H1840 0.950 . S
C1838 C1837 1.387 . S
C1838 C1841 1.387 . S
H1839 C1835 0.950 . S
H1840 C1837 0.950 . S
C1841 C1832 1.390 . S
C1841 H1834 0.950 . S
C1841 C1838 1.387 . S
C1842 C1843 1.387 . S
C1842 H1846 0.950 . S
C1842 C1851 1.390 . S
C1843 C1842 1.387 . S
C1843 C1845 1.387 . S
H1844 C1851 0.950 . S
C1845 C1843 1.387 . S
C1845 C1847 1.390 . S
C1845 H1849 0.950 . S
H1846 C1842 0.950 . S
C1847 C1845 1.390 . S
C1847 C1848 1.387 . S
C1847 H1850 0.950 . S
C1848 C1847 1.387 . S
C1848 C1851 1.387 . S
H1849 C1845 0.950 . S
H1850 C1847 0.950 . S
C1851 C1842 1.390 . S
C1851 H1844 0.950 . S
C1851 C1848 1.387 . S
C1852 C1853 1.387 . S
C1852 H1856 0.950 . S
C1852 C1861 1.390 . S
C1853 C1852 1.387 . S
C1853 C1855 1.387 . S
H1854 C1861 0.950 . S
C1855 C1853 1.387 . S
C1855 C1857 1.390 . S
C1855 H1859 0.950 . S
H1856 C1852 0.950 . S
C1857 C1855 1.390 . S
C1857 C1858 1.387 . S
C1857 H1860 0.950 . S
C1858 C1857 1.387 . S
C1858 C1861 1.387 . S
H1859 C1855 0.950 . S
H1860 C1857 0.950 . S
C1861 C1852 1.390 . S
C1861 H1854 0.950 . S
C1861 C1858 1.387 . S
C1862 C1863 1.387 . S
C1862 H1866 0.950 . S
C1862 C1871 1.390 . S
C1863 C1862 1.387 . S
C1863 C1865 1.387 . S
H1864 C1871 0.950 . S
C1865 C1863 1.387 . S
C1865 C1867 1.390 . S
C1865 H1869 0.950 . S
H1866 C1862 0.950 . S
C1867 C1865 1.390 . S
C1867 C1868 1.387 . S
C1867 H1870 0.950 . S
C1868 C1867 1.387 . S
C1868 C1871 1.387 . S
H1869 C1865 0.950 . S
H1870 C1867 0.950 . S
C1871 C1862 1.390 . S
C1871 H1864 0.950 . S
C1871 C1868 1.387 . S
C1872 C1873 1.387 . S
C1872 H1876 0.950 . S
C1872 C1881 1.390 . S
C1873 C1872 1.387 . S
C1873 C1875 1.387 . S
H1874 C1881 0.950 . S
C1875 C1873 1.387 . S
C1875 C1877 1.390 . S
C1875 H1879 0.950 . S
H1876 C1872 0.950 . S
C1877 C1875 1.390 . S
C1877 C1878 1.387 . S
C1877 H1880 0.950 . S
C1878 C1877 1.387 . S
C1878 C1881 1.387 . S
H1879 C1875 0.950 . S
H1880 C1877 0.950 . S
C1881 C1872 1.390 . S
C1881 H1874 0.950 . S
C1881 C1878 1.387 . S
C1882 C1883 1.387 . S
C1882 H1886 0.950 . S
C1882 C1891 1.390 . S
C1883 C1882 1.387 . S
C1883 C1885 1.387 . S
H1884 C1891 0.950 . S
C1885 C1883 1.387 . S
C1885 C1887 1.390 . S
C1885 H1889 0.950 . S
H1886 C1882 0.950 . S
C1887 C1885 1.390 . S
C1887 C1888 1.387 . S
C1887 H1890 0.950 . S
C1888 C1887 1.387 . S
C1888 C1891 1.387 . S
H1889 C1885 0.950 . S
H1890 C1887 0.950 . S
C1891 C1882 1.390 . S
C1891 H1884 0.950 . S
C1891 C1888 1.387 . S
C1892 C1893 1.387 . S
C1892 H1896 0.950 . S
C1892 C1901 1.390 . S
C1893 C1892 1.387 . S
C1893 C1895 1.387 . S
H1894 C1901 0.950 . S
C1895 C1893 1.387 . S
C1895 C1897 1.390 . S
C1895 H1899 0.950 . S
H1896 C1892 0.950 . S
C1897 C1895 1.390 . S
C1897 C1898 1.387 . S
C1897 H1900 0.950 . S
C1898 C1897 1.387 . S
C1898 C1901 1.387 . S
H1899 C1895 0.950 . S
H1900 C1897 0.950 . S
C1901 C1892 1.390 . S
C1901 H1894 0.950 . S
C1901 C1898 1.387 . S
C1902 C1903 1.387 . S
C1902 H1906 0.950 . S
C1902 C1911 1.390 . S
C1903 C1902 1.387 . S
C1903 C1905 1.387 . S
H1904 C1911 0.950 . S
C1905 C1903 1.387 . S
C1905 C1907 1.390 . S
C1905 H1909 0.950 . S
H1906 C1902 0.950 . S
C1907 C1905 1.390 . S
C1907 C1908 1.387 . S
C1907 H1910 0.950 . S
C1908 C1907 1.387 . S
C1908 C1911 1.387 . S
H1909 C1905 0.950 . S
H1910 C1907 0.950 . S
C1911 C1902 1.390 . S
C1911 H1904 0.950 . S
C1911 C1908 1.387 . S
C1912 C1913 1.387 . S
C1912 H1916 0.950 . S
C1912 C1921 1.390 . S
C1913 C1912 1.387 . S
C1913 C1915 1.387 . S
H1914 C1921 0.950 . S
C1915 C1913 1.387 . S
C1915 C1917 1.390 . S
C1915 H1919 0.950 . S
H1916 C1912 0.950 . S
C1917 C1915 1.390 . S
C1917 C1918 1.387 . S
C1917 H1920 0.950 . S
C1918 C1917 1.387 . S
C1918 C1921 1.387 . S
H1919 C1915 0.950 . S
H1920 C1917 0.950 . S
C1921 C1912 1.390 . S
C1921 H1914 0.950 . S
C1921 C1918 1.387 . S
C1922 C1923 1.387 . S
C1922 H1926 0.950 . S
C1922 C1931 1.390 . S
C1923 C1922 1.387 . S
C1923 C1925 1.387 . S
H1924 C1931 0.950 . S
C1925 C1923 1.387 . S
C1925 C1927 1.390 . S
C1925 H1929 0.950 . S
H1926 C1922 0.950 . S
C1927 C1925 1.390 . S
C1927 C1928 1.387 . S
C1927 H1930 0.950 . S
C1928 C1927 1.387 . S
C1928 C1931 1.387 . S
H1929 C1925 0.950 . S
H1930 C1927 0.950 . S
C1931 C1922 1.390 . S
C1931 H1924 0.950 . S
C1931 C1928 1.387 . S
C1932 C1933 1.387 . S
C1932 H1936 0.950 . S
C1932 C1941 1.390 . S
C1933 C1932 1.387 . S
C1933 C1935 1.387 . S
H1934 C1941 0.950 . S
C1935 C1933 1.387 . S
C1935 C1937 1.390 . S
C1935 H1939 0.950 . S
H1936 C1932 0.950 . S
C1937 C1935 1.390 . S
C1937 C1938 1.387 . S
C1937 H1940 0.950 . S
C1938 C1937 1.387 . S
C1938 C1941 1.387 . S
H1939 C1935 0.950 . S
H1940 C1937 0.950 . S
C1941 C1932 1.390 . S
C1941 H1934 0.950 . S
C1941 C1938 1.387 . S
C1942 C1943 1.387 . S
C1942 H1946 0.950 . S
C1942 C1951 1.390 . S
C1943 C1942 1.387 . S
C1943 C1945 1.387 . S
H1944 C1951 0.950 . S
C1945 C1943 1.387 . S
C1945 C1947 1.390 . S
C1945 H1949 0.950 . S
H1946 C1942 0.950 . S
C1947 C1945 1.390 . S
C1947 C1948 1.387 . S
C1947 H1950 0.950 . S
C1948 C1947 1.387 . S
C1948 C1951 1.387 . S
H1949 C1945 0.950 . S
H1950 C1947 0.950 . S
C1951 C1942 1.390 . S
C1951 H1944 0.950 . S
C1951 C1948 1.387 . S
C1952 C1953 1.387 . S
C1952 H1956 0.950 . S
C1952 C1961 1.390 . S
C1953 C1952 1.387 . S
C1953 C1955 1.387 . S
H1954 C1961 0.950 . S
C1955 C1953 1.387 . S
C1955 C1957 1.390 . S
C1955 H1959 0.950 . S
H1956 C1952 0.950 . S
C1957 C1955 1.390 . S
C1957 C1958 1.387 . S
C1957 H1960 0.950 . S
C1958 C1957 1.387 . S
C1958 C1961 1.387 . S
H1959 C1955 0.950 . S
H1960 C1957 0.950 . S
C1961 C1952 1.390 . S
C1961 H1954 0.950 . S
C1961 C1958 1.387 . S
C1962 C1963 1.387 . S
C1962 H1966 0.950 . S
C1962 C1971 1.390 . S
C1963 C1962 1.387 . S
C1963 C1965 1.387 . S
H1964 C1971 0.950 . S
C1965 C1963 1.387 . S
C1965 C1967 1.390 . S
C1965 H1969 0.950 . S
H1966 C1962 0.950 . S
C1967 C1965 1.390 . S
C1967 C1968 1.387 . S
C1967 H1970 0.950 . S
C1968 C1967 1.387 . S
C1968 C1971 1.387 . S
H1969 C1965 0.950 . S
H1970 C1967 0.950 . S
C1971 C1962 1.390 . S
C1971 H1964 0.950 . S
C1971 C1968 1.387 . S
C1972 C1973 1.387 . S
C1972 H1976 0.950 . S
C1972 C1981 1.390 . S
C1973 C1972 1.387 . S
C1973 C1975 1.387 . S
H1974 C1981 0.950 . S
C1975 C1973 1.387 . S
C1975 C1977 1.390 . S
C1975 H1979 0.950 . S
H1976 C1972 0.950 . S
C1977 C1975 1.390 . S
C1977 C1978 1.387 . S
C1977 H1980 0.950 . S
C1978 C1977 1.387 . S
C1978 C1981 1.387 . S
H1979 C1975 0.950 . S
H1980 C1977 0.950 . S
C1981 C1972 1.390 . S
C1981 H1974 0.950 . S
C1981 C1978 1.387 . S
C1982 C1983 1.387 . S
C1982 H1986 0.950 . S
C1982 C1991 1.390 . S
C1983 C1982 1.387 . S
C1983 C1985 1.387 . S
H1984 C1991 0.950 . S
C1985 C1983 1.387 . S
C1985 C1987 1.390 . S
C1985 H1989 0.950 . S
H1986 C1982 0.950 . S
C1987 C1985 1.390 . S
C1987 C1988 1.387 . S
C1987 H1990 0.950 . S
C1988 C1987 1.387 . S
C1988 C1991 1.387 . S
H1989 C1985 0.950 . S
H1990 C1987 0.950 . S
C1991 C1982 1.390 . S
C1991 H1984 0.950 . S
C1991 C1988 1.387 . S
C1992 C1993 1.387 . S
C1992 H1996 0.950 . S
C1992 C2001 1.390 . S
C1993 C1992 1.387 . S
C1993 C1995 1.387 . S
H1994 C2001 0.950 . S
C1995 C1993 1.387 . S
C1995 C1997 1.390 . S
C1995 H1999 0.950 . S
H1996 C1992 0.950 . S
C1997 C1995 1.390 . S
C1997 C1998 1.387 . S
C1997 H2000 0.950 . S
C1998 C1997 1.387 . S
C1998 C2001 1.387 . S
H1999 C1995 0.950 . S
H2000 C1997 0.950 . S
C2001 C1992 1.390 . S
C2001 H1994 0.950 . S
C2001 C1998 1.387 . S
C2002 C2003 1.387 . S
C2002 H2006 0.950 . S
C2002 C2011 1.390 . S
C2003 C2002 1.387 . S
C2003 C2005 1.387 . S
H2004 C2011 0.950 . S
C2005 C2003 1.387 . S
C2005 C2007 1.390 . S
C2005 H2009 0.950 . S
H2006 C2002 0.950 . S
C2007 C2005 1.390 . S
C2007 C2008 1.387 . S
C2007 H2010 0.950 . S
C2008 C2007 1.387 . S
C2008 C2011 1.387 . S
H2009 C2005 0.950 . S
H2010 C2007 0.950 . S
C2011 C2002 1.390 . S
C2011 H2004 0.950 . S
C2011 C2008 1.387 . S
C2012 C2013 1.387 . S
C2012 H2016 0.950 . S
C2012 C2021 1.390 . S
C2013 C2012 1.387 . S
C2013 C2015 1.387 . S
H2014 C2021 0.950 . S
C2015 C2013 1.387 . S
C2015 C2017 1.390 . S
C2015 H2019 0.950 . S
H2016 C2012 0.950 . S
C2017 C2015 1.390 . S
C2017 C2018 1.387 . S
C2017 H2020 0.950 . S
C2018 C2017 1.387 . S
C2018 C2021 1.387 . S
H2019 C2015 0.950 . S
H2020 C2017 0.950 . S
C2021 C2012 1.390 . S
C2021 H2014 0.950 . S
C2021 C2018 1.387 . S
C2022 C2023 1.387 . S
C2022 H2026 0.950 . S
C2022 C2031 1.390 . S
C2023 C2022 1.387 . S
C2023 C2025 1.387 . S
H2024 C2031 0.950 . S
C2025 C2023 1.387 . S
C2025 C2027 1.390 . S
C2025 H2029 0.950 . S
H2026 C2022 0.950 . S
C2027 C2025 1.390 . S
C2027 C2028 1.387 . S
C2027 H2030 0.950 . S
C2028 C2027 1.387 . S
C2028 C2031 1.387 . S
H2029 C2025 0.950 . S
H2030 C2027 0.950 . S
C2031 C2022 1.390 . S
C2031 H2024 0.950 . S
C2031 C2028 1.387 . S
C2032 C2033 1.387 . S
C2032 H2036 0.950 . S
C2032 C2041 1.390 . S
C2033 C2032 1.387 . S
C2033 C2035 1.387 . S
H2034 C2041 0.950 . S
C2035 C2033 1.387 . S
C2035 C2037 1.390 . S
C2035 H2039 0.950 . S
H2036 C2032 0.950 . S
C2037 C2035 1.390 . S
C2037 C2038 1.387 . S
C2037 H2040 0.950 1_545 S
C2038 C2037 1.387 . S
C2038 C2041 1.387 . S
H2039 C2035 0.950 . S
H2040 C2037 0.950 1_565 S
C2041 C2032 1.390 . S
C2041 H2034 0.950 . S
C2041 C2038 1.387 . S
C2042 C2043 1.387 . S
C2042 H2046 0.950 . S
C2042 C2051 1.390 . S
C2043 C2042 1.387 . S
C2043 C2045 1.387 . S
H2044 C2051 0.950 . S
C2045 C2043 1.387 . S
C2045 C2047 1.390 . S
C2045 H2049 0.950 . S
H2046 C2042 0.950 . S
C2047 C2045 1.390 . S
C2047 C2048 1.387 . S
C2047 H2050 0.950 . S
C2048 C2047 1.387 . S
C2048 C2051 1.387 . S
H2049 C2045 0.950 . S
H2050 C2047 0.950 . S
C2051 C2042 1.390 . S
C2051 H2044 0.950 . S
C2051 C2048 1.387 . S
C2052 C2053 1.387 . S
C2052 H2056 0.950 . S
C2052 C2061 1.390 . S
C2053 C2052 1.387 . S
C2053 C2055 1.387 . S
H2054 C2061 0.950 . S
C2055 C2053 1.387 . S
C2055 C2057 1.390 . S
C2055 H2059 0.950 . S
H2056 C2052 0.950 . S
C2057 C2055 1.390 . S
C2057 C2058 1.387 . S
C2057 H2060 0.950 . S
C2058 C2057 1.387 . S
C2058 C2061 1.387 . S
H2059 C2055 0.950 . S
H2060 C2057 0.950 . S
C2061 C2052 1.390 . S
C2061 H2054 0.950 . S
C2061 C2058 1.387 . S
C2062 C2063 1.387 . S
C2062 H2066 0.950 . S
C2062 C2071 1.390 . S
C2063 C2062 1.387 . S
C2063 C2065 1.387 . S
H2064 C2071 0.950 . S
C2065 C2063 1.387 . S
C2065 C2067 1.390 . S
C2065 H2069 0.950 . S
H2066 C2062 0.950 . S
C2067 C2065 1.390 . S
C2067 C2068 1.387 . S
C2067 H2070 0.950 . S
C2068 C2067 1.387 . S
C2068 C2071 1.387 . S
H2069 C2065 0.950 . S
H2070 C2067 0.950 . S
C2071 C2062 1.390 . S
C2071 H2064 0.950 . S
C2071 C2068 1.387 . S
C2072 C2073 1.387 . S
C2072 H2076 0.950 . S
C2072 C2081 1.390 . S
C2073 C2072 1.387 . S
C2073 C2075 1.387 . S
H2074 C2081 0.950 . S
C2075 C2073 1.387 . S
C2075 C2077 1.390 . S
C2075 H2079 0.950 . S
H2076 C2072 0.950 . S
C2077 C2075 1.390 . S
C2077 C2078 1.387 . S
C2077 H2080 0.950 . S
C2078 C2077 1.387 . S
C2078 C2081 1.387 . S
H2079 C2075 0.950 . S
H2080 C2077 0.950 . S
C2081 C2072 1.390 . S
C2081 H2074 0.950 . S
C2081 C2078 1.387 . S
C2082 C2083 1.387 . S
C2082 H2086 0.950 . S
C2082 C2091 1.390 . S
C2083 C2082 1.387 . S
C2083 C2085 1.387 . S
H2084 C2091 0.950 . S
C2085 C2083 1.387 . S
C2085 C2087 1.390 . S
C2085 H2089 0.950 . S
H2086 C2082 0.950 . S
C2087 C2085 1.390 . S
C2087 C2088 1.387 . S
C2087 H2090 0.950 . S
C2088 C2087 1.387 . S
C2088 C2091 1.387 . S
H2089 C2085 0.950 . S
H2090 C2087 0.950 . S
C2091 C2082 1.390 . S
C2091 H2084 0.950 . S
C2091 C2088 1.387 . S
C2092 C2093 1.387 . S
C2092 H2096 0.950 . S
C2092 C2101 1.390 . S
C2093 C2092 1.387 . S
C2093 C2095 1.387 . S
H2094 C2101 0.950 . S
C2095 C2093 1.387 . S
C2095 C2097 1.390 . S
C2095 H2099 0.950 . S
H2096 C2092 0.950 . S
C2097 C2095 1.390 . S
C2097 C2098 1.387 . S
C2097 H2100 0.950 . S
C2098 C2097 1.387 . S
C2098 C2101 1.387 . S
H2099 C2095 0.950 . S
H2100 C2097 0.950 . S
C2101 C2092 1.390 . S
C2101 H2094 0.950 . S
C2101 C2098 1.387 . S
C2102 C2103 1.387 . S
C2102 H2106 0.950 . S
C2102 C2111 1.390 . S
C2103 C2102 1.387 . S
C2103 C2105 1.387 . S
H2104 C2111 0.950 . S
C2105 C2103 1.387 . S
C2105 C2107 1.390 . S
C2105 H2109 0.950 . S
H2106 C2102 0.950 . S
C2107 C2105 1.390 . S
C2107 C2108 1.387 . S
C2107 H2110 0.950 . S
C2108 C2107 1.387 . S
C2108 C2111 1.387 . S
H2109 C2105 0.950 . S
H2110 C2107 0.950 . S
C2111 C2102 1.390 . S
C2111 H2104 0.950 . S
C2111 C2108 1.387 . S
C2112 C2113 1.387 . S
C2112 H2116 0.950 . S
C2112 C2121 1.390 1_455 S
C2113 C2112 1.387 . S
C2113 C2115 1.387 . S
H2114 C2121 0.950 . S
C2115 C2113 1.387 . S
C2115 C2117 1.390 1_455 S
C2115 H2119 0.950 . S
H2116 C2112 0.950 . S
C2117 C2115 1.390 1_655 S
C2117 C2118 1.387 . S
C2117 H2120 0.950 . S
C2118 C2117 1.387 . S
C2118 C2121 1.387 . S
H2119 C2115 0.950 . S
H2120 C2117 0.950 . S
C2121 C2112 1.390 1_655 S
C2121 H2114 0.950 . S
C2121 C2118 1.387 . S
C2122 C2123 1.387 . S
C2122 H2126 0.950 . S
C2122 C2131 1.390 1_455 S
C2123 C2122 1.387 . S
C2123 C2125 1.387 . S
H2124 C2131 0.950 . S
C2125 C2123 1.387 . S
C2125 C2127 1.390 1_455 S
C2125 H2129 0.950 . S
H2126 C2122 0.950 . S
C2127 C2125 1.390 1_655 S
C2127 C2128 1.387 . S
C2127 H2130 0.950 . S
C2128 C2127 1.387 . S
C2128 C2131 1.387 . S
H2129 C2125 0.950 . S
H2130 C2127 0.950 . S
C2131 C2122 1.390 1_655 S
C2131 H2124 0.950 . S
C2131 C2128 1.387 . S
C2132 C2133 1.387 . S
C2132 H2136 0.950 . S
C2132 C2141 1.390 . S
C2133 C2132 1.387 . S
C2133 C2135 1.387 . S
H2134 C2141 0.950 . S
C2135 C2133 1.387 . S
C2135 C2137 1.390 . S
C2135 H2139 0.950 . S
H2136 C2132 0.950 . S
C2137 C2135 1.390 . S
C2137 C2138 1.387 . S
C2137 H2140 0.950 . S
C2138 C2137 1.387 . S
C2138 C2141 1.387 . S
H2139 C2135 0.950 . S
H2140 C2137 0.950 . S
C2141 C2132 1.390 . S
C2141 H2134 0.950 . S
C2141 C2138 1.387 . S
C2142 C2143 1.387 . S
C2142 H2146 0.950 . S
C2142 C2151 1.390 . S
C2143 C2142 1.387 . S
C2143 C2145 1.387 . S
H2144 C2151 0.950 . S
C2145 C2143 1.387 . S
C2145 C2147 1.390 . S
C2145 H2149 0.950 . S
H2146 C2142 0.950 . S
C2147 C2145 1.390 . S
C2147 C2148 1.387 . S
C2147 H2150 0.950 . S
C2148 C2147 1.387 . S
C2148 C2151 1.387 . S
H2149 C2145 0.950 . S
H2150 C2147 0.950 . S
C2151 C2142 1.390 . S
C2151 H2144 0.950 . S
C2151 C2148 1.387 . S
C2152 C2153 1.387 . S
C2152 H2156 0.950 . S
C2152 C2161 1.390 1_655 S
C2153 C2152 1.387 . S
C2153 C2155 1.387 . S
H2154 C2161 0.950 . S
C2155 C2153 1.387 . S
C2155 C2157 1.390 1_655 S
C2155 H2159 0.950 . S
H2156 C2152 0.950 . S
C2157 C2155 1.390 1_455 S
C2157 C2158 1.387 . S
C2157 H2160 0.950 . S
C2158 C2157 1.387 . S
C2158 C2161 1.387 . S
H2159 C2155 0.950 . S
H2160 C2157 0.950 . S
C2161 C2152 1.390 1_455 S
C2161 H2154 0.950 . S
C2161 C2158 1.387 . S
C2162 C2163 1.387 . S
C2162 H2166 0.950 . S
C2162 C2171 1.390 . S
C2163 C2162 1.387 . S
C2163 C2165 1.387 . S
H2164 C2171 0.950 . S
C2165 C2163 1.387 . S
C2165 C2167 1.390 . S
C2165 H2169 0.950 . S
H2166 C2162 0.950 . S
C2167 C2165 1.390 . S
C2167 C2168 1.387 . S
C2167 H2170 0.950 . S
C2168 C2167 1.387 . S
C2168 C2171 1.387 . S
H2169 C2165 0.950 . S
H2170 C2167 0.950 . S
C2171 C2162 1.390 . S
C2171 H2164 0.950 . S
C2171 C2168 1.387 . S
C2172 C2173 1.387 . S
C2172 H2176 0.950 . S
C2172 C2181 1.390 . S
C2173 C2172 1.387 . S
C2173 C2175 1.387 . S
H2174 C2181 0.950 . S
C2175 C2173 1.387 . S
C2175 C2177 1.390 . S
C2175 H2179 0.950 . S
H2176 C2172 0.950 . S
C2177 C2175 1.390 . S
C2177 C2178 1.387 . S
C2177 H2180 0.950 . S
C2178 C2177 1.387 . S
C2178 C2181 1.387 . S
H2179 C2175 0.950 . S
H2180 C2177 0.950 . S
C2181 C2172 1.390 . S
C2181 H2174 0.950 . S
C2181 C2178 1.387 . S
C2182 C2183 1.387 . S
C2182 H2186 0.950 . S
C2182 C2191 1.390 1_655 S
C2183 C2182 1.387 . S
C2183 C2185 1.387 . S
H2184 C2191 0.950 . S
C2185 C2183 1.387 . S
C2185 C2187 1.390 1_655 S
C2185 H2189 0.950 . S
H2186 C2182 0.950 . S
C2187 C2185 1.390 1_455 S
C2187 C2188 1.387 . S
C2187 H2190 0.950 . S
C2188 C2187 1.387 . S
C2188 C2191 1.387 . S
H2189 C2185 0.950 . S
H2190 C2187 0.950 . S
C2191 C2182 1.390 1_455 S
C2191 H2184 0.950 . S
C2191 C2188 1.387 . S
C2192 C2193 1.387 . S
C2192 H2196 0.950 . S
C2192 C2201 1.390 1_545 S
C2193 C2192 1.387 . S
C2193 C2195 1.387 . S
H2194 C2201 0.950 . S
C2195 C2193 1.387 . S
C2195 C2197 1.390 1_545 S
C2195 H2199 0.950 . S
H2196 C2192 0.950 . S
C2197 C2195 1.390 1_565 S
C2197 C2198 1.387 . S
C2197 H2200 0.950 . S
C2198 C2197 1.387 . S
C2198 C2201 1.387 . S
H2199 C2195 0.950 . S
H2200 C2197 0.950 . S
C2201 C2192 1.390 1_565 S
C2201 H2194 0.950 . S
C2201 C2198 1.387 . S
C2202 C2203 1.387 . S
C2202 H2206 0.950 . S
C2202 C2211 1.390 . S
C2203 C2202 1.387 . S
C2203 C2205 1.387 . S
H2204 C2211 0.950 . S
C2205 C2203 1.387 . S
C2205 C2207 1.390 . S
C2205 H2209 0.950 . S
H2206 C2202 0.950 . S
C2207 C2205 1.390 . S
C2207 C2208 1.387 . S
C2207 H2210 0.950 . S
C2208 C2207 1.387 . S
C2208 C2211 1.387 . S
H2209 C2205 0.950 . S
H2210 C2207 0.950 . S
C2211 C2202 1.390 . S
C2211 H2204 0.950 . S
C2211 C2208 1.387 . S
C2212 C2213 1.387 . S
C2212 H2216 0.950 . S
C2212 C2221 1.390 1_565 S
C2213 C2212 1.387 . S
C2213 C2215 1.387 . S
H2214 C2221 0.950 . S
C2215 C2213 1.387 . S
C2215 C2217 1.390 1_565 S
C2215 H2219 0.950 . S
H2216 C2212 0.950 . S
C2217 C2215 1.390 1_545 S
C2217 C2218 1.387 . S
C2217 H2220 0.950 . S
C2218 C2217 1.387 . S
C2218 C2221 1.387 . S
H2219 C2215 0.950 . S
H2220 C2217 0.950 . S
C2221 C2212 1.390 1_545 S
C2221 H2214 0.950 . S
C2221 C2218 1.387 . S
C2222 C2223 1.387 . S
C2222 H2226 0.950 . S
C2222 C2231 1.390 1_556 S
C2223 C2222 1.387 . S
C2223 C2225 1.387 . S
H2224 C2231 0.950 . S
C2225 C2223 1.387 . S
C2225 C2227 1.390 1_556 S
C2225 H2229 0.950 . S
H2226 C2222 0.950 . S
C2227 C2225 1.390 1_554 S
C2227 C2228 1.387 . S
C2227 H2230 0.950 . S
C2228 C2227 1.387 . S
C2228 C2231 1.387 . S
H2229 C2225 0.950 . S
H2230 C2227 0.950 . S
C2231 C2222 1.390 1_554 S
C2231 H2224 0.950 . S
C2231 C2228 1.387 . S
C2232 C2233 1.387 . S
C2232 H2236 0.950 . S
C2232 C2241 1.390 1_554 S
C2233 C2232 1.387 . S
C2233 C2235 1.387 . S
H2234 C2241 0.950 . S
C2235 C2233 1.387 . S
C2235 C2237 1.390 1_554 S
C2235 H2239 0.950 . S
H2236 C2232 0.950 . S
C2237 C2235 1.390 1_556 S
C2237 C2238 1.387 . S
C2237 H2240 0.950 . S
C2238 C2237 1.387 . S
C2238 C2241 1.387 . S
H2239 C2235 0.950 . S
H2240 C2237 0.950 . S
C2241 C2232 1.390 1_556 S
C2241 H2234 0.950 . S
C2241 C2238 1.387 . S
C2242 C2243 1.387 . S
C2242 H2246 0.950 . S
C2242 C2251 1.390 1_556 S
C2243 C2242 1.387 . S
C2243 C2245 1.387 . S
H2244 C2251 0.950 . S
C2245 C2243 1.387 . S
C2245 C2247 1.390 1_556 S
C2245 H2249 0.950 . S
H2246 C2242 0.950 . S
C2247 C2245 1.390 1_554 S
C2247 C2248 1.387 . S
C2247 H2250 0.950 . S
C2248 C2247 1.387 . S
C2248 C2251 1.387 . S
H2249 C2245 0.950 . S
H2250 C2247 0.950 . S
C2251 C2242 1.390 1_554 S
C2251 H2244 0.950 . S
C2251 C2248 1.387 . S
C2252 C2253 1.387 . S
C2252 H2256 0.950 . S
C2252 C2261 1.390 . S
C2253 C2252 1.387 . S
C2253 C2255 1.387 . S
H2254 C2261 0.950 . S
C2255 C2253 1.387 . S
C2255 C2257 1.390 . S
C2255 H2259 0.950 . S
H2256 C2252 0.950 . S
C2257 C2255 1.390 . S
C2257 C2258 1.387 . S
C2257 H2260 0.950 . S
C2258 C2257 1.387 . S
C2258 C2261 1.387 . S
H2259 C2255 0.950 . S
H2260 C2257 0.950 . S
C2261 C2252 1.390 . S
C2261 H2254 0.950 . S
C2261 C2258 1.387 . S
C2262 C2263 1.387 . S
C2262 H2266 0.950 . S
C2262 C2271 1.390 . S
C2263 C2262 1.387 . S
C2263 C2265 1.387 . S
H2264 C2271 0.950 . S
C2265 C2263 1.387 . S
C2265 C2267 1.390 . S
C2265 H2269 0.950 . S
H2266 C2262 0.950 . S
C2267 C2265 1.390 . S
C2267 C2268 1.387 . S
C2267 H2270 0.950 . S
C2268 C2267 1.387 . S
C2268 C2271 1.387 . S
H2269 C2265 0.950 . S
H2270 C2267 0.950 . S
C2271 C2262 1.390 . S
C2271 H2264 0.950 . S
C2271 C2268 1.387 . S
C2272 C2273 1.387 . S
C2272 H2276 0.950 . S
C2272 C2281 1.390 1_565 S
C2273 C2272 1.387 . S
C2273 C2275 1.387 . S
H2274 C2281 0.950 . S
C2275 C2273 1.387 . S
C2275 C2277 1.390 1_565 S
C2275 H2279 0.950 . S
H2276 C2272 0.950 . S
C2277 C2275 1.390 1_545 S
C2277 C2278 1.387 . S
C2277 H2280 0.950 . S
C2278 C2277 1.387 . S
C2278 C2281 1.387 . S
H2279 C2275 0.950 . S
H2280 C2277 0.950 . S
C2281 C2272 1.390 1_545 S
C2281 H2274 0.950 . S
C2281 C2278 1.387 . S
C2282 C2283 1.387 . S
C2282 H2286 0.950 . S
C2282 C2291 1.390 . S
C2283 C2282 1.387 . S
C2283 C2285 1.387 . S
H2284 C2291 0.950 . S
C2285 C2283 1.387 . S
C2285 C2287 1.390 . S
C2285 H2289 0.950 . S
H2286 C2282 0.950 . S
C2287 C2285 1.390 . S
C2287 C2288 1.387 . S
C2287 H2290 0.950 . S
C2288 C2287 1.387 . S
C2288 C2291 1.387 . S
H2289 C2285 0.950 . S
H2290 C2287 0.950 . S
C2291 C2282 1.390 . S
C2291 H2284 0.950 . S
C2291 C2288 1.387 . S
C2292 C2293 1.387 . S
C2292 H2296 0.950 . S
C2292 C2301 1.390 . S
C2293 C2292 1.387 . S
C2293 C2295 1.387 . S
H2294 C2301 0.950 . S
C2295 C2293 1.387 . S
C2295 C2297 1.390 . S
C2295 H2299 0.950 . S
H2296 C2292 0.950 . S
C2297 C2295 1.390 . S
C2297 C2298 1.387 . S
C2297 H2300 0.950 . S
C2298 C2297 1.387 . S
C2298 C2301 1.387 . S
H2299 C2295 0.950 . S
H2300 C2297 0.950 . S
C2301 C2292 1.390 . S
C2301 H2294 0.950 . S
C2301 C2298 1.387 . S
C2302 C2303 1.387 . S
C2302 H2306 0.950 . S
C2302 C2311 1.390 . S
C2303 C2302 1.387 . S
C2303 C2305 1.387 . S
H2304 C2311 0.950 . S
C2305 C2303 1.387 . S
C2305 C2307 1.390 . S
C2305 H2309 0.950 . S
H2306 C2302 0.950 . S
C2307 C2305 1.390 . S
C2307 C2308 1.387 . S
C2307 H2310 0.950 . S
C2308 C2307 1.387 . S
C2308 C2311 1.387 . S
H2309 C2305 0.950 . S
H2310 C2307 0.950 . S
C2311 C2302 1.390 . S
C2311 H2304 0.950 . S
C2311 C2308 1.387 . S
C2312 C2313 1.387 . S
C2312 H2316 0.950 . S
C2312 C2321 1.390 1_556 S
C2313 C2312 1.387 . S
C2313 C2315 1.387 . S
H2314 C2321 0.950 . S
C2315 C2313 1.387 . S
C2315 C2317 1.390 1_556 S
C2315 H2319 0.950 . S
H2316 C2312 0.950 . S
C2317 C2315 1.390 1_554 S
C2317 C2318 1.387 . S
C2317 H2320 0.950 . S
C2318 C2317 1.387 . S
C2318 C2321 1.387 . S
H2319 C2315 0.950 . S
H2320 C2317 0.950 . S
C2321 C2312 1.390 1_554 S
C2321 H2314 0.950 . S
C2321 C2318 1.387 . S
C2322 C2323 1.387 . S
C2322 H2326 0.950 . S
C2322 C2331 1.390 . S
C2323 C2322 1.387 . S
C2323 C2325 1.387 . S
H2324 C2331 0.950 . S
C2325 C2323 1.387 . S
C2325 C2327 1.390 . S
C2325 H2329 0.950 . S
H2326 C2322 0.950 . S
C2327 C2325 1.390 . S
C2327 C2328 1.387 . S
C2327 H2330 0.950 . S
C2328 C2327 1.387 . S
C2328 C2331 1.387 . S
H2329 C2325 0.950 . S
H2330 C2327 0.950 . S
C2331 C2322 1.390 . S
C2331 H2324 0.950 . S
C2331 C2328 1.387 . S
C2332 C2333 1.387 . S
C2332 H2336 0.950 . S
C2332 C2341 1.390 . S
C2333 C2332 1.387 . S
C2333 C2335 1.387 . S
H2334 C2341 0.950 . S
C2335 C2333 1.387 . S
C2335 C2337 1.390 . S
C2335 H2339 0.950 . S
H2336 C2332 0.950 . S
C2337 C2335 1.390 . S
C2337 C2338 1.387 . S
C2337 H2340 0.950 . S
C2338 C2337 1.387 . S
C2338 C2341 1.387 . S
H2339 C2335 0.950 . S
H2340 C2337 0.950 . S
C2341 C2332 1.390 . S
C2341 H2334 0.950 . S
C2341 C2338 1.387 . S
C2342 C2343 1.387 . S
C2342 H2346 0.950 . S
C2342 C2351 1.390 1_565 S
C2343 C2342 1.387 . S
C2343 C2345 1.387 . S
H2344 C2351 0.950 . S
C2345 C2343 1.387 . S
C2345 C2347 1.390 1_565 S
C2345 H2349 0.950 . S
H2346 C2342 0.950 . S
C2347 C2345 1.390 1_545 S
C2347 C2348 1.387 . S
C2347 H2350 0.950 . S
C2348 C2347 1.387 . S
C2348 C2351 1.387 . S
H2349 C2345 0.950 . S
H2350 C2347 0.950 . S
C2351 C2342 1.390 1_545 S
C2351 H2344 0.950 . S
C2351 C2348 1.387 . S
C2352 C2353 1.387 . S
C2352 H2356 0.950 . S
C2352 C2361 1.390 . S
C2353 C2352 1.387 . S
C2353 C2355 1.387 . S
H2354 C2361 0.950 . S
C2355 C2353 1.387 . S
C2355 C2357 1.390 . S
C2355 H2359 0.950 . S
H2356 C2352 0.950 . S
C2357 C2355 1.390 . S
C2357 C2358 1.387 . S
C2357 H2360 0.950 . S
C2358 C2357 1.387 . S
C2358 C2361 1.387 . S
H2359 C2355 0.950 . S
H2360 C2357 0.950 . S
C2361 C2352 1.390 . S
C2361 H2354 0.950 . S
C2361 C2358 1.387 . S
C2362 C2363 1.387 . S
C2362 H2366 0.950 . S
C2362 C2371 1.390 . S
C2363 C2362 1.387 . S
C2363 C2365 1.387 . S
H2364 C2371 0.950 . S
C2365 C2363 1.387 . S
C2365 C2367 1.390 . S
C2365 H2369 0.950 . S
H2366 C2362 0.950 . S
C2367 C2365 1.390 . S
C2367 C2368 1.387 . S
C2367 H2370 0.950 . S
C2368 C2367 1.387 . S
C2368 C2371 1.387 . S
H2369 C2365 0.950 . S
H2370 C2367 0.950 . S
C2371 C2362 1.390 . S
C2371 H2364 0.950 . S
C2371 C2368 1.387 . S
C2372 C2373 1.387 . S
C2372 H2376 0.950 . S
C2372 C2381 1.390 . S
C2373 C2372 1.387 . S
C2373 C2375 1.387 . S
H2374 C2381 0.950 . S
C2375 C2373 1.387 . S
C2375 C2377 1.390 . S
C2375 H2379 0.950 . S
H2376 C2372 0.950 . S
C2377 C2375 1.390 . S
C2377 C2378 1.387 . S
C2377 H2380 0.950 . S
C2378 C2377 1.387 . S
C2378 C2381 1.387 . S
H2379 C2375 0.950 . S
H2380 C2377 0.950 . S
C2381 C2372 1.390 . S
C2381 H2374 0.950 . S
C2381 C2378 1.387 . S
C2382 C2383 1.387 . S
C2382 H2386 0.950 . S
C2382 C2391 1.390 . S
C2383 C2382 1.387 . S
C2383 C2385 1.387 . S
H2384 C2391 0.950 . S
C2385 C2383 1.387 . S
C2385 C2387 1.390 . S
C2385 H2389 0.950 . S
H2386 C2382 0.950 . S
C2387 C2385 1.390 . S
C2387 C2388 1.387 . S
C2387 H2390 0.950 . S
C2388 C2387 1.387 . S
C2388 C2391 1.387 . S
H2389 C2385 0.950 . S
H2390 C2387 0.950 . S
C2391 C2382 1.390 . S
C2391 H2384 0.950 . S
C2391 C2388 1.387 . S
C2392 C2393 1.387 . S
C2392 H2396 0.950 . S
C2392 C2401 1.390 . S
C2393 C2392 1.387 . S
C2393 C2395 1.387 . S
H2394 C2401 0.950 . S
C2395 C2393 1.387 . S
C2395 C2397 1.390 . S
C2395 H2399 0.950 . S
H2396 C2392 0.950 . S
C2397 C2395 1.390 . S
C2397 C2398 1.387 . S
C2397 H2400 0.950 . S
C2398 C2397 1.387 . S
C2398 C2401 1.387 . S
H2399 C2395 0.950 . S
H2400 C2397 0.950 . S
C2401 C2392 1.390 . S
C2401 H2394 0.950 . S
C2401 C2398 1.387 . S
C2402 C2403 1.387 . S
C2402 H2406 0.950 . S
C2402 C2411 1.390 . S
C2403 C2402 1.387 . S
C2403 C2405 1.387 . S
H2404 C2411 0.950 . S
C2405 C2403 1.387 . S
C2405 C2407 1.390 . S
C2405 H2409 0.950 . S
H2406 C2402 0.950 . S
C2407 C2405 1.390 . S
C2407 C2408 1.387 . S
C2407 H2410 0.950 . S
C2408 C2407 1.387 . S
C2408 C2411 1.387 . S
H2409 C2405 0.950 . S
H2410 C2407 0.950 . S
C2411 C2402 1.390 . S
C2411 H2404 0.950 . S
C2411 C2408 1.387 . S
C2412 C2413 1.387 . S
C2412 H2416 0.950 . S
C2412 C2421 1.390 . S
C2413 C2412 1.387 . S
C2413 C2415 1.387 . S
H2414 C2421 0.950 . S
C2415 C2413 1.387 . S
C2415 C2417 1.390 . S
C2415 H2419 0.950 . S
H2416 C2412 0.950 . S
C2417 C2415 1.390 . S
C2417 C2418 1.387 . S
C2417 H2420 0.950 . S
C2418 C2417 1.387 . S
C2418 C2421 1.387 . S
H2419 C2415 0.950 . S
H2420 C2417 0.950 . S
C2421 C2412 1.390 . S
C2421 H2414 0.950 . S
C2421 C2418 1.387 . S
C2422 C2423 1.387 . S
C2422 H2426 0.950 . S
C2422 C2431 1.390 . S
C2423 C2422 1.387 . S
C2423 C2425 1.387 . S
H2424 C2431 0.950 . S
C2425 C2423 1.387 . S
C2425 C2427 1.390 . S
C2425 H2429 0.950 . S
H2426 C2422 0.950 . S
C2427 C2425 1.390 . S
C2427 C2428 1.387 . S
C2427 H2430 0.950 . S
C2428 C2427 1.387 . S
C2428 C2431 1.387 . S
H2429 C2425 0.950 . S
H2430 C2427 0.950 . S
C2431 C2422 1.390 . S
C2431 H2424 0.950 . S
C2431 C2428 1.387 . S
C2432 C2433 1.387 . S
C2432 H2436 0.950 . S
C2432 C2441 1.390 . S
C2433 C2432 1.387 . S
C2433 C2435 1.387 . S
H2434 C2441 0.950 . S
C2435 C2433 1.387 . S
C2435 C2437 1.390 . S
C2435 H2439 0.950 . S
H2436 C2432 0.950 . S
C2437 C2435 1.390 . S
C2437 C2438 1.387 . S
C2437 H2440 0.950 . S
C2438 C2437 1.387 . S
C2438 C2441 1.387 . S
H2439 C2435 0.950 . S
H2440 C2437 0.950 . S
C2441 C2432 1.390 . S
C2441 H2434 0.950 . S
C2441 C2438 1.387 . S
C2442 C2443 1.387 . S
C2442 H2446 0.950 . S
C2442 C2451 1.390 . S
C2443 C2442 1.387 . S
C2443 C2445 1.387 . S
H2444 C2451 0.950 . S
C2445 C2443 1.387 . S
C2445 C2447 1.390 . S
C2445 H2449 0.950 . S
H2446 C2442 0.950 . S
C2447 C2445 1.390 . S
C2447 C2448 1.387 . S
C2447 H2450 0.950 . S
C2448 C2447 1.387 . S
C2448 C2451 1.387 . S
H2449 C2445 0.950 . S
H2450 C2447 0.950 . S
C2451 C2442 1.390 . S
C2451 H2444 0.950 . S
C2451 C2448 1.387 . S
C2452 C2453 1.387 . S
C2452 H2456 0.950 . S
C2452 C2461 1.390 . S
C2453 C2452 1.387 . S
C2453 C2455 1.387 . S
H2454 C2461 0.950 . S
C2455 C2453 1.387 . S
C2455 C2457 1.390 . S
C2455 H2459 0.950 . S
H2456 C2452 0.950 . S
C2457 C2455 1.390 . S
C2457 C2458 1.387 . S
C2457 H2460 0.950 . S
C2458 C2457 1.387 . S
C2458 C2461 1.387 . S
H2459 C2455 0.950 . S
H2460 C2457 0.950 . S
C2461 C2452 1.390 . S
C2461 H2454 0.950 . S
C2461 C2458 1.387 . S
C2462 C2463 1.387 . S
C2462 H2466 0.950 . S
C2462 C2471 1.390 . S
C2463 C2462 1.387 . S
C2463 C2465 1.387 . S
H2464 C2471 0.950 . S
C2465 C2463 1.387 . S
C2465 C2467 1.390 . S
C2465 H2469 0.950 . S
H2466 C2462 0.950 . S
C2467 C2465 1.390 . S
C2467 C2468 1.387 . S
C2467 H2470 0.950 . S
C2468 C2467 1.387 . S
C2468 C2471 1.387 . S
H2469 C2465 0.950 . S
H2470 C2467 0.950 . S
C2471 C2462 1.390 . S
C2471 H2464 0.950 . S
C2471 C2468 1.387 . S
C2472 C2473 1.387 . S
C2472 H2476 0.950 . S
C2472 C2481 1.390 . S
C2473 C2472 1.387 . S
C2473 C2475 1.387 . S
H2474 C2481 0.950 . S
C2475 C2473 1.387 . S
C2475 C2477 1.390 . S
C2475 H2479 0.950 . S
H2476 C2472 0.950 . S
C2477 C2475 1.390 . S
C2477 C2478 1.387 . S
C2477 H2480 0.950 . S
C2478 C2477 1.387 . S
C2478 C2481 1.387 . S
H2479 C2475 0.950 . S
H2480 C2477 0.950 . S
C2481 C2472 1.390 . S
C2481 H2474 0.950 . S
C2481 C2478 1.387 . S
C2482 C2483 1.387 . S
C2482 H2486 0.950 . S
C2482 C2491 1.390 . S
C2483 C2482 1.387 . S
C2483 C2485 1.387 . S
H2484 C2491 0.950 . S
C2485 C2483 1.387 . S
C2485 C2487 1.390 . S
C2485 H2489 0.950 . S
H2486 C2482 0.950 . S
C2487 C2485 1.390 . S
C2487 C2488 1.387 . S
C2487 H2490 0.950 . S
C2488 C2487 1.387 . S
C2488 C2491 1.387 . S
H2489 C2485 0.950 . S
H2490 C2487 0.950 . S
C2491 C2482 1.390 . S
C2491 H2484 0.950 . S
C2491 C2488 1.387 . S
C2492 C2493 1.387 . S
C2492 H2496 0.950 . S
C2492 C2501 1.390 . S
C2493 C2492 1.387 . S
C2493 C2495 1.387 . S
H2494 C2501 0.950 . S
C2495 C2493 1.387 . S
C2495 C2497 1.390 . S
C2495 H2499 0.950 . S
H2496 C2492 0.950 . S
C2497 C2495 1.390 . S
C2497 C2498 1.387 . S
C2497 H2500 0.950 . S
C2498 C2497 1.387 . S
C2498 C2501 1.387 . S
H2499 C2495 0.950 . S
H2500 C2497 0.950 . S
C2501 C2492 1.390 . S
C2501 H2494 0.950 . S
C2501 C2498 1.387 . S
C2502 C2503 1.387 . S
C2502 H2506 0.950 . S
C2502 C2511 1.390 . S
C2503 C2502 1.387 . S
C2503 C2505 1.387 . S
H2504 C2511 0.950 . S
C2505 C2503 1.387 . S
C2505 C2507 1.390 . S
C2505 H2509 0.950 . S
H2506 C2502 0.950 . S
C2507 C2505 1.390 . S
C2507 C2508 1.387 . S
C2507 H2510 0.950 . S
C2508 C2507 1.387 . S
C2508 C2511 1.387 . S
H2509 C2505 0.950 . S
H2510 C2507 0.950 . S
C2511 C2502 1.390 . S
C2511 H2504 0.950 . S
C2511 C2508 1.387 . S
C2512 C2513 1.387 . S
C2512 H2516 0.950 . S
C2512 C2521 1.390 . S
C2513 C2512 1.387 . S
C2513 C2515 1.387 . S
H2514 C2521 0.950 . S
C2515 C2513 1.387 . S
C2515 C2517 1.390 . S
C2515 H2519 0.950 . S
H2516 C2512 0.950 . S
C2517 C2515 1.390 . S
C2517 C2518 1.387 . S
C2517 H2520 0.950 . S
C2518 C2517 1.387 . S
C2518 C2521 1.387 . S
H2519 C2515 0.950 . S
H2520 C2517 0.950 . S
C2521 C2512 1.390 . S
C2521 H2514 0.950 . S
C2521 C2518 1.387 . S
C2522 C2523 1.387 . S
C2522 H2526 0.950 . S
C2522 C2531 1.390 . S
C2523 C2522 1.387 . S
C2523 C2525 1.387 . S
H2524 C2531 0.950 . S
C2525 C2523 1.387 . S
C2525 C2527 1.390 . S
C2525 H2529 0.950 . S
H2526 C2522 0.950 . S
C2527 C2525 1.390 . S
C2527 C2528 1.387 . S
C2527 H2530 0.950 . S
C2528 C2527 1.387 . S
C2528 C2531 1.387 . S
H2529 C2525 0.950 . S
H2530 C2527 0.950 . S
C2531 C2522 1.390 . S
C2531 H2524 0.950 . S
C2531 C2528 1.387 . S
C2532 C2533 1.387 . S
C2532 H2536 0.950 . S
C2532 C2541 1.390 . S
C2533 C2532 1.387 . S
C2533 C2535 1.387 . S
H2534 C2541 0.950 . S
C2535 C2533 1.387 . S
C2535 C2537 1.390 . S
C2535 H2539 0.950 . S
H2536 C2532 0.950 . S
C2537 C2535 1.390 . S
C2537 C2538 1.387 . S
C2537 H2540 0.950 . S
C2538 C2537 1.387 . S
C2538 C2541 1.387 . S
H2539 C2535 0.950 . S
H2540 C2537 0.950 . S
C2541 C2532 1.390 . S
C2541 H2534 0.950 . S
C2541 C2538 1.387 . S
C2542 C2543 1.387 . S
C2542 H2546 0.950 . S
C2542 C2551 1.390 . S
C2543 C2542 1.387 . S
C2543 C2545 1.387 . S
H2544 C2551 0.950 . S
C2545 C2543 1.387 . S
C2545 C2547 1.390 . S
C2545 H2549 0.950 . S
H2546 C2542 0.950 . S
C2547 C2545 1.390 . S
C2547 C2548 1.387 . S
C2547 H2550 0.950 . S
C2548 C2547 1.387 . S
C2548 C2551 1.387 . S
H2549 C2545 0.950 . S
H2550 C2547 0.950 . S
C2551 C2542 1.390 . S
C2551 H2544 0.950 . S
C2551 C2548 1.387 . S
C2552 C2553 1.387 . S
C2552 H2556 0.950 . S
C2552 C2561 1.390 . S
C2553 C2552 1.387 . S
C2553 C2555 1.387 . S
H2554 C2561 0.950 . S
C2555 C2553 1.387 . S
C2555 C2557 1.390 . S
C2555 H2559 0.950 . S
H2556 C2552 0.950 . S
C2557 C2555 1.390 . S
C2557 C2558 1.387 . S
C2557 H2560 0.950 . S
C2558 C2557 1.387 . S
C2558 C2561 1.387 . S
H2559 C2555 0.950 . S
H2560 C2557 0.950 . S
C2561 C2552 1.390 . S
C2561 H2554 0.950 . S
C2561 C2558 1.387 . S
C2562 C2563 1.387 . S
C2562 H2566 0.950 . S
C2562 C2571 1.390 . S
C2563 C2562 1.387 . S
C2563 C2565 1.387 . S
H2564 C2571 0.950 . S
C2565 C2563 1.387 . S
C2565 C2567 1.390 . S
C2565 H2569 0.950 . S
H2566 C2562 0.950 . S
C2567 C2565 1.390 . S
C2567 C2568 1.387 . S
C2567 H2570 0.950 . S
C2568 C2567 1.387 . S
C2568 C2571 1.387 . S
H2569 C2565 0.950 . S
H2570 C2567 0.950 . S
C2571 C2562 1.390 . S
C2571 H2564 0.950 . S
C2571 C2568 1.387 . S
C2572 C2573 1.387 . S
C2572 H2576 0.950 . S
C2572 C2581 1.390 . S
C2573 C2572 1.387 . S
C2573 C2575 1.387 . S
H2574 C2581 0.950 . S
C2575 C2573 1.387 . S
C2575 C2577 1.390 . S
C2575 H2579 0.950 . S
H2576 C2572 0.950 . S
C2577 C2575 1.390 . S
C2577 C2578 1.387 . S
C2577 H2580 0.950 . S
C2578 C2577 1.387 . S
C2578 C2581 1.387 . S
H2579 C2575 0.950 . S
H2580 C2577 0.950 . S
C2581 C2572 1.390 . S
C2581 H2574 0.950 . S
C2581 C2578 1.387 . S
C2582 C2583 1.387 . S
C2582 H2586 0.950 . S
C2582 C2591 1.390 . S
C2583 C2582 1.387 . S
C2583 C2585 1.387 . S
H2584 C2591 0.950 . S
C2585 C2583 1.387 . S
C2585 C2587 1.390 . S
C2585 H2589 0.950 . S
H2586 C2582 0.950 . S
C2587 C2585 1.390 . S
C2587 C2588 1.387 . S
C2587 H2590 0.950 . S
C2588 C2587 1.387 . S
C2588 C2591 1.387 . S
H2589 C2585 0.950 . S
H2590 C2587 0.950 . S
C2591 C2582 1.390 . S
C2591 H2584 0.950 . S
C2591 C2588 1.387 . S
C2592 C2593 1.387 . S
C2592 H2596 0.950 . S
C2592 C2601 1.390 . S
C2593 C2592 1.387 . S
C2593 C2595 1.387 . S
H2594 C2601 0.950 . S
C2595 C2593 1.387 . S
C2595 C2597 1.390 . S
C2595 H2599 0.950 . S
H2596 C2592 0.950 . S
C2597 C2595 1.390 . S
C2597 C2598 1.387 . S
C2597 H2600 0.950 . S
C2598 C2597 1.387 . S
C2598 C2601 1.387 . S
H2599 C2595 0.950 . S
H2600 C2597 0.950 . S
C2601 C2592 1.390 . S
C2601 H2594 0.950 . S
C2601 C2598 1.387 . S
C2602 C2603 1.387 . S
C2602 H2606 0.950 . S
C2602 C2611 1.390 . S
C2603 C2602 1.387 . S
C2603 C2605 1.387 . S
H2604 C2611 0.950 . S
C2605 C2603 1.387 . S
C2605 C2607 1.390 . S
C2605 H2609 0.950 . S
H2606 C2602 0.950 . S
C2607 C2605 1.390 . S
C2607 C2608 1.387 . S
C2607 H2610 0.950 . S
C2608 C2607 1.387 . S
C2608 C2611 1.387 . S
H2609 C2605 0.950 . S
H2610 C2607 0.950 . S
C2611 C2602 1.390 . S
C2611 H2604 0.950 . S
C2611 C2608 1.387 . S
C2612 C2613 1.387 . S
C2612 H2616 0.950 . S
C2612 C2621 1.390 . S
C2613 C2612 1.387 . S
C2613 C2615 1.387 . S
H2614 C2621 0.950 . S
C2615 C2613 1.387 . S
C2615 C2617 1.390 . S
C2615 H2619 0.950 . S
H2616 C2612 0.950 . S
C2617 C2615 1.390 . S
C2617 C2618 1.387 . S
C2617 H2620 0.950 . S
C2618 C2617 1.387 . S
C2618 C2621 1.387 . S
H2619 C2615 0.950 . S
H2620 C2617 0.950 . S
C2621 C2612 1.390 . S
C2621 H2614 0.950 . S
C2621 C2618 1.387 . S
C2622 C2623 1.387 . S
C2622 H2626 0.950 . S
C2622 C2631 1.390 . S
C2623 C2622 1.387 . S
C2623 C2625 1.387 . S
H2624 C2631 0.950 . S
C2625 C2623 1.387 . S
C2625 C2627 1.390 . S
C2625 H2629 0.950 . S
H2626 C2622 0.950 . S
C2627 C2625 1.390 . S
C2627 C2628 1.387 . S
C2627 H2630 0.950 . S
C2628 C2627 1.387 . S
C2628 C2631 1.387 . S
H2629 C2625 0.950 . S
H2630 C2627 0.950 . S
C2631 C2622 1.390 . S
C2631 H2624 0.950 . S
C2631 C2628 1.387 . S
C2632 C2633 1.387 . S
C2632 H2636 0.950 . S
C2632 C2641 1.390 . S
C2633 C2632 1.387 . S
C2633 C2635 1.387 . S
H2634 C2641 0.950 . S
C2635 C2633 1.387 . S
C2635 C2637 1.390 . S
C2635 H2639 0.950 . S
H2636 C2632 0.950 . S
C2637 C2635 1.390 . S
C2637 C2638 1.387 . S
C2637 H2640 0.950 . S
C2638 C2637 1.387 . S
C2638 C2641 1.387 . S
H2639 C2635 0.950 . S
H2640 C2637 0.950 . S
C2641 C2632 1.390 . S
C2641 H2634 0.950 . S
C2641 C2638 1.387 . S
C2642 C2643 1.387 . S
C2642 H2646 0.950 . S
C2642 C2651 1.390 . S
C2643 C2642 1.387 . S
C2643 C2645 1.387 . S
H2644 C2651 0.950 . S
C2645 C2643 1.387 . S
C2645 C2647 1.390 . S
C2645 H2649 0.950 . S
H2646 C2642 0.950 . S
C2647 C2645 1.390 . S
C2647 C2648 1.387 . S
C2647 H2650 0.950 . S
C2648 C2647 1.387 . S
C2648 C2651 1.387 . S
H2649 C2645 0.950 . S
H2650 C2647 0.950 . S
C2651 C2642 1.390 . S
C2651 H2644 0.950 . S
C2651 C2648 1.387 . S
C2652 C2653 1.387 . S
C2652 H2656 0.950 . S
C2652 C2661 1.390 . S
C2653 C2652 1.387 . S
C2653 C2655 1.387 . S
H2654 C2661 0.950 . S
C2655 C2653 1.387 . S
C2655 C2657 1.390 . S
C2655 H2659 0.950 . S
H2656 C2652 0.950 . S
C2657 C2655 1.390 . S
C2657 C2658 1.387 . S
C2657 H2660 0.950 . S
C2658 C2657 1.387 . S
C2658 C2661 1.387 . S
H2659 C2655 0.950 . S
H2660 C2657 0.950 . S
C2661 C2652 1.390 . S
C2661 H2654 0.950 . S
C2661 C2658 1.387 . S
C2662 C2663 1.387 . S
C2662 H2666 0.950 . S
C2662 C2671 1.390 . S
C2663 C2662 1.387 . S
C2663 C2665 1.387 . S
H2664 C2671 0.950 . S
C2665 C2663 1.387 . S
C2665 C2667 1.390 . S
C2665 H2669 0.950 . S
H2666 C2662 0.950 . S
C2667 C2665 1.390 . S
C2667 C2668 1.387 . S
C2667 H2670 0.950 . S
C2668 C2667 1.387 . S
C2668 C2671 1.387 . S
H2669 C2665 0.950 . S
H2670 C2667 0.950 . S
C2671 C2662 1.390 . S
C2671 H2664 0.950 . S
C2671 C2668 1.387 . S
C2672 C2673 1.387 . S
C2672 H2676 0.950 . S
C2672 C2681 1.390 . S
C2673 C2672 1.387 . S
C2673 C2675 1.387 . S
H2674 C2681 0.950 . S
C2675 C2673 1.387 . S
C2675 C2677 1.390 . S
C2675 H2679 0.950 . S
H2676 C2672 0.950 . S
C2677 C2675 1.390 . S
C2677 C2678 1.387 . S
C2677 H2680 0.950 . S
C2678 C2677 1.387 . S
C2678 C2681 1.387 . S
H2679 C2675 0.950 . S
H2680 C2677 0.950 . S
C2681 C2672 1.390 . S
C2681 H2674 0.950 . S
C2681 C2678 1.387 . S
C2682 C2683 1.387 . S
C2682 H2686 0.950 . S
C2682 C2691 1.390 . S
C2683 C2682 1.387 . S
C2683 C2685 1.387 . S
H2684 C2691 0.950 . S
C2685 C2683 1.387 . S
C2685 C2687 1.390 . S
C2685 H2689 0.950 . S
H2686 C2682 0.950 . S
C2687 C2685 1.390 . S
C2687 C2688 1.387 . S
C2687 H2690 0.950 . S
C2688 C2687 1.387 . S
C2688 C2691 1.387 . S
H2689 C2685 0.950 . S
H2690 C2687 0.950 . S
C2691 C2682 1.390 . S
C2691 H2684 0.950 . S
C2691 C2688 1.387 . S
C2692 C2693 1.387 . S
C2692 H2696 0.950 . S
C2692 C2701 1.390 . S
C2693 C2692 1.387 . S
C2693 C2695 1.387 . S
H2694 C2701 0.950 . S
C2695 C2693 1.387 . S
C2695 C2697 1.390 . S
C2695 H2699 0.950 . S
H2696 C2692 0.950 . S
C2697 C2695 1.390 . S
C2697 C2698 1.387 . S
C2697 H2700 0.950 . S
C2698 C2697 1.387 . S
C2698 C2701 1.387 . S
H2699 C2695 0.950 . S
H2700 C2697 0.950 . S
C2701 C2692 1.390 . S
C2701 H2694 0.950 . S
C2701 C2698 1.387 . S
C2702 C2703 1.387 . S
C2702 H2706 0.950 . S
C2702 C2711 1.390 . S
C2703 C2702 1.387 . S
C2703 C2705 1.387 . S
H2704 C2711 0.950 . S
C2705 C2703 1.387 . S
C2705 C2707 1.390 . S
C2705 H2709 0.950 . S
H2706 C2702 0.950 . S
C2707 C2705 1.390 . S
C2707 C2708 1.387 . S
C2707 H2710 0.950 . S
C2708 C2707 1.387 . S
C2708 C2711 1.387 . S
H2709 C2705 0.950 . S
H2710 C2707 0.950 . S
C2711 C2702 1.390 . S
C2711 H2704 0.950 . S
C2711 C2708 1.387 . S
C2712 C2713 1.387 . S
C2712 H2716 0.950 . S
C2712 C2721 1.390 . S
C2713 C2712 1.387 . S
C2713 C2715 1.387 . S
H2714 C2721 0.950 . S
C2715 C2713 1.387 . S
C2715 C2717 1.390 . S
C2715 H2719 0.950 . S
H2716 C2712 0.950 . S
C2717 C2715 1.390 . S
C2717 C2718 1.387 . S
C2717 H2720 0.950 . S
C2718 C2717 1.387 . S
C2718 C2721 1.387 . S
H2719 C2715 0.950 . S
H2720 C2717 0.950 . S
C2721 C2712 1.390 . S
C2721 H2714 0.950 . S
C2721 C2718 1.387 . S
C2722 C2723 1.387 . S
C2722 H2726 0.950 . S
C2722 C2731 1.390 . S
C2723 C2722 1.387 . S
C2723 C2725 1.387 . S
H2724 C2731 0.950 . S
C2725 C2723 1.387 . S
C2725 C2727 1.390 . S
C2725 H2729 0.950 . S
H2726 C2722 0.950 . S
C2727 C2725 1.390 . S
C2727 C2728 1.387 . S
C2727 H2730 0.950 . S
C2728 C2727 1.387 . S
C2728 C2731 1.387 . S
H2729 C2725 0.950 . S
H2730 C2727 0.950 . S
C2731 C2722 1.390 . S
C2731 H2724 0.950 . S
C2731 C2728 1.387 . S
C2732 C2733 1.387 . S
C2732 H2736 0.950 . S
C2732 C2741 1.390 . S
C2733 C2732 1.387 . S
C2733 C2735 1.387 . S
H2734 C2741 0.950 . S
C2735 C2733 1.387 . S
C2735 C2737 1.390 . S
C2735 H2739 0.950 . S
H2736 C2732 0.950 . S
C2737 C2735 1.390 . S
C2737 C2738 1.387 . S
C2737 H2740 0.950 . S
C2738 C2737 1.387 . S
C2738 C2741 1.387 . S
H2739 C2735 0.950 . S
H2740 C2737 0.950 . S
C2741 C2732 1.390 . S
C2741 H2734 0.950 . S
C2741 C2738 1.387 . S
C2742 C2743 1.387 . S
C2742 H2746 0.950 . S
C2742 C2751 1.390 . S
C2743 C2742 1.387 . S
C2743 C2745 1.387 . S
H2744 C2751 0.950 . S
C2745 C2743 1.387 . S
C2745 C2747 1.390 . S
C2745 H2749 0.950 . S
H2746 C2742 0.950 . S
C2747 C2745 1.390 . S
C2747 C2748 1.387 . S
C2747 H2750 0.950 . S
C2748 C2747 1.387 . S
C2748 C2751 1.387 . S
H2749 C2745 0.950 . S
H2750 C2747 0.950 . S
C2751 C2742 1.390 . S
C2751 H2744 0.950 . S
C2751 C2748 1.387 . S
C2752 C2753 1.387 . S
C2752 H2756 0.950 . S
C2752 C2761 1.390 . S
C2753 C2752 1.387 . S
C2753 C2755 1.387 . S
H2754 C2761 0.950 . S
C2755 C2753 1.387 . S
C2755 C2757 1.390 . S
C2755 H2759 0.950 . S
H2756 C2752 0.950 . S
C2757 C2755 1.390 . S
C2757 C2758 1.387 . S
C2757 H2760 0.950 . S
C2758 C2757 1.387 . S
C2758 C2761 1.387 . S
H2759 C2755 0.950 . S
H2760 C2757 0.950 . S
C2761 C2752 1.390 . S
C2761 H2754 0.950 . S
C2761 C2758 1.387 . S
C2762 C2763 1.387 . S
C2762 H2766 0.950 . S
C2762 C2771 1.390 . S
C2763 C2762 1.387 . S
C2763 C2765 1.387 . S
H2764 C2771 0.950 . S
C2765 C2763 1.387 . S
C2765 C2767 1.390 . S
C2765 H2769 0.950 . S
H2766 C2762 0.950 . S
C2767 C2765 1.390 . S
C2767 C2768 1.387 . S
C2767 H2770 0.950 . S
C2768 C2767 1.387 . S
C2768 C2771 1.387 . S
H2769 C2765 0.950 . S
H2770 C2767 0.950 . S
C2771 C2762 1.390 . S
C2771 H2764 0.950 . S
C2771 C2768 1.387 . S
C2772 C2773 1.387 . S
C2772 H2776 0.950 . S
C2772 C2781 1.390 . S
C2773 C2772 1.387 . S
C2773 C2775 1.387 . S
H2774 C2781 0.950 . S
C2775 C2773 1.387 . S
C2775 C2777 1.390 . S
C2775 H2779 0.950 . S
H2776 C2772 0.950 . S
C2777 C2775 1.390 . S
C2777 C2778 1.387 . S
C2777 H2780 0.950 . S
C2778 C2777 1.387 . S
C2778 C2781 1.387 . S
H2779 C2775 0.950 . S
H2780 C2777 0.950 . S
C2781 C2772 1.390 . S
C2781 H2774 0.950 . S
C2781 C2778 1.387 . S
C2782 C2783 1.387 . S
C2782 H2786 0.950 . S
C2782 C2791 1.390 . S
C2783 C2782 1.387 . S
C2783 C2785 1.387 . S
H2784 C2791 0.950 . S
C2785 C2783 1.387 . S
C2785 C2787 1.390 . S
C2785 H2789 0.950 . S
H2786 C2782 0.950 . S
C2787 C2785 1.390 . S
C2787 C2788 1.387 . S
C2787 H2790 0.950 . S
C2788 C2787 1.387 . S
C2788 C2791 1.387 . S
H2789 C2785 0.950 . S
H2790 C2787 0.950 . S
C2791 C2782 1.390 . S
C2791 H2784 0.950 . S
C2791 C2788 1.387 . S
C2792 C2793 1.387 . S
C2792 H2796 0.950 . S
C2792 C2801 1.390 . S
C2793 C2792 1.387 . S
C2793 C2795 1.387 . S
H2794 C2801 0.950 . S
C2795 C2793 1.387 . S
C2795 C2797 1.390 . S
C2795 H2799 0.950 . S
H2796 C2792 0.950 . S
C2797 C2795 1.390 . S
C2797 C2798 1.387 . S
C2797 H2800 0.950 . S
C2798 C2797 1.387 . S
C2798 C2801 1.387 . S
H2799 C2795 0.950 . S
H2800 C2797 0.950 . S
C2801 C2792 1.390 . S
C2801 H2794 0.950 . S
C2801 C2798 1.387 . S
C2802 C2803 1.387 . S
C2802 H2806 0.950 . S
C2802 C2811 1.390 . S
C2803 C2802 1.387 . S
C2803 C2805 1.387 . S
H2804 C2811 0.950 . S
C2805 C2803 1.387 . S
C2805 C2807 1.390 . S
C2805 H2809 0.950 . S
H2806 C2802 0.950 . S
C2807 C2805 1.390 . S
C2807 C2808 1.387 . S
C2807 H2810 0.950 . S
C2808 C2807 1.387 . S
C2808 C2811 1.387 . S
H2809 C2805 0.950 . S
H2810 C2807 0.950 . S
C2811 C2802 1.390 . S
C2811 H2804 0.950 . S
C2811 C2808 1.387 . S
C2812 C2813 1.387 . S
C2812 H2816 0.950 . S
C2812 C2821 1.390 . S
C2813 C2812 1.387 . S
C2813 C2815 1.387 . S
H2814 C2821 0.950 . S
C2815 C2813 1.387 . S
C2815 C2817 1.390 . S
C2815 H2819 0.950 . S
H2816 C2812 0.950 . S
C2817 C2815 1.390 . S
C2817 C2818 1.387 . S
C2817 H2820 0.950 . S
C2818 C2817 1.387 . S
C2818 C2821 1.387 . S
H2819 C2815 0.950 . S
H2820 C2817 0.950 . S
C2821 C2812 1.390 . S
C2821 H2814 0.950 . S
C2821 C2818 1.387 . S
C2822 C2823 1.387 . S
C2822 H2826 0.950 . S
C2822 C2831 1.390 . S
C2823 C2822 1.387 . S
C2823 C2825 1.387 . S
H2824 C2831 0.950 . S
C2825 C2823 1.387 . S
C2825 C2827 1.390 . S
C2825 H2829 0.950 . S
H2826 C2822 0.950 . S
C2827 C2825 1.390 . S
C2827 C2828 1.387 . S
C2827 H2830 0.950 . S
C2828 C2827 1.387 . S
C2828 C2831 1.387 . S
H2829 C2825 0.950 . S
H2830 C2827 0.950 . S
C2831 C2822 1.390 . S
C2831 H2824 0.950 . S
C2831 C2828 1.387 . S
C1633 C5 1.774 . S
C1638 C360 1.875 . S
C1643 C394 1.875 . S
C1648 C39 1.774 . S
C1653 C292 1.876 . S
C1658 C73 1.777 . S
C1663 C326 1.878 . S
C1668 C107 1.778 . S
C1673 C496 1.875 . S
C1678 C141 1.775 . S
C1683 C175 1.778 . S
C1688 C530 1.878 . S
C1693 C428 1.875 . S
C1698 C209 1.774 . S
C1703 C462 1.878 . S
C1708 C243 1.777 . S
C1713 C277 1.775 . S
C1718 C598 1.875 . S
C1723 C311 1.778 . S
C1728 C632 1.877 . S
C1733 C345 1.774 . S
C1738 C666 1.875 . S
C1743 C379 1.778 . S
C1748 C1516 1.878 . S
C1753 C1380 1.878 . S
C1758 C413 1.778 . S
C1763 C447 1.774 . S
C1768 C802 1.875 . S
C1773 C481 1.777 . S
C1778 C1550 1.878 . S
C1783 C768 1.875 . S
C1788 C515 1.774 . S
C1793 C549 1.778 . S
C1798 C1040 1.878 . S
C1803 C583 1.774 . S
C1808 C88 1.875 . S
C1813 C122 1.878 . S
C1818 C617 1.778 . S
C1823 C20 1.878 . S
C1828 C651 1.778 . S
C1833 C685 1.774 . S
C1838 C870 1.875 . S
C1843 C719 1.778 . S
C1848 C972 1.878 . S
C1853 C190 1.875 . S
C1858 C753 1.774 . S
C1863 C258 1.875 . S
C1868 C787 1.774 . S
C1873 C1176 1.878 . S
C1878 C821 1.777 . S
C1883 C855 1.778 . S
C1888 C1210 1.878 . S
C1893 C1108 1.878 . S
C1898 C889 1.777 . S
C1903 C1142 1.875 . S
C1908 C923 1.774 . S
C1913 C1312 1.878 . S
C1918 C957 1.777 . S
C1923 C1346 1.875 . S
C1928 C991 1.774 . S
C1933 C1244 1.878 . S
C1938 C1025 1.776 . S
C1943 C1059 1.778 . S
C1948 C1278 1.878 . S
C1953 C1414 1.878 . S
C1958 C1093 1.778 . S
C1963 C1448 1.877 . S
C1968 C1127 1.778 . S
C1973 C1161 1.774 . S
C1978 C1482 1.875 . S
C1983 C1195 1.778 . S
C1988 C700 1.878 . S
C1993 C1229 1.778 . S
C1998 C564 1.878 . S
C2003 C1263 1.778 . S
C2008 C1618 1.878 . S
C2013 C734 1.875 . S
C2018 C1297 1.774 . S
C2023 C1584 1.876 . S
C2028 C1331 1.774 . S
C2033 C224 1.876 . S
C2038 C1365 1.777 . S
C2043 C904 1.875 . S
C2048 C1399 1.774 . S
C2053 C1433 1.774 . S
C2058 C938 1.875 . S
C2063 C1467 1.778 . S
C2068 C836 1.878 . S
C2073 C54 1.875 . S
C2078 C1501 1.774 . S
C2083 C156 1.878 . S
C2088 C1535 1.778 . S
C2093 C1569 1.778 . S
C2098 C1006 1.878 . S
C2103 C1074 1.878 . S
C2108 C1603 1.778 . S
C2113 C2 2.236 . S
C2118 C886 2.236 . S
C2123 C36 2.236 . S
C2128 C920 2.236 . S
C2133 C70 2.236 . S
C2138 C818 2.236 . S
C2143 C852 2.236 . S
C2148 C104 2.236 . S
C2153 C1022 2.236 . S
C2158 C138 2.236 . S
C2163 C1056 2.236 . S
C2168 C172 2.236 . S
C2173 C954 2.236 . S
C2178 C206 2.236 . S
C2183 C988 2.236 . S
C2188 C240 2.236 . S
C2193 C274 2.236 . S
C2198 C410 2.236 . S
C2203 C444 2.236 . S
C2208 C308 2.236 . S
C2213 C342 2.236 . S
C2218 C478 2.236 . S
C2223 C376 2.236 . S
C2228 C512 2.236 . S
C2233 C546 2.236 . S
C2238 C1464 2.236 . S
C2243 C580 2.236 . S
C2248 C1532 2.236 . S
C2253 C614 2.236 . S
C2258 C750 2.236 . S
C2263 C1362 2.236 . S
C2268 C648 2.236 . S
C2273 C1600 2.236 . S
C2278 C682 2.236 . S
C2283 C1396 2.236 . S
C2288 C716 2.236 . S
C2293 C784 2.236 . S
C2298 C1498 2.236 . S
C2303 C1090 2.236 . S
C2308 C1226 2.236 . S
C2313 C1124 2.236 . S
C2318 C1260 2.236 . S
C2323 C1158 2.236 . S
C2328 C1294 2.236 . S
C2333 C1192 2.236 . S
C2338 C1328 2.236 . S
C2343 C1430 2.236 . S
C2348 C1566 2.236 . S
C2353 C689 0.987 . S
C2358 C9 0.988 . S
C2363 C43 0.988 . S
C2368 C1403 0.986 . S
C2373 C77 0.985 . S
C2378 C1437 0.988 . S
C2383 C1471 0.980 . S
C2388 C111 0.982 . S
C2393 C1607 0.981 . S
C2398 C145 0.980 . S
C2403 C723 0.988 . S
C2408 C179 0.988 . S
C2413 C213 0.980 . S
C2418 C1573 0.982 . S
C2423 C247 0.980 . S
C2428 C553 0.980 . S
C2433 C519 0.986 . S
C2438 C281 0.988 . S
C2443 C315 0.987 . S
C2448 C417 0.984 . S
C2453 C349 0.987 . S
C2458 C451 0.988 . S
C2463 C485 0.981 . S
C2468 C383 0.980 . S
C2473 C859 0.980 . S
C2478 C587 0.981 . S
C2483 C621 0.982 . S
C2488 C893 0.985 . S
C2493 C655 0.980 . S
C2498 C927 0.981 . S
C2503 C757 0.986 . S
C2508 C1029 0.988 . S
C2513 C961 0.988 . S
C2518 C791 0.985 . S
C2523 C825 0.980 . S
C2528 C1505 0.980 . S
C2533 C1539 0.988 . S
C2538 C995 0.988 . S
C2543 C1369 0.981 . S
C2548 C1063 0.980 . S
C2553 C1097 0.986 . S
C2558 C1335 0.983 . S
C2563 C1233 0.980 . S
C2568 C1131 0.980 . S
C2573 C1165 0.980 . S
C2578 C1267 0.980 . S
C2583 C1199 0.988 . S
C2588 C1301 0.987 . S
C2593 C33 1.640 . S
C2598 C339 1.640 . S
C2603 C373 1.640 . S
C2608 C67 1.639 . S
C2613 C407 1.640 . S
C2618 C101 1.640 . S
C2623 C305 1.640 . S
C2628 C135 1.641 . S
C2633 C169 1.640 . S
C2638 C543 1.640 . S
C2643 C441 1.640 . S
C2648 C203 1.639 . S
C2653 C237 1.640 . S
C2658 C475 1.640 . S
C2663 C271 1.639 . S
C2668 C509 1.640 . S
C2673 C645 1.639 . S
C2678 C577 1.641 . S
C2683 C611 1.639 . S
C2688 C1597 1.641 . S
C2693 C1631 1.640 . S
C2698 C679 1.641 . S
C2703 C713 1.640 . S
C2708 C1563 1.641 . S
C2713 C1529 1.640 . S
C2718 C747 1.640 . S
C2723 C781 1.640 . S
C2728 C1427 1.639 . S
C2733 C1495 1.640 . S
C2738 C815 1.639 . S
C2743 C1155 1.640 . S
C2748 C849 1.640 . S
C2753 C1189 1.640 . S
C2758 C883 1.639 . S
C2763 C917 1.640 . S
C2768 C1223 1.639 . S
C2773 C951 1.639 . S
C2778 C1121 1.640 . S
C2783 C985 1.640 . S
C2788 C1359 1.640 . S
C2793 C1019 1.641 . S
C2798 C1257 1.640 . S
C2803 C1291 1.640 . S
C2808 C1053 1.640 . S
C2813 C1087 1.639 . S
C2818 C1325 1.641 . S
C2823 C1393 1.639 . S
C2828 C1461 1.640 . S
