# Generated by pormake.
# Topology ums, (4)-cn, num edge types: 1
# Building blocks:
#     Node 0, Type 0, BuildingBlock: GALJAG_clean_sbu_0, # of connection points: 4
#     Node 1, Type 0, BuildingBlock: GALJAG_clean_sbu_0, # of connection points: 4
#     Node 2, Type 0, BuildingBlock: GALJAG_clean_sbu_0, # of connection points: 4
#     Node 3, Type 0, BuildingBlock: GALJAG_clean_sbu_0, # of connection points: 4
#     Node 4, Type 0, BuildingBlock: GALJAG_clean_sbu_0, # of connection points: 4
#     Node 5, Type 0, BuildingBlock: GALJAG_clean_sbu_0, # of connection points: 4
#     Node 6, Type 0, BuildingBlock: GALJAG_clean_sbu_0, # of connection points: 4
#     Node 7, Type 0, BuildingBlock: GALJAG_clean_sbu_0, # of connection points: 4
#     Node 8, Type 0, BuildingBlock: GALJAG_clean_sbu_0, # of connection points: 4
#     Node 9, Type 0, BuildingBlock: GALJAG_clean_sbu_0, # of connection points: 4
#     Node 10, Type 0, BuildingBlock: GALJAG_clean_sbu_0, # of connection points: 4
#     Node 11, Type 0, BuildingBlock: GALJAG_clean_sbu_0, # of connection points: 4
#     Node 12, Type 0, BuildingBlock: GALJAG_clean_sbu_0, # of connection points: 4
#     Node 13, Type 0, BuildingBlock: GALJAG_clean_sbu_0, # of connection points: 4
#     Node 14, Type 0, BuildingBlock: GALJAG_clean_sbu_0, # of connection points: 4
#     Node 15, Type 0, BuildingBlock: GALJAG_clean_sbu_0, # of connection points: 4
#     Node 16, Type 0, BuildingBlock: GALJAG_clean_sbu_0, # of connection points: 4
#     Node 17, Type 0, BuildingBlock: GALJAG_clean_sbu_0, # of connection points: 4
#     Node 18, Type 0, BuildingBlock: GALJAG_clean_sbu_0, # of connection points: 4
#     Node 19, Type 0, BuildingBlock: GALJAG_clean_sbu_0, # of connection points: 4
#     Node 20, Type 0, BuildingBlock: GALJAG_clean_sbu_0, # of connection points: 4
#     Node 21, Type 0, BuildingBlock: GALJAG_clean_sbu_0, # of connection points: 4
#     Node 22, Type 0, BuildingBlock: GALJAG_clean_sbu_0, # of connection points: 4
#     Node 23, Type 0, BuildingBlock: GALJAG_clean_sbu_0, # of connection points: 4
#     Node 24, Type 0, BuildingBlock: GALJAG_clean_sbu_0, # of connection points: 4
#     Node 25, Type 0, BuildingBlock: GALJAG_clean_sbu_0, # of connection points: 4
#     Node 26, Type 0, BuildingBlock: GALJAG_clean_sbu_0, # of connection points: 4
#     Node 27, Type 0, BuildingBlock: GALJAG_clean_sbu_0, # of connection points: 4
#     Node 28, Type 0, BuildingBlock: GALJAG_clean_sbu_0, # of connection points: 4
#     Node 29, Type 0, BuildingBlock: GALJAG_clean_sbu_0, # of connection points: 4
#     Node 30, Type 0, BuildingBlock: GALJAG_clean_sbu_0, # of connection points: 4
#     Node 31, Type 0, BuildingBlock: GALJAG_clean_sbu_0, # of connection points: 4
#     Node 32, Type 0, BuildingBlock: GALJAG_clean_sbu_0, # of connection points: 4
#     Node 33, Type 0, BuildingBlock: GALJAG_clean_sbu_0, # of connection points: 4
#     Node 34, Type 0, BuildingBlock: GALJAG_clean_sbu_0, # of connection points: 4
#     Node 35, Type 0, BuildingBlock: GALJAG_clean_sbu_0, # of connection points: 4
#     Edge 36, Type (0, 0), BuildingBlock: UVAHIK_clean_linker_0, # of connection points: 2
#     Edge 37, Type (0, 0), BuildingBlock: UVAHIK_clean_linker_0, # of connection points: 2
#     Edge 38, Type (0, 0), BuildingBlock: UVAHIK_clean_linker_0, # of connection points: 2
#     Edge 39, Type (0, 0), BuildingBlock: UVAHIK_clean_linker_0, # of connection points: 2
#     Edge 40, Type (0, 0), BuildingBlock: UVAHIK_clean_linker_0, # of connection points: 2
#     Edge 41, Type (0, 0), BuildingBlock: UVAHIK_clean_linker_0, # of connection points: 2
#     Edge 42, Type (0, 0), BuildingBlock: UVAHIK_clean_linker_0, # of connection points: 2
#     Edge 43, Type (0, 0), BuildingBlock: UVAHIK_clean_linker_0, # of connection points: 2
#     Edge 44, Type (0, 0), BuildingBlock: UVAHIK_clean_linker_0, # of connection points: 2
#     Edge 45, Type (0, 0), BuildingBlock: UVAHIK_clean_linker_0, # of connection points: 2
#     Edge 46, Type (0, 0), BuildingBlock: UVAHIK_clean_linker_0, # of connection points: 2
#     Edge 47, Type (0, 0), BuildingBlock: UVAHIK_clean_linker_0, # of connection points: 2
#     Edge 48, Type (0, 0), BuildingBlock: UVAHIK_clean_linker_0, # of connection points: 2
#     Edge 49, Type (0, 0), BuildingBlock: UVAHIK_clean_linker_0, # of connection points: 2
#     Edge 50, Type (0, 0), BuildingBlock: UVAHIK_clean_linker_0, # of connection points: 2
#     Edge 51, Type (0, 0), BuildingBlock: UVAHIK_clean_linker_0, # of connection points: 2
#     Edge 52, Type (0, 0), BuildingBlock: UVAHIK_clean_linker_0, # of connection points: 2
#     Edge 53, Type (0, 0), BuildingBlock: UVAHIK_clean_linker_0, # of connection points: 2
#     Edge 54, Type (0, 0), BuildingBlock: UVAHIK_clean_linker_0, # of connection points: 2
#     Edge 55, Type (0, 0), BuildingBlock: UVAHIK_clean_linker_0, # of connection points: 2
#     Edge 56, Type (0, 0), BuildingBlock: UVAHIK_clean_linker_0, # of connection points: 2
#     Edge 57, Type (0, 0), BuildingBlock: UVAHIK_clean_linker_0, # of connection points: 2
#     Edge 58, Type (0, 0), BuildingBlock: UVAHIK_clean_linker_0, # of connection points: 2
#     Edge 59, Type (0, 0), BuildingBlock: UVAHIK_clean_linker_0, # of connection points: 2
#     Edge 60, Type (0, 0), BuildingBlock: UVAHIK_clean_linker_0, # of connection points: 2
#     Edge 61, Type (0, 0), BuildingBlock: UVAHIK_clean_linker_0, # of connection points: 2
#     Edge 62, Type (0, 0), BuildingBlock: UVAHIK_clean_linker_0, # of connection points: 2
#     Edge 63, Type (0, 0), BuildingBlock: UVAHIK_clean_linker_0, # of connection points: 2
#     Edge 64, Type (0, 0), BuildingBlock: UVAHIK_clean_linker_0, # of connection points: 2
#     Edge 65, Type (0, 0), BuildingBlock: UVAHIK_clean_linker_0, # of connection points: 2
#     Edge 66, Type (0, 0), BuildingBlock: UVAHIK_clean_linker_0, # of connection points: 2
#     Edge 67, Type (0, 0), BuildingBlock: UVAHIK_clean_linker_0, # of connection points: 2
#     Edge 68, Type (0, 0), BuildingBlock: UVAHIK_clean_linker_0, # of connection points: 2
#     Edge 69, Type (0, 0), BuildingBlock: UVAHIK_clean_linker_0, # of connection points: 2
#     Edge 70, Type (0, 0), BuildingBlock: UVAHIK_clean_linker_0, # of connection points: 2
#     Edge 71, Type (0, 0), BuildingBlock: UVAHIK_clean_linker_0, # of connection points: 2
#     Edge 72, Type (0, 0), BuildingBlock: UVAHIK_clean_linker_0, # of connection points: 2
#     Edge 73, Type (0, 0), BuildingBlock: UVAHIK_clean_linker_0, # of connection points: 2
#     Edge 74, Type (0, 0), BuildingBlock: UVAHIK_clean_linker_0, # of connection points: 2
#     Edge 75, Type (0, 0), BuildingBlock: UVAHIK_clean_linker_0, # of connection points: 2
#     Edge 76, Type (0, 0), BuildingBlock: UVAHIK_clean_linker_0, # of connection points: 2
#     Edge 77, Type (0, 0), BuildingBlock: UVAHIK_clean_linker_0, # of connection points: 2
#     Edge 78, Type (0, 0), BuildingBlock: UVAHIK_clean_linker_0, # of connection points: 2
#     Edge 79, Type (0, 0), BuildingBlock: UVAHIK_clean_linker_0, # of connection points: 2
#     Edge 80, Type (0, 0), BuildingBlock: UVAHIK_clean_linker_0, # of connection points: 2
#     Edge 81, Type (0, 0), BuildingBlock: UVAHIK_clean_linker_0, # of connection points: 2
#     Edge 82, Type (0, 0), BuildingBlock: UVAHIK_clean_linker_0, # of connection points: 2
#     Edge 83, Type (0, 0), BuildingBlock: UVAHIK_clean_linker_0, # of connection points: 2
#     Edge 84, Type (0, 0), BuildingBlock: UVAHIK_clean_linker_0, # of connection points: 2
#     Edge 85, Type (0, 0), BuildingBlock: UVAHIK_clean_linker_0, # of connection points: 2
#     Edge 86, Type (0, 0), BuildingBlock: UVAHIK_clean_linker_0, # of connection points: 2
#     Edge 87, Type (0, 0), BuildingBlock: UVAHIK_clean_linker_0, # of connection points: 2
#     Edge 88, Type (0, 0), BuildingBlock: UVAHIK_clean_linker_0, # of connection points: 2
#     Edge 89, Type (0, 0), BuildingBlock: UVAHIK_clean_linker_0, # of connection points: 2
#     Edge 90, Type (0, 0), BuildingBlock: UVAHIK_clean_linker_0, # of connection points: 2
#     Edge 91, Type (0, 0), BuildingBlock: UVAHIK_clean_linker_0, # of connection points: 2
#     Edge 92, Type (0, 0), BuildingBlock: UVAHIK_clean_linker_0, # of connection points: 2
#     Edge 93, Type (0, 0), BuildingBlock: UVAHIK_clean_linker_0, # of connection points: 2
#     Edge 94, Type (0, 0), BuildingBlock: UVAHIK_clean_linker_0, # of connection points: 2
#     Edge 95, Type (0, 0), BuildingBlock: UVAHIK_clean_linker_0, # of connection points: 2
#     Edge 96, Type (0, 0), BuildingBlock: UVAHIK_clean_linker_0, # of connection points: 2
#     Edge 97, Type (0, 0), BuildingBlock: UVAHIK_clean_linker_0, # of connection points: 2
#     Edge 98, Type (0, 0), BuildingBlock: UVAHIK_clean_linker_0, # of connection points: 2
#     Edge 99, Type (0, 0), BuildingBlock: UVAHIK_clean_linker_0, # of connection points: 2
#     Edge 100, Type (0, 0), BuildingBlock: UVAHIK_clean_linker_0, # of connection points: 2
#     Edge 101, Type (0, 0), BuildingBlock: UVAHIK_clean_linker_0, # of connection points: 2
#     Edge 102, Type (0, 0), BuildingBlock: UVAHIK_clean_linker_0, # of connection points: 2
#     Edge 103, Type (0, 0), BuildingBlock: UVAHIK_clean_linker_0, # of connection points: 2
#     Edge 104, Type (0, 0), BuildingBlock: UVAHIK_clean_linker_0, # of connection points: 2
#     Edge 105, Type (0, 0), BuildingBlock: UVAHIK_clean_linker_0, # of connection points: 2
#     Edge 106, Type (0, 0), BuildingBlock: UVAHIK_clean_linker_0, # of connection points: 2
#     Edge 107, Type (0, 0), BuildingBlock: UVAHIK_clean_linker_0, # of connection points: 2
# Relax obj value: 0.176
# Max RMSD: 0.175
# Mean RMSD: 0.174
data_MOF--net-ums--node1-GALJAG_clean_sbu_0--edge1-UVAHIK_clean_linker_0
_symmetry_space_group_name_H-M    P1
_symmetry_Int_Tables_number       1
_symmetry_cell_setting            triclinic
loop_
_symmetry_equiv_pos_as_xyz
'x, y, z'
_cell_length_a     124.78184
_cell_length_b     124.72999
_cell_length_c     33.641357
_cell_angle_alpha  90.019067
_cell_angle_beta   89.990683
_cell_angle_gamma 119.9979
loop_
_atom_site_label
_atom_site_type_symbol
_atom_site_fract_x
_atom_site_fract_y
_atom_site_fract_z
_atom_type_partial_charge
In0 In 0.15885 0.24348 0.13856 0.0
O1 O 0.15587 0.22411 0.15025 0.0
O2 O 0.17426 0.23877 0.14214 0.0
C3 C 0.14434 0.23988 0.07482 0.0
C4 C 0.1469 0.24153 0.20741 0.0
C5 C 0.1772 0.26689 0.12499 0.0
O6 O 0.15032 0.23425 0.07923 0.0
O7 O 0.14549 0.24709 0.10293 0.0
O8 O 0.17167 0.26344 0.15789 0.0
O9 O 0.17354 0.25852 0.09891 0.0
C10 C 0.16721 0.22746 0.14964 0.0
O11 O 0.15853 0.2473 0.20446 0.0
O12 O 0.14121 0.23676 0.17543 0.0
In13 In 0.74873 0.91477 0.14604 0.0
O14 O 0.74794 0.91131 0.21262 0.0
O15 O 0.76121 0.90921 0.17915 0.0
C16 C 0.72396 0.9034 0.13685 0.0
C17 C 0.76026 0.93939 0.15819 0.0
C18 C 0.75424 0.9073 0.07778 0.0
O19 O 0.72918 0.89892 0.15762 0.0
O20 O 0.73122 0.91369 0.12096 0.0
O21 O 0.75565 0.91799 0.08193 0.0
O22 O 0.7502 0.90049 0.10812 0.0
C23 C 0.75658 0.90884 0.2128 0.0
O24 O 0.76562 0.93411 0.14265 0.0
O25 O 0.74902 0.93228 0.16663 0.0
In26 In 0.083 0.85032 0.12468 0.0
O27 O 0.06894 0.83383 0.16096 0.0
O28 O 0.06373 0.84674 0.14151 0.0
C29 C 0.08289 0.85852 0.05048 0.0
C30 C 0.09666 0.86937 0.17428 0.0
C31 C 0.09286 0.8355 0.11581 0.0
O32 O 0.07491 0.84791 0.06246 0.0
O33 O 0.09079 0.86516 0.07623 0.0
O34 O 0.08726 0.8375 0.08816 0.0
O35 O 0.09349 0.84097 0.14804 0.0
C36 C 0.06079 0.83697 0.16063 0.0
O37 O 0.10109 0.86372 0.15548 0.0
O38 O 0.08544 0.86572 0.16693 0.0
In39 In 0.23404 0.15055 0.35066 0.0
O40 O 0.23847 0.14941 0.28597 0.0
O41 O 0.22403 0.13309 0.31251 0.0
C42 C 0.25828 0.16502 0.36808 0.0
C43 C 0.2218 0.16246 0.33063 0.0
C44 C 0.22704 0.13683 0.4176 0.0
O45 O 0.25003 0.16691 0.38244 0.0
O46 O 0.2543 0.15586 0.34493 0.0
O47 O 0.2259 0.14627 0.4134 0.0
O48 O 0.23137 0.13418 0.38772 0.0
C49 C 0.23029 0.1382 0.28169 0.0
O50 O 0.21625 0.15129 0.34159 0.0
O51 O 0.23343 0.16766 0.33128 0.0
In52 In 0.84014 0.08182 0.37221 0.0
O53 O 0.84883 0.09832 0.3301 0.0
O54 O 0.8575 0.08746 0.33506 0.0
C55 C 0.82598 0.09235 0.38127 0.0
C56 C 0.8277 0.05906 0.339 0.0
C57 C 0.84862 0.08055 0.44496 0.0
O58 O 0.83445 0.0941 0.40544 0.0
O59 O 0.82475 0.08539 0.35224 0.0
O60 O 0.85536 0.08824 0.41894 0.0
O61 O 0.83765 0.07331 0.43406 0.0
C62 C 0.85743 0.09653 0.31879 0.0
O63 O 0.82249 0.06337 0.36053 0.0
O64 O 0.83918 0.06609 0.33498 0.0
In65 In 0.91786 0.75502 0.35721 0.0
O66 O 0.91531 0.75211 0.29035 0.0
O67 O 0.90771 0.76209 0.31836 0.0
C68 C 0.90999 0.73103 0.37402 0.0
C69 C 0.94255 0.76954 0.34821 0.0
C70 C 0.90788 0.76098 0.41823 0.0
O71 O 0.90835 0.73455 0.34062 0.0
O72 O 0.91575 0.73962 0.39881 0.0
O73 O 0.91935 0.7649 0.41579 0.0
O74 O 0.90154 0.75425 0.38963 0.0
C75 C 0.9094 0.75781 0.28647 0.0
O76 O 0.93522 0.77372 0.34724 0.0
O77 O 0.93747 0.75808 0.35483 0.0
In78 In 0.8369 0.75361 0.85544 0.0
O79 O 0.83769 0.77222 0.8493 0.0
O80 O 0.82005 0.75593 0.84807 0.0
C81 C 0.85193 0.75881 0.91874 0.0
C82 C 0.84863 0.75791 0.78503 0.0
C83 C 0.82112 0.72926 0.86763 0.0
O84 O 0.84399 0.76224 0.91657 0.0
O85 O 0.85238 0.75296 0.8888 0.0
O86 O 0.82811 0.73333 0.83773 0.0
O87 O 0.82202 0.73747 0.89149 0.0
C88 C 0.82616 0.76756 0.84527 0.0
O89 O 0.83704 0.75147 0.7885 0.0
O90 O 0.8544 0.76218 0.81726 0.0
In91 In 0.24576 0.08026 0.85098 0.0
O92 O 0.25056 0.09521 0.80462 0.0
O93 O 0.23173 0.08098 0.80903 0.0
C94 C 0.26951 0.08761 0.87005 0.0
C95 C 0.23696 0.05664 0.82729 0.0
C96 C 0.23677 0.08708 0.91273 0.0
O97 O 0.26624 0.0888 0.83569 0.0
O98 O 0.26079 0.08255 0.89474 0.0
O99 O 0.23259 0.07587 0.90354 0.0
O100 O 0.24533 0.09476 0.89055 0.0
C101 C 0.23967 0.09069 0.79158 0.0
O102 O 0.23489 0.05932 0.86154 0.0
O103 O 0.24353 0.06584 0.8055 0.0
In104 In 0.91018 0.15344 0.86402 0.0
O105 O 0.92984 0.15684 0.85811 0.0
O106 O 0.92553 0.16942 0.82952 0.0
C107 C 0.90685 0.14281 0.93617 0.0
C108 C 0.89841 0.135 0.81072 0.0
C109 C 0.90178 0.16957 0.87083 0.0
O110 O 0.91647 0.15283 0.92742 0.0
O111 O 0.89911 0.13806 0.9083 0.0
O112 O 0.901 0.16393 0.83888 0.0
O113 O 0.90684 0.16713 0.8991 0.0
C114 C 0.93353 0.1663 0.83642 0.0
O115 O 0.89274 0.13883 0.83224 0.0
O116 O 0.90992 0.14039 0.81631 0.0
In117 In 0.75833 0.84249 0.6372 0.0
O118 O 0.75351 0.84254 0.7024 0.0
O119 O 0.76485 0.85993 0.67469 0.0
C120 C 0.73492 0.82667 0.61357 0.0
C121 C 0.77141 0.83126 0.65529 0.0
C122 C 0.76635 0.8584 0.57575 0.0
O123 O 0.73746 0.83178 0.64726 0.0
O124 O 0.74417 0.82947 0.59179 0.0
O125 O 0.77018 0.85088 0.58169 0.0
O126 O 0.75869 0.85797 0.60109 0.0
C127 C 0.75949 0.85415 0.70594 0.0
O128 O 0.77627 0.84287 0.65404 0.0
O129 O 0.76013 0.82538 0.64592 0.0
In130 In 0.15498 0.91253 0.62887 0.0
O131 O 0.16732 0.93355 0.62433 0.0
O132 O 0.16593 0.925 0.68021 0.0
C133 C 0.14541 0.91011 0.55528 0.0
C134 C 0.1347 0.90141 0.67569 0.0
C135 C 0.17104 0.90406 0.62569 0.0
O136 O 0.1469 0.91873 0.57838 0.0
O137 O 0.14841 0.90267 0.5697 0.0
O138 O 0.16283 0.90065 0.6523 0.0
O139 O 0.17117 0.91176 0.60114 0.0
C140 C 0.17049 0.93489 0.66044 0.0
O141 O 0.13903 0.89542 0.65841 0.0
O142 O 0.14034 0.91284 0.66829 0.0
In143 In 0.07711 0.24444 0.63789 0.0
O144 O 0.05695 0.23987 0.63897 0.0
O145 O 0.06067 0.22558 0.65427 0.0
C146 C 0.08751 0.23978 0.57498 0.0
C147 C 0.08787 0.24327 0.70612 0.0
C148 C 0.08251 0.26786 0.62214 0.0
O149 O 0.07593 0.23476 0.5791 0.0
O150 O 0.09378 0.24694 0.60291 0.0
O151 O 0.08312 0.26424 0.65662 0.0
O152 O 0.07911 0.25966 0.59559 0.0
C153 C 0.05268 0.22886 0.65038 0.0
O154 O 0.0829 0.24987 0.70223 0.0
O155 O 0.08753 0.2373 0.67539 0.0
In156 In 0.82941 0.57673 0.4745 0.0
O157 O 0.82874 0.57806 0.54167 0.0
O158 O 0.81158 0.56881 0.51092 0.0
C159 C 0.84471 0.60116 0.46158 0.0
C160 C 0.84096 0.56361 0.48584 0.0
C161 C 0.81452 0.57048 0.41051 0.0
O162 O 0.83841 0.59703 0.4929 0.0
O163 O 0.84335 0.59299 0.43684 0.0
O164 O 0.82252 0.56716 0.41448 0.0
O165 O 0.81391 0.57669 0.43913 0.0
C166 C 0.8171 0.57228 0.54388 0.0
O167 O 0.82934 0.55857 0.48358 0.0
O168 O 0.84672 0.57516 0.48066 0.0
In169 In 0.41243 0.24512 0.47577 0.0
O170 O 0.43009 0.26371 0.48292 0.0
O171 O 0.41297 0.26302 0.49349 0.0
C172 C 0.41955 0.23889 0.40819 0.0
C173 C 0.41813 0.23727 0.54282 0.0
C174 C 0.38785 0.2344 0.46234 0.0
O175 O 0.42092 0.24952 0.4136 0.0
O176 O 0.41466 0.2315 0.43686 0.0
O177 O 0.39242 0.23017 0.48694 0.0
O178 O 0.39567 0.24411 0.44469 0.0
C179 C 0.42462 0.26946 0.49325 0.0
O180 O 0.41047 0.24107 0.54209 0.0
O181 O 0.42278 0.23724 0.50956 0.0
In182 In 0.75022 0.17256 0.44642 0.0
O183 O 0.76758 0.18478 0.48236 0.0
O184 O 0.75193 0.18697 0.49163 0.0
C185 C 0.75836 0.15632 0.43781 0.0
C186 C 0.72719 0.16036 0.4773 0.0
C187 C 0.75379 0.18372 0.37507 0.0
O188 O 0.76026 0.16275 0.46871 0.0
O189 O 0.75212 0.15789 0.41129 0.0
O190 O 0.74418 0.1736 0.38306 0.0
O191 O 0.76148 0.18821 0.4031 0.0
C192 C 0.76293 0.19023 0.50111 0.0
O193 O 0.73112 0.17017 0.4574 0.0
O194 O 0.73475 0.1565 0.48071 0.0
In195 In 0.91322 0.49347 0.69552 0.0
O196 O 0.89535 0.49395 0.68627 0.0
O197 O 0.91231 0.51094 0.68289 0.0
C198 C 0.90692 0.47977 0.76227 0.0
C199 C 0.90783 0.47956 0.62924 0.0
C200 C 0.93772 0.50852 0.70727 0.0
O201 O 0.90384 0.48786 0.75621 0.0
O202 O 0.91306 0.47856 0.73455 0.0
O203 O 0.93343 0.5015 0.67748 0.0
O204 O 0.92968 0.50799 0.73114 0.0
C205 C 0.9007 0.50543 0.6798 0.0
O206 O 0.91476 0.49115 0.62915 0.0
O207 O 0.90375 0.47489 0.663 0.0
In208 In 0.49865 0.41498 0.68367 0.0
O209 O 0.50048 0.41961 0.61768 0.0
O210 O 0.51668 0.42286 0.64862 0.0
C211 C 0.48274 0.4233 0.69658 0.0
C212 C 0.48702 0.39052 0.66797 0.0
C213 C 0.51219 0.4231 0.75085 0.0
O214 O 0.49177 0.42857 0.67293 0.0
O215 O 0.48176 0.41385 0.71371 0.0
O216 O 0.50455 0.4118 0.74499 0.0
O217 O 0.51304 0.43018 0.72279 0.0
C218 C 0.5119 0.42325 0.61603 0.0
O219 O 0.48148 0.39662 0.66959 0.0
O220 O 0.49846 0.39669 0.67534 0.0
In221 In 0.58552 0.0869 0.68705 0.0
O222 O 0.58328 0.0851 0.61993 0.0
O223 O 0.57654 0.09557 0.64989 0.0
C224 C 0.57664 0.06238 0.69658 0.0
C225 C 0.61004 0.10105 0.67509 0.0
C226 C 0.57708 0.09213 0.75395 0.0
O227 O 0.57153 0.06666 0.67439 0.0
O228 O 0.58627 0.07047 0.71393 0.0
O229 O 0.58818 0.09473 0.75013 0.0
O230 O 0.57038 0.08711 0.72396 0.0
C231 C 0.57806 0.09151 0.61726 0.0
O232 O 0.6047 0.08944 0.67845 0.0
O233 O 0.60306 0.1056 0.67895 0.0
In234 In 0.50557 0.08699 0.18967 0.0
O235 O 0.50421 0.10456 0.18591 0.0
O236 O 0.48885 0.08771 0.16623 0.0
C237 C 0.52115 0.09425 0.25221 0.0
C238 C 0.51945 0.08964 0.12497 0.0
C239 C 0.48832 0.06353 0.20804 0.0
O240 O 0.5117 0.09548 0.25155 0.0
O241 O 0.52279 0.08957 0.22121 0.0
O242 O 0.49162 0.06709 0.17278 0.0
O243 O 0.49356 0.07186 0.23405 0.0
C244 C 0.49355 0.09923 0.17064 0.0
O245 O 0.51362 0.07957 0.14368 0.0
O246 O 0.5184 0.09843 0.13913 0.0
In247 In 0.90561 0.41131 0.19854 0.0
O248 O 0.90864 0.41524 0.13234 0.0
O249 O 0.89819 0.42184 0.16313 0.0
C250 C 0.92975 0.41965 0.21416 0.0
C251 C 0.89217 0.38683 0.18321 0.0
C252 C 0.8988 0.41931 0.26285 0.0
O253 O 0.92609 0.42209 0.18232 0.0
O254 O 0.92124 0.41292 0.23808 0.0
O255 O 0.89507 0.40798 0.25698 0.0
O256 O 0.90575 0.42648 0.23603 0.0
C257 C 0.90266 0.42092 0.13049 0.0
O258 O 0.88754 0.39378 0.18325 0.0
O259 O 0.90348 0.39213 0.1923 0.0
In260 In 0.5805 0.49214 0.18714 0.0
O261 O 0.59798 0.49142 0.17168 0.0
O262 O 0.5996 0.50906 0.17887 0.0
C263 C 0.57192 0.47697 0.25051 0.0
C264 C 0.5703 0.47976 0.11912 0.0
C265 C 0.5733 0.50857 0.2067 0.0
O266 O 0.58335 0.48408 0.24456 0.0
O267 O 0.56494 0.47743 0.22425 0.0
O268 O 0.57035 0.50271 0.17425 0.0
O269 O 0.57992 0.50619 0.22919 0.0
C270 C 0.60489 0.503 0.1704 0.0
O271 O 0.57532 0.49137 0.12191 0.0
O272 O 0.57032 0.47435 0.15077 0.0
In273 In 0.42291 0.17271 0.97415 0.0
O274 O 0.42989 0.19085 0.00814 0.0
O275 O 0.42106 0.17404 0.0409 0.0
C276 C 0.39873 0.15629 0.96142 0.0
C277 C 0.43677 0.162 0.98705 0.0
C278 C 0.42892 0.18733 0.90959 0.0
O279 O 0.40266 0.1623 0.99337 0.0
O280 O 0.40699 0.15851 0.93593 0.0
O281 O 0.43333 0.18031 0.91567 0.0
O282 O 0.42167 0.18705 0.93624 0.0
C283 C 0.42635 0.18569 0.04159 0.0
O284 O 0.44125 0.17357 0.98768 0.0
O285 O 0.42543 0.15589 0.97851 0.0
In286 In 0.82477 0.2475 0.94853 0.0
O287 O 0.82772 0.26698 0.95572 0.0
O288 O 0.84077 0.26308 0.98263 0.0
C289 C 0.81254 0.24224 0.8789 0.0
C290 C 0.80736 0.23532 0.00453 0.0
C291 C 0.84133 0.24001 0.93507 0.0
O292 O 0.82188 0.25269 0.88595 0.0
O293 O 0.80932 0.2346 0.90713 0.0
O294 O 0.83629 0.23894 0.96848 0.0
O295 O 0.83822 0.24511 0.90864 0.0
C296 C 0.8373 0.27086 0.97684 0.0
O297 O 0.81399 0.23123 0.99052 0.0
O298 O 0.80941 0.24548 0.98998 0.0
In299 In 0.74949 0.57584 0.97261 0.0
O300 O 0.73035 0.55855 0.97562 0.0
O301 O 0.73213 0.57557 0.99481 0.0
C302 C 0.75764 0.56825 0.91042 0.0
C303 C 0.76015 0.57281 0.03816 0.0
C304 C 0.75625 0.59941 0.95371 0.0
O305 O 0.74706 0.56724 0.91096 0.0
O306 O 0.76396 0.57286 0.94147 0.0
O307 O 0.75588 0.59589 0.98908 0.0
O308 O 0.75301 0.59101 0.92792 0.0
C309 C 0.72514 0.56409 0.99016 0.0
O310 O 0.76477 0.58287 0.01921 0.0
O311 O 0.75022 0.56422 0.02379 0.0
In312 In 0.4917 0.90975 0.80242 0.0
O313 O 0.49388 0.89264 0.80375 0.0
O314 O 0.50738 0.90879 0.83358 0.0
C315 C 0.47689 0.90357 0.738 0.0
C316 C 0.47703 0.90578 0.86595 0.0
C317 C 0.50932 0.93324 0.78612 0.0
O318 O 0.48596 0.90177 0.73978 0.0
O319 O 0.47523 0.90831 0.76877 0.0
O320 O 0.50306 0.93019 0.81772 0.0
O321 O 0.50684 0.9244 0.7627 0.0
C322 C 0.50357 0.89764 0.82462 0.0
O323 O 0.4837 0.91634 0.85086 0.0
O324 O 0.47759 0.8971 0.84861 0.0
In325 In 0.09229 0.58752 0.80654 0.0
O326 O 0.10983 0.60566 0.82133 0.0
O327 O 0.09331 0.60621 0.81164 0.0
C328 C 0.1005 0.5802 0.744 0.0
C329 C 0.09505 0.57862 0.87641 0.0
C330 C 0.06801 0.57758 0.78871 0.0
O331 O 0.10282 0.59123 0.74798 0.0
O332 O 0.09435 0.57302 0.77203 0.0
O333 O 0.07177 0.5762 0.822 0.0
O334 O 0.07647 0.58404 0.76434 0.0
C335 C 0.1046 0.61208 0.82094 0.0
O336 O 0.08917 0.58436 0.87289 0.0
O337 O 0.0996 0.57731 0.84447 0.0
In338 In 0.41631 0.50729 0.81883 0.0
O339 O 0.43089 0.51503 0.86689 0.0
O340 O 0.42042 0.52402 0.85785 0.0
C341 C 0.4204 0.48842 0.80262 0.0
C342 C 0.39271 0.49512 0.84495 0.0
C343 C 0.42496 0.52206 0.75431 0.0
O344 O 0.42489 0.49537 0.83243 0.0
O345 O 0.41357 0.49079 0.78109 0.0
O346 O 0.41423 0.51834 0.76778 0.0
O347 O 0.43125 0.51852 0.77375 0.0
C348 C 0.42877 0.52348 0.87752 0.0
O349 O 0.39542 0.4987 0.80943 0.0
O350 O 0.40184 0.49762 0.86688 0.0
In351 In 0.56978 0.82001 0.02964 0.0
O352 O 0.56697 0.8366 0.02426 0.0
O353 O 0.55342 0.81968 -0.00179 0.0
C354 C 0.55908 0.80825 0.09808 0.0
C355 C 0.57062 0.80819 0.96358 0.0
C356 C 0.5938 0.83386 0.05053 0.0
O357 O 0.56111 0.81899 0.09026 0.0
O358 O 0.56219 0.80335 0.071 0.0
O359 O 0.5881 0.8382 0.03154 0.0
O360 O 0.58739 0.82252 0.059 0.0
C361 C 0.55708 0.83096 0.00454 0.0
O362 O 0.57848 0.8193 0.97115 0.0
O363 O 0.5623 0.80292 0.98956 0.0
In364 In 0.16581 0.75203 0.0449 0.0
O365 O 0.16661 0.75592 0.97873 0.0
O366 O 0.18339 0.75996 0.00761 0.0
C367 C 0.1533 0.76416 0.05837 0.0
C368 C 0.15426 0.72781 0.02629 0.0
C369 C 0.17887 0.7572 0.11285 0.0
O370 O 0.16363 0.76902 0.04107 0.0
O371 O 0.14917 0.75308 0.069 0.0
O372 O 0.16825 0.74778 0.10935 0.0
O373 O 0.18284 0.76384 0.08214 0.0
C374 C 0.17806 0.75984 0.97561 0.0
O375 O 0.16538 0.73369 0.03756 0.0
O376 O 0.1488 0.73402 0.02609 0.0
In377 In 0.24471 0.41725 0.0216 0.0
O378 O 0.22959 0.41008 0.97502 0.0
O379 O 0.23946 0.42948 0.98531 0.0
C380 C 0.24221 0.39472 0.03421 0.0
C381 C 0.26833 0.43002 0.99568 0.0
C382 C 0.23615 0.42193 0.08916 0.0
O383 O 0.23804 0.39726 0.00373 0.0
O384 O 0.24791 0.40363 0.05798 0.0
O385 O 0.24614 0.42991 0.07316 0.0
O386 O 0.23038 0.41188 0.07032 0.0
C387 C 0.23125 0.42057 0.96541 0.0
O388 O 0.26549 0.43015 0.03158 0.0
O389 O 0.25933 0.42346 0.97325 0.0
In390 In 0.16719 0.41839 0.52067 0.0
O391 O 0.15769 0.42987 0.53071 0.0
O392 O 0.16133 0.42683 0.47146 0.0
C393 C 0.1808 0.4232 0.58748 0.0
C394 C 0.18406 0.42116 0.46579 0.0
C395 C 0.14701 0.39584 0.53158 0.0
O396 O 0.17819 0.43095 0.57298 0.0
O397 O 0.1768 0.41333 0.56784 0.0
O398 O 0.15347 0.39872 0.50044 0.0
O399 O 0.15054 0.40442 0.5568 0.0
C400 C 0.15691 0.43165 0.49419 0.0
O401 O 0.1749 0.41078 0.47477 0.0
O402 O 0.18493 0.43022 0.48531 0.0
In403 In 0.58247 0.75483 0.51023 0.0
O404 O 0.58474 0.7698 0.46687 0.0
O405 O 0.56643 0.75566 0.48074 0.0
C406 C 0.60657 0.76149 0.51658 0.0
C407 C 0.57281 0.73152 0.4827 0.0
C408 C 0.57771 0.76163 0.581 0.0
O409 O 0.60235 0.76441 0.48703 0.0
O410 O 0.59862 0.75507 0.54245 0.0
O411 O 0.57173 0.75061 0.56864 0.0
O412 O 0.58584 0.76916 0.55738 0.0
C413 C 0.57329 0.76535 0.46121 0.0
O414 O 0.57155 0.73385 0.51833 0.0
O415 O 0.579 0.74092 0.46122 0.0
In416 In 0.24804 0.82622 0.54296 0.0
O417 O 0.24395 0.82444 0.47655 0.0
O418 O 0.2377 0.80789 0.5098 0.0
C419 C 0.23979 0.84211 0.55833 0.0
C420 C 0.27257 0.83718 0.52889 0.0
C421 C 0.23891 0.81147 0.60681 0.0
O422 O 0.23821 0.83679 0.5252 0.0
O423 O 0.2457 0.83959 0.58344 0.0
O424 O 0.25036 0.81909 0.60312 0.0
O425 O 0.23229 0.81126 0.57815 0.0
C426 C 0.23843 0.81277 0.47639 0.0
O427 O 0.26584 0.82562 0.53277 0.0
O428 O 0.26704 0.84319 0.53394 0.0
In429 In 0.0833 0.50524 0.31246 0.0
O430 O 0.07897 0.51587 0.35841 0.0
O431 O 0.0976 0.51981 0.35429 0.0
C432 C 0.05941 0.488 0.29876 0.0
C433 C 0.09382 0.4919 0.33516 0.0
C434 C 0.08982 0.51969 0.2473 0.0
O435 O 0.06325 0.49308 0.33211 0.0
O436 O 0.06762 0.49151 0.27227 0.0
O437 O 0.09249 0.51124 0.25154 0.0
O438 O 0.08403 0.5209 0.27607 0.0
C439 C 0.08988 0.52194 0.37158 0.0
O440 O 0.09774 0.49916 0.3058 0.0
O441 O 0.08454 0.49124 0.35232 0.0
In442 In 0.49491 0.5822 0.31988 0.0
O443 O 0.50535 0.60297 0.30546 0.0
O444 O 0.50497 0.59749 0.36529 0.0
C445 C 0.48038 0.57399 0.25494 0.0
C446 C 0.47828 0.57087 0.3785 0.0
C447 C 0.51275 0.57637 0.30667 0.0
O448 O 0.48391 0.58457 0.26955 0.0
O449 O 0.48383 0.56752 0.27387 0.0
O450 O 0.50713 0.57436 0.33937 0.0
O451 O 0.50956 0.58156 0.28085 0.0
C452 C 0.5086 0.60627 0.34091 0.0
O453 O 0.48634 0.56804 0.36917 0.0
O454 O 0.47826 0.57919 0.35721 0.0
In455 In 0.41156 0.90884 0.30165 0.0
O456 O 0.39373 0.89052 0.31165 0.0
O457 O 0.39271 0.90701 0.31202 0.0
C458 C 0.41938 0.90216 0.23656 0.0
C459 C 0.41976 0.90478 0.37083 0.0
C460 C 0.42111 0.93338 0.28938 0.0
O461 O 0.40846 0.90017 0.23986 0.0
O462 O 0.42622 0.90732 0.26624 0.0
O463 O 0.42412 0.92907 0.3184 0.0
O464 O 0.41324 0.92532 0.26633 0.0
C465 C 0.38711 0.89543 0.31658 0.0
O466 O 0.41395 0.91061 0.36854 0.0
O467 O 0.42154 0.901 0.33801 0.0
C468 C 0.20235 0.16226 0.31086 0.0
C469 C 0.2153 0.16865 0.31444 0.0
C470 C 0.19638 0.16776 0.29156 0.0
C471 C 0.20232 0.19163 0.217 0.0
H472 H 0.17282 0.19039 0.25928 0.0
C473 C 0.18477 0.22375 0.16244 0.0
C474 C 0.17197 0.21919 0.16094 0.0
C475 C 0.18939 0.21647 0.17774 0.0
C476 C 0.18092 0.19063 0.2467 0.0
H477 H 0.23213 0.18593 0.30194 0.0
H478 H 0.22173 0.19552 0.26864 0.0
H479 H 0.18213 0.17999 0.29471 0.0
H480 H 0.15392 0.20325 0.17262 0.0
H481 H 0.162 0.19043 0.19893 0.0
H482 H 0.2012 0.20232 0.16917 0.0
C483 C 0.21619 0.18621 0.28015 0.0
C484 C 0.18627 0.18471 0.26709 0.0
C485 C 0.22214 0.18076 0.29952 0.0
C486 C 0.16385 0.20702 0.17352 0.0
C487 C 0.16847 0.19972 0.18886 0.0
C488 C 0.19696 0.1975 0.19657 0.0
C489 C 0.20328 0.1797 0.27536 0.0
C490 C 0.19714 0.18534 0.25278 0.0
C491 C 0.1813 0.20445 0.19183 0.0
C492 C 0.18631 0.19724 0.2115 0.0
H493 H 0.19685 0.1529 0.322 0.0
H494 H 0.18642 0.16252 0.28821 0.0
H495 H 0.21055 0.19204 0.20482 0.0
H496 H 0.19126 0.23311 0.15304 0.0
H497 H 0.19933 0.22046 0.18001 0.0
C498 C 0.80802 0.03956 0.32345 0.0
C499 C 0.82087 0.04701 0.31861 0.0
C500 C 0.80151 0.02836 0.30294 0.0
C501 C 0.80575 0.00455 0.25247 0.0
H502 H 0.77381 0.99504 0.20564 0.0
C503 C 0.77951 0.96009 0.16001 0.0
C504 C 0.7669 0.95262 0.16897 0.0
C505 C 0.78613 0.97223 0.17414 0.0
C506 C 0.78268 0.99754 0.21876 0.0
H507 H 0.837 0.04865 0.28857 0.0
H508 H 0.82563 0.02914 0.25261 0.0
H509 H 0.78534 0.01492 0.23965 0.0
H510 H 0.75117 0.9521 0.19834 0.0
H511 H 0.76274 0.97323 0.22344 0.0
H512 H 0.80304 0.98714 0.23218 0.0
C513 C 0.8206 0.03187 0.27256 0.0
C514 C 0.78927 0.00891 0.23829 0.0
C515 C 0.8271 0.04305 0.29306 0.0
C516 C 0.76089 0.95766 0.19093 0.0
C517 C 0.76751 0.96979 0.20515 0.0
C518 C 0.79916 0.9932 0.233 0.0
C519 C 0.80773 0.02441 0.27721 0.0
C520 C 0.80084 0.0125 0.25558 0.0
C521 C 0.78026 0.97712 0.1976 0.0
C522 C 0.78752 0.98952 0.21614 0.0
H523 H 0.80298 0.04239 0.34296 0.0
H524 H 0.79162 0.02274 0.30756 0.0
H525 H 0.81455 0.00697 0.26598 0.0
H526 H 0.78436 0.95647 0.14294 0.0
H527 H 0.79589 0.97773 0.16724 0.0
C528 C 0.96057 0.78943 0.32536 0.0
C529 C 0.95579 0.77718 0.33837 0.0
C530 C 0.97267 0.79618 0.31114 0.0
C531 C 0.99654 0.79114 0.26536 0.0
H532 H 0.01719 0.82662 0.27933 0.0
C533 C 0.04599 0.81886 0.20148 0.0
C534 C 0.04901 0.83003 0.18235 0.0
C535 C 0.03504 0.81247 0.22319 0.0
C536 C 0.01148 0.81672 0.27501 0.0
H537 H 0.9601 0.76259 0.34885 0.0
H538 H 0.98135 0.77447 0.32476 0.0
H539 H 0.99761 0.81549 0.31519 0.0
H540 H 0.04297 0.84328 0.17081 0.0
H541 H 0.02377 0.83208 0.20868 0.0
H542 H 0.01038 0.79239 0.22503 0.0
C543 C 0.97565 0.77877 0.32469 0.0
C544 C 0.00028 0.81035 0.29554 0.0
C545 C 0.96352 0.772 0.33874 0.0
C546 C 0.04086 0.83468 0.18522 0.0
C547 C 0.02993 0.82833 0.20714 0.0
C548 C 0.00776 0.7975 0.24502 0.0
C549 C 0.98027 0.79083 0.30983 0.0
C550 C 0.99262 0.7975 0.29061 0.0
C551 C 0.02692 0.81717 0.22637 0.0
C552 C 0.01527 0.81037 0.24929 0.0
H553 H 0.9548 0.79365 0.32468 0.0
H554 H 0.97588 0.80539 0.29956 0.0
H555 H 0.99077 0.78129 0.26029 0.0
H556 H 0.05213 0.81508 0.19987 0.0
H557 H 0.033 0.80394 0.23796 0.0
C558 C 0.82776 0.7877 0.82635 0.0
C559 C 0.82044 0.77489 0.83289 0.0
C560 C 0.82266 0.79428 0.80876 0.0
C561 C 0.7978 0.78918 0.74048 0.0
H562 H 0.8044 0.82166 0.77405 0.0
C563 C 0.77155 0.81214 0.67585 0.0
C564 C 0.77797 0.82503 0.67059 0.0
C565 C 0.77725 0.80631 0.69453 0.0
C566 C 0.80263 0.81268 0.76393 0.0
H567 H 0.8019 0.75907 0.82826 0.0
H568 H 0.79299 0.77057 0.79775 0.0
H569 H 0.81306 0.81104 0.81184 0.0
H570 H 0.7955 0.8419 0.67937 0.0
H571 H 0.80559 0.83167 0.71127 0.0
H572 H 0.78751 0.7908 0.6924 0.0
C573 C 0.80271 0.77548 0.80569 0.0
C574 C 0.80754 0.80659 0.78571 0.0
C575 C 0.80779 0.76892 0.82342 0.0
C576 C 0.79034 0.83194 0.68311 0.0
C577 C 0.79606 0.8261 0.70169 0.0
C578 C 0.79297 0.79529 0.7186 0.0
C579 C 0.81016 0.78815 0.79724 0.0
C580 C 0.80506 0.79473 0.77439 0.0
C581 C 0.78951 0.81324 0.70817 0.0
C582 C 0.79524 0.80706 0.73024 0.0
H583 H 0.83755 0.79253 0.83335 0.0
H584 H 0.82862 0.80403 0.80251 0.0
H585 H 0.79596 0.78015 0.73057 0.0
H586 H 0.76199 0.80657 0.66669 0.0
H587 H 0.77188 0.79642 0.69946 0.0
C588 C 0.23253 0.04157 0.77244 0.0
C589 C 0.23164 0.04382 0.81285 0.0
C590 C 0.22689 0.02948 0.75792 0.0
C591 C 0.20201 0.99781 0.78207 0.0
H592 H 0.21642 0.98892 0.69492 0.0
C593 C 0.18003 0.94812 0.72022 0.0
C594 C 0.17858 0.94708 0.67873 0.0
C595 C 0.18725 0.95968 0.73795 0.0
C596 C 0.21229 0.99131 0.71917 0.0
H597 H 0.22451 0.03523 0.87009 0.0
H598 H 0.21492 0.01404 0.84498 0.0
H599 H 0.228 0.00947 0.72467 0.0
H600 H 0.18373 0.95723 0.62316 0.0
H601 H 0.1965 0.97748 0.65424 0.0
H602 H 0.18634 0.97957 0.77663 0.0
C603 C 0.21973 0.02163 0.82427 0.0
C604 C 0.21888 0.00308 0.73617 0.0
C605 C 0.22528 0.03375 0.83873 0.0
C606 C 0.18469 0.95778 0.65522 0.0
C607 C 0.19203 0.96934 0.67295 0.0
C608 C 0.19548 0.986 0.76535 0.0
C609 C 0.22034 0.01935 0.78357 0.0
C610 C 0.21375 0.00654 0.76747 0.0
C611 C 0.19327 0.9704 0.71451 0.0
C612 C 0.20049 0.9827 0.73344 0.0
H613 H 0.23734 0.04916 0.75174 0.0
H614 H 0.22739 0.02812 0.72633 0.0
H615 H 0.19766 0.0002 0.80564 0.0
H616 H 0.17544 0.94002 0.7391 0.0
H617 H 0.18814 0.96024 0.77003 0.0
C618 C 0.03123 0.22523 0.65858 0.0
C619 C 0.03966 0.22094 0.66233 0.0
C620 C 0.01933 0.21843 0.67446 0.0
C621 C 0.00274 0.19628 0.75395 0.0
H622 H 0.97343 0.19275 0.70189 0.0
C623 C 0.95392 0.16787 0.82216 0.0
C624 C 0.94591 0.17266 0.81803 0.0
C625 C 0.96527 0.17338 0.80231 0.0
C626 C 0.98155 0.19378 0.71699 0.0
H627 H 0.04211 0.20592 0.68396 0.0
H628 H 0.02129 0.19402 0.71158 0.0
H629 H 0.99316 0.20259 0.66659 0.0
H630 H 0.94358 0.18711 0.79071 0.0
H631 H 0.9635 0.19689 0.75676 0.0
H632 H 0.99124 0.1877 0.8046 0.0
C633 C 0.02394 0.2027 0.69678 0.0
C634 C 0.99283 0.19937 0.6967 0.0
C635 C 0.03581 0.20947 0.68074 0.0
C636 C 0.94956 0.1832 0.79436 0.0
C637 C 0.96092 0.18873 0.77463 0.0
C638 C 0.99148 0.19074 0.7743 0.0
C639 C 0.01567 0.20724 0.69452 0.0
C640 C 0.00355 0.20073 0.71505 0.0
C641 C 0.96885 0.18381 0.77804 0.0
C642 C 0.98078 0.18949 0.75615 0.0
H643 H 0.03395 0.23404 0.64454 0.0
H644 H 0.01319 0.2222 0.67249 0.0
H645 H 0.01089 0.19739 0.76911 0.0
H646 H 0.95131 0.15971 0.84005 0.0
H647 H 0.97111 0.16928 0.80525 0.0
C648 C 0.84029 0.54432 0.50987 0.0
C649 C 0.84722 0.55685 0.49891 0.0
C650 C 0.84604 0.53846 0.5281 0.0
C651 C 0.87325 0.54602 0.58917 0.0
H652 H 0.86489 0.51218 0.5675 0.0
C653 C 0.90067 0.52418 0.65415 0.0
C654 C 0.89406 0.51164 0.6651 0.0
C655 C 0.89466 0.52968 0.63536 0.0
C656 C 0.86719 0.52158 0.57428 0.0
H657 H 0.86568 0.57286 0.4963 0.0
H658 H 0.87574 0.56259 0.52766 0.0
H659 H 0.85526 0.5216 0.52855 0.0
H660 H 0.87591 0.49516 0.6666 0.0
H661 H 0.86536 0.50484 0.63435 0.0
H662 H 0.88513 0.54601 0.63496 0.0
C663 C 0.86584 0.55737 0.52286 0.0
C664 C 0.86171 0.52699 0.55185 0.0
C665 C 0.86009 0.56322 0.50461 0.0
C666 C 0.88124 0.50484 0.65839 0.0
C667 C 0.87523 0.51035 0.63961 0.0
C668 C 0.8787 0.54062 0.61163 0.0
C669 C 0.85883 0.54503 0.53573 0.0
C670 C 0.86473 0.53928 0.55896 0.0
C671 C 0.88192 0.52276 0.62719 0.0
C672 C 0.87577 0.52835 0.60436 0.0
H673 H 0.83034 0.53919 0.50589 0.0
H674 H 0.84039 0.52896 0.53783 0.0
H675 H 0.87557 0.55543 0.5959 0.0
H676 H 0.91057 0.52964 0.65882 0.0
H677 H 0.9001 0.53923 0.62587 0.0
C678 C 0.44427 0.2886 0.51154 0.0
C679 C 0.43133 0.28236 0.50755 0.0
C680 C 0.45052 0.30032 0.52902 0.0
C681 C 0.44519 0.32027 0.59743 0.0
H682 H 0.47693 0.34611 0.55838 0.0
C683 C 0.46789 0.37101 0.64915 0.0
C684 C 0.48075 0.37747 0.65516 0.0
C685 C 0.46203 0.35908 0.63332 0.0
C686 C 0.46815 0.33892 0.56993 0.0
H687 H 0.41483 0.28363 0.51723 0.0
H688 H 0.42576 0.3042 0.54703 0.0
H689 H 0.46631 0.32624 0.52399 0.0
H690 H 0.49753 0.37643 0.65048 0.0
H691 H 0.48725 0.35549 0.62278 0.0
H692 H 0.44697 0.33302 0.64307 0.0
C693 C 0.43105 0.29994 0.53745 0.0
C694 C 0.46205 0.32755 0.5502 0.0
C695 C 0.4248 0.28821 0.52008 0.0
C696 C 0.4876 0.37165 0.64615 0.0
C697 C 0.48174 0.35972 0.63004 0.0
C698 C 0.45126 0.33165 0.61705 0.0
C699 C 0.44395 0.30603 0.54275 0.0
C700 C 0.45047 0.31813 0.56361 0.0
C701 C 0.46892 0.35339 0.62298 0.0
C702 C 0.46277 0.34111 0.6034 0.0
H703 H 0.44954 0.28428 0.50226 0.0
H704 H 0.46044 0.30471 0.53295 0.0
H705 H 0.4364 0.31311 0.60902 0.0
H706 H 0.46238 0.37529 0.65581 0.0
H707 H 0.45216 0.35448 0.62789 0.0
C708 C 0.70794 0.16021 0.49839 0.0
C709 C 0.7151 0.1544 0.49756 0.0
C710 C 0.69693 0.15505 0.52002 0.0
C711 C 0.68038 0.13296 0.60169 0.0
H712 H 0.6519 0.13384 0.55968 0.0
C713 C 0.63058 0.10302 0.66094 0.0
C714 C 0.62313 0.1085 0.66325 0.0
C715 C 0.64245 0.10954 0.64473 0.0
C716 C 0.65983 0.13369 0.57205 0.0
H717 H 0.71624 0.13851 0.51784 0.0
H718 H 0.69683 0.1293 0.55472 0.0
H719 H 0.67104 0.14297 0.52154 0.0
H720 H 0.62242 0.12526 0.65217 0.0
H721 H 0.64319 0.13665 0.62365 0.0
H722 H 0.66898 0.12335 0.65174 0.0
C723 C 0.69986 0.13799 0.53949 0.0
C724 C 0.67081 0.13891 0.55021 0.0
C725 C 0.71092 0.1432 0.51806 0.0
C726 C 0.62796 0.12081 0.65069 0.0
C727 C 0.6398 0.12729 0.63416 0.0
C728 C 0.66937 0.12765 0.6234 0.0
C729 C 0.6928 0.14392 0.54106 0.0
C730 C 0.68119 0.13855 0.56465 0.0
C731 C 0.64704 0.12162 0.63026 0.0
C732 C 0.65898 0.12791 0.60869 0.0
H733 H 0.71099 0.1689 0.48307 0.0
H734 H 0.6918 0.15994 0.52098 0.0
H735 H 0.68828 0.13273 0.61405 0.0
H736 H 0.62709 0.09355 0.67045 0.0
H737 H 0.6478 0.10491 0.64186 0.0
C738 C 0.47584 0.09955 0.13754 0.0
C739 C 0.48757 0.10602 0.15536 0.0
C740 C 0.47072 0.10596 0.11901 0.0
C741 C 0.47294 0.13652 0.11142 0.0
H742 H 0.45709 0.12393 0.00938 0.0
C743 C 0.4559 0.16313 0.01468 0.0
C744 C 0.44384 0.15601 -0.00037 0.0
C745 C 0.46198 0.15736 0.03135 0.0
C746 C 0.46142 0.12751 0.03794 0.0
H747 H 0.50297 0.12424 0.16898 0.0
H748 H 0.49404 0.13546 0.13638 0.0
H749 H 0.46586 0.11315 0.04535 0.0
H750 H 0.42888 0.13733 0.98864 0.0
H751 H 0.43947 0.12727 0.01772 0.0
H752 H 0.46843 0.15085 0.10404 0.0
C753 C 0.48877 0.12544 0.13696 0.0
C754 C 0.46641 0.12133 0.05861 0.0
C755 C 0.49389 0.11902 0.15556 0.0
C756 C 0.43818 0.14305 -2e-05 0.0
C757 C 0.44426 0.13729 0.01651 0.0
C758 C 0.46796 0.14272 0.0907 0.0
C759 C 0.47723 0.11896 0.11785 0.0
C760 C 0.47213 0.1257 0.09574 0.0
C761 C 0.45613 0.14439 0.0331 0.0
C762 C 0.46206 0.13823 0.05388 0.0
H763 H 0.47073 0.08953 0.13708 0.0
H764 H 0.4617 0.10071 0.10525 0.0
H765 H 0.47718 0.14005 0.14012 0.0
H766 H 0.46049 0.17314 0.01475 0.0
H767 H 0.47119 0.16307 0.04339 0.0
C768 C 0.85412 0.28708 0.01868 0.0
C769 C 0.84331 0.28311 0.99616 0.0
C770 C 0.85922 0.29819 0.03987 0.0
C771 C 0.85879 0.32759 0.04797 0.0
H772 H 0.87152 0.32841 0.15383 0.0
C773 C 0.87355 0.36919 0.15203 0.0
C774 C 0.88533 0.37392 0.1691 0.0
C775 C 0.8678 0.35762 0.13354 0.0
C776 C 0.86804 0.32832 0.12425 0.0
H777 H 0.82946 0.28769 0.97752 0.0
H778 H 0.83822 0.30698 0.01495 0.0
H779 H 0.86306 0.30944 0.11459 0.0
H780 H 0.90008 0.37003 0.18207 0.0
H781 H 0.88997 0.34975 0.15 0.0
H782 H 0.86371 0.34645 0.05781 0.0
C783 C 0.84289 0.30164 0.01583 0.0
C784 C 0.86325 0.31749 0.10168 0.0
C785 C 0.83784 0.29057 0.99446 0.0
C786 C 0.89099 0.36661 0.16913 0.0
C787 C 0.8852 0.35499 0.15088 0.0
C788 C 0.86349 0.33838 0.07064 0.0
C789 C 0.85356 0.30551 0.03915 0.0
C790 C 0.85863 0.31702 0.06319 0.0
C791 C 0.87369 0.35053 0.13206 0.0
C792 C 0.8682 0.33887 0.10894 0.0
H793 H 0.85856 0.28153 0.02042 0.0
H794 H 0.86757 0.30102 0.05691 0.0
H795 H 0.85547 0.32761 0.01824 0.0
H796 H 0.86897 0.37462 0.15162 0.0
H797 H 0.85885 0.35431 0.11974 0.0
C798 C 0.62273 0.5019 0.14109 0.0
C799 C 0.61779 0.50902 0.15618 0.0
C800 C 0.63441 0.50765 0.1233 0.0
C801 C 0.65631 0.53677 0.07332 0.0
H802 H 0.67962 0.52512 0.08763 0.0
C803 C 0.70696 0.56422 0.02047 0.0
C804 C 0.71219 0.55754 0.00399 0.0
C805 C 0.69514 0.55803 0.03712 0.0
C806 C 0.67313 0.52837 0.08294 0.0
H807 H 0.62138 0.52771 0.16617 0.0
H808 H 0.64185 0.53775 0.13581 0.0
H809 H 0.65991 0.51493 0.12298 0.0
H810 H 0.70906 0.53917 0.99085 0.0
H811 H 0.68832 0.52832 0.01976 0.0
H812 H 0.66956 0.55026 0.03352 0.0
C813 C 0.63661 0.52773 0.13691 0.0
C814 C 0.66186 0.52255 0.10324 0.0
C815 C 0.62493 0.52198 0.15459 0.0
C816 C 0.70525 0.54455 0.0034 0.0
C817 C 0.69343 0.53835 0.0202 0.0
C818 C 0.66758 0.54259 0.05309 0.0
C819 C 0.64137 0.52063 0.12034 0.0
C820 C 0.65335 0.52674 0.09882 0.0
C821 C 0.68833 0.54502 0.03771 0.0
C822 C 0.67614 0.5385 0.05783 0.0
H823 H 0.6174 0.49188 0.14181 0.0
H824 H 0.63779 0.50192 0.1106 0.0
H825 H 0.64984 0.54005 0.06861 0.0
H826 H 0.71212 0.57425 0.0214 0.0
H827 H 0.6915 0.56343 0.0507 0.0
C828 C 0.51995 0.89673 0.86441 0.0
C829 C 0.50949 0.89078 0.8398 0.0
C830 C 0.525 0.89005 0.88151 0.0
C831 C 0.52598 0.86107 0.87359 0.0
H832 H 0.53516 0.86728 0.98491 0.0
C833 C 0.5403 0.83087 0.96374 0.0
C834 C 0.55075 0.83728 0.98819 0.0
C835 C 0.53483 0.8371 0.94612 0.0
C836 C 0.53274 0.86552 0.95374 0.0
H837 H 0.49629 0.87329 0.81285 0.0
H838 H 0.50509 0.86158 0.84293 0.0
H839 H 0.52684 0.87892 0.95177 0.0
H840 H 0.56354 0.85513 0.01397 0.0
H841 H 0.55404 0.866 0.9831 0.0
H842 H 0.53193 0.84769 0.87559 0.0
C843 C 0.50943 0.87142 0.84878 0.0
C844 C 0.528 0.8722 0.93473 0.0
C845 C 0.50438 0.87811 0.83168 0.0
C846 C 0.55547 0.84994 0.99535 0.0
C847 C 0.54999 0.85616 0.9778 0.0
C848 C 0.53074 0.85439 0.89262 0.0
C849 C 0.51969 0.87729 0.87435 0.0
C850 C 0.52464 0.8701 0.89441 0.0
C851 C 0.53968 0.84983 0.95271 0.0
C852 C 0.53422 0.85659 0.93285 0.0
H853 H 0.52412 0.9065 0.87106 0.0
H854 H 0.53303 0.89487 0.90053 0.0
H855 H 0.52358 0.85934 0.8424 0.0
H856 H 0.53646 0.8211 0.95774 0.0
H857 H 0.52679 0.83195 0.92732 0.0
C858 C 0.12283 0.6306 0.85039 0.0
C859 C 0.11073 0.62497 0.83528 0.0
C860 C 0.12796 0.64207 0.86942 0.0
C861 C 0.12429 0.66943 0.88478 0.0
H862 H 0.14064 0.67186 0.9852 0.0
C863 C 0.13663 0.70951 0.99361 0.0
C864 C 0.14858 0.71516 0.00993 0.0
C865 C 0.1319 0.69828 0.97327 0.0
C866 C 0.1362 0.67137 0.95706 0.0
H867 H 0.09472 0.62717 0.82644 0.0
H868 H 0.10365 0.64717 0.85974 0.0
H869 H 0.13327 0.65328 0.94468 0.0
H870 H 0.16478 0.71331 0.01921 0.0
H871 H 0.15653 0.69372 0.98364 0.0
H872 H 0.12719 0.68751 0.89724 0.0
C873 C 0.10921 0.64277 0.85676 0.0
C874 C 0.13202 0.66075 0.93377 0.0
C875 C 0.10408 0.6313 0.83777 0.0
C876 C 0.15551 0.70914 0.00702 0.0
C877 C 0.15078 0.69791 0.98671 0.0
C878 C 0.12847 0.68005 0.90808 0.0
C879 C 0.12109 0.64814 0.87364 0.0
C880 C 0.12599 0.65966 0.89741 0.0
C881 C 0.13903 0.69249 0.9689 0.0
C882 C 0.13444 0.68112 0.94453 0.0
H883 H 0.12819 0.62595 0.84878 0.0
H884 H 0.13722 0.64608 0.88152 0.0
H885 H 0.1198 0.66892 0.85671 0.0
H886 H 0.13107 0.71393 0.99547 0.0
H887 H 0.12272 0.69422 0.96048 0.0
C888 C 0.29116 0.44278 0.00716 0.0
C889 C 0.28113 0.43699 0.98075 0.0
C890 C 0.30327 0.44924 0.99267 0.0
C891 C 0.32141 0.46519 0.90425 0.0
H892 H 0.34634 0.45905 0.95015 0.0
C893 C 0.36982 0.48445 0.83405 0.0
C894 C 0.37991 0.48859 0.86008 0.0
C895 C 0.35773 0.4782 0.84874 0.0
C896 C 0.33955 0.46102 0.93734 0.0
H897 H 0.27586 0.43349 0.91861 0.0
H898 H 0.297 0.44485 0.89337 0.0
H899 H 0.32535 0.44835 0.97667 0.0
H900 H 0.38533 0.48962 0.92184 0.0
H901 H 0.3643 0.47902 0.94756 0.0
H902 H 0.33559 0.47799 0.8653 0.0
C903 C 0.2955 0.44441 0.92519 0.0
C904 C 0.32753 0.45486 0.95252 0.0
C905 C 0.28342 0.43786 0.93966 0.0
C906 C 0.37772 0.48645 0.90103 0.0
C907 C 0.36565 0.48031 0.91574 0.0
C908 C 0.33346 0.47144 0.88928 0.0
C909 C 0.30554 0.45012 0.95154 0.0
C910 C 0.31834 0.45686 0.93603 0.0
C911 C 0.3555 0.47605 0.88979 0.0
C912 C 0.34267 0.46941 0.9056 0.0
H913 H 0.28965 0.44226 0.03898 0.0
H914 H 0.31086 0.45364 0.01359 0.0
H915 H 0.31452 0.467 0.89129 0.0
H916 H 0.37127 0.48594 0.80231 0.0
H917 H 0.35012 0.47489 0.82786 0.0
C918 C 0.09681 0.47947 0.38733 0.0
C919 C 0.09997 0.48521 0.34992 0.0
C920 C 0.10302 0.47369 0.40261 0.0
C921 C 0.132 0.47261 0.39091 0.0
H922 H 0.11441 0.44299 0.45526 0.0
C923 C 0.1525 0.44209 0.43869 0.0
C924 C 0.15102 0.43851 0.47881 0.0
C925 C 0.14656 0.44814 0.42336 0.0
C926 C 0.11944 0.45132 0.43763 0.0
H927 H 0.11188 0.48917 0.29864 0.0
H928 H 0.12247 0.47867 0.32466 0.0
H929 H 0.10314 0.45232 0.42595 0.0
H930 H 0.14228 0.43851 0.5345 0.0
H931 H 0.13169 0.44896 0.50742 0.0
H932 H 0.14824 0.47134 0.4019 0.0
C933 C 0.11543 0.47893 0.34275 0.0
C934 C 0.11301 0.45669 0.42088 0.0
C935 C 0.1093 0.48486 0.32766 0.0
C936 C 0.14358 0.44119 0.50348 0.0
C937 C 0.13749 0.44709 0.48798 0.0
C938 C 0.13839 0.46714 0.40726 0.0
C939 C 0.11243 0.47337 0.38059 0.0
C940 C 0.11922 0.46744 0.39745 0.0
C941 C 0.1389 0.45058 0.44775 0.0
C942 C 0.13218 0.45648 0.43089 0.0
H943 H 0.08971 0.47969 0.40529 0.0
H944 H 0.10061 0.46972 0.43211 0.0
H945 H 0.13713 0.48101 0.37368 0.0
H946 H 0.1582 0.44015 0.41902 0.0
H947 H 0.14772 0.45065 0.39219 0.0
C948 C 0.5209 0.62891 0.32521 0.0
C949 C 0.516 0.61932 0.35335 0.0
C950 C 0.52789 0.64124 0.3375 0.0
C951 C 0.54539 0.66052 0.4241 0.0
H952 H 0.54041 0.68554 0.37286 0.0
C953 C 0.56149 0.70859 0.49258 0.0
C954 C 0.56725 0.71882 0.46695 0.0
C955 C 0.55599 0.69657 0.47742 0.0
C956 C 0.54199 0.67867 0.38715 0.0
H957 H 0.51447 0.61505 0.41631 0.0
H958 H 0.52636 0.63649 0.43775 0.0
H959 H 0.52937 0.66429 0.34836 0.0
H960 H 0.57186 0.72454 0.40548 0.0
H961 H 0.56215 0.70351 0.37899 0.0
H962 H 0.55777 0.67488 0.4635 0.0
C963 C 0.52509 0.63455 0.40619 0.0
C964 C 0.5357 0.66651 0.37307 0.0
C965 C 0.51819 0.62225 0.39391 0.0
C966 C 0.56747 0.71682 0.42593 0.0
C967 C 0.56188 0.7048 0.41074 0.0
C968 C 0.55159 0.67265 0.43834 0.0
C969 C 0.53005 0.64419 0.37817 0.0
C970 C 0.53724 0.65726 0.39163 0.0
C971 C 0.55606 0.69456 0.43633 0.0
C972 C 0.54987 0.68182 0.42021 0.0
H973 H 0.51939 0.62689 0.29372 0.0
H974 H 0.53169 0.64845 0.31513 0.0
H975 H 0.54698 0.65369 0.43858 0.0
H976 H 0.56118 0.70988 0.52432 0.0
H977 H 0.55146 0.68884 0.49776 0.0
C978 C 0.36902 0.87587 0.34158 0.0
C979 C 0.37439 0.8885 0.33228 0.0
C980 C 0.35787 0.86983 0.36254 0.0
C981 C 0.34002 0.87677 0.43382 0.0
H982 H 0.31336 0.84364 0.41015 0.0
C983 C 0.29196 0.85581 0.50632 0.0
C984 C 0.28542 0.84305 0.51424 0.0
C985 C 0.30333 0.86113 0.48673 0.0
C986 C 0.32081 0.85282 0.41756 0.0
H987 H 0.37197 0.90454 0.33552 0.0
H988 H 0.35246 0.89396 0.37177 0.0
H989 H 0.33165 0.85319 0.36759 0.0
H990 H 0.2859 0.82596 0.5098 0.0
H991 H 0.30592 0.83532 0.47618 0.0
H992 H 0.32927 0.87644 0.48378 0.0
C993 C 0.35697 0.88878 0.36347 0.0
C994 C 0.33125 0.8583 0.39304 0.0
C995 C 0.36808 0.89481 0.34242 0.0
C996 C 0.29074 0.83582 0.50399 0.0
C997 C 0.30214 0.84115 0.48442 0.0
C998 C 0.32963 0.87128 0.45841 0.0
C999 C 0.35193 0.87633 0.37466 0.0
C1000 C 0.34089 0.87038 0.40069 0.0
C1001 C 0.30841 0.85382 0.47475 0.0
C1002 C 0.31985 0.85929 0.45035 0.0
H1003 H 0.37369 0.87079 0.33418 0.0
H1004 H 0.3542 0.86023 0.37083 0.0
H1005 H 0.34743 0.886 0.44094 0.0
H1006 H 0.28807 0.86161 0.51378 0.0
H1007 H 0.30785 0.87089 0.47943 0.0
C1008 C 0.0934 0.24926 0.77716 0.0
C1009 C 0.09346 0.24249 0.74389 0.0
C1010 C 0.09857 0.2485 0.81308 0.0
C1011 C 0.10772 0.2289 0.86912 0.0
H1012 H 0.12736 0.25893 0.92992 0.0
C1013 C 0.13703 0.2315 0.00639 0.0
C1014 C 0.13726 0.23883 0.03846 0.0
C1015 C 0.13116 0.23135 0.97081 0.0
C1016 C 0.12177 0.25043 0.91356 0.0
H1017 H 0.09897 0.22961 0.72204 0.0
H1018 H 0.10815 0.22837 0.78482 0.0
H1019 H 0.1184 0.25997 0.86678 0.0
H1020 H 0.13118 0.25141 0.05898 0.0
H1021 H 0.12083 0.25103 0.99714 0.0
H1022 H 0.11117 0.21939 0.916 0.0
C1023 C 0.10397 0.23415 0.78323 0.0
C1024 C 0.11664 0.25103 0.87734 0.0
C1025 C 0.09879 0.23493 0.74724 0.0
C1026 C 0.13121 0.24571 0.0347 0.0
C1027 C 0.12535 0.24557 -0.00082 0.0
C1028 C 0.11286 0.2283 0.90541 0.0
C1029 C 0.10394 0.24095 0.81654 0.0
C1030 C 0.10952 0.24027 0.85476 0.0
C1031 C 0.12542 0.23853 0.96663 0.0
C1032 C 0.1199 0.23906 0.9281 0.0
H1033 H 0.08931 0.25513 0.77553 0.0
H1034 H 0.09824 0.25372 0.83832 0.0
H1035 H 0.10215 0.22042 0.85265 0.0
H1036 H 0.14164 0.22612 0.00843 0.0
H1037 H 0.13145 0.2259 0.94618 0.0
C1038 C 0.75363 0.89049 0.03602 0.0
C1039 C 0.75668 0.9029 0.04003 0.0
C1040 C 0.75533 0.88609 -0.00019 0.0
C1041 C 0.75829 0.8929 0.89244 0.0
H1042 H 0.76825 0.86802 0.88919 0.0
C1043 C 0.76585 0.87339 0.74552 0.0
C1044 C 0.76023 0.86044 0.7438 0.0
C1045 C 0.76647 0.8793 0.78147 0.0
C1046 C 0.76542 0.87493 0.8897 0.0
H1047 H 0.76417 0.92054 0.0097 0.0
H1048 H 0.76738 0.91291 0.94649 0.0
H1049 H 0.76784 0.87728 0.95262 0.0
H1050 H 0.75092 0.84349 0.77821 0.0
H1051 H 0.75203 0.8538 0.84097 0.0
H1052 H 0.75586 0.89051 0.82941 0.0
C1053 C 0.76346 0.90652 0.97113 0.0
C1054 C 0.76515 0.88022 0.926 0.0
C1055 C 0.76169 0.9109 0.00737 0.0
C1056 C 0.75531 0.8535 0.77867 0.0
C1057 C 0.75601 0.85939 0.81462 0.0
C1058 C 0.75864 0.88767 0.85608 0.0
C1059 C 0.76019 0.89403 0.96684 0.0
C1060 C 0.7614 0.88912 0.92789 0.0
C1061 C 0.76157 0.87234 0.81637 0.0
C1062 C 0.76202 0.87851 0.85446 0.0
H1063 H 0.7497 0.88409 0.06066 0.0
H1064 H 0.75252 0.87638 0.99741 0.0
H1065 H 0.75519 0.89961 0.89288 0.0
H1066 H 0.76973 0.87897 0.71907 0.0
H1067 H 0.77087 0.8893 0.78206 0.0
C1068 C 0.07763 0.85337 0.97887 0.0
C1069 C 0.08372 0.86232 0.00857 0.0
C1070 C 0.07977 0.85665 0.93875 0.0
C1071 C 0.09128 0.88222 0.86768 0.0
H1072 H 0.10573 0.86519 0.81251 0.0
C1073 C 0.12335 0.9035 0.73331 0.0
C1074 C 0.12486 0.89586 0.70598 0.0
C1075 C 0.11544 0.8984 0.76581 0.0
C1076 C 0.10141 0.86986 0.82675 0.0
H1077 H 0.09621 0.88182 0.01982 0.0
H1078 H 0.09972 0.88761 0.94951 0.0
H1079 H 0.09672 0.85817 0.87795 0.0
H1080 H 0.1186 0.87685 0.68936 0.0
H1081 H 0.10428 0.86785 0.74504 0.0
H1082 H 0.09588 0.89389 0.81661 0.0
C1083 C 0.09338 0.87805 0.95736 0.0
C1084 C 0.09631 0.86585 0.86447 0.0
C1085 C 0.09142 0.87474 0.9975 0.0
C1086 C 0.11769 0.88296 0.71027 0.0
C1087 C 0.10957 0.87783 0.7424 0.0
C1088 C 0.09616 0.88609 0.82955 0.0
C1089 C 0.08784 0.86898 0.92769 0.0
C1090 C 0.09151 0.8722 0.88568 0.0
C1091 C 0.10865 0.88549 0.77139 0.0
C1092 C 0.10165 0.88021 0.80905 0.0
H1093 H 0.07166 0.84372 0.98657 0.0
H1094 H 0.07539 0.8495 0.91633 0.0
H1095 H 0.08752 0.88718 0.88342 0.0
H1096 H 0.1288 0.91349 0.73085 0.0
H1097 H 0.11519 0.90466 0.78758 0.0
C1098 C 0.24613 0.1062 0.73696 0.0
C1099 C 0.23669 0.09588 0.75667 0.0
C1100 C 0.24367 0.1104 0.70159 0.0
C1101 C 0.21912 0.10942 0.63845 0.0
H1102 H 0.24271 0.11568 0.554 0.0
C1103 C 0.22678 0.12008 0.45869 0.0
C1104 C 0.22479 0.13018 0.45569 0.0
C1105 C 0.22647 0.11487 0.49566 0.0
C1106 C 0.23596 0.11385 0.57712 0.0
H1107 H 0.21714 0.08217 0.7559 0.0
H1108 H 0.21283 0.08954 0.69382 0.0
H1109 H 0.24583 0.10918 0.61901 0.0
H1110 H 0.22018 0.14228 0.48861 0.0
H1111 H 0.2197 0.13319 0.55343 0.0
H1112 H 0.20925 0.11413 0.59616 0.0
C1113 C 0.22213 0.09439 0.70585 0.0
C1114 C 0.23784 0.11029 0.61451 0.0
C1115 C 0.2246 0.09015 0.74126 0.0
C1116 C 0.22177 0.13451 0.49007 0.0
C1117 C 0.22145 0.12928 0.52714 0.0
C1118 C 0.21727 0.11309 0.60095 0.0
C1119 C 0.23171 0.10438 0.68523 0.0
C1120 C 0.22949 0.1081 0.64563 0.0
C1121 C 0.22417 0.11966 0.53039 0.0
C1122 C 0.22569 0.11533 0.56992 0.0
H1123 H 0.25552 0.11086 0.74825 0.0
H1124 H 0.2512 0.11825 0.68666 0.0
H1125 H 0.21255 0.10781 0.66198 0.0
H1126 H 0.22903 0.11648 0.43266 0.0
H1127 H 0.22838 0.10731 0.49719 0.0
C1128 C 0.86548 0.08807 0.49546 0.0
C1129 C 0.85285 0.08102 0.48615 0.0
C1130 C 0.86936 0.09009 0.53504 0.0
C1131 C 0.85874 0.09459 0.62913 0.0
H1132 H 0.88776 0.09494 0.67182 0.0
C1133 C 0.87926 0.11817 0.77868 0.0
C1134 C 0.89221 0.12543 0.7799 0.0
C1135 C 0.87343 0.10976 0.74768 0.0
C1136 C 0.87968 0.09497 0.6603 0.0
H1137 H 0.8344 0.07 0.51063 0.0
H1138 H 0.84119 0.07379 0.58002 0.0
H1139 H 0.87953 0.0853 0.60736 0.0
H1140 H 0.90925 0.12939 0.75045 0.0
H1141 H 0.89916 0.1152 0.69563 0.0
H1142 H 0.85928 0.10498 0.68017 0.0
C1143 C 0.84806 0.07766 0.55664 0.0
C1144 C 0.87493 0.08937 0.62355 0.0
C1145 C 0.8442 0.07548 0.51701 0.0
C1146 C 0.89924 0.12388 0.7503 0.0
C1147 C 0.89343 0.11563 0.719 0.0
C1148 C 0.86359 0.10036 0.6655 0.0
C1149 C 0.86064 0.08524 0.56597 0.0
C1150 C 0.86458 0.08936 0.6073 0.0
C1151 C 0.88044 0.10859 0.7169 0.0
C1152 C 0.87431 0.10091 0.68113 0.0
H1153 H 0.87234 0.09241 0.4722 0.0
H1154 H 0.8791 0.09605 0.54146 0.0
H1155 H 0.85083 0.09485 0.61698 0.0
H1156 H 0.87363 0.1191 0.80142 0.0
H1157 H 0.86343 0.10432 0.74755 0.0
C1158 C 0.86786 0.76637 0.74373 0.0
C1159 C 0.85489 0.76005 0.74626 0.0
C1160 C 0.87369 0.76787 0.707 0.0
C1161 C 0.86774 0.75363 0.6078 0.0
H1162 H 0.89773 0.78371 0.57808 0.0
C1163 C 0.88933 0.75868 0.45394 0.0
C1164 C 0.90215 0.76326 0.45314 0.0
C1165 C 0.88364 0.75965 0.48836 0.0
C1166 C 0.88939 0.77523 0.58612 0.0
H1167 H 0.83785 0.75073 0.71235 0.0
H1168 H 0.848 0.75347 0.64832 0.0
H1169 H 0.88761 0.7828 0.64128 0.0
H1170 H 0.91915 0.77292 0.48705 0.0
H1171 H 0.90918 0.7745 0.54749 0.0
H1172 H 0.86955 0.74598 0.55314 0.0
C1173 C 0.85368 0.75707 0.6747 0.0
C1174 C 0.88361 0.77471 0.62227 0.0
C1175 C 0.84786 0.75554 0.71135 0.0
C1176 C 0.90925 0.7693 0.48687 0.0
C1177 C 0.90355 0.77025 0.52139 0.0
C1178 C 0.87349 0.75416 0.57177 0.0
C1179 C 0.86665 0.76309 0.67216 0.0
C1180 C 0.87273 0.76388 0.63351 0.0
C1181 C 0.89064 0.76519 0.52276 0.0
C1182 C 0.88439 0.76495 0.56052 0.0
H1183 H 0.8735 0.76995 0.7702 0.0
H1184 H 0.8837 0.77245 0.70606 0.0
H1185 H 0.85951 0.74507 0.61593 0.0
H1186 H 0.88363 0.75406 0.42826 0.0
H1187 H 0.87371 0.75587 0.48826 0.0
C1188 C 0.86799 0.7564 0.95531 0.0
C1189 C 0.85957 0.76076 0.95441 0.0
C1190 C 0.87448 0.75725 0.99004 0.0
C1191 C 0.88385 0.77271 0.0879 0.0
H1192 H 0.88469 0.7431 0.11764 0.0
C1193 C 0.89762 0.76507 0.24506 0.0
C1194 C 0.90472 0.75922 0.24771 0.0
C1195 C 0.8929 0.76608 0.20845 0.0
C1196 C 0.88471 0.75151 0.10954 0.0
H1197 H 0.85164 0.76982 0.98866 0.0
H1198 H 0.86293 0.77124 0.04958 0.0
H1199 H 0.87528 0.74365 0.05495 0.0
H1200 H 0.91272 0.7501 0.21413 0.0
H1201 H 0.90463 0.75197 0.15019 0.0
H1202 H 0.89322 0.78053 0.1428 0.0
C1203 C 0.86458 0.76724 0.02332 0.0
C1204 C 0.87931 0.75183 0.07358 0.0
C1205 C 0.85807 0.76638 0.98852 0.0
C1206 C 0.9072 0.75458 0.21302 0.0
C1207 C 0.90251 0.75561 0.17644 0.0
C1208 C 0.88929 0.77241 0.12392 0.0
C1209 C 0.87269 0.76249 0.02463 0.0
C1210 C 0.87879 0.76241 0.06238 0.0
C1211 C 0.89522 0.76126 0.17377 0.0
C1212 C 0.88974 0.76179 0.13517 0.0
H1213 H 0.86939 0.75209 0.92939 0.0
H1214 H 0.88082 0.7537 0.98994 0.0
H1215 H 0.8837 0.78105 0.07987 0.0
H1216 H 0.89556 0.76873 0.27136 0.0
H1217 H 0.8872 0.77036 0.20748 0.0
C1218 C 0.22409 0.08223 0.97485 0.0
C1219 C 0.23256 0.09099 0.94798 0.0
C1220 C 0.22098 0.08608 0.00989 0.0
C1221 C 0.22263 0.11353 0.05908 0.0
H1222 H 0.22461 0.09796 0.15643 0.0
C1223 C 0.23453 0.13836 0.20929 0.0
C1224 C 0.22821 0.13171 0.24336 0.0
C1225 C 0.2327 0.13234 0.17289 0.0
C1226 C 0.2238 0.10226 0.12951 0.0
H1227 H 0.24409 0.11061 0.93594 0.0
H1228 H 0.23878 0.11732 0.99695 0.0
H1229 H 0.22533 0.08916 0.09238 0.0
H1230 H 0.21493 0.11358 0.26613 0.0
H1231 H 0.21181 0.10299 0.20221 0.0
H1232 H 0.22157 0.1269 0.09624 0.0
C1233 C 0.23441 0.10748 0.99095 0.0
C1234 C 0.22419 0.09722 0.0928 0.0
C1235 C 0.23753 0.10364 0.95609 0.0
C1236 C 0.21995 0.11892 0.24031 0.0
C1237 C 0.21818 0.11286 0.20383 0.0
C1238 C 0.22228 0.11859 0.09572 0.0
C1239 C 0.22624 0.09876 0.01854 0.0
C1240 C 0.22396 0.103 0.0572 0.0
C1241 C 0.22455 0.11953 0.16977 0.0
C1242 C 0.2232 0.1132 0.13128 0.0
H1243 H 0.22009 0.07241 0.96927 0.0
H1244 H 0.21457 0.07915 0.03042 0.0
H1245 H 0.22218 0.11806 0.03217 0.0
H1246 H 0.24095 0.14823 0.21073 0.0
H1247 H 0.23789 0.1377 0.14731 0.0
C1248 C 0.87383 0.09994 0.26938 0.0
C1249 C 0.86586 0.10364 0.28603 0.0
C1250 C 0.88035 0.10548 0.23449 0.0
C1251 C 0.87669 0.12018 0.14609 0.0
H1252 H 0.90985 0.12727 0.11937 0.0
C1253 C 0.91237 0.14391 0.00823 0.0
C1254 C 0.90417 0.13766 0.97677 0.0
C1255 C 0.909 0.13985 0.04742 0.0
C1256 C 0.9006 0.12537 0.12657 0.0
H1257 H 0.85917 0.11664 0.28111 0.0
H1258 H 0.87064 0.12637 0.22052 0.0
H1259 H 0.90213 0.1212 0.18751 0.0
H1260 H 0.88638 0.12189 0.96128 0.0
H1261 H 0.88053 0.11482 0.02947 0.0
H1262 H 0.87506 0.12426 0.08551 0.0
C1263 C 0.87167 0.11904 0.23393 0.0
C1264 C 0.89617 0.12185 0.1654 0.0
C1265 C 0.86515 0.1135 0.2687 0.0
C1266 C 0.89284 0.12695 0.98493 0.0
C1267 C 0.88947 0.12294 0.02397 0.0
C1268 C 0.88106 0.12358 0.10743 0.0
C1269 C 0.87901 0.1148 0.21574 0.0
C1270 C 0.88415 0.1192 0.17547 0.0
C1271 C 0.89736 0.12953 0.05568 0.0
C1272 C 0.893 0.12611 0.09714 0.0
H1273 H 0.87457 0.09237 0.2822 0.0
H1274 H 0.88589 0.10198 0.22107 0.0
H1275 H 0.86733 0.11802 0.15273 0.0
H1276 H 0.92118 0.15219 0.00275 0.0
H1277 H 0.91524 0.14512 0.07133 0.0
C1278 C 0.75639 0.90696 0.28659 0.0
C1279 C 0.7609 0.90578 0.24959 0.0
C1280 C 0.76022 0.90385 0.3215 0.0
C1281 C 0.77135 0.8838 0.35862 0.0
H1282 H 0.77749 0.90311 0.45495 0.0
C1283 C 0.77704 0.86562 0.51003 0.0
C1284 C 0.76976 0.86644 0.5404 0.0
C1285 C 0.77905 0.87228 0.47471 0.0
C1286 C 0.7758 0.89762 0.4283 0.0
H1287 H 0.77309 0.90061 0.22002 0.0
H1288 H 0.7797 0.89501 0.2813 0.0
H1289 H 0.77509 0.9113 0.39178 0.0
H1290 H 0.75934 0.87527 0.55849 0.0
H1291 H 0.76269 0.88672 0.49703 0.0
H1292 H 0.77149 0.86986 0.39527 0.0
C1293 C 0.7732 0.89835 0.28316 0.0
C1294 C 0.77444 0.90231 0.39218 0.0
C1295 C 0.76944 0.90157 0.24817 0.0
C1296 C 0.76499 0.87444 0.53558 0.0
C1297 C 0.76699 0.88109 0.50041 0.0
C1298 C 0.77265 0.87907 0.3948 0.0
C1299 C 0.76859 0.89942 0.32015 0.0
C1300 C 0.77185 0.89529 0.35719 0.0
C1301 C 0.77383 0.8799 0.46923 0.0
C1302 C 0.77453 0.88577 0.43022 0.0
H1303 H 0.74981 0.91021 0.28859 0.0
H1304 H 0.75636 0.9046 0.34952 0.0
H1305 H 0.76927 0.87814 0.33217 0.0
H1306 H 0.78087 0.85955 0.51304 0.0
H1307 H 0.78447 0.87129 0.4514 0.0
C1308 C 0.0984 0.88466 0.22575 0.0
C1309 C 0.10356 0.87837 0.20609 0.0
C1310 C 0.10406 0.89168 0.25979 0.0
C1311 C 0.13267 0.90403 0.32244 0.0
H1312 H 0.10981 0.89839 0.40872 0.0
C1313 C 0.14362 0.90207 0.48655 0.0
C1314 C 0.14115 0.90907 0.51385 0.0
C1315 C 0.13989 0.90114 0.44705 0.0
C1316 C 0.1163 0.90023 0.38474 0.0
H1317 H 0.11897 0.87496 0.20535 0.0
H1318 H 0.12859 0.88678 0.26507 0.0
H1319 H 0.10189 0.89197 0.34151 0.0
H1320 H 0.13279 0.92055 0.5215 0.0
H1321 H 0.12577 0.91849 0.45214 0.0
H1322 H 0.14696 0.91147 0.36662 0.0
C1323 C 0.12036 0.88661 0.25404 0.0
C1324 C 0.11179 0.89661 0.34612 0.0
C1325 C 0.1148 0.87974 0.21981 0.0
C1326 C 0.1348 0.9151 0.50097 0.0
C1327 C 0.13081 0.91393 0.46147 0.0
C1328 C 0.13713 0.90745 0.36114 0.0
C1329 C 0.1149 0.89242 0.2751 0.0
C1330 C 0.11989 0.89813 0.31464 0.0
C1331 C 0.1334 0.907 0.4342 0.0
C1332 C 0.12895 0.90528 0.39272 0.0
H1333 H 0.08978 0.88384 0.21562 0.0
H1334 H 0.09972 0.89622 0.27471 0.0
H1335 H 0.13922 0.90564 0.29887 0.0
H1336 H 0.14856 0.89739 0.49561 0.0
H1337 H 0.14186 0.89562 0.42667 0.0
C1338 C 0.10629 0.24395 0.53637 0.0
C1339 C 0.09335 0.23817 0.53904 0.0
C1340 C 0.11192 0.24339 0.50119 0.0
C1341 C 0.10622 0.2268 0.40535 0.0
H1342 H 0.13472 0.25755 0.37121 0.0
C1343 C 0.12756 0.23397 0.24774 0.0
C1344 C 0.14054 0.24048 0.24542 0.0
C1345 C 0.12163 0.23313 0.28385 0.0
C1346 C 0.12686 0.24885 0.38051 0.0
H1347 H 0.07612 0.22695 0.50746 0.0
H1348 H 0.08597 0.22608 0.44572 0.0
H1349 H 0.12474 0.25682 0.43405 0.0
H1350 H 0.15749 0.25105 0.27906 0.0
H1351 H 0.14717 0.24951 0.34198 0.0
H1352 H 0.10834 0.21889 0.35143 0.0
C1353 C 0.09176 0.23094 0.47096 0.0
C1354 C 0.12115 0.24842 0.41658 0.0
C1355 C 0.08612 0.23148 0.50625 0.0
C1356 C 0.14747 0.24603 0.27988 0.0
C1357 C 0.14156 0.2452 0.31588 0.0
C1358 C 0.11194 0.22723 0.36915 0.0
C1359 C 0.10473 0.23708 0.46783 0.0
C1360 C 0.11079 0.23739 0.42952 0.0
C1361 C 0.12857 0.2388 0.31826 0.0
C1362 C 0.12236 0.23826 0.35643 0.0
H1363 H 0.1121 0.24911 0.56126 0.0
H1364 H 0.12192 0.24802 0.5 0.0
H1365 H 0.09832 0.21813 0.41465 0.0
H1366 H 0.12199 0.2296 0.22162 0.0
H1367 H 0.11161 0.22823 0.28466 0.0
C1368 C 0.80938 0.56289 0.3404 0.0
C1369 C 0.80716 0.5682 0.37396 0.0
C1370 C 0.80338 0.56206 0.30447 0.0
C1371 C 0.78545 0.55699 0.23569 0.0
H1372 H 0.78414 0.58643 0.20711 0.0
C1373 C 0.75984 0.56018 0.09635 0.0
C1374 C 0.76567 0.57137 0.0751 0.0
C1375 C 0.76472 0.55908 0.13251 0.0
C1376 C 0.78451 0.57818 0.21451 0.0
H1377 H 0.79647 0.5762 0.39696 0.0
H1378 H 0.78589 0.5746 0.33451 0.0
H1379 H 0.79251 0.58539 0.27132 0.0
H1380 H 0.78134 0.59006 0.07434 0.0
H1381 H 0.78992 0.58811 0.13721 0.0
H1382 H 0.77767 0.54991 0.17829 0.0
C1383 C 0.79244 0.5713 0.33566 0.0
C1384 C 0.78915 0.57751 0.25155 0.0
C1385 C 0.79844 0.57215 0.37148 0.0
C1386 C 0.77661 0.58135 0.09018 0.0
C1387 C 0.78148 0.58025 0.12629 0.0
C1388 C 0.78077 0.55765 0.19857 0.0
C1389 C 0.79505 0.56652 0.30152 0.0
C1390 C 0.7897 0.56692 0.26255 0.0
C1391 C 0.77551 0.56916 0.14809 0.0
C1392 C 0.78033 0.56829 0.18752 0.0
H1393 H 0.81607 0.55977 0.34149 0.0
H1394 H 0.80565 0.5584 0.27864 0.0
H1395 H 0.78569 0.54868 0.24344 0.0
H1396 H 0.75138 0.55234 0.08541 0.0
H1397 H 0.75986 0.55045 0.14877 0.0
C1398 C 0.42485 0.18648 0.11531 0.0
C1399 C 0.42812 0.19269 0.07867 0.0
C1400 C 0.42619 0.19297 0.15044 0.0
C1401 C 0.42706 0.22084 0.18809 0.0
H1402 H 0.43857 0.2129 0.28473 0.0
C1403 C 0.42789 0.24347 0.33879 0.0
C1404 C 0.423 0.23519 0.37087 0.0
C1405 C 0.43054 0.23966 0.30283 0.0
C1406 C 0.4353 0.21518 0.25801 0.0
H1407 H 0.43551 0.21057 0.04995 0.0
H1408 H 0.4378 0.22195 0.11158 0.0
H1409 H 0.43951 0.20365 0.22185 0.0
H1410 H 0.4173 0.21657 0.39089 0.0
H1411 H 0.42177 0.2099 0.3282 0.0
H1412 H 0.42248 0.23206 0.22438 0.0
C1413 C 0.43417 0.21205 0.11301 0.0
C1414 C 0.43585 0.2099 0.22205 0.0
C1415 C 0.43289 0.20555 0.07782 0.0
C1416 C 0.42107 0.22316 0.36667 0.0
C1417 C 0.42373 0.21936 0.33083 0.0
C1418 C 0.42647 0.2261 0.2241 0.0
C1419 C 0.43078 0.2058 0.14964 0.0
C1420 C 0.43149 0.21247 0.18688 0.0
C1421 C 0.42838 0.22753 0.29837 0.0
C1422 C 0.43034 0.22311 0.25959 0.0
H1423 H 0.42115 0.17657 0.11685 0.0
H1424 H 0.42334 0.18788 0.17815 0.0
H1425 H 0.42353 0.2229 0.16151 0.0
H1426 H 0.4295 0.25282 0.34127 0.0
H1427 H 0.43424 0.2462 0.27846 0.0
C1428 C 0.79711 0.21819 0.05388 0.0
C1429 C 0.79843 0.22907 0.03698 0.0
C1430 C 0.78951 0.21287 0.08693 0.0
C1431 C 0.77729 0.22163 0.1721 0.0
H1432 H 0.75944 0.18622 0.19098 0.0
C1433 C 0.74794 0.18367 0.30389 0.0
C1434 C 0.75624 0.1895 0.33542 0.0
C1435 C 0.75085 0.18868 0.2656 0.0
C1436 C 0.76419 0.19612 0.18599 0.0
H1437 H 0.79241 0.24263 0.04016 0.0
H1438 H 0.77902 0.23326 0.09777 0.0
H1439 H 0.76809 0.19409 0.12539 0.0
H1440 H 0.77385 0.20533 0.35207 0.0
H1441 H 0.77898 0.21398 0.28542 0.0
H1442 H 0.77351 0.22366 0.2328 0.0
C1443 C 0.784 0.22894 0.08582 0.0
C1444 C 0.76927 0.20063 0.14854 0.0
C1445 C 0.79162 0.23427 0.05276 0.0
C1446 C 0.76727 0.20064 0.32833 0.0
C1447 C 0.77017 0.20564 0.29016 0.0
C1448 C 0.7722 0.21711 0.20951 0.0
C1449 C 0.78304 0.21832 0.10372 0.0
C1450 C 0.77616 0.21345 0.1415 0.0
C1451 C 0.76209 0.19962 0.25824 0.0
C1452 C 0.76589 0.20433 0.21718 0.0
H1453 H 0.80224 0.21398 0.04232 0.0
H1454 H 0.78912 0.20479 0.1003 0.0
H1455 H 0.78261 0.23155 0.16778 0.0
H1456 H 0.73934 0.17509 0.30858 0.0
H1457 H 0.74439 0.1839 0.24167 0.0
C1458 C 0.90774 0.46373 0.80428 0.0
C1459 C 0.90401 0.47256 0.79941 0.0
C1460 C 0.9056 0.45732 0.84003 0.0
C1461 C 0.9007 0.45993 0.94626 0.0
H1462 H 0.89212 0.42545 0.94776 0.0
C1463 C 0.89511 0.43311 0.09244 0.0
C1464 C 0.90109 0.4261 0.09298 0.0
C1465 C 0.89385 0.43816 0.05684 0.0
C1466 C 0.89456 0.43509 0.94779 0.0
H1467 H 0.89486 0.48143 0.82777 0.0
H1468 H 0.89103 0.47014 0.89041 0.0
H1469 H 0.89256 0.43529 0.8847 0.0
H1470 H 0.91033 0.41876 0.05679 0.0
H1471 H 0.90819 0.4276 0.99481 0.0
H1472 H 0.90291 0.45977 0.00933 0.0
C1473 C 0.89573 0.46828 0.86664 0.0
C1474 C 0.89481 0.44073 0.91171 0.0
C1475 C 0.89786 0.47469 0.83076 0.0
C1476 C 0.90566 0.42412 0.05728 0.0
C1477 C 0.90436 0.4291 0.02173 0.0
C1478 C 0.90042 0.45428 0.9824 0.0
C1479 C 0.89966 0.45959 0.87175 0.0
C1480 C 0.89813 0.45328 0.91044 0.0
C1481 C 0.89848 0.43621 0.02112 0.0
C1482 C 0.89759 0.44187 0.98342 0.0
H1483 H 0.91252 0.46191 0.78066 0.0
H1484 H 0.90891 0.45083 0.84319 0.0
H1485 H 0.90342 0.46965 0.94624 0.0
H1486 H 0.89147 0.43476 0.11956 0.0
H1487 H 0.8892 0.44353 0.0572 0.0
C1488 C 0.55877 0.46008 0.08035 0.0
C1489 C 0.56494 0.47308 0.08162 0.0
C1490 C 0.55373 0.4538 0.04471 0.0
C1491 C 0.55592 0.45812 0.93604 0.0
H1492 H 0.52235 0.43035 0.93518 0.0
C1493 C 0.52733 0.44062 0.79285 0.0
C1494 C 0.51928 0.42785 0.78806 0.0
C1495 C 0.53362 0.4453 0.82859 0.0
C1496 C 0.53181 0.43795 0.93498 0.0
H1497 H 0.57072 0.48969 0.04673 0.0
H1498 H 0.56189 0.47875 0.98461 0.0
H1499 H 0.53198 0.44011 -0.00183 0.0
H1500 H 0.51167 0.40993 0.81658 0.0
H1501 H 0.52278 0.41812 0.87918 0.0
H1502 H 0.55573 0.45608 0.87289 0.0
C1503 C 0.56105 0.47341 0.01101 0.0
C1504 C 0.53731 0.44354 0.97106 0.0
C1505 C 0.56602 0.47968 0.04663 0.0
C1506 C 0.5178 0.41982 0.81951 0.0
C1507 C 0.52411 0.42452 0.85537 0.0
C1508 C 0.55044 0.4525 0.90002 0.0
C1509 C 0.55483 0.46041 0.00967 0.0
C1510 C 0.54934 0.45383 0.97186 0.0
C1511 C 0.53202 0.43733 0.86039 0.0
C1512 C 0.53824 0.4425 0.89899 0.0
H1513 H 0.55783 0.45476 0.1069 0.0
H1514 H 0.54906 0.44378 0.04448 0.0
H1515 H 0.56529 0.46589 0.93583 0.0
H1516 H 0.52864 0.44705 0.76916 0.0
H1517 H 0.53948 0.45523 0.83164 0.0
C1518 C 0.57948 0.09848 0.82546 0.0
C1519 C 0.57205 0.094 0.79131 0.0
C1520 C 0.57433 0.09914 0.86167 0.0
C1521 C 0.54446 0.08456 0.91334 0.0
H1522 H 0.56113 0.11155 0.98843 0.0
C1523 C 0.52716 0.08071 0.07359 0.0
C1524 C 0.52658 0.09091 0.08859 0.0
C1525 C 0.53333 0.08167 0.038 0.0
C1526 C 0.55635 0.10398 0.96764 0.0
H1527 H 0.55358 0.08721 0.76775 0.0
H1528 H 0.54465 0.08847 0.83074 0.0
H1529 H 0.57061 0.11269 0.92374 0.0
H1530 H 0.53221 0.1102 0.07871 0.0
H1531 H 0.54293 0.11186 0.01625 0.0
H1532 H 0.53014 0.0759 0.95678 0.0
C1533 C 0.55438 0.09127 0.82977 0.0
C1534 C 0.56182 0.10459 0.9308 0.0
C1535 C 0.55952 0.09062 0.79366 0.0
C1536 C 0.53252 0.10218 0.06782 0.0
C1537 C 0.53871 0.10316 0.03219 0.0
C1538 C 0.53903 0.08394 0.95011 0.0
C1539 C 0.56167 0.0953 0.86432 0.0
C1540 C 0.55591 0.09488 0.90326 0.0
C1541 C 0.53903 0.09286 0.01667 0.0
C1542 C 0.54492 0.09362 0.9777 0.0
H1543 H 0.58918 0.10115 0.82448 0.0
H1544 H 0.58016 0.10221 0.88786 0.0
H1545 H 0.53975 0.07685 0.89297 0.0
H1546 H 0.52272 0.07192 0.08908 0.0
H1547 H 0.53359 0.07364 0.02709 0.0
C1548 C 0.53903 0.09475 0.28693 0.0
C1549 C 0.52909 0.09702 0.28759 0.0
C1550 C 0.54571 0.09594 0.3215 0.0
C1551 C 0.55251 0.10878 0.42307 0.0
H1552 H 0.5566 0.0805 0.44476 0.0
C1553 C 0.56625 0.09916 0.57773 0.0
C1554 C 0.57386 0.09385 0.57895 0.0
C1555 C 0.56179 0.10077 0.54142 0.0
C1556 C 0.55575 0.08858 0.43895 0.0
H1557 H 0.51871 0.10292 0.32436 0.0
H1558 H 0.5304 0.10499 0.38501 0.0
H1559 H 0.54736 0.08155 0.38243 0.0
H1560 H 0.58321 0.08653 0.54326 0.0
H1561 H 0.57571 0.08961 0.47992 0.0
H1562 H 0.5609 0.11579 0.47981 0.0
C1563 C 0.53304 0.10232 0.35768 0.0
C1564 C 0.55043 0.08917 0.4032 0.0
C1565 C 0.52632 0.10109 0.32304 0.0
C1566 C 0.57724 0.09052 0.54322 0.0
C1567 C 0.57289 0.09223 0.50696 0.0
C1568 C 0.55793 0.10824 0.45886 0.0
C1569 C 0.54259 0.09945 0.35743 0.0
C1570 C 0.54871 0.09924 0.39491 0.0
C1571 C 0.56495 0.09719 0.50564 0.0
C1572 C 0.55957 0.09809 0.46724 0.0
H1573 H 0.54144 0.09168 0.25997 0.0
H1574 H 0.55316 0.09387 0.32031 0.0
H1575 H 0.55136 0.11669 0.4173 0.0
H1576 H 0.5635 0.1018 0.60488 0.0
H1577 H 0.55559 0.10449 0.54155 0.0
C1578 C 0.88963 0.41596 0.33107 0.0
C1579 C 0.89604 0.42399 0.29945 0.0
C1580 C 0.88817 0.42066 0.36713 0.0
C1581 C 0.89063 0.44878 0.41396 0.0
H1582 H 0.89959 0.43721 0.50842 0.0
C1583 C 0.90858 0.47802 0.55554 0.0
C1584 C 0.90456 0.47213 0.59251 0.0
C1585 C 0.90544 0.47109 0.52058 0.0
C1586 C 0.89685 0.4404 0.48246 0.0
H1587 H 0.90549 0.44314 0.2801 0.0
H1588 H 0.90303 0.45133 0.34286 0.0
H1589 H 0.89734 0.42676 0.44512 0.0
H1590 H 0.89407 0.45438 0.62202 0.0
H1591 H 0.88863 0.44222 0.56066 0.0
H1592 H 0.89056 0.46267 0.45109 0.0
C1593 C 0.89903 0.44141 0.33988 0.0
C1594 C 0.89554 0.4344 0.44619 0.0
C1595 C 0.90051 0.43672 0.30397 0.0
C1596 C 0.89732 0.45916 0.59388 0.0
C1597 C 0.89423 0.4522 0.55884 0.0
C1598 C 0.89198 0.45479 0.45016 0.0
C1599 C 0.89303 0.43347 0.37211 0.0
C1600 C 0.89272 0.43872 0.41137 0.0
C1601 C 0.89825 0.45811 0.52184 0.0
C1602 C 0.8954 0.45085 0.48458 0.0
H1603 H 0.88606 0.40609 0.32835 0.0
H1604 H 0.88339 0.4143 0.39131 0.0
H1605 H 0.88822 0.45218 0.38778 0.0
H1606 H 0.91417 0.488 0.55356 0.0
H1607 H 0.90884 0.4759 0.49256 0.0
C1608 C 0.51298 0.42663 0.5427 0.0
C1609 C 0.51903 0.4275 0.57874 0.0
C1610 C 0.51968 0.43061 0.50732 0.0
C1611 C 0.55057 0.45185 0.46867 0.0
H1612 H 0.5373 0.43312 0.37135 0.0
C1613 C 0.57485 0.47002 0.31745 0.0
C1614 C 0.56695 0.4693 0.28653 0.0
C1615 C 0.56995 0.46356 0.35296 0.0
C1616 C 0.54111 0.43847 0.39826 0.0
H1617 H 0.53681 0.43315 0.60612 0.0
H1618 H 0.54855 0.44021 0.54411 0.0
H1619 H 0.52686 0.42448 0.43438 0.0
H1620 H 0.5478 0.46095 0.26787 0.0
H1621 H 0.53927 0.44983 0.32967 0.0
H1622 H 0.56458 0.46602 0.43245 0.0
C1623 C 0.53863 0.43647 0.54333 0.0
C1624 C 0.53514 0.43353 0.43431 0.0
C1625 C 0.53191 0.4324 0.57874 0.0
C1626 C 0.55412 0.46169 0.29118 0.0
C1627 C 0.54924 0.45524 0.32654 0.0
C1628 C 0.55652 0.45682 0.43256 0.0
C1629 C 0.53257 0.43561 0.50726 0.0
C1630 C 0.53965 0.44028 0.46975 0.0
C1631 C 0.55707 0.45624 0.35808 0.0
C1632 C 0.5517 0.4503 0.39684 0.0
H1633 H 0.50306 0.42289 0.5418 0.0
H1634 H 0.51478 0.43001 0.48008 0.0
H1635 H 0.5542 0.45731 0.49547 0.0
H1636 H 0.58479 0.4758 0.31461 0.0
H1637 H 0.57623 0.46442 0.37657 0.0
C1638 C 0.42957 0.22857 0.57915 0.0
C1639 C 0.42155 0.23342 0.57989 0.0
C1640 C 0.4328 0.22496 0.61441 0.0
C1641 C 0.4338 0.22916 0.72322 0.0
H1642 H 0.4309 0.19674 0.72731 0.0
C1643 C 0.4261 0.20233 0.8684 0.0
C1644 C 0.43135 0.19474 0.87309 0.0
C1645 C 0.42738 0.20851 0.83267 0.0
C1646 C 0.43201 0.20593 0.72653 0.0
H1647 H 0.4107 0.23841 0.61796 0.0
H1648 H 0.41627 0.23206 0.67941 0.0
H1649 H 0.42839 0.20475 0.66402 0.0
H1650 H 0.44249 0.18805 0.8447 0.0
H1651 H 0.4448 0.19895 0.78203 0.0
H1652 H 0.43715 0.23023 0.78585 0.0
C1653 C 0.42017 0.23116 0.6517 0.0
C1654 C 0.43055 0.2105 0.69028 0.0
C1655 C 0.4169 0.23469 0.61648 0.0
C1656 C 0.4383 0.1938 0.84182 0.0
C1657 C 0.43957 0.19999 0.80593 0.0
C1658 C 0.43531 0.22461 0.75942 0.0
C1659 C 0.42813 0.22623 0.65104 0.0
C1660 C 0.43112 0.22202 0.68846 0.0
C1661 C 0.43395 0.20725 0.80079 0.0
C1662 C 0.43411 0.21281 0.76166 0.0
H1663 H 0.43333 0.22752 0.55132 0.0
H1664 H 0.439 0.22125 0.61307 0.0
H1665 H 0.43453 0.23818 0.72254 0.0
H1666 H 0.42069 0.20323 0.892 0.0
H1667 H 0.42278 0.21388 0.82953 0.0
C1668 C 0.78099 0.20083 0.54683 0.0
C1669 C 0.76939 0.1988 0.53425 0.0
C1670 C 0.78634 0.20746 0.58159 0.0
C1671 C 0.78538 0.22849 0.65669 0.0
H1672 H 0.79525 0.21066 0.72859 0.0
C1673 C 0.79699 0.2266 0.83275 0.0
C1674 C 0.80652 0.23879 0.83963 0.0
C1675 C 0.79224 0.2228 0.7946 0.0
C1676 C 0.79249 0.21572 0.70889 0.0
H1677 H 0.75465 0.20274 0.54665 0.0
H1678 H 0.76405 0.21437 0.60756 0.0
H1679 H 0.78824 0.2027 0.66186 0.0
H1680 H 0.8181 0.25675 0.81253 0.0
H1681 H 0.8097 0.25007 0.74553 0.0
H1682 H 0.78958 0.24147 0.7043 0.0
C1683 C 0.76899 0.21084 0.59048 0.0
C1684 C 0.78862 0.21125 0.67055 0.0
C1685 C 0.76359 0.20414 0.55575 0.0
C1686 C 0.81078 0.24729 0.80801 0.0
C1687 C 0.80595 0.24349 0.76976 0.0
C1688 C 0.78939 0.23305 0.6951 0.0
C1689 C 0.78023 0.21223 0.60433 0.0
C1690 C 0.78497 0.21754 0.64412 0.0
C1691 C 0.79688 0.23112 0.7626 0.0
C1692 C 0.79284 0.22661 0.72164 0.0
H1693 H 0.78571 0.19688 0.53071 0.0
H1694 H 0.79511 0.20855 0.59136 0.0
H1695 H 0.78262 0.23351 0.63682 0.0
H1696 H 0.79347 0.21986 0.85659 0.0
H1697 H 0.78511 0.21325 0.78994 0.0
C1698 C 0.75594 0.56161 0.83942 0.0
C1699 C 0.76274 0.56543 0.87497 0.0
C1700 C 0.76139 0.56045 0.80461 0.0
C1701 C 0.79199 0.57346 0.75943 0.0
H1702 H 0.77542 0.54771 0.68027 0.0
C1703 C 0.81716 0.57263 0.61794 0.0
C1704 C 0.81052 0.56988 0.58213 0.0
C1705 C 0.81109 0.57076 0.65427 0.0
C1706 C 0.78012 0.55502 0.70197 0.0
H1707 H 0.78031 0.57034 0.90261 0.0
H1708 H 0.7898 0.56825 0.84195 0.0
H1709 H 0.76505 0.54643 0.74329 0.0
H1710 H 0.79233 0.56279 0.55611 0.0
H1711 H 0.78172 0.5598 0.61966 0.0
H1712 H 0.80689 0.58226 0.71814 0.0
C1713 C 0.78032 0.56633 0.84081 0.0
C1714 C 0.7742 0.55426 0.73804 0.0
C1715 C 0.77487 0.56747 0.87556 0.0
C1716 C 0.79766 0.565 0.58332 0.0
C1717 C 0.79158 0.5632 0.61972 0.0
C1718 C 0.79786 0.57425 0.72342 0.0
C1719 C 0.77375 0.56312 0.80478 0.0
C1720 C 0.78009 0.56349 0.7671 0.0
C1721 C 0.79826 0.56619 0.6556 0.0
C1722 C 0.79201 0.56506 0.69421 0.0
H1723 H 0.74656 0.55996 0.83813 0.0
H1724 H 0.75613 0.55802 0.77722 0.0
H1725 H 0.79665 0.58085 0.78089 0.0
H1726 H 0.82707 0.57628 0.61794 0.0
H1727 H 0.81647 0.57293 0.68135 0.0
C1728 C 0.43218 0.89779 0.41021 0.0
C1729 C 0.42429 0.90279 0.40901 0.0
C1730 C 0.4369 0.89651 0.44647 0.0
C1731 C 0.44328 0.90935 0.54794 0.0
H1732 H 0.44753 0.8813 0.57227 0.0
C1733 C 0.45966 0.90385 0.70149 0.0
C1734 C 0.46931 0.90115 0.70192 0.0
C1735 C 0.45321 0.90273 0.66645 0.0
C1736 C 0.44645 0.88921 0.56573 0.0
H1737 H 0.41478 0.90993 0.44471 0.0
H1738 H 0.4228 0.9075 0.50789 0.0
H1739 H 0.43798 0.88183 0.50932 0.0
H1740 H 0.47948 0.89467 0.66656 0.0
H1741 H 0.46822 0.89277 0.60506 0.0
H1742 H 0.45176 0.91677 0.60406 0.0
C1743 C 0.42559 0.90483 0.48087 0.0
C1744 C 0.44101 0.88953 0.52971 0.0
C1745 C 0.42094 0.90617 0.4447 0.0
C1746 C 0.47208 0.89683 0.66703 0.0
C1747 C 0.4656 0.89569 0.63191 0.0
C1748 C 0.44865 0.90901 0.58388 0.0
C1749 C 0.43378 0.90017 0.48215 0.0
C1750 C 0.43937 0.89962 0.52045 0.0
C1751 C 0.45628 0.89888 0.63111 0.0
C1752 C 0.45029 0.89895 0.59319 0.0
H1753 H 0.43491 0.89511 0.38308 0.0
H1754 H 0.44327 0.893 0.44641 0.0
H1755 H 0.44242 0.91739 0.54138 0.0
H1756 H 0.45726 0.90712 0.72802 0.0
H1757 H 0.44593 0.90506 0.66685 0.0
C1758 C 0.10061 0.56326 0.70503 0.0
C1759 C 0.10343 0.57564 0.70746 0.0
C1760 C 0.10143 0.55829 0.66877 0.0
C1761 C 0.09313 0.54839 0.58615 0.0
H1762 H 0.11807 0.565 0.50466 0.0
C1763 C 0.08388 0.53165 0.42536 0.0
C1764 C 0.09306 0.5301 0.40658 0.0
C1765 C 0.0864 0.53818 0.461 0.0
C1766 C 0.11108 0.56025 0.52726 0.0
H1767 H 0.11012 0.59276 0.67458 0.0
H1768 H 0.11141 0.58402 0.61097 0.0
H1769 H 0.12111 0.57435 0.57083 0.0
H1770 H 0.11224 0.53465 0.40928 0.0
H1771 H 0.11665 0.54608 0.47193 0.0
H1772 H 0.0831 0.53432 0.543 0.0
C1773 C 0.10865 0.57819 0.63714 0.0
C1774 C 0.11278 0.56562 0.56498 0.0
C1775 C 0.10786 0.58318 0.67352 0.0
C1776 C 0.10499 0.53569 0.42318 0.0
C1777 C 0.10752 0.54226 0.45892 0.0
C1778 C 0.09141 0.54309 0.54859 0.0
C1779 C 0.10503 0.56558 0.63417 0.0
C1780 C 0.10379 0.55974 0.59476 0.0
C1781 C 0.09815 0.54329 0.47865 0.0
C1782 C 0.1003 0.549 0.51862 0.0
H1783 H 0.0973 0.55726 0.7308 0.0
H1784 H 0.09883 0.54861 0.66754 0.0
H1785 H 0.08594 0.54372 0.60822 0.0
H1786 H 0.07463 0.52753 0.41311 0.0
H1787 H 0.07906 0.53903 0.47519 0.0
C1788 C 0.42226 0.53254 0.6945 0.0
C1789 C 0.42968 0.52937 0.71747 0.0
C1790 C 0.42662 0.53871 0.65817 0.0
C1791 C 0.45555 0.55639 0.59925 0.0
H1792 H 0.43379 0.54404 0.50767 0.0
C1793 C 0.47328 0.55904 0.44179 0.0
C1794 C 0.47056 0.56585 0.41441 0.0
C1795 C 0.46719 0.55558 0.47824 0.0
C1796 C 0.43988 0.54768 0.53314 0.0
H1797 H 0.4475 0.53035 0.72089 0.0
H1798 H 0.45497 0.54082 0.65778 0.0
H1799 H 0.4254 0.53673 0.57438 0.0
H1800 H 0.45893 0.57384 0.40281 0.0
H1801 H 0.44794 0.56738 0.46676 0.0
H1802 H 0.47015 0.56674 0.55774 0.0
C1803 C 0.4459 0.53882 0.66783 0.0
C1804 C 0.43511 0.54356 0.5713 0.0
C1805 C 0.44158 0.53271 0.70396 0.0
C1806 C 0.4612 0.56861 0.42343 0.0
C1807 C 0.45493 0.56493 0.45984 0.0
C1808 C 0.46033 0.56035 0.56122 0.0
C1809 C 0.43846 0.54182 0.6443 0.0
C1810 C 0.44298 0.54759 0.60466 0.0
C1811 C 0.45814 0.55867 0.48782 0.0
C1812 C 0.4526 0.55578 0.52786 0.0
H1813 H 0.41304 0.53007 0.70425 0.0
H1814 H 0.4207 0.54097 0.64089 0.0
H1815 H 0.46181 0.55994 0.62434 0.0
H1816 H 0.48045 0.55678 0.43573 0.0
H1817 H 0.46971 0.55065 0.49935 0.0
C1818 C 0.55251 0.80877 0.16795 0.0
C1819 C 0.55481 0.80247 0.13748 0.0
C1820 C 0.55045 0.80424 0.20686 0.0
C1821 C 0.5451 0.77719 0.26891 0.0
H1822 H 0.56635 0.80256 0.34403 0.0
C1823 C 0.57653 0.78126 0.41047 0.0
C1824 C 0.56839 0.77058 0.43181 0.0
C1825 C 0.57215 0.78551 0.37965 0.0
C1826 C 0.56031 0.79537 0.3235 0.0
H1827 H 0.55591 0.78611 0.12315 0.0
H1828 H 0.55255 0.77833 0.19088 0.0
H1829 H 0.5628 0.80854 0.2787 0.0
H1830 H 0.5492 0.7563 0.43904 0.0
H1831 H 0.54151 0.76378 0.38511 0.0
H1832 H 0.54333 0.76401 0.3128 0.0
C1833 C 0.55217 0.78667 0.18492 0.0
C1834 C 0.55814 0.79879 0.28618 0.0
C1835 C 0.5542 0.79117 0.14606 0.0
C1836 C 0.55569 0.76453 0.42292 0.0
C1837 C 0.5513 0.76878 0.39198 0.0
C1838 C 0.54731 0.77376 0.30622 0.0
C1839 C 0.55067 0.79335 0.21599 0.0
C1840 C 0.55088 0.78973 0.25792 0.0
C1841 C 0.55953 0.77918 0.3695 0.0
C1842 C 0.55531 0.78282 0.33335 0.0
H1843 H 0.55283 0.81746 0.16209 0.0
H1844 H 0.54913 0.8095 0.23002 0.0
H1845 H 0.5393 0.76999 0.24804 0.0
H1846 H 0.58637 0.78612 0.41668 0.0
H1847 H 0.57878 0.79343 0.3626 0.0
C1848 C 0.23609 0.81119 0.40266 0.0
C1849 C 0.23316 0.80541 0.44002 0.0
C1850 C 0.23095 0.80427 0.36821 0.0
C1851 C 0.2038 0.77665 0.33254 0.0
H1852 H 0.22367 0.78158 0.23834 0.0
C1853 C 0.18146 0.75296 0.18391 0.0
C1854 C 0.18592 0.76064 0.15033 0.0
C1855 C 0.18785 0.75673 0.22001 0.0
C1856 C 0.21798 0.78014 0.26432 0.0
H1857 H 0.22265 0.78789 0.47081 0.0
H1858 H 0.21346 0.7758 0.41038 0.0
H1859 H 0.23374 0.79163 0.30054 0.0
H1860 H 0.20066 0.77813 0.12779 0.0
H1861 H 0.21157 0.78484 0.19063 0.0
H1862 H 0.18799 0.76567 0.29614 0.0
C1863 C 0.21979 0.78567 0.40788 0.0
C1864 C 0.22376 0.78586 0.29989 0.0
C1865 C 0.22506 0.79257 0.44234 0.0
C1866 C 0.19701 0.77199 0.15317 0.0
C1867 C 0.20333 0.77579 0.18918 0.0
C1868 C 0.198 0.77103 0.29685 0.0
C1869 C 0.22268 0.79147 0.37054 0.0
C1870 C 0.2167 0.78436 0.33409 0.0
C1871 C 0.19876 0.76829 0.22318 0.0
C1872 C 0.205 0.77293 0.2621 0.0
H1873 H 0.24233 0.82107 0.40004 0.0
H1874 H 0.23322 0.80898 0.33978 0.0
H1875 H 0.19815 0.77542 0.35847 0.0
H1876 H 0.17296 0.74412 0.18245 0.0
H1877 H 0.18417 0.75066 0.2455 0.0
C1878 C 0.23825 0.4351 0.14837 0.0
C1879 C 0.23206 0.42364 0.12862 0.0
C1880 C 0.23487 0.43627 0.18715 0.0
C1881 C 0.22075 0.41783 0.27629 0.0
H1882 H 0.21228 0.44274 0.30563 0.0
C1883 C 0.19049 0.41215 0.41103 0.0
C1884 C 0.1924 0.4226 0.43256 0.0
C1885 C 0.19741 0.41345 0.377 0.0
C1886 C 0.21487 0.43589 0.29823 0.0
H1887 H 0.21738 0.40451 0.13359 0.0
H1888 H 0.21161 0.40654 0.20113 0.0
H1889 H 0.22037 0.44307 0.23916 0.0
H1890 H 0.2034 0.4426 0.43634 0.0
H1891 H 0.21569 0.44489 0.37693 0.0
H1892 H 0.21522 0.41056 0.33492 0.0
C1893 C 0.21908 0.41459 0.18677 0.0
C1894 C 0.21945 0.43606 0.26013 0.0
C1895 C 0.22232 0.41346 0.148 0.0
C1896 C 0.20171 0.43438 0.42023 0.0
C1897 C 0.20869 0.43569 0.38609 0.0
C1898 C 0.21631 0.41773 0.3144 0.0
C1899 C 0.22541 0.42595 0.20689 0.0
C1900 C 0.22208 0.42681 0.24851 0.0
C1901 C 0.20647 0.42524 0.36375 0.0
C1902 C 0.21295 0.42652 0.32545 0.0
H1903 H 0.2458 0.44309 0.1341 0.0
H1904 H 0.23987 0.44513 0.20209 0.0
H1905 H 0.22294 0.41073 0.26824 0.0
H1906 H 0.18336 0.40294 0.41972 0.0
H1907 H 0.1953 0.40521 0.36024 0.0
C1908 C 0.21789 0.41215 0.90553 0.0
C1909 C 0.22516 0.42229 0.93034 0.0
C1910 C 0.2136 0.41387 0.86923 0.0
C1911 C 0.20582 0.4333 0.81059 0.0
H1912 H 0.21485 0.4197 0.72143 0.0
C1913 C 0.19164 0.43599 0.6477 0.0
C1914 C 0.18741 0.42506 0.62551 0.0
C1915 C 0.19732 0.43727 0.6847 0.0
C1916 C 0.21216 0.42347 0.74597 0.0
H1917 H 0.23302 0.4421 0.93775 0.0
H1918 H 0.22519 0.44506 0.87411 0.0
H1919 H 0.22187 0.4186 0.78799 0.0
H1920 H 0.18583 0.40694 0.62449 0.0
H1921 H 0.19543 0.40903 0.68875 0.0
H1922 H 0.19563 0.4377 0.76874 0.0
C1923 C 0.22299 0.43582 0.88287 0.0
C1924 C 0.21623 0.42288 0.78402 0.0
C1925 C 0.22745 0.43412 0.91915 0.0
C1926 C 0.18907 0.41552 0.64072 0.0
C1927 C 0.19466 0.41676 0.67755 0.0
C1928 C 0.20159 0.43376 0.7724 0.0
C1929 C 0.21634 0.42575 0.85717 0.0
C1930 C 0.21288 0.42753 0.81675 0.0
C1931 C 0.19886 0.42763 0.70007 0.0
C1932 C 0.20448 0.42857 0.73981 0.0
H1933 H 0.21594 0.40292 0.91335 0.0
H1934 H 0.20835 0.40595 0.85007 0.0
H1935 H 0.20315 0.43696 0.83549 0.0
H1936 H 0.19046 0.4435 0.63667 0.0
H1937 H 0.20053 0.4458 0.70118 0.0
C1938 C 0.58045 0.8086 0.89873 0.0
C1939 C 0.57104 0.80204 0.92663 0.0
C1940 C 0.58076 0.80304 0.86315 0.0
C1941 C 0.56104 0.7779 0.79432 0.0
H1942 H 0.59268 0.785 0.75054 0.0
C1943 C 0.56665 0.7569 0.64645 0.0
C1944 C 0.57591 0.7654 0.62087 0.0
C1945 C 0.56551 0.76042 0.68502 0.0
C1946 C 0.58378 0.78299 0.76233 0.0
H1947 H 0.55462 0.78446 0.93946 0.0
H1948 H 0.55522 0.77464 0.87715 0.0
H1949 H 0.59184 0.7926 0.8165 0.0
H1950 H 0.59106 0.78428 0.61519 0.0
H1951 H 0.58908 0.7904 0.68227 0.0
H1952 H 0.55303 0.76832 0.73977 0.0
C1953 C 0.56229 0.78414 0.8827 0.0
C1954 C 0.5833 0.78734 0.80007 0.0
C1955 C 0.56198 0.78974 0.91842 0.0
C1956 C 0.58386 0.77752 0.63426 0.0
C1957 C 0.58278 0.781 0.67276 0.0
C1958 C 0.56152 0.77348 0.75653 0.0
C1959 C 0.57168 0.79076 0.85465 0.0
C1960 C 0.57196 0.78508 0.81617 0.0
C1961 C 0.57369 0.77246 0.69867 0.0
C1962 C 0.57294 0.77621 0.73989 0.0
H1963 H 0.58754 0.81811 0.90415 0.0
H1964 H 0.588 0.80846 0.84191 0.0
H1965 H 0.55218 0.77609 0.80577 0.0
H1966 H 0.5604 0.7475 0.63687 0.0
H1967 H 0.55844 0.75366 0.70445 0.0
C1968 C 0.17801 0.76234 0.90218 0.0
C1969 C 0.18466 0.76401 0.93745 0.0
C1970 C 0.1842 0.7665 0.86604 0.0
C1971 C 0.21422 0.77673 0.81595 0.0
H1972 H 0.20204 0.79254 0.74413 0.0
C1973 C 0.24064 0.80576 0.67697 0.0
C1974 C 0.23341 0.8041 0.64302 0.0
C1975 C 0.23502 0.79982 0.71259 0.0
C1976 C 0.20547 0.78802 0.76367 0.0
H1977 H 0.20297 0.77116 0.96272 0.0
H1978 H 0.21385 0.77872 0.89957 0.0
H1979 H 0.19163 0.78441 0.80718 0.0
H1980 H 0.21479 0.79439 0.61892 0.0
H1981 H 0.20504 0.78403 0.68084 0.0
H1982 H 0.22825 0.78064 0.77228 0.0
C1983 C 0.20384 0.77401 0.89973 0.0
C1984 C 0.19949 0.78334 0.79978 0.0
C1985 C 0.19762 0.76976 0.93591 0.0
C1986 C 0.22059 0.79594 0.64472 0.0
C1987 C 0.21499 0.79005 0.68019 0.0
C1988 C 0.22027 0.7815 0.77976 0.0
C1989 C 0.19719 0.77252 0.86445 0.0
C1990 C 0.20373 0.77756 0.82624 0.0
C1991 C 0.2221 0.79218 0.71471 0.0
C1992 C 0.21588 0.7871 0.75319 0.0
H1993 H 0.168 0.75783 0.90244 0.0
H1994 H 0.17879 0.76499 0.83931 0.0
H1995 H 0.21765 0.77223 0.83556 0.0
H1996 H 0.25055 0.81199 0.67642 0.0
H1997 H 0.2407 0.80164 0.73884 0.0
C1998 C 0.10148 0.56599 0.91724 0.0
C1999 C 0.09618 0.5736 0.91486 0.0
C2000 C 0.10191 0.56078 0.9536 0.0
C2001 C 0.08627 0.55238 0.0509 0.0
H2002 H 0.11449 0.54954 0.08426 0.0
C2003 C 0.089 0.53613 0.20762 0.0
C2004 C 0.0925 0.52707 0.21062 0.0
C2005 C 0.09049 0.54242 0.17195 0.0
C2006 C 0.10652 0.5502 0.07514 0.0
H2007 H 0.08759 0.5821 0.94869 0.0
H2008 H 0.08852 0.5732 0.01202 0.0
H2009 H 0.11516 0.55941 0.02073 0.0
H2010 H 0.10073 0.5178 0.17916 0.0
H2011 H 0.10329 0.52878 0.11651 0.0
H2012 H 0.07761 0.54319 0.10504 0.0
C2013 C 0.0921 0.57101 0.98581 0.0
C2014 C 0.10689 0.55583 0.03879 0.0
C2015 C 0.09163 0.57617 0.94955 0.0
C2016 C 0.09794 0.52473 0.17765 0.0
C2017 C 0.09945 0.53105 0.14188 0.0
C2018 C 0.08591 0.54681 0.08713 0.0
C2019 C 0.09707 0.56311 0.98818 0.0
C2020 C 0.09678 0.55704 0.02642 0.0
C2021 C 0.09552 0.53978 0.13848 0.0
C2022 C 0.09605 0.54571 0.09978 0.0
H2023 H 0.10507 0.56386 0.89091 0.0
H2024 H 0.10572 0.55465 0.9544 0.0
H2025 H 0.07821 0.5529 0.04184 0.0
H2026 H 0.08485 0.5382 0.23262 0.0
H2027 H 0.08758 0.54926 0.17043 0.0
C2028 C 0.44369 0.52971 0.93356 0.0
C2029 C 0.43504 0.53146 0.91211 0.0
C2030 C 0.44899 0.53641 0.96817 0.0
C2031 C 0.44347 0.55317 0.04828 0.0
H2032 H 0.47691 0.56168 0.07718 0.0
C2033 C 0.46935 0.57683 0.19702 0.0
C2034 C 0.47391 0.56994 0.21645 0.0
C2035 C 0.46436 0.57353 0.1587 0.0
C2036 C 0.46758 0.5594 0.06936 0.0
H2037 H 0.42538 0.54183 0.9094 0.0
H2038 H 0.43485 0.55379 0.96993 0.0
H2039 H 0.46939 0.5543 0.01023 0.0
H2040 H 0.47652 0.55404 0.21161 0.0
H2041 H 0.46804 0.54847 0.14469 0.0
H2042 H 0.4418 0.55833 0.10794 0.0
C2043 C 0.43739 0.54708 0.96016 0.0
C2044 C 0.46324 0.55512 0.03115 0.0
C2045 C 0.43203 0.5403 0.92541 0.0
C2046 C 0.47308 0.55953 0.19742 0.0
C2047 C 0.4683 0.55638 0.15907 0.0
C2048 C 0.4479 0.55763 0.0865 0.0
C2049 C 0.44585 0.54511 0.98213 0.0
C2050 C 0.451 0.55154 0.02054 0.0
C2051 C 0.46408 0.56344 0.13918 0.0
C2052 C 0.45986 0.5604 0.09761 0.0
H2053 H 0.44617 0.52292 0.92419 0.0
H2054 H 0.45526 0.53445 0.98467 0.0
H2055 H 0.43398 0.55042 0.0412 0.0
H2056 H 0.46988 0.58489 0.21107 0.0
H2057 H 0.46112 0.57908 0.14382 0.0
C2058 C 0.4697 0.91405 0.92047 0.0
C2059 C 0.46967 0.90391 0.90225 0.0
C2060 C 0.46351 0.91257 0.95633 0.0
C2061 C 0.43949 0.88966 0.02261 0.0
H2062 H 0.45726 0.91488 0.10241 0.0
C2063 C 0.4363 0.90171 0.19858 0.0
C2064 C 0.42414 0.89955 0.19986 0.0
C2065 C 0.44136 0.90061 0.16287 0.0
C2066 C 0.45222 0.90767 0.08067 0.0
H2067 H 0.46284 0.88419 0.90653 0.0
H2068 H 0.45202 0.8816 0.96958 0.0
H2069 H 0.46691 0.91625 0.03844 0.0
H2070 H 0.40751 0.89399 0.16531 0.0
H2071 H 0.41641 0.89225 0.10263 0.0
H2072 H 0.42481 0.88106 0.06524 0.0
C2073 C 0.45679 0.89068 0.95593 0.0
C2074 C 0.45768 0.90855 0.0438 0.0
C2075 C 0.46302 0.89217 0.91997 0.0
C2076 C 0.41692 0.89572 0.16514 0.0
C2077 C 0.422 0.89467 0.12931 0.0
C2078 C 0.43398 0.88879 0.05961 0.0
C2079 C 0.45716 0.90091 0.97478 0.0
C2080 C 0.45135 0.89963 0.01424 0.0
C2081 C 0.43437 0.8974 0.12764 0.0
C2082 C 0.44029 0.89783 0.08896 0.0
H2083 H 0.47469 0.9232 0.90738 0.0
H2084 H 0.46377 0.92058 0.96978 0.0
H2085 H 0.43438 0.88267 0.00032 0.0
H2086 H 0.44205 0.90456 0.22497 0.0
H2087 H 0.45084 0.90255 0.16268 0.0
C2088 C 0.23398 0.37267 0.0144 0.0
C2089 C 0.2395 0.38203 0.04321 0.0
C2090 C 0.22994 0.36036 0.02434 0.0
C2091 C 0.21759 0.33986 0.10885 0.0
H2092 H 0.22097 0.31631 0.04242 0.0
C2093 C 0.19225 0.28818 0.14877 0.0
C2094 C 0.1868 0.27982 0.11719 0.0
C2095 C 0.20073 0.30063 0.14133 0.0
C2096 C 0.21985 0.32274 0.06115 0.0
H2097 H 0.24565 0.38597 0.10449 0.0
H2098 H 0.23842 0.36439 0.122 0.0
H2099 H 0.2324 0.33832 0.02577 0.0
H2100 H 0.18612 0.2778 0.05313 0.0
H2101 H 0.20053 0.29959 0.03994 0.0
H2102 H 0.20459 0.3244 0.14305 0.0
C2103 C 0.23723 0.3666 0.09176 0.0
C2104 C 0.22646 0.33534 0.0517 0.0
C2105 C 0.24141 0.37894 0.08169 0.0
C2106 C 0.19022 0.28405 0.07805 0.0
C2107 C 0.19856 0.29654 0.07055 0.0
C2108 C 0.21087 0.32727 0.11801 0.0
C2109 C 0.23123 0.35717 0.06339 0.0
C2110 C 0.22527 0.34399 0.07524 0.0
C2111 C 0.2038 0.30504 0.10209 0.0
C2112 C 0.21178 0.31852 0.09401 0.0
H2113 H 0.23242 0.3748 0.98448 0.0
H2114 H 0.22526 0.35326 0.00198 0.0
H2115 H 0.21635 0.3463 0.12715 0.0
H2116 H 0.18987 0.28513 0.17928 0.0
H2117 H 0.20477 0.30682 0.1664 0.0
C2118 C 0.70289 0.88505 0.14667 0.0
C2119 C 0.71044 0.89691 0.13067 0.0
C2120 C 0.69016 0.87867 0.13958 0.0
C2121 C 0.66682 0.87748 0.06961 0.0
H2122 H 0.64368 0.85742 0.15194 0.0
C2123 C 0.61392 0.85379 0.04875 0.0
C2124 C 0.60698 0.84143 0.06142 0.0
C2125 C 0.62646 0.8609 0.05833 0.0
C2126 C 0.65004 0.86291 0.12858 0.0
H2127 H 0.71058 0.91151 0.09537 0.0
H2128 H 0.68831 0.90047 0.08346 0.0
H2129 H 0.66574 0.86939 0.16701 0.0
H2130 H 0.60765 0.82685 0.09436 0.0
H2131 H 0.62958 0.83926 0.11108 0.0
H2132 H 0.65111 0.87099 0.03121 0.0
C2133 C 0.69225 0.896 0.10093 0.0
C2134 C 0.66268 0.86976 0.13718 0.0
C2135 C 0.70499 0.90236 0.10794 0.0
C2136 C 0.61278 0.83635 0.08421 0.0
C2137 C 0.6253 0.84347 0.09397 0.0
C2138 C 0.65418 0.87067 0.06107 0.0
C2139 C 0.6847 0.88404 0.11642 0.0
C2140 C 0.67122 0.87707 0.10773 0.0
C2141 C 0.63229 0.8558 0.08095 0.0
C2142 C 0.64567 0.86326 0.09039 0.0
H2143 H 0.70685 0.8806 0.16422 0.0
H2144 H 0.68465 0.86942 0.15151 0.0
H2145 H 0.67316 0.88284 0.04605 0.0
H2146 H 0.60969 0.85796 0.03121 0.0
H2147 H 0.63157 0.87041 0.04827 0.0
C2148 C 0.1349 0.76521 0.08327 0.0
C2149 C 0.14663 0.77099 0.06528 0.0
C2150 C 0.12863 0.77175 0.08921 0.0
C2151 C 0.12757 0.79918 0.05307 0.0
H2152 H 0.10993 0.79581 0.15139 0.0
C2153 C 0.09732 0.82162 0.07413 0.0
C2154 C 0.09831 0.82747 0.1107 0.0
C2155 C 0.10268 0.81421 0.06892 0.0
C2156 C 0.11488 0.7969 0.12386 0.0
H2157 H 0.16106 0.78816 0.03987 0.0
H2158 H 0.15022 0.79958 0.05064 0.0
H2159 H 0.12054 0.78402 0.14197 0.0
H2160 H 0.10558 0.83009 0.17065 0.0
H2161 H 0.11509 0.81726 0.16145 0.0
H2162 H 0.12221 0.81227 0.0353 0.0
C2163 C 0.14575 0.78996 0.05958 0.0
C2164 C 0.12083 0.79004 0.11829 0.0
C2165 C 0.152 0.78343 0.05362 0.0
C2166 C 0.10466 0.82568 0.14213 0.0
C2167 C 0.11003 0.81827 0.13693 0.0
C2168 C 0.12163 0.80602 0.05863 0.0
C2169 C 0.13397 0.78419 0.07725 0.0
C2170 C 0.12731 0.79116 0.08291 0.0
C2171 C 0.10917 0.81251 0.10018 0.0
C2172 C 0.11525 0.805 0.09413 0.0
H2173 H 0.13054 0.75562 0.09251 0.0
H2174 H 0.11951 0.76701 0.10258 0.0
H2175 H 0.13235 0.80014 0.02527 0.0
H2176 H 0.09243 0.82278 0.04942 0.0
H2177 H 0.1017 0.80977 0.04043 0.0
C2178 C 0.27545 0.18232 0.40614 0.0
C2179 C 0.27153 0.17285 0.3777 0.0
C2180 C 0.28799 0.18961 0.41555 0.0
C2181 C 0.31922 0.19974 0.37667 0.0
H2182 H 0.32916 0.20648 0.48726 0.0
C2183 C 0.36989 0.23258 0.42368 0.0
C2184 C 0.37445 0.22824 0.4541 0.0
C2185 C 0.35725 0.22643 0.41487 0.0
C2186 C 0.32652 0.20465 0.45625 0.0
H2187 H 0.27766 0.1636 0.33662 0.0
H2188 H 0.29955 0.17633 0.35303 0.0
H2189 H 0.30721 0.19443 0.4704 0.0
H2190 H 0.36937 0.2142 0.49958 0.0
H2191 H 0.3473 0.20346 0.4842 0.0
H2192 H 0.33853 0.20976 0.36254 0.0
C2193 C 0.29294 0.17818 0.36786 0.0
C2194 C 0.31396 0.19785 0.44659 0.0
C2195 C 0.2804 0.17085 0.35864 0.0
C2196 C 0.36611 0.21776 0.47598 0.0
C2197 C 0.35347 0.21166 0.46733 0.0
C2198 C 0.33177 0.2066 0.38631 0.0
C2199 C 0.29687 0.18762 0.39649 0.0
C2200 C 0.31018 0.19524 0.4067 0.0
C2201 C 0.34892 0.21586 0.43647 0.0
C2202 C 0.33556 0.20904 0.42623 0.0
H2203 H 0.26881 0.18408 0.42128 0.0
H2204 H 0.29076 0.19689 0.43747 0.0
H2205 H 0.31658 0.19797 0.34565 0.0
H2206 H 0.3761 0.24065 0.40636 0.0
H2207 H 0.35399 0.22996 0.3912 0.0
C2208 C 0.76144 0.14119 0.39745 0.0
C2209 C 0.76358 0.14808 0.43253 0.0
C2210 C 0.76704 0.134 0.39169 0.0
C2211 C 0.78302 0.11996 0.44529 0.0
H2212 H 0.79758 0.1214 0.34217 0.0
C2213 C 0.81928 0.10492 0.42084 0.0
C2214 C 0.81813 0.09799 0.38657 0.0
C2215 C 0.8118 0.11019 0.42608 0.0
C2216 C 0.79343 0.12078 0.37098 0.0
H2217 H 0.77305 0.15269 0.48935 0.0
H2218 H 0.78293 0.14033 0.47913 0.0
H2219 H 0.78572 0.13188 0.35218 0.0
H2220 H 0.80827 0.09115 0.33087 0.0
H2221 H 0.79521 0.10042 0.33999 0.0
H2222 H 0.79096 0.10907 0.46427 0.0
C2223 C 0.7768 0.1403 0.45627 0.0
C2224 C 0.78661 0.12676 0.37671 0.0
C2225 C 0.7712 0.14745 0.46205 0.0
C2226 C 0.80937 0.09646 0.35757 0.0
C2227 C 0.80193 0.1018 0.36271 0.0
C2228 C 0.78988 0.11403 0.4396 0.0
C2229 C 0.77489 0.13357 0.42088 0.0
C2230 C 0.78143 0.12653 0.41406 0.0
C2231 C 0.80306 0.1087 0.39706 0.0
C2232 C 0.79527 0.11449 0.40251 0.0
H2233 H 0.75558 0.14148 0.37423 0.0
H2234 H 0.76524 0.1288 0.36432 0.0
H2235 H 0.77897 0.11941 0.47423 0.0
H2236 H 0.82596 0.10626 0.44368 0.0
H2237 H 0.81299 0.1156 0.45262 0.0
C2238 C 0.90046 0.70884 0.35382 0.0
C2239 C 0.90505 0.71787 0.38389 0.0
C2240 C 0.89516 0.69631 0.36339 0.0
C2241 C 0.87852 0.67458 0.44272 0.0
H2242 H 0.88669 0.65245 0.38663 0.0
C2243 C 0.85588 0.62308 0.48515 0.0
C2244 C 0.85277 0.61451 0.4541 0.0
C2245 C 0.86322 0.63576 0.47785 0.0
C2246 C 0.88418 0.65846 0.40226 0.0
H2247 H 0.90788 0.72092 0.44741 0.0
H2248 H 0.8984 0.69895 0.46417 0.0
H2249 H 0.89778 0.67452 0.371 0.0
H2250 H 0.85489 0.61241 0.39113 0.0
H2251 H 0.86729 0.63452 0.37798 0.0
H2252 H 0.86461 0.65861 0.4729 0.0
C2253 C 0.89896 0.70161 0.43325 0.0
C2254 C 0.89058 0.6711 0.39341 0.0
C2255 C 0.90442 0.71415 0.42364 0.0
C2256 C 0.85721 0.61882 0.41567 0.0
C2257 C 0.8644 0.63151 0.40823 0.0
C2258 C 0.87199 0.66193 0.45119 0.0
C2259 C 0.8942 0.69257 0.40323 0.0
C2260 C 0.88779 0.67926 0.41351 0.0
C2261 C 0.86745 0.64015 0.43919 0.0
C2262 C 0.8747 0.65369 0.43099 0.0
H2263 H 0.90084 0.71146 0.32292 0.0
H2264 H 0.89148 0.68951 0.33973 0.0
H2265 H 0.87607 0.68067 0.45826 0.0
H2266 H 0.85266 0.61999 0.51515 0.0
H2267 H 0.86558 0.6421 0.5026 0.0
C2268 C 0.81073 0.70736 0.84412 0.0
C2269 C 0.81282 0.7159 0.8745 0.0
C2270 C 0.80333 0.69467 0.85096 0.0
C2271 C 0.78033 0.67162 0.92142 0.0
H2272 H 0.79131 0.65024 0.87539 0.0
C2273 C 0.76337 0.62133 0.97296 0.0
C2274 C 0.76079 0.61247 0.94316 0.0
C2275 C 0.76851 0.63384 0.96315 0.0
C2276 C 0.78804 0.65607 0.88805 0.0
H2277 H 0.8087 0.71794 0.93569 0.0
H2278 H 0.79608 0.69577 0.94813 0.0
H2279 H 0.80268 0.67231 0.86123 0.0
H2280 H 0.76125 0.60967 0.8797 0.0
H2281 H 0.77034 0.63154 0.86263 0.0
H2282 H 0.7659 0.6553 0.94931 0.0
C2283 C 0.79991 0.69883 0.9187 0.0
C2284 C 0.79453 0.66873 0.87986 0.0
C2285 C 0.80721 0.71154 0.91169 0.0
C2286 C 0.76316 0.6163 0.9033 0.0
C2287 C 0.76841 0.62881 0.89354 0.0
C2288 C 0.7739 0.65895 0.92994 0.0
C2289 C 0.79797 0.69023 0.88851 0.0
C2290 C 0.79078 0.67669 0.89649 0.0
C2291 C 0.77128 0.63772 0.92341 0.0
C2292 C 0.77772 0.65107 0.91337 0.0
H2293 H 0.81485 0.71047 0.81503 0.0
H2294 H 0.80183 0.68835 0.82676 0.0
H2295 H 0.77705 0.67743 0.93425 0.0
H2296 H 0.76162 0.61864 0.00393 0.0
H2297 H 0.77071 0.64052 0.98679 0.0
C2298 C 0.38128 0.14306 0.91569 0.0
C2299 C 0.38549 0.14762 0.9541 0.0
C2300 C 0.36866 0.1353 0.90839 0.0
C2301 C 0.33795 0.12642 0.95105 0.0
H2302 H 0.32636 0.10046 0.87155 0.0
C2303 C 0.28606 0.09337 0.9211 0.0
C2304 C 0.28258 0.09245 0.88098 0.0
C2305 C 0.29854 0.09891 0.93159 0.0
C2306 C 0.32949 0.10769 0.89378 0.0
H2307 H 0.3799 0.14737 0.01524 0.0
H2308 H 0.35793 0.13354 0.00285 0.0
H2309 H 0.34838 0.11228 0.88762 0.0
H2310 H 0.28935 0.09615 0.82032 0.0
H2311 H 0.31117 0.1057 0.83868 0.0
H2312 H 0.31903 0.12175 0.95728 0.0
C2313 C 0.36429 0.1362 0.97807 0.0
C2314 C 0.3421 0.11451 0.90289 0.0
C2315 C 0.3769 0.14406 0.98526 0.0
C2316 C 0.29178 0.09676 0.85149 0.0
C2317 C 0.30425 0.10217 0.86196 0.0
C2318 C 0.32535 0.11951 0.94225 0.0
C2319 C 0.35999 0.13184 0.93944 0.0
C2320 C 0.34651 0.12407 0.9313 0.0
C2321 C 0.30776 0.10348 0.90213 0.0
C2322 C 0.32102 0.11018 0.91322 0.0
H2323 H 0.3877 0.1457 0.89106 0.0
H2324 H 0.3657 0.1323 0.87816 0.0
H2325 H 0.34101 0.13385 0.97254 0.0
H2326 H 0.27916 0.09012 0.94445 0.0
H2327 H 0.301 0.09973 0.96277 0.0
C2328 C 0.89641 0.18271 0.91285 0.0
C2329 C 0.897 0.1782 0.87516 0.0
C2330 C 0.89155 0.19058 0.91735 0.0
C2331 C 0.87132 0.20015 0.86676 0.0
H2332 H 0.88441 0.22602 0.94677 0.0
C2333 C 0.85278 0.23392 0.88763 0.0
C2334 C 0.84957 0.23495 0.9269 0.0
C2335 C 0.85968 0.22814 0.87962 0.0
C2336 C 0.88065 0.21881 0.92437 0.0
H2337 H 0.89323 0.17858 0.81246 0.0
H2338 H 0.88502 0.19259 0.82007 0.0
H2339 H 0.89449 0.21384 0.93521 0.0
H2340 H 0.8514 0.23117 0.98865 0.0
H2341 H 0.86359 0.22122 0.97468 0.0
H2342 H 0.85752 0.20521 0.8559 0.0
C2343 C 0.88805 0.18983 0.84635 0.0
C2344 C 0.88639 0.21179 0.91783 0.0
C2345 C 0.89281 0.18186 0.84192 0.0
C2346 C 0.85374 0.23049 0.9581 0.0
C2347 C 0.86076 0.22485 0.95012 0.0
C2348 C 0.86568 0.20726 0.87303 0.0
C2349 C 0.88727 0.19422 0.88418 0.0
C2350 C 0.88168 0.20225 0.88933 0.0
C2351 C 0.86362 0.22344 0.91077 0.0
C2352 C 0.87019 0.21655 0.90225 0.0
H2353 H 0.89952 0.18 0.93906 0.0
H2354 H 0.8909 0.19358 0.94702 0.0
H2355 H 0.86731 0.19277 0.84503 0.0
H2356 H 0.84968 0.23727 0.86298 0.0
H2357 H 0.86185 0.22727 0.84904 0.0
C2358 C 0.71939 0.81556 0.5599 0.0
C2359 C 0.72211 0.81829 0.60043 0.0
C2360 C 0.70716 0.80809 0.54736 0.0
C2361 C 0.67652 0.78416 0.58002 0.0
H2362 H 0.6638 0.79795 0.50239 0.0
C2363 C 0.6244 0.76512 0.55931 0.0
C2364 C 0.61987 0.76593 0.52192 0.0
C2365 C 0.63708 0.77026 0.56556 0.0
C2366 C 0.66721 0.79379 0.52341 0.0
H2367 H 0.71429 0.81511 0.65971 0.0
H2368 H 0.69293 0.80181 0.63782 0.0
H2369 H 0.68573 0.8091 0.5192 0.0
H2370 H 0.62497 0.77225 0.46123 0.0
H2371 H 0.64714 0.78084 0.47164 0.0
H2372 H 0.65812 0.76879 0.58415 0.0
C2373 C 0.70025 0.80552 0.61581 0.0
C2374 C 0.67978 0.80023 0.53315 0.0
C2375 C 0.71244 0.81317 0.62828 0.0
C2376 C 0.62823 0.77158 0.49046 0.0
C2377 C 0.64094 0.77657 0.49655 0.0
C2378 C 0.66399 0.7776 0.56984 0.0
C2379 C 0.69749 0.80303 0.57523 0.0
C2380 C 0.68448 0.7956 0.56212 0.0
C2381 C 0.64555 0.77618 0.53439 0.0
C2382 C 0.65911 0.78247 0.54206 0.0
H2383 H 0.72669 0.81942 0.53782 0.0
H2384 H 0.70524 0.80626 0.51592 0.0
H2385 H 0.67998 0.78033 0.60214 0.0
H2386 H 0.61816 0.76088 0.58418 0.0
H2387 H 0.64024 0.76995 0.59528 0.0
C2388 C 0.18593 0.90045 0.58675 0.0
C2389 C 0.17952 0.89909 0.62237 0.0
C2390 C 0.19353 0.89529 0.5826 0.0
C2391 C 0.1994 0.87143 0.62706 0.0
H2392 H 0.22818 0.88674 0.55823 0.0
C2393 C 0.23313 0.85265 0.60737 0.0
C2394 C 0.23459 0.85014 0.56764 0.0
C2395 C 0.22738 0.85951 0.61634 0.0
C2396 C 0.22017 0.8824 0.57754 0.0
H2397 H 0.17629 0.89161 0.68206 0.0
H2398 H 0.18999 0.88301 0.67556 0.0
H2399 H 0.21657 0.89734 0.57114 0.0
H2400 H 0.23159 0.85313 0.50616 0.0
H2401 H 0.22183 0.86544 0.52191 0.0
H2402 H 0.20325 0.8566 0.6339 0.0
C2403 C 0.18886 0.88772 0.65027 0.0
C2404 C 0.21345 0.8884 0.58478 0.0
C2405 C 0.18107 0.89271 0.65415 0.0
C2406 C 0.23056 0.85492 0.53703 0.0
C2407 C 0.22503 0.86199 0.546 0.0
C2408 C 0.20626 0.86555 0.62037 0.0
C2409 C 0.19509 0.88881 0.61425 0.0
C2410 C 0.20283 0.8829 0.60907 0.0
C2411 C 0.22324 0.86419 0.58572 0.0
C2412 C 0.21658 0.87089 0.59507 0.0
H2413 H 0.18482 0.90525 0.56163 0.0
H2414 H 0.19793 0.89612 0.55414 0.0
H2415 H 0.19118 0.86678 0.64535 0.0
H2416 H 0.23612 0.84903 0.63154 0.0
H2417 H 0.22613 0.86114 0.64718 0.0
C2418 C 0.13339 0.37386 0.51057 0.0
C2419 C 0.13693 0.38312 0.53961 0.0
C2420 C 0.12502 0.36151 0.51984 0.0
C2421 C 0.11554 0.34079 0.60479 0.0
H2422 H 0.09007 0.31729 0.53408 0.0
C2423 C 0.08807 0.28913 0.64436 0.0
C2424 C 0.08606 0.2808 0.61334 0.0
C2425 C 0.09223 0.30158 0.63621 0.0
C2426 C 0.09721 0.32372 0.55404 0.0
H2427 H 0.13403 0.38685 0.60043 0.0
H2428 H 0.11944 0.36525 0.61665 0.0
H2429 H 0.10094 0.33932 0.51762 0.0
H2430 H 0.08653 0.27885 0.54945 0.0
H2431 H 0.09419 0.30064 0.53521 0.0
H2432 H 0.11231 0.3253 0.64033 0.0
C2433 C 0.1232 0.36754 0.58684 0.0
C2434 C 0.10338 0.33633 0.54466 0.0
C2435 C 0.1315 0.3799 0.57749 0.0
C2436 C 0.08797 0.28507 0.57395 0.0
C2437 C 0.09228 0.29756 0.5658 0.0
C2438 C 0.10947 0.32821 0.61397 0.0
C2439 C 0.1201 0.35819 0.55838 0.0
C2440 C 0.1127 0.34497 0.56975 0.0
C2441 C 0.09465 0.30601 0.59688 0.0
C2442 C 0.10033 0.31948 0.58849 0.0
H2443 H 0.13742 0.37608 0.48109 0.0
H2444 H 0.12287 0.35449 0.49739 0.0
H2445 H 0.12283 0.34721 0.62437 0.0
H2446 H 0.08655 0.28605 0.67501 0.0
H2447 H 0.0937 0.30776 0.66083 0.0
C2448 C 0.04582 0.56711 0.80917 0.0
C2449 C 0.05475 0.5718 0.77886 0.0
C2450 C 0.03324 0.56126 0.79988 0.0
C2451 C 0.01136 0.54324 0.72286 0.0
H2452 H 0.98912 0.55187 0.77595 0.0
C2453 C 0.95954 0.51905 0.68284 0.0
C2454 C 0.95112 0.51661 0.71389 0.0
C2455 C 0.97224 0.52656 0.68924 0.0
C2456 C 0.99516 0.54921 0.76122 0.0
H2457 H 0.05759 0.57411 0.71515 0.0
H2458 H 0.03551 0.56358 0.69886 0.0
H2459 H 0.01123 0.56354 0.79041 0.0
H2460 H 0.9493 0.52001 0.776 0.0
H2461 H 0.97145 0.53268 0.78776 0.0
H2462 H 0.99537 0.52859 0.69491 0.0
C2463 C 0.03829 0.56455 0.72976 0.0
C2464 C 0.00782 0.55596 0.76937 0.0
C2465 C 0.05089 0.5706 0.73909 0.0
C2466 C 0.9556 0.52182 0.75146 0.0
C2467 C 0.96831 0.52916 0.75807 0.0
C2468 C -0.00132 0.53635 0.71518 0.0
C2469 C 0.02936 0.55981 0.76009 0.0
C2470 C 0.01602 0.55301 0.75034 0.0
C2471 C 0.97682 0.53163 0.72706 0.0
C2472 C 0.99038 0.53921 0.73437 0.0
H2473 H 0.04856 0.56793 0.84009 0.0
H2474 H 0.02652 0.5576 0.82376 0.0
H2475 H 0.0175 0.54069 0.70817 0.0
H2476 H 0.95631 0.51523 0.65347 0.0
H2477 H 0.97846 0.52844 0.66442 0.0
C2478 C 0.43184 0.47723 0.81691 0.0
C2479 C 0.42371 0.47893 0.79238 0.0
C2480 C 0.43601 0.46918 0.80568 0.0
C2481 C 0.44122 0.45542 0.71657 0.0
H2482 H 0.44839 0.43696 0.79449 0.0
C2483 C 0.47636 0.43921 0.68775 0.0
C2484 C 0.47414 0.42794 0.70422 0.0
C2485 C 0.46852 0.44388 0.69638 0.0
C2486 C 0.44629 0.44189 0.77216 0.0
H2487 H 0.41318 0.4732 0.73757 0.0
H2488 H 0.42036 0.45895 0.71807 0.0
H2489 H 0.43703 0.44724 0.81447 0.0
H2490 H 0.46176 0.41251 0.74159 0.0
H2491 H 0.44793 0.42054 0.75615 0.0
H2492 H 0.45045 0.45003 0.67422 0.0
C2493 C 0.42365 0.464 0.74574 0.0
C2494 C 0.4399 0.44791 0.78375 0.0
C2495 C 0.41948 0.47209 0.757 0.0
C2496 C 0.46375 0.42127 0.72871 0.0
C2497 C 0.45586 0.4259 0.73718 0.0
C2498 C 0.44757 0.44936 0.70493 0.0
C2499 C 0.43212 0.46261 0.76968 0.0
C2500 C 0.43753 0.45498 0.75631 0.0
C2501 C 0.45823 0.43733 0.72149 0.0
C2502 C 0.45041 0.44274 0.73278 0.0
H2503 H 0.43528 0.4824 0.84433 0.0
H2504 H 0.44266 0.46848 0.82456 0.0
H2505 H 0.43964 0.46085 0.69471 0.0
H2506 H 0.48431 0.44456 0.66881 0.0
H2507 H 0.47074 0.4528 0.68427 0.0
C2508 C 0.52003 0.95572 0.80288 0.0
C2509 C 0.5184 0.94625 0.77672 0.0
C2510 C 0.528 0.9681 0.79314 0.0
C2511 C 0.54218 0.98842 0.70669 0.0
H2512 H 0.56085 0.0127 0.78804 0.0
C2513 C 0.56018 0.04043 0.68534 0.0
C2514 C 0.57154 0.04898 0.70255 0.0
C2515 C 0.55505 0.02777 0.69238 0.0
C2516 C 0.55585 0.00604 0.76479 0.0
H2517 H 0.52409 0.94226 0.72037 0.0
H2518 H 0.5382 0.96394 0.70352 0.0
H2519 H 0.54997 0.99079 0.80477 0.0
H2520 H 0.58663 0.05099 0.7397 0.0
H2521 H 0.57777 0.02884 0.75152 0.0
H2522 H 0.54815 0.00367 0.66663 0.0
C2523 C 0.53316 0.9618 0.7313 0.0
C2524 C 0.54948 0.99348 0.77452 0.0
C2525 C 0.52514 0.94938 0.74103 0.0
C2526 C 0.57782 0.04461 0.72624 0.0
C2527 C 0.57271 0.03193 0.73315 0.0
C2528 C 0.5486 0.00098 0.69691 0.0
C2529 C 0.53457 0.97131 0.75707 0.0
C2530 C 0.54236 0.98453 0.74578 0.0
C2531 C 0.5612 0.02337 0.71663 0.0
C2532 C 0.55532 0.00996 0.72603 0.0
H2533 H 0.51493 0.95359 0.83058 0.0
H2534 H 0.5287 0.97518 0.8134 0.0
H2535 H 0.53672 0.98179 0.68388 0.0
H2536 H 0.55512 0.04354 0.66701 0.0
H2537 H 0.54608 0.02147 0.67969 0.0
C2538 C 0.47817 0.04648 0.25783 0.0
C2539 C 0.47958 0.0505 0.21819 0.0
C2540 C 0.47074 0.03395 0.26708 0.0
C2541 C 0.44559 0.00421 0.2303 0.0
H2542 H 0.46098 0.99003 0.29558 0.0
C2543 C 0.42517 0.95135 0.24616 0.0
C2544 C 0.42658 0.9468 0.28277 0.0
C2545 C 0.43088 0.96411 0.23949 0.0
C2546 C 0.45642 0.99384 0.27792 0.0
H2547 H 0.47399 0.04467 0.15732 0.0
H2548 H 0.46088 0.02275 0.17359 0.0
H2549 H 0.47195 0.01217 0.28252 0.0
H2550 H 0.43465 0.95194 0.34161 0.0
H2551 H 0.44425 0.97414 0.33057 0.0
H2552 H 0.43 0.9859 0.22595 0.0
C2553 C 0.46554 0.0293 0.19744 0.0
C2554 C 0.46274 0.00654 0.27036 0.0
C2555 C 0.47308 0.04182 0.18813 0.0
C2556 C 0.43351 0.9552 0.31293 0.0
C2557 C 0.43908 0.96793 0.30648 0.0
C2558 C 0.43919 0.9915 0.23824 0.0
C2559 C 0.46449 0.02522 0.23691 0.0
C2560 C 0.45744 0.01183 0.24629 0.0
C2561 C 0.43799 0.97256 0.26949 0.0
C2562 C 0.44456 0.98614 0.26195 0.0
H2563 H 0.48306 0.05297 0.28161 0.0
H2564 H 0.46999 0.03105 0.2978 0.0
H2565 H 0.44126 0.00809 0.21188 0.0
H2566 H 0.4199 0.94506 0.22234 0.0
H2567 H 0.42996 0.96731 0.21047 0.0
C2568 C 0.04186 0.47592 0.25197 0.0
C2569 C 0.04626 0.47906 0.29107 0.0
C2570 C 0.02925 0.46812 0.24466 0.0
C2571 C -0.00128 0.45675 0.29272 0.0
H2572 H 0.98695 0.43446 0.20237 0.0
C2573 C 0.94678 0.42399 0.26201 0.0
C2574 C 0.94298 0.42468 0.22326 0.0
C2575 C 0.95936 0.42946 0.27113 0.0
C2576 C 0.99013 0.44067 0.22767 0.0
H2577 H 0.04104 0.47615 0.35326 0.0
H2578 H 0.01911 0.46222 0.34068 0.0
H2579 H 0.00905 0.44594 0.21734 0.0
H2580 H 0.94928 0.43127 0.16341 0.0
H2581 H 0.97127 0.44069 0.17929 0.0
H2582 H 0.97976 0.45137 0.3031 0.0
C2583 C 0.0253 0.46605 0.31552 0.0
C2584 C 0.00279 0.44729 0.23618 0.0
C2585 C 0.03788 0.47396 0.32278 0.0
C2586 C 0.95196 0.43062 0.19355 0.0
C2587 C 0.96452 0.43594 0.20256 0.0
C2588 C 0.98607 0.45002 0.28448 0.0
C2589 C 0.02078 0.46319 0.27635 0.0
C2590 C 0.00726 0.45554 0.26855 0.0
C2591 C 0.96834 0.43556 0.24155 0.0
C2592 C 0.98167 0.44203 0.25163 0.0
H2593 H 0.04812 0.47976 0.22695 0.0
H2594 H 0.02612 0.46629 0.21411 0.0
H2595 H 0.00181 0.46318 0.31741 0.0
H2596 H 0.94005 0.41947 0.28548 0.0
H2597 H 0.96207 0.42897 0.30137 0.0
C2598 C 0.5703 0.52153 0.25723 0.0
C2599 C 0.56909 0.5173 0.21788 0.0
C2600 C 0.56579 0.52934 0.26825 0.0
C2601 C 0.55707 0.55138 0.22966 0.0
H2602 H 0.5347 0.54119 0.31967 0.0
C2603 C 0.52484 0.57123 0.25897 0.0
C2604 C 0.52157 0.57206 0.2983 0.0
C2605 C 0.53212 0.5659 0.25062 0.0
C2606 C 0.54113 0.54437 0.29499 0.0
H2607 H 0.56253 0.51817 0.15895 0.0
H2608 H 0.5548 0.53198 0.17814 0.0
H2609 H 0.54484 0.52949 0.30246 0.0
H2610 H 0.52385 0.56857 0.35993 0.0
H2611 H 0.53695 0.55969 0.34562 0.0
H2612 H 0.55347 0.56632 0.22224 0.0
C2613 C 0.55921 0.52922 0.20042 0.0
C2614 C 0.54689 0.5376 0.28505 0.0
C2615 C 0.56356 0.52127 0.18952 0.0
C2616 C 0.52615 0.56795 0.32929 0.0
C2617 C 0.53358 0.56277 0.32101 0.0
C2618 C 0.55144 0.55827 0.23991 0.0
C2619 C 0.56015 0.53321 0.23998 0.0
C2620 C 0.55477 0.54094 0.25198 0.0
C2621 C 0.53643 0.56141 0.2815 0.0
C2622 C 0.54324 0.55474 0.27237 0.0
H2623 H 0.57453 0.51861 0.2797 0.0
H2624 H 0.56669 0.53234 0.2989 0.0
H2625 H 0.56322 0.55422 0.20426 0.0
H2626 H 0.52138 0.57427 0.23446 0.0
H2627 H 0.53395 0.56487 0.21981 0.0
loop_
_geom_bond_atom_site_label_1
_geom_bond_atom_site_label_2
_geom_bond_distance
_geom_bond_site_symmetry_2
_ccdc_geom_bond_type
In0 O1 2.294 . S
In0 O2 2.326 . S
In0 O6 2.266 . S
In0 O7 2.326 . S
In0 O8 2.266 . S
In0 O9 2.326 . S
In0 O11 2.294 . S
In0 O12 2.326 . S
O1 In0 2.294 . S
O1 C10 1.240 . S
O2 In0 2.326 . S
O2 C10 1.252 . S
C3 O6 1.252 . S
C3 O7 1.260 . S
C4 O11 1.240 . S
C4 O12 1.252 . S
C5 O8 1.252 . S
C5 O9 1.260 . S
O6 In0 2.266 . S
O6 C3 1.252 . S
O7 In0 2.326 . S
O7 C3 1.260 . S
O8 In0 2.266 . S
O8 C5 1.252 . S
O9 In0 2.326 . S
O9 C5 1.260 . S
C10 O1 1.240 . S
C10 O2 1.252 . S
O11 In0 2.294 . S
O11 C4 1.240 . S
O12 In0 2.326 . S
O12 C4 1.252 . S
In13 O14 2.294 . S
In13 O15 2.326 . S
In13 O19 2.266 . S
In13 O20 2.326 . S
In13 O21 2.266 . S
In13 O22 2.326 . S
In13 O24 2.294 . S
In13 O25 2.326 . S
O14 In13 2.294 . S
O14 C23 1.240 . S
O15 In13 2.326 . S
O15 C23 1.252 . S
C16 O19 1.252 . S
C16 O20 1.260 . S
C17 O24 1.240 . S
C17 O25 1.252 . S
C18 O21 1.252 . S
C18 O22 1.260 . S
O19 In13 2.266 . S
O19 C16 1.252 . S
O20 In13 2.326 . S
O20 C16 1.260 . S
O21 In13 2.266 . S
O21 C18 1.252 . S
O22 In13 2.326 . S
O22 C18 1.260 . S
C23 O14 1.240 . S
C23 O15 1.252 . S
O24 In13 2.294 . S
O24 C17 1.240 . S
O25 In13 2.326 . S
O25 C17 1.252 . S
In26 O27 2.294 . S
In26 O28 2.326 . S
In26 O32 2.266 . S
In26 O33 2.326 . S
In26 O34 2.266 . S
In26 O35 2.326 . S
In26 O37 2.294 . S
In26 O38 2.326 . S
O27 In26 2.294 . S
O27 C36 1.240 . S
O28 In26 2.326 . S
O28 C36 1.252 . S
C29 O32 1.252 . S
C29 O33 1.260 . S
C30 O37 1.240 . S
C30 O38 1.252 . S
C31 O34 1.252 . S
C31 O35 1.260 . S
O32 In26 2.266 . S
O32 C29 1.252 . S
O33 In26 2.326 . S
O33 C29 1.260 . S
O34 In26 2.266 . S
O34 C31 1.252 . S
O35 In26 2.326 . S
O35 C31 1.260 . S
C36 O27 1.240 . S
C36 O28 1.252 . S
O37 In26 2.294 . S
O37 C30 1.240 . S
O38 In26 2.326 . S
O38 C30 1.252 . S
In39 O40 2.294 . S
In39 O41 2.326 . S
In39 O45 2.266 . S
In39 O46 2.326 . S
In39 O47 2.266 . S
In39 O48 2.326 . S
In39 O50 2.294 . S
In39 O51 2.326 . S
O40 In39 2.294 . S
O40 C49 1.240 . S
O41 In39 2.326 . S
O41 C49 1.252 . S
C42 O45 1.252 . S
C42 O46 1.260 . S
C43 O50 1.240 . S
C43 O51 1.252 . S
C44 O47 1.252 . S
C44 O48 1.260 . S
O45 In39 2.266 . S
O45 C42 1.252 . S
O46 In39 2.326 . S
O46 C42 1.260 . S
O47 In39 2.266 . S
O47 C44 1.252 . S
O48 In39 2.326 . S
O48 C44 1.260 . S
C49 O40 1.240 . S
C49 O41 1.252 . S
O50 In39 2.294 . S
O50 C43 1.240 . S
O51 In39 2.326 . S
O51 C43 1.252 . S
In52 O53 2.294 . S
In52 O54 2.326 . S
In52 O58 2.266 . S
In52 O59 2.326 . S
In52 O60 2.266 . S
In52 O61 2.326 . S
In52 O63 2.294 . S
In52 O64 2.326 . S
O53 In52 2.294 . S
O53 C62 1.240 . S
O54 In52 2.326 . S
O54 C62 1.252 . S
C55 O58 1.252 . S
C55 O59 1.260 . S
C56 O63 1.240 . S
C56 O64 1.252 . S
C57 O60 1.252 . S
C57 O61 1.260 . S
O58 In52 2.266 . S
O58 C55 1.252 . S
O59 In52 2.326 . S
O59 C55 1.260 . S
O60 In52 2.266 . S
O60 C57 1.252 . S
O61 In52 2.326 . S
O61 C57 1.260 . S
C62 O53 1.240 . S
C62 O54 1.252 . S
O63 In52 2.294 . S
O63 C56 1.240 . S
O64 In52 2.326 . S
O64 C56 1.252 . S
In65 O66 2.294 . S
In65 O67 2.326 . S
In65 O71 2.266 . S
In65 O72 2.326 . S
In65 O73 2.266 . S
In65 O74 2.326 . S
In65 O76 2.294 . S
In65 O77 2.326 . S
O66 In65 2.294 . S
O66 C75 1.240 . S
O67 In65 2.326 . S
O67 C75 1.252 . S
C68 O71 1.252 . S
C68 O72 1.260 . S
C69 O76 1.240 . S
C69 O77 1.252 . S
C70 O73 1.252 . S
C70 O74 1.260 . S
O71 In65 2.266 . S
O71 C68 1.252 . S
O72 In65 2.326 . S
O72 C68 1.260 . S
O73 In65 2.266 . S
O73 C70 1.252 . S
O74 In65 2.326 . S
O74 C70 1.260 . S
C75 O66 1.240 . S
C75 O67 1.252 . S
O76 In65 2.294 . S
O76 C69 1.240 . S
O77 In65 2.326 . S
O77 C69 1.252 . S
In78 O79 2.294 . S
In78 O80 2.326 . S
In78 O84 2.266 . S
In78 O85 2.326 . S
In78 O86 2.266 . S
In78 O87 2.326 . S
In78 O89 2.294 . S
In78 O90 2.326 . S
O79 In78 2.294 . S
O79 C88 1.240 . S
O80 In78 2.326 . S
O80 C88 1.252 . S
C81 O84 1.252 . S
C81 O85 1.260 . S
C82 O89 1.240 . S
C82 O90 1.252 . S
C83 O86 1.252 . S
C83 O87 1.260 . S
O84 In78 2.266 . S
O84 C81 1.252 . S
O85 In78 2.326 . S
O85 C81 1.260 . S
O86 In78 2.266 . S
O86 C83 1.252 . S
O87 In78 2.326 . S
O87 C83 1.260 . S
C88 O79 1.240 . S
C88 O80 1.252 . S
O89 In78 2.294 . S
O89 C82 1.240 . S
O90 In78 2.326 . S
O90 C82 1.252 . S
In91 O92 2.294 . S
In91 O93 2.326 . S
In91 O97 2.266 . S
In91 O98 2.326 . S
In91 O99 2.266 . S
In91 O100 2.326 . S
In91 O102 2.294 . S
In91 O103 2.326 . S
O92 In91 2.294 . S
O92 C101 1.240 . S
O93 In91 2.326 . S
O93 C101 1.252 . S
C94 O97 1.252 . S
C94 O98 1.260 . S
C95 O102 1.240 . S
C95 O103 1.252 . S
C96 O99 1.252 . S
C96 O100 1.260 . S
O97 In91 2.266 . S
O97 C94 1.252 . S
O98 In91 2.326 . S
O98 C94 1.260 . S
O99 In91 2.266 . S
O99 C96 1.252 . S
O100 In91 2.326 . S
O100 C96 1.260 . S
C101 O92 1.240 . S
C101 O93 1.252 . S
O102 In91 2.294 . S
O102 C95 1.240 . S
O103 In91 2.326 . S
O103 C95 1.252 . S
In104 O105 2.294 . S
In104 O106 2.326 . S
In104 O110 2.266 . S
In104 O111 2.326 . S
In104 O112 2.266 . S
In104 O113 2.326 . S
In104 O115 2.294 . S
In104 O116 2.326 . S
O105 In104 2.294 . S
O105 C114 1.240 . S
O106 In104 2.326 . S
O106 C114 1.252 . S
C107 O110 1.252 . S
C107 O111 1.260 . S
C108 O115 1.240 . S
C108 O116 1.252 . S
C109 O112 1.252 . S
C109 O113 1.260 . S
O110 In104 2.266 . S
O110 C107 1.252 . S
O111 In104 2.326 . S
O111 C107 1.260 . S
O112 In104 2.266 . S
O112 C109 1.252 . S
O113 In104 2.326 . S
O113 C109 1.260 . S
C114 O105 1.240 . S
C114 O106 1.252 . S
O115 In104 2.294 . S
O115 C108 1.240 . S
O116 In104 2.326 . S
O116 C108 1.252 . S
In117 O118 2.294 . S
In117 O119 2.326 . S
In117 O123 2.266 . S
In117 O124 2.326 . S
In117 O125 2.266 . S
In117 O126 2.326 . S
In117 O128 2.294 . S
In117 O129 2.326 . S
O118 In117 2.294 . S
O118 C127 1.240 . S
O119 In117 2.326 . S
O119 C127 1.252 . S
C120 O123 1.252 . S
C120 O124 1.260 . S
C121 O128 1.240 . S
C121 O129 1.252 . S
C122 O125 1.252 . S
C122 O126 1.260 . S
O123 In117 2.266 . S
O123 C120 1.252 . S
O124 In117 2.326 . S
O124 C120 1.260 . S
O125 In117 2.266 . S
O125 C122 1.252 . S
O126 In117 2.326 . S
O126 C122 1.260 . S
C127 O118 1.240 . S
C127 O119 1.252 . S
O128 In117 2.294 . S
O128 C121 1.240 . S
O129 In117 2.326 . S
O129 C121 1.252 . S
In130 O131 2.294 . S
In130 O132 2.326 . S
In130 O136 2.266 . S
In130 O137 2.326 . S
In130 O138 2.266 . S
In130 O139 2.326 . S
In130 O141 2.294 . S
In130 O142 2.326 . S
O131 In130 2.294 . S
O131 C140 1.240 . S
O132 In130 2.326 . S
O132 C140 1.252 . S
C133 O136 1.252 . S
C133 O137 1.260 . S
C134 O141 1.240 . S
C134 O142 1.252 . S
C135 O138 1.252 . S
C135 O139 1.260 . S
O136 In130 2.266 . S
O136 C133 1.252 . S
O137 In130 2.326 . S
O137 C133 1.260 . S
O138 In130 2.266 . S
O138 C135 1.252 . S
O139 In130 2.326 . S
O139 C135 1.260 . S
C140 O131 1.240 . S
C140 O132 1.252 . S
O141 In130 2.294 . S
O141 C134 1.240 . S
O142 In130 2.326 . S
O142 C134 1.252 . S
In143 O144 2.294 . S
In143 O145 2.326 . S
In143 O149 2.266 . S
In143 O150 2.326 . S
In143 O151 2.266 . S
In143 O152 2.326 . S
In143 O154 2.294 . S
In143 O155 2.326 . S
O144 In143 2.294 . S
O144 C153 1.240 . S
O145 In143 2.326 . S
O145 C153 1.252 . S
C146 O149 1.252 . S
C146 O150 1.260 . S
C147 O154 1.240 . S
C147 O155 1.252 . S
C148 O151 1.252 . S
C148 O152 1.260 . S
O149 In143 2.266 . S
O149 C146 1.252 . S
O150 In143 2.326 . S
O150 C146 1.260 . S
O151 In143 2.266 . S
O151 C148 1.252 . S
O152 In143 2.326 . S
O152 C148 1.260 . S
C153 O144 1.240 . S
C153 O145 1.252 . S
O154 In143 2.294 . S
O154 C147 1.240 . S
O155 In143 2.326 . S
O155 C147 1.252 . S
In156 O157 2.294 . S
In156 O158 2.326 . S
In156 O162 2.266 . S
In156 O163 2.326 . S
In156 O164 2.266 . S
In156 O165 2.326 . S
In156 O167 2.294 . S
In156 O168 2.326 . S
O157 In156 2.294 . S
O157 C166 1.240 . S
O158 In156 2.326 . S
O158 C166 1.252 . S
C159 O162 1.252 . S
C159 O163 1.260 . S
C160 O167 1.240 . S
C160 O168 1.252 . S
C161 O164 1.252 . S
C161 O165 1.260 . S
O162 In156 2.266 . S
O162 C159 1.252 . S
O163 In156 2.326 . S
O163 C159 1.260 . S
O164 In156 2.266 . S
O164 C161 1.252 . S
O165 In156 2.326 . S
O165 C161 1.260 . S
C166 O157 1.240 . S
C166 O158 1.252 . S
O167 In156 2.294 . S
O167 C160 1.240 . S
O168 In156 2.326 . S
O168 C160 1.252 . S
In169 O170 2.294 . S
In169 O171 2.326 . S
In169 O175 2.266 . S
In169 O176 2.326 . S
In169 O177 2.266 . S
In169 O178 2.326 . S
In169 O180 2.294 . S
In169 O181 2.326 . S
O170 In169 2.294 . S
O170 C179 1.240 . S
O171 In169 2.326 . S
O171 C179 1.252 . S
C172 O175 1.252 . S
C172 O176 1.260 . S
C173 O180 1.240 . S
C173 O181 1.252 . S
C174 O177 1.252 . S
C174 O178 1.260 . S
O175 In169 2.266 . S
O175 C172 1.252 . S
O176 In169 2.326 . S
O176 C172 1.260 . S
O177 In169 2.266 . S
O177 C174 1.252 . S
O178 In169 2.326 . S
O178 C174 1.260 . S
C179 O170 1.240 . S
C179 O171 1.252 . S
O180 In169 2.294 . S
O180 C173 1.240 . S
O181 In169 2.326 . S
O181 C173 1.252 . S
In182 O183 2.294 . S
In182 O184 2.326 . S
In182 O188 2.266 . S
In182 O189 2.326 . S
In182 O190 2.266 . S
In182 O191 2.326 . S
In182 O193 2.294 . S
In182 O194 2.326 . S
O183 In182 2.294 . S
O183 C192 1.240 . S
O184 In182 2.326 . S
O184 C192 1.252 . S
C185 O188 1.252 . S
C185 O189 1.260 . S
C186 O193 1.240 . S
C186 O194 1.252 . S
C187 O190 1.252 . S
C187 O191 1.260 . S
O188 In182 2.266 . S
O188 C185 1.252 . S
O189 In182 2.326 . S
O189 C185 1.260 . S
O190 In182 2.266 . S
O190 C187 1.252 . S
O191 In182 2.326 . S
O191 C187 1.260 . S
C192 O183 1.240 . S
C192 O184 1.252 . S
O193 In182 2.294 . S
O193 C186 1.240 . S
O194 In182 2.326 . S
O194 C186 1.252 . S
In195 O196 2.294 . S
In195 O197 2.326 . S
In195 O201 2.266 . S
In195 O202 2.326 . S
In195 O203 2.266 . S
In195 O204 2.326 . S
In195 O206 2.294 . S
In195 O207 2.326 . S
O196 In195 2.294 . S
O196 C205 1.240 . S
O197 In195 2.326 . S
O197 C205 1.252 . S
C198 O201 1.252 . S
C198 O202 1.260 . S
C199 O206 1.240 . S
C199 O207 1.252 . S
C200 O203 1.252 . S
C200 O204 1.260 . S
O201 In195 2.266 . S
O201 C198 1.252 . S
O202 In195 2.326 . S
O202 C198 1.260 . S
O203 In195 2.266 . S
O203 C200 1.252 . S
O204 In195 2.326 . S
O204 C200 1.260 . S
C205 O196 1.240 . S
C205 O197 1.252 . S
O206 In195 2.294 . S
O206 C199 1.240 . S
O207 In195 2.326 . S
O207 C199 1.252 . S
In208 O209 2.294 . S
In208 O210 2.326 . S
In208 O214 2.266 . S
In208 O215 2.326 . S
In208 O216 2.266 . S
In208 O217 2.326 . S
In208 O219 2.294 . S
In208 O220 2.326 . S
O209 In208 2.294 . S
O209 C218 1.240 . S
O210 In208 2.326 . S
O210 C218 1.252 . S
C211 O214 1.252 . S
C211 O215 1.260 . S
C212 O219 1.240 . S
C212 O220 1.252 . S
C213 O216 1.252 . S
C213 O217 1.260 . S
O214 In208 2.266 . S
O214 C211 1.252 . S
O215 In208 2.326 . S
O215 C211 1.260 . S
O216 In208 2.266 . S
O216 C213 1.252 . S
O217 In208 2.326 . S
O217 C213 1.260 . S
C218 O209 1.240 . S
C218 O210 1.252 . S
O219 In208 2.294 . S
O219 C212 1.240 . S
O220 In208 2.326 . S
O220 C212 1.252 . S
In221 O222 2.294 . S
In221 O223 2.326 . S
In221 O227 2.266 . S
In221 O228 2.326 . S
In221 O229 2.266 . S
In221 O230 2.326 . S
In221 O232 2.294 . S
In221 O233 2.326 . S
O222 In221 2.294 . S
O222 C231 1.240 . S
O223 In221 2.326 . S
O223 C231 1.252 . S
C224 O227 1.252 . S
C224 O228 1.260 . S
C225 O232 1.240 . S
C225 O233 1.252 . S
C226 O229 1.252 . S
C226 O230 1.260 . S
O227 In221 2.266 . S
O227 C224 1.252 . S
O228 In221 2.326 . S
O228 C224 1.260 . S
O229 In221 2.266 . S
O229 C226 1.252 . S
O230 In221 2.326 . S
O230 C226 1.260 . S
C231 O222 1.240 . S
C231 O223 1.252 . S
O232 In221 2.294 . S
O232 C225 1.240 . S
O233 In221 2.326 . S
O233 C225 1.252 . S
In234 O235 2.294 . S
In234 O236 2.326 . S
In234 O240 2.266 . S
In234 O241 2.326 . S
In234 O242 2.266 . S
In234 O243 2.326 . S
In234 O245 2.294 . S
In234 O246 2.326 . S
O235 In234 2.294 . S
O235 C244 1.240 . S
O236 In234 2.326 . S
O236 C244 1.252 . S
C237 O240 1.252 . S
C237 O241 1.260 . S
C238 O245 1.240 . S
C238 O246 1.252 . S
C239 O242 1.252 . S
C239 O243 1.260 . S
O240 In234 2.266 . S
O240 C237 1.252 . S
O241 In234 2.326 . S
O241 C237 1.260 . S
O242 In234 2.266 . S
O242 C239 1.252 . S
O243 In234 2.326 . S
O243 C239 1.260 . S
C244 O235 1.240 . S
C244 O236 1.252 . S
O245 In234 2.294 . S
O245 C238 1.240 . S
O246 In234 2.326 . S
O246 C238 1.252 . S
In247 O248 2.294 . S
In247 O249 2.326 . S
In247 O253 2.266 . S
In247 O254 2.326 . S
In247 O255 2.266 . S
In247 O256 2.326 . S
In247 O258 2.294 . S
In247 O259 2.326 . S
O248 In247 2.294 . S
O248 C257 1.240 . S
O249 In247 2.326 . S
O249 C257 1.252 . S
C250 O253 1.252 . S
C250 O254 1.260 . S
C251 O258 1.240 . S
C251 O259 1.252 . S
C252 O255 1.252 . S
C252 O256 1.260 . S
O253 In247 2.266 . S
O253 C250 1.252 . S
O254 In247 2.326 . S
O254 C250 1.260 . S
O255 In247 2.266 . S
O255 C252 1.252 . S
O256 In247 2.326 . S
O256 C252 1.260 . S
C257 O248 1.240 . S
C257 O249 1.252 . S
O258 In247 2.294 . S
O258 C251 1.240 . S
O259 In247 2.326 . S
O259 C251 1.252 . S
In260 O261 2.294 . S
In260 O262 2.326 . S
In260 O266 2.266 . S
In260 O267 2.326 . S
In260 O268 2.266 . S
In260 O269 2.326 . S
In260 O271 2.294 . S
In260 O272 2.326 . S
O261 In260 2.294 . S
O261 C270 1.240 . S
O262 In260 2.326 . S
O262 C270 1.252 . S
C263 O266 1.252 . S
C263 O267 1.260 . S
C264 O271 1.240 . S
C264 O272 1.252 . S
C265 O268 1.252 . S
C265 O269 1.260 . S
O266 In260 2.266 . S
O266 C263 1.252 . S
O267 In260 2.326 . S
O267 C263 1.260 . S
O268 In260 2.266 . S
O268 C265 1.252 . S
O269 In260 2.326 . S
O269 C265 1.260 . S
C270 O261 1.240 . S
C270 O262 1.252 . S
O271 In260 2.294 . S
O271 C264 1.240 . S
O272 In260 2.326 . S
O272 C264 1.252 . S
In273 O274 2.297 . S
In273 O275 2.328 . S
In273 O279 2.266 1_554 S
In273 O280 2.323 1_554 S
In273 O281 2.263 1_554 S
In273 O282 2.324 1_554 S
In273 O284 2.294 . S
In273 O285 2.329 . S
O274 In273 2.297 . S
O274 C283 1.240 . S
O275 In273 2.328 . S
O275 C283 1.252 . S
C276 O279 1.252 . S
C276 O280 1.260 . S
C277 O284 1.240 . S
C277 O285 1.252 . S
C278 O281 1.252 . S
C278 O282 1.260 . S
O279 In273 2.266 1_556 S
O279 C276 1.252 . S
O280 In273 2.323 1_556 S
O280 C276 1.260 . S
O281 In273 2.263 1_556 S
O281 C278 1.252 . S
O282 In273 2.324 1_556 S
O282 C278 1.260 . S
C283 O274 1.240 . S
C283 O275 1.252 . S
O284 In273 2.294 . S
O284 C277 1.240 . S
O285 In273 2.329 . S
O285 C277 1.252 . S
In286 O287 2.294 . S
In286 O288 2.329 . S
In286 O292 2.263 1_554 S
In286 O293 2.324 1_554 S
In286 O294 2.266 1_554 S
In286 O295 2.323 1_554 S
In286 O297 2.297 . S
In286 O298 2.328 . S
O287 In286 2.294 . S
O287 C296 1.240 . S
O288 In286 2.329 . S
O288 C296 1.252 . S
C289 O292 1.252 . S
C289 O293 1.260 . S
C290 O297 1.240 . S
C290 O298 1.252 . S
C291 O294 1.252 . S
C291 O295 1.260 . S
O292 In286 2.263 1_556 S
O292 C289 1.252 . S
O293 In286 2.324 1_556 S
O293 C289 1.260 . S
O294 In286 2.266 1_556 S
O294 C291 1.252 . S
O295 In286 2.323 1_556 S
O295 C291 1.260 . S
C296 O287 1.240 . S
C296 O288 1.252 . S
O297 In286 2.297 . S
O297 C290 1.240 . S
O298 In286 2.328 . S
O298 C290 1.252 . S
In299 O300 2.294 . S
In299 O301 2.329 . S
In299 O305 2.263 1_554 S
In299 O306 2.324 1_554 S
In299 O307 2.266 1_554 S
In299 O308 2.323 1_554 S
In299 O310 2.297 . S
In299 O311 2.328 . S
O300 In299 2.294 . S
O300 C309 1.240 . S
O301 In299 2.329 . S
O301 C309 1.252 . S
C302 O305 1.252 . S
C302 O306 1.260 . S
C303 O310 1.240 . S
C303 O311 1.252 . S
C304 O307 1.252 . S
C304 O308 1.260 . S
O305 In299 2.263 1_556 S
O305 C302 1.252 . S
O306 In299 2.324 1_556 S
O306 C302 1.260 . S
O307 In299 2.266 1_556 S
O307 C304 1.252 . S
O308 In299 2.323 1_556 S
O308 C304 1.260 . S
C309 O300 1.240 . S
C309 O301 1.252 . S
O310 In299 2.297 . S
O310 C303 1.240 . S
O311 In299 2.328 . S
O311 C303 1.252 . S
In312 O313 2.294 . S
In312 O314 2.326 . S
In312 O318 2.266 . S
In312 O319 2.326 . S
In312 O320 2.266 . S
In312 O321 2.326 . S
In312 O323 2.294 . S
In312 O324 2.326 . S
O313 In312 2.294 . S
O313 C322 1.240 . S
O314 In312 2.326 . S
O314 C322 1.252 . S
C315 O318 1.252 . S
C315 O319 1.260 . S
C316 O323 1.240 . S
C316 O324 1.252 . S
C317 O320 1.252 . S
C317 O321 1.260 . S
O318 In312 2.266 . S
O318 C315 1.252 . S
O319 In312 2.326 . S
O319 C315 1.260 . S
O320 In312 2.266 . S
O320 C317 1.252 . S
O321 In312 2.326 . S
O321 C317 1.260 . S
C322 O313 1.240 . S
C322 O314 1.252 . S
O323 In312 2.294 . S
O323 C316 1.240 . S
O324 In312 2.326 . S
O324 C316 1.252 . S
In325 O326 2.294 . S
In325 O327 2.326 . S
In325 O331 2.266 . S
In325 O332 2.326 . S
In325 O333 2.266 . S
In325 O334 2.326 . S
In325 O336 2.294 . S
In325 O337 2.326 . S
O326 In325 2.294 . S
O326 C335 1.240 . S
O327 In325 2.326 . S
O327 C335 1.252 . S
C328 O331 1.252 . S
C328 O332 1.260 . S
C329 O336 1.240 . S
C329 O337 1.252 . S
C330 O333 1.252 . S
C330 O334 1.260 . S
O331 In325 2.266 . S
O331 C328 1.252 . S
O332 In325 2.326 . S
O332 C328 1.260 . S
O333 In325 2.266 . S
O333 C330 1.252 . S
O334 In325 2.326 . S
O334 C330 1.260 . S
C335 O326 1.240 . S
C335 O327 1.252 . S
O336 In325 2.294 . S
O336 C329 1.240 . S
O337 In325 2.326 . S
O337 C329 1.252 . S
In338 O339 2.294 . S
In338 O340 2.326 . S
In338 O344 2.266 . S
In338 O345 2.326 . S
In338 O346 2.266 . S
In338 O347 2.326 . S
In338 O349 2.294 . S
In338 O350 2.326 . S
O339 In338 2.294 . S
O339 C348 1.240 . S
O340 In338 2.326 . S
O340 C348 1.252 . S
C341 O344 1.252 . S
C341 O345 1.260 . S
C342 O349 1.240 . S
C342 O350 1.252 . S
C343 O346 1.252 . S
C343 O347 1.260 . S
O344 In338 2.266 . S
O344 C341 1.252 . S
O345 In338 2.326 . S
O345 C341 1.260 . S
O346 In338 2.266 . S
O346 C343 1.252 . S
O347 In338 2.326 . S
O347 C343 1.260 . S
C348 O339 1.240 . S
C348 O340 1.252 . S
O349 In338 2.294 . S
O349 C342 1.240 . S
O350 In338 2.326 . S
O350 C342 1.252 . S
In351 O352 2.294 . S
In351 O353 2.329 . S
In351 O357 2.263 1_556 S
In351 O358 2.324 1_556 S
In351 O359 2.266 1_556 S
In351 O360 2.323 1_556 S
In351 O362 2.297 . S
In351 O363 2.328 . S
O352 In351 2.294 . S
O352 C361 1.240 . S
O353 In351 2.329 . S
O353 C361 1.252 . S
C354 O357 1.252 . S
C354 O358 1.260 . S
C355 O362 1.240 . S
C355 O363 1.252 . S
C356 O359 1.252 . S
C356 O360 1.260 . S
O357 In351 2.263 1_554 S
O357 C354 1.252 . S
O358 In351 2.324 1_554 S
O358 C354 1.260 . S
O359 In351 2.266 1_554 S
O359 C356 1.252 . S
O360 In351 2.323 1_554 S
O360 C356 1.260 . S
C361 O352 1.240 . S
C361 O353 1.252 . S
O362 In351 2.297 . S
O362 C355 1.240 . S
O363 In351 2.328 . S
O363 C355 1.252 . S
In364 O365 2.297 . S
In364 O366 2.328 . S
In364 O370 2.266 1_556 S
In364 O371 2.323 1_556 S
In364 O372 2.263 1_556 S
In364 O373 2.324 1_556 S
In364 O375 2.294 . S
In364 O376 2.329 . S
O365 In364 2.297 . S
O365 C374 1.240 . S
O366 In364 2.328 . S
O366 C374 1.252 . S
C367 O370 1.252 . S
C367 O371 1.260 . S
C368 O375 1.240 . S
C368 O376 1.252 . S
C369 O372 1.252 . S
C369 O373 1.260 . S
O370 In364 2.266 1_554 S
O370 C367 1.252 . S
O371 In364 2.323 1_554 S
O371 C367 1.260 . S
O372 In364 2.263 1_554 S
O372 C369 1.252 . S
O373 In364 2.324 1_554 S
O373 C369 1.260 . S
C374 O365 1.240 . S
C374 O366 1.252 . S
O375 In364 2.294 . S
O375 C368 1.240 . S
O376 In364 2.329 . S
O376 C368 1.252 . S
In377 O378 2.297 . S
In377 O379 2.328 . S
In377 O383 2.266 1_556 S
In377 O384 2.323 1_556 S
In377 O385 2.263 1_556 S
In377 O386 2.324 1_556 S
In377 O388 2.294 . S
In377 O389 2.329 . S
O378 In377 2.297 . S
O378 C387 1.240 . S
O379 In377 2.328 . S
O379 C387 1.252 . S
C380 O383 1.252 . S
C380 O384 1.260 . S
C381 O388 1.240 . S
C381 O389 1.252 . S
C382 O385 1.252 . S
C382 O386 1.260 . S
O383 In377 2.266 1_554 S
O383 C380 1.252 . S
O384 In377 2.323 1_554 S
O384 C380 1.260 . S
O385 In377 2.263 1_554 S
O385 C382 1.252 . S
O386 In377 2.324 1_554 S
O386 C382 1.260 . S
C387 O378 1.240 . S
C387 O379 1.252 . S
O388 In377 2.294 . S
O388 C381 1.240 . S
O389 In377 2.329 . S
O389 C381 1.252 . S
In390 O391 2.294 . S
In390 O392 2.326 . S
In390 O396 2.266 . S
In390 O397 2.326 . S
In390 O398 2.266 . S
In390 O399 2.326 . S
In390 O401 2.294 . S
In390 O402 2.326 . S
O391 In390 2.294 . S
O391 C400 1.240 . S
O392 In390 2.326 . S
O392 C400 1.252 . S
C393 O396 1.252 . S
C393 O397 1.260 . S
C394 O401 1.240 . S
C394 O402 1.252 . S
C395 O398 1.252 . S
C395 O399 1.260 . S
O396 In390 2.266 . S
O396 C393 1.252 . S
O397 In390 2.326 . S
O397 C393 1.260 . S
O398 In390 2.266 . S
O398 C395 1.252 . S
O399 In390 2.326 . S
O399 C395 1.260 . S
C400 O391 1.240 . S
C400 O392 1.252 . S
O401 In390 2.294 . S
O401 C394 1.240 . S
O402 In390 2.326 . S
O402 C394 1.252 . S
In403 O404 2.294 . S
In403 O405 2.326 . S
In403 O409 2.266 . S
In403 O410 2.326 . S
In403 O411 2.266 . S
In403 O412 2.326 . S
In403 O414 2.294 . S
In403 O415 2.326 . S
O404 In403 2.294 . S
O404 C413 1.240 . S
O405 In403 2.326 . S
O405 C413 1.252 . S
C406 O409 1.252 . S
C406 O410 1.260 . S
C407 O414 1.240 . S
C407 O415 1.252 . S
C408 O411 1.252 . S
C408 O412 1.260 . S
O409 In403 2.266 . S
O409 C406 1.252 . S
O410 In403 2.326 . S
O410 C406 1.260 . S
O411 In403 2.266 . S
O411 C408 1.252 . S
O412 In403 2.326 . S
O412 C408 1.260 . S
C413 O404 1.240 . S
C413 O405 1.252 . S
O414 In403 2.294 . S
O414 C407 1.240 . S
O415 In403 2.326 . S
O415 C407 1.252 . S
In416 O417 2.294 . S
In416 O418 2.326 . S
In416 O422 2.266 . S
In416 O423 2.326 . S
In416 O424 2.266 . S
In416 O425 2.326 . S
In416 O427 2.294 . S
In416 O428 2.326 . S
O417 In416 2.294 . S
O417 C426 1.240 . S
O418 In416 2.326 . S
O418 C426 1.252 . S
C419 O422 1.252 . S
C419 O423 1.260 . S
C420 O427 1.240 . S
C420 O428 1.252 . S
C421 O424 1.252 . S
C421 O425 1.260 . S
O422 In416 2.266 . S
O422 C419 1.252 . S
O423 In416 2.326 . S
O423 C419 1.260 . S
O424 In416 2.266 . S
O424 C421 1.252 . S
O425 In416 2.326 . S
O425 C421 1.260 . S
C426 O417 1.240 . S
C426 O418 1.252 . S
O427 In416 2.294 . S
O427 C420 1.240 . S
O428 In416 2.326 . S
O428 C420 1.252 . S
In429 O430 2.294 . S
In429 O431 2.326 . S
In429 O435 2.266 . S
In429 O436 2.326 . S
In429 O437 2.266 . S
In429 O438 2.326 . S
In429 O440 2.294 . S
In429 O441 2.326 . S
O430 In429 2.294 . S
O430 C439 1.240 . S
O431 In429 2.326 . S
O431 C439 1.252 . S
C432 O435 1.252 . S
C432 O436 1.260 . S
C433 O440 1.240 . S
C433 O441 1.252 . S
C434 O437 1.252 . S
C434 O438 1.260 . S
O435 In429 2.266 . S
O435 C432 1.252 . S
O436 In429 2.326 . S
O436 C432 1.260 . S
O437 In429 2.266 . S
O437 C434 1.252 . S
O438 In429 2.326 . S
O438 C434 1.260 . S
C439 O430 1.240 . S
C439 O431 1.252 . S
O440 In429 2.294 . S
O440 C433 1.240 . S
O441 In429 2.326 . S
O441 C433 1.252 . S
In442 O443 2.294 . S
In442 O444 2.326 . S
In442 O448 2.266 . S
In442 O449 2.326 . S
In442 O450 2.266 . S
In442 O451 2.326 . S
In442 O453 2.294 . S
In442 O454 2.326 . S
O443 In442 2.294 . S
O443 C452 1.240 . S
O444 In442 2.326 . S
O444 C452 1.252 . S
C445 O448 1.252 . S
C445 O449 1.260 . S
C446 O453 1.240 . S
C446 O454 1.252 . S
C447 O450 1.252 . S
C447 O451 1.260 . S
O448 In442 2.266 . S
O448 C445 1.252 . S
O449 In442 2.326 . S
O449 C445 1.260 . S
O450 In442 2.266 . S
O450 C447 1.252 . S
O451 In442 2.326 . S
O451 C447 1.260 . S
C452 O443 1.240 . S
C452 O444 1.252 . S
O453 In442 2.294 . S
O453 C446 1.240 . S
O454 In442 2.326 . S
O454 C446 1.252 . S
In455 O456 2.294 . S
In455 O457 2.326 . S
In455 O461 2.266 . S
In455 O462 2.326 . S
In455 O463 2.266 . S
In455 O464 2.326 . S
In455 O466 2.294 . S
In455 O467 2.326 . S
O456 In455 2.294 . S
O456 C465 1.240 . S
O457 In455 2.326 . S
O457 C465 1.252 . S
C458 O461 1.252 . S
C458 O462 1.260 . S
C459 O466 1.240 . S
C459 O467 1.252 . S
C460 O463 1.252 . S
C460 O464 1.260 . S
O461 In455 2.266 . S
O461 C458 1.252 . S
O462 In455 2.326 . S
O462 C458 1.260 . S
O463 In455 2.266 . S
O463 C460 1.252 . S
O464 In455 2.326 . S
O464 C460 1.260 . S
C465 O456 1.240 . S
C465 O457 1.252 . S
O466 In455 2.294 . S
O466 C459 1.240 . S
O467 In455 2.326 . S
O467 C459 1.252 . S
C468 C469 1.349 . S
C468 C470 1.327 . S
C468 H493 0.950 . S
C469 C468 1.349 . S
C469 C485 1.349 . S
C470 C468 1.327 . S
C470 C489 1.429 . S
C470 H494 0.950 . S
C471 C488 1.574 . S
C471 C490 1.368 . S
C471 H495 0.949 . S
H472 C476 0.949 . S
C473 C474 1.349 . S
C473 C475 1.327 . S
C473 H496 0.950 . S
C474 C473 1.349 . S
C474 C486 1.349 . S
C475 C473 1.327 . S
C475 C491 1.429 . S
C475 H497 0.950 . S
C476 H472 0.949 . S
C476 C484 1.574 . S
C476 C492 1.368 . S
H477 C485 0.950 . S
H478 C483 0.950 . S
H479 C484 0.949 . S
H480 C486 0.950 . S
H481 C487 0.950 . S
H482 C488 0.949 . S
C483 H478 0.950 . S
C483 C485 1.327 . S
C483 C489 1.429 . S
C484 C476 1.574 . S
C484 H479 0.949 . S
C484 C490 1.368 . S
C485 C469 1.349 . S
C485 H477 0.950 . S
C485 C483 1.327 . S
C486 C474 1.349 . S
C486 H480 0.950 . S
C486 C487 1.327 . S
C487 H481 0.950 . S
C487 C486 1.327 . S
C487 C491 1.429 . S
C488 C471 1.574 . S
C488 H482 0.949 . S
C488 C492 1.368 . S
C489 C470 1.429 . S
C489 C483 1.429 . S
C489 C490 1.523 . S
C490 C471 1.368 . S
C490 C484 1.368 . S
C490 C489 1.523 . S
C491 C475 1.429 . S
C491 C487 1.429 . S
C491 C492 1.523 . S
C492 C476 1.368 . S
C492 C488 1.368 . S
C492 C491 1.523 . S
H493 C468 0.950 . S
H494 C470 0.950 . S
H495 C471 0.949 . S
H496 C473 0.950 . S
H497 C475 0.950 . S
C498 C499 1.349 . S
C498 C500 1.327 . S
C498 H523 0.950 . S
C499 C498 1.349 . S
C499 C515 1.349 . S
C500 C498 1.327 . S
C500 C519 1.429 . S
C500 H524 0.950 . S
C501 C518 1.574 1_545 S
C501 C520 1.368 . S
C501 H525 0.949 . S
H502 C506 0.949 . S
C503 C504 1.349 . S
C503 C505 1.327 . S
C503 H526 0.950 . S
C504 C503 1.349 . S
C504 C516 1.349 . S
C505 C503 1.327 . S
C505 C521 1.429 . S
C505 H527 0.950 . S
C506 H502 0.949 . S
C506 C514 1.574 1_565 S
C506 C522 1.368 . S
H507 C515 0.950 . S
H508 C513 0.950 . S
H509 C514 0.949 . S
H510 C516 0.950 . S
H511 C517 0.950 . S
H512 C518 0.949 . S
C513 H508 0.950 . S
C513 C515 1.327 . S
C513 C519 1.429 . S
C514 C506 1.574 1_545 S
C514 H509 0.949 . S
C514 C520 1.368 . S
C515 C499 1.349 . S
C515 H507 0.950 . S
C515 C513 1.327 . S
C516 C504 1.349 . S
C516 H510 0.950 . S
C516 C517 1.327 . S
C517 H511 0.950 . S
C517 C516 1.327 . S
C517 C521 1.429 . S
C518 C501 1.574 1_565 S
C518 H512 0.949 . S
C518 C522 1.368 . S
C519 C500 1.429 . S
C519 C513 1.429 . S
C519 C520 1.523 . S
C520 C501 1.368 . S
C520 C514 1.368 . S
C520 C519 1.523 . S
C521 C505 1.429 . S
C521 C517 1.429 . S
C521 C522 1.523 . S
C522 C506 1.368 . S
C522 C518 1.368 . S
C522 C521 1.523 . S
H523 C498 0.950 . S
H524 C500 0.950 . S
H525 C501 0.949 . S
H526 C503 0.950 . S
H527 C505 0.950 . S
C528 C529 1.349 . S
C528 C530 1.327 . S
C528 H553 0.950 . S
C529 C528 1.349 . S
C529 C545 1.349 . S
C530 C528 1.327 . S
C530 C549 1.429 . S
C530 H554 0.950 . S
C531 C548 1.574 1_655 S
C531 C550 1.368 . S
C531 H555 0.949 . S
H532 C536 0.949 . S
C533 C534 1.349 . S
C533 C535 1.327 . S
C533 H556 0.950 . S
C534 C533 1.349 . S
C534 C546 1.349 . S
C535 C533 1.327 . S
C535 C551 1.429 . S
C535 H557 0.950 . S
C536 H532 0.949 . S
C536 C544 1.574 1_455 S
C536 C552 1.368 . S
H537 C545 0.950 . S
H538 C543 0.950 . S
H539 C544 0.949 . S
H540 C546 0.950 . S
H541 C547 0.950 . S
H542 C548 0.949 . S
C543 H538 0.950 . S
C543 C545 1.327 . S
C543 C549 1.429 . S
C544 C536 1.574 1_655 S
C544 H539 0.949 . S
C544 C550 1.368 . S
C545 C529 1.349 . S
C545 H537 0.950 . S
C545 C543 1.327 . S
C546 C534 1.349 . S
C546 H540 0.950 . S
C546 C547 1.327 . S
C547 H541 0.950 . S
C547 C546 1.327 . S
C547 C551 1.429 . S
C548 C531 1.574 1_455 S
C548 H542 0.949 . S
C548 C552 1.368 . S
C549 C530 1.429 . S
C549 C543 1.429 . S
C549 C550 1.523 . S
C550 C531 1.368 . S
C550 C544 1.368 . S
C550 C549 1.523 . S
C551 C535 1.429 . S
C551 C547 1.429 . S
C551 C552 1.523 . S
C552 C536 1.368 . S
C552 C548 1.368 . S
C552 C551 1.523 . S
H553 C528 0.950 . S
H554 C530 0.950 . S
H555 C531 0.949 . S
H556 C533 0.950 . S
H557 C535 0.950 . S
C558 C559 1.349 . S
C558 C560 1.327 . S
C558 H583 0.950 . S
C559 C558 1.349 . S
C559 C575 1.349 . S
C560 C558 1.327 . S
C560 C579 1.429 . S
C560 H584 0.950 . S
C561 C578 1.574 . S
C561 C580 1.368 . S
C561 H585 0.949 . S
H562 C566 0.949 . S
C563 C564 1.349 . S
C563 C565 1.327 . S
C563 H586 0.950 . S
C564 C563 1.349 . S
C564 C576 1.349 . S
C565 C563 1.327 . S
C565 C581 1.429 . S
C565 H587 0.950 . S
C566 H562 0.949 . S
C566 C574 1.574 . S
C566 C582 1.368 . S
H567 C575 0.950 . S
H568 C573 0.950 . S
H569 C574 0.949 . S
H570 C576 0.950 . S
H571 C577 0.950 . S
H572 C578 0.949 . S
C573 H568 0.950 . S
C573 C575 1.327 . S
C573 C579 1.429 . S
C574 C566 1.574 . S
C574 H569 0.949 . S
C574 C580 1.368 . S
C575 C559 1.349 . S
C575 H567 0.950 . S
C575 C573 1.327 . S
C576 C564 1.349 . S
C576 H570 0.950 . S
C576 C577 1.327 . S
C577 H571 0.950 . S
C577 C576 1.327 . S
C577 C581 1.429 . S
C578 C561 1.574 . S
C578 H572 0.949 . S
C578 C582 1.368 . S
C579 C560 1.429 . S
C579 C573 1.429 . S
C579 C580 1.523 . S
C580 C561 1.368 . S
C580 C574 1.368 . S
C580 C579 1.523 . S
C581 C565 1.429 . S
C581 C577 1.429 . S
C581 C582 1.523 . S
C582 C566 1.368 . S
C582 C578 1.368 . S
C582 C581 1.523 . S
H583 C558 0.950 . S
H584 C560 0.950 . S
H585 C561 0.949 . S
H586 C563 0.950 . S
H587 C565 0.950 . S
C588 C589 1.349 . S
C588 C590 1.327 . S
C588 H613 0.950 . S
C589 C588 1.349 . S
C589 C605 1.349 . S
C590 C588 1.327 . S
C590 C609 1.429 . S
C590 H614 0.950 . S
C591 C608 1.574 1_545 S
C591 C610 1.368 . S
C591 H615 0.949 . S
H592 C596 0.949 . S
C593 C594 1.349 . S
C593 C595 1.327 . S
C593 H616 0.950 . S
C594 C593 1.349 . S
C594 C606 1.349 . S
C595 C593 1.327 . S
C595 C611 1.429 . S
C595 H617 0.950 . S
C596 H592 0.949 . S
C596 C604 1.574 1_565 S
C596 C612 1.368 . S
H597 C605 0.950 . S
H598 C603 0.950 . S
H599 C604 0.949 . S
H600 C606 0.950 . S
H601 C607 0.950 . S
H602 C608 0.949 . S
C603 H598 0.950 . S
C603 C605 1.327 . S
C603 C609 1.429 . S
C604 C596 1.574 1_545 S
C604 H599 0.949 . S
C604 C610 1.368 . S
C605 C589 1.349 . S
C605 H597 0.950 . S
C605 C603 1.327 . S
C606 C594 1.349 . S
C606 H600 0.950 . S
C606 C607 1.327 . S
C607 H601 0.950 . S
C607 C606 1.327 . S
C607 C611 1.429 . S
C608 C591 1.574 1_565 S
C608 H602 0.949 . S
C608 C612 1.368 . S
C609 C590 1.429 . S
C609 C603 1.429 . S
C609 C610 1.523 . S
C610 C591 1.368 . S
C610 C604 1.368 . S
C610 C609 1.523 . S
C611 C595 1.429 . S
C611 C607 1.429 . S
C611 C612 1.523 . S
C612 C596 1.368 . S
C612 C608 1.368 . S
C612 C611 1.523 . S
H613 C588 0.950 . S
H614 C590 0.950 . S
H615 C591 0.949 . S
H616 C593 0.950 . S
H617 C595 0.950 . S
C618 C619 1.349 . S
C618 C620 1.327 . S
C618 H643 0.950 . S
C619 C618 1.349 . S
C619 C635 1.349 . S
C620 C618 1.327 . S
C620 C639 1.429 . S
C620 H644 0.950 . S
C621 C638 1.574 1_455 S
C621 C640 1.368 . S
C621 H645 0.949 . S
H622 C626 0.949 . S
C623 C624 1.349 . S
C623 C625 1.327 . S
C623 H646 0.950 . S
C624 C623 1.349 . S
C624 C636 1.349 . S
C625 C623 1.327 . S
C625 C641 1.429 . S
C625 H647 0.950 . S
C626 H622 0.949 . S
C626 C634 1.574 1_655 S
C626 C642 1.368 . S
H627 C635 0.950 . S
H628 C633 0.950 . S
H629 C634 0.949 . S
H630 C636 0.950 . S
H631 C637 0.950 . S
H632 C638 0.949 . S
C633 H628 0.950 . S
C633 C635 1.327 . S
C633 C639 1.429 . S
C634 C626 1.574 1_455 S
C634 H629 0.949 . S
C634 C640 1.368 . S
C635 C619 1.349 . S
C635 H627 0.950 . S
C635 C633 1.327 . S
C636 C624 1.349 . S
C636 H630 0.950 . S
C636 C637 1.327 . S
C637 H631 0.950 . S
C637 C636 1.327 . S
C637 C641 1.429 . S
C638 C621 1.574 1_655 S
C638 H632 0.949 . S
C638 C642 1.368 . S
C639 C620 1.429 . S
C639 C633 1.429 . S
C639 C640 1.523 . S
C640 C621 1.368 . S
C640 C634 1.368 . S
C640 C639 1.523 . S
C641 C625 1.429 . S
C641 C637 1.429 . S
C641 C642 1.523 . S
C642 C626 1.368 . S
C642 C638 1.368 . S
C642 C641 1.523 . S
H643 C618 0.950 . S
H644 C620 0.950 . S
H645 C621 0.949 . S
H646 C623 0.950 . S
H647 C625 0.950 . S
C648 C649 1.349 . S
C648 C650 1.327 . S
C648 H673 0.950 . S
C649 C648 1.349 . S
C649 C665 1.349 . S
C650 C648 1.327 . S
C650 C669 1.429 . S
C650 H674 0.950 . S
C651 C668 1.574 . S
C651 C670 1.368 . S
C651 H675 0.949 . S
H652 C656 0.949 . S
C653 C654 1.349 . S
C653 C655 1.327 . S
C653 H676 0.950 . S
C654 C653 1.349 . S
C654 C666 1.349 . S
C655 C653 1.327 . S
C655 C671 1.429 . S
C655 H677 0.950 . S
C656 H652 0.949 . S
C656 C664 1.574 . S
C656 C672 1.368 . S
H657 C665 0.950 . S
H658 C663 0.950 . S
H659 C664 0.949 . S
H660 C666 0.950 . S
H661 C667 0.950 . S
H662 C668 0.949 . S
C663 H658 0.950 . S
C663 C665 1.327 . S
C663 C669 1.429 . S
C664 C656 1.574 . S
C664 H659 0.949 . S
C664 C670 1.368 . S
C665 C649 1.349 . S
C665 H657 0.950 . S
C665 C663 1.327 . S
C666 C654 1.349 . S
C666 H660 0.950 . S
C666 C667 1.327 . S
C667 H661 0.950 . S
C667 C666 1.327 . S
C667 C671 1.429 . S
C668 C651 1.574 . S
C668 H662 0.949 . S
C668 C672 1.368 . S
C669 C650 1.429 . S
C669 C663 1.429 . S
C669 C670 1.523 . S
C670 C651 1.368 . S
C670 C664 1.368 . S
C670 C669 1.523 . S
C671 C655 1.429 . S
C671 C667 1.429 . S
C671 C672 1.523 . S
C672 C656 1.368 . S
C672 C668 1.368 . S
C672 C671 1.523 . S
H673 C648 0.950 . S
H674 C650 0.950 . S
H675 C651 0.949 . S
H676 C653 0.950 . S
H677 C655 0.950 . S
C678 C679 1.349 . S
C678 C680 1.327 . S
C678 H703 0.950 . S
C679 C678 1.349 . S
C679 C695 1.349 . S
C680 C678 1.327 . S
C680 C699 1.429 . S
C680 H704 0.950 . S
C681 C698 1.574 . S
C681 C700 1.368 . S
C681 H705 0.949 . S
H682 C686 0.949 . S
C683 C684 1.349 . S
C683 C685 1.327 . S
C683 H706 0.950 . S
C684 C683 1.349 . S
C684 C696 1.349 . S
C685 C683 1.327 . S
C685 C701 1.429 . S
C685 H707 0.950 . S
C686 H682 0.949 . S
C686 C694 1.574 . S
C686 C702 1.368 . S
H687 C695 0.950 . S
H688 C693 0.950 . S
H689 C694 0.949 . S
H690 C696 0.950 . S
H691 C697 0.950 . S
H692 C698 0.949 . S
C693 H688 0.950 . S
C693 C695 1.327 . S
C693 C699 1.429 . S
C694 C686 1.574 . S
C694 H689 0.949 . S
C694 C700 1.368 . S
C695 C679 1.349 . S
C695 H687 0.950 . S
C695 C693 1.327 . S
C696 C684 1.349 . S
C696 H690 0.950 . S
C696 C697 1.327 . S
C697 H691 0.950 . S
C697 C696 1.327 . S
C697 C701 1.429 . S
C698 C681 1.574 . S
C698 H692 0.949 . S
C698 C702 1.368 . S
C699 C680 1.429 . S
C699 C693 1.429 . S
C699 C700 1.523 . S
C700 C681 1.368 . S
C700 C694 1.368 . S
C700 C699 1.523 . S
C701 C685 1.429 . S
C701 C697 1.429 . S
C701 C702 1.523 . S
C702 C686 1.368 . S
C702 C698 1.368 . S
C702 C701 1.523 . S
H703 C678 0.950 . S
H704 C680 0.950 . S
H705 C681 0.949 . S
H706 C683 0.950 . S
H707 C685 0.950 . S
C708 C709 1.349 . S
C708 C710 1.327 . S
C708 H733 0.950 . S
C709 C708 1.349 . S
C709 C725 1.349 . S
C710 C708 1.327 . S
C710 C729 1.429 . S
C710 H734 0.950 . S
C711 C728 1.574 . S
C711 C730 1.368 . S
C711 H735 0.949 . S
H712 C716 0.949 . S
C713 C714 1.349 . S
C713 C715 1.327 . S
C713 H736 0.950 . S
C714 C713 1.349 . S
C714 C726 1.349 . S
C715 C713 1.327 . S
C715 C731 1.429 . S
C715 H737 0.950 . S
C716 H712 0.949 . S
C716 C724 1.574 . S
C716 C732 1.368 . S
H717 C725 0.950 . S
H718 C723 0.950 . S
H719 C724 0.949 . S
H720 C726 0.950 . S
H721 C727 0.950 . S
H722 C728 0.949 . S
C723 H718 0.950 . S
C723 C725 1.327 . S
C723 C729 1.429 . S
C724 C716 1.574 . S
C724 H719 0.949 . S
C724 C730 1.368 . S
C725 C709 1.349 . S
C725 H717 0.950 . S
C725 C723 1.327 . S
C726 C714 1.349 . S
C726 H720 0.950 . S
C726 C727 1.327 . S
C727 H721 0.950 . S
C727 C726 1.327 . S
C727 C731 1.429 . S
C728 C711 1.574 . S
C728 H722 0.949 . S
C728 C732 1.368 . S
C729 C710 1.429 . S
C729 C723 1.429 . S
C729 C730 1.523 . S
C730 C711 1.368 . S
C730 C724 1.368 . S
C730 C729 1.523 . S
C731 C715 1.429 . S
C731 C727 1.429 . S
C731 C732 1.523 . S
C732 C716 1.368 . S
C732 C728 1.368 . S
C732 C731 1.523 . S
H733 C708 0.950 . S
H734 C710 0.950 . S
H735 C711 0.949 . S
H736 C713 0.950 . S
H737 C715 0.950 . S
C738 C739 1.349 . S
C738 C740 1.327 . S
C738 H763 0.950 . S
C739 C738 1.349 . S
C739 C755 1.349 . S
C740 C738 1.327 . S
C740 C759 1.429 . S
C740 H764 0.950 . S
C741 C758 1.574 . S
C741 C760 1.368 . S
C741 H765 0.949 . S
H742 C746 0.949 . S
C743 C744 1.349 . S
C743 C745 1.327 . S
C743 H766 0.950 . S
C744 C743 1.349 . S
C744 C756 1.349 . S
C745 C743 1.327 . S
C745 C761 1.429 . S
C745 H767 0.950 . S
C746 H742 0.949 . S
C746 C754 1.574 . S
C746 C762 1.368 . S
H747 C755 0.950 . S
H748 C753 0.950 . S
H749 C754 0.949 . S
H750 C756 0.950 . S
H751 C757 0.950 . S
H752 C758 0.949 . S
C753 H748 0.950 . S
C753 C755 1.327 . S
C753 C759 1.429 . S
C754 C746 1.574 . S
C754 H749 0.949 . S
C754 C760 1.368 . S
C755 C739 1.349 . S
C755 H747 0.950 . S
C755 C753 1.327 . S
C756 C744 1.349 . S
C756 H750 0.950 . S
C756 C757 1.327 . S
C757 H751 0.950 . S
C757 C756 1.327 . S
C757 C761 1.429 . S
C758 C741 1.574 . S
C758 H752 0.949 . S
C758 C762 1.368 . S
C759 C740 1.429 . S
C759 C753 1.429 . S
C759 C760 1.523 . S
C760 C741 1.368 . S
C760 C754 1.368 . S
C760 C759 1.523 . S
C761 C745 1.429 . S
C761 C757 1.429 . S
C761 C762 1.523 . S
C762 C746 1.368 . S
C762 C758 1.368 . S
C762 C761 1.523 . S
H763 C738 0.950 . S
H764 C740 0.950 . S
H765 C741 0.949 . S
H766 C743 0.950 . S
H767 C745 0.950 . S
C768 C769 1.349 . S
C768 C770 1.327 . S
C768 H793 0.950 . S
C769 C768 1.349 . S
C769 C785 1.349 . S
C770 C768 1.327 . S
C770 C789 1.429 . S
C770 H794 0.950 . S
C771 C788 1.574 . S
C771 C790 1.368 . S
C771 H795 0.949 . S
H772 C776 0.949 . S
C773 C774 1.349 . S
C773 C775 1.327 . S
C773 H796 0.950 . S
C774 C773 1.349 . S
C774 C786 1.349 . S
C775 C773 1.327 . S
C775 C791 1.429 . S
C775 H797 0.950 . S
C776 H772 0.949 . S
C776 C784 1.574 . S
C776 C792 1.368 . S
H777 C785 0.950 1_556 S
H778 C783 0.950 . S
H779 C784 0.949 . S
H780 C786 0.950 . S
H781 C787 0.950 . S
H782 C788 0.949 . S
C783 H778 0.950 . S
C783 C785 1.327 . S
C783 C789 1.429 . S
C784 C776 1.574 . S
C784 H779 0.949 . S
C784 C790 1.368 . S
C785 C769 1.349 . S
C785 H777 0.950 1_554 S
C785 C783 1.327 . S
C786 C774 1.349 . S
C786 H780 0.950 . S
C786 C787 1.327 . S
C787 H781 0.950 . S
C787 C786 1.327 . S
C787 C791 1.429 . S
C788 C771 1.574 . S
C788 H782 0.949 . S
C788 C792 1.368 . S
C789 C770 1.429 . S
C789 C783 1.429 . S
C789 C790 1.523 . S
C790 C771 1.368 . S
C790 C784 1.368 . S
C790 C789 1.523 . S
C791 C775 1.429 . S
C791 C787 1.429 . S
C791 C792 1.523 . S
C792 C776 1.368 . S
C792 C788 1.368 . S
C792 C791 1.523 . S
H793 C768 0.950 . S
H794 C770 0.950 . S
H795 C771 0.949 . S
H796 C773 0.950 . S
H797 C775 0.950 . S
C798 C799 1.349 . S
C798 C800 1.327 . S
C798 H823 0.950 . S
C799 C798 1.349 . S
C799 C815 1.349 . S
C800 C798 1.327 . S
C800 C819 1.429 . S
C800 H824 0.950 . S
C801 C818 1.574 . S
C801 C820 1.368 . S
C801 H825 0.949 . S
H802 C806 0.949 . S
C803 C804 1.349 . S
C803 C805 1.327 . S
C803 H826 0.950 . S
C804 C803 1.349 . S
C804 C816 1.349 . S
C805 C803 1.327 . S
C805 C821 1.429 . S
C805 H827 0.950 . S
C806 H802 0.949 . S
C806 C814 1.574 . S
C806 C822 1.368 . S
H807 C815 0.950 . S
H808 C813 0.950 . S
H809 C814 0.949 . S
H810 C816 0.950 . S
H811 C817 0.950 . S
H812 C818 0.949 . S
C813 H808 0.950 . S
C813 C815 1.327 . S
C813 C819 1.429 . S
C814 C806 1.574 . S
C814 H809 0.949 . S
C814 C820 1.368 . S
C815 C799 1.349 . S
C815 H807 0.950 . S
C815 C813 1.327 . S
C816 C804 1.349 . S
C816 H810 0.950 . S
C816 C817 1.327 . S
C817 H811 0.950 . S
C817 C816 1.327 . S
C817 C821 1.429 . S
C818 C801 1.574 . S
C818 H812 0.949 . S
C818 C822 1.368 . S
C819 C800 1.429 . S
C819 C813 1.429 . S
C819 C820 1.523 . S
C820 C801 1.368 . S
C820 C814 1.368 . S
C820 C819 1.523 . S
C821 C805 1.429 . S
C821 C817 1.429 . S
C821 C822 1.523 . S
C822 C806 1.368 . S
C822 C818 1.368 . S
C822 C821 1.523 . S
H823 C798 0.950 . S
H824 C800 0.950 . S
H825 C801 0.949 . S
H826 C803 0.950 . S
H827 C805 0.950 . S
C828 C829 1.349 . S
C828 C830 1.327 . S
C828 H853 0.950 . S
C829 C828 1.349 . S
C829 C845 1.349 . S
C830 C828 1.327 . S
C830 C849 1.429 . S
C830 H854 0.950 . S
C831 C848 1.574 . S
C831 C850 1.368 . S
C831 H855 0.949 . S
H832 C836 0.949 . S
C833 C834 1.349 . S
C833 C835 1.327 . S
C833 H856 0.950 . S
C834 C833 1.349 . S
C834 C846 1.349 . S
C835 C833 1.327 . S
C835 C851 1.429 . S
C835 H857 0.950 . S
C836 H832 0.949 . S
C836 C844 1.574 . S
C836 C852 1.368 . S
H837 C845 0.950 . S
H838 C843 0.950 . S
H839 C844 0.949 . S
H840 C846 0.950 1_554 S
H841 C847 0.950 . S
H842 C848 0.949 . S
C843 H838 0.950 . S
C843 C845 1.327 . S
C843 C849 1.429 . S
C844 C836 1.574 . S
C844 H839 0.949 . S
C844 C850 1.368 . S
C845 C829 1.349 . S
C845 H837 0.950 . S
C845 C843 1.327 . S
C846 C834 1.349 . S
C846 H840 0.950 1_556 S
C846 C847 1.327 . S
C847 H841 0.950 . S
C847 C846 1.327 . S
C847 C851 1.429 . S
C848 C831 1.574 . S
C848 H842 0.949 . S
C848 C852 1.368 . S
C849 C830 1.429 . S
C849 C843 1.429 . S
C849 C850 1.523 . S
C850 C831 1.368 . S
C850 C844 1.368 . S
C850 C849 1.523 . S
C851 C835 1.429 . S
C851 C847 1.429 . S
C851 C852 1.523 . S
C852 C836 1.368 . S
C852 C848 1.368 . S
C852 C851 1.523 . S
H853 C828 0.950 . S
H854 C830 0.950 . S
H855 C831 0.949 . S
H856 C833 0.950 . S
H857 C835 0.950 . S
C858 C859 1.349 . S
C858 C860 1.327 . S
C858 H883 0.950 . S
C859 C858 1.349 . S
C859 C875 1.349 . S
C860 C858 1.327 . S
C860 C879 1.429 . S
C860 H884 0.950 . S
C861 C878 1.574 . S
C861 C880 1.368 . S
C861 H885 0.949 . S
H862 C866 0.949 . S
C863 C864 1.349 . S
C863 C865 1.327 . S
C863 H886 0.950 . S
C864 C863 1.349 . S
C864 C876 1.349 . S
C865 C863 1.327 . S
C865 C881 1.429 . S
C865 H887 0.950 . S
C866 H862 0.949 . S
C866 C874 1.574 . S
C866 C882 1.368 . S
H867 C875 0.950 . S
H868 C873 0.950 . S
H869 C874 0.949 . S
H870 C876 0.950 1_554 S
H871 C877 0.950 . S
H872 C878 0.949 . S
C873 H868 0.950 . S
C873 C875 1.327 . S
C873 C879 1.429 . S
C874 C866 1.574 . S
C874 H869 0.949 . S
C874 C880 1.368 . S
C875 C859 1.349 . S
C875 H867 0.950 . S
C875 C873 1.327 . S
C876 C864 1.349 . S
C876 H870 0.950 1_556 S
C876 C877 1.327 . S
C877 H871 0.950 . S
C877 C876 1.327 . S
C877 C881 1.429 . S
C878 C861 1.574 . S
C878 H872 0.949 . S
C878 C882 1.368 . S
C879 C860 1.429 . S
C879 C873 1.429 . S
C879 C880 1.523 . S
C880 C861 1.368 . S
C880 C874 1.368 . S
C880 C879 1.523 . S
C881 C865 1.429 . S
C881 C877 1.429 . S
C881 C882 1.523 . S
C882 C866 1.368 . S
C882 C878 1.368 . S
C882 C881 1.523 . S
H883 C858 0.950 . S
H884 C860 0.950 . S
H885 C861 0.949 . S
H886 C863 0.950 . S
H887 C865 0.950 . S
C888 C889 1.349 . S
C888 C890 1.327 . S
C888 H913 0.950 1_556 S
C889 C888 1.349 . S
C889 C905 1.349 . S
C890 C888 1.327 . S
C890 C909 1.429 . S
C890 H914 0.950 . S
C891 C908 1.574 . S
C891 C910 1.368 . S
C891 H915 0.949 . S
H892 C896 0.949 . S
C893 C894 1.349 . S
C893 C895 1.327 . S
C893 H916 0.950 . S
C894 C893 1.349 . S
C894 C906 1.349 . S
C895 C893 1.327 . S
C895 C911 1.429 . S
C895 H917 0.950 . S
C896 H892 0.949 . S
C896 C904 1.574 . S
C896 C912 1.368 . S
H897 C905 0.950 . S
H898 C903 0.950 . S
H899 C904 0.949 . S
H900 C906 0.950 . S
H901 C907 0.950 . S
H902 C908 0.949 . S
C903 H898 0.950 . S
C903 C905 1.327 . S
C903 C909 1.429 . S
C904 C896 1.574 . S
C904 H899 0.949 . S
C904 C910 1.368 . S
C905 C889 1.349 . S
C905 H897 0.950 . S
C905 C903 1.327 . S
C906 C894 1.349 . S
C906 H900 0.950 . S
C906 C907 1.327 . S
C907 H901 0.950 . S
C907 C906 1.327 . S
C907 C911 1.429 . S
C908 C891 1.574 . S
C908 H902 0.949 . S
C908 C912 1.368 . S
C909 C890 1.429 . S
C909 C903 1.429 . S
C909 C910 1.523 . S
C910 C891 1.368 . S
C910 C904 1.368 . S
C910 C909 1.523 . S
C911 C895 1.429 . S
C911 C907 1.429 . S
C911 C912 1.523 . S
C912 C896 1.368 . S
C912 C908 1.368 . S
C912 C911 1.523 . S
H913 C888 0.950 1_554 S
H914 C890 0.950 . S
H915 C891 0.949 . S
H916 C893 0.950 . S
H917 C895 0.950 . S
C918 C919 1.349 . S
C918 C920 1.327 . S
C918 H943 0.950 . S
C919 C918 1.349 . S
C919 C935 1.349 . S
C920 C918 1.327 . S
C920 C939 1.429 . S
C920 H944 0.950 . S
C921 C938 1.574 . S
C921 C940 1.368 . S
C921 H945 0.949 . S
H922 C926 0.949 . S
C923 C924 1.349 . S
C923 C925 1.327 . S
C923 H946 0.950 . S
C924 C923 1.349 . S
C924 C936 1.349 . S
C925 C923 1.327 . S
C925 C941 1.429 . S
C925 H947 0.950 . S
C926 H922 0.949 . S
C926 C934 1.574 . S
C926 C942 1.368 . S
H927 C935 0.950 . S
H928 C933 0.950 . S
H929 C934 0.949 . S
H930 C936 0.950 . S
H931 C937 0.950 . S
H932 C938 0.949 . S
C933 H928 0.950 . S
C933 C935 1.327 . S
C933 C939 1.429 . S
C934 C926 1.574 . S
C934 H929 0.949 . S
C934 C940 1.368 . S
C935 C919 1.349 . S
C935 H927 0.950 . S
C935 C933 1.327 . S
C936 C924 1.349 . S
C936 H930 0.950 . S
C936 C937 1.327 . S
C937 H931 0.950 . S
C937 C936 1.327 . S
C937 C941 1.429 . S
C938 C921 1.574 . S
C938 H932 0.949 . S
C938 C942 1.368 . S
C939 C920 1.429 . S
C939 C933 1.429 . S
C939 C940 1.523 . S
C940 C921 1.368 . S
C940 C934 1.368 . S
C940 C939 1.523 . S
C941 C925 1.429 . S
C941 C937 1.429 . S
C941 C942 1.523 . S
C942 C926 1.368 . S
C942 C938 1.368 . S
C942 C941 1.523 . S
H943 C918 0.950 . S
H944 C920 0.950 . S
H945 C921 0.949 . S
H946 C923 0.950 . S
H947 C925 0.950 . S
C948 C949 1.349 . S
C948 C950 1.327 . S
C948 H973 0.950 . S
C949 C948 1.349 . S
C949 C965 1.349 . S
C950 C948 1.327 . S
C950 C969 1.429 . S
C950 H974 0.950 . S
C951 C968 1.574 . S
C951 C970 1.368 . S
C951 H975 0.949 . S
H952 C956 0.949 . S
C953 C954 1.349 . S
C953 C955 1.327 . S
C953 H976 0.950 . S
C954 C953 1.349 . S
C954 C966 1.349 . S
C955 C953 1.327 . S
C955 C971 1.429 . S
C955 H977 0.950 . S
C956 H952 0.949 . S
C956 C964 1.574 . S
C956 C972 1.368 . S
H957 C965 0.950 . S
H958 C963 0.950 . S
H959 C964 0.949 . S
H960 C966 0.950 . S
H961 C967 0.950 . S
H962 C968 0.949 . S
C963 H958 0.950 . S
C963 C965 1.327 . S
C963 C969 1.429 . S
C964 C956 1.574 . S
C964 H959 0.949 . S
C964 C970 1.368 . S
C965 C949 1.349 . S
C965 H957 0.950 . S
C965 C963 1.327 . S
C966 C954 1.349 . S
C966 H960 0.950 . S
C966 C967 1.327 . S
C967 H961 0.950 . S
C967 C966 1.327 . S
C967 C971 1.429 . S
C968 C951 1.574 . S
C968 H962 0.949 . S
C968 C972 1.368 . S
C969 C950 1.429 . S
C969 C963 1.429 . S
C969 C970 1.523 . S
C970 C951 1.368 . S
C970 C964 1.368 . S
C970 C969 1.523 . S
C971 C955 1.429 . S
C971 C967 1.429 . S
C971 C972 1.523 . S
C972 C956 1.368 . S
C972 C968 1.368 . S
C972 C971 1.523 . S
H973 C948 0.950 . S
H974 C950 0.950 . S
H975 C951 0.949 . S
H976 C953 0.950 . S
H977 C955 0.950 . S
C978 C979 1.349 . S
C978 C980 1.327 . S
C978 H1003 0.950 . S
C979 C978 1.349 . S
C979 C995 1.349 . S
C980 C978 1.327 . S
C980 C999 1.429 . S
C980 H1004 0.950 . S
C981 C998 1.574 . S
C981 C1000 1.368 . S
C981 H1005 0.949 . S
H982 C986 0.949 . S
C983 C984 1.349 . S
C983 C985 1.327 . S
C983 H1006 0.950 . S
C984 C983 1.349 . S
C984 C996 1.349 . S
C985 C983 1.327 . S
C985 C1001 1.429 . S
C985 H1007 0.950 . S
C986 H982 0.949 . S
C986 C994 1.574 . S
C986 C1002 1.368 . S
H987 C995 0.950 . S
H988 C993 0.950 . S
H989 C994 0.949 . S
H990 C996 0.950 . S
H991 C997 0.950 . S
H992 C998 0.949 . S
C993 H988 0.950 . S
C993 C995 1.327 . S
C993 C999 1.429 . S
C994 C986 1.574 . S
C994 H989 0.949 . S
C994 C1000 1.368 . S
C995 C979 1.349 . S
C995 H987 0.950 . S
C995 C993 1.327 . S
C996 C984 1.349 . S
C996 H990 0.950 . S
C996 C997 1.327 . S
C997 H991 0.950 . S
C997 C996 1.327 . S
C997 C1001 1.429 . S
C998 C981 1.574 . S
C998 H992 0.949 . S
C998 C1002 1.368 . S
C999 C980 1.429 . S
C999 C993 1.429 . S
C999 C1000 1.523 . S
C1000 C981 1.368 . S
C1000 C994 1.368 . S
C1000 C999 1.523 . S
C1001 C985 1.429 . S
C1001 C997 1.429 . S
C1001 C1002 1.523 . S
C1002 C986 1.368 . S
C1002 C998 1.368 . S
C1002 C1001 1.523 . S
H1003 C978 0.950 . S
H1004 C980 0.950 . S
H1005 C981 0.949 . S
H1006 C983 0.950 . S
H1007 C985 0.950 . S
C1008 C1009 1.349 . S
C1008 C1010 1.327 . S
C1008 H1033 0.950 . S
C1009 C1008 1.349 . S
C1009 C1025 1.349 . S
C1010 C1008 1.327 . S
C1010 C1029 1.429 . S
C1010 H1034 0.950 . S
C1011 C1028 1.574 . S
C1011 C1030 1.368 . S
C1011 H1035 0.949 . S
H1012 C1016 0.949 . S
C1013 C1014 1.349 . S
C1013 C1015 1.328 1_554 S
C1013 H1036 0.950 . S
C1014 C1013 1.349 . S
C1014 C1026 1.349 . S
C1015 C1013 1.328 1_556 S
C1015 C1031 1.428 . S
C1015 H1037 0.949 . S
C1016 H1012 0.949 . S
C1016 C1024 1.574 . S
C1016 C1032 1.368 . S
H1017 C1025 0.950 . S
H1018 C1023 0.950 . S
H1019 C1024 0.949 . S
H1020 C1026 0.950 . S
H1021 C1027 0.950 . S
H1022 C1028 0.949 . S
C1023 H1018 0.950 . S
C1023 C1025 1.327 . S
C1023 C1029 1.429 . S
C1024 C1016 1.574 . S
C1024 H1019 0.949 . S
C1024 C1030 1.368 . S
C1025 C1009 1.349 . S
C1025 H1017 0.950 . S
C1025 C1023 1.327 . S
C1026 C1014 1.349 . S
C1026 H1020 0.950 . S
C1026 C1027 1.327 . S
C1027 H1021 0.950 . S
C1027 C1026 1.327 . S
C1027 C1031 1.429 1_554 S
C1028 C1011 1.574 . S
C1028 H1022 0.949 . S
C1028 C1032 1.368 . S
C1029 C1010 1.429 . S
C1029 C1023 1.429 . S
C1029 C1030 1.523 . S
C1030 C1011 1.368 . S
C1030 C1024 1.368 . S
C1030 C1029 1.523 . S
C1031 C1015 1.428 . S
C1031 C1027 1.429 1_556 S
C1031 C1032 1.523 . S
C1032 C1016 1.368 . S
C1032 C1028 1.368 . S
C1032 C1031 1.523 . S
H1033 C1008 0.950 . S
H1034 C1010 0.950 . S
H1035 C1011 0.949 . S
H1036 C1013 0.950 . S
H1037 C1015 0.949 . S
C1038 C1039 1.349 . S
C1038 C1040 1.327 . S
C1038 H1063 0.950 . S
C1039 C1038 1.349 . S
C1039 C1055 1.349 . S
C1040 C1038 1.327 . S
C1040 C1059 1.429 1_554 S
C1040 H1064 0.950 . S
C1041 C1058 1.574 . S
C1041 C1060 1.368 . S
C1041 H1065 0.949 . S
H1042 C1046 0.949 . S
C1043 C1044 1.349 . S
C1043 C1045 1.327 . S
C1043 H1066 0.950 . S
C1044 C1043 1.349 . S
C1044 C1056 1.349 . S
C1045 C1043 1.327 . S
C1045 C1061 1.429 . S
C1045 H1067 0.950 . S
C1046 H1042 0.949 . S
C1046 C1054 1.574 . S
C1046 C1062 1.368 . S
H1047 C1055 0.950 . S
H1048 C1053 0.950 . S
H1049 C1054 0.949 . S
H1050 C1056 0.950 . S
H1051 C1057 0.950 . S
H1052 C1058 0.949 . S
C1053 H1048 0.950 . S
C1053 C1055 1.327 1_556 S
C1053 C1059 1.429 . S
C1054 C1046 1.574 . S
C1054 H1049 0.949 . S
C1054 C1060 1.368 . S
C1055 C1039 1.349 . S
C1055 H1047 0.950 . S
C1055 C1053 1.327 1_554 S
C1056 C1044 1.349 . S
C1056 H1050 0.950 . S
C1056 C1057 1.327 . S
C1057 H1051 0.950 . S
C1057 C1056 1.327 . S
C1057 C1061 1.429 . S
C1058 C1041 1.574 . S
C1058 H1052 0.949 . S
C1058 C1062 1.368 . S
C1059 C1040 1.429 1_556 S
C1059 C1053 1.429 . S
C1059 C1060 1.523 . S
C1060 C1041 1.368 . S
C1060 C1054 1.368 . S
C1060 C1059 1.523 . S
C1061 C1045 1.429 . S
C1061 C1057 1.429 . S
C1061 C1062 1.523 . S
C1062 C1046 1.368 . S
C1062 C1058 1.368 . S
C1062 C1061 1.523 . S
H1063 C1038 0.950 . S
H1064 C1040 0.950 . S
H1065 C1041 0.949 . S
H1066 C1043 0.950 . S
H1067 C1045 0.950 . S
C1068 C1069 1.349 . S
C1068 C1070 1.327 1_554 S
C1068 H1093 0.950 . S
C1069 C1068 1.349 . S
C1069 C1085 1.349 . S
C1070 C1068 1.327 1_556 S
C1070 C1089 1.429 . S
C1070 H1094 0.950 . S
C1071 C1088 1.574 . S
C1071 C1090 1.368 . S
C1071 H1095 0.949 . S
H1072 C1076 0.949 . S
C1073 C1074 1.349 . S
C1073 C1075 1.327 . S
C1073 H1096 0.950 . S
C1074 C1073 1.349 . S
C1074 C1086 1.349 . S
C1075 C1073 1.327 . S
C1075 C1091 1.429 . S
C1075 H1097 0.950 . S
C1076 H1072 0.949 . S
C1076 C1084 1.574 . S
C1076 C1092 1.368 . S
H1077 C1085 0.950 . S
H1078 C1083 0.950 . S
H1079 C1084 0.949 . S
H1080 C1086 0.950 . S
H1081 C1087 0.950 . S
H1082 C1088 0.949 . S
C1083 H1078 0.950 . S
C1083 C1085 1.327 . S
C1083 C1089 1.429 1_554 S
C1084 C1076 1.574 . S
C1084 H1079 0.949 . S
C1084 C1090 1.368 . S
C1085 C1069 1.349 . S
C1085 H1077 0.950 . S
C1085 C1083 1.327 . S
C1086 C1074 1.349 . S
C1086 H1080 0.950 . S
C1086 C1087 1.327 . S
C1087 H1081 0.950 . S
C1087 C1086 1.327 . S
C1087 C1091 1.429 . S
C1088 C1071 1.574 . S
C1088 H1082 0.949 . S
C1088 C1092 1.368 . S
C1089 C1070 1.429 . S
C1089 C1083 1.429 1_556 S
C1089 C1090 1.523 . S
C1090 C1071 1.368 . S
C1090 C1084 1.368 . S
C1090 C1089 1.523 . S
C1091 C1075 1.429 . S
C1091 C1087 1.429 . S
C1091 C1092 1.523 . S
C1092 C1076 1.368 . S
C1092 C1088 1.368 . S
C1092 C1091 1.523 . S
H1093 C1068 0.950 . S
H1094 C1070 0.950 . S
H1095 C1071 0.949 . S
H1096 C1073 0.950 . S
H1097 C1075 0.950 . S
C1098 C1099 1.349 . S
C1098 C1100 1.327 . S
C1098 H1123 0.950 . S
C1099 C1098 1.349 . S
C1099 C1115 1.349 . S
C1100 C1098 1.327 . S
C1100 C1119 1.429 . S
C1100 H1124 0.950 . S
C1101 C1118 1.574 . S
C1101 C1120 1.368 . S
C1101 H1125 0.949 . S
H1102 C1106 0.949 . S
C1103 C1104 1.349 . S
C1103 C1105 1.327 . S
C1103 H1126 0.950 . S
C1104 C1103 1.349 . S
C1104 C1116 1.349 . S
C1105 C1103 1.327 . S
C1105 C1121 1.429 . S
C1105 H1127 0.950 . S
C1106 H1102 0.949 . S
C1106 C1114 1.574 . S
C1106 C1122 1.368 . S
H1107 C1115 0.950 . S
H1108 C1113 0.950 . S
H1109 C1114 0.949 . S
H1110 C1116 0.950 . S
H1111 C1117 0.950 . S
H1112 C1118 0.949 . S
C1113 H1108 0.950 . S
C1113 C1115 1.327 . S
C1113 C1119 1.429 . S
C1114 C1106 1.574 . S
C1114 H1109 0.949 . S
C1114 C1120 1.368 . S
C1115 C1099 1.349 . S
C1115 H1107 0.950 . S
C1115 C1113 1.327 . S
C1116 C1104 1.349 . S
C1116 H1110 0.950 . S
C1116 C1117 1.327 . S
C1117 H1111 0.950 . S
C1117 C1116 1.327 . S
C1117 C1121 1.429 . S
C1118 C1101 1.574 . S
C1118 H1112 0.949 . S
C1118 C1122 1.368 . S
C1119 C1100 1.429 . S
C1119 C1113 1.429 . S
C1119 C1120 1.523 . S
C1120 C1101 1.368 . S
C1120 C1114 1.368 . S
C1120 C1119 1.523 . S
C1121 C1105 1.429 . S
C1121 C1117 1.429 . S
C1121 C1122 1.523 . S
C1122 C1106 1.368 . S
C1122 C1118 1.368 . S
C1122 C1121 1.523 . S
H1123 C1098 0.950 . S
H1124 C1100 0.950 . S
H1125 C1101 0.949 . S
H1126 C1103 0.950 . S
H1127 C1105 0.950 . S
C1128 C1129 1.349 . S
C1128 C1130 1.327 . S
C1128 H1153 0.950 . S
C1129 C1128 1.349 . S
C1129 C1145 1.349 . S
C1130 C1128 1.327 . S
C1130 C1149 1.429 . S
C1130 H1154 0.950 . S
C1131 C1148 1.574 . S
C1131 C1150 1.368 . S
C1131 H1155 0.949 . S
H1132 C1136 0.949 . S
C1133 C1134 1.349 . S
C1133 C1135 1.327 . S
C1133 H1156 0.950 . S
C1134 C1133 1.349 . S
C1134 C1146 1.349 . S
C1135 C1133 1.327 . S
C1135 C1151 1.429 . S
C1135 H1157 0.950 . S
C1136 H1132 0.949 . S
C1136 C1144 1.574 . S
C1136 C1152 1.368 . S
H1137 C1145 0.950 . S
H1138 C1143 0.950 . S
H1139 C1144 0.949 . S
H1140 C1146 0.950 . S
H1141 C1147 0.950 . S
H1142 C1148 0.949 . S
C1143 H1138 0.950 . S
C1143 C1145 1.327 . S
C1143 C1149 1.429 . S
C1144 C1136 1.574 . S
C1144 H1139 0.949 . S
C1144 C1150 1.368 . S
C1145 C1129 1.349 . S
C1145 H1137 0.950 . S
C1145 C1143 1.327 . S
C1146 C1134 1.349 . S
C1146 H1140 0.950 . S
C1146 C1147 1.327 . S
C1147 H1141 0.950 . S
C1147 C1146 1.327 . S
C1147 C1151 1.429 . S
C1148 C1131 1.574 . S
C1148 H1142 0.949 . S
C1148 C1152 1.368 . S
C1149 C1130 1.429 . S
C1149 C1143 1.429 . S
C1149 C1150 1.523 . S
C1150 C1131 1.368 . S
C1150 C1144 1.368 . S
C1150 C1149 1.523 . S
C1151 C1135 1.429 . S
C1151 C1147 1.429 . S
C1151 C1152 1.523 . S
C1152 C1136 1.368 . S
C1152 C1148 1.368 . S
C1152 C1151 1.523 . S
H1153 C1128 0.950 . S
H1154 C1130 0.950 . S
H1155 C1131 0.949 . S
H1156 C1133 0.950 . S
H1157 C1135 0.950 . S
C1158 C1159 1.349 . S
C1158 C1160 1.327 . S
C1158 H1183 0.950 . S
C1159 C1158 1.349 . S
C1159 C1175 1.349 . S
C1160 C1158 1.327 . S
C1160 C1179 1.429 . S
C1160 H1184 0.950 . S
C1161 C1178 1.574 . S
C1161 C1180 1.368 . S
C1161 H1185 0.949 . S
H1162 C1166 0.949 . S
C1163 C1164 1.349 . S
C1163 C1165 1.327 . S
C1163 H1186 0.950 . S
C1164 C1163 1.349 . S
C1164 C1176 1.349 . S
C1165 C1163 1.327 . S
C1165 C1181 1.429 . S
C1165 H1187 0.950 . S
C1166 H1162 0.949 . S
C1166 C1174 1.574 . S
C1166 C1182 1.368 . S
H1167 C1175 0.950 . S
H1168 C1173 0.950 . S
H1169 C1174 0.949 . S
H1170 C1176 0.950 . S
H1171 C1177 0.950 . S
H1172 C1178 0.949 . S
C1173 H1168 0.950 . S
C1173 C1175 1.327 . S
C1173 C1179 1.429 . S
C1174 C1166 1.574 . S
C1174 H1169 0.949 . S
C1174 C1180 1.368 . S
C1175 C1159 1.349 . S
C1175 H1167 0.950 . S
C1175 C1173 1.327 . S
C1176 C1164 1.349 . S
C1176 H1170 0.950 . S
C1176 C1177 1.327 . S
C1177 H1171 0.950 . S
C1177 C1176 1.327 . S
C1177 C1181 1.429 . S
C1178 C1161 1.574 . S
C1178 H1172 0.949 . S
C1178 C1182 1.368 . S
C1179 C1160 1.429 . S
C1179 C1173 1.429 . S
C1179 C1180 1.523 . S
C1180 C1161 1.368 . S
C1180 C1174 1.368 . S
C1180 C1179 1.523 . S
C1181 C1165 1.429 . S
C1181 C1177 1.429 . S
C1181 C1182 1.523 . S
C1182 C1166 1.368 . S
C1182 C1178 1.368 . S
C1182 C1181 1.523 . S
H1183 C1158 0.950 . S
H1184 C1160 0.950 . S
H1185 C1161 0.949 . S
H1186 C1163 0.950 . S
H1187 C1165 0.950 . S
C1188 C1189 1.349 . S
C1188 C1190 1.327 . S
C1188 H1213 0.950 . S
C1189 C1188 1.349 . S
C1189 C1205 1.349 . S
C1190 C1188 1.327 . S
C1190 C1209 1.429 1_556 S
C1190 H1214 0.950 . S
C1191 C1208 1.574 . S
C1191 C1210 1.368 . S
C1191 H1215 0.949 . S
H1192 C1196 0.949 . S
C1193 C1194 1.349 . S
C1193 C1195 1.327 . S
C1193 H1216 0.950 . S
C1194 C1193 1.349 . S
C1194 C1206 1.349 . S
C1195 C1193 1.327 . S
C1195 C1211 1.429 . S
C1195 H1217 0.950 . S
C1196 H1192 0.949 . S
C1196 C1204 1.574 . S
C1196 C1212 1.368 . S
H1197 C1205 0.950 . S
H1198 C1203 0.948 . S
H1199 C1204 0.949 . S
H1200 C1206 0.950 . S
H1201 C1207 0.950 . S
H1202 C1208 0.949 . S
C1203 H1198 0.948 . S
C1203 C1205 1.329 1_554 S
C1203 C1209 1.428 . S
C1204 C1196 1.574 . S
C1204 H1199 0.949 . S
C1204 C1210 1.368 . S
C1205 C1189 1.349 . S
C1205 H1197 0.950 . S
C1205 C1203 1.329 1_556 S
C1206 C1194 1.349 . S
C1206 H1200 0.950 . S
C1206 C1207 1.327 . S
C1207 H1201 0.950 . S
C1207 C1206 1.327 . S
C1207 C1211 1.429 . S
C1208 C1191 1.574 . S
C1208 H1202 0.949 . S
C1208 C1212 1.368 . S
C1209 C1190 1.429 1_554 S
C1209 C1203 1.428 . S
C1209 C1210 1.523 . S
C1210 C1191 1.368 . S
C1210 C1204 1.368 . S
C1210 C1209 1.523 . S
C1211 C1195 1.429 . S
C1211 C1207 1.429 . S
C1211 C1212 1.523 . S
C1212 C1196 1.368 . S
C1212 C1208 1.368 . S
C1212 C1211 1.523 . S
H1213 C1188 0.950 . S
H1214 C1190 0.950 . S
H1215 C1191 0.949 . S
H1216 C1193 0.950 . S
H1217 C1195 0.950 . S
C1218 C1219 1.349 . S
C1218 C1220 1.327 1_556 S
C1218 H1243 0.950 . S
C1219 C1218 1.349 . S
C1219 C1235 1.349 . S
C1220 C1218 1.327 1_554 S
C1220 C1239 1.429 . S
C1220 H1244 0.950 . S
C1221 C1238 1.574 . S
C1221 C1240 1.368 . S
C1221 H1245 0.949 . S
H1222 C1226 0.949 . S
C1223 C1224 1.349 . S
C1223 C1225 1.327 . S
C1223 H1246 0.950 . S
C1224 C1223 1.349 . S
C1224 C1236 1.349 . S
C1225 C1223 1.327 . S
C1225 C1241 1.429 . S
C1225 H1247 0.950 . S
C1226 H1222 0.949 . S
C1226 C1234 1.574 . S
C1226 C1242 1.368 . S
H1227 C1235 0.950 . S
H1228 C1233 0.950 . S
H1229 C1234 0.949 . S
H1230 C1236 0.950 . S
H1231 C1237 0.950 . S
H1232 C1238 0.949 . S
C1233 H1228 0.950 . S
C1233 C1235 1.327 . S
C1233 C1239 1.429 1_556 S
C1234 C1226 1.574 . S
C1234 H1229 0.949 . S
C1234 C1240 1.368 . S
C1235 C1219 1.349 . S
C1235 H1227 0.950 . S
C1235 C1233 1.327 . S
C1236 C1224 1.349 . S
C1236 H1230 0.950 . S
C1236 C1237 1.327 . S
C1237 H1231 0.950 . S
C1237 C1236 1.327 . S
C1237 C1241 1.429 . S
C1238 C1221 1.574 . S
C1238 H1232 0.949 . S
C1238 C1242 1.368 . S
C1239 C1220 1.429 . S
C1239 C1233 1.429 1_554 S
C1239 C1240 1.523 . S
C1240 C1221 1.368 . S
C1240 C1234 1.368 . S
C1240 C1239 1.523 . S
C1241 C1225 1.429 . S
C1241 C1237 1.429 . S
C1241 C1242 1.523 . S
C1242 C1226 1.368 . S
C1242 C1238 1.368 . S
C1242 C1241 1.523 . S
H1243 C1218 0.950 . S
H1244 C1220 0.950 . S
H1245 C1221 0.949 . S
H1246 C1223 0.950 . S
H1247 C1225 0.950 . S
C1248 C1249 1.349 . S
C1248 C1250 1.327 . S
C1248 H1273 0.950 . S
C1249 C1248 1.349 . S
C1249 C1265 1.349 . S
C1250 C1248 1.327 . S
C1250 C1269 1.429 . S
C1250 H1274 0.950 . S
C1251 C1268 1.574 . S
C1251 C1270 1.368 . S
C1251 H1275 0.949 . S
H1252 C1256 0.949 . S
C1253 C1254 1.349 . S
C1253 C1255 1.327 1_556 S
C1253 H1276 0.950 . S
C1254 C1253 1.349 . S
C1254 C1266 1.349 . S
C1255 C1253 1.327 1_554 S
C1255 C1271 1.429 . S
C1255 H1277 0.950 . S
C1256 H1252 0.949 . S
C1256 C1264 1.574 . S
C1256 C1272 1.368 . S
H1257 C1265 0.950 . S
H1258 C1263 0.950 . S
H1259 C1264 0.949 . S
H1260 C1266 0.950 . S
H1261 C1267 0.950 . S
H1262 C1268 0.949 . S
C1263 H1258 0.950 . S
C1263 C1265 1.327 . S
C1263 C1269 1.429 . S
C1264 C1256 1.574 . S
C1264 H1259 0.949 . S
C1264 C1270 1.368 . S
C1265 C1249 1.349 . S
C1265 H1257 0.950 . S
C1265 C1263 1.327 . S
C1266 C1254 1.349 . S
C1266 H1260 0.950 . S
C1266 C1267 1.327 . S
C1267 H1261 0.950 . S
C1267 C1266 1.327 . S
C1267 C1271 1.429 1_556 S
C1268 C1251 1.574 . S
C1268 H1262 0.949 . S
C1268 C1272 1.368 . S
C1269 C1250 1.429 . S
C1269 C1263 1.429 . S
C1269 C1270 1.523 . S
C1270 C1251 1.368 . S
C1270 C1264 1.368 . S
C1270 C1269 1.523 . S
C1271 C1255 1.429 . S
C1271 C1267 1.429 1_554 S
C1271 C1272 1.523 . S
C1272 C1256 1.368 . S
C1272 C1268 1.368 . S
C1272 C1271 1.523 . S
H1273 C1248 0.950 . S
H1274 C1250 0.950 . S
H1275 C1251 0.949 . S
H1276 C1253 0.950 . S
H1277 C1255 0.950 . S
C1278 C1279 1.349 . S
C1278 C1280 1.327 . S
C1278 H1303 0.950 . S
C1279 C1278 1.349 . S
C1279 C1295 1.349 . S
C1280 C1278 1.327 . S
C1280 C1299 1.429 . S
C1280 H1304 0.950 . S
C1281 C1298 1.574 . S
C1281 C1300 1.368 . S
C1281 H1305 0.949 . S
H1282 C1286 0.949 . S
C1283 C1284 1.349 . S
C1283 C1285 1.327 . S
C1283 H1306 0.950 . S
C1284 C1283 1.349 . S
C1284 C1296 1.349 . S
C1285 C1283 1.327 . S
C1285 C1301 1.429 . S
C1285 H1307 0.950 . S
C1286 H1282 0.949 . S
C1286 C1294 1.574 . S
C1286 C1302 1.368 . S
H1287 C1295 0.950 . S
H1288 C1293 0.950 . S
H1289 C1294 0.949 . S
H1290 C1296 0.950 . S
H1291 C1297 0.950 . S
H1292 C1298 0.949 . S
C1293 H1288 0.950 . S
C1293 C1295 1.327 . S
C1293 C1299 1.429 . S
C1294 C1286 1.574 . S
C1294 H1289 0.949 . S
C1294 C1300 1.368 . S
C1295 C1279 1.349 . S
C1295 H1287 0.950 . S
C1295 C1293 1.327 . S
C1296 C1284 1.349 . S
C1296 H1290 0.950 . S
C1296 C1297 1.327 . S
C1297 H1291 0.950 . S
C1297 C1296 1.327 . S
C1297 C1301 1.429 . S
C1298 C1281 1.574 . S
C1298 H1292 0.949 . S
C1298 C1302 1.368 . S
C1299 C1280 1.429 . S
C1299 C1293 1.429 . S
C1299 C1300 1.523 . S
C1300 C1281 1.368 . S
C1300 C1294 1.368 . S
C1300 C1299 1.523 . S
C1301 C1285 1.429 . S
C1301 C1297 1.429 . S
C1301 C1302 1.523 . S
C1302 C1286 1.368 . S
C1302 C1298 1.368 . S
C1302 C1301 1.523 . S
H1303 C1278 0.950 . S
H1304 C1280 0.950 . S
H1305 C1281 0.949 . S
H1306 C1283 0.950 . S
H1307 C1285 0.950 . S
C1308 C1309 1.349 . S
C1308 C1310 1.327 . S
C1308 H1333 0.950 . S
C1309 C1308 1.349 . S
C1309 C1325 1.349 . S
C1310 C1308 1.327 . S
C1310 C1329 1.429 . S
C1310 H1334 0.950 . S
C1311 C1328 1.574 . S
C1311 C1330 1.368 . S
C1311 H1335 0.949 . S
H1312 C1316 0.949 . S
C1313 C1314 1.349 . S
C1313 C1315 1.327 . S
C1313 H1336 0.950 . S
C1314 C1313 1.349 . S
C1314 C1326 1.349 . S
C1315 C1313 1.327 . S
C1315 C1331 1.429 . S
C1315 H1337 0.950 . S
C1316 H1312 0.949 . S
C1316 C1324 1.574 . S
C1316 C1332 1.368 . S
H1317 C1325 0.950 . S
H1318 C1323 0.950 . S
H1319 C1324 0.949 . S
H1320 C1326 0.950 . S
H1321 C1327 0.950 . S
H1322 C1328 0.949 . S
C1323 H1318 0.950 . S
C1323 C1325 1.327 . S
C1323 C1329 1.429 . S
C1324 C1316 1.574 . S
C1324 H1319 0.949 . S
C1324 C1330 1.368 . S
C1325 C1309 1.349 . S
C1325 H1317 0.950 . S
C1325 C1323 1.327 . S
C1326 C1314 1.349 . S
C1326 H1320 0.950 . S
C1326 C1327 1.327 . S
C1327 H1321 0.950 . S
C1327 C1326 1.327 . S
C1327 C1331 1.429 . S
C1328 C1311 1.574 . S
C1328 H1322 0.949 . S
C1328 C1332 1.368 . S
C1329 C1310 1.429 . S
C1329 C1323 1.429 . S
C1329 C1330 1.523 . S
C1330 C1311 1.368 . S
C1330 C1324 1.368 . S
C1330 C1329 1.523 . S
C1331 C1315 1.429 . S
C1331 C1327 1.429 . S
C1331 C1332 1.523 . S
C1332 C1316 1.368 . S
C1332 C1328 1.368 . S
C1332 C1331 1.523 . S
H1333 C1308 0.950 . S
H1334 C1310 0.950 . S
H1335 C1311 0.949 . S
H1336 C1313 0.950 . S
H1337 C1315 0.950 . S
C1338 C1339 1.349 . S
C1338 C1340 1.327 . S
C1338 H1363 0.950 . S
C1339 C1338 1.349 . S
C1339 C1355 1.349 . S
C1340 C1338 1.327 . S
C1340 C1359 1.429 . S
C1340 H1364 0.950 . S
C1341 C1358 1.574 . S
C1341 C1360 1.368 . S
C1341 H1365 0.949 . S
H1342 C1346 0.949 . S
C1343 C1344 1.349 . S
C1343 C1345 1.327 . S
C1343 H1366 0.950 . S
C1344 C1343 1.349 . S
C1344 C1356 1.349 . S
C1345 C1343 1.327 . S
C1345 C1361 1.429 . S
C1345 H1367 0.950 . S
C1346 H1342 0.949 . S
C1346 C1354 1.574 . S
C1346 C1362 1.368 . S
H1347 C1355 0.950 . S
H1348 C1353 0.950 . S
H1349 C1354 0.949 . S
H1350 C1356 0.950 . S
H1351 C1357 0.950 . S
H1352 C1358 0.949 . S
C1353 H1348 0.950 . S
C1353 C1355 1.327 . S
C1353 C1359 1.429 . S
C1354 C1346 1.574 . S
C1354 H1349 0.949 . S
C1354 C1360 1.368 . S
C1355 C1339 1.349 . S
C1355 H1347 0.950 . S
C1355 C1353 1.327 . S
C1356 C1344 1.349 . S
C1356 H1350 0.950 . S
C1356 C1357 1.327 . S
C1357 H1351 0.950 . S
C1357 C1356 1.327 . S
C1357 C1361 1.429 . S
C1358 C1341 1.574 . S
C1358 H1352 0.949 . S
C1358 C1362 1.368 . S
C1359 C1340 1.429 . S
C1359 C1353 1.429 . S
C1359 C1360 1.523 . S
C1360 C1341 1.368 . S
C1360 C1354 1.368 . S
C1360 C1359 1.523 . S
C1361 C1345 1.429 . S
C1361 C1357 1.429 . S
C1361 C1362 1.523 . S
C1362 C1346 1.368 . S
C1362 C1358 1.368 . S
C1362 C1361 1.523 . S
H1363 C1338 0.950 . S
H1364 C1340 0.950 . S
H1365 C1341 0.949 . S
H1366 C1343 0.950 . S
H1367 C1345 0.950 . S
C1368 C1369 1.349 . S
C1368 C1370 1.327 . S
C1368 H1393 0.950 . S
C1369 C1368 1.349 . S
C1369 C1385 1.349 . S
C1370 C1368 1.327 . S
C1370 C1389 1.429 . S
C1370 H1394 0.950 . S
C1371 C1388 1.574 . S
C1371 C1390 1.368 . S
C1371 H1395 0.949 . S
H1372 C1376 0.949 . S
C1373 C1374 1.349 . S
C1373 C1375 1.327 . S
C1373 H1396 0.950 . S
C1374 C1373 1.349 . S
C1374 C1386 1.349 . S
C1375 C1373 1.327 . S
C1375 C1391 1.429 . S
C1375 H1397 0.950 . S
C1376 H1372 0.949 . S
C1376 C1384 1.574 . S
C1376 C1392 1.368 . S
H1377 C1385 0.950 . S
H1378 C1383 0.950 . S
H1379 C1384 0.949 . S
H1380 C1386 0.950 . S
H1381 C1387 0.950 . S
H1382 C1388 0.949 . S
C1383 H1378 0.950 . S
C1383 C1385 1.327 . S
C1383 C1389 1.429 . S
C1384 C1376 1.574 . S
C1384 H1379 0.949 . S
C1384 C1390 1.368 . S
C1385 C1369 1.349 . S
C1385 H1377 0.950 . S
C1385 C1383 1.327 . S
C1386 C1374 1.349 . S
C1386 H1380 0.950 . S
C1386 C1387 1.327 . S
C1387 H1381 0.950 . S
C1387 C1386 1.327 . S
C1387 C1391 1.429 . S
C1388 C1371 1.574 . S
C1388 H1382 0.949 . S
C1388 C1392 1.368 . S
C1389 C1370 1.429 . S
C1389 C1383 1.429 . S
C1389 C1390 1.523 . S
C1390 C1371 1.368 . S
C1390 C1384 1.368 . S
C1390 C1389 1.523 . S
C1391 C1375 1.429 . S
C1391 C1387 1.429 . S
C1391 C1392 1.523 . S
C1392 C1376 1.368 . S
C1392 C1388 1.368 . S
C1392 C1391 1.523 . S
H1393 C1368 0.950 . S
H1394 C1370 0.950 . S
H1395 C1371 0.949 . S
H1396 C1373 0.950 . S
H1397 C1375 0.950 . S
C1398 C1399 1.349 . S
C1398 C1400 1.327 . S
C1398 H1423 0.950 . S
C1399 C1398 1.349 . S
C1399 C1415 1.349 . S
C1400 C1398 1.327 . S
C1400 C1419 1.429 . S
C1400 H1424 0.950 . S
C1401 C1418 1.574 . S
C1401 C1420 1.368 . S
C1401 H1425 0.949 . S
H1402 C1406 0.949 . S
C1403 C1404 1.349 . S
C1403 C1405 1.327 . S
C1403 H1426 0.950 . S
C1404 C1403 1.349 . S
C1404 C1416 1.349 . S
C1405 C1403 1.327 . S
C1405 C1421 1.429 . S
C1405 H1427 0.950 . S
C1406 H1402 0.949 . S
C1406 C1414 1.574 . S
C1406 C1422 1.368 . S
H1407 C1415 0.950 . S
H1408 C1413 0.950 . S
H1409 C1414 0.949 . S
H1410 C1416 0.950 . S
H1411 C1417 0.950 . S
H1412 C1418 0.949 . S
C1413 H1408 0.950 . S
C1413 C1415 1.327 . S
C1413 C1419 1.429 . S
C1414 C1406 1.574 . S
C1414 H1409 0.949 . S
C1414 C1420 1.368 . S
C1415 C1399 1.349 . S
C1415 H1407 0.950 . S
C1415 C1413 1.327 . S
C1416 C1404 1.349 . S
C1416 H1410 0.950 . S
C1416 C1417 1.327 . S
C1417 H1411 0.950 . S
C1417 C1416 1.327 . S
C1417 C1421 1.429 . S
C1418 C1401 1.574 . S
C1418 H1412 0.949 . S
C1418 C1422 1.368 . S
C1419 C1400 1.429 . S
C1419 C1413 1.429 . S
C1419 C1420 1.523 . S
C1420 C1401 1.368 . S
C1420 C1414 1.368 . S
C1420 C1419 1.523 . S
C1421 C1405 1.429 . S
C1421 C1417 1.429 . S
C1421 C1422 1.523 . S
C1422 C1406 1.368 . S
C1422 C1418 1.368 . S
C1422 C1421 1.523 . S
H1423 C1398 0.950 . S
H1424 C1400 0.950 . S
H1425 C1401 0.949 . S
H1426 C1403 0.950 . S
H1427 C1405 0.950 . S
C1428 C1429 1.349 . S
C1428 C1430 1.327 . S
C1428 H1453 0.950 . S
C1429 C1428 1.349 . S
C1429 C1445 1.349 . S
C1430 C1428 1.327 . S
C1430 C1449 1.429 . S
C1430 H1454 0.950 . S
C1431 C1448 1.574 . S
C1431 C1450 1.368 . S
C1431 H1455 0.949 . S
H1432 C1436 0.949 . S
C1433 C1434 1.349 . S
C1433 C1435 1.327 . S
C1433 H1456 0.950 . S
C1434 C1433 1.349 . S
C1434 C1446 1.349 . S
C1435 C1433 1.327 . S
C1435 C1451 1.429 . S
C1435 H1457 0.950 . S
C1436 H1432 0.949 . S
C1436 C1444 1.574 . S
C1436 C1452 1.368 . S
H1437 C1445 0.950 . S
H1438 C1443 0.950 . S
H1439 C1444 0.949 . S
H1440 C1446 0.950 . S
H1441 C1447 0.950 . S
H1442 C1448 0.949 . S
C1443 H1438 0.950 . S
C1443 C1445 1.327 . S
C1443 C1449 1.429 . S
C1444 C1436 1.574 . S
C1444 H1439 0.949 . S
C1444 C1450 1.368 . S
C1445 C1429 1.349 . S
C1445 H1437 0.950 . S
C1445 C1443 1.327 . S
C1446 C1434 1.349 . S
C1446 H1440 0.950 . S
C1446 C1447 1.327 . S
C1447 H1441 0.950 . S
C1447 C1446 1.327 . S
C1447 C1451 1.429 . S
C1448 C1431 1.574 . S
C1448 H1442 0.949 . S
C1448 C1452 1.368 . S
C1449 C1430 1.429 . S
C1449 C1443 1.429 . S
C1449 C1450 1.523 . S
C1450 C1431 1.368 . S
C1450 C1444 1.368 . S
C1450 C1449 1.523 . S
C1451 C1435 1.429 . S
C1451 C1447 1.429 . S
C1451 C1452 1.523 . S
C1452 C1436 1.368 . S
C1452 C1448 1.368 . S
C1452 C1451 1.523 . S
H1453 C1428 0.950 . S
H1454 C1430 0.950 . S
H1455 C1431 0.949 . S
H1456 C1433 0.950 . S
H1457 C1435 0.950 . S
C1458 C1459 1.349 . S
C1458 C1460 1.327 . S
C1458 H1483 0.950 . S
C1459 C1458 1.349 . S
C1459 C1475 1.349 . S
C1460 C1458 1.327 . S
C1460 C1479 1.429 . S
C1460 H1484 0.950 . S
C1461 C1478 1.574 . S
C1461 C1480 1.368 . S
C1461 H1485 0.949 . S
H1462 C1466 0.949 . S
C1463 C1464 1.349 . S
C1463 C1465 1.327 . S
C1463 H1486 0.950 . S
C1464 C1463 1.349 . S
C1464 C1476 1.349 . S
C1465 C1463 1.327 . S
C1465 C1481 1.429 1_554 S
C1465 H1487 0.950 . S
C1466 H1462 0.949 . S
C1466 C1474 1.574 . S
C1466 C1482 1.368 . S
H1467 C1475 0.950 . S
H1468 C1473 0.950 . S
H1469 C1474 0.949 . S
H1470 C1476 0.950 . S
H1471 C1477 0.950 . S
H1472 C1478 0.949 . S
C1473 H1468 0.950 . S
C1473 C1475 1.327 . S
C1473 C1479 1.429 . S
C1474 C1466 1.574 . S
C1474 H1469 0.949 . S
C1474 C1480 1.368 . S
C1475 C1459 1.349 . S
C1475 H1467 0.950 . S
C1475 C1473 1.327 . S
C1476 C1464 1.349 . S
C1476 H1470 0.950 . S
C1476 C1477 1.327 1_554 S
C1477 H1471 0.950 . S
C1477 C1476 1.327 1_556 S
C1477 C1481 1.429 . S
C1478 C1461 1.574 . S
C1478 H1472 0.949 . S
C1478 C1482 1.368 . S
C1479 C1460 1.429 . S
C1479 C1473 1.429 . S
C1479 C1480 1.523 . S
C1480 C1461 1.368 . S
C1480 C1474 1.368 . S
C1480 C1479 1.523 . S
C1481 C1465 1.429 1_556 S
C1481 C1477 1.429 . S
C1481 C1482 1.523 . S
C1482 C1466 1.368 . S
C1482 C1478 1.368 . S
C1482 C1481 1.523 . S
H1483 C1458 0.950 . S
H1484 C1460 0.950 . S
H1485 C1461 0.949 . S
H1486 C1463 0.950 . S
H1487 C1465 0.950 . S
C1488 C1489 1.349 . S
C1488 C1490 1.327 . S
C1488 H1513 0.950 . S
C1489 C1488 1.349 . S
C1489 C1505 1.349 . S
C1490 C1488 1.327 . S
C1490 C1509 1.429 1_554 S
C1490 H1514 0.950 . S
C1491 C1508 1.574 . S
C1491 C1510 1.368 . S
C1491 H1515 0.949 . S
H1492 C1496 0.949 . S
C1493 C1494 1.349 . S
C1493 C1495 1.327 . S
C1493 H1516 0.950 . S
C1494 C1493 1.349 . S
C1494 C1506 1.349 . S
C1495 C1493 1.327 . S
C1495 C1511 1.429 . S
C1495 H1517 0.950 . S
C1496 H1492 0.949 . S
C1496 C1504 1.574 . S
C1496 C1512 1.368 . S
H1497 C1505 0.950 . S
H1498 C1503 0.950 . S
H1499 C1504 0.949 . S
H1500 C1506 0.950 . S
H1501 C1507 0.950 . S
H1502 C1508 0.949 . S
C1503 H1498 0.950 . S
C1503 C1505 1.327 1_556 S
C1503 C1509 1.429 . S
C1504 C1496 1.574 . S
C1504 H1499 0.949 . S
C1504 C1510 1.368 . S
C1505 C1489 1.349 . S
C1505 H1497 0.950 . S
C1505 C1503 1.327 1_554 S
C1506 C1494 1.349 . S
C1506 H1500 0.950 . S
C1506 C1507 1.327 . S
C1507 H1501 0.950 . S
C1507 C1506 1.327 . S
C1507 C1511 1.429 . S
C1508 C1491 1.574 . S
C1508 H1502 0.949 . S
C1508 C1512 1.368 . S
C1509 C1490 1.429 1_556 S
C1509 C1503 1.429 . S
C1509 C1510 1.523 . S
C1510 C1491 1.368 . S
C1510 C1504 1.368 . S
C1510 C1509 1.523 . S
C1511 C1495 1.429 . S
C1511 C1507 1.429 . S
C1511 C1512 1.523 . S
C1512 C1496 1.368 . S
C1512 C1508 1.368 . S
C1512 C1511 1.523 . S
H1513 C1488 0.950 . S
H1514 C1490 0.950 . S
H1515 C1491 0.949 . S
H1516 C1493 0.950 . S
H1517 C1495 0.950 . S
C1518 C1519 1.349 . S
C1518 C1520 1.327 . S
C1518 H1543 0.950 . S
C1519 C1518 1.349 . S
C1519 C1535 1.349 . S
C1520 C1518 1.327 . S
C1520 C1539 1.429 . S
C1520 H1544 0.950 . S
C1521 C1538 1.574 . S
C1521 C1540 1.368 . S
C1521 H1545 0.949 . S
H1522 C1526 0.949 . S
C1523 C1524 1.349 . S
C1523 C1525 1.327 . S
C1523 H1546 0.950 . S
C1524 C1523 1.349 . S
C1524 C1536 1.349 . S
C1525 C1523 1.327 . S
C1525 C1541 1.429 1_554 S
C1525 H1547 0.950 . S
C1526 H1522 0.949 . S
C1526 C1534 1.574 . S
C1526 C1542 1.368 . S
H1527 C1535 0.950 . S
H1528 C1533 0.950 . S
H1529 C1534 0.949 . S
H1530 C1536 0.950 . S
H1531 C1537 0.950 . S
H1532 C1538 0.949 . S
C1533 H1528 0.950 . S
C1533 C1535 1.327 . S
C1533 C1539 1.429 . S
C1534 C1526 1.574 . S
C1534 H1529 0.949 . S
C1534 C1540 1.368 . S
C1535 C1519 1.349 . S
C1535 H1527 0.950 . S
C1535 C1533 1.327 . S
C1536 C1524 1.349 . S
C1536 H1530 0.950 . S
C1536 C1537 1.327 1_554 S
C1537 H1531 0.950 . S
C1537 C1536 1.327 1_556 S
C1537 C1541 1.429 . S
C1538 C1521 1.574 . S
C1538 H1532 0.949 . S
C1538 C1542 1.368 . S
C1539 C1520 1.429 . S
C1539 C1533 1.429 . S
C1539 C1540 1.523 . S
C1540 C1521 1.368 . S
C1540 C1534 1.368 . S
C1540 C1539 1.523 . S
C1541 C1525 1.429 1_556 S
C1541 C1537 1.429 . S
C1541 C1542 1.523 . S
C1542 C1526 1.368 . S
C1542 C1538 1.368 . S
C1542 C1541 1.523 . S
H1543 C1518 0.950 . S
H1544 C1520 0.950 . S
H1545 C1521 0.949 . S
H1546 C1523 0.950 . S
H1547 C1525 0.950 . S
C1548 C1549 1.349 . S
C1548 C1550 1.327 . S
C1548 H1573 0.950 . S
C1549 C1548 1.349 . S
C1549 C1565 1.349 . S
C1550 C1548 1.327 . S
C1550 C1569 1.429 . S
C1550 H1574 0.950 . S
C1551 C1568 1.574 . S
C1551 C1570 1.368 . S
C1551 H1575 0.949 . S
H1552 C1556 0.949 . S
C1553 C1554 1.349 . S
C1553 C1555 1.327 . S
C1553 H1576 0.950 . S
C1554 C1553 1.349 . S
C1554 C1566 1.349 . S
C1555 C1553 1.327 . S
C1555 C1571 1.429 . S
C1555 H1577 0.950 . S
C1556 H1552 0.949 . S
C1556 C1564 1.574 . S
C1556 C1572 1.368 . S
H1557 C1565 0.950 . S
H1558 C1563 0.950 . S
H1559 C1564 0.949 . S
H1560 C1566 0.950 . S
H1561 C1567 0.950 . S
H1562 C1568 0.949 . S
C1563 H1558 0.950 . S
C1563 C1565 1.327 . S
C1563 C1569 1.429 . S
C1564 C1556 1.574 . S
C1564 H1559 0.949 . S
C1564 C1570 1.368 . S
C1565 C1549 1.349 . S
C1565 H1557 0.950 . S
C1565 C1563 1.327 . S
C1566 C1554 1.349 . S
C1566 H1560 0.950 . S
C1566 C1567 1.327 . S
C1567 H1561 0.950 . S
C1567 C1566 1.327 . S
C1567 C1571 1.429 . S
C1568 C1551 1.574 . S
C1568 H1562 0.949 . S
C1568 C1572 1.368 . S
C1569 C1550 1.429 . S
C1569 C1563 1.429 . S
C1569 C1570 1.523 . S
C1570 C1551 1.368 . S
C1570 C1564 1.368 . S
C1570 C1569 1.523 . S
C1571 C1555 1.429 . S
C1571 C1567 1.429 . S
C1571 C1572 1.523 . S
C1572 C1556 1.368 . S
C1572 C1568 1.368 . S
C1572 C1571 1.523 . S
H1573 C1548 0.950 . S
H1574 C1550 0.950 . S
H1575 C1551 0.949 . S
H1576 C1553 0.950 . S
H1577 C1555 0.950 . S
C1578 C1579 1.349 . S
C1578 C1580 1.327 . S
C1578 H1603 0.950 . S
C1579 C1578 1.349 . S
C1579 C1595 1.349 . S
C1580 C1578 1.327 . S
C1580 C1599 1.429 . S
C1580 H1604 0.950 . S
C1581 C1598 1.574 . S
C1581 C1600 1.368 . S
C1581 H1605 0.949 . S
H1582 C1586 0.949 . S
C1583 C1584 1.349 . S
C1583 C1585 1.327 . S
C1583 H1606 0.950 . S
C1584 C1583 1.349 . S
C1584 C1596 1.349 . S
C1585 C1583 1.327 . S
C1585 C1601 1.429 . S
C1585 H1607 0.950 . S
C1586 H1582 0.949 . S
C1586 C1594 1.574 . S
C1586 C1602 1.368 . S
H1587 C1595 0.950 . S
H1588 C1593 0.950 . S
H1589 C1594 0.949 . S
H1590 C1596 0.950 . S
H1591 C1597 0.950 . S
H1592 C1598 0.949 . S
C1593 H1588 0.950 . S
C1593 C1595 1.327 . S
C1593 C1599 1.429 . S
C1594 C1586 1.574 . S
C1594 H1589 0.949 . S
C1594 C1600 1.368 . S
C1595 C1579 1.349 . S
C1595 H1587 0.950 . S
C1595 C1593 1.327 . S
C1596 C1584 1.349 . S
C1596 H1590 0.950 . S
C1596 C1597 1.327 . S
C1597 H1591 0.950 . S
C1597 C1596 1.327 . S
C1597 C1601 1.429 . S
C1598 C1581 1.574 . S
C1598 H1592 0.949 . S
C1598 C1602 1.368 . S
C1599 C1580 1.429 . S
C1599 C1593 1.429 . S
C1599 C1600 1.523 . S
C1600 C1581 1.368 . S
C1600 C1594 1.368 . S
C1600 C1599 1.523 . S
C1601 C1585 1.429 . S
C1601 C1597 1.429 . S
C1601 C1602 1.523 . S
C1602 C1586 1.368 . S
C1602 C1598 1.368 . S
C1602 C1601 1.523 . S
H1603 C1578 0.950 . S
H1604 C1580 0.950 . S
H1605 C1581 0.949 . S
H1606 C1583 0.950 . S
H1607 C1585 0.950 . S
C1608 C1609 1.349 . S
C1608 C1610 1.327 . S
C1608 H1633 0.950 . S
C1609 C1608 1.349 . S
C1609 C1625 1.349 . S
C1610 C1608 1.327 . S
C1610 C1629 1.429 . S
C1610 H1634 0.950 . S
C1611 C1628 1.574 . S
C1611 C1630 1.368 . S
C1611 H1635 0.949 . S
H1612 C1616 0.949 . S
C1613 C1614 1.349 . S
C1613 C1615 1.327 . S
C1613 H1636 0.950 . S
C1614 C1613 1.349 . S
C1614 C1626 1.349 . S
C1615 C1613 1.327 . S
C1615 C1631 1.429 . S
C1615 H1637 0.950 . S
C1616 H1612 0.949 . S
C1616 C1624 1.574 . S
C1616 C1632 1.368 . S
H1617 C1625 0.950 . S
H1618 C1623 0.950 . S
H1619 C1624 0.949 . S
H1620 C1626 0.950 . S
H1621 C1627 0.950 . S
H1622 C1628 0.949 . S
C1623 H1618 0.950 . S
C1623 C1625 1.327 . S
C1623 C1629 1.429 . S
C1624 C1616 1.574 . S
C1624 H1619 0.949 . S
C1624 C1630 1.368 . S
C1625 C1609 1.349 . S
C1625 H1617 0.950 . S
C1625 C1623 1.327 . S
C1626 C1614 1.349 . S
C1626 H1620 0.950 . S
C1626 C1627 1.327 . S
C1627 H1621 0.950 . S
C1627 C1626 1.327 . S
C1627 C1631 1.429 . S
C1628 C1611 1.574 . S
C1628 H1622 0.949 . S
C1628 C1632 1.368 . S
C1629 C1610 1.429 . S
C1629 C1623 1.429 . S
C1629 C1630 1.523 . S
C1630 C1611 1.368 . S
C1630 C1624 1.368 . S
C1630 C1629 1.523 . S
C1631 C1615 1.429 . S
C1631 C1627 1.429 . S
C1631 C1632 1.523 . S
C1632 C1616 1.368 . S
C1632 C1628 1.368 . S
C1632 C1631 1.523 . S
H1633 C1608 0.950 . S
H1634 C1610 0.950 . S
H1635 C1611 0.949 . S
H1636 C1613 0.950 . S
H1637 C1615 0.950 . S
C1638 C1639 1.349 . S
C1638 C1640 1.327 . S
C1638 H1663 0.950 . S
C1639 C1638 1.349 . S
C1639 C1655 1.349 . S
C1640 C1638 1.327 . S
C1640 C1659 1.429 . S
C1640 H1664 0.950 . S
C1641 C1658 1.574 . S
C1641 C1660 1.368 . S
C1641 H1665 0.949 . S
H1642 C1646 0.949 . S
C1643 C1644 1.349 . S
C1643 C1645 1.327 . S
C1643 H1666 0.950 . S
C1644 C1643 1.349 . S
C1644 C1656 1.349 . S
C1645 C1643 1.327 . S
C1645 C1661 1.429 . S
C1645 H1667 0.950 . S
C1646 H1642 0.949 . S
C1646 C1654 1.574 . S
C1646 C1662 1.368 . S
H1647 C1655 0.950 . S
H1648 C1653 0.950 . S
H1649 C1654 0.949 . S
H1650 C1656 0.950 . S
H1651 C1657 0.950 . S
H1652 C1658 0.949 . S
C1653 H1648 0.950 . S
C1653 C1655 1.327 . S
C1653 C1659 1.429 . S
C1654 C1646 1.574 . S
C1654 H1649 0.949 . S
C1654 C1660 1.368 . S
C1655 C1639 1.349 . S
C1655 H1647 0.950 . S
C1655 C1653 1.327 . S
C1656 C1644 1.349 . S
C1656 H1650 0.950 . S
C1656 C1657 1.327 . S
C1657 H1651 0.950 . S
C1657 C1656 1.327 . S
C1657 C1661 1.429 . S
C1658 C1641 1.574 . S
C1658 H1652 0.949 . S
C1658 C1662 1.368 . S
C1659 C1640 1.429 . S
C1659 C1653 1.429 . S
C1659 C1660 1.523 . S
C1660 C1641 1.368 . S
C1660 C1654 1.368 . S
C1660 C1659 1.523 . S
C1661 C1645 1.429 . S
C1661 C1657 1.429 . S
C1661 C1662 1.523 . S
C1662 C1646 1.368 . S
C1662 C1658 1.368 . S
C1662 C1661 1.523 . S
H1663 C1638 0.950 . S
H1664 C1640 0.950 . S
H1665 C1641 0.949 . S
H1666 C1643 0.950 . S
H1667 C1645 0.950 . S
C1668 C1669 1.349 . S
C1668 C1670 1.327 . S
C1668 H1693 0.950 . S
C1669 C1668 1.349 . S
C1669 C1685 1.349 . S
C1670 C1668 1.327 . S
C1670 C1689 1.429 . S
C1670 H1694 0.950 . S
C1671 C1688 1.574 . S
C1671 C1690 1.368 . S
C1671 H1695 0.949 . S
H1672 C1676 0.949 . S
C1673 C1674 1.349 . S
C1673 C1675 1.327 . S
C1673 H1696 0.950 . S
C1674 C1673 1.349 . S
C1674 C1686 1.349 . S
C1675 C1673 1.327 . S
C1675 C1691 1.429 . S
C1675 H1697 0.950 . S
C1676 H1672 0.949 . S
C1676 C1684 1.574 . S
C1676 C1692 1.368 . S
H1677 C1685 0.950 . S
H1678 C1683 0.950 . S
H1679 C1684 0.949 . S
H1680 C1686 0.950 . S
H1681 C1687 0.950 . S
H1682 C1688 0.949 . S
C1683 H1678 0.950 . S
C1683 C1685 1.327 . S
C1683 C1689 1.429 . S
C1684 C1676 1.574 . S
C1684 H1679 0.949 . S
C1684 C1690 1.368 . S
C1685 C1669 1.349 . S
C1685 H1677 0.950 . S
C1685 C1683 1.327 . S
C1686 C1674 1.349 . S
C1686 H1680 0.950 . S
C1686 C1687 1.327 . S
C1687 H1681 0.950 . S
C1687 C1686 1.327 . S
C1687 C1691 1.429 . S
C1688 C1671 1.574 . S
C1688 H1682 0.949 . S
C1688 C1692 1.368 . S
C1689 C1670 1.429 . S
C1689 C1683 1.429 . S
C1689 C1690 1.523 . S
C1690 C1671 1.368 . S
C1690 C1684 1.368 . S
C1690 C1689 1.523 . S
C1691 C1675 1.429 . S
C1691 C1687 1.429 . S
C1691 C1692 1.523 . S
C1692 C1676 1.368 . S
C1692 C1688 1.368 . S
C1692 C1691 1.523 . S
H1693 C1668 0.950 . S
H1694 C1670 0.950 . S
H1695 C1671 0.949 . S
H1696 C1673 0.950 . S
H1697 C1675 0.950 . S
C1698 C1699 1.349 . S
C1698 C1700 1.327 . S
C1698 H1723 0.950 . S
C1699 C1698 1.349 . S
C1699 C1715 1.349 . S
C1700 C1698 1.327 . S
C1700 C1719 1.429 . S
C1700 H1724 0.950 . S
C1701 C1718 1.574 . S
C1701 C1720 1.368 . S
C1701 H1725 0.949 . S
H1702 C1706 0.949 . S
C1703 C1704 1.349 . S
C1703 C1705 1.327 . S
C1703 H1726 0.950 . S
C1704 C1703 1.349 . S
C1704 C1716 1.349 . S
C1705 C1703 1.327 . S
C1705 C1721 1.429 . S
C1705 H1727 0.950 . S
C1706 H1702 0.949 . S
C1706 C1714 1.574 . S
C1706 C1722 1.368 . S
H1707 C1715 0.950 . S
H1708 C1713 0.950 . S
H1709 C1714 0.949 . S
H1710 C1716 0.950 . S
H1711 C1717 0.950 . S
H1712 C1718 0.949 . S
C1713 H1708 0.950 . S
C1713 C1715 1.327 . S
C1713 C1719 1.429 . S
C1714 C1706 1.574 . S
C1714 H1709 0.949 . S
C1714 C1720 1.368 . S
C1715 C1699 1.349 . S
C1715 H1707 0.950 . S
C1715 C1713 1.327 . S
C1716 C1704 1.349 . S
C1716 H1710 0.950 . S
C1716 C1717 1.327 . S
C1717 H1711 0.950 . S
C1717 C1716 1.327 . S
C1717 C1721 1.429 . S
C1718 C1701 1.574 . S
C1718 H1712 0.949 . S
C1718 C1722 1.368 . S
C1719 C1700 1.429 . S
C1719 C1713 1.429 . S
C1719 C1720 1.523 . S
C1720 C1701 1.368 . S
C1720 C1714 1.368 . S
C1720 C1719 1.523 . S
C1721 C1705 1.429 . S
C1721 C1717 1.429 . S
C1721 C1722 1.523 . S
C1722 C1706 1.368 . S
C1722 C1718 1.368 . S
C1722 C1721 1.523 . S
H1723 C1698 0.950 . S
H1724 C1700 0.950 . S
H1725 C1701 0.949 . S
H1726 C1703 0.950 . S
H1727 C1705 0.950 . S
C1728 C1729 1.349 . S
C1728 C1730 1.327 . S
C1728 H1753 0.950 . S
C1729 C1728 1.349 . S
C1729 C1745 1.349 . S
C1730 C1728 1.327 . S
C1730 C1749 1.429 . S
C1730 H1754 0.950 . S
C1731 C1748 1.574 . S
C1731 C1750 1.368 . S
C1731 H1755 0.949 . S
H1732 C1736 0.949 . S
C1733 C1734 1.349 . S
C1733 C1735 1.327 . S
C1733 H1756 0.950 . S
C1734 C1733 1.349 . S
C1734 C1746 1.349 . S
C1735 C1733 1.327 . S
C1735 C1751 1.429 . S
C1735 H1757 0.950 . S
C1736 H1732 0.949 . S
C1736 C1744 1.574 . S
C1736 C1752 1.368 . S
H1737 C1745 0.950 . S
H1738 C1743 0.950 . S
H1739 C1744 0.949 . S
H1740 C1746 0.950 . S
H1741 C1747 0.950 . S
H1742 C1748 0.949 . S
C1743 H1738 0.950 . S
C1743 C1745 1.327 . S
C1743 C1749 1.429 . S
C1744 C1736 1.574 . S
C1744 H1739 0.949 . S
C1744 C1750 1.368 . S
C1745 C1729 1.349 . S
C1745 H1737 0.950 . S
C1745 C1743 1.327 . S
C1746 C1734 1.349 . S
C1746 H1740 0.950 . S
C1746 C1747 1.327 . S
C1747 H1741 0.950 . S
C1747 C1746 1.327 . S
C1747 C1751 1.429 . S
C1748 C1731 1.574 . S
C1748 H1742 0.949 . S
C1748 C1752 1.368 . S
C1749 C1730 1.429 . S
C1749 C1743 1.429 . S
C1749 C1750 1.523 . S
C1750 C1731 1.368 . S
C1750 C1744 1.368 . S
C1750 C1749 1.523 . S
C1751 C1735 1.429 . S
C1751 C1747 1.429 . S
C1751 C1752 1.523 . S
C1752 C1736 1.368 . S
C1752 C1748 1.368 . S
C1752 C1751 1.523 . S
H1753 C1728 0.950 . S
H1754 C1730 0.950 . S
H1755 C1731 0.949 . S
H1756 C1733 0.950 . S
H1757 C1735 0.950 . S
C1758 C1759 1.349 . S
C1758 C1760 1.327 . S
C1758 H1783 0.950 . S
C1759 C1758 1.349 . S
C1759 C1775 1.349 . S
C1760 C1758 1.327 . S
C1760 C1779 1.429 . S
C1760 H1784 0.950 . S
C1761 C1778 1.574 . S
C1761 C1780 1.368 . S
C1761 H1785 0.949 . S
H1762 C1766 0.949 . S
C1763 C1764 1.349 . S
C1763 C1765 1.327 . S
C1763 H1786 0.950 . S
C1764 C1763 1.349 . S
C1764 C1776 1.349 . S
C1765 C1763 1.327 . S
C1765 C1781 1.429 . S
C1765 H1787 0.950 . S
C1766 H1762 0.949 . S
C1766 C1774 1.574 . S
C1766 C1782 1.368 . S
H1767 C1775 0.950 . S
H1768 C1773 0.950 . S
H1769 C1774 0.949 . S
H1770 C1776 0.950 . S
H1771 C1777 0.950 . S
H1772 C1778 0.949 . S
C1773 H1768 0.950 . S
C1773 C1775 1.327 . S
C1773 C1779 1.429 . S
C1774 C1766 1.574 . S
C1774 H1769 0.949 . S
C1774 C1780 1.368 . S
C1775 C1759 1.349 . S
C1775 H1767 0.950 . S
C1775 C1773 1.327 . S
C1776 C1764 1.349 . S
C1776 H1770 0.950 . S
C1776 C1777 1.327 . S
C1777 H1771 0.950 . S
C1777 C1776 1.327 . S
C1777 C1781 1.429 . S
C1778 C1761 1.574 . S
C1778 H1772 0.949 . S
C1778 C1782 1.368 . S
C1779 C1760 1.429 . S
C1779 C1773 1.429 . S
C1779 C1780 1.523 . S
C1780 C1761 1.368 . S
C1780 C1774 1.368 . S
C1780 C1779 1.523 . S
C1781 C1765 1.429 . S
C1781 C1777 1.429 . S
C1781 C1782 1.523 . S
C1782 C1766 1.368 . S
C1782 C1778 1.368 . S
C1782 C1781 1.523 . S
H1783 C1758 0.950 . S
H1784 C1760 0.950 . S
H1785 C1761 0.949 . S
H1786 C1763 0.950 . S
H1787 C1765 0.950 . S
C1788 C1789 1.349 . S
C1788 C1790 1.327 . S
C1788 H1813 0.950 . S
C1789 C1788 1.349 . S
C1789 C1805 1.349 . S
C1790 C1788 1.327 . S
C1790 C1809 1.429 . S
C1790 H1814 0.950 . S
C1791 C1808 1.574 . S
C1791 C1810 1.368 . S
C1791 H1815 0.949 . S
H1792 C1796 0.949 . S
C1793 C1794 1.349 . S
C1793 C1795 1.327 . S
C1793 H1816 0.950 . S
C1794 C1793 1.349 . S
C1794 C1806 1.349 . S
C1795 C1793 1.327 . S
C1795 C1811 1.429 . S
C1795 H1817 0.950 . S
C1796 H1792 0.949 . S
C1796 C1804 1.574 . S
C1796 C1812 1.368 . S
H1797 C1805 0.950 . S
H1798 C1803 0.950 . S
H1799 C1804 0.949 . S
H1800 C1806 0.950 . S
H1801 C1807 0.950 . S
H1802 C1808 0.949 . S
C1803 H1798 0.950 . S
C1803 C1805 1.327 . S
C1803 C1809 1.429 . S
C1804 C1796 1.574 . S
C1804 H1799 0.949 . S
C1804 C1810 1.368 . S
C1805 C1789 1.349 . S
C1805 H1797 0.950 . S
C1805 C1803 1.327 . S
C1806 C1794 1.349 . S
C1806 H1800 0.950 . S
C1806 C1807 1.327 . S
C1807 H1801 0.950 . S
C1807 C1806 1.327 . S
C1807 C1811 1.429 . S
C1808 C1791 1.574 . S
C1808 H1802 0.949 . S
C1808 C1812 1.368 . S
C1809 C1790 1.429 . S
C1809 C1803 1.429 . S
C1809 C1810 1.523 . S
C1810 C1791 1.368 . S
C1810 C1804 1.368 . S
C1810 C1809 1.523 . S
C1811 C1795 1.429 . S
C1811 C1807 1.429 . S
C1811 C1812 1.523 . S
C1812 C1796 1.368 . S
C1812 C1808 1.368 . S
C1812 C1811 1.523 . S
H1813 C1788 0.950 . S
H1814 C1790 0.950 . S
H1815 C1791 0.949 . S
H1816 C1793 0.950 . S
H1817 C1795 0.950 . S
C1818 C1819 1.349 . S
C1818 C1820 1.327 . S
C1818 H1843 0.950 . S
C1819 C1818 1.349 . S
C1819 C1835 1.349 . S
C1820 C1818 1.327 . S
C1820 C1839 1.429 . S
C1820 H1844 0.950 . S
C1821 C1838 1.574 . S
C1821 C1840 1.368 . S
C1821 H1845 0.949 . S
H1822 C1826 0.949 . S
C1823 C1824 1.349 . S
C1823 C1825 1.327 . S
C1823 H1846 0.950 . S
C1824 C1823 1.349 . S
C1824 C1836 1.349 . S
C1825 C1823 1.327 . S
C1825 C1841 1.429 . S
C1825 H1847 0.950 . S
C1826 H1822 0.949 . S
C1826 C1834 1.574 . S
C1826 C1842 1.368 . S
H1827 C1835 0.950 . S
H1828 C1833 0.950 . S
H1829 C1834 0.949 . S
H1830 C1836 0.950 . S
H1831 C1837 0.950 . S
H1832 C1838 0.949 . S
C1833 H1828 0.950 . S
C1833 C1835 1.327 . S
C1833 C1839 1.429 . S
C1834 C1826 1.574 . S
C1834 H1829 0.949 . S
C1834 C1840 1.368 . S
C1835 C1819 1.349 . S
C1835 H1827 0.950 . S
C1835 C1833 1.327 . S
C1836 C1824 1.349 . S
C1836 H1830 0.950 . S
C1836 C1837 1.327 . S
C1837 H1831 0.950 . S
C1837 C1836 1.327 . S
C1837 C1841 1.429 . S
C1838 C1821 1.574 . S
C1838 H1832 0.949 . S
C1838 C1842 1.368 . S
C1839 C1820 1.429 . S
C1839 C1833 1.429 . S
C1839 C1840 1.523 . S
C1840 C1821 1.368 . S
C1840 C1834 1.368 . S
C1840 C1839 1.523 . S
C1841 C1825 1.429 . S
C1841 C1837 1.429 . S
C1841 C1842 1.523 . S
C1842 C1826 1.368 . S
C1842 C1838 1.368 . S
C1842 C1841 1.523 . S
H1843 C1818 0.950 . S
H1844 C1820 0.950 . S
H1845 C1821 0.949 . S
H1846 C1823 0.950 . S
H1847 C1825 0.950 . S
C1848 C1849 1.349 . S
C1848 C1850 1.327 . S
C1848 H1873 0.950 . S
C1849 C1848 1.349 . S
C1849 C1865 1.349 . S
C1850 C1848 1.327 . S
C1850 C1869 1.429 . S
C1850 H1874 0.950 . S
C1851 C1868 1.574 . S
C1851 C1870 1.368 . S
C1851 H1875 0.949 . S
H1852 C1856 0.949 . S
C1853 C1854 1.349 . S
C1853 C1855 1.327 . S
C1853 H1876 0.950 . S
C1854 C1853 1.349 . S
C1854 C1866 1.349 . S
C1855 C1853 1.327 . S
C1855 C1871 1.429 . S
C1855 H1877 0.950 . S
C1856 H1852 0.949 . S
C1856 C1864 1.574 . S
C1856 C1872 1.368 . S
H1857 C1865 0.950 . S
H1858 C1863 0.950 . S
H1859 C1864 0.949 . S
H1860 C1866 0.950 . S
H1861 C1867 0.950 . S
H1862 C1868 0.949 . S
C1863 H1858 0.950 . S
C1863 C1865 1.327 . S
C1863 C1869 1.429 . S
C1864 C1856 1.574 . S
C1864 H1859 0.949 . S
C1864 C1870 1.368 . S
C1865 C1849 1.349 . S
C1865 H1857 0.950 . S
C1865 C1863 1.327 . S
C1866 C1854 1.349 . S
C1866 H1860 0.950 . S
C1866 C1867 1.327 . S
C1867 H1861 0.950 . S
C1867 C1866 1.327 . S
C1867 C1871 1.429 . S
C1868 C1851 1.574 . S
C1868 H1862 0.949 . S
C1868 C1872 1.368 . S
C1869 C1850 1.429 . S
C1869 C1863 1.429 . S
C1869 C1870 1.523 . S
C1870 C1851 1.368 . S
C1870 C1864 1.368 . S
C1870 C1869 1.523 . S
C1871 C1855 1.429 . S
C1871 C1867 1.429 . S
C1871 C1872 1.523 . S
C1872 C1856 1.368 . S
C1872 C1868 1.368 . S
C1872 C1871 1.523 . S
H1873 C1848 0.950 . S
H1874 C1850 0.950 . S
H1875 C1851 0.949 . S
H1876 C1853 0.950 . S
H1877 C1855 0.950 . S
C1878 C1879 1.349 . S
C1878 C1880 1.327 . S
C1878 H1903 0.950 . S
C1879 C1878 1.349 . S
C1879 C1895 1.349 . S
C1880 C1878 1.327 . S
C1880 C1899 1.429 . S
C1880 H1904 0.950 . S
C1881 C1898 1.574 . S
C1881 C1900 1.368 . S
C1881 H1905 0.949 . S
H1882 C1886 0.949 . S
C1883 C1884 1.349 . S
C1883 C1885 1.327 . S
C1883 H1906 0.950 . S
C1884 C1883 1.349 . S
C1884 C1896 1.349 . S
C1885 C1883 1.327 . S
C1885 C1901 1.429 . S
C1885 H1907 0.950 . S
C1886 H1882 0.949 . S
C1886 C1894 1.574 . S
C1886 C1902 1.368 . S
H1887 C1895 0.950 . S
H1888 C1893 0.950 . S
H1889 C1894 0.949 . S
H1890 C1896 0.950 . S
H1891 C1897 0.950 . S
H1892 C1898 0.949 . S
C1893 H1888 0.950 . S
C1893 C1895 1.327 . S
C1893 C1899 1.429 . S
C1894 C1886 1.574 . S
C1894 H1889 0.949 . S
C1894 C1900 1.368 . S
C1895 C1879 1.349 . S
C1895 H1887 0.950 . S
C1895 C1893 1.327 . S
C1896 C1884 1.349 . S
C1896 H1890 0.950 . S
C1896 C1897 1.327 . S
C1897 H1891 0.950 . S
C1897 C1896 1.327 . S
C1897 C1901 1.429 . S
C1898 C1881 1.574 . S
C1898 H1892 0.949 . S
C1898 C1902 1.368 . S
C1899 C1880 1.429 . S
C1899 C1893 1.429 . S
C1899 C1900 1.523 . S
C1900 C1881 1.368 . S
C1900 C1894 1.368 . S
C1900 C1899 1.523 . S
C1901 C1885 1.429 . S
C1901 C1897 1.429 . S
C1901 C1902 1.523 . S
C1902 C1886 1.368 . S
C1902 C1898 1.368 . S
C1902 C1901 1.523 . S
H1903 C1878 0.950 . S
H1904 C1880 0.950 . S
H1905 C1881 0.949 . S
H1906 C1883 0.950 . S
H1907 C1885 0.950 . S
C1908 C1909 1.349 . S
C1908 C1910 1.327 . S
C1908 H1933 0.950 . S
C1909 C1908 1.349 . S
C1909 C1925 1.349 . S
C1910 C1908 1.327 . S
C1910 C1929 1.429 . S
C1910 H1934 0.950 . S
C1911 C1928 1.574 . S
C1911 C1930 1.368 . S
C1911 H1935 0.949 . S
H1912 C1916 0.949 . S
C1913 C1914 1.349 . S
C1913 C1915 1.327 . S
C1913 H1936 0.950 . S
C1914 C1913 1.349 . S
C1914 C1926 1.349 . S
C1915 C1913 1.327 . S
C1915 C1931 1.429 . S
C1915 H1937 0.950 . S
C1916 H1912 0.949 . S
C1916 C1924 1.574 . S
C1916 C1932 1.368 . S
H1917 C1925 0.950 . S
H1918 C1923 0.950 . S
H1919 C1924 0.949 . S
H1920 C1926 0.950 . S
H1921 C1927 0.950 . S
H1922 C1928 0.949 . S
C1923 H1918 0.950 . S
C1923 C1925 1.327 . S
C1923 C1929 1.429 . S
C1924 C1916 1.574 . S
C1924 H1919 0.949 . S
C1924 C1930 1.368 . S
C1925 C1909 1.349 . S
C1925 H1917 0.950 . S
C1925 C1923 1.327 . S
C1926 C1914 1.349 . S
C1926 H1920 0.950 . S
C1926 C1927 1.327 . S
C1927 H1921 0.950 . S
C1927 C1926 1.327 . S
C1927 C1931 1.429 . S
C1928 C1911 1.574 . S
C1928 H1922 0.949 . S
C1928 C1932 1.368 . S
C1929 C1910 1.429 . S
C1929 C1923 1.429 . S
C1929 C1930 1.523 . S
C1930 C1911 1.368 . S
C1930 C1924 1.368 . S
C1930 C1929 1.523 . S
C1931 C1915 1.429 . S
C1931 C1927 1.429 . S
C1931 C1932 1.523 . S
C1932 C1916 1.368 . S
C1932 C1928 1.368 . S
C1932 C1931 1.523 . S
H1933 C1908 0.950 . S
H1934 C1910 0.950 . S
H1935 C1911 0.949 . S
H1936 C1913 0.950 . S
H1937 C1915 0.950 . S
C1938 C1939 1.349 . S
C1938 C1940 1.327 . S
C1938 H1963 0.950 . S
C1939 C1938 1.349 . S
C1939 C1955 1.349 . S
C1940 C1938 1.327 . S
C1940 C1959 1.429 . S
C1940 H1964 0.950 . S
C1941 C1958 1.574 . S
C1941 C1960 1.368 . S
C1941 H1965 0.949 . S
H1942 C1946 0.949 . S
C1943 C1944 1.349 . S
C1943 C1945 1.327 . S
C1943 H1966 0.950 . S
C1944 C1943 1.349 . S
C1944 C1956 1.349 . S
C1945 C1943 1.327 . S
C1945 C1961 1.429 . S
C1945 H1967 0.950 . S
C1946 H1942 0.949 . S
C1946 C1954 1.574 . S
C1946 C1962 1.368 . S
H1947 C1955 0.950 . S
H1948 C1953 0.950 . S
H1949 C1954 0.949 . S
H1950 C1956 0.950 . S
H1951 C1957 0.950 . S
H1952 C1958 0.949 . S
C1953 H1948 0.950 . S
C1953 C1955 1.327 . S
C1953 C1959 1.429 . S
C1954 C1946 1.574 . S
C1954 H1949 0.949 . S
C1954 C1960 1.368 . S
C1955 C1939 1.349 . S
C1955 H1947 0.950 . S
C1955 C1953 1.327 . S
C1956 C1944 1.349 . S
C1956 H1950 0.950 . S
C1956 C1957 1.327 . S
C1957 H1951 0.950 . S
C1957 C1956 1.327 . S
C1957 C1961 1.429 . S
C1958 C1941 1.574 . S
C1958 H1952 0.949 . S
C1958 C1962 1.368 . S
C1959 C1940 1.429 . S
C1959 C1953 1.429 . S
C1959 C1960 1.523 . S
C1960 C1941 1.368 . S
C1960 C1954 1.368 . S
C1960 C1959 1.523 . S
C1961 C1945 1.429 . S
C1961 C1957 1.429 . S
C1961 C1962 1.523 . S
C1962 C1946 1.368 . S
C1962 C1958 1.368 . S
C1962 C1961 1.523 . S
H1963 C1938 0.950 . S
H1964 C1940 0.950 . S
H1965 C1941 0.949 . S
H1966 C1943 0.950 . S
H1967 C1945 0.950 . S
C1968 C1969 1.349 . S
C1968 C1970 1.327 . S
C1968 H1993 0.950 . S
C1969 C1968 1.349 . S
C1969 C1985 1.349 . S
C1970 C1968 1.327 . S
C1970 C1989 1.429 . S
C1970 H1994 0.950 . S
C1971 C1988 1.574 . S
C1971 C1990 1.368 . S
C1971 H1995 0.949 . S
H1972 C1976 0.949 . S
C1973 C1974 1.349 . S
C1973 C1975 1.327 . S
C1973 H1996 0.950 . S
C1974 C1973 1.349 . S
C1974 C1986 1.349 . S
C1975 C1973 1.327 . S
C1975 C1991 1.429 . S
C1975 H1997 0.950 . S
C1976 H1972 0.949 . S
C1976 C1984 1.574 . S
C1976 C1992 1.368 . S
H1977 C1985 0.950 . S
H1978 C1983 0.950 . S
H1979 C1984 0.949 . S
H1980 C1986 0.950 . S
H1981 C1987 0.950 . S
H1982 C1988 0.949 . S
C1983 H1978 0.950 . S
C1983 C1985 1.327 . S
C1983 C1989 1.429 . S
C1984 C1976 1.574 . S
C1984 H1979 0.949 . S
C1984 C1990 1.368 . S
C1985 C1969 1.349 . S
C1985 H1977 0.950 . S
C1985 C1983 1.327 . S
C1986 C1974 1.349 . S
C1986 H1980 0.950 . S
C1986 C1987 1.327 . S
C1987 H1981 0.950 . S
C1987 C1986 1.327 . S
C1987 C1991 1.429 . S
C1988 C1971 1.574 . S
C1988 H1982 0.949 . S
C1988 C1992 1.368 . S
C1989 C1970 1.429 . S
C1989 C1983 1.429 . S
C1989 C1990 1.523 . S
C1990 C1971 1.368 . S
C1990 C1984 1.368 . S
C1990 C1989 1.523 . S
C1991 C1975 1.429 . S
C1991 C1987 1.429 . S
C1991 C1992 1.523 . S
C1992 C1976 1.368 . S
C1992 C1988 1.368 . S
C1992 C1991 1.523 . S
H1993 C1968 0.950 . S
H1994 C1970 0.950 . S
H1995 C1971 0.949 . S
H1996 C1973 0.950 . S
H1997 C1975 0.950 . S
C1998 C1999 1.349 . S
C1998 C2000 1.327 . S
C1998 H2023 0.950 . S
C1999 C1998 1.349 . S
C1999 C2015 1.349 . S
C2000 C1998 1.327 . S
C2000 C2019 1.429 1_556 S
C2000 H2024 0.950 . S
C2001 C2018 1.574 . S
C2001 C2020 1.368 . S
C2001 H2025 0.949 . S
H2002 C2006 0.949 . S
C2003 C2004 1.349 . S
C2003 C2005 1.327 . S
C2003 H2026 0.950 . S
C2004 C2003 1.349 . S
C2004 C2016 1.349 . S
C2005 C2003 1.327 . S
C2005 C2021 1.429 . S
C2005 H2027 0.950 . S
C2006 H2002 0.949 . S
C2006 C2014 1.574 . S
C2006 C2022 1.368 . S
H2007 C2015 0.950 . S
H2008 C2013 0.950 1_554 S
H2009 C2014 0.949 . S
H2010 C2016 0.950 . S
H2011 C2017 0.950 . S
H2012 C2018 0.949 . S
C2013 H2008 0.950 1_556 S
C2013 C2015 1.327 . S
C2013 C2019 1.429 1_556 S
C2014 C2006 1.574 . S
C2014 H2009 0.949 . S
C2014 C2020 1.368 . S
C2015 C1999 1.349 . S
C2015 H2007 0.950 . S
C2015 C2013 1.327 . S
C2016 C2004 1.349 . S
C2016 H2010 0.950 . S
C2016 C2017 1.327 . S
C2017 H2011 0.950 . S
C2017 C2016 1.327 . S
C2017 C2021 1.429 . S
C2018 C2001 1.574 . S
C2018 H2012 0.949 . S
C2018 C2022 1.368 . S
C2019 C2000 1.429 1_554 S
C2019 C2013 1.429 1_554 S
C2019 C2020 1.523 . S
C2020 C2001 1.368 . S
C2020 C2014 1.368 . S
C2020 C2019 1.523 . S
C2021 C2005 1.429 . S
C2021 C2017 1.429 . S
C2021 C2022 1.523 . S
C2022 C2006 1.368 . S
C2022 C2018 1.368 . S
C2022 C2021 1.523 . S
H2023 C1998 0.950 . S
H2024 C2000 0.950 . S
H2025 C2001 0.949 . S
H2026 C2003 0.950 . S
H2027 C2005 0.950 . S
C2028 C2029 1.349 . S
C2028 C2030 1.327 . S
C2028 H2053 0.950 . S
C2029 C2028 1.349 . S
C2029 C2045 1.349 . S
C2030 C2028 1.327 . S
C2030 C2049 1.429 1_556 S
C2030 H2054 0.950 1_556 S
C2031 C2048 1.574 . S
C2031 C2050 1.368 . S
C2031 H2055 0.949 . S
H2032 C2036 0.949 . S
C2033 C2034 1.349 . S
C2033 C2035 1.327 . S
C2033 H2056 0.950 . S
C2034 C2033 1.349 . S
C2034 C2046 1.349 . S
C2035 C2033 1.327 . S
C2035 C2051 1.429 . S
C2035 H2057 0.950 . S
C2036 H2032 0.949 . S
C2036 C2044 1.574 . S
C2036 C2052 1.368 . S
H2037 C2045 0.950 . S
H2038 C2043 0.950 . S
H2039 C2044 0.949 . S
H2040 C2046 0.950 . S
H2041 C2047 0.950 . S
H2042 C2048 0.949 . S
C2043 H2038 0.950 . S
C2043 C2045 1.327 . S
C2043 C2049 1.429 1_556 S
C2044 C2036 1.574 . S
C2044 H2039 0.949 . S
C2044 C2050 1.368 . S
C2045 C2029 1.349 . S
C2045 H2037 0.950 . S
C2045 C2043 1.327 . S
C2046 C2034 1.349 . S
C2046 H2040 0.950 . S
C2046 C2047 1.327 . S
C2047 H2041 0.950 . S
C2047 C2046 1.327 . S
C2047 C2051 1.429 . S
C2048 C2031 1.574 . S
C2048 H2042 0.949 . S
C2048 C2052 1.368 . S
C2049 C2030 1.429 1_554 S
C2049 C2043 1.429 1_554 S
C2049 C2050 1.523 . S
C2050 C2031 1.368 . S
C2050 C2044 1.368 . S
C2050 C2049 1.523 . S
C2051 C2035 1.429 . S
C2051 C2047 1.429 . S
C2051 C2052 1.523 . S
C2052 C2036 1.368 . S
C2052 C2048 1.368 . S
C2052 C2051 1.523 . S
H2053 C2028 0.950 . S
H2054 C2030 0.950 1_554 S
H2055 C2031 0.949 . S
H2056 C2033 0.950 . S
H2057 C2035 0.950 . S
C2058 C2059 1.349 . S
C2058 C2060 1.327 . S
C2058 H2083 0.950 . S
C2059 C2058 1.349 . S
C2059 C2075 1.349 . S
C2060 C2058 1.327 . S
C2060 C2079 1.429 1_556 S
C2060 H2084 0.950 . S
C2061 C2078 1.574 . S
C2061 C2080 1.368 . S
C2061 H2085 0.949 . S
H2062 C2066 0.949 . S
C2063 C2064 1.349 . S
C2063 C2065 1.327 . S
C2063 H2086 0.950 . S
C2064 C2063 1.349 . S
C2064 C2076 1.349 . S
C2065 C2063 1.327 . S
C2065 C2081 1.429 . S
C2065 H2087 0.950 . S
C2066 H2062 0.949 . S
C2066 C2074 1.574 . S
C2066 C2082 1.368 . S
H2067 C2075 0.950 . S
H2068 C2073 0.950 . S
H2069 C2074 0.949 . S
H2070 C2076 0.950 . S
H2071 C2077 0.950 . S
H2072 C2078 0.949 . S
C2073 H2068 0.950 . S
C2073 C2075 1.327 1_554 S
C2073 C2079 1.429 . S
C2074 C2066 1.574 . S
C2074 H2069 0.949 . S
C2074 C2080 1.368 . S
C2075 C2059 1.349 . S
C2075 H2067 0.950 . S
C2075 C2073 1.327 1_556 S
C2076 C2064 1.349 . S
C2076 H2070 0.950 . S
C2076 C2077 1.327 . S
C2077 H2071 0.950 . S
C2077 C2076 1.327 . S
C2077 C2081 1.429 . S
C2078 C2061 1.574 . S
C2078 H2072 0.949 . S
C2078 C2082 1.368 . S
C2079 C2060 1.429 1_554 S
C2079 C2073 1.429 . S
C2079 C2080 1.523 . S
C2080 C2061 1.368 . S
C2080 C2074 1.368 . S
C2080 C2079 1.523 . S
C2081 C2065 1.429 . S
C2081 C2077 1.429 . S
C2081 C2082 1.523 . S
C2082 C2066 1.368 . S
C2082 C2078 1.368 . S
C2082 C2081 1.523 . S
H2083 C2058 0.950 . S
H2084 C2060 0.950 . S
H2085 C2061 0.949 . S
H2086 C2063 0.950 . S
H2087 C2065 0.950 . S
C2088 C2089 1.349 . S
C2088 C2090 1.327 . S
C2088 H2113 0.950 1_554 S
C2089 C2088 1.349 . S
C2089 C2105 1.349 . S
C2090 C2088 1.327 . S
C2090 C2109 1.429 . S
C2090 H2114 0.950 . S
C2091 C2108 1.574 . S
C2091 C2110 1.368 . S
C2091 H2115 0.949 . S
H2092 C2096 0.949 . S
C2093 C2094 1.349 . S
C2093 C2095 1.327 . S
C2093 H2116 0.950 . S
C2094 C2093 1.349 . S
C2094 C2106 1.349 . S
C2095 C2093 1.327 . S
C2095 C2111 1.429 . S
C2095 H2117 0.950 . S
C2096 H2092 0.949 . S
C2096 C2104 1.574 . S
C2096 C2112 1.368 . S
H2097 C2105 0.950 . S
H2098 C2103 0.950 . S
H2099 C2104 0.949 . S
H2100 C2106 0.950 . S
H2101 C2107 0.950 . S
H2102 C2108 0.949 . S
C2103 H2098 0.950 . S
C2103 C2105 1.327 . S
C2103 C2109 1.429 . S
C2104 C2096 1.574 . S
C2104 H2099 0.949 . S
C2104 C2110 1.368 . S
C2105 C2089 1.349 . S
C2105 H2097 0.950 . S
C2105 C2103 1.327 . S
C2106 C2094 1.349 . S
C2106 H2100 0.950 . S
C2106 C2107 1.327 . S
C2107 H2101 0.950 . S
C2107 C2106 1.327 . S
C2107 C2111 1.429 . S
C2108 C2091 1.574 . S
C2108 H2102 0.949 . S
C2108 C2112 1.368 . S
C2109 C2090 1.429 . S
C2109 C2103 1.429 . S
C2109 C2110 1.523 . S
C2110 C2091 1.368 . S
C2110 C2104 1.368 . S
C2110 C2109 1.523 . S
C2111 C2095 1.429 . S
C2111 C2107 1.429 . S
C2111 C2112 1.523 . S
C2112 C2096 1.368 . S
C2112 C2108 1.368 . S
C2112 C2111 1.523 . S
H2113 C2088 0.950 1_556 S
H2114 C2090 0.950 . S
H2115 C2091 0.949 . S
H2116 C2093 0.950 . S
H2117 C2095 0.950 . S
C2118 C2119 1.349 . S
C2118 C2120 1.327 . S
C2118 H2143 0.950 . S
C2119 C2118 1.349 . S
C2119 C2135 1.349 . S
C2120 C2118 1.327 . S
C2120 C2139 1.429 . S
C2120 H2144 0.950 . S
C2121 C2138 1.574 . S
C2121 C2140 1.368 . S
C2121 H2145 0.949 . S
H2122 C2126 0.949 . S
C2123 C2124 1.349 . S
C2123 C2125 1.327 . S
C2123 H2146 0.950 1_554 S
C2124 C2123 1.349 . S
C2124 C2136 1.349 . S
C2125 C2123 1.327 . S
C2125 C2141 1.429 . S
C2125 H2147 0.950 . S
C2126 H2122 0.949 . S
C2126 C2134 1.574 . S
C2126 C2142 1.368 . S
H2127 C2135 0.950 . S
H2128 C2133 0.950 . S
H2129 C2134 0.949 . S
H2130 C2136 0.950 . S
H2131 C2137 0.950 . S
H2132 C2138 0.949 . S
C2133 H2128 0.950 . S
C2133 C2135 1.327 . S
C2133 C2139 1.429 . S
C2134 C2126 1.574 . S
C2134 H2129 0.949 . S
C2134 C2140 1.368 . S
C2135 C2119 1.349 . S
C2135 H2127 0.950 . S
C2135 C2133 1.327 . S
C2136 C2124 1.349 . S
C2136 H2130 0.950 . S
C2136 C2137 1.327 . S
C2137 H2131 0.950 . S
C2137 C2136 1.327 . S
C2137 C2141 1.429 . S
C2138 C2121 1.574 . S
C2138 H2132 0.949 . S
C2138 C2142 1.368 . S
C2139 C2120 1.429 . S
C2139 C2133 1.429 . S
C2139 C2140 1.523 . S
C2140 C2121 1.368 . S
C2140 C2134 1.368 . S
C2140 C2139 1.523 . S
C2141 C2125 1.429 . S
C2141 C2137 1.429 . S
C2141 C2142 1.523 . S
C2142 C2126 1.368 . S
C2142 C2138 1.368 . S
C2142 C2141 1.523 . S
H2143 C2118 0.950 . S
H2144 C2120 0.950 . S
H2145 C2121 0.949 . S
H2146 C2123 0.950 1_556 S
H2147 C2125 0.950 . S
C2148 C2149 1.349 . S
C2148 C2150 1.327 . S
C2148 H2173 0.950 . S
C2149 C2148 1.349 . S
C2149 C2165 1.349 . S
C2150 C2148 1.327 . S
C2150 C2169 1.429 . S
C2150 H2174 0.950 . S
C2151 C2168 1.574 . S
C2151 C2170 1.368 . S
C2151 H2175 0.949 . S
H2152 C2156 0.949 . S
C2153 C2154 1.349 . S
C2153 C2155 1.327 . S
C2153 H2176 0.950 . S
C2154 C2153 1.349 . S
C2154 C2166 1.349 . S
C2155 C2153 1.327 . S
C2155 C2171 1.429 . S
C2155 H2177 0.950 . S
C2156 H2152 0.949 . S
C2156 C2164 1.574 . S
C2156 C2172 1.368 . S
H2157 C2165 0.950 . S
H2158 C2163 0.950 . S
H2159 C2164 0.949 . S
H2160 C2166 0.950 . S
H2161 C2167 0.950 . S
H2162 C2168 0.949 . S
C2163 H2158 0.950 . S
C2163 C2165 1.327 . S
C2163 C2169 1.429 . S
C2164 C2156 1.574 . S
C2164 H2159 0.949 . S
C2164 C2170 1.368 . S
C2165 C2149 1.349 . S
C2165 H2157 0.950 . S
C2165 C2163 1.327 . S
C2166 C2154 1.349 . S
C2166 H2160 0.950 . S
C2166 C2167 1.327 . S
C2167 H2161 0.950 . S
C2167 C2166 1.327 . S
C2167 C2171 1.429 . S
C2168 C2151 1.574 . S
C2168 H2162 0.949 . S
C2168 C2172 1.368 . S
C2169 C2150 1.429 . S
C2169 C2163 1.429 . S
C2169 C2170 1.523 . S
C2170 C2151 1.368 . S
C2170 C2164 1.368 . S
C2170 C2169 1.523 . S
C2171 C2155 1.429 . S
C2171 C2167 1.429 . S
C2171 C2172 1.523 . S
C2172 C2156 1.368 . S
C2172 C2168 1.368 . S
C2172 C2171 1.523 . S
H2173 C2148 0.950 . S
H2174 C2150 0.950 . S
H2175 C2151 0.949 . S
H2176 C2153 0.950 . S
H2177 C2155 0.950 . S
C2178 C2179 1.349 . S
C2178 C2180 1.327 . S
C2178 H2203 0.950 . S
C2179 C2178 1.349 . S
C2179 C2195 1.349 . S
C2180 C2178 1.327 . S
C2180 C2199 1.429 . S
C2180 H2204 0.950 . S
C2181 C2198 1.574 . S
C2181 C2200 1.368 . S
C2181 H2205 0.949 . S
H2182 C2186 0.949 . S
C2183 C2184 1.349 . S
C2183 C2185 1.327 . S
C2183 H2206 0.950 . S
C2184 C2183 1.349 . S
C2184 C2196 1.349 . S
C2185 C2183 1.327 . S
C2185 C2201 1.429 . S
C2185 H2207 0.950 . S
C2186 H2182 0.949 . S
C2186 C2194 1.574 . S
C2186 C2202 1.368 . S
H2187 C2195 0.950 . S
H2188 C2193 0.950 . S
H2189 C2194 0.949 . S
H2190 C2196 0.950 . S
H2191 C2197 0.950 . S
H2192 C2198 0.949 . S
C2193 H2188 0.950 . S
C2193 C2195 1.327 . S
C2193 C2199 1.429 . S
C2194 C2186 1.574 . S
C2194 H2189 0.949 . S
C2194 C2200 1.368 . S
C2195 C2179 1.349 . S
C2195 H2187 0.950 . S
C2195 C2193 1.327 . S
C2196 C2184 1.349 . S
C2196 H2190 0.950 . S
C2196 C2197 1.327 . S
C2197 H2191 0.950 . S
C2197 C2196 1.327 . S
C2197 C2201 1.429 . S
C2198 C2181 1.574 . S
C2198 H2192 0.949 . S
C2198 C2202 1.368 . S
C2199 C2180 1.429 . S
C2199 C2193 1.429 . S
C2199 C2200 1.523 . S
C2200 C2181 1.368 . S
C2200 C2194 1.368 . S
C2200 C2199 1.523 . S
C2201 C2185 1.429 . S
C2201 C2197 1.429 . S
C2201 C2202 1.523 . S
C2202 C2186 1.368 . S
C2202 C2198 1.368 . S
C2202 C2201 1.523 . S
H2203 C2178 0.950 . S
H2204 C2180 0.950 . S
H2205 C2181 0.949 . S
H2206 C2183 0.950 . S
H2207 C2185 0.950 . S
C2208 C2209 1.349 . S
C2208 C2210 1.327 . S
C2208 H2233 0.950 . S
C2209 C2208 1.349 . S
C2209 C2225 1.349 . S
C2210 C2208 1.327 . S
C2210 C2229 1.429 . S
C2210 H2234 0.950 . S
C2211 C2228 1.574 . S
C2211 C2230 1.368 . S
C2211 H2235 0.949 . S
H2212 C2216 0.949 . S
C2213 C2214 1.349 . S
C2213 C2215 1.327 . S
C2213 H2236 0.950 . S
C2214 C2213 1.349 . S
C2214 C2226 1.349 . S
C2215 C2213 1.327 . S
C2215 C2231 1.429 . S
C2215 H2237 0.950 . S
C2216 H2212 0.949 . S
C2216 C2224 1.574 . S
C2216 C2232 1.368 . S
H2217 C2225 0.950 . S
H2218 C2223 0.950 . S
H2219 C2224 0.949 . S
H2220 C2226 0.950 . S
H2221 C2227 0.950 . S
H2222 C2228 0.949 . S
C2223 H2218 0.950 . S
C2223 C2225 1.327 . S
C2223 C2229 1.429 . S
C2224 C2216 1.574 . S
C2224 H2219 0.949 . S
C2224 C2230 1.368 . S
C2225 C2209 1.349 . S
C2225 H2217 0.950 . S
C2225 C2223 1.327 . S
C2226 C2214 1.349 . S
C2226 H2220 0.950 . S
C2226 C2227 1.327 . S
C2227 H2221 0.950 . S
C2227 C2226 1.327 . S
C2227 C2231 1.429 . S
C2228 C2211 1.574 . S
C2228 H2222 0.949 . S
C2228 C2232 1.368 . S
C2229 C2210 1.429 . S
C2229 C2223 1.429 . S
C2229 C2230 1.523 . S
C2230 C2211 1.368 . S
C2230 C2224 1.368 . S
C2230 C2229 1.523 . S
C2231 C2215 1.429 . S
C2231 C2227 1.429 . S
C2231 C2232 1.523 . S
C2232 C2216 1.368 . S
C2232 C2228 1.368 . S
C2232 C2231 1.523 . S
H2233 C2208 0.950 . S
H2234 C2210 0.950 . S
H2235 C2211 0.949 . S
H2236 C2213 0.950 . S
H2237 C2215 0.950 . S
C2238 C2239 1.349 . S
C2238 C2240 1.327 . S
C2238 H2263 0.950 . S
C2239 C2238 1.349 . S
C2239 C2255 1.349 . S
C2240 C2238 1.327 . S
C2240 C2259 1.429 . S
C2240 H2264 0.950 . S
C2241 C2258 1.574 . S
C2241 C2260 1.368 . S
C2241 H2265 0.949 . S
H2242 C2246 0.949 . S
C2243 C2244 1.349 . S
C2243 C2245 1.327 . S
C2243 H2266 0.950 . S
C2244 C2243 1.349 . S
C2244 C2256 1.349 . S
C2245 C2243 1.327 . S
C2245 C2261 1.429 . S
C2245 H2267 0.950 . S
C2246 H2242 0.949 . S
C2246 C2254 1.574 . S
C2246 C2262 1.368 . S
H2247 C2255 0.950 . S
H2248 C2253 0.950 . S
H2249 C2254 0.949 . S
H2250 C2256 0.950 . S
H2251 C2257 0.950 . S
H2252 C2258 0.949 . S
C2253 H2248 0.950 . S
C2253 C2255 1.327 . S
C2253 C2259 1.429 . S
C2254 C2246 1.574 . S
C2254 H2249 0.949 . S
C2254 C2260 1.368 . S
C2255 C2239 1.349 . S
C2255 H2247 0.950 . S
C2255 C2253 1.327 . S
C2256 C2244 1.349 . S
C2256 H2250 0.950 . S
C2256 C2257 1.327 . S
C2257 H2251 0.950 . S
C2257 C2256 1.327 . S
C2257 C2261 1.429 . S
C2258 C2241 1.574 . S
C2258 H2252 0.949 . S
C2258 C2262 1.368 . S
C2259 C2240 1.429 . S
C2259 C2253 1.429 . S
C2259 C2260 1.523 . S
C2260 C2241 1.368 . S
C2260 C2254 1.368 . S
C2260 C2259 1.523 . S
C2261 C2245 1.429 . S
C2261 C2257 1.429 . S
C2261 C2262 1.523 . S
C2262 C2246 1.368 . S
C2262 C2258 1.368 . S
C2262 C2261 1.523 . S
H2263 C2238 0.950 . S
H2264 C2240 0.950 . S
H2265 C2241 0.949 . S
H2266 C2243 0.950 . S
H2267 C2245 0.950 . S
C2268 C2269 1.349 . S
C2268 C2270 1.327 . S
C2268 H2293 0.950 . S
C2269 C2268 1.349 . S
C2269 C2285 1.349 . S
C2270 C2268 1.327 . S
C2270 C2289 1.429 . S
C2270 H2294 0.950 . S
C2271 C2288 1.574 . S
C2271 C2290 1.368 . S
C2271 H2295 0.949 . S
H2272 C2276 0.949 . S
C2273 C2274 1.349 . S
C2273 C2275 1.327 . S
C2273 H2296 0.950 . S
C2274 C2273 1.349 . S
C2274 C2286 1.349 . S
C2275 C2273 1.327 . S
C2275 C2291 1.429 . S
C2275 H2297 0.950 . S
C2276 H2272 0.949 . S
C2276 C2284 1.574 . S
C2276 C2292 1.368 . S
H2277 C2285 0.950 . S
H2278 C2283 0.950 . S
H2279 C2284 0.949 . S
H2280 C2286 0.950 . S
H2281 C2287 0.950 . S
H2282 C2288 0.949 . S
C2283 H2278 0.950 . S
C2283 C2285 1.327 . S
C2283 C2289 1.429 . S
C2284 C2276 1.574 . S
C2284 H2279 0.949 . S
C2284 C2290 1.368 . S
C2285 C2269 1.349 . S
C2285 H2277 0.950 . S
C2285 C2283 1.327 . S
C2286 C2274 1.349 . S
C2286 H2280 0.950 . S
C2286 C2287 1.327 . S
C2287 H2281 0.950 . S
C2287 C2286 1.327 . S
C2287 C2291 1.429 . S
C2288 C2271 1.574 . S
C2288 H2282 0.949 . S
C2288 C2292 1.368 . S
C2289 C2270 1.429 . S
C2289 C2283 1.429 . S
C2289 C2290 1.523 . S
C2290 C2271 1.368 . S
C2290 C2284 1.368 . S
C2290 C2289 1.523 . S
C2291 C2275 1.429 . S
C2291 C2287 1.429 . S
C2291 C2292 1.523 . S
C2292 C2276 1.368 . S
C2292 C2288 1.368 . S
C2292 C2291 1.523 . S
H2293 C2268 0.950 . S
H2294 C2270 0.950 . S
H2295 C2271 0.949 . S
H2296 C2273 0.950 . S
H2297 C2275 0.950 . S
C2298 C2299 1.349 . S
C2298 C2300 1.327 . S
C2298 H2323 0.950 . S
C2299 C2298 1.349 . S
C2299 C2315 1.349 . S
C2300 C2298 1.327 . S
C2300 C2319 1.429 . S
C2300 H2324 0.950 . S
C2301 C2318 1.574 . S
C2301 C2320 1.368 . S
C2301 H2325 0.949 . S
H2302 C2306 0.949 . S
C2303 C2304 1.349 . S
C2303 C2305 1.327 . S
C2303 H2326 0.950 . S
C2304 C2303 1.349 . S
C2304 C2316 1.349 . S
C2305 C2303 1.327 . S
C2305 C2321 1.429 . S
C2305 H2327 0.950 . S
C2306 H2302 0.949 . S
C2306 C2314 1.574 . S
C2306 C2322 1.368 . S
H2307 C2315 0.950 1_554 S
H2308 C2313 0.950 . S
H2309 C2314 0.949 . S
H2310 C2316 0.950 . S
H2311 C2317 0.950 . S
H2312 C2318 0.949 . S
C2313 H2308 0.950 . S
C2313 C2315 1.327 . S
C2313 C2319 1.429 . S
C2314 C2306 1.574 . S
C2314 H2309 0.949 . S
C2314 C2320 1.368 . S
C2315 C2299 1.349 . S
C2315 H2307 0.950 1_556 S
C2315 C2313 1.327 . S
C2316 C2304 1.349 . S
C2316 H2310 0.950 . S
C2316 C2317 1.327 . S
C2317 H2311 0.950 . S
C2317 C2316 1.327 . S
C2317 C2321 1.429 . S
C2318 C2301 1.574 . S
C2318 H2312 0.949 . S
C2318 C2322 1.368 . S
C2319 C2300 1.429 . S
C2319 C2313 1.429 . S
C2319 C2320 1.523 . S
C2320 C2301 1.368 . S
C2320 C2314 1.368 . S
C2320 C2319 1.523 . S
C2321 C2305 1.429 . S
C2321 C2317 1.429 . S
C2321 C2322 1.523 . S
C2322 C2306 1.368 . S
C2322 C2318 1.368 . S
C2322 C2321 1.523 . S
H2323 C2298 0.950 . S
H2324 C2300 0.950 . S
H2325 C2301 0.949 . S
H2326 C2303 0.950 . S
H2327 C2305 0.950 . S
C2328 C2329 1.349 . S
C2328 C2330 1.327 . S
C2328 H2353 0.950 . S
C2329 C2328 1.349 . S
C2329 C2345 1.349 . S
C2330 C2328 1.327 . S
C2330 C2349 1.429 . S
C2330 H2354 0.950 . S
C2331 C2348 1.574 . S
C2331 C2350 1.368 . S
C2331 H2355 0.949 . S
H2332 C2336 0.949 . S
C2333 C2334 1.349 . S
C2333 C2335 1.327 . S
C2333 H2356 0.950 . S
C2334 C2333 1.349 . S
C2334 C2346 1.349 . S
C2335 C2333 1.327 . S
C2335 C2351 1.429 . S
C2335 H2357 0.950 . S
C2336 H2332 0.949 . S
C2336 C2344 1.574 . S
C2336 C2352 1.368 . S
H2337 C2345 0.950 . S
H2338 C2343 0.950 . S
H2339 C2344 0.949 . S
H2340 C2346 0.950 1_554 S
H2341 C2347 0.950 . S
H2342 C2348 0.949 . S
C2343 H2338 0.950 . S
C2343 C2345 1.327 . S
C2343 C2349 1.429 . S
C2344 C2336 1.574 . S
C2344 H2339 0.949 . S
C2344 C2350 1.368 . S
C2345 C2329 1.349 . S
C2345 H2337 0.950 . S
C2345 C2343 1.327 . S
C2346 C2334 1.349 . S
C2346 H2340 0.950 1_556 S
C2346 C2347 1.327 . S
C2347 H2341 0.950 . S
C2347 C2346 1.327 . S
C2347 C2351 1.429 . S
C2348 C2331 1.574 . S
C2348 H2342 0.949 . S
C2348 C2352 1.368 . S
C2349 C2330 1.429 . S
C2349 C2343 1.429 . S
C2349 C2350 1.523 . S
C2350 C2331 1.368 . S
C2350 C2344 1.368 . S
C2350 C2349 1.523 . S
C2351 C2335 1.429 . S
C2351 C2347 1.429 . S
C2351 C2352 1.523 . S
C2352 C2336 1.368 . S
C2352 C2348 1.368 . S
C2352 C2351 1.523 . S
H2353 C2328 0.950 . S
H2354 C2330 0.950 . S
H2355 C2331 0.949 . S
H2356 C2333 0.950 . S
H2357 C2335 0.950 . S
C2358 C2359 1.349 . S
C2358 C2360 1.327 . S
C2358 H2383 0.950 . S
C2359 C2358 1.349 . S
C2359 C2375 1.349 . S
C2360 C2358 1.327 . S
C2360 C2379 1.429 . S
C2360 H2384 0.950 . S
C2361 C2378 1.574 . S
C2361 C2380 1.368 . S
C2361 H2385 0.949 . S
H2362 C2366 0.949 . S
C2363 C2364 1.349 . S
C2363 C2365 1.327 . S
C2363 H2386 0.950 . S
C2364 C2363 1.349 . S
C2364 C2376 1.349 . S
C2365 C2363 1.327 . S
C2365 C2381 1.429 . S
C2365 H2387 0.950 . S
C2366 H2362 0.949 . S
C2366 C2374 1.574 . S
C2366 C2382 1.368 . S
H2367 C2375 0.950 . S
H2368 C2373 0.950 . S
H2369 C2374 0.949 . S
H2370 C2376 0.950 . S
H2371 C2377 0.950 . S
H2372 C2378 0.949 . S
C2373 H2368 0.950 . S
C2373 C2375 1.327 . S
C2373 C2379 1.429 . S
C2374 C2366 1.574 . S
C2374 H2369 0.949 . S
C2374 C2380 1.368 . S
C2375 C2359 1.349 . S
C2375 H2367 0.950 . S
C2375 C2373 1.327 . S
C2376 C2364 1.349 . S
C2376 H2370 0.950 . S
C2376 C2377 1.327 . S
C2377 H2371 0.950 . S
C2377 C2376 1.327 . S
C2377 C2381 1.429 . S
C2378 C2361 1.574 . S
C2378 H2372 0.949 . S
C2378 C2382 1.368 . S
C2379 C2360 1.429 . S
C2379 C2373 1.429 . S
C2379 C2380 1.523 . S
C2380 C2361 1.368 . S
C2380 C2374 1.368 . S
C2380 C2379 1.523 . S
C2381 C2365 1.429 . S
C2381 C2377 1.429 . S
C2381 C2382 1.523 . S
C2382 C2366 1.368 . S
C2382 C2378 1.368 . S
C2382 C2381 1.523 . S
H2383 C2358 0.950 . S
H2384 C2360 0.950 . S
H2385 C2361 0.949 . S
H2386 C2363 0.950 . S
H2387 C2365 0.950 . S
C2388 C2389 1.349 . S
C2388 C2390 1.327 . S
C2388 H2413 0.950 . S
C2389 C2388 1.349 . S
C2389 C2405 1.349 . S
C2390 C2388 1.327 . S
C2390 C2409 1.429 . S
C2390 H2414 0.950 . S
C2391 C2408 1.574 . S
C2391 C2410 1.368 . S
C2391 H2415 0.949 . S
H2392 C2396 0.949 . S
C2393 C2394 1.349 . S
C2393 C2395 1.327 . S
C2393 H2416 0.950 . S
C2394 C2393 1.349 . S
C2394 C2406 1.349 . S
C2395 C2393 1.327 . S
C2395 C2411 1.429 . S
C2395 H2417 0.950 . S
C2396 H2392 0.949 . S
C2396 C2404 1.574 . S
C2396 C2412 1.368 . S
H2397 C2405 0.950 . S
H2398 C2403 0.950 . S
H2399 C2404 0.949 . S
H2400 C2406 0.950 . S
H2401 C2407 0.950 . S
H2402 C2408 0.949 . S
C2403 H2398 0.950 . S
C2403 C2405 1.327 . S
C2403 C2409 1.429 . S
C2404 C2396 1.574 . S
C2404 H2399 0.949 . S
C2404 C2410 1.368 . S
C2405 C2389 1.349 . S
C2405 H2397 0.950 . S
C2405 C2403 1.327 . S
C2406 C2394 1.349 . S
C2406 H2400 0.950 . S
C2406 C2407 1.327 . S
C2407 H2401 0.950 . S
C2407 C2406 1.327 . S
C2407 C2411 1.429 . S
C2408 C2391 1.574 . S
C2408 H2402 0.949 . S
C2408 C2412 1.368 . S
C2409 C2390 1.429 . S
C2409 C2403 1.429 . S
C2409 C2410 1.523 . S
C2410 C2391 1.368 . S
C2410 C2404 1.368 . S
C2410 C2409 1.523 . S
C2411 C2395 1.429 . S
C2411 C2407 1.429 . S
C2411 C2412 1.523 . S
C2412 C2396 1.368 . S
C2412 C2408 1.368 . S
C2412 C2411 1.523 . S
H2413 C2388 0.950 . S
H2414 C2390 0.950 . S
H2415 C2391 0.949 . S
H2416 C2393 0.950 . S
H2417 C2395 0.950 . S
C2418 C2419 1.349 . S
C2418 C2420 1.327 . S
C2418 H2443 0.950 . S
C2419 C2418 1.349 . S
C2419 C2435 1.349 . S
C2420 C2418 1.327 . S
C2420 C2439 1.429 . S
C2420 H2444 0.950 . S
C2421 C2438 1.574 . S
C2421 C2440 1.368 . S
C2421 H2445 0.949 . S
H2422 C2426 0.949 . S
C2423 C2424 1.349 . S
C2423 C2425 1.327 . S
C2423 H2446 0.950 . S
C2424 C2423 1.349 . S
C2424 C2436 1.349 . S
C2425 C2423 1.327 . S
C2425 C2441 1.429 . S
C2425 H2447 0.950 . S
C2426 H2422 0.949 . S
C2426 C2434 1.574 . S
C2426 C2442 1.368 . S
H2427 C2435 0.950 . S
H2428 C2433 0.950 . S
H2429 C2434 0.949 . S
H2430 C2436 0.950 . S
H2431 C2437 0.950 . S
H2432 C2438 0.949 . S
C2433 H2428 0.950 . S
C2433 C2435 1.327 . S
C2433 C2439 1.429 . S
C2434 C2426 1.574 . S
C2434 H2429 0.949 . S
C2434 C2440 1.368 . S
C2435 C2419 1.349 . S
C2435 H2427 0.950 . S
C2435 C2433 1.327 . S
C2436 C2424 1.349 . S
C2436 H2430 0.950 . S
C2436 C2437 1.327 . S
C2437 H2431 0.950 . S
C2437 C2436 1.327 . S
C2437 C2441 1.429 . S
C2438 C2421 1.574 . S
C2438 H2432 0.949 . S
C2438 C2442 1.368 . S
C2439 C2420 1.429 . S
C2439 C2433 1.429 . S
C2439 C2440 1.523 . S
C2440 C2421 1.368 . S
C2440 C2434 1.368 . S
C2440 C2439 1.523 . S
C2441 C2425 1.429 . S
C2441 C2437 1.429 . S
C2441 C2442 1.523 . S
C2442 C2426 1.368 . S
C2442 C2438 1.368 . S
C2442 C2441 1.523 . S
H2443 C2418 0.950 . S
H2444 C2420 0.950 . S
H2445 C2421 0.949 . S
H2446 C2423 0.950 . S
H2447 C2425 0.950 . S
C2448 C2449 1.349 . S
C2448 C2450 1.327 . S
C2448 H2473 0.950 . S
C2449 C2448 1.349 . S
C2449 C2465 1.349 . S
C2450 C2448 1.327 . S
C2450 C2469 1.429 . S
C2450 H2474 0.950 . S
C2451 C2468 1.574 1_455 S
C2451 C2470 1.368 . S
C2451 H2475 0.949 . S
H2452 C2456 0.949 . S
C2453 C2454 1.349 . S
C2453 C2455 1.327 . S
C2453 H2476 0.950 . S
C2454 C2453 1.349 . S
C2454 C2466 1.349 . S
C2455 C2453 1.327 . S
C2455 C2471 1.429 . S
C2455 H2477 0.950 . S
C2456 H2452 0.949 . S
C2456 C2464 1.574 1_655 S
C2456 C2472 1.368 . S
H2457 C2465 0.950 . S
H2458 C2463 0.950 . S
H2459 C2464 0.949 . S
H2460 C2466 0.950 . S
H2461 C2467 0.950 . S
H2462 C2468 0.949 . S
C2463 H2458 0.950 . S
C2463 C2465 1.327 . S
C2463 C2469 1.429 . S
C2464 C2456 1.574 1_455 S
C2464 H2459 0.949 . S
C2464 C2470 1.368 . S
C2465 C2449 1.349 . S
C2465 H2457 0.950 . S
C2465 C2463 1.327 . S
C2466 C2454 1.349 . S
C2466 H2460 0.950 . S
C2466 C2467 1.327 . S
C2467 H2461 0.950 . S
C2467 C2466 1.327 . S
C2467 C2471 1.429 . S
C2468 C2451 1.574 1_655 S
C2468 H2462 0.949 . S
C2468 C2472 1.368 . S
C2469 C2450 1.429 . S
C2469 C2463 1.429 . S
C2469 C2470 1.523 . S
C2470 C2451 1.368 . S
C2470 C2464 1.368 . S
C2470 C2469 1.523 . S
C2471 C2455 1.429 . S
C2471 C2467 1.429 . S
C2471 C2472 1.523 . S
C2472 C2456 1.368 . S
C2472 C2468 1.368 . S
C2472 C2471 1.523 . S
H2473 C2448 0.950 . S
H2474 C2450 0.950 . S
H2475 C2451 0.949 . S
H2476 C2453 0.950 . S
H2477 C2455 0.950 . S
C2478 C2479 1.349 . S
C2478 C2480 1.327 . S
C2478 H2503 0.950 . S
C2479 C2478 1.349 . S
C2479 C2495 1.349 . S
C2480 C2478 1.327 . S
C2480 C2499 1.429 . S
C2480 H2504 0.950 . S
C2481 C2498 1.574 . S
C2481 C2500 1.368 . S
C2481 H2505 0.949 . S
H2482 C2486 0.949 . S
C2483 C2484 1.349 . S
C2483 C2485 1.327 . S
C2483 H2506 0.950 . S
C2484 C2483 1.349 . S
C2484 C2496 1.349 . S
C2485 C2483 1.327 . S
C2485 C2501 1.429 . S
C2485 H2507 0.950 . S
C2486 H2482 0.949 . S
C2486 C2494 1.574 . S
C2486 C2502 1.368 . S
H2487 C2495 0.950 . S
H2488 C2493 0.950 . S
H2489 C2494 0.949 . S
H2490 C2496 0.950 . S
H2491 C2497 0.950 . S
H2492 C2498 0.949 . S
C2493 H2488 0.950 . S
C2493 C2495 1.327 . S
C2493 C2499 1.429 . S
C2494 C2486 1.574 . S
C2494 H2489 0.949 . S
C2494 C2500 1.368 . S
C2495 C2479 1.349 . S
C2495 H2487 0.950 . S
C2495 C2493 1.327 . S
C2496 C2484 1.349 . S
C2496 H2490 0.950 . S
C2496 C2497 1.327 . S
C2497 H2491 0.950 . S
C2497 C2496 1.327 . S
C2497 C2501 1.429 . S
C2498 C2481 1.574 . S
C2498 H2492 0.949 . S
C2498 C2502 1.368 . S
C2499 C2480 1.429 . S
C2499 C2493 1.429 . S
C2499 C2500 1.523 . S
C2500 C2481 1.368 . S
C2500 C2494 1.368 . S
C2500 C2499 1.523 . S
C2501 C2485 1.429 . S
C2501 C2497 1.429 . S
C2501 C2502 1.523 . S
C2502 C2486 1.368 . S
C2502 C2498 1.368 . S
C2502 C2501 1.523 . S
H2503 C2478 0.950 . S
H2504 C2480 0.950 . S
H2505 C2481 0.949 . S
H2506 C2483 0.950 . S
H2507 C2485 0.950 . S
C2508 C2509 1.349 . S
C2508 C2510 1.327 . S
C2508 H2533 0.950 . S
C2509 C2508 1.349 . S
C2509 C2525 1.349 . S
C2510 C2508 1.327 . S
C2510 C2529 1.429 . S
C2510 H2534 0.950 . S
C2511 C2528 1.574 1_565 S
C2511 C2530 1.368 . S
C2511 H2535 0.949 . S
H2512 C2516 0.949 . S
C2513 C2514 1.349 . S
C2513 C2515 1.327 . S
C2513 H2536 0.950 . S
C2514 C2513 1.349 . S
C2514 C2526 1.349 . S
C2515 C2513 1.327 . S
C2515 C2531 1.429 . S
C2515 H2537 0.950 . S
C2516 H2512 0.949 . S
C2516 C2524 1.574 1_545 S
C2516 C2532 1.368 . S
H2517 C2525 0.950 . S
H2518 C2523 0.950 . S
H2519 C2524 0.949 . S
H2520 C2526 0.950 . S
H2521 C2527 0.950 . S
H2522 C2528 0.949 . S
C2523 H2518 0.950 . S
C2523 C2525 1.327 . S
C2523 C2529 1.429 . S
C2524 C2516 1.574 1_565 S
C2524 H2519 0.949 . S
C2524 C2530 1.368 . S
C2525 C2509 1.349 . S
C2525 H2517 0.950 . S
C2525 C2523 1.327 . S
C2526 C2514 1.349 . S
C2526 H2520 0.950 . S
C2526 C2527 1.327 . S
C2527 H2521 0.950 . S
C2527 C2526 1.327 . S
C2527 C2531 1.429 . S
C2528 C2511 1.574 1_545 S
C2528 H2522 0.949 . S
C2528 C2532 1.368 . S
C2529 C2510 1.429 . S
C2529 C2523 1.429 . S
C2529 C2530 1.523 . S
C2530 C2511 1.368 . S
C2530 C2524 1.368 . S
C2530 C2529 1.523 . S
C2531 C2515 1.429 . S
C2531 C2527 1.429 . S
C2531 C2532 1.523 . S
C2532 C2516 1.368 . S
C2532 C2528 1.368 . S
C2532 C2531 1.523 . S
H2533 C2508 0.950 . S
H2534 C2510 0.950 . S
H2535 C2511 0.949 . S
H2536 C2513 0.950 . S
H2537 C2515 0.950 . S
C2538 C2539 1.349 . S
C2538 C2540 1.327 . S
C2538 H2563 0.950 . S
C2539 C2538 1.349 . S
C2539 C2555 1.349 . S
C2540 C2538 1.327 . S
C2540 C2559 1.429 . S
C2540 H2564 0.950 . S
C2541 C2558 1.574 1_545 S
C2541 C2560 1.368 . S
C2541 H2565 0.949 . S
H2542 C2546 0.949 . S
C2543 C2544 1.349 . S
C2543 C2545 1.327 . S
C2543 H2566 0.950 . S
C2544 C2543 1.349 . S
C2544 C2556 1.349 . S
C2545 C2543 1.327 . S
C2545 C2561 1.429 . S
C2545 H2567 0.950 . S
C2546 H2542 0.949 . S
C2546 C2554 1.574 1_565 S
C2546 C2562 1.368 . S
H2547 C2555 0.950 . S
H2548 C2553 0.950 . S
H2549 C2554 0.949 . S
H2550 C2556 0.950 . S
H2551 C2557 0.950 . S
H2552 C2558 0.949 . S
C2553 H2548 0.950 . S
C2553 C2555 1.327 . S
C2553 C2559 1.429 . S
C2554 C2546 1.574 1_545 S
C2554 H2549 0.949 . S
C2554 C2560 1.368 . S
C2555 C2539 1.349 . S
C2555 H2547 0.950 . S
C2555 C2553 1.327 . S
C2556 C2544 1.349 . S
C2556 H2550 0.950 . S
C2556 C2557 1.327 . S
C2557 H2551 0.950 . S
C2557 C2556 1.327 . S
C2557 C2561 1.429 . S
C2558 C2541 1.574 1_565 S
C2558 H2552 0.949 . S
C2558 C2562 1.368 . S
C2559 C2540 1.429 . S
C2559 C2553 1.429 . S
C2559 C2560 1.523 . S
C2560 C2541 1.368 . S
C2560 C2554 1.368 . S
C2560 C2559 1.523 . S
C2561 C2545 1.429 . S
C2561 C2557 1.429 . S
C2561 C2562 1.523 . S
C2562 C2546 1.368 . S
C2562 C2558 1.368 . S
C2562 C2561 1.523 . S
H2563 C2538 0.950 . S
H2564 C2540 0.950 . S
H2565 C2541 0.949 . S
H2566 C2543 0.950 . S
H2567 C2545 0.950 . S
C2568 C2569 1.349 . S
C2568 C2570 1.327 . S
C2568 H2593 0.950 . S
C2569 C2568 1.349 . S
C2569 C2585 1.349 . S
C2570 C2568 1.327 . S
C2570 C2589 1.429 . S
C2570 H2594 0.950 . S
C2571 C2588 1.574 1_455 S
C2571 C2590 1.368 . S
C2571 H2595 0.949 . S
H2572 C2576 0.949 . S
C2573 C2574 1.349 . S
C2573 C2575 1.327 . S
C2573 H2596 0.950 . S
C2574 C2573 1.349 . S
C2574 C2586 1.349 . S
C2575 C2573 1.327 . S
C2575 C2591 1.429 . S
C2575 H2597 0.950 . S
C2576 H2572 0.949 . S
C2576 C2584 1.574 1_655 S
C2576 C2592 1.368 . S
H2577 C2585 0.950 . S
H2578 C2583 0.950 . S
H2579 C2584 0.949 . S
H2580 C2586 0.950 . S
H2581 C2587 0.950 . S
H2582 C2588 0.949 . S
C2583 H2578 0.950 . S
C2583 C2585 1.327 . S
C2583 C2589 1.429 . S
C2584 C2576 1.574 1_455 S
C2584 H2579 0.949 . S
C2584 C2590 1.368 . S
C2585 C2569 1.349 . S
C2585 H2577 0.950 . S
C2585 C2583 1.327 . S
C2586 C2574 1.349 . S
C2586 H2580 0.950 . S
C2586 C2587 1.327 . S
C2587 H2581 0.950 . S
C2587 C2586 1.327 . S
C2587 C2591 1.429 . S
C2588 C2571 1.574 1_655 S
C2588 H2582 0.949 . S
C2588 C2592 1.368 . S
C2589 C2570 1.429 . S
C2589 C2583 1.429 . S
C2589 C2590 1.523 . S
C2590 C2571 1.368 . S
C2590 C2584 1.368 . S
C2590 C2589 1.523 . S
C2591 C2575 1.429 . S
C2591 C2587 1.429 . S
C2591 C2592 1.523 . S
C2592 C2576 1.368 . S
C2592 C2588 1.368 . S
C2592 C2591 1.523 . S
H2593 C2568 0.950 . S
H2594 C2570 0.950 . S
H2595 C2571 0.949 . S
H2596 C2573 0.950 . S
H2597 C2575 0.950 . S
C2598 C2599 1.349 . S
C2598 C2600 1.327 . S
C2598 H2623 0.950 . S
C2599 C2598 1.349 . S
C2599 C2615 1.349 . S
C2600 C2598 1.327 . S
C2600 C2619 1.429 . S
C2600 H2624 0.950 . S
C2601 C2618 1.574 . S
C2601 C2620 1.368 . S
C2601 H2625 0.949 . S
H2602 C2606 0.949 . S
C2603 C2604 1.349 . S
C2603 C2605 1.327 . S
C2603 H2626 0.950 . S
C2604 C2603 1.349 . S
C2604 C2616 1.349 . S
C2605 C2603 1.327 . S
C2605 C2621 1.429 . S
C2605 H2627 0.950 . S
C2606 H2602 0.949 . S
C2606 C2614 1.574 . S
C2606 C2622 1.368 . S
H2607 C2615 0.950 . S
H2608 C2613 0.950 . S
H2609 C2614 0.949 . S
H2610 C2616 0.950 . S
H2611 C2617 0.950 . S
H2612 C2618 0.949 . S
C2613 H2608 0.950 . S
C2613 C2615 1.327 . S
C2613 C2619 1.429 . S
C2614 C2606 1.574 . S
C2614 H2609 0.949 . S
C2614 C2620 1.368 . S
C2615 C2599 1.349 . S
C2615 H2607 0.950 . S
C2615 C2613 1.327 . S
C2616 C2604 1.349 . S
C2616 H2610 0.950 . S
C2616 C2617 1.327 . S
C2617 H2611 0.950 . S
C2617 C2616 1.327 . S
C2617 C2621 1.429 . S
C2618 C2601 1.574 . S
C2618 H2612 0.949 . S
C2618 C2622 1.368 . S
C2619 C2600 1.429 . S
C2619 C2613 1.429 . S
C2619 C2620 1.523 . S
C2620 C2601 1.368 . S
C2620 C2614 1.368 . S
C2620 C2619 1.523 . S
C2621 C2605 1.429 . S
C2621 C2617 1.429 . S
C2621 C2622 1.523 . S
C2622 C2606 1.368 . S
C2622 C2618 1.368 . S
C2622 C2621 1.523 . S
H2623 C2598 0.950 . S
H2624 C2600 0.950 . S
H2625 C2601 0.949 . S
H2626 C2603 0.950 . S
H2627 C2605 0.950 . S
C469 C43 1.084 . S
C474 C10 1.084 . S
C499 C56 1.084 . S
C504 C17 1.084 . S
C529 C69 1.084 . S
C534 C36 1.084 . S
C559 C88 1.084 . S
C564 C121 1.084 . S
C589 C95 1.084 . S
C594 C140 1.084 . S
C619 C153 1.084 . S
C624 C114 1.084 . S
C649 C160 1.083 . S
C654 C205 1.083 . S
C679 C179 1.083 . S
C684 C212 1.083 . S
C709 C186 1.083 . S
C714 C225 1.083 . S
C739 C244 1.083 . S
C744 C277 1.082 . S
C769 C296 1.083 . S
C774 C251 1.082 . S
C799 C270 1.083 . S
C804 C309 1.082 . S
C829 C322 1.083 . S
C834 C361 1.082 . S
C859 C335 1.083 . S
C864 C368 1.082 . S
C889 C381 1.083 . S
C894 C342 1.082 . S
C919 C433 1.083 . S
C924 C400 1.083 . S
C949 C452 1.083 . S
C954 C407 1.083 . S
C979 C465 1.083 . S
C984 C420 1.083 . S
C1009 C147 1.668 . S
C1014 C3 1.688 . S
C1039 C18 1.688 . S
C1044 C127 1.668 . S
C1069 C29 1.688 . S
C1074 C134 1.668 . S
C1099 C101 1.670 . S
C1104 C44 1.689 . S
C1129 C57 1.690 . S
C1134 C108 1.670 . S
C1159 C82 1.670 . S
C1164 C70 1.690 . S
C1189 C81 1.688 . S
C1194 C75 1.668 . S
C1219 C96 1.688 . S
C1224 C49 1.668 . S
C1249 C62 1.668 . S
C1254 C107 1.688 . S
C1279 C23 1.670 . S
C1284 C122 1.689 . S
C1309 C30 1.670 . S
C1314 C133 1.690 . S
C1339 C146 1.690 . S
C1344 C4 1.670 . S
C1369 C161 1.682 . S
C1374 C303 1.659 . S
C1399 C283 1.663 . S
C1404 C172 1.679 . S
C1429 C290 1.663 . S
C1434 C187 1.679 . S
C1459 C198 1.688 . S
C1464 C257 1.668 . S
C1489 C264 1.669 . S
C1494 C213 1.689 . S
C1519 C226 1.689 . S
C1524 C238 1.669 . S
C1549 C237 1.687 . S
C1554 C231 1.667 . S
C1579 C252 1.688 . S
C1584 C199 1.668 . S
C1609 C218 1.668 . S
C1614 C263 1.688 . S
C1639 C173 1.674 . S
C1644 C278 1.696 . S
C1669 C192 1.674 . S
C1674 C289 1.696 . S
C1699 C302 1.694 . S
C1704 C166 1.677 . S
C1729 C459 1.667 . S
C1734 C315 1.687 . S
C1759 C328 1.688 . S
C1764 C439 1.668 . S
C1789 C343 1.688 . S
C1794 C446 1.668 . S
C1819 C354 1.693 . S
C1824 C413 1.677 . S
C1849 C426 1.674 . S
C1854 C369 1.696 . S
C1879 C382 1.694 . S
C1884 C394 1.677 . S
C1909 C387 1.662 . S
C1914 C393 1.679 . S
C1939 C355 1.662 . S
C1944 C408 1.679 . S
C1969 C374 1.663 . S
C1974 C421 1.679 . S
C1999 C329 1.668 . S
C2004 C434 1.688 . S
C2029 C348 1.669 . S
C2034 C445 1.689 . S
C2059 C316 1.669 . S
C2064 C458 1.689 . S
C2089 C380 1.405 . S
C2094 C5 1.406 . S
C2119 C16 1.405 . S
C2124 C356 1.406 . S
C2149 C367 1.405 . S
C2154 C31 1.406 . S
C2179 C42 1.405 . S
C2184 C174 1.405 . S
C2209 C185 1.405 . S
C2214 C55 1.405 . S
C2239 C68 1.405 . S
C2244 C159 1.405 . S
C2269 C83 1.405 . S
C2274 C304 1.406 . S
C2299 C276 1.405 . S
C2304 C94 1.406 . S
C2329 C109 1.405 . S
C2334 C291 1.406 . S
C2359 C120 1.405 . S
C2364 C406 1.405 . S
C2389 C135 1.405 . S
C2394 C419 1.405 . S
C2419 C395 1.405 . S
C2424 C148 1.405 . S
C2449 C330 1.405 . S
C2454 C200 1.405 . S
C2479 C341 1.405 . S
C2484 C211 1.405 . S
C2509 C317 1.405 . S
C2514 C224 1.405 . S
C2539 C239 1.405 . S
C2544 C460 1.405 . S
C2569 C432 1.405 . S
C2574 C250 1.405 . S
C2599 C265 1.405 . S
C2604 C447 1.405 . S
