# Generated by pormake.
# Topology snz, (6)-cn, num edge types: 1
# Building blocks:
#     Node 0, Type 0, BuildingBlock: PAMTUU_clean_sbu_0, # of connection points: 6
#     Node 1, Type 0, BuildingBlock: PAMTUU_clean_sbu_0, # of connection points: 6
#     Node 2, Type 0, BuildingBlock: PAMTUU_clean_sbu_0, # of connection points: 6
#     Node 3, Type 0, BuildingBlock: PAMTUU_clean_sbu_0, # of connection points: 6
#     Node 4, Type 0, BuildingBlock: PAMTUU_clean_sbu_0, # of connection points: 6
#     Node 5, Type 0, BuildingBlock: PAMTUU_clean_sbu_0, # of connection points: 6
#     Node 6, Type 0, BuildingBlock: PAMTUU_clean_sbu_0, # of connection points: 6
#     Node 7, Type 0, BuildingBlock: PAMTUU_clean_sbu_0, # of connection points: 6
#     Node 8, Type 0, BuildingBlock: PAMTUU_clean_sbu_0, # of connection points: 6
#     Edge 9, Type (0, 0), BuildingBlock: UVAHIK_clean_linker_0, # of connection points: 2
#     Edge 10, Type (0, 0), BuildingBlock: UVAHIK_clean_linker_0, # of connection points: 2
#     Edge 11, Type (0, 0), BuildingBlock: UVAHIK_clean_linker_0, # of connection points: 2
#     Edge 12, Type (0, 0), BuildingBlock: UVAHIK_clean_linker_0, # of connection points: 2
#     Edge 13, Type (0, 0), BuildingBlock: UVAHIK_clean_linker_0, # of connection points: 2
#     Edge 14, Type (0, 0), BuildingBlock: UVAHIK_clean_linker_0, # of connection points: 2
#     Edge 15, Type (0, 0), BuildingBlock: UVAHIK_clean_linker_0, # of connection points: 2
#     Edge 16, Type (0, 0), BuildingBlock: UVAHIK_clean_linker_0, # of connection points: 2
#     Edge 17, Type (0, 0), BuildingBlock: UVAHIK_clean_linker_0, # of connection points: 2
#     Edge 18, Type (0, 0), BuildingBlock: UVAHIK_clean_linker_0, # of connection points: 2
#     Edge 19, Type (0, 0), BuildingBlock: UVAHIK_clean_linker_0, # of connection points: 2
#     Edge 20, Type (0, 0), BuildingBlock: UVAHIK_clean_linker_0, # of connection points: 2
#     Edge 21, Type (0, 0), BuildingBlock: UVAHIK_clean_linker_0, # of connection points: 2
#     Edge 22, Type (0, 0), BuildingBlock: UVAHIK_clean_linker_0, # of connection points: 2
#     Edge 23, Type (0, 0), BuildingBlock: UVAHIK_clean_linker_0, # of connection points: 2
#     Edge 24, Type (0, 0), BuildingBlock: UVAHIK_clean_linker_0, # of connection points: 2
#     Edge 25, Type (0, 0), BuildingBlock: UVAHIK_clean_linker_0, # of connection points: 2
#     Edge 26, Type (0, 0), BuildingBlock: UVAHIK_clean_linker_0, # of connection points: 2
#     Edge 27, Type (0, 0), BuildingBlock: UVAHIK_clean_linker_0, # of connection points: 2
#     Edge 28, Type (0, 0), BuildingBlock: UVAHIK_clean_linker_0, # of connection points: 2
#     Edge 29, Type (0, 0), BuildingBlock: UVAHIK_clean_linker_0, # of connection points: 2
#     Edge 30, Type (0, 0), BuildingBlock: UVAHIK_clean_linker_0, # of connection points: 2
#     Edge 31, Type (0, 0), BuildingBlock: UVAHIK_clean_linker_0, # of connection points: 2
#     Edge 32, Type (0, 0), BuildingBlock: UVAHIK_clean_linker_0, # of connection points: 2
#     Edge 33, Type (0, 0), BuildingBlock: UVAHIK_clean_linker_0, # of connection points: 2
#     Edge 34, Type (0, 0), BuildingBlock: UVAHIK_clean_linker_0, # of connection points: 2
#     Edge 35, Type (0, 0), BuildingBlock: UVAHIK_clean_linker_0, # of connection points: 2
# Relax obj value: 0.084
# Max RMSD: 0.245
# Mean RMSD: 0.144
data_MOF--net-snz--node1-PAMTUU_clean_sbu_0--edge1-UVAHIK_clean_linker_0
_symmetry_space_group_name_H-M    P1
_symmetry_Int_Tables_number       1
_symmetry_cell_setting            triclinic
loop_
_symmetry_equiv_pos_as_xyz
'x, y, z'
_cell_length_a     96.039956
_cell_length_b     72.656505
_cell_length_c     18.568251
_cell_angle_alpha  99.860549
_cell_angle_beta   100.64014
_cell_angle_gamma 121.20362
loop_
_atom_site_label
_atom_site_type_symbol
_atom_site_fract_x
_atom_site_fract_y
_atom_site_fract_z
_atom_type_partial_charge
Tb0 Tb 0.04713 0.50933 0.98163 0.0
Tb1 Tb 0.08061 0.50589 0.04279 0.0
C2 C 0.05817 0.50514 0.14028 0.0
C3 C 0.01758 0.52721 0.90944 0.0
C4 C 1.00393 0.55123 0.86242 0.0
C5 C 0.01565 0.55965 0.93705 0.0
C6 C 0.02239 0.54776 0.96038 0.0
C7 C 1.00647 0.51931 0.83396 0.0
C8 C 0.99977 0.53121 0.81058 0.0
C9 C 0.02218 0.51242 0.93609 0.0
O10 O 0.06913 0.54379 0.04728 0.0
O11 O 0.09134 0.54026 0.03901 0.0
O12 O 0.0707 0.49198 0.9185 0.0
O13 O 0.06069 0.51392 0.89866 0.0
O14 O 0.09448 0.50093 0.1291 0.0
O15 O 0.10356 0.50998 0.03404 0.0
O16 O 0.05807 0.47118 0.01196 0.0
O17 O 0.03652 0.47327 0.94209 0.0
O18 O 0.04507 0.49696 0.07886 0.0
O19 O 0.0739 0.51701 0.13817 0.0
C20 C 0.08538 0.55275 0.05307 0.0
O21 O 0.02682 0.50253 0.89019 0.0
O22 O 0.03124 0.51924 0.00854 0.0
C23 C 0.06487 0.50009 0.8731 0.0
C24 C 0.11033 0.48704 0.08847 0.0
C25 C 0.12222 0.45873 0.0925 0.0
C26 C 0.12956 0.47653 0.06106 0.0
C27 C 0.12373 0.4906 0.05946 0.0
C28 C 0.10256 0.46872 0.11739 0.0
C29 C 0.10847 0.45476 0.11949 0.0
C30 C 0.10577 0.50371 0.09459 0.0
C31 C 0.04222 0.46159 0.96619 0.0
H32 H 0.01902 0.5749 0.9787 0.0
H33 H 0.03084 0.55425 0.01917 0.0
H34 H 1.00247 0.50345 0.79367 0.0
H35 H 0.99103 0.52445 0.75229 0.0
H36 H 0.14028 0.48017 0.04051 0.0
H37 H 0.13005 0.50471 0.03756 0.0
H38 H 0.0922 0.46547 0.14023 0.0
H39 H 0.10242 0.44101 0.14319 0.0
Tb40 Tb 0.55263 0.50974 0.02306 0.0
Tb41 Tb 0.58404 0.50253 0.01027 0.0
C42 C 0.56011 0.50086 0.87018 0.0
C43 C 0.51144 0.50243 0.04003 0.0
C44 C 0.47794 0.48081 0.05182 0.0
C45 C 0.48625 0.50247 0.0427 0.0
C46 C 0.50282 0.51315 0.03702 0.0
C47 C 0.50297 0.4804 0.04566 0.0
C48 C 0.48635 0.46967 0.05137 0.0
C49 C 0.52981 0.51555 0.04614 0.0
O50 O 0.54109 0.47387 0.00735 0.0
O51 O 0.56004 0.46864 0.96092 0.0
O52 O 0.57593 0.49226 0.10559 0.0
O53 O 0.5709 0.51926 0.13314 0.0
O54 O 0.59402 0.48927 0.94296 0.0
O55 O 0.60794 0.50847 0.06431 0.0
O56 O 0.59634 0.53881 0.0634 0.0
O57 O 0.57373 0.54203 0.0217 0.0
O58 O 0.54792 0.49527 0.9018 0.0
O59 O 0.57623 0.51122 0.91225 0.0
C60 C 0.54514 0.46065 0.9734 0.0
O61 O 0.53983 0.51371 0.09762 0.0
O62 O 0.53368 0.51559 0.98236 0.0
C63 C 0.57275 0.50404 0.15263 0.0
C64 C 0.62457 0.51007 0.98223 0.0
C65 C 0.65529 0.52854 0.94355 0.0
C66 C 0.65368 0.51968 0.0056 0.0
C67 C 0.6385 0.51053 0.02451 0.0
C68 C 0.62624 0.51953 0.92172 0.0
C69 C 0.64145 0.52867 0.9026 0.0
C70 C 0.60824 0.49844 -0.00028 0.0
C71 C 0.59031 0.55106 0.05065 0.0
H72 H 0.48005 0.51139 0.0413 0.0
H73 H 0.50913 0.53016 0.03284 0.0
H74 H 0.50943 0.47184 0.04848 0.0
H75 H 0.4804 0.45305 0.05871 0.0
H76 H 0.66415 0.51967 0.03944 0.0
H77 H 0.63753 0.5034 0.07153 0.0
H78 H 0.61567 0.51941 0.88817 0.0
H79 H 0.64216 0.5352 0.85418 0.0
Tb80 Tb 0.59655 0.05571 0.10303 0.0
Tb81 Tb 0.55947 0.01083 0.09938 0.0
C82 C 0.58751 0.04864 0.24863 0.0
C83 C 0.63961 0.09257 0.07699 0.0
C84 C 0.66797 0.10131 0.02702 0.0
C85 C 0.66783 0.11922 0.06935 0.0
C86 C 0.65381 0.11488 0.09393 0.0
C87 C 0.63968 0.07454 0.03574 0.0
C88 C 0.65376 0.07886 0.01106 0.0
C89 C 0.62483 0.0887 0.10185 0.0
O90 O 0.60191 0.03163 0.13151 0.0
O91 O 0.5749 0.99791 0.07912 0.0
O92 O 0.55682 0.01425 0.98466 0.0
O93 O 0.5849 0.02916 -0.00612 0.0
O94 O 0.54511 0.99399 0.16675 0.0
O95 O 0.53484 0.98025 0.04253 0.0
O96 O 0.55657 0.03884 0.11811 0.0
O97 O 0.57712 0.06265 0.07008 0.0
O98 O 0.59254 0.06363 0.21217 0.0
O99 O 0.57901 0.02699 0.21151 0.0
C100 C 0.5918 0.00926 0.10764 0.0
O101 O 0.61016 0.07873 0.04717 0.0
O102 O 0.62293 0.08083 0.16 0.0
C103 C 0.56877 0.01878 0.95227 0.0
C104 C 0.51472 0.97325 0.11203 0.0
C105 C 0.48185 0.95919 0.12457 0.0
C106 C 0.48374 0.95353 0.0522 0.0
C107 C 0.49996 0.96041 0.04606 0.0
C108 C 0.51286 0.97922 0.18413 0.0
C109 C 0.49668 0.97235 0.19026 0.0
C110 C 0.53165 0.97854 0.10731 0.0
C111 C 0.56313 0.05583 0.08992 0.0
H112 H 0.67863 0.13667 0.08403 0.0
H113 H 0.65403 0.12902 0.12601 0.0
H114 H 0.62881 0.05717 0.02205 0.0
H115 H 0.65335 0.06466 0.97816 0.0
H116 H 0.47265 0.94363 0.00021 0.0
H117 H 0.50089 0.9553 -0.0102 0.0
H118 H 0.52385 0.98876 0.23651 0.0
H119 H 0.49576 0.97672 0.24712 0.0
Tb120 Tb 0.71208 0.84128 0.27583 0.0
Tb121 Tb 0.74593 0.83822 0.33287 0.0
C122 C 0.72843 0.84678 0.44458 0.0
C123 C 0.68132 0.8587 0.23323 0.0
C124 C 0.66918 0.88667 0.22858 0.0
C125 C 0.65882 0.86493 0.23493 0.0
C126 C 0.66483 0.85107 0.23694 0.0
C127 C 0.69199 0.88077 0.23006 0.0
C128 C 0.68594 0.89458 0.22747 0.0
C129 C 0.68644 0.84268 0.22589 0.0
O130 O 0.73435 0.87644 0.31136 0.0
O131 O 0.75652 0.87423 0.37416 0.0
O132 O 0.74791 0.85189 0.23878 0.0
O133 O 0.71909 0.83182 0.17878 0.0
O134 O 0.76604 0.84355 0.4215 0.0
O135 O 0.76216 0.82961 0.30108 0.0
O136 O 0.72405 0.80391 0.26509 0.0
O137 O 0.70178 0.80681 0.27759 0.0
O138 O 0.72209 0.85462 0.40013 0.0
O139 O 0.7329 0.8334 0.41797 0.0
C140 C 0.75043 0.88593 0.35417 0.0
O141 O 0.69794 0.84649 0.19173 0.0
O142 O 0.68891 0.83625 0.28568 0.0
C143 C 0.73488 0.84415 0.17767 0.0
C144 C 0.7757 0.81954 0.3916 0.0
C145 C 0.7899 0.79557 0.43234 0.0
C146 C 0.78692 0.79717 0.3574 0.0
C147 C 0.77997 0.80906 0.33739 0.0
C148 C 0.77805 0.81724 0.46579 0.0
C149 C 0.78501 0.80526 0.48582 0.0
C150 C 0.771 0.83501 0.3727 0.0
C151 C 0.70787 0.79461 0.26119 0.0
H152 H 0.6458 0.85825 0.23523 0.0
H153 H 0.65636 0.83408 0.239 0.0
H154 H 0.70483 0.88713 0.22756 0.0
H155 H 0.6943 0.91137 0.22366 0.0
H156 H 0.79032 0.78961 0.31453 0.0
H157 H 0.77849 0.81072 0.28006 0.0
H158 H 0.7751 0.82534 0.50926 0.0
H159 H 0.78726 0.80446 0.5442 0.0
Tb160 Tb 0.2128 0.84531 0.31887 0.0
Tb161 Tb 0.24242 0.83658 0.2875 0.0
C162 C 0.2191 0.83984 0.16523 0.0
C163 C 0.17452 0.8408 0.36499 0.0
C164 C 0.14491 0.82228 0.41201 0.0
C165 C 0.15441 0.84521 0.41526 0.0
C166 C 0.16902 0.85432 0.39204 0.0
C167 C 0.16516 0.81789 0.36148 0.0
C168 C 0.15044 0.80868 0.38458 0.0
C169 C 0.18991 0.85115 0.34036 0.0
O170 O 0.19955 0.80864 0.27009 0.0
O171 O 0.22218 0.80461 0.29522 0.0
O172 O 0.24924 0.8503 0.41141 0.0
O173 O 0.22172 0.83631 0.41389 0.0
O174 O 0.25285 0.83205 0.20194 0.0
O175 O 0.26155 0.83024 0.31487 0.0
O176 O 0.254 0.87247 0.30368 0.0
O177 O 0.23718 0.87858 0.36514 0.0
O178 O 0.21853 0.85382 0.21691 0.0
O179 O 0.22142 0.82506 0.18532 0.0
C180 C 0.20559 0.79607 0.27611 0.0
O181 O 0.20465 0.86007 0.39304 0.0
O182 O 0.18881 0.84 0.27402 0.0
C183 C 0.2379 0.8444 0.44799 0.0
C184 C 0.28157 0.84289 0.24387 0.0
C185 C 0.31502 0.86442 0.23072 0.0
C186 C 0.31276 0.86807 0.30349 0.0
C187 C 0.29619 0.85737 0.31006 0.0
C188 C 0.28384 0.83958 0.17138 0.0
C189 C 0.30031 0.85024 0.1648 0.0
C190 C 0.26381 0.83022 0.24758 0.0
C191 C 0.2512 0.88608 0.34523 0.0
H192 H 0.15041 0.85609 0.43472 0.0
H193 H 0.17602 0.872 0.39485 0.0
H194 H 0.16923 0.80717 0.34093 0.0
H195 H 0.14351 0.79102 0.38188 0.0
H196 H 0.3238 0.87877 0.35554 0.0
H197 H 0.29485 0.86023 0.36681 0.0
H198 H 0.2728 0.82851 0.11941 0.0
H199 H 0.30148 0.84735 0.10771 0.0
Tb200 Tb 0.23998 0.34571 0.24565 0.0
Tb201 Tb 0.1989 0.29445 0.22511 0.0
C202 C 0.22632 0.33626 0.38146 0.0
C203 C 0.28214 0.37831 0.20495 0.0
C204 C 0.3146 0.39153 0.18916 0.0
C205 C 0.3133 0.39905 0.26117 0.0
C206 C 0.29727 0.39256 0.26895 0.0
C207 C 0.28342 0.37055 0.13329 0.0
C208 C 0.29941 0.37698 0.12557 0.0
C209 C 0.26527 0.37315 0.21002 0.0
O210 O 0.24616 0.32221 0.26911 0.0
O211 O 0.21942 0.28842 0.25029 0.0
O212 O 0.19641 0.28455 0.10115 0.0
O213 O 0.21902 0.315 0.16976 0.0
O214 O 0.18716 0.2741 0.29214 0.0
O215 O 0.17238 0.2688 0.17856 0.0
O216 O 0.1947 0.32028 0.20203 0.0
O217 O 0.22168 0.35496 0.23269 0.0
O218 O 0.24046 0.34706 0.36265 0.0
O219 O 0.21062 0.32354 0.33015 0.0
C220 C 0.2365 0.3008 0.2673 0.0
O221 O 0.25152 0.3542 0.16072 0.0
O222 O 0.26375 0.37732 0.27884 0.0
C223 C 0.21019 0.30207 0.09984 0.0
C224 C 0.1577 0.26038 0.26995 0.0
C225 C 0.12985 0.25383 0.32078 0.0
C226 C 0.12766 0.23656 0.26203 0.0
C227 C 0.14142 0.23981 0.23705 0.0
C228 C 0.16004 0.27776 0.32857 0.0
C229 C 0.14625 0.27448 0.35399 0.0
C230 C 0.17184 0.26313 0.24138 0.0
C231 C 0.2046 0.34237 0.21106 0.0
H232 H 0.3247 0.41009 0.31157 0.0
H233 H 0.2968 0.39906 0.32481 0.0
H234 H 0.27208 0.3599 0.08241 0.0
H235 H 0.2999 0.37115 0.06898 0.0
H236 H 0.11533 0.22034 0.23591 0.0
H237 H 0.13933 0.22617 0.19184 0.0
H238 H 0.17247 0.29385 0.35447 0.0
H239 H 0.14838 0.28822 0.3988 0.0
Tb240 Tb 0.41539 0.17209 0.68481 0.0
Tb241 Tb 0.38119 0.1751 0.64143 0.0
C242 C 0.41903 0.21781 0.69865 0.0
C243 C 0.45007 0.16331 0.76409 0.0
C244 C 0.46615 0.14526 0.83946 0.0
C245 C 0.47582 0.1679 0.83984 0.0
C246 C 0.46786 0.17678 0.80247 0.0
C247 C 0.44022 0.14087 0.76517 0.0
C248 C 0.44821 0.1319 0.80237 0.0
C249 C 0.44246 0.1728 0.72001 0.0
O250 O 0.4089 0.17592 0.78929 0.0
O251 O 0.38052 0.16373 0.74092 0.0
O252 O 0.37127 0.13913 0.60672 0.0
O253 O 0.39393 0.13794 0.66972 0.0
O254 O 0.36736 0.18815 0.67328 0.0
O255 O 0.35807 0.16449 0.55957 0.0
O256 O 0.39168 0.17903 0.54735 0.0
O257 O 0.40359 0.15898 0.56151 0.0
O258 O 0.42354 0.20476 0.66922 0.0
O259 O 0.4038 0.20907 0.70709 0.0
C260 C 0.39349 0.16769 0.79508 0.0
O261 O 0.42931 0.15877 0.65762 0.0
O262 O 0.44052 0.18746 0.75962 0.0
C263 C 0.37764 0.12796 0.62936 0.0
C264 C 0.34894 0.18928 0.57058 0.0
C265 C 0.33314 0.20979 0.5118 0.0
C266 C 0.32563 0.18646 0.47961 0.0
C267 C 0.33343 0.17636 0.50878 0.0
C268 C 0.3568 0.21273 0.6016 0.0
C269 C 0.34897 0.22288 0.57241 0.0
C270 C 0.3555 0.17731 0.60546 0.0
C271 C 0.39609 0.16584 0.51818 0.0
H272 H 0.48967 0.17858 0.86687 0.0
H273 H 0.4757 0.1941 0.80202 0.0
H274 H 0.42644 0.13017 0.73621 0.0
H275 H 0.44036 0.11449 0.80178 0.0
H276 H 0.31335 0.17578 0.43375 0.0
H277 H 0.32702 0.1582 0.48448 0.0
H278 H 0.36877 0.22313 0.64939 0.0
H279 H 0.35521 0.24095 0.59788 0.0
Tb280 Tb 0.91276 0.17033 0.65937 0.0
Tb281 Tb 0.88124 0.17771 0.66765 0.0
C282 C 0.87353 0.12904 0.61932 0.0
C283 C 0.95192 0.1765 0.61702 0.0
C284 C 0.98139 0.19424 0.56803 0.0
C285 C 0.96667 0.17209 0.52873 0.0
C286 C 0.95219 0.16335 0.55303 0.0
C287 C 0.96651 0.19876 0.65611 0.0
C288 C 0.98109 0.20752 0.6319 0.0
C289 C 0.93666 0.16601 0.64355 0.0
O290 O 0.90761 0.18283 0.56792 0.0
O291 O 0.87902 0.16671 0.54755 0.0
O292 O 0.90348 0.20979 0.67116 0.0
O293 O 0.92445 0.20532 0.72745 0.0
O294 O 0.85628 0.16937 0.62049 0.0
O295 O 0.87362 0.19644 0.72773 0.0
O296 O 0.89378 0.17959 0.78106 0.0
O297 O 0.90453 0.15839 0.7522 0.0
O298 O 0.88824 0.13705 0.60499 0.0
O299 O 0.8699 0.14225 0.65667 0.0
C300 C 0.892 0.17297 0.5212 0.0
O301 O 0.93729 0.17735 0.70822 0.0
O302 O 0.92167 0.15548 0.5907 0.0
C303 C 0.91948 0.21839 0.71152 0.0
C304 C 0.84379 0.17593 0.71308 0.0
C305 C 0.81564 0.16189 0.77039 0.0
C306 C 0.82821 0.18508 0.78502 0.0
C307 C 0.84205 0.19197 0.75653 0.0
C308 C 0.83156 0.15275 0.69996 0.0
C309 C 0.81764 0.14582 0.72829 0.0
C310 C 0.85797 0.18389 0.67941 0.0
C311 C 0.8987 0.16654 0.79756 0.0
H312 H 0.96648 0.16121 0.48019 0.0
H313 H 0.94122 0.14607 0.52231 0.0
H314 H 0.96676 0.20935 0.70576 0.0
H315 H 0.99211 0.22471 0.66312 0.0
H316 H 0.82736 0.198 0.81849 0.0
H317 H 0.85133 0.20993 0.76769 0.0
H318 H 0.83258 0.13996 0.66674 0.0
H319 H 0.80819 0.12783 0.71533 0.0
Tb320 Tb 0.87923 0.65231 0.65176 0.0
Tb321 Tb 0.91735 0.7 0.67734 0.0
C322 C 0.91392 0.656 0.69835 0.0
C323 C 0.83575 0.61131 0.66223 0.0
C324 C 0.80723 0.60009 0.71387 0.0
C325 C 0.80794 0.58303 0.66933 0.0
C326 C 0.82205 0.5886 0.64384 0.0
C327 C 0.83519 0.62847 0.7067 0.0
C328 C 0.82104 0.62292 0.73218 0.0
C329 C 0.85039 0.61675 0.63414 0.0
O330 O 0.89027 0.67158 0.77331 0.0
O331 O 0.91076 0.70815 0.77772 0.0
O332 O 0.89717 0.70447 0.62868 0.0
O333 O 0.87484 0.67889 0.66452 0.0
O334 O 0.94322 0.72589 0.74119 0.0
O335 O 0.9318 0.72398 0.62619 0.0
O336 O 0.91023 0.67398 0.57416 0.0
O337 O 0.88126 0.65609 0.54026 0.0
O338 O 0.89771 0.64338 0.65388 0.0
O339 O 0.92251 0.6782 0.72619 0.0
C340 C 0.90069 0.69362 0.80825 0.0
O341 O 0.85302 0.62886 0.58753 0.0
O342 O 0.86475 0.62375 0.68584 0.0
C343 C 0.88219 0.69651 0.64008 0.0
C344 C 0.96142 0.73896 0.66501 0.0
C345 C 0.99127 0.74916 0.6266 0.0
C346 C 0.98869 0.76629 0.65119 0.0
C347 C 0.97395 0.76122 0.67019 0.0
C348 C 0.96377 0.7217 0.64016 0.0
C349 C 0.97857 0.72675 0.62109 0.0
C350 C 0.94592 0.73421 0.68441 0.0
C351 C 0.89523 0.66331 0.52106 0.0
H352 H 0.79746 0.56532 0.65309 0.0
H353 H 0.82223 0.57514 0.60935 0.0
H354 H 0.84569 0.64614 0.72166 0.0
H355 H 0.82102 0.63648 0.76699 0.0
H356 H 0.99797 0.78363 0.65474 0.0
H357 H 0.97229 0.77474 0.68861 0.0
H358 H 0.95418 0.70436 0.63557 0.0
H359 H 0.98017 0.71317 0.60299 0.0
C360 C 0.04288 0.48095 0.74483 0.0
C361 C 0.05975 0.49022 0.79011 0.0
C362 C 0.03784 0.47214 0.66506 0.0
C363 C 0.05315 0.461 0.50269 0.0
H364 H 0.0308 0.48733 0.41328 0.0
C365 C 0.03814 0.48503 0.20999 0.0
C366 C 0.055 0.49751 0.20722 0.0
C367 C 0.03483 0.47622 0.27033 0.0
C368 C 0.03665 0.47934 0.43659 0.0
H369 H 0.08433 0.49633 0.79065 0.0
H370 H 0.07607 0.48265 0.65002 0.0
H371 H 0.03152 0.48482 0.54163 0.0
H372 H 0.08159 0.51026 0.26431 0.0
H373 H 0.07581 0.49526 0.3709 0.0
H374 H 0.05948 0.45745 0.39872 0.0
C375 C 0.06646 0.48134 0.6756 0.0
C376 C 0.03702 0.47778 0.51025 0.0
C377 C 0.07133 0.48953 0.75581 0.0
C378 C 0.06849 0.50091 0.26543 0.0
C379 C 0.06515 0.49198 0.32557 0.0
C380 C 0.05295 0.46283 0.42907 0.0
C381 C 0.04981 0.47322 0.62934 0.0
C382 C 0.04592 0.46951 0.54541 0.0
C383 C 0.04832 0.47967 0.32854 0.0
C384 C 0.0453 0.47288 0.3971 0.0
H385 H 0.03363 0.48069 0.77115 0.0
H386 H 0.0248 0.46541 0.6312 0.0
H387 H 0.05976 0.45408 0.52768 0.0
H388 H 0.02746 0.482 0.16547 0.0
H389 H 0.02176 0.46685 0.27189 0.0
C390 C 0.53858 0.48209 0.73703 0.0
C391 C 0.55566 0.49364 0.78564 0.0
C392 C 0.53454 0.47431 0.65691 0.0
C393 C 0.5354 0.47862 0.49578 0.0
H394 H 0.56161 0.45888 0.41477 0.0
C395 C 0.56485 0.51014 0.27006 0.0
C396 C 0.56703 0.49656 0.21641 0.0
C397 C 0.55789 0.50228 0.32638 0.0
C398 C 0.55378 0.46377 0.43526 0.0
H399 H 0.58184 0.50594 0.78866 0.0
H400 H 0.57486 0.4928 0.65025 0.0
H401 H 0.55869 0.45683 0.54082 0.0
H402 H 0.56336 0.46393 0.17827 0.0
H403 H 0.55119 0.45018 0.2772 0.0
H404 H 0.53104 0.48636 0.39138 0.0
C405 C 0.56451 0.48931 0.67357 0.0
C406 C 0.55222 0.46275 0.50772 0.0
C407 C 0.56855 0.49717 0.75299 0.0
C408 C 0.5621 0.47493 0.21988 0.0
C409 C 0.555 0.46697 0.276 0.0
C410 C 0.53682 0.47945 0.42288 0.0
C411 C 0.5475 0.47777 0.62475 0.0
C412 C 0.54404 0.47161 0.54058 0.0
C413 C 0.55283 0.48059 0.3298 0.0
C414 C 0.547 0.47345 0.39438 0.0
H415 H 0.52836 0.47902 0.76074 0.0
H416 H 0.52134 0.46562 0.62019 0.0
H417 H 0.52891 0.4854 0.51965 0.0
H418 H 0.5685 0.52686 0.26853 0.0
H419 H 0.55686 0.51347 0.36837 0.0
C420 C 0.57466 0.01162 0.83039 0.0
C421 C 0.56493 0.01577 0.86951 0.0
C422 C 0.57397 0.01363 0.75694 0.0
C423 C 0.56974 0.04765 0.64818 0.0
H424 H 0.57133 0.00839 0.48481 0.0
C425 C 0.57991 0.06196 0.35636 0.0
C426 C 0.5898 0.055 0.33073 0.0
C427 C 0.57648 0.05931 0.42523 0.0
C428 C 0.57103 0.01959 0.53027 0.0
H429 H 0.54621 0.02416 0.86232 0.0
H430 H 0.5452 0.02809 0.7331 0.0
H431 H 0.56258 0.99541 0.59119 0.0
H432 H 0.60525 0.04208 0.35831 0.0
H433 H 0.59995 0.0384 0.48019 0.0
H434 H 0.57872 0.07212 0.58788 0.0
C435 C 0.55322 0.0231 0.75929 0.0
C436 C 0.56586 0.01206 0.59051 0.0
C437 C 0.55368 0.02065 0.83254 0.0
C438 C 0.59772 0.04772 0.37789 0.0
C439 C 0.59447 0.0453 0.44675 0.0
C440 C 0.57495 0.05524 0.58761 0.0
C441 C 0.56372 0.02019 0.72199 0.0
C442 C 0.56567 0.02627 0.6511 0.0
C443 C 0.58296 0.04971 0.46842 0.0
C444 C 0.57619 0.04152 0.52967 0.0
H445 H 0.58345 0.00789 0.85815 0.0
H446 H 0.58231 0.0115 0.72965 0.0
H447 H 0.56983 0.05899 0.69481 0.0
H448 H 0.57343 0.06718 0.31957 0.0
H449 H 0.56761 0.06288 0.44097 0.0
C450 C 0.72221 0.85785 0.56197 0.0
C451 C 0.73355 0.8564 0.52774 0.0
C452 C 0.72719 0.86642 0.64207 0.0
C453 C 0.75654 0.87056 0.80972 0.0
H454 H 0.7345 0.89252 0.91794 0.0
C455 C 0.75519 0.86503 0.11032 0.0
C456 C 0.73824 0.85234 0.11192 0.0
C457 C 0.75868 0.87398 0.05044 0.0
C458 C 0.74094 0.88672 0.88854 0.0
H459 H 0.75941 0.86488 0.54681 0.0
H460 H 0.76847 0.88086 0.68651 0.0
H461 H 0.73426 0.89478 0.78788 0.0
H462 H 0.71171 0.83959 0.0538 0.0
H463 H 0.71779 0.85481 0.94774 0.0
H464 H 0.76268 0.86177 0.90884 0.0
C465 C 0.75548 0.87439 0.6527 0.0
C466 C 0.74074 0.88789 0.81426 0.0
C467 C 0.75031 0.86516 0.57305 0.0
C468 C 0.72486 0.84907 0.05343 0.0
C469 C 0.72837 0.85812 -0.00634 0.0
C470 C 0.75695 0.86972 0.88406 0.0
C471 C 0.74375 0.87423 0.68838 0.0
C472 C 0.74776 0.87872 0.7727 0.0
C473 C 0.74528 0.87044 -0.00855 0.0
C474 C 0.74843 0.87675 0.92237 0.0
H475 H 0.70931 0.85147 0.52714 0.0
H476 H 0.71774 0.86576 0.66757 0.0
H477 H 0.76189 0.86305 0.77939 0.0
H478 H 0.7658 0.86802 0.15514 0.0
H479 H 0.77179 0.88336 0.04948 0.0
C480 C 0.257 0.86867 0.58249 0.0
C481 C 0.24329 0.84741 0.53022 0.0
C482 C 0.25999 0.87257 0.66191 0.0
C483 C 0.25248 0.84589 0.81126 0.0
H484 H 0.2368 0.88245 0.88967 0.0
C485 C 0.23134 0.86656 0.09077 0.0
C486 C 0.22215 0.84427 0.09374 0.0
C487 C 0.23762 0.87107 0.02921 0.0
C488 C 0.24162 0.87265 0.86966 0.0
H489 H 0.22266 0.81324 0.51777 0.0
H490 H 0.22836 0.8197 0.65664 0.0
H491 H 0.24402 0.88378 0.77018 0.0
H492 H 0.2112 0.80911 0.03336 0.0
H493 H 0.22146 0.81676 0.92468 0.0
H494 H 0.24958 0.83411 0.9087 0.0
C495 C 0.23663 0.83338 0.63661 0.0
C496 C 0.2458 0.87349 0.80163 0.0
C497 C 0.23334 0.8297 0.55759 0.0
C498 C 0.21835 0.82645 0.03236 0.0
C499 C 0.22445 0.83089 0.97087 0.0
C500 C 0.24853 0.84526 0.8796 0.0
C501 C 0.24962 0.85499 0.68908 0.0
C502 C 0.25048 0.85932 0.7704 0.0
C503 C 0.23468 0.8533 0.97001 0.0
C504 C 0.24218 0.8577 0.90714 0.0
H505 H 0.26465 0.88258 0.56185 0.0
H506 H 0.26995 0.88938 0.70183 0.0
H507 H 0.25609 0.83487 0.78785 0.0
H508 H 0.23459 0.88061 0.13812 0.0
H509 H 0.24538 0.88848 0.02968 0.0
C510 C 0.21331 0.3348 0.48644 0.0
C511 C 0.22776 0.34001 0.46379 0.0
C512 C 0.21368 0.33478 0.56175 0.0
C513 C 0.22007 0.34439 0.73408 0.0
H514 H 0.23617 0.30982 0.80886 0.0
C515 C 0.21962 0.3302 0.02955 0.0
C516 C 0.21353 0.30811 0.03074 0.0
C517 C 0.22299 0.33626 0.9644 0.0
C518 C 0.23162 0.31948 0.78859 0.0
H519 H 0.25419 0.35022 0.50297 0.0
H520 H 0.25482 0.35019 0.63531 0.0
H521 H 0.23983 0.31833 0.68929 0.0
H522 H 0.20541 0.27466 0.96493 0.0
H523 H 0.21117 0.28514 0.84972 0.0
H524 H 0.21136 0.34492 0.83189 0.0
C525 C 0.24321 0.34605 0.59437 0.0
C526 C 0.23391 0.32461 0.72082 0.0
C527 C 0.24289 0.34626 0.51896 0.0
C528 C 0.21035 0.29189 0.96523 0.0
C529 C 0.21377 0.29795 0.8999 0.0
C530 C 0.21786 0.33936 0.80199 0.0
C531 C 0.22847 0.33983 0.61589 0.0
C532 C 0.22791 0.3368 0.69229 0.0
C533 C 0.22015 0.32022 0.89899 0.0
C534 C 0.22337 0.32657 0.82926 0.0
H535 H 0.20148 0.33001 0.44534 0.0
H536 H 0.20208 0.32973 0.57647 0.0
H537 H 0.2154 0.35391 0.71353 0.0
H538 H 0.22158 0.34274 0.07873 0.0
H539 H 0.22788 0.35353 0.96535 0.0
C540 C 0.39396 0.1401 0.40345 0.0
C541 C 0.39089 0.15623 0.43417 0.0
C542 C 0.38879 0.13042 0.32408 0.0
C543 C 0.3636 0.12447 0.13564 0.0
H544 H 0.40498 0.14067 0.08422 0.0
C545 C 0.37834 0.16019 0.8918 0.0
C546 C 0.38974 0.15865 0.85825 0.0
C547 C 0.37413 0.15041 0.94939 0.0
C548 C 0.39305 0.13521 0.09621 0.0
H549 H 0.37921 0.17401 0.40625 0.0
H550 H 0.37074 0.15767 0.26677 0.0
H551 H 0.4046 0.13958 0.2127 0.0
H552 H 0.40454 0.14421 0.85202 0.0
H553 H 0.39674 0.12639 0.95086 0.0
H554 H 0.35232 0.12106 0.01944 0.0
C555 C 0.37684 0.15222 0.30449 0.0
C556 C 0.39287 0.13465 0.17028 0.0
C557 C 0.38198 0.16189 0.38412 0.0
C558 C 0.3962 0.14627 0.87963 0.0
C559 C 0.39161 0.13592 0.93554 0.0
C560 C 0.36368 0.12469 0.06084 0.0
C561 C 0.38053 0.13677 0.27407 0.0
C562 C 0.37853 0.13058 0.19164 0.0
C563 C 0.3809 0.1384 0.97252 0.0
C564 C 0.37879 0.13146 0.04202 0.0
H565 H 0.40051 0.13502 0.44053 0.0
H566 H 0.39175 0.11854 0.30167 0.0
H567 H 0.35231 0.12094 0.15099 0.0
H568 H 0.37302 0.16938 0.8747 0.0
H569 H 0.36612 0.15305 0.97766 0.0
C570 C 0.90261 0.17361 0.4092 0.0
C571 C 0.88878 0.16483 0.43814 0.0
C572 C 0.90018 0.16394 0.3328 0.0
C573 C 0.86759 0.1326 0.14462 0.0
H574 H 0.906 0.13618 0.09197 0.0
C575 C 0.89749 0.14165 0.87767 0.0
C576 C 0.8956 0.15886 0.86467 0.0
C577 C 0.89282 0.13297 0.93723 0.0
C578 C 0.89489 0.13433 0.10505 0.0
H579 H 0.86153 0.13906 0.41029 0.0
H580 H 0.85724 0.12218 0.27572 0.0
H581 H 0.9049 0.13751 0.22259 0.0
H582 H 0.88757 0.18068 0.90432 0.0
H583 H 0.87984 0.16598 0.00823 0.0
H584 H 0.85799 0.13043 0.02799 0.0
C585 C 0.86995 0.13657 0.31238 0.0
C586 C 0.89436 0.13538 0.17998 0.0
C587 C 0.87237 0.14638 0.389 0.0
C588 C 0.88916 0.16739 0.91254 0.0
C589 C 0.88445 0.15869 0.97139 0.0
C590 C 0.86802 0.13129 0.06955 0.0
C591 C 0.88388 0.14515 0.28386 0.0
C592 C 0.8814 0.13629 0.20163 0.0
C593 C 0.88608 0.14129 0.98391 0.0
C594 C 0.88235 0.13394 0.05107 0.0
H595 H 0.9154 0.18784 0.44585 0.0
H596 H 0.91105 0.17144 0.3118 0.0
H597 H 0.85733 0.13301 0.15937 0.0
H598 H 0.9023 0.13463 0.84122 0.0
H599 H 0.89437 0.11974 0.94657 0.0
C600 C 0.91009 0.67609 0.42525 0.0
C601 C 0.89471 0.66481 0.44279 0.0
C602 C 0.9102 0.68194 0.35768 0.0
C603 C 0.88272 0.6694 0.16638 0.0
H604 H 0.91934 0.7305 0.18412 0.0
C605 C 0.88507 0.6944 0.89813 0.0
C606 C 0.90082 0.70175 0.88576 0.0
C607 C 0.88406 0.6958 0.97237 0.0
C608 C 0.90902 0.71346 0.17855 0.0
H609 H 0.86721 0.64943 0.40099 0.0
H610 H 0.86743 0.65956 0.28277 0.0
H611 H 0.91795 0.71843 0.29924 0.0
H612 H 0.92812 0.71831 0.93961 0.0
H613 H 0.92638 0.72008 0.06999 0.0
H614 H 0.87405 0.66401 0.04589 0.0
C615 C 0.87939 0.66398 0.32151 0.0
C616 C 0.90829 0.7065 0.24406 0.0
C617 C 0.87927 0.65813 0.3891 0.0
C618 C 0.91589 0.71268 0.94867 0.0
C619 C 0.91485 0.7137 0.02308 0.0
C620 C 0.88346 0.67632 0.10109 0.0
C621 C 0.89494 0.67652 0.30644 0.0
C622 C 0.89529 0.68428 0.23813 0.0
C623 C 0.89874 0.70397 0.03463 0.0
C624 C 0.89675 0.6983 0.10627 0.0
H625 H 0.92221 0.68136 0.46528 0.0
H626 H 0.92229 0.69111 0.34629 0.0
H627 H 0.87268 0.65213 0.16014 0.0
H628 H 0.87334 0.68607 0.84976 0.0
H629 H 0.87157 0.68872 0.98007 0.0
C630 C 0.1778 0.34128 0.16395 0.0
C631 C 0.19583 0.35389 0.19647 0.0
C632 C 0.16956 0.35215 0.15044 0.0
C633 C 0.17527 0.40712 0.21402 0.0
H634 H 0.13852 0.38328 0.02224 0.0
C635 C 0.13252 0.44066 0.17086 0.0
C636 C 0.12952 0.4452 0.10111 0.0
C637 C 0.14022 0.42899 0.18095 0.0
C638 C 0.14881 0.39018 0.07593 0.0
H639 H 0.21927 0.38797 0.23997 0.0
H640 H 0.20485 0.40683 0.21659 0.0
H641 H 0.153 0.36418 0.04241 0.0
H642 H 0.13187 0.44057 0.98657 0.0
H643 H 0.14531 0.42009 0.00417 0.0
H644 H 0.17117 0.43316 0.24748 0.0
C645 C 0.19711 0.38852 0.20196 0.0
C646 C 0.15699 0.37914 0.08775 0.0
C647 C 0.20538 0.37766 0.21496 0.0
C648 C 0.13412 0.43744 0.04113 0.0
C649 C 0.14168 0.42558 0.051 0.0
C650 C 0.167 0.41803 0.20248 0.0
C651 C 0.17911 0.3759 0.16964 0.0
C652 C 0.17035 0.38753 0.15688 0.0
C653 C 0.14498 0.42143 0.12134 0.0
C654 C 0.15369 0.4097 0.13331 0.0
H655 H 0.17 0.32296 0.14877 0.0
H656 H 0.15566 0.34198 0.12612 0.0
H657 H 0.18541 0.41389 0.26816 0.0
H658 H 0.1293 0.44661 0.21847 0.0
H659 H 0.14243 0.42586 0.23553 0.0
C660 C 0.62046 0.58604 0.0914 0.0
C661 C 0.60263 0.57599 0.07059 0.0
C662 C 0.63204 0.60955 0.11043 0.0
C663 C 0.63438 0.66115 0.09109 0.0
H664 H 0.67763 0.69274 0.25772 0.0
C665 C 0.67825 0.75887 0.22261 0.0
C666 C 0.69605 0.7695 0.23791 0.0
C667 C 0.66708 0.73525 0.20086 0.0
C668 C 0.66568 0.68413 0.21052 0.0
H669 H 0.58305 0.58295 0.05415 0.0
H670 H 0.6032 0.62385 0.08877 0.0
H671 H 0.65772 0.65166 0.22274 0.0
H672 H 0.71605 0.76347 0.24258 0.0
H673 H 0.69653 0.72222 0.20484 0.0
H674 H 0.64227 0.69372 0.07984 0.0
C675 C 0.60826 0.61356 0.08885 0.0
C676 C 0.65427 0.66056 0.1903 0.0
C677 C 0.59668 0.59005 0.06938 0.0
C678 C 0.70242 0.75589 0.23113 0.0
C679 C 0.69124 0.73224 0.20995 0.0
C680 C 0.64575 0.68472 0.11166 0.0
C681 C 0.62611 0.62364 0.10956 0.0
C682 C 0.63843 0.64874 0.13042 0.0
C683 C 0.67344 0.72164 0.1944 0.0
C684 C 0.66151 0.69651 0.17174 0.0
H685 H 0.62551 0.57574 0.0925 0.0
H686 H 0.64566 0.61663 0.12491 0.0
H687 H 0.62248 0.65263 0.04371 0.0
H688 H 0.67287 0.76879 0.22723 0.0
H689 H 0.65346 0.72763 0.19013 0.0
C690 C 0.45025 0.9285 0.0892 0.0
C691 C 0.46449 0.95069 0.13244 0.0
C692 C 0.43419 0.92009 0.09951 0.0
C693 C 0.41386 0.92914 0.2408 0.0
H694 H 0.37194 0.89041 0.06526 0.0
C695 C 0.3461 0.89744 0.26689 0.0
C696 C 0.33255 0.87493 0.22282 0.0
C697 C 0.36231 0.90735 0.25682 0.0
C698 C 0.38351 0.90101 0.11509 0.0
H699 H 0.47271 0.9816 0.21894 0.0
H700 H 0.44475 0.96692 0.23693 0.0
H701 H 0.39974 0.90651 0.04469 0.0
H702 H 0.32577 0.84498 0.13582 0.0
H703 H 0.35385 0.86217 0.11836 0.0
H704 H 0.39758 0.92351 0.31121 0.0
C705 C 0.44608 0.95589 0.19588 0.0
C706 C 0.39948 0.91026 0.10324 0.0
C707 C 0.46214 0.96432 0.18548 0.0
C708 C 0.33574 0.8625 0.16956 0.0
C709 C 0.35189 0.87239 0.15948 0.0
C710 C 0.39787 0.91987 0.25266 0.0
C711 C 0.4319 0.9336 0.15341 0.0
C712 C 0.41488 0.92433 0.16595 0.0
C713 C 0.36537 0.895 0.20244 0.0
C714 C 0.38247 0.90553 0.19 0.0
H715 H 0.4516 0.91735 0.04881 0.0
H716 H 0.42365 0.90274 0.06655 0.0
H717 H 0.42543 0.93965 0.2906 0.0
H718 H 0.34408 0.90759 0.30791 0.0
H719 H 0.37233 0.92486 0.29047 0.0
C720 C 0.53876 0.05965 0.09529 0.0
C721 C 0.55385 0.06672 0.07578 0.0
C722 C 0.52928 0.06867 0.07674 0.0
C723 C 0.53195 0.11676 0.02036 0.0
H724 H 0.48223 0.07526 0.93733 0.0
C725 C 0.48868 0.14838 0.94479 0.0
C726 C 0.47495 0.13551 0.87469 0.0
C727 C 0.49786 0.13994 0.97474 0.0
C728 C 0.4961 0.08707 0.9601 0.0
H729 H 0.57092 0.08924 0.02263 0.0
H730 H 0.55433 0.1048 -0.01012 0.0
H731 H 0.49949 0.06119 0.979 0.0
H732 H 0.45999 0.10348 0.78177 0.0
H733 H 0.47598 0.08878 0.83385 0.0
H734 H 0.52861 0.1425 -0.00073 0.0
C735 C 0.54992 0.09245 0.02031 0.0
C736 C 0.506 0.07905 0.98488 0.0
C737 C 0.55941 0.08343 0.03886 0.0
C738 C 0.47033 0.11373 0.83639 0.0
C739 C 0.47953 0.1053 0.8663 0.0
C740 C 0.52206 0.12478 -0.00437 0.0
C741 C 0.53463 0.085 0.03823 0.0
C742 C 0.52407 0.09376 0.01483 0.0
C743 C 0.49356 0.11842 0.93535 0.0
C744 C 0.50401 0.11001 0.96467 0.0
H745 H 0.53409 0.04687 0.12398 0.0
H746 H 0.51771 0.0628 0.09251 0.0
H747 H 0.54581 0.12862 0.04387 0.0
H748 H 0.4924 0.16507 0.97644 0.0
H749 H 0.50836 0.15033 0.0288 0.0
C750 C 0.92764 0.25782 0.72062 0.0
C751 C 0.93234 0.24332 0.73824 0.0
C752 C 0.93983 0.28131 0.74529 0.0
C753 C 0.98213 0.32729 0.88888 0.0
H754 H 0.98228 0.36113 0.74835 0.0
C755 C 0.03543 0.42286 0.96134 0.0
C756 C 0.03011 0.4365 0.94038 0.0
C757 C 0.02387 0.3992 0.93658 0.0
C758 C 0.98231 0.35199 0.78867 0.0
H759 H 0.95364 0.24227 0.79591 0.0
H760 H 0.97486 0.28318 0.83853 0.0
H761 H 0.96133 0.32017 0.70588 0.0
H762 H 1.00833 0.4358 0.87717 0.0
H763 H 0.98826 0.39483 0.83527 0.0
H764 H 1.00304 0.35916 0.9719 0.0
C765 C 0.9617 0.27639 0.80625 0.0
C766 C 0.97029 0.32849 0.76426 0.0
C767 C 0.94952 0.2529 0.78141 0.0
C768 C 0.01295 0.4259 0.89425 0.0
C769 C 1.00143 0.40232 0.86969 0.0
C770 C 0.99414 0.35083 0.9134 0.0
C771 C 0.95701 0.29087 0.78833 0.0
C772 C 0.96999 0.31586 0.81416 0.0
C773 C 1.00672 0.38864 0.89031 0.0
C774 C 0.99432 0.3635 0.86372 0.0
H775 H 0.91453 0.25106 0.68771 0.0
H776 H 0.93575 0.29201 0.73135 0.0
H777 H 0.98212 0.3181 0.92906 0.0
H778 H 0.04855 0.43041 -0.00336 0.0
H779 H 0.02843 0.38917 0.95287 0.0
C780 C 0.78497 0.60672 0.73919 0.0
C781 C 0.79207 0.59396 0.74054 0.0
C782 C 0.77035 0.60036 0.76155 0.0
C783 C 0.73321 0.55064 0.78582 0.0
H784 H 0.72887 0.59551 0.9058 0.0
C785 C 0.67904 0.5251 0.92136 0.0
C786 C 0.67108 0.53679 0.9203 0.0
C787 C 0.69374 0.53255 0.89915 0.0
C788 C 0.72977 0.58277 0.87149 0.0
H789 H 0.78964 0.56497 0.76947 0.0
H790 H 0.76427 0.55396 0.80842 0.0
H791 H 0.75467 0.60775 0.86864 0.0
H792 H 0.67257 0.56573 0.8953 0.0
H793 H 0.6981 0.57853 0.85526 0.0
H794 H 0.70837 0.52566 0.78853 0.0
C795 C 0.76976 0.5686 0.78848 0.0
C796 C 0.74459 0.58979 0.85019 0.0
C797 C 0.78434 0.57494 0.76614 0.0
C798 C 0.67826 0.55619 0.8963 0.0
C799 C 0.69302 0.56368 0.87412 0.0
C800 C 0.71842 0.54363 0.80704 0.0
C801 C 0.76245 0.5811 0.78587 0.0
C802 C 0.74656 0.5738 0.8075 0.0
C803 C 0.70093 0.5519 0.87501 0.0
C804 C 0.71653 0.55957 0.85063 0.0
H805 H 0.79045 0.62131 0.71899 0.0
H806 H 0.76499 0.61025 0.75799 0.0
H807 H 0.73408 0.53785 0.75157 0.0
H808 H 0.67378 0.50993 0.93843 0.0
H809 H 0.69956 0.52319 0.90157 0.0
C810 C 0.9145 0.62146 0.68833 0.0
C811 C 0.92315 0.64518 0.7148 0.0
C812 C 0.92339 0.61143 0.70286 0.0
C813 C 0.96326 0.62274 0.83136 0.0
H814 H 0.95347 0.57176 0.6712 0.0
C815 C 1.00426 0.58621 0.86394 0.0
C816 C 0.99524 0.56243 0.84043 0.0
C817 C 0.99577 0.59656 0.84644 0.0
C818 C 0.95625 0.58586 0.71676 0.0
H819 H 0.948 0.67693 0.77711 0.0
H820 H 0.96343 0.65948 0.80161 0.0
H821 H 0.93786 0.58908 0.64583 0.0
H822 H 0.97013 0.53093 0.78043 0.0
H823 H 0.9554 0.54894 0.74965 0.0
H824 H 0.98163 0.61951 0.9023 0.0
C825 C 0.94973 0.64858 0.77065 0.0
C826 C 0.94728 0.59576 0.70227 0.0
C827 C 0.94087 0.6586 0.75624 0.0
C828 C 0.97757 0.54928 0.79816 0.0
C829 C 0.9691 0.55962 0.78059 0.0
C830 C 0.97224 0.61286 0.8458 0.0
C831 C 0.94112 0.62488 0.74413 0.0
C832 C 0.95064 0.6143 0.75945 0.0
C833 C 0.97806 0.58337 0.80498 0.0
C834 C 0.96882 0.59427 0.78875 0.0
H835 H 0.90086 0.6106 0.6564 0.0
H836 H 0.91631 0.59311 0.68245 0.0
H837 H 0.966 0.63676 0.87712 0.0
H838 H 0.01792 0.59685 0.89573 0.0
H839 H 1.0031 0.61492 0.86511 0.0
C840 C 0.51595 0.42646 0.95659 0.0
C841 C 0.53221 0.43568 0.94691 0.0
C842 C 0.50358 0.40299 0.92959 0.0
C843 C 0.49178 0.35004 0.79076 0.0
H844 H 0.46293 0.32079 0.9114 0.0
C845 C 0.44786 0.25249 0.71519 0.0
C846 C 0.43146 0.24284 0.72347 0.0
C847 C 0.45985 0.27603 0.74109 0.0
C848 C 0.47073 0.32872 0.87652 0.0
H849 H 0.54821 0.42725 0.9019 0.0
H850 H 0.52676 0.3864 0.85583 0.0
H851 H 0.48455 0.36167 0.96041 0.0
H852 H 0.41478 0.25055 0.76485 0.0
H853 H 0.43566 0.29163 0.80951 0.0
H854 H 0.47802 0.31708 0.70707 0.0
C855 C 0.52346 0.39734 0.88324 0.0
C856 C 0.48315 0.35218 0.90466 0.0
C857 C 0.53583 0.42081 0.91019 0.0
C858 C 0.42729 0.25737 0.75765 0.0
C859 C 0.43931 0.28093 0.78374 0.0
C860 C 0.47939 0.32659 0.7627 0.0
C861 C 0.50714 0.38813 0.89222 0.0
C862 C 0.49387 0.36314 0.86223 0.0
C863 C 0.45577 0.29056 0.77608 0.0
C864 C 0.46873 0.31561 0.80529 0.0
H865 H 0.51265 0.43735 0.98437 0.0
H866 H 0.4911 0.39654 0.93673 0.0
H867 H 0.49958 0.35794 0.75584 0.0
H868 H 0.45157 0.24186 0.68941 0.0
H869 H 0.47247 0.28283 0.7351 0.0
C870 C 0.79249 0.1665 0.79516 0.0
C871 C 0.80035 0.15467 0.79732 0.0
C872 C 0.77831 0.16006 0.8209 0.0
C873 C 0.74305 0.11208 0.86102 0.0
H874 H 0.7406 0.15931 0.97817 0.0
C875 C 0.68941 0.09287 0.00139 0.0
C876 C 0.68284 0.10624 -0.0008 0.0
C877 C 0.70372 0.09812 0.97748 0.0
C878 C 0.74094 0.14587 0.94476 0.0
H879 H 0.79921 0.1266 0.82856 0.0
H880 H 0.77439 0.1153 0.87312 0.0
H881 H 0.76546 0.1696 0.93587 0.0
H882 H 0.68588 0.13511 0.96695 0.0
H883 H 0.71064 0.14417 0.9254 0.0
H884 H 0.71842 0.08835 0.86971 0.0
C885 C 0.77918 0.1295 0.85083 0.0
C886 C 0.75525 0.15179 0.9205 0.0
C887 C 0.79343 0.13599 0.82519 0.0
C888 C 0.69078 0.12472 0.97116 0.0
C889 C 0.70503 0.12994 0.94729 0.0
C890 C 0.72868 0.10614 0.88526 0.0
C891 C 0.77148 0.14155 0.84944 0.0
C892 C 0.75645 0.13501 0.87766 0.0
C893 C 0.71183 0.11686 0.95069 0.0
C894 C 0.72735 0.12297 0.92687 0.0
H895 H 0.79714 0.18062 0.77249 0.0
H896 H 0.77254 0.16947 0.81739 0.0
H897 H 0.74343 0.0987 0.82752 0.0
H898 H 0.68375 0.07865 0.0233 0.0
H899 H 0.70866 0.08777 0.98165 0.0
C900 C 0.61756 0.00832 0.1548 0.0
C901 C 0.59981 0.99659 0.11632 0.0
C902 C 0.62512 0.99654 0.16588 0.0
C903 C 0.61457 0.93996 0.1699 0.0
H904 H 0.66056 0.96443 0.15891 0.0
C905 C 0.6522 0.90193 0.26363 0.0
C906 C 0.66214 0.90047 0.21903 0.0
C907 C 0.64487 0.91397 0.25165 0.0
C908 C 0.64765 0.95722 0.16157 0.0
H909 H 0.57616 0.96315 0.05807 0.0
H910 H 0.58943 0.9426 0.07598 0.0
H911 H 0.64691 0.98401 0.13261 0.0
H912 H 0.67207 0.91038 0.12646 0.0
H913 H 0.65915 0.93111 0.10486 0.0
H914 H 0.61511 0.91279 0.19658 0.0
C915 C 0.59745 0.96094 0.09902 0.0
C916 C 0.63989 0.96863 0.14741 0.0
C917 C 0.58985 0.97275 0.08826 0.0
C918 C 0.66471 0.9115 0.16267 0.0
C919 C 0.65729 0.9234 0.15032 0.0
C920 C 0.6223 0.92848 0.18368 0.0
C921 C 0.61518 0.97269 0.13837 0.0
C922 C 0.62327 0.96021 0.15165 0.0
C923 C 0.64719 0.92471 0.19436 0.0
C924 C 0.63897 0.93698 0.17991 0.0
H925 H 0.62565 0.02668 0.17759 0.0
H926 H 0.63874 1.00618 0.19749 0.0
H927 H 0.60185 0.93309 0.17461 0.0
H928 H 0.65015 0.89383 0.30809 0.0
H929 H 0.63745 0.91496 0.28768 0.0
C930 C 0.17547 0.76156 0.2417 0.0
C931 C 0.19318 0.77121 0.2575 0.0
C932 C 0.1637 0.73805 0.22127 0.0
C933 C 0.15862 0.68414 0.13904 0.0
H934 H 0.12085 0.65829 0.22184 0.0
C935 C 0.1152 0.58797 0.09017 0.0
C936 C 0.09749 0.57782 0.07651 0.0
C937 C 0.12667 0.61156 0.11256 0.0
C938 C 0.13119 0.66522 0.19738 0.0
H939 H 0.21237 0.76359 0.26526 0.0
H940 H 0.19187 0.72267 0.22993 0.0
H941 H 0.14125 0.69941 0.26127 0.0
H942 H 0.07799 0.58466 0.07546 0.0
H943 H 0.09798 0.62579 0.11338 0.0
H944 H 0.14855 0.65006 0.07469 0.0
C945 C 0.18707 0.73328 0.23255 0.0
C946 C 0.1429 0.68881 0.22012 0.0
C947 C 0.19884 0.75679 0.25334 0.0
C948 C 0.09154 0.59187 0.08577 0.0
C949 C 0.10303 0.6155 0.10797 0.0
C950 C 0.14689 0.66059 0.11609 0.0
C951 C 0.16934 0.72361 0.21577 0.0
C952 C 0.1568 0.69854 0.19147 0.0
C953 C 0.12076 0.62565 0.12162 0.0
C954 C 0.13306 0.65079 0.14518 0.0
H955 H 0.17062 0.77212 0.24445 0.0
H956 H 0.15013 0.73114 0.20812 0.0
H957 H 0.16899 0.69109 0.11478 0.0
H958 H 0.12028 0.57773 0.08411 0.0
H959 H 0.14025 0.61876 0.12378 0.0
C960 C 0.45788 0.48407 0.11452 0.0
C961 C 0.46101 0.47053 0.06574 0.0
C962 C 0.44219 0.47462 0.12896 0.0
C963 C 0.39672 0.42521 0.05118 0.0
H964 H 0.39649 0.44552 0.2579 0.0
C965 C 0.33398 0.38471 0.13132 0.0
C966 C 0.33172 0.39951 0.17932 0.0
C967 C 0.34981 0.39251 0.11914 0.0
C968 C 0.39628 0.4398 0.19965 0.0
H969 H 0.4499 0.43629 -0.00633 0.0
H970 H 0.42251 0.4197 0.0195 0.0
H971 H 0.42379 0.46056 0.23292 0.0
H972 H 0.34449 0.43422 0.25192 0.0
H973 H 0.37202 0.4478 0.23079 0.0
H974 H 0.3692 0.4046 0.01776 0.0
C975 C 0.43221 0.43774 0.0461 0.0
C976 C 0.41197 0.44844 0.1853 0.0
C977 C 0.44798 0.44721 0.03184 0.0
C978 C 0.3458 0.42224 0.21564 0.0
C979 C 0.36163 0.43004 0.20342 0.0
C980 C 0.38102 0.41658 0.06552 0.0
C981 C 0.42914 0.45132 0.09507 0.0
C982 C 0.4124 0.4414 0.11075 0.0
C983 C 0.36383 0.41533 0.15462 0.0
C984 C 0.38058 0.42389 0.13985 0.0
H985 H 0.46769 0.50203 0.14259 0.0
H986 H 0.44023 0.48566 0.16623 0.0
H987 H 0.39654 0.4196 -0.00711 0.0
H988 H 0.3235 0.36702 0.10329 0.0
H989 H 0.35109 0.38059 0.08224 0.0
C990 C 0.87885 0.72373 0.58477 0.0
C991 C 0.87305 0.7074 0.6231 0.0
C992 C 0.86978 0.73327 0.56597 0.0
C993 C 0.83835 0.7434 0.61577 0.0
H994 H 0.83027 0.74896 0.41066 0.0
C995 C 0.79368 0.77051 0.50051 0.0
C996 C 0.79905 0.78504 0.4555 0.0
C997 C 0.80245 0.76075 0.52189 0.0
C998 C 0.83258 0.7478 0.46852 0.0
H999 H 0.85333 0.68862 0.67309 0.0
H1000 H 0.83758 0.70531 0.64034 0.0
H1001 H 0.84642 0.73311 0.44745 0.0
H1002 H 0.81818 0.80133 0.40001 0.0
H1003 H 0.83351 0.78457 0.43766 0.0
H1004 H 0.82464 0.75831 0.63714 0.0
C1005 C 0.84916 0.71078 0.62505 0.0
C1006 C 0.84184 0.73869 0.48955 0.0
C1007 C 0.85815 0.70112 0.6434 0.0
C1008 C 0.81348 0.78981 0.43322 0.0
C1009 C 0.82227 0.78017 0.45481 0.0
C1010 C 0.82915 0.75264 0.59487 0.0
C1011 C 0.85479 0.72681 0.58552 0.0
C1012 C 0.84489 0.73646 0.56347 0.0
C1013 C 0.81683 0.76542 0.49906 0.0
C1014 C 0.82621 0.75505 0.52105 0.0
H1015 H 0.89027 0.72897 0.56828 0.0
H1016 H 0.87456 0.74578 0.53631 0.0
H1017 H 0.84063 0.74209 0.67343 0.0
H1018 H 0.78254 0.76641 0.51817 0.0
H1019 H 0.7978 0.74928 0.55528 0.0
C1020 C 0.34787 0.09289 0.58975 0.0
C1021 C 0.36567 0.103 0.60786 0.0
C1022 C 0.33632 0.06933 0.56599 0.0
C1023 C 0.33061 0.01685 0.46903 0.0
H1024 H 0.29394 0.9888 0.55683 0.0
C1025 C 0.28164 0.91924 0.3753 0.0
C1026 C 0.26463 0.91083 0.3731 0.0
C1027 C 0.29452 0.94253 0.40589 0.0
C1028 C 0.30392 0.99633 0.53072 0.0
H1029 H 0.38532 0.09628 0.61569 0.0
H1030 H 0.36497 0.05485 0.57239 0.0
H1031 H 0.31551 0.02962 0.60833 0.0
H1032 H 0.24771 0.92039 0.39908 0.0
H1033 H 0.26992 0.96094 0.44951 0.0
H1034 H 0.31875 0.9838 0.38948 0.0
C1035 C 0.36006 0.06532 0.5772 0.0
C1036 C 0.31636 0.01972 0.56076 0.0
C1037 C 0.37169 0.08899 0.60237 0.0
C1038 C 0.26071 0.92628 0.40056 0.0
C1039 C 0.27353 0.94957 0.43015 0.0
C1040 C 0.31802 0.99345 0.43818 0.0
C1041 C 0.34226 0.05528 0.55866 0.0
C1042 C 0.32975 0.03025 0.52991 0.0
C1043 C 0.29067 0.95804 0.43418 0.0
C1044 C 0.30441 0.98288 0.4682 0.0
H1045 H 0.34281 0.1032 0.59373 0.0
H1046 H 0.32267 0.06207 0.55155 0.0
H1047 H 0.3407 0.02458 0.44361 0.0
H1048 H 0.28513 0.90778 0.35519 0.0
H1049 H 0.30757 0.94829 0.40886 0.0
C1050 C 0.01364 0.21583 0.59807 0.0
C1051 C 0.99704 0.20304 0.54327 0.0
C1052 C 0.02819 0.22277 0.57459 0.0
C1053 C 0.0409 0.20808 0.40832 0.0
H1054 H 0.08402 0.26681 0.51395 0.0
C1055 C 0.09845 0.23853 0.29304 0.0
C1056 C 0.11503 0.2501 0.34695 0.0
C1057 C 0.08434 0.23397 0.31731 0.0
C1058 C 0.07214 0.25024 0.48428 0.0
H1059 H 0.98295 0.18847 0.42042 0.0
H1060 H 1.00822 0.20054 0.37965 0.0
H1061 H 0.05901 0.25689 0.55551 0.0
H1062 H 0.12969 0.26616 0.46907 0.0
H1063 H 0.10507 0.25811 0.51155 0.0
H1064 H 0.05397 0.20127 0.33755 0.0
C1065 C 1.00999 0.20482 0.44093 0.0
C1066 C 0.05777 0.24455 0.50813 0.0
C1067 C 0.99546 0.19789 0.46436 0.0
C1068 C 0.11715 0.25742 0.42585 0.0
C1069 C 0.10301 0.25279 0.45021 0.0
C1070 C 0.05525 0.21374 0.3846 0.0
C1071 C 0.02655 0.2171 0.49566 0.0
C1072 C 0.04193 0.22339 0.47036 0.0
C1073 C 0.08636 0.24078 0.3963 0.0
C1074 C 0.07108 0.23491 0.42205 0.0
H1075 H 0.01536 0.2199 0.65931 0.0
H1076 H 0.04069 0.23199 0.61847 0.0
H1077 H 0.02906 0.19146 0.37876 0.0
H1078 H 0.09635 0.23303 0.23171 0.0
H1079 H 0.07183 0.22515 0.27387 0.0
C1080 C 0.32339 0.23567 0.53782 0.0
C1081 C 0.32398 0.22 0.48461 0.0
C1082 C 0.31385 0.24414 0.51296 0.0
C1083 C 0.27786 0.23132 0.35136 0.0
H1084 H 0.29603 0.29472 0.44174 0.0
C1085 C 0.23734 0.2686 0.2965 0.0
C1086 C 0.24579 0.29016 0.2867 0.0
C1087 C 0.24654 0.25942 0.3187 0.0
C1088 C 0.2908 0.27699 0.41551 0.0
H1089 H 0.31537 0.20151 0.36302 0.0
H1090 H 0.29876 0.21633 0.31969 0.0
H1091 H 0.31312 0.28047 0.48324 0.0
H1092 H 0.27058 0.31856 0.2903 0.0
H1093 H 0.28636 0.30252 0.32801 0.0
H1094 H 0.25562 0.22799 0.28267 0.0
C1095 C 0.30544 0.22175 0.38088 0.0
C1096 C 0.30053 0.26877 0.43996 0.0
C1097 C 0.315 0.2133 0.40573 0.0
C1098 C 0.26357 0.30202 0.298 0.0
C1099 C 0.27271 0.29288 0.32011 0.0
C1100 C 0.26808 0.23955 0.32702 0.0
C1101 C 0.30465 0.23715 0.43425 0.0
C1102 C 0.29422 0.24584 0.40808 0.0
C1103 C 0.26439 0.2716 0.3317 0.0
C1104 C 0.27448 0.26253 0.35853 0.0
H1105 H 0.32989 0.2409 0.59911 0.0
H1106 H 0.31335 0.25575 0.55576 0.0
H1107 H 0.27252 0.21351 0.32624 0.0
H1108 H 0.22368 0.25897 0.28842 0.0
H1109 H 0.23976 0.24302 0.32755 0.0
C1110 C 0.78035 0.92114 0.40363 0.0
C1111 C 0.76251 0.91098 0.38057 0.0
C1112 C 0.79192 0.94471 0.42915 0.0
C1113 C 0.795 0.99812 0.43116 0.0
H1114 H 0.83842 0.02519 0.59172 0.0
C1115 C 0.84332 0.09515 0.58738 0.0
C1116 C 0.86058 0.10415 0.59266 0.0
C1117 C 0.83104 0.07166 0.56135 0.0
C1118 C 0.82639 0.01785 0.54654 0.0
H1119 H 0.74282 0.91769 0.36636 0.0
H1120 H 0.76303 0.95894 0.41355 0.0
H1121 H 0.81741 0.98426 0.5483 0.0
H1122 H 0.87848 0.09551 0.5753 0.0
H1123 H 0.85707 0.0545 0.53127 0.0
H1124 H 0.80399 0.03203 0.43148 0.0
C1125 C 0.76811 0.94867 0.41013 0.0
C1126 C 0.81434 0.99435 0.52123 0.0
C1127 C 0.7565 0.92499 0.38343 0.0
C1128 C 0.8653 0.08914 0.57181 0.0
C1129 C 0.85307 0.06567 0.54695 0.0
C1130 C 0.80698 0.0217 0.45738 0.0
C1131 C 0.78601 0.95887 0.43356 0.0
C1132 C 0.79854 0.98408 0.46252 0.0
C1133 C 0.83581 0.05669 0.54125 0.0
C1134 C 0.82286 0.03176 0.51478 0.0
H1135 H 0.78544 0.91086 0.40115 0.0
H1136 H 0.80555 0.9518 0.44462 0.0
H1137 H 0.78313 0.99091 0.38516 0.0
H1138 H 0.83923 0.10623 0.60269 0.0
H1139 H 0.81785 0.0652 0.55797 0.0
C1140 C 1.00642 0.74044 0.54274 0.0
C1141 C 1.00713 0.75486 0.60668 0.0
C1142 C 0.02122 0.74652 0.52217 0.0
C1143 C 0.06399 0.79709 0.54542 0.0
H1144 H 0.07438 0.7535 0.4762 0.0
C1145 C 0.1292 0.82579 0.50217 0.0
C1146 C 0.12929 0.81284 0.43684 0.0
C1147 C 0.11431 0.81775 0.52308 0.0
C1148 C 0.07157 0.76584 0.49462 0.0
H1149 H 0.02426 0.78653 0.70112 0.0
H1150 H 0.0499 0.7971 0.66528 0.0
H1151 H 0.04837 0.7412 0.51201 0.0
H1152 H 0.11374 0.78093 0.34323 0.0
H1153 H 0.08768 0.76687 0.37969 0.0
H1154 H 0.08704 0.82171 0.52781 0.0
C1155 C 0.03785 0.7813 0.62993 0.0
C1156 C 0.05666 0.75878 0.51518 0.0
C1157 C 0.0231 0.77523 0.65051 0.0
C1158 C 0.11418 0.79129 0.39423 0.0
C1159 C 0.09922 0.78323 0.41516 0.0
C1160 C 0.07884 0.80412 0.52483 0.0
C1161 C 0.03709 0.76719 0.56497 0.0
C1162 C 0.05274 0.77437 0.54142 0.0
C1163 C 0.09903 0.79651 0.47928 0.0
C1164 C 0.08293 0.78866 0.4997 0.0
H1165 H 0.99433 0.72473 0.50717 0.0
H1166 H 0.02012 0.73532 0.47144 0.0
H1167 H 0.06122 0.80948 0.56369 0.0
H1168 H 0.14069 0.84225 0.53735 0.0
H1169 H 0.11479 0.82824 0.57387 0.0
loop_
_geom_bond_atom_site_label_1
_geom_bond_atom_site_label_2
_geom_bond_distance
_geom_bond_site_symmetry_2
_ccdc_geom_bond_type
Tb0 C9 2.764 . S
Tb0 O10 2.325 1_556 S
Tb0 O13 2.303 . S
Tb0 O17 2.322 . S
Tb0 O18 2.349 1_556 S
Tb0 O21 2.415 . S
Tb0 O22 2.399 1_556 S
Tb1 O11 2.322 . S
Tb1 O12 2.349 1_554 S
Tb1 O14 2.415 . S
Tb1 O15 2.399 1_554 S
Tb1 O16 2.325 1_554 S
Tb1 O19 2.303 . S
Tb1 C30 2.764 . S
C2 O18 1.261 . S
C2 O19 1.257 . S
C3 C6 1.367 1_455 S
C3 C7 1.332 . S
C3 C9 1.504 . S
C4 C5 1.373 . S
C4 C8 1.324 . S
C5 C4 1.373 . S
C5 C6 1.432 . S
C5 H32 0.932 1_556 S
C6 C3 1.367 1_655 S
C6 C5 1.432 . S
C6 H33 0.918 1_556 S
C7 C3 1.332 . S
C7 C8 1.380 1_455 S
C7 H34 0.932 . S
C8 C4 1.324 . S
C8 C7 1.380 1_655 S
C8 H35 0.926 1_655 S
C9 Tb0 2.764 . S
C9 C3 1.504 . S
C9 O21 1.239 . S
C9 O22 1.263 1_556 S
O10 Tb0 2.325 1_554 S
O10 C20 1.236 . S
O11 Tb1 2.322 . S
O11 C20 1.257 . S
O12 Tb1 2.349 1_556 S
O12 C23 1.261 . S
O13 Tb0 2.303 . S
O13 C23 1.257 . S
O14 Tb1 2.415 . S
O14 C30 1.239 . S
O15 Tb1 2.399 1_556 S
O15 C30 1.263 1_556 S
O16 Tb1 2.325 1_556 S
O16 C31 1.236 . S
O17 Tb0 2.322 . S
O17 C31 1.257 . S
O18 Tb0 2.349 1_554 S
O18 C2 1.261 . S
O19 Tb1 2.303 . S
O19 C2 1.257 . S
C20 O10 1.236 . S
C20 O11 1.257 . S
O21 Tb0 2.415 . S
O21 C9 1.239 . S
O22 Tb0 2.399 1_554 S
O22 C9 1.263 1_554 S
C23 O12 1.261 . S
C23 O13 1.257 . S
C24 C27 1.358 . S
C24 C28 1.332 . S
C24 C30 1.504 . S
C25 C26 1.373 . S
C25 C29 1.308 . S
C26 C25 1.373 . S
C26 C27 1.429 . S
C26 H36 0.932 1_554 S
C27 C24 1.358 . S
C27 C26 1.429 . S
C27 H37 0.930 1_554 S
C28 C24 1.332 . S
C28 C29 1.394 . S
C28 H38 0.932 . S
C29 C25 1.308 . S
C29 C28 1.394 . S
C29 H39 0.929 . S
C30 Tb1 2.764 . S
C30 O14 1.239 . S
C30 O15 1.263 1_554 S
C30 C24 1.504 . S
C31 O16 1.236 . S
C31 O17 1.257 . S
H32 C5 0.932 1_554 S
H33 C6 0.918 1_554 S
H34 C7 0.932 . S
H35 C8 0.926 1_455 S
H36 C26 0.932 1_556 S
H37 C27 0.930 1_556 S
H38 C28 0.932 . S
H39 C29 0.929 . S
Tb40 C49 2.764 . S
Tb40 O50 2.325 . S
Tb40 O53 2.303 . S
Tb40 O57 2.322 . S
Tb40 O58 2.349 1_554 S
Tb40 O61 2.415 . S
Tb40 O62 2.399 . S
Tb41 O51 2.322 . S
Tb41 O52 2.349 . S
Tb41 O54 2.415 . S
Tb41 O55 2.399 . S
Tb41 O56 2.325 . S
Tb41 O59 2.303 . S
Tb41 C70 2.764 . S
C42 O58 1.261 . S
C42 O59 1.257 1_556 S
C43 C46 1.358 . S
C43 C47 1.332 . S
C43 C49 1.504 . S
C44 C45 1.373 . S
C44 C48 1.308 . S
C45 C44 1.373 . S
C45 C46 1.429 . S
C45 H72 0.932 1_554 S
C46 C43 1.358 . S
C46 C45 1.429 . S
C46 H73 0.930 1_554 S
C47 C43 1.332 . S
C47 C48 1.394 . S
C47 H74 0.932 . S
C48 C44 1.308 . S
C48 C47 1.394 . S
C48 H75 0.929 . S
C49 Tb40 2.764 . S
C49 C43 1.504 . S
C49 O61 1.239 . S
C49 O62 1.263 . S
O50 Tb40 2.325 . S
O50 C60 1.236 . S
O51 Tb41 2.322 . S
O51 C60 1.257 . S
O52 Tb41 2.349 . S
O52 C63 1.261 . S
O53 Tb40 2.303 . S
O53 C63 1.257 . S
O54 Tb41 2.415 . S
O54 C70 1.239 . S
O55 Tb41 2.399 . S
O55 C70 1.263 . S
O56 Tb41 2.325 . S
O56 C71 1.236 . S
O57 Tb40 2.322 . S
O57 C71 1.257 . S
O58 Tb40 2.349 1_556 S
O58 C42 1.261 . S
O59 Tb41 2.303 . S
O59 C42 1.257 1_554 S
C60 O50 1.236 . S
C60 O51 1.257 . S
O61 Tb40 2.415 . S
O61 C49 1.239 . S
O62 Tb40 2.399 . S
O62 C49 1.263 . S
C63 O52 1.261 . S
C63 O53 1.257 . S
C64 C67 1.358 . S
C64 C68 1.332 . S
C64 C70 1.504 . S
C65 C66 1.373 . S
C65 C69 1.308 . S
C66 C65 1.373 . S
C66 C67 1.429 . S
C66 H76 0.932 . S
C67 C64 1.358 . S
C67 C66 1.429 . S
C67 H77 0.930 . S
C68 C64 1.332 . S
C68 C69 1.394 . S
C68 H78 0.932 . S
C69 C65 1.308 . S
C69 C68 1.394 . S
C69 H79 0.929 . S
C70 Tb41 2.764 . S
C70 O54 1.239 . S
C70 O55 1.263 . S
C70 C64 1.504 . S
C71 O56 1.236 . S
C71 O57 1.257 . S
H72 C45 0.932 1_556 S
H73 C46 0.930 1_556 S
H74 C47 0.932 . S
H75 C48 0.929 . S
H76 C66 0.932 . S
H77 C67 0.930 . S
H78 C68 0.932 . S
H79 C69 0.929 . S
Tb80 C89 2.764 . S
Tb80 O90 2.325 . S
Tb80 O93 2.303 . S
Tb80 O97 2.322 . S
Tb80 O98 2.349 . S
Tb80 O101 2.415 . S
Tb80 O102 2.399 . S
Tb81 O91 2.322 . S
Tb81 O92 2.349 . S
Tb81 O94 2.415 . S
Tb81 O95 2.399 1_545 S
Tb81 O96 2.325 . S
Tb81 O99 2.303 . S
Tb81 C110 2.764 . S
C82 O98 1.261 . S
C82 O99 1.257 . S
C83 C86 1.358 . S
C83 C87 1.332 . S
C83 C89 1.504 . S
C84 C85 1.373 . S
C84 C88 1.308 . S
C85 C84 1.373 . S
C85 C86 1.429 . S
C85 H112 0.932 . S
C86 C83 1.358 . S
C86 C85 1.429 . S
C86 H113 0.930 . S
C87 C83 1.332 . S
C87 C88 1.394 . S
C87 H114 0.932 . S
C88 C84 1.308 . S
C88 C87 1.394 . S
C88 H115 0.929 . S
C89 Tb80 2.764 . S
C89 C83 1.504 . S
C89 O101 1.239 . S
C89 O102 1.263 . S
O90 Tb80 2.325 . S
O90 C100 1.236 . S
O91 Tb81 2.322 . S
O91 C100 1.257 . S
O92 Tb81 2.349 . S
O92 C103 1.261 . S
O93 Tb80 2.303 . S
O93 C103 1.257 . S
O94 Tb81 2.415 . S
O94 C110 1.239 . S
O95 Tb81 2.399 1_565 S
O95 C110 1.263 1_565 S
O96 Tb81 2.325 . S
O96 C111 1.236 . S
O97 Tb80 2.322 . S
O97 C111 1.257 . S
O98 Tb80 2.349 . S
O98 C82 1.261 . S
O99 Tb81 2.303 . S
O99 C82 1.257 . S
C100 O90 1.236 . S
C100 O91 1.257 . S
O101 Tb80 2.415 . S
O101 C89 1.239 . S
O102 Tb80 2.399 . S
O102 C89 1.263 . S
C103 O92 1.261 . S
C103 O93 1.257 . S
C104 C107 1.358 . S
C104 C108 1.332 1_565 S
C104 C110 1.504 1_565 S
C105 C106 1.373 . S
C105 C109 1.308 . S
C106 C105 1.373 . S
C106 C107 1.429 . S
C106 H116 0.932 . S
C107 C104 1.358 . S
C107 C106 1.429 . S
C107 H117 0.930 . S
C108 C104 1.332 1_545 S
C108 C109 1.394 1_545 S
C108 H118 0.932 . S
C109 C105 1.308 . S
C109 C108 1.394 1_565 S
C109 H119 0.929 . S
C110 Tb81 2.764 . S
C110 O94 1.239 . S
C110 O95 1.263 1_545 S
C110 C104 1.504 1_545 S
C111 O96 1.236 . S
C111 O97 1.257 . S
H112 C85 0.932 . S
H113 C86 0.930 . S
H114 C87 0.932 . S
H115 C88 0.929 . S
H116 C106 0.932 . S
H117 C107 0.930 . S
H118 C108 0.932 . S
H119 C109 0.929 . S
Tb120 C129 2.764 . S
Tb120 O130 2.325 . S
Tb120 O133 2.303 . S
Tb120 O137 2.322 . S
Tb120 O138 2.349 . S
Tb120 O141 2.415 . S
Tb120 O142 2.399 . S
Tb121 O131 2.322 . S
Tb121 O132 2.349 . S
Tb121 O134 2.415 . S
Tb121 O135 2.399 . S
Tb121 O136 2.325 . S
Tb121 O139 2.303 . S
Tb121 C150 2.764 . S
C122 O138 1.261 . S
C122 O139 1.257 . S
C123 C126 1.358 . S
C123 C127 1.332 . S
C123 C129 1.504 . S
C124 C125 1.373 . S
C124 C128 1.308 . S
C125 C124 1.373 . S
C125 C126 1.429 . S
C125 H152 0.932 . S
C126 C123 1.358 . S
C126 C125 1.429 . S
C126 H153 0.930 . S
C127 C123 1.332 . S
C127 C128 1.394 . S
C127 H154 0.932 . S
C128 C124 1.308 . S
C128 C127 1.394 . S
C128 H155 0.929 . S
C129 Tb120 2.764 . S
C129 C123 1.504 . S
C129 O141 1.239 . S
C129 O142 1.263 . S
O130 Tb120 2.325 . S
O130 C140 1.236 . S
O131 Tb121 2.322 . S
O131 C140 1.257 . S
O132 Tb121 2.349 . S
O132 C143 1.261 . S
O133 Tb120 2.303 . S
O133 C143 1.257 . S
O134 Tb121 2.415 . S
O134 C150 1.239 . S
O135 Tb121 2.399 . S
O135 C150 1.263 . S
O136 Tb121 2.325 . S
O136 C151 1.236 . S
O137 Tb120 2.322 . S
O137 C151 1.257 . S
O138 Tb120 2.349 . S
O138 C122 1.261 . S
O139 Tb121 2.303 . S
O139 C122 1.257 . S
C140 O130 1.236 . S
C140 O131 1.257 . S
O141 Tb120 2.415 . S
O141 C129 1.239 . S
O142 Tb120 2.399 . S
O142 C129 1.263 . S
C143 O132 1.261 . S
C143 O133 1.257 . S
C144 C147 1.358 . S
C144 C148 1.332 . S
C144 C150 1.504 . S
C145 C146 1.373 . S
C145 C149 1.308 . S
C146 C145 1.373 . S
C146 C147 1.429 . S
C146 H156 0.932 . S
C147 C144 1.358 . S
C147 C146 1.429 . S
C147 H157 0.930 . S
C148 C144 1.332 . S
C148 C149 1.394 . S
C148 H158 0.932 . S
C149 C145 1.308 . S
C149 C148 1.394 . S
C149 H159 0.929 . S
C150 Tb121 2.764 . S
C150 O134 1.239 . S
C150 O135 1.263 . S
C150 C144 1.504 . S
C151 O136 1.236 . S
C151 O137 1.257 . S
H152 C125 0.932 . S
H153 C126 0.930 . S
H154 C127 0.932 . S
H155 C128 0.929 . S
H156 C146 0.932 . S
H157 C147 0.930 . S
H158 C148 0.932 . S
H159 C149 0.929 . S
Tb160 C169 2.764 . S
Tb160 O170 2.325 . S
Tb160 O173 2.303 . S
Tb160 O177 2.322 . S
Tb160 O178 2.349 . S
Tb160 O181 2.415 . S
Tb160 O182 2.399 . S
Tb161 O171 2.322 . S
Tb161 O172 2.349 . S
Tb161 O174 2.415 . S
Tb161 O175 2.399 . S
Tb161 O176 2.325 . S
Tb161 O179 2.303 . S
Tb161 C190 2.764 . S
C162 O178 1.261 . S
C162 O179 1.257 . S
C163 C166 1.358 . S
C163 C167 1.332 . S
C163 C169 1.504 . S
C164 C165 1.373 . S
C164 C168 1.308 . S
C165 C164 1.373 . S
C165 C166 1.429 . S
C165 H192 0.932 . S
C166 C163 1.358 . S
C166 C165 1.429 . S
C166 H193 0.930 . S
C167 C163 1.332 . S
C167 C168 1.394 . S
C167 H194 0.932 . S
C168 C164 1.308 . S
C168 C167 1.394 . S
C168 H195 0.929 . S
C169 Tb160 2.764 . S
C169 C163 1.504 . S
C169 O181 1.239 . S
C169 O182 1.263 . S
O170 Tb160 2.325 . S
O170 C180 1.236 . S
O171 Tb161 2.322 . S
O171 C180 1.257 . S
O172 Tb161 2.349 . S
O172 C183 1.261 . S
O173 Tb160 2.303 . S
O173 C183 1.257 . S
O174 Tb161 2.415 . S
O174 C190 1.239 . S
O175 Tb161 2.399 . S
O175 C190 1.263 . S
O176 Tb161 2.325 . S
O176 C191 1.236 . S
O177 Tb160 2.322 . S
O177 C191 1.257 . S
O178 Tb160 2.349 . S
O178 C162 1.261 . S
O179 Tb161 2.303 . S
O179 C162 1.257 . S
C180 O170 1.236 . S
C180 O171 1.257 . S
O181 Tb160 2.415 . S
O181 C169 1.239 . S
O182 Tb160 2.399 . S
O182 C169 1.263 . S
C183 O172 1.261 . S
C183 O173 1.257 . S
C184 C187 1.358 . S
C184 C188 1.332 . S
C184 C190 1.504 . S
C185 C186 1.373 . S
C185 C189 1.308 . S
C186 C185 1.373 . S
C186 C187 1.429 . S
C186 H196 0.932 . S
C187 C184 1.358 . S
C187 C186 1.429 . S
C187 H197 0.930 . S
C188 C184 1.332 . S
C188 C189 1.394 . S
C188 H198 0.932 . S
C189 C185 1.308 . S
C189 C188 1.394 . S
C189 H199 0.929 . S
C190 Tb161 2.764 . S
C190 O174 1.239 . S
C190 O175 1.263 . S
C190 C184 1.504 . S
C191 O176 1.236 . S
C191 O177 1.257 . S
H192 C165 0.932 . S
H193 C166 0.930 . S
H194 C167 0.932 . S
H195 C168 0.929 . S
H196 C186 0.932 . S
H197 C187 0.930 . S
H198 C188 0.932 . S
H199 C189 0.929 . S
Tb200 C209 2.764 . S
Tb200 O210 2.325 . S
Tb200 O213 2.303 . S
Tb200 O217 2.322 . S
Tb200 O218 2.349 . S
Tb200 O221 2.415 . S
Tb200 O222 2.399 . S
Tb201 O211 2.322 . S
Tb201 O212 2.349 1_554 S
Tb201 O214 2.415 . S
Tb201 O215 2.399 . S
Tb201 O216 2.325 . S
Tb201 O219 2.303 . S
Tb201 C230 2.764 . S
C202 O218 1.261 . S
C202 O219 1.257 . S
C203 C206 1.358 . S
C203 C207 1.332 . S
C203 C209 1.504 . S
C204 C205 1.373 . S
C204 C208 1.308 . S
C205 C204 1.373 . S
C205 C206 1.429 . S
C205 H232 0.932 . S
C206 C203 1.358 . S
C206 C205 1.429 . S
C206 H233 0.930 . S
C207 C203 1.332 . S
C207 C208 1.394 . S
C207 H234 0.932 . S
C208 C204 1.308 . S
C208 C207 1.394 . S
C208 H235 0.929 . S
C209 Tb200 2.764 . S
C209 C203 1.504 . S
C209 O221 1.239 . S
C209 O222 1.263 . S
O210 Tb200 2.325 . S
O210 C220 1.236 . S
O211 Tb201 2.322 . S
O211 C220 1.257 . S
O212 Tb201 2.349 1_556 S
O212 C223 1.261 . S
O213 Tb200 2.303 . S
O213 C223 1.257 1_554 S
O214 Tb201 2.415 . S
O214 C230 1.239 . S
O215 Tb201 2.399 . S
O215 C230 1.263 . S
O216 Tb201 2.325 . S
O216 C231 1.236 . S
O217 Tb200 2.322 . S
O217 C231 1.257 . S
O218 Tb200 2.349 . S
O218 C202 1.261 . S
O219 Tb201 2.303 . S
O219 C202 1.257 . S
C220 O210 1.236 . S
C220 O211 1.257 . S
O221 Tb200 2.415 . S
O221 C209 1.239 . S
O222 Tb200 2.399 . S
O222 C209 1.263 . S
C223 O212 1.261 . S
C223 O213 1.257 1_556 S
C224 C227 1.358 . S
C224 C228 1.332 . S
C224 C230 1.504 . S
C225 C226 1.373 . S
C225 C229 1.308 . S
C226 C225 1.373 . S
C226 C227 1.429 . S
C226 H236 0.932 . S
C227 C224 1.358 . S
C227 C226 1.429 . S
C227 H237 0.930 . S
C228 C224 1.332 . S
C228 C229 1.394 . S
C228 H238 0.932 . S
C229 C225 1.308 . S
C229 C228 1.394 . S
C229 H239 0.929 . S
C230 Tb201 2.764 . S
C230 O214 1.239 . S
C230 O215 1.263 . S
C230 C224 1.504 . S
C231 O216 1.236 . S
C231 O217 1.257 . S
H232 C205 0.932 . S
H233 C206 0.930 . S
H234 C207 0.932 . S
H235 C208 0.929 . S
H236 C226 0.932 . S
H237 C227 0.930 . S
H238 C228 0.932 . S
H239 C229 0.929 . S
Tb240 C249 2.764 . S
Tb240 O250 2.325 . S
Tb240 O253 2.303 . S
Tb240 O257 2.322 . S
Tb240 O258 2.349 . S
Tb240 O261 2.415 . S
Tb240 O262 2.399 . S
Tb241 O251 2.322 . S
Tb241 O252 2.349 . S
Tb241 O254 2.415 . S
Tb241 O255 2.399 . S
Tb241 O256 2.325 . S
Tb241 O259 2.303 . S
Tb241 C270 2.764 . S
C242 O258 1.261 . S
C242 O259 1.257 . S
C243 C246 1.358 . S
C243 C247 1.332 . S
C243 C249 1.504 . S
C244 C245 1.373 . S
C244 C248 1.308 . S
C245 C244 1.373 . S
C245 C246 1.429 . S
C245 H272 0.932 . S
C246 C243 1.358 . S
C246 C245 1.429 . S
C246 H273 0.930 . S
C247 C243 1.332 . S
C247 C248 1.394 . S
C247 H274 0.932 . S
C248 C244 1.308 . S
C248 C247 1.394 . S
C248 H275 0.929 . S
C249 Tb240 2.764 . S
C249 C243 1.504 . S
C249 O261 1.239 . S
C249 O262 1.263 . S
O250 Tb240 2.325 . S
O250 C260 1.236 . S
O251 Tb241 2.322 . S
O251 C260 1.257 . S
O252 Tb241 2.349 . S
O252 C263 1.261 . S
O253 Tb240 2.303 . S
O253 C263 1.257 . S
O254 Tb241 2.415 . S
O254 C270 1.239 . S
O255 Tb241 2.399 . S
O255 C270 1.263 . S
O256 Tb241 2.325 . S
O256 C271 1.236 . S
O257 Tb240 2.322 . S
O257 C271 1.257 . S
O258 Tb240 2.349 . S
O258 C242 1.261 . S
O259 Tb241 2.303 . S
O259 C242 1.257 . S
C260 O250 1.236 . S
C260 O251 1.257 . S
O261 Tb240 2.415 . S
O261 C249 1.239 . S
O262 Tb240 2.399 . S
O262 C249 1.263 . S
C263 O252 1.261 . S
C263 O253 1.257 . S
C264 C267 1.358 . S
C264 C268 1.332 . S
C264 C270 1.504 . S
C265 C266 1.373 . S
C265 C269 1.308 . S
C266 C265 1.373 . S
C266 C267 1.429 . S
C266 H276 0.932 . S
C267 C264 1.358 . S
C267 C266 1.429 . S
C267 H277 0.930 . S
C268 C264 1.332 . S
C268 C269 1.394 . S
C268 H278 0.932 . S
C269 C265 1.308 . S
C269 C268 1.394 . S
C269 H279 0.929 . S
C270 Tb241 2.764 . S
C270 O254 1.239 . S
C270 O255 1.263 . S
C270 C264 1.504 . S
C271 O256 1.236 . S
C271 O257 1.257 . S
H272 C245 0.932 . S
H273 C246 0.930 . S
H274 C247 0.932 . S
H275 C248 0.929 . S
H276 C266 0.932 . S
H277 C267 0.930 . S
H278 C268 0.932 . S
H279 C269 0.929 . S
Tb280 C289 2.764 . S
Tb280 O290 2.325 . S
Tb280 O293 2.303 . S
Tb280 O297 2.322 . S
Tb280 O298 2.349 . S
Tb280 O301 2.415 . S
Tb280 O302 2.399 . S
Tb281 O291 2.322 . S
Tb281 O292 2.349 . S
Tb281 O294 2.415 . S
Tb281 O295 2.399 . S
Tb281 O296 2.325 . S
Tb281 O299 2.303 . S
Tb281 C310 2.764 . S
C282 O298 1.261 . S
C282 O299 1.257 . S
C283 C286 1.358 . S
C283 C287 1.332 . S
C283 C289 1.504 . S
C284 C285 1.373 . S
C284 C288 1.308 . S
C285 C284 1.373 . S
C285 C286 1.429 . S
C285 H312 0.932 . S
C286 C283 1.358 . S
C286 C285 1.429 . S
C286 H313 0.930 . S
C287 C283 1.332 . S
C287 C288 1.394 . S
C287 H314 0.932 . S
C288 C284 1.308 . S
C288 C287 1.394 . S
C288 H315 0.929 . S
C289 Tb280 2.764 . S
C289 C283 1.504 . S
C289 O301 1.239 . S
C289 O302 1.263 . S
O290 Tb280 2.325 . S
O290 C300 1.236 . S
O291 Tb281 2.322 . S
O291 C300 1.257 . S
O292 Tb281 2.349 . S
O292 C303 1.261 . S
O293 Tb280 2.303 . S
O293 C303 1.257 . S
O294 Tb281 2.415 . S
O294 C310 1.239 . S
O295 Tb281 2.399 . S
O295 C310 1.263 . S
O296 Tb281 2.325 . S
O296 C311 1.236 . S
O297 Tb280 2.322 . S
O297 C311 1.257 . S
O298 Tb280 2.349 . S
O298 C282 1.261 . S
O299 Tb281 2.303 . S
O299 C282 1.257 . S
C300 O290 1.236 . S
C300 O291 1.257 . S
O301 Tb280 2.415 . S
O301 C289 1.239 . S
O302 Tb280 2.399 . S
O302 C289 1.263 . S
C303 O292 1.261 . S
C303 O293 1.257 . S
C304 C307 1.358 . S
C304 C308 1.332 . S
C304 C310 1.504 . S
C305 C306 1.373 . S
C305 C309 1.308 . S
C306 C305 1.373 . S
C306 C307 1.429 . S
C306 H316 0.932 . S
C307 C304 1.358 . S
C307 C306 1.429 . S
C307 H317 0.930 . S
C308 C304 1.332 . S
C308 C309 1.394 . S
C308 H318 0.932 . S
C309 C305 1.308 . S
C309 C308 1.394 . S
C309 H319 0.929 . S
C310 Tb281 2.764 . S
C310 O294 1.239 . S
C310 O295 1.263 . S
C310 C304 1.504 . S
C311 O296 1.236 . S
C311 O297 1.257 . S
H312 C285 0.932 . S
H313 C286 0.930 . S
H314 C287 0.932 . S
H315 C288 0.929 . S
H316 C306 0.932 . S
H317 C307 0.930 . S
H318 C308 0.932 . S
H319 C309 0.929 . S
Tb320 C329 2.764 . S
Tb320 O330 2.325 . S
Tb320 O333 2.303 . S
Tb320 O337 2.322 . S
Tb320 O338 2.349 . S
Tb320 O341 2.415 . S
Tb320 O342 2.399 . S
Tb321 O331 2.322 . S
Tb321 O332 2.349 . S
Tb321 O334 2.415 . S
Tb321 O335 2.399 . S
Tb321 O336 2.325 . S
Tb321 O339 2.303 . S
Tb321 C350 2.764 . S
C322 O338 1.261 . S
C322 O339 1.257 . S
C323 C326 1.358 . S
C323 C327 1.332 . S
C323 C329 1.504 . S
C324 C325 1.373 . S
C324 C328 1.308 . S
C325 C324 1.373 . S
C325 C326 1.429 . S
C325 H352 0.932 . S
C326 C323 1.358 . S
C326 C325 1.429 . S
C326 H353 0.930 . S
C327 C323 1.332 . S
C327 C328 1.394 . S
C327 H354 0.932 . S
C328 C324 1.308 . S
C328 C327 1.394 . S
C328 H355 0.929 . S
C329 Tb320 2.764 . S
C329 C323 1.504 . S
C329 O341 1.239 . S
C329 O342 1.263 . S
O330 Tb320 2.325 . S
O330 C340 1.236 . S
O331 Tb321 2.322 . S
O331 C340 1.257 . S
O332 Tb321 2.349 . S
O332 C343 1.261 . S
O333 Tb320 2.303 . S
O333 C343 1.257 . S
O334 Tb321 2.415 . S
O334 C350 1.239 . S
O335 Tb321 2.399 . S
O335 C350 1.263 . S
O336 Tb321 2.325 . S
O336 C351 1.236 . S
O337 Tb320 2.322 . S
O337 C351 1.257 . S
O338 Tb320 2.349 . S
O338 C322 1.261 . S
O339 Tb321 2.303 . S
O339 C322 1.257 . S
C340 O330 1.236 . S
C340 O331 1.257 . S
O341 Tb320 2.415 . S
O341 C329 1.239 . S
O342 Tb320 2.399 . S
O342 C329 1.263 . S
C343 O332 1.261 . S
C343 O333 1.257 . S
C344 C347 1.358 . S
C344 C348 1.332 . S
C344 C350 1.504 . S
C345 C346 1.373 . S
C345 C349 1.308 . S
C346 C345 1.373 . S
C346 C347 1.429 . S
C346 H356 0.932 . S
C347 C344 1.358 . S
C347 C346 1.429 . S
C347 H357 0.930 . S
C348 C344 1.332 . S
C348 C349 1.394 . S
C348 H358 0.932 . S
C349 C345 1.308 . S
C349 C348 1.394 . S
C349 H359 0.929 . S
C350 Tb321 2.764 . S
C350 O334 1.239 . S
C350 O335 1.263 . S
C350 C344 1.504 . S
C351 O336 1.236 . S
C351 O337 1.257 . S
H352 C325 0.932 . S
H353 C326 0.930 . S
H354 C327 0.932 . S
H355 C328 0.929 . S
H356 C346 0.932 . S
H357 C347 0.930 . S
H358 C348 0.932 . S
H359 C349 0.929 . S
C360 C361 1.349 . S
C360 C362 1.327 . S
C360 H385 0.950 . S
C361 C360 1.349 . S
C361 C377 1.349 . S
C362 C360 1.327 . S
C362 C381 1.429 . S
C362 H386 0.950 . S
C363 C380 1.574 . S
C363 C382 1.368 . S
C363 H387 0.949 . S
H364 C368 0.949 . S
C365 C366 1.349 . S
C365 C367 1.327 . S
C365 H388 0.950 . S
C366 C365 1.349 . S
C366 C378 1.349 . S
C367 C365 1.327 . S
C367 C383 1.429 . S
C367 H389 0.950 . S
C368 H364 0.949 . S
C368 C376 1.574 . S
C368 C384 1.368 . S
H369 C377 0.950 . S
H370 C375 0.950 . S
H371 C376 0.949 . S
H372 C378 0.950 . S
H373 C379 0.950 . S
H374 C380 0.949 . S
C375 H370 0.950 . S
C375 C377 1.327 . S
C375 C381 1.429 . S
C376 C368 1.574 . S
C376 H371 0.949 . S
C376 C382 1.368 . S
C377 C361 1.349 . S
C377 H369 0.950 . S
C377 C375 1.327 . S
C378 C366 1.349 . S
C378 H372 0.950 . S
C378 C379 1.327 . S
C379 H373 0.950 . S
C379 C378 1.327 . S
C379 C383 1.429 . S
C380 C363 1.574 . S
C380 H374 0.949 . S
C380 C384 1.368 . S
C381 C362 1.429 . S
C381 C375 1.429 . S
C381 C382 1.523 . S
C382 C363 1.368 . S
C382 C376 1.368 . S
C382 C381 1.523 . S
C383 C367 1.429 . S
C383 C379 1.429 . S
C383 C384 1.523 . S
C384 C368 1.368 . S
C384 C380 1.368 . S
C384 C383 1.523 . S
H385 C360 0.950 . S
H386 C362 0.950 . S
H387 C363 0.949 . S
H388 C365 0.950 . S
H389 C367 0.950 . S
C390 C391 1.349 . S
C390 C392 1.327 . S
C390 H415 0.950 . S
C391 C390 1.349 . S
C391 C407 1.349 . S
C392 C390 1.327 . S
C392 C411 1.429 . S
C392 H416 0.950 . S
C393 C410 1.574 . S
C393 C412 1.368 . S
C393 H417 0.949 . S
H394 C398 0.949 . S
C395 C396 1.349 . S
C395 C397 1.327 . S
C395 H418 0.950 . S
C396 C395 1.349 . S
C396 C408 1.349 . S
C397 C395 1.327 . S
C397 C413 1.429 . S
C397 H419 0.950 . S
C398 H394 0.949 . S
C398 C406 1.574 . S
C398 C414 1.368 . S
H399 C407 0.950 . S
H400 C405 0.950 . S
H401 C406 0.949 . S
H402 C408 0.950 . S
H403 C409 0.950 . S
H404 C410 0.949 . S
C405 H400 0.950 . S
C405 C407 1.327 . S
C405 C411 1.429 . S
C406 C398 1.574 . S
C406 H401 0.949 . S
C406 C412 1.368 . S
C407 C391 1.349 . S
C407 H399 0.950 . S
C407 C405 1.327 . S
C408 C396 1.349 . S
C408 H402 0.950 . S
C408 C409 1.327 . S
C409 H403 0.950 . S
C409 C408 1.327 . S
C409 C413 1.429 . S
C410 C393 1.574 . S
C410 H404 0.949 . S
C410 C414 1.368 . S
C411 C392 1.429 . S
C411 C405 1.429 . S
C411 C412 1.523 . S
C412 C393 1.368 . S
C412 C406 1.368 . S
C412 C411 1.523 . S
C413 C397 1.429 . S
C413 C409 1.429 . S
C413 C414 1.523 . S
C414 C398 1.368 . S
C414 C410 1.368 . S
C414 C413 1.523 . S
H415 C390 0.950 . S
H416 C392 0.950 . S
H417 C393 0.949 . S
H418 C395 0.950 . S
H419 C397 0.950 . S
C420 C421 1.349 . S
C420 C422 1.327 . S
C420 H445 0.950 . S
C421 C420 1.349 . S
C421 C437 1.349 . S
C422 C420 1.327 . S
C422 C441 1.429 . S
C422 H446 0.950 . S
C423 C440 1.574 . S
C423 C442 1.368 . S
C423 H447 0.949 . S
H424 C428 0.949 . S
C425 C426 1.349 . S
C425 C427 1.327 . S
C425 H448 0.950 . S
C426 C425 1.349 . S
C426 C438 1.349 . S
C427 C425 1.327 . S
C427 C443 1.429 . S
C427 H449 0.950 . S
C428 H424 0.949 . S
C428 C436 1.574 . S
C428 C444 1.368 . S
H429 C437 0.950 1_554 S
H430 C435 0.950 . S
H431 C436 0.949 . S
H432 C438 0.950 . S
H433 C439 0.950 . S
H434 C440 0.949 . S
C435 H430 0.950 . S
C435 C437 1.327 . S
C435 C441 1.429 . S
C436 C428 1.574 . S
C436 H431 0.949 . S
C436 C442 1.368 . S
C437 C421 1.349 . S
C437 H429 0.950 1_556 S
C437 C435 1.327 . S
C438 C426 1.349 . S
C438 H432 0.950 . S
C438 C439 1.327 . S
C439 H433 0.950 . S
C439 C438 1.327 . S
C439 C443 1.429 . S
C440 C423 1.574 . S
C440 H434 0.949 . S
C440 C444 1.368 . S
C441 C422 1.429 . S
C441 C435 1.429 . S
C441 C442 1.523 . S
C442 C423 1.368 . S
C442 C436 1.368 . S
C442 C441 1.523 . S
C443 C427 1.429 . S
C443 C439 1.429 . S
C443 C444 1.523 . S
C444 C428 1.368 . S
C444 C440 1.368 . S
C444 C443 1.523 . S
H445 C420 0.950 . S
H446 C422 0.950 . S
H447 C423 0.949 . S
H448 C425 0.950 . S
H449 C427 0.950 . S
C450 C451 1.349 . S
C450 C452 1.327 . S
C450 H475 0.950 . S
C451 C450 1.349 . S
C451 C467 1.349 . S
C452 C450 1.327 . S
C452 C471 1.429 . S
C452 H476 0.950 . S
C453 C470 1.574 . S
C453 C472 1.368 . S
C453 H477 0.949 . S
H454 C458 0.949 . S
C455 C456 1.349 . S
C455 C457 1.327 . S
C455 H478 0.950 . S
C456 C455 1.349 . S
C456 C468 1.349 . S
C457 C455 1.327 . S
C457 C473 1.429 . S
C457 H479 0.950 . S
C458 H454 0.949 . S
C458 C466 1.574 . S
C458 C474 1.368 . S
H459 C467 0.950 . S
H460 C465 0.950 . S
H461 C466 0.949 . S
H462 C468 0.950 . S
H463 C469 0.950 . S
H464 C470 0.949 . S
C465 H460 0.950 . S
C465 C467 1.327 . S
C465 C471 1.429 . S
C466 C458 1.574 . S
C466 H461 0.949 . S
C466 C472 1.368 . S
C467 C451 1.349 . S
C467 H459 0.950 . S
C467 C465 1.327 . S
C468 C456 1.349 . S
C468 H462 0.950 . S
C468 C469 1.327 . S
C469 H463 0.950 . S
C469 C468 1.327 . S
C469 C473 1.429 . S
C470 C453 1.574 . S
C470 H464 0.949 . S
C470 C474 1.368 . S
C471 C452 1.429 . S
C471 C465 1.429 . S
C471 C472 1.523 . S
C472 C453 1.368 . S
C472 C466 1.368 . S
C472 C471 1.523 . S
C473 C457 1.429 . S
C473 C469 1.429 . S
C473 C474 1.523 1_554 S
C474 C458 1.368 . S
C474 C470 1.368 . S
C474 C473 1.523 1_556 S
H475 C450 0.950 . S
H476 C452 0.950 . S
H477 C453 0.949 . S
H478 C455 0.950 . S
H479 C457 0.950 . S
C480 C481 1.349 . S
C480 C482 1.327 . S
C480 H505 0.950 . S
C481 C480 1.349 . S
C481 C497 1.349 . S
C482 C480 1.327 . S
C482 C501 1.429 . S
C482 H506 0.950 . S
C483 C500 1.574 . S
C483 C502 1.368 . S
C483 H507 0.949 . S
H484 C488 0.949 . S
C485 C486 1.349 . S
C485 C487 1.327 1_554 S
C485 H508 0.950 . S
C486 C485 1.349 . S
C486 C498 1.349 . S
C487 C485 1.327 1_556 S
C487 C503 1.429 . S
C487 H509 0.950 . S
C488 H484 0.949 . S
C488 C496 1.574 . S
C488 C504 1.368 . S
H489 C497 0.950 . S
H490 C495 0.950 . S
H491 C496 0.949 . S
H492 C498 0.950 . S
H493 C499 0.950 . S
H494 C500 0.949 . S
C495 H490 0.950 . S
C495 C497 1.327 . S
C495 C501 1.429 . S
C496 C488 1.574 . S
C496 H491 0.949 . S
C496 C502 1.368 . S
C497 C481 1.349 . S
C497 H489 0.950 . S
C497 C495 1.327 . S
C498 C486 1.349 . S
C498 H492 0.950 . S
C498 C499 1.327 1_554 S
C499 H493 0.950 . S
C499 C498 1.327 1_556 S
C499 C503 1.429 . S
C500 C483 1.574 . S
C500 H494 0.949 . S
C500 C504 1.368 . S
C501 C482 1.429 . S
C501 C495 1.429 . S
C501 C502 1.523 . S
C502 C483 1.368 . S
C502 C496 1.368 . S
C502 C501 1.523 . S
C503 C487 1.429 . S
C503 C499 1.429 . S
C503 C504 1.523 . S
C504 C488 1.368 . S
C504 C500 1.368 . S
C504 C503 1.523 . S
H505 C480 0.950 . S
H506 C482 0.950 . S
H507 C483 0.949 . S
H508 C485 0.950 . S
H509 C487 0.950 . S
C510 C511 1.349 . S
C510 C512 1.327 . S
C510 H535 0.950 . S
C511 C510 1.349 . S
C511 C527 1.349 . S
C512 C510 1.327 . S
C512 C531 1.429 . S
C512 H536 0.950 . S
C513 C530 1.574 . S
C513 C532 1.368 . S
C513 H537 0.949 . S
H514 C518 0.949 . S
C515 C516 1.349 . S
C515 C517 1.327 . S
C515 H538 0.950 . S
C516 C515 1.349 . S
C516 C528 1.349 . S
C517 C515 1.327 . S
C517 C533 1.429 . S
C517 H539 0.950 . S
C518 H514 0.949 . S
C518 C526 1.574 . S
C518 C534 1.368 . S
H519 C527 0.950 . S
H520 C525 0.950 . S
H521 C526 0.949 . S
H522 C528 0.950 . S
H523 C529 0.950 . S
H524 C530 0.949 . S
C525 H520 0.950 . S
C525 C527 1.327 . S
C525 C531 1.429 . S
C526 C518 1.574 . S
C526 H521 0.949 . S
C526 C532 1.368 . S
C527 C511 1.349 . S
C527 H519 0.950 . S
C527 C525 1.327 . S
C528 C516 1.349 . S
C528 H522 0.950 . S
C528 C529 1.327 . S
C529 H523 0.950 . S
C529 C528 1.327 . S
C529 C533 1.429 . S
C530 C513 1.574 . S
C530 H524 0.949 . S
C530 C534 1.368 . S
C531 C512 1.429 . S
C531 C525 1.429 . S
C531 C532 1.523 . S
C532 C513 1.368 . S
C532 C526 1.368 . S
C532 C531 1.523 . S
C533 C517 1.429 . S
C533 C529 1.429 . S
C533 C534 1.523 . S
C534 C518 1.368 . S
C534 C530 1.368 . S
C534 C533 1.523 . S
H535 C510 0.950 . S
H536 C512 0.950 . S
H537 C513 0.949 . S
H538 C515 0.950 . S
H539 C517 0.950 . S
C540 C541 1.349 . S
C540 C542 1.327 . S
C540 H565 0.950 . S
C541 C540 1.349 . S
C541 C557 1.349 . S
C542 C540 1.327 . S
C542 C561 1.429 . S
C542 H566 0.950 . S
C543 C560 1.574 . S
C543 C562 1.368 . S
C543 H567 0.949 . S
H544 C548 0.949 . S
C545 C546 1.349 . S
C545 C547 1.327 . S
C545 H568 0.950 . S
C546 C545 1.349 . S
C546 C558 1.349 . S
C547 C545 1.327 . S
C547 C563 1.429 1_556 S
C547 H569 0.950 . S
C548 H544 0.949 . S
C548 C556 1.574 . S
C548 C564 1.368 . S
H549 C557 0.950 . S
H550 C555 0.950 . S
H551 C556 0.949 . S
H552 C558 0.950 . S
H553 C559 0.950 1_554 S
H554 C560 0.949 . S
C555 H550 0.950 . S
C555 C557 1.327 . S
C555 C561 1.429 . S
C556 C548 1.574 . S
C556 H551 0.949 . S
C556 C562 1.368 . S
C557 C541 1.349 . S
C557 H549 0.950 . S
C557 C555 1.327 . S
C558 C546 1.349 . S
C558 H552 0.950 . S
C558 C559 1.327 . S
C559 H553 0.950 1_556 S
C559 C558 1.327 . S
C559 C563 1.429 1_556 S
C560 C543 1.574 . S
C560 H554 0.949 . S
C560 C564 1.368 . S
C561 C542 1.429 . S
C561 C555 1.429 . S
C561 C562 1.523 . S
C562 C543 1.368 . S
C562 C556 1.368 . S
C562 C561 1.523 . S
C563 C547 1.429 1_554 S
C563 C559 1.429 1_554 S
C563 C564 1.523 . S
C564 C548 1.368 . S
C564 C560 1.368 . S
C564 C563 1.523 . S
H565 C540 0.950 . S
H566 C542 0.950 . S
H567 C543 0.949 . S
H568 C545 0.950 . S
H569 C547 0.950 . S
C570 C571 1.349 . S
C570 C572 1.327 . S
C570 H595 0.950 . S
C571 C570 1.349 . S
C571 C587 1.349 . S
C572 C570 1.327 . S
C572 C591 1.429 . S
C572 H596 0.950 . S
C573 C590 1.574 . S
C573 C592 1.368 . S
C573 H597 0.949 . S
H574 C578 0.949 . S
C575 C576 1.349 . S
C575 C577 1.327 . S
C575 H598 0.950 . S
C576 C575 1.349 . S
C576 C588 1.349 . S
C577 C575 1.327 . S
C577 C593 1.429 1_556 S
C577 H599 0.950 . S
C578 H574 0.949 . S
C578 C586 1.574 . S
C578 C594 1.368 . S
H579 C587 0.950 . S
H580 C585 0.950 . S
H581 C586 0.949 . S
H582 C588 0.950 . S
H583 C589 0.950 1_554 S
H584 C590 0.949 . S
C585 H580 0.950 . S
C585 C587 1.327 . S
C585 C591 1.429 . S
C586 C578 1.574 . S
C586 H581 0.949 . S
C586 C592 1.368 . S
C587 C571 1.349 . S
C587 H579 0.950 . S
C587 C585 1.327 . S
C588 C576 1.349 . S
C588 H582 0.950 . S
C588 C589 1.327 . S
C589 H583 0.950 1_556 S
C589 C588 1.327 . S
C589 C593 1.429 1_556 S
C590 C573 1.574 . S
C590 H584 0.949 . S
C590 C594 1.368 . S
C591 C572 1.429 . S
C591 C585 1.429 . S
C591 C592 1.523 . S
C592 C573 1.368 . S
C592 C586 1.368 . S
C592 C591 1.523 . S
C593 C577 1.429 1_554 S
C593 C589 1.429 1_554 S
C593 C594 1.523 . S
C594 C578 1.368 . S
C594 C590 1.368 . S
C594 C593 1.523 . S
H595 C570 0.950 . S
H596 C572 0.950 . S
H597 C573 0.949 . S
H598 C575 0.950 . S
H599 C577 0.950 . S
C600 C601 1.349 . S
C600 C602 1.327 . S
C600 H625 0.950 . S
C601 C600 1.349 . S
C601 C617 1.349 . S
C602 C600 1.327 . S
C602 C621 1.429 . S
C602 H626 0.950 . S
C603 C620 1.574 . S
C603 C622 1.368 . S
C603 H627 0.949 . S
H604 C608 0.949 . S
C605 C606 1.349 . S
C605 C607 1.327 . S
C605 H628 0.950 . S
C606 C605 1.349 . S
C606 C618 1.349 . S
C607 C605 1.327 . S
C607 C623 1.429 1_556 S
C607 H629 0.950 . S
C608 H604 0.949 . S
C608 C616 1.574 . S
C608 C624 1.368 . S
H609 C617 0.950 . S
H610 C615 0.950 . S
H611 C616 0.949 . S
H612 C618 0.950 . S
H613 C619 0.950 . S
H614 C620 0.949 . S
C615 H610 0.950 . S
C615 C617 1.327 . S
C615 C621 1.429 . S
C616 C608 1.574 . S
C616 H611 0.949 . S
C616 C622 1.368 . S
C617 C601 1.349 . S
C617 H609 0.950 . S
C617 C615 1.327 . S
C618 C606 1.349 . S
C618 H612 0.950 . S
C618 C619 1.327 1_556 S
C619 H613 0.950 . S
C619 C618 1.327 1_554 S
C619 C623 1.429 . S
C620 C603 1.574 . S
C620 H614 0.949 . S
C620 C624 1.368 . S
C621 C602 1.429 . S
C621 C615 1.429 . S
C621 C622 1.523 . S
C622 C603 1.368 . S
C622 C616 1.368 . S
C622 C621 1.523 . S
C623 C607 1.429 1_554 S
C623 C619 1.429 . S
C623 C624 1.523 . S
C624 C608 1.368 . S
C624 C620 1.368 . S
C624 C623 1.523 . S
H625 C600 0.950 . S
H626 C602 0.950 . S
H627 C603 0.949 . S
H628 C605 0.950 . S
H629 C607 0.950 . S
C630 C631 1.349 . S
C630 C632 1.327 . S
C630 H655 0.950 . S
C631 C630 1.349 . S
C631 C647 1.349 . S
C632 C630 1.327 . S
C632 C651 1.429 . S
C632 H656 0.950 . S
C633 C650 1.574 . S
C633 C652 1.368 . S
C633 H657 0.949 . S
H634 C638 0.949 . S
C635 C636 1.349 . S
C635 C637 1.327 . S
C635 H658 0.950 . S
C636 C635 1.349 . S
C636 C648 1.349 . S
C637 C635 1.327 . S
C637 C653 1.429 . S
C637 H659 0.950 . S
C638 H634 0.949 . S
C638 C646 1.574 . S
C638 C654 1.368 . S
H639 C647 0.950 . S
H640 C645 0.950 . S
H641 C646 0.949 . S
H642 C648 0.943 1_556 S
H643 C649 0.950 . S
H644 C650 0.949 . S
C645 H640 0.950 . S
C645 C647 1.327 . S
C645 C651 1.429 . S
C646 C638 1.574 . S
C646 H641 0.949 . S
C646 C652 1.368 . S
C647 C631 1.349 . S
C647 H639 0.950 . S
C647 C645 1.327 . S
C648 C636 1.349 . S
C648 H642 0.943 1_554 S
C648 C649 1.327 . S
C649 H643 0.950 . S
C649 C648 1.327 . S
C649 C653 1.429 . S
C650 C633 1.574 . S
C650 H644 0.949 . S
C650 C654 1.368 . S
C651 C632 1.429 . S
C651 C645 1.429 . S
C651 C652 1.523 . S
C652 C633 1.368 . S
C652 C646 1.368 . S
C652 C651 1.523 . S
C653 C637 1.429 . S
C653 C649 1.429 . S
C653 C654 1.523 . S
C654 C638 1.368 . S
C654 C650 1.368 . S
C654 C653 1.523 . S
H655 C630 0.950 . S
H656 C632 0.950 . S
H657 C633 0.949 . S
H658 C635 0.950 . S
H659 C637 0.950 . S
C660 C661 1.349 . S
C660 C662 1.327 . S
C660 H685 0.950 . S
C661 C660 1.349 . S
C661 C677 1.349 . S
C662 C660 1.327 . S
C662 C681 1.429 . S
C662 H686 0.950 . S
C663 C680 1.574 . S
C663 C682 1.368 . S
C663 H687 0.949 . S
H664 C668 0.949 . S
C665 C666 1.349 . S
C665 C667 1.327 . S
C665 H688 0.950 . S
C666 C665 1.349 . S
C666 C678 1.349 . S
C667 C665 1.327 . S
C667 C683 1.429 . S
C667 H689 0.950 . S
C668 H664 0.949 . S
C668 C676 1.574 . S
C668 C684 1.368 . S
H669 C677 0.950 . S
H670 C675 0.950 . S
H671 C676 0.949 . S
H672 C678 0.950 . S
H673 C679 0.950 . S
H674 C680 0.949 . S
C675 H670 0.950 . S
C675 C677 1.327 . S
C675 C681 1.429 . S
C676 C668 1.574 . S
C676 H671 0.949 . S
C676 C682 1.368 . S
C677 C661 1.349 . S
C677 H669 0.950 . S
C677 C675 1.327 . S
C678 C666 1.349 . S
C678 H672 0.950 . S
C678 C679 1.327 . S
C679 H673 0.950 . S
C679 C678 1.327 . S
C679 C683 1.429 . S
C680 C663 1.574 . S
C680 H674 0.949 . S
C680 C684 1.368 . S
C681 C662 1.429 . S
C681 C675 1.429 . S
C681 C682 1.523 . S
C682 C663 1.368 . S
C682 C676 1.368 . S
C682 C681 1.523 . S
C683 C667 1.429 . S
C683 C679 1.429 . S
C683 C684 1.523 . S
C684 C668 1.368 . S
C684 C680 1.368 . S
C684 C683 1.523 . S
H685 C660 0.950 . S
H686 C662 0.950 . S
H687 C663 0.949 . S
H688 C665 0.950 . S
H689 C667 0.950 . S
C690 C691 1.349 . S
C690 C692 1.327 . S
C690 H715 0.950 . S
C691 C690 1.349 . S
C691 C707 1.349 . S
C692 C690 1.327 . S
C692 C711 1.429 . S
C692 H716 0.950 . S
C693 C710 1.574 . S
C693 C712 1.368 . S
C693 H717 0.949 . S
H694 C698 0.949 . S
C695 C696 1.349 . S
C695 C697 1.327 . S
C695 H718 0.950 . S
C696 C695 1.349 . S
C696 C708 1.349 . S
C697 C695 1.327 . S
C697 C713 1.429 . S
C697 H719 0.950 . S
C698 H694 0.949 . S
C698 C706 1.574 . S
C698 C714 1.368 . S
H699 C707 0.950 . S
H700 C705 0.950 . S
H701 C706 0.949 . S
H702 C708 0.950 . S
H703 C709 0.950 . S
H704 C710 0.949 . S
C705 H700 0.950 . S
C705 C707 1.327 . S
C705 C711 1.429 . S
C706 C698 1.574 . S
C706 H701 0.949 . S
C706 C712 1.368 . S
C707 C691 1.349 . S
C707 H699 0.950 . S
C707 C705 1.327 . S
C708 C696 1.349 . S
C708 H702 0.950 . S
C708 C709 1.327 . S
C709 H703 0.950 . S
C709 C708 1.327 . S
C709 C713 1.429 . S
C710 C693 1.574 . S
C710 H704 0.949 . S
C710 C714 1.368 . S
C711 C692 1.429 . S
C711 C705 1.429 . S
C711 C712 1.523 . S
C712 C693 1.368 . S
C712 C706 1.368 . S
C712 C711 1.523 . S
C713 C697 1.429 . S
C713 C709 1.429 . S
C713 C714 1.523 . S
C714 C698 1.368 . S
C714 C710 1.368 . S
C714 C713 1.523 . S
H715 C690 0.950 . S
H716 C692 0.950 . S
H717 C693 0.949 . S
H718 C695 0.950 . S
H719 C697 0.950 . S
C720 C721 1.349 . S
C720 C722 1.327 . S
C720 H745 0.950 . S
C721 C720 1.349 . S
C721 C737 1.349 . S
C722 C720 1.327 . S
C722 C741 1.429 . S
C722 H746 0.950 . S
C723 C740 1.574 . S
C723 C742 1.368 . S
C723 H747 0.949 . S
H724 C728 0.949 1_556 S
C725 C726 1.349 . S
C725 C727 1.327 1_556 S
C725 H748 0.950 . S
C726 C725 1.349 . S
C726 C738 1.349 . S
C727 C725 1.327 1_554 S
C727 C743 1.429 1_554 S
C727 H749 0.950 . S
C728 H724 0.949 1_554 S
C728 C736 1.574 . S
C728 C744 1.368 . S
H729 C737 0.950 . S
H730 C735 0.950 . S
H731 C736 0.949 . S
H732 C738 0.950 . S
H733 C739 0.950 . S
H734 C740 0.949 . S
C735 H730 0.950 . S
C735 C737 1.327 . S
C735 C741 1.429 . S
C736 C728 1.574 . S
C736 H731 0.949 . S
C736 C742 1.368 . S
C737 C721 1.349 . S
C737 H729 0.950 . S
C737 C735 1.327 . S
C738 C726 1.349 . S
C738 H732 0.950 . S
C738 C739 1.327 . S
C739 H733 0.950 . S
C739 C738 1.327 . S
C739 C743 1.429 . S
C740 C723 1.574 . S
C740 H734 0.949 . S
C740 C744 1.368 . S
C741 C722 1.429 . S
C741 C735 1.429 . S
C741 C742 1.523 . S
C742 C723 1.368 . S
C742 C736 1.368 . S
C742 C741 1.523 . S
C743 C727 1.429 1_556 S
C743 C739 1.429 . S
C743 C744 1.523 1_556 S
C744 C728 1.368 . S
C744 C740 1.368 . S
C744 C743 1.523 1_554 S
H745 C720 0.950 . S
H746 C722 0.950 . S
H747 C723 0.949 . S
H748 C725 0.950 . S
H749 C727 0.950 . S
C750 C751 1.349 . S
C750 C752 1.327 . S
C750 H775 0.950 . S
C751 C750 1.349 . S
C751 C767 1.349 . S
C752 C750 1.327 . S
C752 C771 1.429 . S
C752 H776 0.950 . S
C753 C770 1.574 . S
C753 C772 1.368 . S
C753 H777 0.949 . S
H754 C758 0.949 . S
C755 C756 1.349 . S
C755 C757 1.327 1_455 S
C755 H778 0.950 1_556 S
C756 C755 1.349 . S
C756 C768 1.349 1_455 S
C757 C755 1.327 1_655 S
C757 C773 1.429 . S
C757 H779 0.978 . S
C758 H754 0.949 . S
C758 C766 1.574 . S
C758 C774 1.368 . S
H759 C767 0.950 . S
H760 C765 0.950 . S
H761 C766 0.949 . S
H762 C768 0.950 . S
H763 C769 0.950 . S
H764 C770 0.949 . S
C765 H760 0.950 . S
C765 C767 1.327 . S
C765 C771 1.429 . S
C766 C758 1.574 . S
C766 H761 0.949 . S
C766 C772 1.368 . S
C767 C751 1.349 . S
C767 H759 0.950 . S
C767 C765 1.327 . S
C768 C756 1.349 1_655 S
C768 H762 0.950 . S
C768 C769 1.327 . S
C769 H763 0.950 . S
C769 C768 1.327 . S
C769 C773 1.429 . S
C770 C753 1.574 . S
C770 H764 0.949 . S
C770 C774 1.368 . S
C771 C752 1.429 . S
C771 C765 1.429 . S
C771 C772 1.523 . S
C772 C753 1.368 . S
C772 C766 1.368 . S
C772 C771 1.523 . S
C773 C757 1.429 . S
C773 C769 1.429 . S
C773 C774 1.523 . S
C774 C758 1.368 . S
C774 C770 1.368 . S
C774 C773 1.523 . S
H775 C750 0.950 . S
H776 C752 0.950 . S
H777 C753 0.949 . S
H778 C755 0.950 1_554 S
H779 C757 0.978 . S
C780 C781 1.349 . S
C780 C782 1.327 . S
C780 H805 0.950 . S
C781 C780 1.349 . S
C781 C797 1.349 . S
C782 C780 1.327 . S
C782 C801 1.429 . S
C782 H806 0.950 . S
C783 C800 1.574 . S
C783 C802 1.368 . S
C783 H807 0.949 . S
H784 C788 0.949 . S
C785 C786 1.349 . S
C785 C787 1.327 . S
C785 H808 0.950 . S
C786 C785 1.349 . S
C786 C798 1.349 . S
C787 C785 1.327 . S
C787 C803 1.429 . S
C787 H809 0.950 . S
C788 H784 0.949 . S
C788 C796 1.574 . S
C788 C804 1.368 . S
H789 C797 0.950 . S
H790 C795 0.950 . S
H791 C796 0.949 . S
H792 C798 0.950 . S
H793 C799 0.950 . S
H794 C800 0.949 . S
C795 H790 0.950 . S
C795 C797 1.327 . S
C795 C801 1.429 . S
C796 C788 1.574 . S
C796 H791 0.949 . S
C796 C802 1.368 . S
C797 C781 1.349 . S
C797 H789 0.950 . S
C797 C795 1.327 . S
C798 C786 1.349 . S
C798 H792 0.950 . S
C798 C799 1.327 . S
C799 H793 0.950 . S
C799 C798 1.327 . S
C799 C803 1.429 . S
C800 C783 1.574 . S
C800 H794 0.949 . S
C800 C804 1.368 . S
C801 C782 1.429 . S
C801 C795 1.429 . S
C801 C802 1.523 . S
C802 C783 1.368 . S
C802 C796 1.368 . S
C802 C801 1.523 . S
C803 C787 1.429 . S
C803 C799 1.429 . S
C803 C804 1.523 1_554 S
C804 C788 1.368 . S
C804 C800 1.368 . S
C804 C803 1.523 1_556 S
H805 C780 0.950 . S
H806 C782 0.950 . S
H807 C783 0.949 . S
H808 C785 0.950 . S
H809 C787 0.950 . S
C810 C811 1.349 . S
C810 C812 1.327 . S
C810 H835 0.950 . S
C811 C810 1.349 . S
C811 C827 1.349 . S
C812 C810 1.327 . S
C812 C831 1.429 . S
C812 H836 0.950 . S
C813 C830 1.574 . S
C813 C832 1.368 . S
C813 H837 0.949 . S
H814 C818 0.949 . S
C815 C816 1.349 . S
C815 C817 1.327 . S
C815 H838 0.950 1_556 S
C816 C815 1.349 . S
C816 C828 1.349 . S
C817 C815 1.327 . S
C817 C833 1.429 . S
C817 H839 0.950 . S
C818 H814 0.949 . S
C818 C826 1.574 . S
C818 C834 1.368 . S
H819 C827 0.950 . S
H820 C825 0.950 . S
H821 C826 0.949 . S
H822 C828 0.950 . S
H823 C829 0.950 . S
H824 C830 0.949 . S
C825 H820 0.950 . S
C825 C827 1.327 . S
C825 C831 1.429 . S
C826 C818 1.574 . S
C826 H821 0.949 . S
C826 C832 1.368 . S
C827 C811 1.349 . S
C827 H819 0.950 . S
C827 C825 1.327 . S
C828 C816 1.349 . S
C828 H822 0.950 . S
C828 C829 1.327 . S
C829 H823 0.950 . S
C829 C828 1.327 . S
C829 C833 1.429 . S
C830 C813 1.574 . S
C830 H824 0.949 . S
C830 C834 1.368 . S
C831 C812 1.429 . S
C831 C825 1.429 . S
C831 C832 1.523 . S
C832 C813 1.368 . S
C832 C826 1.368 . S
C832 C831 1.523 . S
C833 C817 1.429 . S
C833 C829 1.429 . S
C833 C834 1.523 . S
C834 C818 1.368 . S
C834 C830 1.368 . S
C834 C833 1.523 . S
H835 C810 0.950 . S
H836 C812 0.950 . S
H837 C813 0.949 . S
H838 C815 0.950 1_554 S
H839 C817 0.950 . S
C840 C841 1.349 . S
C840 C842 1.327 . S
C840 H865 0.950 . S
C841 C840 1.349 . S
C841 C857 1.349 1_554 S
C842 C840 1.327 . S
C842 C861 1.429 1_554 S
C842 H866 0.950 . S
C843 C860 1.574 . S
C843 C862 1.368 . S
C843 H867 0.949 . S
H844 C848 0.949 . S
C845 C846 1.349 . S
C845 C847 1.327 . S
C845 H868 0.950 . S
C846 C845 1.349 . S
C846 C858 1.349 . S
C847 C845 1.327 . S
C847 C863 1.429 . S
C847 H869 0.950 . S
C848 H844 0.949 . S
C848 C856 1.574 . S
C848 C864 1.368 . S
H849 C857 0.950 . S
H850 C855 0.950 . S
H851 C856 0.949 1_554 S
H852 C858 0.950 . S
H853 C859 0.950 . S
H854 C860 0.949 . S
C855 H850 0.950 . S
C855 C857 1.327 . S
C855 C861 1.429 . S
C856 C848 1.574 . S
C856 H851 0.949 1_556 S
C856 C862 1.368 . S
C857 C841 1.349 1_556 S
C857 H849 0.950 . S
C857 C855 1.327 . S
C858 C846 1.349 . S
C858 H852 0.950 . S
C858 C859 1.327 . S
C859 H853 0.950 . S
C859 C858 1.327 . S
C859 C863 1.429 . S
C860 C843 1.574 . S
C860 H854 0.949 . S
C860 C864 1.368 . S
C861 C842 1.429 1_556 S
C861 C855 1.429 . S
C861 C862 1.523 . S
C862 C843 1.368 . S
C862 C856 1.368 . S
C862 C861 1.523 . S
C863 C847 1.429 . S
C863 C859 1.429 . S
C863 C864 1.523 . S
C864 C848 1.368 . S
C864 C860 1.368 . S
C864 C863 1.523 . S
H865 C840 0.950 . S
H866 C842 0.950 . S
H867 C843 0.949 . S
H868 C845 0.950 . S
H869 C847 0.950 . S
C870 C871 1.349 . S
C870 C872 1.327 . S
C870 H895 0.950 . S
C871 C870 1.349 . S
C871 C887 1.349 . S
C872 C870 1.327 . S
C872 C891 1.429 . S
C872 H896 0.950 . S
C873 C890 1.574 . S
C873 C892 1.368 1_554 S
C873 H897 0.951 . S
H874 C878 0.949 . S
C875 C876 1.349 . S
C875 C877 1.327 . S
C875 H898 0.950 . S
C876 C875 1.349 . S
C876 C888 1.349 . S
C877 C875 1.327 . S
C877 C893 1.429 . S
C877 H899 0.950 . S
C878 H874 0.949 . S
C878 C886 1.579 . S
C878 C894 1.368 . S
H879 C887 0.950 . S
H880 C885 0.950 . S
H881 C886 0.945 1_556 S
H882 C888 0.950 . S
H883 C889 0.950 . S
H884 C890 0.949 . S
C885 H880 0.950 . S
C885 C887 1.327 . S
C885 C891 1.429 . S
C886 C878 1.579 . S
C886 H881 0.945 1_554 S
C886 C892 1.368 1_554 S
C887 C871 1.349 . S
C887 H879 0.950 . S
C887 C885 1.327 . S
C888 C876 1.349 . S
C888 H882 0.950 . S
C888 C889 1.327 . S
C889 H883 0.950 . S
C889 C888 1.327 . S
C889 C893 1.429 . S
C890 C873 1.574 . S
C890 H884 0.949 . S
C890 C894 1.368 . S
C891 C872 1.429 . S
C891 C885 1.429 . S
C891 C892 1.523 . S
C892 C873 1.368 1_556 S
C892 C886 1.368 1_556 S
C892 C891 1.523 . S
C893 C877 1.429 . S
C893 C889 1.429 . S
C893 C894 1.523 . S
C894 C878 1.368 . S
C894 C890 1.368 . S
C894 C893 1.523 . S
H895 C870 0.950 . S
H896 C872 0.950 . S
H897 C873 0.951 . S
H898 C875 0.950 . S
H899 C877 0.950 . S
C900 C901 1.349 . S
C900 C902 1.327 1_545 S
C900 H925 0.950 . S
C901 C900 1.349 . S
C901 C917 1.349 1_545 S
C902 C900 1.327 1_565 S
C902 C921 1.429 . S
C902 H926 0.950 . S
C903 C920 1.574 . S
C903 C922 1.368 . S
C903 H927 0.949 . S
H904 C908 0.949 . S
C905 C906 1.349 . S
C905 C907 1.327 . S
C905 H928 0.950 . S
C906 C905 1.349 . S
C906 C918 1.349 . S
C907 C905 1.327 . S
C907 C923 1.429 . S
C907 H929 0.950 . S
C908 H904 0.949 . S
C908 C916 1.574 . S
C908 C924 1.368 . S
H909 C917 0.958 . S
H910 C915 0.950 . S
H911 C916 0.949 . S
H912 C918 0.950 . S
H913 C919 0.950 . S
H914 C920 0.949 . S
C915 H910 0.950 . S
C915 C917 1.327 . S
C915 C921 1.429 . S
C916 C908 1.574 . S
C916 H911 0.949 . S
C916 C922 1.368 . S
C917 C901 1.349 1_565 S
C917 H909 0.958 . S
C917 C915 1.327 . S
C918 C906 1.349 . S
C918 H912 0.950 . S
C918 C919 1.327 . S
C919 H913 0.950 . S
C919 C918 1.327 . S
C919 C923 1.429 . S
C920 C903 1.574 . S
C920 H914 0.949 . S
C920 C924 1.368 . S
C921 C902 1.429 . S
C921 C915 1.429 . S
C921 C922 1.523 . S
C922 C903 1.368 . S
C922 C916 1.368 . S
C922 C921 1.523 . S
C923 C907 1.429 . S
C923 C919 1.429 . S
C923 C924 1.523 . S
C924 C908 1.368 . S
C924 C920 1.368 . S
C924 C923 1.523 . S
H925 C900 0.950 . S
H926 C902 0.950 . S
H927 C903 0.949 . S
H928 C905 0.950 . S
H929 C907 0.950 . S
C930 C931 1.349 . S
C930 C932 1.327 . S
C930 H955 0.950 . S
C931 C930 1.349 . S
C931 C947 1.349 . S
C932 C930 1.327 . S
C932 C951 1.429 . S
C932 H956 0.950 . S
C933 C950 1.574 . S
C933 C952 1.368 . S
C933 H957 0.949 . S
H934 C938 0.949 . S
C935 C936 1.349 . S
C935 C937 1.327 . S
C935 H958 0.950 1_554 S
C936 C935 1.349 . S
C936 C948 1.349 . S
C937 C935 1.327 . S
C937 C953 1.429 . S
C937 H959 0.950 . S
C938 H934 0.949 . S
C938 C946 1.574 . S
C938 C954 1.368 . S
H939 C947 0.950 . S
H940 C945 0.950 . S
H941 C946 0.949 . S
H942 C948 0.950 . S
H943 C949 0.950 . S
H944 C950 0.949 . S
C945 H940 0.950 . S
C945 C947 1.327 . S
C945 C951 1.429 . S
C946 C938 1.574 . S
C946 H941 0.949 . S
C946 C952 1.368 . S
C947 C931 1.349 . S
C947 H939 0.950 . S
C947 C945 1.327 . S
C948 C936 1.349 . S
C948 H942 0.950 . S
C948 C949 1.327 . S
C949 H943 0.950 . S
C949 C948 1.327 . S
C949 C953 1.429 . S
C950 C933 1.574 . S
C950 H944 0.949 . S
C950 C954 1.368 . S
C951 C932 1.429 . S
C951 C945 1.429 . S
C951 C952 1.523 . S
C952 C933 1.368 . S
C952 C946 1.368 . S
C952 C951 1.523 . S
C953 C937 1.429 . S
C953 C949 1.429 . S
C953 C954 1.523 . S
C954 C938 1.368 . S
C954 C950 1.368 . S
C954 C953 1.523 . S
H955 C930 0.950 . S
H956 C932 0.950 . S
H957 C933 0.949 . S
H958 C935 0.950 1_556 S
H959 C937 0.950 . S
C960 C961 1.349 . S
C960 C962 1.327 . S
C960 H985 0.950 . S
C961 C960 1.349 . S
C961 C977 1.349 . S
C962 C960 1.327 . S
C962 C981 1.429 . S
C962 H986 0.950 . S
C963 C980 1.574 . S
C963 C982 1.368 . S
C963 H987 0.949 . S
H964 C968 0.949 . S
C965 C966 1.349 . S
C965 C967 1.327 . S
C965 H988 0.950 . S
C966 C965 1.349 . S
C966 C978 1.349 . S
C967 C965 1.327 . S
C967 C983 1.429 . S
C967 H989 0.950 . S
C968 H964 0.949 . S
C968 C976 1.574 . S
C968 C984 1.368 . S
H969 C977 0.950 . S
H970 C975 0.950 . S
H971 C976 0.949 . S
H972 C978 0.950 . S
H973 C979 0.950 . S
H974 C980 0.949 . S
C975 H970 0.950 . S
C975 C977 1.327 . S
C975 C981 1.429 . S
C976 C968 1.574 . S
C976 H971 0.949 . S
C976 C982 1.368 . S
C977 C961 1.349 . S
C977 H969 0.950 . S
C977 C975 1.327 . S
C978 C966 1.349 . S
C978 H972 0.950 . S
C978 C979 1.327 . S
C979 H973 0.950 . S
C979 C978 1.327 . S
C979 C983 1.429 . S
C980 C963 1.574 . S
C980 H974 0.949 . S
C980 C984 1.368 . S
C981 C962 1.429 . S
C981 C975 1.429 . S
C981 C982 1.523 . S
C982 C963 1.368 . S
C982 C976 1.368 . S
C982 C981 1.523 . S
C983 C967 1.429 . S
C983 C979 1.429 . S
C983 C984 1.523 . S
C984 C968 1.368 . S
C984 C980 1.368 . S
C984 C983 1.523 . S
H985 C960 0.950 . S
H986 C962 0.950 . S
H987 C963 0.949 . S
H988 C965 0.950 . S
H989 C967 0.950 . S
C990 C991 1.349 . S
C990 C992 1.327 . S
C990 H1015 0.950 . S
C991 C990 1.349 . S
C991 C1007 1.349 . S
C992 C990 1.327 . S
C992 C1011 1.429 . S
C992 H1016 0.950 . S
C993 C1010 1.574 . S
C993 C1012 1.368 . S
C993 H1017 0.949 . S
H994 C998 0.949 . S
C995 C996 1.349 . S
C995 C997 1.327 . S
C995 H1018 0.950 . S
C996 C995 1.349 . S
C996 C1008 1.349 . S
C997 C995 1.327 . S
C997 C1013 1.429 . S
C997 H1019 0.950 . S
C998 H994 0.949 . S
C998 C1006 1.574 . S
C998 C1014 1.368 . S
H999 C1007 0.950 . S
H1000 C1005 0.950 . S
H1001 C1006 0.949 . S
H1002 C1008 0.950 . S
H1003 C1009 0.950 . S
H1004 C1010 0.949 . S
C1005 H1000 0.950 . S
C1005 C1007 1.327 . S
C1005 C1011 1.429 . S
C1006 C998 1.574 . S
C1006 H1001 0.949 . S
C1006 C1012 1.368 . S
C1007 C991 1.349 . S
C1007 H999 0.950 . S
C1007 C1005 1.327 . S
C1008 C996 1.349 . S
C1008 H1002 0.950 . S
C1008 C1009 1.327 . S
C1009 H1003 0.950 . S
C1009 C1008 1.327 . S
C1009 C1013 1.429 . S
C1010 C993 1.574 . S
C1010 H1004 0.949 . S
C1010 C1014 1.368 . S
C1011 C992 1.429 . S
C1011 C1005 1.429 . S
C1011 C1012 1.523 . S
C1012 C993 1.368 . S
C1012 C1006 1.368 . S
C1012 C1011 1.523 . S
C1013 C997 1.429 . S
C1013 C1009 1.429 . S
C1013 C1014 1.523 . S
C1014 C998 1.368 . S
C1014 C1010 1.368 . S
C1014 C1013 1.523 . S
H1015 C990 0.950 . S
H1016 C992 0.950 . S
H1017 C993 0.949 . S
H1018 C995 0.950 . S
H1019 C997 0.950 . S
C1020 C1021 1.349 . S
C1020 C1022 1.327 . S
C1020 H1045 0.950 . S
C1021 C1020 1.349 . S
C1021 C1037 1.349 . S
C1022 C1020 1.327 . S
C1022 C1041 1.429 . S
C1022 H1046 0.950 . S
C1023 C1040 1.574 1_545 S
C1023 C1042 1.368 . S
C1023 H1047 0.949 . S
H1024 C1028 0.949 . S
C1025 C1026 1.349 . S
C1025 C1027 1.327 . S
C1025 H1048 0.950 . S
C1026 C1025 1.349 . S
C1026 C1038 1.349 . S
C1027 C1025 1.327 . S
C1027 C1043 1.429 . S
C1027 H1049 0.950 . S
C1028 H1024 0.949 . S
C1028 C1036 1.574 1_565 S
C1028 C1044 1.368 . S
H1029 C1037 0.950 . S
H1030 C1035 0.950 . S
H1031 C1036 0.949 . S
H1032 C1038 0.950 . S
H1033 C1039 0.950 . S
H1034 C1040 0.949 . S
C1035 H1030 0.950 . S
C1035 C1037 1.327 . S
C1035 C1041 1.429 . S
C1036 C1028 1.574 1_545 S
C1036 H1031 0.949 . S
C1036 C1042 1.368 . S
C1037 C1021 1.349 . S
C1037 H1029 0.950 . S
C1037 C1035 1.327 . S
C1038 C1026 1.349 . S
C1038 H1032 0.950 . S
C1038 C1039 1.327 . S
C1039 H1033 0.950 . S
C1039 C1038 1.327 . S
C1039 C1043 1.429 . S
C1040 C1023 1.574 1_565 S
C1040 H1034 0.949 . S
C1040 C1044 1.368 . S
C1041 C1022 1.429 . S
C1041 C1035 1.429 . S
C1041 C1042 1.523 . S
C1042 C1023 1.368 . S
C1042 C1036 1.368 . S
C1042 C1041 1.523 . S
C1043 C1027 1.429 . S
C1043 C1039 1.429 . S
C1043 C1044 1.523 . S
C1044 C1028 1.368 . S
C1044 C1040 1.368 . S
C1044 C1043 1.523 . S
H1045 C1020 0.950 . S
H1046 C1022 0.950 . S
H1047 C1023 0.949 . S
H1048 C1025 0.950 . S
H1049 C1027 0.950 . S
C1050 C1051 1.349 1_455 S
C1050 C1052 1.327 . S
C1050 H1075 0.950 . S
C1051 C1050 1.349 1_655 S
C1051 C1067 1.349 . S
C1052 C1050 1.327 . S
C1052 C1071 1.429 . S
C1052 H1076 0.950 . S
C1053 C1070 1.574 . S
C1053 C1072 1.368 . S
C1053 H1077 0.946 . S
H1054 C1058 0.949 . S
C1055 C1056 1.349 . S
C1055 C1057 1.327 . S
C1055 H1078 0.950 . S
C1056 C1055 1.349 . S
C1056 C1068 1.349 . S
C1057 C1055 1.327 . S
C1057 C1073 1.429 . S
C1057 H1079 0.950 . S
C1058 H1054 0.949 . S
C1058 C1066 1.574 . S
C1058 C1074 1.368 . S
H1059 C1067 0.950 . S
H1060 C1065 0.950 . S
H1061 C1066 0.949 . S
H1062 C1068 0.950 . S
H1063 C1069 0.950 . S
H1064 C1070 0.949 . S
C1065 H1060 0.950 . S
C1065 C1067 1.327 . S
C1065 C1071 1.429 1_655 S
C1066 C1058 1.574 . S
C1066 H1061 0.949 . S
C1066 C1072 1.368 . S
C1067 C1051 1.349 . S
C1067 H1059 0.950 . S
C1067 C1065 1.327 . S
C1068 C1056 1.349 . S
C1068 H1062 0.950 . S
C1068 C1069 1.327 . S
C1069 H1063 0.950 . S
C1069 C1068 1.327 . S
C1069 C1073 1.429 . S
C1070 C1053 1.574 . S
C1070 H1064 0.949 . S
C1070 C1074 1.368 . S
C1071 C1052 1.429 . S
C1071 C1065 1.429 1_455 S
C1071 C1072 1.523 . S
C1072 C1053 1.368 . S
C1072 C1066 1.368 . S
C1072 C1071 1.523 . S
C1073 C1057 1.429 . S
C1073 C1069 1.429 . S
C1073 C1074 1.523 . S
C1074 C1058 1.368 . S
C1074 C1070 1.368 . S
C1074 C1073 1.523 . S
H1075 C1050 0.950 . S
H1076 C1052 0.950 . S
H1077 C1053 0.946 . S
H1078 C1055 0.950 . S
H1079 C1057 0.950 . S
C1080 C1081 1.349 . S
C1080 C1082 1.327 . S
C1080 H1105 0.950 . S
C1081 C1080 1.349 . S
C1081 C1097 1.349 . S
C1082 C1080 1.327 . S
C1082 C1101 1.429 . S
C1082 H1106 0.950 . S
C1083 C1100 1.574 . S
C1083 C1102 1.368 . S
C1083 H1107 0.949 . S
H1084 C1088 0.949 . S
C1085 C1086 1.349 . S
C1085 C1087 1.327 . S
C1085 H1108 0.950 . S
C1086 C1085 1.349 . S
C1086 C1098 1.349 . S
C1087 C1085 1.327 . S
C1087 C1103 1.429 . S
C1087 H1109 0.950 . S
C1088 H1084 0.949 . S
C1088 C1096 1.574 . S
C1088 C1104 1.368 . S
H1089 C1097 0.950 . S
H1090 C1095 0.950 . S
H1091 C1096 0.949 . S
H1092 C1098 0.950 . S
H1093 C1099 0.950 . S
H1094 C1100 0.949 . S
C1095 H1090 0.950 . S
C1095 C1097 1.327 . S
C1095 C1101 1.429 . S
C1096 C1088 1.574 . S
C1096 H1091 0.949 . S
C1096 C1102 1.368 . S
C1097 C1081 1.349 . S
C1097 H1089 0.950 . S
C1097 C1095 1.327 . S
C1098 C1086 1.349 . S
C1098 H1092 0.950 . S
C1098 C1099 1.327 . S
C1099 H1093 0.950 . S
C1099 C1098 1.327 . S
C1099 C1103 1.429 . S
C1100 C1083 1.574 . S
C1100 H1094 0.949 . S
C1100 C1104 1.368 . S
C1101 C1082 1.429 . S
C1101 C1095 1.429 . S
C1101 C1102 1.523 . S
C1102 C1083 1.368 . S
C1102 C1096 1.368 . S
C1102 C1101 1.523 . S
C1103 C1087 1.429 . S
C1103 C1099 1.429 . S
C1103 C1104 1.523 . S
C1104 C1088 1.368 . S
C1104 C1100 1.368 . S
C1104 C1103 1.523 . S
H1105 C1080 0.950 . S
H1106 C1082 0.950 . S
H1107 C1083 0.949 . S
H1108 C1085 0.950 . S
H1109 C1087 0.950 . S
C1110 C1111 1.349 . S
C1110 C1112 1.327 . S
C1110 H1135 0.950 . S
C1111 C1110 1.349 . S
C1111 C1127 1.349 . S
C1112 C1110 1.327 . S
C1112 C1131 1.429 . S
C1112 H1136 0.950 . S
C1113 C1130 1.574 1_565 S
C1113 C1132 1.368 . S
C1113 H1137 0.949 . S
H1114 C1118 0.949 . S
C1115 C1116 1.349 . S
C1115 C1117 1.327 . S
C1115 H1138 0.950 . S
C1116 C1115 1.349 . S
C1116 C1128 1.349 . S
C1117 C1115 1.327 . S
C1117 C1133 1.429 . S
C1117 H1139 0.950 . S
C1118 H1114 0.949 . S
C1118 C1126 1.574 1_545 S
C1118 C1134 1.368 . S
H1119 C1127 0.950 . S
H1120 C1125 0.950 . S
H1121 C1126 0.949 . S
H1122 C1128 0.950 . S
H1123 C1129 0.950 . S
H1124 C1130 0.949 . S
C1125 H1120 0.950 . S
C1125 C1127 1.327 . S
C1125 C1131 1.429 . S
C1126 C1118 1.574 1_565 S
C1126 H1121 0.949 . S
C1126 C1132 1.368 . S
C1127 C1111 1.349 . S
C1127 H1119 0.950 . S
C1127 C1125 1.327 . S
C1128 C1116 1.349 . S
C1128 H1122 0.950 . S
C1128 C1129 1.327 . S
C1129 H1123 0.950 . S
C1129 C1128 1.327 . S
C1129 C1133 1.429 . S
C1130 C1113 1.574 1_545 S
C1130 H1124 0.949 . S
C1130 C1134 1.368 . S
C1131 C1112 1.429 . S
C1131 C1125 1.429 . S
C1131 C1132 1.523 . S
C1132 C1113 1.368 . S
C1132 C1126 1.368 . S
C1132 C1131 1.523 . S
C1133 C1117 1.429 . S
C1133 C1129 1.429 . S
C1133 C1134 1.523 . S
C1134 C1118 1.368 . S
C1134 C1130 1.368 . S
C1134 C1133 1.523 . S
H1135 C1110 0.950 . S
H1136 C1112 0.950 . S
H1137 C1113 0.949 . S
H1138 C1115 0.950 . S
H1139 C1117 0.950 . S
C1140 C1141 1.349 . S
C1140 C1142 1.327 1_655 S
C1140 H1165 0.950 . S
C1141 C1140 1.349 . S
C1141 C1157 1.349 1_655 S
C1142 C1140 1.327 1_455 S
C1142 C1161 1.429 . S
C1142 H1166 0.950 . S
C1143 C1160 1.574 . S
C1143 C1162 1.368 . S
C1143 H1167 0.949 . S
H1144 C1148 0.949 . S
C1145 C1146 1.349 . S
C1145 C1147 1.327 . S
C1145 H1168 0.950 . S
C1146 C1145 1.349 . S
C1146 C1158 1.349 . S
C1147 C1145 1.327 . S
C1147 C1163 1.429 . S
C1147 H1169 0.950 . S
C1148 H1144 0.949 . S
C1148 C1156 1.574 . S
C1148 C1164 1.368 . S
H1149 C1157 0.950 . S
H1150 C1155 0.950 . S
H1151 C1156 0.949 . S
H1152 C1158 0.950 . S
H1153 C1159 0.950 . S
H1154 C1160 0.949 . S
C1155 H1150 0.950 . S
C1155 C1157 1.327 . S
C1155 C1161 1.429 . S
C1156 C1148 1.574 . S
C1156 H1151 0.949 . S
C1156 C1162 1.368 . S
C1157 C1141 1.349 1_455 S
C1157 H1149 0.950 . S
C1157 C1155 1.327 . S
C1158 C1146 1.349 . S
C1158 H1152 0.950 . S
C1158 C1159 1.327 . S
C1159 H1153 0.950 . S
C1159 C1158 1.327 . S
C1159 C1163 1.429 . S
C1160 C1143 1.574 . S
C1160 H1154 0.949 . S
C1160 C1164 1.368 . S
C1161 C1142 1.429 . S
C1161 C1155 1.429 . S
C1161 C1162 1.523 . S
C1162 C1143 1.368 . S
C1162 C1156 1.368 . S
C1162 C1161 1.523 . S
C1163 C1147 1.429 . S
C1163 C1159 1.429 . S
C1163 C1164 1.523 . S
C1164 C1148 1.368 . S
C1164 C1160 1.368 . S
C1164 C1163 1.523 . S
H1165 C1140 0.950 . S
H1166 C1142 0.950 . S
H1167 C1143 0.949 . S
H1168 C1145 0.950 . S
H1169 C1147 0.950 . S
C361 C23 0.941 . S
C366 C2 0.941 . S
C391 C42 0.999 . S
C396 C63 0.999 . S
C421 C103 1.065 1_556 S
C426 C82 1.065 . S
C451 C122 0.941 . S
C456 C143 0.941 . S
C481 C183 0.999 . S
C486 C162 0.999 . S
C511 C202 1.065 . S
C516 C223 1.065 . S
C541 C271 0.836 . S
C546 C260 0.836 . S
C571 C300 0.808 . S
C576 C311 0.808 . S
C601 C351 0.923 . S
C606 C340 0.923 . S
C631 C231 1.944 . S
C636 C25 1.952 . S
C661 C71 2.538 . S
C666 C151 2.537 . S
C691 C105 1.449 . S
C696 C185 1.457 . S
C721 C111 1.540 . S
C726 C244 1.590 . S
C751 C303 1.494 . S
C756 C31 1.505 . S
C781 C324 1.282 . S
C786 C65 1.275 . S
C811 C322 1.206 . S
C816 C4 1.217 . S
C841 C60 1.654 . S
C846 C242 1.625 . S
C871 C305 1.578 . S
C876 C84 1.509 . S
C901 C100 1.944 . S
C906 C124 1.952 . S
C931 C180 2.538 . S
C936 C20 2.536 . S
C961 C44 1.457 . S
C966 C204 1.450 . S
C991 C343 1.206 . S
C996 C145 1.217 . S
C1021 C263 1.626 . S
C1026 C191 1.655 . S
C1051 C284 1.579 . S
C1056 C225 1.509 . S
C1081 C265 1.591 . S
C1086 C220 1.541 . S
C1111 C140 1.503 . S
C1116 C282 1.492 . S
C1141 C345 1.283 . S
C1146 C164 1.276 . S
