# Generated by pormake.
# Topology smc, (6)-cn, num edge types: 1
# Building blocks:
#     Node 0, Type 0, BuildingBlock: BETGAK_clean_sbu_0, # of connection points: 6
#     Node 1, Type 0, BuildingBlock: BETGAK_clean_sbu_0, # of connection points: 6
#     Node 2, Type 0, BuildingBlock: BETGAK_clean_sbu_0, # of connection points: 6
#     Node 3, Type 0, BuildingBlock: BETGAK_clean_sbu_0, # of connection points: 6
#     Node 4, Type 0, BuildingBlock: BETGAK_clean_sbu_0, # of connection points: 6
#     Node 5, Type 0, BuildingBlock: BETGAK_clean_sbu_0, # of connection points: 6
#     Node 6, Type 0, BuildingBlock: BETGAK_clean_sbu_0, # of connection points: 6
#     Node 7, Type 0, BuildingBlock: BETGAK_clean_sbu_0, # of connection points: 6
#     Node 8, Type 0, BuildingBlock: BETGAK_clean_sbu_0, # of connection points: 6
#     Edge 9, Type (0, 0), BuildingBlock: UVAHIK_clean_linker_0, # of connection points: 2
#     Edge 10, Type (0, 0), BuildingBlock: UVAHIK_clean_linker_0, # of connection points: 2
#     Edge 11, Type (0, 0), BuildingBlock: UVAHIK_clean_linker_0, # of connection points: 2
#     Edge 12, Type (0, 0), BuildingBlock: UVAHIK_clean_linker_0, # of connection points: 2
#     Edge 13, Type (0, 0), BuildingBlock: UVAHIK_clean_linker_0, # of connection points: 2
#     Edge 14, Type (0, 0), BuildingBlock: UVAHIK_clean_linker_0, # of connection points: 2
#     Edge 15, Type (0, 0), BuildingBlock: UVAHIK_clean_linker_0, # of connection points: 2
#     Edge 16, Type (0, 0), BuildingBlock: UVAHIK_clean_linker_0, # of connection points: 2
#     Edge 17, Type (0, 0), BuildingBlock: UVAHIK_clean_linker_0, # of connection points: 2
#     Edge 18, Type (0, 0), BuildingBlock: UVAHIK_clean_linker_0, # of connection points: 2
#     Edge 19, Type (0, 0), BuildingBlock: UVAHIK_clean_linker_0, # of connection points: 2
#     Edge 20, Type (0, 0), BuildingBlock: UVAHIK_clean_linker_0, # of connection points: 2
#     Edge 21, Type (0, 0), BuildingBlock: UVAHIK_clean_linker_0, # of connection points: 2
#     Edge 22, Type (0, 0), BuildingBlock: UVAHIK_clean_linker_0, # of connection points: 2
#     Edge 23, Type (0, 0), BuildingBlock: UVAHIK_clean_linker_0, # of connection points: 2
#     Edge 24, Type (0, 0), BuildingBlock: UVAHIK_clean_linker_0, # of connection points: 2
#     Edge 25, Type (0, 0), BuildingBlock: UVAHIK_clean_linker_0, # of connection points: 2
#     Edge 26, Type (0, 0), BuildingBlock: UVAHIK_clean_linker_0, # of connection points: 2
#     Edge 27, Type (0, 0), BuildingBlock: UVAHIK_clean_linker_0, # of connection points: 2
#     Edge 28, Type (0, 0), BuildingBlock: UVAHIK_clean_linker_0, # of connection points: 2
#     Edge 29, Type (0, 0), BuildingBlock: UVAHIK_clean_linker_0, # of connection points: 2
#     Edge 30, Type (0, 0), BuildingBlock: UVAHIK_clean_linker_0, # of connection points: 2
#     Edge 31, Type (0, 0), BuildingBlock: UVAHIK_clean_linker_0, # of connection points: 2
#     Edge 32, Type (0, 0), BuildingBlock: UVAHIK_clean_linker_0, # of connection points: 2
#     Edge 33, Type (0, 0), BuildingBlock: UVAHIK_clean_linker_0, # of connection points: 2
#     Edge 34, Type (0, 0), BuildingBlock: UVAHIK_clean_linker_0, # of connection points: 2
#     Edge 35, Type (0, 0), BuildingBlock: UVAHIK_clean_linker_0, # of connection points: 2
# Relax obj value: 0.169
# Max RMSD: 0.297
# Mean RMSD: 0.297
data_MOF--net-smc--node1-BETGAK_clean_sbu_0--edge1-UVAHIK_clean_linker_0
_symmetry_space_group_name_H-M    P1
_symmetry_Int_Tables_number       1
_symmetry_cell_setting            triclinic
loop_
_symmetry_equiv_pos_as_xyz
'x, y, z'
_cell_length_a     48.271578
_cell_length_b     48.229946
_cell_length_c     50.764123
_cell_angle_alpha  89.933971
_cell_angle_beta   90.117181
_cell_angle_gamma 119.89411
loop_
_atom_site_label
_atom_site_type_symbol
_atom_site_fract_x
_atom_site_fract_y
_atom_site_fract_z
_atom_type_partial_charge
La0 La 0.04924 0.48167 1.03067 0.0
La1 La 0.99988 0.40814 0.03604 0.0
C2 C 0.08177 0.54147 0.03603 0.0
C3 C 0.11215 0.5716 1.03142 0.0
C4 C 0.11625 0.59009 1.00878 0.0
C5 C 0.14141 0.62169 1.00723 0.0
C6 C 0.16297 0.63556 1.02834 0.0
C7 C 0.15984 0.61642 0.05031 0.0
C8 C 0.13468 0.58489 0.05187 0.0
C9 C 0.02883 0.4482 0.98666 0.0
C10 C 0.07496 0.43455 1.03017 0.0
C11 C 0.95739 0.35093 1.02752 0.0
C12 C 0.92205 0.33237 1.02983 0.0
C13 C 0.90796 0.31371 0.0524 0.0
C14 C 0.87481 0.29477 0.05441 0.0
C15 C 0.8548 0.2937 0.0338 0.0
C16 C 0.86881 0.31302 1.01148 0.0
C17 C 0.90209 0.33213 1.0095 0.0
C18 C 0.02519 0.43284 0.08259 0.0
C19 C 0.97575 0.45762 0.04317 0.0
O20 O 0.06278 0.52734 1.01593 0.0
O21 O 0.08149 0.52104 0.05329 0.0
O22 O 0.05746 0.47237 0.98986 0.0
O23 O 1.01276 0.44468 1.00717 0.0
O24 O 0.08144 0.46379 0.03622 0.0
O25 O 0.04551 0.41037 1.02539 0.0
O26 O 0.97325 0.36093 0.0496 0.0
O27 O 0.96978 0.37267 1.00908 0.0
O28 O 1.00317 0.40361 0.0787 0.0
O29 O 0.03054 0.4469 0.0607 0.0
O30 O 0.96745 0.42717 0.03989 0.0
O31 O 1.00574 0.48117 0.0425 0.0
H32 H 0.09907 0.58078 0.99281 0.0
H33 H 0.14286 0.63575 0.9901 0.0
H34 H 0.17631 0.62608 0.06673 0.0
H35 H 0.13202 0.57146 0.06972 0.0
H36 H 0.92259 0.31341 0.06848 0.0
H37 H 0.86486 0.28078 0.07214 0.0
H38 H 0.85415 0.31267 0.99516 0.0
H39 H 0.91215 0.34625 0.99184 0.0
La40 La 0.56384 0.57856 1.03002 0.0
La41 La 0.63637 0.60276 0.03694 0.0
C42 C 0.50703 0.56576 1.02966 0.0
C43 C 0.47341 0.55809 1.0296 0.0
C44 C 0.46124 0.56799 1.00873 0.0
C45 C 0.42884 0.55891 1.00795 0.0
C46 C 0.40795 0.53958 1.02795 0.0
C47 C 0.42039 0.52988 0.04885 0.0
C48 C 0.45274 0.53911 0.04969 0.0
C49 C 0.59782 0.58396 0.9873 0.0
C50 C 0.61195 0.65212 0.03621 0.0
C51 C 0.6908 0.61315 1.02373 0.0
C52 C 0.71074 0.59827 1.02886 0.0
C53 C 0.72865 0.60419 0.05216 0.0
C54 C 0.74824 0.59071 0.05587 0.0
C55 C 0.75027 0.57103 0.0364 0.0
C56 C 0.73194 0.56479 1.01335 0.0
C57 C 0.71252 0.57829 1.00962 0.0
C58 C 0.61099 0.59751 0.08395 0.0
C59 C 0.58404 0.52756 0.03907 0.0
O60 O 0.52771 0.58421 1.01186 0.0
O61 O 0.51881 0.5555 0.04814 0.0
O62 O 0.56847 0.56159 0.99049 0.0
O63 O 0.60589 0.60199 1.00685 0.0
O64 O 0.58289 0.62816 0.04086 0.0
O65 O 0.63651 0.64794 1.03044 0.0
O66 O 0.68612 0.62844 0.0431 0.0
O67 O 0.66475 0.59561 1.01001 0.0
O68 O 0.64067 0.60612 0.07966 0.0
O69 O 0.59664 0.59051 0.06194 0.0
O70 O 0.6145 0.55018 0.03694 0.0
O71 O 0.56033 0.53365 0.03958 0.0
H72 H 0.47663 0.58244 0.99284 0.0
H73 H 0.42025 0.56714 0.9917 0.0
H74 H 0.40501 0.51447 0.06433 0.0
H75 H 0.46141 0.53085 0.06588 0.0
H76 H 0.72776 0.6194 0.06742 0.0
H77 H 0.76176 0.59567 0.074 0.0
H78 H 0.73322 0.55014 0.99778 0.0
H79 H 0.69916 0.57338 0.99139 0.0
La80 La 0.46744 0.99486 0.03351 0.0
La81 La 0.44271 0.04372 0.03895 0.0
C82 C 0.49478 0.96233 0.03847 0.0
C83 C 0.49431 0.93209 1.03252 0.0
C84 C 0.51299 0.93096 1.0118 0.0
C85 C 0.51874 0.90538 1.00962 0.0
C86 C 0.50598 0.88038 1.02815 0.0
C87 C 0.48574 0.88063 0.04793 0.0
C88 C 0.48008 0.90625 0.05016 0.0
C89 C 0.4552 0.01618 0.98968 0.0
C90 C 0.39455 0.96865 1.03151 0.0
C91 C 0.42876 0.08677 1.03048 0.0
C92 C 0.44683 0.12224 1.03091 0.0
C93 C 0.45464 0.139 0.05498 0.0
C94 C 0.46953 0.17234 0.05539 0.0
C95 C 0.47699 0.1898 1.03177 0.0
C96 C 0.47007 0.17313 1.00772 0.0
C97 C 0.45511 0.13971 1.0073 0.0
C98 C 0.4406 0.01701 0.0852 0.0
C99 C 0.51642 0.06823 0.04621 0.0
O100 O 0.50046 0.98246 1.01908 0.0
O101 O 0.47401 0.96174 0.05547 0.0
O102 O 0.45067 0.98743 0.99247 0.0
O103 O 0.46735 0.03182 1.01044 0.0
O104 O 0.41732 0.96213 0.0375 0.0
O105 O 0.39956 0.99823 1.02765 0.0
O106 O 0.42519 0.07262 0.05317 0.0
O107 O 0.435 0.0722 1.0116 0.0
O108 O 0.43295 0.03877 0.08134 0.0
O109 O 0.45031 1.01252 0.06349 0.0
O110 O 0.49415 0.07629 0.04246 0.0
O111 O 0.51005 0.03821 0.04625 0.0
H112 H 0.5247 0.95071 0.9981 0.0
H113 H 0.5347 0.9062 0.99429 0.0
H114 H 0.47505 0.86148 0.06226 0.0
H115 H 0.4658 0.90649 0.0665 0.0
H116 H 0.44864 0.12641 0.07362 0.0
H117 H 0.47417 0.18432 0.07426 0.0
H118 H 0.47596 0.18591 0.98917 0.0
H119 H 0.44954 0.1275 0.98848 0.0
La120 La 0.71444 0.81311 0.36341 0.0
La121 La 0.66674 0.74017 0.37134 0.0
C122 C 0.75855 0.86971 0.36394 0.0
C123 C 0.78454 0.90309 0.36413 0.0
C124 C 0.79445 0.92066 0.34064 0.0
C125 C 0.81783 0.95299 0.34109 0.0
C126 C 0.83218 0.9682 0.36502 0.0
C127 C 0.82268 0.95003 0.38839 0.0
C128 C 0.79885 0.91793 0.38796 0.0
C129 C 0.68468 0.7783 0.32132 0.0
C130 C 0.7407 0.76503 0.36746 0.0
C131 C 0.62248 0.68557 0.35882 0.0
C132 C 0.58774 0.66596 0.36383 0.0
C133 C 0.5756 0.64917 0.38755 0.0
C134 C 0.54257 0.62986 0.39114 0.0
C135 C 0.52108 0.62701 0.3711 0.0
C136 C 0.53335 0.64423 0.34761 0.0
C137 C 0.56621 0.66336 0.34401 0.0
C138 C 0.68893 0.76713 0.41768 0.0
C139 C 0.6436 0.79265 0.37383 0.0
O140 O 0.75311 0.85083 0.34368 0.0
O141 O 0.73936 0.85652 0.38409 0.0
O142 O 0.69171 0.8078 0.32427 0.0
O143 O 0.69526 0.77055 0.34074 0.0
O144 O 0.74605 0.79441 0.37099 0.0
O145 O 0.7116 0.73982 0.36415 0.0
O146 O 0.64234 0.69055 0.37838 0.0
O147 O 0.63109 0.71135 0.34467 0.0
O148 O 0.66838 0.73708 0.41419 0.0
O149 O 0.69436 0.78046 0.39531 0.0
O150 O 0.6359 0.76209 0.3722 0.0
O151 O 0.67325 0.81654 0.37345 0.0
H152 H 0.78349 0.90966 0.32202 0.0
H153 H 0.82395 0.96615 0.32273 0.0
H154 H 0.83361 0.9605 0.40712 0.0
H155 H 0.79165 0.90468 0.4063 0.0
H156 H 0.59154 0.65073 0.40325 0.0
H157 H 0.53386 0.61719 0.4096 0.0
H158 H 0.51758 0.64227 0.33162 0.0
H159 H 0.57482 0.67586 0.32545 0.0
La160 La 0.22969 0.90849 0.36669 0.0
La161 La 0.30254 0.93513 0.37204 0.0
C162 C 0.17313 0.89635 0.36612 0.0
C163 C 0.13982 0.8892 0.3658 0.0
C164 C 0.12296 0.88285 0.34199 0.0
C165 C 0.09068 0.87421 0.34198 0.0
C166 C 0.07485 0.87232 0.36578 0.0
C167 C 0.09238 0.87984 0.38947 0.0
C168 C 0.1244 0.88779 0.38948 0.0
C169 C 0.26287 0.91365 0.32341 0.0
C170 C 0.27532 0.98224 0.37195 0.0
C171 C 0.35702 0.94642 0.35807 0.0
C172 C 0.37778 0.93254 0.36271 0.0
C173 C 0.38534 0.92654 0.38809 0.0
C174 C 0.40511 0.91311 0.39122 0.0
C175 C 0.41745 0.90539 0.36905 0.0
C176 C 0.40886 0.91056 0.34381 0.0
C177 C 0.38941 0.92407 0.34072 0.0
C178 C 0.27857 0.93095 0.41975 0.0
C179 C 0.25137 0.85954 0.37781 0.0
O180 O 0.19325 0.91236 0.34719 0.0
O181 O 0.18499 0.88745 0.3855 0.0
O182 O 0.2344 0.89002 0.32782 0.0
O183 O 0.27082 0.93256 0.34237 0.0
O184 O 0.24746 0.9574 0.37807 0.0
O185 O 0.30041 0.97934 0.36504 0.0
O186 O 0.35238 0.96165 0.37749 0.0
O187 O 0.33077 0.92786 0.34499 0.0
O188 O 0.30835 0.94077 0.41465 0.0
O189 O 0.26374 0.92206 0.39796 0.0
O190 O 0.28126 0.8824 0.37293 0.0
O191 O 0.22745 0.86522 0.37933 0.0
H192 H 0.13447 0.88367 0.32347 0.0
H193 H 0.07801 0.86814 0.32337 0.0
H194 H 0.08142 0.87953 0.40812 0.0
H195 H 0.13714 0.89292 0.40804 0.0
H196 H 0.37618 0.93235 0.40542 0.0
H197 H 0.41128 0.90944 0.41094 0.0
H198 H 0.41719 0.90413 0.32631 0.0
H199 H 0.38336 0.92789 0.32098 0.0
La200 La 0.13503 0.33031 0.36296 0.0
La201 La 0.10857 0.37611 0.37093 0.0
C202 C 0.15177 0.2891 0.35804 0.0
C203 C 0.153 0.25938 0.36105 0.0
C204 C 0.14751 0.23999 0.33885 0.0
C205 C 0.15512 0.21562 0.33932 0.0
C206 C 0.1686 0.21029 0.36197 0.0
C207 C 0.17284 0.22889 0.38457 0.0
C208 C 0.16514 0.25324 0.38411 0.0
C209 C 0.13041 0.36094 0.32115 0.0
C210 C 0.06129 0.30203 0.36899 0.0
C211 C 0.09686 0.41964 0.35836 0.0
C212 C 0.11172 0.45446 0.36326 0.0
C213 C 0.10716 0.46672 0.38694 0.0
C214 C 0.12088 0.49982 0.39049 0.0
C215 C 0.13943 0.52126 0.37045 0.0
C216 C 0.14425 0.50886 0.34698 0.0
C217 C 0.13054 0.47594 0.34342 0.0
C218 C 0.11256 0.35447 0.41757 0.0
C219 C 0.18353 0.40041 0.37668 0.0
O220 O 0.13061 0.29026 0.34256 0.0
O221 O 0.16175 0.31017 0.37718 0.0
O222 O 0.15408 0.35612 0.32519 0.0
O223 O 0.11127 0.34881 0.33976 0.0
O224 O 0.08587 0.2977 0.37328 0.0
O225 O 0.06435 0.33055 0.36402 0.0
O226 O 0.08252 0.39978 0.37798 0.0
O227 O 0.11406 0.41123 0.34414 0.0
O228 O 0.10379 0.3755 0.41345 0.0
O229 O 0.12078 0.348 0.39573 0.0
O230 O 0.16093 0.40775 0.37176 0.0
O231 O 0.17751 0.37069 0.37784 0.0
H232 H 0.13872 0.24461 0.32067 0.0
H233 H 0.15113 0.20146 0.3217 0.0
H234 H 0.18355 0.22569 0.40224 0.0
H235 H 0.17016 0.26818 0.40138 0.0
H236 H 0.0929 0.45084 0.40266 0.0
H237 H 0.11702 0.50862 0.40894 0.0
H238 H 0.15798 0.52455 0.33097 0.0
H239 H 0.1344 0.46726 0.32489 0.0
La240 La 0.3814 0.15025 0.69973 0.0
La241 La 0.33355 0.07691 0.70525 0.0
C242 C 0.41314 0.2102 0.70393 0.0
C243 C 0.44394 0.2398 0.69925 0.0
C244 C 0.44814 0.25843 0.6767 0.0
C245 C 0.47384 0.28969 0.675 0.0
C246 C 0.49588 0.30305 0.69584 0.0
C247 C 0.49268 0.28369 0.71767 0.0
C248 C 0.46695 0.25249 0.7194 0.0
C249 C 0.36129 0.11616 0.65597 0.0
C250 C 0.40951 0.10545 0.70049 0.0
C251 C 0.29207 0.01941 0.69668 0.0
C252 C 0.25671 1.00045 0.69761 0.0
C253 C 0.24173 0.98136 0.71979 0.0
C254 C 0.20857 0.96231 0.72087 0.0
C255 C 0.18943 0.96147 0.69965 0.0
C256 C 0.20429 0.98114 0.67766 0.0
C257 C 0.23762 1.00045 0.67664 0.0
C258 C 0.3591 0.1014 0.75192 0.0
C259 C 0.30794 0.1255 0.71215 0.0
O260 O 0.39502 0.19533 0.68358 0.0
O261 O 0.41205 0.19043 0.72221 0.0
O262 O 0.39001 0.14013 0.65921 0.0
O263 O 0.3452 0.11293 0.67635 0.0
O264 O 0.41459 0.13417 0.70655 0.0
O265 O 0.38043 0.08066 0.69517 0.0
O266 O 0.30619 0.03019 0.71933 0.0
O267 O 0.30558 0.04065 0.67794 0.0
O268 O 0.33814 0.07191 0.74758 0.0
O269 O 0.36321 0.11571 0.73018 0.0
O270 O 0.30017 0.09512 0.70907 0.0
O271 O 0.33775 0.1493 0.71134 0.0
H272 H 0.43062 0.24954 0.66096 0.0
H273 H 0.47534 0.30393 0.65798 0.0
H274 H 0.50952 0.29297 0.73387 0.0
H275 H 0.46429 0.23892 0.73716 0.0
H276 H 0.2557 0.9809 0.73634 0.0
H277 H 0.19794 0.94808 0.73837 0.0
H278 H 0.19028 0.98097 0.66092 0.0
H279 H 0.24841 1.01495 0.65929 0.0
La280 La 0.89694 0.24088 0.6948 0.0
La281 La 0.96581 0.26646 0.70714 0.0
C282 C 0.8382 0.22122 0.69002 0.0
C283 C 0.80767 0.22117 0.69249 0.0
C284 C 0.79414 0.22695 0.67011 0.0
C285 C 0.76225 0.21969 0.6702 0.0
C286 C 0.74303 0.2062 0.69262 0.0
C287 C 0.75707 0.20176 0.71539 0.0
C288 C 0.789 0.20915 0.71532 0.0
C289 C 0.93384 0.24341 0.65481 0.0
C290 C 0.94053 0.31561 0.69879 0.0
C291 C 0.02493 0.28628 0.70511 0.0
C292 C 0.04444 0.27035 0.70773 0.0
C293 C 0.06637 0.27843 0.72851 0.0
C294 C 0.08582 0.26453 0.73041 0.0
C295 C 0.08398 0.24235 0.71144 0.0
C296 C 0.06157 0.23387 0.69091 0.0
C297 C 0.04202 0.24758 0.68912 0.0
C298 C 0.93 0.25433 0.7503 0.0
C299 C 0.9188 0.19248 0.70679 0.0
O300 O 0.85942 0.23939 0.67246 0.0
O301 O 0.8509 0.21564 0.7108 0.0
O302 O 0.90489 0.22044 0.65822 0.0
O303 O 0.94009 0.2632 0.67278 0.0
O304 O 0.91128 0.29101 0.69643 0.0
O305 O 0.966 0.3123 0.7031 0.0
O306 O 1.01074 0.28862 0.72629 0.0
O307 O 1.00627 0.27824 0.68446 0.0
O308 O 0.95189 0.24661 0.74664 0.0
O309 O 0.92683 0.26511 0.7285 0.0
O310 O 0.94809 0.21521 0.70091 0.0
O311 O 0.89596 0.19915 0.71096 0.0
H312 H 0.80772 0.23563 0.65205 0.0
H313 H 0.75245 0.22394 0.65244 0.0
H314 H 0.743 0.19104 0.73292 0.0
H315 H 0.79849 0.2038 0.73273 0.0
H316 H 0.06866 0.29572 0.74321 0.0
H317 H 0.10231 0.27122 0.74679 0.0
H318 H 0.05961 0.21721 0.67575 0.0
H319 H 0.02534 0.24059 0.67283 0.0
La320 La 0.80125 0.66416 0.69761 0.0
La321 La 0.7783 0.70999 0.70494 0.0
C322 C 0.82962 0.63227 0.70102 0.0
C323 C 0.82843 0.60113 0.69858 0.0
C324 C 0.84186 0.59505 0.67635 0.0
C325 C 0.84773 0.56946 0.67615 0.0
C326 C 0.84028 0.54926 0.6982 0.0
C327 C 0.82526 0.55439 0.71989 0.0
C328 C 0.81955 0.58012 0.72014 0.0
C329 C 0.79049 0.6867 0.65377 0.0
C330 C 0.72866 0.63509 0.69458 0.0
C331 C 0.75835 0.74931 0.70273 0.0
C332 C 0.77453 0.78485 0.70281 0.0
C333 C 0.78147 0.80183 0.72672 0.0
C334 C 0.79601 0.83521 0.72687 0.0
C335 C 0.80382 0.85251 0.70313 0.0
C336 C 0.79732 0.83559 0.67923 0.0
C337 C 0.78284 0.80219 0.67907 0.0
C338 C 0.78494 0.68526 0.74965 0.0
C339 C 0.85119 0.73672 0.70828 0.0
O340 O 0.82854 0.64666 0.6795 0.0
O341 O 0.81474 0.63667 0.72071 0.0
O342 O 0.78463 0.65756 0.65665 0.0
O343 O 0.8033 0.70229 0.67442 0.0
O344 O 0.75177 0.62862 0.69876 0.0
O345 O 0.73367 0.66493 0.6943 0.0
O346 O 0.76012 0.7358 0.7245 0.0
O347 O 0.76221 0.73556 0.68193 0.0
O348 O 0.79415 0.71515 0.74576 0.0
O349 O 0.77425 0.6709 0.72808 0.0
O350 O 0.8292 0.74395 0.70136 0.0
O351 O 0.84359 0.70677 0.71213 0.0
H352 H 0.84951 0.61112 0.65961 0.0
H353 H 0.8597 0.56665 0.65922 0.0
H354 H 0.81865 0.53902 0.73704 0.0
H355 H 0.8095 0.58433 0.73771 0.0
H356 H 0.77537 0.78932 0.7454 0.0
H357 H 0.80033 0.84738 0.74563 0.0
H358 H 0.80344 0.84819 0.66059 0.0
H359 H 0.77799 0.78994 0.6603 0.0
C360 C 0.35666 0.521 1.00277 0.0
C361 C 0.37323 0.52894 1.02689 0.0
C362 C 0.3238 0.50976 1.002 0.0
C363 C 0.25622 0.50225 0.04318 0.0
H364 H 0.20466 0.43682 0.99208 0.0
C365 C 0.1197 0.43193 0.05082 0.0
C366 C 0.10308 0.43072 1.02777 0.0
C367 C 0.15218 0.44161 0.04984 0.0
C368 C 0.21878 0.45517 1.00638 0.0
H369 H 0.36814 0.53214 0.06908 0.0
H370 H 0.3109 0.51089 0.06794 0.0
H371 H 0.26248 0.45984 0.99206 0.0
H372 H 0.10677 0.43754 0.98556 0.0
H373 H 0.16344 0.45322 0.98356 0.0
H374 H 0.21228 0.49687 0.05786 0.0
C375 C 0.32325 0.51401 0.04945 0.0
C376 C 0.252 0.4686 1.00629 0.0
C377 C 0.35615 0.52573 0.05017 0.0
C378 C 0.11885 0.43716 1.00346 0.0
C379 C 0.15136 0.44657 1.0024 0.0
C380 C 0.223 0.4885 0.04348 0.0
C381 C 0.30653 0.50571 1.02537 0.0
C382 C 0.2712 0.49222 1.02479 0.0
C383 C 0.16861 0.45012 1.02573 0.0
C384 C 0.20391 0.46464 1.02521 0.0
H385 H 0.3689 0.52282 0.98444 0.0
H386 H 0.31198 0.5042 0.98302 0.0
H387 H 0.2701 0.52092 0.0573 0.0
H388 H 0.10815 0.42765 0.06983 0.0
H389 H 0.16474 0.44372 0.0681 0.0
C390 C 0.52228 0.84503 0.05188 0.0
C391 C 0.51575 0.85557 1.02804 0.0
C392 C 0.53345 0.82333 0.05191 0.0
C393 C 0.5742 0.79251 1.00924 0.0
H394 H 0.54823 0.72804 0.06381 0.0
C395 C 0.60894 0.69329 1.00964 0.0
C396 C 0.61432 0.68349 0.03422 0.0
C397 C 0.59878 0.71581 1.00812 0.0
C398 C 0.55609 0.7462 0.04863 0.0
H399 H 0.51514 0.8508 0.98553 0.0
H400 H 0.53451 0.81281 0.98558 0.0
H401 H 0.52478 0.76244 0.06236 0.0
H402 H 0.61447 0.69002 0.07633 0.0
H403 H 0.59798 0.73023 0.07383 0.0
H404 H 0.60541 0.77607 0.99546 0.0
C405 C 0.53145 0.82174 1.00427 0.0
C406 C 0.54256 0.7659 0.04777 0.0
C407 C 0.52027 0.84348 1.00424 0.0
C408 C 0.61113 0.69776 0.05716 0.0
C409 C 0.60109 0.72032 0.05569 0.0
C410 C 0.58769 0.77273 1.01007 0.0
C411 C 0.53843 0.81159 1.0281 0.0
C412 C 0.55167 0.78954 1.02822 0.0
C413 C 0.5937 0.72878 1.03121 0.0
C414 C 0.5791 0.7496 1.02997 0.0
H415 H 0.51976 0.85432 0.07058 0.0
H416 H 0.5391 0.81652 0.07063 0.0
H417 H 0.58208 0.81069 0.99409 0.0
H418 H 0.61002 0.68159 0.99177 0.0
H419 H 0.59294 0.72145 0.98897 0.0
C420 C 0.35692 0.92291 1.00446 0.0
C421 C 0.36292 0.94045 1.02784 0.0
C422 C 0.33336 0.89061 1.0036 0.0
C423 C 0.26529 0.82595 0.04132 0.0
H424 H 0.28746 0.77108 1.0017 0.0
C425 C 0.19345 0.68859 0.0514 0.0
C426 C 0.18714 0.67034 1.02826 0.0
C427 C 0.2149 0.7215 0.05121 0.0
C428 C 0.28071 0.78606 1.01265 0.0
H429 H 0.34888 0.93851 0.06848 0.0
H430 H 0.3079 0.88217 0.06729 0.0
H431 H 0.32305 0.82869 1.00104 0.0
H432 H 0.19907 0.67255 0.98686 0.0
H433 H 0.23585 0.7301 0.98637 0.0
H434 H 0.22317 0.78321 0.05321 0.0
C435 C 0.32062 0.89328 0.0493 0.0
C436 C 0.30109 0.81921 1.01219 0.0
C437 C 0.34398 0.92568 0.05001 0.0
C438 C 0.20312 0.68586 1.00499 0.0
C439 C 0.22451 0.71884 1.00478 0.0
C440 C 0.245 0.7928 0.04186 0.0
C441 C 0.31568 0.87502 1.0263 0.0
C442 C 0.2936 0.83967 1.02643 0.0
C443 C 0.23049 0.73712 1.02786 0.0
C444 C 0.25239 0.77242 1.02749 0.0
H445 H 0.372 0.93358 0.98737 0.0
H446 H 0.32992 0.8776 0.9854 0.0
H447 H 0.25847 0.84083 0.05231 0.0
H448 H 0.18126 0.67763 0.06962 0.0
H449 H 0.21922 0.7347 0.06944 0.0
C450 C 0.51353 0.24421 0.05115 0.0
C451 C 0.49042 0.22507 1.03233 0.0
C452 C 0.5249 0.27713 0.05239 0.0
C453 C 0.50218 0.33705 0.0356 0.0
H454 H 0.59265 0.3982 0.04148 0.0
C455 C 0.54719 0.47131 1.02596 0.0
C456 C 0.57526 0.49354 0.03894 0.0
C457 C 0.53796 0.43895 1.02553 0.0
C458 C 0.56724 0.3816 0.04035 0.0
H459 H 0.4611 0.22566 1.00013 0.0
H460 H 0.48124 0.28308 1.00209 0.0
H461 H 0.57454 0.34122 0.0404 0.0
H462 H 0.61571 0.49947 0.06178 0.0
H463 H 0.59864 0.44248 0.06267 0.0
H464 H 0.4943 0.37667 0.03667 0.0
C465 C 0.49044 0.27255 1.01596 0.0
C466 C 0.55691 0.34885 0.03956 0.0
C467 C 0.47919 0.23971 1.01463 0.0
C468 C 0.59401 0.48277 0.05156 0.0
C469 C 0.58423 0.45006 0.05185 0.0
C470 C 0.51237 0.36965 0.03696 0.0
C471 C 0.51325 0.29158 0.03495 0.0
C472 C 0.52431 0.32628 0.03678 0.0
C473 C 0.55597 0.42759 0.03883 0.0
C474 C 0.54513 0.39258 0.03889 0.0
H475 H 0.52285 0.23374 0.06497 0.0
H476 H 0.54231 0.29116 0.06735 0.0
H477 H 0.47683 0.32018 0.03397 0.0
H478 H 0.53253 0.47903 1.01565 0.0
H479 H 0.51676 0.42301 1.01442 0.0
C480 C 0.57377 0.08534 0.05515 0.0
C481 C 0.55051 0.09347 0.04804 0.0
C482 C 0.60624 0.10815 0.05444 0.0
C483 C 0.66358 0.18465 1.02351 0.0
H484 H 0.7202 0.18694 0.07878 0.0
C485 C 0.79797 0.28096 1.02611 0.0
C486 C 0.81961 0.27166 0.03537 0.0
C487 C 0.76496 0.26015 1.02796 0.0
C488 C 0.70488 0.18642 0.06295 0.0
H489 H 0.54333 0.13211 0.0346 0.0
H490 H 0.60018 0.17215 0.03362 0.0
H491 H 0.66322 0.14924 0.08175 0.0
H492 H 0.8233 0.23261 0.05298 0.0
H493 H 0.76614 0.19642 0.05593 0.0
H494 H 0.70527 0.22133 1.00439 0.0
C495 C 0.59315 0.14798 0.03966 0.0
C496 C 0.67212 0.16482 0.06473 0.0
C497 C 0.56056 0.12514 0.04051 0.0
C498 C 0.80739 0.2409 0.04618 0.0
C499 C 0.77448 0.22009 0.04791 0.0
C500 C 0.69643 0.20612 1.0216 0.0
C501 C 0.61637 0.1397 0.0465 0.0
C502 C 0.65107 0.16356 0.04499 0.0
C503 C 0.75274 0.22945 0.03899 0.0
C504 C 0.71758 0.20718 0.04124 0.0
H505 H 0.56699 0.06112 0.06086 0.0
H506 H 0.62347 0.10082 0.05946 0.0
H507 H 0.64807 0.184 1.00778 0.0
H508 H 0.80652 0.30457 1.01788 0.0
H509 H 0.74905 0.26843 1.02117 0.0
C510 C 0.95944 0.49827 0.05301 0.0
C511 C 0.95078 0.46676 0.04592 0.0
C512 C 0.93675 0.50815 0.05339 0.0
C513 C 0.859 0.48918 1.02532 0.0
H514 H 0.85974 0.5446 0.08093 0.0
C515 C 0.76275 0.52658 1.03101 0.0
C516 C 0.7721 0.55777 0.03953 0.0
C517 C 0.78377 0.51464 0.03271 0.0
C518 C 0.85942 0.5295 0.06502 0.0
H519 H 0.91132 0.42088 0.0338 0.0
H520 H 0.87149 0.43812 0.03471 0.0
H521 H 0.89748 0.52509 0.08237 0.0
H522 H 0.8111 0.6009 0.05643 0.0
H523 H 0.84788 0.5803 0.05917 0.0
H524 H 0.82152 0.49413 1.00759 0.0
C525 C 0.89599 0.45518 0.03984 0.0
C526 C 0.88101 0.51819 0.06593 0.0
C527 C 0.91872 0.44521 0.03959 0.0
C528 C 0.80292 0.5766 0.05007 0.0
C529 C 0.82404 0.56472 0.05164 0.0
C530 C 0.83757 0.50071 1.02428 0.0
C531 C 0.90481 0.48683 0.04661 0.0
C532 C 0.8811 0.49795 0.04607 0.0
C533 C 0.81481 0.5336 0.04288 0.0
C534 C 0.83749 0.52107 0.04411 0.0
H535 H 0.98394 0.51563 0.0579 0.0
H536 H 0.94446 0.5328 0.05832 0.0
H537 H 0.85879 0.47404 1.00949 0.0
H538 H 0.73902 0.51125 1.02313 0.0
H539 H 0.7755 0.49036 1.02625 0.0
C540 C 0.78354 0.75591 0.38489 0.0
C541 C 0.76969 0.76305 0.36358 0.0
C542 C 0.81626 0.76607 0.38475 0.0
C543 C 0.89122 0.82858 0.35415 0.0
H544 H 0.92721 0.77956 0.38414 0.0
C545 C 0.02544 0.86852 0.34517 0.0
C546 C 0.04003 0.8614 0.36611 0.0
C547 C 0.99248 0.85688 0.34512 0.0
C548 C 0.91767 0.79385 0.37603 0.0
H549 H 0.77844 0.78532 0.32517 0.0
H550 H 0.835 0.80165 0.32423 0.0
H551 H 0.86961 0.75681 0.38312 0.0
H552 H 0.03092 0.83649 0.40357 0.0
H553 H 0.97431 0.81816 0.40424 0.0
H554 H 0.93929 0.86576 0.34727 0.0
C555 C 0.82102 0.78874 0.34127 0.0
C556 C 0.88454 0.78068 0.37538 0.0
C557 C 0.78848 0.7787 0.34149 0.0
C558 C 1.02085 0.843 0.38725 0.0
C559 C 0.98809 0.83189 0.38742 0.0
C560 C 0.92439 0.84183 0.35491 0.0
C561 C 0.83557 0.78358 0.36328 0.0
C562 C 0.87087 0.79774 0.36424 0.0
C563 C 0.97334 0.83821 0.36618 0.0
C564 C 0.93806 0.82456 0.36576 0.0
H565 H 0.76971 0.74475 0.40245 0.0
H566 H 0.82673 0.76192 0.40213 0.0
H567 H 0.88155 0.84274 0.34597 0.0
H568 H 0.0394 0.88304 0.32872 0.0
H569 H 0.98198 0.86203 0.32828 0.0
C570 C 0.19526 0.18359 0.33928 0.0
C571 C 0.17971 0.1866 0.3616 0.0
C572 C 0.20677 0.16216 0.33921 0.0
C573 C 0.19878 0.09093 0.37353 0.0
H574 H 0.28254 0.11794 0.34401 0.0
C575 C 0.25947 0.01807 0.39301 0.0
C576 C 0.27591 1.01303 0.37245 0.0
C577 C 0.25022 0.04098 0.39089 0.0
C578 C 0.25896 0.10986 0.35203 0.0
H579 H 0.1637 0.16906 0.40118 0.0
H580 H 0.18454 0.13231 0.40134 0.0
H581 H 0.26022 0.15346 0.34153 0.0
H582 H 0.29576 0.02832 0.33347 0.0
H583 H 0.27901 0.06863 0.32938 0.0
H584 H 0.19722 0.04734 0.38389 0.0
C585 C 0.18741 0.14619 0.38373 0.0
C586 C 0.24615 0.13022 0.35062 0.0
C587 C 0.17579 0.16753 0.38377 0.0
C588 C 0.28413 0.03251 0.34998 0.0
C589 C 0.2742 0.05529 0.34759 0.0
C590 C 0.21147 0.07057 0.37481 0.0
C591 C 0.20315 0.14335 0.36148 0.0
C592 C 0.21611 0.12116 0.36171 0.0
C593 C 0.25615 0.05894 0.36773 0.0
C594 C 0.24202 0.08002 0.36456 0.0
H595 H 0.19911 0.19825 0.32199 0.0
H596 H 0.21845 0.16029 0.32165 0.0
H597 H 0.17527 0.0829 0.38172 0.0
H598 H 0.2516 1.00267 0.41013 0.0
H599 H 0.23713 0.04359 0.40709 0.0
C600 C 0.0247 0.25482 0.34324 0.0
C601 C 0.03052 0.27267 0.36642 0.0
C602 C 1.00193 0.22234 0.34285 0.0
C603 C 0.93343 0.15845 0.37883 0.0
H604 H 0.96013 0.10346 0.34517 0.0
C605 C 0.85785 0.02172 0.38762 0.0
C606 C 0.85614 1.003 0.36577 0.0
C607 C 0.87972 0.05444 0.38819 0.0
C608 C 0.95201 0.1184 0.35433 0.0
H609 H 1.01734 0.27118 0.40727 0.0
H610 H 0.97681 0.21435 0.40662 0.0
H611 H 0.9953 0.16112 0.34443 0.0
H612 H 0.87696 1.00441 0.32754 0.0
H613 H 0.91334 0.06168 0.32772 0.0
H614 H 0.88995 0.11602 0.38834 0.0
C615 C 0.98943 0.22548 0.38858 0.0
C616 C 0.97225 0.15152 0.35393 0.0
C617 C 1.01234 0.25803 0.38894 0.0
C618 C 0.87705 0.018 0.34453 0.0
C619 C 0.89844 0.0509 0.34485 0.0
C620 C 0.91305 0.12537 0.379 0.0
C621 C 0.9847 0.2071 0.36574 0.0
C622 C 0.96311 0.17192 0.3661 0.0
C623 C 0.89998 0.06961 0.36665 0.0
C624 C 0.92202 0.10486 0.36674 0.0
H625 H 0.03932 0.2655 0.32592 0.0
H626 H 0.99861 0.20893 0.32488 0.0
H627 H 0.92563 0.17353 0.38822 0.0
H628 H 0.8419 1.01135 0.40422 0.0
H629 H 0.88059 0.0678 0.40559 0.0
C630 C 0.21283 0.8027 0.3893 0.0
C631 C 0.2433 0.8257 0.38021 0.0
C632 C 0.20353 0.77032 0.38957 0.0
C633 C 0.22071 0.71165 0.35858 0.0
H634 H 0.16991 0.6576 0.41631 0.0
C635 C 0.18359 0.57794 0.36369 0.0
C636 C 0.15301 0.55639 0.37347 0.0
C637 C 0.19576 0.61093 0.36534 0.0
C638 C 0.18372 0.67221 0.39985 0.0
H639 H 0.28805 0.83259 0.3646 0.0
H640 H 0.27186 0.77571 0.36537 0.0
H641 H 0.18959 0.71481 0.41799 0.0
H642 H 0.11118 0.55279 0.39253 0.0
H643 H 0.1322 0.61022 0.39526 0.0
H644 H 0.21433 0.66902 0.34016 0.0
C645 C 0.25512 0.78293 0.37207 0.0
C646 C 0.19513 0.70509 0.40087 0.0
C647 C 0.26452 0.81552 0.37187 0.0
C648 C 0.13503 0.56868 0.38519 0.0
C649 C 0.14714 0.6017 0.38675 0.0
C650 C 0.20914 0.6787 0.35748 0.0
C651 C 0.22442 0.75996 0.38078 0.0
C652 C 0.21365 0.72521 0.38021 0.0
C653 C 0.17763 0.62329 0.37675 0.0
C654 C 0.19038 0.65849 0.37807 0.0
H655 H 0.19577 0.80958 0.39587 0.0
H656 H 0.17957 0.75331 0.39603 0.0
H657 H 0.23447 0.72638 0.34214 0.0
H658 H 0.1983 0.56933 0.35487 0.0
H659 H 0.21955 0.62673 0.35788 0.0
C660 C 0.24034 0.41821 0.38812 0.0
C661 C 0.21734 0.42595 0.37933 0.0
C662 C 0.27269 0.44126 0.38863 0.0
C663 C 0.33118 0.51765 0.35856 0.0
H664 H 0.38504 0.52038 0.41644 0.0
C665 C 0.46438 0.61451 0.36451 0.0
C666 C 0.48605 0.60543 0.37413 0.0
C667 C 0.43146 0.59361 0.36609 0.0
C668 C 0.37048 0.51973 0.39994 0.0
H669 H 0.21041 0.46418 0.3644 0.0
H670 H 0.26716 0.50474 0.36555 0.0
H671 H 0.32793 0.48256 0.41768 0.0
H672 H 0.48996 0.5671 0.39287 0.0
H673 H 0.43264 0.53056 0.39544 0.0
H674 H 0.37374 0.55429 0.34051 0.0
C675 C 0.25999 0.48064 0.37188 0.0
C676 C 0.33767 0.49809 0.40072 0.0
C677 C 0.22747 0.45751 0.37146 0.0
C678 C 0.47396 0.57507 0.38565 0.0
C679 C 0.44101 0.55409 0.38712 0.0
C680 C 0.36405 0.53917 0.35769 0.0
C681 C 0.28297 0.4727 0.38034 0.0
C682 C 0.31764 0.49671 0.38 0.0
C683 C 0.4193 0.56302 0.37725 0.0
C684 C 0.38418 0.54044 0.37834 0.0
H685 H 0.23348 0.39411 0.39426 0.0
H686 H 0.28974 0.43419 0.3949 0.0
H687 H 0.31651 0.51684 0.34209 0.0
H688 H 0.47287 0.6379 0.35584 0.0
H689 H 0.41555 0.60162 0.35873 0.0
C690 C 0.43531 0.86984 0.39091 0.0
C691 C 0.43998 0.89293 0.3718 0.0
C692 C 0.45635 0.85779 0.39266 0.0
C693 C 0.53838 0.87798 0.37575 0.0
H694 H 0.50674 0.78683 0.38039 0.0
C695 C 0.62376 0.82933 0.36109 0.0
C696 C 0.61835 0.80144 0.37423 0.0
C697 C 0.6011 0.83915 0.36167 0.0
C698 C 0.51615 0.8124 0.37958 0.0
H699 H 0.47093 0.92198 0.34004 0.0
H700 H 0.5071 0.90075 0.34288 0.0
H701 H 0.46914 0.80672 0.38074 0.0
H702 H 0.58487 0.76175 0.39819 0.0
H703 H 0.54564 0.77978 0.40059 0.0
H704 H 0.58523 0.88422 0.37542 0.0
C705 C 0.4873 0.89199 0.35656 0.0
C706 C 0.49449 0.82376 0.37967 0.0
C707 C 0.46632 0.90391 0.35476 0.0
C708 C 0.58954 0.7833 0.38784 0.0
C709 C 0.56703 0.79364 0.38904 0.0
C710 C 0.56001 0.86676 0.37613 0.0
C711 C 0.48261 0.86883 0.37552 0.0
C712 C 0.50539 0.85664 0.37729 0.0
C713 C 0.57262 0.82191 0.3761 0.0
C714 C 0.54927 0.83373 0.3775 0.0
H715 H 0.41515 0.86073 0.40422 0.0
H716 H 0.45229 0.8401 0.40759 0.0
H717 H 0.54757 0.90352 0.37438 0.0
H718 H 0.64556 0.84353 0.35003 0.0
H719 H 0.60604 0.86028 0.35056 0.0
C720 C 0.68994 0.18083 0.66911 0.0
C721 C 0.70819 0.1953 0.69188 0.0
C722 C 0.65703 0.16951 0.66872 0.0
C723 C 0.59339 0.17615 0.70427 0.0
H724 H 0.53649 0.09584 0.66946 0.0
C725 C 0.45981 0.11644 0.72161 0.0
C726 C 0.43877 0.10301 0.70021 0.0
C727 C 0.49168 0.1246 0.71964 0.0
C728 C 0.55206 0.11845 0.67902 0.0
H729 H 0.70587 0.20948 0.73198 0.0
H730 H 0.64852 0.18882 0.73162 0.0
H731 H 0.5942 0.1173 0.66774 0.0
H732 H 0.43487 0.08766 0.65969 0.0
H733 H 0.49146 0.10259 0.65586 0.0
H734 H 0.55155 0.17749 0.71554 0.0
C735 C 0.65971 0.18671 0.71385 0.0
C736 C 0.58519 0.13082 0.67803 0.0
C737 C 0.69262 0.19823 0.71418 0.0
C738 C 0.45022 0.0968 0.67683 0.0
C739 C 0.4827 0.1057 0.67461 0.0
C740 C 0.56041 0.16385 0.70522 0.0
C741 C 0.64143 0.17215 0.69113 0.0
C742 C 0.60626 0.15961 0.69098 0.0
C743 C 0.50401 0.1208 0.69579 0.0
C744 C 0.53922 0.13452 0.69306 0.0
H745 H 0.70093 0.17765 0.65167 0.0
H746 H 0.64385 0.15879 0.65078 0.0
H747 H 0.60881 0.19877 0.71388 0.0
H748 H 0.4524 0.12317 0.73941 0.0
H749 H 0.50704 0.13545 0.73656 0.0
C750 C 0.93291 0.35544 0.6746 0.0
C751 C 0.94288 0.34707 0.69774 0.0
C752 C 0.92398 0.37884 0.67501 0.0
C753 C 0.92468 0.44346 0.71543 0.0
H754 H 0.84968 0.42337 0.67356 0.0
C755 C 0.86157 0.5183 0.72265 0.0
C756 C 0.85002 0.52438 0.69913 0.0
C757 C 0.87246 0.49633 0.72321 0.0
C758 C 0.87086 0.42961 0.68514 0.0
H759 H 0.95171 0.35653 0.73942 0.0
H760 H 0.93623 0.39777 0.74032 0.0
H761 H 0.87143 0.38756 0.67288 0.0
H762 H 0.84032 0.51134 0.65786 0.0
H763 H 0.86047 0.47417 0.65858 0.0
H764 H 0.92407 0.48556 0.72768 0.0
C765 C 0.93601 0.38685 0.72165 0.0
C766 C 0.88342 0.40905 0.68472 0.0
C767 C 0.94524 0.36351 0.72114 0.0
C768 C 0.84936 0.50761 0.67627 0.0
C769 C 0.86055 0.48589 0.67677 0.0
C770 C 0.91212 0.46408 0.71582 0.0
C771 C 0.92426 0.39404 0.69872 0.0
C772 C 0.91072 0.41586 0.69964 0.0
C773 C 0.87241 0.48006 0.70022 0.0
C774 C 0.88518 0.45756 0.70052 0.0
H775 H 0.93007 0.34237 0.65649 0.0
H776 H 0.91569 0.38414 0.65687 0.0
H777 H 0.94579 0.44957 0.72706 0.0
H778 H 0.86296 0.53106 0.74058 0.0
H779 H 0.88096 0.49215 0.74172 0.0
C780 C 0.68913 0.58927 0.66875 0.0
C781 C 0.69668 0.60719 0.69202 0.0
C782 C 0.66542 0.55705 0.66865 0.0
C783 C 0.59962 0.49311 0.70842 0.0
H784 H 0.62038 0.43787 0.66777 0.0
C785 C 0.5276 0.35586 0.71891 0.0
C786 C 0.52054 0.33761 0.6957 0.0
C787 C 0.54926 0.3887 0.71861 0.0
C788 C 0.61402 0.45294 0.67902 0.0
H789 H 0.68537 0.60604 0.73332 0.0
H790 H 0.64393 0.54977 0.73338 0.0
H791 H 0.65582 0.49545 0.66644 0.0
H792 H 0.53144 0.3397 0.65407 0.0
H793 H 0.56851 0.39712 0.65338 0.0
H794 H 0.55796 0.45048 0.7212 0.0
C795 C 0.65556 0.56058 0.71494 0.0
C796 C 0.63431 0.48606 0.67819 0.0
C797 C 0.6791 0.59293 0.71492 0.0
C798 C 0.53606 0.35302 0.67226 0.0
C799 C 0.55762 0.38593 0.67193 0.0
C800 C 0.57937 0.45997 0.7093 0.0
C801 C 0.64918 0.54194 0.69199 0.0
C802 C 0.62728 0.50664 0.69274 0.0
C803 C 0.56428 0.40423 0.69507 0.0
C804 C 0.58624 0.43947 0.69453 0.0
H805 H 0.70318 0.59957 0.65111 0.0
H806 H 0.6608 0.54368 0.65049 0.0
H807 H 0.59326 0.50813 0.71973 0.0
H808 H 0.51577 0.34497 0.73727 0.0
H809 H 0.55415 0.40193 0.73688 0.0
C810 C 0.80695 0.90261 0.68518 0.0
C811 C 0.81763 0.8879 0.70332 0.0
C812 C 0.81892 0.93564 0.68588 0.0
C813 C 0.88693 1.0118 0.70801 0.0
H814 H 0.82629 0.04207 0.70443 0.0
C815 C 0.9285 0.14715 0.71766 0.0
C816 C 0.90971 0.15842 0.70594 0.0
C817 C 0.9179 0.11425 0.71806 0.0
C818 C 0.84387 0.03441 0.70484 0.0
H819 H 0.84986 0.89669 0.73612 0.0
H820 H 0.87071 0.95445 0.73734 0.0
H821 H 0.80723 0.98522 0.70275 0.0
H822 H 0.86608 0.14476 0.68431 0.0
H823 H 0.84891 0.08837 0.68293 0.0
H824 H 0.92376 0.06076 0.70892 0.0
C825 C 0.85308 0.9403 0.72255 0.0
C826 C 0.83274 1.00156 0.70411 0.0
C827 C 0.84092 0.90718 0.72199 0.0
C828 C 0.88083 0.13656 0.69381 0.0
C829 C 0.87079 0.10399 0.69338 0.0
C830 C 0.89821 0.04478 0.7081 0.0
C831 C 0.84203 0.95485 0.70462 0.0
C832 C 0.85411 0.98986 0.70565 0.0
C833 C 0.88874 0.09204 0.70597 0.0
C834 C 0.87688 0.05672 0.70641 0.0
H835 H 0.78879 0.88851 0.67074 0.0
H836 H 0.81014 0.9462 0.67166 0.0
H837 H 0.90401 1.00348 0.7091 0.0
H838 H 0.95078 0.16362 0.72729 0.0
H839 H 0.93237 0.10637 0.72838 0.0
C840 C 0.89558 0.79296 0.70076 0.0
C841 C 0.8853 0.76169 0.70953 0.0
C842 C 0.92817 0.81571 0.70021 0.0
C843 C 1.00625 0.83326 0.72795 0.0
H844 H 0.04108 0.88836 0.66693 0.0
C845 C 0.14176 0.90855 0.71115 0.0
C846 C 0.15425 0.93936 0.70036 0.0
C847 C 0.10884 0.88779 0.71239 0.0
C848 C 0.03173 0.87351 0.6843 0.0
H849 H 0.90121 0.72982 0.72476 0.0
H850 H 0.95774 0.76931 0.72371 0.0
H851 H 0.98384 0.85094 0.66943 0.0
H852 H 0.14168 0.97236 0.68227 0.0
H853 H 0.0841 0.93617 0.68457 0.0
H854 H 0.05395 0.85576 0.74294 0.0
C855 C 0.94072 0.77646 0.71755 0.0
C856 C 0.99888 0.85202 0.68572 0.0
C857 C 0.90824 0.75376 0.71804 0.0
C858 C 0.1329 0.94872 0.6905 0.0
C859 C 0.09986 0.92792 0.69181 0.0
C860 C 0.03903 0.85482 0.72661 0.0
C861 C 0.95111 0.80767 0.70852 0.0
C862 C 0.9858 0.83147 0.70746 0.0
C863 C 0.0874 0.89723 0.70292 0.0
C864 C 0.05227 0.87505 0.70466 0.0
H865 H 0.87853 0.79975 0.69389 0.0
H866 H 0.9354 0.83964 0.69335 0.0
H867 H 0.99689 0.81813 0.74518 0.0
H868 H 0.15747 0.90023 0.71839 0.0
H869 H 0.10024 0.86411 0.7205 0.0
C870 C 0.29163 0.16624 0.72157 0.0
C871 C 0.28281 0.13454 0.71492 0.0
C872 C 0.26907 0.17626 0.722 0.0
C873 C 0.18974 0.15654 0.69609 0.0
H874 H 0.19511 0.2158 0.75011 0.0
C875 C 0.09528 0.19692 0.70505 0.0
C876 C 0.10585 0.22874 0.71263 0.0
C877 C 0.11602 0.18447 0.7057 0.0
C878 C 0.19344 0.19959 0.73464 0.0
H879 H 0.24305 0.08851 0.70359 0.0
H880 H 0.20328 0.10595 0.70477 0.0
H881 H 0.23213 0.19547 0.75091 0.0
H882 H 0.14708 0.2725 0.7263 0.0
H883 H 0.18306 0.25097 0.7274 0.0
H884 H 0.15133 0.16104 0.67959 0.0
C885 C 0.2279 0.12309 0.70945 0.0
C886 C 0.21468 0.18782 0.73516 0.0
C887 C 0.2506 0.11297 0.70905 0.0
C888 C 0.13778 0.24772 0.72084 0.0
C889 C 0.15852 0.23531 0.72146 0.0
C890 C 0.16854 0.16844 0.69549 0.0
C891 C 0.23691 0.15492 0.71585 0.0
C892 C 0.21325 0.16626 0.71582 0.0
C893 C 0.14796 0.20348 0.71393 0.0
C894 C 0.17018 0.19028 0.71471 0.0
H895 H 0.31622 0.18369 0.72609 0.0
H896 H 0.27707 0.20106 0.72657 0.0
H897 H 0.18824 0.14036 0.68065 0.0
H898 H 0.07078 0.18136 0.69894 0.0
H899 H 0.10679 0.15974 0.70014 0.0
C900 C 0.14571 0.38676 0.2764 0.0
C901 C 0.12356 0.37372 0.29703 0.0
C902 C 0.13796 0.39746 0.25329 0.0
C903 C 0.0671 0.38729 0.21599 0.0
H904 H 0.12857 0.46278 0.17792 0.0
C905 C 0.02433 0.433 0.13074 0.0
C906 C 0.04275 0.44297 0.10772 0.0
C907 C 0.037 0.42906 0.15422 0.0
C908 C 0.11116 0.44149 0.18817 0.0
H909 H 0.07609 0.36195 0.30985 0.0
H910 H 0.06303 0.38138 0.27032 0.0
H911 H 0.14507 0.44638 0.21782 0.0
H912 H 0.08964 0.45871 0.09156 0.0
H913 H 0.11207 0.45128 0.13267 0.0
H914 H 0.0333 0.38186 0.18649 0.0
C915 C 0.08612 0.38283 0.27146 0.0
C916 C 0.12064 0.43205 0.21107 0.0
C917 C 0.09375 0.37196 0.29431 0.0
C918 C 0.07509 0.45144 0.10915 0.0
C919 C 0.08779 0.44693 0.13271 0.0
C920 C 0.05769 0.39662 0.1932 0.0
C921 C 0.10788 0.39529 0.25042 0.0
C922 C 0.09858 0.40505 0.22548 0.0
C923 C 0.06836 0.43426 0.15525 0.0
C924 C 0.07937 0.42418 0.17914 0.0
H925 H 0.16882 0.38832 0.27799 0.0
H926 H 0.15522 0.40667 0.23744 0.0
H927 H 0.04961 0.36583 0.22602 0.0
H928 H 0.99917 0.42574 0.13006 0.0
H929 H 1.02151 0.4203 0.17126 0.0
C930 C 0.65972 0.76767 0.27607 0.0
C931 C 0.6718 0.7583 0.29735 0.0
C932 C 0.64886 0.74878 0.25321 0.0
C933 C 0.65739 0.68611 0.21762 0.0
H934 H 0.58296 0.67338 0.17838 0.0
C935 C 0.6121 0.59752 0.13225 0.0
C936 C 0.6016 0.60556 0.10923 0.0
C937 C 0.61625 0.61436 0.15563 0.0
C938 C 0.60398 0.67688 0.18892 0.0
H939 H 0.68166 0.72162 0.3115 0.0
H940 H 0.66225 0.68861 0.27228 0.0
H941 H 0.59951 0.70685 0.21787 0.0
H942 H 0.58537 0.63649 0.09308 0.0
H943 H 0.5933 0.66674 0.13384 0.0
H944 H 0.6626 0.65702 0.18875 0.0
C945 C 0.66155 0.7107 0.2728 0.0
C946 C 0.61349 0.69613 0.21162 0.0
C947 C 0.67244 0.72954 0.29546 0.0
C948 C 0.59303 0.62942 0.11061 0.0
C949 C 0.59782 0.6469 0.13403 0.0
C950 C 0.64806 0.66713 0.19498 0.0
C951 C 0.64999 0.72021 0.25116 0.0
C952 C 0.64011 0.70066 0.22647 0.0
C953 C 0.61085 0.64045 0.15659 0.0
C954 C 0.62089 0.6617 0.18044 0.0
H955 H 0.65897 0.78972 0.27699 0.0
H956 H 0.64034 0.75699 0.23689 0.0
H957 H 0.67853 0.68968 0.22803 0.0
H958 H 0.61945 0.57965 0.13165 0.0
H959 H 0.62522 0.60775 0.17266 0.0
C960 C 0.44229 0.0161 0.13335 0.0
C961 C 0.43231 0.99853 0.10987 0.0
C962 C 0.42554 1.00358 0.15677 0.0
C963 C 0.36058 0.93066 0.18954 0.0
H964 H 0.35208 0.99445 0.22951 0.0
C965 C 0.27256 0.89824 0.27824 0.0
C966 C 0.28228 0.92016 0.29915 0.0
C967 C 0.29097 0.90573 0.25515 0.0
C968 C 0.35448 0.97627 0.21894 0.0
H969 H 0.39771 0.95335 0.09268 0.0
H970 H 0.36793 0.93118 0.1337 0.0
H971 H 0.38446 1.01013 0.19013 0.0
H972 H 0.31917 0.96691 0.31242 0.0
H973 H 0.35161 0.97932 0.27312 0.0
H974 H 0.33018 0.89675 0.21853 0.0
C975 C 0.38919 0.95456 0.13417 0.0
C976 C 0.37322 0.98533 0.19619 0.0
C977 C 0.40642 0.96708 0.11065 0.0
C978 C 0.31095 0.94942 0.29668 0.0
C979 C 0.32945 0.95671 0.27391 0.0
C980 C 0.34176 0.92155 0.21245 0.0
C981 C 0.39778 0.97329 0.15729 0.0
C982 C 0.37697 0.9628 0.1813 0.0
C983 C 0.31955 0.93526 0.25256 0.0
C984 C 0.33874 0.94433 0.22765 0.0
H985 H 0.46167 0.04068 0.13315 0.0
H986 H 0.43352 0.01847 0.17421 0.0
H987 H 0.36282 0.9126 0.17863 0.0
H988 H 0.25056 0.87553 0.27959 0.0
H989 H 0.28236 0.88867 0.23912 0.0
C990 C 0.42681 1.00753 0.94665 0.0
C991 C 0.44758 0.02869 0.96574 0.0
C992 C 0.41976 0.01912 0.92381 0.0
C993 C 0.42537 0.09287 0.89385 0.0
H994 H 0.41017 0.04389 0.82974 0.0
C995 C 0.37498 0.11861 0.79824 0.0
C996 C 0.3816 0.10929 0.774 0.0
C997 C 0.38659 0.11287 0.82183 0.0
C998 C 0.41494 0.0584 0.84723 0.0
H999 H 0.47787 0.07866 0.97573 0.0
H1000 H 0.466 0.09905 0.9358 0.0
H1001 H 0.4235 0.02603 0.86974 0.0
H1002 H 0.4044 0.08547 0.75572 0.0
H1003 H 0.42821 0.07942 0.79576 0.0
H1004 H 0.41823 0.12607 0.87087 0.0
C1005 C 0.45441 0.07342 0.93859 0.0
C1006 C 0.42193 0.04764 0.87052 0.0
C1007 C 0.46132 0.06175 0.96151 0.0
C1008 C 0.40121 0.09548 0.77374 0.0
C1009 C 0.41359 0.09059 0.79706 0.0
C1010 C 0.41888 0.10397 0.87037 0.0
C1011 C 0.43366 0.05226 0.91927 0.0
C1012 C 0.42695 0.06448 0.89429 0.0
C1013 C 0.40522 0.09774 0.82163 0.0
C1014 C 0.41346 0.08686 0.84667 0.0
H1015 H 0.41578 0.98191 0.94944 0.0
H1016 H 0.40314 1.00193 0.90982 0.0
H1017 H 0.42869 0.10642 0.91172 0.0
H1018 H 0.35845 0.12762 0.79918 0.0
H1019 H 0.379 0.11825 0.84023 0.0
C1020 C 0.03829 0.43101 0.94268 0.0
C1021 C 1.01693 0.42832 0.96248 0.0
C1022 C 0.02733 0.4124 0.91979 0.0
C1023 C 0.95057 0.35337 0.88393 0.0
H1024 H 1.01128 0.34327 0.84113 0.0
C1025 C 0.91653 0.26167 0.79694 0.0
C1026 C 0.93484 0.27407 0.77403 0.0
C1027 C 0.92448 0.28041 0.81994 0.0
C1028 C 0.994 0.34591 0.85285 0.0
H1029 H 0.96691 0.40543 0.97296 0.0
H1030 H 0.94808 0.37006 0.9353 0.0
H1031 H 0.02923 0.37417 0.88112 0.0
H1032 H 0.97537 0.31572 0.75695 0.0
H1033 H 0.98929 0.34803 0.79684 0.0
H1034 H 0.91508 0.32295 0.85576 0.0
C1035 C 0.97332 0.38718 0.93638 0.0
C1036 C 1.00436 0.36416 0.87592 0.0
C1037 C 0.98423 0.40691 0.95869 0.0
C1038 C 0.9607 0.30561 0.77432 0.0
C1039 C 0.96885 0.32405 0.79722 0.0
C1040 C 0.94008 0.33425 0.86122 0.0
C1041 C 0.99463 0.38954 0.91628 0.0
C1042 C 0.98302 0.36879 0.89185 0.0
C1043 C 0.9512 0.31154 0.82045 0.0
C1044 C 0.96175 0.33067 0.84523 0.0
H1045 H 0.06362 0.44776 0.94476 0.0
H1046 H 0.04489 0.41657 0.90486 0.0
H1047 H 0.93298 0.35629 0.89478 0.0
H1048 H 0.89665 0.23739 0.79722 0.0
H1049 H 0.91048 0.27014 0.83759 0.0
C1050 C 0.74365 0.63919 0.77627 0.0
C1051 C 0.76979 0.67055 0.77513 0.0
C1052 C 0.72524 0.62785 0.79925 0.0
C1053 C 0.70751 0.6588 0.86053 0.0
H1054 H 0.66676 0.57027 0.88292 0.0
C1055 C 0.64628 0.62033 0.96134 0.0
C1056 C 0.6174 0.59118 0.96318 0.0
C1057 C 0.66473 0.62839 0.9385 0.0
C1058 C 0.67771 0.59502 0.87681 0.0
H1059 H 0.79809 0.71387 0.79757 0.0
H1060 H 0.76722 0.69381 0.83784 0.0
H1061 H 0.69954 0.58691 0.84322 0.0
H1062 H 0.58535 0.54742 0.94264 0.0
H1063 H 0.61738 0.56172 0.90224 0.0
H1064 H 0.68587 0.66702 0.89402 0.0
C1065 C 0.76004 0.6782 0.82084 0.0
C1066 C 0.69655 0.60461 0.85398 0.0
C1067 C 0.77815 0.6896 0.79785 0.0
C1068 C 0.6075 0.57004 0.94173 0.0
C1069 C 0.62599 0.57818 0.91869 0.0
C1070 C 0.68885 0.64928 0.88331 0.0
C1071 C 0.73279 0.6475 0.8217 0.0
C1072 C 0.71201 0.63674 0.84566 0.0
C1073 C 0.65469 0.60766 0.91669 0.0
C1074 C 0.67389 0.61732 0.89192 0.0
H1075 H 0.73645 0.62397 0.75902 0.0
H1076 H 0.70435 0.60419 0.79899 0.0
H1077 H 0.71812 0.68355 0.85445 0.0
H1078 H 0.65459 0.63719 0.97754 0.0
H1079 H 0.68696 0.65097 0.93799 0.0
C1080 C 0.69466 0.77519 0.46571 0.0
C1081 C 0.70932 0.77729 0.44139 0.0
C1082 C 0.70739 0.77068 0.48907 0.0
C1083 C 0.75489 0.73452 0.51162 0.0
H1084 H 0.74996 0.76857 0.5795 0.0
C1085 C 0.76613 0.67887 0.60899 0.0
C1086 C 0.78293 0.69943 0.62993 0.0
C1087 C 0.75895 0.69057 0.5863 0.0
C1088 C 0.75183 0.75903 0.56071 0.0
H1089 H 0.74939 0.77717 0.4226 0.0
H1090 H 0.77202 0.76967 0.46331 0.0
H1091 H 0.73689 0.7878 0.53953 0.0
H1092 H 0.80554 0.7485 0.64355 0.0
H1093 H 0.79294 0.76904 0.60397 0.0
H1094 H 0.77004 0.7059 0.5327 0.0
C1095 C 0.75068 0.77167 0.46442 0.0
C1096 C 0.74403 0.76987 0.53777 0.0
C1097 C 0.73811 0.77666 0.44109 0.0
C1098 C 0.79231 0.73201 0.6278 0.0
C1099 C 0.78501 0.74374 0.60511 0.0
C1100 C 0.76267 0.72367 0.53454 0.0
C1101 C 0.73487 0.76758 0.48863 0.0
C1102 C 0.74529 0.75767 0.51291 0.0
C1103 C 0.7684 0.7232 0.58394 0.0
C1104 C 0.76102 0.73558 0.55945 0.0
H1105 H 0.67182 0.77436 0.46641 0.0
H1106 H 0.69428 0.76725 0.5072 0.0
H1107 H 0.75567 0.72414 0.49291 0.0
H1108 H 0.75842 0.65362 0.61015 0.0
H1109 H 0.74562 0.67388 0.5707 0.0
C1110 C 0.26415 0.92953 0.46706 0.0
C1111 C 0.27101 0.94499 0.44255 0.0
C1112 C 0.26961 0.94703 0.49053 0.0
C1113 C 0.32002 0.03092 0.51457 0.0
H1114 H 0.27444 0.9964 0.57997 0.0
C1115 C 0.37067 0.09619 0.61327 0.0
C1116 C 0.34926 0.09573 0.63212 0.0
C1117 C 0.35944 0.07706 0.59067 0.0
C1118 C 0.28729 1.00661 0.56183 0.0
H1119 H 0.29052 0.99115 0.42381 0.0
H1120 H 0.29618 0.02087 0.46369 0.0
H1121 H 0.25536 0.96489 0.53967 0.0
H1122 H 0.29914 0.07555 0.64171 0.0
H1123 H 0.27943 0.04197 0.60246 0.0
H1124 H 0.35129 0.07299 0.53636 0.0
C1125 C 0.28697 0.99535 0.46523 0.0
C1126 C 0.27653 0.9883 0.5387 0.0
C1127 C 0.28226 0.97801 0.44202 0.0
C1128 C 0.31629 0.07589 0.6278 0.0
C1129 C 0.305 0.05661 0.60525 0.0
C1130 C 0.33056 0.04928 0.53756 0.0
C1131 C 0.28213 0.98045 0.48995 0.0
C1132 C 0.29275 1.00015 0.51468 0.0
C1133 C 0.32642 0.05706 0.58622 0.0
C1134 C 0.31454 0.03738 0.56162 0.0
H1135 H 0.25712 0.90444 0.4682 0.0
H1136 H 0.26607 0.93463 0.50908 0.0
H1137 H 0.33378 0.04085 0.49676 0.0
H1138 H 0.3962 0.11123 0.61606 0.0
H1139 H 0.37678 0.07778 0.57679 0.0
C1140 C 0.94456 0.22834 0.61003 0.0
C1141 C 0.95332 0.25053 0.63062 0.0
C1142 C 0.96318 0.23614 0.58707 0.0
C1143 C 0.04437 0.29499 0.5615 0.0
H1144 H 1.00446 0.26663 0.49303 0.0
C1145 C 0.111 0.35407 0.46583 0.0
C1146 C 0.10399 0.33631 0.44249 0.0
C1147 C 0.09409 0.34026 0.48895 0.0
C1148 C 1.01611 0.27434 0.512 0.0
H1149 H 0.98784 0.29868 0.643 0.0
H1150 H 1.01985 0.3123 0.60339 0.0
H1151 H 0.97155 0.24958 0.53265 0.0
H1152 H 0.074 0.28962 0.42521 0.0
H1153 H 0.04484 0.26487 0.46598 0.0
H1154 H 0.08877 0.32012 0.54103 0.0
C1155 C 0.99928 0.28853 0.60493 0.0
C1156 C 0.99717 0.26457 0.53481 0.0
C1157 C 0.98079 0.28072 0.62774 0.0
C1158 C 0.08068 0.30369 0.44308 0.0
C1159 C 0.06349 0.28973 0.46635 0.0
C1160 C 0.06321 0.30474 0.5388 0.0
C1161 C 0.99089 0.26636 0.58423 0.0
C1162 C 1.011 0.27512 0.55988 0.0
C1163 C 0.06948 0.30813 0.48945 0.0
C1164 C 0.0494 0.29496 0.51367 0.0
H1165 H 0.92337 0.20499 0.61166 0.0
H1166 H 0.95601 0.21833 0.57169 0.0
H1167 H 0.05614 0.30309 0.58039 0.0
H1168 H 0.12802 0.3795 0.46571 0.0
H1169 H 0.09907 0.35553 0.50598 0.0
loop_
_geom_bond_atom_site_label_1
_geom_bond_atom_site_label_2
_geom_bond_distance
_geom_bond_site_symmetry_2
_ccdc_geom_bond_type
La0 C2 2.928 . S
La0 O20 2.521 . S
La0 O21 2.628 1_556 S
La0 O22 2.554 . S
La0 O23 2.757 1_455 S
La0 O24 2.470 . S
La0 O29 2.482 1_556 S
La0 O31 2.503 1_456 S
La1 C11 2.928 . S
La1 O23 2.482 1_554 S
La1 O25 2.504 1_655 S
La1 O26 2.521 . S
La1 O27 2.628 1_554 S
La1 O28 2.554 . S
La1 O29 2.757 1_655 S
La1 O30 2.470 . S
C2 La0 2.928 . S
C2 C3 1.503 . S
C2 O20 1.261 . S
C2 O21 1.243 1_556 S
C3 C2 1.503 . S
C3 C4 1.394 . S
C3 C8 1.373 1_556 S
C4 C3 1.394 . S
C4 C5 1.380 . S
C4 H32 0.930 . S
C5 C4 1.380 . S
C5 C6 1.376 . S
C5 H33 0.930 . S
C6 C5 1.376 . S
C6 C7 1.370 1_556 S
C7 C6 1.370 1_554 S
C7 C8 1.396 . S
C7 H34 0.929 . S
C8 C3 1.373 1_554 S
C8 C7 1.396 . S
C8 H35 0.929 . S
C9 O22 1.240 1_655 S
C9 O23 1.289 . S
C10 O24 1.258 . S
C10 O25 1.255 1_556 S
C11 La1 2.928 . S
C11 C12 1.503 . S
C11 O26 1.261 . S
C11 O27 1.243 1_554 S
C12 C11 1.503 . S
C12 C13 1.394 . S
C12 C17 1.373 1_554 S
C13 C12 1.394 . S
C13 C14 1.380 . S
C13 H36 0.930 . S
C14 C13 1.380 . S
C14 C15 1.376 . S
C14 H37 0.930 . S
C15 C14 1.376 . S
C15 C16 1.370 1_554 S
C16 C15 1.370 1_556 S
C16 C17 1.396 . S
C16 H38 0.929 . S
C17 C12 1.373 1_556 S
C17 C16 1.396 . S
C17 H39 0.929 . S
C18 O28 1.240 1_455 S
C18 O29 1.289 . S
C19 O30 1.258 . S
C19 O31 1.256 . S
O20 La0 2.521 . S
O20 C2 1.261 . S
O21 La0 2.628 1_554 S
O21 C2 1.243 1_554 S
O22 La0 2.554 . S
O22 C9 1.240 1_455 S
O23 La0 2.757 1_655 S
O23 La1 2.482 1_556 S
O23 C9 1.289 . S
O24 La0 2.470 . S
O24 C10 1.258 . S
O25 La1 2.504 1_455 S
O25 C10 1.255 1_554 S
O26 La1 2.521 . S
O26 C11 1.261 . S
O27 La1 2.628 1_556 S
O27 C11 1.243 1_556 S
O28 La1 2.554 . S
O28 C18 1.240 1_655 S
O29 La0 2.482 1_554 S
O29 La1 2.757 1_455 S
O29 C18 1.289 . S
O30 La1 2.470 . S
O30 C19 1.258 . S
O31 La0 2.503 1_654 S
O31 C19 1.256 . S
H32 C4 0.930 . S
H33 C5 0.930 . S
H34 C7 0.929 . S
H35 C8 0.929 . S
H36 C13 0.930 . S
H37 C14 0.930 . S
H38 C16 0.929 . S
H39 C17 0.929 . S
La40 C42 2.928 . S
La40 O60 2.521 . S
La40 O61 2.628 1_556 S
La40 O62 2.554 . S
La40 O63 2.757 . S
La40 O64 2.470 . S
La40 O69 2.482 1_556 S
La40 O71 2.503 1_556 S
La41 C51 2.928 . S
La41 O63 2.482 1_554 S
La41 O65 2.504 . S
La41 O66 2.521 . S
La41 O67 2.628 1_554 S
La41 O68 2.554 . S
La41 O69 2.757 . S
La41 O70 2.470 . S
C42 La40 2.928 . S
C42 C43 1.503 . S
C42 O60 1.261 . S
C42 O61 1.243 1_556 S
C43 C42 1.503 . S
C43 C44 1.394 . S
C43 C48 1.373 1_556 S
C44 C43 1.394 . S
C44 C45 1.380 . S
C44 H72 0.930 . S
C45 C44 1.380 . S
C45 C46 1.376 . S
C45 H73 0.930 . S
C46 C45 1.376 . S
C46 C47 1.370 1_556 S
C47 C46 1.370 1_554 S
C47 C48 1.396 . S
C47 H74 0.929 . S
C48 C43 1.373 1_554 S
C48 C47 1.396 . S
C48 H75 0.929 . S
C49 O62 1.240 . S
C49 O63 1.289 . S
C50 O64 1.258 . S
C50 O65 1.255 1_556 S
C51 La41 2.928 . S
C51 C52 1.503 . S
C51 O66 1.261 . S
C51 O67 1.243 1_554 S
C52 C51 1.503 . S
C52 C53 1.394 . S
C52 C57 1.373 1_554 S
C53 C52 1.394 . S
C53 C54 1.380 . S
C53 H76 0.930 . S
C54 C53 1.380 . S
C54 C55 1.376 . S
C54 H77 0.930 . S
C55 C54 1.376 . S
C55 C56 1.370 1_554 S
C56 C55 1.370 1_556 S
C56 C57 1.396 . S
C56 H78 0.929 . S
C57 C52 1.373 1_556 S
C57 C56 1.396 . S
C57 H79 0.929 . S
C58 O68 1.240 . S
C58 O69 1.289 . S
C59 O70 1.258 . S
C59 O71 1.256 . S
O60 La40 2.521 . S
O60 C42 1.261 . S
O61 La40 2.628 1_554 S
O61 C42 1.243 1_554 S
O62 La40 2.554 . S
O62 C49 1.240 . S
O63 La40 2.757 . S
O63 La41 2.482 1_556 S
O63 C49 1.289 . S
O64 La40 2.470 . S
O64 C50 1.258 . S
O65 La41 2.504 . S
O65 C50 1.255 1_554 S
O66 La41 2.521 . S
O66 C51 1.261 . S
O67 La41 2.628 1_556 S
O67 C51 1.243 1_556 S
O68 La41 2.554 . S
O68 C58 1.240 . S
O69 La40 2.482 1_554 S
O69 La41 2.757 . S
O69 C58 1.289 . S
O70 La41 2.470 . S
O70 C59 1.258 . S
O71 La40 2.503 1_554 S
O71 C59 1.256 . S
H72 C44 0.930 . S
H73 C45 0.930 . S
H74 C47 0.929 . S
H75 C48 0.929 . S
H76 C53 0.930 . S
H77 C54 0.930 . S
H78 C56 0.929 . S
H79 C57 0.929 . S
La80 C82 2.928 . S
La80 O100 2.521 . S
La80 O101 2.628 1_556 S
La80 O102 2.554 . S
La80 O103 2.757 1_565 S
La80 O104 2.470 . S
La80 O109 2.482 1_556 S
La80 O111 2.503 1_566 S
La81 C91 2.928 . S
La81 O103 2.482 1_554 S
La81 O105 2.504 1_545 S
La81 O106 2.521 . S
La81 O107 2.628 1_554 S
La81 O108 2.554 . S
La81 O109 2.757 1_545 S
La81 O110 2.470 . S
C82 La80 2.928 . S
C82 C83 1.503 . S
C82 O100 1.261 . S
C82 O101 1.243 1_556 S
C83 C82 1.503 . S
C83 C84 1.394 . S
C83 C88 1.373 1_556 S
C84 C83 1.394 . S
C84 C85 1.380 . S
C84 H112 0.930 . S
C85 C84 1.380 . S
C85 C86 1.376 . S
C85 H113 0.930 . S
C86 C85 1.376 . S
C86 C87 1.370 1_556 S
C87 C86 1.370 1_554 S
C87 C88 1.396 . S
C87 H114 0.929 . S
C88 C83 1.373 1_554 S
C88 C87 1.396 . S
C88 H115 0.929 . S
C89 O102 1.240 1_545 S
C89 O103 1.289 . S
C90 O104 1.258 . S
C90 O105 1.255 1_556 S
C91 La81 2.928 . S
C91 C92 1.503 . S
C91 O106 1.261 . S
C91 O107 1.243 1_554 S
C92 C91 1.503 . S
C92 C93 1.394 . S
C92 C97 1.373 1_554 S
C93 C92 1.394 . S
C93 C94 1.380 . S
C93 H116 0.930 . S
C94 C93 1.380 . S
C94 C95 1.376 . S
C94 H117 0.930 . S
C95 C94 1.376 . S
C95 C96 1.370 1_554 S
C96 C95 1.370 1_556 S
C96 C97 1.396 . S
C96 H118 0.929 . S
C97 C92 1.373 1_556 S
C97 C96 1.396 . S
C97 H119 0.929 . S
C98 O108 1.240 1_565 S
C98 O109 1.289 . S
C99 O110 1.258 . S
C99 O111 1.256 . S
O100 La80 2.521 . S
O100 C82 1.261 . S
O101 La80 2.628 1_554 S
O101 C82 1.243 1_554 S
O102 La80 2.554 . S
O102 C89 1.240 1_565 S
O103 La80 2.757 1_545 S
O103 La81 2.482 1_556 S
O103 C89 1.289 . S
O104 La80 2.470 . S
O104 C90 1.258 . S
O105 La81 2.504 1_565 S
O105 C90 1.255 1_554 S
O106 La81 2.521 . S
O106 C91 1.261 . S
O107 La81 2.628 1_556 S
O107 C91 1.243 1_556 S
O108 La81 2.554 . S
O108 C98 1.240 1_545 S
O109 La80 2.482 1_554 S
O109 La81 2.757 1_565 S
O109 C98 1.289 . S
O110 La81 2.470 . S
O110 C99 1.258 . S
O111 La80 2.503 1_544 S
O111 C99 1.256 . S
H112 C84 0.930 . S
H113 C85 0.930 . S
H114 C87 0.929 . S
H115 C88 0.929 . S
H116 C93 0.930 . S
H117 C94 0.930 . S
H118 C96 0.929 . S
H119 C97 0.929 . S
La120 C122 2.928 . S
La120 O140 2.521 . S
La120 O141 2.628 . S
La120 O142 2.554 . S
La120 O143 2.757 . S
La120 O144 2.470 . S
La120 O149 2.482 . S
La120 O151 2.503 . S
La121 C131 2.928 . S
La121 O143 2.482 . S
La121 O145 2.503 . S
La121 O146 2.521 . S
La121 O147 2.628 . S
La121 O148 2.554 . S
La121 O149 2.757 . S
La121 O150 2.470 . S
C122 La120 2.928 . S
C122 C123 1.503 . S
C122 O140 1.261 . S
C122 O141 1.243 . S
C123 C122 1.503 . S
C123 C124 1.394 . S
C123 C128 1.373 . S
C124 C123 1.394 . S
C124 C125 1.380 . S
C124 H152 0.930 . S
C125 C124 1.380 . S
C125 C126 1.376 . S
C125 H153 0.930 . S
C126 C125 1.376 . S
C126 C127 1.370 . S
C127 C126 1.370 . S
C127 C128 1.396 . S
C127 H154 0.929 . S
C128 C123 1.373 . S
C128 C127 1.396 . S
C128 H155 0.929 . S
C129 O142 1.240 . S
C129 O143 1.289 . S
C130 O144 1.258 . S
C130 O145 1.256 . S
C131 La121 2.928 . S
C131 C132 1.503 . S
C131 O146 1.261 . S
C131 O147 1.243 . S
C132 C131 1.503 . S
C132 C133 1.394 . S
C132 C137 1.373 . S
C133 C132 1.394 . S
C133 C134 1.380 . S
C133 H156 0.930 . S
C134 C133 1.380 . S
C134 C135 1.376 . S
C134 H157 0.930 . S
C135 C134 1.376 . S
C135 C136 1.370 . S
C136 C135 1.370 . S
C136 C137 1.396 . S
C136 H158 0.929 . S
C137 C132 1.373 . S
C137 C136 1.396 . S
C137 H159 0.929 . S
C138 O148 1.240 . S
C138 O149 1.289 . S
C139 O150 1.258 . S
C139 O151 1.256 . S
O140 La120 2.521 . S
O140 C122 1.261 . S
O141 La120 2.628 . S
O141 C122 1.243 . S
O142 La120 2.554 . S
O142 C129 1.240 . S
O143 La120 2.757 . S
O143 La121 2.482 . S
O143 C129 1.289 . S
O144 La120 2.470 . S
O144 C130 1.258 . S
O145 La121 2.503 . S
O145 C130 1.256 . S
O146 La121 2.521 . S
O146 C131 1.261 . S
O147 La121 2.628 . S
O147 C131 1.243 . S
O148 La121 2.554 . S
O148 C138 1.240 . S
O149 La120 2.482 . S
O149 La121 2.757 . S
O149 C138 1.289 . S
O150 La121 2.470 . S
O150 C139 1.258 . S
O151 La120 2.503 . S
O151 C139 1.256 . S
H152 C124 0.930 . S
H153 C125 0.930 . S
H154 C127 0.929 . S
H155 C128 0.929 . S
H156 C133 0.930 . S
H157 C134 0.930 . S
H158 C136 0.929 . S
H159 C137 0.929 . S
La160 C162 2.928 . S
La160 O180 2.521 . S
La160 O181 2.628 . S
La160 O182 2.554 . S
La160 O183 2.757 . S
La160 O184 2.470 . S
La160 O189 2.482 . S
La160 O191 2.503 . S
La161 C171 2.928 . S
La161 O183 2.482 . S
La161 O185 2.503 . S
La161 O186 2.521 . S
La161 O187 2.628 . S
La161 O188 2.554 . S
La161 O189 2.757 . S
La161 O190 2.470 . S
C162 La160 2.928 . S
C162 C163 1.503 . S
C162 O180 1.261 . S
C162 O181 1.243 . S
C163 C162 1.503 . S
C163 C164 1.394 . S
C163 C168 1.373 . S
C164 C163 1.394 . S
C164 C165 1.380 . S
C164 H192 0.930 . S
C165 C164 1.380 . S
C165 C166 1.376 . S
C165 H193 0.930 . S
C166 C165 1.376 . S
C166 C167 1.370 . S
C167 C166 1.370 . S
C167 C168 1.396 . S
C167 H194 0.929 . S
C168 C163 1.373 . S
C168 C167 1.396 . S
C168 H195 0.929 . S
C169 O182 1.240 . S
C169 O183 1.289 . S
C170 O184 1.258 . S
C170 O185 1.256 . S
C171 La161 2.928 . S
C171 C172 1.503 . S
C171 O186 1.261 . S
C171 O187 1.243 . S
C172 C171 1.503 . S
C172 C173 1.394 . S
C172 C177 1.373 . S
C173 C172 1.394 . S
C173 C174 1.380 . S
C173 H196 0.930 . S
C174 C173 1.380 . S
C174 C175 1.376 . S
C174 H197 0.930 . S
C175 C174 1.376 . S
C175 C176 1.370 . S
C176 C175 1.370 . S
C176 C177 1.396 . S
C176 H198 0.929 . S
C177 C172 1.373 . S
C177 C176 1.396 . S
C177 H199 0.929 . S
C178 O188 1.240 . S
C178 O189 1.289 . S
C179 O190 1.258 . S
C179 O191 1.256 . S
O180 La160 2.521 . S
O180 C162 1.261 . S
O181 La160 2.628 . S
O181 C162 1.243 . S
O182 La160 2.554 . S
O182 C169 1.240 . S
O183 La160 2.757 . S
O183 La161 2.482 . S
O183 C169 1.289 . S
O184 La160 2.470 . S
O184 C170 1.258 . S
O185 La161 2.503 . S
O185 C170 1.256 . S
O186 La161 2.521 . S
O186 C171 1.261 . S
O187 La161 2.628 . S
O187 C171 1.243 . S
O188 La161 2.554 . S
O188 C178 1.240 . S
O189 La160 2.482 . S
O189 La161 2.757 . S
O189 C178 1.289 . S
O190 La161 2.470 . S
O190 C179 1.258 . S
O191 La160 2.503 . S
O191 C179 1.256 . S
H192 C164 0.930 . S
H193 C165 0.930 . S
H194 C167 0.929 . S
H195 C168 0.929 . S
H196 C173 0.930 . S
H197 C174 0.930 . S
H198 C176 0.929 . S
H199 C177 0.929 . S
La200 C202 2.928 . S
La200 O220 2.521 . S
La200 O221 2.628 . S
La200 O222 2.554 . S
La200 O223 2.757 . S
La200 O224 2.470 . S
La200 O229 2.482 . S
La200 O231 2.503 . S
La201 C211 2.928 . S
La201 O223 2.482 . S
La201 O225 2.503 . S
La201 O226 2.521 . S
La201 O227 2.628 . S
La201 O228 2.554 . S
La201 O229 2.757 . S
La201 O230 2.470 . S
C202 La200 2.928 . S
C202 C203 1.503 . S
C202 O220 1.261 . S
C202 O221 1.243 . S
C203 C202 1.503 . S
C203 C204 1.394 . S
C203 C208 1.373 . S
C204 C203 1.394 . S
C204 C205 1.380 . S
C204 H232 0.930 . S
C205 C204 1.380 . S
C205 C206 1.376 . S
C205 H233 0.930 . S
C206 C205 1.376 . S
C206 C207 1.370 . S
C207 C206 1.370 . S
C207 C208 1.396 . S
C207 H234 0.929 . S
C208 C203 1.373 . S
C208 C207 1.396 . S
C208 H235 0.929 . S
C209 O222 1.240 . S
C209 O223 1.289 . S
C210 O224 1.258 . S
C210 O225 1.256 . S
C211 La201 2.928 . S
C211 C212 1.503 . S
C211 O226 1.261 . S
C211 O227 1.243 . S
C212 C211 1.503 . S
C212 C213 1.394 . S
C212 C217 1.373 . S
C213 C212 1.394 . S
C213 C214 1.380 . S
C213 H236 0.930 . S
C214 C213 1.380 . S
C214 C215 1.376 . S
C214 H237 0.930 . S
C215 C214 1.376 . S
C215 C216 1.370 . S
C216 C215 1.370 . S
C216 C217 1.396 . S
C216 H238 0.929 . S
C217 C212 1.373 . S
C217 C216 1.396 . S
C217 H239 0.929 . S
C218 O228 1.240 . S
C218 O229 1.289 . S
C219 O230 1.258 . S
C219 O231 1.256 . S
O220 La200 2.521 . S
O220 C202 1.261 . S
O221 La200 2.628 . S
O221 C202 1.243 . S
O222 La200 2.554 . S
O222 C209 1.240 . S
O223 La200 2.757 . S
O223 La201 2.482 . S
O223 C209 1.289 . S
O224 La200 2.470 . S
O224 C210 1.258 . S
O225 La201 2.503 . S
O225 C210 1.256 . S
O226 La201 2.521 . S
O226 C211 1.261 . S
O227 La201 2.628 . S
O227 C211 1.243 . S
O228 La201 2.554 . S
O228 C218 1.240 . S
O229 La200 2.482 . S
O229 La201 2.757 . S
O229 C218 1.289 . S
O230 La201 2.470 . S
O230 C219 1.258 . S
O231 La200 2.503 . S
O231 C219 1.256 . S
H232 C204 0.930 . S
H233 C205 0.930 . S
H234 C207 0.929 . S
H235 C208 0.929 . S
H236 C213 0.930 . S
H237 C214 0.930 . S
H238 C216 0.929 . S
H239 C217 0.929 . S
La240 C242 2.928 . S
La240 O260 2.521 . S
La240 O261 2.628 . S
La240 O262 2.554 . S
La240 O263 2.757 . S
La240 O264 2.470 . S
La240 O269 2.482 . S
La240 O271 2.503 . S
La241 C251 2.928 . S
La241 O263 2.482 . S
La241 O265 2.503 . S
La241 O266 2.521 . S
La241 O267 2.628 . S
La241 O268 2.554 . S
La241 O269 2.757 . S
La241 O270 2.470 . S
C242 La240 2.928 . S
C242 C243 1.503 . S
C242 O260 1.261 . S
C242 O261 1.243 . S
C243 C242 1.503 . S
C243 C244 1.394 . S
C243 C248 1.373 . S
C244 C243 1.394 . S
C244 C245 1.380 . S
C244 H272 0.930 . S
C245 C244 1.380 . S
C245 C246 1.376 . S
C245 H273 0.930 . S
C246 C245 1.376 . S
C246 C247 1.370 . S
C247 C246 1.370 . S
C247 C248 1.396 . S
C247 H274 0.929 . S
C248 C243 1.373 . S
C248 C247 1.396 . S
C248 H275 0.929 . S
C249 O262 1.240 . S
C249 O263 1.289 . S
C250 O264 1.258 . S
C250 O265 1.256 . S
C251 La241 2.928 . S
C251 C252 1.503 1_545 S
C251 O266 1.261 . S
C251 O267 1.243 . S
C252 C251 1.503 1_565 S
C252 C253 1.394 . S
C252 C257 1.373 . S
C253 C252 1.394 . S
C253 C254 1.380 . S
C253 H276 0.930 . S
C254 C253 1.380 . S
C254 C255 1.376 . S
C254 H277 0.930 . S
C255 C254 1.376 . S
C255 C256 1.370 . S
C256 C255 1.370 . S
C256 C257 1.396 . S
C256 H278 0.929 . S
C257 C252 1.373 . S
C257 C256 1.396 . S
C257 H279 0.929 1_565 S
C258 O268 1.240 . S
C258 O269 1.289 . S
C259 O270 1.258 . S
C259 O271 1.256 . S
O260 La240 2.521 . S
O260 C242 1.261 . S
O261 La240 2.628 . S
O261 C242 1.243 . S
O262 La240 2.554 . S
O262 C249 1.240 . S
O263 La240 2.757 . S
O263 La241 2.482 . S
O263 C249 1.289 . S
O264 La240 2.470 . S
O264 C250 1.258 . S
O265 La241 2.503 . S
O265 C250 1.256 . S
O266 La241 2.521 . S
O266 C251 1.261 . S
O267 La241 2.628 . S
O267 C251 1.243 . S
O268 La241 2.554 . S
O268 C258 1.240 . S
O269 La240 2.482 . S
O269 La241 2.757 . S
O269 C258 1.289 . S
O270 La241 2.470 . S
O270 C259 1.258 . S
O271 La240 2.503 . S
O271 C259 1.256 . S
H272 C244 0.930 . S
H273 C245 0.930 . S
H274 C247 0.929 . S
H275 C248 0.929 . S
H276 C253 0.930 . S
H277 C254 0.930 . S
H278 C256 0.929 . S
H279 C257 0.929 1_545 S
La280 C282 2.928 . S
La280 O300 2.521 . S
La280 O301 2.628 . S
La280 O302 2.554 . S
La280 O303 2.757 . S
La280 O304 2.470 . S
La280 O309 2.482 . S
La280 O311 2.503 . S
La281 C291 2.928 . S
La281 O303 2.482 . S
La281 O305 2.503 . S
La281 O306 2.521 . S
La281 O307 2.628 . S
La281 O308 2.554 . S
La281 O309 2.757 . S
La281 O310 2.470 . S
C282 La280 2.928 . S
C282 C283 1.503 . S
C282 O300 1.261 . S
C282 O301 1.243 . S
C283 C282 1.503 . S
C283 C284 1.394 . S
C283 C288 1.373 . S
C284 C283 1.394 . S
C284 C285 1.380 . S
C284 H312 0.930 . S
C285 C284 1.380 . S
C285 C286 1.376 . S
C285 H313 0.930 . S
C286 C285 1.376 . S
C286 C287 1.370 . S
C287 C286 1.370 . S
C287 C288 1.396 . S
C287 H314 0.929 . S
C288 C283 1.373 . S
C288 C287 1.396 . S
C288 H315 0.929 . S
C289 O302 1.240 . S
C289 O303 1.289 . S
C290 O304 1.258 . S
C290 O305 1.256 . S
C291 La281 2.928 . S
C291 C292 1.503 1_655 S
C291 O306 1.261 . S
C291 O307 1.243 . S
C292 C291 1.503 1_455 S
C292 C293 1.394 . S
C292 C297 1.373 . S
C293 C292 1.394 . S
C293 C294 1.380 . S
C293 H316 0.930 . S
C294 C293 1.380 . S
C294 C295 1.376 . S
C294 H317 0.930 . S
C295 C294 1.376 . S
C295 C296 1.370 . S
C296 C295 1.370 . S
C296 C297 1.396 . S
C296 H318 0.929 . S
C297 C292 1.373 . S
C297 C296 1.396 . S
C297 H319 0.929 . S
C298 O308 1.240 . S
C298 O309 1.289 . S
C299 O310 1.258 . S
C299 O311 1.256 . S
O300 La280 2.521 . S
O300 C282 1.261 . S
O301 La280 2.628 . S
O301 C282 1.243 . S
O302 La280 2.554 . S
O302 C289 1.240 . S
O303 La280 2.757 . S
O303 La281 2.482 . S
O303 C289 1.289 . S
O304 La280 2.470 . S
O304 C290 1.258 . S
O305 La281 2.503 . S
O305 C290 1.256 . S
O306 La281 2.521 . S
O306 C291 1.261 . S
O307 La281 2.628 . S
O307 C291 1.243 . S
O308 La281 2.554 . S
O308 C298 1.240 . S
O309 La280 2.482 . S
O309 La281 2.757 . S
O309 C298 1.289 . S
O310 La281 2.470 . S
O310 C299 1.258 . S
O311 La280 2.503 . S
O311 C299 1.256 . S
H312 C284 0.930 . S
H313 C285 0.930 . S
H314 C287 0.929 . S
H315 C288 0.929 . S
H316 C293 0.930 . S
H317 C294 0.930 . S
H318 C296 0.929 . S
H319 C297 0.929 . S
La320 C322 2.928 . S
La320 O340 2.521 . S
La320 O341 2.628 . S
La320 O342 2.554 . S
La320 O343 2.757 . S
La320 O344 2.470 . S
La320 O349 2.482 . S
La320 O351 2.503 . S
La321 C331 2.928 . S
La321 O343 2.482 . S
La321 O345 2.503 . S
La321 O346 2.521 . S
La321 O347 2.628 . S
La321 O348 2.554 . S
La321 O349 2.757 . S
La321 O350 2.470 . S
C322 La320 2.928 . S
C322 C323 1.503 . S
C322 O340 1.261 . S
C322 O341 1.243 . S
C323 C322 1.503 . S
C323 C324 1.394 . S
C323 C328 1.373 . S
C324 C323 1.394 . S
C324 C325 1.380 . S
C324 H352 0.930 . S
C325 C324 1.380 . S
C325 C326 1.376 . S
C325 H353 0.930 . S
C326 C325 1.376 . S
C326 C327 1.370 . S
C327 C326 1.370 . S
C327 C328 1.396 . S
C327 H354 0.929 . S
C328 C323 1.373 . S
C328 C327 1.396 . S
C328 H355 0.929 . S
C329 O342 1.240 . S
C329 O343 1.289 . S
C330 O344 1.258 . S
C330 O345 1.256 . S
C331 La321 2.928 . S
C331 C332 1.503 . S
C331 O346 1.261 . S
C331 O347 1.243 . S
C332 C331 1.503 . S
C332 C333 1.394 . S
C332 C337 1.373 . S
C333 C332 1.394 . S
C333 C334 1.380 . S
C333 H356 0.930 . S
C334 C333 1.380 . S
C334 C335 1.376 . S
C334 H357 0.930 . S
C335 C334 1.376 . S
C335 C336 1.370 . S
C336 C335 1.370 . S
C336 C337 1.396 . S
C336 H358 0.929 . S
C337 C332 1.373 . S
C337 C336 1.396 . S
C337 H359 0.929 . S
C338 O348 1.240 . S
C338 O349 1.289 . S
C339 O350 1.258 . S
C339 O351 1.256 . S
O340 La320 2.521 . S
O340 C322 1.261 . S
O341 La320 2.628 . S
O341 C322 1.243 . S
O342 La320 2.554 . S
O342 C329 1.240 . S
O343 La320 2.757 . S
O343 La321 2.482 . S
O343 C329 1.289 . S
O344 La320 2.470 . S
O344 C330 1.258 . S
O345 La321 2.503 . S
O345 C330 1.256 . S
O346 La321 2.521 . S
O346 C331 1.261 . S
O347 La321 2.628 . S
O347 C331 1.243 . S
O348 La321 2.554 . S
O348 C338 1.240 . S
O349 La320 2.482 . S
O349 La321 2.757 . S
O349 C338 1.289 . S
O350 La321 2.470 . S
O350 C339 1.258 . S
O351 La320 2.503 . S
O351 C339 1.256 . S
H352 C324 0.930 . S
H353 C325 0.930 . S
H354 C327 0.929 . S
H355 C328 0.929 . S
H356 C333 0.930 . S
H357 C334 0.930 . S
H358 C336 0.929 . S
H359 C337 0.929 . S
C360 C361 1.349 . S
C360 C362 1.327 . S
C360 H385 0.950 . S
C361 C360 1.349 . S
C361 C377 1.349 1_556 S
C362 C360 1.327 . S
C362 C381 1.429 . S
C362 H386 0.950 . S
C363 C380 1.574 . S
C363 C382 1.368 1_554 S
C363 H387 0.949 . S
H364 C368 0.949 . S
C365 C366 1.349 1_554 S
C365 C367 1.327 . S
C365 H388 0.950 . S
C366 C365 1.349 1_556 S
C366 C378 1.349 . S
C367 C365 1.327 . S
C367 C383 1.429 1_554 S
C367 H389 0.950 . S
C368 H364 0.949 . S
C368 C376 1.574 . S
C368 C384 1.368 . S
H369 C377 0.950 . S
H370 C375 0.950 . S
H371 C376 0.949 . S
H372 C378 0.950 . S
H373 C379 0.950 . S
H374 C380 0.949 . S
C375 H370 0.950 . S
C375 C377 1.327 . S
C375 C381 1.429 1_554 S
C376 C368 1.574 . S
C376 H371 0.949 . S
C376 C382 1.368 . S
C377 C361 1.349 1_554 S
C377 H369 0.950 . S
C377 C375 1.327 . S
C378 C366 1.349 . S
C378 H372 0.950 . S
C378 C379 1.327 . S
C379 H373 0.950 . S
C379 C378 1.327 . S
C379 C383 1.429 . S
C380 C363 1.574 . S
C380 H374 0.949 . S
C380 C384 1.368 1_554 S
C381 C362 1.429 . S
C381 C375 1.429 1_556 S
C381 C382 1.523 . S
C382 C363 1.368 1_556 S
C382 C376 1.368 . S
C382 C381 1.523 . S
C383 C367 1.429 1_556 S
C383 C379 1.429 . S
C383 C384 1.523 . S
C384 C368 1.368 . S
C384 C380 1.368 1_556 S
C384 C383 1.523 . S
H385 C360 0.950 . S
H386 C362 0.950 . S
H387 C363 0.949 . S
H388 C365 0.950 . S
H389 C367 0.950 . S
C390 C391 1.349 1_554 S
C390 C392 1.327 . S
C390 H415 0.950 . S
C391 C390 1.349 1_556 S
C391 C407 1.349 . S
C392 C390 1.327 . S
C392 C411 1.429 1_554 S
C392 H416 0.950 . S
C393 C410 1.574 . S
C393 C412 1.368 . S
C393 H417 0.949 . S
H394 C398 0.949 . S
C395 C396 1.349 . S
C395 C397 1.327 . S
C395 H418 0.950 . S
C396 C395 1.349 . S
C396 C408 1.349 1_556 S
C397 C395 1.327 . S
C397 C413 1.429 . S
C397 H419 0.950 . S
C398 H394 0.949 . S
C398 C406 1.574 . S
C398 C414 1.368 1_554 S
H399 C407 0.950 . S
H400 C405 0.950 . S
H401 C406 0.949 . S
H402 C408 0.950 . S
H403 C409 0.950 . S
H404 C410 0.949 . S
C405 H400 0.950 . S
C405 C407 1.327 . S
C405 C411 1.429 . S
C406 C398 1.574 . S
C406 H401 0.949 . S
C406 C412 1.368 1_554 S
C407 C391 1.349 . S
C407 H399 0.950 . S
C407 C405 1.327 . S
C408 C396 1.349 1_554 S
C408 H402 0.950 . S
C408 C409 1.327 . S
C409 H403 0.950 . S
C409 C408 1.327 . S
C409 C413 1.429 1_554 S
C410 C393 1.574 . S
C410 H404 0.949 . S
C410 C414 1.368 . S
C411 C392 1.429 1_556 S
C411 C405 1.429 . S
C411 C412 1.523 . S
C412 C393 1.368 . S
C412 C406 1.368 1_556 S
C412 C411 1.523 . S
C413 C397 1.429 . S
C413 C409 1.429 1_556 S
C413 C414 1.523 . S
C414 C398 1.368 1_556 S
C414 C410 1.368 . S
C414 C413 1.523 . S
H415 C390 0.950 . S
H416 C392 0.950 . S
H417 C393 0.949 . S
H418 C395 0.950 . S
H419 C397 0.950 . S
C420 C421 1.349 . S
C420 C422 1.327 . S
C420 H445 0.950 . S
C421 C420 1.349 . S
C421 C437 1.349 1_556 S
C422 C420 1.327 . S
C422 C441 1.429 . S
C422 H446 0.950 . S
C423 C440 1.574 . S
C423 C442 1.368 1_554 S
C423 H447 0.949 . S
H424 C428 0.949 . S
C425 C426 1.349 1_554 S
C425 C427 1.327 . S
C425 H448 0.950 . S
C426 C425 1.349 1_556 S
C426 C438 1.349 . S
C427 C425 1.327 . S
C427 C443 1.429 1_554 S
C427 H449 0.950 . S
C428 H424 0.949 . S
C428 C436 1.574 . S
C428 C444 1.368 . S
H429 C437 0.950 . S
H430 C435 0.950 . S
H431 C436 0.949 . S
H432 C438 0.950 . S
H433 C439 0.950 . S
H434 C440 0.949 . S
C435 H430 0.950 . S
C435 C437 1.327 . S
C435 C441 1.429 1_554 S
C436 C428 1.574 . S
C436 H431 0.949 . S
C436 C442 1.368 . S
C437 C421 1.349 1_554 S
C437 H429 0.950 . S
C437 C435 1.327 . S
C438 C426 1.349 . S
C438 H432 0.950 . S
C438 C439 1.327 . S
C439 H433 0.950 . S
C439 C438 1.327 . S
C439 C443 1.429 . S
C440 C423 1.574 . S
C440 H434 0.949 . S
C440 C444 1.368 1_554 S
C441 C422 1.429 . S
C441 C435 1.429 1_556 S
C441 C442 1.523 . S
C442 C423 1.368 1_556 S
C442 C436 1.368 . S
C442 C441 1.523 . S
C443 C427 1.429 1_556 S
C443 C439 1.429 . S
C443 C444 1.523 . S
C444 C428 1.368 . S
C444 C440 1.368 1_556 S
C444 C443 1.523 . S
H445 C420 0.950 . S
H446 C422 0.950 . S
H447 C423 0.949 . S
H448 C425 0.950 . S
H449 C427 0.950 . S
C450 C451 1.349 . S
C450 C452 1.327 . S
C450 H475 0.950 . S
C451 C450 1.349 . S
C451 C467 1.349 1_554 S
C452 C450 1.327 . S
C452 C471 1.429 . S
C452 H476 0.950 . S
C453 C470 1.574 . S
C453 C472 1.368 1_556 S
C453 H477 0.949 . S
H454 C458 0.949 . S
C455 C456 1.349 1_556 S
C455 C457 1.327 . S
C455 H478 0.950 . S
C456 C455 1.349 1_554 S
C456 C468 1.349 . S
C457 C455 1.327 . S
C457 C473 1.429 1_556 S
C457 H479 0.950 . S
C458 H454 0.949 . S
C458 C466 1.574 . S
C458 C474 1.368 . S
H459 C467 0.950 . S
H460 C465 0.950 . S
H461 C466 0.949 . S
H462 C468 0.950 . S
H463 C469 0.950 . S
H464 C470 0.949 . S
C465 H460 0.950 . S
C465 C467 1.327 . S
C465 C471 1.429 1_556 S
C466 C458 1.574 . S
C466 H461 0.949 . S
C466 C472 1.368 . S
C467 C451 1.349 1_556 S
C467 H459 0.950 . S
C467 C465 1.327 . S
C468 C456 1.349 . S
C468 H462 0.950 . S
C468 C469 1.327 . S
C469 H463 0.950 . S
C469 C468 1.327 . S
C469 C473 1.429 . S
C470 C453 1.574 . S
C470 H464 0.949 . S
C470 C474 1.368 1_556 S
C471 C452 1.429 . S
C471 C465 1.429 1_554 S
C471 C472 1.523 . S
C472 C453 1.368 1_554 S
C472 C466 1.368 . S
C472 C471 1.523 . S
C473 C457 1.429 1_554 S
C473 C469 1.429 . S
C473 C474 1.523 . S
C474 C458 1.368 . S
C474 C470 1.368 1_554 S
C474 C473 1.523 . S
H475 C450 0.950 . S
H476 C452 0.950 . S
H477 C453 0.949 . S
H478 C455 0.950 . S
H479 C457 0.950 . S
C480 C481 1.349 . S
C480 C482 1.327 . S
C480 H505 0.950 . S
C481 C480 1.349 . S
C481 C497 1.349 1_554 S
C482 C480 1.327 . S
C482 C501 1.429 . S
C482 H506 0.950 . S
C483 C500 1.574 . S
C483 C502 1.368 1_556 S
C483 H507 0.949 . S
H484 C488 0.949 . S
C485 C486 1.349 1_556 S
C485 C487 1.327 . S
C485 H508 0.950 . S
C486 C485 1.349 1_554 S
C486 C498 1.349 . S
C487 C485 1.327 . S
C487 C503 1.429 1_556 S
C487 H509 0.950 . S
C488 H484 0.949 . S
C488 C496 1.574 . S
C488 C504 1.368 . S
H489 C497 0.950 . S
H490 C495 0.950 . S
H491 C496 0.949 . S
H492 C498 0.950 . S
H493 C499 0.950 . S
H494 C500 0.949 . S
C495 H490 0.950 . S
C495 C497 1.327 . S
C495 C501 1.429 1_556 S
C496 C488 1.574 . S
C496 H491 0.949 . S
C496 C502 1.368 . S
C497 C481 1.349 1_556 S
C497 H489 0.950 . S
C497 C495 1.327 . S
C498 C486 1.349 . S
C498 H492 0.950 . S
C498 C499 1.327 . S
C499 H493 0.950 . S
C499 C498 1.327 . S
C499 C503 1.429 . S
C500 C483 1.574 . S
C500 H494 0.949 . S
C500 C504 1.368 1_556 S
C501 C482 1.429 . S
C501 C495 1.429 1_554 S
C501 C502 1.523 . S
C502 C483 1.368 1_554 S
C502 C496 1.368 . S
C502 C501 1.523 . S
C503 C487 1.429 1_554 S
C503 C499 1.429 . S
C503 C504 1.523 . S
C504 C488 1.368 . S
C504 C500 1.368 1_554 S
C504 C503 1.523 . S
H505 C480 0.950 . S
H506 C482 0.950 . S
H507 C483 0.949 . S
H508 C485 0.950 . S
H509 C487 0.950 . S
C510 C511 1.349 . S
C510 C512 1.327 . S
C510 H535 0.950 . S
C511 C510 1.349 . S
C511 C527 1.349 1_554 S
C512 C510 1.327 . S
C512 C531 1.429 . S
C512 H536 0.950 . S
C513 C530 1.574 . S
C513 C532 1.368 1_556 S
C513 H537 0.949 . S
H514 C518 0.949 . S
C515 C516 1.349 1_556 S
C515 C517 1.327 . S
C515 H538 0.950 . S
C516 C515 1.349 1_554 S
C516 C528 1.349 . S
C517 C515 1.327 . S
C517 C533 1.429 1_556 S
C517 H539 0.950 . S
C518 H514 0.949 . S
C518 C526 1.574 . S
C518 C534 1.368 . S
H519 C527 0.950 . S
H520 C525 0.950 . S
H521 C526 0.949 . S
H522 C528 0.950 . S
H523 C529 0.950 . S
H524 C530 0.949 . S
C525 H520 0.950 . S
C525 C527 1.327 . S
C525 C531 1.429 1_556 S
C526 C518 1.574 . S
C526 H521 0.949 . S
C526 C532 1.368 . S
C527 C511 1.349 1_556 S
C527 H519 0.950 . S
C527 C525 1.327 . S
C528 C516 1.349 . S
C528 H522 0.950 . S
C528 C529 1.327 . S
C529 H523 0.950 . S
C529 C528 1.327 . S
C529 C533 1.429 . S
C530 C513 1.574 . S
C530 H524 0.949 . S
C530 C534 1.368 1_556 S
C531 C512 1.429 . S
C531 C525 1.429 1_554 S
C531 C532 1.523 . S
C532 C513 1.368 1_554 S
C532 C526 1.368 . S
C532 C531 1.523 . S
C533 C517 1.429 1_554 S
C533 C529 1.429 . S
C533 C534 1.523 . S
C534 C518 1.368 . S
C534 C530 1.368 1_554 S
C534 C533 1.523 . S
H535 C510 0.950 . S
H536 C512 0.950 . S
H537 C513 0.949 . S
H538 C515 0.950 . S
H539 C517 0.950 . S
C540 C541 1.349 . S
C540 C542 1.327 . S
C540 H565 0.950 . S
C541 C540 1.349 . S
C541 C557 1.349 . S
C542 C540 1.327 . S
C542 C561 1.429 . S
C542 H566 0.950 . S
C543 C560 1.574 . S
C543 C562 1.368 . S
C543 H567 0.949 . S
H544 C548 0.949 . S
C545 C546 1.349 . S
C545 C547 1.327 1_455 S
C545 H568 0.950 . S
C546 C545 1.349 . S
C546 C558 1.360 . S
C547 C545 1.327 1_655 S
C547 C563 1.429 . S
C547 H569 0.950 . S
C548 H544 0.949 . S
C548 C556 1.574 . S
C548 C564 1.368 . S
H549 C557 0.950 . S
H550 C555 0.950 . S
H551 C556 0.949 . S
H552 C558 0.973 . S
H553 C559 0.950 . S
H554 C560 0.949 . S
C555 H550 0.950 . S
C555 C557 1.327 . S
C555 C561 1.429 . S
C556 C548 1.574 . S
C556 H551 0.949 . S
C556 C562 1.368 . S
C557 C541 1.349 . S
C557 H549 0.950 . S
C557 C555 1.327 . S
C558 C546 1.360 . S
C558 H552 0.973 . S
C558 C559 1.294 1_455 S
C559 H553 0.950 . S
C559 C558 1.294 1_655 S
C559 C563 1.429 . S
C560 C543 1.574 . S
C560 H554 0.949 . S
C560 C564 1.368 . S
C561 C542 1.429 . S
C561 C555 1.429 . S
C561 C562 1.523 . S
C562 C543 1.368 . S
C562 C556 1.368 . S
C562 C561 1.523 . S
C563 C547 1.429 . S
C563 C559 1.429 . S
C563 C564 1.523 . S
C564 C548 1.368 . S
C564 C560 1.368 . S
C564 C563 1.523 . S
H565 C540 0.950 . S
H566 C542 0.950 . S
H567 C543 0.949 . S
H568 C545 0.950 . S
H569 C547 0.950 . S
C570 C571 1.349 . S
C570 C572 1.327 . S
C570 H595 0.950 . S
C571 C570 1.349 . S
C571 C587 1.349 . S
C572 C570 1.327 . S
C572 C591 1.429 . S
C572 H596 0.950 . S
C573 C590 1.574 . S
C573 C592 1.368 . S
C573 H597 0.949 . S
H574 C578 0.949 . S
C575 C576 1.349 . S
C575 C577 1.327 . S
C575 H598 0.950 . S
C576 C575 1.349 . S
C576 C588 1.349 . S
C577 C575 1.327 . S
C577 C593 1.429 1_565 S
C577 H599 0.950 . S
C578 H574 0.949 . S
C578 C586 1.574 . S
C578 C594 1.368 . S
H579 C587 0.950 . S
H580 C585 0.950 . S
H581 C586 0.949 . S
H582 C588 0.950 . S
H583 C589 0.950 . S
H584 C590 0.949 . S
C585 H580 0.950 . S
C585 C587 1.327 . S
C585 C591 1.429 . S
C586 C578 1.574 . S
C586 H581 0.949 . S
C586 C592 1.368 . S
C587 C571 1.349 . S
C587 H579 0.950 . S
C587 C585 1.327 . S
C588 C576 1.349 . S
C588 H582 0.950 . S
C588 C589 1.327 1_565 S
C589 H583 0.950 . S
C589 C588 1.327 1_545 S
C589 C593 1.429 . S
C590 C573 1.574 . S
C590 H584 0.949 . S
C590 C594 1.368 . S
C591 C572 1.429 . S
C591 C585 1.429 . S
C591 C592 1.523 . S
C592 C573 1.368 . S
C592 C586 1.368 . S
C592 C591 1.523 . S
C593 C577 1.429 1_545 S
C593 C589 1.429 . S
C593 C594 1.523 . S
C594 C578 1.368 . S
C594 C590 1.368 . S
C594 C593 1.523 . S
H595 C570 0.950 . S
H596 C572 0.950 . S
H597 C573 0.949 . S
H598 C575 0.950 . S
H599 C577 0.950 . S
C600 C601 1.349 . S
C600 C602 1.327 . S
C600 H625 0.950 . S
C601 C600 1.349 . S
C601 C617 1.349 . S
C602 C600 1.327 . S
C602 C621 1.414 1_455 S
C602 H626 0.950 . S
C603 C620 1.574 . S
C603 C622 1.368 . S
C603 H627 0.949 . S
H604 C608 0.949 . S
C605 C606 1.349 1_545 S
C605 C607 1.327 . S
C605 H628 0.950 1_545 S
C606 C605 1.349 1_565 S
C606 C618 1.349 1_565 S
C607 C605 1.327 . S
C607 C623 1.429 . S
C607 H629 0.950 . S
C608 H604 0.949 . S
C608 C616 1.574 . S
C608 C624 1.368 . S
H609 C617 0.950 . S
H610 C615 0.950 . S
H611 C616 0.963 . S
H612 C618 0.950 1_565 S
H613 C619 0.950 . S
H614 C620 0.949 . S
C615 H610 0.950 . S
C615 C617 1.327 1_655 S
C615 C621 1.439 . S
C616 C608 1.574 . S
C616 H611 0.963 . S
C616 C622 1.368 . S
C617 C601 1.349 . S
C617 H609 0.950 . S
C617 C615 1.327 1_455 S
C618 C606 1.349 1_545 S
C618 H612 0.950 1_545 S
C618 C619 1.327 . S
C619 H613 0.950 . S
C619 C618 1.327 . S
C619 C623 1.429 . S
C620 C603 1.574 . S
C620 H614 0.949 . S
C620 C624 1.368 . S
C621 C602 1.414 1_655 S
C621 C615 1.439 . S
C621 C622 1.527 . S
C622 C603 1.368 . S
C622 C616 1.368 . S
C622 C621 1.527 . S
C623 C607 1.429 . S
C623 C619 1.429 . S
C623 C624 1.523 . S
C624 C608 1.368 . S
C624 C620 1.368 . S
C624 C623 1.523 . S
H625 C600 0.950 . S
H626 C602 0.950 . S
H627 C603 0.949 . S
H628 C605 0.950 1_565 S
H629 C607 0.950 . S
C630 C631 1.349 . S
C630 C632 1.327 . S
C630 H655 0.950 . S
C631 C630 1.349 . S
C631 C647 1.349 . S
C632 C630 1.327 . S
C632 C651 1.429 . S
C632 H656 0.950 . S
C633 C650 1.574 . S
C633 C652 1.368 . S
C633 H657 0.949 . S
H634 C638 0.949 . S
C635 C636 1.349 . S
C635 C637 1.327 . S
C635 H658 0.950 . S
C636 C635 1.349 . S
C636 C648 1.349 . S
C637 C635 1.327 . S
C637 C653 1.429 . S
C637 H659 0.950 . S
C638 H634 0.949 . S
C638 C646 1.574 . S
C638 C654 1.368 . S
H639 C647 0.950 . S
H640 C645 0.950 . S
H641 C646 0.949 . S
H642 C648 0.950 . S
H643 C649 0.950 . S
H644 C650 0.949 . S
C645 H640 0.950 . S
C645 C647 1.327 . S
C645 C651 1.429 . S
C646 C638 1.574 . S
C646 H641 0.949 . S
C646 C652 1.368 . S
C647 C631 1.349 . S
C647 H639 0.950 . S
C647 C645 1.327 . S
C648 C636 1.349 . S
C648 H642 0.950 . S
C648 C649 1.327 . S
C649 H643 0.950 . S
C649 C648 1.327 . S
C649 C653 1.429 . S
C650 C633 1.574 . S
C650 H644 0.949 . S
C650 C654 1.368 . S
C651 C632 1.429 . S
C651 C645 1.429 . S
C651 C652 1.523 . S
C652 C633 1.368 . S
C652 C646 1.368 . S
C652 C651 1.523 . S
C653 C637 1.429 . S
C653 C649 1.429 . S
C653 C654 1.523 . S
C654 C638 1.368 . S
C654 C650 1.368 . S
C654 C653 1.523 . S
H655 C630 0.950 . S
H656 C632 0.950 . S
H657 C633 0.949 . S
H658 C635 0.950 . S
H659 C637 0.950 . S
C660 C661 1.349 . S
C660 C662 1.327 . S
C660 H685 0.950 . S
C661 C660 1.349 . S
C661 C677 1.349 . S
C662 C660 1.327 . S
C662 C681 1.429 . S
C662 H686 0.950 . S
C663 C680 1.574 . S
C663 C682 1.368 . S
C663 H687 0.949 . S
H664 C668 0.949 . S
C665 C666 1.349 . S
C665 C667 1.327 . S
C665 H688 0.950 . S
C666 C665 1.349 . S
C666 C678 1.349 . S
C667 C665 1.327 . S
C667 C683 1.429 . S
C667 H689 0.950 . S
C668 H664 0.949 . S
C668 C676 1.574 . S
C668 C684 1.368 . S
H669 C677 0.950 . S
H670 C675 0.950 . S
H671 C676 0.949 . S
H672 C678 0.950 . S
H673 C679 0.950 . S
H674 C680 0.949 . S
C675 H670 0.950 . S
C675 C677 1.327 . S
C675 C681 1.429 . S
C676 C668 1.574 . S
C676 H671 0.949 . S
C676 C682 1.368 . S
C677 C661 1.349 . S
C677 H669 0.950 . S
C677 C675 1.327 . S
C678 C666 1.349 . S
C678 H672 0.950 . S
C678 C679 1.327 . S
C679 H673 0.950 . S
C679 C678 1.327 . S
C679 C683 1.429 . S
C680 C663 1.574 . S
C680 H674 0.949 . S
C680 C684 1.368 . S
C681 C662 1.429 . S
C681 C675 1.429 . S
C681 C682 1.523 . S
C682 C663 1.368 . S
C682 C676 1.368 . S
C682 C681 1.523 . S
C683 C667 1.429 . S
C683 C679 1.429 . S
C683 C684 1.523 . S
C684 C668 1.368 . S
C684 C680 1.368 . S
C684 C683 1.523 . S
H685 C660 0.950 . S
H686 C662 0.950 . S
H687 C663 0.949 . S
H688 C665 0.950 . S
H689 C667 0.950 . S
C690 C691 1.349 . S
C690 C692 1.327 . S
C690 H715 0.950 . S
C691 C690 1.349 . S
C691 C707 1.349 . S
C692 C690 1.327 . S
C692 C711 1.429 . S
C692 H716 0.950 . S
C693 C710 1.574 . S
C693 C712 1.368 . S
C693 H717 0.949 . S
H694 C698 0.949 . S
C695 C696 1.349 . S
C695 C697 1.327 . S
C695 H718 0.950 . S
C696 C695 1.349 . S
C696 C708 1.349 . S
C697 C695 1.327 . S
C697 C713 1.429 . S
C697 H719 0.950 . S
C698 H694 0.949 . S
C698 C706 1.574 . S
C698 C714 1.368 . S
H699 C707 0.950 . S
H700 C705 0.950 . S
H701 C706 0.949 . S
H702 C708 0.950 . S
H703 C709 0.950 . S
H704 C710 0.949 . S
C705 H700 0.950 . S
C705 C707 1.327 . S
C705 C711 1.429 . S
C706 C698 1.574 . S
C706 H701 0.949 . S
C706 C712 1.368 . S
C707 C691 1.349 . S
C707 H699 0.950 . S
C707 C705 1.327 . S
C708 C696 1.349 . S
C708 H702 0.950 . S
C708 C709 1.327 . S
C709 H703 0.950 . S
C709 C708 1.327 . S
C709 C713 1.429 . S
C710 C693 1.574 . S
C710 H704 0.949 . S
C710 C714 1.368 . S
C711 C692 1.429 . S
C711 C705 1.429 . S
C711 C712 1.523 . S
C712 C693 1.368 . S
C712 C706 1.368 . S
C712 C711 1.523 . S
C713 C697 1.429 . S
C713 C709 1.429 . S
C713 C714 1.523 . S
C714 C698 1.368 . S
C714 C710 1.368 . S
C714 C713 1.523 . S
H715 C690 0.950 . S
H716 C692 0.950 . S
H717 C693 0.949 . S
H718 C695 0.950 . S
H719 C697 0.950 . S
C720 C721 1.349 . S
C720 C722 1.327 . S
C720 H745 0.950 . S
C721 C720 1.349 . S
C721 C737 1.349 . S
C722 C720 1.327 . S
C722 C741 1.429 . S
C722 H746 0.950 . S
C723 C740 1.574 . S
C723 C742 1.368 . S
C723 H747 0.949 . S
H724 C728 0.949 . S
C725 C726 1.349 . S
C725 C727 1.327 . S
C725 H748 0.950 . S
C726 C725 1.349 . S
C726 C738 1.349 . S
C727 C725 1.327 . S
C727 C743 1.429 . S
C727 H749 0.950 . S
C728 H724 0.949 . S
C728 C736 1.574 . S
C728 C744 1.368 . S
H729 C737 0.950 . S
H730 C735 0.950 . S
H731 C736 0.949 . S
H732 C738 0.950 . S
H733 C739 0.950 . S
H734 C740 0.949 . S
C735 H730 0.950 . S
C735 C737 1.327 . S
C735 C741 1.429 . S
C736 C728 1.574 . S
C736 H731 0.949 . S
C736 C742 1.368 . S
C737 C721 1.349 . S
C737 H729 0.950 . S
C737 C735 1.327 . S
C738 C726 1.349 . S
C738 H732 0.950 . S
C738 C739 1.327 . S
C739 H733 0.950 . S
C739 C738 1.327 . S
C739 C743 1.429 . S
C740 C723 1.574 . S
C740 H734 0.949 . S
C740 C744 1.368 . S
C741 C722 1.429 . S
C741 C735 1.429 . S
C741 C742 1.523 . S
C742 C723 1.368 . S
C742 C736 1.368 . S
C742 C741 1.523 . S
C743 C727 1.429 . S
C743 C739 1.429 . S
C743 C744 1.523 . S
C744 C728 1.368 . S
C744 C740 1.368 . S
C744 C743 1.523 . S
H745 C720 0.950 . S
H746 C722 0.950 . S
H747 C723 0.949 . S
H748 C725 0.950 . S
H749 C727 0.950 . S
C750 C751 1.349 . S
C750 C752 1.327 . S
C750 H775 0.950 . S
C751 C750 1.349 . S
C751 C767 1.349 . S
C752 C750 1.327 . S
C752 C771 1.429 . S
C752 H776 0.950 . S
C753 C770 1.574 . S
C753 C772 1.368 . S
C753 H777 0.949 . S
H754 C758 0.949 . S
C755 C756 1.349 . S
C755 C757 1.327 . S
C755 H778 0.950 . S
C756 C755 1.349 . S
C756 C768 1.349 . S
C757 C755 1.327 . S
C757 C773 1.429 . S
C757 H779 0.950 . S
C758 H754 0.949 . S
C758 C766 1.574 . S
C758 C774 1.368 . S
H759 C767 0.950 . S
H760 C765 0.950 . S
H761 C766 0.949 . S
H762 C768 0.950 . S
H763 C769 0.950 . S
H764 C770 0.949 . S
C765 H760 0.950 . S
C765 C767 1.327 . S
C765 C771 1.429 . S
C766 C758 1.574 . S
C766 H761 0.949 . S
C766 C772 1.368 . S
C767 C751 1.349 . S
C767 H759 0.950 . S
C767 C765 1.327 . S
C768 C756 1.349 . S
C768 H762 0.950 . S
C768 C769 1.327 . S
C769 H763 0.950 . S
C769 C768 1.327 . S
C769 C773 1.429 . S
C770 C753 1.574 . S
C770 H764 0.949 . S
C770 C774 1.368 . S
C771 C752 1.429 . S
C771 C765 1.429 . S
C771 C772 1.523 . S
C772 C753 1.368 . S
C772 C766 1.368 . S
C772 C771 1.523 . S
C773 C757 1.429 . S
C773 C769 1.429 . S
C773 C774 1.523 . S
C774 C758 1.368 . S
C774 C770 1.368 . S
C774 C773 1.523 . S
H775 C750 0.950 . S
H776 C752 0.950 . S
H777 C753 0.949 . S
H778 C755 0.950 . S
H779 C757 0.950 . S
C780 C781 1.349 . S
C780 C782 1.327 . S
C780 H805 0.950 . S
C781 C780 1.349 . S
C781 C797 1.349 . S
C782 C780 1.327 . S
C782 C801 1.429 . S
C782 H806 0.950 . S
C783 C800 1.574 . S
C783 C802 1.368 . S
C783 H807 0.949 . S
H784 C788 0.949 . S
C785 C786 1.349 . S
C785 C787 1.327 . S
C785 H808 0.950 . S
C786 C785 1.349 . S
C786 C798 1.349 . S
C787 C785 1.327 . S
C787 C803 1.429 . S
C787 H809 0.950 . S
C788 H784 0.949 . S
C788 C796 1.574 . S
C788 C804 1.368 . S
H789 C797 0.950 . S
H790 C795 0.950 . S
H791 C796 0.949 . S
H792 C798 0.950 . S
H793 C799 0.950 . S
H794 C800 0.949 . S
C795 H790 0.950 . S
C795 C797 1.327 . S
C795 C801 1.429 . S
C796 C788 1.574 . S
C796 H791 0.949 . S
C796 C802 1.368 . S
C797 C781 1.349 . S
C797 H789 0.950 . S
C797 C795 1.327 . S
C798 C786 1.349 . S
C798 H792 0.950 . S
C798 C799 1.327 . S
C799 H793 0.950 . S
C799 C798 1.327 . S
C799 C803 1.429 . S
C800 C783 1.574 . S
C800 H794 0.949 . S
C800 C804 1.368 . S
C801 C782 1.429 . S
C801 C795 1.429 . S
C801 C802 1.523 . S
C802 C783 1.368 . S
C802 C796 1.368 . S
C802 C801 1.523 . S
C803 C787 1.429 . S
C803 C799 1.429 . S
C803 C804 1.523 . S
C804 C788 1.368 . S
C804 C800 1.368 . S
C804 C803 1.523 . S
H805 C780 0.950 . S
H806 C782 0.950 . S
H807 C783 0.949 . S
H808 C785 0.950 . S
H809 C787 0.950 . S
C810 C811 1.349 . S
C810 C812 1.327 . S
C810 H835 0.950 . S
C811 C810 1.349 . S
C811 C827 1.349 . S
C812 C810 1.327 . S
C812 C831 1.429 . S
C812 H836 0.950 . S
C813 C830 1.574 1_565 S
C813 C832 1.368 . S
C813 H837 0.949 . S
H814 C818 0.949 . S
C815 C816 1.349 . S
C815 C817 1.327 . S
C815 H838 0.950 . S
C816 C815 1.349 . S
C816 C828 1.349 . S
C817 C815 1.327 . S
C817 C833 1.429 . S
C817 H839 0.950 . S
C818 H814 0.949 . S
C818 C826 1.574 1_545 S
C818 C834 1.368 . S
H819 C827 0.950 . S
H820 C825 0.950 . S
H821 C826 0.949 . S
H822 C828 0.950 . S
H823 C829 0.950 . S
H824 C830 0.949 . S
C825 H820 0.950 . S
C825 C827 1.327 . S
C825 C831 1.429 . S
C826 C818 1.574 1_565 S
C826 H821 0.949 . S
C826 C832 1.368 . S
C827 C811 1.349 . S
C827 H819 0.950 . S
C827 C825 1.327 . S
C828 C816 1.349 . S
C828 H822 0.950 . S
C828 C829 1.327 . S
C829 H823 0.950 . S
C829 C828 1.327 . S
C829 C833 1.429 . S
C830 C813 1.574 1_545 S
C830 H824 0.949 . S
C830 C834 1.368 . S
C831 C812 1.429 . S
C831 C825 1.429 . S
C831 C832 1.523 . S
C832 C813 1.368 . S
C832 C826 1.368 . S
C832 C831 1.523 . S
C833 C817 1.429 . S
C833 C829 1.429 . S
C833 C834 1.523 . S
C834 C818 1.368 . S
C834 C830 1.368 . S
C834 C833 1.523 . S
H835 C810 0.950 . S
H836 C812 0.950 . S
H837 C813 0.949 . S
H838 C815 0.950 . S
H839 C817 0.950 . S
C840 C841 1.349 . S
C840 C842 1.327 . S
C840 H865 0.950 . S
C841 C840 1.349 . S
C841 C857 1.349 . S
C842 C840 1.327 . S
C842 C861 1.429 . S
C842 H866 0.950 . S
C843 C860 1.574 1_655 S
C843 C862 1.368 . S
C843 H867 0.949 . S
H844 C848 0.949 . S
C845 C846 1.349 . S
C845 C847 1.327 . S
C845 H868 0.950 . S
C846 C845 1.349 . S
C846 C858 1.349 . S
C847 C845 1.327 . S
C847 C863 1.429 . S
C847 H869 0.950 . S
C848 H844 0.949 . S
C848 C856 1.574 1_455 S
C848 C864 1.368 . S
H849 C857 0.950 . S
H850 C855 0.950 . S
H851 C856 0.949 . S
H852 C858 0.950 . S
H853 C859 0.950 . S
H854 C860 0.949 . S
C855 H850 0.950 . S
C855 C857 1.327 . S
C855 C861 1.429 . S
C856 C848 1.574 1_655 S
C856 H851 0.949 . S
C856 C862 1.368 . S
C857 C841 1.349 . S
C857 H849 0.950 . S
C857 C855 1.327 . S
C858 C846 1.349 . S
C858 H852 0.950 . S
C858 C859 1.327 . S
C859 H853 0.950 . S
C859 C858 1.327 . S
C859 C863 1.429 . S
C860 C843 1.574 1_455 S
C860 H854 0.949 . S
C860 C864 1.368 . S
C861 C842 1.429 . S
C861 C855 1.429 . S
C861 C862 1.523 . S
C862 C843 1.368 . S
C862 C856 1.368 . S
C862 C861 1.523 . S
C863 C847 1.429 . S
C863 C859 1.429 . S
C863 C864 1.523 . S
C864 C848 1.368 . S
C864 C860 1.368 . S
C864 C863 1.523 . S
H865 C840 0.950 . S
H866 C842 0.950 . S
H867 C843 0.949 . S
H868 C845 0.950 . S
H869 C847 0.950 . S
C870 C871 1.349 . S
C870 C872 1.327 . S
C870 H895 0.950 . S
C871 C870 1.349 . S
C871 C887 1.349 . S
C872 C870 1.327 . S
C872 C891 1.429 . S
C872 H896 0.950 . S
C873 C890 1.574 . S
C873 C892 1.368 . S
C873 H897 0.949 . S
H874 C878 0.949 . S
C875 C876 1.349 . S
C875 C877 1.327 . S
C875 H898 0.950 . S
C876 C875 1.349 . S
C876 C888 1.349 . S
C877 C875 1.327 . S
C877 C893 1.429 . S
C877 H899 0.950 . S
C878 H874 0.949 . S
C878 C886 1.574 . S
C878 C894 1.368 . S
H879 C887 0.950 . S
H880 C885 0.950 . S
H881 C886 0.949 . S
H882 C888 0.950 . S
H883 C889 0.950 . S
H884 C890 0.949 . S
C885 H880 0.950 . S
C885 C887 1.327 . S
C885 C891 1.429 . S
C886 C878 1.574 . S
C886 H881 0.949 . S
C886 C892 1.368 . S
C887 C871 1.349 . S
C887 H879 0.950 . S
C887 C885 1.327 . S
C888 C876 1.349 . S
C888 H882 0.950 . S
C888 C889 1.327 . S
C889 H883 0.950 . S
C889 C888 1.327 . S
C889 C893 1.429 . S
C890 C873 1.574 . S
C890 H884 0.949 . S
C890 C894 1.368 . S
C891 C872 1.429 . S
C891 C885 1.429 . S
C891 C892 1.523 . S
C892 C873 1.368 . S
C892 C886 1.368 . S
C892 C891 1.523 . S
C893 C877 1.429 . S
C893 C889 1.429 . S
C893 C894 1.523 . S
C894 C878 1.368 . S
C894 C890 1.368 . S
C894 C893 1.523 . S
H895 C870 0.950 . S
H896 C872 0.950 . S
H897 C873 0.949 . S
H898 C875 0.950 . S
H899 C877 0.950 . S
C900 C901 1.349 . S
C900 C902 1.327 . S
C900 H925 0.950 . S
C901 C900 1.349 . S
C901 C917 1.349 . S
C902 C900 1.327 . S
C902 C921 1.429 . S
C902 H926 0.950 . S
C903 C920 1.574 . S
C903 C922 1.368 . S
C903 H927 0.949 . S
H904 C908 0.949 . S
C905 C906 1.349 . S
C905 C907 1.327 . S
C905 H928 0.950 1_455 S
C906 C905 1.349 . S
C906 C918 1.349 . S
C907 C905 1.327 . S
C907 C923 1.429 . S
C907 H929 0.950 . S
C908 H904 0.949 . S
C908 C916 1.574 . S
C908 C924 1.368 . S
H909 C917 0.950 . S
H910 C915 0.950 . S
H911 C916 0.949 . S
H912 C918 0.950 . S
H913 C919 0.950 . S
H914 C920 0.949 . S
C915 H910 0.950 . S
C915 C917 1.327 . S
C915 C921 1.429 . S
C916 C908 1.574 . S
C916 H911 0.949 . S
C916 C922 1.368 . S
C917 C901 1.349 . S
C917 H909 0.950 . S
C917 C915 1.327 . S
C918 C906 1.349 . S
C918 H912 0.950 . S
C918 C919 1.327 . S
C919 H913 0.950 . S
C919 C918 1.327 . S
C919 C923 1.429 . S
C920 C903 1.574 . S
C920 H914 0.949 . S
C920 C924 1.368 . S
C921 C902 1.429 . S
C921 C915 1.429 . S
C921 C922 1.523 . S
C922 C903 1.368 . S
C922 C916 1.368 . S
C922 C921 1.523 . S
C923 C907 1.429 . S
C923 C919 1.429 . S
C923 C924 1.523 . S
C924 C908 1.368 . S
C924 C920 1.368 . S
C924 C923 1.523 . S
H925 C900 0.950 . S
H926 C902 0.950 . S
H927 C903 0.949 . S
H928 C905 0.950 1_655 S
H929 C907 0.950 . S
C930 C931 1.349 . S
C930 C932 1.327 . S
C930 H955 0.950 . S
C931 C930 1.349 . S
C931 C947 1.349 . S
C932 C930 1.327 . S
C932 C951 1.429 . S
C932 H956 0.950 . S
C933 C950 1.574 . S
C933 C952 1.368 . S
C933 H957 0.949 . S
H934 C938 0.949 . S
C935 C936 1.349 . S
C935 C937 1.327 . S
C935 H958 0.950 . S
C936 C935 1.349 . S
C936 C948 1.349 . S
C937 C935 1.327 . S
C937 C953 1.429 . S
C937 H959 0.950 . S
C938 H934 0.949 . S
C938 C946 1.574 . S
C938 C954 1.368 . S
H939 C947 0.950 . S
H940 C945 0.950 . S
H941 C946 0.949 . S
H942 C948 0.950 . S
H943 C949 0.950 . S
H944 C950 0.949 . S
C945 H940 0.950 . S
C945 C947 1.327 . S
C945 C951 1.429 . S
C946 C938 1.574 . S
C946 H941 0.949 . S
C946 C952 1.368 . S
C947 C931 1.349 . S
C947 H939 0.950 . S
C947 C945 1.327 . S
C948 C936 1.349 . S
C948 H942 0.950 . S
C948 C949 1.327 . S
C949 H943 0.950 . S
C949 C948 1.327 . S
C949 C953 1.429 . S
C950 C933 1.574 . S
C950 H944 0.949 . S
C950 C954 1.368 . S
C951 C932 1.429 . S
C951 C945 1.429 . S
C951 C952 1.523 . S
C952 C933 1.368 . S
C952 C946 1.368 . S
C952 C951 1.523 . S
C953 C937 1.429 . S
C953 C949 1.429 . S
C953 C954 1.523 . S
C954 C938 1.368 . S
C954 C950 1.368 . S
C954 C953 1.523 . S
H955 C930 0.950 . S
H956 C932 0.950 . S
H957 C933 0.949 . S
H958 C935 0.950 . S
H959 C937 0.950 . S
C960 C961 1.349 . S
C960 C962 1.327 . S
C960 H985 0.950 1_565 S
C961 C960 1.349 . S
C961 C977 1.349 . S
C962 C960 1.327 . S
C962 C981 1.429 . S
C962 H986 0.950 1_565 S
C963 C980 1.574 . S
C963 C982 1.368 . S
C963 H987 0.949 . S
H964 C968 0.949 . S
C965 C966 1.349 . S
C965 C967 1.327 . S
C965 H988 0.950 . S
C966 C965 1.349 . S
C966 C978 1.349 . S
C967 C965 1.327 . S
C967 C983 1.429 . S
C967 H989 0.950 . S
C968 H964 0.949 . S
C968 C976 1.574 . S
C968 C984 1.368 . S
H969 C977 0.950 . S
H970 C975 0.950 . S
H971 C976 0.949 . S
H972 C978 0.950 . S
H973 C979 0.950 . S
H974 C980 0.949 . S
C975 H970 0.950 . S
C975 C977 1.327 . S
C975 C981 1.429 . S
C976 C968 1.574 . S
C976 H971 0.949 . S
C976 C982 1.368 . S
C977 C961 1.349 . S
C977 H969 0.950 . S
C977 C975 1.327 . S
C978 C966 1.349 . S
C978 H972 0.950 . S
C978 C979 1.327 . S
C979 H973 0.950 . S
C979 C978 1.327 . S
C979 C983 1.429 . S
C980 C963 1.574 . S
C980 H974 0.949 . S
C980 C984 1.368 . S
C981 C962 1.429 . S
C981 C975 1.429 . S
C981 C982 1.523 . S
C982 C963 1.368 . S
C982 C976 1.368 . S
C982 C981 1.523 . S
C983 C967 1.429 . S
C983 C979 1.429 . S
C983 C984 1.523 . S
C984 C968 1.368 . S
C984 C980 1.368 . S
C984 C983 1.523 . S
H985 C960 0.950 1_545 S
H986 C962 0.950 1_545 S
H987 C963 0.949 . S
H988 C965 0.950 . S
H989 C967 0.950 . S
C990 C991 1.349 . S
C990 C992 1.327 . S
C990 H1015 0.950 1_545 S
C991 C990 1.349 . S
C991 C1007 1.349 . S
C992 C990 1.327 . S
C992 C1011 1.429 . S
C992 H1016 0.950 . S
C993 C1010 1.574 . S
C993 C1012 1.368 . S
C993 H1017 0.949 . S
H994 C998 0.949 . S
C995 C996 1.349 . S
C995 C997 1.327 . S
C995 H1018 0.950 . S
C996 C995 1.349 . S
C996 C1008 1.349 . S
C997 C995 1.327 . S
C997 C1013 1.429 . S
C997 H1019 0.950 . S
C998 H994 0.949 . S
C998 C1006 1.574 . S
C998 C1014 1.368 . S
H999 C1007 0.950 . S
H1000 C1005 0.950 . S
H1001 C1006 0.949 . S
H1002 C1008 0.950 . S
H1003 C1009 0.950 . S
H1004 C1010 0.949 . S
C1005 H1000 0.950 . S
C1005 C1007 1.327 . S
C1005 C1011 1.429 . S
C1006 C998 1.574 . S
C1006 H1001 0.949 . S
C1006 C1012 1.368 . S
C1007 C991 1.349 . S
C1007 H999 0.950 . S
C1007 C1005 1.327 . S
C1008 C996 1.349 . S
C1008 H1002 0.950 . S
C1008 C1009 1.327 . S
C1009 H1003 0.950 . S
C1009 C1008 1.327 . S
C1009 C1013 1.429 . S
C1010 C993 1.574 . S
C1010 H1004 0.949 . S
C1010 C1014 1.368 . S
C1011 C992 1.429 . S
C1011 C1005 1.429 . S
C1011 C1012 1.523 . S
C1012 C993 1.368 . S
C1012 C1006 1.368 . S
C1012 C1011 1.523 . S
C1013 C997 1.429 . S
C1013 C1009 1.429 . S
C1013 C1014 1.523 . S
C1014 C998 1.368 . S
C1014 C1010 1.368 . S
C1014 C1013 1.523 . S
H1015 C990 0.950 1_565 S
H1016 C992 0.950 . S
H1017 C993 0.949 . S
H1018 C995 0.950 . S
H1019 C997 0.950 . S
C1020 C1021 1.349 . S
C1020 C1022 1.327 . S
C1020 H1045 0.950 1_655 S
C1021 C1020 1.349 . S
C1021 C1037 1.349 . S
C1022 C1020 1.327 . S
C1022 C1041 1.429 . S
C1022 H1046 0.950 1_655 S
C1023 C1040 1.574 . S
C1023 C1042 1.368 . S
C1023 H1047 0.949 . S
H1024 C1028 0.949 . S
C1025 C1026 1.349 . S
C1025 C1027 1.327 . S
C1025 H1048 0.950 . S
C1026 C1025 1.349 . S
C1026 C1038 1.349 . S
C1027 C1025 1.327 . S
C1027 C1043 1.429 . S
C1027 H1049 0.950 . S
C1028 H1024 0.949 . S
C1028 C1036 1.574 . S
C1028 C1044 1.368 . S
H1029 C1037 0.950 . S
H1030 C1035 0.950 . S
H1031 C1036 0.949 . S
H1032 C1038 0.950 . S
H1033 C1039 0.950 . S
H1034 C1040 0.949 . S
C1035 H1030 0.950 . S
C1035 C1037 1.327 . S
C1035 C1041 1.429 . S
C1036 C1028 1.574 . S
C1036 H1031 0.949 . S
C1036 C1042 1.368 . S
C1037 C1021 1.349 . S
C1037 H1029 0.950 . S
C1037 C1035 1.327 . S
C1038 C1026 1.349 . S
C1038 H1032 0.950 . S
C1038 C1039 1.327 . S
C1039 H1033 0.950 . S
C1039 C1038 1.327 . S
C1039 C1043 1.429 . S
C1040 C1023 1.574 . S
C1040 H1034 0.949 . S
C1040 C1044 1.368 . S
C1041 C1022 1.429 . S
C1041 C1035 1.429 . S
C1041 C1042 1.523 . S
C1042 C1023 1.368 . S
C1042 C1036 1.368 . S
C1042 C1041 1.523 . S
C1043 C1027 1.429 . S
C1043 C1039 1.429 . S
C1043 C1044 1.523 . S
C1044 C1028 1.368 . S
C1044 C1040 1.368 . S
C1044 C1043 1.523 . S
H1045 C1020 0.950 1_455 S
H1046 C1022 0.950 1_455 S
H1047 C1023 0.949 . S
H1048 C1025 0.950 . S
H1049 C1027 0.950 . S
C1050 C1051 1.349 . S
C1050 C1052 1.327 . S
C1050 H1075 0.950 . S
C1051 C1050 1.349 . S
C1051 C1067 1.349 . S
C1052 C1050 1.327 . S
C1052 C1071 1.429 . S
C1052 H1076 0.950 . S
C1053 C1070 1.574 . S
C1053 C1072 1.368 . S
C1053 H1077 0.949 . S
H1054 C1058 0.949 . S
C1055 C1056 1.349 . S
C1055 C1057 1.327 . S
C1055 H1078 0.950 . S
C1056 C1055 1.349 . S
C1056 C1068 1.349 . S
C1057 C1055 1.327 . S
C1057 C1073 1.429 . S
C1057 H1079 0.950 . S
C1058 H1054 0.949 . S
C1058 C1066 1.574 . S
C1058 C1074 1.368 . S
H1059 C1067 0.950 . S
H1060 C1065 0.950 . S
H1061 C1066 0.949 . S
H1062 C1068 0.950 . S
H1063 C1069 0.950 . S
H1064 C1070 0.949 . S
C1065 H1060 0.950 . S
C1065 C1067 1.327 . S
C1065 C1071 1.429 . S
C1066 C1058 1.574 . S
C1066 H1061 0.949 . S
C1066 C1072 1.368 . S
C1067 C1051 1.349 . S
C1067 H1059 0.950 . S
C1067 C1065 1.327 . S
C1068 C1056 1.349 . S
C1068 H1062 0.950 . S
C1068 C1069 1.327 . S
C1069 H1063 0.950 . S
C1069 C1068 1.327 . S
C1069 C1073 1.429 . S
C1070 C1053 1.574 . S
C1070 H1064 0.949 . S
C1070 C1074 1.368 . S
C1071 C1052 1.429 . S
C1071 C1065 1.429 . S
C1071 C1072 1.523 . S
C1072 C1053 1.368 . S
C1072 C1066 1.368 . S
C1072 C1071 1.523 . S
C1073 C1057 1.429 . S
C1073 C1069 1.429 . S
C1073 C1074 1.523 . S
C1074 C1058 1.368 . S
C1074 C1070 1.368 . S
C1074 C1073 1.523 . S
H1075 C1050 0.950 . S
H1076 C1052 0.950 . S
H1077 C1053 0.949 . S
H1078 C1055 0.950 . S
H1079 C1057 0.950 . S
C1080 C1081 1.349 . S
C1080 C1082 1.327 . S
C1080 H1105 0.950 . S
C1081 C1080 1.349 . S
C1081 C1097 1.349 . S
C1082 C1080 1.327 . S
C1082 C1101 1.429 . S
C1082 H1106 0.950 . S
C1083 C1100 1.574 . S
C1083 C1102 1.368 . S
C1083 H1107 0.949 . S
H1084 C1088 0.949 . S
C1085 C1086 1.349 . S
C1085 C1087 1.327 . S
C1085 H1108 0.950 . S
C1086 C1085 1.349 . S
C1086 C1098 1.349 . S
C1087 C1085 1.327 . S
C1087 C1103 1.429 . S
C1087 H1109 0.950 . S
C1088 H1084 0.949 . S
C1088 C1096 1.574 . S
C1088 C1104 1.368 . S
H1089 C1097 0.950 . S
H1090 C1095 0.950 . S
H1091 C1096 0.949 . S
H1092 C1098 0.950 . S
H1093 C1099 0.950 . S
H1094 C1100 0.949 . S
C1095 H1090 0.950 . S
C1095 C1097 1.327 . S
C1095 C1101 1.429 . S
C1096 C1088 1.574 . S
C1096 H1091 0.949 . S
C1096 C1102 1.368 . S
C1097 C1081 1.349 . S
C1097 H1089 0.950 . S
C1097 C1095 1.327 . S
C1098 C1086 1.349 . S
C1098 H1092 0.950 . S
C1098 C1099 1.327 . S
C1099 H1093 0.950 . S
C1099 C1098 1.327 . S
C1099 C1103 1.429 . S
C1100 C1083 1.574 . S
C1100 H1094 0.949 . S
C1100 C1104 1.368 . S
C1101 C1082 1.429 . S
C1101 C1095 1.429 . S
C1101 C1102 1.523 . S
C1102 C1083 1.368 . S
C1102 C1096 1.368 . S
C1102 C1101 1.523 . S
C1103 C1087 1.429 . S
C1103 C1099 1.429 . S
C1103 C1104 1.523 . S
C1104 C1088 1.368 . S
C1104 C1100 1.368 . S
C1104 C1103 1.523 . S
H1105 C1080 0.950 . S
H1106 C1082 0.950 . S
H1107 C1083 0.949 . S
H1108 C1085 0.950 . S
H1109 C1087 0.950 . S
C1110 C1111 1.349 . S
C1110 C1112 1.327 . S
C1110 H1135 0.950 . S
C1111 C1110 1.349 . S
C1111 C1127 1.349 . S
C1112 C1110 1.327 . S
C1112 C1131 1.429 . S
C1112 H1136 0.950 . S
C1113 C1130 1.574 . S
C1113 C1132 1.368 1_545 S
C1113 H1137 0.949 . S
H1114 C1118 0.949 . S
C1115 C1116 1.349 . S
C1115 C1117 1.327 . S
C1115 H1138 0.950 . S
C1116 C1115 1.349 . S
C1116 C1128 1.349 . S
C1117 C1115 1.327 . S
C1117 C1133 1.429 . S
C1117 H1139 0.950 . S
C1118 H1114 0.949 . S
C1118 C1126 1.574 . S
C1118 C1134 1.368 1_565 S
H1119 C1127 0.950 . S
H1120 C1125 0.950 . S
H1121 C1126 0.949 . S
H1122 C1128 0.950 . S
H1123 C1129 0.950 . S
H1124 C1130 0.949 . S
C1125 H1120 0.950 . S
C1125 C1127 1.327 . S
C1125 C1131 1.429 . S
C1126 C1118 1.574 . S
C1126 H1121 0.949 . S
C1126 C1132 1.368 . S
C1127 C1111 1.349 . S
C1127 H1119 0.950 . S
C1127 C1125 1.327 . S
C1128 C1116 1.349 . S
C1128 H1122 0.950 . S
C1128 C1129 1.327 . S
C1129 H1123 0.950 . S
C1129 C1128 1.327 . S
C1129 C1133 1.429 . S
C1130 C1113 1.574 . S
C1130 H1124 0.949 . S
C1130 C1134 1.368 . S
C1131 C1112 1.429 . S
C1131 C1125 1.429 . S
C1131 C1132 1.523 . S
C1132 C1113 1.368 1_565 S
C1132 C1126 1.368 . S
C1132 C1131 1.523 . S
C1133 C1117 1.429 . S
C1133 C1129 1.429 . S
C1133 C1134 1.523 . S
C1134 C1118 1.368 1_545 S
C1134 C1130 1.368 . S
C1134 C1133 1.523 . S
H1135 C1110 0.950 . S
H1136 C1112 0.950 . S
H1137 C1113 0.949 . S
H1138 C1115 0.950 . S
H1139 C1117 0.950 . S
C1140 C1141 1.349 . S
C1140 C1142 1.327 . S
C1140 H1165 0.950 . S
C1141 C1140 1.349 . S
C1141 C1157 1.349 . S
C1142 C1140 1.327 . S
C1142 C1161 1.429 . S
C1142 H1166 0.950 . S
C1143 C1160 1.574 . S
C1143 C1162 1.368 1_455 S
C1143 H1167 0.949 . S
H1144 C1148 0.949 . S
C1145 C1146 1.349 . S
C1145 C1147 1.327 . S
C1145 H1168 0.950 . S
C1146 C1145 1.349 . S
C1146 C1158 1.349 . S
C1147 C1145 1.327 . S
C1147 C1163 1.429 . S
C1147 H1169 0.950 . S
C1148 H1144 0.949 . S
C1148 C1156 1.574 . S
C1148 C1164 1.368 1_655 S
H1149 C1157 0.950 . S
H1150 C1155 0.950 . S
H1151 C1156 0.949 . S
H1152 C1158 0.950 . S
H1153 C1159 0.950 . S
H1154 C1160 0.949 . S
C1155 H1150 0.950 . S
C1155 C1157 1.327 . S
C1155 C1161 1.429 . S
C1156 C1148 1.574 . S
C1156 H1151 0.949 . S
C1156 C1162 1.368 . S
C1157 C1141 1.349 . S
C1157 H1149 0.950 . S
C1157 C1155 1.327 . S
C1158 C1146 1.349 . S
C1158 H1152 0.950 . S
C1158 C1159 1.327 . S
C1159 H1153 0.950 . S
C1159 C1158 1.327 . S
C1159 C1163 1.429 . S
C1160 C1143 1.574 . S
C1160 H1154 0.949 . S
C1160 C1164 1.368 . S
C1161 C1142 1.429 . S
C1161 C1155 1.429 . S
C1161 C1162 1.523 . S
C1162 C1143 1.368 1_655 S
C1162 C1156 1.368 . S
C1162 C1161 1.523 . S
C1163 C1147 1.429 . S
C1163 C1159 1.429 . S
C1163 C1164 1.523 . S
C1164 C1148 1.368 1_455 S
C1164 C1160 1.368 . S
C1164 C1163 1.523 . S
H1165 C1140 0.950 . S
H1166 C1142 0.950 . S
H1167 C1143 0.949 . S
H1168 C1145 0.950 . S
H1169 C1147 0.950 . S
C361 C46 1.469 . S
C366 C10 1.497 . S
C391 C86 1.469 . S
C396 C50 1.497 . S
C421 C90 1.497 . S
C426 C6 1.469 . S
C451 C95 1.375 . S
C456 C59 1.333 . S
C481 C99 1.333 . S
C486 C15 1.375 . S
C511 C19 1.333 . S
C516 C55 1.375 . S
C541 C130 1.497 . S
C546 C166 1.469 . S
C571 C206 1.469 . S
C576 C170 1.497 . S
C601 C210 1.497 . S
C606 C126 1.469 . S
C631 C179 1.332 . S
C636 C215 1.375 . S
C661 C219 1.333 . S
C666 C135 1.375 . S
C691 C175 1.375 . S
C696 C139 1.332 . S
C721 C286 1.469 . S
C726 C250 1.497 . S
C751 C290 1.497 . S
C756 C326 1.469 . S
C781 C330 1.497 . S
C786 C246 1.469 . S
C811 C335 1.375 . S
C816 C299 1.333 . S
C841 C339 1.332 . S
C846 C255 1.375 . S
C871 C259 1.333 . S
C876 C295 1.375 . S
C901 C209 2.560 . S
C906 C18 2.283 . S
C931 C129 2.561 . S
C936 C58 2.283 . S
C961 C98 2.283 . S
C966 C169 2.561 . S
C991 C89 2.561 . S
C996 C258 2.283 . S
C1021 C9 2.561 . S
C1026 C298 2.283 . S
C1051 C338 2.283 . S
C1056 C49 2.560 . S
C1081 C138 2.283 . S
C1086 C329 2.560 . S
C1111 C178 2.283 . S
C1116 C249 2.561 . S
C1141 C289 2.561 . S
C1146 C218 2.283 . S
