# Generated by pormake.
# Topology zfp, (5)-cn, num edge types: 1
# Building blocks:
#     Node 0, Type 0, BuildingBlock: BEQFEK_clean_sbu_0, # of connection points: 5
#     Node 1, Type 0, BuildingBlock: BEQFEK_clean_sbu_0, # of connection points: 5
#     Node 2, Type 0, BuildingBlock: BEQFEK_clean_sbu_0, # of connection points: 5
#     Node 3, Type 0, BuildingBlock: BEQFEK_clean_sbu_0, # of connection points: 5
#     Node 4, Type 0, BuildingBlock: BEQFEK_clean_sbu_0, # of connection points: 5
#     Node 5, Type 0, BuildingBlock: BEQFEK_clean_sbu_0, # of connection points: 5
#     Node 6, Type 0, BuildingBlock: BEQFEK_clean_sbu_0, # of connection points: 5
#     Node 7, Type 0, BuildingBlock: BEQFEK_clean_sbu_0, # of connection points: 5
#     Node 8, Type 0, BuildingBlock: BEQFEK_clean_sbu_0, # of connection points: 5
#     Node 9, Type 0, BuildingBlock: BEQFEK_clean_sbu_0, # of connection points: 5
#     Node 10, Type 0, BuildingBlock: BEQFEK_clean_sbu_0, # of connection points: 5
#     Node 11, Type 0, BuildingBlock: BEQFEK_clean_sbu_0, # of connection points: 5
#     Node 12, Type 0, BuildingBlock: BEQFEK_clean_sbu_0, # of connection points: 5
#     Node 13, Type 0, BuildingBlock: BEQFEK_clean_sbu_0, # of connection points: 5
#     Node 14, Type 0, BuildingBlock: BEQFEK_clean_sbu_0, # of connection points: 5
#     Node 15, Type 0, BuildingBlock: BEQFEK_clean_sbu_0, # of connection points: 5
#     Edge 16, Type (0, 0), BuildingBlock: XIVTED_clean_linker_0, # of connection points: 2
#     Edge 17, Type (0, 0), BuildingBlock: XIVTED_clean_linker_0, # of connection points: 2
#     Edge 18, Type (0, 0), BuildingBlock: XIVTED_clean_linker_0, # of connection points: 2
#     Edge 19, Type (0, 0), BuildingBlock: XIVTED_clean_linker_0, # of connection points: 2
#     Edge 20, Type (0, 0), BuildingBlock: XIVTED_clean_linker_0, # of connection points: 2
#     Edge 21, Type (0, 0), BuildingBlock: XIVTED_clean_linker_0, # of connection points: 2
#     Edge 22, Type (0, 0), BuildingBlock: XIVTED_clean_linker_0, # of connection points: 2
#     Edge 23, Type (0, 0), BuildingBlock: XIVTED_clean_linker_0, # of connection points: 2
#     Edge 24, Type (0, 0), BuildingBlock: XIVTED_clean_linker_0, # of connection points: 2
#     Edge 25, Type (0, 0), BuildingBlock: XIVTED_clean_linker_0, # of connection points: 2
#     Edge 26, Type (0, 0), BuildingBlock: XIVTED_clean_linker_0, # of connection points: 2
#     Edge 27, Type (0, 0), BuildingBlock: XIVTED_clean_linker_0, # of connection points: 2
#     Edge 28, Type (0, 0), BuildingBlock: XIVTED_clean_linker_0, # of connection points: 2
#     Edge 29, Type (0, 0), BuildingBlock: XIVTED_clean_linker_0, # of connection points: 2
#     Edge 30, Type (0, 0), BuildingBlock: XIVTED_clean_linker_0, # of connection points: 2
#     Edge 31, Type (0, 0), BuildingBlock: XIVTED_clean_linker_0, # of connection points: 2
#     Edge 32, Type (0, 0), BuildingBlock: XIVTED_clean_linker_0, # of connection points: 2
#     Edge 33, Type (0, 0), BuildingBlock: XIVTED_clean_linker_0, # of connection points: 2
#     Edge 34, Type (0, 0), BuildingBlock: XIVTED_clean_linker_0, # of connection points: 2
#     Edge 35, Type (0, 0), BuildingBlock: XIVTED_clean_linker_0, # of connection points: 2
#     Edge 36, Type (0, 0), BuildingBlock: XIVTED_clean_linker_0, # of connection points: 2
#     Edge 37, Type (0, 0), BuildingBlock: XIVTED_clean_linker_0, # of connection points: 2
#     Edge 38, Type (0, 0), BuildingBlock: XIVTED_clean_linker_0, # of connection points: 2
#     Edge 39, Type (0, 0), BuildingBlock: XIVTED_clean_linker_0, # of connection points: 2
#     Edge 40, Type (0, 0), BuildingBlock: XIVTED_clean_linker_0, # of connection points: 2
#     Edge 41, Type (0, 0), BuildingBlock: XIVTED_clean_linker_0, # of connection points: 2
#     Edge 42, Type (0, 0), BuildingBlock: XIVTED_clean_linker_0, # of connection points: 2
#     Edge 43, Type (0, 0), BuildingBlock: XIVTED_clean_linker_0, # of connection points: 2
#     Edge 44, Type (0, 0), BuildingBlock: XIVTED_clean_linker_0, # of connection points: 2
#     Edge 45, Type (0, 0), BuildingBlock: XIVTED_clean_linker_0, # of connection points: 2
#     Edge 46, Type (0, 0), BuildingBlock: XIVTED_clean_linker_0, # of connection points: 2
#     Edge 47, Type (0, 0), BuildingBlock: XIVTED_clean_linker_0, # of connection points: 2
#     Edge 48, Type (0, 0), BuildingBlock: XIVTED_clean_linker_0, # of connection points: 2
#     Edge 49, Type (0, 0), BuildingBlock: XIVTED_clean_linker_0, # of connection points: 2
#     Edge 50, Type (0, 0), BuildingBlock: XIVTED_clean_linker_0, # of connection points: 2
#     Edge 51, Type (0, 0), BuildingBlock: XIVTED_clean_linker_0, # of connection points: 2
#     Edge 52, Type (0, 0), BuildingBlock: XIVTED_clean_linker_0, # of connection points: 2
#     Edge 53, Type (0, 0), BuildingBlock: XIVTED_clean_linker_0, # of connection points: 2
#     Edge 54, Type (0, 0), BuildingBlock: XIVTED_clean_linker_0, # of connection points: 2
#     Edge 55, Type (0, 0), BuildingBlock: XIVTED_clean_linker_0, # of connection points: 2
# Relax obj value: 0.110
# Max RMSD: 0.152
# Mean RMSD: 0.152
data_MOF--net-zfp--node1-BEQFEK_clean_sbu_0--edge1-XIVTED_clean_linker_0
_symmetry_space_group_name_H-M    P1
_symmetry_Int_Tables_number       1
_symmetry_cell_setting            triclinic
loop_
_symmetry_equiv_pos_as_xyz
'x, y, z'
_cell_length_a     30.593147
_cell_length_b     30.60785
_cell_length_c     78.306417
_cell_angle_alpha  89.948589
_cell_angle_beta   89.958152
_cell_angle_gamma 90.012114
loop_
_atom_site_label
_atom_site_type_symbol
_atom_site_fract_x
_atom_site_fract_y
_atom_site_fract_z
_atom_type_partial_charge
Co0 Co 0.15791 0.321 0.15015 0.0
Co1 Co 0.15865 0.31122 0.11044 0.0
C2 C 0.09992 0.25624 0.13132 0.0
O3 O 0.11454 0.27452 0.14478 0.0
O4 O 0.11555 0.26547 0.11666 0.0
C5 C 0.17976 0.28994 0.18355 0.0
O6 O 0.1902 0.25379 0.17549 0.0
C7 C 0.16101 0.28194 0.07442 0.0
C8 C 0.19924 0.3356 0.0628 0.0
C9 C 0.17885 0.29636 0.05912 0.0
N10 N 0.17079 0.3113 0.08661 0.0
N11 N 0.19339 0.34336 0.07953 0.0
C12 C 0.13729 0.24003 0.07768 0.0
H13 H 0.14902 0.22525 0.08978 0.0
H14 H 0.14208 0.21652 0.06706 0.0
H15 H 0.10188 0.24698 0.07911 0.0
C16 C 0.25395 0.31517 0.14483 0.0
N17 N 0.21241 0.31374 0.13911 0.0
N18 N 0.21258 0.30603 0.12261 0.0
C19 C 0.2543 0.30005 0.11745 0.0
C20 C 0.28208 0.30619 0.13132 0.0
C21 C 0.26661 0.32956 0.16241 0.0
H22 H 0.24181 0.35233 0.16764 0.0
H23 H 0.26883 0.30059 0.17088 0.0
H24 H 0.29889 0.34611 0.16229 0.0
O25 O 0.13029 0.37584 0.14329 0.0
O26 O 0.12805 0.36788 0.11514 0.0
H27 H 0.27232 0.31512 0.09174 0.0
H28 H 0.29809 0.2669 0.10017 0.0
C29 C 0.2672 0.28588 0.09987 0.0
H30 H 0.24119 0.26536 0.09416 0.0
H31 H 0.20523 0.37036 0.08621 0.0
O32 O 0.16541 0.32236 0.17511 0.0
C33 C 0.11869 0.38934 0.12861 0.0
Co34 Co 0.68196 0.15788 0.65116 0.0
Co35 Co 0.68931 0.15696 0.61118 0.0
C36 C 0.74537 0.099 0.63177 0.0
O37 O 0.72787 0.11405 0.64534 0.0
O38 O 0.73545 0.11428 0.61713 0.0
C39 C 0.7132 0.18431 0.68441 0.0
O40 O 0.74771 0.1985 0.67608 0.0
C41 C 0.71537 0.15698 0.57465 0.0
C42 C 0.66063 0.19431 0.56341 0.0
C43 C 0.69944 0.17353 0.55935 0.0
N44 N 0.68723 0.16777 0.58718 0.0
N45 N 0.65452 0.18984 0.58032 0.0
C46 C 0.75756 0.13345 0.57754 0.0
H47 H 0.77327 0.14568 0.58938 0.0
H48 H 0.78023 0.13782 0.56661 0.0
H49 H 0.75075 0.09811 0.57928 0.0
C50 C 0.68542 0.25364 0.64484 0.0
N51 N 0.688 0.21183 0.63953 0.0
N52 N 0.69522 0.21123 0.62298 0.0
C53 C 0.70004 0.25271 0.61741 0.0
C54 C 0.69342 0.28116 0.63103 0.0
C55 C 0.66991 0.26693 0.66222 0.0
H56 H 0.6488 0.24116 0.6678 0.0
H57 H 0.69849 0.27207 0.67068 0.0
H58 H 0.65117 0.29794 0.66158 0.0
O59 O 0.62656 0.13015 0.64515 0.0
O60 O 0.63303 0.12682 0.61694 0.0
H61 H 0.68364 0.26925 0.59167 0.0
H62 H 0.73208 0.29578 0.59953 0.0
C63 C 0.71329 0.26476 0.59961 0.0
H64 H 0.7337 0.23859 0.59395 0.0
H65 H 0.62814 0.20219 0.58725 0.0
O66 O 0.6822 0.16629 0.67624 0.0
C67 C 0.61224 0.11812 0.63066 0.0
Co68 Co 0.83807 0.67665 0.15106 0.0
Co69 Co 0.83699 0.68745 0.11119 0.0
C70 C 0.89655 0.74131 0.13219 0.0
O71 O 0.88211 0.72302 0.14573 0.0
O72 O 0.88037 0.73251 0.11759 0.0
C73 C 0.81596 0.7051 0.18512 0.0
O74 O 0.80604 0.7422 0.17762 0.0
C75 C 0.83484 0.71772 0.07518 0.0
C76 C 0.79698 0.66418 0.06336 0.0
C77 C 0.81735 0.70352 0.05979 0.0
N78 N 0.82492 0.68811 0.08729 0.0
N79 N 0.80253 0.65614 0.0801 0.0
C80 C 0.85838 0.75964 0.07858 0.0
H81 H 0.84718 0.77365 0.09089 0.0
H82 H 0.85286 0.78367 0.06819 0.0
H83 H 0.89391 0.7529 0.07964 0.0
C84 C 0.74182 0.68344 0.14566 0.0
N85 N 0.78347 0.68465 0.13998 0.0
N86 N 0.7834 0.69269 0.12349 0.0
C87 C 0.74179 0.69909 0.11832 0.0
C88 C 0.71386 0.69284 0.13214 0.0
C89 C 0.72885 0.66897 0.16322 0.0
H90 H 0.75326 0.64574 0.1684 0.0
H91 H 0.72703 0.69784 0.17173 0.0
H92 H 0.69631 0.65293 0.16306 0.0
O93 O 0.8656 0.62195 0.14377 0.0
O94 O 0.86707 0.63057 0.11563 0.0
H95 H 0.72412 0.68494 0.09251 0.0
H96 H 0.69835 0.73296 0.1011 0.0
C97 C 0.72919 0.71388 0.10078 0.0
H98 H 0.75533 0.73453 0.09521 0.0
H99 H 0.79067 0.62895 0.08668 0.0
O100 O 0.83029 0.67356 0.17618 0.0
C101 C 0.87676 0.60878 0.12899 0.0
Co102 Co 0.3065 0.84869 0.64825 0.0
Co103 Co 0.31296 0.84279 0.60848 0.0
C104 C 0.25064 0.90428 0.62478 0.0
O105 O 0.26214 0.89146 0.63965 0.0
O106 O 0.26639 0.8868 0.61135 0.0
C107 C 0.31506 0.86688 0.68394 0.0
O108 O 0.3344 0.90265 0.67854 0.0
C109 C 0.29546 0.83238 0.57163 0.0
C110 C 0.357 0.80074 0.56346 0.0
C111 C 0.31666 0.81468 0.55759 0.0
N112 N 0.32212 0.82872 0.5852 0.0
N113 N 0.35893 0.81017 0.58018 0.0
C114 C 0.24961 0.84916 0.57255 0.0
H115 H 0.23485 0.84053 0.58505 0.0
H116 H 0.22934 0.83564 0.56206 0.0
H117 H 0.25015 0.88531 0.57146 0.0
C118 C 0.30224 0.75237 0.6443 0.0
N119 N 0.30329 0.79308 0.63772 0.0
N120 N 0.30282 0.79068 0.62099 0.0
C121 C 0.2996 0.74836 0.61634 0.0
C122 C 0.29968 0.72242 0.63096 0.0
C123 C 0.30797 0.74259 0.66291 0.0
H124 H 0.33242 0.76517 0.66849 0.0
H125 H 0.27638 0.74767 0.66958 0.0
H126 H 0.31913 0.70855 0.66504 0.0
O127 O 0.36386 0.87619 0.64411 0.0
O128 O 0.36737 0.8725 0.61586 0.0
H129 H 0.32668 0.73045 0.59217 0.0
H130 H 0.27763 0.70101 0.59776 0.0
C131 C 0.2941 0.73328 0.59829 0.0
H132 H 0.27427 0.75719 0.59103 0.0
H133 H 0.38503 0.80313 0.5883 0.0
O134 O 0.29919 0.84045 0.67311 0.0
C135 C 0.38333 0.88452 0.63011 0.0
Co136 Co 0.64909 0.20316 0.84412 0.0
Co137 Co 0.64576 0.19442 0.884 0.0
C138 C 0.59027 0.25954 0.86478 0.0
O139 O 0.60593 0.24928 0.85023 0.0
O140 O 0.60428 0.24167 0.87841 0.0
C141 C 0.66482 0.23606 0.80933 0.0
O142 O 0.66273 0.27583 0.81558 0.0
C143 C 0.65673 0.22051 0.91998 0.0
C144 C 0.63541 0.16009 0.93305 0.0
C145 C 0.64842 0.20272 0.93593 0.0
N146 N 0.64867 0.18969 0.90816 0.0
N147 N 0.63634 0.15358 0.91609 0.0
C148 C 0.66829 0.26682 0.91594 0.0
H149 H 0.66846 0.27236 0.90193 0.0
H150 H 0.70113 0.27432 0.92117 0.0
H151 H 0.64455 0.28914 0.92216 0.0
C152 C 0.74454 0.20831 0.85188 0.0
N153 N 0.70238 0.20632 0.85687 0.0
N154 N 0.70098 0.20091 0.87353 0.0
C155 C 0.74203 0.19793 0.87963 0.0
C156 C 0.77123 0.20268 0.86612 0.0
C157 C 0.75857 0.2169 0.83388 0.0
H158 H 0.75171 0.18766 0.82595 0.0
H159 H 0.73949 0.2446 0.82868 0.0
H160 H 0.79375 0.22528 0.83301 0.0
O161 O 0.61882 0.14647 0.84809 0.0
O162 O 0.61831 0.14052 0.87629 0.0
H163 H 0.72842 0.16207 0.9026 0.0
H164 H 0.78575 0.17122 0.89872 0.0
C165 C 0.75269 0.18585 0.89769 0.0
H166 H 0.75131 0.21558 0.90576 0.0
H167 H 0.6272 0.12485 0.9099 0.0
O168 O 0.66067 0.20342 0.81923 0.0
C169 C 0.60857 0.12579 0.86163 0.0
Co170 Co 0.8062 0.63906 0.3443 0.0
Co171 Co 0.81215 0.64651 0.38419 0.0
C172 C 0.75031 0.58431 0.36842 0.0
O173 O 0.76209 0.59648 0.35349 0.0
O174 O 0.76571 0.60244 0.38176 0.0
C175 C 0.76946 0.65888 0.31066 0.0
O176 O 0.73564 0.67516 0.31881 0.0
C177 C 0.79683 0.65789 0.42137 0.0
C178 C 0.85896 0.68975 0.42864 0.0
C179 C 0.81925 0.67571 0.43511 0.0
N180 N 0.82224 0.66158 0.4074 0.0
N181 N 0.85941 0.68026 0.4119 0.0
C182 C 0.75114 0.64054 0.42115 0.0
H183 H 0.73545 0.6479 0.4087 0.0
H184 H 0.73146 0.65477 0.43168 0.0
H185 H 0.75216 0.60453 0.42274 0.0
C186 C 0.80518 0.73638 0.34795 0.0
N187 N 0.80351 0.69552 0.35444 0.0
N188 N 0.80189 0.69795 0.37119 0.0
C189 C 0.8 0.74029 0.37586 0.0
C190 C 0.80279 0.76627 0.36132 0.0
C191 C 0.81489 0.74648 0.32963 0.0
H192 H 0.83397 0.71961 0.32377 0.0
H193 H 0.78373 0.75036 0.32256 0.0
H194 H 0.8337 0.77735 0.32845 0.0
O195 O 0.86342 0.61257 0.3487 0.0
O196 O 0.86674 0.61685 0.37692 0.0
H197 H 0.82583 0.75817 0.40024 0.0
H198 H 0.77738 0.78785 0.3942 0.0
C199 C 0.7936 0.75544 0.39386 0.0
H200 H 0.77317 0.73171 0.40098 0.0
H201 H 0.88484 0.68721 0.40344 0.0
O202 O 0.80091 0.64248 0.3191 0.0
C203 C 0.88297 0.60493 0.3627 0.0
Co204 Co 0.35692 0.80571 0.84231 0.0
Co205 Co 0.35143 0.8101 0.88214 0.0
C206 C 0.41259 0.74843 0.86469 0.0
O207 O 0.39975 0.75998 0.84984 0.0
O208 O 0.39531 0.76438 0.8781 0.0
C209 C 0.34112 0.777 0.80669 0.0
O210 O 0.33177 0.73758 0.81225 0.0
C211 C 0.3436 0.7847 0.91822 0.0
C212 C 0.33524 0.84936 0.93036 0.0
C213 C 0.34009 0.80534 0.93386 0.0
N214 N 0.34109 0.81529 0.90593 0.0
N215 N 0.33563 0.85378 0.91327 0.0
C216 C 0.35283 0.73746 0.91503 0.0
H217 H 0.38869 0.7321 0.91547 0.0
H218 H 0.34078 0.72783 0.9022 0.0
H219 H 0.33744 0.71678 0.925 0.0
C220 C 0.2599 0.80277 0.84669 0.0
N221 N 0.30094 0.80198 0.85298 0.0
N222 N 0.29901 0.80145 0.86975 0.0
C223 C 0.25684 0.80024 0.8747 0.0
C224 C 0.2304 0.80147 0.86025 0.0
C225 C 0.24936 0.81014 0.82824 0.0
H226 H 0.27361 0.83261 0.82246 0.0
H227 H 0.25071 0.77847 0.82139 0.0
H228 H 0.21631 0.82443 0.82662 0.0
O229 O 0.38424 0.86216 0.84745 0.0
O230 O 0.3797 0.86569 0.87563 0.0
H231 H 0.24508 0.82958 0.89903 0.0
H232 H 0.20846 0.78495 0.89402 0.0
C233 C 0.24255 0.79696 0.89294 0.0
H234 H 0.26427 0.77414 0.89991 0.0
H235 H 0.33372 0.88327 0.90662 0.0
O236 O 0.35174 0.80666 0.81722 0.0
C237 C 0.39159 0.88189 0.86141 0.0
Co238 Co 0.19398 0.34439 0.34302 0.0
Co239 Co 0.19992 0.34516 0.38286 0.0
C240 C 0.25748 0.40228 0.36263 0.0
O241 O 0.23998 0.38747 0.34904 0.0
O242 O 0.24705 0.38723 0.37726 0.0
C243 C 0.22629 0.32114 0.30949 0.0
O244 O 0.26185 0.30814 0.3174 0.0
C245 C 0.22037 0.34818 0.41984 0.0
C246 C 0.16028 0.31798 0.43022 0.0
C247 C 0.19923 0.33744 0.43491 0.0
N248 N 0.19499 0.33531 0.40675 0.0
N249 N 0.1594 0.31691 0.41307 0.0
C250 C 0.2617 0.37372 0.41787 0.0
H251 H 0.2535 0.40757 0.41392 0.0
H252 H 0.28209 0.35898 0.40766 0.0
H253 H 0.28032 0.37483 0.43002 0.0
C254 C 0.19674 0.24884 0.34915 0.0
N255 N 0.19939 0.29048 0.35458 0.0
N256 N 0.20529 0.29082 0.3712 0.0
C257 C 0.20867 0.24925 0.3768 0.0
C258 C 0.20295 0.22108 0.36302 0.0
C259 C 0.18306 0.23611 0.33148 0.0
H260 H 0.16184 0.26169 0.32585 0.0
H261 H 0.21251 0.23231 0.32335 0.0
H262 H 0.165 0.20466 0.33159 0.0
O263 O 0.13841 0.37216 0.34863 0.0
O264 O 0.14435 0.37541 0.37681 0.0
H265 H 0.18795 0.23409 0.40218 0.0
H266 H 0.23622 0.20515 0.39542 0.0
C267 C 0.21887 0.23696 0.39486 0.0
H268 H 0.23952 0.2624 0.40089 0.0
H269 H 0.13375 0.30501 0.40563 0.0
O270 O 0.19468 0.3367 0.31806 0.0
C271 C 0.12376 0.38403 0.36308 0.0
Co272 Co 0.84807 0.69708 0.84608 0.0
Co273 Co 0.85913 0.69609 0.88582 0.0
C274 C 0.91128 0.75659 0.86312 0.0
O275 O 0.89275 0.74272 0.8496 0.0
O276 O 0.89985 0.74275 0.87783 0.0
C277 C 0.83686 0.72218 0.81047 0.0
O278 O 0.856 0.75921 0.81445 0.0
C279 C 0.84997 0.72441 0.92191 0.0
C280 C 0.88105 0.66838 0.93497 0.0
C281 C 0.86237 0.70882 0.93782 0.0
N282 N 0.8611 0.69438 0.91013 0.0
N283 N 0.87947 0.66098 0.91808 0.0
C284 C 0.83137 0.76832 0.91784 0.0
H285 H 0.82699 0.77224 0.90384 0.0
H286 H 0.79944 0.77233 0.92437 0.0
H287 H 0.85356 0.79412 0.92274 0.0
C288 C 0.75544 0.70521 0.85581 0.0
N289 N 0.79797 0.70379 0.86012 0.0
N290 N 0.8015 0.70068 0.87681 0.0
C291 C 0.76099 0.6982 0.88363 0.0
C292 C 0.7303 0.70096 0.87051 0.0
C293 C 0.73961 0.71193 0.8379 0.0
H294 H 0.76082 0.73602 0.83133 0.0
H295 H 0.7055 0.72417 0.83764 0.0
H296 H 0.74147 0.68054 0.83086 0.0
O297 O 0.8778 0.64078 0.85033 0.0
O298 O 0.88557 0.64086 0.87844 0.0
H299 H 0.77893 0.66857 0.90753 0.0
H300 H 0.72082 0.67001 0.90346 0.0
C301 C 0.75199 0.6882 0.90201 0.0
H302 H 0.74933 0.71926 0.90921 0.0
H303 H 0.89179 0.63337 0.91195 0.0
O304 O 0.83058 0.69354 0.82194 0.0
C305 C 0.89151 0.62299 0.86399 0.0
Co306 Co 0.30768 0.84445 0.34198 0.0
Co307 Co 0.31003 0.84413 0.38175 0.0
C308 C 0.24867 0.90196 0.36387 0.0
O309 O 0.26329 0.88763 0.34968 0.0
O310 O 0.26195 0.88629 0.37803 0.0
C311 C 0.30382 0.86588 0.30687 0.0
O312 O 0.31138 0.90548 0.31262 0.0
C313 C 0.29325 0.8357 0.41882 0.0
C314 C 0.35698 0.80908 0.42716 0.0
C315 C 0.31581 0.82046 0.43298 0.0
N316 N 0.31998 0.83304 0.40522 0.0
N317 N 0.35809 0.81756 0.41034 0.0
C318 C 0.24628 0.84898 0.41784 0.0
H319 H 0.23258 0.84038 0.40517 0.0
H320 H 0.22685 0.83303 0.42808 0.0
H321 H 0.24398 0.88493 0.41943 0.0
C322 C 0.30617 0.74907 0.34772 0.0
N323 N 0.30461 0.79046 0.35349 0.0
N324 N 0.30222 0.79017 0.37022 0.0
C325 C 0.30046 0.74838 0.37567 0.0
C326 C 0.30345 0.72073 0.3616 0.0
C327 C 0.31489 0.73746 0.32946 0.0
H328 H 0.28371 0.7384 0.32224 0.0
H329 H 0.32952 0.70444 0.32828 0.0
H330 H 0.33755 0.76161 0.32369 0.0
O331 O 0.36469 0.87235 0.3455 0.0
O332 O 0.36388 0.87426 0.3738 0.0
H333 H 0.32646 0.73492 0.40044 0.0
H334 H 0.27936 0.70238 0.39495 0.0
C335 C 0.29428 0.73533 0.39394 0.0
H336 H 0.27279 0.75915 0.40048 0.0
H337 H 0.38453 0.81179 0.40223 0.0
O338 O 0.30006 0.83461 0.3174 0.0
C339 C 0.38192 0.88358 0.35959 0.0
Co340 Co 0.15009 0.30374 0.84538 0.0
Co341 Co 0.14585 0.31153 0.88519 0.0
C342 C 0.09001 0.24753 0.86538 0.0
O343 O 0.10627 0.25786 0.85093 0.0
O344 O 0.10375 0.26505 0.87912 0.0
C345 C 0.1548 0.27617 0.80958 0.0
O346 O 0.13313 0.24089 0.81404 0.0
C347 C 0.15689 0.28475 0.92113 0.0
C348 C 0.133 0.34399 0.93431 0.0
C349 C 0.14763 0.30185 0.9371 0.0
N350 N 0.14783 0.3155 0.90938 0.0
N351 N 0.13393 0.35089 0.91737 0.0
C352 C 0.17035 0.23903 0.91701 0.0
H353 H 0.17148 0.23397 0.90298 0.0
H354 H 0.20311 0.23252 0.92252 0.0
H355 H 0.14705 0.21569 0.92293 0.0
C356 C 0.24471 0.29671 0.85334 0.0
N357 N 0.20265 0.29916 0.85836 0.0
N358 N 0.20129 0.30448 0.87502 0.0
C359 C 0.24241 0.30719 0.88108 0.0
C360 C 0.27153 0.30225 0.86754 0.0
C361 C 0.2585 0.28819 0.83531 0.0
H362 H 0.23618 0.26402 0.82939 0.0
H363 H 0.29238 0.27539 0.83468 0.0
H364 H 0.25645 0.31902 0.82788 0.0
O365 O 0.12034 0.36073 0.84931 0.0
O366 O 0.11986 0.36619 0.87751 0.0
H367 H 0.22821 0.34216 0.90421 0.0
H368 H 0.28573 0.33553 0.8999 0.0
C369 C 0.25326 0.31953 0.89909 0.0
H370 H 0.2536 0.28967 0.90712 0.0
H371 H 0.12379 0.37941 0.91124 0.0
O372 O 0.16453 0.30444 0.82081 0.0
C373 C 0.11051 0.38137 0.86288 0.0
Co374 Co 0.69732 0.14848 0.34434 0.0
Co375 Co 0.69365 0.13734 0.38415 0.0
C376 C 0.75507 0.08464 0.36247 0.0
O377 O 0.74176 0.10319 0.34888 0.0
O378 O 0.74086 0.09626 0.37709 0.0
C379 C 0.69632 0.13459 0.30891 0.0
O380 O 0.69169 0.09404 0.31414 0.0
C381 C 0.71855 0.14564 0.42065 0.0
C382 C 0.6595 0.11826 0.43294 0.0
C383 C 0.70065 0.13471 0.43636 0.0
N384 N 0.68916 0.13588 0.40845 0.0
N385 N 0.65392 0.11972 0.41593 0.0
C386 C 0.76388 0.16156 0.41718 0.0
H387 H 0.76964 0.16466 0.40323 0.0
H388 H 0.76884 0.19373 0.42338 0.0
H389 H 0.78785 0.13847 0.42281 0.0
C390 C 0.70521 0.24124 0.35424 0.0
N391 N 0.70328 0.19864 0.35844 0.0
N392 N 0.69961 0.19486 0.37512 0.0
C393 C 0.69743 0.23523 0.38203 0.0
C394 C 0.701 0.26613 0.36901 0.0
C395 C 0.71189 0.25735 0.33637 0.0
H396 H 0.73564 0.23603 0.32966 0.0
H397 H 0.72442 0.29135 0.33617 0.0
H398 H 0.68037 0.25591 0.32939 0.0
O399 O 0.63986 0.11958 0.34772 0.0
O400 O 0.63906 0.11123 0.37583 0.0
H401 H 0.66536 0.21784 0.4055 0.0
H402 H 0.67002 0.27587 0.40189 0.0
C403 C 0.68674 0.24395 0.40037 0.0
H404 H 0.71744 0.24461 0.40788 0.0
H405 H 0.62631 0.10888 0.40942 0.0
O406 O 0.70022 0.16472 0.31994 0.0
C407 C 0.62157 0.10569 0.36128 0.0
Co408 Co 0.33953 0.82934 0.14655 0.0
Co409 Co 0.33687 0.81219 0.10732 0.0
C410 C 0.39714 0.76158 0.12932 0.0
O411 O 0.38297 0.78222 0.14235 0.0
O412 O 0.38092 0.76807 0.11453 0.0
C413 C 0.32751 0.8059 0.18163 0.0
O414 O 0.32611 0.76569 0.17579 0.0
C415 C 0.33761 0.78044 0.07155 0.0
C416 C 0.29015 0.82619 0.05998 0.0
C417 C 0.31683 0.79093 0.05636 0.0
N418 N 0.32324 0.808 0.08369 0.0
N419 N 0.29523 0.83545 0.07662 0.0
C420 C 0.36964 0.74441 0.07466 0.0
H421 H 0.35926 0.7252 0.08598 0.0
H422 H 0.37237 0.72244 0.06345 0.0
H423 H 0.40211 0.75879 0.07752 0.0
C424 C 0.24383 0.81917 0.14279 0.0
N425 N 0.28476 0.81875 0.13642 0.0
N426 N 0.28351 0.80831 0.12016 0.0
C427 C 0.2416 0.79964 0.11586 0.0
C428 C 0.2149 0.80687 0.12999 0.0
C429 C 0.23253 0.83456 0.16039 0.0
H430 H 0.25515 0.86096 0.16436 0.0
H431 H 0.23584 0.8069 0.16947 0.0
H432 H 0.19852 0.84703 0.16099 0.0
O433 O 0.36572 0.88276 0.13775 0.0
O434 O 0.36712 0.86998 0.10991 0.0
H435 H 0.21818 0.80799 0.09035 0.0
H436 H 0.19875 0.75942 0.10072 0.0
C437 C 0.22759 0.78103 0.09906 0.0
H438 H 0.25453 0.762 0.09321 0.0
H439 H 0.27954 0.86057 0.08322 0.0
O440 O 0.33309 0.83733 0.17129 0.0
C441 C 0.3766 0.89388 0.1227 0.0
Co442 Co 0.1864 0.34041 0.65035 0.0
Co443 Co 0.18102 0.34968 0.61058 0.0
C444 C 0.24315 0.40384 0.63111 0.0
O445 O 0.23059 0.38592 0.64499 0.0
O446 O 0.22831 0.39143 0.61669 0.0
C447 C 0.1986 0.35089 0.68637 0.0
O448 O 0.20631 0.39182 0.68228 0.0
C449 C 0.20292 0.35163 0.57381 0.0
C450 C 0.13644 0.35307 0.56275 0.0
C451 C 0.18031 0.35502 0.55852 0.0
N452 N 0.17349 0.34814 0.58652 0.0
N453 N 0.13391 0.34855 0.57977 0.0
C454 C 0.25102 0.35642 0.57657 0.0
H455 H 0.26007 0.39138 0.57524 0.0
H456 H 0.26015 0.34498 0.58954 0.0
H457 H 0.2695 0.33772 0.56683 0.0
C458 C 0.19547 0.24705 0.64075 0.0
N459 N 0.19197 0.28959 0.63654 0.0
N460 N 0.18862 0.29307 0.61986 0.0
C461 C 0.18872 0.25275 0.61291 0.0
C462 C 0.19303 0.222 0.62594 0.0
C463 C 0.20247 0.23114 0.65863 0.0
H464 H 0.22642 0.2525 0.66519 0.0
H465 H 0.2149 0.19711 0.65887 0.0
H466 H 0.17111 0.23281 0.66573 0.0
O467 O 0.12877 0.3694 0.64738 0.0
O468 O 0.12695 0.37603 0.61922 0.0
H469 H 0.15179 0.26347 0.59011 0.0
H470 H 0.17383 0.20921 0.59179 0.0
C471 C 0.18042 0.24419 0.59437 0.0
H472 H 0.20917 0.25501 0.58683 0.0
H473 H 0.10506 0.3471 0.58687 0.0
O474 O 0.19017 0.32357 0.67464 0.0
C475 C 0.11003 0.38257 0.63381 0.0
Co476 Co 0.65739 0.17508 0.14838 0.0
Co477 Co 0.65994 0.19074 0.10886 0.0
C478 C 0.5998 0.24216 0.1307 0.0
O479 O 0.61399 0.22223 0.1439 0.0
O480 O 0.61603 0.23494 0.11595 0.0
C481 C 0.66912 0.19902 0.18374 0.0
O482 O 0.66974 0.23936 0.17801 0.0
C483 C 0.66189 0.22379 0.07321 0.0
C484 C 0.70353 0.17341 0.06119 0.0
C485 C 0.6809 0.21159 0.05784 0.0
N486 N 0.67323 0.19423 0.08514 0.0
N487 N 0.69785 0.16413 0.07782 0.0
C488 C 0.6349 0.2635 0.07674 0.0
H489 H 0.60015 0.25367 0.07808 0.0
H490 H 0.64535 0.27852 0.08896 0.0
H491 H 0.63787 0.28785 0.06629 0.0
C492 C 0.7533 0.18343 0.14405 0.0
N493 N 0.71214 0.18487 0.13794 0.0
N494 N 0.71318 0.19443 0.12158 0.0
C495 C 0.75513 0.20136 0.11692 0.0
C496 C 0.78214 0.19392 0.13093 0.0
C497 C 0.7647 0.16843 0.16169 0.0
H498 H 0.74164 0.14263 0.1659 0.0
H499 H 0.76203 0.19643 0.17062 0.0
H500 H 0.79847 0.15529 0.16225 0.0
O501 O 0.6306 0.12148 0.13978 0.0
O502 O 0.62985 0.13321 0.11184 0.0
H503 H 0.7755 0.18987 0.09119 0.0
H504 H 0.79947 0.23748 0.10079 0.0
C505 C 0.76902 0.21795 0.09977 0.0
H506 H 0.74304 0.23861 0.09411 0.0
H507 H 0.71094 0.13726 0.08423 0.0
O508 O 0.66419 0.16769 0.17329 0.0
C509 C 0.62003 0.10984 0.12476 0.0
Co510 Co 0.80818 0.65797 0.65213 0.0
Co511 Co 0.81167 0.65568 0.61226 0.0
C512 C 0.74929 0.59934 0.63064 0.0
O513 O 0.76348 0.61455 0.64477 0.0
O514 O 0.76312 0.61402 0.61637 0.0
C515 C 0.79347 0.64267 0.68806 0.0
O516 O 0.78918 0.60138 0.68382 0.0
C517 C 0.79703 0.66106 0.57482 0.0
C518 C 0.86096 0.68794 0.56683 0.0
C519 C 0.82045 0.67541 0.56068 0.0
N520 N 0.82268 0.66526 0.58867 0.0
N521 N 0.8609 0.68094 0.58375 0.0
C522 C 0.75022 0.6471 0.57546 0.0
H523 H 0.7356 0.65591 0.58796 0.0
H524 H 0.73122 0.66241 0.56497 0.0
H525 H 0.74853 0.61108 0.57402 0.0
C526 C 0.80555 0.75284 0.64542 0.0
N527 N 0.8056 0.71113 0.63997 0.0
N528 N 0.8038 0.7105 0.62324 0.0
C529 C 0.80088 0.75198 0.61746 0.0
C530 C 0.80219 0.78042 0.63135 0.0
C531 C 0.813 0.76567 0.66364 0.0
H532 H 0.83733 0.74347 0.66955 0.0
H533 H 0.78184 0.76261 0.67081 0.0
H534 H 0.8252 0.79968 0.66471 0.0
O535 O 0.86487 0.62903 0.64909 0.0
O536 O 0.86478 0.62519 0.62081 0.0
H537 H 0.82735 0.76507 0.59273 0.0
H538 H 0.77899 0.79629 0.59773 0.0
C539 C 0.79494 0.76392 0.59907 0.0
H540 H 0.77457 0.73901 0.5926 0.0
H541 H 0.88666 0.68777 0.59206 0.0
O542 O 0.80073 0.67091 0.67654 0.0
C543 C 0.88222 0.61641 0.63518 0.0
H544 H 0.14871 0.35359 0.20461 0.0
H545 H 0.2759 0.27152 0.2876 0.0
H546 H 0.22717 0.23635 0.20469 0.0
H547 H 0.16604 0.35998 0.28894 0.0
H548 H 0.26536 0.26321 0.25669 0.0
H549 H 0.16158 0.36145 0.23515 0.0
C550 C 0.16864 0.32945 0.21106 0.0
C551 C 0.18677 0.29416 0.20212 0.0
C552 C 0.24365 0.28439 0.26381 0.0
C553 C 0.20187 0.30316 0.2371 0.0
C554 C 0.24976 0.28932 0.28139 0.0
C555 C 0.22176 0.31643 0.29083 0.0
C556 C 0.20971 0.30722 0.25566 0.0
C557 C 0.18828 0.33858 0.28218 0.0
C558 C 0.1759 0.33391 0.22852 0.0
C559 C 0.21234 0.26388 0.21115 0.0
N560 N 0.1833 0.3336 0.2651 0.0
N561 N 0.21932 0.26916 0.22818 0.0
H562 H 0.64988 0.16148 0.79133 0.0
H563 H 0.75598 0.24443 0.70427 0.0
H564 H 0.69802 0.29325 0.78553 0.0
H565 H 0.65966 0.14156 0.70667 0.0
H566 H 0.74505 0.25788 0.7349 0.0
H567 H 0.66326 0.1487 0.76103 0.0
C568 C 0.66336 0.18774 0.78368 0.0
C569 C 0.67272 0.22857 0.79095 0.0
C570 C 0.72642 0.23238 0.72867 0.0
C571 C 0.68848 0.21392 0.75626 0.0
C572 C 0.73282 0.22449 0.71126 0.0
C573 C 0.70867 0.19182 0.70295 0.0
C574 C 0.69629 0.20686 0.73782 0.0
C575 C 0.67883 0.16717 0.71257 0.0
C576 C 0.67084 0.18043 0.76638 0.0
C577 C 0.69007 0.26139 0.7804 0.0
N578 N 0.67365 0.17504 0.7295 0.0
N579 N 0.69765 0.25329 0.76356 0.0
H580 H 0.82544 0.61541 0.28956 0.0
H581 H 0.77005 0.75801 0.20701 0.0
H582 H 0.72348 0.71285 0.28914 0.0
H583 H 0.84335 0.63758 0.2053 0.0
H584 H 0.75627 0.74566 0.23747 0.0
H585 H 0.83569 0.62628 0.25896 0.0
C586 C 0.80503 0.63898 0.28301 0.0
C587 C 0.77354 0.66327 0.29192 0.0
C588 C 0.77528 0.72194 0.23039 0.0
C589 C 0.78547 0.67623 0.25686 0.0
C590 C 0.78338 0.72908 0.21304 0.0
C591 C 0.808 0.69883 0.2036 0.0
C592 C 0.79235 0.68456 0.23839 0.0
C593 C 0.82419 0.66177 0.21206 0.0
C594 C 0.81088 0.64513 0.26552 0.0
C595 C 0.74798 0.69328 0.28275 0.0
N596 N 0.81625 0.65581 0.22896 0.0
N597 N 0.75474 0.69918 0.26571 0.0
H598 H 0.30992 0.72653 0.78025 0.0
H599 H 0.3464 0.91521 0.71062 0.0
H600 H 0.36216 0.85437 0.79155 0.0
H601 H 0.28577 0.79138 0.69895 0.0
H602 H 0.35203 0.89296 0.74045 0.0
H603 H 0.3013 0.74871 0.75033 0.0
C604 C 0.31971 0.75913 0.77645 0.0
C605 C 0.3368 0.78858 0.78843 0.0
C606 C 0.33732 0.87068 0.73139 0.0
C607 C 0.32688 0.81421 0.75433 0.0
C608 C 0.33402 0.88344 0.71434 0.0
C609 C 0.31569 0.85511 0.70225 0.0
C610 C 0.32236 0.82918 0.73641 0.0
C611 C 0.30019 0.81429 0.70784 0.0
C612 C 0.31464 0.77183 0.75939 0.0
C613 C 0.34879 0.8305 0.7828 0.0
N614 N 0.30405 0.80246 0.7245 0.0
N615 N 0.34362 0.84198 0.7662 0.0
H616 H 0.79896 0.64768 0.79829 0.0
H617 H 0.80617 0.72475 0.70086 0.0
H618 H 0.84623 0.77407 0.78209 0.0
H619 H 0.78085 0.59179 0.71652 0.0
H620 H 0.81155 0.746 0.73075 0.0
H621 H 0.78292 0.62964 0.76865 0.0
C622 C 0.80579 0.67178 0.78851 0.0
C623 C 0.82439 0.71236 0.79267 0.0
C624 C 0.80462 0.71222 0.72766 0.0
C625 C 0.80598 0.69178 0.75867 0.0
C626 C 0.80145 0.70001 0.71058 0.0
C627 C 0.79341 0.65627 0.70616 0.0
C628 C 0.7996 0.68054 0.74046 0.0
C629 C 0.78736 0.62579 0.71933 0.0
C630 C 0.79664 0.66138 0.77157 0.0
C631 C 0.83219 0.74233 0.77945 0.0
N632 N 0.79078 0.63848 0.73591 0.0
N633 N 0.82311 0.73134 0.76302 0.0
H634 H 0.29288 0.78708 0.29099 0.0
H635 H 0.3272 0.88547 0.19735 0.0
H636 H 0.31296 0.92423 0.28059 0.0
H637 H 0.31395 0.74748 0.2077 0.0
H638 H 0.318 0.90047 0.22767 0.0
H639 H 0.29599 0.77231 0.2604 0.0
C640 C 0.2977 0.81416 0.28227 0.0
C641 C 0.30288 0.85698 0.28836 0.0
C642 C 0.31705 0.8669 0.22333 0.0
C643 C 0.30664 0.84019 0.25333 0.0
C644 C 0.32234 0.85826 0.206 0.0
C645 C 0.32156 0.81508 0.19998 0.0
C646 C 0.3109 0.83214 0.23477 0.0
C647 C 0.31495 0.78123 0.21179 0.0
C648 C 0.29955 0.80565 0.2648 0.0
C649 C 0.30896 0.89072 0.27647 0.0
N650 N 0.30995 0.79049 0.22865 0.0
N651 N 0.31082 0.88157 0.25952 0.0
H652 H 0.1763 0.27066 0.69924 0.0
H653 H 0.19849 0.34648 0.79655 0.0
H654 H 0.21703 0.39977 0.71473 0.0
H655 H 0.13727 0.22538 0.78145 0.0
H656 H 0.21335 0.36268 0.76666 0.0
H657 H 0.1696 0.24999 0.72928 0.0
C658 C 0.18408 0.29462 0.70895 0.0
C659 C 0.19698 0.33716 0.70446 0.0
C660 C 0.19678 0.33249 0.76986 0.0
C661 C 0.18938 0.31361 0.73885 0.0
C662 C 0.18829 0.32314 0.78695 0.0
C663 C 0.16621 0.28463 0.79153 0.0
C664 C 0.18325 0.30313 0.75718 0.0
C665 C 0.15414 0.25555 0.77851 0.0
C666 C 0.18015 0.28278 0.7261 0.0
C667 C 0.20675 0.36672 0.71759 0.0
N668 N 0.16267 0.26549 0.7619 0.0
N669 N 0.20262 0.35442 0.73418 0.0
H670 H 0.70089 0.21525 0.29367 0.0
H671 H 0.67132 0.11918 0.19932 0.0
H672 H 0.68857 0.07787 0.28216 0.0
H673 H 0.67991 0.25725 0.21009 0.0
H674 H 0.67997 0.1038 0.22964 0.0
H675 H 0.69587 0.2316 0.26314 0.0
C676 C 0.6973 0.18851 0.28473 0.0
C677 C 0.69504 0.1451 0.29049 0.0
C678 C 0.68001 0.13749 0.22541 0.0
C679 C 0.68918 0.16362 0.25556 0.0
C680 C 0.67503 0.14633 0.20806 0.0
C681 C 0.67473 0.18962 0.20214 0.0
C682 C 0.68475 0.17214 0.23699 0.0
C683 C 0.67984 0.22339 0.21409 0.0
C684 C 0.69438 0.19789 0.26731 0.0
C685 C 0.69037 0.11181 0.27832 0.0
N686 N 0.68458 0.21394 0.23097 0.0
N687 N 0.68752 0.12178 0.26146 0.0
H688 H 0.10547 0.26428 0.04366 0.0
H689 H 0.21899 0.26359 0.95177 0.0
H690 H 0.24268 0.28832 0.03525 0.0
H691 H 0.08375 0.29541 0.96085 0.0
H692 H 0.22699 0.24505 0.98218 0.0
H693 H 0.09705 0.24795 0.01318 0.0
C694 C 0.13406 0.2647 0.03549 0.0
C695 C 0.17481 0.27772 0.04187 0.0
C696 C 0.19531 0.25498 0.97738 0.0
C697 C 0.16537 0.25968 0.00717 0.0
C698 C 0.1907 0.26521 0.96007 0.0
C699 C 0.15074 0.28114 0.95398 0.0
C700 C 0.15956 0.26043 0.98846 0.0
C701 C 0.11515 0.28347 0.9652 0.0
C702 C 0.12919 0.25572 0.01812 0.0
C703 C 0.21067 0.27868 0.03072 0.0
N704 N 0.12046 0.27359 0.98196 0.0
N705 N 0.20508 0.27017 0.01385 0.0
H706 H 0.73386 0.20828 0.45128 0.0
H707 H 0.73114 0.09944 0.54419 0.0
H708 H 0.70632 0.07234 0.46079 0.0
H709 H 0.70463 0.23563 0.53465 0.0
H710 H 0.74698 0.08952 0.51372 0.0
H711 H 0.7483 0.21838 0.48189 0.0
C712 C 0.73237 0.1803 0.45973 0.0
C713 C 0.719 0.13943 0.45363 0.0
C714 C 0.73863 0.12175 0.51839 0.0
C715 C 0.73483 0.15072 0.48843 0.0
C716 C 0.72994 0.12749 0.53576 0.0
C717 C 0.71663 0.16842 0.54186 0.0
C718 C 0.73417 0.15727 0.50714 0.0
C719 C 0.7146 0.20351 0.53037 0.0
C720 C 0.74016 0.18613 0.47718 0.0
C721 C 0.71646 0.10438 0.46511 0.0
N722 N 0.723 0.19711 0.51352 0.0
N723 N 0.724 0.11085 0.482 0.0
H724 H 0.9249 0.7216 0.9617 0.0
H725 H 0.75421 0.71008 0.0356 0.0
H726 H 0.7869 0.73739 0.95274 0.0
H727 H 0.89038 0.73786 0.04463 0.0
H728 H 0.76433 0.72834 0.00545 0.0
H729 H 0.91316 0.73662 0.992 0.0
C730 C 0.89226 0.72947 0.96611 0.0
C731 C 0.8568 0.7284 0.95483 0.0
C732 C 0.7918 0.73153 0.01407 0.0
C733 C 0.84276 0.74407 0.98948 0.0
C734 C 0.78604 0.72099 0.03126 0.0
C735 C 0.82151 0.72253 0.04255 0.0
C736 C 0.83365 0.74248 0.00807 0.0
C737 C 0.86209 0.73673 0.03635 0.0
C738 C 0.88551 0.73799 0.98339 0.0
C739 C 0.81509 0.73842 0.96107 0.0
N740 N 0.86727 0.74538 0.01944 0.0
N741 N 0.80903 0.74493 0.9781 0.0
H742 H 0.26775 0.87747 0.45257 0.0
H743 H 0.32656 0.74461 0.53701 0.0
H744 H 0.33155 0.7519 0.4538 0.0
H745 H 0.27391 0.87524 0.53781 0.0
H746 H 0.31296 0.741 0.5064 0.0
H747 H 0.25461 0.87171 0.48344 0.0
C748 C 0.27796 0.84825 0.45927 0.0
C749 C 0.30094 0.81517 0.45074 0.0
C750 C 0.30373 0.77031 0.51325 0.0
C751 C 0.28665 0.8086 0.48584 0.0
C752 C 0.3115 0.77232 0.53071 0.0
C753 C 0.30153 0.81032 0.53984 0.0
C754 C 0.28675 0.80699 0.50474 0.0
C755 C 0.28178 0.84524 0.53118 0.0
C756 C 0.27074 0.8451 0.47687 0.0
C757 C 0.31414 0.77832 0.45999 0.0
N758 N 0.27565 0.84304 0.514 0.0
N759 N 0.3071 0.77618 0.47704 0.0
H760 H 0.60527 0.2385 0.04251 0.0
H761 H 0.71748 0.24551 0.95043 0.0
H762 H 0.74385 0.22506 0.03399 0.0
H763 H 0.58483 0.20472 0.95992 0.0
H764 H 0.72459 0.26519 0.98073 0.0
H765 H 0.59539 0.25375 0.01201 0.0
C766 C 0.63375 0.24028 0.03432 0.0
C767 C 0.67542 0.23048 0.04067 0.0
C768 C 0.69361 0.25299 0.97605 0.0
C769 C 0.66436 0.24717 0.00593 0.0
C770 C 0.68948 0.24208 0.95879 0.0
C771 C 0.65061 0.22337 0.95284 0.0
C772 C 0.65844 0.24541 0.98722 0.0
C773 C 0.61543 0.21879 0.96416 0.0
C774 C 0.62808 0.2486 0.01693 0.0
C775 C 0.71117 0.23222 0.02948 0.0
N776 N 0.62026 0.22941 0.98087 0.0
N777 N 0.70481 0.23996 0.01259 0.0
H778 H 0.77332 0.6169 0.5413 0.0
H779 H 0.83235 0.74545 0.45558 0.0
H780 H 0.83842 0.74175 0.53902 0.0
H781 H 0.77745 0.6157 0.45563 0.0
H782 H 0.82126 0.74954 0.48633 0.0
H783 H 0.76148 0.62053 0.51029 0.0
C784 C 0.78415 0.6455 0.53434 0.0
C785 C 0.80695 0.67907 0.54266 0.0
C786 C 0.81104 0.7203 0.47966 0.0
C787 C 0.79412 0.68319 0.50737 0.0
C788 C 0.81736 0.71801 0.4621 0.0
C789 C 0.80589 0.68018 0.45312 0.0
C790 C 0.79389 0.6841 0.48843 0.0
C791 C 0.78636 0.64562 0.46211 0.0
C792 C 0.77769 0.64742 0.51665 0.0
C793 C 0.82105 0.715 0.53304 0.0
N794 N 0.78152 0.64813 0.47937 0.0
N795 N 0.81464 0.71598 0.51593 0.0
H796 H 0.2552 0.76552 0.03362 0.0
H797 H 0.4042 0.82067 0.95682 0.0
H798 H 0.39444 0.7797 0.03976 0.0
H799 H 0.28418 0.74939 0.9498 0.0
H800 H 0.40378 0.80066 0.98709 0.0
H801 H 0.26598 0.75324 0.00304 0.0
C802 C 0.28815 0.76485 0.02853 0.0
C803 C 0.32402 0.77354 0.03909 0.0
C804 C 0.37806 0.78843 0.97889 0.0
C805 C 0.33655 0.76098 0.0042 0.0
C806 C 0.37829 0.79995 0.96167 0.0
C807 C 0.34414 0.78659 0.95102 0.0
C808 C 0.34265 0.76463 0.98551 0.0
C809 C 0.31108 0.76007 0.95775 0.0
C810 C 0.29432 0.7578 0.01112 0.0
C811 C 0.36604 0.7727 0.03199 0.0
N812 N 0.31062 0.75064 0.97472 0.0
N813 N 0.37113 0.76754 0.01487 0.0
H814 H 0.15447 0.41851 0.53686 0.0
H815 H 0.26328 0.3048 0.4556 0.0
H816 H 0.24173 0.30841 0.54058 0.0
H817 H 0.1582 0.39828 0.45388 0.0
H818 H 0.27033 0.3177 0.48654 0.0
H819 H 0.1707 0.42398 0.50644 0.0
C820 C 0.17778 0.39602 0.53127 0.0
C821 C 0.19686 0.36302 0.54114 0.0
C822 C 0.24636 0.33602 0.47931 0.0
C823 C 0.21479 0.36822 0.50628 0.0
C824 C 0.24254 0.32881 0.46173 0.0
C825 C 0.21006 0.35051 0.45242 0.0
C826 C 0.2175 0.36514 0.48742 0.0
C827 C 0.18354 0.38094 0.46076 0.0
C828 C 0.18699 0.39905 0.51391 0.0
C829 C 0.22685 0.33467 0.53338 0.0
N830 N 0.18762 0.38714 0.47782 0.0
N831 N 0.23443 0.33746 0.51628 0.0
H832 H 0.09029 0.44116 0.15474 0.0
H833 H 0.91498 0.57421 0.10012 0.0
H834 H 0.07517 0.42136 0.10045 0.0
H835 H 0.91099 0.56007 0.155 0.0
H836 H 0.97623 0.5226 0.0992 0.0
H837 H 0.02971 0.49251 0.15416 0.0
C838 C 0.07467 0.44802 0.14262 0.0
C839 C 0.08775 0.42651 0.12764 0.0
C840 C 0.96157 0.53058 0.11139 0.0
C841 C 0.01759 0.48511 0.12696 0.0
C842 C 0.92641 0.55979 0.11194 0.0
C843 C 0.90784 0.57179 0.12769 0.0
C844 C 0.97849 0.5137 0.1267 0.0
C845 C 0.92421 0.55208 0.14257 0.0
C846 C 0.03972 0.47711 0.14234 0.0
C847 C 0.06619 0.43707 0.11232 0.0
N848 N 0.9588 0.52445 0.14171 0.0
N849 N 0.03195 0.46548 0.11239 0.0
H850 H 0.43219 0.9121 0.60276 0.0
H851 H 0.56 0.09239 0.65721 0.0
H852 H 0.42005 0.92675 0.65742 0.0
H853 H 0.57936 0.0735 0.60307 0.0
H854 H 0.5063 0.03366 0.65714 0.0
H855 H 0.48623 0.97079 0.60249 0.0
C856 C 0.4413 0.92718 0.61475 0.0
C857 C 0.42132 0.9145 0.63014 0.0
C858 C 0.52209 0.04248 0.64525 0.0
C859 C 0.48267 0.98233 0.62984 0.0
C860 C 0.55258 0.07631 0.64524 0.0
C861 C 0.57448 0.08787 0.63013 0.0
C862 C 0.5133 0.01989 0.63004 0.0
C863 C 0.56334 0.06577 0.61503 0.0
C864 C 0.47197 0.96094 0.61456 0.0
C865 C 0.43448 0.93536 0.64525 0.0
N866 N 0.53373 0.03265 0.61539 0.0
N867 N 0.46406 0.96843 0.64469 0.0
H868 H 0.42167 0.92833 0.88882 0.0
H869 H 0.57099 0.08891 0.83318 0.0
H870 H 0.42565 0.92482 0.83367 0.0
H871 H 0.58015 0.07477 0.88797 0.0
H872 H 0.51578 0.03101 0.83278 0.0
H873 H 0.47572 0.98672 0.88847 0.0
C874 C 0.43349 0.94016 0.87662 0.0
C875 C 0.41928 0.9214 0.86126 0.0
C876 C 0.53016 0.04048 0.84485 0.0
C877 C 0.48171 0.98793 0.86078 0.0
C878 C 0.56187 0.07331 0.84508 0.0
C879 C 0.58011 0.0869 0.86064 0.0
C880 C 0.51655 0.02139 0.86029 0.0
C881 C 0.5669 0.0656 0.87567 0.0
C882 C 0.46466 0.97331 0.87643 0.0
C883 C 0.43581 0.93818 0.84584 0.0
N884 N 0.53575 0.03417 0.87512 0.0
N885 N 0.46635 0.97038 0.84599 0.0
H886 H 0.08627 0.42252 0.39115 0.0
H887 H 0.92488 0.56976 0.33505 0.0
H888 H 0.07439 0.41324 0.3363 0.0
H889 H 0.92957 0.5745 0.39016 0.0
H890 H 0.98235 0.51473 0.33535 0.0
H891 H 0.02938 0.47853 0.3912 0.0
C892 C 0.07137 0.43182 0.37914 0.0
C893 C 0.08529 0.4132 0.36368 0.0
C894 C 0.97098 0.52795 0.34738 0.0
C895 C 0.0207 0.47777 0.36365 0.0
C896 C 0.93833 0.55965 0.34722 0.0
C897 C 0.92213 0.57666 0.36261 0.0
C898 C 0.98764 0.51306 0.36304 0.0
C899 C 0.94094 0.56225 0.37798 0.0
C900 C 0.03909 0.46403 0.37918 0.0
C901 C 0.06484 0.42669 0.34852 0.0
N902 N 0.97253 0.53106 0.3778 0.0
N903 N 0.03379 0.45831 0.34889 0.0
H904 H 0.92019 0.57964 0.83533 0.0
H905 H 0.09014 0.43686 0.88886 0.0
H906 H 0.92869 0.5783 0.8904 0.0
H907 H 0.06693 0.41518 0.83512 0.0
H908 H 0.03553 0.49436 0.88865 0.0
H909 H 0.97596 0.52229 0.83422 0.0
C910 C 0.93329 0.56695 0.84718 0.0
C911 C 0.91988 0.58403 0.86299 0.0
C912 C 0.04241 0.4772 0.87686 0.0
C913 C 0.98408 0.51923 0.86175 0.0
C914 C 0.07388 0.44449 0.87694 0.0
C915 C 0.08288 0.42084 0.86201 0.0
C916 C 0.01965 0.48654 0.86175 0.0
C917 C 0.06096 0.43254 0.84693 0.0
C918 C 0.96529 0.53443 0.84652 0.0
C919 C 0.93808 0.56639 0.87792 0.0
N920 N 0.03004 0.46447 0.8472 0.0
N921 N 0.96943 0.53525 0.87691 0.0
H922 H 0.58248 0.07191 0.33254 0.0
H923 H 0.42707 0.91462 0.38713 0.0
H924 H 0.57221 0.07404 0.38756 0.0
H925 H 0.42365 0.92035 0.33201 0.0
H926 H 0.48341 0.97069 0.38714 0.0
H927 H 0.52503 0.01622 0.33169 0.0
C928 C 0.56774 0.06122 0.34441 0.0
C929 C 0.58241 0.07753 0.36016 0.0
C930 C 0.4705 0.95961 0.37502 0.0
C931 C 0.51741 0.01337 0.35927 0.0
C932 C 0.43848 0.9273 0.375 0.0
C933 C 0.4204 0.91281 0.35955 0.0
C934 C 0.48471 0.97769 0.35949 0.0
C935 C 0.43664 0.93051 0.34424 0.0
C936 C 0.5352 0.02919 0.34392 0.0
C937 C 0.56225 0.06227 0.37513 0.0
N938 N 0.46776 0.96221 0.3446 0.0
N939 N 0.53107 0.03088 0.37431 0.0
H940 H 0.42093 0.92087 0.0938 0.0
H941 H 0.59074 0.05469 0.14963 0.0
H942 H 0.404 0.95034 0.14735 0.0
H943 H 0.57826 0.081 0.09563 0.0
H944 H 0.52962 0.00425 0.14776 0.0
H945 H 0.48306 0.97185 0.09297 0.0
C946 C 0.42963 0.93858 0.10528 0.0
C947 C 0.40741 0.93089 0.12072 0.0
C948 C 0.54039 0.02089 0.13629 0.0
C949 C 0.47888 0.98784 0.11991 0.0
C950 C 0.57563 0.04943 0.13729 0.0
C951 C 0.58942 0.07267 0.1228 0.0
C952 C 0.51878 0.01505 0.12067 0.0
C953 C 0.56858 0.06398 0.10715 0.0
C954 C 0.46524 0.96735 0.1048 0.0
C955 C 0.42028 0.95471 0.13519 0.0
N956 N 0.534 0.03598 0.1065 0.0
N957 N 0.45546 0.98153 0.13447 0.0
H958 H 0.05757 0.40927 0.60769 0.0
H959 H 0.92379 0.58246 0.66336 0.0
H960 H 0.0757 0.42342 0.6621 0.0
H961 H 0.92438 0.57851 0.60821 0.0
H962 H 0.97693 0.52271 0.66373 0.0
H963 H 0.00337 0.46728 0.6084 0.0
C964 C 0.04974 0.42418 0.61986 0.0
C965 C 0.07152 0.41162 0.63485 0.0
C966 C 0.9656 0.5352 0.65157 0.0
C967 C 0.00974 0.47884 0.63568 0.0
C968 C 0.9355 0.56953 0.65133 0.0
C969 C 0.9194 0.58551 0.63572 0.0
C970 C 0.97946 0.5166 0.6361 0.0
C971 C 0.93568 0.56728 0.62056 0.0
C972 C 0.01896 0.45761 0.62022 0.0
C973 C 0.05972 0.43203 0.65023 0.0
N974 N 0.96451 0.53366 0.62114 0.0
N975 N 0.02982 0.46494 0.65024 0.0
H976 H 0.5501 0.25586 0.15932 0.0
H977 H 0.34026 0.33951 0.10792 0.0
H978 H 0.55292 0.28274 0.10517 0.0
H979 H 0.33456 0.2689 0.15555 0.0
H980 H 0.42023 0.33373 0.10845 0.0
H981 H 0.47374 0.27854 0.16011 0.0
C982 C 0.53508 0.26745 0.14764 0.0
C983 C 0.55799 0.26662 0.13208 0.0
C984 C 0.4014 0.31979 0.11882 0.0
C985 C 0.4701 0.29224 0.13294 0.0
C986 C 0.35578 0.32271 0.11846 0.0
C987 C 0.33063 0.30433 0.13165 0.0
C988 C 0.42204 0.29886 0.13259 0.0
C989 C 0.35258 0.28397 0.14522 0.0
C990 C 0.49127 0.28005 0.1481 0.0
C991 C 0.53655 0.28236 0.11743 0.0
N992 N 0.39695 0.28175 0.14533 0.0
N993 N 0.49364 0.29402 0.11817 0.0
H994 H 0.65956 0.33701 0.60681 0.0
H995 H 0.72463 0.55172 0.65865 0.0
H996 H 0.72758 0.33622 0.65505 0.0
H997 H 0.7189 0.55057 0.60353 0.0
H998 H 0.70342 0.47498 0.65894 0.0
H999 H 0.66271 0.41716 0.60673 0.0
C1000 C 0.67526 0.35358 0.61735 0.0
C1001 C 0.69367 0.32976 0.63091 0.0
C1002 C 0.70612 0.49178 0.6468 0.0
C1003 C 0.69566 0.42125 0.6312 0.0
C1004 C 0.71786 0.53578 0.6466 0.0
C1005 C 0.72444 0.55765 0.63101 0.0
C1006 C 0.70034 0.46943 0.63135 0.0
C1007 C 0.71475 0.53501 0.61584 0.0
C1008 C 0.6766 0.39927 0.61736 0.0
C1009 C 0.71241 0.3531 0.64446 0.0
N1010 N 0.7037 0.49192 0.61638 0.0
N1011 N 0.71286 0.39748 0.64428 0.0
H1012 H 0.44526 0.74746 0.1583 0.0
H1013 H 0.65619 0.66004 0.10854 0.0
H1014 H 0.44498 0.72057 0.10415 0.0
H1015 H 0.66086 0.73007 0.15626 0.0
H1016 H 0.57635 0.66715 0.10853 0.0
H1017 H 0.52115 0.72347 0.15972 0.0
C1018 C 0.46074 0.73564 0.14674 0.0
C1019 C 0.43869 0.73678 0.131 0.0
C1020 C 0.59491 0.68067 0.11904 0.0
C1021 C 0.52605 0.7096 0.1326 0.0
C1022 C 0.64047 0.67697 0.119 0.0
C1023 C 0.66531 0.69492 0.13234 0.0
C1024 C 0.57398 0.70194 0.13266 0.0
C1025 C 0.64307 0.71541 0.1458 0.0
C1026 C 0.50428 0.72227 0.14757 0.0
C1027 C 0.46067 0.7207 0.11654 0.0
N1028 N 0.59873 0.71843 0.1456 0.0
N1029 N 0.50332 0.70825 0.11765 0.0
H1030 H 0.28211 0.44997 0.60502 0.0
H1031 H 0.25252 0.67184 0.65312 0.0
H1032 H 0.25674 0.45494 0.65924 0.0
H1033 H 0.34375 0.66259 0.61126 0.0
H1034 H 0.2499 0.59207 0.65453 0.0
H1035 H 0.30338 0.5272 0.60586 0.0
C1036 C 0.28203 0.4669 0.61716 0.0
C1037 C 0.26715 0.44591 0.63205 0.0
C1038 C 0.27078 0.60753 0.64513 0.0
C1039 C 0.29012 0.53442 0.63294 0.0
C1040 C 0.27235 0.65305 0.64434 0.0
C1041 C 0.29836 0.67395 0.63205 0.0
C1042 C 0.29458 0.58262 0.63329 0.0
C1043 C 0.3226 0.64784 0.62072 0.0
C1044 C 0.29401 0.511 0.6176 0.0
C1045 C 0.26775 0.46963 0.64742 0.0
N1046 N 0.31974 0.6035 0.62147 0.0
N1047 N 0.27802 0.51281 0.64739 0.0
H1048 H 0.04275 0.21237 0.83874 0.0
H1049 H 0.8249 0.24186 0.88927 0.0
H1050 H 0.04059 0.22849 0.89354 0.0
H1051 H 0.8277 0.15916 0.84472 0.0
H1052 H 0.90468 0.23977 0.89023 0.0
H1053 H 0.96518 0.19245 0.83965 0.0
C1054 C 0.02643 0.21061 0.851 0.0
C1055 C 0.04818 0.22303 0.86605 0.0
C1056 C 0.88784 0.22176 0.88032 0.0
C1057 C 0.95936 0.20144 0.86705 0.0
C1058 C 0.84232 0.22296 0.87977 0.0
C1059 C 0.81967 0.20092 0.86683 0.0
C1060 C 0.91103 0.19912 0.86763 0.0
C1061 C 0.84397 0.17746 0.85468 0.0
C1062 C 0.98209 0.19943 0.85148 0.0
C1063 C 0.02519 0.21992 0.88156 0.0
N1064 N 0.88845 0.17764 0.85522 0.0
N1065 N 0.98184 0.21048 0.88161 0.0
H1066 H 0.84848 0.82207 0.38218 0.0
H1067 H 0.77055 0.03727 0.33347 0.0
H1068 H 0.76352 0.82092 0.33824 0.0
H1069 H 0.79239 0.03508 0.38796 0.0
H1070 H 0.79063 0.96022 0.33212 0.0
H1071 H 0.84775 0.90214 0.38165 0.0
C1072 C 0.8296 0.83859 0.37244 0.0
C1073 C 0.80532 0.81471 0.36042 0.0
C1074 C 0.7918 0.97691 0.3443 0.0
C1075 C 0.80605 0.90611 0.35932 0.0
C1076 C 0.78075 0.02106 0.34511 0.0
C1077 C 0.77906 0.04269 0.36093 0.0
C1078 C 0.80191 0.95429 0.35936 0.0
C1079 C 0.79275 0.01968 0.37552 0.0
C1080 C 0.82962 0.88422 0.37206 0.0
C1081 C 0.78285 0.83791 0.3477 0.0
N1082 N 0.80317 0.97654 0.37442 0.0
N1083 N 0.7837 0.88232 0.3475 0.0
H1084 H 0.95945 0.79658 0.88834 0.0
H1085 H 0.17676 0.75701 0.83848 0.0
H1086 H 0.96018 0.76896 0.83426 0.0
H1087 H 0.17367 0.84946 0.88 0.0
H1088 H 0.0969 0.75842 0.83755 0.0
H1089 H 0.03702 0.81605 0.88652 0.0
C1090 C 0.97551 0.79571 0.87601 0.0
C1091 C 0.95327 0.7805 0.86148 0.0
C1092 C 0.11373 0.7787 0.84677 0.0
C1093 C 0.04216 0.80144 0.85947 0.0
C1094 C 0.15929 0.77791 0.84731 0.0
C1095 C 0.18191 0.80291 0.85941 0.0
C1096 C 0.09048 0.80393 0.85867 0.0
C1097 C 0.1575 0.82887 0.87073 0.0
C1098 C 0.01983 0.80666 0.87501 0.0
C1099 C 0.97589 0.78014 0.84584 0.0
N1100 N 0.11303 0.82827 0.87025 0.0
N1101 N 0.0193 0.78936 0.84534 0.0
H1102 H 0.23953 0.16658 0.33949 0.0
H1103 H 0.21833 0.94946 0.39133 0.0
H1104 H 0.16538 0.16501 0.38637 0.0
H1105 H 0.22534 0.95141 0.33623 0.0
H1106 H 0.19902 0.02718 0.39092 0.0
H1107 H 0.23781 0.08697 0.33904 0.0
C1108 C 0.2225 0.14951 0.34962 0.0
C1109 C 0.20249 0.17256 0.36296 0.0
C1110 C 0.20386 0.0102 0.37894 0.0
C1111 C 0.20136 0.08118 0.36276 0.0
C1112 C 0.21467 0.96578 0.37914 0.0
C1113 C 0.22435 0.9439 0.36381 0.0
C1114 C 0.20347 0.03286 0.36334 0.0
C1115 C 0.21888 0.96688 0.3484 0.0
C1116 C 0.22157 0.10403 0.34937 0.0
C1117 C 0.18193 0.14855 0.376 0.0
N1118 N 0.20984 0.01028 0.34859 0.0
N1119 N 0.18227 0.10407 0.37569 0.0
H1120 H 0.46338 0.71067 0.83962 0.0
H1121 H 0.67568 0.73957 0.89375 0.0
H1122 H 0.45821 0.73248 0.89408 0.0
H1123 H 0.67487 0.65431 0.84993 0.0
H1124 H 0.59565 0.73842 0.89386 0.0
H1125 H 0.5402 0.68925 0.84249 0.0
C1126 C 0.47794 0.70994 0.85222 0.0
C1127 C 0.45431 0.7241 0.86657 0.0
C1128 C 0.61304 0.71959 0.88432 0.0
C1129 C 0.54239 0.70082 0.86984 0.0
C1130 C 0.65869 0.72019 0.88428 0.0
C1131 C 0.68195 0.69762 0.87164 0.0
C1132 C 0.5905 0.69691 0.87145 0.0
C1133 C 0.65819 0.6733 0.85959 0.0
C1134 C 0.52185 0.69786 0.85383 0.0
C1135 C 0.47508 0.72234 0.88259 0.0
N1136 N 0.61375 0.67418 0.85959 0.0
N1137 N 0.51814 0.71199 0.88373 0.0
H1138 H 0.27556 0.45024 0.33399 0.0
H1139 H 0.34837 0.66597 0.38323 0.0
H1140 H 0.29365 0.45086 0.3887 0.0
H1141 H 0.26282 0.66504 0.33946 0.0
H1142 H 0.34846 0.58571 0.38303 0.0
H1143 H 0.29489 0.52745 0.33318 0.0
C1144 C 0.2847 0.46617 0.3458 0.0
C1145 C 0.28195 0.44406 0.36151 0.0
C1146 C 0.33003 0.60328 0.37342 0.0
C1147 C 0.30401 0.53267 0.36056 0.0
C1148 C 0.32955 0.64896 0.37361 0.0
C1149 C 0.3052 0.67225 0.36142 0.0
C1150 C 0.30687 0.58089 0.3607 0.0
C1151 C 0.28246 0.6485 0.34896 0.0
C1152 C 0.29538 0.5104 0.34531 0.0
C1153 C 0.29471 0.46664 0.37633 0.0
N1154 N 0.28393 0.60416 0.34889 0.0
N1155 N 0.30464 0.50997 0.37554 0.0
H1156 H 0.5417 0.29443 0.83844 0.0
H1157 H 0.32646 0.26543 0.89093 0.0
H1158 H 0.5424 0.2791 0.89329 0.0
H1159 H 0.32686 0.34482 0.8454 0.0
H1160 H 0.40625 0.26835 0.8914 0.0
H1161 H 0.46413 0.31397 0.83988 0.0
C1162 C 0.52601 0.29632 0.85082 0.0
C1163 C 0.54856 0.28418 0.86572 0.0
C1164 C 0.38887 0.28547 0.88138 0.0
C1165 C 0.45969 0.30531 0.86735 0.0
C1166 C 0.34333 0.28382 0.88112 0.0
C1167 C 0.31998 0.30464 0.86805 0.0
C1168 C 0.41137 0.30735 0.86827 0.0
C1169 C 0.34362 0.32741 0.85548 0.0
C1170 C 0.48165 0.30725 0.85161 0.0
C1171 C 0.52635 0.28743 0.8814 0.0
N1172 N 0.3881 0.32769 0.85576 0.0
N1173 N 0.48296 0.29663 0.88176 0.0
H1174 H 0.65514 0.32293 0.34867 0.0
H1175 H 0.73869 0.53606 0.39755 0.0
H1176 H 0.73996 0.31941 0.39261 0.0
H1177 H 0.70924 0.5356 0.34361 0.0
H1178 H 0.71803 0.45912 0.39907 0.0
H1179 H 0.65616 0.40298 0.34971 0.0
C1180 C 0.674 0.33898 0.35853 0.0
C1181 C 0.69827 0.31448 0.37037 0.0
C1182 C 0.71537 0.47614 0.38698 0.0
C1183 C 0.69813 0.40585 0.372 0.0
C1184 C 0.72676 0.52025 0.3861 0.0
C1185 C 0.72642 0.54234 0.37034 0.0
C1186 C 0.70293 0.45404 0.37208 0.0
C1187 C 0.71052 0.51985 0.35599 0.0
C1188 C 0.67421 0.38459 0.35919 0.0
C1189 C 0.72079 0.33697 0.38324 0.0
N1190 N 0.69984 0.47678 0.35716 0.0
N1191 N 0.72032 0.3814 0.38369 0.0
H1192 H 0.94008 0.78376 0.10625 0.0
H1193 H 0.16639 0.76991 0.15558 0.0
H1194 H 0.95048 0.7519 0.15983 0.0
H1195 H 0.15334 0.83513 0.10703 0.0
H1196 H 0.08686 0.76414 0.15736 0.0
H1197 H 0.0169 0.80584 0.10634 0.0
C1198 C 0.95813 0.7823 0.11813 0.0
C1199 C 0.93871 0.76535 0.13301 0.0
C1200 C 0.1013 0.78 0.14635 0.0
C1201 C 0.02709 0.78968 0.13307 0.0
C1202 C 0.14675 0.78336 0.14535 0.0
C1203 C 0.16655 0.803 0.13113 0.0
C1204 C 0.07532 0.79589 0.13292 0.0
C1205 C 0.13947 0.81907 0.11809 0.0
C1206 C 0.00214 0.79471 0.11814 0.0
C1207 C 0.96393 0.76441 0.14801 0.0
N1208 N 0.09526 0.81492 0.11923 0.0
N1209 N 0.00691 0.77562 0.14757 0.0
H1210 H 0.14753 0.163 0.6454 0.0
H1211 H 0.24045 0.95448 0.5961 0.0
H1212 H 0.23824 0.17089 0.60334 0.0
H1213 H 0.20784 0.95096 0.64976 0.0
H1214 H 0.21895 0.03125 0.5952 0.0
H1215 H 0.15146 0.08297 0.64401 0.0
C1216 C 0.1682 0.14789 0.63586 0.0
C1217 C 0.19296 0.1736 0.62457 0.0
C1218 C 0.21582 0.01339 0.60708 0.0
C1219 C 0.19633 0.08235 0.62255 0.0
C1220 C 0.22766 0.96938 0.60761 0.0
C1221 C 0.2266 0.94621 0.62312 0.0
C1222 C 0.20214 0.03431 0.62208 0.0
C1223 C 0.20965 0.96756 0.63757 0.0
C1224 C 0.17014 0.10232 0.63501 0.0
C1225 C 0.21835 0.15233 0.61219 0.0
N1226 N 0.19847 0.01056 0.63674 0.0
N1227 N 0.2194 0.10795 0.6115 0.0
H1228 H 0.84038 0.16147 0.10751 0.0
H1229 H 0.05039 0.24031 0.15982 0.0
H1230 H 0.83442 0.22911 0.15575 0.0
H1231 H 0.05288 0.21768 0.10539 0.0
H1232 H 0.97392 0.21792 0.16041 0.0
H1233 H 0.92032 0.16659 0.10826 0.0
C1234 C 0.85586 0.17749 0.11824 0.0
C1235 C 0.83067 0.19529 0.13152 0.0
C1236 C 0.99141 0.21727 0.14839 0.0
C1237 C 0.92206 0.20001 0.13269 0.0
C1238 C 0.03529 0.22968 0.14803 0.0
C1239 C 0.05813 0.23166 0.13246 0.0
C1240 C 0.97014 0.20636 0.13311 0.0
C1241 C 0.03657 0.21715 0.11766 0.0
C1242 C 0.90146 0.18004 0.11872 0.0
C1243 C 0.85254 0.21461 0.14532 0.0
N1244 N 0.99362 0.20562 0.11831 0.0
N1245 N 0.89694 0.21651 0.14554 0.0
H1246 H 0.75932 0.04828 0.66005 0.0
H1247 H 0.84433 0.83805 0.60988 0.0
H1248 H 0.78466 0.0525 0.60579 0.0
H1249 H 0.75627 0.83336 0.65289 0.0
H1250 H 0.84028 0.91831 0.61043 0.0
H1251 H 0.77977 0.97133 0.66027 0.0
C1252 C 0.77023 0.03347 0.64823 0.0
C1253 C 0.76943 0.05693 0.6328 0.0
C1254 C 0.82216 0.89952 0.61978 0.0
C1255 C 0.79265 0.96848 0.63304 0.0
C1256 C 0.82409 0.85383 0.6194 0.0
C1257 C 0.80053 0.82895 0.63136 0.0
C1258 C 0.79725 0.92034 0.63244 0.0
C1259 C 0.77557 0.85116 0.64362 0.0
C1260 C 0.7815 0.98935 0.64838 0.0
C1261 C 0.78425 0.03567 0.61795 0.0
N1262 N 0.77475 0.8955 0.6439 0.0
N1263 N 0.79479 0.99245 0.6184 0.0
loop_
_geom_bond_atom_site_label_1
_geom_bond_atom_site_label_2
_geom_bond_distance
_geom_bond_site_symmetry_2
_ccdc_geom_bond_type
Co0 O3 1.970 . S
Co0 N17 1.989 . S
Co0 O25 1.967 . S
Co0 O32 1.920 . S
Co1 O4 1.966 . S
Co1 N10 2.022 . S
Co1 N18 1.993 . S
Co1 O26 1.941 . S
C2 O3 1.258 . S
C2 O4 1.263 . S
O3 Co0 1.970 . S
O3 C2 1.258 . S
O4 Co1 1.966 . S
O4 C2 1.263 . S
C5 O6 1.235 . S
C5 O32 1.289 . S
O6 C5 1.235 . S
C7 C9 1.400 . S
C7 N10 1.351 . S
C7 C12 1.501 . S
C8 C9 1.387 . S
C8 N11 1.341 . S
C9 C7 1.400 . S
C9 C8 1.387 . S
N10 Co1 2.022 . S
N10 C7 1.351 . S
N10 N11 1.365 . S
N11 C8 1.341 . S
N11 N10 1.365 . S
N11 H31 0.862 . S
C12 C7 1.501 . S
C12 H13 0.961 . S
C12 H14 0.961 . S
C12 H15 0.960 . S
H13 C12 0.961 . S
H14 C12 0.961 . S
H15 C12 0.960 . S
C16 N17 1.342 . S
C16 C20 1.401 . S
C16 C21 1.499 . S
N17 Co0 1.989 . S
N17 C16 1.342 . S
N17 N18 1.388 . S
N18 Co1 1.993 . S
N18 N17 1.388 . S
N18 C19 1.346 . S
C19 N18 1.346 . S
C19 C20 1.396 . S
C19 C29 1.510 . S
C20 C16 1.401 . S
C20 C19 1.396 . S
C21 C16 1.499 . S
C21 H22 0.959 . S
C21 H23 0.960 . S
C21 H24 0.961 . S
H22 C21 0.959 . S
H23 C21 0.960 . S
H24 C21 0.961 . S
O25 Co0 1.967 . S
O25 C33 1.258 . S
O26 Co1 1.941 . S
O26 C33 1.266 . S
H27 C29 0.959 . S
H28 C29 0.961 . S
C29 C19 1.510 . S
C29 H27 0.959 . S
C29 H28 0.961 . S
C29 H30 0.960 . S
H30 C29 0.960 . S
H31 N11 0.862 . S
O32 Co0 1.920 . S
O32 C5 1.289 . S
C33 O25 1.258 . S
C33 O26 1.266 . S
Co34 O37 1.970 . S
Co34 N51 1.989 . S
Co34 O59 1.967 . S
Co34 O66 1.920 . S
Co35 O38 1.966 . S
Co35 N44 2.022 . S
Co35 N52 1.993 . S
Co35 O60 1.941 . S
C36 O37 1.258 . S
C36 O38 1.263 . S
O37 Co34 1.970 . S
O37 C36 1.258 . S
O38 Co35 1.966 . S
O38 C36 1.263 . S
C39 O40 1.235 . S
C39 O66 1.289 . S
O40 C39 1.235 . S
C41 C43 1.400 . S
C41 N44 1.351 . S
C41 C46 1.501 . S
C42 C43 1.387 . S
C42 N45 1.341 . S
C43 C41 1.400 . S
C43 C42 1.387 . S
N44 Co35 2.022 . S
N44 C41 1.351 . S
N44 N45 1.365 . S
N45 C42 1.341 . S
N45 N44 1.365 . S
N45 H65 0.862 . S
C46 C41 1.501 . S
C46 H47 0.961 . S
C46 H48 0.961 . S
C46 H49 0.960 . S
H47 C46 0.961 . S
H48 C46 0.961 . S
H49 C46 0.960 . S
C50 N51 1.342 . S
C50 C54 1.401 . S
C50 C55 1.499 . S
N51 Co34 1.989 . S
N51 C50 1.342 . S
N51 N52 1.388 . S
N52 Co35 1.993 . S
N52 N51 1.388 . S
N52 C53 1.346 . S
C53 N52 1.346 . S
C53 C54 1.396 . S
C53 C63 1.510 . S
C54 C50 1.401 . S
C54 C53 1.396 . S
C55 C50 1.499 . S
C55 H56 0.959 . S
C55 H57 0.960 . S
C55 H58 0.961 . S
H56 C55 0.959 . S
H57 C55 0.960 . S
H58 C55 0.961 . S
O59 Co34 1.967 . S
O59 C67 1.258 . S
O60 Co35 1.941 . S
O60 C67 1.266 . S
H61 C63 0.959 . S
H62 C63 0.961 . S
C63 C53 1.510 . S
C63 H61 0.959 . S
C63 H62 0.961 . S
C63 H64 0.960 . S
H64 C63 0.960 . S
H65 N45 0.862 . S
O66 Co34 1.920 . S
O66 C39 1.289 . S
C67 O59 1.258 . S
C67 O60 1.266 . S
Co68 O71 1.970 . S
Co68 N85 1.989 . S
Co68 O93 1.967 . S
Co68 O100 1.920 . S
Co69 O72 1.966 . S
Co69 N78 2.022 . S
Co69 N86 1.993 . S
Co69 O94 1.941 . S
C70 O71 1.258 . S
C70 O72 1.263 . S
O71 Co68 1.970 . S
O71 C70 1.258 . S
O72 Co69 1.966 . S
O72 C70 1.263 . S
C73 O74 1.235 . S
C73 O100 1.289 . S
O74 C73 1.235 . S
C75 C77 1.400 . S
C75 N78 1.351 . S
C75 C80 1.501 . S
C76 C77 1.387 . S
C76 N79 1.341 . S
C77 C75 1.400 . S
C77 C76 1.387 . S
N78 Co69 2.022 . S
N78 C75 1.351 . S
N78 N79 1.365 . S
N79 C76 1.341 . S
N79 N78 1.365 . S
N79 H99 0.862 . S
C80 C75 1.501 . S
C80 H81 0.961 . S
C80 H82 0.961 . S
C80 H83 0.960 . S
H81 C80 0.961 . S
H82 C80 0.961 . S
H83 C80 0.960 . S
C84 N85 1.342 . S
C84 C88 1.401 . S
C84 C89 1.499 . S
N85 Co68 1.989 . S
N85 C84 1.342 . S
N85 N86 1.388 . S
N86 Co69 1.993 . S
N86 N85 1.388 . S
N86 C87 1.346 . S
C87 N86 1.346 . S
C87 C88 1.396 . S
C87 C97 1.510 . S
C88 C84 1.401 . S
C88 C87 1.396 . S
C89 C84 1.499 . S
C89 H90 0.959 . S
C89 H91 0.960 . S
C89 H92 0.961 . S
H90 C89 0.959 . S
H91 C89 0.960 . S
H92 C89 0.961 . S
O93 Co68 1.967 . S
O93 C101 1.258 . S
O94 Co69 1.941 . S
O94 C101 1.266 . S
H95 C97 0.959 . S
H96 C97 0.961 . S
C97 C87 1.510 . S
C97 H95 0.959 . S
C97 H96 0.961 . S
C97 H98 0.960 . S
H98 C97 0.960 . S
H99 N79 0.862 . S
O100 Co68 1.920 . S
O100 C73 1.289 . S
C101 O93 1.258 . S
C101 O94 1.266 . S
Co102 O105 1.970 . S
Co102 N119 1.989 . S
Co102 O127 1.967 . S
Co102 O134 1.920 . S
Co103 O106 1.966 . S
Co103 N112 2.022 . S
Co103 N120 1.993 . S
Co103 O128 1.941 . S
C104 O105 1.258 . S
C104 O106 1.263 . S
O105 Co102 1.970 . S
O105 C104 1.258 . S
O106 Co103 1.966 . S
O106 C104 1.263 . S
C107 O108 1.235 . S
C107 O134 1.289 . S
O108 C107 1.235 . S
C109 C111 1.400 . S
C109 N112 1.351 . S
C109 C114 1.501 . S
C110 C111 1.387 . S
C110 N113 1.341 . S
C111 C109 1.400 . S
C111 C110 1.387 . S
N112 Co103 2.022 . S
N112 C109 1.351 . S
N112 N113 1.365 . S
N113 C110 1.341 . S
N113 N112 1.365 . S
N113 H133 0.862 . S
C114 C109 1.501 . S
C114 H115 0.961 . S
C114 H116 0.961 . S
C114 H117 0.960 . S
H115 C114 0.961 . S
H116 C114 0.961 . S
H117 C114 0.960 . S
C118 N119 1.342 . S
C118 C122 1.401 . S
C118 C123 1.499 . S
N119 Co102 1.989 . S
N119 C118 1.342 . S
N119 N120 1.388 . S
N120 Co103 1.993 . S
N120 N119 1.388 . S
N120 C121 1.346 . S
C121 N120 1.346 . S
C121 C122 1.396 . S
C121 C131 1.510 . S
C122 C118 1.401 . S
C122 C121 1.396 . S
C123 C118 1.499 . S
C123 H124 0.959 . S
C123 H125 0.960 . S
C123 H126 0.961 . S
H124 C123 0.959 . S
H125 C123 0.960 . S
H126 C123 0.961 . S
O127 Co102 1.967 . S
O127 C135 1.258 . S
O128 Co103 1.941 . S
O128 C135 1.266 . S
H129 C131 0.959 . S
H130 C131 0.961 . S
C131 C121 1.510 . S
C131 H129 0.959 . S
C131 H130 0.961 . S
C131 H132 0.960 . S
H132 C131 0.960 . S
H133 N113 0.862 . S
O134 Co102 1.920 . S
O134 C107 1.289 . S
C135 O127 1.258 . S
C135 O128 1.266 . S
Co136 O139 1.970 . S
Co136 N153 1.989 . S
Co136 O161 1.967 . S
Co136 O168 1.920 . S
Co137 O140 1.966 . S
Co137 N146 2.022 . S
Co137 N154 1.993 . S
Co137 O162 1.941 . S
C138 O139 1.258 . S
C138 O140 1.263 . S
O139 Co136 1.970 . S
O139 C138 1.258 . S
O140 Co137 1.966 . S
O140 C138 1.263 . S
C141 O142 1.235 . S
C141 O168 1.289 . S
O142 C141 1.235 . S
C143 C145 1.400 . S
C143 N146 1.351 . S
C143 C148 1.501 . S
C144 C145 1.387 . S
C144 N147 1.341 . S
C145 C143 1.400 . S
C145 C144 1.387 . S
N146 Co137 2.022 . S
N146 C143 1.351 . S
N146 N147 1.365 . S
N147 C144 1.341 . S
N147 N146 1.365 . S
N147 H167 0.862 . S
C148 C143 1.501 . S
C148 H149 0.961 . S
C148 H150 0.961 . S
C148 H151 0.960 . S
H149 C148 0.961 . S
H150 C148 0.961 . S
H151 C148 0.960 . S
C152 N153 1.342 . S
C152 C156 1.401 . S
C152 C157 1.499 . S
N153 Co136 1.989 . S
N153 C152 1.342 . S
N153 N154 1.388 . S
N154 Co137 1.993 . S
N154 N153 1.388 . S
N154 C155 1.346 . S
C155 N154 1.346 . S
C155 C156 1.396 . S
C155 C165 1.510 . S
C156 C152 1.401 . S
C156 C155 1.396 . S
C157 C152 1.499 . S
C157 H158 0.959 . S
C157 H159 0.960 . S
C157 H160 0.961 . S
H158 C157 0.959 . S
H159 C157 0.960 . S
H160 C157 0.961 . S
O161 Co136 1.967 . S
O161 C169 1.258 . S
O162 Co137 1.941 . S
O162 C169 1.266 . S
H163 C165 0.959 . S
H164 C165 0.961 . S
C165 C155 1.510 . S
C165 H163 0.959 . S
C165 H164 0.961 . S
C165 H166 0.960 . S
H166 C165 0.960 . S
H167 N147 0.862 . S
O168 Co136 1.920 . S
O168 C141 1.289 . S
C169 O161 1.258 . S
C169 O162 1.266 . S
Co170 O173 1.970 . S
Co170 N187 1.989 . S
Co170 O195 1.967 . S
Co170 O202 1.920 . S
Co171 O174 1.966 . S
Co171 N180 2.022 . S
Co171 N188 1.993 . S
Co171 O196 1.941 . S
C172 O173 1.258 . S
C172 O174 1.263 . S
O173 Co170 1.970 . S
O173 C172 1.258 . S
O174 Co171 1.966 . S
O174 C172 1.263 . S
C175 O176 1.235 . S
C175 O202 1.289 . S
O176 C175 1.235 . S
C177 C179 1.400 . S
C177 N180 1.351 . S
C177 C182 1.501 . S
C178 C179 1.387 . S
C178 N181 1.341 . S
C179 C177 1.400 . S
C179 C178 1.387 . S
N180 Co171 2.022 . S
N180 C177 1.351 . S
N180 N181 1.365 . S
N181 C178 1.341 . S
N181 N180 1.365 . S
N181 H201 0.862 . S
C182 C177 1.501 . S
C182 H183 0.961 . S
C182 H184 0.961 . S
C182 H185 0.960 . S
H183 C182 0.961 . S
H184 C182 0.961 . S
H185 C182 0.960 . S
C186 N187 1.342 . S
C186 C190 1.401 . S
C186 C191 1.499 . S
N187 Co170 1.989 . S
N187 C186 1.342 . S
N187 N188 1.388 . S
N188 Co171 1.993 . S
N188 N187 1.388 . S
N188 C189 1.346 . S
C189 N188 1.346 . S
C189 C190 1.396 . S
C189 C199 1.510 . S
C190 C186 1.401 . S
C190 C189 1.396 . S
C191 C186 1.499 . S
C191 H192 0.959 . S
C191 H193 0.960 . S
C191 H194 0.961 . S
H192 C191 0.959 . S
H193 C191 0.960 . S
H194 C191 0.961 . S
O195 Co170 1.967 . S
O195 C203 1.258 . S
O196 Co171 1.941 . S
O196 C203 1.266 . S
H197 C199 0.959 . S
H198 C199 0.961 . S
C199 C189 1.510 . S
C199 H197 0.959 . S
C199 H198 0.961 . S
C199 H200 0.960 . S
H200 C199 0.960 . S
H201 N181 0.862 . S
O202 Co170 1.920 . S
O202 C175 1.289 . S
C203 O195 1.258 . S
C203 O196 1.266 . S
Co204 O207 1.970 . S
Co204 N221 1.989 . S
Co204 O229 1.967 . S
Co204 O236 1.920 . S
Co205 O208 1.966 . S
Co205 N214 2.022 . S
Co205 N222 1.993 . S
Co205 O230 1.941 . S
C206 O207 1.258 . S
C206 O208 1.263 . S
O207 Co204 1.970 . S
O207 C206 1.258 . S
O208 Co205 1.966 . S
O208 C206 1.263 . S
C209 O210 1.235 . S
C209 O236 1.289 . S
O210 C209 1.235 . S
C211 C213 1.400 . S
C211 N214 1.351 . S
C211 C216 1.501 . S
C212 C213 1.387 . S
C212 N215 1.341 . S
C213 C211 1.400 . S
C213 C212 1.387 . S
N214 Co205 2.022 . S
N214 C211 1.351 . S
N214 N215 1.365 . S
N215 C212 1.341 . S
N215 N214 1.365 . S
N215 H235 0.862 . S
C216 C211 1.501 . S
C216 H217 0.961 . S
C216 H218 0.961 . S
C216 H219 0.960 . S
H217 C216 0.961 . S
H218 C216 0.961 . S
H219 C216 0.960 . S
C220 N221 1.342 . S
C220 C224 1.401 . S
C220 C225 1.499 . S
N221 Co204 1.989 . S
N221 C220 1.342 . S
N221 N222 1.388 . S
N222 Co205 1.993 . S
N222 N221 1.388 . S
N222 C223 1.346 . S
C223 N222 1.346 . S
C223 C224 1.396 . S
C223 C233 1.510 . S
C224 C220 1.401 . S
C224 C223 1.396 . S
C225 C220 1.499 . S
C225 H226 0.959 . S
C225 H227 0.960 . S
C225 H228 0.961 . S
H226 C225 0.959 . S
H227 C225 0.960 . S
H228 C225 0.961 . S
O229 Co204 1.967 . S
O229 C237 1.258 . S
O230 Co205 1.941 . S
O230 C237 1.266 . S
H231 C233 0.959 . S
H232 C233 0.961 . S
C233 C223 1.510 . S
C233 H231 0.959 . S
C233 H232 0.961 . S
C233 H234 0.960 . S
H234 C233 0.960 . S
H235 N215 0.862 . S
O236 Co204 1.920 . S
O236 C209 1.289 . S
C237 O229 1.258 . S
C237 O230 1.266 . S
Co238 O241 1.970 . S
Co238 N255 1.989 . S
Co238 O263 1.967 . S
Co238 O270 1.920 . S
Co239 O242 1.966 . S
Co239 N248 2.022 . S
Co239 N256 1.993 . S
Co239 O264 1.941 . S
C240 O241 1.258 . S
C240 O242 1.263 . S
O241 Co238 1.970 . S
O241 C240 1.258 . S
O242 Co239 1.966 . S
O242 C240 1.263 . S
C243 O244 1.235 . S
C243 O270 1.289 . S
O244 C243 1.235 . S
C245 C247 1.400 . S
C245 N248 1.351 . S
C245 C250 1.501 . S
C246 C247 1.387 . S
C246 N249 1.341 . S
C247 C245 1.400 . S
C247 C246 1.387 . S
N248 Co239 2.022 . S
N248 C245 1.351 . S
N248 N249 1.365 . S
N249 C246 1.341 . S
N249 N248 1.365 . S
N249 H269 0.862 . S
C250 C245 1.501 . S
C250 H251 0.961 . S
C250 H252 0.961 . S
C250 H253 0.960 . S
H251 C250 0.961 . S
H252 C250 0.961 . S
H253 C250 0.960 . S
C254 N255 1.342 . S
C254 C258 1.401 . S
C254 C259 1.499 . S
N255 Co238 1.989 . S
N255 C254 1.342 . S
N255 N256 1.388 . S
N256 Co239 1.993 . S
N256 N255 1.388 . S
N256 C257 1.346 . S
C257 N256 1.346 . S
C257 C258 1.396 . S
C257 C267 1.510 . S
C258 C254 1.401 . S
C258 C257 1.396 . S
C259 C254 1.499 . S
C259 H260 0.959 . S
C259 H261 0.960 . S
C259 H262 0.961 . S
H260 C259 0.959 . S
H261 C259 0.960 . S
H262 C259 0.961 . S
O263 Co238 1.967 . S
O263 C271 1.258 . S
O264 Co239 1.941 . S
O264 C271 1.266 . S
H265 C267 0.959 . S
H266 C267 0.961 . S
C267 C257 1.510 . S
C267 H265 0.959 . S
C267 H266 0.961 . S
C267 H268 0.960 . S
H268 C267 0.960 . S
H269 N249 0.862 . S
O270 Co238 1.920 . S
O270 C243 1.289 . S
C271 O263 1.258 . S
C271 O264 1.266 . S
Co272 O275 1.970 . S
Co272 N289 1.989 . S
Co272 O297 1.967 . S
Co272 O304 1.920 . S
Co273 O276 1.966 . S
Co273 N282 2.022 . S
Co273 N290 1.993 . S
Co273 O298 1.941 . S
C274 O275 1.258 . S
C274 O276 1.263 . S
O275 Co272 1.970 . S
O275 C274 1.258 . S
O276 Co273 1.966 . S
O276 C274 1.263 . S
C277 O278 1.235 . S
C277 O304 1.289 . S
O278 C277 1.235 . S
C279 C281 1.400 . S
C279 N282 1.351 . S
C279 C284 1.501 . S
C280 C281 1.387 . S
C280 N283 1.341 . S
C281 C279 1.400 . S
C281 C280 1.387 . S
N282 Co273 2.022 . S
N282 C279 1.351 . S
N282 N283 1.365 . S
N283 C280 1.341 . S
N283 N282 1.365 . S
N283 H303 0.862 . S
C284 C279 1.501 . S
C284 H285 0.961 . S
C284 H286 0.961 . S
C284 H287 0.960 . S
H285 C284 0.961 . S
H286 C284 0.961 . S
H287 C284 0.960 . S
C288 N289 1.342 . S
C288 C292 1.401 . S
C288 C293 1.499 . S
N289 Co272 1.989 . S
N289 C288 1.342 . S
N289 N290 1.388 . S
N290 Co273 1.993 . S
N290 N289 1.388 . S
N290 C291 1.346 . S
C291 N290 1.346 . S
C291 C292 1.396 . S
C291 C301 1.510 . S
C292 C288 1.401 . S
C292 C291 1.396 . S
C293 C288 1.499 . S
C293 H294 0.959 . S
C293 H295 0.960 . S
C293 H296 0.961 . S
H294 C293 0.959 . S
H295 C293 0.960 . S
H296 C293 0.961 . S
O297 Co272 1.967 . S
O297 C305 1.258 . S
O298 Co273 1.941 . S
O298 C305 1.266 . S
H299 C301 0.959 . S
H300 C301 0.961 . S
C301 C291 1.510 . S
C301 H299 0.959 . S
C301 H300 0.961 . S
C301 H302 0.960 . S
H302 C301 0.960 . S
H303 N283 0.862 . S
O304 Co272 1.920 . S
O304 C277 1.289 . S
C305 O297 1.258 . S
C305 O298 1.266 . S
Co306 O309 1.970 . S
Co306 N323 1.989 . S
Co306 O331 1.967 . S
Co306 O338 1.920 . S
Co307 O310 1.966 . S
Co307 N316 2.022 . S
Co307 N324 1.993 . S
Co307 O332 1.941 . S
C308 O309 1.258 . S
C308 O310 1.263 . S
O309 Co306 1.970 . S
O309 C308 1.258 . S
O310 Co307 1.966 . S
O310 C308 1.263 . S
C311 O312 1.235 . S
C311 O338 1.289 . S
O312 C311 1.235 . S
C313 C315 1.400 . S
C313 N316 1.351 . S
C313 C318 1.501 . S
C314 C315 1.387 . S
C314 N317 1.341 . S
C315 C313 1.400 . S
C315 C314 1.387 . S
N316 Co307 2.022 . S
N316 C313 1.351 . S
N316 N317 1.365 . S
N317 C314 1.341 . S
N317 N316 1.365 . S
N317 H337 0.862 . S
C318 C313 1.501 . S
C318 H319 0.961 . S
C318 H320 0.961 . S
C318 H321 0.960 . S
H319 C318 0.961 . S
H320 C318 0.961 . S
H321 C318 0.960 . S
C322 N323 1.342 . S
C322 C326 1.401 . S
C322 C327 1.499 . S
N323 Co306 1.989 . S
N323 C322 1.342 . S
N323 N324 1.388 . S
N324 Co307 1.993 . S
N324 N323 1.388 . S
N324 C325 1.346 . S
C325 N324 1.346 . S
C325 C326 1.396 . S
C325 C335 1.510 . S
C326 C322 1.401 . S
C326 C325 1.396 . S
C327 C322 1.499 . S
C327 H328 0.959 . S
C327 H329 0.960 . S
C327 H330 0.961 . S
H328 C327 0.959 . S
H329 C327 0.960 . S
H330 C327 0.961 . S
O331 Co306 1.967 . S
O331 C339 1.258 . S
O332 Co307 1.941 . S
O332 C339 1.266 . S
H333 C335 0.959 . S
H334 C335 0.961 . S
C335 C325 1.510 . S
C335 H333 0.959 . S
C335 H334 0.961 . S
C335 H336 0.960 . S
H336 C335 0.960 . S
H337 N317 0.862 . S
O338 Co306 1.920 . S
O338 C311 1.289 . S
C339 O331 1.258 . S
C339 O332 1.266 . S
Co340 O343 1.970 . S
Co340 N357 1.989 . S
Co340 O365 1.967 . S
Co340 O372 1.920 . S
Co341 O344 1.966 . S
Co341 N350 2.022 . S
Co341 N358 1.993 . S
Co341 O366 1.941 . S
C342 O343 1.258 . S
C342 O344 1.263 . S
O343 Co340 1.970 . S
O343 C342 1.258 . S
O344 Co341 1.966 . S
O344 C342 1.263 . S
C345 O346 1.235 . S
C345 O372 1.289 . S
O346 C345 1.235 . S
C347 C349 1.400 . S
C347 N350 1.351 . S
C347 C352 1.501 . S
C348 C349 1.387 . S
C348 N351 1.341 . S
C349 C347 1.400 . S
C349 C348 1.387 . S
N350 Co341 2.022 . S
N350 C347 1.351 . S
N350 N351 1.365 . S
N351 C348 1.341 . S
N351 N350 1.365 . S
N351 H371 0.862 . S
C352 C347 1.501 . S
C352 H353 0.961 . S
C352 H354 0.961 . S
C352 H355 0.960 . S
H353 C352 0.961 . S
H354 C352 0.961 . S
H355 C352 0.960 . S
C356 N357 1.342 . S
C356 C360 1.401 . S
C356 C361 1.499 . S
N357 Co340 1.989 . S
N357 C356 1.342 . S
N357 N358 1.388 . S
N358 Co341 1.993 . S
N358 N357 1.388 . S
N358 C359 1.346 . S
C359 N358 1.346 . S
C359 C360 1.396 . S
C359 C369 1.510 . S
C360 C356 1.401 . S
C360 C359 1.396 . S
C361 C356 1.499 . S
C361 H362 0.959 . S
C361 H363 0.960 . S
C361 H364 0.961 . S
H362 C361 0.959 . S
H363 C361 0.960 . S
H364 C361 0.961 . S
O365 Co340 1.967 . S
O365 C373 1.258 . S
O366 Co341 1.941 . S
O366 C373 1.266 . S
H367 C369 0.959 . S
H368 C369 0.961 . S
C369 C359 1.510 . S
C369 H367 0.959 . S
C369 H368 0.961 . S
C369 H370 0.960 . S
H370 C369 0.960 . S
H371 N351 0.862 . S
O372 Co340 1.920 . S
O372 C345 1.289 . S
C373 O365 1.258 . S
C373 O366 1.266 . S
Co374 O377 1.970 . S
Co374 N391 1.989 . S
Co374 O399 1.967 . S
Co374 O406 1.920 . S
Co375 O378 1.966 . S
Co375 N384 2.022 . S
Co375 N392 1.993 . S
Co375 O400 1.941 . S
C376 O377 1.258 . S
C376 O378 1.263 . S
O377 Co374 1.970 . S
O377 C376 1.258 . S
O378 Co375 1.966 . S
O378 C376 1.263 . S
C379 O380 1.235 . S
C379 O406 1.289 . S
O380 C379 1.235 . S
C381 C383 1.400 . S
C381 N384 1.351 . S
C381 C386 1.501 . S
C382 C383 1.387 . S
C382 N385 1.341 . S
C383 C381 1.400 . S
C383 C382 1.387 . S
N384 Co375 2.022 . S
N384 C381 1.351 . S
N384 N385 1.365 . S
N385 C382 1.341 . S
N385 N384 1.365 . S
N385 H405 0.862 . S
C386 C381 1.501 . S
C386 H387 0.961 . S
C386 H388 0.961 . S
C386 H389 0.960 . S
H387 C386 0.961 . S
H388 C386 0.961 . S
H389 C386 0.960 . S
C390 N391 1.342 . S
C390 C394 1.401 . S
C390 C395 1.499 . S
N391 Co374 1.989 . S
N391 C390 1.342 . S
N391 N392 1.388 . S
N392 Co375 1.993 . S
N392 N391 1.388 . S
N392 C393 1.346 . S
C393 N392 1.346 . S
C393 C394 1.396 . S
C393 C403 1.510 . S
C394 C390 1.401 . S
C394 C393 1.396 . S
C395 C390 1.499 . S
C395 H396 0.959 . S
C395 H397 0.960 . S
C395 H398 0.961 . S
H396 C395 0.959 . S
H397 C395 0.960 . S
H398 C395 0.961 . S
O399 Co374 1.967 . S
O399 C407 1.258 . S
O400 Co375 1.941 . S
O400 C407 1.266 . S
H401 C403 0.959 . S
H402 C403 0.961 . S
C403 C393 1.510 . S
C403 H401 0.959 . S
C403 H402 0.961 . S
C403 H404 0.960 . S
H404 C403 0.960 . S
H405 N385 0.862 . S
O406 Co374 1.920 . S
O406 C379 1.289 . S
C407 O399 1.258 . S
C407 O400 1.266 . S
Co408 O411 1.970 . S
Co408 N425 1.989 . S
Co408 O433 1.967 . S
Co408 O440 1.920 . S
Co409 O412 1.966 . S
Co409 N418 2.022 . S
Co409 N426 1.993 . S
Co409 O434 1.941 . S
C410 O411 1.258 . S
C410 O412 1.263 . S
O411 Co408 1.970 . S
O411 C410 1.258 . S
O412 Co409 1.966 . S
O412 C410 1.263 . S
C413 O414 1.235 . S
C413 O440 1.289 . S
O414 C413 1.235 . S
C415 C417 1.400 . S
C415 N418 1.351 . S
C415 C420 1.501 . S
C416 C417 1.387 . S
C416 N419 1.341 . S
C417 C415 1.400 . S
C417 C416 1.387 . S
N418 Co409 2.022 . S
N418 C415 1.351 . S
N418 N419 1.365 . S
N419 C416 1.341 . S
N419 N418 1.365 . S
N419 H439 0.862 . S
C420 C415 1.501 . S
C420 H421 0.961 . S
C420 H422 0.961 . S
C420 H423 0.960 . S
H421 C420 0.961 . S
H422 C420 0.961 . S
H423 C420 0.960 . S
C424 N425 1.342 . S
C424 C428 1.401 . S
C424 C429 1.499 . S
N425 Co408 1.989 . S
N425 C424 1.342 . S
N425 N426 1.388 . S
N426 Co409 1.993 . S
N426 N425 1.388 . S
N426 C427 1.346 . S
C427 N426 1.346 . S
C427 C428 1.396 . S
C427 C437 1.510 . S
C428 C424 1.401 . S
C428 C427 1.396 . S
C429 C424 1.499 . S
C429 H430 0.959 . S
C429 H431 0.960 . S
C429 H432 0.961 . S
H430 C429 0.959 . S
H431 C429 0.960 . S
H432 C429 0.961 . S
O433 Co408 1.967 . S
O433 C441 1.258 . S
O434 Co409 1.941 . S
O434 C441 1.266 . S
H435 C437 0.959 . S
H436 C437 0.961 . S
C437 C427 1.510 . S
C437 H435 0.959 . S
C437 H436 0.961 . S
C437 H438 0.960 . S
H438 C437 0.960 . S
H439 N419 0.862 . S
O440 Co408 1.920 . S
O440 C413 1.289 . S
C441 O433 1.258 . S
C441 O434 1.266 . S
Co442 O445 1.970 . S
Co442 N459 1.989 . S
Co442 O467 1.967 . S
Co442 O474 1.920 . S
Co443 O446 1.966 . S
Co443 N452 2.022 . S
Co443 N460 1.993 . S
Co443 O468 1.941 . S
C444 O445 1.258 . S
C444 O446 1.263 . S
O445 Co442 1.970 . S
O445 C444 1.258 . S
O446 Co443 1.966 . S
O446 C444 1.263 . S
C447 O448 1.235 . S
C447 O474 1.289 . S
O448 C447 1.235 . S
C449 C451 1.400 . S
C449 N452 1.351 . S
C449 C454 1.501 . S
C450 C451 1.387 . S
C450 N453 1.341 . S
C451 C449 1.400 . S
C451 C450 1.387 . S
N452 Co443 2.022 . S
N452 C449 1.351 . S
N452 N453 1.365 . S
N453 C450 1.341 . S
N453 N452 1.365 . S
N453 H473 0.862 . S
C454 C449 1.501 . S
C454 H455 0.961 . S
C454 H456 0.961 . S
C454 H457 0.960 . S
H455 C454 0.961 . S
H456 C454 0.961 . S
H457 C454 0.960 . S
C458 N459 1.342 . S
C458 C462 1.401 . S
C458 C463 1.499 . S
N459 Co442 1.989 . S
N459 C458 1.342 . S
N459 N460 1.388 . S
N460 Co443 1.993 . S
N460 N459 1.388 . S
N460 C461 1.346 . S
C461 N460 1.346 . S
C461 C462 1.396 . S
C461 C471 1.510 . S
C462 C458 1.401 . S
C462 C461 1.396 . S
C463 C458 1.499 . S
C463 H464 0.959 . S
C463 H465 0.960 . S
C463 H466 0.961 . S
H464 C463 0.959 . S
H465 C463 0.960 . S
H466 C463 0.961 . S
O467 Co442 1.967 . S
O467 C475 1.258 . S
O468 Co443 1.941 . S
O468 C475 1.266 . S
H469 C471 0.959 . S
H470 C471 0.961 . S
C471 C461 1.510 . S
C471 H469 0.959 . S
C471 H470 0.961 . S
C471 H472 0.960 . S
H472 C471 0.960 . S
H473 N453 0.862 . S
O474 Co442 1.920 . S
O474 C447 1.289 . S
C475 O467 1.258 . S
C475 O468 1.266 . S
Co476 O479 1.970 . S
Co476 N493 1.989 . S
Co476 O501 1.967 . S
Co476 O508 1.920 . S
Co477 O480 1.966 . S
Co477 N486 2.022 . S
Co477 N494 1.993 . S
Co477 O502 1.941 . S
C478 O479 1.258 . S
C478 O480 1.263 . S
O479 Co476 1.970 . S
O479 C478 1.258 . S
O480 Co477 1.966 . S
O480 C478 1.263 . S
C481 O482 1.235 . S
C481 O508 1.289 . S
O482 C481 1.235 . S
C483 C485 1.400 . S
C483 N486 1.351 . S
C483 C488 1.501 . S
C484 C485 1.387 . S
C484 N487 1.341 . S
C485 C483 1.400 . S
C485 C484 1.387 . S
N486 Co477 2.022 . S
N486 C483 1.351 . S
N486 N487 1.365 . S
N487 C484 1.341 . S
N487 N486 1.365 . S
N487 H507 0.862 . S
C488 C483 1.501 . S
C488 H489 0.961 . S
C488 H490 0.961 . S
C488 H491 0.960 . S
H489 C488 0.961 . S
H490 C488 0.961 . S
H491 C488 0.960 . S
C492 N493 1.342 . S
C492 C496 1.401 . S
C492 C497 1.499 . S
N493 Co476 1.989 . S
N493 C492 1.342 . S
N493 N494 1.388 . S
N494 Co477 1.993 . S
N494 N493 1.388 . S
N494 C495 1.346 . S
C495 N494 1.346 . S
C495 C496 1.396 . S
C495 C505 1.510 . S
C496 C492 1.401 . S
C496 C495 1.396 . S
C497 C492 1.499 . S
C497 H498 0.959 . S
C497 H499 0.960 . S
C497 H500 0.961 . S
H498 C497 0.959 . S
H499 C497 0.960 . S
H500 C497 0.961 . S
O501 Co476 1.967 . S
O501 C509 1.258 . S
O502 Co477 1.941 . S
O502 C509 1.266 . S
H503 C505 0.959 . S
H504 C505 0.961 . S
C505 C495 1.510 . S
C505 H503 0.959 . S
C505 H504 0.961 . S
C505 H506 0.960 . S
H506 C505 0.960 . S
H507 N487 0.862 . S
O508 Co476 1.920 . S
O508 C481 1.289 . S
C509 O501 1.258 . S
C509 O502 1.266 . S
Co510 O513 1.970 . S
Co510 N527 1.989 . S
Co510 O535 1.967 . S
Co510 O542 1.920 . S
Co511 O514 1.966 . S
Co511 N520 2.022 . S
Co511 N528 1.993 . S
Co511 O536 1.941 . S
C512 O513 1.258 . S
C512 O514 1.263 . S
O513 Co510 1.970 . S
O513 C512 1.258 . S
O514 Co511 1.966 . S
O514 C512 1.263 . S
C515 O516 1.235 . S
C515 O542 1.289 . S
O516 C515 1.235 . S
C517 C519 1.400 . S
C517 N520 1.351 . S
C517 C522 1.501 . S
C518 C519 1.387 . S
C518 N521 1.341 . S
C519 C517 1.400 . S
C519 C518 1.387 . S
N520 Co511 2.022 . S
N520 C517 1.351 . S
N520 N521 1.365 . S
N521 C518 1.341 . S
N521 N520 1.365 . S
N521 H541 0.862 . S
C522 C517 1.501 . S
C522 H523 0.961 . S
C522 H524 0.961 . S
C522 H525 0.960 . S
H523 C522 0.961 . S
H524 C522 0.961 . S
H525 C522 0.960 . S
C526 N527 1.342 . S
C526 C530 1.401 . S
C526 C531 1.499 . S
N527 Co510 1.989 . S
N527 C526 1.342 . S
N527 N528 1.388 . S
N528 Co511 1.993 . S
N528 N527 1.388 . S
N528 C529 1.346 . S
C529 N528 1.346 . S
C529 C530 1.396 . S
C529 C539 1.510 . S
C530 C526 1.401 . S
C530 C529 1.396 . S
C531 C526 1.499 . S
C531 H532 0.959 . S
C531 H533 0.960 . S
C531 H534 0.961 . S
H532 C531 0.959 . S
H533 C531 0.960 . S
H534 C531 0.961 . S
O535 Co510 1.967 . S
O535 C543 1.258 . S
O536 Co511 1.941 . S
O536 C543 1.266 . S
H537 C539 0.959 . S
H538 C539 0.961 . S
C539 C529 1.510 . S
C539 H537 0.959 . S
C539 H538 0.961 . S
C539 H540 0.960 . S
H540 C539 0.960 . S
H541 N521 0.862 . S
O542 Co510 1.920 . S
O542 C515 1.289 . S
C543 O535 1.258 . S
C543 O536 1.266 . S
H544 C550 0.930 . S
H545 C554 0.930 . S
H546 C559 0.929 . S
H547 C557 0.929 . S
H548 C552 0.929 . S
H549 C558 0.929 . S
C550 H544 0.930 . S
C550 C551 1.367 . S
C550 C558 1.378 . S
C551 C550 1.367 . S
C551 C559 1.433 . S
C552 H548 0.929 . S
C552 C554 1.378 . S
C552 C556 1.350 . S
C553 C556 1.463 . S
C553 C558 1.350 . S
C553 N561 1.427 . S
C554 H545 0.930 . S
C554 C552 1.378 . S
C554 C555 1.367 . S
C555 C554 1.367 . S
C555 C557 1.433 . S
C556 C552 1.350 . S
C556 C553 1.463 . S
C556 N560 1.427 . S
C557 H547 0.929 . S
C557 C555 1.433 . S
C557 N560 1.384 . S
C558 H549 0.929 . S
C558 C550 1.378 . S
C558 C553 1.350 . S
C559 H546 0.929 . S
C559 C551 1.433 . S
C559 N561 1.384 . S
N560 C556 1.427 . S
N560 C557 1.384 . S
N561 C553 1.427 . S
N561 C559 1.384 . S
H562 C568 0.930 . S
H563 C572 0.930 . S
H564 C577 0.929 . S
H565 C575 0.929 . S
H566 C570 0.929 . S
H567 C576 0.929 . S
C568 H562 0.930 . S
C568 C569 1.367 . S
C568 C576 1.378 . S
C569 C568 1.367 . S
C569 C577 1.433 . S
C570 H566 0.929 . S
C570 C572 1.378 . S
C570 C574 1.350 . S
C571 C574 1.463 . S
C571 C576 1.350 . S
C571 N579 1.427 . S
C572 H563 0.930 . S
C572 C570 1.378 . S
C572 C573 1.367 . S
C573 C572 1.367 . S
C573 C575 1.433 . S
C574 C570 1.350 . S
C574 C571 1.463 . S
C574 N578 1.427 . S
C575 H565 0.929 . S
C575 C573 1.433 . S
C575 N578 1.384 . S
C576 H567 0.929 . S
C576 C568 1.378 . S
C576 C571 1.350 . S
C577 H564 0.929 . S
C577 C569 1.433 . S
C577 N579 1.384 . S
N578 C574 1.427 . S
N578 C575 1.384 . S
N579 C571 1.427 . S
N579 C577 1.384 . S
H580 C586 0.930 . S
H581 C590 0.930 . S
H582 C595 0.929 . S
H583 C593 0.929 . S
H584 C588 0.929 . S
H585 C594 0.929 . S
C586 H580 0.930 . S
C586 C587 1.367 . S
C586 C594 1.378 . S
C587 C586 1.367 . S
C587 C595 1.433 . S
C588 H584 0.929 . S
C588 C590 1.378 . S
C588 C592 1.350 . S
C589 C592 1.463 . S
C589 C594 1.350 . S
C589 N597 1.427 . S
C590 H581 0.930 . S
C590 C588 1.378 . S
C590 C591 1.367 . S
C591 C590 1.367 . S
C591 C593 1.433 . S
C592 C588 1.350 . S
C592 C589 1.463 . S
C592 N596 1.427 . S
C593 H583 0.929 . S
C593 C591 1.433 . S
C593 N596 1.384 . S
C594 H585 0.929 . S
C594 C586 1.378 . S
C594 C589 1.350 . S
C595 H582 0.929 . S
C595 C587 1.433 . S
C595 N597 1.384 . S
N596 C592 1.427 . S
N596 C593 1.384 . S
N597 C589 1.427 . S
N597 C595 1.384 . S
H598 C604 0.930 . S
H599 C608 0.930 . S
H600 C613 0.929 . S
H601 C611 0.929 . S
H602 C606 0.929 . S
H603 C612 0.929 . S
C604 H598 0.930 . S
C604 C605 1.367 . S
C604 C612 1.378 . S
C605 C604 1.367 . S
C605 C613 1.433 . S
C606 H602 0.929 . S
C606 C608 1.378 . S
C606 C610 1.350 . S
C607 C610 1.463 . S
C607 C612 1.350 . S
C607 N615 1.427 . S
C608 H599 0.930 . S
C608 C606 1.378 . S
C608 C609 1.367 . S
C609 C608 1.367 . S
C609 C611 1.433 . S
C610 C606 1.350 . S
C610 C607 1.463 . S
C610 N614 1.427 . S
C611 H601 0.929 . S
C611 C609 1.433 . S
C611 N614 1.384 . S
C612 H603 0.929 . S
C612 C604 1.378 . S
C612 C607 1.350 . S
C613 H600 0.929 . S
C613 C605 1.433 . S
C613 N615 1.384 . S
N614 C610 1.427 . S
N614 C611 1.384 . S
N615 C607 1.427 . S
N615 C613 1.384 . S
H616 C622 0.930 . S
H617 C626 0.930 . S
H618 C631 0.929 . S
H619 C629 0.929 . S
H620 C624 0.929 . S
H621 C630 0.929 . S
C622 H616 0.930 . S
C622 C623 1.367 . S
C622 C630 1.378 . S
C623 C622 1.367 . S
C623 C631 1.433 . S
C624 H620 0.929 . S
C624 C626 1.378 . S
C624 C628 1.350 . S
C625 C628 1.463 . S
C625 C630 1.350 . S
C625 N633 1.427 . S
C626 H617 0.930 . S
C626 C624 1.378 . S
C626 C627 1.367 . S
C627 C626 1.367 . S
C627 C629 1.433 . S
C628 C624 1.350 . S
C628 C625 1.463 . S
C628 N632 1.427 . S
C629 H619 0.929 . S
C629 C627 1.433 . S
C629 N632 1.384 . S
C630 H621 0.929 . S
C630 C622 1.378 . S
C630 C625 1.350 . S
C631 H618 0.929 . S
C631 C623 1.433 . S
C631 N633 1.384 . S
N632 C628 1.427 . S
N632 C629 1.384 . S
N633 C625 1.427 . S
N633 C631 1.384 . S
H634 C640 0.930 . S
H635 C644 0.930 . S
H636 C649 0.929 . S
H637 C647 0.929 . S
H638 C642 0.929 . S
H639 C648 0.929 . S
C640 H634 0.930 . S
C640 C641 1.367 . S
C640 C648 1.378 . S
C641 C640 1.367 . S
C641 C649 1.433 . S
C642 H638 0.929 . S
C642 C644 1.378 . S
C642 C646 1.350 . S
C643 C646 1.463 . S
C643 C648 1.350 . S
C643 N651 1.427 . S
C644 H635 0.930 . S
C644 C642 1.378 . S
C644 C645 1.367 . S
C645 C644 1.367 . S
C645 C647 1.433 . S
C646 C642 1.350 . S
C646 C643 1.463 . S
C646 N650 1.427 . S
C647 H637 0.929 . S
C647 C645 1.433 . S
C647 N650 1.384 . S
C648 H639 0.929 . S
C648 C640 1.378 . S
C648 C643 1.350 . S
C649 H636 0.929 . S
C649 C641 1.433 . S
C649 N651 1.384 . S
N650 C646 1.427 . S
N650 C647 1.384 . S
N651 C643 1.427 . S
N651 C649 1.384 . S
H652 C658 0.930 . S
H653 C662 0.930 . S
H654 C667 0.929 . S
H655 C665 0.929 . S
H656 C660 0.929 . S
H657 C666 0.929 . S
C658 H652 0.930 . S
C658 C659 1.367 . S
C658 C666 1.378 . S
C659 C658 1.367 . S
C659 C667 1.433 . S
C660 H656 0.929 . S
C660 C662 1.378 . S
C660 C664 1.350 . S
C661 C664 1.463 . S
C661 C666 1.350 . S
C661 N669 1.427 . S
C662 H653 0.930 . S
C662 C660 1.378 . S
C662 C663 1.367 . S
C663 C662 1.367 . S
C663 C665 1.433 . S
C664 C660 1.350 . S
C664 C661 1.463 . S
C664 N668 1.427 . S
C665 H655 0.929 . S
C665 C663 1.433 . S
C665 N668 1.384 . S
C666 H657 0.929 . S
C666 C658 1.378 . S
C666 C661 1.350 . S
C667 H654 0.929 . S
C667 C659 1.433 . S
C667 N669 1.384 . S
N668 C664 1.427 . S
N668 C665 1.384 . S
N669 C661 1.427 . S
N669 C667 1.384 . S
H670 C676 0.930 . S
H671 C680 0.930 . S
H672 C685 0.929 . S
H673 C683 0.929 . S
H674 C678 0.929 . S
H675 C684 0.929 . S
C676 H670 0.930 . S
C676 C677 1.367 . S
C676 C684 1.378 . S
C677 C676 1.367 . S
C677 C685 1.433 . S
C678 H674 0.929 . S
C678 C680 1.378 . S
C678 C682 1.350 . S
C679 C682 1.463 . S
C679 C684 1.350 . S
C679 N687 1.427 . S
C680 H671 0.930 . S
C680 C678 1.378 . S
C680 C681 1.367 . S
C681 C680 1.367 . S
C681 C683 1.433 . S
C682 C678 1.350 . S
C682 C679 1.463 . S
C682 N686 1.427 . S
C683 H673 0.929 . S
C683 C681 1.433 . S
C683 N686 1.384 . S
C684 H675 0.929 . S
C684 C676 1.378 . S
C684 C679 1.350 . S
C685 H672 0.929 . S
C685 C677 1.433 . S
C685 N687 1.384 . S
N686 C682 1.427 . S
N686 C683 1.384 . S
N687 C679 1.427 . S
N687 C685 1.384 . S
H688 C694 0.930 . S
H689 C698 0.930 . S
H690 C703 0.929 . S
H691 C701 0.929 . S
H692 C696 0.929 . S
H693 C702 0.929 . S
C694 H688 0.930 . S
C694 C695 1.367 . S
C694 C702 1.378 . S
C695 C694 1.367 . S
C695 C703 1.433 . S
C696 H692 0.929 . S
C696 C698 1.378 . S
C696 C700 1.350 . S
C697 C700 1.463 1_554 S
C697 C702 1.350 . S
C697 N705 1.427 . S
C698 H689 0.930 . S
C698 C696 1.378 . S
C698 C699 1.367 . S
C699 C698 1.367 . S
C699 C701 1.433 . S
C700 C696 1.350 . S
C700 C697 1.463 1_556 S
C700 N704 1.427 . S
C701 H691 0.929 . S
C701 C699 1.433 . S
C701 N704 1.384 . S
C702 H693 0.929 . S
C702 C694 1.378 . S
C702 C697 1.350 . S
C703 H690 0.929 . S
C703 C695 1.433 . S
C703 N705 1.384 . S
N704 C700 1.427 . S
N704 C701 1.384 . S
N705 C697 1.427 . S
N705 C703 1.384 . S
H706 C712 0.930 . S
H707 C716 0.930 . S
H708 C721 0.929 . S
H709 C719 0.929 . S
H710 C714 0.929 . S
H711 C720 0.929 . S
C712 H706 0.930 . S
C712 C713 1.367 . S
C712 C720 1.378 . S
C713 C712 1.367 . S
C713 C721 1.433 . S
C714 H710 0.929 . S
C714 C716 1.378 . S
C714 C718 1.350 . S
C715 C718 1.463 . S
C715 C720 1.350 . S
C715 N723 1.427 . S
C716 H707 0.930 . S
C716 C714 1.378 . S
C716 C717 1.367 . S
C717 C716 1.367 . S
C717 C719 1.433 . S
C718 C714 1.350 . S
C718 C715 1.463 . S
C718 N722 1.427 . S
C719 H709 0.929 . S
C719 C717 1.433 . S
C719 N722 1.384 . S
C720 H711 0.929 . S
C720 C712 1.378 . S
C720 C715 1.350 . S
C721 H708 0.929 . S
C721 C713 1.433 . S
C721 N723 1.384 . S
N722 C718 1.427 . S
N722 C719 1.384 . S
N723 C715 1.427 . S
N723 C721 1.384 . S
H724 C730 0.930 . S
H725 C734 0.930 . S
H726 C739 0.929 . S
H727 C737 0.929 . S
H728 C732 0.929 . S
H729 C738 0.929 . S
C730 H724 0.930 . S
C730 C731 1.367 . S
C730 C738 1.378 . S
C731 C730 1.367 . S
C731 C739 1.433 . S
C732 H728 0.929 . S
C732 C734 1.378 . S
C732 C736 1.350 . S
C733 C736 1.463 1_556 S
C733 C738 1.350 . S
C733 N741 1.427 . S
C734 H725 0.930 . S
C734 C732 1.378 . S
C734 C735 1.367 . S
C735 C734 1.367 . S
C735 C737 1.433 . S
C736 C732 1.350 . S
C736 C733 1.463 1_554 S
C736 N740 1.427 . S
C737 H727 0.929 . S
C737 C735 1.433 . S
C737 N740 1.384 . S
C738 H729 0.929 . S
C738 C730 1.378 . S
C738 C733 1.350 . S
C739 H726 0.929 . S
C739 C731 1.433 . S
C739 N741 1.384 . S
N740 C736 1.427 . S
N740 C737 1.384 . S
N741 C733 1.427 . S
N741 C739 1.384 . S
H742 C748 0.930 . S
H743 C752 0.930 . S
H744 C757 0.929 . S
H745 C755 0.929 . S
H746 C750 0.929 . S
H747 C756 0.929 . S
C748 H742 0.930 . S
C748 C749 1.367 . S
C748 C756 1.378 . S
C749 C748 1.367 . S
C749 C757 1.433 . S
C750 H746 0.929 . S
C750 C752 1.378 . S
C750 C754 1.350 . S
C751 C754 1.463 . S
C751 C756 1.350 . S
C751 N759 1.427 . S
C752 H743 0.930 . S
C752 C750 1.378 . S
C752 C753 1.367 . S
C753 C752 1.367 . S
C753 C755 1.433 . S
C754 C750 1.350 . S
C754 C751 1.463 . S
C754 N758 1.427 . S
C755 H745 0.929 . S
C755 C753 1.433 . S
C755 N758 1.384 . S
C756 H747 0.929 . S
C756 C748 1.378 . S
C756 C751 1.350 . S
C757 H744 0.929 . S
C757 C749 1.433 . S
C757 N759 1.384 . S
N758 C754 1.427 . S
N758 C755 1.384 . S
N759 C751 1.427 . S
N759 C757 1.384 . S
H760 C766 0.930 . S
H761 C770 0.930 . S
H762 C775 0.929 . S
H763 C773 0.929 . S
H764 C768 0.929 . S
H765 C774 0.929 . S
C766 H760 0.930 . S
C766 C767 1.367 . S
C766 C774 1.378 . S
C767 C766 1.367 . S
C767 C775 1.433 . S
C768 H764 0.929 . S
C768 C770 1.378 . S
C768 C772 1.350 . S
C769 C772 1.463 1_554 S
C769 C774 1.350 . S
C769 N777 1.427 . S
C770 H761 0.930 . S
C770 C768 1.378 . S
C770 C771 1.367 . S
C771 C770 1.367 . S
C771 C773 1.433 . S
C772 C768 1.350 . S
C772 C769 1.463 1_556 S
C772 N776 1.427 . S
C773 H763 0.929 . S
C773 C771 1.433 . S
C773 N776 1.384 . S
C774 H765 0.929 . S
C774 C766 1.378 . S
C774 C769 1.350 . S
C775 H762 0.929 . S
C775 C767 1.433 . S
C775 N777 1.384 . S
N776 C772 1.427 . S
N776 C773 1.384 . S
N777 C769 1.427 . S
N777 C775 1.384 . S
H778 C784 0.930 . S
H779 C788 0.930 . S
H780 C793 0.929 . S
H781 C791 0.929 . S
H782 C786 0.929 . S
H783 C792 0.929 . S
C784 H778 0.930 . S
C784 C785 1.367 . S
C784 C792 1.378 . S
C785 C784 1.367 . S
C785 C793 1.433 . S
C786 H782 0.929 . S
C786 C788 1.378 . S
C786 C790 1.350 . S
C787 C790 1.463 . S
C787 C792 1.350 . S
C787 N795 1.427 . S
C788 H779 0.930 . S
C788 C786 1.378 . S
C788 C789 1.367 . S
C789 C788 1.367 . S
C789 C791 1.433 . S
C790 C786 1.350 . S
C790 C787 1.463 . S
C790 N794 1.427 . S
C791 H781 0.929 . S
C791 C789 1.433 . S
C791 N794 1.384 . S
C792 H783 0.929 . S
C792 C784 1.378 . S
C792 C787 1.350 . S
C793 H780 0.929 . S
C793 C785 1.433 . S
C793 N795 1.384 . S
N794 C790 1.427 . S
N794 C791 1.384 . S
N795 C787 1.427 . S
N795 C793 1.384 . S
H796 C802 0.930 . S
H797 C806 0.930 . S
H798 C811 0.929 . S
H799 C809 0.929 . S
H800 C804 0.929 . S
H801 C810 0.929 . S
C802 H796 0.930 . S
C802 C803 1.367 . S
C802 C810 1.378 . S
C803 C802 1.367 . S
C803 C811 1.433 . S
C804 H800 0.929 . S
C804 C806 1.378 . S
C804 C808 1.350 . S
C805 C808 1.463 1_554 S
C805 C810 1.350 . S
C805 N813 1.427 . S
C806 H797 0.930 . S
C806 C804 1.378 . S
C806 C807 1.367 . S
C807 C806 1.367 . S
C807 C809 1.433 . S
C808 C804 1.350 . S
C808 C805 1.463 1_556 S
C808 N812 1.427 . S
C809 H799 0.929 . S
C809 C807 1.433 . S
C809 N812 1.384 . S
C810 H801 0.929 . S
C810 C802 1.378 . S
C810 C805 1.350 . S
C811 H798 0.929 . S
C811 C803 1.433 . S
C811 N813 1.384 . S
N812 C808 1.427 . S
N812 C809 1.384 . S
N813 C805 1.427 . S
N813 C811 1.384 . S
H814 C820 0.930 . S
H815 C824 0.930 . S
H816 C829 0.929 . S
H817 C827 0.929 . S
H818 C822 0.929 . S
H819 C828 0.929 . S
C820 H814 0.930 . S
C820 C821 1.367 . S
C820 C828 1.378 . S
C821 C820 1.367 . S
C821 C829 1.433 . S
C822 H818 0.929 . S
C822 C824 1.378 . S
C822 C826 1.350 . S
C823 C826 1.463 . S
C823 C828 1.350 . S
C823 N831 1.427 . S
C824 H815 0.930 . S
C824 C822 1.378 . S
C824 C825 1.367 . S
C825 C824 1.367 . S
C825 C827 1.433 . S
C826 C822 1.350 . S
C826 C823 1.463 . S
C826 N830 1.427 . S
C827 H817 0.929 . S
C827 C825 1.433 . S
C827 N830 1.384 . S
C828 H819 0.929 . S
C828 C820 1.378 . S
C828 C823 1.350 . S
C829 H816 0.929 . S
C829 C821 1.433 . S
C829 N831 1.384 . S
N830 C826 1.427 . S
N830 C827 1.384 . S
N831 C823 1.427 . S
N831 C829 1.384 . S
H832 C838 0.930 . S
H833 C842 0.930 . S
H834 C847 0.929 . S
H835 C845 0.929 . S
H836 C840 0.929 . S
H837 C846 0.929 . S
C838 H832 0.930 . S
C838 C839 1.367 . S
C838 C846 1.378 . S
C839 C838 1.367 . S
C839 C847 1.433 . S
C840 H836 0.929 . S
C840 C842 1.378 . S
C840 C844 1.350 . S
C841 C844 1.463 1_455 S
C841 C846 1.350 . S
C841 N849 1.427 . S
C842 H833 0.930 . S
C842 C840 1.378 . S
C842 C843 1.367 . S
C843 C842 1.367 . S
C843 C845 1.433 . S
C844 C840 1.350 . S
C844 C841 1.463 1_655 S
C844 N848 1.427 . S
C845 H835 0.929 . S
C845 C843 1.433 . S
C845 N848 1.384 . S
C846 H837 0.929 . S
C846 C838 1.378 . S
C846 C841 1.350 . S
C847 H834 0.929 . S
C847 C839 1.433 . S
C847 N849 1.384 . S
N848 C844 1.427 . S
N848 C845 1.384 . S
N849 C841 1.427 . S
N849 C847 1.384 . S
H850 C856 0.930 . S
H851 C860 0.930 . S
H852 C865 0.929 . S
H853 C863 0.929 . S
H854 C858 0.929 1_565 S
H855 C864 0.929 1_545 S
C856 H850 0.930 . S
C856 C857 1.367 . S
C856 C864 1.378 . S
C857 C856 1.367 . S
C857 C865 1.433 . S
C858 H854 0.929 1_545 S
C858 C860 1.378 . S
C858 C862 1.350 . S
C859 C862 1.463 1_565 S
C859 C864 1.350 . S
C859 N867 1.427 . S
C860 H851 0.930 . S
C860 C858 1.378 . S
C860 C861 1.367 . S
C861 C860 1.367 . S
C861 C863 1.433 . S
C862 C858 1.350 . S
C862 C859 1.463 1_545 S
C862 N866 1.427 . S
C863 H853 0.929 . S
C863 C861 1.433 . S
C863 N866 1.384 . S
C864 H855 0.929 1_565 S
C864 C856 1.378 . S
C864 C859 1.350 . S
C865 H852 0.929 . S
C865 C857 1.433 . S
C865 N867 1.384 . S
N866 C862 1.427 . S
N866 C863 1.384 . S
N867 C859 1.427 . S
N867 C865 1.384 . S
H868 C874 0.930 . S
H869 C878 0.930 . S
H870 C883 0.929 . S
H871 C881 0.929 . S
H872 C876 0.929 . S
H873 C882 0.929 . S
C874 H868 0.930 . S
C874 C875 1.367 . S
C874 C882 1.378 . S
C875 C874 1.367 . S
C875 C883 1.433 . S
C876 H872 0.929 . S
C876 C878 1.378 . S
C876 C880 1.350 . S
C877 C880 1.463 1_565 S
C877 C882 1.350 . S
C877 N885 1.427 . S
C878 H869 0.930 . S
C878 C876 1.378 . S
C878 C879 1.367 . S
C879 C878 1.367 . S
C879 C881 1.433 . S
C880 C876 1.350 . S
C880 C877 1.463 1_545 S
C880 N884 1.427 . S
C881 H871 0.929 . S
C881 C879 1.433 . S
C881 N884 1.384 . S
C882 H873 0.929 . S
C882 C874 1.378 . S
C882 C877 1.350 . S
C883 H870 0.929 . S
C883 C875 1.433 . S
C883 N885 1.384 . S
N884 C880 1.427 . S
N884 C881 1.384 . S
N885 C877 1.427 . S
N885 C883 1.384 . S
H886 C892 0.930 . S
H887 C896 0.930 . S
H888 C901 0.929 . S
H889 C899 0.929 . S
H890 C894 0.929 . S
H891 C900 0.929 . S
C892 H886 0.930 . S
C892 C893 1.367 . S
C892 C900 1.378 . S
C893 C892 1.367 . S
C893 C901 1.433 . S
C894 H890 0.929 . S
C894 C896 1.378 . S
C894 C898 1.350 . S
C895 C898 1.463 1_455 S
C895 C900 1.350 . S
C895 N903 1.427 . S
C896 H887 0.930 . S
C896 C894 1.378 . S
C896 C897 1.367 . S
C897 C896 1.367 . S
C897 C899 1.433 . S
C898 C894 1.350 . S
C898 C895 1.463 1_655 S
C898 N902 1.427 . S
C899 H889 0.929 . S
C899 C897 1.433 . S
C899 N902 1.384 . S
C900 H891 0.929 . S
C900 C892 1.378 . S
C900 C895 1.350 . S
C901 H888 0.929 . S
C901 C893 1.433 . S
C901 N903 1.384 . S
N902 C898 1.427 . S
N902 C899 1.384 . S
N903 C895 1.427 . S
N903 C901 1.384 . S
H904 C910 0.930 . S
H905 C914 0.930 . S
H906 C919 0.929 . S
H907 C917 0.929 . S
H908 C912 0.929 . S
H909 C918 0.929 . S
C910 H904 0.930 . S
C910 C911 1.367 . S
C910 C918 1.378 . S
C911 C910 1.367 . S
C911 C919 1.433 . S
C912 H908 0.929 . S
C912 C914 1.378 . S
C912 C916 1.350 . S
C913 C916 1.463 1_655 S
C913 C918 1.350 . S
C913 N921 1.427 . S
C914 H905 0.930 . S
C914 C912 1.378 . S
C914 C915 1.367 . S
C915 C914 1.367 . S
C915 C917 1.433 . S
C916 C912 1.350 . S
C916 C913 1.463 1_455 S
C916 N920 1.427 . S
C917 H907 0.929 . S
C917 C915 1.433 . S
C917 N920 1.384 . S
C918 H909 0.929 . S
C918 C910 1.378 . S
C918 C913 1.350 . S
C919 H906 0.929 . S
C919 C911 1.433 . S
C919 N921 1.384 . S
N920 C916 1.427 . S
N920 C917 1.384 . S
N921 C913 1.427 . S
N921 C919 1.384 . S
H922 C928 0.930 . S
H923 C932 0.930 . S
H924 C937 0.929 . S
H925 C935 0.929 . S
H926 C930 0.929 1_545 S
H927 C936 0.929 1_565 S
C928 H922 0.930 . S
C928 C929 1.367 . S
C928 C936 1.378 . S
C929 C928 1.367 . S
C929 C937 1.433 . S
C930 H926 0.929 1_565 S
C930 C932 1.378 . S
C930 C934 1.350 . S
C931 C934 1.463 1_545 S
C931 C936 1.350 . S
C931 N939 1.427 . S
C932 H923 0.930 . S
C932 C930 1.378 . S
C932 C933 1.367 . S
C933 C932 1.367 . S
C933 C935 1.433 . S
C934 C930 1.350 . S
C934 C931 1.463 1_565 S
C934 N938 1.427 . S
C935 H925 0.929 . S
C935 C933 1.433 . S
C935 N938 1.384 . S
C936 H927 0.929 1_545 S
C936 C928 1.378 . S
C936 C931 1.350 . S
C937 H924 0.929 . S
C937 C929 1.433 . S
C937 N939 1.384 . S
N938 C934 1.427 . S
N938 C935 1.384 . S
N939 C931 1.427 . S
N939 C937 1.384 . S
H940 C946 0.930 . S
H941 C950 0.930 . S
H942 C955 0.929 . S
H943 C953 0.929 . S
H944 C948 0.929 1_565 S
H945 C954 0.929 1_545 S
C946 H940 0.930 . S
C946 C947 1.367 . S
C946 C954 1.378 . S
C947 C946 1.367 . S
C947 C955 1.433 . S
C948 H944 0.929 1_545 S
C948 C950 1.378 . S
C948 C952 1.350 . S
C949 C952 1.463 1_565 S
C949 C954 1.350 . S
C949 N957 1.427 . S
C950 H941 0.930 . S
C950 C948 1.378 . S
C950 C951 1.367 . S
C951 C950 1.367 . S
C951 C953 1.433 . S
C952 C948 1.350 . S
C952 C949 1.463 1_545 S
C952 N956 1.427 . S
C953 H943 0.929 . S
C953 C951 1.433 . S
C953 N956 1.384 . S
C954 H945 0.929 1_565 S
C954 C946 1.378 . S
C954 C949 1.350 . S
C955 H942 0.929 . S
C955 C947 1.433 . S
C955 N957 1.384 . S
N956 C952 1.427 . S
N956 C953 1.384 . S
N957 C949 1.427 . S
N957 C955 1.384 . S
H958 C964 0.930 . S
H959 C968 0.930 . S
H960 C973 0.929 . S
H961 C971 0.929 . S
H962 C966 0.929 . S
H963 C972 0.929 . S
C964 H958 0.930 . S
C964 C965 1.367 . S
C964 C972 1.378 . S
C965 C964 1.367 . S
C965 C973 1.433 . S
C966 H962 0.929 . S
C966 C968 1.378 . S
C966 C970 1.350 . S
C967 C970 1.463 1_455 S
C967 C972 1.350 . S
C967 N975 1.427 . S
C968 H959 0.930 . S
C968 C966 1.378 . S
C968 C969 1.367 . S
C969 C968 1.367 . S
C969 C971 1.433 . S
C970 C966 1.350 . S
C970 C967 1.463 1_655 S
C970 N974 1.427 . S
C971 H961 0.929 . S
C971 C969 1.433 . S
C971 N974 1.384 . S
C972 H963 0.929 . S
C972 C964 1.378 . S
C972 C967 1.350 . S
C973 H960 0.929 . S
C973 C965 1.433 . S
C973 N975 1.384 . S
N974 C970 1.427 . S
N974 C971 1.384 . S
N975 C967 1.427 . S
N975 C973 1.384 . S
H976 C982 0.930 . S
H977 C986 0.930 . S
H978 C991 0.929 . S
H979 C989 0.929 . S
H980 C984 0.929 . S
H981 C990 0.929 . S
C982 H976 0.930 . S
C982 C983 1.367 . S
C982 C990 1.378 . S
C983 C982 1.367 . S
C983 C991 1.433 . S
C984 H980 0.929 . S
C984 C986 1.378 . S
C984 C988 1.350 . S
C985 C988 1.463 . S
C985 C990 1.350 . S
C985 N993 1.427 . S
C986 H977 0.930 . S
C986 C984 1.378 . S
C986 C987 1.367 . S
C987 C986 1.367 . S
C987 C989 1.433 . S
C988 C984 1.350 . S
C988 C985 1.463 . S
C988 N992 1.427 . S
C989 H979 0.929 . S
C989 C987 1.433 . S
C989 N992 1.384 . S
C990 H981 0.929 . S
C990 C982 1.378 . S
C990 C985 1.350 . S
C991 H978 0.929 . S
C991 C983 1.433 . S
C991 N993 1.384 . S
N992 C988 1.427 . S
N992 C989 1.384 . S
N993 C985 1.427 . S
N993 C991 1.384 . S
H994 C1000 0.930 . S
H995 C1004 0.930 . S
H996 C1009 0.929 . S
H997 C1007 0.929 . S
H998 C1002 0.929 . S
H999 C1008 0.929 . S
C1000 H994 0.930 . S
C1000 C1001 1.367 . S
C1000 C1008 1.378 . S
C1001 C1000 1.367 . S
C1001 C1009 1.433 . S
C1002 H998 0.929 . S
C1002 C1004 1.378 . S
C1002 C1006 1.350 . S
C1003 C1006 1.463 . S
C1003 C1008 1.350 . S
C1003 N1011 1.427 . S
C1004 H995 0.930 . S
C1004 C1002 1.378 . S
C1004 C1005 1.367 . S
C1005 C1004 1.367 . S
C1005 C1007 1.433 . S
C1006 C1002 1.350 . S
C1006 C1003 1.463 . S
C1006 N1010 1.427 . S
C1007 H997 0.929 . S
C1007 C1005 1.433 . S
C1007 N1010 1.384 . S
C1008 H999 0.929 . S
C1008 C1000 1.378 . S
C1008 C1003 1.350 . S
C1009 H996 0.929 . S
C1009 C1001 1.433 . S
C1009 N1011 1.384 . S
N1010 C1006 1.427 . S
N1010 C1007 1.384 . S
N1011 C1003 1.427 . S
N1011 C1009 1.384 . S
H1012 C1018 0.930 . S
H1013 C1022 0.930 . S
H1014 C1027 0.929 . S
H1015 C1025 0.929 . S
H1016 C1020 0.929 . S
H1017 C1026 0.929 . S
C1018 H1012 0.930 . S
C1018 C1019 1.367 . S
C1018 C1026 1.378 . S
C1019 C1018 1.367 . S
C1019 C1027 1.433 . S
C1020 H1016 0.929 . S
C1020 C1022 1.378 . S
C1020 C1024 1.350 . S
C1021 C1024 1.463 . S
C1021 C1026 1.350 . S
C1021 N1029 1.427 . S
C1022 H1013 0.930 . S
C1022 C1020 1.378 . S
C1022 C1023 1.367 . S
C1023 C1022 1.367 . S
C1023 C1025 1.433 . S
C1024 C1020 1.350 . S
C1024 C1021 1.463 . S
C1024 N1028 1.427 . S
C1025 H1015 0.929 . S
C1025 C1023 1.433 . S
C1025 N1028 1.384 . S
C1026 H1017 0.929 . S
C1026 C1018 1.378 . S
C1026 C1021 1.350 . S
C1027 H1014 0.929 . S
C1027 C1019 1.433 . S
C1027 N1029 1.384 . S
N1028 C1024 1.427 . S
N1028 C1025 1.384 . S
N1029 C1021 1.427 . S
N1029 C1027 1.384 . S
H1030 C1036 0.930 . S
H1031 C1040 0.930 . S
H1032 C1045 0.929 . S
H1033 C1043 0.929 . S
H1034 C1038 0.929 . S
H1035 C1044 0.929 . S
C1036 H1030 0.930 . S
C1036 C1037 1.367 . S
C1036 C1044 1.378 . S
C1037 C1036 1.367 . S
C1037 C1045 1.433 . S
C1038 H1034 0.929 . S
C1038 C1040 1.378 . S
C1038 C1042 1.350 . S
C1039 C1042 1.463 . S
C1039 C1044 1.350 . S
C1039 N1047 1.427 . S
C1040 H1031 0.930 . S
C1040 C1038 1.378 . S
C1040 C1041 1.367 . S
C1041 C1040 1.367 . S
C1041 C1043 1.433 . S
C1042 C1038 1.350 . S
C1042 C1039 1.463 . S
C1042 N1046 1.427 . S
C1043 H1033 0.929 . S
C1043 C1041 1.433 . S
C1043 N1046 1.384 . S
C1044 H1035 0.929 . S
C1044 C1036 1.378 . S
C1044 C1039 1.350 . S
C1045 H1032 0.929 . S
C1045 C1037 1.433 . S
C1045 N1047 1.384 . S
N1046 C1042 1.427 . S
N1046 C1043 1.384 . S
N1047 C1039 1.427 . S
N1047 C1045 1.384 . S
H1048 C1054 0.930 . S
H1049 C1058 0.930 . S
H1050 C1063 0.929 . S
H1051 C1061 0.929 . S
H1052 C1056 0.929 . S
H1053 C1062 0.929 . S
C1054 H1048 0.930 . S
C1054 C1055 1.367 . S
C1054 C1062 1.378 . S
C1055 C1054 1.367 . S
C1055 C1063 1.433 . S
C1056 H1052 0.929 . S
C1056 C1058 1.378 . S
C1056 C1060 1.350 . S
C1057 C1060 1.463 . S
C1057 C1062 1.350 . S
C1057 N1065 1.427 . S
C1058 H1049 0.930 . S
C1058 C1056 1.378 . S
C1058 C1059 1.367 . S
C1059 C1058 1.367 . S
C1059 C1061 1.433 . S
C1060 C1056 1.350 . S
C1060 C1057 1.463 . S
C1060 N1064 1.427 . S
C1061 H1051 0.929 . S
C1061 C1059 1.433 . S
C1061 N1064 1.384 . S
C1062 H1053 0.929 . S
C1062 C1054 1.378 . S
C1062 C1057 1.350 . S
C1063 H1050 0.929 . S
C1063 C1055 1.433 . S
C1063 N1065 1.384 . S
N1064 C1060 1.427 . S
N1064 C1061 1.384 . S
N1065 C1057 1.427 . S
N1065 C1063 1.384 . S
H1066 C1072 0.930 . S
H1067 C1076 0.930 . S
H1068 C1081 0.929 . S
H1069 C1079 0.942 . S
H1070 C1074 0.929 . S
H1071 C1080 0.929 . S
C1072 H1066 0.930 . S
C1072 C1073 1.367 . S
C1072 C1080 1.378 . S
C1073 C1072 1.367 . S
C1073 C1081 1.433 . S
C1074 H1070 0.929 . S
C1074 C1076 1.378 . S
C1074 C1078 1.350 . S
C1075 C1078 1.463 . S
C1075 C1080 1.350 . S
C1075 N1083 1.427 . S
C1076 H1067 0.930 . S
C1076 C1074 1.378 . S
C1076 C1077 1.367 . S
C1077 C1076 1.367 . S
C1077 C1079 1.433 . S
C1078 C1074 1.350 . S
C1078 C1075 1.463 . S
C1078 N1082 1.427 . S
C1079 H1069 0.942 . S
C1079 C1077 1.433 . S
C1079 N1082 1.384 . S
C1080 H1071 0.929 . S
C1080 C1072 1.378 . S
C1080 C1075 1.350 . S
C1081 H1068 0.929 . S
C1081 C1073 1.433 . S
C1081 N1083 1.384 . S
N1082 C1078 1.427 . S
N1082 C1079 1.384 . S
N1083 C1075 1.427 . S
N1083 C1081 1.384 . S
H1084 C1090 0.930 . S
H1085 C1094 0.930 . S
H1086 C1099 0.929 . S
H1087 C1097 0.929 . S
H1088 C1092 0.929 . S
H1089 C1098 0.929 . S
C1090 H1084 0.930 . S
C1090 C1091 1.367 . S
C1090 C1098 1.378 . S
C1091 C1090 1.367 . S
C1091 C1099 1.433 . S
C1092 H1088 0.929 . S
C1092 C1094 1.378 . S
C1092 C1096 1.350 . S
C1093 C1096 1.463 . S
C1093 C1098 1.350 . S
C1093 N1101 1.427 . S
C1094 H1085 0.930 . S
C1094 C1092 1.378 . S
C1094 C1095 1.367 . S
C1095 C1094 1.367 . S
C1095 C1097 1.433 . S
C1096 C1092 1.350 . S
C1096 C1093 1.463 . S
C1096 N1100 1.427 . S
C1097 H1087 0.929 . S
C1097 C1095 1.433 . S
C1097 N1100 1.384 . S
C1098 H1089 0.929 . S
C1098 C1090 1.378 . S
C1098 C1093 1.350 . S
C1099 H1086 0.929 . S
C1099 C1091 1.433 . S
C1099 N1101 1.384 . S
N1100 C1096 1.427 . S
N1100 C1097 1.384 . S
N1101 C1093 1.427 . S
N1101 C1099 1.384 . S
H1102 C1108 0.930 . S
H1103 C1112 0.930 . S
H1104 C1117 0.929 . S
H1105 C1115 0.929 . S
H1106 C1110 0.929 . S
H1107 C1116 0.929 . S
C1108 H1102 0.930 . S
C1108 C1109 1.367 . S
C1108 C1116 1.378 . S
C1109 C1108 1.367 . S
C1109 C1117 1.433 . S
C1110 H1106 0.929 . S
C1110 C1112 1.378 . S
C1110 C1114 1.350 . S
C1111 C1114 1.463 . S
C1111 C1116 1.350 . S
C1111 N1119 1.427 . S
C1112 H1103 0.930 . S
C1112 C1110 1.378 . S
C1112 C1113 1.367 . S
C1113 C1112 1.367 . S
C1113 C1115 1.433 . S
C1114 C1110 1.350 . S
C1114 C1111 1.463 . S
C1114 N1118 1.427 . S
C1115 H1105 0.929 . S
C1115 C1113 1.433 . S
C1115 N1118 1.384 . S
C1116 H1107 0.929 . S
C1116 C1108 1.378 . S
C1116 C1111 1.350 . S
C1117 H1104 0.929 . S
C1117 C1109 1.433 . S
C1117 N1119 1.384 . S
N1118 C1114 1.427 . S
N1118 C1115 1.384 . S
N1119 C1111 1.427 . S
N1119 C1117 1.384 . S
H1120 C1126 0.930 . S
H1121 C1130 0.930 . S
H1122 C1135 0.929 . S
H1123 C1133 0.929 . S
H1124 C1128 0.929 . S
H1125 C1134 0.929 . S
C1126 H1120 0.930 . S
C1126 C1127 1.367 . S
C1126 C1134 1.378 . S
C1127 C1126 1.367 . S
C1127 C1135 1.433 . S
C1128 H1124 0.929 . S
C1128 C1130 1.378 . S
C1128 C1132 1.350 . S
C1129 C1132 1.463 . S
C1129 C1134 1.350 . S
C1129 N1137 1.427 . S
C1130 H1121 0.930 . S
C1130 C1128 1.378 . S
C1130 C1131 1.367 . S
C1131 C1130 1.367 . S
C1131 C1133 1.433 . S
C1132 C1128 1.350 . S
C1132 C1129 1.463 . S
C1132 N1136 1.427 . S
C1133 H1123 0.929 . S
C1133 C1131 1.433 . S
C1133 N1136 1.384 . S
C1134 H1125 0.929 . S
C1134 C1126 1.378 . S
C1134 C1129 1.350 . S
C1135 H1122 0.929 . S
C1135 C1127 1.433 . S
C1135 N1137 1.384 . S
N1136 C1132 1.427 . S
N1136 C1133 1.384 . S
N1137 C1129 1.427 . S
N1137 C1135 1.384 . S
H1138 C1144 0.930 . S
H1139 C1148 0.930 . S
H1140 C1153 0.929 . S
H1141 C1151 0.929 . S
H1142 C1146 0.929 . S
H1143 C1152 0.929 . S
C1144 H1138 0.930 . S
C1144 C1145 1.367 . S
C1144 C1152 1.378 . S
C1145 C1144 1.367 . S
C1145 C1153 1.433 . S
C1146 H1142 0.929 . S
C1146 C1148 1.378 . S
C1146 C1150 1.350 . S
C1147 C1150 1.463 . S
C1147 C1152 1.350 . S
C1147 N1155 1.427 . S
C1148 H1139 0.930 . S
C1148 C1146 1.378 . S
C1148 C1149 1.367 . S
C1149 C1148 1.367 . S
C1149 C1151 1.433 . S
C1150 C1146 1.350 . S
C1150 C1147 1.463 . S
C1150 N1154 1.427 . S
C1151 H1141 0.929 . S
C1151 C1149 1.433 . S
C1151 N1154 1.384 . S
C1152 H1143 0.929 . S
C1152 C1144 1.378 . S
C1152 C1147 1.350 . S
C1153 H1140 0.929 . S
C1153 C1145 1.433 . S
C1153 N1155 1.384 . S
N1154 C1150 1.427 . S
N1154 C1151 1.384 . S
N1155 C1147 1.427 . S
N1155 C1153 1.384 . S
H1156 C1162 0.930 . S
H1157 C1166 0.930 . S
H1158 C1171 0.929 . S
H1159 C1169 0.929 . S
H1160 C1164 0.929 . S
H1161 C1170 0.929 . S
C1162 H1156 0.930 . S
C1162 C1163 1.367 . S
C1162 C1170 1.378 . S
C1163 C1162 1.367 . S
C1163 C1171 1.433 . S
C1164 H1160 0.929 . S
C1164 C1166 1.378 . S
C1164 C1168 1.350 . S
C1165 C1168 1.463 . S
C1165 C1170 1.350 . S
C1165 N1173 1.427 . S
C1166 H1157 0.930 . S
C1166 C1164 1.378 . S
C1166 C1167 1.367 . S
C1167 C1166 1.367 . S
C1167 C1169 1.433 . S
C1168 C1164 1.350 . S
C1168 C1165 1.463 . S
C1168 N1172 1.427 . S
C1169 H1159 0.929 . S
C1169 C1167 1.433 . S
C1169 N1172 1.384 . S
C1170 H1161 0.929 . S
C1170 C1162 1.378 . S
C1170 C1165 1.350 . S
C1171 H1158 0.929 . S
C1171 C1163 1.433 . S
C1171 N1173 1.384 . S
N1172 C1168 1.427 . S
N1172 C1169 1.384 . S
N1173 C1165 1.427 . S
N1173 C1171 1.384 . S
H1174 C1180 0.930 . S
H1175 C1184 0.930 . S
H1176 C1189 0.929 . S
H1177 C1187 0.929 . S
H1178 C1182 0.929 . S
H1179 C1188 0.929 . S
C1180 H1174 0.930 . S
C1180 C1181 1.367 . S
C1180 C1188 1.378 . S
C1181 C1180 1.367 . S
C1181 C1189 1.433 . S
C1182 H1178 0.929 . S
C1182 C1184 1.378 . S
C1182 C1186 1.350 . S
C1183 C1186 1.463 . S
C1183 C1188 1.350 . S
C1183 N1191 1.427 . S
C1184 H1175 0.930 . S
C1184 C1182 1.378 . S
C1184 C1185 1.367 . S
C1185 C1184 1.367 . S
C1185 C1187 1.433 . S
C1186 C1182 1.350 . S
C1186 C1183 1.463 . S
C1186 N1190 1.427 . S
C1187 H1177 0.929 . S
C1187 C1185 1.433 . S
C1187 N1190 1.384 . S
C1188 H1179 0.929 . S
C1188 C1180 1.378 . S
C1188 C1183 1.350 . S
C1189 H1176 0.929 . S
C1189 C1181 1.433 . S
C1189 N1191 1.384 . S
N1190 C1186 1.427 . S
N1190 C1187 1.384 . S
N1191 C1183 1.427 . S
N1191 C1189 1.384 . S
H1192 C1198 0.930 . S
H1193 C1202 0.930 . S
H1194 C1207 0.929 . S
H1195 C1205 0.929 . S
H1196 C1200 0.929 . S
H1197 C1206 0.929 . S
C1198 H1192 0.930 . S
C1198 C1199 1.367 . S
C1198 C1206 1.378 . S
C1199 C1198 1.367 . S
C1199 C1207 1.433 . S
C1200 H1196 0.929 . S
C1200 C1202 1.378 . S
C1200 C1204 1.350 . S
C1201 C1204 1.463 . S
C1201 C1206 1.350 . S
C1201 N1209 1.427 . S
C1202 H1193 0.930 . S
C1202 C1200 1.378 . S
C1202 C1203 1.367 . S
C1203 C1202 1.367 . S
C1203 C1205 1.433 . S
C1204 C1200 1.350 . S
C1204 C1201 1.463 . S
C1204 N1208 1.427 . S
C1205 H1195 0.929 . S
C1205 C1203 1.433 . S
C1205 N1208 1.384 . S
C1206 H1197 0.929 . S
C1206 C1198 1.378 . S
C1206 C1201 1.350 . S
C1207 H1194 0.929 . S
C1207 C1199 1.433 . S
C1207 N1209 1.384 . S
N1208 C1204 1.427 . S
N1208 C1205 1.384 . S
N1209 C1201 1.427 . S
N1209 C1207 1.384 . S
H1210 C1216 0.930 . S
H1211 C1220 0.930 . S
H1212 C1225 0.929 . S
H1213 C1223 0.929 . S
H1214 C1218 0.929 . S
H1215 C1224 0.929 . S
C1216 H1210 0.930 . S
C1216 C1217 1.367 . S
C1216 C1224 1.378 . S
C1217 C1216 1.367 . S
C1217 C1225 1.433 . S
C1218 H1214 0.929 . S
C1218 C1220 1.378 . S
C1218 C1222 1.350 . S
C1219 C1222 1.463 . S
C1219 C1224 1.350 . S
C1219 N1227 1.427 . S
C1220 H1211 0.930 . S
C1220 C1218 1.378 . S
C1220 C1221 1.367 . S
C1221 C1220 1.367 . S
C1221 C1223 1.433 . S
C1222 C1218 1.350 . S
C1222 C1219 1.463 . S
C1222 N1226 1.427 . S
C1223 H1213 0.929 . S
C1223 C1221 1.433 . S
C1223 N1226 1.384 . S
C1224 H1215 0.929 . S
C1224 C1216 1.378 . S
C1224 C1219 1.350 . S
C1225 H1212 0.929 . S
C1225 C1217 1.433 . S
C1225 N1227 1.384 . S
N1226 C1222 1.427 . S
N1226 C1223 1.384 . S
N1227 C1219 1.427 . S
N1227 C1225 1.384 . S
H1228 C1234 0.930 . S
H1229 C1238 0.930 . S
H1230 C1243 0.929 . S
H1231 C1241 0.929 . S
H1232 C1236 0.929 . S
H1233 C1242 0.929 . S
C1234 H1228 0.930 . S
C1234 C1235 1.367 . S
C1234 C1242 1.378 . S
C1235 C1234 1.367 . S
C1235 C1243 1.433 . S
C1236 H1232 0.929 . S
C1236 C1238 1.378 . S
C1236 C1240 1.350 . S
C1237 C1240 1.463 . S
C1237 C1242 1.350 . S
C1237 N1245 1.427 . S
C1238 H1229 0.930 . S
C1238 C1236 1.378 . S
C1238 C1239 1.367 . S
C1239 C1238 1.367 . S
C1239 C1241 1.433 . S
C1240 C1236 1.350 . S
C1240 C1237 1.463 . S
C1240 N1244 1.427 . S
C1241 H1231 0.929 . S
C1241 C1239 1.433 . S
C1241 N1244 1.384 . S
C1242 H1233 0.929 . S
C1242 C1234 1.378 . S
C1242 C1237 1.350 . S
C1243 H1230 0.929 . S
C1243 C1235 1.433 . S
C1243 N1245 1.384 . S
N1244 C1240 1.427 . S
N1244 C1241 1.384 . S
N1245 C1237 1.427 . S
N1245 C1243 1.384 . S
H1246 C1252 0.930 . S
H1247 C1256 0.930 . S
H1248 C1261 0.929 . S
H1249 C1259 0.929 . S
H1250 C1254 0.929 . S
H1251 C1260 0.929 . S
C1252 H1246 0.930 . S
C1252 C1253 1.367 . S
C1252 C1260 1.378 . S
C1253 C1252 1.367 . S
C1253 C1261 1.433 . S
C1254 H1250 0.929 . S
C1254 C1256 1.378 . S
C1254 C1258 1.350 . S
C1255 C1258 1.463 . S
C1255 C1260 1.350 . S
C1255 N1263 1.427 . S
C1256 H1247 0.930 . S
C1256 C1254 1.378 . S
C1256 C1257 1.367 . S
C1257 C1256 1.367 . S
C1257 C1259 1.433 . S
C1258 C1254 1.350 . S
C1258 C1255 1.463 . S
C1258 N1262 1.427 . S
C1259 H1249 0.929 . S
C1259 C1257 1.433 . S
C1259 N1262 1.384 . S
C1260 H1251 0.929 . S
C1260 C1252 1.378 . S
C1260 C1255 1.350 . S
C1261 H1248 0.929 . S
C1261 C1253 1.433 . S
C1261 N1263 1.384 . S
N1262 C1258 1.427 . S
N1262 C1259 1.384 . S
N1263 C1255 1.427 . S
N1263 C1261 1.384 . S
C551 C5 1.717 . S
C555 C243 1.714 . S
C569 C141 1.719 . S
C573 C39 1.717 . S
C587 C175 1.718 . S
C591 C73 1.715 . S
C605 C209 1.719 . S
C609 C107 1.719 . S
C623 C277 1.715 . S
C627 C515 1.713 . S
C641 C311 1.713 . S
C645 C413 1.713 . S
C659 C447 1.713 . S
C663 C345 1.716 . S
C677 C379 1.713 . S
C681 C481 1.713 . S
C695 C9 1.479 . S
C699 C349 1.497 . S
C713 C383 1.481 . S
C717 C43 1.494 . S
C731 C281 1.483 . S
C735 C77 1.493 . S
C749 C315 1.493 . S
C753 C111 1.482 . S
C767 C485 1.482 . S
C771 C145 1.493 . S
C785 C519 1.493 . S
C789 C179 1.482 . S
C803 C417 1.495 . S
C807 C213 1.481 . S
C821 C451 1.478 . S
C825 C247 1.497 . S
C839 C33 0.727 . S
C843 C101 0.721 . S
C857 C135 0.707 . S
C861 C67 0.712 . S
C875 C237 0.717 . S
C879 C169 0.723 . S
C893 C271 0.711 . S
C897 C203 0.717 . S
C911 C305 0.726 . S
C915 C373 0.720 . S
C929 C407 0.711 . S
C933 C339 0.707 . S
C947 C441 0.728 . S
C951 C509 0.731 . S
C965 C475 0.721 . S
C969 C543 0.727 . S
C983 C478 1.383 . S
C987 C20 1.399 . S
C1001 C54 1.399 . S
C1005 C512 1.382 . S
C1019 C410 1.384 . S
C1023 C88 1.399 . S
C1037 C444 1.387 . S
C1041 C122 1.396 . S
C1055 C342 1.390 1_655 S
C1059 C156 1.397 . S
C1073 C190 1.399 . S
C1077 C376 1.381 1_565 S
C1091 C274 1.385 1_455 S
C1095 C224 1.396 . S
C1109 C258 1.396 . S
C1113 C308 1.388 1_545 S
C1127 C206 1.389 . S
C1131 C292 1.398 . S
C1145 C240 1.381 . S
C1149 C326 1.398 . S
C1163 C138 1.387 . S
C1167 C360 1.399 . S
C1181 C394 1.397 . S
C1185 C172 1.383 . S
C1199 C70 1.385 1_455 S
C1203 C428 1.396 . S
C1217 C462 1.397 . S
C1221 C104 1.382 1_545 S
C1235 C496 1.399 . S
C1239 C2 1.386 1_655 S
C1253 C36 1.384 1_565 S
C1257 C530 1.399 . S
