# Generated by pormake.
# Topology iac-e, (7)-cn, num edge types: 1
# Building blocks:
#     Node 0, Type 0, BuildingBlock: NUHQUE_clean_sbu_2, # of connection points: 7
#     Node 1, Type 0, BuildingBlock: NUHQUE_clean_sbu_2, # of connection points: 7
#     Node 2, Type 0, BuildingBlock: NUHQUE_clean_sbu_2, # of connection points: 7
#     Node 3, Type 0, BuildingBlock: NUHQUE_clean_sbu_2, # of connection points: 7
#     Node 4, Type 0, BuildingBlock: NUHQUE_clean_sbu_2, # of connection points: 7
#     Node 5, Type 0, BuildingBlock: NUHQUE_clean_sbu_2, # of connection points: 7
#     Node 6, Type 0, BuildingBlock: NUHQUE_clean_sbu_2, # of connection points: 7
#     Node 7, Type 0, BuildingBlock: NUHQUE_clean_sbu_2, # of connection points: 7
#     Node 8, Type 0, BuildingBlock: NUHQUE_clean_sbu_2, # of connection points: 7
#     Node 9, Type 0, BuildingBlock: NUHQUE_clean_sbu_2, # of connection points: 7
#     Node 10, Type 0, BuildingBlock: NUHQUE_clean_sbu_2, # of connection points: 7
#     Node 11, Type 0, BuildingBlock: NUHQUE_clean_sbu_2, # of connection points: 7
#     Node 12, Type 0, BuildingBlock: NUHQUE_clean_sbu_2, # of connection points: 7
#     Node 13, Type 0, BuildingBlock: NUHQUE_clean_sbu_2, # of connection points: 7
#     Node 14, Type 0, BuildingBlock: NUHQUE_clean_sbu_2, # of connection points: 7
#     Node 15, Type 0, BuildingBlock: NUHQUE_clean_sbu_2, # of connection points: 7
#     Node 16, Type 0, BuildingBlock: NUHQUE_clean_sbu_2, # of connection points: 7
#     Node 17, Type 0, BuildingBlock: NUHQUE_clean_sbu_2, # of connection points: 7
#     Node 18, Type 0, BuildingBlock: NUHQUE_clean_sbu_2, # of connection points: 7
#     Node 19, Type 0, BuildingBlock: NUHQUE_clean_sbu_2, # of connection points: 7
#     Node 20, Type 0, BuildingBlock: NUHQUE_clean_sbu_2, # of connection points: 7
#     Node 21, Type 0, BuildingBlock: NUHQUE_clean_sbu_2, # of connection points: 7
#     Node 22, Type 0, BuildingBlock: NUHQUE_clean_sbu_2, # of connection points: 7
#     Node 23, Type 0, BuildingBlock: NUHQUE_clean_sbu_2, # of connection points: 7
#     Node 24, Type 0, BuildingBlock: NUHQUE_clean_sbu_2, # of connection points: 7
#     Node 25, Type 0, BuildingBlock: NUHQUE_clean_sbu_2, # of connection points: 7
#     Node 26, Type 0, BuildingBlock: NUHQUE_clean_sbu_2, # of connection points: 7
#     Node 27, Type 0, BuildingBlock: NUHQUE_clean_sbu_2, # of connection points: 7
#     Node 28, Type 0, BuildingBlock: NUHQUE_clean_sbu_2, # of connection points: 7
#     Node 29, Type 0, BuildingBlock: NUHQUE_clean_sbu_2, # of connection points: 7
#     Node 30, Type 0, BuildingBlock: NUHQUE_clean_sbu_2, # of connection points: 7
#     Node 31, Type 0, BuildingBlock: NUHQUE_clean_sbu_2, # of connection points: 7
#     Node 32, Type 0, BuildingBlock: NUHQUE_clean_sbu_2, # of connection points: 7
#     Node 33, Type 0, BuildingBlock: NUHQUE_clean_sbu_2, # of connection points: 7
#     Node 34, Type 0, BuildingBlock: NUHQUE_clean_sbu_2, # of connection points: 7
#     Node 35, Type 0, BuildingBlock: NUHQUE_clean_sbu_2, # of connection points: 7
#     Node 36, Type 0, BuildingBlock: NUHQUE_clean_sbu_2, # of connection points: 7
#     Node 37, Type 0, BuildingBlock: NUHQUE_clean_sbu_2, # of connection points: 7
#     Node 38, Type 0, BuildingBlock: NUHQUE_clean_sbu_2, # of connection points: 7
#     Node 39, Type 0, BuildingBlock: NUHQUE_clean_sbu_2, # of connection points: 7
#     Node 40, Type 0, BuildingBlock: NUHQUE_clean_sbu_2, # of connection points: 7
#     Node 41, Type 0, BuildingBlock: NUHQUE_clean_sbu_2, # of connection points: 7
#     Node 42, Type 0, BuildingBlock: NUHQUE_clean_sbu_2, # of connection points: 7
#     Node 43, Type 0, BuildingBlock: NUHQUE_clean_sbu_2, # of connection points: 7
#     Node 44, Type 0, BuildingBlock: NUHQUE_clean_sbu_2, # of connection points: 7
#     Node 45, Type 0, BuildingBlock: NUHQUE_clean_sbu_2, # of connection points: 7
#     Node 46, Type 0, BuildingBlock: NUHQUE_clean_sbu_2, # of connection points: 7
#     Node 47, Type 0, BuildingBlock: NUHQUE_clean_sbu_2, # of connection points: 7
#     Node 48, Type 0, BuildingBlock: NUHQUE_clean_sbu_2, # of connection points: 7
#     Node 49, Type 0, BuildingBlock: NUHQUE_clean_sbu_2, # of connection points: 7
#     Node 50, Type 0, BuildingBlock: NUHQUE_clean_sbu_2, # of connection points: 7
#     Node 51, Type 0, BuildingBlock: NUHQUE_clean_sbu_2, # of connection points: 7
#     Node 52, Type 0, BuildingBlock: NUHQUE_clean_sbu_2, # of connection points: 7
#     Node 53, Type 0, BuildingBlock: NUHQUE_clean_sbu_2, # of connection points: 7
#     Node 54, Type 0, BuildingBlock: NUHQUE_clean_sbu_2, # of connection points: 7
#     Node 55, Type 0, BuildingBlock: NUHQUE_clean_sbu_2, # of connection points: 7
#     Node 56, Type 0, BuildingBlock: NUHQUE_clean_sbu_2, # of connection points: 7
#     Node 57, Type 0, BuildingBlock: NUHQUE_clean_sbu_2, # of connection points: 7
#     Node 58, Type 0, BuildingBlock: NUHQUE_clean_sbu_2, # of connection points: 7
#     Node 59, Type 0, BuildingBlock: NUHQUE_clean_sbu_2, # of connection points: 7
#     Node 60, Type 0, BuildingBlock: NUHQUE_clean_sbu_2, # of connection points: 7
#     Node 61, Type 0, BuildingBlock: NUHQUE_clean_sbu_2, # of connection points: 7
#     Node 62, Type 0, BuildingBlock: NUHQUE_clean_sbu_2, # of connection points: 7
#     Node 63, Type 0, BuildingBlock: NUHQUE_clean_sbu_2, # of connection points: 7
#     Node 64, Type 0, BuildingBlock: NUHQUE_clean_sbu_2, # of connection points: 7
#     Node 65, Type 0, BuildingBlock: NUHQUE_clean_sbu_2, # of connection points: 7
#     Node 66, Type 0, BuildingBlock: NUHQUE_clean_sbu_2, # of connection points: 7
#     Node 67, Type 0, BuildingBlock: NUHQUE_clean_sbu_2, # of connection points: 7
#     Node 68, Type 0, BuildingBlock: NUHQUE_clean_sbu_2, # of connection points: 7
#     Node 69, Type 0, BuildingBlock: NUHQUE_clean_sbu_2, # of connection points: 7
#     Node 70, Type 0, BuildingBlock: NUHQUE_clean_sbu_2, # of connection points: 7
#     Node 71, Type 0, BuildingBlock: NUHQUE_clean_sbu_2, # of connection points: 7
#     Node 72, Type 0, BuildingBlock: NUHQUE_clean_sbu_2, # of connection points: 7
#     Node 73, Type 0, BuildingBlock: NUHQUE_clean_sbu_2, # of connection points: 7
#     Node 74, Type 0, BuildingBlock: NUHQUE_clean_sbu_2, # of connection points: 7
#     Node 75, Type 0, BuildingBlock: NUHQUE_clean_sbu_2, # of connection points: 7
#     Node 76, Type 0, BuildingBlock: NUHQUE_clean_sbu_2, # of connection points: 7
#     Node 77, Type 0, BuildingBlock: NUHQUE_clean_sbu_2, # of connection points: 7
#     Node 78, Type 0, BuildingBlock: NUHQUE_clean_sbu_2, # of connection points: 7
#     Node 79, Type 0, BuildingBlock: NUHQUE_clean_sbu_2, # of connection points: 7
#     Node 80, Type 0, BuildingBlock: NUHQUE_clean_sbu_2, # of connection points: 7
#     Node 81, Type 0, BuildingBlock: NUHQUE_clean_sbu_2, # of connection points: 7
#     Node 82, Type 0, BuildingBlock: NUHQUE_clean_sbu_2, # of connection points: 7
#     Node 83, Type 0, BuildingBlock: NUHQUE_clean_sbu_2, # of connection points: 7
#     Node 84, Type 0, BuildingBlock: NUHQUE_clean_sbu_2, # of connection points: 7
#     Node 85, Type 0, BuildingBlock: NUHQUE_clean_sbu_2, # of connection points: 7
#     Node 86, Type 0, BuildingBlock: NUHQUE_clean_sbu_2, # of connection points: 7
#     Node 87, Type 0, BuildingBlock: NUHQUE_clean_sbu_2, # of connection points: 7
#     Node 88, Type 0, BuildingBlock: NUHQUE_clean_sbu_2, # of connection points: 7
#     Node 89, Type 0, BuildingBlock: NUHQUE_clean_sbu_2, # of connection points: 7
#     Node 90, Type 0, BuildingBlock: NUHQUE_clean_sbu_2, # of connection points: 7
#     Node 91, Type 0, BuildingBlock: NUHQUE_clean_sbu_2, # of connection points: 7
#     Node 92, Type 0, BuildingBlock: NUHQUE_clean_sbu_2, # of connection points: 7
#     Node 93, Type 0, BuildingBlock: NUHQUE_clean_sbu_2, # of connection points: 7
#     Node 94, Type 0, BuildingBlock: NUHQUE_clean_sbu_2, # of connection points: 7
#     Node 95, Type 0, BuildingBlock: NUHQUE_clean_sbu_2, # of connection points: 7
#     Edge 96, Type (0, 0), BuildingBlock: AJUNOK_clean_linker_0, # of connection points: 2
#     Edge 97, Type (0, 0), BuildingBlock: AJUNOK_clean_linker_0, # of connection points: 2
#     Edge 98, Type (0, 0), BuildingBlock: AJUNOK_clean_linker_0, # of connection points: 2
#     Edge 99, Type (0, 0), BuildingBlock: AJUNOK_clean_linker_0, # of connection points: 2
#     Edge 100, Type (0, 0), BuildingBlock: AJUNOK_clean_linker_0, # of connection points: 2
#     Edge 101, Type (0, 0), BuildingBlock: AJUNOK_clean_linker_0, # of connection points: 2
#     Edge 102, Type (0, 0), BuildingBlock: AJUNOK_clean_linker_0, # of connection points: 2
#     Edge 103, Type (0, 0), BuildingBlock: AJUNOK_clean_linker_0, # of connection points: 2
#     Edge 104, Type (0, 0), BuildingBlock: AJUNOK_clean_linker_0, # of connection points: 2
#     Edge 105, Type (0, 0), BuildingBlock: AJUNOK_clean_linker_0, # of connection points: 2
#     Edge 106, Type (0, 0), BuildingBlock: AJUNOK_clean_linker_0, # of connection points: 2
#     Edge 107, Type (0, 0), BuildingBlock: AJUNOK_clean_linker_0, # of connection points: 2
#     Edge 108, Type (0, 0), BuildingBlock: AJUNOK_clean_linker_0, # of connection points: 2
#     Edge 109, Type (0, 0), BuildingBlock: AJUNOK_clean_linker_0, # of connection points: 2
#     Edge 110, Type (0, 0), BuildingBlock: AJUNOK_clean_linker_0, # of connection points: 2
#     Edge 111, Type (0, 0), BuildingBlock: AJUNOK_clean_linker_0, # of connection points: 2
#     Edge 112, Type (0, 0), BuildingBlock: AJUNOK_clean_linker_0, # of connection points: 2
#     Edge 113, Type (0, 0), BuildingBlock: AJUNOK_clean_linker_0, # of connection points: 2
#     Edge 114, Type (0, 0), BuildingBlock: AJUNOK_clean_linker_0, # of connection points: 2
#     Edge 115, Type (0, 0), BuildingBlock: AJUNOK_clean_linker_0, # of connection points: 2
#     Edge 116, Type (0, 0), BuildingBlock: AJUNOK_clean_linker_0, # of connection points: 2
#     Edge 117, Type (0, 0), BuildingBlock: AJUNOK_clean_linker_0, # of connection points: 2
#     Edge 118, Type (0, 0), BuildingBlock: AJUNOK_clean_linker_0, # of connection points: 2
#     Edge 119, Type (0, 0), BuildingBlock: AJUNOK_clean_linker_0, # of connection points: 2
#     Edge 120, Type (0, 0), BuildingBlock: AJUNOK_clean_linker_0, # of connection points: 2
#     Edge 121, Type (0, 0), BuildingBlock: AJUNOK_clean_linker_0, # of connection points: 2
#     Edge 122, Type (0, 0), BuildingBlock: AJUNOK_clean_linker_0, # of connection points: 2
#     Edge 123, Type (0, 0), BuildingBlock: AJUNOK_clean_linker_0, # of connection points: 2
#     Edge 124, Type (0, 0), BuildingBlock: AJUNOK_clean_linker_0, # of connection points: 2
#     Edge 125, Type (0, 0), BuildingBlock: AJUNOK_clean_linker_0, # of connection points: 2
#     Edge 126, Type (0, 0), BuildingBlock: AJUNOK_clean_linker_0, # of connection points: 2
#     Edge 127, Type (0, 0), BuildingBlock: AJUNOK_clean_linker_0, # of connection points: 2
#     Edge 128, Type (0, 0), BuildingBlock: AJUNOK_clean_linker_0, # of connection points: 2
#     Edge 129, Type (0, 0), BuildingBlock: AJUNOK_clean_linker_0, # of connection points: 2
#     Edge 130, Type (0, 0), BuildingBlock: AJUNOK_clean_linker_0, # of connection points: 2
#     Edge 131, Type (0, 0), BuildingBlock: AJUNOK_clean_linker_0, # of connection points: 2
#     Edge 132, Type (0, 0), BuildingBlock: AJUNOK_clean_linker_0, # of connection points: 2
#     Edge 133, Type (0, 0), BuildingBlock: AJUNOK_clean_linker_0, # of connection points: 2
#     Edge 134, Type (0, 0), BuildingBlock: AJUNOK_clean_linker_0, # of connection points: 2
#     Edge 135, Type (0, 0), BuildingBlock: AJUNOK_clean_linker_0, # of connection points: 2
#     Edge 136, Type (0, 0), BuildingBlock: AJUNOK_clean_linker_0, # of connection points: 2
#     Edge 137, Type (0, 0), BuildingBlock: AJUNOK_clean_linker_0, # of connection points: 2
#     Edge 138, Type (0, 0), BuildingBlock: AJUNOK_clean_linker_0, # of connection points: 2
#     Edge 139, Type (0, 0), BuildingBlock: AJUNOK_clean_linker_0, # of connection points: 2
#     Edge 140, Type (0, 0), BuildingBlock: AJUNOK_clean_linker_0, # of connection points: 2
#     Edge 141, Type (0, 0), BuildingBlock: AJUNOK_clean_linker_0, # of connection points: 2
#     Edge 142, Type (0, 0), BuildingBlock: AJUNOK_clean_linker_0, # of connection points: 2
#     Edge 143, Type (0, 0), BuildingBlock: AJUNOK_clean_linker_0, # of connection points: 2
#     Edge 144, Type (0, 0), BuildingBlock: AJUNOK_clean_linker_0, # of connection points: 2
#     Edge 145, Type (0, 0), BuildingBlock: AJUNOK_clean_linker_0, # of connection points: 2
#     Edge 146, Type (0, 0), BuildingBlock: AJUNOK_clean_linker_0, # of connection points: 2
#     Edge 147, Type (0, 0), BuildingBlock: AJUNOK_clean_linker_0, # of connection points: 2
#     Edge 148, Type (0, 0), BuildingBlock: AJUNOK_clean_linker_0, # of connection points: 2
#     Edge 149, Type (0, 0), BuildingBlock: AJUNOK_clean_linker_0, # of connection points: 2
#     Edge 150, Type (0, 0), BuildingBlock: AJUNOK_clean_linker_0, # of connection points: 2
#     Edge 151, Type (0, 0), BuildingBlock: AJUNOK_clean_linker_0, # of connection points: 2
#     Edge 152, Type (0, 0), BuildingBlock: AJUNOK_clean_linker_0, # of connection points: 2
#     Edge 153, Type (0, 0), BuildingBlock: AJUNOK_clean_linker_0, # of connection points: 2
#     Edge 154, Type (0, 0), BuildingBlock: AJUNOK_clean_linker_0, # of connection points: 2
#     Edge 155, Type (0, 0), BuildingBlock: AJUNOK_clean_linker_0, # of connection points: 2
#     Edge 156, Type (0, 0), BuildingBlock: AJUNOK_clean_linker_0, # of connection points: 2
#     Edge 157, Type (0, 0), BuildingBlock: AJUNOK_clean_linker_0, # of connection points: 2
#     Edge 158, Type (0, 0), BuildingBlock: AJUNOK_clean_linker_0, # of connection points: 2
#     Edge 159, Type (0, 0), BuildingBlock: AJUNOK_clean_linker_0, # of connection points: 2
#     Edge 160, Type (0, 0), BuildingBlock: AJUNOK_clean_linker_0, # of connection points: 2
#     Edge 161, Type (0, 0), BuildingBlock: AJUNOK_clean_linker_0, # of connection points: 2
#     Edge 162, Type (0, 0), BuildingBlock: AJUNOK_clean_linker_0, # of connection points: 2
#     Edge 163, Type (0, 0), BuildingBlock: AJUNOK_clean_linker_0, # of connection points: 2
#     Edge 164, Type (0, 0), BuildingBlock: AJUNOK_clean_linker_0, # of connection points: 2
#     Edge 165, Type (0, 0), BuildingBlock: AJUNOK_clean_linker_0, # of connection points: 2
#     Edge 166, Type (0, 0), BuildingBlock: AJUNOK_clean_linker_0, # of connection points: 2
#     Edge 167, Type (0, 0), BuildingBlock: AJUNOK_clean_linker_0, # of connection points: 2
#     Edge 168, Type (0, 0), BuildingBlock: AJUNOK_clean_linker_0, # of connection points: 2
#     Edge 169, Type (0, 0), BuildingBlock: AJUNOK_clean_linker_0, # of connection points: 2
#     Edge 170, Type (0, 0), BuildingBlock: AJUNOK_clean_linker_0, # of connection points: 2
#     Edge 171, Type (0, 0), BuildingBlock: AJUNOK_clean_linker_0, # of connection points: 2
#     Edge 172, Type (0, 0), BuildingBlock: AJUNOK_clean_linker_0, # of connection points: 2
#     Edge 173, Type (0, 0), BuildingBlock: AJUNOK_clean_linker_0, # of connection points: 2
#     Edge 174, Type (0, 0), BuildingBlock: AJUNOK_clean_linker_0, # of connection points: 2
#     Edge 175, Type (0, 0), BuildingBlock: AJUNOK_clean_linker_0, # of connection points: 2
#     Edge 176, Type (0, 0), BuildingBlock: AJUNOK_clean_linker_0, # of connection points: 2
#     Edge 177, Type (0, 0), BuildingBlock: AJUNOK_clean_linker_0, # of connection points: 2
#     Edge 178, Type (0, 0), BuildingBlock: AJUNOK_clean_linker_0, # of connection points: 2
#     Edge 179, Type (0, 0), BuildingBlock: AJUNOK_clean_linker_0, # of connection points: 2
#     Edge 180, Type (0, 0), BuildingBlock: AJUNOK_clean_linker_0, # of connection points: 2
#     Edge 181, Type (0, 0), BuildingBlock: AJUNOK_clean_linker_0, # of connection points: 2
#     Edge 182, Type (0, 0), BuildingBlock: AJUNOK_clean_linker_0, # of connection points: 2
#     Edge 183, Type (0, 0), BuildingBlock: AJUNOK_clean_linker_0, # of connection points: 2
#     Edge 184, Type (0, 0), BuildingBlock: AJUNOK_clean_linker_0, # of connection points: 2
#     Edge 185, Type (0, 0), BuildingBlock: AJUNOK_clean_linker_0, # of connection points: 2
#     Edge 186, Type (0, 0), BuildingBlock: AJUNOK_clean_linker_0, # of connection points: 2
#     Edge 187, Type (0, 0), BuildingBlock: AJUNOK_clean_linker_0, # of connection points: 2
#     Edge 188, Type (0, 0), BuildingBlock: AJUNOK_clean_linker_0, # of connection points: 2
#     Edge 189, Type (0, 0), BuildingBlock: AJUNOK_clean_linker_0, # of connection points: 2
#     Edge 190, Type (0, 0), BuildingBlock: AJUNOK_clean_linker_0, # of connection points: 2
#     Edge 191, Type (0, 0), BuildingBlock: AJUNOK_clean_linker_0, # of connection points: 2
#     Edge 192, Type (0, 0), BuildingBlock: AJUNOK_clean_linker_0, # of connection points: 2
#     Edge 193, Type (0, 0), BuildingBlock: AJUNOK_clean_linker_0, # of connection points: 2
#     Edge 194, Type (0, 0), BuildingBlock: AJUNOK_clean_linker_0, # of connection points: 2
#     Edge 195, Type (0, 0), BuildingBlock: AJUNOK_clean_linker_0, # of connection points: 2
#     Edge 196, Type (0, 0), BuildingBlock: AJUNOK_clean_linker_0, # of connection points: 2
#     Edge 197, Type (0, 0), BuildingBlock: AJUNOK_clean_linker_0, # of connection points: 2
#     Edge 198, Type (0, 0), BuildingBlock: AJUNOK_clean_linker_0, # of connection points: 2
#     Edge 199, Type (0, 0), BuildingBlock: AJUNOK_clean_linker_0, # of connection points: 2
#     Edge 200, Type (0, 0), BuildingBlock: AJUNOK_clean_linker_0, # of connection points: 2
#     Edge 201, Type (0, 0), BuildingBlock: AJUNOK_clean_linker_0, # of connection points: 2
#     Edge 202, Type (0, 0), BuildingBlock: AJUNOK_clean_linker_0, # of connection points: 2
#     Edge 203, Type (0, 0), BuildingBlock: AJUNOK_clean_linker_0, # of connection points: 2
#     Edge 204, Type (0, 0), BuildingBlock: AJUNOK_clean_linker_0, # of connection points: 2
#     Edge 205, Type (0, 0), BuildingBlock: AJUNOK_clean_linker_0, # of connection points: 2
#     Edge 206, Type (0, 0), BuildingBlock: AJUNOK_clean_linker_0, # of connection points: 2
#     Edge 207, Type (0, 0), BuildingBlock: AJUNOK_clean_linker_0, # of connection points: 2
#     Edge 208, Type (0, 0), BuildingBlock: AJUNOK_clean_linker_0, # of connection points: 2
#     Edge 209, Type (0, 0), BuildingBlock: AJUNOK_clean_linker_0, # of connection points: 2
#     Edge 210, Type (0, 0), BuildingBlock: AJUNOK_clean_linker_0, # of connection points: 2
#     Edge 211, Type (0, 0), BuildingBlock: AJUNOK_clean_linker_0, # of connection points: 2
#     Edge 212, Type (0, 0), BuildingBlock: AJUNOK_clean_linker_0, # of connection points: 2
#     Edge 213, Type (0, 0), BuildingBlock: AJUNOK_clean_linker_0, # of connection points: 2
#     Edge 214, Type (0, 0), BuildingBlock: AJUNOK_clean_linker_0, # of connection points: 2
#     Edge 215, Type (0, 0), BuildingBlock: AJUNOK_clean_linker_0, # of connection points: 2
#     Edge 216, Type (0, 0), BuildingBlock: AJUNOK_clean_linker_0, # of connection points: 2
#     Edge 217, Type (0, 0), BuildingBlock: AJUNOK_clean_linker_0, # of connection points: 2
#     Edge 218, Type (0, 0), BuildingBlock: AJUNOK_clean_linker_0, # of connection points: 2
#     Edge 219, Type (0, 0), BuildingBlock: AJUNOK_clean_linker_0, # of connection points: 2
#     Edge 220, Type (0, 0), BuildingBlock: AJUNOK_clean_linker_0, # of connection points: 2
#     Edge 221, Type (0, 0), BuildingBlock: AJUNOK_clean_linker_0, # of connection points: 2
#     Edge 222, Type (0, 0), BuildingBlock: AJUNOK_clean_linker_0, # of connection points: 2
#     Edge 223, Type (0, 0), BuildingBlock: AJUNOK_clean_linker_0, # of connection points: 2
#     Edge 224, Type (0, 0), BuildingBlock: AJUNOK_clean_linker_0, # of connection points: 2
#     Edge 225, Type (0, 0), BuildingBlock: AJUNOK_clean_linker_0, # of connection points: 2
#     Edge 226, Type (0, 0), BuildingBlock: AJUNOK_clean_linker_0, # of connection points: 2
#     Edge 227, Type (0, 0), BuildingBlock: AJUNOK_clean_linker_0, # of connection points: 2
#     Edge 228, Type (0, 0), BuildingBlock: AJUNOK_clean_linker_0, # of connection points: 2
#     Edge 229, Type (0, 0), BuildingBlock: AJUNOK_clean_linker_0, # of connection points: 2
#     Edge 230, Type (0, 0), BuildingBlock: AJUNOK_clean_linker_0, # of connection points: 2
#     Edge 231, Type (0, 0), BuildingBlock: AJUNOK_clean_linker_0, # of connection points: 2
#     Edge 232, Type (0, 0), BuildingBlock: AJUNOK_clean_linker_0, # of connection points: 2
#     Edge 233, Type (0, 0), BuildingBlock: AJUNOK_clean_linker_0, # of connection points: 2
#     Edge 234, Type (0, 0), BuildingBlock: AJUNOK_clean_linker_0, # of connection points: 2
#     Edge 235, Type (0, 0), BuildingBlock: AJUNOK_clean_linker_0, # of connection points: 2
#     Edge 236, Type (0, 0), BuildingBlock: AJUNOK_clean_linker_0, # of connection points: 2
#     Edge 237, Type (0, 0), BuildingBlock: AJUNOK_clean_linker_0, # of connection points: 2
#     Edge 238, Type (0, 0), BuildingBlock: AJUNOK_clean_linker_0, # of connection points: 2
#     Edge 239, Type (0, 0), BuildingBlock: AJUNOK_clean_linker_0, # of connection points: 2
#     Edge 240, Type (0, 0), BuildingBlock: AJUNOK_clean_linker_0, # of connection points: 2
#     Edge 241, Type (0, 0), BuildingBlock: AJUNOK_clean_linker_0, # of connection points: 2
#     Edge 242, Type (0, 0), BuildingBlock: AJUNOK_clean_linker_0, # of connection points: 2
#     Edge 243, Type (0, 0), BuildingBlock: AJUNOK_clean_linker_0, # of connection points: 2
#     Edge 244, Type (0, 0), BuildingBlock: AJUNOK_clean_linker_0, # of connection points: 2
#     Edge 245, Type (0, 0), BuildingBlock: AJUNOK_clean_linker_0, # of connection points: 2
#     Edge 246, Type (0, 0), BuildingBlock: AJUNOK_clean_linker_0, # of connection points: 2
#     Edge 247, Type (0, 0), BuildingBlock: AJUNOK_clean_linker_0, # of connection points: 2
#     Edge 248, Type (0, 0), BuildingBlock: AJUNOK_clean_linker_0, # of connection points: 2
#     Edge 249, Type (0, 0), BuildingBlock: AJUNOK_clean_linker_0, # of connection points: 2
#     Edge 250, Type (0, 0), BuildingBlock: AJUNOK_clean_linker_0, # of connection points: 2
#     Edge 251, Type (0, 0), BuildingBlock: AJUNOK_clean_linker_0, # of connection points: 2
#     Edge 252, Type (0, 0), BuildingBlock: AJUNOK_clean_linker_0, # of connection points: 2
#     Edge 253, Type (0, 0), BuildingBlock: AJUNOK_clean_linker_0, # of connection points: 2
#     Edge 254, Type (0, 0), BuildingBlock: AJUNOK_clean_linker_0, # of connection points: 2
#     Edge 255, Type (0, 0), BuildingBlock: AJUNOK_clean_linker_0, # of connection points: 2
#     Edge 256, Type (0, 0), BuildingBlock: AJUNOK_clean_linker_0, # of connection points: 2
#     Edge 257, Type (0, 0), BuildingBlock: AJUNOK_clean_linker_0, # of connection points: 2
#     Edge 258, Type (0, 0), BuildingBlock: AJUNOK_clean_linker_0, # of connection points: 2
#     Edge 259, Type (0, 0), BuildingBlock: AJUNOK_clean_linker_0, # of connection points: 2
#     Edge 260, Type (0, 0), BuildingBlock: AJUNOK_clean_linker_0, # of connection points: 2
#     Edge 261, Type (0, 0), BuildingBlock: AJUNOK_clean_linker_0, # of connection points: 2
#     Edge 262, Type (0, 0), BuildingBlock: AJUNOK_clean_linker_0, # of connection points: 2
#     Edge 263, Type (0, 0), BuildingBlock: AJUNOK_clean_linker_0, # of connection points: 2
#     Edge 264, Type (0, 0), BuildingBlock: AJUNOK_clean_linker_0, # of connection points: 2
#     Edge 265, Type (0, 0), BuildingBlock: AJUNOK_clean_linker_0, # of connection points: 2
#     Edge 266, Type (0, 0), BuildingBlock: AJUNOK_clean_linker_0, # of connection points: 2
#     Edge 267, Type (0, 0), BuildingBlock: AJUNOK_clean_linker_0, # of connection points: 2
#     Edge 268, Type (0, 0), BuildingBlock: AJUNOK_clean_linker_0, # of connection points: 2
#     Edge 269, Type (0, 0), BuildingBlock: AJUNOK_clean_linker_0, # of connection points: 2
#     Edge 270, Type (0, 0), BuildingBlock: AJUNOK_clean_linker_0, # of connection points: 2
#     Edge 271, Type (0, 0), BuildingBlock: AJUNOK_clean_linker_0, # of connection points: 2
#     Edge 272, Type (0, 0), BuildingBlock: AJUNOK_clean_linker_0, # of connection points: 2
#     Edge 273, Type (0, 0), BuildingBlock: AJUNOK_clean_linker_0, # of connection points: 2
#     Edge 274, Type (0, 0), BuildingBlock: AJUNOK_clean_linker_0, # of connection points: 2
#     Edge 275, Type (0, 0), BuildingBlock: AJUNOK_clean_linker_0, # of connection points: 2
#     Edge 276, Type (0, 0), BuildingBlock: AJUNOK_clean_linker_0, # of connection points: 2
#     Edge 277, Type (0, 0), BuildingBlock: AJUNOK_clean_linker_0, # of connection points: 2
#     Edge 278, Type (0, 0), BuildingBlock: AJUNOK_clean_linker_0, # of connection points: 2
#     Edge 279, Type (0, 0), BuildingBlock: AJUNOK_clean_linker_0, # of connection points: 2
#     Edge 280, Type (0, 0), BuildingBlock: AJUNOK_clean_linker_0, # of connection points: 2
#     Edge 281, Type (0, 0), BuildingBlock: AJUNOK_clean_linker_0, # of connection points: 2
#     Edge 282, Type (0, 0), BuildingBlock: AJUNOK_clean_linker_0, # of connection points: 2
#     Edge 283, Type (0, 0), BuildingBlock: AJUNOK_clean_linker_0, # of connection points: 2
#     Edge 284, Type (0, 0), BuildingBlock: AJUNOK_clean_linker_0, # of connection points: 2
#     Edge 285, Type (0, 0), BuildingBlock: AJUNOK_clean_linker_0, # of connection points: 2
#     Edge 286, Type (0, 0), BuildingBlock: AJUNOK_clean_linker_0, # of connection points: 2
#     Edge 287, Type (0, 0), BuildingBlock: AJUNOK_clean_linker_0, # of connection points: 2
#     Edge 288, Type (0, 0), BuildingBlock: AJUNOK_clean_linker_0, # of connection points: 2
#     Edge 289, Type (0, 0), BuildingBlock: AJUNOK_clean_linker_0, # of connection points: 2
#     Edge 290, Type (0, 0), BuildingBlock: AJUNOK_clean_linker_0, # of connection points: 2
#     Edge 291, Type (0, 0), BuildingBlock: AJUNOK_clean_linker_0, # of connection points: 2
#     Edge 292, Type (0, 0), BuildingBlock: AJUNOK_clean_linker_0, # of connection points: 2
#     Edge 293, Type (0, 0), BuildingBlock: AJUNOK_clean_linker_0, # of connection points: 2
#     Edge 294, Type (0, 0), BuildingBlock: AJUNOK_clean_linker_0, # of connection points: 2
#     Edge 295, Type (0, 0), BuildingBlock: AJUNOK_clean_linker_0, # of connection points: 2
#     Edge 296, Type (0, 0), BuildingBlock: AJUNOK_clean_linker_0, # of connection points: 2
#     Edge 297, Type (0, 0), BuildingBlock: AJUNOK_clean_linker_0, # of connection points: 2
#     Edge 298, Type (0, 0), BuildingBlock: AJUNOK_clean_linker_0, # of connection points: 2
#     Edge 299, Type (0, 0), BuildingBlock: AJUNOK_clean_linker_0, # of connection points: 2
#     Edge 300, Type (0, 0), BuildingBlock: AJUNOK_clean_linker_0, # of connection points: 2
#     Edge 301, Type (0, 0), BuildingBlock: AJUNOK_clean_linker_0, # of connection points: 2
#     Edge 302, Type (0, 0), BuildingBlock: AJUNOK_clean_linker_0, # of connection points: 2
#     Edge 303, Type (0, 0), BuildingBlock: AJUNOK_clean_linker_0, # of connection points: 2
#     Edge 304, Type (0, 0), BuildingBlock: AJUNOK_clean_linker_0, # of connection points: 2
#     Edge 305, Type (0, 0), BuildingBlock: AJUNOK_clean_linker_0, # of connection points: 2
#     Edge 306, Type (0, 0), BuildingBlock: AJUNOK_clean_linker_0, # of connection points: 2
#     Edge 307, Type (0, 0), BuildingBlock: AJUNOK_clean_linker_0, # of connection points: 2
#     Edge 308, Type (0, 0), BuildingBlock: AJUNOK_clean_linker_0, # of connection points: 2
#     Edge 309, Type (0, 0), BuildingBlock: AJUNOK_clean_linker_0, # of connection points: 2
#     Edge 310, Type (0, 0), BuildingBlock: AJUNOK_clean_linker_0, # of connection points: 2
#     Edge 311, Type (0, 0), BuildingBlock: AJUNOK_clean_linker_0, # of connection points: 2
#     Edge 312, Type (0, 0), BuildingBlock: AJUNOK_clean_linker_0, # of connection points: 2
#     Edge 313, Type (0, 0), BuildingBlock: AJUNOK_clean_linker_0, # of connection points: 2
#     Edge 314, Type (0, 0), BuildingBlock: AJUNOK_clean_linker_0, # of connection points: 2
#     Edge 315, Type (0, 0), BuildingBlock: AJUNOK_clean_linker_0, # of connection points: 2
#     Edge 316, Type (0, 0), BuildingBlock: AJUNOK_clean_linker_0, # of connection points: 2
#     Edge 317, Type (0, 0), BuildingBlock: AJUNOK_clean_linker_0, # of connection points: 2
#     Edge 318, Type (0, 0), BuildingBlock: AJUNOK_clean_linker_0, # of connection points: 2
#     Edge 319, Type (0, 0), BuildingBlock: AJUNOK_clean_linker_0, # of connection points: 2
#     Edge 320, Type (0, 0), BuildingBlock: AJUNOK_clean_linker_0, # of connection points: 2
#     Edge 321, Type (0, 0), BuildingBlock: AJUNOK_clean_linker_0, # of connection points: 2
#     Edge 322, Type (0, 0), BuildingBlock: AJUNOK_clean_linker_0, # of connection points: 2
#     Edge 323, Type (0, 0), BuildingBlock: AJUNOK_clean_linker_0, # of connection points: 2
#     Edge 324, Type (0, 0), BuildingBlock: AJUNOK_clean_linker_0, # of connection points: 2
#     Edge 325, Type (0, 0), BuildingBlock: AJUNOK_clean_linker_0, # of connection points: 2
#     Edge 326, Type (0, 0), BuildingBlock: AJUNOK_clean_linker_0, # of connection points: 2
#     Edge 327, Type (0, 0), BuildingBlock: AJUNOK_clean_linker_0, # of connection points: 2
#     Edge 328, Type (0, 0), BuildingBlock: AJUNOK_clean_linker_0, # of connection points: 2
#     Edge 329, Type (0, 0), BuildingBlock: AJUNOK_clean_linker_0, # of connection points: 2
#     Edge 330, Type (0, 0), BuildingBlock: AJUNOK_clean_linker_0, # of connection points: 2
#     Edge 331, Type (0, 0), BuildingBlock: AJUNOK_clean_linker_0, # of connection points: 2
#     Edge 332, Type (0, 0), BuildingBlock: AJUNOK_clean_linker_0, # of connection points: 2
#     Edge 333, Type (0, 0), BuildingBlock: AJUNOK_clean_linker_0, # of connection points: 2
#     Edge 334, Type (0, 0), BuildingBlock: AJUNOK_clean_linker_0, # of connection points: 2
#     Edge 335, Type (0, 0), BuildingBlock: AJUNOK_clean_linker_0, # of connection points: 2
#     Edge 336, Type (0, 0), BuildingBlock: AJUNOK_clean_linker_0, # of connection points: 2
#     Edge 337, Type (0, 0), BuildingBlock: AJUNOK_clean_linker_0, # of connection points: 2
#     Edge 338, Type (0, 0), BuildingBlock: AJUNOK_clean_linker_0, # of connection points: 2
#     Edge 339, Type (0, 0), BuildingBlock: AJUNOK_clean_linker_0, # of connection points: 2
#     Edge 340, Type (0, 0), BuildingBlock: AJUNOK_clean_linker_0, # of connection points: 2
#     Edge 341, Type (0, 0), BuildingBlock: AJUNOK_clean_linker_0, # of connection points: 2
#     Edge 342, Type (0, 0), BuildingBlock: AJUNOK_clean_linker_0, # of connection points: 2
#     Edge 343, Type (0, 0), BuildingBlock: AJUNOK_clean_linker_0, # of connection points: 2
#     Edge 344, Type (0, 0), BuildingBlock: AJUNOK_clean_linker_0, # of connection points: 2
#     Edge 345, Type (0, 0), BuildingBlock: AJUNOK_clean_linker_0, # of connection points: 2
#     Edge 346, Type (0, 0), BuildingBlock: AJUNOK_clean_linker_0, # of connection points: 2
#     Edge 347, Type (0, 0), BuildingBlock: AJUNOK_clean_linker_0, # of connection points: 2
#     Edge 348, Type (0, 0), BuildingBlock: AJUNOK_clean_linker_0, # of connection points: 2
#     Edge 349, Type (0, 0), BuildingBlock: AJUNOK_clean_linker_0, # of connection points: 2
#     Edge 350, Type (0, 0), BuildingBlock: AJUNOK_clean_linker_0, # of connection points: 2
#     Edge 351, Type (0, 0), BuildingBlock: AJUNOK_clean_linker_0, # of connection points: 2
#     Edge 352, Type (0, 0), BuildingBlock: AJUNOK_clean_linker_0, # of connection points: 2
#     Edge 353, Type (0, 0), BuildingBlock: AJUNOK_clean_linker_0, # of connection points: 2
#     Edge 354, Type (0, 0), BuildingBlock: AJUNOK_clean_linker_0, # of connection points: 2
#     Edge 355, Type (0, 0), BuildingBlock: AJUNOK_clean_linker_0, # of connection points: 2
#     Edge 356, Type (0, 0), BuildingBlock: AJUNOK_clean_linker_0, # of connection points: 2
#     Edge 357, Type (0, 0), BuildingBlock: AJUNOK_clean_linker_0, # of connection points: 2
#     Edge 358, Type (0, 0), BuildingBlock: AJUNOK_clean_linker_0, # of connection points: 2
#     Edge 359, Type (0, 0), BuildingBlock: AJUNOK_clean_linker_0, # of connection points: 2
#     Edge 360, Type (0, 0), BuildingBlock: AJUNOK_clean_linker_0, # of connection points: 2
#     Edge 361, Type (0, 0), BuildingBlock: AJUNOK_clean_linker_0, # of connection points: 2
#     Edge 362, Type (0, 0), BuildingBlock: AJUNOK_clean_linker_0, # of connection points: 2
#     Edge 363, Type (0, 0), BuildingBlock: AJUNOK_clean_linker_0, # of connection points: 2
#     Edge 364, Type (0, 0), BuildingBlock: AJUNOK_clean_linker_0, # of connection points: 2
#     Edge 365, Type (0, 0), BuildingBlock: AJUNOK_clean_linker_0, # of connection points: 2
#     Edge 366, Type (0, 0), BuildingBlock: AJUNOK_clean_linker_0, # of connection points: 2
#     Edge 367, Type (0, 0), BuildingBlock: AJUNOK_clean_linker_0, # of connection points: 2
#     Edge 368, Type (0, 0), BuildingBlock: AJUNOK_clean_linker_0, # of connection points: 2
#     Edge 369, Type (0, 0), BuildingBlock: AJUNOK_clean_linker_0, # of connection points: 2
#     Edge 370, Type (0, 0), BuildingBlock: AJUNOK_clean_linker_0, # of connection points: 2
#     Edge 371, Type (0, 0), BuildingBlock: AJUNOK_clean_linker_0, # of connection points: 2
#     Edge 372, Type (0, 0), BuildingBlock: AJUNOK_clean_linker_0, # of connection points: 2
#     Edge 373, Type (0, 0), BuildingBlock: AJUNOK_clean_linker_0, # of connection points: 2
#     Edge 374, Type (0, 0), BuildingBlock: AJUNOK_clean_linker_0, # of connection points: 2
#     Edge 375, Type (0, 0), BuildingBlock: AJUNOK_clean_linker_0, # of connection points: 2
#     Edge 376, Type (0, 0), BuildingBlock: AJUNOK_clean_linker_0, # of connection points: 2
#     Edge 377, Type (0, 0), BuildingBlock: AJUNOK_clean_linker_0, # of connection points: 2
#     Edge 378, Type (0, 0), BuildingBlock: AJUNOK_clean_linker_0, # of connection points: 2
#     Edge 379, Type (0, 0), BuildingBlock: AJUNOK_clean_linker_0, # of connection points: 2
#     Edge 380, Type (0, 0), BuildingBlock: AJUNOK_clean_linker_0, # of connection points: 2
#     Edge 381, Type (0, 0), BuildingBlock: AJUNOK_clean_linker_0, # of connection points: 2
#     Edge 382, Type (0, 0), BuildingBlock: AJUNOK_clean_linker_0, # of connection points: 2
#     Edge 383, Type (0, 0), BuildingBlock: AJUNOK_clean_linker_0, # of connection points: 2
#     Edge 384, Type (0, 0), BuildingBlock: AJUNOK_clean_linker_0, # of connection points: 2
#     Edge 385, Type (0, 0), BuildingBlock: AJUNOK_clean_linker_0, # of connection points: 2
#     Edge 386, Type (0, 0), BuildingBlock: AJUNOK_clean_linker_0, # of connection points: 2
#     Edge 387, Type (0, 0), BuildingBlock: AJUNOK_clean_linker_0, # of connection points: 2
#     Edge 388, Type (0, 0), BuildingBlock: AJUNOK_clean_linker_0, # of connection points: 2
#     Edge 389, Type (0, 0), BuildingBlock: AJUNOK_clean_linker_0, # of connection points: 2
#     Edge 390, Type (0, 0), BuildingBlock: AJUNOK_clean_linker_0, # of connection points: 2
#     Edge 391, Type (0, 0), BuildingBlock: AJUNOK_clean_linker_0, # of connection points: 2
#     Edge 392, Type (0, 0), BuildingBlock: AJUNOK_clean_linker_0, # of connection points: 2
#     Edge 393, Type (0, 0), BuildingBlock: AJUNOK_clean_linker_0, # of connection points: 2
#     Edge 394, Type (0, 0), BuildingBlock: AJUNOK_clean_linker_0, # of connection points: 2
#     Edge 395, Type (0, 0), BuildingBlock: AJUNOK_clean_linker_0, # of connection points: 2
#     Edge 396, Type (0, 0), BuildingBlock: AJUNOK_clean_linker_0, # of connection points: 2
#     Edge 397, Type (0, 0), BuildingBlock: AJUNOK_clean_linker_0, # of connection points: 2
#     Edge 398, Type (0, 0), BuildingBlock: AJUNOK_clean_linker_0, # of connection points: 2
#     Edge 399, Type (0, 0), BuildingBlock: AJUNOK_clean_linker_0, # of connection points: 2
#     Edge 400, Type (0, 0), BuildingBlock: AJUNOK_clean_linker_0, # of connection points: 2
#     Edge 401, Type (0, 0), BuildingBlock: AJUNOK_clean_linker_0, # of connection points: 2
#     Edge 402, Type (0, 0), BuildingBlock: AJUNOK_clean_linker_0, # of connection points: 2
#     Edge 403, Type (0, 0), BuildingBlock: AJUNOK_clean_linker_0, # of connection points: 2
#     Edge 404, Type (0, 0), BuildingBlock: AJUNOK_clean_linker_0, # of connection points: 2
#     Edge 405, Type (0, 0), BuildingBlock: AJUNOK_clean_linker_0, # of connection points: 2
#     Edge 406, Type (0, 0), BuildingBlock: AJUNOK_clean_linker_0, # of connection points: 2
#     Edge 407, Type (0, 0), BuildingBlock: AJUNOK_clean_linker_0, # of connection points: 2
#     Edge 408, Type (0, 0), BuildingBlock: AJUNOK_clean_linker_0, # of connection points: 2
#     Edge 409, Type (0, 0), BuildingBlock: AJUNOK_clean_linker_0, # of connection points: 2
#     Edge 410, Type (0, 0), BuildingBlock: AJUNOK_clean_linker_0, # of connection points: 2
#     Edge 411, Type (0, 0), BuildingBlock: AJUNOK_clean_linker_0, # of connection points: 2
#     Edge 412, Type (0, 0), BuildingBlock: AJUNOK_clean_linker_0, # of connection points: 2
#     Edge 413, Type (0, 0), BuildingBlock: AJUNOK_clean_linker_0, # of connection points: 2
#     Edge 414, Type (0, 0), BuildingBlock: AJUNOK_clean_linker_0, # of connection points: 2
#     Edge 415, Type (0, 0), BuildingBlock: AJUNOK_clean_linker_0, # of connection points: 2
#     Edge 416, Type (0, 0), BuildingBlock: AJUNOK_clean_linker_0, # of connection points: 2
#     Edge 417, Type (0, 0), BuildingBlock: AJUNOK_clean_linker_0, # of connection points: 2
#     Edge 418, Type (0, 0), BuildingBlock: AJUNOK_clean_linker_0, # of connection points: 2
#     Edge 419, Type (0, 0), BuildingBlock: AJUNOK_clean_linker_0, # of connection points: 2
#     Edge 420, Type (0, 0), BuildingBlock: AJUNOK_clean_linker_0, # of connection points: 2
#     Edge 421, Type (0, 0), BuildingBlock: AJUNOK_clean_linker_0, # of connection points: 2
#     Edge 422, Type (0, 0), BuildingBlock: AJUNOK_clean_linker_0, # of connection points: 2
#     Edge 423, Type (0, 0), BuildingBlock: AJUNOK_clean_linker_0, # of connection points: 2
#     Edge 424, Type (0, 0), BuildingBlock: AJUNOK_clean_linker_0, # of connection points: 2
#     Edge 425, Type (0, 0), BuildingBlock: AJUNOK_clean_linker_0, # of connection points: 2
#     Edge 426, Type (0, 0), BuildingBlock: AJUNOK_clean_linker_0, # of connection points: 2
#     Edge 427, Type (0, 0), BuildingBlock: AJUNOK_clean_linker_0, # of connection points: 2
#     Edge 428, Type (0, 0), BuildingBlock: AJUNOK_clean_linker_0, # of connection points: 2
#     Edge 429, Type (0, 0), BuildingBlock: AJUNOK_clean_linker_0, # of connection points: 2
#     Edge 430, Type (0, 0), BuildingBlock: AJUNOK_clean_linker_0, # of connection points: 2
#     Edge 431, Type (0, 0), BuildingBlock: AJUNOK_clean_linker_0, # of connection points: 2
# Relax obj value: 0.208
# Max RMSD: 0.381
# Mean RMSD: 0.242
data_MOF--net-iac-e--node1-NUHQUE_clean_sbu_2--edge1-AJUNOK_clean_linker_0
_symmetry_space_group_name_H-M    P1
_symmetry_Int_Tables_number       1
_symmetry_cell_setting            triclinic
loop_
_symmetry_equiv_pos_as_xyz
'x, y, z'
_cell_length_a     64.55172
_cell_length_b     64.849199
_cell_length_c     64.452647
_cell_angle_alpha  90.960046
_cell_angle_beta   90.372095
_cell_angle_gamma 90.728176
loop_
_atom_site_label
_atom_site_type_symbol
_atom_site_fract_x
_atom_site_fract_y
_atom_site_fract_z
_atom_type_partial_charge
O0 O 0.05382 0.34361 0.09482 0.0
Tb1 Tb 0.0238 0.34478 0.08029 0.0
Eu2 Eu 0.99441 0.35784 0.04429 0.0
C3 C 0.06036 0.32562 0.10065 0.0
O4 O 0.05179 0.30903 0.09214 0.0
C5 C 1.01141 0.31067 0.04949 0.0
O6 O 0.96492 0.37382 0.03287 0.0
C7 C 0.02503 0.37182 0.02179 0.0
C8 C 0.94988 0.37965 0.04553 0.0
O9 O 0.94967 0.37243 0.06445 0.0
C10 C 1.00497 0.38677 0.08404 0.0
C11 C 0.03673 0.39 0.0132 0.0
C12 C 0.05294 0.39971 0.02481 0.0
C13 C 0.06709 0.41303 0.015 0.0
C14 C 0.06553 0.41566 0.99366 0.0
C15 C 0.0469 0.41115 0.98321 0.0
C16 C 0.03297 0.39703 0.99271 0.0
O17 O 0.02787 0.32099 0.0563 0.0
O18 O 0.99414 0.3215 0.04648 0.0
O19 O 0.01582 0.33077 0.10957 0.0
O20 O 0.99148 0.33796 0.08872 0.0
C21 C 0.99594 0.33051 0.10681 0.0
O22 O 0.98969 0.37853 0.07299 0.0
O23 O 0.02314 0.37816 0.08289 0.0
O24 O 1.0067 0.36676 0.01405 0.0
O25 O 0.0268 0.36775 0.04166 0.0
H26 H 0.05459 0.39701 0.04127 0.0
H27 H 0.07776 0.42419 0.98608 0.0
H28 H 0.01923 0.39169 0.98444 0.0
O29 O 0.92922 0.78837 0.35423 0.0
Tb30 Tb 0.93322 0.76384 0.33218 0.0
Eu31 Eu 0.91831 0.74056 0.29261 0.0
C32 C 0.94173 0.80419 0.35611 0.0
O33 O 0.95628 0.80733 0.34234 0.0
C34 C 0.96611 0.75809 0.29922 0.0
O35 O 0.90036 0.71213 0.28051 0.0
C36 C 0.90463 0.77172 0.2716 0.0
C37 C 0.89825 0.69522 0.29151 0.0
O38 O 0.91011 0.69287 0.30792 0.0
C39 C 0.88977 0.74817 0.33176 0.0
C40 C 0.88694 0.78351 0.26262 0.0
C41 C 0.87801 0.80007 0.27387 0.0
C42 C 0.86545 0.81428 0.26357 0.0
C43 C 0.86294 0.81246 0.24214 0.0
C44 C 0.86652 0.7936 0.23198 0.0
C45 C 0.87981 0.77954 0.24201 0.0
O46 O 0.95678 0.77273 0.30989 0.0
O47 O 0.95485 0.74129 0.29375 0.0
O48 O 0.94887 0.75335 0.35972 0.0
O49 O 0.93775 0.73076 0.33772 0.0
C50 C 0.94706 0.73379 0.35559 0.0
O51 O 0.89772 0.73322 0.32055 0.0
O52 O 0.8998 0.76567 0.33211 0.0
O53 O 0.90975 0.75396 0.26297 0.0
O54 O 0.90821 0.77264 0.29175 0.0
H55 H 0.88078 0.80194 0.2904 0.0
H56 H 0.85513 0.82474 0.23421 0.0
H57 H 0.88443 0.76555 0.23403 0.0
O58 O 0.47719 0.67667 0.59621 0.0
Tb59 Tb 0.50724 0.68099 0.58254 0.0
Eu60 Eu 0.53463 0.66861 0.54425 0.0
C61 C 0.46302 0.69075 0.59464 0.0
O62 O 0.4636 0.70316 0.5788 0.0
C63 C 0.51742 0.71585 0.55223 0.0
O64 O 0.56327 0.65268 0.53041 0.0
C65 C 0.50278 0.65352 0.52317 0.0
C66 C 0.57916 0.64679 0.54195 0.0
O67 O 0.58086 0.65374 0.56112 0.0
C68 C 0.52788 0.63998 0.58395 0.0
C69 C 0.49184 0.63535 0.51278 0.0
C70 C 0.47572 0.62403 0.52283 0.0
C71 C 0.46231 0.61054 0.51109 0.0
C72 C 0.46421 0.61087 0.48948 0.0
C73 C 0.48271 0.61696 0.48037 0.0
C74 C 0.49625 0.63012 0.49177 0.0
O75 O 0.50181 0.70527 0.56 0.0
O76 O 0.53426 0.70513 0.54688 0.0
O77 O 0.51364 0.69712 0.61171 0.0
O78 O 0.53912 0.68792 0.59316 0.0
C79 C 0.53372 0.69708 0.6104 0.0
O80 O 0.5422 0.64909 0.57277 0.0
O81 O 0.50933 0.64768 0.58353 0.0
O82 O 0.51968 0.661 0.51461 0.0
O83 O 0.50284 0.65569 0.5435 0.0
H84 H 0.47394 0.62573 0.53942 0.0
H85 H 0.45284 0.60294 0.47968 0.0
H86 H 0.51003 0.63612 0.48437 0.0
O87 O 0.59727 0.22981 0.84423 0.0
Tb88 Tb 0.59508 0.25841 0.82822 0.0
Eu89 Eu 0.60615 0.28594 0.79129 0.0
C90 C 0.58438 0.21443 0.84088 0.0
O91 O 0.57216 0.21456 0.82453 0.0
C92 C 0.55918 0.26775 0.79858 0.0
O93 O 0.62361 0.31445 0.77948 0.0
C94 C 0.61848 0.25508 0.76799 0.0
C95 C 0.62805 0.33083 0.79133 0.0
O96 O 0.61862 0.33299 0.80922 0.0
C97 C 0.63712 0.27706 0.8286 0.0
C98 C 0.63623 0.24385 0.7582 0.0
C99 C 0.64595 0.22748 0.7686 0.0
C100 C 0.65998 0.21471 0.75798 0.0
C101 C 0.66348 0.2177 0.73694 0.0
C102 C 0.65724 0.23579 0.72729 0.0
C103 C 0.64291 0.24856 0.73784 0.0
O104 O 0.56964 0.25232 0.80635 0.0
O105 O 0.56977 0.28511 0.79442 0.0
O106 O 0.58448 0.26788 0.85893 0.0
O107 O 0.58789 0.2907 0.83583 0.0
C108 C 0.58295 0.28739 0.85505 0.0
O109 O 0.62768 0.29221 0.81929 0.0
O110 O 0.62852 0.25886 0.82674 0.0
O111 O 0.61312 0.27308 0.76061 0.0
O112 O 0.61559 0.25372 0.78812 0.0
H113 H 0.64296 0.22486 0.78487 0.0
H114 H 0.67384 0.20724 0.72896 0.0
H115 H 0.63733 0.26236 0.73059 0.0
O116 O 0.05214 0.67745 0.42968 0.0
Tb117 Tb 0.02285 0.68172 0.44448 0.0
Eu118 Eu 0.99594 0.66903 0.48421 0.0
C119 C 0.06408 0.6932 0.42553 0.0
O120 O 0.06109 0.71082 0.43535 0.0
C121 C 1.01276 0.71674 0.47571 0.0
O122 O 0.96695 0.65297 0.49779 0.0
C123 C 0.02784 0.65509 0.50507 0.0
C124 C 0.95137 0.64578 0.48606 0.0
O125 O 0.95023 0.65123 0.46658 0.0
C126 C 1.00366 0.63967 0.44498 0.0
C127 C 0.03787 0.63592 0.51328 0.0
C128 C 0.05583 0.62761 0.50364 0.0
C129 C 0.06633 0.61069 0.51238 0.0
C130 C 0.05849 0.60222 0.53058 0.0
C131 C 0.04109 0.60995 0.54059 0.0
C132 C 0.03077 0.62688 0.53192 0.0
O133 O 0.0283 0.70732 0.46651 0.0
O134 O 0.99623 0.70534 0.48119 0.0
O135 O 0.01562 0.69284 0.41361 0.0
O136 O 0.99077 0.68636 0.43416 0.0
C137 C 0.99559 0.69223 0.41553 0.0
O138 O 0.9889 0.64843 0.45576 0.0
O139 O 0.02194 0.6484 0.4458 0.0
O140 O 1.01058 0.66143 0.51374 0.0
O141 O 0.02818 0.6584 0.48501 0.0
H142 H 0.06182 0.6346 0.48973 0.0
H143 H 0.0661 0.58905 0.53721 0.0
H144 H 0.01725 0.63294 0.53966 0.0
O145 O 0.60223 0.80612 0.68246 0.0
Tb146 Tb 0.59846 0.77556 0.69474 0.0
Eu147 Eu 0.60939 0.7458 0.73064 0.0
C148 C 0.58809 0.82014 0.68522 0.0
O149 O 0.57621 0.81902 0.7016 0.0
C150 C 0.56268 0.76318 0.72348 0.0
O151 O 0.62602 0.71684 0.74232 0.0
C152 C 0.62129 0.7766 0.75496 0.0
C153 C 0.63175 0.70149 0.72979 0.0
O154 O 0.62487 0.7008 0.71059 0.0
C155 C 0.6409 0.75602 0.69352 0.0
C156 C 0.63955 0.78619 0.76618 0.0
C157 C 0.64985 0.80379 0.75826 0.0
C158 C 0.66696 0.81244 0.76903 0.0
C159 C 0.67438 0.80285 0.7868 0.0
C160 C 0.66324 0.78717 0.79661 0.0
C161 C 0.64552 0.77903 0.78603 0.0
O162 O 0.57371 0.77931 0.71759 0.0
O163 O 0.57306 0.74578 0.72679 0.0
O164 O 0.5822 0.7702 0.66547 0.0
O165 O 0.59235 0.74423 0.68224 0.0
C166 C 0.58254 0.75017 0.66567 0.0
O167 O 0.63162 0.74084 0.70328 0.0
O168 O 0.63215 0.77409 0.69412 0.0
O169 O 0.61418 0.75881 0.76168 0.0
O170 O 0.62029 0.77788 0.73461 0.0
H171 H 0.64442 0.81087 0.74416 0.0
H172 H 0.68885 0.8086 0.79338 0.0
H173 H 0.63588 0.76752 0.79316 0.0
O174 O 0.47731 0.34664 0.93216 0.0
Tb175 Tb 0.50817 0.344 0.94436 0.0
Eu176 Eu 0.53483 0.35756 0.98232 0.0
C177 C 0.46441 0.331 0.93261 0.0
O178 O 0.46609 0.3176 0.94754 0.0
C179 C 0.51874 0.30957 0.97523 0.0
O180 O 0.56281 0.37482 0.99625 0.0
C181 C 0.50318 0.37127 1.00343 0.0
C182 C 0.58042 0.37767 0.98629 0.0
O183 O 0.58378 0.36735 0.96896 0.0
C184 C 0.52753 0.38642 0.94331 0.0
C185 C 0.49248 0.38981 1.01246 0.0
C186 C 0.47671 0.4 1.00124 0.0
C187 C 0.46418 0.41474 1.01131 0.0
C188 C 0.46699 0.41865 0.03241 0.0
C189 C 0.48481 0.4122 0.04262 0.0
C190 C 0.49706 0.39689 0.03302 0.0
O191 O 0.50324 0.31896 0.96619 0.0
O192 O 0.5353 0.32114 0.98073 0.0
O193 O 0.51451 0.33092 0.91373 0.0
O194 O 0.53988 0.33798 0.93404 0.0
C195 C 0.5346 0.33083 0.9157 0.0
O196 O 0.54235 0.37816 0.95446 0.0
O197 O 0.50936 0.37741 0.94348 0.0
O198 O 0.52068 0.36545 1.012 0.0
O199 O 0.50256 0.36783 0.98323 0.0
H200 H 0.47424 0.39661 0.98489 0.0
H201 H 0.45688 0.42961 0.04009 0.0
H202 H 0.51024 0.39087 0.04132 0.0
O203 O 0.92668 0.22883 0.18111 0.0
Tb204 Tb 0.93434 0.25835 0.19456 0.0
Eu205 Eu 0.92175 0.28684 0.23186 0.0
C206 C 0.94077 0.21488 0.17842 0.0
O207 O 0.95839 0.21672 0.18862 0.0
C208 C 0.96918 0.27001 0.22524 0.0
O209 O 0.90348 0.31478 0.24435 0.0
C210 C 0.90908 0.25491 0.253 0.0
C211 C 0.89913 0.33108 0.23294 0.0
O212 O 0.909 0.33344 0.21536 0.0
C213 C 0.89274 0.2785 0.19231 0.0
C214 C 0.89213 0.2436 0.26423 0.0
C215 C 0.88007 0.22743 0.25476 0.0
C216 C 0.86645 0.21531 0.26695 0.0
C217 C 0.86694 0.21806 0.28855 0.0
C218 C 0.87543 0.23593 0.29741 0.0
C219 C 0.88856 0.24836 0.2854 0.0
O220 O 0.95903 0.25393 0.21732 0.0
O221 O 0.95826 0.28699 0.22959 0.0
O222 O 0.95103 0.26144 0.16572 0.0
O223 O 0.94044 0.28865 0.18111 0.0
C224 C 0.95028 0.28144 0.16497 0.0
O225 O 0.90189 0.29344 0.20307 0.0
O226 O 0.90084 0.26026 0.19329 0.0
O227 O 0.9165 0.27213 0.26143 0.0
O228 O 0.90961 0.25486 0.23261 0.0
H229 H 0.88087 0.22467 0.23817 0.0
H230 H 0.85735 0.20824 0.29814 0.0
H231 H 0.89548 0.26206 0.29253 0.0
O232 O 0.09794 0.04979 0.34805 0.0
Tb233 Tb 0.08272 0.02075 0.34233 0.0
Eu234 Eu 0.04566 0.99255 0.35523 0.0
C235 C 0.10105 0.06284 0.33323 0.0
O236 O 0.09069 0.06054 0.31572 0.0
C237 C 0.05198 1.0094 0.30767 0.0
O238 O 0.03421 0.96324 0.37185 0.0
C239 C 0.0232 0.02346 0.36839 0.0
C240 C 0.04715 0.94857 0.37758 0.0
O241 O 0.06582 0.94844 0.36961 0.0
C242 C 0.08434 1.0034 0.38513 0.0
C243 C 1.01429 0.03398 0.38722 0.0
C244 C 0.02603 0.04854 0.39921 0.0
C245 C 0.01705 0.05863 0.41641 0.0
C246 C 0.99685 0.05364 0.42209 0.0
C247 C 0.98431 0.04024 0.41008 0.0
C248 C 0.99324 0.03049 0.39251 0.0
O249 O 0.05987 0.02554 0.31776 0.0
O250 O 0.04822 0.99237 0.31868 0.0
O251 O 0.1117 0.01463 0.32667 0.0
O252 O 0.09413 0.98921 0.33803 0.0
C253 C 0.1111 0.99469 0.32857 0.0
O254 O 0.07352 0.98798 0.37694 0.0
O255 O 0.08347 0.0211 0.37593 0.0
O256 O 0.01539 1.00536 0.36266 0.0
O257 O 0.04328 0.02489 0.36521 0.0
H258 H 0.04197 0.05201 0.39528 0.0
H259 H 0.99134 0.05984 0.43671 0.0
H260 H 0.98388 0.02008 0.38295 0.0
O261 O 0.23649 0.85434 0.59096 0.0
Tb262 Tb 0.26071 0.83241 0.59267 0.0
Eu263 Eu 0.28337 0.79105 0.60608 0.0
C264 C 0.21694 0.85025 0.5873 0.0
O265 O 0.21075 0.83163 0.58157 0.0
C266 C 0.26696 0.80081 0.55763 0.0
O267 O 0.31347 0.78039 0.62217 0.0
C268 C 0.25315 0.76722 0.61893 0.0
C269 C 0.32822 0.7935 0.62871 0.0
O270 O 0.3278 0.81254 0.62209 0.0
C271 C 0.27245 0.82874 0.63661 0.0
C272 C 0.2427 0.75744 0.63721 0.0
C273 C 0.2268 0.76774 0.64826 0.0
C274 C 0.21554 0.75746 0.66382 0.0
C275 C 0.2198 0.73694 0.66801 0.0
C276 C 0.23646 0.72705 0.6588 0.0
C277 C 0.24782 0.73716 0.64323 0.0
O278 O 0.25275 0.8123 0.56649 0.0
O279 O 0.28269 0.79388 0.56934 0.0
O280 O 0.27491 0.86219 0.58696 0.0
O281 O 0.29422 0.8359 0.5872 0.0
C282 C 0.29377 0.85589 0.58517 0.0
O283 O 0.28798 0.81809 0.62919 0.0
O284 O 0.25563 0.82898 0.62541 0.0
O285 O 0.27134 0.76029 0.61307 0.0
O286 O 0.25121 0.78718 0.61613 0.0
H287 H 0.22343 0.78371 0.64511 0.0
H288 H 0.21183 0.72948 0.68072 0.0
H289 H 0.26086 0.7294 0.63622 0.0
O290 O 0.42457 0.97936 0.84618 0.0
Tb291 Tb 0.4426 1.00732 0.8458 0.0
Eu292 Eu 0.48205 0.0319 0.85851 0.0
C293 C 0.42175 0.96791 0.82957 0.0
O294 O 0.43279 0.97151 0.81299 0.0
C295 C 0.47334 0.01549 0.81044 0.0
O296 O 0.49508 0.06152 0.87396 0.0
C297 C 0.50435 1.00097 0.87099 0.0
C298 C 0.4828 0.07671 0.87993 0.0
O299 O 0.4635 0.07661 0.87335 0.0
C300 C 0.44454 0.02274 0.88925 0.0
C301 C 0.51512 0.99044 0.88856 0.0
C302 C 0.50573 0.974 0.89966 0.0
C303 C 0.51765 0.96219 0.91371 0.0
C304 C 0.53908 0.96612 0.91483 0.0
C305 C 0.54757 0.98422 0.90716 0.0
C306 C 0.53577 0.99614 0.89361 0.0
O307 O 0.46312 1.00062 0.81978 0.0
O308 O 0.47951 0.03184 0.822 0.0
O309 O 0.43717 0.04025 0.84018 0.0
O310 O 0.41219 0.01875 0.83776 0.0
C311 C 0.41738 0.03804 0.83641 0.0
O312 O 0.45541 0.03787 0.88129 0.0
O313 O 0.44431 1.00524 0.8791 0.0
O314 O 0.51217 0.01857 0.86453 0.0
O315 O 0.48405 0.9999 0.86921 0.0
H316 H 0.48933 0.9709 0.89765 0.0
H317 H 0.54889 0.95676 0.9245 0.0
H318 H 0.54265 1.01003 0.8874 0.0
O319 O 0.30406 0.18222 0.10439 0.0
Tb320 Tb 0.27551 0.19804 0.09937 0.0
Eu321 Eu 0.25106 0.24236 0.11528 0.0
C322 C 0.32013 0.18564 0.09275 0.0
O323 O 0.32143 0.20313 0.08282 0.0
C324 C 0.26689 0.23117 0.06625 0.0
O325 O 0.22051 0.25292 0.1303 0.0
C326 C 0.27999 0.26681 0.13155 0.0
C327 C 0.20536 0.23991 0.1353 0.0
O328 O 0.20562 0.22106 0.12755 0.0
C329 C 0.25879 0.20154 0.14253 0.0
C330 C 0.28901 0.27675 0.1512 0.0
C331 C 0.30293 0.2657 0.16387 0.0
C332 C 0.31284 0.2752 0.18124 0.0
C333 C 0.30888 0.29599 0.1859 0.0
C334 C 0.29544 0.30766 0.17379 0.0
C335 C 0.28549 0.29796 0.15637 0.0
O336 O 0.28154 0.22027 0.07499 0.0
O337 O 0.25178 0.23906 0.07828 0.0
O338 O 0.26955 0.16872 0.08368 0.0
O339 O 0.24385 0.1853 0.09552 0.0
C340 C 0.24955 0.16847 0.08577 0.0
O341 O 0.24468 0.21436 0.1359 0.0
O342 O 0.27633 0.20076 0.13273 0.0
O343 O 0.26218 0.27342 0.12433 0.0
O344 O 0.28239 0.24685 0.12815 0.0
H345 H 0.30608 0.24966 0.1603 0.0
H346 H 0.31667 0.30339 0.19906 0.0
H347 H 0.27544 0.307 0.14667 0.0
O348 O 0.09374 0.97236 0.17802 0.0
Tb349 Tb 0.08169 1.00304 0.1801 0.0
Eu350 Eu 0.04645 0.03214 0.16682 0.0
C351 C 0.09531 0.96183 0.19502 0.0
O352 O 0.08337 0.96681 0.21069 0.0
C353 C 0.05113 0.01551 0.21388 0.0
O354 O 0.0342 0.06081 0.15013 0.0
C355 C 0.0252 0.99973 0.15346 0.0
C356 C 0.0465 0.07666 0.14554 0.0
O357 O 0.06511 0.07747 0.15389 0.0
C358 C 0.08574 0.02296 0.13802 0.0
C359 C 0.01588 0.98888 0.13474 0.0
C360 C 0.02493 0.97082 0.12602 0.0
C361 C 0.01542 0.96012 0.10893 0.0
C362 C 0.99664 0.96766 0.10121 0.0
C363 C 0.98705 0.98469 0.11007 0.0
C364 C 0.99681 0.99555 0.12651 0.0
O365 O 0.05722 0.99926 0.20316 0.0
O366 O 0.04896 0.03291 0.20329 0.0
O367 O 0.1101 1.00792 0.19775 0.0
O368 O 0.09421 0.03416 0.18676 0.0
C369 C 0.11033 0.02793 0.19709 0.0
O370 O 0.07476 0.03788 0.14632 0.0
O371 O 0.08547 1.00489 0.14671 0.0
O372 O 0.01678 0.01709 0.15987 0.0
O373 O 0.04543 0.99979 0.15598 0.0
H374 H 0.03905 0.96508 0.13279 0.0
H375 H 0.98954 0.9608 0.08741 0.0
H376 H 0.98938 1.00911 0.13291 0.0
O377 O 0.29254 0.85266 0.42789 0.0
Tb378 Tb 0.26581 0.83305 0.42874 0.0
Eu379 Eu 0.24031 0.79441 0.41711 0.0
C380 C 0.31099 0.84784 0.43447 0.0
O381 O 0.31419 0.82978 0.44277 0.0
C382 C 0.25872 0.80281 0.46442 0.0
O383 O 0.21073 0.78174 0.40127 0.0
C384 C 0.27105 0.77262 0.40266 0.0
C385 C 0.19514 0.79384 0.39626 0.0
O386 O 0.19445 0.81241 0.40466 0.0
C387 C 0.24829 0.8317 0.3865 0.0
C388 C 0.28211 0.76408 0.38404 0.0
C389 C 0.2985 0.77536 0.37481 0.0
C390 C 0.31105 0.76598 0.35962 0.0
C391 C 0.30747 0.74543 0.35402 0.0
C392 C 0.2896 0.73502 0.36031 0.0
C393 C 0.27733 0.74399 0.37606 0.0
O394 O 0.27339 0.81292 0.45447 0.0
O395 O 0.24197 0.79631 0.45364 0.0
O396 O 0.25463 0.863 0.4388 0.0
O397 O 0.23318 0.83788 0.43669 0.0
C398 C 0.23542 0.85748 0.44106 0.0
O399 O 0.23337 0.82211 0.39633 0.0
O400 O 0.26652 0.83117 0.39514 0.0
O401 O 0.25297 0.76459 0.40773 0.0
O402 O 0.27253 0.7925 0.40694 0.0
H403 H 0.30144 0.79133 0.37922 0.0
H404 H 0.31733 0.73837 0.34238 0.0
H405 H 0.26398 0.73558 0.38173 0.0
O406 O 0.42201 0.0397 0.68469 0.0
Tb407 Tb 0.44395 0.01551 0.68233 0.0
Eu408 Eu 0.48562 0.99388 0.66877 0.0
C409 C 0.42607 0.05948 0.68525 0.0
O410 O 0.44516 0.06646 0.68748 0.0
C411 C 0.47593 1.00925 0.71709 0.0
O412 O 0.49783 0.96527 0.65161 0.0
C413 C 0.50751 0.02549 0.65598 0.0
C414 C 0.48631 0.9485 0.64808 0.0
O415 O 0.46879 0.9464 0.65813 0.0
C416 C 0.44689 1.00096 0.63912 0.0
C417 C 0.51701 0.03707 0.63824 0.0
C418 C 0.50735 0.05495 0.63048 0.0
C419 C 0.51773 0.06773 0.61626 0.0
C420 C 0.53784 0.06295 0.61037 0.0
C421 C 0.5462 0.04378 0.61475 0.0
C422 C 0.53628 0.03115 0.62947 0.0
O423 O 0.46451 0.0235 0.70842 0.0
O424 O 0.48276 0.99358 0.70522 0.0
O425 O 0.41373 1.002 0.68822 0.0
O426 O 0.43985 0.98244 0.68888 0.0
C427 C 0.41974 0.98324 0.69069 0.0
O428 O 0.45794 0.98634 0.64743 0.0
O429 O 0.44677 0.01857 0.64909 0.0
O430 O 0.51564 1.00786 0.66151 0.0
O431 O 0.48732 0.02607 0.6588 0.0
H432 H 0.49171 0.05869 0.63509 0.0
H433 H 0.54554 0.07265 0.59911 0.0
H434 H 0.5432 0.01663 0.63357 0.0
O435 O 0.23837 0.17557 0.93599 0.0
Tb436 Tb 0.26567 0.19411 0.93515 0.0
Eu437 Eu 0.28759 0.23442 0.9233 0.0
C438 C 0.21988 0.18335 0.93726 0.0
O439 O 0.2175 0.20334 0.93944 0.0
C440 C 0.27233 0.2252 0.97202 0.0
O441 O 0.31703 0.24648 0.90746 0.0
C442 C 0.25703 0.25627 0.90869 0.0
C443 C 0.33306 0.23441 0.90375 0.0
O444 O 0.33377 0.21663 0.91317 0.0
C445 C 0.27943 0.19644 0.89217 0.0
C446 C 0.24702 0.26628 0.89027 0.0
C447 C 0.23074 0.25646 0.87852 0.0
C448 C 0.21928 0.2678 0.86375 0.0
C449 C 0.22278 0.28908 0.8629 0.0
C450 C 0.24089 0.29792 0.87092 0.0
C451 C 0.25283 0.28674 0.88506 0.0
O452 O 0.25873 0.2126 0.96293 0.0
O453 O 0.28722 0.23363 0.96022 0.0
O454 O 0.27724 0.16343 0.9406 0.0
O455 O 0.2987 0.18863 0.94113 0.0
C456 C 0.29659 0.16868 0.94274 0.0
O457 O 0.29459 0.20688 0.90133 0.0
O458 O 0.26188 0.19649 0.90193 0.0
O459 O 0.27456 0.26423 0.91592 0.0
O460 O 0.25571 0.23616 0.91098 0.0
H461 H 0.22725 0.24025 0.88063 0.0
H462 H 0.2131 0.29838 0.85301 0.0
H463 H 0.2666 0.29392 0.89179 0.0
O464 O 0.34735 0.10028 0.04944 0.0
Tb465 Tb 0.34741 0.08334 0.02042 0.0
Eu466 Eu 0.35794 0.0439 0.99417 0.0
C467 C 0.32989 0.10524 0.05823 0.0
O468 O 0.31262 0.09665 0.05134 0.0
C469 C 0.3103 0.05397 1.00983 0.0
O470 O 0.37404 0.03019 0.9655 0.0
C471 C 0.37099 0.02224 0.02556 0.0
C472 C 0.37932 0.04132 0.94928 0.0
O473 O 0.3719 0.05994 0.94743 0.0
C474 C 0.38942 0.08176 1.00215 0.0
C475 C 0.38952 0.0129 0.03602 0.0
C476 C 0.39885 0.0227 0.05363 0.0
C477 C 0.4147 0.0129 0.06489 0.0
C478 C 0.42123 0.99336 0.05855 0.0
C479 C 0.41323 0.98381 0.04067 0.0
C480 C 0.39731 0.99349 0.0294 0.0
O481 O 0.32013 0.06331 0.02546 0.0
O482 O 0.3216 0.04766 0.99357 0.0
O483 O 0.3414 0.11423 1.00963 0.0
O484 O 0.34096 0.08965 0.98754 0.0
C485 C 0.3391 0.10951 0.99013 0.0
O486 O 0.37985 0.07106 0.98739 0.0
O487 O 0.38099 0.08147 0.02052 0.0
O488 O 0.36437 0.01405 1.00786 0.0
O489 O 0.36862 0.04238 0.02653 0.0
H490 H 0.39393 0.03791 0.05855 0.0
H491 H 0.43414 0.98633 0.06654 0.0
H492 H 0.39123 0.98598 0.01547 0.0
O493 O 0.85356 0.4291 0.97511 0.0
Tb494 Tb 0.8463 0.44319 1.0044 0.0
Eu495 Eu 0.85879 0.48134 0.03199 0.0
C496 C 0.83936 0.42681 0.96082 0.0
O497 O 0.82277 0.4383 0.96182 0.0
C498 C 0.81146 0.47378 0.01445 0.0
O499 O 0.87516 0.49431 0.0612 0.0
C500 C 0.87291 0.50238 1.00054 0.0
C501 C 0.87812 0.48257 0.07753 0.0
O502 O 0.86762 0.46514 0.07852 0.0
C503 C 0.88803 0.44266 0.02536 0.0
C504 C 0.89126 0.5131 0.99095 0.0
C505 C 0.9046 0.50308 0.97658 0.0
C506 C 0.9207 0.51429 0.96665 0.0
C507 C 0.9226 0.53559 0.9707 0.0
C508 C 0.91106 0.5453 0.98609 0.0
C509 C 0.89499 0.5342 0.99568 0.0
O510 O 0.82148 0.46527 0.99878 0.0
O511 O 0.82247 0.47866 0.03153 0.0
O512 O 0.82947 0.41432 1.00776 0.0
O513 O 0.84066 0.42984 0.03504 0.0
C514 C 0.83067 0.41357 0.02787 0.0
O515 O 0.87875 0.45346 0.03989 0.0
O516 O 0.87989 0.44279 1.00682 0.0
O517 O 0.86496 0.51075 0.01742 0.0
O518 O 0.87166 0.48211 1.00038 0.0
H519 H 0.90275 0.48668 0.97358 0.0
H520 H 0.93469 0.54447 0.96322 0.0
H521 H 0.88592 0.54197 1.00747 0.0
O522 O 0.8504 0.60221 0.24434 0.0
Tb523 Tb 0.83716 0.59065 0.27269 0.0
Eu524 Eu 0.78836 0.61043 0.27845 0.0
C525 C 0.84817 0.59167 0.22691 0.0
O526 O 0.83159 0.57997 0.22433 0.0
C527 C 0.80011 0.56003 0.27032 0.0
O528 O 0.78087 0.63075 0.30742 0.0
C529 C 0.76201 0.61986 0.2496 0.0
C530 C 0.79162 0.63211 0.32507 0.0
O531 O 0.80658 0.61902 0.32835 0.0
C532 C 0.83057 0.63408 0.2849 0.0
C533 C 0.75444 0.63843 0.23854 0.0
C534 C 0.76647 0.64784 0.22294 0.0
C535 C 0.75823 0.66389 0.21122 0.0
C536 C 0.73802 0.67026 0.21475 0.0
C537 C 0.72669 0.6632 0.23175 0.0
C538 C 0.73489 0.64685 0.24339 0.0
O539 O 0.81667 0.56641 0.2606 0.0
O540 O 0.78938 0.57372 0.28186 0.0
O541 O 0.84541 0.57065 0.29773 0.0
O542 O 0.86926 0.58348 0.27871 0.0
C543 C 0.86523 0.57244 0.29484 0.0
O544 O 0.81398 0.63465 0.27323 0.0
O545 O 0.83406 0.61658 0.29351 0.0
O546 O 0.75673 0.61773 0.26918 0.0
O547 O 0.78104 0.61382 0.24573 0.0
H548 H 0.78217 0.64292 0.22 0.0
H549 H 0.73185 0.68234 0.20515 0.0
H550 H 0.72651 0.64101 0.25657 0.0
O551 O 0.69216 0.60161 0.48023 0.0
Tb552 Tb 0.68401 0.58426 0.50708 0.0
Eu553 Eu 0.66851 0.54395 0.53003 0.0
C554 C 0.6782 0.60703 0.46658 0.0
O555 O 0.65898 0.60047 0.46805 0.0
C556 C 0.71702 0.55187 0.51485 0.0
O557 O 0.65077 0.53209 0.55859 0.0
C558 C 0.65425 0.5227 0.49788 0.0
C559 C 0.64604 0.54408 0.57477 0.0
O560 O 0.65515 0.56226 0.57657 0.0
C561 C 0.64034 0.5834 0.52163 0.0
C562 C 0.63493 0.51363 0.4879 0.0
C563 C 0.62225 0.52514 0.47439 0.0
C564 C 0.60466 0.51582 0.46484 0.0
C565 C 0.59915 0.49562 0.46972 0.0
C566 C 0.61167 0.48328 0.48222 0.0
C567 C 0.62998 0.49248 0.49072 0.0
O568 O 0.70777 0.56185 0.4999 0.0
O569 O 0.70531 0.54542 0.53069 0.0
O570 O 0.69125 0.61356 0.52258 0.0
O571 O 0.69221 0.58607 0.54015 0.0
C572 C 0.69455 0.60604 0.54083 0.0
O573 O 0.64782 0.57189 0.53647 0.0
O574 O 0.6506 0.58402 0.5043 0.0
O575 O 0.66083 0.51436 0.51519 0.0
O576 O 0.65735 0.54282 0.49772 0.0
H577 H 0.62608 0.54107 0.47115 0.0
H578 H 0.58449 0.48979 0.46369 0.0
H579 H 0.64081 0.48333 0.49929 0.0
O580 O 0.17919 0.9274 0.22604 0.0
Tb581 Tb 0.19527 0.93111 0.2552 0.0
Eu582 Eu 0.23179 0.92119 0.28426 0.0
C583 C 0.17941 0.94193 0.21228 0.0
O584 O 0.19385 0.95629 0.21355 0.0
C585 C 0.22468 0.96741 0.26532 0.0
O586 O 0.2435 0.90436 0.31319 0.0
C587 C 0.2545 0.90764 0.25357 0.0
C588 C 0.23141 0.89929 0.32894 0.0
O589 O 0.21327 0.90808 0.33064 0.0
C590 C 0.19423 0.88988 0.27461 0.0
C591 C 0.26333 0.88933 0.24229 0.0
C592 C 0.25226 0.87987 0.22557 0.0
C593 C 0.26193 0.86533 0.21259 0.0
C594 C 0.28264 0.86062 0.21594 0.0
C595 C 0.2931 0.86705 0.23408 0.0
C596 C 0.28347 0.88201 0.24703 0.0
O597 O 0.21744 0.95614 0.2496 0.0
O598 O 0.22876 0.95752 0.28301 0.0
O599 O 0.16564 0.94416 0.26405 0.0
O600 O 0.18753 0.93773 0.28777 0.0
C601 C 0.169 0.9444 0.28394 0.0
O602 O 0.20384 0.89976 0.2899 0.0
O603 O 0.19579 0.89777 0.25622 0.0
O604 O 0.26218 0.91314 0.27185 0.0
O605 O 0.23453 0.91115 0.25187 0.0
H606 H 0.23623 0.8837 0.22264 0.0
H607 H 0.28988 0.84988 0.20523 0.0
H608 H 0.29126 0.88771 0.2609 0.0
O609 O 0.1763 0.92962 0.54847 0.0
Tb610 Tb 0.18221 0.94513 0.52003 0.0
Eu611 Eu 0.17083 0.98319 0.49207 0.0
C612 C 0.19085 0.92745 0.5623 0.0
O613 O 0.20785 0.9387 0.56108 0.0
C614 C 0.21807 0.97557 0.51058 0.0
O615 O 0.15527 0.99572 0.46249 0.0
C616 C 0.15661 1.00488 0.52351 0.0
C617 C 0.14766 0.98355 0.4474 0.0
O618 O 0.15258 0.96398 0.4469 0.0
C619 C 0.14068 0.9449 0.50003 0.0
C620 C 0.13823 0.01342 0.53492 0.0
C621 C 0.12932 1.00265 0.55173 0.0
C622 C 0.11472 0.01231 0.56475 0.0
C623 C 0.10924 0.03263 0.56108 0.0
C624 C 0.11559 0.04284 0.54321 0.0
C625 C 0.13054 0.03328 0.53034 0.0
O626 O 0.20785 0.96693 0.52595 0.0
O627 O 0.20728 0.98081 0.49361 0.0
O628 O 0.19537 0.91505 0.51358 0.0
O629 O 0.18749 0.93404 0.48816 0.0
C630 C 0.19473 0.91619 0.49349 0.0
O631 O 0.15057 0.95454 0.48527 0.0
O632 O 0.14866 0.94634 0.51859 0.0
O633 O 0.16201 0.01293 0.50569 0.0
O634 O 0.16044 0.98505 0.52438 0.0
H635 H 0.13379 0.98694 0.55481 0.0
H636 H 0.09831 0.03991 0.5715 0.0
H637 H 0.13598 0.04103 0.51664 0.0
O638 O 0.84489 0.42895 0.3027 0.0
Tb639 Tb 0.83138 0.43168 0.27225 0.0
Eu640 Eu 0.79382 0.41949 0.24377 0.0
C641 C 0.84499 0.44476 0.31552 0.0
O642 O 0.82974 0.45792 0.3145 0.0
C643 C 0.80069 0.46692 0.26156 0.0
O644 O 0.78113 0.40155 0.21523 0.0
C645 C 0.77261 0.40594 0.27538 0.0
C646 C 0.7921 0.39859 0.19817 0.0
O647 O 0.80949 0.40906 0.19601 0.0
C648 C 0.83245 0.3902 0.25112 0.0
C649 C 0.7635 0.38766 0.2863 0.0
C650 C 0.77439 0.37798 0.30259 0.0
C651 C 0.76465 0.36244 0.31428 0.0
C652 C 0.74403 0.35704 0.31017 0.0
C653 C 0.73366 0.36483 0.2931 0.0
C654 C 0.74325 0.38032 0.28125 0.0
O655 O 0.80949 0.45702 0.27698 0.0
O656 O 0.79545 0.45589 0.24449 0.0
O657 O 0.86162 0.44558 0.26665 0.0
O658 O 0.84271 0.43703 0.24069 0.0
C659 C 0.86055 0.44483 0.2465 0.0
O660 O 0.82238 0.3998 0.23642 0.0
O661 O 0.83159 0.39813 0.26985 0.0
O662 O 0.76415 0.41156 0.25775 0.0
O663 O 0.79278 0.40919 0.27603 0.0
H664 H 0.79041 0.3821 0.30585 0.0
H665 H 0.73698 0.34439 0.31856 0.0
H666 H 0.73509 0.38625 0.26793 0.0
O667 O 0.6782 0.60186 0.79179 0.0
Tb668 Tb 0.69453 0.59629 0.76356 0.0
Eu669 Eu 0.73009 0.6061 0.73429 0.0
C670 C 0.67681 0.58801 0.80608 0.0
O671 O 0.68886 0.57186 0.80529 0.0
C672 C 0.72281 0.5601 0.7532 0.0
O673 O 0.74458 0.62421 0.70714 0.0
C674 C 0.75301 0.61526 0.76668 0.0
C675 C 0.7336 0.6325 0.69192 0.0
O676 O 0.71402 0.62718 0.68969 0.0
C677 C 0.69428 0.63838 0.7453 0.0
C678 C 0.76369 0.63161 0.77936 0.0
C679 C 0.75301 0.64238 0.79515 0.0
C680 C 0.76369 0.65652 0.80812 0.0
C681 C 0.785 0.65926 0.80604 0.0
C682 C 0.79538 0.65054 0.78927 0.0
C683 C 0.7849 0.63626 0.77617 0.0
O684 O 0.7161 0.57115 0.76913 0.0
O685 O 0.72565 0.56995 0.7352 0.0
O686 O 0.66436 0.58278 0.7567 0.0
O687 O 0.68419 0.59046 0.73151 0.0
C688 C 0.66607 0.58312 0.73665 0.0
O689 O 0.70343 0.62902 0.72965 0.0
O690 O 0.6954 0.62968 0.76333 0.0
O691 O 0.76066 0.61041 0.74838 0.0
O692 O 0.73268 0.61409 0.76722 0.0
H693 H 0.73643 0.64036 0.79694 0.0
H694 H 0.79289 0.67097 0.81555 0.0
H695 H 0.793 0.62959 0.76306 0.0
O696 O 0.97882 0.6756 0.93318 0.0
Tb697 Tb 1.00855 0.67913 0.94773 0.0
Eu698 Eu 0.03505 0.66785 0.98351 0.0
C699 C 0.97078 0.69145 0.92418 0.0
O700 O 0.97846 0.70989 0.92849 0.0
C701 C 0.01864 0.7152 0.97662 0.0
O702 O 0.06344 0.65127 0.9963 0.0
C703 C 1.00353 0.65412 1.00496 0.0
C704 C 0.08038 0.64853 0.98519 0.0
O705 O 0.08241 0.65861 0.96779 0.0
C706 C 0.02769 0.63735 0.94494 0.0
C707 C 0.99297 0.63645 0.01575 0.0
C708 C 0.97534 0.6258 1.00707 0.0
C709 C 0.96243 0.61335 0.01988 0.0
C710 C 0.96605 0.615 0.0413 0.0
C711 C 0.98588 0.61963 0.04864 0.0
C712 C 0.99926 0.63114 0.03606 0.0
O713 O 1.00251 0.70475 0.96928 0.0
O714 O 0.03564 0.70422 0.98062 0.0
O715 O 0.01726 0.69341 0.91874 0.0
O716 O 0.04116 0.68489 0.93962 0.0
C717 C 0.03713 0.69275 0.92162 0.0
O718 O 0.0425 0.64682 0.95558 0.0
O719 O 1.00936 0.64559 0.94547 0.0
O720 O 0.02064 0.66198 0.01328 0.0
O721 O 1.00311 0.6553 0.98461 0.0
H722 H 0.97192 0.62724 0.99071 0.0
H723 H 0.95485 0.6093 0.05226 0.0
H724 H 1.01426 0.63602 0.04214 0.0
O725 O 0.09411 0.21948 0.68911 0.0
Tb726 Tb 0.09743 0.24962 0.70341 0.0
Eu727 Eu 0.10844 0.28128 0.73716 0.0
C728 C 0.07577 0.21437 0.68184 0.0
O729 O 0.05968 0.22399 0.68948 0.0
C730 C 0.06099 0.26383 0.73108 0.0
O731 O 0.12572 0.31063 0.74854 0.0
C732 C 0.12152 0.25091 0.75988 0.0
C733 C 0.13023 0.32615 0.73613 0.0
O734 O 0.12103 0.32668 0.7179 0.0
C735 C 0.13792 0.27164 0.69832 0.0
C736 C 0.13987 0.24051 0.76934 0.0
C737 C 0.14984 0.22398 0.75894 0.0
C738 C 0.16586 0.21316 0.76884 0.0
C739 C 0.17167 0.21861 0.78912 0.0
C740 C 0.1631 0.23563 0.79919 0.0
C741 C 0.14706 0.24646 0.7894 0.0
O742 O 0.07107 0.24717 0.72486 0.0
O743 O 0.07218 0.28104 0.73472 0.0
O744 O 0.0883 0.25762 0.67221 0.0
O745 O 0.08755 0.28077 0.69597 0.0
C746 C 0.08433 0.27672 0.67645 0.0
O747 O 0.12815 0.2865 0.70818 0.0
O748 O 0.13106 0.25277 0.701 0.0
O749 O 0.11597 0.26896 0.76754 0.0
O750 O 0.1184 0.24922 0.73973 0.0
H751 H 0.14552 0.21979 0.74314 0.0
H752 H 0.18482 0.21106 0.79619 0.0
H753 H 0.14069 0.25985 0.79721 0.0
O754 O 0.5477 0.34645 0.42465 0.0
Tb755 Tb 0.52 0.34258 0.4424 0.0
Eu756 Eu 0.49167 0.35559 0.47874 0.0
C757 C 0.56346 0.33413 0.42593 0.0
O758 O 0.56391 0.32047 0.44075 0.0
C759 C 0.51141 0.30904 0.474 0.0
O760 O 0.46205 0.37112 0.4909 0.0
C761 C 0.52262 0.37157 0.50032 0.0
C762 C 0.44592 0.37464 0.47865 0.0
O763 O 0.44539 0.36548 0.46032 0.0
C764 C 0.49944 0.38388 0.43925 0.0
C765 C 0.53312 0.39067 0.50905 0.0
C766 C 0.55096 0.39895 0.49929 0.0
C767 C 0.56282 0.41484 0.50902 0.0
C768 C 0.55655 0.42237 0.52841 0.0
C769 C 0.53853 0.41545 0.53817 0.0
C770 C 0.52681 0.39943 0.52833 0.0
O771 O 0.52693 0.31966 0.46599 0.0
O772 O 0.49375 0.31922 0.47747 0.0
O773 O 0.51249 0.32416 0.41494 0.0
O774 O 0.48781 0.33468 0.43403 0.0
C775 C 0.49253 0.32434 0.41725 0.0
O776 O 0.48469 0.37467 0.44977 0.0
O777 O 0.51793 0.376 0.44006 0.0
O778 O 0.50506 0.36534 0.50856 0.0
O779 O 0.52358 0.36764 0.48026 0.0
H780 H 0.55589 0.39278 0.48442 0.0
H781 H 0.5657 0.43448 0.53585 0.0
H782 H 0.51279 0.3938 0.53549 0.0
O783 O 0.43379 0.79307 0.17131 0.0
Tb784 Tb 0.43226 0.76805 0.19224 0.0
Eu785 Eu 0.41862 0.74731 0.23284 0.0
C786 C 0.43479 0.81241 0.17725 0.0
O787 O 0.43756 0.81745 0.19691 0.0
C788 C 0.46673 0.763 0.22425 0.0
O789 O 0.40189 0.71874 0.24476 0.0
C790 C 0.40492 0.77838 0.25498 0.0
C791 C 0.39897 0.70193 0.2332 0.0
O792 O 0.40924 0.69974 0.21581 0.0
C793 C 0.38866 0.75508 0.19451 0.0
C794 C 0.38603 0.78892 0.26336 0.0
C795 C 0.37724 0.8057 0.25269 0.0
C796 C 0.3617 0.81769 0.26207 0.0
C797 C 0.35509 0.81301 0.28195 0.0
C798 C 0.36118 0.79495 0.29162 0.0
C799 C 0.37732 0.78328 0.28271 0.0
O800 O 0.45729 0.77697 0.21322 0.0
O801 O 0.45524 0.74721 0.23123 0.0
O802 O 0.44084 0.75388 0.16292 0.0
O803 O 0.43733 0.73463 0.18914 0.0
C804 C 0.44135 0.73507 0.16934 0.0
O805 O 0.3963 0.74012 0.20558 0.0
O806 O 0.39935 0.77217 0.19436 0.0
O807 O 0.41036 0.76065 0.26296 0.0
O808 O 0.40889 0.7795 0.23499 0.0
H809 H 0.38244 0.8095 0.23725 0.0
H810 H 0.34324 0.82248 0.28906 0.0
H811 H 0.38278 0.76975 0.29061 0.0
O812 O 0.98996 0.35259 0.59863 0.0
Tb813 Tb 0.01656 0.33706 0.58642 0.0
Eu814 Eu 0.02633 0.35891 0.53911 0.0
C815 C 0.97159 0.34428 0.59562 0.0
O816 O 0.96849 0.33318 0.57863 0.0
C817 C 0.01693 0.3089 0.54831 0.0
O818 O 0.05632 0.37619 0.52997 0.0
C819 C 0.99693 0.36927 0.51357 0.0
C820 C 0.07153 0.38087 0.54324 0.0
O821 O 0.07067 0.37316 0.56191 0.0
C822 C 0.03037 0.38138 0.58361 0.0
C823 C 0.98559 0.38786 0.50615 0.0
C824 C 0.97107 0.39833 0.51884 0.0
C825 C 0.95866 0.41388 0.5104 0.0
C826 C 0.96022 0.41826 0.4894 0.0
C827 C 0.97681 0.41105 0.47758 0.0
C828 C 0.98912 0.39523 0.48589 0.0
O829 O 1.00458 0.31583 0.5627 0.0
O830 O 0.03038 0.32238 0.54 0.0
O831 O 0.01669 0.32178 0.61615 0.0
O832 O 0.04318 0.31992 0.59645 0.0
C833 C 0.03553 0.31505 0.61434 0.0
O834 O 0.02241 0.38339 0.56502 0.0
O835 O 0.03721 0.36333 0.5885 0.0
O836 O 0.01634 0.36701 0.50785 0.0
O837 O 0.99347 0.36306 0.5326 0.0
H838 H 0.96963 0.39471 0.53511 0.0
H839 H 0.94993 0.4297 0.48308 0.0
H840 H 1.00185 0.38901 0.47705 0.0
O841 O 0.42978 0.20986 0.35032 0.0
Tb842 Tb 0.43644 0.23854 0.33563 0.0
Eu843 Eu 0.42841 0.26402 0.30055 0.0
C844 C 0.44275 0.1946 0.35024 0.0
O845 O 0.45856 0.19504 0.33753 0.0
C846 C 0.47432 0.24771 0.30811 0.0
O847 O 0.42111 0.29342 0.28497 0.0
C848 C 0.41305 0.2349 0.27634 0.0
C849 C 0.41893 0.31015 0.29629 0.0
O850 O 0.42463 0.31019 0.31588 0.0
C851 C 0.39476 0.25987 0.33607 0.0
C852 C 0.39295 0.22837 0.26632 0.0
C853 C 0.3815 0.21138 0.27402 0.0
C854 C 0.36295 0.20488 0.26416 0.0
C855 C 0.35633 0.21481 0.24625 0.0
C856 C 0.36649 0.23232 0.23911 0.0
C857 C 0.385 0.23899 0.24893 0.0
O858 O 0.46365 0.23219 0.31595 0.0
O859 O 0.46391 0.26453 0.30384 0.0
O860 O 0.45048 0.24579 0.36564 0.0
O861 O 0.44223 0.27045 0.34589 0.0
C862 C 0.45015 0.26573 0.36382 0.0
O863 O 0.40512 0.27388 0.32571 0.0
O864 O 0.40254 0.24131 0.33614 0.0
O865 O 0.42187 0.25185 0.26957 0.0
O866 O 0.41523 0.23278 0.29654 0.0
H867 H 0.38654 0.20377 0.28798 0.0
H868 H 0.3418 0.21004 0.23891 0.0
H869 H 0.39278 0.2527 0.24336 0.0
O870 O 0.5468 0.67756 0.10038 0.0
Tb871 Tb 0.51868 0.68112 0.08328 0.0
Eu872 Eu 0.49343 0.66717 0.04436 0.0
C873 C 0.56366 0.68849 0.09783 0.0
O874 O 0.56482 0.70136 0.08233 0.0
C875 C 0.5093 0.71528 0.05218 0.0
O876 O 0.46402 0.651 0.03187 0.0
C877 C 0.52476 0.65305 0.02299 0.0
C878 C 0.44778 0.64798 0.04395 0.0
O879 O 0.4473 0.65792 0.06186 0.0
C880 C 0.50127 0.6381 0.08281 0.0
C881 C 0.53533 0.63473 0.01321 0.0
C882 C 0.55136 0.6238 0.0235 0.0
C883 C 0.56397 0.60971 1.01216 0.0
C884 C 0.5616 0.60909 0.9905 0.0
C885 C 0.54325 0.61531 0.9814 0.0
C886 C 0.5303 0.62871 0.99254 0.0
O887 O 0.52479 0.70645 0.0619 0.0
O888 O 0.49286 0.70347 0.04693 0.0
O889 O 0.51032 0.69388 0.11339 0.0
O890 O 0.48618 0.68466 0.09235 0.0
C891 C 0.49038 0.69205 0.11088 0.0
O892 O 0.48643 0.64614 0.07166 0.0
O893 O 0.51917 0.64767 0.08298 0.0
O894 O 0.50737 0.65947 0.01458 0.0
O895 O 0.5255 0.65603 0.04322 0.0
H896 H 0.55354 0.6261 0.04001 0.0
H897 H 0.57212 0.60022 0.98094 0.0
H898 H 0.51639 0.63427 0.98512 0.0
O899 O 0.1041 0.7934 0.84638 0.0
Tb900 Tb 0.09846 0.76347 0.83285 0.0
Eu901 Eu 0.11301 0.73676 0.79323 0.0
C902 C 0.09024 0.80783 0.84623 0.0
O903 O 0.07424 0.80575 0.83363 0.0
C904 C 0.06515 0.7491 0.80163 0.0
O905 O 0.13121 0.70959 0.78044 0.0
C906 C 0.12503 0.76922 0.77258 0.0
C907 C 0.13395 0.69272 0.79126 0.0
O908 O 0.12334 0.68996 0.80832 0.0
C909 C 0.14069 0.74491 0.83321 0.0
C910 C 0.14313 0.78061 0.76334 0.0
C911 C 0.14936 0.80021 0.77161 0.0
C912 C 0.16469 0.81224 0.76167 0.0
C913 C 0.17389 0.80421 0.74374 0.0
C914 C 0.16891 0.7847 0.73564 0.0
C915 C 0.15315 0.77302 0.74523 0.0
O916 O 0.07376 0.76594 0.80973 0.0
O917 O 0.07729 0.73334 0.79666 0.0
O918 O 0.0825 0.75947 0.86205 0.0
O919 O 0.09405 0.73285 0.84637 0.0
C920 C 0.08423 0.73953 0.86275 0.0
O921 O 0.13241 0.72997 0.8219 0.0
O922 O 0.13204 0.7629 0.83265 0.0
O923 O 0.11896 0.75167 0.76376 0.0
O924 O 0.12283 0.76935 0.79288 0.0
H925 H 0.14208 0.80621 0.78551 0.0
H926 H 0.18585 0.81309 0.73615 0.0
H927 H 0.14885 0.75807 0.73868 0.0
O928 O 0.92336 0.97747 0.68092 0.0
Tb929 Tb 0.9404 1.00615 0.67983 0.0
Eu930 Eu 0.98179 0.03322 0.66693 0.0
C931 C 0.92939 0.96174 0.69183 0.0
O932 O 0.9476 0.96215 0.70101 0.0
C933 C 0.97295 0.01562 0.71381 0.0
O934 O 0.99339 0.06286 0.65126 0.0
C935 C 1.00449 1.00292 0.6529 0.0
C936 C 0.98073 0.07819 0.64693 0.0
O937 O 0.96237 0.07817 0.65559 0.0
C938 C 0.94279 0.02317 0.63719 0.0
C939 C 1.01452 0.99175 0.63501 0.0
C940 C 1.00436 0.97468 0.62509 0.0
C941 C 0.01537 0.96181 0.61132 0.0
C942 C 0.03657 0.96513 0.6089 0.0
C943 C 0.04595 0.98385 0.61478 0.0
C944 C 0.03502 0.99694 0.62866 0.0
O945 O 0.96364 1.00045 0.70353 0.0
O946 O 0.97896 0.03235 0.70337 0.0
O947 O 0.91043 0.01584 0.69152 0.0
O948 O 0.93358 0.03877 0.68657 0.0
C949 C 0.9146 0.03548 0.69265 0.0
O950 O 0.95329 0.03835 0.64627 0.0
O951 O 0.94234 1.00537 0.64631 0.0
O952 O 1.01219 0.02086 0.65923 0.0
O953 O 0.9843 1.00135 0.65544 0.0
H954 H 0.98809 0.97156 0.62782 0.0
H955 H 0.04512 0.95413 0.59953 0.0
H956 H 0.04217 1.01115 0.6343 0.0
O957 O 0.79676 0.17171 0.42814 0.0
Tb958 Tb 0.77086 0.19176 0.42927 0.0
Eu959 Eu 0.74867 0.23232 0.41738 0.0
C960 C 0.81463 0.17507 0.43726 0.0
O961 O 0.818 0.19219 0.448 0.0
C962 C 0.76526 0.22363 0.46481 0.0
O963 O 0.71895 0.24423 0.40299 0.0
C964 C 0.7792 0.25472 0.40313 0.0
C965 C 0.70301 0.23157 0.40002 0.0
O966 O 0.70275 0.21399 0.40986 0.0
C967 C 0.75584 0.19463 0.38621 0.0
C968 C 0.7891 0.2646 0.38469 0.0
C969 C 0.8062 0.25539 0.37438 0.0
C970 C 0.81814 0.26685 0.36002 0.0
C971 C 0.81344 0.28772 0.35772 0.0
C972 C 0.79448 0.29549 0.36398 0.0
C973 C 0.78256 0.28429 0.37819 0.0
O974 O 0.77918 0.21241 0.4551 0.0
O975 O 0.74937 0.23078 0.45376 0.0
O976 O 0.75885 0.16166 0.43767 0.0
O977 O 0.73761 0.1863 0.43473 0.0
C978 C 0.7395 0.16669 0.43848 0.0
O979 O 0.741 0.2051 0.39514 0.0
O980 O 0.77345 0.19432 0.39607 0.0
O981 O 0.76174 0.26241 0.41013 0.0
O982 O 0.78045 0.23464 0.40552 0.0
H983 H 0.80989 0.23953 0.37749 0.0
H984 H 0.82326 0.29756 0.34842 0.0
H985 H 0.76834 0.29086 0.384 0.0
O986 O 0.59685 0.05207 0.1799 0.0
Tb987 Tb 0.58537 0.02093 0.18218 0.0
Eu988 Eu 0.54752 0.99307 0.16696 0.0
C989 C 0.59747 0.06393 0.19647 0.0
O990 O 0.58412 0.06043 0.21132 0.0
C991 C 0.55326 1.00952 0.21504 0.0
O992 O 0.53531 0.96384 0.15032 0.0
C993 C 0.52591 0.0237 0.15275 0.0
C994 C 0.54757 0.94835 0.14524 0.0
O995 O 0.56616 0.9478 0.1536 0.0
C996 C 0.58779 1.00164 0.13901 0.0
C997 C 0.51602 0.03426 0.13461 0.0
C998 C 0.52623 0.05066 0.12428 0.0
C999 C 0.51485 0.06368 0.11108 0.0
C1000 C 0.49328 0.06115 0.11042 0.0
C1001 C 0.48381 0.04248 0.11574 0.0
C1002 C 0.49528 0.02925 0.12867 0.0
O1003 O 0.5614 0.02537 0.20547 0.0
O1004 O 0.54874 0.9927 0.20351 0.0
O1005 O 0.61365 0.01694 0.19995 0.0
O1006 O 0.59776 0.99011 0.18848 0.0
C1007 C 0.61374 0.9969 0.19919 0.0
O1008 O 0.57574 0.98702 0.1464 0.0
O1009 O 0.58855 0.01948 0.14872 0.0
O1010 O 0.51767 1.00626 0.15914 0.0
O1011 O 0.54612 0.02482 0.15561 0.0
H1012 H 0.54271 0.05309 0.12648 0.0
H1013 H 0.48414 0.0729 0.10307 0.0
H1014 H 0.4884 0.01513 0.13417 0.0
O1015 O 0.72368 0.81572 0.95408 0.0
Tb1016 Tb 0.75522 0.82634 0.94804 0.0
Eu1017 Eu 0.78201 0.77519 0.92317 0.0
C1018 C 0.70602 0.82578 0.95328 0.0
O1019 O 0.68886 0.81487 0.95525 0.0
C1020 C 0.77476 0.78935 0.97024 0.0
O1021 O 0.81187 0.76615 0.90474 0.0
C1022 C 0.75043 0.75477 0.90745 0.0
C1023 C 0.82406 0.7796 0.89492 0.0
O1024 O 0.82048 0.79934 0.89763 0.0
C1025 C 0.76354 0.81521 0.90179 0.0
C1026 C 0.74031 0.74918 0.88729 0.0
C1027 C 0.7233 0.76049 0.87944 0.0
C1028 C 0.71334 0.75405 0.86081 0.0
C1029 C 0.7212 0.73719 0.84979 0.0
C1030 C 0.73721 0.72551 0.85765 0.0
C1031 C 0.74674 0.73137 0.8764 0.0
O1032 O 0.77852 0.80642 0.96044 0.0
O1033 O 0.77913 0.77252 0.9593 0.0
O1034 O 0.75743 0.8555 0.96538 0.0
O1035 O 0.77669 0.85058 0.93917 0.0
C1036 C 0.7725 0.86321 0.95437 0.0
O1037 O 0.78108 0.80674 0.9078 0.0
O1038 O 0.74962 0.82079 0.91542 0.0
O1039 O 0.7684 0.74634 0.91166 0.0
O1040 O 0.7494 0.77402 0.91389 0.0
H1041 H 0.71764 0.77385 0.88789 0.0
H1042 H 0.71448 0.73273 0.83488 0.0
H1043 H 0.75927 0.72213 0.88231 0.0
O1044 O 0.91625 0.04186 0.8402 0.0
Tb1045 Tb 0.93029 1.01216 0.83718 0.0
Eu1046 Eu 0.97733 0.99095 0.85454 0.0
C1047 C 0.92069 0.05672 0.82749 0.0
O1048 O 0.93775 0.05588 0.81658 0.0
C1049 C 0.96713 1.00533 0.80591 0.0
O1050 O 0.99083 0.96256 0.87097 0.0
C1051 C 0.99735 0.02344 0.86969 0.0
C1052 C 0.97924 0.94639 0.87627 0.0
O1053 O 0.96044 0.94453 0.86849 0.0
C1054 C 0.93581 0.99625 0.88078 0.0
C1055 C 1.00815 0.03404 0.88789 0.0
C1056 C 0.99849 0.04985 0.89982 0.0
C1057 C 1.00987 0.06105 0.91527 0.0
C1058 C 0.03092 0.05707 0.91808 0.0
C1059 C 0.04025 0.0405 0.90807 0.0
C1060 C 0.02897 0.02914 0.89281 0.0
O1061 O 0.95354 0.0183 0.81356 0.0
O1062 O 0.97587 0.99116 0.818 0.0
O1063 O 0.89963 1.00766 0.82309 0.0
O1064 O 0.91721 0.9812 0.83002 0.0
C1065 C 0.89964 0.98764 0.82236 0.0
O1066 O 0.94857 0.98252 0.87323 0.0
O1067 O 0.93278 0.01318 0.8707 0.0
O1068 O 1.00631 1.00729 0.86118 0.0
O1069 O 0.97696 0.02221 0.86876 0.0
H1070 H 0.98222 0.05308 0.89748 0.0
H1071 H 0.03937 0.06517 0.93044 0.0
H1072 H 0.03637 0.0162 0.88519 0.0
O1073 O 0.74441 0.18185 0.60505 0.0
Tb1074 Tb 0.77042 0.19212 0.58687 0.0
Eu1075 Eu 0.77818 0.24287 0.60756 0.0
C1076 C 0.72594 0.18338 0.59683 0.0
O1077 O 0.72116 0.20094 0.58823 0.0
C1078 C 0.76998 0.22908 0.55762 0.0
O1079 O 0.80777 0.25196 0.62637 0.0
C1080 C 0.74743 0.26639 0.61773 0.0
C1081 C 0.8237 0.23944 0.62899 0.0
O1082 O 0.82473 0.22271 0.61736 0.0
C1083 C 0.78539 0.20112 0.62943 0.0
C1084 C 0.73585 0.27316 0.63669 0.0
C1085 C 0.71939 0.26107 0.64479 0.0
C1086 C 0.7075 0.26863 0.66147 0.0
C1087 C 0.71194 0.28811 0.66987 0.0
C1088 C 0.72929 0.29948 0.66366 0.0
C1089 C 0.741 0.29212 0.64674 0.0
O1090 O 0.75888 0.21345 0.56414 0.0
O1091 O 0.78213 0.23977 0.5711 0.0
O1092 O 0.77168 0.16048 0.57523 0.0
O1093 O 0.79779 0.18078 0.5719 0.0
C1094 C 0.79088 0.16205 0.56927 0.0
O1095 O 0.77462 0.21783 0.63153 0.0
O1096 O 0.7926 0.19704 0.61118 0.0
O1097 O 0.76652 0.27346 0.61533 0.0
O1098 O 0.74502 0.24706 0.61148 0.0
H1099 H 0.7159 0.24587 0.63835 0.0
H1100 H 0.70263 0.29372 0.68269 0.0
H1101 H 0.75447 0.30077 0.64174 0.0
O1102 O 0.59779 0.97385 0.34235 0.0
Tb1103 Tb 0.58474 1.00416 0.34169 0.0
Eu1104 Eu 0.54572 0.03076 0.35733 0.0
C1105 C 0.60208 0.96463 0.32479 0.0
O1106 O 0.59188 0.97009 0.3081 0.0
C1107 C 0.5525 0.01549 0.30857 0.0
O1108 O 0.534 0.05904 0.37556 0.0
C1109 C 0.52348 0.99951 0.37047 0.0
C1110 C 0.54522 0.07607 0.37866 0.0
O1111 O 0.56258 0.07848 0.36842 0.0
C1112 C 0.58584 0.02228 0.38494 0.0
C1113 C 0.51338 0.98967 0.38896 0.0
C1114 C 0.52329 0.97389 0.40024 0.0
C1115 C 0.51262 0.96345 0.41615 0.0
C1116 C 0.49209 0.96836 0.4204 0.0
C1117 C 0.48254 0.98481 0.41081 0.0
C1118 C 0.49309 0.99537 0.39497 0.0
O1119 O 0.56159 0.99963 0.31707 0.0
O1120 O 0.54791 0.03171 0.3208 0.0
O1121 O 0.61537 1.01124 0.32949 0.0
O1122 O 0.59499 0.03601 0.33558 0.0
C1123 C 0.61337 0.03112 0.32896 0.0
O1124 O 0.57447 0.03721 0.37757 0.0
O1125 O 0.58497 1.00443 0.3753 0.0
O1126 O 0.51558 0.01673 0.36353 0.0
O1127 O 0.54376 0.99887 0.36843 0.0
H1128 H 0.53925 0.97007 0.39704 0.0
H1129 H 0.48436 0.96098 0.4333 0.0
H1130 H 0.48554 1.00819 0.38763 0.0
O1131 O 0.79451 0.84591 0.09885 0.0
Tb1132 Tb 0.76665 0.82783 0.09562 0.0
Eu1133 Eu 0.74085 0.78859 0.10854 0.0
C1134 C 0.8077 0.84802 0.08377 0.0
O1135 O 0.80591 0.83616 0.06712 0.0
C1136 C 0.75892 0.79428 0.06182 0.0
O1137 O 0.7119 0.77633 0.12503 0.0
C1138 C 0.77278 0.76858 0.12253 0.0
C1139 C 0.69623 0.78861 0.12948 0.0
O1140 O 0.69502 0.80642 0.12017 0.0
C1141 C 0.7484 0.82786 0.13788 0.0
C1142 C 0.7842 0.76049 0.14094 0.0
C1143 C 0.80156 0.77131 0.14938 0.0
C1144 C 0.81395 0.76237 0.16484 0.0
C1145 C 0.80919 0.74248 0.17146 0.0
C1146 C 0.79123 0.73198 0.16465 0.0
C1147 C 0.77886 0.74106 0.14919 0.0
O1148 O 0.77373 0.80496 0.07149 0.0
O1149 O 0.74187 0.78919 0.07232 0.0
O1150 O 0.75718 0.8572 0.08308 0.0
O1151 O 0.7341 0.83406 0.08809 0.0
C1152 C 0.73753 0.85284 0.08192 0.0
O1153 O 0.73362 0.81711 0.12861 0.0
O1154 O 0.76651 0.82788 0.12919 0.0
O1155 O 0.75512 0.75963 0.11697 0.0
O1156 O 0.77318 0.78853 0.11911 0.0
H1157 H 0.80539 0.78666 0.1441 0.0
H1158 H 0.81891 0.73573 0.18327 0.0
H1159 H 0.76488 0.73325 0.14382 0.0
O1160 O 0.68379 0.92149 0.97318 0.0
Tb1161 Tb 0.68379 0.93767 1.00275 0.0
Eu1162 Eu 0.67104 0.97863 0.03079 0.0
C1163 C 0.70103 0.91386 0.96582 0.0
O1164 O 0.71876 0.92163 0.97252 0.0
C1165 C 0.71842 0.96952 0.01394 0.0
O1166 O 0.65553 0.9923 0.05994 0.0
C1167 C 0.65725 1.00069 1.00001 0.0
C1168 C 0.64918 0.98079 0.07552 0.0
O1169 O 0.65525 0.96161 0.0765 0.0
C1170 C 0.6417 0.93875 0.02226 0.0
C1171 C 0.63909 1.0117 0.99064 0.0
C1172 C 0.62746 1.00273 0.97388 0.0
C1173 C 0.61243 0.01444 0.96335 0.0
C1174 C 0.61072 0.03541 0.9683 0.0
C1175 C 0.61937 0.04364 0.98646 0.0
C1176 C 0.63386 0.03191 0.99756 0.0
O1177 O 0.70853 0.96046 0.99821 0.0
O1178 O 0.70736 0.97531 0.03052 0.0
O1179 O 0.69445 0.90723 1.01097 0.0
O1180 O 0.69018 0.92936 0.03514 0.0
C1181 C 0.6953 0.91038 0.03085 0.0
O1182 O 0.65051 0.95028 0.03693 0.0
O1183 O 0.65016 0.93868 1.00385 0.0
O1184 O 0.66574 1.00857 0.01704 0.0
O1185 O 0.65792 0.9804 0.99924 0.0
H1186 H 0.62975 0.98676 0.96938 0.0
H1187 H 0.59985 0.04471 0.95971 0.0
H1188 H 0.64079 0.03845 1.01158 0.0
O1189 O 0.18032 0.5989 0.0486 0.0
Tb1190 Tb 0.18383 0.58275 0.01952 0.0
Eu1191 Eu 0.16945 0.54437 0.99376 0.0
C1192 C 0.19413 0.59742 0.06335 0.0
O1193 O 0.20604 0.58119 0.06365 0.0
C1194 C 0.21693 0.55081 1.01038 0.0
O1195 O 0.15276 0.53069 0.96523 0.0
C1196 C 0.15571 0.52374 0.02558 0.0
C1197 C 0.15007 0.54149 0.94824 0.0
O1198 O 0.15995 0.55922 0.94666 0.0
C1199 C 0.14085 0.58366 1.00141 0.0
C1200 C 0.1371 0.5149 0.03639 0.0
C1201 C 0.12755 0.52592 0.0529 0.0
C1202 C 0.11194 0.51646 0.06482 0.0
C1203 C 0.10595 0.49618 0.06032 0.0
C1204 C 0.1133 0.48572 0.04283 0.0
C1205 C 0.12943 0.49479 0.03123 0.0
O1206 O 0.20676 0.55919 0.02594 0.0
O1207 O 0.2059 0.54622 0.99327 0.0
O1208 O 0.20268 0.60965 1.01239 0.0
O1209 O 0.18873 0.59274 0.98729 0.0
C1210 C 0.20055 0.60855 0.99232 0.0
O1211 O 0.14906 0.57229 0.98658 0.0
O1212 O 0.15029 0.58432 0.01934 0.0
O1213 O 0.1616 0.51503 1.00802 0.0
O1214 O 0.15896 0.54384 0.02609 0.0
H1215 H 0.13214 0.54172 0.05646 0.0
H1216 H 0.09375 0.48915 0.06945 0.0
H1217 H 0.13562 0.48639 0.01804 0.0
O1218 O 0.18849 0.42884 0.80541 0.0
Tb1219 Tb 0.1993 0.43057 0.77402 0.0
Eu1220 Eu 0.23514 0.41698 0.74546 0.0
C1221 C 0.18689 0.44588 0.81631 0.0
O1222 O 0.20015 0.46095 0.81284 0.0
C1223 C 0.22996 0.46453 0.76085 0.0
O1224 O 0.24704 0.39807 0.7178 0.0
C1225 C 0.25677 0.40552 0.77778 0.0
C1226 C 0.23665 0.39583 0.70013 0.0
O1227 O 0.22058 0.40753 0.69666 0.0
C1228 C 0.19571 0.38851 0.75361 0.0
C1229 C 0.26712 0.38824 0.78904 0.0
C1230 C 0.2575 0.37829 0.80602 0.0
C1231 C 0.26851 0.36366 0.81767 0.0
C1232 C 0.28922 0.35979 0.813 0.0
C1233 C 0.29835 0.3678 0.79538 0.0
C1234 C 0.28741 0.3822 0.78351 0.0
O1235 O 0.22287 0.45511 0.77735 0.0
O1236 O 0.23301 0.45293 0.74385 0.0
O1237 O 0.16926 0.4448 0.76926 0.0
O1238 O 0.18687 0.43627 0.74283 0.0
C1239 C 0.16953 0.44428 0.74908 0.0
O1240 O 0.20616 0.39722 0.73861 0.0
O1241 O 0.19703 0.39704 0.7721 0.0
O1242 O 0.26498 0.41171 0.76025 0.0
O1243 O 0.23645 0.40698 0.77793 0.0
H1244 H 0.2415 0.38143 0.80977 0.0
H1245 H 0.29735 0.34803 0.82154 0.0
H1246 H 0.29464 0.38831 0.76975 0.0
O1247 O 0.33559 0.42047 0.54332 0.0
Tb1248 Tb 0.34216 0.43626 0.51507 0.0
Eu1249 Eu 0.35544 0.47783 0.49094 0.0
C1250 C 0.35027 0.41581 0.55651 0.0
O1251 O 0.36932 0.42237 0.55371 0.0
C1252 C 0.30777 0.46842 0.50694 0.0
O1253 O 0.37022 0.48856 0.46067 0.0
C1254 C 0.3699 0.50106 0.52156 0.0
C1255 C 0.37271 0.47561 0.44479 0.0
O1256 O 0.36286 0.45778 0.44505 0.0
C1257 C 0.38479 0.43923 0.49864 0.0
C1258 C 0.38816 0.5111 0.53258 0.0
C1259 C 0.39864 0.50094 0.54879 0.0
C1260 C 0.41421 0.51132 0.56056 0.0
C1261 C 0.4192 0.53183 0.55637 0.0
C1262 C 0.41007 0.54192 0.5398 0.0
C1263 C 0.39443 0.53157 0.52797 0.0
O1264 O 0.31674 0.45738 0.52135 0.0
O1265 O 0.31913 0.47546 0.49121 0.0
O1266 O 0.33815 0.40503 0.50265 0.0
O1267 O 0.33206 0.43014 0.48287 0.0
C1268 C 0.33263 0.41009 0.48404 0.0
O1269 O 0.37609 0.45004 0.48399 0.0
O1270 O 0.37568 0.43931 0.51663 0.0
O1271 O 0.36393 0.5083 0.50353 0.0
O1272 O 0.3668 0.48099 0.523 0.0
H1273 H 0.39499 0.48498 0.55209 0.0
H1274 H 0.43202 0.53925 0.56469 0.0
H1275 H 0.38739 0.53943 0.51506 0.0
O1276 O 0.84051 0.09821 0.7901 0.0
Tb1277 Tb 0.82833 0.10254 0.75939 0.0
Eu1278 Eu 0.79071 0.11632 0.73204 0.0
C1279 C 0.84135 0.07966 0.79763 0.0
O1280 O 0.82957 0.06501 0.78942 0.0
C1281 C 0.79769 0.06959 0.74292 0.0
O1282 O 0.77893 0.13372 0.70463 0.0
C1283 C 0.76868 0.12703 0.76426 0.0
C1284 C 0.78987 0.13432 0.68755 0.0
O1285 O 0.80599 0.12234 0.68549 0.0
C1286 C 0.82909 0.14501 0.7425 0.0
C1287 C 0.75984 0.14488 0.7762 0.0
C1288 C 0.77128 0.15489 0.79242 0.0
C1289 C 0.76192 0.17009 0.80501 0.0
C1290 C 0.74126 0.17497 0.80164 0.0
C1291 C 0.73046 0.1673 0.78431 0.0
C1292 C 0.73944 0.15168 0.77196 0.0
O1293 O 0.80428 0.07848 0.76031 0.0
O1294 O 0.79388 0.08143 0.72689 0.0
O1295 O 0.86003 0.09425 0.75135 0.0
O1296 O 0.83709 0.09337 0.72772 0.0
C1297 C 0.85659 0.09046 0.73178 0.0
O1298 O 0.81926 0.13636 0.72675 0.0
O1299 O 0.82796 0.13595 0.76035 0.0
O1300 O 0.76062 0.12236 0.74592 0.0
O1301 O 0.78879 0.12391 0.76521 0.0
H1302 H 0.78739 0.15118 0.79508 0.0
H1303 H 0.73433 0.18703 0.81113 0.0
H1304 H 0.73082 0.14537 0.75879 0.0
O1305 O 0.85365 0.09319 0.47526 0.0
Tb1306 Tb 0.84984 0.07451 0.50202 0.0
Eu1307 Eu 0.86004 0.04056 0.52935 0.0
C1308 C 0.83834 0.09655 0.46258 0.0
O1309 O 0.82127 0.08542 0.46381 0.0
C1310 C 0.81282 0.04728 0.51208 0.0
O1311 O 0.87556 0.02806 0.55845 0.0
C1312 C 0.87254 0.01829 0.49778 0.0
C1313 C 0.87825 0.03962 0.57538 0.0
O1314 O 0.86881 0.05742 0.57664 0.0
C1315 C 0.89202 0.07743 0.52142 0.0
C1316 C 0.89153 1.00965 0.48785 0.0
C1317 C 0.90057 0.01918 0.47035 0.0
C1318 C 0.91804 1.01049 0.46049 0.0
C1319 C 0.926 0.99209 0.46817 0.0
C1320 C 0.91707 0.98222 0.48492 0.0
C1321 C 0.90003 0.99104 0.49496 0.0
O1322 O 0.82322 0.05401 0.49588 0.0
O1323 O 0.8238 0.04364 0.52929 0.0
O1324 O 0.83665 0.10321 0.51231 0.0
O1325 O 0.84451 0.08076 0.53499 0.0
C1326 C 0.83716 0.099 0.53189 0.0
O1327 O 0.88295 0.0673 0.53641 0.0
O1328 O 0.88342 0.07613 0.50306 0.0
O1329 O 0.86653 1.01048 0.51553 0.0
O1330 O 0.86958 0.03827 0.49683 0.0
H1331 H 0.89389 0.03313 0.46437 0.0
H1332 H 0.93996 0.9856 0.46161 0.0
H1333 H 0.89351 0.98339 0.50828 0.0
O1334 O 0.17672 0.59433 0.7346 0.0
Tb1335 Tb 0.19774 0.58993 0.75983 0.0
Eu1336 Eu 0.23847 0.60566 0.7829 0.0
C1337 C 0.17384 0.58089 0.71962 0.0
O1338 O 0.18596 0.56485 0.7179 0.0
C1339 C 0.23066 0.55752 0.76599 0.0
O1340 O 0.2504 0.62173 0.81255 0.0
C1341 C 0.26 0.6208 0.75227 0.0
C1342 C 0.23808 0.62619 0.8283 0.0
O1343 O 0.21988 0.61694 0.82918 0.0
C1344 C 0.19941 0.63354 0.77473 0.0
C1345 C 0.26827 0.63947 0.74119 0.0
C1346 C 0.25669 0.64862 0.72503 0.0
C1347 C 0.26675 0.66187 0.71109 0.0
C1348 C 0.28825 0.66397 0.71237 0.0
C1349 C 0.29849 0.66114 0.73125 0.0
C1350 C 0.28866 0.64737 0.74529 0.0
O1351 O 0.21996 0.56643 0.75126 0.0
O1352 O 0.2367 0.56917 0.78241 0.0
O1353 O 0.16975 0.5747 0.77013 0.0
O1354 O 0.19106 0.58639 0.79307 0.0
C1355 C 0.1732 0.57709 0.78986 0.0
O1356 O 0.21094 0.62657 0.7898 0.0
O1357 O 0.19909 0.62303 0.7574 0.0
O1358 O 0.26826 0.61565 0.77017 0.0
O1359 O 0.24015 0.61601 0.75076 0.0
H1360 H 0.24026 0.64546 0.72327 0.0
H1361 H 0.29613 0.67065 0.69935 0.0
H1362 H 0.2966 0.64266 0.7592 0.0
O1363 O 0.30244 0.46364 0.2261 0.0
Tb1364 Tb 0.31276 0.43163 0.23262 0.0
Eu1365 Eu 0.31848 0.39084 0.26355 0.0
C1366 C 0.29491 0.47627 0.2406 0.0
O1367 O 0.28988 0.46852 0.25859 0.0
C1368 C 0.33705 0.43435 0.27432 0.0
O1369 O 0.33623 0.36338 0.27322 0.0
C1370 C 0.28292 0.39197 0.28195 0.0
C1371 C 0.35453 0.36189 0.26465 0.0
O1372 O 0.35948 0.37505 0.25015 0.0
C1373 C 0.30302 0.3858 0.21726 0.0
C1374 C 0.26686 0.37672 0.28806 0.0
C1375 C 0.24758 0.37508 0.27757 0.0
C1376 C 0.23227 0.36131 0.28465 0.0
C1377 C 0.23633 0.34916 0.30197 0.0
C1378 C 0.25531 0.35063 0.31241 0.0
C1379 C 0.27048 0.3643 0.30541 0.0
O1380 O 0.32047 0.4413 0.26474 0.0
O1381 O 0.34183 0.415 0.27225 0.0
O1382 O 0.33442 0.44063 0.20885 0.0
O1383 O 0.34404 0.41917 0.23121 0.0
C1384 C 0.34982 0.42962 0.21524 0.0
O1385 O 0.31703 0.37976 0.23056 0.0
O1386 O 0.29504 0.40472 0.21875 0.0
O1387 O 0.30076 0.3909 0.29178 0.0
O1388 O 0.28496 0.39588 0.26211 0.0
H1389 H 0.24439 0.38462 0.26431 0.0
H1390 H 0.22449 0.33861 0.30753 0.0
H1391 H 0.28486 0.36574 0.31412 0.0
O1392 O 0.55116 0.84665 0.59702 0.0
Tb1393 Tb 0.52157 0.84508 0.58169 0.0
Eu1394 Eu 0.49346 0.85663 0.5442 0.0
C1395 C 0.55978 0.8294 0.60213 0.0
O1396 O 0.55329 0.81227 0.59288 0.0
C1397 C 0.51088 0.80946 0.55112 0.0
O1398 O 0.46419 0.87279 0.53209 0.0
C1399 C 0.52458 0.87105 0.52252 0.0
C1400 C 0.44928 0.87928 0.54462 0.0
O1401 O 0.44859 0.87237 0.56364 0.0
C1402 C 0.5029 0.88693 0.58245 0.0
C1403 C 0.53504 0.89019 0.51439 0.0
C1404 C 0.55353 0.8981 0.52392 0.0
C1405 C 0.56474 0.91466 0.51505 0.0
C1406 C 0.55723 0.92301 0.49666 0.0
C1407 C 0.53866 0.91645 0.48742 0.0
C1408 C 0.52772 0.89969 0.49605 0.0
O1409 O 0.5268 0.81953 0.55953 0.0
O1410 O 0.49385 0.82031 0.54679 0.0
O1411 O 0.51287 0.83456 0.61245 0.0
O1412 O 0.48924 0.83769 0.58969 0.0
C1413 C 0.49311 0.83276 0.60884 0.0
O1414 O 0.48766 0.87705 0.5729 0.0
O1415 O 0.52116 0.87863 0.58154 0.0
O1416 O 0.5067 0.86508 0.51433 0.0
O1417 O 0.52584 0.86725 0.54246 0.0
H1418 H 0.5594 0.89107 0.53786 0.0
H1419 H 0.56565 0.93559 0.4896 0.0
H1420 H 0.51358 0.8942 0.48857 0.0
O1421 O 0.43472 0.30111 0.84449 0.0
Tb1422 Tb 0.43222 0.27052 0.8315 0.0
Eu1423 Eu 0.41851 0.24185 0.79541 0.0
C1424 C 0.45303 0.30946 0.84743 0.0
O1425 O 0.46863 0.30278 0.83635 0.0
C1426 C 0.46586 0.25939 0.79994 0.0
O1427 O 0.40218 0.21242 0.7835 0.0
C1428 C 0.40385 0.27216 0.7736 0.0
C1429 C 0.39742 0.19705 0.79594 0.0
O1430 O 0.40587 0.19679 0.81452 0.0
C1431 C 0.39064 0.25103 0.83511 0.0
C1432 C 0.38564 0.28289 0.76414 0.0
C1433 C 0.37531 0.2992 0.77474 0.0
C1434 C 0.36183 0.31227 0.7637 0.0
C1435 C 0.3608 0.30984 0.74211 0.0
C1436 C 0.36643 0.29139 0.73236 0.0
C1437 C 0.37962 0.27814 0.74336 0.0
O1438 O 0.45596 0.2753 0.8078 0.0
O1439 O 0.45482 0.24211 0.79643 0.0
O1440 O 0.44269 0.26191 0.86247 0.0
O1441 O 0.4416 0.23892 0.83869 0.0
C1442 C 0.44594 0.24257 0.85818 0.0
O1443 O 0.39961 0.23601 0.82477 0.0
O1444 O 0.39863 0.26948 0.83328 0.0
O1445 O 0.40968 0.2544 0.7655 0.0
O1446 O 0.40742 0.2737 0.79368 0.0
H1447 H 0.37774 0.30149 0.79124 0.0
H1448 H 0.3529 0.32134 0.73309 0.0
H1449 H 0.3852 0.26421 0.73599 0.0
O1450 O 0.98444 0.18185 0.10545 0.0
Tb1451 Tb 1.01078 0.18367 0.08571 0.0
Eu1452 Eu 0.03375 0.16992 0.04577 0.0
C1453 C 0.9657 0.18768 0.10083 0.0
O1454 O 0.96183 0.19632 0.08296 0.0
C1455 C 0.01736 0.21766 0.05372 0.0
O1456 O 0.0622 0.15312 0.03308 0.0
C1457 C 1.00205 0.15503 0.02449 0.0
C1458 C 0.07913 0.15011 0.04431 0.0
O1459 O 0.08174 0.16071 0.0617 0.0
C1460 C 0.02728 0.14083 0.0844 0.0
C1461 C 0.99147 0.13614 0.01524 0.0
C1462 C 0.97502 0.12609 0.02583 0.0
C1463 C 0.96356 0.10998 0.01595 0.0
C1464 C 0.96797 0.1046 0.99544 0.0
C1465 C 0.98538 0.1124 0.9855 0.0
C1466 C 0.99691 0.12859 0.99514 0.0
O1467 O 1.00273 0.20838 0.06448 0.0
O1468 O 0.03354 0.20634 0.04756 0.0
O1469 O 0.02171 0.19576 0.11549 0.0
O1470 O 0.04371 0.19111 0.09142 0.0
C1471 C 0.04114 0.19709 0.11065 0.0
O1472 O 0.04191 0.14959 0.07343 0.0
O1473 O 1.00951 0.15013 0.08501 0.0
O1474 O 0.01939 0.16159 0.01601 0.0
O1475 O 1.00165 0.15822 0.04473 0.0
H1476 H 0.97139 0.13047 0.04168 0.0
H1477 H 0.95917 0.09213 0.98795 0.0
H1478 H 1.01021 0.13494 0.9872 0.0
O1479 O 0.09814 0.72502 0.3384 0.0
Tb1480 Tb 0.0939 0.75503 0.32576 0.0
Eu1481 Eu 0.1062 0.78443 0.29005 0.0
C1482 C 0.08208 0.71368 0.34304 0.0
O1483 O 0.06417 0.71772 0.33429 0.0
C1484 C 0.05909 0.76655 0.29575 0.0
O1485 O 0.12251 0.8139 0.27897 0.0
C1486 C 0.11965 0.75367 0.26712 0.0
C1487 C 0.12801 0.82916 0.2919 0.0
O1488 O 0.12013 0.8295 0.31064 0.0
C1489 C 0.13583 0.775 0.32841 0.0
C1490 C 0.13826 0.74244 0.25897 0.0
C1491 C 0.14708 0.72617 0.2704 0.0
C1492 C 0.16299 0.71409 0.26181 0.0
C1493 C 0.17012 0.71824 0.24196 0.0
C1494 C 0.16304 0.73509 0.23094 0.0
C1495 C 0.14669 0.74696 0.23919 0.0
O1496 O 0.06923 0.75052 0.30266 0.0
O1497 O 0.06992 0.78397 0.29275 0.0
O1498 O 0.07965 0.76047 0.35583 0.0
O1499 O 0.08918 0.78634 0.33825 0.0
C1500 C 0.08096 0.78049 0.35564 0.0
O1501 O 0.12683 0.79011 0.31866 0.0
O1502 O 0.12749 0.75666 0.32626 0.0
O1503 O 0.11522 0.7719 0.25967 0.0
O1504 O 0.11508 0.7521 0.2869 0.0
H1505 H 0.14178 0.72297 0.28595 0.0
H1506 H 0.18289 0.70933 0.23578 0.0
H1507 H 0.14099 0.75989 0.23051 0.0
O1508 O 0.55146 0.1844 0.92894 0.0
Tb1509 Tb 0.52179 0.18305 0.94373 0.0
Eu1510 Eu 0.49673 0.16816 0.98348 0.0
C1511 C 0.55871 0.20227 0.92326 0.0
O1512 O 0.55049 0.219 0.93127 0.0
C1513 C 0.51241 0.21641 0.97656 0.0
O1514 O 0.46788 0.15099 0.99577 0.0
C1515 C 0.5289 0.15474 1.00424 0.0
C1516 C 0.45174 0.1466 0.98354 0.0
O1517 O 0.45048 0.15594 0.96566 0.0
C1518 C 0.50433 0.14003 0.94322 0.0
C1519 C 0.53942 0.13674 0.01432 0.0
C1520 C 0.55508 0.125 1.00419 0.0
C1521 C 0.56622 0.10989 0.01528 0.0
C1522 C 0.56276 0.10789 0.03655 0.0
C1523 C 0.546 0.11723 0.04607 0.0
C1524 C 0.53449 0.13182 0.03507 0.0
O1525 O 0.52789 0.20763 0.96676 0.0
O1526 O 0.49607 0.20453 0.98148 0.0
O1527 O 0.51228 0.19215 0.91276 0.0
O1528 O 0.48957 0.1915 0.93632 0.0
C1529 C 0.4929 0.1952 0.91678 0.0
O1530 O 0.48963 0.14783 0.95484 0.0
O1531 O 0.52219 0.14964 0.94335 0.0
O1532 O 0.51199 0.162 0.01292 0.0
O1533 O 0.52866 0.15635 0.98392 0.0
H1534 H 0.55822 0.12722 0.98789 0.0
H1535 H 0.57133 0.09646 0.04511 0.0
H1536 H 0.52149 0.13906 0.0427 0.0
O1537 O 0.10003 0.30603 0.18462 0.0
Tb1538 Tb 0.09824 0.27585 0.19795 0.0
Eu1539 Eu 0.10987 0.24638 0.23482 0.0
C1540 C 0.08422 0.31838 0.18546 0.0
O1541 O 0.07065 0.31606 0.20035 0.0
C1542 C 0.06259 0.26319 0.22696 0.0
O1543 O 0.12716 0.21775 0.24616 0.0
C1544 C 0.12191 0.27674 0.25946 0.0
C1545 C 0.13053 0.20135 0.23416 0.0
O1546 O 0.12105 0.19985 0.2161 0.0
C1547 C 0.14061 0.25707 0.19756 0.0
C1548 C 0.13991 0.28646 0.27094 0.0
C1549 C 0.14812 0.30573 0.2647 0.0
C1550 C 0.16355 0.3159 0.27672 0.0
C1551 C 0.17083 0.30684 0.29491 0.0
C1552 C 0.16364 0.28758 0.30106 0.0
C1553 C 0.14811 0.2774 0.28907 0.0
O1554 O 0.07252 0.27943 0.21977 0.0
O1555 O 0.07356 0.24619 0.2306 0.0
O1556 O 0.08658 0.26792 0.16691 0.0
O1557 O 0.09233 0.2438 0.18805 0.0
C1558 C 0.08611 0.24804 0.16935 0.0
O1559 O 0.13152 0.24163 0.20709 0.0
O1560 O 0.13189 0.27513 0.19896 0.0
O1561 O 0.11471 0.25892 0.26601 0.0
O1562 O 0.12086 0.27839 0.23914 0.0
H1563 H 0.14248 0.31284 0.25069 0.0
H1564 H 0.18339 0.31426 0.30364 0.0
H1565 H 0.1426 0.26237 0.29385 0.0
O1566 O 0.98321 0.84602 0.42482 0.0
Tb1567 Tb 1.01104 0.84405 0.44257 0.0
Eu1568 Eu 0.03589 0.85748 0.48039 0.0
C1569 C 0.96514 0.84042 0.43185 0.0
O1570 O 0.96331 0.83458 0.45117 0.0
C1571 C 0.01921 0.80991 0.47351 0.0
O1572 O 0.06477 0.87414 0.49344 0.0
C1573 C 1.00439 0.87039 0.50215 0.0
C1574 C 0.08137 0.87723 0.48189 0.0
O1575 O 0.08254 0.86731 0.464 0.0
C1576 C 0.02848 0.88699 0.44171 0.0
C1577 C 0.99384 0.88808 0.51289 0.0
C1578 C 0.97831 0.89981 0.50292 0.0
C1579 C 0.96664 0.91432 0.51451 0.0
C1580 C 0.96934 0.91537 0.53605 0.0
C1581 C 0.98656 0.90679 0.54536 0.0
C1582 C 0.99864 0.89279 0.53395 0.0
O1583 O 1.00382 0.81954 0.46448 0.0
O1584 O 0.03615 0.82122 0.47814 0.0
O1585 O 0.01948 0.8281 0.41412 0.0
O1586 O 0.04362 0.83917 0.43434 0.0
C1587 C 0.03938 0.82976 0.41675 0.0
O1588 O 0.04307 0.87885 0.45319 0.0
O1589 O 1.01057 0.87747 0.44119 0.0
O1590 O 0.02174 0.86364 0.51032 0.0
O1591 O 1.00388 0.86869 0.48176 0.0
H1592 H 0.97579 0.89808 0.48636 0.0
H1593 H 0.96008 0.92595 0.54522 0.0
H1594 H 1.01192 0.88596 0.5414 0.0
O1595 O 0.43413 0.72825 0.68059 0.0
Tb1596 Tb 0.43386 0.75832 0.69487 0.0
Eu1597 Eu 0.42161 0.78621 0.73159 0.0
C1598 C 0.45173 0.71902 0.67779 0.0
O1599 O 0.46809 0.72562 0.68826 0.0
C1600 C 0.46898 0.77004 0.72522 0.0
O1601 O 0.40398 0.81479 0.74327 0.0
C1602 C 0.40955 0.75489 0.75397 0.0
C1603 C 0.39934 0.83004 0.73065 0.0
O1604 O 0.40899 0.83092 0.7128 0.0
C1605 C 0.39135 0.77592 0.69301 0.0
C1606 C 0.39145 0.7438 0.76354 0.0
C1607 C 0.3803 0.72819 0.75244 0.0
C1608 C 0.36399 0.71727 0.76196 0.0
C1609 C 0.35818 0.72276 0.78213 0.0
C1610 C 0.36917 0.73766 0.79404 0.0
C1611 C 0.38632 0.74762 0.7846 0.0
O1612 O 0.45888 0.75383 0.71759 0.0
O1613 O 0.45799 0.78713 0.72867 0.0
O1614 O 0.44429 0.76705 0.66401 0.0
O1615 O 0.44129 0.79049 0.68721 0.0
C1616 C 0.44593 0.78674 0.66789 0.0
O1617 O 0.40029 0.79124 0.70343 0.0
O1618 O 0.40018 0.75797 0.69402 0.0
O1619 O 0.41516 0.77301 0.76187 0.0
O1620 O 0.41199 0.75376 0.73372 0.0
H1621 H 0.38437 0.72439 0.73657 0.0
H1622 H 0.34426 0.71562 0.78815 0.0
H1623 H 0.39606 0.75815 0.79353 0.0
O1624 O 0.6052 0.54201 0.8436 0.0
Tb1625 Tb 0.58504 0.51556 0.84227 0.0
Eu1626 Eu 0.54431 0.49139 0.85626 0.0
C1627 C 0.60076 0.56014 0.83642 0.0
O1628 O 0.58267 0.56321 0.82764 0.0
C1629 C 0.55253 0.50736 0.80805 0.0
O1630 O 0.53225 0.46302 0.8739 0.0
C1631 C 0.52249 0.52257 0.86985 0.0
C1632 C 0.54367 0.44661 0.87775 0.0
O1633 O 0.56137 0.44435 0.8681 0.0
C1634 C 0.58382 0.49966 0.8855 0.0
C1635 C 0.51275 0.53255 0.8886 0.0
C1636 C 0.52427 0.54608 0.90201 0.0
C1637 C 0.51466 0.55567 0.9192 0.0
C1638 C 0.49364 0.55177 0.92271 0.0
C1639 C 0.48142 0.53944 0.9094 0.0
C1640 C 0.49122 0.52966 0.89235 0.0
O1641 O 0.56334 0.52238 0.81715 0.0
O1642 O 0.54672 0.49117 0.81955 0.0
O1643 O 0.61463 0.50479 0.83116 0.0
O1644 O 0.59053 0.48262 0.83604 0.0
C1645 C 0.60976 0.48535 0.83049 0.0
O1646 O 0.57186 0.48489 0.87773 0.0
O1647 O 0.58434 0.51715 0.87581 0.0
O1648 O 0.5143 0.50507 0.86281 0.0
O1649 O 0.54279 0.52338 0.86777 0.0
H1650 H 0.54059 0.54892 0.89929 0.0
H1651 H 0.48682 0.55828 0.93658 0.0
H1652 H 0.48209 0.51987 0.88193 0.0
O1653 O 0.72776 0.34609 0.09702 0.0
Tb1654 Tb 0.75665 0.33034 0.0938 0.0
Eu1655 Eu 0.78511 0.2935 0.10652 0.0
C1656 C 0.71385 0.34507 0.08225 0.0
O1657 O 0.71441 0.32969 0.06877 0.0
C1658 C 0.76623 0.29917 0.05937 0.0
O1659 O 0.81528 0.28293 0.12204 0.0
C1660 C 0.75527 0.26996 0.12072 0.0
C1661 C 0.83028 0.29602 0.12784 0.0
O1662 O 0.83002 0.31485 0.12066 0.0
C1663 C 0.77531 0.33226 0.13658 0.0
C1664 C 0.74451 0.26091 0.13919 0.0
C1665 C 0.72676 0.27063 0.14746 0.0
C1666 C 0.71471 0.26091 0.16268 0.0
C1667 C 0.72033 0.24156 0.16966 0.0
C1668 C 0.73905 0.23264 0.16383 0.0
C1669 C 0.75082 0.24194 0.14794 0.0
O1670 O 0.75064 0.30666 0.07006 0.0
O1671 O 0.78368 0.29515 0.0699 0.0
O1672 O 0.76414 0.35757 0.076 0.0
O1673 O 0.78894 0.34017 0.08841 0.0
C1674 C 0.78415 0.35621 0.07752 0.0
O1675 O 0.79048 0.32213 0.12766 0.0
O1676 O 0.75723 0.33154 0.12748 0.0
O1677 O 0.77356 0.26298 0.11532 0.0
O1678 O 0.75312 0.28974 0.11698 0.0
H1679 H 0.72231 0.28573 0.14218 0.0
H1680 H 0.71107 0.23436 0.18161 0.0
H1681 H 0.76495 0.23469 0.14278 0.0
O1682 O 0.93769 0.47136 0.34229 0.0
Tb1683 Tb 0.95312 0.50042 0.34854 0.0
Eu1684 Eu 0.9843 0.53282 0.35849 0.0
C1685 C 0.93061 0.46822 0.3234 0.0
O1686 O 0.93916 0.47854 0.30825 0.0
C1687 C 0.97913 0.51533 0.31127 0.0
O1688 O 0.99576 0.56291 0.37407 0.0
C1689 C 1.0076 0.5026 0.37077 0.0
C1690 C 0.98279 0.57737 0.38034 0.0
O1691 O 0.96343 0.57628 0.37395 0.0
C1692 C 0.94838 0.52083 0.39017 0.0
C1693 C 1.0144 0.49074 0.38924 0.0
C1694 C 1.002 0.4744 0.39694 0.0
C1695 C 1.00937 0.46211 0.41311 0.0
C1696 C 0.02888 0.46612 0.42165 0.0
C1697 C 0.04077 0.4829 0.41536 0.0
C1698 C 0.03382 0.49501 0.39883 0.0
O1699 O 0.97409 0.49848 0.32153 0.0
O1700 O 0.98153 0.53283 0.3223 0.0
O1701 O 0.92161 0.50937 0.34224 0.0
O1702 O 0.9455 0.53214 0.3408 0.0
C1703 C 0.92576 0.52865 0.33915 0.0
O1704 O 0.95631 0.53639 0.37998 0.0
O1705 O 0.95169 0.50223 0.38253 0.0
O1706 O 1.01458 0.5216 0.36852 0.0
O1707 O 0.98835 0.50016 0.3645 0.0
H1708 H 0.98664 0.47134 0.39064 0.0
H1709 H 0.03407 0.4572 0.43479 0.0
H1710 H 0.04319 0.50799 0.39392 0.0
O1711 O 0.79451 0.68529 0.60839 0.0
Tb1712 Tb 0.76401 0.69595 0.59998 0.0
Eu1713 Eu 0.75534 0.74588 0.61387 0.0
C1714 C 0.80945 0.6869 0.59495 0.0
O1715 O 0.80899 0.70242 0.58214 0.0
C1716 C 0.76351 0.72998 0.56357 0.0
O1717 O 0.72403 0.7527 0.6299 0.0
C1718 C 0.78205 0.7724 0.63082 0.0
C1719 C 0.71039 0.73863 0.6362 0.0
O1720 O 0.71271 0.71937 0.63016 0.0
C1721 C 0.7529 0.70976 0.64826 0.0
C1722 C 0.79144 0.78081 0.65087 0.0
C1723 C 0.80413 0.76801 0.66298 0.0
C1724 C 0.81505 0.77596 0.6803 0.0
C1725 C 0.81289 0.79664 0.68617 0.0
C1726 C 0.80086 0.81025 0.67455 0.0
C1727 C 0.78989 0.80211 0.65688 0.0
O1728 O 0.76793 0.71123 0.56998 0.0
O1729 O 0.75715 0.74485 0.57696 0.0
O1730 O 0.75911 0.6635 0.59217 0.0
O1731 O 0.73287 0.68231 0.59703 0.0
C1732 C 0.73902 0.66377 0.59231 0.0
O1733 O 0.75753 0.7137 0.6288 0.0
O1734 O 0.75755 0.71401 0.62865 0.0
O1735 O 0.76292 0.77715 0.62594 0.0
O1736 O 0.78665 0.75349 0.62484 0.0
H1737 H 0.80598 0.75191 0.65872 0.0
H1738 H 0.82095 0.80224 0.70003 0.0
H1739 H 0.78084 0.81239 0.64747 0.0
O1740 O 0.5977 0.47736 0.67713 0.0
Tb1741 Tb 0.58092 0.5058 0.67727 0.0
Eu1742 Eu 0.54407 0.53378 0.66773 0.0
C1743 C 0.59694 0.46471 0.69267 0.0
O1744 O 0.58192 0.4662 0.70619 0.0
C1745 C 0.55198 0.51553 0.71454 0.0
O1746 O 0.53301 0.56351 0.65241 0.0
C1747 C 0.52111 0.50328 0.65302 0.0
C1748 C 0.54602 0.57894 0.64854 0.0
O1749 O 0.56417 0.57916 0.65789 0.0
C1750 C 0.58086 0.52527 0.63597 0.0
C1751 C 0.51216 0.49179 0.63453 0.0
C1752 C 0.52271 0.4748 0.62558 0.0
C1753 C 0.51251 0.4615 0.61116 0.0
C1754 C 0.49187 0.46495 0.60621 0.0
C1755 C 0.48259 0.48365 0.61136 0.0
C1756 C 0.4923 0.49665 0.62646 0.0
O1757 O 0.56044 0.50033 0.70376 0.0
O1758 O 0.54642 0.53244 0.70425 0.0
O1759 O 0.61183 0.51694 0.68585 0.0
O1760 O 0.58693 0.5381 0.68618 0.0
C1761 C 0.60671 0.53598 0.68924 0.0
O1762 O 0.57202 0.54012 0.64667 0.0
O1763 O 0.57942 0.50676 0.64353 0.0
O1764 O 0.51368 0.52146 0.65821 0.0
O1765 O 0.54099 0.50162 0.65725 0.0
H1766 H 0.53868 0.47187 0.62972 0.0
H1767 H 0.48399 0.45428 0.59556 0.0
H1768 H 0.48464 0.51058 0.6316 0.0
O1769 O 0.78751 0.35675 0.9373 0.0
Tb1770 Tb 0.7623 0.33568 0.93267 0.0
Eu1771 Eu 0.74239 0.2941 0.91694 0.0
C1772 C 0.8068 0.35151 0.93474 0.0
O1773 O 0.81196 0.33214 0.93206 0.0
C1774 C 0.7575 0.3025 0.96605 0.0
O1775 O 0.71307 0.2816 0.90047 0.0
C1776 C 0.7739 0.27339 0.90239 0.0
C1777 C 0.69722 0.29368 0.89625 0.0
O1778 O 0.69633 0.3118 0.9056 0.0
C1779 C 0.74996 0.33322 0.88835 0.0
C1780 C 0.78524 0.26527 0.88366 0.0
C1781 C 0.80312 0.27574 0.87632 0.0
C1782 C 0.81537 0.26697 0.86044 0.0
C1783 C 0.80983 0.24768 0.85215 0.0
C1784 C 0.79127 0.23788 0.85748 0.0
C1785 C 0.77927 0.24634 0.87374 0.0
O1786 O 0.77087 0.31567 0.95818 0.0
O1787 O 0.74236 0.29474 0.9537 0.0
O1788 O 0.74742 0.36478 0.93934 0.0
O1789 O 0.72902 0.33738 0.93962 0.0
C1790 C 0.72888 0.35741 0.94186 0.0
O1791 O 0.73519 0.32145 0.8958 0.0
O1792 O 0.76687 0.33475 0.89941 0.0
O1793 O 0.75604 0.2648 0.90736 0.0
O1794 O 0.77476 0.2933 0.90683 0.0
H1795 H 0.80745 0.29073 0.88276 0.0
H1796 H 0.8192 0.24108 0.83985 0.0
H1797 H 0.7652 0.23842 0.87834 0.0
O1798 O 0.92255 0.54602 0.18309 0.0
Tb1799 Tb 0.94232 0.51947 0.18292 0.0
Eu1800 Eu 0.98267 0.49379 0.16951 0.0
C1801 C 0.9255 0.56173 0.19578 0.0
O1802 O 0.94278 0.56322 0.20652 0.0
C1803 C 0.97432 0.51055 0.2173 0.0
O1804 O 0.99575 0.46443 0.15415 0.0
C1805 C 1.00437 0.52513 0.15584 0.0
C1806 C 0.98367 0.44887 0.14772 0.0
O1807 O 0.96426 0.44829 0.15361 0.0
C1808 C 0.94324 0.5015 0.13995 0.0
C1809 C 1.01334 0.53615 0.13749 0.0
C1810 C 1.00244 0.55243 0.12799 0.0
C1811 C 1.01234 0.56491 0.11323 0.0
C1812 C 0.03307 0.56164 0.10862 0.0
C1813 C 0.04323 0.54397 0.11506 0.0
C1814 C 0.03354 0.5315 0.13014 0.0
O1815 O 0.96526 0.52576 0.20746 0.0
O1816 O 0.98017 0.49415 0.20597 0.0
O1817 O 0.91392 0.50878 0.19713 0.0
O1818 O 0.9359 0.48646 0.18759 0.0
C1819 C 0.91775 0.48924 0.19583 0.0
O1820 O 0.95462 0.48711 0.14832 0.0
O1821 O 0.94289 0.51954 0.14927 0.0
O1822 O 1.01258 0.50761 0.16153 0.0
O1823 O 0.98428 0.52582 0.15917 0.0
H1824 H 0.98643 0.55531 0.1319 0.0
H1825 H 0.04057 0.5718 0.09766 0.0
H1826 H 0.04146 0.5181 0.13585 0.0
O1827 O 0.73206 0.67982 0.43015 0.0
Tb1828 Tb 0.76122 0.69565 0.43351 0.0
Eu1829 Eu 0.78674 0.73421 0.42094 0.0
C1830 C 0.71757 0.68063 0.44416 0.0
O1831 O 0.7194 0.6937 0.45986 0.0
C1832 C 0.77114 0.72722 0.46946 0.0
O1833 O 0.81525 0.74583 0.40337 0.0
C1834 C 0.75569 0.75568 0.40687 0.0
C1835 C 0.83196 0.7346 0.4002 0.0
O1836 O 0.83458 0.71783 0.411 0.0
C1837 C 0.77815 0.69581 0.39027 0.0
C1838 C 0.74457 0.76392 0.38816 0.0
C1839 C 0.72734 0.75301 0.37941 0.0
C1840 C 0.71474 0.76224 0.3643 0.0
C1841 C 0.71925 0.78221 0.35808 0.0
C1842 C 0.73753 0.79243 0.36421 0.0
C1843 C 0.74996 0.78347 0.37981 0.0
O1844 O 0.75606 0.71677 0.45994 0.0
O1845 O 0.78721 0.73347 0.45784 0.0
O1846 O 0.76875 0.66537 0.44496 0.0
O1847 O 0.79343 0.68589 0.43702 0.0
C1848 C 0.78873 0.66745 0.44344 0.0
O1849 O 0.79332 0.70655 0.3991 0.0
O1850 O 0.76038 0.69569 0.39979 0.0
O1851 O 0.77374 0.76387 0.41233 0.0
O1852 O 0.75432 0.73583 0.41083 0.0
H1853 H 0.7236 0.73753 0.38437 0.0
H1854 H 0.70919 0.78913 0.34664 0.0
H1855 H 0.76387 0.79143 0.3852 0.0
O1856 O 0.82985 0.60728 0.5392 0.0
Tb1857 Tb 0.84332 0.58638 0.51708 0.0
Eu1858 Eu 0.85913 0.5438 0.49473 0.0
C1859 C 0.83577 0.60977 0.55856 0.0
O1860 O 0.85008 0.59786 0.56632 0.0
C1861 C 0.81052 0.55215 0.50954 0.0
O1862 O 0.87718 0.53098 0.4665 0.0
C1863 C 0.8718 0.52216 0.52613 0.0
C1864 C 0.88284 0.54208 0.45029 0.0
O1865 O 0.87494 0.56049 0.44808 0.0
C1866 C 0.88782 0.58358 0.50602 0.0
C1867 C 0.89056 0.51356 0.53666 0.0
C1868 C 0.90019 0.52446 0.55341 0.0
C1869 C 0.91637 0.51548 0.56478 0.0
C1870 C 0.92291 0.49571 0.55944 0.0
C1871 C 0.91505 0.48525 0.54192 0.0
C1872 C 0.8984 0.49392 0.53086 0.0
O1873 O 0.81913 0.56385 0.52415 0.0
O1874 O 0.82245 0.54543 0.49386 0.0
O1875 O 0.84302 0.61506 0.50037 0.0
O1876 O 0.83498 0.58738 0.48401 0.0
C1877 C 0.83745 0.60731 0.48251 0.0
O1878 O 0.88077 0.57176 0.49059 0.0
O1879 O 0.87639 0.58524 0.5227 0.0
O1880 O 0.866 0.51398 0.50815 0.0
O1881 O 0.86868 0.54219 0.52732 0.0
H1882 H 0.8953 0.5399 0.55755 0.0
H1883 H 0.93559 0.48907 0.56811 0.0
H1884 H 0.89192 0.48559 0.51757 0.0
O1885 O 0.35115 0.92577 0.48071 0.0
Tb1886 Tb 0.34589 0.94328 0.5085 0.0
Eu1887 Eu 0.35961 0.98244 0.53393 0.0
C1888 C 0.33751 0.92411 0.46581 0.0
O1889 O 0.32133 0.93618 0.46584 0.0
C1890 C 0.31161 0.9746 0.5176 0.0
O1891 O 0.37597 0.99497 0.56332 0.0
C1892 C 0.3729 1.00416 0.50266 0.0
C1893 C 0.37911 0.98299 0.57945 0.0
O1894 O 0.36899 0.96531 0.58 0.0
C1895 C 0.38907 0.94404 0.52581 0.0
C1896 C 0.39062 0.01481 0.49191 0.0
C1897 C 0.40203 1.00506 0.47572 0.0
C1898 C 0.41619 0.01666 0.46352 0.0
C1899 C 0.41707 0.03814 0.46681 0.0
C1900 C 0.40937 0.04707 0.48489 0.0
C1901 C 0.39561 0.03558 0.49712 0.0
O1902 O 0.3207 0.9648 0.50212 0.0
O1903 O 0.32317 0.97962 0.53431 0.0
O1904 O 0.33224 0.91369 0.51633 0.0
O1905 O 0.3425 0.93388 0.54089 0.0
C1906 C 0.33445 0.91578 0.53632 0.0
O1907 O 0.38106 0.95538 0.54072 0.0
O1908 O 0.37949 0.94389 0.50794 0.0
O1909 O 0.36612 0.01225 0.52019 0.0
O1910 O 0.37106 0.98392 0.50185 0.0
H1911 H 0.40015 0.98864 0.47315 0.0
H1912 H 0.42675 0.0477 0.4571 0.0
H1913 H 0.38931 0.04273 0.51098 0.0
O1914 O 0.35121 0.09836 0.73306 0.0
Tb1915 Tb 0.33259 0.09432 0.76007 0.0
Eu1916 Eu 0.29316 0.10623 0.78656 0.0
C1917 C 0.35088 0.08547 0.71734 0.0
O1918 O 0.33698 0.0705 0.71666 0.0
C1919 C 0.30145 0.05892 0.76778 0.0
O1920 O 0.28221 0.12315 0.81632 0.0
C1921 C 0.27077 0.12036 0.75596 0.0
C1922 C 0.295 0.12872 0.83174 0.0
O1923 O 0.31337 0.12026 0.83246 0.0
C1924 C 0.33091 0.13654 0.77768 0.0
C1925 C 0.26254 0.13923 0.74551 0.0
C1926 C 0.27378 0.14878 0.7293 0.0
C1927 C 0.2647 0.16453 0.71761 0.0
C1928 C 0.24449 0.17042 0.72182 0.0
C1929 C 0.2339 0.16325 0.73916 0.0
C1930 C 0.24275 0.14715 0.75071 0.0
O1931 O 0.31113 0.06881 0.75287 0.0
O1932 O 0.29587 0.06979 0.78478 0.0
O1933 O 0.36293 0.0839 0.76977 0.0
O1934 O 0.34009 0.08918 0.7929 0.0
C1935 C 0.35922 0.08386 0.78953 0.0
O1936 O 0.32121 0.1274 0.79286 0.0
O1937 O 0.32981 0.12747 0.75956 0.0
O1938 O 0.26298 0.11494 0.77394 0.0
O1939 O 0.2906 0.11622 0.75436 0.0
H1940 H 0.28944 0.1441 0.72582 0.0
H1941 H 0.23768 0.18238 0.71246 0.0
H1942 H 0.23453 0.1411 0.76391 0.0
O1943 O 0.17865 0.10945 0.98688 0.0
Tb1944 Tb 0.18231 0.08721 1.01065 0.0
Eu1945 Eu 0.16819 0.04619 0.03062 0.0
C1946 C 0.19054 0.11042 0.97068 0.0
O1947 O 0.2037 0.09563 0.96663 0.0
C1948 C 0.21632 0.05531 0.0149 0.0
O1949 O 0.1514 0.03203 0.05831 0.0
C1950 C 0.15347 0.02626 0.99779 0.0
C1951 C 0.14949 0.04164 0.07647 0.0
O1952 O 0.16058 0.05839 0.08037 0.0
C1953 C 0.1391 0.08486 0.02647 0.0
C1954 C 0.13539 0.01535 0.9871 0.0
C1955 C 0.12335 0.02466 0.9712 0.0
C1956 C 0.10931 0.0124 0.95894 0.0
C1957 C 0.10986 0.99096 0.96095 0.0
C1958 C 0.11733 0.98252 0.97911 0.0
C1959 C 0.13069 0.99455 0.99194 0.0
O1960 O 0.20675 0.06623 1.00077 0.0
O1961 O 0.20492 0.04862 0.03085 0.0
O1962 O 0.19793 0.11465 0.02241 0.0
O1963 O 0.1875 0.09266 0.04421 0.0
C1964 C 0.1965 0.11065 0.04195 0.0
O1965 O 0.14766 0.07326 0.04056 0.0
O1966 O 0.14878 0.08649 1.00893 0.0
O1967 O 0.16194 0.01736 0.01393 0.0
O1968 O 0.1545 0.04654 0.99905 0.0
H1969 H 0.12459 0.0411 0.96872 0.0
H1970 H 0.10059 0.98121 0.95056 0.0
H1971 H 0.13715 0.9877 1.00571 0.0
O1972 O 0.68233 0.42937 0.72398 0.0
Tb1973 Tb 0.6968 0.43003 0.75418 0.0
Eu1974 Eu 0.73197 0.42225 0.78593 0.0
C1975 C 0.68064 0.44639 0.71358 0.0
O1976 O 0.69342 0.46176 0.71779 0.0
C1977 C 0.72506 0.46759 0.7657 0.0
O1978 O 0.74334 0.40528 0.81489 0.0
C1979 C 0.75583 0.40902 0.75603 0.0
C1980 C 0.73147 0.4003 0.83082 0.0
O1981 O 0.71325 0.40888 0.8328 0.0
C1982 C 0.6958 0.38985 0.77537 0.0
C1983 C 0.7644 0.39019 0.74558 0.0
C1984 C 0.7531 0.38028 0.72929 0.0
C1985 C 0.76173 0.3638 0.7181 0.0
C1986 C 0.78157 0.35718 0.72293 0.0
C1987 C 0.79263 0.36563 0.73975 0.0
C1988 C 0.78427 0.38253 0.75087 0.0
O1989 O 0.71867 0.45585 0.74991 0.0
O1990 O 0.72846 0.45832 0.78386 0.0
O1991 O 0.66517 0.438 0.76261 0.0
O1992 O 0.68849 0.43906 0.78595 0.0
C1993 C 0.66889 0.44159 0.78216 0.0
O1994 O 0.70366 0.40111 0.7907 0.0
O1995 O 0.69843 0.3967 0.75661 0.0
O1996 O 0.76284 0.41441 0.77459 0.0
O1997 O 0.73597 0.41273 0.75362 0.0
H1998 H 0.73758 0.38516 0.72538 0.0
H1999 H 0.78783 0.34407 0.71446 0.0
H2000 H 0.79294 0.3893 0.76378 0.0
O2001 O 0.68416 0.43226 0.05304 0.0
Tb2002 Tb 0.68269 0.44538 0.02267 0.0
Eu2003 Eu 0.6698 0.48134 0.99339 0.0
C2004 C 0.70218 0.42926 0.06172 0.0
O2005 O 0.71816 0.44024 0.05561 0.0
C2006 C 0.71786 0.47484 1.00897 0.0
O2007 O 0.65348 0.49206 0.96354 0.0
C2008 C 0.65735 0.50472 0.02441 0.0
C2009 C 0.64471 0.47909 0.9498 0.0
O2010 O 0.64841 0.45929 0.95081 0.0
C2011 C 0.63965 0.44427 1.00568 0.0
C2012 C 0.63884 0.51341 0.03552 0.0
C2013 C 0.62864 0.50245 0.0515 0.0
C2014 C 0.6126 0.51178 0.06305 0.0
C2015 C 0.60687 0.53197 0.05877 0.0
C2016 C 0.61575 0.54267 0.04244 0.0
C2017 C 0.63182 0.53344 0.03092 0.0
O2018 O 0.7086 0.46755 0.02552 0.0
O2019 O 0.70614 0.47837 0.99221 0.0
O2020 O 0.69134 0.41405 0.01406 0.0
O2021 O 0.68646 0.43557 0.99013 0.0
C2022 C 0.69084 0.41649 0.99411 0.0
O2023 O 0.64823 0.45334 0.98983 0.0
O2024 O 0.64916 0.44577 0.02359 0.0
O2025 O 0.662 0.51181 1.00595 0.0
O2026 O 0.66143 0.48501 0.02616 0.0
H2027 H 0.6329 0.48673 0.05477 0.0
H2028 H 0.59378 0.53863 0.06687 0.0
H2029 H 0.63859 0.54183 0.01819 0.0
O2030 O 0.34721 0.92663 0.79658 0.0
Tb2031 Tb 0.33189 0.93007 0.76738 0.0
Eu2032 Eu 0.29308 0.91826 0.74124 0.0
C2033 C 0.34165 0.93677 0.81323 0.0
O2034 O 0.32361 0.94589 0.8136 0.0
C2035 C 0.30194 0.96575 0.75845 0.0
O2036 O 0.27916 0.90152 0.71256 0.0
C2037 C 0.27111 0.9054 0.77272 0.0
C2038 C 0.29063 0.89537 0.6967 0.0
O2039 O 0.3096 0.90262 0.695 0.0
C2040 C 0.3315 0.88825 0.74843 0.0
C2041 C 0.26107 0.88684 0.78237 0.0
C2042 C 0.27232 0.87368 0.79558 0.0
C2043 C 0.26232 0.85679 0.8049 0.0
C2044 C 0.24146 0.85279 0.80073 0.0
C2045 C 0.22957 0.8655 0.7881 0.0
C2046 C 0.23953 0.88288 0.77931 0.0
O2047 O 0.31127 0.9561 0.77368 0.0
O2048 O 0.29636 0.95454 0.74161 0.0
O2049 O 0.36268 0.94132 0.75927 0.0
O2050 O 0.34083 0.93516 0.73501 0.0
C2051 C 0.35977 0.94111 0.73928 0.0
O2052 O 0.32068 0.89724 0.73388 0.0
O2053 O 0.33081 0.89667 0.76687 0.0
O2054 O 0.26303 0.91216 0.75534 0.0
O2055 O 0.29144 0.90743 0.77331 0.0
H2056 H 0.2887 0.87638 0.79846 0.0
H2057 H 0.23477 0.83877 0.80689 0.0
H2058 H 0.23065 0.8935 0.77019 0.0
O2059 O 0.18316 0.10228 0.29814 0.0
Tb2060 Tb 0.19658 0.09653 0.26835 0.0
Eu2061 Eu 0.22961 0.10652 0.23741 0.0
C2062 C 0.18155 0.08778 0.31179 0.0
O2063 O 0.19317 0.0714 0.3097 0.0
C2064 C 0.22394 0.06051 0.25581 0.0
O2065 O 0.24382 0.12367 0.20967 0.0
C2066 C 0.25294 0.11657 0.26935 0.0
C2067 C 0.23259 0.13356 0.19574 0.0
O2068 O 0.21251 0.13026 0.19477 0.0
C2069 C 0.19365 0.13836 0.24899 0.0
C2070 C 0.26323 0.13338 0.28179 0.0
C2071 C 0.25271 0.143 0.29849 0.0
C2072 C 0.26319 0.1573 0.31149 0.0
C2073 C 0.2843 0.161 0.30858 0.0
C2074 C 0.29431 0.15376 0.29088 0.0
C2075 C 0.28399 0.13939 0.27772 0.0
O2076 O 0.21899 0.07169 0.27232 0.0
O2077 O 0.22544 0.07049 0.23781 0.0
O2078 O 0.16791 0.07935 0.26358 0.0
O2079 O 0.18385 0.09058 0.2371 0.0
C2080 C 0.16768 0.08031 0.24345 0.0
O2081 O 0.20214 0.12848 0.2333 0.0
O2082 O 0.19527 0.13007 0.26721 0.0
O2083 O 0.26036 0.11186 0.25092 0.0
O2084 O 0.2327 0.11465 0.27028 0.0
H2085 H 0.23641 0.13983 0.30108 0.0
H2086 H 0.29231 0.17209 0.31871 0.0
H2087 H 0.29184 0.1335 0.2641 0.0
O2088 O 0.48358 0.18496 0.42741 0.0
Tb2089 Tb 0.51207 0.18206 0.44435 0.0
Eu2090 Eu 0.53761 0.16843 0.48284 0.0
C2091 C 0.46919 0.1705 0.42731 0.0
O2092 O 0.47073 0.1545 0.43939 0.0
C2093 C 0.52057 0.21598 0.47634 0.0
O2094 O 0.56681 0.15255 0.4952 0.0
C2095 C 0.50669 0.15408 0.50479 0.0
C2096 C 0.5825 0.1481 0.48283 0.0
O2097 O 0.58322 0.157 0.46468 0.0
C2098 C 0.52866 0.13893 0.44305 0.0
C2099 C 0.49664 0.13557 0.51466 0.0
C2100 C 0.48033 0.12421 0.50445 0.0
C2101 C 0.46892 0.109 0.51524 0.0
C2102 C 0.47282 0.10673 0.53639 0.0
C2103 C 0.49064 0.11492 0.54586 0.0
C2104 C 0.50229 0.12991 0.53519 0.0
O2105 O 0.50509 0.20582 0.46743 0.0
O2106 O 0.53753 0.20508 0.48088 0.0
O2107 O 0.5239 0.19464 0.4157 0.0
O2108 O 0.54534 0.18806 0.43986 0.0
C2109 C 0.54336 0.19453 0.42094 0.0
O2110 O 0.54364 0.14688 0.45473 0.0
O2111 O 0.51112 0.14866 0.44244 0.0
O2112 O 0.52411 0.16143 0.51289 0.0
O2113 O 0.5057 0.15623 0.48451 0.0
H2114 H 0.47667 0.12704 0.48833 0.0
H2115 H 0.46312 0.09624 0.54514 0.0
H2116 H 0.51571 0.13694 0.54275 0.0
O2117 O 0.59959 0.72843 0.18209 0.0
Tb2118 Tb 0.59421 0.75721 0.19769 0.0
Eu2119 Eu 0.60747 0.7857 0.23496 0.0
C2120 C 0.58453 0.71554 0.1777 0.0
O2121 O 0.56651 0.71787 0.18674 0.0
C2122 C 0.55996 0.76842 0.22804 0.0
O2123 O 0.62305 0.81569 0.24637 0.0
C2124 C 0.62051 0.7558 0.25826 0.0
C2125 C 0.62688 0.83089 0.23346 0.0
O2126 O 0.6178 0.8302 0.21515 0.0
C2127 C 0.63717 0.77509 0.19714 0.0
C2128 C 0.63867 0.74421 0.26662 0.0
C2129 C 0.64682 0.72747 0.25512 0.0
C2130 C 0.66121 0.71425 0.2642 0.0
C2131 C 0.66721 0.71745 0.2848 0.0
C2132 C 0.66189 0.73542 0.29581 0.0
C2133 C 0.64704 0.74861 0.28671 0.0
O2134 O 0.56935 0.75222 0.22005 0.0
O2135 O 0.57129 0.78553 0.23173 0.0
O2136 O 0.58048 0.76371 0.16765 0.0
O2137 O 0.58998 0.78896 0.18723 0.0
C2138 C 0.58203 0.78368 0.16922 0.0
O2139 O 0.62898 0.79064 0.20732 0.0
O2140 O 0.62779 0.75726 0.19852 0.0
O2141 O 0.6167 0.77446 0.26553 0.0
O2142 O 0.61565 0.75342 0.23848 0.0
H2143 H 0.64205 0.72463 0.23916 0.0
H2144 H 0.67784 0.70658 0.29155 0.0
H2145 H 0.64222 0.76241 0.29488 0.0
O2146 O 0.05158 0.84968 0.92686 0.0
Tb2147 Tb 0.02258 0.84316 0.94146 0.0
Eu2148 Eu 0.99466 0.85571 0.97806 0.0
C2149 C 0.06573 0.83566 0.92488 0.0
O2150 O 0.0646 0.81908 0.93627 0.0
C2151 C 1.01276 0.8087 0.97218 0.0
O2152 O 0.96598 0.87218 0.991 0.0
C2153 C 0.02615 0.87069 0.99966 0.0
C2154 C 0.94945 0.87625 0.9795 0.0
O2155 O 0.94745 0.867 0.96129 0.0
C2156 C 1.00148 0.88437 0.93872 0.0
C2157 C 0.03602 0.88948 1.00986 0.0
C2158 C 0.04924 0.90315 0.99886 0.0
C2159 C 0.05985 0.91959 1.00938 0.0
C2160 C 0.05706 0.9218 0.03088 0.0
C2161 C 0.0437 0.90919 0.04217 0.0
C2162 C 0.03338 0.89285 0.03148 0.0
O2163 O 0.02846 0.81912 0.96426 0.0
O2164 O 0.99543 0.81929 0.97599 0.0
O2165 O 0.01737 0.8266 0.9123 0.0
O2166 O 0.99125 0.83558 0.93025 0.0
C2167 C 0.99725 0.82641 0.91319 0.0
O2168 O 0.98696 0.87535 0.94971 0.0
O2169 O 0.01997 0.87651 0.9395 0.0
O2170 O 1.00914 0.86314 1.00793 0.0
O2171 O 0.02639 0.86852 0.97932 0.0
H2172 H 0.051 0.90107 0.98228 0.0
H2173 H 0.06493 0.93432 0.03893 0.0
H2174 H 0.0233 0.88265 0.04007 0.0
O2175 O 0.93257 0.29819 0.67548 0.0
Tb2176 Tb 0.93434 0.27088 0.69366 0.0
Eu2177 Eu 0.91901 0.24628 0.73095 0.0
C2178 C 0.94864 0.31023 0.67274 0.0
O2179 O 0.96535 0.30789 0.68414 0.0
C2180 C 0.96728 0.26134 0.72623 0.0
O2181 O 0.90217 0.2178 0.74244 0.0
C2182 C 0.90513 0.27703 0.75344 0.0
C2183 C 0.89885 0.20141 0.73043 0.0
O2184 O 0.90952 0.19929 0.71325 0.0
C2185 C 0.89042 0.25386 0.6913 0.0
C2186 C 0.88702 0.28812 0.76289 0.0
C2187 C 0.87697 0.30412 0.75216 0.0
C2188 C 0.86443 0.31813 0.76316 0.0
C2189 C 0.8634 0.31679 0.78466 0.0
C2190 C 0.86729 0.29801 0.79426 0.0
C2191 C 0.88056 0.28412 0.78357 0.0
O2192 O 0.95838 0.27714 0.71729 0.0
O2193 O 0.95533 0.24486 0.72991 0.0
O2194 O 0.95132 0.26102 0.66637 0.0
O2195 O 0.93797 0.23804 0.68565 0.0
C2196 C 0.94852 0.24136 0.66883 0.0
O2197 O 0.89793 0.23923 0.7029 0.0
O2198 O 0.90057 0.27145 0.69124 0.0
O2199 O 0.91079 0.25929 0.76123 0.0
O2200 O 0.90863 0.27831 0.73336 0.0
H2201 H 0.87891 0.30576 0.73559 0.0
H2202 H 0.85626 0.32933 0.79312 0.0
H2203 H 0.88581 0.27033 0.79107 0.0
O2204 O 0.48516 0.8496 0.10458 0.0
Tb2205 Tb 0.51017 0.84405 0.08383 0.0
Eu2206 Eu 0.53267 0.85595 0.04196 0.0
C2207 C 0.46736 0.83997 0.10355 0.0
O2208 O 0.46337 0.82718 0.08797 0.0
C2209 C 0.51533 0.80847 0.05218 0.0
O2210 O 0.56212 0.87127 0.02898 0.0
C2211 C 0.50124 0.87075 0.02114 0.0
C2212 C 0.57863 0.87479 0.04094 0.0
O2213 O 0.57978 0.86515 0.05866 0.0
C2214 C 0.52737 0.88644 0.0803 0.0
C2215 C 0.4919 0.88945 1.01124 0.0
C2216 C 0.47667 0.90175 0.02136 0.0
C2217 C 0.46635 0.91759 1.01046 0.0
C2218 C 0.47038 0.91976 0.98927 0.0
C2219 C 0.48673 0.9097 0.97977 0.0
C2220 C 0.4974 0.89446 0.99066 0.0
O2221 O 0.50127 0.81813 0.06338 0.0
O2222 O 0.53127 0.81962 0.0448 0.0
O2223 O 0.5204 0.83284 0.11363 0.0
O2224 O 0.54304 0.83814 0.09027 0.0
C2225 C 0.53998 0.83235 0.10934 0.0
O2226 O 0.54171 0.87723 0.06938 0.0
O2227 O 0.5094 0.87722 0.08096 0.0
O2228 O 0.51775 0.86262 1.01247 0.0
O2229 O 0.5013 0.86905 0.04145 0.0
H2230 H 0.47325 0.89929 0.03756 0.0
H2231 H 0.46224 0.93131 0.98048 0.0
H2232 H 0.51006 0.88664 0.98304 0.0
O2233 O 0.93335 0.71405 0.85358 0.0
Tb2234 Tb 0.93527 0.74184 0.83655 0.0
Eu2235 Eu 0.92623 0.76415 0.80071 0.0
C2236 C 0.93957 0.69627 0.84628 0.0
O2237 O 0.9464 0.69472 0.82718 0.0
C2238 C 0.9729 0.74844 0.80826 0.0
O2239 O 0.91856 0.79385 0.78578 0.0
C2240 C 0.91108 0.73512 0.77641 0.0
C2241 C 0.91685 0.81047 0.79737 0.0
O2242 O 0.92267 0.81006 0.81691 0.0
C2243 C 0.89262 0.75915 0.83652 0.0
C2244 C 0.89141 0.72773 0.76623 0.0
C2245 C 0.88072 0.71019 0.77369 0.0
C2246 C 0.86375 0.70185 0.76244 0.0
C2247 C 0.85878 0.71001 0.74313 0.0
C2248 C 0.86642 0.72926 0.73729 0.0
C2249 C 0.88335 0.73783 0.74859 0.0
O2250 O 0.96305 0.73402 0.81864 0.0
O2251 O 0.96204 0.7644 0.80206 0.0
O2252 O 0.94559 0.75494 0.86623 0.0
O2253 O 0.94255 0.77471 0.84032 0.0
C2254 C 0.94738 0.77381 0.85991 0.0
O2255 O 0.90226 0.77343 0.82577 0.0
O2256 O 0.9015 0.74119 0.8368 0.0
O2257 O 0.91918 0.75246 0.76975 0.0
O2258 O 0.91353 0.73275 0.79654 0.0
H2259 H 0.88513 0.70351 0.78835 0.0
H2260 H 0.84647 0.70268 0.73401 0.0
H2261 H 0.88987 0.75252 0.74408 0.0
O2262 O 0.05321 0.17693 0.59614 0.0
Tb2263 Tb 0.02316 0.18093 0.58212 0.0
Eu2264 Eu 0.99498 0.16806 0.54346 0.0
C2265 C 0.06693 0.1919 0.59617 0.0
O2266 O 0.06594 0.20564 0.58151 0.0
C2267 C 1.01256 0.21558 0.55087 0.0
O2268 O 0.96697 0.14989 0.53013 0.0
C2269 C 0.02673 0.15371 0.52293 0.0
C2270 C 0.94978 0.14596 0.54057 0.0
O2271 O 0.94641 0.15581 0.55815 0.0
C2272 C 1.0012 0.13982 0.58316 0.0
C2273 C 0.03769 0.13512 0.51432 0.0
C2274 C 0.05449 0.12659 0.52534 0.0
C2275 C 0.06722 0.1118 0.51577 0.0
C2276 C 0.06345 0.10588 0.49523 0.0
C2277 C 0.04524 0.11139 0.48494 0.0
C2278 C 0.03259 0.12661 0.4944 0.0
O2279 O 0.02804 0.20573 0.55968 0.0
O2280 O 0.99565 0.20444 0.54545 0.0
O2281 O 0.01758 0.19555 0.61217 0.0
O2282 O 0.99169 0.18703 0.59317 0.0
C2283 C 0.99745 0.19515 0.61095 0.0
O2284 O 0.98697 0.14898 0.57202 0.0
O2285 O 0.02001 0.14747 0.58265 0.0
O2286 O 1.00938 0.1595 0.51403 0.0
O2287 O 0.02709 0.15739 0.5431 0.0
H2288 H 0.05774 0.13141 0.54122 0.0
H2289 H 0.07388 0.09496 0.48802 0.0
H2290 H 0.01869 0.1316 0.48662 0.0
O2291 O 0.60584 0.2951 0.34433 0.0
Tb2292 Tb 0.60141 0.2648 0.33106 0.0
Eu2293 Eu 0.61461 0.23554 0.29373 0.0
C2294 C 0.59014 0.30729 0.34705 0.0
O2295 O 0.57293 0.30356 0.33659 0.0
C2296 C 0.56706 0.24885 0.30186 0.0
O2297 O 0.63102 0.20686 0.28174 0.0
C2298 C 0.62699 0.26705 0.27193 0.0
C2299 C 0.63381 0.19087 0.29384 0.0
O2300 O 0.62372 0.19027 0.31146 0.0
C2301 C 0.64348 0.24555 0.33268 0.0
C2302 C 0.64488 0.27877 0.26267 0.0
C2303 C 0.6552 0.29506 0.27382 0.0
C2304 C 0.66897 0.3084 0.26339 0.0
C2305 C 0.67064 0.30643 0.24189 0.0
C2306 C 0.66455 0.28829 0.23147 0.0
C2307 C 0.6509 0.27469 0.24183 0.0
O2308 O 0.57619 0.26616 0.30823 0.0
O2309 O 0.57896 0.23265 0.29793 0.0
O2310 O 0.5861 0.26086 0.36057 0.0
O2311 O 0.59778 0.2343 0.34496 0.0
C2312 C 0.58845 0.24105 0.36157 0.0
O2313 O 0.63499 0.23028 0.32194 0.0
O2314 O 0.63501 0.26366 0.33142 0.0
O2315 O 0.62154 0.24904 0.26368 0.0
O2316 O 0.62396 0.26812 0.29208 0.0
H2317 H 0.65274 0.29719 0.29032 0.0
H2318 H 0.67956 0.318 0.23373 0.0
H2319 H 0.64514 0.26091 0.23396 0.0
O2320 O 0.42493 0.47875 0.18377 0.0
Tb2321 Tb 0.44425 0.50545 0.17957 0.0
Eu2322 Eu 0.48326 0.53259 0.16808 0.0
C2323 C 0.42897 0.46342 0.19609 0.0
O2324 O 0.44731 0.46152 0.20469 0.0
C2325 C 0.47488 0.51539 0.21501 0.0
O2326 O 0.49488 0.56232 0.15267 0.0
C2327 C 0.50649 0.50235 0.15492 0.0
C2328 C 0.48193 0.57661 0.14618 0.0
O2329 O 0.46271 0.57618 0.1527 0.0
C2330 C 0.44547 0.52134 0.13709 0.0
C2331 C 0.51535 0.49064 0.13679 0.0
C2332 C 0.50436 0.47356 0.12798 0.0
C2333 C 0.51404 0.46024 0.11369 0.0
C2334 C 0.53476 0.4636 0.10878 0.0
C2335 C 0.54461 0.48236 0.11379 0.0
C2336 C 0.53529 0.49547 0.1288 0.0
O2337 O 0.46614 0.49982 0.20478 0.0
O2338 O 0.47992 0.53232 0.20442 0.0
O2339 O 0.41389 0.51821 0.18606 0.0
O2340 O 0.43992 0.53853 0.18625 0.0
C2341 C 0.41989 0.53727 0.18836 0.0
O2342 O 0.45552 0.53673 0.14629 0.0
O2343 O 0.44611 0.50345 0.14607 0.0
O2344 O 0.51383 0.52088 0.15966 0.0
O2345 O 0.48659 0.50026 0.15886 0.0
H2346 H 0.48829 0.47073 0.13194 0.0
H2347 H 0.54217 0.45278 0.09827 0.0
H2348 H 0.54326 0.50948 0.13387 0.0
O2349 O 0.30471 0.68063 0.92613 0.0
Tb2350 Tb 0.2748 0.69475 0.92943 0.0
Eu2351 Eu 0.24666 0.73256 0.91741 0.0
C2352 C 0.31806 0.68116 0.94148 0.0
O2353 O 0.31698 0.69622 0.95519 0.0
C2354 C 0.26426 0.72632 0.96418 0.0
O2355 O 0.21667 0.74336 0.90258 0.0
C2356 C 0.27697 0.75509 0.90265 0.0
C2357 C 0.2007 0.73062 0.89993 0.0
O2358 O 0.2008 0.713 0.90969 0.0
C2359 C 0.25484 0.69415 0.88761 0.0
C2360 C 0.28686 0.7633 0.88335 0.0
C2361 C 0.30581 0.7549 0.87618 0.0
C2362 C 0.31642 0.7638 0.85937 0.0
C2363 C 0.30759 0.78055 0.84947 0.0
C2364 C 0.28885 0.78894 0.85567 0.0
C2365 C 0.27859 0.78058 0.87295 0.0
O2366 O 0.27982 0.7181 0.95394 0.0
O2367 O 0.24719 0.73078 0.95351 0.0
O2368 O 0.26899 0.66547 0.94421 0.0
O2369 O 0.24305 0.68278 0.93478 0.0
C2370 C 0.24893 0.66579 0.94349 0.0
O2371 O 0.2399 0.70396 0.89712 0.0
O2372 O 0.27331 0.69539 0.89586 0.0
O2373 O 0.25902 0.76262 0.9085 0.0
O2374 O 0.27873 0.73535 0.90665 0.0
H2375 H 0.31247 0.74178 0.88385 0.0
H2376 H 0.31524 0.78704 0.8361 0.0
H2377 H 0.26421 0.78737 0.87807 0.0
O2378 O 0.10446 0.54144 0.68089 0.0
Tb2379 Tb 0.08545 0.51454 0.68321 0.0
Eu2380 Eu 0.04484 0.49174 0.66743 0.0
C2381 C 0.09782 0.56008 0.68435 0.0
O2382 O 0.07833 0.56305 0.68916 0.0
C2383 C 0.05254 0.50746 0.71591 0.0
O2384 O 0.03124 0.4636 0.64984 0.0
C2385 C 0.02459 0.52373 0.65423 0.0
C2386 C 0.04187 0.44652 0.64683 0.0
O2387 O 0.05945 0.44421 0.65685 0.0
C2388 C 0.0847 0.49874 0.63925 0.0
C2389 C 0.0156 0.53541 0.63637 0.0
C2390 C 0.02688 0.55168 0.62705 0.0
C2391 C 0.01663 0.56568 0.61408 0.0
C2392 C 0.99529 0.56386 0.61144 0.0
C2393 C 0.98513 0.54526 0.6156 0.0
C2394 C 0.99497 0.53149 0.6293 0.0
O2395 O 0.06271 0.52248 0.70683 0.0
O2396 O 0.04688 0.49112 0.70405 0.0
O2397 O 0.11333 0.50612 0.69976 0.0
O2398 O 0.09362 0.48207 0.68773 0.0
C2399 C 0.11093 0.4863 0.69762 0.0
O2400 O 0.0723 0.48427 0.6463 0.0
O2401 O 0.08596 0.51603 0.64976 0.0
O2402 O 0.01556 0.50637 0.65978 0.0
O2403 O 0.04479 0.52391 0.65737 0.0
H2404 H 0.04337 0.55352 0.62982 0.0
H2405 H 0.98738 0.57567 0.60284 0.0
H2406 H 0.98683 0.51774 0.6342 0.0
O2407 O 0.22603 0.33282 0.43893 0.0
Tb2408 Tb 0.25533 0.31736 0.43693 0.0
Eu2409 Eu 0.2849 0.27955 0.4219 0.0
C2410 C 0.22007 0.34038 0.45681 0.0
O2411 O 0.22976 0.33454 0.47365 0.0
C2412 C 0.26911 0.28787 0.47026 0.0
O2413 O 0.31435 0.26917 0.40375 0.0
C2414 C 0.25394 0.25546 0.41044 0.0
C2415 C 0.32859 0.28207 0.39614 0.0
O2416 O 0.32782 0.30164 0.40165 0.0
C2417 C 0.26672 0.31238 0.39214 0.0
C2418 C 0.24216 0.24707 0.39192 0.0
C2419 C 0.22742 0.25865 0.38036 0.0
C2420 C 0.21476 0.24863 0.3649 0.0
C2421 C 0.21558 0.22709 0.36339 0.0
C2422 C 0.23269 0.21673 0.37096 0.0
C2423 C 0.2455 0.22643 0.38583 0.0
O2424 O 0.25237 0.2951 0.46149 0.0
O2425 O 0.28586 0.28445 0.45841 0.0
O2426 O 0.26449 0.34869 0.44535 0.0
O2427 O 0.28822 0.32726 0.43918 0.0
C2428 C 0.28433 0.3464 0.4442 0.0
O2429 O 0.28455 0.30579 0.39914 0.0
O2430 O 0.25068 0.31211 0.4043 0.0
O2431 O 0.27284 0.24878 0.41387 0.0
O2432 O 0.25171 0.27485 0.41583 0.0
H2433 H 0.22617 0.27512 0.38303 0.0
H2434 H 0.20507 0.21871 0.353 0.0
H2435 H 0.25849 0.21805 0.3921 0.0
O2436 O 0.41011 0.53395 0.34135 0.0
Tb2437 Tb 0.42969 0.50826 0.33528 0.0
Eu2438 Eu 0.47703 0.48959 0.35528 0.0
C2439 C 0.4141 0.55236 0.3345 0.0
O2440 O 0.43176 0.55588 0.3251 0.0
C2441 C 0.46847 0.50564 0.30733 0.0
O2442 O 0.49061 0.46156 0.37195 0.0
C2443 C 0.49687 0.52185 0.371 0.0
C2444 C 0.47995 0.44419 0.37454 0.0
O2445 O 0.46238 0.44165 0.36437 0.0
C2446 C 0.43366 0.4931 0.37974 0.0
C2447 C 0.50652 0.53364 0.38911 0.0
C2448 C 0.49655 0.55126 0.39748 0.0
C2449 C 0.50709 0.56464 0.41157 0.0
C2450 C 0.52755 0.56067 0.41692 0.0
C2451 C 0.53671 0.54186 0.41187 0.0
C2452 C 0.52641 0.52858 0.39723 0.0
O2453 O 0.4554 0.51847 0.31607 0.0
O2454 O 0.47613 0.49026 0.31864 0.0
O2455 O 0.40422 0.50402 0.31332 0.0
O2456 O 0.41592 0.47755 0.32837 0.0
C2457 C 0.40199 0.4842 0.3152 0.0
O2458 O 0.44828 0.48035 0.37387 0.0
O2459 O 0.43005 0.50948 0.36891 0.0
O2460 O 0.50607 0.50518 0.36391 0.0
O2461 O 0.47655 0.52112 0.36851 0.0
H2462 H 0.4807 0.55453 0.39316 0.0
H2463 H 0.53546 0.57137 0.42752 0.0
H2464 H 0.53355 0.51427 0.39249 0.0
O2465 O 0.22708 0.68632 0.08872 0.0
Tb2466 Tb 0.2576 0.69972 0.09029 0.0
Eu2467 Eu 0.28492 0.73893 0.10463 0.0
C2468 C 0.21921 0.68137 0.07062 0.0
O2469 O 0.22654 0.69048 0.05413 0.0
C2470 C 0.26897 0.73118 0.05709 0.0
O2471 O 0.31333 0.75056 0.12293 0.0
C2472 C 0.25319 0.75944 0.11884 0.0
C2473 C 0.3293 0.73868 0.12708 0.0
O2474 O 0.3311 0.72083 0.1174 0.0
C2475 C 0.27609 0.70085 0.13242 0.0
C2476 C 0.24235 0.76697 0.13807 0.0
C2477 C 0.22716 0.75461 0.14805 0.0
C2478 C 0.21517 0.76305 0.16427 0.0
C2479 C 0.21789 0.78371 0.16991 0.0
C2480 C 0.23437 0.79546 0.1624 0.0
C2481 C 0.2463 0.78723 0.14599 0.0
O2482 O 0.25294 0.72261 0.06625 0.0
O2483 O 0.28566 0.73613 0.06856 0.0
O2484 O 0.26626 0.66808 0.08228 0.0
O2485 O 0.28917 0.69163 0.08042 0.0
C2486 C 0.28552 0.67193 0.07797 0.0
O2487 O 0.29132 0.71024 0.12311 0.0
O2488 O 0.25788 0.70142 0.12377 0.0
O2489 O 0.27096 0.76819 0.11382 0.0
O2490 O 0.25237 0.73966 0.11405 0.0
H2491 H 0.22476 0.73861 0.14343 0.0
H2492 H 0.20818 0.7901 0.18206 0.0
H2493 H 0.25884 0.79636 0.13967 0.0
O2494 O 0.09656 0.47231 0.84326 0.0
Tb2495 Tb 0.08352 0.50265 0.84489 0.0
Eu2496 Eu 0.04635 0.53095 0.85725 0.0
C2497 C 0.10101 0.46465 0.825 0.0
O2498 O 0.09151 0.47211 0.80881 0.0
C2499 C 0.05287 0.51379 0.8097 0.0
O2500 O 0.03434 0.55969 0.87455 0.0
C2501 C 0.0246 0.49953 0.87082 0.0
C2502 C 0.04641 0.57575 0.87952 0.0
O2503 O 0.06475 0.57711 0.87088 0.0
C2504 C 0.08471 0.52248 0.88688 0.0
C2505 C 0.0161 0.48902 0.88967 0.0
C2506 C 0.02664 0.47234 0.89887 0.0
C2507 C 0.01754 0.46127 0.9153 0.0
C2508 C 0.99794 0.46679 0.92239 0.0
C2509 C 0.98769 0.48371 0.91437 0.0
C2510 C 0.99668 0.49476 0.89797 0.0
O2511 O 0.06078 0.4981 0.81967 0.0
O2512 O 0.04861 0.53082 0.82083 0.0
O2513 O 0.11524 0.51023 0.83625 0.0
O2514 O 0.09312 0.53409 0.83635 0.0
C2515 C 0.11248 0.52969 0.83308 0.0
O2516 O 0.07531 0.53738 0.87717 0.0
O2517 O 0.0833 0.50401 0.87861 0.0
O2518 O 0.01647 0.51715 0.86526 0.0
O2519 O 0.04458 0.49872 0.86712 0.0
H2520 H 0.04191 0.46812 0.89352 0.0
H2521 H 0.9914 0.459 0.93567 0.0
H2522 H 0.98861 0.50794 0.89192 0.0
O2523 O 0.2913 0.35318 0.59162 0.0
Tb2524 Tb 0.26533 0.33283 0.59561 0.0
Eu2525 Eu 0.24249 0.28978 0.61006 0.0
C2526 C 0.31028 0.34684 0.58906 0.0
O2527 O 0.31423 0.32705 0.58769 0.0
C2528 C 0.26025 0.29823 0.56261 0.0
O2529 O 0.21302 0.27789 0.62642 0.0
C2530 C 0.27349 0.268 0.62352 0.0
C2531 C 0.19743 0.29028 0.63102 0.0
O2532 O 0.197 0.30834 0.62213 0.0
C2533 C 0.25171 0.32951 0.63939 0.0
C2534 C 0.28524 0.25924 0.64145 0.0
C2535 C 0.30292 0.26987 0.64945 0.0
C2536 C 0.31573 0.26075 0.66437 0.0
C2537 C 0.31091 0.24109 0.67137 0.0
C2538 C 0.29262 0.23088 0.66531 0.0
C2539 C 0.28 0.2397 0.64983 0.0
O2540 O 0.27409 0.31002 0.57232 0.0
O2541 O 0.24395 0.29115 0.57342 0.0
O2542 O 0.2515 0.36214 0.58792 0.0
O2543 O 0.23266 0.33508 0.58608 0.0
C2544 C 0.2331 0.35502 0.58363 0.0
O2545 O 0.23673 0.31767 0.63174 0.0
O2546 O 0.26871 0.33102 0.62877 0.0
O2547 O 0.25532 0.25993 0.61833 0.0
O2548 O 0.27476 0.28799 0.62024 0.0
H2549 H 0.3067 0.28526 0.64425 0.0
H2550 H 0.32057 0.23448 0.68335 0.0
H2551 H 0.266 0.23168 0.64476 0.0
O2552 O 0.17573 0.42389 0.47446 0.0
Tb2553 Tb 0.17855 0.43954 0.50404 0.0
Eu2554 Eu 0.16884 0.47979 0.53249 0.0
C2555 C 0.19151 0.42339 0.4619 0.0
O2556 O 0.20522 0.43851 0.46301 0.0
C2557 C 0.21508 0.46973 0.51468 0.0
O2558 O 0.15421 0.49232 0.56241 0.0
C2559 C 0.15576 0.50308 0.50244 0.0
C2560 C 0.14829 0.47995 0.57747 0.0
O2561 O 0.15481 0.46086 0.57749 0.0
C2562 C 0.13698 0.44204 0.52372 0.0
C2563 C 0.13701 0.51285 0.49305 0.0
C2564 C 0.12331 0.50118 0.48009 0.0
C2565 C 0.10593 0.51049 0.47119 0.0
C2566 C 0.10231 0.53135 0.475 0.0
C2567 C 0.11604 0.54384 0.48662 0.0
C2568 C 0.13337 0.53433 0.49592 0.0
O2569 O 0.20459 0.46088 0.49922 0.0
O2570 O 0.20481 0.47592 0.53156 0.0
O2571 O 0.18982 0.4089 0.51102 0.0
O2572 O 0.18431 0.42977 0.53606 0.0
C2573 C 0.19022 0.41119 0.53108 0.0
O2574 O 0.14695 0.45238 0.53846 0.0
O2575 O 0.14505 0.442 0.50521 0.0
O2576 O 0.16257 0.51042 0.52043 0.0
O2577 O 0.15782 0.48294 0.50057 0.0
H2578 H 0.1259 0.48492 0.47717 0.0
H2579 H 0.0881 0.53775 0.46904 0.0
H2580 H 0.14404 0.54358 0.50532 0.0
O2581 O 0.68839 0.10536 0.54465 0.0
Tb2582 Tb 0.68572 0.08479 0.51808 0.0
Eu2583 Eu 0.67113 0.04309 0.49312 0.0
C2584 C 0.70386 0.10549 0.55789 0.0
O2585 O 0.71748 0.09064 0.55752 0.0
C2586 C 0.71946 0.05225 0.50834 0.0
O2587 O 0.65511 0.03004 0.46362 0.0
C2588 C 0.65786 0.02118 0.52436 0.0
C2589 C 0.64966 0.04204 0.4481 0.0
O2590 O 0.657 0.06099 0.44768 0.0
C2591 C 0.6425 0.08254 0.5019 0.0
C2592 C 0.63909 1.01202 0.53472 0.0
C2593 C 0.627 0.02392 0.54865 0.0
C2594 C 0.60976 0.01499 0.55851 0.0
C2595 C 0.60435 0.9945 0.55423 0.0
C2596 C 0.61655 0.98169 0.54175 0.0
C2597 C 0.63397 0.99073 0.53187 0.0
O2598 O 0.71102 0.06311 0.52356 0.0
O2599 O 0.70747 0.04592 0.49238 0.0
O2600 O 0.69389 0.11474 0.506 0.0
O2601 O 0.69064 0.08966 0.48465 0.0
C2602 C 0.69449 0.1094 0.48659 0.0
O2603 O 0.65027 0.07075 0.48716 0.0
O2604 O 0.65216 0.08297 0.5198 0.0
O2605 O 0.66366 0.01312 0.50645 0.0
O2606 O 0.661 0.04129 0.52545 0.0
H2607 H 0.63079 0.04002 0.55168 0.0
H2608 H 0.58982 0.98885 0.56038 0.0
H2609 H 0.64358 0.98126 0.52196 0.0
O2610 O 0.68893 0.93127 0.30403 0.0
Tb2611 Tb 0.7 0.93251 0.27258 0.0
Eu2612 Eu 0.73519 0.91713 0.24243 0.0
C2613 C 0.68821 0.94835 0.31506 0.0
O2614 O 0.70133 0.96328 0.31066 0.0
C2615 C 0.73219 0.96433 0.25897 0.0
O2616 O 0.74543 0.89831 0.21404 0.0
C2617 C 0.75683 0.90362 0.27386 0.0
C2618 C 0.73386 0.89551 0.19716 0.0
O2619 O 0.7174 0.90691 0.19455 0.0
C2620 C 0.694 0.8911 0.25118 0.0
C2621 C 0.76575 0.88517 0.28448 0.0
C2622 C 0.755 0.87545 0.30091 0.0
C2623 C 0.76451 0.85974 0.31237 0.0
C2624 C 0.78452 0.85374 0.30743 0.0
C2625 C 0.7949 0.8618 0.29046 0.0
C2626 C 0.78576 0.87788 0.27921 0.0
O2627 O 0.72579 0.95467 0.27559 0.0
O2628 O 0.73393 0.95312 0.24155 0.0
O2629 O 0.67232 0.95079 0.2684 0.0
O2630 O 0.68715 0.93888 0.24156 0.0
C2631 C 0.6717 0.94982 0.24827 0.0
O2632 O 0.70515 0.89912 0.2363 0.0
O2633 O 0.69569 0.89922 0.26984 0.0
O2634 O 0.76504 0.90947 0.25622 0.0
O2635 O 0.73672 0.90674 0.27465 0.0
H2636 H 0.73937 0.87998 0.30474 0.0
H2637 H 0.79147 0.84122 0.31594 0.0
H2638 H 0.79403 0.88433 0.26621 0.0
O2639 O 0.8516 0.93131 0.05183 0.0
Tb2640 Tb 0.84788 0.94474 0.02187 0.0
Eu2641 Eu 0.85865 0.9782 0.99201 0.0
C2642 C 0.83545 0.92804 0.06341 0.0
O2643 O 0.8186 0.93862 0.05992 0.0
C2644 C 0.81205 0.97267 1.01009 0.0
O2645 O 0.87345 0.99002 0.96244 0.0
C2646 C 0.87305 1.00139 0.02259 0.0
C2647 C 0.87591 0.97805 0.94586 0.0
O2648 O 0.86615 0.96015 0.94489 0.0
C2649 C 0.88851 0.94058 0.99948 0.0
C2650 C 0.89094 1.01209 0.03345 0.0
C2651 C 0.90285 1.00219 0.04897 0.0
C2652 C 0.91649 0.01395 0.06205 0.0
C2653 C 0.91595 0.03546 0.06068 0.0
C2654 C 0.90876 0.04456 0.04272 0.0
C2655 C 0.8955 0.03309 0.02936 0.0
O2656 O 0.82259 0.96677 0.02657 0.0
O2657 O 0.82263 0.97519 0.99257 0.0
O2658 O 0.8336 0.9147 0.01581 0.0
O2659 O 0.83824 0.93493 0.99052 0.0
C2660 C 0.83115 0.91697 0.99597 0.0
O2661 O 0.87845 0.94996 0.98471 0.0
O2662 O 0.88144 0.94262 0.01835 0.0
O2663 O 0.86637 1.00869 1.00486 0.0
O2664 O 0.87064 0.98129 0.02391 0.0
H2665 H 0.90174 0.98563 0.05039 0.0
H2666 H 0.92492 0.04501 0.0715 0.0
H2667 H 0.88905 0.04039 0.01582 0.0
O2668 O 0.35106 0.59731 0.28298 0.0
Tb2669 Tb 0.33325 0.59895 0.25509 0.0
Eu2670 Eu 0.29134 0.61575 0.23407 0.0
C2671 C 0.34466 0.59015 0.30064 0.0
O2672 O 0.32572 0.58273 0.3023 0.0
C2673 C 0.30012 0.56714 0.24144 0.0
O2674 O 0.27878 0.63264 0.20664 0.0
C2675 C 0.26911 0.62581 0.26634 0.0
C2676 C 0.28978 0.63434 0.18964 0.0
O2677 O 0.30624 0.62287 0.18718 0.0
C2678 C 0.33063 0.64353 0.2446 0.0
C2679 C 0.2602 0.64286 0.27945 0.0
C2680 C 0.27154 0.65142 0.29647 0.0
C2681 C 0.26177 0.66448 0.31098 0.0
C2682 C 0.24067 0.66815 0.30895 0.0
C2683 C 0.23039 0.66387 0.29019 0.0
C2684 C 0.23982 0.65015 0.27584 0.0
O2685 O 0.31108 0.57356 0.25765 0.0
O2686 O 0.29357 0.58064 0.22765 0.0
O2687 O 0.36409 0.58945 0.24659 0.0
O2688 O 0.34247 0.5955 0.22242 0.0
C2689 C 0.36144 0.5901 0.22668 0.0
O2690 O 0.31854 0.63787 0.22908 0.0
O2691 O 0.33117 0.63172 0.2607 0.0
O2692 O 0.26119 0.62221 0.24772 0.0
O2693 O 0.28916 0.62224 0.26741 0.0
H2694 H 0.28788 0.64824 0.29831 0.0
H2695 H 0.23318 0.67743 0.3208 0.0
H2696 H 0.23157 0.64553 0.26181 0.0
O2697 O 0.34582 0.59429 0.97493 0.0
Tb2698 Tb 0.34448 0.58131 1.00529 0.0
Eu2699 Eu 0.35812 0.54223 0.03209 0.0
C2700 C 0.32852 0.59744 0.96499 0.0
O2701 O 0.31192 0.58697 0.9704 0.0
C2702 C 0.31046 0.54954 0.01583 0.0
O2703 O 0.37451 0.52929 0.06072 0.0
C2704 C 0.37221 0.52133 1.00004 0.0
C2705 C 0.37961 0.54104 0.07702 0.0
O2706 O 0.37158 0.55951 0.07859 0.0
C2707 C 0.38656 0.58202 0.02506 0.0
C2708 C 0.39128 0.51294 0.98968 0.0
C2709 C 0.39879 0.52195 0.97115 0.0
C2710 C 0.4155 0.51312 0.96013 0.0
C2711 C 0.42448 0.49531 0.96792 0.0
C2712 C 0.41795 0.48627 0.98626 0.0
C2713 C 0.40108 0.49492 0.99703 0.0
O2714 O 0.31995 0.55806 1.00003 0.0
O2715 O 0.32187 0.54481 0.03245 0.0
O2716 O 0.33277 0.61212 1.01214 0.0
O2717 O 0.33661 0.59148 0.03704 0.0
C2718 C 0.33092 0.61 0.03206 0.0
O2719 O 0.37776 0.57104 0.03959 0.0
O2720 O 0.37811 0.58139 1.00663 0.0
O2721 O 0.36587 0.51279 0.01732 0.0
O2722 O 0.369 0.54132 0.99984 0.0
H2723 H 0.3913 0.53547 0.96513 0.0
H2724 H 0.43734 0.4884 0.95976 0.0
H2725 H 0.3957 0.48766 1.01106 0.0
O2726 O 0.68688 0.09226 0.2249 0.0
Tb2727 Tb 0.70068 0.09136 0.25527 0.0
Eu2728 Eu 0.73968 0.10463 0.28209 0.0
C2729 C 0.68327 0.07508 0.21465 0.0
O2730 O 0.6938 0.05869 0.2196 0.0
C2731 C 0.73198 0.05717 0.26512 0.0
O2732 O 0.75165 0.12319 0.31037 0.0
C2733 C 0.76028 0.11915 0.25048 0.0
C2734 C 0.74092 0.12573 0.32765 0.0
O2735 O 0.72463 0.11389 0.33086 0.0
C2736 C 0.70039 0.13248 0.27593 0.0
C2737 C 0.76936 0.13825 0.24087 0.0
C2738 C 0.75868 0.14903 0.2251 0.0
C2739 C 0.76836 0.1658 0.21502 0.0
C2740 C 0.78867 0.17142 0.22037 0.0
C2741 C 0.79901 0.16198 0.2366 0.0
C2742 C 0.78945 0.14535 0.24678 0.0
O2743 O 0.72289 0.06668 0.24966 0.0
O2744 O 0.73761 0.06846 0.28184 0.0
O2745 O 0.66956 0.0812 0.26402 0.0
O2746 O 0.69318 0.0825 0.28715 0.0
C2747 C 0.67367 0.07842 0.28353 0.0
O2748 O 0.71091 0.12311 0.29037 0.0
O2749 O 0.70126 0.12474 0.2572 0.0
O2750 O 0.76906 0.11231 0.2675 0.0
O2751 O 0.74008 0.11617 0.25017 0.0
H2752 H 0.74291 0.14472 0.22096 0.0
H2753 H 0.7957 0.18487 0.21329 0.0
H2754 H 0.79757 0.1383 0.25953 0.0
O2755 O 0.80511 0.9659 0.72906 0.0
Tb2756 Tb 0.81534 0.93392 0.73576 0.0
Eu2757 Eu 0.81647 0.89329 0.76983 0.0
C2758 C 0.79694 0.97814 0.74354 0.0
O2759 O 0.79088 0.96975 0.76092 0.0
C2760 C 0.83681 0.93663 0.77933 0.0
O2761 O 0.83556 0.86626 0.7776 0.0
C2762 C 0.78211 0.89146 0.79029 0.0
C2763 C 0.85397 0.86578 0.76917 0.0
O2764 O 0.85902 0.88012 0.75589 0.0
C2765 C 0.80498 0.88736 0.72174 0.0
C2766 C 0.7659 0.87586 0.79528 0.0
C2767 C 0.748 0.87295 0.78282 0.0
C2768 C 0.73269 0.85853 0.78849 0.0
C2769 C 0.73555 0.84675 0.8064 0.0
C2770 C 0.75294 0.84983 0.81931 0.0
C2771 C 0.76801 0.86437 0.81356 0.0
O2772 O 0.82152 0.94412 0.76818 0.0
O2773 O 0.84021 0.91691 0.77883 0.0
O2774 O 0.83729 0.94034 0.71111 0.0
O2775 O 0.84707 0.92278 0.73689 0.0
C2776 C 0.85271 0.93068 0.71942 0.0
O2777 O 0.81549 0.88057 0.73761 0.0
O2778 O 0.79824 0.90681 0.72126 0.0
O2779 O 0.80045 0.88835 0.79857 0.0
O2780 O 0.78303 0.89859 0.77125 0.0
H2781 H 0.74581 0.882 0.76902 0.0
H2782 H 0.724 0.83519 0.81031 0.0
H2783 H 0.7812 0.86714 0.82375 0.0
C2784 C 0.02855 0.41466 0.94824 0.0
C2785 C 0.04173 0.42307 0.96385 0.0
C2786 C 0.02218 0.42643 0.93117 0.0
C2787 C 0.02931 0.44685 0.92852 0.0
H2788 H 0.02252 0.39909 0.94947 0.0
H2789 H 1.0108 0.41986 0.92046 0.0
S2790 S 0.0634 0.47697 0.96436 0.0
N2791 N 0.06052 0.45441 0.97546 0.0
N2792 N 0.05037 0.47495 0.94234 0.0
C2793 C 0.04322 0.45515 0.94321 0.0
C2794 C 0.04893 0.44373 0.96111 0.0
C2795 C 0.86189 0.7742 0.19745 0.0
C2796 C 0.85426 0.78816 0.21251 0.0
C2797 C 0.84949 0.76724 0.18058 0.0
C2798 C 0.82919 0.77447 0.17763 0.0
H2799 H 0.87729 0.76798 0.19901 0.0
H2800 H 0.85541 0.75531 0.17035 0.0
S2801 S 0.80131 0.81086 0.2118 0.0
N2802 N 0.824 0.80811 0.22312 0.0
N2803 N 0.80223 0.79673 0.19037 0.0
C2804 C 0.82179 0.78927 0.19164 0.0
C2805 C 0.83387 0.79563 0.20932 0.0
C2806 C 0.48729 0.5832 0.46241 0.0
C2807 C 0.48878 0.60489 0.46149 0.0
C2808 C 0.4905 0.57058 0.44504 0.0
C2809 C 0.49639 0.57889 0.426 0.0
H2810 H 0.48392 0.57579 0.47694 0.0
H2811 H 0.48996 0.554 0.44696 0.0
S2812 S 0.50351 0.63449 0.41513 0.0
N2813 N 0.4963 0.63418 0.4397 0.0
N2814 N 0.50428 0.61013 0.40717 0.0
C2815 C 0.49831 0.60051 0.42472 0.0
C2816 C 0.49423 0.61356 0.44244 0.0
C2817 C 0.70173 0.2437 0.68926 0.0
C2818 C 0.69311 0.25564 0.6736 0.0
C2819 C 0.68992 0.23738 0.70618 0.0
C2820 C 0.6686 0.24205 0.70799 0.0
H2821 H 0.71824 0.24078 0.68942 0.0
H2822 H 0.6981 0.22968 0.71849 0.0
S2823 S 0.63842 0.27192 0.66988 0.0
N2824 N 0.66214 0.27174 0.6604 0.0
N2825 N 0.63927 0.25842 0.69137 0.0
C2826 C 0.65955 0.25315 0.69174 0.0
C2827 C 0.67188 0.26013 0.67473 0.0
C2828 C 0.03469 0.57773 0.56068 0.0
C2829 C 0.03455 0.59949 0.56008 0.0
C2830 C 0.03146 0.56712 0.57913 0.0
C2831 C 0.02726 0.57766 0.59781 0.0
H2832 H 0.03723 0.56872 0.54664 0.0
H2833 H 0.03085 0.55041 0.57847 0.0
S2834 S 0.02454 0.63436 0.60498 0.0
N2835 N 0.03028 0.63117 0.58019 0.0
N2836 N 0.02255 0.61098 0.61465 0.0
C2837 C 0.0268 0.59933 0.59755 0.0
C2838 C 0.03069 0.61027 0.57876 0.0
C2839 C 0.69648 0.78522 0.84603 0.0
C2840 C 0.69519 0.76442 0.85131 0.0
C2841 C 0.68408 0.79296 0.83001 0.0
C2842 C 0.67108 0.77985 0.81745 0.0
H2843 H 0.70825 0.79516 0.85309 0.0
H2844 H 0.68589 0.80918 0.82673 0.0
S2845 S 0.65834 0.72523 0.82975 0.0
N2846 N 0.67559 0.73243 0.84748 0.0
N2847 N 0.65506 0.74556 0.81511 0.0
C2848 C 0.66793 0.75958 0.82455 0.0
C2849 C 0.67932 0.75229 0.842 0.0
C2850 C 0.50398 0.42584 0.09772 0.0
C2851 C 0.50216 0.44749 0.0984 0.0
C2852 C 0.49833 0.41426 0.07977 0.0
C2853 C 0.49134 0.42406 0.06174 0.0
H2854 H 0.51055 0.41796 0.11085 0.0
H2855 H 0.49973 0.39764 0.07989 0.0
S2856 S 0.4868 0.4808 0.05497 0.0
N2857 N 0.49385 0.47824 0.07941 0.0
N2858 N 0.48509 0.45711 0.04536 0.0
C2859 C 0.49007 0.44583 0.06225 0.0
C2860 C 0.49492 0.45735 0.08065 0.0
C2861 C 0.85076 0.26087 0.31121 0.0
C2862 C 0.86414 0.24468 0.31538 0.0
C2863 C 0.83575 0.26686 0.32536 0.0
C2864 C 0.83388 0.25795 0.34521 0.0
H2865 H 0.85094 0.26815 0.29618 0.0
H2866 H 0.82527 0.27856 0.32015 0.0
S2867 S 0.86448 0.21331 0.36295 0.0
N2868 N 0.87357 0.21803 0.33957 0.0
N2869 N 0.84656 0.23078 0.3675 0.0
C2870 C 0.84714 0.24139 0.34954 0.0
C2871 C 0.86203 0.23458 0.33445 0.0
C2872 C 0.95538 0.01455 0.41581 0.0
C2873 C 0.96295 0.03492 0.41778 0.0
C2874 C 0.93871 1.00762 0.42776 0.0
C2875 C 0.92956 0.02036 0.44306 0.0
H2876 H 0.96328 1.00329 0.40627 0.0
H2877 H 0.93423 0.9915 0.4263 0.0
S2878 S 0.93911 0.07663 0.44972 0.0
N2879 N 0.95551 0.06938 0.43154 0.0
N2880 N 0.92647 0.05548 0.45635 0.0
C2881 C 0.93516 0.04137 0.44336 0.0
C2882 C 0.95135 0.04878 0.43022 0.0
C2883 C 0.26226 0.69836 0.70155 0.0
C2884 C 0.25613 0.6776 0.69831 0.0
C2885 C 0.25718 0.71366 0.68754 0.0
C2886 C 0.24466 0.70922 0.67016 0.0
H2887 H 0.27147 0.70279 0.71503 0.0
H2888 H 0.26245 0.72934 0.69076 0.0
S2889 S 0.21981 0.6587 0.65737 0.0
N2890 N 0.23449 0.65397 0.67784 0.0
N2891 N 0.22304 0.68348 0.65238 0.0
C2892 C 0.23666 0.68901 0.66767 0.0
C2893 C 0.24268 0.67305 0.68161 0.0
C2894 C 0.601 0.99291 0.93177 0.0
C2895 C 0.59616 1.00534 0.94917 0.0
C2896 C 0.58548 0.98673 0.91729 0.0
C2897 C 0.56489 0.99339 0.91947 0.0
H2898 H 0.61682 0.98817 0.92923 0.0
H2899 H 0.58951 0.97659 0.90446 0.0
S2900 S 0.54351 0.02327 0.96366 0.0
N2901 N 0.56843 0.0214 0.96898 0.0
N2902 N 0.54015 1.01131 0.9411 0.0
C2903 C 0.55985 1.0053 0.93698 0.0
C2904 C 0.57522 1.01082 0.952 0.0
C2905 C 0.2788 0.33634 0.19485 0.0
C2906 C 0.29331 0.33014 0.17974 0.0
C2907 C 0.28046 0.35574 0.20533 0.0
C2908 C 0.29669 0.36987 0.20117 0.0
H2909 H 0.26698 0.32549 0.19974 0.0
H2910 H 0.26993 0.35897 0.21796 0.0
S2911 S 0.33904 0.36096 0.16355 0.0
N2912 N 0.32448 0.33989 0.16138 0.0
N2913 N 0.32762 0.3759 0.18092 0.0
C2914 C 0.31084 0.36406 0.18564 0.0
C2915 C 0.30915 0.34441 0.17499 0.0
C2916 C 0.96919 1.01044 0.08887 0.0
C2917 C 0.96799 0.9922 0.09995 0.0
C2918 C 0.95281 0.01649 0.07625 0.0
C2919 C 0.93382 1.00523 0.07486 0.0
H2920 H 0.98332 0.01966 0.08916 0.0
H2921 H 0.95545 0.03018 0.06723 0.0
S2922 S 0.92387 0.95498 0.09998 0.0
N2923 N 0.94757 0.96158 0.1076 0.0
N2924 N 0.91575 0.97387 0.0852 0.0
C2925 C 0.93262 0.9866 0.08574 0.0
C2926 C 0.94983 0.97999 0.09808 0.0
C2927 C 0.27739 0.69769 0.35758 0.0
C2928 C 0.28318 0.71624 0.34803 0.0
C2929 C 0.27225 0.6799 0.34559 0.0
C2930 C 0.27334 0.67997 0.32375 0.0
H2931 H 0.27662 0.69698 0.37433 0.0
H2932 H 0.26663 0.66627 0.35336 0.0
S2933 S 0.28545 0.72501 0.29115 0.0
N2934 N 0.28764 0.73388 0.31521 0.0
N2935 N 0.27953 0.70031 0.29314 0.0
C2936 C 0.27929 0.69833 0.31413 0.0
C2937 C 0.28372 0.71649 0.32613 0.0
C2938 C 0.58262 0.03108 0.60807 0.0
C2939 C 0.56292 0.03644 0.60064 0.0
C2940 C 0.59869 0.02597 0.59419 0.0
C2941 C 0.59566 0.02645 0.5725 0.0
H2942 H 0.5856 0.03079 0.62462 0.0
H2943 H 0.61332 0.02081 0.60044 0.0
S2944 S 0.54679 0.03863 0.54521 0.0
N2945 N 0.54118 0.04106 0.57007 0.0
N2946 N 0.57145 0.03225 0.5444 0.0
C2947 C 0.57615 0.03204 0.56499 0.0
C2948 C 0.55978 0.03676 0.57894 0.0
C2949 C 0.25488 0.31164 0.83846 0.0
C2950 C 0.24927 0.31559 0.85915 0.0
C2951 C 0.25888 0.32762 0.8248 0.0
C2952 C 0.25846 0.34839 0.83141 0.0
H2953 H 0.25588 0.29592 0.83266 0.0
H2954 H 0.26335 0.32365 0.80905 0.0
S2955 S 0.24542 0.36713 0.88429 0.0
N2956 N 0.24306 0.34176 0.88566 0.0
N2957 N 0.25256 0.37212 0.86026 0.0
C2958 C 0.25317 0.3527 0.85215 0.0
C2959 C 0.24827 0.33623 0.866 0.0
C2960 C 0.4415 0.96995 0.01911 0.0
C2961 C 0.42487 0.96593 0.03232 0.0
C2962 C 0.4554 0.95449 0.01355 0.0
C2963 C 0.45298 0.9339 0.02025 0.0
H2964 H 0.4442 0.98543 0.01353 0.0
H2965 H 0.46815 0.95876 1.00359 0.0
S2966 S 0.41337 0.91622 0.05765 0.0
N2967 N 0.40812 0.94084 0.05436 0.0
N2968 N 0.4334 0.91109 0.04264 0.0
C2969 C 0.43682 0.92987 0.03425 0.0
C2970 C 0.42293 0.94598 0.04045 0.0
C2971 C 0.92505 0.58196 0.98386 0.0
C2972 C 0.92004 0.5645 0.9957 0.0
C2973 C 0.93797 0.59801 0.99189 0.0
C2974 C 0.94703 0.59701 1.01188 0.0
H2975 H 0.91943 0.58289 0.96804 0.0
H2976 H 0.9412 0.61101 0.98207 0.0
S2977 S 0.94011 0.55246 0.04792 0.0
N2978 N 0.92528 0.54662 0.02779 0.0
N2979 N 0.95064 0.57492 0.04239 0.0
C2980 C 0.94209 0.57908 0.02361 0.0
C2981 C 0.92836 0.56339 0.01568 0.0
C2982 C 0.69134 0.70887 0.24186 0.0
C2983 C 0.67419 0.70017 0.25178 0.0
C2984 C 0.70795 0.69674 0.2356 0.0
C2985 C 0.70793 0.67511 0.23821 0.0
H2986 H 0.69268 0.72547 0.24041 0.0
H2987 H 0.72134 0.70476 0.22951 0.0
S2988 S 0.66568 0.64483 0.26263 0.0
N2989 N 0.65777 0.66894 0.26415 0.0
N2990 N 0.68822 0.64556 0.25065 0.0
C2991 C 0.69032 0.66611 0.24742 0.0
C2992 C 0.67362 0.67873 0.25449 0.0
C2993 C 0.57796 0.43427 0.47924 0.0
C2994 C 0.58057 0.42585 0.49896 0.0
C2995 C 0.59007 0.45121 0.47299 0.0
C2996 C 0.60429 0.46147 0.48673 0.0
H2997 H 0.56542 0.42889 0.46921 0.0
H2998 H 0.58709 0.45702 0.45765 0.0
S2999 S 0.62123 0.44061 0.53753 0.0
N3000 N 0.60293 0.42443 0.52931 0.0
N3001 N 0.62314 0.45824 0.51948 0.0
C3002 C 0.60885 0.45129 0.5054 0.0
C3003 C 0.59759 0.43305 0.51097 0.0
C3004 C 0.31433 0.83468 0.23422 0.0
C3005 C 0.31265 0.85586 0.23972 0.0
C3006 C 0.33185 0.82323 0.2391 0.0
C3007 C 0.34833 0.832 0.25054 0.0
H3008 H 0.30158 0.82634 0.22684 0.0
H3009 H 0.33168 0.80684 0.23547 0.0
S3010 S 0.35237 0.88619 0.26945 0.0
N3011 N 0.33001 0.88512 0.25682 0.0
N3012 N 0.36214 0.86281 0.26767 0.0
C3013 C 0.34717 0.853 0.2562 0.0
C3014 C 0.32953 0.86503 0.25057 0.0
C3015 C 0.07189 0.08152 0.53755 0.0
C3016 C 0.08116 0.09819 0.52747 0.0
C3017 C 0.08316 0.06391 0.54221 0.0
C3018 C 0.10455 0.06233 0.53779 0.0
H3019 H 0.05533 0.08132 0.54024 0.0
H3020 H 0.07461 0.05105 0.54859 0.0
S3021 S 0.13629 0.10264 0.51231 0.0
N3022 N 0.11279 0.1124 0.51312 0.0
N3023 N 0.13464 0.07996 0.52354 0.0
C3024 C 0.11422 0.07939 0.52845 0.0
C3025 C 0.10244 0.09716 0.52306 0.0
C3026 C 0.70552 0.32048 0.26705 0.0
C3027 C 0.68479 0.32223 0.27371 0.0
C3028 C 0.7206 0.33529 0.27229 0.0
C3029 C 0.71597 0.35222 0.28511 0.0
H3030 H 0.71007 0.30767 0.25717 0.0
H3031 H 0.73626 0.33314 0.26673 0.0
S3032 S 0.66551 0.36218 0.31024 0.0
N3033 N 0.66106 0.34135 0.29564 0.0
N3034 N 0.69014 0.36856 0.30688 0.0
C3035 C 0.69584 0.35351 0.29328 0.0
C3036 C 0.68012 0.33861 0.28736 0.0
C3037 C 0.82708 0.69509 0.77069 0.0
C3038 C 0.84769 0.68831 0.77172 0.0
C3039 C 0.81055 0.68214 0.77538 0.0
C3040 C 0.8138 0.66204 0.78223 0.0
H3041 H 0.8236 0.71052 0.76562 0.0
H3042 H 0.79497 0.68807 0.77399 0.0
S3043 S 0.86458 0.63778 0.79129 0.0
N3044 N 0.87056 0.66068 0.78192 0.0
N3045 N 0.83899 0.63651 0.79225 0.0
C3046 C 0.83424 0.6553 0.78472 0.0
C3047 C 0.85133 0.66847 0.77931 0.0
C3048 C 0.999 0.5996 0.10259 0.0
C3049 C 1.00129 0.57833 0.09849 0.0
C3050 C 0.9946 0.61342 0.08644 0.0
C3051 C 0.99344 0.60645 0.06566 0.0
H3052 H 1.00127 0.60564 0.11822 0.0
H3053 H 0.99228 0.62956 0.09016 0.0
S3054 S 0.99954 0.5525 0.04673 0.0
N3055 N 1.00178 0.55112 0.07219 0.0
N3056 N 0.99576 0.5771 0.04189 0.0
C3057 C 0.99609 0.5853 0.06146 0.0
C3058 C 0.99936 0.57125 0.07783 0.0
C3059 C 0.19014 0.2432 0.8518 0.0
C3060 C 0.20517 0.25842 0.84733 0.0
C3061 C 0.17568 0.2363 0.8365 0.0
C3062 C 0.17536 0.24494 0.81656 0.0
H3063 H 0.18941 0.23674 0.86716 0.0
H3064 H 0.1648 0.22408 0.84022 0.0
S3065 S 0.21297 0.28262 0.79572 0.0
N3066 N 0.22042 0.27929 0.81993 0.0
N3067 N 0.19212 0.26794 0.79259 0.0
C3068 C 0.19044 0.2597 0.8118 0.0
C3069 C 0.20564 0.26596 0.82678 0.0
C3070 C 0.53721 0.44735 0.56105 0.0
C3071 C 0.53258 0.42607 0.55824 0.0
C3072 C 0.53337 0.45787 0.57971 0.0
C3073 C 0.52359 0.44805 0.59623 0.0
H3074 H 0.54331 0.45642 0.54848 0.0
H3075 H 0.53642 0.47435 0.5805 0.0
S3076 S 0.50704 0.39314 0.59743 0.0
N3077 N 0.51797 0.39555 0.57447 0.0
N3078 N 0.50862 0.41616 0.60876 0.0
C3079 C 0.51857 0.42696 0.59386 0.0
C3080 C 0.52335 0.41586 0.57506 0.0
C3081 C 0.35796 0.78189 0.32841 0.0
C3082 C 0.34866 0.78804 0.30972 0.0
C3083 C 0.34579 0.77653 0.34568 0.0
C3084 C 0.32401 0.77777 0.34501 0.0
H3085 H 0.37466 0.78104 0.32961 0.0
H3086 H 0.35337 0.77063 0.35935 0.0
S3087 S 0.29197 0.79087 0.29934 0.0
N3088 N 0.31607 0.79298 0.2912 0.0
N3089 N 0.2937 0.78458 0.32398 0.0
C3090 C 0.31463 0.78409 0.32654 0.0
C3091 C 0.32679 0.78871 0.30883 0.0
C3092 C 0.98536 0.45654 0.44174 0.0
C3093 C 0.99596 0.448 0.42488 0.0
C3094 C 0.97919 0.44438 0.4583 0.0
C3095 C 0.98249 0.42281 0.45847 0.0
H3096 H 0.98359 0.47312 0.44309 0.0
H3097 H 0.97286 0.45244 0.47161 0.0
S3098 S 1.00826 0.39287 0.41657 0.0
N3099 N 1.00929 0.41696 0.40866 0.0
N3100 N 0.99586 0.39343 0.43892 0.0
C3101 C 0.99205 0.41391 0.44093 0.0
C3102 C 0.99906 0.4266 0.42432 0.0
C3103 C 0.32385 0.26487 0.2169 0.0
C3104 C 0.3271 0.26383 0.19531 0.0
C3105 C 0.33745 0.2556 0.23089 0.0
C3106 C 0.35504 0.24501 0.22397 0.0
H3107 H 0.31048 0.27277 0.22306 0.0
H3108 H 0.33388 0.25626 0.24729 0.0
S3109 S 0.3709 0.23763 0.16928 0.0
N3110 N 0.34954 0.25135 0.16777 0.0
N3111 N 0.37496 0.23365 0.19424 0.0
C3112 C 0.35862 0.24378 0.20253 0.0
C3113 C 0.34468 0.25321 0.18817 0.0
C3114 C 0.52597 0.58297 0.97028 0.0
C3115 C 0.53536 0.60161 0.96445 0.0
C3116 C 0.52149 0.56736 0.9557 0.0
C3117 C 0.52541 0.56991 0.93439 0.0
H3118 H 0.52253 0.58022 0.98646 0.0
H3119 H 0.51402 0.55339 0.96109 0.0
S3120 S 0.55272 0.61471 0.91158 0.0
N3121 N 0.55128 0.62071 0.93657 0.0
N3122 N 0.54119 0.59193 0.90856 0.0
C3123 C 0.53576 0.5881 0.92844 0.0
C3124 C 0.54099 0.60385 0.94358 0.0
C3125 C 0.18157 0.7646 0.68102 0.0
C3126 C 0.20308 0.76831 0.67971 0.0
C3127 C 0.17053 0.76939 0.69926 0.0
C3128 C 0.18076 0.77742 0.71705 0.0
H3129 H 0.17338 0.75733 0.66807 0.0
H3130 H 0.15392 0.76681 0.69943 0.0
S3131 S 0.23751 0.78745 0.72218 0.0
N3132 N 0.23427 0.77961 0.69788 0.0
N3133 N 0.21418 0.78706 0.7325 0.0
C3134 C 0.20245 0.78055 0.71599 0.0
C3135 C 0.2134 0.77647 0.69726 0.0
C3136 C 0.06782 0.98356 0.5825 0.0
C3137 C 0.06554 0.98981 0.60357 0.0
C3138 C 0.08535 0.98865 0.57093 0.0
C3139 C 0.10128 1.00098 0.57945 0.0
H3140 H 0.05552 0.97531 0.57431 0.0
H3141 H 0.08557 0.98436 0.55461 0.0
S3142 S 0.10389 0.02161 0.63345 0.0
N3143 N 0.08183 1.0084 0.63254 0.0
N3144 N 0.11413 0.01937 0.61011 0.0
C3145 C 0.09961 1.00724 0.60043 0.0
C3146 C 0.0819 1.0015 0.61255 0.0
C3147 C 0.77724 0.34944 0.34867 0.0
C3148 C 0.77622 0.34751 0.32687 0.0
C3149 C 0.78265 0.33251 0.36105 0.0
C3150 C 0.78642 0.31306 0.35193 0.0
H3151 H 0.77321 0.36389 0.35619 0.0
H3152 H 0.78381 0.33459 0.37772 0.0
S3153 S 0.78377 0.29973 0.29567 0.0
N3154 N 0.77903 0.32466 0.29688 0.0
N3155 N 0.78736 0.29271 0.31991 0.0
C3156 C 0.78494 0.31101 0.33017 0.0
C3157 C 0.78039 0.32825 0.31771 0.0
C3158 C 0.45906 0.04493 0.08525 0.0
C3159 C 0.46346 0.03672 0.10509 0.0
C3160 C 0.44163 0.03898 0.07354 0.0
C3161 C 0.4279 0.02388 0.08056 0.0
H3162 H 0.46967 0.05528 0.0777 0.0
H3163 H 0.43994 0.04496 0.05802 0.0
S3164 S 0.43016 0.99807 0.13139 0.0
N3165 N 0.45051 0.01378 0.13179 0.0
N3166 N 0.41869 1.0013 0.10872 0.0
C3167 C 0.43131 0.01587 0.10045 0.0
C3168 C 0.44883 0.02247 0.11286 0.0
C3169 C 0.74876 0.70963 0.82459 0.0
C3170 C 0.74358 0.70725 0.84555 0.0
C3171 C 0.75331 0.69259 0.81208 0.0
C3172 C 0.75303 0.67258 0.82011 0.0
H3173 H 0.7495 0.72484 0.81789 0.0
H3174 H 0.75812 0.69515 0.79623 0.0
S3175 S 0.73878 0.65795 0.87341 0.0
N3176 N 0.73686 0.68335 0.87343 0.0
N3177 N 0.74626 0.6511 0.84982 0.0
C3178 C 0.7473 0.66985 0.84081 0.0
C3179 C 0.74246 0.68728 0.8536 0.0
C3180 C 0.0944 0.03697 0.93214 0.0
C3181 C 0.09178 0.02064 0.94608 0.0
C3182 C 0.07806 0.04287 0.91882 0.0
C3183 C 0.05888 0.03212 0.91844 0.0
H3184 H 0.10912 0.04513 0.93144 0.0
H3185 H 0.08031 0.05603 0.90892 0.0
S3186 S 0.04264 0.99083 0.954 0.0
N3187 N 0.06676 0.99638 0.96082 0.0
N3188 N 0.03756 1.00593 0.93434 0.0
C3189 C 0.05596 0.01621 0.93252 0.0
C3190 C 0.07194 1.01094 0.94673 0.0
C3191 C 0.73453 0.31616 0.69862 0.0
C3192 C 0.73598 0.31756 0.67682 0.0
C3193 C 0.74092 0.33236 0.71177 0.0
C3194 C 0.74949 0.35049 0.70379 0.0
H3195 H 0.72913 0.3021 0.70576 0.0
H3196 H 0.74042 0.33014 0.7284 0.0
S3197 S 0.75671 0.36248 0.64834 0.0
N3198 N 0.7459 0.33925 0.64798 0.0
N3199 N 0.75921 0.36928 0.67307 0.0
C3200 C 0.7509 0.35239 0.68219 0.0
C3201 C 0.74394 0.33599 0.66864 0.0
C3202 C 0.45178 0.01762 0.44758 0.0
C3203 C 0.43225 1.00746 0.44916 0.0
C3204 C 0.46695 1.01114 0.43366 0.0
C3205 C 0.46408 0.99342 0.42131 0.0
H3206 H 0.45587 0.03064 0.45756 0.0
H3207 H 0.48164 0.01944 0.43349 0.0
S3208 S 0.41814 0.9585 0.42141 0.0
N3209 N 0.41195 0.97739 0.43766 0.0
N3210 N 0.44164 0.9641 0.413 0.0
C3211 C 0.44542 0.98215 0.4234 0.0
C3212 C 0.42936 0.9893 0.43703 0.0
C3213 C 0.78141 0.69411 0.20824 0.0
C3214 C 0.77112 0.67751 0.19829 0.0
C3215 C 0.78791 0.71136 0.19717 0.0
C3216 C 0.78486 0.71264 0.17548 0.0
H3217 H 0.78302 0.69446 0.225 0.0
H3218 H 0.7945 0.72423 0.20599 0.0
S3219 S 0.7599 0.67216 0.14204 0.0
N3220 N 0.7585 0.66286 0.16571 0.0
N3221 N 0.77203 0.69467 0.1444 0.0
C3222 C 0.77543 0.69557 0.16521 0.0
C3223 C 0.76835 0.67815 0.17669 0.0
C3224 C 0.59804 0.09779 0.99549 0.0
C3225 C 0.57919 0.09341 1.00552 0.0
C3226 C 0.61198 0.08182 0.99027 0.0
C3227 C 0.60791 0.0612 0.99581 0.0
H3228 H 0.60217 0.11358 0.99198 0.0
H3229 H 0.62588 0.08556 0.98174 0.0
S3230 S 0.56014 0.04145 0.02059 0.0
N3231 N 0.55644 0.06647 0.01867 0.0
N3232 N 0.58335 0.0373 1.01092 0.0
C3233 C 0.5891 0.05677 1.00566 0.0
C3234 C 0.57458 0.0726 1.00989 0.0
C3235 C 0.11196 0.44776 0.0325 0.0
C3236 C 0.10185 0.46659 0.03606 0.0
C3237 C 0.10059 0.42958 0.0274 0.0
C3238 C 0.07877 0.42958 0.02632 0.0
H3239 H 0.12869 0.44711 0.03352 0.0
H3240 H 0.1089 0.41563 0.02361 0.0
S3241 S 0.04512 0.47515 0.03238 0.0
N3242 N 0.06881 0.48428 0.03639 0.0
N3243 N 0.04771 0.45016 0.02812 0.0
C3244 C 0.0686 0.44828 0.03002 0.0
C3245 C 0.08005 0.46675 0.03449 0.0
C3246 C 0.31254 0.34349 0.7697 0.0
C3247 C 0.31628 0.35637 0.78692 0.0
C3248 C 0.32692 0.32883 0.76351 0.0
C3249 C 0.34651 0.32695 0.77331 0.0
H3250 H 0.29777 0.34388 0.7616 0.0
H3251 H 0.32229 0.31865 0.75087 0.0
S3252 S 0.3627 0.35567 0.82114 0.0
N3253 N 0.33956 0.36485 0.81565 0.0
N3254 N 0.36781 0.3385 0.80269 0.0
C3255 C 0.35026 0.33946 0.79106 0.0
C3256 C 0.33498 0.35397 0.798 0.0
C3257 C 0.43084 0.56005 0.51361 0.0
C3258 C 0.42056 0.56106 0.53254 0.0
C3259 C 0.44451 0.57565 0.50768 0.0
C3260 C 0.44801 0.59399 0.51971 0.0
H3261 H 0.42929 0.54641 0.50373 0.0
H3262 H 0.45271 0.57269 0.49345 0.0
S3263 S 0.42547 0.60334 0.57189 0.0
N3264 N 0.41576 0.58065 0.56457 0.0
N3265 N 0.44015 0.61118 0.55257 0.0
C3266 C 0.43781 0.59508 0.53901 0.0
C3267 C 0.42435 0.57851 0.54549 0.0
C3268 C 0.67457 0.18127 0.7707 0.0
C3269 C 0.67612 0.20285 0.76877 0.0
C3270 C 0.69218 0.16945 0.77545 0.0
C3271 C 0.71185 0.17888 0.77777 0.0
H3272 H 0.65986 0.17347 0.76788 0.0
H3273 H 0.69045 0.15294 0.77719 0.0
S3274 S 0.72424 0.23457 0.7719 0.0
N3275 N 0.69888 0.2329 0.76876 0.0
N3276 N 0.73188 0.21085 0.77624 0.0
C3277 C 0.71348 0.20038 0.77538 0.0
C3278 C 0.69565 0.21232 0.77133 0.0
C3279 C 0.95628 0.9513 0.51372 0.0
C3280 C 0.95405 0.9311 0.50521 0.0
C3281 C 0.94324 0.96725 0.50801 0.0
C3282 C 0.9278 0.96403 0.49298 0.0
H3283 H 0.96824 0.95487 0.52514 0.0
H3284 H 0.94568 0.98244 0.51496 0.0
S3285 S 0.91729 0.91562 0.46319 0.0
N3286 N 0.93599 0.90951 0.47955 0.0
N3287 N 0.91225 0.9402 0.46777 0.0
C3288 C 0.92603 0.94447 0.4833 0.0
C3289 C 0.93904 0.92789 0.48954 0.0
C3290 C 0.33118 0.6687 0.75286 0.0
C3291 C 0.31779 0.67418 0.73648 0.0
C3292 C 0.3472 0.68202 0.76002 0.0
C3293 C 0.35107 0.70127 0.75087 0.0
H3294 H 0.32904 0.6543 0.7608 0.0
H3295 H 0.35615 0.67759 0.77348 0.0
S3296 S 0.32251 0.72361 0.70699 0.0
N3297 N 0.31089 0.70132 0.71106 0.0
N3298 N 0.34154 0.7249 0.72409 0.0
C3299 C 0.33905 0.70655 0.73378 0.0
C3300 C 0.32233 0.69343 0.72672 0.0
C3301 C 0.19107 0.3324 0.25609 0.0
C3302 C 0.17464 0.33482 0.27013 0.0
C3303 C 0.20942 0.34417 0.25842 0.0
C3304 C 0.21164 0.35871 0.27473 0.0
H3305 H 0.19105 0.31933 0.2454 0.0
H3306 H 0.2228 0.33981 0.24937 0.0
S3307 S 0.17104 0.37457 0.31177 0.0
N3308 N 0.16006 0.35586 0.29771 0.0
N3309 N 0.19447 0.37788 0.30213 0.0
C3310 C 0.19402 0.36371 0.28636 0.0
C3311 C 0.17541 0.3518 0.28396 0.0
C3312 C 0.5217 0.92951 0.43208 0.0
C3313 C 0.52313 0.95122 0.43227 0.0
C3314 C 0.52611 0.91813 0.45007 0.0
C3315 C 0.53139 0.92816 0.46897 0.0
H3316 H 0.51657 0.92135 0.41814 0.0
H3317 H 0.52544 0.90144 0.44916 0.0
S3318 S 0.53474 0.98494 0.47793 0.0
N3319 N 0.52939 0.98223 0.45296 0.0
N3320 N 0.53598 0.96131 0.4869 0.0
C3321 C 0.53215 0.94994 0.46932 0.0
C3322 C 0.52855 0.96131 0.45097 0.0
C3323 C 0.33484 0.29211 0.70934 0.0
C3324 C 0.35553 0.28561 0.7123 0.0
C3325 C 0.32307 0.28619 0.69199 0.0
C3326 C 0.33098 0.27274 0.67698 0.0
H3327 H 0.3269 0.30098 0.72105 0.0
H3328 H 0.30693 0.29063 0.69138 0.0
S3329 S 0.38414 0.25189 0.67558 0.0
N3330 N 0.38383 0.26622 0.69701 0.0
N3331 N 0.36081 0.25361 0.66511 0.0
C3332 C 0.35169 0.2665 0.67902 0.0
C3333 C 0.36408 0.27313 0.69651 0.0
C3334 C 0.9918 0.10777 0.94684 0.0
C3335 C 0.99268 0.10022 0.96719 0.0
C3336 C 0.99585 0.09474 0.92951 0.0
C3337 C 1.00022 0.07367 0.93204 0.0
H3338 H 0.98788 0.12373 0.94432 0.0
H3339 H 0.99609 0.10127 0.91415 0.0
S3340 S 1.00414 0.04647 0.98207 0.0
N3341 N 0.99868 0.07046 0.98873 0.0
N3342 N 1.00494 0.04602 0.95648 0.0
C3343 C 1.00058 0.06601 0.95231 0.0
C3344 C 0.99723 0.07925 0.96976 0.0
C3345 C 0.21018 0.74891 0.19911 0.0
C3346 C 0.20243 0.75077 0.17879 0.0
C3347 C 0.1971 0.74449 0.21569 0.0
C3348 C 0.17564 0.74135 0.21274 0.0
H3349 H 0.22637 0.75232 0.20243 0.0
H3350 H 0.20382 0.74381 0.23111 0.0
S3351 S 0.1479 0.74211 0.16228 0.0
N3352 N 0.17214 0.74797 0.15639 0.0
N3353 N 0.14751 0.73856 0.18763 0.0
C3354 C 0.16776 0.74213 0.19239 0.0
C3355 C 0.18117 0.74698 0.17541 0.0
C3356 C 0.51407 0.07975 0.07601 0.0
C3357 C 0.52411 0.07822 0.09552 0.0
C3358 C 0.52021 0.09395 0.06122 0.0
C3359 C 0.53754 0.10671 0.06448 0.0
H3360 H 0.50134 0.06956 0.07172 0.0
H3361 H 0.51201 0.094 0.04648 0.0
S3362 S 0.57211 0.10698 0.11069 0.0
N3363 N 0.55366 0.09011 0.11636 0.0
N3364 N 0.56647 0.11557 0.08735 0.0
C3365 C 0.54876 0.10473 0.08318 0.0
C3366 C 0.5419 0.0907 0.09886 0.0
C3367 C 0.19019 0.27699 0.35321 0.0
C3368 C 0.2022 0.25952 0.34854 0.0
C3369 C 0.17715 0.28576 0.33806 0.0
C3370 C 0.17524 0.27711 0.31786 0.0
H3371 H 0.19064 0.28375 0.36868 0.0
H3372 H 0.16848 0.29941 0.34216 0.0
S3373 S 0.20565 0.23399 0.29619 0.0
N3374 N 0.21329 0.2362 0.32058 0.0
N3375 N 0.1879 0.25177 0.29333 0.0
C3376 C 0.18754 0.26025 0.31278 0.0
C3377 C 0.20125 0.25176 0.32776 0.0
C3378 C 1.00536 0.93714 0.55897 0.0
C3379 C 0.99501 0.9186 0.56337 0.0
C3380 C 1.01011 0.95154 0.57458 0.0
C3381 C 1.00545 0.94782 0.59554 0.0
H3382 H 1.00918 0.94087 0.54309 0.0
H3383 H 0.01808 0.96562 0.57026 0.0
S3384 S 0.97667 0.90241 0.61501 0.0
N3385 N 0.97825 0.89803 0.58971 0.0
N3386 N 0.98878 0.92466 0.61971 0.0
C3387 C 0.99462 0.92957 0.6002 0.0
C3388 C 0.98912 0.91503 0.58398 0.0
C3389 C 0.33603 0.73473 0.84292 0.0
C3390 C 0.33569 0.75531 0.84988 0.0
C3391 C 0.34905 0.72865 0.82657 0.0
C3392 C 0.36123 0.74315 0.81551 0.0
H3393 H 0.32495 0.72364 0.84883 0.0
H3394 H 0.34826 0.71262 0.82169 0.0
S3395 S 0.37005 0.79779 0.83247 0.0
N3396 N 0.35314 0.78865 0.84914 0.0
N3397 N 0.37491 0.77846 0.81635 0.0
C3398 C 0.36294 0.7632 0.82433 0.0
C3399 C 0.35084 0.76889 0.84201 0.0
C3400 C 0.45103 0.51513 0.91395 0.0
C3401 C 0.45926 0.53525 0.91555 0.0
C3402 C 0.43412 0.50901 0.9261 0.0
C3403 C 0.42559 0.52232 0.94137 0.0
H3404 H 0.45877 0.50342 0.90481 0.0
H3405 H 0.42929 0.49296 0.92518 0.0
S3406 S 0.4361 0.57858 0.94572 0.0
N3407 N 0.45234 0.57035 0.9278 0.0
N3408 N 0.42308 0.55796 0.9532 0.0
C3409 C 0.43145 0.54322 0.94072 0.0
C3410 C 0.44773 0.54982 0.92724 0.0
C3411 C 0.7576 0.17918 0.18009 0.0
C3412 C 0.7571 0.18069 0.20194 0.0
C3413 C 0.75216 0.19604 0.1676 0.0
C3414 C 0.7465 0.21508 0.1766 0.0
H3415 H 0.76291 0.16513 0.17266 0.0
H3416 H 0.75243 0.19419 0.15088 0.0
S3417 S 0.74473 0.22738 0.23315 0.0
N3418 N 0.7512 0.20285 0.23191 0.0
N3419 N 0.74208 0.23461 0.20886 0.0
C3420 C 0.74634 0.21674 0.19848 0.0
C3421 C 0.75129 0.19955 0.21101 0.0
C3422 C 0.06957 0.50007 0.46377 0.0
C3423 C 0.09052 0.49927 0.45798 0.0
C3424 C 0.05376 0.49526 0.44957 0.0
C3425 C 0.05822 0.48929 0.42903 0.0
H3426 H 0.06537 0.5055 0.47916 0.0
H3427 H 0.03782 0.49642 0.45462 0.0
S3428 S 0.11039 0.4824 0.40671 0.0
N3429 N 0.11494 0.49068 0.43074 0.0
N3430 N 0.08491 0.48096 0.40405 0.0
C3431 C 0.07902 0.48739 0.42325 0.0
C3432 C 0.09525 0.49242 0.43777 0.0
C3433 C 0.784 0.86273 0.69796 0.0
C3434 C 0.80311 0.87198 0.70399 0.0
C3435 C 0.78311 0.84358 0.68674 0.0
C3436 C 0.80128 0.83283 0.68127 0.0
H3437 H 0.76969 0.86944 0.70332 0.0
H3438 H 0.76812 0.83644 0.68373 0.0
S3439 S 0.85516 0.85104 0.69229 0.0
N3440 N 0.84052 0.86917 0.70256 0.0
N3441 N 0.83893 0.83406 0.68156 0.0
C3442 C 0.82037 0.84272 0.68609 0.0
C3443 C 0.82125 0.86195 0.69741 0.0
C3444 C 0.42948 0.50437 0.59563 0.0
C3445 C 0.42893 0.5004 0.57406 0.0
C3446 C 0.44674 0.49893 0.60781 0.0
C3447 C 0.46424 0.48986 0.59869 0.0
H3448 H 0.41679 0.5124 0.60297 0.0
H3449 H 0.44647 0.50206 0.62436 0.0
S3450 S 0.4712 0.47882 0.54221 0.0
N3451 N 0.44745 0.48775 0.54401 0.0
N3452 N 0.48041 0.47908 0.56614 0.0
C3453 C 0.4639 0.48636 0.57693 0.0
C3454 C 0.44612 0.49116 0.56484 0.0
C3455 C 0.77295 0.18382 0.84008 0.0
C3456 C 0.77376 0.18498 0.81828 0.0
C3457 C 0.77837 0.20096 0.85288 0.0
C3458 C 0.78425 0.21994 0.84425 0.0
H3459 H 0.76732 0.16985 0.84721 0.0
H3460 H 0.77781 0.1994 0.86957 0.0
S3461 S 0.78639 0.23145 0.78795 0.0
N3462 N 0.78003 0.20675 0.78871 0.0
N3463 N 0.78888 0.23913 0.81239 0.0
C3464 C 0.78466 0.22127 0.82241 0.0
C3465 C 0.77983 0.20377 0.80956 0.0
C3466 C 0.08037 0.53661 0.06986 0.0
C3467 C 0.09798 0.52798 0.07887 0.0
C3468 C 0.06294 0.54123 0.08172 0.0
C3469 C 0.06241 0.53811 0.1034 0.0
H3470 H 0.07944 0.53833 0.05317 0.0
H3471 H 0.04944 0.54673 0.07353 0.0
S3472 S 0.10513 0.51638 0.13456 0.0
N3473 N 0.11408 0.51621 0.11058 0.0
N3474 N 0.08174 0.52638 0.13337 0.0
C3475 C 0.08024 0.53002 0.11274 0.0
C3476 C 0.09792 0.52475 0.10041 0.0
C3477 C 0.74431 0.82802 0.31815 0.0
C3478 C 0.7533 0.846 0.32675 0.0
C3479 C 0.73995 0.81092 0.33038 0.0
C3480 C 0.74367 0.81111 0.35206 0.0
H3481 H 0.74206 0.82658 0.3015 0.0
H3482 H 0.73407 0.79715 0.3225 0.0
S3483 S 0.76695 0.85489 0.38216 0.0
N3484 N 0.76636 0.86311 0.35803 0.0
N3485 N 0.75665 0.83142 0.38152 0.0
C3486 C 0.75227 0.82926 0.36097 0.0
C3487 C 0.75728 0.8466 0.34826 0.0
C3488 C 0.92627 0.4296 0.52483 0.0
C3489 C 0.94802 0.42977 0.52311 0.0
C3490 C 0.91547 0.44754 0.53078 0.0
C3491 C 0.92607 0.46634 0.53472 0.0
H3492 H 0.91751 0.41576 0.52069 0.0
H3493 H 0.89876 0.44677 0.53208 0.0
S3494 S 0.98283 0.4753 0.53006 0.0
N3495 N 0.97957 0.45044 0.52494 0.0
N3496 N 0.95949 0.48417 0.535 0.0
C3497 C 0.94782 0.46665 0.53274 0.0
C3498 C 0.95872 0.44838 0.5273 0.0
C3499 C 0.43715 0.09917 0.49308 0.0
C3500 C 0.45423 0.09349 0.50538 0.0
C3501 C 0.42172 0.08445 0.48705 0.0
C3502 C 0.42242 0.06394 0.49404 0.0
H3503 H 0.43558 0.11501 0.48833 0.0
H3504 H 0.40928 0.08906 0.47685 0.0
S3505 S 0.46516 0.04043 0.52354 0.0
N3506 N 0.47228 0.06475 0.52094 0.0
N3507 N 0.44225 0.03841 0.51224 0.0
C3508 C 0.43952 0.05813 0.5059 0.0
C3509 C 0.45568 0.0725 0.51079 0.0
C3510 C 0.19846 0.20866 0.74984 0.0
C3511 C 0.18029 0.19958 0.75743 0.0
C3512 C 0.21552 0.19672 0.74443 0.0
C3513 C 0.21511 0.17497 0.74579 0.0
H3514 H 0.19998 0.22532 0.74933 0.0
H3515 H 0.22943 0.20481 0.73966 0.0
S3516 S 0.17059 0.14367 0.76415 0.0
N3517 N 0.16257 0.16772 0.7662 0.0
N3518 N 0.19432 0.14491 0.75471 0.0
C3519 C 0.19673 0.16562 0.75288 0.0
C3520 C 0.17939 0.17798 0.75888 0.0
C3521 C 0.09019 0.96976 1.00235 0.0
C3522 C 0.10493 0.96502 0.98724 0.0
C3523 C 0.07466 0.95566 1.0076 0.0
C3524 C 0.07384 0.93532 0.99922 0.0
H3525 H 0.08994 0.98504 1.00945 0.0
H3526 H 0.06324 0.96089 0.01866 0.0
S3527 S 0.10651 0.91674 0.95565 0.0
N3528 N 0.11547 0.94027 0.9608 0.0
N3529 N 0.08781 0.91248 0.97251 0.0
C3530 C 0.08792 0.9307 0.98317 0.0
C3531 C 0.10318 0.94572 0.97696 0.0
C3532 C 0.84914 0.35081 0.74906 0.0
C3533 C 0.84724 0.32966 0.75346 0.0
C3534 C 0.83144 0.36286 0.74526 0.0
C3535 C 0.81134 0.35425 0.74649 0.0
H3536 H 0.8643 0.35813 0.74907 0.0
H3537 H 0.83346 0.37892 0.74128 0.0
S3538 S 0.79806 0.30001 0.75893 0.0
N3539 N 0.82364 0.30083 0.75902 0.0
N3540 N 0.79069 0.32356 0.75334 0.0
C3541 C 0.80937 0.33323 0.75124 0.0
C3542 C 0.8272 0.32093 0.75429 0.0
C3543 C 0.59356 0.55917 0.01645 0.0
C3544 C 0.60475 0.56113 0.03497 0.0
C3545 C 0.57993 0.57442 1.01025 0.0
C3546 C 0.57768 0.59335 0.02142 0.0
H3547 H 0.59447 0.54512 1.00715 0.0
H3548 H 0.57078 0.57083 0.99651 0.0
S3549 S 0.6018 0.60457 0.07298 0.0
N3550 N 0.61082 0.58169 0.06629 0.0
N3551 N 0.58683 0.61173 0.05355 0.0
C3552 C 0.58845 0.5952 0.04051 0.0
C3553 C 0.6017 0.57893 0.04739 0.0
C3554 C 0.18049 0.8328 0.79125 0.0
C3555 C 0.17377 0.83196 0.77051 0.0
C3556 C 0.19658 0.84634 0.7976 0.0
C3557 C 0.20761 0.85855 0.78318 0.0
H3558 H 0.17478 0.82162 0.80221 0.0
H3559 H 0.2017 0.84564 0.8136 0.0
S3560 S 0.19047 0.86732 0.72891 0.0
N3561 N 0.17411 0.84976 0.73758 0.0
N3562 N 0.20655 0.87255 0.74835 0.0
C3563 C 0.19876 0.86015 0.76325 0.0
C3564 C 0.18133 0.84747 0.75726 0.0
C3565 C 0.32805 0.19955 0.27822 0.0
C3566 C 0.34754 0.19114 0.27406 0.0
C3567 C 0.31114 0.18704 0.28282 0.0
C3568 C 0.31296 0.16555 0.28439 0.0
H3569 H 0.32559 0.21599 0.27684 0.0
H3570 H 0.29635 0.19434 0.28493 0.0
S3571 S 0.36108 0.1359 0.27716 0.0
N3572 N 0.36815 0.16004 0.27271 0.0
N3573 N 0.33613 0.13637 0.28282 0.0
C3574 C 0.33253 0.15685 0.28123 0.0
C3575 C 0.34992 0.16971 0.27595 0.0
C3576 C 0.50094 0.07127 0.5826 0.0
C3577 C 0.50664 0.08092 0.60141 0.0
C3578 C 0.49744 0.08263 0.56484 0.0
C3579 C 0.49776 0.10437 0.56509 0.0
H3580 H 0.50086 0.05458 0.58117 0.0
H3581 H 0.49471 0.07413 0.55059 0.0
S3582 S 0.51168 0.13735 0.61068 0.0
N3583 N 0.51358 0.11356 0.61932 0.0
N3584 N 0.5042 0.13525 0.58613 0.0
C3585 C 0.50301 0.11442 0.58394 0.0
C3586 C 0.50784 0.10264 0.60204 0.0
C3587 C 0.69498 0.73463 0.31691 0.0
C3588 C 0.67394 0.74055 0.31545 0.0
C3589 C 0.70723 0.73922 0.33442 0.0
C3590 C 0.69945 0.75072 0.35113 0.0
H3591 H 0.70266 0.72721 0.30397 0.0
H3592 H 0.72351 0.73534 0.33402 0.0
S3593 S 0.64597 0.77027 0.35603 0.0
N3594 N 0.64584 0.75785 0.33344 0.0
N3595 N 0.66965 0.76808 0.36554 0.0
C3596 C 0.67856 0.75662 0.35028 0.0
C3597 C 0.66572 0.75133 0.33264 0.0
C3598 C 1.01126 0.92737 0.08743 0.0
C3599 C 0.02464 0.94192 0.0975 0.0
C3600 C 0.01791 0.91505 0.07072 0.0
C3601 C 0.03861 0.91561 0.06415 0.0
H3602 H 0.99494 0.92678 0.09118 0.0
H3603 H 1.00626 0.90646 0.06189 0.0
S3604 S 0.08184 0.9434 0.09158 0.0
N3605 N 0.06075 0.95194 0.10304 0.0
N3606 N 0.07379 0.92605 0.07421 0.0
C3607 C 0.05295 0.92663 0.07706 0.0
C3608 C 0.04591 0.94037 0.09314 0.0
C3609 C 0.86288 0.2779 0.82781 0.0
C3610 C 0.85545 0.29264 0.8138 0.0
C3611 C 0.85074 0.271 0.84454 0.0
C3612 C 0.8309 0.279 0.84846 0.0
H3613 H 0.87788 0.27099 0.82553 0.0
H3614 H 0.85643 0.25846 0.85381 0.0
S3615 S 0.80354 0.31761 0.8174 0.0
N3616 N 0.82569 0.31429 0.80543 0.0
N3617 N 0.80458 0.30274 0.83779 0.0
C3618 C 0.82375 0.29452 0.8356 0.0
C3619 C 0.83551 0.30092 0.81806 0.0
C3620 C 0.51251 0.93288 0.96436 0.0
C3621 C 0.49547 0.91967 0.96118 0.0
C3622 C 0.51858 0.94686 0.9493 0.0
C3623 C 0.50877 0.94767 0.92957 0.0
H3624 H 0.52044 0.93337 0.97925 0.0
H3625 H 0.53099 0.9575 0.95359 0.0
S3626 S 0.46172 0.91726 0.91442 0.0
N3627 N 0.46716 0.9095 0.93811 0.0
N3628 N 0.47987 0.93438 0.90858 0.0
C3629 C 0.49136 0.9346 0.92629 0.0
C3630 C 0.48456 0.92086 0.94225 0.0
C3631 C 0.83225 0.7393 0.72171 0.0
C3632 C 0.85417 0.74095 0.72157 0.0
C3633 C 0.81985 0.74976 0.70757 0.0
C3634 C 0.82869 0.76282 0.69293 0.0
H3635 H 0.82436 0.73018 0.73321 0.0
H3636 H 0.80315 0.74823 0.70861 0.0
S3637 S 0.88476 0.77298 0.68541 0.0
N3638 N 0.88397 0.7565 0.70467 0.0
N3639 N 0.86041 0.77715 0.67881 0.0
C3640 C 0.85041 0.76485 0.69246 0.0
C3641 C 0.86319 0.75379 0.70663 0.0
C3642 C 0.04435 0.07785 0.46451 0.0
C3643 C 0.03929 0.09907 0.4657 0.0
C3644 C 0.03931 0.06543 0.44718 0.0
C3645 C 0.02835 0.07335 0.43038 0.0
H3646 H 0.05157 0.07029 0.47748 0.0
H3647 H 0.04266 0.04911 0.44763 0.0
S3648 S 1.01049 0.12715 0.42515 0.0
N3649 N 0.02286 0.12728 0.44768 0.0
N3650 N 1.01198 0.10334 0.41581 0.0
C3651 C 0.02309 0.09436 0.43109 0.0
C3652 C 0.02874 0.10729 0.44857 0.0
C3653 C 0.69637 0.28977 0.20912 0.0
C3654 C 0.67548 0.28316 0.21146 0.0
C3655 C 0.70795 0.28478 0.1916 0.0
C3656 C 0.69969 0.27214 0.17576 0.0
H3657 H 0.70453 0.29807 0.22141 0.0
H3658 H 0.72419 0.28929 0.19138 0.0
S3659 S 0.6461 0.25105 0.17288 0.0
N3660 N 0.64676 0.26437 0.19496 0.0
N3661 N 0.66945 0.25338 0.16274 0.0
C3662 C 0.67888 0.26565 0.17733 0.0
C3663 C 0.66665 0.27139 0.195 0.0
C3664 C 0.58056 0.49849 0.11025 0.0
C3665 C 0.56312 0.48856 0.10117 0.0
C3666 C 0.59773 0.50439 0.09814 0.0
C3667 C 0.59834 0.50007 0.07663 0.0
H3668 H 0.58081 0.50205 0.12673 0.0
H3669 H 0.61025 0.51315 0.10546 0.0
S3670 S 0.55634 0.47609 0.04478 0.0
N3671 N 0.54717 0.47644 0.0686 0.0
N3672 N 0.57996 0.48597 0.04668 0.0
C3673 C 0.58129 0.48985 0.06746 0.0
C3674 C 0.56357 0.48455 0.07948 0.0
C3675 C 0.27742 0.82588 0.85193 0.0
C3676 C 0.28088 0.80626 0.84302 0.0
C3677 C 0.27325 0.84302 0.83938 0.0
C3678 C 0.273 0.84119 0.81754 0.0
H3679 H 0.27812 0.82803 0.86862 0.0
H3680 H 0.26955 0.85761 0.84679 0.0
S3681 S 0.28035 0.79323 0.78664 0.0
N3682 N 0.28275 0.78601 0.81096 0.0
N3683 N 0.27611 0.81827 0.7877 0.0
C3684 C 0.27667 0.82176 0.80856 0.0
C3685 C 0.28021 0.80431 0.82119 0.0
C3686 C 0.94975 0.52777 0.61195 0.0
C3687 C 0.96578 0.53982 0.6034 0.0
C3688 C 0.93239 0.52145 0.59996 0.0
C3689 C 0.93005 0.52748 0.57918 0.0
H3690 H 0.95086 0.52266 0.62782 0.0
H3691 H 0.92121 0.51093 0.60665 0.0
S3692 S 0.96738 0.55799 0.54863 0.0
N3693 N 0.97829 0.55616 0.57171 0.0
N3694 N 0.94482 0.54601 0.5505 0.0
C3695 C 0.94535 0.54016 0.57068 0.0
C3696 C 0.96342 0.54583 0.58239 0.0
C3697 C 0.2371 0.17961 0.3595 0.0
C3698 C 0.24107 0.20079 0.35694 0.0
C3699 C 0.24316 0.16514 0.34417 0.0
C3700 C 0.2524 0.17173 0.32566 0.0
H3701 H 0.22948 0.17427 0.37337 0.0
H3702 H 0.2411 0.14883 0.34699 0.0
S3703 S 0.26391 0.22574 0.31095 0.0
N3704 N 0.25472 0.22754 0.33472 0.0
N3705 N 0.26292 0.20094 0.30486 0.0
C3706 C 0.25502 0.19301 0.32257 0.0
C3707 C 0.25031 0.20738 0.33854 0.0
C3708 C 0.57352 0.53692 0.45835 0.0
C3709 C 0.59058 0.52646 0.45025 0.0
C3710 C 0.55638 0.54143 0.44582 0.0
C3711 C 0.55553 0.53609 0.42439 0.0
H3712 H 0.57282 0.54044 0.47483 0.0
H3713 H 0.5433 0.54863 0.45334 0.0
S3714 S 0.59669 0.50851 0.3957 0.0
N3715 N 0.60573 0.5105 0.4197 0.0
N3716 N 0.57397 0.51998 0.39578 0.0
C3717 C 0.57279 0.52597 0.41602 0.0
C3718 C 0.59018 0.52105 0.42897 0.0
C3719 C 0.24363 0.83222 0.20818 0.0
C3720 C 0.25023 0.85061 0.19907 0.0
C3721 C 0.23896 0.8147 0.1961 0.0
C3722 C 0.23998 0.81484 0.1742 0.0
H3723 H 0.24359 0.8309 0.22493 0.0
H3724 H 0.23512 0.80066 0.20419 0.0
S3725 S 0.25546 0.85977 0.14276 0.0
N3726 N 0.25757 0.86828 0.16702 0.0
N3727 N 0.24723 0.83558 0.14396 0.0
C3728 C 0.24589 0.83342 0.16482 0.0
C3729 C 0.25125 0.85125 0.17731 0.0
C3730 C 0.97365 0.50594 0.94231 0.0
C3731 C 0.96977 0.49165 0.9262 0.0
C3732 C 0.95793 0.51197 0.95585 0.0
C3733 C 0.93729 0.50458 0.95355 0.0
H3734 H 0.98916 0.51213 0.94481 0.0
H3735 H 0.96208 0.52276 0.96825 0.0
S3736 S 0.91992 0.4646 0.91514 0.0
N3737 N 0.94475 0.46816 0.91 0.0
N3738 N 0.91456 0.48056 0.9346 0.0
C3739 C 0.93342 0.48955 0.9379 0.0
C3740 C 0.94976 0.48295 0.92438 0.0
C3741 C 0.28704 0.2145 0.69964 0.0
C3742 C 0.28625 0.21268 0.6778 0.0
C3743 C 0.28243 0.19782 0.71234 0.0
C3744 C 0.27645 0.17853 0.70389 0.0
H3745 H 0.2909 0.22919 0.70706 0.0
H3746 H 0.2822 0.2004 0.729 0.0
S3747 S 0.27268 0.16509 0.64787 0.0
N3748 N 0.28008 0.1896 0.6483 0.0
N3749 N 0.27034 0.15831 0.67237 0.0
C3750 C 0.27589 0.17626 0.68214 0.0
C3751 C 0.28093 0.19331 0.66907 0.0
C3752 C 0.11187 0.5747 0.51054 0.0
C3753 C 0.1101 0.56599 0.49051 0.0
C3754 C 0.09999 0.5918 0.51647 0.0
C3755 C 0.08484 0.60012 0.50307 0.0
H3756 H 0.12097 0.56722 0.52234 0.0
H3757 H 0.10099 0.59701 0.5325 0.0
S3758 S 0.08017 0.58806 0.44681 0.0
N3759 N 0.09772 0.57187 0.45526 0.0
N3760 N 0.07301 0.60177 0.4673 0.0
C3761 C 0.08534 0.59369 0.48218 0.0
C3762 C 0.09847 0.57711 0.47576 0.0
C3763 C 0.61104 0.95076 0.51782 0.0
C3764 C 0.60916 0.95977 0.53769 0.0
C3765 C 0.59889 0.93354 0.51175 0.0
C3766 C 0.58332 0.92537 0.52476 0.0
H3767 H 0.62058 0.95795 0.50618 0.0
H3768 H 0.60012 0.92806 0.49585 0.0
S3769 S 0.57777 0.93815 0.58072 0.0
N3770 N 0.59593 0.95422 0.57265 0.0
N3771 N 0.57064 0.92428 0.56012 0.0
C3772 C 0.58346 0.9322 0.54555 0.0
C3773 C 0.59687 0.94887 0.5522 0.0
C3774 C 0.81214 0.82928 0.27992 0.0
C3775 C 0.81376 0.85071 0.28357 0.0
C3776 C 0.82955 0.81744 0.27556 0.0
C3777 C 0.84939 0.82649 0.27433 0.0
H3778 H 0.79715 0.82156 0.28038 0.0
H3779 H 0.82734 0.80115 0.27204 0.0
S3780 S 0.86234 0.8817 0.2835 0.0
N3781 N 0.83698 0.88035 0.28679 0.0
N3782 N 0.86983 0.85805 0.27748 0.0
C3783 C 0.85139 0.84783 0.27813 0.0
C3784 C 0.83354 0.85995 0.28294 0.0
C3785 C 0.95623 0.07457 0.02724 0.0
C3786 C 0.94984 0.09521 0.0269 0.0
C3787 C 0.94228 0.05853 0.03109 0.0
C3788 C 0.92138 0.06234 0.03562 0.0
H3789 H 0.97202 0.07067 0.02332 0.0
H3790 H 0.94798 0.04287 0.03072 0.0
S3791 S 0.89722 0.11371 0.03936 0.0
N3792 N 0.92139 0.11877 0.03251 0.0
N3793 N 0.89531 0.08837 0.04151 0.0
C3794 C 0.9149 0.08292 0.03654 0.0
C3795 C 0.92912 0.09942 0.0319 0.0
C3796 C 0.19444 0.66719 0.27431 0.0
C3797 C 0.2114 0.67608 0.2852 0.0
C3798 C 0.17723 0.6791 0.26866 0.0
C3799 C 0.17607 0.70018 0.27417 0.0
H3800 H 0.19472 0.6511 0.26957 0.0
H3801 H 0.16529 0.67208 0.25889 0.0
S3802 S 0.21631 0.73144 0.30166 0.0
N3803 N 0.22608 0.70811 0.30001 0.0
N3804 N 0.19308 0.72946 0.29096 0.0
C3805 C 0.19239 0.70904 0.28575 0.0
C3806 C 0.21022 0.69731 0.29078 0.0
C3807 C 0.41927 0.44894 0.99721 0.0
C3808 C 0.42955 0.46775 0.99323 0.0
C3809 C 0.4305 0.43083 1.00107 0.0
C3810 C 0.45232 0.43073 1.00033 0.0
H3811 H 0.40251 0.44823 0.99731 0.0
H3812 H 0.42212 0.41699 1.00538 0.0
S3813 S 0.48664 0.47607 0.99207 0.0
N3814 N 0.46298 0.4853 0.99053 0.0
N3815 N 0.48369 0.45113 0.99602 0.0
C3816 C 0.46266 0.44935 0.99608 0.0
C3817 C 0.45141 0.46785 0.9931 0.0
C3818 C 0.85267 0.18694 0.24244 0.0
C3819 C 0.84933 0.20183 0.25819 0.0
C3820 C 0.83665 0.17312 0.23601 0.0
C3821 C 0.81707 0.17336 0.2456 0.0
H3822 H 0.86771 0.18586 0.23517 0.0
H3823 H 0.83949 0.16236 0.22335 0.0
S3824 S 0.79925 0.21108 0.28508 0.0
N3825 N 0.82358 0.21767 0.28083 0.0
N3826 N 0.79467 0.19063 0.27012 0.0
C3827 C 0.81345 0.18836 0.26094 0.0
C3828 C 0.82922 0.20287 0.26682 0.0
C3829 C 0.69424 0.85851 0.78628 0.0
C3830 C 0.71327 0.85525 0.77635 0.0
C3831 C 0.67632 0.84769 0.77981 0.0
C3832 C 0.67726 0.83235 0.76407 0.0
H3833 H 0.69373 0.86756 0.80056 0.0
H3834 H 0.66283 0.84848 0.78971 0.0
S3835 S 0.72118 0.82429 0.72838 0.0
N3836 N 0.7303 0.84088 0.74603 0.0
N3837 N 0.69682 0.8195 0.73471 0.0
C3838 C 0.69503 0.83207 0.75164 0.0
C3839 C 0.71316 0.84358 0.75781 0.0
C3840 C 0.90614 0.41903 0.0502 0.0
C3841 C 0.90476 0.42758 0.03032 0.0
C3842 C 0.92046 0.40345 0.05471 0.0
C3843 C 0.93435 0.39576 0.03965 0.0
H3844 H 0.89571 0.42405 0.06233 0.0
H3845 H 0.9206 0.39745 0.07029 0.0
S3846 S 0.93833 0.41428 0.98556 0.0
N3847 N 0.91929 0.42788 0.99563 0.0
N3848 N 0.94638 0.39906 1.00417 0.0
C3849 C 0.93351 0.40462 0.01983 0.0
C3850 C 0.91872 0.42034 0.01517 0.0
C3851 C 0.88448 0.65887 0.28977 0.0
C3852 C 0.881 0.68005 0.28737 0.0
C3853 C 0.86815 0.64431 0.28843 0.0
C3854 C 0.84746 0.6502 0.28485 0.0
H3855 H 0.89997 0.65348 0.29297 0.0
H3856 H 0.87185 0.62821 0.29047 0.0
S3857 S 0.82967 0.70401 0.27938 0.0
N3858 N 0.85506 0.70637 0.28228 0.0
N3859 N 0.8244 0.67901 0.27983 0.0
C3860 C 0.84372 0.67137 0.28239 0.0
C3861 C 0.86044 0.68626 0.28367 0.0
C3862 C 0.62163 0.61663 0.51385 0.0
C3863 C 0.62327 0.59849 0.52566 0.0
C3864 C 0.60684 0.63192 0.51851 0.0
C3865 C 0.59303 0.62968 0.53514 0.0
H3866 H 0.63232 0.6194 0.5013 0.0
H3867 H 0.60671 0.64587 0.50951 0.0
S3868 S 0.58879 0.58411 0.56908 0.0
N3869 N 0.60833 0.57865 0.5536 0.0
N3870 N 0.58062 0.60703 0.56211 0.0
C3871 C 0.59389 0.61128 0.54643 0.0
C3872 C 0.60894 0.5958 0.54177 0.0
C3873 C 0.66096 0.38036 0.78988 0.0
C3874 C 0.67896 0.37437 0.77925 0.0
C3875 C 0.64444 0.36636 0.79317 0.0
C3876 C 0.64512 0.34572 0.78593 0.0
H3877 H 0.65953 0.3961 0.79556 0.0
H3878 H 0.63099 0.37178 0.80151 0.0
S3879 S 0.68977 0.32179 0.75903 0.0
N3880 N 0.69701 0.34616 0.7625 0.0
N3881 N 0.66625 0.31978 0.76885 0.0
C3882 C 0.66322 0.3395 0.77549 0.0
C3883 C 0.68003 0.35381 0.77211 0.0
C3884 C 0.90777 0.61691 0.51426 0.0
C3885 C 0.90575 0.59825 0.50265 0.0
C3886 C 0.92313 0.63194 0.50962 0.0
C3887 C 0.93707 0.62895 0.49317 0.0
H3888 H 0.89691 0.62034 0.52654 0.0
H3889 H 0.92351 0.64632 0.51841 0.0
S3890 S 0.94036 0.58188 0.45977 0.0
N3891 N 0.92062 0.5771 0.4752 0.0
N3892 N 0.94904 0.60512 0.46653 0.0
C3893 C 0.93582 0.61003 0.48212 0.0
C3894 C 0.92032 0.59477 0.48684 0.0
C3895 C 0.66892 0.69004 0.73242 0.0
C3896 C 0.64767 0.68617 0.73607 0.0
C3897 C 0.684 0.67463 0.73529 0.0
C3898 C 0.67844 0.65477 0.74202 0.0
H3899 H 0.67386 0.70496 0.72682 0.0
H3900 H 0.7001 0.6783 0.73225 0.0
S3901 S 0.62491 0.63654 0.75291 0.0
N3902 N 0.62196 0.66076 0.74603 0.0
N3903 N 0.65004 0.63215 0.75194 0.0
C3904 C 0.65728 0.65083 0.74583 0.0
C3905 C 0.64198 0.66639 0.74267 0.0
C3906 C 0.61626 0.39076 0.99546 0.0
C3907 C 0.59501 0.39461 0.99275 0.0
C3908 C 0.63045 0.40687 1.00028 0.0
C3909 C 0.62404 0.42752 1.00197 0.0
H3910 H 0.62195 0.37518 0.99384 0.0
H3911 H 0.64666 0.4032 1.00225 0.0
S3912 S 0.57055 0.44609 0.99437 0.0
N3913 N 0.56846 0.42079 0.99129 0.0
N3914 N 0.59526 0.45103 0.99948 0.0
C3915 C 0.60297 0.43164 0.99885 0.0
C3916 C 0.58843 0.4152 0.99447 0.0
C3917 C 0.88082 0.36505 0.22832 0.0
C3918 C 0.88209 0.34593 0.2385 0.0
C3919 C 0.86448 0.3789 0.23203 0.0
C3920 C 0.84859 0.37442 0.24619 0.0
H3921 H 0.89263 0.36946 0.21733 0.0
H3922 H 0.86453 0.39347 0.22404 0.0
S3923 S 0.84301 0.32592 0.27547 0.0
N3924 N 0.86471 0.32285 0.26236 0.0
N3925 N 0.83448 0.34904 0.26961 0.0
C3926 C 0.84941 0.35535 0.25629 0.0
C3927 C 0.86596 0.34111 0.25239 0.0
C3928 C 0.01747 0.91133 0.41313 0.0
C3929 C 0.03303 0.90407 0.42669 0.0
C3930 C 0.02184 0.92601 0.39765 0.0
C3931 C 0.04208 0.93374 0.39465 0.0
H3932 H 1.00176 0.90541 0.41425 0.0
H3933 H 1.00939 0.93085 0.38757 0.0
S3934 S 0.0881 0.92145 0.42708 0.0
N3935 N 0.06921 0.90741 0.43695 0.0
N3936 N 0.07757 0.93389 0.4076 0.0
C3937 C 0.05763 0.92699 0.40842 0.0
C3938 C 0.05309 0.9125 0.42445 0.0
C3939 C 0.3549 0.80404 0.65594 0.0
C3940 C 0.34398 0.78808 0.64514 0.0
C3941 C 0.36952 0.79997 0.67166 0.0
C3942 C 0.37431 0.77969 0.67737 0.0
H3943 H 0.35207 0.82002 0.65233 0.0
H3944 H 0.37743 0.81295 0.67914 0.0
S3945 S 0.34996 0.73214 0.65455 0.0
N3946 N 0.33877 0.75102 0.64195 0.0
N3947 N 0.36641 0.74332 0.67108 0.0
C3948 C 0.3634 0.76353 0.6669 0.0
C3949 C 0.34825 0.76772 0.65098 0.0
C3950 C 0.47978 0.11424 0.92612 0.0
C3951 C 0.49987 0.12287 0.92777 0.0
C3952 C 0.47458 0.09941 0.91068 0.0
C3953 C 0.48929 0.09221 0.89626 0.0
H3954 H 0.4678 0.11923 0.93665 0.0
H3955 H 0.45882 0.09346 0.91013 0.0
S3956 S 0.54424 0.1092 0.89381 0.0
N3957 N 0.53473 0.12268 0.91344 0.0
N3958 N 0.52494 0.09454 0.88487 0.0
C3959 C 0.50957 0.10021 0.89799 0.0
C3960 C 0.51484 0.11557 0.91357 0.0
C3961 C 0.16363 0.23318 0.17689 0.0
C3962 C 0.15813 0.25345 0.18258 0.0
C3963 C 0.1787 0.22918 0.16165 0.0
C3964 C 0.18931 0.2452 0.15138 0.0
H3965 H 0.15595 0.22015 0.18398 0.0
H3966 H 0.1821 0.21322 0.15799 0.0
S3967 S 0.18173 0.30116 0.16117 0.0
N3968 N 0.16521 0.28989 0.17699 0.0
N3969 N 0.19368 0.2823 0.14876 0.0
C3970 C 0.18444 0.26557 0.1573 0.0
C3971 C 0.16885 0.26969 0.17271 0.0
C3972 C 0.056 0.10673 0.12282 0.0
C3973 C 0.04072 0.09265 0.12978 0.0
C3974 C 0.0517 0.12167 0.10778 0.0
C3975 C 0.03177 0.12362 0.09909 0.0
H3976 H 0.07163 0.10624 0.12898 0.0
H3977 H 0.06404 0.13212 0.1033 0.0
S3978 S 0.98629 0.09018 0.11073 0.0
N3979 N 1.00489 0.08124 0.12571 0.0
N3980 N 0.99669 0.10962 0.09801 0.0
C3981 C 0.01634 0.1096 0.10567 0.0
C3982 C 0.02082 0.09409 0.12079 0.0
C3983 C 0.15532 0.79953 0.35248 0.0
C3984 C 0.15191 0.77924 0.34494 0.0
C3985 C 0.16897 0.80385 0.36916 0.0
C3986 C 0.18017 0.78818 0.37905 0.0
H3987 H 0.14708 0.81224 0.34571 0.0
H3988 H 0.17086 0.81979 0.3742 0.0
S3989 S 0.17758 0.73248 0.36487 0.0
N3990 N 0.16131 0.74326 0.34855 0.0
N3991 N 0.18719 0.75148 0.37953 0.0
C3992 C 0.17724 0.76786 0.37143 0.0
C3993 C 0.1631 0.76339 0.35455 0.0
C3994 C 0.48661 0.8982 0.616 0.0
C3995 C 0.49871 0.90307 0.59863 0.0
C3996 C 0.48314 0.9128 0.63203 0.0
C3997 C 0.49162 0.93296 0.63144 0.0
H3998 H 0.47995 0.88286 0.61734 0.0
H3999 H 0.4737 0.90821 0.64503 0.0
S4000 S 0.52252 0.95409 0.58804 0.0
N4001 N 0.51812 0.92977 0.58108 0.0
N4002 N 0.51141 0.9573 0.61088 0.0
C4003 C 0.50345 0.9381 0.61387 0.0
C4004 C 0.50704 0.92315 0.59759 0.0
C4005 C 0.34608 0.25636 0.87401 0.0
C4006 C 0.34852 0.23919 0.88698 0.0
C4007 C 0.35963 0.26011 0.85727 0.0
C4008 C 0.37594 0.24663 0.85244 0.0
H4009 H 0.33347 0.26692 0.87665 0.0
H4010 H 0.35712 0.27354 0.84784 0.0
S4011 S 0.39039 0.20043 0.88221 0.0
N4012 N 0.36975 0.20931 0.89424 0.0
N4013 N 0.39453 0.21615 0.86277 0.0
C4014 C 0.37875 0.22962 0.86537 0.0
C4015 C 0.36526 0.22597 0.88259 0.0
C4016 C 0.40811 0.01899 0.90259 0.0
C4017 C 0.42855 0.02661 0.9055 0.0
C4018 C 0.39232 0.02323 0.91705 0.0
C4019 C 0.39644 0.03482 0.93526 0.0
H4020 H 0.4041 1.01022 0.88865 0.0
H4021 H 0.3767 0.01774 0.91375 0.0
S4022 S 0.44755 0.057 0.95112 0.0
N4023 N 0.45201 0.04584 0.92837 0.0
N4024 N 0.42273 0.0529 0.95594 0.0
C4025 C 0.41691 0.04197 0.93867 0.0
C4026 C 0.43285 0.03811 0.92371 0.0
C4027 C 0.91917 0.5118 0.11067 0.0
C4028 C 0.92751 0.49631 0.1233 0.0
C4029 C 0.90341 0.50736 0.09583 0.0
C4030 C 0.89489 0.48732 0.09331 0.0
H4031 H 0.92488 0.52752 0.11225 0.0
H4032 H 0.89766 0.5198 0.08648 0.0
S4033 S 0.91139 0.44109 0.12232 0.0
N4034 N 0.92606 0.46 0.13191 0.0
N4035 N 0.89665 0.4517 0.10454 0.0
C4036 C 0.90323 0.47169 0.10577 0.0
C4037 C 0.91944 0.47615 0.12058 0.0
C4038 C 0.78423 0.65912 0.37814 0.0
C4039 C 0.78201 0.68011 0.3733 0.0
C4040 C 0.78721 0.64383 0.36253 0.0
C4041 C 0.78741 0.64866 0.34124 0.0
H4042 H 0.7838 0.65446 0.3942 0.0
H4043 H 0.78916 0.628 0.36719 0.0
S4044 S 0.78291 0.70145 0.32029 0.0
N4045 N 0.78093 0.70498 0.34566 0.0
N4046 N 0.78576 0.67638 0.3164 0.0
C4047 C 0.78514 0.66963 0.33622 0.0
C4048 C 0.78262 0.68527 0.35218 0.0
C4049 C 0.62705 0.5503 0.60853 0.0
C4050 C 0.62943 0.53834 0.59016 0.0
C4051 C 0.61109 0.54628 0.62286 0.0
C4052 C 0.59676 0.52996 0.6197 0.0
H4053 H 0.63764 0.563 0.61198 0.0
H4054 H 0.61026 0.55583 0.63678 0.0
S4055 S 0.59435 0.49521 0.5734 0.0
N4056 N 0.61463 0.51031 0.56908 0.0
N4057 N 0.58517 0.50251 0.59621 0.0
C4058 C 0.59866 0.51803 0.60136 0.0
C4059 C 0.61479 0.52227 0.58658 0.0
C4060 C 0.22692 0.88093 0.36298 0.0
C4061 C 0.23684 0.88222 0.34355 0.0
C4062 C 0.23031 0.86434 0.37646 0.0
C4063 C 0.24381 0.84822 0.37119 0.0
H4064 H 0.21636 0.89288 0.36789 0.0
H4065 H 0.22255 0.86434 0.39131 0.0
S4066 S 0.27229 0.84284 0.32166 0.0
N4067 N 0.25984 0.86481 0.31937 0.0
N4068 N 0.26646 0.83406 0.34486 0.0
C4069 C 0.25372 0.84913 0.35184 0.0
C4070 C 0.25018 0.86597 0.33801 0.0
C4071 C 0.11279 0.97854 0.43045 0.0
C4072 C 0.13109 0.99052 0.43283 0.0
C4073 C 0.09749 0.9833 0.41563 0.0
C4074 C 0.09986 1.00005 0.40222 0.0
H4075 H 0.11033 0.96522 0.44009 0.0
H4076 H 0.08371 0.97366 0.41454 0.0
S4077 S 0.14522 0.03602 0.4017 0.0
N4078 N 0.15066 0.01995 0.42055 0.0
N4079 N 0.12234 0.02868 0.3924 0.0
C4080 C 0.11798 0.01239 0.40469 0.0
C4081 C 0.13347 1.00767 0.42001 0.0
C4082 C 0.77426 0.34683 0.1734 0.0
C4083 C 0.77962 0.34903 0.15236 0.0
C4084 C 0.7776 0.36309 0.18809 0.0
C4085 C 0.78637 0.3822 0.1823 0.0
H4086 H 0.76758 0.33241 0.17856 0.0
H4087 H 0.77376 0.36047 0.20418 0.0
S4088 S 0.80061 0.39662 0.1288 0.0
N4089 N 0.79247 0.37244 0.12635 0.0
N4090 N 0.79882 0.40264 0.15368 0.0
C4091 C 0.79121 0.38465 0.16122 0.0
C4092 C 0.78779 0.36821 0.14635 0.0
C4093 C 0.7344 0.67092 0.68795 0.0
C4094 C 0.74106 0.65147 0.68099 0.0
C4095 C 0.7388 0.68902 0.67687 0.0
C4096 C 0.74974 0.6888 0.65795 0.0
H4097 H 0.72538 0.67217 0.70202 0.0
H4098 H 0.73314 0.7035 0.68313 0.0
S4099 S 0.77224 0.64167 0.63392 0.0
N4100 N 0.7601 0.63296 0.65453 0.0
N4101 N 0.76856 0.66687 0.6339 0.0
C4102 C 0.75695 0.66939 0.65106 0.0
C4103 C 0.75252 0.65082 0.6625 0.0
C4104 C 0.10442 0.59772 1.00281 0.0
C4105 C 0.1253 0.5999 0.99687 0.0
C4106 C 0.09002 0.61372 0.9997 0.0
C4107 C 0.096 0.63252 0.99059 0.0
H4108 H 0.09916 0.58356 1.00987 0.0
H4109 H 0.07402 0.61114 1.00403 0.0
S4110 S 0.14938 0.64696 0.97511 0.0
N4111 N 0.15149 0.6231 0.98339 0.0
N4112 N 0.12467 0.65277 0.97731 0.0
C4113 C 0.11695 0.63499 0.9852 0.0
C4114 C 0.13153 0.61882 0.98844 0.0
C4115 C 0.15263 0.35682 0.7266 0.0
C4116 C 0.14696 0.34189 0.74135 0.0
C4117 C 0.16876 0.37131 0.7304 0.0
C4118 C 0.17988 0.37182 0.74927 0.0
H4119 H 0.1446 0.35736 0.71182 0.0
H4120 H 0.1722 0.38253 0.71861 0.0
S4121 S 0.17261 0.33546 0.79258 0.0
N4122 N 0.15497 0.328 0.77525 0.0
N4123 N 0.18476 0.35547 0.78253 0.0
C4124 C 0.17463 0.35691 0.76407 0.0
C4125 C 0.15837 0.34192 0.7601 0.0
C4126 C 0.41556 0.41693 0.50802 0.0
C4127 C 0.40039 0.42288 0.4935 0.0
C4128 C 0.43005 0.40128 0.50335 0.0
C4129 C 0.42972 0.39048 0.48411 0.0
H4130 H 0.41644 0.42463 0.52305 0.0
H4131 H 0.44164 0.39769 0.51491 0.0
S4132 S 0.39149 0.39864 0.44157 0.0
N4133 N 0.38518 0.41576 0.45958 0.0
N4134 N 0.41165 0.3864 0.45094 0.0
C4135 C 0.41412 0.39595 0.46974 0.0
C4136 C 0.3997 0.41207 0.47438 0.0
C4137 C 0.3684 0.6525 0.24318 0.0
C4138 C 0.34763 0.65886 0.24186 0.0
C4139 C 0.38498 0.66653 0.24061 0.0
C4140 C 0.38142 0.68758 0.23743 0.0
H4141 H 0.37186 0.63645 0.24583 0.0
H4142 H 0.40069 0.66088 0.24116 0.0
S4143 S 0.32996 0.71207 0.2328 0.0
N4144 N 0.32445 0.68748 0.23672 0.0
N4145 N 0.35552 0.71406 0.23293 0.0
C4146 C 0.36072 0.69417 0.23635 0.0
C4147 C 0.34385 0.67976 0.2383 0.0
C4148 C 0.10353 0.42253 0.5152 0.0
C4149 C 0.12031 0.42659 0.52885 0.0
C4150 C 0.08801 0.40766 0.51974 0.0
C4151 C 0.08875 0.39588 0.53797 0.0
H4152 H 0.10221 0.43113 0.501 0.0
H4153 H 0.07523 0.40554 0.50892 0.0
S4154 S 0.13095 0.39889 0.57763 0.0
N4155 N 0.13749 0.41652 0.56063 0.0
N4156 N 0.10892 0.38863 0.56904 0.0
C4157 C 0.10589 0.39945 0.55142 0.0
C4158 C 0.12147 0.41473 0.5469 0.0
C4159 C 0.40557 0.33459 0.27051 0.0
C4160 C 0.40322 0.32451 0.28938 0.0
C4161 C 0.38952 0.34642 0.2625 0.0
C4162 C 0.37044 0.34806 0.27288 0.0
H4163 H 0.41986 0.33327 0.26187 0.0
H4164 H 0.39212 0.35426 0.24802 0.0
S4165 S 0.35626 0.32236 0.32195 0.0
N4166 N 0.3804 0.31555 0.31769 0.0
N4167 N 0.34989 0.33742 0.30255 0.0
C4168 C 0.36777 0.33741 0.29154 0.0
C4169 C 0.38429 0.32572 0.29983 0.0
C4170 C 0.43247 0.61979 0.02039 0.0
C4171 C 0.43163 0.63164 0.03894 0.0
C4172 C 0.41801 0.6037 0.01604 0.0
C4173 C 0.40239 0.5984 0.03025 0.0
H4174 H 0.44442 0.6229 1.00911 0.0
H4175 H 0.4192 0.59521 1.00148 0.0
S4176 S 0.39252 0.62491 0.08061 0.0
N4177 N 0.41291 0.63714 0.07126 0.0
N4178 N 0.38646 0.6068 0.06325 0.0
C4179 C 0.40131 0.61008 0.04878 0.0
C4180 C 0.4157 0.62668 0.05306 0.0
C4181 C 0.17152 0.68325 0.78969 0.0
C4182 C 0.15056 0.67806 0.78583 0.0
C4183 C 0.18737 0.66875 0.78641 0.0
C4184 C 0.18278 0.64877 0.77872 0.0
H4185 H 0.17564 0.69846 0.79572 0.0
H4186 H 0.20329 0.67326 0.78971 0.0
S4187 S 0.13025 0.62759 0.76696 0.0
N4188 N 0.12605 0.65151 0.77482 0.0
N4189 N 0.15561 0.62454 0.76786 0.0
C4190 C 0.16185 0.64353 0.77478 0.0
C4191 C 0.14579 0.6581 0.77856 0.0
C4192 C 1.00616 0.09637 0.62295 0.0
C4193 C 0.98591 0.09408 0.63079 0.0
C4194 C 1.01094 0.11095 0.6075 0.0
C4195 C 0.99563 0.12366 0.59881 0.0
H4196 H 0.0185 0.08692 0.62888 0.0
H4197 H 0.02681 0.1122 0.60228 0.0
S4198 S 0.94008 0.12381 0.61349 0.0
N4199 N 0.95036 0.10607 0.6283 0.0
N4200 N 0.95929 0.13283 0.59939 0.0
C4201 C 0.97531 0.12135 0.60632 0.0
C4202 C 0.97049 0.1068 0.62223 0.0
C4203 C 0.66905 0.25834 0.35997 0.0
C4204 C 0.65953 0.24171 0.34897 0.0
C4205 C 0.68309 0.25506 0.37642 0.0
C4206 C 0.68785 0.23502 0.38286 0.0
H4207 H 0.66557 0.27407 0.35594 0.0
H4208 H 0.69003 0.26832 0.38433 0.0
S4209 S 0.66822 0.18613 0.35859 0.0
N4210 N 0.65683 0.20437 0.34529 0.0
N4211 N 0.68274 0.19828 0.37616 0.0
C4212 C 0.67869 0.21828 0.37181 0.0
C4213 C 0.6647 0.22159 0.3549 0.0
C4214 C 0.55245 0.90529 0.1042 0.0
C4215 C 0.5324 0.90334 0.09566 0.0
C4216 C 0.55699 0.91962 0.12031 0.0
C4217 C 0.54177 0.93291 0.12849 0.0
H4218 H 0.56467 0.89527 0.09882 0.0
H4219 H 0.57269 0.92027 0.12633 0.0
S4220 S 0.48715 0.93516 0.11023 0.0
N4221 N 0.49737 0.91661 0.09588 0.0
N4222 N 0.50595 0.94377 0.12572 0.0
C4223 C 0.52178 0.93153 0.1196 0.0
C4224 C 0.5171 0.91673 0.10336 0.0
C4225 C 0.87115 0.78407 0.85827 0.0
C4226 C 0.87454 0.76384 0.85081 0.0
C4227 C 0.85509 0.78872 0.87241 0.0
C4228 C 0.84151 0.7734 0.88028 0.0
H4229 H 0.88132 0.79648 0.85352 0.0
H4230 H 0.85346 0.80466 0.87733 0.0
S4231 S 0.84358 0.71775 0.86589 0.0
N4232 N 0.86271 0.72819 0.85259 0.0
N4233 N 0.83286 0.73685 0.87908 0.0
C4234 C 0.8448 0.75303 0.87305 0.0
C4235 C 0.86116 0.7483 0.8585 0.0
C4236 C 0.97589 0.90685 0.91985 0.0
C4237 C 0.99659 0.90126 0.92361 0.0
C4238 C 0.97068 0.92137 0.90466 0.0
C4239 C 0.98587 0.93136 0.89256 0.0
H4240 H 0.96346 0.89967 0.92845 0.0
H4241 H 0.95445 0.92483 0.90245 0.0
S4242 S 0.04247 0.92294 0.89639 0.0
N4243 N 0.03253 0.90736 0.91385 0.0
N4244 N 0.02265 0.93484 0.88582 0.0
C4245 C 1.00666 0.92637 0.89646 0.0
C4246 C 1.01201 0.91132 0.91177 0.0
C4247 C 0.86228 0.26647 0.66683 0.0
C4248 C 0.87243 0.24994 0.67654 0.0
C4249 C 0.84622 0.26313 0.65199 0.0
C4250 C 0.83989 0.24309 0.64572 0.0
H4251 H 0.86686 0.28221 0.67064 0.0
H4252 H 0.83913 0.27637 0.64497 0.0
S4253 S 0.86038 0.19434 0.66704 0.0
N4254 N 0.87388 0.21264 0.67931 0.0
N4255 N 0.84447 0.2064 0.65133 0.0
C4256 C 0.84964 0.22643 0.65556 0.0
C4257 C 0.86564 0.22983 0.67094 0.0
C4258 C 0.53694 0.08651 0.41575 0.0
C4259 C 0.53951 0.09189 0.39477 0.0
C4260 C 0.53386 0.10171 0.43146 0.0
C4261 C 0.5328 0.12282 0.42671 0.0
H4262 H 0.53792 0.0705 0.42014 0.0
H4263 H 0.53216 0.09691 0.44738 0.0
S4264 S 0.53752 0.14482 0.37415 0.0
N4265 N 0.54057 0.11981 0.37027 0.0
N4266 N 0.53371 0.14803 0.39932 0.0
C4267 C 0.53483 0.12824 0.40575 0.0
C4268 C 0.5385 0.1129 0.38993 0.0
C4269 C 0.67263 0.76539 0.15036 0.0
C4270 C 0.68241 0.78463 0.14756 0.0
C4271 C 0.65852 0.76228 0.16673 0.0
C4272 C 0.6538 0.77819 0.18119 0.0
H4273 H 0.6754 0.75284 0.13945 0.0
H4274 H 0.65088 0.74737 0.16772 0.0
S4275 S 0.67807 0.83045 0.1825 0.0
N4276 N 0.6881 0.81915 0.16183 0.0
N4277 N 0.66203 0.81332 0.19254 0.0
C4278 C 0.66437 0.79718 0.17907 0.0
C4279 C 0.67852 0.80037 0.16232 0.0
C4280 C 0.63658 1.00323 0.10526 0.0
C4281 C 0.63266 0.98785 0.09005 0.0
C4282 C 0.62177 1.00797 0.12063 0.0
C4283 C 0.60248 0.99741 0.12153 0.0
H4284 H 0.65145 1.01116 0.10571 0.0
H4285 H 0.62578 0.01954 0.13233 0.0
S4286 S 0.58365 0.95776 0.0835 0.0
N4287 N 0.60727 0.9636 0.07558 0.0
N4288 N 0.5798 0.97211 0.10451 0.0
C4289 C 0.59815 0.98255 0.1059 0.0
C4290 C 0.61312 0.97789 0.09019 0.0
C4291 C 0.10049 0.51934 0.9227 0.0
C4292 C 0.1014 0.52713 0.90246 0.0
C4293 C 0.11651 0.52346 0.93733 0.0
C4294 C 0.1342 0.5353 0.93215 0.0
H4295 H 0.08714 0.51028 0.92737 0.0
H4296 H 0.11478 0.51773 0.95292 0.0
S4297 S 0.14511 0.55706 0.88038 0.0
N4298 N 0.12203 0.54602 0.87767 0.0
N4299 N 0.15217 0.55326 0.90467 0.0
C4300 C 0.1355 0.54252 0.91171 0.0
C4301 C 0.11913 0.53856 0.89701 0.0
C4302 C 0.24583 0.36658 0.64912 0.0
C4303 C 0.24743 0.34589 0.65524 0.0
C4304 C 0.24251 0.38263 0.6637 0.0
C4305 C 0.24141 0.37877 0.6851 0.0
H4306 H 0.24697 0.37036 0.63285 0.0
H4307 H 0.24097 0.39823 0.65819 0.0
S4308 S 0.24421 0.32726 0.70915 0.0
N4309 N 0.24705 0.32237 0.68408 0.0
N4310 N 0.24163 0.35251 0.71157 0.0
C4311 C 0.24311 0.35815 0.69142 0.0
C4312 C 0.24592 0.34173 0.67649 0.0
C4313 C 0.41187 0.50379 0.41033 0.0
C4314 C 0.41918 0.48807 0.39698 0.0
C4315 C 0.39698 0.49971 0.42574 0.0
C4316 C 0.38825 0.47985 0.42805 0.0
H4317 H 0.41777 0.51941 0.4089 0.0
H4318 H 0.39212 0.51231 0.43574 0.0
S4319 S 0.40151 0.43348 0.39616 0.0
N4320 N 0.41638 0.45199 0.38687 0.0
N4321 N 0.38808 0.44431 0.41504 0.0
C4322 C 0.39535 0.46405 0.41454 0.0
C4323 C 0.41086 0.46814 0.39925 0.0
C4324 C 0.7803 0.16428 0.63872 0.0
C4325 C 0.78513 0.18472 0.645 0.0
C4326 C 0.78133 0.148 0.65272 0.0
C4327 C 0.78733 0.15165 0.6734 0.0
H4328 H 0.77589 0.16079 0.62279 0.0
H4329 H 0.77766 0.13247 0.6473 0.0
S4330 S 0.8041 0.20174 0.69692 0.0
N4331 N 0.79749 0.20739 0.67287 0.0
N4332 N 0.79973 0.17671 0.69919 0.0
C4333 C 0.79249 0.1719 0.67984 0.0
C4334 C 0.79129 0.1885 0.66562 0.0
C4335 C 0.91172 0.02286 0.58638 0.0
C4336 C 0.89396 0.03429 0.59158 0.0
C4337 C 0.92762 0.01944 0.60108 0.0
C4338 C 0.92647 0.0275 0.62145 0.0
H4339 H 0.91359 0.01688 0.57072 0.0
H4340 H 0.94099 1.01062 0.59641 0.0
S4341 S 0.88258 0.05669 0.64363 0.0
N4342 N 0.87576 0.05237 0.61918 0.0
N4343 N 0.90561 0.04623 0.64638 0.0
C4344 C 0.90869 0.03857 0.62693 0.0
C4345 C 0.89248 0.04191 0.61211 0.0
C4346 C 0.23278 0.66494 0.8734 0.0
C4347 C 0.25035 0.67782 0.87161 0.0
C4348 C 0.22931 0.6481 0.85968 0.0
C4349 C 0.24312 0.64348 0.84337 0.0
H4350 H 0.22186 0.66755 0.88585 0.0
H4351 H 0.21558 0.63864 0.86193 0.0
S4352 S 0.29054 0.67387 0.83094 0.0
N4353 N 0.28121 0.68554 0.85178 0.0
N4354 N 0.27453 0.65437 0.82568 0.0
C4355 C 0.26052 0.65665 0.84116 0.0
C4356 C 0.26416 0.67365 0.85533 0.0
C4357 C 0.24404 0.34255 0.34808 0.0
C4358 C 0.25836 0.33966 0.33206 0.0
C4359 C 0.24699 0.33358 0.36736 0.0
C4360 C 0.26439 0.32135 0.3714 0.0
H4361 H 0.23066 0.35221 0.34584 0.0
H4362 H 0.23561 0.33657 0.37929 0.0
S4363 S 0.30513 0.30717 0.33375 0.0
N4364 N 0.28974 0.3226 0.32077 0.0
N4365 N 0.29533 0.30557 0.35727 0.0
C4366 C 0.27859 0.31789 0.35534 0.0
C4367 C 0.27557 0.32709 0.3356 0.0
C4368 C 0.42422 0.89673 0.52005 0.0
C4369 C 0.43529 0.89664 0.53893 0.0
C4370 C 0.40978 0.91237 0.51571 0.0
C4371 C 0.40595 0.92874 0.52994 0.0
H4372 H 0.4262 0.88427 0.50886 0.0
H4373 H 0.40116 0.91127 0.50125 0.0
S4374 S 0.43356 0.9373 0.58014 0.0
N4375 N 0.44303 0.91547 0.571 0.0
N4376 N 0.41635 0.94473 0.56282 0.0
C4377 C 0.41775 0.92928 0.54841 0.0
C4378 C 0.43226 0.91332 0.55288 0.0
C4379 C 0.35432 0.15669 0.80221 0.0
C4380 C 0.34706 0.15291 0.78184 0.0
C4381 C 0.37075 0.17064 0.80641 0.0
C4382 C 0.38057 0.18174 0.7905 0.0
H4383 H 0.34756 0.1485 0.81508 0.0
H4384 H 0.37563 0.17284 0.82241 0.0
S4385 S 0.36699 0.17817 0.73448 0.0
N4386 N 0.3508 0.16183 0.74552 0.0
N4387 N 0.38133 0.18825 0.75349 0.0
C4388 C 0.37321 0.17843 0.77008 0.0
C4389 C 0.3566 0.164 0.76575 0.0
C4390 C 0.12895 0.11859 0.04287 0.0
C4391 C 0.12316 0.10049 0.03185 0.0
C4392 C 0.11475 0.1346 0.04645 0.0
C4393 C 0.09416 0.13336 0.03895 0.0
H4394 H 0.14472 0.12053 0.04851 0.0
H4395 H 0.12003 0.14817 0.05508 0.0
S4396 S 0.07093 0.08844 1.01032 0.0
N4397 N 0.09529 0.08183 0.01412 0.0
N4398 N 0.06857 0.1117 0.02085 0.0
C4399 C 0.08815 0.11516 0.02806 0.0
C4400 C 0.10264 0.09883 0.0245 0.0
C4401 C 0.17066 0.87046 0.29878 0.0
C4402 C 0.17824 0.87339 0.27859 0.0
C4403 C 0.15433 0.85646 0.30271 0.0
C4404 C 0.14486 0.84445 0.2867 0.0
H4405 H 0.17709 0.87938 0.31171 0.0
H4406 H 0.14922 0.85499 0.3186 0.0
S4407 S 0.15945 0.84547 0.2311 0.0
N4408 N 0.17522 0.86257 0.24235 0.0
N4409 N 0.14489 0.83615 0.24981 0.0
C4410 C 0.15255 0.8469 0.26648 0.0
C4411 C 0.16909 0.86135 0.26243 0.0
C4412 C 0.43194 0.12387 1.00888 0.0
C4413 C 0.43631 0.12968 0.98836 0.0
C4414 C 0.41708 0.10825 0.01322 0.0
C4415 C 0.40618 0.0974 0.99725 0.0
H4416 H 0.43975 0.13172 0.02172 0.0
H4417 H 0.41403 0.10476 0.02929 0.0
S4418 S 0.4128 0.10575 0.94071 0.0
N4419 N 0.42894 0.12252 0.95185 0.0
N4420 N 0.4015 0.09357 0.95993 0.0
C4421 C 0.41083 0.10279 0.97667 0.0
C4422 C 0.42571 0.11877 0.97227 0.0
C4423 C 0.18168 0.17564 0.24973 0.0
C4424 C 0.17761 0.15452 0.2456 0.0
C4425 C 0.16621 0.19072 0.24689 0.0
C4426 C 0.14608 0.18527 0.23979 0.0
H4427 H 0.19697 0.18055 0.25497 0.0
H4428 H 0.17023 0.20681 0.24968 0.0
S4429 S 0.12698 0.13195 0.22903 0.0
N4430 N 0.1515 0.12898 0.23569 0.0
N4431 N 0.12282 0.15702 0.23009 0.0
C4432 C 0.14182 0.16417 0.23617 0.0
C4433 C 0.15743 0.14891 0.23917 0.0
C4434 C 0.107 0.92574 0.50637 0.0
C4435 C 0.12553 0.92786 0.49512 0.0
C4436 C 0.093 0.90917 0.50239 0.0
C4437 C 0.09716 0.89376 0.48729 0.0
H4438 H 0.10317 0.93714 0.51816 0.0
H4439 H 0.07868 0.90863 0.51103 0.0
S4440 S 0.14498 0.89086 0.45553 0.0
N4441 N 0.14796 0.91237 0.46933 0.0
N4442 N 0.12229 0.88113 0.46226 0.0
C4443 C 0.11605 0.89543 0.47647 0.0
C4444 C 0.13005 0.91245 0.48028 0.0
C4445 C 0.3739 0.8475 0.75525 0.0
C4446 C 0.38186 0.84471 0.73508 0.0
C4447 C 0.35748 0.86125 0.75936 0.0
C4448 C 0.34796 0.87263 0.74345 0.0
H4449 H 0.38056 0.8392 0.76806 0.0
H4450 H 0.35225 0.86303 0.77521 0.0
S4451 S 0.36252 0.8707 0.68777 0.0
N4452 N 0.3783 0.85432 0.69887 0.0
N4453 N 0.34812 0.88008 0.70665 0.0
C4454 C 0.35565 0.86979 0.72321 0.0
C4455 C 0.37235 0.8559 0.71903 0.0
C4456 C 0.53596 0.42284 0.93145 0.0
C4457 C 0.53196 0.40184 0.92674 0.0
C4458 C 0.53878 0.43746 0.91554 0.0
C4459 C 0.53801 0.43161 0.89432 0.0
H4460 H 0.53672 0.42803 0.9475 0.0
H4461 H 0.54208 0.45338 0.91988 0.0
S4462 S 0.52843 0.37859 0.87379 0.0
N4463 N 0.52722 0.37619 0.89923 0.0
N4464 N 0.53342 0.40324 0.86971 0.0
C4465 C 0.53428 0.41068 0.88953 0.0
C4466 C 0.53097 0.39595 0.90561 0.0
C4467 C 0.87198 0.30275 0.17023 0.0
C4468 C 0.87591 0.28253 0.17667 0.0
C4469 C 0.85751 0.30675 0.15435 0.0
C4470 C 0.84602 0.29078 0.14422 0.0
H4471 H 0.88043 0.31565 0.17722 0.0
H4472 H 0.85527 0.32266 0.1501 0.0
S4473 S 0.84967 0.23506 0.15584 0.0
N4474 N 0.86656 0.24626 0.17189 0.0
N4475 N 0.83929 0.25386 0.14246 0.0
C4476 C 0.84947 0.27051 0.15081 0.0
C4477 C 0.86439 0.26638 0.16686 0.0
C4478 C 0.97828 0.618 0.42381 0.0
C4479 C 0.99897 0.62309 0.42901 0.0
C4480 C 0.97336 0.60352 0.40797 0.0
C4481 C 0.98886 0.59327 0.39654 0.0
H4482 H 0.96568 0.62553 0.43179 0.0
H4483 H 0.95714 0.60023 0.40481 0.0
S4484 S 0.04551 0.60107 0.40363 0.0
N4485 N 0.03518 0.61668 0.42111 0.0
N4486 N 0.02586 0.58944 0.39157 0.0
C4487 C 1.00961 0.5981 0.4016 0.0
C4488 C 1.01466 0.61299 0.4177 0.0
C4489 C 0.6656 0.73195 0.67485 0.0
C4490 C 0.65945 0.75223 0.67977 0.0
C4491 C 0.68185 0.72788 0.66083 0.0
C4492 C 0.69305 0.74386 0.65104 0.0
H4493 H 0.65755 0.71896 0.68161 0.0
H4494 H 0.68567 0.71192 0.6577 0.0
S4495 S 0.68426 0.79987 0.6595 0.0
N4496 N 0.6667 0.78863 0.67418 0.0
N4497 N 0.6972 0.78099 0.64823 0.0
C4498 C 0.68747 0.76425 0.65625 0.0
C4499 C 0.67076 0.76841 0.67043 0.0
C4500 C 0.51717 0.61159 0.60846 0.0
C4501 C 0.53301 0.62383 0.59965 0.0
C4502 C 0.52137 0.59717 0.62413 0.0
C4503 C 0.54157 0.59452 0.63202 0.0
H4504 H 0.5013 0.61316 0.60323 0.0
H4505 H 0.50861 0.58818 0.63025 0.0
S4506 S 0.5887 0.62277 0.61442 0.0
N4507 N 0.56975 0.63229 0.60036 0.0
N4508 N 0.57773 0.60531 0.62925 0.0
C4509 C 0.55756 0.60661 0.62324 0.0
C4510 C 0.55328 0.62117 0.60725 0.0
C4511 C 0.67059 0.30463 0.86997 0.0
C4512 C 0.68215 0.28866 0.87895 0.0
C4513 C 0.65677 0.30089 0.85328 0.0
C4514 C 0.65355 0.28093 0.84486 0.0
H4515 H 0.6723 0.32033 0.87577 0.0
H4516 H 0.64819 0.31376 0.84726 0.0
S4517 S 0.68014 0.23362 0.86221 0.0
N4518 N 0.68969 0.25206 0.8776 0.0
N4519 N 0.66352 0.24493 0.84663 0.0
C4520 C 0.66512 0.2648 0.85353 0.0
C4521 C 0.67942 0.26867 0.87041 0.0
C4522 C 0.97769 0.43018 0.11374 0.0
C4523 C 0.99044 0.43389 0.1313 0.0
C4524 C 0.98279 0.41544 0.09835 0.0
C4525 C 1.00086 0.40354 0.09984 0.0
H4526 H 0.96352 0.43877 0.11188 0.0
H4527 H 0.97233 0.4132 0.08527 0.0
S4528 S 0.03861 0.4061 0.1437 0.0
N4529 N 0.02148 0.42392 0.14969 0.0
N4530 N 0.03103 0.39599 0.12116 0.0
C4531 C 1.01374 0.40709 0.11742 0.0
C4532 C 1.00856 0.42228 0.13301 0.0
C4533 C 0.86796 0.73694 0.38535 0.0
C4534 C 0.8464 0.73902 0.38268 0.0
C4535 C 0.88179 0.7397 0.36873 0.0
C4536 C 0.87462 0.74402 0.3486 0.0
H4537 H 0.87421 0.73332 0.40048 0.0
H4538 H 0.89828 0.73844 0.37166 0.0
S4539 S 0.81969 0.74934 0.33278 0.0
N4540 N 0.81859 0.74485 0.35793 0.0
N4541 N 0.84455 0.7495 0.32675 0.0
C4542 C 0.85314 0.74573 0.34557 0.0
C4543 C 0.83906 0.74334 0.36257 0.0
C4544 C 0.89815 0.541 0.4142 0.0
C4545 C 0.89904 0.53482 0.43509 0.0
C4546 C 0.91395 0.53609 0.39992 0.0
C4547 C 0.93151 0.52474 0.40574 0.0
H4548 H 0.88515 0.54991 0.40882 0.0
H4549 H 0.91243 0.54134 0.38412 0.0
S4550 S 0.94289 0.50698 0.45895 0.0
N4551 N 0.92003 0.518 0.4611 0.0
N4552 N 0.94947 0.50873 0.43429 0.0
C4553 C 0.93278 0.51864 0.42657 0.0
C4554 C 0.91666 0.52367 0.44119 0.0
C4555 C 0.42351 1.01079 0.60925 0.0
C4556 C 0.43006 0.99602 0.62362 0.0
C4557 C 0.407 1.00664 0.59518 0.0
C4558 C 0.3959 0.98775 0.59526 0.0
H4559 H 0.43136 0.02564 0.60872 0.0
H4560 H 0.40293 0.01838 0.58418 0.0
S4561 S 0.40585 0.94448 0.63116 0.0
N4562 N 0.42358 0.96204 0.63758 0.0
N4563 N 0.39239 0.95446 0.61201 0.0
C4564 C 0.40203 0.97307 0.61002 0.0
C4565 C 0.41911 0.97713 0.62393 0.0
C4566 C 0.30248 0.1702 0.87466 0.0
C4567 C 0.28325 0.18016 0.87574 0.0
C4568 C 0.30581 0.15352 0.86076 0.0
C4569 C 0.29019 0.14603 0.84694 0.0
H4570 H 0.31499 0.17497 0.88503 0.0
H4571 H 0.32094 0.14651 0.86085 0.0
S4572 S 0.23735 0.16768 0.84257 0.0
N4573 N 0.24849 0.1817 0.86126 0.0
N4574 N 0.25487 0.1509 0.83485 0.0
C4575 C 0.27101 0.1562 0.84756 0.0
C4576 C 0.26752 0.17303 0.86198 0.0
C4577 C 0.12275 0.02774 0.1272 0.0
C4578 C 0.10155 0.02737 0.12183 0.0
C4579 C 0.13818 0.03206 0.11242 0.0
C4580 C 0.13309 0.03543 0.09148 0.0
H4581 H 0.12744 0.02505 0.14309 0.0
H4582 H 0.15423 0.03274 0.11741 0.0
S4583 S 0.07984 0.03657 0.06947 0.0
N4584 N 0.07627 0.03137 0.09423 0.0
N4585 N 0.10518 0.03859 0.0663 0.0
C4586 C 0.11194 0.03491 0.08588 0.0
C4587 C 0.09621 0.0311 0.10107 0.0
C4588 C 0.73412 0.38543 0.86678 0.0
C4589 C 0.73731 0.38332 0.84523 0.0
C4590 C 0.73827 0.36916 0.88046 0.0
C4591 C 0.7452 0.34984 0.8732 0.0
H4592 H 0.72847 0.39984 0.87315 0.0
H4593 H 0.73594 0.37169 0.89691 0.0
S4594 S 0.75309 0.33523 0.81799 0.0
N4595 N 0.74633 0.35969 0.8172 0.0
N4596 N 0.75352 0.32909 0.84278 0.0
C4597 C 0.74783 0.34727 0.85166 0.0
C4598 C 0.74403 0.36398 0.83774 0.0
C4599 C 0.5944 0.48156 0.91835 0.0
C4600 C 0.59913 0.49557 0.90254 0.0
C4601 C 0.60904 0.47686 0.93391 0.0
C4602 C 0.629 0.48599 0.93438 0.0
H4603 H 0.57932 0.47406 0.91864 0.0
H4604 H 0.60475 0.4658 0.9456 0.0
S4605 S 0.65034 0.52104 0.89513 0.0
N4606 N 0.62614 0.51698 0.88746 0.0
N4607 N 0.65327 0.50817 0.91678 0.0
C4608 C 0.63403 0.49975 0.91863 0.0
C4609 C 0.61922 0.50452 0.90272 0.0
C4610 C 0.26838 0.87919 0.66822 0.0
C4611 C 0.28418 0.87747 0.68318 0.0
C4612 C 0.26417 0.86305 0.65373 0.0
C4613 C 0.27569 0.84462 0.65354 0.0
H4614 H 0.25972 0.89334 0.66723 0.0
H4615 H 0.25231 0.86541 0.64209 0.0
S4616 S 0.31691 0.83159 0.69128 0.0
N4617 N 0.30993 0.85512 0.69824 0.0
N4618 N 0.30242 0.82519 0.6709 0.0
C4619 C 0.29096 0.8425 0.66897 0.0
C4620 C 0.29509 0.85881 0.68379 0.0
C4621 C 0.26026 0.16438 0.15372 0.0
C4622 C 0.25339 0.18475 0.15739 0.0
C4623 C 0.25428 0.14791 0.16659 0.0
C4624 C 0.24135 0.15117 0.18379 0.0
H4625 H 0.26978 0.16097 0.14034 0.0
H4626 H 0.25924 0.13244 0.16266 0.0
S4627 S 0.22089 0.20167 0.20157 0.0
N4628 N 0.23404 0.20722 0.18041 0.0
N4629 N 0.22304 0.17653 0.2046 0.0
C4630 C 0.23498 0.17152 0.18802 0.0
C4631 C 0.24092 0.18822 0.17486 0.0
C4632 C 0.61524 0.10872 0.5127 0.0
C4633 C 0.62664 0.09868 0.49691 0.0
C4634 C 0.60097 0.12452 0.50822 0.0
C4635 C 0.59776 0.13138 0.48778 0.0
H4636 H 0.61732 0.10429 0.5287 0.0
H4637 H 0.59257 0.13158 0.52092 0.0
S4638 S 0.62382 0.11051 0.4407 0.0
N4639 N 0.63359 0.09717 0.45992 0.0
N4640 N 0.60721 0.12642 0.45156 0.0
C4641 C 0.60908 0.12144 0.4719 0.0
C4642 C 0.62334 0.10528 0.47642 0.0
C4643 C 0.6704 0.86156 0.26143 0.0
C4644 C 0.67716 0.87563 0.24638 0.0
C4645 C 0.65404 0.84736 0.25731 0.0
C4646 C 0.64338 0.84692 0.23812 0.0
H4647 H 0.67798 0.86135 0.27647 0.0
H4648 H 0.6498 0.83661 0.26928 0.0
S4649 S 0.65409 0.88171 0.19396 0.0
N4650 N 0.67139 0.88867 0.21176 0.0
N4651 N 0.6405 0.86275 0.2042 0.0
C4652 C 0.64976 0.8613 0.22311 0.0
C4653 C 0.66665 0.8754 0.22718 0.0
C4654 C 0.90122 0.91029 0.97841 0.0
C4655 C 0.90461 0.92478 0.99461 0.0
C4656 C 0.91548 0.89449 0.97413 0.0
C4657 C 0.93402 0.89249 0.98569 0.0
H4658 H 0.88718 0.9109 0.96914 0.0
H4659 H 0.9119 0.88377 0.96152 0.0
S4660 S 0.95118 0.92789 0.0286 0.0
N4661 N 0.9283 0.93676 0.0217 0.0
N4662 N 0.95538 0.90762 0.01339 0.0
C4663 C 0.93776 0.90721 1.00174 0.0
C4664 C 0.92303 0.92315 1.00625 0.0
C4665 C 0.86409 0.15345 0.72858 0.0
C4666 C 0.84619 0.15989 0.73904 0.0
C4667 C 0.88119 0.16684 0.72622 0.0
C4668 C 0.88107 0.18714 0.73434 0.0
H4669 H 0.86498 0.13784 0.72241 0.0
H4670 H 0.89464 0.16119 0.71805 0.0
S4671 S 0.83683 0.21194 0.76117 0.0
N4672 N 0.82872 0.18804 0.75648 0.0
N4673 N 0.86062 0.21338 0.75194 0.0
C4674 C 0.86299 0.19383 0.7445 0.0
C4675 C 0.84561 0.18015 0.74689 0.0
C4676 C 0.59809 0.89785 0.01573 0.0
C4677 C 0.59441 0.89135 0.03617 0.0
C4678 C 0.61315 0.91324 1.01137 0.0
C4679 C 0.62496 0.92317 0.02727 0.0
H4680 H 0.58951 0.89075 1.00294 0.0
H4681 H 0.61558 0.91736 0.99535 0.0
S4682 S 0.62073 0.91251 0.08362 0.0
N4683 N 0.60347 0.89682 0.07258 0.0
N4684 N 0.63154 0.92517 0.06443 0.0
C4685 C 0.62111 0.91702 0.04779 0.0
C4686 C 0.60595 0.90133 0.05221 0.0
C4687 C 0.88951 0.85132 0.76727 0.0
C4688 C 0.86964 0.85112 0.77623 0.0
C4689 C 0.90508 0.83838 0.77445 0.0
C4690 C 0.90132 0.82523 0.79103 0.0
H4691 H 0.89311 0.86153 0.75462 0.0
H4692 H 0.9201 0.83865 0.76704 0.0
S4693 S 0.85178 0.81732 0.81866 0.0
N4694 N 0.84687 0.83549 0.80177 0.0
N4695 N 0.87634 0.81144 0.81527 0.0
C4696 C 0.88156 0.82453 0.79987 0.0
C4697 C 0.86563 0.83744 0.79246 0.0
C4698 C 0.90149 0.11516 0.52337 0.0
C4699 C 0.90733 0.09446 0.52599 0.0
C4700 C 0.91529 0.13175 0.52786 0.0
C4701 C 0.93578 0.12831 0.5344 0.0
H4702 H 0.88593 0.11858 0.51816 0.0
H4703 H 0.90988 0.14738 0.5262 0.0
S4704 S 0.95888 0.07715 0.54374 0.0
N4705 N 0.93495 0.07159 0.536 0.0
N4706 N 0.96112 0.10257 0.54353 0.0
C4707 C 0.94189 0.1077 0.53687 0.0
C4708 C 0.92764 0.09084 0.53287 0.0
C4709 C 0.67865 0.16311 0.26707 0.0
C4710 C 0.68391 0.14759 0.28113 0.0
C4711 C 0.66234 0.17682 0.27112 0.0
C4712 C 0.65023 0.17531 0.28919 0.0
H4713 H 0.68734 0.16477 0.25286 0.0
H4714 H 0.65926 0.18873 0.25998 0.0
S4715 S 0.65649 0.13592 0.33004 0.0
N4716 N 0.67512 0.13087 0.31337 0.0
N4717 N 0.64418 0.15595 0.32073 0.0
C4718 C 0.65507 0.15944 0.30312 0.0
C4719 C 0.67195 0.1458 0.29918 0.0
C4720 C 0.50654 0.60221 0.12944 0.0
C4721 C 0.48763 0.59116 0.12926 0.0
C4722 C 0.51108 0.61693 0.1141 0.0
C4723 C 0.49701 0.62105 0.09779 0.0
H4724 H 0.51762 0.59994 0.14185 0.0
H4725 H 0.52554 0.62552 0.11539 0.0
S4726 S 0.44669 0.59391 0.08861 0.0
N4727 N 0.45566 0.58394 0.11023 0.0
N4728 N 0.46421 0.61113 0.08154 0.0
C4729 C 0.4785 0.60934 0.09697 0.0
C4730 C 0.47383 0.59456 0.11263 0.0
C4731 C 0.18585 0.75217 0.87124 0.0
C4732 C 0.18457 0.73449 0.88365 0.0
C4733 C 0.17176 0.75535 0.85484 0.0
C4734 C 0.1561 0.74076 0.84984 0.0
H4735 H 0.19791 0.76364 0.87408 0.0
H4736 H 0.17327 0.76925 0.84585 0.0
S4737 S 0.14476 0.69267 0.8782 0.0
N4738 N 0.16521 0.70277 0.8903 0.0
N4739 N 0.13931 0.70861 0.85929 0.0
C4740 C 0.15444 0.72317 0.86218 0.0
C4741 C 0.1685 0.72008 0.87911 0.0
C4742 C 0.03511 0.43517 0.60961 0.0
C4743 C 0.0355 0.4306 0.63095 0.0
C4744 C 0.03285 0.4194 0.59423 0.0
C4745 C 0.03088 0.39848 0.59965 0.0
H4746 H 0.03749 0.45092 0.60474 0.0
H4747 H 0.03344 0.42355 0.57804 0.0
S4748 S 0.02742 0.379 0.6535 0.0
N4749 N 0.03155 0.40405 0.65662 0.0
N4750 N 0.02682 0.37465 0.62819 0.0
C4751 C 0.03003 0.39402 0.62102 0.0
C4752 C 0.03248 0.40998 0.63652 0.0
C4753 C 0.3796 0.28196 0.36499 0.0
C4754 C 0.37722 0.26551 0.35055 0.0
C4755 C 0.36409 0.28675 0.37973 0.0
C4756 C 0.34525 0.27539 0.3809 0.0
H4757 H 0.3938 0.29104 0.36519 0.0
H4758 H 0.36699 0.29952 0.39044 0.0
S4759 S 0.32993 0.23268 0.34458 0.0
N4760 N 0.35367 0.23891 0.33728 0.0
N4761 N 0.32456 0.24806 0.36449 0.0
C4762 C 0.34244 0.25925 0.3661 0.0
C4763 C 0.35834 0.2543 0.35114 0.0
C4764 C 0.49886 0.43376 0.40761 0.0
C4765 C 0.48617 0.42843 0.39032 0.0
C4766 C 0.50308 0.41942 0.42345 0.0
C4767 C 0.49454 0.39928 0.42284 0.0
H4768 H 0.50525 0.44923 0.40915 0.0
H4769 H 0.51285 0.42425 0.43641 0.0
S4770 S 0.46226 0.37681 0.38018 0.0
N4771 N 0.46657 0.4008 0.37309 0.0
N4772 N 0.47413 0.37439 0.40277 0.0
C4773 C 0.48229 0.39366 0.4055 0.0
C4774 C 0.4782 0.40807 0.38933 0.0
C4775 C 0.35344 0.74298 0.18128 0.0
C4776 C 0.37339 0.75096 0.17739 0.0
C4777 C 0.33893 0.73972 0.16499 0.0
C4778 C 0.344 0.74403 0.14423 0.0
H4779 H 0.34895 0.73949 0.197 0.0
H4780 H 0.32377 0.73344 0.1686 0.0
S4781 S 0.39459 0.76325 0.12555 0.0
N4782 N 0.39753 0.76227 0.15098 0.0
N4783 N 0.37062 0.75536 0.12061 0.0
C4784 C 0.36396 0.75149 0.14013 0.0
C4785 C 0.37854 0.75519 0.15664 0.0
C4786 C 0.05391 0.60846 0.90029 0.0
C4787 C 0.04068 0.59132 0.89612 0.0
C4788 C 0.04992 0.62278 0.91644 0.0
C4789 C 0.03233 0.62091 0.92907 0.0
H4790 H 0.06763 0.61091 0.89103 0.0
H4791 H 0.06052 0.63572 0.91874 0.0
S4792 S 0.99339 0.57835 0.9261 0.0
N4793 N 1.00971 0.57287 0.90721 0.0
N4794 N 1.00196 0.60013 0.93696 0.0
C4795 C 0.01899 0.60389 0.92527 0.0
C4796 C 0.02321 0.58905 0.90901 0.0
C4797 C 0.18128 0.26595 0.65751 0.0
C4798 C 0.18183 0.28531 0.64777 0.0
C4799 C 0.16723 0.2616 0.67378 0.0
C4800 C 0.1533 0.27651 0.68141 0.0
H4801 H 0.1918 0.25399 0.65255 0.0
H4802 H 0.16743 0.24643 0.68055 0.0
S4803 S 0.14795 0.32961 0.66126 0.0
N4804 N 0.16654 0.31947 0.64711 0.0
N4805 N 0.1408 0.31142 0.6774 0.0
C4806 C 0.15371 0.29591 0.67181 0.0
C4807 C 0.16773 0.30025 0.65514 0.0
C4808 C 0.13312 0.50301 0.60531 0.0
C4809 C 0.1313 0.48581 0.59187 0.0
C4810 C 0.11773 0.50733 0.62017 0.0
C4811 C 0.09981 0.4947 0.6221 0.0
H4812 H 0.14683 0.51279 0.60482 0.0
H4813 H 0.12023 0.52039 0.63061 0.0
S4814 S 0.08644 0.44951 0.58829 0.0
N4815 N 0.10936 0.45725 0.57998 0.0
N4816 N 0.08051 0.46538 0.60762 0.0
C4817 C 0.09746 0.478 0.60802 0.0
C4818 C 0.11316 0.47357 0.59301 0.0
C4819 C 0.61724 0.04979 0.42807 0.0
C4820 C 0.63304 0.03578 0.43287 0.0
C4821 C 0.60182 0.04511 0.41308 0.0
C4822 C 0.60152 0.0262 0.402 0.0
H4823 H 0.61672 0.06457 0.43604 0.0
H4824 H 0.59017 0.05657 0.41001 0.0
S4825 S 0.63984 0.98428 0.40835 0.0
N4826 N 0.64748 1.00222 0.42532 0.0
N4827 N 0.61893 0.99335 0.39697 0.0
C4828 C 0.61719 1.01192 0.40683 0.0
C4829 C 0.63279 0.01669 0.42229 0.0
C4830 C 0.73746 0.86395 0.14661 0.0
C4831 C 0.74367 0.84441 0.15334 0.0
C4832 C 0.73439 0.88041 0.16081 0.0
C4833 C 0.73788 0.87811 0.18226 0.0
H4834 H 0.73512 0.86658 0.13021 0.0
H4835 H 0.72951 0.89513 0.15492 0.0
S4836 S 0.75146 0.82929 0.20793 0.0
N4837 N 0.75135 0.82319 0.18293 0.0
N4838 N 0.74592 0.85405 0.20956 0.0
C4839 C 0.74359 0.85846 0.18916 0.0
C4840 C 0.74643 0.84166 0.17472 0.0
C4841 C 0.90533 0.97675 0.89459 0.0
C4842 C 0.92151 0.99114 0.89791 0.0
C4843 C 0.8905 0.97294 0.91003 0.0
C4844 C 0.89122 0.98341 0.92941 0.0
H4845 H 0.90391 0.96863 0.87981 0.0
H4846 H 0.8783 0.96174 0.90667 0.0
S4847 S 0.9317 0.02157 0.94613 0.0
N4848 N 0.93802 0.01534 0.92205 0.0
N4849 N 0.9105 1.00807 0.95123 0.0
C4850 C 0.90762 0.99767 0.93294 0.0
C4851 C 0.92265 1.00156 0.91715 0.0
C4852 C 0.28787 0.66547 0.14033 0.0
C4853 C 0.28026 0.68454 0.14736 0.0
C4854 C 0.29072 0.64916 0.15406 0.0
C4855 C 0.28581 0.65137 0.17522 0.0
H4856 H 0.29145 0.6631 0.12407 0.0
H4857 H 0.29661 0.63469 0.14806 0.0
S4858 S 0.26734 0.69909 0.20143 0.0
N4859 N 0.26907 0.70526 0.17673 0.0
N4860 N 0.27444 0.67475 0.20271 0.0
C4861 C 0.27856 0.67058 0.18243 0.0
C4862 C 0.27576 0.68715 0.16844 0.0
C4863 C 0.42116 0.54565 0.11952 0.0
C4864 C 0.42916 0.52562 0.12106 0.0
C4865 C 0.40509 0.5502 0.10556 0.0
C4866 C 0.39616 0.53499 0.09223 0.0
H4867 H 0.42707 0.55798 0.12953 0.0
H4868 H 0.39977 0.56597 0.10516 0.0
S4869 S 0.41151 0.48 0.08983 0.0
N4870 N 0.42682 0.49032 0.10794 0.0
N4871 N 0.39685 0.49889 0.08149 0.0
C4872 C 0.40406 0.51487 0.09348 0.0
C4873 C 0.4204 0.51018 0.10793 0.0
C4874 C 0.7433 0.14101 0.36385 0.0
C4875 C 0.74539 0.14343 0.34227 0.0
C4876 C 0.7464 0.15773 0.37786 0.0
C4877 C 0.75115 0.17771 0.37088 0.0
H4878 H 0.73945 0.126 0.37 0.0
H4879 H 0.74516 0.15499 0.39432 0.0
S4880 S 0.75607 0.19291 0.316 0.0
N4881 N 0.75128 0.16783 0.31464 0.0
N4882 N 0.75665 0.19918 0.34096 0.0
C4883 C 0.75272 0.1805 0.34939 0.0
C4884 C 0.74994 0.16341 0.33511 0.0
C4885 C 0.77661 0.82241 0.86575 0.0
C4886 C 0.76017 0.8218 0.87997 0.0
C4887 C 0.77402 0.83085 0.84593 0.0
C4888 C 0.75488 0.83897 0.83952 0.0
H4889 H 0.79177 0.81692 0.87013 0.0
H4890 H 0.78724 0.83134 0.83568 0.0
S4891 S 0.70648 0.83988 0.87032 0.0
N4892 N 0.72351 0.82867 0.88546 0.0
N4893 N 0.71907 0.84528 0.84888 0.0
C4894 C 0.73814 0.83774 0.8533 0.0
C4895 C 0.74068 0.82899 0.87332 0.0
C4896 C 0.95788 0.31538 0.14833 0.0
C4897 C 0.96034 0.29383 0.14879 0.0
C4898 C 0.96858 0.32738 0.13382 0.0
C4899 C 0.98202 0.3181 0.11951 0.0
H4900 H 0.94801 0.32304 0.15951 0.0
H4901 H 0.96696 0.34399 0.13429 0.0
S4902 S 0.99344 0.26253 0.11377 0.0
N4903 N 0.97676 0.26383 0.13304 0.0
N4904 N 0.99699 0.2865 0.10621 0.0
C4905 C 0.98424 0.29667 0.11949 0.0
C4906 C 0.97331 0.28447 0.13402 0.0
C4907 C 0.96226 0.70813 0.40495 0.0
C4908 C 0.98094 0.69874 0.39933 0.0
C4909 C 0.95015 0.71804 0.39008 0.0
C4910 C 0.95595 0.71819 0.36909 0.0
H4911 H 0.95778 0.70916 0.4211 0.0
H4912 H 0.93678 0.72666 0.3952 0.0
S4913 S 1.00185 0.69332 0.34604 0.0
N4914 N 1.00366 0.68852 0.37109 0.0
N4915 N 0.98036 0.70656 0.3431 0.0
C4916 C 0.97357 0.70734 0.36301 0.0
C4917 C 0.98622 0.69773 0.37819 0.0
C4918 C 0.5764 0.71589 0.64744 0.0
C4919 C 0.57094 0.73665 0.65081 0.0
C4920 C 0.56483 0.70301 0.63369 0.0
C4921 C 0.54721 0.71047 0.62345 0.0
H4922 H 0.58964 0.70959 0.65546 0.0
H4923 H 0.56929 0.68707 0.63154 0.0
S4924 S 0.52629 0.76327 0.62702 0.0
N4925 N 0.54676 0.76382 0.64254 0.0
N4926 N 0.52505 0.73963 0.61725 0.0
C4927 C 0.54174 0.73109 0.62663 0.0
C4928 C 0.5536 0.7442 0.64019 0.0
C4929 C 0.54149 0.31992 0.87918 0.0
C4930 C 0.54883 0.3229 0.89964 0.0
C4931 C 0.55354 0.30991 0.86414 0.0
C4932 C 0.57309 0.3022 0.86923 0.0
H4933 H 0.52604 0.32471 0.87491 0.0
H4934 H 0.54695 0.30699 0.84884 0.0
S4935 S 0.60053 0.3083 0.91962 0.0
N4936 N 0.57795 0.31945 0.92344 0.0
N4937 N 0.60018 0.2998 0.8953 0.0
C4938 C 0.58112 0.30608 0.8892 0.0
C4939 C 0.56908 0.31672 0.9044 0.0
C4940 C 0.15854 0.97748 0.29949 0.0
C4941 C 0.1562 0.95599 0.2986 0.0
C4942 C 0.14424 0.9897 0.31005 0.0
C4943 C 0.12701 0.98085 0.31998 0.0
H4944 H 0.17104 0.98496 0.29121 0.0
H4945 H 0.14635 1.0063 0.30975 0.0
S4946 S 0.11537 0.92487 0.32391 0.0
N4947 N 0.13657 0.926 0.30969 0.0
N4948 N 0.1095 0.94902 0.32978 0.0
C4949 C 0.12515 0.95921 0.32018 0.0
C4950 C 0.13981 0.94673 0.30935 0.0
C4951 C 0.3262 0.87917 0.54392 0.0
C4952 C 0.3284 0.89971 0.55111 0.0
C4953 C 0.31737 0.86396 0.5564 0.0
C4954 C 0.30995 0.869 0.57621 0.0
H4955 H 0.33045 0.87499 0.52818 0.0
H4956 H 0.31465 0.84869 0.5498 0.0
S4957 S 0.3149 0.91959 0.60344 0.0
N4958 N 0.32516 0.92353 0.58039 0.0
N4959 N 0.30747 0.89511 0.60347 0.0
C4960 C 0.3135 0.88902 0.58418 0.0
C4961 C 0.32303 0.90439 0.5717 0.0
C4962 C 0.36736 0.06255 0.82018 0.0
C4963 C 0.37403 0.07635 0.80502 0.0
C4964 C 0.38176 0.05119 0.83152 0.0
C4965 C 0.40321 0.05373 0.82842 0.0
H4966 H 0.35098 0.05929 0.82212 0.0
H4967 H 0.37604 0.03954 0.84197 0.0
S4968 S 0.42836 0.09069 0.79302 0.0
N4969 N 0.40327 0.09376 0.7891 0.0
N4970 N 0.43036 0.07298 0.81104 0.0
C4971 C 0.41003 0.06898 0.81479 0.0
C4972 C 0.39538 0.08014 0.80286 0.0
C4973 C 0.21412 0.15255 0.0796 0.0
C4974 C 0.2358 0.15186 0.07721 0.0
C4975 C 0.20103 0.13782 0.06965 0.0
C4976 C 0.20933 0.12188 0.05734 0.0
H4977 H 0.2072 0.16498 0.08847 0.0
H4978 H 0.18439 0.13958 0.07064 0.0
S4979 S 0.26467 0.11277 0.04649 0.0
N4980 N 0.26473 0.13336 0.0619 0.0
N4981 N 0.24012 0.1059 0.04363 0.0
C4982 C 0.23085 0.12053 0.0556 0.0
C4983 C 0.24411 0.13546 0.06546 0.0
C4984 C 0.12854 0.06209 0.20271 0.0
C4985 C 0.12581 0.04121 0.2079 0.0
C4986 C 0.14286 0.07482 0.21363 0.0
C4987 C 0.15427 0.06706 0.23035 0.0
H4988 H 0.11955 0.0686 0.19022 0.0
H4989 H 0.14452 0.09085 0.20943 0.0
S4990 S 0.15387 0.01346 0.24922 0.0
N4991 N 0.13674 0.01331 0.23009 0.0
N4992 N 0.16299 0.03731 0.25077 0.0
C4993 C 0.15204 0.04622 0.23528 0.0
C4994 C 0.13794 0.03325 0.22401 0.0
C4995 C 0.206 0.90432 0.45829 0.0
C4996 C 0.20195 0.89986 0.47916 0.0
C4997 C 0.21562 0.88979 0.44528 0.0
C4998 C 0.22074 0.87021 0.45259 0.0
H4999 H 0.20279 0.91946 0.45229 0.0
H5000 H 0.21985 0.89418 0.42971 0.0
S5001 S 0.21199 0.85037 0.50535 0.0
N5002 N 0.20285 0.87405 0.50616 0.0
N5003 N 0.22028 0.84667 0.48141 0.0
C5004 C 0.21557 0.86511 0.47294 0.0
C5005 C 0.20629 0.87999 0.48633 0.0
C5006 C 0.39657 0.94833 0.73018 0.0
C5007 C 0.37554 0.9478 0.72421 0.0
C5008 C 0.41162 0.95779 0.7178 0.0
C5009 C 0.40598 0.96738 0.69931 0.0
H5010 H 0.4013 0.94225 0.74501 0.0
H5011 H 0.42736 0.95917 0.72365 0.0
S5012 S 0.35368 0.96775 0.67527 0.0
N5013 N 0.35038 0.95536 0.69722 0.0
N5014 N 0.37858 0.97387 0.67436 0.0
C5015 C 0.38534 0.96559 0.69238 0.0
C5016 C 0.3701 0.95558 0.70474 0.0
C5017 C 0.33526 0.1457 0.97887 0.0
C5018 C 0.3328 0.12447 0.97439 0.0
C5019 C 0.32521 0.16048 0.96695 0.0
C5020 C 0.31225 0.15438 0.95037 0.0
H5021 H 0.344 0.15087 0.99242 0.0
H5022 H 0.32613 0.17652 0.97189 0.0
S5023 S 0.3043 0.10124 0.92955 0.0
N5024 N 0.3194 0.09844 0.95009 0.0
N5025 N 0.30012 0.12624 0.9279 0.0
C5026 C 0.3114 0.13345 0.94443 0.0
C5027 C 0.32185 0.11842 0.95639 0.0
C5028 C 0.81349 0.38171 0.07394 0.0
C5029 C 0.79848 0.36847 0.06486 0.0
C5030 C 0.82428 0.39619 0.06189 0.0
C5031 C 0.82075 0.3973 0.04035 0.0
H5032 H 0.81639 0.3814 0.09044 0.0
H5033 H 0.83514 0.40675 0.06951 0.0
S5034 S 0.78597 0.36287 1.0089 0.0
N5035 N 0.78251 0.35552 0.03305 0.0
N5036 N 0.80316 0.38191 1.01023 0.0
C5037 C 0.80695 0.38291 0.031 0.0
C5038 C 0.79573 0.36866 0.04331 0.0
C5039 C 0.88958 0.53714 0.3326 0.0
C5040 C 0.91051 0.54304 0.33171 0.0
C5041 C 0.87479 0.54744 0.32115 0.0
C5042 C 0.88066 0.56374 0.30842 0.0
H5043 H 0.88473 0.52372 0.34122 0.0
H5044 H 0.85891 0.54183 0.32139 0.0
S5045 S 0.9324 0.5889 0.3058 0.0
N5046 N 0.93576 0.56887 0.32092 0.0
N5047 N 0.90773 0.5882 0.29882 0.0
C5048 C 0.90114 0.57121 0.30909 0.0
C5049 C 0.9162 0.56087 0.32104 0.0
C5050 C 0.70576 0.65131 0.57654 0.0
C5051 C 0.72584 0.64697 0.58367 0.0
C5052 C 0.69493 0.63721 0.56365 0.0
C5053 C 0.70358 0.61816 0.55811 0.0
H5054 H 0.69901 0.66625 0.57962 0.0
H5055 H 0.68013 0.64164 0.55718 0.0
S5056 S 0.75467 0.59856 0.57442 0.0
N5057 N 0.75329 0.62166 0.58548 0.0
N5058 N 0.73251 0.59496 0.56183 0.0
C5059 C 0.72285 0.61293 0.56651 0.0
C5060 C 0.7341 0.62742 0.57922 0.0
C5061 C 0.907 0.47576 0.22941 0.0
C5062 C 0.90603 0.4741 0.20773 0.0
C5063 C 0.89273 0.46535 0.24175 0.0
C5064 C 0.8767 0.45324 0.2328 0.0
H5065 H 0.91832 0.48597 0.23688 0.0
H5066 H 0.89371 0.46764 0.25842 0.0
S5067 S 0.86885 0.44239 0.17655 0.0
N5068 N 0.88906 0.45831 0.17762 0.0
N5069 N 0.86183 0.4387 0.20086 0.0
C5070 C 0.8762 0.45059 0.21107 0.0
C5071 C 0.89098 0.46109 0.19848 0.0
C5072 C 0.65615 0.56402 0.70424 0.0
C5073 C 0.65025 0.57465 0.72236 0.0
C5074 C 0.64159 0.55227 0.69276 0.0
C5075 C 0.62068 0.55151 0.69869 0.0
H5076 H 0.67229 0.56362 0.69973 0.0
H5077 H 0.64683 0.54313 0.67963 0.0
S5078 S 0.59715 0.57874 0.74348 0.0
N5079 N 0.62202 0.58492 0.74489 0.0
N5080 N 0.59447 0.56376 0.72262 0.0
C5081 C 0.61434 0.56344 0.71577 0.0
C5082 C 0.62923 0.5748 0.72783 0.0
C5083 C 0.05123 0.7254 0.90859 0.0
C5084 C 0.05191 0.70383 0.90861 0.0
C5085 C 0.06251 0.73671 0.89417 0.0
C5086 C 0.07462 0.72682 0.87899 0.0
H5087 H 0.04141 0.73357 0.91946 0.0
H5088 H 0.06111 0.75334 0.8945 0.0
S5089 S 0.08225 0.67038 0.87335 0.0
N5090 N 0.06621 0.6728 0.89311 0.0
N5091 N 0.08742 0.69406 0.86559 0.0
C5092 C 0.076 0.70517 0.87931 0.0
C5093 C 0.06459 0.69365 0.89423 0.0
C5094 C 0.06913 0.30349 0.62813 0.0
C5095 C 0.04774 0.30616 0.63103 0.0
C5096 C 0.08136 0.29503 0.64364 0.0
C5097 C 0.07259 0.28941 0.66251 0.0
H5098 H 0.07644 0.30765 0.61368 0.0
H5099 H 0.09764 0.29237 0.64067 0.0
S5100 S 0.01763 0.29321 0.67795 0.0
N5101 N 0.01838 0.30263 0.6543 0.0
N5102 N 0.04168 0.28684 0.68362 0.0
C5103 C 0.05145 0.29248 0.66594 0.0
C5104 C 0.03889 0.30087 0.65008 0.0
C5105 C 0.45624 0.30196 0.37646 0.0
C5106 C 0.45877 0.28064 0.37918 0.0
C5107 C 0.46612 0.31638 0.38979 0.0
C5108 C 0.47876 0.30983 0.40612 0.0
H5109 H 0.4471 0.30754 0.36361 0.0
H5110 H 0.46464 0.33262 0.38674 0.0
S5111 S 0.4894 0.25605 0.42077 0.0
N5112 N 0.47396 0.25385 0.40028 0.0
N5113 N 0.49257 0.28106 0.42505 0.0
C5114 C 0.48071 0.28869 0.40953 0.0
C5115 C 0.47065 0.27403 0.39613 0.0
C5116 C 0.46936 0.71046 0.16233 0.0
C5117 C 0.45007 0.71839 0.15667 0.0
C5118 C 0.48186 0.70077 0.14749 0.0
C5119 C 0.47527 0.69844 0.1267 0.0
H5120 H 0.47563 0.71345 0.17774 0.0
H5121 H 0.49725 0.69608 0.1521 0.0
S5122 S 0.42424 0.71317 0.10534 0.0
N5123 N 0.42374 0.72103 0.12985 0.0
N5124 N 0.44696 0.70216 0.10204 0.0
C5125 C 0.4551 0.70436 0.12145 0.0
C5126 C 0.44256 0.71457 0.13647 0.0
C5127 C 0.86461 0.0588 0.71166 0.0
C5128 C 0.87079 0.07854 0.71862 0.0
C5129 C 0.87886 0.04526 0.70272 0.0
C5130 C 0.89975 0.05111 0.70009 0.0
H5131 H 0.84894 0.05332 0.71427 0.0
H5132 H 0.87356 0.02986 0.69835 0.0
S5133 S 0.92288 0.10236 0.71323 0.0
N5134 N 0.89856 0.10406 0.7209 0.0
N5135 N 0.92534 0.07887 0.70326 0.0
C5136 C 0.90579 0.07135 0.70575 0.0
C5137 C 0.89131 0.085 0.7153 0.0
C5138 C 0.7102 0.15936 0.46206 0.0
C5139 C 0.72332 0.15266 0.44615 0.0
C5140 C 0.69946 0.14504 0.47412 0.0
C5141 C 0.70119 0.12367 0.47034 0.0
H5142 H 0.70971 0.17556 0.46644 0.0
H5143 H 0.69076 0.1507 0.48732 0.0
S5144 S 0.73013 0.09878 0.42753 0.0
N5145 N 0.73517 0.12368 0.4252 0.0
N5146 N 0.71435 0.09677 0.44751 0.0
C5147 C 0.71235 0.11697 0.45297 0.0
C5148 C 0.72365 0.13152 0.44096 0.0
C5149 C 0.64994 0.95401 0.21594 0.0
C5150 C 0.65699 0.96148 0.23543 0.0
C5151 C 0.63544 0.96518 0.20423 0.0
C5152 C 0.62814 0.98435 0.21148 0.0
H5153 H 0.65541 0.93939 0.20988 0.0
H5154 H 0.63027 0.95901 0.18933 0.0
S5155 S 0.64199 1.01053 0.26135 0.0
N5156 N 0.65553 0.98913 0.26123 0.0
N5157 N 0.62877 1.00998 0.23937 0.0
C5158 C 0.63518 0.99185 0.23085 0.0
C5159 C 0.6495 0.98044 0.24279 0.0
C5160 C 0.80493 0.91057 0.96797 0.0
C5161 C 0.81867 0.90282 0.98289 0.0
C5162 C 0.78983 0.8977 0.95849 0.0
C5163 C 0.78857 0.87676 0.96341 0.0
H5164 H 0.80521 0.9268 0.96437 0.0
H5165 H 0.77891 0.9042 0.94765 0.0
S5166 S 0.82387 0.84831 0.99804 0.0
N5167 N 0.8317 0.8726 1.00017 0.0
N5168 N 0.80432 0.84818 0.98137 0.0
C5169 C 0.80339 0.86856 0.9769 0.0
C5170 C 0.81827 0.88168 0.98691 0.0
C5171 C 0.88663 0.95409 0.80694 0.0
C5172 C 0.88281 0.97461 0.81281 0.0
C5173 C 0.8715 0.94205 0.79646 0.0
C5174 C 0.85185 0.94999 0.79128 0.0
H5175 H 0.90161 0.94739 0.80998 0.0
H5176 H 0.87554 0.92646 0.79193 0.0
S5177 S 0.83312 1.00205 0.80563 0.0
N5178 N 0.85724 1.00184 0.81439 0.0
N5179 N 0.82891 0.97919 0.7946 0.0
C5180 C 0.84757 0.97026 0.79774 0.0
C5181 C 0.86299 0.98254 0.80852 0.0
C5182 C 0.80684 0.10901 0.55185 0.0
C5183 C 0.82782 0.11222 0.54731 0.0
C5184 C 0.79496 0.12518 0.55968 0.0
C5185 C 0.80387 0.14483 0.56295 0.0
H5186 H 0.79924 0.09449 0.54777 0.0
H5187 H 0.77856 0.12253 0.56217 0.0
S5188 S 0.85926 0.1595 0.55668 0.0
N5189 N 0.85772 0.13515 0.54887 0.0
N5190 N 0.8356 0.16573 0.56386 0.0
C5191 C 0.82532 0.1476 0.56012 0.0
C5192 C 0.8373 0.13115 0.5522 0.0
C5193 C 0.66446 0.04993 0.30719 0.0
C5194 C 0.6592 0.06868 0.29811 0.0
C5195 C 0.64964 0.03829 0.31789 0.0
C5196 C 0.6292 0.04526 0.32032 0.0
H5197 H 0.67977 0.04363 0.30497 0.0
H5198 H 0.65407 0.02339 0.32373 0.0
S5199 S 0.60877 0.09504 0.30211 0.0
N5200 N 0.63292 0.09471 0.29375 0.0
N5201 N 0.60523 0.07328 0.31469 0.0
C5202 C 0.62424 0.06476 0.31264 0.0
C5203 C 0.63921 0.07635 0.30127 0.0
C5204 C 0.72119 0.88697 0.07753 0.0
C5205 C 0.72261 0.8661 0.07149 0.0
C5206 C 0.71092 0.90113 0.06498 0.0
C5207 C 0.70249 0.89491 0.04569 0.0
H5208 H 0.7288 0.89251 0.09162 0.0
H5209 H 0.71076 0.91722 0.06978 0.0
S5210 S 0.70112 0.84166 0.02359 0.0
N5211 N 0.71346 0.83958 0.04597 0.0
N5212 N 0.69499 0.86622 0.02185 0.0
C5213 C 0.70297 0.87386 0.04001 0.0
C5214 C 0.71285 0.85941 0.05308 0.0
C5215 C 0.24369 0.64256 0.97293 0.0
C5216 C 0.23576 0.65086 0.95459 0.0
C5217 C 0.23211 0.62864 0.98453 0.0
C5218 C 0.21233 0.62193 0.9781 0.0
H5219 H 0.25889 0.64719 0.97868 0.0
H5220 H 0.23884 0.62292 0.99867 0.0
S5221 S 0.18549 0.63693 0.92965 0.0
N5222 N 0.20732 0.65056 0.92967 0.0
N5223 N 0.18602 0.62302 0.95093 0.0
C5224 C 0.20454 0.62917 0.95914 0.0
C5225 C 0.21612 0.64407 0.94757 0.0
C5226 C 0.1409 0.46255 0.70105 0.0
C5227 C 0.12328 0.4718 0.70962 0.0
C5228 C 0.15551 0.45286 0.71382 0.0
C5229 C 0.15301 0.45244 0.73553 0.0
H5230 H 0.14389 0.46367 0.68458 0.0
H5231 H 0.16921 0.44641 0.70675 0.0
S5232 S 0.10882 0.47398 0.76491 0.0
N5233 N 0.10364 0.47939 0.74054 0.0
N5234 N 0.13084 0.46132 0.76464 0.0
C5235 C 0.13494 0.46098 0.744 0.0
C5236 C 0.12016 0.47068 0.73101 0.0
C5237 C 0.29231 0.38355 0.45061 0.0
C5238 C 0.29932 0.36305 0.44983 0.0
C5239 C 0.3043 0.39941 0.45984 0.0
C5240 C 0.32353 0.39519 0.46897 0.0
H5241 H 0.27695 0.38722 0.445 0.0
H5242 H 0.29771 0.41464 0.46135 0.0
S5243 S 0.35064 0.34517 0.46762 0.0
N5244 N 0.32813 0.34016 0.45611 0.0
N5245 N 0.35044 0.36993 0.4741 0.0
C5246 C 0.33152 0.37523 0.46671 0.0
C5247 C 0.31947 0.35912 0.45693 0.0
C5248 C 0.12324 0.56208 0.81535 0.0
C5249 C 0.12874 0.54399 0.82563 0.0
C5250 C 0.13825 0.57393 0.80512 0.0
C5251 C 0.15925 0.56847 0.80548 0.0
H5252 H 0.10712 0.56636 0.81405 0.0
H5253 H 0.13325 0.58686 0.79599 0.0
S5254 S 0.18202 0.52411 0.83235 0.0
N5255 N 0.15693 0.52217 0.83696 0.0
N5256 N 0.18508 0.54499 0.8183 0.0
C5257 C 0.16517 0.55143 0.81704 0.0
C5258 C 0.14989 0.53903 0.82699 0.0
C5259 C 0.36492 0.43974 0.30122 0.0
C5260 C 0.35197 0.4481 0.28581 0.0
C5261 C 0.38108 0.45138 0.3106 0.0
C5262 C 0.38509 0.47184 0.30487 0.0
H5263 H 0.3627 0.42391 0.30594 0.0
H5264 H 0.39051 0.44426 0.32239 0.0
S5265 S 0.35642 0.50071 0.26462 0.0
N5266 N 0.3447 0.47795 0.26493 0.0
N5267 N 0.37495 0.49986 0.28238 0.0
C5268 C 0.37223 0.48042 0.2895 0.0
C5269 C 0.3557 0.46857 0.28005 0.0
C5270 C 0.47087 0.815 0.65973 0.0
C5271 C 0.45469 0.80172 0.65326 0.0
C5272 C 0.48276 0.82575 0.64522 0.0
C5273 C 0.47814 0.82437 0.62387 0.0
H5274 H 0.47514 0.81611 0.67595 0.0
H5275 H 0.49605 0.83471 0.6507 0.0
S5276 S 0.43355 0.79616 0.59987 0.0
N5277 N 0.4325 0.79025 0.62469 0.0
N5278 N 0.45373 0.81187 0.59752 0.0
C5279 C 0.46042 0.8131 0.61753 0.0
C5280 C 0.44893 0.8014 0.63222 0.0
C5281 C 0.46359 0.21875 0.90862 0.0
C5282 C 0.47822 0.20429 0.90186 0.0
C5283 C 0.45254 0.23059 0.8943 0.0
C5284 C 0.45532 0.22792 0.87277 0.0
H5285 H 0.46161 0.22186 0.92505 0.0
H5286 H 0.44221 0.24234 0.90012 0.0
S5287 S 0.4899 0.19019 0.8472 0.0
N5288 N 0.49374 0.18683 0.87227 0.0
N5289 N 0.47236 0.20842 0.84543 0.0
C5290 C 0.46876 0.21244 0.86584 0.0
C5291 C 0.48039 0.2008 0.88039 0.0
C5292 C 0.07614 0.23871 0.13288 0.0
C5293 C 0.07791 0.23301 0.1538 0.0
C5294 C 0.06584 0.22589 0.11827 0.0
C5295 C 0.05664 0.20722 0.12427 0.0
H5296 H 0.08209 0.25351 0.12791 0.0
H5297 H 0.0638 0.23131 0.10258 0.0
S5298 S 0.05848 0.18435 0.1765 0.0
N5299 N 0.07124 0.20649 0.17923 0.0
N5300 N 0.0511 0.18289 0.15192 0.0
C5301 C 0.05917 0.20087 0.14482 0.0
C5302 C 0.07006 0.21364 0.15957 0.0
C5303 C 0.06422 0.78502 0.38994 0.0
C5304 C 0.07336 0.79409 0.3725 0.0
C5305 C 0.0546 0.79706 0.40518 0.0
C5306 C 0.05404 0.81857 0.40367 0.0
H5307 H 0.06369 0.76841 0.39144 0.0
H5308 H 0.04667 0.78941 0.41773 0.0
S5309 S 0.07757 0.85018 0.36251 0.0
N5310 N 0.08275 0.82614 0.35556 0.0
N5311 N 0.06454 0.84877 0.38445 0.0
C5312 C 0.06413 0.82803 0.38707 0.0
C5313 C 0.07389 0.81576 0.37141 0.0
C5314 C 0.61748 0.45827 0.80416 0.0
C5315 C 0.62363 0.46977 0.82181 0.0
C5316 C 0.63224 0.44823 0.79187 0.0
C5317 C 0.65345 0.44916 0.79711 0.0
H5318 H 0.6015 0.4584 0.79892 0.0
H5319 H 0.62712 0.44053 0.77765 0.0
S5320 S 0.67665 0.47472 0.84377 0.0
N5321 N 0.6517 0.47986 0.84521 0.0
N5322 N 0.6794 0.46039 0.82255 0.0
C5323 C 0.65944 0.45909 0.81576 0.0
C5324 C 0.64449 0.46961 0.82801 0.0
C5325 C 0.70719 0.36481 0.97233 0.0
C5326 C 0.71279 0.36964 0.95199 0.0
C5327 C 0.6988 0.37987 0.98555 0.0
C5328 C 0.69569 0.40013 0.97875 0.0
H5329 H 0.71111 0.34998 0.97868 0.0
H5330 H 0.69587 0.37592 1.00153 0.0
S5331 S 0.70342 0.41879 0.92526 0.0
N5332 N 0.71168 0.39478 0.92456 0.0
N5333 N 0.69536 0.42302 0.94922 0.0
C5334 C 0.69903 0.40438 0.95772 0.0
C5335 C 0.70778 0.3891 0.94437 0.0
C5336 C 0.8084 0.61546 0.45912 0.0
C5337 C 0.8284 0.62025 0.46646 0.0
C5338 C 0.79598 0.63077 0.45065 0.0
C5339 C 0.80341 0.65115 0.4488 0.0
H5340 H 0.8016 0.60037 0.46171 0.0
H5341 H 0.78011 0.62683 0.44652 0.0
S5342 S 0.85638 0.67017 0.46165 0.0
N5343 N 0.85621 0.64579 0.4687 0.0
N5344 N 0.83312 0.67444 0.45189 0.0
C5345 C 0.82419 0.6555 0.45388 0.0
C5346 C 0.83667 0.64002 0.46294 0.0
C5347 C 0.55851 0.22708 0.40931 0.0
C5348 C 0.55921 0.20551 0.40919 0.0
C5349 C 0.56903 0.23841 0.39437 0.0
C5350 C 0.58033 0.22851 0.3786 0.0
H5351 H 0.54881 0.23519 0.42033 0.0
H5352 H 0.56738 0.25502 0.39463 0.0
S5353 S 0.58957 0.17234 0.3736 0.0
N5354 N 0.57416 0.17465 0.39389 0.0
N5355 N 0.59365 0.19599 0.36523 0.0
C5356 C 0.58238 0.20698 0.37919 0.0
C5357 C 0.57182 0.19543 0.39466 0.0
C5358 C 0.55631 0.82906 0.14405 0.0
C5359 C 0.55509 0.8227 0.1231 0.0
C5360 C 0.56641 0.81702 0.15882 0.0
C5361 C 0.57484 0.79789 0.15315 0.0
H5362 H 0.5486 0.84297 0.14919 0.0
H5363 H 0.56639 0.82205 0.17493 0.0
S5364 S 0.57647 0.77492 0.10007 0.0
N5365 N 0.5642 0.7969 0.09718 0.0
N5366 N 0.58242 0.77376 0.12499 0.0
C5367 C 0.57445 0.79182 0.13209 0.0
C5368 C 0.56475 0.80439 0.11701 0.0
C5369 C 0.95085 0.79766 0.89037 0.0
C5370 C 0.95867 0.78996 0.87156 0.0
C5371 C 0.96306 0.81057 0.90331 0.0
C5372 C 0.98362 0.81556 0.89804 0.0
H5373 H 0.93544 0.79322 0.89535 0.0
H5374 H 0.95671 0.81582 0.91796 0.0
S5375 S 1.01087 0.79943 0.84999 0.0
N5376 N 0.98759 0.78872 0.84776 0.0
N5377 N 1.01087 0.81242 0.87226 0.0
C5378 C 0.9913 0.80841 0.87888 0.0
C5379 C 0.97871 0.79569 0.86558 0.0
C5380 C 0.99267 0.21276 0.64506 0.0
C5381 C 0.98372 0.20394 0.62698 0.0
C5382 C 0.98067 0.22362 0.65945 0.0
C5383 C 0.95931 0.22581 0.65638 0.0
H5384 H 1.00923 0.21207 0.64773 0.0
H5385 H 0.98833 0.2312 0.67257 0.0
S5386 S 0.92788 0.20394 0.61289 0.0
N5387 N 0.95179 0.19672 0.60771 0.0
N5388 N 0.92926 0.21729 0.63495 0.0
C5389 C 0.94987 0.21612 0.6391 0.0
C5390 C 0.9621 0.20506 0.62433 0.0
C5391 C 0.38461 0.55219 0.18942 0.0
C5392 C 0.40588 0.55415 0.19418 0.0
C5393 C 0.37014 0.5657 0.19814 0.0
C5394 C 0.37653 0.58126 0.21222 0.0
H5395 H 0.37898 0.53946 0.17974 0.0
H5396 H 0.35379 0.56276 0.19532 0.0
S5397 S 0.43052 0.5946 0.22763 0.0
N5398 N 0.43278 0.57445 0.21181 0.0
N5399 N 0.40548 0.59937 0.22885 0.0
C5400 C 0.39784 0.58437 0.21584 0.0
C5401 C 0.41259 0.57092 0.20662 0.0
C5402 C 0.3121 0.66192 0.05179 0.0
C5403 C 0.29978 0.65661 0.06882 0.0
C5404 C 0.32277 0.64676 0.04044 0.0
C5405 C 0.32202 0.62588 0.04611 0.0
H5406 H 0.31253 0.67766 0.04646 0.0
H5407 H 0.33123 0.65135 0.02676 0.0
S5408 S 0.29445 0.60464 0.09143 0.0
N5409 N 0.28883 0.62943 0.09193 0.0
N5410 N 0.30975 0.60112 0.07126 0.0
C5411 C 0.31105 0.62066 0.06407 0.0
C5412 C 0.29967 0.636 0.07524 0.0
C5413 C 0.203 0.40107 0.56617 0.0
C5414 C 0.1978 0.39549 0.54559 0.0
C5415 C 0.21317 0.3872 0.57916 0.0
C5416 C 0.21781 0.36713 0.5722 0.0
H5417 H 0.20027 0.41659 0.57191 0.0
H5418 H 0.21824 0.39249 0.59442 0.0
S5419 S 0.20608 0.34441 0.52032 0.0
N5420 N 0.19712 0.36812 0.51928 0.0
N5421 N 0.21559 0.34198 0.54398 0.0
C5422 C 0.21148 0.36092 0.5522 0.0
C5423 C 0.20161 0.37514 0.5388 0.0
C5424 C 0.99707 0.25196 0.05437 0.0
C5425 C 0.01584 0.24126 0.0505 0.0
C5426 C 0.99537 0.27391 0.05302 0.0
C5427 C 1.01243 0.28684 0.0481 0.0
H5428 H 0.98342 0.24329 0.05883 0.0
H5429 H 0.98065 0.28086 0.05671 0.0
S5430 S 0.06524 0.26741 0.03633 0.0
N5431 N 0.05183 0.24615 0.04101 0.0
N5432 N 0.04891 0.28665 0.03907 0.0
C5433 C 0.03123 0.27636 0.04406 0.0
C5434 C 0.03286 0.25399 0.04506 0.0
C5435 C 0.02229 0.78152 0.29907 0.0
C5436 C 0.03532 0.76488 0.29387 0.0
C5437 C 1.00028 0.77922 0.30019 0.0
C5438 C 0.98971 0.76022 0.29586 0.0
H5439 H 0.02919 0.79636 0.30318 0.0
H5440 H 0.99147 0.79257 0.30493 0.0
S5441 S 0.01621 0.7119 0.28016 0.0
N5442 N 0.03547 0.72867 0.28358 0.0
N5443 N 0.99475 0.72459 0.2852 0.0
C5444 C 1.00254 0.74365 0.28995 0.0
C5445 C 0.02498 0.7459 0.28912 0.0
C5446 C 0.52755 0.77471 0.53932 0.0
C5447 C 0.5116 0.78558 0.54985 0.0
C5448 C 0.52941 0.75261 0.53977 0.0
C5449 C 0.51568 0.73983 0.55115 0.0
H5450 H 0.53885 0.78341 0.53061 0.0
H5451 H 0.54187 0.74552 0.53118 0.0
S5452 S 0.47351 0.76063 0.58462 0.0
N5453 N 0.48322 0.78144 0.57373 0.0
N5454 N 0.48681 0.74108 0.5752 0.0
C5455 C 0.50019 0.75077 0.56234 0.0
C5456 C 0.49815 0.77311 0.56157 0.0
C5457 C 0.52203 0.28264 0.79617 0.0
C5458 C 0.53534 0.26547 0.79666 0.0
C5459 C 0.49995 0.28048 0.79668 0.0
C5460 C 0.48959 0.261 0.79736 0.0
H5461 H 0.52872 0.29804 0.79607 0.0
H5462 H 0.49087 0.2944 0.79681 0.0
S5463 S 0.51668 0.21082 0.79859 0.0
N5464 N 0.53576 0.22796 0.79765 0.0
N5465 N 0.49506 0.22414 0.79837 0.0
C5466 C 0.50267 0.24372 0.79741 0.0
C5467 C 0.52513 0.24589 0.79714 0.0
C5468 C 0.99858 0.77528 0.47276 0.0
C5469 C 0.0176 0.78622 0.47628 0.0
C5470 C 0.99676 0.75326 0.4737 0.0
C5471 C 1.01393 0.74054 0.47785 0.0
H5472 H 0.98482 0.78381 0.46887 0.0
H5473 H 0.98185 0.74612 0.47028 0.0
S5474 S 0.06727 0.76066 0.48888 0.0
N5475 N 0.05388 0.78178 0.4849 0.0
N5476 N 0.0507 0.74117 0.48606 0.0
C5477 C 0.03295 0.75127 0.48164 0.0
C5478 C 0.03471 0.77369 0.48106 0.0
C5479 C 0.52574 0.75082 0.73523 0.0
C5480 C 0.5387 0.76507 0.72477 0.0
C5481 C 0.50358 0.75277 0.73588 0.0
C5482 C 0.49289 0.76931 0.7265 0.0
H5483 H 0.53273 0.7379 0.74292 0.0
H5484 H 0.4947 0.74107 0.74382 0.0
S5485 S 0.51849 0.80942 0.69487 0.0
N5486 N 0.53794 0.79541 0.70313 0.0
N5487 N 0.49743 0.79913 0.705 0.0
C5488 C 0.50559 0.7834 0.71587 0.0
C5489 C 0.52798 0.78129 0.71488 0.0
C5490 C 0.49978 0.2524 0.96636 0.0
C5491 C 0.51275 0.24015 0.97873 0.0
C5492 C 0.50185 0.27434 0.96573 0.0
C5493 C 0.51711 0.28577 0.97732 0.0
H5494 H 0.48825 0.24489 0.95644 0.0
H5495 H 0.49146 0.28241 0.95554 0.0
S5496 S 0.55441 0.26145 0.01338 0.0
N5497 N 0.54118 0.24156 1.00354 0.0
N5498 N 0.54486 0.28225 1.00254 0.0
C5499 C 0.52997 0.27369 0.99005 0.0
C5500 C 0.52789 0.25124 0.99065 0.0
C5501 C 0.02727 0.27091 0.2447 0.0
C5502 C 0.03869 0.26369 0.2273 0.0
C5503 C 1.00518 0.27352 0.24409 0.0
C5504 C 0.99313 0.26908 0.22601 0.0
H5505 H 0.03551 0.2748 0.25894 0.0
H5506 H 0.99746 0.27878 0.25803 0.0
S5507 S 0.01535 0.25186 0.17551 0.0
N5508 N 0.03581 0.25379 0.19098 0.0
N5509 N 0.99521 0.25812 0.18989 0.0
C5510 C 1.00451 0.26222 0.2085 0.0
C5511 C 0.02686 0.25977 0.20909 0.0
C5512 C 0.05104 0.02973 0.27338 0.0
C5513 C 0.04965 1.01053 0.28374 0.0
C5514 C 0.05065 0.03141 0.25125 0.0
C5515 C 0.04913 0.01396 0.23778 0.0
H5516 H 0.05277 0.04383 0.28251 0.0
H5517 H 0.05222 0.04659 0.24465 0.0
S5518 S 0.04475 0.95984 0.25623 0.0
N5519 N 0.0463 0.97361 0.27798 0.0
N5520 N 0.04571 0.97655 0.23719 0.0
C5521 C 0.04744 0.99468 0.24795 0.0
C5522 C 0.04764 0.99302 0.27048 0.0
C5523 C 0.25643 0.78355 0.49975 0.0
C5524 C 0.26068 0.8016 0.48825 0.0
C5525 C 0.25947 0.78279 0.52184 0.0
C5526 C 0.26676 0.80007 0.53375 0.0
H5527 H 0.25088 0.76981 0.49161 0.0
H5528 H 0.25561 0.76864 0.52971 0.0
S5529 S 0.27833 0.85162 0.51192 0.0
N5530 N 0.27178 0.83744 0.49134 0.0
N5531 N 0.27661 0.83614 0.53195 0.0
C5532 C 0.27051 0.8182 0.52244 0.0
C5533 C 0.26779 0.8189 0.50012 0.0
C5534 C 0.4662 0.99737 0.77516 0.0
C5535 C 0.47602 0.01375 0.78662 0.0
C5536 C 0.46715 0.99545 0.75311 0.0
C5537 C 0.47801 1.00978 0.74085 0.0
H5538 H 0.45718 0.98591 0.78325 0.0
H5539 H 0.45862 0.98292 0.74553 0.0
S5540 S 0.50775 0.05491 0.76221 0.0
N5541 N 0.49805 0.04411 0.78314 0.0
N5542 N 0.4995 0.04073 0.7422 0.0
C5543 C 0.48821 0.02605 0.75196 0.0
C5544 C 0.48737 0.02794 0.77451 0.0
C5545 C 0.27123 0.24814 0.0296 0.0
C5546 C 0.26644 0.23084 0.04211 0.0
C5547 C 0.27366 0.24654 1.00736 0.0
C5548 C 0.27125 0.22755 0.99612 0.0
H5549 H 0.27361 0.26306 0.0371 0.0
H5550 H 0.27722 0.2604 0.9989 0.0
S5551 S 0.25941 0.17736 0.02115 0.0
N5552 N 0.26023 0.19393 0.04087 0.0
N5553 N 0.26404 0.191 1.00024 0.0
C5554 C 0.26645 0.21028 1.00858 0.0
C5555 C 0.26434 0.21188 0.03102 0.0
C5556 C 0.25324 0.05134 0.03105 0.0
C5557 C 0.24021 0.05282 0.01334 0.0
C5558 C 0.27544 0.05135 0.02971 0.0
C5559 C 0.28627 0.05222 1.01055 0.0
H5560 H 0.24628 0.05092 0.04627 0.0
H5561 H 0.28426 0.05082 0.04403 0.0
S5562 S 0.26007 0.05648 0.95928 0.0
N5563 N 0.2406 0.05556 0.97577 0.0
N5564 N 0.28142 0.05484 0.97338 0.0
C5565 C 0.27342 0.05334 0.99274 0.0
C5566 C 0.25087 0.05384 0.99411 0.0
C5567 C 0.77644 0.46868 0.99498 0.0
C5568 C 0.7876 0.47604 1.01282 0.0
C5569 C 0.75432 0.46928 0.9933 0.0
C5570 C 0.74172 0.4771 1.00944 0.0
H5571 H 0.78485 0.46191 0.98215 0.0
H5572 H 0.747 0.46277 0.97947 0.0
S5573 S 0.76236 0.49969 0.059 0.0
N5574 N 0.78347 0.4926 0.04655 0.0
N5575 N 0.74263 0.49326 0.04366 0.0
C5576 C 0.75263 0.48485 0.02717 0.0
C5577 C 0.77516 0.48448 0.02877 0.0
C5578 C 0.81077 0.50183 0.27885 0.0
C5579 C 0.7984 0.49073 0.26401 0.0
C5580 C 0.81017 0.52372 0.28157 0.0
C5581 C 0.79665 0.53636 0.27015 0.0
H5582 H 0.82168 0.49354 0.28826 0.0
H5583 H 0.82098 0.53092 0.29247 0.0
S5584 S 0.76028 0.51601 0.22944 0.0
N5585 N 0.77175 0.49499 0.23771 0.0
N5586 N 0.77041 0.53557 0.24301 0.0
C5587 C 0.78391 0.52558 0.25542 0.0
C5588 C 0.78475 0.50315 0.25238 0.0
C5589 C 0.77514 0.5335 0.51646 0.0
C5590 C 0.78664 0.55084 0.5094 0.0
C5591 C 0.75298 0.53373 0.51889 0.0
C5592 C 0.74098 0.55132 0.51432 0.0
H5593 H 0.78337 0.51968 0.52052 0.0
H5594 H 0.7452 0.5199 0.52411 0.0
S5595 S 0.76346 0.60149 0.4974 0.0
N5596 N 0.78387 0.58657 0.49956 0.0
N5597 N 0.74326 0.58698 0.50348 0.0
C5598 C 0.75249 0.56877 0.50765 0.0
C5599 C 0.77485 0.56857 0.50545 0.0
C5600 C 0.22796 0.02721 0.27737 0.0
C5601 C 0.22565 0.03678 0.25776 0.0
C5602 C 0.22835 1.00525 0.27978 0.0
C5603 C 0.22621 0.99122 0.26277 0.0
H5604 H 0.22934 0.03683 0.29121 0.0
H5605 H 0.22988 0.99925 0.29529 0.0
S5606 S 0.21892 1.00773 0.20796 0.0
N5607 N 0.22069 0.02977 0.22106 0.0
N5608 N 0.22152 0.98945 0.22526 0.0
C5609 C 0.22391 1.00069 0.24308 0.0
C5610 C 0.22361 0.02299 0.24067 0.0
C5611 C 0.2526 0.96897 0.52983 0.0
C5612 C 0.24202 0.97744 0.51253 0.0
C5613 C 0.27467 0.96903 0.53187 0.0
C5614 C 0.28789 0.97739 0.51666 0.0
H5615 H 0.24372 0.96169 0.54195 0.0
H5616 H 0.28146 0.96168 0.54522 0.0
S5617 S 0.26912 1.00328 0.46911 0.0
N5618 N 0.24747 0.99587 0.48051 0.0
N5619 N 0.28832 0.99552 0.48404 0.0
C5620 C 0.27765 0.98633 0.49952 0.0
C5621 C 0.25511 0.98652 0.49756 0.0
C5622 C 0.72465 0.52754 0.77597 0.0
C5623 C 0.72526 0.53653 0.75594 0.0
C5624 C 0.72544 0.50574 0.77917 0.0
C5625 C 0.7267 0.49125 0.76255 0.0
H5626 H 0.72325 0.53748 0.78953 0.0
H5627 H 0.72441 0.50019 0.79489 0.0
S5628 S 0.72934 0.50602 0.70686 0.0
N5629 N 0.72764 0.52842 0.71923 0.0
N5630 N 0.72929 0.48829 0.72496 0.0
C5631 C 0.72772 0.50008 0.74246 0.0
C5632 C 0.72698 0.52227 0.73925 0.0
C5633 C 0.99726 0.77185 0.97851 0.0
C5634 C 1.01463 0.78494 0.97497 0.0
C5635 C 0.9988 0.74981 0.97945 0.0
C5636 C 0.01786 0.73915 0.9774 0.0
H5637 H 0.9821 0.77864 0.98006 0.0
H5638 H 0.98468 0.74095 0.98169 0.0
S5639 S 0.06823 0.76534 0.96712 0.0
N5640 N 0.05181 0.7846 0.96884 0.0
N5641 N 0.05449 0.74412 0.971 0.0
C5642 C 0.03534 0.75201 0.97403 0.0
C5643 C 0.03378 0.77441 0.97273 0.0
C5644 C 0.02554 0.24529 0.72526 0.0
C5645 C 0.03695 0.26319 0.73182 0.0
C5646 C 1.00339 0.24451 0.72424 0.0
C5647 C 0.991 0.26163 0.72958 0.0
H5648 H 0.03379 0.23162 0.72051 0.0
H5649 H 0.99594 0.23046 0.71854 0.0
S5650 S 1.01215 0.31187 0.74948 0.0
N5651 N 0.03315 0.29821 0.74504 0.0
N5652 N 0.99225 0.29685 0.74284 0.0
C5653 C 1.00209 0.27947 0.73657 0.0
C5654 C 0.02466 0.28022 0.7378 0.0
C5655 C 0.53562 0.2535 0.47468 0.0
C5656 C 0.51884 0.23979 0.47844 0.0
C5657 C 0.53313 0.27545 0.47373 0.0
C5658 C 0.51375 0.28537 0.47674 0.0
H5659 H 0.55077 0.24721 0.47161 0.0
H5660 H 0.54666 0.28474 0.4702 0.0
S5661 S 0.46473 0.25696 0.48774 0.0
N5662 N 0.48195 0.23844 0.48552 0.0
N5663 N 0.47752 0.27881 0.48417 0.0
C5664 C 0.49699 0.27183 0.48097 0.0
C5665 C 0.49946 0.24951 0.48167 0.0
C5666 C 0.50272 0.75002 0.23679 0.0
C5667 C 0.49053 0.76494 0.22673 0.0
C5668 C 0.52489 0.75141 0.23768 0.0
C5669 C 0.53622 0.76807 0.22903 0.0
H5670 H 0.49514 0.73684 0.2437 0.0
H5671 H 0.53326 0.73918 0.24513 0.0
S5672 S 0.51273 0.81052 0.19941 0.0
N5673 N 0.4926 0.79658 0.20679 0.0
N5674 N 0.53329 0.79911 0.20903 0.0
C5675 C 0.52433 0.78303 0.21901 0.0
C5676 C 0.50192 0.7815 0.21774 0.0
C5677 C 0.99864 0.2515 0.53938 0.0
C5678 C 1.01453 0.23941 0.54819 0.0
C5679 C 1.00001 0.2736 0.53833 0.0
C5680 C 0.01759 0.28521 0.54546 0.0
H5681 H 0.98464 0.24389 0.53372 0.0
H5682 H 0.98683 0.28176 0.53225 0.0
S5683 S 0.06301 0.26219 0.57153 0.0
N5684 N 0.04826 0.24202 0.56531 0.0
N5685 N 0.05067 0.28249 0.56289 0.0
C5686 C 0.03353 0.27342 0.55423 0.0
C5687 C 0.03208 0.25103 0.55562 0.0
C5688 C 0.50918 0.26428 0.29808 0.0
C5689 C 0.49793 0.24695 0.3053 0.0
C5690 C 0.53119 0.26457 0.29657 0.0
C5691 C 0.54338 0.2474 0.30174 0.0
H5692 H 0.50096 0.27807 0.2939 0.0
H5693 H 0.53875 0.27855 0.29138 0.0
S5694 S 0.52233 0.19833 0.32249 0.0
N5695 N 0.50146 0.21222 0.31842 0.0
N5696 N 0.54221 0.21268 0.31515 0.0
C5697 C 0.5324 0.2299 0.3088 0.0
C5698 C 0.51 0.22969 0.31067 0.0
C5699 C 0.49575 0.77379 0.05711 0.0
C5700 C 0.51355 0.78463 0.04987 0.0
C5701 C 0.49399 0.75176 0.05679 0.0
C5702 C 0.51004 0.73891 0.04953 0.0
H5703 H 0.48298 0.78241 0.06352 0.0
H5704 H 0.48015 0.74473 0.06312 0.0
S5705 S 0.55964 0.75854 0.02775 0.0
N5706 N 0.54725 0.77985 0.03412 0.0
N5707 N 0.54424 0.73915 0.03416 0.0
C5708 C 0.52777 0.74945 0.04196 0.0
C5709 C 0.52943 0.77191 0.04191 0.0
C5710 C 0.03127 0.7393 0.81928 0.0
C5711 C 0.04163 0.74713 0.80177 0.0
C5712 C 1.00929 0.73931 0.82094 0.0
C5713 C 0.99637 0.74756 0.80538 0.0
H5714 H 0.04028 0.73346 0.8321 0.0
H5715 H 1.00238 0.73334 0.83492 0.0
S5716 S 0.0155 0.76933 0.75595 0.0
N5717 N 0.03695 0.76281 0.76823 0.0
N5718 N 0.99611 0.76321 0.77141 0.0
C5719 C 1.00658 0.75533 0.78773 0.0
C5720 C 0.02896 0.75504 0.78594 0.0
C5721 C 0.95282 1.00526 0.76913 0.0
C5722 C 0.97034 1.00643 0.78241 0.0
C5723 C 0.95406 1.00862 0.74746 0.0
C5724 C 0.97277 0.01418 0.73754 0.0
H5725 H 0.93777 1.00171 0.77561 0.0
H5726 H 0.93997 1.00698 0.73831 0.0
S5727 S 0.02346 0.02001 0.76485 0.0
N5728 N 1.00731 0.01377 0.78362 0.0
N5729 N 1.00952 0.02061 0.74325 0.0
C5730 C 0.99048 0.01569 0.75059 0.0
C5731 C 0.98929 1.01174 0.77278 0.0
C5732 C 0.75837 0.24352 0.52229 0.0
C5733 C 0.77148 0.23069 0.53404 0.0
C5734 C 0.75648 0.24158 0.50016 0.0
C5735 C 0.76744 0.22654 0.48852 0.0
H5736 H 0.74891 0.25473 0.53032 0.0
H5737 H 0.74607 0.25177 0.49217 0.0
S5738 S 0.80236 0.18773 0.51202 0.0
N5739 N 0.79464 0.20172 0.53207 0.0
N5740 N 0.79123 0.19785 0.49151 0.0
C5741 C 0.78045 0.21358 0.5003 0.0
C5742 C 0.78236 0.21564 0.52262 0.0
C5743 C 0.56769 0.02286 0.27269 0.0
C5744 C 0.55093 0.01562 0.28472 0.0
C5745 C 0.56808 0.02073 0.25061 0.0
C5746 C 0.552 1.01071 0.23896 0.0
H5747 H 0.58095 0.02999 0.28047 0.0
H5748 H 0.58151 0.0267 0.24257 0.0
S5749 S 0.50418 0.98914 0.26251 0.0
N5750 N 0.51752 0.99812 0.28278 0.0
N5751 N 0.51838 0.99392 0.24184 0.0
C5752 C 0.53516 1.00332 0.25079 0.0
C5753 C 0.53463 1.00576 0.27334 0.0
C5754 C 0.76306 0.77304 0.02753 0.0
C5755 C 0.7605 0.79211 0.03825 0.0
C5756 C 0.76736 0.77196 1.00572 0.0
C5757 C 0.76922 0.78989 0.99347 0.0
H5758 H 0.76239 0.75886 0.03614 0.0
H5759 H 0.76956 0.75696 0.99851 0.0
S5760 S 0.76235 0.84349 0.01392 0.0
N5761 N 0.75953 0.82909 0.03456 0.0
N5762 N 0.7666 0.82722 0.9945 0.0
C5763 C 0.76593 0.80884 1.00416 0.0
C5764 C 0.76191 0.80991 0.02615 0.0
C5765 C 0.75491 0.97801 0.02992 0.0
C5766 C 0.74233 0.97181 1.01272 0.0
C5767 C 0.77711 0.97856 0.02899 0.0
C5768 C 0.7882 0.97339 1.01068 0.0
H5769 H 0.74759 0.98208 0.04445 0.0
H5770 H 0.78568 0.98306 0.04286 0.0
S5771 S 0.76346 0.9552 0.96136 0.0
N5772 N 0.74366 0.95976 0.97675 0.0
N5773 N 0.78436 0.96119 0.97516 0.0
C5774 C 0.77585 0.96733 0.99343 0.0
C5775 C 0.75339 0.96646 0.9944 0.0
C5776 C 0.25345 0.5435 0.99504 0.0
C5777 C 0.24079 0.54874 1.01219 0.0
C5778 C 0.27561 0.54327 0.99645 0.0
C5779 C 0.28663 0.54778 0.01519 0.0
H5780 H 0.24623 0.54003 0.98017 0.0
H5781 H 0.28425 0.53965 0.98255 0.0
S5782 S 0.26169 0.56357 0.0646 0.0
N5783 N 0.24195 0.5593 0.04863 0.0
N5784 N 0.28269 0.55852 0.05106 0.0
C5785 C 0.27424 0.5529 0.03242 0.0
C5786 C 0.25177 0.55345 0.03097 0.0
C5787 C 0.23341 0.49932 0.7809 0.0
C5788 C 0.23252 0.48825 0.76164 0.0
C5789 C 0.23392 0.52136 0.78231 0.0
C5790 C 0.23317 0.53389 0.76456 0.0
H5791 H 0.2334 0.49083 0.79522 0.0
H5792 H 0.23407 0.52862 0.79757 0.0
S5793 S 0.23081 0.51329 0.71022 0.0
N5794 N 0.23127 0.49228 0.72434 0.0
N5795 N 0.23175 0.53295 0.72684 0.0
C5796 C 0.23251 0.52302 0.74522 0.0
C5797 C 0.23233 0.5006 0.74379 0.0
C5798 C 0.27326 0.48796 0.51255 0.0
C5799 C 0.28408 0.46964 0.50751 0.0
C5800 C 0.25124 0.48809 0.51549 0.0
C5801 C 0.23882 0.46996 0.51327 0.0
H5802 H 0.28191 0.50226 0.51467 0.0
H5803 H 0.24387 0.50258 0.51923 0.0
S5804 S 0.25932 0.41786 0.50088 0.0
N5805 N 0.28021 0.43284 0.50126 0.0
N5806 N 0.23965 0.43317 0.50591 0.0
C5807 C 0.24955 0.4517 0.50817 0.0
C5808 C 0.27181 0.45151 0.5056 0.0
C5809 C 0.79108 0.03516 0.75949 0.0
C5810 C 0.79605 0.04634 0.74161 0.0
C5811 C 0.79093 0.01342 0.75954 0.0
C5812 C 0.7962 1.00143 0.74184 0.0
H5813 H 0.78733 0.04333 0.77375 0.0
H5814 H 0.78703 1.00597 0.77394 0.0
S5815 S 0.81206 0.02305 0.69123 0.0
N5816 N 0.80706 0.04365 0.7057 0.0
N5817 N 0.80749 1.0029 0.70598 0.0
C5818 C 0.80152 0.01241 0.72385 0.0
C5819 C 0.80124 0.03471 0.72368 0.0
C5820 C 0.77783 0.0499 0.49244 0.0
C5821 C 0.78884 0.04647 0.51124 0.0
C5822 C 0.7557 0.05078 0.49135 0.0
C5823 C 0.74304 0.04868 0.50906 0.0
H5824 H 0.78641 0.05228 0.47829 0.0
H5825 H 0.74852 0.05392 0.47652 0.0
S5826 S 0.76325 0.03864 0.56213 0.0
N5827 N 0.78445 0.04015 0.54798 0.0
N5828 N 0.74365 0.04232 0.54606 0.0
C5829 C 0.75379 0.045 0.52788 0.0
C5830 C 0.77627 0.04374 0.52894 0.0
C5831 C 0.30984 0.53215 0.2262 0.0
C5832 C 0.29645 0.54428 0.23851 0.0
C5833 C 0.30859 0.51023 0.22589 0.0
C5834 C 0.29403 0.49944 0.23806 0.0
H5835 H 0.32192 0.53963 0.21736 0.0
H5836 H 0.3198 0.50171 0.21686 0.0
S5837 S 0.25467 0.52405 0.27197 0.0
N5838 N 0.26768 0.54376 0.26237 0.0
N5839 N 0.26521 0.50312 0.26189 0.0
C5840 C 0.28021 0.51155 0.24988 0.0
C5841 C 0.28147 0.53374 0.25012 0.0
C5842 C 0.56418 0.49986 0.74905 0.0
C5843 C 0.55062 0.51334 0.73847 0.0
C5844 C 0.56404 0.49736 0.77105 0.0
C5845 C 0.5501 0.50792 0.7842 0.0
H5846 H 0.57556 0.49137 0.74026 0.0
H5847 H 0.57544 0.48737 0.7779 0.0
S5848 S 0.51034 0.54428 0.76525 0.0
N5849 N 0.52217 0.53692 0.74373 0.0
N5850 N 0.52188 0.53226 0.78447 0.0
C5851 C 0.53627 0.52126 0.77393 0.0
C5852 C 0.53648 0.52391 0.75145 0.0
C5853 C 0.74976 0.31448 1.0033 0.0
C5854 C 0.75826 0.29951 0.98973 0.0
C5855 C 0.75235 0.31386 0.02529 0.0
C5856 C 0.76422 0.29866 0.0354 0.0
H5857 H 0.74118 0.32714 0.99684 0.0
H5858 H 0.74529 0.32589 0.03452 0.0
S5859 S 0.78987 0.25548 1.0074 0.0
N5860 N 0.779 0.26858 0.98851 0.0
N5861 N 0.78426 0.26777 0.0293 0.0
C5862 C 0.77293 0.28359 0.02201 0.0
C5863 C 0.76992 0.28398 0.99951 0.0
C5864 C 0.98641 0.49683 0.25335 0.0
C5865 C 0.97647 0.512 0.24131 0.0
C5866 C 0.98754 0.49805 0.2756 0.0
C5867 C 0.97921 0.51474 0.2873 0.0
H5868 H 0.99323 0.48368 0.24555 0.0
H5869 H 0.99508 0.48572 0.28373 0.0
S5870 S 0.94932 0.55733 0.26428 0.0
N5871 N 0.95649 0.54347 0.24395 0.0
N5872 N 0.95918 0.54587 0.28469 0.0
C5873 C 0.96906 0.52978 0.27553 0.0
C5874 C 0.96757 0.5284 0.25303 0.0
C5875 C 0.75107 0.72105 0.52651 0.0
C5876 C 0.76451 0.73278 0.53968 0.0
C5877 C 0.75324 0.72006 0.50446 0.0
C5878 C 0.76941 0.73028 0.49355 0.0
H5879 H 0.73876 0.71203 0.53341 0.0
H5880 H 0.74217 0.71051 0.49589 0.0
S5881 S 0.80989 0.76266 0.5203 0.0
N5882 N 0.79525 0.75474 0.53964 0.0
N5883 N 0.79953 0.75268 0.49878 0.0
C5884 C 0.78313 0.74211 0.50654 0.0
C5885 C 0.7807 0.74334 0.52919 0.0
C5886 C 0.29938 0.02177 0.78254 0.0
C5887 C 0.29896 0.03516 0.7654 0.0
C5888 C 0.29986 0.99976 0.78012 0.0
C5889 C 0.29945 0.98947 0.7604 0.0
H5890 H 0.30018 0.02834 0.79809 0.0
H5891 H 0.30085 0.99066 0.79402 0.0
S5892 S 0.29782 0.01684 0.7102 0.0
N5893 N 0.29794 0.03576 0.72768 0.0
N5894 N 0.29826 0.99521 0.72336 0.0
C5895 C 0.29845 1.00265 0.74318 0.0
C5896 C 0.29838 0.02505 0.74561 0.0
C5897 C 0.47959 0.49475 0.24855 0.0
C5898 C 0.47632 0.51395 0.23876 0.0
C5899 C 0.47831 0.49228 0.27052 0.0
C5900 C 0.47309 0.50873 0.28412 0.0
H5901 H 0.48281 0.48127 0.23903 0.0
H5902 H 0.48055 0.47706 0.27677 0.0
S5903 S 0.46251 0.56226 0.26682 0.0
N5904 N 0.46769 0.54973 0.24499 0.0
N5905 N 0.4648 0.54528 0.28547 0.0
C5906 C 0.47002 0.52807 0.27448 0.0
C5907 C 0.47174 0.53063 0.2522 0.0
C5908 C 0.25049 0.73712 0.0223 0.0
C5909 C 0.26872 0.73218 0.03346 0.0
C5910 C 0.24928 0.73593 1.00018 0.0
C5911 C 0.26609 0.72924 0.98789 0.0
H5912 H 0.23685 0.74179 0.03077 0.0
H5913 H 0.23481 0.73982 0.99272 0.0
S5914 S 0.31686 0.71252 1.00957 0.0
N5915 N 0.30358 0.71933 0.03031 0.0
N5916 N 0.30151 0.71679 0.98956 0.0
C5917 C 0.28434 0.72409 0.99906 0.0
C5918 C 0.2856 0.7256 0.02148 0.0
C5919 C 0.0504 0.52785 0.7507 0.0
C5920 C 0.0502 0.50859 0.73977 0.0
C5921 C 0.05028 0.52953 0.77289 0.0
C5922 C 0.05044 0.51205 0.78578 0.0
H5923 H 0.05092 0.54197 0.74198 0.0
H5924 H 0.0508 0.54479 0.77999 0.0
S5925 S 0.05043 0.45778 0.76556 0.0
N5926 N 0.05018 0.47159 0.74427 0.0
N5927 N 0.05033 0.47451 0.78516 0.0
C5928 C 0.05013 0.49269 0.77501 0.0
C5929 C 0.0499 0.49102 0.75243 0.0
C5930 C 0.25438 0.2768 0.50546 0.0
C5931 C 0.26933 0.28807 0.49401 0.0
C5932 C 0.25162 0.27969 0.52734 0.0
C5933 C 0.26332 0.29443 0.53908 0.0
H5934 H 0.24435 0.26583 0.49732 0.0
H5935 H 0.23995 0.27049 0.53502 0.0
S5936 S 0.30239 0.3303 0.51604 0.0
N5937 N 0.29465 0.3158 0.49612 0.0
N5938 N 0.28956 0.32169 0.53628 0.0
C5939 C 0.27801 0.30612 0.52755 0.0
C5940 C 0.28095 0.3029 0.50543 0.0
C5941 C 0.72677 0.0224 0.24561 0.0
C5942 C 0.73408 0.03348 0.26352 0.0
C5943 C 0.72705 1.00045 0.24383 0.0
C5944 C 0.73451 0.98795 0.25992 0.0
H5945 H 0.72038 0.03075 0.23273 0.0
H5946 H 0.72063 0.99318 0.22992 0.0
S5947 S 0.75673 1.00833 0.30971 0.0
N5948 N 0.75008 0.02939 0.29735 0.0
N5949 N 0.75026 0.9887 0.29423 0.0
C5950 C 0.74219 0.99871 0.27776 0.0
C5951 C 0.74211 0.02112 0.27949 0.0
C5952 C 0.05854 0.31518 0.15755 0.0
C5953 C 0.07684 0.32457 0.1651 0.0
C5954 C 0.05392 0.31494 0.13644 0.0
C5955 C 0.06709 0.32466 0.12226 0.0
H5956 H 0.04841 0.30669 0.1678 0.0
H5957 H 0.03991 0.30701 0.13121 0.0
S5958 S 0.11612 0.35258 0.13437 0.0
N5959 N 0.10808 0.34407 0.15702 0.0
N5960 N 0.09837 0.34507 0.11714 0.0
C5961 C 0.08486 0.33507 0.12966 0.0
C5962 C 0.09 0.33466 0.15117 0.0
C5963 C 0.94483 0.8356 0.37852 0.0
C5964 C 0.9429 0.81416 0.37655 0.0
C5965 C 0.94865 0.8448 0.39796 0.0
C5966 C 0.95105 0.83271 0.41574 0.0
H5967 H 0.94436 0.84516 0.3649 0.0
H5968 H 0.95188 0.86124 0.39876 0.0
S5969 S 0.94691 0.77583 0.41851 0.0
N5970 N 0.94254 0.78108 0.39392 0.0
N5971 N 0.95033 0.79841 0.43029 0.0
C5972 C 0.94762 0.81138 0.41414 0.0
C5973 C 0.94358 0.80204 0.39446 0.0
C5974 C 0.47048 0.71446 0.62343 0.0
C5975 C 0.4572 0.69938 0.61465 0.0
C5976 C 0.46944 0.71959 0.6444 0.0
C5977 C 0.45458 0.71028 0.6571 0.0
H5978 H 0.48234 0.72177 0.61419 0.0
H5979 H 0.47995 0.73139 0.65054 0.0
S5980 S 0.41499 0.67129 0.64099 0.0
N5981 N 0.42853 0.67549 0.61975 0.0
N5982 N 0.42523 0.68654 0.65926 0.0
C5983 C 0.44054 0.69585 0.64833 0.0
C5984 C 0.44218 0.69003 0.62703 0.0
C5985 C 0.55135 0.20833 0.88661 0.0
C5986 C 0.56575 0.20295 0.90192 0.0
C5987 C 0.55687 0.2088 0.86582 0.0
C5988 C 0.57728 0.20481 0.85983 0.0
H5989 H 0.53583 0.21289 0.89074 0.0
H5990 H 0.54562 0.21435 0.85473 0.0
S5991 S 0.6204 0.18871 0.89391 0.0
N5992 N 0.60056 0.19156 0.90976 0.0
N5993 N 0.61171 0.19425 0.87049 0.0
C5994 C 0.59164 0.19851 0.87487 0.0
C5995 C 0.58571 0.19724 0.89604 0.0
C5996 C 0.06623 0.68941 0.36768 0.0
C5997 C 0.08225 0.70338 0.3632 0.0
C5998 C 0.0619 0.68431 0.38815 0.0
C5999 C 0.07314 0.69348 0.40478 0.0
H6000 H 0.05601 0.68358 0.35547 0.0
H6001 H 0.04842 0.67466 0.39094 0.0
S6002 S 0.11914 0.72769 0.40121 0.0
N6003 N 0.11178 0.72346 0.37692 0.0
N6004 N 0.10268 0.71451 0.41552 0.0
C6005 C 0.09042 0.7058 0.40047 0.0
C6006 C 0.09526 0.71057 0.37958 0.0
C6007 C 0.56315 0.8134 0.65743 0.0
C6008 C 0.57864 0.82643 0.66582 0.0
C6009 C 0.55764 0.81434 0.63662 0.0
C6010 C 0.5673 0.82843 0.62348 0.0
H6011 H 0.55609 0.80151 0.6667 0.0
H6012 H 0.54557 0.80407 0.63077 0.0
S6013 S 0.60641 0.8682 0.63874 0.0
N6014 N 0.60238 0.85507 0.66015 0.0
N6015 N 0.59104 0.85766 0.62076 0.0
C6016 C 0.58174 0.84264 0.63195 0.0
C6017 C 0.58774 0.84136 0.65321 0.0
C6018 C 0.4474 0.33663 0.89885 0.0
C6019 C 0.45849 0.32361 0.91198 0.0
C6020 C 0.44621 0.33247 0.87751 0.0
C6021 C 0.45701 0.31587 0.86878 0.0
H6022 H 0.44002 0.35029 0.90508 0.0
H6023 H 0.43697 0.34231 0.86778 0.0
S6024 S 0.48843 0.27745 0.89654 0.0
N6025 N 0.48007 0.29328 0.91488 0.0
N6026 N 0.47888 0.28622 0.87463 0.0
C6027 C 0.46825 0.30286 0.88173 0.0
C6028 C 0.4687 0.30653 0.90344 0.0
C6029 C 0.94017 0.20778 0.12081 0.0
C6030 C 0.95168 0.18972 0.11851 0.0
C6031 C 0.93449 0.21475 0.14056 0.0
C6032 C 0.94042 0.20393 0.15841 0.0
H6033 H 0.93764 0.21776 0.10774 0.0
H6034 H 0.92742 0.22978 0.14191 0.0
S6035 S 0.96561 0.15318 0.15987 0.0
N6036 N 0.96456 0.15884 0.13499 0.0
N6037 N 0.95473 0.17266 0.1723 0.0
C6038 C 0.9495 0.18465 0.15604 0.0
C6039 C 0.95479 0.17728 0.13594 0.0
C6040 C 0.15859 0.06935 0.33608 0.0
C6041 C 0.16189 0.08629 0.32321 0.0
C6042 C 0.13854 0.06306 0.34111 0.0
C6043 C 0.1212 0.07341 0.33322 0.0
H6044 H 0.17139 0.05981 0.34079 0.0
H6045 H 0.13668 0.04887 0.34958 0.0
S6046 S 0.12148 0.12169 0.30365 0.0
N6047 N 0.14618 0.11601 0.30659 0.0
N6048 N 0.10841 0.10328 0.31541 0.0
C6049 C 0.12426 0.09169 0.32251 0.0
C6050 C 0.1447 0.09846 0.31777 0.0
C6051 C 0.18447 0.8897 0.56218 0.0
C6052 C 0.19151 0.90767 0.57287 0.0
C6053 C 0.19057 0.87016 0.5685 0.0
C6054 C 0.20359 0.86821 0.58578 0.0
H6055 H 0.176 0.89075 0.54767 0.0
H6056 H 0.18694 0.85692 0.55859 0.0
S6057 S 0.22175 0.91 0.62173 0.0
N6058 N 0.20904 0.92201 0.60328 0.0
N6059 N 0.21985 0.88518 0.61579 0.0
C6060 C 0.20827 0.8858 0.59812 0.0
C6061 C 0.20246 0.90564 0.59144 0.0
C6062 C 0.39521 0.94031 0.83385 0.0
C6063 C 0.40081 0.95995 0.82695 0.0
C6064 C 0.37466 0.93334 0.83191 0.0
C6065 C 0.35927 0.94624 0.82389 0.0
H6066 H 0.40684 0.93012 0.83998 0.0
H6067 H 0.37102 0.91742 0.83539 0.0
S6068 S 0.36643 0.99949 0.80504 0.0
N6069 N 0.38976 0.99228 0.8123 0.0
N6070 N 0.35092 0.97981 0.81009 0.0
C6071 C 0.36462 0.96642 0.81841 0.0
C6072 C 0.38554 0.9731 0.81948 0.0
C6073 C 0.33472 0.13015 0.0878 0.0
C6074 C 0.32911 0.12602 0.06709 0.0
C6075 C 0.33385 0.15034 0.09588 0.0
C6076 C 0.3282 0.16685 0.08318 0.0
H6077 H 0.33901 0.11769 0.09789 0.0
H6078 H 0.33657 0.15293 0.11233 0.0
S6079 S 0.3132 0.16366 0.02763 0.0
N6080 N 0.31798 0.13967 0.03408 0.0
N6081 N 0.31776 0.17769 0.04878 0.0
C6082 C 0.32379 0.16288 0.06216 0.0
C6083 C 0.32383 0.14237 0.05424 0.0
C6084 C 0.12684 0.96397 0.21634 0.0
C6085 C 0.11614 0.95467 0.19957 0.0
C6086 C 0.14793 0.9609 0.21913 0.0
C6087 C 0.15885 0.94788 0.20567 0.0
H6088 H 0.11901 0.97426 0.22705 0.0
H6089 H 0.15564 0.96827 0.23232 0.0
S6090 S 0.13797 0.91943 0.1598 0.0
N6091 N 0.11798 0.93233 0.16899 0.0
N6092 N 0.15772 0.92506 0.17545 0.0
C6093 C 0.14842 0.93813 0.18906 0.0
C6094 C 0.12698 0.94191 0.18571 0.0
C6095 C 0.34156 0.88628 0.46515 0.0
C6096 C 0.33673 0.90443 0.45446 0.0
C6097 C 0.33576 0.86694 0.45708 0.0
C6098 C 0.32517 0.86532 0.43808 0.0
H6099 H 0.348 0.88706 0.48071 0.0
H6100 H 0.3375 0.8536 0.46682 0.0
S6101 S 0.31411 0.90773 0.40187 0.0
N6102 N 0.32437 0.91937 0.42256 0.0
N6103 N 0.31414 0.88282 0.40683 0.0
C6104 C 0.323 0.8831 0.42603 0.0
C6105 C 0.32847 0.90279 0.43445 0.0
C6106 C 0.38841 0.09276 0.7125 0.0
C6107 C 0.3696 0.08441 0.70453 0.0
C6108 C 0.40744 0.08685 0.70422 0.0
C6109 C 0.40805 0.07268 0.68764 0.0
H6110 H 0.38867 0.10228 0.72648 0.0
H6111 H 0.42156 0.09157 0.71227 0.0
S6112 S 0.36333 0.05091 0.65784 0.0
N6113 N 0.3528 0.06457 0.67677 0.0
N6114 N 0.38863 0.05385 0.66081 0.0
C6115 C 0.3894 0.06667 0.67773 0.0
C6116 C 0.37008 0.07238 0.68633 0.0
C6117 C 0.1948 0.13252 0.93989 0.0
C6118 C 0.19315 0.13064 0.96141 0.0
C6119 C 0.2002 0.15149 0.93132 0.0
C6120 C 0.20428 0.16885 0.94414 0.0
H6121 H 0.19295 0.11909 0.92978 0.0
H6122 H 0.20328 0.15208 0.91483 0.0
S6123 S 0.20243 0.17164 1.00144 0.0
N6124 N 0.19555 0.14771 0.99532 0.0
N6125 N 0.20609 0.18316 0.9791 0.0
C6126 C 0.20136 0.16745 0.96553 0.0
C6127 C 0.19585 0.14826 0.97425 0.0
C6128 C 0.81837 0.38594 0.925 0.0
C6129 C 0.82211 0.36806 0.93638 0.0
C6130 C 0.82612 0.40506 0.93178 0.0
C6131 C 0.83793 0.40674 0.95004 0.0
H6132 H 0.80761 0.38545 0.91201 0.0
H6133 H 0.8213 0.41878 0.92377 0.0
S6134 S 0.85416 0.36372 0.98374 0.0
N6135 N 0.83985 0.35258 0.96531 0.0
N6136 N 0.85523 0.38842 0.97799 0.0
C6137 C 0.8438 0.38852 0.96019 0.0
C6138 C 0.83565 0.36909 0.95334 0.0
C6139 C 0.89713 0.58756 0.19516 0.0
C6140 C 0.90669 0.57062 0.20436 0.0
C6141 C 0.87781 0.59442 0.20225 0.0
C6142 C 0.86749 0.58401 0.21817 0.0
H6143 H 0.90456 0.59541 0.18244 0.0
H6144 H 0.87089 0.60778 0.19526 0.0
S6145 S 0.88572 0.53815 0.24625 0.0
N6146 N 0.90445 0.54346 0.22977 0.0
N6147 N 0.86781 0.55566 0.24236 0.0
C6148 C 0.87678 0.5668 0.22707 0.0
C6149 C 0.89651 0.56024 0.22031 0.0
C6150 C 0.70961 0.64388 0.43645 0.0
C6151 C 0.70338 0.66285 0.44528 0.0
C6152 C 0.69972 0.62548 0.44167 0.0
C6153 C 0.68291 0.62561 0.45522 0.0
H6154 H 0.72337 0.64289 0.42696 0.0
H6155 H 0.70624 0.611 0.43639 0.0
S6156 S 0.65869 0.67112 0.48 0.0
N6157 N 0.67808 0.68075 0.46648 0.0
N6158 N 0.65898 0.64594 0.47573 0.0
C6159 C 0.6752 0.6445 0.46248 0.0
C6160 C 0.68559 0.66324 0.45762 0.0
C6161 C 0.90111 0.44464 0.33137 0.0
C6162 C 0.9087 0.4623 0.3215 0.0
C6163 C 0.87995 0.43955 0.33058 0.0
C6164 C 0.86576 0.45251 0.32077 0.0
H6165 H 0.91165 0.43449 0.33927 0.0
H6166 H 0.87469 0.42517 0.33721 0.0
S6167 S 0.87782 0.50097 0.29333 0.0
N6168 N 0.90042 0.49298 0.30193 0.0
N6169 N 0.86067 0.48381 0.30124 0.0
C6170 C 0.87311 0.47063 0.31157 0.0
C6171 C 0.89462 0.47542 0.31172 0.0
C6172 C 0.61954 0.58486 0.81431 0.0
C6173 C 0.61849 0.574 0.83291 0.0
C6174 C 0.63868 0.59126 0.80658 0.0
C6175 C 0.65721 0.58681 0.81721 0.0
H6176 H 0.60589 0.58654 0.80464 0.0
H6177 H 0.63904 0.59796 0.79129 0.0
S6178 S 0.6621 0.56456 0.86919 0.0
N6179 N 0.637 0.56344 0.86399 0.0
N6180 N 0.67312 0.57502 0.84882 0.0
C6181 C 0.65613 0.57835 0.83688 0.0
C6182 C 0.63666 0.57215 0.84496 0.0
C6183 C 0.97633 0.68945 0.88661 0.0
C6184 C 0.9628 0.68732 0.90342 0.0
C6185 C 0.96915 0.68694 0.86632 0.0
C6186 C 0.94799 0.6835 0.8624 0.0
H6187 H 0.9923 0.69417 0.88904 0.0
H6188 H 0.97952 0.69105 0.85382 0.0
S6189 S 0.90753 0.67217 0.90113 0.0
N6190 N 0.92858 0.67723 0.91513 0.0
N6191 N 0.9145 0.67416 0.8766 0.0
C6192 C 0.93497 0.67869 0.87904 0.0
C6193 C 0.94245 0.68062 0.89977 0.0
C6194 C 0.06604 0.21744 0.62456 0.0
C6195 C 0.07364 0.19864 0.6169 0.0
C6196 C 0.06636 0.22197 0.64574 0.0
C6197 C 0.07489 0.20818 0.65993 0.0
H6198 H 0.05847 0.22813 0.6143 0.0
H6199 H 0.05971 0.23638 0.65103 0.0
S6200 S 0.09813 0.15764 0.64758 0.0
N6201 N 0.09028 0.1663 0.6249 0.0
N6202 N 0.09235 0.17569 0.66494 0.0
C6203 C 0.08359 0.18985 0.65245 0.0
C6204 C 0.08259 0.18486 0.63084 0.0
C6205 C 0.58798 0.31351 0.40479 0.0
C6206 C 0.57613 0.33139 0.40713 0.0
C6207 C 0.59435 0.30687 0.38516 0.0
C6208 C 0.5888 0.31774 0.36728 0.0
H6209 H 0.59089 0.30364 0.41786 0.0
H6210 H 0.60209 0.29218 0.3839 0.0
S6211 S 0.56289 0.36813 0.3655 0.0
N6212 N 0.56321 0.36225 0.39034 0.0
N6213 N 0.57427 0.34882 0.35327 0.0
C6214 C 0.57904 0.3367 0.36957 0.0
C6215 C 0.57303 0.34383 0.38961 0.0
C6216 C 0.45671 0.83831 0.16059 0.0
C6217 C 0.43805 0.82714 0.16079 0.0
C6218 C 0.46518 0.84442 0.14178 0.0
C6219 C 0.45525 0.83932 0.12273 0.0
H6220 H 0.46597 0.84014 0.17461 0.0
H6221 H 0.48056 0.85132 0.14218 0.0
S6222 S 0.40313 0.8158 0.11612 0.0
N6223 N 0.40766 0.81532 0.14137 0.0
N6224 N 0.42378 0.8267 0.10577 0.0
C6225 C 0.43529 0.83073 0.12312 0.0
C6226 C 0.42659 0.82471 0.1423 0.0
C6227 C 0.96151 0.33997 0.65256 0.0
C6228 C 0.94985 0.32167 0.65333 0.0
C6229 C 0.96619 0.34887 0.63353 0.0
C6230 C 0.95998 0.33931 0.61462 0.0
H6231 H 0.96787 0.34691 0.66666 0.0
H6232 H 0.97625 0.36237 0.63364 0.0
S6233 S 0.92712 0.29213 0.60865 0.0
N6234 N 0.9303 0.29529 0.63393 0.0
N6235 N 0.93949 0.31171 0.59812 0.0
C6236 C 0.94675 0.32193 0.61534 0.0
C6237 C 0.94172 0.31307 0.63474 0.0
C6238 C 0.434 0.18993 0.38725 0.0
C6239 C 0.4437 0.18227 0.36917 0.0
C6240 C 0.44049 0.18386 0.40687 0.0
C6241 C 0.45618 0.16939 0.40889 0.0
H6242 H 0.42302 0.2024 0.38653 0.0
H6243 H 0.4347 0.192 0.42042 0.0
S6244 S 0.48264 0.14093 0.36669 0.0
N6245 N 0.46704 0.15683 0.35459 0.0
N6246 N 0.47879 0.14492 0.39174 0.0
C6247 C 0.46387 0.15949 0.39108 0.0
C6248 C 0.45765 0.16601 0.37106 0.0
C6249 C 0.58666 0.71047 0.11995 0.0
C6250 C 0.57665 0.69138 0.11649 0.0
C6251 C 0.59102 0.71739 0.14014 0.0
C6252 C 0.58529 0.7055 0.15731 0.0
H6253 H 0.58911 0.72104 0.10733 0.0
H6254 H 0.59711 0.73293 0.14231 0.0
S6255 S 0.56448 0.65222 0.1562 0.0
N6256 N 0.56599 0.65865 0.13156 0.0
N6257 N 0.57305 0.67251 0.16967 0.0
C6258 C 0.57778 0.68548 0.154 0.0
C6259 C 0.57395 0.67811 0.13345 0.0
C6260 C 0.07164 0.83391 0.86729 0.0
C6261 C 0.08886 0.82113 0.86496 0.0
C6262 C 0.0655 0.84064 0.88695 0.0
C6263 C 0.07628 0.83455 0.90487 0.0
H6264 H 0.06172 0.83718 0.85415 0.0
H6265 H 0.05105 0.84889 0.88814 0.0
S6266 S 0.1256 0.80638 0.90677 0.0
N6267 N 0.11944 0.80689 0.88188 0.0
N6268 N 0.10699 0.81879 0.91896 0.0
C6269 C 0.09491 0.82411 0.9026 0.0
C6270 C 0.10152 0.81767 0.88254 0.0
C6271 C 0.89734 0.94182 0.68434 0.0
C6272 C 0.91305 0.94755 0.69856 0.0
C6273 C 0.87811 0.93464 0.69121 0.0
C6274 C 0.87415 0.93283 0.71247 0.0
H6275 H 0.89936 0.94446 0.66791 0.0
H6276 H 0.86588 0.93172 0.67991 0.0
S6277 S 0.91043 0.9451 0.75586 0.0
N6278 N 0.92376 0.95016 0.73473 0.0
N6279 N 0.88765 0.93629 0.74767 0.0
C6280 C 0.89023 0.93697 0.72678 0.0
C6281 C 0.90978 0.94441 0.71979 0.0
C6282 C 0.83771 0.15413 0.45906 0.0
C6283 C 0.82738 0.15678 0.4401 0.0
C6284 C 0.84288 0.13437 0.4655 0.0
C6285 C 0.83764 0.11686 0.45323 0.0
H6286 H 0.83995 0.16698 0.46984 0.0
H6287 H 0.84935 0.13271 0.48094 0.0
S6288 S 0.815 0.11617 0.40049 0.0
N6289 N 0.8159 0.14079 0.40743 0.0
N6290 N 0.82474 0.10353 0.42025 0.0
C6291 C 0.82935 0.1195 0.43346 0.0
C6292 C 0.82458 0.13959 0.42664 0.0
C6293 C 0.62776 0.05972 0.21881 0.0
C6294 C 0.61842 0.07022 0.20244 0.0
C6295 C 0.64912 0.06036 0.22158 0.0
C6296 C 0.66172 0.07217 0.20857 0.0
H6297 H 0.61863 0.05003 0.22888 0.0
H6298 H 0.65579 0.05191 0.23431 0.0
S6299 S 0.64458 0.10398 0.16471 0.0
N6300 N 0.62307 0.09305 0.17329 0.0
N6301 N 0.66349 0.0959 0.17985 0.0
C6302 C 0.65257 0.0836 0.1928 0.0
C6303 C 0.63079 0.08223 0.1894 0.0
C6304 C 0.68719 0.87837 0.96937 0.0
C6305 C 0.70051 0.89206 0.9591 0.0
C6306 C 0.6892 0.85709 0.96695 0.0
C6307 C 0.7044 0.84856 0.95396 0.0
H6308 H 0.67582 0.88402 0.9803 0.0
H6309 H 0.67913 0.84724 0.97595 0.0
S6310 S 0.7385 0.87812 0.91874 0.0
N6311 N 0.72686 0.896 0.93283 0.0
N6312 N 0.72959 0.85572 0.92704 0.0
C6313 C 0.7164 0.86211 0.942 0.0
C6314 C 0.71472 0.88395 0.94491 0.0
C6315 C 0.88868 0.07677 0.83178 0.0
C6316 C 0.9025 0.06632 0.81867 0.0
C6317 C 0.86854 0.08107 0.82505 0.0
C6318 C 0.8616 0.07404 0.80551 0.0
H6319 H 0.89328 0.08104 0.84749 0.0
H6320 H 0.85825 0.08943 0.83529 0.0
S6321 S 0.89172 0.04592 0.76555 0.0
N6322 N 0.90803 0.04952 0.78516 0.0
N6323 N 0.86986 0.05659 0.77298 0.0
C6324 C 0.87529 0.06371 0.79226 0.0
C6325 C 0.89589 0.06009 0.79874 0.0
C6326 C 0.71479 0.14657 0.59911 0.0
C6327 C 0.71798 0.16423 0.58706 0.0
C6328 C 0.71025 0.12732 0.58971 0.0
C6329 C 0.70902 0.12529 0.56804 0.0
H6330 H 0.71615 0.14762 0.61586 0.0
H6331 H 0.70772 0.11403 0.59938 0.0
S6332 S 0.71897 0.16605 0.52955 0.0
N6333 N 0.7213 0.17795 0.5523 0.0
N6334 N 0.71299 0.14189 0.53479 0.0
C6335 C 0.7126 0.1427 0.55587 0.0
C6336 C 0.71703 0.16219 0.56534 0.0
C6337 C 0.63619 0.97158 0.30986 0.0
C6338 C 0.62382 0.95921 0.32257 0.0
C6339 C 0.65758 0.96943 0.30957 0.0
C6340 C 0.66725 0.95406 0.32105 0.0
H6341 H 0.62934 0.98343 0.30045 0.0
H6342 H 0.66653 0.97918 0.29942 0.0
S6343 S 0.64202 0.91894 0.35815 0.0
N6344 N 0.62282 0.93273 0.34879 0.0
N6345 N 0.66323 0.92699 0.34635 0.0
C6346 C 0.65518 0.94179 0.33413 0.0
C6347 C 0.63337 0.94475 0.3353 0.0
C6348 C 0.81778 0.90498 0.08795 0.0
C6349 C 0.83344 0.90785 0.07331 0.0
C6350 C 0.81091 0.88519 0.09286 0.0
C6351 C 0.81921 0.86765 0.08291 0.0
H6352 H 0.80974 0.9181 0.09452 0.0
H6353 H 0.79777 0.88384 0.10314 0.0
S6354 S 0.86335 0.86661 0.04665 0.0
N6355 N 0.85956 0.89134 0.05156 0.0
N6356 N 0.8459 0.85411 0.06039 0.0
C6357 C 0.83624 0.87017 0.06987 0.0
C6358 C 0.8436 0.89033 0.06519 0.0
C6359 C 0.19005 0.63177 0.07971 0.0
C6360 C 0.20278 0.61736 0.06967 0.0
C6361 C 0.19518 0.65282 0.07977 0.0
C6362 C 0.21244 0.65993 0.06872 0.0
H6363 H 0.17574 0.62679 0.08689 0.0
H6364 H 0.18539 0.6636 0.08802 0.0
S6365 S 0.25128 0.62821 0.04116 0.0
N6366 N 0.23418 0.61142 0.04993 0.0
N6367 N 0.24288 0.65107 0.04859 0.0
C6368 C 0.22542 0.64562 0.05897 0.0
C6369 C 0.22083 0.62425 0.05984 0.0
C6370 C 0.15762 0.46972 0.81432 0.0
C6371 C 0.1656 0.45116 0.82168 0.0
C6372 C 0.13642 0.47326 0.81446 0.0
C6373 C 0.12254 0.45871 0.82257 0.0
H6374 H 0.16763 0.48116 0.80732 0.0
H6375 H 0.13089 0.48758 0.80818 0.0
S6376 S 0.13542 0.4078 0.84371 0.0
N6377 N 0.15798 0.41779 0.83676 0.0
N6378 N 0.11788 0.42531 0.83836 0.0
C6379 C 0.1302 0.44033 0.83043 0.0
C6380 C 0.15182 0.43637 0.82968 0.0
C6381 C 0.33435 0.39935 0.58666 0.0
C6382 C 0.34642 0.39762 0.56879 0.0
C6383 C 0.32437 0.38199 0.5946 0.0
C6384 C 0.32598 0.36258 0.58465 0.0
H6385 H 0.3313 0.41437 0.59352 0.0
H6386 H 0.31401 0.38407 0.60761 0.0
S6387 S 0.35632 0.3504 0.53758 0.0
N6388 N 0.36034 0.37532 0.54184 0.0
N6389 N 0.34132 0.34255 0.55664 0.0
C6390 C 0.33921 0.36047 0.56762 0.0
C6391 C 0.34946 0.37814 0.55963 0.0
C6392 C 0.1515 0.57861 0.68816 0.0
C6393 C 0.15348 0.58068 0.70971 0.0
C6394 C 0.13195 0.57564 0.67905 0.0
C6395 C 0.11405 0.57429 0.69137 0.0
H6396 H 0.16515 0.57822 0.67846 0.0
H6397 H 0.13105 0.57204 0.66259 0.0
S6398 S 0.11131 0.5789 0.74854 0.0
N6399 N 0.13609 0.58199 0.74308 0.0
N6400 N 0.09944 0.57621 0.7259 0.0
C6401 C 0.11574 0.57805 0.71275 0.0
C6402 C 0.13555 0.58105 0.722 0.0
C6403 C 0.37519 0.45769 0.21526 0.0
C6404 C 0.37113 0.43656 0.2125 0.0
C6405 C 0.39473 0.46583 0.2115 0.0
C6406 C 0.41083 0.45313 0.20466 0.0
H6407 H 0.36301 0.46814 0.21992 0.0
H6408 H 0.39701 0.48239 0.21301 0.0
S6409 S 0.40878 0.39639 0.19789 0.0
N6410 N 0.38506 0.40261 0.20506 0.0
N6411 N 0.42225 0.41824 0.19725 0.0
C6412 C 0.40749 0.43175 0.20327 0.0
C6413 C 0.38742 0.42335 0.20738 0.0
C6414 C 0.6951 0.39954 0.08462 0.0
C6415 C 0.70561 0.40802 0.06771 0.0
C6416 C 0.69654 0.37844 0.08872 0.0
C6417 C 0.70743 0.36526 0.07525 0.0
H6418 H 0.68609 0.4093 0.09484 0.0
H6419 H 0.68953 0.37246 0.10265 0.0
S6420 S 0.73628 0.38001 0.02815 0.0
N6421 N 0.72695 0.40184 0.03737 0.0
N6422 N 0.7282 0.36203 0.0441 0.0
C6423 C 0.71713 0.37352 0.05781 0.0
C6424 C 0.71659 0.39499 0.05428 0.0
C6425 C 0.81381 0.64081 0.55965 0.0
C6426 C 0.82818 0.6282 0.56981 0.0
C6427 C 0.8084 0.65995 0.56785 0.0
C6428 C 0.81681 0.66717 0.58673 0.0
H6429 H 0.80694 0.63619 0.54488 0.0
H6430 H 0.79736 0.66912 0.5594 0.0
S6431 S 0.85239 0.63919 0.62126 0.0
N6432 N 0.84919 0.62362 0.60089 0.0
N6433 N 0.83816 0.65967 0.61672 0.0
C6434 C 0.83003 0.65435 0.59787 0.0
C6435 C 0.83592 0.63482 0.58931 0.0
C6436 C 0.62886 0.44482 0.68632 0.0
C6437 C 0.61706 0.45746 0.69949 0.0
C6438 C 0.64982 0.44135 0.69067 0.0
C6439 C 0.65953 0.45134 0.70764 0.0
H6440 H 0.62193 0.4379 0.67248 0.0
H6441 H 0.65851 0.43113 0.68062 0.0
S6442 S 0.63545 0.48637 0.74632 0.0
N6443 N 0.61647 0.47984 0.73013 0.0
N6444 N 0.65606 0.47421 0.73766 0.0
C6445 C 0.64791 0.4641 0.72078 0.0
C6446 C 0.62655 0.46697 0.71684 0.0
C6447 C 0.30942 0.65141 0.96257 0.0
C6448 C 0.32334 0.66084 0.94895 0.0
C6449 C 0.31038 0.6304 0.96632 0.0
C6450 C 0.32603 0.61836 0.95747 0.0
H6451 H 0.29733 0.66024 0.96996 0.0
H6452 H 0.29924 0.62374 0.97688 0.0
S6453 S 0.36848 0.63677 0.92378 0.0
N6454 N 0.35404 0.65732 0.92778 0.0
N6455 N 0.35736 0.61784 0.93669 0.0
C6456 C 0.34098 0.62792 0.94498 0.0
C6457 C 0.33931 0.64922 0.9403 0.0
C6458 C 0.22605 0.37781 0.45857 0.0
C6459 C 0.21195 0.36127 0.45642 0.0
C6460 C 0.21947 0.39813 0.45784 0.0
C6461 C 0.19836 0.40265 0.45581 0.0
H6462 H 0.2423 0.37512 0.46138 0.0
H6463 H 0.23092 0.41028 0.46043 0.0
S6464 S 0.15533 0.36465 0.44853 0.0
N6465 N 0.17627 0.35039 0.45055 0.0
N6466 N 0.16338 0.3889 0.45057 0.0
C6467 C 0.1841 0.38619 0.45293 0.0
C6468 C 0.191 0.36539 0.453 0.0
C6469 C 0.3588 0.56828 0.32842 0.0
C6470 C 0.36094 0.58556 0.31584 0.0
C6471 C 0.3763 0.55886 0.3366 0.0
C6472 C 0.39644 0.56628 0.33215 0.0
H6473 H 0.34385 0.56076 0.33023 0.0
H6474 H 0.374 0.54454 0.34475 0.0
S6475 S 0.40958 0.61457 0.30506 0.0
N6476 N 0.3841 0.61264 0.30351 0.0
N6477 N 0.41709 0.59435 0.31824 0.0
C6478 C 0.3985 0.58516 0.3221 0.0
C6479 C 0.38066 0.59498 0.31412 0.0
loop_
_geom_bond_atom_site_label_1
_geom_bond_atom_site_label_2
_geom_bond_distance
_geom_bond_site_symmetry_2
_ccdc_geom_bond_type
O0 Tb1 2.292 . S
O0 C3 1.255 . S
Tb1 O0 2.292 . S
Tb1 O17 2.326 1_455 S
Tb1 O19 2.500 1_455 S
Tb1 O20 2.473 1_455 S
Tb1 O23 2.324 1_455 S
Eu2 O6 2.292 . S
Eu2 C7 2.852 1_655 S
Eu2 O18 2.324 . S
Eu2 O22 2.326 . S
Eu2 O24 2.500 . S
Eu2 O25 2.473 1_655 S
C3 O0 1.255 . S
C3 O4 1.247 . S
O4 C3 1.247 . S
C5 O17 1.242 . S
C5 O18 1.258 . S
O6 Eu2 2.292 . S
O6 C8 1.255 . S
C7 Eu2 2.852 1_455 S
C7 C11 1.503 . S
C7 O24 1.273 1_455 S
C7 O25 1.257 . S
C8 O6 1.255 . S
C8 O9 1.247 . S
O9 C8 1.247 . S
C10 O22 1.242 . S
C10 O23 1.258 . S
C11 C7 1.503 . S
C11 C12 1.379 . S
C11 C16 1.392 1_554 S
C12 C11 1.379 . S
C12 C13 1.404 . S
C12 H26 0.929 . S
C13 C12 1.404 . S
C13 C14 1.371 1_554 S
C14 C13 1.371 1_556 S
C14 C15 1.410 . S
C14 H27 0.939 . S
C15 C14 1.410 . S
C15 C16 1.390 . S
C16 C11 1.392 1_556 S
C16 C15 1.390 . S
C16 H28 0.929 . S
O17 Tb1 2.326 1_655 S
O17 C5 1.242 . S
O18 Eu2 2.324 . S
O18 C5 1.258 . S
O19 Tb1 2.500 1_655 S
O19 C21 1.273 . S
O20 Tb1 2.473 1_655 S
O20 C21 1.257 . S
C21 O19 1.273 . S
C21 O20 1.257 . S
O22 Eu2 2.326 . S
O22 C10 1.242 . S
O23 Tb1 2.324 1_655 S
O23 C10 1.258 . S
O24 Eu2 2.500 . S
O24 C7 1.273 1_655 S
O25 Eu2 2.473 1_455 S
O25 C7 1.257 . S
H26 C12 0.929 . S
H27 C14 0.939 . S
H28 C16 0.929 . S
O29 Tb30 2.292 . S
O29 C32 1.255 . S
Tb30 O29 2.292 . S
Tb30 O46 2.326 . S
Tb30 O48 2.500 . S
Tb30 O49 2.473 . S
Tb30 O52 2.324 . S
Eu31 O35 2.292 . S
Eu31 C36 2.852 . S
Eu31 O47 2.324 . S
Eu31 O51 2.326 . S
Eu31 O53 2.500 . S
Eu31 O54 2.473 . S
C32 O29 1.255 . S
C32 O33 1.247 . S
O33 C32 1.247 . S
C34 O46 1.242 . S
C34 O47 1.258 . S
O35 Eu31 2.292 . S
O35 C37 1.255 . S
C36 Eu31 2.852 . S
C36 C40 1.503 . S
C36 O53 1.273 . S
C36 O54 1.257 . S
C37 O35 1.255 . S
C37 O38 1.247 . S
O38 C37 1.247 . S
C39 O51 1.242 . S
C39 O52 1.258 . S
C40 C36 1.503 . S
C40 C41 1.379 . S
C40 C45 1.392 . S
C41 C40 1.379 . S
C41 C42 1.404 . S
C41 H55 0.929 . S
C42 C41 1.404 . S
C42 C43 1.389 . S
C43 C42 1.389 . S
C43 C44 1.399 . S
C43 H56 0.931 . S
C44 C43 1.399 . S
C44 C45 1.390 . S
C45 C40 1.392 . S
C45 C44 1.390 . S
C45 H57 0.929 . S
O46 Tb30 2.326 . S
O46 C34 1.242 . S
O47 Eu31 2.324 . S
O47 C34 1.258 . S
O48 Tb30 2.500 . S
O48 C50 1.273 . S
O49 Tb30 2.473 . S
O49 C50 1.257 . S
C50 O48 1.273 . S
C50 O49 1.257 . S
O51 Eu31 2.326 . S
O51 C39 1.242 . S
O52 Tb30 2.324 . S
O52 C39 1.258 . S
O53 Eu31 2.500 . S
O53 C36 1.273 . S
O54 Eu31 2.473 . S
O54 C36 1.257 . S
H55 C41 0.929 . S
H56 C43 0.931 . S
H57 C45 0.929 . S
O58 Tb59 2.292 . S
O58 C61 1.255 . S
Tb59 O58 2.292 . S
Tb59 O75 2.326 . S
Tb59 O77 2.500 . S
Tb59 O78 2.473 . S
Tb59 O81 2.324 . S
Eu60 O64 2.292 . S
Eu60 C65 2.852 . S
Eu60 O76 2.324 . S
Eu60 O80 2.326 . S
Eu60 O82 2.500 . S
Eu60 O83 2.473 . S
C61 O58 1.255 . S
C61 O62 1.247 . S
O62 C61 1.247 . S
C63 O75 1.242 . S
C63 O76 1.258 . S
O64 Eu60 2.292 . S
O64 C66 1.255 . S
C65 Eu60 2.852 . S
C65 C69 1.503 . S
C65 O82 1.273 . S
C65 O83 1.257 . S
C66 O64 1.255 . S
C66 O67 1.247 . S
O67 C66 1.247 . S
C68 O80 1.242 . S
C68 O81 1.258 . S
C69 C65 1.503 . S
C69 C70 1.379 . S
C69 C74 1.392 . S
C70 C69 1.379 . S
C70 C71 1.404 . S
C70 H84 0.929 . S
C71 C70 1.404 . S
C71 C72 1.389 . S
C72 C71 1.389 . S
C72 C73 1.399 . S
C72 H85 0.931 . S
C73 C72 1.399 . S
C73 C74 1.390 . S
C74 C69 1.392 . S
C74 C73 1.390 . S
C74 H86 0.929 . S
O75 Tb59 2.326 . S
O75 C63 1.242 . S
O76 Eu60 2.324 . S
O76 C63 1.258 . S
O77 Tb59 2.500 . S
O77 C79 1.273 . S
O78 Tb59 2.473 . S
O78 C79 1.257 . S
C79 O77 1.273 . S
C79 O78 1.257 . S
O80 Eu60 2.326 . S
O80 C68 1.242 . S
O81 Tb59 2.324 . S
O81 C68 1.258 . S
O82 Eu60 2.500 . S
O82 C65 1.273 . S
O83 Eu60 2.473 . S
O83 C65 1.257 . S
H84 C70 0.929 . S
H85 C72 0.931 . S
H86 C74 0.929 . S
O87 Tb88 2.292 . S
O87 C90 1.255 . S
Tb88 O87 2.292 . S
Tb88 O104 2.326 . S
Tb88 O106 2.500 . S
Tb88 O107 2.473 . S
Tb88 O110 2.324 . S
Eu89 O93 2.292 . S
Eu89 C94 2.852 . S
Eu89 O105 2.324 . S
Eu89 O109 2.326 . S
Eu89 O111 2.500 . S
Eu89 O112 2.473 . S
C90 O87 1.255 . S
C90 O91 1.247 . S
O91 C90 1.247 . S
C92 O104 1.242 . S
C92 O105 1.258 . S
O93 Eu89 2.292 . S
O93 C95 1.255 . S
C94 Eu89 2.852 . S
C94 C98 1.503 . S
C94 O111 1.273 . S
C94 O112 1.257 . S
C95 O93 1.255 . S
C95 O96 1.247 . S
O96 C95 1.247 . S
C97 O109 1.242 . S
C97 O110 1.258 . S
C98 C94 1.503 . S
C98 C99 1.379 . S
C98 C103 1.392 . S
C99 C98 1.379 . S
C99 C100 1.404 . S
C99 H113 0.929 . S
C100 C99 1.404 . S
C100 C101 1.389 . S
C101 C100 1.389 . S
C101 C102 1.399 . S
C101 H114 0.931 . S
C102 C101 1.399 . S
C102 C103 1.390 . S
C103 C98 1.392 . S
C103 C102 1.390 . S
C103 H115 0.929 . S
O104 Tb88 2.326 . S
O104 C92 1.242 . S
O105 Eu89 2.324 . S
O105 C92 1.258 . S
O106 Tb88 2.500 . S
O106 C108 1.273 . S
O107 Tb88 2.473 . S
O107 C108 1.257 . S
C108 O106 1.273 . S
C108 O107 1.257 . S
O109 Eu89 2.326 . S
O109 C97 1.242 . S
O110 Tb88 2.324 . S
O110 C97 1.258 . S
O111 Eu89 2.500 . S
O111 C94 1.273 . S
O112 Eu89 2.473 . S
O112 C94 1.257 . S
H113 C99 0.929 . S
H114 C101 0.931 . S
H115 C103 0.929 . S
O116 Tb117 2.338 . S
O116 C119 1.255 . S
Tb117 O116 2.338 . S
Tb117 O133 2.309 1_455 S
Tb117 O135 2.477 1_455 S
Tb117 O136 2.417 1_455 S
Tb117 O139 2.299 1_455 S
Eu118 O122 2.292 . S
Eu118 C123 2.852 1_655 S
Eu118 O134 2.324 . S
Eu118 O138 2.326 . S
Eu118 O140 2.500 . S
Eu118 O141 2.473 1_655 S
C119 O116 1.255 . S
C119 O120 1.247 . S
O120 C119 1.247 . S
C121 O133 1.242 . S
C121 O134 1.258 . S
O122 Eu118 2.292 . S
O122 C124 1.255 . S
C123 Eu118 2.852 1_455 S
C123 C127 1.503 . S
C123 O140 1.273 1_455 S
C123 O141 1.257 . S
C124 O122 1.255 . S
C124 O125 1.247 . S
O125 C124 1.247 . S
C126 O138 1.242 . S
C126 O139 1.258 . S
C127 C123 1.503 . S
C127 C128 1.379 . S
C127 C132 1.392 . S
C128 C127 1.379 . S
C128 C129 1.404 . S
C128 H142 0.929 . S
C129 C128 1.404 . S
C129 C130 1.389 . S
C130 C129 1.389 . S
C130 C131 1.399 . S
C130 H143 0.931 . S
C131 C130 1.399 . S
C131 C132 1.390 . S
C132 C127 1.392 . S
C132 C131 1.390 . S
C132 H144 0.929 . S
O133 Tb117 2.309 1_655 S
O133 C121 1.242 . S
O134 Eu118 2.324 . S
O134 C121 1.258 . S
O135 Tb117 2.477 1_655 S
O135 C137 1.273 . S
O136 Tb117 2.417 1_655 S
O136 C137 1.257 . S
C137 O135 1.273 . S
C137 O136 1.257 . S
O138 Eu118 2.326 . S
O138 C126 1.242 . S
O139 Tb117 2.299 1_655 S
O139 C126 1.258 . S
O140 Eu118 2.500 . S
O140 C123 1.273 1_655 S
O141 Eu118 2.473 1_455 S
O141 C123 1.257 . S
H142 C128 0.929 . S
H143 C130 0.931 . S
H144 C132 0.929 . S
O145 Tb146 2.292 . S
O145 C148 1.255 . S
Tb146 O145 2.292 . S
Tb146 O162 2.326 . S
Tb146 O164 2.500 . S
Tb146 O165 2.473 . S
Tb146 O168 2.324 . S
Eu147 O151 2.292 . S
Eu147 C152 2.852 . S
Eu147 O163 2.324 . S
Eu147 O167 2.326 . S
Eu147 O169 2.500 . S
Eu147 O170 2.473 . S
C148 O145 1.255 . S
C148 O149 1.247 . S
O149 C148 1.247 . S
C150 O162 1.242 . S
C150 O163 1.258 . S
O151 Eu147 2.292 . S
O151 C153 1.255 . S
C152 Eu147 2.852 . S
C152 C156 1.503 . S
C152 O169 1.273 . S
C152 O170 1.257 . S
C153 O151 1.255 . S
C153 O154 1.247 . S
O154 C153 1.247 . S
C155 O167 1.242 . S
C155 O168 1.258 . S
C156 C152 1.503 . S
C156 C157 1.379 . S
C156 C161 1.392 . S
C157 C156 1.379 . S
C157 C158 1.404 . S
C157 H171 0.929 . S
C158 C157 1.404 . S
C158 C159 1.389 . S
C159 C158 1.389 . S
C159 C160 1.399 . S
C159 H172 0.931 . S
C160 C159 1.399 . S
C160 C161 1.390 . S
C161 C156 1.392 . S
C161 C160 1.390 . S
C161 H173 0.929 . S
O162 Tb146 2.326 . S
O162 C150 1.242 . S
O163 Eu147 2.324 . S
O163 C150 1.258 . S
O164 Tb146 2.500 . S
O164 C166 1.273 . S
O165 Tb146 2.473 . S
O165 C166 1.257 . S
C166 O164 1.273 . S
C166 O165 1.257 . S
O167 Eu147 2.326 . S
O167 C155 1.242 . S
O168 Tb146 2.324 . S
O168 C155 1.258 . S
O169 Eu147 2.500 . S
O169 C152 1.273 . S
O170 Eu147 2.473 . S
O170 C152 1.257 . S
H171 C157 0.929 . S
H172 C159 0.931 . S
H173 C161 0.929 . S
O174 Tb175 2.292 . S
O174 C177 1.255 . S
Tb175 O174 2.292 . S
Tb175 O191 2.326 . S
Tb175 O193 2.500 . S
Tb175 O194 2.473 . S
Tb175 O197 2.324 . S
Eu176 O180 2.292 . S
Eu176 C181 2.852 . S
Eu176 O192 2.324 . S
Eu176 O196 2.326 . S
Eu176 O198 2.500 . S
Eu176 O199 2.473 . S
C177 O174 1.255 . S
C177 O178 1.247 . S
O178 C177 1.247 . S
C179 O191 1.242 . S
C179 O192 1.258 . S
O180 Eu176 2.292 . S
O180 C182 1.255 . S
C181 Eu176 2.852 . S
C181 C185 1.503 . S
C181 O198 1.273 . S
C181 O199 1.257 . S
C182 O180 1.255 . S
C182 O183 1.247 . S
O183 C182 1.247 . S
C184 O196 1.242 . S
C184 O197 1.258 . S
C185 C181 1.503 . S
C185 C186 1.379 . S
C185 C190 1.392 1_556 S
C186 C185 1.379 . S
C186 C187 1.404 . S
C186 H200 0.929 . S
C187 C186 1.404 . S
C187 C188 1.389 1_556 S
C188 C187 1.389 1_554 S
C188 C189 1.399 . S
C188 H201 0.931 . S
C189 C188 1.399 . S
C189 C190 1.390 . S
C190 C185 1.392 1_554 S
C190 C189 1.390 . S
C190 H202 0.929 . S
O191 Tb175 2.326 . S
O191 C179 1.242 . S
O192 Eu176 2.324 . S
O192 C179 1.258 . S
O193 Tb175 2.500 . S
O193 C195 1.273 . S
O194 Tb175 2.473 . S
O194 C195 1.257 . S
C195 O193 1.273 . S
C195 O194 1.257 . S
O196 Eu176 2.326 . S
O196 C184 1.242 . S
O197 Tb175 2.324 . S
O197 C184 1.258 . S
O198 Eu176 2.500 . S
O198 C181 1.273 . S
O199 Eu176 2.473 . S
O199 C181 1.257 . S
H200 C186 0.929 . S
H201 C188 0.931 . S
H202 C190 0.929 . S
O203 Tb204 2.292 . S
O203 C206 1.255 . S
Tb204 O203 2.292 . S
Tb204 O220 2.326 . S
Tb204 O222 2.500 . S
Tb204 O223 2.473 . S
Tb204 O226 2.324 . S
Eu205 O209 2.292 . S
Eu205 C210 2.852 . S
Eu205 O221 2.324 . S
Eu205 O225 2.326 . S
Eu205 O227 2.500 . S
Eu205 O228 2.473 . S
C206 O203 1.255 . S
C206 O207 1.247 . S
O207 C206 1.247 . S
C208 O220 1.242 . S
C208 O221 1.258 . S
O209 Eu205 2.292 . S
O209 C211 1.255 . S
C210 Eu205 2.852 . S
C210 C214 1.503 . S
C210 O227 1.273 . S
C210 O228 1.257 . S
C211 O209 1.255 . S
C211 O212 1.247 . S
O212 C211 1.247 . S
C213 O225 1.242 . S
C213 O226 1.258 . S
C214 C210 1.503 . S
C214 C215 1.379 . S
C214 C219 1.392 . S
C215 C214 1.379 . S
C215 C216 1.404 . S
C215 H229 0.929 . S
C216 C215 1.404 . S
C216 C217 1.389 . S
C217 C216 1.389 . S
C217 C218 1.399 . S
C217 H230 0.931 . S
C218 C217 1.399 . S
C218 C219 1.390 . S
C219 C214 1.392 . S
C219 C218 1.390 . S
C219 H231 0.929 . S
O220 Tb204 2.326 . S
O220 C208 1.242 . S
O221 Eu205 2.324 . S
O221 C208 1.258 . S
O222 Tb204 2.500 . S
O222 C224 1.273 . S
O223 Tb204 2.473 . S
O223 C224 1.257 . S
C224 O222 1.273 . S
C224 O223 1.257 . S
O225 Eu205 2.326 . S
O225 C213 1.242 . S
O226 Tb204 2.324 . S
O226 C213 1.258 . S
O227 Eu205 2.500 . S
O227 C210 1.273 . S
O228 Eu205 2.473 . S
O228 C210 1.257 . S
H229 C215 0.929 . S
H230 C217 0.931 . S
H231 C219 0.929 . S
O232 Tb233 2.292 . S
O232 C235 1.255 . S
Tb233 O232 2.292 . S
Tb233 O249 2.326 1_545 S
Tb233 O251 2.500 1_545 S
Tb233 O252 2.473 1_545 S
Tb233 O255 2.324 1_545 S
Eu234 O238 2.292 . S
Eu234 C239 2.852 1_565 S
Eu234 O250 2.324 . S
Eu234 O254 2.326 . S
Eu234 O256 2.500 . S
Eu234 O257 2.473 1_565 S
C235 O232 1.255 . S
C235 O236 1.247 . S
O236 C235 1.247 . S
C237 O249 1.242 . S
C237 O250 1.258 . S
O238 Eu234 2.292 . S
O238 C240 1.255 . S
C239 Eu234 2.852 1_545 S
C239 C243 1.503 . S
C239 O256 1.273 1_545 S
C239 O257 1.257 . S
C240 O238 1.255 . S
C240 O241 1.247 . S
O241 C240 1.247 . S
C242 O254 1.242 . S
C242 O255 1.258 . S
C243 C239 1.503 . S
C243 C244 1.379 . S
C243 C248 1.392 1_455 S
C244 C243 1.379 . S
C244 C245 1.404 . S
C244 H258 0.929 . S
C245 C244 1.404 . S
C245 C246 1.389 1_455 S
C246 C245 1.389 1_655 S
C246 C247 1.399 . S
C246 H259 0.931 . S
C247 C246 1.399 . S
C247 C248 1.390 . S
C248 C243 1.392 1_655 S
C248 C247 1.390 . S
C248 H260 0.929 . S
O249 Tb233 2.326 1_565 S
O249 C237 1.242 . S
O250 Eu234 2.324 . S
O250 C237 1.258 . S
O251 Tb233 2.500 1_565 S
O251 C253 1.273 . S
O252 Tb233 2.473 1_565 S
O252 C253 1.257 . S
C253 O251 1.273 . S
C253 O252 1.257 . S
O254 Eu234 2.326 . S
O254 C242 1.242 . S
O255 Tb233 2.324 1_565 S
O255 C242 1.258 . S
O256 Eu234 2.500 . S
O256 C239 1.273 1_565 S
O257 Eu234 2.473 1_545 S
O257 C239 1.257 . S
H258 C244 0.929 . S
H259 C246 0.931 . S
H260 C248 0.929 . S
O261 Tb262 2.292 . S
O261 C264 1.255 . S
Tb262 O261 2.292 . S
Tb262 O278 2.326 . S
Tb262 O280 2.500 . S
Tb262 O281 2.473 . S
Tb262 O284 2.324 . S
Eu263 O267 2.292 . S
Eu263 C268 2.852 . S
Eu263 O279 2.324 . S
Eu263 O283 2.326 . S
Eu263 O285 2.500 . S
Eu263 O286 2.473 . S
C264 O261 1.255 . S
C264 O265 1.247 . S
O265 C264 1.247 . S
C266 O278 1.242 . S
C266 O279 1.258 . S
O267 Eu263 2.292 . S
O267 C269 1.255 . S
C268 Eu263 2.852 . S
C268 C272 1.503 . S
C268 O285 1.273 . S
C268 O286 1.257 . S
C269 O267 1.255 . S
C269 O270 1.247 . S
O270 C269 1.247 . S
C271 O283 1.242 . S
C271 O284 1.258 . S
C272 C268 1.503 . S
C272 C273 1.379 . S
C272 C277 1.392 . S
C273 C272 1.379 . S
C273 C274 1.404 . S
C273 H287 0.929 . S
C274 C273 1.404 . S
C274 C275 1.389 . S
C275 C274 1.389 . S
C275 C276 1.399 . S
C275 H288 0.931 . S
C276 C275 1.399 . S
C276 C277 1.390 . S
C277 C272 1.392 . S
C277 C276 1.390 . S
C277 H289 0.929 . S
O278 Tb262 2.326 . S
O278 C266 1.242 . S
O279 Eu263 2.324 . S
O279 C266 1.258 . S
O280 Tb262 2.500 . S
O280 C282 1.273 . S
O281 Tb262 2.473 . S
O281 C282 1.257 . S
C282 O280 1.273 . S
C282 O281 1.257 . S
O283 Eu263 2.326 . S
O283 C271 1.242 . S
O284 Tb262 2.324 . S
O284 C271 1.258 . S
O285 Eu263 2.500 . S
O285 C268 1.273 . S
O286 Eu263 2.473 . S
O286 C268 1.257 . S
H287 C273 0.929 . S
H288 C275 0.931 . S
H289 C277 0.929 . S
O290 Tb291 2.292 . S
O290 C293 1.255 . S
Tb291 O290 2.292 . S
Tb291 O307 2.326 1_565 S
Tb291 O309 2.500 1_565 S
Tb291 O310 2.473 1_565 S
Tb291 O313 2.324 1_565 S
Eu292 O296 2.292 . S
Eu292 C297 2.852 1_545 S
Eu292 O308 2.324 . S
Eu292 O312 2.326 . S
Eu292 O314 2.500 . S
Eu292 O315 2.473 1_545 S
C293 O290 1.255 . S
C293 O294 1.247 . S
O294 C293 1.247 . S
C295 O307 1.242 . S
C295 O308 1.258 . S
O296 Eu292 2.292 . S
O296 C298 1.255 . S
C297 Eu292 2.852 1_565 S
C297 C301 1.503 . S
C297 O314 1.273 1_565 S
C297 O315 1.257 . S
C298 O296 1.255 . S
C298 O299 1.247 . S
O299 C298 1.247 . S
C300 O312 1.242 . S
C300 O313 1.258 . S
C301 C297 1.503 . S
C301 C302 1.379 . S
C301 C306 1.392 . S
C302 C301 1.379 . S
C302 C303 1.404 . S
C302 H316 0.929 . S
C303 C302 1.404 . S
C303 C304 1.389 . S
C304 C303 1.389 . S
C304 C305 1.399 . S
C304 H317 0.931 . S
C305 C304 1.399 . S
C305 C306 1.390 . S
C306 C301 1.392 . S
C306 C305 1.390 . S
C306 H318 0.929 . S
O307 Tb291 2.326 1_545 S
O307 C295 1.242 . S
O308 Eu292 2.324 . S
O308 C295 1.258 . S
O309 Tb291 2.500 1_545 S
O309 C311 1.273 . S
O310 Tb291 2.473 1_545 S
O310 C311 1.257 . S
C311 O309 1.273 . S
C311 O310 1.257 . S
O312 Eu292 2.326 . S
O312 C300 1.242 . S
O313 Tb291 2.324 1_545 S
O313 C300 1.258 . S
O314 Eu292 2.500 . S
O314 C297 1.273 1_545 S
O315 Eu292 2.473 1_565 S
O315 C297 1.257 . S
H316 C302 0.929 . S
H317 C304 0.931 . S
H318 C306 0.929 . S
O319 Tb320 2.292 . S
O319 C322 1.255 . S
Tb320 O319 2.292 . S
Tb320 O336 2.326 . S
Tb320 O338 2.500 . S
Tb320 O339 2.473 . S
Tb320 O342 2.324 . S
Eu321 O325 2.292 . S
Eu321 C326 2.852 . S
Eu321 O337 2.324 . S
Eu321 O341 2.326 . S
Eu321 O343 2.500 . S
Eu321 O344 2.473 . S
C322 O319 1.255 . S
C322 O323 1.247 . S
O323 C322 1.247 . S
C324 O336 1.242 . S
C324 O337 1.258 . S
O325 Eu321 2.292 . S
O325 C327 1.255 . S
C326 Eu321 2.852 . S
C326 C330 1.503 . S
C326 O343 1.273 . S
C326 O344 1.257 . S
C327 O325 1.255 . S
C327 O328 1.247 . S
O328 C327 1.247 . S
C329 O341 1.242 . S
C329 O342 1.258 . S
C330 C326 1.503 . S
C330 C331 1.379 . S
C330 C335 1.392 . S
C331 C330 1.379 . S
C331 C332 1.404 . S
C331 H345 0.929 . S
C332 C331 1.404 . S
C332 C333 1.389 . S
C333 C332 1.389 . S
C333 C334 1.399 . S
C333 H346 0.931 . S
C334 C333 1.399 . S
C334 C335 1.390 . S
C335 C330 1.392 . S
C335 C334 1.390 . S
C335 H347 0.929 . S
O336 Tb320 2.326 . S
O336 C324 1.242 . S
O337 Eu321 2.324 . S
O337 C324 1.258 . S
O338 Tb320 2.500 . S
O338 C340 1.273 . S
O339 Tb320 2.473 . S
O339 C340 1.257 . S
C340 O338 1.273 . S
C340 O339 1.257 . S
O341 Eu321 2.326 . S
O341 C329 1.242 . S
O342 Tb320 2.324 . S
O342 C329 1.258 . S
O343 Eu321 2.500 . S
O343 C326 1.273 . S
O344 Eu321 2.473 . S
O344 C326 1.257 . S
H345 C331 0.929 . S
H346 C333 0.931 . S
H347 C335 0.929 . S
O348 Tb349 2.316 . S
O348 C351 1.255 . S
Tb349 O348 2.316 . S
Tb349 O365 2.318 1_565 S
Tb349 O367 2.489 1_565 S
Tb349 O368 2.445 1_565 S
Tb349 O371 2.311 1_565 S
Eu350 O354 2.292 . S
Eu350 C355 2.852 1_545 S
Eu350 O366 2.324 . S
Eu350 O370 2.326 . S
Eu350 O372 2.500 . S
Eu350 O373 2.473 1_545 S
C351 O348 1.255 . S
C351 O352 1.247 . S
O352 C351 1.247 . S
C353 O365 1.242 . S
C353 O366 1.258 . S
O354 Eu350 2.292 . S
O354 C356 1.255 . S
C355 Eu350 2.852 1_565 S
C355 C359 1.503 . S
C355 O372 1.273 1_565 S
C355 O373 1.257 . S
C356 O354 1.255 . S
C356 O357 1.247 . S
O357 C356 1.247 . S
C358 O370 1.242 . S
C358 O371 1.258 . S
C359 C355 1.503 . S
C359 C360 1.379 . S
C359 C364 1.392 1_455 S
C360 C359 1.379 . S
C360 C361 1.404 . S
C360 H374 0.929 . S
C361 C360 1.404 . S
C361 C362 1.389 1_455 S
C362 C361 1.389 1_655 S
C362 C363 1.399 . S
C362 H375 0.931 . S
C363 C362 1.399 . S
C363 C364 1.390 . S
C364 C359 1.392 1_655 S
C364 C363 1.390 . S
C364 H376 0.929 . S
O365 Tb349 2.318 1_545 S
O365 C353 1.242 . S
O366 Eu350 2.324 . S
O366 C353 1.258 . S
O367 Tb349 2.489 1_545 S
O367 C369 1.273 . S
O368 Tb349 2.445 1_545 S
O368 C369 1.257 . S
C369 O367 1.273 . S
C369 O368 1.257 . S
O370 Eu350 2.326 . S
O370 C358 1.242 . S
O371 Tb349 2.311 1_545 S
O371 C358 1.258 . S
O372 Eu350 2.500 . S
O372 C355 1.273 1_545 S
O373 Eu350 2.473 1_565 S
O373 C355 1.257 . S
H374 C360 0.929 . S
H375 C362 0.931 . S
H376 C364 0.929 . S
O377 Tb378 2.292 . S
O377 C380 1.255 . S
Tb378 O377 2.292 . S
Tb378 O394 2.326 . S
Tb378 O396 2.500 . S
Tb378 O397 2.473 . S
Tb378 O400 2.324 . S
Eu379 O383 2.292 . S
Eu379 C384 2.852 . S
Eu379 O395 2.324 . S
Eu379 O399 2.326 . S
Eu379 O401 2.500 . S
Eu379 O402 2.473 . S
C380 O377 1.255 . S
C380 O381 1.247 . S
O381 C380 1.247 . S
C382 O394 1.242 . S
C382 O395 1.258 . S
O383 Eu379 2.292 . S
O383 C385 1.255 . S
C384 Eu379 2.852 . S
C384 C388 1.503 . S
C384 O401 1.273 . S
C384 O402 1.257 . S
C385 O383 1.255 . S
C385 O386 1.247 . S
O386 C385 1.247 . S
C387 O399 1.242 . S
C387 O400 1.258 . S
C388 C384 1.503 . S
C388 C389 1.379 . S
C388 C393 1.392 . S
C389 C388 1.379 . S
C389 C390 1.404 . S
C389 H403 0.929 . S
C390 C389 1.404 . S
C390 C391 1.389 . S
C391 C390 1.389 . S
C391 C392 1.399 . S
C391 H404 0.931 . S
C392 C391 1.399 . S
C392 C393 1.390 . S
C393 C388 1.392 . S
C393 C392 1.390 . S
C393 H405 0.929 . S
O394 Tb378 2.326 . S
O394 C382 1.242 . S
O395 Eu379 2.324 . S
O395 C382 1.258 . S
O396 Tb378 2.500 . S
O396 C398 1.273 . S
O397 Tb378 2.473 . S
O397 C398 1.257 . S
C398 O396 1.273 . S
C398 O397 1.257 . S
O399 Eu379 2.326 . S
O399 C387 1.242 . S
O400 Tb378 2.324 . S
O400 C387 1.258 . S
O401 Eu379 2.500 . S
O401 C384 1.273 . S
O402 Eu379 2.473 . S
O402 C384 1.257 . S
H403 C389 0.929 . S
H404 C391 0.931 . S
H405 C393 0.929 . S
O406 Tb407 2.292 . S
O406 C409 1.255 . S
Tb407 O406 2.292 . S
Tb407 O423 2.326 1_545 S
Tb407 O425 2.500 1_545 S
Tb407 O426 2.473 1_545 S
Tb407 O429 2.324 1_545 S
Eu408 O412 2.292 . S
Eu408 C413 2.852 1_565 S
Eu408 O424 2.324 . S
Eu408 O428 2.326 . S
Eu408 O430 2.500 . S
Eu408 O431 2.473 1_565 S
C409 O406 1.255 . S
C409 O410 1.247 . S
O410 C409 1.247 . S
C411 O423 1.242 . S
C411 O424 1.258 . S
O412 Eu408 2.292 . S
O412 C414 1.255 . S
C413 Eu408 2.852 1_545 S
C413 C417 1.503 . S
C413 O430 1.273 1_545 S
C413 O431 1.257 . S
C414 O412 1.255 . S
C414 O415 1.247 . S
O415 C414 1.247 . S
C416 O428 1.242 . S
C416 O429 1.258 . S
C417 C413 1.503 . S
C417 C418 1.379 . S
C417 C422 1.392 . S
C418 C417 1.379 . S
C418 C419 1.404 . S
C418 H432 0.929 . S
C419 C418 1.404 . S
C419 C420 1.389 . S
C420 C419 1.389 . S
C420 C421 1.399 . S
C420 H433 0.931 . S
C421 C420 1.399 . S
C421 C422 1.390 . S
C422 C417 1.392 . S
C422 C421 1.390 . S
C422 H434 0.929 . S
O423 Tb407 2.326 1_565 S
O423 C411 1.242 . S
O424 Eu408 2.324 . S
O424 C411 1.258 . S
O425 Tb407 2.500 1_565 S
O425 C427 1.273 . S
O426 Tb407 2.473 1_565 S
O426 C427 1.257 . S
C427 O425 1.273 . S
C427 O426 1.257 . S
O428 Eu408 2.326 . S
O428 C416 1.242 . S
O429 Tb407 2.324 1_565 S
O429 C416 1.258 . S
O430 Eu408 2.500 . S
O430 C413 1.273 1_565 S
O431 Eu408 2.473 1_545 S
O431 C413 1.257 . S
H432 C418 0.929 . S
H433 C420 0.931 . S
H434 C422 0.929 . S
O435 Tb436 2.292 . S
O435 C438 1.255 . S
Tb436 O435 2.292 . S
Tb436 O452 2.326 . S
Tb436 O454 2.500 . S
Tb436 O455 2.473 . S
Tb436 O458 2.324 . S
Eu437 O441 2.292 . S
Eu437 C442 2.852 . S
Eu437 O453 2.324 . S
Eu437 O457 2.326 . S
Eu437 O459 2.500 . S
Eu437 O460 2.473 . S
C438 O435 1.255 . S
C438 O439 1.247 . S
O439 C438 1.247 . S
C440 O452 1.242 . S
C440 O453 1.258 . S
O441 Eu437 2.292 . S
O441 C443 1.255 . S
C442 Eu437 2.852 . S
C442 C446 1.503 . S
C442 O459 1.273 . S
C442 O460 1.257 . S
C443 O441 1.255 . S
C443 O444 1.247 . S
O444 C443 1.247 . S
C445 O457 1.242 . S
C445 O458 1.258 . S
C446 C442 1.503 . S
C446 C447 1.379 . S
C446 C451 1.392 . S
C447 C446 1.379 . S
C447 C448 1.404 . S
C447 H461 0.929 . S
C448 C447 1.404 . S
C448 C449 1.389 . S
C449 C448 1.389 . S
C449 C450 1.399 . S
C449 H462 0.931 . S
C450 C449 1.399 . S
C450 C451 1.390 . S
C451 C446 1.392 . S
C451 C450 1.390 . S
C451 H463 0.929 . S
O452 Tb436 2.326 . S
O452 C440 1.242 . S
O453 Eu437 2.324 . S
O453 C440 1.258 . S
O454 Tb436 2.500 . S
O454 C456 1.273 . S
O455 Tb436 2.473 . S
O455 C456 1.257 . S
C456 O454 1.273 . S
C456 O455 1.257 . S
O457 Eu437 2.326 . S
O457 C445 1.242 . S
O458 Tb436 2.324 . S
O458 C445 1.258 . S
O459 Eu437 2.500 . S
O459 C442 1.273 . S
O460 Eu437 2.473 . S
O460 C442 1.257 . S
H461 C447 0.929 . S
H462 C449 0.931 . S
H463 C451 0.929 . S
O464 Tb465 2.292 . S
O464 C467 1.255 . S
Tb465 O464 2.292 . S
Tb465 O481 2.326 1_554 S
Tb465 O483 2.500 1_554 S
Tb465 O484 2.473 1_554 S
Tb465 O487 2.324 1_554 S
Eu466 O470 2.292 . S
Eu466 C471 2.852 1_556 S
Eu466 O482 2.324 . S
Eu466 O486 2.326 . S
Eu466 O488 2.500 . S
Eu466 O489 2.473 1_556 S
C467 O464 1.255 . S
C467 O468 1.247 . S
O468 C467 1.247 . S
C469 O481 1.242 . S
C469 O482 1.258 . S
O470 Eu466 2.292 . S
O470 C472 1.255 . S
C471 Eu466 2.852 1_554 S
C471 C475 1.503 . S
C471 O488 1.273 1_554 S
C471 O489 1.257 . S
C472 O470 1.255 . S
C472 O473 1.247 . S
O473 C472 1.247 . S
C474 O486 1.242 . S
C474 O487 1.258 . S
C475 C471 1.503 . S
C475 C476 1.379 . S
C475 C480 1.392 1_545 S
C476 C475 1.379 . S
C476 C477 1.404 . S
C476 H490 0.929 . S
C477 C476 1.404 . S
C477 C478 1.359 1_545 S
C478 C477 1.359 1_565 S
C478 C479 1.418 . S
C478 H491 0.946 . S
C479 C478 1.418 . S
C479 C480 1.390 . S
C480 C475 1.392 1_565 S
C480 C479 1.390 . S
C480 H492 0.929 . S
O481 Tb465 2.326 1_556 S
O481 C469 1.242 . S
O482 Eu466 2.324 . S
O482 C469 1.258 . S
O483 Tb465 2.500 1_556 S
O483 C485 1.273 . S
O484 Tb465 2.473 1_556 S
O484 C485 1.257 . S
C485 O483 1.273 . S
C485 O484 1.257 . S
O486 Eu466 2.326 . S
O486 C474 1.242 . S
O487 Tb465 2.324 1_556 S
O487 C474 1.258 . S
O488 Eu466 2.500 . S
O488 C471 1.273 1_556 S
O489 Eu466 2.473 1_554 S
O489 C471 1.257 . S
H490 C476 0.929 . S
H491 C478 0.946 . S
H492 C480 0.929 . S
O493 Tb494 2.292 . S
O493 C496 1.255 . S
Tb494 O493 2.292 . S
Tb494 O510 2.326 1_556 S
Tb494 O512 2.500 1_556 S
Tb494 O513 2.473 1_556 S
Tb494 O516 2.324 1_556 S
Eu495 O499 2.292 . S
Eu495 C500 2.852 1_554 S
Eu495 O511 2.324 . S
Eu495 O515 2.326 . S
Eu495 O517 2.500 . S
Eu495 O518 2.473 1_554 S
C496 O493 1.255 . S
C496 O497 1.247 . S
O497 C496 1.247 . S
C498 O510 1.242 . S
C498 O511 1.258 . S
O499 Eu495 2.292 . S
O499 C501 1.255 . S
C500 Eu495 2.852 1_556 S
C500 C504 1.503 . S
C500 O517 1.273 1_556 S
C500 O518 1.257 . S
C501 O499 1.255 . S
C501 O502 1.247 . S
O502 C501 1.247 . S
C503 O515 1.242 . S
C503 O516 1.258 . S
C504 C500 1.503 . S
C504 C505 1.379 . S
C504 C509 1.392 . S
C505 C504 1.379 . S
C505 C506 1.404 . S
C505 H519 0.929 . S
C506 C505 1.404 . S
C506 C507 1.389 . S
C507 C506 1.389 . S
C507 C508 1.399 . S
C507 H520 0.931 . S
C508 C507 1.399 . S
C508 C509 1.390 . S
C509 C504 1.392 . S
C509 C508 1.390 . S
C509 H521 0.929 . S
O510 Tb494 2.326 1_554 S
O510 C498 1.242 . S
O511 Eu495 2.324 . S
O511 C498 1.258 . S
O512 Tb494 2.500 1_554 S
O512 C514 1.273 . S
O513 Tb494 2.473 1_554 S
O513 C514 1.257 . S
C514 O512 1.273 . S
C514 O513 1.257 . S
O515 Eu495 2.326 . S
O515 C503 1.242 . S
O516 Tb494 2.324 1_554 S
O516 C503 1.258 . S
O517 Eu495 2.500 . S
O517 C500 1.273 1_554 S
O518 Eu495 2.473 1_556 S
O518 C500 1.257 . S
H519 C505 0.929 . S
H520 C507 0.931 . S
H521 C509 0.929 . S
O522 Tb523 2.292 . S
O522 C525 1.255 . S
Tb523 O522 2.292 . S
Tb523 O539 2.326 . S
Tb523 O541 2.500 . S
Tb523 O542 2.473 . S
Tb523 O545 2.324 . S
Eu524 O528 2.292 . S
Eu524 C529 2.852 . S
Eu524 O540 2.324 . S
Eu524 O544 2.326 . S
Eu524 O546 2.500 . S
Eu524 O547 2.473 . S
C525 O522 1.255 . S
C525 O526 1.247 . S
O526 C525 1.247 . S
C527 O539 1.242 . S
C527 O540 1.258 . S
O528 Eu524 2.292 . S
O528 C530 1.255 . S
C529 Eu524 2.852 . S
C529 C533 1.503 . S
C529 O546 1.273 . S
C529 O547 1.257 . S
C530 O528 1.255 . S
C530 O531 1.247 . S
O531 C530 1.247 . S
C532 O544 1.242 . S
C532 O545 1.258 . S
C533 C529 1.503 . S
C533 C534 1.379 . S
C533 C538 1.392 . S
C534 C533 1.379 . S
C534 C535 1.404 . S
C534 H548 0.929 . S
C535 C534 1.404 . S
C535 C536 1.389 . S
C536 C535 1.389 . S
C536 C537 1.399 . S
C536 H549 0.931 . S
C537 C536 1.399 . S
C537 C538 1.390 . S
C538 C533 1.392 . S
C538 C537 1.390 . S
C538 H550 0.929 . S
O539 Tb523 2.326 . S
O539 C527 1.242 . S
O540 Eu524 2.324 . S
O540 C527 1.258 . S
O541 Tb523 2.500 . S
O541 C543 1.273 . S
O542 Tb523 2.473 . S
O542 C543 1.257 . S
C543 O541 1.273 . S
C543 O542 1.257 . S
O544 Eu524 2.326 . S
O544 C532 1.242 . S
O545 Tb523 2.324 . S
O545 C532 1.258 . S
O546 Eu524 2.500 . S
O546 C529 1.273 . S
O547 Eu524 2.473 . S
O547 C529 1.257 . S
H548 C534 0.929 . S
H549 C536 0.931 . S
H550 C538 0.929 . S
O551 Tb552 2.292 . S
O551 C554 1.255 . S
Tb552 O551 2.292 . S
Tb552 O568 2.326 . S
Tb552 O570 2.500 . S
Tb552 O571 2.473 . S
Tb552 O574 2.324 . S
Eu553 O557 2.292 . S
Eu553 C558 2.852 . S
Eu553 O569 2.324 . S
Eu553 O573 2.326 . S
Eu553 O575 2.500 . S
Eu553 O576 2.473 . S
C554 O551 1.255 . S
C554 O555 1.247 . S
O555 C554 1.247 . S
C556 O568 1.242 . S
C556 O569 1.258 . S
O557 Eu553 2.292 . S
O557 C559 1.255 . S
C558 Eu553 2.852 . S
C558 C562 1.503 . S
C558 O575 1.273 . S
C558 O576 1.257 . S
C559 O557 1.255 . S
C559 O560 1.247 . S
O560 C559 1.247 . S
C561 O573 1.242 . S
C561 O574 1.258 . S
C562 C558 1.503 . S
C562 C563 1.379 . S
C562 C567 1.392 . S
C563 C562 1.379 . S
C563 C564 1.404 . S
C563 H577 0.929 . S
C564 C563 1.404 . S
C564 C565 1.389 . S
C565 C564 1.389 . S
C565 C566 1.399 . S
C565 H578 0.931 . S
C566 C565 1.399 . S
C566 C567 1.390 . S
C567 C562 1.392 . S
C567 C566 1.390 . S
C567 H579 0.929 . S
O568 Tb552 2.326 . S
O568 C556 1.242 . S
O569 Eu553 2.324 . S
O569 C556 1.258 . S
O570 Tb552 2.500 . S
O570 C572 1.273 . S
O571 Tb552 2.473 . S
O571 C572 1.257 . S
C572 O570 1.273 . S
C572 O571 1.257 . S
O573 Eu553 2.326 . S
O573 C561 1.242 . S
O574 Tb552 2.324 . S
O574 C561 1.258 . S
O575 Eu553 2.500 . S
O575 C558 1.273 . S
O576 Eu553 2.473 . S
O576 C558 1.257 . S
H577 C563 0.929 . S
H578 C565 0.931 . S
H579 C567 0.929 . S
O580 Tb581 2.292 . S
O580 C583 1.255 . S
Tb581 O580 2.292 . S
Tb581 O597 2.326 . S
Tb581 O599 2.500 . S
Tb581 O600 2.473 . S
Tb581 O603 2.324 . S
Eu582 O586 2.292 . S
Eu582 C587 2.852 . S
Eu582 O598 2.324 . S
Eu582 O602 2.326 . S
Eu582 O604 2.500 . S
Eu582 O605 2.473 . S
C583 O580 1.255 . S
C583 O584 1.247 . S
O584 C583 1.247 . S
C585 O597 1.242 . S
C585 O598 1.258 . S
O586 Eu582 2.292 . S
O586 C588 1.255 . S
C587 Eu582 2.852 . S
C587 C591 1.503 . S
C587 O604 1.273 . S
C587 O605 1.257 . S
C588 O586 1.255 . S
C588 O589 1.247 . S
O589 C588 1.247 . S
C590 O602 1.242 . S
C590 O603 1.258 . S
C591 C587 1.503 . S
C591 C592 1.379 . S
C591 C596 1.392 . S
C592 C591 1.379 . S
C592 C593 1.404 . S
C592 H606 0.929 . S
C593 C592 1.404 . S
C593 C594 1.389 . S
C594 C593 1.389 . S
C594 C595 1.399 . S
C594 H607 0.931 . S
C595 C594 1.399 . S
C595 C596 1.390 . S
C596 C591 1.392 . S
C596 C595 1.390 . S
C596 H608 0.929 . S
O597 Tb581 2.326 . S
O597 C585 1.242 . S
O598 Eu582 2.324 . S
O598 C585 1.258 . S
O599 Tb581 2.500 . S
O599 C601 1.273 . S
O600 Tb581 2.473 . S
O600 C601 1.257 . S
C601 O599 1.273 . S
C601 O600 1.257 . S
O602 Eu582 2.326 . S
O602 C590 1.242 . S
O603 Tb581 2.324 . S
O603 C590 1.258 . S
O604 Eu582 2.500 . S
O604 C587 1.273 . S
O605 Eu582 2.473 . S
O605 C587 1.257 . S
H606 C592 0.929 . S
H607 C594 0.931 . S
H608 C596 0.929 . S
O609 Tb610 2.292 . S
O609 C612 1.255 . S
Tb610 O609 2.292 . S
Tb610 O626 2.326 . S
Tb610 O628 2.500 . S
Tb610 O629 2.473 . S
Tb610 O632 2.324 . S
Eu611 O615 2.292 . S
Eu611 C616 2.852 . S
Eu611 O627 2.324 . S
Eu611 O631 2.326 . S
Eu611 O633 2.500 . S
Eu611 O634 2.473 . S
C612 O609 1.255 . S
C612 O613 1.247 . S
O613 C612 1.247 . S
C614 O626 1.242 . S
C614 O627 1.258 . S
O615 Eu611 2.292 . S
O615 C617 1.255 . S
C616 Eu611 2.852 . S
C616 C620 1.503 . S
C616 O633 1.273 . S
C616 O634 1.257 . S
C617 O615 1.255 . S
C617 O618 1.247 . S
O618 C617 1.247 . S
C619 O631 1.242 . S
C619 O632 1.258 . S
C620 C616 1.503 . S
C620 C621 1.379 . S
C620 C625 1.392 1_565 S
C621 C620 1.379 . S
C621 C622 1.404 . S
C621 H635 0.929 . S
C622 C621 1.404 . S
C622 C623 1.389 1_565 S
C623 C622 1.389 1_545 S
C623 C624 1.399 . S
C623 H636 0.931 . S
C624 C623 1.399 . S
C624 C625 1.390 . S
C625 C620 1.392 1_545 S
C625 C624 1.390 . S
C625 H637 0.929 . S
O626 Tb610 2.326 . S
O626 C614 1.242 . S
O627 Eu611 2.324 . S
O627 C614 1.258 . S
O628 Tb610 2.500 . S
O628 C630 1.273 . S
O629 Tb610 2.473 . S
O629 C630 1.257 . S
C630 O628 1.273 . S
C630 O629 1.257 . S
O631 Eu611 2.326 . S
O631 C619 1.242 . S
O632 Tb610 2.324 . S
O632 C619 1.258 . S
O633 Eu611 2.500 . S
O633 C616 1.273 . S
O634 Eu611 2.473 . S
O634 C616 1.257 . S
H635 C621 0.929 . S
H636 C623 0.931 . S
H637 C625 0.929 . S
O638 Tb639 2.292 . S
O638 C641 1.255 . S
Tb639 O638 2.292 . S
Tb639 O655 2.326 . S
Tb639 O657 2.500 . S
Tb639 O658 2.473 . S
Tb639 O661 2.324 . S
Eu640 O644 2.292 . S
Eu640 C645 2.852 . S
Eu640 O656 2.324 . S
Eu640 O660 2.326 . S
Eu640 O662 2.500 . S
Eu640 O663 2.473 . S
C641 O638 1.255 . S
C641 O642 1.247 . S
O642 C641 1.247 . S
C643 O655 1.242 . S
C643 O656 1.258 . S
O644 Eu640 2.292 . S
O644 C646 1.255 . S
C645 Eu640 2.852 . S
C645 C649 1.503 . S
C645 O662 1.273 . S
C645 O663 1.257 . S
C646 O644 1.255 . S
C646 O647 1.247 . S
O647 C646 1.247 . S
C648 O660 1.242 . S
C648 O661 1.258 . S
C649 C645 1.503 . S
C649 C650 1.379 . S
C649 C654 1.392 . S
C650 C649 1.379 . S
C650 C651 1.404 . S
C650 H664 0.929 . S
C651 C650 1.404 . S
C651 C652 1.389 . S
C652 C651 1.389 . S
C652 C653 1.399 . S
C652 H665 0.931 . S
C653 C652 1.399 . S
C653 C654 1.390 . S
C654 C649 1.392 . S
C654 C653 1.390 . S
C654 H666 0.929 . S
O655 Tb639 2.326 . S
O655 C643 1.242 . S
O656 Eu640 2.324 . S
O656 C643 1.258 . S
O657 Tb639 2.500 . S
O657 C659 1.273 . S
O658 Tb639 2.473 . S
O658 C659 1.257 . S
C659 O657 1.273 . S
C659 O658 1.257 . S
O660 Eu640 2.326 . S
O660 C648 1.242 . S
O661 Tb639 2.324 . S
O661 C648 1.258 . S
O662 Eu640 2.500 . S
O662 C645 1.273 . S
O663 Eu640 2.473 . S
O663 C645 1.257 . S
H664 C650 0.929 . S
H665 C652 0.931 . S
H666 C654 0.929 . S
O667 Tb668 2.292 . S
O667 C670 1.255 . S
Tb668 O667 2.292 . S
Tb668 O684 2.326 . S
Tb668 O686 2.500 . S
Tb668 O687 2.473 . S
Tb668 O690 2.324 . S
Eu669 O673 2.292 . S
Eu669 C674 2.852 . S
Eu669 O685 2.324 . S
Eu669 O689 2.326 . S
Eu669 O691 2.500 . S
Eu669 O692 2.473 . S
C670 O667 1.255 . S
C670 O671 1.247 . S
O671 C670 1.247 . S
C672 O684 1.242 . S
C672 O685 1.258 . S
O673 Eu669 2.292 . S
O673 C675 1.255 . S
C674 Eu669 2.852 . S
C674 C678 1.503 . S
C674 O691 1.273 . S
C674 O692 1.257 . S
C675 O673 1.255 . S
C675 O676 1.247 . S
O676 C675 1.247 . S
C677 O689 1.242 . S
C677 O690 1.258 . S
C678 C674 1.503 . S
C678 C679 1.379 . S
C678 C683 1.392 . S
C679 C678 1.379 . S
C679 C680 1.404 . S
C679 H693 0.929 . S
C680 C679 1.404 . S
C680 C681 1.389 . S
C681 C680 1.389 . S
C681 C682 1.399 . S
C681 H694 0.931 . S
C682 C681 1.399 . S
C682 C683 1.390 . S
C683 C678 1.392 . S
C683 C682 1.390 . S
C683 H695 0.929 . S
O684 Tb668 2.326 . S
O684 C672 1.242 . S
O685 Eu669 2.324 . S
O685 C672 1.258 . S
O686 Tb668 2.500 . S
O686 C688 1.273 . S
O687 Tb668 2.473 . S
O687 C688 1.257 . S
C688 O686 1.273 . S
C688 O687 1.257 . S
O689 Eu669 2.326 . S
O689 C677 1.242 . S
O690 Tb668 2.324 . S
O690 C677 1.258 . S
O691 Eu669 2.500 . S
O691 C674 1.273 . S
O692 Eu669 2.473 . S
O692 C674 1.257 . S
H693 C679 0.929 . S
H694 C681 0.931 . S
H695 C683 0.929 . S
O696 Tb697 2.334 . S
O696 C699 1.255 . S
Tb697 O696 2.334 . S
Tb697 O713 2.312 1_655 S
Tb697 O715 2.480 1_655 S
Tb697 O716 2.423 1_655 S
Tb697 O719 2.300 1_655 S
Eu698 O702 2.292 . S
Eu698 C703 2.852 1_455 S
Eu698 O714 2.324 . S
Eu698 O718 2.326 . S
Eu698 O720 2.500 . S
Eu698 O721 2.473 1_455 S
C699 O696 1.255 . S
C699 O700 1.247 . S
O700 C699 1.247 . S
C701 O713 1.242 . S
C701 O714 1.258 . S
O702 Eu698 2.292 . S
O702 C704 1.255 . S
C703 Eu698 2.852 1_655 S
C703 C707 1.503 . S
C703 O720 1.273 1_655 S
C703 O721 1.257 . S
C704 O702 1.255 . S
C704 O705 1.247 . S
O705 C704 1.247 . S
C706 O718 1.242 . S
C706 O719 1.258 . S
C707 C703 1.503 . S
C707 C708 1.379 . S
C707 C712 1.392 1_556 S
C708 C707 1.379 . S
C708 C709 1.404 . S
C708 H722 0.929 . S
C709 C708 1.404 . S
C709 C710 1.389 1_556 S
C710 C709 1.389 1_554 S
C710 C711 1.399 . S
C710 H723 0.931 . S
C711 C710 1.399 . S
C711 C712 1.390 . S
C712 C707 1.392 1_554 S
C712 C711 1.390 . S
C712 H724 0.929 . S
O713 Tb697 2.312 1_455 S
O713 C701 1.242 . S
O714 Eu698 2.324 . S
O714 C701 1.258 . S
O715 Tb697 2.480 1_455 S
O715 C717 1.273 . S
O716 Tb697 2.423 1_455 S
O716 C717 1.257 . S
C717 O715 1.273 . S
C717 O716 1.257 . S
O718 Eu698 2.326 . S
O718 C706 1.242 . S
O719 Tb697 2.300 1_455 S
O719 C706 1.258 . S
O720 Eu698 2.500 . S
O720 C703 1.273 1_455 S
O721 Eu698 2.473 1_655 S
O721 C703 1.257 . S
H722 C708 0.929 . S
H723 C710 0.931 . S
H724 C712 0.929 . S
O725 Tb726 2.292 . S
O725 C728 1.255 . S
Tb726 O725 2.292 . S
Tb726 O742 2.326 . S
Tb726 O744 2.500 . S
Tb726 O745 2.473 . S
Tb726 O748 2.324 . S
Eu727 O731 2.292 . S
Eu727 C732 2.852 . S
Eu727 O743 2.324 . S
Eu727 O747 2.326 . S
Eu727 O749 2.500 . S
Eu727 O750 2.473 . S
C728 O725 1.255 . S
C728 O729 1.247 . S
O729 C728 1.247 . S
C730 O742 1.242 . S
C730 O743 1.258 . S
O731 Eu727 2.292 . S
O731 C733 1.255 . S
C732 Eu727 2.852 . S
C732 C736 1.503 . S
C732 O749 1.273 . S
C732 O750 1.257 . S
C733 O731 1.255 . S
C733 O734 1.247 . S
O734 C733 1.247 . S
C735 O747 1.242 . S
C735 O748 1.258 . S
C736 C732 1.503 . S
C736 C737 1.379 . S
C736 C741 1.392 . S
C737 C736 1.379 . S
C737 C738 1.404 . S
C737 H751 0.929 . S
C738 C737 1.404 . S
C738 C739 1.389 . S
C739 C738 1.389 . S
C739 C740 1.399 . S
C739 H752 0.931 . S
C740 C739 1.399 . S
C740 C741 1.390 . S
C741 C736 1.392 . S
C741 C740 1.390 . S
C741 H753 0.929 . S
O742 Tb726 2.326 . S
O742 C730 1.242 . S
O743 Eu727 2.324 . S
O743 C730 1.258 . S
O744 Tb726 2.500 . S
O744 C746 1.273 . S
O745 Tb726 2.473 . S
O745 C746 1.257 . S
C746 O744 1.273 . S
C746 O745 1.257 . S
O747 Eu727 2.326 . S
O747 C735 1.242 . S
O748 Tb726 2.324 . S
O748 C735 1.258 . S
O749 Eu727 2.500 . S
O749 C732 1.273 . S
O750 Eu727 2.473 . S
O750 C732 1.257 . S
H751 C737 0.929 . S
H752 C739 0.931 . S
H753 C741 0.929 . S
O754 Tb755 2.292 . S
O754 C757 1.255 . S
Tb755 O754 2.292 . S
Tb755 O771 2.326 . S
Tb755 O773 2.500 . S
Tb755 O774 2.473 . S
Tb755 O777 2.324 . S
Eu756 O760 2.292 . S
Eu756 C761 2.852 . S
Eu756 O772 2.324 . S
Eu756 O776 2.326 . S
Eu756 O778 2.500 . S
Eu756 O779 2.473 . S
C757 O754 1.255 . S
C757 O758 1.247 . S
O758 C757 1.247 . S
C759 O771 1.242 . S
C759 O772 1.258 . S
O760 Eu756 2.292 . S
O760 C762 1.255 . S
C761 Eu756 2.852 . S
C761 C765 1.503 . S
C761 O778 1.273 . S
C761 O779 1.257 . S
C762 O760 1.255 . S
C762 O763 1.247 . S
O763 C762 1.247 . S
C764 O776 1.242 . S
C764 O777 1.258 . S
C765 C761 1.503 . S
C765 C766 1.379 . S
C765 C770 1.392 . S
C766 C765 1.379 . S
C766 C767 1.404 . S
C766 H780 0.929 . S
C767 C766 1.404 . S
C767 C768 1.389 . S
C768 C767 1.389 . S
C768 C769 1.399 . S
C768 H781 0.931 . S
C769 C768 1.399 . S
C769 C770 1.390 . S
C770 C765 1.392 . S
C770 C769 1.390 . S
C770 H782 0.929 . S
O771 Tb755 2.326 . S
O771 C759 1.242 . S
O772 Eu756 2.324 . S
O772 C759 1.258 . S
O773 Tb755 2.500 . S
O773 C775 1.273 . S
O774 Tb755 2.473 . S
O774 C775 1.257 . S
C775 O773 1.273 . S
C775 O774 1.257 . S
O776 Eu756 2.326 . S
O776 C764 1.242 . S
O777 Tb755 2.324 . S
O777 C764 1.258 . S
O778 Eu756 2.500 . S
O778 C761 1.273 . S
O779 Eu756 2.473 . S
O779 C761 1.257 . S
H780 C766 0.929 . S
H781 C768 0.931 . S
H782 C770 0.929 . S
O783 Tb784 2.292 . S
O783 C786 1.255 . S
Tb784 O783 2.292 . S
Tb784 O800 2.326 . S
Tb784 O802 2.500 . S
Tb784 O803 2.473 . S
Tb784 O806 2.324 . S
Eu785 O789 2.292 . S
Eu785 C790 2.852 . S
Eu785 O801 2.324 . S
Eu785 O805 2.326 . S
Eu785 O807 2.500 . S
Eu785 O808 2.473 . S
C786 O783 1.255 . S
C786 O787 1.247 . S
O787 C786 1.247 . S
C788 O800 1.242 . S
C788 O801 1.258 . S
O789 Eu785 2.292 . S
O789 C791 1.255 . S
C790 Eu785 2.852 . S
C790 C794 1.503 . S
C790 O807 1.273 . S
C790 O808 1.257 . S
C791 O789 1.255 . S
C791 O792 1.247 . S
O792 C791 1.247 . S
C793 O805 1.242 . S
C793 O806 1.258 . S
C794 C790 1.503 . S
C794 C795 1.379 . S
C794 C799 1.392 . S
C795 C794 1.379 . S
C795 C796 1.404 . S
C795 H809 0.929 . S
C796 C795 1.404 . S
C796 C797 1.389 . S
C797 C796 1.389 . S
C797 C798 1.399 . S
C797 H810 0.931 . S
C798 C797 1.399 . S
C798 C799 1.390 . S
C799 C794 1.392 . S
C799 C798 1.390 . S
C799 H811 0.929 . S
O800 Tb784 2.326 . S
O800 C788 1.242 . S
O801 Eu785 2.324 . S
O801 C788 1.258 . S
O802 Tb784 2.500 . S
O802 C804 1.273 . S
O803 Tb784 2.473 . S
O803 C804 1.257 . S
C804 O802 1.273 . S
C804 O803 1.257 . S
O805 Eu785 2.326 . S
O805 C793 1.242 . S
O806 Tb784 2.324 . S
O806 C793 1.258 . S
O807 Eu785 2.500 . S
O807 C790 1.273 . S
O808 Eu785 2.473 . S
O808 C790 1.257 . S
H809 C795 0.929 . S
H810 C797 0.931 . S
H811 C799 0.929 . S
O812 Tb813 2.292 . S
O812 C815 1.255 . S
Tb813 O812 2.292 . S
Tb813 O829 2.326 1_655 S
Tb813 O831 2.500 1_655 S
Tb813 O832 2.473 1_655 S
Tb813 O835 2.324 1_655 S
Eu814 O818 2.292 . S
Eu814 C819 2.852 1_455 S
Eu814 O830 2.324 . S
Eu814 O834 2.326 . S
Eu814 O836 2.500 . S
Eu814 O837 2.473 1_455 S
C815 O812 1.255 . S
C815 O816 1.247 . S
O816 C815 1.247 . S
C817 O829 1.242 . S
C817 O830 1.258 . S
O818 Eu814 2.292 . S
O818 C820 1.255 . S
C819 Eu814 2.852 1_655 S
C819 C823 1.503 . S
C819 O836 1.273 1_655 S
C819 O837 1.257 . S
C820 O818 1.255 . S
C820 O821 1.247 . S
O821 C820 1.247 . S
C822 O834 1.242 . S
C822 O835 1.258 . S
C823 C819 1.503 . S
C823 C824 1.379 . S
C823 C828 1.392 . S
C824 C823 1.379 . S
C824 C825 1.404 . S
C824 H838 0.929 . S
C825 C824 1.404 . S
C825 C826 1.389 . S
C826 C825 1.389 . S
C826 C827 1.399 . S
C826 H839 0.931 . S
C827 C826 1.399 . S
C827 C828 1.390 . S
C828 C823 1.392 . S
C828 C827 1.390 . S
C828 H840 0.929 . S
O829 Tb813 2.326 1_455 S
O829 C817 1.242 . S
O830 Eu814 2.324 . S
O830 C817 1.258 . S
O831 Tb813 2.500 1_455 S
O831 C833 1.273 . S
O832 Tb813 2.473 1_455 S
O832 C833 1.257 . S
C833 O831 1.273 . S
C833 O832 1.257 . S
O834 Eu814 2.326 . S
O834 C822 1.242 . S
O835 Tb813 2.324 1_455 S
O835 C822 1.258 . S
O836 Eu814 2.500 . S
O836 C819 1.273 1_455 S
O837 Eu814 2.473 1_655 S
O837 C819 1.257 . S
H838 C824 0.929 . S
H839 C826 0.931 . S
H840 C828 0.929 . S
O841 Tb842 2.292 . S
O841 C844 1.255 . S
Tb842 O841 2.292 . S
Tb842 O858 2.326 . S
Tb842 O860 2.500 . S
Tb842 O861 2.473 . S
Tb842 O864 2.324 . S
Eu843 O847 2.292 . S
Eu843 C848 2.852 . S
Eu843 O859 2.324 . S
Eu843 O863 2.326 . S
Eu843 O865 2.500 . S
Eu843 O866 2.473 . S
C844 O841 1.255 . S
C844 O845 1.247 . S
O845 C844 1.247 . S
C846 O858 1.242 . S
C846 O859 1.258 . S
O847 Eu843 2.292 . S
O847 C849 1.255 . S
C848 Eu843 2.852 . S
C848 C852 1.503 . S
C848 O865 1.273 . S
C848 O866 1.257 . S
C849 O847 1.255 . S
C849 O850 1.247 . S
O850 C849 1.247 . S
C851 O863 1.242 . S
C851 O864 1.258 . S
C852 C848 1.503 . S
C852 C853 1.379 . S
C852 C857 1.392 . S
C853 C852 1.379 . S
C853 C854 1.404 . S
C853 H867 0.929 . S
C854 C853 1.404 . S
C854 C855 1.389 . S
C855 C854 1.389 . S
C855 C856 1.399 . S
C855 H868 0.931 . S
C856 C855 1.399 . S
C856 C857 1.390 . S
C857 C852 1.392 . S
C857 C856 1.390 . S
C857 H869 0.929 . S
O858 Tb842 2.326 . S
O858 C846 1.242 . S
O859 Eu843 2.324 . S
O859 C846 1.258 . S
O860 Tb842 2.500 . S
O860 C862 1.273 . S
O861 Tb842 2.473 . S
O861 C862 1.257 . S
C862 O860 1.273 . S
C862 O861 1.257 . S
O863 Eu843 2.326 . S
O863 C851 1.242 . S
O864 Tb842 2.324 . S
O864 C851 1.258 . S
O865 Eu843 2.500 . S
O865 C848 1.273 . S
O866 Eu843 2.473 . S
O866 C848 1.257 . S
H867 C853 0.929 . S
H868 C855 0.931 . S
H869 C857 0.929 . S
O870 Tb871 2.292 . S
O870 C873 1.255 . S
Tb871 O870 2.292 . S
Tb871 O887 2.326 . S
Tb871 O889 2.500 . S
Tb871 O890 2.473 . S
Tb871 O893 2.324 . S
Eu872 O876 2.292 . S
Eu872 C877 2.852 . S
Eu872 O888 2.324 . S
Eu872 O892 2.326 . S
Eu872 O894 2.500 . S
Eu872 O895 2.473 . S
C873 O870 1.255 . S
C873 O874 1.247 . S
O874 C873 1.247 . S
C875 O887 1.242 . S
C875 O888 1.258 . S
O876 Eu872 2.292 . S
O876 C878 1.255 . S
C877 Eu872 2.852 . S
C877 C881 1.503 . S
C877 O894 1.273 . S
C877 O895 1.257 . S
C878 O876 1.255 . S
C878 O879 1.247 . S
O879 C878 1.247 . S
C880 O892 1.242 . S
C880 O893 1.258 . S
C881 C877 1.503 . S
C881 C882 1.379 . S
C881 C886 1.392 1_554 S
C882 C881 1.379 . S
C882 C883 1.404 . S
C882 H896 0.929 . S
C883 C882 1.404 . S
C883 C884 1.389 1_554 S
C884 C883 1.389 1_556 S
C884 C885 1.399 . S
C884 H897 0.931 . S
C885 C884 1.399 . S
C885 C886 1.390 . S
C886 C881 1.392 1_556 S
C886 C885 1.390 . S
C886 H898 0.929 . S
O887 Tb871 2.326 . S
O887 C875 1.242 . S
O888 Eu872 2.324 . S
O888 C875 1.258 . S
O889 Tb871 2.500 . S
O889 C891 1.273 . S
O890 Tb871 2.473 . S
O890 C891 1.257 . S
C891 O889 1.273 . S
C891 O890 1.257 . S
O892 Eu872 2.326 . S
O892 C880 1.242 . S
O893 Tb871 2.324 . S
O893 C880 1.258 . S
O894 Eu872 2.500 . S
O894 C877 1.273 . S
O895 Eu872 2.473 . S
O895 C877 1.257 . S
H896 C882 0.929 . S
H897 C884 0.931 . S
H898 C886 0.929 . S
O899 Tb900 2.292 . S
O899 C902 1.255 . S
Tb900 O899 2.292 . S
Tb900 O916 2.326 . S
Tb900 O918 2.500 . S
Tb900 O919 2.473 . S
Tb900 O922 2.324 . S
Eu901 O905 2.292 . S
Eu901 C906 2.852 . S
Eu901 O917 2.324 . S
Eu901 O921 2.326 . S
Eu901 O923 2.500 . S
Eu901 O924 2.473 . S
C902 O899 1.255 . S
C902 O903 1.247 . S
O903 C902 1.247 . S
C904 O916 1.242 . S
C904 O917 1.258 . S
O905 Eu901 2.292 . S
O905 C907 1.255 . S
C906 Eu901 2.852 . S
C906 C910 1.503 . S
C906 O923 1.273 . S
C906 O924 1.257 . S
C907 O905 1.255 . S
C907 O908 1.247 . S
O908 C907 1.247 . S
C909 O921 1.242 . S
C909 O922 1.258 . S
C910 C906 1.503 . S
C910 C911 1.379 . S
C910 C915 1.392 . S
C911 C910 1.379 . S
C911 C912 1.404 . S
C911 H925 0.929 . S
C912 C911 1.404 . S
C912 C913 1.389 . S
C913 C912 1.389 . S
C913 C914 1.399 . S
C913 H926 0.931 . S
C914 C913 1.399 . S
C914 C915 1.390 . S
C915 C910 1.392 . S
C915 C914 1.390 . S
C915 H927 0.929 . S
O916 Tb900 2.326 . S
O916 C904 1.242 . S
O917 Eu901 2.324 . S
O917 C904 1.258 . S
O918 Tb900 2.500 . S
O918 C920 1.273 . S
O919 Tb900 2.473 . S
O919 C920 1.257 . S
C920 O918 1.273 . S
C920 O919 1.257 . S
O921 Eu901 2.326 . S
O921 C909 1.242 . S
O922 Tb900 2.324 . S
O922 C909 1.258 . S
O923 Eu901 2.500 . S
O923 C906 1.273 . S
O924 Eu901 2.473 . S
O924 C906 1.257 . S
H925 C911 0.929 . S
H926 C913 0.931 . S
H927 C915 0.929 . S
O928 Tb929 2.292 . S
O928 C931 1.255 . S
Tb929 O928 2.292 . S
Tb929 O945 2.326 1_565 S
Tb929 O947 2.500 1_565 S
Tb929 O948 2.473 1_565 S
Tb929 O951 2.324 1_565 S
Eu930 O934 2.292 . S
Eu930 C935 2.852 1_545 S
Eu930 O946 2.324 . S
Eu930 O950 2.326 . S
Eu930 O952 2.500 . S
Eu930 O953 2.473 1_545 S
C931 O928 1.255 . S
C931 O932 1.247 . S
O932 C931 1.247 . S
C933 O945 1.242 . S
C933 O946 1.258 . S
O934 Eu930 2.292 . S
O934 C936 1.255 . S
C935 Eu930 2.852 1_565 S
C935 C939 1.503 . S
C935 O952 1.273 1_565 S
C935 O953 1.257 . S
C936 O934 1.255 . S
C936 O937 1.247 . S
O937 C936 1.247 . S
C938 O950 1.242 . S
C938 O951 1.258 . S
C939 C935 1.503 . S
C939 C940 1.379 . S
C939 C944 1.392 1_655 S
C940 C939 1.379 . S
C940 C941 1.404 . S
C940 H954 0.929 . S
C941 C940 1.404 . S
C941 C942 1.389 1_655 S
C942 C941 1.389 1_455 S
C942 C943 1.399 . S
C942 H955 0.931 . S
C943 C942 1.399 . S
C943 C944 1.390 . S
C944 C939 1.392 1_455 S
C944 C943 1.390 . S
C944 H956 0.929 . S
O945 Tb929 2.326 1_545 S
O945 C933 1.242 . S
O946 Eu930 2.324 . S
O946 C933 1.258 . S
O947 Tb929 2.500 1_545 S
O947 C949 1.273 . S
O948 Tb929 2.473 1_545 S
O948 C949 1.257 . S
C949 O947 1.273 . S
C949 O948 1.257 . S
O950 Eu930 2.326 . S
O950 C938 1.242 . S
O951 Tb929 2.324 1_545 S
O951 C938 1.258 . S
O952 Eu930 2.500 . S
O952 C935 1.273 1_545 S
O953 Eu930 2.473 1_565 S
O953 C935 1.257 . S
H954 C940 0.929 . S
H955 C942 0.931 . S
H956 C944 0.929 . S
O957 Tb958 2.292 . S
O957 C960 1.255 . S
Tb958 O957 2.292 . S
Tb958 O974 2.326 . S
Tb958 O976 2.500 . S
Tb958 O977 2.473 . S
Tb958 O980 2.324 . S
Eu959 O963 2.292 . S
Eu959 C964 2.852 . S
Eu959 O975 2.324 . S
Eu959 O979 2.326 . S
Eu959 O981 2.500 . S
Eu959 O982 2.473 . S
C960 O957 1.255 . S
C960 O961 1.247 . S
O961 C960 1.247 . S
C962 O974 1.242 . S
C962 O975 1.258 . S
O963 Eu959 2.292 . S
O963 C965 1.255 . S
C964 Eu959 2.852 . S
C964 C968 1.503 . S
C964 O981 1.273 . S
C964 O982 1.257 . S
C965 O963 1.255 . S
C965 O966 1.247 . S
O966 C965 1.247 . S
C967 O979 1.242 . S
C967 O980 1.258 . S
C968 C964 1.503 . S
C968 C969 1.379 . S
C968 C973 1.392 . S
C969 C968 1.379 . S
C969 C970 1.404 . S
C969 H983 0.929 . S
C970 C969 1.404 . S
C970 C971 1.389 . S
C971 C970 1.389 . S
C971 C972 1.399 . S
C971 H984 0.931 . S
C972 C971 1.399 . S
C972 C973 1.390 . S
C973 C968 1.392 . S
C973 C972 1.390 . S
C973 H985 0.929 . S
O974 Tb958 2.326 . S
O974 C962 1.242 . S
O975 Eu959 2.324 . S
O975 C962 1.258 . S
O976 Tb958 2.500 . S
O976 C978 1.273 . S
O977 Tb958 2.473 . S
O977 C978 1.257 . S
C978 O976 1.273 . S
C978 O977 1.257 . S
O979 Eu959 2.326 . S
O979 C967 1.242 . S
O980 Tb958 2.324 . S
O980 C967 1.258 . S
O981 Eu959 2.500 . S
O981 C964 1.273 . S
O982 Eu959 2.473 . S
O982 C964 1.257 . S
H983 C969 0.929 . S
H984 C971 0.931 . S
H985 C973 0.929 . S
O986 Tb987 2.292 . S
O986 C989 1.255 . S
Tb987 O986 2.292 . S
Tb987 O1003 2.326 1_545 S
Tb987 O1005 2.500 1_545 S
Tb987 O1006 2.473 1_545 S
Tb987 O1009 2.324 1_545 S
Eu988 O992 2.292 . S
Eu988 C993 2.852 1_565 S
Eu988 O1004 2.324 . S
Eu988 O1008 2.326 . S
Eu988 O1010 2.500 . S
Eu988 O1011 2.473 1_565 S
C989 O986 1.255 . S
C989 O990 1.247 . S
O990 C989 1.247 . S
C991 O1003 1.242 . S
C991 O1004 1.258 . S
O992 Eu988 2.292 . S
O992 C994 1.255 . S
C993 Eu988 2.852 1_545 S
C993 C997 1.503 . S
C993 O1010 1.273 1_545 S
C993 O1011 1.257 . S
C994 O992 1.255 . S
C994 O995 1.247 . S
O995 C994 1.247 . S
C996 O1008 1.242 . S
C996 O1009 1.258 . S
C997 C993 1.503 . S
C997 C998 1.379 . S
C997 C1002 1.392 . S
C998 C997 1.379 . S
C998 C999 1.404 . S
C998 H1012 0.929 . S
C999 C998 1.404 . S
C999 C1000 1.389 . S
C1000 C999 1.389 . S
C1000 C1001 1.399 . S
C1000 H1013 0.931 . S
C1001 C1000 1.399 . S
C1001 C1002 1.390 . S
C1002 C997 1.392 . S
C1002 C1001 1.390 . S
C1002 H1014 0.929 . S
O1003 Tb987 2.326 1_565 S
O1003 C991 1.242 . S
O1004 Eu988 2.324 . S
O1004 C991 1.258 . S
O1005 Tb987 2.500 1_565 S
O1005 C1007 1.273 . S
O1006 Tb987 2.473 1_565 S
O1006 C1007 1.257 . S
C1007 O1005 1.273 . S
C1007 O1006 1.257 . S
O1008 Eu988 2.326 . S
O1008 C996 1.242 . S
O1009 Tb987 2.324 1_565 S
O1009 C996 1.258 . S
O1010 Eu988 2.500 . S
O1010 C993 1.273 1_565 S
O1011 Eu988 2.473 1_545 S
O1011 C993 1.257 . S
H1012 C998 0.929 . S
H1013 C1000 0.931 . S
H1014 C1002 0.929 . S
O1015 Tb1016 2.292 . S
O1015 C1018 1.255 . S
Tb1016 O1015 2.292 . S
Tb1016 O1032 2.326 . S
Tb1016 O1034 2.500 . S
Tb1016 O1035 2.473 . S
Tb1016 O1038 2.324 . S
Eu1017 O1021 2.292 . S
Eu1017 C1022 2.852 . S
Eu1017 O1033 2.324 . S
Eu1017 O1037 2.326 . S
Eu1017 O1039 2.500 . S
Eu1017 O1040 2.473 . S
C1018 O1015 1.255 . S
C1018 O1019 1.247 . S
O1019 C1018 1.247 . S
C1020 O1032 1.242 . S
C1020 O1033 1.258 . S
O1021 Eu1017 2.292 . S
O1021 C1023 1.255 . S
C1022 Eu1017 2.852 . S
C1022 C1026 1.503 . S
C1022 O1039 1.273 . S
C1022 O1040 1.257 . S
C1023 O1021 1.255 . S
C1023 O1024 1.247 . S
O1024 C1023 1.247 . S
C1025 O1037 1.242 . S
C1025 O1038 1.258 . S
C1026 C1022 1.503 . S
C1026 C1027 1.379 . S
C1026 C1031 1.392 . S
C1027 C1026 1.379 . S
C1027 C1028 1.404 . S
C1027 H1041 0.929 . S
C1028 C1027 1.404 . S
C1028 C1029 1.389 . S
C1029 C1028 1.389 . S
C1029 C1030 1.399 . S
C1029 H1042 0.931 . S
C1030 C1029 1.399 . S
C1030 C1031 1.390 . S
C1031 C1026 1.392 . S
C1031 C1030 1.390 . S
C1031 H1043 0.929 . S
O1032 Tb1016 2.326 . S
O1032 C1020 1.242 . S
O1033 Eu1017 2.324 . S
O1033 C1020 1.258 . S
O1034 Tb1016 2.500 . S
O1034 C1036 1.273 . S
O1035 Tb1016 2.473 . S
O1035 C1036 1.257 . S
C1036 O1034 1.273 . S
C1036 O1035 1.257 . S
O1037 Eu1017 2.326 . S
O1037 C1025 1.242 . S
O1038 Tb1016 2.324 . S
O1038 C1025 1.258 . S
O1039 Eu1017 2.500 . S
O1039 C1022 1.273 . S
O1040 Eu1017 2.473 . S
O1040 C1022 1.257 . S
H1041 C1027 0.929 . S
H1042 C1029 0.931 . S
H1043 C1031 0.929 . S
O1044 Tb1045 2.301 . S
O1044 C1047 1.255 . S
Tb1045 O1044 2.301 . S
Tb1045 O1061 2.323 1_545 S
Tb1045 O1063 2.496 1_545 S
Tb1045 O1064 2.463 1_545 S
Tb1045 O1067 2.319 1_545 S
Eu1046 O1050 2.292 . S
Eu1046 C1051 2.852 1_565 S
Eu1046 O1062 2.324 . S
Eu1046 O1066 2.326 . S
Eu1046 O1068 2.500 . S
Eu1046 O1069 2.473 1_565 S
C1047 O1044 1.255 . S
C1047 O1048 1.247 . S
O1048 C1047 1.247 . S
C1049 O1061 1.242 . S
C1049 O1062 1.258 . S
O1050 Eu1046 2.292 . S
O1050 C1052 1.255 . S
C1051 Eu1046 2.852 1_545 S
C1051 C1055 1.503 . S
C1051 O1068 1.273 1_545 S
C1051 O1069 1.257 . S
C1052 O1050 1.255 . S
C1052 O1053 1.247 . S
O1053 C1052 1.247 . S
C1054 O1066 1.242 . S
C1054 O1067 1.258 . S
C1055 C1051 1.503 . S
C1055 C1056 1.379 . S
C1055 C1060 1.392 . S
C1056 C1055 1.379 . S
C1056 C1057 1.404 . S
C1056 H1070 0.929 . S
C1057 C1056 1.404 . S
C1057 C1058 1.389 . S
C1058 C1057 1.389 . S
C1058 C1059 1.399 . S
C1058 H1071 0.931 . S
C1059 C1058 1.399 . S
C1059 C1060 1.390 . S
C1060 C1055 1.392 . S
C1060 C1059 1.390 . S
C1060 H1072 0.929 . S
O1061 Tb1045 2.323 1_565 S
O1061 C1049 1.242 . S
O1062 Eu1046 2.324 . S
O1062 C1049 1.258 . S
O1063 Tb1045 2.496 1_565 S
O1063 C1065 1.273 . S
O1064 Tb1045 2.463 1_565 S
O1064 C1065 1.257 . S
C1065 O1063 1.273 . S
C1065 O1064 1.257 . S
O1066 Eu1046 2.326 . S
O1066 C1054 1.242 . S
O1067 Tb1045 2.319 1_565 S
O1067 C1054 1.258 . S
O1068 Eu1046 2.500 . S
O1068 C1051 1.273 1_565 S
O1069 Eu1046 2.473 1_545 S
O1069 C1051 1.257 . S
H1070 C1056 0.929 . S
H1071 C1058 0.931 . S
H1072 C1060 0.929 . S
O1073 Tb1074 2.292 . S
O1073 C1076 1.255 . S
Tb1074 O1073 2.292 . S
Tb1074 O1090 2.326 . S
Tb1074 O1092 2.500 . S
Tb1074 O1093 2.473 . S
Tb1074 O1096 2.324 . S
Eu1075 O1079 2.292 . S
Eu1075 C1080 2.852 . S
Eu1075 O1091 2.324 . S
Eu1075 O1095 2.326 . S
Eu1075 O1097 2.500 . S
Eu1075 O1098 2.473 . S
C1076 O1073 1.255 . S
C1076 O1077 1.247 . S
O1077 C1076 1.247 . S
C1078 O1090 1.242 . S
C1078 O1091 1.258 . S
O1079 Eu1075 2.292 . S
O1079 C1081 1.255 . S
C1080 Eu1075 2.852 . S
C1080 C1084 1.503 . S
C1080 O1097 1.273 . S
C1080 O1098 1.257 . S
C1081 O1079 1.255 . S
C1081 O1082 1.247 . S
O1082 C1081 1.247 . S
C1083 O1095 1.242 . S
C1083 O1096 1.258 . S
C1084 C1080 1.503 . S
C1084 C1085 1.379 . S
C1084 C1089 1.392 . S
C1085 C1084 1.379 . S
C1085 C1086 1.404 . S
C1085 H1099 0.929 . S
C1086 C1085 1.404 . S
C1086 C1087 1.389 . S
C1087 C1086 1.389 . S
C1087 C1088 1.399 . S
C1087 H1100 0.931 . S
C1088 C1087 1.399 . S
C1088 C1089 1.390 . S
C1089 C1084 1.392 . S
C1089 C1088 1.390 . S
C1089 H1101 0.929 . S
O1090 Tb1074 2.326 . S
O1090 C1078 1.242 . S
O1091 Eu1075 2.324 . S
O1091 C1078 1.258 . S
O1092 Tb1074 2.500 . S
O1092 C1094 1.273 . S
O1093 Tb1074 2.473 . S
O1093 C1094 1.257 . S
C1094 O1092 1.273 . S
C1094 O1093 1.257 . S
O1095 Eu1075 2.326 . S
O1095 C1083 1.242 . S
O1096 Tb1074 2.324 . S
O1096 C1083 1.258 . S
O1097 Eu1075 2.500 . S
O1097 C1080 1.273 . S
O1098 Eu1075 2.473 . S
O1098 C1080 1.257 . S
H1099 C1085 0.929 . S
H1100 C1087 0.931 . S
H1101 C1089 0.929 . S
O1102 Tb1103 2.292 . S
O1102 C1105 1.255 . S
Tb1103 O1102 2.292 . S
Tb1103 O1119 2.326 1_565 S
Tb1103 O1121 2.500 1_565 S
Tb1103 O1122 2.473 1_565 S
Tb1103 O1125 2.324 1_565 S
Eu1104 O1108 2.292 . S
Eu1104 C1109 2.852 1_545 S
Eu1104 O1120 2.324 . S
Eu1104 O1124 2.326 . S
Eu1104 O1126 2.500 . S
Eu1104 O1127 2.473 1_545 S
C1105 O1102 1.255 . S
C1105 O1106 1.247 . S
O1106 C1105 1.247 . S
C1107 O1119 1.242 . S
C1107 O1120 1.258 . S
O1108 Eu1104 2.292 . S
O1108 C1110 1.255 . S
C1109 Eu1104 2.852 1_565 S
C1109 C1113 1.503 . S
C1109 O1126 1.273 1_565 S
C1109 O1127 1.257 . S
C1110 O1108 1.255 . S
C1110 O1111 1.247 . S
O1111 C1110 1.247 . S
C1112 O1124 1.242 . S
C1112 O1125 1.258 . S
C1113 C1109 1.503 . S
C1113 C1114 1.379 . S
C1113 C1118 1.392 . S
C1114 C1113 1.379 . S
C1114 C1115 1.404 . S
C1114 H1128 0.929 . S
C1115 C1114 1.404 . S
C1115 C1116 1.389 . S
C1116 C1115 1.389 . S
C1116 C1117 1.399 . S
C1116 H1129 0.931 . S
C1117 C1116 1.399 . S
C1117 C1118 1.390 . S
C1118 C1113 1.392 . S
C1118 C1117 1.390 . S
C1118 H1130 0.929 . S
O1119 Tb1103 2.326 1_545 S
O1119 C1107 1.242 . S
O1120 Eu1104 2.324 . S
O1120 C1107 1.258 . S
O1121 Tb1103 2.500 1_545 S
O1121 C1123 1.273 . S
O1122 Tb1103 2.473 1_545 S
O1122 C1123 1.257 . S
C1123 O1121 1.273 . S
C1123 O1122 1.257 . S
O1124 Eu1104 2.326 . S
O1124 C1112 1.242 . S
O1125 Tb1103 2.324 1_545 S
O1125 C1112 1.258 . S
O1126 Eu1104 2.500 . S
O1126 C1109 1.273 1_545 S
O1127 Eu1104 2.473 1_565 S
O1127 C1109 1.257 . S
H1128 C1114 0.929 . S
H1129 C1116 0.931 . S
H1130 C1118 0.929 . S
O1131 Tb1132 2.292 . S
O1131 C1134 1.255 . S
Tb1132 O1131 2.292 . S
Tb1132 O1148 2.326 . S
Tb1132 O1150 2.500 . S
Tb1132 O1151 2.473 . S
Tb1132 O1154 2.324 . S
Eu1133 O1137 2.292 . S
Eu1133 C1138 2.852 . S
Eu1133 O1149 2.324 . S
Eu1133 O1153 2.326 . S
Eu1133 O1155 2.500 . S
Eu1133 O1156 2.473 . S
C1134 O1131 1.255 . S
C1134 O1135 1.247 . S
O1135 C1134 1.247 . S
C1136 O1148 1.242 . S
C1136 O1149 1.258 . S
O1137 Eu1133 2.292 . S
O1137 C1139 1.255 . S
C1138 Eu1133 2.852 . S
C1138 C1142 1.503 . S
C1138 O1155 1.273 . S
C1138 O1156 1.257 . S
C1139 O1137 1.255 . S
C1139 O1140 1.247 . S
O1140 C1139 1.247 . S
C1141 O1153 1.242 . S
C1141 O1154 1.258 . S
C1142 C1138 1.503 . S
C1142 C1143 1.379 . S
C1142 C1147 1.392 . S
C1143 C1142 1.379 . S
C1143 C1144 1.404 . S
C1143 H1157 0.929 . S
C1144 C1143 1.404 . S
C1144 C1145 1.389 . S
C1145 C1144 1.389 . S
C1145 C1146 1.399 . S
C1145 H1158 0.931 . S
C1146 C1145 1.399 . S
C1146 C1147 1.390 . S
C1147 C1142 1.392 . S
C1147 C1146 1.390 . S
C1147 H1159 0.929 . S
O1148 Tb1132 2.326 . S
O1148 C1136 1.242 . S
O1149 Eu1133 2.324 . S
O1149 C1136 1.258 . S
O1150 Tb1132 2.500 . S
O1150 C1152 1.273 . S
O1151 Tb1132 2.473 . S
O1151 C1152 1.257 . S
C1152 O1150 1.273 . S
C1152 O1151 1.257 . S
O1153 Eu1133 2.326 . S
O1153 C1141 1.242 . S
O1154 Tb1132 2.324 . S
O1154 C1141 1.258 . S
O1155 Eu1133 2.500 . S
O1155 C1138 1.273 . S
O1156 Eu1133 2.473 . S
O1156 C1138 1.257 . S
H1157 C1143 0.929 . S
H1158 C1145 0.931 . S
H1159 C1147 0.929 . S
O1160 Tb1161 2.292 . S
O1160 C1163 1.255 . S
Tb1161 O1160 2.292 . S
Tb1161 O1177 2.326 1_556 S
Tb1161 O1179 2.500 1_556 S
Tb1161 O1180 2.473 1_556 S
Tb1161 O1183 2.324 1_556 S
Eu1162 O1166 2.292 . S
Eu1162 C1167 2.852 1_554 S
Eu1162 O1178 2.324 . S
Eu1162 O1182 2.326 . S
Eu1162 O1184 2.500 . S
Eu1162 O1185 2.473 1_554 S
C1163 O1160 1.255 . S
C1163 O1164 1.247 . S
O1164 C1163 1.247 . S
C1165 O1177 1.242 . S
C1165 O1178 1.258 . S
O1166 Eu1162 2.292 . S
O1166 C1168 1.255 . S
C1167 Eu1162 2.852 1_556 S
C1167 C1171 1.503 . S
C1167 O1184 1.273 1_556 S
C1167 O1185 1.257 . S
C1168 O1166 1.255 . S
C1168 O1169 1.247 . S
O1169 C1168 1.247 . S
C1170 O1182 1.242 . S
C1170 O1183 1.258 . S
C1171 C1167 1.503 . S
C1171 C1172 1.379 . S
C1171 C1176 1.392 1_565 S
C1172 C1171 1.379 . S
C1172 C1173 1.404 . S
C1172 H1186 0.929 . S
C1173 C1172 1.404 . S
C1173 C1174 1.394 . S
C1174 C1173 1.394 . S
C1174 C1175 1.396 1_565 S
C1174 H1187 0.929 1_565 S
C1175 C1174 1.396 1_545 S
C1175 C1176 1.390 . S
C1176 C1171 1.392 1_545 S
C1176 C1175 1.390 . S
C1176 H1188 0.929 . S
O1177 Tb1161 2.326 1_554 S
O1177 C1165 1.242 . S
O1178 Eu1162 2.324 . S
O1178 C1165 1.258 . S
O1179 Tb1161 2.500 1_554 S
O1179 C1181 1.273 . S
O1180 Tb1161 2.473 1_554 S
O1180 C1181 1.257 . S
C1181 O1179 1.273 . S
C1181 O1180 1.257 . S
O1182 Eu1162 2.326 . S
O1182 C1170 1.242 . S
O1183 Tb1161 2.324 1_554 S
O1183 C1170 1.258 . S
O1184 Eu1162 2.500 . S
O1184 C1167 1.273 1_554 S
O1185 Eu1162 2.473 1_556 S
O1185 C1167 1.257 . S
H1186 C1172 0.929 . S
H1187 C1174 0.929 1_545 S
H1188 C1176 0.929 . S
O1189 Tb1190 2.292 . S
O1189 C1192 1.255 . S
Tb1190 O1189 2.292 . S
Tb1190 O1206 2.326 1_554 S
Tb1190 O1208 2.500 1_554 S
Tb1190 O1209 2.473 1_554 S
Tb1190 O1212 2.324 1_554 S
Eu1191 O1195 2.292 . S
Eu1191 C1196 2.852 1_556 S
Eu1191 O1207 2.324 . S
Eu1191 O1211 2.326 . S
Eu1191 O1213 2.500 . S
Eu1191 O1214 2.473 1_556 S
C1192 O1189 1.255 . S
C1192 O1193 1.247 . S
O1193 C1192 1.247 . S
C1194 O1206 1.242 . S
C1194 O1207 1.258 . S
O1195 Eu1191 2.292 . S
O1195 C1197 1.255 . S
C1196 Eu1191 2.852 1_554 S
C1196 C1200 1.503 . S
C1196 O1213 1.273 1_554 S
C1196 O1214 1.257 . S
C1197 O1195 1.255 . S
C1197 O1198 1.247 . S
O1198 C1197 1.247 . S
C1199 O1211 1.242 . S
C1199 O1212 1.258 . S
C1200 C1196 1.503 . S
C1200 C1201 1.379 . S
C1200 C1205 1.392 . S
C1201 C1200 1.379 . S
C1201 C1202 1.404 . S
C1201 H1215 0.929 . S
C1202 C1201 1.404 . S
C1202 C1203 1.389 . S
C1203 C1202 1.389 . S
C1203 C1204 1.399 . S
C1203 H1216 0.931 . S
C1204 C1203 1.399 . S
C1204 C1205 1.390 . S
C1205 C1200 1.392 . S
C1205 C1204 1.390 . S
C1205 H1217 0.929 . S
O1206 Tb1190 2.326 1_556 S
O1206 C1194 1.242 . S
O1207 Eu1191 2.324 . S
O1207 C1194 1.258 . S
O1208 Tb1190 2.500 1_556 S
O1208 C1210 1.273 . S
O1209 Tb1190 2.473 1_556 S
O1209 C1210 1.257 . S
C1210 O1208 1.273 . S
C1210 O1209 1.257 . S
O1211 Eu1191 2.326 . S
O1211 C1199 1.242 . S
O1212 Tb1190 2.324 1_556 S
O1212 C1199 1.258 . S
O1213 Eu1191 2.500 . S
O1213 C1196 1.273 1_556 S
O1214 Eu1191 2.473 1_554 S
O1214 C1196 1.257 . S
H1215 C1201 0.929 . S
H1216 C1203 0.931 . S
H1217 C1205 0.929 . S
O1218 Tb1219 2.292 . S
O1218 C1221 1.255 . S
Tb1219 O1218 2.292 . S
Tb1219 O1235 2.326 . S
Tb1219 O1237 2.500 . S
Tb1219 O1238 2.473 . S
Tb1219 O1241 2.324 . S
Eu1220 O1224 2.292 . S
Eu1220 C1225 2.852 . S
Eu1220 O1236 2.324 . S
Eu1220 O1240 2.326 . S
Eu1220 O1242 2.500 . S
Eu1220 O1243 2.473 . S
C1221 O1218 1.255 . S
C1221 O1222 1.247 . S
O1222 C1221 1.247 . S
C1223 O1235 1.242 . S
C1223 O1236 1.258 . S
O1224 Eu1220 2.292 . S
O1224 C1226 1.255 . S
C1225 Eu1220 2.852 . S
C1225 C1229 1.503 . S
C1225 O1242 1.273 . S
C1225 O1243 1.257 . S
C1226 O1224 1.255 . S
C1226 O1227 1.247 . S
O1227 C1226 1.247 . S
C1228 O1240 1.242 . S
C1228 O1241 1.258 . S
C1229 C1225 1.503 . S
C1229 C1230 1.379 . S
C1229 C1234 1.392 . S
C1230 C1229 1.379 . S
C1230 C1231 1.404 . S
C1230 H1244 0.929 . S
C1231 C1230 1.404 . S
C1231 C1232 1.389 . S
C1232 C1231 1.389 . S
C1232 C1233 1.399 . S
C1232 H1245 0.931 . S
C1233 C1232 1.399 . S
C1233 C1234 1.390 . S
C1234 C1229 1.392 . S
C1234 C1233 1.390 . S
C1234 H1246 0.929 . S
O1235 Tb1219 2.326 . S
O1235 C1223 1.242 . S
O1236 Eu1220 2.324 . S
O1236 C1223 1.258 . S
O1237 Tb1219 2.500 . S
O1237 C1239 1.273 . S
O1238 Tb1219 2.473 . S
O1238 C1239 1.257 . S
C1239 O1237 1.273 . S
C1239 O1238 1.257 . S
O1240 Eu1220 2.326 . S
O1240 C1228 1.242 . S
O1241 Tb1219 2.324 . S
O1241 C1228 1.258 . S
O1242 Eu1220 2.500 . S
O1242 C1225 1.273 . S
O1243 Eu1220 2.473 . S
O1243 C1225 1.257 . S
H1244 C1230 0.929 . S
H1245 C1232 0.931 . S
H1246 C1234 0.929 . S
O1247 Tb1248 2.292 . S
O1247 C1250 1.255 . S
Tb1248 O1247 2.292 . S
Tb1248 O1264 2.326 . S
Tb1248 O1266 2.500 . S
Tb1248 O1267 2.473 . S
Tb1248 O1270 2.324 . S
Eu1249 O1253 2.292 . S
Eu1249 C1254 2.852 . S
Eu1249 O1265 2.324 . S
Eu1249 O1269 2.326 . S
Eu1249 O1271 2.500 . S
Eu1249 O1272 2.473 . S
C1250 O1247 1.255 . S
C1250 O1251 1.247 . S
O1251 C1250 1.247 . S
C1252 O1264 1.242 . S
C1252 O1265 1.258 . S
O1253 Eu1249 2.292 . S
O1253 C1255 1.255 . S
C1254 Eu1249 2.852 . S
C1254 C1258 1.503 . S
C1254 O1271 1.273 . S
C1254 O1272 1.257 . S
C1255 O1253 1.255 . S
C1255 O1256 1.247 . S
O1256 C1255 1.247 . S
C1257 O1269 1.242 . S
C1257 O1270 1.258 . S
C1258 C1254 1.503 . S
C1258 C1259 1.379 . S
C1258 C1263 1.392 . S
C1259 C1258 1.379 . S
C1259 C1260 1.404 . S
C1259 H1273 0.929 . S
C1260 C1259 1.404 . S
C1260 C1261 1.389 . S
C1261 C1260 1.389 . S
C1261 C1262 1.399 . S
C1261 H1274 0.931 . S
C1262 C1261 1.399 . S
C1262 C1263 1.390 . S
C1263 C1258 1.392 . S
C1263 C1262 1.390 . S
C1263 H1275 0.929 . S
O1264 Tb1248 2.326 . S
O1264 C1252 1.242 . S
O1265 Eu1249 2.324 . S
O1265 C1252 1.258 . S
O1266 Tb1248 2.500 . S
O1266 C1268 1.273 . S
O1267 Tb1248 2.473 . S
O1267 C1268 1.257 . S
C1268 O1266 1.273 . S
C1268 O1267 1.257 . S
O1269 Eu1249 2.326 . S
O1269 C1257 1.242 . S
O1270 Tb1248 2.324 . S
O1270 C1257 1.258 . S
O1271 Eu1249 2.500 . S
O1271 C1254 1.273 . S
O1272 Eu1249 2.473 . S
O1272 C1254 1.257 . S
H1273 C1259 0.929 . S
H1274 C1261 0.931 . S
H1275 C1263 0.929 . S
O1276 Tb1277 2.292 . S
O1276 C1279 1.255 . S
Tb1277 O1276 2.292 . S
Tb1277 O1293 2.326 . S
Tb1277 O1295 2.500 . S
Tb1277 O1296 2.473 . S
Tb1277 O1299 2.324 . S
Eu1278 O1282 2.292 . S
Eu1278 C1283 2.852 . S
Eu1278 O1294 2.324 . S
Eu1278 O1298 2.326 . S
Eu1278 O1300 2.500 . S
Eu1278 O1301 2.473 . S
C1279 O1276 1.255 . S
C1279 O1280 1.247 . S
O1280 C1279 1.247 . S
C1281 O1293 1.242 . S
C1281 O1294 1.258 . S
O1282 Eu1278 2.292 . S
O1282 C1284 1.255 . S
C1283 Eu1278 2.852 . S
C1283 C1287 1.503 . S
C1283 O1300 1.273 . S
C1283 O1301 1.257 . S
C1284 O1282 1.255 . S
C1284 O1285 1.247 . S
O1285 C1284 1.247 . S
C1286 O1298 1.242 . S
C1286 O1299 1.258 . S
C1287 C1283 1.503 . S
C1287 C1288 1.379 . S
C1287 C1292 1.392 . S
C1288 C1287 1.379 . S
C1288 C1289 1.404 . S
C1288 H1302 0.929 . S
C1289 C1288 1.404 . S
C1289 C1290 1.389 . S
C1290 C1289 1.389 . S
C1290 C1291 1.399 . S
C1290 H1303 0.931 . S
C1291 C1290 1.399 . S
C1291 C1292 1.390 . S
C1292 C1287 1.392 . S
C1292 C1291 1.390 . S
C1292 H1304 0.929 . S
O1293 Tb1277 2.326 . S
O1293 C1281 1.242 . S
O1294 Eu1278 2.324 . S
O1294 C1281 1.258 . S
O1295 Tb1277 2.500 . S
O1295 C1297 1.273 . S
O1296 Tb1277 2.473 . S
O1296 C1297 1.257 . S
C1297 O1295 1.273 . S
C1297 O1296 1.257 . S
O1298 Eu1278 2.326 . S
O1298 C1286 1.242 . S
O1299 Tb1277 2.324 . S
O1299 C1286 1.258 . S
O1300 Eu1278 2.500 . S
O1300 C1283 1.273 . S
O1301 Eu1278 2.473 . S
O1301 C1283 1.257 . S
H1302 C1288 0.929 . S
H1303 C1290 0.931 . S
H1304 C1292 0.929 . S
O1305 Tb1306 2.292 . S
O1305 C1308 1.255 . S
Tb1306 O1305 2.292 . S
Tb1306 O1322 2.326 . S
Tb1306 O1324 2.500 . S
Tb1306 O1325 2.473 . S
Tb1306 O1328 2.324 . S
Eu1307 O1311 2.292 . S
Eu1307 C1312 2.852 . S
Eu1307 O1323 2.324 . S
Eu1307 O1327 2.326 . S
Eu1307 O1329 2.500 . S
Eu1307 O1330 2.473 . S
C1308 O1305 1.255 . S
C1308 O1309 1.247 . S
O1309 C1308 1.247 . S
C1310 O1322 1.242 . S
C1310 O1323 1.258 . S
O1311 Eu1307 2.292 . S
O1311 C1313 1.255 . S
C1312 Eu1307 2.852 . S
C1312 C1316 1.503 . S
C1312 O1329 1.273 . S
C1312 O1330 1.257 . S
C1313 O1311 1.255 . S
C1313 O1314 1.247 . S
O1314 C1313 1.247 . S
C1315 O1327 1.242 . S
C1315 O1328 1.258 . S
C1316 C1312 1.503 . S
C1316 C1317 1.379 . S
C1316 C1321 1.392 1_545 S
C1317 C1316 1.379 . S
C1317 C1318 1.404 . S
C1317 H1331 0.929 . S
C1318 C1317 1.404 . S
C1318 C1319 1.389 1_545 S
C1319 C1318 1.389 1_565 S
C1319 C1320 1.399 . S
C1319 H1332 0.931 . S
C1320 C1319 1.399 . S
C1320 C1321 1.390 . S
C1321 C1316 1.392 1_565 S
C1321 C1320 1.390 . S
C1321 H1333 0.929 . S
O1322 Tb1306 2.326 . S
O1322 C1310 1.242 . S
O1323 Eu1307 2.324 . S
O1323 C1310 1.258 . S
O1324 Tb1306 2.500 . S
O1324 C1326 1.273 . S
O1325 Tb1306 2.473 . S
O1325 C1326 1.257 . S
C1326 O1324 1.273 . S
C1326 O1325 1.257 . S
O1327 Eu1307 2.326 . S
O1327 C1315 1.242 . S
O1328 Tb1306 2.324 . S
O1328 C1315 1.258 . S
O1329 Eu1307 2.500 . S
O1329 C1312 1.273 . S
O1330 Eu1307 2.473 . S
O1330 C1312 1.257 . S
H1331 C1317 0.929 . S
H1332 C1319 0.931 . S
H1333 C1321 0.929 . S
O1334 Tb1335 2.292 . S
O1334 C1337 1.255 . S
Tb1335 O1334 2.292 . S
Tb1335 O1351 2.326 . S
Tb1335 O1353 2.500 . S
Tb1335 O1354 2.473 . S
Tb1335 O1357 2.324 . S
Eu1336 O1340 2.292 . S
Eu1336 C1341 2.852 . S
Eu1336 O1352 2.324 . S
Eu1336 O1356 2.326 . S
Eu1336 O1358 2.500 . S
Eu1336 O1359 2.473 . S
C1337 O1334 1.255 . S
C1337 O1338 1.247 . S
O1338 C1337 1.247 . S
C1339 O1351 1.242 . S
C1339 O1352 1.258 . S
O1340 Eu1336 2.292 . S
O1340 C1342 1.255 . S
C1341 Eu1336 2.852 . S
C1341 C1345 1.503 . S
C1341 O1358 1.273 . S
C1341 O1359 1.257 . S
C1342 O1340 1.255 . S
C1342 O1343 1.247 . S
O1343 C1342 1.247 . S
C1344 O1356 1.242 . S
C1344 O1357 1.258 . S
C1345 C1341 1.503 . S
C1345 C1346 1.379 . S
C1345 C1350 1.392 . S
C1346 C1345 1.379 . S
C1346 C1347 1.404 . S
C1346 H1360 0.929 . S
C1347 C1346 1.404 . S
C1347 C1348 1.389 . S
C1348 C1347 1.389 . S
C1348 C1349 1.399 . S
C1348 H1361 0.931 . S
C1349 C1348 1.399 . S
C1349 C1350 1.390 . S
C1350 C1345 1.392 . S
C1350 C1349 1.390 . S
C1350 H1362 0.929 . S
O1351 Tb1335 2.326 . S
O1351 C1339 1.242 . S
O1352 Eu1336 2.324 . S
O1352 C1339 1.258 . S
O1353 Tb1335 2.500 . S
O1353 C1355 1.273 . S
O1354 Tb1335 2.473 . S
O1354 C1355 1.257 . S
C1355 O1353 1.273 . S
C1355 O1354 1.257 . S
O1356 Eu1336 2.326 . S
O1356 C1344 1.242 . S
O1357 Tb1335 2.324 . S
O1357 C1344 1.258 . S
O1358 Eu1336 2.500 . S
O1358 C1341 1.273 . S
O1359 Eu1336 2.473 . S
O1359 C1341 1.257 . S
H1360 C1346 0.929 . S
H1361 C1348 0.931 . S
H1362 C1350 0.929 . S
O1363 Tb1364 2.292 . S
O1363 C1366 1.255 . S
Tb1364 O1363 2.292 . S
Tb1364 O1380 2.326 . S
Tb1364 O1382 2.500 . S
Tb1364 O1383 2.473 . S
Tb1364 O1386 2.324 . S
Eu1365 O1369 2.292 . S
Eu1365 C1370 2.852 . S
Eu1365 O1381 2.324 . S
Eu1365 O1385 2.326 . S
Eu1365 O1387 2.500 . S
Eu1365 O1388 2.473 . S
C1366 O1363 1.255 . S
C1366 O1367 1.247 . S
O1367 C1366 1.247 . S
C1368 O1380 1.242 . S
C1368 O1381 1.258 . S
O1369 Eu1365 2.292 . S
O1369 C1371 1.255 . S
C1370 Eu1365 2.852 . S
C1370 C1374 1.503 . S
C1370 O1387 1.273 . S
C1370 O1388 1.257 . S
C1371 O1369 1.255 . S
C1371 O1372 1.247 . S
O1372 C1371 1.247 . S
C1373 O1385 1.242 . S
C1373 O1386 1.258 . S
C1374 C1370 1.503 . S
C1374 C1375 1.379 . S
C1374 C1379 1.392 . S
C1375 C1374 1.379 . S
C1375 C1376 1.404 . S
C1375 H1389 0.929 . S
C1376 C1375 1.404 . S
C1376 C1377 1.389 . S
C1377 C1376 1.389 . S
C1377 C1378 1.399 . S
C1377 H1390 0.931 . S
C1378 C1377 1.399 . S
C1378 C1379 1.390 . S
C1379 C1374 1.392 . S
C1379 C1378 1.390 . S
C1379 H1391 0.929 . S
O1380 Tb1364 2.326 . S
O1380 C1368 1.242 . S
O1381 Eu1365 2.324 . S
O1381 C1368 1.258 . S
O1382 Tb1364 2.500 . S
O1382 C1384 1.273 . S
O1383 Tb1364 2.473 . S
O1383 C1384 1.257 . S
C1384 O1382 1.273 . S
C1384 O1383 1.257 . S
O1385 Eu1365 2.326 . S
O1385 C1373 1.242 . S
O1386 Tb1364 2.324 . S
O1386 C1373 1.258 . S
O1387 Eu1365 2.500 . S
O1387 C1370 1.273 . S
O1388 Eu1365 2.473 . S
O1388 C1370 1.257 . S
H1389 C1375 0.929 . S
H1390 C1377 0.931 . S
H1391 C1379 0.929 . S
O1392 Tb1393 2.292 . S
O1392 C1395 1.255 . S
Tb1393 O1392 2.292 . S
Tb1393 O1409 2.326 . S
Tb1393 O1411 2.500 . S
Tb1393 O1412 2.473 . S
Tb1393 O1415 2.324 . S
Eu1394 O1398 2.292 . S
Eu1394 C1399 2.852 . S
Eu1394 O1410 2.324 . S
Eu1394 O1414 2.326 . S
Eu1394 O1416 2.500 . S
Eu1394 O1417 2.473 . S
C1395 O1392 1.255 . S
C1395 O1396 1.247 . S
O1396 C1395 1.247 . S
C1397 O1409 1.242 . S
C1397 O1410 1.258 . S
O1398 Eu1394 2.292 . S
O1398 C1400 1.255 . S
C1399 Eu1394 2.852 . S
C1399 C1403 1.503 . S
C1399 O1416 1.273 . S
C1399 O1417 1.257 . S
C1400 O1398 1.255 . S
C1400 O1401 1.247 . S
O1401 C1400 1.247 . S
C1402 O1414 1.242 . S
C1402 O1415 1.258 . S
C1403 C1399 1.503 . S
C1403 C1404 1.379 . S
C1403 C1408 1.392 . S
C1404 C1403 1.379 . S
C1404 C1405 1.404 . S
C1404 H1418 0.929 . S
C1405 C1404 1.404 . S
C1405 C1406 1.389 . S
C1406 C1405 1.389 . S
C1406 C1407 1.399 . S
C1406 H1419 0.931 . S
C1407 C1406 1.399 . S
C1407 C1408 1.390 . S
C1408 C1403 1.392 . S
C1408 C1407 1.390 . S
C1408 H1420 0.929 . S
O1409 Tb1393 2.326 . S
O1409 C1397 1.242 . S
O1410 Eu1394 2.324 . S
O1410 C1397 1.258 . S
O1411 Tb1393 2.500 . S
O1411 C1413 1.273 . S
O1412 Tb1393 2.473 . S
O1412 C1413 1.257 . S
C1413 O1411 1.273 . S
C1413 O1412 1.257 . S
O1414 Eu1394 2.326 . S
O1414 C1402 1.242 . S
O1415 Tb1393 2.324 . S
O1415 C1402 1.258 . S
O1416 Eu1394 2.500 . S
O1416 C1399 1.273 . S
O1417 Eu1394 2.473 . S
O1417 C1399 1.257 . S
H1418 C1404 0.929 . S
H1419 C1406 0.931 . S
H1420 C1408 0.929 . S
O1421 Tb1422 2.292 . S
O1421 C1424 1.255 . S
Tb1422 O1421 2.292 . S
Tb1422 O1438 2.326 . S
Tb1422 O1440 2.500 . S
Tb1422 O1441 2.473 . S
Tb1422 O1444 2.324 . S
Eu1423 O1427 2.292 . S
Eu1423 C1428 2.852 . S
Eu1423 O1439 2.324 . S
Eu1423 O1443 2.326 . S
Eu1423 O1445 2.500 . S
Eu1423 O1446 2.473 . S
C1424 O1421 1.255 . S
C1424 O1425 1.247 . S
O1425 C1424 1.247 . S
C1426 O1438 1.242 . S
C1426 O1439 1.258 . S
O1427 Eu1423 2.292 . S
O1427 C1429 1.255 . S
C1428 Eu1423 2.852 . S
C1428 C1432 1.503 . S
C1428 O1445 1.273 . S
C1428 O1446 1.257 . S
C1429 O1427 1.255 . S
C1429 O1430 1.247 . S
O1430 C1429 1.247 . S
C1431 O1443 1.242 . S
C1431 O1444 1.258 . S
C1432 C1428 1.503 . S
C1432 C1433 1.379 . S
C1432 C1437 1.392 . S
C1433 C1432 1.379 . S
C1433 C1434 1.404 . S
C1433 H1447 0.929 . S
C1434 C1433 1.404 . S
C1434 C1435 1.389 . S
C1435 C1434 1.389 . S
C1435 C1436 1.399 . S
C1435 H1448 0.931 . S
C1436 C1435 1.399 . S
C1436 C1437 1.390 . S
C1437 C1432 1.392 . S
C1437 C1436 1.390 . S
C1437 H1449 0.929 . S
O1438 Tb1422 2.326 . S
O1438 C1426 1.242 . S
O1439 Eu1423 2.324 . S
O1439 C1426 1.258 . S
O1440 Tb1422 2.500 . S
O1440 C1442 1.273 . S
O1441 Tb1422 2.473 . S
O1441 C1442 1.257 . S
C1442 O1440 1.273 . S
C1442 O1441 1.257 . S
O1443 Eu1423 2.326 . S
O1443 C1431 1.242 . S
O1444 Tb1422 2.324 . S
O1444 C1431 1.258 . S
O1445 Eu1423 2.500 . S
O1445 C1428 1.273 . S
O1446 Eu1423 2.473 . S
O1446 C1428 1.257 . S
H1447 C1433 0.929 . S
H1448 C1435 0.931 . S
H1449 C1437 0.929 . S
O1450 Tb1451 2.320 . S
O1450 C1453 1.255 . S
Tb1451 O1450 2.320 . S
Tb1451 O1467 2.316 1_655 S
Tb1451 O1469 2.486 1_655 S
Tb1451 O1470 2.440 1_655 S
Tb1451 O1473 2.308 1_655 S
Eu1452 O1456 2.292 . S
Eu1452 C1457 2.852 1_455 S
Eu1452 O1468 2.324 . S
Eu1452 O1472 2.326 . S
Eu1452 O1474 2.500 . S
Eu1452 O1475 2.473 1_455 S
C1453 O1450 1.255 . S
C1453 O1454 1.247 . S
O1454 C1453 1.247 . S
C1455 O1467 1.242 . S
C1455 O1468 1.258 . S
O1456 Eu1452 2.292 . S
O1456 C1458 1.255 . S
C1457 Eu1452 2.852 1_655 S
C1457 C1461 1.503 . S
C1457 O1474 1.273 1_655 S
C1457 O1475 1.257 . S
C1458 O1456 1.255 . S
C1458 O1459 1.247 . S
O1459 C1458 1.247 . S
C1460 O1472 1.242 . S
C1460 O1473 1.258 . S
C1461 C1457 1.503 . S
C1461 C1462 1.379 . S
C1461 C1466 1.392 1_554 S
C1462 C1461 1.379 . S
C1462 C1463 1.404 . S
C1462 H1476 0.929 . S
C1463 C1462 1.404 . S
C1463 C1464 1.389 1_554 S
C1464 C1463 1.389 1_556 S
C1464 C1465 1.399 . S
C1464 H1477 0.931 . S
C1465 C1464 1.399 . S
C1465 C1466 1.390 . S
C1466 C1461 1.392 1_556 S
C1466 C1465 1.390 . S
C1466 H1478 0.929 . S
O1467 Tb1451 2.316 1_455 S
O1467 C1455 1.242 . S
O1468 Eu1452 2.324 . S
O1468 C1455 1.258 . S
O1469 Tb1451 2.486 1_455 S
O1469 C1471 1.273 . S
O1470 Tb1451 2.440 1_455 S
O1470 C1471 1.257 . S
C1471 O1469 1.273 . S
C1471 O1470 1.257 . S
O1472 Eu1452 2.326 . S
O1472 C1460 1.242 . S
O1473 Tb1451 2.308 1_455 S
O1473 C1460 1.258 . S
O1474 Eu1452 2.500 . S
O1474 C1457 1.273 1_455 S
O1475 Eu1452 2.473 1_655 S
O1475 C1457 1.257 . S
H1476 C1462 0.929 . S
H1477 C1464 0.931 . S
H1478 C1466 0.929 . S
O1479 Tb1480 2.292 . S
O1479 C1482 1.255 . S
Tb1480 O1479 2.292 . S
Tb1480 O1496 2.326 . S
Tb1480 O1498 2.500 . S
Tb1480 O1499 2.473 . S
Tb1480 O1502 2.324 . S
Eu1481 O1485 2.292 . S
Eu1481 C1486 2.852 . S
Eu1481 O1497 2.324 . S
Eu1481 O1501 2.326 . S
Eu1481 O1503 2.500 . S
Eu1481 O1504 2.473 . S
C1482 O1479 1.255 . S
C1482 O1483 1.247 . S
O1483 C1482 1.247 . S
C1484 O1496 1.242 . S
C1484 O1497 1.258 . S
O1485 Eu1481 2.292 . S
O1485 C1487 1.255 . S
C1486 Eu1481 2.852 . S
C1486 C1490 1.503 . S
C1486 O1503 1.273 . S
C1486 O1504 1.257 . S
C1487 O1485 1.255 . S
C1487 O1488 1.247 . S
O1488 C1487 1.247 . S
C1489 O1501 1.242 . S
C1489 O1502 1.258 . S
C1490 C1486 1.503 . S
C1490 C1491 1.379 . S
C1490 C1495 1.392 . S
C1491 C1490 1.379 . S
C1491 C1492 1.404 . S
C1491 H1505 0.929 . S
C1492 C1491 1.404 . S
C1492 C1493 1.389 . S
C1493 C1492 1.389 . S
C1493 C1494 1.399 . S
C1493 H1506 0.931 . S
C1494 C1493 1.399 . S
C1494 C1495 1.390 . S
C1495 C1490 1.392 . S
C1495 C1494 1.390 . S
C1495 H1507 0.929 . S
O1496 Tb1480 2.326 . S
O1496 C1484 1.242 . S
O1497 Eu1481 2.324 . S
O1497 C1484 1.258 . S
O1498 Tb1480 2.500 . S
O1498 C1500 1.273 . S
O1499 Tb1480 2.473 . S
O1499 C1500 1.257 . S
C1500 O1498 1.273 . S
C1500 O1499 1.257 . S
O1501 Eu1481 2.326 . S
O1501 C1489 1.242 . S
O1502 Tb1480 2.324 . S
O1502 C1489 1.258 . S
O1503 Eu1481 2.500 . S
O1503 C1486 1.273 . S
O1504 Eu1481 2.473 . S
O1504 C1486 1.257 . S
H1505 C1491 0.929 . S
H1506 C1493 0.931 . S
H1507 C1495 0.929 . S
O1508 Tb1509 2.292 . S
O1508 C1511 1.255 . S
Tb1509 O1508 2.292 . S
Tb1509 O1525 2.326 . S
Tb1509 O1527 2.500 . S
Tb1509 O1528 2.473 . S
Tb1509 O1531 2.324 . S
Eu1510 O1514 2.292 . S
Eu1510 C1515 2.852 . S
Eu1510 O1526 2.324 . S
Eu1510 O1530 2.326 . S
Eu1510 O1532 2.500 . S
Eu1510 O1533 2.473 . S
C1511 O1508 1.255 . S
C1511 O1512 1.247 . S
O1512 C1511 1.247 . S
C1513 O1525 1.242 . S
C1513 O1526 1.258 . S
O1514 Eu1510 2.292 . S
O1514 C1516 1.255 . S
C1515 Eu1510 2.852 . S
C1515 C1519 1.503 . S
C1515 O1532 1.273 . S
C1515 O1533 1.257 . S
C1516 O1514 1.255 . S
C1516 O1517 1.247 . S
O1517 C1516 1.247 . S
C1518 O1530 1.242 . S
C1518 O1531 1.258 . S
C1519 C1515 1.503 . S
C1519 C1520 1.379 . S
C1519 C1524 1.392 1_556 S
C1520 C1519 1.379 . S
C1520 C1521 1.404 . S
C1520 H1534 0.929 . S
C1521 C1520 1.404 . S
C1521 C1522 1.389 1_556 S
C1522 C1521 1.389 1_554 S
C1522 C1523 1.399 . S
C1522 H1535 0.931 . S
C1523 C1522 1.399 . S
C1523 C1524 1.390 . S
C1524 C1519 1.392 1_554 S
C1524 C1523 1.390 . S
C1524 H1536 0.929 . S
O1525 Tb1509 2.326 . S
O1525 C1513 1.242 . S
O1526 Eu1510 2.324 . S
O1526 C1513 1.258 . S
O1527 Tb1509 2.500 . S
O1527 C1529 1.273 . S
O1528 Tb1509 2.473 . S
O1528 C1529 1.257 . S
C1529 O1527 1.273 . S
C1529 O1528 1.257 . S
O1530 Eu1510 2.326 . S
O1530 C1518 1.242 . S
O1531 Tb1509 2.324 . S
O1531 C1518 1.258 . S
O1532 Eu1510 2.500 . S
O1532 C1515 1.273 . S
O1533 Eu1510 2.473 . S
O1533 C1515 1.257 . S
H1534 C1520 0.929 . S
H1535 C1522 0.931 . S
H1536 C1524 0.929 . S
O1537 Tb1538 2.292 . S
O1537 C1540 1.255 . S
Tb1538 O1537 2.292 . S
Tb1538 O1554 2.326 . S
Tb1538 O1556 2.500 . S
Tb1538 O1557 2.473 . S
Tb1538 O1560 2.324 . S
Eu1539 O1543 2.292 . S
Eu1539 C1544 2.852 . S
Eu1539 O1555 2.324 . S
Eu1539 O1559 2.326 . S
Eu1539 O1561 2.500 . S
Eu1539 O1562 2.473 . S
C1540 O1537 1.255 . S
C1540 O1541 1.247 . S
O1541 C1540 1.247 . S
C1542 O1554 1.242 . S
C1542 O1555 1.258 . S
O1543 Eu1539 2.292 . S
O1543 C1545 1.255 . S
C1544 Eu1539 2.852 . S
C1544 C1548 1.503 . S
C1544 O1561 1.273 . S
C1544 O1562 1.257 . S
C1545 O1543 1.255 . S
C1545 O1546 1.247 . S
O1546 C1545 1.247 . S
C1547 O1559 1.242 . S
C1547 O1560 1.258 . S
C1548 C1544 1.503 . S
C1548 C1549 1.379 . S
C1548 C1553 1.392 . S
C1549 C1548 1.379 . S
C1549 C1550 1.404 . S
C1549 H1563 0.929 . S
C1550 C1549 1.404 . S
C1550 C1551 1.389 . S
C1551 C1550 1.389 . S
C1551 C1552 1.399 . S
C1551 H1564 0.931 . S
C1552 C1551 1.399 . S
C1552 C1553 1.390 . S
C1553 C1548 1.392 . S
C1553 C1552 1.390 . S
C1553 H1565 0.929 . S
O1554 Tb1538 2.326 . S
O1554 C1542 1.242 . S
O1555 Eu1539 2.324 . S
O1555 C1542 1.258 . S
O1556 Tb1538 2.500 . S
O1556 C1558 1.273 . S
O1557 Tb1538 2.473 . S
O1557 C1558 1.257 . S
C1558 O1556 1.273 . S
C1558 O1557 1.257 . S
O1559 Eu1539 2.326 . S
O1559 C1547 1.242 . S
O1560 Tb1538 2.324 . S
O1560 C1547 1.258 . S
O1561 Eu1539 2.500 . S
O1561 C1544 1.273 . S
O1562 Eu1539 2.473 . S
O1562 C1544 1.257 . S
H1563 C1549 0.929 . S
H1564 C1551 0.931 . S
H1565 C1553 0.929 . S
O1566 Tb1567 2.292 . S
O1566 C1569 1.255 . S
Tb1567 O1566 2.292 . S
Tb1567 O1583 2.326 1_655 S
Tb1567 O1585 2.500 1_655 S
Tb1567 O1586 2.473 1_655 S
Tb1567 O1589 2.324 1_655 S
Eu1568 O1572 2.292 . S
Eu1568 C1573 2.852 1_455 S
Eu1568 O1584 2.324 . S
Eu1568 O1588 2.326 . S
Eu1568 O1590 2.500 . S
Eu1568 O1591 2.473 1_455 S
C1569 O1566 1.255 . S
C1569 O1570 1.247 . S
O1570 C1569 1.247 . S
C1571 O1583 1.242 . S
C1571 O1584 1.258 . S
O1572 Eu1568 2.292 . S
O1572 C1574 1.255 . S
C1573 Eu1568 2.852 1_655 S
C1573 C1577 1.503 . S
C1573 O1590 1.273 1_655 S
C1573 O1591 1.257 . S
C1574 O1572 1.255 . S
C1574 O1575 1.247 . S
O1575 C1574 1.247 . S
C1576 O1588 1.242 . S
C1576 O1589 1.258 . S
C1577 C1573 1.503 . S
C1577 C1578 1.379 . S
C1577 C1582 1.392 . S
C1578 C1577 1.379 . S
C1578 C1579 1.404 . S
C1578 H1592 0.929 . S
C1579 C1578 1.404 . S
C1579 C1580 1.389 . S
C1580 C1579 1.389 . S
C1580 C1581 1.399 . S
C1580 H1593 0.931 . S
C1581 C1580 1.399 . S
C1581 C1582 1.390 . S
C1582 C1577 1.392 . S
C1582 C1581 1.390 . S
C1582 H1594 0.929 . S
O1583 Tb1567 2.326 1_455 S
O1583 C1571 1.242 . S
O1584 Eu1568 2.324 . S
O1584 C1571 1.258 . S
O1585 Tb1567 2.500 1_455 S
O1585 C1587 1.273 . S
O1586 Tb1567 2.473 1_455 S
O1586 C1587 1.257 . S
C1587 O1585 1.273 . S
C1587 O1586 1.257 . S
O1588 Eu1568 2.326 . S
O1588 C1576 1.242 . S
O1589 Tb1567 2.324 1_455 S
O1589 C1576 1.258 . S
O1590 Eu1568 2.500 . S
O1590 C1573 1.273 1_455 S
O1591 Eu1568 2.473 1_655 S
O1591 C1573 1.257 . S
H1592 C1578 0.929 . S
H1593 C1580 0.931 . S
H1594 C1582 0.929 . S
O1595 Tb1596 2.292 . S
O1595 C1598 1.255 . S
Tb1596 O1595 2.292 . S
Tb1596 O1612 2.326 . S
Tb1596 O1614 2.500 . S
Tb1596 O1615 2.473 . S
Tb1596 O1618 2.324 . S
Eu1597 O1601 2.292 . S
Eu1597 C1602 2.852 . S
Eu1597 O1613 2.324 . S
Eu1597 O1617 2.326 . S
Eu1597 O1619 2.500 . S
Eu1597 O1620 2.473 . S
C1598 O1595 1.255 . S
C1598 O1599 1.247 . S
O1599 C1598 1.247 . S
C1600 O1612 1.242 . S
C1600 O1613 1.258 . S
O1601 Eu1597 2.292 . S
O1601 C1603 1.255 . S
C1602 Eu1597 2.852 . S
C1602 C1606 1.503 . S
C1602 O1619 1.273 . S
C1602 O1620 1.257 . S
C1603 O1601 1.255 . S
C1603 O1604 1.247 . S
O1604 C1603 1.247 . S
C1605 O1617 1.242 . S
C1605 O1618 1.258 . S
C1606 C1602 1.503 . S
C1606 C1607 1.379 . S
C1606 C1611 1.392 . S
C1607 C1606 1.379 . S
C1607 C1608 1.404 . S
C1607 H1621 0.929 . S
C1608 C1607 1.404 . S
C1608 C1609 1.389 . S
C1609 C1608 1.389 . S
C1609 C1610 1.399 . S
C1609 H1622 0.931 . S
C1610 C1609 1.399 . S
C1610 C1611 1.390 . S
C1611 C1606 1.392 . S
C1611 C1610 1.390 . S
C1611 H1623 0.929 . S
O1612 Tb1596 2.326 . S
O1612 C1600 1.242 . S
O1613 Eu1597 2.324 . S
O1613 C1600 1.258 . S
O1614 Tb1596 2.500 . S
O1614 C1616 1.273 . S
O1615 Tb1596 2.473 . S
O1615 C1616 1.257 . S
C1616 O1614 1.273 . S
C1616 O1615 1.257 . S
O1617 Eu1597 2.326 . S
O1617 C1605 1.242 . S
O1618 Tb1596 2.324 . S
O1618 C1605 1.258 . S
O1619 Eu1597 2.500 . S
O1619 C1602 1.273 . S
O1620 Eu1597 2.473 . S
O1620 C1602 1.257 . S
H1621 C1607 0.929 . S
H1622 C1609 0.931 . S
H1623 C1611 0.929 . S
O1624 Tb1625 2.292 . S
O1624 C1627 1.255 . S
Tb1625 O1624 2.292 . S
Tb1625 O1641 2.326 . S
Tb1625 O1643 2.500 . S
Tb1625 O1644 2.473 . S
Tb1625 O1647 2.324 . S
Eu1626 O1630 2.292 . S
Eu1626 C1631 2.852 . S
Eu1626 O1642 2.324 . S
Eu1626 O1646 2.326 . S
Eu1626 O1648 2.500 . S
Eu1626 O1649 2.473 . S
C1627 O1624 1.255 . S
C1627 O1628 1.247 . S
O1628 C1627 1.247 . S
C1629 O1641 1.242 . S
C1629 O1642 1.258 . S
O1630 Eu1626 2.292 . S
O1630 C1632 1.255 . S
C1631 Eu1626 2.852 . S
C1631 C1635 1.503 . S
C1631 O1648 1.273 . S
C1631 O1649 1.257 . S
C1632 O1630 1.255 . S
C1632 O1633 1.247 . S
O1633 C1632 1.247 . S
C1634 O1646 1.242 . S
C1634 O1647 1.258 . S
C1635 C1631 1.503 . S
C1635 C1636 1.379 . S
C1635 C1640 1.392 . S
C1636 C1635 1.379 . S
C1636 C1637 1.404 . S
C1636 H1650 0.929 . S
C1637 C1636 1.404 . S
C1637 C1638 1.389 . S
C1638 C1637 1.389 . S
C1638 C1639 1.399 . S
C1638 H1651 0.931 . S
C1639 C1638 1.399 . S
C1639 C1640 1.390 . S
C1640 C1635 1.392 . S
C1640 C1639 1.390 . S
C1640 H1652 0.929 . S
O1641 Tb1625 2.326 . S
O1641 C1629 1.242 . S
O1642 Eu1626 2.324 . S
O1642 C1629 1.258 . S
O1643 Tb1625 2.500 . S
O1643 C1645 1.273 . S
O1644 Tb1625 2.473 . S
O1644 C1645 1.257 . S
C1645 O1643 1.273 . S
C1645 O1644 1.257 . S
O1646 Eu1626 2.326 . S
O1646 C1634 1.242 . S
O1647 Tb1625 2.324 . S
O1647 C1634 1.258 . S
O1648 Eu1626 2.500 . S
O1648 C1631 1.273 . S
O1649 Eu1626 2.473 . S
O1649 C1631 1.257 . S
H1650 C1636 0.929 . S
H1651 C1638 0.931 . S
H1652 C1640 0.929 . S
O1653 Tb1654 2.292 . S
O1653 C1656 1.255 . S
Tb1654 O1653 2.292 . S
Tb1654 O1670 2.326 . S
Tb1654 O1672 2.500 . S
Tb1654 O1673 2.473 . S
Tb1654 O1676 2.324 . S
Eu1655 O1659 2.292 . S
Eu1655 C1660 2.852 . S
Eu1655 O1671 2.324 . S
Eu1655 O1675 2.326 . S
Eu1655 O1677 2.500 . S
Eu1655 O1678 2.473 . S
C1656 O1653 1.255 . S
C1656 O1657 1.247 . S
O1657 C1656 1.247 . S
C1658 O1670 1.242 . S
C1658 O1671 1.258 . S
O1659 Eu1655 2.292 . S
O1659 C1661 1.255 . S
C1660 Eu1655 2.852 . S
C1660 C1664 1.503 . S
C1660 O1677 1.273 . S
C1660 O1678 1.257 . S
C1661 O1659 1.255 . S
C1661 O1662 1.247 . S
O1662 C1661 1.247 . S
C1663 O1675 1.242 . S
C1663 O1676 1.258 . S
C1664 C1660 1.503 . S
C1664 C1665 1.379 . S
C1664 C1669 1.392 . S
C1665 C1664 1.379 . S
C1665 C1666 1.404 . S
C1665 H1679 0.929 . S
C1666 C1665 1.404 . S
C1666 C1667 1.389 . S
C1667 C1666 1.389 . S
C1667 C1668 1.399 . S
C1667 H1680 0.931 . S
C1668 C1667 1.399 . S
C1668 C1669 1.390 . S
C1669 C1664 1.392 . S
C1669 C1668 1.390 . S
C1669 H1681 0.929 . S
O1670 Tb1654 2.326 . S
O1670 C1658 1.242 . S
O1671 Eu1655 2.324 . S
O1671 C1658 1.258 . S
O1672 Tb1654 2.500 . S
O1672 C1674 1.273 . S
O1673 Tb1654 2.473 . S
O1673 C1674 1.257 . S
C1674 O1672 1.273 . S
C1674 O1673 1.257 . S
O1675 Eu1655 2.326 . S
O1675 C1663 1.242 . S
O1676 Tb1654 2.324 . S
O1676 C1663 1.258 . S
O1677 Eu1655 2.500 . S
O1677 C1660 1.273 . S
O1678 Eu1655 2.473 . S
O1678 C1660 1.257 . S
H1679 C1665 0.929 . S
H1680 C1667 0.931 . S
H1681 C1669 0.929 . S
O1682 Tb1683 2.292 . S
O1682 C1685 1.255 . S
Tb1683 O1682 2.292 . S
Tb1683 O1699 2.326 . S
Tb1683 O1701 2.500 . S
Tb1683 O1702 2.473 . S
Tb1683 O1705 2.324 . S
Eu1684 O1688 2.292 . S
Eu1684 C1689 2.852 . S
Eu1684 O1700 2.324 . S
Eu1684 O1704 2.326 . S
Eu1684 O1706 2.500 . S
Eu1684 O1707 2.473 . S
C1685 O1682 1.255 . S
C1685 O1686 1.247 . S
O1686 C1685 1.247 . S
C1687 O1699 1.242 . S
C1687 O1700 1.258 . S
O1688 Eu1684 2.292 . S
O1688 C1690 1.255 . S
C1689 Eu1684 2.852 . S
C1689 C1693 1.503 . S
C1689 O1706 1.273 . S
C1689 O1707 1.257 . S
C1690 O1688 1.255 . S
C1690 O1691 1.247 . S
O1691 C1690 1.247 . S
C1692 O1704 1.242 . S
C1692 O1705 1.258 . S
C1693 C1689 1.503 . S
C1693 C1694 1.379 . S
C1693 C1698 1.392 1_655 S
C1694 C1693 1.379 . S
C1694 C1695 1.404 . S
C1694 H1708 0.929 . S
C1695 C1694 1.404 . S
C1695 C1696 1.389 1_655 S
C1696 C1695 1.389 1_455 S
C1696 C1697 1.399 . S
C1696 H1709 0.931 . S
C1697 C1696 1.399 . S
C1697 C1698 1.390 . S
C1698 C1693 1.392 1_455 S
C1698 C1697 1.390 . S
C1698 H1710 0.929 . S
O1699 Tb1683 2.326 . S
O1699 C1687 1.242 . S
O1700 Eu1684 2.324 . S
O1700 C1687 1.258 . S
O1701 Tb1683 2.500 . S
O1701 C1703 1.273 . S
O1702 Tb1683 2.473 . S
O1702 C1703 1.257 . S
C1703 O1701 1.273 . S
C1703 O1702 1.257 . S
O1704 Eu1684 2.326 . S
O1704 C1692 1.242 . S
O1705 Tb1683 2.324 . S
O1705 C1692 1.258 . S
O1706 Eu1684 2.500 . S
O1706 C1689 1.273 . S
O1707 Eu1684 2.473 . S
O1707 C1689 1.257 . S
H1708 C1694 0.929 . S
H1709 C1696 0.931 . S
H1710 C1698 0.929 . S
O1711 Tb1712 2.292 . S
O1711 C1714 1.255 . S
Tb1712 O1711 2.292 . S
Tb1712 O1728 2.326 . S
Tb1712 O1730 2.500 . S
Tb1712 O1731 2.473 . S
Tb1712 O1734 2.324 . S
Eu1713 O1717 2.292 . S
Eu1713 C1718 2.852 . S
Eu1713 O1729 2.324 . S
Eu1713 O1733 2.326 . S
Eu1713 O1735 2.500 . S
Eu1713 O1736 2.473 . S
C1714 O1711 1.255 . S
C1714 O1715 1.247 . S
O1715 C1714 1.247 . S
C1716 O1728 1.242 . S
C1716 O1729 1.258 . S
O1717 Eu1713 2.292 . S
O1717 C1719 1.255 . S
C1718 Eu1713 2.852 . S
C1718 C1722 1.503 . S
C1718 O1735 1.273 . S
C1718 O1736 1.257 . S
C1719 O1717 1.255 . S
C1719 O1720 1.247 . S
O1720 C1719 1.247 . S
C1721 O1733 1.242 . S
C1721 O1734 1.258 . S
C1722 C1718 1.503 . S
C1722 C1723 1.379 . S
C1722 C1727 1.392 . S
C1723 C1722 1.379 . S
C1723 C1724 1.404 . S
C1723 H1737 0.929 . S
C1724 C1723 1.404 . S
C1724 C1725 1.389 . S
C1725 C1724 1.389 . S
C1725 C1726 1.399 . S
C1725 H1738 0.931 . S
C1726 C1725 1.399 . S
C1726 C1727 1.390 . S
C1727 C1722 1.392 . S
C1727 C1726 1.390 . S
C1727 H1739 0.929 . S
O1728 Tb1712 2.326 . S
O1728 C1716 1.242 . S
O1729 Eu1713 2.324 . S
O1729 C1716 1.258 . S
O1730 Tb1712 2.500 . S
O1730 C1732 1.273 . S
O1731 Tb1712 2.473 . S
O1731 C1732 1.257 . S
C1732 O1730 1.273 . S
C1732 O1731 1.257 . S
O1733 Eu1713 2.326 . S
O1733 C1721 1.242 . S
O1734 Tb1712 2.324 . S
O1734 C1721 1.258 . S
O1735 Eu1713 2.500 . S
O1735 C1718 1.273 . S
O1736 Eu1713 2.473 . S
O1736 C1718 1.257 . S
H1737 C1723 0.929 . S
H1738 C1725 0.931 . S
H1739 C1727 0.929 . S
O1740 Tb1741 2.292 . S
O1740 C1743 1.255 . S
Tb1741 O1740 2.292 . S
Tb1741 O1757 2.326 . S
Tb1741 O1759 2.500 . S
Tb1741 O1760 2.473 . S
Tb1741 O1763 2.324 . S
Eu1742 O1746 2.292 . S
Eu1742 C1747 2.852 . S
Eu1742 O1758 2.324 . S
Eu1742 O1762 2.326 . S
Eu1742 O1764 2.500 . S
Eu1742 O1765 2.473 . S
C1743 O1740 1.255 . S
C1743 O1744 1.247 . S
O1744 C1743 1.247 . S
C1745 O1757 1.242 . S
C1745 O1758 1.258 . S
O1746 Eu1742 2.292 . S
O1746 C1748 1.255 . S
C1747 Eu1742 2.852 . S
C1747 C1751 1.503 . S
C1747 O1764 1.273 . S
C1747 O1765 1.257 . S
C1748 O1746 1.255 . S
C1748 O1749 1.247 . S
O1749 C1748 1.247 . S
C1750 O1762 1.242 . S
C1750 O1763 1.258 . S
C1751 C1747 1.503 . S
C1751 C1752 1.379 . S
C1751 C1756 1.392 . S
C1752 C1751 1.379 . S
C1752 C1753 1.404 . S
C1752 H1766 0.929 . S
C1753 C1752 1.404 . S
C1753 C1754 1.389 . S
C1754 C1753 1.389 . S
C1754 C1755 1.399 . S
C1754 H1767 0.931 . S
C1755 C1754 1.399 . S
C1755 C1756 1.390 . S
C1756 C1751 1.392 . S
C1756 C1755 1.390 . S
C1756 H1768 0.929 . S
O1757 Tb1741 2.326 . S
O1757 C1745 1.242 . S
O1758 Eu1742 2.324 . S
O1758 C1745 1.258 . S
O1759 Tb1741 2.500 . S
O1759 C1761 1.273 . S
O1760 Tb1741 2.473 . S
O1760 C1761 1.257 . S
C1761 O1759 1.273 . S
C1761 O1760 1.257 . S
O1762 Eu1742 2.326 . S
O1762 C1750 1.242 . S
O1763 Tb1741 2.324 . S
O1763 C1750 1.258 . S
O1764 Eu1742 2.500 . S
O1764 C1747 1.273 . S
O1765 Eu1742 2.473 . S
O1765 C1747 1.257 . S
H1766 C1752 0.929 . S
H1767 C1754 0.931 . S
H1768 C1756 0.929 . S
O1769 Tb1770 2.292 . S
O1769 C1772 1.255 . S
Tb1770 O1769 2.292 . S
Tb1770 O1786 2.326 . S
Tb1770 O1788 2.500 . S
Tb1770 O1789 2.473 . S
Tb1770 O1792 2.324 . S
Eu1771 O1775 2.292 . S
Eu1771 C1776 2.852 . S
Eu1771 O1787 2.324 . S
Eu1771 O1791 2.326 . S
Eu1771 O1793 2.500 . S
Eu1771 O1794 2.473 . S
C1772 O1769 1.255 . S
C1772 O1773 1.247 . S
O1773 C1772 1.247 . S
C1774 O1786 1.242 . S
C1774 O1787 1.258 . S
O1775 Eu1771 2.292 . S
O1775 C1777 1.255 . S
C1776 Eu1771 2.852 . S
C1776 C1780 1.503 . S
C1776 O1793 1.273 . S
C1776 O1794 1.257 . S
C1777 O1775 1.255 . S
C1777 O1778 1.247 . S
O1778 C1777 1.247 . S
C1779 O1791 1.242 . S
C1779 O1792 1.258 . S
C1780 C1776 1.503 . S
C1780 C1781 1.379 . S
C1780 C1785 1.392 . S
C1781 C1780 1.379 . S
C1781 C1782 1.404 . S
C1781 H1795 0.929 . S
C1782 C1781 1.404 . S
C1782 C1783 1.389 . S
C1783 C1782 1.389 . S
C1783 C1784 1.399 . S
C1783 H1796 0.931 . S
C1784 C1783 1.399 . S
C1784 C1785 1.390 . S
C1785 C1780 1.392 . S
C1785 C1784 1.390 . S
C1785 H1797 0.929 . S
O1786 Tb1770 2.326 . S
O1786 C1774 1.242 . S
O1787 Eu1771 2.324 . S
O1787 C1774 1.258 . S
O1788 Tb1770 2.500 . S
O1788 C1790 1.273 . S
O1789 Tb1770 2.473 . S
O1789 C1790 1.257 . S
C1790 O1788 1.273 . S
C1790 O1789 1.257 . S
O1791 Eu1771 2.326 . S
O1791 C1779 1.242 . S
O1792 Tb1770 2.324 . S
O1792 C1779 1.258 . S
O1793 Eu1771 2.500 . S
O1793 C1776 1.273 . S
O1794 Eu1771 2.473 . S
O1794 C1776 1.257 . S
H1795 C1781 0.929 . S
H1796 C1783 0.931 . S
H1797 C1785 0.929 . S
O1798 Tb1799 2.292 . S
O1798 C1801 1.255 . S
Tb1799 O1798 2.292 . S
Tb1799 O1815 2.326 . S
Tb1799 O1817 2.500 . S
Tb1799 O1818 2.473 . S
Tb1799 O1821 2.324 . S
Eu1800 O1804 2.292 . S
Eu1800 C1805 2.852 . S
Eu1800 O1816 2.324 . S
Eu1800 O1820 2.326 . S
Eu1800 O1822 2.500 . S
Eu1800 O1823 2.473 . S
C1801 O1798 1.255 . S
C1801 O1802 1.247 . S
O1802 C1801 1.247 . S
C1803 O1815 1.242 . S
C1803 O1816 1.258 . S
O1804 Eu1800 2.292 . S
O1804 C1806 1.255 . S
C1805 Eu1800 2.852 . S
C1805 C1809 1.503 . S
C1805 O1822 1.273 . S
C1805 O1823 1.257 . S
C1806 O1804 1.255 . S
C1806 O1807 1.247 . S
O1807 C1806 1.247 . S
C1808 O1820 1.242 . S
C1808 O1821 1.258 . S
C1809 C1805 1.503 . S
C1809 C1810 1.379 . S
C1809 C1814 1.392 1_655 S
C1810 C1809 1.379 . S
C1810 C1811 1.404 . S
C1810 H1824 0.929 . S
C1811 C1810 1.404 . S
C1811 C1812 1.389 1_655 S
C1812 C1811 1.389 1_455 S
C1812 C1813 1.399 . S
C1812 H1825 0.931 . S
C1813 C1812 1.399 . S
C1813 C1814 1.390 . S
C1814 C1809 1.392 1_455 S
C1814 C1813 1.390 . S
C1814 H1826 0.929 . S
O1815 Tb1799 2.326 . S
O1815 C1803 1.242 . S
O1816 Eu1800 2.324 . S
O1816 C1803 1.258 . S
O1817 Tb1799 2.500 . S
O1817 C1819 1.273 . S
O1818 Tb1799 2.473 . S
O1818 C1819 1.257 . S
C1819 O1817 1.273 . S
C1819 O1818 1.257 . S
O1820 Eu1800 2.326 . S
O1820 C1808 1.242 . S
O1821 Tb1799 2.324 . S
O1821 C1808 1.258 . S
O1822 Eu1800 2.500 . S
O1822 C1805 1.273 . S
O1823 Eu1800 2.473 . S
O1823 C1805 1.257 . S
H1824 C1810 0.929 . S
H1825 C1812 0.931 . S
H1826 C1814 0.929 . S
O1827 Tb1828 2.292 . S
O1827 C1830 1.255 . S
Tb1828 O1827 2.292 . S
Tb1828 O1844 2.326 . S
Tb1828 O1846 2.500 . S
Tb1828 O1847 2.473 . S
Tb1828 O1850 2.324 . S
Eu1829 O1833 2.292 . S
Eu1829 C1834 2.852 . S
Eu1829 O1845 2.324 . S
Eu1829 O1849 2.326 . S
Eu1829 O1851 2.500 . S
Eu1829 O1852 2.473 . S
C1830 O1827 1.255 . S
C1830 O1831 1.247 . S
O1831 C1830 1.247 . S
C1832 O1844 1.242 . S
C1832 O1845 1.258 . S
O1833 Eu1829 2.292 . S
O1833 C1835 1.255 . S
C1834 Eu1829 2.852 . S
C1834 C1838 1.503 . S
C1834 O1851 1.273 . S
C1834 O1852 1.257 . S
C1835 O1833 1.255 . S
C1835 O1836 1.247 . S
O1836 C1835 1.247 . S
C1837 O1849 1.242 . S
C1837 O1850 1.258 . S
C1838 C1834 1.503 . S
C1838 C1839 1.379 . S
C1838 C1843 1.392 . S
C1839 C1838 1.379 . S
C1839 C1840 1.404 . S
C1839 H1853 0.929 . S
C1840 C1839 1.404 . S
C1840 C1841 1.389 . S
C1841 C1840 1.389 . S
C1841 C1842 1.399 . S
C1841 H1854 0.931 . S
C1842 C1841 1.399 . S
C1842 C1843 1.390 . S
C1843 C1838 1.392 . S
C1843 C1842 1.390 . S
C1843 H1855 0.929 . S
O1844 Tb1828 2.326 . S
O1844 C1832 1.242 . S
O1845 Eu1829 2.324 . S
O1845 C1832 1.258 . S
O1846 Tb1828 2.500 . S
O1846 C1848 1.273 . S
O1847 Tb1828 2.473 . S
O1847 C1848 1.257 . S
C1848 O1846 1.273 . S
C1848 O1847 1.257 . S
O1849 Eu1829 2.326 . S
O1849 C1837 1.242 . S
O1850 Tb1828 2.324 . S
O1850 C1837 1.258 . S
O1851 Eu1829 2.500 . S
O1851 C1834 1.273 . S
O1852 Eu1829 2.473 . S
O1852 C1834 1.257 . S
H1853 C1839 0.929 . S
H1854 C1841 0.931 . S
H1855 C1843 0.929 . S
O1856 Tb1857 2.292 . S
O1856 C1859 1.255 . S
Tb1857 O1856 2.292 . S
Tb1857 O1873 2.326 . S
Tb1857 O1875 2.500 . S
Tb1857 O1876 2.473 . S
Tb1857 O1879 2.324 . S
Eu1858 O1862 2.292 . S
Eu1858 C1863 2.852 . S
Eu1858 O1874 2.324 . S
Eu1858 O1878 2.326 . S
Eu1858 O1880 2.500 . S
Eu1858 O1881 2.473 . S
C1859 O1856 1.255 . S
C1859 O1860 1.247 . S
O1860 C1859 1.247 . S
C1861 O1873 1.242 . S
C1861 O1874 1.258 . S
O1862 Eu1858 2.292 . S
O1862 C1864 1.255 . S
C1863 Eu1858 2.852 . S
C1863 C1867 1.503 . S
C1863 O1880 1.273 . S
C1863 O1881 1.257 . S
C1864 O1862 1.255 . S
C1864 O1865 1.247 . S
O1865 C1864 1.247 . S
C1866 O1878 1.242 . S
C1866 O1879 1.258 . S
C1867 C1863 1.503 . S
C1867 C1868 1.379 . S
C1867 C1872 1.392 . S
C1868 C1867 1.379 . S
C1868 C1869 1.404 . S
C1868 H1882 0.929 . S
C1869 C1868 1.404 . S
C1869 C1870 1.389 . S
C1870 C1869 1.389 . S
C1870 C1871 1.399 . S
C1870 H1883 0.931 . S
C1871 C1870 1.399 . S
C1871 C1872 1.390 . S
C1872 C1867 1.392 . S
C1872 C1871 1.390 . S
C1872 H1884 0.929 . S
O1873 Tb1857 2.326 . S
O1873 C1861 1.242 . S
O1874 Eu1858 2.324 . S
O1874 C1861 1.258 . S
O1875 Tb1857 2.500 . S
O1875 C1877 1.273 . S
O1876 Tb1857 2.473 . S
O1876 C1877 1.257 . S
C1877 O1875 1.273 . S
C1877 O1876 1.257 . S
O1878 Eu1858 2.326 . S
O1878 C1866 1.242 . S
O1879 Tb1857 2.324 . S
O1879 C1866 1.258 . S
O1880 Eu1858 2.500 . S
O1880 C1863 1.273 . S
O1881 Eu1858 2.473 . S
O1881 C1863 1.257 . S
H1882 C1868 0.929 . S
H1883 C1870 0.931 . S
H1884 C1872 0.929 . S
O1885 Tb1886 2.292 . S
O1885 C1888 1.255 . S
Tb1886 O1885 2.292 . S
Tb1886 O1902 2.326 . S
Tb1886 O1904 2.500 . S
Tb1886 O1905 2.473 . S
Tb1886 O1908 2.324 . S
Eu1887 O1891 2.292 . S
Eu1887 C1892 2.852 . S
Eu1887 O1903 2.324 . S
Eu1887 O1907 2.326 . S
Eu1887 O1909 2.500 . S
Eu1887 O1910 2.473 . S
C1888 O1885 1.255 . S
C1888 O1889 1.247 . S
O1889 C1888 1.247 . S
C1890 O1902 1.242 . S
C1890 O1903 1.258 . S
O1891 Eu1887 2.292 . S
O1891 C1893 1.255 . S
C1892 Eu1887 2.852 . S
C1892 C1896 1.503 . S
C1892 O1909 1.273 . S
C1892 O1910 1.257 . S
C1893 O1891 1.255 . S
C1893 O1894 1.247 . S
O1894 C1893 1.247 . S
C1895 O1907 1.242 . S
C1895 O1908 1.258 . S
C1896 C1892 1.503 . S
C1896 C1897 1.379 . S
C1896 C1901 1.392 1_565 S
C1897 C1896 1.379 . S
C1897 C1898 1.404 . S
C1897 H1911 0.929 . S
C1898 C1897 1.404 . S
C1898 C1899 1.389 1_565 S
C1899 C1898 1.389 1_545 S
C1899 C1900 1.399 . S
C1899 H1912 0.931 . S
C1900 C1899 1.399 . S
C1900 C1901 1.390 . S
C1901 C1896 1.392 1_545 S
C1901 C1900 1.390 . S
C1901 H1913 0.929 . S
O1902 Tb1886 2.326 . S
O1902 C1890 1.242 . S
O1903 Eu1887 2.324 . S
O1903 C1890 1.258 . S
O1904 Tb1886 2.500 . S
O1904 C1906 1.273 . S
O1905 Tb1886 2.473 . S
O1905 C1906 1.257 . S
C1906 O1904 1.273 . S
C1906 O1905 1.257 . S
O1907 Eu1887 2.326 . S
O1907 C1895 1.242 . S
O1908 Tb1886 2.324 . S
O1908 C1895 1.258 . S
O1909 Eu1887 2.500 . S
O1909 C1892 1.273 . S
O1910 Eu1887 2.473 . S
O1910 C1892 1.257 . S
H1911 C1897 0.929 . S
H1912 C1899 0.931 . S
H1913 C1901 0.929 . S
O1914 Tb1915 2.292 . S
O1914 C1917 1.255 . S
Tb1915 O1914 2.292 . S
Tb1915 O1931 2.326 . S
Tb1915 O1933 2.500 . S
Tb1915 O1934 2.473 . S
Tb1915 O1937 2.324 . S
Eu1916 O1920 2.292 . S
Eu1916 C1921 2.852 . S
Eu1916 O1932 2.324 . S
Eu1916 O1936 2.326 . S
Eu1916 O1938 2.500 . S
Eu1916 O1939 2.473 . S
C1917 O1914 1.255 . S
C1917 O1918 1.247 . S
O1918 C1917 1.247 . S
C1919 O1931 1.242 . S
C1919 O1932 1.258 . S
O1920 Eu1916 2.292 . S
O1920 C1922 1.255 . S
C1921 Eu1916 2.852 . S
C1921 C1925 1.503 . S
C1921 O1938 1.273 . S
C1921 O1939 1.257 . S
C1922 O1920 1.255 . S
C1922 O1923 1.247 . S
O1923 C1922 1.247 . S
C1924 O1936 1.242 . S
C1924 O1937 1.258 . S
C1925 C1921 1.503 . S
C1925 C1926 1.379 . S
C1925 C1930 1.392 . S
C1926 C1925 1.379 . S
C1926 C1927 1.404 . S
C1926 H1940 0.929 . S
C1927 C1926 1.404 . S
C1927 C1928 1.389 . S
C1928 C1927 1.389 . S
C1928 C1929 1.399 . S
C1928 H1941 0.931 . S
C1929 C1928 1.399 . S
C1929 C1930 1.390 . S
C1930 C1925 1.392 . S
C1930 C1929 1.390 . S
C1930 H1942 0.929 . S
O1931 Tb1915 2.326 . S
O1931 C1919 1.242 . S
O1932 Eu1916 2.324 . S
O1932 C1919 1.258 . S
O1933 Tb1915 2.500 . S
O1933 C1935 1.273 . S
O1934 Tb1915 2.473 . S
O1934 C1935 1.257 . S
C1935 O1933 1.273 . S
C1935 O1934 1.257 . S
O1936 Eu1916 2.326 . S
O1936 C1924 1.242 . S
O1937 Tb1915 2.324 . S
O1937 C1924 1.258 . S
O1938 Eu1916 2.500 . S
O1938 C1921 1.273 . S
O1939 Eu1916 2.473 . S
O1939 C1921 1.257 . S
H1940 C1926 0.929 . S
H1941 C1928 0.931 . S
H1942 C1930 0.929 . S
O1943 Tb1944 2.295 . S
O1943 C1946 1.255 . S
Tb1944 O1943 2.295 . S
Tb1944 O1960 2.325 1_556 S
Tb1944 O1962 2.499 1_556 S
Tb1944 O1963 2.470 1_556 S
Tb1944 O1966 2.323 1_556 S
Eu1945 O1949 2.292 . S
Eu1945 C1950 2.852 1_554 S
Eu1945 O1961 2.324 . S
Eu1945 O1965 2.326 . S
Eu1945 O1967 2.500 . S
Eu1945 O1968 2.473 1_554 S
C1946 O1943 1.255 . S
C1946 O1947 1.247 . S
O1947 C1946 1.247 . S
C1948 O1960 1.242 . S
C1948 O1961 1.258 . S
O1949 Eu1945 2.292 . S
O1949 C1951 1.255 . S
C1950 Eu1945 2.852 1_556 S
C1950 C1954 1.503 . S
C1950 O1967 1.273 1_556 S
C1950 O1968 1.257 . S
C1951 O1949 1.255 . S
C1951 O1952 1.247 . S
O1952 C1951 1.247 . S
C1953 O1965 1.242 . S
C1953 O1966 1.258 . S
C1954 C1950 1.503 . S
C1954 C1955 1.379 . S
C1954 C1959 1.417 . S
C1955 C1954 1.379 . S
C1955 C1956 1.404 . S
C1955 H1969 0.929 . S
C1956 C1955 1.404 . S
C1956 C1957 1.389 . S
C1957 C1956 1.389 . S
C1957 C1958 1.399 1_545 S
C1957 H1970 0.931 . S
C1958 C1957 1.399 1_565 S
C1958 C1959 1.381 1_565 S
C1959 C1954 1.417 . S
C1959 C1958 1.381 1_545 S
C1959 H1971 0.914 1_545 S
O1960 Tb1944 2.325 1_554 S
O1960 C1948 1.242 . S
O1961 Eu1945 2.324 . S
O1961 C1948 1.258 . S
O1962 Tb1944 2.499 1_554 S
O1962 C1964 1.273 . S
O1963 Tb1944 2.470 1_554 S
O1963 C1964 1.257 . S
C1964 O1962 1.273 . S
C1964 O1963 1.257 . S
O1965 Eu1945 2.326 . S
O1965 C1953 1.242 . S
O1966 Tb1944 2.323 1_554 S
O1966 C1953 1.258 . S
O1967 Eu1945 2.500 . S
O1967 C1950 1.273 1_554 S
O1968 Eu1945 2.473 1_556 S
O1968 C1950 1.257 . S
H1969 C1955 0.929 . S
H1970 C1957 0.931 . S
H1971 C1959 0.914 1_565 S
O1972 Tb1973 2.292 . S
O1972 C1975 1.255 . S
Tb1973 O1972 2.292 . S
Tb1973 O1989 2.326 . S
Tb1973 O1991 2.500 . S
Tb1973 O1992 2.473 . S
Tb1973 O1995 2.324 . S
Eu1974 O1978 2.292 . S
Eu1974 C1979 2.852 . S
Eu1974 O1990 2.324 . S
Eu1974 O1994 2.326 . S
Eu1974 O1996 2.500 . S
Eu1974 O1997 2.473 . S
C1975 O1972 1.255 . S
C1975 O1976 1.247 . S
O1976 C1975 1.247 . S
C1977 O1989 1.242 . S
C1977 O1990 1.258 . S
O1978 Eu1974 2.292 . S
O1978 C1980 1.255 . S
C1979 Eu1974 2.852 . S
C1979 C1983 1.503 . S
C1979 O1996 1.273 . S
C1979 O1997 1.257 . S
C1980 O1978 1.255 . S
C1980 O1981 1.247 . S
O1981 C1980 1.247 . S
C1982 O1994 1.242 . S
C1982 O1995 1.258 . S
C1983 C1979 1.503 . S
C1983 C1984 1.379 . S
C1983 C1988 1.392 . S
C1984 C1983 1.379 . S
C1984 C1985 1.404 . S
C1984 H1998 0.929 . S
C1985 C1984 1.404 . S
C1985 C1986 1.389 . S
C1986 C1985 1.389 . S
C1986 C1987 1.399 . S
C1986 H1999 0.931 . S
C1987 C1986 1.399 . S
C1987 C1988 1.390 . S
C1988 C1983 1.392 . S
C1988 C1987 1.390 . S
C1988 H2000 0.929 . S
O1989 Tb1973 2.326 . S
O1989 C1977 1.242 . S
O1990 Eu1974 2.324 . S
O1990 C1977 1.258 . S
O1991 Tb1973 2.500 . S
O1991 C1993 1.273 . S
O1992 Tb1973 2.473 . S
O1992 C1993 1.257 . S
C1993 O1991 1.273 . S
C1993 O1992 1.257 . S
O1994 Eu1974 2.326 . S
O1994 C1982 1.242 . S
O1995 Tb1973 2.324 . S
O1995 C1982 1.258 . S
O1996 Eu1974 2.500 . S
O1996 C1979 1.273 . S
O1997 Eu1974 2.473 . S
O1997 C1979 1.257 . S
H1998 C1984 0.929 . S
H1999 C1986 0.931 . S
H2000 C1988 0.929 . S
O2001 Tb2002 2.292 . S
O2001 C2004 1.255 . S
Tb2002 O2001 2.292 . S
Tb2002 O2018 2.326 1_554 S
Tb2002 O2020 2.500 1_554 S
Tb2002 O2021 2.473 1_554 S
Tb2002 O2024 2.324 1_554 S
Eu2003 O2007 2.292 . S
Eu2003 C2008 2.852 1_556 S
Eu2003 O2019 2.324 . S
Eu2003 O2023 2.326 . S
Eu2003 O2025 2.500 . S
Eu2003 O2026 2.473 1_556 S
C2004 O2001 1.255 . S
C2004 O2005 1.247 . S
O2005 C2004 1.247 . S
C2006 O2018 1.242 . S
C2006 O2019 1.258 . S
O2007 Eu2003 2.292 . S
O2007 C2009 1.255 . S
C2008 Eu2003 2.852 1_554 S
C2008 C2012 1.503 . S
C2008 O2025 1.273 1_554 S
C2008 O2026 1.257 . S
C2009 O2007 1.255 . S
C2009 O2010 1.247 . S
O2010 C2009 1.247 . S
C2011 O2023 1.242 . S
C2011 O2024 1.258 . S
C2012 C2008 1.503 . S
C2012 C2013 1.379 . S
C2012 C2017 1.392 . S
C2013 C2012 1.379 . S
C2013 C2014 1.404 . S
C2013 H2027 0.929 . S
C2014 C2013 1.404 . S
C2014 C2015 1.389 . S
C2015 C2014 1.389 . S
C2015 C2016 1.399 . S
C2015 H2028 0.931 . S
C2016 C2015 1.399 . S
C2016 C2017 1.390 . S
C2017 C2012 1.392 . S
C2017 C2016 1.390 . S
C2017 H2029 0.929 . S
O2018 Tb2002 2.326 1_556 S
O2018 C2006 1.242 . S
O2019 Eu2003 2.324 . S
O2019 C2006 1.258 . S
O2020 Tb2002 2.500 1_556 S
O2020 C2022 1.273 . S
O2021 Tb2002 2.473 1_556 S
O2021 C2022 1.257 . S
C2022 O2020 1.273 . S
C2022 O2021 1.257 . S
O2023 Eu2003 2.326 . S
O2023 C2011 1.242 . S
O2024 Tb2002 2.324 1_556 S
O2024 C2011 1.258 . S
O2025 Eu2003 2.500 . S
O2025 C2008 1.273 1_556 S
O2026 Eu2003 2.473 1_554 S
O2026 C2008 1.257 . S
H2027 C2013 0.929 . S
H2028 C2015 0.931 . S
H2029 C2017 0.929 . S
O2030 Tb2031 2.292 . S
O2030 C2033 1.255 . S
Tb2031 O2030 2.292 . S
Tb2031 O2047 2.326 . S
Tb2031 O2049 2.500 . S
Tb2031 O2050 2.473 . S
Tb2031 O2053 2.324 . S
Eu2032 O2036 2.292 . S
Eu2032 C2037 2.852 . S
Eu2032 O2048 2.324 . S
Eu2032 O2052 2.326 . S
Eu2032 O2054 2.500 . S
Eu2032 O2055 2.473 . S
C2033 O2030 1.255 . S
C2033 O2034 1.247 . S
O2034 C2033 1.247 . S
C2035 O2047 1.242 . S
C2035 O2048 1.258 . S
O2036 Eu2032 2.292 . S
O2036 C2038 1.255 . S
C2037 Eu2032 2.852 . S
C2037 C2041 1.503 . S
C2037 O2054 1.273 . S
C2037 O2055 1.257 . S
C2038 O2036 1.255 . S
C2038 O2039 1.247 . S
O2039 C2038 1.247 . S
C2040 O2052 1.242 . S
C2040 O2053 1.258 . S
C2041 C2037 1.503 . S
C2041 C2042 1.379 . S
C2041 C2046 1.392 . S
C2042 C2041 1.379 . S
C2042 C2043 1.404 . S
C2042 H2056 0.929 . S
C2043 C2042 1.404 . S
C2043 C2044 1.389 . S
C2044 C2043 1.389 . S
C2044 C2045 1.399 . S
C2044 H2057 0.931 . S
C2045 C2044 1.399 . S
C2045 C2046 1.390 . S
C2046 C2041 1.392 . S
C2046 C2045 1.390 . S
C2046 H2058 0.929 . S
O2047 Tb2031 2.326 . S
O2047 C2035 1.242 . S
O2048 Eu2032 2.324 . S
O2048 C2035 1.258 . S
O2049 Tb2031 2.500 . S
O2049 C2051 1.273 . S
O2050 Tb2031 2.473 . S
O2050 C2051 1.257 . S
C2051 O2049 1.273 . S
C2051 O2050 1.257 . S
O2052 Eu2032 2.326 . S
O2052 C2040 1.242 . S
O2053 Tb2031 2.324 . S
O2053 C2040 1.258 . S
O2054 Eu2032 2.500 . S
O2054 C2037 1.273 . S
O2055 Eu2032 2.473 . S
O2055 C2037 1.257 . S
H2056 C2042 0.929 . S
H2057 C2044 0.931 . S
H2058 C2046 0.929 . S
O2059 Tb2060 2.292 . S
O2059 C2062 1.255 . S
Tb2060 O2059 2.292 . S
Tb2060 O2076 2.326 . S
Tb2060 O2078 2.500 . S
Tb2060 O2079 2.473 . S
Tb2060 O2082 2.324 . S
Eu2061 O2065 2.292 . S
Eu2061 C2066 2.852 . S
Eu2061 O2077 2.324 . S
Eu2061 O2081 2.326 . S
Eu2061 O2083 2.500 . S
Eu2061 O2084 2.473 . S
C2062 O2059 1.255 . S
C2062 O2063 1.247 . S
O2063 C2062 1.247 . S
C2064 O2076 1.242 . S
C2064 O2077 1.258 . S
O2065 Eu2061 2.292 . S
O2065 C2067 1.255 . S
C2066 Eu2061 2.852 . S
C2066 C2070 1.503 . S
C2066 O2083 1.273 . S
C2066 O2084 1.257 . S
C2067 O2065 1.255 . S
C2067 O2068 1.247 . S
O2068 C2067 1.247 . S
C2069 O2081 1.242 . S
C2069 O2082 1.258 . S
C2070 C2066 1.503 . S
C2070 C2071 1.379 . S
C2070 C2075 1.392 . S
C2071 C2070 1.379 . S
C2071 C2072 1.404 . S
C2071 H2085 0.929 . S
C2072 C2071 1.404 . S
C2072 C2073 1.389 . S
C2073 C2072 1.389 . S
C2073 C2074 1.399 . S
C2073 H2086 0.931 . S
C2074 C2073 1.399 . S
C2074 C2075 1.390 . S
C2075 C2070 1.392 . S
C2075 C2074 1.390 . S
C2075 H2087 0.929 . S
O2076 Tb2060 2.326 . S
O2076 C2064 1.242 . S
O2077 Eu2061 2.324 . S
O2077 C2064 1.258 . S
O2078 Tb2060 2.500 . S
O2078 C2080 1.273 . S
O2079 Tb2060 2.473 . S
O2079 C2080 1.257 . S
C2080 O2078 1.273 . S
C2080 O2079 1.257 . S
O2081 Eu2061 2.326 . S
O2081 C2069 1.242 . S
O2082 Tb2060 2.324 . S
O2082 C2069 1.258 . S
O2083 Eu2061 2.500 . S
O2083 C2066 1.273 . S
O2084 Eu2061 2.473 . S
O2084 C2066 1.257 . S
H2085 C2071 0.929 . S
H2086 C2073 0.931 . S
H2087 C2075 0.929 . S
O2088 Tb2089 2.292 . S
O2088 C2091 1.255 . S
Tb2089 O2088 2.292 . S
Tb2089 O2105 2.326 . S
Tb2089 O2107 2.500 . S
Tb2089 O2108 2.473 . S
Tb2089 O2111 2.324 . S
Eu2090 O2094 2.292 . S
Eu2090 C2095 2.852 . S
Eu2090 O2106 2.324 . S
Eu2090 O2110 2.326 . S
Eu2090 O2112 2.500 . S
Eu2090 O2113 2.473 . S
C2091 O2088 1.255 . S
C2091 O2092 1.247 . S
O2092 C2091 1.247 . S
C2093 O2105 1.242 . S
C2093 O2106 1.258 . S
O2094 Eu2090 2.292 . S
O2094 C2096 1.255 . S
C2095 Eu2090 2.852 . S
C2095 C2099 1.503 . S
C2095 O2112 1.273 . S
C2095 O2113 1.257 . S
C2096 O2094 1.255 . S
C2096 O2097 1.247 . S
O2097 C2096 1.247 . S
C2098 O2110 1.242 . S
C2098 O2111 1.258 . S
C2099 C2095 1.503 . S
C2099 C2100 1.379 . S
C2099 C2104 1.392 . S
C2100 C2099 1.379 . S
C2100 C2101 1.404 . S
C2100 H2114 0.929 . S
C2101 C2100 1.404 . S
C2101 C2102 1.389 . S
C2102 C2101 1.389 . S
C2102 C2103 1.399 . S
C2102 H2115 0.931 . S
C2103 C2102 1.399 . S
C2103 C2104 1.390 . S
C2104 C2099 1.392 . S
C2104 C2103 1.390 . S
C2104 H2116 0.929 . S
O2105 Tb2089 2.326 . S
O2105 C2093 1.242 . S
O2106 Eu2090 2.324 . S
O2106 C2093 1.258 . S
O2107 Tb2089 2.500 . S
O2107 C2109 1.273 . S
O2108 Tb2089 2.473 . S
O2108 C2109 1.257 . S
C2109 O2107 1.273 . S
C2109 O2108 1.257 . S
O2110 Eu2090 2.326 . S
O2110 C2098 1.242 . S
O2111 Tb2089 2.324 . S
O2111 C2098 1.258 . S
O2112 Eu2090 2.500 . S
O2112 C2095 1.273 . S
O2113 Eu2090 2.473 . S
O2113 C2095 1.257 . S
H2114 C2100 0.929 . S
H2115 C2102 0.931 . S
H2116 C2104 0.929 . S
O2117 Tb2118 2.292 . S
O2117 C2120 1.255 . S
Tb2118 O2117 2.292 . S
Tb2118 O2134 2.326 . S
Tb2118 O2136 2.500 . S
Tb2118 O2137 2.473 . S
Tb2118 O2140 2.324 . S
Eu2119 O2123 2.292 . S
Eu2119 C2124 2.852 . S
Eu2119 O2135 2.324 . S
Eu2119 O2139 2.326 . S
Eu2119 O2141 2.500 . S
Eu2119 O2142 2.473 . S
C2120 O2117 1.255 . S
C2120 O2121 1.247 . S
O2121 C2120 1.247 . S
C2122 O2134 1.242 . S
C2122 O2135 1.258 . S
O2123 Eu2119 2.292 . S
O2123 C2125 1.255 . S
C2124 Eu2119 2.852 . S
C2124 C2128 1.503 . S
C2124 O2141 1.273 . S
C2124 O2142 1.257 . S
C2125 O2123 1.255 . S
C2125 O2126 1.247 . S
O2126 C2125 1.247 . S
C2127 O2139 1.242 . S
C2127 O2140 1.258 . S
C2128 C2124 1.503 . S
C2128 C2129 1.379 . S
C2128 C2133 1.392 . S
C2129 C2128 1.379 . S
C2129 C2130 1.404 . S
C2129 H2143 0.929 . S
C2130 C2129 1.404 . S
C2130 C2131 1.389 . S
C2131 C2130 1.389 . S
C2131 C2132 1.399 . S
C2131 H2144 0.931 . S
C2132 C2131 1.399 . S
C2132 C2133 1.390 . S
C2133 C2128 1.392 . S
C2133 C2132 1.390 . S
C2133 H2145 0.929 . S
O2134 Tb2118 2.326 . S
O2134 C2122 1.242 . S
O2135 Eu2119 2.324 . S
O2135 C2122 1.258 . S
O2136 Tb2118 2.500 . S
O2136 C2138 1.273 . S
O2137 Tb2118 2.473 . S
O2137 C2138 1.257 . S
C2138 O2136 1.273 . S
C2138 O2137 1.257 . S
O2139 Eu2119 2.326 . S
O2139 C2127 1.242 . S
O2140 Tb2118 2.324 . S
O2140 C2127 1.258 . S
O2141 Eu2119 2.500 . S
O2141 C2124 1.273 . S
O2142 Eu2119 2.473 . S
O2142 C2124 1.257 . S
H2143 C2129 0.929 . S
H2144 C2131 0.931 . S
H2145 C2133 0.929 . S
O2146 Tb2147 2.292 . S
O2146 C2149 1.255 . S
Tb2147 O2146 2.292 . S
Tb2147 O2163 2.326 1_455 S
Tb2147 O2165 2.500 1_455 S
Tb2147 O2166 2.473 1_455 S
Tb2147 O2169 2.324 1_455 S
Eu2148 O2152 2.292 . S
Eu2148 C2153 2.852 1_655 S
Eu2148 O2164 2.324 . S
Eu2148 O2168 2.326 . S
Eu2148 O2170 2.500 . S
Eu2148 O2171 2.473 1_655 S
C2149 O2146 1.255 . S
C2149 O2150 1.247 . S
O2150 C2149 1.247 . S
C2151 O2163 1.242 . S
C2151 O2164 1.258 . S
O2152 Eu2148 2.292 . S
O2152 C2154 1.255 . S
C2153 Eu2148 2.852 1_455 S
C2153 C2157 1.503 . S
C2153 O2170 1.273 1_455 S
C2153 O2171 1.257 . S
C2154 O2152 1.255 . S
C2154 O2155 1.247 . S
O2155 C2154 1.247 . S
C2156 O2168 1.242 . S
C2156 O2169 1.258 . S
C2157 C2153 1.503 . S
C2157 C2158 1.379 . S
C2157 C2162 1.379 1_556 S
C2158 C2157 1.379 . S
C2158 C2159 1.404 . S
C2158 H2172 0.929 . S
C2159 C2158 1.404 . S
C2159 C2160 1.389 . S
C2160 C2159 1.389 . S
C2160 C2161 1.399 1_556 S
C2160 H2173 0.931 1_556 S
C2161 C2160 1.399 1_554 S
C2161 C2162 1.395 . S
C2162 C2157 1.379 1_554 S
C2162 C2161 1.395 . S
C2162 H2174 0.936 . S
O2163 Tb2147 2.326 1_655 S
O2163 C2151 1.242 . S
O2164 Eu2148 2.324 . S
O2164 C2151 1.258 . S
O2165 Tb2147 2.500 1_655 S
O2165 C2167 1.273 . S
O2166 Tb2147 2.473 1_655 S
O2166 C2167 1.257 . S
C2167 O2165 1.273 . S
C2167 O2166 1.257 . S
O2168 Eu2148 2.326 . S
O2168 C2156 1.242 . S
O2169 Tb2147 2.324 1_655 S
O2169 C2156 1.258 . S
O2170 Eu2148 2.500 . S
O2170 C2153 1.273 1_655 S
O2171 Eu2148 2.473 1_455 S
O2171 C2153 1.257 . S
H2172 C2158 0.929 . S
H2173 C2160 0.931 1_554 S
H2174 C2162 0.936 . S
O2175 Tb2176 2.292 . S
O2175 C2178 1.255 . S
Tb2176 O2175 2.292 . S
Tb2176 O2192 2.326 . S
Tb2176 O2194 2.500 . S
Tb2176 O2195 2.473 . S
Tb2176 O2198 2.324 . S
Eu2177 O2181 2.292 . S
Eu2177 C2182 2.852 . S
Eu2177 O2193 2.324 . S
Eu2177 O2197 2.326 . S
Eu2177 O2199 2.500 . S
Eu2177 O2200 2.473 . S
C2178 O2175 1.255 . S
C2178 O2179 1.247 . S
O2179 C2178 1.247 . S
C2180 O2192 1.242 . S
C2180 O2193 1.258 . S
O2181 Eu2177 2.292 . S
O2181 C2183 1.255 . S
C2182 Eu2177 2.852 . S
C2182 C2186 1.503 . S
C2182 O2199 1.273 . S
C2182 O2200 1.257 . S
C2183 O2181 1.255 . S
C2183 O2184 1.247 . S
O2184 C2183 1.247 . S
C2185 O2197 1.242 . S
C2185 O2198 1.258 . S
C2186 C2182 1.503 . S
C2186 C2187 1.379 . S
C2186 C2191 1.392 . S
C2187 C2186 1.379 . S
C2187 C2188 1.404 . S
C2187 H2201 0.929 . S
C2188 C2187 1.404 . S
C2188 C2189 1.389 . S
C2189 C2188 1.389 . S
C2189 C2190 1.399 . S
C2189 H2202 0.931 . S
C2190 C2189 1.399 . S
C2190 C2191 1.390 . S
C2191 C2186 1.392 . S
C2191 C2190 1.390 . S
C2191 H2203 0.929 . S
O2192 Tb2176 2.326 . S
O2192 C2180 1.242 . S
O2193 Eu2177 2.324 . S
O2193 C2180 1.258 . S
O2194 Tb2176 2.500 . S
O2194 C2196 1.273 . S
O2195 Tb2176 2.473 . S
O2195 C2196 1.257 . S
C2196 O2194 1.273 . S
C2196 O2195 1.257 . S
O2197 Eu2177 2.326 . S
O2197 C2185 1.242 . S
O2198 Tb2176 2.324 . S
O2198 C2185 1.258 . S
O2199 Eu2177 2.500 . S
O2199 C2182 1.273 . S
O2200 Eu2177 2.473 . S
O2200 C2182 1.257 . S
H2201 C2187 0.929 . S
H2202 C2189 0.931 . S
H2203 C2191 0.929 . S
O2204 Tb2205 2.292 . S
O2204 C2207 1.255 . S
Tb2205 O2204 2.292 . S
Tb2205 O2221 2.326 . S
Tb2205 O2223 2.500 . S
Tb2205 O2224 2.473 . S
Tb2205 O2227 2.324 . S
Eu2206 O2210 2.292 . S
Eu2206 C2211 2.852 . S
Eu2206 O2222 2.324 . S
Eu2206 O2226 2.326 . S
Eu2206 O2228 2.500 . S
Eu2206 O2229 2.473 . S
C2207 O2204 1.255 . S
C2207 O2208 1.247 . S
O2208 C2207 1.247 . S
C2209 O2221 1.242 . S
C2209 O2222 1.258 . S
O2210 Eu2206 2.292 . S
O2210 C2212 1.255 . S
C2211 Eu2206 2.852 . S
C2211 C2215 1.503 . S
C2211 O2228 1.273 . S
C2211 O2229 1.257 . S
C2212 O2210 1.255 . S
C2212 O2213 1.247 . S
O2213 C2212 1.247 . S
C2214 O2226 1.242 . S
C2214 O2227 1.258 . S
C2215 C2211 1.503 . S
C2215 C2216 1.379 . S
C2215 C2220 1.392 1_554 S
C2216 C2215 1.379 . S
C2216 C2217 1.404 . S
C2216 H2230 0.929 . S
C2217 C2216 1.404 . S
C2217 C2218 1.389 1_554 S
C2218 C2217 1.389 1_556 S
C2218 C2219 1.399 . S
C2218 H2231 0.931 . S
C2219 C2218 1.399 . S
C2219 C2220 1.390 . S
C2220 C2215 1.392 1_556 S
C2220 C2219 1.390 . S
C2220 H2232 0.929 . S
O2221 Tb2205 2.326 . S
O2221 C2209 1.242 . S
O2222 Eu2206 2.324 . S
O2222 C2209 1.258 . S
O2223 Tb2205 2.500 . S
O2223 C2225 1.273 . S
O2224 Tb2205 2.473 . S
O2224 C2225 1.257 . S
C2225 O2223 1.273 . S
C2225 O2224 1.257 . S
O2226 Eu2206 2.326 . S
O2226 C2214 1.242 . S
O2227 Tb2205 2.324 . S
O2227 C2214 1.258 . S
O2228 Eu2206 2.500 . S
O2228 C2211 1.273 . S
O2229 Eu2206 2.473 . S
O2229 C2211 1.257 . S
H2230 C2216 0.929 . S
H2231 C2218 0.931 . S
H2232 C2220 0.929 . S
O2233 Tb2234 2.292 . S
O2233 C2236 1.255 . S
Tb2234 O2233 2.292 . S
Tb2234 O2250 2.326 . S
Tb2234 O2252 2.500 . S
Tb2234 O2253 2.473 . S
Tb2234 O2256 2.324 . S
Eu2235 O2239 2.292 . S
Eu2235 C2240 2.852 . S
Eu2235 O2251 2.324 . S
Eu2235 O2255 2.326 . S
Eu2235 O2257 2.500 . S
Eu2235 O2258 2.473 . S
C2236 O2233 1.255 . S
C2236 O2237 1.247 . S
O2237 C2236 1.247 . S
C2238 O2250 1.242 . S
C2238 O2251 1.258 . S
O2239 Eu2235 2.292 . S
O2239 C2241 1.255 . S
C2240 Eu2235 2.852 . S
C2240 C2244 1.503 . S
C2240 O2257 1.273 . S
C2240 O2258 1.257 . S
C2241 O2239 1.255 . S
C2241 O2242 1.247 . S
O2242 C2241 1.247 . S
C2243 O2255 1.242 . S
C2243 O2256 1.258 . S
C2244 C2240 1.503 . S
C2244 C2245 1.379 . S
C2244 C2249 1.392 . S
C2245 C2244 1.379 . S
C2245 C2246 1.404 . S
C2245 H2259 0.929 . S
C2246 C2245 1.404 . S
C2246 C2247 1.389 . S
C2247 C2246 1.389 . S
C2247 C2248 1.399 . S
C2247 H2260 0.931 . S
C2248 C2247 1.399 . S
C2248 C2249 1.390 . S
C2249 C2244 1.392 . S
C2249 C2248 1.390 . S
C2249 H2261 0.929 . S
O2250 Tb2234 2.326 . S
O2250 C2238 1.242 . S
O2251 Eu2235 2.324 . S
O2251 C2238 1.258 . S
O2252 Tb2234 2.500 . S
O2252 C2254 1.273 . S
O2253 Tb2234 2.473 . S
O2253 C2254 1.257 . S
C2254 O2252 1.273 . S
C2254 O2253 1.257 . S
O2255 Eu2235 2.326 . S
O2255 C2243 1.242 . S
O2256 Tb2234 2.324 . S
O2256 C2243 1.258 . S
O2257 Eu2235 2.500 . S
O2257 C2240 1.273 . S
O2258 Eu2235 2.473 . S
O2258 C2240 1.257 . S
H2259 C2245 0.929 . S
H2260 C2247 0.931 . S
H2261 C2249 0.929 . S
O2262 Tb2263 2.292 . S
O2262 C2265 1.255 . S
Tb2263 O2262 2.292 . S
Tb2263 O2279 2.326 1_455 S
Tb2263 O2281 2.500 1_455 S
Tb2263 O2282 2.473 1_455 S
Tb2263 O2285 2.324 1_455 S
Eu2264 O2268 2.292 . S
Eu2264 C2269 2.852 1_655 S
Eu2264 O2280 2.324 . S
Eu2264 O2284 2.326 . S
Eu2264 O2286 2.500 . S
Eu2264 O2287 2.473 1_655 S
C2265 O2262 1.255 . S
C2265 O2266 1.247 . S
O2266 C2265 1.247 . S
C2267 O2279 1.242 . S
C2267 O2280 1.258 . S
O2268 Eu2264 2.292 . S
O2268 C2270 1.255 . S
C2269 Eu2264 2.852 1_455 S
C2269 C2273 1.503 . S
C2269 O2286 1.273 1_455 S
C2269 O2287 1.257 . S
C2270 O2268 1.255 . S
C2270 O2271 1.247 . S
O2271 C2270 1.247 . S
C2272 O2284 1.242 . S
C2272 O2285 1.258 . S
C2273 C2269 1.503 . S
C2273 C2274 1.379 . S
C2273 C2278 1.392 . S
C2274 C2273 1.379 . S
C2274 C2275 1.404 . S
C2274 H2288 0.929 . S
C2275 C2274 1.404 . S
C2275 C2276 1.389 . S
C2276 C2275 1.389 . S
C2276 C2277 1.399 . S
C2276 H2289 0.931 . S
C2277 C2276 1.399 . S
C2277 C2278 1.390 . S
C2278 C2273 1.392 . S
C2278 C2277 1.390 . S
C2278 H2290 0.929 . S
O2279 Tb2263 2.326 1_655 S
O2279 C2267 1.242 . S
O2280 Eu2264 2.324 . S
O2280 C2267 1.258 . S
O2281 Tb2263 2.500 1_655 S
O2281 C2283 1.273 . S
O2282 Tb2263 2.473 1_655 S
O2282 C2283 1.257 . S
C2283 O2281 1.273 . S
C2283 O2282 1.257 . S
O2284 Eu2264 2.326 . S
O2284 C2272 1.242 . S
O2285 Tb2263 2.324 1_655 S
O2285 C2272 1.258 . S
O2286 Eu2264 2.500 . S
O2286 C2269 1.273 1_655 S
O2287 Eu2264 2.473 1_455 S
O2287 C2269 1.257 . S
H2288 C2274 0.929 . S
H2289 C2276 0.931 . S
H2290 C2278 0.929 . S
O2291 Tb2292 2.292 . S
O2291 C2294 1.255 . S
Tb2292 O2291 2.292 . S
Tb2292 O2308 2.326 . S
Tb2292 O2310 2.500 . S
Tb2292 O2311 2.473 . S
Tb2292 O2314 2.324 . S
Eu2293 O2297 2.292 . S
Eu2293 C2298 2.852 . S
Eu2293 O2309 2.324 . S
Eu2293 O2313 2.326 . S
Eu2293 O2315 2.500 . S
Eu2293 O2316 2.473 . S
C2294 O2291 1.255 . S
C2294 O2295 1.247 . S
O2295 C2294 1.247 . S
C2296 O2308 1.242 . S
C2296 O2309 1.258 . S
O2297 Eu2293 2.292 . S
O2297 C2299 1.255 . S
C2298 Eu2293 2.852 . S
C2298 C2302 1.503 . S
C2298 O2315 1.273 . S
C2298 O2316 1.257 . S
C2299 O2297 1.255 . S
C2299 O2300 1.247 . S
O2300 C2299 1.247 . S
C2301 O2313 1.242 . S
C2301 O2314 1.258 . S
C2302 C2298 1.503 . S
C2302 C2303 1.379 . S
C2302 C2307 1.392 . S
C2303 C2302 1.379 . S
C2303 C2304 1.404 . S
C2303 H2317 0.929 . S
C2304 C2303 1.404 . S
C2304 C2305 1.389 . S
C2305 C2304 1.389 . S
C2305 C2306 1.399 . S
C2305 H2318 0.931 . S
C2306 C2305 1.399 . S
C2306 C2307 1.390 . S
C2307 C2302 1.392 . S
C2307 C2306 1.390 . S
C2307 H2319 0.929 . S
O2308 Tb2292 2.326 . S
O2308 C2296 1.242 . S
O2309 Eu2293 2.324 . S
O2309 C2296 1.258 . S
O2310 Tb2292 2.500 . S
O2310 C2312 1.273 . S
O2311 Tb2292 2.473 . S
O2311 C2312 1.257 . S
C2312 O2310 1.273 . S
C2312 O2311 1.257 . S
O2313 Eu2293 2.326 . S
O2313 C2301 1.242 . S
O2314 Tb2292 2.324 . S
O2314 C2301 1.258 . S
O2315 Eu2293 2.500 . S
O2315 C2298 1.273 . S
O2316 Eu2293 2.473 . S
O2316 C2298 1.257 . S
H2317 C2303 0.929 . S
H2318 C2305 0.931 . S
H2319 C2307 0.929 . S
O2320 Tb2321 2.292 . S
O2320 C2323 1.255 . S
Tb2321 O2320 2.292 . S
Tb2321 O2337 2.326 . S
Tb2321 O2339 2.500 . S
Tb2321 O2340 2.473 . S
Tb2321 O2343 2.324 . S
Eu2322 O2326 2.292 . S
Eu2322 C2327 2.852 . S
Eu2322 O2338 2.324 . S
Eu2322 O2342 2.326 . S
Eu2322 O2344 2.500 . S
Eu2322 O2345 2.473 . S
C2323 O2320 1.255 . S
C2323 O2324 1.247 . S
O2324 C2323 1.247 . S
C2325 O2337 1.242 . S
C2325 O2338 1.258 . S
O2326 Eu2322 2.292 . S
O2326 C2328 1.255 . S
C2327 Eu2322 2.852 . S
C2327 C2331 1.503 . S
C2327 O2344 1.273 . S
C2327 O2345 1.257 . S
C2328 O2326 1.255 . S
C2328 O2329 1.247 . S
O2329 C2328 1.247 . S
C2330 O2342 1.242 . S
C2330 O2343 1.258 . S
C2331 C2327 1.503 . S
C2331 C2332 1.379 . S
C2331 C2336 1.392 . S
C2332 C2331 1.379 . S
C2332 C2333 1.404 . S
C2332 H2346 0.929 . S
C2333 C2332 1.404 . S
C2333 C2334 1.389 . S
C2334 C2333 1.389 . S
C2334 C2335 1.399 . S
C2334 H2347 0.931 . S
C2335 C2334 1.399 . S
C2335 C2336 1.390 . S
C2336 C2331 1.392 . S
C2336 C2335 1.390 . S
C2336 H2348 0.929 . S
O2337 Tb2321 2.326 . S
O2337 C2325 1.242 . S
O2338 Eu2322 2.324 . S
O2338 C2325 1.258 . S
O2339 Tb2321 2.500 . S
O2339 C2341 1.273 . S
O2340 Tb2321 2.473 . S
O2340 C2341 1.257 . S
C2341 O2339 1.273 . S
C2341 O2340 1.257 . S
O2342 Eu2322 2.326 . S
O2342 C2330 1.242 . S
O2343 Tb2321 2.324 . S
O2343 C2330 1.258 . S
O2344 Eu2322 2.500 . S
O2344 C2327 1.273 . S
O2345 Eu2322 2.473 . S
O2345 C2327 1.257 . S
H2346 C2332 0.929 . S
H2347 C2334 0.931 . S
H2348 C2336 0.929 . S
O2349 Tb2350 2.292 . S
O2349 C2352 1.255 . S
Tb2350 O2349 2.292 . S
Tb2350 O2366 2.326 . S
Tb2350 O2368 2.500 . S
Tb2350 O2369 2.473 . S
Tb2350 O2372 2.324 . S
Eu2351 O2355 2.292 . S
Eu2351 C2356 2.852 . S
Eu2351 O2367 2.324 . S
Eu2351 O2371 2.326 . S
Eu2351 O2373 2.500 . S
Eu2351 O2374 2.473 . S
C2352 O2349 1.255 . S
C2352 O2353 1.247 . S
O2353 C2352 1.247 . S
C2354 O2366 1.242 . S
C2354 O2367 1.258 . S
O2355 Eu2351 2.292 . S
O2355 C2357 1.255 . S
C2356 Eu2351 2.852 . S
C2356 C2360 1.503 . S
C2356 O2373 1.273 . S
C2356 O2374 1.257 . S
C2357 O2355 1.255 . S
C2357 O2358 1.247 . S
O2358 C2357 1.247 . S
C2359 O2371 1.242 . S
C2359 O2372 1.258 . S
C2360 C2356 1.503 . S
C2360 C2361 1.379 . S
C2360 C2365 1.392 . S
C2361 C2360 1.379 . S
C2361 C2362 1.404 . S
C2361 H2375 0.929 . S
C2362 C2361 1.404 . S
C2362 C2363 1.389 . S
C2363 C2362 1.389 . S
C2363 C2364 1.399 . S
C2363 H2376 0.931 . S
C2364 C2363 1.399 . S
C2364 C2365 1.390 . S
C2365 C2360 1.392 . S
C2365 C2364 1.390 . S
C2365 H2377 0.929 . S
O2366 Tb2350 2.326 . S
O2366 C2354 1.242 . S
O2367 Eu2351 2.324 . S
O2367 C2354 1.258 . S
O2368 Tb2350 2.500 . S
O2368 C2370 1.273 . S
O2369 Tb2350 2.473 . S
O2369 C2370 1.257 . S
C2370 O2368 1.273 . S
C2370 O2369 1.257 . S
O2371 Eu2351 2.326 . S
O2371 C2359 1.242 . S
O2372 Tb2350 2.324 . S
O2372 C2359 1.258 . S
O2373 Eu2351 2.500 . S
O2373 C2356 1.273 . S
O2374 Eu2351 2.473 . S
O2374 C2356 1.257 . S
H2375 C2361 0.929 . S
H2376 C2363 0.931 . S
H2377 C2365 0.929 . S
O2378 Tb2379 2.292 . S
O2378 C2381 1.255 . S
Tb2379 O2378 2.292 . S
Tb2379 O2395 2.326 . S
Tb2379 O2397 2.500 . S
Tb2379 O2398 2.473 . S
Tb2379 O2401 2.324 . S
Eu2380 O2384 2.292 . S
Eu2380 C2385 2.852 . S
Eu2380 O2396 2.324 . S
Eu2380 O2400 2.326 . S
Eu2380 O2402 2.500 . S
Eu2380 O2403 2.473 . S
C2381 O2378 1.255 . S
C2381 O2382 1.247 . S
O2382 C2381 1.247 . S
C2383 O2395 1.242 . S
C2383 O2396 1.258 . S
O2384 Eu2380 2.292 . S
O2384 C2386 1.255 . S
C2385 Eu2380 2.852 . S
C2385 C2389 1.503 . S
C2385 O2402 1.273 . S
C2385 O2403 1.257 . S
C2386 O2384 1.255 . S
C2386 O2387 1.247 . S
O2387 C2386 1.247 . S
C2388 O2400 1.242 . S
C2388 O2401 1.258 . S
C2389 C2385 1.503 . S
C2389 C2390 1.379 . S
C2389 C2394 1.392 1_455 S
C2390 C2389 1.379 . S
C2390 C2391 1.404 . S
C2390 H2404 0.929 . S
C2391 C2390 1.404 . S
C2391 C2392 1.389 1_455 S
C2392 C2391 1.389 1_655 S
C2392 C2393 1.399 . S
C2392 H2405 0.931 . S
C2393 C2392 1.399 . S
C2393 C2394 1.390 . S
C2394 C2389 1.392 1_655 S
C2394 C2393 1.390 . S
C2394 H2406 0.929 . S
O2395 Tb2379 2.326 . S
O2395 C2383 1.242 . S
O2396 Eu2380 2.324 . S
O2396 C2383 1.258 . S
O2397 Tb2379 2.500 . S
O2397 C2399 1.273 . S
O2398 Tb2379 2.473 . S
O2398 C2399 1.257 . S
C2399 O2397 1.273 . S
C2399 O2398 1.257 . S
O2400 Eu2380 2.326 . S
O2400 C2388 1.242 . S
O2401 Tb2379 2.324 . S
O2401 C2388 1.258 . S
O2402 Eu2380 2.500 . S
O2402 C2385 1.273 . S
O2403 Eu2380 2.473 . S
O2403 C2385 1.257 . S
H2404 C2390 0.929 . S
H2405 C2392 0.931 . S
H2406 C2394 0.929 . S
O2407 Tb2408 2.292 . S
O2407 C2410 1.255 . S
Tb2408 O2407 2.292 . S
Tb2408 O2424 2.326 . S
Tb2408 O2426 2.500 . S
Tb2408 O2427 2.473 . S
Tb2408 O2430 2.324 . S
Eu2409 O2413 2.292 . S
Eu2409 C2414 2.852 . S
Eu2409 O2425 2.324 . S
Eu2409 O2429 2.326 . S
Eu2409 O2431 2.500 . S
Eu2409 O2432 2.473 . S
C2410 O2407 1.255 . S
C2410 O2411 1.247 . S
O2411 C2410 1.247 . S
C2412 O2424 1.242 . S
C2412 O2425 1.258 . S
O2413 Eu2409 2.292 . S
O2413 C2415 1.255 . S
C2414 Eu2409 2.852 . S
C2414 C2418 1.503 . S
C2414 O2431 1.273 . S
C2414 O2432 1.257 . S
C2415 O2413 1.255 . S
C2415 O2416 1.247 . S
O2416 C2415 1.247 . S
C2417 O2429 1.242 . S
C2417 O2430 1.258 . S
C2418 C2414 1.503 . S
C2418 C2419 1.379 . S
C2418 C2423 1.392 . S
C2419 C2418 1.379 . S
C2419 C2420 1.404 . S
C2419 H2433 0.929 . S
C2420 C2419 1.404 . S
C2420 C2421 1.389 . S
C2421 C2420 1.389 . S
C2421 C2422 1.399 . S
C2421 H2434 0.931 . S
C2422 C2421 1.399 . S
C2422 C2423 1.390 . S
C2423 C2418 1.392 . S
C2423 C2422 1.390 . S
C2423 H2435 0.929 . S
O2424 Tb2408 2.326 . S
O2424 C2412 1.242 . S
O2425 Eu2409 2.324 . S
O2425 C2412 1.258 . S
O2426 Tb2408 2.500 . S
O2426 C2428 1.273 . S
O2427 Tb2408 2.473 . S
O2427 C2428 1.257 . S
C2428 O2426 1.273 . S
C2428 O2427 1.257 . S
O2429 Eu2409 2.326 . S
O2429 C2417 1.242 . S
O2430 Tb2408 2.324 . S
O2430 C2417 1.258 . S
O2431 Eu2409 2.500 . S
O2431 C2414 1.273 . S
O2432 Eu2409 2.473 . S
O2432 C2414 1.257 . S
H2433 C2419 0.929 . S
H2434 C2421 0.931 . S
H2435 C2423 0.929 . S
O2436 Tb2437 2.292 . S
O2436 C2439 1.255 . S
Tb2437 O2436 2.292 . S
Tb2437 O2453 2.326 . S
Tb2437 O2455 2.500 . S
Tb2437 O2456 2.473 . S
Tb2437 O2459 2.324 . S
Eu2438 O2442 2.292 . S
Eu2438 C2443 2.852 . S
Eu2438 O2454 2.324 . S
Eu2438 O2458 2.326 . S
Eu2438 O2460 2.500 . S
Eu2438 O2461 2.473 . S
C2439 O2436 1.255 . S
C2439 O2440 1.247 . S
O2440 C2439 1.247 . S
C2441 O2453 1.242 . S
C2441 O2454 1.258 . S
O2442 Eu2438 2.292 . S
O2442 C2444 1.255 . S
C2443 Eu2438 2.852 . S
C2443 C2447 1.503 . S
C2443 O2460 1.273 . S
C2443 O2461 1.257 . S
C2444 O2442 1.255 . S
C2444 O2445 1.247 . S
O2445 C2444 1.247 . S
C2446 O2458 1.242 . S
C2446 O2459 1.258 . S
C2447 C2443 1.503 . S
C2447 C2448 1.379 . S
C2447 C2452 1.392 . S
C2448 C2447 1.379 . S
C2448 C2449 1.404 . S
C2448 H2462 0.929 . S
C2449 C2448 1.404 . S
C2449 C2450 1.389 . S
C2450 C2449 1.389 . S
C2450 C2451 1.399 . S
C2450 H2463 0.931 . S
C2451 C2450 1.399 . S
C2451 C2452 1.390 . S
C2452 C2447 1.392 . S
C2452 C2451 1.390 . S
C2452 H2464 0.929 . S
O2453 Tb2437 2.326 . S
O2453 C2441 1.242 . S
O2454 Eu2438 2.324 . S
O2454 C2441 1.258 . S
O2455 Tb2437 2.500 . S
O2455 C2457 1.273 . S
O2456 Tb2437 2.473 . S
O2456 C2457 1.257 . S
C2457 O2455 1.273 . S
C2457 O2456 1.257 . S
O2458 Eu2438 2.326 . S
O2458 C2446 1.242 . S
O2459 Tb2437 2.324 . S
O2459 C2446 1.258 . S
O2460 Eu2438 2.500 . S
O2460 C2443 1.273 . S
O2461 Eu2438 2.473 . S
O2461 C2443 1.257 . S
H2462 C2448 0.929 . S
H2463 C2450 0.931 . S
H2464 C2452 0.929 . S
O2465 Tb2466 2.292 . S
O2465 C2468 1.255 . S
Tb2466 O2465 2.292 . S
Tb2466 O2482 2.326 . S
Tb2466 O2484 2.500 . S
Tb2466 O2485 2.473 . S
Tb2466 O2488 2.324 . S
Eu2467 O2471 2.292 . S
Eu2467 C2472 2.852 . S
Eu2467 O2483 2.324 . S
Eu2467 O2487 2.326 . S
Eu2467 O2489 2.500 . S
Eu2467 O2490 2.473 . S
C2468 O2465 1.255 . S
C2468 O2469 1.247 . S
O2469 C2468 1.247 . S
C2470 O2482 1.242 . S
C2470 O2483 1.258 . S
O2471 Eu2467 2.292 . S
O2471 C2473 1.255 . S
C2472 Eu2467 2.852 . S
C2472 C2476 1.503 . S
C2472 O2489 1.273 . S
C2472 O2490 1.257 . S
C2473 O2471 1.255 . S
C2473 O2474 1.247 . S
O2474 C2473 1.247 . S
C2475 O2487 1.242 . S
C2475 O2488 1.258 . S
C2476 C2472 1.503 . S
C2476 C2477 1.379 . S
C2476 C2481 1.392 . S
C2477 C2476 1.379 . S
C2477 C2478 1.404 . S
C2477 H2491 0.929 . S
C2478 C2477 1.404 . S
C2478 C2479 1.389 . S
C2479 C2478 1.389 . S
C2479 C2480 1.399 . S
C2479 H2492 0.931 . S
C2480 C2479 1.399 . S
C2480 C2481 1.390 . S
C2481 C2476 1.392 . S
C2481 C2480 1.390 . S
C2481 H2493 0.929 . S
O2482 Tb2466 2.326 . S
O2482 C2470 1.242 . S
O2483 Eu2467 2.324 . S
O2483 C2470 1.258 . S
O2484 Tb2466 2.500 . S
O2484 C2486 1.273 . S
O2485 Tb2466 2.473 . S
O2485 C2486 1.257 . S
C2486 O2484 1.273 . S
C2486 O2485 1.257 . S
O2487 Eu2467 2.326 . S
O2487 C2475 1.242 . S
O2488 Tb2466 2.324 . S
O2488 C2475 1.258 . S
O2489 Eu2467 2.500 . S
O2489 C2472 1.273 . S
O2490 Eu2467 2.473 . S
O2490 C2472 1.257 . S
H2491 C2477 0.929 . S
H2492 C2479 0.931 . S
H2493 C2481 0.929 . S
O2494 Tb2495 2.292 . S
O2494 C2497 1.255 . S
Tb2495 O2494 2.292 . S
Tb2495 O2511 2.326 . S
Tb2495 O2513 2.500 . S
Tb2495 O2514 2.473 . S
Tb2495 O2517 2.324 . S
Eu2496 O2500 2.292 . S
Eu2496 C2501 2.852 . S
Eu2496 O2512 2.324 . S
Eu2496 O2516 2.326 . S
Eu2496 O2518 2.500 . S
Eu2496 O2519 2.473 . S
C2497 O2494 1.255 . S
C2497 O2498 1.247 . S
O2498 C2497 1.247 . S
C2499 O2511 1.242 . S
C2499 O2512 1.258 . S
O2500 Eu2496 2.292 . S
O2500 C2502 1.255 . S
C2501 Eu2496 2.852 . S
C2501 C2505 1.503 . S
C2501 O2518 1.273 . S
C2501 O2519 1.257 . S
C2502 O2500 1.255 . S
C2502 O2503 1.247 . S
O2503 C2502 1.247 . S
C2504 O2516 1.242 . S
C2504 O2517 1.258 . S
C2505 C2501 1.503 . S
C2505 C2506 1.379 . S
C2505 C2510 1.392 1_455 S
C2506 C2505 1.379 . S
C2506 C2507 1.404 . S
C2506 H2520 0.929 . S
C2507 C2506 1.404 . S
C2507 C2508 1.389 1_455 S
C2508 C2507 1.389 1_655 S
C2508 C2509 1.399 . S
C2508 H2521 0.931 . S
C2509 C2508 1.399 . S
C2509 C2510 1.390 . S
C2510 C2505 1.392 1_655 S
C2510 C2509 1.390 . S
C2510 H2522 0.929 . S
O2511 Tb2495 2.326 . S
O2511 C2499 1.242 . S
O2512 Eu2496 2.324 . S
O2512 C2499 1.258 . S
O2513 Tb2495 2.500 . S
O2513 C2515 1.273 . S
O2514 Tb2495 2.473 . S
O2514 C2515 1.257 . S
C2515 O2513 1.273 . S
C2515 O2514 1.257 . S
O2516 Eu2496 2.326 . S
O2516 C2504 1.242 . S
O2517 Tb2495 2.324 . S
O2517 C2504 1.258 . S
O2518 Eu2496 2.500 . S
O2518 C2501 1.273 . S
O2519 Eu2496 2.473 . S
O2519 C2501 1.257 . S
H2520 C2506 0.929 . S
H2521 C2508 0.931 . S
H2522 C2510 0.929 . S
O2523 Tb2524 2.292 . S
O2523 C2526 1.255 . S
Tb2524 O2523 2.292 . S
Tb2524 O2540 2.326 . S
Tb2524 O2542 2.500 . S
Tb2524 O2543 2.473 . S
Tb2524 O2546 2.324 . S
Eu2525 O2529 2.292 . S
Eu2525 C2530 2.852 . S
Eu2525 O2541 2.324 . S
Eu2525 O2545 2.326 . S
Eu2525 O2547 2.500 . S
Eu2525 O2548 2.473 . S
C2526 O2523 1.255 . S
C2526 O2527 1.247 . S
O2527 C2526 1.247 . S
C2528 O2540 1.242 . S
C2528 O2541 1.258 . S
O2529 Eu2525 2.292 . S
O2529 C2531 1.255 . S
C2530 Eu2525 2.852 . S
C2530 C2534 1.503 . S
C2530 O2547 1.273 . S
C2530 O2548 1.257 . S
C2531 O2529 1.255 . S
C2531 O2532 1.247 . S
O2532 C2531 1.247 . S
C2533 O2545 1.242 . S
C2533 O2546 1.258 . S
C2534 C2530 1.503 . S
C2534 C2535 1.379 . S
C2534 C2539 1.392 . S
C2535 C2534 1.379 . S
C2535 C2536 1.404 . S
C2535 H2549 0.929 . S
C2536 C2535 1.404 . S
C2536 C2537 1.389 . S
C2537 C2536 1.389 . S
C2537 C2538 1.399 . S
C2537 H2550 0.931 . S
C2538 C2537 1.399 . S
C2538 C2539 1.390 . S
C2539 C2534 1.392 . S
C2539 C2538 1.390 . S
C2539 H2551 0.929 . S
O2540 Tb2524 2.326 . S
O2540 C2528 1.242 . S
O2541 Eu2525 2.324 . S
O2541 C2528 1.258 . S
O2542 Tb2524 2.500 . S
O2542 C2544 1.273 . S
O2543 Tb2524 2.473 . S
O2543 C2544 1.257 . S
C2544 O2542 1.273 . S
C2544 O2543 1.257 . S
O2545 Eu2525 2.326 . S
O2545 C2533 1.242 . S
O2546 Tb2524 2.324 . S
O2546 C2533 1.258 . S
O2547 Eu2525 2.500 . S
O2547 C2530 1.273 . S
O2548 Eu2525 2.473 . S
O2548 C2530 1.257 . S
H2549 C2535 0.929 . S
H2550 C2537 0.931 . S
H2551 C2539 0.929 . S
O2552 Tb2553 2.292 . S
O2552 C2555 1.255 . S
Tb2553 O2552 2.292 . S
Tb2553 O2569 2.326 . S
Tb2553 O2571 2.500 . S
Tb2553 O2572 2.473 . S
Tb2553 O2575 2.324 . S
Eu2554 O2558 2.292 . S
Eu2554 C2559 2.852 . S
Eu2554 O2570 2.324 . S
Eu2554 O2574 2.326 . S
Eu2554 O2576 2.500 . S
Eu2554 O2577 2.473 . S
C2555 O2552 1.255 . S
C2555 O2556 1.247 . S
O2556 C2555 1.247 . S
C2557 O2569 1.242 . S
C2557 O2570 1.258 . S
O2558 Eu2554 2.292 . S
O2558 C2560 1.255 . S
C2559 Eu2554 2.852 . S
C2559 C2563 1.503 . S
C2559 O2576 1.273 . S
C2559 O2577 1.257 . S
C2560 O2558 1.255 . S
C2560 O2561 1.247 . S
O2561 C2560 1.247 . S
C2562 O2574 1.242 . S
C2562 O2575 1.258 . S
C2563 C2559 1.503 . S
C2563 C2564 1.379 . S
C2563 C2568 1.392 . S
C2564 C2563 1.379 . S
C2564 C2565 1.404 . S
C2564 H2578 0.929 . S
C2565 C2564 1.404 . S
C2565 C2566 1.389 . S
C2566 C2565 1.389 . S
C2566 C2567 1.399 . S
C2566 H2579 0.931 . S
C2567 C2566 1.399 . S
C2567 C2568 1.390 . S
C2568 C2563 1.392 . S
C2568 C2567 1.390 . S
C2568 H2580 0.929 . S
O2569 Tb2553 2.326 . S
O2569 C2557 1.242 . S
O2570 Eu2554 2.324 . S
O2570 C2557 1.258 . S
O2571 Tb2553 2.500 . S
O2571 C2573 1.273 . S
O2572 Tb2553 2.473 . S
O2572 C2573 1.257 . S
C2573 O2571 1.273 . S
C2573 O2572 1.257 . S
O2574 Eu2554 2.326 . S
O2574 C2562 1.242 . S
O2575 Tb2553 2.324 . S
O2575 C2562 1.258 . S
O2576 Eu2554 2.500 . S
O2576 C2559 1.273 . S
O2577 Eu2554 2.473 . S
O2577 C2559 1.257 . S
H2578 C2564 0.929 . S
H2579 C2566 0.931 . S
H2580 C2568 0.929 . S
O2581 Tb2582 2.292 . S
O2581 C2584 1.255 . S
Tb2582 O2581 2.292 . S
Tb2582 O2598 2.326 . S
Tb2582 O2600 2.500 . S
Tb2582 O2601 2.473 . S
Tb2582 O2604 2.324 . S
Eu2583 O2587 2.292 . S
Eu2583 C2588 2.852 . S
Eu2583 O2599 2.324 . S
Eu2583 O2603 2.326 . S
Eu2583 O2605 2.500 . S
Eu2583 O2606 2.473 . S
C2584 O2581 1.255 . S
C2584 O2585 1.247 . S
O2585 C2584 1.247 . S
C2586 O2598 1.242 . S
C2586 O2599 1.258 . S
O2587 Eu2583 2.292 . S
O2587 C2589 1.255 . S
C2588 Eu2583 2.852 . S
C2588 C2592 1.503 . S
C2588 O2605 1.273 . S
C2588 O2606 1.257 . S
C2589 O2587 1.255 . S
C2589 O2590 1.247 . S
O2590 C2589 1.247 . S
C2591 O2603 1.242 . S
C2591 O2604 1.258 . S
C2592 C2588 1.503 . S
C2592 C2593 1.379 . S
C2592 C2597 1.392 1_545 S
C2593 C2592 1.379 . S
C2593 C2594 1.404 . S
C2593 H2607 0.929 . S
C2594 C2593 1.404 . S
C2594 C2595 1.389 1_545 S
C2595 C2594 1.389 1_565 S
C2595 C2596 1.399 . S
C2595 H2608 0.931 . S
C2596 C2595 1.399 . S
C2596 C2597 1.390 . S
C2597 C2592 1.392 1_565 S
C2597 C2596 1.390 . S
C2597 H2609 0.929 . S
O2598 Tb2582 2.326 . S
O2598 C2586 1.242 . S
O2599 Eu2583 2.324 . S
O2599 C2586 1.258 . S
O2600 Tb2582 2.500 . S
O2600 C2602 1.273 . S
O2601 Tb2582 2.473 . S
O2601 C2602 1.257 . S
C2602 O2600 1.273 . S
C2602 O2601 1.257 . S
O2603 Eu2583 2.326 . S
O2603 C2591 1.242 . S
O2604 Tb2582 2.324 . S
O2604 C2591 1.258 . S
O2605 Eu2583 2.500 . S
O2605 C2588 1.273 . S
O2606 Eu2583 2.473 . S
O2606 C2588 1.257 . S
H2607 C2593 0.929 . S
H2608 C2595 0.931 . S
H2609 C2597 0.929 . S
O2610 Tb2611 2.292 . S
O2610 C2613 1.255 . S
Tb2611 O2610 2.292 . S
Tb2611 O2627 2.326 . S
Tb2611 O2629 2.500 . S
Tb2611 O2630 2.473 . S
Tb2611 O2633 2.324 . S
Eu2612 O2616 2.292 . S
Eu2612 C2617 2.852 . S
Eu2612 O2628 2.324 . S
Eu2612 O2632 2.326 . S
Eu2612 O2634 2.500 . S
Eu2612 O2635 2.473 . S
C2613 O2610 1.255 . S
C2613 O2614 1.247 . S
O2614 C2613 1.247 . S
C2615 O2627 1.242 . S
C2615 O2628 1.258 . S
O2616 Eu2612 2.292 . S
O2616 C2618 1.255 . S
C2617 Eu2612 2.852 . S
C2617 C2621 1.503 . S
C2617 O2634 1.273 . S
C2617 O2635 1.257 . S
C2618 O2616 1.255 . S
C2618 O2619 1.247 . S
O2619 C2618 1.247 . S
C2620 O2632 1.242 . S
C2620 O2633 1.258 . S
C2621 C2617 1.503 . S
C2621 C2622 1.379 . S
C2621 C2626 1.392 . S
C2622 C2621 1.379 . S
C2622 C2623 1.404 . S
C2622 H2636 0.929 . S
C2623 C2622 1.404 . S
C2623 C2624 1.389 . S
C2624 C2623 1.389 . S
C2624 C2625 1.399 . S
C2624 H2637 0.931 . S
C2625 C2624 1.399 . S
C2625 C2626 1.390 . S
C2626 C2621 1.392 . S
C2626 C2625 1.390 . S
C2626 H2638 0.929 . S
O2627 Tb2611 2.326 . S
O2627 C2615 1.242 . S
O2628 Eu2612 2.324 . S
O2628 C2615 1.258 . S
O2629 Tb2611 2.500 . S
O2629 C2631 1.273 . S
O2630 Tb2611 2.473 . S
O2630 C2631 1.257 . S
C2631 O2629 1.273 . S
C2631 O2630 1.257 . S
O2632 Eu2612 2.326 . S
O2632 C2620 1.242 . S
O2633 Tb2611 2.324 . S
O2633 C2620 1.258 . S
O2634 Eu2612 2.500 . S
O2634 C2617 1.273 . S
O2635 Eu2612 2.473 . S
O2635 C2617 1.257 . S
H2636 C2622 0.929 . S
H2637 C2624 0.931 . S
H2638 C2626 0.929 . S
O2639 Tb2640 2.292 . S
O2639 C2642 1.255 . S
Tb2640 O2639 2.292 . S
Tb2640 O2656 2.326 1_554 S
Tb2640 O2658 2.500 1_554 S
Tb2640 O2659 2.473 1_554 S
Tb2640 O2662 2.324 1_554 S
Eu2641 O2645 2.292 . S
Eu2641 C2646 2.852 1_556 S
Eu2641 O2657 2.324 . S
Eu2641 O2661 2.326 . S
Eu2641 O2663 2.500 . S
Eu2641 O2664 2.473 1_556 S
C2642 O2639 1.255 . S
C2642 O2643 1.247 . S
O2643 C2642 1.247 . S
C2644 O2656 1.242 . S
C2644 O2657 1.258 . S
O2645 Eu2641 2.292 . S
O2645 C2647 1.255 . S
C2646 Eu2641 2.852 1_554 S
C2646 C2650 1.503 . S
C2646 O2663 1.273 1_554 S
C2646 O2664 1.257 . S
C2647 O2645 1.255 . S
C2647 O2648 1.247 . S
O2648 C2647 1.247 . S
C2649 O2661 1.242 . S
C2649 O2662 1.258 . S
C2650 C2646 1.503 . S
C2650 C2651 1.379 . S
C2650 C2655 1.392 1_565 S
C2651 C2650 1.379 . S
C2651 C2652 1.404 . S
C2651 H2665 0.929 . S
C2652 C2651 1.404 . S
C2652 C2653 1.403 . S
C2653 C2652 1.403 . S
C2653 C2654 1.390 1_565 S
C2653 H2666 0.925 1_565 S
C2654 C2653 1.390 1_545 S
C2654 C2655 1.390 . S
C2655 C2650 1.392 1_545 S
C2655 C2654 1.390 . S
C2655 H2667 0.929 . S
O2656 Tb2640 2.326 1_556 S
O2656 C2644 1.242 . S
O2657 Eu2641 2.324 . S
O2657 C2644 1.258 . S
O2658 Tb2640 2.500 1_556 S
O2658 C2660 1.273 . S
O2659 Tb2640 2.473 1_556 S
O2659 C2660 1.257 . S
C2660 O2658 1.273 . S
C2660 O2659 1.257 . S
O2661 Eu2641 2.326 . S
O2661 C2649 1.242 . S
O2662 Tb2640 2.324 1_556 S
O2662 C2649 1.258 . S
O2663 Eu2641 2.500 . S
O2663 C2646 1.273 1_556 S
O2664 Eu2641 2.473 1_554 S
O2664 C2646 1.257 . S
H2665 C2651 0.929 . S
H2666 C2653 0.925 1_545 S
H2667 C2655 0.929 . S
O2668 Tb2669 2.292 . S
O2668 C2671 1.255 . S
Tb2669 O2668 2.292 . S
Tb2669 O2685 2.326 . S
Tb2669 O2687 2.500 . S
Tb2669 O2688 2.473 . S
Tb2669 O2691 2.324 . S
Eu2670 O2674 2.292 . S
Eu2670 C2675 2.852 . S
Eu2670 O2686 2.324 . S
Eu2670 O2690 2.326 . S
Eu2670 O2692 2.500 . S
Eu2670 O2693 2.473 . S
C2671 O2668 1.255 . S
C2671 O2672 1.247 . S
O2672 C2671 1.247 . S
C2673 O2685 1.242 . S
C2673 O2686 1.258 . S
O2674 Eu2670 2.292 . S
O2674 C2676 1.255 . S
C2675 Eu2670 2.852 . S
C2675 C2679 1.503 . S
C2675 O2692 1.273 . S
C2675 O2693 1.257 . S
C2676 O2674 1.255 . S
C2676 O2677 1.247 . S
O2677 C2676 1.247 . S
C2678 O2690 1.242 . S
C2678 O2691 1.258 . S
C2679 C2675 1.503 . S
C2679 C2680 1.379 . S
C2679 C2684 1.392 . S
C2680 C2679 1.379 . S
C2680 C2681 1.404 . S
C2680 H2694 0.929 . S
C2681 C2680 1.404 . S
C2681 C2682 1.389 . S
C2682 C2681 1.389 . S
C2682 C2683 1.399 . S
C2682 H2695 0.931 . S
C2683 C2682 1.399 . S
C2683 C2684 1.390 . S
C2684 C2679 1.392 . S
C2684 C2683 1.390 . S
C2684 H2696 0.929 . S
O2685 Tb2669 2.326 . S
O2685 C2673 1.242 . S
O2686 Eu2670 2.324 . S
O2686 C2673 1.258 . S
O2687 Tb2669 2.500 . S
O2687 C2689 1.273 . S
O2688 Tb2669 2.473 . S
O2688 C2689 1.257 . S
C2689 O2687 1.273 . S
C2689 O2688 1.257 . S
O2690 Eu2670 2.326 . S
O2690 C2678 1.242 . S
O2691 Tb2669 2.324 . S
O2691 C2678 1.258 . S
O2692 Eu2670 2.500 . S
O2692 C2675 1.273 . S
O2693 Eu2670 2.473 . S
O2693 C2675 1.257 . S
H2694 C2680 0.929 . S
H2695 C2682 0.931 . S
H2696 C2684 0.929 . S
O2697 Tb2698 2.292 . S
O2697 C2700 1.255 . S
Tb2698 O2697 2.292 . S
Tb2698 O2714 2.326 1_556 S
Tb2698 O2716 2.500 1_556 S
Tb2698 O2717 2.473 1_556 S
Tb2698 O2720 2.324 1_556 S
Eu2699 O2703 2.292 . S
Eu2699 C2704 2.852 1_554 S
Eu2699 O2715 2.324 . S
Eu2699 O2719 2.326 . S
Eu2699 O2721 2.500 . S
Eu2699 O2722 2.473 1_554 S
C2700 O2697 1.255 . S
C2700 O2701 1.247 . S
O2701 C2700 1.247 . S
C2702 O2714 1.242 . S
C2702 O2715 1.258 . S
O2703 Eu2699 2.292 . S
O2703 C2705 1.255 . S
C2704 Eu2699 2.852 1_556 S
C2704 C2708 1.503 . S
C2704 O2721 1.273 1_556 S
C2704 O2722 1.257 . S
C2705 O2703 1.255 . S
C2705 O2706 1.247 . S
O2706 C2705 1.247 . S
C2707 O2719 1.242 . S
C2707 O2720 1.258 . S
C2708 C2704 1.503 . S
C2708 C2709 1.379 . S
C2708 C2713 1.392 . S
C2709 C2708 1.379 . S
C2709 C2710 1.404 . S
C2709 H2723 0.929 . S
C2710 C2709 1.404 . S
C2710 C2711 1.389 . S
C2711 C2710 1.389 . S
C2711 C2712 1.399 . S
C2711 H2724 0.931 . S
C2712 C2711 1.399 . S
C2712 C2713 1.390 . S
C2713 C2708 1.392 . S
C2713 C2712 1.390 . S
C2713 H2725 0.929 . S
O2714 Tb2698 2.326 1_554 S
O2714 C2702 1.242 . S
O2715 Eu2699 2.324 . S
O2715 C2702 1.258 . S
O2716 Tb2698 2.500 1_554 S
O2716 C2718 1.273 . S
O2717 Tb2698 2.473 1_554 S
O2717 C2718 1.257 . S
C2718 O2716 1.273 . S
C2718 O2717 1.257 . S
O2719 Eu2699 2.326 . S
O2719 C2707 1.242 . S
O2720 Tb2698 2.324 1_554 S
O2720 C2707 1.258 . S
O2721 Eu2699 2.500 . S
O2721 C2704 1.273 1_554 S
O2722 Eu2699 2.473 1_556 S
O2722 C2704 1.257 . S
H2723 C2709 0.929 . S
H2724 C2711 0.931 . S
H2725 C2713 0.929 . S
O2726 Tb2727 2.292 . S
O2726 C2729 1.255 . S
Tb2727 O2726 2.292 . S
Tb2727 O2743 2.326 . S
Tb2727 O2745 2.500 . S
Tb2727 O2746 2.473 . S
Tb2727 O2749 2.324 . S
Eu2728 O2732 2.292 . S
Eu2728 C2733 2.852 . S
Eu2728 O2744 2.324 . S
Eu2728 O2748 2.326 . S
Eu2728 O2750 2.500 . S
Eu2728 O2751 2.473 . S
C2729 O2726 1.255 . S
C2729 O2730 1.247 . S
O2730 C2729 1.247 . S
C2731 O2743 1.242 . S
C2731 O2744 1.258 . S
O2732 Eu2728 2.292 . S
O2732 C2734 1.255 . S
C2733 Eu2728 2.852 . S
C2733 C2737 1.503 . S
C2733 O2750 1.273 . S
C2733 O2751 1.257 . S
C2734 O2732 1.255 . S
C2734 O2735 1.247 . S
O2735 C2734 1.247 . S
C2736 O2748 1.242 . S
C2736 O2749 1.258 . S
C2737 C2733 1.503 . S
C2737 C2738 1.379 . S
C2737 C2742 1.392 . S
C2738 C2737 1.379 . S
C2738 C2739 1.404 . S
C2738 H2752 0.929 . S
C2739 C2738 1.404 . S
C2739 C2740 1.389 . S
C2740 C2739 1.389 . S
C2740 C2741 1.399 . S
C2740 H2753 0.931 . S
C2741 C2740 1.399 . S
C2741 C2742 1.390 . S
C2742 C2737 1.392 . S
C2742 C2741 1.390 . S
C2742 H2754 0.929 . S
O2743 Tb2727 2.326 . S
O2743 C2731 1.242 . S
O2744 Eu2728 2.324 . S
O2744 C2731 1.258 . S
O2745 Tb2727 2.500 . S
O2745 C2747 1.273 . S
O2746 Tb2727 2.473 . S
O2746 C2747 1.257 . S
C2747 O2745 1.273 . S
C2747 O2746 1.257 . S
O2748 Eu2728 2.326 . S
O2748 C2736 1.242 . S
O2749 Tb2727 2.324 . S
O2749 C2736 1.258 . S
O2750 Eu2728 2.500 . S
O2750 C2733 1.273 . S
O2751 Eu2728 2.473 . S
O2751 C2733 1.257 . S
H2752 C2738 0.929 . S
H2753 C2740 0.931 . S
H2754 C2742 0.929 . S
O2755 Tb2756 2.292 . S
O2755 C2758 1.255 . S
Tb2756 O2755 2.292 . S
Tb2756 O2772 2.326 . S
Tb2756 O2774 2.500 . S
Tb2756 O2775 2.473 . S
Tb2756 O2778 2.324 . S
Eu2757 O2761 2.292 . S
Eu2757 C2762 2.852 . S
Eu2757 O2773 2.324 . S
Eu2757 O2777 2.326 . S
Eu2757 O2779 2.500 . S
Eu2757 O2780 2.473 . S
C2758 O2755 1.255 . S
C2758 O2759 1.247 . S
O2759 C2758 1.247 . S
C2760 O2772 1.242 . S
C2760 O2773 1.258 . S
O2761 Eu2757 2.292 . S
O2761 C2763 1.255 . S
C2762 Eu2757 2.852 . S
C2762 C2766 1.503 . S
C2762 O2779 1.273 . S
C2762 O2780 1.257 . S
C2763 O2761 1.255 . S
C2763 O2764 1.247 . S
O2764 C2763 1.247 . S
C2765 O2777 1.242 . S
C2765 O2778 1.258 . S
C2766 C2762 1.503 . S
C2766 C2767 1.379 . S
C2766 C2771 1.392 . S
C2767 C2766 1.379 . S
C2767 C2768 1.404 . S
C2767 H2781 0.929 . S
C2768 C2767 1.404 . S
C2768 C2769 1.389 . S
C2769 C2768 1.389 . S
C2769 C2770 1.399 . S
C2769 H2782 0.931 . S
C2770 C2769 1.399 . S
C2770 C2771 1.390 . S
C2771 C2766 1.392 . S
C2771 C2770 1.390 . S
C2771 H2783 0.929 . S
O2772 Tb2756 2.326 . S
O2772 C2760 1.242 . S
O2773 Eu2757 2.324 . S
O2773 C2760 1.258 . S
O2774 Tb2756 2.500 . S
O2774 C2776 1.273 . S
O2775 Tb2756 2.473 . S
O2775 C2776 1.257 . S
C2776 O2774 1.273 . S
C2776 O2775 1.257 . S
O2777 Eu2757 2.326 . S
O2777 C2765 1.242 . S
O2778 Tb2756 2.324 . S
O2778 C2765 1.258 . S
O2779 Eu2757 2.500 . S
O2779 C2762 1.273 . S
O2780 Eu2757 2.473 . S
O2780 C2762 1.257 . S
H2781 C2767 0.929 . S
H2782 C2769 0.931 . S
H2783 C2771 0.929 . S
C2784 C2785 1.369 . S
C2784 C2786 1.419 . S
C2784 H2788 0.909 1_455 S
C2785 C2784 1.369 . S
C2785 C2794 1.429 . S
C2786 C2784 1.419 . S
C2786 C2787 1.363 . S
C2786 H2789 0.929 1_455 S
C2787 C2786 1.363 . S
C2787 C2793 1.428 . S
H2788 C2784 0.909 1_655 S
H2789 C2786 0.929 1_655 S
S2790 N2791 1.613 . S
S2790 N2792 1.610 . S
N2791 S2790 1.613 . S
N2791 C2794 1.350 . S
N2792 S2790 1.610 . S
N2792 C2793 1.351 . S
C2793 C2787 1.428 . S
C2793 N2792 1.351 . S
C2793 C2794 1.434 . S
C2794 C2785 1.429 . S
C2794 N2791 1.350 . S
C2794 C2793 1.434 . S
C2795 C2796 1.369 . S
C2795 C2797 1.419 . S
C2795 H2799 0.930 . S
C2796 C2795 1.369 . S
C2796 C2805 1.429 . S
C2797 C2795 1.419 . S
C2797 C2798 1.363 . S
C2797 H2800 0.929 . S
C2798 C2797 1.363 . S
C2798 C2804 1.428 . S
H2799 C2795 0.930 . S
H2800 C2797 0.929 . S
S2801 N2802 1.613 . S
S2801 N2803 1.610 . S
N2802 S2801 1.613 . S
N2802 C2805 1.350 . S
N2803 S2801 1.610 . S
N2803 C2804 1.351 . S
C2804 C2798 1.428 . S
C2804 N2803 1.351 . S
C2804 C2805 1.434 . S
C2805 C2796 1.429 . S
C2805 N2802 1.350 . S
C2805 C2804 1.434 . S
C2806 C2807 1.369 . S
C2806 C2808 1.419 . S
C2806 H2810 0.930 . S
C2807 C2806 1.369 . S
C2807 C2816 1.429 . S
C2808 C2806 1.419 . S
C2808 C2809 1.363 . S
C2808 H2811 0.929 . S
C2809 C2808 1.363 . S
C2809 C2815 1.428 . S
H2810 C2806 0.930 . S
H2811 C2808 0.929 . S
S2812 N2813 1.613 . S
S2812 N2814 1.610 . S
N2813 S2812 1.613 . S
N2813 C2816 1.350 . S
N2814 S2812 1.610 . S
N2814 C2815 1.351 . S
C2815 C2809 1.428 . S
C2815 N2814 1.351 . S
C2815 C2816 1.434 . S
C2816 C2807 1.429 . S
C2816 N2813 1.350 . S
C2816 C2815 1.434 . S
C2817 C2818 1.369 . S
C2817 C2819 1.419 . S
C2817 H2821 0.930 . S
C2818 C2817 1.369 . S
C2818 C2827 1.429 . S
C2819 C2817 1.419 . S
C2819 C2820 1.363 . S
C2819 H2822 0.929 . S
C2820 C2819 1.363 . S
C2820 C2826 1.428 . S
H2821 C2817 0.930 . S
H2822 C2819 0.929 . S
S2823 N2824 1.613 . S
S2823 N2825 1.610 . S
N2824 S2823 1.613 . S
N2824 C2827 1.350 . S
N2825 S2823 1.610 . S
N2825 C2826 1.351 . S
C2826 C2820 1.428 . S
C2826 N2825 1.351 . S
C2826 C2827 1.434 . S
C2827 C2818 1.429 . S
C2827 N2824 1.350 . S
C2827 C2826 1.434 . S
C2828 C2829 1.369 . S
C2828 C2830 1.419 . S
C2828 H2832 0.930 . S
C2829 C2828 1.369 . S
C2829 C2838 1.429 . S
C2830 C2828 1.419 . S
C2830 C2831 1.363 . S
C2830 H2833 0.929 . S
C2831 C2830 1.363 . S
C2831 C2837 1.428 . S
H2832 C2828 0.930 . S
H2833 C2830 0.929 . S
S2834 N2835 1.613 . S
S2834 N2836 1.610 . S
N2835 S2834 1.613 . S
N2835 C2838 1.350 . S
N2836 S2834 1.610 . S
N2836 C2837 1.351 . S
C2837 C2831 1.428 . S
C2837 N2836 1.351 . S
C2837 C2838 1.434 . S
C2838 C2829 1.429 . S
C2838 N2835 1.350 . S
C2838 C2837 1.434 . S
C2839 C2840 1.369 . S
C2839 C2841 1.419 . S
C2839 H2843 0.930 . S
C2840 C2839 1.369 . S
C2840 C2849 1.429 . S
C2841 C2839 1.419 . S
C2841 C2842 1.363 . S
C2841 H2844 0.929 . S
C2842 C2841 1.363 . S
C2842 C2848 1.428 . S
H2843 C2839 0.930 . S
H2844 C2841 0.929 . S
S2845 N2846 1.613 . S
S2845 N2847 1.610 . S
N2846 S2845 1.613 . S
N2846 C2849 1.350 . S
N2847 S2845 1.610 . S
N2847 C2848 1.351 . S
C2848 C2842 1.428 . S
C2848 N2847 1.351 . S
C2848 C2849 1.434 . S
C2849 C2840 1.429 . S
C2849 N2846 1.350 . S
C2849 C2848 1.434 . S
C2850 C2851 1.369 . S
C2850 C2852 1.419 . S
C2850 H2854 0.930 . S
C2851 C2850 1.369 . S
C2851 C2860 1.429 . S
C2852 C2850 1.419 . S
C2852 C2853 1.363 . S
C2852 H2855 0.929 . S
C2853 C2852 1.363 . S
C2853 C2859 1.428 . S
H2854 C2850 0.930 . S
H2855 C2852 0.929 . S
S2856 N2857 1.613 . S
S2856 N2858 1.610 . S
N2857 S2856 1.613 . S
N2857 C2860 1.350 . S
N2858 S2856 1.610 . S
N2858 C2859 1.351 . S
C2859 C2853 1.428 . S
C2859 N2858 1.351 . S
C2859 C2860 1.434 . S
C2860 C2851 1.429 . S
C2860 N2857 1.350 . S
C2860 C2859 1.434 . S
C2861 C2862 1.369 . S
C2861 C2863 1.419 . S
C2861 H2865 0.930 . S
C2862 C2861 1.369 . S
C2862 C2871 1.429 . S
C2863 C2861 1.419 . S
C2863 C2864 1.363 . S
C2863 H2866 0.929 . S
C2864 C2863 1.363 . S
C2864 C2870 1.428 . S
H2865 C2861 0.930 . S
H2866 C2863 0.929 . S
S2867 N2868 1.613 . S
S2867 N2869 1.610 . S
N2868 S2867 1.613 . S
N2868 C2871 1.350 . S
N2869 S2867 1.610 . S
N2869 C2870 1.351 . S
C2870 C2864 1.428 . S
C2870 N2869 1.351 . S
C2870 C2871 1.434 . S
C2871 C2862 1.429 . S
C2871 N2868 1.350 . S
C2871 C2870 1.434 . S
C2872 C2873 1.369 . S
C2872 C2874 1.419 . S
C2872 H2876 0.930 1_545 S
C2873 C2872 1.369 . S
C2873 C2882 1.429 . S
C2874 C2872 1.419 . S
C2874 C2875 1.363 . S
C2874 H2877 0.929 1_545 S
C2875 C2874 1.363 . S
C2875 C2881 1.428 . S
H2876 C2872 0.930 1_565 S
H2877 C2874 0.929 1_565 S
S2878 N2879 1.613 . S
S2878 N2880 1.610 . S
N2879 S2878 1.613 . S
N2879 C2882 1.350 . S
N2880 S2878 1.610 . S
N2880 C2881 1.351 . S
C2881 C2875 1.428 . S
C2881 N2880 1.351 . S
C2881 C2882 1.434 . S
C2882 C2873 1.429 . S
C2882 N2879 1.350 . S
C2882 C2881 1.434 . S
C2883 C2884 1.369 . S
C2883 C2885 1.419 . S
C2883 H2887 0.930 . S
C2884 C2883 1.369 . S
C2884 C2893 1.429 . S
C2885 C2883 1.419 . S
C2885 C2886 1.363 . S
C2885 H2888 0.929 . S
C2886 C2885 1.363 . S
C2886 C2892 1.428 . S
H2887 C2883 0.930 . S
H2888 C2885 0.929 . S
S2889 N2890 1.613 . S
S2889 N2891 1.610 . S
N2890 S2889 1.613 . S
N2890 C2893 1.350 . S
N2891 S2889 1.610 . S
N2891 C2892 1.351 . S
C2892 C2886 1.428 . S
C2892 N2891 1.351 . S
C2892 C2893 1.434 . S
C2893 C2884 1.429 . S
C2893 N2890 1.350 . S
C2893 C2892 1.434 . S
C2894 C2895 1.369 . S
C2894 C2896 1.419 . S
C2894 H2898 0.930 . S
C2895 C2894 1.369 . S
C2895 C2904 1.429 . S
C2896 C2894 1.419 . S
C2896 C2897 1.363 . S
C2896 H2899 0.929 . S
C2897 C2896 1.363 . S
C2897 C2903 1.428 . S
H2898 C2894 0.930 . S
H2899 C2896 0.929 . S
S2900 N2901 1.613 . S
S2900 N2902 1.610 . S
N2901 S2900 1.613 . S
N2901 C2904 1.350 1_545 S
N2902 S2900 1.610 . S
N2902 C2903 1.351 1_545 S
C2903 C2897 1.428 . S
C2903 N2902 1.351 1_565 S
C2903 C2904 1.434 . S
C2904 C2895 1.429 . S
C2904 N2901 1.350 1_565 S
C2904 C2903 1.434 . S
C2905 C2906 1.369 . S
C2905 C2907 1.419 . S
C2905 H2909 0.930 . S
C2906 C2905 1.369 . S
C2906 C2915 1.429 . S
C2907 C2905 1.419 . S
C2907 C2908 1.363 . S
C2907 H2910 0.929 . S
C2908 C2907 1.363 . S
C2908 C2914 1.428 . S
H2909 C2905 0.930 . S
H2910 C2907 0.929 . S
S2911 N2912 1.613 . S
S2911 N2913 1.610 . S
N2912 S2911 1.613 . S
N2912 C2915 1.350 . S
N2913 S2911 1.610 . S
N2913 C2914 1.351 . S
C2914 C2908 1.428 . S
C2914 N2913 1.351 . S
C2914 C2915 1.434 . S
C2915 C2906 1.429 . S
C2915 N2912 1.350 . S
C2915 C2914 1.434 . S
C2916 C2917 1.369 . S
C2916 C2918 1.419 . S
C2916 H2920 0.930 1_565 S
C2917 C2916 1.369 . S
C2917 C2926 1.429 . S
C2918 C2916 1.419 . S
C2918 C2919 1.363 . S
C2918 H2921 0.929 1_565 S
C2919 C2918 1.363 . S
C2919 C2925 1.428 . S
H2920 C2916 0.930 1_545 S
H2921 C2918 0.929 1_545 S
S2922 N2923 1.613 . S
S2922 N2924 1.610 . S
N2923 S2922 1.613 . S
N2923 C2926 1.350 . S
N2924 S2922 1.610 . S
N2924 C2925 1.351 . S
C2925 C2919 1.428 . S
C2925 N2924 1.351 . S
C2925 C2926 1.434 . S
C2926 C2917 1.429 . S
C2926 N2923 1.350 . S
C2926 C2925 1.434 . S
C2927 C2928 1.369 . S
C2927 C2929 1.419 . S
C2927 H2931 0.930 . S
C2928 C2927 1.369 . S
C2928 C2937 1.429 . S
C2929 C2927 1.419 . S
C2929 C2930 1.363 . S
C2929 H2932 0.929 . S
C2930 C2929 1.363 . S
C2930 C2936 1.428 . S
H2931 C2927 0.930 . S
H2932 C2929 0.929 . S
S2933 N2934 1.613 . S
S2933 N2935 1.610 . S
N2934 S2933 1.613 . S
N2934 C2937 1.350 . S
N2935 S2933 1.610 . S
N2935 C2936 1.351 . S
C2936 C2930 1.428 . S
C2936 N2935 1.351 . S
C2936 C2937 1.434 . S
C2937 C2928 1.429 . S
C2937 N2934 1.350 . S
C2937 C2936 1.434 . S
C2938 C2939 1.369 . S
C2938 C2940 1.419 . S
C2938 H2942 0.930 . S
C2939 C2938 1.369 . S
C2939 C2948 1.429 . S
C2940 C2938 1.419 . S
C2940 C2941 1.363 . S
C2940 H2943 0.929 . S
C2941 C2940 1.363 . S
C2941 C2947 1.428 . S
H2942 C2938 0.930 . S
H2943 C2940 0.929 . S
S2944 N2945 1.613 . S
S2944 N2946 1.610 . S
N2945 S2944 1.613 . S
N2945 C2948 1.350 . S
N2946 S2944 1.610 . S
N2946 C2947 1.351 . S
C2947 C2941 1.428 . S
C2947 N2946 1.351 . S
C2947 C2948 1.434 . S
C2948 C2939 1.429 . S
C2948 N2945 1.350 . S
C2948 C2947 1.434 . S
C2949 C2950 1.369 . S
C2949 C2951 1.419 . S
C2949 H2953 0.930 . S
C2950 C2949 1.369 . S
C2950 C2959 1.429 . S
C2951 C2949 1.419 . S
C2951 C2952 1.363 . S
C2951 H2954 0.929 . S
C2952 C2951 1.363 . S
C2952 C2958 1.428 . S
H2953 C2949 0.930 . S
H2954 C2951 0.929 . S
S2955 N2956 1.613 . S
S2955 N2957 1.610 . S
N2956 S2955 1.613 . S
N2956 C2959 1.350 . S
N2957 S2955 1.610 . S
N2957 C2958 1.351 . S
C2958 C2952 1.428 . S
C2958 N2957 1.351 . S
C2958 C2959 1.434 . S
C2959 C2950 1.429 . S
C2959 N2956 1.350 . S
C2959 C2958 1.434 . S
C2960 C2961 1.369 . S
C2960 C2962 1.419 . S
C2960 H2964 0.961 . S
C2961 C2960 1.369 . S
C2961 C2970 1.429 . S
C2962 C2960 1.419 . S
C2962 C2963 1.363 . S
C2962 H2965 0.929 1_554 S
C2963 C2962 1.363 . S
C2963 C2969 1.428 . S
H2964 C2960 0.961 . S
H2965 C2962 0.929 1_556 S
S2966 N2967 1.613 . S
S2966 N2968 1.610 . S
N2967 S2966 1.613 . S
N2967 C2970 1.350 . S
N2968 S2966 1.610 . S
N2968 C2969 1.351 . S
C2969 C2963 1.428 . S
C2969 N2968 1.351 . S
C2969 C2970 1.434 . S
C2970 C2961 1.429 . S
C2970 N2967 1.350 . S
C2970 C2969 1.434 . S
C2971 C2972 1.369 . S
C2971 C2973 1.419 . S
C2971 H2975 0.930 . S
C2972 C2971 1.369 . S
C2972 C2981 1.429 . S
C2973 C2971 1.419 . S
C2973 C2974 1.363 . S
C2973 H2976 0.929 . S
C2974 C2973 1.363 . S
C2974 C2980 1.428 . S
H2975 C2971 0.930 . S
H2976 C2973 0.929 . S
S2977 N2978 1.613 . S
S2977 N2979 1.610 . S
N2978 S2977 1.613 . S
N2978 C2981 1.350 1_554 S
N2979 S2977 1.610 . S
N2979 C2980 1.351 1_554 S
C2980 C2974 1.428 . S
C2980 N2979 1.351 1_556 S
C2980 C2981 1.434 . S
C2981 C2972 1.429 . S
C2981 N2978 1.350 1_556 S
C2981 C2980 1.434 . S
C2982 C2983 1.369 . S
C2982 C2984 1.419 . S
C2982 H2986 0.930 . S
C2983 C2982 1.369 . S
C2983 C2992 1.429 . S
C2984 C2982 1.419 . S
C2984 C2985 1.363 . S
C2984 H2987 0.929 . S
C2985 C2984 1.363 . S
C2985 C2991 1.428 . S
H2986 C2982 0.930 . S
H2987 C2984 0.929 . S
S2988 N2989 1.613 . S
S2988 N2990 1.610 . S
N2989 S2988 1.613 . S
N2989 C2992 1.350 . S
N2990 S2988 1.610 . S
N2990 C2991 1.351 . S
C2991 C2985 1.428 . S
C2991 N2990 1.351 . S
C2991 C2992 1.434 . S
C2992 C2983 1.429 . S
C2992 N2989 1.350 . S
C2992 C2991 1.434 . S
C2993 C2994 1.369 . S
C2993 C2995 1.419 . S
C2993 H2997 0.930 . S
C2994 C2993 1.369 . S
C2994 C3003 1.429 . S
C2995 C2993 1.419 . S
C2995 C2996 1.363 . S
C2995 H2998 0.929 . S
C2996 C2995 1.363 . S
C2996 C3002 1.428 . S
H2997 C2993 0.930 . S
H2998 C2995 0.929 . S
S2999 N3000 1.613 . S
S2999 N3001 1.610 . S
N3000 S2999 1.613 . S
N3000 C3003 1.350 . S
N3001 S2999 1.610 . S
N3001 C3002 1.351 . S
C3002 C2996 1.428 . S
C3002 N3001 1.351 . S
C3002 C3003 1.434 . S
C3003 C2994 1.429 . S
C3003 N3000 1.350 . S
C3003 C3002 1.434 . S
C3004 C3005 1.369 . S
C3004 C3006 1.419 . S
C3004 H3008 0.930 . S
C3005 C3004 1.369 . S
C3005 C3014 1.429 . S
C3006 C3004 1.419 . S
C3006 C3007 1.363 . S
C3006 H3009 0.929 . S
C3007 C3006 1.363 . S
C3007 C3013 1.428 . S
H3008 C3004 0.930 . S
H3009 C3006 0.929 . S
S3010 N3011 1.613 . S
S3010 N3012 1.610 . S
N3011 S3010 1.613 . S
N3011 C3014 1.350 . S
N3012 S3010 1.610 . S
N3012 C3013 1.351 . S
C3013 C3007 1.428 . S
C3013 N3012 1.351 . S
C3013 C3014 1.434 . S
C3014 C3005 1.429 . S
C3014 N3011 1.350 . S
C3014 C3013 1.434 . S
C3015 C3016 1.369 . S
C3015 C3017 1.419 . S
C3015 H3019 0.930 . S
C3016 C3015 1.369 . S
C3016 C3025 1.429 . S
C3017 C3015 1.419 . S
C3017 C3018 1.363 . S
C3017 H3020 0.929 . S
C3018 C3017 1.363 . S
C3018 C3024 1.428 . S
H3019 C3015 0.930 . S
H3020 C3017 0.929 . S
S3021 N3022 1.613 . S
S3021 N3023 1.610 . S
N3022 S3021 1.613 . S
N3022 C3025 1.350 . S
N3023 S3021 1.610 . S
N3023 C3024 1.351 . S
C3024 C3018 1.428 . S
C3024 N3023 1.351 . S
C3024 C3025 1.434 . S
C3025 C3016 1.429 . S
C3025 N3022 1.350 . S
C3025 C3024 1.434 . S
C3026 C3027 1.369 . S
C3026 C3028 1.419 . S
C3026 H3030 0.930 . S
C3027 C3026 1.369 . S
C3027 C3036 1.429 . S
C3028 C3026 1.419 . S
C3028 C3029 1.363 . S
C3028 H3031 0.929 . S
C3029 C3028 1.363 . S
C3029 C3035 1.428 . S
H3030 C3026 0.930 . S
H3031 C3028 0.929 . S
S3032 N3033 1.613 . S
S3032 N3034 1.610 . S
N3033 S3032 1.613 . S
N3033 C3036 1.350 . S
N3034 S3032 1.610 . S
N3034 C3035 1.351 . S
C3035 C3029 1.428 . S
C3035 N3034 1.351 . S
C3035 C3036 1.434 . S
C3036 C3027 1.429 . S
C3036 N3033 1.350 . S
C3036 C3035 1.434 . S
C3037 C3038 1.369 . S
C3037 C3039 1.419 . S
C3037 H3041 0.930 . S
C3038 C3037 1.369 . S
C3038 C3047 1.429 . S
C3039 C3037 1.419 . S
C3039 C3040 1.363 . S
C3039 H3042 0.929 . S
C3040 C3039 1.363 . S
C3040 C3046 1.428 . S
H3041 C3037 0.930 . S
H3042 C3039 0.929 . S
S3043 N3044 1.613 . S
S3043 N3045 1.610 . S
N3044 S3043 1.613 . S
N3044 C3047 1.350 . S
N3045 S3043 1.610 . S
N3045 C3046 1.351 . S
C3046 C3040 1.428 . S
C3046 N3045 1.351 . S
C3046 C3047 1.434 . S
C3047 C3038 1.429 . S
C3047 N3044 1.350 . S
C3047 C3046 1.434 . S
C3048 C3049 1.369 . S
C3048 C3050 1.419 . S
C3048 H3052 0.930 . S
C3049 C3048 1.369 . S
C3049 C3058 1.429 . S
C3050 C3048 1.419 . S
C3050 C3051 1.363 . S
C3050 H3053 0.929 . S
C3051 C3050 1.363 . S
C3051 C3057 1.428 . S
H3052 C3048 0.930 . S
H3053 C3050 0.929 . S
S3054 N3055 1.613 . S
S3054 N3056 1.610 . S
N3055 S3054 1.613 . S
N3055 C3058 1.350 . S
N3056 S3054 1.610 . S
N3056 C3057 1.351 . S
C3057 C3051 1.428 . S
C3057 N3056 1.351 . S
C3057 C3058 1.434 . S
C3058 C3049 1.429 . S
C3058 N3055 1.350 . S
C3058 C3057 1.434 . S
C3059 C3060 1.369 . S
C3059 C3061 1.419 . S
C3059 H3063 0.930 . S
C3060 C3059 1.369 . S
C3060 C3069 1.429 . S
C3061 C3059 1.419 . S
C3061 C3062 1.363 . S
C3061 H3064 0.929 . S
C3062 C3061 1.363 . S
C3062 C3068 1.428 . S
H3063 C3059 0.930 . S
H3064 C3061 0.929 . S
S3065 N3066 1.613 . S
S3065 N3067 1.610 . S
N3066 S3065 1.613 . S
N3066 C3069 1.350 . S
N3067 S3065 1.610 . S
N3067 C3068 1.351 . S
C3068 C3062 1.428 . S
C3068 N3067 1.351 . S
C3068 C3069 1.434 . S
C3069 C3060 1.429 . S
C3069 N3066 1.350 . S
C3069 C3068 1.434 . S
C3070 C3071 1.369 . S
C3070 C3072 1.419 . S
C3070 H3074 0.930 . S
C3071 C3070 1.369 . S
C3071 C3080 1.429 . S
C3072 C3070 1.419 . S
C3072 C3073 1.363 . S
C3072 H3075 0.929 . S
C3073 C3072 1.363 . S
C3073 C3079 1.428 . S
H3074 C3070 0.930 . S
H3075 C3072 0.929 . S
S3076 N3077 1.613 . S
S3076 N3078 1.610 . S
N3077 S3076 1.613 . S
N3077 C3080 1.350 . S
N3078 S3076 1.610 . S
N3078 C3079 1.351 . S
C3079 C3073 1.428 . S
C3079 N3078 1.351 . S
C3079 C3080 1.434 . S
C3080 C3071 1.429 . S
C3080 N3077 1.350 . S
C3080 C3079 1.434 . S
C3081 C3082 1.369 . S
C3081 C3083 1.419 . S
C3081 H3085 0.930 . S
C3082 C3081 1.369 . S
C3082 C3091 1.429 . S
C3083 C3081 1.419 . S
C3083 C3084 1.363 . S
C3083 H3086 0.929 . S
C3084 C3083 1.363 . S
C3084 C3090 1.428 . S
H3085 C3081 0.930 . S
H3086 C3083 0.929 . S
S3087 N3088 1.613 . S
S3087 N3089 1.610 . S
N3088 S3087 1.613 . S
N3088 C3091 1.350 . S
N3089 S3087 1.610 . S
N3089 C3090 1.351 . S
C3090 C3084 1.428 . S
C3090 N3089 1.351 . S
C3090 C3091 1.434 . S
C3091 C3082 1.429 . S
C3091 N3088 1.350 . S
C3091 C3090 1.434 . S
C3092 C3093 1.369 . S
C3092 C3094 1.419 . S
C3092 H3096 0.930 . S
C3093 C3092 1.369 . S
C3093 C3102 1.429 . S
C3094 C3092 1.419 . S
C3094 C3095 1.363 . S
C3094 H3097 0.929 . S
C3095 C3094 1.363 . S
C3095 C3101 1.428 . S
H3096 C3092 0.930 . S
H3097 C3094 0.929 . S
S3098 N3099 1.613 . S
S3098 N3100 1.610 . S
N3099 S3098 1.613 . S
N3099 C3102 1.350 . S
N3100 S3098 1.610 . S
N3100 C3101 1.351 . S
C3101 C3095 1.428 . S
C3101 N3100 1.351 . S
C3101 C3102 1.434 . S
C3102 C3093 1.429 . S
C3102 N3099 1.350 . S
C3102 C3101 1.434 . S
C3103 C3104 1.369 . S
C3103 C3105 1.419 . S
C3103 H3107 0.930 . S
C3104 C3103 1.369 . S
C3104 C3113 1.429 . S
C3105 C3103 1.419 . S
C3105 C3106 1.363 . S
C3105 H3108 0.929 . S
C3106 C3105 1.363 . S
C3106 C3112 1.428 . S
H3107 C3103 0.930 . S
H3108 C3105 0.929 . S
S3109 N3110 1.613 . S
S3109 N3111 1.610 . S
N3110 S3109 1.613 . S
N3110 C3113 1.350 . S
N3111 S3109 1.610 . S
N3111 C3112 1.351 . S
C3112 C3106 1.428 . S
C3112 N3111 1.351 . S
C3112 C3113 1.434 . S
C3113 C3104 1.429 . S
C3113 N3110 1.350 . S
C3113 C3112 1.434 . S
C3114 C3115 1.369 . S
C3114 C3116 1.419 . S
C3114 H3118 0.930 . S
C3115 C3114 1.369 . S
C3115 C3124 1.429 . S
C3116 C3114 1.419 . S
C3116 C3117 1.363 . S
C3116 H3119 0.929 . S
C3117 C3116 1.363 . S
C3117 C3123 1.428 . S
H3118 C3114 0.930 . S
H3119 C3116 0.929 . S
S3120 N3121 1.613 . S
S3120 N3122 1.610 . S
N3121 S3120 1.613 . S
N3121 C3124 1.350 . S
N3122 S3120 1.610 . S
N3122 C3123 1.351 . S
C3123 C3117 1.428 . S
C3123 N3122 1.351 . S
C3123 C3124 1.434 . S
C3124 C3115 1.429 . S
C3124 N3121 1.350 . S
C3124 C3123 1.434 . S
C3125 C3126 1.369 . S
C3125 C3127 1.419 . S
C3125 H3129 0.930 . S
C3126 C3125 1.369 . S
C3126 C3135 1.429 . S
C3127 C3125 1.419 . S
C3127 C3128 1.363 . S
C3127 H3130 0.929 . S
C3128 C3127 1.363 . S
C3128 C3134 1.428 . S
H3129 C3125 0.930 . S
H3130 C3127 0.929 . S
S3131 N3132 1.613 . S
S3131 N3133 1.610 . S
N3132 S3131 1.613 . S
N3132 C3135 1.350 . S
N3133 S3131 1.610 . S
N3133 C3134 1.351 . S
C3134 C3128 1.428 . S
C3134 N3133 1.351 . S
C3134 C3135 1.434 . S
C3135 C3126 1.429 . S
C3135 N3132 1.350 . S
C3135 C3134 1.434 . S
C3136 C3137 1.369 . S
C3136 C3138 1.419 . S
C3136 H3140 0.930 . S
C3137 C3136 1.369 . S
C3137 C3146 1.429 . S
C3138 C3136 1.419 . S
C3138 C3139 1.363 . S
C3138 H3141 0.929 . S
C3139 C3138 1.363 . S
C3139 C3145 1.428 . S
H3140 C3136 0.930 . S
H3141 C3138 0.929 . S
S3142 N3143 1.613 . S
S3142 N3144 1.610 . S
N3143 S3142 1.613 . S
N3143 C3146 1.350 1_545 S
N3144 S3142 1.610 . S
N3144 C3145 1.351 1_545 S
C3145 C3139 1.428 . S
C3145 N3144 1.351 1_565 S
C3145 C3146 1.434 . S
C3146 C3137 1.429 . S
C3146 N3143 1.350 1_565 S
C3146 C3145 1.434 . S
C3147 C3148 1.369 . S
C3147 C3149 1.419 . S
C3147 H3151 0.930 . S
C3148 C3147 1.369 . S
C3148 C3157 1.429 . S
C3149 C3147 1.419 . S
C3149 C3150 1.363 . S
C3149 H3152 0.929 . S
C3150 C3149 1.363 . S
C3150 C3156 1.428 . S
H3151 C3147 0.930 . S
H3152 C3149 0.929 . S
S3153 N3154 1.613 . S
S3153 N3155 1.610 . S
N3154 S3153 1.613 . S
N3154 C3157 1.350 . S
N3155 S3153 1.610 . S
N3155 C3156 1.351 . S
C3156 C3150 1.428 . S
C3156 N3155 1.351 . S
C3156 C3157 1.434 . S
C3157 C3148 1.429 . S
C3157 N3154 1.350 . S
C3157 C3156 1.434 . S
C3158 C3159 1.369 . S
C3158 C3160 1.419 . S
C3158 H3162 0.930 . S
C3159 C3158 1.369 . S
C3159 C3168 1.429 . S
C3160 C3158 1.419 . S
C3160 C3161 1.363 . S
C3160 H3163 0.929 . S
C3161 C3160 1.363 . S
C3161 C3167 1.428 . S
H3162 C3158 0.930 . S
H3163 C3160 0.929 . S
S3164 N3165 1.613 . S
S3164 N3166 1.610 . S
N3165 S3164 1.613 . S
N3165 C3168 1.350 1_565 S
N3166 S3164 1.610 . S
N3166 C3167 1.351 1_565 S
C3167 C3161 1.428 . S
C3167 N3166 1.351 1_545 S
C3167 C3168 1.434 . S
C3168 C3159 1.429 . S
C3168 N3165 1.350 1_545 S
C3168 C3167 1.434 . S
C3169 C3170 1.369 . S
C3169 C3171 1.419 . S
C3169 H3173 0.930 . S
C3170 C3169 1.369 . S
C3170 C3179 1.429 . S
C3171 C3169 1.419 . S
C3171 C3172 1.363 . S
C3171 H3174 0.929 . S
C3172 C3171 1.363 . S
C3172 C3178 1.428 . S
H3173 C3169 0.930 . S
H3174 C3171 0.929 . S
S3175 N3176 1.613 . S
S3175 N3177 1.610 . S
N3176 S3175 1.613 . S
N3176 C3179 1.350 . S
N3177 S3175 1.610 . S
N3177 C3178 1.351 . S
C3178 C3172 1.428 . S
C3178 N3177 1.351 . S
C3178 C3179 1.434 . S
C3179 C3170 1.429 . S
C3179 N3176 1.350 . S
C3179 C3178 1.434 . S
C3180 C3181 1.369 . S
C3180 C3182 1.419 . S
C3180 H3184 0.930 . S
C3181 C3180 1.369 . S
C3181 C3190 1.429 . S
C3182 C3180 1.419 . S
C3182 C3183 1.363 . S
C3182 H3185 0.929 . S
C3183 C3182 1.363 . S
C3183 C3189 1.428 . S
H3184 C3180 0.930 . S
H3185 C3182 0.929 . S
S3186 N3187 1.613 . S
S3186 N3188 1.610 . S
N3187 S3186 1.613 . S
N3187 C3190 1.350 1_565 S
N3188 S3186 1.610 . S
N3188 C3189 1.351 1_565 S
C3189 C3183 1.428 . S
C3189 N3188 1.351 1_545 S
C3189 C3190 1.434 . S
C3190 C3181 1.429 . S
C3190 N3187 1.350 1_545 S
C3190 C3189 1.434 . S
C3191 C3192 1.369 . S
C3191 C3193 1.419 . S
C3191 H3195 0.930 . S
C3192 C3191 1.369 . S
C3192 C3201 1.429 . S
C3193 C3191 1.419 . S
C3193 C3194 1.363 . S
C3193 H3196 0.929 . S
C3194 C3193 1.363 . S
C3194 C3200 1.428 . S
H3195 C3191 0.930 . S
H3196 C3193 0.929 . S
S3197 N3198 1.613 . S
S3197 N3199 1.610 . S
N3198 S3197 1.613 . S
N3198 C3201 1.350 . S
N3199 S3197 1.610 . S
N3199 C3200 1.351 . S
C3200 C3194 1.428 . S
C3200 N3199 1.351 . S
C3200 C3201 1.434 . S
C3201 C3192 1.429 . S
C3201 N3198 1.350 . S
C3201 C3200 1.434 . S
C3202 C3203 1.369 . S
C3202 C3204 1.419 . S
C3202 H3206 0.930 1_565 S
C3203 C3202 1.369 . S
C3203 C3212 1.429 . S
C3204 C3202 1.419 . S
C3204 C3205 1.363 . S
C3204 H3207 0.929 1_565 S
C3205 C3204 1.363 . S
C3205 C3211 1.428 . S
H3206 C3202 0.930 1_545 S
H3207 C3204 0.929 1_545 S
S3208 N3209 1.613 . S
S3208 N3210 1.610 . S
N3209 S3208 1.613 . S
N3209 C3212 1.350 . S
N3210 S3208 1.610 . S
N3210 C3211 1.351 . S
C3211 C3205 1.428 . S
C3211 N3210 1.351 . S
C3211 C3212 1.434 . S
C3212 C3203 1.429 . S
C3212 N3209 1.350 . S
C3212 C3211 1.434 . S
C3213 C3214 1.369 . S
C3213 C3215 1.419 . S
C3213 H3217 0.930 . S
C3214 C3213 1.369 . S
C3214 C3223 1.429 . S
C3215 C3213 1.419 . S
C3215 C3216 1.363 . S
C3215 H3218 0.929 . S
C3216 C3215 1.363 . S
C3216 C3222 1.428 . S
H3217 C3213 0.930 . S
H3218 C3215 0.929 . S
S3219 N3220 1.613 . S
S3219 N3221 1.610 . S
N3220 S3219 1.613 . S
N3220 C3223 1.350 . S
N3221 S3219 1.610 . S
N3221 C3222 1.351 . S
C3222 C3216 1.428 . S
C3222 N3221 1.351 . S
C3222 C3223 1.434 . S
C3223 C3214 1.429 . S
C3223 N3220 1.350 . S
C3223 C3222 1.434 . S
C3224 C3225 1.369 . S
C3224 C3226 1.419 . S
C3224 H3228 0.930 . S
C3225 C3224 1.369 . S
C3225 C3234 1.429 . S
C3226 C3224 1.419 . S
C3226 C3227 1.363 . S
C3226 H3229 0.929 . S
C3227 C3226 1.363 . S
C3227 C3233 1.428 . S
H3228 C3224 0.930 . S
H3229 C3226 0.929 . S
S3230 N3231 1.613 . S
S3230 N3232 1.636 . S
N3231 S3230 1.613 . S
N3231 C3234 1.350 1_554 S
N3232 S3230 1.636 . S
N3232 C3233 1.326 1_554 S
C3233 C3227 1.428 . S
C3233 N3232 1.326 1_556 S
C3233 C3234 1.434 . S
C3234 C3225 1.429 . S
C3234 N3231 1.350 1_556 S
C3234 C3233 1.434 . S
C3235 C3236 1.369 . S
C3235 C3237 1.419 . S
C3235 H3239 0.930 . S
C3236 C3235 1.369 . S
C3236 C3245 1.429 . S
C3237 C3235 1.419 . S
C3237 C3238 1.363 . S
C3237 H3240 0.929 . S
C3238 C3237 1.363 . S
C3238 C3244 1.428 . S
H3239 C3235 0.930 . S
H3240 C3237 0.929 . S
S3241 N3242 1.613 . S
S3241 N3243 1.610 . S
N3242 S3241 1.613 . S
N3242 C3245 1.350 . S
N3243 S3241 1.610 . S
N3243 C3244 1.351 . S
C3244 C3238 1.428 . S
C3244 N3243 1.351 . S
C3244 C3245 1.434 . S
C3245 C3236 1.429 . S
C3245 N3242 1.350 . S
C3245 C3244 1.434 . S
C3246 C3247 1.369 . S
C3246 C3248 1.419 . S
C3246 H3250 0.930 . S
C3247 C3246 1.369 . S
C3247 C3256 1.429 . S
C3248 C3246 1.419 . S
C3248 C3249 1.363 . S
C3248 H3251 0.929 . S
C3249 C3248 1.363 . S
C3249 C3255 1.428 . S
H3250 C3246 0.930 . S
H3251 C3248 0.929 . S
S3252 N3253 1.613 . S
S3252 N3254 1.610 . S
N3253 S3252 1.613 . S
N3253 C3256 1.350 . S
N3254 S3252 1.610 . S
N3254 C3255 1.351 . S
C3255 C3249 1.428 . S
C3255 N3254 1.351 . S
C3255 C3256 1.434 . S
C3256 C3247 1.429 . S
C3256 N3253 1.350 . S
C3256 C3255 1.434 . S
C3257 C3258 1.369 . S
C3257 C3259 1.419 . S
C3257 H3261 0.930 . S
C3258 C3257 1.369 . S
C3258 C3267 1.429 . S
C3259 C3257 1.419 . S
C3259 C3260 1.363 . S
C3259 H3262 0.929 . S
C3260 C3259 1.363 . S
C3260 C3266 1.428 . S
H3261 C3257 0.930 . S
H3262 C3259 0.929 . S
S3263 N3264 1.613 . S
S3263 N3265 1.610 . S
N3264 S3263 1.613 . S
N3264 C3267 1.350 . S
N3265 S3263 1.610 . S
N3265 C3266 1.351 . S
C3266 C3260 1.428 . S
C3266 N3265 1.351 . S
C3266 C3267 1.434 . S
C3267 C3258 1.429 . S
C3267 N3264 1.350 . S
C3267 C3266 1.434 . S
C3268 C3269 1.369 . S
C3268 C3270 1.419 . S
C3268 H3272 0.930 . S
C3269 C3268 1.369 . S
C3269 C3278 1.429 . S
C3270 C3268 1.419 . S
C3270 C3271 1.363 . S
C3270 H3273 0.929 . S
C3271 C3270 1.363 . S
C3271 C3277 1.428 . S
H3272 C3268 0.930 . S
H3273 C3270 0.929 . S
S3274 N3275 1.613 . S
S3274 N3276 1.610 . S
N3275 S3274 1.613 . S
N3275 C3278 1.350 . S
N3276 S3274 1.610 . S
N3276 C3277 1.351 . S
C3277 C3271 1.428 . S
C3277 N3276 1.351 . S
C3277 C3278 1.434 . S
C3278 C3269 1.429 . S
C3278 N3275 1.350 . S
C3278 C3277 1.434 . S
C3279 C3280 1.369 . S
C3279 C3281 1.419 . S
C3279 H3283 0.930 . S
C3280 C3279 1.369 . S
C3280 C3289 1.429 . S
C3281 C3279 1.419 . S
C3281 C3282 1.363 . S
C3281 H3284 0.929 . S
C3282 C3281 1.363 . S
C3282 C3288 1.428 . S
H3283 C3279 0.930 . S
H3284 C3281 0.929 . S
S3285 N3286 1.613 . S
S3285 N3287 1.610 . S
N3286 S3285 1.613 . S
N3286 C3289 1.350 . S
N3287 S3285 1.610 . S
N3287 C3288 1.351 . S
C3288 C3282 1.428 . S
C3288 N3287 1.351 . S
C3288 C3289 1.434 . S
C3289 C3280 1.429 . S
C3289 N3286 1.350 . S
C3289 C3288 1.434 . S
C3290 C3291 1.369 . S
C3290 C3292 1.419 . S
C3290 H3294 0.930 . S
C3291 C3290 1.369 . S
C3291 C3300 1.429 . S
C3292 C3290 1.419 . S
C3292 C3293 1.363 . S
C3292 H3295 0.929 . S
C3293 C3292 1.363 . S
C3293 C3299 1.428 . S
H3294 C3290 0.930 . S
H3295 C3292 0.929 . S
S3296 N3297 1.613 . S
S3296 N3298 1.610 . S
N3297 S3296 1.613 . S
N3297 C3300 1.350 . S
N3298 S3296 1.610 . S
N3298 C3299 1.351 . S
C3299 C3293 1.428 . S
C3299 N3298 1.351 . S
C3299 C3300 1.434 . S
C3300 C3291 1.429 . S
C3300 N3297 1.350 . S
C3300 C3299 1.434 . S
C3301 C3302 1.369 . S
C3301 C3303 1.419 . S
C3301 H3305 0.930 . S
C3302 C3301 1.369 . S
C3302 C3311 1.429 . S
C3303 C3301 1.419 . S
C3303 C3304 1.363 . S
C3303 H3306 0.929 . S
C3304 C3303 1.363 . S
C3304 C3310 1.428 . S
H3305 C3301 0.930 . S
H3306 C3303 0.929 . S
S3307 N3308 1.613 . S
S3307 N3309 1.610 . S
N3308 S3307 1.613 . S
N3308 C3311 1.350 . S
N3309 S3307 1.610 . S
N3309 C3310 1.351 . S
C3310 C3304 1.428 . S
C3310 N3309 1.351 . S
C3310 C3311 1.434 . S
C3311 C3302 1.429 . S
C3311 N3308 1.350 . S
C3311 C3310 1.434 . S
C3312 C3313 1.369 . S
C3312 C3314 1.419 . S
C3312 H3316 0.930 . S
C3313 C3312 1.369 . S
C3313 C3322 1.429 . S
C3314 C3312 1.419 . S
C3314 C3315 1.363 . S
C3314 H3317 0.929 . S
C3315 C3314 1.363 . S
C3315 C3321 1.428 . S
H3316 C3312 0.930 . S
H3317 C3314 0.929 . S
S3318 N3319 1.613 . S
S3318 N3320 1.610 . S
N3319 S3318 1.613 . S
N3319 C3322 1.350 . S
N3320 S3318 1.610 . S
N3320 C3321 1.351 . S
C3321 C3315 1.428 . S
C3321 N3320 1.351 . S
C3321 C3322 1.434 . S
C3322 C3313 1.429 . S
C3322 N3319 1.350 . S
C3322 C3321 1.434 . S
C3323 C3324 1.369 . S
C3323 C3325 1.419 . S
C3323 H3327 0.930 . S
C3324 C3323 1.369 . S
C3324 C3333 1.429 . S
C3325 C3323 1.419 . S
C3325 C3326 1.363 . S
C3325 H3328 0.929 . S
C3326 C3325 1.363 . S
C3326 C3332 1.428 . S
H3327 C3323 0.930 . S
H3328 C3325 0.929 . S
S3329 N3330 1.613 . S
S3329 N3331 1.610 . S
N3330 S3329 1.613 . S
N3330 C3333 1.350 . S
N3331 S3329 1.610 . S
N3331 C3332 1.351 . S
C3332 C3326 1.428 . S
C3332 N3331 1.351 . S
C3332 C3333 1.434 . S
C3333 C3324 1.429 . S
C3333 N3330 1.350 . S
C3333 C3332 1.434 . S
C3334 C3335 1.369 . S
C3334 C3336 1.419 . S
C3334 H3338 0.930 . S
C3335 C3334 1.369 . S
C3335 C3344 1.429 . S
C3336 C3334 1.419 . S
C3336 C3337 1.363 . S
C3336 H3339 0.929 . S
C3337 C3336 1.363 . S
C3337 C3343 1.428 . S
H3338 C3334 0.930 . S
H3339 C3336 0.929 . S
S3340 N3341 1.613 1_455 S
S3340 N3342 1.610 1_455 S
N3341 S3340 1.613 1_655 S
N3341 C3344 1.350 . S
N3342 S3340 1.610 1_655 S
N3342 C3343 1.351 . S
C3343 C3337 1.428 . S
C3343 N3342 1.351 . S
C3343 C3344 1.434 . S
C3344 C3335 1.429 . S
C3344 N3341 1.350 . S
C3344 C3343 1.434 . S
C3345 C3346 1.369 . S
C3345 C3347 1.419 . S
C3345 H3349 0.930 . S
C3346 C3345 1.369 . S
C3346 C3355 1.429 . S
C3347 C3345 1.419 . S
C3347 C3348 1.363 . S
C3347 H3350 0.929 . S
C3348 C3347 1.363 . S
C3348 C3354 1.428 . S
H3349 C3345 0.930 . S
H3350 C3347 0.929 . S
S3351 N3352 1.613 . S
S3351 N3353 1.610 . S
N3352 S3351 1.613 . S
N3352 C3355 1.350 . S
N3353 S3351 1.610 . S
N3353 C3354 1.351 . S
C3354 C3348 1.428 . S
C3354 N3353 1.351 . S
C3354 C3355 1.434 . S
C3355 C3346 1.429 . S
C3355 N3352 1.350 . S
C3355 C3354 1.434 . S
C3356 C3357 1.369 . S
C3356 C3358 1.419 . S
C3356 H3360 0.930 . S
C3357 C3356 1.369 . S
C3357 C3366 1.429 . S
C3358 C3356 1.419 . S
C3358 C3359 1.363 . S
C3358 H3361 0.929 . S
C3359 C3358 1.363 . S
C3359 C3365 1.428 . S
H3360 C3356 0.930 . S
H3361 C3358 0.929 . S
S3362 N3363 1.613 . S
S3362 N3364 1.610 . S
N3363 S3362 1.613 . S
N3363 C3366 1.350 . S
N3364 S3362 1.610 . S
N3364 C3365 1.351 . S
C3365 C3359 1.428 . S
C3365 N3364 1.351 . S
C3365 C3366 1.434 . S
C3366 C3357 1.429 . S
C3366 N3363 1.350 . S
C3366 C3365 1.434 . S
C3367 C3368 1.369 . S
C3367 C3369 1.419 . S
C3367 H3371 0.930 . S
C3368 C3367 1.369 . S
C3368 C3377 1.429 . S
C3369 C3367 1.419 . S
C3369 C3370 1.363 . S
C3369 H3372 0.929 . S
C3370 C3369 1.363 . S
C3370 C3376 1.428 . S
H3371 C3367 0.930 . S
H3372 C3369 0.929 . S
S3373 N3374 1.613 . S
S3373 N3375 1.610 . S
N3374 S3373 1.613 . S
N3374 C3377 1.350 . S
N3375 S3373 1.610 . S
N3375 C3376 1.351 . S
C3376 C3370 1.428 . S
C3376 N3375 1.351 . S
C3376 C3377 1.434 . S
C3377 C3368 1.429 . S
C3377 N3374 1.350 . S
C3377 C3376 1.434 . S
C3378 C3379 1.369 . S
C3378 C3380 1.419 . S
C3378 H3382 0.930 . S
C3379 C3378 1.369 . S
C3379 C3388 1.429 . S
C3380 C3378 1.419 . S
C3380 C3381 1.363 . S
C3380 H3383 0.927 . S
C3381 C3380 1.363 . S
C3381 C3387 1.428 . S
H3382 C3378 0.930 . S
H3383 C3380 0.927 . S
S3384 N3385 1.613 . S
S3384 N3386 1.610 . S
N3385 S3384 1.613 . S
N3385 C3388 1.350 . S
N3386 S3384 1.610 . S
N3386 C3387 1.351 . S
C3387 C3381 1.428 . S
C3387 N3386 1.351 . S
C3387 C3388 1.434 . S
C3388 C3379 1.429 . S
C3388 N3385 1.350 . S
C3388 C3387 1.434 . S
C3389 C3390 1.369 . S
C3389 C3391 1.419 . S
C3389 H3393 0.930 . S
C3390 C3389 1.369 . S
C3390 C3399 1.429 . S
C3391 C3389 1.419 . S
C3391 C3392 1.363 . S
C3391 H3394 0.929 . S
C3392 C3391 1.363 . S
C3392 C3398 1.428 . S
H3393 C3389 0.930 . S
H3394 C3391 0.929 . S
S3395 N3396 1.613 . S
S3395 N3397 1.610 . S
N3396 S3395 1.613 . S
N3396 C3399 1.350 . S
N3397 S3395 1.610 . S
N3397 C3398 1.351 . S
C3398 C3392 1.428 . S
C3398 N3397 1.351 . S
C3398 C3399 1.434 . S
C3399 C3390 1.429 . S
C3399 N3396 1.350 . S
C3399 C3398 1.434 . S
C3400 C3401 1.369 . S
C3400 C3402 1.419 . S
C3400 H3404 0.930 . S
C3401 C3400 1.369 . S
C3401 C3410 1.429 . S
C3402 C3400 1.419 . S
C3402 C3403 1.363 . S
C3402 H3405 0.929 . S
C3403 C3402 1.363 . S
C3403 C3409 1.428 . S
H3404 C3400 0.930 . S
H3405 C3402 0.929 . S
S3406 N3407 1.613 . S
S3406 N3408 1.610 . S
N3407 S3406 1.613 . S
N3407 C3410 1.350 . S
N3408 S3406 1.610 . S
N3408 C3409 1.351 . S
C3409 C3403 1.428 . S
C3409 N3408 1.351 . S
C3409 C3410 1.434 . S
C3410 C3401 1.429 . S
C3410 N3407 1.350 . S
C3410 C3409 1.434 . S
C3411 C3412 1.369 . S
C3411 C3413 1.419 . S
C3411 H3415 0.930 . S
C3412 C3411 1.369 . S
C3412 C3421 1.429 . S
C3413 C3411 1.419 . S
C3413 C3414 1.363 . S
C3413 H3416 0.929 . S
C3414 C3413 1.363 . S
C3414 C3420 1.428 . S
H3415 C3411 0.930 . S
H3416 C3413 0.929 . S
S3417 N3418 1.613 . S
S3417 N3419 1.610 . S
N3418 S3417 1.613 . S
N3418 C3421 1.350 . S
N3419 S3417 1.610 . S
N3419 C3420 1.351 . S
C3420 C3414 1.428 . S
C3420 N3419 1.351 . S
C3420 C3421 1.434 . S
C3421 C3412 1.429 . S
C3421 N3418 1.350 . S
C3421 C3420 1.434 . S
C3422 C3423 1.369 . S
C3422 C3424 1.419 . S
C3422 H3426 0.930 . S
C3423 C3422 1.369 . S
C3423 C3432 1.429 . S
C3424 C3422 1.419 . S
C3424 C3425 1.363 . S
C3424 H3427 0.929 . S
C3425 C3424 1.363 . S
C3425 C3431 1.428 . S
H3426 C3422 0.930 . S
H3427 C3424 0.929 . S
S3428 N3429 1.613 . S
S3428 N3430 1.610 . S
N3429 S3428 1.613 . S
N3429 C3432 1.350 . S
N3430 S3428 1.610 . S
N3430 C3431 1.351 . S
C3431 C3425 1.428 . S
C3431 N3430 1.351 . S
C3431 C3432 1.434 . S
C3432 C3423 1.429 . S
C3432 N3429 1.350 . S
C3432 C3431 1.434 . S
C3433 C3434 1.369 . S
C3433 C3435 1.419 . S
C3433 H3437 0.930 . S
C3434 C3433 1.369 . S
C3434 C3443 1.429 . S
C3435 C3433 1.419 . S
C3435 C3436 1.363 . S
C3435 H3438 0.929 . S
C3436 C3435 1.363 . S
C3436 C3442 1.428 . S
H3437 C3433 0.930 . S
H3438 C3435 0.929 . S
S3439 N3440 1.613 . S
S3439 N3441 1.610 . S
N3440 S3439 1.613 . S
N3440 C3443 1.350 . S
N3441 S3439 1.610 . S
N3441 C3442 1.351 . S
C3442 C3436 1.428 . S
C3442 N3441 1.351 . S
C3442 C3443 1.434 . S
C3443 C3434 1.429 . S
C3443 N3440 1.350 . S
C3443 C3442 1.434 . S
C3444 C3445 1.369 . S
C3444 C3446 1.419 . S
C3444 H3448 0.930 . S
C3445 C3444 1.369 . S
C3445 C3454 1.429 . S
C3446 C3444 1.419 . S
C3446 C3447 1.363 . S
C3446 H3449 0.929 . S
C3447 C3446 1.363 . S
C3447 C3453 1.428 . S
H3448 C3444 0.930 . S
H3449 C3446 0.929 . S
S3450 N3451 1.613 . S
S3450 N3452 1.610 . S
N3451 S3450 1.613 . S
N3451 C3454 1.350 . S
N3452 S3450 1.610 . S
N3452 C3453 1.351 . S
C3453 C3447 1.428 . S
C3453 N3452 1.351 . S
C3453 C3454 1.434 . S
C3454 C3445 1.429 . S
C3454 N3451 1.350 . S
C3454 C3453 1.434 . S
C3455 C3456 1.369 . S
C3455 C3457 1.419 . S
C3455 H3459 0.930 . S
C3456 C3455 1.369 . S
C3456 C3465 1.429 . S
C3457 C3455 1.419 . S
C3457 C3458 1.363 . S
C3457 H3460 0.929 . S
C3458 C3457 1.363 . S
C3458 C3464 1.428 . S
H3459 C3455 0.930 . S
H3460 C3457 0.929 . S
S3461 N3462 1.613 . S
S3461 N3463 1.610 . S
N3462 S3461 1.613 . S
N3462 C3465 1.350 . S
N3463 S3461 1.610 . S
N3463 C3464 1.351 . S
C3464 C3458 1.428 . S
C3464 N3463 1.351 . S
C3464 C3465 1.434 . S
C3465 C3456 1.429 . S
C3465 N3462 1.350 . S
C3465 C3464 1.434 . S
C3466 C3467 1.369 . S
C3466 C3468 1.419 . S
C3466 H3470 0.930 . S
C3467 C3466 1.369 . S
C3467 C3476 1.429 . S
C3468 C3466 1.419 . S
C3468 C3469 1.363 . S
C3468 H3471 0.929 . S
C3469 C3468 1.363 . S
C3469 C3475 1.428 . S
H3470 C3466 0.930 . S
H3471 C3468 0.929 . S
S3472 N3473 1.613 . S
S3472 N3474 1.610 . S
N3473 S3472 1.613 . S
N3473 C3476 1.350 . S
N3474 S3472 1.610 . S
N3474 C3475 1.351 . S
C3475 C3469 1.428 . S
C3475 N3474 1.351 . S
C3475 C3476 1.434 . S
C3476 C3467 1.429 . S
C3476 N3473 1.350 . S
C3476 C3475 1.434 . S
C3477 C3478 1.369 . S
C3477 C3479 1.419 . S
C3477 H3481 0.930 . S
C3478 C3477 1.369 . S
C3478 C3487 1.429 . S
C3479 C3477 1.419 . S
C3479 C3480 1.363 . S
C3479 H3482 0.929 . S
C3480 C3479 1.363 . S
C3480 C3486 1.428 . S
H3481 C3477 0.930 . S
H3482 C3479 0.929 . S
S3483 N3484 1.613 . S
S3483 N3485 1.610 . S
N3484 S3483 1.613 . S
N3484 C3487 1.350 . S
N3485 S3483 1.610 . S
N3485 C3486 1.351 . S
C3486 C3480 1.428 . S
C3486 N3485 1.351 . S
C3486 C3487 1.434 . S
C3487 C3478 1.429 . S
C3487 N3484 1.350 . S
C3487 C3486 1.434 . S
C3488 C3489 1.369 . S
C3488 C3490 1.419 . S
C3488 H3492 0.930 . S
C3489 C3488 1.369 . S
C3489 C3498 1.429 . S
C3490 C3488 1.419 . S
C3490 C3491 1.363 . S
C3490 H3493 0.929 . S
C3491 C3490 1.363 . S
C3491 C3497 1.428 . S
H3492 C3488 0.930 . S
H3493 C3490 0.929 . S
S3494 N3495 1.613 . S
S3494 N3496 1.610 . S
N3495 S3494 1.613 . S
N3495 C3498 1.350 . S
N3496 S3494 1.610 . S
N3496 C3497 1.351 . S
C3497 C3491 1.428 . S
C3497 N3496 1.351 . S
C3497 C3498 1.434 . S
C3498 C3489 1.429 . S
C3498 N3495 1.350 . S
C3498 C3497 1.434 . S
C3499 C3500 1.369 . S
C3499 C3501 1.419 . S
C3499 H3503 0.930 . S
C3500 C3499 1.369 . S
C3500 C3509 1.429 . S
C3501 C3499 1.419 . S
C3501 C3502 1.363 . S
C3501 H3504 0.929 . S
C3502 C3501 1.363 . S
C3502 C3508 1.428 . S
H3503 C3499 0.930 . S
H3504 C3501 0.929 . S
S3505 N3506 1.613 . S
S3505 N3507 1.610 . S
N3506 S3505 1.613 . S
N3506 C3509 1.350 . S
N3507 S3505 1.610 . S
N3507 C3508 1.351 . S
C3508 C3502 1.428 . S
C3508 N3507 1.351 . S
C3508 C3509 1.434 . S
C3509 C3500 1.429 . S
C3509 N3506 1.350 . S
C3509 C3508 1.434 . S
C3510 C3511 1.369 . S
C3510 C3512 1.419 . S
C3510 H3514 0.930 . S
C3511 C3510 1.369 . S
C3511 C3520 1.429 . S
C3512 C3510 1.419 . S
C3512 C3513 1.363 . S
C3512 H3515 0.929 . S
C3513 C3512 1.363 . S
C3513 C3519 1.428 . S
H3514 C3510 0.930 . S
H3515 C3512 0.929 . S
S3516 N3517 1.613 . S
S3516 N3518 1.610 . S
N3517 S3516 1.613 . S
N3517 C3520 1.350 . S
N3518 S3516 1.610 . S
N3518 C3519 1.351 . S
C3519 C3513 1.428 . S
C3519 N3518 1.351 . S
C3519 C3520 1.434 . S
C3520 C3511 1.429 . S
C3520 N3517 1.350 . S
C3520 C3519 1.434 . S
C3521 C3522 1.369 . S
C3521 C3523 1.419 . S
C3521 H3525 0.930 1_556 S
C3522 C3521 1.369 . S
C3522 C3531 1.429 . S
C3523 C3521 1.419 . S
C3523 C3524 1.363 . S
C3523 H3526 0.929 1_556 S
C3524 C3523 1.363 . S
C3524 C3530 1.428 . S
H3525 C3521 0.930 1_554 S
H3526 C3523 0.929 1_554 S
S3527 N3528 1.613 . S
S3527 N3529 1.610 . S
N3528 S3527 1.613 . S
N3528 C3531 1.350 . S
N3529 S3527 1.610 . S
N3529 C3530 1.351 . S
C3530 C3524 1.428 . S
C3530 N3529 1.351 . S
C3530 C3531 1.434 . S
C3531 C3522 1.429 . S
C3531 N3528 1.350 . S
C3531 C3530 1.434 . S
C3532 C3533 1.369 . S
C3532 C3534 1.419 . S
C3532 H3536 0.930 . S
C3533 C3532 1.369 . S
C3533 C3542 1.429 . S
C3534 C3532 1.419 . S
C3534 C3535 1.363 . S
C3534 H3537 0.929 . S
C3535 C3534 1.363 . S
C3535 C3541 1.428 . S
H3536 C3532 0.930 . S
H3537 C3534 0.929 . S
S3538 N3539 1.613 . S
S3538 N3540 1.610 . S
N3539 S3538 1.613 . S
N3539 C3542 1.350 . S
N3540 S3538 1.610 . S
N3540 C3541 1.351 . S
C3541 C3535 1.428 . S
C3541 N3540 1.351 . S
C3541 C3542 1.434 . S
C3542 C3533 1.429 . S
C3542 N3539 1.350 . S
C3542 C3541 1.434 . S
C3543 C3544 1.369 . S
C3543 C3545 1.419 . S
C3543 H3547 0.930 1_554 S
C3544 C3543 1.369 . S
C3544 C3553 1.429 . S
C3545 C3543 1.419 . S
C3545 C3546 1.363 . S
C3545 H3548 0.929 1_554 S
C3546 C3545 1.363 . S
C3546 C3552 1.428 . S
H3547 C3543 0.930 1_556 S
H3548 C3545 0.929 1_556 S
S3549 N3550 1.613 . S
S3549 N3551 1.610 . S
N3550 S3549 1.613 . S
N3550 C3553 1.350 . S
N3551 S3549 1.610 . S
N3551 C3552 1.351 . S
C3552 C3546 1.428 . S
C3552 N3551 1.351 . S
C3552 C3553 1.434 . S
C3553 C3544 1.429 . S
C3553 N3550 1.350 . S
C3553 C3552 1.434 . S
C3554 C3555 1.369 . S
C3554 C3556 1.419 . S
C3554 H3558 0.930 . S
C3555 C3554 1.369 . S
C3555 C3564 1.429 . S
C3556 C3554 1.419 . S
C3556 C3557 1.363 . S
C3556 H3559 0.929 . S
C3557 C3556 1.363 . S
C3557 C3563 1.428 . S
H3558 C3554 0.930 . S
H3559 C3556 0.929 . S
S3560 N3561 1.613 . S
S3560 N3562 1.610 . S
N3561 S3560 1.613 . S
N3561 C3564 1.350 . S
N3562 S3560 1.610 . S
N3562 C3563 1.351 . S
C3563 C3557 1.428 . S
C3563 N3562 1.351 . S
C3563 C3564 1.434 . S
C3564 C3555 1.429 . S
C3564 N3561 1.350 . S
C3564 C3563 1.434 . S
C3565 C3566 1.369 . S
C3565 C3567 1.419 . S
C3565 H3569 0.930 . S
C3566 C3565 1.369 . S
C3566 C3575 1.429 . S
C3567 C3565 1.419 . S
C3567 C3568 1.363 . S
C3567 H3570 0.929 . S
C3568 C3567 1.363 . S
C3568 C3574 1.428 . S
H3569 C3565 0.930 . S
H3570 C3567 0.929 . S
S3571 N3572 1.613 . S
S3571 N3573 1.610 . S
N3572 S3571 1.613 . S
N3572 C3575 1.350 . S
N3573 S3571 1.610 . S
N3573 C3574 1.351 . S
C3574 C3568 1.428 . S
C3574 N3573 1.351 . S
C3574 C3575 1.434 . S
C3575 C3566 1.429 . S
C3575 N3572 1.350 . S
C3575 C3574 1.434 . S
C3576 C3577 1.369 . S
C3576 C3578 1.419 . S
C3576 H3580 0.930 . S
C3577 C3576 1.369 . S
C3577 C3586 1.429 . S
C3578 C3576 1.419 . S
C3578 C3579 1.363 . S
C3578 H3581 0.929 . S
C3579 C3578 1.363 . S
C3579 C3585 1.428 . S
H3580 C3576 0.930 . S
H3581 C3578 0.929 . S
S3582 N3583 1.613 . S
S3582 N3584 1.610 . S
N3583 S3582 1.613 . S
N3583 C3586 1.350 . S
N3584 S3582 1.610 . S
N3584 C3585 1.351 . S
C3585 C3579 1.428 . S
C3585 N3584 1.351 . S
C3585 C3586 1.434 . S
C3586 C3577 1.429 . S
C3586 N3583 1.350 . S
C3586 C3585 1.434 . S
C3587 C3588 1.369 . S
C3587 C3589 1.419 . S
C3587 H3591 0.930 . S
C3588 C3587 1.369 . S
C3588 C3597 1.429 . S
C3589 C3587 1.419 . S
C3589 C3590 1.363 . S
C3589 H3592 0.929 . S
C3590 C3589 1.363 . S
C3590 C3596 1.428 . S
H3591 C3587 0.930 . S
H3592 C3589 0.929 . S
S3593 N3594 1.613 . S
S3593 N3595 1.610 . S
N3594 S3593 1.613 . S
N3594 C3597 1.350 . S
N3595 S3593 1.610 . S
N3595 C3596 1.351 . S
C3596 C3590 1.428 . S
C3596 N3595 1.351 . S
C3596 C3597 1.434 . S
C3597 C3588 1.429 . S
C3597 N3594 1.350 . S
C3597 C3596 1.434 . S
C3598 C3599 1.369 . S
C3598 C3600 1.419 . S
C3598 H3602 0.930 1_455 S
C3599 C3598 1.369 . S
C3599 C3608 1.429 . S
C3600 C3598 1.419 . S
C3600 C3601 1.363 . S
C3600 H3603 0.929 1_455 S
C3601 C3600 1.363 . S
C3601 C3607 1.428 . S
H3602 C3598 0.930 1_655 S
H3603 C3600 0.929 1_655 S
S3604 N3605 1.613 . S
S3604 N3606 1.610 . S
N3605 S3604 1.613 . S
N3605 C3608 1.350 . S
N3606 S3604 1.610 . S
N3606 C3607 1.351 . S
C3607 C3601 1.428 . S
C3607 N3606 1.351 . S
C3607 C3608 1.434 . S
C3608 C3599 1.429 . S
C3608 N3605 1.350 . S
C3608 C3607 1.434 . S
C3609 C3610 1.369 . S
C3609 C3611 1.419 . S
C3609 H3613 0.930 . S
C3610 C3609 1.369 . S
C3610 C3619 1.429 . S
C3611 C3609 1.419 . S
C3611 C3612 1.363 . S
C3611 H3614 0.929 . S
C3612 C3611 1.363 . S
C3612 C3618 1.428 . S
H3613 C3609 0.930 . S
H3614 C3611 0.929 . S
S3615 N3616 1.613 . S
S3615 N3617 1.610 . S
N3616 S3615 1.613 . S
N3616 C3619 1.350 . S
N3617 S3615 1.610 . S
N3617 C3618 1.351 . S
C3618 C3612 1.428 . S
C3618 N3617 1.351 . S
C3618 C3619 1.434 . S
C3619 C3610 1.429 . S
C3619 N3616 1.350 . S
C3619 C3618 1.434 . S
C3620 C3621 1.369 . S
C3620 C3622 1.419 . S
C3620 H3624 0.930 . S
C3621 C3620 1.369 . S
C3621 C3630 1.429 . S
C3622 C3620 1.419 . S
C3622 C3623 1.363 . S
C3622 H3625 0.929 . S
C3623 C3622 1.363 . S
C3623 C3629 1.428 . S
H3624 C3620 0.930 . S
H3625 C3622 0.929 . S
S3626 N3627 1.613 . S
S3626 N3628 1.610 . S
N3627 S3626 1.613 . S
N3627 C3630 1.350 . S
N3628 S3626 1.610 . S
N3628 C3629 1.351 . S
C3629 C3623 1.428 . S
C3629 N3628 1.351 . S
C3629 C3630 1.434 . S
C3630 C3621 1.429 . S
C3630 N3627 1.350 . S
C3630 C3629 1.434 . S
C3631 C3632 1.369 . S
C3631 C3633 1.419 . S
C3631 H3635 0.930 . S
C3632 C3631 1.369 . S
C3632 C3641 1.429 . S
C3633 C3631 1.419 . S
C3633 C3634 1.363 . S
C3633 H3636 0.929 . S
C3634 C3633 1.363 . S
C3634 C3640 1.428 . S
H3635 C3631 0.930 . S
H3636 C3633 0.929 . S
S3637 N3638 1.613 . S
S3637 N3639 1.610 . S
N3638 S3637 1.613 . S
N3638 C3641 1.350 . S
N3639 S3637 1.610 . S
N3639 C3640 1.351 . S
C3640 C3634 1.428 . S
C3640 N3639 1.351 . S
C3640 C3641 1.434 . S
C3641 C3632 1.429 . S
C3641 N3638 1.350 . S
C3641 C3640 1.434 . S
C3642 C3643 1.369 . S
C3642 C3644 1.419 . S
C3642 H3646 0.930 . S
C3643 C3642 1.369 . S
C3643 C3652 1.429 . S
C3644 C3642 1.419 . S
C3644 C3645 1.363 . S
C3644 H3647 0.929 . S
C3645 C3644 1.363 . S
C3645 C3651 1.428 . S
H3646 C3642 0.930 . S
H3647 C3644 0.929 . S
S3648 N3649 1.613 . S
S3648 N3650 1.610 . S
N3649 S3648 1.613 . S
N3649 C3652 1.350 1_655 S
N3650 S3648 1.610 . S
N3650 C3651 1.351 1_655 S
C3651 C3645 1.428 . S
C3651 N3650 1.351 1_455 S
C3651 C3652 1.434 . S
C3652 C3643 1.429 . S
C3652 N3649 1.350 1_455 S
C3652 C3651 1.434 . S
C3653 C3654 1.369 . S
C3653 C3655 1.419 . S
C3653 H3657 0.930 . S
C3654 C3653 1.369 . S
C3654 C3663 1.429 . S
C3655 C3653 1.419 . S
C3655 C3656 1.363 . S
C3655 H3658 0.929 . S
C3656 C3655 1.363 . S
C3656 C3662 1.428 . S
H3657 C3653 0.930 . S
H3658 C3655 0.929 . S
S3659 N3660 1.613 . S
S3659 N3661 1.610 . S
N3660 S3659 1.613 . S
N3660 C3663 1.350 . S
N3661 S3659 1.610 . S
N3661 C3662 1.351 . S
C3662 C3656 1.428 . S
C3662 N3661 1.351 . S
C3662 C3663 1.434 . S
C3663 C3654 1.429 . S
C3663 N3660 1.350 . S
C3663 C3662 1.434 . S
C3664 C3665 1.369 . S
C3664 C3666 1.419 . S
C3664 H3668 0.930 . S
C3665 C3664 1.369 . S
C3665 C3674 1.429 . S
C3666 C3664 1.419 . S
C3666 C3667 1.363 . S
C3666 H3669 0.929 . S
C3667 C3666 1.363 . S
C3667 C3673 1.428 . S
H3668 C3664 0.930 . S
H3669 C3666 0.929 . S
S3670 N3671 1.613 . S
S3670 N3672 1.610 . S
N3671 S3670 1.613 . S
N3671 C3674 1.350 . S
N3672 S3670 1.610 . S
N3672 C3673 1.351 . S
C3673 C3667 1.428 . S
C3673 N3672 1.351 . S
C3673 C3674 1.434 . S
C3674 C3665 1.429 . S
C3674 N3671 1.350 . S
C3674 C3673 1.434 . S
C3675 C3676 1.369 . S
C3675 C3677 1.419 . S
C3675 H3679 0.930 . S
C3676 C3675 1.369 . S
C3676 C3685 1.429 . S
C3677 C3675 1.419 . S
C3677 C3678 1.363 . S
C3677 H3680 0.929 . S
C3678 C3677 1.363 . S
C3678 C3684 1.428 . S
H3679 C3675 0.930 . S
H3680 C3677 0.929 . S
S3681 N3682 1.613 . S
S3681 N3683 1.610 . S
N3682 S3681 1.613 . S
N3682 C3685 1.350 . S
N3683 S3681 1.610 . S
N3683 C3684 1.351 . S
C3684 C3678 1.428 . S
C3684 N3683 1.351 . S
C3684 C3685 1.434 . S
C3685 C3676 1.429 . S
C3685 N3682 1.350 . S
C3685 C3684 1.434 . S
C3686 C3687 1.369 . S
C3686 C3688 1.419 . S
C3686 H3690 0.930 . S
C3687 C3686 1.369 . S
C3687 C3696 1.429 . S
C3688 C3686 1.419 . S
C3688 C3689 1.363 . S
C3688 H3691 0.929 . S
C3689 C3688 1.363 . S
C3689 C3695 1.428 . S
H3690 C3686 0.930 . S
H3691 C3688 0.929 . S
S3692 N3693 1.613 . S
S3692 N3694 1.610 . S
N3693 S3692 1.613 . S
N3693 C3696 1.350 . S
N3694 S3692 1.610 . S
N3694 C3695 1.351 . S
C3695 C3689 1.428 . S
C3695 N3694 1.351 . S
C3695 C3696 1.434 . S
C3696 C3687 1.429 . S
C3696 N3693 1.350 . S
C3696 C3695 1.434 . S
C3697 C3698 1.369 . S
C3697 C3699 1.419 . S
C3697 H3701 0.930 . S
C3698 C3697 1.369 . S
C3698 C3707 1.429 . S
C3699 C3697 1.419 . S
C3699 C3700 1.363 . S
C3699 H3702 0.929 . S
C3700 C3699 1.363 . S
C3700 C3706 1.428 . S
H3701 C3697 0.930 . S
H3702 C3699 0.929 . S
S3703 N3704 1.613 . S
S3703 N3705 1.610 . S
N3704 S3703 1.613 . S
N3704 C3707 1.350 . S
N3705 S3703 1.610 . S
N3705 C3706 1.351 . S
C3706 C3700 1.428 . S
C3706 N3705 1.351 . S
C3706 C3707 1.434 . S
C3707 C3698 1.429 . S
C3707 N3704 1.350 . S
C3707 C3706 1.434 . S
C3708 C3709 1.369 . S
C3708 C3710 1.419 . S
C3708 H3712 0.930 . S
C3709 C3708 1.369 . S
C3709 C3718 1.429 . S
C3710 C3708 1.419 . S
C3710 C3711 1.363 . S
C3710 H3713 0.929 . S
C3711 C3710 1.363 . S
C3711 C3717 1.428 . S
H3712 C3708 0.930 . S
H3713 C3710 0.929 . S
S3714 N3715 1.613 . S
S3714 N3716 1.610 . S
N3715 S3714 1.613 . S
N3715 C3718 1.350 . S
N3716 S3714 1.610 . S
N3716 C3717 1.351 . S
C3717 C3711 1.428 . S
C3717 N3716 1.351 . S
C3717 C3718 1.434 . S
C3718 C3709 1.429 . S
C3718 N3715 1.350 . S
C3718 C3717 1.434 . S
C3719 C3720 1.369 . S
C3719 C3721 1.419 . S
C3719 H3723 0.930 . S
C3720 C3719 1.369 . S
C3720 C3729 1.429 . S
C3721 C3719 1.419 . S
C3721 C3722 1.363 . S
C3721 H3724 0.929 . S
C3722 C3721 1.363 . S
C3722 C3728 1.428 . S
H3723 C3719 0.930 . S
H3724 C3721 0.929 . S
S3725 N3726 1.613 . S
S3725 N3727 1.610 . S
N3726 S3725 1.613 . S
N3726 C3729 1.350 . S
N3727 S3725 1.610 . S
N3727 C3728 1.351 . S
C3728 C3722 1.428 . S
C3728 N3727 1.351 . S
C3728 C3729 1.434 . S
C3729 C3720 1.429 . S
C3729 N3726 1.350 . S
C3729 C3728 1.434 . S
C3730 C3731 1.369 . S
C3730 C3732 1.419 . S
C3730 H3734 0.930 . S
C3731 C3730 1.369 . S
C3731 C3740 1.429 . S
C3732 C3730 1.419 . S
C3732 C3733 1.363 . S
C3732 H3735 0.929 . S
C3733 C3732 1.363 . S
C3733 C3739 1.428 . S
H3734 C3730 0.930 . S
H3735 C3732 0.929 . S
S3736 N3737 1.613 . S
S3736 N3738 1.610 . S
N3737 S3736 1.613 . S
N3737 C3740 1.350 . S
N3738 S3736 1.610 . S
N3738 C3739 1.351 . S
C3739 C3733 1.428 . S
C3739 N3738 1.351 . S
C3739 C3740 1.434 . S
C3740 C3731 1.429 . S
C3740 N3737 1.350 . S
C3740 C3739 1.434 . S
C3741 C3742 1.369 . S
C3741 C3743 1.419 . S
C3741 H3745 0.930 . S
C3742 C3741 1.369 . S
C3742 C3751 1.429 . S
C3743 C3741 1.419 . S
C3743 C3744 1.363 . S
C3743 H3746 0.929 . S
C3744 C3743 1.363 . S
C3744 C3750 1.428 . S
H3745 C3741 0.930 . S
H3746 C3743 0.929 . S
S3747 N3748 1.613 . S
S3747 N3749 1.610 . S
N3748 S3747 1.613 . S
N3748 C3751 1.350 . S
N3749 S3747 1.610 . S
N3749 C3750 1.351 . S
C3750 C3744 1.428 . S
C3750 N3749 1.351 . S
C3750 C3751 1.434 . S
C3751 C3742 1.429 . S
C3751 N3748 1.350 . S
C3751 C3750 1.434 . S
C3752 C3753 1.369 . S
C3752 C3754 1.419 . S
C3752 H3756 0.930 . S
C3753 C3752 1.369 . S
C3753 C3762 1.429 . S
C3754 C3752 1.419 . S
C3754 C3755 1.363 . S
C3754 H3757 0.929 . S
C3755 C3754 1.363 . S
C3755 C3761 1.428 . S
H3756 C3752 0.930 . S
H3757 C3754 0.929 . S
S3758 N3759 1.613 . S
S3758 N3760 1.610 . S
N3759 S3758 1.613 . S
N3759 C3762 1.350 . S
N3760 S3758 1.610 . S
N3760 C3761 1.351 . S
C3761 C3755 1.428 . S
C3761 N3760 1.351 . S
C3761 C3762 1.434 . S
C3762 C3753 1.429 . S
C3762 N3759 1.350 . S
C3762 C3761 1.434 . S
C3763 C3764 1.369 . S
C3763 C3765 1.419 . S
C3763 H3767 0.930 . S
C3764 C3763 1.369 . S
C3764 C3773 1.429 . S
C3765 C3763 1.419 . S
C3765 C3766 1.363 . S
C3765 H3768 0.929 . S
C3766 C3765 1.363 . S
C3766 C3772 1.428 . S
H3767 C3763 0.930 . S
H3768 C3765 0.929 . S
S3769 N3770 1.613 . S
S3769 N3771 1.610 . S
N3770 S3769 1.613 . S
N3770 C3773 1.350 . S
N3771 S3769 1.610 . S
N3771 C3772 1.351 . S
C3772 C3766 1.428 . S
C3772 N3771 1.351 . S
C3772 C3773 1.434 . S
C3773 C3764 1.429 . S
C3773 N3770 1.350 . S
C3773 C3772 1.434 . S
C3774 C3775 1.369 . S
C3774 C3776 1.419 . S
C3774 H3778 0.930 . S
C3775 C3774 1.369 . S
C3775 C3784 1.429 . S
C3776 C3774 1.419 . S
C3776 C3777 1.363 . S
C3776 H3779 0.929 . S
C3777 C3776 1.363 . S
C3777 C3783 1.428 . S
H3778 C3774 0.930 . S
H3779 C3776 0.929 . S
S3780 N3781 1.613 . S
S3780 N3782 1.610 . S
N3781 S3780 1.613 . S
N3781 C3784 1.350 . S
N3782 S3780 1.610 . S
N3782 C3783 1.351 . S
C3783 C3777 1.428 . S
C3783 N3782 1.351 . S
C3783 C3784 1.434 . S
C3784 C3775 1.429 . S
C3784 N3781 1.350 . S
C3784 C3783 1.434 . S
C3785 C3786 1.369 . S
C3785 C3787 1.419 . S
C3785 H3789 0.930 . S
C3786 C3785 1.369 . S
C3786 C3795 1.429 . S
C3787 C3785 1.419 . S
C3787 C3788 1.363 . S
C3787 H3790 0.929 . S
C3788 C3787 1.363 . S
C3788 C3794 1.428 . S
H3789 C3785 0.930 . S
H3790 C3787 0.929 . S
S3791 N3792 1.613 . S
S3791 N3793 1.610 . S
N3792 S3791 1.613 . S
N3792 C3795 1.350 . S
N3793 S3791 1.610 . S
N3793 C3794 1.351 . S
C3794 C3788 1.428 . S
C3794 N3793 1.351 . S
C3794 C3795 1.434 . S
C3795 C3786 1.429 . S
C3795 N3792 1.350 . S
C3795 C3794 1.434 . S
C3796 C3797 1.369 . S
C3796 C3798 1.419 . S
C3796 H3800 0.930 . S
C3797 C3796 1.369 . S
C3797 C3806 1.429 . S
C3798 C3796 1.419 . S
C3798 C3799 1.363 . S
C3798 H3801 0.929 . S
C3799 C3798 1.363 . S
C3799 C3805 1.428 . S
H3800 C3796 0.930 . S
H3801 C3798 0.929 . S
S3802 N3803 1.613 . S
S3802 N3804 1.610 . S
N3803 S3802 1.613 . S
N3803 C3806 1.350 . S
N3804 S3802 1.610 . S
N3804 C3805 1.351 . S
C3805 C3799 1.428 . S
C3805 N3804 1.351 . S
C3805 C3806 1.434 . S
C3806 C3797 1.429 . S
C3806 N3803 1.350 . S
C3806 C3805 1.434 . S
C3807 C3808 1.369 . S
C3807 C3809 1.419 . S
C3807 H3811 0.930 . S
C3808 C3807 1.369 . S
C3808 C3817 1.429 . S
C3809 C3807 1.419 . S
C3809 C3810 1.363 . S
C3809 H3812 0.929 . S
C3810 C3809 1.363 . S
C3810 C3816 1.428 . S
H3811 C3807 0.930 . S
H3812 C3809 0.929 . S
S3813 N3814 1.613 . S
S3813 N3815 1.610 . S
N3814 S3813 1.613 . S
N3814 C3817 1.350 . S
N3815 S3813 1.610 . S
N3815 C3816 1.351 . S
C3816 C3810 1.428 . S
C3816 N3815 1.351 . S
C3816 C3817 1.434 . S
C3817 C3808 1.429 . S
C3817 N3814 1.350 . S
C3817 C3816 1.434 . S
C3818 C3819 1.369 . S
C3818 C3820 1.419 . S
C3818 H3822 0.930 . S
C3819 C3818 1.369 . S
C3819 C3828 1.429 . S
C3820 C3818 1.419 . S
C3820 C3821 1.363 . S
C3820 H3823 0.929 . S
C3821 C3820 1.363 . S
C3821 C3827 1.428 . S
H3822 C3818 0.930 . S
H3823 C3820 0.929 . S
S3824 N3825 1.613 . S
S3824 N3826 1.610 . S
N3825 S3824 1.613 . S
N3825 C3828 1.350 . S
N3826 S3824 1.610 . S
N3826 C3827 1.351 . S
C3827 C3821 1.428 . S
C3827 N3826 1.351 . S
C3827 C3828 1.434 . S
C3828 C3819 1.429 . S
C3828 N3825 1.350 . S
C3828 C3827 1.434 . S
C3829 C3830 1.369 . S
C3829 C3831 1.419 . S
C3829 H3833 0.930 . S
C3830 C3829 1.369 . S
C3830 C3839 1.429 . S
C3831 C3829 1.419 . S
C3831 C3832 1.363 . S
C3831 H3834 0.929 . S
C3832 C3831 1.363 . S
C3832 C3838 1.428 . S
H3833 C3829 0.930 . S
H3834 C3831 0.929 . S
S3835 N3836 1.613 . S
S3835 N3837 1.610 . S
N3836 S3835 1.613 . S
N3836 C3839 1.350 . S
N3837 S3835 1.610 . S
N3837 C3838 1.351 . S
C3838 C3832 1.428 . S
C3838 N3837 1.351 . S
C3838 C3839 1.434 . S
C3839 C3830 1.429 . S
C3839 N3836 1.350 . S
C3839 C3838 1.434 . S
C3840 C3841 1.369 . S
C3840 C3842 1.419 . S
C3840 H3844 0.930 . S
C3841 C3840 1.369 . S
C3841 C3850 1.429 . S
C3842 C3840 1.419 . S
C3842 C3843 1.363 . S
C3842 H3845 0.929 . S
C3843 C3842 1.363 . S
C3843 C3849 1.428 . S
H3844 C3840 0.930 . S
H3845 C3842 0.929 . S
S3846 N3847 1.613 . S
S3846 N3848 1.610 . S
N3847 S3846 1.613 . S
N3847 C3850 1.350 1_556 S
N3848 S3846 1.610 . S
N3848 C3849 1.351 1_556 S
C3849 C3843 1.428 . S
C3849 N3848 1.351 1_554 S
C3849 C3850 1.434 . S
C3850 C3841 1.429 . S
C3850 N3847 1.350 1_554 S
C3850 C3849 1.434 . S
C3851 C3852 1.369 . S
C3851 C3853 1.419 . S
C3851 H3855 0.930 . S
C3852 C3851 1.369 . S
C3852 C3861 1.429 . S
C3853 C3851 1.419 . S
C3853 C3854 1.363 . S
C3853 H3856 0.929 . S
C3854 C3853 1.363 . S
C3854 C3860 1.428 . S
H3855 C3851 0.930 . S
H3856 C3853 0.929 . S
S3857 N3858 1.613 . S
S3857 N3859 1.610 . S
N3858 S3857 1.613 . S
N3858 C3861 1.350 . S
N3859 S3857 1.610 . S
N3859 C3860 1.351 . S
C3860 C3854 1.428 . S
C3860 N3859 1.351 . S
C3860 C3861 1.434 . S
C3861 C3852 1.429 . S
C3861 N3858 1.350 . S
C3861 C3860 1.434 . S
C3862 C3863 1.369 . S
C3862 C3864 1.419 . S
C3862 H3866 0.930 . S
C3863 C3862 1.369 . S
C3863 C3872 1.429 . S
C3864 C3862 1.419 . S
C3864 C3865 1.363 . S
C3864 H3867 0.929 . S
C3865 C3864 1.363 . S
C3865 C3871 1.428 . S
H3866 C3862 0.930 . S
H3867 C3864 0.929 . S
S3868 N3869 1.613 . S
S3868 N3870 1.610 . S
N3869 S3868 1.613 . S
N3869 C3872 1.350 . S
N3870 S3868 1.610 . S
N3870 C3871 1.351 . S
C3871 C3865 1.428 . S
C3871 N3870 1.351 . S
C3871 C3872 1.434 . S
C3872 C3863 1.429 . S
C3872 N3869 1.350 . S
C3872 C3871 1.434 . S
C3873 C3874 1.369 . S
C3873 C3875 1.419 . S
C3873 H3877 0.930 . S
C3874 C3873 1.369 . S
C3874 C3883 1.429 . S
C3875 C3873 1.419 . S
C3875 C3876 1.363 . S
C3875 H3878 0.929 . S
C3876 C3875 1.363 . S
C3876 C3882 1.428 . S
H3877 C3873 0.930 . S
H3878 C3875 0.929 . S
S3879 N3880 1.613 . S
S3879 N3881 1.610 . S
N3880 S3879 1.613 . S
N3880 C3883 1.350 . S
N3881 S3879 1.610 . S
N3881 C3882 1.351 . S
C3882 C3876 1.428 . S
C3882 N3881 1.351 . S
C3882 C3883 1.434 . S
C3883 C3874 1.429 . S
C3883 N3880 1.350 . S
C3883 C3882 1.434 . S
C3884 C3885 1.369 . S
C3884 C3886 1.419 . S
C3884 H3888 0.930 . S
C3885 C3884 1.369 . S
C3885 C3894 1.429 . S
C3886 C3884 1.419 . S
C3886 C3887 1.363 . S
C3886 H3889 0.929 . S
C3887 C3886 1.363 . S
C3887 C3893 1.428 . S
H3888 C3884 0.930 . S
H3889 C3886 0.929 . S
S3890 N3891 1.613 . S
S3890 N3892 1.610 . S
N3891 S3890 1.613 . S
N3891 C3894 1.350 . S
N3892 S3890 1.610 . S
N3892 C3893 1.351 . S
C3893 C3887 1.428 . S
C3893 N3892 1.351 . S
C3893 C3894 1.434 . S
C3894 C3885 1.429 . S
C3894 N3891 1.350 . S
C3894 C3893 1.434 . S
C3895 C3896 1.369 . S
C3895 C3897 1.419 . S
C3895 H3899 0.930 . S
C3896 C3895 1.369 . S
C3896 C3905 1.429 . S
C3897 C3895 1.419 . S
C3897 C3898 1.363 . S
C3897 H3900 0.929 . S
C3898 C3897 1.363 . S
C3898 C3904 1.428 . S
H3899 C3895 0.930 . S
H3900 C3897 0.929 . S
S3901 N3902 1.613 . S
S3901 N3903 1.610 . S
N3902 S3901 1.613 . S
N3902 C3905 1.350 . S
N3903 S3901 1.610 . S
N3903 C3904 1.351 . S
C3904 C3898 1.428 . S
C3904 N3903 1.351 . S
C3904 C3905 1.434 . S
C3905 C3896 1.429 . S
C3905 N3902 1.350 . S
C3905 C3904 1.434 . S
C3906 C3907 1.369 . S
C3906 C3908 1.419 . S
C3906 H3910 0.930 . S
C3907 C3906 1.369 . S
C3907 C3916 1.429 . S
C3908 C3906 1.419 . S
C3908 C3909 1.363 . S
C3908 H3911 0.929 . S
C3909 C3908 1.363 . S
C3909 C3915 1.428 . S
H3910 C3906 0.930 . S
H3911 C3908 0.929 . S
S3912 N3913 1.613 . S
S3912 N3914 1.610 . S
N3913 S3912 1.613 . S
N3913 C3916 1.350 . S
N3914 S3912 1.610 . S
N3914 C3915 1.351 . S
C3915 C3909 1.428 . S
C3915 N3914 1.351 . S
C3915 C3916 1.434 . S
C3916 C3907 1.429 . S
C3916 N3913 1.350 . S
C3916 C3915 1.434 . S
C3917 C3918 1.369 . S
C3917 C3919 1.419 . S
C3917 H3921 0.930 . S
C3918 C3917 1.369 . S
C3918 C3927 1.429 . S
C3919 C3917 1.419 . S
C3919 C3920 1.363 . S
C3919 H3922 0.929 . S
C3920 C3919 1.363 . S
C3920 C3926 1.428 . S
H3921 C3917 0.930 . S
H3922 C3919 0.929 . S
S3923 N3924 1.613 . S
S3923 N3925 1.610 . S
N3924 S3923 1.613 . S
N3924 C3927 1.350 . S
N3925 S3923 1.610 . S
N3925 C3926 1.351 . S
C3926 C3920 1.428 . S
C3926 N3925 1.351 . S
C3926 C3927 1.434 . S
C3927 C3918 1.429 . S
C3927 N3924 1.350 . S
C3927 C3926 1.434 . S
C3928 C3929 1.369 . S
C3928 C3930 1.419 . S
C3928 H3932 0.966 . S
C3929 C3928 1.369 . S
C3929 C3938 1.429 . S
C3930 C3928 1.419 . S
C3930 C3931 1.363 . S
C3930 H3933 0.928 1_455 S
C3931 C3930 1.363 . S
C3931 C3937 1.428 . S
H3932 C3928 0.966 . S
H3933 C3930 0.928 1_655 S
S3934 N3935 1.613 . S
S3934 N3936 1.610 . S
N3935 S3934 1.613 . S
N3935 C3938 1.350 . S
N3936 S3934 1.610 . S
N3936 C3937 1.351 . S
C3937 C3931 1.428 . S
C3937 N3936 1.351 . S
C3937 C3938 1.434 . S
C3938 C3929 1.429 . S
C3938 N3935 1.350 . S
C3938 C3937 1.434 . S
C3939 C3940 1.369 . S
C3939 C3941 1.419 . S
C3939 H3943 0.930 . S
C3940 C3939 1.369 . S
C3940 C3949 1.429 . S
C3941 C3939 1.419 . S
C3941 C3942 1.363 . S
C3941 H3944 0.929 . S
C3942 C3941 1.363 . S
C3942 C3948 1.428 . S
H3943 C3939 0.930 . S
H3944 C3941 0.929 . S
S3945 N3946 1.613 . S
S3945 N3947 1.610 . S
N3946 S3945 1.613 . S
N3946 C3949 1.350 . S
N3947 S3945 1.610 . S
N3947 C3948 1.351 . S
C3948 C3942 1.428 . S
C3948 N3947 1.351 . S
C3948 C3949 1.434 . S
C3949 C3940 1.429 . S
C3949 N3946 1.350 . S
C3949 C3948 1.434 . S
C3950 C3951 1.369 . S
C3950 C3952 1.419 . S
C3950 H3954 0.930 . S
C3951 C3950 1.369 . S
C3951 C3960 1.429 . S
C3952 C3950 1.419 . S
C3952 C3953 1.363 . S
C3952 H3955 0.929 . S
C3953 C3952 1.363 . S
C3953 C3959 1.428 . S
H3954 C3950 0.930 . S
H3955 C3952 0.929 . S
S3956 N3957 1.613 . S
S3956 N3958 1.610 . S
N3957 S3956 1.613 . S
N3957 C3960 1.350 . S
N3958 S3956 1.610 . S
N3958 C3959 1.351 . S
C3959 C3953 1.428 . S
C3959 N3958 1.351 . S
C3959 C3960 1.434 . S
C3960 C3951 1.429 . S
C3960 N3957 1.350 . S
C3960 C3959 1.434 . S
C3961 C3962 1.369 . S
C3961 C3963 1.419 . S
C3961 H3965 0.930 . S
C3962 C3961 1.369 . S
C3962 C3971 1.429 . S
C3963 C3961 1.419 . S
C3963 C3964 1.363 . S
C3963 H3966 0.929 . S
C3964 C3963 1.363 . S
C3964 C3970 1.428 . S
H3965 C3961 0.930 . S
H3966 C3963 0.929 . S
S3967 N3968 1.613 . S
S3967 N3969 1.610 . S
N3968 S3967 1.613 . S
N3968 C3971 1.350 . S
N3969 S3967 1.610 . S
N3969 C3970 1.351 . S
C3970 C3964 1.428 . S
C3970 N3969 1.351 . S
C3970 C3971 1.434 . S
C3971 C3962 1.429 . S
C3971 N3968 1.350 . S
C3971 C3970 1.434 . S
C3972 C3973 1.369 . S
C3972 C3974 1.419 . S
C3972 H3976 0.930 . S
C3973 C3972 1.369 . S
C3973 C3982 1.429 . S
C3974 C3972 1.419 . S
C3974 C3975 1.363 . S
C3974 H3977 0.929 . S
C3975 C3974 1.363 . S
C3975 C3981 1.428 . S
H3976 C3972 0.930 . S
H3977 C3974 0.929 . S
S3978 N3979 1.613 . S
S3978 N3980 1.610 . S
N3979 S3978 1.613 . S
N3979 C3982 1.350 1_655 S
N3980 S3978 1.610 . S
N3980 C3981 1.351 1_655 S
C3981 C3975 1.428 . S
C3981 N3980 1.351 1_455 S
C3981 C3982 1.434 . S
C3982 C3973 1.429 . S
C3982 N3979 1.350 1_455 S
C3982 C3981 1.434 . S
C3983 C3984 1.369 . S
C3983 C3985 1.419 . S
C3983 H3987 0.930 . S
C3984 C3983 1.369 . S
C3984 C3993 1.429 . S
C3985 C3983 1.419 . S
C3985 C3986 1.363 . S
C3985 H3988 0.929 . S
C3986 C3985 1.363 . S
C3986 C3992 1.428 . S
H3987 C3983 0.930 . S
H3988 C3985 0.929 . S
S3989 N3990 1.613 . S
S3989 N3991 1.610 . S
N3990 S3989 1.613 . S
N3990 C3993 1.350 . S
N3991 S3989 1.610 . S
N3991 C3992 1.351 . S
C3992 C3986 1.428 . S
C3992 N3991 1.351 . S
C3992 C3993 1.434 . S
C3993 C3984 1.429 . S
C3993 N3990 1.350 . S
C3993 C3992 1.434 . S
C3994 C3995 1.369 . S
C3994 C3996 1.419 . S
C3994 H3998 0.930 . S
C3995 C3994 1.369 . S
C3995 C4004 1.429 . S
C3996 C3994 1.419 . S
C3996 C3997 1.363 . S
C3996 H3999 0.929 . S
C3997 C3996 1.363 . S
C3997 C4003 1.428 . S
H3998 C3994 0.930 . S
H3999 C3996 0.929 . S
S4000 N4001 1.613 . S
S4000 N4002 1.610 . S
N4001 S4000 1.613 . S
N4001 C4004 1.350 . S
N4002 S4000 1.610 . S
N4002 C4003 1.351 . S
C4003 C3997 1.428 . S
C4003 N4002 1.351 . S
C4003 C4004 1.434 . S
C4004 C3995 1.429 . S
C4004 N4001 1.350 . S
C4004 C4003 1.434 . S
C4005 C4006 1.369 . S
C4005 C4007 1.419 . S
C4005 H4009 0.930 . S
C4006 C4005 1.369 . S
C4006 C4015 1.429 . S
C4007 C4005 1.419 . S
C4007 C4008 1.363 . S
C4007 H4010 0.929 . S
C4008 C4007 1.363 . S
C4008 C4014 1.428 . S
H4009 C4005 0.930 . S
H4010 C4007 0.929 . S
S4011 N4012 1.613 . S
S4011 N4013 1.610 . S
N4012 S4011 1.613 . S
N4012 C4015 1.350 . S
N4013 S4011 1.610 . S
N4013 C4014 1.351 . S
C4014 C4008 1.428 . S
C4014 N4013 1.351 . S
C4014 C4015 1.434 . S
C4015 C4006 1.429 . S
C4015 N4012 1.350 . S
C4015 C4014 1.434 . S
C4016 C4017 1.369 . S
C4016 C4018 1.419 . S
C4016 H4020 0.930 . S
C4017 C4016 1.369 . S
C4017 C4026 1.429 . S
C4018 C4016 1.419 . S
C4018 C4019 1.363 . S
C4018 H4021 0.929 . S
C4019 C4018 1.363 . S
C4019 C4025 1.428 . S
H4020 C4016 0.930 . S
H4021 C4018 0.929 . S
S4022 N4023 1.613 . S
S4022 N4024 1.610 . S
N4023 S4022 1.613 . S
N4023 C4026 1.350 . S
N4024 S4022 1.610 . S
N4024 C4025 1.351 . S
C4025 C4019 1.428 . S
C4025 N4024 1.351 . S
C4025 C4026 1.434 . S
C4026 C4017 1.429 . S
C4026 N4023 1.350 . S
C4026 C4025 1.434 . S
C4027 C4028 1.369 . S
C4027 C4029 1.419 . S
C4027 H4031 0.930 . S
C4028 C4027 1.369 . S
C4028 C4037 1.429 . S
C4029 C4027 1.419 . S
C4029 C4030 1.363 . S
C4029 H4032 0.929 . S
C4030 C4029 1.363 . S
C4030 C4036 1.428 . S
H4031 C4027 0.930 . S
H4032 C4029 0.929 . S
S4033 N4034 1.613 . S
S4033 N4035 1.610 . S
N4034 S4033 1.613 . S
N4034 C4037 1.350 . S
N4035 S4033 1.610 . S
N4035 C4036 1.351 . S
C4036 C4030 1.428 . S
C4036 N4035 1.351 . S
C4036 C4037 1.434 . S
C4037 C4028 1.429 . S
C4037 N4034 1.350 . S
C4037 C4036 1.434 . S
C4038 C4039 1.369 . S
C4038 C4040 1.419 . S
C4038 H4042 0.930 . S
C4039 C4038 1.369 . S
C4039 C4048 1.429 . S
C4040 C4038 1.419 . S
C4040 C4041 1.363 . S
C4040 H4043 0.929 . S
C4041 C4040 1.363 . S
C4041 C4047 1.428 . S
H4042 C4038 0.930 . S
H4043 C4040 0.929 . S
S4044 N4045 1.613 . S
S4044 N4046 1.610 . S
N4045 S4044 1.613 . S
N4045 C4048 1.350 . S
N4046 S4044 1.610 . S
N4046 C4047 1.351 . S
C4047 C4041 1.428 . S
C4047 N4046 1.351 . S
C4047 C4048 1.434 . S
C4048 C4039 1.429 . S
C4048 N4045 1.350 . S
C4048 C4047 1.434 . S
C4049 C4050 1.369 . S
C4049 C4051 1.419 . S
C4049 H4053 0.930 . S
C4050 C4049 1.369 . S
C4050 C4059 1.429 . S
C4051 C4049 1.419 . S
C4051 C4052 1.363 . S
C4051 H4054 0.929 . S
C4052 C4051 1.363 . S
C4052 C4058 1.428 . S
H4053 C4049 0.930 . S
H4054 C4051 0.929 . S
S4055 N4056 1.613 . S
S4055 N4057 1.610 . S
N4056 S4055 1.613 . S
N4056 C4059 1.350 . S
N4057 S4055 1.610 . S
N4057 C4058 1.351 . S
C4058 C4052 1.428 . S
C4058 N4057 1.351 . S
C4058 C4059 1.434 . S
C4059 C4050 1.429 . S
C4059 N4056 1.350 . S
C4059 C4058 1.434 . S
C4060 C4061 1.369 . S
C4060 C4062 1.419 . S
C4060 H4064 0.930 . S
C4061 C4060 1.369 . S
C4061 C4070 1.429 . S
C4062 C4060 1.419 . S
C4062 C4063 1.363 . S
C4062 H4065 0.929 . S
C4063 C4062 1.363 . S
C4063 C4069 1.428 . S
H4064 C4060 0.930 . S
H4065 C4062 0.929 . S
S4066 N4067 1.613 . S
S4066 N4068 1.610 . S
N4067 S4066 1.613 . S
N4067 C4070 1.350 . S
N4068 S4066 1.610 . S
N4068 C4069 1.351 . S
C4069 C4063 1.428 . S
C4069 N4068 1.351 . S
C4069 C4070 1.434 . S
C4070 C4061 1.429 . S
C4070 N4067 1.350 . S
C4070 C4069 1.434 . S
C4071 C4072 1.369 . S
C4071 C4073 1.419 . S
C4071 H4075 0.930 . S
C4072 C4071 1.369 . S
C4072 C4081 1.429 . S
C4073 C4071 1.419 . S
C4073 C4074 1.363 . S
C4073 H4076 0.929 . S
C4074 C4073 1.363 . S
C4074 C4080 1.428 . S
H4075 C4071 0.930 . S
H4076 C4073 0.929 . S
S4077 N4078 1.613 . S
S4077 N4079 1.610 . S
N4078 S4077 1.613 . S
N4078 C4081 1.350 1_545 S
N4079 S4077 1.610 . S
N4079 C4080 1.351 1_545 S
C4080 C4074 1.428 . S
C4080 N4079 1.351 1_565 S
C4080 C4081 1.434 . S
C4081 C4072 1.429 . S
C4081 N4078 1.350 1_565 S
C4081 C4080 1.434 . S
C4082 C4083 1.369 . S
C4082 C4084 1.419 . S
C4082 H4086 0.930 . S
C4083 C4082 1.369 . S
C4083 C4092 1.429 . S
C4084 C4082 1.419 . S
C4084 C4085 1.363 . S
C4084 H4087 0.929 . S
C4085 C4084 1.363 . S
C4085 C4091 1.428 . S
H4086 C4082 0.930 . S
H4087 C4084 0.929 . S
S4088 N4089 1.613 . S
S4088 N4090 1.610 . S
N4089 S4088 1.613 . S
N4089 C4092 1.350 . S
N4090 S4088 1.610 . S
N4090 C4091 1.351 . S
C4091 C4085 1.428 . S
C4091 N4090 1.351 . S
C4091 C4092 1.434 . S
C4092 C4083 1.429 . S
C4092 N4089 1.350 . S
C4092 C4091 1.434 . S
C4093 C4094 1.369 . S
C4093 C4095 1.419 . S
C4093 H4097 0.930 . S
C4094 C4093 1.369 . S
C4094 C4103 1.429 . S
C4095 C4093 1.419 . S
C4095 C4096 1.363 . S
C4095 H4098 0.929 . S
C4096 C4095 1.363 . S
C4096 C4102 1.428 . S
H4097 C4093 0.930 . S
H4098 C4095 0.929 . S
S4099 N4100 1.613 . S
S4099 N4101 1.610 . S
N4100 S4099 1.613 . S
N4100 C4103 1.350 . S
N4101 S4099 1.610 . S
N4101 C4102 1.351 . S
C4102 C4096 1.428 . S
C4102 N4101 1.351 . S
C4102 C4103 1.434 . S
C4103 C4094 1.429 . S
C4103 N4100 1.350 . S
C4103 C4102 1.434 . S
C4104 C4105 1.369 . S
C4104 C4106 1.419 . S
C4104 H4108 0.930 . S
C4105 C4104 1.369 . S
C4105 C4114 1.429 . S
C4106 C4104 1.419 . S
C4106 C4107 1.363 . S
C4106 H4109 0.929 . S
C4107 C4106 1.363 . S
C4107 C4113 1.428 . S
H4108 C4104 0.930 . S
H4109 C4106 0.929 . S
S4110 N4111 1.613 . S
S4110 N4112 1.610 . S
N4111 S4110 1.613 . S
N4111 C4114 1.350 . S
N4112 S4110 1.610 . S
N4112 C4113 1.351 . S
C4113 C4107 1.428 . S
C4113 N4112 1.351 . S
C4113 C4114 1.434 . S
C4114 C4105 1.429 . S
C4114 N4111 1.350 . S
C4114 C4113 1.434 . S
C4115 C4116 1.369 . S
C4115 C4117 1.419 . S
C4115 H4119 0.930 . S
C4116 C4115 1.369 . S
C4116 C4125 1.429 . S
C4117 C4115 1.419 . S
C4117 C4118 1.363 . S
C4117 H4120 0.929 . S
C4118 C4117 1.363 . S
C4118 C4124 1.428 . S
H4119 C4115 0.930 . S
H4120 C4117 0.929 . S
S4121 N4122 1.613 . S
S4121 N4123 1.610 . S
N4122 S4121 1.613 . S
N4122 C4125 1.350 . S
N4123 S4121 1.610 . S
N4123 C4124 1.351 . S
C4124 C4118 1.428 . S
C4124 N4123 1.351 . S
C4124 C4125 1.434 . S
C4125 C4116 1.429 . S
C4125 N4122 1.350 . S
C4125 C4124 1.434 . S
C4126 C4127 1.369 . S
C4126 C4128 1.419 . S
C4126 H4130 0.930 . S
C4127 C4126 1.369 . S
C4127 C4136 1.429 . S
C4128 C4126 1.419 . S
C4128 C4129 1.363 . S
C4128 H4131 0.929 . S
C4129 C4128 1.363 . S
C4129 C4135 1.428 . S
H4130 C4126 0.930 . S
H4131 C4128 0.929 . S
S4132 N4133 1.613 . S
S4132 N4134 1.610 . S
N4133 S4132 1.613 . S
N4133 C4136 1.350 . S
N4134 S4132 1.610 . S
N4134 C4135 1.351 . S
C4135 C4129 1.428 . S
C4135 N4134 1.351 . S
C4135 C4136 1.434 . S
C4136 C4127 1.429 . S
C4136 N4133 1.350 . S
C4136 C4135 1.434 . S
C4137 C4138 1.369 . S
C4137 C4139 1.419 . S
C4137 H4141 0.930 . S
C4138 C4137 1.369 . S
C4138 C4147 1.429 . S
C4139 C4137 1.419 . S
C4139 C4140 1.363 . S
C4139 H4142 0.929 . S
C4140 C4139 1.363 . S
C4140 C4146 1.428 . S
H4141 C4137 0.930 . S
H4142 C4139 0.929 . S
S4143 N4144 1.613 . S
S4143 N4145 1.610 . S
N4144 S4143 1.613 . S
N4144 C4147 1.350 . S
N4145 S4143 1.610 . S
N4145 C4146 1.351 . S
C4146 C4140 1.428 . S
C4146 N4145 1.351 . S
C4146 C4147 1.434 . S
C4147 C4138 1.429 . S
C4147 N4144 1.350 . S
C4147 C4146 1.434 . S
C4148 C4149 1.369 . S
C4148 C4150 1.419 . S
C4148 H4152 0.930 . S
C4149 C4148 1.369 . S
C4149 C4158 1.429 . S
C4150 C4148 1.419 . S
C4150 C4151 1.363 . S
C4150 H4153 0.929 . S
C4151 C4150 1.363 . S
C4151 C4157 1.428 . S
H4152 C4148 0.930 . S
H4153 C4150 0.929 . S
S4154 N4155 1.613 . S
S4154 N4156 1.610 . S
N4155 S4154 1.613 . S
N4155 C4158 1.350 . S
N4156 S4154 1.610 . S
N4156 C4157 1.351 . S
C4157 C4151 1.428 . S
C4157 N4156 1.351 . S
C4157 C4158 1.434 . S
C4158 C4149 1.429 . S
C4158 N4155 1.350 . S
C4158 C4157 1.434 . S
C4159 C4160 1.369 . S
C4159 C4161 1.419 . S
C4159 H4163 0.930 . S
C4160 C4159 1.369 . S
C4160 C4169 1.429 . S
C4161 C4159 1.419 . S
C4161 C4162 1.363 . S
C4161 H4164 0.929 . S
C4162 C4161 1.363 . S
C4162 C4168 1.428 . S
H4163 C4159 0.930 . S
H4164 C4161 0.929 . S
S4165 N4166 1.613 . S
S4165 N4167 1.610 . S
N4166 S4165 1.613 . S
N4166 C4169 1.350 . S
N4167 S4165 1.610 . S
N4167 C4168 1.351 . S
C4168 C4162 1.428 . S
C4168 N4167 1.351 . S
C4168 C4169 1.434 . S
C4169 C4160 1.429 . S
C4169 N4166 1.350 . S
C4169 C4168 1.434 . S
C4170 C4171 1.369 . S
C4170 C4172 1.419 . S
C4170 H4174 0.930 . S
C4171 C4170 1.369 . S
C4171 C4180 1.429 . S
C4172 C4170 1.419 . S
C4172 C4173 1.363 . S
C4172 H4175 0.929 . S
C4173 C4172 1.363 . S
C4173 C4179 1.428 . S
H4174 C4170 0.930 . S
H4175 C4172 0.929 . S
S4176 N4177 1.613 . S
S4176 N4178 1.610 . S
N4177 S4176 1.613 . S
N4177 C4180 1.350 . S
N4178 S4176 1.610 . S
N4178 C4179 1.351 . S
C4179 C4173 1.428 . S
C4179 N4178 1.351 . S
C4179 C4180 1.434 . S
C4180 C4171 1.429 . S
C4180 N4177 1.350 . S
C4180 C4179 1.434 . S
C4181 C4182 1.369 . S
C4181 C4183 1.419 . S
C4181 H4185 0.930 . S
C4182 C4181 1.369 . S
C4182 C4191 1.429 . S
C4183 C4181 1.419 . S
C4183 C4184 1.363 . S
C4183 H4186 0.929 . S
C4184 C4183 1.363 . S
C4184 C4190 1.428 . S
H4185 C4181 0.930 . S
H4186 C4183 0.929 . S
S4187 N4188 1.613 . S
S4187 N4189 1.610 . S
N4188 S4187 1.613 . S
N4188 C4191 1.350 . S
N4189 S4187 1.610 . S
N4189 C4190 1.351 . S
C4190 C4184 1.428 . S
C4190 N4189 1.351 . S
C4190 C4191 1.434 . S
C4191 C4182 1.429 . S
C4191 N4188 1.350 . S
C4191 C4190 1.434 . S
C4192 C4193 1.369 . S
C4192 C4194 1.419 . S
C4192 H4196 0.930 1_655 S
C4193 C4192 1.369 . S
C4193 C4202 1.429 . S
C4194 C4192 1.419 . S
C4194 C4195 1.363 . S
C4194 H4197 0.929 1_655 S
C4195 C4194 1.363 . S
C4195 C4201 1.428 . S
H4196 C4192 0.930 1_455 S
H4197 C4194 0.929 1_455 S
S4198 N4199 1.613 . S
S4198 N4200 1.610 . S
N4199 S4198 1.613 . S
N4199 C4202 1.350 . S
N4200 S4198 1.610 . S
N4200 C4201 1.351 . S
C4201 C4195 1.428 . S
C4201 N4200 1.351 . S
C4201 C4202 1.434 . S
C4202 C4193 1.429 . S
C4202 N4199 1.350 . S
C4202 C4201 1.434 . S
C4203 C4204 1.369 . S
C4203 C4205 1.419 . S
C4203 H4207 0.930 . S
C4204 C4203 1.369 . S
C4204 C4213 1.429 . S
C4205 C4203 1.419 . S
C4205 C4206 1.363 . S
C4205 H4208 0.929 . S
C4206 C4205 1.363 . S
C4206 C4212 1.428 . S
H4207 C4203 0.930 . S
H4208 C4205 0.929 . S
S4209 N4210 1.613 . S
S4209 N4211 1.610 . S
N4210 S4209 1.613 . S
N4210 C4213 1.350 . S
N4211 S4209 1.610 . S
N4211 C4212 1.351 . S
C4212 C4206 1.428 . S
C4212 N4211 1.351 . S
C4212 C4213 1.434 . S
C4213 C4204 1.429 . S
C4213 N4210 1.350 . S
C4213 C4212 1.434 . S
C4214 C4215 1.369 . S
C4214 C4216 1.419 . S
C4214 H4218 0.930 . S
C4215 C4214 1.369 . S
C4215 C4224 1.429 . S
C4216 C4214 1.419 . S
C4216 C4217 1.363 . S
C4216 H4219 0.929 . S
C4217 C4216 1.363 . S
C4217 C4223 1.428 . S
H4218 C4214 0.930 . S
H4219 C4216 0.929 . S
S4220 N4221 1.613 . S
S4220 N4222 1.610 . S
N4221 S4220 1.613 . S
N4221 C4224 1.350 . S
N4222 S4220 1.610 . S
N4222 C4223 1.351 . S
C4223 C4217 1.428 . S
C4223 N4222 1.351 . S
C4223 C4224 1.434 . S
C4224 C4215 1.429 . S
C4224 N4221 1.350 . S
C4224 C4223 1.434 . S
C4225 C4226 1.369 . S
C4225 C4227 1.419 . S
C4225 H4229 0.930 . S
C4226 C4225 1.369 . S
C4226 C4235 1.429 . S
C4227 C4225 1.419 . S
C4227 C4228 1.363 . S
C4227 H4230 0.929 . S
C4228 C4227 1.363 . S
C4228 C4234 1.428 . S
H4229 C4225 0.930 . S
H4230 C4227 0.929 . S
S4231 N4232 1.613 . S
S4231 N4233 1.610 . S
N4232 S4231 1.613 . S
N4232 C4235 1.350 . S
N4233 S4231 1.610 . S
N4233 C4234 1.351 . S
C4234 C4228 1.428 . S
C4234 N4233 1.351 . S
C4234 C4235 1.434 . S
C4235 C4226 1.429 . S
C4235 N4232 1.350 . S
C4235 C4234 1.434 . S
C4236 C4237 1.369 . S
C4236 C4238 1.419 . S
C4236 H4240 0.930 . S
C4237 C4236 1.369 . S
C4237 C4246 1.429 . S
C4238 C4236 1.419 . S
C4238 C4239 1.363 . S
C4238 H4241 0.929 . S
C4239 C4238 1.363 . S
C4239 C4245 1.428 . S
H4240 C4236 0.930 . S
H4241 C4238 0.929 . S
S4242 N4243 1.613 . S
S4242 N4244 1.610 . S
N4243 S4242 1.613 . S
N4243 C4246 1.350 1_455 S
N4244 S4242 1.610 . S
N4244 C4245 1.351 1_455 S
C4245 C4239 1.428 . S
C4245 N4244 1.351 1_655 S
C4245 C4246 1.434 . S
C4246 C4237 1.429 . S
C4246 N4243 1.350 1_655 S
C4246 C4245 1.434 . S
C4247 C4248 1.369 . S
C4247 C4249 1.419 . S
C4247 H4251 0.930 . S
C4248 C4247 1.369 . S
C4248 C4257 1.429 . S
C4249 C4247 1.419 . S
C4249 C4250 1.363 . S
C4249 H4252 0.929 . S
C4250 C4249 1.363 . S
C4250 C4256 1.428 . S
H4251 C4247 0.930 . S
H4252 C4249 0.929 . S
S4253 N4254 1.613 . S
S4253 N4255 1.610 . S
N4254 S4253 1.613 . S
N4254 C4257 1.350 . S
N4255 S4253 1.610 . S
N4255 C4256 1.351 . S
C4256 C4250 1.428 . S
C4256 N4255 1.351 . S
C4256 C4257 1.434 . S
C4257 C4248 1.429 . S
C4257 N4254 1.350 . S
C4257 C4256 1.434 . S
C4258 C4259 1.369 . S
C4258 C4260 1.419 . S
C4258 H4262 0.930 . S
C4259 C4258 1.369 . S
C4259 C4268 1.429 . S
C4260 C4258 1.419 . S
C4260 C4261 1.363 . S
C4260 H4263 0.929 . S
C4261 C4260 1.363 . S
C4261 C4267 1.428 . S
H4262 C4258 0.930 . S
H4263 C4260 0.929 . S
S4264 N4265 1.613 . S
S4264 N4266 1.610 . S
N4265 S4264 1.613 . S
N4265 C4268 1.350 . S
N4266 S4264 1.610 . S
N4266 C4267 1.351 . S
C4267 C4261 1.428 . S
C4267 N4266 1.351 . S
C4267 C4268 1.434 . S
C4268 C4259 1.429 . S
C4268 N4265 1.350 . S
C4268 C4267 1.434 . S
C4269 C4270 1.369 . S
C4269 C4271 1.419 . S
C4269 H4273 0.930 . S
C4270 C4269 1.369 . S
C4270 C4279 1.429 . S
C4271 C4269 1.419 . S
C4271 C4272 1.363 . S
C4271 H4274 0.929 . S
C4272 C4271 1.363 . S
C4272 C4278 1.428 . S
H4273 C4269 0.930 . S
H4274 C4271 0.929 . S
S4275 N4276 1.613 . S
S4275 N4277 1.610 . S
N4276 S4275 1.613 . S
N4276 C4279 1.350 . S
N4277 S4275 1.610 . S
N4277 C4278 1.351 . S
C4278 C4272 1.428 . S
C4278 N4277 1.351 . S
C4278 C4279 1.434 . S
C4279 C4270 1.429 . S
C4279 N4276 1.350 . S
C4279 C4278 1.434 . S
C4280 C4281 1.369 . S
C4280 C4282 1.419 . S
C4280 H4284 0.930 . S
C4281 C4280 1.369 . S
C4281 C4290 1.429 . S
C4282 C4280 1.419 . S
C4282 C4283 1.363 . S
C4282 H4285 0.929 . S
C4283 C4282 1.363 . S
C4283 C4289 1.428 . S
H4284 C4280 0.930 . S
H4285 C4282 0.929 . S
S4286 N4287 1.613 . S
S4286 N4288 1.610 . S
N4287 S4286 1.613 . S
N4287 C4290 1.350 . S
N4288 S4286 1.610 . S
N4288 C4289 1.351 . S
C4289 C4283 1.428 . S
C4289 N4288 1.351 . S
C4289 C4290 1.434 . S
C4290 C4281 1.429 . S
C4290 N4287 1.350 . S
C4290 C4289 1.434 . S
C4291 C4292 1.369 . S
C4291 C4293 1.419 . S
C4291 H4295 0.930 . S
C4292 C4291 1.369 . S
C4292 C4301 1.429 . S
C4293 C4291 1.419 . S
C4293 C4294 1.363 . S
C4293 H4296 0.929 . S
C4294 C4293 1.363 . S
C4294 C4300 1.428 . S
H4295 C4291 0.930 . S
H4296 C4293 0.929 . S
S4297 N4298 1.613 . S
S4297 N4299 1.610 . S
N4298 S4297 1.613 . S
N4298 C4301 1.350 . S
N4299 S4297 1.610 . S
N4299 C4300 1.351 . S
C4300 C4294 1.428 . S
C4300 N4299 1.351 . S
C4300 C4301 1.434 . S
C4301 C4292 1.429 . S
C4301 N4298 1.350 . S
C4301 C4300 1.434 . S
C4302 C4303 1.369 . S
C4302 C4304 1.419 . S
C4302 H4306 0.930 . S
C4303 C4302 1.369 . S
C4303 C4312 1.429 . S
C4304 C4302 1.419 . S
C4304 C4305 1.363 . S
C4304 H4307 0.929 . S
C4305 C4304 1.363 . S
C4305 C4311 1.428 . S
H4306 C4302 0.930 . S
H4307 C4304 0.929 . S
S4308 N4309 1.613 . S
S4308 N4310 1.610 . S
N4309 S4308 1.613 . S
N4309 C4312 1.350 . S
N4310 S4308 1.610 . S
N4310 C4311 1.351 . S
C4311 C4305 1.428 . S
C4311 N4310 1.351 . S
C4311 C4312 1.434 . S
C4312 C4303 1.429 . S
C4312 N4309 1.350 . S
C4312 C4311 1.434 . S
C4313 C4314 1.369 . S
C4313 C4315 1.419 . S
C4313 H4317 0.930 . S
C4314 C4313 1.369 . S
C4314 C4323 1.429 . S
C4315 C4313 1.419 . S
C4315 C4316 1.363 . S
C4315 H4318 0.929 . S
C4316 C4315 1.363 . S
C4316 C4322 1.428 . S
H4317 C4313 0.930 . S
H4318 C4315 0.929 . S
S4319 N4320 1.613 . S
S4319 N4321 1.610 . S
N4320 S4319 1.613 . S
N4320 C4323 1.350 . S
N4321 S4319 1.610 . S
N4321 C4322 1.351 . S
C4322 C4316 1.428 . S
C4322 N4321 1.351 . S
C4322 C4323 1.434 . S
C4323 C4314 1.429 . S
C4323 N4320 1.350 . S
C4323 C4322 1.434 . S
C4324 C4325 1.369 . S
C4324 C4326 1.419 . S
C4324 H4328 0.930 . S
C4325 C4324 1.369 . S
C4325 C4334 1.429 . S
C4326 C4324 1.419 . S
C4326 C4327 1.363 . S
C4326 H4329 0.929 . S
C4327 C4326 1.363 . S
C4327 C4333 1.428 . S
H4328 C4324 0.930 . S
H4329 C4326 0.929 . S
S4330 N4331 1.613 . S
S4330 N4332 1.610 . S
N4331 S4330 1.613 . S
N4331 C4334 1.350 . S
N4332 S4330 1.610 . S
N4332 C4333 1.351 . S
C4333 C4327 1.428 . S
C4333 N4332 1.351 . S
C4333 C4334 1.434 . S
C4334 C4325 1.429 . S
C4334 N4331 1.350 . S
C4334 C4333 1.434 . S
C4335 C4336 1.369 . S
C4335 C4337 1.419 . S
C4335 H4339 0.930 . S
C4336 C4335 1.369 . S
C4336 C4345 1.429 . S
C4337 C4335 1.419 . S
C4337 C4338 1.363 . S
C4337 H4340 0.929 . S
C4338 C4337 1.363 . S
C4338 C4344 1.428 . S
H4339 C4335 0.930 . S
H4340 C4337 0.929 . S
S4341 N4342 1.613 . S
S4341 N4343 1.610 . S
N4342 S4341 1.613 . S
N4342 C4345 1.350 . S
N4343 S4341 1.610 . S
N4343 C4344 1.351 . S
C4344 C4338 1.428 . S
C4344 N4343 1.351 . S
C4344 C4345 1.434 . S
C4345 C4336 1.429 . S
C4345 N4342 1.350 . S
C4345 C4344 1.434 . S
C4346 C4347 1.369 . S
C4346 C4348 1.419 . S
C4346 H4350 0.930 . S
C4347 C4346 1.369 . S
C4347 C4356 1.429 . S
C4348 C4346 1.419 . S
C4348 C4349 1.363 . S
C4348 H4351 0.929 . S
C4349 C4348 1.363 . S
C4349 C4355 1.428 . S
H4350 C4346 0.930 . S
H4351 C4348 0.929 . S
S4352 N4353 1.613 . S
S4352 N4354 1.610 . S
N4353 S4352 1.613 . S
N4353 C4356 1.350 . S
N4354 S4352 1.610 . S
N4354 C4355 1.351 . S
C4355 C4349 1.428 . S
C4355 N4354 1.351 . S
C4355 C4356 1.434 . S
C4356 C4347 1.429 . S
C4356 N4353 1.350 . S
C4356 C4355 1.434 . S
C4357 C4358 1.369 . S
C4357 C4359 1.419 . S
C4357 H4361 0.930 . S
C4358 C4357 1.369 . S
C4358 C4367 1.429 . S
C4359 C4357 1.419 . S
C4359 C4360 1.363 . S
C4359 H4362 0.929 . S
C4360 C4359 1.363 . S
C4360 C4366 1.428 . S
H4361 C4357 0.930 . S
H4362 C4359 0.929 . S
S4363 N4364 1.613 . S
S4363 N4365 1.610 . S
N4364 S4363 1.613 . S
N4364 C4367 1.350 . S
N4365 S4363 1.610 . S
N4365 C4366 1.351 . S
C4366 C4360 1.428 . S
C4366 N4365 1.351 . S
C4366 C4367 1.434 . S
C4367 C4358 1.429 . S
C4367 N4364 1.350 . S
C4367 C4366 1.434 . S
C4368 C4369 1.369 . S
C4368 C4370 1.419 . S
C4368 H4372 0.930 . S
C4369 C4368 1.369 . S
C4369 C4378 1.429 . S
C4370 C4368 1.419 . S
C4370 C4371 1.363 . S
C4370 H4373 0.929 . S
C4371 C4370 1.363 . S
C4371 C4377 1.428 . S
H4372 C4368 0.930 . S
H4373 C4370 0.929 . S
S4374 N4375 1.613 . S
S4374 N4376 1.610 . S
N4375 S4374 1.613 . S
N4375 C4378 1.350 . S
N4376 S4374 1.610 . S
N4376 C4377 1.351 . S
C4377 C4371 1.428 . S
C4377 N4376 1.351 . S
C4377 C4378 1.434 . S
C4378 C4369 1.429 . S
C4378 N4375 1.350 . S
C4378 C4377 1.434 . S
C4379 C4380 1.369 . S
C4379 C4381 1.419 . S
C4379 H4383 0.930 . S
C4380 C4379 1.369 . S
C4380 C4389 1.429 . S
C4381 C4379 1.419 . S
C4381 C4382 1.363 . S
C4381 H4384 0.929 . S
C4382 C4381 1.363 . S
C4382 C4388 1.428 . S
H4383 C4379 0.930 . S
H4384 C4381 0.929 . S
S4385 N4386 1.613 . S
S4385 N4387 1.610 . S
N4386 S4385 1.613 . S
N4386 C4389 1.350 . S
N4387 S4385 1.610 . S
N4387 C4388 1.351 . S
C4388 C4382 1.428 . S
C4388 N4387 1.351 . S
C4388 C4389 1.434 . S
C4389 C4380 1.429 . S
C4389 N4386 1.350 . S
C4389 C4388 1.434 . S
C4390 C4391 1.369 . S
C4390 C4392 1.419 . S
C4390 H4394 0.930 . S
C4391 C4390 1.369 . S
C4391 C4400 1.429 . S
C4392 C4390 1.419 . S
C4392 C4393 1.363 . S
C4392 H4395 0.929 . S
C4393 C4392 1.363 . S
C4393 C4399 1.428 . S
H4394 C4390 0.930 . S
H4395 C4392 0.929 . S
S4396 N4397 1.613 . S
S4396 N4398 1.610 . S
N4397 S4396 1.613 . S
N4397 C4400 1.350 . S
N4398 S4396 1.610 . S
N4398 C4399 1.351 . S
C4399 C4393 1.428 . S
C4399 N4398 1.351 . S
C4399 C4400 1.434 . S
C4400 C4391 1.429 . S
C4400 N4397 1.350 . S
C4400 C4399 1.434 . S
C4401 C4402 1.369 . S
C4401 C4403 1.419 . S
C4401 H4405 0.930 . S
C4402 C4401 1.369 . S
C4402 C4411 1.429 . S
C4403 C4401 1.419 . S
C4403 C4404 1.363 . S
C4403 H4406 0.929 . S
C4404 C4403 1.363 . S
C4404 C4410 1.428 . S
H4405 C4401 0.930 . S
H4406 C4403 0.929 . S
S4407 N4408 1.613 . S
S4407 N4409 1.610 . S
N4408 S4407 1.613 . S
N4408 C4411 1.350 . S
N4409 S4407 1.610 . S
N4409 C4410 1.351 . S
C4410 C4404 1.428 . S
C4410 N4409 1.351 . S
C4410 C4411 1.434 . S
C4411 C4402 1.429 . S
C4411 N4408 1.350 . S
C4411 C4410 1.434 . S
C4412 C4413 1.369 . S
C4412 C4414 1.419 . S
C4412 H4416 0.930 1_556 S
C4413 C4412 1.369 . S
C4413 C4422 1.429 . S
C4414 C4412 1.419 . S
C4414 C4415 1.363 . S
C4414 H4417 0.929 1_556 S
C4415 C4414 1.363 . S
C4415 C4421 1.428 . S
H4416 C4412 0.930 1_554 S
H4417 C4414 0.929 1_554 S
S4418 N4419 1.613 . S
S4418 N4420 1.610 . S
N4419 S4418 1.613 . S
N4419 C4422 1.350 . S
N4420 S4418 1.610 . S
N4420 C4421 1.351 . S
C4421 C4415 1.428 . S
C4421 N4420 1.351 . S
C4421 C4422 1.434 . S
C4422 C4413 1.429 . S
C4422 N4419 1.350 . S
C4422 C4421 1.434 . S
C4423 C4424 1.369 . S
C4423 C4425 1.419 . S
C4423 H4427 0.930 . S
C4424 C4423 1.369 . S
C4424 C4433 1.429 . S
C4425 C4423 1.419 . S
C4425 C4426 1.363 . S
C4425 H4428 0.929 . S
C4426 C4425 1.363 . S
C4426 C4432 1.428 . S
H4427 C4423 0.930 . S
H4428 C4425 0.929 . S
S4429 N4430 1.613 . S
S4429 N4431 1.610 . S
N4430 S4429 1.613 . S
N4430 C4433 1.350 . S
N4431 S4429 1.610 . S
N4431 C4432 1.351 . S
C4432 C4426 1.428 . S
C4432 N4431 1.351 . S
C4432 C4433 1.434 . S
C4433 C4424 1.429 . S
C4433 N4430 1.350 . S
C4433 C4432 1.434 . S
C4434 C4435 1.369 . S
C4434 C4436 1.419 . S
C4434 H4438 0.930 . S
C4435 C4434 1.369 . S
C4435 C4444 1.429 . S
C4436 C4434 1.419 . S
C4436 C4437 1.363 . S
C4436 H4439 0.929 . S
C4437 C4436 1.363 . S
C4437 C4443 1.428 . S
H4438 C4434 0.930 . S
H4439 C4436 0.929 . S
S4440 N4441 1.613 . S
S4440 N4442 1.610 . S
N4441 S4440 1.613 . S
N4441 C4444 1.350 . S
N4442 S4440 1.610 . S
N4442 C4443 1.351 . S
C4443 C4437 1.428 . S
C4443 N4442 1.351 . S
C4443 C4444 1.434 . S
C4444 C4435 1.429 . S
C4444 N4441 1.350 . S
C4444 C4443 1.434 . S
C4445 C4446 1.369 . S
C4445 C4447 1.419 . S
C4445 H4449 0.930 . S
C4446 C4445 1.369 . S
C4446 C4455 1.429 . S
C4447 C4445 1.419 . S
C4447 C4448 1.363 . S
C4447 H4450 0.929 . S
C4448 C4447 1.363 . S
C4448 C4454 1.428 . S
H4449 C4445 0.930 . S
H4450 C4447 0.929 . S
S4451 N4452 1.613 . S
S4451 N4453 1.610 . S
N4452 S4451 1.613 . S
N4452 C4455 1.350 . S
N4453 S4451 1.610 . S
N4453 C4454 1.351 . S
C4454 C4448 1.428 . S
C4454 N4453 1.351 . S
C4454 C4455 1.434 . S
C4455 C4446 1.429 . S
C4455 N4452 1.350 . S
C4455 C4454 1.434 . S
C4456 C4457 1.369 . S
C4456 C4458 1.419 . S
C4456 H4460 0.930 . S
C4457 C4456 1.369 . S
C4457 C4466 1.429 . S
C4458 C4456 1.419 . S
C4458 C4459 1.363 . S
C4458 H4461 0.929 . S
C4459 C4458 1.363 . S
C4459 C4465 1.428 . S
H4460 C4456 0.930 . S
H4461 C4458 0.929 . S
S4462 N4463 1.613 . S
S4462 N4464 1.610 . S
N4463 S4462 1.613 . S
N4463 C4466 1.350 . S
N4464 S4462 1.610 . S
N4464 C4465 1.351 . S
C4465 C4459 1.428 . S
C4465 N4464 1.351 . S
C4465 C4466 1.434 . S
C4466 C4457 1.429 . S
C4466 N4463 1.350 . S
C4466 C4465 1.434 . S
C4467 C4468 1.369 . S
C4467 C4469 1.419 . S
C4467 H4471 0.930 . S
C4468 C4467 1.369 . S
C4468 C4477 1.429 . S
C4469 C4467 1.419 . S
C4469 C4470 1.363 . S
C4469 H4472 0.929 . S
C4470 C4469 1.363 . S
C4470 C4476 1.428 . S
H4471 C4467 0.930 . S
H4472 C4469 0.929 . S
S4473 N4474 1.613 . S
S4473 N4475 1.610 . S
N4474 S4473 1.613 . S
N4474 C4477 1.350 . S
N4475 S4473 1.610 . S
N4475 C4476 1.351 . S
C4476 C4470 1.428 . S
C4476 N4475 1.351 . S
C4476 C4477 1.434 . S
C4477 C4468 1.429 . S
C4477 N4474 1.350 . S
C4477 C4476 1.434 . S
C4478 C4479 1.369 . S
C4478 C4480 1.419 . S
C4478 H4482 0.930 . S
C4479 C4478 1.369 . S
C4479 C4488 1.429 . S
C4480 C4478 1.419 . S
C4480 C4481 1.363 . S
C4480 H4483 0.929 . S
C4481 C4480 1.363 . S
C4481 C4487 1.428 . S
H4482 C4478 0.930 . S
H4483 C4480 0.929 . S
S4484 N4485 1.613 . S
S4484 N4486 1.610 . S
N4485 S4484 1.613 . S
N4485 C4488 1.350 1_455 S
N4486 S4484 1.610 . S
N4486 C4487 1.351 1_455 S
C4487 C4481 1.428 . S
C4487 N4486 1.351 1_655 S
C4487 C4488 1.434 . S
C4488 C4479 1.429 . S
C4488 N4485 1.350 1_655 S
C4488 C4487 1.434 . S
C4489 C4490 1.369 . S
C4489 C4491 1.419 . S
C4489 H4493 0.930 . S
C4490 C4489 1.369 . S
C4490 C4499 1.429 . S
C4491 C4489 1.419 . S
C4491 C4492 1.363 . S
C4491 H4494 0.929 . S
C4492 C4491 1.363 . S
C4492 C4498 1.428 . S
H4493 C4489 0.930 . S
H4494 C4491 0.929 . S
S4495 N4496 1.613 . S
S4495 N4497 1.610 . S
N4496 S4495 1.613 . S
N4496 C4499 1.350 . S
N4497 S4495 1.610 . S
N4497 C4498 1.351 . S
C4498 C4492 1.428 . S
C4498 N4497 1.351 . S
C4498 C4499 1.434 . S
C4499 C4490 1.429 . S
C4499 N4496 1.350 . S
C4499 C4498 1.434 . S
C4500 C4501 1.369 . S
C4500 C4502 1.419 . S
C4500 H4504 0.930 . S
C4501 C4500 1.369 . S
C4501 C4510 1.429 . S
C4502 C4500 1.419 . S
C4502 C4503 1.363 . S
C4502 H4505 0.929 . S
C4503 C4502 1.363 . S
C4503 C4509 1.428 . S
H4504 C4500 0.930 . S
H4505 C4502 0.929 . S
S4506 N4507 1.613 . S
S4506 N4508 1.610 . S
N4507 S4506 1.613 . S
N4507 C4510 1.350 . S
N4508 S4506 1.610 . S
N4508 C4509 1.351 . S
C4509 C4503 1.428 . S
C4509 N4508 1.351 . S
C4509 C4510 1.434 . S
C4510 C4501 1.429 . S
C4510 N4507 1.350 . S
C4510 C4509 1.434 . S
C4511 C4512 1.369 . S
C4511 C4513 1.419 . S
C4511 H4515 0.930 . S
C4512 C4511 1.369 . S
C4512 C4521 1.429 . S
C4513 C4511 1.419 . S
C4513 C4514 1.363 . S
C4513 H4516 0.929 . S
C4514 C4513 1.363 . S
C4514 C4520 1.428 . S
H4515 C4511 0.930 . S
H4516 C4513 0.929 . S
S4517 N4518 1.613 . S
S4517 N4519 1.610 . S
N4518 S4517 1.613 . S
N4518 C4521 1.350 . S
N4519 S4517 1.610 . S
N4519 C4520 1.351 . S
C4520 C4514 1.428 . S
C4520 N4519 1.351 . S
C4520 C4521 1.434 . S
C4521 C4512 1.429 . S
C4521 N4518 1.350 . S
C4521 C4520 1.434 . S
C4522 C4523 1.369 . S
C4522 C4524 1.419 . S
C4522 H4526 0.930 . S
C4523 C4522 1.369 . S
C4523 C4532 1.429 . S
C4524 C4522 1.419 . S
C4524 C4525 1.363 . S
C4524 H4527 0.929 . S
C4525 C4524 1.363 . S
C4525 C4531 1.428 . S
H4526 C4522 0.930 . S
H4527 C4524 0.929 . S
S4528 N4529 1.613 1_455 S
S4528 N4530 1.610 1_455 S
N4529 S4528 1.613 1_655 S
N4529 C4532 1.350 . S
N4530 S4528 1.610 1_655 S
N4530 C4531 1.351 . S
C4531 C4525 1.428 . S
C4531 N4530 1.351 . S
C4531 C4532 1.434 . S
C4532 C4523 1.429 . S
C4532 N4529 1.350 . S
C4532 C4531 1.434 . S
C4533 C4534 1.369 . S
C4533 C4535 1.419 . S
C4533 H4537 0.930 . S
C4534 C4533 1.369 . S
C4534 C4543 1.429 . S
C4535 C4533 1.419 . S
C4535 C4536 1.363 . S
C4535 H4538 0.929 . S
C4536 C4535 1.363 . S
C4536 C4542 1.428 . S
H4537 C4533 0.930 . S
H4538 C4535 0.929 . S
S4539 N4540 1.613 . S
S4539 N4541 1.610 . S
N4540 S4539 1.613 . S
N4540 C4543 1.350 . S
N4541 S4539 1.610 . S
N4541 C4542 1.351 . S
C4542 C4536 1.428 . S
C4542 N4541 1.351 . S
C4542 C4543 1.434 . S
C4543 C4534 1.429 . S
C4543 N4540 1.350 . S
C4543 C4542 1.434 . S
C4544 C4545 1.369 . S
C4544 C4546 1.419 . S
C4544 H4548 0.930 . S
C4545 C4544 1.369 . S
C4545 C4554 1.429 . S
C4546 C4544 1.419 . S
C4546 C4547 1.363 . S
C4546 H4549 0.929 . S
C4547 C4546 1.363 . S
C4547 C4553 1.428 . S
H4548 C4544 0.930 . S
H4549 C4546 0.929 . S
S4550 N4551 1.613 . S
S4550 N4552 1.610 . S
N4551 S4550 1.613 . S
N4551 C4554 1.350 . S
N4552 S4550 1.610 . S
N4552 C4553 1.351 . S
C4553 C4547 1.428 . S
C4553 N4552 1.351 . S
C4553 C4554 1.434 . S
C4554 C4545 1.429 . S
C4554 N4551 1.350 . S
C4554 C4553 1.434 . S
C4555 C4556 1.369 . S
C4555 C4557 1.419 . S
C4555 H4559 0.930 1_565 S
C4556 C4555 1.369 . S
C4556 C4565 1.429 . S
C4557 C4555 1.419 . S
C4557 C4558 1.363 . S
C4557 H4560 0.929 1_565 S
C4558 C4557 1.363 . S
C4558 C4564 1.428 . S
H4559 C4555 0.930 1_545 S
H4560 C4557 0.929 1_545 S
S4561 N4562 1.613 . S
S4561 N4563 1.610 . S
N4562 S4561 1.613 . S
N4562 C4565 1.350 . S
N4563 S4561 1.610 . S
N4563 C4564 1.351 . S
C4564 C4558 1.428 . S
C4564 N4563 1.351 . S
C4564 C4565 1.434 . S
C4565 C4556 1.429 . S
C4565 N4562 1.350 . S
C4565 C4564 1.434 . S
C4566 C4567 1.369 . S
C4566 C4568 1.419 . S
C4566 H4570 0.930 . S
C4567 C4566 1.369 . S
C4567 C4576 1.429 . S
C4568 C4566 1.419 . S
C4568 C4569 1.363 . S
C4568 H4571 0.929 . S
C4569 C4568 1.363 . S
C4569 C4575 1.428 . S
H4570 C4566 0.930 . S
H4571 C4568 0.929 . S
S4572 N4573 1.613 . S
S4572 N4574 1.610 . S
N4573 S4572 1.613 . S
N4573 C4576 1.350 . S
N4574 S4572 1.610 . S
N4574 C4575 1.351 . S
C4575 C4569 1.428 . S
C4575 N4574 1.351 . S
C4575 C4576 1.434 . S
C4576 C4567 1.429 . S
C4576 N4573 1.350 . S
C4576 C4575 1.434 . S
C4577 C4578 1.369 . S
C4577 C4579 1.419 . S
C4577 H4581 0.930 . S
C4578 C4577 1.369 . S
C4578 C4587 1.429 . S
C4579 C4577 1.419 . S
C4579 C4580 1.363 . S
C4579 H4582 0.929 . S
C4580 C4579 1.363 . S
C4580 C4586 1.428 . S
H4581 C4577 0.930 . S
H4582 C4579 0.929 . S
S4583 N4584 1.613 . S
S4583 N4585 1.610 . S
N4584 S4583 1.613 . S
N4584 C4587 1.350 . S
N4585 S4583 1.610 . S
N4585 C4586 1.351 . S
C4586 C4580 1.428 . S
C4586 N4585 1.351 . S
C4586 C4587 1.434 . S
C4587 C4578 1.429 . S
C4587 N4584 1.350 . S
C4587 C4586 1.434 . S
C4588 C4589 1.369 . S
C4588 C4590 1.419 . S
C4588 H4592 0.930 . S
C4589 C4588 1.369 . S
C4589 C4598 1.429 . S
C4590 C4588 1.419 . S
C4590 C4591 1.363 . S
C4590 H4593 0.929 . S
C4591 C4590 1.363 . S
C4591 C4597 1.428 . S
H4592 C4588 0.930 . S
H4593 C4590 0.929 . S
S4594 N4595 1.613 . S
S4594 N4596 1.610 . S
N4595 S4594 1.613 . S
N4595 C4598 1.350 . S
N4596 S4594 1.610 . S
N4596 C4597 1.351 . S
C4597 C4591 1.428 . S
C4597 N4596 1.351 . S
C4597 C4598 1.434 . S
C4598 C4589 1.429 . S
C4598 N4595 1.350 . S
C4598 C4597 1.434 . S
C4599 C4600 1.369 . S
C4599 C4601 1.419 . S
C4599 H4603 0.930 . S
C4600 C4599 1.369 . S
C4600 C4609 1.429 . S
C4601 C4599 1.419 . S
C4601 C4602 1.363 . S
C4601 H4604 0.929 . S
C4602 C4601 1.363 . S
C4602 C4608 1.428 . S
H4603 C4599 0.930 . S
H4604 C4601 0.929 . S
S4605 N4606 1.613 . S
S4605 N4607 1.610 . S
N4606 S4605 1.613 . S
N4606 C4609 1.350 . S
N4607 S4605 1.610 . S
N4607 C4608 1.351 . S
C4608 C4602 1.428 . S
C4608 N4607 1.351 . S
C4608 C4609 1.434 . S
C4609 C4600 1.429 . S
C4609 N4606 1.350 . S
C4609 C4608 1.434 . S
C4610 C4611 1.369 . S
C4610 C4612 1.419 . S
C4610 H4614 0.930 . S
C4611 C4610 1.369 . S
C4611 C4620 1.429 . S
C4612 C4610 1.419 . S
C4612 C4613 1.363 . S
C4612 H4615 0.929 . S
C4613 C4612 1.363 . S
C4613 C4619 1.428 . S
H4614 C4610 0.930 . S
H4615 C4612 0.929 . S
S4616 N4617 1.613 . S
S4616 N4618 1.610 . S
N4617 S4616 1.613 . S
N4617 C4620 1.350 . S
N4618 S4616 1.610 . S
N4618 C4619 1.351 . S
C4619 C4613 1.428 . S
C4619 N4618 1.351 . S
C4619 C4620 1.434 . S
C4620 C4611 1.429 . S
C4620 N4617 1.350 . S
C4620 C4619 1.434 . S
C4621 C4622 1.369 . S
C4621 C4623 1.419 . S
C4621 H4625 0.930 . S
C4622 C4621 1.369 . S
C4622 C4631 1.429 . S
C4623 C4621 1.419 . S
C4623 C4624 1.363 . S
C4623 H4626 0.929 . S
C4624 C4623 1.363 . S
C4624 C4630 1.428 . S
H4625 C4621 0.930 . S
H4626 C4623 0.929 . S
S4627 N4628 1.613 . S
S4627 N4629 1.610 . S
N4628 S4627 1.613 . S
N4628 C4631 1.350 . S
N4629 S4627 1.610 . S
N4629 C4630 1.351 . S
C4630 C4624 1.428 . S
C4630 N4629 1.351 . S
C4630 C4631 1.434 . S
C4631 C4622 1.429 . S
C4631 N4628 1.350 . S
C4631 C4630 1.434 . S
C4632 C4633 1.369 . S
C4632 C4634 1.419 . S
C4632 H4636 0.930 . S
C4633 C4632 1.369 . S
C4633 C4642 1.429 . S
C4634 C4632 1.419 . S
C4634 C4635 1.363 . S
C4634 H4637 0.929 . S
C4635 C4634 1.363 . S
C4635 C4641 1.428 . S
H4636 C4632 0.930 . S
H4637 C4634 0.929 . S
S4638 N4639 1.613 . S
S4638 N4640 1.610 . S
N4639 S4638 1.613 . S
N4639 C4642 1.350 . S
N4640 S4638 1.610 . S
N4640 C4641 1.351 . S
C4641 C4635 1.428 . S
C4641 N4640 1.351 . S
C4641 C4642 1.434 . S
C4642 C4633 1.429 . S
C4642 N4639 1.350 . S
C4642 C4641 1.434 . S
C4643 C4644 1.369 . S
C4643 C4645 1.419 . S
C4643 H4647 0.930 . S
C4644 C4643 1.369 . S
C4644 C4653 1.429 . S
C4645 C4643 1.419 . S
C4645 C4646 1.363 . S
C4645 H4648 0.929 . S
C4646 C4645 1.363 . S
C4646 C4652 1.428 . S
H4647 C4643 0.930 . S
H4648 C4645 0.929 . S
S4649 N4650 1.613 . S
S4649 N4651 1.610 . S
N4650 S4649 1.613 . S
N4650 C4653 1.350 . S
N4651 S4649 1.610 . S
N4651 C4652 1.351 . S
C4652 C4646 1.428 . S
C4652 N4651 1.351 . S
C4652 C4653 1.434 . S
C4653 C4644 1.429 . S
C4653 N4650 1.350 . S
C4653 C4652 1.434 . S
C4654 C4655 1.369 . S
C4654 C4656 1.419 . S
C4654 H4658 0.930 . S
C4655 C4654 1.369 . S
C4655 C4664 1.429 . S
C4656 C4654 1.419 . S
C4656 C4657 1.363 . S
C4656 H4659 0.929 . S
C4657 C4656 1.363 . S
C4657 C4663 1.428 . S
H4658 C4654 0.930 . S
H4659 C4656 0.929 . S
S4660 N4661 1.613 . S
S4660 N4662 1.610 . S
N4661 S4660 1.613 . S
N4661 C4664 1.350 . S
N4662 S4660 1.610 . S
N4662 C4663 1.351 . S
C4663 C4657 1.428 . S
C4663 N4662 1.351 . S
C4663 C4664 1.434 . S
C4664 C4655 1.429 . S
C4664 N4661 1.350 . S
C4664 C4663 1.434 . S
C4665 C4666 1.369 . S
C4665 C4667 1.419 . S
C4665 H4669 0.930 . S
C4666 C4665 1.369 . S
C4666 C4675 1.429 . S
C4667 C4665 1.419 . S
C4667 C4668 1.363 . S
C4667 H4670 0.929 . S
C4668 C4667 1.363 . S
C4668 C4674 1.428 . S
H4669 C4665 0.930 . S
H4670 C4667 0.929 . S
S4671 N4672 1.613 . S
S4671 N4673 1.610 . S
N4672 S4671 1.613 . S
N4672 C4675 1.350 . S
N4673 S4671 1.610 . S
N4673 C4674 1.351 . S
C4674 C4668 1.428 . S
C4674 N4673 1.351 . S
C4674 C4675 1.434 . S
C4675 C4666 1.429 . S
C4675 N4672 1.350 . S
C4675 C4674 1.434 . S
C4676 C4677 1.369 . S
C4676 C4678 1.419 . S
C4676 H4680 0.930 1_554 S
C4677 C4676 1.369 . S
C4677 C4686 1.429 . S
C4678 C4676 1.419 . S
C4678 C4679 1.363 . S
C4678 H4681 0.929 1_554 S
C4679 C4678 1.363 . S
C4679 C4685 1.428 . S
H4680 C4676 0.930 1_556 S
H4681 C4678 0.929 1_556 S
S4682 N4683 1.613 . S
S4682 N4684 1.610 . S
N4683 S4682 1.613 . S
N4683 C4686 1.350 . S
N4684 S4682 1.610 . S
N4684 C4685 1.351 . S
C4685 C4679 1.428 . S
C4685 N4684 1.351 . S
C4685 C4686 1.434 . S
C4686 C4677 1.429 . S
C4686 N4683 1.350 . S
C4686 C4685 1.434 . S
C4687 C4688 1.369 . S
C4687 C4689 1.419 . S
C4687 H4691 0.930 . S
C4688 C4687 1.369 . S
C4688 C4697 1.429 . S
C4689 C4687 1.419 . S
C4689 C4690 1.363 . S
C4689 H4692 0.929 . S
C4690 C4689 1.363 . S
C4690 C4696 1.428 . S
H4691 C4687 0.930 . S
H4692 C4689 0.929 . S
S4693 N4694 1.613 . S
S4693 N4695 1.610 . S
N4694 S4693 1.613 . S
N4694 C4697 1.350 . S
N4695 S4693 1.610 . S
N4695 C4696 1.351 . S
C4696 C4690 1.428 . S
C4696 N4695 1.351 . S
C4696 C4697 1.434 . S
C4697 C4688 1.429 . S
C4697 N4694 1.350 . S
C4697 C4696 1.434 . S
C4698 C4699 1.369 . S
C4698 C4700 1.419 . S
C4698 H4702 0.930 . S
C4699 C4698 1.369 . S
C4699 C4708 1.429 . S
C4700 C4698 1.419 . S
C4700 C4701 1.363 . S
C4700 H4703 0.929 . S
C4701 C4700 1.363 . S
C4701 C4707 1.428 . S
H4702 C4698 0.930 . S
H4703 C4700 0.929 . S
S4704 N4705 1.613 . S
S4704 N4706 1.610 . S
N4705 S4704 1.613 . S
N4705 C4708 1.350 . S
N4706 S4704 1.610 . S
N4706 C4707 1.351 . S
C4707 C4701 1.428 . S
C4707 N4706 1.351 . S
C4707 C4708 1.434 . S
C4708 C4699 1.429 . S
C4708 N4705 1.350 . S
C4708 C4707 1.434 . S
C4709 C4710 1.369 . S
C4709 C4711 1.419 . S
C4709 H4713 0.930 . S
C4710 C4709 1.369 . S
C4710 C4719 1.429 . S
C4711 C4709 1.419 . S
C4711 C4712 1.363 . S
C4711 H4714 0.929 . S
C4712 C4711 1.363 . S
C4712 C4718 1.428 . S
H4713 C4709 0.930 . S
H4714 C4711 0.929 . S
S4715 N4716 1.613 . S
S4715 N4717 1.610 . S
N4716 S4715 1.613 . S
N4716 C4719 1.350 . S
N4717 S4715 1.610 . S
N4717 C4718 1.351 . S
C4718 C4712 1.428 . S
C4718 N4717 1.351 . S
C4718 C4719 1.434 . S
C4719 C4710 1.429 . S
C4719 N4716 1.350 . S
C4719 C4718 1.434 . S
C4720 C4721 1.369 . S
C4720 C4722 1.419 . S
C4720 H4724 0.930 . S
C4721 C4720 1.369 . S
C4721 C4730 1.429 . S
C4722 C4720 1.419 . S
C4722 C4723 1.363 . S
C4722 H4725 0.929 . S
C4723 C4722 1.363 . S
C4723 C4729 1.428 . S
H4724 C4720 0.930 . S
H4725 C4722 0.929 . S
S4726 N4727 1.613 . S
S4726 N4728 1.610 . S
N4727 S4726 1.613 . S
N4727 C4730 1.350 . S
N4728 S4726 1.610 . S
N4728 C4729 1.351 . S
C4729 C4723 1.428 . S
C4729 N4728 1.351 . S
C4729 C4730 1.434 . S
C4730 C4721 1.429 . S
C4730 N4727 1.350 . S
C4730 C4729 1.434 . S
C4731 C4732 1.369 . S
C4731 C4733 1.419 . S
C4731 H4735 0.930 . S
C4732 C4731 1.369 . S
C4732 C4741 1.429 . S
C4733 C4731 1.419 . S
C4733 C4734 1.363 . S
C4733 H4736 0.929 . S
C4734 C4733 1.363 . S
C4734 C4740 1.428 . S
H4735 C4731 0.930 . S
H4736 C4733 0.929 . S
S4737 N4738 1.613 . S
S4737 N4739 1.610 . S
N4738 S4737 1.613 . S
N4738 C4741 1.350 . S
N4739 S4737 1.610 . S
N4739 C4740 1.351 . S
C4740 C4734 1.428 . S
C4740 N4739 1.351 . S
C4740 C4741 1.434 . S
C4741 C4732 1.429 . S
C4741 N4738 1.350 . S
C4741 C4740 1.434 . S
C4742 C4743 1.369 . S
C4742 C4744 1.419 . S
C4742 H4746 0.930 . S
C4743 C4742 1.369 . S
C4743 C4752 1.429 . S
C4744 C4742 1.419 . S
C4744 C4745 1.363 . S
C4744 H4747 0.929 . S
C4745 C4744 1.363 . S
C4745 C4751 1.428 . S
H4746 C4742 0.930 . S
H4747 C4744 0.929 . S
S4748 N4749 1.613 . S
S4748 N4750 1.610 . S
N4749 S4748 1.613 . S
N4749 C4752 1.350 . S
N4750 S4748 1.610 . S
N4750 C4751 1.351 . S
C4751 C4745 1.428 . S
C4751 N4750 1.351 . S
C4751 C4752 1.434 . S
C4752 C4743 1.429 . S
C4752 N4749 1.350 . S
C4752 C4751 1.434 . S
C4753 C4754 1.369 . S
C4753 C4755 1.419 . S
C4753 H4757 0.930 . S
C4754 C4753 1.369 . S
C4754 C4763 1.429 . S
C4755 C4753 1.419 . S
C4755 C4756 1.363 . S
C4755 H4758 0.929 . S
C4756 C4755 1.363 . S
C4756 C4762 1.428 . S
H4757 C4753 0.930 . S
H4758 C4755 0.929 . S
S4759 N4760 1.613 . S
S4759 N4761 1.610 . S
N4760 S4759 1.613 . S
N4760 C4763 1.350 . S
N4761 S4759 1.610 . S
N4761 C4762 1.351 . S
C4762 C4756 1.428 . S
C4762 N4761 1.351 . S
C4762 C4763 1.434 . S
C4763 C4754 1.429 . S
C4763 N4760 1.350 . S
C4763 C4762 1.434 . S
C4764 C4765 1.369 . S
C4764 C4766 1.419 . S
C4764 H4768 0.930 . S
C4765 C4764 1.369 . S
C4765 C4774 1.429 . S
C4766 C4764 1.419 . S
C4766 C4767 1.363 . S
C4766 H4769 0.929 . S
C4767 C4766 1.363 . S
C4767 C4773 1.428 . S
H4768 C4764 0.930 . S
H4769 C4766 0.929 . S
S4770 N4771 1.613 . S
S4770 N4772 1.610 . S
N4771 S4770 1.613 . S
N4771 C4774 1.350 . S
N4772 S4770 1.610 . S
N4772 C4773 1.351 . S
C4773 C4767 1.428 . S
C4773 N4772 1.351 . S
C4773 C4774 1.434 . S
C4774 C4765 1.429 . S
C4774 N4771 1.350 . S
C4774 C4773 1.434 . S
C4775 C4776 1.369 . S
C4775 C4777 1.419 . S
C4775 H4779 0.930 . S
C4776 C4775 1.369 . S
C4776 C4785 1.429 . S
C4777 C4775 1.419 . S
C4777 C4778 1.363 . S
C4777 H4780 0.929 . S
C4778 C4777 1.363 . S
C4778 C4784 1.428 . S
H4779 C4775 0.930 . S
H4780 C4777 0.929 . S
S4781 N4782 1.613 . S
S4781 N4783 1.610 . S
N4782 S4781 1.613 . S
N4782 C4785 1.350 . S
N4783 S4781 1.610 . S
N4783 C4784 1.351 . S
C4784 C4778 1.428 . S
C4784 N4783 1.351 . S
C4784 C4785 1.434 . S
C4785 C4776 1.429 . S
C4785 N4782 1.350 . S
C4785 C4784 1.434 . S
C4786 C4787 1.369 . S
C4786 C4788 1.419 . S
C4786 H4790 0.930 . S
C4787 C4786 1.369 . S
C4787 C4796 1.429 . S
C4788 C4786 1.419 . S
C4788 C4789 1.363 . S
C4788 H4791 0.929 . S
C4789 C4788 1.363 . S
C4789 C4795 1.428 . S
H4790 C4786 0.930 . S
H4791 C4788 0.929 . S
S4792 N4793 1.613 1_655 S
S4792 N4794 1.610 1_655 S
N4793 S4792 1.613 1_455 S
N4793 C4796 1.350 . S
N4794 S4792 1.610 1_455 S
N4794 C4795 1.351 . S
C4795 C4789 1.428 . S
C4795 N4794 1.351 . S
C4795 C4796 1.434 . S
C4796 C4787 1.429 . S
C4796 N4793 1.350 . S
C4796 C4795 1.434 . S
C4797 C4798 1.369 . S
C4797 C4799 1.419 . S
C4797 H4801 0.930 . S
C4798 C4797 1.369 . S
C4798 C4807 1.429 . S
C4799 C4797 1.419 . S
C4799 C4800 1.363 . S
C4799 H4802 0.929 . S
C4800 C4799 1.363 . S
C4800 C4806 1.428 . S
H4801 C4797 0.930 . S
H4802 C4799 0.929 . S
S4803 N4804 1.613 . S
S4803 N4805 1.610 . S
N4804 S4803 1.613 . S
N4804 C4807 1.350 . S
N4805 S4803 1.610 . S
N4805 C4806 1.351 . S
C4806 C4800 1.428 . S
C4806 N4805 1.351 . S
C4806 C4807 1.434 . S
C4807 C4798 1.429 . S
C4807 N4804 1.350 . S
C4807 C4806 1.434 . S
C4808 C4809 1.369 . S
C4808 C4810 1.419 . S
C4808 H4812 0.930 . S
C4809 C4808 1.369 . S
C4809 C4818 1.429 . S
C4810 C4808 1.419 . S
C4810 C4811 1.363 . S
C4810 H4813 0.929 . S
C4811 C4810 1.363 . S
C4811 C4817 1.428 . S
H4812 C4808 0.930 . S
H4813 C4810 0.929 . S
S4814 N4815 1.613 . S
S4814 N4816 1.610 . S
N4815 S4814 1.613 . S
N4815 C4818 1.350 . S
N4816 S4814 1.610 . S
N4816 C4817 1.351 . S
C4817 C4811 1.428 . S
C4817 N4816 1.351 . S
C4817 C4818 1.434 . S
C4818 C4809 1.429 . S
C4818 N4815 1.350 . S
C4818 C4817 1.434 . S
C4819 C4820 1.369 . S
C4819 C4821 1.419 . S
C4819 H4823 0.930 . S
C4820 C4819 1.369 . S
C4820 C4829 1.429 . S
C4821 C4819 1.419 . S
C4821 C4822 1.363 . S
C4821 H4824 0.929 . S
C4822 C4821 1.363 . S
C4822 C4828 1.428 . S
H4823 C4819 0.930 . S
H4824 C4821 0.929 . S
S4825 N4826 1.613 . S
S4825 N4827 1.610 . S
N4826 S4825 1.613 . S
N4826 C4829 1.350 1_565 S
N4827 S4825 1.610 . S
N4827 C4828 1.351 1_565 S
C4828 C4822 1.428 . S
C4828 N4827 1.351 1_545 S
C4828 C4829 1.434 . S
C4829 C4820 1.429 . S
C4829 N4826 1.350 1_545 S
C4829 C4828 1.434 . S
C4830 C4831 1.369 . S
C4830 C4832 1.419 . S
C4830 H4834 0.930 . S
C4831 C4830 1.369 . S
C4831 C4840 1.429 . S
C4832 C4830 1.419 . S
C4832 C4833 1.363 . S
C4832 H4835 0.929 . S
C4833 C4832 1.363 . S
C4833 C4839 1.428 . S
H4834 C4830 0.930 . S
H4835 C4832 0.929 . S
S4836 N4837 1.613 . S
S4836 N4838 1.610 . S
N4837 S4836 1.613 . S
N4837 C4840 1.350 . S
N4838 S4836 1.610 . S
N4838 C4839 1.351 . S
C4839 C4833 1.428 . S
C4839 N4838 1.351 . S
C4839 C4840 1.434 . S
C4840 C4831 1.429 . S
C4840 N4837 1.350 . S
C4840 C4839 1.434 . S
C4841 C4842 1.369 . S
C4841 C4843 1.419 . S
C4841 H4845 0.930 . S
C4842 C4841 1.369 . S
C4842 C4851 1.429 . S
C4843 C4841 1.419 . S
C4843 C4844 1.363 . S
C4843 H4846 0.929 . S
C4844 C4843 1.363 . S
C4844 C4850 1.428 . S
H4845 C4841 0.930 . S
H4846 C4843 0.929 . S
S4847 N4848 1.613 . S
S4847 N4849 1.610 . S
N4848 S4847 1.613 . S
N4848 C4851 1.350 . S
N4849 S4847 1.610 . S
N4849 C4850 1.351 . S
C4850 C4844 1.428 . S
C4850 N4849 1.351 . S
C4850 C4851 1.434 . S
C4851 C4842 1.429 . S
C4851 N4848 1.350 . S
C4851 C4850 1.434 . S
C4852 C4853 1.369 . S
C4852 C4854 1.419 . S
C4852 H4856 0.930 . S
C4853 C4852 1.369 . S
C4853 C4862 1.429 . S
C4854 C4852 1.419 . S
C4854 C4855 1.363 . S
C4854 H4857 0.929 . S
C4855 C4854 1.363 . S
C4855 C4861 1.428 . S
H4856 C4852 0.930 . S
H4857 C4854 0.929 . S
S4858 N4859 1.613 . S
S4858 N4860 1.610 . S
N4859 S4858 1.613 . S
N4859 C4862 1.350 . S
N4860 S4858 1.610 . S
N4860 C4861 1.351 . S
C4861 C4855 1.428 . S
C4861 N4860 1.351 . S
C4861 C4862 1.434 . S
C4862 C4853 1.429 . S
C4862 N4859 1.350 . S
C4862 C4861 1.434 . S
C4863 C4864 1.369 . S
C4863 C4865 1.419 . S
C4863 H4867 0.930 . S
C4864 C4863 1.369 . S
C4864 C4873 1.429 . S
C4865 C4863 1.419 . S
C4865 C4866 1.363 . S
C4865 H4868 0.929 . S
C4866 C4865 1.363 . S
C4866 C4872 1.428 . S
H4867 C4863 0.930 . S
H4868 C4865 0.929 . S
S4869 N4870 1.613 . S
S4869 N4871 1.610 . S
N4870 S4869 1.613 . S
N4870 C4873 1.350 . S
N4871 S4869 1.610 . S
N4871 C4872 1.351 . S
C4872 C4866 1.428 . S
C4872 N4871 1.351 . S
C4872 C4873 1.434 . S
C4873 C4864 1.429 . S
C4873 N4870 1.350 . S
C4873 C4872 1.434 . S
C4874 C4875 1.369 . S
C4874 C4876 1.419 . S
C4874 H4878 0.930 . S
C4875 C4874 1.369 . S
C4875 C4884 1.429 . S
C4876 C4874 1.419 . S
C4876 C4877 1.363 . S
C4876 H4879 0.929 . S
C4877 C4876 1.363 . S
C4877 C4883 1.428 . S
H4878 C4874 0.930 . S
H4879 C4876 0.929 . S
S4880 N4881 1.613 . S
S4880 N4882 1.610 . S
N4881 S4880 1.613 . S
N4881 C4884 1.350 . S
N4882 S4880 1.610 . S
N4882 C4883 1.351 . S
C4883 C4877 1.428 . S
C4883 N4882 1.351 . S
C4883 C4884 1.434 . S
C4884 C4875 1.429 . S
C4884 N4881 1.350 . S
C4884 C4883 1.434 . S
C4885 C4886 1.369 . S
C4885 C4887 1.419 . S
C4885 H4889 0.930 . S
C4886 C4885 1.369 . S
C4886 C4895 1.429 . S
C4887 C4885 1.419 . S
C4887 C4888 1.363 . S
C4887 H4890 0.929 . S
C4888 C4887 1.363 . S
C4888 C4894 1.428 . S
H4889 C4885 0.930 . S
H4890 C4887 0.929 . S
S4891 N4892 1.613 . S
S4891 N4893 1.610 . S
N4892 S4891 1.613 . S
N4892 C4895 1.350 . S
N4893 S4891 1.610 . S
N4893 C4894 1.351 . S
C4894 C4888 1.428 . S
C4894 N4893 1.351 . S
C4894 C4895 1.434 . S
C4895 C4886 1.429 . S
C4895 N4892 1.350 . S
C4895 C4894 1.434 . S
C4896 C4897 1.369 . S
C4896 C4898 1.419 . S
C4896 H4900 0.930 . S
C4897 C4896 1.369 . S
C4897 C4906 1.429 . S
C4898 C4896 1.419 . S
C4898 C4899 1.363 . S
C4898 H4901 0.929 . S
C4899 C4898 1.363 . S
C4899 C4905 1.428 . S
H4900 C4896 0.930 . S
H4901 C4898 0.929 . S
S4902 N4903 1.613 . S
S4902 N4904 1.610 . S
N4903 S4902 1.613 . S
N4903 C4906 1.350 . S
N4904 S4902 1.610 . S
N4904 C4905 1.351 . S
C4905 C4899 1.428 . S
C4905 N4904 1.351 . S
C4905 C4906 1.434 . S
C4906 C4897 1.429 . S
C4906 N4903 1.350 . S
C4906 C4905 1.434 . S
C4907 C4908 1.369 . S
C4907 C4909 1.419 . S
C4907 H4911 0.930 . S
C4908 C4907 1.369 . S
C4908 C4917 1.429 . S
C4909 C4907 1.419 . S
C4909 C4910 1.363 . S
C4909 H4912 0.929 . S
C4910 C4909 1.363 . S
C4910 C4916 1.428 . S
H4911 C4907 0.930 . S
H4912 C4909 0.929 . S
S4913 N4914 1.613 . S
S4913 N4915 1.610 . S
N4914 S4913 1.613 . S
N4914 C4917 1.350 . S
N4915 S4913 1.610 . S
N4915 C4916 1.351 . S
C4916 C4910 1.428 . S
C4916 N4915 1.351 . S
C4916 C4917 1.434 . S
C4917 C4908 1.429 . S
C4917 N4914 1.350 . S
C4917 C4916 1.434 . S
C4918 C4919 1.369 . S
C4918 C4920 1.419 . S
C4918 H4922 0.930 . S
C4919 C4918 1.369 . S
C4919 C4928 1.429 . S
C4920 C4918 1.419 . S
C4920 C4921 1.363 . S
C4920 H4923 0.929 . S
C4921 C4920 1.363 . S
C4921 C4927 1.428 . S
H4922 C4918 0.930 . S
H4923 C4920 0.929 . S
S4924 N4925 1.613 . S
S4924 N4926 1.610 . S
N4925 S4924 1.613 . S
N4925 C4928 1.350 . S
N4926 S4924 1.610 . S
N4926 C4927 1.351 . S
C4927 C4921 1.428 . S
C4927 N4926 1.351 . S
C4927 C4928 1.434 . S
C4928 C4919 1.429 . S
C4928 N4925 1.350 . S
C4928 C4927 1.434 . S
C4929 C4930 1.369 . S
C4929 C4931 1.419 . S
C4929 H4933 0.930 . S
C4930 C4929 1.369 . S
C4930 C4939 1.429 . S
C4931 C4929 1.419 . S
C4931 C4932 1.363 . S
C4931 H4934 0.929 . S
C4932 C4931 1.363 . S
C4932 C4938 1.428 . S
H4933 C4929 0.930 . S
H4934 C4931 0.929 . S
S4935 N4936 1.613 . S
S4935 N4937 1.610 . S
N4936 S4935 1.613 . S
N4936 C4939 1.350 . S
N4937 S4935 1.610 . S
N4937 C4938 1.351 . S
C4938 C4932 1.428 . S
C4938 N4937 1.351 . S
C4938 C4939 1.434 . S
C4939 C4930 1.429 . S
C4939 N4936 1.350 . S
C4939 C4938 1.434 . S
C4940 C4941 1.369 . S
C4940 C4942 1.419 . S
C4940 H4944 0.930 . S
C4941 C4940 1.369 . S
C4941 C4950 1.429 . S
C4942 C4940 1.419 . S
C4942 C4943 1.363 . S
C4942 H4945 0.929 . S
C4943 C4942 1.363 . S
C4943 C4949 1.428 . S
H4944 C4940 0.930 . S
H4945 C4942 0.929 . S
S4946 N4947 1.613 . S
S4946 N4948 1.610 . S
N4947 S4946 1.613 . S
N4947 C4950 1.350 . S
N4948 S4946 1.610 . S
N4948 C4949 1.351 . S
C4949 C4943 1.428 . S
C4949 N4948 1.351 . S
C4949 C4950 1.434 . S
C4950 C4941 1.429 . S
C4950 N4947 1.350 . S
C4950 C4949 1.434 . S
C4951 C4952 1.369 . S
C4951 C4953 1.419 . S
C4951 H4955 0.930 . S
C4952 C4951 1.369 . S
C4952 C4961 1.429 . S
C4953 C4951 1.419 . S
C4953 C4954 1.363 . S
C4953 H4956 0.929 . S
C4954 C4953 1.363 . S
C4954 C4960 1.428 . S
H4955 C4951 0.930 . S
H4956 C4953 0.929 . S
S4957 N4958 1.613 . S
S4957 N4959 1.610 . S
N4958 S4957 1.613 . S
N4958 C4961 1.350 . S
N4959 S4957 1.610 . S
N4959 C4960 1.351 . S
C4960 C4954 1.428 . S
C4960 N4959 1.351 . S
C4960 C4961 1.434 . S
C4961 C4952 1.429 . S
C4961 N4958 1.350 . S
C4961 C4960 1.434 . S
C4962 C4963 1.369 . S
C4962 C4964 1.419 . S
C4962 H4966 0.930 . S
C4963 C4962 1.369 . S
C4963 C4972 1.429 . S
C4964 C4962 1.419 . S
C4964 C4965 1.363 . S
C4964 H4967 0.929 . S
C4965 C4964 1.363 . S
C4965 C4971 1.428 . S
H4966 C4962 0.930 . S
H4967 C4964 0.929 . S
S4968 N4969 1.613 . S
S4968 N4970 1.610 . S
N4969 S4968 1.613 . S
N4969 C4972 1.350 . S
N4970 S4968 1.610 . S
N4970 C4971 1.351 . S
C4971 C4965 1.428 . S
C4971 N4970 1.351 . S
C4971 C4972 1.434 . S
C4972 C4963 1.429 . S
C4972 N4969 1.350 . S
C4972 C4971 1.434 . S
C4973 C4974 1.369 . S
C4973 C4975 1.419 . S
C4973 H4977 0.930 . S
C4974 C4973 1.369 . S
C4974 C4983 1.429 . S
C4975 C4973 1.419 . S
C4975 C4976 1.363 . S
C4975 H4978 0.929 . S
C4976 C4975 1.363 . S
C4976 C4982 1.428 . S
H4977 C4973 0.930 . S
H4978 C4975 0.929 . S
S4979 N4980 1.613 . S
S4979 N4981 1.610 . S
N4980 S4979 1.613 . S
N4980 C4983 1.350 . S
N4981 S4979 1.610 . S
N4981 C4982 1.351 . S
C4982 C4976 1.428 . S
C4982 N4981 1.351 . S
C4982 C4983 1.434 . S
C4983 C4974 1.429 . S
C4983 N4980 1.350 . S
C4983 C4982 1.434 . S
C4984 C4985 1.369 . S
C4984 C4986 1.419 . S
C4984 H4988 0.930 . S
C4985 C4984 1.369 . S
C4985 C4994 1.429 . S
C4986 C4984 1.419 . S
C4986 C4987 1.363 . S
C4986 H4989 0.929 . S
C4987 C4986 1.363 . S
C4987 C4993 1.428 . S
H4988 C4984 0.930 . S
H4989 C4986 0.929 . S
S4990 N4991 1.613 . S
S4990 N4992 1.610 . S
N4991 S4990 1.613 . S
N4991 C4994 1.350 . S
N4992 S4990 1.610 . S
N4992 C4993 1.351 . S
C4993 C4987 1.428 . S
C4993 N4992 1.351 . S
C4993 C4994 1.434 . S
C4994 C4985 1.429 . S
C4994 N4991 1.350 . S
C4994 C4993 1.434 . S
C4995 C4996 1.369 . S
C4995 C4997 1.419 . S
C4995 H4999 0.930 . S
C4996 C4995 1.369 . S
C4996 C5005 1.429 . S
C4997 C4995 1.419 . S
C4997 C4998 1.363 . S
C4997 H5000 0.929 . S
C4998 C4997 1.363 . S
C4998 C5004 1.428 . S
H4999 C4995 0.930 . S
H5000 C4997 0.929 . S
S5001 N5002 1.613 . S
S5001 N5003 1.610 . S
N5002 S5001 1.613 . S
N5002 C5005 1.350 . S
N5003 S5001 1.610 . S
N5003 C5004 1.351 . S
C5004 C4998 1.428 . S
C5004 N5003 1.351 . S
C5004 C5005 1.434 . S
C5005 C4996 1.429 . S
C5005 N5002 1.350 . S
C5005 C5004 1.434 . S
C5006 C5007 1.369 . S
C5006 C5008 1.419 . S
C5006 H5010 0.930 . S
C5007 C5006 1.369 . S
C5007 C5016 1.429 . S
C5008 C5006 1.419 . S
C5008 C5009 1.363 . S
C5008 H5011 0.929 . S
C5009 C5008 1.363 . S
C5009 C5015 1.428 . S
H5010 C5006 0.930 . S
H5011 C5008 0.929 . S
S5012 N5013 1.613 . S
S5012 N5014 1.610 . S
N5013 S5012 1.613 . S
N5013 C5016 1.350 . S
N5014 S5012 1.610 . S
N5014 C5015 1.351 . S
C5015 C5009 1.428 . S
C5015 N5014 1.351 . S
C5015 C5016 1.434 . S
C5016 C5007 1.429 . S
C5016 N5013 1.350 . S
C5016 C5015 1.434 . S
C5017 C5018 1.369 . S
C5017 C5019 1.419 . S
C5017 H5021 0.930 . S
C5018 C5017 1.369 . S
C5018 C5027 1.429 . S
C5019 C5017 1.419 . S
C5019 C5020 1.363 . S
C5019 H5022 0.929 . S
C5020 C5019 1.363 . S
C5020 C5026 1.428 . S
H5021 C5017 0.930 . S
H5022 C5019 0.929 . S
S5023 N5024 1.613 . S
S5023 N5025 1.610 . S
N5024 S5023 1.613 . S
N5024 C5027 1.350 . S
N5025 S5023 1.610 . S
N5025 C5026 1.351 . S
C5026 C5020 1.428 . S
C5026 N5025 1.351 . S
C5026 C5027 1.434 . S
C5027 C5018 1.429 . S
C5027 N5024 1.350 . S
C5027 C5026 1.434 . S
C5028 C5029 1.369 . S
C5028 C5030 1.419 . S
C5028 H5032 0.930 . S
C5029 C5028 1.369 . S
C5029 C5038 1.429 . S
C5030 C5028 1.419 . S
C5030 C5031 1.363 . S
C5030 H5033 0.929 . S
C5031 C5030 1.363 . S
C5031 C5037 1.428 . S
H5032 C5028 0.930 . S
H5033 C5030 0.929 . S
S5034 N5035 1.613 . S
S5034 N5036 1.610 . S
N5035 S5034 1.613 . S
N5035 C5038 1.350 . S
N5036 S5034 1.610 . S
N5036 C5037 1.351 . S
C5037 C5031 1.428 . S
C5037 N5036 1.351 . S
C5037 C5038 1.434 . S
C5038 C5029 1.429 . S
C5038 N5035 1.350 . S
C5038 C5037 1.434 . S
C5039 C5040 1.369 . S
C5039 C5041 1.419 . S
C5039 H5043 0.930 . S
C5040 C5039 1.369 . S
C5040 C5049 1.429 . S
C5041 C5039 1.419 . S
C5041 C5042 1.363 . S
C5041 H5044 0.929 . S
C5042 C5041 1.363 . S
C5042 C5048 1.428 . S
H5043 C5039 0.930 . S
H5044 C5041 0.929 . S
S5045 N5046 1.613 . S
S5045 N5047 1.610 . S
N5046 S5045 1.613 . S
N5046 C5049 1.350 . S
N5047 S5045 1.610 . S
N5047 C5048 1.351 . S
C5048 C5042 1.428 . S
C5048 N5047 1.351 . S
C5048 C5049 1.434 . S
C5049 C5040 1.429 . S
C5049 N5046 1.350 . S
C5049 C5048 1.434 . S
C5050 C5051 1.369 . S
C5050 C5052 1.419 . S
C5050 H5054 0.930 . S
C5051 C5050 1.369 . S
C5051 C5060 1.429 . S
C5052 C5050 1.419 . S
C5052 C5053 1.363 . S
C5052 H5055 0.929 . S
C5053 C5052 1.363 . S
C5053 C5059 1.428 . S
H5054 C5050 0.930 . S
H5055 C5052 0.929 . S
S5056 N5057 1.613 . S
S5056 N5058 1.610 . S
N5057 S5056 1.613 . S
N5057 C5060 1.350 . S
N5058 S5056 1.610 . S
N5058 C5059 1.351 . S
C5059 C5053 1.428 . S
C5059 N5058 1.351 . S
C5059 C5060 1.434 . S
C5060 C5051 1.429 . S
C5060 N5057 1.350 . S
C5060 C5059 1.434 . S
C5061 C5062 1.369 . S
C5061 C5063 1.419 . S
C5061 H5065 0.930 . S
C5062 C5061 1.369 . S
C5062 C5071 1.429 . S
C5063 C5061 1.419 . S
C5063 C5064 1.363 . S
C5063 H5066 0.929 . S
C5064 C5063 1.363 . S
C5064 C5070 1.428 . S
H5065 C5061 0.930 . S
H5066 C5063 0.929 . S
S5067 N5068 1.613 . S
S5067 N5069 1.610 . S
N5068 S5067 1.613 . S
N5068 C5071 1.350 . S
N5069 S5067 1.610 . S
N5069 C5070 1.351 . S
C5070 C5064 1.428 . S
C5070 N5069 1.351 . S
C5070 C5071 1.434 . S
C5071 C5062 1.429 . S
C5071 N5068 1.350 . S
C5071 C5070 1.434 . S
C5072 C5073 1.369 . S
C5072 C5074 1.419 . S
C5072 H5076 0.930 . S
C5073 C5072 1.369 . S
C5073 C5082 1.429 . S
C5074 C5072 1.419 . S
C5074 C5075 1.363 . S
C5074 H5077 0.929 . S
C5075 C5074 1.363 . S
C5075 C5081 1.428 . S
H5076 C5072 0.930 . S
H5077 C5074 0.929 . S
S5078 N5079 1.613 . S
S5078 N5080 1.610 . S
N5079 S5078 1.613 . S
N5079 C5082 1.350 . S
N5080 S5078 1.610 . S
N5080 C5081 1.351 . S
C5081 C5075 1.428 . S
C5081 N5080 1.351 . S
C5081 C5082 1.434 . S
C5082 C5073 1.429 . S
C5082 N5079 1.350 . S
C5082 C5081 1.434 . S
C5083 C5084 1.369 . S
C5083 C5085 1.419 . S
C5083 H5087 0.930 . S
C5084 C5083 1.369 . S
C5084 C5093 1.429 . S
C5085 C5083 1.419 . S
C5085 C5086 1.363 . S
C5085 H5088 0.929 . S
C5086 C5085 1.363 . S
C5086 C5092 1.428 . S
H5087 C5083 0.930 . S
H5088 C5085 0.929 . S
S5089 N5090 1.613 . S
S5089 N5091 1.610 . S
N5090 S5089 1.613 . S
N5090 C5093 1.350 . S
N5091 S5089 1.610 . S
N5091 C5092 1.351 . S
C5092 C5086 1.428 . S
C5092 N5091 1.351 . S
C5092 C5093 1.434 . S
C5093 C5084 1.429 . S
C5093 N5090 1.350 . S
C5093 C5092 1.434 . S
C5094 C5095 1.369 . S
C5094 C5096 1.419 . S
C5094 H5098 0.930 . S
C5095 C5094 1.369 . S
C5095 C5104 1.429 . S
C5096 C5094 1.419 . S
C5096 C5097 1.363 . S
C5096 H5099 0.929 . S
C5097 C5096 1.363 . S
C5097 C5103 1.428 . S
H5098 C5094 0.930 . S
H5099 C5096 0.929 . S
S5100 N5101 1.613 . S
S5100 N5102 1.610 . S
N5101 S5100 1.613 . S
N5101 C5104 1.350 . S
N5102 S5100 1.610 . S
N5102 C5103 1.351 . S
C5103 C5097 1.428 . S
C5103 N5102 1.351 . S
C5103 C5104 1.434 . S
C5104 C5095 1.429 . S
C5104 N5101 1.350 . S
C5104 C5103 1.434 . S
C5105 C5106 1.369 . S
C5105 C5107 1.419 . S
C5105 H5109 0.930 . S
C5106 C5105 1.369 . S
C5106 C5115 1.429 . S
C5107 C5105 1.419 . S
C5107 C5108 1.363 . S
C5107 H5110 0.929 . S
C5108 C5107 1.363 . S
C5108 C5114 1.428 . S
H5109 C5105 0.930 . S
H5110 C5107 0.929 . S
S5111 N5112 1.613 . S
S5111 N5113 1.610 . S
N5112 S5111 1.613 . S
N5112 C5115 1.350 . S
N5113 S5111 1.610 . S
N5113 C5114 1.351 . S
C5114 C5108 1.428 . S
C5114 N5113 1.351 . S
C5114 C5115 1.434 . S
C5115 C5106 1.429 . S
C5115 N5112 1.350 . S
C5115 C5114 1.434 . S
C5116 C5117 1.369 . S
C5116 C5118 1.419 . S
C5116 H5120 0.930 . S
C5117 C5116 1.369 . S
C5117 C5126 1.429 . S
C5118 C5116 1.419 . S
C5118 C5119 1.363 . S
C5118 H5121 0.929 . S
C5119 C5118 1.363 . S
C5119 C5125 1.428 . S
H5120 C5116 0.930 . S
H5121 C5118 0.929 . S
S5122 N5123 1.613 . S
S5122 N5124 1.610 . S
N5123 S5122 1.613 . S
N5123 C5126 1.350 . S
N5124 S5122 1.610 . S
N5124 C5125 1.351 . S
C5125 C5119 1.428 . S
C5125 N5124 1.351 . S
C5125 C5126 1.434 . S
C5126 C5117 1.429 . S
C5126 N5123 1.350 . S
C5126 C5125 1.434 . S
C5127 C5128 1.369 . S
C5127 C5129 1.419 . S
C5127 H5131 0.930 . S
C5128 C5127 1.369 . S
C5128 C5137 1.429 . S
C5129 C5127 1.419 . S
C5129 C5130 1.363 . S
C5129 H5132 0.929 . S
C5130 C5129 1.363 . S
C5130 C5136 1.428 . S
H5131 C5127 0.930 . S
H5132 C5129 0.929 . S
S5133 N5134 1.613 . S
S5133 N5135 1.610 . S
N5134 S5133 1.613 . S
N5134 C5137 1.350 . S
N5135 S5133 1.610 . S
N5135 C5136 1.351 . S
C5136 C5130 1.428 . S
C5136 N5135 1.351 . S
C5136 C5137 1.434 . S
C5137 C5128 1.429 . S
C5137 N5134 1.350 . S
C5137 C5136 1.434 . S
C5138 C5139 1.369 . S
C5138 C5140 1.419 . S
C5138 H5142 0.930 . S
C5139 C5138 1.369 . S
C5139 C5148 1.429 . S
C5140 C5138 1.419 . S
C5140 C5141 1.363 . S
C5140 H5143 0.929 . S
C5141 C5140 1.363 . S
C5141 C5147 1.428 . S
H5142 C5138 0.930 . S
H5143 C5140 0.929 . S
S5144 N5145 1.613 . S
S5144 N5146 1.610 . S
N5145 S5144 1.613 . S
N5145 C5148 1.350 . S
N5146 S5144 1.610 . S
N5146 C5147 1.351 . S
C5147 C5141 1.428 . S
C5147 N5146 1.351 . S
C5147 C5148 1.434 . S
C5148 C5139 1.429 . S
C5148 N5145 1.350 . S
C5148 C5147 1.434 . S
C5149 C5150 1.369 . S
C5149 C5151 1.419 . S
C5149 H5153 0.930 . S
C5150 C5149 1.369 . S
C5150 C5159 1.429 . S
C5151 C5149 1.419 . S
C5151 C5152 1.363 . S
C5151 H5154 0.929 . S
C5152 C5151 1.363 . S
C5152 C5158 1.428 . S
H5153 C5149 0.930 . S
H5154 C5151 0.929 . S
S5155 N5156 1.613 . S
S5155 N5157 1.610 . S
N5156 S5155 1.613 . S
N5156 C5159 1.350 . S
N5157 S5155 1.610 . S
N5157 C5158 1.351 . S
C5158 C5152 1.428 . S
C5158 N5157 1.351 . S
C5158 C5159 1.434 . S
C5159 C5150 1.429 . S
C5159 N5156 1.350 . S
C5159 C5158 1.434 . S
C5160 C5161 1.369 . S
C5160 C5162 1.419 . S
C5160 H5164 0.930 . S
C5161 C5160 1.369 . S
C5161 C5170 1.429 . S
C5162 C5160 1.419 . S
C5162 C5163 1.363 . S
C5162 H5165 0.929 . S
C5163 C5162 1.363 . S
C5163 C5169 1.428 . S
H5164 C5160 0.930 . S
H5165 C5162 0.929 . S
S5166 N5167 1.613 . S
S5166 N5168 1.610 . S
N5167 S5166 1.613 . S
N5167 C5170 1.350 . S
N5168 S5166 1.610 . S
N5168 C5169 1.351 . S
C5169 C5163 1.428 . S
C5169 N5168 1.351 . S
C5169 C5170 1.434 . S
C5170 C5161 1.429 . S
C5170 N5167 1.350 . S
C5170 C5169 1.434 . S
C5171 C5172 1.369 . S
C5171 C5173 1.419 . S
C5171 H5175 0.930 . S
C5172 C5171 1.369 . S
C5172 C5181 1.429 . S
C5173 C5171 1.419 . S
C5173 C5174 1.363 . S
C5173 H5176 0.929 . S
C5174 C5173 1.363 . S
C5174 C5180 1.428 . S
H5175 C5171 0.930 . S
H5176 C5173 0.929 . S
S5177 N5178 1.613 . S
S5177 N5179 1.610 . S
N5178 S5177 1.613 . S
N5178 C5181 1.350 . S
N5179 S5177 1.610 . S
N5179 C5180 1.351 . S
C5180 C5174 1.428 . S
C5180 N5179 1.351 . S
C5180 C5181 1.434 . S
C5181 C5172 1.429 . S
C5181 N5178 1.350 . S
C5181 C5180 1.434 . S
C5182 C5183 1.369 . S
C5182 C5184 1.419 . S
C5182 H5186 0.930 . S
C5183 C5182 1.369 . S
C5183 C5192 1.429 . S
C5184 C5182 1.419 . S
C5184 C5185 1.363 . S
C5184 H5187 0.929 . S
C5185 C5184 1.363 . S
C5185 C5191 1.428 . S
H5186 C5182 0.930 . S
H5187 C5184 0.929 . S
S5188 N5189 1.613 . S
S5188 N5190 1.610 . S
N5189 S5188 1.613 . S
N5189 C5192 1.350 . S
N5190 S5188 1.610 . S
N5190 C5191 1.351 . S
C5191 C5185 1.428 . S
C5191 N5190 1.351 . S
C5191 C5192 1.434 . S
C5192 C5183 1.429 . S
C5192 N5189 1.350 . S
C5192 C5191 1.434 . S
C5193 C5194 1.369 . S
C5193 C5195 1.419 . S
C5193 H5197 0.930 . S
C5194 C5193 1.369 . S
C5194 C5203 1.429 . S
C5195 C5193 1.419 . S
C5195 C5196 1.363 . S
C5195 H5198 0.929 . S
C5196 C5195 1.363 . S
C5196 C5202 1.428 . S
H5197 C5193 0.930 . S
H5198 C5195 0.929 . S
S5199 N5200 1.613 . S
S5199 N5201 1.610 . S
N5200 S5199 1.613 . S
N5200 C5203 1.350 . S
N5201 S5199 1.610 . S
N5201 C5202 1.351 . S
C5202 C5196 1.428 . S
C5202 N5201 1.351 . S
C5202 C5203 1.434 . S
C5203 C5194 1.429 . S
C5203 N5200 1.350 . S
C5203 C5202 1.434 . S
C5204 C5205 1.369 . S
C5204 C5206 1.419 . S
C5204 H5208 0.930 . S
C5205 C5204 1.369 . S
C5205 C5214 1.429 . S
C5206 C5204 1.419 . S
C5206 C5207 1.363 . S
C5206 H5209 0.929 . S
C5207 C5206 1.363 . S
C5207 C5213 1.428 . S
H5208 C5204 0.930 . S
H5209 C5206 0.929 . S
S5210 N5211 1.613 . S
S5210 N5212 1.610 . S
N5211 S5210 1.613 . S
N5211 C5214 1.350 . S
N5212 S5210 1.610 . S
N5212 C5213 1.351 . S
C5213 C5207 1.428 . S
C5213 N5212 1.351 . S
C5213 C5214 1.434 . S
C5214 C5205 1.429 . S
C5214 N5211 1.350 . S
C5214 C5213 1.434 . S
C5215 C5216 1.369 . S
C5215 C5217 1.419 . S
C5215 H5219 0.930 . S
C5216 C5215 1.369 . S
C5216 C5225 1.429 . S
C5217 C5215 1.419 . S
C5217 C5218 1.363 . S
C5217 H5220 0.929 . S
C5218 C5217 1.363 . S
C5218 C5224 1.428 . S
H5219 C5215 0.930 . S
H5220 C5217 0.929 . S
S5221 N5222 1.613 . S
S5221 N5223 1.610 . S
N5222 S5221 1.613 . S
N5222 C5225 1.350 . S
N5223 S5221 1.610 . S
N5223 C5224 1.351 . S
C5224 C5218 1.428 . S
C5224 N5223 1.351 . S
C5224 C5225 1.434 . S
C5225 C5216 1.429 . S
C5225 N5222 1.350 . S
C5225 C5224 1.434 . S
C5226 C5227 1.369 . S
C5226 C5228 1.419 . S
C5226 H5230 0.930 . S
C5227 C5226 1.369 . S
C5227 C5236 1.429 . S
C5228 C5226 1.419 . S
C5228 C5229 1.363 . S
C5228 H5231 0.929 . S
C5229 C5228 1.363 . S
C5229 C5235 1.428 . S
H5230 C5226 0.930 . S
H5231 C5228 0.929 . S
S5232 N5233 1.613 . S
S5232 N5234 1.610 . S
N5233 S5232 1.613 . S
N5233 C5236 1.350 . S
N5234 S5232 1.610 . S
N5234 C5235 1.351 . S
C5235 C5229 1.428 . S
C5235 N5234 1.351 . S
C5235 C5236 1.434 . S
C5236 C5227 1.429 . S
C5236 N5233 1.350 . S
C5236 C5235 1.434 . S
C5237 C5238 1.369 . S
C5237 C5239 1.419 . S
C5237 H5241 0.930 . S
C5238 C5237 1.369 . S
C5238 C5247 1.429 . S
C5239 C5237 1.419 . S
C5239 C5240 1.363 . S
C5239 H5242 0.929 . S
C5240 C5239 1.363 . S
C5240 C5246 1.428 . S
H5241 C5237 0.930 . S
H5242 C5239 0.929 . S
S5243 N5244 1.613 . S
S5243 N5245 1.610 . S
N5244 S5243 1.613 . S
N5244 C5247 1.350 . S
N5245 S5243 1.610 . S
N5245 C5246 1.351 . S
C5246 C5240 1.428 . S
C5246 N5245 1.351 . S
C5246 C5247 1.434 . S
C5247 C5238 1.429 . S
C5247 N5244 1.350 . S
C5247 C5246 1.434 . S
C5248 C5249 1.369 . S
C5248 C5250 1.419 . S
C5248 H5252 0.930 . S
C5249 C5248 1.369 . S
C5249 C5258 1.429 . S
C5250 C5248 1.419 . S
C5250 C5251 1.363 . S
C5250 H5253 0.929 . S
C5251 C5250 1.363 . S
C5251 C5257 1.428 . S
H5252 C5248 0.930 . S
H5253 C5250 0.929 . S
S5254 N5255 1.613 . S
S5254 N5256 1.610 . S
N5255 S5254 1.613 . S
N5255 C5258 1.350 . S
N5256 S5254 1.610 . S
N5256 C5257 1.351 . S
C5257 C5251 1.428 . S
C5257 N5256 1.351 . S
C5257 C5258 1.434 . S
C5258 C5249 1.429 . S
C5258 N5255 1.350 . S
C5258 C5257 1.434 . S
C5259 C5260 1.369 . S
C5259 C5261 1.419 . S
C5259 H5263 0.930 . S
C5260 C5259 1.369 . S
C5260 C5269 1.429 . S
C5261 C5259 1.419 . S
C5261 C5262 1.363 . S
C5261 H5264 0.929 . S
C5262 C5261 1.363 . S
C5262 C5268 1.428 . S
H5263 C5259 0.930 . S
H5264 C5261 0.929 . S
S5265 N5266 1.613 . S
S5265 N5267 1.610 . S
N5266 S5265 1.613 . S
N5266 C5269 1.350 . S
N5267 S5265 1.610 . S
N5267 C5268 1.351 . S
C5268 C5262 1.428 . S
C5268 N5267 1.351 . S
C5268 C5269 1.434 . S
C5269 C5260 1.429 . S
C5269 N5266 1.350 . S
C5269 C5268 1.434 . S
C5270 C5271 1.369 . S
C5270 C5272 1.419 . S
C5270 H5274 0.930 . S
C5271 C5270 1.369 . S
C5271 C5280 1.429 . S
C5272 C5270 1.419 . S
C5272 C5273 1.363 . S
C5272 H5275 0.929 . S
C5273 C5272 1.363 . S
C5273 C5279 1.428 . S
H5274 C5270 0.930 . S
H5275 C5272 0.929 . S
S5276 N5277 1.613 . S
S5276 N5278 1.610 . S
N5277 S5276 1.613 . S
N5277 C5280 1.350 . S
N5278 S5276 1.610 . S
N5278 C5279 1.351 . S
C5279 C5273 1.428 . S
C5279 N5278 1.351 . S
C5279 C5280 1.434 . S
C5280 C5271 1.429 . S
C5280 N5277 1.350 . S
C5280 C5279 1.434 . S
C5281 C5282 1.369 . S
C5281 C5283 1.419 . S
C5281 H5285 0.930 . S
C5282 C5281 1.369 . S
C5282 C5291 1.429 . S
C5283 C5281 1.419 . S
C5283 C5284 1.363 . S
C5283 H5286 0.929 . S
C5284 C5283 1.363 . S
C5284 C5290 1.428 . S
H5285 C5281 0.930 . S
H5286 C5283 0.929 . S
S5287 N5288 1.613 . S
S5287 N5289 1.610 . S
N5288 S5287 1.613 . S
N5288 C5291 1.350 . S
N5289 S5287 1.610 . S
N5289 C5290 1.351 . S
C5290 C5284 1.428 . S
C5290 N5289 1.351 . S
C5290 C5291 1.434 . S
C5291 C5282 1.429 . S
C5291 N5288 1.350 . S
C5291 C5290 1.434 . S
C5292 C5293 1.369 . S
C5292 C5294 1.419 . S
C5292 H5296 0.930 . S
C5293 C5292 1.369 . S
C5293 C5302 1.429 . S
C5294 C5292 1.419 . S
C5294 C5295 1.363 . S
C5294 H5297 0.929 . S
C5295 C5294 1.363 . S
C5295 C5301 1.428 . S
H5296 C5292 0.930 . S
H5297 C5294 0.929 . S
S5298 N5299 1.613 . S
S5298 N5300 1.610 . S
N5299 S5298 1.613 . S
N5299 C5302 1.350 . S
N5300 S5298 1.610 . S
N5300 C5301 1.351 . S
C5301 C5295 1.428 . S
C5301 N5300 1.351 . S
C5301 C5302 1.434 . S
C5302 C5293 1.429 . S
C5302 N5299 1.350 . S
C5302 C5301 1.434 . S
C5303 C5304 1.369 . S
C5303 C5305 1.419 . S
C5303 H5307 0.930 . S
C5304 C5303 1.369 . S
C5304 C5313 1.429 . S
C5305 C5303 1.419 . S
C5305 C5306 1.363 . S
C5305 H5308 0.929 . S
C5306 C5305 1.363 . S
C5306 C5312 1.428 . S
H5307 C5303 0.930 . S
H5308 C5305 0.929 . S
S5309 N5310 1.613 . S
S5309 N5311 1.610 . S
N5310 S5309 1.613 . S
N5310 C5313 1.350 . S
N5311 S5309 1.610 . S
N5311 C5312 1.351 . S
C5312 C5306 1.428 . S
C5312 N5311 1.351 . S
C5312 C5313 1.434 . S
C5313 C5304 1.429 . S
C5313 N5310 1.350 . S
C5313 C5312 1.434 . S
C5314 C5315 1.369 . S
C5314 C5316 1.419 . S
C5314 H5318 0.930 . S
C5315 C5314 1.369 . S
C5315 C5324 1.429 . S
C5316 C5314 1.419 . S
C5316 C5317 1.363 . S
C5316 H5319 0.929 . S
C5317 C5316 1.363 . S
C5317 C5323 1.428 . S
H5318 C5314 0.930 . S
H5319 C5316 0.929 . S
S5320 N5321 1.613 . S
S5320 N5322 1.610 . S
N5321 S5320 1.613 . S
N5321 C5324 1.350 . S
N5322 S5320 1.610 . S
N5322 C5323 1.351 . S
C5323 C5317 1.428 . S
C5323 N5322 1.351 . S
C5323 C5324 1.434 . S
C5324 C5315 1.429 . S
C5324 N5321 1.350 . S
C5324 C5323 1.434 . S
C5325 C5326 1.369 . S
C5325 C5327 1.419 . S
C5325 H5329 0.930 . S
C5326 C5325 1.369 . S
C5326 C5335 1.429 . S
C5327 C5325 1.419 . S
C5327 C5328 1.363 . S
C5327 H5330 0.929 . S
C5328 C5327 1.363 . S
C5328 C5334 1.428 . S
H5329 C5325 0.930 . S
H5330 C5327 0.929 . S
S5331 N5332 1.613 . S
S5331 N5333 1.610 . S
N5332 S5331 1.613 . S
N5332 C5335 1.350 . S
N5333 S5331 1.610 . S
N5333 C5334 1.351 . S
C5334 C5328 1.428 . S
C5334 N5333 1.351 . S
C5334 C5335 1.434 . S
C5335 C5326 1.429 . S
C5335 N5332 1.350 . S
C5335 C5334 1.434 . S
C5336 C5337 1.369 . S
C5336 C5338 1.419 . S
C5336 H5340 0.930 . S
C5337 C5336 1.369 . S
C5337 C5346 1.429 . S
C5338 C5336 1.419 . S
C5338 C5339 1.363 . S
C5338 H5341 0.929 . S
C5339 C5338 1.363 . S
C5339 C5345 1.428 . S
H5340 C5336 0.930 . S
H5341 C5338 0.929 . S
S5342 N5343 1.613 . S
S5342 N5344 1.610 . S
N5343 S5342 1.613 . S
N5343 C5346 1.350 . S
N5344 S5342 1.610 . S
N5344 C5345 1.351 . S
C5345 C5339 1.428 . S
C5345 N5344 1.351 . S
C5345 C5346 1.434 . S
C5346 C5337 1.429 . S
C5346 N5343 1.350 . S
C5346 C5345 1.434 . S
C5347 C5348 1.369 . S
C5347 C5349 1.419 . S
C5347 H5351 0.930 . S
C5348 C5347 1.369 . S
C5348 C5357 1.429 . S
C5349 C5347 1.419 . S
C5349 C5350 1.363 . S
C5349 H5352 0.929 . S
C5350 C5349 1.363 . S
C5350 C5356 1.428 . S
H5351 C5347 0.930 . S
H5352 C5349 0.929 . S
S5353 N5354 1.613 . S
S5353 N5355 1.610 . S
N5354 S5353 1.613 . S
N5354 C5357 1.350 . S
N5355 S5353 1.610 . S
N5355 C5356 1.351 . S
C5356 C5350 1.428 . S
C5356 N5355 1.351 . S
C5356 C5357 1.434 . S
C5357 C5348 1.429 . S
C5357 N5354 1.350 . S
C5357 C5356 1.434 . S
C5358 C5359 1.369 . S
C5358 C5360 1.419 . S
C5358 H5362 0.930 . S
C5359 C5358 1.369 . S
C5359 C5368 1.429 . S
C5360 C5358 1.419 . S
C5360 C5361 1.363 . S
C5360 H5363 0.929 . S
C5361 C5360 1.363 . S
C5361 C5367 1.428 . S
H5362 C5358 0.930 . S
H5363 C5360 0.929 . S
S5364 N5365 1.613 . S
S5364 N5366 1.610 . S
N5365 S5364 1.613 . S
N5365 C5368 1.350 . S
N5366 S5364 1.610 . S
N5366 C5367 1.351 . S
C5367 C5361 1.428 . S
C5367 N5366 1.351 . S
C5367 C5368 1.434 . S
C5368 C5359 1.429 . S
C5368 N5365 1.350 . S
C5368 C5367 1.434 . S
C5369 C5370 1.369 . S
C5369 C5371 1.419 . S
C5369 H5373 0.930 . S
C5370 C5369 1.369 . S
C5370 C5379 1.429 . S
C5371 C5369 1.419 . S
C5371 C5372 1.363 . S
C5371 H5374 0.929 . S
C5372 C5371 1.363 . S
C5372 C5378 1.428 . S
H5373 C5369 0.930 . S
H5374 C5371 0.929 . S
S5375 N5376 1.613 1_455 S
S5375 N5377 1.610 1_455 S
N5376 S5375 1.613 1_655 S
N5376 C5379 1.350 . S
N5377 S5375 1.610 1_655 S
N5377 C5378 1.351 . S
C5378 C5372 1.428 . S
C5378 N5377 1.351 . S
C5378 C5379 1.434 . S
C5379 C5370 1.429 . S
C5379 N5376 1.350 . S
C5379 C5378 1.434 . S
C5380 C5381 1.369 . S
C5380 C5382 1.419 . S
C5380 H5384 0.930 . S
C5381 C5380 1.369 . S
C5381 C5390 1.429 . S
C5382 C5380 1.419 . S
C5382 C5383 1.363 . S
C5382 H5385 0.929 . S
C5383 C5382 1.363 . S
C5383 C5389 1.428 . S
H5384 C5380 0.930 . S
H5385 C5382 0.929 . S
S5386 N5387 1.613 . S
S5386 N5388 1.610 . S
N5387 S5386 1.613 . S
N5387 C5390 1.350 . S
N5388 S5386 1.610 . S
N5388 C5389 1.351 . S
C5389 C5383 1.428 . S
C5389 N5388 1.351 . S
C5389 C5390 1.434 . S
C5390 C5381 1.429 . S
C5390 N5387 1.350 . S
C5390 C5389 1.434 . S
C5391 C5392 1.369 . S
C5391 C5393 1.419 . S
C5391 H5395 0.930 . S
C5392 C5391 1.369 . S
C5392 C5401 1.429 . S
C5393 C5391 1.419 . S
C5393 C5394 1.363 . S
C5393 H5396 0.929 . S
C5394 C5393 1.363 . S
C5394 C5400 1.428 . S
H5395 C5391 0.930 . S
H5396 C5393 0.929 . S
S5397 N5398 1.613 . S
S5397 N5399 1.610 . S
N5398 S5397 1.613 . S
N5398 C5401 1.350 . S
N5399 S5397 1.610 . S
N5399 C5400 1.351 . S
C5400 C5394 1.428 . S
C5400 N5399 1.351 . S
C5400 C5401 1.434 . S
C5401 C5392 1.429 . S
C5401 N5398 1.350 . S
C5401 C5400 1.434 . S
C5402 C5403 1.369 . S
C5402 C5404 1.419 . S
C5402 H5406 0.930 . S
C5403 C5402 1.369 . S
C5403 C5412 1.429 . S
C5404 C5402 1.419 . S
C5404 C5405 1.363 . S
C5404 H5407 0.929 . S
C5405 C5404 1.363 . S
C5405 C5411 1.428 . S
H5406 C5402 0.930 . S
H5407 C5404 0.929 . S
S5408 N5409 1.613 . S
S5408 N5410 1.610 . S
N5409 S5408 1.613 . S
N5409 C5412 1.350 . S
N5410 S5408 1.610 . S
N5410 C5411 1.351 . S
C5411 C5405 1.428 . S
C5411 N5410 1.351 . S
C5411 C5412 1.434 . S
C5412 C5403 1.429 . S
C5412 N5409 1.350 . S
C5412 C5411 1.434 . S
C5413 C5414 1.369 . S
C5413 C5415 1.419 . S
C5413 H5417 0.930 . S
C5414 C5413 1.369 . S
C5414 C5423 1.429 . S
C5415 C5413 1.419 . S
C5415 C5416 1.363 . S
C5415 H5418 0.929 . S
C5416 C5415 1.363 . S
C5416 C5422 1.428 . S
H5417 C5413 0.930 . S
H5418 C5415 0.929 . S
S5419 N5420 1.613 . S
S5419 N5421 1.610 . S
N5420 S5419 1.613 . S
N5420 C5423 1.350 . S
N5421 S5419 1.610 . S
N5421 C5422 1.351 . S
C5422 C5416 1.428 . S
C5422 N5421 1.351 . S
C5422 C5423 1.434 . S
C5423 C5414 1.429 . S
C5423 N5420 1.350 . S
C5423 C5422 1.434 . S
C5424 C5425 1.369 1_655 S
C5424 C5426 1.419 . S
C5424 H5428 0.930 . S
C5425 C5424 1.369 1_455 S
C5425 C5434 1.429 . S
C5426 C5424 1.419 . S
C5426 C5427 1.363 . S
C5426 H5429 0.929 . S
C5427 C5426 1.363 . S
C5427 C5433 1.428 1_655 S
H5428 C5424 0.930 . S
H5429 C5426 0.929 . S
S5430 N5431 1.613 . S
S5430 N5432 1.610 . S
N5431 S5430 1.613 . S
N5431 C5434 1.350 . S
N5432 S5430 1.610 . S
N5432 C5433 1.351 . S
C5433 C5427 1.428 1_455 S
C5433 N5432 1.351 . S
C5433 C5434 1.434 . S
C5434 C5425 1.429 . S
C5434 N5431 1.350 . S
C5434 C5433 1.434 . S
C5435 C5436 1.369 . S
C5435 C5437 1.419 1_455 S
C5435 H5439 0.930 . S
C5436 C5435 1.369 . S
C5436 C5445 1.429 . S
C5437 C5435 1.419 1_655 S
C5437 C5438 1.363 . S
C5437 H5440 0.929 . S
C5438 C5437 1.363 . S
C5438 C5444 1.428 . S
H5439 C5435 0.930 . S
H5440 C5437 0.929 . S
S5441 N5442 1.613 . S
S5441 N5443 1.610 1_455 S
N5442 S5441 1.613 . S
N5442 C5445 1.350 . S
N5443 S5441 1.610 1_655 S
N5443 C5444 1.351 . S
C5444 C5438 1.428 . S
C5444 N5443 1.351 . S
C5444 C5445 1.434 1_655 S
C5445 C5436 1.429 . S
C5445 N5442 1.350 . S
C5445 C5444 1.434 1_455 S
C5446 C5447 1.369 . S
C5446 C5448 1.419 . S
C5446 H5450 0.930 . S
C5447 C5446 1.369 . S
C5447 C5456 1.429 . S
C5448 C5446 1.419 . S
C5448 C5449 1.363 . S
C5448 H5451 0.929 . S
C5449 C5448 1.363 . S
C5449 C5455 1.428 . S
H5450 C5446 0.930 . S
H5451 C5448 0.929 . S
S5452 N5453 1.613 . S
S5452 N5454 1.610 . S
N5453 S5452 1.613 . S
N5453 C5456 1.350 . S
N5454 S5452 1.610 . S
N5454 C5455 1.351 . S
C5455 C5449 1.428 . S
C5455 N5454 1.351 . S
C5455 C5456 1.434 . S
C5456 C5447 1.429 . S
C5456 N5453 1.350 . S
C5456 C5455 1.434 . S
C5457 C5458 1.369 . S
C5457 C5459 1.419 . S
C5457 H5461 0.930 . S
C5458 C5457 1.369 . S
C5458 C5467 1.429 . S
C5459 C5457 1.419 . S
C5459 C5460 1.363 . S
C5459 H5462 0.929 . S
C5460 C5459 1.363 . S
C5460 C5466 1.428 . S
H5461 C5457 0.930 . S
H5462 C5459 0.929 . S
S5463 N5464 1.613 . S
S5463 N5465 1.610 . S
N5464 S5463 1.613 . S
N5464 C5467 1.350 . S
N5465 S5463 1.610 . S
N5465 C5466 1.351 . S
C5466 C5460 1.428 . S
C5466 N5465 1.351 . S
C5466 C5467 1.434 . S
C5467 C5458 1.429 . S
C5467 N5464 1.350 . S
C5467 C5466 1.434 . S
C5468 C5469 1.369 1_655 S
C5468 C5470 1.419 . S
C5468 H5472 0.930 . S
C5469 C5468 1.369 1_455 S
C5469 C5478 1.429 . S
C5470 C5468 1.419 . S
C5470 C5471 1.363 . S
C5470 H5473 0.929 . S
C5471 C5470 1.363 . S
C5471 C5477 1.428 1_655 S
H5472 C5468 0.930 . S
H5473 C5470 0.929 . S
S5474 N5475 1.613 . S
S5474 N5476 1.610 . S
N5475 S5474 1.613 . S
N5475 C5478 1.350 . S
N5476 S5474 1.610 . S
N5476 C5477 1.351 . S
C5477 C5471 1.428 1_455 S
C5477 N5476 1.351 . S
C5477 C5478 1.434 . S
C5478 C5469 1.429 . S
C5478 N5475 1.350 . S
C5478 C5477 1.434 . S
C5479 C5480 1.369 . S
C5479 C5481 1.419 . S
C5479 H5483 0.930 . S
C5480 C5479 1.369 . S
C5480 C5489 1.429 . S
C5481 C5479 1.419 . S
C5481 C5482 1.363 . S
C5481 H5484 0.929 . S
C5482 C5481 1.363 . S
C5482 C5488 1.428 . S
H5483 C5479 0.930 . S
H5484 C5481 0.929 . S
S5485 N5486 1.613 . S
S5485 N5487 1.610 . S
N5486 S5485 1.613 . S
N5486 C5489 1.350 . S
N5487 S5485 1.610 . S
N5487 C5488 1.351 . S
C5488 C5482 1.428 . S
C5488 N5487 1.351 . S
C5488 C5489 1.434 . S
C5489 C5480 1.429 . S
C5489 N5486 1.350 . S
C5489 C5488 1.434 . S
C5490 C5491 1.369 . S
C5490 C5492 1.419 . S
C5490 H5494 0.930 . S
C5491 C5490 1.369 . S
C5491 C5500 1.429 . S
C5492 C5490 1.419 . S
C5492 C5493 1.363 . S
C5492 H5495 0.929 . S
C5493 C5492 1.363 . S
C5493 C5499 1.428 . S
H5494 C5490 0.930 . S
H5495 C5492 0.929 . S
S5496 N5497 1.613 . S
S5496 N5498 1.610 . S
N5497 S5496 1.613 . S
N5497 C5500 1.350 . S
N5498 S5496 1.610 . S
N5498 C5499 1.351 . S
C5499 C5493 1.428 . S
C5499 N5498 1.351 . S
C5499 C5500 1.434 . S
C5500 C5491 1.429 . S
C5500 N5497 1.350 . S
C5500 C5499 1.434 . S
C5501 C5502 1.369 . S
C5501 C5503 1.419 1_455 S
C5501 H5505 0.930 . S
C5502 C5501 1.369 . S
C5502 C5511 1.429 . S
C5503 C5501 1.419 1_655 S
C5503 C5504 1.363 . S
C5503 H5506 0.929 . S
C5504 C5503 1.363 . S
C5504 C5510 1.428 . S
H5505 C5501 0.930 . S
H5506 C5503 0.929 . S
S5507 N5508 1.613 . S
S5507 N5509 1.610 1_455 S
N5508 S5507 1.613 . S
N5508 C5511 1.350 . S
N5509 S5507 1.610 1_655 S
N5509 C5510 1.351 . S
C5510 C5504 1.428 . S
C5510 N5509 1.351 . S
C5510 C5511 1.434 1_655 S
C5511 C5502 1.429 . S
C5511 N5508 1.350 . S
C5511 C5510 1.434 1_455 S
C5512 C5513 1.369 1_545 S
C5512 C5514 1.419 . S
C5512 H5516 0.930 . S
C5513 C5512 1.369 1_565 S
C5513 C5522 1.429 . S
C5514 C5512 1.419 . S
C5514 C5515 1.363 . S
C5514 H5517 0.929 . S
C5515 C5514 1.363 . S
C5515 C5521 1.428 1_545 S
H5516 C5512 0.930 . S
H5517 C5514 0.929 . S
S5518 N5519 1.613 . S
S5518 N5520 1.610 . S
N5519 S5518 1.613 . S
N5519 C5522 1.350 . S
N5520 S5518 1.610 . S
N5520 C5521 1.351 . S
C5521 C5515 1.428 1_565 S
C5521 N5520 1.351 . S
C5521 C5522 1.434 . S
C5522 C5513 1.429 . S
C5522 N5519 1.350 . S
C5522 C5521 1.434 . S
C5523 C5524 1.369 . S
C5523 C5525 1.419 . S
C5523 H5527 0.930 . S
C5524 C5523 1.369 . S
C5524 C5533 1.429 . S
C5525 C5523 1.419 . S
C5525 C5526 1.363 . S
C5525 H5528 0.929 . S
C5526 C5525 1.363 . S
C5526 C5532 1.428 . S
H5527 C5523 0.930 . S
H5528 C5525 0.929 . S
S5529 N5530 1.613 . S
S5529 N5531 1.610 . S
N5530 S5529 1.613 . S
N5530 C5533 1.350 . S
N5531 S5529 1.610 . S
N5531 C5532 1.351 . S
C5532 C5526 1.428 . S
C5532 N5531 1.351 . S
C5532 C5533 1.434 . S
C5533 C5524 1.429 . S
C5533 N5530 1.350 . S
C5533 C5532 1.434 . S
C5534 C5535 1.369 1_565 S
C5534 C5536 1.419 . S
C5534 H5538 0.930 . S
C5535 C5534 1.369 1_545 S
C5535 C5544 1.429 . S
C5536 C5534 1.419 . S
C5536 C5537 1.363 . S
C5536 H5539 0.929 . S
C5537 C5536 1.363 . S
C5537 C5543 1.428 1_565 S
H5538 C5534 0.930 . S
H5539 C5536 0.929 . S
S5540 N5541 1.613 . S
S5540 N5542 1.610 . S
N5541 S5540 1.613 . S
N5541 C5544 1.350 . S
N5542 S5540 1.610 . S
N5542 C5543 1.351 . S
C5543 C5537 1.428 1_545 S
C5543 N5542 1.351 . S
C5543 C5544 1.434 . S
C5544 C5535 1.429 . S
C5544 N5541 1.350 . S
C5544 C5543 1.434 . S
C5545 C5546 1.369 . S
C5545 C5547 1.419 1_554 S
C5545 H5549 0.930 . S
C5546 C5545 1.369 . S
C5546 C5555 1.429 . S
C5547 C5545 1.419 1_556 S
C5547 C5548 1.363 . S
C5547 H5550 0.929 . S
C5548 C5547 1.363 . S
C5548 C5554 1.428 . S
H5549 C5545 0.930 . S
H5550 C5547 0.929 . S
S5551 N5552 1.613 . S
S5551 N5553 1.610 1_554 S
N5552 S5551 1.613 . S
N5552 C5555 1.350 . S
N5553 S5551 1.610 1_556 S
N5553 C5554 1.351 . S
C5554 C5548 1.428 . S
C5554 N5553 1.351 . S
C5554 C5555 1.434 1_556 S
C5555 C5546 1.429 . S
C5555 N5552 1.350 . S
C5555 C5554 1.434 1_554 S
C5556 C5557 1.369 . S
C5556 C5558 1.419 . S
C5556 H5560 0.930 . S
C5557 C5556 1.369 . S
C5557 C5566 1.429 1_554 S
C5558 C5556 1.419 . S
C5558 C5559 1.363 1_554 S
C5558 H5561 0.929 . S
C5559 C5558 1.363 1_556 S
C5559 C5565 1.428 . S
H5560 C5556 0.930 . S
H5561 C5558 0.929 . S
S5562 N5563 1.613 . S
S5562 N5564 1.610 . S
N5563 S5562 1.613 . S
N5563 C5566 1.350 . S
N5564 S5562 1.610 . S
N5564 C5565 1.351 . S
C5565 C5559 1.428 . S
C5565 N5564 1.351 . S
C5565 C5566 1.434 . S
C5566 C5557 1.429 1_556 S
C5566 N5563 1.350 . S
C5566 C5565 1.434 . S
C5567 C5568 1.369 1_556 S
C5567 C5569 1.419 . S
C5567 H5571 0.930 . S
C5568 C5567 1.369 1_554 S
C5568 C5577 1.429 . S
C5569 C5567 1.419 . S
C5569 C5570 1.363 . S
C5569 H5572 0.929 . S
C5570 C5569 1.363 . S
C5570 C5576 1.428 1_556 S
H5571 C5567 0.930 . S
H5572 C5569 0.929 . S
S5573 N5574 1.613 . S
S5573 N5575 1.610 . S
N5574 S5573 1.613 . S
N5574 C5577 1.350 . S
N5575 S5573 1.610 . S
N5575 C5576 1.351 . S
C5576 C5570 1.428 1_554 S
C5576 N5575 1.351 . S
C5576 C5577 1.434 . S
C5577 C5568 1.429 . S
C5577 N5574 1.350 . S
C5577 C5576 1.434 . S
C5578 C5579 1.369 . S
C5578 C5580 1.419 . S
C5578 H5582 0.930 . S
C5579 C5578 1.369 . S
C5579 C5588 1.429 . S
C5580 C5578 1.419 . S
C5580 C5581 1.363 . S
C5580 H5583 0.929 . S
C5581 C5580 1.363 . S
C5581 C5587 1.428 . S
H5582 C5578 0.930 . S
H5583 C5580 0.929 . S
S5584 N5585 1.613 . S
S5584 N5586 1.610 . S
N5585 S5584 1.613 . S
N5585 C5588 1.350 . S
N5586 S5584 1.610 . S
N5586 C5587 1.351 . S
C5587 C5581 1.428 . S
C5587 N5586 1.351 . S
C5587 C5588 1.434 . S
C5588 C5579 1.429 . S
C5588 N5585 1.350 . S
C5588 C5587 1.434 . S
C5589 C5590 1.369 . S
C5589 C5591 1.419 . S
C5589 H5593 0.930 . S
C5590 C5589 1.369 . S
C5590 C5599 1.429 . S
C5591 C5589 1.419 . S
C5591 C5592 1.363 . S
C5591 H5594 0.929 . S
C5592 C5591 1.363 . S
C5592 C5598 1.428 . S
H5593 C5589 0.930 . S
H5594 C5591 0.929 . S
S5595 N5596 1.613 . S
S5595 N5597 1.610 . S
N5596 S5595 1.613 . S
N5596 C5599 1.350 . S
N5597 S5595 1.610 . S
N5597 C5598 1.351 . S
C5598 C5592 1.428 . S
C5598 N5597 1.351 . S
C5598 C5599 1.434 . S
C5599 C5590 1.429 . S
C5599 N5596 1.350 . S
C5599 C5598 1.434 . S
C5600 C5601 1.369 . S
C5600 C5602 1.419 1_545 S
C5600 H5604 0.930 . S
C5601 C5600 1.369 . S
C5601 C5610 1.429 . S
C5602 C5600 1.419 1_565 S
C5602 C5603 1.363 . S
C5602 H5605 0.929 . S
C5603 C5602 1.363 . S
C5603 C5609 1.428 . S
H5604 C5600 0.930 . S
H5605 C5602 0.929 . S
S5606 N5607 1.613 1_565 S
S5606 N5608 1.610 . S
N5607 S5606 1.613 1_545 S
N5607 C5610 1.350 . S
N5608 S5606 1.610 . S
N5608 C5609 1.351 . S
C5609 C5603 1.428 . S
C5609 N5608 1.351 . S
C5609 C5610 1.434 1_565 S
C5610 C5601 1.429 . S
C5610 N5607 1.350 . S
C5610 C5609 1.434 1_545 S
C5611 C5612 1.369 . S
C5611 C5613 1.419 . S
C5611 H5615 0.930 . S
C5612 C5611 1.369 . S
C5612 C5621 1.429 . S
C5613 C5611 1.419 . S
C5613 C5614 1.363 . S
C5613 H5616 0.929 . S
C5614 C5613 1.363 . S
C5614 C5620 1.428 . S
H5615 C5611 0.930 . S
H5616 C5613 0.929 . S
S5617 N5618 1.613 . S
S5617 N5619 1.610 . S
N5618 S5617 1.613 . S
N5618 C5621 1.350 . S
N5619 S5617 1.610 . S
N5619 C5620 1.351 . S
C5620 C5614 1.428 . S
C5620 N5619 1.351 . S
C5620 C5621 1.434 . S
C5621 C5612 1.429 . S
C5621 N5618 1.350 . S
C5621 C5620 1.434 . S
C5622 C5623 1.369 . S
C5622 C5624 1.419 . S
C5622 H5626 0.930 . S
C5623 C5622 1.369 . S
C5623 C5632 1.429 . S
C5624 C5622 1.419 . S
C5624 C5625 1.363 . S
C5624 H5627 0.929 . S
C5625 C5624 1.363 . S
C5625 C5631 1.428 . S
H5626 C5622 0.930 . S
H5627 C5624 0.929 . S
S5628 N5629 1.613 . S
S5628 N5630 1.610 . S
N5629 S5628 1.613 . S
N5629 C5632 1.350 . S
N5630 S5628 1.610 . S
N5630 C5631 1.351 . S
C5631 C5625 1.428 . S
C5631 N5630 1.351 . S
C5631 C5632 1.434 . S
C5632 C5623 1.429 . S
C5632 N5629 1.350 . S
C5632 C5631 1.434 . S
C5633 C5634 1.397 . S
C5633 C5635 1.419 . S
C5633 H5637 0.930 . S
C5634 C5633 1.397 . S
C5634 C5643 1.397 1_655 S
C5635 C5633 1.419 . S
C5635 C5636 1.363 1_655 S
C5635 H5638 0.929 . S
C5636 C5635 1.363 1_455 S
C5636 C5642 1.428 . S
H5637 C5633 0.930 . S
H5638 C5635 0.929 . S
S5639 N5640 1.613 . S
S5639 N5641 1.610 . S
N5640 S5639 1.613 . S
N5640 C5643 1.350 . S
N5641 S5639 1.610 . S
N5641 C5642 1.351 . S
C5642 C5636 1.428 . S
C5642 N5641 1.351 . S
C5642 C5643 1.434 . S
C5643 C5634 1.397 1_455 S
C5643 N5640 1.350 . S
C5643 C5642 1.434 . S
C5644 C5645 1.369 . S
C5644 C5646 1.419 1_455 S
C5644 H5648 0.930 . S
C5645 C5644 1.369 . S
C5645 C5654 1.429 . S
C5646 C5644 1.419 1_655 S
C5646 C5647 1.363 . S
C5646 H5649 0.929 . S
C5647 C5646 1.363 . S
C5647 C5653 1.428 . S
H5648 C5644 0.930 . S
H5649 C5646 0.929 . S
S5650 N5651 1.613 1_655 S
S5650 N5652 1.610 . S
N5651 S5650 1.613 1_455 S
N5651 C5654 1.350 . S
N5652 S5650 1.610 . S
N5652 C5653 1.351 . S
C5653 C5647 1.428 . S
C5653 N5652 1.351 . S
C5653 C5654 1.434 1_655 S
C5654 C5645 1.429 . S
C5654 N5651 1.350 . S
C5654 C5653 1.434 1_455 S
C5655 C5656 1.369 . S
C5655 C5657 1.419 . S
C5655 H5659 0.930 . S
C5656 C5655 1.369 . S
C5656 C5665 1.429 . S
C5657 C5655 1.419 . S
C5657 C5658 1.363 . S
C5657 H5660 0.929 . S
C5658 C5657 1.363 . S
C5658 C5664 1.428 . S
H5659 C5655 0.930 . S
H5660 C5657 0.929 . S
S5661 N5662 1.613 . S
S5661 N5663 1.610 . S
N5662 S5661 1.613 . S
N5662 C5665 1.350 . S
N5663 S5661 1.610 . S
N5663 C5664 1.351 . S
C5664 C5658 1.428 . S
C5664 N5663 1.351 . S
C5664 C5665 1.434 . S
C5665 C5656 1.429 . S
C5665 N5662 1.350 . S
C5665 C5664 1.434 . S
C5666 C5667 1.369 . S
C5666 C5668 1.419 . S
C5666 H5670 0.930 . S
C5667 C5666 1.369 . S
C5667 C5676 1.429 . S
C5668 C5666 1.419 . S
C5668 C5669 1.363 . S
C5668 H5671 0.929 . S
C5669 C5668 1.363 . S
C5669 C5675 1.428 . S
H5670 C5666 0.930 . S
H5671 C5668 0.929 . S
S5672 N5673 1.613 . S
S5672 N5674 1.610 . S
N5673 S5672 1.613 . S
N5673 C5676 1.350 . S
N5674 S5672 1.610 . S
N5674 C5675 1.351 . S
C5675 C5669 1.428 . S
C5675 N5674 1.351 . S
C5675 C5676 1.434 . S
C5676 C5667 1.429 . S
C5676 N5673 1.350 . S
C5676 C5675 1.434 . S
C5677 C5678 1.369 . S
C5677 C5679 1.419 . S
C5677 H5681 0.930 . S
C5678 C5677 1.369 . S
C5678 C5687 1.429 1_655 S
C5679 C5677 1.419 . S
C5679 C5680 1.363 1_655 S
C5679 H5682 0.929 . S
C5680 C5679 1.363 1_455 S
C5680 C5686 1.428 . S
H5681 C5677 0.930 . S
H5682 C5679 0.929 . S
S5683 N5684 1.613 . S
S5683 N5685 1.610 . S
N5684 S5683 1.613 . S
N5684 C5687 1.350 . S
N5685 S5683 1.610 . S
N5685 C5686 1.351 . S
C5686 C5680 1.428 . S
C5686 N5685 1.351 . S
C5686 C5687 1.434 . S
C5687 C5678 1.429 1_455 S
C5687 N5684 1.350 . S
C5687 C5686 1.434 . S
C5688 C5689 1.369 . S
C5688 C5690 1.419 . S
C5688 H5692 0.930 . S
C5689 C5688 1.369 . S
C5689 C5698 1.429 . S
C5690 C5688 1.419 . S
C5690 C5691 1.363 . S
C5690 H5693 0.929 . S
C5691 C5690 1.363 . S
C5691 C5697 1.428 . S
H5692 C5688 0.930 . S
H5693 C5690 0.929 . S
S5694 N5695 1.613 . S
S5694 N5696 1.610 . S
N5695 S5694 1.613 . S
N5695 C5698 1.350 . S
N5696 S5694 1.610 . S
N5696 C5697 1.351 . S
C5697 C5691 1.428 . S
C5697 N5696 1.351 . S
C5697 C5698 1.434 . S
C5698 C5689 1.429 . S
C5698 N5695 1.350 . S
C5698 C5697 1.434 . S
C5699 C5700 1.369 . S
C5699 C5701 1.419 . S
C5699 H5703 0.930 . S
C5700 C5699 1.369 . S
C5700 C5709 1.429 . S
C5701 C5699 1.419 . S
C5701 C5702 1.363 . S
C5701 H5704 0.929 . S
C5702 C5701 1.363 . S
C5702 C5708 1.428 . S
H5703 C5699 0.930 . S
H5704 C5701 0.929 . S
S5705 N5706 1.613 . S
S5705 N5707 1.610 . S
N5706 S5705 1.613 . S
N5706 C5709 1.350 . S
N5707 S5705 1.610 . S
N5707 C5708 1.351 . S
C5708 C5702 1.428 . S
C5708 N5707 1.351 . S
C5708 C5709 1.434 . S
C5709 C5700 1.429 . S
C5709 N5706 1.350 . S
C5709 C5708 1.434 . S
C5710 C5711 1.369 . S
C5710 C5712 1.419 1_455 S
C5710 H5714 0.930 . S
C5711 C5710 1.369 . S
C5711 C5720 1.429 . S
C5712 C5710 1.419 1_655 S
C5712 C5713 1.363 . S
C5712 H5715 0.929 . S
C5713 C5712 1.363 . S
C5713 C5719 1.428 . S
H5714 C5710 0.930 . S
H5715 C5712 0.929 . S
S5716 N5717 1.613 . S
S5716 N5718 1.610 1_455 S
N5717 S5716 1.613 . S
N5717 C5720 1.350 . S
N5718 S5716 1.610 1_655 S
N5718 C5719 1.351 . S
C5719 C5713 1.428 . S
C5719 N5718 1.351 . S
C5719 C5720 1.434 1_655 S
C5720 C5711 1.429 . S
C5720 N5717 1.350 . S
C5720 C5719 1.434 1_455 S
C5721 C5722 1.369 . S
C5721 C5723 1.423 . S
C5721 H5725 0.930 . S
C5722 C5721 1.369 . S
C5722 C5731 1.429 1_565 S
C5723 C5721 1.423 . S
C5723 C5724 1.359 1_565 S
C5723 H5726 0.931 . S
C5724 C5723 1.359 1_545 S
C5724 C5730 1.428 . S
H5725 C5721 0.930 . S
H5726 C5723 0.931 . S
S5727 N5728 1.613 . S
S5727 N5729 1.610 . S
N5728 S5727 1.613 . S
N5728 C5731 1.350 . S
N5729 S5727 1.610 . S
N5729 C5730 1.351 . S
C5730 C5724 1.428 . S
C5730 N5729 1.351 . S
C5730 C5731 1.434 . S
C5731 C5722 1.429 1_545 S
C5731 N5728 1.350 . S
C5731 C5730 1.434 . S
C5732 C5733 1.369 . S
C5732 C5734 1.419 . S
C5732 H5736 0.930 . S
C5733 C5732 1.369 . S
C5733 C5742 1.429 . S
C5734 C5732 1.419 . S
C5734 C5735 1.363 . S
C5734 H5737 0.929 . S
C5735 C5734 1.363 . S
C5735 C5741 1.428 . S
H5736 C5732 0.930 . S
H5737 C5734 0.929 . S
S5738 N5739 1.613 . S
S5738 N5740 1.610 . S
N5739 S5738 1.613 . S
N5739 C5742 1.350 . S
N5740 S5738 1.610 . S
N5740 C5741 1.351 . S
C5741 C5735 1.428 . S
C5741 N5740 1.351 . S
C5741 C5742 1.434 . S
C5742 C5733 1.429 . S
C5742 N5739 1.350 . S
C5742 C5741 1.434 . S
C5743 C5744 1.369 . S
C5743 C5745 1.419 . S
C5743 H5747 0.930 . S
C5744 C5743 1.369 . S
C5744 C5753 1.429 1_545 S
C5745 C5743 1.419 . S
C5745 C5746 1.363 1_545 S
C5745 H5748 0.929 . S
C5746 C5745 1.363 1_565 S
C5746 C5752 1.428 . S
H5747 C5743 0.930 . S
H5748 C5745 0.929 . S
S5749 N5750 1.613 . S
S5749 N5751 1.610 . S
N5750 S5749 1.613 . S
N5750 C5753 1.350 . S
N5751 S5749 1.610 . S
N5751 C5752 1.351 . S
C5752 C5746 1.428 . S
C5752 N5751 1.351 . S
C5752 C5753 1.434 . S
C5753 C5744 1.429 1_565 S
C5753 N5750 1.350 . S
C5753 C5752 1.434 . S
C5754 C5755 1.369 . S
C5754 C5756 1.419 1_554 S
C5754 H5758 0.930 . S
C5755 C5754 1.369 . S
C5755 C5764 1.429 . S
C5756 C5754 1.419 1_556 S
C5756 C5757 1.363 . S
C5756 H5759 0.929 . S
C5757 C5756 1.363 . S
C5757 C5763 1.428 . S
H5758 C5754 0.930 . S
H5759 C5756 0.929 . S
S5760 N5761 1.613 1_556 S
S5760 N5762 1.610 . S
N5761 S5760 1.613 1_554 S
N5761 C5764 1.350 . S
N5762 S5760 1.610 . S
N5762 C5763 1.351 . S
C5763 C5757 1.428 . S
C5763 N5762 1.351 . S
C5763 C5764 1.434 1_556 S
C5764 C5755 1.429 . S
C5764 N5761 1.350 . S
C5764 C5763 1.434 1_554 S
C5765 C5766 1.369 . S
C5765 C5767 1.419 . S
C5765 H5769 0.930 . S
C5766 C5765 1.369 . S
C5766 C5775 1.429 1_554 S
C5767 C5765 1.419 . S
C5767 C5768 1.363 1_554 S
C5767 H5770 0.929 . S
C5768 C5767 1.363 1_556 S
C5768 C5774 1.428 . S
H5769 C5765 0.930 . S
H5770 C5767 0.929 . S
S5771 N5772 1.613 . S
S5771 N5773 1.610 . S
N5772 S5771 1.613 . S
N5772 C5775 1.350 . S
N5773 S5771 1.610 . S
N5773 C5774 1.351 . S
C5774 C5768 1.428 . S
C5774 N5773 1.351 . S
C5774 C5775 1.434 . S
C5775 C5766 1.429 1_556 S
C5775 N5772 1.350 . S
C5775 C5774 1.434 . S
C5776 C5777 1.369 . S
C5776 C5778 1.419 . S
C5776 H5780 0.930 . S
C5777 C5776 1.369 . S
C5777 C5786 1.429 1_556 S
C5778 C5776 1.419 . S
C5778 C5779 1.363 1_556 S
C5778 H5781 0.929 . S
C5779 C5778 1.363 1_554 S
C5779 C5785 1.428 . S
H5780 C5776 0.930 . S
H5781 C5778 0.929 . S
S5782 N5783 1.613 . S
S5782 N5784 1.610 . S
N5783 S5782 1.613 . S
N5783 C5786 1.350 . S
N5784 S5782 1.610 . S
N5784 C5785 1.351 . S
C5785 C5779 1.428 . S
C5785 N5784 1.351 . S
C5785 C5786 1.434 . S
C5786 C5777 1.429 1_554 S
C5786 N5783 1.350 . S
C5786 C5785 1.434 . S
C5787 C5788 1.369 . S
C5787 C5789 1.419 . S
C5787 H5791 0.930 . S
C5788 C5787 1.369 . S
C5788 C5797 1.429 . S
C5789 C5787 1.419 . S
C5789 C5790 1.363 . S
C5789 H5792 0.929 . S
C5790 C5789 1.363 . S
C5790 C5796 1.428 . S
H5791 C5787 0.930 . S
H5792 C5789 0.929 . S
S5793 N5794 1.613 . S
S5793 N5795 1.610 . S
N5794 S5793 1.613 . S
N5794 C5797 1.350 . S
N5795 S5793 1.610 . S
N5795 C5796 1.351 . S
C5796 C5790 1.428 . S
C5796 N5795 1.351 . S
C5796 C5797 1.434 . S
C5797 C5788 1.429 . S
C5797 N5794 1.350 . S
C5797 C5796 1.434 . S
C5798 C5799 1.369 . S
C5798 C5800 1.419 . S
C5798 H5802 0.930 . S
C5799 C5798 1.369 . S
C5799 C5808 1.429 . S
C5800 C5798 1.419 . S
C5800 C5801 1.363 . S
C5800 H5803 0.929 . S
C5801 C5800 1.363 . S
C5801 C5807 1.428 . S
H5802 C5798 0.930 . S
H5803 C5800 0.929 . S
S5804 N5805 1.613 . S
S5804 N5806 1.610 . S
N5805 S5804 1.613 . S
N5805 C5808 1.350 . S
N5806 S5804 1.610 . S
N5806 C5807 1.351 . S
C5807 C5801 1.428 . S
C5807 N5806 1.351 . S
C5807 C5808 1.434 . S
C5808 C5799 1.429 . S
C5808 N5805 1.350 . S
C5808 C5807 1.434 . S
C5809 C5810 1.369 . S
C5809 C5811 1.419 . S
C5809 H5813 0.930 . S
C5810 C5809 1.369 . S
C5810 C5819 1.429 . S
C5811 C5809 1.419 . S
C5811 C5812 1.363 1_545 S
C5811 H5814 0.929 1_545 S
C5812 C5811 1.363 1_565 S
C5812 C5818 1.449 . S
H5813 C5809 0.930 . S
H5814 C5811 0.929 1_565 S
S5815 N5816 1.613 . S
S5815 N5817 1.610 1_545 S
N5816 S5815 1.613 . S
N5816 C5819 1.350 . S
N5817 S5815 1.610 1_565 S
N5817 C5818 1.371 . S
C5818 C5812 1.449 . S
C5818 N5817 1.371 . S
C5818 C5819 1.391 1_565 S
C5819 C5810 1.429 . S
C5819 N5816 1.350 . S
C5819 C5818 1.391 1_545 S
C5820 C5821 1.369 . S
C5820 C5822 1.419 . S
C5820 H5824 0.930 . S
C5821 C5820 1.369 . S
C5821 C5830 1.429 . S
C5822 C5820 1.419 . S
C5822 C5823 1.363 . S
C5822 H5825 0.929 . S
C5823 C5822 1.363 . S
C5823 C5829 1.428 . S
H5824 C5820 0.930 . S
H5825 C5822 0.929 . S
S5826 N5827 1.613 . S
S5826 N5828 1.610 . S
N5827 S5826 1.613 . S
N5827 C5830 1.350 . S
N5828 S5826 1.610 . S
N5828 C5829 1.351 . S
C5829 C5823 1.428 . S
C5829 N5828 1.351 . S
C5829 C5830 1.434 . S
C5830 C5821 1.429 . S
C5830 N5827 1.350 . S
C5830 C5829 1.434 . S
C5831 C5832 1.369 . S
C5831 C5833 1.419 . S
C5831 H5835 0.930 . S
C5832 C5831 1.369 . S
C5832 C5841 1.429 . S
C5833 C5831 1.419 . S
C5833 C5834 1.363 . S
C5833 H5836 0.929 . S
C5834 C5833 1.363 . S
C5834 C5840 1.428 . S
H5835 C5831 0.930 . S
H5836 C5833 0.929 . S
S5837 N5838 1.613 . S
S5837 N5839 1.610 . S
N5838 S5837 1.613 . S
N5838 C5841 1.350 . S
N5839 S5837 1.610 . S
N5839 C5840 1.351 . S
C5840 C5834 1.428 . S
C5840 N5839 1.351 . S
C5840 C5841 1.434 . S
C5841 C5832 1.429 . S
C5841 N5838 1.350 . S
C5841 C5840 1.434 . S
C5842 C5843 1.369 . S
C5842 C5844 1.419 . S
C5842 H5846 0.930 . S
C5843 C5842 1.369 . S
C5843 C5852 1.429 . S
C5844 C5842 1.419 . S
C5844 C5845 1.363 . S
C5844 H5847 0.929 . S
C5845 C5844 1.363 . S
C5845 C5851 1.428 . S
H5846 C5842 0.930 . S
H5847 C5844 0.929 . S
S5848 N5849 1.613 . S
S5848 N5850 1.610 . S
N5849 S5848 1.613 . S
N5849 C5852 1.350 . S
N5850 S5848 1.610 . S
N5850 C5851 1.351 . S
C5851 C5845 1.428 . S
C5851 N5850 1.351 . S
C5851 C5852 1.434 . S
C5852 C5843 1.429 . S
C5852 N5849 1.350 . S
C5852 C5851 1.434 . S
C5853 C5854 1.369 . S
C5853 C5855 1.419 1_556 S
C5853 H5857 0.930 . S
C5854 C5853 1.369 . S
C5854 C5863 1.429 . S
C5855 C5853 1.419 1_554 S
C5855 C5856 1.363 . S
C5855 H5858 0.929 . S
C5856 C5855 1.363 . S
C5856 C5862 1.428 . S
H5857 C5853 0.930 . S
H5858 C5855 0.929 . S
S5859 N5860 1.613 . S
S5859 N5861 1.610 1_556 S
N5860 S5859 1.613 . S
N5860 C5863 1.350 . S
N5861 S5859 1.610 1_554 S
N5861 C5862 1.351 . S
C5862 C5856 1.428 . S
C5862 N5861 1.351 . S
C5862 C5863 1.434 1_554 S
C5863 C5854 1.429 . S
C5863 N5860 1.350 . S
C5863 C5862 1.434 1_556 S
C5864 C5865 1.369 . S
C5864 C5866 1.419 . S
C5864 H5868 0.930 . S
C5865 C5864 1.369 . S
C5865 C5874 1.429 . S
C5866 C5864 1.419 . S
C5866 C5867 1.363 . S
C5866 H5869 0.929 . S
C5867 C5866 1.363 . S
C5867 C5873 1.428 . S
H5868 C5864 0.930 . S
H5869 C5866 0.929 . S
S5870 N5871 1.613 . S
S5870 N5872 1.610 . S
N5871 S5870 1.613 . S
N5871 C5874 1.350 . S
N5872 S5870 1.610 . S
N5872 C5873 1.351 . S
C5873 C5867 1.428 . S
C5873 N5872 1.351 . S
C5873 C5874 1.434 . S
C5874 C5865 1.429 . S
C5874 N5871 1.350 . S
C5874 C5873 1.434 . S
C5875 C5876 1.369 . S
C5875 C5877 1.419 . S
C5875 H5879 0.930 . S
C5876 C5875 1.369 . S
C5876 C5885 1.429 . S
C5877 C5875 1.419 . S
C5877 C5878 1.363 . S
C5877 H5880 0.929 . S
C5878 C5877 1.363 . S
C5878 C5884 1.428 . S
H5879 C5875 0.930 . S
H5880 C5877 0.929 . S
S5881 N5882 1.613 . S
S5881 N5883 1.610 . S
N5882 S5881 1.613 . S
N5882 C5885 1.350 . S
N5883 S5881 1.610 . S
N5883 C5884 1.351 . S
C5884 C5878 1.428 . S
C5884 N5883 1.351 . S
C5884 C5885 1.434 . S
C5885 C5876 1.429 . S
C5885 N5882 1.350 . S
C5885 C5884 1.434 . S
C5886 C5887 1.369 . S
C5886 C5888 1.419 1_545 S
C5886 H5890 0.930 . S
C5887 C5886 1.369 . S
C5887 C5896 1.429 . S
C5888 C5886 1.419 1_565 S
C5888 C5889 1.363 . S
C5888 H5891 0.929 . S
C5889 C5888 1.363 . S
C5889 C5895 1.428 . S
H5890 C5886 0.930 . S
H5891 C5888 0.929 . S
S5892 N5893 1.613 . S
S5892 N5894 1.610 1_545 S
N5893 S5892 1.613 . S
N5893 C5896 1.350 . S
N5894 S5892 1.610 1_565 S
N5894 C5895 1.351 . S
C5895 C5889 1.428 . S
C5895 N5894 1.351 . S
C5895 C5896 1.434 1_565 S
C5896 C5887 1.429 . S
C5896 N5893 1.350 . S
C5896 C5895 1.434 1_545 S
C5897 C5898 1.369 . S
C5897 C5899 1.419 . S
C5897 H5901 0.930 . S
C5898 C5897 1.369 . S
C5898 C5907 1.429 . S
C5899 C5897 1.419 . S
C5899 C5900 1.363 . S
C5899 H5902 0.929 . S
C5900 C5899 1.363 . S
C5900 C5906 1.428 . S
H5901 C5897 0.930 . S
H5902 C5899 0.929 . S
S5903 N5904 1.613 . S
S5903 N5905 1.610 . S
N5904 S5903 1.613 . S
N5904 C5907 1.350 . S
N5905 S5903 1.610 . S
N5905 C5906 1.351 . S
C5906 C5900 1.428 . S
C5906 N5905 1.351 . S
C5906 C5907 1.434 . S
C5907 C5898 1.429 . S
C5907 N5904 1.350 . S
C5907 C5906 1.434 . S
C5908 C5909 1.369 . S
C5908 C5910 1.419 1_554 S
C5908 H5912 0.930 . S
C5909 C5908 1.369 . S
C5909 C5918 1.429 . S
C5910 C5908 1.419 1_556 S
C5910 C5911 1.363 . S
C5910 H5913 0.929 . S
C5911 C5910 1.363 . S
C5911 C5917 1.428 . S
H5912 C5908 0.930 . S
H5913 C5910 0.929 . S
S5914 N5915 1.613 1_556 S
S5914 N5916 1.610 . S
N5915 S5914 1.613 1_554 S
N5915 C5918 1.350 . S
N5916 S5914 1.610 . S
N5916 C5917 1.351 . S
C5917 C5911 1.428 . S
C5917 N5916 1.351 . S
C5917 C5918 1.434 1_556 S
C5918 C5909 1.429 . S
C5918 N5915 1.350 . S
C5918 C5917 1.434 1_554 S
C5919 C5920 1.369 . S
C5919 C5921 1.419 . S
C5919 H5923 0.930 . S
C5920 C5919 1.369 . S
C5920 C5929 1.429 . S
C5921 C5919 1.419 . S
C5921 C5922 1.363 . S
C5921 H5924 0.929 . S
C5922 C5921 1.363 . S
C5922 C5928 1.428 . S
H5923 C5919 0.930 . S
H5924 C5921 0.929 . S
S5925 N5926 1.613 . S
S5925 N5927 1.610 . S
N5926 S5925 1.613 . S
N5926 C5929 1.350 . S
N5927 S5925 1.610 . S
N5927 C5928 1.351 . S
C5928 C5922 1.428 . S
C5928 N5927 1.351 . S
C5928 C5929 1.434 . S
C5929 C5920 1.429 . S
C5929 N5926 1.350 . S
C5929 C5928 1.434 . S
C5930 C5931 1.369 . S
C5930 C5932 1.419 . S
C5930 H5934 0.930 . S
C5931 C5930 1.369 . S
C5931 C5940 1.429 . S
C5932 C5930 1.419 . S
C5932 C5933 1.363 . S
C5932 H5935 0.929 . S
C5933 C5932 1.363 . S
C5933 C5939 1.428 . S
H5934 C5930 0.930 . S
H5935 C5932 0.929 . S
S5936 N5937 1.613 . S
S5936 N5938 1.610 . S
N5937 S5936 1.613 . S
N5937 C5940 1.350 . S
N5938 S5936 1.610 . S
N5938 C5939 1.351 . S
C5939 C5933 1.428 . S
C5939 N5938 1.351 . S
C5939 C5940 1.434 . S
C5940 C5931 1.429 . S
C5940 N5937 1.350 . S
C5940 C5939 1.434 . S
C5941 C5942 1.369 . S
C5941 C5943 1.419 1_545 S
C5941 H5945 0.930 . S
C5942 C5941 1.369 . S
C5942 C5951 1.429 . S
C5943 C5941 1.419 1_565 S
C5943 C5944 1.363 . S
C5943 H5946 0.929 . S
C5944 C5943 1.363 . S
C5944 C5950 1.428 . S
H5945 C5941 0.930 . S
H5946 C5943 0.929 . S
S5947 N5948 1.613 1_565 S
S5947 N5949 1.610 . S
N5948 S5947 1.613 1_545 S
N5948 C5951 1.350 . S
N5949 S5947 1.610 . S
N5949 C5950 1.351 . S
C5950 C5944 1.428 . S
C5950 N5949 1.351 . S
C5950 C5951 1.434 1_565 S
C5951 C5942 1.429 . S
C5951 N5948 1.350 . S
C5951 C5950 1.434 1_545 S
C5952 C5953 1.369 . S
C5952 C5954 1.419 . S
C5952 H5956 0.930 . S
C5953 C5952 1.369 . S
C5953 C5962 1.429 . S
C5954 C5952 1.419 . S
C5954 C5955 1.363 . S
C5954 H5957 0.929 . S
C5955 C5954 1.363 . S
C5955 C5961 1.428 . S
H5956 C5952 0.930 . S
H5957 C5954 0.929 . S
S5958 N5959 1.613 . S
S5958 N5960 1.610 . S
N5959 S5958 1.613 . S
N5959 C5962 1.350 . S
N5960 S5958 1.610 . S
N5960 C5961 1.351 . S
C5961 C5955 1.428 . S
C5961 N5960 1.351 . S
C5961 C5962 1.434 . S
C5962 C5953 1.429 . S
C5962 N5959 1.350 . S
C5962 C5961 1.434 . S
C5963 C5964 1.369 . S
C5963 C5965 1.419 . S
C5963 H5967 0.930 . S
C5964 C5963 1.369 . S
C5964 C5973 1.429 . S
C5965 C5963 1.419 . S
C5965 C5966 1.363 . S
C5965 H5968 0.929 . S
C5966 C5965 1.363 . S
C5966 C5972 1.428 . S
H5967 C5963 0.930 . S
H5968 C5965 0.929 . S
S5969 N5970 1.613 . S
S5969 N5971 1.610 . S
N5970 S5969 1.613 . S
N5970 C5973 1.350 . S
N5971 S5969 1.610 . S
N5971 C5972 1.351 . S
C5972 C5966 1.428 . S
C5972 N5971 1.351 . S
C5972 C5973 1.434 . S
C5973 C5964 1.429 . S
C5973 N5970 1.350 . S
C5973 C5972 1.434 . S
C5974 C5975 1.369 . S
C5974 C5976 1.419 . S
C5974 H5978 0.930 . S
C5975 C5974 1.369 . S
C5975 C5984 1.429 . S
C5976 C5974 1.419 . S
C5976 C5977 1.363 . S
C5976 H5979 0.929 . S
C5977 C5976 1.363 . S
C5977 C5983 1.428 . S
H5978 C5974 0.930 . S
H5979 C5976 0.929 . S
S5980 N5981 1.613 . S
S5980 N5982 1.610 . S
N5981 S5980 1.613 . S
N5981 C5984 1.350 . S
N5982 S5980 1.610 . S
N5982 C5983 1.351 . S
C5983 C5977 1.428 . S
C5983 N5982 1.351 . S
C5983 C5984 1.434 . S
C5984 C5975 1.429 . S
C5984 N5981 1.350 . S
C5984 C5983 1.434 . S
C5985 C5986 1.369 . S
C5985 C5987 1.419 . S
C5985 H5989 0.930 . S
C5986 C5985 1.369 . S
C5986 C5995 1.429 . S
C5987 C5985 1.419 . S
C5987 C5988 1.363 . S
C5987 H5990 0.929 . S
C5988 C5987 1.363 . S
C5988 C5994 1.428 . S
H5989 C5985 0.930 . S
H5990 C5987 0.929 . S
S5991 N5992 1.613 . S
S5991 N5993 1.610 . S
N5992 S5991 1.613 . S
N5992 C5995 1.350 . S
N5993 S5991 1.610 . S
N5993 C5994 1.351 . S
C5994 C5988 1.428 . S
C5994 N5993 1.351 . S
C5994 C5995 1.434 . S
C5995 C5986 1.429 . S
C5995 N5992 1.350 . S
C5995 C5994 1.434 . S
C5996 C5997 1.369 . S
C5996 C5998 1.419 . S
C5996 H6000 0.930 . S
C5997 C5996 1.369 . S
C5997 C6006 1.429 . S
C5998 C5996 1.419 . S
C5998 C5999 1.363 . S
C5998 H6001 0.929 . S
C5999 C5998 1.363 . S
C5999 C6005 1.428 . S
H6000 C5996 0.930 . S
H6001 C5998 0.929 . S
S6002 N6003 1.613 . S
S6002 N6004 1.610 . S
N6003 S6002 1.613 . S
N6003 C6006 1.350 . S
N6004 S6002 1.610 . S
N6004 C6005 1.351 . S
C6005 C5999 1.428 . S
C6005 N6004 1.351 . S
C6005 C6006 1.434 . S
C6006 C5997 1.429 . S
C6006 N6003 1.350 . S
C6006 C6005 1.434 . S
C6007 C6008 1.369 . S
C6007 C6009 1.419 . S
C6007 H6011 0.930 . S
C6008 C6007 1.369 . S
C6008 C6017 1.429 . S
C6009 C6007 1.419 . S
C6009 C6010 1.363 . S
C6009 H6012 0.929 . S
C6010 C6009 1.363 . S
C6010 C6016 1.428 . S
H6011 C6007 0.930 . S
H6012 C6009 0.929 . S
S6013 N6014 1.613 . S
S6013 N6015 1.610 . S
N6014 S6013 1.613 . S
N6014 C6017 1.350 . S
N6015 S6013 1.610 . S
N6015 C6016 1.351 . S
C6016 C6010 1.428 . S
C6016 N6015 1.351 . S
C6016 C6017 1.434 . S
C6017 C6008 1.429 . S
C6017 N6014 1.350 . S
C6017 C6016 1.434 . S
C6018 C6019 1.369 . S
C6018 C6020 1.419 . S
C6018 H6022 0.930 . S
C6019 C6018 1.369 . S
C6019 C6028 1.429 . S
C6020 C6018 1.419 . S
C6020 C6021 1.363 . S
C6020 H6023 0.929 . S
C6021 C6020 1.363 . S
C6021 C6027 1.428 . S
H6022 C6018 0.930 . S
H6023 C6020 0.929 . S
S6024 N6025 1.613 . S
S6024 N6026 1.610 . S
N6025 S6024 1.613 . S
N6025 C6028 1.350 . S
N6026 S6024 1.610 . S
N6026 C6027 1.351 . S
C6027 C6021 1.428 . S
C6027 N6026 1.351 . S
C6027 C6028 1.434 . S
C6028 C6019 1.429 . S
C6028 N6025 1.350 . S
C6028 C6027 1.434 . S
C6029 C6030 1.369 . S
C6029 C6031 1.419 . S
C6029 H6033 0.930 . S
C6030 C6029 1.369 . S
C6030 C6039 1.429 . S
C6031 C6029 1.419 . S
C6031 C6032 1.363 . S
C6031 H6034 0.929 . S
C6032 C6031 1.363 . S
C6032 C6038 1.428 . S
H6033 C6029 0.930 . S
H6034 C6031 0.929 . S
S6035 N6036 1.613 . S
S6035 N6037 1.610 . S
N6036 S6035 1.613 . S
N6036 C6039 1.350 . S
N6037 S6035 1.610 . S
N6037 C6038 1.351 . S
C6038 C6032 1.428 . S
C6038 N6037 1.351 . S
C6038 C6039 1.434 . S
C6039 C6030 1.429 . S
C6039 N6036 1.350 . S
C6039 C6038 1.434 . S
C6040 C6041 1.369 . S
C6040 C6042 1.419 . S
C6040 H6044 0.930 . S
C6041 C6040 1.369 . S
C6041 C6050 1.429 . S
C6042 C6040 1.419 . S
C6042 C6043 1.363 . S
C6042 H6045 0.929 . S
C6043 C6042 1.363 . S
C6043 C6049 1.428 . S
H6044 C6040 0.930 . S
H6045 C6042 0.929 . S
S6046 N6047 1.613 . S
S6046 N6048 1.610 . S
N6047 S6046 1.613 . S
N6047 C6050 1.350 . S
N6048 S6046 1.610 . S
N6048 C6049 1.351 . S
C6049 C6043 1.428 . S
C6049 N6048 1.351 . S
C6049 C6050 1.434 . S
C6050 C6041 1.429 . S
C6050 N6047 1.350 . S
C6050 C6049 1.434 . S
C6051 C6052 1.369 . S
C6051 C6053 1.419 . S
C6051 H6055 0.930 . S
C6052 C6051 1.369 . S
C6052 C6061 1.429 . S
C6053 C6051 1.419 . S
C6053 C6054 1.363 . S
C6053 H6056 0.929 . S
C6054 C6053 1.363 . S
C6054 C6060 1.428 . S
H6055 C6051 0.930 . S
H6056 C6053 0.929 . S
S6057 N6058 1.613 . S
S6057 N6059 1.610 . S
N6058 S6057 1.613 . S
N6058 C6061 1.350 . S
N6059 S6057 1.610 . S
N6059 C6060 1.351 . S
C6060 C6054 1.428 . S
C6060 N6059 1.351 . S
C6060 C6061 1.434 . S
C6061 C6052 1.429 . S
C6061 N6058 1.350 . S
C6061 C6060 1.434 . S
C6062 C6063 1.369 . S
C6062 C6064 1.419 . S
C6062 H6066 0.930 . S
C6063 C6062 1.369 . S
C6063 C6072 1.429 . S
C6064 C6062 1.419 . S
C6064 C6065 1.363 . S
C6064 H6067 0.929 . S
C6065 C6064 1.363 . S
C6065 C6071 1.428 . S
H6066 C6062 0.930 . S
H6067 C6064 0.929 . S
S6068 N6069 1.614 . S
S6068 N6070 1.611 . S
N6069 S6068 1.614 . S
N6069 C6072 1.350 . S
N6070 S6068 1.611 . S
N6070 C6071 1.351 . S
C6071 C6065 1.428 . S
C6071 N6070 1.351 . S
C6071 C6072 1.434 . S
C6072 C6063 1.429 . S
C6072 N6069 1.350 . S
C6072 C6071 1.434 . S
C6073 C6074 1.369 . S
C6073 C6075 1.419 . S
C6073 H6077 0.930 . S
C6074 C6073 1.369 . S
C6074 C6083 1.429 . S
C6075 C6073 1.419 . S
C6075 C6076 1.363 . S
C6075 H6078 0.929 . S
C6076 C6075 1.363 . S
C6076 C6082 1.428 . S
H6077 C6073 0.930 . S
H6078 C6075 0.929 . S
S6079 N6080 1.613 . S
S6079 N6081 1.610 . S
N6080 S6079 1.613 . S
N6080 C6083 1.350 . S
N6081 S6079 1.610 . S
N6081 C6082 1.351 . S
C6082 C6076 1.428 . S
C6082 N6081 1.351 . S
C6082 C6083 1.434 . S
C6083 C6074 1.429 . S
C6083 N6080 1.350 . S
C6083 C6082 1.434 . S
C6084 C6085 1.369 . S
C6084 C6086 1.419 . S
C6084 H6088 0.930 . S
C6085 C6084 1.369 . S
C6085 C6094 1.429 . S
C6086 C6084 1.419 . S
C6086 C6087 1.363 . S
C6086 H6089 0.929 . S
C6087 C6086 1.363 . S
C6087 C6093 1.428 . S
H6088 C6084 0.930 . S
H6089 C6086 0.929 . S
S6090 N6091 1.613 . S
S6090 N6092 1.610 . S
N6091 S6090 1.613 . S
N6091 C6094 1.350 . S
N6092 S6090 1.610 . S
N6092 C6093 1.351 . S
C6093 C6087 1.428 . S
C6093 N6092 1.351 . S
C6093 C6094 1.434 . S
C6094 C6085 1.429 . S
C6094 N6091 1.350 . S
C6094 C6093 1.434 . S
C6095 C6096 1.369 . S
C6095 C6097 1.419 . S
C6095 H6099 0.930 . S
C6096 C6095 1.369 . S
C6096 C6105 1.429 . S
C6097 C6095 1.419 . S
C6097 C6098 1.363 . S
C6097 H6100 0.929 . S
C6098 C6097 1.363 . S
C6098 C6104 1.428 . S
H6099 C6095 0.930 . S
H6100 C6097 0.929 . S
S6101 N6102 1.613 . S
S6101 N6103 1.610 . S
N6102 S6101 1.613 . S
N6102 C6105 1.350 . S
N6103 S6101 1.610 . S
N6103 C6104 1.351 . S
C6104 C6098 1.428 . S
C6104 N6103 1.351 . S
C6104 C6105 1.434 . S
C6105 C6096 1.429 . S
C6105 N6102 1.350 . S
C6105 C6104 1.434 . S
C6106 C6107 1.369 . S
C6106 C6108 1.419 . S
C6106 H6110 0.930 . S
C6107 C6106 1.369 . S
C6107 C6116 1.429 . S
C6108 C6106 1.419 . S
C6108 C6109 1.363 . S
C6108 H6111 0.929 . S
C6109 C6108 1.363 . S
C6109 C6115 1.428 . S
H6110 C6106 0.930 . S
H6111 C6108 0.929 . S
S6112 N6113 1.613 . S
S6112 N6114 1.610 . S
N6113 S6112 1.613 . S
N6113 C6116 1.350 . S
N6114 S6112 1.610 . S
N6114 C6115 1.351 . S
C6115 C6109 1.428 . S
C6115 N6114 1.351 . S
C6115 C6116 1.434 . S
C6116 C6107 1.429 . S
C6116 N6113 1.350 . S
C6116 C6115 1.434 . S
C6117 C6118 1.369 . S
C6117 C6119 1.419 . S
C6117 H6121 0.930 . S
C6118 C6117 1.369 . S
C6118 C6127 1.429 . S
C6119 C6117 1.419 . S
C6119 C6120 1.363 . S
C6119 H6122 0.929 . S
C6120 C6119 1.363 . S
C6120 C6126 1.428 . S
H6121 C6117 0.930 . S
H6122 C6119 0.929 . S
S6123 N6124 1.613 1_554 S
S6123 N6125 1.610 1_554 S
N6124 S6123 1.613 1_556 S
N6124 C6127 1.350 . S
N6125 S6123 1.610 1_556 S
N6125 C6126 1.351 . S
C6126 C6120 1.428 . S
C6126 N6125 1.351 . S
C6126 C6127 1.434 . S
C6127 C6118 1.429 . S
C6127 N6124 1.350 . S
C6127 C6126 1.434 . S
C6128 C6129 1.369 . S
C6128 C6130 1.419 . S
C6128 H6132 0.930 . S
C6129 C6128 1.369 . S
C6129 C6138 1.429 . S
C6130 C6128 1.419 . S
C6130 C6131 1.363 . S
C6130 H6133 0.929 . S
C6131 C6130 1.363 . S
C6131 C6137 1.428 . S
H6132 C6128 0.930 . S
H6133 C6130 0.929 . S
S6134 N6135 1.613 . S
S6134 N6136 1.610 . S
N6135 S6134 1.613 . S
N6135 C6138 1.350 . S
N6136 S6134 1.610 . S
N6136 C6137 1.351 . S
C6137 C6131 1.428 . S
C6137 N6136 1.351 . S
C6137 C6138 1.434 . S
C6138 C6129 1.429 . S
C6138 N6135 1.350 . S
C6138 C6137 1.434 . S
C6139 C6140 1.369 . S
C6139 C6141 1.419 . S
C6139 H6143 0.930 . S
C6140 C6139 1.369 . S
C6140 C6149 1.429 . S
C6141 C6139 1.419 . S
C6141 C6142 1.363 . S
C6141 H6144 0.929 . S
C6142 C6141 1.363 . S
C6142 C6148 1.428 . S
H6143 C6139 0.930 . S
H6144 C6141 0.929 . S
S6145 N6146 1.613 . S
S6145 N6147 1.610 . S
N6146 S6145 1.613 . S
N6146 C6149 1.350 . S
N6147 S6145 1.610 . S
N6147 C6148 1.351 . S
C6148 C6142 1.428 . S
C6148 N6147 1.351 . S
C6148 C6149 1.434 . S
C6149 C6140 1.429 . S
C6149 N6146 1.350 . S
C6149 C6148 1.434 . S
C6150 C6151 1.369 . S
C6150 C6152 1.419 . S
C6150 H6154 0.930 . S
C6151 C6150 1.369 . S
C6151 C6160 1.429 . S
C6152 C6150 1.419 . S
C6152 C6153 1.363 . S
C6152 H6155 0.929 . S
C6153 C6152 1.363 . S
C6153 C6159 1.428 . S
H6154 C6150 0.930 . S
H6155 C6152 0.929 . S
S6156 N6157 1.613 . S
S6156 N6158 1.610 . S
N6157 S6156 1.613 . S
N6157 C6160 1.350 . S
N6158 S6156 1.610 . S
N6158 C6159 1.351 . S
C6159 C6153 1.428 . S
C6159 N6158 1.351 . S
C6159 C6160 1.434 . S
C6160 C6151 1.429 . S
C6160 N6157 1.350 . S
C6160 C6159 1.434 . S
C6161 C6162 1.369 . S
C6161 C6163 1.419 . S
C6161 H6165 0.930 . S
C6162 C6161 1.369 . S
C6162 C6171 1.429 . S
C6163 C6161 1.419 . S
C6163 C6164 1.363 . S
C6163 H6166 0.929 . S
C6164 C6163 1.363 . S
C6164 C6170 1.428 . S
H6165 C6161 0.930 . S
H6166 C6163 0.929 . S
S6167 N6168 1.613 . S
S6167 N6169 1.610 . S
N6168 S6167 1.613 . S
N6168 C6171 1.350 . S
N6169 S6167 1.610 . S
N6169 C6170 1.351 . S
C6170 C6164 1.428 . S
C6170 N6169 1.351 . S
C6170 C6171 1.434 . S
C6171 C6162 1.429 . S
C6171 N6168 1.350 . S
C6171 C6170 1.434 . S
C6172 C6173 1.369 . S
C6172 C6174 1.419 . S
C6172 H6176 0.930 . S
C6173 C6172 1.369 . S
C6173 C6182 1.429 . S
C6174 C6172 1.419 . S
C6174 C6175 1.363 . S
C6174 H6177 0.929 . S
C6175 C6174 1.363 . S
C6175 C6181 1.428 . S
H6176 C6172 0.930 . S
H6177 C6174 0.929 . S
S6178 N6179 1.613 . S
S6178 N6180 1.610 . S
N6179 S6178 1.613 . S
N6179 C6182 1.350 . S
N6180 S6178 1.610 . S
N6180 C6181 1.351 . S
C6181 C6175 1.428 . S
C6181 N6180 1.351 . S
C6181 C6182 1.434 . S
C6182 C6173 1.429 . S
C6182 N6179 1.350 . S
C6182 C6181 1.434 . S
C6183 C6184 1.369 . S
C6183 C6185 1.419 . S
C6183 H6187 0.930 . S
C6184 C6183 1.369 . S
C6184 C6193 1.429 . S
C6185 C6183 1.419 . S
C6185 C6186 1.363 . S
C6185 H6188 0.929 . S
C6186 C6185 1.363 . S
C6186 C6192 1.428 . S
H6187 C6183 0.930 . S
H6188 C6185 0.929 . S
S6189 N6190 1.613 . S
S6189 N6191 1.610 . S
N6190 S6189 1.613 . S
N6190 C6193 1.350 . S
N6191 S6189 1.610 . S
N6191 C6192 1.351 . S
C6192 C6186 1.428 . S
C6192 N6191 1.351 . S
C6192 C6193 1.434 . S
C6193 C6184 1.429 . S
C6193 N6190 1.350 . S
C6193 C6192 1.434 . S
C6194 C6195 1.369 . S
C6194 C6196 1.419 . S
C6194 H6198 0.930 . S
C6195 C6194 1.369 . S
C6195 C6204 1.429 . S
C6196 C6194 1.419 . S
C6196 C6197 1.363 . S
C6196 H6199 0.929 . S
C6197 C6196 1.363 . S
C6197 C6203 1.428 . S
H6198 C6194 0.930 . S
H6199 C6196 0.929 . S
S6200 N6201 1.613 . S
S6200 N6202 1.610 . S
N6201 S6200 1.613 . S
N6201 C6204 1.350 . S
N6202 S6200 1.610 . S
N6202 C6203 1.351 . S
C6203 C6197 1.428 . S
C6203 N6202 1.351 . S
C6203 C6204 1.434 . S
C6204 C6195 1.429 . S
C6204 N6201 1.350 . S
C6204 C6203 1.434 . S
C6205 C6206 1.369 . S
C6205 C6207 1.419 . S
C6205 H6209 0.930 . S
C6206 C6205 1.369 . S
C6206 C6215 1.429 . S
C6207 C6205 1.419 . S
C6207 C6208 1.363 . S
C6207 H6210 0.929 . S
C6208 C6207 1.363 . S
C6208 C6214 1.428 . S
H6209 C6205 0.930 . S
H6210 C6207 0.929 . S
S6211 N6212 1.613 . S
S6211 N6213 1.610 . S
N6212 S6211 1.613 . S
N6212 C6215 1.350 . S
N6213 S6211 1.610 . S
N6213 C6214 1.351 . S
C6214 C6208 1.428 . S
C6214 N6213 1.351 . S
C6214 C6215 1.434 . S
C6215 C6206 1.429 . S
C6215 N6212 1.350 . S
C6215 C6214 1.434 . S
C6216 C6217 1.369 . S
C6216 C6218 1.419 . S
C6216 H6220 0.930 . S
C6217 C6216 1.369 . S
C6217 C6226 1.429 . S
C6218 C6216 1.419 . S
C6218 C6219 1.363 . S
C6218 H6221 0.929 . S
C6219 C6218 1.363 . S
C6219 C6225 1.428 . S
H6220 C6216 0.930 . S
H6221 C6218 0.929 . S
S6222 N6223 1.613 . S
S6222 N6224 1.610 . S
N6223 S6222 1.613 . S
N6223 C6226 1.350 . S
N6224 S6222 1.610 . S
N6224 C6225 1.351 . S
C6225 C6219 1.428 . S
C6225 N6224 1.351 . S
C6225 C6226 1.434 . S
C6226 C6217 1.429 . S
C6226 N6223 1.350 . S
C6226 C6225 1.434 . S
C6227 C6228 1.369 . S
C6227 C6229 1.419 . S
C6227 H6231 0.930 . S
C6228 C6227 1.369 . S
C6228 C6237 1.429 . S
C6229 C6227 1.419 . S
C6229 C6230 1.363 . S
C6229 H6232 0.929 . S
C6230 C6229 1.363 . S
C6230 C6236 1.428 . S
H6231 C6227 0.930 . S
H6232 C6229 0.929 . S
S6233 N6234 1.613 . S
S6233 N6235 1.610 . S
N6234 S6233 1.613 . S
N6234 C6237 1.350 . S
N6235 S6233 1.610 . S
N6235 C6236 1.351 . S
C6236 C6230 1.428 . S
C6236 N6235 1.351 . S
C6236 C6237 1.434 . S
C6237 C6228 1.429 . S
C6237 N6234 1.350 . S
C6237 C6236 1.434 . S
C6238 C6239 1.369 . S
C6238 C6240 1.419 . S
C6238 H6242 0.930 . S
C6239 C6238 1.369 . S
C6239 C6248 1.429 . S
C6240 C6238 1.419 . S
C6240 C6241 1.363 . S
C6240 H6243 0.929 . S
C6241 C6240 1.363 . S
C6241 C6247 1.428 . S
H6242 C6238 0.930 . S
H6243 C6240 0.929 . S
S6244 N6245 1.613 . S
S6244 N6246 1.610 . S
N6245 S6244 1.613 . S
N6245 C6248 1.350 . S
N6246 S6244 1.610 . S
N6246 C6247 1.351 . S
C6247 C6241 1.428 . S
C6247 N6246 1.351 . S
C6247 C6248 1.434 . S
C6248 C6239 1.429 . S
C6248 N6245 1.350 . S
C6248 C6247 1.434 . S
C6249 C6250 1.369 . S
C6249 C6251 1.419 . S
C6249 H6253 0.930 . S
C6250 C6249 1.369 . S
C6250 C6259 1.429 . S
C6251 C6249 1.419 . S
C6251 C6252 1.363 . S
C6251 H6254 0.929 . S
C6252 C6251 1.363 . S
C6252 C6258 1.428 . S
H6253 C6249 0.930 . S
H6254 C6251 0.929 . S
S6255 N6256 1.613 . S
S6255 N6257 1.610 . S
N6256 S6255 1.613 . S
N6256 C6259 1.350 . S
N6257 S6255 1.610 . S
N6257 C6258 1.351 . S
C6258 C6252 1.428 . S
C6258 N6257 1.351 . S
C6258 C6259 1.434 . S
C6259 C6250 1.429 . S
C6259 N6256 1.350 . S
C6259 C6258 1.434 . S
C6260 C6261 1.369 . S
C6260 C6262 1.419 . S
C6260 H6264 0.930 . S
C6261 C6260 1.369 . S
C6261 C6270 1.429 . S
C6262 C6260 1.419 . S
C6262 C6263 1.363 . S
C6262 H6265 0.929 . S
C6263 C6262 1.363 . S
C6263 C6269 1.428 . S
H6264 C6260 0.930 . S
H6265 C6262 0.929 . S
S6266 N6267 1.613 . S
S6266 N6268 1.610 . S
N6267 S6266 1.613 . S
N6267 C6270 1.350 . S
N6268 S6266 1.610 . S
N6268 C6269 1.351 . S
C6269 C6263 1.428 . S
C6269 N6268 1.351 . S
C6269 C6270 1.434 . S
C6270 C6261 1.429 . S
C6270 N6267 1.350 . S
C6270 C6269 1.434 . S
C6271 C6272 1.369 . S
C6271 C6273 1.419 . S
C6271 H6275 0.930 . S
C6272 C6271 1.369 . S
C6272 C6281 1.429 . S
C6273 C6271 1.419 . S
C6273 C6274 1.363 . S
C6273 H6276 0.929 . S
C6274 C6273 1.363 . S
C6274 C6280 1.428 . S
H6275 C6271 0.930 . S
H6276 C6273 0.929 . S
S6277 N6278 1.613 . S
S6277 N6279 1.610 . S
N6278 S6277 1.613 . S
N6278 C6281 1.350 . S
N6279 S6277 1.610 . S
N6279 C6280 1.351 . S
C6280 C6274 1.428 . S
C6280 N6279 1.351 . S
C6280 C6281 1.434 . S
C6281 C6272 1.429 . S
C6281 N6278 1.350 . S
C6281 C6280 1.434 . S
C6282 C6283 1.369 . S
C6282 C6284 1.419 . S
C6282 H6286 0.930 . S
C6283 C6282 1.369 . S
C6283 C6292 1.429 . S
C6284 C6282 1.419 . S
C6284 C6285 1.363 . S
C6284 H6287 0.929 . S
C6285 C6284 1.363 . S
C6285 C6291 1.428 . S
H6286 C6282 0.930 . S
H6287 C6284 0.929 . S
S6288 N6289 1.613 . S
S6288 N6290 1.610 . S
N6289 S6288 1.613 . S
N6289 C6292 1.350 . S
N6290 S6288 1.610 . S
N6290 C6291 1.351 . S
C6291 C6285 1.428 . S
C6291 N6290 1.351 . S
C6291 C6292 1.434 . S
C6292 C6283 1.429 . S
C6292 N6289 1.350 . S
C6292 C6291 1.434 . S
C6293 C6294 1.369 . S
C6293 C6295 1.419 . S
C6293 H6297 0.930 . S
C6294 C6293 1.369 . S
C6294 C6303 1.429 . S
C6295 C6293 1.419 . S
C6295 C6296 1.363 . S
C6295 H6298 0.929 . S
C6296 C6295 1.363 . S
C6296 C6302 1.428 . S
H6297 C6293 0.930 . S
H6298 C6295 0.929 . S
S6299 N6300 1.613 . S
S6299 N6301 1.610 . S
N6300 S6299 1.613 . S
N6300 C6303 1.350 . S
N6301 S6299 1.610 . S
N6301 C6302 1.351 . S
C6302 C6296 1.428 . S
C6302 N6301 1.351 . S
C6302 C6303 1.434 . S
C6303 C6294 1.429 . S
C6303 N6300 1.350 . S
C6303 C6302 1.434 . S
C6304 C6305 1.369 . S
C6304 C6306 1.419 . S
C6304 H6308 0.930 . S
C6305 C6304 1.369 . S
C6305 C6314 1.429 . S
C6306 C6304 1.419 . S
C6306 C6307 1.363 . S
C6306 H6309 0.929 . S
C6307 C6306 1.363 . S
C6307 C6313 1.428 . S
H6308 C6304 0.930 . S
H6309 C6306 0.929 . S
S6310 N6311 1.613 . S
S6310 N6312 1.610 . S
N6311 S6310 1.613 . S
N6311 C6314 1.350 . S
N6312 S6310 1.610 . S
N6312 C6313 1.351 . S
C6313 C6307 1.428 . S
C6313 N6312 1.351 . S
C6313 C6314 1.434 . S
C6314 C6305 1.429 . S
C6314 N6311 1.350 . S
C6314 C6313 1.434 . S
C6315 C6316 1.369 . S
C6315 C6317 1.419 . S
C6315 H6319 0.930 . S
C6316 C6315 1.369 . S
C6316 C6325 1.429 . S
C6317 C6315 1.419 . S
C6317 C6318 1.363 . S
C6317 H6320 0.929 . S
C6318 C6317 1.363 . S
C6318 C6324 1.428 . S
H6319 C6315 0.930 . S
H6320 C6317 0.929 . S
S6321 N6322 1.613 . S
S6321 N6323 1.610 . S
N6322 S6321 1.613 . S
N6322 C6325 1.350 . S
N6323 S6321 1.610 . S
N6323 C6324 1.351 . S
C6324 C6318 1.428 . S
C6324 N6323 1.351 . S
C6324 C6325 1.434 . S
C6325 C6316 1.429 . S
C6325 N6322 1.350 . S
C6325 C6324 1.434 . S
C6326 C6327 1.369 . S
C6326 C6328 1.419 . S
C6326 H6330 0.930 . S
C6327 C6326 1.369 . S
C6327 C6336 1.429 . S
C6328 C6326 1.419 . S
C6328 C6329 1.363 . S
C6328 H6331 0.929 . S
C6329 C6328 1.363 . S
C6329 C6335 1.428 . S
H6330 C6326 0.930 . S
H6331 C6328 0.929 . S
S6332 N6333 1.613 . S
S6332 N6334 1.610 . S
N6333 S6332 1.613 . S
N6333 C6336 1.350 . S
N6334 S6332 1.610 . S
N6334 C6335 1.351 . S
C6335 C6329 1.428 . S
C6335 N6334 1.351 . S
C6335 C6336 1.434 . S
C6336 C6327 1.429 . S
C6336 N6333 1.350 . S
C6336 C6335 1.434 . S
C6337 C6338 1.369 . S
C6337 C6339 1.419 . S
C6337 H6341 0.930 . S
C6338 C6337 1.369 . S
C6338 C6347 1.429 . S
C6339 C6337 1.419 . S
C6339 C6340 1.363 . S
C6339 H6342 0.929 . S
C6340 C6339 1.363 . S
C6340 C6346 1.428 . S
H6341 C6337 0.930 . S
H6342 C6339 0.929 . S
S6343 N6344 1.613 . S
S6343 N6345 1.610 . S
N6344 S6343 1.613 . S
N6344 C6347 1.350 . S
N6345 S6343 1.610 . S
N6345 C6346 1.351 . S
C6346 C6340 1.428 . S
C6346 N6345 1.351 . S
C6346 C6347 1.434 . S
C6347 C6338 1.429 . S
C6347 N6344 1.350 . S
C6347 C6346 1.434 . S
C6348 C6349 1.369 . S
C6348 C6350 1.419 . S
C6348 H6352 0.930 . S
C6349 C6348 1.369 . S
C6349 C6358 1.429 . S
C6350 C6348 1.419 . S
C6350 C6351 1.363 . S
C6350 H6353 0.929 . S
C6351 C6350 1.363 . S
C6351 C6357 1.428 . S
H6352 C6348 0.930 . S
H6353 C6350 0.929 . S
S6354 N6355 1.613 . S
S6354 N6356 1.610 . S
N6355 S6354 1.613 . S
N6355 C6358 1.350 . S
N6356 S6354 1.610 . S
N6356 C6357 1.351 . S
C6357 C6351 1.428 . S
C6357 N6356 1.351 . S
C6357 C6358 1.434 . S
C6358 C6349 1.429 . S
C6358 N6355 1.350 . S
C6358 C6357 1.434 . S
C6359 C6360 1.369 . S
C6359 C6361 1.419 . S
C6359 H6363 0.930 . S
C6360 C6359 1.369 . S
C6360 C6369 1.429 . S
C6361 C6359 1.419 . S
C6361 C6362 1.363 . S
C6361 H6364 0.929 . S
C6362 C6361 1.363 . S
C6362 C6368 1.428 . S
H6363 C6359 0.930 . S
H6364 C6361 0.929 . S
S6365 N6366 1.613 . S
S6365 N6367 1.610 . S
N6366 S6365 1.613 . S
N6366 C6369 1.350 . S
N6367 S6365 1.610 . S
N6367 C6368 1.351 . S
C6368 C6362 1.428 . S
C6368 N6367 1.351 . S
C6368 C6369 1.434 . S
C6369 C6360 1.429 . S
C6369 N6366 1.350 . S
C6369 C6368 1.434 . S
C6370 C6371 1.369 . S
C6370 C6372 1.419 . S
C6370 H6374 0.930 . S
C6371 C6370 1.369 . S
C6371 C6380 1.429 . S
C6372 C6370 1.419 . S
C6372 C6373 1.363 . S
C6372 H6375 0.929 . S
C6373 C6372 1.363 . S
C6373 C6379 1.428 . S
H6374 C6370 0.930 . S
H6375 C6372 0.929 . S
S6376 N6377 1.613 . S
S6376 N6378 1.610 . S
N6377 S6376 1.613 . S
N6377 C6380 1.350 . S
N6378 S6376 1.610 . S
N6378 C6379 1.351 . S
C6379 C6373 1.428 . S
C6379 N6378 1.351 . S
C6379 C6380 1.434 . S
C6380 C6371 1.429 . S
C6380 N6377 1.350 . S
C6380 C6379 1.434 . S
C6381 C6382 1.369 . S
C6381 C6383 1.419 . S
C6381 H6385 0.930 . S
C6382 C6381 1.369 . S
C6382 C6391 1.429 . S
C6383 C6381 1.419 . S
C6383 C6384 1.363 . S
C6383 H6386 0.929 . S
C6384 C6383 1.363 . S
C6384 C6390 1.428 . S
H6385 C6381 0.930 . S
H6386 C6383 0.929 . S
S6387 N6388 1.613 . S
S6387 N6389 1.610 . S
N6388 S6387 1.613 . S
N6388 C6391 1.350 . S
N6389 S6387 1.610 . S
N6389 C6390 1.351 . S
C6390 C6384 1.428 . S
C6390 N6389 1.351 . S
C6390 C6391 1.434 . S
C6391 C6382 1.429 . S
C6391 N6388 1.350 . S
C6391 C6390 1.434 . S
C6392 C6393 1.369 . S
C6392 C6394 1.419 . S
C6392 H6396 0.930 . S
C6393 C6392 1.369 . S
C6393 C6402 1.429 . S
C6394 C6392 1.419 . S
C6394 C6395 1.363 . S
C6394 H6397 0.929 . S
C6395 C6394 1.363 . S
C6395 C6401 1.428 . S
H6396 C6392 0.930 . S
H6397 C6394 0.929 . S
S6398 N6399 1.613 . S
S6398 N6400 1.610 . S
N6399 S6398 1.613 . S
N6399 C6402 1.350 . S
N6400 S6398 1.610 . S
N6400 C6401 1.351 . S
C6401 C6395 1.428 . S
C6401 N6400 1.351 . S
C6401 C6402 1.434 . S
C6402 C6393 1.429 . S
C6402 N6399 1.350 . S
C6402 C6401 1.434 . S
C6403 C6404 1.369 . S
C6403 C6405 1.419 . S
C6403 H6407 0.930 . S
C6404 C6403 1.369 . S
C6404 C6413 1.429 . S
C6405 C6403 1.419 . S
C6405 C6406 1.363 . S
C6405 H6408 0.929 . S
C6406 C6405 1.363 . S
C6406 C6412 1.428 . S
H6407 C6403 0.930 . S
H6408 C6405 0.929 . S
S6409 N6410 1.613 . S
S6409 N6411 1.610 . S
N6410 S6409 1.613 . S
N6410 C6413 1.350 . S
N6411 S6409 1.610 . S
N6411 C6412 1.351 . S
C6412 C6406 1.428 . S
C6412 N6411 1.351 . S
C6412 C6413 1.434 . S
C6413 C6404 1.429 . S
C6413 N6410 1.350 . S
C6413 C6412 1.434 . S
C6414 C6415 1.369 . S
C6414 C6416 1.419 . S
C6414 H6418 0.930 . S
C6415 C6414 1.369 . S
C6415 C6424 1.429 . S
C6416 C6414 1.419 . S
C6416 C6417 1.363 . S
C6416 H6419 0.929 . S
C6417 C6416 1.363 . S
C6417 C6423 1.428 . S
H6418 C6414 0.930 . S
H6419 C6416 0.929 . S
S6420 N6421 1.613 . S
S6420 N6422 1.610 . S
N6421 S6420 1.613 . S
N6421 C6424 1.350 . S
N6422 S6420 1.610 . S
N6422 C6423 1.351 . S
C6423 C6417 1.428 . S
C6423 N6422 1.351 . S
C6423 C6424 1.434 . S
C6424 C6415 1.429 . S
C6424 N6421 1.350 . S
C6424 C6423 1.434 . S
C6425 C6426 1.369 . S
C6425 C6427 1.419 . S
C6425 H6429 0.930 . S
C6426 C6425 1.369 . S
C6426 C6435 1.429 . S
C6427 C6425 1.419 . S
C6427 C6428 1.363 . S
C6427 H6430 0.929 . S
C6428 C6427 1.363 . S
C6428 C6434 1.428 . S
H6429 C6425 0.930 . S
H6430 C6427 0.929 . S
S6431 N6432 1.613 . S
S6431 N6433 1.610 . S
N6432 S6431 1.613 . S
N6432 C6435 1.350 . S
N6433 S6431 1.610 . S
N6433 C6434 1.351 . S
C6434 C6428 1.428 . S
C6434 N6433 1.351 . S
C6434 C6435 1.434 . S
C6435 C6426 1.429 . S
C6435 N6432 1.350 . S
C6435 C6434 1.434 . S
C6436 C6437 1.369 . S
C6436 C6438 1.419 . S
C6436 H6440 0.930 . S
C6437 C6436 1.369 . S
C6437 C6446 1.429 . S
C6438 C6436 1.419 . S
C6438 C6439 1.363 . S
C6438 H6441 0.929 . S
C6439 C6438 1.363 . S
C6439 C6445 1.428 . S
H6440 C6436 0.930 . S
H6441 C6438 0.929 . S
S6442 N6443 1.613 . S
S6442 N6444 1.610 . S
N6443 S6442 1.613 . S
N6443 C6446 1.350 . S
N6444 S6442 1.610 . S
N6444 C6445 1.351 . S
C6445 C6439 1.428 . S
C6445 N6444 1.351 . S
C6445 C6446 1.434 . S
C6446 C6437 1.429 . S
C6446 N6443 1.350 . S
C6446 C6445 1.434 . S
C6447 C6448 1.369 . S
C6447 C6449 1.419 . S
C6447 H6451 0.930 . S
C6448 C6447 1.369 . S
C6448 C6457 1.429 . S
C6449 C6447 1.419 . S
C6449 C6450 1.363 . S
C6449 H6452 0.929 . S
C6450 C6449 1.363 . S
C6450 C6456 1.428 . S
H6451 C6447 0.930 . S
H6452 C6449 0.929 . S
S6453 N6454 1.613 . S
S6453 N6455 1.610 . S
N6454 S6453 1.613 . S
N6454 C6457 1.350 . S
N6455 S6453 1.610 . S
N6455 C6456 1.351 . S
C6456 C6450 1.428 . S
C6456 N6455 1.351 . S
C6456 C6457 1.434 . S
C6457 C6448 1.429 . S
C6457 N6454 1.350 . S
C6457 C6456 1.434 . S
C6458 C6459 1.369 . S
C6458 C6460 1.419 . S
C6458 H6462 0.930 . S
C6459 C6458 1.369 . S
C6459 C6468 1.429 . S
C6460 C6458 1.419 . S
C6460 C6461 1.363 . S
C6460 H6463 0.929 . S
C6461 C6460 1.363 . S
C6461 C6467 1.428 . S
H6462 C6458 0.930 . S
H6463 C6460 0.929 . S
S6464 N6465 1.613 . S
S6464 N6466 1.610 . S
N6465 S6464 1.613 . S
N6465 C6468 1.350 . S
N6466 S6464 1.610 . S
N6466 C6467 1.351 . S
C6467 C6461 1.428 . S
C6467 N6466 1.351 . S
C6467 C6468 1.434 . S
C6468 C6459 1.429 . S
C6468 N6465 1.350 . S
C6468 C6467 1.434 . S
C6469 C6470 1.369 . S
C6469 C6471 1.419 . S
C6469 H6473 0.930 . S
C6470 C6469 1.369 . S
C6470 C6479 1.429 . S
C6471 C6469 1.419 . S
C6471 C6472 1.363 . S
C6471 H6474 0.929 . S
C6472 C6471 1.363 . S
C6472 C6478 1.428 . S
H6473 C6469 0.930 . S
H6474 C6471 0.929 . S
S6475 N6476 1.613 . S
S6475 N6477 1.610 . S
N6476 S6475 1.613 . S
N6476 C6479 1.350 . S
N6477 S6475 1.610 . S
N6477 C6478 1.351 . S
C6478 C6472 1.428 . S
C6478 N6477 1.351 . S
C6478 C6479 1.434 . S
C6479 C6470 1.429 . S
C6479 N6476 1.350 . S
C6479 C6478 1.434 . S
C2785 C15 2.295 . S
C2787 C2507 1.917 . S
C2796 C44 2.200 . S
C2798 C1144 1.817 . S
C2807 C73 2.341 . S
C2809 C2449 1.963 . S
C2818 C1086 1.893 . S
C2820 C102 2.269 . S
C2829 C131 2.301 . S
C2831 C2391 1.945 . S
C2840 C1028 1.810 . S
C2842 C160 2.114 . S
C2851 C2333 1.884 . S
C2853 C189 2.260 . S
C2862 C218 2.242 . S
C2864 C970 1.870 . S
C2873 C247 2.286 . S
C2875 C1318 1.917 . S
C2884 C1347 1.924 . S
C2886 C276 2.286 . S
C2895 C1173 1.874 . S
C2897 C305 2.259 . S
C2906 C334 2.377 . S
C2908 C1373 2.530 . S
C2917 C363 2.253 . S
C2919 C2652 1.884 . S
C2928 C392 2.248 . S
C2930 C2681 1.879 . S
C2939 C421 2.336 . S
C2941 C2594 1.957 . S
C2950 C450 2.229 . S
C2952 C1231 1.866 . S
C2961 C479 2.309 . S
C2963 C2217 1.939 . S
C2972 C508 2.230 . S
C2974 C709 1.864 . S
C2983 C2130 1.926 . S
C2985 C537 2.294 . S
C2994 C767 1.921 . S
C2996 C566 2.284 . S
C3005 C595 2.277 . S
C3007 C796 1.899 . S
C3016 C2275 1.913 . S
C3018 C624 2.295 . S
C3027 C2304 1.810 . S
C3029 C653 2.182 . S
C3038 C2246 2.093 . S
C3040 C682 2.488 . S
C3049 C1811 1.881 . S
C3051 C711 2.267 . S
C3060 C448 1.880 . S
C3062 C740 2.261 . S
C3071 C769 2.225 . S
C3073 C1753 1.863 . S
C3082 C798 2.228 . S
C3084 C390 1.862 . S
C3093 C1695 1.923 . S
C3095 C827 2.285 . S
C3104 C332 1.668 . S
C3106 C856 1.954 . S
C3115 C885 2.255 . S
C3117 C1637 1.892 . S
C3126 C274 1.878 . S
C3128 C914 2.261 . S
C3137 C943 2.249 . S
C3139 C622 1.882 . S
C3148 C651 1.910 . S
C3150 C972 2.289 . S
C3159 C1001 2.267 . S
C3161 C477 1.899 . S
C3170 C1030 2.062 . S
C3172 C680 1.729 . S
C3181 C1956 2.108 . S
C3183 C1059 2.494 1_455 S
C3192 C1088 2.194 . S
C3194 C1985 1.826 . S
C3203 C1898 1.939 . S
C3205 C1117 2.310 . S
C3214 C535 1.884 . S
C3216 C1146 2.243 . S
C3225 C1521 1.963 . S
C3227 C1175 2.352 . S
C3236 C1204 2.218 . S
C3238 C13 1.842 . S
C3247 C1233 2.262 . S
C3249 C1434 1.900 . S
C3258 C1262 2.317 . S
C3260 C71 1.943 . S
C3269 C100 1.713 . S
C3271 C1291 2.091 . S
C3280 C1579 1.914 . S
C3282 C1320 2.293 . S
C3291 C1349 2.203 . S
C3293 C1608 1.823 . S
C3302 C1550 2.212 . S
C3304 C1376 2.181 . S
C3313 C1115 1.859 . S
C3315 C1407 2.258 . S
C3324 C1436 2.204 . S
C3326 C2536 1.833 . S
C3335 C1465 2.357 . S
C3337 C1057 1.952 . S
C3346 C2478 1.904 . S
C3348 C1494 2.268 . S
C3357 C999 1.915 . S
C3359 C1523 2.288 . S
C3368 C2420 1.801 . S
C3370 C1552 2.113 . S
C3379 C1581 2.278 . S
C3381 C941 1.917 . S
C3390 C2362 1.864 . S
C3392 C1610 2.242 . S
C3401 C1639 2.251 . S
C3403 C2710 1.864 . S
C3412 C2739 1.915 . S
C3414 C1668 2.291 . S
C3423 C2565 1.865 . S
C3425 C1697 2.229 . S
C3434 C2765 2.533 . S
C3436 C1726 2.385 . S
C3445 C1260 1.849 . S
C3447 C1755 2.217 . S
C3456 C1289 1.854 . S
C3458 C1784 2.220 . S
C3467 C1202 1.934 . S
C3469 C1813 2.313 . S
C3478 C2623 1.863 . S
C3480 C1842 2.225 . S
C3489 C825 1.902 . S
C3491 C1871 2.295 . S
C3500 C2101 1.859 . S
C3502 C1900 2.224 . S
C3511 C738 1.939 . S
C3513 C1929 2.299 . S
C3522 C1958 2.315 . S
C3524 C2159 1.944 . S
C3533 C2188 1.902 . S
C3535 C1987 2.294 . S
C3544 C2016 2.318 . S
C3546 C883 1.950 . S
C3555 C912 1.787 . S
C3557 C2045 2.174 . S
C3566 C854 2.096 . S
C3568 C2074 2.498 . S
C3577 C419 1.815 . S
C3579 C2103 2.196 . S
C3588 C2132 2.272 . S
C3590 C1840 1.892 . S
C3599 C361 1.895 . S
C3601 C2161 2.265 . S
C3610 C2190 2.224 . S
C3612 C1782 1.867 . S
C3621 C2219 2.270 . S
C3623 C303 1.888 . S
C3632 C2248 1.943 . S
C3634 C1724 1.651 . S
C3643 C2277 2.274 . S
C3645 C245 1.896 . S
C3654 C2306 2.253 . S
C3656 C1666 1.887 . S
C3665 C2335 2.218 . S
C3667 C2014 1.826 . S
C3676 C2364 2.288 . S
C3678 C2043 1.914 . S
C3687 C2393 2.251 . S
C3689 C1869 1.881 . S
C3698 C2422 2.072 . S
C3700 C2072 1.722 . S
C3709 C564 2.078 . S
C3711 C2451 2.460 . S
C3720 C593 1.815 . S
C3722 C2480 2.175 . S
C3731 C2509 2.290 . S
C3733 C506 1.907 . S
C3742 C2538 2.242 . S
C3744 C1927 1.885 . S
C3753 C2567 2.318 . S
C3755 C129 1.927 . S
C3764 C2596 2.202 . S
C3766 C1405 1.843 . S
C3775 C2625 2.253 . S
C3777 C42 1.896 . S
C3786 C1463 1.993 . S
C3788 C2654 2.363 . S
C3797 C2683 2.089 . S
C3799 C1492 1.721 . S
C3808 C2712 2.327 . S
C3810 C187 1.951 . S
C3819 C216 1.815 . S
C3821 C2741 2.197 . S
C3830 C2768 2.200 . S
C3832 C158 2.228 . S
C3841 C503 1.178 . S
C3843 C8 1.318 . S
C3852 C37 1.154 . S
C3854 C532 1.039 . S
C3863 C561 1.089 . S
C3865 C66 1.198 . S
C3874 C1982 1.086 . S
C3876 C95 1.212 . S
C3885 C1866 1.121 . S
C3887 C124 1.241 . S
C3896 C153 1.567 . S
C3898 C677 1.433 . S
C3907 C182 1.170 . S
C3909 C2011 1.057 . S
C3918 C211 1.218 . S
C3920 C648 1.089 . S
C3929 C1576 1.179 . S
C3931 C240 1.305 . S
C3940 C269 1.215 . S
C3942 C1605 1.084 . S
C3951 C1518 1.064 . S
C3953 C298 1.200 . S
C3962 C1547 1.438 . S
C3964 C327 1.566 . S
C3973 C356 1.332 . S
C3975 C1460 1.213 . S
C3984 C1489 1.039 . S
C3986 C385 1.184 . S
C3995 C1402 1.096 . S
C3997 C414 1.229 . S
C4006 C443 1.250 . S
C4008 C1431 1.097 . S
C4017 C300 1.176 . S
C4019 C472 1.311 . S
C4028 C1808 1.088 . S
C4030 C501 1.208 . S
C4039 C1837 1.143 . S
C4041 C530 1.271 . S
C4050 C559 1.200 . S
C4052 C1750 1.078 . S
C4061 C588 1.227 . S
C4063 C387 1.099 . S
C4072 C617 1.259 . S
C4074 C242 1.118 . S
C4083 C1663 1.040 . S
C4085 C646 1.176 . S
C4094 C675 1.291 . S
C4096 C1721 1.101 . S
C4105 C1199 1.158 . S
C4107 C704 1.299 . S
C4116 C733 1.191 . S
C4118 C1228 1.053 . S
C4127 C1257 1.137 . S
C4129 C762 1.281 . S
C4138 C2678 1.157 . S
C4140 C791 1.303 . S
C4149 C2562 1.072 . S
C4151 C820 1.213 . S
C4160 C849 0.414 . S
C4162 C1371 0.735 . S
C4171 C878 1.150 . S
C4173 C2707 1.033 . S
C4182 C907 1.182 . S
C4184 C1344 1.041 . S
C4193 C936 1.317 . S
C4195 C2272 1.200 . S
C4204 C2301 1.028 . S
C4206 C965 1.142 . S
C4215 C2214 1.084 . S
C4217 C994 1.211 . S
C4226 C2243 1.604 . S
C4228 C1023 1.731 . S
C4237 C2156 1.302 . S
C4239 C1052 1.457 . S
C4248 C2185 1.036 . S
C4250 C1081 1.152 . S
C4259 C1110 1.249 . S
C4261 C2098 1.105 . S
C4270 C1139 1.219 . S
C4272 C2127 1.091 . S
C4281 C1168 1.284 . S
C4283 C996 1.169 . S
C4292 C2504 1.057 . S
C4294 C1197 1.197 . S
C4303 C2533 1.091 . S
C4305 C1226 1.205 . S
C4314 C2446 1.084 . S
C4316 C1255 1.186 . S
C4325 C1083 1.005 . S
C4327 C1284 1.126 . S
C4336 C1313 1.283 . S
C4338 C938 1.132 . S
C4347 C2359 1.031 . S
C4349 C1342 1.148 . S
C4358 C1378 1.689 . S
C4360 C2417 1.935 . S
C4369 C1400 1.237 . S
C4371 C1895 1.115 . S
C4380 C1924 1.017 . S
C4382 C1429 1.155 . S
C4391 C1953 1.107 . S
C4393 C1458 1.229 . S
C4402 C590 1.081 . S
C4404 C1487 1.231 . S
C4413 C1516 1.209 . S
C4415 C474 1.093 . S
C4424 C2069 1.445 . S
C4426 C1545 1.576 . S
C4435 C619 1.102 . S
C4437 C1574 1.237 . S
C4446 C1603 1.211 . S
C4448 C2040 1.084 . S
C4457 C184 1.105 . S
C4459 C1632 1.257 . S
C4468 C213 1.097 . S
C4470 C1661 1.240 . S
C4479 C126 1.012 . S
C4481 C1690 1.146 . S
C4490 C155 1.436 . S
C4492 C1719 1.562 . S
C4501 C68 1.142 . S
C4503 C1748 1.262 . S
C4512 C1777 1.185 . S
C4514 C97 1.044 . S
C4523 C1806 1.217 . S
C4525 C10 1.075 . S
C4534 C1835 1.242 . S
C4536 C39 1.111 . S
C4545 C1864 1.276 . S
C4547 C1692 1.142 . S
C4556 C416 1.032 . S
C4558 C1893 1.148 . S
C4567 C445 1.142 . S
C4569 C1922 1.291 . S
C4578 C358 1.133 . S
C4580 C1951 1.256 . S
C4589 C1980 1.242 . S
C4591 C1779 1.109 . S
C4600 C1634 1.147 . S
C4602 C2009 1.293 . S
C4611 C2038 1.169 . S
C4613 C271 1.050 . S
C4622 C329 1.123 . S
C4624 C2067 1.291 . S
C4633 C2591 1.067 . S
C4635 C2096 1.201 . S
C4644 C2620 1.055 . S
C4646 C2125 1.182 . S
C4655 C2649 1.206 . S
C4657 C2154 1.333 . S
C4666 C1286 1.161 . S
C4668 C2183 1.311 . S
C4677 C2212 1.197 . S
C4679 C1170 1.081 . S
C4688 C2763 0.731 . S
C4690 C2241 0.414 . S
C4699 C1315 1.090 . S
C4701 C2270 1.203 . S
C4710 C2736 1.042 . S
C4712 C2299 1.180 . S
C4721 C2328 1.275 . S
C4723 C880 1.147 . S
C4732 C2357 1.159 . S
C4734 C909 1.042 . S
C4743 C2386 1.154 . S
C4745 C822 1.024 . S
C4754 C851 1.618 . S
C4756 C2415 1.734 . S
C4765 C2444 1.386 . S
C4767 C764 1.231 . S
C4776 C793 1.023 . S
C4778 C2473 1.161 . S
C4787 C2502 1.224 . S
C4789 C706 1.085 . S
C4798 C2531 1.221 . S
C4800 C735 1.087 . S
C4809 C2560 1.242 . S
C4811 C2388 1.114 . S
C4820 C2589 1.161 . S
C4822 C1112 1.028 . S
C4831 C1141 1.088 . S
C4833 C2618 1.213 . S
C4842 C1054 1.182 . S
C4844 C2647 1.276 . S
C4853 C2475 1.010 . S
C4855 C2676 1.131 . S
C4864 C2330 1.168 . S
C4866 C2705 1.323 . S
C4875 C2734 1.158 . S
C4877 C967 1.036 . S
C4886 C1025 1.929 . S
C4888 C2770 1.700 . S
C4897 C224 0.762 . S
C4899 C21 0.773 . S
C4908 C137 0.781 . S
C4910 C50 0.801 . S
C4919 C166 1.000 . S
C4921 C79 0.985 . S
C4930 C195 0.762 . S
C4932 C108 0.749 . S
C4941 C601 0.759 . S
C4943 C253 0.780 . S
C4952 C1906 0.786 . S
C4954 C282 0.776 . S
C4963 C1935 0.779 . S
C4965 C311 0.805 . S
C4974 C340 0.961 . S
C4976 C1964 0.964 . S
C4985 C369 0.704 . S
C4987 C2080 0.698 . S
C4996 C630 0.744 . S
C4998 C398 0.751 . S
C5007 C2051 0.797 . S
C5009 C427 0.787 . S
C5018 C485 0.805 . S
C5020 C456 0.797 . S
C5029 C1674 0.771 . S
C5031 C514 0.772 . S
C5040 C1703 0.795 . S
C5042 C543 0.773 . S
C5051 C1732 0.936 . S
C5053 C572 0.944 . S
C5062 C1819 0.755 . S
C5064 C659 0.769 . S
C5073 C688 0.674 . S
C5075 C1761 0.692 . S
C5084 C717 0.809 . S
C5086 C920 0.815 . S
C5095 C833 0.808 . S
C5097 C746 0.827 . S
C5106 C862 0.748 . S
C5108 C775 0.758 . S
C5117 C804 0.773 . S
C5119 C891 0.786 . S
C5128 C1297 0.965 . S
C5130 C949 0.986 . S
C5139 C978 0.780 . S
C5141 C2602 0.793 . S
C5150 C2631 0.780 . S
C5152 C1007 0.797 . S
C5161 C2660 0.861 . S
C5163 C1036 0.884 . S
C5172 C1065 1.361 . S
C5174 C2760 1.343 . S
C5183 C1326 0.792 . S
C5185 C1094 0.802 . S
C5194 C2747 0.799 . S
C5196 C1123 0.817 . S
C5205 C1152 0.806 . S
C5207 C1181 0.803 . S
C5216 C2370 0.790 . S
C5218 C1210 0.782 . S
C5227 C2399 0.785 . S
C5229 C1239 0.779 . S
C5238 C2428 0.850 . S
C5240 C1268 0.830 . S
C5249 C2515 0.776 . S
C5251 C1355 0.795 . S
C5260 C1368 1.282 . S
C5262 C2457 1.313 . S
C5271 C1616 0.731 . S
C5273 C1413 0.754 . S
C5282 C1529 0.757 . S
C5284 C1442 0.776 . S
C5293 C1558 1.001 . S
C5295 C1471 0.987 . S
C5304 C1500 0.761 . S
C5306 C1587 0.760 . S
C5315 C1645 0.727 . S
C5317 C1993 0.750 . S
C5326 C1790 0.754 . S
C5328 C2022 0.775 . S
C5337 C1877 0.769 . S
C5339 C1848 0.787 . S
C5348 C2109 0.767 . S
C5350 C2312 0.765 . S
C5359 C2225 0.802 . S
C5361 C2138 0.791 . S
C5370 C2254 0.780 . S
C5372 C2167 0.770 . S
C5381 C2283 0.798 . S
C5383 C2196 0.785 . S
C5392 C2341 0.952 . S
C5394 C2689 0.924 . S
C5403 C2486 0.807 . S
C5405 C2718 0.828 . S
C5414 C2573 0.760 . S
C5416 C2544 0.780 . S
C5425 C1455 2.513 . S
C5427 C5 2.512 . S
C5436 C1484 2.550 . S
C5438 C34 2.550 . S
C5447 C1397 2.543 . S
C5449 C63 2.543 . S
C5458 C92 2.523 . S
C5460 C1426 2.522 . S
C5469 C1571 2.531 . S
C5471 C121 2.531 . S
C5480 C150 2.485 . S
C5482 C1600 2.487 . S
C5491 C1513 2.567 . S
C5493 C179 2.568 . S
C5502 C1542 2.482 . S
C5504 C208 2.486 . S
C5513 C237 2.514 . S
C5515 C353 2.513 . S
C5524 C382 2.551 . S
C5526 C266 2.549 . S
C5535 C295 2.487 . S
C5537 C411 2.487 . S
C5546 C324 2.663 . S
C5548 C440 2.666 . S
C5557 C1948 2.598 . S
C5559 C469 2.592 . S
C5568 C498 2.521 . S
C5570 C2006 2.521 . S
C5579 C643 2.556 . S
C5581 C527 2.558 . S
C5590 C1861 2.640 . S
C5592 C556 2.642 . S
C5601 C2064 2.545 . S
C5603 C585 2.545 . S
C5612 C614 2.561 . S
C5614 C1890 2.563 . S
C5623 C672 2.553 . S
C5625 C1977 2.552 . S
C5634 C2151 2.549 . S
C5636 C701 2.541 . S
C5645 C730 2.595 . S
C5647 C2180 2.596 . S
C5656 C2093 2.627 . S
C5658 C759 2.623 . S
C5667 C788 2.571 . S
C5669 C2122 2.570 . S
C5678 C2267 2.530 . S
C5680 C817 2.524 . S
C5689 C846 2.308 . S
C5691 C2296 2.308 . S
C5700 C2209 2.563 . S
C5702 C875 2.565 . S
C5711 C904 2.307 . S
C5713 C2238 2.304 . S
C5722 C1049 2.287 . S
C5724 C933 2.286 . S
C5733 C1078 2.462 . S
C5735 C962 2.463 . S
C5744 C1107 2.512 . S
C5746 C991 2.509 . S
C5755 C1136 2.494 . S
C5757 C1020 2.491 . S
C5766 C1165 2.485 . S
C5768 C2644 2.479 . S
C5777 C1194 2.532 . S
C5779 C2702 2.528 . S
C5788 C1223 2.526 . S
C5790 C1339 2.528 . S
C5799 C1252 2.535 . S
C5801 C2557 2.537 . S
C5810 C1281 2.016 . S
C5812 C2758 2.035 . S
C5821 C1310 2.550 . S
C5823 C2586 2.552 . S
C5832 C2673 2.024 . S
C5834 C1366 2.040 . S
C5843 C1745 2.580 . S
C5845 C1629 2.583 . S
C5854 C1774 2.580 . S
C5856 C1658 2.580 . S
C5865 C1803 2.536 . S
C5867 C1687 2.535 . S
C5876 C1716 2.665 . S
C5878 C1832 2.667 . S
C5887 C1919 2.581 . S
C5889 C2035 2.579 . S
C5898 C2325 2.333 . S
C5900 C2441 2.334 . S
C5909 C2470 2.490 . S
C5911 C2354 2.491 . S
C5920 C2383 2.539 . S
C5922 C2499 2.541 . S
C5931 C2412 2.492 . S
C5933 C2528 2.498 . S
C5942 C2731 2.549 . S
C5944 C2615 2.551 . S
C5953 C1540 1.487 . S
C5955 C3 1.485 . S
C5964 C32 1.290 . S
C5966 C1569 1.309 . S
C5975 C61 1.417 . S
C5977 C1598 1.404 . S
C5986 C1511 1.458 . S
C5988 C90 1.440 . S
C5997 C1482 1.441 . S
C5999 C119 1.457 . S
C6008 C148 1.528 . S
C6010 C1395 1.516 . S
C6019 C177 1.332 . S
C6021 C1424 1.325 . S
C6030 C1453 1.369 . S
C6032 C206 1.360 . S
C6041 C2062 1.320 . S
C6043 C235 1.329 . S
C6052 C612 1.460 . S
C6054 C264 1.442 . S
C6063 C293 1.306 . S
C6065 C2033 1.309 . S
C6074 C467 1.383 . S
C6076 C322 1.398 . S
C6085 C351 1.346 . S
C6087 C583 1.331 . S
C6096 C1888 1.355 . S
C6098 C380 1.337 . S
C6107 C1917 1.473 . S
C6109 C409 1.463 . S
C6118 C1946 1.345 . S
C6120 C438 1.339 . S
C6129 C1772 1.297 . S
C6131 C496 1.291 . S
C6140 C1801 1.459 . S
C6142 C525 1.451 . S
C6151 C1830 1.379 . S
C6153 C554 1.376 . S
C6162 C1685 1.333 . S
C6164 C641 1.339 . S
C6173 C1627 1.357 . S
C6175 C670 1.370 . S
C6184 C699 1.359 . S
C6186 C2236 1.338 . S
C6195 C2265 1.345 . S
C6197 C728 1.344 . S
C6206 C757 1.353 . S
C6208 C2294 1.365 . S
C6217 C786 1.400 . S
C6219 C2207 1.424 . S
C6228 C2178 1.400 . S
C6230 C815 1.417 . S
C6239 C844 1.401 . S
C6241 C2091 1.396 . S
C6250 C873 1.375 . S
C6252 C2120 1.383 . S
C6261 C902 1.296 . S
C6263 C2149 1.314 . S
C6272 C931 1.156 . S
C6274 C2776 1.192 . S
C6283 C960 1.425 . S
C6285 C1308 1.443 . S
C6294 C989 1.329 . S
C6296 C2729 1.324 . S
C6305 C1163 1.506 . S
C6307 C1018 1.485 . S
C6316 C1047 1.369 . S
C6318 C1279 1.350 . S
C6327 C1076 1.377 . S
C6329 C2584 1.369 . S
C6338 C1105 1.413 . S
C6340 C2613 1.413 . S
C6349 C2642 1.351 . S
C6351 C1134 1.347 . S
C6360 C1192 1.336 . S
C6362 C2468 1.320 . S
C6371 C1221 1.411 . S
C6373 C2497 1.429 . S
C6382 C1250 1.395 . S
C6384 C2526 1.400 . S
C6393 C1337 1.347 . S
C6395 C2381 1.360 . S
C6404 C1384 1.231 . S
C6406 C2323 1.194 . S
C6415 C2004 1.452 . S
C6417 C1656 1.453 . S
C6426 C1859 1.423 . S
C6428 C1714 1.430 . S
C6437 C1743 1.404 . S
C6439 C1975 1.402 . S
C6448 C2352 1.440 . S
C6450 C2700 1.443 . S
C6459 C2410 1.539 . S
C6461 C2555 1.538 . S
C6470 C2671 1.407 . S
C6472 C2439 1.418 . S
