# Generated by pormake.
# Topology lcy-e, (6)-cn, num edge types: 1
# Building blocks:
#     Node 0, Type 0, BuildingBlock: CUWYAW_clean_sbu_0, # of connection points: 6
#     Node 1, Type 0, BuildingBlock: CUWYAW_clean_sbu_0, # of connection points: 6
#     Node 2, Type 0, BuildingBlock: CUWYAW_clean_sbu_0, # of connection points: 6
#     Node 3, Type 0, BuildingBlock: CUWYAW_clean_sbu_0, # of connection points: 6
#     Node 4, Type 0, BuildingBlock: CUWYAW_clean_sbu_0, # of connection points: 6
#     Node 5, Type 0, BuildingBlock: CUWYAW_clean_sbu_0, # of connection points: 6
#     Node 6, Type 0, BuildingBlock: CUWYAW_clean_sbu_0, # of connection points: 6
#     Node 7, Type 0, BuildingBlock: CUWYAW_clean_sbu_0, # of connection points: 6
#     Node 8, Type 0, BuildingBlock: CUWYAW_clean_sbu_0, # of connection points: 6
#     Node 9, Type 0, BuildingBlock: CUWYAW_clean_sbu_0, # of connection points: 6
#     Node 10, Type 0, BuildingBlock: CUWYAW_clean_sbu_0, # of connection points: 6
#     Node 11, Type 0, BuildingBlock: CUWYAW_clean_sbu_0, # of connection points: 6
#     Edge 12, Type (0, 0), BuildingBlock: OJICUG_clean_linker_0, # of connection points: 2
#     Edge 13, Type (0, 0), BuildingBlock: OJICUG_clean_linker_0, # of connection points: 2
#     Edge 14, Type (0, 0), BuildingBlock: OJICUG_clean_linker_0, # of connection points: 2
#     Edge 15, Type (0, 0), BuildingBlock: OJICUG_clean_linker_0, # of connection points: 2
#     Edge 16, Type (0, 0), BuildingBlock: OJICUG_clean_linker_0, # of connection points: 2
#     Edge 17, Type (0, 0), BuildingBlock: OJICUG_clean_linker_0, # of connection points: 2
#     Edge 18, Type (0, 0), BuildingBlock: OJICUG_clean_linker_0, # of connection points: 2
#     Edge 19, Type (0, 0), BuildingBlock: OJICUG_clean_linker_0, # of connection points: 2
#     Edge 20, Type (0, 0), BuildingBlock: OJICUG_clean_linker_0, # of connection points: 2
#     Edge 21, Type (0, 0), BuildingBlock: OJICUG_clean_linker_0, # of connection points: 2
#     Edge 22, Type (0, 0), BuildingBlock: OJICUG_clean_linker_0, # of connection points: 2
#     Edge 23, Type (0, 0), BuildingBlock: OJICUG_clean_linker_0, # of connection points: 2
#     Edge 24, Type (0, 0), BuildingBlock: OJICUG_clean_linker_0, # of connection points: 2
#     Edge 25, Type (0, 0), BuildingBlock: OJICUG_clean_linker_0, # of connection points: 2
#     Edge 26, Type (0, 0), BuildingBlock: OJICUG_clean_linker_0, # of connection points: 2
#     Edge 27, Type (0, 0), BuildingBlock: OJICUG_clean_linker_0, # of connection points: 2
#     Edge 28, Type (0, 0), BuildingBlock: OJICUG_clean_linker_0, # of connection points: 2
#     Edge 29, Type (0, 0), BuildingBlock: OJICUG_clean_linker_0, # of connection points: 2
#     Edge 30, Type (0, 0), BuildingBlock: OJICUG_clean_linker_0, # of connection points: 2
#     Edge 31, Type (0, 0), BuildingBlock: OJICUG_clean_linker_0, # of connection points: 2
#     Edge 32, Type (0, 0), BuildingBlock: OJICUG_clean_linker_0, # of connection points: 2
#     Edge 33, Type (0, 0), BuildingBlock: OJICUG_clean_linker_0, # of connection points: 2
#     Edge 34, Type (0, 0), BuildingBlock: OJICUG_clean_linker_0, # of connection points: 2
#     Edge 35, Type (0, 0), BuildingBlock: OJICUG_clean_linker_0, # of connection points: 2
#     Edge 36, Type (0, 0), BuildingBlock: OJICUG_clean_linker_0, # of connection points: 2
#     Edge 37, Type (0, 0), BuildingBlock: OJICUG_clean_linker_0, # of connection points: 2
#     Edge 38, Type (0, 0), BuildingBlock: OJICUG_clean_linker_0, # of connection points: 2
#     Edge 39, Type (0, 0), BuildingBlock: OJICUG_clean_linker_0, # of connection points: 2
#     Edge 40, Type (0, 0), BuildingBlock: OJICUG_clean_linker_0, # of connection points: 2
#     Edge 41, Type (0, 0), BuildingBlock: OJICUG_clean_linker_0, # of connection points: 2
#     Edge 42, Type (0, 0), BuildingBlock: OJICUG_clean_linker_0, # of connection points: 2
#     Edge 43, Type (0, 0), BuildingBlock: OJICUG_clean_linker_0, # of connection points: 2
#     Edge 44, Type (0, 0), BuildingBlock: OJICUG_clean_linker_0, # of connection points: 2
#     Edge 45, Type (0, 0), BuildingBlock: OJICUG_clean_linker_0, # of connection points: 2
#     Edge 46, Type (0, 0), BuildingBlock: OJICUG_clean_linker_0, # of connection points: 2
#     Edge 47, Type (0, 0), BuildingBlock: OJICUG_clean_linker_0, # of connection points: 2
# Relax obj value: 0.186
# Max RMSD: 0.295
# Mean RMSD: 0.280
data_MOF--net-lcy-e--node1-CUWYAW_clean_sbu_0--edge1-OJICUG_clean_linker_0
_symmetry_space_group_name_H-M    P1
_symmetry_Int_Tables_number       1
_symmetry_cell_setting            triclinic
loop_
_symmetry_equiv_pos_as_xyz
'x, y, z'
_cell_length_a     33.351126
_cell_length_b     34.895208
_cell_length_c     34.78338
_cell_angle_alpha  91.107495
_cell_angle_beta   90.771148
_cell_angle_gamma 87.996171
loop_
_atom_site_label
_atom_site_type_symbol
_atom_site_fract_x
_atom_site_fract_y
_atom_site_fract_z
_atom_type_partial_charge
C0 C 0.10313 0.36458 0.4604 0.0
Eu1 Eu 0.11746 0.32705 0.52349 0.0
C2 C 0.12497 0.37895 0.42751 0.0
C3 C 0.10482 0.38219 0.39213 0.0
C4 C 0.12433 0.39594 0.36025 0.0
C5 C 0.16446 0.40698 0.36313 0.0
C6 C 0.18505 0.40265 0.39847 0.0
C7 C 0.16544 0.38868 0.43048 0.0
C8 C 0.07907 0.34062 0.59228 0.0
C9 C 0.18578 0.34939 0.57719 0.0
C10 C 0.14867 0.22913 0.64326 0.0
Eu11 Eu 0.13658 0.27071 0.58264 0.0
C12 C 0.13152 0.19258 0.65498 0.0
C13 C 0.15465 0.15827 0.65229 0.0
C14 C 0.13817 0.12334 0.66134 0.0
C15 C 0.09824 0.1219 0.67372 0.0
C16 C 0.07512 0.15629 0.6765 0.0
C17 C 0.09154 0.19122 0.66724 0.0
C18 C 0.17431 0.25461 0.51496 0.0
C19 C 0.06629 0.24939 0.52439 0.0
O20 O 0.10179 0.32733 0.46254 0.0
O21 O 0.10884 0.38134 0.4939 0.0
O22 O 0.09352 0.36712 0.57148 0.0
O23 O 0.0839 0.30901 0.57481 0.0
O24 O 0.17849 0.34565 0.54021 0.0
O25 O 0.1685 0.32597 0.60108 0.0
O26 O 0.12423 0.2592 0.64256 0.0
O27 O 0.17231 0.2273 0.61357 0.0
O28 O 0.15692 0.22962 0.53548 0.0
O29 O 0.17085 0.28751 0.53072 0.0
O30 O 0.08052 0.24301 0.55937 0.0
O31 O 0.07973 0.27755 0.50398 0.0
H32 H 0.07378 0.37426 0.38918 0.0
H33 H 0.10782 0.39816 0.33332 0.0
H34 H 0.21589 0.41107 0.40168 0.0
H35 H 0.18165 0.38588 0.45753 0.0
H36 H 0.18545 0.15838 0.6428 0.0
H37 H 0.15675 0.0974 0.65845 0.0
H38 H 0.04454 0.15637 0.68657 0.0
H39 H 0.07278 0.2171 0.66968 0.0
C40 C 0.10811 0.92872 0.84061 0.0
Eu41 Eu 0.03751 0.92779 0.8074 0.0
C42 C 0.14075 0.90469 0.85791 0.0
C43 C 0.13416 0.87998 0.88848 0.0
C44 C 0.16669 0.86151 0.90731 0.0
C45 C 0.20632 0.86762 0.89602 0.0
C46 C 0.21249 0.89086 0.8642 0.0
C47 C 0.1801 0.9092 0.84545 0.0
C48 C 0.97047 0.97072 0.82705 0.0
C49 C 0.97417 0.87064 0.8291 0.0
C50 C 0.90274 0.91559 0.70968 0.0
Eu51 Eu 0.96827 0.92122 0.75124 0.0
C52 C 0.89079 0.92565 0.66996 0.0
C53 C 0.8599 0.90613 0.65127 0.0
C54 C 0.84763 0.91594 0.61396 0.0
C55 C 0.86598 0.94562 0.59453 0.0
C56 C 0.8973 0.96488 0.61329 0.0
C57 C 0.90969 0.95489 0.65056 0.0
C58 C 0.0356 0.87914 0.73248 0.0
C59 C 0.03232 0.98428 0.73371 0.0
O60 O 0.1028 0.92587 0.80333 0.0
O61 O 0.07441 0.93341 0.85928 0.0
O62 O 0.99545 0.95519 0.85159 0.0
O63 O 0.98398 0.96574 0.79365 0.0
O64 O 0.01324 0.87262 0.82608 0.0
O65 O 0.94977 0.89164 0.80672 0.0
O66 O 0.90963 0.94428 0.7332 0.0
O67 O 0.92935 0.88751 0.71344 0.0
O68 O 0.01419 0.89916 0.70826 0.0
O69 O 0.02071 0.88243 0.76549 0.0
O70 O 0.99514 0.97398 0.72651 0.0
O71 O 0.05461 0.96774 0.76069 0.0
H72 H 0.10408 0.87591 0.89867 0.0
H73 H 0.16092 0.844 0.93187 0.0
H74 H 0.24256 0.89572 0.85443 0.0
H75 H 0.18595 0.92804 0.82192 0.0
H76 H 0.84493 0.8835 0.6657 0.0
H77 H 0.82307 0.90084 0.60068 0.0
H78 H 0.91237 0.98757 0.5991 0.0
H79 H 0.93387 0.97018 0.66432 0.0
C80 C 0.40511 0.71417 0.93641 0.0
Eu81 Eu 0.39427 0.74835 1.00305 0.0
C82 C 0.38216 0.70094 0.90218 0.0
C83 C 0.35725 0.66929 0.90319 0.0
C84 C 0.33843 0.65589 0.86949 0.0
C85 C 0.34427 0.67376 0.83414 0.0
C86 C 0.36815 0.70614 0.83357 0.0
C87 C 0.38695 0.71944 0.86712 0.0
C88 C 0.4372 0.73753 0.06993 0.0
C89 C 0.33275 0.72273 0.06 0.0
C90 C 0.36361 0.84646 0.12847 0.0
Eu91 Eu 0.37557 0.80586 0.0656 0.0
C92 C 0.37596 0.88441 0.14203 0.0
C93 C 0.36707 0.89685 0.17952 0.0
C94 C 0.38163 0.93144 0.19384 0.0
C95 C 0.40548 0.95418 0.17089 0.0
C96 C 0.41394 0.94172 0.13308 0.0
C97 C 0.39925 0.90712 0.11875 0.0
C98 C 0.3355 0.81933 0.99856 0.0
C99 C 0.44306 0.82786 1.00715 0.0
O100 O 0.4061 0.75128 0.94191 0.0
O101 O 0.40227 0.69559 0.96858 0.0
O102 O 0.42583 0.70965 0.04766 0.0
O103 O 0.42831 0.76883 0.05442 0.0
O104 O 0.33746 0.72429 1.02274 0.0
O105 O 0.34812 0.74928 0.08298 0.0
O106 O 0.39295 0.8211 0.12422 0.0
O107 O 0.33787 0.84568 0.09981 0.0
O108 O 0.35188 0.84556 1.0198 0.0
O109 O 0.34062 0.7868 1.01361 0.0
O110 O 0.42949 0.83473 0.04218 0.0
O111 O 0.43013 0.79893 0.986 0.0
H112 H 0.35298 0.65435 0.92975 0.0
H113 H 0.32059 0.63062 0.87087 0.0
H114 H 0.37289 0.72088 0.80698 0.0
H115 H 0.40599 0.74388 0.86546 0.0
H116 H 0.34956 0.87942 0.198 0.0
H117 H 0.37506 0.93989 0.22328 0.0
H118 H 0.43188 0.95869 0.11458 0.0
H119 H 0.40659 0.89777 0.08973 0.0
C120 C 0.40208 0.1416 0.35772 0.0
Eu121 Eu 0.46925 0.14474 0.32012 0.0
C122 C 0.36897 0.16488 0.37565 0.0
C123 C 0.32929 0.15736 0.3648 0.0
C124 C 0.29697 0.17533 0.38399 0.0
C125 C 0.30343 0.20127 0.41476 0.0
C126 C 0.34324 0.21008 0.42459 0.0
C127 C 0.37571 0.19199 0.40531 0.0
C128 C 0.53997 0.10556 0.33773 0.0
C129 C 0.52802 0.2064 0.34087 0.0
C130 C 0.59887 0.15666 0.22127 0.0
Eu131 Eu 0.53482 0.15292 0.26338 0.0
C132 C 0.61049 0.14124 0.18275 0.0
C133 C 0.63177 0.16388 0.15769 0.0
C134 C 0.64414 0.1492 0.12173 0.0
C135 C 0.63569 0.11141 0.11011 0.0
C136 C 0.6134 0.08916 0.13492 0.0
C137 C 0.60079 0.10394 0.1707 0.0
C138 C 0.46599 0.19428 0.24609 0.0
C139 C 0.47155 0.08857 0.24444 0.0
O140 O 0.40397 0.14103 0.32016 0.0
O141 O 0.43753 0.14124 0.37437 0.0
O142 O 0.51668 0.12235 0.36289 0.0
O143 O 0.52351 0.10818 0.30503 0.0
O144 O 0.48935 0.20301 0.33535 0.0
O145 O 0.55341 0.18591 0.31881 0.0
O146 O 0.59498 0.13169 0.2484 0.0
O147 O 0.57052 0.18344 0.2221 0.0
O148 O 0.48694 0.17415 0.22137 0.0
O149 O 0.48184 0.19082 0.27901 0.0
O150 O 0.50818 0.09954 0.23745 0.0
O151 O 0.45001 0.10456 0.27232 0.0
H152 H 0.32321 0.13661 0.34206 0.0
H153 H 0.26679 0.1683 0.37517 0.0
H154 H 0.34939 0.22969 0.44827 0.0
H155 H 0.40598 0.19842 0.41437 0.0
H156 H 0.63945 0.19276 0.1662 0.0
H157 H 0.66165 0.16701 0.10366 0.0
H158 H 0.60603 0.0601 0.1268 0.0
H159 H 0.5839 0.08594 0.18916 0.0
C160 C 0.63083 0.36552 0.46568 0.0
Eu161 Eu 0.63411 0.31019 0.51577 0.0
C162 C 0.61016 0.40324 0.45784 0.0
C163 C 0.62776 0.43767 0.46955 0.0
C164 C 0.61133 0.47316 0.45785 0.0
C165 C 0.57699 0.47528 0.43383 0.0
C166 C 0.55837 0.44093 0.4235 0.0
C167 C 0.57483 0.40538 0.43522 0.0
C168 C 0.67555 0.24038 0.50829 0.0
C169 C 0.56545 0.25369 0.49606 0.0
C170 C 0.62143 0.19514 0.62446 0.0
Eu171 Eu 0.61631 0.25031 0.57473 0.0
C172 C 0.64568 0.18533 0.65945 0.0
C173 C 0.63192 0.19571 0.69643 0.0
C174 C 0.65335 0.18395 0.72939 0.0
C175 C 0.68892 0.16125 0.72624 0.0
C176 C 0.70326 0.15191 0.68922 0.0
C177 C 0.68189 0.16366 0.65632 0.0
C178 C 0.56512 0.31119 0.57718 0.0
C179 C 0.68606 0.31246 0.59149 0.0
O180 O 0.65682 0.36366 0.49412 0.0
O181 O 0.60971 0.33477 0.46271 0.0
O182 O 0.69066 0.27262 0.49888 0.0
O183 O 0.64026 0.24713 0.51731 0.0
O184 O 0.57246 0.29046 0.49905 0.0
O185 O 0.58323 0.22957 0.5206 0.0
O186 O 0.64005 0.19401 0.59155 0.0
O187 O 0.59543 0.22403 0.62704 0.0
O188 O 0.55502 0.2761 0.58242 0.0
O189 O 0.60269 0.31369 0.57254 0.0
O190 O 0.67376 0.27739 0.59718 0.0
O191 O 0.66921 0.33425 0.56499 0.0
H192 H 0.65507 0.43723 0.48676 0.0
H193 H 0.62625 0.49898 0.46682 0.0
H194 H 0.53223 0.44129 0.40469 0.0
H195 H 0.56063 0.37948 0.4253 0.0
H196 H 0.60402 0.21213 0.69998 0.0
H197 H 0.64106 0.19125 0.75735 0.0
H198 H 0.73073 0.13482 0.68561 0.0
H199 H 0.69342 0.155 0.62839 0.0
C200 C 0.09613 0.37138 0.89249 0.0
Eu201 Eu 0.0535 0.38298 0.82999 0.0
C202 C 0.11624 0.39178 0.92448 0.0
C203 C 0.14891 0.37353 0.94308 0.0
C204 C 0.1659 0.38987 0.97618 0.0
C205 C 0.15049 0.42489 0.99158 0.0
C206 C 0.11859 0.44392 0.97203 0.0
C207 C 0.10152 0.42745 0.93878 0.0
C208 C 0.06596 0.35013 0.75864 0.0
C209 C 0.06835 0.45018 0.77731 0.0
C210 C 0.94172 0.40867 0.71238 0.0
Eu211 Eu 0.98815 0.39812 0.7725 0.0
C212 C 0.90323 0.39385 0.69772 0.0
C213 C 0.87057 0.4195 0.69147 0.0
C214 C 0.83411 0.40636 0.677 0.0
C215 C 0.82952 0.36721 0.66808 0.0
C216 C 0.86218 0.34145 0.67483 0.0
C217 C 0.8986 0.3546 0.68955 0.0
C218 C 0.97567 0.43437 0.84163 0.0
C219 C 0.97557 0.32853 0.82848 0.0
O220 O 0.05692 0.37395 0.89153 0.0
O221 O 0.11191 0.3726 0.85831 0.0
O222 O 0.09397 0.36444 0.78011 0.0
O223 O 0.03369 0.35165 0.77702 0.0
O224 O 0.07151 0.44075 0.81357 0.0
O225 O 0.04076 0.43481 0.75441 0.0
O226 O 0.97287 0.38483 0.71273 0.0
O227 O 0.93998 0.43058 0.74324 0.0
O228 O 0.94838 0.41667 0.82196 0.0
O229 O 0.00866 0.43142 0.82426 0.0
O230 O 0.96387 0.34322 0.79527 0.0
O231 O 0.00676 0.3417 0.84756 0.0
H232 H 0.16073 0.34604 0.93251 0.0
H233 H 0.19099 0.37484 0.98994 0.0
H234 H 0.10597 0.47087 0.9831 0.0
H235 H 0.07622 0.44205 0.92487 0.0
H236 H 0.87329 0.44986 0.69767 0.0
H237 H 0.8095 0.42697 0.67282 0.0
H238 H 0.85999 0.31122 0.66787 0.0
H239 H 0.92318 0.33402 0.69413 0.0
C240 C 0.86684 0.67647 0.96855 0.0
Eu241 Eu 0.87206 0.74469 1.00033 0.0
C242 C 0.88925 0.64169 0.95451 0.0
C243 C 0.88093 0.60636 0.97075 0.0
C244 C 0.89826 0.57218 0.95615 0.0
C245 C 0.92435 0.57239 0.92477 0.0
C246 C 0.93385 0.60795 0.90929 0.0
C247 C 0.91635 0.64231 0.92394 0.0
C248 C 0.82312 0.80802 0.98693 0.0
C249 C 0.92725 0.80693 0.97299 0.0
C250 C 0.88723 0.87435 0.09483 0.0
Eu251 Eu 0.88205 0.81001 0.05586 0.0
C252 C 0.87272 0.88796 0.13257 0.0
C253 C 0.84931 0.86463 0.15511 0.0
C254 C 0.83456 0.87824 0.19049 0.0
C255 C 0.84318 0.91534 0.20398 0.0
C256 C 0.86669 0.93853 0.18115 0.0
C257 C 0.88128 0.92493 0.14577 0.0
C258 C 0.92839 0.74662 0.07225 0.0
C259 C 0.81975 0.7485 0.07955 0.0
O260 O 0.86736 0.683 1.00565 0.0
O261 O 0.86733 0.70799 0.94874 0.0
O262 O 0.83845 0.78618 0.95992 0.0
O263 O 0.83195 0.79353 1.01874 0.0
O264 O 0.92619 0.76936 0.97476 0.0
O265 O 0.90848 0.82894 0.99904 0.0
O266 O 0.85936 0.86794 0.06905 0.0
O267 O 0.91531 0.84729 0.09507 0.0
O268 O 0.90873 0.76742 0.09739 0.0
O269 O 0.9231 0.76009 0.03896 0.0
O270 O 0.82976 0.78442 0.08533 0.0
O271 O 0.83543 0.72744 0.05123 0.0
H272 H 0.86009 0.60507 0.9943 0.0
H273 H 0.89071 0.54544 0.96912 0.0
H274 H 0.95356 0.60912 0.88489 0.0
H275 H 0.92328 0.66911 0.91077 0.0
H276 H 0.84237 0.83595 0.14529 0.0
H277 H 0.81684 0.85959 0.20748 0.0
H278 H 0.87335 0.96746 0.19038 0.0
H279 H 0.89902 0.94342 0.12859 0.0
C280 C 0.59864 0.62553 0.22275 0.0
Eu281 Eu 0.53771 0.64459 0.26639 0.0
C282 C 0.63099 0.64488 0.20346 0.0
C283 C 0.66603 0.6238 0.19396 0.0
C284 C 0.69743 0.64144 0.17589 0.0
C285 C 0.69431 0.68056 0.16674 0.0
C286 C 0.65928 0.70183 0.17697 0.0
C287 C 0.62789 0.68413 0.1953 0.0
C288 C 0.46335 0.61187 0.26051 0.0
C289 C 0.48746 0.71183 0.22733 0.0
C290 C 0.41381 0.69636 0.35746 0.0
Eu291 Eu 0.47422 0.68184 0.31235 0.0
C292 C 0.39932 0.67784 0.39221 0.0
C293 C 0.38943 0.70052 0.42457 0.0
C294 C 0.3765 0.68364 0.45809 0.0
C295 C 0.37275 0.64361 0.45991 0.0
C296 C 0.38356 0.62081 0.42764 0.0
C297 C 0.39686 0.63774 0.39415 0.0
C298 C 0.53944 0.72523 0.31104 0.0
C299 C 0.52896 0.60998 0.34727 0.0
O300 O 0.60042 0.62603 0.26023 0.0
O301 O 0.56221 0.63178 0.20954 0.0
O302 O 0.4967 0.59158 0.26222 0.0
O303 O 0.4717 0.64622 0.26099 0.0
O304 O 0.5244 0.6986 0.2334 0.0
O305 O 0.45936 0.7058 0.25306 0.0
O306 O 0.41078 0.67713 0.32494 0.0
O307 O 0.44806 0.71317 0.36133 0.0
O308 O 0.50268 0.73825 0.30867 0.0
O309 O 0.54102 0.68884 0.31486 0.0
O310 O 0.49341 0.62813 0.34689 0.0
O311 O 0.55516 0.61636 0.32078 0.0
H312 H 0.66914 0.59361 0.20055 0.0
H313 H 0.72424 0.62436 0.16914 0.0
H314 H 0.65575 0.73191 0.1701 0.0
H315 H 0.6012 0.70101 0.20287 0.0
H316 H 0.39179 0.73139 0.42395 0.0
H317 H 0.36932 0.70206 0.48263 0.0
H318 H 0.38082 0.58999 0.42787 0.0
H319 H 0.40497 0.61946 0.36974 0.0
C320 C 0.16203 0.59304 0.18319 0.0
Eu321 Eu 0.23107 0.55561 0.17868 0.0
C322 C 0.13122 0.6156 0.16153 0.0
C323 C 0.11486 0.6491 0.17882 0.0
C324 C 0.08263 0.66915 0.16162 0.0
C325 C 0.06578 0.65616 0.12664 0.0
C326 C 0.08327 0.62344 0.10837 0.0
C327 C 0.11565 0.6032 0.12576 0.0
C328 C 0.29963 0.5733 0.21868 0.0
C329 C 0.29215 0.57599 0.11853 0.0
C330 C 0.36433 0.45567 0.16294 0.0
Eu331 Eu 0.29886 0.49845 0.16925 0.0
C332 C 0.37637 0.41603 0.17427 0.0
C333 C 0.35863 0.38373 0.15725 0.0
C334 C 0.36972 0.34667 0.16923 0.0
C335 C 0.39855 0.34107 0.19868 0.0
C336 C 0.4163 0.37341 0.21554 0.0
C337 C 0.40546 0.41038 0.20337 0.0
C338 C 0.23125 0.48083 0.12874 0.0
C339 C 0.23553 0.48148 0.2342 0.0
O340 O 0.16576 0.55618 0.17576 0.0
O341 O 0.1964 0.60883 0.19031 0.0
O342 O 0.27548 0.59828 0.20254 0.0
O343 O 0.28515 0.54055 0.21518 0.0
O344 O 0.25328 0.57339 0.12211 0.0
O345 O 0.31703 0.55315 0.13853 0.0
O346 O 0.35801 0.48033 0.1911 0.0
O347 O 0.33784 0.45976 0.13513 0.0
O348 O 0.25286 0.45655 0.14855 0.0
O349 O 0.24591 0.51363 0.13164 0.0
O350 O 0.27237 0.47325 0.22239 0.0
O351 O 0.21348 0.50945 0.21889 0.0
H352 H 0.12636 0.65927 0.20632 0.0
H353 H 0.07046 0.69466 0.17609 0.0
H354 H 0.07098 0.6127 0.08144 0.0
H355 H 0.12779 0.57741 0.11175 0.0
H356 H 0.33598 0.38699 0.13484 0.0
H357 H 0.35533 0.32241 0.15578 0.0
H358 H 0.43911 0.37014 0.23781 0.0
H359 H 0.41976 0.43467 0.2169 0.0
C360 C 0.66845 0.96761 0.88843 0.0
Eu361 Eu 0.73095 1.00812 0.9045 0.0
C362 C 0.63625 0.9481 0.90767 0.0
C363 C 0.60181 0.93938 0.88634 0.0
C364 C 0.57002 0.92177 0.9037 0.0
C365 C 0.5721 0.91232 0.94283 0.0
C366 C 0.60653 0.92171 0.96443 0.0
C367 C 0.63842 0.93955 0.94694 0.0
C368 C 0.80481 1.00129 0.86988 0.0
C369 C 0.78411 0.9697 0.97033 0.0
C370 C 0.85701 0.09846 0.95142 0.0
Eu371 Eu 0.79607 0.05471 0.93946 0.0
C372 C 0.87279 0.13179 0.93172 0.0
C373 C 0.84745 0.15652 0.91013 0.0
C374 C 0.86293 0.18815 0.89182 0.0
C375 C 0.90402 0.19572 0.89483 0.0
C376 C 0.92932 0.17031 0.91582 0.0
C377 C 0.91384 0.13874 0.93404 0.0
C378 C 0.7301 0.05525 0.9832 0.0
C379 C 0.74365 0.08561 0.86402 0.0
O380 O 0.66718 1.00497 0.89167 0.0
O381 O 0.70488 0.95274 0.89154 0.0
O382 O 0.77141 1.00095 0.8503 0.0
O383 O 0.79672 1.003 0.90455 0.0
O384 O 0.74666 0.97591 0.95888 0.0
O385 O 0.81171 0.99482 0.9622 0.0
O386 O 0.85966 0.06569 0.93261 0.0
O387 O 0.8225 0.10384 0.96848 0.0
O388 O 0.76663 0.0532 0.99642 0.0
O389 O 0.72921 0.05815 0.94668 0.0
O390 O 0.77725 0.08732 0.88464 0.0
O391 O 0.7174 0.05949 0.8699 0.0
H392 H 0.59941 0.94633 0.85614 0.0
H393 H 0.54369 0.91564 0.8864 0.0
H394 H 0.60914 0.9146 0.99455 0.0
H395 H 0.66471 0.94654 0.96395 0.0
H396 H 0.81562 0.15164 0.90776 0.0
H397 H 0.84256 0.2072 0.87614 0.0
H398 H 0.96123 0.1748 0.91817 0.0
H399 H 0.93398 0.1198 0.95013 0.0
C400 C 0.84998 0.09951 0.38955 0.0
Eu401 Eu 0.78426 0.06222 0.39845 0.0
C402 C 0.88134 0.11905 0.41192 0.0
C403 C 0.91633 0.1288 0.39321 0.0
C404 C 0.94638 0.14822 0.41303 0.0
C405 C 0.9421 0.15849 0.45214 0.0
C406 C 0.90733 0.14775 0.47121 0.0
C407 C 0.87711 0.12821 0.45122 0.0
C408 C 0.71169 0.0786 0.36263 0.0
C409 C 0.7289 0.08629 0.46314 0.0
C410 C 0.65751 0.96499 0.41875 0.0
Eu411 Eu 0.72063 1.00669 0.4121 0.0
C412 C 0.64525 0.92711 0.40275 0.0
C413 C 0.66791 0.89294 0.40938 0.0
C414 C 0.65599 0.85777 0.39322 0.0
C415 C 0.62137 0.85596 0.36972 0.0
C416 C 0.5987 0.8902 0.36347 0.0
C417 C 0.61043 0.92516 0.37977 0.0
C418 C 0.79101 0.98981 0.45024 0.0
C419 C 0.78178 0.98581 0.34422 0.0
O420 O 0.84928 0.06224 0.39244 0.0
O421 O 0.81407 0.11584 0.38896 0.0
O422 O 0.73419 0.10406 0.37863 0.0
O423 O 0.72934 0.04626 0.36498 0.0
O424 O 0.76731 0.08059 0.45723 0.0
O425 O 0.70301 0.06286 0.44608 0.0
O426 O 0.65954 0.99282 0.39429 0.0
O427 O 0.68701 0.96521 0.44389 0.0
O428 O 0.76974 0.96492 0.43175 0.0
O429 O 0.77465 1.02275 0.44688 0.0
O430 O 0.74566 0.97958 0.35736 0.0
O431 O 0.80346 1.01353 0.35869 0.0
H432 H 0.92032 0.12164 0.36301 0.0
H433 H 0.97302 0.15534 0.39759 0.0
H434 H 0.903 0.15535 0.50124 0.0
H435 H 0.85034 0.12065 0.46623 0.0
H436 H 0.69503 0.89333 0.42684 0.0
H437 H 0.67426 0.83213 0.3986 0.0
H438 H 0.57141 0.88998 0.34626 0.0
H439 H 0.59223 0.95086 0.37428 0.0
C440 C 0.17454 0.63997 0.62907 0.0
Eu441 Eu 0.21823 0.57863 0.64453 0.0
C442 C 0.1539 0.67283 0.64815 0.0
C443 C 0.1219 0.69147 0.62897 0.0
C444 C 0.10451 0.72528 0.64425 0.0
C445 C 0.11897 0.74123 0.679 0.0
C446 C 0.15025 0.7217 0.69889 0.0
C447 C 0.16763 0.68773 0.68356 0.0
C448 C 0.2104 0.50806 0.61051 0.0
C449 C 0.20038 0.52607 0.71076 0.0
C450 C 0.3311 0.46339 0.6752 0.0
Eu451 Eu 0.28401 0.5229 0.66166 0.0
C452 C 0.36789 0.446 0.65855 0.0
C453 C 0.39831 0.46847 0.64412 0.0
C454 C 0.43235 0.45091 0.62721 0.0
C455 C 0.43599 0.41076 0.62399 0.0
C456 C 0.40558 0.38855 0.63884 0.0
C457 C 0.37192 0.40602 0.65595 0.0
C458 C 0.29277 0.59193 0.6976 0.0
C459 C 0.29871 0.5775 0.59221 0.0
O460 O 0.21369 0.63907 0.63129 0.0
O461 O 0.15944 0.60619 0.63279 0.0
O462 O 0.18079 0.5285 0.62454 0.0
O463 O 0.2419 0.52666 0.61304 0.0
O464 O 0.19604 0.56219 0.70131 0.0
O465 O 0.23013 0.50412 0.69653 0.0
O466 O 0.29885 0.46193 0.65356 0.0
O467 O 0.33426 0.49639 0.69315 0.0
O468 O 0.32115 0.57273 0.67989 0.0
O469 O 0.26027 0.57442 0.69473 0.0
O470 O 0.30954 0.54374 0.60617 0.0
O471 O 0.26754 0.59716 0.60603 0.0
H472 H 0.11092 0.68034 0.60164 0.0
H473 H 0.07985 0.73909 0.62865 0.0
H474 H 0.16211 0.73325 0.72567 0.0
H475 H 0.19243 0.6737 0.69879 0.0
H476 H 0.39559 0.49949 0.64556 0.0
H477 H 0.45532 0.46863 0.61594 0.0
H478 H 0.4079 0.35751 0.63733 0.0
H479 H 0.3488 0.38824 0.66689 0.0
C480 C 0.18752 0.40378 0.62507 0.0
C481 C 0.20159 0.38661 0.59075 0.0
H482 H 0.17704 0.45629 0.65705 0.0
C483 C 0.22322 0.40894 0.56543 0.0
H484 H 0.17169 0.38722 0.64558 0.0
C485 C 0.22795 0.44816 0.57288 0.0
C486 C 0.20985 0.46599 0.60499 0.0
H487 H 0.23462 0.39654 0.53877 0.0
H488 H 0.24358 0.46497 0.55234 0.0
C489 C 0.19052 0.44333 0.63157 0.0
C490 C 0.85894 0.99981 0.81867 0.0
C491 C 0.84684 0.99508 0.85677 0.0
H492 H 0.90867 0.99857 0.77964 0.0
C493 C 0.87629 0.98537 0.88464 0.0
H494 H 0.8372 1.00829 0.79676 0.0
C495 C 0.9163 0.97925 0.87486 0.0
C496 C 0.92847 0.98232 0.83676 0.0
H497 H 0.86853 0.98182 0.9144 0.0
H498 H 0.9376 0.97096 0.89725 0.0
C499 C 0.89969 0.99398 0.80887 0.0
C500 C 0.29205 0.66385 0.05687 0.0
C501 C 0.32104 0.6858 0.07579 0.0
H502 H 0.2603 0.61141 0.0556 0.0
C503 C 0.34303 0.66965 0.10661 0.0
H504 H 0.27532 0.67527 0.03249 0.0
C505 C 0.33594 0.63244 0.11853 0.0
C506 C 0.30596 0.61104 0.10052 0.0
H507 H 0.36642 0.68538 0.12099 0.0
H508 H 0.3528 0.62105 0.14281 0.0
C509 C 0.28404 0.62711 0.0696 0.0
C510 C 0.60645 0.07396 0.31839 0.0
C511 C 0.5835 0.09633 0.34472 0.0
H512 H 0.6649 0.04988 0.30396 0.0
C513 C 0.60301 0.11156 0.37738 0.0
H514 H 0.59228 0.06153 0.29311 0.0
C515 C 0.64465 0.10668 0.38243 0.0
C516 C 0.66765 0.08443 0.35618 0.0
H517 H 0.58618 0.12815 0.39868 0.0
H518 H 0.65878 0.11992 0.40729 0.0
C519 C 0.64798 0.06742 0.3245 0.0
C520 C 0.73039 0.19282 0.4882 0.0
C521 C 0.6909 0.20067 0.49965 0.0
H522 H 0.77355 0.15041 0.46875 0.0
C523 C 0.66469 0.16981 0.502 0.0
H524 H 0.75131 0.21574 0.48629 0.0
C525 C 0.67695 0.13239 0.49127 0.0
C526 C 0.71617 0.1246 0.47905 0.0
H527 H 0.63405 0.17456 0.51111 0.0
H528 H 0.65557 0.10975 0.49196 0.0
C529 C 0.74301 0.15517 0.4784 0.0
C530 C 0.09464 0.4998 0.73399 0.0
C531 C 0.10147 0.47136 0.76133 0.0
H532 H 0.12116 0.54049 0.69759 0.0
C533 C 0.14113 0.46165 0.77288 0.0
H534 H 0.06441 0.50746 0.72448 0.0
C535 C 0.17357 0.47956 0.75679 0.0
C536 C 0.16676 0.50848 0.72998 0.0
H537 H 0.14713 0.43927 0.79356 0.0
H538 H 0.20386 0.47087 0.76528 0.0
C539 C 0.12706 0.51873 0.71893 0.0
C540 C 0.78325 0.90953 1.00892 0.0
C541 C 0.79649 0.92928 0.97697 0.0
H542 H 0.78164 0.85537 0.03729 0.0
C543 C 0.81613 0.90846 0.94734 0.0
H544 H 0.76677 0.92473 0.03146 0.0
C545 C 0.82288 0.86875 0.94973 0.0
C546 C 0.81141 0.84914 0.98242 0.0
H547 H 0.82512 0.92272 0.92161 0.0
H548 H 0.8378 0.85352 0.92626 0.0
C549 C 0.79124 0.86987 1.01191 0.0
C550 C 0.39435 0.62769 0.23645 0.0
C551 C 0.42202 0.59964 0.25034 0.0
H552 H 0.33507 0.64144 0.21604 0.0
C553 C 0.40871 0.56223 0.25509 0.0
H554 H 0.40317 0.65687 0.23232 0.0
C555 C 0.36854 0.55343 0.24599 0.0
C556 C 0.34141 0.58168 0.2313 0.0
H557 H 0.429 0.54011 0.26625 0.0
H558 H 0.35872 0.52468 0.25055 0.0
C559 C 0.35492 0.61889 0.2271 0.0
C560 C 0.5762 0.21035 0.39652 0.0
C561 C 0.54039 0.22296 0.37852 0.0
H562 H 0.61085 0.20827 0.44871 0.0
C563 C 0.51263 0.2458 0.39991 0.0
H564 H 0.59844 0.19336 0.38075 0.0
C565 C 0.51995 0.25469 0.4387 0.0
C566 C 0.5545 0.23992 0.45721 0.0
H567 H 0.48473 0.25615 0.38685 0.0
H568 H 0.49854 0.27293 0.45429 0.0
C569 C 0.58287 0.21821 0.43564 0.0
C570 C 0.08804 0.37541 0.65546 0.0
C571 C 0.07228 0.34451 0.63445 0.0
H572 H 0.10084 0.39998 0.71105 0.0
C573 C 0.05271 0.3161 0.65459 0.0
H574 H 0.10224 0.39828 0.6408 0.0
C575 C 0.04985 0.31822 0.69492 0.0
C576 C 0.06788 0.34794 0.71596 0.0
H577 H 0.04001 0.29204 0.63917 0.0
H578 H 0.03457 0.29605 0.70972 0.0
C579 C 0.08702 0.37648 0.69575 0.0
C580 C 0.97659 0.81734 0.87617 0.0
C581 C 0.95935 0.85238 0.86383 0.0
H582 H 0.97969 0.77515 0.92031 0.0
C583 C 0.93327 0.87312 0.88844 0.0
H584 H 0.99761 0.80126 0.85805 0.0
C585 C 0.92523 0.85957 0.92504 0.0
C586 C 0.9413 0.82391 0.93701 0.0
H587 H 0.9203 0.90053 0.87998 0.0
H588 H 0.90574 0.87677 0.94363 0.0
C589 C 0.96692 0.8028 0.91203 0.0
C590 C 0.5033 0.71793 0.15731 0.0
C591 C 0.47613 0.72386 0.18782 0.0
H592 H 0.51189 0.71688 0.09608 0.0
C593 C 0.43662 0.73596 0.17911 0.0
H594 H 0.53399 0.7082 0.16279 0.0
C595 C 0.42427 0.74094 0.14092 0.0
C596 C 0.45086 0.73359 0.11041 0.0
H597 H 0.41481 0.74046 0.2017 0.0
H598 H 0.39348 0.74955 0.13571 0.0
C599 C 0.49067 0.72248 0.11899 0.0
C600 C 0.16111 0.45176 0.30799 0.0
C601 C 0.18348 0.42501 0.32984 0.0
H602 H 0.1596 0.48987 0.261 0.0
C603 C 0.22355 0.41623 0.31967 0.0
H604 H 0.13047 0.4598 0.31538 0.0
C605 C 0.24068 0.43387 0.28815 0.0
C606 C 0.21806 0.46075 0.26648 0.0
H607 H 0.24151 0.39555 0.33585 0.0
H608 H 0.2716 0.42677 0.28104 0.0
C609 C 0.17805 0.46925 0.27679 0.0
C610 C 0.84644 0.99604 0.54601 0.0
C611 C 0.85143 0.95708 0.55546 0.0
H612 H 0.82387 0.03699 0.50513 0.0
C613 C 0.84038 0.92918 0.52793 0.0
H614 H 0.85444 1.01832 0.56652 0.0
C615 C 0.82292 0.93991 0.49275 0.0
C616 C 0.81588 0.9788 0.48425 0.0
H617 H 0.84453 0.89894 0.53388 0.0
H618 H 0.81351 0.91764 0.47281 0.0
C619 C 0.82883 1.00677 0.51082 0.0
C620 C 0.34023 0.63466 0.73175 0.0
C621 C 0.30248 0.61813 0.73004 0.0
H622 H 0.38305 0.66474 0.76586 0.0
C623 C 0.27683 0.62289 0.76165 0.0
H624 H 0.36064 0.63138 0.70784 0.0
C625 C 0.28978 0.64195 0.79521 0.0
C626 C 0.32839 0.65696 0.79754 0.0
H627 H 0.24757 0.61034 0.76117 0.0
H628 H 0.26991 0.64425 0.81958 0.0
C629 C 0.35301 0.65389 0.76503 0.0
C630 C 0.65451 0.11533 0.03985 0.0
C631 C 0.65313 0.09426 0.074 0.0
H632 H 0.67895 0.1187 0.98303 0.0
C633 C 0.67188 0.05754 0.07458 0.0
H634 H 0.64014 0.14358 0.03833 0.0
C635 C 0.6939 0.0435 0.04308 0.0
C636 C 0.69714 0.06538 1.00989 0.0
H637 H 0.67187 0.04063 0.10036 0.0
H638 H 0.71047 1.01636 0.04555 0.0
C639 C 0.67615 0.10089 1.00795 0.0
C640 C 0.71193 0.16504 0.79615 0.0
C641 C 0.70874 0.14422 0.76109 0.0
H642 H 0.72677 0.16302 0.85667 0.0
C643 C 0.722 0.10552 0.76012 0.0
H644 H 0.70227 0.19497 0.79786 0.0
C645 C 0.73603 0.08762 0.79347 0.0
C646 C 0.73763 0.10788 0.82865 0.0
H647 H 0.71948 0.08831 0.73401 0.0
H648 H 0.74394 0.05723 0.79211 0.0
C649 C 0.72639 0.147 0.82969 0.0
C650 C 0.1938 0.49358 0.06671 0.0
C651 C 0.20579 0.46821 0.09597 0.0
H652 H 0.16722 0.49981 1.0105 0.0
C653 C 0.19651 0.4294 0.09195 0.0
H654 H 0.20051 0.52369 0.06905 0.0
C655 C 0.17753 0.41578 0.05861 0.0
C656 C 0.16734 0.4406 0.02835 0.0
H657 H 0.20501 0.4092 0.11414 0.0
H658 H 0.17138 0.38554 0.05632 0.0
C659 C 0.17471 0.4799 0.0332 0.0
C660 C 0.77337 0.94098 0.28714 0.0
C661 C 0.79793 0.96388 0.31057 0.0
H662 H 0.76826 0.90791 0.23473 0.0
C663 C 0.83806 0.96823 0.29997 0.0
H664 H 0.74233 0.9371 0.29446 0.0
C665 C 0.85283 0.95159 0.26603 0.0
C666 C 0.82792 0.93013 0.24164 0.0
H667 H 0.85806 0.98525 0.31753 0.0
H668 H 0.88377 0.95593 0.25865 0.0
C669 C 0.78825 0.92424 0.25297 0.0
C670 C 0.30591 0.62971 0.54524 0.0
C671 C 0.31964 0.594 0.55931 0.0
H672 H 0.31094 0.67251 0.50295 0.0
C673 C 0.35186 0.57463 0.5408 0.0
H674 H 0.28107 0.64557 0.55848 0.0
C675 C 0.36957 0.59066 0.50866 0.0
C676 C 0.35538 0.62632 0.49455 0.0
H677 H 0.36314 0.54708 0.55089 0.0
H678 H 0.39444 0.57524 0.49501 0.0
C679 C 0.32334 0.64549 0.51335 0.0
C680 C 0.20686 0.20515 0.47184 0.0
C681 C 0.20527 0.24299 0.48635 0.0
H682 H 0.23886 0.16241 0.43848 0.0
C683 C 0.23518 0.26799 0.4756 0.0
H684 H 0.18431 0.18517 0.47962 0.0
C685 C 0.26683 0.25483 0.45192 0.0
C686 C 0.26888 0.21657 0.43813 0.0
H687 H 0.2348 0.29732 0.48639 0.0
H688 H 0.28979 0.27452 0.44459 0.0
C689 C 0.23812 0.19214 0.44805 0.0
C690 C 0.10574 0.05891 0.70674 0.0
C691 C 0.08158 0.08499 0.68573 0.0
H692 H 0.10946 1.00674 0.73749 0.0
C693 C 0.04132 0.07614 0.67793 0.0
H694 H 0.13665 0.06488 0.71377 0.0
C695 C 0.02535 0.04256 0.692 0.0
C696 C 0.04935 1.0173 0.7142 0.0
H697 H 0.02203 0.09537 0.66133 0.0
H698 H 0.99402 0.03702 0.68648 0.0
C699 C 0.08992 1.02554 0.72063 0.0
C700 C 0.24271 0.81576 0.93422 0.0
C701 C 0.24118 0.85307 0.91941 0.0
H702 H 0.27447 0.77523 0.97035 0.0
C703 C 0.27253 0.87765 0.92873 0.0
H704 H 0.21915 0.79608 0.92735 0.0
C705 C 0.30384 0.86584 0.95324 0.0
C706 C 0.30482 0.82907 0.96892 0.0
H707 H 0.27212 0.9067 0.91827 0.0
H708 H 0.32682 0.88597 0.96073 0.0
C709 C 0.27447 0.80374 0.95856 0.0
C710 C 0.41396 0.04718 0.2279 0.0
C711 C 0.45429 0.05611 0.22251 0.0
H712 H 0.3669 1.00867 0.21536 0.0
C713 C 0.4779 0.03255 0.19787 0.0
H714 H 0.39469 0.0649 0.24629 0.0
C715 C 0.46184 0.99994 0.18022 0.0
C716 C 0.42189 0.99033 0.18686 0.0
H717 H 0.50906 0.03862 0.19312 0.0
H718 H 0.48112 0.98155 0.16247 0.0
C719 C 0.39799 1.01478 0.21029 0.0
C720 C 0.77601 0.31799 0.6596 0.0
C721 C 0.79146 0.35366 0.65027 0.0
H722 H 0.7305 0.27702 0.64874 0.0
C723 C 0.77079 0.37608 0.62275 0.0
H724 H 0.79081 0.30017 0.68103 0.0
C725 C 0.73608 0.36306 0.60466 0.0
C726 C 0.72109 0.3271 0.61333 0.0
H727 H 0.78202 0.40336 0.61426 0.0
H728 H 0.72156 0.38098 0.58313 0.0
C729 C 0.74124 0.30483 0.64131 0.0
C730 C 0.99168 0.49682 0.87467 0.0
C731 C 0.96477 0.46728 0.86745 0.0
H732 H 1.00007 0.5533 0.89837 0.0
C733 C 0.92558 0.47152 0.8815 0.0
H734 H 0.0221 0.49441 0.86415 0.0
C735 C 0.91299 0.50516 0.90097 0.0
C736 C 0.93924 0.53551 0.90678 0.0
H737 H 0.90413 0.44933 0.8763 0.0
H738 H 0.88209 0.50795 0.9101 0.0
C739 C 0.97897 0.53069 0.89394 0.0
C740 C 0.76944 0.75232 0.13311 0.0
C741 C 0.78855 0.73146 0.10317 0.0
H742 H 0.72486 0.75255 0.17706 0.0
C743 C 0.77662 0.69393 0.09474 0.0
H744 H 0.7779 0.7813 0.14032 0.0
C745 C 0.7462 0.67773 0.11538 0.0
C746 C 0.72692 0.69841 0.14527 0.0
H747 H 0.79041 0.67699 0.07174 0.0
H748 H 0.73731 0.64908 0.10734 0.0
C749 C 0.73887 0.73595 0.15396 0.0
C750 C 0.5224 0.52248 0.41049 0.0
C751 C 0.56341 0.51255 0.41638 0.0
H752 H 0.47897 0.56179 0.38485 0.0
C753 C 0.59205 0.53744 0.40282 0.0
H754 H 0.49949 0.50415 0.42082 0.0
C755 C 0.58034 0.57014 0.38245 0.0
C756 C 0.53959 0.57926 0.37506 0.0
H757 H 0.62383 0.53072 0.40622 0.0
H758 H 0.60351 0.58766 0.3712 0.0
C759 C 0.51059 0.55569 0.39026 0.0
C760 C 0.4175 0.29402 0.25044 0.0
C761 C 0.41103 0.30173 0.21123 0.0
H762 H 0.43893 0.25371 0.29231 0.0
C763 C 0.4186 0.27208 0.18404 0.0
H764 H 0.41128 0.31598 0.27219 0.0
C765 C 0.43437 0.23632 0.1956 0.0
C766 C 0.44277 0.22935 0.23461 0.0
H767 H 0.41408 0.27704 0.15362 0.0
H768 H 0.44153 0.21466 0.17379 0.0
C769 C 0.43303 0.25821 0.262 0.0
C770 C 0.96595 0.28363 0.88239 0.0
C771 C 0.95494 0.29572 0.84522 0.0
H772 H 0.95828 0.24356 0.92706 0.0
C773 C 0.92562 0.27539 0.82469 0.0
H774 H 0.98802 0.2987 0.89942 0.0
C775 C 0.90853 0.24316 0.84077 0.0
C776 C 0.92053 0.23063 0.87761 0.0
H777 H 0.91643 0.2839 0.79603 0.0
H778 H 0.88667 0.22754 0.82401 0.0
C779 C 0.94902 0.25169 0.8983 0.0
C780 C 0.99785 0.68747 0.13583 0.0
C781 C 0.02898 0.67601 0.11084 0.0
H782 H 0.94178 0.71802 0.14298 0.0
C783 C 0.02496 0.68496 0.07161 0.0
H784 H 0.99944 0.68026 0.16598 0.0
C785 C 0.99145 0.7067 0.05825 0.0
C786 C 0.96144 0.71963 0.08391 0.0
H787 H 0.04838 0.67645 0.05161 0.0
H788 H 0.98973 0.71447 0.02826 0.0
C789 C 0.96462 0.70894 0.12256 0.0
C790 C 0.60867 0.78458 0.37289 0.0
C791 C 0.60815 0.81886 0.35193 0.0
H792 H 0.5879 0.72687 0.3759 0.0
C793 C 0.59178 0.81825 0.31445 0.0
H794 H 0.62093 0.78393 0.40186 0.0
C795 C 0.57324 0.78567 0.29972 0.0
C796 C 0.57094 0.75252 0.3217 0.0
H797 H 0.59164 0.84364 0.29703 0.0
H798 H 0.55828 0.78726 0.2719 0.0
C799 C 0.59012 0.75168 0.35792 0.0
C800 C 0.54282 0.37573 0.60372 0.0
C801 C 0.53542 0.34304 0.58094 0.0
H802 H 0.51636 0.42329 0.63576 0.0
C803 C 0.49634 0.33675 0.5675 0.0
H804 H 0.57277 0.38085 0.61462 0.0
C805 C 0.46447 0.36069 0.57932 0.0
C806 C 0.47095 0.39124 0.6052 0.0
H807 H 0.49006 0.31182 0.54963 0.0
H808 H 0.43437 0.354 0.5699 0.0
C809 C 0.51059 0.39979 0.61589 0.0
C810 C 0.09162 0.80806 0.66831 0.0
C811 C 0.10154 0.77832 0.69384 0.0
H812 H 0.06349 0.86349 0.66072 0.0
C813 C 0.09329 0.7839 0.73314 0.0
H814 H 0.09849 0.80509 0.63803 0.0
C815 C 0.07361 0.81767 0.74621 0.0
C816 C 0.06179 0.84637 0.72019 0.0
H817 H 0.10051 0.76156 0.75354 0.0
H818 H 0.06621 0.82061 0.77638 0.0
C819 C 0.07191 0.84167 0.68134 0.0
C820 C 0.49311 0.88045 1.01267 0.0
C821 C 0.47528 0.85084 0.99124 0.0
H822 H 0.5378 0.92338 1.01417 0.0
C823 C 0.48965 0.84185 0.95421 0.0
H824 H 0.48283 0.888 0.04133 0.0
C825 C 0.52105 0.86167 0.93898 0.0
C826 C 0.53896 0.89131 0.96014 0.0
H827 H 0.47696 0.81909 0.93685 0.0
H828 H 0.53168 0.85331 0.91064 0.0
C829 C 0.52477 0.90049 0.99726 0.0
C830 C 0.99008 0.2121 0.45243 0.0
C831 C 0.97322 0.18179 0.47191 0.0
H832 H 0.03211 0.25665 0.45338 0.0
C833 C 0.98677 0.17405 0.50961 0.0
H834 H 0.97988 0.21945 0.42372 0.0
C835 C 0.01708 0.19575 0.527 0.0
C836 C 0.03419 0.22574 0.50707 0.0
H837 H 0.97449 0.1508 0.52537 0.0
H838 H 0.02715 0.18896 0.55588 0.0
C839 C 0.02005 0.23365 0.46967 0.0
loop_
_geom_bond_atom_site_label_1
_geom_bond_atom_site_label_2
_geom_bond_distance
_geom_bond_site_symmetry_2
_ccdc_geom_bond_type
C0 Eu1 2.835 . S
C0 C2 1.500 . S
C0 O20 1.257 . S
C0 O21 1.260 . S
Eu1 C0 2.835 . S
Eu1 O20 2.473 . S
Eu1 O21 2.480 . S
Eu1 O22 2.430 . S
Eu1 O23 2.670 . S
Eu1 O24 2.394 . S
Eu1 O29 2.355 . S
Eu1 O31 2.374 . S
C2 C0 1.500 . S
C2 C3 1.377 . S
C2 C7 1.377 . S
C3 C2 1.377 . S
C3 C4 1.395 . S
C3 H32 0.931 . S
C4 C3 1.395 . S
C4 C5 1.383 . S
C4 H33 0.931 . S
C5 C4 1.383 . S
C5 C6 1.394 . S
C6 C5 1.394 . S
C6 C7 1.378 . S
C6 H34 0.931 . S
C7 C2 1.377 . S
C7 C6 1.378 . S
C7 H35 0.931 . S
C8 O22 1.259 . S
C8 O23 1.270 . S
C9 O24 1.251 . S
C9 O25 1.251 . S
C10 Eu11 2.835 . S
C10 C12 1.500 . S
C10 O26 1.257 . S
C10 O27 1.260 . S
Eu11 C10 2.835 . S
Eu11 O23 2.355 . S
Eu11 O25 2.374 . S
Eu11 O26 2.473 . S
Eu11 O27 2.480 . S
Eu11 O28 2.430 . S
Eu11 O29 2.670 . S
Eu11 O30 2.394 . S
C12 C10 1.500 . S
C12 C13 1.377 . S
C12 C17 1.377 . S
C13 C12 1.377 . S
C13 C14 1.395 . S
C13 H36 0.931 . S
C14 C13 1.395 . S
C14 C15 1.383 . S
C14 H37 0.931 . S
C15 C14 1.383 . S
C15 C16 1.394 . S
C16 C15 1.394 . S
C16 C17 1.378 . S
C16 H38 0.931 . S
C17 C12 1.377 . S
C17 C16 1.378 . S
C17 H39 0.931 . S
C18 O28 1.259 . S
C18 O29 1.270 . S
C19 O30 1.251 . S
C19 O31 1.251 . S
O20 C0 1.257 . S
O20 Eu1 2.473 . S
O21 C0 1.260 . S
O21 Eu1 2.480 . S
O22 Eu1 2.430 . S
O22 C8 1.259 . S
O23 Eu1 2.670 . S
O23 C8 1.270 . S
O23 Eu11 2.355 . S
O24 Eu1 2.394 . S
O24 C9 1.251 . S
O25 C9 1.251 . S
O25 Eu11 2.374 . S
O26 C10 1.257 . S
O26 Eu11 2.473 . S
O27 C10 1.260 . S
O27 Eu11 2.480 . S
O28 Eu11 2.430 . S
O28 C18 1.259 . S
O29 Eu1 2.355 . S
O29 Eu11 2.670 . S
O29 C18 1.270 . S
O30 Eu11 2.394 . S
O30 C19 1.251 . S
O31 Eu1 2.374 . S
O31 C19 1.251 . S
H32 C3 0.931 . S
H33 C4 0.931 . S
H34 C6 0.931 . S
H35 C7 0.931 . S
H36 C13 0.931 . S
H37 C14 0.931 . S
H38 C16 0.931 . S
H39 C17 0.931 . S
C40 Eu41 2.835 . S
C40 C42 1.500 . S
C40 O60 1.257 . S
C40 O61 1.260 . S
Eu41 C40 2.835 . S
Eu41 O60 2.473 . S
Eu41 O61 2.480 . S
Eu41 O62 2.430 1_455 S
Eu41 O63 2.670 1_455 S
Eu41 O64 2.394 1_455 S
Eu41 O69 2.355 . S
Eu41 O71 2.374 . S
C42 C40 1.500 . S
C42 C43 1.377 . S
C42 C47 1.377 . S
C43 C42 1.377 . S
C43 C44 1.395 . S
C43 H72 0.931 . S
C44 C43 1.395 . S
C44 C45 1.383 . S
C44 H73 0.931 . S
C45 C44 1.383 . S
C45 C46 1.394 . S
C46 C45 1.394 . S
C46 C47 1.378 . S
C46 H74 0.931 . S
C47 C42 1.377 . S
C47 C46 1.378 . S
C47 H75 0.931 . S
C48 O62 1.259 . S
C48 O63 1.270 . S
C49 O64 1.251 . S
C49 O65 1.251 . S
C50 Eu51 2.835 . S
C50 C52 1.500 . S
C50 O66 1.257 . S
C50 O67 1.260 . S
Eu51 C50 2.835 . S
Eu51 O63 2.355 . S
Eu51 O65 2.374 . S
Eu51 O66 2.473 . S
Eu51 O67 2.480 . S
Eu51 O68 2.430 1_655 S
Eu51 O69 2.670 1_655 S
Eu51 O70 2.394 1_655 S
C52 C50 1.500 . S
C52 C53 1.377 . S
C52 C57 1.377 . S
C53 C52 1.377 . S
C53 C54 1.395 . S
C53 H76 0.931 . S
C54 C53 1.395 . S
C54 C55 1.383 . S
C54 H77 0.931 . S
C55 C54 1.383 . S
C55 C56 1.394 . S
C56 C55 1.394 . S
C56 C57 1.378 . S
C56 H78 0.931 . S
C57 C52 1.377 . S
C57 C56 1.378 . S
C57 H79 0.931 . S
C58 O68 1.259 . S
C58 O69 1.270 . S
C59 O70 1.251 . S
C59 O71 1.251 . S
O60 C40 1.257 . S
O60 Eu41 2.473 . S
O61 C40 1.260 . S
O61 Eu41 2.480 . S
O62 Eu41 2.430 1_655 S
O62 C48 1.259 . S
O63 Eu41 2.670 1_655 S
O63 C48 1.270 . S
O63 Eu51 2.355 . S
O64 Eu41 2.394 1_655 S
O64 C49 1.251 . S
O65 C49 1.251 . S
O65 Eu51 2.374 . S
O66 C50 1.257 . S
O66 Eu51 2.473 . S
O67 C50 1.260 . S
O67 Eu51 2.480 . S
O68 Eu51 2.430 1_455 S
O68 C58 1.259 . S
O69 Eu41 2.355 . S
O69 Eu51 2.670 1_455 S
O69 C58 1.270 . S
O70 Eu51 2.394 1_455 S
O70 C59 1.251 . S
O71 Eu41 2.374 . S
O71 C59 1.251 . S
H72 C43 0.931 . S
H73 C44 0.931 . S
H74 C46 0.931 . S
H75 C47 0.931 . S
H76 C53 0.931 . S
H77 C54 0.931 . S
H78 C56 0.931 . S
H79 C57 0.931 . S
C80 Eu81 2.835 . S
C80 C82 1.500 . S
C80 O100 1.257 . S
C80 O101 1.260 . S
Eu81 C80 2.835 . S
Eu81 O100 2.473 . S
Eu81 O101 2.480 . S
Eu81 O102 2.430 1_556 S
Eu81 O103 2.670 1_556 S
Eu81 O104 2.394 1_556 S
Eu81 O109 2.355 . S
Eu81 O111 2.374 . S
C82 C80 1.500 . S
C82 C83 1.377 . S
C82 C87 1.377 . S
C83 C82 1.377 . S
C83 C84 1.395 . S
C83 H112 0.931 . S
C84 C83 1.395 . S
C84 C85 1.383 . S
C84 H113 0.931 . S
C85 C84 1.383 . S
C85 C86 1.394 . S
C86 C85 1.394 . S
C86 C87 1.378 . S
C86 H114 0.931 . S
C87 C82 1.377 . S
C87 C86 1.378 . S
C87 H115 0.931 . S
C88 O102 1.259 . S
C88 O103 1.270 . S
C89 O104 1.251 . S
C89 O105 1.251 . S
C90 Eu91 2.835 . S
C90 C92 1.500 . S
C90 O106 1.257 . S
C90 O107 1.260 . S
Eu91 C90 2.835 . S
Eu91 O103 2.355 . S
Eu91 O105 2.374 . S
Eu91 O106 2.473 . S
Eu91 O107 2.480 . S
Eu91 O108 2.430 1_554 S
Eu91 O109 2.670 1_554 S
Eu91 O110 2.394 1_554 S
C92 C90 1.500 . S
C92 C93 1.377 . S
C92 C97 1.377 . S
C93 C92 1.377 . S
C93 C94 1.395 . S
C93 H116 0.931 . S
C94 C93 1.395 . S
C94 C95 1.383 . S
C94 H117 0.931 . S
C95 C94 1.383 . S
C95 C96 1.394 . S
C96 C95 1.394 . S
C96 C97 1.378 . S
C96 H118 0.931 . S
C97 C92 1.377 . S
C97 C96 1.378 . S
C97 H119 0.931 . S
C98 O108 1.259 . S
C98 O109 1.270 . S
C99 O110 1.251 . S
C99 O111 1.251 . S
O100 C80 1.257 . S
O100 Eu81 2.473 . S
O101 C80 1.260 . S
O101 Eu81 2.480 . S
O102 Eu81 2.430 1_554 S
O102 C88 1.259 . S
O103 Eu81 2.670 1_554 S
O103 C88 1.270 . S
O103 Eu91 2.355 . S
O104 Eu81 2.394 1_554 S
O104 C89 1.251 . S
O105 C89 1.251 . S
O105 Eu91 2.374 . S
O106 C90 1.257 . S
O106 Eu91 2.473 . S
O107 C90 1.260 . S
O107 Eu91 2.480 . S
O108 Eu91 2.430 1_556 S
O108 C98 1.259 . S
O109 Eu81 2.355 . S
O109 Eu91 2.670 1_556 S
O109 C98 1.270 . S
O110 Eu91 2.394 1_556 S
O110 C99 1.251 . S
O111 Eu81 2.374 . S
O111 C99 1.251 . S
H112 C83 0.931 . S
H113 C84 0.931 . S
H114 C86 0.931 . S
H115 C87 0.931 . S
H116 C93 0.931 . S
H117 C94 0.931 . S
H118 C96 0.931 . S
H119 C97 0.931 . S
C120 Eu121 2.835 . S
C120 C122 1.500 . S
C120 O140 1.257 . S
C120 O141 1.260 . S
Eu121 C120 2.835 . S
Eu121 O140 2.473 . S
Eu121 O141 2.480 . S
Eu121 O142 2.430 . S
Eu121 O143 2.670 . S
Eu121 O144 2.394 . S
Eu121 O149 2.355 . S
Eu121 O151 2.374 . S
C122 C120 1.500 . S
C122 C123 1.377 . S
C122 C127 1.377 . S
C123 C122 1.377 . S
C123 C124 1.395 . S
C123 H152 0.931 . S
C124 C123 1.395 . S
C124 C125 1.383 . S
C124 H153 0.931 . S
C125 C124 1.383 . S
C125 C126 1.394 . S
C126 C125 1.394 . S
C126 C127 1.378 . S
C126 H154 0.931 . S
C127 C122 1.377 . S
C127 C126 1.378 . S
C127 H155 0.931 . S
C128 O142 1.259 . S
C128 O143 1.270 . S
C129 O144 1.251 . S
C129 O145 1.251 . S
C130 Eu131 2.835 . S
C130 C132 1.500 . S
C130 O146 1.257 . S
C130 O147 1.260 . S
Eu131 C130 2.835 . S
Eu131 O143 2.355 . S
Eu131 O145 2.374 . S
Eu131 O146 2.473 . S
Eu131 O147 2.480 . S
Eu131 O148 2.430 . S
Eu131 O149 2.670 . S
Eu131 O150 2.394 . S
C132 C130 1.500 . S
C132 C133 1.377 . S
C132 C137 1.377 . S
C133 C132 1.377 . S
C133 C134 1.395 . S
C133 H156 0.931 . S
C134 C133 1.395 . S
C134 C135 1.383 . S
C134 H157 0.931 . S
C135 C134 1.383 . S
C135 C136 1.394 . S
C136 C135 1.394 . S
C136 C137 1.378 . S
C136 H158 0.931 . S
C137 C132 1.377 . S
C137 C136 1.378 . S
C137 H159 0.931 . S
C138 O148 1.259 . S
C138 O149 1.270 . S
C139 O150 1.251 . S
C139 O151 1.251 . S
O140 C120 1.257 . S
O140 Eu121 2.473 . S
O141 C120 1.260 . S
O141 Eu121 2.480 . S
O142 Eu121 2.430 . S
O142 C128 1.259 . S
O143 Eu121 2.670 . S
O143 C128 1.270 . S
O143 Eu131 2.355 . S
O144 Eu121 2.394 . S
O144 C129 1.251 . S
O145 C129 1.251 . S
O145 Eu131 2.374 . S
O146 C130 1.257 . S
O146 Eu131 2.473 . S
O147 C130 1.260 . S
O147 Eu131 2.480 . S
O148 Eu131 2.430 . S
O148 C138 1.259 . S
O149 Eu121 2.355 . S
O149 Eu131 2.670 . S
O149 C138 1.270 . S
O150 Eu131 2.394 . S
O150 C139 1.251 . S
O151 Eu121 2.374 . S
O151 C139 1.251 . S
H152 C123 0.931 . S
H153 C124 0.931 . S
H154 C126 0.931 . S
H155 C127 0.931 . S
H156 C133 0.931 . S
H157 C134 0.931 . S
H158 C136 0.931 . S
H159 C137 0.931 . S
C160 Eu161 2.835 . S
C160 C162 1.500 . S
C160 O180 1.257 . S
C160 O181 1.260 . S
Eu161 C160 2.835 . S
Eu161 O180 2.473 . S
Eu161 O181 2.480 . S
Eu161 O182 2.430 . S
Eu161 O183 2.670 . S
Eu161 O184 2.394 . S
Eu161 O189 2.355 . S
Eu161 O191 2.374 . S
C162 C160 1.500 . S
C162 C163 1.377 . S
C162 C167 1.377 . S
C163 C162 1.377 . S
C163 C164 1.395 . S
C163 H192 0.931 . S
C164 C163 1.395 . S
C164 C165 1.383 . S
C164 H193 0.931 . S
C165 C164 1.383 . S
C165 C166 1.394 . S
C166 C165 1.394 . S
C166 C167 1.378 . S
C166 H194 0.931 . S
C167 C162 1.377 . S
C167 C166 1.378 . S
C167 H195 0.931 . S
C168 O182 1.259 . S
C168 O183 1.270 . S
C169 O184 1.251 . S
C169 O185 1.251 . S
C170 Eu171 2.835 . S
C170 C172 1.500 . S
C170 O186 1.257 . S
C170 O187 1.260 . S
Eu171 C170 2.835 . S
Eu171 O183 2.355 . S
Eu171 O185 2.374 . S
Eu171 O186 2.473 . S
Eu171 O187 2.480 . S
Eu171 O188 2.430 . S
Eu171 O189 2.670 . S
Eu171 O190 2.394 . S
C172 C170 1.500 . S
C172 C173 1.377 . S
C172 C177 1.377 . S
C173 C172 1.377 . S
C173 C174 1.395 . S
C173 H196 0.931 . S
C174 C173 1.395 . S
C174 C175 1.383 . S
C174 H197 0.931 . S
C175 C174 1.383 . S
C175 C176 1.394 . S
C176 C175 1.394 . S
C176 C177 1.378 . S
C176 H198 0.931 . S
C177 C172 1.377 . S
C177 C176 1.378 . S
C177 H199 0.931 . S
C178 O188 1.259 . S
C178 O189 1.270 . S
C179 O190 1.251 . S
C179 O191 1.251 . S
O180 C160 1.257 . S
O180 Eu161 2.473 . S
O181 C160 1.260 . S
O181 Eu161 2.480 . S
O182 Eu161 2.430 . S
O182 C168 1.259 . S
O183 Eu161 2.670 . S
O183 C168 1.270 . S
O183 Eu171 2.355 . S
O184 Eu161 2.394 . S
O184 C169 1.251 . S
O185 C169 1.251 . S
O185 Eu171 2.374 . S
O186 C170 1.257 . S
O186 Eu171 2.473 . S
O187 C170 1.260 . S
O187 Eu171 2.480 . S
O188 Eu171 2.430 . S
O188 C178 1.259 . S
O189 Eu161 2.355 . S
O189 Eu171 2.670 . S
O189 C178 1.270 . S
O190 Eu171 2.394 . S
O190 C179 1.251 . S
O191 Eu161 2.374 . S
O191 C179 1.251 . S
H192 C163 0.931 . S
H193 C164 0.931 . S
H194 C166 0.931 . S
H195 C167 0.931 . S
H196 C173 0.931 . S
H197 C174 0.931 . S
H198 C176 0.931 . S
H199 C177 0.931 . S
C200 Eu201 2.835 . S
C200 C202 1.500 . S
C200 O220 1.257 . S
C200 O221 1.260 . S
Eu201 C200 2.835 . S
Eu201 O220 2.473 . S
Eu201 O221 2.480 . S
Eu201 O222 2.430 . S
Eu201 O223 2.670 . S
Eu201 O224 2.394 . S
Eu201 O229 2.355 1_455 S
Eu201 O231 2.374 1_455 S
C202 C200 1.500 . S
C202 C203 1.377 . S
C202 C207 1.377 . S
C203 C202 1.377 . S
C203 C204 1.395 . S
C203 H232 0.931 . S
C204 C203 1.395 . S
C204 C205 1.383 . S
C204 H233 0.931 . S
C205 C204 1.383 . S
C205 C206 1.394 . S
C206 C205 1.394 . S
C206 C207 1.378 . S
C206 H234 0.931 . S
C207 C202 1.377 . S
C207 C206 1.378 . S
C207 H235 0.931 . S
C208 O222 1.259 . S
C208 O223 1.270 . S
C209 O224 1.251 . S
C209 O225 1.251 . S
C210 Eu211 2.835 . S
C210 C212 1.500 . S
C210 O226 1.257 . S
C210 O227 1.260 . S
Eu211 C210 2.835 . S
Eu211 O223 2.355 1_655 S
Eu211 O225 2.374 1_655 S
Eu211 O226 2.473 . S
Eu211 O227 2.480 . S
Eu211 O228 2.430 . S
Eu211 O229 2.670 . S
Eu211 O230 2.394 . S
C212 C210 1.500 . S
C212 C213 1.377 . S
C212 C217 1.377 . S
C213 C212 1.377 . S
C213 C214 1.395 . S
C213 H236 0.931 . S
C214 C213 1.395 . S
C214 C215 1.383 . S
C214 H237 0.931 . S
C215 C214 1.383 . S
C215 C216 1.394 . S
C216 C215 1.394 . S
C216 C217 1.378 . S
C216 H238 0.931 . S
C217 C212 1.377 . S
C217 C216 1.378 . S
C217 H239 0.931 . S
C218 O228 1.259 . S
C218 O229 1.270 . S
C219 O230 1.251 . S
C219 O231 1.251 . S
O220 C200 1.257 . S
O220 Eu201 2.473 . S
O221 C200 1.260 . S
O221 Eu201 2.480 . S
O222 Eu201 2.430 . S
O222 C208 1.259 . S
O223 Eu201 2.670 . S
O223 C208 1.270 . S
O223 Eu211 2.355 1_455 S
O224 Eu201 2.394 . S
O224 C209 1.251 . S
O225 C209 1.251 . S
O225 Eu211 2.374 1_455 S
O226 C210 1.257 . S
O226 Eu211 2.473 . S
O227 C210 1.260 . S
O227 Eu211 2.480 . S
O228 Eu211 2.430 . S
O228 C218 1.259 . S
O229 Eu201 2.355 1_655 S
O229 Eu211 2.670 . S
O229 C218 1.270 . S
O230 Eu211 2.394 . S
O230 C219 1.251 . S
O231 Eu201 2.374 1_655 S
O231 C219 1.251 . S
H232 C203 0.931 . S
H233 C204 0.931 . S
H234 C206 0.931 . S
H235 C207 0.931 . S
H236 C213 0.931 . S
H237 C214 0.931 . S
H238 C216 0.931 . S
H239 C217 0.931 . S
C240 Eu241 2.835 . S
C240 C242 1.500 . S
C240 O260 1.257 . S
C240 O261 1.260 . S
Eu241 C240 2.835 . S
Eu241 O260 2.473 . S
Eu241 O261 2.480 . S
Eu241 O262 2.430 . S
Eu241 O263 2.670 . S
Eu241 O264 2.394 . S
Eu241 O269 2.355 1_556 S
Eu241 O271 2.374 1_556 S
C242 C240 1.500 . S
C242 C243 1.377 . S
C242 C247 1.377 . S
C243 C242 1.377 . S
C243 C244 1.395 . S
C243 H272 0.931 . S
C244 C243 1.395 . S
C244 C245 1.383 . S
C244 H273 0.931 . S
C245 C244 1.383 . S
C245 C246 1.394 . S
C246 C245 1.394 . S
C246 C247 1.378 . S
C246 H274 0.931 . S
C247 C242 1.377 . S
C247 C246 1.378 . S
C247 H275 0.931 . S
C248 O262 1.259 . S
C248 O263 1.270 . S
C249 O264 1.251 . S
C249 O265 1.251 . S
C250 Eu251 2.835 . S
C250 C252 1.500 . S
C250 O266 1.257 . S
C250 O267 1.260 . S
Eu251 C250 2.835 . S
Eu251 O263 2.355 1_554 S
Eu251 O265 2.374 1_554 S
Eu251 O266 2.473 . S
Eu251 O267 2.480 . S
Eu251 O268 2.430 . S
Eu251 O269 2.670 . S
Eu251 O270 2.394 . S
C252 C250 1.500 . S
C252 C253 1.377 . S
C252 C257 1.377 . S
C253 C252 1.377 . S
C253 C254 1.395 . S
C253 H276 0.931 . S
C254 C253 1.395 . S
C254 C255 1.383 . S
C254 H277 0.931 . S
C255 C254 1.383 . S
C255 C256 1.394 . S
C256 C255 1.394 . S
C256 C257 1.378 . S
C256 H278 0.931 . S
C257 C252 1.377 . S
C257 C256 1.378 . S
C257 H279 0.931 . S
C258 O268 1.259 . S
C258 O269 1.270 . S
C259 O270 1.251 . S
C259 O271 1.251 . S
O260 C240 1.257 . S
O260 Eu241 2.473 . S
O261 C240 1.260 . S
O261 Eu241 2.480 . S
O262 Eu241 2.430 . S
O262 C248 1.259 . S
O263 Eu241 2.670 . S
O263 C248 1.270 . S
O263 Eu251 2.355 1_556 S
O264 Eu241 2.394 . S
O264 C249 1.251 . S
O265 C249 1.251 . S
O265 Eu251 2.374 1_556 S
O266 C250 1.257 . S
O266 Eu251 2.473 . S
O267 C250 1.260 . S
O267 Eu251 2.480 . S
O268 Eu251 2.430 . S
O268 C258 1.259 . S
O269 Eu241 2.355 1_554 S
O269 Eu251 2.670 . S
O269 C258 1.270 . S
O270 Eu251 2.394 . S
O270 C259 1.251 . S
O271 Eu241 2.374 1_554 S
O271 C259 1.251 . S
H272 C243 0.931 . S
H273 C244 0.931 . S
H274 C246 0.931 . S
H275 C247 0.931 . S
H276 C253 0.931 . S
H277 C254 0.931 . S
H278 C256 0.931 . S
H279 C257 0.931 . S
C280 Eu281 2.835 . S
C280 C282 1.500 . S
C280 O300 1.257 . S
C280 O301 1.260 . S
Eu281 C280 2.835 . S
Eu281 O300 2.473 . S
Eu281 O301 2.480 . S
Eu281 O302 2.430 . S
Eu281 O303 2.670 . S
Eu281 O304 2.394 . S
Eu281 O309 2.355 . S
Eu281 O311 2.374 . S
C282 C280 1.500 . S
C282 C283 1.377 . S
C282 C287 1.377 . S
C283 C282 1.377 . S
C283 C284 1.395 . S
C283 H312 0.931 . S
C284 C283 1.395 . S
C284 C285 1.383 . S
C284 H313 0.931 . S
C285 C284 1.383 . S
C285 C286 1.394 . S
C286 C285 1.394 . S
C286 C287 1.378 . S
C286 H314 0.931 . S
C287 C282 1.377 . S
C287 C286 1.378 . S
C287 H315 0.931 . S
C288 O302 1.259 . S
C288 O303 1.270 . S
C289 O304 1.251 . S
C289 O305 1.251 . S
C290 Eu291 2.835 . S
C290 C292 1.500 . S
C290 O306 1.257 . S
C290 O307 1.260 . S
Eu291 C290 2.835 . S
Eu291 O303 2.355 . S
Eu291 O305 2.374 . S
Eu291 O306 2.473 . S
Eu291 O307 2.480 . S
Eu291 O308 2.430 . S
Eu291 O309 2.670 . S
Eu291 O310 2.394 . S
C292 C290 1.500 . S
C292 C293 1.377 . S
C292 C297 1.377 . S
C293 C292 1.377 . S
C293 C294 1.395 . S
C293 H316 0.931 . S
C294 C293 1.395 . S
C294 C295 1.383 . S
C294 H317 0.931 . S
C295 C294 1.383 . S
C295 C296 1.394 . S
C296 C295 1.394 . S
C296 C297 1.378 . S
C296 H318 0.931 . S
C297 C292 1.377 . S
C297 C296 1.378 . S
C297 H319 0.931 . S
C298 O308 1.259 . S
C298 O309 1.270 . S
C299 O310 1.251 . S
C299 O311 1.251 . S
O300 C280 1.257 . S
O300 Eu281 2.473 . S
O301 C280 1.260 . S
O301 Eu281 2.480 . S
O302 Eu281 2.430 . S
O302 C288 1.259 . S
O303 Eu281 2.670 . S
O303 C288 1.270 . S
O303 Eu291 2.355 . S
O304 Eu281 2.394 . S
O304 C289 1.251 . S
O305 C289 1.251 . S
O305 Eu291 2.374 . S
O306 C290 1.257 . S
O306 Eu291 2.473 . S
O307 C290 1.260 . S
O307 Eu291 2.480 . S
O308 Eu291 2.430 . S
O308 C298 1.259 . S
O309 Eu281 2.355 . S
O309 Eu291 2.670 . S
O309 C298 1.270 . S
O310 Eu291 2.394 . S
O310 C299 1.251 . S
O311 Eu281 2.374 . S
O311 C299 1.251 . S
H312 C283 0.931 . S
H313 C284 0.931 . S
H314 C286 0.931 . S
H315 C287 0.931 . S
H316 C293 0.931 . S
H317 C294 0.931 . S
H318 C296 0.931 . S
H319 C297 0.931 . S
C320 Eu321 2.835 . S
C320 C322 1.500 . S
C320 O340 1.257 . S
C320 O341 1.260 . S
Eu321 C320 2.835 . S
Eu321 O340 2.473 . S
Eu321 O341 2.480 . S
Eu321 O342 2.430 . S
Eu321 O343 2.670 . S
Eu321 O344 2.394 . S
Eu321 O349 2.355 . S
Eu321 O351 2.374 . S
C322 C320 1.500 . S
C322 C323 1.377 . S
C322 C327 1.377 . S
C323 C322 1.377 . S
C323 C324 1.395 . S
C323 H352 0.931 . S
C324 C323 1.395 . S
C324 C325 1.383 . S
C324 H353 0.931 . S
C325 C324 1.383 . S
C325 C326 1.394 . S
C326 C325 1.394 . S
C326 C327 1.378 . S
C326 H354 0.931 . S
C327 C322 1.377 . S
C327 C326 1.378 . S
C327 H355 0.931 . S
C328 O342 1.259 . S
C328 O343 1.270 . S
C329 O344 1.251 . S
C329 O345 1.251 . S
C330 Eu331 2.835 . S
C330 C332 1.500 . S
C330 O346 1.257 . S
C330 O347 1.260 . S
Eu331 C330 2.835 . S
Eu331 O343 2.355 . S
Eu331 O345 2.374 . S
Eu331 O346 2.473 . S
Eu331 O347 2.480 . S
Eu331 O348 2.430 . S
Eu331 O349 2.670 . S
Eu331 O350 2.394 . S
C332 C330 1.500 . S
C332 C333 1.377 . S
C332 C337 1.377 . S
C333 C332 1.377 . S
C333 C334 1.395 . S
C333 H356 0.931 . S
C334 C333 1.395 . S
C334 C335 1.383 . S
C334 H357 0.931 . S
C335 C334 1.383 . S
C335 C336 1.394 . S
C336 C335 1.394 . S
C336 C337 1.378 . S
C336 H358 0.931 . S
C337 C332 1.377 . S
C337 C336 1.378 . S
C337 H359 0.931 . S
C338 O348 1.259 . S
C338 O349 1.270 . S
C339 O350 1.251 . S
C339 O351 1.251 . S
O340 C320 1.257 . S
O340 Eu321 2.473 . S
O341 C320 1.260 . S
O341 Eu321 2.480 . S
O342 Eu321 2.430 . S
O342 C328 1.259 . S
O343 Eu321 2.670 . S
O343 C328 1.270 . S
O343 Eu331 2.355 . S
O344 Eu321 2.394 . S
O344 C329 1.251 . S
O345 C329 1.251 . S
O345 Eu331 2.374 . S
O346 C330 1.257 . S
O346 Eu331 2.473 . S
O347 C330 1.260 . S
O347 Eu331 2.480 . S
O348 Eu331 2.430 . S
O348 C338 1.259 . S
O349 Eu321 2.355 . S
O349 Eu331 2.670 . S
O349 C338 1.270 . S
O350 Eu331 2.394 . S
O350 C339 1.251 . S
O351 Eu321 2.374 . S
O351 C339 1.251 . S
H352 C323 0.931 . S
H353 C324 0.931 . S
H354 C326 0.931 . S
H355 C327 0.931 . S
H356 C333 0.931 . S
H357 C334 0.931 . S
H358 C336 0.931 . S
H359 C337 0.931 . S
C360 Eu361 2.835 . S
C360 C362 1.500 . S
C360 O380 1.257 . S
C360 O381 1.260 . S
Eu361 C360 2.835 . S
Eu361 O380 2.473 . S
Eu361 O381 2.480 . S
Eu361 O382 2.430 . S
Eu361 O383 2.670 1_565 S
Eu361 O384 2.394 . S
Eu361 O389 2.355 1_565 S
Eu361 O391 2.374 1_565 S
C362 C360 1.500 . S
C362 C363 1.377 . S
C362 C367 1.377 . S
C363 C362 1.377 . S
C363 C364 1.395 . S
C363 H392 0.931 . S
C364 C363 1.395 . S
C364 C365 1.383 . S
C364 H393 0.931 . S
C365 C364 1.383 . S
C365 C366 1.394 . S
C366 C365 1.394 . S
C366 C367 1.378 . S
C366 H394 0.931 . S
C367 C362 1.377 . S
C367 C366 1.378 . S
C367 H395 0.931 . S
C368 O382 1.259 . S
C368 O383 1.270 1_565 S
C369 O384 1.251 . S
C369 O385 1.251 . S
C370 Eu371 2.835 . S
C370 C372 1.500 . S
C370 O386 1.257 . S
C370 O387 1.260 . S
Eu371 C370 2.835 . S
Eu371 O383 2.355 . S
Eu371 O385 2.374 1_545 S
Eu371 O386 2.473 . S
Eu371 O387 2.480 . S
Eu371 O388 2.430 . S
Eu371 O389 2.670 . S
Eu371 O390 2.394 . S
C372 C370 1.500 . S
C372 C373 1.377 . S
C372 C377 1.377 . S
C373 C372 1.377 . S
C373 C374 1.395 . S
C373 H396 0.931 . S
C374 C373 1.395 . S
C374 C375 1.383 . S
C374 H397 0.931 . S
C375 C374 1.383 . S
C375 C376 1.394 . S
C376 C375 1.394 . S
C376 C377 1.378 . S
C376 H398 0.931 . S
C377 C372 1.377 . S
C377 C376 1.378 . S
C377 H399 0.931 . S
C378 O388 1.259 . S
C378 O389 1.270 . S
C379 O390 1.251 . S
C379 O391 1.251 . S
O380 C360 1.257 . S
O380 Eu361 2.473 . S
O381 C360 1.260 . S
O381 Eu361 2.480 . S
O382 Eu361 2.430 . S
O382 C368 1.259 . S
O383 Eu361 2.670 1_545 S
O383 C368 1.270 1_545 S
O383 Eu371 2.355 . S
O384 Eu361 2.394 . S
O384 C369 1.251 . S
O385 C369 1.251 . S
O385 Eu371 2.374 1_565 S
O386 C370 1.257 . S
O386 Eu371 2.473 . S
O387 C370 1.260 . S
O387 Eu371 2.480 . S
O388 Eu371 2.430 . S
O388 C378 1.259 . S
O389 Eu361 2.355 1_545 S
O389 Eu371 2.670 . S
O389 C378 1.270 . S
O390 Eu371 2.394 . S
O390 C379 1.251 . S
O391 Eu361 2.374 1_545 S
O391 C379 1.251 . S
H392 C363 0.931 . S
H393 C364 0.931 . S
H394 C366 0.931 . S
H395 C367 0.931 . S
H396 C373 0.931 . S
H397 C374 0.931 . S
H398 C376 0.931 . S
H399 C377 0.931 . S
C400 Eu401 2.835 . S
C400 C402 1.500 . S
C400 O420 1.257 . S
C400 O421 1.260 . S
Eu401 C400 2.835 . S
Eu401 O420 2.473 . S
Eu401 O421 2.480 . S
Eu401 O422 2.430 . S
Eu401 O423 2.670 . S
Eu401 O424 2.394 . S
Eu401 O429 2.355 1_545 S
Eu401 O431 2.374 1_545 S
C402 C400 1.500 . S
C402 C403 1.377 . S
C402 C407 1.377 . S
C403 C402 1.377 . S
C403 C404 1.395 . S
C403 H432 0.931 . S
C404 C403 1.395 . S
C404 C405 1.383 . S
C404 H433 0.931 . S
C405 C404 1.383 . S
C405 C406 1.394 . S
C406 C405 1.394 . S
C406 C407 1.378 . S
C406 H434 0.931 . S
C407 C402 1.377 . S
C407 C406 1.378 . S
C407 H435 0.931 . S
C408 O422 1.259 . S
C408 O423 1.270 . S
C409 O424 1.251 . S
C409 O425 1.251 . S
C410 Eu411 2.835 . S
C410 C412 1.500 . S
C410 O426 1.257 . S
C410 O427 1.260 . S
Eu411 C410 2.835 . S
Eu411 O423 2.355 1_565 S
Eu411 O425 2.374 1_565 S
Eu411 O426 2.473 . S
Eu411 O427 2.480 . S
Eu411 O428 2.430 . S
Eu411 O429 2.670 . S
Eu411 O430 2.394 . S
C412 C410 1.500 . S
C412 C413 1.377 . S
C412 C417 1.377 . S
C413 C412 1.377 . S
C413 C414 1.395 . S
C413 H436 0.931 . S
C414 C413 1.395 . S
C414 C415 1.383 . S
C414 H437 0.931 . S
C415 C414 1.383 . S
C415 C416 1.394 . S
C416 C415 1.394 . S
C416 C417 1.378 . S
C416 H438 0.931 . S
C417 C412 1.377 . S
C417 C416 1.378 . S
C417 H439 0.931 . S
C418 O428 1.259 . S
C418 O429 1.270 . S
C419 O430 1.251 . S
C419 O431 1.251 . S
O420 C400 1.257 . S
O420 Eu401 2.473 . S
O421 C400 1.260 . S
O421 Eu401 2.480 . S
O422 Eu401 2.430 . S
O422 C408 1.259 . S
O423 Eu401 2.670 . S
O423 C408 1.270 . S
O423 Eu411 2.355 1_545 S
O424 Eu401 2.394 . S
O424 C409 1.251 . S
O425 C409 1.251 . S
O425 Eu411 2.374 1_545 S
O426 C410 1.257 . S
O426 Eu411 2.473 . S
O427 C410 1.260 . S
O427 Eu411 2.480 . S
O428 Eu411 2.430 . S
O428 C418 1.259 . S
O429 Eu401 2.355 1_565 S
O429 Eu411 2.670 . S
O429 C418 1.270 . S
O430 Eu411 2.394 . S
O430 C419 1.251 . S
O431 Eu401 2.374 1_565 S
O431 C419 1.251 . S
H432 C403 0.931 . S
H433 C404 0.931 . S
H434 C406 0.931 . S
H435 C407 0.931 . S
H436 C413 0.931 . S
H437 C414 0.931 . S
H438 C416 0.931 . S
H439 C417 0.931 . S
C440 Eu441 2.835 . S
C440 C442 1.500 . S
C440 O460 1.257 . S
C440 O461 1.260 . S
Eu441 C440 2.835 . S
Eu441 O460 2.473 . S
Eu441 O461 2.480 . S
Eu441 O462 2.430 . S
Eu441 O463 2.670 . S
Eu441 O464 2.394 . S
Eu441 O469 2.355 . S
Eu441 O471 2.374 . S
C442 C440 1.500 . S
C442 C443 1.377 . S
C442 C447 1.377 . S
C443 C442 1.377 . S
C443 C444 1.395 . S
C443 H472 0.931 . S
C444 C443 1.395 . S
C444 C445 1.383 . S
C444 H473 0.931 . S
C445 C444 1.383 . S
C445 C446 1.394 . S
C446 C445 1.394 . S
C446 C447 1.378 . S
C446 H474 0.931 . S
C447 C442 1.377 . S
C447 C446 1.378 . S
C447 H475 0.931 . S
C448 O462 1.259 . S
C448 O463 1.270 . S
C449 O464 1.251 . S
C449 O465 1.251 . S
C450 Eu451 2.835 . S
C450 C452 1.500 . S
C450 O466 1.257 . S
C450 O467 1.260 . S
Eu451 C450 2.835 . S
Eu451 O463 2.355 . S
Eu451 O465 2.374 . S
Eu451 O466 2.473 . S
Eu451 O467 2.480 . S
Eu451 O468 2.430 . S
Eu451 O469 2.670 . S
Eu451 O470 2.394 . S
C452 C450 1.500 . S
C452 C453 1.377 . S
C452 C457 1.377 . S
C453 C452 1.377 . S
C453 C454 1.395 . S
C453 H476 0.931 . S
C454 C453 1.395 . S
C454 C455 1.383 . S
C454 H477 0.931 . S
C455 C454 1.383 . S
C455 C456 1.394 . S
C456 C455 1.394 . S
C456 C457 1.378 . S
C456 H478 0.931 . S
C457 C452 1.377 . S
C457 C456 1.378 . S
C457 H479 0.931 . S
C458 O468 1.259 . S
C458 O469 1.270 . S
C459 O470 1.251 . S
C459 O471 1.251 . S
O460 C440 1.257 . S
O460 Eu441 2.473 . S
O461 C440 1.260 . S
O461 Eu441 2.480 . S
O462 Eu441 2.430 . S
O462 C448 1.259 . S
O463 Eu441 2.670 . S
O463 C448 1.270 . S
O463 Eu451 2.355 . S
O464 Eu441 2.394 . S
O464 C449 1.251 . S
O465 C449 1.251 . S
O465 Eu451 2.374 . S
O466 C450 1.257 . S
O466 Eu451 2.473 . S
O467 C450 1.260 . S
O467 Eu451 2.480 . S
O468 Eu451 2.430 . S
O468 C458 1.259 . S
O469 Eu441 2.355 . S
O469 Eu451 2.670 . S
O469 C458 1.270 . S
O470 Eu451 2.394 . S
O470 C459 1.251 . S
O471 Eu441 2.374 . S
O471 C459 1.251 . S
H472 C443 0.931 . S
H473 C444 0.931 . S
H474 C446 0.931 . S
H475 C447 0.931 . S
H476 C453 0.931 . S
H477 C454 0.931 . S
H478 C456 0.931 . S
H479 C457 0.931 . S
C480 C481 1.387 . S
C480 H484 0.950 . S
C480 C489 1.390 . S
C481 C480 1.387 . S
C481 C483 1.387 . S
H482 C489 0.950 . S
C483 C481 1.387 . S
C483 C485 1.390 . S
C483 H487 0.950 . S
H484 C480 0.950 . S
C485 C483 1.390 . S
C485 C486 1.387 . S
C485 H488 0.950 . S
C486 C485 1.387 . S
C486 C489 1.387 . S
H487 C483 0.950 . S
H488 C485 0.950 . S
C489 C480 1.390 . S
C489 H482 0.950 . S
C489 C486 1.387 . S
C490 C491 1.387 . S
C490 H494 0.950 . S
C490 C499 1.390 . S
C491 C490 1.387 . S
C491 C493 1.387 . S
H492 C499 0.950 . S
C493 C491 1.387 . S
C493 C495 1.390 . S
C493 H497 0.950 . S
H494 C490 0.950 . S
C495 C493 1.390 . S
C495 C496 1.387 . S
C495 H498 0.950 . S
C496 C495 1.387 . S
C496 C499 1.387 . S
H497 C493 0.950 . S
H498 C495 0.950 . S
C499 C490 1.390 . S
C499 H492 0.950 . S
C499 C496 1.387 . S
C500 C501 1.387 . S
C500 H504 0.950 1_554 S
C500 C509 1.390 . S
C501 C500 1.387 . S
C501 C503 1.387 . S
H502 C509 0.950 . S
C503 C501 1.387 . S
C503 C505 1.390 . S
C503 H507 0.950 . S
H504 C500 0.950 1_556 S
C505 C503 1.390 . S
C505 C506 1.387 . S
C505 H508 0.950 . S
C506 C505 1.387 . S
C506 C509 1.387 . S
H507 C503 0.950 . S
H508 C505 0.950 . S
C509 C500 1.390 . S
C509 H502 0.950 . S
C509 C506 1.387 . S
C510 C511 1.387 . S
C510 H514 0.950 . S
C510 C519 1.390 . S
C511 C510 1.387 . S
C511 C513 1.387 . S
H512 C519 0.950 . S
C513 C511 1.387 . S
C513 C515 1.390 . S
C513 H517 0.950 . S
H514 C510 0.950 . S
C515 C513 1.390 . S
C515 C516 1.387 . S
C515 H518 0.950 . S
C516 C515 1.387 . S
C516 C519 1.387 . S
H517 C513 0.950 . S
H518 C515 0.950 . S
C519 C510 1.390 . S
C519 H512 0.950 . S
C519 C516 1.387 . S
C520 C521 1.387 . S
C520 H524 0.950 . S
C520 C529 1.390 . S
C521 C520 1.387 . S
C521 C523 1.387 . S
H522 C529 0.950 . S
C523 C521 1.387 . S
C523 C525 1.390 . S
C523 H527 0.950 . S
H524 C520 0.950 . S
C525 C523 1.390 . S
C525 C526 1.387 . S
C525 H528 0.950 . S
C526 C525 1.387 . S
C526 C529 1.387 . S
H527 C523 0.950 . S
H528 C525 0.950 . S
C529 C520 1.390 . S
C529 H522 0.950 . S
C529 C526 1.387 . S
C530 C531 1.387 . S
C530 H534 0.950 . S
C530 C539 1.390 . S
C531 C530 1.387 . S
C531 C533 1.387 . S
H532 C539 0.950 . S
C533 C531 1.387 . S
C533 C535 1.390 . S
C533 H537 0.950 . S
H534 C530 0.950 . S
C535 C533 1.390 . S
C535 C536 1.387 . S
C535 H538 0.950 . S
C536 C535 1.387 . S
C536 C539 1.387 . S
H537 C533 0.950 . S
H538 C535 0.950 . S
C539 C530 1.390 . S
C539 H532 0.950 . S
C539 C536 1.387 . S
C540 C541 1.387 . S
C540 H544 0.950 1_556 S
C540 C549 1.390 . S
C541 C540 1.387 . S
C541 C543 1.387 . S
H542 C549 0.950 1_554 S
C543 C541 1.387 . S
C543 C545 1.390 . S
C543 H547 0.950 . S
H544 C540 0.950 1_554 S
C545 C543 1.390 . S
C545 C546 1.387 . S
C545 H548 0.950 . S
C546 C545 1.387 . S
C546 C549 1.387 . S
H547 C543 0.950 . S
H548 C545 0.950 . S
C549 C540 1.390 . S
C549 H542 0.950 1_556 S
C549 C546 1.387 . S
C550 C551 1.387 . S
C550 H554 0.950 . S
C550 C559 1.390 . S
C551 C550 1.387 . S
C551 C553 1.387 . S
H552 C559 0.950 . S
C553 C551 1.387 . S
C553 C555 1.390 . S
C553 H557 0.950 . S
H554 C550 0.950 . S
C555 C553 1.390 . S
C555 C556 1.387 . S
C555 H558 0.950 . S
C556 C555 1.387 . S
C556 C559 1.387 . S
H557 C553 0.950 . S
H558 C555 0.950 . S
C559 C550 1.390 . S
C559 H552 0.950 . S
C559 C556 1.387 . S
C560 C561 1.387 . S
C560 H564 0.950 . S
C560 C569 1.390 . S
C561 C560 1.387 . S
C561 C563 1.387 . S
H562 C569 0.950 . S
C563 C561 1.387 . S
C563 C565 1.390 . S
C563 H567 0.950 . S
H564 C560 0.950 . S
C565 C563 1.390 . S
C565 C566 1.387 . S
C565 H568 0.950 . S
C566 C565 1.387 . S
C566 C569 1.387 . S
H567 C563 0.950 . S
H568 C565 0.950 . S
C569 C560 1.390 . S
C569 H562 0.950 . S
C569 C566 1.387 . S
C570 C571 1.387 . S
C570 H574 0.950 . S
C570 C579 1.390 . S
C571 C570 1.387 . S
C571 C573 1.387 . S
H572 C579 0.950 . S
C573 C571 1.387 . S
C573 C575 1.390 . S
C573 H577 0.931 1_455 S
H574 C570 0.950 . S
C575 C573 1.390 . S
C575 C576 1.387 . S
C575 H578 0.950 1_455 S
C576 C575 1.387 . S
C576 C579 1.387 . S
H577 C573 0.931 1_655 S
H578 C575 0.950 1_655 S
C579 C570 1.390 . S
C579 H572 0.950 . S
C579 C576 1.387 . S
C580 C581 1.387 . S
C580 H584 0.950 . S
C580 C589 1.390 . S
C581 C580 1.387 . S
C581 C583 1.387 . S
H582 C589 0.950 . S
C583 C581 1.387 . S
C583 C585 1.390 . S
C583 H587 0.950 . S
H584 C580 0.950 . S
C585 C583 1.390 . S
C585 C586 1.387 . S
C585 H588 0.950 . S
C586 C585 1.387 . S
C586 C589 1.387 . S
H587 C583 0.950 . S
H588 C585 0.950 . S
C589 C580 1.390 . S
C589 H582 0.950 . S
C589 C586 1.387 . S
C590 C591 1.387 . S
C590 H594 0.950 . S
C590 C599 1.390 . S
C591 C590 1.387 . S
C591 C593 1.387 . S
H592 C599 0.950 . S
C593 C591 1.387 . S
C593 C595 1.390 . S
C593 H597 0.950 . S
H594 C590 0.950 . S
C595 C593 1.390 . S
C595 C596 1.387 . S
C595 H598 0.950 . S
C596 C595 1.387 . S
C596 C599 1.387 . S
H597 C593 0.950 . S
H598 C595 0.950 . S
C599 C590 1.390 . S
C599 H592 0.950 . S
C599 C596 1.387 . S
C600 C601 1.387 . S
C600 H604 0.950 . S
C600 C609 1.390 . S
C601 C600 1.387 . S
C601 C603 1.387 . S
H602 C609 0.950 . S
C603 C601 1.387 . S
C603 C605 1.390 . S
C603 H607 0.950 . S
H604 C600 0.950 . S
C605 C603 1.390 . S
C605 C606 1.387 . S
C605 H608 0.950 . S
C606 C605 1.387 . S
C606 C609 1.387 . S
H607 C603 0.950 . S
H608 C605 0.950 . S
C609 C600 1.390 . S
C609 H602 0.950 . S
C609 C606 1.387 . S
C610 C611 1.387 . S
C610 H614 0.950 . S
C610 C619 1.390 . S
C611 C610 1.387 . S
C611 C613 1.387 . S
H612 C619 0.950 . S
C613 C611 1.387 . S
C613 C615 1.390 . S
C613 H617 0.950 . S
H614 C610 0.950 . S
C615 C613 1.390 . S
C615 C616 1.387 . S
C615 H618 0.950 . S
C616 C615 1.387 . S
C616 C619 1.387 . S
H617 C613 0.950 . S
H618 C615 0.950 . S
C619 C610 1.390 . S
C619 H612 0.950 . S
C619 C616 1.387 . S
C620 C621 1.387 . S
C620 H624 0.950 . S
C620 C629 1.390 . S
C621 C620 1.387 . S
C621 C623 1.387 . S
H622 C629 0.950 . S
C623 C621 1.387 . S
C623 C625 1.390 . S
C623 H627 0.950 . S
H624 C620 0.950 . S
C625 C623 1.390 . S
C625 C626 1.387 . S
C625 H628 0.950 . S
C626 C625 1.387 . S
C626 C629 1.387 . S
H627 C623 0.950 . S
H628 C625 0.950 . S
C629 C620 1.390 . S
C629 H622 0.950 . S
C629 C626 1.387 . S
C630 C631 1.387 . S
C630 H634 0.950 . S
C630 C639 1.390 1_554 S
C631 C630 1.387 . S
C631 C633 1.387 . S
H632 C639 0.950 . S
C633 C631 1.387 . S
C633 C635 1.390 1_554 S
C633 H637 0.950 . S
H634 C630 0.950 . S
C635 C633 1.390 1_556 S
C635 C636 1.387 . S
C635 H638 0.950 . S
C636 C635 1.387 . S
C636 C639 1.387 . S
H637 C633 0.950 . S
H638 C635 0.950 . S
C639 C630 1.390 1_556 S
C639 H632 0.950 . S
C639 C636 1.387 . S
C640 C641 1.387 . S
C640 H644 0.950 . S
C640 C649 1.390 . S
C641 C640 1.387 . S
C641 C643 1.387 . S
H642 C649 0.950 . S
C643 C641 1.387 . S
C643 C645 1.390 . S
C643 H647 0.950 . S
H644 C640 0.950 . S
C645 C643 1.390 . S
C645 C646 1.387 . S
C645 H648 0.950 . S
C646 C645 1.387 . S
C646 C649 1.387 . S
H647 C643 0.950 . S
H648 C645 0.950 . S
C649 C640 1.390 . S
C649 H642 0.950 . S
C649 C646 1.387 . S
C650 C651 1.387 . S
C650 H654 0.950 . S
C650 C659 1.390 1_554 S
C651 C650 1.387 . S
C651 C653 1.387 . S
H652 C659 0.950 . S
C653 C651 1.387 . S
C653 C655 1.390 1_554 S
C653 H657 0.950 . S
H654 C650 0.950 . S
C655 C653 1.390 1_556 S
C655 C656 1.387 . S
C655 H658 0.950 . S
C656 C655 1.387 . S
C656 C659 1.387 . S
H657 C653 0.950 . S
H658 C655 0.950 . S
C659 C650 1.390 1_556 S
C659 H652 0.950 . S
C659 C656 1.387 . S
C660 C661 1.387 . S
C660 H664 0.950 . S
C660 C669 1.390 . S
C661 C660 1.387 . S
C661 C663 1.387 . S
H662 C669 0.950 . S
C663 C661 1.387 . S
C663 C665 1.390 . S
C663 H667 0.950 . S
H664 C660 0.950 . S
C665 C663 1.390 . S
C665 C666 1.387 . S
C665 H668 0.950 . S
C666 C665 1.387 . S
C666 C669 1.387 . S
H667 C663 0.950 . S
H668 C665 0.950 . S
C669 C660 1.390 . S
C669 H662 0.950 . S
C669 C666 1.387 . S
C670 C671 1.387 . S
C670 H674 0.950 . S
C670 C679 1.390 . S
C671 C670 1.387 . S
C671 C673 1.387 . S
H672 C679 0.950 . S
C673 C671 1.387 . S
C673 C675 1.390 . S
C673 H677 0.950 . S
H674 C670 0.950 . S
C675 C673 1.390 . S
C675 C676 1.387 . S
C675 H678 0.950 . S
C676 C675 1.387 . S
C676 C679 1.387 . S
H677 C673 0.950 . S
H678 C675 0.950 . S
C679 C670 1.390 . S
C679 H672 0.950 . S
C679 C676 1.387 . S
C680 C681 1.387 . S
C680 H684 0.950 . S
C680 C689 1.390 . S
C681 C680 1.387 . S
C681 C683 1.387 . S
H682 C689 0.950 . S
C683 C681 1.387 . S
C683 C685 1.390 . S
C683 H687 0.950 . S
H684 C680 0.950 . S
C685 C683 1.390 . S
C685 C686 1.387 . S
C685 H688 0.950 . S
C686 C685 1.387 . S
C686 C689 1.387 . S
H687 C683 0.950 . S
H688 C685 0.950 . S
C689 C680 1.390 . S
C689 H682 0.950 . S
C689 C686 1.387 . S
C690 C691 1.387 . S
C690 H694 0.950 . S
C690 C699 1.390 1_545 S
C691 C690 1.387 . S
C691 C693 1.387 . S
H692 C699 0.950 . S
C693 C691 1.387 . S
C693 C695 1.390 1_545 S
C693 H697 0.950 . S
H694 C690 0.950 . S
C695 C693 1.390 1_565 S
C695 C696 1.387 . S
C695 H698 0.950 . S
C696 C695 1.387 . S
C696 C699 1.387 . S
H697 C693 0.950 . S
H698 C695 0.950 . S
C699 C690 1.390 1_565 S
C699 H692 0.950 . S
C699 C696 1.387 . S
C700 C701 1.387 . S
C700 H704 0.950 1_556 S
C700 C709 1.390 . S
C701 C700 1.387 . S
C701 C703 1.387 . S
H702 C709 0.950 1_554 S
C703 C701 1.387 . S
C703 C705 1.390 . S
C703 H707 0.950 . S
H704 C700 0.950 1_554 S
C705 C703 1.390 . S
C705 C706 1.387 . S
C705 H708 0.950 . S
C706 C705 1.387 . S
C706 C709 1.387 . S
H707 C703 0.950 . S
H708 C705 0.950 . S
C709 C700 1.390 . S
C709 H702 0.950 1_556 S
C709 C706 1.387 . S
C710 C711 1.387 . S
C710 H714 0.950 . S
C710 C719 1.390 . S
C711 C710 1.387 . S
C711 C713 1.387 . S
H712 C719 0.950 . S
C713 C711 1.387 . S
C713 C715 1.390 1_545 S
C713 H717 0.950 . S
H714 C710 0.950 . S
C715 C713 1.390 1_565 S
C715 C716 1.387 . S
C715 H718 0.950 . S
C716 C715 1.387 . S
C716 C719 1.387 1_565 S
H717 C713 0.950 . S
H718 C715 0.950 . S
C719 C710 1.390 . S
C719 H712 0.950 . S
C719 C716 1.387 1_545 S
C720 C721 1.387 . S
C720 H724 0.950 . S
C720 C729 1.390 . S
C721 C720 1.387 . S
C721 C723 1.387 . S
H722 C729 0.950 . S
C723 C721 1.387 . S
C723 C725 1.390 . S
C723 H727 0.950 . S
H724 C720 0.950 . S
C725 C723 1.390 . S
C725 C726 1.387 . S
C725 H728 0.950 . S
C726 C725 1.387 . S
C726 C729 1.387 . S
H727 C723 0.950 . S
H728 C725 0.950 . S
C729 C720 1.390 . S
C729 H722 0.950 . S
C729 C726 1.387 . S
C730 C731 1.387 . S
C730 H734 0.950 . S
C730 C739 1.390 . S
C731 C730 1.387 . S
C731 C733 1.387 . S
H732 C739 0.950 . S
C733 C731 1.387 . S
C733 C735 1.390 . S
C733 H737 0.950 . S
H734 C730 0.950 . S
C735 C733 1.390 . S
C735 C736 1.387 . S
C735 H738 0.950 . S
C736 C735 1.387 . S
C736 C739 1.387 . S
H737 C733 0.950 . S
H738 C735 0.950 . S
C739 C730 1.390 . S
C739 H732 0.950 . S
C739 C736 1.387 . S
C740 C741 1.387 . S
C740 H744 0.950 . S
C740 C749 1.390 . S
C741 C740 1.387 . S
C741 C743 1.387 . S
H742 C749 0.950 . S
C743 C741 1.387 . S
C743 C745 1.390 . S
C743 H747 0.950 . S
H744 C740 0.950 . S
C745 C743 1.390 . S
C745 C746 1.387 . S
C745 H748 0.950 . S
C746 C745 1.387 . S
C746 C749 1.387 . S
H747 C743 0.950 . S
H748 C745 0.950 . S
C749 C740 1.390 . S
C749 H742 0.950 . S
C749 C746 1.387 . S
C750 C751 1.387 . S
C750 H754 0.950 . S
C750 C759 1.390 . S
C751 C750 1.387 . S
C751 C753 1.387 . S
H752 C759 0.950 . S
C753 C751 1.387 . S
C753 C755 1.390 . S
C753 H757 0.950 . S
H754 C750 0.950 . S
C755 C753 1.390 . S
C755 C756 1.387 . S
C755 H758 0.950 . S
C756 C755 1.387 . S
C756 C759 1.387 . S
H757 C753 0.950 . S
H758 C755 0.950 . S
C759 C750 1.390 . S
C759 H752 0.950 . S
C759 C756 1.387 . S
C760 C761 1.387 . S
C760 H764 0.950 . S
C760 C769 1.390 . S
C761 C760 1.387 . S
C761 C763 1.387 . S
H762 C769 0.950 . S
C763 C761 1.387 . S
C763 C765 1.390 . S
C763 H767 0.950 . S
H764 C760 0.950 . S
C765 C763 1.390 . S
C765 C766 1.387 . S
C765 H768 0.950 . S
C766 C765 1.387 . S
C766 C769 1.387 . S
H767 C763 0.950 . S
H768 C765 0.950 . S
C769 C760 1.390 . S
C769 H762 0.950 . S
C769 C766 1.387 . S
C770 C771 1.387 . S
C770 H774 0.950 . S
C770 C779 1.390 . S
C771 C770 1.387 . S
C771 C773 1.387 . S
H772 C779 0.950 . S
C773 C771 1.387 . S
C773 C775 1.390 . S
C773 H777 0.950 . S
H774 C770 0.950 . S
C775 C773 1.390 . S
C775 C776 1.387 . S
C775 H778 0.950 . S
C776 C775 1.387 . S
C776 C779 1.387 . S
H777 C773 0.950 . S
H778 C775 0.950 . S
C779 C770 1.390 . S
C779 H772 0.950 . S
C779 C776 1.387 . S
C780 C781 1.387 . S
C780 H784 0.950 . S
C780 C789 1.390 1_455 S
C781 C780 1.387 . S
C781 C783 1.387 . S
H782 C789 0.950 . S
C783 C781 1.387 . S
C783 C785 1.372 1_455 S
C783 H787 0.950 . S
H784 C780 0.950 . S
C785 C783 1.372 1_655 S
C785 C786 1.398 . S
C785 H788 0.957 1_554 S
C786 C785 1.398 . S
C786 C789 1.387 . S
H787 C783 0.950 . S
H788 C785 0.957 1_556 S
C789 C780 1.390 1_655 S
C789 H782 0.950 . S
C789 C786 1.387 . S
C790 C791 1.387 . S
C790 H794 0.950 . S
C790 C799 1.390 . S
C791 C790 1.387 . S
C791 C793 1.387 . S
H792 C799 0.950 . S
C793 C791 1.387 . S
C793 C795 1.390 . S
C793 H797 0.950 . S
H794 C790 0.950 . S
C795 C793 1.390 . S
C795 C796 1.387 . S
C795 H798 0.950 . S
C796 C795 1.387 . S
C796 C799 1.387 . S
H797 C793 0.950 . S
H798 C795 0.950 . S
C799 C790 1.390 . S
C799 H792 0.950 . S
C799 C796 1.387 . S
C800 C801 1.387 . S
C800 H804 0.950 . S
C800 C809 1.390 . S
C801 C800 1.387 . S
C801 C803 1.387 . S
H802 C809 0.950 . S
C803 C801 1.387 . S
C803 C805 1.390 . S
C803 H807 0.950 . S
H804 C800 0.950 . S
C805 C803 1.390 . S
C805 C806 1.387 . S
C805 H808 0.950 . S
C806 C805 1.387 . S
C806 C809 1.387 . S
H807 C803 0.950 . S
H808 C805 0.950 . S
C809 C800 1.390 . S
C809 H802 0.950 . S
C809 C806 1.387 . S
C810 C811 1.387 . S
C810 H814 0.950 . S
C810 C819 1.390 . S
C811 C810 1.387 . S
C811 C813 1.387 . S
H812 C819 0.950 . S
C813 C811 1.387 . S
C813 C815 1.390 . S
C813 H817 0.950 . S
H814 C810 0.950 . S
C815 C813 1.390 . S
C815 C816 1.387 . S
C815 H818 0.950 . S
C816 C815 1.387 . S
C816 C819 1.387 . S
H817 C813 0.950 . S
H818 C815 0.950 . S
C819 C810 1.390 . S
C819 H812 0.950 . S
C819 C816 1.387 . S
C820 C821 1.387 . S
C820 H824 0.950 . S
C820 C829 1.390 . S
C821 C820 1.387 . S
C821 C823 1.387 . S
H822 C829 0.950 . S
C823 C821 1.387 . S
C823 C825 1.390 . S
C823 H827 0.950 . S
H824 C820 0.950 . S
C825 C823 1.390 . S
C825 C826 1.387 . S
C825 H828 0.950 . S
C826 C825 1.387 . S
C826 C829 1.387 . S
H827 C823 0.950 . S
H828 C825 0.950 . S
C829 C820 1.390 . S
C829 H822 0.950 . S
C829 C826 1.387 . S
C830 C831 1.387 . S
C830 H834 0.950 . S
C830 C839 1.390 . S
C831 C830 1.387 . S
C831 C833 1.387 . S
H832 C839 0.950 1_455 S
C833 C831 1.387 . S
C833 C835 1.390 . S
C833 H837 0.950 . S
H834 C830 0.950 . S
C835 C833 1.390 . S
C835 C836 1.387 1_655 S
C835 H838 0.950 1_655 S
C836 C835 1.387 1_455 S
C836 C839 1.387 1_455 S
H837 C833 0.950 . S
H838 C835 0.950 1_455 S
C839 C830 1.390 . S
C839 H832 0.950 1_655 S
C839 C836 1.387 1_655 S
C481 C9 1.644 . S
C486 C448 1.766 . S
C491 C368 1.894 . S
C496 C48 1.903 . S
C501 C89 1.474 . S
C506 C329 1.486 . S
C511 C128 1.784 . S
C516 C408 1.785 . S
C521 C168 2.093 . S
C526 C409 1.960 . S
C531 C209 1.516 . S
C536 C449 1.519 . S
C541 C369 1.817 . S
C546 C248 1.945 . S
C551 C288 1.669 . S
C556 C328 1.680 . S
C561 C129 1.799 . S
C566 C169 1.772 . S
C571 C8 2.019 . S
C576 C208 2.021 . S
C581 C49 1.571 . S
C586 C249 1.603 . S
C591 C289 1.751 . S
C596 C88 1.848 . S
C601 C5 2.611 . S
C606 C339 2.718 . S
C611 C55 1.318 . S
C616 C418 1.237 . S
C621 C458 1.822 . S
C626 C85 1.964 . S
C631 C135 1.505 . S
C636 C378 1.392 . S
C641 C175 1.520 . S
C646 C379 1.502 . S
C651 C338 1.875 . S
C656 C205 2.008 . S
C661 C419 1.855 . S
C666 C255 1.867 . S
C671 C459 1.768 . S
C676 C295 1.778 . S
C681 C18 1.638 . S
C686 C125 1.773 . S
C691 C15 2.004 . S
C696 C59 1.988 . S
C701 C45 2.029 . S
C706 C98 1.885 . S
C711 C139 1.825 . S
C716 C95 1.833 . S
C721 C215 1.146 . S
C726 C179 1.122 . S
C731 C218 1.879 . S
C736 C245 2.025 . S
C741 C259 1.676 . S
C746 C285 1.635 . S
C751 C165 1.918 . S
C756 C299 1.999 . S
C761 C335 1.412 . S
C766 C138 1.293 . S
C771 C219 1.634 . S
C776 C375 1.650 . S
C781 C325 2.167 . S
C786 C258 2.026 . S
C791 C415 1.678 . S
C796 C298 1.532 . S
C801 C178 0.935 . S
C806 C455 0.991 . S
C811 C445 1.838 . S
C816 C58 1.705 . S
C821 C99 1.620 . S
C826 C365 1.570 . S
C831 C405 1.964 . S
C836 C19 2.032 . S
