# Generated by pormake.
# Topology unu, (4)-cn, num edge types: 1
# Building blocks:
#     Node 0, Type 0, BuildingBlock: NAHDIM_clean_sbu_0, # of connection points: 4
#     Node 1, Type 0, BuildingBlock: NAHDIM_clean_sbu_0, # of connection points: 4
#     Node 2, Type 0, BuildingBlock: NAHDIM_clean_sbu_0, # of connection points: 4
#     Node 3, Type 0, BuildingBlock: NAHDIM_clean_sbu_0, # of connection points: 4
#     Node 4, Type 0, BuildingBlock: NAHDIM_clean_sbu_0, # of connection points: 4
#     Node 5, Type 0, BuildingBlock: NAHDIM_clean_sbu_0, # of connection points: 4
#     Node 6, Type 0, BuildingBlock: NAHDIM_clean_sbu_0, # of connection points: 4
#     Node 7, Type 0, BuildingBlock: NAHDIM_clean_sbu_0, # of connection points: 4
#     Node 8, Type 0, BuildingBlock: NAHDIM_clean_sbu_0, # of connection points: 4
#     Node 9, Type 0, BuildingBlock: NAHDIM_clean_sbu_0, # of connection points: 4
#     Node 10, Type 0, BuildingBlock: NAHDIM_clean_sbu_0, # of connection points: 4
#     Node 11, Type 0, BuildingBlock: NAHDIM_clean_sbu_0, # of connection points: 4
#     Node 12, Type 0, BuildingBlock: NAHDIM_clean_sbu_0, # of connection points: 4
#     Node 13, Type 0, BuildingBlock: NAHDIM_clean_sbu_0, # of connection points: 4
#     Node 14, Type 0, BuildingBlock: NAHDIM_clean_sbu_0, # of connection points: 4
#     Node 15, Type 0, BuildingBlock: NAHDIM_clean_sbu_0, # of connection points: 4
#     Node 16, Type 0, BuildingBlock: NAHDIM_clean_sbu_0, # of connection points: 4
#     Node 17, Type 0, BuildingBlock: NAHDIM_clean_sbu_0, # of connection points: 4
#     Node 18, Type 0, BuildingBlock: NAHDIM_clean_sbu_0, # of connection points: 4
#     Node 19, Type 0, BuildingBlock: NAHDIM_clean_sbu_0, # of connection points: 4
#     Node 20, Type 0, BuildingBlock: NAHDIM_clean_sbu_0, # of connection points: 4
#     Node 21, Type 0, BuildingBlock: NAHDIM_clean_sbu_0, # of connection points: 4
#     Node 22, Type 0, BuildingBlock: NAHDIM_clean_sbu_0, # of connection points: 4
#     Node 23, Type 0, BuildingBlock: NAHDIM_clean_sbu_0, # of connection points: 4
#     Node 24, Type 0, BuildingBlock: NAHDIM_clean_sbu_0, # of connection points: 4
#     Node 25, Type 0, BuildingBlock: NAHDIM_clean_sbu_0, # of connection points: 4
#     Node 26, Type 0, BuildingBlock: NAHDIM_clean_sbu_0, # of connection points: 4
#     Node 27, Type 0, BuildingBlock: NAHDIM_clean_sbu_0, # of connection points: 4
#     Node 28, Type 0, BuildingBlock: NAHDIM_clean_sbu_0, # of connection points: 4
#     Node 29, Type 0, BuildingBlock: NAHDIM_clean_sbu_0, # of connection points: 4
#     Node 30, Type 0, BuildingBlock: NAHDIM_clean_sbu_0, # of connection points: 4
#     Node 31, Type 0, BuildingBlock: NAHDIM_clean_sbu_0, # of connection points: 4
#     Node 32, Type 0, BuildingBlock: NAHDIM_clean_sbu_0, # of connection points: 4
#     Node 33, Type 0, BuildingBlock: NAHDIM_clean_sbu_0, # of connection points: 4
#     Node 34, Type 0, BuildingBlock: NAHDIM_clean_sbu_0, # of connection points: 4
#     Node 35, Type 0, BuildingBlock: NAHDIM_clean_sbu_0, # of connection points: 4
#     Edge 36, Type (0, 0), None
#     Edge 37, Type (0, 0), None
#     Edge 38, Type (0, 0), None
#     Edge 39, Type (0, 0), None
#     Edge 40, Type (0, 0), None
#     Edge 41, Type (0, 0), None
#     Edge 42, Type (0, 0), None
#     Edge 43, Type (0, 0), None
#     Edge 44, Type (0, 0), None
#     Edge 45, Type (0, 0), None
#     Edge 46, Type (0, 0), None
#     Edge 47, Type (0, 0), None
#     Edge 48, Type (0, 0), None
#     Edge 49, Type (0, 0), None
#     Edge 50, Type (0, 0), None
#     Edge 51, Type (0, 0), None
#     Edge 52, Type (0, 0), None
#     Edge 53, Type (0, 0), None
#     Edge 54, Type (0, 0), None
#     Edge 55, Type (0, 0), None
#     Edge 56, Type (0, 0), None
#     Edge 57, Type (0, 0), None
#     Edge 58, Type (0, 0), None
#     Edge 59, Type (0, 0), None
#     Edge 60, Type (0, 0), None
#     Edge 61, Type (0, 0), None
#     Edge 62, Type (0, 0), None
#     Edge 63, Type (0, 0), None
#     Edge 64, Type (0, 0), None
#     Edge 65, Type (0, 0), None
#     Edge 66, Type (0, 0), None
#     Edge 67, Type (0, 0), None
#     Edge 68, Type (0, 0), None
#     Edge 69, Type (0, 0), None
#     Edge 70, Type (0, 0), None
#     Edge 71, Type (0, 0), None
#     Edge 72, Type (0, 0), None
#     Edge 73, Type (0, 0), None
#     Edge 74, Type (0, 0), None
#     Edge 75, Type (0, 0), None
#     Edge 76, Type (0, 0), None
#     Edge 77, Type (0, 0), None
#     Edge 78, Type (0, 0), None
#     Edge 79, Type (0, 0), None
#     Edge 80, Type (0, 0), None
#     Edge 81, Type (0, 0), None
#     Edge 82, Type (0, 0), None
#     Edge 83, Type (0, 0), None
#     Edge 84, Type (0, 0), None
#     Edge 85, Type (0, 0), None
#     Edge 86, Type (0, 0), None
#     Edge 87, Type (0, 0), None
#     Edge 88, Type (0, 0), None
#     Edge 89, Type (0, 0), None
#     Edge 90, Type (0, 0), None
#     Edge 91, Type (0, 0), None
#     Edge 92, Type (0, 0), None
#     Edge 93, Type (0, 0), None
#     Edge 94, Type (0, 0), None
#     Edge 95, Type (0, 0), None
#     Edge 96, Type (0, 0), None
#     Edge 97, Type (0, 0), None
#     Edge 98, Type (0, 0), None
#     Edge 99, Type (0, 0), None
#     Edge 100, Type (0, 0), None
#     Edge 101, Type (0, 0), None
#     Edge 102, Type (0, 0), None
#     Edge 103, Type (0, 0), None
#     Edge 104, Type (0, 0), None
#     Edge 105, Type (0, 0), None
#     Edge 106, Type (0, 0), None
#     Edge 107, Type (0, 0), None
# Relax obj value: 0.296
# Max RMSD: 0.283
# Mean RMSD: 0.283
data_MOF--net-unu--node1-NAHDIM_clean_sbu_0--edge1-none
_symmetry_space_group_name_H-M    P1
_symmetry_Int_Tables_number       1
_symmetry_cell_setting            triclinic
loop_
_symmetry_equiv_pos_as_xyz
'x, y, z'
_cell_length_a     18.726409
_cell_length_b     18.725966
_cell_length_c     58.517441
_cell_angle_alpha  89.996728
_cell_angle_beta   90.002251
_cell_angle_gamma 119.99326
loop_
_atom_site_label
_atom_site_type_symbol
_atom_site_fract_x
_atom_site_fract_y
_atom_site_fract_z
_atom_type_partial_charge
C0 C 0.31812 0.02209 0.07343 0.0
O1 O 0.32384 -0.00239 0.09404 0.0
O2 O 0.09837 0.93562 0.0945 0.0
Zn3 Zn 0.19897 0.04846 0.09622 0.0
O4 O 0.2552 0.06872 0.12689 0.0
C5 C 0.11505 0.12738 0.11261 0.0
O6 O 0.11977 0.09014 0.13104 0.0
O7 O 0.27258 0.05382 0.07023 0.0
C8 C 0.29234 0.14141 0.135 0.0
O9 O 0.302 0.20353 0.12234 0.0
C10 C 0.06405 0.89735 0.11272 0.0
O11 O 0.10121 0.92646 0.13236 0.0
O12 O 0.14887 0.1227 0.09416 0.0
C13 C 0.9319 0.28688 0.07343 0.0
O14 O 0.95639 0.31705 0.09403 0.0
O15 O 0.01837 0.15359 0.0945 0.0
Zn16 Zn 0.90552 0.14135 0.09621 0.0
O17 O 0.88527 0.17731 0.12689 0.0
C18 C 0.82666 0.97853 0.1126 0.0
O19 O 0.86395 0.0205 0.13103 0.0
O20 O 0.90016 0.20961 0.07023 0.0
C21 C 0.81258 0.14175 0.135 0.0
O22 O 0.75046 0.08928 0.12234 0.0
C23 C 0.05667 0.15758 0.11271 0.0
O24 O 0.0276 0.16568 0.13236 0.0
O25 O 0.83129 0.01702 0.09416 0.0
C26 C 0.66717 0.63586 0.07343 0.0
O27 O 0.63698 0.63013 0.09404 0.0
O28 O 0.8004 0.85563 0.0945 0.0
Zn29 Zn 0.81267 0.75503 0.09621 0.0
O30 O 0.7767 0.69881 0.12689 0.0
C31 C -0.02452 0.83896 0.11261 0.0
O32 O 0.93353 0.83423 0.13105 0.0
O33 O 0.74442 0.68142 0.07023 0.0
C34 C 0.81225 0.66166 0.135 0.0
O35 O 0.86471 0.652 0.12234 0.0
C36 C 0.79646 0.88995 0.11272 0.0
O37 O 0.78842 0.85282 0.13236 0.0
O38 O 0.937 0.80514 0.09417 0.0
C39 C 0.01288 0.32734 0.38707 0.0
O40 O -0.0116 0.33305 0.36647 0.0
O41 O 0.92642 0.1076 0.366 0.0
Zn42 Zn 0.03927 0.20819 0.36429 0.0
O43 O 0.05952 0.26442 0.33361 0.0
C44 C 0.11816 0.12426 0.34789 0.0
O45 O 0.0809 0.12896 0.32946 0.0
O46 O 0.04462 0.28181 0.39027 0.0
C47 C 0.13222 0.30156 0.3255 0.0
O48 O 0.19434 0.3112 0.33816 0.0
C49 C 0.88814 0.07329 0.34778 0.0
O50 O 0.91723 0.11047 0.32815 0.0
O51 O 0.1135 0.15809 0.36634 0.0
C52 C 0.62666 0.67639 0.38707 0.0
O53 O 0.62094 0.64621 0.36646 0.0
O54 O 0.84642 0.80963 0.366 0.0
Zn55 Zn 0.74582 0.8219 0.36428 0.0
O56 O 0.6896 0.78593 0.33361 0.0
C57 C 0.82973 -0.01528 0.34789 0.0
O58 O 0.825 0.94278 0.32945 0.0
O59 O 0.6722 0.75364 0.39027 0.0
C60 C 0.65244 0.82148 0.3255 0.0
O61 O 0.64277 0.87393 0.33816 0.0
C62 C 0.88076 0.80572 0.34778 0.0
O63 O 0.84361 0.7977 0.32815 0.0
O64 O 0.79593 0.94623 0.36633 0.0
C65 C 0.27765 0.9411 0.38707 0.0
O66 O 0.30783 0.9656 0.36647 0.0
O67 O 0.14439 0.02759 0.366 0.0
Zn68 Zn 0.13213 0.91473 0.36429 0.0
O69 O 0.16809 0.89447 0.33361 0.0
C70 C 0.96933 0.8359 0.34789 0.0
O71 O 0.01129 0.87316 0.32946 0.0
O72 O 0.2004 0.90936 0.39027 0.0
C73 C 0.13252 0.82178 0.3255 0.0
O74 O 0.08005 0.75966 0.33816 0.0
C75 C 0.14837 0.06588 0.34778 0.0
O76 O 0.15644 0.0368 0.32814 0.0
O77 O 0.0078 0.84052 0.36634 0.0
C78 C 0.62666 0.9411 0.88707 0.0
O79 O 0.62095 0.96558 0.86646 0.0
O80 O 0.8464 0.02757 0.866 0.0
Zn81 Zn 0.74581 0.91472 0.86428 0.0
O82 O 0.68958 0.89446 0.83361 0.0
C83 C 0.82974 0.83581 0.84789 0.0
O84 O 0.82502 0.87305 0.82946 0.0
O85 O 0.67219 0.90937 0.89027 0.0
C86 C 0.65244 0.82177 0.8255 0.0
O87 O 0.64279 0.75965 0.83816 0.0
C88 C 0.88073 0.06584 0.84778 0.0
O89 O 0.84357 0.03672 0.82814 0.0
O90 O 0.79592 0.84049 0.86634 0.0
C91 C 0.01289 0.67633 0.88707 0.0
O92 O -0.0116 0.64616 0.86647 0.0
O93 O 0.92642 0.80961 0.866 0.0
Zn94 Zn 0.03928 0.82186 0.86429 0.0
O95 O 0.05953 0.7859 0.83361 0.0
C96 C 0.11812 -0.01533 0.8479 0.0
O97 O 0.08084 0.9427 0.82947 0.0
O98 O 0.04464 0.75359 0.89027 0.0
C99 C 0.13222 0.82147 0.8255 0.0
O100 O 0.19434 0.87394 0.83816 0.0
C101 C 0.88812 0.80561 0.84779 0.0
O102 O 0.91719 0.79752 0.82814 0.0
O103 O 0.1135 0.94619 0.86634 0.0
C104 C 0.27761 0.32733 0.88707 0.0
O105 O 0.30779 0.33305 0.86646 0.0
O106 O 0.14438 0.10757 0.866 0.0
Zn107 Zn 0.13211 0.20817 0.86429 0.0
O108 O 0.16807 0.26439 0.83361 0.0
C109 C 0.96929 0.12424 0.84789 0.0
O110 O 0.01125 0.12896 0.82945 0.0
O111 O 0.20035 0.28179 0.89027 0.0
C112 C 0.13252 0.30154 0.8255 0.0
O113 O 0.08005 0.3112 0.83816 0.0
C114 C 0.14832 0.07325 0.84778 0.0
O115 O 0.15636 0.11039 0.82814 0.0
O116 O 0.00777 0.15806 0.86634 0.0
C117 C 0.93191 0.63586 0.57343 0.0
O118 O 0.95639 0.63014 0.59403 0.0
O119 O 0.01837 0.8556 0.5945 0.0
Zn120 Zn 0.90553 0.75501 0.59621 0.0
O121 O 0.88528 0.69878 0.62689 0.0
C122 C 0.82663 0.83894 0.61261 0.0
O123 O 0.86389 0.83423 0.63104 0.0
O124 O 0.90018 0.68139 0.57023 0.0
C125 C 0.81258 0.66164 0.635 0.0
O126 O 0.75046 0.652 0.62234 0.0
C127 C 0.05666 0.88992 0.61272 0.0
O128 O 0.02756 0.85274 0.63235 0.0
O129 O 0.83129 0.80511 0.59416 0.0
C130 C 0.31813 0.28682 0.57343 0.0
O131 O 0.32385 0.317 0.59404 0.0
O132 O 0.09836 0.15357 0.5945 0.0
Zn133 Zn 0.19896 0.14131 0.59622 0.0
O134 O 0.25518 0.17728 0.62689 0.0
C135 C 0.11505 0.97848 0.61261 0.0
O136 O 0.11979 0.02043 0.63105 0.0
O137 O 0.27258 0.20956 0.57023 0.0
C138 C 0.29234 0.14174 0.635 0.0
O139 O 0.30201 0.08928 0.62234 0.0
C140 C 0.06401 0.15748 0.61272 0.0
O141 O 0.10117 0.1655 0.63235 0.0
O142 O 0.14886 0.01697 0.59417 0.0
C143 C 0.66712 0.02209 0.57343 0.0
O144 O 0.63694 -0.0024 0.59403 0.0
O145 O 0.80039 0.9356 0.5945 0.0
Zn146 Zn 0.81264 0.04845 0.59621 0.0
O147 O 0.77668 0.06871 0.62689 0.0
C148 C -0.02456 0.1273 0.61261 0.0
O149 O 0.93349 0.09003 0.63104 0.0
O150 O 0.74438 0.05382 0.57023 0.0
C151 C 0.81224 0.1414 0.635 0.0
O152 O 0.86471 0.20352 0.62234 0.0
C153 C 0.79642 0.89731 0.61272 0.0
O154 O 0.78834 0.92639 0.63236 0.0
O155 O 0.93697 0.12267 0.59416 0.0
C156 C -0.01519 0.35543 0.40677 0.0
O157 O -0.00944 0.33097 0.42737 0.0
O158 O 0.76504 0.26894 0.42784 0.0
Zn159 Zn 0.86564 0.38179 0.42955 0.0
O160 O 0.92186 0.40204 0.46023 0.0
C161 C 0.78172 0.46071 0.44594 0.0
O162 O 0.78644 0.42347 0.46438 0.0
O163 O 0.93925 0.38713 0.40357 0.0
C164 C 0.95901 0.47474 0.46833 0.0
O165 O 0.96867 0.53686 0.45567 0.0
C166 C 0.73071 0.23067 0.44605 0.0
O167 O 0.76787 0.25978 0.46569 0.0
O168 O 0.81554 0.45603 0.4275 0.0
C169 C 0.59856 0.62022 0.40676 0.0
O170 O 0.62303 0.65041 0.42737 0.0
O171 O 0.68504 0.48692 0.42783 0.0
Zn172 Zn 0.5722 0.47468 0.42955 0.0
O173 O 0.55194 0.51064 0.46022 0.0
C174 C 0.49334 0.31187 0.44594 0.0
O175 O 0.53063 0.35384 0.46436 0.0
O176 O 0.56685 0.54296 0.40356 0.0
C177 C 0.47925 0.47508 0.46833 0.0
O178 O 0.41713 0.42261 0.45567 0.0
C179 C 0.72334 0.49092 0.44605 0.0
O180 O 0.69428 0.49901 0.46569 0.0
O181 O 0.49797 0.35035 0.42749 0.0
C182 C 0.33383 0.96918 0.40677 0.0
O183 O 0.30363 0.96342 0.42737 0.0
O184 O 0.46707 0.18896 0.42783 0.0
Zn185 Zn 0.47933 0.08836 0.42955 0.0
O186 O 0.44336 0.03214 0.46022 0.0
C187 C 0.64214 0.17228 0.44595 0.0
O188 O 0.60019 0.16756 0.46438 0.0
O189 O 0.41107 0.01475 0.40356 0.0
C190 C 0.47891 -0.00502 0.46833 0.0
O191 O 0.53137 -0.01468 0.45567 0.0
C192 C 0.46313 0.22329 0.44605 0.0
O193 O 0.45509 0.18615 0.46569 0.0
O194 O 0.60366 0.13847 0.4275 0.0
C195 C 0.67954 0.66066 0.72041 0.0
O196 O 0.65506 0.66637 0.6998 0.0
O197 O 0.59308 0.44092 0.69933 0.0
Zn198 Zn 0.70593 0.54151 0.69762 0.0
O199 O 0.72618 0.59774 0.66694 0.0
C200 C 0.78483 0.45758 0.68123 0.0
O201 O 0.74757 0.46229 0.66279 0.0
O202 O 0.71128 0.61512 0.7236 0.0
C203 C 0.79888 0.63488 0.65883 0.0
O204 O 0.861 0.64452 0.67149 0.0
C205 C 0.5548 0.40661 0.68111 0.0
O206 O 0.5839 0.44379 0.66148 0.0
O207 O 0.78016 0.49141 0.69967 0.0
C208 C 0.29333 0.00971 0.7204 0.0
O209 O 0.28761 0.97952 0.6998 0.0
O210 O 0.51309 0.14295 0.69933 0.0
Zn211 Zn 0.41249 0.15521 0.69761 0.0
O212 O 0.35627 0.11925 0.66694 0.0
C213 C 0.4964 0.31804 0.68122 0.0
O214 O 0.49167 0.2761 0.66278 0.0
O215 O 0.33887 0.08697 0.7236 0.0
C216 C 0.31911 0.15479 0.65883 0.0
O217 O 0.30944 0.20725 0.67149 0.0
C218 C 0.54743 0.13904 0.68111 0.0
O219 O 0.51028 0.13102 0.66148 0.0
O220 O 0.46259 0.27955 0.69967 0.0
C221 C 0.94432 0.27443 0.72041 0.0
O222 O -0.0255 0.29893 0.6998 0.0
O223 O 0.81106 0.36091 0.69933 0.0
Zn224 Zn 0.79881 0.24806 0.69762 0.0
O225 O 0.83476 0.2278 0.66694 0.0
C226 C 0.636 0.16922 0.68123 0.0
O227 O 0.67796 0.20648 0.66279 0.0
O228 O 0.86706 0.24269 0.72361 0.0
C229 C 0.7992 0.15511 0.65883 0.0
O230 O 0.74673 0.09299 0.67149 0.0
C231 C 0.81503 0.3992 0.68112 0.0
O232 O 0.82311 0.37013 0.66147 0.0
O233 O 0.67447 0.17384 0.69967 0.0
C234 C 0.29333 0.27445 0.2204 0.0
O235 O 0.28762 0.29894 0.1998 0.0
O236 O 0.51307 0.36092 0.19933 0.0
Zn237 Zn 0.41248 0.24807 0.19761 0.0
O238 O 0.35625 0.22782 0.16694 0.0
C239 C 0.4964 0.16916 0.18122 0.0
O240 O 0.49168 0.2064 0.16279 0.0
O241 O 0.33887 0.24272 0.2236 0.0
C242 C 0.31911 0.15512 0.15883 0.0
O243 O 0.30945 0.093 0.17149 0.0
C244 C 0.5474 0.39919 0.18111 0.0
O245 O 0.51024 0.37008 0.16147 0.0
O246 O 0.46258 0.17384 0.19967 0.0
C247 C 0.67955 0.00967 0.22041 0.0
O248 O 0.65506 0.9795 0.1998 0.0
O249 O 0.59308 0.14296 0.19933 0.0
Zn250 Zn 0.70593 0.1552 0.19762 0.0
O251 O 0.72619 0.11924 0.16695 0.0
C252 C 0.78479 0.31802 0.18123 0.0
O253 O 0.74751 0.27605 0.1628 0.0
O254 O 0.71129 0.08694 0.22361 0.0
C255 C 0.79888 0.1548 0.15883 0.0
O256 O 0.861 0.20727 0.17149 0.0
C257 C 0.55479 0.13896 0.18112 0.0
O258 O 0.58386 0.13087 0.16148 0.0
O259 O 0.78016 0.27953 0.19967 0.0
C260 C 0.94428 0.66068 0.2204 0.0
O261 O -0.02554 0.6664 0.1998 0.0
O262 O 0.81104 0.44092 0.19933 0.0
Zn263 Zn 0.79878 0.54151 0.19762 0.0
O264 O 0.83474 0.59774 0.16694 0.0
C265 C 0.63597 0.45759 0.18122 0.0
O266 O 0.67792 0.46231 0.16278 0.0
O267 O 0.86702 0.61513 0.2236 0.0
C268 C 0.79919 0.63489 0.15883 0.0
O269 O 0.74673 0.64455 0.17149 0.0
C270 C 0.81499 0.40659 0.18111 0.0
O271 O 0.82302 0.44373 0.16147 0.0
O272 O 0.67444 0.4914 0.19967 0.0
C273 C 0.59857 0.96918 0.90677 0.0
O274 O 0.62303 0.96343 0.92737 0.0
O275 O 0.68505 0.18894 0.92784 0.0
Zn276 Zn 0.5722 0.08834 0.92955 0.0
O277 O 0.55195 0.03212 0.96022 0.0
C278 C 0.4933 0.17227 0.94594 0.0
O279 O 0.53057 0.16757 0.96437 0.0
O280 O 0.56686 0.01473 0.90356 0.0
C281 C 0.47925 -0.00502 0.96833 0.0
O282 O 0.41714 -0.01467 0.95567 0.0
C283 C 0.72333 0.22325 0.94605 0.0
O284 O 0.69423 0.18607 0.96569 0.0
O285 O 0.49796 0.13844 0.92749 0.0
C286 C -0.01519 0.62016 0.90677 0.0
O287 O -0.00943 0.65036 0.92737 0.0
O288 O 0.76502 0.4869 0.92783 0.0
Zn289 Zn 0.86562 0.47465 0.92955 0.0
O290 O 0.92184 0.51062 0.96022 0.0
C291 C 0.78172 0.31182 0.94595 0.0
O292 O 0.78645 0.35377 0.96438 0.0
O293 O 0.93924 0.54291 0.90356 0.0
C294 C 0.95901 0.47508 0.96833 0.0
O295 O 0.96868 0.42262 0.95567 0.0
C296 C 0.73068 0.49081 0.94605 0.0
O297 O 0.76783 0.49884 0.96569 0.0
O298 O 0.81553 0.35031 0.9275 0.0
C299 C 0.33378 0.35543 0.90677 0.0
O300 O 0.30358 0.33096 0.92737 0.0
O301 O 0.46706 0.26893 0.92783 0.0
Zn302 Zn 0.4793 0.38178 0.92955 0.0
O303 O 0.44335 0.40204 0.96022 0.0
C304 C 0.64211 0.46063 0.94594 0.0
O305 O 0.60015 0.42337 0.96437 0.0
O306 O 0.41103 0.38714 0.90356 0.0
C307 C 0.47891 0.47474 0.96833 0.0
O308 O 0.53137 0.53685 0.95567 0.0
C309 C 0.46309 0.23065 0.94605 0.0
O310 O 0.45502 0.25972 0.96569 0.0
O311 O 0.60363 0.456 0.92749 0.0
C312 C 0.65147 0.68874 0.7401 0.0
O313 O 0.65722 0.66429 0.76071 0.0
O314 O 0.4317 0.60226 0.76117 0.0
Zn315 Zn 0.5323 0.7151 0.76289 0.0
O316 O 0.58853 0.73536 0.79356 0.0
C317 C 0.44839 0.79403 0.77928 0.0
O318 O 0.4531 0.75679 0.79771 0.0
O319 O 0.60591 0.72045 0.7369 0.0
C320 C 0.62568 0.80805 0.80167 0.0
O321 O 0.63533 0.87017 0.78901 0.0
C322 C 0.39737 0.564 0.77939 0.0
O323 O 0.43454 0.59311 0.79903 0.0
O324 O 0.4822 0.78935 0.76083 0.0
C325 C 0.26523 0.95354 0.7401 0.0
O326 O 0.2897 -0.01627 0.7607 0.0
O327 O 0.35171 0.82024 0.76117 0.0
Zn328 Zn 0.23887 0.80801 0.76288 0.0
O329 O 0.21862 0.84397 0.79355 0.0
C330 C 0.16 0.6452 0.77927 0.0
O331 O 0.19729 0.68716 0.7977 0.0
O332 O 0.23352 0.87628 0.73689 0.0
C333 C 0.14592 0.80842 0.80167 0.0
O334 O 0.08381 0.75595 0.78901 0.0
C335 C 0.39001 0.82424 0.77938 0.0
O336 O 0.36094 0.83233 0.79903 0.0
O337 O 0.16464 0.68368 0.76083 0.0
C338 C 0.00049 0.30251 0.7401 0.0
O339 O 0.97029 0.29674 0.76071 0.0
O340 O 0.13373 0.52229 0.76117 0.0
Zn341 Zn 0.14599 0.42169 0.76288 0.0
O342 O 0.11002 0.36547 0.79356 0.0
C343 C 0.3088 0.5056 0.77928 0.0
O344 O 0.26685 0.50089 0.79772 0.0
O345 O 0.07774 0.34808 0.7369 0.0
C346 C 0.14557 0.32831 0.80167 0.0
O347 O 0.19803 0.31865 0.78901 0.0
C348 C 0.12979 0.55662 0.77939 0.0
O349 O 0.12175 0.51948 0.79903 0.0
O350 O 0.27032 0.47179 0.76084 0.0
C351 C 0.34622 -0.00599 0.05373 0.0
O352 O 0.32175 -0.00024 0.03313 0.0
O353 O 0.25974 0.77426 0.03266 0.0
Zn354 Zn 0.37259 0.87486 0.03095 0.0
O355 O 0.39285 0.93108 0.00028 0.0
C356 C 0.45148 0.79092 0.01456 0.0
O357 O 0.41422 0.79563 -0.00387 0.0
O358 O 0.37793 0.94847 0.05694 0.0
C359 C 0.46554 0.96822 -0.00783 0.0
O360 O 0.52766 0.97786 0.00483 0.0
C361 C 0.22146 0.73995 0.01445 0.0
O362 O 0.25056 0.77713 -0.00519 0.0
O363 O 0.44683 0.82475 0.033 0.0
C364 C 0.95998 0.34305 0.05373 0.0
O365 O 0.95422 0.31285 0.03312 0.0
O366 O 0.17976 0.4763 0.03266 0.0
Zn367 Zn 0.07916 0.48855 0.03095 0.0
O368 O 0.02294 0.45259 0.00027 0.0
C369 C 0.16306 0.65138 0.01455 0.0
O370 O 0.15833 0.60944 -0.00389 0.0
O371 O 0.00554 0.4203 0.05693 0.0
C372 C -0.01423 0.48813 -0.00783 0.0
O373 O -0.0239 0.54058 0.00483 0.0
C374 C 0.2141 0.47238 0.01445 0.0
O375 O 0.17694 0.46436 -0.00519 0.0
O376 O 0.12926 0.61289 0.033 0.0
C377 C 0.611 0.60777 0.05373 0.0
O378 O 0.64119 0.63224 0.03313 0.0
O379 O 0.47772 0.69426 0.03266 0.0
Zn380 Zn 0.46547 0.5814 0.03095 0.0
O381 O 0.50143 0.56114 0.00028 0.0
C382 C 0.30267 0.50256 0.01456 0.0
O383 O 0.34463 0.53982 -0.00387 0.0
O384 O 0.53374 0.57604 0.05694 0.0
C385 C 0.46587 0.48845 -0.00783 0.0
O386 O 0.4134 0.42633 0.00483 0.0
C387 C 0.48169 0.73255 0.01445 0.0
O388 O 0.48976 0.70347 -0.00519 0.0
O389 O 0.34115 0.50719 0.033 0.0
C390 C 0.95998 0.60777 0.55373 0.0
O391 O 0.95424 0.63223 0.53313 0.0
O392 O 0.17974 0.69425 0.53266 0.0
Zn393 Zn 0.07915 0.5814 0.53095 0.0
O394 O 0.02292 0.56115 0.50027 0.0
C395 C 0.16307 0.50248 0.51456 0.0
O396 O 0.15835 0.53973 0.49612 0.0
O397 O 0.00554 0.57605 0.55693 0.0
C398 C -0.01423 0.48845 0.49217 0.0
O399 O -0.02388 0.42633 0.50483 0.0
C400 C 0.21407 0.73252 0.51444 0.0
O401 O 0.17691 0.70341 0.49481 0.0
O402 O 0.12925 0.50716 0.533 0.0
C403 C 0.34622 0.34299 0.55373 0.0
O404 O 0.32175 0.3128 0.53313 0.0
O405 O 0.25975 0.47628 0.53266 0.0
Zn406 Zn 0.3726 0.48852 0.53095 0.0
O407 O 0.39285 0.45256 0.50028 0.0
C408 C 0.45145 0.65133 0.51456 0.0
O409 O 0.41416 0.60936 0.49613 0.0
O410 O 0.37795 0.42025 0.55694 0.0
C411 C 0.46554 0.48813 0.49217 0.0
O412 O 0.52766 0.5406 0.50483 0.0
C413 C 0.22145 0.47228 0.51445 0.0
O414 O 0.25051 0.46419 0.49481 0.0
O415 O 0.44682 0.61285 0.53301 0.0
C416 C 0.61095 -0.00599 0.55373 0.0
O417 O 0.64115 -0.00023 0.53313 0.0
O418 O 0.47771 0.77424 0.53266 0.0
Zn419 Zn 0.46545 0.87484 0.53095 0.0
O420 O 0.50141 0.93106 0.50027 0.0
C421 C 0.30264 0.79091 0.51455 0.0
O422 O 0.34459 0.79564 0.49612 0.0
O423 O 0.5337 0.94845 0.55693 0.0
C424 C 0.46586 0.96822 0.49217 0.0
O425 O 0.4134 0.97788 0.50483 0.0
C426 C 0.48165 0.73991 0.51445 0.0
O427 O 0.48969 0.77705 0.4948 0.0
O428 O 0.34111 0.82473 0.533 0.0
C429 C 0.26524 0.30253 0.2401 0.0
O430 O 0.2897 0.29678 0.2607 0.0
O431 O 0.35171 0.52229 0.26117 0.0
Zn432 Zn 0.23887 0.42169 0.26288 0.0
O433 O 0.21862 0.36546 0.29356 0.0
C434 C 0.15996 0.50561 0.27927 0.0
O435 O 0.19723 0.50091 0.29771 0.0
O436 O 0.23353 0.34808 0.2369 0.0
C437 C 0.14592 0.32832 0.30167 0.0
O438 O 0.08381 0.31867 0.28901 0.0
C439 C 0.38999 0.5566 0.27939 0.0
O440 O 0.3609 0.51942 0.29902 0.0
O441 O 0.16463 0.47179 0.26083 0.0
C442 C 0.65147 0.9535 0.2401 0.0
O443 O 0.65723 -0.01629 0.26071 0.0
O444 O 0.43169 0.82025 0.26117 0.0
Zn445 Zn 0.53229 0.808 0.26289 0.0
O446 O 0.58851 0.84397 0.29356 0.0
C447 C 0.44839 0.64517 0.27928 0.0
O448 O 0.45312 0.68711 0.29772 0.0
O449 O 0.6059 0.87625 0.2369 0.0
C450 C 0.62567 0.80843 0.30167 0.0
O451 O 0.63535 0.75597 0.28901 0.0
C452 C 0.39734 0.82416 0.27939 0.0
O453 O 0.43449 0.83218 0.29903 0.0
O454 O 0.48219 0.68366 0.26084 0.0
C455 C 0.00044 0.68877 0.2401 0.0
O456 O 0.97025 0.6643 0.2607 0.0
O457 O 0.13372 0.60227 0.26117 0.0
Zn458 Zn 0.14596 0.71512 0.26288 0.0
O459 O 0.11 0.73538 0.29356 0.0
C460 C 0.30877 0.79397 0.27928 0.0
O461 O 0.26681 0.7567 0.29771 0.0
O462 O 0.0777 0.72048 0.2369 0.0
C463 C 0.14556 0.80807 0.30167 0.0
O464 O 0.19803 0.87019 0.28901 0.0
C465 C 0.12975 0.56398 0.27938 0.0
O466 O 0.12167 0.59305 0.29903 0.0
O467 O 0.27029 0.78934 0.26083 0.0
loop_
_geom_bond_atom_site_label_1
_geom_bond_atom_site_label_2
_geom_bond_distance
_geom_bond_site_symmetry_2
_ccdc_geom_bond_type
C0 O1 1.160 1_545 S
C0 O7 1.185 . S
O1 C0 1.160 1_565 S
O2 Zn3 1.899 1_565 S
O2 C10 1.284 . S
Zn3 O2 1.899 1_545 S
Zn3 O4 2.032 . S
Zn3 O7 2.086 . S
Zn3 O12 1.977 . S
O4 Zn3 2.032 . S
O4 C8 1.278 . S
C5 O6 1.203 . S
C5 O12 1.267 . S
O6 C5 1.203 . S
O7 C0 1.185 . S
O7 Zn3 2.086 . S
C8 O4 1.278 . S
C8 O9 1.211 . S
O9 C8 1.211 . S
C10 O2 1.284 . S
C10 O11 1.273 . S
O11 C10 1.273 . S
O12 Zn3 1.977 . S
O12 C5 1.267 . S
C13 O14 1.160 1_655 S
C13 O20 1.185 . S
O14 C13 1.160 1_455 S
O15 Zn16 1.899 1_455 S
O15 C23 1.284 . S
Zn16 O15 1.899 1_655 S
Zn16 O17 2.032 . S
Zn16 O20 2.086 . S
Zn16 O25 1.977 . S
O17 Zn16 2.032 . S
O17 C21 1.278 . S
C18 O19 1.203 . S
C18 O25 1.267 1_565 S
O19 C18 1.203 . S
O20 C13 1.185 . S
O20 Zn16 2.086 . S
C21 O17 1.278 . S
C21 O22 1.211 . S
O22 C21 1.211 . S
C23 O15 1.284 . S
C23 O24 1.273 . S
O24 C23 1.273 . S
O25 Zn16 1.977 . S
O25 C18 1.267 1_545 S
C26 O27 1.160 . S
C26 O33 1.185 . S
O27 C26 1.160 . S
O28 Zn29 1.899 . S
O28 C36 1.284 . S
Zn29 O28 1.899 . S
Zn29 O30 2.032 . S
Zn29 O33 2.086 . S
Zn29 O38 1.977 . S
O30 Zn29 2.032 . S
O30 C34 1.278 . S
C31 O32 1.203 . S
C31 O38 1.267 1_455 S
O32 C31 1.203 . S
O33 C26 1.185 . S
O33 Zn29 2.086 . S
C34 O30 1.278 . S
C34 O35 1.211 . S
O35 C34 1.211 . S
C36 O28 1.284 . S
C36 O37 1.273 . S
O37 C36 1.273 . S
O38 Zn29 1.977 . S
O38 C31 1.267 1_655 S
C39 O40 1.160 1_455 S
C39 O46 1.185 . S
O40 C39 1.160 1_655 S
O41 Zn42 1.899 1_655 S
O41 C49 1.284 . S
Zn42 O41 1.899 1_455 S
Zn42 O43 2.032 . S
Zn42 O46 2.086 . S
Zn42 O51 1.977 . S
O43 Zn42 2.032 . S
O43 C47 1.278 . S
C44 O45 1.203 . S
C44 O51 1.267 . S
O45 C44 1.203 . S
O46 C39 1.185 . S
O46 Zn42 2.086 . S
C47 O43 1.278 . S
C47 O48 1.211 . S
O48 C47 1.211 . S
C49 O41 1.284 . S
C49 O50 1.273 . S
O50 C49 1.273 . S
O51 Zn42 1.977 . S
O51 C44 1.267 . S
C52 O53 1.160 . S
C52 O59 1.185 . S
O53 C52 1.160 . S
O54 Zn55 1.899 . S
O54 C62 1.284 . S
Zn55 O54 1.899 . S
Zn55 O56 2.032 . S
Zn55 O59 2.086 . S
Zn55 O64 1.977 . S
O56 Zn55 2.032 . S
O56 C60 1.278 . S
C57 O58 1.203 . S
C57 O64 1.267 1_545 S
O58 C57 1.203 . S
O59 C52 1.185 . S
O59 Zn55 2.086 . S
C60 O56 1.278 . S
C60 O61 1.211 . S
O61 C60 1.211 . S
C62 O54 1.284 . S
C62 O63 1.273 . S
O63 C62 1.273 . S
O64 Zn55 1.977 . S
O64 C57 1.267 1_565 S
C65 O66 1.160 1_565 S
C65 O72 1.185 . S
O66 C65 1.160 1_545 S
O67 Zn68 1.899 1_545 S
O67 C75 1.284 . S
Zn68 O67 1.899 1_565 S
Zn68 O69 2.032 . S
Zn68 O72 2.086 . S
Zn68 O77 1.977 . S
O69 Zn68 2.032 . S
O69 C73 1.278 . S
C70 O71 1.203 . S
C70 O77 1.267 1_655 S
O71 C70 1.203 . S
O72 C65 1.185 . S
O72 Zn68 2.086 . S
C73 O69 1.278 . S
C73 O74 1.211 . S
O74 C73 1.211 . S
C75 O67 1.284 . S
C75 O76 1.273 . S
O76 C75 1.273 . S
O77 Zn68 1.977 . S
O77 C70 1.267 1_455 S
C78 O79 1.160 1_565 S
C78 O85 1.185 . S
O79 C78 1.160 1_545 S
O80 Zn81 1.899 1_545 S
O80 C88 1.284 . S
Zn81 O80 1.899 1_565 S
Zn81 O82 2.032 . S
Zn81 O85 2.086 . S
Zn81 O90 1.977 . S
O82 Zn81 2.032 . S
O82 C86 1.278 . S
C83 O84 1.203 . S
C83 O90 1.267 . S
O84 C83 1.203 . S
O85 C78 1.185 . S
O85 Zn81 2.086 . S
C86 O82 1.278 . S
C86 O87 1.211 . S
O87 C86 1.211 . S
C88 O80 1.284 . S
C88 O89 1.273 . S
O89 C88 1.273 . S
O90 Zn81 1.977 . S
O90 C83 1.267 . S
C91 O92 1.160 1_455 S
C91 O98 1.185 . S
O92 C91 1.160 1_655 S
O93 Zn94 1.899 1_655 S
O93 C101 1.284 . S
Zn94 O93 1.899 1_455 S
Zn94 O95 2.032 . S
Zn94 O98 2.086 . S
Zn94 O103 1.977 . S
O95 Zn94 2.032 . S
O95 C99 1.278 . S
C96 O97 1.203 . S
C96 O103 1.267 1_545 S
O97 C96 1.203 . S
O98 C91 1.185 . S
O98 Zn94 2.086 . S
C99 O95 1.278 . S
C99 O100 1.211 . S
O100 C99 1.211 . S
C101 O93 1.284 . S
C101 O102 1.273 . S
O102 C101 1.273 . S
O103 Zn94 1.977 . S
O103 C96 1.267 1_565 S
C104 O105 1.160 . S
C104 O111 1.185 . S
O105 C104 1.160 . S
O106 Zn107 1.899 . S
O106 C114 1.284 . S
Zn107 O106 1.899 . S
Zn107 O108 2.032 . S
Zn107 O111 2.086 . S
Zn107 O116 1.977 . S
O108 Zn107 2.032 . S
O108 C112 1.278 . S
C109 O110 1.203 . S
C109 O116 1.267 1_655 S
O110 C109 1.203 . S
O111 C104 1.185 . S
O111 Zn107 2.086 . S
C112 O108 1.278 . S
C112 O113 1.211 . S
O113 C112 1.211 . S
C114 O106 1.284 . S
C114 O115 1.273 . S
O115 C114 1.273 . S
O116 Zn107 1.977 . S
O116 C109 1.267 1_455 S
C117 O118 1.160 1_655 S
C117 O124 1.185 . S
O118 C117 1.160 1_455 S
O119 Zn120 1.899 1_455 S
O119 C127 1.284 . S
Zn120 O119 1.899 1_655 S
Zn120 O121 2.032 . S
Zn120 O124 2.086 . S
Zn120 O129 1.977 . S
O121 Zn120 2.032 . S
O121 C125 1.278 . S
C122 O123 1.203 . S
C122 O129 1.267 . S
O123 C122 1.203 . S
O124 C117 1.185 . S
O124 Zn120 2.086 . S
C125 O121 1.278 . S
C125 O126 1.211 . S
O126 C125 1.211 . S
C127 O119 1.284 . S
C127 O128 1.273 . S
O128 C127 1.273 . S
O129 Zn120 1.977 . S
O129 C122 1.267 . S
C130 O131 1.160 . S
C130 O137 1.185 . S
O131 C130 1.160 . S
O132 Zn133 1.899 . S
O132 C140 1.284 . S
Zn133 O132 1.899 . S
Zn133 O134 2.032 . S
Zn133 O137 2.086 . S
Zn133 O142 1.977 . S
O134 Zn133 2.032 . S
O134 C138 1.278 . S
C135 O136 1.203 . S
C135 O142 1.267 1_565 S
O136 C135 1.203 . S
O137 C130 1.185 . S
O137 Zn133 2.086 . S
C138 O134 1.278 . S
C138 O139 1.211 . S
O139 C138 1.211 . S
C140 O132 1.284 . S
C140 O141 1.273 . S
O141 C140 1.273 . S
O142 Zn133 1.977 . S
O142 C135 1.267 1_545 S
C143 O144 1.160 1_545 S
C143 O150 1.185 . S
O144 C143 1.160 1_565 S
O145 Zn146 1.899 1_565 S
O145 C153 1.284 . S
Zn146 O145 1.899 1_545 S
Zn146 O147 2.032 . S
Zn146 O150 2.086 . S
Zn146 O155 1.977 . S
O147 Zn146 2.032 . S
O147 C151 1.278 . S
C148 O149 1.203 . S
C148 O155 1.267 1_455 S
O149 C148 1.203 . S
O150 C143 1.185 . S
O150 Zn146 2.086 . S
C151 O147 1.278 . S
C151 O152 1.211 . S
O152 C151 1.211 . S
C153 O145 1.284 . S
C153 O154 1.273 . S
O154 C153 1.273 . S
O155 Zn146 1.977 . S
O155 C148 1.267 1_655 S
C156 O157 1.160 . S
C156 O163 1.185 . S
O157 C156 1.160 . S
O158 Zn159 1.899 . S
O158 C166 1.284 . S
Zn159 O158 1.899 . S
Zn159 O160 2.032 . S
Zn159 O163 2.086 . S
Zn159 O168 1.977 . S
O160 Zn159 2.032 . S
O160 C164 1.278 . S
C161 O162 1.203 . S
C161 O168 1.267 . S
O162 C161 1.203 . S
O163 C156 1.185 . S
O163 Zn159 2.086 . S
C164 O160 1.278 . S
C164 O165 1.211 . S
O165 C164 1.211 . S
C166 O158 1.284 . S
C166 O167 1.273 . S
O167 C166 1.273 . S
O168 Zn159 1.977 . S
O168 C161 1.267 . S
C169 O170 1.160 . S
C169 O176 1.185 . S
O170 C169 1.160 . S
O171 Zn172 1.899 . S
O171 C179 1.284 . S
Zn172 O171 1.899 . S
Zn172 O173 2.032 . S
Zn172 O176 2.086 . S
Zn172 O181 1.977 . S
O173 Zn172 2.032 . S
O173 C177 1.278 . S
C174 O175 1.203 . S
C174 O181 1.267 . S
O175 C174 1.203 . S
O176 C169 1.185 . S
O176 Zn172 2.086 . S
C177 O173 1.278 . S
C177 O178 1.211 . S
O178 C177 1.211 . S
C179 O171 1.284 . S
C179 O180 1.273 . S
O180 C179 1.273 . S
O181 Zn172 1.977 . S
O181 C174 1.267 . S
C182 O183 1.160 . S
C182 O189 1.185 . S
O183 C182 1.160 . S
O184 Zn185 1.899 . S
O184 C192 1.284 . S
Zn185 O184 1.899 . S
Zn185 O186 2.032 . S
Zn185 O189 2.086 . S
Zn185 O194 1.977 . S
O186 Zn185 2.032 . S
O186 C190 1.278 . S
C187 O188 1.203 . S
C187 O194 1.267 . S
O188 C187 1.203 . S
O189 C182 1.185 . S
O189 Zn185 2.086 . S
C190 O186 1.278 . S
C190 O191 1.211 . S
O191 C190 1.211 . S
C192 O184 1.284 . S
C192 O193 1.273 . S
O193 C192 1.273 . S
O194 Zn185 1.977 . S
O194 C187 1.267 . S
C195 O196 1.160 . S
C195 O202 1.185 . S
O196 C195 1.160 . S
O197 Zn198 1.899 . S
O197 C205 1.284 . S
Zn198 O197 1.899 . S
Zn198 O199 2.032 . S
Zn198 O202 2.086 . S
Zn198 O207 1.977 . S
O199 Zn198 2.032 . S
O199 C203 1.278 . S
C200 O201 1.203 . S
C200 O207 1.267 . S
O201 C200 1.203 . S
O202 C195 1.185 . S
O202 Zn198 2.086 . S
C203 O199 1.278 . S
C203 O204 1.211 . S
O204 C203 1.211 . S
C205 O197 1.284 . S
C205 O206 1.273 . S
O206 C205 1.273 . S
O207 Zn198 1.977 . S
O207 C200 1.267 . S
C208 O209 1.160 . S
C208 O215 1.185 . S
O209 C208 1.160 . S
O210 Zn211 1.899 . S
O210 C218 1.284 . S
Zn211 O210 1.899 . S
Zn211 O212 2.032 . S
Zn211 O215 2.086 . S
Zn211 O220 1.977 . S
O212 Zn211 2.032 . S
O212 C216 1.278 . S
C213 O214 1.203 . S
C213 O220 1.267 . S
O214 C213 1.203 . S
O215 C208 1.185 . S
O215 Zn211 2.086 . S
C216 O212 1.278 . S
C216 O217 1.211 . S
O217 C216 1.211 . S
C218 O210 1.284 . S
C218 O219 1.273 . S
O219 C218 1.273 . S
O220 Zn211 1.977 . S
O220 C213 1.267 . S
C221 O222 1.160 . S
C221 O228 1.185 . S
O222 C221 1.160 . S
O223 Zn224 1.899 . S
O223 C231 1.284 . S
Zn224 O223 1.899 . S
Zn224 O225 2.032 . S
Zn224 O228 2.086 . S
Zn224 O233 1.977 . S
O225 Zn224 2.032 . S
O225 C229 1.278 . S
C226 O227 1.203 . S
C226 O233 1.267 . S
O227 C226 1.203 . S
O228 C221 1.185 . S
O228 Zn224 2.086 . S
C229 O225 1.278 . S
C229 O230 1.211 . S
O230 C229 1.211 . S
C231 O223 1.284 . S
C231 O232 1.273 . S
O232 C231 1.273 . S
O233 Zn224 1.977 . S
O233 C226 1.267 . S
C234 O235 1.160 . S
C234 O241 1.185 . S
O235 C234 1.160 . S
O236 Zn237 1.899 . S
O236 C244 1.284 . S
Zn237 O236 1.899 . S
Zn237 O238 2.032 . S
Zn237 O241 2.086 . S
Zn237 O246 1.977 . S
O238 Zn237 2.032 . S
O238 C242 1.278 . S
C239 O240 1.203 . S
C239 O246 1.267 . S
O240 C239 1.203 . S
O241 C234 1.185 . S
O241 Zn237 2.086 . S
C242 O238 1.278 . S
C242 O243 1.211 . S
O243 C242 1.211 . S
C244 O236 1.284 . S
C244 O245 1.273 . S
O245 C244 1.273 . S
O246 Zn237 1.977 . S
O246 C239 1.267 . S
C247 O248 1.160 . S
C247 O254 1.185 . S
O248 C247 1.160 . S
O249 Zn250 1.899 . S
O249 C257 1.284 . S
Zn250 O249 1.899 . S
Zn250 O251 2.032 . S
Zn250 O254 2.086 . S
Zn250 O259 1.977 . S
O251 Zn250 2.032 . S
O251 C255 1.278 . S
C252 O253 1.203 . S
C252 O259 1.267 . S
O253 C252 1.203 . S
O254 C247 1.185 . S
O254 Zn250 2.086 . S
C255 O251 1.278 . S
C255 O256 1.211 . S
O256 C255 1.211 . S
C257 O249 1.284 . S
C257 O258 1.273 . S
O258 C257 1.273 . S
O259 Zn250 1.977 . S
O259 C252 1.267 . S
C260 O261 1.160 . S
C260 O267 1.185 . S
O261 C260 1.160 . S
O262 Zn263 1.899 . S
O262 C270 1.284 . S
Zn263 O262 1.899 . S
Zn263 O264 2.032 . S
Zn263 O267 2.086 . S
Zn263 O272 1.977 . S
O264 Zn263 2.032 . S
O264 C268 1.278 . S
C265 O266 1.203 . S
C265 O272 1.267 . S
O266 C265 1.203 . S
O267 C260 1.185 . S
O267 Zn263 2.086 . S
C268 O264 1.278 . S
C268 O269 1.211 . S
O269 C268 1.211 . S
C270 O262 1.284 . S
C270 O271 1.273 . S
O271 C270 1.273 . S
O272 Zn263 1.977 . S
O272 C265 1.267 . S
C273 O274 1.160 . S
C273 O280 1.185 . S
O274 C273 1.160 . S
O275 Zn276 1.899 . S
O275 C283 1.284 . S
Zn276 O275 1.899 . S
Zn276 O277 2.032 . S
Zn276 O280 2.086 . S
Zn276 O285 1.977 . S
O277 Zn276 2.032 . S
O277 C281 1.278 . S
C278 O279 1.203 . S
C278 O285 1.267 . S
O279 C278 1.203 . S
O280 C273 1.185 . S
O280 Zn276 2.086 . S
C281 O277 1.278 . S
C281 O282 1.211 . S
O282 C281 1.211 . S
C283 O275 1.284 . S
C283 O284 1.273 . S
O284 C283 1.273 . S
O285 Zn276 1.977 . S
O285 C278 1.267 . S
C286 O287 1.160 . S
C286 O293 1.185 . S
O287 C286 1.160 . S
O288 Zn289 1.899 . S
O288 C296 1.284 . S
Zn289 O288 1.899 . S
Zn289 O290 2.032 . S
Zn289 O293 2.086 . S
Zn289 O298 1.977 . S
O290 Zn289 2.032 . S
O290 C294 1.278 . S
C291 O292 1.203 . S
C291 O298 1.267 . S
O292 C291 1.203 . S
O293 C286 1.185 . S
O293 Zn289 2.086 . S
C294 O290 1.278 . S
C294 O295 1.211 . S
O295 C294 1.211 . S
C296 O288 1.284 . S
C296 O297 1.273 . S
O297 C296 1.273 . S
O298 Zn289 1.977 . S
O298 C291 1.267 . S
C299 O300 1.160 . S
C299 O306 1.185 . S
O300 C299 1.160 . S
O301 Zn302 1.899 . S
O301 C309 1.284 . S
Zn302 O301 1.899 . S
Zn302 O303 2.032 . S
Zn302 O306 2.086 . S
Zn302 O311 1.977 . S
O303 Zn302 2.032 . S
O303 C307 1.278 . S
C304 O305 1.203 . S
C304 O311 1.267 . S
O305 C304 1.203 . S
O306 C299 1.185 . S
O306 Zn302 2.086 . S
C307 O303 1.278 . S
C307 O308 1.211 . S
O308 C307 1.211 . S
C309 O301 1.284 . S
C309 O310 1.273 . S
O310 C309 1.273 . S
O311 Zn302 1.977 . S
O311 C304 1.267 . S
C312 O313 1.160 . S
C312 O319 1.185 . S
O313 C312 1.160 . S
O314 Zn315 1.899 . S
O314 C322 1.284 . S
Zn315 O314 1.899 . S
Zn315 O316 2.032 . S
Zn315 O319 2.086 . S
Zn315 O324 1.977 . S
O316 Zn315 2.032 . S
O316 C320 1.278 . S
C317 O318 1.203 . S
C317 O324 1.267 . S
O318 C317 1.203 . S
O319 C312 1.185 . S
O319 Zn315 2.086 . S
C320 O316 1.278 . S
C320 O321 1.211 . S
O321 C320 1.211 . S
C322 O314 1.284 . S
C322 O323 1.273 . S
O323 C322 1.273 . S
O324 Zn315 1.977 . S
O324 C317 1.267 . S
C325 O326 1.160 . S
C325 O332 1.185 . S
O326 C325 1.160 . S
O327 Zn328 1.899 . S
O327 C335 1.284 . S
Zn328 O327 1.899 . S
Zn328 O329 2.032 . S
Zn328 O332 2.086 . S
Zn328 O337 1.977 . S
O329 Zn328 2.032 . S
O329 C333 1.278 . S
C330 O331 1.203 . S
C330 O337 1.267 . S
O331 C330 1.203 . S
O332 C325 1.185 . S
O332 Zn328 2.086 . S
C333 O329 1.278 . S
C333 O334 1.211 . S
O334 C333 1.211 . S
C335 O327 1.284 . S
C335 O336 1.273 . S
O336 C335 1.273 . S
O337 Zn328 1.977 . S
O337 C330 1.267 . S
C338 O339 1.160 . S
C338 O345 1.185 . S
O339 C338 1.160 . S
O340 Zn341 1.899 . S
O340 C348 1.284 . S
Zn341 O340 1.899 . S
Zn341 O342 2.032 . S
Zn341 O345 2.086 . S
Zn341 O350 1.977 . S
O342 Zn341 2.032 . S
O342 C346 1.278 . S
C343 O344 1.203 . S
C343 O350 1.267 . S
O344 C343 1.203 . S
O345 C338 1.185 . S
O345 Zn341 2.086 . S
C346 O342 1.278 . S
C346 O347 1.211 . S
O347 C346 1.211 . S
C348 O340 1.284 . S
C348 O349 1.273 . S
O349 C348 1.273 . S
O350 Zn341 1.977 . S
O350 C343 1.267 . S
C351 O352 1.160 . S
C351 O358 1.185 . S
O352 C351 1.160 . S
O353 Zn354 1.899 . S
O353 C361 1.284 . S
Zn354 O353 1.899 . S
Zn354 O355 2.032 . S
Zn354 O358 2.086 . S
Zn354 O363 1.977 . S
O355 Zn354 2.032 . S
O355 C359 1.278 . S
C356 O357 1.203 . S
C356 O363 1.267 . S
O357 C356 1.203 . S
O358 C351 1.185 . S
O358 Zn354 2.086 . S
C359 O355 1.278 . S
C359 O360 1.211 . S
O360 C359 1.211 . S
C361 O353 1.284 . S
C361 O362 1.273 . S
O362 C361 1.273 . S
O363 Zn354 1.977 . S
O363 C356 1.267 . S
C364 O365 1.160 . S
C364 O371 1.185 . S
O365 C364 1.160 . S
O366 Zn367 1.899 . S
O366 C374 1.284 . S
Zn367 O366 1.899 . S
Zn367 O368 2.032 . S
Zn367 O371 2.086 . S
Zn367 O376 1.977 . S
O368 Zn367 2.032 . S
O368 C372 1.278 . S
C369 O370 1.203 . S
C369 O376 1.267 . S
O370 C369 1.203 . S
O371 C364 1.185 . S
O371 Zn367 2.086 . S
C372 O368 1.278 . S
C372 O373 1.211 . S
O373 C372 1.211 . S
C374 O366 1.284 . S
C374 O375 1.273 . S
O375 C374 1.273 . S
O376 Zn367 1.977 . S
O376 C369 1.267 . S
C377 O378 1.160 . S
C377 O384 1.185 . S
O378 C377 1.160 . S
O379 Zn380 1.899 . S
O379 C387 1.284 . S
Zn380 O379 1.899 . S
Zn380 O381 2.032 . S
Zn380 O384 2.086 . S
Zn380 O389 1.977 . S
O381 Zn380 2.032 . S
O381 C385 1.278 . S
C382 O383 1.203 . S
C382 O389 1.267 . S
O383 C382 1.203 . S
O384 C377 1.185 . S
O384 Zn380 2.086 . S
C385 O381 1.278 . S
C385 O386 1.211 . S
O386 C385 1.211 . S
C387 O379 1.284 . S
C387 O388 1.273 . S
O388 C387 1.273 . S
O389 Zn380 1.977 . S
O389 C382 1.267 . S
C390 O391 1.160 . S
C390 O397 1.185 . S
O391 C390 1.160 . S
O392 Zn393 1.899 . S
O392 C400 1.284 . S
Zn393 O392 1.899 . S
Zn393 O394 2.032 . S
Zn393 O397 2.086 . S
Zn393 O402 1.977 . S
O394 Zn393 2.032 . S
O394 C398 1.278 . S
C395 O396 1.203 . S
C395 O402 1.267 . S
O396 C395 1.203 . S
O397 C390 1.185 . S
O397 Zn393 2.086 . S
C398 O394 1.278 . S
C398 O399 1.211 . S
O399 C398 1.211 . S
C400 O392 1.284 . S
C400 O401 1.273 . S
O401 C400 1.273 . S
O402 Zn393 1.977 . S
O402 C395 1.267 . S
C403 O404 1.160 . S
C403 O410 1.185 . S
O404 C403 1.160 . S
O405 Zn406 1.899 . S
O405 C413 1.284 . S
Zn406 O405 1.899 . S
Zn406 O407 2.032 . S
Zn406 O410 2.086 . S
Zn406 O415 1.977 . S
O407 Zn406 2.032 . S
O407 C411 1.278 . S
C408 O409 1.203 . S
C408 O415 1.267 . S
O409 C408 1.203 . S
O410 C403 1.185 . S
O410 Zn406 2.086 . S
C411 O407 1.278 . S
C411 O412 1.211 . S
O412 C411 1.211 . S
C413 O405 1.284 . S
C413 O414 1.273 . S
O414 C413 1.273 . S
O415 Zn406 1.977 . S
O415 C408 1.267 . S
C416 O417 1.160 . S
C416 O423 1.185 . S
O417 C416 1.160 . S
O418 Zn419 1.899 . S
O418 C426 1.284 . S
Zn419 O418 1.899 . S
Zn419 O420 2.032 . S
Zn419 O423 2.086 . S
Zn419 O428 1.977 . S
O420 Zn419 2.032 . S
O420 C424 1.278 . S
C421 O422 1.203 . S
C421 O428 1.267 . S
O422 C421 1.203 . S
O423 C416 1.185 . S
O423 Zn419 2.086 . S
C424 O420 1.278 . S
C424 O425 1.211 . S
O425 C424 1.211 . S
C426 O418 1.284 . S
C426 O427 1.273 . S
O427 C426 1.273 . S
O428 Zn419 1.977 . S
O428 C421 1.267 . S
C429 O430 1.160 . S
C429 O436 1.185 . S
O430 C429 1.160 . S
O431 Zn432 1.899 . S
O431 C439 1.284 . S
Zn432 O431 1.899 . S
Zn432 O433 2.032 . S
Zn432 O436 2.086 . S
Zn432 O441 1.977 . S
O433 Zn432 2.032 . S
O433 C437 1.278 . S
C434 O435 1.203 . S
C434 O441 1.267 . S
O435 C434 1.203 . S
O436 C429 1.185 . S
O436 Zn432 2.086 . S
C437 O433 1.278 . S
C437 O438 1.211 . S
O438 C437 1.211 . S
C439 O431 1.284 . S
C439 O440 1.273 . S
O440 C439 1.273 . S
O441 Zn432 1.977 . S
O441 C434 1.267 . S
C442 O443 1.160 . S
C442 O449 1.185 . S
O443 C442 1.160 . S
O444 Zn445 1.899 . S
O444 C452 1.284 . S
Zn445 O444 1.899 . S
Zn445 O446 2.032 . S
Zn445 O449 2.086 . S
Zn445 O454 1.977 . S
O446 Zn445 2.032 . S
O446 C450 1.278 . S
C447 O448 1.203 . S
C447 O454 1.267 . S
O448 C447 1.203 . S
O449 C442 1.185 . S
O449 Zn445 2.086 . S
C450 O446 1.278 . S
C450 O451 1.211 . S
O451 C450 1.211 . S
C452 O444 1.284 . S
C452 O453 1.273 . S
O453 C452 1.273 . S
O454 Zn445 1.977 . S
O454 C447 1.267 . S
C455 O456 1.160 . S
C455 O462 1.185 . S
O456 C455 1.160 . S
O457 Zn458 1.899 . S
O457 C465 1.284 . S
Zn458 O457 1.899 . S
Zn458 O459 2.032 . S
Zn458 O462 2.086 . S
Zn458 O467 1.977 . S
O459 Zn458 2.032 . S
O459 C463 1.278 . S
C460 O461 1.203 . S
C460 O467 1.267 . S
O461 C460 1.203 . S
O462 C455 1.185 . S
O462 Zn458 2.086 . S
C463 O459 1.278 . S
C463 O464 1.211 . S
O464 C463 1.211 . S
C465 O457 1.284 . S
C465 O466 1.273 . S
O466 C465 1.273 . S
O467 Zn458 1.977 . S
O467 C460 1.267 . S
C8 C242 1.219 . S
C255 C21 1.219 . S
C268 C34 1.219 . S
C47 C437 1.219 . S
C60 C450 1.219 . S
C73 C463 1.218 . S
C320 C86 1.219 . S
C99 C333 1.219 . S
C112 C346 1.219 . S
C203 C125 1.219 . S
C216 C138 1.219 . S
C229 C151 1.218 . S
C398 C164 1.219 1_455 S
C411 C177 1.219 . S
C190 C424 1.219 1_545 S
C359 C281 1.219 1_564 S
C294 C372 1.218 1_656 S
C307 C385 1.219 1_556 S
C0 C351 1.488 1_545 S
C364 C13 1.488 1_455 S
C377 C26 1.488 . S
C156 C39 1.488 1_655 S
C169 C52 1.488 . S
C182 C65 1.488 1_545 S
C78 C273 1.488 1_565 S
C286 C91 1.488 1_655 S
C299 C104 1.488 . S
C117 C390 1.488 1_655 S
C130 C403 1.488 . S
C143 C416 1.488 1_545 S
C195 C312 1.488 . S
C208 C325 1.488 1_545 S
C221 C338 1.488 1_655 S
C234 C429 1.488 . S
C442 C247 1.488 1_565 S
C260 C455 1.488 1_655 S
C23 C5 1.746 . S
C18 C36 1.745 . S
C31 C10 1.746 . S
C44 C75 1.746 . S
C49 C57 1.746 . S
C70 C62 1.746 . S
C83 C101 1.746 . S
C96 C114 1.745 . S
C109 C88 1.746 . S
C153 C122 1.746 . S
C135 C127 1.746 . S
C140 C148 1.746 . S
C179 C161 1.746 . S
C192 C174 1.745 . S
C166 C187 1.746 . S
C200 C231 1.746 . S
C213 C205 1.746 . S
C226 C218 1.745 . S
C257 C239 1.746 . S
C252 C270 1.746 . S
C265 C244 1.746 . S
C278 C309 1.745 . S
C291 C283 1.746 . S
C296 C304 1.746 . S
C335 C317 1.746 . S
C330 C348 1.746 . S
C322 C343 1.746 . S
C356 C387 1.745 . S
C369 C361 1.746 . S
C382 C374 1.746 . S
C395 C413 1.746 . S
C408 C426 1.745 . S
C421 C400 1.746 . S
C434 C465 1.746 . S
C447 C439 1.746 . S
C452 C460 1.745 . S
