# Generated by pormake.
# Topology vbi, (5)-cn, num edge types: 1
# Building blocks:
#     Node 0, Type 0, BuildingBlock: BEQFEK_clean_sbu_0, # of connection points: 5
#     Node 1, Type 0, BuildingBlock: BEQFEK_clean_sbu_0, # of connection points: 5
#     Node 2, Type 0, BuildingBlock: BEQFEK_clean_sbu_0, # of connection points: 5
#     Node 3, Type 0, BuildingBlock: BEQFEK_clean_sbu_0, # of connection points: 5
#     Node 4, Type 0, BuildingBlock: BEQFEK_clean_sbu_0, # of connection points: 5
#     Node 5, Type 0, BuildingBlock: BEQFEK_clean_sbu_0, # of connection points: 5
#     Node 6, Type 0, BuildingBlock: BEQFEK_clean_sbu_0, # of connection points: 5
#     Node 7, Type 0, BuildingBlock: BEQFEK_clean_sbu_0, # of connection points: 5
#     Node 8, Type 0, BuildingBlock: BEQFEK_clean_sbu_0, # of connection points: 5
#     Node 9, Type 0, BuildingBlock: BEQFEK_clean_sbu_0, # of connection points: 5
#     Node 10, Type 0, BuildingBlock: BEQFEK_clean_sbu_0, # of connection points: 5
#     Node 11, Type 0, BuildingBlock: BEQFEK_clean_sbu_0, # of connection points: 5
#     Node 12, Type 0, BuildingBlock: BEQFEK_clean_sbu_0, # of connection points: 5
#     Node 13, Type 0, BuildingBlock: BEQFEK_clean_sbu_0, # of connection points: 5
#     Node 14, Type 0, BuildingBlock: BEQFEK_clean_sbu_0, # of connection points: 5
#     Node 15, Type 0, BuildingBlock: BEQFEK_clean_sbu_0, # of connection points: 5
#     Node 16, Type 0, BuildingBlock: BEQFEK_clean_sbu_0, # of connection points: 5
#     Node 17, Type 0, BuildingBlock: BEQFEK_clean_sbu_0, # of connection points: 5
#     Node 18, Type 0, BuildingBlock: BEQFEK_clean_sbu_0, # of connection points: 5
#     Node 19, Type 0, BuildingBlock: BEQFEK_clean_sbu_0, # of connection points: 5
#     Node 20, Type 0, BuildingBlock: BEQFEK_clean_sbu_0, # of connection points: 5
#     Node 21, Type 0, BuildingBlock: BEQFEK_clean_sbu_0, # of connection points: 5
#     Node 22, Type 0, BuildingBlock: BEQFEK_clean_sbu_0, # of connection points: 5
#     Node 23, Type 0, BuildingBlock: BEQFEK_clean_sbu_0, # of connection points: 5
#     Node 24, Type 0, BuildingBlock: BEQFEK_clean_sbu_0, # of connection points: 5
#     Node 25, Type 0, BuildingBlock: BEQFEK_clean_sbu_0, # of connection points: 5
#     Node 26, Type 0, BuildingBlock: BEQFEK_clean_sbu_0, # of connection points: 5
#     Node 27, Type 0, BuildingBlock: BEQFEK_clean_sbu_0, # of connection points: 5
#     Node 28, Type 0, BuildingBlock: BEQFEK_clean_sbu_0, # of connection points: 5
#     Node 29, Type 0, BuildingBlock: BEQFEK_clean_sbu_0, # of connection points: 5
#     Node 30, Type 0, BuildingBlock: BEQFEK_clean_sbu_0, # of connection points: 5
#     Node 31, Type 0, BuildingBlock: BEQFEK_clean_sbu_0, # of connection points: 5
#     Edge 32, Type (0, 0), BuildingBlock: OJICUG_clean_linker_0, # of connection points: 2
#     Edge 33, Type (0, 0), BuildingBlock: OJICUG_clean_linker_0, # of connection points: 2
#     Edge 34, Type (0, 0), BuildingBlock: OJICUG_clean_linker_0, # of connection points: 2
#     Edge 35, Type (0, 0), BuildingBlock: OJICUG_clean_linker_0, # of connection points: 2
#     Edge 36, Type (0, 0), BuildingBlock: OJICUG_clean_linker_0, # of connection points: 2
#     Edge 37, Type (0, 0), BuildingBlock: OJICUG_clean_linker_0, # of connection points: 2
#     Edge 38, Type (0, 0), BuildingBlock: OJICUG_clean_linker_0, # of connection points: 2
#     Edge 39, Type (0, 0), BuildingBlock: OJICUG_clean_linker_0, # of connection points: 2
#     Edge 40, Type (0, 0), BuildingBlock: OJICUG_clean_linker_0, # of connection points: 2
#     Edge 41, Type (0, 0), BuildingBlock: OJICUG_clean_linker_0, # of connection points: 2
#     Edge 42, Type (0, 0), BuildingBlock: OJICUG_clean_linker_0, # of connection points: 2
#     Edge 43, Type (0, 0), BuildingBlock: OJICUG_clean_linker_0, # of connection points: 2
#     Edge 44, Type (0, 0), BuildingBlock: OJICUG_clean_linker_0, # of connection points: 2
#     Edge 45, Type (0, 0), BuildingBlock: OJICUG_clean_linker_0, # of connection points: 2
#     Edge 46, Type (0, 0), BuildingBlock: OJICUG_clean_linker_0, # of connection points: 2
#     Edge 47, Type (0, 0), BuildingBlock: OJICUG_clean_linker_0, # of connection points: 2
#     Edge 48, Type (0, 0), BuildingBlock: OJICUG_clean_linker_0, # of connection points: 2
#     Edge 49, Type (0, 0), BuildingBlock: OJICUG_clean_linker_0, # of connection points: 2
#     Edge 50, Type (0, 0), BuildingBlock: OJICUG_clean_linker_0, # of connection points: 2
#     Edge 51, Type (0, 0), BuildingBlock: OJICUG_clean_linker_0, # of connection points: 2
#     Edge 52, Type (0, 0), BuildingBlock: OJICUG_clean_linker_0, # of connection points: 2
#     Edge 53, Type (0, 0), BuildingBlock: OJICUG_clean_linker_0, # of connection points: 2
#     Edge 54, Type (0, 0), BuildingBlock: OJICUG_clean_linker_0, # of connection points: 2
#     Edge 55, Type (0, 0), BuildingBlock: OJICUG_clean_linker_0, # of connection points: 2
#     Edge 56, Type (0, 0), BuildingBlock: OJICUG_clean_linker_0, # of connection points: 2
#     Edge 57, Type (0, 0), BuildingBlock: OJICUG_clean_linker_0, # of connection points: 2
#     Edge 58, Type (0, 0), BuildingBlock: OJICUG_clean_linker_0, # of connection points: 2
#     Edge 59, Type (0, 0), BuildingBlock: OJICUG_clean_linker_0, # of connection points: 2
#     Edge 60, Type (0, 0), BuildingBlock: OJICUG_clean_linker_0, # of connection points: 2
#     Edge 61, Type (0, 0), BuildingBlock: OJICUG_clean_linker_0, # of connection points: 2
#     Edge 62, Type (0, 0), BuildingBlock: OJICUG_clean_linker_0, # of connection points: 2
#     Edge 63, Type (0, 0), BuildingBlock: OJICUG_clean_linker_0, # of connection points: 2
#     Edge 64, Type (0, 0), BuildingBlock: OJICUG_clean_linker_0, # of connection points: 2
#     Edge 65, Type (0, 0), BuildingBlock: OJICUG_clean_linker_0, # of connection points: 2
#     Edge 66, Type (0, 0), BuildingBlock: OJICUG_clean_linker_0, # of connection points: 2
#     Edge 67, Type (0, 0), BuildingBlock: OJICUG_clean_linker_0, # of connection points: 2
#     Edge 68, Type (0, 0), BuildingBlock: OJICUG_clean_linker_0, # of connection points: 2
#     Edge 69, Type (0, 0), BuildingBlock: OJICUG_clean_linker_0, # of connection points: 2
#     Edge 70, Type (0, 0), BuildingBlock: OJICUG_clean_linker_0, # of connection points: 2
#     Edge 71, Type (0, 0), BuildingBlock: OJICUG_clean_linker_0, # of connection points: 2
#     Edge 72, Type (0, 0), BuildingBlock: OJICUG_clean_linker_0, # of connection points: 2
#     Edge 73, Type (0, 0), BuildingBlock: OJICUG_clean_linker_0, # of connection points: 2
#     Edge 74, Type (0, 0), BuildingBlock: OJICUG_clean_linker_0, # of connection points: 2
#     Edge 75, Type (0, 0), BuildingBlock: OJICUG_clean_linker_0, # of connection points: 2
#     Edge 76, Type (0, 0), BuildingBlock: OJICUG_clean_linker_0, # of connection points: 2
#     Edge 77, Type (0, 0), BuildingBlock: OJICUG_clean_linker_0, # of connection points: 2
#     Edge 78, Type (0, 0), BuildingBlock: OJICUG_clean_linker_0, # of connection points: 2
#     Edge 79, Type (0, 0), BuildingBlock: OJICUG_clean_linker_0, # of connection points: 2
#     Edge 80, Type (0, 0), BuildingBlock: OJICUG_clean_linker_0, # of connection points: 2
#     Edge 81, Type (0, 0), BuildingBlock: OJICUG_clean_linker_0, # of connection points: 2
#     Edge 82, Type (0, 0), BuildingBlock: OJICUG_clean_linker_0, # of connection points: 2
#     Edge 83, Type (0, 0), BuildingBlock: OJICUG_clean_linker_0, # of connection points: 2
#     Edge 84, Type (0, 0), BuildingBlock: OJICUG_clean_linker_0, # of connection points: 2
#     Edge 85, Type (0, 0), BuildingBlock: OJICUG_clean_linker_0, # of connection points: 2
#     Edge 86, Type (0, 0), BuildingBlock: OJICUG_clean_linker_0, # of connection points: 2
#     Edge 87, Type (0, 0), BuildingBlock: OJICUG_clean_linker_0, # of connection points: 2
#     Edge 88, Type (0, 0), BuildingBlock: OJICUG_clean_linker_0, # of connection points: 2
#     Edge 89, Type (0, 0), BuildingBlock: OJICUG_clean_linker_0, # of connection points: 2
#     Edge 90, Type (0, 0), BuildingBlock: OJICUG_clean_linker_0, # of connection points: 2
#     Edge 91, Type (0, 0), BuildingBlock: OJICUG_clean_linker_0, # of connection points: 2
#     Edge 92, Type (0, 0), BuildingBlock: OJICUG_clean_linker_0, # of connection points: 2
#     Edge 93, Type (0, 0), BuildingBlock: OJICUG_clean_linker_0, # of connection points: 2
#     Edge 94, Type (0, 0), BuildingBlock: OJICUG_clean_linker_0, # of connection points: 2
#     Edge 95, Type (0, 0), BuildingBlock: OJICUG_clean_linker_0, # of connection points: 2
#     Edge 96, Type (0, 0), BuildingBlock: OJICUG_clean_linker_0, # of connection points: 2
#     Edge 97, Type (0, 0), BuildingBlock: OJICUG_clean_linker_0, # of connection points: 2
#     Edge 98, Type (0, 0), BuildingBlock: OJICUG_clean_linker_0, # of connection points: 2
#     Edge 99, Type (0, 0), BuildingBlock: OJICUG_clean_linker_0, # of connection points: 2
#     Edge 100, Type (0, 0), BuildingBlock: OJICUG_clean_linker_0, # of connection points: 2
#     Edge 101, Type (0, 0), BuildingBlock: OJICUG_clean_linker_0, # of connection points: 2
#     Edge 102, Type (0, 0), BuildingBlock: OJICUG_clean_linker_0, # of connection points: 2
#     Edge 103, Type (0, 0), BuildingBlock: OJICUG_clean_linker_0, # of connection points: 2
#     Edge 104, Type (0, 0), BuildingBlock: OJICUG_clean_linker_0, # of connection points: 2
#     Edge 105, Type (0, 0), BuildingBlock: OJICUG_clean_linker_0, # of connection points: 2
#     Edge 106, Type (0, 0), BuildingBlock: OJICUG_clean_linker_0, # of connection points: 2
#     Edge 107, Type (0, 0), BuildingBlock: OJICUG_clean_linker_0, # of connection points: 2
#     Edge 108, Type (0, 0), BuildingBlock: OJICUG_clean_linker_0, # of connection points: 2
#     Edge 109, Type (0, 0), BuildingBlock: OJICUG_clean_linker_0, # of connection points: 2
#     Edge 110, Type (0, 0), BuildingBlock: OJICUG_clean_linker_0, # of connection points: 2
#     Edge 111, Type (0, 0), BuildingBlock: OJICUG_clean_linker_0, # of connection points: 2
# Relax obj value: 0.803
# Max RMSD: 0.269
# Mean RMSD: 0.269
data_MOF--net-vbi--node1-BEQFEK_clean_sbu_0--edge1-OJICUG_clean_linker_0
_symmetry_space_group_name_H-M    P1
_symmetry_Int_Tables_number       1
_symmetry_cell_setting            triclinic
loop_
_symmetry_equiv_pos_as_xyz
'x, y, z'
_cell_length_a     22.036395
_cell_length_b     40.551979
_cell_length_c     62.590014
_cell_angle_alpha  89.999726
_cell_angle_beta   89.991586
_cell_angle_gamma 89.970308
loop_
_atom_site_label
_atom_site_type_symbol
_atom_site_fract_x
_atom_site_fract_y
_atom_site_fract_z
_atom_type_partial_charge
Co0 Co 0.3924 0.15047 0.0321 0.0
Co1 Co 0.26927 0.12233 0.01385 0.0
C2 C 0.3112 0.18782 0.00056 0.0
O3 O 0.35553 0.18337 0.01322 0.0
O4 O 0.2716 0.16527 -0.0028 0.0
C5 C 0.50793 0.16524 0.01843 0.0
O6 O 0.47809 0.16501 0.00025 0.0
C7 C 0.17102 0.08016 -0.00706 0.0
C8 C 0.13031 0.05984 0.02233 0.0
C9 C 0.12836 0.05691 0.00032 0.0
N10 N 0.19786 0.09456 0.00996 0.0
N11 N 0.17167 0.08278 0.02736 0.0
C12 C 0.1874 0.08842 0.9704 0.0
H13 H 0.22455 0.1069 0.97 0.0
H14 H 0.20143 0.06586 0.96168 0.0
H15 H 0.14723 0.09907 0.96222 0.0
C16 C 0.43825 0.08744 0.01703 0.0
N17 N 0.39103 0.10782 0.02032 0.0
N18 N 0.3436 0.09741 0.00947 0.0
C19 C 0.36134 0.07088 -0.00222 0.0
C20 C 0.42231 0.06428 0.00201 0.0
C21 C 0.49601 0.08744 0.02964 0.0
H22 H 0.49191 0.1029 0.04416 0.0
H23 H 0.53397 0.09602 0.0195 0.0
H24 H 0.50721 0.06183 0.03451 0.0
O25 O 0.34904 0.15169 0.05847 0.0
O26 O 0.26113 0.13432 0.04513 0.0
H27 H 0.27974 0.04585 -0.01067 0.0
H28 H 0.34572 0.03191 0.97481 0.0
C29 C 0.32265 0.05377 -0.01832 0.0
H30 H 0.31218 0.07121 0.96856 0.0
H31 H 0.18414 0.08904 0.04291 0.0
O32 O 0.47818 0.16255 0.03573 0.0
C33 C 0.29322 0.14497 0.06059 0.0
Co34 Co 0.87843 0.14883 0.03162 0.0
Co35 Co 1.00166 0.1765 0.01313 0.0
C36 C 0.96009 0.11049 0.00076 0.0
O37 O 0.91561 0.11524 0.01331 0.0
O38 O 0.99954 0.13302 -0.00289 0.0
C39 C 0.76267 0.13319 0.01835 0.0
O40 O 0.79214 0.13264 9e-05 0.0
C41 C 0.10034 0.21819 -0.00805 0.0
C42 C 0.14136 0.23862 0.02125 0.0
C43 C 0.14326 0.24136 -0.00077 0.0
N44 N 0.07335 0.20403 0.00904 0.0
N45 N 0.09976 0.21586 0.02637 0.0
C46 C 0.08407 0.20968 0.96944 0.0
H47 H 0.04694 0.1912 0.9691 0.0
H48 H 0.07009 0.23215 0.96061 0.0
H49 H 0.12429 0.19897 0.96133 0.0
C50 C 0.83239 0.21123 0.01546 0.0
N51 N 0.87964 0.19101 0.0191 0.0
N52 N 0.92729 0.20123 0.00828 0.0
C53 C 0.90968 0.22746 -0.00372 0.0
C54 C 0.84858 0.23405 0.00025 0.0
C55 C 0.77435 0.21149 0.02791 0.0
H56 H 0.77838 0.19667 0.04271 0.0
H57 H 0.7368 0.20228 0.01782 0.0
H58 H 0.76259 0.23724 0.0323 0.0
O59 O 0.92134 0.14888 0.0581 0.0
O60 O 0.00935 0.16566 0.04457 0.0
H61 H 0.99152 0.25231 -0.01212 0.0
H62 H 0.92584 0.26614 0.97314 0.0
C63 C 0.94872 0.24434 -0.01982 0.0
H64 H 0.95933 0.22674 0.96717 0.0
H65 H 0.08734 0.20979 0.04196 0.0
O66 O 0.79275 0.13675 0.03551 0.0
C67 C 0.97711 0.1557 0.06017 0.0
Co68 Co 0.39229 0.1501 0.17651 0.0
Co69 Co 0.26922 0.17878 0.19444 0.0
C70 C 0.31002 0.11317 0.20788 0.0
O71 O 0.35472 0.11741 0.19536 0.0
O72 O 0.27062 0.13588 0.21112 0.0
C73 C 0.50767 0.13498 0.19035 0.0
O74 O 0.47778 0.13525 0.20852 0.0
C75 C 0.17092 0.22116 0.21512 0.0
C76 C 0.13113 0.24181 0.18567 0.0
C77 C 0.12859 0.24454 0.20769 0.0
N78 N 0.1981 0.20682 0.19814 0.0
N79 N 0.17249 0.21881 0.1807 0.0
C80 C 0.18687 0.21282 0.2377 0.0
H81 H 0.22419 0.19443 0.23816 0.0
H82 H 0.20044 0.23537 0.24651 0.0
H83 H 0.14664 0.20201 0.24573 0.0
C84 C 0.43862 0.21301 0.19158 0.0
N85 N 0.3912 0.19283 0.1882 0.0
N86 N 0.34375 0.20342 0.19897 0.0
C87 C 0.36164 0.22985 0.21071 0.0
C88 C 0.42276 0.23621 0.2066 0.0
C89 C 0.49648 0.21283 0.17903 0.0
H90 H 0.49242 0.19732 0.16453 0.0
H91 H 0.53431 0.20424 0.18921 0.0
H92 H 0.50783 0.23841 0.17411 0.0
O93 O 0.34931 0.14879 0.15007 0.0
O94 O 0.26139 0.16662 0.16318 0.0
H95 H 0.28012 0.25514 0.21905 0.0
H96 H 0.34605 0.26887 0.23367 0.0
C97 C 0.32287 0.24709 0.22676 0.0
H98 H 0.31205 0.22968 0.23986 0.0
H99 H 0.18535 0.21262 0.16517 0.0
O100 O 0.47797 0.13773 0.17303 0.0
C101 C 0.29359 0.1557 0.14782 0.0
Co102 Co 0.87765 0.15232 0.17647 0.0
Co103 Co 1.00101 0.12339 0.19402 0.0
C104 C 0.96019 0.18887 0.20789 0.0
O105 O 0.91527 0.18475 0.19545 0.0
O106 O 0.99976 0.16616 0.2109 0.0
C107 C 0.76223 0.16728 0.19042 0.0
O108 O 0.79209 0.16683 0.2086 0.0
C109 C 0.09946 0.08068 0.21437 0.0
C110 C 0.13866 0.06023 0.18475 0.0
C111 C 0.14151 0.05727 0.20675 0.0
N112 N 0.07212 0.09524 0.1975 0.0
N113 N 0.0974 0.08337 0.17996 0.0
C114 C 0.08394 0.08885 0.237 0.0
H115 H 0.04679 0.10733 0.23761 0.0
H116 H 0.07029 0.06624 0.24575 0.0
H117 H 0.12439 0.09947 0.245 0.0
C118 C 0.83158 0.08922 0.19128 0.0
N119 N 0.87895 0.10944 0.1879 0.0
N120 N 0.92654 0.09874 0.19855 0.0
C121 C 0.90879 0.0722 0.21022 0.0
C122 C 0.84763 0.06588 0.20618 0.0
C123 C 0.7735 0.08955 0.17887 0.0
H124 H 0.77733 0.10519 0.16442 0.0
H125 H 0.73587 0.09807 0.18918 0.0
H126 H 0.762 0.06403 0.17388 0.0
O127 O 0.92046 0.15411 0.15001 0.0
O128 O 1.00842 0.13583 0.1628 0.0
H129 H 0.99033 0.04678 0.21833 0.0
H130 H 0.92457 0.03301 0.23304 0.0
C131 C 0.94773 0.05482 0.22615 0.0
H132 H 0.95879 0.07212 0.23927 0.0
H133 H 0.08434 0.08972 0.16448 0.0
O134 O 0.79194 0.1647 0.1731 0.0
C135 C 0.97606 0.14709 0.14758 0.0
Co136 Co 0.62794 0.8979 0.92684 0.0
Co137 Co 0.75125 0.92597 0.94497 0.0
C138 C 0.70984 0.86012 0.95786 0.0
O139 O 0.66522 0.86464 0.94534 0.0
O140 O 0.74933 0.88271 0.96127 0.0
C141 C 0.51229 0.88231 0.94028 0.0
O142 O 0.5418 0.88201 0.95852 0.0
C143 C 0.84995 0.96783 0.96594 0.0
C144 C 0.89084 0.98807 0.93656 0.0
C145 C 0.89286 0.99095 0.95857 0.0
N146 N 0.82288 0.95357 0.94891 0.0
N147 N 0.84921 0.96529 0.93152 0.0
C148 C 0.83369 0.9595 -0.01152 0.0
H149 H 0.7965 0.94104 -0.01112 0.0
H150 H 0.81977 0.98204 -0.00275 0.0
H151 H 0.87389 0.9488 -0.00339 0.0
C152 C 0.58187 0.96051 0.94264 0.0
N153 N 0.62914 0.94027 0.93907 0.0
N154 N 0.67686 0.95071 0.94976 0.0
C155 C 0.65931 0.9771 0.96161 0.0
C156 C 0.59815 0.98358 0.95768 0.0
C157 C 0.52372 0.96052 0.93027 0.0
H158 H 0.52769 0.94551 0.91554 0.0
H159 H 0.48631 0.95138 0.94045 0.0
H160 H 0.51178 0.98619 0.92574 0.0
O161 O 0.67066 0.89755 0.90033 0.0
O162 O 0.75872 0.9148 0.91356 0.0
H163 H 0.74124 1.00206 0.96978 0.0
H164 H 0.67565 1.01619 -0.01555 0.0
C165 C 0.69846 0.99425 0.97756 0.0
H166 H 0.70909 0.97688 -0.0093 0.0
H167 H 0.83671 0.95911 0.91596 0.0
O168 O 0.5423 0.88569 0.92308 0.0
C169 C 0.72632 0.90451 0.8981 0.0
Co170 Co 0.14202 0.89951 0.92657 0.0
Co171 Co 0.01893 0.87183 0.94508 0.0
C172 C 0.06108 0.93741 0.95797 0.0
O173 O 0.10529 0.93274 0.94528 0.0
O174 O 0.02145 0.91494 0.96152 0.0
C175 C 0.25759 0.91438 0.94011 0.0
O176 O 0.22777 0.91443 0.9583 0.0
C177 C 0.92044 0.82995 0.96611 0.0
C178 C 0.87997 0.80934 0.93676 0.0
C179 C 0.87782 0.80664 0.95879 0.0
N180 N 0.94744 0.84416 0.94905 0.0
N181 N 0.92139 0.83221 0.93168 0.0
C182 C 0.93657 0.83846 -0.01137 0.0
H183 H 0.97365 0.85697 -0.01101 0.0
H184 H 0.95058 0.81599 -0.00253 0.0
H185 H 0.89629 0.84915 -0.00328 0.0
C186 C 0.1878 0.8367 0.94209 0.0
N187 N 0.1406 0.85703 0.93862 0.0
N188 N 0.09317 0.84688 0.94957 0.0
C189 C 0.11088 0.8206 0.9615 0.0
C190 C 0.17183 0.81387 0.95733 0.0
C191 C 0.24557 0.83642 0.92949 0.0
H192 H 0.24155 0.85164 0.91486 0.0
H193 H 0.28355 0.84512 0.93957 0.0
H194 H 0.25667 0.81071 0.9248 0.0
O195 O 0.09862 0.90044 0.90018 0.0
O196 O 0.01068 0.8836 0.91377 0.0
H197 H 0.02932 0.79573 0.97021 0.0
H198 H 0.09528 0.78223 -0.01509 0.0
C199 C 0.07217 0.80389 0.97778 0.0
H200 H 0.06159 0.82167 -0.0093 0.0
H201 H 0.934 0.8383 0.91611 0.0
O202 O 0.2278 0.91147 0.92283 0.0
C203 C 0.04268 0.89391 0.8982 0.0
Co204 Co 0.6236 0.90121 0.78206 0.0
Co205 Co 0.74672 0.87245 0.76413 0.0
C206 C 0.70591 0.93808 0.75068 0.0
O207 O 0.66118 0.93382 0.76319 0.0
O208 O 0.74535 0.91537 0.74745 0.0
C209 C 0.50821 0.91637 0.76821 0.0
O210 O 0.53811 0.91613 0.75004 0.0
C211 C 0.84487 0.82984 0.74351 0.0
C212 C 0.88435 0.80915 0.77301 0.0
C213 C 0.88694 0.80635 0.75099 0.0
N214 N 0.81775 0.8443 0.76047 0.0
N215 N 0.8432 0.83229 0.77793 0.0
C216 C 0.82911 0.83818 0.72092 0.0
H217 H 0.79201 0.8567 0.72043 0.0
H218 H 0.81531 0.81565 0.71213 0.0
H219 H 0.86951 0.84883 0.7129 0.0
C220 C 0.57728 0.83828 0.76703 0.0
N221 N 0.62471 0.85846 0.77041 0.0
N222 N 0.67215 0.84785 0.75965 0.0
C223 C 0.65426 0.82142 0.74791 0.0
C224 C 0.59315 0.81507 0.75202 0.0
C225 C 0.51932 0.83852 0.77952 0.0
H226 H 0.52327 0.85406 0.79401 0.0
H227 H 0.48159 0.8471 0.76927 0.0
H228 H 0.50787 0.81297 0.78445 0.0
O229 O 0.66673 0.90269 0.80847 0.0
O230 O 0.75453 0.88468 0.79537 0.0
H231 H 0.73567 0.79603 0.73959 0.0
H232 H 0.66973 0.7824 0.72494 0.0
C233 C 0.69299 0.80415 0.73187 0.0
H234 H 0.70392 0.82156 0.71878 0.0
H235 H 0.83033 0.83854 0.79345 0.0
O236 O 0.53791 0.91361 0.78553 0.0
C237 C 0.72243 0.89572 0.81071 0.0
Co238 Co 0.13827 0.8989 0.78201 0.0
Co239 Co 0.01506 0.9279 0.7644 0.0
C240 C 0.05558 0.86227 0.75068 0.0
O241 O 0.10053 0.86636 0.76312 0.0
O242 O 0.0162 0.88505 0.74762 0.0
C243 C 0.2537 0.88394 0.76808 0.0
O244 O 0.22385 0.88442 0.7499 0.0
C245 C 0.91691 0.97042 0.74374 0.0
C246 C 0.87698 0.99097 0.77321 0.0
C247 C 0.87456 0.99379 0.75119 0.0
N248 N 0.94398 0.956 0.76072 0.0
N249 N 0.91829 0.96793 0.77816 0.0
C250 C 0.93299 0.96216 0.72117 0.0
H251 H 0.97032 0.94378 0.7207 0.0
H252 H 0.94661 0.98476 0.7124 0.0
H253 H 0.8928 0.95139 0.71309 0.0
C254 C 0.18457 0.96194 0.7672 0.0
N255 N 0.13716 0.94172 0.77049 0.0
N256 N 0.08964 0.95249 0.75983 0.0
C257 C 0.1075 0.97909 0.74824 0.0
C258 C 0.16865 0.98536 0.75233 0.0
C259 C 0.24241 0.96164 0.77975 0.0
H260 H 0.23836 0.94595 0.79417 0.0
H261 H 0.28028 0.95319 0.76953 0.0
H262 H 0.25372 0.98716 0.7848 0.0
O263 O 0.09552 0.89745 0.80849 0.0
O264 O 1.00753 0.91572 0.79569 0.0
H265 H 0.02589 1.00448 0.74015 0.0
H266 H 0.09174 1.01855 0.72562 0.0
C267 C 0.06864 0.99662 0.73236 0.0
H268 H 0.05784 0.97947 0.71912 0.0
H269 H 0.93106 0.96167 0.79369 0.0
O270 O 0.22396 0.88647 0.7854 0.0
C271 C 0.03996 0.90457 0.81092 0.0
Co272 Co 0.39145 0.6518 0.53166 0.0
Co273 Co 0.26819 0.62373 0.51349 0.0
C274 C 0.31032 0.68907 0.50005 0.0
O275 O 0.3547 0.68459 0.51268 0.0
O276 O 0.27056 0.66658 0.49675 0.0
C277 C 0.50712 0.66634 0.51798 0.0
O278 O 0.47739 0.66601 0.49978 0.0
C279 C 0.16961 0.58159 0.49278 0.0
C280 C 0.12934 0.5613 0.52225 0.0
C281 C 0.12703 0.55838 0.50024 0.0
N282 N 0.19674 0.59599 0.50974 0.0
N283 N 0.17082 0.58423 0.52719 0.0
C284 C 0.18571 0.5898 0.4702 0.0
H285 H 0.22292 0.60822 0.46972 0.0
H286 H 0.19951 0.5672 0.46147 0.0
H287 H 0.14547 0.60049 0.46209 0.0
C288 C 0.43704 0.58866 0.51667 0.0
N289 N 0.38986 0.60906 0.52 0.0
N290 N 0.34241 0.59873 0.50914 0.0
C291 C 0.36007 0.57224 0.4974 0.0
C292 C 0.42103 0.56558 0.5016 0.0
C293 C 0.49488 0.58863 0.52922 0.0
H294 H 0.49091 0.6041 0.54375 0.0
H295 H 0.5328 0.59716 0.51905 0.0
H296 H 0.50603 0.56301 0.5341 0.0
O297 O 0.348 0.65346 0.55801 0.0
O298 O 0.26009 0.63606 0.5447 0.0
H299 H 0.27846 0.54727 0.48889 0.0
H300 H 0.3444 0.53348 0.47428 0.0
C301 C 0.32133 0.55527 0.48125 0.0
H302 H 0.31076 0.57283 0.4682 0.0
H303 H 0.18355 0.59049 0.54272 0.0
O304 O 0.47727 0.66379 0.53528 0.0
C305 C 0.29213 0.64685 0.56013 0.0
Co306 Co 0.87754 0.6504 0.53152 0.0
Co307 Co 1.00084 0.67799 0.51303 0.0
C308 C 0.95924 0.61187 0.5008 0.0
O309 O 0.91479 0.61666 0.51335 0.0
O310 O 0.99865 0.6344 0.49711 0.0
C311 C 0.76194 0.63449 0.51822 0.0
O312 O 0.79152 0.63379 0.49999 0.0
C313 C 0.0994 0.71961 0.49169 0.0
C314 C 0.14085 0.74 0.52092 0.0
C315 C 0.14243 0.74278 0.4989 0.0
N316 N 0.07262 0.70544 0.50882 0.0
N317 N 0.09932 0.71724 0.52611 0.0
C318 C 0.08289 0.7111 0.4692 0.0
H319 H 0.04575 0.69262 0.46892 0.0
H320 H 0.06882 0.73357 0.46038 0.0
H321 H 0.12303 0.70039 0.46104 0.0
C322 C 0.83146 0.71265 0.51519 0.0
N323 N 0.87871 0.69244 0.51884 0.0
N324 N 0.92644 0.70271 0.50809 0.0
C325 C 0.90889 0.72897 0.49611 0.0
C326 C 0.84775 0.73552 0.50003 0.0
C327 C 0.77335 0.71288 0.52759 0.0
H328 H 0.7774 0.69817 0.54244 0.0
H329 H 0.73594 0.70352 0.5175 0.0
H330 H 0.76138 0.73863 0.53191 0.0
O331 O 0.92016 0.65098 0.55804 0.0
O332 O 1.00841 0.6675 0.54456 0.0
H333 H 0.99087 0.75379 0.48784 0.0
H334 H 0.92527 0.76792 0.47318 0.0
C335 C 0.94803 0.74599 0.4801 0.0
H336 H 0.9585 0.72854 0.46699 0.0
H337 H 0.08714 0.71115 0.54172 0.0
O338 O 0.79189 0.63827 0.53539 0.0
C339 C 0.9759 0.65784 0.56017 0.0
Co340 Co 0.38661 0.64992 0.67621 0.0
Co341 Co 0.2634 0.67832 0.69423 0.0
C342 C 0.30443 0.6125 0.70727 0.0
O343 O 0.34901 0.61689 0.69472 0.0
O344 O 0.26507 0.63518 0.71067 0.0
C345 C 0.50159 0.63325 0.68982 0.0
O346 O 0.47171 0.63281 0.70799 0.0
C347 C 0.16456 0.72025 0.7151 0.0
C348 C 0.12419 0.74074 0.68569 0.0
C349 C 0.12176 0.74342 0.70771 0.0
N350 N 0.19191 0.70609 0.69808 0.0
N351 N 0.16592 0.71797 0.68068 0.0
C352 C 0.18069 0.71192 0.73765 0.0
H353 H 0.21825 0.69367 0.73808 0.0
H354 H 0.19398 0.73451 0.74648 0.0
H355 H 0.14062 0.70094 0.74569 0.0
C356 C 0.43322 0.71228 0.69217 0.0
N357 N 0.38573 0.69229 0.68845 0.0
N358 N 0.33792 0.70292 0.69902 0.0
C359 C 0.35555 0.72924 0.71092 0.0
C360 C 0.41691 0.73543 0.70716 0.0
C361 C 0.49192 0.71178 0.68013 0.0
H362 H 0.48801 0.69707 0.66527 0.0
H363 H 0.52844 0.70196 0.69045 0.0
H364 H 0.50514 0.73737 0.67587 0.0
O365 O 0.34401 0.64956 0.64969 0.0
O366 O 0.2559 0.66692 0.66286 0.0
H367 H 0.27349 0.75426 0.71894 0.0
H368 H 0.339 0.76855 0.73358 0.0
C369 C 0.31626 0.74654 0.72677 0.0
H370 H 0.30559 0.72931 0.73998 0.0
H371 H 0.17871 0.71188 0.66512 0.0
O372 O 0.47205 0.63728 0.67258 0.0
C373 C 0.28834 0.65651 0.64743 0.0
Co374 Co 0.87245 0.65037 0.67625 0.0
Co375 Co 0.99648 0.62266 0.69367 0.0
C376 C 0.95334 0.68707 0.70825 0.0
O377 O 0.90873 0.68264 0.69573 0.0
O378 O 0.99382 0.66481 0.71107 0.0
C379 C 0.75693 0.66354 0.69053 0.0
O380 O 0.7869 0.66187 0.70865 0.0
C381 C 0.09557 0.5809 0.71405 0.0
C382 C 0.13609 0.56084 0.68453 0.0
C383 C 0.13834 0.55784 0.70654 0.0
N384 N 0.06838 0.5953 0.69711 0.0
N385 N 0.09442 0.58372 0.67963 0.0
C386 C 0.07876 0.58864 0.73664 0.0
H387 H 0.04038 0.60638 0.73713 0.0
H388 H 0.06635 0.56575 0.7453 0.0
H389 H 0.11822 0.60002 0.74481 0.0
C390 C 0.82954 0.58523 0.68939 0.0
N391 N 0.87538 0.60682 0.6868 0.0
N392 N 0.92302 0.59691 0.69772 0.0
C393 C 0.90631 0.5699 0.70909 0.0
C394 C 0.84638 0.56187 0.70424 0.0
C395 C 0.76976 0.58671 0.67807 0.0
H396 H 0.77101 0.60432 0.66458 0.0
H397 H 0.73347 0.59311 0.68962 0.0
H398 H 0.75848 0.5621 0.67148 0.0
O399 O 0.91556 0.65383 0.64992 0.0
O400 O 1.00408 0.63612 0.6626 0.0
H401 H 0.9892 0.5458 0.71719 0.0
H402 H 0.92351 0.52956 0.73079 0.0
C403 C 0.94557 0.5524 0.72485 0.0
H404 H 0.95437 0.56899 0.73857 0.0
H405 H 0.08154 0.59005 0.66413 0.0
O406 O 0.78656 0.66237 0.67313 0.0
C407 C 0.97148 0.64755 0.64749 0.0
Co408 Co 0.62667 0.39868 0.42747 0.0
Co409 Co 0.75001 0.42705 0.44532 0.0
C410 C 0.708 0.36184 0.45915 0.0
O411 O 0.66343 0.36613 0.44658 0.0
O412 O 0.74783 0.38435 0.46224 0.0
C413 C 0.51096 0.38425 0.4412 0.0
O414 O 0.5406 0.38473 0.45942 0.0
C415 C 0.84844 0.46925 0.46603 0.0
C416 C 0.88884 0.48952 0.43658 0.0
C417 C 0.89105 0.49246 0.45859 0.0
N418 N 0.8214 0.45484 0.44905 0.0
N419 N 0.84738 0.46659 0.43162 0.0
C420 C 0.83222 0.46105 0.4886 0.0
H421 H 0.79498 0.44264 0.48906 0.0
H422 H 0.81838 0.48366 0.49732 0.0
H423 H 0.8724 0.45036 0.49674 0.0
C424 C 0.58109 0.46198 0.44214 0.0
N425 N 0.62829 0.44157 0.43887 0.0
N426 N 0.67578 0.45205 0.44965 0.0
C427 C 0.65811 0.47864 0.46129 0.0
C428 C 0.59711 0.48522 0.4571 0.0
C429 C 0.52325 0.46187 0.42958 0.0
H430 H 0.52722 0.44624 0.41513 0.0
H431 H 0.48532 0.45346 0.43979 0.0
H432 H 0.51212 0.48744 0.42458 0.0
O433 O 0.66997 0.39665 0.40112 0.0
O434 O 0.75797 0.41454 0.41409 0.0
H435 H 0.73977 0.50366 0.4697 0.0
H436 H 0.67385 0.51766 0.48423 0.0
C437 C 0.69688 0.49577 0.47737 0.0
H438 H 0.70738 0.47836 0.49049 0.0
H439 H 0.83471 0.4603 0.41609 0.0
O440 O 0.5409 0.38664 0.42392 0.0
C441 C 0.72572 0.40341 0.39882 0.0
Co442 Co 0.14111 0.40121 0.42691 0.0
Co443 Co 0.01771 0.3733 0.44505 0.0
C444 C 0.05923 0.43902 0.45798 0.0
O445 O 0.10378 0.43441 0.44544 0.0
O446 O 0.01966 0.41649 0.46143 0.0
C447 C 0.25643 0.41665 0.44062 0.0
O448 O 0.22647 0.41693 0.45878 0.0
C449 C 0.9189 0.33134 0.46584 0.0
C450 C 0.87883 0.31084 0.43639 0.0
C451 C 0.87638 0.30807 0.45841 0.0
N452 N 0.94616 0.34562 0.44885 0.0
N453 N 0.92033 0.33374 0.43142 0.0
C454 C 0.93477 0.3397 0.48841 0.0
H455 H 0.97206 0.35809 0.48888 0.0
H456 H 0.94833 0.31715 0.49724 0.0
H457 H 0.89448 0.35052 0.49643 0.0
C458 C 0.18693 0.33854 0.44265 0.0
N459 N 0.13971 0.3588 0.43906 0.0
N460 N 0.09199 0.34847 0.44979 0.0
C461 C 0.10949 0.32211 0.46168 0.0
C462 C 0.17062 0.31555 0.45773 0.0
C463 C 0.24514 0.33848 0.4303 0.0
H464 H 0.24136 0.35359 0.41561 0.0
H465 H 0.28258 0.34745 0.44053 0.0
H466 H 0.25688 0.31281 0.42571 0.0
O467 O 0.09841 0.40182 0.40039 0.0
O468 O 0.01023 0.38482 0.41369 0.0
H469 H 0.02761 0.29716 0.46992 0.0
H470 H 0.0932 0.28322 0.48466 0.0
C471 C 0.07034 0.30508 0.47769 0.0
H472 H 0.05959 0.32256 0.49075 0.0
H473 H 0.93314 0.33988 0.41588 0.0
O474 O 0.22681 0.41337 0.42333 0.0
C475 C 0.04261 0.39511 0.39821 0.0
Co476 Co 0.62931 0.40131 0.28261 0.0
Co477 Co 0.75257 0.37309 0.26445 0.0
C478 C 0.71199 0.43924 0.25187 0.0
O479 O 0.66719 0.43471 0.26431 0.0
O480 O 0.75124 0.41654 0.24836 0.0
C481 C 0.51386 0.41722 0.26904 0.0
O482 O 0.54363 0.41765 0.25084 0.0
C483 C 0.8513 0.33108 0.24354 0.0
C484 C 0.89124 0.3103 0.27293 0.0
C485 C 0.89379 0.30772 0.25091 0.0
N486 N 0.82398 0.34523 0.26056 0.0
N487 N 0.84972 0.33317 0.27796 0.0
C488 C 0.83555 0.33965 0.22099 0.0
H489 H 0.79832 0.35809 0.22057 0.0
H490 H 0.82195 0.31719 0.21208 0.0
H491 H 0.8759 0.35047 0.21303 0.0
C492 C 0.58291 0.339 0.26645 0.0
N493 N 0.63031 0.35906 0.27016 0.0
N494 N 0.67802 0.34863 0.25946 0.0
C495 C 0.66036 0.32243 0.24745 0.0
C496 C 0.59911 0.31608 0.2513 0.0
C497 C 0.52473 0.33893 0.27881 0.0
H498 H 0.52865 0.35383 0.29358 0.0
H499 H 0.48733 0.34812 0.26865 0.0
H500 H 0.51283 0.31323 0.28327 0.0
O501 O 0.67177 0.40123 0.3092 0.0
O502 O 0.75984 0.38403 0.2959 0.0
H503 H 0.74213 0.29728 0.23927 0.0
H504 H 0.67657 0.28359 0.22442 0.0
C505 C 0.69953 0.30535 0.23146 0.0
H506 H 0.71055 0.32285 0.21844 0.0
H507 H 0.83689 0.3392 0.29352 0.0
O508 O 0.54364 0.41367 0.28627 0.0
C509 C 0.72743 0.39419 0.31141 0.0
Co510 Co 0.1434 0.40002 0.28236 0.0
Co511 Co 0.02036 0.42883 0.2644 0.0
C512 C 0.06175 0.36345 0.25063 0.0
O513 O 0.1063 0.36759 0.26323 0.0
O514 O 0.02219 0.38612 0.24749 0.0
C515 C 0.25906 0.38537 0.26861 0.0
O516 O 0.22936 0.38596 0.2504 0.0
C517 C 0.92237 0.4715 0.24374 0.0
C518 C 0.88233 0.4919 0.27323 0.0
C519 C 0.88007 0.49488 0.25122 0.0
N520 N 0.94927 0.45694 0.2607 0.0
N521 N 0.9235 0.46878 0.27815 0.0
C522 C 0.93847 0.4633 0.22116 0.0
H523 H 0.97551 0.44475 0.22068 0.0
H524 H 0.95253 0.48588 0.21246 0.0
H525 H 0.89817 0.45277 0.21302 0.0
C526 C 0.18956 0.4632 0.26775 0.0
N527 N 0.14218 0.44292 0.27095 0.0
N528 N 0.09486 0.45355 0.26013 0.0
C529 C 0.11283 0.4801 0.24852 0.0
C530 C 0.17383 0.4865 0.25278 0.0
C531 C 0.24729 0.46294 0.28036 0.0
H532 H 0.24316 0.44723 0.29478 0.0
H533 H 0.28529 0.45455 0.27018 0.0
H534 H 0.25844 0.48847 0.28544 0.0
O535 O 0.09994 0.39822 0.3087 0.0
O536 O 0.01221 0.41634 0.2956 0.0
H537 H 0.09764 0.51916 0.22556 0.0
H538 H 0.06362 0.48 0.2193 0.0
C539 C 0.07432 0.49738 0.23243 0.0
H540 H 0.03151 0.50546 0.24008 0.0
H541 H 0.93615 0.46242 0.29368 0.0
O542 O 0.22916 0.38774 0.2859 0.0
C543 C 0.04423 0.40516 0.31092 0.0
Co544 Co 0.89061 0.1517 0.53251 0.0
Co545 Co 0.76769 0.12341 0.51434 0.0
C546 C 0.80911 0.18897 0.50105 0.0
O547 O 0.85355 0.18458 0.51367 0.0
O548 O 0.76963 0.16636 0.49771 0.0
C549 C 1.00594 0.16665 0.51875 0.0
O550 O 0.97601 0.16651 0.50059 0.0
C551 C 0.66951 0.08134 0.49339 0.0
C552 C 0.62922 0.0606 0.52273 0.0
C553 C 0.62702 0.05798 0.5007 0.0
N554 N 0.69648 0.09556 0.51044 0.0
N555 N 0.67056 0.08352 0.52781 0.0
C556 C 0.68577 0.08981 0.47086 0.0
H557 H 0.72308 0.10819 0.47051 0.0
H558 H 0.69948 0.0673 0.46202 0.0
H559 H 0.64564 0.10068 0.46279 0.0
C560 C 0.93683 0.08878 0.51736 0.0
N561 N 0.88947 0.10904 0.52072 0.0
N562 N 0.8421 0.09861 0.50986 0.0
C563 C 0.86 0.07222 0.49807 0.0
C564 C 0.92103 0.0657 0.50225 0.0
C565 C 0.99454 0.08876 0.52999 0.0
H566 H 0.99042 0.10424 0.5445 0.0
H567 H 0.03256 0.09729 0.51987 0.0
H568 H 1.00565 0.06314 0.53488 0.0
O569 O 0.84739 0.15294 0.55891 0.0
O570 O 0.75957 0.13535 0.54563 0.0
H571 H 0.77849 0.04715 0.48953 0.0
H572 H 0.84453 0.03342 0.47495 0.0
C573 C 0.82136 0.05519 0.48191 0.0
H574 H 0.81079 0.07272 0.46885 0.0
H575 H 0.68321 0.08961 0.54338 0.0
O576 O 0.97628 0.16389 0.53607 0.0
C577 C 0.79163 0.14609 0.56107 0.0
Co578 Co 0.37572 0.14883 0.5324 0.0
Co579 Co 0.49917 0.17744 0.51482 0.0
C580 C 0.45814 0.11201 0.50107 0.0
O581 O 0.41323 0.11623 0.5135 0.0
O582 O 0.49776 0.13465 0.49801 0.0
C583 C 0.26029 0.13388 0.51853 0.0
O584 O 0.29008 0.13417 0.50034 0.0
C585 C 0.5979 0.21967 0.49436 0.0
C586 C 0.63735 0.24021 0.52391 0.0
C587 C 0.64021 0.24297 0.50189 0.0
N588 N 0.57044 0.20535 0.51128 0.0
N589 N 0.59584 0.21726 0.52878 0.0
C590 C 0.58221 0.2114 0.47176 0.0
H591 H 0.54481 0.19309 0.47122 0.0
H592 H 0.56886 0.234 0.46294 0.0
H593 H 0.6225 0.20053 0.46378 0.0
C594 C 0.32987 0.21193 0.51742 0.0
N595 N 0.37715 0.19164 0.52085 0.0
N596 N 0.42484 0.20224 0.51022 0.0
C597 C 0.40728 0.22878 0.49852 0.0
C598 C 0.34611 0.23521 0.50251 0.0
C599 C 0.27173 0.21172 0.5298 0.0
H600 H 0.27549 0.19618 0.5443 0.0
H601 H 0.23416 0.20313 0.5195 0.0
H602 H 0.26018 0.23728 0.53471 0.0
O603 O 0.41838 0.14718 0.55888 0.0
O604 O 0.5065 0.16516 0.54606 0.0
H605 H 0.48908 0.25394 0.49042 0.0
H606 H 0.42347 0.26796 0.47573 0.0
C607 C 0.4464 0.24606 0.48261 0.0
H608 H 0.45729 0.22874 0.46947 0.0
H609 H 0.58274 0.21107 0.54428 0.0
O610 O 0.29005 0.13657 0.53583 0.0
C611 C 0.47402 0.15409 0.56129 0.0
Co612 Co 0.8893 0.15005 0.67708 0.0
Co613 Co 0.76605 0.17853 0.6951 0.0
C614 C 0.80743 0.11291 0.70848 0.0
O615 O 0.85203 0.11724 0.69592 0.0
O616 O 0.76787 0.13554 0.71173 0.0
C617 C 1.00483 0.13517 0.69086 0.0
O618 O 0.97495 0.13546 0.70903 0.0
C619 C 0.66778 0.22106 0.71583 0.0
C620 C 0.62768 0.2414 0.68634 0.0
C621 C 0.62542 0.24442 0.70835 0.0
N622 N 0.69475 0.20651 0.69887 0.0
N623 N 0.66891 0.21831 0.68142 0.0
C624 C 0.68369 0.2128 0.73841 0.0
H625 H 0.72057 0.19415 0.73891 0.0
H626 H 0.69791 0.23532 0.74713 0.0
H627 H 0.64324 0.20238 0.74653 0.0
C628 C 0.93528 0.213 0.69219 0.0
N629 N 0.88798 0.19273 0.68883 0.0
N630 N 0.84049 0.20324 0.69962 0.0
C631 C 0.85826 0.2297 0.71135 0.0
C632 C 0.9193 0.23616 0.70721 0.0
C633 C 0.99314 0.21293 0.67965 0.0
H634 H 0.98918 0.19743 0.66514 0.0
H635 H 0.03102 0.2044 0.68984 0.0
H636 H 1.00435 0.23853 0.67474 0.0
O637 O 0.84628 0.14888 0.65063 0.0
O638 O 0.75836 0.16662 0.66379 0.0
H639 H 0.77678 0.25499 0.71969 0.0
H640 H 0.84268 0.26866 0.73435 0.0
C641 C 0.81949 0.2469 0.72741 0.0
H642 H 0.80865 0.22945 0.74048 0.0
H643 H 0.68154 0.21197 0.66589 0.0
O644 O 0.9751 0.13784 0.67354 0.0
C645 C 0.79058 0.15584 0.6484 0.0
Co646 Co 0.37518 0.15152 0.67736 0.0
Co647 Co 0.49842 0.12327 0.69553 0.0
C648 C 0.45755 0.18923 0.70832 0.0
O649 O 0.41287 0.18471 0.69582 0.0
O650 O 0.49689 0.16656 0.7118 0.0
C651 C 0.25955 0.16718 0.6909 0.0
O652 O 0.28915 0.1674 0.70913 0.0
C653 C 0.59721 0.08094 0.71616 0.0
C654 C 0.63736 0.0608 0.68661 0.0
C655 C 0.63978 0.05776 0.70861 0.0
N656 N 0.56994 0.09544 0.69924 0.0
N657 N 0.59583 0.08376 0.68176 0.0
C658 C 0.58139 0.08906 0.73877 0.0
H659 H 0.54414 0.10748 0.73934 0.0
H660 H 0.56779 0.06642 0.74749 0.0
H661 H 0.6217 0.09973 0.74683 0.0
C662 C 0.32893 0.08898 0.69316 0.0
N663 N 0.37628 0.10915 0.6896 0.0
N664 N 0.42392 0.09867 0.70032 0.0
C665 C 0.40623 0.07232 0.71218 0.0
C666 C 0.34506 0.06592 0.70822 0.0
C667 C 0.27084 0.08902 0.68075 0.0
H668 H 0.27483 0.1041 0.66605 0.0
H669 H 0.23334 0.09806 0.69093 0.0
H670 H 0.25904 0.06336 0.67616 0.0
O671 O 0.41785 0.15186 0.65082 0.0
O672 O 0.5058 0.13464 0.66419 0.0
H673 H 0.4223 0.03325 0.73506 0.0
H674 H 0.45624 0.07245 0.74123 0.0
C675 C 0.44531 0.05508 0.72813 0.0
H676 H 0.48795 0.04709 0.72032 0.0
H677 H 0.58308 0.09009 0.66624 0.0
O678 O 0.28951 0.16386 0.67369 0.0
C679 C 0.47359 0.14496 0.64868 0.0
Co680 Co 0.12707 0.90082 0.4257 0.0
Co681 Co 0.25027 0.92838 0.44419 0.0
C682 C 0.20896 0.86228 0.45642 0.0
O683 O 0.16448 0.86706 0.44387 0.0
O684 O 0.24828 0.88485 0.46014 0.0
C685 C 0.01152 0.88498 0.43908 0.0
O686 O 0.04119 0.8843 0.45729 0.0
C687 C 0.34913 0.96999 0.46529 0.0
C688 C 0.38966 0.99066 0.43597 0.0
C689 C 0.39188 0.99323 0.45799 0.0
N690 N 0.32193 0.95592 0.44822 0.0
N691 N 0.34805 0.9679 0.43087 0.0
C692 C 0.33311 0.96139 0.48782 0.0
H693 H 0.29582 0.94299 0.48817 0.0
H694 H 0.31948 0.98384 0.49673 0.0
H695 H 0.37334 0.9505 0.49581 0.0
C696 C 0.08091 0.96305 0.44214 0.0
N697 N 0.12819 0.94289 0.43839 0.0
N698 N 0.1759 0.95307 0.44918 0.0
C699 C 0.15833 0.9792 0.46128 0.0
C700 C 0.09716 0.98577 0.45741 0.0
C701 C 0.0228 0.96338 0.42975 0.0
H702 H 0.02674 0.94866 0.4149 0.0
H703 H 0.98531 0.95411 0.43984 0.0
H704 H 0.01101 0.98916 0.42543 0.0
O705 O 0.1697 0.90126 0.39914 0.0
O706 O 0.25785 0.91766 0.41274 0.0
H707 H 0.17463 1.01777 0.48448 0.0
H708 H 0.20824 0.97835 0.49034 0.0
C709 C 0.19749 0.99601 0.47738 0.0
H710 H 0.24021 1.00404 0.46965 0.0
H711 H 0.33541 0.96193 0.41529 0.0
O712 O 0.0414 0.8887 0.42188 0.0
C713 C 0.22553 0.90798 0.3971 0.0
Co714 Co 0.64117 0.9023 0.42587 0.0
Co715 Co 0.51822 0.87383 0.44405 0.0
C716 C 0.55984 0.93931 0.4575 0.0
O717 O 0.60424 0.93503 0.44485 0.0
O718 O 0.52032 0.91669 0.46077 0.0
C719 C 0.7568 0.91705 0.43949 0.0
O720 O 0.72713 0.91667 0.4577 0.0
C721 C 0.42005 0.83157 0.4649 0.0
C722 C 0.37939 0.81127 0.4355 0.0
C723 C 0.37738 0.80835 0.45751 0.0
N724 N 0.44693 0.84598 0.44789 0.0
N725 N 0.42079 0.83421 0.43049 0.0
C726 C 0.4365 0.83976 0.48745 0.0
H727 H 0.47378 0.85815 0.48786 0.0
H728 H 0.45035 0.81715 0.49616 0.0
H729 H 0.39642 0.8505 0.49563 0.0
C730 C 0.68732 0.83923 0.44076 0.0
N731 N 0.64 0.85956 0.43753 0.0
N732 N 0.59265 0.84902 0.44838 0.0
C733 C 0.61055 0.82248 0.46002 0.0
C734 C 0.67154 0.81599 0.45575 0.0
C735 C 0.74498 0.83933 0.42809 0.0
H736 H 0.74076 0.85488 0.41361 0.0
H737 H 0.78302 0.84785 0.43821 0.0
H738 H 0.75617 0.81375 0.42313 0.0
O739 O 0.59777 0.90364 0.39951 0.0
O740 O 0.51009 0.88583 0.41279 0.0
H741 H 0.52904 0.79734 0.46847 0.0
H742 H 0.59512 0.78337 0.48292 0.0
C743 C 0.57196 0.80525 0.47611 0.0
H744 H 0.56148 0.82261 0.48927 0.0
H745 H 0.43328 0.84048 0.41494 0.0
O746 O 0.72688 0.91448 0.42221 0.0
C747 C 0.54206 0.89669 0.39737 0.0
Co748 Co 0.12701 0.90091 0.28081 0.0
Co749 Co 0.25129 0.87319 0.26354 0.0
C750 C 0.20829 0.93775 0.24906 0.0
O751 O 0.16349 0.93327 0.26149 0.0
O752 O 0.2488 0.9155 0.24626 0.0
C753 C 0.01141 0.91433 0.26659 0.0
O754 O 0.04121 0.91281 0.24843 0.0
C755 C 0.35051 0.83138 0.24317 0.0
C756 C 0.39135 0.81165 0.27271 0.0
C757 C 0.39343 0.80843 0.25071 0.0
N758 N 0.32336 0.8459 0.26008 0.0
N759 N 0.34961 0.83452 0.27757 0.0
C760 C 0.33362 0.83896 0.22056 0.0
H761 H 0.29525 0.8567 0.22004 0.0
H762 H 0.32118 0.81601 0.21198 0.0
H763 H 0.37307 0.85026 0.21233 0.0
C764 C 0.08422 0.83582 0.26757 0.0
N765 N 0.13001 0.85743 0.27016 0.0
N766 N 0.17782 0.84744 0.25935 0.0
C767 C 0.16128 0.82032 0.24806 0.0
C768 C 0.1013 0.81233 0.25285 0.0
C769 C 0.0243 0.83738 0.2788 0.0
H770 H 0.02553 0.85491 0.29234 0.0
H771 H 0.98824 0.84394 0.26721 0.0
H772 H 0.01269 0.81278 0.28533 0.0
O773 O 0.16974 0.9041 0.3072 0.0
O774 O 0.25843 0.88636 0.29468 0.0
H775 H 0.24436 0.7962 0.24023 0.0
H776 H 0.17889 0.77965 0.22667 0.0
C777 C 0.20079 0.80261 0.23247 0.0
H778 H 0.20962 0.81898 0.21864 0.0
H779 H 0.33687 0.84097 0.29307 0.0
O780 O 0.04118 0.91296 0.28395 0.0
C781 C 0.22557 0.89771 0.30974 0.0
Co782 Co 0.64127 0.90012 0.28141 0.0
Co783 Co 0.51814 0.92855 0.26338 0.0
C784 C 0.55944 0.86299 0.25007 0.0
O785 O 0.60385 0.86736 0.26268 0.0
O786 O 0.51996 0.88562 0.2467 0.0
C787 C 0.75611 0.88398 0.26756 0.0
O788 O 0.72597 0.8839 0.24944 0.0
C789 C 0.41933 0.97075 0.24277 0.0
C790 C 0.37915 0.99096 0.27229 0.0
C791 C 0.37665 0.99388 0.25029 0.0
N792 N 0.44669 0.95637 0.2597 0.0
N793 N 0.42083 0.96809 0.27718 0.0
C794 C 0.43536 0.96265 0.22017 0.0
H795 H 0.47285 0.94437 0.21964 0.0
H796 H 0.44871 0.98533 0.21144 0.0
H797 H 0.39523 0.95181 0.2121 0.0
C798 C 0.68768 0.96278 0.26591 0.0
N799 N 0.64024 0.94269 0.26948 0.0
N800 N 0.59258 0.95329 0.25883 0.0
C801 C 0.61027 0.9797 0.24702 0.0
C802 C 0.67151 0.98598 0.25093 0.0
C803 C 0.7462 0.96226 0.27806 0.0
H804 H 0.74226 0.94725 0.29279 0.0
H805 H 0.78303 0.9528 0.26773 0.0
H806 H 0.75899 0.98782 0.28255 0.0
O807 O 0.59837 0.8991 0.30789 0.0
O808 O 0.51043 0.91656 0.29464 0.0
H809 H 0.52841 1.0048 0.23889 0.0
H810 H 0.59409 1.01893 0.22428 0.0
C811 C 0.5712 0.99699 0.2311 0.0
H812 H 0.56052 0.9797 0.21792 0.0
H813 H 0.43368 0.96183 0.29269 0.0
O814 O 0.72679 0.88755 0.28489 0.0
C815 C 0.5426 0.9059 0.31006 0.0
Co816 Co 0.89207 0.64975 0.03274 0.0
Co817 Co 0.76899 0.62177 0.0144 0.0
C818 C 0.81057 0.6875 0.0015 0.0
O819 O 0.85495 0.68296 0.01412 0.0
O820 O 0.77112 0.66493 -0.002 0.0
C821 C 1.00759 0.66506 0.0192 0.0
O822 O 0.97785 0.66521 0.001 0.0
C823 C 0.67062 0.57985 -0.00665 0.0
C824 C 0.63011 0.55918 0.02267 0.0
C825 C 0.628 0.55653 0.00065 0.0
N826 N 0.69759 0.59404 0.01042 0.0
N827 N 0.67151 0.58205 0.02778 0.0
C828 C 0.68687 0.58834 0.97083 0.0
H829 H 0.72413 0.60675 0.97049 0.0
H830 H 0.70068 0.56585 0.96199 0.0
H831 H 0.64671 0.59916 0.96275 0.0
C832 C 0.93818 0.58707 0.01715 0.0
N833 N 0.89089 0.60733 0.02062 0.0
N834 N 0.84339 0.59699 0.00979 0.0
C835 C 0.86113 0.57064 -0.00207 0.0
C836 C 0.92218 0.56408 0.00202 0.0
C837 C 0.99607 0.58698 0.02968 0.0
H838 H 0.99196 0.60213 0.04434 0.0
H839 H 0.03382 0.59588 0.01957 0.0
H840 H 1.00758 0.5613 0.03433 0.0
O841 O 0.84899 0.65027 0.05917 0.0
O842 O 0.76097 0.63327 0.04575 0.0
H843 H 0.77947 0.54567 -0.01054 0.0
H844 H 0.84535 0.53186 0.97483 0.0
C845 C 0.82231 0.55366 -0.0182 0.0
H846 H 0.81174 0.5712 0.96875 0.0
H847 H 0.68408 0.58812 0.04335 0.0
O848 O 0.97776 0.66191 0.03646 0.0
C849 C 0.79318 0.64353 0.06127 0.0
Co850 Co 0.37793 0.64798 0.03261 0.0
Co851 Co 0.50104 0.6762 0.01446 0.0
C852 C 0.45942 0.61064 0.00118 0.0
O853 O 0.41488 0.61505 0.01376 0.0
O854 O 0.49899 0.63323 -0.00213 0.0
C855 C 0.26231 0.633 0.01904 0.0
O856 O 0.29198 0.63309 0.00082 0.0
C857 C 0.5995 0.71806 -0.00653 0.0
C858 C 0.64 0.7387 0.0228 0.0
C859 C 0.64223 0.74131 0.00077 0.0
N860 N 0.5724 0.70393 0.01054 0.0
N861 N 0.59844 0.7159 0.0279 0.0
C862 C 0.58324 0.70956 0.97095 0.0
H863 H 0.54598 0.69115 0.97061 0.0
H864 H 0.56942 0.73205 0.96211 0.0
H865 H 0.6234 0.69873 0.96287 0.0
C866 C 0.33191 0.71091 0.01733 0.0
N867 N 0.37922 0.69064 0.02077 0.0
N868 N 0.4267 0.70103 0.00995 0.0
C869 C 0.40895 0.7274 -0.00189 0.0
C870 C 0.34789 0.73395 0.00222 0.0
C871 C 0.27402 0.71094 0.02986 0.0
H872 H 0.27808 0.69564 0.04446 0.0
H873 H 0.23622 0.70218 0.01973 0.0
H874 H 0.26261 0.73659 0.03462 0.0
O875 O 0.42127 0.64667 0.05899 0.0
O876 O 0.50911 0.6643 0.04575 0.0
H877 H 0.49062 0.75234 -0.0104 0.0
H878 H 0.42473 0.76613 0.97497 0.0
C879 C 0.44776 0.74435 -0.01804 0.0
H880 H 0.45832 0.72677 0.96893 0.0
H881 H 0.58578 0.70985 0.04347 0.0
O882 O 0.29221 0.63587 0.0363 0.0
C883 C 0.47702 0.65353 0.06117 0.0
Co884 Co 0.89428 0.65175 0.17705 0.0
Co885 Co 0.7703 0.6792 0.19481 0.0
C886 C 0.81352 0.61456 0.2089 0.0
O887 O 0.85795 0.61918 0.19632 0.0
O888 O 0.77315 0.6368 0.21196 0.0
C889 C 0.00987 0.63837 0.19118 0.0
O890 O 0.97995 0.63984 0.20932 0.0
C891 C 0.67107 0.721 0.21524 0.0
C892 C 0.63019 0.7407 0.18569 0.0
C893 C 0.62812 0.74393 0.20769 0.0
N894 N 0.69822 0.70647 0.19833 0.0
N895 N 0.67193 0.71784 0.18084 0.0
C896 C 0.68793 0.71344 0.23785 0.0
H897 H 0.72625 0.69567 0.23839 0.0
H898 H 0.70043 0.73639 0.24643 0.0
H899 H 0.64846 0.70217 0.24609 0.0
C900 C 0.9372 0.71671 0.19051 0.0
N901 N 0.89139 0.69511 0.18791 0.0
N902 N 0.8438 0.70493 0.19891 0.0
C903 C 0.86054 0.73189 0.21031 0.0
C904 C 0.92042 0.73998 0.20542 0.0
C905 C 0.99687 0.71532 0.1791 0.0
H906 H 0.99546 0.69785 0.16553 0.0
H907 H 0.03328 0.7088 0.19056 0.0
H908 H 1.00812 0.73998 0.17257 0.0
O909 O 0.85115 0.64889 0.15069 0.0
O910 O 0.7627 0.66614 0.1637 0.0
H911 H 0.77766 0.75598 0.21843 0.0
H912 H 0.84333 0.7722 0.23204 0.0
C913 C 0.82128 0.74937 0.22609 0.0
H914 H 0.81249 0.73276 0.2398 0.0
H915 H 0.68465 0.71139 0.16534 0.0
O916 O 0.98019 0.63976 0.1738 0.0
C917 C 0.79515 0.65511 0.14843 0.0
Co918 Co 0.38069 0.65173 0.17718 0.0
Co919 Co 0.50383 0.62351 0.19546 0.0
C920 C 0.46228 0.68935 0.20832 0.0
O921 O 0.41789 0.68487 0.19571 0.0
O922 O 0.50173 0.66675 0.2118 0.0
C923 C 0.26545 0.66824 0.19061 0.0
O924 O 0.29518 0.66871 0.20881 0.0
C925 C 0.60244 0.58167 0.2166 0.0
C926 C 0.6436 0.56132 0.18729 0.0
C927 C 0.64552 0.55856 0.20932 0.0
N928 N 0.57542 0.59584 0.19952 0.0
N929 N 0.60189 0.58405 0.18218 0.0
C930 C 0.58592 0.59004 0.23912 0.0
H931 H 0.54857 0.60841 0.23945 0.0
H932 H 0.57212 0.56749 0.24789 0.0
H933 H 0.62595 0.60083 0.24727 0.0
C934 C 0.33417 0.58936 0.19313 0.0
N935 N 0.38163 0.6094 0.18947 0.0
N936 N 0.42932 0.59886 0.20015 0.0
C937 C 0.41162 0.57256 0.21205 0.0
C938 C 0.35036 0.56628 0.20818 0.0
C939 C 0.27564 0.58975 0.18099 0.0
H940 H 0.27972 0.6044 0.16611 0.0
H941 H 0.23894 0.59958 0.19123 0.0
H942 H 0.26256 0.56413 0.17675 0.0
O943 O 0.42374 0.65206 0.15072 0.0
O944 O 0.51167 0.63474 0.16406 0.0
H945 H 0.49359 0.54761 0.22025 0.0
H946 H 0.42791 0.53338 0.23482 0.0
C947 C 0.4507 0.55536 0.228 0.0
H948 H 0.46115 0.57267 0.24118 0.0
H949 H 0.58947 0.59016 0.1666 0.0
O950 O 0.29517 0.66423 0.17341 0.0
C951 C 0.47944 0.64509 0.14856 0.0
Co952 Co 0.1283 0.39889 0.92588 0.0
Co953 Co 0.25147 0.42675 0.9443 0.0
C954 C 0.2102 0.36068 0.95673 0.0
O955 O 0.16565 0.36535 0.94419 0.0
O956 O 0.24956 0.38327 0.96033 0.0
C957 C 0.01267 0.38308 0.93925 0.0
O958 O 0.04227 0.38251 0.95747 0.0
C959 C 0.35008 0.46845 0.96546 0.0
C960 C 0.39083 0.4891 0.93617 0.0
C961 C 0.39288 0.4917 0.9582 0.0
N962 N 0.32303 0.45436 0.94837 0.0
N963 N 0.34928 0.46633 0.93104 0.0
C964 C 0.33387 0.45987 -0.01203 0.0
H965 H 0.29664 0.44144 -0.01171 0.0
H966 H 0.32005 0.48232 -0.00315 0.0
H967 H 0.37406 0.44904 -0.00397 0.0
C968 C 0.08206 0.46125 0.94205 0.0
N969 N 0.12938 0.44108 0.93839 0.0
N970 N 0.17702 0.45138 0.94918 0.0
C971 C 0.15937 0.47759 0.96118 0.0
C972 C 0.09822 0.4841 0.95724 0.0
C973 C 0.02398 0.46142 0.92964 0.0
H974 H 0.02801 0.44661 0.91484 0.0
H975 H 0.98651 0.45217 0.93975 0.0
H976 H 0.01208 0.48715 0.92525 0.0
O977 O 0.17116 0.39899 0.89938 0.0
O978 O 0.2591 0.41597 0.91286 0.0
H979 H 0.24119 0.50251 0.96953 0.0
H980 H 0.17551 0.51634 -0.01573 0.0
C981 C 0.19842 0.49454 0.97725 0.0
H982 H 0.20908 0.47697 -0.00972 0.0
H983 H 0.33677 0.46032 0.91544 0.0
O984 O 0.04263 0.38671 0.92206 0.0
C985 C 0.22687 0.40594 0.89728 0.0
Co986 Co 0.64222 0.40056 0.92586 0.0
Co987 Co 0.51923 0.37229 0.9441 0.0
C988 C 0.56118 0.43763 0.9576 0.0
O989 O 0.60549 0.43329 0.94491 0.0
O990 O 0.52158 0.41506 0.9609 0.0
C991 C 0.75789 0.41508 0.9395 0.0
O992 O 0.72814 0.41467 0.9577 0.0
C993 C 0.42111 0.33013 0.96504 0.0
C994 C 0.38058 0.30959 0.93568 0.0
C995 C 0.37853 0.30682 0.95771 0.0
N996 N 0.44797 0.34444 0.94799 0.0
N997 N 0.42192 0.33253 0.93061 0.0
C998 C 0.43754 0.33847 -0.01244 0.0
H999 H 0.47479 0.35688 -0.01208 0.0
H1000 H 0.45144 0.31592 -0.00367 0.0
H1001 H 0.39744 0.34924 -0.00428 0.0
C1002 C 0.68814 0.3374 0.94066 0.0
N1003 N 0.64088 0.35778 0.93743 0.0
N1004 N 0.59357 0.34735 0.94834 0.0
C1005 C 0.61144 0.32085 0.96002 0.0
C1006 C 0.67237 0.31425 0.95571 0.0
C1007 C 0.74575 0.33742 0.92796 0.0
H1008 H 0.74155 0.35299 0.91349 0.0
H1009 H 0.78389 0.34586 0.93806 0.0
H1010 H 0.75676 0.31182 0.92299 0.0
O1011 O 0.59858 0.40217 0.89955 0.0
O1012 O 0.51076 0.38464 0.91288 0.0
H1013 H 0.52997 0.29581 0.96864 0.0
H1014 H 0.59611 0.282 -0.01688 0.0
C1015 C 0.57293 0.3038 0.97621 0.0
H1016 H 0.56251 0.32132 -0.01071 0.0
H1017 H 0.43446 0.33871 0.91505 0.0
O1018 O 0.72803 0.41261 0.9222 0.0
C1019 C 0.54274 0.39548 0.89745 0.0
Co1020 Co 0.12567 0.40275 0.78134 0.0
Co1021 Co 0.24884 0.3741 0.76342 0.0
C1022 C 0.20691 0.43929 0.74953 0.0
O1023 O 0.16253 0.43512 0.76219 0.0
O1024 O 0.24663 0.41671 0.74641 0.0
C1025 C 0.0104 0.41822 0.76761 0.0
O1026 O 0.0402 0.41784 0.74942 0.0
C1027 C 0.34749 0.33184 0.74281 0.0
C1028 C 0.38822 0.31194 0.77232 0.0
C1029 C 0.39043 0.30884 0.75031 0.0
N1030 N 0.32031 0.34631 0.75975 0.0
N1031 N 0.34649 0.33477 0.77721 0.0
C1032 C 0.33106 0.33976 0.72021 0.0
H1033 H 0.29355 0.35803 0.71971 0.0
H1034 H 0.31751 0.31702 0.7116 0.0
H1035 H 0.37104 0.35053 0.71201 0.0
C1036 C 0.07957 0.33967 0.76654 0.0
N1037 N 0.12694 0.35989 0.76988 0.0
N1038 N 0.17448 0.3492 0.75919 0.0
C1039 C 0.15674 0.32261 0.74758 0.0
C1040 C 0.0956 0.31628 0.75167 0.0
C1041 C 0.02125 0.34028 0.77882 0.0
H1042 H 0.02536 0.35556 0.79343 0.0
H1043 H 0.98416 0.34949 0.76852 0.0
H1044 H 1.00873 0.31477 0.78353 0.0
O1045 O 0.16909 0.40466 0.80767 0.0
O1046 O 0.25691 0.38667 0.79459 0.0
H1047 H 0.23855 0.29755 0.73933 0.0
H1048 H 0.17268 0.28323 0.72491 0.0
C1049 C 0.19559 0.30525 0.73162 0.0
H1050 H 0.20598 0.32246 0.71836 0.0
H1051 H 0.33382 0.34116 0.79273 0.0
O1052 O 0.04007 0.41518 0.7849 0.0
C1053 C 0.22484 0.39783 0.80991 0.0
Co1054 Co 0.63944 0.40252 0.78157 0.0
Co1055 Co 0.51547 0.42954 0.76356 0.0
C1056 C 0.55846 0.36441 0.75027 0.0
O1057 O 0.6029 0.36931 0.7628 0.0
O1058 O 0.51827 0.38665 0.74693 0.0
C1059 C 0.75489 0.38827 0.76758 0.0
O1060 O 0.72495 0.38904 0.74943 0.0
C1061 C 0.41611 0.47087 0.74275 0.0
C1062 C 0.3748 0.49087 0.77214 0.0
C1063 C 0.37294 0.49382 0.75013 0.0
N1064 N 0.44322 0.45663 0.75977 0.0
N1065 N 0.41665 0.46816 0.77716 0.0
C1066 C 0.43307 0.46297 0.7202 0.0
H1067 H 0.47138 0.44518 0.71979 0.0
H1068 H 0.4456 0.48579 0.71148 0.0
H1069 H 0.39362 0.45159 0.71201 0.0
C1070 C 0.68263 0.46698 0.76716 0.0
N1071 N 0.63677 0.44549 0.77004 0.0
N1072 N 0.58902 0.45514 0.75907 0.0
C1073 C 0.60566 0.48188 0.74741 0.0
C1074 C 0.66565 0.48999 0.7521 0.0
C1075 C 0.74248 0.46575 0.77845 0.0
H1076 H 0.74108 0.44874 0.79226 0.0
H1077 H 0.77858 0.45869 0.76699 0.0
H1078 H 0.75421 0.49055 0.78461 0.0
O1079 O 0.59671 0.40087 0.80806 0.0
O1080 O 0.5081 0.41751 0.79487 0.0
H1081 H 0.52258 0.5058 0.73935 0.0
H1082 H 0.58804 0.52201 0.7256 0.0
C1083 C 0.56615 0.4992 0.73165 0.0
H1084 H 0.55732 0.48249 0.71799 0.0
H1085 H 0.42922 0.46195 0.79272 0.0
O1086 O 0.72525 0.39047 0.78494 0.0
C1087 C 0.54073 0.40715 0.81028 0.0
C1088 C 0.51731 0.05806 -0.01939 0.0
C1089 C 0.46596 0.04344 -0.0099 0.0
H1090 H 0.59992 0.05055 0.96298 0.0
C1091 C 0.45936 1.00914 -0.01067 0.0
H1092 H 0.5232 0.08458 -0.01907 0.0
C1093 C 0.50344 0.98979 0.97923 0.0
C1094 C 0.55476 1.00441 0.96971 0.0
H1095 H 0.42077 0.99731 -0.00318 0.0
H1096 H 0.49752 0.96327 0.9789 0.0
C1097 C 0.56138 0.03871 0.9705 0.0
C1098 C 0.76761 0.30825 0.97701 0.0
C1099 C 0.7162 0.29352 0.96763 0.0
H1100 H 0.85034 0.30094 -0.00541 0.0
C1101 C 0.70962 0.25923 0.96857 0.0
H1102 H 0.77347 0.33477 0.97658 0.0
C1103 C 0.75376 0.24 0.97873 0.0
C1104 C 0.80514 0.25473 -0.01187 0.0
H1105 H 0.67097 0.24731 0.96118 0.0
H1106 H 0.74783 0.21349 0.97921 0.0
C1107 C 0.81175 0.28902 -0.01283 0.0
C1108 C 0.56195 0.26116 0.23825 0.0
C1109 C 0.55563 0.29547 0.23914 0.0
H1110 H 0.52339 0.21548 0.22769 0.0
C1111 C 0.50446 0.31031 0.22965 0.0
H1112 H 0.60035 0.24914 0.24575 0.0
C1113 C 0.46026 0.29117 0.21946 0.0
C1114 C 0.46654 0.25685 0.21859 0.0
H1115 H 0.49876 0.33684 0.23007 0.0
H1116 H 0.42181 0.30318 0.21199 0.0
C1117 C 0.51774 0.24201 0.22807 0.0
C1118 C 0.75315 0.06009 0.22791 0.0
C1119 C 0.80399 0.04522 0.21822 0.0
H1120 H 0.67084 0.05297 0.24577 0.0
C1121 C 0.81001 1.01089 0.21891 0.0
H1122 H 0.74771 0.08664 0.22766 0.0
C1123 C 0.76585 0.99174 0.22912 0.0
C1124 C 0.71502 1.00661 0.23882 0.0
H1125 H 0.84819 0.99887 0.21127 0.0
H1126 H 0.7713 0.96519 0.22938 0.0
C1127 C 0.709 0.04095 0.23812 0.0
C1128 C 0.25286 0.73981 -0.01923 0.0
C1129 C 0.30424 0.75459 -0.00986 0.0
H1130 H 0.17017 0.74701 0.96314 0.0
C1131 C 0.31088 0.78887 -0.01094 0.0
H1132 H 0.24694 0.7133 -0.0187 0.0
C1133 C 0.26683 0.80804 0.97879 0.0
C1134 C 0.21545 0.79325 0.96943 0.0
H1135 H 0.34949 0.80084 -0.00356 0.0
H1136 H 0.27278 0.83455 0.97823 0.0
C1137 C 0.20879 0.75898 0.97052 0.0
C1138 C 0.49854 0.80942 0.73036 0.0
C1139 C 0.54939 0.79449 0.74 0.0
H1140 H 0.41623 0.8024 0.71248 0.0
C1141 C 0.55533 0.76015 0.73926 0.0
H1142 H 0.49315 0.83597 0.73066 0.0
C1143 C 0.51112 0.74107 0.72905 0.0
C1144 C 0.46032 0.75599 0.71937 0.0
H1145 H 0.59352 0.74809 0.74686 0.0
H1146 H 0.51654 0.71451 0.72874 0.0
C1147 C 0.45435 0.79033 0.72012 0.0
C1148 C 0.25033 0.05982 0.72978 0.0
C1149 C 0.30156 0.04513 0.72022 0.0
H1150 H 0.16762 0.05241 0.74736 0.0
C1151 C 0.30789 1.01081 0.72089 0.0
H1152 H 0.24461 0.08636 0.72952 0.0
C1153 C 0.26364 0.99151 0.73092 0.0
C1154 C 0.2124 1.00619 0.74047 0.0
H1155 H 0.34634 0.99893 0.71333 0.0
H1156 H 0.26931 0.96497 0.73113 0.0
C1157 C 0.2061 0.04052 0.73982 0.0
C1158 C 0.55997 0.54028 0.46992 0.0
C1159 C 0.55347 0.50598 0.46908 0.0
H1160 H 0.52171 0.58607 0.48047 0.0
C1161 C 0.50221 0.49128 0.47859 0.0
H1162 H 0.5985 0.55218 0.46243 0.0
C1163 C 0.45812 0.51054 0.48874 0.0
C1164 C 0.46463 0.54484 0.48959 0.0
H1165 H 0.49641 0.46475 0.47823 0.0
H1166 H 0.41959 0.49864 0.49623 0.0
C1167 C 0.51589 0.55955 0.48009 0.0
C1168 C 0.8109 0.79057 0.48713 0.0
C1169 C 0.80438 0.75627 0.48795 0.0
H1170 H 0.77251 0.83639 0.47672 0.0
C1171 C 0.75304 0.74159 0.47848 0.0
H1172 H 0.84944 0.80245 0.49461 0.0
C1173 C 0.70886 0.76089 0.4684 0.0
C1174 C 0.71535 0.79519 0.46761 0.0
H1175 H 0.74717 0.71507 0.47887 0.0
H1176 H 0.67025 0.74901 0.46096 0.0
C1177 C 0.76672 0.80987 0.47705 0.0
C1178 C 0.76668 0.51795 0.70675 0.0
C1179 C 0.80296 0.54181 0.71679 0.0
H1180 H 0.69365 0.48329 0.7101 0.0
C1181 C 0.79165 0.54977 0.73826 0.0
H1182 H 0.77442 0.51147 0.69019 0.0
C1183 C 0.74495 0.53409 0.74951 0.0
C1184 C 0.7088 0.51015 0.7395 0.0
H1185 H 0.81802 0.56871 0.74618 0.0
H1186 H 0.73713 0.54064 0.76605 0.0
C1187 C 0.72002 0.50223 0.71801 0.0
C1188 C 0.26503 0.30955 0.47947 0.0
C1189 C 0.21397 0.29482 0.46985 0.0
H1190 H 0.34737 0.3022 0.49728 0.0
C1191 C 0.20758 0.26051 0.47063 0.0
H1192 H 0.27079 0.33608 0.47913 0.0
C1193 C 0.25159 0.24125 0.48083 0.0
C1194 C 0.30264 0.25598 0.49046 0.0
H1195 H 0.16924 0.2486 0.46303 0.0
H1196 H 0.24588 0.21472 0.48113 0.0
C1197 C 0.30902 0.29029 0.48969 0.0
C1198 C 0.25592 0.56058 0.22993 0.0
C1199 C 0.30688 0.54569 0.22033 0.0
H1200 H 0.17333 0.55348 0.24764 0.0
C1201 C 0.31297 0.51136 0.22111 0.0
H1202 H 0.25041 0.58712 0.2296 0.0
C1203 C 0.26873 0.49224 0.23128 0.0
C1204 C 0.21772 0.50713 0.24085 0.0
H1205 H 0.35122 0.49932 0.21352 0.0
H1206 H 0.27419 0.46569 0.23158 0.0
C1207 C 0.21166 0.54146 0.2401 0.0
C1208 C 1.00243 0.99159 0.47901 0.0
C1209 C 0.05376 1.00638 0.46961 0.0
H1210 H 0.91971 0.99878 0.49663 0.0
C1211 C 0.06033 0.04067 0.47065 0.0
H1212 H 0.99653 0.96508 0.47847 0.0
C1213 C 0.0162 0.05983 0.48088 0.0
C1214 C 0.96483 0.04505 0.49026 0.0
H1215 H 0.09887 0.05265 0.46322 0.0
H1216 H 0.02204 0.08635 0.48136 0.0
C1217 C 0.95831 1.01076 0.48924 0.0
C1218 C 0.05814 0.26125 0.73896 0.0
C1219 C 0.05196 0.29558 0.73967 0.0
H1220 H 0.01957 0.2155 0.72851 0.0
C1221 C 1.00095 0.31038 0.73005 0.0
H1222 H 0.09646 0.24928 0.74654 0.0
C1223 C 0.95676 0.29118 0.71991 0.0
C1224 C 0.96295 0.25685 0.7192 0.0
H1225 H 0.9954 0.33692 0.7303 0.0
H1226 H 0.91843 0.30314 0.71234 0.0
C1227 C 0.01398 0.24205 0.7288 0.0
C1228 C 0.04675 0.79976 0.21888 0.0
C1229 C 0.0581 0.79203 0.24038 0.0
H1230 H 0.99213 0.79033 0.19116 0.0
C1231 C 0.0219 0.76826 0.25054 0.0
H1232 H 0.0731 0.81861 0.21086 0.0
C1233 C 0.97517 0.75245 0.23938 0.0
C1234 C 0.9638 0.76018 0.21788 0.0
H1235 H 0.02972 0.76194 0.26712 0.0
H1236 H 0.9488 0.73361 0.2474 0.0
C1237 C 1.0 0.78396 0.20773 0.0
C1238 C 0.06125 0.53903 0.97034 0.0
C1239 C 0.05474 0.50474 0.96938 0.0
H1240 H 0.02293 0.58473 -0.01899 0.0
C1241 C 1.00346 0.48995 0.97881 0.0
H1242 H 0.09976 0.55099 0.96289 0.0
C1243 C 0.95933 0.50913 -0.01098 0.0
C1244 C 0.96582 0.54343 -0.01003 0.0
H1245 H 0.99762 0.46343 0.97833 0.0
H1246 H 0.92078 0.49717 -0.00355 0.0
C1247 C 0.01712 0.55821 -0.01945 0.0
C1248 C 0.26524 0.11887 0.09459 0.0
C1249 C 0.2677 0.14738 0.082 0.0
H1250 H 0.27115 0.09943 0.12634 0.0
C1251 C 0.2632 0.1785 0.09164 0.0
H1252 H 0.26978 0.09472 0.08734 0.0
C1253 C 0.26273 0.18118 0.11386 0.0
C1254 C 0.26813 0.15275 0.12643 0.0
H1255 H 0.26606 0.20072 0.08207 0.0
H1256 H 0.2653 0.20542 0.1211 0.0
C1257 C 0.2661 0.12156 0.1168 0.0
C1258 C 0.01047 0.124 0.09164 0.0
C1259 C 1.00223 0.15464 0.08168 0.0
H1260 H 0.01115 0.09778 0.12139 0.0
C1261 C 1.00053 0.18346 0.09397 0.0
H1262 H 0.01078 0.10151 0.08229 0.0
C1263 C 0.99941 0.18129 0.11619 0.0
C1264 C 1.00121 0.15034 0.12615 0.0
H1265 H 0.99309 0.20721 0.08647 0.0
H1266 H 0.99132 0.20341 0.12548 0.0
C1267 C 0.01069 0.12188 0.1139 0.0
C1268 C 0.75776 0.87047 0.84429 0.0
C1269 C 0.74813 0.89894 0.83207 0.0
H1270 H 0.75881 0.85016 0.87591 0.0
C1271 C 0.74708 0.92991 0.842 0.0
H1272 H 0.75769 0.84636 0.83681 0.0
C1273 C 0.74912 0.93213 0.86421 0.0
C1274 C 0.75095 0.90333 0.87652 0.0
H1275 H 0.7389 0.95204 0.83273 0.0
H1276 H 0.7422 0.95592 0.87173 0.0
C1277 C 0.75844 0.87263 0.86654 0.0
C1278 C 0.01053 0.93014 0.84501 0.0
C1279 C 0.01511 0.90169 0.83242 0.0
H1280 H 0.01542 0.9497 0.87677 0.0
C1281 C 0.01334 0.87051 0.84208 0.0
H1282 H 0.01296 0.95437 0.83775 0.0
C1283 C 0.01351 0.86784 0.86429 0.0
C1284 C 0.01672 0.89636 0.87685 0.0
H1285 H 0.01781 0.84837 0.83251 0.0
H1286 H 0.01817 0.84368 0.87152 0.0
C1287 C 0.01201 0.92748 0.86723 0.0
C1288 C 0.25715 0.62405 0.61604 0.0
C1289 C 0.26361 0.65492 0.62588 0.0
H1290 H 0.25868 0.59747 0.58644 0.0
C1291 C 0.26423 0.68361 0.61343 0.0
H1292 H 0.25768 0.60168 0.62551 0.0
C1293 C 0.26615 0.68117 0.59123 0.0
C1294 C 0.26617 0.65008 0.58144 0.0
H1295 H 0.27033 0.70754 0.62084 0.0
H1296 H 0.27347 0.70327 0.58184 0.0
C1297 C 0.25772 0.62166 0.5938 0.0
C1298 C 0.993 0.68584 0.59427 0.0
C1299 C 1.00037 0.65749 0.58178 0.0
H1300 H 0.97853 0.70466 0.6258 0.0
C1301 C 0.01309 0.62717 0.59159 0.0
H1302 H 0.98208 0.70928 0.58688 0.0
C1303 C 0.0121 0.62462 0.61385 0.0
C1304 C 0.99697 0.65225 0.6262 0.0
H1305 H 0.01772 0.60498 0.58208 0.0
H1306 H 0.01611 0.6005 0.62117 0.0
C1307 C 0.99079 0.68318 0.61644 0.0
C1308 C 0.74929 0.36896 0.36755 0.0
C1309 C 0.75114 0.39998 0.37742 0.0
H1310 H 0.74298 0.34284 0.3379 0.0
C1311 C 0.76069 0.42834 0.3651 0.0
H1312 H 0.74111 0.34691 0.3769 0.0
C1313 C 0.76053 0.42607 0.34284 0.0
C1314 C 0.75225 0.39537 0.33296 0.0
H1315 H 0.76116 0.45248 0.37252 0.0
H1316 H 0.76093 0.4485 0.33343 0.0
C1317 C 0.75045 0.36663 0.34534 0.0
C1318 C 0.0115 0.42796 0.36698 0.0
C1319 C 0.01751 0.39699 0.37672 0.0
H1320 H 0.01269 0.45466 0.33743 0.0
C1321 C 0.01693 0.36836 0.36423 0.0
H1322 H 0.01292 0.45028 0.37648 0.0
C1323 C 0.01811 0.37089 0.34202 0.0
C1324 C 0.0186 0.40202 0.33229 0.0
H1325 H 0.02264 0.34435 0.37157 0.0
H1326 H 0.02456 0.34877 0.33257 0.0
C1327 C 0.01133 0.43045 0.34474 0.0
C1328 C 0.76244 0.1822 0.61448 0.0
C1329 C 0.76539 0.15355 0.62693 0.0
H1330 H 0.76811 0.20204 0.58281 0.0
C1331 C 0.76154 0.12253 0.61713 0.0
H1332 H 0.76648 0.20629 0.62184 0.0
C1333 C 0.76118 0.12011 0.5949 0.0
C1334 C 0.76604 0.1487 0.58247 0.0
H1335 H 0.76477 0.10021 0.62659 0.0
H1336 H 0.76422 0.09597 0.58755 0.0
C1337 C 0.76344 0.17978 0.59225 0.0
C1338 C 0.50657 0.17953 0.59509 0.0
C1339 C 0.49898 0.15101 0.58275 0.0
H1340 H 0.50468 0.19973 0.62674 0.0
C1341 C 0.49844 0.11999 0.59263 0.0
H1342 H 0.506 0.20366 0.58765 0.0
C1343 C 0.49899 0.11771 0.61485 0.0
C1344 C 0.49882 0.14648 0.6272 0.0
H1345 H 0.49173 0.09782 0.58326 0.0
H1346 H 0.49258 0.09382 0.62228 0.0
C1347 C 0.50577 0.17729 0.61734 0.0
C1348 C 0.2619 0.87656 0.36588 0.0
C1349 C 0.25067 0.90713 0.37559 0.0
H1350 H 0.26523 0.84985 0.33633 0.0
C1351 C 0.24631 0.93562 0.36306 0.0
H1352 H 0.26428 0.8543 0.37542 0.0
C1353 C 0.24566 0.93301 0.34087 0.0
C1354 C 0.25041 0.90197 0.33115 0.0
H1355 H 0.2366 0.95927 0.37037 0.0
H1356 H 0.2356 0.95472 0.33141 0.0
C1357 C 0.26248 0.87404 0.34363 0.0
C1358 C 0.51301 0.92989 0.36607 0.0
C1359 C 0.51665 0.89891 0.37593 0.0
H1360 H 0.51577 0.95626 0.33642 0.0
C1361 C 0.51334 0.87019 0.36357 0.0
H1362 H 0.5165 0.95225 0.37547 0.0
C1363 C 0.51428 0.87248 0.34134 0.0
C1364 C 0.51714 0.90349 0.33148 0.0
H1365 H 0.5172 0.84614 0.37099 0.0
H1366 H 0.51871 0.85015 0.33195 0.0
C1367 C 0.51256 0.93217 0.34384 0.0
C1368 C 0.76941 0.61694 0.09544 0.0
C1369 C 0.7679 0.64534 0.08274 0.0
H1370 H 0.77882 0.59805 0.12721 0.0
C1371 C 0.76006 0.67634 0.09227 0.0
H1372 H 0.77657 0.59292 0.08826 0.0
C1373 C 0.76017 0.67922 0.11449 0.0
C1374 C 0.76951 0.65116 0.12713 0.0
H1375 H 0.75992 0.69851 0.0826 0.0
H1376 H 0.76011 0.70357 0.12163 0.0
C1377 C 0.77081 0.61987 0.11762 0.0
C1378 C 0.50458 0.61766 0.11476 0.0
C1379 C 0.50443 0.64652 0.12703 0.0
H1380 H 0.49631 0.59749 0.08327 0.0
C1381 C 0.51051 0.67728 0.11702 0.0
H1382 H 0.49878 0.5938 0.1223 0.0
C1383 C 0.51035 0.67935 0.09477 0.0
C1384 C 0.50268 0.65071 0.08255 0.0
H1385 H 0.50938 0.69979 0.12635 0.0
H1386 H 0.5091 0.70343 0.08726 0.0
C1387 C 0.50305 0.61977 0.09254 0.0
C1388 C 0.26011 0.37446 0.8657 0.0
C1389 C 0.25186 0.40504 0.87575 0.0
H1390 H 0.26055 0.34843 0.83589 0.0
C1391 C 0.25002 0.43393 0.86354 0.0
H1392 H 0.26055 0.35191 0.875 0.0
C1393 C 0.24867 0.43189 0.84132 0.0
C1394 C 0.25041 0.401 0.83128 0.0
H1395 H 0.24258 0.45763 0.87111 0.0
H1396 H 0.2404 0.45406 0.83209 0.0
C1397 C 0.26013 0.37248 0.84344 0.0
C1398 C 0.51122 0.3733 0.84124 0.0
C1399 C 0.51558 0.40452 0.83174 0.0
H1400 H 0.51386 0.34606 0.87056 0.0
C1401 C 0.5134 0.4329 0.84446 0.0
H1402 H 0.51388 0.35119 0.83155 0.0
C1403 C 0.51464 0.42996 0.86665 0.0
C1404 C 0.51681 0.39866 0.87613 0.0
H1405 H 0.51785 0.45713 0.83732 0.0
H1406 H 0.51989 0.45198 0.87629 0.0
C1407 C 0.51117 0.37038 0.86345 0.0
C1408 C 0.60524 0.15466 0.03783 0.0
C1409 C 0.57406 0.15931 0.01847 0.0
H1410 H 0.6888 0.14166 0.05301 0.0
C1411 C 0.6048 0.15377 -0.00087 0.0
H1412 H 0.5826 0.1583 0.05301 0.0
C1413 C 0.66528 0.14361 -0.00086 0.0
C1414 C 0.69652 0.13902 0.01848 0.0
H1415 H 0.58189 0.15665 -0.01606 0.0
H1416 H 0.68783 0.14 -0.01606 0.0
C1417 C 0.66579 0.14456 0.03783 0.0
C1418 C 0.66514 0.15618 0.20968 0.0
C1419 C 0.6961 0.16137 0.19035 0.0
H1420 H 0.58196 0.14263 0.22485 0.0
C1421 C 0.66519 0.15632 0.17099 0.0
H1422 H 0.68785 0.15939 0.22489 0.0
C1423 C 0.60475 0.14607 0.17096 0.0
C1424 C 0.57379 0.14089 0.1903 0.0
H1425 H 0.68798 0.15968 0.15581 0.0
H1426 H 0.582 0.14282 0.15577 0.0
C1427 C 0.60471 0.14595 0.20966 0.0
C1428 C 0.35482 0.90351 0.92074 0.0
C1429 C 0.32369 0.90842 0.94008 0.0
H1430 H 0.43834 0.8903 0.9056 0.0
C1431 C 0.35446 0.90311 0.95944 0.0
H1432 H 0.33216 0.90696 0.90555 0.0
C1433 C 0.41493 0.89294 0.95947 0.0
C1434 C 0.44613 0.8881 0.94014 0.0
H1435 H 0.33157 0.90619 0.97463 0.0
H1436 H 0.43751 0.88952 0.97468 0.0
C1437 C 0.41536 0.89339 0.92077 0.0
C1438 C 0.41113 0.90516 0.78758 0.0
C1439 C 0.44209 0.91045 0.76825 0.0
H1440 H 0.32793 0.89143 0.80271 0.0
C1441 C 0.41118 0.90546 0.74888 0.0
H1442 H 0.43388 0.90836 0.80278 0.0
C1443 C 0.35077 0.8952 0.74884 0.0
C1444 C 0.31981 0.88989 0.76817 0.0
H1445 H 0.43392 0.90887 0.7337 0.0
H1446 H 0.32807 0.89204 0.73363 0.0
C1447 C 0.35072 0.89487 0.78754 0.0
C1448 C 0.6043 0.65594 0.5375 0.0
C1449 C 0.57325 0.66042 0.5181 0.0
H1450 H 0.6878 0.64313 0.55279 0.0
C1451 C 0.60413 0.65474 0.4988 0.0
H1452 H 0.58156 0.65968 0.55265 0.0
C1453 C 0.66464 0.64463 0.49889 0.0
C1454 C 0.69576 0.64023 0.51828 0.0
H1455 H 0.58131 0.65749 0.48358 0.0
H1456 H 0.6873 0.64093 0.48372 0.0
C1457 C 0.66488 0.64589 0.53758 0.0
C1458 C 0.59896 0.64222 0.70934 0.0
C1459 C 0.5679 0.6384 0.68989 0.0
H1460 H 0.68247 0.65426 0.72481 0.0
C1461 C 0.59908 0.64409 0.67066 0.0
H1462 H 0.57607 0.63846 0.72446 0.0
C1463 C 0.65985 0.65372 0.67087 0.0
C1464 C 0.69083 0.65768 0.69033 0.0
H1465 H 0.57625 0.64175 0.65541 0.0
H1466 H 0.68275 0.65759 0.65577 0.0
C1467 C 0.65971 0.65185 0.70955 0.0
C1468 C 0.35335 0.40612 0.4601 0.0
C1469 C 0.32256 0.41076 0.44068 0.0
H1470 H 0.43637 0.39297 0.47552 0.0
C1471 C 0.35366 0.40518 0.42141 0.0
H1472 H 0.33049 0.40977 0.47524 0.0
C1473 C 0.41412 0.39494 0.42157 0.0
C1474 C 0.44487 0.39026 0.44101 0.0
H1475 H 0.331 0.40811 0.40617 0.0
H1476 H 0.43703 0.39126 0.40645 0.0
C1477 C 0.41378 0.39588 0.46027 0.0
C1478 C 0.35614 0.39572 0.28818 0.0
C1479 C 0.3252 0.39125 0.26877 0.0
H1480 H 0.43949 0.40856 0.30354 0.0
C1481 C 0.35619 0.39695 0.2495 0.0
H1482 H 0.33332 0.39197 0.30332 0.0
C1483 C 0.41668 0.40707 0.24963 0.0
C1484 C 0.44767 0.41148 0.26904 0.0
H1485 H 0.33346 0.39421 0.23426 0.0
H1486 H 0.43942 0.41078 0.23448 0.0
C1487 C 0.41668 0.40581 0.28832 0.0
C1488 C 0.1634 0.14501 0.53802 0.0
C1489 C 0.1942 0.13987 0.51864 0.0
H1490 H 0.08035 0.1587 0.55328 0.0
C1491 C 0.16318 0.1451 0.49932 0.0
H1492 H 0.18624 0.14162 0.55318 0.0
C1493 C 0.10281 0.15546 0.49937 0.0
C1494 C 0.07202 0.16061 0.51875 0.0
H1495 H 0.1858 0.14182 0.4841 0.0
H1496 H 0.08001 0.15881 0.4842 0.0
C1497 C 0.10303 0.15538 0.53807 0.0
C1498 C 0.10174 0.14651 0.71015 0.0
C1499 C 0.07095 0.14109 0.69081 0.0
H1500 H 0.1848 0.16017 0.72534 0.0
C1501 C 0.10208 0.14586 0.67145 0.0
H1502 H 0.07887 0.14353 0.72534 0.0
C1503 C 0.1626 0.15598 0.67145 0.0
C1504 C 0.19339 0.16139 0.6908 0.0
H1505 H 0.07942 0.14232 0.65627 0.0
H1506 H 0.18555 0.15898 0.65627 0.0
C1507 C 0.16221 0.15667 0.71014 0.0
C1508 C 0.85388 0.90543 0.4586 0.0
C1509 C 0.82292 0.91113 0.43933 0.0
H1510 H 0.93706 0.89152 0.47363 0.0
C1511 C 0.85389 0.90664 0.41991 0.0
H1512 H 0.83113 0.90819 0.47384 0.0
C1513 C 0.91443 0.89651 0.41978 0.0
C1514 C 0.94536 0.89081 0.43907 0.0
H1515 H 0.83109 0.9104 0.40478 0.0
H1516 H 0.93726 0.89373 0.40456 0.0
C1517 C 0.91435 0.89525 0.45847 0.0
C1518 C 0.91458 0.90424 0.28635 0.0
C1519 C 0.94529 0.90851 0.26686 0.0
H1520 H 0.83123 0.89197 0.30189 0.0
C1521 C 0.9139 0.90303 0.24766 0.0
H1522 H 0.93769 0.90785 0.30144 0.0
C1523 C 0.85316 0.89339 0.24792 0.0
C1524 C 0.8224 0.88921 0.2674 0.0
H1525 H 0.93644 0.9057 0.23237 0.0
H1526 H 0.83004 0.88988 0.23282 0.0
C1527 C 0.85384 0.89458 0.28661 0.0
C1528 C 0.10468 0.65426 -0.00012 0.0
C1529 C 0.07374 0.65921 0.01925 0.0
H1530 H 0.18786 0.64094 -0.01538 0.0
C1531 C 0.10473 0.654 0.03858 0.0
H1532 H 0.08191 0.6576 -0.0153 0.0
C1533 C 0.16527 0.64387 0.03853 0.0
C1534 C 0.19618 0.63889 0.01916 0.0
H1535 H 0.08195 0.65717 0.05377 0.0
H1536 H 0.18811 0.6405 0.0537 0.0
C1537 C 0.16516 0.64409 -0.00017 0.0
C1538 C 0.16796 0.65927 0.21006 0.0
C1539 C 0.19912 0.66313 0.19063 0.0
H1540 H 0.08434 0.64733 0.22549 0.0
C1541 C 0.16796 0.6576 0.17138 0.0
H1542 H 0.19082 0.66291 0.2252 0.0
C1543 C 0.1071 0.64812 0.17155 0.0
C1544 C 0.07603 0.64413 0.19099 0.0
H1545 H 0.19088 0.65996 0.15614 0.0
H1546 H 0.0842 0.64438 0.15644 0.0
C1547 C 0.10714 0.64977 0.21024 0.0
C1548 C 0.91564 0.39455 0.91989 0.0
C1549 C 0.9465 0.38887 0.93919 0.0
H1550 H 0.83235 0.4084 0.90483 0.0
C1551 C 0.91537 0.39328 0.95857 0.0
H1552 H 0.93856 0.39178 0.90468 0.0
C1553 C 0.85488 0.40342 0.95866 0.0
C1554 C 0.82401 0.40913 0.93937 0.0
H1555 H 0.938 0.38956 0.97374 0.0
H1556 H 0.83205 0.40617 0.97389 0.0
C1557 C 0.85508 0.40464 0.91998 0.0
C1558 C 0.91292 0.40837 0.78702 0.0
C1559 C 0.94411 0.41299 0.76767 0.0
H1560 H 0.82914 0.39586 0.8022 0.0
C1561 C 0.91304 0.40815 0.74832 0.0
H1562 H 0.93578 0.4115 0.80221 0.0
C1563 C 0.85223 0.39862 0.74832 0.0
C1564 C 0.82106 0.39394 0.76767 0.0
H1565 H 0.93594 0.41105 0.73313 0.0
H1566 H 0.82947 0.39544 0.73312 0.0
C1567 C 0.85208 0.39885 0.78702 0.0
C1568 C 0.07918 1.00086 0.0012 0.0
C1569 C 0.09795 0.02866 -0.01081 0.0
H1570 H 0.05088 0.95011 0.00074 0.0
C1571 C 0.09122 0.02738 0.9669 0.0
H1572 H 0.08226 1.00078 0.01846 0.0
C1573 C 0.07329 0.99815 0.95687 0.0
C1574 C 0.06005 0.9697 0.96885 0.0
H1575 H 0.10099 0.04839 0.95696 0.0
H1576 H 0.07266 0.99727 0.93956 0.0
C1577 C 0.06035 0.97172 -0.00886 0.0
C1578 C 0.19825 0.29991 0.95564 0.0
C1579 C 0.21159 0.32839 0.96758 0.0
H1580 H 0.17043 0.24968 0.95582 0.0
C1581 C 0.21148 0.32642 -0.01013 0.0
H1582 H 0.1987 0.30077 0.93834 0.0
C1583 C 0.19268 0.29733 -1e-05 0.0
C1584 C 0.17376 0.26951 -0.01197 0.0
H1585 H 0.22102 0.34806 -0.00056 0.0
H1586 H 0.18972 0.29748 0.01725 0.0
C1587 C 0.18036 0.27071 0.96573 0.0
C1588 C 0.07197 0.30262 0.25126 0.0
C1589 C 0.06001 0.33142 0.23946 0.0
H1590 H 0.09883 0.25222 0.25089 0.0
C1591 C 0.06152 0.32988 0.21716 0.0
H1592 H 0.07045 0.30314 0.26857 0.0
C1593 C 0.08037 0.30086 0.20695 0.0
C1594 C 0.098 0.27271 0.21884 0.0
H1595 H 0.05311 0.35179 0.2077 0.0
H1596 H 0.0845 0.3013 0.18972 0.0
C1597 C 0.08996 0.27351 0.24108 0.0
C1598 C 0.1803 0.02783 0.23996 0.0
C1599 C 0.17204 0.02891 0.21773 0.0
H1600 H 0.1999 0.99784 0.26727 0.0
C1601 C 0.18938 1.00086 0.20568 0.0
H1602 H 0.17167 0.04902 0.24988 0.0
C1603 C 0.20813 0.97167 0.21573 0.0
C1604 C 0.20989 0.96989 0.23802 0.0
H1605 H 0.18507 1.00063 0.18846 0.0
H1606 H 0.21632 0.94986 0.20615 0.0
C1607 C 0.1982 0.99856 0.24997 0.0
C1608 C 0.94798 0.04974 0.00199 0.0
C1609 C 0.96139 0.07813 -0.01002 0.0
H1610 H 0.92008 0.99952 0.00196 0.0
C1611 C 0.96133 0.07601 0.96769 0.0
H1612 H 0.94841 0.0507 0.0193 0.0
C1613 C 0.9425 0.04686 0.95766 0.0
C1614 C 0.92348 1.01914 0.96969 0.0
H1615 H 0.97095 0.09758 0.95806 0.0
H1616 H 0.93958 0.04689 0.94039 0.0
C1617 C 0.93005 1.02048 -0.00801 0.0
C1618 C 0.84039 0.77742 -0.00772 0.0
C1619 C 0.84734 0.77848 0.97 0.0
H1620 H 0.82165 0.74754 0.01972 0.0
C1621 C 0.82874 0.75057 0.95807 0.0
H1622 H 0.85007 0.79852 0.00215 0.0
C1623 C 0.80985 0.72152 0.96823 0.0
C1624 C 0.80934 0.71971 -0.00947 0.0
H1625 H 0.83198 0.75032 0.94082 0.0
H1626 H 0.80054 0.69981 0.9587 0.0
C1627 C 0.8224 0.74827 0.00241 0.0
C1628 C 0.92526 0.7771 0.71765 0.0
C1629 C 0.91727 0.77804 0.73989 0.0
H1630 H 0.94453 0.74729 0.69022 0.0
C1631 C 0.93467 0.7499 0.75183 0.0
H1632 H 0.91656 0.79837 0.7078 0.0
C1633 C 0.95328 0.72077 0.74168 0.0
C1634 C 0.95478 0.71913 0.71938 0.0
H1635 H 0.93058 0.74956 0.76906 0.0
H1636 H 0.9616 0.6989 0.75118 0.0
C1637 C 0.94298 0.74789 0.70753 0.0
C1638 C 0.81814 0.05209 0.70768 0.0
C1639 C 0.80584 0.08079 0.71954 0.0
H1640 H 0.84526 1.00172 0.70796 0.0
C1641 C 0.80715 0.07911 0.74184 0.0
H1642 H 0.81679 0.05272 0.69038 0.0
C1643 C 0.82607 0.05005 0.752 0.0
C1644 C 0.84398 1.022 0.74006 0.0
H1645 H 0.79849 0.10093 0.75135 0.0
H1646 H 0.83001 0.05039 0.76923 0.0
C1647 C 0.83617 1.02294 0.71781 0.0
C1648 C 0.0779 0.50233 0.50121 0.0
C1649 C 0.09636 0.53016 0.48918 0.0
H1650 H 0.04968 0.45156 0.50077 0.0
C1651 C 0.08905 0.52896 0.46691 0.0
H1652 H 0.08144 0.50218 0.51846 0.0
C1653 C 0.07084 0.49977 0.4569 0.0
C1654 C 0.05792 0.47128 0.46888 0.0
H1655 H 0.09861 0.55 0.45697 0.0
H1656 H 0.06984 0.49893 0.43959 0.0
C1657 C 0.05881 0.47322 0.49117 0.0
C1658 C 0.19186 0.79875 0.49962 0.0
C1659 C 0.17273 0.77097 0.48766 0.0
H1660 H 0.22029 0.84946 0.4991 0.0
C1661 C 0.17892 0.77226 0.46535 0.0
H1662 H 0.18924 0.79883 0.51689 0.0
C1663 C 0.19664 0.80151 0.45527 0.0
C1664 C 0.21023 0.82993 0.46722 0.0
H1665 H 0.16882 0.75126 0.45543 0.0
H1666 H 0.19679 0.80242 0.43797 0.0
C1667 C 0.21052 0.82787 0.48951 0.0
C1668 C 0.07315 0.79963 0.70702 0.0
C1669 C 0.09097 0.7715 0.71889 0.0
H1670 H 0.04602 0.85057 0.7078 0.0
C1671 C 0.08307 0.77229 0.74114 0.0
H1672 H 0.07712 0.80008 0.68979 0.0
C1673 C 0.06524 0.80141 0.75134 0.0
C1674 C 0.05328 0.83022 0.73956 0.0
H1675 H 0.09208 0.75099 0.75093 0.0
H1676 H 0.06395 0.80195 0.76865 0.0
C1677 C 0.05446 0.82867 0.71725 0.0
C1678 C 0.20574 0.47257 0.71597 0.0
C1679 C 0.2081 0.47122 0.73827 0.0
H1680 H 0.18162 0.50093 0.68855 0.0
C1681 C 0.19613 0.50004 0.75004 0.0
H1682 H 0.21399 0.45061 0.70655 0.0
C1683 C 0.1776 0.52903 0.73985 0.0
C1684 C 0.16899 0.52967 0.71764 0.0
H1685 H 0.19818 0.49964 0.76734 0.0
H1686 H 0.16892 0.5504 0.74962 0.0
C1687 C 0.18633 0.50148 0.70576 0.0
C1688 C 0.92882 0.52192 0.49195 0.0
C1689 C 0.92172 0.52067 0.46967 0.0
H1690 H 0.94791 0.552 0.51927 0.0
C1691 C 0.94041 0.54845 0.45763 0.0
H1692 H 0.91908 0.50091 0.50191 0.0
C1693 C 0.95958 0.57754 0.46767 0.0
C1694 C 0.96028 0.57955 0.48997 0.0
H1695 H 0.93704 0.54855 0.44038 0.0
H1696 H 0.96896 0.59915 0.45805 0.0
C1697 C 0.94707 0.55112 0.50196 0.0
C1698 C 0.83799 0.27893 0.49178 0.0
C1699 C 0.84582 0.27987 0.46952 0.0
H1700 H 0.81855 0.24913 0.51919 0.0
C1701 C 0.82798 0.25184 0.45757 0.0
H1702 H 0.84706 0.30013 0.50163 0.0
C1703 C 0.80905 0.22278 0.46771 0.0
C1704 C 0.80767 0.2211 0.49001 0.0
H1705 H 0.83195 0.2515 0.44034 0.0
H1706 H 0.80042 0.20097 0.45819 0.0
C1707 C 0.81994 0.24977 0.50188 0.0
C1708 C 0.93229 0.27881 0.21745 0.0
C1709 C 0.92443 0.2796 0.23971 0.0
H1710 H 0.95155 0.24919 0.18995 0.0
C1711 C 0.94224 0.25146 0.25157 0.0
H1712 H 0.92326 0.3001 0.20766 0.0
C1713 C 0.96102 0.22244 0.24134 0.0
C1714 C 0.96229 0.22091 0.21904 0.0
H1715 H 0.93828 0.251 0.2688 0.0
H1716 H 0.9695 0.20053 0.25079 0.0
C1717 C 0.95023 0.24971 0.20725 0.0
C1718 C 0.82483 0.55379 0.20787 0.0
C1719 C 0.81229 0.58233 0.21985 0.0
H1720 H 0.85181 0.50342 0.20794 0.0
C1721 C 0.81299 0.58036 0.24215 0.0
H1722 H 0.82384 0.55463 0.19057 0.0
C1723 C 0.83158 0.55115 0.25219 0.0
C1724 C 0.84974 0.52325 0.24016 0.0
H1725 H 0.80403 0.60206 0.25174 0.0
H1726 H 0.83503 0.55125 0.26945 0.0
C1727 C 0.84254 0.52449 0.21789 0.0
C1728 C 0.57096 1.0001 0.45693 0.0
C1729 C 0.55847 0.97133 0.46869 0.0
H1730 H 0.5982 0.05042 0.45741 0.0
C1731 C 0.55962 0.97281 0.49099 0.0
H1732 H 0.56974 0.99962 0.43963 0.0
C1733 C 0.57853 1.00176 0.50126 0.0
C1734 C 0.59655 0.02988 0.48944 0.0
H1735 H 0.5508 0.95092 0.50042 0.0
H1736 H 0.58231 1.00127 0.5185 0.0
C1737 C 0.58898 0.02914 0.46718 0.0
C1738 C 0.68858 0.29922 0.50275 0.0
C1739 C 0.67101 0.27112 0.49081 0.0
H1740 H 0.71601 0.35011 0.50209 0.0
C1741 C 0.67932 0.27196 0.46858 0.0
H1742 H 0.68423 0.29963 0.51998 0.0
C1743 C 0.69752 0.30106 0.45846 0.0
C1744 C 0.70949 0.3298 0.4703 0.0
H1745 H 0.6705 0.2507 0.45875 0.0
H1746 H 0.69926 0.30161 0.44116 0.0
C1747 C 0.70766 0.32824 0.4926 0.0
C1748 C 0.5882 0.27429 0.74165 0.0
C1749 C 0.59508 0.27282 0.71937 0.0
H1750 H 0.5697 0.30468 0.76888 0.0
C1751 C 0.57653 0.30057 0.70726 0.0
H1752 H 0.5978 0.25334 0.75167 0.0
C1753 C 0.55782 0.32983 0.71721 0.0
C1754 C 0.55743 0.33204 0.7395 0.0
H1755 H 0.57969 0.30051 0.69 0.0
H1756 H 0.54852 0.35139 0.70753 0.0
C1757 C 0.57041 0.30365 0.75158 0.0
C1758 C 0.68801 1.00147 0.70748 0.0
C1759 C 0.67032 0.02941 0.71957 0.0
H1760 H 0.71509 0.95051 0.70786 0.0
C1761 C 0.67821 0.0282 0.74181 0.0
H1762 H 0.68401 1.00134 0.69025 0.0
C1763 C 0.69608 0.9989 0.75178 0.0
C1764 C 0.70803 0.9703 0.73977 0.0
H1765 H 0.66926 0.04932 0.75177 0.0
H1766 H 0.69746 0.99806 0.76908 0.0
C1767 C 0.7067 0.97224 0.71748 0.0
C1768 C 0.44042 0.04942 0.45739 0.0
C1769 C 0.4224 1.02131 0.46924 0.0
H1770 H 0.46785 0.1003 0.45819 0.0
C1771 C 0.42988 1.02212 0.4915 0.0
H1772 H 0.43672 0.04987 0.44015 0.0
C1773 C 0.44775 0.0512 0.50172 0.0
C1774 C 0.46012 0.07996 0.48994 0.0
H1775 H 0.42065 1.00085 0.50129 0.0
H1776 H 0.44883 0.05174 0.51903 0.0
C1777 C 0.45913 0.07842 0.46764 0.0
C1778 C 0.33983 0.779 0.49092 0.0
C1779 C 0.34689 0.78013 0.46864 0.0
H1780 H 0.321 0.74905 0.5183 0.0
C1781 C 0.32841 0.75224 0.45667 0.0
H1782 H 0.34937 0.80009 0.50082 0.0
C1783 C 0.3096 0.72314 0.46678 0.0
C1784 C 0.30899 0.72127 0.48908 0.0
H1785 H 0.33176 0.75206 0.43941 0.0
H1786 H 0.30042 0.70144 0.45722 0.0
C1787 C 0.32186 0.74982 0.501 0.0
C1788 C 0.45097 0.75011 0.20743 0.0
C1789 C 0.46333 0.72148 0.21936 0.0
H1790 H 0.42344 0.80042 0.2076 0.0
C1791 C 0.46125 0.72316 0.24165 0.0
H1792 H 0.45278 0.74945 0.19013 0.0
C1793 C 0.44175 0.75217 0.25172 0.0
C1794 C 0.42409 0.78017 0.23971 0.0
H1795 H 0.4698 0.70137 0.2512 0.0
H1796 H 0.4373 0.75185 0.26895 0.0
C1797 C 0.43241 0.77922 0.21748 0.0
C1798 C 0.30935 0.07924 0.24117 0.0
C1799 C 0.30799 0.08101 0.21888 0.0
H1800 H 0.33222 0.05038 0.26849 0.0
C1801 C 0.31993 0.05233 0.20695 0.0
H1802 H 0.30093 0.10104 0.25072 0.0
C1803 C 0.33785 1.02311 0.21701 0.0
C1804 C 0.34588 1.0221 0.23925 0.0
H1805 H 0.31849 0.05303 0.18965 0.0
H1806 H 0.3468 1.00191 0.20713 0.0
C1807 C 0.32814 0.0501 0.25126 0.0
C1808 C 0.57933 0.50034 0.00126 0.0
C1809 C 0.59757 0.5284 -0.0106 0.0
H1810 H 0.5516 0.44951 0.00049 0.0
C1811 C 0.59034 0.52752 0.96713 0.0
H1812 H 0.58281 0.49996 0.01851 0.0
C1813 C 0.57249 0.49842 0.95692 0.0
C1814 C 0.55984 0.46971 0.96872 0.0
H1815 H 0.5997 0.54875 0.95732 0.0
H1816 H 0.57151 0.49785 0.93962 0.0
C1817 C 0.56059 0.47133 -0.00898 0.0
C1818 C 0.69167 0.79728 0.00139 0.0
C1819 C 0.67294 0.76934 -0.01048 0.0
H1820 H 0.72004 0.84801 0.00067 0.0
C1821 C 0.67997 0.77028 0.96723 0.0
H1822 H 0.68838 0.79762 0.01865 0.0
C1823 C 0.69808 0.79936 0.95705 0.0
C1824 C 0.71122 0.82797 0.96888 0.0
H1825 H 0.67022 0.74914 0.9574 0.0
H1826 H 0.69883 0.80001 0.93974 0.0
C1827 C 0.71069 0.82626 -0.00882 0.0
C1828 C 0.58903 0.77314 0.2409 0.0
C1829 C 0.59746 0.7722 0.21868 0.0
H1830 H 0.56854 0.80288 0.26824 0.0
C1831 C 0.57988 0.80021 0.20666 0.0
H1832 H 0.59793 0.75192 0.25077 0.0
C1833 C 0.56041 0.82923 0.21672 0.0
C1834 C 0.55822 0.83089 0.23901 0.0
H1835 H 0.58443 0.80054 0.18944 0.0
H1836 H 0.55198 0.85104 0.20718 0.0
C1837 C 0.57043 0.80224 0.25094 0.0
C1838 C 0.71389 0.47351 0.21872 0.0
C1839 C 0.71383 0.47154 0.24101 0.0
H1840 H 0.69228 0.50246 0.19132 0.0
C1841 C 0.70064 0.50007 0.25293 0.0
H1842 H 0.72338 0.45184 0.20916 0.0
C1843 C 0.68285 0.52929 0.24282 0.0
C1844 C 0.67621 0.53045 0.22052 0.0
H1845 H 0.701 0.49923 0.27023 0.0
H1846 H 0.67293 0.55035 0.25271 0.0
C1847 C 0.69521 0.50262 0.20858 0.0
C1848 C 0.44177 0.54781 0.9576 0.0
C1849 C 0.42334 0.5198 0.96946 0.0
H1850 H 0.46957 0.59863 0.95834 0.0
C1851 C 0.43037 0.52072 -0.00826 0.0
H1852 H 0.43847 0.54816 0.94034 0.0
C1853 C 0.44816 0.54985 0.00194 0.0
C1854 C 0.46095 0.57852 -0.00988 0.0
H1855 H 0.42085 0.49953 0.00156 0.0
H1856 H 0.44893 0.55048 0.01925 0.0
C1857 C 0.46045 0.57684 0.96782 0.0
C1858 C 0.32293 0.24857 0.00135 0.0
C1859 C 0.30998 0.21996 -0.01049 0.0
H1860 H 0.35053 0.29883 0.00104 0.0
C1861 C 0.31065 0.22169 0.9672 0.0
H1862 H 0.32205 0.24791 0.01866 0.0
C1863 C 0.32955 0.25071 0.95702 0.0
C1864 C 0.34805 0.27867 0.96892 0.0
H1865 H 0.30143 0.19993 0.9577 0.0
H1866 H 0.33293 0.25041 0.93976 0.0
C1867 C 0.34096 0.27768 -0.0088 0.0
C1868 C 0.45877 0.22366 0.7414 0.0
C1869 C 0.45934 0.22156 0.71911 0.0
H1870 H 0.43646 0.25282 0.76865 0.0
C1871 C 0.44655 0.25001 0.70708 0.0
H1872 H 0.46789 0.20204 0.75105 0.0
C1873 C 0.42854 0.2793 0.71704 0.0
C1874 C 0.4213 0.28061 0.73931 0.0
H1875 H 0.4474 0.24907 0.68977 0.0
H1876 H 0.41895 0.3003 0.70706 0.0
C1877 C 0.43989 0.25285 0.7514 0.0
C1878 C 0.30499 0.57894 0.74068 0.0
C1879 C 0.30319 0.58044 0.71838 0.0
H1880 H 0.32867 0.5505 0.7681 0.0
C1881 C 0.31572 0.55173 0.70656 0.0
H1882 H 0.2963 0.60081 0.75015 0.0
C1883 C 0.33423 0.52271 0.71673 0.0
C1884 C 0.3423 0.52195 0.73898 0.0
H1885 H 0.31412 0.55225 0.68926 0.0
H1886 H 0.34339 0.50143 0.70694 0.0
C1887 C 0.32442 0.55003 0.75087 0.0
loop_
_geom_bond_atom_site_label_1
_geom_bond_atom_site_label_2
_geom_bond_distance
_geom_bond_site_symmetry_2
_ccdc_geom_bond_type
Co0 O3 1.970 . S
Co0 N17 1.989 . S
Co0 O25 1.967 . S
Co0 O32 1.920 . S
Co1 O4 1.966 . S
Co1 N10 2.022 . S
Co1 N18 1.993 . S
Co1 O26 1.941 . S
C2 O3 1.258 . S
C2 O4 1.263 . S
O3 Co0 1.970 . S
O3 C2 1.258 . S
O4 Co1 1.966 . S
O4 C2 1.263 . S
C5 O6 1.235 . S
C5 O32 1.289 . S
O6 C5 1.235 . S
C7 C9 1.400 . S
C7 N10 1.351 . S
C7 C12 1.501 1_554 S
C8 C9 1.387 . S
C8 N11 1.341 . S
C9 C7 1.400 . S
C9 C8 1.387 . S
N10 Co1 2.022 . S
N10 C7 1.351 . S
N10 N11 1.365 . S
N11 C8 1.341 . S
N11 N10 1.365 . S
N11 H31 0.862 . S
C12 C7 1.501 1_556 S
C12 H13 0.961 . S
C12 H14 0.961 . S
C12 H15 0.960 . S
H13 C12 0.961 . S
H14 C12 0.961 . S
H15 C12 0.960 . S
C16 N17 1.342 . S
C16 C20 1.401 . S
C16 C21 1.499 . S
N17 Co0 1.989 . S
N17 C16 1.342 . S
N17 N18 1.388 . S
N18 Co1 1.993 . S
N18 N17 1.388 . S
N18 C19 1.346 . S
C19 N18 1.346 . S
C19 C20 1.396 . S
C19 C29 1.510 . S
C20 C16 1.401 . S
C20 C19 1.396 . S
C21 C16 1.499 . S
C21 H22 0.959 . S
C21 H23 0.960 . S
C21 H24 0.961 . S
H22 C21 0.959 . S
H23 C21 0.960 . S
H24 C21 0.961 . S
O25 Co0 1.967 . S
O25 C33 1.258 . S
O26 Co1 1.941 . S
O26 C33 1.266 . S
H27 C29 0.959 . S
H28 C29 0.961 1_556 S
C29 C19 1.510 . S
C29 H27 0.959 . S
C29 H28 0.961 1_554 S
C29 H30 0.960 . S
H30 C29 0.960 . S
H31 N11 0.862 . S
O32 Co0 1.920 . S
O32 C5 1.289 . S
C33 O25 1.258 . S
C33 O26 1.266 . S
Co34 O37 1.970 . S
Co34 N51 1.989 . S
Co34 O59 1.967 . S
Co34 O66 1.920 . S
Co35 O38 1.966 . S
Co35 N44 2.022 1_655 S
Co35 N52 1.993 . S
Co35 O60 1.941 . S
C36 O37 1.258 . S
C36 O38 1.263 . S
O37 Co34 1.970 . S
O37 C36 1.258 . S
O38 Co35 1.966 . S
O38 C36 1.263 . S
C39 O40 1.235 . S
C39 O66 1.289 . S
O40 C39 1.235 . S
C41 C43 1.400 . S
C41 N44 1.351 . S
C41 C46 1.501 1_554 S
C42 C43 1.387 . S
C42 N45 1.341 . S
C43 C41 1.400 . S
C43 C42 1.387 . S
N44 Co35 2.022 1_455 S
N44 C41 1.351 . S
N44 N45 1.365 . S
N45 C42 1.341 . S
N45 N44 1.365 . S
N45 H65 0.862 . S
C46 C41 1.501 1_556 S
C46 H47 0.961 . S
C46 H48 0.961 . S
C46 H49 0.960 . S
H47 C46 0.961 . S
H48 C46 0.961 . S
H49 C46 0.960 . S
C50 N51 1.342 . S
C50 C54 1.401 . S
C50 C55 1.499 . S
N51 Co34 1.989 . S
N51 C50 1.342 . S
N51 N52 1.388 . S
N52 Co35 1.993 . S
N52 N51 1.388 . S
N52 C53 1.346 . S
C53 N52 1.346 . S
C53 C54 1.396 . S
C53 C63 1.510 . S
C54 C50 1.401 . S
C54 C53 1.396 . S
C55 C50 1.499 . S
C55 H56 0.959 . S
C55 H57 0.960 . S
C55 H58 0.961 . S
H56 C55 0.959 . S
H57 C55 0.960 . S
H58 C55 0.961 . S
O59 Co34 1.967 . S
O59 C67 1.258 . S
O60 Co35 1.941 . S
O60 C67 1.266 . S
H61 C63 0.959 . S
H62 C63 0.961 1_556 S
C63 C53 1.510 . S
C63 H61 0.959 . S
C63 H62 0.961 1_554 S
C63 H64 0.960 . S
H64 C63 0.960 . S
H65 N45 0.862 . S
O66 Co34 1.920 . S
O66 C39 1.289 . S
C67 O59 1.258 . S
C67 O60 1.266 . S
Co68 O71 1.970 . S
Co68 N85 1.989 . S
Co68 O93 1.967 . S
Co68 O100 1.920 . S
Co69 O72 1.966 . S
Co69 N78 2.022 . S
Co69 N86 1.993 . S
Co69 O94 1.941 . S
C70 O71 1.258 . S
C70 O72 1.263 . S
O71 Co68 1.970 . S
O71 C70 1.258 . S
O72 Co69 1.966 . S
O72 C70 1.263 . S
C73 O74 1.235 . S
C73 O100 1.289 . S
O74 C73 1.235 . S
C75 C77 1.400 . S
C75 N78 1.351 . S
C75 C80 1.501 . S
C76 C77 1.387 . S
C76 N79 1.341 . S
C77 C75 1.400 . S
C77 C76 1.387 . S
N78 Co69 2.022 . S
N78 C75 1.351 . S
N78 N79 1.365 . S
N79 C76 1.341 . S
N79 N78 1.365 . S
N79 H99 0.862 . S
C80 C75 1.501 . S
C80 H81 0.961 . S
C80 H82 0.961 . S
C80 H83 0.960 . S
H81 C80 0.961 . S
H82 C80 0.961 . S
H83 C80 0.960 . S
C84 N85 1.342 . S
C84 C88 1.401 . S
C84 C89 1.499 . S
N85 Co68 1.989 . S
N85 C84 1.342 . S
N85 N86 1.388 . S
N86 Co69 1.993 . S
N86 N85 1.388 . S
N86 C87 1.346 . S
C87 N86 1.346 . S
C87 C88 1.396 . S
C87 C97 1.510 . S
C88 C84 1.401 . S
C88 C87 1.396 . S
C89 C84 1.499 . S
C89 H90 0.959 . S
C89 H91 0.960 . S
C89 H92 0.961 . S
H90 C89 0.959 . S
H91 C89 0.960 . S
H92 C89 0.961 . S
O93 Co68 1.967 . S
O93 C101 1.258 . S
O94 Co69 1.941 . S
O94 C101 1.266 . S
H95 C97 0.959 . S
H96 C97 0.961 . S
C97 C87 1.510 . S
C97 H95 0.959 . S
C97 H96 0.961 . S
C97 H98 0.960 . S
H98 C97 0.960 . S
H99 N79 0.862 . S
O100 Co68 1.920 . S
O100 C73 1.289 . S
C101 O93 1.258 . S
C101 O94 1.266 . S
Co102 O105 1.970 . S
Co102 N119 1.989 . S
Co102 O127 1.967 . S
Co102 O134 1.920 . S
Co103 O106 1.966 . S
Co103 N112 2.022 1_655 S
Co103 N120 1.993 . S
Co103 O128 1.941 . S
C104 O105 1.258 . S
C104 O106 1.263 . S
O105 Co102 1.970 . S
O105 C104 1.258 . S
O106 Co103 1.966 . S
O106 C104 1.263 . S
C107 O108 1.235 . S
C107 O134 1.289 . S
O108 C107 1.235 . S
C109 C111 1.400 . S
C109 N112 1.351 . S
C109 C114 1.501 . S
C110 C111 1.387 . S
C110 N113 1.341 . S
C111 C109 1.400 . S
C111 C110 1.387 . S
N112 Co103 2.022 1_455 S
N112 C109 1.351 . S
N112 N113 1.365 . S
N113 C110 1.341 . S
N113 N112 1.365 . S
N113 H133 0.862 . S
C114 C109 1.501 . S
C114 H115 0.961 . S
C114 H116 0.961 . S
C114 H117 0.960 . S
H115 C114 0.961 . S
H116 C114 0.961 . S
H117 C114 0.960 . S
C118 N119 1.342 . S
C118 C122 1.401 . S
C118 C123 1.499 . S
N119 Co102 1.989 . S
N119 C118 1.342 . S
N119 N120 1.388 . S
N120 Co103 1.993 . S
N120 N119 1.388 . S
N120 C121 1.346 . S
C121 N120 1.346 . S
C121 C122 1.396 . S
C121 C131 1.510 . S
C122 C118 1.401 . S
C122 C121 1.396 . S
C123 C118 1.499 . S
C123 H124 0.959 . S
C123 H125 0.960 . S
C123 H126 0.961 . S
H124 C123 0.959 . S
H125 C123 0.960 . S
H126 C123 0.961 . S
O127 Co102 1.967 . S
O127 C135 1.258 . S
O128 Co103 1.941 . S
O128 C135 1.266 . S
H129 C131 0.959 . S
H130 C131 0.961 . S
C131 C121 1.510 . S
C131 H129 0.959 . S
C131 H130 0.961 . S
C131 H132 0.960 . S
H132 C131 0.960 . S
H133 N113 0.862 . S
O134 Co102 1.920 . S
O134 C107 1.289 . S
C135 O127 1.258 . S
C135 O128 1.266 . S
Co136 O139 1.970 . S
Co136 N153 1.989 . S
Co136 O161 1.967 . S
Co136 O168 1.920 . S
Co137 O140 1.966 . S
Co137 N146 2.022 . S
Co137 N154 1.993 . S
Co137 O162 1.941 . S
C138 O139 1.258 . S
C138 O140 1.263 . S
O139 Co136 1.970 . S
O139 C138 1.258 . S
O140 Co137 1.966 . S
O140 C138 1.263 . S
C141 O142 1.235 . S
C141 O168 1.289 . S
O142 C141 1.235 . S
C143 C145 1.400 . S
C143 N146 1.351 . S
C143 C148 1.501 1_556 S
C144 C145 1.387 . S
C144 N147 1.341 . S
C145 C143 1.400 . S
C145 C144 1.387 . S
N146 Co137 2.022 . S
N146 C143 1.351 . S
N146 N147 1.365 . S
N147 C144 1.341 . S
N147 N146 1.365 . S
N147 H167 0.862 . S
C148 C143 1.501 1_554 S
C148 H149 0.961 . S
C148 H150 0.961 . S
C148 H151 0.960 . S
H149 C148 0.961 . S
H150 C148 0.961 . S
H151 C148 0.960 . S
C152 N153 1.342 . S
C152 C156 1.401 . S
C152 C157 1.499 . S
N153 Co136 1.989 . S
N153 C152 1.342 . S
N153 N154 1.388 . S
N154 Co137 1.993 . S
N154 N153 1.388 . S
N154 C155 1.346 . S
C155 N154 1.346 . S
C155 C156 1.396 . S
C155 C165 1.510 . S
C156 C152 1.401 . S
C156 C155 1.396 . S
C157 C152 1.499 . S
C157 H158 0.959 . S
C157 H159 0.960 . S
C157 H160 0.961 . S
H158 C157 0.959 . S
H159 C157 0.960 . S
H160 C157 0.961 . S
O161 Co136 1.967 . S
O161 C169 1.258 . S
O162 Co137 1.941 . S
O162 C169 1.266 . S
H163 C165 0.959 . S
H164 C165 0.961 1_554 S
C165 C155 1.510 . S
C165 H163 0.959 . S
C165 H164 0.961 1_556 S
C165 H166 0.960 . S
H166 C165 0.960 . S
H167 N147 0.862 . S
O168 Co136 1.920 . S
O168 C141 1.289 . S
C169 O161 1.258 . S
C169 O162 1.266 . S
Co170 O173 1.970 . S
Co170 N187 1.989 . S
Co170 O195 1.967 . S
Co170 O202 1.920 . S
Co171 O174 1.966 . S
Co171 N180 2.022 1_455 S
Co171 N188 1.993 . S
Co171 O196 1.941 . S
C172 O173 1.258 . S
C172 O174 1.263 . S
O173 Co170 1.970 . S
O173 C172 1.258 . S
O174 Co171 1.966 . S
O174 C172 1.263 . S
C175 O176 1.235 . S
C175 O202 1.289 . S
O176 C175 1.235 . S
C177 C179 1.400 . S
C177 N180 1.351 . S
C177 C182 1.501 1_556 S
C178 C179 1.387 . S
C178 N181 1.341 . S
C179 C177 1.400 . S
C179 C178 1.387 . S
N180 Co171 2.022 1_655 S
N180 C177 1.351 . S
N180 N181 1.365 . S
N181 C178 1.341 . S
N181 N180 1.365 . S
N181 H201 0.862 . S
C182 C177 1.501 1_554 S
C182 H183 0.961 . S
C182 H184 0.961 . S
C182 H185 0.960 . S
H183 C182 0.961 . S
H184 C182 0.961 . S
H185 C182 0.960 . S
C186 N187 1.342 . S
C186 C190 1.401 . S
C186 C191 1.499 . S
N187 Co170 1.989 . S
N187 C186 1.342 . S
N187 N188 1.388 . S
N188 Co171 1.993 . S
N188 N187 1.388 . S
N188 C189 1.346 . S
C189 N188 1.346 . S
C189 C190 1.396 . S
C189 C199 1.510 . S
C190 C186 1.401 . S
C190 C189 1.396 . S
C191 C186 1.499 . S
C191 H192 0.959 . S
C191 H193 0.960 . S
C191 H194 0.961 . S
H192 C191 0.959 . S
H193 C191 0.960 . S
H194 C191 0.961 . S
O195 Co170 1.967 . S
O195 C203 1.258 . S
O196 Co171 1.941 . S
O196 C203 1.266 . S
H197 C199 0.959 . S
H198 C199 0.961 1_554 S
C199 C189 1.510 . S
C199 H197 0.959 . S
C199 H198 0.961 1_556 S
C199 H200 0.960 . S
H200 C199 0.960 . S
H201 N181 0.862 . S
O202 Co170 1.920 . S
O202 C175 1.289 . S
C203 O195 1.258 . S
C203 O196 1.266 . S
Co204 O207 1.970 . S
Co204 N221 1.989 . S
Co204 O229 1.967 . S
Co204 O236 1.920 . S
Co205 O208 1.966 . S
Co205 N214 2.022 . S
Co205 N222 1.993 . S
Co205 O230 1.941 . S
C206 O207 1.258 . S
C206 O208 1.263 . S
O207 Co204 1.970 . S
O207 C206 1.258 . S
O208 Co205 1.966 . S
O208 C206 1.263 . S
C209 O210 1.235 . S
C209 O236 1.289 . S
O210 C209 1.235 . S
C211 C213 1.400 . S
C211 N214 1.351 . S
C211 C216 1.501 . S
C212 C213 1.387 . S
C212 N215 1.341 . S
C213 C211 1.400 . S
C213 C212 1.387 . S
N214 Co205 2.022 . S
N214 C211 1.351 . S
N214 N215 1.365 . S
N215 C212 1.341 . S
N215 N214 1.365 . S
N215 H235 0.862 . S
C216 C211 1.501 . S
C216 H217 0.961 . S
C216 H218 0.961 . S
C216 H219 0.960 . S
H217 C216 0.961 . S
H218 C216 0.961 . S
H219 C216 0.960 . S
C220 N221 1.342 . S
C220 C224 1.401 . S
C220 C225 1.499 . S
N221 Co204 1.989 . S
N221 C220 1.342 . S
N221 N222 1.388 . S
N222 Co205 1.993 . S
N222 N221 1.388 . S
N222 C223 1.346 . S
C223 N222 1.346 . S
C223 C224 1.396 . S
C223 C233 1.510 . S
C224 C220 1.401 . S
C224 C223 1.396 . S
C225 C220 1.499 . S
C225 H226 0.959 . S
C225 H227 0.960 . S
C225 H228 0.961 . S
H226 C225 0.959 . S
H227 C225 0.960 . S
H228 C225 0.961 . S
O229 Co204 1.967 . S
O229 C237 1.258 . S
O230 Co205 1.941 . S
O230 C237 1.266 . S
H231 C233 0.959 . S
H232 C233 0.961 . S
C233 C223 1.510 . S
C233 H231 0.959 . S
C233 H232 0.961 . S
C233 H234 0.960 . S
H234 C233 0.960 . S
H235 N215 0.862 . S
O236 Co204 1.920 . S
O236 C209 1.289 . S
C237 O229 1.258 . S
C237 O230 1.266 . S
Co238 O241 1.970 . S
Co238 N255 1.989 . S
Co238 O263 1.967 . S
Co238 O270 1.920 . S
Co239 O242 1.966 . S
Co239 N248 2.022 1_455 S
Co239 N256 1.993 . S
Co239 O264 1.941 . S
C240 O241 1.258 . S
C240 O242 1.263 . S
O241 Co238 1.970 . S
O241 C240 1.258 . S
O242 Co239 1.966 . S
O242 C240 1.263 . S
C243 O244 1.235 . S
C243 O270 1.289 . S
O244 C243 1.235 . S
C245 C247 1.400 . S
C245 N248 1.351 . S
C245 C250 1.501 . S
C246 C247 1.387 . S
C246 N249 1.341 . S
C247 C245 1.400 . S
C247 C246 1.387 . S
N248 Co239 2.022 1_655 S
N248 C245 1.351 . S
N248 N249 1.365 . S
N249 C246 1.341 . S
N249 N248 1.365 . S
N249 H269 0.862 . S
C250 C245 1.501 . S
C250 H251 0.961 . S
C250 H252 0.961 . S
C250 H253 0.960 . S
H251 C250 0.961 . S
H252 C250 0.961 . S
H253 C250 0.960 . S
C254 N255 1.342 . S
C254 C258 1.401 . S
C254 C259 1.499 . S
N255 Co238 1.989 . S
N255 C254 1.342 . S
N255 N256 1.388 . S
N256 Co239 1.993 . S
N256 N255 1.388 . S
N256 C257 1.346 . S
C257 N256 1.346 . S
C257 C258 1.396 . S
C257 C267 1.510 . S
C258 C254 1.401 . S
C258 C257 1.396 . S
C259 C254 1.499 . S
C259 H260 0.959 . S
C259 H261 0.960 . S
C259 H262 0.961 . S
H260 C259 0.959 . S
H261 C259 0.960 . S
H262 C259 0.961 . S
O263 Co238 1.967 . S
O263 C271 1.258 . S
O264 Co239 1.941 . S
O264 C271 1.266 . S
H265 C267 0.959 . S
H266 C267 0.961 . S
C267 C257 1.510 . S
C267 H265 0.959 . S
C267 H266 0.961 . S
C267 H268 0.960 . S
H268 C267 0.960 . S
H269 N249 0.862 . S
O270 Co238 1.920 . S
O270 C243 1.289 . S
C271 O263 1.258 . S
C271 O264 1.266 . S
Co272 O275 1.970 . S
Co272 N289 1.989 . S
Co272 O297 1.967 . S
Co272 O304 1.920 . S
Co273 O276 1.966 . S
Co273 N282 2.022 . S
Co273 N290 1.993 . S
Co273 O298 1.941 . S
C274 O275 1.258 . S
C274 O276 1.263 . S
O275 Co272 1.970 . S
O275 C274 1.258 . S
O276 Co273 1.966 . S
O276 C274 1.263 . S
C277 O278 1.235 . S
C277 O304 1.289 . S
O278 C277 1.235 . S
C279 C281 1.400 . S
C279 N282 1.351 . S
C279 C284 1.501 . S
C280 C281 1.387 . S
C280 N283 1.341 . S
C281 C279 1.400 . S
C281 C280 1.387 . S
N282 Co273 2.022 . S
N282 C279 1.351 . S
N282 N283 1.365 . S
N283 C280 1.341 . S
N283 N282 1.365 . S
N283 H303 0.862 . S
C284 C279 1.501 . S
C284 H285 0.961 . S
C284 H286 0.961 . S
C284 H287 0.960 . S
H285 C284 0.961 . S
H286 C284 0.961 . S
H287 C284 0.960 . S
C288 N289 1.342 . S
C288 C292 1.401 . S
C288 C293 1.499 . S
N289 Co272 1.989 . S
N289 C288 1.342 . S
N289 N290 1.388 . S
N290 Co273 1.993 . S
N290 N289 1.388 . S
N290 C291 1.346 . S
C291 N290 1.346 . S
C291 C292 1.396 . S
C291 C301 1.510 . S
C292 C288 1.401 . S
C292 C291 1.396 . S
C293 C288 1.499 . S
C293 H294 0.959 . S
C293 H295 0.960 . S
C293 H296 0.961 . S
H294 C293 0.959 . S
H295 C293 0.960 . S
H296 C293 0.961 . S
O297 Co272 1.967 . S
O297 C305 1.258 . S
O298 Co273 1.941 . S
O298 C305 1.266 . S
H299 C301 0.959 . S
H300 C301 0.961 . S
C301 C291 1.510 . S
C301 H299 0.959 . S
C301 H300 0.961 . S
C301 H302 0.960 . S
H302 C301 0.960 . S
H303 N283 0.862 . S
O304 Co272 1.920 . S
O304 C277 1.289 . S
C305 O297 1.258 . S
C305 O298 1.266 . S
Co306 O309 1.970 . S
Co306 N323 1.989 . S
Co306 O331 1.967 . S
Co306 O338 1.920 . S
Co307 O310 1.966 . S
Co307 N316 2.022 1_655 S
Co307 N324 1.993 . S
Co307 O332 1.941 . S
C308 O309 1.258 . S
C308 O310 1.263 . S
O309 Co306 1.970 . S
O309 C308 1.258 . S
O310 Co307 1.966 . S
O310 C308 1.263 . S
C311 O312 1.235 . S
C311 O338 1.289 . S
O312 C311 1.235 . S
C313 C315 1.400 . S
C313 N316 1.351 . S
C313 C318 1.501 . S
C314 C315 1.387 . S
C314 N317 1.341 . S
C315 C313 1.400 . S
C315 C314 1.387 . S
N316 Co307 2.022 1_455 S
N316 C313 1.351 . S
N316 N317 1.365 . S
N317 C314 1.341 . S
N317 N316 1.365 . S
N317 H337 0.862 . S
C318 C313 1.501 . S
C318 H319 0.961 . S
C318 H320 0.961 . S
C318 H321 0.960 . S
H319 C318 0.961 . S
H320 C318 0.961 . S
H321 C318 0.960 . S
C322 N323 1.342 . S
C322 C326 1.401 . S
C322 C327 1.499 . S
N323 Co306 1.989 . S
N323 C322 1.342 . S
N323 N324 1.388 . S
N324 Co307 1.993 . S
N324 N323 1.388 . S
N324 C325 1.346 . S
C325 N324 1.346 . S
C325 C326 1.396 . S
C325 C335 1.510 . S
C326 C322 1.401 . S
C326 C325 1.396 . S
C327 C322 1.499 . S
C327 H328 0.959 . S
C327 H329 0.960 . S
C327 H330 0.961 . S
H328 C327 0.959 . S
H329 C327 0.960 . S
H330 C327 0.961 . S
O331 Co306 1.967 . S
O331 C339 1.258 . S
O332 Co307 1.941 . S
O332 C339 1.266 . S
H333 C335 0.959 . S
H334 C335 0.961 . S
C335 C325 1.510 . S
C335 H333 0.959 . S
C335 H334 0.961 . S
C335 H336 0.960 . S
H336 C335 0.960 . S
H337 N317 0.862 . S
O338 Co306 1.920 . S
O338 C311 1.289 . S
C339 O331 1.258 . S
C339 O332 1.266 . S
Co340 O343 1.970 . S
Co340 N357 1.989 . S
Co340 O365 1.967 . S
Co340 O372 1.920 . S
Co341 O344 1.966 . S
Co341 N350 2.022 . S
Co341 N358 1.993 . S
Co341 O366 1.941 . S
C342 O343 1.258 . S
C342 O344 1.263 . S
O343 Co340 1.970 . S
O343 C342 1.258 . S
O344 Co341 1.966 . S
O344 C342 1.263 . S
C345 O346 1.235 . S
C345 O372 1.289 . S
O346 C345 1.235 . S
C347 C349 1.400 . S
C347 N350 1.351 . S
C347 C352 1.501 . S
C348 C349 1.387 . S
C348 N351 1.341 . S
C349 C347 1.400 . S
C349 C348 1.387 . S
N350 Co341 2.022 . S
N350 C347 1.351 . S
N350 N351 1.365 . S
N351 C348 1.341 . S
N351 N350 1.365 . S
N351 H371 0.862 . S
C352 C347 1.501 . S
C352 H353 0.961 . S
C352 H354 0.961 . S
C352 H355 0.960 . S
H353 C352 0.961 . S
H354 C352 0.961 . S
H355 C352 0.960 . S
C356 N357 1.342 . S
C356 C360 1.401 . S
C356 C361 1.499 . S
N357 Co340 1.989 . S
N357 C356 1.342 . S
N357 N358 1.388 . S
N358 Co341 1.993 . S
N358 N357 1.388 . S
N358 C359 1.346 . S
C359 N358 1.346 . S
C359 C360 1.396 . S
C359 C369 1.510 . S
C360 C356 1.401 . S
C360 C359 1.396 . S
C361 C356 1.499 . S
C361 H362 0.959 . S
C361 H363 0.960 . S
C361 H364 0.961 . S
H362 C361 0.959 . S
H363 C361 0.960 . S
H364 C361 0.961 . S
O365 Co340 1.967 . S
O365 C373 1.258 . S
O366 Co341 1.941 . S
O366 C373 1.266 . S
H367 C369 0.959 . S
H368 C369 0.961 . S
C369 C359 1.510 . S
C369 H367 0.959 . S
C369 H368 0.961 . S
C369 H370 0.960 . S
H370 C369 0.960 . S
H371 N351 0.862 . S
O372 Co340 1.920 . S
O372 C345 1.289 . S
C373 O365 1.258 . S
C373 O366 1.266 . S
Co374 O377 1.970 . S
Co374 N391 1.989 . S
Co374 O399 1.967 . S
Co374 O406 1.920 . S
Co375 O378 1.966 . S
Co375 N384 2.022 1_655 S
Co375 N392 1.993 . S
Co375 O400 1.941 . S
C376 O377 1.258 . S
C376 O378 1.263 . S
O377 Co374 1.970 . S
O377 C376 1.258 . S
O378 Co375 1.966 . S
O378 C376 1.263 . S
C379 O380 1.235 . S
C379 O406 1.289 . S
O380 C379 1.235 . S
C381 C383 1.400 . S
C381 N384 1.351 . S
C381 C386 1.501 . S
C382 C383 1.387 . S
C382 N385 1.341 . S
C383 C381 1.400 . S
C383 C382 1.387 . S
N384 Co375 2.022 1_455 S
N384 C381 1.351 . S
N384 N385 1.365 . S
N385 C382 1.341 . S
N385 N384 1.365 . S
N385 H405 0.862 . S
C386 C381 1.501 . S
C386 H387 0.961 . S
C386 H388 0.961 . S
C386 H389 0.960 . S
H387 C386 0.961 . S
H388 C386 0.961 . S
H389 C386 0.960 . S
C390 N391 1.342 . S
C390 C394 1.401 . S
C390 C395 1.499 . S
N391 Co374 1.989 . S
N391 C390 1.342 . S
N391 N392 1.388 . S
N392 Co375 1.993 . S
N392 N391 1.388 . S
N392 C393 1.346 . S
C393 N392 1.346 . S
C393 C394 1.396 . S
C393 C403 1.510 . S
C394 C390 1.401 . S
C394 C393 1.396 . S
C395 C390 1.499 . S
C395 H396 0.959 . S
C395 H397 0.960 . S
C395 H398 0.961 . S
H396 C395 0.959 . S
H397 C395 0.960 . S
H398 C395 0.961 . S
O399 Co374 1.967 . S
O399 C407 1.258 . S
O400 Co375 1.941 . S
O400 C407 1.266 . S
H401 C403 0.959 . S
H402 C403 0.961 . S
C403 C393 1.510 . S
C403 H401 0.959 . S
C403 H402 0.961 . S
C403 H404 0.960 . S
H404 C403 0.960 . S
H405 N385 0.862 . S
O406 Co374 1.920 . S
O406 C379 1.289 . S
C407 O399 1.258 . S
C407 O400 1.266 . S
Co408 O411 1.970 . S
Co408 N425 1.989 . S
Co408 O433 1.967 . S
Co408 O440 1.920 . S
Co409 O412 1.966 . S
Co409 N418 2.022 . S
Co409 N426 1.993 . S
Co409 O434 1.941 . S
C410 O411 1.258 . S
C410 O412 1.263 . S
O411 Co408 1.970 . S
O411 C410 1.258 . S
O412 Co409 1.966 . S
O412 C410 1.263 . S
C413 O414 1.235 . S
C413 O440 1.289 . S
O414 C413 1.235 . S
C415 C417 1.400 . S
C415 N418 1.351 . S
C415 C420 1.501 . S
C416 C417 1.387 . S
C416 N419 1.341 . S
C417 C415 1.400 . S
C417 C416 1.387 . S
N418 Co409 2.022 . S
N418 C415 1.351 . S
N418 N419 1.365 . S
N419 C416 1.341 . S
N419 N418 1.365 . S
N419 H439 0.862 . S
C420 C415 1.501 . S
C420 H421 0.961 . S
C420 H422 0.961 . S
C420 H423 0.960 . S
H421 C420 0.961 . S
H422 C420 0.961 . S
H423 C420 0.960 . S
C424 N425 1.342 . S
C424 C428 1.401 . S
C424 C429 1.499 . S
N425 Co408 1.989 . S
N425 C424 1.342 . S
N425 N426 1.388 . S
N426 Co409 1.993 . S
N426 N425 1.388 . S
N426 C427 1.346 . S
C427 N426 1.346 . S
C427 C428 1.396 . S
C427 C437 1.510 . S
C428 C424 1.401 . S
C428 C427 1.396 . S
C429 C424 1.499 . S
C429 H430 0.959 . S
C429 H431 0.960 . S
C429 H432 0.961 . S
H430 C429 0.959 . S
H431 C429 0.960 . S
H432 C429 0.961 . S
O433 Co408 1.967 . S
O433 C441 1.258 . S
O434 Co409 1.941 . S
O434 C441 1.266 . S
H435 C437 0.959 . S
H436 C437 0.961 . S
C437 C427 1.510 . S
C437 H435 0.959 . S
C437 H436 0.961 . S
C437 H438 0.960 . S
H438 C437 0.960 . S
H439 N419 0.862 . S
O440 Co408 1.920 . S
O440 C413 1.289 . S
C441 O433 1.258 . S
C441 O434 1.266 . S
Co442 O445 1.970 . S
Co442 N459 1.989 . S
Co442 O467 1.967 . S
Co442 O474 1.920 . S
Co443 O446 1.966 . S
Co443 N452 2.022 1_455 S
Co443 N460 1.993 . S
Co443 O468 1.941 . S
C444 O445 1.258 . S
C444 O446 1.263 . S
O445 Co442 1.970 . S
O445 C444 1.258 . S
O446 Co443 1.966 . S
O446 C444 1.263 . S
C447 O448 1.235 . S
C447 O474 1.289 . S
O448 C447 1.235 . S
C449 C451 1.400 . S
C449 N452 1.351 . S
C449 C454 1.501 . S
C450 C451 1.387 . S
C450 N453 1.341 . S
C451 C449 1.400 . S
C451 C450 1.387 . S
N452 Co443 2.022 1_655 S
N452 C449 1.351 . S
N452 N453 1.365 . S
N453 C450 1.341 . S
N453 N452 1.365 . S
N453 H473 0.862 . S
C454 C449 1.501 . S
C454 H455 0.961 . S
C454 H456 0.961 . S
C454 H457 0.960 . S
H455 C454 0.961 . S
H456 C454 0.961 . S
H457 C454 0.960 . S
C458 N459 1.342 . S
C458 C462 1.401 . S
C458 C463 1.499 . S
N459 Co442 1.989 . S
N459 C458 1.342 . S
N459 N460 1.388 . S
N460 Co443 1.993 . S
N460 N459 1.388 . S
N460 C461 1.346 . S
C461 N460 1.346 . S
C461 C462 1.396 . S
C461 C471 1.510 . S
C462 C458 1.401 . S
C462 C461 1.396 . S
C463 C458 1.499 . S
C463 H464 0.959 . S
C463 H465 0.960 . S
C463 H466 0.961 . S
H464 C463 0.959 . S
H465 C463 0.960 . S
H466 C463 0.961 . S
O467 Co442 1.967 . S
O467 C475 1.258 . S
O468 Co443 1.941 . S
O468 C475 1.266 . S
H469 C471 0.959 . S
H470 C471 0.961 . S
C471 C461 1.510 . S
C471 H469 0.959 . S
C471 H470 0.961 . S
C471 H472 0.960 . S
H472 C471 0.960 . S
H473 N453 0.862 . S
O474 Co442 1.920 . S
O474 C447 1.289 . S
C475 O467 1.258 . S
C475 O468 1.266 . S
Co476 O479 1.970 . S
Co476 N493 1.989 . S
Co476 O501 1.967 . S
Co476 O508 1.920 . S
Co477 O480 1.966 . S
Co477 N486 2.022 . S
Co477 N494 1.993 . S
Co477 O502 1.941 . S
C478 O479 1.258 . S
C478 O480 1.263 . S
O479 Co476 1.970 . S
O479 C478 1.258 . S
O480 Co477 1.966 . S
O480 C478 1.263 . S
C481 O482 1.235 . S
C481 O508 1.289 . S
O482 C481 1.235 . S
C483 C485 1.400 . S
C483 N486 1.351 . S
C483 C488 1.501 . S
C484 C485 1.387 . S
C484 N487 1.341 . S
C485 C483 1.400 . S
C485 C484 1.387 . S
N486 Co477 2.022 . S
N486 C483 1.351 . S
N486 N487 1.365 . S
N487 C484 1.341 . S
N487 N486 1.365 . S
N487 H507 0.862 . S
C488 C483 1.501 . S
C488 H489 0.961 . S
C488 H490 0.961 . S
C488 H491 0.960 . S
H489 C488 0.961 . S
H490 C488 0.961 . S
H491 C488 0.960 . S
C492 N493 1.342 . S
C492 C496 1.401 . S
C492 C497 1.499 . S
N493 Co476 1.989 . S
N493 C492 1.342 . S
N493 N494 1.388 . S
N494 Co477 1.993 . S
N494 N493 1.388 . S
N494 C495 1.346 . S
C495 N494 1.346 . S
C495 C496 1.396 . S
C495 C505 1.510 . S
C496 C492 1.401 . S
C496 C495 1.396 . S
C497 C492 1.499 . S
C497 H498 0.959 . S
C497 H499 0.960 . S
C497 H500 0.961 . S
H498 C497 0.959 . S
H499 C497 0.960 . S
H500 C497 0.961 . S
O501 Co476 1.967 . S
O501 C509 1.258 . S
O502 Co477 1.941 . S
O502 C509 1.266 . S
H503 C505 0.959 . S
H504 C505 0.961 . S
C505 C495 1.510 . S
C505 H503 0.959 . S
C505 H504 0.961 . S
C505 H506 0.960 . S
H506 C505 0.960 . S
H507 N487 0.862 . S
O508 Co476 1.920 . S
O508 C481 1.289 . S
C509 O501 1.258 . S
C509 O502 1.266 . S
Co510 O513 1.970 . S
Co510 N527 1.989 . S
Co510 O535 1.967 . S
Co510 O542 1.920 . S
Co511 O514 1.966 . S
Co511 N520 2.022 1_455 S
Co511 N528 1.993 . S
Co511 O536 1.941 . S
C512 O513 1.258 . S
C512 O514 1.263 . S
O513 Co510 1.970 . S
O513 C512 1.258 . S
O514 Co511 1.966 . S
O514 C512 1.263 . S
C515 O516 1.235 . S
C515 O542 1.289 . S
O516 C515 1.235 . S
C517 C519 1.400 . S
C517 N520 1.351 . S
C517 C522 1.501 . S
C518 C519 1.387 . S
C518 N521 1.341 . S
C519 C517 1.400 . S
C519 C518 1.387 . S
N520 Co511 2.022 1_655 S
N520 C517 1.351 . S
N520 N521 1.365 . S
N521 C518 1.341 . S
N521 N520 1.365 . S
N521 H541 0.862 . S
C522 C517 1.501 . S
C522 H523 0.961 . S
C522 H524 0.961 . S
C522 H525 0.960 . S
H523 C522 0.961 . S
H524 C522 0.961 . S
H525 C522 0.960 . S
C526 N527 1.342 . S
C526 C530 1.401 . S
C526 C531 1.499 . S
N527 Co510 1.989 . S
N527 C526 1.342 . S
N527 N528 1.388 . S
N528 Co511 1.993 . S
N528 N527 1.388 . S
N528 C529 1.346 . S
C529 N528 1.346 . S
C529 C530 1.396 . S
C529 C539 1.510 . S
C530 C526 1.401 . S
C530 C529 1.396 . S
C531 C526 1.499 . S
C531 H532 0.959 . S
C531 H533 0.960 . S
C531 H534 0.961 . S
H532 C531 0.959 . S
H533 C531 0.960 . S
H534 C531 0.961 . S
O535 Co510 1.967 . S
O535 C543 1.258 . S
O536 Co511 1.941 . S
O536 C543 1.266 . S
H537 C539 0.959 . S
H538 C539 0.961 . S
C539 C529 1.510 . S
C539 H537 0.959 . S
C539 H538 0.961 . S
C539 H540 0.960 . S
H540 C539 0.960 . S
H541 N521 0.862 . S
O542 Co510 1.920 . S
O542 C515 1.289 . S
C543 O535 1.258 . S
C543 O536 1.266 . S
Co544 O547 1.970 . S
Co544 N561 1.989 . S
Co544 O569 1.967 . S
Co544 O576 1.920 . S
Co545 O548 1.966 . S
Co545 N554 2.022 . S
Co545 N562 1.993 . S
Co545 O570 1.941 . S
C546 O547 1.258 . S
C546 O548 1.263 . S
O547 Co544 1.970 . S
O547 C546 1.258 . S
O548 Co545 1.966 . S
O548 C546 1.263 . S
C549 O550 1.235 . S
C549 O576 1.289 1_455 S
O550 C549 1.235 . S
C551 C553 1.400 . S
C551 N554 1.351 . S
C551 C556 1.501 . S
C552 C553 1.387 . S
C552 N555 1.341 . S
C553 C551 1.400 . S
C553 C552 1.387 . S
N554 Co545 2.022 . S
N554 C551 1.351 . S
N554 N555 1.365 . S
N555 C552 1.341 . S
N555 N554 1.365 . S
N555 H575 0.862 . S
C556 C551 1.501 . S
C556 H557 0.961 . S
C556 H558 0.961 . S
C556 H559 0.960 . S
H557 C556 0.961 . S
H558 C556 0.961 . S
H559 C556 0.960 . S
C560 N561 1.342 . S
C560 C564 1.401 . S
C560 C565 1.499 1_655 S
N561 Co544 1.989 . S
N561 C560 1.342 . S
N561 N562 1.388 . S
N562 Co545 1.993 . S
N562 N561 1.388 . S
N562 C563 1.346 . S
C563 N562 1.346 . S
C563 C564 1.396 . S
C563 C573 1.510 . S
C564 C560 1.401 . S
C564 C563 1.396 . S
C565 C560 1.499 1_455 S
C565 H566 0.959 . S
C565 H567 0.960 . S
C565 H568 0.961 . S
H566 C565 0.959 . S
H567 C565 0.960 . S
H568 C565 0.961 . S
O569 Co544 1.967 . S
O569 C577 1.258 . S
O570 Co545 1.941 . S
O570 C577 1.266 . S
H571 C573 0.959 . S
H572 C573 0.961 . S
C573 C563 1.510 . S
C573 H571 0.959 . S
C573 H572 0.961 . S
C573 H574 0.960 . S
H574 C573 0.960 . S
H575 N555 0.862 . S
O576 Co544 1.920 . S
O576 C549 1.289 1_655 S
C577 O569 1.258 . S
C577 O570 1.266 . S
Co578 O581 1.970 . S
Co578 N595 1.989 . S
Co578 O603 1.967 . S
Co578 O610 1.920 . S
Co579 O582 1.966 . S
Co579 N588 2.022 . S
Co579 N596 1.993 . S
Co579 O604 1.941 . S
C580 O581 1.258 . S
C580 O582 1.263 . S
O581 Co578 1.970 . S
O581 C580 1.258 . S
O582 Co579 1.966 . S
O582 C580 1.263 . S
C583 O584 1.235 . S
C583 O610 1.289 . S
O584 C583 1.235 . S
C585 C587 1.400 . S
C585 N588 1.351 . S
C585 C590 1.501 . S
C586 C587 1.387 . S
C586 N589 1.341 . S
C587 C585 1.400 . S
C587 C586 1.387 . S
N588 Co579 2.022 . S
N588 C585 1.351 . S
N588 N589 1.365 . S
N589 C586 1.341 . S
N589 N588 1.365 . S
N589 H609 0.862 . S
C590 C585 1.501 . S
C590 H591 0.961 . S
C590 H592 0.961 . S
C590 H593 0.960 . S
H591 C590 0.961 . S
H592 C590 0.961 . S
H593 C590 0.960 . S
C594 N595 1.342 . S
C594 C598 1.401 . S
C594 C599 1.499 . S
N595 Co578 1.989 . S
N595 C594 1.342 . S
N595 N596 1.388 . S
N596 Co579 1.993 . S
N596 N595 1.388 . S
N596 C597 1.346 . S
C597 N596 1.346 . S
C597 C598 1.396 . S
C597 C607 1.510 . S
C598 C594 1.401 . S
C598 C597 1.396 . S
C599 C594 1.499 . S
C599 H600 0.959 . S
C599 H601 0.960 . S
C599 H602 0.961 . S
H600 C599 0.959 . S
H601 C599 0.960 . S
H602 C599 0.961 . S
O603 Co578 1.967 . S
O603 C611 1.258 . S
O604 Co579 1.941 . S
O604 C611 1.266 . S
H605 C607 0.959 . S
H606 C607 0.961 . S
C607 C597 1.510 . S
C607 H605 0.959 . S
C607 H606 0.961 . S
C607 H608 0.960 . S
H608 C607 0.960 . S
H609 N589 0.862 . S
O610 Co578 1.920 . S
O610 C583 1.289 . S
C611 O603 1.258 . S
C611 O604 1.266 . S
Co612 O615 1.970 . S
Co612 N629 1.989 . S
Co612 O637 1.967 . S
Co612 O644 1.920 . S
Co613 O616 1.966 . S
Co613 N622 2.022 . S
Co613 N630 1.993 . S
Co613 O638 1.941 . S
C614 O615 1.258 . S
C614 O616 1.263 . S
O615 Co612 1.970 . S
O615 C614 1.258 . S
O616 Co613 1.966 . S
O616 C614 1.263 . S
C617 O618 1.235 . S
C617 O644 1.289 1_455 S
O618 C617 1.235 . S
C619 C621 1.400 . S
C619 N622 1.351 . S
C619 C624 1.501 . S
C620 C621 1.387 . S
C620 N623 1.341 . S
C621 C619 1.400 . S
C621 C620 1.387 . S
N622 Co613 2.022 . S
N622 C619 1.351 . S
N622 N623 1.365 . S
N623 C620 1.341 . S
N623 N622 1.365 . S
N623 H643 0.862 . S
C624 C619 1.501 . S
C624 H625 0.961 . S
C624 H626 0.961 . S
C624 H627 0.960 . S
H625 C624 0.961 . S
H626 C624 0.961 . S
H627 C624 0.960 . S
C628 N629 1.342 . S
C628 C632 1.401 . S
C628 C633 1.499 1_655 S
N629 Co612 1.989 . S
N629 C628 1.342 . S
N629 N630 1.388 . S
N630 Co613 1.993 . S
N630 N629 1.388 . S
N630 C631 1.346 . S
C631 N630 1.346 . S
C631 C632 1.396 . S
C631 C641 1.510 . S
C632 C628 1.401 . S
C632 C631 1.396 . S
C633 C628 1.499 1_455 S
C633 H634 0.959 . S
C633 H635 0.960 . S
C633 H636 0.961 . S
H634 C633 0.959 . S
H635 C633 0.960 . S
H636 C633 0.961 . S
O637 Co612 1.967 . S
O637 C645 1.258 . S
O638 Co613 1.941 . S
O638 C645 1.266 . S
H639 C641 0.959 . S
H640 C641 0.961 . S
C641 C631 1.510 . S
C641 H639 0.959 . S
C641 H640 0.961 . S
C641 H642 0.960 . S
H642 C641 0.960 . S
H643 N623 0.862 . S
O644 Co612 1.920 . S
O644 C617 1.289 1_655 S
C645 O637 1.258 . S
C645 O638 1.266 . S
Co646 O649 1.970 . S
Co646 N663 1.989 . S
Co646 O671 1.967 . S
Co646 O678 1.920 . S
Co647 O650 1.966 . S
Co647 N656 2.022 . S
Co647 N664 1.993 . S
Co647 O672 1.941 . S
C648 O649 1.258 . S
C648 O650 1.263 . S
O649 Co646 1.970 . S
O649 C648 1.258 . S
O650 Co647 1.966 . S
O650 C648 1.263 . S
C651 O652 1.235 . S
C651 O678 1.289 . S
O652 C651 1.235 . S
C653 C655 1.400 . S
C653 N656 1.351 . S
C653 C658 1.501 . S
C654 C655 1.387 . S
C654 N657 1.341 . S
C655 C653 1.400 . S
C655 C654 1.387 . S
N656 Co647 2.022 . S
N656 C653 1.351 . S
N656 N657 1.365 . S
N657 C654 1.341 . S
N657 N656 1.365 . S
N657 H677 0.862 . S
C658 C653 1.501 . S
C658 H659 0.961 . S
C658 H660 0.961 . S
C658 H661 0.960 . S
H659 C658 0.961 . S
H660 C658 0.961 . S
H661 C658 0.960 . S
C662 N663 1.342 . S
C662 C666 1.401 . S
C662 C667 1.499 . S
N663 Co646 1.989 . S
N663 C662 1.342 . S
N663 N664 1.388 . S
N664 Co647 1.993 . S
N664 N663 1.388 . S
N664 C665 1.346 . S
C665 N664 1.346 . S
C665 C666 1.396 . S
C665 C675 1.510 . S
C666 C662 1.401 . S
C666 C665 1.396 . S
C667 C662 1.499 . S
C667 H668 0.959 . S
C667 H669 0.960 . S
C667 H670 0.961 . S
H668 C667 0.959 . S
H669 C667 0.960 . S
H670 C667 0.961 . S
O671 Co646 1.967 . S
O671 C679 1.258 . S
O672 Co647 1.941 . S
O672 C679 1.266 . S
H673 C675 0.959 . S
H674 C675 0.961 . S
C675 C665 1.510 . S
C675 H673 0.959 . S
C675 H674 0.961 . S
C675 H676 0.960 . S
H676 C675 0.960 . S
H677 N657 0.862 . S
O678 Co646 1.920 . S
O678 C651 1.289 . S
C679 O671 1.258 . S
C679 O672 1.266 . S
Co680 O683 1.970 . S
Co680 N697 1.989 . S
Co680 O705 1.967 . S
Co680 O712 1.920 . S
Co681 O684 1.966 . S
Co681 N690 2.022 . S
Co681 N698 1.993 . S
Co681 O706 1.941 . S
C682 O683 1.258 . S
C682 O684 1.263 . S
O683 Co680 1.970 . S
O683 C682 1.258 . S
O684 Co681 1.966 . S
O684 C682 1.263 . S
C685 O686 1.235 . S
C685 O712 1.289 1_655 S
O686 C685 1.235 . S
C687 C689 1.400 . S
C687 N690 1.351 . S
C687 C692 1.501 . S
C688 C689 1.387 . S
C688 N691 1.341 . S
C689 C687 1.400 . S
C689 C688 1.387 . S
N690 Co681 2.022 . S
N690 C687 1.351 . S
N690 N691 1.365 . S
N691 C688 1.341 . S
N691 N690 1.365 . S
N691 H711 0.862 . S
C692 C687 1.501 . S
C692 H693 0.961 . S
C692 H694 0.961 . S
C692 H695 0.960 . S
H693 C692 0.961 . S
H694 C692 0.961 . S
H695 C692 0.960 . S
C696 N697 1.342 . S
C696 C700 1.401 . S
C696 C701 1.499 1_455 S
N697 Co680 1.989 . S
N697 C696 1.342 . S
N697 N698 1.388 . S
N698 Co681 1.993 . S
N698 N697 1.388 . S
N698 C699 1.346 . S
C699 N698 1.346 . S
C699 C700 1.396 . S
C699 C709 1.510 . S
C700 C696 1.401 . S
C700 C699 1.396 . S
C701 C696 1.499 1_655 S
C701 H702 0.959 . S
C701 H703 0.960 . S
C701 H704 0.961 . S
H702 C701 0.959 . S
H703 C701 0.960 . S
H704 C701 0.961 . S
O705 Co680 1.967 . S
O705 C713 1.258 . S
O706 Co681 1.941 . S
O706 C713 1.266 . S
H707 C709 0.959 . S
H708 C709 0.961 . S
C709 C699 1.510 . S
C709 H707 0.959 . S
C709 H708 0.961 . S
C709 H710 0.960 . S
H710 C709 0.960 . S
H711 N691 0.862 . S
O712 Co680 1.920 . S
O712 C685 1.289 1_455 S
C713 O705 1.258 . S
C713 O706 1.266 . S
Co714 O717 1.970 . S
Co714 N731 1.989 . S
Co714 O739 1.967 . S
Co714 O746 1.920 . S
Co715 O718 1.966 . S
Co715 N724 2.022 . S
Co715 N732 1.993 . S
Co715 O740 1.941 . S
C716 O717 1.258 . S
C716 O718 1.263 . S
O717 Co714 1.970 . S
O717 C716 1.258 . S
O718 Co715 1.966 . S
O718 C716 1.263 . S
C719 O720 1.235 . S
C719 O746 1.289 . S
O720 C719 1.235 . S
C721 C723 1.400 . S
C721 N724 1.351 . S
C721 C726 1.501 . S
C722 C723 1.387 . S
C722 N725 1.341 . S
C723 C721 1.400 . S
C723 C722 1.387 . S
N724 Co715 2.022 . S
N724 C721 1.351 . S
N724 N725 1.365 . S
N725 C722 1.341 . S
N725 N724 1.365 . S
N725 H745 0.862 . S
C726 C721 1.501 . S
C726 H727 0.961 . S
C726 H728 0.961 . S
C726 H729 0.960 . S
H727 C726 0.961 . S
H728 C726 0.961 . S
H729 C726 0.960 . S
C730 N731 1.342 . S
C730 C734 1.401 . S
C730 C735 1.499 . S
N731 Co714 1.989 . S
N731 C730 1.342 . S
N731 N732 1.388 . S
N732 Co715 1.993 . S
N732 N731 1.388 . S
N732 C733 1.346 . S
C733 N732 1.346 . S
C733 C734 1.396 . S
C733 C743 1.510 . S
C734 C730 1.401 . S
C734 C733 1.396 . S
C735 C730 1.499 . S
C735 H736 0.959 . S
C735 H737 0.960 . S
C735 H738 0.961 . S
H736 C735 0.959 . S
H737 C735 0.960 . S
H738 C735 0.961 . S
O739 Co714 1.967 . S
O739 C747 1.258 . S
O740 Co715 1.941 . S
O740 C747 1.266 . S
H741 C743 0.959 . S
H742 C743 0.961 . S
C743 C733 1.510 . S
C743 H741 0.959 . S
C743 H742 0.961 . S
C743 H744 0.960 . S
H744 C743 0.960 . S
H745 N725 0.862 . S
O746 Co714 1.920 . S
O746 C719 1.289 . S
C747 O739 1.258 . S
C747 O740 1.266 . S
Co748 O751 1.970 . S
Co748 N765 1.989 . S
Co748 O773 1.967 . S
Co748 O780 1.920 . S
Co749 O752 1.966 . S
Co749 N758 2.022 . S
Co749 N766 1.993 . S
Co749 O774 1.941 . S
C750 O751 1.258 . S
C750 O752 1.263 . S
O751 Co748 1.970 . S
O751 C750 1.258 . S
O752 Co749 1.966 . S
O752 C750 1.263 . S
C753 O754 1.235 . S
C753 O780 1.289 1_655 S
O754 C753 1.235 . S
C755 C757 1.400 . S
C755 N758 1.351 . S
C755 C760 1.501 . S
C756 C757 1.387 . S
C756 N759 1.341 . S
C757 C755 1.400 . S
C757 C756 1.387 . S
N758 Co749 2.022 . S
N758 C755 1.351 . S
N758 N759 1.365 . S
N759 C756 1.341 . S
N759 N758 1.365 . S
N759 H779 0.862 . S
C760 C755 1.501 . S
C760 H761 0.961 . S
C760 H762 0.961 . S
C760 H763 0.960 . S
H761 C760 0.961 . S
H762 C760 0.961 . S
H763 C760 0.960 . S
C764 N765 1.342 . S
C764 C768 1.401 . S
C764 C769 1.499 1_455 S
N765 Co748 1.989 . S
N765 C764 1.342 . S
N765 N766 1.388 . S
N766 Co749 1.993 . S
N766 N765 1.388 . S
N766 C767 1.346 . S
C767 N766 1.346 . S
C767 C768 1.396 . S
C767 C777 1.510 . S
C768 C764 1.401 . S
C768 C767 1.396 . S
C769 C764 1.499 1_655 S
C769 H770 0.959 . S
C769 H771 0.960 . S
C769 H772 0.961 . S
H770 C769 0.959 . S
H771 C769 0.960 . S
H772 C769 0.961 . S
O773 Co748 1.967 . S
O773 C781 1.258 . S
O774 Co749 1.941 . S
O774 C781 1.266 . S
H775 C777 0.959 . S
H776 C777 0.961 . S
C777 C767 1.510 . S
C777 H775 0.959 . S
C777 H776 0.961 . S
C777 H778 0.960 . S
H778 C777 0.960 . S
H779 N759 0.862 . S
O780 Co748 1.920 . S
O780 C753 1.289 1_455 S
C781 O773 1.258 . S
C781 O774 1.266 . S
Co782 O785 1.970 . S
Co782 N799 1.989 . S
Co782 O807 1.967 . S
Co782 O814 1.920 . S
Co783 O786 1.966 . S
Co783 N792 2.022 . S
Co783 N800 1.993 . S
Co783 O808 1.941 . S
C784 O785 1.258 . S
C784 O786 1.263 . S
O785 Co782 1.970 . S
O785 C784 1.258 . S
O786 Co783 1.966 . S
O786 C784 1.263 . S
C787 O788 1.235 . S
C787 O814 1.289 . S
O788 C787 1.235 . S
C789 C791 1.400 . S
C789 N792 1.351 . S
C789 C794 1.501 . S
C790 C791 1.387 . S
C790 N793 1.341 . S
C791 C789 1.400 . S
C791 C790 1.387 . S
N792 Co783 2.022 . S
N792 C789 1.351 . S
N792 N793 1.365 . S
N793 C790 1.341 . S
N793 N792 1.365 . S
N793 H813 0.862 . S
C794 C789 1.501 . S
C794 H795 0.961 . S
C794 H796 0.961 . S
C794 H797 0.960 . S
H795 C794 0.961 . S
H796 C794 0.961 . S
H797 C794 0.960 . S
C798 N799 1.342 . S
C798 C802 1.401 . S
C798 C803 1.499 . S
N799 Co782 1.989 . S
N799 C798 1.342 . S
N799 N800 1.388 . S
N800 Co783 1.993 . S
N800 N799 1.388 . S
N800 C801 1.346 . S
C801 N800 1.346 . S
C801 C802 1.396 . S
C801 C811 1.510 . S
C802 C798 1.401 . S
C802 C801 1.396 . S
C803 C798 1.499 . S
C803 H804 0.959 . S
C803 H805 0.960 . S
C803 H806 0.961 . S
H804 C803 0.959 . S
H805 C803 0.960 . S
H806 C803 0.961 . S
O807 Co782 1.967 . S
O807 C815 1.258 . S
O808 Co783 1.941 . S
O808 C815 1.266 . S
H809 C811 0.959 . S
H810 C811 0.961 . S
C811 C801 1.510 . S
C811 H809 0.959 . S
C811 H810 0.961 . S
C811 H812 0.960 . S
H812 C811 0.960 . S
H813 N793 0.862 . S
O814 Co782 1.920 . S
O814 C787 1.289 . S
C815 O807 1.258 . S
C815 O808 1.266 . S
Co816 O819 1.970 . S
Co816 N833 1.989 . S
Co816 O841 1.967 . S
Co816 O848 1.920 . S
Co817 O820 1.966 . S
Co817 N826 2.022 . S
Co817 N834 1.993 . S
Co817 O842 1.941 . S
C818 O819 1.258 . S
C818 O820 1.263 . S
O819 Co816 1.970 . S
O819 C818 1.258 . S
O820 Co817 1.966 . S
O820 C818 1.263 . S
C821 O822 1.235 . S
C821 O848 1.289 1_455 S
O822 C821 1.235 . S
C823 C825 1.400 . S
C823 N826 1.351 . S
C823 C828 1.501 1_554 S
C824 C825 1.387 . S
C824 N827 1.341 . S
C825 C823 1.400 . S
C825 C824 1.387 . S
N826 Co817 2.022 . S
N826 C823 1.351 . S
N826 N827 1.365 . S
N827 C824 1.341 . S
N827 N826 1.365 . S
N827 H847 0.862 . S
C828 C823 1.501 1_556 S
C828 H829 0.961 . S
C828 H830 0.961 . S
C828 H831 0.960 . S
H829 C828 0.961 . S
H830 C828 0.961 . S
H831 C828 0.960 . S
C832 N833 1.342 . S
C832 C836 1.401 . S
C832 C837 1.499 1_655 S
N833 Co816 1.989 . S
N833 C832 1.342 . S
N833 N834 1.388 . S
N834 Co817 1.993 . S
N834 N833 1.388 . S
N834 C835 1.346 . S
C835 N834 1.346 . S
C835 C836 1.396 . S
C835 C845 1.510 . S
C836 C832 1.401 . S
C836 C835 1.396 . S
C837 C832 1.499 1_455 S
C837 H838 0.959 . S
C837 H839 0.960 . S
C837 H840 0.961 . S
H838 C837 0.959 . S
H839 C837 0.960 . S
H840 C837 0.961 . S
O841 Co816 1.967 . S
O841 C849 1.258 . S
O842 Co817 1.941 . S
O842 C849 1.266 . S
H843 C845 0.959 . S
H844 C845 0.961 1_556 S
C845 C835 1.510 . S
C845 H843 0.959 . S
C845 H844 0.961 1_554 S
C845 H846 0.960 . S
H846 C845 0.960 . S
H847 N827 0.862 . S
O848 Co816 1.920 . S
O848 C821 1.289 1_655 S
C849 O841 1.258 . S
C849 O842 1.266 . S
Co850 O853 1.970 . S
Co850 N867 1.989 . S
Co850 O875 1.967 . S
Co850 O882 1.920 . S
Co851 O854 1.966 . S
Co851 N860 2.022 . S
Co851 N868 1.993 . S
Co851 O876 1.941 . S
C852 O853 1.258 . S
C852 O854 1.263 . S
O853 Co850 1.970 . S
O853 C852 1.258 . S
O854 Co851 1.966 . S
O854 C852 1.263 . S
C855 O856 1.235 . S
C855 O882 1.289 . S
O856 C855 1.235 . S
C857 C859 1.400 . S
C857 N860 1.351 . S
C857 C862 1.501 1_554 S
C858 C859 1.387 . S
C858 N861 1.341 . S
C859 C857 1.400 . S
C859 C858 1.387 . S
N860 Co851 2.022 . S
N860 C857 1.351 . S
N860 N861 1.365 . S
N861 C858 1.341 . S
N861 N860 1.365 . S
N861 H881 0.862 . S
C862 C857 1.501 1_556 S
C862 H863 0.961 . S
C862 H864 0.961 . S
C862 H865 0.960 . S
H863 C862 0.961 . S
H864 C862 0.961 . S
H865 C862 0.960 . S
C866 N867 1.342 . S
C866 C870 1.401 . S
C866 C871 1.499 . S
N867 Co850 1.989 . S
N867 C866 1.342 . S
N867 N868 1.388 . S
N868 Co851 1.993 . S
N868 N867 1.388 . S
N868 C869 1.346 . S
C869 N868 1.346 . S
C869 C870 1.396 . S
C869 C879 1.510 . S
C870 C866 1.401 . S
C870 C869 1.396 . S
C871 C866 1.499 . S
C871 H872 0.959 . S
C871 H873 0.960 . S
C871 H874 0.961 . S
H872 C871 0.959 . S
H873 C871 0.960 . S
H874 C871 0.961 . S
O875 Co850 1.967 . S
O875 C883 1.258 . S
O876 Co851 1.941 . S
O876 C883 1.266 . S
H877 C879 0.959 . S
H878 C879 0.961 1_556 S
C879 C869 1.510 . S
C879 H877 0.959 . S
C879 H878 0.961 1_554 S
C879 H880 0.960 . S
H880 C879 0.960 . S
H881 N861 0.862 . S
O882 Co850 1.920 . S
O882 C855 1.289 . S
C883 O875 1.258 . S
C883 O876 1.266 . S
Co884 O887 1.970 . S
Co884 N901 1.989 . S
Co884 O909 1.967 . S
Co884 O916 1.920 . S
Co885 O888 1.966 . S
Co885 N894 2.022 . S
Co885 N902 1.993 . S
Co885 O910 1.941 . S
C886 O887 1.258 . S
C886 O888 1.263 . S
O887 Co884 1.970 . S
O887 C886 1.258 . S
O888 Co885 1.966 . S
O888 C886 1.263 . S
C889 O890 1.235 . S
C889 O916 1.289 1_455 S
O890 C889 1.235 . S
C891 C893 1.400 . S
C891 N894 1.351 . S
C891 C896 1.501 . S
C892 C893 1.387 . S
C892 N895 1.341 . S
C893 C891 1.400 . S
C893 C892 1.387 . S
N894 Co885 2.022 . S
N894 C891 1.351 . S
N894 N895 1.365 . S
N895 C892 1.341 . S
N895 N894 1.365 . S
N895 H915 0.862 . S
C896 C891 1.501 . S
C896 H897 0.961 . S
C896 H898 0.961 . S
C896 H899 0.960 . S
H897 C896 0.961 . S
H898 C896 0.961 . S
H899 C896 0.960 . S
C900 N901 1.342 . S
C900 C904 1.401 . S
C900 C905 1.499 1_655 S
N901 Co884 1.989 . S
N901 C900 1.342 . S
N901 N902 1.388 . S
N902 Co885 1.993 . S
N902 N901 1.388 . S
N902 C903 1.346 . S
C903 N902 1.346 . S
C903 C904 1.396 . S
C903 C913 1.510 . S
C904 C900 1.401 . S
C904 C903 1.396 . S
C905 C900 1.499 1_455 S
C905 H906 0.959 . S
C905 H907 0.960 . S
C905 H908 0.961 . S
H906 C905 0.959 . S
H907 C905 0.960 . S
H908 C905 0.961 . S
O909 Co884 1.967 . S
O909 C917 1.258 . S
O910 Co885 1.941 . S
O910 C917 1.266 . S
H911 C913 0.959 . S
H912 C913 0.961 . S
C913 C903 1.510 . S
C913 H911 0.959 . S
C913 H912 0.961 . S
C913 H914 0.960 . S
H914 C913 0.960 . S
H915 N895 0.862 . S
O916 Co884 1.920 . S
O916 C889 1.289 1_655 S
C917 O909 1.258 . S
C917 O910 1.266 . S
Co918 O921 1.970 . S
Co918 N935 1.989 . S
Co918 O943 1.967 . S
Co918 O950 1.920 . S
Co919 O922 1.966 . S
Co919 N928 2.022 . S
Co919 N936 1.993 . S
Co919 O944 1.941 . S
C920 O921 1.258 . S
C920 O922 1.263 . S
O921 Co918 1.970 . S
O921 C920 1.258 . S
O922 Co919 1.966 . S
O922 C920 1.263 . S
C923 O924 1.235 . S
C923 O950 1.289 . S
O924 C923 1.235 . S
C925 C927 1.400 . S
C925 N928 1.351 . S
C925 C930 1.501 . S
C926 C927 1.387 . S
C926 N929 1.341 . S
C927 C925 1.400 . S
C927 C926 1.387 . S
N928 Co919 2.022 . S
N928 C925 1.351 . S
N928 N929 1.365 . S
N929 C926 1.341 . S
N929 N928 1.365 . S
N929 H949 0.862 . S
C930 C925 1.501 . S
C930 H931 0.961 . S
C930 H932 0.961 . S
C930 H933 0.960 . S
H931 C930 0.961 . S
H932 C930 0.961 . S
H933 C930 0.960 . S
C934 N935 1.342 . S
C934 C938 1.401 . S
C934 C939 1.499 . S
N935 Co918 1.989 . S
N935 C934 1.342 . S
N935 N936 1.388 . S
N936 Co919 1.993 . S
N936 N935 1.388 . S
N936 C937 1.346 . S
C937 N936 1.346 . S
C937 C938 1.396 . S
C937 C947 1.510 . S
C938 C934 1.401 . S
C938 C937 1.396 . S
C939 C934 1.499 . S
C939 H940 0.959 . S
C939 H941 0.960 . S
C939 H942 0.961 . S
H940 C939 0.959 . S
H941 C939 0.960 . S
H942 C939 0.961 . S
O943 Co918 1.967 . S
O943 C951 1.258 . S
O944 Co919 1.941 . S
O944 C951 1.266 . S
H945 C947 0.959 . S
H946 C947 0.961 . S
C947 C937 1.510 . S
C947 H945 0.959 . S
C947 H946 0.961 . S
C947 H948 0.960 . S
H948 C947 0.960 . S
H949 N929 0.862 . S
O950 Co918 1.920 . S
O950 C923 1.289 . S
C951 O943 1.258 . S
C951 O944 1.266 . S
Co952 O955 1.970 . S
Co952 N969 1.989 . S
Co952 O977 1.967 . S
Co952 O984 1.920 . S
Co953 O956 1.966 . S
Co953 N962 2.022 . S
Co953 N970 1.993 . S
Co953 O978 1.941 . S
C954 O955 1.258 . S
C954 O956 1.263 . S
O955 Co952 1.970 . S
O955 C954 1.258 . S
O956 Co953 1.966 . S
O956 C954 1.263 . S
C957 O958 1.235 . S
C957 O984 1.289 1_655 S
O958 C957 1.235 . S
C959 C961 1.400 . S
C959 N962 1.351 . S
C959 C964 1.501 1_556 S
C960 C961 1.387 . S
C960 N963 1.341 . S
C961 C959 1.400 . S
C961 C960 1.387 . S
N962 Co953 2.022 . S
N962 C959 1.351 . S
N962 N963 1.365 . S
N963 C960 1.341 . S
N963 N962 1.365 . S
N963 H983 0.862 . S
C964 C959 1.501 1_554 S
C964 H965 0.961 . S
C964 H966 0.961 . S
C964 H967 0.960 . S
H965 C964 0.961 . S
H966 C964 0.961 . S
H967 C964 0.960 . S
C968 N969 1.342 . S
C968 C972 1.401 . S
C968 C973 1.499 1_455 S
N969 Co952 1.989 . S
N969 C968 1.342 . S
N969 N970 1.388 . S
N970 Co953 1.993 . S
N970 N969 1.388 . S
N970 C971 1.346 . S
C971 N970 1.346 . S
C971 C972 1.396 . S
C971 C981 1.510 . S
C972 C968 1.401 . S
C972 C971 1.396 . S
C973 C968 1.499 1_655 S
C973 H974 0.959 . S
C973 H975 0.960 . S
C973 H976 0.961 . S
H974 C973 0.959 . S
H975 C973 0.960 . S
H976 C973 0.961 . S
O977 Co952 1.967 . S
O977 C985 1.258 . S
O978 Co953 1.941 . S
O978 C985 1.266 . S
H979 C981 0.959 . S
H980 C981 0.961 1_554 S
C981 C971 1.510 . S
C981 H979 0.959 . S
C981 H980 0.961 1_556 S
C981 H982 0.960 . S
H982 C981 0.960 . S
H983 N963 0.862 . S
O984 Co952 1.920 . S
O984 C957 1.289 1_455 S
C985 O977 1.258 . S
C985 O978 1.266 . S
Co986 O989 1.970 . S
Co986 N1003 1.989 . S
Co986 O1011 1.967 . S
Co986 O1018 1.920 . S
Co987 O990 1.966 . S
Co987 N996 2.022 . S
Co987 N1004 1.993 . S
Co987 O1012 1.941 . S
C988 O989 1.258 . S
C988 O990 1.263 . S
O989 Co986 1.970 . S
O989 C988 1.258 . S
O990 Co987 1.966 . S
O990 C988 1.263 . S
C991 O992 1.235 . S
C991 O1018 1.289 . S
O992 C991 1.235 . S
C993 C995 1.400 . S
C993 N996 1.351 . S
C993 C998 1.501 1_556 S
C994 C995 1.387 . S
C994 N997 1.341 . S
C995 C993 1.400 . S
C995 C994 1.387 . S
N996 Co987 2.022 . S
N996 C993 1.351 . S
N996 N997 1.365 . S
N997 C994 1.341 . S
N997 N996 1.365 . S
N997 H1017 0.862 . S
C998 C993 1.501 1_554 S
C998 H999 0.961 . S
C998 H1000 0.961 . S
C998 H1001 0.960 . S
H999 C998 0.961 . S
H1000 C998 0.961 . S
H1001 C998 0.960 . S
C1002 N1003 1.342 . S
C1002 C1006 1.401 . S
C1002 C1007 1.499 . S
N1003 Co986 1.989 . S
N1003 C1002 1.342 . S
N1003 N1004 1.388 . S
N1004 Co987 1.993 . S
N1004 N1003 1.388 . S
N1004 C1005 1.346 . S
C1005 N1004 1.346 . S
C1005 C1006 1.396 . S
C1005 C1015 1.510 . S
C1006 C1002 1.401 . S
C1006 C1005 1.396 . S
C1007 C1002 1.499 . S
C1007 H1008 0.959 . S
C1007 H1009 0.960 . S
C1007 H1010 0.961 . S
H1008 C1007 0.959 . S
H1009 C1007 0.960 . S
H1010 C1007 0.961 . S
O1011 Co986 1.967 . S
O1011 C1019 1.258 . S
O1012 Co987 1.941 . S
O1012 C1019 1.266 . S
H1013 C1015 0.959 . S
H1014 C1015 0.961 1_554 S
C1015 C1005 1.510 . S
C1015 H1013 0.959 . S
C1015 H1014 0.961 1_556 S
C1015 H1016 0.960 . S
H1016 C1015 0.960 . S
H1017 N997 0.862 . S
O1018 Co986 1.920 . S
O1018 C991 1.289 . S
C1019 O1011 1.258 . S
C1019 O1012 1.266 . S
Co1020 O1023 1.970 . S
Co1020 N1037 1.989 . S
Co1020 O1045 1.967 . S
Co1020 O1052 1.920 . S
Co1021 O1024 1.966 . S
Co1021 N1030 2.022 . S
Co1021 N1038 1.993 . S
Co1021 O1046 1.941 . S
C1022 O1023 1.258 . S
C1022 O1024 1.263 . S
O1023 Co1020 1.970 . S
O1023 C1022 1.258 . S
O1024 Co1021 1.966 . S
O1024 C1022 1.263 . S
C1025 O1026 1.235 . S
C1025 O1052 1.289 1_655 S
O1026 C1025 1.235 . S
C1027 C1029 1.400 . S
C1027 N1030 1.351 . S
C1027 C1032 1.501 . S
C1028 C1029 1.387 . S
C1028 N1031 1.341 . S
C1029 C1027 1.400 . S
C1029 C1028 1.387 . S
N1030 Co1021 2.022 . S
N1030 C1027 1.351 . S
N1030 N1031 1.365 . S
N1031 C1028 1.341 . S
N1031 N1030 1.365 . S
N1031 H1051 0.862 . S
C1032 C1027 1.501 . S
C1032 H1033 0.961 . S
C1032 H1034 0.961 . S
C1032 H1035 0.960 . S
H1033 C1032 0.961 . S
H1034 C1032 0.961 . S
H1035 C1032 0.960 . S
C1036 N1037 1.342 . S
C1036 C1040 1.401 . S
C1036 C1041 1.499 1_455 S
N1037 Co1020 1.989 . S
N1037 C1036 1.342 . S
N1037 N1038 1.388 . S
N1038 Co1021 1.993 . S
N1038 N1037 1.388 . S
N1038 C1039 1.346 . S
C1039 N1038 1.346 . S
C1039 C1040 1.396 . S
C1039 C1049 1.510 . S
C1040 C1036 1.401 . S
C1040 C1039 1.396 . S
C1041 C1036 1.499 1_655 S
C1041 H1042 0.959 . S
C1041 H1043 0.960 . S
C1041 H1044 0.961 . S
H1042 C1041 0.959 . S
H1043 C1041 0.960 . S
H1044 C1041 0.961 . S
O1045 Co1020 1.967 . S
O1045 C1053 1.258 . S
O1046 Co1021 1.941 . S
O1046 C1053 1.266 . S
H1047 C1049 0.959 . S
H1048 C1049 0.961 . S
C1049 C1039 1.510 . S
C1049 H1047 0.959 . S
C1049 H1048 0.961 . S
C1049 H1050 0.960 . S
H1050 C1049 0.960 . S
H1051 N1031 0.862 . S
O1052 Co1020 1.920 . S
O1052 C1025 1.289 1_455 S
C1053 O1045 1.258 . S
C1053 O1046 1.266 . S
Co1054 O1057 1.970 . S
Co1054 N1071 1.989 . S
Co1054 O1079 1.967 . S
Co1054 O1086 1.920 . S
Co1055 O1058 1.966 . S
Co1055 N1064 2.022 . S
Co1055 N1072 1.993 . S
Co1055 O1080 1.941 . S
C1056 O1057 1.258 . S
C1056 O1058 1.263 . S
O1057 Co1054 1.970 . S
O1057 C1056 1.258 . S
O1058 Co1055 1.966 . S
O1058 C1056 1.263 . S
C1059 O1060 1.235 . S
C1059 O1086 1.289 . S
O1060 C1059 1.235 . S
C1061 C1063 1.400 . S
C1061 N1064 1.351 . S
C1061 C1066 1.501 . S
C1062 C1063 1.387 . S
C1062 N1065 1.341 . S
C1063 C1061 1.400 . S
C1063 C1062 1.387 . S
N1064 Co1055 2.022 . S
N1064 C1061 1.351 . S
N1064 N1065 1.365 . S
N1065 C1062 1.341 . S
N1065 N1064 1.365 . S
N1065 H1085 0.862 . S
C1066 C1061 1.501 . S
C1066 H1067 0.961 . S
C1066 H1068 0.961 . S
C1066 H1069 0.960 . S
H1067 C1066 0.961 . S
H1068 C1066 0.961 . S
H1069 C1066 0.960 . S
C1070 N1071 1.342 . S
C1070 C1074 1.401 . S
C1070 C1075 1.499 . S
N1071 Co1054 1.989 . S
N1071 C1070 1.342 . S
N1071 N1072 1.388 . S
N1072 Co1055 1.993 . S
N1072 N1071 1.388 . S
N1072 C1073 1.346 . S
C1073 N1072 1.346 . S
C1073 C1074 1.396 . S
C1073 C1083 1.510 . S
C1074 C1070 1.401 . S
C1074 C1073 1.396 . S
C1075 C1070 1.499 . S
C1075 H1076 0.959 . S
C1075 H1077 0.960 . S
C1075 H1078 0.961 . S
H1076 C1075 0.959 . S
H1077 C1075 0.960 . S
H1078 C1075 0.961 . S
O1079 Co1054 1.967 . S
O1079 C1087 1.258 . S
O1080 Co1055 1.941 . S
O1080 C1087 1.266 . S
H1081 C1083 0.959 . S
H1082 C1083 0.961 . S
C1083 C1073 1.510 . S
C1083 H1081 0.959 . S
C1083 H1082 0.961 . S
C1083 H1084 0.960 . S
H1084 C1083 0.960 . S
H1085 N1065 0.862 . S
O1086 Co1054 1.920 . S
O1086 C1059 1.289 . S
C1087 O1079 1.258 . S
C1087 O1080 1.266 . S
C1088 C1089 1.363 1_556 S
C1088 H1092 0.953 . S
C1088 C1097 1.414 . S
C1089 C1088 1.363 1_554 S
C1089 C1091 1.387 1_545 S
H1090 C1097 0.950 . S
C1091 C1089 1.387 1_565 S
C1091 C1093 1.414 . S
C1091 H1095 0.950 . S
H1092 C1088 0.953 . S
C1093 C1091 1.414 . S
C1093 C1094 1.363 1_554 S
C1093 H1096 0.953 . S
C1094 C1093 1.363 1_556 S
C1094 C1097 1.387 1_565 S
H1095 C1091 0.950 . S
H1096 C1093 0.953 . S
C1097 C1088 1.414 . S
C1097 H1090 0.950 . S
C1097 C1094 1.387 1_545 S
C1098 C1099 1.387 1_554 S
C1098 H1102 0.950 . S
C1098 C1107 1.390 . S
C1099 C1098 1.387 1_556 S
C1099 C1101 1.387 . S
H1100 C1107 0.950 . S
C1101 C1099 1.387 . S
C1101 C1103 1.390 . S
C1101 H1105 0.950 . S
H1102 C1098 0.950 . S
C1103 C1101 1.390 . S
C1103 C1104 1.387 1_556 S
C1103 H1106 0.950 . S
C1104 C1103 1.387 1_554 S
C1104 C1107 1.387 . S
H1105 C1101 0.950 . S
H1106 C1103 0.950 . S
C1107 C1098 1.390 . S
C1107 H1100 0.950 . S
C1107 C1104 1.387 . S
C1108 C1109 1.387 . S
C1108 H1112 0.950 . S
C1108 C1117 1.390 . S
C1109 C1108 1.387 . S
C1109 C1111 1.387 . S
H1110 C1117 0.950 . S
C1111 C1109 1.387 . S
C1111 C1113 1.390 . S
C1111 H1115 0.950 . S
H1112 C1108 0.950 . S
C1113 C1111 1.390 . S
C1113 C1114 1.387 . S
C1113 H1116 0.950 . S
C1114 C1113 1.387 . S
C1114 C1117 1.387 . S
H1115 C1111 0.950 . S
H1116 C1113 0.950 . S
C1117 C1108 1.390 . S
C1117 H1110 0.950 . S
C1117 C1114 1.387 . S
C1118 C1119 1.387 . S
C1118 H1122 0.950 . S
C1118 C1127 1.390 . S
C1119 C1118 1.387 . S
C1119 C1121 1.387 1_545 S
H1120 C1127 0.950 . S
C1121 C1119 1.387 1_565 S
C1121 C1123 1.390 . S
C1121 H1125 0.950 . S
H1122 C1118 0.950 . S
C1123 C1121 1.390 . S
C1123 C1124 1.387 . S
C1123 H1126 0.950 . S
C1124 C1123 1.387 . S
C1124 C1127 1.387 1_565 S
H1125 C1121 0.950 . S
H1126 C1123 0.950 . S
C1127 C1118 1.390 . S
C1127 H1120 0.950 . S
C1127 C1124 1.387 1_545 S
C1128 C1129 1.387 1_556 S
C1128 H1132 0.950 . S
C1128 C1137 1.390 . S
C1129 C1128 1.387 1_554 S
C1129 C1131 1.387 . S
H1130 C1137 0.950 . S
C1131 C1129 1.387 . S
C1131 C1133 1.390 . S
C1131 H1135 0.950 . S
H1132 C1128 0.950 . S
C1133 C1131 1.390 . S
C1133 C1134 1.387 1_554 S
C1133 H1136 0.950 . S
C1134 C1133 1.387 1_556 S
C1134 C1137 1.387 . S
H1135 C1131 0.950 . S
H1136 C1133 0.950 . S
C1137 C1128 1.390 . S
C1137 H1130 0.950 . S
C1137 C1134 1.387 . S
C1138 C1139 1.387 . S
C1138 H1142 0.950 . S
C1138 C1147 1.390 . S
C1139 C1138 1.387 . S
C1139 C1141 1.387 . S
H1140 C1147 0.950 . S
C1141 C1139 1.387 . S
C1141 C1143 1.390 . S
C1141 H1145 0.950 . S
H1142 C1138 0.950 . S
C1143 C1141 1.390 . S
C1143 C1144 1.387 . S
C1143 H1146 0.950 . S
C1144 C1143 1.387 . S
C1144 C1147 1.387 . S
H1145 C1141 0.950 . S
H1146 C1143 0.950 . S
C1147 C1138 1.390 . S
C1147 H1140 0.950 . S
C1147 C1144 1.387 . S
C1148 C1149 1.387 . S
C1148 H1152 0.950 . S
C1148 C1157 1.390 . S
C1149 C1148 1.387 . S
C1149 C1151 1.387 1_545 S
H1150 C1157 0.950 . S
C1151 C1149 1.387 1_565 S
C1151 C1153 1.390 . S
C1151 H1155 0.950 . S
H1152 C1148 0.950 . S
C1153 C1151 1.390 . S
C1153 C1154 1.387 . S
C1153 H1156 0.950 . S
C1154 C1153 1.387 . S
C1154 C1157 1.387 1_565 S
H1155 C1151 0.950 . S
H1156 C1153 0.950 . S
C1157 C1148 1.390 . S
C1157 H1150 0.950 . S
C1157 C1154 1.387 1_545 S
C1158 C1159 1.387 . S
C1158 H1162 0.950 . S
C1158 C1167 1.390 . S
C1159 C1158 1.387 . S
C1159 C1161 1.387 . S
H1160 C1167 0.950 . S
C1161 C1159 1.387 . S
C1161 C1163 1.390 . S
C1161 H1165 0.950 . S
H1162 C1158 0.950 . S
C1163 C1161 1.390 . S
C1163 C1164 1.387 . S
C1163 H1166 0.950 . S
C1164 C1163 1.387 . S
C1164 C1167 1.387 . S
H1165 C1161 0.950 . S
H1166 C1163 0.950 . S
C1167 C1158 1.390 . S
C1167 H1160 0.950 . S
C1167 C1164 1.387 . S
C1168 C1169 1.387 . S
C1168 H1172 0.950 . S
C1168 C1177 1.390 . S
C1169 C1168 1.387 . S
C1169 C1171 1.387 . S
H1170 C1177 0.950 . S
C1171 C1169 1.387 . S
C1171 C1173 1.390 . S
C1171 H1175 0.950 . S
H1172 C1168 0.950 . S
C1173 C1171 1.390 . S
C1173 C1174 1.387 . S
C1173 H1176 0.950 . S
C1174 C1173 1.387 . S
C1174 C1177 1.387 . S
H1175 C1171 0.950 . S
H1176 C1173 0.950 . S
C1177 C1168 1.390 . S
C1177 H1170 0.950 . S
C1177 C1174 1.387 . S
C1178 C1179 1.387 . S
C1178 H1182 0.950 . S
C1178 C1187 1.390 . S
C1179 C1178 1.387 . S
C1179 C1181 1.387 . S
H1180 C1187 0.950 . S
C1181 C1179 1.387 . S
C1181 C1183 1.390 . S
C1181 H1185 0.950 . S
H1182 C1178 0.950 . S
C1183 C1181 1.390 . S
C1183 C1184 1.387 . S
C1183 H1186 0.950 . S
C1184 C1183 1.387 . S
C1184 C1187 1.387 . S
H1185 C1181 0.950 . S
H1186 C1183 0.950 . S
C1187 C1178 1.390 . S
C1187 H1180 0.950 . S
C1187 C1184 1.387 . S
C1188 C1189 1.387 . S
C1188 H1192 0.950 . S
C1188 C1197 1.390 . S
C1189 C1188 1.387 . S
C1189 C1191 1.387 . S
H1190 C1197 0.950 . S
C1191 C1189 1.387 . S
C1191 C1193 1.390 . S
C1191 H1195 0.950 . S
H1192 C1188 0.950 . S
C1193 C1191 1.390 . S
C1193 C1194 1.387 . S
C1193 H1196 0.950 . S
C1194 C1193 1.387 . S
C1194 C1197 1.387 . S
H1195 C1191 0.950 . S
H1196 C1193 0.950 . S
C1197 C1188 1.390 . S
C1197 H1190 0.950 . S
C1197 C1194 1.387 . S
C1198 C1199 1.387 . S
C1198 H1202 0.950 . S
C1198 C1207 1.390 . S
C1199 C1198 1.387 . S
C1199 C1201 1.387 . S
H1200 C1207 0.950 . S
C1201 C1199 1.387 . S
C1201 C1203 1.390 . S
C1201 H1205 0.950 . S
H1202 C1198 0.950 . S
C1203 C1201 1.390 . S
C1203 C1204 1.387 . S
C1203 H1206 0.950 . S
C1204 C1203 1.387 . S
C1204 C1207 1.387 . S
H1205 C1201 0.950 . S
H1206 C1203 0.950 . S
C1207 C1198 1.390 . S
C1207 H1200 0.950 . S
C1207 C1204 1.387 . S
C1208 C1209 1.387 . S
C1208 H1212 0.950 . S
C1208 C1217 1.390 1_455 S
C1209 C1208 1.387 . S
C1209 C1211 1.387 1_565 S
H1210 C1217 0.950 . S
C1211 C1209 1.387 1_545 S
C1211 C1213 1.390 1_455 S
C1211 H1215 0.950 . S
H1212 C1208 0.950 . S
C1213 C1211 1.390 1_655 S
C1213 C1214 1.387 . S
C1213 H1216 0.950 . S
C1214 C1213 1.387 . S
C1214 C1217 1.387 1_545 S
H1215 C1211 0.950 . S
H1216 C1213 0.950 . S
C1217 C1208 1.390 1_655 S
C1217 H1210 0.950 . S
C1217 C1214 1.387 1_565 S
C1218 C1219 1.387 . S
C1218 H1222 0.950 . S
C1218 C1227 1.390 1_455 S
C1219 C1218 1.387 . S
C1219 C1221 1.387 . S
H1220 C1227 0.950 . S
C1221 C1219 1.387 . S
C1221 C1223 1.390 1_455 S
C1221 H1225 0.950 . S
H1222 C1218 0.950 . S
C1223 C1221 1.390 1_655 S
C1223 C1224 1.387 . S
C1223 H1226 0.950 . S
C1224 C1223 1.387 . S
C1224 C1227 1.387 . S
H1225 C1221 0.950 . S
H1226 C1223 0.950 . S
C1227 C1218 1.390 1_655 S
C1227 H1220 0.950 . S
C1227 C1224 1.387 . S
C1228 C1229 1.387 . S
C1228 H1232 0.950 . S
C1228 C1237 1.391 . S
C1229 C1228 1.387 . S
C1229 C1231 1.386 1_455 S
H1230 C1237 0.950 . S
C1231 C1229 1.386 1_655 S
C1231 C1233 1.391 . S
C1231 H1235 0.950 . S
H1232 C1228 0.950 . S
C1233 C1231 1.391 . S
C1233 C1234 1.387 . S
C1233 H1236 0.950 . S
C1234 C1233 1.387 . S
C1234 C1237 1.386 1_655 S
H1235 C1231 0.950 . S
H1236 C1233 0.950 . S
C1237 C1228 1.391 . S
C1237 H1230 0.950 . S
C1237 C1234 1.386 1_455 S
C1238 C1239 1.387 . S
C1238 H1242 0.950 . S
C1238 C1247 1.390 1_455 S
C1239 C1238 1.387 . S
C1239 C1241 1.387 1_556 S
H1240 C1247 0.950 . S
C1241 C1239 1.387 1_554 S
C1241 C1243 1.390 1_455 S
C1241 H1245 0.950 . S
H1242 C1238 0.950 . S
C1243 C1241 1.390 1_655 S
C1243 C1244 1.387 . S
C1243 H1246 0.950 . S
C1244 C1243 1.387 . S
C1244 C1247 1.387 1_554 S
H1245 C1241 0.950 . S
H1246 C1243 0.950 . S
C1247 C1238 1.390 1_655 S
C1247 H1240 0.950 . S
C1247 C1244 1.387 1_556 S
C1248 C1249 1.387 . S
C1248 H1252 0.950 . S
C1248 C1257 1.390 . S
C1249 C1248 1.387 . S
C1249 C1251 1.387 . S
H1250 C1257 0.950 . S
C1251 C1249 1.387 . S
C1251 C1253 1.390 . S
C1251 H1255 0.950 . S
H1252 C1248 0.950 . S
C1253 C1251 1.390 . S
C1253 C1254 1.387 . S
C1253 H1256 0.950 . S
C1254 C1253 1.387 . S
C1254 C1257 1.387 . S
H1255 C1251 0.950 . S
H1256 C1253 0.950 . S
C1257 C1248 1.390 . S
C1257 H1250 0.950 . S
C1257 C1254 1.387 . S
C1258 C1259 1.387 . S
C1258 H1262 0.950 1_655 S
C1258 C1267 1.390 . S
C1259 C1258 1.387 . S
C1259 C1261 1.387 . S
H1260 C1267 0.950 1_455 S
C1261 C1259 1.387 . S
C1261 C1263 1.390 . S
C1261 H1265 0.950 . S
H1262 C1258 0.950 1_455 S
C1263 C1261 1.390 . S
C1263 C1264 1.387 . S
C1263 H1266 0.950 . S
C1264 C1263 1.387 . S
C1264 C1267 1.387 . S
H1265 C1261 0.950 . S
H1266 C1263 0.950 . S
C1267 C1258 1.390 . S
C1267 H1260 0.950 1_655 S
C1267 C1264 1.387 . S
C1268 C1269 1.387 . S
C1268 H1272 0.950 . S
C1268 C1277 1.390 . S
C1269 C1268 1.387 . S
C1269 C1271 1.387 . S
H1270 C1277 0.950 . S
C1271 C1269 1.387 . S
C1271 C1273 1.390 . S
C1271 H1275 0.950 . S
H1272 C1268 0.950 . S
C1273 C1271 1.390 . S
C1273 C1274 1.387 . S
C1273 H1276 0.950 . S
C1274 C1273 1.387 . S
C1274 C1277 1.387 . S
H1275 C1271 0.950 . S
H1276 C1273 0.950 . S
C1277 C1268 1.390 . S
C1277 H1270 0.950 . S
C1277 C1274 1.387 . S
C1278 C1279 1.387 . S
C1278 H1282 0.950 1_455 S
C1278 C1287 1.390 . S
C1279 C1278 1.387 . S
C1279 C1281 1.387 . S
H1280 C1287 0.950 1_655 S
C1281 C1279 1.387 . S
C1281 C1283 1.390 . S
C1281 H1285 0.950 . S
H1282 C1278 0.950 1_655 S
C1283 C1281 1.390 . S
C1283 C1284 1.387 . S
C1283 H1286 0.950 . S
C1284 C1283 1.387 . S
C1284 C1287 1.387 . S
H1285 C1281 0.950 . S
H1286 C1283 0.950 . S
C1287 C1278 1.390 . S
C1287 H1280 0.950 1_455 S
C1287 C1284 1.387 . S
C1288 C1289 1.387 . S
C1288 H1292 0.950 . S
C1288 C1297 1.390 . S
C1289 C1288 1.387 . S
C1289 C1291 1.387 . S
H1290 C1297 0.950 . S
C1291 C1289 1.387 . S
C1291 C1293 1.390 . S
C1291 H1295 0.950 . S
H1292 C1288 0.950 . S
C1293 C1291 1.390 . S
C1293 C1294 1.387 . S
C1293 H1296 0.950 . S
C1294 C1293 1.387 . S
C1294 C1297 1.387 . S
H1295 C1291 0.950 . S
H1296 C1293 0.950 . S
C1297 C1288 1.390 . S
C1297 H1290 0.950 . S
C1297 C1294 1.387 . S
C1298 C1299 1.387 . S
C1298 H1302 0.950 . S
C1298 C1307 1.390 . S
C1299 C1298 1.387 . S
C1299 C1301 1.387 . S
H1300 C1307 0.950 . S
C1301 C1299 1.387 . S
C1301 C1303 1.390 . S
C1301 H1305 0.950 1_655 S
H1302 C1298 0.950 . S
C1303 C1301 1.390 . S
C1303 C1304 1.387 . S
C1303 H1306 0.950 1_655 S
C1304 C1303 1.387 . S
C1304 C1307 1.387 . S
H1305 C1301 0.950 1_455 S
H1306 C1303 0.950 1_455 S
C1307 C1298 1.390 . S
C1307 H1300 0.950 . S
C1307 C1304 1.387 . S
C1308 C1309 1.387 . S
C1308 H1312 0.950 . S
C1308 C1317 1.390 . S
C1309 C1308 1.387 . S
C1309 C1311 1.387 . S
H1310 C1317 0.950 . S
C1311 C1309 1.387 . S
C1311 C1313 1.390 . S
C1311 H1315 0.950 . S
H1312 C1308 0.950 . S
C1313 C1311 1.390 . S
C1313 C1314 1.387 . S
C1313 H1316 0.950 . S
C1314 C1313 1.387 . S
C1314 C1317 1.387 . S
H1315 C1311 0.950 . S
H1316 C1313 0.950 . S
C1317 C1308 1.390 . S
C1317 H1310 0.950 . S
C1317 C1314 1.387 . S
C1318 C1319 1.387 . S
C1318 H1322 0.950 1_455 S
C1318 C1327 1.390 . S
C1319 C1318 1.387 . S
C1319 C1321 1.387 . S
H1320 C1327 0.950 1_655 S
C1321 C1319 1.387 . S
C1321 C1323 1.390 . S
C1321 H1325 0.950 . S
H1322 C1318 0.950 1_655 S
C1323 C1321 1.390 . S
C1323 C1324 1.387 . S
C1323 H1326 0.950 . S
C1324 C1323 1.387 . S
C1324 C1327 1.387 . S
H1325 C1321 0.950 . S
H1326 C1323 0.950 . S
C1327 C1318 1.390 . S
C1327 H1320 0.950 1_455 S
C1327 C1324 1.387 . S
C1328 C1329 1.387 . S
C1328 H1332 0.950 . S
C1328 C1337 1.390 . S
C1329 C1328 1.387 . S
C1329 C1331 1.387 . S
H1330 C1337 0.950 . S
C1331 C1329 1.387 . S
C1331 C1333 1.390 . S
C1331 H1335 0.950 . S
H1332 C1328 0.950 . S
C1333 C1331 1.390 . S
C1333 C1334 1.387 . S
C1333 H1336 0.950 . S
C1334 C1333 1.387 . S
C1334 C1337 1.387 . S
H1335 C1331 0.950 . S
H1336 C1333 0.950 . S
C1337 C1328 1.390 . S
C1337 H1330 0.950 . S
C1337 C1334 1.387 . S
C1338 C1339 1.387 . S
C1338 H1342 0.950 . S
C1338 C1347 1.390 . S
C1339 C1338 1.387 . S
C1339 C1341 1.387 . S
H1340 C1347 0.950 . S
C1341 C1339 1.387 . S
C1341 C1343 1.390 . S
C1341 H1345 0.950 . S
H1342 C1338 0.950 . S
C1343 C1341 1.390 . S
C1343 C1344 1.387 . S
C1343 H1346 0.950 . S
C1344 C1343 1.387 . S
C1344 C1347 1.387 . S
H1345 C1341 0.950 . S
H1346 C1343 0.950 . S
C1347 C1338 1.390 . S
C1347 H1340 0.950 . S
C1347 C1344 1.387 . S
C1348 C1349 1.387 . S
C1348 H1352 0.950 . S
C1348 C1357 1.390 . S
C1349 C1348 1.387 . S
C1349 C1351 1.387 . S
H1350 C1357 0.950 . S
C1351 C1349 1.387 . S
C1351 C1353 1.390 . S
C1351 H1355 0.950 . S
H1352 C1348 0.950 . S
C1353 C1351 1.390 . S
C1353 C1354 1.387 . S
C1353 H1356 0.950 . S
C1354 C1353 1.387 . S
C1354 C1357 1.387 . S
H1355 C1351 0.950 . S
H1356 C1353 0.950 . S
C1357 C1348 1.390 . S
C1357 H1350 0.950 . S
C1357 C1354 1.387 . S
C1358 C1359 1.387 . S
C1358 H1362 0.950 . S
C1358 C1367 1.390 . S
C1359 C1358 1.387 . S
C1359 C1361 1.387 . S
H1360 C1367 0.950 . S
C1361 C1359 1.387 . S
C1361 C1363 1.390 . S
C1361 H1365 0.950 . S
H1362 C1358 0.950 . S
C1363 C1361 1.390 . S
C1363 C1364 1.387 . S
C1363 H1366 0.950 . S
C1364 C1363 1.387 . S
C1364 C1367 1.387 . S
H1365 C1361 0.950 . S
H1366 C1363 0.950 . S
C1367 C1358 1.390 . S
C1367 H1360 0.950 . S
C1367 C1364 1.387 . S
C1368 C1369 1.387 . S
C1368 H1372 0.950 . S
C1368 C1377 1.390 . S
C1369 C1368 1.387 . S
C1369 C1371 1.387 . S
H1370 C1377 0.950 . S
C1371 C1369 1.387 . S
C1371 C1373 1.390 . S
C1371 H1375 0.950 . S
H1372 C1368 0.950 . S
C1373 C1371 1.390 . S
C1373 C1374 1.387 . S
C1373 H1376 0.950 . S
C1374 C1373 1.387 . S
C1374 C1377 1.387 . S
H1375 C1371 0.950 . S
H1376 C1373 0.950 . S
C1377 C1368 1.390 . S
C1377 H1370 0.950 . S
C1377 C1374 1.387 . S
C1378 C1379 1.387 . S
C1378 H1382 0.950 . S
C1378 C1387 1.390 . S
C1379 C1378 1.387 . S
C1379 C1381 1.387 . S
H1380 C1387 0.950 . S
C1381 C1379 1.387 . S
C1381 C1383 1.390 . S
C1381 H1385 0.950 . S
H1382 C1378 0.950 . S
C1383 C1381 1.390 . S
C1383 C1384 1.387 . S
C1383 H1386 0.950 . S
C1384 C1383 1.387 . S
C1384 C1387 1.387 . S
H1385 C1381 0.950 . S
H1386 C1383 0.950 . S
C1387 C1378 1.390 . S
C1387 H1380 0.950 . S
C1387 C1384 1.387 . S
C1388 C1389 1.387 . S
C1388 H1392 0.950 . S
C1388 C1397 1.390 . S
C1389 C1388 1.387 . S
C1389 C1391 1.387 . S
H1390 C1397 0.950 . S
C1391 C1389 1.387 . S
C1391 C1393 1.390 . S
C1391 H1395 0.950 . S
H1392 C1388 0.950 . S
C1393 C1391 1.390 . S
C1393 C1394 1.387 . S
C1393 H1396 0.950 . S
C1394 C1393 1.387 . S
C1394 C1397 1.387 . S
H1395 C1391 0.950 . S
H1396 C1393 0.950 . S
C1397 C1388 1.390 . S
C1397 H1390 0.950 . S
C1397 C1394 1.387 . S
C1398 C1399 1.387 . S
C1398 H1402 0.950 . S
C1398 C1407 1.390 . S
C1399 C1398 1.387 . S
C1399 C1401 1.387 . S
H1400 C1407 0.950 . S
C1401 C1399 1.387 . S
C1401 C1403 1.390 . S
C1401 H1405 0.950 . S
H1402 C1398 0.950 . S
C1403 C1401 1.390 . S
C1403 C1404 1.387 . S
C1403 H1406 0.950 . S
C1404 C1403 1.387 . S
C1404 C1407 1.387 . S
H1405 C1401 0.950 . S
H1406 C1403 0.950 . S
C1407 C1398 1.390 . S
C1407 H1400 0.950 . S
C1407 C1404 1.387 . S
C1408 C1409 1.387 . S
C1408 H1412 0.950 . S
C1408 C1417 1.390 . S
C1409 C1408 1.387 . S
C1409 C1411 1.387 . S
H1410 C1417 0.950 . S
C1411 C1409 1.387 . S
C1411 C1413 1.390 . S
C1411 H1415 0.950 . S
H1412 C1408 0.950 . S
C1413 C1411 1.390 . S
C1413 C1414 1.387 . S
C1413 H1416 0.950 . S
C1414 C1413 1.387 . S
C1414 C1417 1.387 . S
H1415 C1411 0.950 . S
H1416 C1413 0.950 . S
C1417 C1408 1.390 . S
C1417 H1410 0.950 . S
C1417 C1414 1.387 . S
C1418 C1419 1.387 . S
C1418 H1422 0.950 . S
C1418 C1427 1.390 . S
C1419 C1418 1.387 . S
C1419 C1421 1.387 . S
H1420 C1427 0.950 . S
C1421 C1419 1.387 . S
C1421 C1423 1.390 . S
C1421 H1425 0.950 . S
H1422 C1418 0.950 . S
C1423 C1421 1.390 . S
C1423 C1424 1.387 . S
C1423 H1426 0.950 . S
C1424 C1423 1.387 . S
C1424 C1427 1.387 . S
H1425 C1421 0.950 . S
H1426 C1423 0.950 . S
C1427 C1418 1.390 . S
C1427 H1420 0.950 . S
C1427 C1424 1.387 . S
C1428 C1429 1.387 . S
C1428 H1432 0.950 . S
C1428 C1437 1.390 . S
C1429 C1428 1.387 . S
C1429 C1431 1.387 . S
H1430 C1437 0.950 . S
C1431 C1429 1.387 . S
C1431 C1433 1.390 . S
C1431 H1435 0.950 . S
H1432 C1428 0.950 . S
C1433 C1431 1.390 . S
C1433 C1434 1.387 . S
C1433 H1436 0.950 . S
C1434 C1433 1.387 . S
C1434 C1437 1.387 . S
H1435 C1431 0.950 . S
H1436 C1433 0.950 . S
C1437 C1428 1.390 . S
C1437 H1430 0.950 . S
C1437 C1434 1.387 . S
C1438 C1439 1.387 . S
C1438 H1442 0.950 . S
C1438 C1447 1.390 . S
C1439 C1438 1.387 . S
C1439 C1441 1.387 . S
H1440 C1447 0.950 . S
C1441 C1439 1.387 . S
C1441 C1443 1.390 . S
C1441 H1445 0.950 . S
H1442 C1438 0.950 . S
C1443 C1441 1.390 . S
C1443 C1444 1.387 . S
C1443 H1446 0.950 . S
C1444 C1443 1.387 . S
C1444 C1447 1.387 . S
H1445 C1441 0.950 . S
H1446 C1443 0.950 . S
C1447 C1438 1.390 . S
C1447 H1440 0.950 . S
C1447 C1444 1.387 . S
C1448 C1449 1.387 . S
C1448 H1452 0.950 . S
C1448 C1457 1.390 . S
C1449 C1448 1.387 . S
C1449 C1451 1.387 . S
H1450 C1457 0.950 . S
C1451 C1449 1.387 . S
C1451 C1453 1.390 . S
C1451 H1455 0.950 . S
H1452 C1448 0.950 . S
C1453 C1451 1.390 . S
C1453 C1454 1.387 . S
C1453 H1456 0.950 . S
C1454 C1453 1.387 . S
C1454 C1457 1.387 . S
H1455 C1451 0.950 . S
H1456 C1453 0.950 . S
C1457 C1448 1.390 . S
C1457 H1450 0.950 . S
C1457 C1454 1.387 . S
C1458 C1459 1.387 . S
C1458 H1462 0.950 . S
C1458 C1467 1.390 . S
C1459 C1458 1.387 . S
C1459 C1461 1.387 . S
H1460 C1467 0.950 . S
C1461 C1459 1.387 . S
C1461 C1463 1.390 . S
C1461 H1465 0.950 . S
H1462 C1458 0.950 . S
C1463 C1461 1.390 . S
C1463 C1464 1.387 . S
C1463 H1466 0.950 . S
C1464 C1463 1.387 . S
C1464 C1467 1.387 . S
H1465 C1461 0.950 . S
H1466 C1463 0.950 . S
C1467 C1458 1.390 . S
C1467 H1460 0.950 . S
C1467 C1464 1.387 . S
C1468 C1469 1.387 . S
C1468 H1472 0.950 . S
C1468 C1477 1.390 . S
C1469 C1468 1.387 . S
C1469 C1471 1.387 . S
H1470 C1477 0.950 . S
C1471 C1469 1.387 . S
C1471 C1473 1.390 . S
C1471 H1475 0.950 . S
H1472 C1468 0.950 . S
C1473 C1471 1.390 . S
C1473 C1474 1.387 . S
C1473 H1476 0.950 . S
C1474 C1473 1.387 . S
C1474 C1477 1.387 . S
H1475 C1471 0.950 . S
H1476 C1473 0.950 . S
C1477 C1468 1.390 . S
C1477 H1470 0.950 . S
C1477 C1474 1.387 . S
C1478 C1479 1.387 . S
C1478 H1482 0.950 . S
C1478 C1487 1.390 . S
C1479 C1478 1.387 . S
C1479 C1481 1.387 . S
H1480 C1487 0.950 . S
C1481 C1479 1.387 . S
C1481 C1483 1.390 . S
C1481 H1485 0.950 . S
H1482 C1478 0.950 . S
C1483 C1481 1.390 . S
C1483 C1484 1.387 . S
C1483 H1486 0.950 . S
C1484 C1483 1.387 . S
C1484 C1487 1.387 . S
H1485 C1481 0.950 . S
H1486 C1483 0.950 . S
C1487 C1478 1.390 . S
C1487 H1480 0.950 . S
C1487 C1484 1.387 . S
C1488 C1489 1.387 . S
C1488 H1492 0.950 . S
C1488 C1497 1.390 . S
C1489 C1488 1.387 . S
C1489 C1491 1.387 . S
H1490 C1497 0.950 . S
C1491 C1489 1.387 . S
C1491 C1493 1.390 . S
C1491 H1495 0.950 . S
H1492 C1488 0.950 . S
C1493 C1491 1.390 . S
C1493 C1494 1.387 . S
C1493 H1496 0.950 . S
C1494 C1493 1.387 . S
C1494 C1497 1.387 . S
H1495 C1491 0.950 . S
H1496 C1493 0.950 . S
C1497 C1488 1.390 . S
C1497 H1490 0.950 . S
C1497 C1494 1.387 . S
C1498 C1499 1.387 . S
C1498 H1502 0.950 . S
C1498 C1507 1.390 . S
C1499 C1498 1.387 . S
C1499 C1501 1.387 . S
H1500 C1507 0.950 . S
C1501 C1499 1.387 . S
C1501 C1503 1.390 . S
C1501 H1505 0.950 . S
H1502 C1498 0.950 . S
C1503 C1501 1.390 . S
C1503 C1504 1.387 . S
C1503 H1506 0.950 . S
C1504 C1503 1.387 . S
C1504 C1507 1.387 . S
H1505 C1501 0.950 . S
H1506 C1503 0.950 . S
C1507 C1498 1.390 . S
C1507 H1500 0.950 . S
C1507 C1504 1.387 . S
C1508 C1509 1.387 . S
C1508 H1512 0.950 . S
C1508 C1517 1.390 . S
C1509 C1508 1.387 . S
C1509 C1511 1.387 . S
H1510 C1517 0.950 . S
C1511 C1509 1.387 . S
C1511 C1513 1.390 . S
C1511 H1515 0.950 . S
H1512 C1508 0.950 . S
C1513 C1511 1.390 . S
C1513 C1514 1.387 . S
C1513 H1516 0.950 . S
C1514 C1513 1.387 . S
C1514 C1517 1.387 . S
H1515 C1511 0.950 . S
H1516 C1513 0.950 . S
C1517 C1508 1.390 . S
C1517 H1510 0.950 . S
C1517 C1514 1.387 . S
C1518 C1519 1.387 . S
C1518 H1522 0.950 . S
C1518 C1527 1.390 . S
C1519 C1518 1.387 . S
C1519 C1521 1.387 . S
H1520 C1527 0.950 . S
C1521 C1519 1.387 . S
C1521 C1523 1.390 . S
C1521 H1525 0.950 . S
H1522 C1518 0.950 . S
C1523 C1521 1.390 . S
C1523 C1524 1.387 . S
C1523 H1526 0.950 . S
C1524 C1523 1.387 . S
C1524 C1527 1.387 . S
H1525 C1521 0.950 . S
H1526 C1523 0.950 . S
C1527 C1518 1.390 . S
C1527 H1520 0.950 . S
C1527 C1524 1.387 . S
C1528 C1529 1.387 . S
C1528 H1532 0.950 . S
C1528 C1537 1.390 . S
C1529 C1528 1.387 . S
C1529 C1531 1.387 . S
H1530 C1537 0.950 . S
C1531 C1529 1.387 . S
C1531 C1533 1.390 . S
C1531 H1535 0.950 . S
H1532 C1528 0.950 . S
C1533 C1531 1.390 . S
C1533 C1534 1.387 . S
C1533 H1536 0.950 . S
C1534 C1533 1.387 . S
C1534 C1537 1.387 . S
H1535 C1531 0.950 . S
H1536 C1533 0.950 . S
C1537 C1528 1.390 . S
C1537 H1530 0.950 . S
C1537 C1534 1.387 . S
C1538 C1539 1.387 . S
C1538 H1542 0.950 . S
C1538 C1547 1.390 . S
C1539 C1538 1.387 . S
C1539 C1541 1.387 . S
H1540 C1547 0.950 . S
C1541 C1539 1.387 . S
C1541 C1543 1.390 . S
C1541 H1545 0.950 . S
H1542 C1538 0.950 . S
C1543 C1541 1.390 . S
C1543 C1544 1.387 . S
C1543 H1546 0.950 . S
C1544 C1543 1.387 . S
C1544 C1547 1.387 . S
H1545 C1541 0.950 . S
H1546 C1543 0.950 . S
C1547 C1538 1.390 . S
C1547 H1540 0.950 . S
C1547 C1544 1.387 . S
C1548 C1549 1.387 . S
C1548 H1552 0.950 . S
C1548 C1557 1.390 . S
C1549 C1548 1.387 . S
C1549 C1551 1.387 . S
H1550 C1557 0.950 . S
C1551 C1549 1.387 . S
C1551 C1553 1.390 . S
C1551 H1555 0.950 . S
H1552 C1548 0.950 . S
C1553 C1551 1.390 . S
C1553 C1554 1.387 . S
C1553 H1556 0.950 . S
C1554 C1553 1.387 . S
C1554 C1557 1.387 . S
H1555 C1551 0.950 . S
H1556 C1553 0.950 . S
C1557 C1548 1.390 . S
C1557 H1550 0.950 . S
C1557 C1554 1.387 . S
C1558 C1559 1.387 . S
C1558 H1562 0.950 . S
C1558 C1567 1.390 . S
C1559 C1558 1.387 . S
C1559 C1561 1.387 . S
H1560 C1567 0.950 . S
C1561 C1559 1.387 . S
C1561 C1563 1.390 . S
C1561 H1565 0.950 . S
H1562 C1558 0.950 . S
C1563 C1561 1.390 . S
C1563 C1564 1.387 . S
C1563 H1566 0.950 . S
C1564 C1563 1.387 . S
C1564 C1567 1.387 . S
H1565 C1561 0.950 . S
H1566 C1563 0.950 . S
C1567 C1558 1.390 . S
C1567 H1560 0.950 . S
C1567 C1564 1.387 . S
C1568 C1569 1.387 1_554 S
C1568 H1572 0.950 . S
C1568 C1577 1.390 1_545 S
C1569 C1568 1.387 1_556 S
C1569 C1571 1.387 . S
H1570 C1577 0.950 . S
C1571 C1569 1.387 . S
C1571 C1573 1.390 1_545 S
C1571 H1575 0.950 . S
H1572 C1568 0.950 . S
C1573 C1571 1.390 1_565 S
C1573 C1574 1.387 . S
C1573 H1576 0.950 . S
C1574 C1573 1.387 . S
C1574 C1577 1.387 1_556 S
H1575 C1571 0.950 . S
H1576 C1573 0.950 . S
C1577 C1568 1.390 1_565 S
C1577 H1570 0.950 . S
C1577 C1574 1.387 1_554 S
C1578 C1579 1.387 . S
C1578 H1582 0.950 . S
C1578 C1587 1.390 . S
C1579 C1578 1.387 . S
C1579 C1581 1.387 1_556 S
H1580 C1587 0.950 . S
C1581 C1579 1.387 1_554 S
C1581 C1583 1.390 . S
C1581 H1585 0.950 . S
H1582 C1578 0.950 . S
C1583 C1581 1.390 . S
C1583 C1584 1.387 1_554 S
C1583 H1586 0.950 . S
C1584 C1583 1.387 1_556 S
C1584 C1587 1.387 . S
H1585 C1581 0.950 . S
H1586 C1583 0.950 . S
C1587 C1578 1.390 . S
C1587 H1580 0.950 . S
C1587 C1584 1.387 . S
C1588 C1589 1.387 . S
C1588 H1592 0.950 . S
C1588 C1597 1.390 . S
C1589 C1588 1.387 . S
C1589 C1591 1.387 . S
H1590 C1597 0.950 . S
C1591 C1589 1.387 . S
C1591 C1593 1.390 . S
C1591 H1595 0.950 1_455 S
H1592 C1588 0.950 . S
C1593 C1591 1.390 . S
C1593 C1594 1.387 . S
C1593 H1596 0.950 . S
C1594 C1593 1.387 . S
C1594 C1597 1.387 . S
H1595 C1591 0.950 1_655 S
H1596 C1593 0.950 . S
C1597 C1588 1.390 . S
C1597 H1590 0.950 . S
C1597 C1594 1.387 . S
C1598 C1599 1.387 . S
C1598 H1602 0.950 . S
C1598 C1607 1.390 1_545 S
C1599 C1598 1.387 . S
C1599 C1601 1.387 . S
H1600 C1607 0.950 . S
C1601 C1599 1.387 . S
C1601 C1603 1.390 1_545 S
C1601 H1605 0.950 . S
H1602 C1598 0.950 . S
C1603 C1601 1.390 1_565 S
C1603 C1604 1.387 . S
C1603 H1606 0.950 . S
C1604 C1603 1.387 . S
C1604 C1607 1.387 . S
H1605 C1601 0.950 . S
H1606 C1603 0.950 . S
C1607 C1598 1.390 1_565 S
C1607 H1600 0.950 . S
C1607 C1604 1.387 . S
C1608 C1609 1.387 . S
C1608 H1612 0.950 . S
C1608 C1617 1.390 1_545 S
C1609 C1608 1.387 . S
C1609 C1611 1.387 1_554 S
H1610 C1617 0.950 . S
C1611 C1609 1.387 1_556 S
C1611 C1613 1.390 1_545 S
C1611 H1615 0.950 . S
H1612 C1608 0.950 . S
C1613 C1611 1.390 1_565 S
C1613 C1614 1.387 1_556 S
C1613 H1616 0.950 . S
C1614 C1613 1.387 1_554 S
C1614 C1617 1.387 . S
H1615 C1611 0.950 . S
H1616 C1613 0.950 . S
C1617 C1608 1.390 1_565 S
C1617 H1610 0.950 . S
C1617 C1614 1.387 . S
C1618 C1619 1.387 . S
C1618 H1622 0.950 . S
C1618 C1627 1.390 . S
C1619 C1618 1.387 . S
C1619 C1621 1.387 1_554 S
H1620 C1627 0.950 . S
C1621 C1619 1.387 1_556 S
C1621 C1623 1.390 . S
C1621 H1625 0.950 . S
H1622 C1618 0.950 . S
C1623 C1621 1.390 . S
C1623 C1624 1.387 1_556 S
C1623 H1626 0.950 . S
C1624 C1623 1.387 1_554 S
C1624 C1627 1.387 . S
H1625 C1621 0.950 . S
H1626 C1623 0.950 . S
C1627 C1618 1.390 . S
C1627 H1620 0.950 . S
C1627 C1624 1.387 . S
C1628 C1629 1.387 . S
C1628 H1632 0.950 . S
C1628 C1637 1.390 . S
C1629 C1628 1.387 . S
C1629 C1631 1.387 . S
H1630 C1637 0.950 . S
C1631 C1629 1.387 . S
C1631 C1633 1.390 . S
C1631 H1635 0.950 . S
H1632 C1628 0.950 . S
C1633 C1631 1.390 . S
C1633 C1634 1.387 . S
C1633 H1636 0.950 . S
C1634 C1633 1.387 . S
C1634 C1637 1.387 . S
H1635 C1631 0.950 . S
H1636 C1633 0.950 . S
C1637 C1628 1.390 . S
C1637 H1630 0.950 . S
C1637 C1634 1.387 . S
C1638 C1639 1.387 . S
C1638 H1642 0.950 . S
C1638 C1647 1.390 1_545 S
C1639 C1638 1.387 . S
C1639 C1641 1.387 . S
H1640 C1647 0.950 . S
C1641 C1639 1.387 . S
C1641 C1643 1.390 1_545 S
C1641 H1645 0.950 . S
H1642 C1638 0.950 . S
C1643 C1641 1.390 1_565 S
C1643 C1644 1.387 . S
C1643 H1646 0.950 . S
C1644 C1643 1.387 . S
C1644 C1647 1.387 . S
H1645 C1641 0.950 . S
H1646 C1643 0.950 . S
C1647 C1638 1.390 1_565 S
C1647 H1640 0.950 . S
C1647 C1644 1.387 . S
C1648 C1649 1.387 . S
C1648 H1652 0.950 . S
C1648 C1657 1.390 . S
C1649 C1648 1.387 . S
C1649 C1651 1.387 . S
H1650 C1657 0.950 . S
C1651 C1649 1.387 . S
C1651 C1653 1.390 . S
C1651 H1655 0.950 . S
H1652 C1648 0.950 . S
C1653 C1651 1.390 . S
C1653 C1654 1.387 . S
C1653 H1656 0.950 . S
C1654 C1653 1.387 . S
C1654 C1657 1.387 . S
H1655 C1651 0.950 . S
H1656 C1653 0.950 . S
C1657 C1648 1.390 . S
C1657 H1650 0.950 . S
C1657 C1654 1.387 . S
C1658 C1659 1.387 . S
C1658 H1662 0.950 . S
C1658 C1667 1.390 . S
C1659 C1658 1.387 . S
C1659 C1661 1.387 . S
H1660 C1667 0.950 . S
C1661 C1659 1.387 . S
C1661 C1663 1.390 . S
C1661 H1665 0.950 . S
H1662 C1658 0.950 . S
C1663 C1661 1.390 . S
C1663 C1664 1.387 . S
C1663 H1666 0.950 . S
C1664 C1663 1.387 . S
C1664 C1667 1.387 . S
H1665 C1661 0.950 . S
H1666 C1663 0.950 . S
C1667 C1658 1.390 . S
C1667 H1660 0.950 . S
C1667 C1664 1.387 . S
C1668 C1669 1.387 . S
C1668 H1672 0.950 . S
C1668 C1677 1.390 . S
C1669 C1668 1.387 . S
C1669 C1671 1.387 . S
H1670 C1677 0.950 . S
C1671 C1669 1.387 . S
C1671 C1673 1.390 . S
C1671 H1675 0.950 . S
H1672 C1668 0.950 . S
C1673 C1671 1.390 . S
C1673 C1674 1.387 . S
C1673 H1676 0.950 1_455 S
C1674 C1673 1.387 . S
C1674 C1677 1.387 . S
H1675 C1671 0.950 . S
H1676 C1673 0.950 1_655 S
C1677 C1668 1.390 . S
C1677 H1670 0.950 . S
C1677 C1674 1.387 . S
C1678 C1679 1.387 . S
C1678 H1682 0.950 . S
C1678 C1687 1.390 . S
C1679 C1678 1.387 . S
C1679 C1681 1.387 . S
H1680 C1687 0.950 . S
C1681 C1679 1.387 . S
C1681 C1683 1.390 . S
C1681 H1685 0.950 . S
H1682 C1678 0.950 . S
C1683 C1681 1.390 . S
C1683 C1684 1.387 . S
C1683 H1686 0.950 . S
C1684 C1683 1.387 . S
C1684 C1687 1.387 . S
H1685 C1681 0.950 . S
H1686 C1683 0.950 . S
C1687 C1678 1.390 . S
C1687 H1680 0.950 . S
C1687 C1684 1.387 . S
C1688 C1689 1.387 . S
C1688 H1692 0.950 . S
C1688 C1697 1.390 . S
C1689 C1688 1.387 . S
C1689 C1691 1.387 . S
H1690 C1697 0.950 . S
C1691 C1689 1.387 . S
C1691 C1693 1.390 . S
C1691 H1695 0.950 . S
H1692 C1688 0.950 . S
C1693 C1691 1.390 . S
C1693 C1694 1.387 . S
C1693 H1696 0.950 . S
C1694 C1693 1.387 . S
C1694 C1697 1.387 . S
H1695 C1691 0.950 . S
H1696 C1693 0.950 . S
C1697 C1688 1.390 . S
C1697 H1690 0.950 . S
C1697 C1694 1.387 . S
C1698 C1699 1.387 . S
C1698 H1702 0.950 . S
C1698 C1707 1.390 . S
C1699 C1698 1.387 . S
C1699 C1701 1.387 . S
H1700 C1707 0.950 . S
C1701 C1699 1.387 . S
C1701 C1703 1.390 . S
C1701 H1705 0.950 . S
H1702 C1698 0.950 . S
C1703 C1701 1.390 . S
C1703 C1704 1.387 . S
C1703 H1706 0.950 . S
C1704 C1703 1.387 . S
C1704 C1707 1.387 . S
H1705 C1701 0.950 . S
H1706 C1703 0.950 . S
C1707 C1698 1.390 . S
C1707 H1700 0.950 . S
C1707 C1704 1.387 . S
C1708 C1709 1.387 . S
C1708 H1712 0.950 . S
C1708 C1717 1.390 . S
C1709 C1708 1.387 . S
C1709 C1711 1.387 . S
H1710 C1717 0.950 . S
C1711 C1709 1.387 . S
C1711 C1713 1.390 . S
C1711 H1715 0.950 . S
H1712 C1708 0.950 . S
C1713 C1711 1.390 . S
C1713 C1714 1.387 . S
C1713 H1716 0.950 . S
C1714 C1713 1.387 . S
C1714 C1717 1.387 . S
H1715 C1711 0.950 . S
H1716 C1713 0.950 . S
C1717 C1708 1.390 . S
C1717 H1710 0.950 . S
C1717 C1714 1.387 . S
C1718 C1719 1.387 . S
C1718 H1722 0.950 . S
C1718 C1727 1.390 . S
C1719 C1718 1.387 . S
C1719 C1721 1.387 . S
H1720 C1727 0.950 . S
C1721 C1719 1.387 . S
C1721 C1723 1.390 . S
C1721 H1725 0.950 . S
H1722 C1718 0.950 . S
C1723 C1721 1.390 . S
C1723 C1724 1.387 . S
C1723 H1726 0.950 . S
C1724 C1723 1.387 . S
C1724 C1727 1.387 . S
H1725 C1721 0.950 . S
H1726 C1723 0.950 . S
C1727 C1718 1.390 . S
C1727 H1720 0.950 . S
C1727 C1724 1.387 . S
C1728 C1729 1.387 . S
C1728 H1732 0.950 . S
C1728 C1737 1.390 1_565 S
C1729 C1728 1.387 . S
C1729 C1731 1.387 . S
H1730 C1737 0.950 . S
C1731 C1729 1.387 . S
C1731 C1733 1.390 1_565 S
C1731 H1735 0.950 . S
H1732 C1728 0.950 . S
C1733 C1731 1.390 1_545 S
C1733 C1734 1.387 . S
C1733 H1736 0.950 . S
C1734 C1733 1.387 . S
C1734 C1737 1.387 . S
H1735 C1731 0.950 . S
H1736 C1733 0.950 . S
C1737 C1728 1.390 1_545 S
C1737 H1730 0.950 . S
C1737 C1734 1.387 . S
C1738 C1739 1.387 . S
C1738 H1742 0.950 . S
C1738 C1747 1.390 . S
C1739 C1738 1.387 . S
C1739 C1741 1.387 . S
H1740 C1747 0.950 . S
C1741 C1739 1.387 . S
C1741 C1743 1.390 . S
C1741 H1745 0.950 . S
H1742 C1738 0.950 . S
C1743 C1741 1.390 . S
C1743 C1744 1.387 . S
C1743 H1746 0.950 . S
C1744 C1743 1.387 . S
C1744 C1747 1.387 . S
H1745 C1741 0.950 . S
H1746 C1743 0.950 . S
C1747 C1738 1.390 . S
C1747 H1740 0.950 . S
C1747 C1744 1.387 . S
C1748 C1749 1.387 . S
C1748 H1752 0.950 . S
C1748 C1757 1.390 . S
C1749 C1748 1.387 . S
C1749 C1751 1.387 . S
H1750 C1757 0.950 . S
C1751 C1749 1.387 . S
C1751 C1753 1.390 . S
C1751 H1755 0.950 . S
H1752 C1748 0.950 . S
C1753 C1751 1.390 . S
C1753 C1754 1.387 . S
C1753 H1756 0.950 . S
C1754 C1753 1.387 . S
C1754 C1757 1.387 . S
H1755 C1751 0.950 . S
H1756 C1753 0.950 . S
C1757 C1748 1.390 . S
C1757 H1750 0.950 . S
C1757 C1754 1.387 . S
C1758 C1759 1.390 . S
C1758 H1762 0.951 . S
C1758 C1767 1.386 1_545 S
C1759 C1758 1.390 . S
C1759 C1761 1.387 . S
H1760 C1767 0.950 . S
C1761 C1759 1.387 . S
C1761 C1763 1.390 1_545 S
C1761 H1765 0.950 . S
H1762 C1758 0.951 . S
C1763 C1761 1.390 1_565 S
C1763 C1764 1.387 . S
C1763 H1766 0.950 . S
C1764 C1763 1.387 . S
C1764 C1767 1.387 . S
H1765 C1761 0.950 . S
H1766 C1763 0.950 . S
C1767 C1758 1.386 1_565 S
C1767 H1760 0.950 . S
C1767 C1764 1.387 . S
C1768 C1769 1.370 1_545 S
C1768 H1772 0.940 1_545 S
C1768 C1777 1.418 . S
C1769 C1768 1.370 1_565 S
C1769 C1771 1.387 . S
H1770 C1777 0.950 . S
C1771 C1769 1.387 . S
C1771 C1773 1.390 1_565 S
C1771 H1775 0.950 . S
H1772 C1768 0.940 1_565 S
C1773 C1771 1.390 1_545 S
C1773 C1774 1.387 . S
C1773 H1776 0.950 . S
C1774 C1773 1.387 . S
C1774 C1777 1.387 . S
H1775 C1771 0.950 . S
H1776 C1773 0.950 . S
C1777 C1768 1.418 . S
C1777 H1770 0.950 . S
C1777 C1774 1.387 . S
C1778 C1779 1.387 . S
C1778 H1782 0.950 . S
C1778 C1787 1.390 . S
C1779 C1778 1.387 . S
C1779 C1781 1.387 . S
H1780 C1787 0.950 . S
C1781 C1779 1.387 . S
C1781 C1783 1.390 . S
C1781 H1785 0.950 . S
H1782 C1778 0.950 . S
C1783 C1781 1.390 . S
C1783 C1784 1.387 . S
C1783 H1786 0.950 . S
C1784 C1783 1.387 . S
C1784 C1787 1.387 . S
H1785 C1781 0.950 . S
H1786 C1783 0.950 . S
C1787 C1778 1.390 . S
C1787 H1780 0.950 . S
C1787 C1784 1.387 . S
C1788 C1789 1.387 . S
C1788 H1792 0.950 . S
C1788 C1797 1.390 . S
C1789 C1788 1.387 . S
C1789 C1791 1.387 . S
H1790 C1797 0.950 . S
C1791 C1789 1.387 . S
C1791 C1793 1.390 . S
C1791 H1795 0.950 . S
H1792 C1788 0.950 . S
C1793 C1791 1.390 . S
C1793 C1794 1.387 . S
C1793 H1796 0.950 . S
C1794 C1793 1.387 . S
C1794 C1797 1.387 . S
H1795 C1791 0.950 . S
H1796 C1793 0.950 . S
C1797 C1788 1.390 . S
C1797 H1790 0.950 . S
C1797 C1794 1.387 . S
C1798 C1799 1.387 . S
C1798 H1802 0.950 . S
C1798 C1807 1.390 1_545 S
C1799 C1798 1.387 . S
C1799 C1801 1.387 . S
H1800 C1807 0.950 . S
C1801 C1799 1.387 . S
C1801 C1803 1.390 . S
C1801 H1805 0.950 . S
H1802 C1798 0.950 . S
C1803 C1801 1.390 . S
C1803 C1804 1.387 1_545 S
C1803 H1806 0.950 1_545 S
C1804 C1803 1.387 1_565 S
C1804 C1807 1.387 . S
H1805 C1801 0.950 . S
H1806 C1803 0.950 1_565 S
C1807 C1798 1.390 1_565 S
C1807 H1800 0.950 . S
C1807 C1804 1.387 . S
C1808 C1809 1.387 1_554 S
C1808 H1812 0.950 . S
C1808 C1817 1.390 . S
C1809 C1808 1.387 1_556 S
C1809 C1811 1.387 . S
H1810 C1817 0.950 . S
C1811 C1809 1.387 . S
C1811 C1813 1.390 . S
C1811 H1815 0.950 . S
H1812 C1808 0.950 . S
C1813 C1811 1.390 . S
C1813 C1814 1.387 . S
C1813 H1816 0.950 . S
C1814 C1813 1.387 . S
C1814 C1817 1.387 1_556 S
H1815 C1811 0.950 . S
H1816 C1813 0.950 . S
C1817 C1808 1.390 . S
C1817 H1810 0.950 . S
C1817 C1814 1.387 1_554 S
C1818 C1819 1.387 1_554 S
C1818 H1822 0.950 . S
C1818 C1827 1.390 . S
C1819 C1818 1.387 1_556 S
C1819 C1821 1.387 . S
H1820 C1827 0.950 . S
C1821 C1819 1.387 . S
C1821 C1823 1.390 . S
C1821 H1825 0.950 . S
H1822 C1818 0.950 . S
C1823 C1821 1.390 . S
C1823 C1824 1.387 . S
C1823 H1826 0.950 . S
C1824 C1823 1.387 . S
C1824 C1827 1.387 1_556 S
H1825 C1821 0.950 . S
H1826 C1823 0.950 . S
C1827 C1818 1.390 . S
C1827 H1820 0.950 . S
C1827 C1824 1.387 1_554 S
C1828 C1829 1.387 . S
C1828 H1832 0.950 . S
C1828 C1837 1.390 . S
C1829 C1828 1.387 . S
C1829 C1831 1.387 . S
H1830 C1837 0.950 . S
C1831 C1829 1.387 . S
C1831 C1833 1.390 . S
C1831 H1835 0.950 . S
H1832 C1828 0.950 . S
C1833 C1831 1.390 . S
C1833 C1834 1.387 . S
C1833 H1836 0.950 . S
C1834 C1833 1.387 . S
C1834 C1837 1.387 . S
H1835 C1831 0.950 . S
H1836 C1833 0.950 . S
C1837 C1828 1.390 . S
C1837 H1830 0.950 . S
C1837 C1834 1.387 . S
C1838 C1839 1.387 . S
C1838 H1842 0.950 . S
C1838 C1847 1.390 . S
C1839 C1838 1.387 . S
C1839 C1841 1.387 . S
H1840 C1847 0.950 . S
C1841 C1839 1.387 . S
C1841 C1843 1.390 . S
C1841 H1845 0.950 . S
H1842 C1838 0.950 . S
C1843 C1841 1.390 . S
C1843 C1844 1.387 . S
C1843 H1846 0.950 . S
C1844 C1843 1.387 . S
C1844 C1847 1.387 . S
H1845 C1841 0.950 . S
H1846 C1843 0.950 . S
C1847 C1838 1.390 . S
C1847 H1840 0.950 . S
C1847 C1844 1.387 . S
C1848 C1849 1.387 1_556 S
C1848 H1852 0.950 . S
C1848 C1857 1.390 . S
C1849 C1848 1.387 1_554 S
C1849 C1851 1.387 . S
H1850 C1857 0.950 . S
C1851 C1849 1.387 . S
C1851 C1853 1.390 . S
C1851 H1855 0.950 . S
H1852 C1848 0.950 . S
C1853 C1851 1.390 . S
C1853 C1854 1.387 . S
C1853 H1856 0.950 . S
C1854 C1853 1.387 . S
C1854 C1857 1.387 1_554 S
H1855 C1851 0.950 . S
H1856 C1853 0.950 . S
C1857 C1848 1.390 . S
C1857 H1850 0.950 . S
C1857 C1854 1.387 1_556 S
C1858 C1859 1.387 . S
C1858 H1862 0.950 . S
C1858 C1867 1.390 . S
C1859 C1858 1.387 . S
C1859 C1861 1.387 1_554 S
H1860 C1867 0.950 . S
C1861 C1859 1.387 1_556 S
C1861 C1863 1.390 . S
C1861 H1865 0.950 . S
H1862 C1858 0.950 . S
C1863 C1861 1.390 . S
C1863 C1864 1.387 1_556 S
C1863 H1866 0.950 . S
C1864 C1863 1.387 1_554 S
C1864 C1867 1.387 . S
H1865 C1861 0.950 . S
H1866 C1863 0.950 . S
C1867 C1858 1.390 . S
C1867 H1860 0.950 . S
C1867 C1864 1.387 . S
C1868 C1869 1.387 . S
C1868 H1872 0.950 . S
C1868 C1877 1.390 . S
C1869 C1868 1.387 . S
C1869 C1871 1.387 . S
H1870 C1877 0.950 . S
C1871 C1869 1.387 . S
C1871 C1873 1.390 . S
C1871 H1875 0.950 . S
H1872 C1868 0.950 . S
C1873 C1871 1.390 . S
C1873 C1874 1.387 . S
C1873 H1876 0.950 . S
C1874 C1873 1.387 . S
C1874 C1877 1.387 . S
H1875 C1871 0.950 . S
H1876 C1873 0.950 . S
C1877 C1868 1.390 . S
C1877 H1870 0.950 . S
C1877 C1874 1.387 . S
C1878 C1879 1.387 . S
C1878 H1882 0.950 . S
C1878 C1887 1.390 . S
C1879 C1878 1.387 . S
C1879 C1881 1.387 . S
H1880 C1887 0.950 . S
C1881 C1879 1.387 . S
C1881 C1883 1.390 . S
C1881 H1885 0.950 . S
H1882 C1878 0.950 . S
C1883 C1881 1.390 . S
C1883 C1884 1.387 . S
C1883 H1886 0.950 . S
C1884 C1883 1.387 . S
C1884 C1887 1.387 . S
H1885 C1881 0.950 . S
H1886 C1883 0.950 . S
C1887 C1878 1.390 . S
C1887 H1880 0.950 . S
C1887 C1884 1.387 . S
C1089 C20 1.406 . S
C1094 C156 1.406 . S
C1099 C1006 1.405 . S
C1104 C54 1.405 . S
C1109 C496 1.406 . S
C1114 C88 1.406 . S
C1119 C122 1.407 . S
C1124 C802 1.407 . S
C1129 C870 1.406 . S
C1134 C190 1.406 . S
C1139 C224 1.404 . S
C1144 C360 1.404 . S
C1149 C666 1.407 . S
C1154 C258 1.407 . S
C1159 C428 1.406 . S
C1164 C292 1.406 . S
C1169 C326 1.404 . S
C1174 C734 1.404 . S
C1179 C394 1.403 . S
C1184 C1074 1.403 . S
C1189 C462 1.405 . S
C1194 C598 1.405 . S
C1199 C938 1.407 . S
C1204 C530 1.407 . S
C1209 C700 1.404 . S
C1214 C564 1.404 . S
C1219 C1040 1.406 . S
C1224 C632 1.406 . S
C1229 C768 1.403 . S
C1234 C904 1.403 . S
C1239 C972 1.406 . S
C1244 C836 1.406 . S
C1249 C33 1.505 . S
C1254 C101 1.505 . S
C1259 C67 1.505 . S
C1264 C135 1.505 . S
C1269 C237 1.505 . S
C1274 C169 1.505 . S
C1279 C271 1.505 . S
C1284 C203 1.505 . S
C1289 C373 1.505 . S
C1294 C305 1.505 . S
C1299 C339 1.505 . S
C1304 C407 1.505 . S
C1309 C441 1.505 . S
C1314 C509 1.505 . S
C1319 C475 1.505 . S
C1324 C543 1.505 . S
C1329 C645 1.505 . S
C1334 C577 1.505 . S
C1339 C611 1.505 . S
C1344 C679 1.505 . S
C1349 C713 1.505 . S
C1354 C781 1.505 . S
C1359 C747 1.504 . S
C1364 C815 1.504 . S
C1369 C849 1.505 . S
C1374 C917 1.505 . S
C1379 C951 1.504 . S
C1384 C883 1.504 . S
C1389 C985 1.505 . S
C1394 C1053 1.505 . S
C1399 C1087 1.504 . S
C1404 C1019 1.504 . S
C1409 C5 1.066 . S
C1414 C39 1.066 . S
C1419 C107 1.060 . S
C1424 C73 1.060 . S
C1429 C175 1.060 . S
C1434 C141 1.060 . S
C1439 C209 1.060 . S
C1444 C243 1.060 . S
C1449 C277 1.066 . S
C1454 C311 1.066 . S
C1459 C345 1.060 . S
C1464 C379 1.060 . S
C1469 C447 1.066 . S
C1474 C413 1.066 . S
C1479 C515 1.060 . S
C1484 C481 1.060 . S
C1489 C583 1.066 . S
C1494 C549 1.066 . S
C1499 C617 1.060 . S
C1504 C651 1.060 . S
C1509 C719 1.066 . S
C1514 C685 1.066 . S
C1519 C753 1.060 . S
C1524 C787 1.060 . S
C1529 C821 1.060 . S
C1534 C855 1.060 . S
C1539 C923 1.060 . S
C1544 C889 1.060 . S
C1549 C957 1.060 . S
C1554 C991 1.060 . S
C1559 C1025 1.060 . S
C1564 C1059 1.060 . S
C1569 C9 1.787 1_556 S
C1574 C172 2.080 . S
C1579 C954 2.079 . S
C1584 C43 1.791 1_556 S
C1589 C512 2.079 . S
C1594 C77 1.791 . S
C1599 C111 1.791 . S
C1604 C750 2.078 . S
C1609 C36 2.080 . S
C1614 C145 1.787 1_554 S
C1619 C179 1.788 1_554 S
C1624 C818 2.080 . S
C1629 C213 1.787 . S
C1634 C376 2.080 . S
C1639 C614 2.080 . S
C1644 C247 1.788 . S
C1649 C281 1.787 . S
C1654 C444 2.080 . S
C1659 C315 1.788 . S
C1664 C682 2.080 . S
C1669 C349 1.791 . S
C1674 C240 2.080 . S
C1679 C1022 2.080 . S
C1684 C383 1.787 . S
C1689 C417 1.788 . S
C1694 C308 2.080 . S
C1699 C451 1.788 . S
C1704 C546 2.080 . S
C1709 C485 1.787 . S
C1714 C104 2.080 . S
C1719 C886 2.081 . S
C1724 C519 1.789 . S
C1729 C716 2.078 . S
C1734 C553 1.791 . S
C1739 C587 1.788 . S
C1744 C410 2.080 . S
C1749 C621 1.790 . S
C1754 C1056 2.078 . S
C1759 C655 1.788 . S
C1764 C206 2.080 . S
C1769 C689 1.790 . S
C1774 C580 2.078 . S
C1779 C723 1.787 . S
C1784 C274 2.080 . S
C1789 C920 2.080 . S
C1794 C757 1.788 . S
C1799 C70 2.080 . S
C1804 C791 1.791 . S
C1809 C825 1.787 1_556 S
C1814 C988 2.080 . S
C1819 C859 1.787 1_556 S
C1824 C138 2.080 . S
C1829 C893 1.791 . S
C1834 C784 2.078 . S
C1839 C478 2.080 . S
C1844 C927 1.787 . S
C1849 C961 1.791 1_554 S
C1854 C852 2.078 . S
C1859 C2 2.080 . S
C1864 C995 1.788 1_554 S
C1869 C648 2.078 . S
C1874 C1029 1.790 . S
C1879 C342 2.079 . S
C1884 C1063 1.791 . S
