# Generated by pormake.
# Topology snp, (6)-cn, num edge types: 1
# Building blocks:
#     Node 0, Type 0, BuildingBlock: BETDEL_clean_sbu_0, # of connection points: 6
#     Node 1, Type 0, BuildingBlock: BETDEL_clean_sbu_0, # of connection points: 6
#     Node 2, Type 0, BuildingBlock: BETDEL_clean_sbu_0, # of connection points: 6
#     Node 3, Type 0, BuildingBlock: BETDEL_clean_sbu_0, # of connection points: 6
#     Edge 4, Type (0, 0), BuildingBlock: XIVTED_clean_linker_0, # of connection points: 2
#     Edge 5, Type (0, 0), BuildingBlock: XIVTED_clean_linker_0, # of connection points: 2
#     Edge 6, Type (0, 0), BuildingBlock: XIVTED_clean_linker_0, # of connection points: 2
#     Edge 7, Type (0, 0), BuildingBlock: XIVTED_clean_linker_0, # of connection points: 2
#     Edge 8, Type (0, 0), BuildingBlock: XIVTED_clean_linker_0, # of connection points: 2
#     Edge 9, Type (0, 0), BuildingBlock: XIVTED_clean_linker_0, # of connection points: 2
#     Edge 10, Type (0, 0), BuildingBlock: XIVTED_clean_linker_0, # of connection points: 2
#     Edge 11, Type (0, 0), BuildingBlock: XIVTED_clean_linker_0, # of connection points: 2
#     Edge 12, Type (0, 0), BuildingBlock: XIVTED_clean_linker_0, # of connection points: 2
#     Edge 13, Type (0, 0), BuildingBlock: XIVTED_clean_linker_0, # of connection points: 2
#     Edge 14, Type (0, 0), BuildingBlock: XIVTED_clean_linker_0, # of connection points: 2
#     Edge 15, Type (0, 0), BuildingBlock: XIVTED_clean_linker_0, # of connection points: 2
# Relax obj value: 0.335
# Max RMSD: 0.193
# Mean RMSD: 0.191
data_MOF--net-snp--node1-BETDEL_clean_sbu_0--edge1-XIVTED_clean_linker_0
_symmetry_space_group_name_H-M    P1
_symmetry_Int_Tables_number       1
_symmetry_cell_setting            triclinic
loop_
_symmetry_equiv_pos_as_xyz
'x, y, z'
_cell_length_a     24.563072
_cell_length_b     24.536885
_cell_length_c     27.615192
_cell_angle_alpha  93.471182
_cell_angle_beta   89.84129
_cell_angle_gamma 94.815474
loop_
_atom_site_label
_atom_site_type_symbol
_atom_site_fract_x
_atom_site_fract_y
_atom_site_fract_z
_atom_type_partial_charge
Dy0 Dy 0.19362 0.03685 0.05557 0.0
C1 C 0.33453 0.90552 0.94153 0.0
C2 C 0.13299 0.10329 0.11299 0.0
Dy3 Dy 0.26193 0.9597 0.99844 0.0
O4 O 0.17526 0.11953 0.08769 0.0
O5 O 0.12111 0.0512 0.10299 0.0
O6 O 0.27257 0.06989 0.09262 0.0
O7 O 0.27304 0.04542 1.01927 0.0
C8 C 0.30237 0.06445 0.05429 0.0
C9 C 0.15834 0.92348 0.99741 0.0
O10 O 0.27255 0.9351 0.07876 0.0
O11 O 0.20051 0.97895 0.11339 0.0
O12 O 0.29451 0.88275 0.96602 0.0
O13 O 0.33832 0.9578 0.95329 0.0
O14 O 0.19013 0.91716 0.96043 0.0
O15 O 0.18331 0.94851 1.03323 0.0
O16 O 0.16188 0.05185 0.9817 0.0
O17 O 0.2304 0.01109 0.93879 0.0
C18 C 0.23917 0.94531 0.11674 0.0
C19 C 0.18724 0.04103 0.94017 0.0
Dy20 Dy 0.931 0.25797 0.58801 0.0
C21 C 0.10775 0.20582 0.46236 0.0
C22 C 0.84173 0.27524 0.64519 0.0
Dy23 Dy 0.02381 0.22073 0.5254 0.0
O24 O 0.88001 0.31237 0.63486 0.0
O25 O 0.85098 0.22937 0.62205 0.0
O26 O 0.9879 0.32661 0.61917 0.0
O27 O -0.00425 0.30152 0.54605 0.0
C28 C 0.01534 0.33453 0.57976 0.0
C29 C 0.93584 0.15006 0.53216 0.0
O30 O 0.05988 0.20931 0.59995 0.0
O31 O 0.9788 0.21473 0.6427 0.0
O32 O 0.07942 0.16724 0.48388 0.0
O33 O 0.09364 0.25307 0.47963 0.0
O34 O 0.9655 0.15219 0.49333 0.0
O35 O 0.95803 0.18035 0.56579 0.0
O36 O 0.8922 0.25212 0.51143 0.0
O37 O 0.97263 0.25115 0.46758 0.0
C38 C 0.0311 0.20361 0.64075 0.0
C39 C 0.91891 0.25187 0.46903 0.0
Dy40 Dy 0.79577 0.97929 0.06921 0.0
C41 C 0.76295 0.17104 0.96391 0.0
C42 C 0.80518 0.89134 0.12499 0.0
Dy43 Dy 0.7949 0.0872 1.01495 0.0
O44 O 0.75966 0.90783 0.11011 0.0
O45 O 0.84545 0.92101 0.10688 0.0
O46 O 0.71303 0.99367 0.09725 0.0
O47 O 0.73497 0.01912 1.02812 0.0
C48 C 0.6987 0.01953 0.06062 0.0
C49 C 0.89267 0.05218 1.03051 0.0
O50 O 0.79033 0.12066 0.09476 0.0
O51 O 0.81429 0.04268 0.13115 0.0
O52 O 0.80953 0.17119 0.98633 0.0
O53 O 0.73311 0.12612 0.97159 0.0
O54 O 0.88247 0.08011 0.9934 0.0
O55 O 0.85189 0.04976 0.05793 0.0
O56 O 0.81685 0.94705 0.99187 0.0
O57 O 0.80329 0.02513 0.95062 0.0
C58 C 0.8035 0.0951 0.13426 0.0
C59 C 0.81614 0.97321 0.95056 0.0
Dy60 Dy -0.00191 0.81003 0.51054 0.0
C61 C 0.19801 0.83594 0.62167 0.0
C62 C 0.90802 0.79743 0.45045 0.0
Dy63 Dy 0.10349 0.8383 0.5697 0.0
O64 O 0.93725 0.75865 0.46221 0.0
O65 O 0.92579 0.84238 0.47453 0.0
O66 O 0.03183 0.73206 0.48468 0.0
O67 O 0.04976 0.76309 0.5554 0.0
C68 C 0.05829 0.72518 0.52391 0.0
C69 C 0.04296 0.92122 0.55572 0.0
O70 O 0.13757 0.83716 0.49134 0.0
O71 O 0.05503 0.83904 0.45097 0.0
O72 O 0.18222 0.87865 0.60172 0.0
O73 O 0.16291 0.79411 0.61177 0.0
O74 O 0.07262 0.91907 0.59442 0.0
O75 O 0.05219 0.88234 0.52597 0.0
O76 O 0.96151 0.82546 0.58687 0.0
O77 O 0.04224 0.83191 0.63188 0.0
C78 C 0.10935 0.84134 0.45033 0.0
C79 C 0.98789 0.83209 0.62969 0.0
H80 H 0.92724 0.99843 0.10505 0.0
H81 H 0.0926 0.87278 0.92575 0.0
H82 H 0.93662 0.00442 0.94963 0.0
H83 H 0.11677 0.88065 0.08054 0.0
H84 H -0.0032 0.84176 0.93831 0.0
H85 H 0.96218 0.90796 0.09871 0.0
C86 C 0.93741 0.98069 0.06961 0.0
C87 C 0.92844 0.00789 1.02777 0.0
C88 C 0.02364 0.84828 0.96959 0.0
C89 C 0.96776 0.90486 1.01997 0.0
C90 C 0.07787 0.86739 0.96232 0.0
C91 C 0.10963 0.88668 1.0028 0.0
C92 C 0.00229 0.85839 1.01624 0.0
C93 C 0.09084 0.87341 0.04883 0.0
C94 C 0.95585 0.92865 0.06587 0.0
C95 C 0.9428 0.98436 0.98279 0.0
N96 N 0.03711 0.85802 0.05447 0.0
N97 N 0.96177 0.93409 0.9801 0.0
H98 H 0.98402 0.95436 0.63469 0.0
H99 H 0.87333 0.09153 0.46096 0.0
H100 H 0.98146 0.9385 0.47849 0.0
H101 H 0.87704 0.13003 0.61544 0.0
H102 H 0.82228 0.00427 0.47592 0.0
H103 H 0.89091 0.98239 0.63411 0.0
C104 C 0.96373 0.95697 0.60025 0.0
C105 C 0.99022 0.94479 0.55648 0.0
C106 C 0.83282 0.03282 0.5066 0.0
C107 C 0.88388 0.97686 0.55533 0.0
C108 C 0.8629 0.08216 0.49785 0.0
C109 C 0.8859 0.11425 0.5376 0.0
C110 C 0.8388 0.01369 0.55318 0.0
C111 C 0.86616 0.10295 0.58399 0.0
C112 C 0.91013 0.97162 0.59989 0.0
C113 C 0.96228 0.94805 0.51299 0.0
N114 N 0.84062 0.05268 0.59058 0.0
N115 N 0.91081 0.96387 0.51346 0.0
H116 H 0.63565 0.04876 0.13585 0.0
H117 H 0.36907 0.06391 0.97505 0.0
H118 H 0.63916 0.03856 0.97948 0.0
H119 H 0.37225 0.0794 0.13137 0.0
H120 H 0.46892 0.0644 0.97456 0.0
H121 H 0.54123 0.07127 0.13368 0.0
C122 C 0.6165 0.05189 0.10093 0.0
C123 C 0.64483 0.04122 0.05776 0.0
C124 C 0.44784 0.06817 1.00894 0.0
C125 C 0.5361 0.06616 0.05488 0.0
C126 C 0.39091 0.06755 1.00925 0.0
C127 C 0.36253 0.07046 0.05337 0.0
C128 C 0.47643 0.07182 0.05313 0.0
C129 C 0.39261 0.07656 0.0966 0.0
C130 C 0.56251 0.06473 0.0997 0.0
C131 C 0.61847 0.0464 1.01354 0.0
N132 N 0.44788 0.07651 0.0954 0.0
N133 N 0.56507 0.05774 1.01318 0.0
H134 H 0.0469 0.37731 0.49336 0.0
H135 H 0.07284 0.68278 0.61276 0.0
H136 H 0.04583 0.41645 0.64772 0.0
H137 H 0.07775 0.64208 0.45879 0.0
H138 H 0.07963 0.5858 0.62729 0.0
H139 H 0.07499 0.47357 0.48069 0.0
C140 C 0.05363 0.40595 0.52461 0.0
C141 C 0.04313 0.3891 0.57158 0.0
C142 C 0.08016 0.59825 0.59033 0.0
C143 C 0.07446 0.49945 0.55748 0.0
C144 C 0.07655 0.65364 0.5821 0.0
C145 C 0.07385 0.6702 0.53453 0.0
C146 C 0.08093 0.55939 0.55065 0.0
C147 C 0.07889 0.63083 0.49607 0.0
C148 C 0.06945 0.46099 0.51742 0.0
C149 C 0.05274 0.4279 0.61081 0.0
N150 N 0.0814 0.57726 0.50493 0.0
N151 N 0.067 0.48135 0.60287 0.0
H152 H 0.13922 0.28306 0.39805 0.0
H153 H 0.17083 0.20555 0.14924 0.0
H154 H 0.11668 0.10842 0.41175 0.0
H155 H 0.07036 0.06108 0.18549 0.0
H156 H 0.17345 0.23704 0.23499 0.0
H157 H 0.14215 0.2671 0.30982 0.0
C158 C 0.13693 0.24129 0.38257 0.0
C159 C 0.1277 0.19697 0.41227 0.0
C160 C 0.14953 0.19926 0.22412 0.0
C161 C 0.12984 0.17838 0.31142 0.0
C162 C 0.1477 0.18142 0.17505 0.0
C163 C 0.12034 0.13061 0.16025 0.0
C164 C 0.12402 0.16575 0.25848 0.0
C165 C 0.09181 0.10056 0.19526 0.0
C166 C 0.13815 0.2322 0.33209 0.0
C167 C 0.12397 0.14377 0.39026 0.0
N168 N 0.09524 0.11812 0.24283 0.0
N169 N 0.12407 0.13603 0.34116 0.0
H170 H 0.84896 0.35424 0.71934 0.0
H171 H 0.6828 0.15507 0.8952 0.0
H172 H 0.75905 0.20191 0.672 0.0
H173 H 0.82344 0.26385 0.9389 0.0
H174 H 0.6842 0.19553 0.81626 0.0
H175 H 0.81269 0.34397 0.80134 0.0
C176 C 0.82003 0.31964 0.72578 0.0
C177 C 0.80749 0.27841 0.6891 0.0
C178 C 0.71381 0.21151 0.84363 0.0
C179 C 0.76622 0.26645 0.78257 0.0
C180 C 0.71289 0.18872 0.88879 0.0
C181 C 0.75368 0.2056 0.92326 0.0
C182 C 0.75549 0.25176 0.83318 0.0
C183 C 0.79164 0.2493 0.91306 0.0
C184 C 0.79971 0.31365 0.77264 0.0
C185 C 0.77005 0.23435 0.69944 0.0
N186 N 0.79216 0.27039 0.86861 0.0
N187 N 0.75129 0.2291 0.74544 0.0
H188 H 0.9075 0.72088 0.37462 0.0
H189 H 0.89133 0.83551 0.15053 0.0
H190 H 0.84076 0.87262 0.42057 0.0
H191 H 0.73292 0.87889 0.19931 0.0
H192 H 0.90677 0.7995 0.23005 0.0
H193 H 0.87553 0.73112 0.29183 0.0
C194 C 0.88469 0.75551 0.36764 0.0
C195 C 0.87694 0.79615 0.40448 0.0
C196 C 0.86807 0.8156 0.22283 0.0
C197 C 0.84065 0.80803 0.30998 0.0
C198 C 0.85928 0.83607 0.17755 0.0
C199 C 0.81054 0.85948 0.16823 0.0
C200 C 0.82854 0.82025 0.25943 0.0
C201 C 0.77072 0.86036 0.20484 0.0
C202 C 0.86706 0.76154 0.32032 0.0
C203 C 0.84759 0.84043 0.3932 0.0
N204 N 0.78113 0.8423 0.2493 0.0
N205 N 0.83061 0.84531 0.34684 0.0
H206 H 0.27126 0.9221 0.6496 0.0
H207 H 0.31401 0.8007 0.90274 0.0
H208 H 0.2216 0.755 0.68015 0.0
H209 H 0.38035 0.96144 0.86674 0.0
H210 H 0.2995 0.77577 0.8165 0.0
H211 H 0.3283 0.93089 0.72259 0.0
C212 C 0.27334 0.88686 0.67113 0.0
C213 C 0.24114 0.83799 0.6592 0.0
C214 C 0.31864 0.81604 0.82723 0.0
C215 C 0.30561 0.84792 0.74335 0.0
C216 C 0.32751 0.83009 0.87658 0.0
C217 C 0.34736 0.8836 0.89206 0.0
C218 C 0.3291 0.85603 0.79325 0.0
C219 C 0.36425 0.91993 0.8565 0.0
C220 C 0.30588 0.89188 0.71289 0.0
C221 C 0.24546 0.79358 0.68828 0.0
N222 N 0.35334 0.90601 0.80885 0.0
N223 N 0.27623 0.79991 0.72947 0.0
H224 H 0.87248 0.87922 0.93456 0.0
H225 H 0.88322 0.86766 0.64288 0.0
H226 H 0.80529 0.00414 0.85562 0.0
H227 H 0.02154 0.8289 0.72581 0.0
H228 H 0.83988 0.90008 0.71882 0.0
H229 H 0.91264 0.84312 0.85846 0.0
C230 C 0.8655 0.899 0.90141 0.0
C231 C 0.83541 0.94573 0.90272 0.0
C232 C 0.87955 0.88408 0.72049 0.0
C233 C 0.88055 0.90246 0.8135 0.0
C234 C 0.90449 0.86522 0.67685 0.0
C235 C 0.95697 0.84556 0.67682 0.0
C236 C 0.90576 0.88167 0.76565 0.0
C237 C 0.98143 0.84365 0.72304 0.0
C238 C 0.88876 0.8782 0.85767 0.0
C239 C 0.82805 0.96842 0.85742 0.0
N240 N 0.95576 0.86081 0.76497 0.0
N241 N 0.84978 0.94656 0.81526 0.0
H242 H 0.18028 0.85008 0.13825 0.0
H243 H 0.21375 0.89075 0.43034 0.0
H244 H 0.28828 0.98012 0.20456 0.0
H245 H 0.06911 0.81454 0.3583 0.0
H246 H 0.2534 0.91046 0.35007 0.0
H247 H 0.15265 0.82202 0.21927 0.0
C248 C 0.20009 0.87141 0.16974 0.0
C249 C 0.23844 0.91651 0.16373 0.0
C250 C 0.21313 0.88907 0.35186 0.0
C251 C 0.20514 0.88531 0.25836 0.0
C252 C 0.19046 0.87749 0.39789 0.0
C253 C 0.13758 0.85079 0.40189 0.0
C254 C 0.18358 0.87278 0.30883 0.0
C255 C 0.10975 0.83532 0.35779 0.0
C256 C 0.1835 0.85586 0.21633 0.0
C257 C 0.26031 0.94385 0.20681 0.0
N258 N 0.13292 0.84613 0.3138 0.0
N259 N 0.24359 0.92795 0.25183 0.0
H260 H 0.98762 0.1946 0.73249 0.0
H261 H 0.23128 0.0399 0.84654 0.0
H262 H 0.1317 0.1596 0.65084 0.0
H263 H 0.09455 0.09526 0.92835 0.0
H264 H 0.19564 0.07941 0.77411 0.0
H265 H 0.02579 0.1554 0.80294 0.0
C266 C 0.02743 0.17887 0.72913 0.0
C267 C 0.05615 0.18102 0.6849 0.0
C268 C 0.17346 0.08293 0.80793 0.0
C269 C 0.10075 0.13473 0.76704 0.0
C270 C 0.19381 0.06017 0.84952 0.0
C271 C 0.16631 0.06396 0.8944 0.0
C272 C 0.12474 0.10967 0.81056 0.0
C273 C 0.11776 0.09106 0.89516 0.0
C274 C 0.04935 0.15627 0.76977 0.0
C275 C 0.10776 0.15942 0.6838 0.0
N276 N 0.09883 0.11245 0.85438 0.0
N277 N 0.12812 0.13722 0.72385 0.0
H278 H 0.78183 0.05451 0.22308 0.0
H279 H 0.94907 0.29237 0.38144 0.0
H280 H 0.843 0.20328 0.15913 0.0
H281 H 0.8258 0.18394 0.44518 0.0
H282 H 0.91483 0.25977 0.30037 0.0
H283 H 0.80151 0.09859 0.30395 0.0
C284 C 0.79894 0.09674 0.22593 0.0
C285 C 0.81031 0.12507 0.18366 0.0
C286 C 0.89449 0.24379 0.332 0.0
C287 C 0.83457 0.17592 0.27743 0.0
C288 C 0.91382 0.26271 0.37854 0.0
C289 C 0.88981 0.24185 0.4208 0.0
C290 C 0.85167 0.20203 0.32689 0.0
C291 C 0.84504 0.20229 0.4141 0.0
C292 C 0.81014 0.12196 0.27239 0.0
C293 C 0.83285 0.17977 0.19031 0.0
N294 N 0.82819 0.18313 0.36838 0.0
N295 N 0.84495 0.20296 0.23598 0.0
loop_
_geom_bond_atom_site_label_1
_geom_bond_atom_site_label_2
_geom_bond_distance
_geom_bond_site_symmetry_2
_ccdc_geom_bond_type
Dy0 O4 2.398 . S
Dy0 O5 2.491 . S
Dy0 O6 2.403 . S
Dy0 O7 2.664 1_554 S
Dy0 O11 2.326 . S
Dy0 O15 2.310 . S
Dy0 O16 2.351 1_554 S
C1 O12 1.185 . S
C1 O13 1.355 . S
C2 O4 1.185 . S
C2 O5 1.355 . S
Dy3 O7 2.310 1_565 S
Dy3 O10 2.351 1_556 S
Dy3 O12 2.398 . S
Dy3 O13 2.491 . S
Dy3 O14 2.403 . S
Dy3 O15 2.664 1_566 S
Dy3 O17 2.326 1_565 S
O4 Dy0 2.398 . S
O4 C2 1.185 . S
O5 Dy0 2.491 . S
O5 C2 1.355 . S
O6 Dy0 2.403 . S
O6 C8 1.254 . S
O7 Dy0 2.664 1_556 S
O7 Dy3 2.310 1_545 S
O7 C8 1.268 1_556 S
C8 O6 1.254 . S
C8 O7 1.268 1_554 S
C9 O14 1.254 1_544 S
C9 O15 1.268 . S
O10 Dy3 2.351 1_554 S
O10 C18 1.249 . S
O11 Dy0 2.326 . S
O11 C18 1.267 1_545 S
O12 C1 1.185 . S
O12 Dy3 2.398 . S
O13 C1 1.355 . S
O13 Dy3 2.491 . S
O14 Dy3 2.403 . S
O14 C9 1.254 1_566 S
O15 Dy0 2.310 . S
O15 Dy3 2.664 1_544 S
O15 C9 1.268 . S
O16 Dy0 2.351 1_556 S
O16 C19 1.249 . S
O17 Dy3 2.326 1_545 S
O17 C19 1.267 . S
C18 O10 1.249 . S
C18 O11 1.267 1_565 S
C19 O16 1.249 . S
C19 O17 1.267 . S
Dy20 O24 2.398 . S
Dy20 O25 2.491 . S
Dy20 O26 2.403 . S
Dy20 O27 2.664 1_655 S
Dy20 O31 2.326 1_655 S
Dy20 O35 2.310 1_655 S
Dy20 O36 2.351 . S
C21 O32 1.185 . S
C21 O33 1.355 . S
C22 O24 1.185 . S
C22 O25 1.355 . S
Dy23 O27 2.310 . S
Dy23 O30 2.351 . S
Dy23 O32 2.398 . S
Dy23 O33 2.491 . S
Dy23 O34 2.403 . S
Dy23 O35 2.664 . S
Dy23 O37 2.326 . S
O24 Dy20 2.398 . S
O24 C22 1.185 . S
O25 Dy20 2.491 . S
O25 C22 1.355 . S
O26 Dy20 2.403 . S
O26 C28 1.254 1_655 S
O27 Dy20 2.664 1_455 S
O27 Dy23 2.310 . S
O27 C28 1.268 . S
C28 O26 1.254 1_455 S
C28 O27 1.268 . S
C29 O34 1.254 . S
C29 O35 1.268 . S
O30 Dy23 2.351 . S
O30 C38 1.249 . S
O31 Dy20 2.326 1_455 S
O31 C38 1.267 . S
O32 C21 1.185 . S
O32 Dy23 2.398 . S
O33 C21 1.355 . S
O33 Dy23 2.491 . S
O34 Dy23 2.403 . S
O34 C29 1.254 . S
O35 Dy20 2.310 1_455 S
O35 Dy23 2.664 . S
O35 C29 1.268 . S
O36 Dy20 2.351 . S
O36 C39 1.249 . S
O37 Dy23 2.326 . S
O37 C39 1.267 1_455 S
C38 O30 1.249 . S
C38 O31 1.267 . S
C39 O36 1.249 . S
C39 O37 1.267 1_655 S
Dy40 O44 2.398 . S
Dy40 O45 2.491 . S
Dy40 O46 2.403 . S
Dy40 O47 2.664 1_564 S
Dy40 O51 2.326 1_565 S
Dy40 O55 2.310 . S
Dy40 O56 2.351 1_554 S
C41 O52 1.185 . S
C41 O53 1.355 . S
C42 O44 1.185 . S
C42 O45 1.355 . S
Dy43 O47 2.310 . S
Dy43 O50 2.351 1_556 S
Dy43 O52 2.398 . S
Dy43 O53 2.491 . S
Dy43 O54 2.403 . S
Dy43 O55 2.664 1_546 S
Dy43 O57 2.326 1_545 S
O44 Dy40 2.398 . S
O44 C42 1.185 . S
O45 Dy40 2.491 . S
O45 C42 1.355 . S
O46 Dy40 2.403 . S
O46 C48 1.254 . S
O47 Dy40 2.664 1_546 S
O47 Dy43 2.310 . S
O47 C48 1.268 1_546 S
C48 O46 1.254 . S
C48 O47 1.268 1_564 S
C49 O54 1.254 1_554 S
C49 O55 1.268 1_545 S
O50 Dy43 2.351 1_554 S
O50 C58 1.249 . S
O51 Dy40 2.326 1_545 S
O51 C58 1.267 . S
O52 C41 1.185 . S
O52 Dy43 2.398 . S
O53 C41 1.355 . S
O53 Dy43 2.491 . S
O54 Dy43 2.403 . S
O54 C49 1.254 1_556 S
O55 Dy40 2.310 . S
O55 Dy43 2.664 1_564 S
O55 C49 1.268 1_565 S
O56 Dy40 2.351 1_556 S
O56 C59 1.249 . S
O57 Dy43 2.326 1_565 S
O57 C59 1.267 . S
C58 O50 1.249 . S
C58 O51 1.267 . S
C59 O56 1.249 . S
C59 O57 1.267 . S
Dy60 O64 2.398 . S
Dy60 O65 2.491 . S
Dy60 O66 2.403 . S
Dy60 O67 2.664 1_655 S
Dy60 O71 2.326 1_655 S
Dy60 O75 2.310 1_655 S
Dy60 O76 2.351 . S
C61 O72 1.185 . S
C61 O73 1.355 . S
C62 O64 1.185 . S
C62 O65 1.355 . S
Dy63 O67 2.310 . S
Dy63 O70 2.351 . S
Dy63 O72 2.398 . S
Dy63 O73 2.491 . S
Dy63 O74 2.403 . S
Dy63 O75 2.664 . S
Dy63 O77 2.337 . S
O64 Dy60 2.398 . S
O64 C62 1.185 . S
O65 Dy60 2.491 . S
O65 C62 1.355 . S
O66 Dy60 2.403 . S
O66 C68 1.254 . S
O67 Dy60 2.664 1_455 S
O67 Dy63 2.310 . S
O67 C68 1.268 1_455 S
C68 O66 1.254 . S
C68 O67 1.268 1_655 S
C69 O74 1.254 . S
C69 O75 1.268 . S
O70 Dy63 2.351 . S
O70 C78 1.249 . S
O71 Dy60 2.326 1_455 S
O71 C78 1.267 . S
O72 C61 1.185 . S
O72 Dy63 2.398 . S
O73 C61 1.355 . S
O73 Dy63 2.491 . S
O74 Dy63 2.403 . S
O74 C69 1.254 . S
O75 Dy60 2.310 1_455 S
O75 Dy63 2.664 . S
O75 C69 1.268 . S
O76 Dy60 2.351 . S
O76 C79 1.249 . S
O77 Dy63 2.337 . S
O77 C79 1.255 1_455 S
C78 O70 1.249 . S
C78 O71 1.267 . S
C79 O76 1.249 . S
C79 O77 1.255 1_655 S
H80 C86 0.930 1_565 S
H81 C90 0.930 . S
H82 C95 0.929 . S
H83 C93 0.929 . S
H84 C88 0.929 . S
H85 C94 0.929 . S
C86 H80 0.930 1_545 S
C86 C87 1.367 1_545 S
C86 C94 1.378 . S
C87 C86 1.367 1_565 S
C87 C95 1.433 1_554 S
C88 H84 0.929 . S
C88 C90 1.378 . S
C88 C92 1.350 1_556 S
C89 C92 1.463 1_655 S
C89 C94 1.350 . S
C89 N97 1.427 1_554 S
C90 H81 0.930 . S
C90 C88 1.378 . S
C90 C91 1.367 1_556 S
C91 C90 1.367 1_554 S
C91 C93 1.433 . S
C92 C88 1.350 1_554 S
C92 C89 1.463 1_455 S
C92 N96 1.427 . S
C93 H83 0.929 . S
C93 C91 1.433 . S
C93 N96 1.384 . S
C94 H85 0.929 . S
C94 C86 1.378 . S
C94 C89 1.350 . S
C95 H82 0.929 . S
C95 C87 1.433 1_556 S
C95 N97 1.384 1_565 S
N96 C92 1.427 . S
N96 C93 1.384 . S
N97 C89 1.427 1_556 S
N97 C95 1.384 1_545 S
H98 C104 0.930 . S
H99 C108 0.930 . S
H100 C113 0.929 . S
H101 C111 0.929 . S
H102 C106 0.929 . S
H103 C112 0.929 . S
C104 H98 0.930 . S
C104 C105 1.367 . S
C104 C112 1.378 . S
C105 C104 1.367 . S
C105 C113 1.433 1_455 S
C106 H102 0.929 . S
C106 C108 1.378 . S
C106 C110 1.350 1_655 S
C107 C110 1.463 1_565 S
C107 C112 1.350 . S
C107 N115 1.427 1_455 S
C108 H99 0.930 . S
C108 C106 1.378 . S
C108 C109 1.367 1_655 S
C109 C108 1.367 1_455 S
C109 C111 1.433 . S
C110 C106 1.350 1_455 S
C110 C107 1.463 1_545 S
C110 N114 1.427 . S
C111 H101 0.929 . S
C111 C109 1.433 . S
C111 N114 1.384 . S
C112 H103 0.929 . S
C112 C104 1.378 . S
C112 C107 1.350 . S
C113 H100 0.929 . S
C113 C105 1.433 1_655 S
C113 N115 1.384 . S
N114 C110 1.427 . S
N114 C111 1.384 . S
N115 C107 1.427 1_655 S
N115 C113 1.384 . S
H116 C122 0.930 . S
H117 C126 0.930 . S
H118 C131 0.929 . S
H119 C129 0.929 . S
H120 C124 0.929 . S
H121 C130 0.929 . S
C122 H116 0.930 . S
C122 C123 1.367 . S
C122 C130 1.378 . S
C123 C122 1.367 . S
C123 C131 1.433 1_546 S
C124 H120 0.929 . S
C124 C126 1.378 . S
C124 C128 1.350 1_564 S
C125 C128 1.463 . S
C125 C130 1.350 . S
C125 N133 1.427 1_546 S
C126 H117 0.930 . S
C126 C124 1.378 . S
C126 C127 1.367 1_564 S
C127 C126 1.367 1_546 S
C127 C129 1.433 . S
C128 C124 1.350 1_546 S
C128 C125 1.463 . S
C128 N132 1.427 . S
C129 H119 0.929 . S
C129 C127 1.433 . S
C129 N132 1.384 . S
C130 H121 0.929 . S
C130 C122 1.378 . S
C130 C125 1.350 . S
C131 H118 0.929 . S
C131 C123 1.433 1_564 S
C131 N133 1.384 . S
N132 C128 1.427 . S
N132 C129 1.384 . S
N133 C125 1.427 1_564 S
N133 C131 1.384 . S
H134 C140 0.930 . S
H135 C144 0.930 . S
H136 C149 0.929 . S
H137 C147 0.929 . S
H138 C142 0.929 . S
H139 C148 0.929 . S
C140 H134 0.930 . S
C140 C141 1.367 1_655 S
C140 C148 1.378 . S
C141 C140 1.367 1_455 S
C141 C149 1.433 . S
C142 H138 0.929 . S
C142 C144 1.378 . S
C142 C146 1.350 . S
C143 C146 1.463 . S
C143 C148 1.350 1_455 S
C143 N151 1.427 . S
C144 H135 0.930 . S
C144 C142 1.378 . S
C144 C145 1.367 . S
C145 C144 1.367 . S
C145 C147 1.433 1_455 S
C146 C142 1.350 . S
C146 C143 1.463 . S
C146 N150 1.427 1_455 S
C147 H137 0.929 . S
C147 C145 1.433 1_655 S
C147 N150 1.384 . S
C148 H139 0.929 . S
C148 C140 1.378 . S
C148 C143 1.350 1_655 S
C149 H136 0.929 . S
C149 C141 1.433 . S
C149 N151 1.384 . S
N150 C146 1.427 1_655 S
N150 C147 1.384 . S
N151 C143 1.427 . S
N151 C149 1.384 . S
H152 C158 0.930 . S
H153 C162 0.930 . S
H154 C167 0.929 . S
H155 C165 0.929 . S
H156 C160 0.929 . S
H157 C166 0.929 . S
C158 H152 0.930 . S
C158 C159 1.367 . S
C158 C166 1.378 . S
C159 C158 1.367 . S
C159 C167 1.433 . S
C160 H156 0.929 . S
C160 C162 1.378 . S
C160 C164 1.350 . S
C161 C164 1.463 . S
C161 C166 1.350 . S
C161 N169 1.427 . S
C162 H153 0.930 . S
C162 C160 1.378 . S
C162 C163 1.367 . S
C163 C162 1.367 . S
C163 C165 1.433 . S
C164 C160 1.350 . S
C164 C161 1.463 . S
C164 N168 1.427 . S
C165 H155 0.929 . S
C165 C163 1.433 . S
C165 N168 1.384 . S
C166 H157 0.929 . S
C166 C158 1.378 . S
C166 C161 1.350 . S
C167 H154 0.929 . S
C167 C159 1.433 . S
C167 N169 1.384 . S
N168 C164 1.427 . S
N168 C165 1.384 . S
N169 C161 1.427 . S
N169 C167 1.384 . S
H170 C176 0.930 . S
H171 C180 0.930 . S
H172 C185 0.929 . S
H173 C183 0.929 . S
H174 C178 0.929 . S
H175 C184 0.929 . S
C176 H170 0.930 . S
C176 C177 1.367 . S
C176 C184 1.378 . S
C177 C176 1.367 . S
C177 C185 1.433 . S
C178 H174 0.929 . S
C178 C180 1.378 . S
C178 C182 1.350 . S
C179 C182 1.463 . S
C179 C184 1.350 . S
C179 N187 1.427 . S
C180 H171 0.930 . S
C180 C178 1.378 . S
C180 C181 1.367 . S
C181 C180 1.367 . S
C181 C183 1.433 . S
C182 C178 1.350 . S
C182 C179 1.463 . S
C182 N186 1.427 . S
C183 H173 0.929 . S
C183 C181 1.433 . S
C183 N186 1.384 . S
C184 H175 0.929 . S
C184 C176 1.378 . S
C184 C179 1.350 . S
C185 H172 0.929 . S
C185 C177 1.433 . S
C185 N187 1.384 . S
N186 C182 1.427 . S
N186 C183 1.384 . S
N187 C179 1.427 . S
N187 C185 1.384 . S
H188 C194 0.930 . S
H189 C198 0.930 . S
H190 C203 0.929 . S
H191 C201 0.929 . S
H192 C196 0.929 . S
H193 C202 0.929 . S
C194 H188 0.930 . S
C194 C195 1.367 . S
C194 C202 1.378 . S
C195 C194 1.367 . S
C195 C203 1.433 . S
C196 H192 0.929 . S
C196 C198 1.378 . S
C196 C200 1.350 . S
C197 C200 1.463 . S
C197 C202 1.350 . S
C197 N205 1.427 . S
C198 H189 0.930 . S
C198 C196 1.378 . S
C198 C199 1.367 . S
C199 C198 1.367 . S
C199 C201 1.433 . S
C200 C196 1.350 . S
C200 C197 1.463 . S
C200 N204 1.427 . S
C201 H191 0.929 . S
C201 C199 1.433 . S
C201 N204 1.384 . S
C202 H193 0.929 . S
C202 C194 1.378 . S
C202 C197 1.350 . S
C203 H190 0.929 . S
C203 C195 1.433 . S
C203 N205 1.384 . S
N204 C200 1.427 . S
N204 C201 1.384 . S
N205 C197 1.427 . S
N205 C203 1.384 . S
H206 C212 0.930 . S
H207 C216 0.930 . S
H208 C221 0.929 . S
H209 C219 0.929 1_545 S
H210 C214 0.929 . S
H211 C220 0.929 . S
C212 H206 0.930 . S
C212 C213 1.367 . S
C212 C220 1.378 . S
C213 C212 1.367 . S
C213 C221 1.433 . S
C214 H210 0.929 . S
C214 C216 1.378 . S
C214 C218 1.350 . S
C215 C218 1.463 . S
C215 C220 1.350 . S
C215 N223 1.427 . S
C216 H207 0.930 . S
C216 C214 1.378 . S
C216 C217 1.367 . S
C217 C216 1.367 . S
C217 C219 1.433 . S
C218 C214 1.350 . S
C218 C215 1.463 . S
C218 N222 1.427 . S
C219 H209 0.929 1_565 S
C219 C217 1.433 . S
C219 N222 1.384 . S
C220 H211 0.929 . S
C220 C212 1.378 . S
C220 C215 1.350 . S
C221 H208 0.929 . S
C221 C213 1.433 . S
C221 N223 1.384 . S
N222 C218 1.427 . S
N222 C219 1.384 . S
N223 C215 1.427 . S
N223 C221 1.384 . S
H224 C230 0.930 . S
H225 C234 0.930 . S
H226 C239 0.929 . S
H227 C237 0.929 . S
H228 C232 0.929 . S
H229 C238 0.929 . S
C230 H224 0.930 . S
C230 C231 1.367 . S
C230 C238 1.378 . S
C231 C230 1.367 . S
C231 C239 1.433 . S
C232 H228 0.929 . S
C232 C234 1.378 . S
C232 C236 1.350 . S
C233 C236 1.463 . S
C233 C238 1.350 . S
C233 N241 1.427 . S
C234 H225 0.930 . S
C234 C232 1.378 . S
C234 C235 1.367 . S
C235 C234 1.367 . S
C235 C237 1.433 . S
C236 C232 1.350 . S
C236 C233 1.463 . S
C236 N240 1.427 . S
C237 H227 0.929 . S
C237 C235 1.433 . S
C237 N240 1.384 . S
C238 H229 0.929 . S
C238 C230 1.378 . S
C238 C233 1.350 . S
C239 H226 0.929 . S
C239 C231 1.433 . S
C239 N241 1.384 . S
N240 C236 1.427 . S
N240 C237 1.384 . S
N241 C233 1.427 . S
N241 C239 1.384 . S
H242 C248 0.930 . S
H243 C252 0.930 . S
H244 C257 0.929 . S
H245 C255 0.929 . S
H246 C250 0.929 . S
H247 C256 0.929 . S
C248 H242 0.930 . S
C248 C249 1.367 . S
C248 C256 1.378 . S
C249 C248 1.367 . S
C249 C257 1.433 . S
C250 H246 0.929 . S
C250 C252 1.378 . S
C250 C254 1.350 . S
C251 C254 1.463 . S
C251 C256 1.350 . S
C251 N259 1.427 . S
C252 H243 0.930 . S
C252 C250 1.378 . S
C252 C253 1.367 . S
C253 C252 1.367 . S
C253 C255 1.433 . S
C254 C250 1.350 . S
C254 C251 1.463 . S
C254 N258 1.427 . S
C255 H245 0.929 . S
C255 C253 1.433 . S
C255 N258 1.384 . S
C256 H247 0.929 . S
C256 C248 1.378 . S
C256 C251 1.350 . S
C257 H244 0.929 . S
C257 C249 1.433 . S
C257 N259 1.384 . S
N258 C254 1.427 . S
N258 C255 1.384 . S
N259 C251 1.427 . S
N259 C257 1.384 . S
H260 C266 0.930 . S
H261 C270 0.930 . S
H262 C275 0.929 . S
H263 C273 0.929 . S
H264 C268 0.929 . S
H265 C274 0.929 . S
C266 H260 0.930 . S
C266 C267 1.367 . S
C266 C274 1.378 . S
C267 C266 1.367 . S
C267 C275 1.433 . S
C268 H264 0.929 . S
C268 C270 1.378 . S
C268 C272 1.350 . S
C269 C272 1.463 . S
C269 C274 1.350 . S
C269 N277 1.427 . S
C270 H261 0.930 . S
C270 C268 1.378 . S
C270 C271 1.367 . S
C271 C270 1.367 . S
C271 C273 1.433 . S
C272 C268 1.350 . S
C272 C269 1.463 . S
C272 N276 1.427 . S
C273 H263 0.929 . S
C273 C271 1.433 . S
C273 N276 1.384 . S
C274 H265 0.929 . S
C274 C266 1.378 . S
C274 C269 1.350 . S
C275 H262 0.929 . S
C275 C267 1.433 . S
C275 N277 1.384 . S
N276 C272 1.427 . S
N276 C273 1.384 . S
N277 C269 1.427 . S
N277 C275 1.384 . S
H278 C284 0.930 . S
H279 C288 0.930 . S
H280 C293 0.929 . S
H281 C291 0.929 . S
H282 C286 0.929 . S
H283 C292 0.929 . S
C284 H278 0.930 . S
C284 C285 1.367 . S
C284 C292 1.378 . S
C285 C284 1.367 . S
C285 C293 1.433 . S
C286 H282 0.929 . S
C286 C288 1.378 . S
C286 C290 1.350 . S
C287 C290 1.463 . S
C287 C292 1.350 . S
C287 N295 1.427 . S
C288 H279 0.930 . S
C288 C286 1.378 . S
C288 C289 1.367 . S
C289 C288 1.367 . S
C289 C291 1.433 . S
C290 C286 1.350 . S
C290 C287 1.463 . S
C290 N294 1.427 . S
C291 H281 0.929 . S
C291 C289 1.433 . S
C291 N294 1.384 . S
C292 H283 0.929 . S
C292 C284 1.378 . S
C292 C287 1.350 . S
C293 H280 0.929 . S
C293 C285 1.433 . S
C293 N295 1.384 . S
N294 C290 1.427 . S
N294 C291 1.384 . S
N295 C287 1.427 . S
N295 C293 1.384 . S
C87 C49 0.862 1_565 S
C91 C9 0.851 . S
C105 C69 0.816 . S
C109 C29 0.800 . S
C123 C48 1.035 1_546 S
C127 C8 1.032 1_556 S
C141 C28 0.987 . S
C145 C68 1.005 1_455 S
C159 C21 0.754 . S
C163 C2 0.758 . S
C177 C22 0.863 . S
C181 C41 0.856 . S
C195 C62 0.825 . S
C199 C42 0.821 . S
C213 C61 0.765 . S
C217 C1 0.773 . S
C231 C59 2.317 . S
C235 C79 2.330 . S
C249 C18 2.494 . S
C253 C78 2.492 . S
C267 C38 2.522 . S
C271 C19 2.435 . S
C285 C58 2.379 . S
C289 C39 2.307 . S
