# Generated by pormake.
# Topology fng, (5)-cn, num edge types: 1
# Building blocks:
#     Node 0, Type 0, BuildingBlock: XOMCOT_clean_sbu_1, # of connection points: 5
#     Node 1, Type 0, BuildingBlock: XOMCOT_clean_sbu_1, # of connection points: 5
#     Node 2, Type 0, BuildingBlock: XOMCOT_clean_sbu_1, # of connection points: 5
#     Node 3, Type 0, BuildingBlock: XOMCOT_clean_sbu_1, # of connection points: 5
#     Node 4, Type 0, BuildingBlock: XOMCOT_clean_sbu_1, # of connection points: 5
#     Node 5, Type 0, BuildingBlock: XOMCOT_clean_sbu_1, # of connection points: 5
#     Node 6, Type 0, BuildingBlock: XOMCOT_clean_sbu_1, # of connection points: 5
#     Node 7, Type 0, BuildingBlock: XOMCOT_clean_sbu_1, # of connection points: 5
#     Node 8, Type 0, BuildingBlock: XOMCOT_clean_sbu_1, # of connection points: 5
#     Node 9, Type 0, BuildingBlock: XOMCOT_clean_sbu_1, # of connection points: 5
#     Node 10, Type 0, BuildingBlock: XOMCOT_clean_sbu_1, # of connection points: 5
#     Node 11, Type 0, BuildingBlock: XOMCOT_clean_sbu_1, # of connection points: 5
#     Node 12, Type 0, BuildingBlock: XOMCOT_clean_sbu_1, # of connection points: 5
#     Node 13, Type 0, BuildingBlock: XOMCOT_clean_sbu_1, # of connection points: 5
#     Node 14, Type 0, BuildingBlock: XOMCOT_clean_sbu_1, # of connection points: 5
#     Node 15, Type 0, BuildingBlock: XOMCOT_clean_sbu_1, # of connection points: 5
#     Node 16, Type 0, BuildingBlock: XOMCOT_clean_sbu_1, # of connection points: 5
#     Node 17, Type 0, BuildingBlock: XOMCOT_clean_sbu_1, # of connection points: 5
#     Edge 18, Type (0, 0), BuildingBlock: UVAHIK_clean_linker_0, # of connection points: 2
#     Edge 19, Type (0, 0), BuildingBlock: UVAHIK_clean_linker_0, # of connection points: 2
#     Edge 20, Type (0, 0), BuildingBlock: UVAHIK_clean_linker_0, # of connection points: 2
#     Edge 21, Type (0, 0), BuildingBlock: UVAHIK_clean_linker_0, # of connection points: 2
#     Edge 22, Type (0, 0), BuildingBlock: UVAHIK_clean_linker_0, # of connection points: 2
#     Edge 23, Type (0, 0), BuildingBlock: UVAHIK_clean_linker_0, # of connection points: 2
#     Edge 24, Type (0, 0), BuildingBlock: UVAHIK_clean_linker_0, # of connection points: 2
#     Edge 25, Type (0, 0), BuildingBlock: UVAHIK_clean_linker_0, # of connection points: 2
#     Edge 26, Type (0, 0), BuildingBlock: UVAHIK_clean_linker_0, # of connection points: 2
#     Edge 27, Type (0, 0), BuildingBlock: UVAHIK_clean_linker_0, # of connection points: 2
#     Edge 28, Type (0, 0), BuildingBlock: UVAHIK_clean_linker_0, # of connection points: 2
#     Edge 29, Type (0, 0), BuildingBlock: UVAHIK_clean_linker_0, # of connection points: 2
#     Edge 30, Type (0, 0), BuildingBlock: UVAHIK_clean_linker_0, # of connection points: 2
#     Edge 31, Type (0, 0), BuildingBlock: UVAHIK_clean_linker_0, # of connection points: 2
#     Edge 32, Type (0, 0), BuildingBlock: UVAHIK_clean_linker_0, # of connection points: 2
#     Edge 33, Type (0, 0), BuildingBlock: UVAHIK_clean_linker_0, # of connection points: 2
#     Edge 34, Type (0, 0), BuildingBlock: UVAHIK_clean_linker_0, # of connection points: 2
#     Edge 35, Type (0, 0), BuildingBlock: UVAHIK_clean_linker_0, # of connection points: 2
#     Edge 36, Type (0, 0), BuildingBlock: UVAHIK_clean_linker_0, # of connection points: 2
#     Edge 37, Type (0, 0), BuildingBlock: UVAHIK_clean_linker_0, # of connection points: 2
#     Edge 38, Type (0, 0), BuildingBlock: UVAHIK_clean_linker_0, # of connection points: 2
#     Edge 39, Type (0, 0), BuildingBlock: UVAHIK_clean_linker_0, # of connection points: 2
#     Edge 40, Type (0, 0), BuildingBlock: UVAHIK_clean_linker_0, # of connection points: 2
#     Edge 41, Type (0, 0), BuildingBlock: UVAHIK_clean_linker_0, # of connection points: 2
#     Edge 42, Type (0, 0), BuildingBlock: UVAHIK_clean_linker_0, # of connection points: 2
#     Edge 43, Type (0, 0), BuildingBlock: UVAHIK_clean_linker_0, # of connection points: 2
#     Edge 44, Type (0, 0), BuildingBlock: UVAHIK_clean_linker_0, # of connection points: 2
#     Edge 45, Type (0, 0), BuildingBlock: UVAHIK_clean_linker_0, # of connection points: 2
#     Edge 46, Type (0, 0), BuildingBlock: UVAHIK_clean_linker_0, # of connection points: 2
#     Edge 47, Type (0, 0), BuildingBlock: UVAHIK_clean_linker_0, # of connection points: 2
#     Edge 48, Type (0, 0), BuildingBlock: UVAHIK_clean_linker_0, # of connection points: 2
#     Edge 49, Type (0, 0), BuildingBlock: UVAHIK_clean_linker_0, # of connection points: 2
#     Edge 50, Type (0, 0), BuildingBlock: UVAHIK_clean_linker_0, # of connection points: 2
#     Edge 51, Type (0, 0), BuildingBlock: UVAHIK_clean_linker_0, # of connection points: 2
#     Edge 52, Type (0, 0), BuildingBlock: UVAHIK_clean_linker_0, # of connection points: 2
#     Edge 53, Type (0, 0), BuildingBlock: UVAHIK_clean_linker_0, # of connection points: 2
#     Edge 54, Type (0, 0), BuildingBlock: UVAHIK_clean_linker_0, # of connection points: 2
#     Edge 55, Type (0, 0), BuildingBlock: UVAHIK_clean_linker_0, # of connection points: 2
#     Edge 56, Type (0, 0), BuildingBlock: UVAHIK_clean_linker_0, # of connection points: 2
#     Edge 57, Type (0, 0), BuildingBlock: UVAHIK_clean_linker_0, # of connection points: 2
#     Edge 58, Type (0, 0), BuildingBlock: UVAHIK_clean_linker_0, # of connection points: 2
#     Edge 59, Type (0, 0), BuildingBlock: UVAHIK_clean_linker_0, # of connection points: 2
#     Edge 60, Type (0, 0), BuildingBlock: UVAHIK_clean_linker_0, # of connection points: 2
#     Edge 61, Type (0, 0), BuildingBlock: UVAHIK_clean_linker_0, # of connection points: 2
#     Edge 62, Type (0, 0), BuildingBlock: UVAHIK_clean_linker_0, # of connection points: 2
# Relax obj value: 0.116
# Max RMSD: 0.142
# Mean RMSD: 0.142
data_MOF--net-fng--node1-XOMCOT_clean_sbu_1--edge1-UVAHIK_clean_linker_0
_symmetry_space_group_name_H-M    P1
_symmetry_Int_Tables_number       1
_symmetry_cell_setting            triclinic
loop_
_symmetry_equiv_pos_as_xyz
'x, y, z'
_cell_length_a     101.77614
_cell_length_b     101.89167
_cell_length_c     21.524672
_cell_angle_alpha  90.039272
_cell_angle_beta   89.958564
_cell_angle_gamma 120.03712
loop_
_atom_site_label
_atom_site_type_symbol
_atom_site_fract_x
_atom_site_fract_y
_atom_site_fract_z
_atom_type_partial_charge
C0 C 0.12988 0.25735 0.08001 0.0
C1 C 0.13055 0.26137 0.01851 0.0
N2 N 0.13957 0.2573 0.98838 0.0
N3 N 0.13842 0.25078 0.08822 0.0
C4 C 0.1444 0.25119 0.03191 0.0
H5 H 0.12304 0.25844 0.11587 0.0
Co6 Co 0.13962 0.24168 0.16068 0.0
C7 C 0.14503 0.21748 0.1125 0.0
O8 O 0.13323 0.20753 0.14459 0.0
N9 N 0.14129 0.23325 0.23596 0.0
C10 C 0.15253 0.22803 0.31324 0.0
C11 C 0.15124 0.22853 0.25004 0.0
C12 C 0.13707 0.23592 0.292 0.0
N13 N 0.1437 0.23281 0.33945 0.0
O14 O 0.15917 0.25905 0.17773 0.0
H15 H 0.15866 0.22733 0.21762 0.0
H16 H 0.13084 0.24186 0.29804 0.0
O17 O 0.14909 0.23157 0.11539 0.0
C18 C 0.15731 0.26847 0.2102 0.0
O19 O 0.14338 0.26539 0.22194 0.0
N20 N 0.11954 0.22532 0.14536 0.0
C21 C 0.08861 0.206 0.11925 0.0
C22 C 0.09977 0.20845 0.07515 0.0
C23 C 0.11511 0.21831 0.0887 0.0
C24 C 0.10878 0.22302 0.18857 0.0
C25 C 0.09336 0.21326 0.17697 0.0
H26 H 0.12336 0.22073 0.05247 0.0
H27 H 0.11191 0.22939 0.23111 0.0
H28 H 0.15168 0.24654 0.02221 0.0
H29 H 0.12417 0.26604 -0.00301 0.0
H30 H 0.16038 0.22565 0.33785 0.0
H31 H 0.09666 0.20344 0.02931 0.0
H32 H 0.08519 0.21183 0.21245 0.0
C33 C 0.76076 0.87975 0.06697 0.0
C34 C 0.75688 0.87858 0.00533 0.0
N35 N 0.76346 0.89264 0.98097 0.0
N36 N 0.76967 0.89448 0.08175 0.0
C37 C 0.77109 0.90209 0.02847 0.0
H38 H 0.75768 0.87042 0.09858 0.0
Co39 Co 0.77857 0.90113 0.1591 0.0
C40 C 0.80297 0.93296 0.13689 0.0
O41 O 0.81265 0.93028 0.16643 0.0
N42 N 0.78743 0.9076 0.23974 0.0
C43 C 0.80179 0.91288 0.32471 0.0
C44 C 0.8004 0.90895 0.26315 0.0
C45 C 0.78131 0.91101 0.28884 0.0
N46 N 0.7897 0.91409 0.34107 0.0
O47 O 0.7614 0.90306 0.18381 0.0
H48 H 0.80857 0.90723 0.23779 0.0
H49 H 0.77079 0.91114 0.28701 0.0
O50 O 0.7892 0.92235 0.13027 0.0
C51 C 0.75055 0.89044 0.20328 0.0
O52 O 0.75269 0.87877 0.20644 0.0
N53 N 0.7941 0.89736 0.1336 0.0
C54 C 0.81329 0.88653 0.09656 0.0
C55 C 0.81353 0.89877 0.06555 0.0
C56 C 0.80368 0.90391 0.08431 0.0
C57 C 0.79309 0.88487 0.16147 0.0
C58 C 0.80283 0.87952 0.14487 0.0
H59 H 0.8035 0.91284 0.05804 0.0
H60 H 0.78469 0.87909 0.19736 0.0
H61 H 0.77817 0.91424 0.02373 0.0
H62 H 0.74996 0.86812 0.98028 0.0
H63 H 0.81076 0.91413 0.35546 0.0
H64 H 0.82116 0.90424 0.02689 0.0
H65 H 0.80187 0.86969 0.16852 0.0
C66 C 0.14137 0.8884 0.0516 0.0
C67 C 0.14328 0.88574 0.99063 0.0
N68 N 0.12949 0.87648 0.96567 0.0
N69 N 0.12648 0.88078 0.06558 0.0
C70 C 0.11953 0.87354 0.01256 0.0
H71 H 0.15025 0.89576 0.08339 0.0
Co72 Co 0.11854 0.88187 0.14212 0.0
C73 C 0.08778 0.87585 0.09798 0.0
O74 O 0.09077 0.88952 0.11334 0.0
N75 N 0.11074 0.88291 0.22109 0.0
C76 C 0.10061 0.88857 0.3013 0.0
C77 C 0.10389 0.89074 0.2391 0.0
C78 C 0.11171 0.87632 0.2742 0.0
N79 N 0.10559 0.8795 0.32369 0.0
O80 O 0.11592 0.86226 0.16313 0.0
H81 H 0.10218 0.89842 0.21056 0.0
H82 H 0.11738 0.8698 0.27723 0.0
O83 O 0.09767 0.87177 0.10707 0.0
C84 C 0.12856 0.86328 0.17774 0.0
O85 O 0.14075 0.87678 0.17977 0.0
N86 N 0.12288 0.90176 0.12158 0.0
C87 C 0.13428 0.93239 0.09246 0.0
C88 C 0.1251 0.92094 0.05015 0.0
C89 C 0.11975 0.90572 0.06513 0.0
C90 C 0.13231 0.91278 0.16203 0.0
C91 C 0.13788 0.9281 0.14901 0.0
H92 H 0.11317 0.89713 0.031 0.0
H93 H 0.13581 0.90969 0.2044 0.0
H94 H 0.10735 0.86684 0.00775 0.0
H95 H 0.15404 0.89058 0.96662 0.0
H96 H 0.09529 0.89365 0.32789 0.0
H97 H 0.12216 0.92368 0.0056 0.0
H98 H 0.14539 0.93653 0.18213 0.0
C99 C 0.27111 0.14806 0.92991 0.0
C100 C 0.27401 0.15155 0.99192 0.0
N101 N 0.2615 0.1505 0.01821 0.0
N102 N 0.25687 0.14489 0.91715 0.0
C103 C 0.2513 0.14651 0.97173 0.0
H104 H 0.27875 0.14743 0.89668 0.0
Co105 Co 0.24708 0.13797 0.84189 0.0
C106 C 0.22309 0.14681 0.83752 0.0
O107 O 0.21478 0.13553 0.79972 0.0
N108 N 0.23748 0.13084 0.76436 0.0
C109 C 0.22659 0.1165 0.68117 0.0
C110 C 0.22971 0.11643 0.74321 0.0
C111 C 0.23884 0.13941 0.71413 0.0
N112 N 0.23247 0.131 0.66272 0.0
O113 O 0.26308 0.15579 0.80204 0.0
H114 H 0.22702 0.10642 0.76981 0.0
H115 H 0.24478 0.15166 0.71498 0.0
O116 O 0.23574 0.14865 0.85755 0.0
C117 C 0.27202 0.15276 0.77176 0.0
O118 O 0.26924 0.13869 0.77157 0.0
N119 N 0.2326 0.11996 0.8813 0.0
C120 C 0.21475 0.091 0.9319 0.0
C121 C 0.2096 0.10148 0.93149 0.0
C122 C 0.21879 0.11601 0.90666 0.0
C123 C 0.23802 0.11016 0.88393 0.0
C124 C 0.22928 0.09563 0.90845 0.0
H125 H 0.21473 0.12392 0.9088 0.0
H126 H 0.24911 0.11356 0.86486 0.0
H127 H 0.23973 0.14406 0.97784 0.0
H128 H 0.28444 0.15435 0.01591 0.0
H129 H 0.22126 0.10665 0.65125 0.0
H130 H 0.19862 0.09853 0.95073 0.0
H131 H 0.23375 0.08797 0.9074 0.0
C132 C 0.87317 0.12833 0.95452 0.0
C133 C 0.86974 0.12749 0.01662 0.0
N134 N 0.87046 0.11572 0.04136 0.0
N135 N 0.87594 0.11707 0.93993 0.0
C136 C 0.87421 0.10957 0.99377 0.0
H137 H 0.874 0.13689 0.92263 0.0
Co138 Co 0.88243 0.11418 0.86335 0.0
C139 C 0.87333 0.08124 0.85889 0.0
O140 O 0.88421 0.08387 0.81931 0.0
N141 N 0.88909 0.11169 0.78502 0.0
C142 C 0.90307 0.11466 0.70114 0.0
C143 C 0.90342 0.11813 0.76299 0.0
C144 C 0.88027 0.10438 0.73543 0.0
N145 N 0.88847 0.10606 0.68366 0.0
O146 O 0.86432 0.11218 0.82575 0.0
H147 H 0.91357 0.12542 0.78899 0.0
H148 H 0.868 0.09813 0.73715 0.0
O149 O 0.87187 0.09224 0.87932 0.0
C150 C 0.86672 0.12466 0.80212 0.0
O151 O 0.88055 0.13639 0.80428 0.0
N152 N 0.90072 0.11783 0.9007 0.0
C153 C 0.92994 0.1292 0.9493 0.0
C154 C 0.91966 0.11352 0.94772 0.0
C155 C 0.90499 0.10804 0.92394 0.0
C156 C 0.91038 0.13308 0.90402 0.0
C157 C 0.92502 0.13899 0.92767 0.0
H158 H 0.89725 0.09603 0.92513 0.0
H159 H 0.90676 0.1407 0.88645 0.0
H160 H 0.87635 0.10023 -0.0015 0.0
H161 H 0.86716 0.13513 0.0417 0.0
H162 H 0.91283 0.1189 0.67075 0.0
H163 H 0.92287 0.10556 0.96536 0.0
H164 H 0.93253 0.15116 0.92752 0.0
C165 C 0.88993 0.74845 0.94419 0.0
C166 C 0.89138 0.74638 0.00653 0.0
N167 N 0.90368 0.75893 0.02827 0.0
N168 N 0.90131 0.76218 0.92697 0.0
C169 C 0.9095 0.76824 0.97895 0.0
H170 H 0.88089 0.74067 0.91391 0.0
Co171 Co 0.90413 0.7714 0.85066 0.0
C172 C 0.93697 0.7954 0.84605 0.0
O173 O 0.93399 0.80379 0.80885 0.0
N174 N 0.90681 0.78066 0.77202 0.0
C175 C 0.90627 0.79382 0.69036 0.0
C176 C 0.90236 0.79042 0.7517 0.0
C177 C 0.9134 0.77839 0.72172 0.0
N178 N 0.91313 0.78616 0.67166 0.0
O179 O 0.90588 0.75515 0.8135 0.0
H180 H 0.8965 0.79481 0.77875 0.0
H181 H 0.91834 0.77114 0.72144 0.0
O182 O 0.92615 0.78272 0.86569 0.0
C183 C 0.89375 0.74581 0.7852 0.0
O184 O 0.88233 0.7484 0.78512 0.0
N185 N 0.90065 0.78613 0.88779 0.0
C186 C 0.8899 0.80502 0.92874 0.0
C187 C 0.90522 0.80927 0.93664 0.0
C188 C 0.91041 0.79959 0.91591 0.0
C189 C 0.88555 0.78136 0.88471 0.0
C190 C 0.87997 0.79071 0.90382 0.0
H191 H 0.92219 0.80303 0.92255 0.0
H192 H 0.87789 0.77044 0.86426 0.0
H193 H 0.91937 0.77947 0.98086 0.0
H194 H 0.88357 0.73673 0.0342 0.0
H195 H 0.9037 0.80088 0.66107 0.0
H196 H 0.91317 0.82012 0.95696 0.0
H197 H 0.868 0.78685 0.89837 0.0
C198 C 0.79707 0.58877 0.39617 0.0
C199 C 0.79804 0.59303 0.33495 0.0
N200 N 0.80844 0.59057 0.30669 0.0
N201 N 0.80677 0.58361 0.40617 0.0
C202 C 0.81379 0.5852 0.35131 0.0
H203 H 0.78913 0.58851 0.43024 0.0
Co204 Co 0.80782 0.57434 0.47855 0.0
C205 C 0.81474 0.55136 0.42685 0.0
O206 O 0.80253 0.54058 0.45412 0.0
N207 N 0.80921 0.56584 0.55343 0.0
C208 C 0.81744 0.55807 0.6333 0.0
C209 C 0.81742 0.55927 0.56983 0.0
C210 C 0.80494 0.56905 0.60807 0.0
N211 N 0.80964 0.56432 0.65732 0.0
O212 O 0.82685 0.5921 0.49798 0.0
H213 H 0.82427 0.55679 0.53918 0.0
H214 H 0.79914 0.57547 0.61149 0.0
O215 O 0.81841 0.56527 0.43416 0.0
C216 C 0.8247 0.60248 0.52018 0.0
O217 O 0.81069 0.59964 0.52726 0.0
N218 N 0.7882 0.55742 0.46016 0.0
C219 C 0.75794 0.53714 0.42816 0.0
C220 C 0.76955 0.5415 0.38432 0.0
C221 C 0.78456 0.55163 0.40114 0.0
C222 C 0.77693 0.55317 0.50332 0.0
C223 C 0.7618 0.54283 0.48867 0.0
H224 H 0.79319 0.55521 0.36572 0.0
H225 H 0.77935 0.55837 0.54849 0.0
H226 H 0.82202 0.58164 0.34316 0.0
H227 H 0.7908 0.59648 0.31201 0.0
H228 H 0.82377 0.55405 0.65974 0.0
H229 H 0.76701 0.53742 0.33691 0.0
H230 H 0.75308 0.54001 0.52343 0.0
C231 C 0.43219 0.20866 0.4004 0.0
C232 C 0.42799 0.20523 0.33913 0.0
N233 N 0.4305 0.21802 0.31046 0.0
N234 N 0.43729 0.22352 0.40991 0.0
C235 C 0.43595 0.22888 0.35453 0.0
H236 H 0.43198 0.20095 0.43543 0.0
Co237 Co 0.44498 0.2338 0.48381 0.0
C238 C 0.46892 0.264 0.43862 0.0
O239 O 0.47893 0.26274 0.47278 0.0
N240 N 0.45186 0.24376 0.56 0.0
C241 C 0.4557 0.25972 0.63783 0.0
C242 C 0.45632 0.25833 0.57469 0.0
C243 C 0.44813 0.23649 0.61522 0.0
N244 N 0.45048 0.24594 0.66305 0.0
O245 O 0.42695 0.23513 0.49475 0.0
H246 H 0.45821 0.26716 0.54226 0.0
H247 H 0.44216 0.22428 0.61973 0.0
O248 O 0.45499 0.25344 0.43938 0.0
C249 C 0.41596 0.22271 0.51492 0.0
O250 O 0.41822 0.21126 0.52457 0.0
N251 N 0.46213 0.23108 0.47397 0.0
C252 C 0.48242 0.22041 0.45289 0.0
C253 C 0.47998 0.22881 0.4074 0.0
C254 C 0.46967 0.23385 0.41847 0.0
C255 C 0.46454 0.22306 0.51885 0.0
C256 C 0.47475 0.21784 0.50969 0.0
H257 H 0.46722 0.23934 0.38101 0.0
H258 H 0.45791 0.21979 0.56078 0.0
H259 H 0.43917 0.24058 0.34618 0.0
H260 H 0.42409 0.19438 0.3168 0.0
H261 H 0.4578 0.26981 0.6628 0.0
H262 H 0.48532 0.23076 0.36221 0.0
H263 H 0.47621 0.21138 0.54624 0.0
C264 C 0.81057 0.22321 0.41141 0.0
C265 C 0.81452 0.22305 0.3504 0.0
N266 N 0.80175 0.21421 0.31793 0.0
N267 N 0.79539 0.21459 0.41726 0.0
C268 C 0.79035 0.20907 0.35979 0.0
H269 H 0.81817 0.22973 0.44867 0.0
Co270 Co 0.78476 0.21317 0.48938 0.0
C271 C 0.75522 0.20744 0.43846 0.0
O272 O 0.75691 0.21933 0.46932 0.0
N273 N 0.77436 0.21136 0.56452 0.0
C274 C 0.75745 0.20144 0.64125 0.0
C275 C 0.7595 0.20217 0.57813 0.0
C276 C 0.7811 0.21555 0.62089 0.0
N277 N 0.77109 0.20975 0.66824 0.0
O278 O 0.78289 0.19378 0.50682 0.0
H279 H 0.75074 0.19507 0.54568 0.0
H280 H 0.79326 0.22149 0.62735 0.0
O281 O 0.76526 0.20341 0.44313 0.0
C282 C 0.79438 0.19605 0.53893 0.0
O283 O 0.80494 0.21013 0.55008 0.0
N284 N 0.78825 0.23314 0.47391 0.0
C285 C 0.79955 0.26401 0.44853 0.0
C286 C 0.79123 0.25291 0.40371 0.0
C287 C 0.78591 0.2376 0.41692 0.0
C288 C 0.79638 0.24385 0.51775 0.0
C289 C 0.80188 0.25924 0.50649 0.0
H290 H 0.78035 0.22941 0.3803 0.0
H291 H 0.79945 0.24071 0.56065 0.0
H292 H 0.77847 0.20227 0.34788 0.0
H293 H 0.82584 0.22934 0.33118 0.0
H294 H 0.74682 0.1945 0.6653 0.0
H295 H 0.78948 0.25604 0.3577 0.0
H296 H 0.80832 0.26736 0.54251 0.0
C297 C 0.93828 0.47901 0.26875 0.0
C298 C 0.94112 0.48259 0.33069 0.0
N299 N 0.92846 0.48123 0.35691 0.0
N300 N 0.92392 0.47547 0.25592 0.0
C301 C 0.91823 0.47697 0.3104 0.0
H302 H 0.94603 0.47856 0.23562 0.0
Co303 Co 0.91422 0.46831 0.18067 0.0
C304 C 0.8906 0.47762 0.17327 0.0
O305 O 0.88208 0.46615 0.13659 0.0
N306 N 0.90473 0.46095 0.10329 0.0
C307 C 0.89415 0.44643 0.02029 0.0
C308 C 0.89725 0.44651 0.08246 0.0
C309 C 0.90596 0.46939 0.05279 0.0
N310 N 0.89975 0.46087 0.00149 0.0
O311 O 0.9303 0.48596 0.14018 0.0
H312 H 0.8948 0.43661 0.10939 0.0
H313 H 0.91168 0.48163 0.05345 0.0
O314 O 0.90309 0.47925 0.19425 0.0
C315 C 0.9393 0.48305 0.10977 0.0
O316 O 0.93672 0.46905 0.10962 0.0
N317 N 0.89955 0.45047 0.22078 0.0
C318 C 0.88135 0.42174 0.27288 0.0
C319 C 0.87624 0.43223 0.26984 0.0
C320 C 0.8856 0.44665 0.24434 0.0
C321 C 0.90489 0.44064 0.22575 0.0
C322 C 0.896 0.42623 0.25119 0.0
H323 H 0.88156 0.45458 0.24451 0.0
H324 H 0.91607 0.44392 0.20799 0.0
H325 H 0.90658 0.47425 0.3164 0.0
H326 H 0.95161 0.48566 0.35471 0.0
H327 H 0.88902 0.43653 0.99058 0.0
H328 H 0.86516 0.42938 0.28761 0.0
H329 H 0.90043 0.41854 0.25227 0.0
C330 C 0.55586 0.4664 0.27584 0.0
C331 C 0.55174 0.46645 0.33653 0.0
N332 N 0.54162 0.4521 0.35312 0.0
N333 N 0.54841 0.4521 0.25403 0.0
C334 C 0.53971 0.44364 0.30189 0.0
H335 H 0.56429 0.47606 0.24999 0.0
Co336 Co 0.55179 0.44657 0.17607 0.0
C337 C 0.54481 0.4147 0.19705 0.0
O338 O 0.55827 0.41823 0.17605 0.0
N339 N 0.55531 0.44123 0.09495 0.0
C340 C 0.56494 0.4355 0.01295 0.0
C341 C 0.56627 0.43833 0.07547 0.0
C342 C 0.54754 0.44014 0.04216 0.0
N343 N 0.55317 0.43671 0.99181 0.0
O344 O 0.53291 0.44467 0.14849 0.0
H345 H 0.57499 0.43837 0.10412 0.0
H346 H 0.53817 0.44224 0.03978 0.0
O347 O 0.541 0.42491 0.20027 0.0
C348 C 0.53463 0.45769 0.13637 0.0
O349 O 0.54828 0.46961 0.14125 0.0
N350 N 0.57087 0.45024 0.20471 0.0
C351 C 0.6003 0.4604 0.24728 0.0
C352 C 0.5878 0.44895 0.27917 0.0
C353 C 0.5731 0.44408 0.25732 0.0
C354 C 0.5829 0.46212 0.17604 0.0
C355 C 0.59774 0.46705 0.19529 0.0
H356 H 0.56353 0.43563 0.28346 0.0
H357 H 0.58094 0.46772 0.13747 0.0
H358 H 0.53251 0.43146 0.29981 0.0
H359 H 0.55655 0.47621 0.36701 0.0
H360 H 0.57215 0.43279 0.98532 0.0
H361 H 0.58938 0.44388 0.32061 0.0
H362 H 0.60711 0.47626 0.17078 0.0
C363 C 0.55846 0.08153 0.27285 0.0
C364 C 0.55916 0.07868 0.33479 0.0
N365 N 0.57054 0.09128 0.36095 0.0
N366 N 0.56937 0.09583 0.25998 0.0
C367 C 0.57658 0.10148 0.31443 0.0
H368 H 0.55023 0.07381 0.23973 0.0
Co369 Co 0.57202 0.10549 0.18464 0.0
C370 C 0.60497 0.12928 0.17794 0.0
O371 O 0.60195 0.13754 0.14014 0.0
N372 N 0.57424 0.11493 0.10708 0.0
C373 C 0.57047 0.12558 0.02397 0.0
C374 C 0.56738 0.12249 0.08612 0.0
C375 C 0.58145 0.11363 0.05666 0.0
N376 N 0.57925 0.11988 0.0053 0.0
O377 O 0.57368 0.08939 0.14461 0.0
H378 H 0.55998 0.12504 0.11295 0.0
H379 H 0.58792 0.10785 0.05742 0.0
O380 O 0.59414 0.11676 0.19897 0.0
C381 C 0.56179 0.0804 0.11399 0.0
O382 O 0.55044 0.0831 0.11295 0.0
N383 N 0.56871 0.12013 0.22437 0.0
C384 C 0.55804 0.13825 0.27631 0.0
C385 C 0.57367 0.14335 0.27375 0.0
C386 C 0.57879 0.13403 0.24832 0.0
C387 C 0.5535 0.11479 0.22884 0.0
C388 C 0.54793 0.12366 0.25416 0.0
H389 H 0.59077 0.13807 0.24894 0.0
H390 H 0.54564 0.10365 0.21081 0.0
H391 H 0.58559 0.11309 0.32039 0.0
H392 H 0.55169 0.06822 0.35884 0.0
H393 H 0.56579 0.13077 0.99419 0.0
H394 H 0.58186 0.15438 0.2919 0.0
H395 H 0.53579 0.11922 0.25484 0.0
C396 C 0.46275 0.92345 0.72199 0.0
C397 C 0.46437 0.92797 0.66102 0.0
N398 N 0.47431 0.92471 0.63344 0.0
N399 N 0.47164 0.9174 0.73308 0.0
C400 C 0.47868 0.91849 0.67855 0.0
H401 H 0.45519 0.92406 0.75572 0.0
Co402 Co 0.4722 0.90862 0.80808 0.0
C403 C 0.47989 0.88601 0.74938 0.0
O404 O 0.46605 0.87446 0.754 0.0
N405 N 0.473 0.9003 0.88453 0.0
C406 C 0.4729 0.88584 0.96204 0.0
C407 C 0.47099 0.88653 0.89914 0.0
C408 C 0.47595 0.90767 0.93937 0.0
N409 N 0.47608 0.8992 0.98728 0.0
O410 O 0.49153 0.9264 0.82645 0.0
H411 H 0.46811 0.8774 0.86698 0.0
H412 H 0.47765 0.91897 0.94425 0.0
O413 O 0.48306 0.89916 0.76888 0.0
C414 C 0.49017 0.93771 0.84268 0.0
O415 O 0.47649 0.93595 0.84627 0.0
N416 N 0.45236 0.892 0.79164 0.0
C417 C 0.42129 0.87253 0.76901 0.0
C418 C 0.43204 0.87609 0.72167 0.0
C419 C 0.44744 0.88603 0.7336 0.0
C420 C 0.44199 0.88863 0.83808 0.0
C421 C 0.42651 0.8788 0.82806 0.0
H422 H 0.45536 0.88922 0.69547 0.0
H423 H 0.44557 0.89414 0.88275 0.0
H424 H 0.48621 0.91402 0.6712 0.0
H425 H 0.45838 0.93294 0.63863 0.0
H426 H 0.47211 0.87625 0.987 0.0
H427 H 0.42853 0.87183 0.67493 0.0
H428 H 0.41865 0.87647 0.86602 0.0
C429 C 0.09614 0.54303 0.71445 0.0
C430 C 0.09174 0.53968 0.65335 0.0
N431 N 0.09437 0.55255 0.62501 0.0
N432 N 0.10149 0.55793 0.72424 0.0
C433 C 0.10005 0.56337 0.66922 0.0
H434 H 0.09603 0.53527 0.74898 0.0
Co435 Co 0.10996 0.56816 0.79774 0.0
C436 C 0.13387 0.59809 0.75122 0.0
O437 O 0.14387 0.59632 0.78325 0.0
N438 N 0.11757 0.57804 0.87371 0.0
C439 C 0.12217 0.59403 0.95218 0.0
C440 C 0.12246 0.59267 0.88892 0.0
C441 C 0.11397 0.57073 0.92886 0.0
N442 N 0.11674 0.5802 0.97707 0.0
O443 O 0.09206 0.56953 0.81274 0.0
H444 H 0.12437 0.6016 0.85699 0.0
H445 H 0.10783 0.5585 0.93315 0.0
O446 O 0.11979 0.58791 0.75358 0.0
C447 C 0.08146 0.55703 0.83431 0.0
O448 O 0.08414 0.54582 0.8427 0.0
N449 N 0.12696 0.56535 0.78382 0.0
C450 C 0.14733 0.55504 0.75705 0.0
C451 C 0.14368 0.56266 0.71207 0.0
C452 C 0.13348 0.56764 0.7262 0.0
C453 C 0.13051 0.55809 0.82828 0.0
C454 C 0.14084 0.55313 0.81633 0.0
H455 H 0.13036 0.5728 0.68962 0.0
H456 H 0.12483 0.55534 0.87249 0.0
H457 H 0.10357 0.57515 0.66101 0.0
H458 H 0.08777 0.52884 0.63074 0.0
H459 H 0.12456 0.60417 0.97756 0.0
H460 H 0.14803 0.56414 0.66515 0.0
H461 H 0.14332 0.54743 0.85298 0.0
C462 C 0.46743 0.53482 0.70647 0.0
C463 C 0.46668 0.53125 0.6445 0.0
N464 N 0.45525 0.53243 0.61861 0.0
N465 N 0.45649 0.53816 0.71961 0.0
C466 C 0.44923 0.53658 0.66532 0.0
H467 H 0.47568 0.53533 0.73945 0.0
Co468 Co 0.45377 0.545 0.79523 0.0
C469 C 0.42053 0.53474 0.80364 0.0
O470 O 0.4231 0.54572 0.84246 0.0
N471 N 0.45147 0.55205 0.87304 0.0
C472 C 0.45511 0.56642 0.95626 0.0
C473 C 0.4582 0.56646 0.89408 0.0
C474 C 0.44438 0.5435 0.92348 0.0
N475 N 0.44647 0.55193 0.97487 0.0
O476 O 0.45244 0.52736 0.83459 0.0
H477 H 0.46552 0.57644 0.86721 0.0
H478 H 0.43803 0.53124 0.92261 0.0
O479 O 0.43167 0.53376 0.78136 0.0
C480 C 0.46429 0.53025 0.86538 0.0
O481 O 0.47557 0.54433 0.86738 0.0
N482 N 0.45667 0.56283 0.75618 0.0
C483 C 0.46679 0.5918 0.70759 0.0
C484 C 0.45121 0.58123 0.71191 0.0
C485 C 0.44635 0.56669 0.73568 0.0
C486 C 0.47182 0.57274 0.74979 0.0
C487 C 0.47713 0.58726 0.72595 0.0
H488 H 0.43437 0.55877 0.73715 0.0
H489 H 0.47986 0.56945 0.76543 0.0
H490 H 0.44017 0.53912 0.65964 0.0
H491 H 0.47414 0.52827 0.62028 0.0
H492 H 0.45967 0.57629 0.98606 0.0
H493 H 0.44284 0.58414 0.69682 0.0
H494 H 0.48925 0.59502 0.72387 0.0
C495 C 0.59492 0.79299 0.59647 0.0
C496 C 0.59949 0.79445 0.65736 0.0
N497 N 0.59574 0.80388 0.68623 0.0
N498 N 0.58835 0.80145 0.58678 0.0
C499 C 0.58923 0.80815 0.64199 0.0
H500 H 0.5957 0.78567 0.56209 0.0
Co501 Co 0.57879 0.80143 0.51312 0.0
C502 C 0.5569 0.8098 0.57357 0.0
O503 O 0.54523 0.79601 0.56983 0.0
N504 N 0.56969 0.80161 0.43733 0.0
C505 C 0.55535 0.80228 0.36065 0.0
C506 C 0.55644 0.80104 0.42388 0.0
C507 C 0.57626 0.80295 0.38139 0.0
N508 N 0.56793 0.8036 0.33413 0.0
O509 O 0.59652 0.82041 0.49033 0.0
H510 H 0.54802 0.79987 0.45705 0.0
H511 H 0.5869 0.80323 0.37509 0.0
O512 O 0.56992 0.81282 0.55274 0.0
C513 C 0.60676 0.81822 0.46658 0.0
O514 O 0.60421 0.80425 0.46353 0.0
N515 N 0.56218 0.78186 0.53353 0.0
C516 C 0.5422 0.75114 0.5608 0.0
C517 C 0.54657 0.76232 0.60689 0.0
C518 C 0.55674 0.77751 0.59263 0.0
C519 C 0.55813 0.77108 0.48838 0.0
C520 C 0.54804 0.75577 0.50071 0.0
H521 H 0.56032 0.78575 0.62962 0.0
H522 H 0.56328 0.77416 0.44292 0.0
H523 H 0.58421 0.81515 0.65076 0.0
H524 H 0.60468 0.78859 0.67899 0.0
H525 H 0.54616 0.80252 0.33638 0.0
H526 H 0.54239 0.75935 0.65401 0.0
H527 H 0.54546 0.74757 0.46399 0.0
C528 C 0.20471 0.79556 0.60398 0.0
C529 C 0.2011 0.79472 0.66594 0.0
N530 N 0.2026 0.7835 0.69185 0.0
N531 N 0.2084 0.78489 0.59085 0.0
C532 C 0.20698 0.77768 0.64515 0.0
H533 H 0.20503 0.80372 0.57101 0.0
Co534 Co 0.21552 0.78251 0.51526 0.0
C535 C 0.20679 0.74974 0.50723 0.0
O536 O 0.21822 0.753 0.46976 0.0
N537 N 0.22284 0.78057 0.43746 0.0
C538 C 0.23731 0.78464 0.35414 0.0
C539 C 0.23727 0.7877 0.41629 0.0
C540 C 0.21437 0.77324 0.38714 0.0
N541 N 0.22286 0.7756 0.33568 0.0
O542 O 0.19763 0.78064 0.47565 0.0
H543 H 0.24719 0.79525 0.44302 0.0
H544 H 0.20212 0.76655 0.38811 0.0
O545 O 0.2049 0.7604 0.52875 0.0
C546 C 0.20026 0.79241 0.44487 0.0
O547 O 0.21424 0.8039 0.443 0.0
N548 N 0.23358 0.78598 0.55466 0.0
C549 C 0.26254 0.79681 0.60511 0.0
C550 C 0.25212 0.78118 0.60231 0.0
C551 C 0.23759 0.77598 0.57772 0.0
C552 C 0.24332 0.80119 0.55965 0.0
C553 C 0.25785 0.80685 0.58431 0.0
H554 H 0.22974 0.76399 0.57815 0.0
H555 H 0.23989 0.80899 0.54241 0.0
H556 H 0.20981 0.76884 0.65088 0.0
H557 H 0.19788 0.802 0.69014 0.0
H558 H 0.24719 0.78947 0.32424 0.0
H559 H 0.25514 0.77305 0.61951 0.0
H560 H 0.26547 0.81899 0.58536 0.0
C561 C 0.21488 0.42247 0.60344 0.0
C562 C 0.21205 0.41767 0.66405 0.0
N563 N 0.22538 0.42151 0.69182 0.0
N564 N 0.22991 0.42924 0.59256 0.0
C565 C 0.236 0.42828 0.64692 0.0
H566 H 0.20658 0.42167 0.56999 0.0
Co567 Co 0.23899 0.439 0.51828 0.0
C568 C 0.26899 0.46224 0.57572 0.0
O569 O 0.26616 0.47339 0.569 0.0
N570 N 0.2477 0.44815 0.44198 0.0
C571 C 0.26145 0.46287 0.36358 0.0
C572 C 0.25923 0.46205 0.4268 0.0
C573 C 0.24303 0.44086 0.38701 0.0
N574 N 0.25127 0.44946 0.33863 0.0
O575 O 0.24134 0.42191 0.49552 0.0
H576 H 0.26568 0.47117 0.45863 0.0
H577 H 0.23357 0.42946 0.38245 0.0
O578 O 0.25938 0.44883 0.55729 0.0
C579 C 0.22898 0.41017 0.47938 0.0
O580 O 0.21642 0.41084 0.4787 0.0
N581 N 0.2352 0.45504 0.53965 0.0
C582 C 0.22398 0.4743 0.57181 0.0
C583 C 0.23093 0.46976 0.6163 0.0
C584 C 0.23632 0.46007 0.59951 0.0
C585 C 0.22837 0.45932 0.49581 0.0
C586 C 0.22295 0.46916 0.5106 0.0
H587 H 0.24136 0.45657 0.6352 0.0
H588 H 0.22648 0.45463 0.44947 0.0
H589 H 0.24808 0.4334 0.6546 0.0
H590 H 0.20104 0.41223 0.68622 0.0
H591 H 0.27007 0.47252 0.33824 0.0
H592 H 0.23201 0.47349 0.6641 0.0
H593 H 0.21734 0.47211 0.47511 0.0
C594 C 0.15795 0.24424 0.43549 0.0
C595 C 0.14415 0.23725 0.40301 0.0
C596 C 0.15848 0.24861 0.49719 0.0
C597 C 0.1364 0.25483 0.61983 0.0
H598 H 0.16221 0.24734 0.72907 0.0
C599 C 0.1414 0.26806 0.88367 0.0
C600 C 0.1415 0.25701 0.92234 0.0
C601 C 0.14279 0.26735 0.81925 0.0
C602 C 0.15489 0.24944 0.69928 0.0
H603 H 0.12018 0.2296 0.40838 0.0
H604 H 0.12088 0.23665 0.51758 0.0
H605 H 0.16206 0.24257 0.6187 0.0
H606 H 0.14265 0.23632 0.92377 0.0
H607 H 0.14491 0.23499 0.81226 0.0
H608 H 0.12865 0.26093 0.70148 0.0
C609 C 0.13138 0.2391 0.49505 0.0
C610 C 0.15496 0.24691 0.63574 0.0
C611 C 0.13092 0.23494 0.43286 0.0
C612 C 0.14295 0.24524 0.89545 0.0
C613 C 0.14424 0.24448 0.83138 0.0
C614 C 0.13623 0.25724 0.6837 0.0
C615 C 0.14517 0.24587 0.52811 0.0
C616 C 0.1456 0.24941 0.59525 0.0
C617 C 0.14421 0.25552 0.79246 0.0
C618 C 0.1453 0.25433 0.7242 0.0
H619 H 0.16839 0.24652 0.41286 0.0
H620 H 0.16935 0.25415 0.52064 0.0
H621 H 0.12923 0.2571 0.58983 0.0
H622 H 0.14035 0.27727 0.90333 0.0
H623 H 0.14286 0.27611 0.79052 0.0
C624 C 0.77044 0.91086 0.41943 0.0
C625 C 0.78569 0.91627 0.40305 0.0
C626 C 0.7664 0.91119 0.48121 0.0
C627 C 0.76047 0.90122 0.61515 0.0
H628 H 0.78683 0.93105 0.73597 0.0
C629 C 0.76139 0.88603 0.86965 0.0
C630 C 0.76367 0.89658 0.9165 0.0
C631 C 0.76223 0.88995 0.80718 0.0
C632 C 0.77919 0.92273 0.70281 0.0
H633 H 0.80874 0.92741 0.43849 0.0
H634 H 0.80167 0.92741 0.54613 0.0
H635 H 0.79175 0.93645 0.62531 0.0
H636 H 0.76825 0.91946 0.93405 0.0
H637 H 0.76978 0.92634 0.82441 0.0
H638 H 0.74796 0.88746 0.69245 0.0
C639 C 0.79281 0.92305 0.51127 0.0
C640 C 0.78211 0.92575 0.63938 0.0
C641 C 0.79686 0.92283 0.44947 0.0
C642 C 0.76662 0.91112 0.89917 0.0
C643 C 0.76747 0.91506 0.8364 0.0
C644 C 0.75751 0.89824 0.67841 0.0
C645 C 0.77749 0.91684 0.52818 0.0
C646 C 0.77306 0.91483 0.59484 0.0
C647 C 0.76535 0.90452 0.78973 0.0
C648 C 0.76712 0.90874 0.72298 0.0
H649 H 0.76148 0.90571 0.38527 0.0
H650 H 0.75451 0.90657 0.49244 0.0
H651 H 0.75331 0.89247 0.58238 0.0
H652 H 0.7594 0.87485 0.88102 0.0
H653 H 0.76088 0.88166 0.7725 0.0
C654 C 0.13698 0.87995 0.8546 0.0
C655 C 0.12603 0.8722 0.90106 0.0
C656 C 0.13331 0.87677 0.79189 0.0
C657 C 0.10116 0.86383 0.68776 0.0
H658 H 0.12946 0.86456 0.56508 0.0
C659 C 0.10831 0.86336 0.40336 0.0
C660 C 0.10552 0.87518 0.38776 0.0
C661 C 0.10902 0.85978 0.46557 0.0
C662 C 0.12132 0.86409 0.59876 0.0
H663 H 0.10277 0.85427 0.91679 0.0
H664 H 0.09634 0.84905 0.80715 0.0
H665 H 0.13444 0.86358 0.67556 0.0
H666 H 0.10106 0.89228 0.42674 0.0
H667 H 0.10205 0.88585 0.53409 0.0
H668 H 0.08831 0.86487 0.61107 0.0
C669 C 0.10774 0.85768 0.81983 0.0
C670 C 0.12423 0.86366 0.66194 0.0
C671 C 0.11145 0.86075 0.88277 0.0
C672 C 0.10304 0.88299 0.43615 0.0
C673 C 0.10359 0.8793 0.4981 0.0
C674 C 0.09831 0.86439 0.62463 0.0
C675 C 0.11859 0.86582 0.77378 0.0
C676 C 0.11438 0.86391 0.70709 0.0
C677 C 0.10675 0.86779 0.51352 0.0
C678 C 0.10857 0.86492 0.57959 0.0
H679 H 0.14828 0.88893 0.86604 0.0
H680 H 0.14186 0.8834 0.75745 0.0
H681 H 0.0934 0.86413 0.72146 0.0
H682 H 0.10999 0.85685 0.36776 0.0
H683 H 0.11137 0.85077 0.4762 0.0
C684 C 0.24597 0.15057 0.58208 0.0
C685 C 0.23386 0.13631 0.5996 0.0
C686 C 0.24836 0.15492 0.5197 0.0
C687 C 0.23098 0.1445 0.3618 0.0
H688 H 0.2729 0.16235 0.30892 0.0
C689 C 0.26678 0.14835 0.12847 0.0
C690 C 0.25898 0.15175 0.08328 0.0
C691 C 0.26386 0.14882 0.19149 0.0
C692 C 0.26113 0.15734 0.32286 0.0
H693 H 0.21423 0.11589 0.56539 0.0
H694 H 0.21869 0.12321 0.45663 0.0
H695 H 0.26684 0.1587 0.41893 0.0
H696 H 0.24229 0.15873 0.06896 0.0
H697 H 0.23723 0.15967 0.17942 0.0
H698 H 0.22524 0.14236 0.26528 0.0
C699 C 0.22625 0.13114 0.49108 0.0
C700 C 0.25766 0.15545 0.38611 0.0
C701 C 0.2238 0.12684 0.55349 0.0
C702 C 0.24834 0.15588 0.10267 0.0
C703 C 0.24545 0.15641 0.1659 0.0
C704 C 0.23445 0.14632 0.29841 0.0
C705 C 0.23878 0.14508 0.47325 0.0
C706 C 0.24251 0.14872 0.40637 0.0
C707 C 0.25311 0.15278 0.21104 0.0
C708 C 0.24954 0.15244 0.2782 0.0
H709 H 0.25403 0.15816 0.61602 0.0
H710 H 0.25798 0.16585 0.50774 0.0
H711 H 0.21922 0.1395 0.37582 0.0
H712 H 0.27482 0.14486 0.1152 0.0
H713 H 0.26973 0.14563 0.22484 0.0
C714 C 0.89231 0.10076 0.57511 0.0
C715 C 0.88293 0.10158 0.62109 0.0
C716 C 0.8878 0.09843 0.51294 0.0
C717 C 0.8744 0.08937 0.38397 0.0
H718 H 0.85663 0.11338 0.33016 0.0
C719 C 0.86458 0.09663 0.1239 0.0
C720 C 0.86898 0.11154 0.106 0.0
C721 C 0.86361 0.09279 0.18683 0.0
C722 C 0.8616 0.10661 0.34438 0.0
H723 H 0.86097 0.09964 0.6377 0.0
H724 H 0.85294 0.09507 0.52981 0.0
H725 H 0.85985 0.11077 0.44033 0.0
H726 H 0.87599 0.13413 0.14032 0.0
H727 H 0.8744 0.12752 0.24925 0.0
H728 H 0.87698 0.08603 0.28751 0.0
C729 C 0.86396 0.09661 0.54167 0.0
C730 C 0.86324 0.10492 0.40771 0.0
C731 C 0.86851 0.09906 0.60383 0.0
C732 C 0.87227 0.12248 0.15233 0.0
C733 C 0.87133 0.11866 0.21497 0.0
C734 C 0.87283 0.09114 0.32047 0.0
C735 C 0.87374 0.09673 0.49521 0.0
C736 C 0.87002 0.0966 0.42832 0.0
C737 C 0.86702 0.10379 0.23307 0.0
C738 C 0.8668 0.10014 0.3 0.0
H739 H 0.90334 0.10234 0.58681 0.0
H740 H 0.8957 0.0987 0.47851 0.0
H741 H 0.87944 0.08268 0.39825 0.0
H742 H 0.86181 0.08791 0.08932 0.0
H743 H 0.86013 0.0812 0.19927 0.0
C744 C 0.90515 0.75092 0.13527 0.0
C745 C 0.90853 0.76249 0.09191 0.0
C746 C 0.90894 0.75441 0.19788 0.0
C747 C 0.91452 0.78344 0.31062 0.0
H748 H 0.92999 0.76366 0.41766 0.0
C749 C 0.92294 0.79744 0.56909 0.0
C750 C 0.91729 0.78493 0.60913 0.0
C751 C 0.92512 0.7958 0.50623 0.0
C752 C 0.92561 0.76923 0.38835 0.0
H753 H 0.91885 0.78687 0.08037 0.0
H754 H 0.92562 0.7929 0.18886 0.0
H755 H 0.92745 0.75837 0.30602 0.0
H756 H 0.91005 0.76105 0.61588 0.0
H757 H 0.91346 0.75802 0.50576 0.0
H758 H 0.91209 0.79386 0.3923 0.0
C759 C 0.91996 0.78113 0.17454 0.0
C760 C 0.92417 0.7662 0.32456 0.0
C761 C 0.9162 0.77765 0.11216 0.0
C762 C 0.91456 0.7709 0.58596 0.0
C763 C 0.91655 0.76919 0.5229 0.0
C764 C 0.91587 0.78638 0.37415 0.0
C765 C 0.91611 0.76954 0.21822 0.0
C766 C 0.91851 0.77322 0.28523 0.0
C767 C 0.92145 0.78154 0.48202 0.0
C768 C 0.92132 0.77924 0.4139 0.0
H769 H 0.89941 0.73916 0.12096 0.0
H770 H 0.90575 0.74525 0.23068 0.0
H771 H 0.90985 0.78879 0.28163 0.0
H772 H 0.92534 0.80842 0.58626 0.0
H773 H 0.92926 0.80562 0.47626 0.0
C774 C 0.80828 0.59964 0.20047 0.0
C775 C 0.81044 0.59004 0.2408 0.0
C776 C 0.80844 0.59785 0.13613 0.0
C777 C 0.80064 0.56838 0.02202 0.0
H778 H 0.82264 0.60131 0.90564 0.0
C779 C 0.80919 0.55774 0.7677 0.0
C780 C 0.80847 0.56717 0.72196 0.0
C781 C 0.80886 0.56089 0.8305 0.0
C782 C 0.81625 0.59203 0.93752 0.0
H783 H 0.81477 0.57125 0.24514 0.0
H784 H 0.81526 0.5683 0.13346 0.0
H785 H 0.8238 0.60676 0.01682 0.0
H786 H 0.80677 0.58733 0.70648 0.0
H787 H 0.80575 0.59257 0.81618 0.0
H788 H 0.793 0.55363 0.94334 0.0
C789 C 0.81335 0.57714 0.15153 0.0
C790 C 0.81696 0.59516 0.00103 0.0
C791 C 0.81328 0.57898 0.21556 0.0
C792 C 0.80715 0.57971 0.74043 0.0
C793 C 0.80678 0.58284 0.80333 0.0
C794 C 0.79985 0.56527 0.9587 0.0
C795 C 0.81061 0.58633 0.11128 0.0
C796 C 0.80936 0.58332 0.04382 0.0
C797 C 0.80772 0.57351 0.84901 0.0
C798 C 0.80782 0.57702 0.91583 0.0
H799 H 0.80616 0.60831 0.21876 0.0
H800 H 0.8063 0.60508 0.10594 0.0
H801 H 0.79442 0.55908 0.05404 0.0
H802 H 0.81007 0.54793 0.75494 0.0
H803 H 0.80979 0.55358 0.86456 0.0
C804 C 0.44015 0.23388 0.21694 0.0
C805 C 0.42958 0.22018 0.24504 0.0
C806 C 0.43989 0.2358 0.15304 0.0
C807 C 0.42679 0.21415 0.00721 0.0
H808 H 0.43901 0.25397 0.94053 0.0
C809 C 0.44821 0.23101 0.75619 0.0
C810 C 0.44563 0.24168 0.72597 0.0
C811 C 0.44396 0.22728 0.81823 0.0
C812 C 0.4353 0.24269 0.95801 0.0
H813 H 0.41023 0.19787 0.22885 0.0
H814 H 0.40953 0.2013 0.11662 0.0
H815 H 0.43497 0.24962 0.05127 0.0
H816 H 0.43578 0.25613 0.73468 0.0
H817 H 0.42786 0.2493 0.84223 0.0
H818 H 0.42677 0.20714 0.91354 0.0
C819 C 0.41821 0.21046 0.14397 0.0
C820 C 0.43321 0.24026 0.0218 0.0
C821 C 0.41857 0.20849 0.20809 0.0
C822 C 0.43821 0.24814 0.75772 0.0
C823 C 0.4337 0.24422 0.81927 0.0
C824 C 0.42869 0.21653 0.94315 0.0
C825 C 0.42896 0.22411 0.1157 0.0
C826 C 0.42932 0.22608 0.04734 0.0
C827 C 0.43678 0.23396 0.85071 0.0
C828 C 0.4333 0.23092 0.91793 0.0
H829 H 0.44897 0.24296 0.24407 0.0
H830 H 0.44859 0.24632 0.13276 0.0
H831 H 0.42387 0.20311 0.02534 0.0
H832 H 0.45392 0.22593 0.73227 0.0
H833 H 0.44672 0.21951 0.84112 0.0
C834 C 0.78776 0.22246 0.75835 0.0
C835 C 0.77457 0.21018 0.73335 0.0
C836 C 0.79128 0.22267 0.82125 0.0
C837 C 0.77368 0.20585 0.97202 0.0
H838 H 0.81497 0.21919 0.02384 0.0
C839 C 0.78764 0.19985 0.22506 0.0
C840 C 0.80015 0.21258 0.25144 0.0
C841 C 0.78518 0.19899 0.16102 0.0
C842 C 0.80341 0.21554 0.01008 0.0
H843 H 0.75497 0.18829 0.75478 0.0
H844 H 0.76106 0.18868 0.86399 0.0
H845 H 0.8093 0.21924 0.91357 0.0
H846 H 0.82013 0.23424 0.23082 0.0
H847 H 0.81584 0.23274 0.11917 0.0
H848 H 0.76776 0.20222 0.06825 0.0
C849 C 0.76854 0.1983 0.83532 0.0
C850 C 0.80017 0.2156 0.947 0.0
C851 C 0.76502 0.1981 0.77261 0.0
C852 C 0.81048 0.22418 0.21203 0.0
C853 C 0.80801 0.22334 0.14796 0.0
C854 C 0.77691 0.20578 0.03494 0.0
C855 C 0.78169 0.21058 0.86041 0.0
C856 C 0.78526 0.21073 0.92732 0.0
C857 C 0.79517 0.21087 0.12191 0.0
C858 C 0.7918 0.21061 0.05471 0.0
H859 H 0.79526 0.23199 0.72941 0.0
H860 H 0.80141 0.23238 0.8394 0.0
H861 H 0.76212 0.20228 0.95845 0.0
H862 H 0.77964 0.19061 0.25405 0.0
H863 H 0.77534 0.1891 0.14218 0.0
C864 C 0.89114 0.4564 0.89215 0.0
C865 C 0.90099 0.46609 0.93829 0.0
C866 C 0.89345 0.46072 0.82975 0.0
C867 C 0.92441 0.48594 0.72477 0.0
H868 H 0.89185 0.47174 0.60406 0.0
C869 C 0.91486 0.486 0.44138 0.0
C870 C 0.92586 0.48238 0.42198 0.0
C871 C 0.91189 0.48641 0.50463 0.0
C872 C 0.9011 0.47601 0.63717 0.0
H873 H 0.92064 0.48833 0.95468 0.0
H874 H 0.92431 0.49604 0.84648 0.0
H875 H 0.88585 0.4686 0.71463 0.0
H876 H 0.94229 0.47627 0.45395 0.0
H877 H 0.93709 0.47685 0.56354 0.0
H878 H 0.93966 0.49341 0.64753 0.0
C879 C 0.91498 0.48492 0.85841 0.0
C880 C 0.89764 0.47404 0.70057 0.0
C881 C 0.91274 0.48056 0.92077 0.0
C882 C 0.93396 0.47938 0.46719 0.0
C883 C 0.93097 0.47973 0.5302 0.0
C884 C 0.92786 0.48798 0.66152 0.0
C885 C 0.90562 0.47491 0.81195 0.0
C886 C 0.90925 0.47866 0.74509 0.0
C887 C 0.91985 0.48317 0.54975 0.0
C888 C 0.91624 0.48269 0.61691 0.0
H889 H 0.88183 0.44528 0.90401 0.0
H890 H 0.88607 0.45265 0.79528 0.0
H891 H 0.93365 0.48952 0.75754 0.0
H892 H 0.90857 0.48856 0.40769 0.0
H893 H 0.90338 0.48927 0.51817 0.0
C894 C 0.53333 0.43168 0.91335 0.0
C895 C 0.54829 0.43543 0.92811 0.0
C896 C 0.52876 0.43055 0.85128 0.0
C897 C 0.52634 0.4392 0.71662 0.0
H898 H 0.54249 0.42258 0.59645 0.0
C899 C 0.53626 0.4569 0.46017 0.0
C900 C 0.53616 0.44684 0.41522 0.0
C901 C 0.53342 0.45265 0.52254 0.0
C902 C 0.53757 0.42699 0.62919 0.0
H903 H 0.57021 0.44132 0.88882 0.0
H904 H 0.56228 0.4393 0.78157 0.0
H905 H 0.54588 0.42016 0.70657 0.0
H906 H 0.53171 0.42388 0.40042 0.0
H907 H 0.52629 0.41633 0.50864 0.0
H908 H 0.51817 0.44618 0.63892 0.0
C909 C 0.55396 0.43689 0.81774 0.0
C910 C 0.53972 0.42578 0.69242 0.0
C911 C 0.55852 0.43805 0.87944 0.0
C912 C 0.53196 0.43199 0.43349 0.0
C913 C 0.52899 0.42769 0.49585 0.0
C914 C 0.52414 0.44038 0.65315 0.0
C915 C 0.53903 0.43308 0.80285 0.0
C916 C 0.53459 0.43232 0.73674 0.0
C917 C 0.53026 0.43815 0.54145 0.0
C918 C 0.53015 0.43469 0.60863 0.0
H919 H 0.52511 0.42944 0.94963 0.0
H920 H 0.51716 0.42754 0.84119 0.0
H921 H 0.52225 0.44436 0.74967 0.0
H922 H 0.53909 0.4683 0.44763 0.0
H923 H 0.53457 0.46105 0.55626 0.0
C924 C 0.58904 0.10471 0.44519 0.0
C925 C 0.57434 0.09384 0.42597 0.0
C926 C 0.59247 0.10763 0.5084 0.0
C927 C 0.59309 0.11845 0.64106 0.0
H928 H 0.57374 0.08595 0.7614 0.0
C929 C 0.58358 0.12854 0.89606 0.0
C930 C 0.58325 0.11861 0.94216 0.0
C931 C 0.5856 0.12621 0.83366 0.0
C932 C 0.57949 0.09517 0.72863 0.0
H933 H 0.55172 0.07761 0.45818 0.0
H934 H 0.55761 0.08275 0.56772 0.0
H935 H 0.57153 0.07996 0.65136 0.0
H936 H 0.58558 0.09883 0.95854 0.0
H937 H 0.58962 0.09513 0.85033 0.0
H938 H 0.60112 0.13366 0.71855 0.0
C939 C 0.56662 0.08879 0.53427 0.0
C940 C 0.57803 0.09173 0.66537 0.0
C941 C 0.56322 0.08584 0.47129 0.0
C942 C 0.58583 0.10678 0.92463 0.0
C943 C 0.58796 0.10452 0.86228 0.0
C944 C 0.59464 0.12189 0.70447 0.0
C945 C 0.58126 0.09976 0.55365 0.0
C946 C 0.58446 0.10335 0.62078 0.0
C947 C 0.58745 0.11395 0.81584 0.0
C948 C 0.58754 0.11031 0.74897 0.0
H949 H 0.5979 0.11092 0.41139 0.0
H950 H 0.6039 0.11603 0.5218 0.0
H951 H 0.59815 0.12768 0.60797 0.0
H952 H 0.58189 0.13791 0.90794 0.0
H953 H 0.58502 0.13364 0.79922 0.0
C954 C 0.46798 0.92618 0.52362 0.0
C955 C 0.47783 0.92564 0.56805 0.0
C956 C 0.47062 0.92572 0.46028 0.0
C957 C 0.48231 0.93105 0.32778 0.0
H958 H 0.49032 0.89925 0.27588 0.0
C959 C 0.48714 0.91886 0.06919 0.0
C960 C 0.47878 0.90349 0.05187 0.0
C961 C 0.48937 0.92302 0.13182 0.0
C962 C 0.48811 0.9082 0.2897 0.0
H963 H 0.49869 0.925 0.57991 0.0
H964 H 0.50313 0.92395 0.46911 0.0
H965 H 0.49012 0.90459 0.38633 0.0
H966 H 0.46631 0.88048 0.08716 0.0
H967 H 0.47025 0.88773 0.19616 0.0
H968 H 0.47973 0.93427 0.23129 0.0
C969 C 0.49328 0.92458 0.48374 0.0
C970 C 0.48817 0.91137 0.35287 0.0
C971 C 0.49069 0.92514 0.54724 0.0
C972 C 0.47296 0.89239 0.09869 0.0
C973 C 0.47524 0.89655 0.16125 0.0
C974 C 0.48233 0.92793 0.26461 0.0
C975 C 0.48314 0.92465 0.43967 0.0
C976 C 0.48494 0.92261 0.37261 0.0
C977 C 0.48335 0.9119 0.1785 0.0
C978 C 0.48491 0.91625 0.24499 0.0
H979 H 0.45786 0.92635 0.53745 0.0
H980 H 0.46248 0.92557 0.42749 0.0
H981 H 0.47993 0.93987 0.34165 0.0
H982 H 0.49205 0.92769 0.03442 0.0
H983 H 0.49583 0.93493 0.14374 0.0
C984 C 0.10466 0.56845 0.53184 0.0
C985 C 0.09377 0.55482 0.55947 0.0
C986 C 0.10482 0.57038 0.46779 0.0
C987 C 0.09231 0.54875 0.32163 0.0
H988 H 0.10531 0.58864 0.25387 0.0
C989 C 0.11425 0.56522 0.07046 0.0
C990 C 0.11182 0.57596 0.03995 0.0
C991 C 0.10995 0.56157 0.13256 0.0
C992 C 0.1014 0.57734 0.27164 0.0
H993 H 0.07428 0.53267 0.54216 0.0
H994 H 0.07432 0.53613 0.42963 0.0
H995 H 0.10082 0.5844 0.36445 0.0
H996 H 0.10216 0.59059 0.04811 0.0
H997 H 0.09416 0.5839 0.1556 0.0
H998 H 0.09254 0.54162 0.22833 0.0
C999 C 0.08292 0.54522 0.45753 0.0
C1000 C 0.09905 0.57497 0.33537 0.0
C1001 C 0.08285 0.54324 0.52182 0.0
C1002 C 0.10448 0.58255 0.07139 0.0
C1003 C 0.09993 0.57872 0.13293 0.0
C1004 C 0.09448 0.55108 0.2576 0.0
C1005 C 0.09401 0.55878 0.42977 0.0
C1006 C 0.09482 0.56075 0.36133 0.0
C1007 C 0.10289 0.56842 0.16475 0.0
C1008 C 0.09934 0.56548 0.23199 0.0
H1009 H 0.11342 0.57745 0.55947 0.0
H1010 H 0.11376 0.58083 0.44797 0.0
H1011 H 0.08914 0.53767 0.34012 0.0
H1012 H 0.11987 0.56002 0.04673 0.0
H1013 H 0.11258 0.55374 0.15573 0.0
C1014 C 0.43661 0.52721 0.53483 0.0
C1015 C 0.45135 0.5311 0.5537 0.0
C1016 C 0.43308 0.52659 0.4717 0.0
C1017 C 0.4473 0.52486 0.31457 0.0
H1018 H 0.42429 0.54377 0.26133 0.0
C1019 C 0.44201 0.55621 0.08407 0.0
C1020 C 0.44239 0.54663 0.03794 0.0
C1021 C 0.43989 0.55182 0.14639 0.0
C1022 C 0.43074 0.53845 0.27543 0.0
H1023 H 0.47393 0.53747 0.52097 0.0
H1024 H 0.46786 0.53652 0.41157 0.0
H1025 H 0.42729 0.54083 0.37193 0.0
H1026 H 0.44002 0.5245 0.02144 0.0
H1027 H 0.43579 0.51668 0.12949 0.0
H1028 H 0.45155 0.52328 0.21858 0.0
C1029 C 0.4589 0.53359 0.44524 0.0
C1030 C 0.4323 0.5366 0.33885 0.0
C1031 C 0.4624 0.53416 0.50813 0.0
C1032 C 0.43974 0.53219 0.05535 0.0
C1033 C 0.4375 0.52776 0.11762 0.0
C1034 C 0.44582 0.5268 0.25132 0.0
C1035 C 0.44422 0.52987 0.4262 0.0
C1036 C 0.44092 0.53012 0.35913 0.0
C1037 C 0.43797 0.53768 0.16411 0.0
C1038 C 0.43782 0.53393 0.23095 0.0
H1039 H 0.4278 0.52461 0.56884 0.0
H1040 H 0.42162 0.52352 0.45854 0.0
H1041 H 0.45378 0.51958 0.32861 0.0
H1042 H 0.44374 0.56728 0.0723 0.0
H1043 H 0.44045 0.55983 0.18087 0.0
C1044 C 0.58734 0.81328 0.25126 0.0
C1045 C 0.572 0.80577 0.2693 0.0
C1046 C 0.59134 0.81513 0.18851 0.0
C1047 C 0.57659 0.81449 0.03099 0.0
H1048 H 0.60791 0.80572 0.97928 0.0
C1049 C 0.59619 0.79628 0.79498 0.0
C1050 C 0.59609 0.80665 0.75213 0.0
C1051 C 0.59503 0.79813 0.85858 0.0
C1052 C 0.59915 0.80822 0.99302 0.0
H1053 H 0.54884 0.79444 0.23544 0.0
H1054 H 0.5558 0.79761 0.12576 0.0
H1055 H 0.60186 0.80496 0.08928 0.0
H1056 H 0.59546 0.82754 0.74329 0.0
H1057 H 0.59331 0.83068 0.85459 0.0
H1058 H 0.57353 0.81723 0.93446 0.0
C1059 C 0.56474 0.80224 0.16027 0.0
C1060 C 0.59578 0.80792 0.05606 0.0
C1061 C 0.56074 0.80039 0.22309 0.0
C1062 C 0.5953 0.8192 0.7748 0.0
C1063 C 0.59408 0.82101 0.83855 0.0
C1064 C 0.57999 0.81482 0.96791 0.0
C1065 C 0.58008 0.80953 0.14231 0.0
C1066 C 0.58431 0.81084 0.07568 0.0
C1067 C 0.59372 0.81036 0.88103 0.0
C1068 C 0.59115 0.81146 0.9482 0.0
H1069 H 0.59631 0.81787 0.2856 0.0
H1070 H 0.60326 0.82101 0.17617 0.0
H1071 H 0.56782 0.81697 0.04475 0.0
H1072 H 0.59653 0.78636 0.77954 0.0
H1073 H 0.59456 0.78961 0.89003 0.0
C1074 C 0.22731 0.77133 0.2265 0.0
C1075 C 0.21758 0.77142 0.27265 0.0
C1076 C 0.22292 0.76912 0.16418 0.0
C1077 C 0.20958 0.75971 0.03518 0.0
H1078 H 0.18977 0.78186 0.98201 0.0
C1079 C 0.19789 0.76505 0.7758 0.0
C1080 C 0.2014 0.77966 0.7568 0.0
C1081 C 0.19739 0.7616 0.83896 0.0
C1082 C 0.19532 0.77563 -0.00396 0.0
H1083 H 0.19519 0.76845 0.28924 0.0
H1084 H 0.18736 0.76407 0.18118 0.0
H1085 H 0.19363 0.7798 0.09205 0.0
H1086 H 0.20724 0.80208 0.78938 0.0
H1087 H 0.2065 0.79614 0.89882 0.0
H1088 H 0.21206 0.75635 0.93868 0.0
C1089 C 0.19856 0.76607 0.19301 0.0
C1090 C 0.19734 0.77425 0.0593 0.0
C1091 C 0.203 0.7684 0.25529 0.0
C1092 C 0.20421 0.79065 0.8023 0.0
C1093 C 0.20377 0.78722 0.86522 0.0
C1094 C 0.20764 0.76118 0.97177 0.0
C1095 C 0.20862 0.76682 0.1465 0.0
C1096 C 0.2048 0.76656 0.07966 0.0
C1097 C 0.20043 0.77269 0.88438 0.0
C1098 C 0.20082 0.76948 0.95147 0.0
H1099 H 0.23851 0.77335 0.23825 0.0
H1100 H 0.23102 0.76989 0.12968 0.0
H1101 H 0.21516 0.75351 0.04928 0.0
H1102 H 0.19549 0.75629 0.74187 0.0
H1103 H 0.19462 0.75024 0.85221 0.0
C1104 C 0.24179 0.42254 0.77912 0.0
C1105 C 0.22801 0.42093 0.75747 0.0
C1106 C 0.24489 0.42352 0.84281 0.0
C1107 C 0.25203 0.4371 0.97337 0.0
H1108 H 0.22089 0.41317 0.0945 0.0
C1109 C 0.25454 0.45613 0.22705 0.0
C1110 C 0.24966 0.44511 0.2741 0.0
C1111 C 0.25282 0.45191 0.16454 0.0
C1112 C 0.22978 0.41983 0.06134 0.0
H1113 H 0.20656 0.41872 0.78698 0.0
H1114 H 0.2119 0.42024 0.89704 0.0
H1115 H 0.21597 0.40711 0.98427 0.0
H1116 H 0.23957 0.421 0.29205 0.0
H1117 H 0.23643 0.41365 0.18292 0.0
H1118 H 0.26577 0.44994 0.0504 0.0
C1119 C 0.22026 0.42061 0.86481 0.0
C1120 C 0.22692 0.41644 -0.0018 0.0
C1121 C 0.2172 0.41973 0.80134 0.0
C1122 C 0.24317 0.42977 0.25709 0.0
C1123 C 0.24142 0.42554 0.19454 0.0
C1124 C 0.25488 0.44053 0.03652 0.0
C1125 C 0.23423 0.42278 0.88625 0.0
C1126 C 0.2379 0.42521 0.95347 0.0
C1127 C 0.24617 0.43657 0.14758 0.0
C1128 C 0.24368 0.4321 0.0811 0.0
H1129 H 0.25029 0.42323 0.74696 0.0
H1130 H 0.25569 0.42499 0.85805 0.0
H1131 H 0.26068 0.44414 0.94001 0.0
H1132 H 0.2594 0.46801 0.23841 0.0
H1133 H 0.25636 0.46065 0.12946 0.0
C1134 C 0.21598 0.38217 0.48139 0.0
C1135 C 0.2282 0.39589 0.46039 0.0
C1136 C 0.21333 0.36839 0.45685 0.0
C1137 C 0.21701 0.35192 0.31365 0.0
H1138 H 0.20149 0.31581 0.41565 0.0
C1139 C 0.18417 0.29066 0.21046 0.0
C1140 C 0.17004 0.28194 0.23977 0.0
C1141 C 0.19529 0.30436 0.23734 0.0
C1142 C 0.2059 0.32578 0.38641 0.0
H1143 H 0.24742 0.40608 0.39783 0.0
H1144 H 0.24259 0.38175 0.35333 0.0
H1145 H 0.21424 0.34075 0.46463 0.0
H1146 H 0.15677 0.28021 0.32136 0.0
H1147 H 0.17598 0.30367 0.36814 0.0
H1148 H 0.20785 0.33684 0.23568 0.0
C1149 C 0.23522 0.38172 0.3897 0.0
C1150 C 0.21321 0.34007 0.41448 0.0
C1151 C 0.23807 0.3956 0.41545 0.0
C1152 C 0.16751 0.28674 0.29743 0.0
C1153 C 0.1786 0.30016 0.32457 0.0
C1154 C 0.20963 0.33757 0.28546 0.0
C1155 C 0.22268 0.36798 0.40969 0.0
C1156 C 0.21828 0.35327 0.37873 0.0
C1157 C 0.19254 0.30929 0.29457 0.0
C1158 C 0.20341 0.32433 0.32188 0.0
H1159 H 0.20814 0.38213 0.51563 0.0
H1160 H 0.20345 0.35807 0.47266 0.0
H1161 H 0.22072 0.36188 0.28487 0.0
H1162 H 0.18637 0.28722 0.16586 0.0
H1163 H 0.20593 0.31117 0.21317 0.0
C1164 C 0.73409 0.89925 0.25544 0.0
C1165 C 0.73558 0.88832 0.22121 0.0
C1166 C 0.7198 0.89594 0.27846 0.0
C1167 C 0.67865 0.8701 0.25588 0.0
H1168 H 0.6745 0.87125 0.43461 0.0
C1169 C 0.62617 0.82636 0.38357 0.0
C1170 C 0.62031 0.83034 0.43471 0.0
C1171 C 0.63952 0.83705 0.35468 0.0
C1172 C 0.67546 0.87119 0.38451 0.0
H1173 H 0.7234 0.86572 0.18201 0.0
H1174 H 0.69865 0.86017 0.22012 0.0
H1175 H 0.69984 0.884 0.38733 0.0
H1176 H 0.62369 0.84878 0.49501 0.0
H1177 H 0.64756 0.86769 0.44477 0.0
H1178 H 0.65443 0.85672 0.25293 0.0
C1179 C 0.70838 0.87121 0.22982 0.0
C1180 C 0.68997 0.87849 0.35745 0.0
C1181 C 0.72257 0.87436 0.20823 0.0
C1182 C 0.62796 0.84544 0.45556 0.0
C1183 C 0.64161 0.8562 0.42705 0.0
C1184 C 0.66422 0.86288 0.28275 0.0
C1185 C 0.70682 0.88183 0.26601 0.0
C1186 C 0.69171 0.87743 0.29312 0.0
C1187 C 0.64755 0.85205 0.37638 0.0
C1188 C 0.66248 0.86275 0.3476 0.0
H1189 H 0.74399 0.91004 0.26657 0.0
H1190 H 0.71892 0.90431 0.30638 0.0
H1191 H 0.67963 0.86928 0.20608 0.0
H1192 H 0.62048 0.81484 0.36603 0.0
H1193 H 0.64384 0.83338 0.31646 0.0
C1194 C 0.19228 0.80283 0.3578 0.0
C1195 C 0.18825 0.79347 0.41044 0.0
C1196 C 0.18162 0.80537 0.32777 0.0
C1197 C 0.14788 0.80795 0.35764 0.0
H1198 H 0.14862 0.81239 0.17854 0.0
C1199 C 0.11966 0.83831 0.23217 0.0
C1200 C 0.13008 0.85 0.19341 0.0
C1201 C 0.1229 0.82727 0.25461 0.0
C1202 C 0.14817 0.81111 0.22858 0.0
H1203 H 0.16979 0.77911 0.47223 0.0
H1204 H 0.15101 0.78384 0.42004 0.0
H1205 H 0.16152 0.80024 0.22636 0.0
H1206 H 0.15156 0.85894 0.14528 0.0
H1207 H 0.15702 0.8397 0.18276 0.0
H1208 H 0.13518 0.81958 0.35987 0.0
C1209 C 0.16247 0.78909 0.40193 0.0
C1210 C 0.15557 0.80415 0.25597 0.0
C1211 C 0.17316 0.78632 0.43152 0.0
C1212 C 0.14332 0.85002 0.17498 0.0
C1213 C 0.1464 0.83893 0.19625 0.0
C1214 C 0.14046 0.81496 0.33014 0.0
C1215 C 0.16666 0.79877 0.35 0.0
C1216 C 0.15605 0.80305 0.32093 0.0
C1217 C 0.13643 0.8276 0.2374 0.0
C1218 C 0.14108 0.81718 0.26545 0.0
H1219 H 0.20381 0.80845 0.34031 0.0
H1220 H 0.1853 0.81304 0.28847 0.0
H1221 H 0.14809 0.80734 0.40783 0.0
H1222 H 0.10947 0.83818 0.24763 0.0
H1223 H 0.11501 0.81868 0.28629 0.0
C1224 C 0.39879 0.23184 0.55641 0.0
C1225 C 0.40075 0.22061 0.52713 0.0
C1226 C 0.38428 0.2286 0.5759 0.0
C1227 C 0.34332 0.20163 0.55281 0.0
H1228 H 0.33875 0.2057 0.72947 0.0
C1229 C 0.2907 0.15965 0.68614 0.0
C1230 C 0.28512 0.16435 0.73597 0.0
C1231 C 0.30389 0.16994 0.65507 0.0
C1232 C 0.3398 0.2048 0.67979 0.0
H1233 H 0.38919 0.19755 0.49257 0.0
H1234 H 0.36401 0.19207 0.52454 0.0
H1235 H 0.36412 0.21813 0.68308 0.0
H1236 H 0.28877 0.18364 0.79131 0.0
H1237 H 0.31223 0.20182 0.73706 0.0
H1238 H 0.31913 0.18779 0.54967 0.0
C1239 C 0.37355 0.20331 0.53303 0.0
C1240 C 0.35434 0.21192 0.65323 0.0
C1241 C 0.38798 0.20642 0.51497 0.0
C1242 C 0.29281 0.17974 0.7529 0.0
C1243 C 0.30625 0.19009 0.72213 0.0
C1244 C 0.32883 0.19459 0.57919 0.0
C1245 C 0.37153 0.21422 0.56483 0.0
C1246 C 0.35627 0.20986 0.58997 0.0
C1247 C 0.31201 0.18524 0.6732 0.0
C1248 C 0.32694 0.19553 0.64347 0.0
H1249 H 0.40852 0.24282 0.56688 0.0
H1250 H 0.38304 0.2372 0.60043 0.0
H1251 H 0.34444 0.20003 0.50374 0.0
H1252 H 0.28499 0.14788 0.67173 0.0
H1253 H 0.30808 0.16573 0.61833 0.0
C1254 C 0.85504 0.14077 0.78945 0.0
C1255 C 0.85429 0.12682 0.7787 0.0
C1256 C 0.84402 0.14364 0.76542 0.0
C1257 C 0.81949 0.13679 0.63634 0.0
H1258 H 0.80206 0.15474 0.74345 0.0
C1259 C 0.78973 0.16919 0.54095 0.0
C1260 C 0.79584 0.18366 0.56784 0.0
C1261 C 0.79279 0.15833 0.56713 0.0
C1262 C 0.80672 0.14966 0.71282 0.0
H1263 H 0.84147 0.10491 0.73417 0.0
H1264 H 0.82222 0.11022 0.68966 0.0
H1265 H 0.81523 0.14263 0.78915 0.0
H1266 H 0.80927 0.19784 0.64454 0.0
H1267 H 0.81442 0.17916 0.68978 0.0
H1268 H 0.81191 0.14483 0.55982 0.0
C1269 C 0.83128 0.11876 0.71789 0.0
C1270 C 0.81421 0.14267 0.73905 0.0
C1271 C 0.8422 0.1157 0.74349 0.0
C1272 C 0.80447 0.18683 0.62239 0.0
C1273 C 0.80731 0.17604 0.64878 0.0
C1274 C 0.81206 0.14393 0.60991 0.0
C1275 C 0.83212 0.13277 0.7289 0.0
C1276 C 0.82119 0.13672 0.70113 0.0
C1277 C 0.8017 0.16171 0.62128 0.0
C1278 C 0.8062 0.15103 0.64796 0.0
H1279 H 0.86421 0.14953 0.81653 0.0
H1280 H 0.84505 0.1546 0.77409 0.0
H1281 H 0.82485 0.13235 0.60609 0.0
H1282 H 0.78308 0.16647 0.49875 0.0
H1283 H 0.78831 0.14738 0.54489 0.0
C1284 C 0.88168 0.7265 0.70195 0.0
C1285 C 0.89236 0.73266 0.75017 0.0
C1286 C 0.87924 0.71348 0.67073 0.0
C1287 C 0.88042 0.67873 0.69209 0.0
H1288 H 0.87105 0.67432 0.51604 0.0
C1289 C 0.85066 0.62019 0.5642 0.0
C1290 C 0.83728 0.61781 0.53509 0.0
C1291 C 0.86146 0.63476 0.58507 0.0
C1292 C 0.87378 0.67539 0.56509 0.0
H1293 H 0.90913 0.7302 0.80279 0.0
H1294 H 0.90461 0.70701 0.74845 0.0
H1295 H 0.88304 0.69943 0.56348 0.0
H1296 H 0.825 0.62872 0.50234 0.0
H1297 H 0.84383 0.65396 0.53683 0.0
H1298 H 0.87043 0.65451 0.69392 0.0
C1299 C 0.89821 0.71242 0.73482 0.0
C1300 C 0.88062 0.68976 0.5923 0.0
C1301 C 0.90084 0.72569 0.76566 0.0
C1302 C 0.8352 0.63024 0.5247 0.0
C1303 C 0.84604 0.64472 0.54415 0.0
C1304 C 0.87359 0.6643 0.6647 0.0
C1305 C 0.8873 0.70615 0.68717 0.0
C1306 C 0.88339 0.69152 0.65659 0.0
C1307 C 0.85917 0.64714 0.57553 0.0
C1308 C 0.86961 0.66244 0.60144 0.0
H1309 H 0.87501 0.73164 0.68862 0.0
H1310 H 0.87059 0.70886 0.63498 0.0
H1311 H 0.88237 0.67971 0.74177 0.0
H1312 H 0.85244 0.61074 0.57319 0.0
H1313 H 0.87147 0.63632 0.60927 0.0
C1314 C 0.95797 0.49017 0.02383 0.0
C1315 C 0.95222 0.49475 0.07341 0.0
C1316 C 0.97084 0.50069 0.99149 0.0
C1317 C 1.00596 0.53651 0.01101 0.0
H1318 H 1.00936 0.5317 0.834 0.0
C1319 C 0.06399 0.56534 0.88002 0.0
C1320 C 0.06617 0.55448 0.84866 0.0
C1321 C 0.04948 0.56157 0.90177 0.0
C1322 C 1.00858 0.53331 0.88334 0.0
H1323 H 0.95524 0.51403 0.12723 0.0
H1324 H 0.97814 0.53259 0.0709 0.0
H1325 H 0.9845 0.51855 0.88376 0.0
H1326 H 0.05498 0.53155 0.81276 0.0
H1327 H 0.02983 0.52513 0.8488 0.0
H1328 H 0.03021 0.55072 0.01081 0.0
C1329 C 0.97254 0.52079 0.05709 0.0
C1330 C 0.99435 0.52575 0.91187 0.0
C1331 C 0.95942 0.51021 0.08906 0.0
C1332 C 0.0536 0.54014 0.83672 0.0
C1333 C 0.03917 0.5365 0.85712 0.0
C1334 C 0.02025 0.54411 0.98233 0.0
C1335 C 0.97843 0.51609 0.00814 0.0
C1336 C 0.99294 0.52674 0.97645 0.0
C1337 C 0.03695 0.54702 0.89102 0.0
C1338 C 0.02176 0.54206 0.91863 0.0
H1339 H 0.95264 0.47835 0.01036 0.0
H1340 H 0.97516 0.49662 0.95472 0.0
H1341 H 1.00526 0.53746 0.06088 0.0
H1342 H 0.07358 0.57643 0.89038 0.0
H1343 H 0.0481 0.56989 0.92786 0.0
C1344 C 0.47539 0.52262 0.95115 0.0
C1345 C 0.46563 0.5184 0.8997 0.0
C1346 C 0.47801 0.51205 0.9813 0.0
C1347 C 0.47984 0.47787 0.95315 0.0
H1348 H 0.48544 0.47964 0.13178 0.0
C1349 C 0.50987 0.44941 0.0806 0.0
C1350 C 0.52193 0.45995 0.11763 0.0
C1351 C 0.49903 0.45288 0.05758 0.0
C1352 C 0.48382 0.4789 0.08189 0.0
H1353 H 0.45067 0.49968 0.84017 0.0
H1354 H 0.45554 0.48105 0.89259 0.0
H1355 H 0.47324 0.49251 0.08415 0.0
H1356 H 0.53174 0.48196 0.16196 0.0
H1357 H 0.5129 0.48784 0.12328 0.0
H1358 H 0.49117 0.46487 0.95087 0.0
C1359 C 0.46105 0.4926 0.90963 0.0
C1360 C 0.47684 0.48628 0.05461 0.0
C1361 C 0.4582 0.50321 0.87991 0.0
C1362 C 0.52259 0.47363 0.13339 0.0
C1363 C 0.51171 0.47696 0.11155 0.0
C1364 C 0.48686 0.47046 0.98056 0.0
C1365 C 0.47109 0.49697 0.96043 0.0
C1366 C 0.47535 0.48639 0.98974 0.0
C1367 C 0.49993 0.46678 0.07258 0.0
C1368 C 0.48949 0.47145 0.045 0.0
H1369 H 0.48122 0.53422 0.9677 0.0
H1370 H 0.48596 0.51586 0.01968 0.0
H1371 H 0.47891 0.47779 0.90302 0.0
H1372 H 0.50918 0.43882 0.06742 0.0
H1373 H 0.49008 0.44483 0.02757 0.0
C1374 C 0.55073 0.062 0.02705 0.0
C1375 C 0.56045 0.06732 0.07867 0.0
C1376 C 0.54798 0.04883 -0.00384 0.0
C1377 C 0.54587 0.01256 0.02232 0.0
H1378 H 0.53988 0.00903 0.84384 0.0
C1379 C 0.51544 0.95419 0.89448 0.0
C1380 C 0.50328 0.95268 0.85824 0.0
C1381 C 0.52642 0.96852 0.9169 0.0
C1382 C 0.5416 0.00982 0.89367 0.0
H1383 H 0.57525 0.06321 0.13764 0.0
H1384 H 0.57019 0.03978 0.08386 0.0
H1385 H 0.55223 0.03402 0.8923 0.0
H1386 H 0.4934 0.96486 0.81461 0.0
H1387 H 0.51254 0.98966 0.85197 0.0
H1388 H 0.53453 0.98824 0.02375 0.0
C1389 C 0.56479 0.04596 0.06729 0.0
C1390 C 0.54866 0.02414 0.92145 0.0
C1391 C 0.56775 0.05938 0.09778 0.0
C1392 C 0.50268 0.96572 0.84233 0.0
C1393 C 0.51371 0.97995 0.86353 0.0
C1394 C 0.53877 0.99818 0.99441 0.0
C1395 C 0.55475 0.04048 0.01639 0.0
C1396 C 0.55032 0.02566 0.98634 0.0
C1397 C 0.52555 0.98154 0.90213 0.0
C1398 C 0.53601 0.99664 0.93003 0.0
H1399 H 0.54499 0.0679 0.01101 0.0
H1400 H 0.54004 0.04486 0.95776 0.0
H1401 H 0.54692 0.01334 0.07244 0.0
H1402 H 0.51603 0.94426 0.908 0.0
H1403 H 0.53541 0.9694 0.9466 0.0
C1404 C 0.16979 0.22154 0.06904 0.0
C1405 C 0.15408 0.2122 0.07776 0.0
C1406 C 0.17838 0.21567 0.04238 0.0
C1407 C 0.17583 0.17836 0.01139 0.0
H1408 H 0.21102 0.20183 0.90675 0.0
C1409 C 0.2011 0.15081 0.85613 0.0
C1410 C 0.21665 0.15589 0.86348 0.0
C1411 C 0.19461 0.15871 0.88294 0.0
C1412 C 0.20128 0.19522 0.93638 0.0
H1413 H 0.13489 0.18975 0.06183 0.0
H1414 H 0.14956 0.17977 0.01297 0.0
H1415 H 0.19724 0.21375 0.95002 0.0
H1416 H 0.23766 0.17354 0.90358 0.0
H1417 H 0.22627 0.18765 0.94936 0.0
H1418 H 0.17954 0.15971 0.99568 0.0
C1419 C 0.15551 0.1914 0.0291 0.0
C1420 C 0.19339 0.20203 0.96135 0.0
C1421 C 0.14703 0.19716 0.05661 0.0
C1422 C 0.22565 0.16932 0.89712 0.0
C1423 C 0.21917 0.17742 0.92311 0.0
C1424 C 0.18354 0.17154 0.98569 0.0
C1425 C 0.17137 0.2004 0.02313 0.0
C1426 C 0.1804 0.19361 -0.0015 0.0
C1427 C 0.20353 0.17203 0.91696 0.0
C1428 C 0.19622 0.17982 0.94739 0.0
H1429 H 0.17553 0.23318 0.08516 0.0
H1430 H 0.19056 0.22297 0.03887 0.0
H1431 H 0.16623 0.17159 0.04137 0.0
H1432 H 0.1938 0.1405 0.83068 0.0
H1433 H 0.18255 0.15437 0.87717 0.0
C1434 C 0.82418 0.95726 0.09603 0.0
C1435 C 0.80859 0.94799 0.10744 0.0
C1436 C 0.82989 0.97162 0.06996 0.0
C1437 C 0.8188 0.99659 0.98532 0.0
H1438 H 0.85933 0.02739 0.03507 0.0
C1439 C 0.85063 0.06156 0.91827 0.0
C1440 C 0.8643 0.06592 0.88648 0.0
C1441 C 0.84251 0.04717 0.94582 0.0
C1442 C 0.84798 0.0189 0.02094 0.0
H1443 H 0.78666 0.94648 0.0996 0.0
H1444 H 0.79668 0.97195 0.05603 0.0
H1445 H 0.84752 1.00253 0.08392 0.0
H1446 H 0.88015 0.0586 0.85898 0.0
H1447 H 0.86624 0.03381 0.90868 0.0
H1448 H 0.81937 0.01344 0.92334 0.0
C1449 C 0.80451 0.96796 0.06608 0.0
C1450 C 0.84123 1.00457 0.0484 0.0
C1451 C 0.79874 0.95338 0.09134 0.0
C1452 C 0.86964 0.0556 0.88277 0.0
C1453 C 0.86172 0.04142 0.91136 0.0
C1454 C 0.82549 0.0111 0.95866 0.0
C1455 C 0.82021 0.97735 0.05558 0.0
C1456 C 0.82669 0.99304 0.0299 0.0
C1457 C 0.84812 0.03709 0.94324 0.0
C1458 C 0.84027 0.02225 0.97536 0.0
H1459 H 0.83207 0.95337 0.10682 0.0
H1460 H 0.84195 0.97819 0.06076 0.0
H1461 H 0.80766 0.98806 0.96941 0.0
H1462 H 0.84624 0.06926 0.92191 0.0
H1463 H 0.83207 0.04407 0.97042 0.0
C1464 C 0.95664 0.79278 0.90766 0.0
C1465 C 0.95257 0.80164 0.87101 0.0
C1466 C 0.97127 0.79912 0.93312 0.0
C1467 C 1.00231 0.83547 0.98546 0.0
H1468 H 0.02911 0.81901 0.96395 0.0
C1469 C 0.06524 0.87202 0.03832 0.0
C1470 C 0.07295 0.86563 0.06835 0.0
C1471 C 0.05066 0.86288 0.01497 0.0
C1472 C 0.02169 0.82363 0.97121 0.0
H1473 H 0.96083 0.82404 0.83172 0.0
H1474 H 0.98605 0.83504 0.87684 0.0
H1475 H 1.0031 0.80516 0.92299 0.0
H1476 H 0.07164 0.84452 0.09518 0.0
H1477 H 0.04574 0.82836 0.05529 0.0
H1478 H 0.02052 0.85378 0.03403 0.0
C1479 C 0.97797 0.82321 0.88578 0.0
C1480 C 1.00682 0.81571 0.94766 0.0
C1481 C 0.96351 0.81687 0.85974 0.0
C1482 C 0.06594 0.84975 0.07233 0.0
C1483 C 0.05113 0.84052 0.04941 0.0
C1484 C 0.017 0.84325 0.00948 0.0
C1485 C 0.98198 0.81448 0.9232 0.0
C1486 C 0.99715 0.82178 0.95326 0.0
C1487 C 0.04319 0.84704 0.02173 0.0
C1488 C 0.02706 0.8377 0.00119 0.0
H1489 H 0.94848 0.781 0.91716 0.0
H1490 H 0.97407 0.79216 0.96195 0.0
H1491 H 0.99499 0.84026 0.99155 0.0
H1492 H 0.07042 0.88419 0.0333 0.0
H1493 H 0.04517 0.86831 0.99203 0.0
C1494 C 0.88669 0.82235 0.00288 0.0
C1495 C 0.88416 0.81546 0.94423 0.0
C1496 C 0.8802 0.83127 0.01815 0.0
C1497 C 0.8491 0.83822 0.96751 0.0
H1498 H 0.86868 0.8726 0.07918 0.0
C1499 C 0.82471 0.87774 0.0143 0.0
C1500 C 0.82332 0.88053 0.07724 0.0
C1501 C 0.83315 0.87092 -0.00322 0.0
C1502 C 0.86307 0.86299 0.04806 0.0
H1503 H 0.87363 0.81314 0.85447 0.0
H1504 H 0.86284 0.82906 0.87984 0.0
H1505 H 0.88167 0.85877 0.05067 0.0
H1506 H 0.83019 0.87891 0.17088 0.0
H1507 H 0.84506 0.86714 0.14021 0.0
H1508 H 0.83062 0.84261 0.96432 0.0
C1509 C 0.86927 0.82718 0.91523 0.0
C1510 C 0.87047 0.855 0.03191 0.0
C1511 C 0.87554 0.81812 0.90042 0.0
C1512 C 0.83097 0.8768 0.12205 0.0
C1513 C 0.83957 0.87017 0.10447 0.0
C1514 C 0.84182 0.84632 0.98301 0.0
C1515 C 0.87123 0.83366 0.97472 0.0
C1516 C 0.86357 0.84245 0.99151 0.0
C1517 C 0.84055 0.86692 0.04174 0.0
C1518 C 0.84868 0.85875 0.02365 0.0
H1519 H 0.89324 0.82043 0.03758 0.0
H1520 H 0.88186 0.8359 0.06462 0.0
H1521 H 0.8432 0.82843 0.93754 0.0
H1522 H 0.81886 0.88039 0.97876 0.0
H1523 H 0.83379 0.86865 0.94803 0.0
C1524 C 0.18952 0.06689 0.94014 0.0
C1525 C 0.20503 0.07523 0.95522 0.0
C1526 C 0.18071 0.05167 0.95787 0.0
C1527 C 0.16796 0.01746 0.96418 0.0
H1528 H 0.174 1.00354 0.12348 0.0
C1529 C 0.1462 0.95415 0.01688 0.0
C1530 C 0.14067 0.94872 0.07688 0.0
C1531 C 0.15291 0.96962 0.00319 0.0
C1532 C 0.17203 1.00723 0.07904 0.0
H1533 H 0.22327 0.07425 0.00307 0.0
H1534 H 0.20802 0.04775 0.0331 0.0
H1535 H 0.18751 0.03055 0.09993 0.0
H1536 H 0.13741 0.9553 0.1689 0.0
H1537 H 0.14907 0.98224 0.14501 0.0
H1538 H 0.1524 0.99413 0.94348 0.0
C1539 C 0.2026 0.05294 0.00783 0.0
C1540 C 0.17992 0.02272 0.06525 0.0
C1541 C 0.2114 0.06812 0.99001 0.0
C1542 C 0.14177 0.95912 0.12249 0.0
C1543 C 0.14847 0.97458 0.10879 0.0
C1544 C 0.16007 1.00195 0.97795 0.0
C1545 C 0.18718 0.04445 0.99136 0.0
C1546 C 0.1781 0.02804 0.00743 0.0
C1547 C 0.15426 0.98005 0.04913 0.0
C1548 C 0.16211 0.99662 0.03537 0.0
H1549 H 0.18427 0.07198 0.91301 0.0
H1550 H 0.16882 0.04552 0.94504 0.0
H1551 H 0.16638 0.02112 0.91897 0.0
H1552 H 0.14576 0.94652 0.98085 0.0
H1553 H 0.15744 0.97344 0.95701 0.0
C1554 C 0.95258 0.14867 0.00884 0.0
C1555 C 0.94579 0.13547 0.97226 0.0
C1556 C 0.96784 0.1554 0.026 0.0
C1557 C 1.00049 0.14885 0.0395 0.0
H1558 H 0.02384 0.19272 0.03052 0.0
C1559 C 0.06627 0.18354 0.06853 0.0
C1560 C 0.07214 0.19697 0.10361 0.0
C1561 C 0.05084 0.17541 0.0526 0.0
C1562 C 0.01748 0.18048 0.03395 0.0
H1563 H 0.94968 0.11876 0.92647 0.0
H1564 H 0.97639 0.13054 0.95637 0.0
H1565 H 0.99703 0.17958 0.00396 0.0
H1566 H 0.0663 0.21243 0.14867 0.0
H1567 H 0.03952 0.1982 0.12209 0.0
H1568 H 0.02107 0.14983 0.0694 0.0
C1569 C 0.96985 0.13563 0.97219 0.0
C1570 C 1.00206 0.17292 0.01877 0.0
C1571 C 0.95452 0.12886 0.95508 0.0
C1572 C 0.06218 0.20203 0.12246 0.0
C1573 C 0.04682 0.19396 0.10645 0.0
C1574 C 0.01597 0.15643 0.05469 0.0
C1575 C 0.97677 0.14915 0.00697 0.0
C1576 C 0.9933 0.15702 0.02191 0.0
C1577 C 0.04095 0.1806 0.07097 0.0
C1578 C 0.02462 0.17236 0.05269 0.0
H1579 H 0.94611 0.1539 0.02397 0.0
H1580 H 0.97267 0.16559 0.05409 0.0
H1581 H 0.99408 0.1366 0.04285 0.0
H1582 H 0.07359 0.17927 0.05352 0.0
H1583 H 0.04672 0.16523 0.02488 0.0
C1584 C 0.87 0.48415 0.17992 0.0
C1585 C 0.88488 0.48771 0.19454 0.0
C1586 C 0.8643 0.49333 0.20037 0.0
C1587 C 0.87053 0.52276 0.31723 0.0
H1588 H 0.84058 0.52574 0.21624 0.0
C1589 C 0.84036 0.55646 0.39022 0.0
C1590 C 0.82449 0.54711 0.39139 0.0
C1591 C 0.84946 0.55143 0.3617 0.0
C1592 C 0.84899 0.52508 0.24476 0.0
H1593 H 0.90551 0.50388 0.24191 0.0
H1594 H 0.89568 0.52021 0.27641 0.0
H1595 H 0.85362 0.51307 0.17478 0.0
H1596 H 0.80567 0.52555 0.36155 0.0
H1597 H 0.82146 0.51704 0.31015 0.0
H1598 H 0.8658 0.5349 0.38708 0.0
C1599 C 0.8883 0.51011 0.24997 0.0
C1600 C 0.8564 0.5177 0.22132 0.0
C1601 C 0.89398 0.5008 0.22991 0.0
C1602 C 0.81787 0.53297 0.36152 0.0
C1603 C 0.8269 0.52812 0.33189 0.0
C1604 C 0.86326 0.53036 0.34033 0.0
C1605 C 0.87335 0.50649 0.23547 0.0
C1606 C 0.86693 0.51601 0.25789 0.0
C1607 C 0.84278 0.53717 0.33251 0.0
C1608 C 0.85213 0.53122 0.3049 0.0
H1609 H 0.86259 0.4741 0.15327 0.0
H1610 H 0.85263 0.48989 0.18951 0.0
H1611 H 0.87846 0.52161 0.34705 0.0
H1612 H 0.84574 0.56738 0.41327 0.0
H1613 H 0.86169 0.55861 0.36269 0.0
C1614 C 0.51948 0.39385 0.23704 0.0
C1615 C 0.53452 0.39892 0.21835 0.0
C1616 C 0.50997 0.3787 0.25528 0.0
C1617 C 0.50688 0.34073 0.24245 0.0
H1618 H 0.48111 0.33032 0.388 0.0
C1619 C 0.48906 0.28712 0.38591 0.0
C1620 C 0.47381 0.27824 0.40385 0.0
C1621 C 0.49421 0.30108 0.35679 0.0
C1622 C 0.48808 0.33305 0.34668 0.0
H1623 H 0.55142 0.39207 0.206 0.0
H1624 H 0.53519 0.36615 0.2385 0.0
H1625 H 0.49442 0.35655 0.35024 0.0
H1626 H 0.45192 0.277 0.40513 0.0
H1627 H 0.46109 0.30181 0.35519 0.0
H1628 H 0.50115 0.31745 0.24065 0.0
C1629 C 0.53048 0.37361 0.23757 0.0
C1630 C 0.49569 0.34805 0.32498 0.0
C1631 C 0.53987 0.3886 0.21932 0.0
C1632 C 0.46372 0.28357 0.39142 0.0
C1633 C 0.46897 0.29777 0.36329 0.0
C1634 C 0.49944 0.32585 0.26446 0.0
C1635 C 0.51534 0.36836 0.25508 0.0
C1636 C 0.50555 0.35216 0.27363 0.0
C1637 C 0.48429 0.30666 0.3458 0.0
C1638 C 0.49027 0.32192 0.31769 0.0
H1639 H 0.51501 0.40153 0.23698 0.0
H1640 H 0.49837 0.37504 0.26852 0.0
H1641 H 0.51402 0.34336 0.20172 0.0
H1642 H 0.4971 0.2833 0.39475 0.0
H1643 H 0.50609 0.30774 0.34429 0.0
C1644 C 0.73412 0.18236 0.39941 0.0
C1645 C 0.74092 0.1982 0.40378 0.0
C1646 C 0.71953 0.17371 0.37384 0.0
C1647 C 0.68531 0.177 0.33997 0.0
H1648 H 0.67186 0.14005 0.2453 0.0
C1649 C 0.63138 0.15096 0.19177 0.0
C1650 C 0.62064 0.13563 0.20231 0.0
C1651 C 0.64594 0.1574 0.21689 0.0
C1652 C 0.67547 0.15029 0.27216 0.0
H1653 H 0.73835 0.21749 0.38099 0.0
H1654 H 0.71348 0.20266 0.33397 0.0
H1655 H 0.69789 0.15379 0.28559 0.0
H1656 H 0.617 0.11492 0.24629 0.0
H1657 H 0.64279 0.12622 0.28927 0.0
H1658 H 0.66312 0.1738 0.32468 0.0
C1659 C 0.71892 0.19671 0.35268 0.0
C1660 C 0.69036 0.15816 0.29538 0.0
C1661 C 0.73328 0.20527 0.3791 0.0
C1662 C 0.62499 0.12677 0.23739 0.0
C1663 C 0.63974 0.1332 0.26178 0.0
C1664 C 0.6706 0.1693 0.31607 0.0
C1665 C 0.71158 0.18077 0.35143 0.0
C1666 C 0.69556 0.17178 0.3288 0.0
C1667 C 0.65026 0.14865 0.25247 0.0
C1668 C 0.66557 0.15598 0.28128 0.0
H1669 H 0.73975 0.17662 0.41839 0.0
H1670 H 0.71429 0.16148 0.37388 0.0
H1671 H 0.68864 0.18712 0.3672 0.0
H1672 H 0.62847 0.15815 0.16505 0.0
H1673 H 0.65387 0.1693 0.20859 0.0
C1674 C 0.53915 0.14188 0.33846 0.0
C1675 C 0.55222 0.14806 0.30092 0.0
C1676 C 0.53307 0.15081 0.3584 0.0
C1677 C 0.53176 0.18531 0.31779 0.0
H1678 H 0.51474 0.18046 0.48303 0.0
C1679 C 0.50544 0.22109 0.405 0.0
C1680 C 0.49191 0.21335 0.43947 0.0
C1681 C 0.51395 0.21412 0.39062 0.0
C1682 C 0.51932 0.18187 0.43651 0.0
H1683 H 0.56923 0.1686 0.25563 0.0
H1684 H 0.55869 0.18424 0.29098 0.0
H1685 H 0.52757 0.16658 0.45403 0.0
H1686 H 0.47664 0.192 0.48469 0.0
H1687 H 0.49138 0.17992 0.45981 0.0
H1688 H 0.52328 0.20041 0.29992 0.0
C1689 C 0.55309 0.17242 0.30456 0.0
C1690 C 0.5267 0.17391 0.41991 0.0
C1691 C 0.55923 0.1635 0.28486 0.0
C1692 C 0.48716 0.19847 0.45933 0.0
C1693 C 0.49564 0.19151 0.44496 0.0
C1694 C 0.52434 0.19326 0.33436 0.0
C1695 C 0.53986 0.16615 0.3412 0.0
C1696 C 0.53286 0.17538 0.3601 0.0
C1697 C 0.50913 0.1992 0.41028 0.0
C1698 C 0.51786 0.1915 0.39372 0.0
H1699 H 0.53355 0.13008 0.35225 0.0
H1700 H 0.5228 0.14555 0.38606 0.0
H1701 H 0.5362 0.18659 0.27109 0.0
H1702 H 0.50951 0.2326 0.38941 0.0
H1703 H 0.52436 0.22046 0.36446 0.0
C1704 C 0.82149 0.29071 0.45399 0.0
C1705 C 0.80667 0.28048 0.43366 0.0
C1706 C 0.8284 0.30612 0.43934 0.0
C1707 C 0.82673 0.33294 0.32818 0.0
H1708 H 0.85259 0.36286 0.44979 0.0
C1709 C 0.85612 0.3976 0.28032 0.0
C1710 C 0.8715 0.40611 0.29735 0.0
C1711 C 0.8472 0.3825 0.29961 0.0
C1712 C 0.84548 0.35465 0.41514 0.0
H1713 H 0.78749 0.27854 0.38209 0.0
H1714 H 0.79955 0.3055 0.3566 0.0
H1715 H 0.83885 0.33611 0.47794 0.0
H1716 H 0.88938 0.40559 0.35002 0.0
H1717 H 0.87392 0.37932 0.38318 0.0
H1718 H 0.8335 0.35152 0.26524 0.0
C1719 C 0.80588 0.30154 0.38343 0.0
C1720 C 0.83761 0.33929 0.43125 0.0
C1721 C 0.79895 0.28608 0.39809 0.0
C1722 C 0.87762 0.39931 0.33552 0.0
C1723 C 0.8687 0.38428 0.35505 0.0
C1724 C 0.83459 0.34833 0.31209 0.0
C1725 C 0.8207 0.31176 0.40391 0.0
C1726 C 0.8283 0.3282 0.38775 0.0
C1727 C 0.85342 0.37562 0.33681 0.0
C1728 C 0.84423 0.35936 0.35514 0.0
H1729 H 0.82793 0.28678 0.48021 0.0
H1730 H 0.83993 0.31356 0.45478 0.0
H1731 H 0.81981 0.32472 0.29324 0.0
H1732 H 0.85108 0.40246 0.25058 0.0
H1733 H 0.83543 0.37621 0.28523 0.0
C1734 C 0.73632 0.5321 0.35822 0.0
C1735 C 0.74181 0.52779 0.40946 0.0
C1736 C 0.721 0.52381 0.34173 0.0
C1737 C 0.68296 0.49478 0.40286 0.0
H1738 H 0.67173 0.49366 0.23022 0.0
C1739 C 0.6206 0.47226 0.3283 0.0
C1740 C 0.61601 0.46591 0.26893 0.0
C1741 C 0.6358 0.47874 0.34645 0.0
C1742 C 0.67456 0.49356 0.2786 0.0
H1743 H 0.73569 0.51131 0.48316 0.0
H1744 H 0.70904 0.4963 0.4528 0.0
H1745 H 0.69826 0.50618 0.25847 0.0
H1746 H 0.6234 0.4607 0.1829 0.0
H1747 H 0.64971 0.47114 0.21538 0.0
H1748 H 0.65923 0.48144 0.42245 0.0
C1749 C 0.7164 0.50638 0.42631 0.0
C1750 C 0.6899 0.50108 0.2951 0.0
C1751 C 0.73171 0.51489 0.44355 0.0
C1752 C 0.62673 0.46565 0.22881 0.0
C1753 C 0.64185 0.4718 0.24737 0.0
C1754 C 0.66759 0.48699 0.38618 0.0
C1755 C 0.71078 0.51077 0.37533 0.0
C1756 C 0.69436 0.50201 0.35758 0.0
C1757 C 0.64672 0.47874 0.30601 0.0
C1758 C 0.66314 0.4864 0.32384 0.0
H1759 H 0.74383 0.54216 0.33178 0.0
H1760 H 0.71716 0.52787 0.30328 0.0
H1761 H 0.68582 0.49534 0.45157 0.0
H1762 H 0.61252 0.47272 0.35978 0.0
H1763 H 0.63903 0.48416 0.39149 0.0
C1764 C 0.54338 0.81844 0.64434 0.0
C1765 C 0.55431 0.8219 0.59777 0.0
C1766 C 0.53931 0.82908 0.66255 0.0
C1767 C 0.53447 0.85899 0.59919 0.0
H1768 H 0.52806 0.86624 0.77058 0.0
C1769 C 0.48816 0.87179 0.68072 0.0
C1770 C 0.49189 0.88324 0.72512 0.0
C1771 C 0.49883 0.86777 0.6622 0.0
C1772 C 0.53 0.86453 0.72252 0.0
H1773 H 0.56984 0.83934 0.53464 0.0
H1774 H 0.5623 0.85792 0.56522 0.0
H1775 H 0.54177 0.85275 0.74742 0.0
H1776 H 0.50983 0.8997 0.78409 0.0
H1777 H 0.52847 0.89227 0.75303 0.0
H1778 H 0.52187 0.86993 0.57438 0.0
C1779 C 0.5571 0.847 0.58821 0.0
C1780 C 0.53777 0.85675 0.7093 0.0
C1781 C 0.56146 0.83643 0.57099 0.0
C1782 C 0.50669 0.8909 0.74946 0.0
C1783 C 0.5173 0.88661 0.73197 0.0
C1784 C 0.52646 0.86652 0.61244 0.0
C1785 C 0.54583 0.84333 0.63364 0.0
C1786 C 0.5398 0.85363 0.64753 0.0
C1787 C 0.5134 0.87488 0.68863 0.0
C1788 C 0.52387 0.86909 0.67426 0.0
H1789 H 0.53771 0.80732 0.66578 0.0
H1790 H 0.5305 0.82588 0.69723 0.0
H1791 H 0.53576 0.85663 0.55119 0.0
H1792 H 0.47684 0.86572 0.66111 0.0
H1793 H 0.49545 0.85861 0.62918 0.0
C1794 C 0.18395 0.72932 0.56383 0.0
C1795 C 0.19748 0.73398 0.53043 0.0
C1796 C 0.17557 0.71445 0.58677 0.0
C1797 C 0.18071 0.68352 0.64041 0.0
H1798 H 0.13827 0.65613 0.60263 0.0
C1799 C 0.15404 0.62052 0.69569 0.0
C1800 C 0.1391 0.61258 0.71808 0.0
C1801 C 0.15995 0.63505 0.67102 0.0
C1802 C 0.15006 0.66368 0.61446 0.0
H1803 H 0.21272 0.72663 0.49482 0.0
H1804 H 0.19835 0.70101 0.53591 0.0
H1805 H 0.15071 0.6824 0.56546 0.0
H1806 H 0.1184 0.61337 0.7304 0.0
H1807 H 0.12888 0.63912 0.68894 0.0
H1808 H 0.18022 0.66524 0.69045 0.0
C1809 C 0.19417 0.70878 0.54395 0.0
C1810 C 0.15716 0.67871 0.59303 0.0
C1811 C 0.20236 0.72346 0.52023 0.0
C1812 C 0.12995 0.61925 0.71315 0.0
C1813 C 0.13598 0.63399 0.68935 0.0
C1814 C 0.17361 0.66866 0.66252 0.0
C1815 C 0.18075 0.70412 0.57772 0.0
C1816 C 0.17264 0.68865 0.60479 0.0
C1817 C 0.1512 0.64223 0.6693 0.0
C1818 C 0.15828 0.65838 0.64867 0.0
H1819 H 0.17988 0.73715 0.57239 0.0
H1820 H 0.16527 0.71113 0.61288 0.0
H1821 H 0.19259 0.69103 0.65101 0.0
H1822 H 0.16129 0.61557 0.69807 0.0
H1823 H 0.17152 0.64074 0.65407 0.0
C1824 C 0.29104 0.45773 0.58821 0.0
C1825 C 0.28352 0.46562 0.60481 0.0
C1826 C 0.30555 0.46224 0.61206 0.0
C1827 C 0.3314 0.48328 0.74085 0.0
H1828 H 0.36432 0.49455 0.62377 0.0
C1829 C 0.39278 0.52595 0.80597 0.0
C1830 C 0.40476 0.52431 0.78247 0.0
C1831 C 0.3779 0.51646 0.78601 0.0
C1832 C 0.35526 0.49119 0.65732 0.0
H1833 H 0.2849 0.48391 0.66121 0.0
H1834 H 0.30984 0.49145 0.70376 0.0
H1835 H 0.33805 0.48136 0.58689 0.0
H1836 H 0.41043 0.51127 0.71944 0.0
H1837 H 0.38429 0.49448 0.68498 0.0
H1838 H 0.34842 0.49317 0.81122 0.0
C1839 C 0.3047 0.48193 0.67201 0.0
C1840 C 0.34021 0.48364 0.63611 0.0
C1841 C 0.29045 0.47765 0.64734 0.0
C1842 C 0.40146 0.51283 0.73854 0.0
C1843 C 0.38648 0.50326 0.71855 0.0
C1844 C 0.34637 0.49067 0.76211 0.0
C1845 C 0.31252 0.47444 0.65403 0.0
C1846 C 0.32817 0.48003 0.67744 0.0
C1847 C 0.3745 0.50495 0.74215 0.0
C1848 C 0.35855 0.49519 0.72038 0.0
H1849 H 0.28597 0.44846 0.55526 0.0
H1850 H 0.31133 0.45627 0.59754 0.0
H1851 H 0.32232 0.48044 0.77387 0.0
H1852 H 0.39486 0.5347 0.83962 0.0
H1853 H 0.36908 0.51838 0.80424 0.0
C1854 C 0.16879 0.55515 0.69714 0.0
C1855 C 0.15693 0.54822 0.74085 0.0
C1856 C 0.17707 0.54818 0.67911 0.0
C1857 C 0.18786 0.5204 0.72909 0.0
H1858 H 0.19243 0.51522 0.55344 0.0
C1859 C 0.20807 0.47988 0.64396 0.0
C1860 C 0.21711 0.48361 0.59032 0.0
C1861 C 0.2015 0.48849 0.66187 0.0
C1862 C 0.19153 0.51678 0.60268 0.0
H1863 H 0.14461 0.52835 0.79952 0.0
H1864 H 0.1594 0.51659 0.76975 0.0
H1865 H 0.18009 0.52933 0.58646 0.0
H1866 H 0.22641 0.49935 0.51345 0.0
H1867 H 0.2153 0.51471 0.54552 0.0
H1868 H 0.19946 0.50814 0.74582 0.0
C1869 C 0.16226 0.52745 0.74957 0.0
C1870 C 0.18439 0.52484 0.62155 0.0
C1871 C 0.15384 0.53428 0.76692 0.0
C1872 C 0.21941 0.49615 0.55482 0.0
C1873 C 0.21298 0.50491 0.57317 0.0
C1874 C 0.19516 0.51253 0.71033 0.0
C1875 C 0.17386 0.53423 0.70504 0.0
C1876 C 0.1823 0.52655 0.68495 0.0
C1877 C 0.20393 0.50121 0.62705 0.0
C1878 C 0.1969 0.51039 0.64683 0.0
H1879 H 0.17172 0.56598 0.67671 0.0
H1880 H 0.18606 0.55375 0.64515 0.0
H1881 H 0.18659 0.52173 0.7783 0.0
H1882 H 0.20585 0.4701 0.67166 0.0
H1883 H 0.19431 0.48499 0.70266 0.0
C1884 C 0.46556 0.61588 0.70731 0.0
C1885 C 0.47237 0.60763 0.68606 0.0
C1886 C 0.47164 0.63117 0.69134 0.0
C1887 C 0.49734 0.66061 0.57948 0.0
H1888 H 0.50182 0.68865 0.7107 0.0
C1889 C 0.52165 0.72464 0.53292 0.0
C1890 C 0.53241 0.73471 0.57587 0.0
C1891 C 0.51313 0.70909 0.54561 0.0
C1892 C 0.50068 0.68098 0.67356 0.0
H1893 H 0.49055 0.60885 0.62922 0.0
H1894 H 0.50118 0.63547 0.60173 0.0
H1895 H 0.48917 0.66152 0.7325 0.0
H1896 H 0.54254 0.73615 0.66615 0.0
H1897 H 0.52761 0.70914 0.6884 0.0
H1898 H 0.50918 0.68009 0.52094 0.0
C1899 C 0.49113 0.63014 0.63065 0.0
C1900 C 0.49328 0.6654 0.68587 0.0
C1901 C 0.48511 0.61491 0.6469 0.0
C1902 C 0.53419 0.72883 0.63239 0.0
C1903 C 0.52563 0.7133 0.64515 0.0
C1904 C 0.50467 0.67617 0.56708 0.0
C1905 C 0.4846 0.63854 0.65335 0.0
C1906 C 0.49166 0.65502 0.63916 0.0
C1907 C 0.5151 0.70321 0.60169 0.0
C1908 C 0.50658 0.68658 0.61413 0.0
H1909 H 0.45581 0.61066 0.73792 0.0
H1910 H 0.46624 0.63725 0.70907 0.0
H1911 H 0.49616 0.65293 0.54228 0.0
H1912 H 0.51979 0.72877 0.48935 0.0
H1913 H 0.50496 0.70168 0.5115 0.0
C1914 C 0.28521 0.81556 0.66687 0.0
C1915 C 0.27832 0.80271 0.62825 0.0
C1916 C 0.30035 0.82174 0.68533 0.0
C1917 C 0.33627 0.82415 0.63801 0.0
H1918 H 0.34906 0.83948 0.80507 0.0
C1919 C 0.39892 0.85031 0.71759 0.0
C1920 C 0.40471 0.86321 0.75591 0.0
C1921 C 0.38337 0.84188 0.7042 0.0
C1922 C 0.34573 0.8354 0.75801 0.0
H1923 H 0.28193 0.78617 0.57939 0.0
H1924 H 0.30837 0.79692 0.61191 0.0
H1925 H 0.32218 0.82663 0.77845 0.0
H1926 H 0.39864 0.87749 0.8091 0.0
H1927 H 0.37169 0.86294 0.7855 0.0
H1928 H 0.35982 0.83319 0.61711 0.0
C1929 C 0.30205 0.80226 0.62762 0.0
C1930 C 0.33029 0.828 0.74281 0.0
C1931 C 0.28686 0.79601 0.60952 0.0
C1932 C 0.39456 0.86744 0.78049 0.0
C1933 C 0.37906 0.85907 0.76694 0.0
C1934 C 0.35173 0.83163 0.65312 0.0
C1935 C 0.30902 0.81527 0.66537 0.0
C1936 C 0.32537 0.8224 0.68247 0.0
C1937 C 0.37322 0.84617 0.72855 0.0
C1938 C 0.35669 0.8375 0.71319 0.0
H1939 H 0.27892 0.82093 0.6826 0.0
H1940 H 0.30537 0.83183 0.71399 0.0
H1941 H 0.3329 0.82014 0.59088 0.0
H1942 H 0.4064 0.84666 0.69835 0.0
H1943 H 0.37929 0.83191 0.67514 0.0
loop_
_geom_bond_atom_site_label_1
_geom_bond_atom_site_label_2
_geom_bond_distance
_geom_bond_site_symmetry_2
_ccdc_geom_bond_type
C0 C1 1.346 1_554 S
C0 N3 1.369 . S
C0 H5 0.933 . S
C1 C0 1.346 1_556 S
C1 N2 1.373 . S
C1 H29 0.930 . S
N2 C1 1.373 . S
N2 C4 1.340 . S
N3 C0 1.369 . S
N3 C4 1.321 1_554 S
N3 Co6 2.135 . S
C4 N2 1.340 . S
C4 N3 1.321 1_556 S
C4 H28 0.930 . S
H5 C0 0.933 . S
Co6 N3 2.135 . S
Co6 N9 2.121 . S
Co6 O14 2.055 . S
Co6 O17 2.039 . S
Co6 N20 2.140 . S
C7 O8 1.227 . S
C7 O17 1.265 . S
O8 C7 1.227 . S
N9 Co6 2.121 . S
N9 C11 1.375 . S
N9 C12 1.313 . S
C10 C11 1.338 . S
C10 N13 1.377 . S
C10 H30 0.930 . S
C11 N9 1.375 . S
C11 C10 1.338 . S
C11 H15 0.931 . S
C12 N9 1.313 . S
C12 N13 1.344 . S
C12 H16 0.930 . S
N13 C10 1.377 . S
N13 C12 1.344 . S
O14 Co6 2.055 . S
O14 C18 1.253 . S
H15 C11 0.931 . S
H16 C12 0.930 . S
O17 Co6 2.039 . S
O17 C7 1.265 . S
C18 O14 1.253 . S
C18 O19 1.227 . S
O19 C18 1.227 . S
N20 Co6 2.140 . S
N20 C23 1.346 . S
N20 C24 1.345 . S
C21 C22 1.387 . S
C21 C25 1.391 . S
C22 C21 1.387 . S
C22 C23 1.369 . S
C22 H31 0.929 . S
C23 N20 1.346 . S
C23 C22 1.369 . S
C23 H26 0.928 . S
C24 N20 1.345 . S
C24 C25 1.371 . S
C24 H27 0.931 . S
C25 C21 1.391 . S
C25 C24 1.371 . S
C25 H32 0.930 . S
H26 C23 0.928 . S
H27 C24 0.931 . S
H28 C4 0.930 . S
H29 C1 0.930 . S
H30 C10 0.930 . S
H31 C22 0.929 . S
H32 C25 0.930 . S
C33 C34 1.346 1_554 S
C33 N36 1.369 . S
C33 H38 0.934 . S
C34 C33 1.346 1_556 S
C34 N35 1.373 . S
C34 H62 0.930 . S
N35 C34 1.373 . S
N35 C37 1.340 . S
N36 C33 1.369 . S
N36 C37 1.321 1_554 S
N36 Co39 2.135 . S
C37 N35 1.340 . S
C37 N36 1.321 1_556 S
C37 H61 0.930 . S
H38 C33 0.934 . S
Co39 N36 2.135 . S
Co39 N42 2.121 . S
Co39 O47 2.055 . S
Co39 O50 2.039 . S
Co39 N53 2.140 . S
C40 O41 1.227 . S
C40 O50 1.265 . S
O41 C40 1.227 . S
N42 Co39 2.121 . S
N42 C44 1.375 . S
N42 C45 1.313 . S
C43 C44 1.338 . S
C43 N46 1.377 . S
C43 H63 0.930 . S
C44 N42 1.375 . S
C44 C43 1.338 . S
C44 H48 0.931 . S
C45 N42 1.313 . S
C45 N46 1.344 . S
C45 H49 0.930 . S
N46 C43 1.377 . S
N46 C45 1.344 . S
O47 Co39 2.055 . S
O47 C51 1.253 . S
H48 C44 0.931 . S
H49 C45 0.930 . S
O50 Co39 2.039 . S
O50 C40 1.265 . S
C51 O47 1.253 . S
C51 O52 1.227 . S
O52 C51 1.227 . S
N53 Co39 2.140 . S
N53 C56 1.346 . S
N53 C57 1.345 . S
C54 C55 1.387 . S
C54 C58 1.391 . S
C55 C54 1.387 . S
C55 C56 1.369 . S
C55 H64 0.929 . S
C56 N53 1.346 . S
C56 C55 1.369 . S
C56 H59 0.928 . S
C57 N53 1.345 . S
C57 C58 1.371 . S
C57 H60 0.931 . S
C58 C54 1.391 . S
C58 C57 1.371 . S
C58 H65 0.930 . S
H59 C56 0.928 . S
H60 C57 0.931 . S
H61 C37 0.930 . S
H62 C34 0.930 . S
H63 C43 0.930 . S
H64 C55 0.929 . S
H65 C58 0.930 . S
C66 C67 1.344 1_554 S
C66 N69 1.370 . S
C66 H71 0.935 . S
C67 C66 1.344 1_556 S
C67 N68 1.373 . S
C67 H95 0.930 . S
N68 C67 1.373 . S
N68 C70 1.340 . S
N69 C66 1.370 . S
N69 C70 1.321 1_554 S
N69 Co72 2.135 . S
C70 N68 1.340 . S
C70 N69 1.321 1_556 S
C70 H94 0.930 . S
H71 C66 0.935 . S
Co72 N69 2.135 . S
Co72 N75 2.121 . S
Co72 O80 2.055 . S
Co72 O83 2.039 . S
Co72 N86 2.140 . S
C73 O74 1.227 . S
C73 O83 1.265 . S
O74 C73 1.227 . S
N75 Co72 2.121 . S
N75 C77 1.375 . S
N75 C78 1.313 . S
C76 C77 1.338 . S
C76 N79 1.377 . S
C76 H96 0.930 . S
C77 N75 1.375 . S
C77 C76 1.338 . S
C77 H81 0.931 . S
C78 N75 1.313 . S
C78 N79 1.344 . S
C78 H82 0.930 . S
N79 C76 1.377 . S
N79 C78 1.344 . S
O80 Co72 2.055 . S
O80 C84 1.253 . S
H81 C77 0.931 . S
H82 C78 0.930 . S
O83 Co72 2.039 . S
O83 C73 1.265 . S
C84 O80 1.253 . S
C84 O85 1.227 . S
O85 C84 1.227 . S
N86 Co72 2.140 . S
N86 C89 1.346 . S
N86 C90 1.345 . S
C87 C88 1.387 . S
C87 C91 1.391 . S
C88 C87 1.387 . S
C88 C89 1.369 . S
C88 H97 0.929 . S
C89 N86 1.346 . S
C89 C88 1.369 . S
C89 H92 0.928 . S
C90 N86 1.345 . S
C90 C91 1.371 . S
C90 H93 0.931 . S
C91 C87 1.391 . S
C91 C90 1.371 . S
C91 H98 0.930 . S
H92 C89 0.928 . S
H93 C90 0.931 . S
H94 C70 0.930 . S
H95 C67 0.930 . S
H96 C76 0.930 . S
H97 C88 0.929 . S
H98 C91 0.930 . S
C99 C100 1.346 1_556 S
C99 N102 1.369 . S
C99 H104 0.933 . S
C100 C99 1.346 1_554 S
C100 N101 1.373 . S
C100 H128 0.930 . S
N101 C100 1.373 . S
N101 C103 1.340 . S
N102 C99 1.369 . S
N102 C103 1.321 1_556 S
N102 Co105 2.135 . S
C103 N101 1.340 . S
C103 N102 1.321 1_554 S
C103 H127 0.930 . S
H104 C99 0.933 . S
Co105 N102 2.135 . S
Co105 N108 2.121 . S
Co105 O113 2.055 . S
Co105 O116 2.039 . S
Co105 N119 2.140 . S
C106 O107 1.227 . S
C106 O116 1.265 . S
O107 C106 1.227 . S
N108 Co105 2.121 . S
N108 C110 1.375 . S
N108 C111 1.313 . S
C109 C110 1.338 . S
C109 N112 1.377 . S
C109 H129 0.930 . S
C110 N108 1.375 . S
C110 C109 1.338 . S
C110 H114 0.931 . S
C111 N108 1.313 . S
C111 N112 1.344 . S
C111 H115 0.930 . S
N112 C109 1.377 . S
N112 C111 1.344 . S
O113 Co105 2.055 . S
O113 C117 1.253 . S
H114 C110 0.931 . S
H115 C111 0.930 . S
O116 Co105 2.039 . S
O116 C106 1.265 . S
C117 O113 1.253 . S
C117 O118 1.227 . S
O118 C117 1.227 . S
N119 Co105 2.140 . S
N119 C122 1.346 . S
N119 C123 1.345 . S
C120 C121 1.387 . S
C120 C124 1.391 . S
C121 C120 1.387 . S
C121 C122 1.369 . S
C121 H130 0.929 . S
C122 N119 1.346 . S
C122 C121 1.369 . S
C122 H125 0.928 . S
C123 N119 1.345 . S
C123 C124 1.371 . S
C123 H126 0.931 . S
C124 C120 1.391 . S
C124 C123 1.371 . S
C124 H131 0.930 . S
H125 C122 0.928 . S
H126 C123 0.931 . S
H127 C103 0.930 . S
H128 C100 0.930 . S
H129 C109 0.930 . S
H130 C121 0.929 . S
H131 C124 0.930 . S
C132 C133 1.344 1_556 S
C132 N135 1.370 . S
C132 H137 0.935 . S
C133 C132 1.344 1_554 S
C133 N134 1.373 . S
C133 H161 0.930 . S
N134 C133 1.373 . S
N134 C136 1.340 . S
N135 C132 1.370 . S
N135 C136 1.321 1_556 S
N135 Co138 2.135 . S
C136 N134 1.340 . S
C136 N135 1.321 1_554 S
C136 H160 0.930 . S
H137 C132 0.935 . S
Co138 N135 2.135 . S
Co138 N141 2.121 . S
Co138 O146 2.055 . S
Co138 O149 2.039 . S
Co138 N152 2.140 . S
C139 O140 1.227 . S
C139 O149 1.265 . S
O140 C139 1.227 . S
N141 Co138 2.121 . S
N141 C143 1.375 . S
N141 C144 1.313 . S
C142 C143 1.338 . S
C142 N145 1.377 . S
C142 H162 0.930 . S
C143 N141 1.375 . S
C143 C142 1.338 . S
C143 H147 0.931 . S
C144 N141 1.313 . S
C144 N145 1.344 . S
C144 H148 0.930 . S
N145 C142 1.377 . S
N145 C144 1.344 . S
O146 Co138 2.055 . S
O146 C150 1.253 . S
H147 C143 0.931 . S
H148 C144 0.930 . S
O149 Co138 2.039 . S
O149 C139 1.265 . S
C150 O146 1.253 . S
C150 O151 1.227 . S
O151 C150 1.227 . S
N152 Co138 2.140 . S
N152 C155 1.346 . S
N152 C156 1.345 . S
C153 C154 1.387 . S
C153 C157 1.391 . S
C154 C153 1.387 . S
C154 C155 1.369 . S
C154 H163 0.929 . S
C155 N152 1.346 . S
C155 C154 1.369 . S
C155 H158 0.928 . S
C156 N152 1.345 . S
C156 C157 1.371 . S
C156 H159 0.931 . S
C157 C153 1.391 . S
C157 C156 1.371 . S
C157 H164 0.930 . S
H158 C155 0.928 . S
H159 C156 0.931 . S
H160 C136 0.930 . S
H161 C133 0.930 . S
H162 C142 0.930 . S
H163 C154 0.929 . S
H164 C157 0.930 . S
C165 C166 1.346 1_556 S
C165 N168 1.369 . S
C165 H170 0.934 . S
C166 C165 1.346 1_554 S
C166 N167 1.373 . S
C166 H194 0.930 . S
N167 C166 1.373 . S
N167 C169 1.340 . S
N168 C165 1.369 . S
N168 C169 1.321 1_556 S
N168 Co171 2.135 . S
C169 N167 1.340 . S
C169 N168 1.321 1_554 S
C169 H193 0.930 . S
H170 C165 0.934 . S
Co171 N168 2.135 . S
Co171 N174 2.121 . S
Co171 O179 2.055 . S
Co171 O182 2.039 . S
Co171 N185 2.140 . S
C172 O173 1.227 . S
C172 O182 1.265 . S
O173 C172 1.227 . S
N174 Co171 2.121 . S
N174 C176 1.375 . S
N174 C177 1.313 . S
C175 C176 1.338 . S
C175 N178 1.377 . S
C175 H195 0.930 . S
C176 N174 1.375 . S
C176 C175 1.338 . S
C176 H180 0.931 . S
C177 N174 1.313 . S
C177 N178 1.344 . S
C177 H181 0.930 . S
N178 C175 1.377 . S
N178 C177 1.344 . S
O179 Co171 2.055 . S
O179 C183 1.253 . S
H180 C176 0.931 . S
H181 C177 0.930 . S
O182 Co171 2.039 . S
O182 C172 1.265 . S
C183 O179 1.253 . S
C183 O184 1.227 . S
O184 C183 1.227 . S
N185 Co171 2.140 . S
N185 C188 1.346 . S
N185 C189 1.345 . S
C186 C187 1.387 . S
C186 C190 1.391 . S
C187 C186 1.387 . S
C187 C188 1.369 . S
C187 H196 0.929 . S
C188 N185 1.346 . S
C188 C187 1.369 . S
C188 H191 0.928 . S
C189 N185 1.345 . S
C189 C190 1.371 . S
C189 H192 0.931 . S
C190 C186 1.391 . S
C190 C189 1.371 . S
C190 H197 0.930 . S
H191 C188 0.928 . S
H192 C189 0.931 . S
H193 C169 0.930 . S
H194 C166 0.930 . S
H195 C175 0.930 . S
H196 C187 0.929 . S
H197 C190 0.930 . S
C198 C199 1.351 . S
C198 N201 1.368 . S
C198 H203 0.931 . S
C199 C198 1.351 . S
C199 N200 1.373 . S
C199 H227 0.930 . S
N200 C199 1.373 . S
N200 C202 1.340 . S
N201 C198 1.368 . S
N201 C202 1.321 . S
N201 Co204 2.135 . S
C202 N200 1.340 . S
C202 N201 1.321 . S
C202 H226 0.930 . S
H203 C198 0.931 . S
Co204 N201 2.135 . S
Co204 N207 2.121 . S
Co204 O212 2.055 . S
Co204 O215 2.039 . S
Co204 N218 2.140 . S
C205 O206 1.227 . S
C205 O215 1.265 . S
O206 C205 1.227 . S
N207 Co204 2.121 . S
N207 C209 1.375 . S
N207 C210 1.313 . S
C208 C209 1.338 . S
C208 N211 1.377 . S
C208 H228 0.930 . S
C209 N207 1.375 . S
C209 C208 1.338 . S
C209 H213 0.931 . S
C210 N207 1.313 . S
C210 N211 1.344 . S
C210 H214 0.930 . S
N211 C208 1.377 . S
N211 C210 1.344 . S
O212 Co204 2.055 . S
O212 C216 1.253 . S
H213 C209 0.931 . S
H214 C210 0.930 . S
O215 Co204 2.039 . S
O215 C205 1.265 . S
C216 O212 1.253 . S
C216 O217 1.227 . S
O217 C216 1.227 . S
N218 Co204 2.140 . S
N218 C221 1.346 . S
N218 C222 1.345 . S
C219 C220 1.387 . S
C219 C223 1.391 . S
C220 C219 1.387 . S
C220 C221 1.369 . S
C220 H229 0.929 . S
C221 N218 1.346 . S
C221 C220 1.369 . S
C221 H224 0.928 . S
C222 N218 1.345 . S
C222 C223 1.371 . S
C222 H225 0.931 . S
C223 C219 1.391 . S
C223 C222 1.371 . S
C223 H230 0.930 . S
H224 C221 0.928 . S
H225 C222 0.931 . S
H226 C202 0.930 . S
H227 C199 0.930 . S
H228 C208 0.930 . S
H229 C220 0.929 . S
H230 C223 0.930 . S
C231 C232 1.351 . S
C231 N234 1.368 . S
C231 H236 0.931 . S
C232 C231 1.351 . S
C232 N233 1.373 . S
C232 H260 0.930 . S
N233 C232 1.373 . S
N233 C235 1.340 . S
N234 C231 1.368 . S
N234 C235 1.321 . S
N234 Co237 2.135 . S
C235 N233 1.340 . S
C235 N234 1.321 . S
C235 H259 0.930 . S
H236 C231 0.931 . S
Co237 N234 2.135 . S
Co237 N240 2.121 . S
Co237 O245 2.055 . S
Co237 O248 2.039 . S
Co237 N251 2.140 . S
C238 O239 1.227 . S
C238 O248 1.265 . S
O239 C238 1.227 . S
N240 Co237 2.121 . S
N240 C242 1.375 . S
N240 C243 1.313 . S
C241 C242 1.338 . S
C241 N244 1.377 . S
C241 H261 0.930 . S
C242 N240 1.375 . S
C242 C241 1.338 . S
C242 H246 0.931 . S
C243 N240 1.313 . S
C243 N244 1.344 . S
C243 H247 0.930 . S
N244 C241 1.377 . S
N244 C243 1.344 . S
O245 Co237 2.055 . S
O245 C249 1.253 . S
H246 C242 0.931 . S
H247 C243 0.930 . S
O248 Co237 2.039 . S
O248 C238 1.265 . S
C249 O245 1.253 . S
C249 O250 1.227 . S
O250 C249 1.227 . S
N251 Co237 2.140 . S
N251 C254 1.346 . S
N251 C255 1.345 . S
C252 C253 1.387 . S
C252 C256 1.391 . S
C253 C252 1.387 . S
C253 C254 1.369 . S
C253 H262 0.929 . S
C254 N251 1.346 . S
C254 C253 1.369 . S
C254 H257 0.928 . S
C255 N251 1.345 . S
C255 C256 1.371 . S
C255 H258 0.931 . S
C256 C252 1.391 . S
C256 C255 1.371 . S
C256 H263 0.930 . S
H257 C254 0.928 . S
H258 C255 0.931 . S
H259 C235 0.930 . S
H260 C232 0.930 . S
H261 C241 0.930 . S
H262 C253 0.929 . S
H263 C256 0.930 . S
C264 C265 1.351 . S
C264 N267 1.368 . S
C264 H269 0.931 . S
C265 C264 1.351 . S
C265 N266 1.373 . S
C265 H293 0.930 . S
N266 C265 1.373 . S
N266 C268 1.340 . S
N267 C264 1.368 . S
N267 C268 1.321 . S
N267 Co270 2.135 . S
C268 N266 1.340 . S
C268 N267 1.321 . S
C268 H292 0.930 . S
H269 C264 0.931 . S
Co270 N267 2.135 . S
Co270 N273 2.121 . S
Co270 O278 2.055 . S
Co270 O281 2.039 . S
Co270 N284 2.140 . S
C271 O272 1.227 . S
C271 O281 1.265 . S
O272 C271 1.227 . S
N273 Co270 2.121 . S
N273 C275 1.375 . S
N273 C276 1.313 . S
C274 C275 1.338 . S
C274 N277 1.377 . S
C274 H294 0.930 . S
C275 N273 1.375 . S
C275 C274 1.338 . S
C275 H279 0.931 . S
C276 N273 1.313 . S
C276 N277 1.344 . S
C276 H280 0.930 . S
N277 C274 1.377 . S
N277 C276 1.344 . S
O278 Co270 2.055 . S
O278 C282 1.253 . S
H279 C275 0.931 . S
H280 C276 0.930 . S
O281 Co270 2.039 . S
O281 C271 1.265 . S
C282 O278 1.253 . S
C282 O283 1.227 . S
O283 C282 1.227 . S
N284 Co270 2.140 . S
N284 C287 1.346 . S
N284 C288 1.345 . S
C285 C286 1.387 . S
C285 C289 1.391 . S
C286 C285 1.387 . S
C286 C287 1.369 . S
C286 H295 0.929 . S
C287 N284 1.346 . S
C287 C286 1.369 . S
C287 H290 0.928 . S
C288 N284 1.345 . S
C288 C289 1.371 . S
C288 H291 0.931 . S
C289 C285 1.391 . S
C289 C288 1.371 . S
C289 H296 0.930 . S
H290 C287 0.928 . S
H291 C288 0.931 . S
H292 C268 0.930 . S
H293 C265 0.930 . S
H294 C274 0.930 . S
H295 C286 0.929 . S
H296 C289 0.930 . S
C297 C298 1.351 . S
C297 N300 1.368 . S
C297 H302 0.931 . S
C298 C297 1.351 . S
C298 N299 1.373 . S
C298 H326 0.930 . S
N299 C298 1.373 . S
N299 C301 1.340 . S
N300 C297 1.368 . S
N300 C301 1.321 . S
N300 Co303 2.135 . S
C301 N299 1.340 . S
C301 N300 1.321 . S
C301 H325 0.930 . S
H302 C297 0.931 . S
Co303 N300 2.135 . S
Co303 N306 2.121 . S
Co303 O311 2.055 . S
Co303 O314 2.039 . S
Co303 N317 2.140 . S
C304 O305 1.227 . S
C304 O314 1.265 . S
O305 C304 1.227 . S
N306 Co303 2.121 . S
N306 C308 1.375 . S
N306 C309 1.313 . S
C307 C308 1.338 . S
C307 N310 1.377 . S
C307 H327 0.930 . S
C308 N306 1.375 . S
C308 C307 1.338 . S
C308 H312 0.931 . S
C309 N306 1.313 . S
C309 N310 1.344 . S
C309 H313 0.930 . S
N310 C307 1.377 . S
N310 C309 1.344 . S
O311 Co303 2.055 . S
O311 C315 1.253 . S
H312 C308 0.931 . S
H313 C309 0.930 . S
O314 Co303 2.039 . S
O314 C304 1.265 . S
C315 O311 1.253 . S
C315 O316 1.227 . S
O316 C315 1.227 . S
N317 Co303 2.140 . S
N317 C320 1.346 . S
N317 C321 1.345 . S
C318 C319 1.387 . S
C318 C322 1.391 . S
C319 C318 1.387 . S
C319 C320 1.369 . S
C319 H328 0.929 . S
C320 N317 1.346 . S
C320 C319 1.369 . S
C320 H323 0.928 . S
C321 N317 1.345 . S
C321 C322 1.371 . S
C321 H324 0.931 . S
C322 C318 1.391 . S
C322 C321 1.371 . S
C322 H329 0.930 . S
H323 C320 0.928 . S
H324 C321 0.931 . S
H325 C301 0.930 . S
H326 C298 0.930 . S
H327 C307 0.930 . S
H328 C319 0.929 . S
H329 C322 0.930 . S
C330 C331 1.351 . S
C330 N333 1.368 . S
C330 H335 0.931 . S
C331 C330 1.351 . S
C331 N332 1.373 . S
C331 H359 0.930 . S
N332 C331 1.373 . S
N332 C334 1.340 . S
N333 C330 1.368 . S
N333 C334 1.321 . S
N333 Co336 2.135 . S
C334 N332 1.340 . S
C334 N333 1.321 . S
C334 H358 0.930 . S
H335 C330 0.931 . S
Co336 N333 2.135 . S
Co336 N339 2.121 . S
Co336 O344 2.055 . S
Co336 O347 2.039 . S
Co336 N350 2.140 . S
C337 O338 1.227 . S
C337 O347 1.265 . S
O338 C337 1.227 . S
N339 Co336 2.121 . S
N339 C341 1.375 . S
N339 C342 1.313 . S
C340 C341 1.338 . S
C340 N343 1.377 . S
C340 H360 0.930 . S
C341 N339 1.375 . S
C341 C340 1.338 . S
C341 H345 0.931 . S
C342 N339 1.313 . S
C342 N343 1.344 . S
C342 H346 0.930 . S
N343 C340 1.377 . S
N343 C342 1.344 . S
O344 Co336 2.055 . S
O344 C348 1.253 . S
H345 C341 0.931 . S
H346 C342 0.930 . S
O347 Co336 2.039 . S
O347 C337 1.265 . S
C348 O344 1.253 . S
C348 O349 1.227 . S
O349 C348 1.227 . S
N350 Co336 2.140 . S
N350 C353 1.346 . S
N350 C354 1.345 . S
C351 C352 1.387 . S
C351 C355 1.391 . S
C352 C351 1.387 . S
C352 C353 1.369 . S
C352 H361 0.929 . S
C353 N350 1.346 . S
C353 C352 1.369 . S
C353 H356 0.928 . S
C354 N350 1.345 . S
C354 C355 1.371 . S
C354 H357 0.931 . S
C355 C351 1.391 . S
C355 C354 1.371 . S
C355 H362 0.930 . S
H356 C353 0.928 . S
H357 C354 0.931 . S
H358 C334 0.930 . S
H359 C331 0.930 . S
H360 C340 0.930 . S
H361 C352 0.929 . S
H362 C355 0.930 . S
C363 C364 1.351 . S
C363 N366 1.368 . S
C363 H368 0.931 . S
C364 C363 1.351 . S
C364 N365 1.373 . S
C364 H392 0.930 . S
N365 C364 1.373 . S
N365 C367 1.340 . S
N366 C363 1.368 . S
N366 C367 1.321 . S
N366 Co369 2.135 . S
C367 N365 1.340 . S
C367 N366 1.321 . S
C367 H391 0.930 . S
H368 C363 0.931 . S
Co369 N366 2.135 . S
Co369 N372 2.121 . S
Co369 O377 2.055 . S
Co369 O380 2.039 . S
Co369 N383 2.140 . S
C370 O371 1.227 . S
C370 O380 1.265 . S
O371 C370 1.227 . S
N372 Co369 2.121 . S
N372 C374 1.375 . S
N372 C375 1.313 . S
C373 C374 1.338 . S
C373 N376 1.377 . S
C373 H393 0.930 . S
C374 N372 1.375 . S
C374 C373 1.338 . S
C374 H378 0.931 . S
C375 N372 1.313 . S
C375 N376 1.344 . S
C375 H379 0.930 . S
N376 C373 1.377 . S
N376 C375 1.344 . S
O377 Co369 2.055 . S
O377 C381 1.253 . S
H378 C374 0.931 . S
H379 C375 0.930 . S
O380 Co369 2.039 . S
O380 C370 1.265 . S
C381 O377 1.253 . S
C381 O382 1.227 . S
O382 C381 1.227 . S
N383 Co369 2.140 . S
N383 C386 1.346 . S
N383 C387 1.345 . S
C384 C385 1.387 . S
C384 C388 1.391 . S
C385 C384 1.387 . S
C385 C386 1.369 . S
C385 H394 0.929 . S
C386 N383 1.346 . S
C386 C385 1.369 . S
C386 H389 0.928 . S
C387 N383 1.345 . S
C387 C388 1.371 . S
C387 H390 0.931 . S
C388 C384 1.391 . S
C388 C387 1.371 . S
C388 H395 0.930 . S
H389 C386 0.928 . S
H390 C387 0.931 . S
H391 C367 0.930 . S
H392 C364 0.930 . S
H393 C373 0.930 . S
H394 C385 0.929 . S
H395 C388 0.930 . S
C396 C397 1.351 . S
C396 N399 1.368 . S
C396 H401 0.931 . S
C397 C396 1.351 . S
C397 N398 1.373 . S
C397 H425 0.930 . S
N398 C397 1.373 . S
N398 C400 1.340 . S
N399 C396 1.368 . S
N399 C400 1.321 . S
N399 Co402 2.135 . S
C400 N398 1.340 . S
C400 N399 1.321 . S
C400 H424 0.930 . S
H401 C396 0.931 . S
Co402 N399 2.135 . S
Co402 N405 2.121 . S
Co402 O410 2.055 . S
Co402 O413 2.039 . S
Co402 N416 2.140 . S
C403 O404 1.227 . S
C403 O413 1.265 . S
O404 C403 1.227 . S
N405 Co402 2.121 . S
N405 C407 1.375 . S
N405 C408 1.313 . S
C406 C407 1.338 . S
C406 N409 1.377 . S
C406 H426 0.930 . S
C407 N405 1.375 . S
C407 C406 1.338 . S
C407 H411 0.931 . S
C408 N405 1.313 . S
C408 N409 1.344 . S
C408 H412 0.930 . S
N409 C406 1.377 . S
N409 C408 1.344 . S
O410 Co402 2.055 . S
O410 C414 1.253 . S
H411 C407 0.931 . S
H412 C408 0.930 . S
O413 Co402 2.039 . S
O413 C403 1.265 . S
C414 O410 1.253 . S
C414 O415 1.227 . S
O415 C414 1.227 . S
N416 Co402 2.140 . S
N416 C419 1.346 . S
N416 C420 1.345 . S
C417 C418 1.387 . S
C417 C421 1.391 . S
C418 C417 1.387 . S
C418 C419 1.369 . S
C418 H427 0.929 . S
C419 N416 1.346 . S
C419 C418 1.369 . S
C419 H422 0.928 . S
C420 N416 1.345 . S
C420 C421 1.371 . S
C420 H423 0.931 . S
C421 C417 1.391 . S
C421 C420 1.371 . S
C421 H428 0.930 . S
H422 C419 0.928 . S
H423 C420 0.931 . S
H424 C400 0.930 . S
H425 C397 0.930 . S
H426 C406 0.930 . S
H427 C418 0.929 . S
H428 C421 0.930 . S
C429 C430 1.351 . S
C429 N432 1.368 . S
C429 H434 0.931 . S
C430 C429 1.351 . S
C430 N431 1.373 . S
C430 H458 0.930 . S
N431 C430 1.373 . S
N431 C433 1.340 . S
N432 C429 1.368 . S
N432 C433 1.321 . S
N432 Co435 2.135 . S
C433 N431 1.340 . S
C433 N432 1.321 . S
C433 H457 0.930 . S
H434 C429 0.931 . S
Co435 N432 2.135 . S
Co435 N438 2.121 . S
Co435 O443 2.055 . S
Co435 O446 2.039 . S
Co435 N449 2.140 . S
C436 O437 1.227 . S
C436 O446 1.265 . S
O437 C436 1.227 . S
N438 Co435 2.121 . S
N438 C440 1.375 . S
N438 C441 1.313 . S
C439 C440 1.338 . S
C439 N442 1.377 . S
C439 H459 0.930 . S
C440 N438 1.375 . S
C440 C439 1.338 . S
C440 H444 0.931 . S
C441 N438 1.313 . S
C441 N442 1.344 . S
C441 H445 0.930 . S
N442 C439 1.377 . S
N442 C441 1.344 . S
O443 Co435 2.055 . S
O443 C447 1.253 . S
H444 C440 0.931 . S
H445 C441 0.930 . S
O446 Co435 2.039 . S
O446 C436 1.265 . S
C447 O443 1.253 . S
C447 O448 1.227 . S
O448 C447 1.227 . S
N449 Co435 2.140 . S
N449 C452 1.346 . S
N449 C453 1.345 . S
C450 C451 1.387 . S
C450 C454 1.391 . S
C451 C450 1.387 . S
C451 C452 1.369 . S
C451 H460 0.929 . S
C452 N449 1.346 . S
C452 C451 1.369 . S
C452 H455 0.928 . S
C453 N449 1.345 . S
C453 C454 1.371 . S
C453 H456 0.931 . S
C454 C450 1.391 . S
C454 C453 1.371 . S
C454 H461 0.930 . S
H455 C452 0.928 . S
H456 C453 0.931 . S
H457 C433 0.930 . S
H458 C430 0.930 . S
H459 C439 0.930 . S
H460 C451 0.929 . S
H461 C454 0.930 . S
C462 C463 1.351 . S
C462 N465 1.368 . S
C462 H467 0.931 . S
C463 C462 1.351 . S
C463 N464 1.373 . S
C463 H491 0.930 . S
N464 C463 1.373 . S
N464 C466 1.340 . S
N465 C462 1.368 . S
N465 C466 1.321 . S
N465 Co468 2.135 . S
C466 N464 1.340 . S
C466 N465 1.321 . S
C466 H490 0.930 . S
H467 C462 0.931 . S
Co468 N465 2.135 . S
Co468 N471 2.121 . S
Co468 O476 2.055 . S
Co468 O479 2.039 . S
Co468 N482 2.140 . S
C469 O470 1.227 . S
C469 O479 1.265 . S
O470 C469 1.227 . S
N471 Co468 2.121 . S
N471 C473 1.375 . S
N471 C474 1.313 . S
C472 C473 1.338 . S
C472 N475 1.377 . S
C472 H492 0.930 . S
C473 N471 1.375 . S
C473 C472 1.338 . S
C473 H477 0.931 . S
C474 N471 1.313 . S
C474 N475 1.344 . S
C474 H478 0.930 . S
N475 C472 1.377 . S
N475 C474 1.344 . S
O476 Co468 2.055 . S
O476 C480 1.253 . S
H477 C473 0.931 . S
H478 C474 0.930 . S
O479 Co468 2.039 . S
O479 C469 1.265 . S
C480 O476 1.253 . S
C480 O481 1.227 . S
O481 C480 1.227 . S
N482 Co468 2.140 . S
N482 C485 1.346 . S
N482 C486 1.345 . S
C483 C484 1.387 . S
C483 C487 1.391 . S
C484 C483 1.387 . S
C484 C485 1.369 . S
C484 H493 0.929 . S
C485 N482 1.346 . S
C485 C484 1.369 . S
C485 H488 0.928 . S
C486 N482 1.345 . S
C486 C487 1.371 . S
C486 H489 0.931 . S
C487 C483 1.391 . S
C487 C486 1.371 . S
C487 H494 0.930 . S
H488 C485 0.928 . S
H489 C486 0.931 . S
H490 C466 0.930 . S
H491 C463 0.930 . S
H492 C472 0.930 . S
H493 C484 0.929 . S
H494 C487 0.930 . S
C495 C496 1.351 . S
C495 N498 1.368 . S
C495 H500 0.931 . S
C496 C495 1.351 . S
C496 N497 1.373 . S
C496 H524 0.930 . S
N497 C496 1.373 . S
N497 C499 1.340 . S
N498 C495 1.368 . S
N498 C499 1.321 . S
N498 Co501 2.135 . S
C499 N497 1.340 . S
C499 N498 1.321 . S
C499 H523 0.930 . S
H500 C495 0.931 . S
Co501 N498 2.135 . S
Co501 N504 2.121 . S
Co501 O509 2.055 . S
Co501 O512 2.039 . S
Co501 N515 2.140 . S
C502 O503 1.227 . S
C502 O512 1.265 . S
O503 C502 1.227 . S
N504 Co501 2.121 . S
N504 C506 1.375 . S
N504 C507 1.313 . S
C505 C506 1.338 . S
C505 N508 1.377 . S
C505 H525 0.930 . S
C506 N504 1.375 . S
C506 C505 1.338 . S
C506 H510 0.931 . S
C507 N504 1.313 . S
C507 N508 1.344 . S
C507 H511 0.930 . S
N508 C505 1.377 . S
N508 C507 1.344 . S
O509 Co501 2.055 . S
O509 C513 1.253 . S
H510 C506 0.931 . S
H511 C507 0.930 . S
O512 Co501 2.039 . S
O512 C502 1.265 . S
C513 O509 1.253 . S
C513 O514 1.227 . S
O514 C513 1.227 . S
N515 Co501 2.140 . S
N515 C518 1.346 . S
N515 C519 1.345 . S
C516 C517 1.387 . S
C516 C520 1.391 . S
C517 C516 1.387 . S
C517 C518 1.369 . S
C517 H526 0.929 . S
C518 N515 1.346 . S
C518 C517 1.369 . S
C518 H521 0.928 . S
C519 N515 1.345 . S
C519 C520 1.371 . S
C519 H522 0.931 . S
C520 C516 1.391 . S
C520 C519 1.371 . S
C520 H527 0.930 . S
H521 C518 0.928 . S
H522 C519 0.931 . S
H523 C499 0.930 . S
H524 C496 0.930 . S
H525 C505 0.930 . S
H526 C517 0.929 . S
H527 C520 0.930 . S
C528 C529 1.351 . S
C528 N531 1.368 . S
C528 H533 0.931 . S
C529 C528 1.351 . S
C529 N530 1.373 . S
C529 H557 0.930 . S
N530 C529 1.373 . S
N530 C532 1.340 . S
N531 C528 1.368 . S
N531 C532 1.321 . S
N531 Co534 2.135 . S
C532 N530 1.340 . S
C532 N531 1.321 . S
C532 H556 0.930 . S
H533 C528 0.931 . S
Co534 N531 2.135 . S
Co534 N537 2.121 . S
Co534 O542 2.055 . S
Co534 O545 2.039 . S
Co534 N548 2.140 . S
C535 O536 1.227 . S
C535 O545 1.265 . S
O536 C535 1.227 . S
N537 Co534 2.121 . S
N537 C539 1.375 . S
N537 C540 1.313 . S
C538 C539 1.338 . S
C538 N541 1.377 . S
C538 H558 0.930 . S
C539 N537 1.375 . S
C539 C538 1.338 . S
C539 H543 0.931 . S
C540 N537 1.313 . S
C540 N541 1.344 . S
C540 H544 0.930 . S
N541 C538 1.377 . S
N541 C540 1.344 . S
O542 Co534 2.055 . S
O542 C546 1.253 . S
H543 C539 0.931 . S
H544 C540 0.930 . S
O545 Co534 2.039 . S
O545 C535 1.265 . S
C546 O542 1.253 . S
C546 O547 1.227 . S
O547 C546 1.227 . S
N548 Co534 2.140 . S
N548 C551 1.346 . S
N548 C552 1.345 . S
C549 C550 1.387 . S
C549 C553 1.391 . S
C550 C549 1.387 . S
C550 C551 1.369 . S
C550 H559 0.929 . S
C551 N548 1.346 . S
C551 C550 1.369 . S
C551 H554 0.928 . S
C552 N548 1.345 . S
C552 C553 1.371 . S
C552 H555 0.931 . S
C553 C549 1.391 . S
C553 C552 1.371 . S
C553 H560 0.930 . S
H554 C551 0.928 . S
H555 C552 0.931 . S
H556 C532 0.930 . S
H557 C529 0.930 . S
H558 C538 0.930 . S
H559 C550 0.929 . S
H560 C553 0.930 . S
C561 C562 1.351 . S
C561 N564 1.368 . S
C561 H566 0.931 . S
C562 C561 1.351 . S
C562 N563 1.373 . S
C562 H590 0.930 . S
N563 C562 1.373 . S
N563 C565 1.340 . S
N564 C561 1.368 . S
N564 C565 1.321 . S
N564 Co567 2.135 . S
C565 N563 1.340 . S
C565 N564 1.321 . S
C565 H589 0.930 . S
H566 C561 0.931 . S
Co567 N564 2.135 . S
Co567 N570 2.121 . S
Co567 O575 2.055 . S
Co567 O578 2.039 . S
Co567 N581 2.140 . S
C568 O569 1.227 . S
C568 O578 1.265 . S
O569 C568 1.227 . S
N570 Co567 2.121 . S
N570 C572 1.375 . S
N570 C573 1.313 . S
C571 C572 1.338 . S
C571 N574 1.377 . S
C571 H591 0.930 . S
C572 N570 1.375 . S
C572 C571 1.338 . S
C572 H576 0.931 . S
C573 N570 1.313 . S
C573 N574 1.344 . S
C573 H577 0.930 . S
N574 C571 1.377 . S
N574 C573 1.344 . S
O575 Co567 2.055 . S
O575 C579 1.253 . S
H576 C572 0.931 . S
H577 C573 0.930 . S
O578 Co567 2.039 . S
O578 C568 1.265 . S
C579 O575 1.253 . S
C579 O580 1.227 . S
O580 C579 1.227 . S
N581 Co567 2.140 . S
N581 C584 1.346 . S
N581 C585 1.345 . S
C582 C583 1.387 . S
C582 C586 1.391 . S
C583 C582 1.387 . S
C583 C584 1.369 . S
C583 H592 0.929 . S
C584 N581 1.346 . S
C584 C583 1.369 . S
C584 H587 0.928 . S
C585 N581 1.345 . S
C585 C586 1.371 . S
C585 H588 0.931 . S
C586 C582 1.391 . S
C586 C585 1.371 . S
C586 H593 0.930 . S
H587 C584 0.928 . S
H588 C585 0.931 . S
H589 C565 0.930 . S
H590 C562 0.930 . S
H591 C571 0.930 . S
H592 C583 0.929 . S
H593 C586 0.930 . S
C594 C595 1.349 . S
C594 C596 1.327 . S
C594 H619 0.950 . S
C595 C594 1.349 . S
C595 C611 1.349 . S
C596 C594 1.327 . S
C596 C615 1.429 . S
C596 H620 0.950 . S
C597 C614 1.574 . S
C597 C616 1.368 . S
C597 H621 0.949 . S
H598 C602 0.949 . S
C599 C600 1.349 . S
C599 C601 1.327 . S
C599 H622 0.950 . S
C600 C599 1.349 . S
C600 C612 1.349 . S
C601 C599 1.327 . S
C601 C617 1.429 . S
C601 H623 0.950 . S
C602 H598 0.949 . S
C602 C610 1.574 . S
C602 C618 1.368 . S
H603 C611 0.950 . S
H604 C609 0.950 . S
H605 C610 0.949 . S
H606 C612 0.950 . S
H607 C613 0.950 . S
H608 C614 0.949 . S
C609 H604 0.950 . S
C609 C611 1.327 . S
C609 C615 1.429 . S
C610 C602 1.574 . S
C610 H605 0.949 . S
C610 C616 1.368 . S
C611 C595 1.349 . S
C611 H603 0.950 . S
C611 C609 1.327 . S
C612 C600 1.349 . S
C612 H606 0.950 . S
C612 C613 1.327 . S
C613 H607 0.950 . S
C613 C612 1.327 . S
C613 C617 1.429 . S
C614 C597 1.574 . S
C614 H608 0.949 . S
C614 C618 1.368 . S
C615 C596 1.429 . S
C615 C609 1.429 . S
C615 C616 1.523 . S
C616 C597 1.368 . S
C616 C610 1.368 . S
C616 C615 1.523 . S
C617 C601 1.429 . S
C617 C613 1.429 . S
C617 C618 1.523 . S
C618 C602 1.368 . S
C618 C614 1.368 . S
C618 C617 1.523 . S
H619 C594 0.950 . S
H620 C596 0.950 . S
H621 C597 0.949 . S
H622 C599 0.950 . S
H623 C601 0.950 . S
C624 C625 1.349 . S
C624 C626 1.327 . S
C624 H649 0.950 . S
C625 C624 1.349 . S
C625 C641 1.349 . S
C626 C624 1.327 . S
C626 C645 1.429 . S
C626 H650 0.950 . S
C627 C644 1.574 . S
C627 C646 1.368 . S
C627 H651 0.949 . S
H628 C632 0.949 . S
C629 C630 1.349 . S
C629 C631 1.327 . S
C629 H652 0.950 . S
C630 C629 1.349 . S
C630 C642 1.349 . S
C631 C629 1.327 . S
C631 C647 1.429 . S
C631 H653 0.950 . S
C632 H628 0.949 . S
C632 C640 1.574 . S
C632 C648 1.368 . S
H633 C641 0.950 . S
H634 C639 0.950 . S
H635 C640 0.949 . S
H636 C642 0.950 . S
H637 C643 0.950 . S
H638 C644 0.949 . S
C639 H634 0.950 . S
C639 C641 1.327 . S
C639 C645 1.429 . S
C640 C632 1.574 . S
C640 H635 0.949 . S
C640 C646 1.368 . S
C641 C625 1.349 . S
C641 H633 0.950 . S
C641 C639 1.327 . S
C642 C630 1.349 . S
C642 H636 0.950 . S
C642 C643 1.327 . S
C643 H637 0.950 . S
C643 C642 1.327 . S
C643 C647 1.429 . S
C644 C627 1.574 . S
C644 H638 0.949 . S
C644 C648 1.368 . S
C645 C626 1.429 . S
C645 C639 1.429 . S
C645 C646 1.523 . S
C646 C627 1.368 . S
C646 C640 1.368 . S
C646 C645 1.523 . S
C647 C631 1.429 . S
C647 C643 1.429 . S
C647 C648 1.523 . S
C648 C632 1.368 . S
C648 C644 1.368 . S
C648 C647 1.523 . S
H649 C624 0.950 . S
H650 C626 0.950 . S
H651 C627 0.949 . S
H652 C629 0.950 . S
H653 C631 0.950 . S
C654 C655 1.349 . S
C654 C656 1.327 . S
C654 H679 0.950 . S
C655 C654 1.349 . S
C655 C671 1.349 . S
C656 C654 1.327 . S
C656 C675 1.429 . S
C656 H680 0.950 . S
C657 C674 1.574 . S
C657 C676 1.368 . S
C657 H681 0.949 . S
H658 C662 0.949 . S
C659 C660 1.349 . S
C659 C661 1.327 . S
C659 H682 0.950 . S
C660 C659 1.349 . S
C660 C672 1.349 . S
C661 C659 1.327 . S
C661 C677 1.429 . S
C661 H683 0.950 . S
C662 H658 0.949 . S
C662 C670 1.574 . S
C662 C678 1.368 . S
H663 C671 0.950 . S
H664 C669 0.950 . S
H665 C670 0.949 . S
H666 C672 0.950 . S
H667 C673 0.950 . S
H668 C674 0.949 . S
C669 H664 0.950 . S
C669 C671 1.327 . S
C669 C675 1.429 . S
C670 C662 1.574 . S
C670 H665 0.949 . S
C670 C676 1.368 . S
C671 C655 1.349 . S
C671 H663 0.950 . S
C671 C669 1.327 . S
C672 C660 1.349 . S
C672 H666 0.950 . S
C672 C673 1.327 . S
C673 H667 0.950 . S
C673 C672 1.327 . S
C673 C677 1.429 . S
C674 C657 1.574 . S
C674 H668 0.949 . S
C674 C678 1.368 . S
C675 C656 1.429 . S
C675 C669 1.429 . S
C675 C676 1.523 . S
C676 C657 1.368 . S
C676 C670 1.368 . S
C676 C675 1.523 . S
C677 C661 1.429 . S
C677 C673 1.429 . S
C677 C678 1.523 . S
C678 C662 1.368 . S
C678 C674 1.368 . S
C678 C677 1.523 . S
H679 C654 0.950 . S
H680 C656 0.950 . S
H681 C657 0.949 . S
H682 C659 0.950 . S
H683 C661 0.950 . S
C684 C685 1.349 . S
C684 C686 1.327 . S
C684 H709 0.950 . S
C685 C684 1.349 . S
C685 C701 1.349 . S
C686 C684 1.327 . S
C686 C705 1.429 . S
C686 H710 0.950 . S
C687 C704 1.574 . S
C687 C706 1.368 . S
C687 H711 0.949 . S
H688 C692 0.949 . S
C689 C690 1.349 . S
C689 C691 1.327 . S
C689 H712 0.950 . S
C690 C689 1.349 . S
C690 C702 1.349 . S
C691 C689 1.327 . S
C691 C707 1.429 . S
C691 H713 0.950 . S
C692 H688 0.949 . S
C692 C700 1.574 . S
C692 C708 1.368 . S
H693 C701 0.950 . S
H694 C699 0.950 . S
H695 C700 0.949 . S
H696 C702 0.950 . S
H697 C703 0.950 . S
H698 C704 0.949 . S
C699 H694 0.950 . S
C699 C701 1.327 . S
C699 C705 1.429 . S
C700 C692 1.574 . S
C700 H695 0.949 . S
C700 C706 1.368 . S
C701 C685 1.349 . S
C701 H693 0.950 . S
C701 C699 1.327 . S
C702 C690 1.349 . S
C702 H696 0.950 . S
C702 C703 1.327 . S
C703 H697 0.950 . S
C703 C702 1.327 . S
C703 C707 1.429 . S
C704 C687 1.574 . S
C704 H698 0.949 . S
C704 C708 1.368 . S
C705 C686 1.429 . S
C705 C699 1.429 . S
C705 C706 1.523 . S
C706 C687 1.368 . S
C706 C700 1.368 . S
C706 C705 1.523 . S
C707 C691 1.429 . S
C707 C703 1.429 . S
C707 C708 1.523 . S
C708 C692 1.368 . S
C708 C704 1.368 . S
C708 C707 1.523 . S
H709 C684 0.950 . S
H710 C686 0.950 . S
H711 C687 0.949 . S
H712 C689 0.950 . S
H713 C691 0.950 . S
C714 C715 1.349 . S
C714 C716 1.327 . S
C714 H739 0.950 . S
C715 C714 1.349 . S
C715 C731 1.349 . S
C716 C714 1.327 . S
C716 C735 1.429 . S
C716 H740 0.950 . S
C717 C734 1.574 . S
C717 C736 1.368 . S
C717 H741 0.949 . S
H718 C722 0.949 . S
C719 C720 1.349 . S
C719 C721 1.327 . S
C719 H742 0.950 . S
C720 C719 1.349 . S
C720 C732 1.349 . S
C721 C719 1.327 . S
C721 C737 1.429 . S
C721 H743 0.950 . S
C722 H718 0.949 . S
C722 C730 1.574 . S
C722 C738 1.368 . S
H723 C731 0.950 . S
H724 C729 0.950 . S
H725 C730 0.949 . S
H726 C732 0.950 . S
H727 C733 0.950 . S
H728 C734 0.949 . S
C729 H724 0.950 . S
C729 C731 1.327 . S
C729 C735 1.429 . S
C730 C722 1.574 . S
C730 H725 0.949 . S
C730 C736 1.368 . S
C731 C715 1.349 . S
C731 H723 0.950 . S
C731 C729 1.327 . S
C732 C720 1.349 . S
C732 H726 0.950 . S
C732 C733 1.327 . S
C733 H727 0.950 . S
C733 C732 1.327 . S
C733 C737 1.429 . S
C734 C717 1.574 . S
C734 H728 0.949 . S
C734 C738 1.368 . S
C735 C716 1.429 . S
C735 C729 1.429 . S
C735 C736 1.523 . S
C736 C717 1.368 . S
C736 C730 1.368 . S
C736 C735 1.523 . S
C737 C721 1.429 . S
C737 C733 1.429 . S
C737 C738 1.523 . S
C738 C722 1.368 . S
C738 C734 1.368 . S
C738 C737 1.523 . S
H739 C714 0.950 . S
H740 C716 0.950 . S
H741 C717 0.949 . S
H742 C719 0.950 . S
H743 C721 0.950 . S
C744 C745 1.349 . S
C744 C746 1.327 . S
C744 H769 0.950 . S
C745 C744 1.349 . S
C745 C761 1.349 . S
C746 C744 1.327 . S
C746 C765 1.429 . S
C746 H770 0.950 . S
C747 C764 1.574 . S
C747 C766 1.368 . S
C747 H771 0.949 . S
H748 C752 0.949 . S
C749 C750 1.349 . S
C749 C751 1.327 . S
C749 H772 0.950 . S
C750 C749 1.349 . S
C750 C762 1.349 . S
C751 C749 1.327 . S
C751 C767 1.429 . S
C751 H773 0.950 . S
C752 H748 0.949 . S
C752 C760 1.574 . S
C752 C768 1.368 . S
H753 C761 0.950 . S
H754 C759 0.950 . S
H755 C760 0.949 . S
H756 C762 0.950 . S
H757 C763 0.950 . S
H758 C764 0.949 . S
C759 H754 0.950 . S
C759 C761 1.327 . S
C759 C765 1.429 . S
C760 C752 1.574 . S
C760 H755 0.949 . S
C760 C766 1.368 . S
C761 C745 1.349 . S
C761 H753 0.950 . S
C761 C759 1.327 . S
C762 C750 1.349 . S
C762 H756 0.950 . S
C762 C763 1.327 . S
C763 H757 0.950 . S
C763 C762 1.327 . S
C763 C767 1.429 . S
C764 C747 1.574 . S
C764 H758 0.949 . S
C764 C768 1.368 . S
C765 C746 1.429 . S
C765 C759 1.429 . S
C765 C766 1.523 . S
C766 C747 1.368 . S
C766 C760 1.368 . S
C766 C765 1.523 . S
C767 C751 1.429 . S
C767 C763 1.429 . S
C767 C768 1.523 . S
C768 C752 1.368 . S
C768 C764 1.368 . S
C768 C767 1.523 . S
H769 C744 0.950 . S
H770 C746 0.950 . S
H771 C747 0.949 . S
H772 C749 0.950 . S
H773 C751 0.950 . S
C774 C775 1.349 . S
C774 C776 1.327 . S
C774 H799 0.950 . S
C775 C774 1.349 . S
C775 C791 1.349 . S
C776 C774 1.327 . S
C776 C795 1.429 . S
C776 H800 0.950 . S
C777 C794 1.574 . S
C777 C796 1.368 1_556 S
C777 H801 0.949 1_556 S
H778 C782 0.949 . S
C779 C780 1.349 . S
C779 C781 1.327 . S
C779 H802 0.950 . S
C780 C779 1.349 . S
C780 C792 1.349 . S
C781 C779 1.327 . S
C781 C797 1.429 . S
C781 H803 0.950 . S
C782 H778 0.949 . S
C782 C790 1.574 . S
C782 C798 1.368 . S
H783 C791 0.950 . S
H784 C789 0.950 . S
H785 C790 0.947 1_554 S
H786 C792 0.950 . S
H787 C793 0.950 . S
H788 C794 0.949 . S
C789 H784 0.950 . S
C789 C791 1.327 . S
C789 C795 1.429 . S
C790 C782 1.574 . S
C790 H785 0.947 1_556 S
C790 C796 1.368 1_556 S
C791 C775 1.349 . S
C791 H783 0.950 . S
C791 C789 1.327 . S
C792 C780 1.349 . S
C792 H786 0.950 . S
C792 C793 1.327 . S
C793 H787 0.950 . S
C793 C792 1.327 . S
C793 C797 1.429 . S
C794 C777 1.574 . S
C794 H788 0.949 . S
C794 C798 1.368 . S
C795 C776 1.429 . S
C795 C789 1.429 . S
C795 C796 1.523 . S
C796 C777 1.368 1_554 S
C796 C790 1.368 1_554 S
C796 C795 1.523 . S
C797 C781 1.429 . S
C797 C793 1.429 . S
C797 C798 1.523 . S
C798 C782 1.368 . S
C798 C794 1.368 . S
C798 C797 1.523 . S
H799 C774 0.950 . S
H800 C776 0.950 . S
H801 C777 0.949 1_554 S
H802 C779 0.950 . S
H803 C781 0.950 . S
C804 C805 1.349 . S
C804 C806 1.327 . S
C804 H829 0.950 . S
C805 C804 1.349 . S
C805 C821 1.349 . S
C806 C804 1.327 . S
C806 C825 1.429 . S
C806 H830 0.950 . S
C807 C824 1.574 . S
C807 C826 1.368 1_556 S
C807 H831 0.945 1_556 S
H808 C812 0.949 . S
C809 C810 1.349 . S
C809 C811 1.327 . S
C809 H832 0.950 . S
C810 C809 1.349 . S
C810 C822 1.349 . S
C811 C809 1.327 . S
C811 C827 1.429 . S
C811 H833 0.950 . S
C812 H808 0.949 . S
C812 C820 1.574 . S
C812 C828 1.368 . S
H813 C821 0.950 . S
H814 C819 0.950 . S
H815 C820 0.949 1_554 S
H816 C822 0.950 . S
H817 C823 0.950 . S
H818 C824 0.949 . S
C819 H814 0.950 . S
C819 C821 1.327 . S
C819 C825 1.429 . S
C820 C812 1.574 . S
C820 H815 0.949 1_556 S
C820 C826 1.368 1_556 S
C821 C805 1.349 . S
C821 H813 0.950 . S
C821 C819 1.327 . S
C822 C810 1.349 . S
C822 H816 0.950 . S
C822 C823 1.327 . S
C823 H817 0.950 . S
C823 C822 1.327 . S
C823 C827 1.429 . S
C824 C807 1.574 . S
C824 H818 0.949 . S
C824 C828 1.368 . S
C825 C806 1.429 . S
C825 C819 1.429 . S
C825 C826 1.523 . S
C826 C807 1.368 1_554 S
C826 C820 1.368 1_554 S
C826 C825 1.523 . S
C827 C811 1.429 . S
C827 C823 1.429 . S
C827 C828 1.523 . S
C828 C812 1.368 . S
C828 C824 1.368 . S
C828 C827 1.523 . S
H829 C804 0.950 . S
H830 C806 0.950 . S
H831 C807 0.945 1_554 S
H832 C809 0.950 . S
H833 C811 0.950 . S
C834 C835 1.349 . S
C834 C836 1.327 . S
C834 H859 0.950 . S
C835 C834 1.349 . S
C835 C851 1.349 . S
C836 C834 1.327 . S
C836 C855 1.429 . S
C836 H860 0.950 . S
C837 C854 1.574 . S
C837 C856 1.368 . S
C837 H861 0.949 . S
H838 C842 0.949 1_554 S
C839 C840 1.349 . S
C839 C841 1.327 . S
C839 H862 0.950 . S
C840 C839 1.349 . S
C840 C852 1.349 . S
C841 C839 1.327 . S
C841 C857 1.429 . S
C841 H863 0.950 . S
C842 H838 0.949 1_556 S
C842 C850 1.574 . S
C842 C858 1.368 1_556 S
H843 C851 0.950 . S
H844 C849 0.950 . S
H845 C850 0.949 . S
H846 C852 0.950 . S
H847 C853 0.950 . S
H848 C854 0.949 1_554 S
C849 H844 0.950 . S
C849 C851 1.327 . S
C849 C855 1.429 . S
C850 C842 1.574 . S
C850 H845 0.949 . S
C850 C856 1.368 . S
C851 C835 1.349 . S
C851 H843 0.950 . S
C851 C849 1.327 . S
C852 C840 1.349 . S
C852 H846 0.950 . S
C852 C853 1.327 . S
C853 H847 0.950 . S
C853 C852 1.327 . S
C853 C857 1.429 . S
C854 C837 1.574 . S
C854 H848 0.949 1_556 S
C854 C858 1.368 1_556 S
C855 C836 1.429 . S
C855 C849 1.429 . S
C855 C856 1.523 . S
C856 C837 1.368 . S
C856 C850 1.368 . S
C856 C855 1.523 . S
C857 C841 1.429 . S
C857 C853 1.429 . S
C857 C858 1.523 . S
C858 C842 1.368 1_554 S
C858 C854 1.368 1_554 S
C858 C857 1.523 . S
H859 C834 0.950 . S
H860 C836 0.950 . S
H861 C837 0.949 . S
H862 C839 0.950 . S
H863 C841 0.950 . S
C864 C865 1.349 . S
C864 C866 1.327 . S
C864 H889 0.950 . S
C865 C864 1.349 . S
C865 C881 1.349 . S
C866 C864 1.327 . S
C866 C885 1.429 . S
C866 H890 0.950 . S
C867 C884 1.574 . S
C867 C886 1.368 . S
C867 H891 0.949 . S
H868 C872 0.949 . S
C869 C870 1.349 . S
C869 C871 1.327 . S
C869 H892 0.950 . S
C870 C869 1.349 . S
C870 C882 1.349 . S
C871 C869 1.327 . S
C871 C887 1.429 . S
C871 H893 0.950 . S
C872 H868 0.949 . S
C872 C880 1.574 . S
C872 C888 1.368 . S
H873 C881 0.950 . S
H874 C879 0.950 . S
H875 C880 0.949 . S
H876 C882 0.950 . S
H877 C883 0.950 . S
H878 C884 0.949 . S
C879 H874 0.950 . S
C879 C881 1.327 . S
C879 C885 1.429 . S
C880 C872 1.574 . S
C880 H875 0.949 . S
C880 C886 1.368 . S
C881 C865 1.349 . S
C881 H873 0.950 . S
C881 C879 1.327 . S
C882 C870 1.349 . S
C882 H876 0.950 . S
C882 C883 1.327 . S
C883 H877 0.950 . S
C883 C882 1.327 . S
C883 C887 1.429 . S
C884 C867 1.574 . S
C884 H878 0.949 . S
C884 C888 1.368 . S
C885 C866 1.429 . S
C885 C879 1.429 . S
C885 C886 1.523 . S
C886 C867 1.368 . S
C886 C880 1.368 . S
C886 C885 1.523 . S
C887 C871 1.429 . S
C887 C883 1.429 . S
C887 C888 1.523 . S
C888 C872 1.368 . S
C888 C884 1.368 . S
C888 C887 1.523 . S
H889 C864 0.950 . S
H890 C866 0.950 . S
H891 C867 0.949 . S
H892 C869 0.950 . S
H893 C871 0.950 . S
C894 C895 1.349 . S
C894 C896 1.327 . S
C894 H919 0.950 . S
C895 C894 1.349 . S
C895 C911 1.349 . S
C896 C894 1.327 . S
C896 C915 1.429 . S
C896 H920 0.950 . S
C897 C914 1.574 . S
C897 C916 1.368 . S
C897 H921 0.949 . S
H898 C902 0.949 . S
C899 C900 1.349 . S
C899 C901 1.327 . S
C899 H922 0.950 . S
C900 C899 1.349 . S
C900 C912 1.349 . S
C901 C899 1.327 . S
C901 C917 1.429 . S
C901 H923 0.950 . S
C902 H898 0.949 . S
C902 C910 1.574 . S
C902 C918 1.368 . S
H903 C911 0.950 . S
H904 C909 0.950 . S
H905 C910 0.949 . S
H906 C912 0.950 . S
H907 C913 0.950 . S
H908 C914 0.949 . S
C909 H904 0.950 . S
C909 C911 1.327 . S
C909 C915 1.429 . S
C910 C902 1.574 . S
C910 H905 0.949 . S
C910 C916 1.368 . S
C911 C895 1.349 . S
C911 H903 0.950 . S
C911 C909 1.327 . S
C912 C900 1.349 . S
C912 H906 0.950 . S
C912 C913 1.327 . S
C913 H907 0.950 . S
C913 C912 1.327 . S
C913 C917 1.429 . S
C914 C897 1.574 . S
C914 H908 0.949 . S
C914 C918 1.368 . S
C915 C896 1.429 . S
C915 C909 1.429 . S
C915 C916 1.523 . S
C916 C897 1.368 . S
C916 C910 1.368 . S
C916 C915 1.523 . S
C917 C901 1.429 . S
C917 C913 1.429 . S
C917 C918 1.523 . S
C918 C902 1.368 . S
C918 C914 1.368 . S
C918 C917 1.523 . S
H919 C894 0.950 . S
H920 C896 0.950 . S
H921 C897 0.949 . S
H922 C899 0.950 . S
H923 C901 0.950 . S
C924 C925 1.349 . S
C924 C926 1.327 . S
C924 H949 0.950 . S
C925 C924 1.349 . S
C925 C941 1.349 . S
C926 C924 1.327 . S
C926 C945 1.429 . S
C926 H950 0.950 . S
C927 C944 1.574 . S
C927 C946 1.368 . S
C927 H951 0.949 . S
H928 C932 0.949 . S
C929 C930 1.349 . S
C929 C931 1.327 . S
C929 H952 0.950 . S
C930 C929 1.349 . S
C930 C942 1.349 . S
C931 C929 1.327 . S
C931 C947 1.429 . S
C931 H953 0.950 . S
C932 H928 0.949 . S
C932 C940 1.574 . S
C932 C948 1.368 . S
H933 C941 0.950 . S
H934 C939 0.950 . S
H935 C940 0.949 . S
H936 C942 0.950 . S
H937 C943 0.950 . S
H938 C944 0.949 . S
C939 H934 0.950 . S
C939 C941 1.327 . S
C939 C945 1.429 . S
C940 C932 1.574 . S
C940 H935 0.949 . S
C940 C946 1.368 . S
C941 C925 1.349 . S
C941 H933 0.950 . S
C941 C939 1.327 . S
C942 C930 1.349 . S
C942 H936 0.950 . S
C942 C943 1.327 . S
C943 H937 0.950 . S
C943 C942 1.327 . S
C943 C947 1.429 . S
C944 C927 1.574 . S
C944 H938 0.949 . S
C944 C948 1.368 . S
C945 C926 1.429 . S
C945 C939 1.429 . S
C945 C946 1.523 . S
C946 C927 1.368 . S
C946 C940 1.368 . S
C946 C945 1.523 . S
C947 C931 1.429 . S
C947 C943 1.429 . S
C947 C948 1.523 . S
C948 C932 1.368 . S
C948 C944 1.368 . S
C948 C947 1.523 . S
H949 C924 0.950 . S
H950 C926 0.950 . S
H951 C927 0.949 . S
H952 C929 0.950 . S
H953 C931 0.950 . S
C954 C955 1.349 . S
C954 C956 1.327 . S
C954 H979 0.950 . S
C955 C954 1.349 . S
C955 C971 1.349 . S
C956 C954 1.327 . S
C956 C975 1.429 . S
C956 H980 0.950 . S
C957 C974 1.574 . S
C957 C976 1.368 . S
C957 H981 0.949 . S
H958 C962 0.949 . S
C959 C960 1.349 . S
C959 C961 1.327 . S
C959 H982 0.950 . S
C960 C959 1.349 . S
C960 C972 1.349 . S
C961 C959 1.327 . S
C961 C977 1.429 . S
C961 H983 0.950 . S
C962 H958 0.949 . S
C962 C970 1.574 . S
C962 C978 1.368 . S
H963 C971 0.950 . S
H964 C969 0.950 . S
H965 C970 0.949 . S
H966 C972 0.950 . S
H967 C973 0.950 . S
H968 C974 0.949 . S
C969 H964 0.950 . S
C969 C971 1.327 . S
C969 C975 1.429 . S
C970 C962 1.574 . S
C970 H965 0.949 . S
C970 C976 1.368 . S
C971 C955 1.349 . S
C971 H963 0.950 . S
C971 C969 1.327 . S
C972 C960 1.349 . S
C972 H966 0.950 . S
C972 C973 1.327 . S
C973 H967 0.950 . S
C973 C972 1.327 . S
C973 C977 1.429 . S
C974 C957 1.574 . S
C974 H968 0.949 . S
C974 C978 1.368 . S
C975 C956 1.429 . S
C975 C969 1.429 . S
C975 C976 1.523 . S
C976 C957 1.368 . S
C976 C970 1.368 . S
C976 C975 1.523 . S
C977 C961 1.429 . S
C977 C973 1.429 . S
C977 C978 1.523 . S
C978 C962 1.368 . S
C978 C974 1.368 . S
C978 C977 1.523 . S
H979 C954 0.950 . S
H980 C956 0.950 . S
H981 C957 0.949 . S
H982 C959 0.950 . S
H983 C961 0.950 . S
C984 C985 1.349 . S
C984 C986 1.327 . S
C984 H1009 0.950 . S
C985 C984 1.349 . S
C985 C1001 1.349 . S
C986 C984 1.327 . S
C986 C1005 1.429 . S
C986 H1010 0.950 . S
C987 C1004 1.574 . S
C987 C1006 1.368 . S
C987 H1011 0.949 . S
H988 C992 0.949 . S
C989 C990 1.349 . S
C989 C991 1.327 . S
C989 H1012 0.950 . S
C990 C989 1.349 . S
C990 C1002 1.349 . S
C991 C989 1.327 . S
C991 C1007 1.429 . S
C991 H1013 0.950 . S
C992 H988 0.949 . S
C992 C1000 1.574 . S
C992 C1008 1.368 . S
H993 C1001 0.950 . S
H994 C999 0.950 . S
H995 C1000 0.949 . S
H996 C1002 0.950 . S
H997 C1003 0.950 . S
H998 C1004 0.949 . S
C999 H994 0.950 . S
C999 C1001 1.327 . S
C999 C1005 1.429 . S
C1000 C992 1.574 . S
C1000 H995 0.949 . S
C1000 C1006 1.368 . S
C1001 C985 1.349 . S
C1001 H993 0.950 . S
C1001 C999 1.327 . S
C1002 C990 1.349 . S
C1002 H996 0.950 . S
C1002 C1003 1.327 . S
C1003 H997 0.950 . S
C1003 C1002 1.327 . S
C1003 C1007 1.429 . S
C1004 C987 1.574 . S
C1004 H998 0.949 . S
C1004 C1008 1.368 . S
C1005 C986 1.429 . S
C1005 C999 1.429 . S
C1005 C1006 1.523 . S
C1006 C987 1.368 . S
C1006 C1000 1.368 . S
C1006 C1005 1.523 . S
C1007 C991 1.429 . S
C1007 C1003 1.429 . S
C1007 C1008 1.523 . S
C1008 C992 1.368 . S
C1008 C1004 1.368 . S
C1008 C1007 1.523 . S
H1009 C984 0.950 . S
H1010 C986 0.950 . S
H1011 C987 0.949 . S
H1012 C989 0.950 . S
H1013 C991 0.950 . S
C1014 C1015 1.349 . S
C1014 C1016 1.327 . S
C1014 H1039 0.950 . S
C1015 C1014 1.349 . S
C1015 C1031 1.349 . S
C1016 C1014 1.327 . S
C1016 C1035 1.429 . S
C1016 H1040 0.950 . S
C1017 C1034 1.574 . S
C1017 C1036 1.368 . S
C1017 H1041 0.949 . S
H1018 C1022 0.949 . S
C1019 C1020 1.349 . S
C1019 C1021 1.327 . S
C1019 H1042 0.950 . S
C1020 C1019 1.349 . S
C1020 C1032 1.349 . S
C1021 C1019 1.327 . S
C1021 C1037 1.429 . S
C1021 H1043 0.950 . S
C1022 H1018 0.949 . S
C1022 C1030 1.574 . S
C1022 C1038 1.368 . S
H1023 C1031 0.950 . S
H1024 C1029 0.950 . S
H1025 C1030 0.949 . S
H1026 C1032 0.950 . S
H1027 C1033 0.950 . S
H1028 C1034 0.949 . S
C1029 H1024 0.950 . S
C1029 C1031 1.327 . S
C1029 C1035 1.429 . S
C1030 C1022 1.574 . S
C1030 H1025 0.949 . S
C1030 C1036 1.368 . S
C1031 C1015 1.349 . S
C1031 H1023 0.950 . S
C1031 C1029 1.327 . S
C1032 C1020 1.349 . S
C1032 H1026 0.950 . S
C1032 C1033 1.327 . S
C1033 H1027 0.950 . S
C1033 C1032 1.327 . S
C1033 C1037 1.429 . S
C1034 C1017 1.574 . S
C1034 H1028 0.949 . S
C1034 C1038 1.368 . S
C1035 C1016 1.429 . S
C1035 C1029 1.429 . S
C1035 C1036 1.523 . S
C1036 C1017 1.368 . S
C1036 C1030 1.368 . S
C1036 C1035 1.523 . S
C1037 C1021 1.429 . S
C1037 C1033 1.429 . S
C1037 C1038 1.523 . S
C1038 C1022 1.368 . S
C1038 C1034 1.368 . S
C1038 C1037 1.523 . S
H1039 C1014 0.950 . S
H1040 C1016 0.950 . S
H1041 C1017 0.949 . S
H1042 C1019 0.950 . S
H1043 C1021 0.950 . S
C1044 C1045 1.349 . S
C1044 C1046 1.327 . S
C1044 H1069 0.950 . S
C1045 C1044 1.349 . S
C1045 C1061 1.349 . S
C1046 C1044 1.327 . S
C1046 C1065 1.429 . S
C1046 H1070 0.950 . S
C1047 C1064 1.574 . S
C1047 C1066 1.368 . S
C1047 H1071 0.949 . S
H1048 C1052 0.949 . S
C1049 C1050 1.349 . S
C1049 C1051 1.327 . S
C1049 H1072 0.950 . S
C1050 C1049 1.349 . S
C1050 C1062 1.349 . S
C1051 C1049 1.327 . S
C1051 C1067 1.429 . S
C1051 H1073 0.950 . S
C1052 H1048 0.949 . S
C1052 C1060 1.574 . S
C1052 C1068 1.368 1_554 S
H1053 C1061 0.950 . S
H1054 C1059 0.950 . S
H1055 C1060 0.949 . S
H1056 C1062 0.950 . S
H1057 C1063 0.950 . S
H1058 C1064 0.949 1_556 S
C1059 H1054 0.950 . S
C1059 C1061 1.327 . S
C1059 C1065 1.429 . S
C1060 C1052 1.574 . S
C1060 H1055 0.949 . S
C1060 C1066 1.368 . S
C1061 C1045 1.349 . S
C1061 H1053 0.950 . S
C1061 C1059 1.327 . S
C1062 C1050 1.349 . S
C1062 H1056 0.950 . S
C1062 C1063 1.327 . S
C1063 H1057 0.950 . S
C1063 C1062 1.327 . S
C1063 C1067 1.429 . S
C1064 C1047 1.574 . S
C1064 H1058 0.949 1_554 S
C1064 C1068 1.368 1_554 S
C1065 C1046 1.429 . S
C1065 C1059 1.429 . S
C1065 C1066 1.523 . S
C1066 C1047 1.368 . S
C1066 C1060 1.368 . S
C1066 C1065 1.523 . S
C1067 C1051 1.429 . S
C1067 C1063 1.429 . S
C1067 C1068 1.523 . S
C1068 C1052 1.368 1_556 S
C1068 C1064 1.368 1_556 S
C1068 C1067 1.523 . S
H1069 C1044 0.950 . S
H1070 C1046 0.950 . S
H1071 C1047 0.949 . S
H1072 C1049 0.950 . S
H1073 C1051 0.950 . S
C1074 C1075 1.349 . S
C1074 C1076 1.327 . S
C1074 H1099 0.950 . S
C1075 C1074 1.349 . S
C1075 C1091 1.349 . S
C1076 C1074 1.327 . S
C1076 C1095 1.429 . S
C1076 H1100 0.950 . S
C1077 C1094 1.574 . S
C1077 C1096 1.368 . S
C1077 H1101 0.949 . S
H1078 C1082 0.949 1_556 S
C1079 C1080 1.349 . S
C1079 C1081 1.327 . S
C1079 H1102 0.950 . S
C1080 C1079 1.349 . S
C1080 C1092 1.349 . S
C1081 C1079 1.327 . S
C1081 C1097 1.429 . S
C1081 H1103 0.950 . S
C1082 H1078 0.949 1_554 S
C1082 C1090 1.574 . S
C1082 C1098 1.368 1_554 S
H1083 C1091 0.950 . S
H1084 C1089 0.950 . S
H1085 C1090 0.949 . S
H1086 C1092 0.950 . S
H1087 C1093 0.950 . S
H1088 C1094 0.949 1_556 S
C1089 H1084 0.950 . S
C1089 C1091 1.327 . S
C1089 C1095 1.429 . S
C1090 C1082 1.574 . S
C1090 H1085 0.949 . S
C1090 C1096 1.368 . S
C1091 C1075 1.349 . S
C1091 H1083 0.950 . S
C1091 C1089 1.327 . S
C1092 C1080 1.349 . S
C1092 H1086 0.950 . S
C1092 C1093 1.327 . S
C1093 H1087 0.950 . S
C1093 C1092 1.327 . S
C1093 C1097 1.429 . S
C1094 C1077 1.574 . S
C1094 H1088 0.949 1_554 S
C1094 C1098 1.368 1_554 S
C1095 C1076 1.429 . S
C1095 C1089 1.429 . S
C1095 C1096 1.523 . S
C1096 C1077 1.368 . S
C1096 C1090 1.368 . S
C1096 C1095 1.523 . S
C1097 C1081 1.429 . S
C1097 C1093 1.429 . S
C1097 C1098 1.523 . S
C1098 C1082 1.368 1_556 S
C1098 C1094 1.368 1_556 S
C1098 C1097 1.523 . S
H1099 C1074 0.950 . S
H1100 C1076 0.950 . S
H1101 C1077 0.949 . S
H1102 C1079 0.950 . S
H1103 C1081 0.950 . S
C1104 C1105 1.349 . S
C1104 C1106 1.327 . S
C1104 H1129 0.950 . S
C1105 C1104 1.349 . S
C1105 C1121 1.349 . S
C1106 C1104 1.327 . S
C1106 C1125 1.429 . S
C1106 H1130 0.950 . S
C1107 C1124 1.574 . S
C1107 C1126 1.368 1_554 S
C1107 H1131 0.949 1_554 S
H1108 C1112 0.949 . S
C1109 C1110 1.349 . S
C1109 C1111 1.327 . S
C1109 H1132 0.950 . S
C1110 C1109 1.349 . S
C1110 C1122 1.349 . S
C1111 C1109 1.327 . S
C1111 C1127 1.429 . S
C1111 H1133 0.950 . S
C1112 H1108 0.949 . S
C1112 C1120 1.574 . S
C1112 C1128 1.368 . S
H1113 C1121 0.950 . S
H1114 C1119 0.950 . S
H1115 C1120 0.957 . S
H1116 C1122 0.950 . S
H1117 C1123 0.950 . S
H1118 C1124 0.949 . S
C1119 H1114 0.950 . S
C1119 C1121 1.327 . S
C1119 C1125 1.429 . S
C1120 C1112 1.574 . S
C1120 H1115 0.957 . S
C1120 C1126 1.368 1_554 S
C1121 C1105 1.349 . S
C1121 H1113 0.950 . S
C1121 C1119 1.327 . S
C1122 C1110 1.349 . S
C1122 H1116 0.950 . S
C1122 C1123 1.327 . S
C1123 H1117 0.950 . S
C1123 C1122 1.327 . S
C1123 C1127 1.429 . S
C1124 C1107 1.574 . S
C1124 H1118 0.949 . S
C1124 C1128 1.368 . S
C1125 C1106 1.429 . S
C1125 C1119 1.429 . S
C1125 C1126 1.523 . S
C1126 C1107 1.368 1_556 S
C1126 C1120 1.368 1_556 S
C1126 C1125 1.523 . S
C1127 C1111 1.429 . S
C1127 C1123 1.429 . S
C1127 C1128 1.523 . S
C1128 C1112 1.368 . S
C1128 C1124 1.368 . S
C1128 C1127 1.523 . S
H1129 C1104 0.950 . S
H1130 C1106 0.950 . S
H1131 C1107 0.949 1_556 S
H1132 C1109 0.950 . S
H1133 C1111 0.950 . S
C1134 C1135 1.349 . S
C1134 C1136 1.327 . S
C1134 H1159 0.950 . S
C1135 C1134 1.349 . S
C1135 C1151 1.349 . S
C1136 C1134 1.327 . S
C1136 C1155 1.429 . S
C1136 H1160 0.950 . S
C1137 C1154 1.574 . S
C1137 C1156 1.368 . S
C1137 H1161 0.949 . S
H1138 C1142 0.949 . S
C1139 C1140 1.349 . S
C1139 C1141 1.327 . S
C1139 H1162 0.950 . S
C1140 C1139 1.349 . S
C1140 C1152 1.349 . S
C1141 C1139 1.327 . S
C1141 C1157 1.429 . S
C1141 H1163 0.950 . S
C1142 H1138 0.949 . S
C1142 C1150 1.574 . S
C1142 C1158 1.368 . S
H1143 C1151 0.950 . S
H1144 C1149 0.950 . S
H1145 C1150 0.949 . S
H1146 C1152 0.950 . S
H1147 C1153 0.950 . S
H1148 C1154 0.949 . S
C1149 H1144 0.950 . S
C1149 C1151 1.327 . S
C1149 C1155 1.429 . S
C1150 C1142 1.574 . S
C1150 H1145 0.949 . S
C1150 C1156 1.368 . S
C1151 C1135 1.349 . S
C1151 H1143 0.950 . S
C1151 C1149 1.327 . S
C1152 C1140 1.349 . S
C1152 H1146 0.950 . S
C1152 C1153 1.327 . S
C1153 H1147 0.950 . S
C1153 C1152 1.327 . S
C1153 C1157 1.429 . S
C1154 C1137 1.574 . S
C1154 H1148 0.949 . S
C1154 C1158 1.368 . S
C1155 C1136 1.429 . S
C1155 C1149 1.429 . S
C1155 C1156 1.523 . S
C1156 C1137 1.368 . S
C1156 C1150 1.368 . S
C1156 C1155 1.523 . S
C1157 C1141 1.429 . S
C1157 C1153 1.429 . S
C1157 C1158 1.523 . S
C1158 C1142 1.368 . S
C1158 C1154 1.368 . S
C1158 C1157 1.523 . S
H1159 C1134 0.950 . S
H1160 C1136 0.950 . S
H1161 C1137 0.949 . S
H1162 C1139 0.950 . S
H1163 C1141 0.950 . S
C1164 C1165 1.349 . S
C1164 C1166 1.327 . S
C1164 H1189 0.950 . S
C1165 C1164 1.349 . S
C1165 C1181 1.349 . S
C1166 C1164 1.327 . S
C1166 C1185 1.429 . S
C1166 H1190 0.950 . S
C1167 C1184 1.574 . S
C1167 C1186 1.368 . S
C1167 H1191 0.949 . S
H1168 C1172 0.949 . S
C1169 C1170 1.349 . S
C1169 C1171 1.327 . S
C1169 H1192 0.950 . S
C1170 C1169 1.349 . S
C1170 C1182 1.349 . S
C1171 C1169 1.327 . S
C1171 C1187 1.429 . S
C1171 H1193 0.950 . S
C1172 H1168 0.949 . S
C1172 C1180 1.574 . S
C1172 C1188 1.368 . S
H1173 C1181 0.950 . S
H1174 C1179 0.950 . S
H1175 C1180 0.949 . S
H1176 C1182 0.950 . S
H1177 C1183 0.950 . S
H1178 C1184 0.949 . S
C1179 H1174 0.950 . S
C1179 C1181 1.327 . S
C1179 C1185 1.429 . S
C1180 C1172 1.574 . S
C1180 H1175 0.949 . S
C1180 C1186 1.368 . S
C1181 C1165 1.349 . S
C1181 H1173 0.950 . S
C1181 C1179 1.327 . S
C1182 C1170 1.349 . S
C1182 H1176 0.950 . S
C1182 C1183 1.327 . S
C1183 H1177 0.950 . S
C1183 C1182 1.327 . S
C1183 C1187 1.429 . S
C1184 C1167 1.574 . S
C1184 H1178 0.949 . S
C1184 C1188 1.368 . S
C1185 C1166 1.429 . S
C1185 C1179 1.429 . S
C1185 C1186 1.523 . S
C1186 C1167 1.368 . S
C1186 C1180 1.368 . S
C1186 C1185 1.523 . S
C1187 C1171 1.429 . S
C1187 C1183 1.429 . S
C1187 C1188 1.523 . S
C1188 C1172 1.368 . S
C1188 C1184 1.368 . S
C1188 C1187 1.523 . S
H1189 C1164 0.950 . S
H1190 C1166 0.950 . S
H1191 C1167 0.949 . S
H1192 C1169 0.950 . S
H1193 C1171 0.950 . S
C1194 C1195 1.349 . S
C1194 C1196 1.327 . S
C1194 H1219 0.950 . S
C1195 C1194 1.349 . S
C1195 C1211 1.349 . S
C1196 C1194 1.327 . S
C1196 C1215 1.429 . S
C1196 H1220 0.950 . S
C1197 C1214 1.574 . S
C1197 C1216 1.368 . S
C1197 H1221 0.949 . S
H1198 C1202 0.949 . S
C1199 C1200 1.349 . S
C1199 C1201 1.327 . S
C1199 H1222 0.950 . S
C1200 C1199 1.349 . S
C1200 C1212 1.349 . S
C1201 C1199 1.327 . S
C1201 C1217 1.429 . S
C1201 H1223 0.950 . S
C1202 H1198 0.949 . S
C1202 C1210 1.574 . S
C1202 C1218 1.368 . S
H1203 C1211 0.950 . S
H1204 C1209 0.950 . S
H1205 C1210 0.949 . S
H1206 C1212 0.950 . S
H1207 C1213 0.950 . S
H1208 C1214 0.949 . S
C1209 H1204 0.950 . S
C1209 C1211 1.327 . S
C1209 C1215 1.429 . S
C1210 C1202 1.574 . S
C1210 H1205 0.949 . S
C1210 C1216 1.368 . S
C1211 C1195 1.349 . S
C1211 H1203 0.950 . S
C1211 C1209 1.327 . S
C1212 C1200 1.349 . S
C1212 H1206 0.950 . S
C1212 C1213 1.327 . S
C1213 H1207 0.950 . S
C1213 C1212 1.327 . S
C1213 C1217 1.429 . S
C1214 C1197 1.574 . S
C1214 H1208 0.949 . S
C1214 C1218 1.368 . S
C1215 C1196 1.429 . S
C1215 C1209 1.429 . S
C1215 C1216 1.523 . S
C1216 C1197 1.368 . S
C1216 C1210 1.368 . S
C1216 C1215 1.523 . S
C1217 C1201 1.429 . S
C1217 C1213 1.429 . S
C1217 C1218 1.523 . S
C1218 C1202 1.368 . S
C1218 C1214 1.368 . S
C1218 C1217 1.523 . S
H1219 C1194 0.950 . S
H1220 C1196 0.950 . S
H1221 C1197 0.949 . S
H1222 C1199 0.950 . S
H1223 C1201 0.950 . S
C1224 C1225 1.349 . S
C1224 C1226 1.327 . S
C1224 H1249 0.950 . S
C1225 C1224 1.349 . S
C1225 C1241 1.349 . S
C1226 C1224 1.327 . S
C1226 C1245 1.429 . S
C1226 H1250 0.950 . S
C1227 C1244 1.574 . S
C1227 C1246 1.368 . S
C1227 H1251 0.949 . S
H1228 C1232 0.949 . S
C1229 C1230 1.349 . S
C1229 C1231 1.327 . S
C1229 H1252 0.950 . S
C1230 C1229 1.349 . S
C1230 C1242 1.349 . S
C1231 C1229 1.327 . S
C1231 C1247 1.429 . S
C1231 H1253 0.950 . S
C1232 H1228 0.949 . S
C1232 C1240 1.574 . S
C1232 C1248 1.368 . S
H1233 C1241 0.950 . S
H1234 C1239 0.950 . S
H1235 C1240 0.949 . S
H1236 C1242 0.950 . S
H1237 C1243 0.950 . S
H1238 C1244 0.949 . S
C1239 H1234 0.950 . S
C1239 C1241 1.327 . S
C1239 C1245 1.429 . S
C1240 C1232 1.574 . S
C1240 H1235 0.949 . S
C1240 C1246 1.368 . S
C1241 C1225 1.349 . S
C1241 H1233 0.950 . S
C1241 C1239 1.327 . S
C1242 C1230 1.349 . S
C1242 H1236 0.950 . S
C1242 C1243 1.327 . S
C1243 H1237 0.950 . S
C1243 C1242 1.327 . S
C1243 C1247 1.429 . S
C1244 C1227 1.574 . S
C1244 H1238 0.949 . S
C1244 C1248 1.368 . S
C1245 C1226 1.429 . S
C1245 C1239 1.429 . S
C1245 C1246 1.523 . S
C1246 C1227 1.368 . S
C1246 C1240 1.368 . S
C1246 C1245 1.523 . S
C1247 C1231 1.429 . S
C1247 C1243 1.429 . S
C1247 C1248 1.523 . S
C1248 C1232 1.368 . S
C1248 C1244 1.368 . S
C1248 C1247 1.523 . S
H1249 C1224 0.950 . S
H1250 C1226 0.950 . S
H1251 C1227 0.949 . S
H1252 C1229 0.950 . S
H1253 C1231 0.950 . S
C1254 C1255 1.349 . S
C1254 C1256 1.327 . S
C1254 H1279 0.950 . S
C1255 C1254 1.349 . S
C1255 C1271 1.349 . S
C1256 C1254 1.327 . S
C1256 C1275 1.429 . S
C1256 H1280 0.950 . S
C1257 C1274 1.574 . S
C1257 C1276 1.368 . S
C1257 H1281 0.949 . S
H1258 C1262 0.949 . S
C1259 C1260 1.349 . S
C1259 C1261 1.327 . S
C1259 H1282 0.950 . S
C1260 C1259 1.349 . S
C1260 C1272 1.349 . S
C1261 C1259 1.327 . S
C1261 C1277 1.429 . S
C1261 H1283 0.950 . S
C1262 H1258 0.949 . S
C1262 C1270 1.574 . S
C1262 C1278 1.368 . S
H1263 C1271 0.950 . S
H1264 C1269 0.950 . S
H1265 C1270 0.949 . S
H1266 C1272 0.950 . S
H1267 C1273 0.950 . S
H1268 C1274 0.949 . S
C1269 H1264 0.950 . S
C1269 C1271 1.327 . S
C1269 C1275 1.429 . S
C1270 C1262 1.574 . S
C1270 H1265 0.949 . S
C1270 C1276 1.368 . S
C1271 C1255 1.349 . S
C1271 H1263 0.950 . S
C1271 C1269 1.327 . S
C1272 C1260 1.349 . S
C1272 H1266 0.950 . S
C1272 C1273 1.327 . S
C1273 H1267 0.950 . S
C1273 C1272 1.327 . S
C1273 C1277 1.429 . S
C1274 C1257 1.574 . S
C1274 H1268 0.949 . S
C1274 C1278 1.368 . S
C1275 C1256 1.429 . S
C1275 C1269 1.429 . S
C1275 C1276 1.523 . S
C1276 C1257 1.368 . S
C1276 C1270 1.368 . S
C1276 C1275 1.523 . S
C1277 C1261 1.429 . S
C1277 C1273 1.429 . S
C1277 C1278 1.523 . S
C1278 C1262 1.368 . S
C1278 C1274 1.368 . S
C1278 C1277 1.523 . S
H1279 C1254 0.950 . S
H1280 C1256 0.950 . S
H1281 C1257 0.949 . S
H1282 C1259 0.950 . S
H1283 C1261 0.950 . S
C1284 C1285 1.349 . S
C1284 C1286 1.327 . S
C1284 H1309 0.950 . S
C1285 C1284 1.349 . S
C1285 C1301 1.349 . S
C1286 C1284 1.327 . S
C1286 C1305 1.429 . S
C1286 H1310 0.950 . S
C1287 C1304 1.574 . S
C1287 C1306 1.368 . S
C1287 H1311 0.949 . S
H1288 C1292 0.949 . S
C1289 C1290 1.349 . S
C1289 C1291 1.327 . S
C1289 H1312 0.950 . S
C1290 C1289 1.349 . S
C1290 C1302 1.349 . S
C1291 C1289 1.327 . S
C1291 C1307 1.429 . S
C1291 H1313 0.950 . S
C1292 H1288 0.949 . S
C1292 C1300 1.574 . S
C1292 C1308 1.368 . S
H1293 C1301 0.950 . S
H1294 C1299 0.950 . S
H1295 C1300 0.949 . S
H1296 C1302 0.950 . S
H1297 C1303 0.950 . S
H1298 C1304 0.949 . S
C1299 H1294 0.950 . S
C1299 C1301 1.327 . S
C1299 C1305 1.429 . S
C1300 C1292 1.574 . S
C1300 H1295 0.949 . S
C1300 C1306 1.368 . S
C1301 C1285 1.349 . S
C1301 H1293 0.950 . S
C1301 C1299 1.327 . S
C1302 C1290 1.349 . S
C1302 H1296 0.950 . S
C1302 C1303 1.327 . S
C1303 H1297 0.950 . S
C1303 C1302 1.327 . S
C1303 C1307 1.429 . S
C1304 C1287 1.574 . S
C1304 H1298 0.949 . S
C1304 C1308 1.368 . S
C1305 C1286 1.429 . S
C1305 C1299 1.429 . S
C1305 C1306 1.523 . S
C1306 C1287 1.368 . S
C1306 C1300 1.368 . S
C1306 C1305 1.523 . S
C1307 C1291 1.429 . S
C1307 C1303 1.429 . S
C1307 C1308 1.523 . S
C1308 C1292 1.368 . S
C1308 C1304 1.368 . S
C1308 C1307 1.523 . S
H1309 C1284 0.950 . S
H1310 C1286 0.950 . S
H1311 C1287 0.949 . S
H1312 C1289 0.950 . S
H1313 C1291 0.950 . S
C1314 C1315 1.349 . S
C1314 C1316 1.327 . S
C1314 H1339 0.950 . S
C1315 C1314 1.349 . S
C1315 C1331 1.349 . S
C1316 C1314 1.327 . S
C1316 C1335 1.429 . S
C1316 H1340 0.950 . S
C1317 C1334 1.579 . S
C1317 C1336 1.364 1_455 S
C1317 H1341 0.949 1_455 S
H1318 C1322 0.949 1_455 S
C1319 C1320 1.349 . S
C1319 C1321 1.327 . S
C1319 H1342 0.950 . S
C1320 C1319 1.349 . S
C1320 C1332 1.349 . S
C1321 C1319 1.327 . S
C1321 C1337 1.429 . S
C1321 H1343 0.950 . S
C1322 H1318 0.949 1_655 S
C1322 C1330 1.579 . S
C1322 C1338 1.364 1_655 S
H1323 C1331 0.950 . S
H1324 C1329 0.950 . S
H1325 C1330 0.949 . S
H1326 C1332 0.950 . S
H1327 C1333 0.950 . S
H1328 C1334 0.949 . S
C1329 H1324 0.950 . S
C1329 C1331 1.327 . S
C1329 C1335 1.429 . S
C1330 C1322 1.579 . S
C1330 H1325 0.949 . S
C1330 C1336 1.368 1_556 S
C1331 C1315 1.349 . S
C1331 H1323 0.950 . S
C1331 C1329 1.327 . S
C1332 C1320 1.349 . S
C1332 H1326 0.950 . S
C1332 C1333 1.327 . S
C1333 H1327 0.950 . S
C1333 C1332 1.327 . S
C1333 C1337 1.429 . S
C1334 C1317 1.579 . S
C1334 H1328 0.949 . S
C1334 C1338 1.368 1_554 S
C1335 C1316 1.429 . S
C1335 C1329 1.429 . S
C1335 C1336 1.523 . S
C1336 C1317 1.364 1_655 S
C1336 C1330 1.368 1_554 S
C1336 C1335 1.523 . S
C1337 C1321 1.429 . S
C1337 C1333 1.429 . S
C1337 C1338 1.523 . S
C1338 C1322 1.364 1_455 S
C1338 C1334 1.368 1_556 S
C1338 C1337 1.523 . S
H1339 C1314 0.950 . S
H1340 C1316 0.950 . S
H1341 C1317 0.949 1_655 S
H1342 C1319 0.950 . S
H1343 C1321 0.950 . S
C1344 C1345 1.349 . S
C1344 C1346 1.327 . S
C1344 H1369 0.950 . S
C1345 C1344 1.349 . S
C1345 C1361 1.349 . S
C1346 C1344 1.327 . S
C1346 C1365 1.429 . S
C1346 H1370 0.950 . S
C1347 C1364 1.574 . S
C1347 C1366 1.368 . S
C1347 H1371 0.949 . S
H1348 C1352 0.949 . S
C1349 C1350 1.349 . S
C1349 C1351 1.327 . S
C1349 H1372 0.950 . S
C1350 C1349 1.349 . S
C1350 C1362 1.349 . S
C1351 C1349 1.327 . S
C1351 C1367 1.429 . S
C1351 H1373 0.950 . S
C1352 H1348 0.949 . S
C1352 C1360 1.574 . S
C1352 C1368 1.368 . S
H1353 C1361 0.950 . S
H1354 C1359 0.950 . S
H1355 C1360 0.949 . S
H1356 C1362 0.950 . S
H1357 C1363 0.950 . S
H1358 C1364 0.949 . S
C1359 H1354 0.950 . S
C1359 C1361 1.327 . S
C1359 C1365 1.429 . S
C1360 C1352 1.574 . S
C1360 H1355 0.949 . S
C1360 C1366 1.368 1_554 S
C1361 C1345 1.349 . S
C1361 H1353 0.950 . S
C1361 C1359 1.327 . S
C1362 C1350 1.349 . S
C1362 H1356 0.950 . S
C1362 C1363 1.327 . S
C1363 H1357 0.950 . S
C1363 C1362 1.327 . S
C1363 C1367 1.429 . S
C1364 C1347 1.574 . S
C1364 H1358 0.949 . S
C1364 C1368 1.368 1_556 S
C1365 C1346 1.429 . S
C1365 C1359 1.429 . S
C1365 C1366 1.523 . S
C1366 C1347 1.368 . S
C1366 C1360 1.368 1_556 S
C1366 C1365 1.523 . S
C1367 C1351 1.429 . S
C1367 C1363 1.429 . S
C1367 C1368 1.523 . S
C1368 C1352 1.368 . S
C1368 C1364 1.368 1_554 S
C1368 C1367 1.523 . S
H1369 C1344 0.950 . S
H1370 C1346 0.950 . S
H1371 C1347 0.949 . S
H1372 C1349 0.950 . S
H1373 C1351 0.950 . S
C1374 C1375 1.349 . S
C1374 C1376 1.327 . S
C1374 H1399 0.950 . S
C1375 C1374 1.349 . S
C1375 C1391 1.349 . S
C1376 C1374 1.327 . S
C1376 C1395 1.429 . S
C1376 H1400 0.950 . S
C1377 C1394 1.574 1_545 S
C1377 C1396 1.368 . S
C1377 H1401 0.949 . S
H1378 C1382 0.949 . S
C1379 C1380 1.349 . S
C1379 C1381 1.327 . S
C1379 H1402 0.950 . S
C1380 C1379 1.349 . S
C1380 C1392 1.349 . S
C1381 C1379 1.327 . S
C1381 C1397 1.429 . S
C1381 H1403 0.950 . S
C1382 H1378 0.949 . S
C1382 C1390 1.574 1_565 S
C1382 C1398 1.368 . S
H1383 C1391 0.950 . S
H1384 C1389 0.950 . S
H1385 C1390 0.949 . S
H1386 C1392 0.950 . S
H1387 C1393 0.950 . S
H1388 C1394 0.949 . S
C1389 H1384 0.950 . S
C1389 C1391 1.327 . S
C1389 C1395 1.429 . S
C1390 C1382 1.574 1_545 S
C1390 H1385 0.949 . S
C1390 C1396 1.368 1_556 S
C1391 C1375 1.349 . S
C1391 H1383 0.950 . S
C1391 C1389 1.327 . S
C1392 C1380 1.349 . S
C1392 H1386 0.950 . S
C1392 C1393 1.327 . S
C1393 H1387 0.950 . S
C1393 C1392 1.327 . S
C1393 C1397 1.429 . S
C1394 C1377 1.574 1_565 S
C1394 H1388 0.949 . S
C1394 C1398 1.368 1_554 S
C1395 C1376 1.429 . S
C1395 C1389 1.429 . S
C1395 C1396 1.523 . S
C1396 C1377 1.368 . S
C1396 C1390 1.368 1_554 S
C1396 C1395 1.523 . S
C1397 C1381 1.429 . S
C1397 C1393 1.429 . S
C1397 C1398 1.523 . S
C1398 C1382 1.368 . S
C1398 C1394 1.368 1_556 S
C1398 C1397 1.523 . S
H1399 C1374 0.950 . S
H1400 C1376 0.950 . S
H1401 C1377 0.949 . S
H1402 C1379 0.950 . S
H1403 C1381 0.950 . S
C1404 C1405 1.349 . S
C1404 C1406 1.327 . S
C1404 H1429 0.950 . S
C1405 C1404 1.349 . S
C1405 C1421 1.349 . S
C1406 C1404 1.327 . S
C1406 C1425 1.429 . S
C1406 H1430 0.950 . S
C1407 C1424 1.574 . S
C1407 C1426 1.368 . S
C1407 H1431 0.949 . S
H1408 C1412 0.949 . S
C1409 C1410 1.349 . S
C1409 C1411 1.327 . S
C1409 H1432 0.950 . S
C1410 C1409 1.349 . S
C1410 C1422 1.349 . S
C1411 C1409 1.327 . S
C1411 C1427 1.429 . S
C1411 H1433 0.950 . S
C1412 H1408 0.949 . S
C1412 C1420 1.574 . S
C1412 C1428 1.368 . S
H1413 C1421 0.950 . S
H1414 C1419 0.950 . S
H1415 C1420 0.949 . S
H1416 C1422 0.950 . S
H1417 C1423 0.950 . S
H1418 C1424 0.949 . S
C1419 H1414 0.950 . S
C1419 C1421 1.327 . S
C1419 C1425 1.429 . S
C1420 C1412 1.574 . S
C1420 H1415 0.949 . S
C1420 C1426 1.368 1_556 S
C1421 C1405 1.349 . S
C1421 H1413 0.950 . S
C1421 C1419 1.327 . S
C1422 C1410 1.349 . S
C1422 H1416 0.950 . S
C1422 C1423 1.327 . S
C1423 H1417 0.950 . S
C1423 C1422 1.327 . S
C1423 C1427 1.429 . S
C1424 C1407 1.574 . S
C1424 H1418 0.949 . S
C1424 C1428 1.368 1_554 S
C1425 C1406 1.429 . S
C1425 C1419 1.429 . S
C1425 C1426 1.523 . S
C1426 C1407 1.368 . S
C1426 C1420 1.368 1_554 S
C1426 C1425 1.523 . S
C1427 C1411 1.429 . S
C1427 C1423 1.429 . S
C1427 C1428 1.523 . S
C1428 C1412 1.368 . S
C1428 C1424 1.368 1_556 S
C1428 C1427 1.523 . S
H1429 C1404 0.950 . S
H1430 C1406 0.950 . S
H1431 C1407 0.949 . S
H1432 C1409 0.950 . S
H1433 C1411 0.950 . S
C1434 C1435 1.349 . S
C1434 C1436 1.327 . S
C1434 H1459 0.950 . S
C1435 C1434 1.349 . S
C1435 C1451 1.349 . S
C1436 C1434 1.327 . S
C1436 C1455 1.429 . S
C1436 H1460 0.950 . S
C1437 C1454 1.574 1_565 S
C1437 C1456 1.368 1_556 S
C1437 H1461 0.949 . S
H1438 C1442 0.949 . S
C1439 C1440 1.349 . S
C1439 C1441 1.327 . S
C1439 H1462 0.950 . S
C1440 C1439 1.349 . S
C1440 C1452 1.349 . S
C1441 C1439 1.327 . S
C1441 C1457 1.429 . S
C1441 H1463 0.950 . S
C1442 H1438 0.949 . S
C1442 C1450 1.574 1_545 S
C1442 C1458 1.368 1_554 S
H1443 C1451 0.950 1_556 S
H1444 C1449 0.950 . S
H1445 C1450 0.949 . S
H1446 C1452 0.950 1_554 S
H1447 C1453 0.950 . S
H1448 C1454 0.949 . S
C1449 H1444 0.950 . S
C1449 C1451 1.327 1_556 S
C1449 C1455 1.429 1_556 S
C1450 C1442 1.574 1_565 S
C1450 H1445 0.949 . S
C1450 C1456 1.368 . S
C1451 C1435 1.349 . S
C1451 H1443 0.950 1_554 S
C1451 C1449 1.327 1_554 S
C1452 C1440 1.349 . S
C1452 H1446 0.950 1_556 S
C1452 C1453 1.327 1_556 S
C1453 H1447 0.950 . S
C1453 C1452 1.327 1_554 S
C1453 C1457 1.429 1_554 S
C1454 C1437 1.574 1_545 S
C1454 H1448 0.949 . S
C1454 C1458 1.368 . S
C1455 C1436 1.429 . S
C1455 C1449 1.429 1_554 S
C1455 C1456 1.523 . S
C1456 C1437 1.368 1_554 S
C1456 C1450 1.368 . S
C1456 C1455 1.523 . S
C1457 C1441 1.429 . S
C1457 C1453 1.429 1_556 S
C1457 C1458 1.523 . S
C1458 C1442 1.368 1_556 S
C1458 C1454 1.368 . S
C1458 C1457 1.523 . S
H1459 C1434 0.950 . S
H1460 C1436 0.950 . S
H1461 C1437 0.949 . S
H1462 C1439 0.950 . S
H1463 C1441 0.950 . S
C1464 C1465 1.349 . S
C1464 C1466 1.327 . S
C1464 H1489 0.950 . S
C1465 C1464 1.349 . S
C1465 C1481 1.349 . S
C1466 C1464 1.327 . S
C1466 C1485 1.429 . S
C1466 H1490 0.950 . S
C1467 C1484 1.574 1_655 S
C1467 C1486 1.368 1_554 S
C1467 H1491 0.949 . S
H1468 C1472 0.949 . S
C1469 C1470 1.349 . S
C1469 C1471 1.327 . S
C1469 H1492 0.950 . S
C1470 C1469 1.349 . S
C1470 C1482 1.349 . S
C1471 C1469 1.327 . S
C1471 C1487 1.429 . S
C1471 H1493 0.950 . S
C1472 H1468 0.949 . S
C1472 C1480 1.574 1_455 S
C1472 C1488 1.368 1_556 S
H1473 C1481 0.950 1_554 S
H1474 C1479 0.950 . S
H1475 C1480 0.949 . S
H1476 C1482 0.950 1_556 S
H1477 C1483 0.950 . S
H1478 C1484 0.949 . S
C1479 H1474 0.950 . S
C1479 C1481 1.327 1_554 S
C1479 C1485 1.429 1_554 S
C1480 C1472 1.574 1_655 S
C1480 H1475 0.949 . S
C1480 C1486 1.368 . S
C1481 C1465 1.349 . S
C1481 H1473 0.950 1_556 S
C1481 C1479 1.327 1_556 S
C1482 C1470 1.349 . S
C1482 H1476 0.950 1_554 S
C1482 C1483 1.327 1_554 S
C1483 H1477 0.950 . S
C1483 C1482 1.327 1_556 S
C1483 C1487 1.429 1_556 S
C1484 C1467 1.574 1_455 S
C1484 H1478 0.949 . S
C1484 C1488 1.368 . S
C1485 C1466 1.429 . S
C1485 C1479 1.429 1_556 S
C1485 C1486 1.523 . S
C1486 C1467 1.368 1_556 S
C1486 C1480 1.368 . S
C1486 C1485 1.523 . S
C1487 C1471 1.429 . S
C1487 C1483 1.429 1_554 S
C1487 C1488 1.523 . S
C1488 C1472 1.368 1_554 S
C1488 C1484 1.368 . S
C1488 C1487 1.523 . S
H1489 C1464 0.950 . S
H1490 C1466 0.950 . S
H1491 C1467 0.949 . S
H1492 C1469 0.950 . S
H1493 C1471 0.950 . S
C1494 C1495 1.349 . S
C1494 C1496 1.327 1_556 S
C1494 H1519 0.950 1_556 S
C1495 C1494 1.349 . S
C1495 C1511 1.349 . S
C1496 C1494 1.327 1_554 S
C1496 C1515 1.429 1_554 S
C1496 H1520 0.950 . S
C1497 C1514 1.574 . S
C1497 C1516 1.368 . S
C1497 H1521 0.949 . S
H1498 C1502 0.949 . S
C1499 C1500 1.349 . S
C1499 C1501 1.327 1_554 S
C1499 H1522 0.950 1_554 S
C1500 C1499 1.349 . S
C1500 C1512 1.349 . S
C1501 C1499 1.327 1_556 S
C1501 C1517 1.429 1_556 S
C1501 H1523 0.950 . S
C1502 H1498 0.949 . S
C1502 C1510 1.574 . S
C1502 C1518 1.368 . S
H1503 C1511 0.950 . S
H1504 C1509 0.950 . S
H1505 C1510 0.949 . S
H1506 C1512 0.950 . S
H1507 C1513 0.950 . S
H1508 C1514 0.949 . S
C1509 H1504 0.950 . S
C1509 C1511 1.327 . S
C1509 C1515 1.429 . S
C1510 C1502 1.574 . S
C1510 H1505 0.949 . S
C1510 C1516 1.368 1_554 S
C1511 C1495 1.349 . S
C1511 H1503 0.950 . S
C1511 C1509 1.327 . S
C1512 C1500 1.349 . S
C1512 H1506 0.950 . S
C1512 C1513 1.327 . S
C1513 H1507 0.950 . S
C1513 C1512 1.327 . S
C1513 C1517 1.429 . S
C1514 C1497 1.574 . S
C1514 H1508 0.949 . S
C1514 C1518 1.368 1_556 S
C1515 C1496 1.429 1_556 S
C1515 C1509 1.429 . S
C1515 C1516 1.523 . S
C1516 C1497 1.368 . S
C1516 C1510 1.368 1_556 S
C1516 C1515 1.523 . S
C1517 C1501 1.429 1_554 S
C1517 C1513 1.429 . S
C1517 C1518 1.523 . S
C1518 C1502 1.368 . S
C1518 C1514 1.368 1_554 S
C1518 C1517 1.523 . S
H1519 C1494 0.950 1_554 S
H1520 C1496 0.950 . S
H1521 C1497 0.949 . S
H1522 C1499 0.950 1_556 S
H1523 C1501 0.950 . S
C1524 C1525 1.349 . S
C1524 C1526 1.327 . S
C1524 H1549 0.950 . S
C1525 C1524 1.349 . S
C1525 C1541 1.349 . S
C1526 C1524 1.327 . S
C1526 C1545 1.429 . S
C1526 H1550 0.950 1_556 S
C1527 C1544 1.574 1_545 S
C1527 C1546 1.368 . S
C1527 H1551 0.949 . S
H1528 C1532 0.949 . S
C1529 C1530 1.349 . S
C1529 C1531 1.327 . S
C1529 H1552 0.950 . S
C1530 C1529 1.349 . S
C1530 C1542 1.349 . S
C1531 C1529 1.327 . S
C1531 C1547 1.429 . S
C1531 H1553 0.950 1_554 S
C1532 H1528 0.949 . S
C1532 C1540 1.574 1_565 S
C1532 C1548 1.368 . S
H1533 C1541 0.950 . S
H1534 C1539 0.950 . S
H1535 C1540 0.949 . S
H1536 C1542 0.950 . S
H1537 C1543 0.950 . S
H1538 C1544 0.949 . S
C1539 H1534 0.950 . S
C1539 C1541 1.327 . S
C1539 C1545 1.429 . S
C1540 C1532 1.574 1_545 S
C1540 H1535 0.949 . S
C1540 C1546 1.368 1_554 S
C1541 C1525 1.349 . S
C1541 H1533 0.950 . S
C1541 C1539 1.327 . S
C1542 C1530 1.349 . S
C1542 H1536 0.950 . S
C1542 C1543 1.327 . S
C1543 H1537 0.950 . S
C1543 C1542 1.327 . S
C1543 C1547 1.429 . S
C1544 C1527 1.574 1_565 S
C1544 H1538 0.949 . S
C1544 C1548 1.368 1_556 S
C1545 C1526 1.429 . S
C1545 C1539 1.429 . S
C1545 C1546 1.523 . S
C1546 C1527 1.368 . S
C1546 C1540 1.368 1_556 S
C1546 C1545 1.523 . S
C1547 C1531 1.429 . S
C1547 C1543 1.429 . S
C1547 C1548 1.523 . S
C1548 C1532 1.368 . S
C1548 C1544 1.368 1_554 S
C1548 C1547 1.523 . S
H1549 C1524 0.950 . S
H1550 C1526 0.950 1_554 S
H1551 C1527 0.949 . S
H1552 C1529 0.950 . S
H1553 C1531 0.950 1_556 S
C1554 C1555 1.349 . S
C1554 C1556 1.327 . S
C1554 H1579 0.950 . S
C1555 C1554 1.349 . S
C1555 C1571 1.349 . S
C1556 C1554 1.327 . S
C1556 C1575 1.429 . S
C1556 H1580 0.950 . S
C1557 C1574 1.574 1_655 S
C1557 C1576 1.368 1_554 S
C1557 H1581 0.949 . S
H1558 C1562 0.949 . S
C1559 C1560 1.349 . S
C1559 C1561 1.327 . S
C1559 H1582 0.950 . S
C1560 C1559 1.349 . S
C1560 C1572 1.349 . S
C1561 C1559 1.327 . S
C1561 C1577 1.429 . S
C1561 H1583 0.950 . S
C1562 H1558 0.949 . S
C1562 C1570 1.574 1_455 S
C1562 C1578 1.368 1_556 S
H1563 C1571 0.950 . S
H1564 C1569 0.950 . S
H1565 C1570 0.949 . S
H1566 C1572 0.950 . S
H1567 C1573 0.950 . S
H1568 C1574 0.949 . S
C1569 H1564 0.950 . S
C1569 C1571 1.327 . S
C1569 C1575 1.429 . S
C1570 C1562 1.574 1_655 S
C1570 H1565 0.949 . S
C1570 C1576 1.368 . S
C1571 C1555 1.349 . S
C1571 H1563 0.950 . S
C1571 C1569 1.327 . S
C1572 C1560 1.349 . S
C1572 H1566 0.950 . S
C1572 C1573 1.327 . S
C1573 H1567 0.950 . S
C1573 C1572 1.327 . S
C1573 C1577 1.429 . S
C1574 C1557 1.574 1_455 S
C1574 H1568 0.949 . S
C1574 C1578 1.368 . S
C1575 C1556 1.429 . S
C1575 C1569 1.429 . S
C1575 C1576 1.523 . S
C1576 C1557 1.368 1_556 S
C1576 C1570 1.368 . S
C1576 C1575 1.523 . S
C1577 C1561 1.429 . S
C1577 C1573 1.429 . S
C1577 C1578 1.523 . S
C1578 C1562 1.368 1_554 S
C1578 C1574 1.368 . S
C1578 C1577 1.523 . S
H1579 C1554 0.950 . S
H1580 C1556 0.950 . S
H1581 C1557 0.949 . S
H1582 C1559 0.950 . S
H1583 C1561 0.950 . S
C1584 C1585 1.349 . S
C1584 C1586 1.327 . S
C1584 H1609 0.950 . S
C1585 C1584 1.349 . S
C1585 C1601 1.349 . S
C1586 C1584 1.327 . S
C1586 C1605 1.429 . S
C1586 H1610 0.950 . S
C1587 C1604 1.574 . S
C1587 C1606 1.368 . S
C1587 H1611 0.949 . S
H1588 C1592 0.949 . S
C1589 C1590 1.349 . S
C1589 C1591 1.327 . S
C1589 H1612 0.950 . S
C1590 C1589 1.349 . S
C1590 C1602 1.349 . S
C1591 C1589 1.327 . S
C1591 C1607 1.429 . S
C1591 H1613 0.950 . S
C1592 H1588 0.949 . S
C1592 C1600 1.574 . S
C1592 C1608 1.368 . S
H1593 C1601 0.950 . S
H1594 C1599 0.950 . S
H1595 C1600 0.949 . S
H1596 C1602 0.950 . S
H1597 C1603 0.950 . S
H1598 C1604 0.949 . S
C1599 H1594 0.950 . S
C1599 C1601 1.327 . S
C1599 C1605 1.429 . S
C1600 C1592 1.574 . S
C1600 H1595 0.949 . S
C1600 C1606 1.368 . S
C1601 C1585 1.349 . S
C1601 H1593 0.950 . S
C1601 C1599 1.327 . S
C1602 C1590 1.349 . S
C1602 H1596 0.950 . S
C1602 C1603 1.327 . S
C1603 H1597 0.950 . S
C1603 C1602 1.327 . S
C1603 C1607 1.429 . S
C1604 C1587 1.574 . S
C1604 H1598 0.949 . S
C1604 C1608 1.368 . S
C1605 C1586 1.429 . S
C1605 C1599 1.429 . S
C1605 C1606 1.523 . S
C1606 C1587 1.368 . S
C1606 C1600 1.368 . S
C1606 C1605 1.523 . S
C1607 C1591 1.429 . S
C1607 C1603 1.429 . S
C1607 C1608 1.523 . S
C1608 C1592 1.368 . S
C1608 C1604 1.368 . S
C1608 C1607 1.523 . S
H1609 C1584 0.950 . S
H1610 C1586 0.950 . S
H1611 C1587 0.949 . S
H1612 C1589 0.950 . S
H1613 C1591 0.950 . S
C1614 C1615 1.349 . S
C1614 C1616 1.327 . S
C1614 H1639 0.950 . S
C1615 C1614 1.349 . S
C1615 C1631 1.349 . S
C1616 C1614 1.327 . S
C1616 C1635 1.429 . S
C1616 H1640 0.950 . S
C1617 C1634 1.574 . S
C1617 C1636 1.368 . S
C1617 H1641 0.949 . S
H1618 C1622 0.949 . S
C1619 C1620 1.349 . S
C1619 C1621 1.327 . S
C1619 H1642 0.950 . S
C1620 C1619 1.349 . S
C1620 C1632 1.349 . S
C1621 C1619 1.327 . S
C1621 C1637 1.429 . S
C1621 H1643 0.950 . S
C1622 H1618 0.949 . S
C1622 C1630 1.574 . S
C1622 C1638 1.368 . S
H1623 C1631 0.950 . S
H1624 C1629 0.950 . S
H1625 C1630 0.949 . S
H1626 C1632 0.950 . S
H1627 C1633 0.950 . S
H1628 C1634 0.949 . S
C1629 H1624 0.950 . S
C1629 C1631 1.327 . S
C1629 C1635 1.429 . S
C1630 C1622 1.574 . S
C1630 H1625 0.949 . S
C1630 C1636 1.368 . S
C1631 C1615 1.349 . S
C1631 H1623 0.950 . S
C1631 C1629 1.327 . S
C1632 C1620 1.349 . S
C1632 H1626 0.950 . S
C1632 C1633 1.327 . S
C1633 H1627 0.950 . S
C1633 C1632 1.327 . S
C1633 C1637 1.429 . S
C1634 C1617 1.574 . S
C1634 H1628 0.949 . S
C1634 C1638 1.368 . S
C1635 C1616 1.429 . S
C1635 C1629 1.429 . S
C1635 C1636 1.523 . S
C1636 C1617 1.368 . S
C1636 C1630 1.368 . S
C1636 C1635 1.523 . S
C1637 C1621 1.429 . S
C1637 C1633 1.429 . S
C1637 C1638 1.523 . S
C1638 C1622 1.368 . S
C1638 C1634 1.368 . S
C1638 C1637 1.523 . S
H1639 C1614 0.950 . S
H1640 C1616 0.950 . S
H1641 C1617 0.949 . S
H1642 C1619 0.950 . S
H1643 C1621 0.950 . S
C1644 C1645 1.349 . S
C1644 C1646 1.327 . S
C1644 H1669 0.950 . S
C1645 C1644 1.349 . S
C1645 C1661 1.349 . S
C1646 C1644 1.327 . S
C1646 C1665 1.429 . S
C1646 H1670 0.950 . S
C1647 C1664 1.574 . S
C1647 C1666 1.368 . S
C1647 H1671 0.949 . S
H1648 C1652 0.949 . S
C1649 C1650 1.349 . S
C1649 C1651 1.327 . S
C1649 H1672 0.950 . S
C1650 C1649 1.349 . S
C1650 C1662 1.349 . S
C1651 C1649 1.327 . S
C1651 C1667 1.429 . S
C1651 H1673 0.950 . S
C1652 H1648 0.949 . S
C1652 C1660 1.574 . S
C1652 C1668 1.368 . S
H1653 C1661 0.950 . S
H1654 C1659 0.950 . S
H1655 C1660 0.949 . S
H1656 C1662 0.950 . S
H1657 C1663 0.950 . S
H1658 C1664 0.949 . S
C1659 H1654 0.950 . S
C1659 C1661 1.327 . S
C1659 C1665 1.429 . S
C1660 C1652 1.574 . S
C1660 H1655 0.949 . S
C1660 C1666 1.368 . S
C1661 C1645 1.349 . S
C1661 H1653 0.950 . S
C1661 C1659 1.327 . S
C1662 C1650 1.349 . S
C1662 H1656 0.950 . S
C1662 C1663 1.327 . S
C1663 H1657 0.950 . S
C1663 C1662 1.327 . S
C1663 C1667 1.429 . S
C1664 C1647 1.574 . S
C1664 H1658 0.949 . S
C1664 C1668 1.368 . S
C1665 C1646 1.429 . S
C1665 C1659 1.429 . S
C1665 C1666 1.523 . S
C1666 C1647 1.368 . S
C1666 C1660 1.368 . S
C1666 C1665 1.523 . S
C1667 C1651 1.429 . S
C1667 C1663 1.429 . S
C1667 C1668 1.523 . S
C1668 C1652 1.368 . S
C1668 C1664 1.368 . S
C1668 C1667 1.523 . S
H1669 C1644 0.950 . S
H1670 C1646 0.950 . S
H1671 C1647 0.949 . S
H1672 C1649 0.950 . S
H1673 C1651 0.950 . S
C1674 C1675 1.349 . S
C1674 C1676 1.327 . S
C1674 H1699 0.950 . S
C1675 C1674 1.349 . S
C1675 C1691 1.349 . S
C1676 C1674 1.327 . S
C1676 C1695 1.429 . S
C1676 H1700 0.950 . S
C1677 C1694 1.574 . S
C1677 C1696 1.368 . S
C1677 H1701 0.949 . S
H1678 C1682 0.949 . S
C1679 C1680 1.349 . S
C1679 C1681 1.327 . S
C1679 H1702 0.950 . S
C1680 C1679 1.349 . S
C1680 C1692 1.349 . S
C1681 C1679 1.327 . S
C1681 C1697 1.429 . S
C1681 H1703 0.950 . S
C1682 H1678 0.949 . S
C1682 C1690 1.574 . S
C1682 C1698 1.368 . S
H1683 C1691 0.950 . S
H1684 C1689 0.950 . S
H1685 C1690 0.949 . S
H1686 C1692 0.950 . S
H1687 C1693 0.950 . S
H1688 C1694 0.949 . S
C1689 H1684 0.950 . S
C1689 C1691 1.327 . S
C1689 C1695 1.429 . S
C1690 C1682 1.574 . S
C1690 H1685 0.949 . S
C1690 C1696 1.368 . S
C1691 C1675 1.349 . S
C1691 H1683 0.950 . S
C1691 C1689 1.327 . S
C1692 C1680 1.349 . S
C1692 H1686 0.950 . S
C1692 C1693 1.327 . S
C1693 H1687 0.950 . S
C1693 C1692 1.327 . S
C1693 C1697 1.429 . S
C1694 C1677 1.574 . S
C1694 H1688 0.949 . S
C1694 C1698 1.368 . S
C1695 C1676 1.429 . S
C1695 C1689 1.429 . S
C1695 C1696 1.523 . S
C1696 C1677 1.368 . S
C1696 C1690 1.368 . S
C1696 C1695 1.523 . S
C1697 C1681 1.429 . S
C1697 C1693 1.429 . S
C1697 C1698 1.523 . S
C1698 C1682 1.368 . S
C1698 C1694 1.368 . S
C1698 C1697 1.523 . S
H1699 C1674 0.950 . S
H1700 C1676 0.950 . S
H1701 C1677 0.949 . S
H1702 C1679 0.950 . S
H1703 C1681 0.950 . S
C1704 C1705 1.349 . S
C1704 C1706 1.327 . S
C1704 H1729 0.950 . S
C1705 C1704 1.349 . S
C1705 C1721 1.349 . S
C1706 C1704 1.327 . S
C1706 C1725 1.429 . S
C1706 H1730 0.950 . S
C1707 C1724 1.574 . S
C1707 C1726 1.368 . S
C1707 H1731 0.949 . S
H1708 C1712 0.949 . S
C1709 C1710 1.349 . S
C1709 C1711 1.327 . S
C1709 H1732 0.950 . S
C1710 C1709 1.349 . S
C1710 C1722 1.349 . S
C1711 C1709 1.327 . S
C1711 C1727 1.429 . S
C1711 H1733 0.950 . S
C1712 H1708 0.949 . S
C1712 C1720 1.574 . S
C1712 C1728 1.368 . S
H1713 C1721 0.950 . S
H1714 C1719 0.950 . S
H1715 C1720 0.949 . S
H1716 C1722 0.950 . S
H1717 C1723 0.950 . S
H1718 C1724 0.949 . S
C1719 H1714 0.950 . S
C1719 C1721 1.327 . S
C1719 C1725 1.429 . S
C1720 C1712 1.574 . S
C1720 H1715 0.949 . S
C1720 C1726 1.368 . S
C1721 C1705 1.349 . S
C1721 H1713 0.950 . S
C1721 C1719 1.327 . S
C1722 C1710 1.349 . S
C1722 H1716 0.950 . S
C1722 C1723 1.327 . S
C1723 H1717 0.950 . S
C1723 C1722 1.327 . S
C1723 C1727 1.429 . S
C1724 C1707 1.574 . S
C1724 H1718 0.949 . S
C1724 C1728 1.368 . S
C1725 C1706 1.429 . S
C1725 C1719 1.429 . S
C1725 C1726 1.523 . S
C1726 C1707 1.368 . S
C1726 C1720 1.368 . S
C1726 C1725 1.523 . S
C1727 C1711 1.429 . S
C1727 C1723 1.429 . S
C1727 C1728 1.523 . S
C1728 C1712 1.368 . S
C1728 C1724 1.368 . S
C1728 C1727 1.523 . S
H1729 C1704 0.950 . S
H1730 C1706 0.950 . S
H1731 C1707 0.949 . S
H1732 C1709 0.950 . S
H1733 C1711 0.950 . S
C1734 C1735 1.349 . S
C1734 C1736 1.327 . S
C1734 H1759 0.950 . S
C1735 C1734 1.349 . S
C1735 C1751 1.349 . S
C1736 C1734 1.327 . S
C1736 C1755 1.429 . S
C1736 H1760 0.950 . S
C1737 C1754 1.574 . S
C1737 C1756 1.368 . S
C1737 H1761 0.949 . S
H1738 C1742 0.949 . S
C1739 C1740 1.349 . S
C1739 C1741 1.327 . S
C1739 H1762 0.950 . S
C1740 C1739 1.349 . S
C1740 C1752 1.349 . S
C1741 C1739 1.327 . S
C1741 C1757 1.429 . S
C1741 H1763 0.950 . S
C1742 H1738 0.949 . S
C1742 C1750 1.574 . S
C1742 C1758 1.368 . S
H1743 C1751 0.950 . S
H1744 C1749 0.950 . S
H1745 C1750 0.949 . S
H1746 C1752 0.950 . S
H1747 C1753 0.950 . S
H1748 C1754 0.949 . S
C1749 H1744 0.950 . S
C1749 C1751 1.327 . S
C1749 C1755 1.429 . S
C1750 C1742 1.574 . S
C1750 H1745 0.949 . S
C1750 C1756 1.368 . S
C1751 C1735 1.349 . S
C1751 H1743 0.950 . S
C1751 C1749 1.327 . S
C1752 C1740 1.349 . S
C1752 H1746 0.950 . S
C1752 C1753 1.327 . S
C1753 H1747 0.950 . S
C1753 C1752 1.327 . S
C1753 C1757 1.429 . S
C1754 C1737 1.574 . S
C1754 H1748 0.949 . S
C1754 C1758 1.368 . S
C1755 C1736 1.429 . S
C1755 C1749 1.429 . S
C1755 C1756 1.523 . S
C1756 C1737 1.368 . S
C1756 C1750 1.368 . S
C1756 C1755 1.523 . S
C1757 C1741 1.429 . S
C1757 C1753 1.429 . S
C1757 C1758 1.523 . S
C1758 C1742 1.368 . S
C1758 C1754 1.368 . S
C1758 C1757 1.523 . S
H1759 C1734 0.950 . S
H1760 C1736 0.950 . S
H1761 C1737 0.949 . S
H1762 C1739 0.950 . S
H1763 C1741 0.950 . S
C1764 C1765 1.349 . S
C1764 C1766 1.327 . S
C1764 H1789 0.950 . S
C1765 C1764 1.349 . S
C1765 C1781 1.349 . S
C1766 C1764 1.327 . S
C1766 C1785 1.429 . S
C1766 H1790 0.950 . S
C1767 C1784 1.574 . S
C1767 C1786 1.368 . S
C1767 H1791 0.949 . S
H1768 C1772 0.949 . S
C1769 C1770 1.349 . S
C1769 C1771 1.327 . S
C1769 H1792 0.950 . S
C1770 C1769 1.349 . S
C1770 C1782 1.349 . S
C1771 C1769 1.327 . S
C1771 C1787 1.429 . S
C1771 H1793 0.950 . S
C1772 H1768 0.949 . S
C1772 C1780 1.574 . S
C1772 C1788 1.368 . S
H1773 C1781 0.950 . S
H1774 C1779 0.950 . S
H1775 C1780 0.949 . S
H1776 C1782 0.950 . S
H1777 C1783 0.950 . S
H1778 C1784 0.949 . S
C1779 H1774 0.950 . S
C1779 C1781 1.327 . S
C1779 C1785 1.429 . S
C1780 C1772 1.574 . S
C1780 H1775 0.949 . S
C1780 C1786 1.368 . S
C1781 C1765 1.349 . S
C1781 H1773 0.950 . S
C1781 C1779 1.327 . S
C1782 C1770 1.349 . S
C1782 H1776 0.950 . S
C1782 C1783 1.327 . S
C1783 H1777 0.950 . S
C1783 C1782 1.327 . S
C1783 C1787 1.429 . S
C1784 C1767 1.574 . S
C1784 H1778 0.949 . S
C1784 C1788 1.368 . S
C1785 C1766 1.429 . S
C1785 C1779 1.429 . S
C1785 C1786 1.523 . S
C1786 C1767 1.368 . S
C1786 C1780 1.368 . S
C1786 C1785 1.523 . S
C1787 C1771 1.429 . S
C1787 C1783 1.429 . S
C1787 C1788 1.523 . S
C1788 C1772 1.368 . S
C1788 C1784 1.368 . S
C1788 C1787 1.523 . S
H1789 C1764 0.950 . S
H1790 C1766 0.950 . S
H1791 C1767 0.949 . S
H1792 C1769 0.950 . S
H1793 C1771 0.950 . S
C1794 C1795 1.349 . S
C1794 C1796 1.327 . S
C1794 H1819 0.950 . S
C1795 C1794 1.349 . S
C1795 C1811 1.349 . S
C1796 C1794 1.327 . S
C1796 C1815 1.429 . S
C1796 H1820 0.950 . S
C1797 C1814 1.574 . S
C1797 C1816 1.368 . S
C1797 H1821 0.949 . S
H1798 C1802 0.949 . S
C1799 C1800 1.349 . S
C1799 C1801 1.327 . S
C1799 H1822 0.950 . S
C1800 C1799 1.349 . S
C1800 C1812 1.349 . S
C1801 C1799 1.327 . S
C1801 C1817 1.429 . S
C1801 H1823 0.950 . S
C1802 H1798 0.949 . S
C1802 C1810 1.574 . S
C1802 C1818 1.368 . S
H1803 C1811 0.950 . S
H1804 C1809 0.950 . S
H1805 C1810 0.949 . S
H1806 C1812 0.950 . S
H1807 C1813 0.950 . S
H1808 C1814 0.949 . S
C1809 H1804 0.950 . S
C1809 C1811 1.327 . S
C1809 C1815 1.429 . S
C1810 C1802 1.574 . S
C1810 H1805 0.949 . S
C1810 C1816 1.368 . S
C1811 C1795 1.349 . S
C1811 H1803 0.950 . S
C1811 C1809 1.327 . S
C1812 C1800 1.349 . S
C1812 H1806 0.950 . S
C1812 C1813 1.327 . S
C1813 H1807 0.950 . S
C1813 C1812 1.327 . S
C1813 C1817 1.429 . S
C1814 C1797 1.574 . S
C1814 H1808 0.949 . S
C1814 C1818 1.368 . S
C1815 C1796 1.429 . S
C1815 C1809 1.429 . S
C1815 C1816 1.523 . S
C1816 C1797 1.368 . S
C1816 C1810 1.368 . S
C1816 C1815 1.523 . S
C1817 C1801 1.429 . S
C1817 C1813 1.429 . S
C1817 C1818 1.523 . S
C1818 C1802 1.368 . S
C1818 C1814 1.368 . S
C1818 C1817 1.523 . S
H1819 C1794 0.950 . S
H1820 C1796 0.950 . S
H1821 C1797 0.949 . S
H1822 C1799 0.950 . S
H1823 C1801 0.950 . S
C1824 C1825 1.349 . S
C1824 C1826 1.327 . S
C1824 H1849 0.950 . S
C1825 C1824 1.349 . S
C1825 C1841 1.349 . S
C1826 C1824 1.327 . S
C1826 C1845 1.429 . S
C1826 H1850 0.950 . S
C1827 C1844 1.574 . S
C1827 C1846 1.368 . S
C1827 H1851 0.949 . S
H1828 C1832 0.949 . S
C1829 C1830 1.349 . S
C1829 C1831 1.327 . S
C1829 H1852 0.950 . S
C1830 C1829 1.349 . S
C1830 C1842 1.349 . S
C1831 C1829 1.327 . S
C1831 C1847 1.429 . S
C1831 H1853 0.950 . S
C1832 H1828 0.949 . S
C1832 C1840 1.574 . S
C1832 C1848 1.368 . S
H1833 C1841 0.950 . S
H1834 C1839 0.950 . S
H1835 C1840 0.949 . S
H1836 C1842 0.950 . S
H1837 C1843 0.950 . S
H1838 C1844 0.949 . S
C1839 H1834 0.950 . S
C1839 C1841 1.327 . S
C1839 C1845 1.429 . S
C1840 C1832 1.574 . S
C1840 H1835 0.949 . S
C1840 C1846 1.368 . S
C1841 C1825 1.349 . S
C1841 H1833 0.950 . S
C1841 C1839 1.327 . S
C1842 C1830 1.349 . S
C1842 H1836 0.950 . S
C1842 C1843 1.327 . S
C1843 H1837 0.950 . S
C1843 C1842 1.327 . S
C1843 C1847 1.429 . S
C1844 C1827 1.574 . S
C1844 H1838 0.949 . S
C1844 C1848 1.368 . S
C1845 C1826 1.429 . S
C1845 C1839 1.429 . S
C1845 C1846 1.523 . S
C1846 C1827 1.368 . S
C1846 C1840 1.368 . S
C1846 C1845 1.523 . S
C1847 C1831 1.429 . S
C1847 C1843 1.429 . S
C1847 C1848 1.523 . S
C1848 C1832 1.368 . S
C1848 C1844 1.368 . S
C1848 C1847 1.523 . S
H1849 C1824 0.950 . S
H1850 C1826 0.950 . S
H1851 C1827 0.949 . S
H1852 C1829 0.950 . S
H1853 C1831 0.950 . S
C1854 C1855 1.349 . S
C1854 C1856 1.327 . S
C1854 H1879 0.950 . S
C1855 C1854 1.349 . S
C1855 C1871 1.349 . S
C1856 C1854 1.327 . S
C1856 C1875 1.429 . S
C1856 H1880 0.950 . S
C1857 C1874 1.574 . S
C1857 C1876 1.368 . S
C1857 H1881 0.949 . S
H1858 C1862 0.949 . S
C1859 C1860 1.349 . S
C1859 C1861 1.327 . S
C1859 H1882 0.950 . S
C1860 C1859 1.349 . S
C1860 C1872 1.349 . S
C1861 C1859 1.327 . S
C1861 C1877 1.429 . S
C1861 H1883 0.950 . S
C1862 H1858 0.949 . S
C1862 C1870 1.574 . S
C1862 C1878 1.368 . S
H1863 C1871 0.950 . S
H1864 C1869 0.950 . S
H1865 C1870 0.949 . S
H1866 C1872 0.950 . S
H1867 C1873 0.950 . S
H1868 C1874 0.949 . S
C1869 H1864 0.950 . S
C1869 C1871 1.327 . S
C1869 C1875 1.429 . S
C1870 C1862 1.574 . S
C1870 H1865 0.949 . S
C1870 C1876 1.368 . S
C1871 C1855 1.349 . S
C1871 H1863 0.950 . S
C1871 C1869 1.327 . S
C1872 C1860 1.349 . S
C1872 H1866 0.950 . S
C1872 C1873 1.327 . S
C1873 H1867 0.950 . S
C1873 C1872 1.327 . S
C1873 C1877 1.429 . S
C1874 C1857 1.574 . S
C1874 H1868 0.949 . S
C1874 C1878 1.368 . S
C1875 C1856 1.429 . S
C1875 C1869 1.429 . S
C1875 C1876 1.523 . S
C1876 C1857 1.368 . S
C1876 C1870 1.368 . S
C1876 C1875 1.523 . S
C1877 C1861 1.429 . S
C1877 C1873 1.429 . S
C1877 C1878 1.523 . S
C1878 C1862 1.368 . S
C1878 C1874 1.368 . S
C1878 C1877 1.523 . S
H1879 C1854 0.950 . S
H1880 C1856 0.950 . S
H1881 C1857 0.949 . S
H1882 C1859 0.950 . S
H1883 C1861 0.950 . S
C1884 C1885 1.349 . S
C1884 C1886 1.327 . S
C1884 H1909 0.950 . S
C1885 C1884 1.349 . S
C1885 C1901 1.349 . S
C1886 C1884 1.327 . S
C1886 C1905 1.429 . S
C1886 H1910 0.950 . S
C1887 C1904 1.574 . S
C1887 C1906 1.368 . S
C1887 H1911 0.949 . S
H1888 C1892 0.949 . S
C1889 C1890 1.349 . S
C1889 C1891 1.327 . S
C1889 H1912 0.950 . S
C1890 C1889 1.349 . S
C1890 C1902 1.349 . S
C1891 C1889 1.327 . S
C1891 C1907 1.429 . S
C1891 H1913 0.950 . S
C1892 H1888 0.949 . S
C1892 C1900 1.574 . S
C1892 C1908 1.368 . S
H1893 C1901 0.950 . S
H1894 C1899 0.950 . S
H1895 C1900 0.949 . S
H1896 C1902 0.950 . S
H1897 C1903 0.950 . S
H1898 C1904 0.949 . S
C1899 H1894 0.950 . S
C1899 C1901 1.327 . S
C1899 C1905 1.429 . S
C1900 C1892 1.574 . S
C1900 H1895 0.949 . S
C1900 C1906 1.368 . S
C1901 C1885 1.349 . S
C1901 H1893 0.950 . S
C1901 C1899 1.327 . S
C1902 C1890 1.349 . S
C1902 H1896 0.950 . S
C1902 C1903 1.327 . S
C1903 H1897 0.950 . S
C1903 C1902 1.327 . S
C1903 C1907 1.429 . S
C1904 C1887 1.574 . S
C1904 H1898 0.949 . S
C1904 C1908 1.368 . S
C1905 C1886 1.429 . S
C1905 C1899 1.429 . S
C1905 C1906 1.523 . S
C1906 C1887 1.368 . S
C1906 C1900 1.368 . S
C1906 C1905 1.523 . S
C1907 C1891 1.429 . S
C1907 C1903 1.429 . S
C1907 C1908 1.523 . S
C1908 C1892 1.368 . S
C1908 C1904 1.368 . S
C1908 C1907 1.523 . S
H1909 C1884 0.950 . S
H1910 C1886 0.950 . S
H1911 C1887 0.949 . S
H1912 C1889 0.950 . S
H1913 C1891 0.950 . S
C1914 C1915 1.349 . S
C1914 C1916 1.327 . S
C1914 H1939 0.950 . S
C1915 C1914 1.349 . S
C1915 C1931 1.349 . S
C1916 C1914 1.327 . S
C1916 C1935 1.429 . S
C1916 H1940 0.950 . S
C1917 C1934 1.574 . S
C1917 C1936 1.368 . S
C1917 H1941 0.949 . S
H1918 C1922 0.949 . S
C1919 C1920 1.349 . S
C1919 C1921 1.327 . S
C1919 H1942 0.950 . S
C1920 C1919 1.349 . S
C1920 C1932 1.349 . S
C1921 C1919 1.327 . S
C1921 C1937 1.429 . S
C1921 H1943 0.950 . S
C1922 H1918 0.949 . S
C1922 C1930 1.574 . S
C1922 C1938 1.368 . S
H1923 C1931 0.950 . S
H1924 C1929 0.950 . S
H1925 C1930 0.949 . S
H1926 C1932 0.950 . S
H1927 C1933 0.950 . S
H1928 C1934 0.949 . S
C1929 H1924 0.950 . S
C1929 C1931 1.327 . S
C1929 C1935 1.429 . S
C1930 C1922 1.574 . S
C1930 H1925 0.949 . S
C1930 C1936 1.368 . S
C1931 C1915 1.349 . S
C1931 H1923 0.950 . S
C1931 C1929 1.327 . S
C1932 C1920 1.349 . S
C1932 H1926 0.950 . S
C1932 C1933 1.327 . S
C1933 H1927 0.950 . S
C1933 C1932 1.327 . S
C1933 C1937 1.429 . S
C1934 C1917 1.574 . S
C1934 H1928 0.949 . S
C1934 C1938 1.368 . S
C1935 C1916 1.429 . S
C1935 C1929 1.429 . S
C1935 C1936 1.523 . S
C1936 C1917 1.368 . S
C1936 C1930 1.368 . S
C1936 C1935 1.523 . S
C1937 C1921 1.429 . S
C1937 C1933 1.429 . S
C1937 C1938 1.523 . S
C1938 C1922 1.368 . S
C1938 C1934 1.368 . S
C1938 C1937 1.523 . S
H1939 C1914 0.950 . S
H1940 C1916 0.950 . S
H1941 C1917 0.949 . S
H1942 C1919 0.950 . S
H1943 C1921 0.950 . S
C595 N13 0.925 . S
C600 N2 0.925 . S
C625 N46 0.925 . S
C630 N35 0.925 . S
C655 N68 0.925 . S
C660 N79 0.925 . S
C685 N112 0.925 . S
C690 N101 0.925 . S
C715 N145 0.925 . S
C720 N134 0.925 . S
C745 N167 0.925 . S
C750 N178 0.925 . S
C775 N200 0.925 . S
C780 N211 0.925 . S
C805 N233 0.925 . S
C810 N244 0.925 . S
C835 N277 0.925 . S
C840 N266 0.925 . S
C865 N310 0.925 1_556 S
C870 N299 0.925 . S
C895 N343 0.925 1_556 S
C900 N332 0.925 . S
C925 N365 0.925 . S
C930 N376 0.925 1_556 S
C955 N398 0.925 . S
C960 N409 0.925 1_554 S
C985 N431 0.925 . S
C990 N442 0.925 1_554 S
C1015 N464 0.925 . S
C1020 N475 0.925 1_554 S
C1045 N508 0.925 . S
C1050 N497 0.925 . S
C1075 N541 0.925 . S
C1080 N530 0.925 . S
C1105 N563 0.925 . S
C1110 N574 0.925 . S
C1135 C579 1.572 . S
C1140 C18 1.572 . S
C1165 C51 1.572 . S
C1170 C513 1.572 . S
C1195 C546 1.573 . S
C1200 C84 1.573 . S
C1225 C249 1.572 . S
C1230 C117 1.572 . S
C1255 C150 1.573 . S
C1260 C282 1.573 . S
C1285 C183 1.572 . S
C1290 C216 1.572 . S
C1315 C315 1.572 . S
C1320 C447 1.572 . S
C1345 C480 1.573 . S
C1350 C348 1.573 . S
C1375 C381 1.572 . S
C1380 C414 1.572 . S
C1405 C7 1.504 . S
C1410 C106 1.504 . S
C1435 C40 1.504 . S
C1440 C139 1.504 . S
C1465 C172 1.504 . S
C1470 C73 1.504 . S
C1495 C186 1.538 . S
C1500 C54 1.538 . S
C1525 C120 1.537 . S
C1530 C87 1.537 . S
C1555 C153 1.537 . S
C1560 C21 1.537 . S
C1585 C304 1.505 . S
C1590 C205 1.505 . S
C1615 C337 1.504 . S
C1620 C238 1.504 . S
C1645 C271 1.504 . S
C1650 C370 1.504 . S
C1675 C384 1.538 . S
C1680 C252 1.538 . S
C1705 C285 1.537 . S
C1710 C318 1.537 . S
C1735 C219 1.537 . S
C1740 C351 1.537 . S
C1765 C502 1.505 . S
C1770 C403 1.505 . S
C1795 C535 1.504 . S
C1800 C436 1.504 . S
C1825 C568 1.504 . S
C1830 C469 1.504 . S
C1855 C450 1.538 . S
C1860 C582 1.538 . S
C1885 C483 1.537 . S
C1890 C516 1.537 . S
C1915 C549 1.537 . S
C1920 C417 1.537 . S
