# Generated by pormake.
# Topology sxi, (6)-cn, num edge types: 1
# Building blocks:
#     Node 0, Type 0, BuildingBlock: OJICUG_clean_sbu_0, # of connection points: 6
#     Node 1, Type 0, BuildingBlock: OJICUG_clean_sbu_0, # of connection points: 6
#     Node 2, Type 0, BuildingBlock: OJICUG_clean_sbu_0, # of connection points: 6
#     Node 3, Type 0, BuildingBlock: OJICUG_clean_sbu_0, # of connection points: 6
#     Node 4, Type 0, BuildingBlock: OJICUG_clean_sbu_0, # of connection points: 6
#     Node 5, Type 0, BuildingBlock: OJICUG_clean_sbu_0, # of connection points: 6
#     Node 6, Type 0, BuildingBlock: OJICUG_clean_sbu_0, # of connection points: 6
#     Node 7, Type 0, BuildingBlock: OJICUG_clean_sbu_0, # of connection points: 6
#     Node 8, Type 0, BuildingBlock: OJICUG_clean_sbu_0, # of connection points: 6
#     Node 9, Type 0, BuildingBlock: OJICUG_clean_sbu_0, # of connection points: 6
#     Node 10, Type 0, BuildingBlock: OJICUG_clean_sbu_0, # of connection points: 6
#     Node 11, Type 0, BuildingBlock: OJICUG_clean_sbu_0, # of connection points: 6
#     Node 12, Type 0, BuildingBlock: OJICUG_clean_sbu_0, # of connection points: 6
#     Node 13, Type 0, BuildingBlock: OJICUG_clean_sbu_0, # of connection points: 6
#     Node 14, Type 0, BuildingBlock: OJICUG_clean_sbu_0, # of connection points: 6
#     Node 15, Type 0, BuildingBlock: OJICUG_clean_sbu_0, # of connection points: 6
#     Node 16, Type 0, BuildingBlock: OJICUG_clean_sbu_0, # of connection points: 6
#     Node 17, Type 0, BuildingBlock: OJICUG_clean_sbu_0, # of connection points: 6
#     Node 18, Type 0, BuildingBlock: OJICUG_clean_sbu_0, # of connection points: 6
#     Node 19, Type 0, BuildingBlock: OJICUG_clean_sbu_0, # of connection points: 6
#     Node 20, Type 0, BuildingBlock: OJICUG_clean_sbu_0, # of connection points: 6
#     Node 21, Type 0, BuildingBlock: OJICUG_clean_sbu_0, # of connection points: 6
#     Node 22, Type 0, BuildingBlock: OJICUG_clean_sbu_0, # of connection points: 6
#     Node 23, Type 0, BuildingBlock: OJICUG_clean_sbu_0, # of connection points: 6
#     Edge 24, Type (0, 0), BuildingBlock: OJICUG_clean_linker_0, # of connection points: 2
#     Edge 25, Type (0, 0), BuildingBlock: OJICUG_clean_linker_0, # of connection points: 2
#     Edge 26, Type (0, 0), BuildingBlock: OJICUG_clean_linker_0, # of connection points: 2
#     Edge 27, Type (0, 0), BuildingBlock: OJICUG_clean_linker_0, # of connection points: 2
#     Edge 28, Type (0, 0), BuildingBlock: OJICUG_clean_linker_0, # of connection points: 2
#     Edge 29, Type (0, 0), BuildingBlock: OJICUG_clean_linker_0, # of connection points: 2
#     Edge 30, Type (0, 0), BuildingBlock: OJICUG_clean_linker_0, # of connection points: 2
#     Edge 31, Type (0, 0), BuildingBlock: OJICUG_clean_linker_0, # of connection points: 2
#     Edge 32, Type (0, 0), BuildingBlock: OJICUG_clean_linker_0, # of connection points: 2
#     Edge 33, Type (0, 0), BuildingBlock: OJICUG_clean_linker_0, # of connection points: 2
#     Edge 34, Type (0, 0), BuildingBlock: OJICUG_clean_linker_0, # of connection points: 2
#     Edge 35, Type (0, 0), BuildingBlock: OJICUG_clean_linker_0, # of connection points: 2
#     Edge 36, Type (0, 0), BuildingBlock: OJICUG_clean_linker_0, # of connection points: 2
#     Edge 37, Type (0, 0), BuildingBlock: OJICUG_clean_linker_0, # of connection points: 2
#     Edge 38, Type (0, 0), BuildingBlock: OJICUG_clean_linker_0, # of connection points: 2
#     Edge 39, Type (0, 0), BuildingBlock: OJICUG_clean_linker_0, # of connection points: 2
#     Edge 40, Type (0, 0), BuildingBlock: OJICUG_clean_linker_0, # of connection points: 2
#     Edge 41, Type (0, 0), BuildingBlock: OJICUG_clean_linker_0, # of connection points: 2
#     Edge 42, Type (0, 0), BuildingBlock: OJICUG_clean_linker_0, # of connection points: 2
#     Edge 43, Type (0, 0), BuildingBlock: OJICUG_clean_linker_0, # of connection points: 2
#     Edge 44, Type (0, 0), BuildingBlock: OJICUG_clean_linker_0, # of connection points: 2
#     Edge 45, Type (0, 0), BuildingBlock: OJICUG_clean_linker_0, # of connection points: 2
#     Edge 46, Type (0, 0), BuildingBlock: OJICUG_clean_linker_0, # of connection points: 2
#     Edge 47, Type (0, 0), BuildingBlock: OJICUG_clean_linker_0, # of connection points: 2
#     Edge 48, Type (0, 0), BuildingBlock: OJICUG_clean_linker_0, # of connection points: 2
#     Edge 49, Type (0, 0), BuildingBlock: OJICUG_clean_linker_0, # of connection points: 2
#     Edge 50, Type (0, 0), BuildingBlock: OJICUG_clean_linker_0, # of connection points: 2
#     Edge 51, Type (0, 0), BuildingBlock: OJICUG_clean_linker_0, # of connection points: 2
#     Edge 52, Type (0, 0), BuildingBlock: OJICUG_clean_linker_0, # of connection points: 2
#     Edge 53, Type (0, 0), BuildingBlock: OJICUG_clean_linker_0, # of connection points: 2
#     Edge 54, Type (0, 0), BuildingBlock: OJICUG_clean_linker_0, # of connection points: 2
#     Edge 55, Type (0, 0), BuildingBlock: OJICUG_clean_linker_0, # of connection points: 2
#     Edge 56, Type (0, 0), BuildingBlock: OJICUG_clean_linker_0, # of connection points: 2
#     Edge 57, Type (0, 0), BuildingBlock: OJICUG_clean_linker_0, # of connection points: 2
#     Edge 58, Type (0, 0), BuildingBlock: OJICUG_clean_linker_0, # of connection points: 2
#     Edge 59, Type (0, 0), BuildingBlock: OJICUG_clean_linker_0, # of connection points: 2
#     Edge 60, Type (0, 0), BuildingBlock: OJICUG_clean_linker_0, # of connection points: 2
#     Edge 61, Type (0, 0), BuildingBlock: OJICUG_clean_linker_0, # of connection points: 2
#     Edge 62, Type (0, 0), BuildingBlock: OJICUG_clean_linker_0, # of connection points: 2
#     Edge 63, Type (0, 0), BuildingBlock: OJICUG_clean_linker_0, # of connection points: 2
#     Edge 64, Type (0, 0), BuildingBlock: OJICUG_clean_linker_0, # of connection points: 2
#     Edge 65, Type (0, 0), BuildingBlock: OJICUG_clean_linker_0, # of connection points: 2
#     Edge 66, Type (0, 0), BuildingBlock: OJICUG_clean_linker_0, # of connection points: 2
#     Edge 67, Type (0, 0), BuildingBlock: OJICUG_clean_linker_0, # of connection points: 2
#     Edge 68, Type (0, 0), BuildingBlock: OJICUG_clean_linker_0, # of connection points: 2
#     Edge 69, Type (0, 0), BuildingBlock: OJICUG_clean_linker_0, # of connection points: 2
#     Edge 70, Type (0, 0), BuildingBlock: OJICUG_clean_linker_0, # of connection points: 2
#     Edge 71, Type (0, 0), BuildingBlock: OJICUG_clean_linker_0, # of connection points: 2
#     Edge 72, Type (0, 0), BuildingBlock: OJICUG_clean_linker_0, # of connection points: 2
#     Edge 73, Type (0, 0), BuildingBlock: OJICUG_clean_linker_0, # of connection points: 2
#     Edge 74, Type (0, 0), BuildingBlock: OJICUG_clean_linker_0, # of connection points: 2
#     Edge 75, Type (0, 0), BuildingBlock: OJICUG_clean_linker_0, # of connection points: 2
#     Edge 76, Type (0, 0), BuildingBlock: OJICUG_clean_linker_0, # of connection points: 2
#     Edge 77, Type (0, 0), BuildingBlock: OJICUG_clean_linker_0, # of connection points: 2
#     Edge 78, Type (0, 0), BuildingBlock: OJICUG_clean_linker_0, # of connection points: 2
#     Edge 79, Type (0, 0), BuildingBlock: OJICUG_clean_linker_0, # of connection points: 2
#     Edge 80, Type (0, 0), BuildingBlock: OJICUG_clean_linker_0, # of connection points: 2
#     Edge 81, Type (0, 0), BuildingBlock: OJICUG_clean_linker_0, # of connection points: 2
#     Edge 82, Type (0, 0), BuildingBlock: OJICUG_clean_linker_0, # of connection points: 2
#     Edge 83, Type (0, 0), BuildingBlock: OJICUG_clean_linker_0, # of connection points: 2
#     Edge 84, Type (0, 0), BuildingBlock: OJICUG_clean_linker_0, # of connection points: 2
#     Edge 85, Type (0, 0), BuildingBlock: OJICUG_clean_linker_0, # of connection points: 2
#     Edge 86, Type (0, 0), BuildingBlock: OJICUG_clean_linker_0, # of connection points: 2
#     Edge 87, Type (0, 0), BuildingBlock: OJICUG_clean_linker_0, # of connection points: 2
#     Edge 88, Type (0, 0), BuildingBlock: OJICUG_clean_linker_0, # of connection points: 2
#     Edge 89, Type (0, 0), BuildingBlock: OJICUG_clean_linker_0, # of connection points: 2
#     Edge 90, Type (0, 0), BuildingBlock: OJICUG_clean_linker_0, # of connection points: 2
#     Edge 91, Type (0, 0), BuildingBlock: OJICUG_clean_linker_0, # of connection points: 2
#     Edge 92, Type (0, 0), BuildingBlock: OJICUG_clean_linker_0, # of connection points: 2
#     Edge 93, Type (0, 0), BuildingBlock: OJICUG_clean_linker_0, # of connection points: 2
#     Edge 94, Type (0, 0), BuildingBlock: OJICUG_clean_linker_0, # of connection points: 2
#     Edge 95, Type (0, 0), BuildingBlock: OJICUG_clean_linker_0, # of connection points: 2
# Relax obj value: 0.447
# Max RMSD: 0.271
# Mean RMSD: 0.271
data_MOF--net-sxi--node1-OJICUG_clean_sbu_0--edge1-OJICUG_clean_linker_0
_symmetry_space_group_name_H-M    P1
_symmetry_Int_Tables_number       1
_symmetry_cell_setting            triclinic
loop_
_symmetry_equiv_pos_as_xyz
'x, y, z'
_cell_length_a     35.922588
_cell_length_b     36.000084
_cell_length_c     36.02127
_cell_angle_alpha  90.050761
_cell_angle_beta   89.936804
_cell_angle_gamma 89.91924
loop_
_atom_site_label
_atom_site_type_symbol
_atom_site_fract_x
_atom_site_fract_y
_atom_site_fract_z
_atom_type_partial_charge
Sc0 Sc 0.0235 0.27679 0.41044 0.0
Sc1 Sc 0.08384 0.32584 0.35561 0.0
Sc2 Sc 0.00209 0.36801 0.38698 0.0
O3 O 0.03625 0.32468 0.38492 0.0
C4 C 0.95254 0.29825 0.36389 0.0
C5 C 0.05145 0.24956 0.3366 0.0
C6 C 0.03854 0.38721 0.30876 0.0
C7 C 0.10457 0.27982 0.4289 0.0
C8 C 0.98153 0.33138 0.46495 0.0
C9 C 0.08338 0.39713 0.4079 0.0
O10 O 0.97372 0.27315 0.37758 0.0
O11 O 0.05974 0.28063 0.32167 0.0
O12 O 0.01158 0.38763 0.33142 0.0
O13 O 0.07217 0.28299 0.44251 0.0
O14 O 0.98512 0.3592 0.44376 0.0
O15 O 0.10209 0.37197 0.3906 0.0
O16 O 0.99251 0.29927 0.45606 0.0
O17 O 0.11141 0.28722 0.39478 0.0
O18 O 0.04788 0.40005 0.40708 0.0
O19 O 0.05603 0.24596 0.371 0.0
O20 O 0.95836 0.33319 0.3668 0.0
O21 O 0.06661 0.36616 0.31362 0.0
Sc22 Sc 0.96436 0.75956 0.65467 0.0
Sc23 Sc 0.92181 0.82935 0.6058 0.0
Sc24 Sc 0.87024 0.75416 0.63785 0.0
O25 O 0.9178 0.78118 0.63289 0.0
C26 C 0.93077 0.69587 0.60831 0.0
C27 C 0.99609 0.79268 0.58446 0.0
C28 C 0.85588 0.79042 0.55868 0.0
C29 C 0.97195 0.83823 0.67986 0.0
C30 C 0.90779 0.72758 0.71211 0.0
C31 C 0.8505 0.83792 0.65765 0.0
O32 O 0.95983 0.7148 0.61599 0.0
O33 O 0.96527 0.80339 0.5704 0.0
O34 O 0.85197 0.76406 0.58177 0.0
O35 O 0.96597 0.80531 0.69125 0.0
O36 O 0.88029 0.7424 0.69581 0.0
O37 O 0.87814 0.85316 0.64105 0.0
O38 O 0.93932 0.72505 0.69677 0.0
O39 O 0.96265 0.84916 0.64717 0.0
O40 O 0.84335 0.80332 0.65642 0.0
O41 O 0.99943 0.79175 0.61911 0.0
O42 O 0.89789 0.70474 0.61881 0.0
O43 O 0.87982 0.8162 0.56354 0.0
Sc44 Sc 0.49452 0.69276 0.92983 0.0
Sc45 Sc 0.42398 0.66709 0.86619 0.0
Sc46 Sc 0.4773 0.60045 0.91085 0.0
O47 O 0.46534 0.65389 0.90189 0.0
C48 C 0.55534 0.63131 0.90751 0.0
C49 C 0.48564 0.73069 0.85131 0.0
C50 C 0.45529 0.59673 0.8246 0.0
C51 C 0.41212 0.72593 0.93082 0.0
C52 C 0.49685 0.63478 0.99163 0.0
C53 C 0.39174 0.59918 0.91427 0.0
O54 O 0.54513 0.66146 0.92309 0.0
O55 O 0.45507 0.71444 0.84303 0.0
O56 O 0.46293 0.58175 0.85561 0.0
O57 O 0.44629 0.72613 0.9399 0.0
O58 O 0.49523 0.60966 0.9669 0.0
O59 O 0.38868 0.62147 0.88676 0.0
O60 O 0.48848 0.66818 0.98425 0.0
O61 O 0.39863 0.70386 0.90662 0.0
O62 O 0.42238 0.59237 0.93025 0.0
O63 O 0.50492 0.72258 0.87969 0.0
O64 O 0.53304 0.60819 0.89305 0.0
O65 O 0.44539 0.63075 0.82234 0.0
Sc66 Sc 0.52532 0.24607 0.16692 0.0
Sc67 Sc 0.57506 0.18106 0.1179 0.0
Sc68 Sc 0.61618 0.26562 0.13903 0.0
O69 O 0.57327 0.23118 0.14187 0.0
C70 C 0.54371 0.31032 0.11229 0.0
C71 C 0.49803 0.21085 0.09591 0.0
C72 C 0.63451 0.22209 0.06451 0.0
C73 C 0.52878 0.16832 0.19335 0.0
C74 C 0.58134 0.29275 0.21616 0.0
C75 C 0.64748 0.18791 0.16825 0.0
O76 O 0.51922 0.29123 0.12924 0.0
O77 O 0.52916 0.2006 0.0821 0.0
O78 O 0.63494 0.25142 0.08392 0.0
O79 O 0.53258 0.20158 0.20385 0.0
O80 O 0.60851 0.28738 0.19434 0.0
O81 O 0.62176 0.16741 0.15422 0.0
O82 O 0.54884 0.28135 0.20903 0.0
O83 O 0.53717 0.15791 0.16033 0.0
O84 O 0.6503 0.22291 0.16262 0.0
O85 O 0.49395 0.21045 0.13069 0.0
O86 O 0.57895 0.30558 0.11562 0.0
O87 O 0.61446 0.19437 0.07348 0.0
Sc88 Sc 0.52571 0.10124 0.6016 0.0
Sc89 Sc 0.58992 0.16722 0.635 0.0
Sc90 Sc 0.50806 0.196 0.5889 0.0
O91 O 0.54137 0.15492 0.60859 0.0
C92 C 0.49338 0.13594 0.52659 0.0
C93 C 0.61028 0.0999 0.57875 0.0
C94 C 0.5873 0.22685 0.56795 0.0
C95 C 0.56293 0.09571 0.68196 0.0
C96 C 0.45328 0.14034 0.63046 0.0
C97 C 0.53829 0.23385 0.66301 0.0
O98 O 0.50536 0.10924 0.54615 0.0
O99 O 0.62056 0.12701 0.59949 0.0
O100 O 0.5531 0.22228 0.55987 0.0
O101 O 0.54312 0.08368 0.65555 0.0
O102 O 0.46166 0.17258 0.61849 0.0
O103 O 0.56435 0.21071 0.67055 0.0
O104 O 0.473 0.11167 0.62517 0.0
O105 O 0.58127 0.12604 0.67939 0.0
O106 O 0.51788 0.231 0.63472 0.0
O107 O 0.57726 0.08789 0.57757 0.0
O108 O 0.49216 0.16896 0.53838 0.0
O109 O 0.60337 0.20978 0.59455 0.0
Sc110 Sc 0.13984 0.25442 0.86753 0.0
Sc111 Sc 0.08902 0.33239 0.89348 0.0
Sc112 Sc 0.04704 0.26306 0.84391 0.0
O113 O 0.09304 0.28351 0.86797 0.0
C114 C 0.10663 0.22754 0.79128 0.0
C115 C 0.16469 0.33632 0.84576 0.0
C116 C 0.04258 0.34084 0.81676 0.0
C117 C 0.14811 0.29126 0.94733 0.0
C118 C 0.07491 0.20088 0.89546 0.0
C119 C 0.01232 0.29761 0.91184 0.0
O120 O 0.13345 0.24152 0.80932 0.0
O121 O 0.13628 0.35318 0.85975 0.0
O122 O 0.04922 0.30778 0.80613 0.0
O123 O 0.15378 0.26476 0.92476 0.0
O124 O 0.04731 0.22013 0.88429 0.0
O125 O 0.04253 0.30868 0.92696 0.0
O126 O 0.1087 0.20724 0.8862 0.0
O127 O 0.12658 0.31838 0.93941 0.0
O128 O 0.01045 0.29652 0.87703 0.0
O129 O 0.17057 0.30163 0.84943 0.0
O130 O 0.07393 0.22673 0.80421 0.0
O131 O 0.05096 0.35232 0.84952 0.0
Sc132 Sc 0.96256 0.89343 0.078 0.0
Sc133 Sc 0.91753 0.83331 0.13535 0.0
Sc134 Sc 0.0051 0.81195 0.10182 0.0
O135 O 0.96326 0.8467 0.10568 0.0
C136 C 0.00647 0.84249 0.01962 0.0
C137 C 0.88444 0.88738 0.07586 0.0
C138 C 0.92984 0.77002 0.07866 0.0
C139 C 0.93746 0.91038 0.16405 0.0
C140 C 0.04194 0.8921 0.11093 0.0
C141 C 0.97891 0.78236 0.17332 0.0
O142 O 0.98674 0.87093 0.02738 0.0
O143 O 0.8821 0.87722 0.10958 0.0
O144 O 0.96469 0.76796 0.08711 0.0
O145 O 0.94097 0.91971 0.12956 0.0
O146 O 0.04274 0.8567 0.11384 0.0
O147 O 0.94469 0.78598 0.16487 0.0
O148 O 0.01549 0.91044 0.0967 0.0
O149 O 0.93292 0.87643 0.17431 0.0
O150 O 0.00184 0.80506 0.16027 0.0
O151 O 0.91093 0.87423 0.05765 0.0
O152 O 0.01537 0.81829 0.04353 0.0
O153 O 0.90745 0.79425 0.09224 0.0
Sc154 Sc 0.35782 0.71521 0.32492 0.0
Sc155 Sc 0.42095 0.66182 0.37282 0.0
Sc156 Sc 0.45043 0.73558 0.31656 0.0
O157 O 0.41017 0.70382 0.3381 0.0
C158 C 0.40071 0.7349 0.24884 0.0
C159 C 0.35651 0.63129 0.31716 0.0
C160 C 0.48624 0.65406 0.31519 0.0
C161 C 0.34839 0.69237 0.41 0.0
C162 C 0.38408 0.79228 0.33387 0.0
C163 C 0.47916 0.72681 0.39734 0.0
O164 O 0.37239 0.73595 0.27014 0.0
O165 O 0.37563 0.62706 0.34717 0.0
O166 O 0.48867 0.68919 0.31116 0.0
O167 O 0.33475 0.69754 0.37779 0.0
O168 O 0.41503 0.78446 0.31827 0.0
O169 O 0.467 0.69331 0.40043 0.0
O170 O 0.36325 0.76815 0.34831 0.0
O171 O 0.38234 0.68303 0.41446 0.0
O172 O 0.4703 0.74792 0.37064 0.0
O173 O 0.35312 0.66237 0.30131 0.0
O174 O 0.43296 0.72676 0.2605 0.0
O175 O 0.46007 0.63869 0.33353 0.0
Sc176 Sc 0.38815 0.99712 0.3846 0.0
Sc177 Sc 0.35949 0.07332 0.33333 0.0
Sc178 Sc 0.4024 -3e-05 0.29011 0.0
O179 O 0.38386 0.02383 0.3371 0.0
C180 C 0.45896 0.96485 0.34539 0.0
C181 C 0.41264 0.07985 0.40362 0.0
C182 C 0.43438 0.07586 0.2825 0.0
C183 C 0.31101 0.03804 0.40009 0.0
C184 C 0.3541 0.94007 0.32542 0.0
C185 C 0.33399 0.0369 0.26039 0.0
O186 O 0.44524 0.98232 0.37274 0.0
O187 O 0.39639 0.09572 0.37619 0.0
O188 O 0.44296 0.04182 0.28633 0.0
O189 O 0.33278 0.0104 0.40375 0.0
O190 O 0.36005 0.9594 0.29639 0.0
O191 O 0.32149 0.04878 0.29135 0.0
O192 O 0.3665 0.94853 0.35764 0.0
O193 O 0.31686 0.06333 0.37589 0.0
O194 O 0.36855 0.03488 0.25596 0.0
O195 O 0.40987 0.04536 0.41086 0.0
O196 O 0.442 0.96212 0.31481 0.0
O197 O 0.40268 0.08942 0.29252 0.0
Sc198 Sc 0.26057 0.15284 0.55809 0.0
Sc199 Sc 0.17301 0.12217 0.5851 0.0
Sc200 Sc 0.22531 0.17403 0.64441 0.0
O201 O 0.22112 0.14867 0.59618 0.0
C202 C 0.30352 0.13865 0.63439 0.0
C203 C 0.22912 0.08149 0.52889 0.0
C204 C 0.19418 0.09032 0.66059 0.0
C205 C 0.18411 0.17888 0.52128 0.0
C206 C 0.26734 0.2332 0.59331 0.0
C207 C 0.1456 0.18229 0.64264 0.0
O208 O 0.30157 0.13828 0.59897 0.0
O209 O 0.19585 0.09108 0.53679 0.0
O210 O 0.20156 0.12397 0.67027 0.0
O211 O 0.21842 0.16947 0.51729 0.0
O212 O 0.25084 0.22395 0.62316 0.0
O213 O 0.14112 0.14934 0.63067 0.0
O214 O 0.27228 0.21086 0.56651 0.0
O215 O 0.16285 0.16639 0.54698 0.0
O216 O 0.17378 0.19961 0.63186 0.0
O217 O 0.25599 0.09488 0.54678 0.0
O218 O 0.27832 0.15104 0.65572 0.0
O219 O 0.18747 0.08119 0.62672 0.0
Sc220 Sc 0.07097 0.00411 0.8107 0.0
Sc221 Sc 0.12767 0.9297 0.83484 0.0
Sc222 Sc 0.07374 0.97301 0.90031 0.0
O223 O 0.09139 0.96958 0.84854 0.0
C224 C 0.07906 0.05359 0.88443 0.0
C225 C 0.15068 0.99858 0.78227 0.0
C226 C 0.16122 0.9556 0.90923 0.0
C227 C 0.06977 0.926 0.77112 0.0
C228 C 0.99955 0.99529 0.85491 0.0
C229 C 0.07305 0.88972 0.89205 0.0
O230 O 0.06848 0.04854 0.85099 0.0
O231 O 0.15256 0.96383 0.78983 0.0
O232 O 0.12809 0.95628 0.92245 0.0
O233 O 0.06937 0.96132 0.7682 0.0
O234 O 0.01841 0.99241 0.88477 0.0
O235 O 0.10555 0.8905 0.87733 0.0
O236 O 0.01419 0.99181 0.8231 0.0
O237 O 0.08752 0.90904 0.79657 0.0
O238 O 0.05346 0.91864 0.89482 0.0
O239 O 0.12626 0.01963 0.79652 0.0
O240 O 0.09183 0.02818 0.90493 0.0
O241 O 0.16749 0.95062 0.87468 0.0
Sc242 Sc 0.23804 0.83984 0.04952 0.0
Sc243 Sc 0.31777 0.88632 0.08017 0.0
Sc244 Sc 0.25571 0.84735 0.14329 0.0
O245 O 0.27079 0.85802 0.09054 0.0
C246 C 0.18689 0.88235 0.10891 0.0
C247 C 0.26139 0.91852 0.01866 0.0
C248 C 0.29491 0.92537 0.15513 0.0
C249 C 0.31838 0.82347 0.01711 0.0
C250 C 0.22011 0.77653 0.1034 0.0
C251 C 0.33749 0.82157 0.13964 0.0
O252 O 0.19092 0.86314 0.07919 0.0
O253 O 0.2912 0.92245 0.03781 0.0
O254 O 0.28373 0.89451 0.16791 0.0
O255 O 0.28347 0.81777 0.01766 0.0
O256 O 0.22219 0.79826 0.13109 0.0
O257 O 0.34747 0.85035 0.12082 0.0
O258 O 0.23225 0.78547 0.07189 0.0
O259 O 0.33439 0.84713 0.03801 0.0
O260 O 0.30384 0.81431 0.14785 0.0
O261 O 0.24052 0.89052 0.02107 0.0
O262 O 0.20913 0.8815 0.13612 0.0
O263 O 0.30489 0.92873 0.12139 0.0
Sc264 Sc 0.92841 0.49787 0.69153 0.0
Sc265 Sc 0.87886 0.42045 0.66271 0.0
Sc266 Sc 0.94063 0.46182 0.60353 0.0
O267 O 0.91524 0.46148 0.6522 0.0
C268 C 0.92795 0.54512 0.61603 0.0
C269 C 0.8494 0.48551 0.7164 0.0
C270 C 0.8533 0.444 0.5855 0.0
C271 C 0.93411 0.41897 0.72863 0.0
C272 C 0.00727 0.48974 0.65672 0.0
C273 C 0.93431 0.38044 0.60702 0.0
O274 O 0.93017 0.54208 0.65127 0.0
O275 O 0.85124 0.45098 0.70849 0.0
O276 O 0.88797 0.44608 0.57678 0.0
O277 O 0.93013 0.45402 0.73305 0.0
O278 O 0.99403 0.48031 0.62524 0.0
O279 O 0.90126 0.3834 0.61947 0.0
O280 O 0.98742 0.49202 0.68573 0.0
O281 O 0.91859 0.40095 0.7023 0.0
O282 O 0.9575 0.40587 0.6133 0.0
O283 O 0.87056 0.50871 0.70069 0.0
O284 O 0.9263 0.51802 0.59365 0.0
O285 O 0.84238 0.44114 0.61937 0.0
Sc286 Sc 0.77377 0.64767 0.86252 0.0
Sc287 Sc 0.84524 0.60905 0.91573 0.0
Sc288 Sc 0.77472 0.65902 0.95746 0.0
O289 O 0.79817 0.63866 0.91108 0.0
C290 C 0.74828 0.72106 0.90194 0.0
C291 C 0.85951 0.66203 0.84584 0.0
C292 C 0.85533 0.67979 0.97026 0.0
C293 C 0.80689 0.56751 0.846 0.0
C294 C 0.70951 0.62036 0.91747 0.0
C295 C 0.80311 0.58452 0.9872 0.0
O296 O 0.764 0.70569 0.87439 0.0
O297 O 0.87289 0.64415 0.87369 0.0
O298 O 0.82264 0.6923 0.96471 0.0
O299 O 0.78163 0.59197 0.84242 0.0
O300 O 0.72729 0.62456 0.94787 0.0
O301 O 0.81656 0.57252 0.95655 0.0
O302 O 0.72155 0.63114 0.88592 0.0
O303 O 0.83176 0.5696 0.87126 0.0
O304 O 0.80059 0.61893 0.9929 0.0
O305 O 0.82499 0.66391 0.83842 0.0
O306 O 0.74498 0.70478 0.9328 0.0
O307 O 0.86558 0.64724 0.95963 0.0
Sc308 Sc 0.61599 0.51575 0.09369 0.0
Sc309 Sc 0.6518 0.56622 0.16646 0.0
Sc310 Sc 0.59766 0.48756 0.18454 0.0
O311 O 0.6227 0.52193 0.14893 0.0
C312 C 0.53419 0.50295 0.12459 0.0
C313 C 0.60915 0.59728 0.09893 0.0
C314 C 0.5867 0.5641 0.22713 0.0
C315 C 0.69902 0.533 0.09493 0.0
C316 C 0.60614 0.43391 0.11943 0.0
C317 C 0.67769 0.50035 0.22104 0.0
O318 O 0.55498 0.52053 0.10135 0.0
O319 O 0.61303 0.60228 0.13363 0.0
O320 O 0.57605 0.53155 0.21873 0.0
O321 O 0.67489 0.50846 0.08629 0.0
O322 O 0.61546 0.44037 0.15284 0.0
O323 O 0.68611 0.53045 0.20356 0.0
O324 O 0.60554 0.45869 0.09492 0.0
O325 O 0.69282 0.55742 0.12051 0.0
O326 O 0.64683 0.48363 0.2172 0.0
O327 O 0.62887 0.57264 0.08455 0.0
O328 O 0.54691 0.48854 0.15412 0.0
O329 O 0.61505 0.57922 0.2123 0.0
Sc330 Sc 0.72058 0.31351 0.35589 0.0
Sc331 Sc 0.68721 0.38175 0.41395 0.0
Sc332 Sc 0.75129 0.3181 0.44583 0.0
O333 O 0.72096 0.33851 0.4047 0.0
C334 C 0.73085 0.24388 0.41243 0.0
C335 C 0.64013 0.33331 0.35626 0.0
C336 C 0.67358 0.33122 0.48166 0.0
C337 C 0.7172 0.40254 0.33709 0.0
C338 C 0.80232 0.30581 0.37348 0.0
C339 C 0.75875 0.39911 0.46524 0.0
O340 O 0.73025 0.25785 0.37972 0.0
O341 O 0.64749 0.36504 0.3703 0.0
O342 O 0.70873 0.33106 0.48658 0.0
O343 O 0.71453 0.36804 0.32783 0.0
O344 O 0.79534 0.30188 0.40802 0.0
O345 O 0.7241 0.40437 0.4583 0.0
O346 O 0.77907 0.31875 0.35039 0.0
O347 O 0.71494 0.41322 0.37098 0.0
O348 O 0.7762 0.37134 0.45232 0.0
O349 O 0.66186 0.30613 0.36116 0.0
O350 O 0.72785 0.26399 0.44111 0.0
O351 O 0.65876 0.34767 0.45404 0.0
Sc352 Sc 0.28408 0.41099 0.0045 0.0
Sc353 Sc 0.33008 0.37332 0.08116 0.0
Sc354 Sc 0.3771 0.39404 -0.00072 0.0
O355 O 0.33063 0.3935 0.02958 0.0
C356 C 0.32824 0.3737 0.93887 0.0
C357 C 0.25896 0.33616 0.03845 0.0
C358 C 0.39376 0.32151 0.04742 0.0
C359 C 0.26533 0.43113 0.08845 0.0
C360 C 0.33545 0.47003 0.97598 0.0
C361 C 0.40166 0.42971 0.07418 0.0
O362 O 0.30326 0.39578 0.95038 0.0
O363 O 0.27968 0.33874 0.0677 0.0
O364 O 0.40304 0.34549 0.02338 0.0
O365 O 0.25778 0.42871 0.05426 0.0
O366 O 0.35937 0.44441 0.96975 0.0
O367 O 0.37961 0.40925 0.09401 0.0
O368 O 0.30739 0.46506 0.99683 0.0
O369 O 0.29445 0.41688 0.10244 0.0
O370 O 0.40266 0.42841 0.03895 0.0
O371 O 0.26098 0.35812 0.01109 0.0
O372 O 0.34989 0.35828 0.96156 0.0
O373 O 0.36531 0.32591 0.06804 0.0
Sc374 Sc 0.89357 0.11126 0.99468 0.0
Sc375 Sc 0.82715 0.14682 0.93227 0.0
Sc376 Sc 0.79898 0.10334 0.01528 0.0
O377 O 0.8399 0.12079 0.98069 0.0
C378 C 0.85709 0.03923 0.03163 0.0
C379 C 0.89155 0.08814 0.91067 0.0
C380 C 0.77141 0.07681 0.93714 0.0
C381 C 0.90092 0.19155 0.95593 0.0
C382 C 0.85654 0.14647 0.06564 0.0
C383 C 0.75978 0.1758 0.98256 0.0
O384 O 0.88387 0.0558 0.01579 0.0
O385 O 0.86635 0.11134 0.90107 0.0
O386 O 0.7745 0.07098 0.97188 0.0
O387 O 0.91283 0.16437 0.97499 0.0
O388 O 0.82335 0.1364 0.05808 0.0
O389 O 0.78359 0.18314 0.95712 0.0
O390 O 0.88492 0.13687 0.04692 0.0
O391 O 0.86916 0.19075 0.93979 0.0
O392 O 0.76251 0.14767 0.00312 0.0
O393 O 0.9039 0.08536 0.94341 0.0
O394 O 0.82543 0.05392 0.03535 0.0
O395 O 0.78617 0.10441 0.9204 0.0
Sc396 Sc 0.14163 0.55199 0.25394 0.0
Sc397 Sc 0.10138 0.57851 0.17012 0.0
Sc398 Sc 0.15877 0.63806 0.21644 0.0
O399 O 0.13332 0.58959 0.21485 0.0
C400 C 0.12821 0.62827 0.29652 0.0
C401 C 0.06818 0.52028 0.22837 0.0
C402 C 0.07133 0.65386 0.19489 0.0
C403 C 0.15996 0.51503 0.17459 0.0
C404 C 0.22225 0.58847 0.25453 0.0
C405 C 0.1587 0.635 0.13592 0.0
O406 O 0.12753 0.5928 0.29505 0.0
O407 O 0.07327 0.52972 0.19473 0.0
O408 O 0.10566 0.66365 0.19869 0.0
O409 O 0.15724 0.51256 0.21016 0.0
O410 O 0.21192 0.61735 0.23688 0.0
O411 O 0.12512 0.62394 0.1363 0.0
O412 O 0.20007 0.56235 0.26254 0.0
O413 O 0.1437 0.53992 0.15498 0.0
O414 O 0.17941 0.62615 0.16242 0.0
O415 O 0.08396 0.53778 0.25412 0.0
O416 O 0.14053 0.64913 0.27105 0.0
O417 O 0.06173 0.62001 0.18878 0.0
Sc418 Sc 0.701 0.90976 0.49018 0.0
Sc419 Sc 0.66513 0.85825 0.41676 0.0
Sc420 Sc 0.60714 0.90898 0.4738 0.0
O421 O 0.65777 0.89178 0.46073 0.0
C422 C 0.63673 0.89944 0.551 0.0
C423 C 0.72843 0.83153 0.47531 0.0
C424 C 0.59361 0.82313 0.44846 0.0
C425 C 0.72918 0.915 0.40679 0.0
C426 C 0.65641 0.98207 0.49209 0.0
C427 C 0.59967 0.91284 0.39059 0.0
O428 O 0.66894 0.91001 0.54067 0.0
O429 O 0.71535 0.83173 0.44213 0.0
O430 O 0.58218 0.85584 0.45689 0.0
O431 O 0.73628 0.91325 0.44146 0.0
O432 O 0.6261 0.96355 0.49273 0.0
O433 O 0.61655 0.88172 0.38657 0.0
O434 O 0.68749 0.96741 0.48389 0.0
O435 O 0.70065 0.89974 0.39238 0.0
O436 O 0.60263 0.9317 0.42 0.0
O437 O 0.71669 0.85367 0.49998 0.0
O438 O 0.61185 0.88833 0.52873 0.0
O439 O 0.62755 0.81683 0.43957 0.0
Sc440 Sc 0.36203 0.35835 0.72768 0.0
Sc441 Sc 0.40122 0.4212 0.66533 0.0
Sc442 Sc 0.3461 0.45232 0.73683 0.0
O443 O 0.36945 0.40984 0.70936 0.0
C444 C 0.28686 0.39014 0.75682 0.0
C445 C 0.35243 0.3513 0.6404 0.0
C446 C 0.32687 0.47219 0.65799 0.0
C447 C 0.44629 0.35195 0.70097 0.0
C448 C 0.38302 0.40739 0.79817 0.0
C449 C 0.41887 0.49029 0.71378 0.0
O450 O 0.30282 0.366 0.73652 0.0
O451 O 0.36973 0.38118 0.63175 0.0
O452 O 0.31336 0.46336 0.68948 0.0
O453 O 0.4194 0.34304 0.72195 0.0
O454 O 0.38104 0.43919 0.7827 0.0
O455 O 0.43346 0.46147 0.69904 0.0
O456 O 0.37381 0.37709 0.78237 0.0
O457 O 0.44391 0.37897 0.67798 0.0
O458 O 0.38404 0.49322 0.71609 0.0
O459 O 0.34956 0.33903 0.67334 0.0
O460 O 0.30173 0.42137 0.76306 0.0
O461 O 0.36011 0.46347 0.64778 0.0
Sc462 Sc 0.10593 0.59774 0.51985 0.0
Sc463 Sc 0.17737 0.63748 0.57343 0.0
Sc464 Sc 0.19865 0.58699 0.49232 0.0
O465 O 0.16073 0.60743 0.52867 0.0
C466 C 0.13885 0.52298 0.48593 0.0
C467 C 0.11517 0.58083 0.60476 0.0
C468 C 0.23523 0.56874 0.56916 0.0
C469 C 0.10234 0.68071 0.55115 0.0
C470 C 0.1363 0.62603 0.4436 0.0
C471 C 0.23799 0.66293 0.51401 0.0
O472 O 0.11315 0.54178 0.501 0.0
O473 O 0.14137 0.60423 0.61052 0.0
O474 O 0.22874 0.55957 0.53565 0.0
O475 O 0.08869 0.65191 0.53642 0.0
O476 O 0.16981 0.61546 0.44872 0.0
O477 O 0.21716 0.67184 0.54144 0.0
O478 O 0.10967 0.6193 0.46563 0.0
O479 O 0.13495 0.68093 0.56537 0.0
O480 O 0.23432 0.63302 0.49634 0.0
O481 O 0.1 0.57589 0.5735 0.0
O482 O 0.17096 0.53595 0.48037 0.0
O483 O 0.22044 0.59689 0.58506 0.0
Sc484 Sc 0.67282 0.95608 0.76739 0.0
Sc485 Sc 0.62025 0.91968 0.83826 0.0
Sc486 Sc 0.65265 0.86191 0.76789 0.0
O487 O 0.64895 0.91168 0.79143 0.0
C488 C 0.62891 0.91801 0.70361 0.0
C489 C 0.60095 0.99143 0.79491 0.0
C490 C 0.57233 0.85292 0.80268 0.0
C491 C 0.69405 0.9701 0.84687 0.0
C492 C 0.72896 0.89456 0.74085 0.0
C493 C 0.6695 0.84731 0.85321 0.0
O494 O 0.63706 0.94826 0.72037 0.0
O495 O 0.58641 0.96193 0.80837 0.0
O496 O 0.59561 0.84661 0.77696 0.0
O497 O 0.70719 0.96259 0.81487 0.0
O498 O 0.71098 0.86855 0.75628 0.0
O499 O 0.65408 0.87688 0.86607 0.0
O500 O 0.71611 0.9271 0.73818 0.0
O501 O 0.66098 0.96104 0.85672 0.0
O502 O 0.66868 0.83782 0.81921 0.0
O503 O 0.63575 0.99452 0.79351 0.0
O504 O 0.63659 0.88574 0.71607 0.0
O505 O 0.57766 0.87809 0.82701 0.0
Sc506 Sc 0.82648 0.07339 0.2541 0.0
Sc507 Sc 0.88154 0.08054 0.33361 0.0
Sc508 Sc 0.84472 0.15918 0.29181 0.0
O509 O 0.8511 0.10374 0.2933 0.0
C510 C 0.86124 0.14477 0.21258 0.0
C511 C 0.90313 0.03172 0.26086 0.0
C512 C 0.92668 0.15429 0.3193 0.0
C513 C 0.81642 0.0221 0.32602 0.0
C514 C 0.76679 0.1327 0.25832 0.0
C515 C 0.82463 0.13888 0.37193 0.0
O516 O 0.84098 0.11556 0.21352 0.0
O517 O 0.90818 0.03996 0.29521 0.0
O518 O 0.8963 0.1721 0.31872 0.0
O519 O 0.80994 0.02953 0.29203 0.0
O520 O 0.79177 0.15709 0.26354 0.0
O521 O 0.85258 0.11661 0.37545 0.0
O522 O 0.77323 0.09845 0.2627 0.0
O523 O 0.83971 0.04011 0.34553 0.0
O524 O 0.81676 0.15544 0.34203 0.0
O525 O 0.87699 0.04535 0.24155 0.0
O526 O 0.87248 0.16201 0.24089 0.0
O527 O 0.9273 0.11907 0.32272 0.0
C528 C 0.89602 0.26158 0.37299 0.0
C529 C 0.91537 0.28771 0.35165 0.0
H530 H 0.84387 0.24816 0.39779 0.0
C531 C 0.89554 0.31237 0.32877 0.0
H532 H 0.9107 0.24177 0.39027 0.0
C533 C 0.85724 0.31601 0.33312 0.0
C534 C 0.83909 0.29493 0.36027 0.0
H535 H 0.91012 0.33218 0.31143 0.0
H536 H 0.84281 0.33799 0.31845 0.0
C537 C 0.85791 0.26568 0.37784 0.0
C538 C 0.96628 0.6003 0.60737 0.0
C539 C 0.93273 0.58176 0.60064 0.0
H540 H 0.99277 0.65285 0.61285 0.0
C541 C 0.90259 0.60036 0.58484 0.0
H542 H 0.99002 0.58564 0.61882 0.0
C543 C 0.90406 0.63878 0.58136 0.0
C544 C 0.93553 0.65818 0.59416 0.0
H545 H 0.87682 0.5859 0.57896 0.0
H546 H 0.87908 0.65348 0.57305 0.0
C547 C 0.96792 0.63858 0.60358 0.0
C548 C 0.64932 0.6219 0.94994 0.0
C549 C 0.6702 0.61055 0.9191 0.0
H550 H 0.59578 0.63839 0.96961 0.0
C551 C 0.652 0.59919 0.88644 0.0
H552 H 0.66265 0.63045 0.97552 0.0
C553 C 0.61373 0.60395 0.88302 0.0
C554 C 0.59389 0.62034 0.91213 0.0
H555 H 0.66771 0.58978 0.86251 0.0
H556 H 0.60026 0.59751 0.8569 0.0
C557 C 0.61129 0.62718 0.94629 0.0
C558 C 0.52451 0.37058 0.12692 0.0
C559 C 0.53268 0.34616 0.09778 0.0
H560 H 0.54751 0.41327 0.16117 0.0
C561 C 0.55534 0.35888 0.06877 0.0
H562 H 0.504 0.36326 0.14777 0.0
C563 C 0.58099 0.38679 0.07648 0.0
C564 C 0.58078 0.40373 0.11162 0.0
H565 H 0.55936 0.34202 0.04415 0.0
H566 H 0.60194 0.3938 0.05598 0.0
C567 C 0.55057 0.39769 0.13561 0.0
C568 C 0.39712 0.16446 0.66205 0.0
C569 C 0.41638 0.13464 0.64602 0.0
H570 H 0.3436 0.18784 0.67278 0.0
C571 C 0.39773 0.10124 0.63829 0.0
H572 H 0.4113 0.19011 0.66895 0.0
C573 C 0.35921 0.10023 0.63981 0.0
C574 C 0.33975 0.13215 0.65023 0.0
H575 H 0.41224 0.07761 0.62647 0.0
H576 H 0.34468 0.07632 0.62868 0.0
C577 C 0.35861 0.16297 0.66467 0.0
C578 C 0.09724 0.14503 0.92738 0.0
C579 C 0.06737 0.16472 0.91163 0.0
H580 H 0.12506 0.0925 0.92948 0.0
C581 C 0.03594 0.14553 0.89899 0.0
H582 H 0.12111 0.15954 0.93867 0.0
C583 C 0.03871 0.1077 0.89286 0.0
C584 C 0.07212 0.08938 0.90099 0.0
H585 H 0.01191 0.1601 0.88808 0.0
H586 H 0.01629 0.09356 0.87858 0.0
C587 C 0.09978 0.10699 0.92172 0.0
C588 C 0.09572 0.90351 0.14989 0.0
C589 C 0.07653 0.91116 0.11706 0.0
H590 H 0.14817 0.88845 0.17284 0.0
C591 C 0.09571 0.9225 0.08519 0.0
H592 H 0.08087 0.89512 0.17471 0.0
C593 C 0.13387 0.91714 0.0835 0.0
C594 C 0.15222 0.90206 0.11424 0.0
H595 H 0.08089 0.92886 0.05977 0.0
H596 H 0.14809 0.92054 0.05716 0.0
C597 C 0.13402 0.89925 0.14857 0.0
C598 C 0.37364 0.84692 0.29443 0.0
C599 C 0.368 0.82867 0.32825 0.0
H600 H 0.36915 0.89788 0.26515 0.0
C601 C 0.34515 0.84451 0.35553 0.0
H602 H 0.38932 0.83401 0.27218 0.0
C603 C 0.33317 0.88092 0.35142 0.0
C604 C 0.34444 0.90129 0.32018 0.0
H605 H 0.33907 0.82985 0.38109 0.0
H606 H 0.31964 0.89453 0.37466 0.0
C607 C 0.36099 0.88298 0.28999 0.0
C608 C 0.32907 0.41232 0.8825 0.0
C609 C 0.34334 0.38187 0.90223 0.0
H610 H 0.3343 0.44745 0.83565 0.0
C611 C 0.37595 0.36416 0.88981 0.0
H612 H 0.30426 0.42698 0.89144 0.0
C613 C 0.39323 0.37614 0.85746 0.0
C614 C 0.37832 0.40618 0.83774 0.0
H615 H 0.3878 0.34092 0.90481 0.0
H616 H 0.41652 0.36045 0.8464 0.0
C617 C 0.34709 0.42506 0.85124 0.0
C618 C 0.89742 0.15847 0.11911 0.0
C619 C 0.86302 0.16412 0.10135 0.0
H620 H 0.9236 0.14731 0.17123 0.0
C621 C 0.83241 0.17722 0.12166 0.0
H622 H 0.92182 0.14953 0.1038 0.0
C623 C 0.83371 0.17612 0.16 0.0
C624 C 0.86574 0.16262 0.17737 0.0
H625 H 0.80605 0.18314 0.10827 0.0
H626 H 0.80837 0.18101 0.17567 0.0
C627 C 0.89863 0.15723 0.15755 0.0
C628 C 0.15096 0.663 0.34947 0.0
C629 C 0.12115 0.645 0.33211 0.0
H630 H 0.17963 0.67033 0.40082 0.0
C631 C 0.09074 0.63247 0.35275 0.0
H632 H 0.17444 0.67313 0.3335 0.0
C633 C 0.09338 0.63147 0.39106 0.0
C634 C 0.12686 0.64207 0.40801 0.0
H635 H 0.06742 0.61896 0.33929 0.0
H636 H 0.07163 0.61752 0.40655 0.0
C637 C 0.15412 0.66103 0.38774 0.0
C638 C 0.63736 0.94136 0.60471 0.0
C639 C 0.62608 0.90754 0.58902 0.0
H640 H 0.64499 0.97241 0.65443 0.0
C641 C 0.60602 0.88194 0.61015 0.0
H642 H 0.65154 0.96209 0.58819 0.0
C643 C 0.60204 0.88789 0.64813 0.0
C644 C 0.61794 0.91955 0.66471 0.0
H645 H 0.59618 0.85622 0.59801 0.0
H646 H 0.58982 0.86616 0.66497 0.0
C647 C 0.63289 0.94762 0.6424 0.0
C648 C 0.09696 0.46835 0.48243 0.0
C649 C 0.12952 0.48617 0.47065 0.0
H650 H 0.05747 0.42557 0.47199 0.0
C651 C 0.1503 0.47071 0.44121 0.0
H652 H 0.08075 0.47913 0.50544 0.0
C653 C 0.13681 0.43982 0.42177 0.0
C654 C 0.10247 0.42428 0.43167 0.0
H655 H 0.17567 0.48383 0.43165 0.0
H656 H 0.15189 0.42974 0.39772 0.0
C657 C 0.08362 0.43773 0.46318 0.0
C658 C 0.81632 0.84291 0.71651 0.0
C659 C 0.82616 0.85933 0.6825 0.0
H660 H 0.77775 0.84126 0.76159 0.0
C661 C 0.80737 0.89129 0.67059 0.0
H662 H 0.83076 0.81839 0.72643 0.0
C663 C 0.77686 0.90459 0.69103 0.0
C664 C 0.76491 0.88574 0.72321 0.0
H665 H 0.81438 0.90415 0.64433 0.0
H666 H 0.76113 0.9279 0.68029 0.0
C667 C 0.78589 0.85582 0.73654 0.0
C668 C 0.3468 0.57276 0.95883 0.0
C669 C 0.36246 0.57246 0.92305 0.0
H670 H 0.32508 0.54 0.00372 0.0
C671 C 0.36292 0.53925 0.90276 0.0
H672 H 0.3473 0.59791 0.97538 0.0
C673 C 0.3525 0.50606 0.91967 0.0
C674 C 0.33981 0.50574 0.95651 0.0
H675 H 0.37595 0.53814 0.87561 0.0
H676 H 0.35673 0.4804 0.90475 0.0
C677 C 0.33483 0.53959 0.97525 0.0
C678 C 0.69386 0.19561 0.21869 0.0
C679 C 0.6748 0.17175 0.19428 0.0
H680 H 0.73701 0.2017 0.25876 0.0
C681 C 0.68275 0.13356 0.19509 0.0
H682 H 0.6877 0.22507 0.21971 0.0
C683 C 0.71119 0.12003 0.21804 0.0
C684 C 0.73184 0.14457 0.24047 0.0
H685 H 0.66817 0.11449 0.17696 0.0
H686 H 0.71831 0.09082 0.21668 0.0
C687 C 0.72197 0.1822 0.24145 0.0
C688 C 0.67359 0.02632 0.54258 0.0
C689 C 0.65592 0.01973 0.50829 0.0
H690 H 0.67306 0.05845 0.59301 0.0
C691 C 0.63157 0.04652 0.49416 0.0
H692 H 0.69246 0.00582 0.55402 0.0
C693 C 0.62212 0.07749 0.51555 0.0
C694 C 0.63544 0.08132 0.55216 0.0
H695 H 0.61758 0.04201 0.46791 0.0
H696 H 0.60051 0.09588 0.50532 0.0
C697 C 0.66297 0.05671 0.56473 0.0
C698 C 0.23902 0.40116 0.80744 0.0
C699 C 0.2517 0.38037 0.77654 0.0
H700 H 0.20102 0.40393 0.85386 0.0
C701 C 0.23209 0.34825 0.76656 0.0
H702 H 0.25354 0.42608 0.816 0.0
C703 C 0.20221 0.33595 0.78801 0.0
C704 C 0.19096 0.35525 0.82019 0.0
H705 H 0.24064 0.33176 0.74285 0.0
H706 H 0.18872 0.31019 0.7802 0.0
C707 C 0.20884 0.38869 0.82911 0.0
C708 C 0.88254 0.93779 0.02848 0.0
C709 C 0.87155 0.92486 0.06383 0.0
H710 H 0.88802 0.98404 0.99159 0.0
C711 C 0.85374 0.94987 0.0881 0.0
H712 H 0.89603 0.91945 0.00874 0.0
C713 C 0.84836 0.98713 0.07756 0.0
C714 C 0.86173 0.00012 0.04315 0.0
H715 H 0.84514 0.94103 0.11553 0.0
H716 H 0.83494 0.00608 0.09676 0.0
C717 C 0.87835 0.97497 0.01861 0.0
C718 C 0.32603 0.6021 0.26339 0.0
C719 C 0.33043 0.60313 0.30232 0.0
H720 H 0.2878 0.59842 0.21774 0.0
C721 C 0.30073 0.59096 0.32459 0.0
H722 H 0.3483 0.61169 0.24548 0.0
C723 C 0.26605 0.58273 0.30845 0.0
C724 C 0.26049 0.58723 0.26998 0.0
H725 H 0.30283 0.59223 0.35456 0.0
H726 H 0.24269 0.5765 0.32644 0.0
C727 C 0.29122 0.5952 0.24745 0.0
C728 C 0.42717 0.13416 0.44495 0.0
C729 C 0.43778 0.10058 0.42825 0.0
H730 H 0.43704 0.17214 0.48987 0.0
C731 C 0.47039 0.08261 0.44023 0.0
H732 H 0.40205 0.14835 0.43623 0.0
C733 C 0.48994 0.0957 0.4708 0.0
C734 C 0.47751 0.12729 0.48986 0.0
H735 H 0.47943 0.05689 0.42736 0.0
H736 H 0.51368 0.07996 0.48069 0.0
C737 C 0.44709 0.14756 0.47565 0.0
C738 C 0.13938 0.23024 0.69211 0.0
C739 C 0.12905 0.19504 0.67837 0.0
H740 H 0.1415 0.26713 0.73863 0.0
C741 C 0.10839 0.17131 0.70162 0.0
H742 H 0.15496 0.24955 0.67507 0.0
C743 C 0.09991 0.18207 0.73827 0.0
C744 C 0.11288 0.21617 0.75236 0.0
H745 H 0.10018 0.14399 0.69209 0.0
H746 H 0.08468 0.16317 0.75604 0.0
C747 C 0.13199 0.24033 0.7287 0.0
C748 C 0.08113 0.8491 0.94678 0.0
C749 C 0.05977 0.85917 0.91578 0.0
H750 H 0.08023 0.83566 0.00481 0.0
C751 C 0.02094 0.8536 0.91702 0.0
H752 H 0.11095 0.8536 0.94686 0.0
C753 C 0.00324 0.84543 0.95057 0.0
C754 C 0.02432 0.84049 0.98281 0.0
H755 H 0.00381 0.86124 0.89346 0.0
H756 H 0.97311 0.8458 0.9519 0.0
C757 C 0.06342 0.83957 0.98016 0.0
C758 C 0.35488 0.75842 0.15964 0.0
C759 C 0.36492 0.79608 0.15633 0.0
H760 H 0.35869 0.70899 0.19245 0.0
C761 C 0.39462 0.8097 0.17758 0.0
H762 H 0.33216 0.74719 0.14335 0.0
C763 C 0.41049 0.78725 0.2052 0.0
C764 C 0.39641 0.7514 0.21186 0.0
H765 H 0.40259 0.83865 0.17585 0.0
H766 H 0.4306 0.79938 0.22402 0.0
C767 C 0.37005 0.73644 0.18761 0.0
C768 C 0.93056 0.35223 0.50717 0.0
C769 C 0.96623 0.33712 0.50238 0.0
H770 H 0.89121 0.37553 0.54538 0.0
C771 C 0.98846 0.33006 0.53359 0.0
H772 H 0.91296 0.35769 0.48338 0.0
C773 C 0.97648 0.34108 0.56888 0.0
C774 C 0.94156 0.35804 0.57356 0.0
H775 H 0.01612 0.31843 0.53036 0.0
H776 H 0.99537 0.33843 0.59217 0.0
C777 C 0.918 0.36198 0.54265 0.0
C778 C 0.87148 0.71848 0.80968 0.0
C779 C 0.88319 0.68249 0.81946 0.0
H780 H 0.8693 0.76033 0.7676 0.0
C781 C 0.9079 0.66352 0.79587 0.0
H782 H 0.85207 0.73352 0.82721 0.0
C783 C 0.91806 0.67917 0.76155 0.0
C784 C 0.90283 0.71343 0.75029 0.0
H785 H 0.91656 0.63543 0.80232 0.0
H786 H 0.93542 0.66327 0.74273 0.0
C787 C 0.88077 0.73356 0.7753 0.0
C788 C 0.55774 0.64278 0.0788 0.0
C789 C 0.57511 0.60769 0.07764 0.0
H790 H 0.519 0.67991 0.05163 0.0
C791 C 0.56224 0.58167 0.05152 0.0
H792 H 0.56739 0.66376 0.09805 0.0
C793 C 0.53321 0.5895 0.02781 0.0
C794 C 0.51803 0.62529 0.02595 0.0
H795 H 0.57568 0.555 0.04788 0.0
H796 H 0.52529 0.56793 0.00837 0.0
C797 C 0.52984 0.65185 0.05244 0.0
C798 C 0.62477 0.35139 0.29163 0.0
C799 C 0.61579 0.3306 0.32343 0.0
H800 H 0.62151 0.35502 0.23219 0.0
C801 C 0.59102 0.30065 0.32007 0.0
H802 H 0.64444 0.37411 0.29333 0.0
C803 C 0.57711 0.29039 0.28524 0.0
C804 C 0.58895 0.30901 0.25306 0.0
H805 H 0.58439 0.28371 0.34403 0.0
H806 H 0.55958 0.26601 0.28315 0.0
C807 C 0.61201 0.34026 0.25662 0.0
C808 C 0.47492 0.46867 0.13928 0.0
C809 C 0.49522 0.49225 0.11508 0.0
H810 H 0.4297 0.43011 0.14562 0.0
C811 C 0.48026 0.49973 0.08004 0.0
H812 H 0.48519 0.46244 0.16684 0.0
C813 C 0.44793 0.48154 0.0683 0.0
C814 C 0.42995 0.45489 0.09103 0.0
H815 H 0.49467 0.5178 0.06079 0.0
H816 H 0.43829 0.48685 0.04032 0.0
C817 C 0.44284 0.45002 0.12732 0.0
C818 C 0.93734 0.00025 0.88421 0.0
C819 C 0.96274 0.01298 0.85771 0.0
H820 H 0.89224 0.01449 0.92011 0.0
C821 C 0.95708 0.048 0.84117 0.0
H822 H 0.94128 0.97349 0.89742 0.0
C823 C 0.92954 0.07206 0.85487 0.0
C824 C 0.90709 0.06076 0.88459 0.0
H825 H 0.97677 0.05852 0.82095 0.0
H826 H 0.9288 0.10056 0.84528 0.0
C827 C 0.90929 0.02375 0.89705 0.0
C828 C 0.20449 0.67292 0.10135 0.0
C829 C 0.169 0.66994 0.11747 0.0
H830 H 0.24837 0.7094 0.08393 0.0
C831 C 0.14917 0.70253 0.12609 0.0
H832 H 0.22064 0.6482 0.09529 0.0
C833 C 0.16587 0.73734 0.12165 0.0
C834 C 0.20207 0.74008 0.10727 0.0
H835 H 0.12199 0.70107 0.13898 0.0
H836 H 0.15079 0.76207 0.13 0.0
C837 C 0.22059 0.70778 0.09559 0.0
C838 C 0.5261 0.9759 0.3552 0.0
C839 C 0.49731 0.95075 0.34814 0.0
H840 H 0.5827 0.98311 0.37155 0.0
C841 C 0.50532 0.91255 0.34635 0.0
H842 H 0.52058 0.0055 0.3561 0.0
C843 C 0.54106 0.89952 0.35553 0.0
C844 C 0.56904 0.92473 0.366 0.0
H845 H 0.48337 0.89275 0.34063 0.0
H846 H 0.54567 0.86987 0.35792 0.0
C847 C 0.56173 0.96306 0.36349 0.0
C848 C 0.29122 0.33127 0.61878 0.0
C849 C 0.32995 0.33099 0.61314 0.0
H850 H 0.24068 0.29976 0.6172 0.0
C851 C 0.34604 0.30173 0.59301 0.0
H852 H 0.27836 0.35324 0.63495 0.0
C853 C 0.32426 0.27126 0.5823 0.0
C854 C 0.28647 0.26943 0.59256 0.0
H855 H 0.37595 0.30043 0.58928 0.0
H856 H 0.33789 0.24744 0.56984 0.0
C857 C 0.26972 0.30051 0.60905 0.0
C858 C 0.0733 0.49401 0.63575 0.0
C859 C 0.04399 0.50811 0.65717 0.0
H860 H 0.12234 0.50688 0.60481 0.0
C861 C 0.04661 0.54456 0.67129 0.0
H862 H 0.07191 0.46612 0.62451 0.0
C863 C 0.07501 0.56832 0.65919 0.0
C864 C 0.10153 0.55547 0.63368 0.0
H865 H 0.02411 0.55621 0.68766 0.0
H866 H 0.07324 0.59764 0.66578 0.0
C867 C 0.10236 0.51734 0.62485 0.0
C868 C 0.69668 0.76694 0.91328 0.0
C869 C 0.73133 0.75816 0.89706 0.0
H870 H 0.64917 0.8035 0.91228 0.0
C871 C 0.74814 0.7839 0.87325 0.0
H872 H 0.68318 0.74745 0.93181 0.0
C873 C 0.72939 0.81631 0.86335 0.0
C874 C 0.69311 0.82328 0.87635 0.0
H875 H 0.77499 0.77807 0.86077 0.0
H876 H 0.74186 0.83429 0.84266 0.0
C877 C 0.67742 0.7992 0.90262 0.0
C878 C 0.785 0.20671 0.4338 0.0
C879 C 0.74948 0.20754 0.41719 0.0
H880 H 0.83885 0.18091 0.43354 0.0
C881 C 0.73673 0.1758 0.39881 0.0
H882 H 0.79537 0.23083 0.4485 0.0
C883 C 0.76088 0.14574 0.39311 0.0
C884 C 0.799 0.14877 0.4023 0.0
H885 H 0.70942 0.17554 0.38609 0.0
H886 H 0.75166 0.1236 0.37489 0.0
C887 C 0.80983 0.1776 0.42607 0.0
C888 C 0.02276 0.48101 0.26303 0.0
C889 C 0.05292 0.48333 0.23842 0.0
H890 H 0.99357 0.44851 0.3032 0.0
C891 C 0.07484 0.45138 0.23258 0.0
H892 H 0.00599 0.50539 0.26878 0.0
C893 C 0.06862 0.41882 0.2533 0.0
C894 C 0.03994 0.4173 0.27996 0.0
H895 H 0.09893 0.45267 0.2145 0.0
H896 H 0.08774 0.39575 0.25012 0.0
C897 C 0.01593 0.44827 0.28301 0.0
C898 C 0.79452 0.77217 0.52977 0.0
C899 C 0.82708 0.79416 0.52871 0.0
H900 H 0.73739 0.76646 0.51296 0.0
C901 C 0.82857 0.82324 0.50264 0.0
H902 H 0.79202 0.74952 0.54938 0.0
C903 C 0.7973 0.83211 0.48089 0.0
C904 C 0.76372 0.81234 0.48477 0.0
H905 H 0.85294 0.84084 0.50088 0.0
H906 H 0.79828 0.85673 0.46361 0.0
C907 C 0.76311 0.78151 0.50851 0.0
C908 C 0.46221 0.50961 0.76448 0.0
C909 C 0.4402 0.51938 0.73386 0.0
H910 H 0.48428 0.52634 0.81714 0.0
C911 C 0.42862 0.55668 0.73047 0.0
H912 H 0.47075 0.48101 0.76844 0.0
C913 C 0.43596 0.58276 0.75853 0.0
C914 C 0.45471 0.57208 0.79103 0.0
H915 H 0.411 0.56492 0.70749 0.0
H916 H 0.42445 0.61045 0.75595 0.0
C917 C 0.46931 0.53561 0.79276 0.0
C918 C 0.69597 0.23935 0.03463 0.0
C919 C 0.66295 0.21798 0.03416 0.0
H920 H 0.75324 0.24337 0.01734 0.0
C921 C 0.66046 0.18902 0.00811 0.0
H922 H 0.69914 0.26184 0.05436 0.0
C923 C 0.6912 0.17942 0.98594 0.0
C924 C 0.72555 0.19801 0.98952 0.0
H925 H 0.63564 0.17201 0.00671 0.0
H926 H 0.68935 0.15464 0.96892 0.0
C927 C 0.72703 0.22921 0.0129 0.0
C928 C 0.59421 0.05731 0.77547 0.0
C929 C 0.5802 0.02068 0.77445 0.0
H930 H 0.60036 0.10949 0.74735 0.0
C931 C 0.55598 0.01101 0.74557 0.0
H932 H 0.61338 0.06551 0.7972 0.0
C933 C 0.54878 0.03624 0.71667 0.0
C934 C 0.5658 0.0717 0.71584 0.0
H935 H 0.54547 0.9829 0.74338 0.0
H936 H 0.53164 0.02693 0.69377 0.0
C937 C 0.58724 0.08244 0.74656 0.0
C938 C 0.23204 0.28028 0.01043 0.0
C939 C 0.22726 0.31037 0.03484 0.0
H940 H 0.21084 0.25064 0.96348 0.0
C941 C 0.19175 0.32703 0.03663 0.0
H942 H 0.2591 0.2672 0.00782 0.0
C943 C 0.16447 0.31897 0.00987 0.0
C944 C 0.17155 0.29281 0.98172 0.0
H945 H 0.18723 0.35067 0.05477 0.0
H946 H 0.13921 0.33542 0.00944 0.0
C947 C 0.20447 0.27151 0.98422 0.0
C948 C 0.93673 0.00761 0.2057 0.0
C949 C 0.92398 0.00142 0.24206 0.0
H950 H 0.95103 0.9843 0.15304 0.0
C951 C 0.9201 0.96448 0.25425 0.0
H952 H 0.93921 0.03571 0.19521 0.0
C953 C 0.92612 0.93457 0.22963 0.0
C954 C 0.93603 0.94103 0.19228 0.0
H955 H 0.90922 0.9588 0.28172 0.0
H956 H 0.92092 0.90659 0.23931 0.0
C957 C 0.94283 0.97796 0.18127 0.0
C958 C 0.25982 0.70647 0.46636 0.0
C959 C 0.26781 0.68679 0.49903 0.0
H960 H 0.2787 0.72331 0.41258 0.0
C961 C 0.30481 0.67522 0.50503 0.0
H962 H 0.23144 0.71474 0.46033 0.0
C963 C 0.33199 0.6793 0.47721 0.0
C964 C 0.32266 0.69489 0.44264 0.0
H965 H 0.31161 0.65893 0.52939 0.0
H966 H 0.35934 0.66745 0.4817 0.0
C967 C 0.28682 0.71039 0.43848 0.0
C968 C 0.23572 0.08379 0.45982 0.0
C969 C 0.23886 0.06345 0.49306 0.0
H970 H 0.25593 0.09196 0.40419 0.0
C971 C 0.26127 0.03152 0.49315 0.0
H972 H 0.21946 0.10916 0.4592 0.0
C973 C 0.28185 0.02136 0.46159 0.0
C974 C 0.28159 0.04358 0.42929 0.0
H975 H 0.26498 0.01584 0.51855 0.0
H976 H 0.30028 0.99763 0.46372 0.0
C977 C 0.25699 0.07411 0.42835 0.0
C978 C 0.18944 0.04976 0.75767 0.0
C979 C 0.17243 0.01526 0.75164 0.0
H980 H 0.21015 0.09989 0.73403 0.0
C981 C 0.16702 0.00317 0.71487 0.0
H982 H 0.19332 0.06004 0.78568 0.0
C983 C 0.17583 0.02655 0.6848 0.0
C984 C 0.19026 0.0624 0.69105 0.0
H985 H 0.15301 0.97709 0.70947 0.0
H986 H 0.16931 0.01741 0.65691 0.0
C987 C 0.19853 0.07284 0.72786 0.0
C988 C 0.1875 0.96969 0.97243 0.0
C989 C 0.19313 0.95729 0.93577 0.0
H990 H 0.20771 0.96988 0.02832 0.0
C991 C 0.22857 0.94358 0.92608 0.0
H992 H 0.16089 0.98116 0.98082 0.0
C993 C 0.25579 0.93775 0.95349 0.0
C994 C 0.2482 0.94565 0.99101 0.0
H995 H 0.23416 0.9342 0.89805 0.0
H996 H 0.28075 0.92252 0.94605 0.0
C997 C 0.21485 0.96425 -0.00039 0.0
C998 C 0.28581 0.95488 0.21839 0.0
C999 C 0.2978 0.95773 0.18111 0.0
H1000 H 0.28606 0.97913 0.273 0.0
C1001 C 0.31381 0.99137 0.16951 0.0
H1002 H 0.27284 0.92964 0.22836 0.0
C1003 C 0.32083 0.01985 0.19511 0.0
C1004 C 0.31178 0.0157 0.23294 0.0
H1005 H 0.32293 0.99498 0.14107 0.0
H1006 H 0.33627 0.04398 0.18588 0.0
C1007 C 0.29258 0.98362 0.24398 0.0
C1008 C 0.76448 0.42319 0.53056 0.0
C1009 C 0.77863 0.42071 0.49418 0.0
H1010 H 0.77687 0.43225 0.58832 0.0
C1011 C 0.81584 0.43066 0.48786 0.0
H1012 H 0.7361 0.41486 0.53637 0.0
C1013 C 0.83906 0.44063 0.51732 0.0
C1014 C 0.82604 0.44023 0.55427 0.0
H1015 H 0.82765 0.42855 0.46024 0.0
H1016 H 0.86797 0.44653 0.51114 0.0
C1017 C 0.78801 0.43274 0.56038 0.0
C1018 C 0.84612 0.48954 0.78558 0.0
C1019 C 0.83063 0.49835 0.75078 0.0
H1020 H 0.851 0.5044 0.84322 0.0
C1021 C 0.80352 0.52629 0.74896 0.0
H1022 H 0.8678 0.46868 0.7876 0.0
C1023 C 0.79333 0.54623 0.78084 0.0
C1024 C 0.81103 0.53973 0.81525 0.0
H1025 H 0.79174 0.53418 0.72242 0.0
H1026 H 0.77358 0.56877 0.77771 0.0
C1027 C 0.83668 0.51021 0.81743 0.0
C1028 C 0.76135 0.5615 0.07988 0.0
C1029 C 0.73215 0.53763 0.06991 0.0
H1030 H 0.80813 0.5934 0.06162 0.0
C1031 C 0.73245 0.52243 0.03366 0.0
H1032 H 0.76244 0.57351 0.10744 0.0
C1033 C 0.7589 0.53394 0.00709 0.0
C1034 C 0.78583 0.56064 0.01631 0.0
H1035 H 0.71046 0.50389 0.0248 0.0
H1036 H 0.75598 0.52469 0.97862 0.0
C1037 C 0.78785 0.57264 0.05356 0.0
C1038 C 0.72174 0.42049 0.26947 0.0
C1039 C 0.71781 0.43125 0.30686 0.0
H1040 H 0.71395 0.43526 0.21235 0.0
C1041 C 0.70999 0.46896 0.31439 0.0
H1042 H 0.72797 0.39191 0.26235 0.0
C1043 C 0.70241 0.49408 0.28537 0.0
C1044 C 0.70291 0.48224 0.24816 0.0
H1045 H 0.70677 0.47848 0.34274 0.0
H1046 H 0.69244 0.52166 0.29225 0.0
C1047 C 0.71438 0.44561 0.24061 0.0
C1048 C 0.4799 0.25898 0.04849 0.0
C1049 C 0.46954 0.23201 0.07469 0.0
H1050 H 0.46423 0.30861 0.01941 0.0
C1051 C 0.43256 0.23195 0.08773 0.0
H1052 H 0.50833 0.26032 0.03852 0.0
C1053 C 0.40744 0.2598 0.07732 0.0
C1054 C 0.41852 0.28861 0.05347 0.0
H1055 H 0.42373 0.21167 0.10812 0.0
H1056 H 0.37985 0.25968 0.08947 0.0
C1057 C 0.45464 0.28699 0.03797 0.0
C1058 C 0.94534 0.27955 0.91675 0.0
C1059 C 0.98157 0.27827 0.93192 0.0
H1060 H 0.89166 0.2538 0.91219 0.0
C1061 C 0.98919 0.2512 0.95887 0.0
H1062 H 0.93861 0.29983 0.89558 0.0
C1063 C 0.96222 0.22438 0.96811 0.0
C1064 C 0.92688 0.22388 0.95068 0.0
H1065 H 0.01689 0.24879 0.97048 0.0
H1066 H 0.96994 0.20277 0.98754 0.0
C1067 C 0.9184 0.25287 0.92602 0.0
C1068 C 0.98452 0.71227 0.1735 0.0
C1069 C 0.99513 0.74712 0.18784 0.0
H1070 H 0.00021 0.65513 0.16431 0.0
C1071 C 0.02821 0.74923 0.20854 0.0
H1072 H 0.95967 0.70984 0.15667 0.0
C1073 C 0.05156 0.71836 0.21235 0.0
C1074 C 0.04269 0.68417 0.19561 0.0
H1075 H 0.0374 0.77565 0.21967 0.0
H1076 H 0.0776 0.72187 0.22709 0.0
C1077 C 0.00804 0.68101 0.17748 0.0
C1078 C 0.49923 0.77547 0.44184 0.0
C1079 C 0.50777 0.7426 0.42255 0.0
H1080 H 0.51924 0.82606 0.46571 0.0
C1081 C 0.54552 0.73363 0.41698 0.0
H1082 H 0.47044 0.7837 0.44562 0.0
C1083 C 0.57386 0.75844 0.42782 0.0
C1084 C 0.56505 0.7929 0.44434 0.0
H1085 H 0.55299 0.70916 0.40109 0.0
H1086 H 0.60241 0.75173 0.42081 0.0
C1087 C 0.52739 0.80009 0.45283 0.0
C1088 C 0.53362 0.30187 0.66792 0.0
C1089 C 0.5298 0.26713 0.68563 0.0
H1090 H 0.51018 0.35591 0.65826 0.0
C1091 C 0.50353 0.26396 0.71424 0.0
H1092 H 0.55307 0.30491 0.64509 0.0
C1093 C 0.47872 0.29322 0.72174 0.0
C1094 C 0.47918 0.32619 0.70037 0.0
H1095 H 0.49914 0.23743 0.72771 0.0
H1096 H 0.45698 0.28846 0.74203 0.0
C1097 C 0.50849 0.33098 0.67498 0.0
C1098 C 0.06252 0.77537 0.57694 0.0
C1099 C 0.02557 0.77245 0.56392 0.0
H1100 H 0.11566 0.74885 0.58373 0.0
C1101 C 0.01616 0.74195 0.54173 0.0
H1102 H 0.07046 0.79845 0.59457 0.0
C1103 C 0.04197 0.71323 0.53597 0.0
C1104 C 0.0778 0.7143 0.55231 0.0
H1105 H 0.98784 0.7384 0.53205 0.0
H1106 H 0.03286 0.68908 0.52052 0.0
C1107 C 0.08833 0.74665 0.57127 0.0
C1108 C 0.49566 0.79859 0.85001 0.0
C1109 C 0.49767 0.76437 0.83127 0.0
H1110 H 0.51695 0.85385 0.85531 0.0
C1111 C 0.5193 0.76178 0.799 0.0
H1112 H 0.47953 0.80104 0.87535 0.0
C1113 C 0.5409 0.79213 0.78739 0.0
C1114 C 0.54171 0.82542 0.80826 0.0
H1115 H 0.52185 0.73552 0.78451 0.0
H1116 H 0.55922 0.78835 0.76379 0.0
C1117 C 0.5173 0.82882 0.8386 0.0
C1118 C 0.99567 0.16219 0.32989 0.0
C1119 C 0.96179 0.17612 0.31652 0.0
H1120 H 0.05179 0.17486 0.34542 0.0
C1121 C 0.96119 0.21225 0.30124 0.0
H1122 H 0.99733 0.13439 0.34125 0.0
C1123 C 0.99278 0.23508 0.30246 0.0
C1124 C 0.0254 0.22251 0.31971 0.0
H1125 H 0.93572 0.22361 0.28983 0.0
H1126 H 0.99037 0.2637 0.29349 0.0
C1127 C 0.02705 0.18523 0.33169 0.0
C1128 C 0.1265 0.25996 0.4907 0.0
C1129 C 0.13175 0.2598 0.45207 0.0
H1130 H 0.13862 0.23401 0.54244 0.0
C1131 C 0.1582 0.2355 0.43646 0.0
H1132 H 0.10674 0.27876 0.50361 0.0
C1133 C 0.17683 0.20974 0.45904 0.0
C1134 C 0.16865 0.20791 0.49715 0.0
H1135 H 0.16266 0.23474 0.40672 0.0
H1136 H 0.19589 0.19004 0.4465 0.0
C1137 C 0.14446 0.23411 0.5129 0.0
C1138 C 0.02899 0.91961 0.71483 0.0
C1139 C 0.04596 0.90385 0.74628 0.0
H1140 H 0.9919 0.91124 0.66894 0.0
C1141 C 0.03762 0.86704 0.75591 0.0
H1142 H 0.0347 0.94806 0.70691 0.0
C1143 C 0.01278 0.84645 0.73486 0.0
C1144 C 0.99592 0.86187 0.70321 0.0
H1145 H 0.04971 0.85414 0.78025 0.0
H1146 H 0.00724 0.81814 0.74335 0.0
C1147 C 0.00431 0.89867 0.69328 0.0
C1148 C 0.34853 0.74861 0.94921 0.0
C1149 C 0.38741 0.7524 0.95027 0.0
H1150 H 0.29604 0.76814 0.96953 0.0
C1151 C 0.40306 0.78121 0.97151 0.0
H1152 H 0.33565 0.72675 0.93304 0.0
C1153 C 0.38053 0.80487 0.99226 0.0
C1154 C 0.34174 0.80031 0.99241 0.0
H1155 H 0.43291 0.78529 0.97261 0.0
H1156 H 0.39374 0.82624 0.00881 0.0
C1157 C 0.32588 0.77232 0.97016 0.0
C1158 C 0.48436 0.1597 0.24563 0.0
C1159 C 0.50717 0.14386 0.21792 0.0
H1160 H 0.44306 0.15055 0.28745 0.0
C1161 C 0.50704 0.1053 0.21281 0.0
H1162 H 0.48363 0.18944 0.25016 0.0
C1163 C 0.48408 0.08305 0.23471 0.0
C1164 C 0.46037 0.09915 0.26145 0.0
H1165 H 0.5243 0.09245 0.19171 0.0
H1166 H 0.48403 0.05334 0.22988 0.0
C1167 C 0.4609 0.13758 0.2669 0.0
C1168 C 0.59222 0.27507 0.51779 0.0
C1169 C 0.60896 0.25462 0.54659 0.0
H1170 H 0.59919 0.31583 0.47515 0.0
C1171 C 0.64629 0.26192 0.55565 0.0
H1172 H 0.5634 0.27049 0.51027 0.0
C1173 C 0.66667 0.28822 0.53577 0.0
C1174 C 0.65028 0.30788 0.50626 0.0
H1175 H 0.66001 0.24708 0.57792 0.0
H1176 H 0.69563 0.29238 0.54297 0.0
C1177 C 0.61264 0.3014 0.49786 0.0
C1178 C 0.97622 0.36548 0.73978 0.0
C1179 C 0.96115 0.39923 0.75223 0.0
H1180 H 0.01465 0.32164 0.74931 0.0
C1181 C 0.97489 0.4152 0.78512 0.0
H1182 H 0.96697 0.35283 0.7141 0.0
C1183 C 0.00258 0.39712 0.80563 0.0
C1184 C 0.01724 0.36304 0.79329 0.0
H1185 H 0.96413 0.4415 0.7951 0.0
H1186 H 0.01194 0.40948 0.8314 0.0
C1187 C 0.00407 0.34781 0.75982 0.0
C1188 C 0.88853 0.76215 0.02466 0.0
C1189 C 0.91486 0.74642 0.04871 0.0
H1190 H 0.85047 0.75385 0.9803 0.0
C1191 C 0.92556 0.70919 0.04358 0.0
H1192 H 0.88059 0.79111 0.02714 0.0
C1193 C 0.90786 0.68737 0.0164 0.0
C1194 C 0.87974 0.70285 0.99395 0.0
H1195 H 0.94622 0.69664 0.06152 0.0
H1196 H 0.91484 0.65817 0.01421 0.0
C1197 C 0.87142 0.74079 0.99757 0.0
C1198 C 0.54549 0.64623 0.27896 0.0
C1199 C 0.51409 0.63028 0.29601 0.0
H1200 H 0.5932 0.63797 0.24435 0.0
C1201 C 0.50857 0.59176 0.29269 0.0
H1202 H 0.55084 0.67575 0.28116 0.0
C1203 C 0.53289 0.57004 0.27142 0.0
C1204 C 0.56347 0.58627 0.25315 0.0
H1205 H 0.48476 0.57849 0.30549 0.0
H1206 H 0.52712 0.54066 0.26857 0.0
C1207 C 0.56993 0.62449 0.2579 0.0
C1208 C 0.24348 0.45564 0.15041 0.0
C1209 C 0.2379 0.45056 0.11211 0.0
H1210 H 0.22251 0.47986 0.20079 0.0
C1211 C 0.20484 0.4638 0.09588 0.0
H1212 H 0.26845 0.44539 0.16378 0.0
C1213 C 0.17877 0.48297 0.11686 0.0
C1214 C 0.18489 0.48943 0.1547 0.0
H1215 H 0.19911 0.45992 0.06662 0.0
H1216 H 0.15411 0.49355 0.10314 0.0
C1217 C 0.21704 0.47493 0.17163 0.0
C1218 C 0.76106 0.04462 0.87698 0.0
C1219 C 0.75171 0.04904 0.91456 0.0
H1220 H 0.75085 0.01559 0.82641 0.0
C1221 C 0.72459 0.02586 0.93041 0.0
H1222 H 0.78232 0.06169 0.86418 0.0
C1223 C 0.70633 -0.00056 0.90865 0.0
C1224 C 0.71544 0.99534 0.87092 0.0
H1225 H 0.71706 0.02857 0.95941 0.0
H1226 H 0.68491 0.98245 0.92127 0.0
C1227 C 0.74334 0.01786 0.85546 0.0
C1228 C 0.80766 0.9787 0.37922 0.0
C1229 C 0.79588 0.99157 0.34433 0.0
H1230 H 0.79645 0.94399 0.42577 0.0
C1231 C 0.76385 0.97596 0.32825 0.0
H1232 H 0.83256 0.98959 0.3922 0.0
C1233 C 0.74296 0.94952 0.34768 0.0
C1234 C 0.75382 0.9382 0.38346 0.0
H1235 H 0.75417 0.98512 0.3013 0.0
H1236 H 0.71754 0.93915 0.33532 0.0
C1237 C 0.78697 0.95235 0.39848 0.0
C1238 C 0.27746 0.52001 0.65139 0.0
C1239 C 0.30421 0.49693 0.63456 0.0
H1240 H 0.2352 0.561 0.64398 0.0
C1241 C 0.30889 0.4982 0.5959 0.0
H1242 H 0.27347 0.51997 0.6812 0.0
C1243 C 0.28649 0.52162 0.57439 0.0
C1244 C 0.25975 0.54465 0.5914 0.0
H1245 H 0.32935 0.48072 0.5823 0.0
H1246 H 0.29021 0.52185 0.54455 0.0
C1247 C 0.25571 0.54379 0.6301 0.0
loop_
_geom_bond_atom_site_label_1
_geom_bond_atom_site_label_2
_geom_bond_distance
_geom_bond_site_symmetry_2
_ccdc_geom_bond_type
Sc0 O3 2.025 . S
Sc0 O10 2.105 1_455 S
Sc0 O13 2.105 . S
Sc0 O16 2.105 1_455 S
Sc0 O19 2.105 . S
Sc1 O3 2.025 . S
Sc1 O11 2.105 . S
Sc1 O15 2.105 . S
Sc1 O17 2.105 . S
Sc1 O21 2.105 . S
Sc2 O3 2.025 . S
Sc2 O12 2.105 . S
Sc2 O14 2.100 1_455 S
Sc2 O18 2.105 . S
Sc2 O20 2.105 1_455 S
O3 Sc0 2.025 . S
O3 Sc1 2.025 . S
O3 Sc2 2.025 . S
C4 O10 1.268 . S
C4 O20 1.268 . S
C5 O11 1.268 . S
C5 O19 1.268 . S
C6 O12 1.268 . S
C6 O21 1.268 . S
C7 O13 1.268 . S
C7 O17 1.268 . S
C8 O14 1.271 . S
C8 O16 1.268 . S
C9 O15 1.268 . S
C9 O18 1.268 . S
O10 Sc0 2.105 1_655 S
O10 C4 1.268 . S
O11 Sc1 2.105 . S
O11 C5 1.268 . S
O12 Sc2 2.105 . S
O12 C6 1.268 . S
O13 Sc0 2.105 . S
O13 C7 1.268 . S
O14 Sc2 2.100 1_655 S
O14 C8 1.271 . S
O15 Sc1 2.105 . S
O15 C9 1.268 . S
O16 Sc0 2.105 1_655 S
O16 C8 1.268 . S
O17 Sc1 2.105 . S
O17 C7 1.268 . S
O18 Sc2 2.105 . S
O18 C9 1.268 . S
O19 Sc0 2.105 . S
O19 C5 1.268 . S
O20 Sc2 2.105 1_655 S
O20 C4 1.268 . S
O21 Sc1 2.105 . S
O21 C6 1.268 . S
Sc22 O25 2.025 . S
Sc22 O32 2.105 . S
Sc22 O35 2.105 . S
Sc22 O38 2.105 . S
Sc22 O41 2.105 . S
Sc23 O25 2.025 . S
Sc23 O33 2.105 . S
Sc23 O37 2.105 . S
Sc23 O39 2.105 . S
Sc23 O43 2.105 . S
Sc24 O25 2.025 . S
Sc24 O34 2.105 . S
Sc24 O36 2.105 . S
Sc24 O40 2.105 . S
Sc24 O42 2.105 . S
O25 Sc22 2.025 . S
O25 Sc23 2.025 . S
O25 Sc24 2.025 . S
C26 O32 1.268 . S
C26 O42 1.268 . S
C27 O33 1.268 . S
C27 O41 1.268 . S
C28 O34 1.268 . S
C28 O43 1.268 . S
C29 O35 1.268 . S
C29 O39 1.268 . S
C30 O36 1.268 . S
C30 O38 1.268 . S
C31 O37 1.268 . S
C31 O40 1.268 . S
O32 Sc22 2.105 . S
O32 C26 1.268 . S
O33 Sc23 2.105 . S
O33 C27 1.268 . S
O34 Sc24 2.105 . S
O34 C28 1.268 . S
O35 Sc22 2.105 . S
O35 C29 1.268 . S
O36 Sc24 2.105 . S
O36 C30 1.268 . S
O37 Sc23 2.105 . S
O37 C31 1.268 . S
O38 Sc22 2.105 . S
O38 C30 1.268 . S
O39 Sc23 2.105 . S
O39 C29 1.268 . S
O40 Sc24 2.105 . S
O40 C31 1.268 . S
O41 Sc22 2.105 . S
O41 C27 1.268 . S
O42 Sc24 2.105 . S
O42 C26 1.268 . S
O43 Sc23 2.105 . S
O43 C28 1.268 . S
Sc44 O47 2.025 . S
Sc44 O54 2.105 . S
Sc44 O57 2.105 . S
Sc44 O60 2.105 . S
Sc44 O63 2.105 . S
Sc45 O47 2.025 . S
Sc45 O55 2.105 . S
Sc45 O59 2.105 . S
Sc45 O61 2.105 . S
Sc45 O65 2.105 . S
Sc46 O47 2.025 . S
Sc46 O56 2.105 . S
Sc46 O58 2.105 . S
Sc46 O62 2.105 . S
Sc46 O64 2.105 . S
O47 Sc44 2.025 . S
O47 Sc45 2.025 . S
O47 Sc46 2.025 . S
C48 O54 1.268 . S
C48 O64 1.268 . S
C49 O55 1.268 . S
C49 O63 1.268 . S
C50 O56 1.268 . S
C50 O65 1.268 . S
C51 O57 1.268 . S
C51 O61 1.268 . S
C52 O58 1.268 . S
C52 O60 1.268 . S
C53 O59 1.268 . S
C53 O62 1.268 . S
O54 Sc44 2.105 . S
O54 C48 1.268 . S
O55 Sc45 2.105 . S
O55 C49 1.268 . S
O56 Sc46 2.105 . S
O56 C50 1.268 . S
O57 Sc44 2.105 . S
O57 C51 1.268 . S
O58 Sc46 2.105 . S
O58 C52 1.268 . S
O59 Sc45 2.105 . S
O59 C53 1.268 . S
O60 Sc44 2.105 . S
O60 C52 1.268 . S
O61 Sc45 2.105 . S
O61 C51 1.268 . S
O62 Sc46 2.105 . S
O62 C53 1.268 . S
O63 Sc44 2.105 . S
O63 C49 1.268 . S
O64 Sc46 2.105 . S
O64 C48 1.268 . S
O65 Sc45 2.105 . S
O65 C50 1.268 . S
Sc66 O69 2.025 . S
Sc66 O76 2.105 . S
Sc66 O79 2.105 . S
Sc66 O82 2.105 . S
Sc66 O85 2.105 . S
Sc67 O69 2.025 . S
Sc67 O77 2.105 . S
Sc67 O81 2.105 . S
Sc67 O83 2.105 . S
Sc67 O87 2.105 . S
Sc68 O69 2.025 . S
Sc68 O78 2.105 . S
Sc68 O80 2.105 . S
Sc68 O84 2.105 . S
Sc68 O86 2.105 . S
O69 Sc66 2.025 . S
O69 Sc67 2.025 . S
O69 Sc68 2.025 . S
C70 O76 1.268 . S
C70 O86 1.268 . S
C71 O77 1.268 . S
C71 O85 1.268 . S
C72 O78 1.268 . S
C72 O87 1.268 . S
C73 O79 1.268 . S
C73 O83 1.268 . S
C74 O80 1.268 . S
C74 O82 1.268 . S
C75 O81 1.268 . S
C75 O84 1.268 . S
O76 Sc66 2.105 . S
O76 C70 1.268 . S
O77 Sc67 2.105 . S
O77 C71 1.268 . S
O78 Sc68 2.105 . S
O78 C72 1.268 . S
O79 Sc66 2.105 . S
O79 C73 1.268 . S
O80 Sc68 2.105 . S
O80 C74 1.268 . S
O81 Sc67 2.105 . S
O81 C75 1.268 . S
O82 Sc66 2.105 . S
O82 C74 1.268 . S
O83 Sc67 2.105 . S
O83 C73 1.268 . S
O84 Sc68 2.105 . S
O84 C75 1.268 . S
O85 Sc66 2.105 . S
O85 C71 1.268 . S
O86 Sc68 2.105 . S
O86 C70 1.268 . S
O87 Sc67 2.105 . S
O87 C72 1.268 . S
Sc88 O91 2.025 . S
Sc88 O98 2.105 . S
Sc88 O101 2.105 . S
Sc88 O104 2.105 . S
Sc88 O107 2.105 . S
Sc89 O91 2.025 . S
Sc89 O99 2.105 . S
Sc89 O103 2.105 . S
Sc89 O105 2.105 . S
Sc89 O109 2.105 . S
Sc90 O91 2.025 . S
Sc90 O100 2.105 . S
Sc90 O102 2.105 . S
Sc90 O106 2.105 . S
Sc90 O108 2.105 . S
O91 Sc88 2.025 . S
O91 Sc89 2.025 . S
O91 Sc90 2.025 . S
C92 O98 1.268 . S
C92 O108 1.268 . S
C93 O99 1.268 . S
C93 O107 1.268 . S
C94 O100 1.268 . S
C94 O109 1.268 . S
C95 O101 1.268 . S
C95 O105 1.268 . S
C96 O102 1.268 . S
C96 O104 1.268 . S
C97 O103 1.268 . S
C97 O106 1.268 . S
O98 Sc88 2.105 . S
O98 C92 1.268 . S
O99 Sc89 2.105 . S
O99 C93 1.268 . S
O100 Sc90 2.105 . S
O100 C94 1.268 . S
O101 Sc88 2.105 . S
O101 C95 1.268 . S
O102 Sc90 2.105 . S
O102 C96 1.268 . S
O103 Sc89 2.105 . S
O103 C97 1.268 . S
O104 Sc88 2.105 . S
O104 C96 1.268 . S
O105 Sc89 2.105 . S
O105 C95 1.268 . S
O106 Sc90 2.105 . S
O106 C97 1.268 . S
O107 Sc88 2.105 . S
O107 C93 1.268 . S
O108 Sc90 2.105 . S
O108 C92 1.268 . S
O109 Sc89 2.105 . S
O109 C94 1.268 . S
Sc110 O113 2.025 . S
Sc110 O120 2.105 . S
Sc110 O123 2.105 . S
Sc110 O126 2.105 . S
Sc110 O129 2.105 . S
Sc111 O113 2.025 . S
Sc111 O121 2.105 . S
Sc111 O125 2.105 . S
Sc111 O127 2.105 . S
Sc111 O131 2.105 . S
Sc112 O113 2.025 . S
Sc112 O122 2.105 . S
Sc112 O124 2.105 . S
Sc112 O128 2.105 . S
Sc112 O130 2.105 . S
O113 Sc110 2.025 . S
O113 Sc111 2.025 . S
O113 Sc112 2.025 . S
C114 O120 1.268 . S
C114 O130 1.268 . S
C115 O121 1.268 . S
C115 O129 1.268 . S
C116 O122 1.268 . S
C116 O131 1.268 . S
C117 O123 1.268 . S
C117 O127 1.268 . S
C118 O124 1.268 . S
C118 O126 1.268 . S
C119 O125 1.268 . S
C119 O128 1.268 . S
O120 Sc110 2.105 . S
O120 C114 1.268 . S
O121 Sc111 2.105 . S
O121 C115 1.268 . S
O122 Sc112 2.105 . S
O122 C116 1.268 . S
O123 Sc110 2.105 . S
O123 C117 1.268 . S
O124 Sc112 2.105 . S
O124 C118 1.268 . S
O125 Sc111 2.105 . S
O125 C119 1.268 . S
O126 Sc110 2.105 . S
O126 C118 1.268 . S
O127 Sc111 2.105 . S
O127 C117 1.268 . S
O128 Sc112 2.105 . S
O128 C119 1.268 . S
O129 Sc110 2.105 . S
O129 C115 1.268 . S
O130 Sc112 2.105 . S
O130 C114 1.268 . S
O131 Sc111 2.105 . S
O131 C116 1.268 . S
Sc132 O135 2.025 . S
Sc132 O142 2.100 1_655 S
Sc132 O145 2.105 . S
Sc132 O148 2.105 1_655 S
Sc132 O151 2.105 . S
Sc133 O135 2.025 . S
Sc133 O143 2.105 . S
Sc133 O147 2.105 . S
Sc133 O149 2.105 . S
Sc133 O153 2.105 . S
Sc134 O135 2.025 . S
Sc134 O144 2.105 . S
Sc134 O146 2.105 1_655 S
Sc134 O150 2.105 . S
Sc134 O152 2.105 1_655 S
O135 Sc132 2.025 . S
O135 Sc133 2.025 . S
O135 Sc134 2.025 . S
C136 O142 1.271 . S
C136 O152 1.268 . S
C137 O143 1.268 . S
C137 O151 1.268 . S
C138 O144 1.268 . S
C138 O153 1.268 . S
C139 O145 1.268 . S
C139 O149 1.268 . S
C140 O146 1.268 . S
C140 O148 1.268 . S
C141 O147 1.268 . S
C141 O150 1.268 . S
O142 Sc132 2.100 1_455 S
O142 C136 1.271 . S
O143 Sc133 2.105 . S
O143 C137 1.268 . S
O144 Sc134 2.105 . S
O144 C138 1.268 . S
O145 Sc132 2.105 . S
O145 C139 1.268 . S
O146 Sc134 2.105 1_455 S
O146 C140 1.268 . S
O147 Sc133 2.105 . S
O147 C141 1.268 . S
O148 Sc132 2.105 1_455 S
O148 C140 1.268 . S
O149 Sc133 2.105 . S
O149 C139 1.268 . S
O150 Sc134 2.105 . S
O150 C141 1.268 . S
O151 Sc132 2.105 . S
O151 C137 1.268 . S
O152 Sc134 2.105 1_455 S
O152 C136 1.268 . S
O153 Sc133 2.105 . S
O153 C138 1.268 . S
Sc154 O157 2.025 . S
Sc154 O164 2.105 . S
Sc154 O167 2.105 . S
Sc154 O170 2.105 . S
Sc154 O173 2.105 . S
Sc155 O157 2.025 . S
Sc155 O165 2.105 . S
Sc155 O169 2.105 . S
Sc155 O171 2.105 . S
Sc155 O175 2.105 . S
Sc156 O157 2.025 . S
Sc156 O166 2.105 . S
Sc156 O168 2.105 . S
Sc156 O172 2.105 . S
Sc156 O174 2.105 . S
O157 Sc154 2.025 . S
O157 Sc155 2.025 . S
O157 Sc156 2.025 . S
C158 O164 1.268 . S
C158 O174 1.268 . S
C159 O165 1.268 . S
C159 O173 1.268 . S
C160 O166 1.268 . S
C160 O175 1.268 . S
C161 O167 1.268 . S
C161 O171 1.268 . S
C162 O168 1.268 . S
C162 O170 1.268 . S
C163 O169 1.268 . S
C163 O172 1.268 . S
O164 Sc154 2.105 . S
O164 C158 1.268 . S
O165 Sc155 2.105 . S
O165 C159 1.268 . S
O166 Sc156 2.105 . S
O166 C160 1.268 . S
O167 Sc154 2.105 . S
O167 C161 1.268 . S
O168 Sc156 2.105 . S
O168 C162 1.268 . S
O169 Sc155 2.105 . S
O169 C163 1.268 . S
O170 Sc154 2.105 . S
O170 C162 1.268 . S
O171 Sc155 2.105 . S
O171 C161 1.268 . S
O172 Sc156 2.105 . S
O172 C163 1.268 . S
O173 Sc154 2.105 . S
O173 C159 1.268 . S
O174 Sc156 2.105 . S
O174 C158 1.268 . S
O175 Sc155 2.105 . S
O175 C160 1.268 . S
Sc176 O179 2.025 . S
Sc176 O186 2.100 1_545 S
Sc176 O189 2.105 . S
Sc176 O192 2.105 1_545 S
Sc176 O195 2.105 . S
Sc177 O179 2.025 . S
Sc177 O187 2.105 . S
Sc177 O191 2.105 . S
Sc177 O193 2.105 . S
Sc177 O197 2.105 . S
Sc178 O179 2.025 . S
Sc178 O188 2.105 . S
Sc178 O190 2.105 1_545 S
Sc178 O194 2.105 . S
Sc178 O196 2.105 1_545 S
O179 Sc176 2.025 . S
O179 Sc177 2.025 . S
O179 Sc178 2.025 . S
C180 O186 1.271 . S
C180 O196 1.268 . S
C181 O187 1.268 . S
C181 O195 1.268 . S
C182 O188 1.268 . S
C182 O197 1.268 . S
C183 O189 1.268 . S
C183 O193 1.268 . S
C184 O190 1.268 . S
C184 O192 1.268 . S
C185 O191 1.268 . S
C185 O194 1.268 . S
O186 Sc176 2.100 1_565 S
O186 C180 1.271 . S
O187 Sc177 2.105 . S
O187 C181 1.268 . S
O188 Sc178 2.105 . S
O188 C182 1.268 . S
O189 Sc176 2.105 . S
O189 C183 1.268 . S
O190 Sc178 2.105 1_565 S
O190 C184 1.268 . S
O191 Sc177 2.105 . S
O191 C185 1.268 . S
O192 Sc176 2.105 1_565 S
O192 C184 1.268 . S
O193 Sc177 2.105 . S
O193 C183 1.268 . S
O194 Sc178 2.105 . S
O194 C185 1.268 . S
O195 Sc176 2.105 . S
O195 C181 1.268 . S
O196 Sc178 2.105 1_565 S
O196 C180 1.268 . S
O197 Sc177 2.105 . S
O197 C182 1.268 . S
Sc198 O201 2.025 . S
Sc198 O208 2.105 . S
Sc198 O211 2.105 . S
Sc198 O214 2.105 . S
Sc198 O217 2.105 . S
Sc199 O201 2.025 . S
Sc199 O209 2.105 . S
Sc199 O213 2.105 . S
Sc199 O215 2.105 . S
Sc199 O219 2.105 . S
Sc200 O201 2.025 . S
Sc200 O210 2.105 . S
Sc200 O212 2.105 . S
Sc200 O216 2.105 . S
Sc200 O218 2.105 . S
O201 Sc198 2.025 . S
O201 Sc199 2.025 . S
O201 Sc200 2.025 . S
C202 O208 1.268 . S
C202 O218 1.268 . S
C203 O209 1.268 . S
C203 O217 1.268 . S
C204 O210 1.268 . S
C204 O219 1.268 . S
C205 O211 1.268 . S
C205 O215 1.268 . S
C206 O212 1.268 . S
C206 O214 1.268 . S
C207 O213 1.268 . S
C207 O216 1.268 . S
O208 Sc198 2.105 . S
O208 C202 1.268 . S
O209 Sc199 2.105 . S
O209 C203 1.268 . S
O210 Sc200 2.105 . S
O210 C204 1.268 . S
O211 Sc198 2.105 . S
O211 C205 1.268 . S
O212 Sc200 2.105 . S
O212 C206 1.268 . S
O213 Sc199 2.105 . S
O213 C207 1.268 . S
O214 Sc198 2.105 . S
O214 C206 1.268 . S
O215 Sc199 2.105 . S
O215 C205 1.268 . S
O216 Sc200 2.105 . S
O216 C207 1.268 . S
O217 Sc198 2.105 . S
O217 C203 1.268 . S
O218 Sc200 2.105 . S
O218 C202 1.268 . S
O219 Sc199 2.105 . S
O219 C204 1.268 . S
Sc220 O223 2.025 . S
Sc220 O230 2.105 1_565 S
Sc220 O233 2.105 . S
Sc220 O236 2.105 1_565 S
Sc220 O239 2.105 . S
Sc221 O223 2.025 . S
Sc221 O231 2.105 . S
Sc221 O235 2.105 . S
Sc221 O237 2.105 . S
Sc221 O241 2.105 . S
Sc222 O223 2.025 . S
Sc222 O232 2.105 . S
Sc222 O234 2.100 1_565 S
Sc222 O238 2.105 . S
Sc222 O240 2.105 1_565 S
O223 Sc220 2.025 . S
O223 Sc221 2.025 . S
O223 Sc222 2.025 . S
C224 O230 1.268 . S
C224 O240 1.268 . S
C225 O231 1.268 . S
C225 O239 1.268 . S
C226 O232 1.268 . S
C226 O241 1.268 . S
C227 O233 1.268 . S
C227 O237 1.268 . S
C228 O234 1.271 . S
C228 O236 1.268 . S
C229 O235 1.268 . S
C229 O238 1.268 . S
O230 Sc220 2.105 1_545 S
O230 C224 1.268 . S
O231 Sc221 2.105 . S
O231 C225 1.268 . S
O232 Sc222 2.105 . S
O232 C226 1.268 . S
O233 Sc220 2.105 . S
O233 C227 1.268 . S
O234 Sc222 2.100 1_545 S
O234 C228 1.271 . S
O235 Sc221 2.105 . S
O235 C229 1.268 . S
O236 Sc220 2.105 1_545 S
O236 C228 1.268 . S
O237 Sc221 2.105 . S
O237 C227 1.268 . S
O238 Sc222 2.105 . S
O238 C229 1.268 . S
O239 Sc220 2.105 . S
O239 C225 1.268 . S
O240 Sc222 2.105 1_545 S
O240 C224 1.268 . S
O241 Sc221 2.105 . S
O241 C226 1.268 . S
Sc242 O245 2.025 . S
Sc242 O252 2.105 . S
Sc242 O255 2.105 . S
Sc242 O258 2.105 . S
Sc242 O261 2.105 . S
Sc243 O245 2.025 . S
Sc243 O253 2.105 . S
Sc243 O257 2.105 . S
Sc243 O259 2.105 . S
Sc243 O263 2.105 . S
Sc244 O245 2.025 . S
Sc244 O254 2.105 . S
Sc244 O256 2.105 . S
Sc244 O260 2.105 . S
Sc244 O262 2.105 . S
O245 Sc242 2.025 . S
O245 Sc243 2.025 . S
O245 Sc244 2.025 . S
C246 O252 1.268 . S
C246 O262 1.268 . S
C247 O253 1.268 . S
C247 O261 1.268 . S
C248 O254 1.268 . S
C248 O263 1.268 . S
C249 O255 1.268 . S
C249 O259 1.268 . S
C250 O256 1.268 . S
C250 O258 1.268 . S
C251 O257 1.268 . S
C251 O260 1.268 . S
O252 Sc242 2.105 . S
O252 C246 1.268 . S
O253 Sc243 2.105 . S
O253 C247 1.268 . S
O254 Sc244 2.105 . S
O254 C248 1.268 . S
O255 Sc242 2.105 . S
O255 C249 1.268 . S
O256 Sc244 2.105 . S
O256 C250 1.268 . S
O257 Sc243 2.105 . S
O257 C251 1.268 . S
O258 Sc242 2.105 . S
O258 C250 1.268 . S
O259 Sc243 2.105 . S
O259 C249 1.268 . S
O260 Sc244 2.105 . S
O260 C251 1.268 . S
O261 Sc242 2.105 . S
O261 C247 1.268 . S
O262 Sc244 2.105 . S
O262 C246 1.268 . S
O263 Sc243 2.105 . S
O263 C248 1.268 . S
Sc264 O267 2.025 . S
Sc264 O274 2.105 . S
Sc264 O277 2.105 . S
Sc264 O280 2.105 . S
Sc264 O283 2.105 . S
Sc265 O267 2.025 . S
Sc265 O275 2.105 . S
Sc265 O279 2.105 . S
Sc265 O281 2.105 . S
Sc265 O285 2.105 . S
Sc266 O267 2.025 . S
Sc266 O276 2.105 . S
Sc266 O278 2.105 . S
Sc266 O282 2.105 . S
Sc266 O284 2.105 . S
O267 Sc264 2.025 . S
O267 Sc265 2.025 . S
O267 Sc266 2.025 . S
C268 O274 1.268 . S
C268 O284 1.268 . S
C269 O275 1.268 . S
C269 O283 1.268 . S
C270 O276 1.268 . S
C270 O285 1.268 . S
C271 O277 1.268 . S
C271 O281 1.268 . S
C272 O278 1.268 . S
C272 O280 1.268 . S
C273 O279 1.268 . S
C273 O282 1.268 . S
O274 Sc264 2.105 . S
O274 C268 1.268 . S
O275 Sc265 2.105 . S
O275 C269 1.268 . S
O276 Sc266 2.105 . S
O276 C270 1.268 . S
O277 Sc264 2.105 . S
O277 C271 1.268 . S
O278 Sc266 2.105 . S
O278 C272 1.268 . S
O279 Sc265 2.105 . S
O279 C273 1.268 . S
O280 Sc264 2.105 . S
O280 C272 1.268 . S
O281 Sc265 2.105 . S
O281 C271 1.268 . S
O282 Sc266 2.105 . S
O282 C273 1.268 . S
O283 Sc264 2.105 . S
O283 C269 1.268 . S
O284 Sc266 2.105 . S
O284 C268 1.268 . S
O285 Sc265 2.105 . S
O285 C270 1.268 . S
Sc286 O289 2.025 . S
Sc286 O296 2.105 . S
Sc286 O299 2.105 . S
Sc286 O302 2.105 . S
Sc286 O305 2.105 . S
Sc287 O289 2.025 . S
Sc287 O297 2.105 . S
Sc287 O301 2.105 . S
Sc287 O303 2.105 . S
Sc287 O307 2.105 . S
Sc288 O289 2.025 . S
Sc288 O298 2.105 . S
Sc288 O300 2.105 . S
Sc288 O304 2.105 . S
Sc288 O306 2.105 . S
O289 Sc286 2.025 . S
O289 Sc287 2.025 . S
O289 Sc288 2.025 . S
C290 O296 1.268 . S
C290 O306 1.268 . S
C291 O297 1.268 . S
C291 O305 1.268 . S
C292 O298 1.268 . S
C292 O307 1.268 . S
C293 O299 1.268 . S
C293 O303 1.268 . S
C294 O300 1.268 . S
C294 O302 1.268 . S
C295 O301 1.268 . S
C295 O304 1.268 . S
O296 Sc286 2.105 . S
O296 C290 1.268 . S
O297 Sc287 2.105 . S
O297 C291 1.268 . S
O298 Sc288 2.105 . S
O298 C292 1.268 . S
O299 Sc286 2.105 . S
O299 C293 1.268 . S
O300 Sc288 2.105 . S
O300 C294 1.268 . S
O301 Sc287 2.105 . S
O301 C295 1.268 . S
O302 Sc286 2.105 . S
O302 C294 1.268 . S
O303 Sc287 2.105 . S
O303 C293 1.268 . S
O304 Sc288 2.105 . S
O304 C295 1.268 . S
O305 Sc286 2.105 . S
O305 C291 1.268 . S
O306 Sc288 2.105 . S
O306 C290 1.268 . S
O307 Sc287 2.105 . S
O307 C292 1.268 . S
Sc308 O311 2.025 . S
Sc308 O318 2.105 . S
Sc308 O321 2.105 . S
Sc308 O324 2.105 . S
Sc308 O327 2.105 . S
Sc309 O311 2.025 . S
Sc309 O319 2.105 . S
Sc309 O323 2.105 . S
Sc309 O325 2.105 . S
Sc309 O329 2.105 . S
Sc310 O311 2.025 . S
Sc310 O320 2.105 . S
Sc310 O322 2.105 . S
Sc310 O326 2.105 . S
Sc310 O328 2.105 . S
O311 Sc308 2.025 . S
O311 Sc309 2.025 . S
O311 Sc310 2.025 . S
C312 O318 1.268 . S
C312 O328 1.268 . S
C313 O319 1.268 . S
C313 O327 1.268 . S
C314 O320 1.268 . S
C314 O329 1.268 . S
C315 O321 1.268 . S
C315 O325 1.268 . S
C316 O322 1.268 . S
C316 O324 1.268 . S
C317 O323 1.268 . S
C317 O326 1.268 . S
O318 Sc308 2.105 . S
O318 C312 1.268 . S
O319 Sc309 2.105 . S
O319 C313 1.268 . S
O320 Sc310 2.105 . S
O320 C314 1.268 . S
O321 Sc308 2.105 . S
O321 C315 1.268 . S
O322 Sc310 2.105 . S
O322 C316 1.268 . S
O323 Sc309 2.105 . S
O323 C317 1.268 . S
O324 Sc308 2.105 . S
O324 C316 1.268 . S
O325 Sc309 2.105 . S
O325 C315 1.268 . S
O326 Sc310 2.105 . S
O326 C317 1.268 . S
O327 Sc308 2.105 . S
O327 C313 1.268 . S
O328 Sc310 2.105 . S
O328 C312 1.268 . S
O329 Sc309 2.105 . S
O329 C314 1.268 . S
Sc330 O333 2.025 . S
Sc330 O340 2.105 . S
Sc330 O343 2.105 . S
Sc330 O346 2.105 . S
Sc330 O349 2.105 . S
Sc331 O333 2.025 . S
Sc331 O341 2.105 . S
Sc331 O345 2.105 . S
Sc331 O347 2.105 . S
Sc331 O351 2.105 . S
Sc332 O333 2.025 . S
Sc332 O342 2.105 . S
Sc332 O344 2.105 . S
Sc332 O348 2.105 . S
Sc332 O350 2.105 . S
O333 Sc330 2.025 . S
O333 Sc331 2.025 . S
O333 Sc332 2.025 . S
C334 O340 1.268 . S
C334 O350 1.268 . S
C335 O341 1.268 . S
C335 O349 1.268 . S
C336 O342 1.268 . S
C336 O351 1.268 . S
C337 O343 1.268 . S
C337 O347 1.268 . S
C338 O344 1.268 . S
C338 O346 1.268 . S
C339 O345 1.268 . S
C339 O348 1.268 . S
O340 Sc330 2.105 . S
O340 C334 1.268 . S
O341 Sc331 2.105 . S
O341 C335 1.268 . S
O342 Sc332 2.105 . S
O342 C336 1.268 . S
O343 Sc330 2.105 . S
O343 C337 1.268 . S
O344 Sc332 2.105 . S
O344 C338 1.268 . S
O345 Sc331 2.105 . S
O345 C339 1.268 . S
O346 Sc330 2.105 . S
O346 C338 1.268 . S
O347 Sc331 2.105 . S
O347 C337 1.268 . S
O348 Sc332 2.105 . S
O348 C339 1.268 . S
O349 Sc330 2.105 . S
O349 C335 1.268 . S
O350 Sc332 2.105 . S
O350 C334 1.268 . S
O351 Sc331 2.105 . S
O351 C336 1.268 . S
Sc352 O355 2.025 . S
Sc352 O362 2.105 1_554 S
Sc352 O365 2.105 . S
Sc352 O368 2.105 1_554 S
Sc352 O371 2.105 . S
Sc353 O355 2.025 . S
Sc353 O363 2.105 . S
Sc353 O367 2.105 . S
Sc353 O369 2.105 . S
Sc353 O373 2.105 . S
Sc354 O355 2.025 . S
Sc354 O364 2.105 . S
Sc354 O366 2.100 1_554 S
Sc354 O370 2.105 . S
Sc354 O372 2.105 1_554 S
O355 Sc352 2.025 . S
O355 Sc353 2.025 . S
O355 Sc354 2.025 . S
C356 O362 1.268 . S
C356 O372 1.268 . S
C357 O363 1.268 . S
C357 O371 1.268 . S
C358 O364 1.268 . S
C358 O373 1.268 . S
C359 O365 1.268 . S
C359 O369 1.268 . S
C360 O366 1.271 . S
C360 O368 1.268 . S
C361 O367 1.268 . S
C361 O370 1.268 . S
O362 Sc352 2.105 1_556 S
O362 C356 1.268 . S
O363 Sc353 2.105 . S
O363 C357 1.268 . S
O364 Sc354 2.105 . S
O364 C358 1.268 . S
O365 Sc352 2.105 . S
O365 C359 1.268 . S
O366 Sc354 2.100 1_556 S
O366 C360 1.271 . S
O367 Sc353 2.105 . S
O367 C361 1.268 . S
O368 Sc352 2.105 1_556 S
O368 C360 1.268 . S
O369 Sc353 2.105 . S
O369 C359 1.268 . S
O370 Sc354 2.105 . S
O370 C361 1.268 . S
O371 Sc352 2.105 . S
O371 C357 1.268 . S
O372 Sc354 2.105 1_556 S
O372 C356 1.268 . S
O373 Sc353 2.105 . S
O373 C358 1.268 . S
Sc374 O377 2.025 . S
Sc374 O384 2.100 1_556 S
Sc374 O387 2.105 . S
Sc374 O390 2.105 1_556 S
Sc374 O393 2.105 . S
Sc375 O377 2.025 . S
Sc375 O385 2.105 . S
Sc375 O389 2.105 . S
Sc375 O391 2.105 . S
Sc375 O395 2.105 . S
Sc376 O377 2.025 . S
Sc376 O386 2.105 . S
Sc376 O388 2.105 1_556 S
Sc376 O392 2.105 . S
Sc376 O394 2.105 1_556 S
O377 Sc374 2.025 . S
O377 Sc375 2.025 . S
O377 Sc376 2.025 . S
C378 O384 1.271 . S
C378 O394 1.268 . S
C379 O385 1.268 . S
C379 O393 1.268 . S
C380 O386 1.268 . S
C380 O395 1.268 . S
C381 O387 1.268 . S
C381 O391 1.268 . S
C382 O388 1.268 . S
C382 O390 1.268 . S
C383 O389 1.268 . S
C383 O392 1.268 . S
O384 Sc374 2.100 1_554 S
O384 C378 1.271 . S
O385 Sc375 2.105 . S
O385 C379 1.268 . S
O386 Sc376 2.105 . S
O386 C380 1.268 . S
O387 Sc374 2.105 . S
O387 C381 1.268 . S
O388 Sc376 2.105 1_554 S
O388 C382 1.268 . S
O389 Sc375 2.105 . S
O389 C383 1.268 . S
O390 Sc374 2.105 1_554 S
O390 C382 1.268 . S
O391 Sc375 2.105 . S
O391 C381 1.268 . S
O392 Sc376 2.105 . S
O392 C383 1.268 . S
O393 Sc374 2.105 . S
O393 C379 1.268 . S
O394 Sc376 2.105 1_554 S
O394 C378 1.268 . S
O395 Sc375 2.105 . S
O395 C380 1.268 . S
Sc396 O399 2.025 . S
Sc396 O406 2.105 . S
Sc396 O409 2.105 . S
Sc396 O412 2.105 . S
Sc396 O415 2.105 . S
Sc397 O399 2.025 . S
Sc397 O407 2.105 . S
Sc397 O411 2.105 . S
Sc397 O413 2.105 . S
Sc397 O417 2.105 . S
Sc398 O399 2.025 . S
Sc398 O408 2.105 . S
Sc398 O410 2.105 . S
Sc398 O414 2.105 . S
Sc398 O416 2.105 . S
O399 Sc396 2.025 . S
O399 Sc397 2.025 . S
O399 Sc398 2.025 . S
C400 O406 1.268 . S
C400 O416 1.268 . S
C401 O407 1.268 . S
C401 O415 1.268 . S
C402 O408 1.268 . S
C402 O417 1.268 . S
C403 O409 1.268 . S
C403 O413 1.268 . S
C404 O410 1.268 . S
C404 O412 1.268 . S
C405 O411 1.268 . S
C405 O414 1.268 . S
O406 Sc396 2.105 . S
O406 C400 1.268 . S
O407 Sc397 2.105 . S
O407 C401 1.268 . S
O408 Sc398 2.105 . S
O408 C402 1.268 . S
O409 Sc396 2.105 . S
O409 C403 1.268 . S
O410 Sc398 2.105 . S
O410 C404 1.268 . S
O411 Sc397 2.105 . S
O411 C405 1.268 . S
O412 Sc396 2.105 . S
O412 C404 1.268 . S
O413 Sc397 2.105 . S
O413 C403 1.268 . S
O414 Sc398 2.105 . S
O414 C405 1.268 . S
O415 Sc396 2.105 . S
O415 C401 1.268 . S
O416 Sc398 2.105 . S
O416 C400 1.268 . S
O417 Sc397 2.105 . S
O417 C402 1.268 . S
Sc418 O421 2.025 . S
Sc418 O428 2.105 . S
Sc418 O431 2.105 . S
Sc418 O434 2.105 . S
Sc418 O437 2.105 . S
Sc419 O421 2.025 . S
Sc419 O429 2.105 . S
Sc419 O433 2.105 . S
Sc419 O435 2.105 . S
Sc419 O439 2.105 . S
Sc420 O421 2.025 . S
Sc420 O430 2.105 . S
Sc420 O432 2.105 . S
Sc420 O436 2.105 . S
Sc420 O438 2.105 . S
O421 Sc418 2.025 . S
O421 Sc419 2.025 . S
O421 Sc420 2.025 . S
C422 O428 1.268 . S
C422 O438 1.268 . S
C423 O429 1.268 . S
C423 O437 1.268 . S
C424 O430 1.268 . S
C424 O439 1.268 . S
C425 O431 1.268 . S
C425 O435 1.268 . S
C426 O432 1.268 . S
C426 O434 1.268 . S
C427 O433 1.268 . S
C427 O436 1.268 . S
O428 Sc418 2.105 . S
O428 C422 1.268 . S
O429 Sc419 2.105 . S
O429 C423 1.268 . S
O430 Sc420 2.105 . S
O430 C424 1.268 . S
O431 Sc418 2.105 . S
O431 C425 1.268 . S
O432 Sc420 2.105 . S
O432 C426 1.268 . S
O433 Sc419 2.105 . S
O433 C427 1.268 . S
O434 Sc418 2.105 . S
O434 C426 1.268 . S
O435 Sc419 2.105 . S
O435 C425 1.268 . S
O436 Sc420 2.105 . S
O436 C427 1.268 . S
O437 Sc418 2.105 . S
O437 C423 1.268 . S
O438 Sc420 2.105 . S
O438 C422 1.268 . S
O439 Sc419 2.105 . S
O439 C424 1.268 . S
Sc440 O443 2.025 . S
Sc440 O450 2.105 . S
Sc440 O453 2.105 . S
Sc440 O456 2.105 . S
Sc440 O459 2.105 . S
Sc441 O443 2.025 . S
Sc441 O451 2.105 . S
Sc441 O455 2.105 . S
Sc441 O457 2.105 . S
Sc441 O461 2.105 . S
Sc442 O443 2.025 . S
Sc442 O452 2.105 . S
Sc442 O454 2.105 . S
Sc442 O458 2.105 . S
Sc442 O460 2.105 . S
O443 Sc440 2.025 . S
O443 Sc441 2.025 . S
O443 Sc442 2.025 . S
C444 O450 1.268 . S
C444 O460 1.268 . S
C445 O451 1.268 . S
C445 O459 1.268 . S
C446 O452 1.268 . S
C446 O461 1.268 . S
C447 O453 1.268 . S
C447 O457 1.268 . S
C448 O454 1.268 . S
C448 O456 1.268 . S
C449 O455 1.268 . S
C449 O458 1.268 . S
O450 Sc440 2.105 . S
O450 C444 1.268 . S
O451 Sc441 2.105 . S
O451 C445 1.268 . S
O452 Sc442 2.105 . S
O452 C446 1.268 . S
O453 Sc440 2.105 . S
O453 C447 1.268 . S
O454 Sc442 2.105 . S
O454 C448 1.268 . S
O455 Sc441 2.105 . S
O455 C449 1.268 . S
O456 Sc440 2.105 . S
O456 C448 1.268 . S
O457 Sc441 2.105 . S
O457 C447 1.268 . S
O458 Sc442 2.105 . S
O458 C449 1.268 . S
O459 Sc440 2.105 . S
O459 C445 1.268 . S
O460 Sc442 2.105 . S
O460 C444 1.268 . S
O461 Sc441 2.105 . S
O461 C446 1.268 . S
Sc462 O465 2.025 . S
Sc462 O472 2.105 . S
Sc462 O475 2.105 . S
Sc462 O478 2.105 . S
Sc462 O481 2.105 . S
Sc463 O465 2.025 . S
Sc463 O473 2.105 . S
Sc463 O477 2.105 . S
Sc463 O479 2.105 . S
Sc463 O483 2.105 . S
Sc464 O465 2.025 . S
Sc464 O474 2.105 . S
Sc464 O476 2.105 . S
Sc464 O480 2.105 . S
Sc464 O482 2.105 . S
O465 Sc462 2.025 . S
O465 Sc463 2.025 . S
O465 Sc464 2.025 . S
C466 O472 1.268 . S
C466 O482 1.268 . S
C467 O473 1.268 . S
C467 O481 1.268 . S
C468 O474 1.268 . S
C468 O483 1.268 . S
C469 O475 1.268 . S
C469 O479 1.268 . S
C470 O476 1.268 . S
C470 O478 1.268 . S
C471 O477 1.268 . S
C471 O480 1.268 . S
O472 Sc462 2.105 . S
O472 C466 1.268 . S
O473 Sc463 2.105 . S
O473 C467 1.268 . S
O474 Sc464 2.105 . S
O474 C468 1.268 . S
O475 Sc462 2.105 . S
O475 C469 1.268 . S
O476 Sc464 2.105 . S
O476 C470 1.268 . S
O477 Sc463 2.105 . S
O477 C471 1.268 . S
O478 Sc462 2.105 . S
O478 C470 1.268 . S
O479 Sc463 2.105 . S
O479 C469 1.268 . S
O480 Sc464 2.105 . S
O480 C471 1.268 . S
O481 Sc462 2.105 . S
O481 C467 1.268 . S
O482 Sc464 2.105 . S
O482 C466 1.268 . S
O483 Sc463 2.105 . S
O483 C468 1.268 . S
Sc484 O487 2.025 . S
Sc484 O494 2.105 . S
Sc484 O497 2.105 . S
Sc484 O500 2.105 . S
Sc484 O503 2.105 . S
Sc485 O487 2.025 . S
Sc485 O495 2.105 . S
Sc485 O499 2.105 . S
Sc485 O501 2.105 . S
Sc485 O505 2.105 . S
Sc486 O487 2.025 . S
Sc486 O496 2.105 . S
Sc486 O498 2.105 . S
Sc486 O502 2.105 . S
Sc486 O504 2.105 . S
O487 Sc484 2.025 . S
O487 Sc485 2.025 . S
O487 Sc486 2.025 . S
C488 O494 1.268 . S
C488 O504 1.268 . S
C489 O495 1.268 . S
C489 O503 1.268 . S
C490 O496 1.268 . S
C490 O505 1.268 . S
C491 O497 1.268 . S
C491 O501 1.268 . S
C492 O498 1.268 . S
C492 O500 1.268 . S
C493 O499 1.268 . S
C493 O502 1.268 . S
O494 Sc484 2.105 . S
O494 C488 1.268 . S
O495 Sc485 2.105 . S
O495 C489 1.268 . S
O496 Sc486 2.105 . S
O496 C490 1.268 . S
O497 Sc484 2.105 . S
O497 C491 1.268 . S
O498 Sc486 2.105 . S
O498 C492 1.268 . S
O499 Sc485 2.105 . S
O499 C493 1.268 . S
O500 Sc484 2.105 . S
O500 C492 1.268 . S
O501 Sc485 2.105 . S
O501 C491 1.268 . S
O502 Sc486 2.105 . S
O502 C493 1.268 . S
O503 Sc484 2.105 . S
O503 C489 1.268 . S
O504 Sc486 2.105 . S
O504 C488 1.268 . S
O505 Sc485 2.105 . S
O505 C490 1.268 . S
Sc506 O509 2.025 . S
Sc506 O516 2.105 . S
Sc506 O519 2.105 . S
Sc506 O522 2.105 . S
Sc506 O525 2.105 . S
Sc507 O509 2.025 . S
Sc507 O517 2.105 . S
Sc507 O521 2.105 . S
Sc507 O523 2.105 . S
Sc507 O527 2.105 . S
Sc508 O509 2.025 . S
Sc508 O518 2.105 . S
Sc508 O520 2.105 . S
Sc508 O524 2.105 . S
Sc508 O526 2.105 . S
O509 Sc506 2.025 . S
O509 Sc507 2.025 . S
O509 Sc508 2.025 . S
C510 O516 1.268 . S
C510 O526 1.268 . S
C511 O517 1.268 . S
C511 O525 1.268 . S
C512 O518 1.268 . S
C512 O527 1.268 . S
C513 O519 1.268 . S
C513 O523 1.268 . S
C514 O520 1.268 . S
C514 O522 1.268 . S
C515 O521 1.268 . S
C515 O524 1.268 . S
O516 Sc506 2.105 . S
O516 C510 1.268 . S
O517 Sc507 2.105 . S
O517 C511 1.268 . S
O518 Sc508 2.105 . S
O518 C512 1.268 . S
O519 Sc506 2.105 . S
O519 C513 1.268 . S
O520 Sc508 2.105 . S
O520 C514 1.268 . S
O521 Sc507 2.105 . S
O521 C515 1.268 . S
O522 Sc506 2.105 . S
O522 C514 1.268 . S
O523 Sc507 2.105 . S
O523 C513 1.268 . S
O524 Sc508 2.105 . S
O524 C515 1.268 . S
O525 Sc506 2.105 . S
O525 C511 1.268 . S
O526 Sc508 2.105 . S
O526 C510 1.268 . S
O527 Sc507 2.105 . S
O527 C512 1.268 . S
C528 C529 1.387 . S
C528 H532 0.950 . S
C528 C537 1.390 . S
C529 C528 1.387 . S
C529 C531 1.387 . S
H530 C537 0.950 . S
C531 C529 1.387 . S
C531 C533 1.390 . S
C531 H535 0.950 . S
H532 C528 0.950 . S
C533 C531 1.390 . S
C533 C534 1.387 . S
C533 H536 0.950 . S
C534 C533 1.387 . S
C534 C537 1.387 . S
H535 C531 0.950 . S
H536 C533 0.950 . S
C537 C528 1.390 . S
C537 H530 0.950 . S
C537 C534 1.387 . S
C538 C539 1.387 . S
C538 H542 0.950 . S
C538 C547 1.390 . S
C539 C538 1.387 . S
C539 C541 1.387 . S
H540 C547 0.950 . S
C541 C539 1.387 . S
C541 C543 1.390 . S
C541 H545 0.950 . S
H542 C538 0.950 . S
C543 C541 1.390 . S
C543 C544 1.387 . S
C543 H546 0.950 . S
C544 C543 1.387 . S
C544 C547 1.387 . S
H545 C541 0.950 . S
H546 C543 0.950 . S
C547 C538 1.390 . S
C547 H540 0.950 . S
C547 C544 1.387 . S
C548 C549 1.387 . S
C548 H552 0.950 . S
C548 C557 1.390 . S
C549 C548 1.387 . S
C549 C551 1.387 . S
H550 C557 0.950 . S
C551 C549 1.387 . S
C551 C553 1.390 . S
C551 H555 0.950 . S
H552 C548 0.950 . S
C553 C551 1.390 . S
C553 C554 1.387 . S
C553 H556 0.950 . S
C554 C553 1.387 . S
C554 C557 1.387 . S
H555 C551 0.950 . S
H556 C553 0.950 . S
C557 C548 1.390 . S
C557 H550 0.950 . S
C557 C554 1.387 . S
C558 C559 1.387 . S
C558 H562 0.950 . S
C558 C567 1.390 . S
C559 C558 1.387 . S
C559 C561 1.387 . S
H560 C567 0.950 . S
C561 C559 1.387 . S
C561 C563 1.390 . S
C561 H565 0.950 . S
H562 C558 0.950 . S
C563 C561 1.390 . S
C563 C564 1.387 . S
C563 H566 0.950 . S
C564 C563 1.387 . S
C564 C567 1.387 . S
H565 C561 0.950 . S
H566 C563 0.950 . S
C567 C558 1.390 . S
C567 H560 0.950 . S
C567 C564 1.387 . S
C568 C569 1.387 . S
C568 H572 0.950 . S
C568 C577 1.390 . S
C569 C568 1.387 . S
C569 C571 1.387 . S
H570 C577 0.950 . S
C571 C569 1.387 . S
C571 C573 1.390 . S
C571 H575 0.950 . S
H572 C568 0.950 . S
C573 C571 1.390 . S
C573 C574 1.387 . S
C573 H576 0.950 . S
C574 C573 1.387 . S
C574 C577 1.387 . S
H575 C571 0.950 . S
H576 C573 0.950 . S
C577 C568 1.390 . S
C577 H570 0.950 . S
C577 C574 1.387 . S
C578 C579 1.387 . S
C578 H582 0.950 . S
C578 C587 1.390 . S
C579 C578 1.387 . S
C579 C581 1.387 . S
H580 C587 0.950 . S
C581 C579 1.387 . S
C581 C583 1.390 . S
C581 H585 0.950 . S
H582 C578 0.950 . S
C583 C581 1.390 . S
C583 C584 1.387 . S
C583 H586 0.950 . S
C584 C583 1.387 . S
C584 C587 1.387 . S
H585 C581 0.950 . S
H586 C583 0.950 . S
C587 C578 1.390 . S
C587 H580 0.950 . S
C587 C584 1.387 . S
C588 C589 1.387 . S
C588 H592 0.950 . S
C588 C597 1.390 . S
C589 C588 1.387 . S
C589 C591 1.387 . S
H590 C597 0.950 . S
C591 C589 1.387 . S
C591 C593 1.390 . S
C591 H595 0.950 . S
H592 C588 0.950 . S
C593 C591 1.390 . S
C593 C594 1.387 . S
C593 H596 0.950 . S
C594 C593 1.387 . S
C594 C597 1.387 . S
H595 C591 0.950 . S
H596 C593 0.950 . S
C597 C588 1.390 . S
C597 H590 0.950 . S
C597 C594 1.387 . S
C598 C599 1.387 . S
C598 H602 0.950 . S
C598 C607 1.390 . S
C599 C598 1.387 . S
C599 C601 1.387 . S
H600 C607 0.950 . S
C601 C599 1.387 . S
C601 C603 1.390 . S
C601 H605 0.950 . S
H602 C598 0.950 . S
C603 C601 1.390 . S
C603 C604 1.387 . S
C603 H606 0.950 . S
C604 C603 1.387 . S
C604 C607 1.387 . S
H605 C601 0.950 . S
H606 C603 0.950 . S
C607 C598 1.390 . S
C607 H600 0.950 . S
C607 C604 1.387 . S
C608 C609 1.387 . S
C608 H612 0.950 . S
C608 C617 1.390 . S
C609 C608 1.387 . S
C609 C611 1.387 . S
H610 C617 0.950 . S
C611 C609 1.387 . S
C611 C613 1.390 . S
C611 H615 0.950 . S
H612 C608 0.950 . S
C613 C611 1.390 . S
C613 C614 1.387 . S
C613 H616 0.950 . S
C614 C613 1.387 . S
C614 C617 1.387 . S
H615 C611 0.950 . S
H616 C613 0.950 . S
C617 C608 1.390 . S
C617 H610 0.950 . S
C617 C614 1.387 . S
C618 C619 1.387 . S
C618 H622 0.950 . S
C618 C627 1.390 . S
C619 C618 1.387 . S
C619 C621 1.387 . S
H620 C627 0.950 . S
C621 C619 1.387 . S
C621 C623 1.390 . S
C621 H625 0.950 . S
H622 C618 0.950 . S
C623 C621 1.390 . S
C623 C624 1.387 . S
C623 H626 0.950 . S
C624 C623 1.387 . S
C624 C627 1.387 . S
H625 C621 0.950 . S
H626 C623 0.950 . S
C627 C618 1.390 . S
C627 H620 0.950 . S
C627 C624 1.387 . S
C628 C629 1.387 . S
C628 H632 0.950 . S
C628 C637 1.390 . S
C629 C628 1.387 . S
C629 C631 1.387 . S
H630 C637 0.950 . S
C631 C629 1.387 . S
C631 C633 1.390 . S
C631 H635 0.950 . S
H632 C628 0.950 . S
C633 C631 1.390 . S
C633 C634 1.387 . S
C633 H636 0.950 . S
C634 C633 1.387 . S
C634 C637 1.387 . S
H635 C631 0.950 . S
H636 C633 0.950 . S
C637 C628 1.390 . S
C637 H630 0.950 . S
C637 C634 1.387 . S
C638 C639 1.387 . S
C638 H642 0.950 . S
C638 C647 1.390 . S
C639 C638 1.387 . S
C639 C641 1.387 . S
H640 C647 0.950 . S
C641 C639 1.387 . S
C641 C643 1.390 . S
C641 H645 0.950 . S
H642 C638 0.950 . S
C643 C641 1.390 . S
C643 C644 1.387 . S
C643 H646 0.950 . S
C644 C643 1.387 . S
C644 C647 1.387 . S
H645 C641 0.950 . S
H646 C643 0.950 . S
C647 C638 1.390 . S
C647 H640 0.950 . S
C647 C644 1.387 . S
C648 C649 1.387 . S
C648 H652 0.950 . S
C648 C657 1.390 . S
C649 C648 1.387 . S
C649 C651 1.387 . S
H650 C657 0.950 . S
C651 C649 1.387 . S
C651 C653 1.390 . S
C651 H655 0.950 . S
H652 C648 0.950 . S
C653 C651 1.390 . S
C653 C654 1.387 . S
C653 H656 0.950 . S
C654 C653 1.387 . S
C654 C657 1.387 . S
H655 C651 0.950 . S
H656 C653 0.950 . S
C657 C648 1.390 . S
C657 H650 0.950 . S
C657 C654 1.387 . S
C658 C659 1.387 . S
C658 H662 0.950 . S
C658 C667 1.390 . S
C659 C658 1.387 . S
C659 C661 1.387 . S
H660 C667 0.950 . S
C661 C659 1.387 . S
C661 C663 1.390 . S
C661 H665 0.950 . S
H662 C658 0.950 . S
C663 C661 1.390 . S
C663 C664 1.387 . S
C663 H666 0.950 . S
C664 C663 1.387 . S
C664 C667 1.387 . S
H665 C661 0.950 . S
H666 C663 0.950 . S
C667 C658 1.390 . S
C667 H660 0.950 . S
C667 C664 1.387 . S
C668 C669 1.387 . S
C668 H672 0.950 . S
C668 C677 1.390 . S
C669 C668 1.387 . S
C669 C671 1.387 . S
H670 C677 0.950 . S
C671 C669 1.387 . S
C671 C673 1.390 . S
C671 H675 0.950 . S
H672 C668 0.950 . S
C673 C671 1.390 . S
C673 C674 1.387 . S
C673 H676 0.950 . S
C674 C673 1.387 . S
C674 C677 1.387 . S
H675 C671 0.950 . S
H676 C673 0.950 . S
C677 C668 1.390 . S
C677 H670 0.950 . S
C677 C674 1.387 . S
C678 C679 1.387 . S
C678 H682 0.950 . S
C678 C687 1.390 . S
C679 C678 1.387 . S
C679 C681 1.387 . S
H680 C687 0.950 . S
C681 C679 1.387 . S
C681 C683 1.390 . S
C681 H685 0.950 . S
H682 C678 0.950 . S
C683 C681 1.390 . S
C683 C684 1.387 . S
C683 H686 0.950 . S
C684 C683 1.387 . S
C684 C687 1.387 . S
H685 C681 0.950 . S
H686 C683 0.950 . S
C687 C678 1.390 . S
C687 H680 0.950 . S
C687 C684 1.387 . S
C688 C689 1.387 . S
C688 H692 0.950 1_545 S
C688 C697 1.390 . S
C689 C688 1.387 . S
C689 C691 1.387 . S
H690 C697 0.950 . S
C691 C689 1.387 . S
C691 C693 1.390 . S
C691 H695 0.950 . S
H692 C688 0.950 1_565 S
C693 C691 1.390 . S
C693 C694 1.387 . S
C693 H696 0.950 . S
C694 C693 1.387 . S
C694 C697 1.387 . S
H695 C691 0.950 . S
H696 C693 0.950 . S
C697 C688 1.390 . S
C697 H690 0.950 . S
C697 C694 1.387 . S
C698 C699 1.387 . S
C698 H702 0.950 . S
C698 C707 1.390 . S
C699 C698 1.387 . S
C699 C701 1.387 . S
H700 C707 0.950 . S
C701 C699 1.387 . S
C701 C703 1.390 . S
C701 H705 0.950 . S
H702 C698 0.950 . S
C703 C701 1.390 . S
C703 C704 1.387 . S
C703 H706 0.950 . S
C704 C703 1.387 . S
C704 C707 1.387 . S
H705 C701 0.950 . S
H706 C703 0.950 . S
C707 C698 1.390 . S
C707 H700 0.950 . S
C707 C704 1.387 . S
C708 C709 1.387 . S
C708 H712 0.950 . S
C708 C717 1.390 . S
C709 C708 1.387 . S
C709 C711 1.387 . S
H710 C717 0.950 1_545 S
C711 C709 1.387 . S
C711 C713 1.390 . S
C711 H715 0.950 . S
H712 C708 0.950 . S
C713 C711 1.390 . S
C713 C714 1.387 . S
C713 H716 0.950 . S
C714 C713 1.387 . S
C714 C717 1.387 . S
H715 C711 0.950 . S
H716 C713 0.950 . S
C717 C708 1.390 . S
C717 H710 0.950 1_565 S
C717 C714 1.387 . S
C718 C719 1.387 . S
C718 H722 0.950 . S
C718 C727 1.390 . S
C719 C718 1.387 . S
C719 C721 1.387 . S
H720 C727 0.950 . S
C721 C719 1.387 . S
C721 C723 1.390 . S
C721 H725 0.950 . S
H722 C718 0.950 . S
C723 C721 1.390 . S
C723 C724 1.387 . S
C723 H726 0.950 . S
C724 C723 1.387 . S
C724 C727 1.387 . S
H725 C721 0.950 . S
H726 C723 0.950 . S
C727 C718 1.390 . S
C727 H720 0.950 . S
C727 C724 1.387 . S
C728 C729 1.387 . S
C728 H732 0.950 . S
C728 C737 1.390 . S
C729 C728 1.387 . S
C729 C731 1.387 . S
H730 C737 0.950 . S
C731 C729 1.387 . S
C731 C733 1.390 . S
C731 H735 0.950 . S
H732 C728 0.950 . S
C733 C731 1.390 . S
C733 C734 1.387 . S
C733 H736 0.950 . S
C734 C733 1.387 . S
C734 C737 1.387 . S
H735 C731 0.950 . S
H736 C733 0.950 . S
C737 C728 1.390 . S
C737 H730 0.950 . S
C737 C734 1.387 . S
C738 C739 1.387 . S
C738 H742 0.950 . S
C738 C747 1.390 . S
C739 C738 1.387 . S
C739 C741 1.387 . S
H740 C747 0.950 . S
C741 C739 1.387 . S
C741 C743 1.390 . S
C741 H745 0.950 . S
H742 C738 0.950 . S
C743 C741 1.390 . S
C743 C744 1.387 . S
C743 H746 0.950 . S
C744 C743 1.387 . S
C744 C747 1.387 . S
H745 C741 0.950 . S
H746 C743 0.950 . S
C747 C738 1.390 . S
C747 H740 0.950 . S
C747 C744 1.387 . S
C748 C749 1.387 . S
C748 H752 0.950 . S
C748 C757 1.390 . S
C749 C748 1.387 . S
C749 C751 1.387 . S
H750 C757 0.950 . S
C751 C749 1.387 . S
C751 C753 1.390 . S
C751 H755 0.950 . S
H752 C748 0.950 . S
C753 C751 1.390 . S
C753 C754 1.387 . S
C753 H756 0.950 . S
C754 C753 1.387 . S
C754 C757 1.387 . S
H755 C751 0.950 . S
H756 C753 0.950 . S
C757 C748 1.390 . S
C757 H750 0.950 . S
C757 C754 1.387 . S
C758 C759 1.387 . S
C758 H762 0.950 . S
C758 C767 1.390 . S
C759 C758 1.387 . S
C759 C761 1.387 . S
H760 C767 0.950 . S
C761 C759 1.387 . S
C761 C763 1.390 . S
C761 H765 0.950 . S
H762 C758 0.950 . S
C763 C761 1.390 . S
C763 C764 1.387 . S
C763 H766 0.950 . S
C764 C763 1.387 . S
C764 C767 1.387 . S
H765 C761 0.950 . S
H766 C763 0.950 . S
C767 C758 1.390 . S
C767 H760 0.950 . S
C767 C764 1.387 . S
C768 C769 1.387 . S
C768 H772 0.950 . S
C768 C777 1.390 . S
C769 C768 1.387 . S
C769 C771 1.387 . S
H770 C777 0.950 . S
C771 C769 1.387 . S
C771 C773 1.390 . S
C771 H775 0.950 . S
H772 C768 0.950 . S
C773 C771 1.390 . S
C773 C774 1.387 . S
C773 H776 0.950 . S
C774 C773 1.387 . S
C774 C777 1.387 . S
H775 C771 0.950 . S
H776 C773 0.950 . S
C777 C768 1.390 . S
C777 H770 0.950 . S
C777 C774 1.387 . S
C778 C779 1.387 . S
C778 H782 0.950 . S
C778 C787 1.390 . S
C779 C778 1.387 . S
C779 C781 1.387 . S
H780 C787 0.950 . S
C781 C779 1.387 . S
C781 C783 1.390 . S
C781 H785 0.950 . S
H782 C778 0.950 . S
C783 C781 1.390 . S
C783 C784 1.387 . S
C783 H786 0.950 . S
C784 C783 1.387 . S
C784 C787 1.387 . S
H785 C781 0.950 . S
H786 C783 0.950 . S
C787 C778 1.390 . S
C787 H780 0.950 . S
C787 C784 1.387 . S
C788 C789 1.387 . S
C788 H792 0.950 . S
C788 C797 1.390 . S
C789 C788 1.387 . S
C789 C791 1.387 . S
H790 C797 0.950 . S
C791 C789 1.387 . S
C791 C793 1.390 . S
C791 H795 0.950 . S
H792 C788 0.950 . S
C793 C791 1.390 . S
C793 C794 1.387 . S
C793 H796 0.950 . S
C794 C793 1.387 . S
C794 C797 1.387 . S
H795 C791 0.950 . S
H796 C793 0.950 . S
C797 C788 1.390 . S
C797 H790 0.950 . S
C797 C794 1.387 . S
C798 C799 1.387 . S
C798 H802 0.950 . S
C798 C807 1.390 . S
C799 C798 1.387 . S
C799 C801 1.387 . S
H800 C807 0.950 . S
C801 C799 1.387 . S
C801 C803 1.390 . S
C801 H805 0.950 . S
H802 C798 0.950 . S
C803 C801 1.390 . S
C803 C804 1.387 . S
C803 H806 0.950 . S
C804 C803 1.387 . S
C804 C807 1.387 . S
H805 C801 0.950 . S
H806 C803 0.950 . S
C807 C798 1.390 . S
C807 H800 0.950 . S
C807 C804 1.387 . S
C808 C809 1.387 . S
C808 H812 0.950 . S
C808 C817 1.390 . S
C809 C808 1.387 . S
C809 C811 1.387 . S
H810 C817 0.950 . S
C811 C809 1.387 . S
C811 C813 1.390 . S
C811 H815 0.950 . S
H812 C808 0.950 . S
C813 C811 1.390 . S
C813 C814 1.387 . S
C813 H816 0.950 . S
C814 C813 1.387 . S
C814 C817 1.387 . S
H815 C811 0.950 . S
H816 C813 0.950 . S
C817 C808 1.390 . S
C817 H810 0.950 . S
C817 C814 1.387 . S
C818 C819 1.387 . S
C818 H822 0.950 . S
C818 C827 1.390 . S
C819 C818 1.387 . S
C819 C821 1.387 . S
H820 C827 0.950 . S
C821 C819 1.387 . S
C821 C823 1.390 . S
C821 H825 0.950 . S
H822 C818 0.950 . S
C823 C821 1.390 . S
C823 C824 1.387 . S
C823 H826 0.950 . S
C824 C823 1.387 . S
C824 C827 1.387 . S
H825 C821 0.950 . S
H826 C823 0.950 . S
C827 C818 1.390 . S
C827 H820 0.950 . S
C827 C824 1.387 . S
C828 C829 1.387 . S
C828 H832 0.950 . S
C828 C837 1.390 . S
C829 C828 1.387 . S
C829 C831 1.387 . S
H830 C837 0.950 . S
C831 C829 1.387 . S
C831 C833 1.390 . S
C831 H835 0.950 . S
H832 C828 0.950 . S
C833 C831 1.390 . S
C833 C834 1.387 . S
C833 H836 0.950 . S
C834 C833 1.387 . S
C834 C837 1.387 . S
H835 C831 0.950 . S
H836 C833 0.950 . S
C837 C828 1.390 . S
C837 H830 0.950 . S
C837 C834 1.387 . S
C838 C839 1.387 . S
C838 H842 0.950 . S
C838 C847 1.390 . S
C839 C838 1.387 . S
C839 C841 1.387 . S
H840 C847 0.950 . S
C841 C839 1.387 . S
C841 C843 1.390 . S
C841 H845 0.950 . S
H842 C838 0.950 . S
C843 C841 1.390 . S
C843 C844 1.387 . S
C843 H846 0.950 . S
C844 C843 1.387 . S
C844 C847 1.387 . S
H845 C841 0.950 . S
H846 C843 0.950 . S
C847 C838 1.390 . S
C847 H840 0.950 . S
C847 C844 1.387 . S
C848 C849 1.387 . S
C848 H852 0.950 . S
C848 C857 1.390 . S
C849 C848 1.387 . S
C849 C851 1.387 . S
H850 C857 0.950 . S
C851 C849 1.387 . S
C851 C853 1.390 . S
C851 H855 0.950 . S
H852 C848 0.950 . S
C853 C851 1.390 . S
C853 C854 1.387 . S
C853 H856 0.950 . S
C854 C853 1.387 . S
C854 C857 1.387 . S
H855 C851 0.950 . S
H856 C853 0.950 . S
C857 C848 1.390 . S
C857 H850 0.950 . S
C857 C854 1.387 . S
C858 C859 1.387 . S
C858 H862 0.950 . S
C858 C867 1.390 . S
C859 C858 1.387 . S
C859 C861 1.387 . S
H860 C867 0.950 . S
C861 C859 1.387 . S
C861 C863 1.390 . S
C861 H865 0.950 . S
H862 C858 0.950 . S
C863 C861 1.390 . S
C863 C864 1.387 . S
C863 H866 0.950 . S
C864 C863 1.387 . S
C864 C867 1.387 . S
H865 C861 0.950 . S
H866 C863 0.950 . S
C867 C858 1.390 . S
C867 H860 0.950 . S
C867 C864 1.387 . S
C868 C869 1.387 . S
C868 H872 0.950 . S
C868 C877 1.390 . S
C869 C868 1.387 . S
C869 C871 1.387 . S
H870 C877 0.950 . S
C871 C869 1.387 . S
C871 C873 1.390 . S
C871 H875 0.950 . S
H872 C868 0.950 . S
C873 C871 1.390 . S
C873 C874 1.387 . S
C873 H876 0.950 . S
C874 C873 1.387 . S
C874 C877 1.387 . S
H875 C871 0.950 . S
H876 C873 0.950 . S
C877 C868 1.390 . S
C877 H870 0.950 . S
C877 C874 1.387 . S
C878 C879 1.387 . S
C878 H882 0.950 . S
C878 C887 1.390 . S
C879 C878 1.387 . S
C879 C881 1.387 . S
H880 C887 0.950 . S
C881 C879 1.387 . S
C881 C883 1.390 . S
C881 H885 0.950 . S
H882 C878 0.950 . S
C883 C881 1.390 . S
C883 C884 1.387 . S
C883 H886 0.950 . S
C884 C883 1.387 . S
C884 C887 1.387 . S
H885 C881 0.950 . S
H886 C883 0.950 . S
C887 C878 1.390 . S
C887 H880 0.950 . S
C887 C884 1.387 . S
C888 C889 1.387 . S
C888 H892 0.950 . S
C888 C897 1.390 . S
C889 C888 1.387 . S
C889 C891 1.387 . S
H890 C897 0.950 1_655 S
C891 C889 1.387 . S
C891 C893 1.390 . S
C891 H895 0.950 . S
H892 C888 0.950 . S
C893 C891 1.390 . S
C893 C894 1.387 . S
C893 H896 0.950 . S
C894 C893 1.387 . S
C894 C897 1.387 . S
H895 C891 0.950 . S
H896 C893 0.950 . S
C897 C888 1.390 . S
C897 H890 0.950 1_455 S
C897 C894 1.387 . S
C898 C899 1.387 . S
C898 H902 0.950 . S
C898 C907 1.390 . S
C899 C898 1.387 . S
C899 C901 1.387 . S
H900 C907 0.950 . S
C901 C899 1.387 . S
C901 C903 1.390 . S
C901 H905 0.950 . S
H902 C898 0.950 . S
C903 C901 1.390 . S
C903 C904 1.387 . S
C903 H906 0.950 . S
C904 C903 1.387 . S
C904 C907 1.387 . S
H905 C901 0.950 . S
H906 C903 0.950 . S
C907 C898 1.390 . S
C907 H900 0.950 . S
C907 C904 1.387 . S
C908 C909 1.387 . S
C908 H912 0.950 . S
C908 C917 1.390 . S
C909 C908 1.387 . S
C909 C911 1.387 . S
H910 C917 0.950 . S
C911 C909 1.387 . S
C911 C913 1.390 . S
C911 H915 0.950 . S
H912 C908 0.950 . S
C913 C911 1.390 . S
C913 C914 1.387 . S
C913 H916 0.950 . S
C914 C913 1.387 . S
C914 C917 1.387 . S
H915 C911 0.950 . S
H916 C913 0.950 . S
C917 C908 1.390 . S
C917 H910 0.950 . S
C917 C914 1.387 . S
C918 C919 1.387 . S
C918 H922 0.950 1_554 S
C918 C927 1.390 1_554 S
C919 C918 1.387 . S
C919 C921 1.387 . S
H920 C927 0.950 . S
C921 C919 1.387 . S
C921 C923 1.390 . S
C921 H925 0.950 . S
H922 C918 0.950 1_556 S
C923 C921 1.390 . S
C923 C924 1.387 1_554 S
C923 H926 0.950 . S
C924 C923 1.387 1_556 S
C924 C927 1.387 . S
H925 C921 0.950 . S
H926 C923 0.950 . S
C927 C918 1.390 1_556 S
C927 H920 0.950 . S
C927 C924 1.387 . S
C928 C929 1.387 . S
C928 H932 0.950 . S
C928 C937 1.390 . S
C929 C928 1.387 . S
C929 C931 1.387 . S
H930 C937 0.950 . S
C931 C929 1.387 . S
C931 C933 1.390 . S
C931 H935 0.950 1_545 S
H932 C928 0.950 . S
C933 C931 1.390 . S
C933 C934 1.387 . S
C933 H936 0.950 . S
C934 C933 1.387 . S
C934 C937 1.387 . S
H935 C931 0.950 1_565 S
H936 C933 0.950 . S
C937 C928 1.390 . S
C937 H930 0.950 . S
C937 C934 1.387 . S
C938 C939 1.387 . S
C938 H942 0.950 . S
C938 C947 1.390 1_554 S
C939 C938 1.387 . S
C939 C941 1.387 1_554 S
H940 C947 0.950 . S
C941 C939 1.387 1_556 S
C941 C943 1.390 . S
C941 H945 0.950 . S
H942 C938 0.950 . S
C943 C941 1.390 . S
C943 C944 1.387 . S
C943 H946 0.950 . S
C944 C943 1.387 . S
C944 C947 1.387 . S
H945 C941 0.950 . S
H946 C943 0.950 . S
C947 C938 1.390 1_556 S
C947 H940 0.950 . S
C947 C944 1.387 . S
C948 C949 1.387 . S
C948 H952 0.950 . S
C948 C957 1.390 . S
C949 C948 1.387 . S
C949 C951 1.387 . S
H950 C957 0.950 . S
C951 C949 1.387 . S
C951 C953 1.390 . S
C951 H955 0.950 . S
H952 C948 0.950 . S
C953 C951 1.390 . S
C953 C954 1.387 . S
C953 H956 0.950 . S
C954 C953 1.387 . S
C954 C957 1.387 . S
H955 C951 0.950 . S
H956 C953 0.950 . S
C957 C948 1.390 . S
C957 H950 0.950 . S
C957 C954 1.387 . S
C958 C959 1.387 . S
C958 H962 0.950 . S
C958 C967 1.390 . S
C959 C958 1.387 . S
C959 C961 1.387 . S
H960 C967 0.950 . S
C961 C959 1.387 . S
C961 C963 1.390 . S
C961 H965 0.950 . S
H962 C958 0.950 . S
C963 C961 1.390 . S
C963 C964 1.387 . S
C963 H966 0.950 . S
C964 C963 1.387 . S
C964 C967 1.387 . S
H965 C961 0.950 . S
H966 C963 0.950 . S
C967 C958 1.390 . S
C967 H960 0.950 . S
C967 C964 1.387 . S
C968 C969 1.387 . S
C968 H972 0.950 . S
C968 C977 1.390 . S
C969 C968 1.387 . S
C969 C971 1.387 . S
H970 C977 0.950 . S
C971 C969 1.387 . S
C971 C973 1.390 . S
C971 H975 0.950 . S
H972 C968 0.950 . S
C973 C971 1.390 . S
C973 C974 1.387 . S
C973 H976 0.950 . S
C974 C973 1.387 . S
C974 C977 1.387 . S
H975 C971 0.950 . S
H976 C973 0.950 . S
C977 C968 1.390 . S
C977 H970 0.950 . S
C977 C974 1.387 . S
C978 C979 1.387 1_545 S
C978 H982 0.950 . S
C978 C987 1.390 . S
C979 C978 1.387 1_565 S
C979 C981 1.387 . S
H980 C987 0.950 . S
C981 C979 1.387 . S
C981 C983 1.401 . S
C981 H985 0.950 . S
H982 C978 0.950 . S
C983 C981 1.401 . S
C983 C984 1.371 1_565 S
C983 H986 0.955 . S
C984 C983 1.371 1_545 S
C984 C987 1.387 . S
H985 C981 0.950 . S
H986 C983 0.955 . S
C987 C978 1.390 . S
C987 H980 0.950 . S
C987 C984 1.387 . S
C988 C989 1.387 . S
C988 H992 0.950 . S
C988 C997 1.390 . S
C989 C988 1.387 . S
C989 C991 1.387 . S
H990 C997 0.950 1_554 S
C991 C989 1.387 . S
C991 C993 1.390 . S
C991 H995 0.950 . S
H992 C988 0.950 . S
C993 C991 1.390 . S
C993 C994 1.387 . S
C993 H996 0.950 . S
C994 C993 1.387 . S
C994 C997 1.387 . S
H995 C991 0.950 . S
H996 C993 0.950 . S
C997 C988 1.390 . S
C997 H990 0.950 1_556 S
C997 C994 1.387 . S
C998 C999 1.387 . S
C998 H1002 0.950 . S
C998 C1007 1.390 . S
C999 C998 1.387 . S
C999 C1001 1.405 . S
H1000 C1007 0.950 . S
C1001 C999 1.405 . S
C1001 C1003 1.378 1_565 S
C1001 H1005 0.945 1_565 S
H1002 C998 0.950 . S
C1003 C1001 1.378 1_545 S
C1003 C1004 1.387 . S
C1003 H1006 0.950 . S
C1004 C1003 1.387 . S
C1004 C1007 1.387 1_545 S
H1005 C1001 0.945 1_545 S
H1006 C1003 0.950 . S
C1007 C998 1.390 . S
C1007 H1000 0.950 . S
C1007 C1004 1.387 1_565 S
C1008 C1009 1.387 . S
C1008 H1012 0.950 . S
C1008 C1017 1.390 . S
C1009 C1008 1.387 . S
C1009 C1011 1.387 . S
H1010 C1017 0.950 . S
C1011 C1009 1.387 . S
C1011 C1013 1.390 . S
C1011 H1015 0.950 . S
H1012 C1008 0.950 . S
C1013 C1011 1.390 . S
C1013 C1014 1.387 . S
C1013 H1016 0.950 . S
C1014 C1013 1.387 . S
C1014 C1017 1.387 . S
H1015 C1011 0.950 . S
H1016 C1013 0.950 . S
C1017 C1008 1.390 . S
C1017 H1010 0.950 . S
C1017 C1014 1.387 . S
C1018 C1019 1.387 . S
C1018 H1022 0.950 . S
C1018 C1027 1.390 . S
C1019 C1018 1.387 . S
C1019 C1021 1.387 . S
H1020 C1027 0.950 . S
C1021 C1019 1.387 . S
C1021 C1023 1.390 . S
C1021 H1025 0.950 . S
H1022 C1018 0.950 . S
C1023 C1021 1.390 . S
C1023 C1024 1.387 . S
C1023 H1026 0.950 . S
C1024 C1023 1.387 . S
C1024 C1027 1.387 . S
H1025 C1021 0.950 . S
H1026 C1023 0.950 . S
C1027 C1018 1.390 . S
C1027 H1020 0.950 . S
C1027 C1024 1.387 . S
C1028 C1029 1.387 . S
C1028 H1032 0.950 . S
C1028 C1037 1.390 . S
C1029 C1028 1.387 . S
C1029 C1031 1.387 . S
H1030 C1037 0.950 . S
C1031 C1029 1.387 . S
C1031 C1033 1.390 . S
C1031 H1035 0.950 . S
H1032 C1028 0.950 . S
C1033 C1031 1.390 . S
C1033 C1034 1.387 . S
C1033 H1036 0.950 . S
C1034 C1033 1.387 . S
C1034 C1037 1.387 . S
H1035 C1031 0.950 . S
H1036 C1033 0.950 . S
C1037 C1028 1.390 . S
C1037 H1030 0.950 . S
C1037 C1034 1.387 . S
C1038 C1039 1.387 . S
C1038 H1042 0.950 . S
C1038 C1047 1.390 . S
C1039 C1038 1.387 . S
C1039 C1041 1.387 . S
H1040 C1047 0.950 . S
C1041 C1039 1.387 . S
C1041 C1043 1.390 . S
C1041 H1045 0.950 . S
H1042 C1038 0.950 . S
C1043 C1041 1.390 . S
C1043 C1044 1.387 . S
C1043 H1046 0.950 . S
C1044 C1043 1.387 . S
C1044 C1047 1.387 . S
H1045 C1041 0.950 . S
H1046 C1043 0.950 . S
C1047 C1038 1.390 . S
C1047 H1040 0.950 . S
C1047 C1044 1.387 . S
C1048 C1049 1.387 . S
C1048 H1052 0.950 . S
C1048 C1057 1.390 . S
C1049 C1048 1.387 . S
C1049 C1051 1.387 . S
H1050 C1057 0.969 . S
C1051 C1049 1.387 . S
C1051 C1053 1.390 . S
C1051 H1055 0.950 . S
H1052 C1048 0.950 . S
C1053 C1051 1.390 . S
C1053 C1054 1.387 . S
C1053 H1056 0.950 . S
C1054 C1053 1.387 . S
C1054 C1057 1.387 . S
H1055 C1051 0.950 . S
H1056 C1053 0.950 . S
C1057 C1048 1.390 . S
C1057 H1050 0.969 . S
C1057 C1054 1.387 . S
C1058 C1059 1.387 . S
C1058 H1062 0.950 . S
C1058 C1067 1.390 . S
C1059 C1058 1.387 . S
C1059 C1061 1.387 . S
H1060 C1067 0.950 . S
C1061 C1059 1.387 . S
C1061 C1063 1.390 . S
C1061 H1065 0.950 . S
H1062 C1058 0.950 . S
C1063 C1061 1.390 . S
C1063 C1064 1.387 . S
C1063 H1066 0.950 1_556 S
C1064 C1063 1.387 . S
C1064 C1067 1.387 . S
H1065 C1061 0.950 . S
H1066 C1063 0.950 1_554 S
C1067 C1058 1.390 . S
C1067 H1060 0.950 . S
C1067 C1064 1.387 . S
C1068 C1069 1.388 1_455 S
C1068 H1072 0.950 1_455 S
C1068 C1077 1.389 . S
C1069 C1068 1.388 1_655 S
C1069 C1071 1.387 . S
H1070 C1077 0.950 . S
C1071 C1069 1.387 . S
C1071 C1073 1.390 1_655 S
C1071 H1075 0.950 . S
H1072 C1068 0.950 1_655 S
C1073 C1071 1.390 1_455 S
C1073 C1074 1.387 . S
C1073 H1076 0.950 . S
C1074 C1073 1.387 . S
C1074 C1077 1.387 . S
H1075 C1071 0.950 . S
H1076 C1073 0.950 . S
C1077 C1068 1.389 . S
C1077 H1070 0.950 . S
C1077 C1074 1.387 . S
C1078 C1079 1.387 . S
C1078 H1082 0.950 . S
C1078 C1087 1.390 . S
C1079 C1078 1.387 . S
C1079 C1081 1.387 . S
H1080 C1087 0.950 . S
C1081 C1079 1.387 . S
C1081 C1083 1.390 . S
C1081 H1085 0.950 . S
H1082 C1078 0.950 . S
C1083 C1081 1.390 . S
C1083 C1084 1.387 . S
C1083 H1086 0.950 . S
C1084 C1083 1.387 . S
C1084 C1087 1.387 . S
H1085 C1081 0.950 . S
H1086 C1083 0.950 . S
C1087 C1078 1.390 . S
C1087 H1080 0.950 . S
C1087 C1084 1.387 . S
C1088 C1089 1.387 . S
C1088 H1092 0.950 . S
C1088 C1097 1.390 . S
C1089 C1088 1.387 . S
C1089 C1091 1.387 . S
H1090 C1097 0.950 . S
C1091 C1089 1.387 . S
C1091 C1093 1.390 . S
C1091 H1095 0.950 . S
H1092 C1088 0.950 . S
C1093 C1091 1.390 . S
C1093 C1094 1.387 . S
C1093 H1096 0.950 . S
C1094 C1093 1.387 . S
C1094 C1097 1.387 . S
H1095 C1091 0.950 . S
H1096 C1093 0.950 . S
C1097 C1088 1.390 . S
C1097 H1090 0.950 . S
C1097 C1094 1.387 . S
C1098 C1099 1.387 . S
C1098 H1102 0.950 . S
C1098 C1107 1.390 . S
C1099 C1098 1.387 . S
C1099 C1101 1.387 . S
H1100 C1107 0.950 . S
C1101 C1099 1.387 . S
C1101 C1103 1.390 . S
C1101 H1105 0.950 . S
H1102 C1098 0.950 . S
C1103 C1101 1.390 . S
C1103 C1104 1.387 . S
C1103 H1106 0.950 . S
C1104 C1103 1.387 . S
C1104 C1107 1.387 . S
H1105 C1101 0.950 . S
H1106 C1103 0.950 . S
C1107 C1098 1.390 . S
C1107 H1100 0.950 . S
C1107 C1104 1.387 . S
C1108 C1109 1.387 . S
C1108 H1112 0.950 . S
C1108 C1117 1.390 . S
C1109 C1108 1.387 . S
C1109 C1111 1.387 . S
H1110 C1117 0.950 . S
C1111 C1109 1.387 . S
C1111 C1113 1.390 . S
C1111 H1115 0.950 . S
H1112 C1108 0.950 . S
C1113 C1111 1.390 . S
C1113 C1114 1.387 . S
C1113 H1116 0.950 . S
C1114 C1113 1.387 . S
C1114 C1117 1.387 . S
H1115 C1111 0.950 . S
H1116 C1113 0.950 . S
C1117 C1108 1.390 . S
C1117 H1110 0.950 . S
C1117 C1114 1.387 . S
C1118 C1119 1.387 . S
C1118 H1122 0.950 . S
C1118 C1127 1.390 . S
C1119 C1118 1.387 . S
C1119 C1121 1.387 . S
H1120 C1127 0.948 1_455 S
C1121 C1119 1.387 . S
C1121 C1123 1.390 1_655 S
C1121 H1125 0.950 . S
H1122 C1118 0.950 . S
C1123 C1121 1.390 1_455 S
C1123 C1124 1.387 . S
C1123 H1126 0.950 . S
C1124 C1123 1.387 . S
C1124 C1127 1.387 1_455 S
H1125 C1121 0.950 . S
H1126 C1123 0.950 . S
C1127 C1118 1.390 . S
C1127 H1120 0.948 1_655 S
C1127 C1124 1.387 1_655 S
C1128 C1129 1.387 . S
C1128 H1132 0.950 . S
C1128 C1137 1.390 . S
C1129 C1128 1.387 . S
C1129 C1131 1.387 . S
H1130 C1137 0.950 . S
C1131 C1129 1.387 . S
C1131 C1133 1.390 . S
C1131 H1135 0.950 . S
H1132 C1128 0.950 . S
C1133 C1131 1.390 . S
C1133 C1134 1.387 . S
C1133 H1136 0.950 . S
C1134 C1133 1.387 . S
C1134 C1137 1.387 . S
H1135 C1131 0.950 . S
H1136 C1133 0.950 . S
C1137 C1128 1.390 . S
C1137 H1130 0.950 . S
C1137 C1134 1.387 . S
C1138 C1139 1.387 . S
C1138 H1142 0.950 . S
C1138 C1147 1.390 1_455 S
C1139 C1138 1.387 . S
C1139 C1141 1.387 . S
H1140 C1147 0.950 . S
C1141 C1139 1.387 . S
C1141 C1143 1.390 1_455 S
C1141 H1145 0.950 . S
H1142 C1138 0.950 . S
C1143 C1141 1.390 1_655 S
C1143 C1144 1.387 . S
C1143 H1146 0.950 . S
C1144 C1143 1.387 . S
C1144 C1147 1.387 . S
H1145 C1141 0.950 . S
H1146 C1143 0.950 . S
C1147 C1138 1.390 1_655 S
C1147 H1140 0.950 . S
C1147 C1144 1.387 . S
C1148 C1149 1.387 . S
C1148 H1152 0.950 . S
C1148 C1157 1.390 . S
C1149 C1148 1.387 . S
C1149 C1151 1.366 1_556 S
H1150 C1157 0.950 . S
C1151 C1149 1.366 1_554 S
C1151 C1153 1.406 . S
C1151 H1155 0.956 . S
H1152 C1148 0.950 . S
C1153 C1151 1.406 . S
C1153 C1154 1.387 . S
C1153 H1156 0.950 . S
C1154 C1153 1.387 . S
C1154 C1157 1.387 1_554 S
H1155 C1151 0.956 . S
H1156 C1153 0.950 . S
C1157 C1148 1.390 . S
C1157 H1150 0.950 . S
C1157 C1154 1.387 1_556 S
C1158 C1159 1.387 . S
C1158 H1162 0.950 . S
C1158 C1167 1.390 . S
C1159 C1158 1.387 . S
C1159 C1161 1.387 . S
H1160 C1167 0.950 . S
C1161 C1159 1.387 . S
C1161 C1163 1.390 . S
C1161 H1165 0.950 . S
H1162 C1158 0.950 . S
C1163 C1161 1.390 . S
C1163 C1164 1.387 . S
C1163 H1166 0.950 . S
C1164 C1163 1.387 . S
C1164 C1167 1.387 . S
H1165 C1161 0.950 . S
H1166 C1163 0.950 . S
C1167 C1158 1.390 . S
C1167 H1160 0.950 . S
C1167 C1164 1.387 . S
C1168 C1169 1.387 . S
C1168 H1172 0.950 . S
C1168 C1177 1.390 . S
C1169 C1168 1.387 . S
C1169 C1171 1.387 . S
H1170 C1177 0.950 . S
C1171 C1169 1.387 . S
C1171 C1173 1.390 . S
C1171 H1175 0.950 . S
H1172 C1168 0.950 . S
C1173 C1171 1.390 . S
C1173 C1174 1.387 . S
C1173 H1176 0.950 . S
C1174 C1173 1.387 . S
C1174 C1177 1.387 . S
H1175 C1171 0.950 . S
H1176 C1173 0.950 . S
C1177 C1168 1.390 . S
C1177 H1170 0.950 . S
C1177 C1174 1.387 . S
C1178 C1179 1.387 . S
C1178 H1182 0.950 . S
C1178 C1187 1.390 . S
C1179 C1178 1.387 . S
C1179 C1181 1.387 . S
H1180 C1187 0.950 . S
C1181 C1179 1.387 . S
C1181 C1183 1.390 1_655 S
C1181 H1185 0.952 . S
H1182 C1178 0.950 . S
C1183 C1181 1.390 1_455 S
C1183 C1184 1.387 . S
C1183 H1186 0.950 . S
C1184 C1183 1.387 . S
C1184 C1187 1.387 1_455 S
H1185 C1181 0.952 . S
H1186 C1183 0.950 . S
C1187 C1178 1.390 . S
C1187 H1180 0.950 . S
C1187 C1184 1.387 1_655 S
C1188 C1189 1.387 1_556 S
C1188 H1192 0.950 . S
C1188 C1197 1.390 . S
C1189 C1188 1.387 1_554 S
C1189 C1191 1.387 . S
H1190 C1197 0.950 . S
C1191 C1189 1.387 . S
C1191 C1193 1.390 . S
C1191 H1195 0.950 . S
H1192 C1188 0.950 . S
C1193 C1191 1.390 . S
C1193 C1194 1.387 1_554 S
C1193 H1196 0.950 . S
C1194 C1193 1.387 1_556 S
C1194 C1197 1.387 . S
H1195 C1191 0.950 . S
H1196 C1193 0.950 . S
C1197 C1188 1.390 . S
C1197 H1190 0.950 . S
C1197 C1194 1.387 . S
C1198 C1199 1.387 . S
C1198 H1202 0.950 . S
C1198 C1207 1.390 . S
C1199 C1198 1.387 . S
C1199 C1201 1.387 . S
H1200 C1207 0.950 . S
C1201 C1199 1.387 . S
C1201 C1203 1.390 . S
C1201 H1205 0.950 . S
H1202 C1198 0.950 . S
C1203 C1201 1.390 . S
C1203 C1204 1.387 . S
C1203 H1206 0.950 . S
C1204 C1203 1.387 . S
C1204 C1207 1.387 . S
H1205 C1201 0.950 . S
H1206 C1203 0.950 . S
C1207 C1198 1.390 . S
C1207 H1200 0.950 . S
C1207 C1204 1.387 . S
C1208 C1209 1.387 . S
C1208 H1212 0.950 . S
C1208 C1217 1.390 . S
C1209 C1208 1.387 . S
C1209 C1211 1.387 . S
H1210 C1217 0.950 . S
C1211 C1209 1.387 . S
C1211 C1213 1.390 . S
C1211 H1215 0.950 . S
H1212 C1208 0.950 . S
C1213 C1211 1.390 . S
C1213 C1214 1.387 . S
C1213 H1216 0.950 . S
C1214 C1213 1.387 . S
C1214 C1217 1.387 . S
H1215 C1211 0.950 . S
H1216 C1213 0.950 . S
C1217 C1208 1.390 . S
C1217 H1210 0.950 . S
C1217 C1214 1.387 . S
C1218 C1219 1.387 . S
C1218 H1222 0.950 . S
C1218 C1227 1.390 1_545 S
C1219 C1218 1.387 . S
C1219 C1221 1.387 . S
H1220 C1227 0.950 . S
C1221 C1219 1.387 . S
C1221 C1223 1.390 . S
C1221 H1225 0.950 . S
H1222 C1218 0.950 . S
C1223 C1221 1.390 . S
C1223 C1224 1.387 1_545 S
C1223 H1226 0.950 . S
C1224 C1223 1.387 1_565 S
C1224 C1227 1.387 . S
H1225 C1221 0.950 . S
H1226 C1223 0.950 . S
C1227 C1218 1.390 1_565 S
C1227 H1220 0.950 . S
C1227 C1224 1.387 . S
C1228 C1229 1.387 . S
C1228 H1232 0.950 . S
C1228 C1237 1.390 . S
C1229 C1228 1.387 . S
C1229 C1231 1.387 1_545 S
H1230 C1237 0.950 . S
C1231 C1229 1.387 1_565 S
C1231 C1233 1.390 . S
C1231 H1235 0.950 . S
H1232 C1228 0.950 . S
C1233 C1231 1.390 . S
C1233 C1234 1.387 . S
C1233 H1236 0.950 . S
C1234 C1233 1.387 . S
C1234 C1237 1.387 1_565 S
H1235 C1231 0.950 . S
H1236 C1233 0.950 . S
C1237 C1228 1.390 . S
C1237 H1230 0.950 . S
C1237 C1234 1.387 1_545 S
C1238 C1239 1.387 . S
C1238 H1242 0.950 . S
C1238 C1247 1.390 . S
C1239 C1238 1.387 . S
C1239 C1241 1.387 . S
H1240 C1247 0.950 . S
C1241 C1239 1.387 . S
C1241 C1243 1.390 . S
C1241 H1245 0.950 . S
H1242 C1238 0.950 . S
C1243 C1241 1.390 . S
C1243 C1244 1.387 . S
C1243 H1246 0.950 . S
C1244 C1243 1.387 . S
C1244 C1247 1.387 . S
H1245 C1241 0.950 . S
H1246 C1243 0.950 . S
C1247 C1238 1.390 . S
C1247 H1240 0.950 . S
C1247 C1244 1.387 . S
C529 C4 1.189 . S
C534 C338 1.191 . S
C539 C268 1.191 . S
C544 C26 1.189 . S
C549 C294 1.190 . S
C554 C48 1.191 . S
C559 C70 1.190 . S
C564 C316 1.191 . S
C569 C96 1.189 . S
C574 C202 1.191 . S
C579 C118 1.185 . S
C584 C224 1.187 . S
C589 C140 1.187 . S
C594 C246 1.185 . S
C599 C162 1.188 . S
C604 C184 1.190 . S
C609 C356 1.189 . S
C614 C448 1.191 . S
C619 C382 1.186 . S
C624 C510 1.188 . S
C629 C400 1.187 . S
C634 C470 1.190 . S
C639 C422 1.190 . S
C644 C488 1.191 . S
C649 C466 1.261 . S
C654 C9 1.248 . S
C659 C31 1.247 . S
C664 C492 1.261 . S
C669 C53 1.248 . S
C674 C360 1.261 . S
C679 C75 1.247 . S
C684 C514 1.260 . S
C689 C426 1.257 1_545 S
C694 C93 1.250 . S
C699 C444 1.257 . S
C704 C115 1.249 . S
C709 C137 1.249 . S
C714 C378 1.261 1_565 S
C719 C159 1.248 . S
C724 C404 1.261 . S
C729 C181 1.249 . S
C734 C92 1.257 . S
C739 C207 1.247 . S
C744 C114 1.257 . S
C749 C229 1.249 . S
C754 C136 1.257 1_556 S
C759 C251 1.249 . S
C764 C158 1.261 . S
C769 C8 1.257 . S
C774 C273 1.249 . S
C779 C291 1.248 . S
C784 C30 1.261 . S
C789 C313 1.249 . S
C794 C52 1.257 1_554 S
C799 C335 1.251 . S
C804 C74 1.258 . S
C809 C312 1.260 . S
C814 C361 1.250 . S
C819 C228 1.261 1_655 S
C824 C379 1.248 . S
C829 C405 1.248 . S
C834 C250 1.261 . S
C839 C180 1.260 . S
C844 C427 1.247 . S
C849 C445 1.248 . S
C854 C206 1.261 . S
C859 C272 1.260 1_455 S
C864 C467 1.247 . S
C869 C290 1.257 . S
C874 C493 1.249 . S
C879 C334 1.257 . S
C884 C515 1.249 . S
C889 C401 1.660 . S
C894 C6 1.637 . S
C899 C28 1.636 . S
C904 C423 1.661 . S
C909 C449 1.661 . S
C914 C50 1.637 . S
C919 C72 1.636 . S
C924 C383 1.661 . S
C929 C489 1.663 1_545 S
C934 C95 1.634 . S
C939 C357 1.661 . S
C944 C117 1.637 . S
C949 C511 1.661 1_565 S
C954 C139 1.637 . S
C959 C471 1.661 . S
C964 C161 1.637 . S
C969 C203 1.662 . S
C974 C183 1.633 . S
C979 C225 1.659 . S
C984 C204 1.637 . S
C989 C226 1.637 . S
C994 C247 1.660 1_556 S
C999 C248 1.637 . S
C1004 C185 1.659 . S
C1009 C339 1.661 . S
C1014 C270 1.633 . S
C1019 C269 1.663 . S
C1024 C293 1.634 . S
C1029 C315 1.634 . S
C1034 C295 1.661 1_554 S
C1039 C337 1.637 . S
C1044 C317 1.660 . S
C1049 C71 1.661 . S
C1054 C358 1.637 . S
C1059 C119 1.661 1_655 S
C1064 C381 1.633 . S
C1069 C141 1.661 . S
C1074 C402 1.633 . S
C1079 C163 1.661 . S
C1084 C424 1.637 . S
C1089 C97 1.661 . S
C1094 C447 1.633 . S
C1099 C27 1.660 1_455 S
C1104 C469 1.634 . S
C1109 C49 1.662 . S
C1114 C490 1.633 . S
C1119 C512 1.633 . S
C1124 C5 1.661 . S
C1129 C7 1.512 . S
C1134 C205 1.512 . S
C1139 C227 1.512 . S
C1144 C29 1.511 . S
C1149 C51 1.512 . S
C1154 C249 1.511 . S
C1159 C73 1.512 . S
C1164 C182 1.511 . S
C1169 C94 1.512 . S
C1174 C336 1.512 . S
C1179 C271 1.511 . S
C1184 C116 1.512 . S
C1189 C138 1.512 . S
C1194 C292 1.512 . S
C1199 C160 1.512 . S
C1204 C314 1.511 . S
C1209 C359 1.511 . S
C1214 C403 1.512 . S
C1219 C380 1.511 . S
C1224 C491 1.512 . S
C1229 C513 1.511 . S
C1234 C425 1.512 . S
C1239 C446 1.512 . S
C1244 C468 1.511 . S
