# Generated by pormake.
# Topology vbf, (5)-cn, num edge types: 1
# Building blocks:
#     Node 0, Type 0, BuildingBlock: BEQFEK_clean_sbu_0, # of connection points: 5
#     Node 1, Type 0, BuildingBlock: BEQFEK_clean_sbu_0, # of connection points: 5
#     Node 2, Type 0, BuildingBlock: BEQFEK_clean_sbu_0, # of connection points: 5
#     Node 3, Type 0, BuildingBlock: BEQFEK_clean_sbu_0, # of connection points: 5
#     Node 4, Type 0, BuildingBlock: BEQFEK_clean_sbu_0, # of connection points: 5
#     Node 5, Type 0, BuildingBlock: BEQFEK_clean_sbu_0, # of connection points: 5
#     Node 6, Type 0, BuildingBlock: BEQFEK_clean_sbu_0, # of connection points: 5
#     Node 7, Type 0, BuildingBlock: BEQFEK_clean_sbu_0, # of connection points: 5
#     Node 8, Type 0, BuildingBlock: BEQFEK_clean_sbu_0, # of connection points: 5
#     Node 9, Type 0, BuildingBlock: BEQFEK_clean_sbu_0, # of connection points: 5
#     Node 10, Type 0, BuildingBlock: BEQFEK_clean_sbu_0, # of connection points: 5
#     Node 11, Type 0, BuildingBlock: BEQFEK_clean_sbu_0, # of connection points: 5
#     Node 12, Type 0, BuildingBlock: BEQFEK_clean_sbu_0, # of connection points: 5
#     Node 13, Type 0, BuildingBlock: BEQFEK_clean_sbu_0, # of connection points: 5
#     Node 14, Type 0, BuildingBlock: BEQFEK_clean_sbu_0, # of connection points: 5
#     Node 15, Type 0, BuildingBlock: BEQFEK_clean_sbu_0, # of connection points: 5
#     Edge 16, Type (0, 0), BuildingBlock: KIFKEQ_clean_linker_1, # of connection points: 2
#     Edge 17, Type (0, 0), BuildingBlock: KIFKEQ_clean_linker_1, # of connection points: 2
#     Edge 18, Type (0, 0), BuildingBlock: KIFKEQ_clean_linker_1, # of connection points: 2
#     Edge 19, Type (0, 0), BuildingBlock: KIFKEQ_clean_linker_1, # of connection points: 2
#     Edge 20, Type (0, 0), BuildingBlock: KIFKEQ_clean_linker_1, # of connection points: 2
#     Edge 21, Type (0, 0), BuildingBlock: KIFKEQ_clean_linker_1, # of connection points: 2
#     Edge 22, Type (0, 0), BuildingBlock: KIFKEQ_clean_linker_1, # of connection points: 2
#     Edge 23, Type (0, 0), BuildingBlock: KIFKEQ_clean_linker_1, # of connection points: 2
#     Edge 24, Type (0, 0), BuildingBlock: KIFKEQ_clean_linker_1, # of connection points: 2
#     Edge 25, Type (0, 0), BuildingBlock: KIFKEQ_clean_linker_1, # of connection points: 2
#     Edge 26, Type (0, 0), BuildingBlock: KIFKEQ_clean_linker_1, # of connection points: 2
#     Edge 27, Type (0, 0), BuildingBlock: KIFKEQ_clean_linker_1, # of connection points: 2
#     Edge 28, Type (0, 0), BuildingBlock: KIFKEQ_clean_linker_1, # of connection points: 2
#     Edge 29, Type (0, 0), BuildingBlock: KIFKEQ_clean_linker_1, # of connection points: 2
#     Edge 30, Type (0, 0), BuildingBlock: KIFKEQ_clean_linker_1, # of connection points: 2
#     Edge 31, Type (0, 0), BuildingBlock: KIFKEQ_clean_linker_1, # of connection points: 2
#     Edge 32, Type (0, 0), BuildingBlock: KIFKEQ_clean_linker_1, # of connection points: 2
#     Edge 33, Type (0, 0), BuildingBlock: KIFKEQ_clean_linker_1, # of connection points: 2
#     Edge 34, Type (0, 0), BuildingBlock: KIFKEQ_clean_linker_1, # of connection points: 2
#     Edge 35, Type (0, 0), BuildingBlock: KIFKEQ_clean_linker_1, # of connection points: 2
#     Edge 36, Type (0, 0), BuildingBlock: KIFKEQ_clean_linker_1, # of connection points: 2
#     Edge 37, Type (0, 0), BuildingBlock: KIFKEQ_clean_linker_1, # of connection points: 2
#     Edge 38, Type (0, 0), BuildingBlock: KIFKEQ_clean_linker_1, # of connection points: 2
#     Edge 39, Type (0, 0), BuildingBlock: KIFKEQ_clean_linker_1, # of connection points: 2
#     Edge 40, Type (0, 0), BuildingBlock: KIFKEQ_clean_linker_1, # of connection points: 2
#     Edge 41, Type (0, 0), BuildingBlock: KIFKEQ_clean_linker_1, # of connection points: 2
#     Edge 42, Type (0, 0), BuildingBlock: KIFKEQ_clean_linker_1, # of connection points: 2
#     Edge 43, Type (0, 0), BuildingBlock: KIFKEQ_clean_linker_1, # of connection points: 2
#     Edge 44, Type (0, 0), BuildingBlock: KIFKEQ_clean_linker_1, # of connection points: 2
#     Edge 45, Type (0, 0), BuildingBlock: KIFKEQ_clean_linker_1, # of connection points: 2
#     Edge 46, Type (0, 0), BuildingBlock: KIFKEQ_clean_linker_1, # of connection points: 2
#     Edge 47, Type (0, 0), BuildingBlock: KIFKEQ_clean_linker_1, # of connection points: 2
#     Edge 48, Type (0, 0), BuildingBlock: KIFKEQ_clean_linker_1, # of connection points: 2
#     Edge 49, Type (0, 0), BuildingBlock: KIFKEQ_clean_linker_1, # of connection points: 2
#     Edge 50, Type (0, 0), BuildingBlock: KIFKEQ_clean_linker_1, # of connection points: 2
#     Edge 51, Type (0, 0), BuildingBlock: KIFKEQ_clean_linker_1, # of connection points: 2
#     Edge 52, Type (0, 0), BuildingBlock: KIFKEQ_clean_linker_1, # of connection points: 2
#     Edge 53, Type (0, 0), BuildingBlock: KIFKEQ_clean_linker_1, # of connection points: 2
#     Edge 54, Type (0, 0), BuildingBlock: KIFKEQ_clean_linker_1, # of connection points: 2
#     Edge 55, Type (0, 0), BuildingBlock: KIFKEQ_clean_linker_1, # of connection points: 2
# Relax obj value: 0.043
# Max RMSD: 0.098
# Mean RMSD: 0.098
data_MOF--net-vbf--node1-BEQFEK_clean_sbu_0--edge1-KIFKEQ_clean_linker_1
_symmetry_space_group_name_H-M    P1
_symmetry_Int_Tables_number       1
_symmetry_cell_setting            triclinic
loop_
_symmetry_equiv_pos_as_xyz
'x, y, z'
_cell_length_a     37.794327
_cell_length_b     86.203131
_cell_length_c     29.614516
_cell_angle_alpha  90.108639
_cell_angle_beta   90.012832
_cell_angle_gamma 89.995107
loop_
_atom_site_label
_atom_site_type_symbol
_atom_site_fract_x
_atom_site_fract_y
_atom_site_fract_z
_atom_type_partial_charge
Co0 Co 0.11028 0.31489 0.96034 0.0
Co1 Co 0.06275 0.29028 0.00988 0.0
C2 C 0.14242 0.28843 0.01072 0.0
O3 O 0.14557 0.30078 0.98759 0.0
O4 O 0.11208 0.28319 0.02146 0.0
C5 C 0.1654 0.33748 0.94866 0.0
O6 O 0.17878 0.3307 0.98449 0.0
C7 C 0.03718 0.27432 0.09044 0.0
C8 C 0.98835 0.26296 0.06625 0.0
C9 C 0.00934 0.26488 0.10434 0.0
N10 N 0.03272 0.27769 0.0465 0.0
N11 N 1.00359 0.27081 0.03215 0.0
C12 C 0.06634 0.28103 0.11853 0.0
H13 H 0.07707 0.29165 0.10242 0.0
H14 H 0.05671 0.28383 0.15299 0.0
H15 H 0.08811 0.27244 0.12118 0.0
C16 C 0.06812 0.33629 0.01759 0.0
N17 N 0.07712 0.32191 1.00394 0.0
N18 N 0.05659 0.31172 0.02414 0.0
C19 C 0.03349 0.31937 0.05089 0.0
C20 C 0.04012 0.33519 0.04779 0.0
C21 C 0.08684 0.35071 1.00274 0.0
H22 H 0.08316 0.35225 0.96585 0.0
H23 H 0.11555 0.34942 0.00933 0.0
H24 H 0.07723 0.36116 0.02083 0.0
O25 O 0.0856 0.30369 0.91066 0.0
O26 O 0.05124 0.28648 0.94519 0.0
H27 H 0.9919 0.30249 0.05474 0.0
H28 H 0.98266 0.32031 0.08452 0.0
C29 C 1.00363 0.31182 0.07573 0.0
H30 H 0.01387 0.30661 0.10734 0.0
H31 H 0.99396 0.27158 0.9992 0.0
O32 O 0.13601 0.33271 0.93296 0.0
C33 C 0.06295 0.29273 0.90917 0.0
Co34 Co 0.89892 0.69758 0.96188 0.0
Co35 Co 0.94543 0.72191 0.01474 0.0
C36 C 0.86626 0.72443 0.01127 0.0
O37 O 0.86371 0.71204 0.98801 0.0
O38 O 0.89627 0.72962 0.02379 0.0
C39 C 0.84471 0.67457 0.95156 0.0
O40 O 0.83314 0.68054 0.98963 0.0
C41 C 0.96974 0.74025 0.09268 0.0
C42 C 0.02652 0.74337 0.07746 0.0
C43 C 1.00093 0.74639 0.1098 0.0
N44 N 0.97661 0.73387 0.05211 0.0
N45 N 0.01049 0.73598 0.04295 0.0
C46 C 0.93495 0.73888 0.11645 0.0
H47 H 0.92188 0.7278 0.10717 0.0
H48 H 0.93834 0.73947 0.15364 0.0
H49 H 0.91757 0.74857 0.10566 0.0
C50 C 0.93962 0.6758 0.01921 0.0
N51 N 0.93072 0.69028 1.0064 0.0
N52 N 0.94967 0.70038 0.02941 0.0
C53 C 0.97095 0.69258 0.05813 0.0
C54 C 0.9654 0.67675 0.05251 0.0
C55 C 0.92584 0.66138 0.99709 0.0
H56 H 0.89865 0.65908 0.00946 0.0
H57 H 0.94274 0.65118 1.00455 0.0
H58 H 0.92465 0.66304 0.96001 0.0
O59 O 0.92503 0.70852 0.91361 0.0
O60 O 0.95872 0.72553 0.95021 0.0
H61 H 0.01764 0.70566 0.07261 0.0
H62 H 0.00638 0.69169 0.11572 0.0
C63 C 0.9955 0.70014 0.09117 0.0
H64 H 0.9811 0.70923 0.11013 0.0
H65 H 0.02295 0.73188 0.01383 0.0
O66 O 0.87267 0.68005 0.93379 0.0
C67 C 0.94791 0.71938 0.91347 0.0
Co68 Co 0.1485 0.56429 0.20954 0.0
Co69 Co 0.1929 0.53962 0.26347 0.0
C70 C 0.11383 0.538 0.2595 0.0
O71 O 0.11217 0.55008 0.23489 0.0
O72 O 0.14341 0.53279 0.27333 0.0
C73 C 0.09537 0.5877 0.19966 0.0
O74 O 0.08392 0.58182 0.23786 0.0
C75 C 0.21676 0.52297 0.34428 0.0
C76 C 0.26845 0.51366 0.3225 0.0
C77 C 0.24568 0.51436 0.35924 0.0
N78 N 0.22247 0.52712 0.30111 0.0
N79 N 0.25326 0.52141 0.28817 0.0
C80 C 0.1855 0.52838 0.37104 0.0
H81 H 0.17338 0.53873 0.35502 0.0
H82 H 0.1934 0.53124 0.40617 0.0
H83 H 0.16536 0.51902 0.37194 0.0
C84 C 0.18978 0.58577 0.26758 0.0
N85 N 0.18026 0.57136 0.2547 0.0
N86 N 0.19923 0.56114 0.27712 0.0
C87 C 0.22159 0.56878 0.30495 0.0
C88 C 0.21622 0.58464 0.29995 0.0
C89 C 0.17588 0.60031 0.24647 0.0
H90 H 0.14852 0.6024 0.25861 0.0
H91 H 0.19247 0.61052 0.255 0.0
H92 H 0.17504 0.59894 0.20925 0.0
O93 O 0.1752 0.55332 0.16133 0.0
O94 O 0.20537 0.53536 0.19913 0.0
H95 H 0.26402 0.56943 0.35452 0.0
H96 H 0.23247 0.55412 0.36124 0.0
C97 C 0.24728 0.561 0.33603 0.0
H98 H 0.26436 0.55299 0.31644 0.0
H99 H 0.26417 0.52302 0.25615 0.0
O100 O 0.12301 0.58203 0.18152 0.0
C101 C 0.1965 0.54185 0.16211 0.0
Co102 Co 0.85794 0.44734 0.21011 0.0
Co103 Co 0.81395 0.47156 0.26688 0.0
C104 C 0.89269 0.47374 0.26049 0.0
O105 O 0.89415 0.46172 0.23543 0.0
O106 O 0.86328 0.47881 0.27541 0.0
C107 C 0.91065 0.42378 0.19893 0.0
O108 O 0.92186 0.42923 0.23785 0.0
C109 C 0.79093 0.48957 0.34624 0.0
C110 C 0.73398 0.49282 0.33233 0.0
C111 C 0.75999 0.49564 0.36426 0.0
N112 N 0.7835 0.48339 0.30555 0.0
N113 N 0.74951 0.48558 0.29719 0.0
C114 C 0.82603 0.48807 0.3692 0.0
H115 H 0.83892 0.47701 0.35928 0.0
H116 H 0.82316 0.48852 0.40647 0.0
H117 H 0.84331 0.49778 0.35834 0.0
C118 C 0.81782 0.42539 0.26759 0.0
N119 N 0.82715 0.4399 0.25558 0.0
N120 N 0.80921 0.44995 0.28008 0.0
C121 C 0.78827 0.44208 0.30902 0.0
C122 C 0.79291 0.42627 0.30193 0.0
C123 C 0.83012 0.41105 0.24371 0.0
H124 H 0.83107 0.41314 0.20681 0.0
H125 H 0.8572 0.40813 0.25541 0.0
H126 H 0.81243 0.40105 0.25045 0.0
O127 O 0.83021 0.45833 0.16325 0.0
O128 O 0.8002 0.47589 0.20295 0.0
H129 H 0.74236 0.45527 0.32636 0.0
H130 H 0.7545 0.44098 0.36812 0.0
C131 C 0.76488 0.44954 0.34357 0.0
H132 H 0.78004 0.45844 0.36236 0.0
H133 H 0.73665 0.48163 0.26817 0.0
O134 O 0.88345 0.42982 0.18076 0.0
C135 C 0.80858 0.46965 0.16533 0.0
Co136 Co 0.10971 0.81463 0.46054 0.0
Co137 Co 0.06444 0.79012 0.51385 0.0
C138 C 0.14363 0.78829 0.51064 0.0
O139 O 0.14572 0.80034 0.48599 0.0
O140 O 0.11385 0.78322 0.52416 0.0
C141 C 0.1647 0.83708 0.44758 0.0
O142 O 0.17814 0.83033 0.48344 0.0
C143 C 0.04006 0.77443 0.59567 0.0
C144 C 0.9909 0.76305 0.57276 0.0
C145 C 0.01231 0.7651 0.6104 0.0
N146 N 0.0351 0.77765 0.5517 0.0
N147 N 0.00578 0.77074 0.53812 0.0
C148 C 0.06961 0.7812 0.62297 0.0
H149 H 0.08039 0.79168 0.60618 0.0
H150 H 0.06035 0.78423 0.65743 0.0
H151 H 0.09124 0.77255 0.62573 0.0
C152 C 0.06919 0.83621 0.51907 0.0
N153 N 0.07807 0.82177 0.50574 0.0
N154 N 0.05832 0.81164 0.52738 0.0
C155 C 0.03587 0.81937 0.55483 0.0
C156 C 0.04211 0.83519 0.55063 0.0
C157 C 0.08703 0.8506 0.50241 0.0
H158 H 0.08264 0.85174 0.46551 0.0
H159 H 0.1159 0.84961 0.50826 0.0
H160 H 0.07735 0.86116 0.51987 0.0
O161 O 0.08289 0.80367 0.41222 0.0
O162 O 0.05211 0.78583 0.44965 0.0
H163 H 0.99461 0.80243 0.56131 0.0
H164 H 0.986 0.82038 0.59071 0.0
C165 C 0.00681 0.81189 0.58134 0.0
H166 H 0.01799 0.80687 0.6127 0.0
H167 H 0.99576 0.77141 0.50534 0.0
O168 O 0.13517 0.83235 0.43219 0.0
C169 C 0.06135 0.79228 0.41275 0.0
Co170 Co 0.89857 0.19746 0.45928 0.0
Co171 Co 0.94534 0.22237 0.50926 0.0
C172 C 0.86565 0.22396 0.50889 0.0
O173 O 0.86291 0.21153 0.48592 0.0
O174 O 0.89581 0.22934 0.52006 0.0
C175 C 0.84421 0.1745 0.44767 0.0
O176 O 0.83085 0.18117 0.48377 0.0
C177 C 0.97057 0.2385 0.59007 0.0
C178 C 0.01933 0.2499 0.56602 0.0
C179 C 0.99838 0.24795 0.60409 0.0
N180 N 0.97503 0.23512 0.54609 0.0
N181 N 0.00411 0.24204 0.53181 0.0
C182 C 0.94147 0.23175 0.61811 0.0
H183 H 0.93066 0.22117 0.60175 0.0
H184 H 0.95121 0.22887 0.65245 0.0
H185 H 0.91974 0.24034 0.6211 0.0
C186 C 0.94086 0.17634 0.51695 0.0
N187 N 0.93158 0.19067 0.50327 0.0
N188 N 0.95178 0.20097 0.52367 0.0
C189 C 0.97493 0.19345 0.55059 0.0
C190 C 0.96868 0.1776 0.54738 0.0
C191 C 0.92259 0.16182 0.50186 0.0
H192 H 0.92619 0.16035 0.46492 0.0
H193 H 0.89387 0.1629 0.50865 0.0
H194 H 0.93261 0.15141 0.51967 0.0
O195 O 0.92333 0.20865 0.40986 0.0
O196 O 0.95714 0.22607 0.44465 0.0
H197 H 0.01621 0.21048 0.5547 0.0
H198 H 0.02563 0.19274 0.58458 0.0
C199 C 0.00455 0.20115 0.57562 0.0
H200 H 0.99409 0.20636 0.60715 0.0
H201 H 0.01376 0.24127 0.49887 0.0
O202 O 0.87331 0.17948 0.43174 0.0
C203 C 0.94574 0.2197 0.40855 0.0
Co204 Co 0.1488 0.06495 0.70894 0.0
Co205 Co 0.19191 0.04004 0.76376 0.0
C206 C 0.11263 0.03906 0.75851 0.0
O207 O 0.11147 0.05115 0.73389 0.0
O208 O 0.14199 0.03366 0.77246 0.0
C209 C 0.09717 0.08892 0.69807 0.0
O210 O 0.08518 0.08325 0.73627 0.0
C211 C 0.21491 0.02396 0.84627 0.0
C212 C 0.26216 0.01123 0.82269 0.0
C213 C 0.24125 0.01385 0.86036 0.0
N214 N 0.22024 0.02729 0.80239 0.0
N215 N 0.24855 0.01963 0.78854 0.0
C216 C 0.18371 0.02948 0.87298 0.0
H217 H 0.16693 0.03736 0.85262 0.0
H218 H 0.19262 0.03577 0.90357 0.0
H219 H 0.16792 0.01934 0.88423 0.0
C220 C 0.19026 0.0862 0.76754 0.0
N221 N 0.18043 0.07184 0.75453 0.0
N222 N 0.19896 0.06152 0.77719 0.0
C223 C 0.22139 0.06904 0.80519 0.0
C224 C 0.21643 0.08493 0.80019 0.0
C225 C 0.17688 0.10082 0.74639 0.0
H226 H 0.17638 0.09952 0.70914 0.0
H227 H 0.14946 0.10302 0.75815 0.0
H228 H 0.19362 0.11095 0.7553 0.0
O229 O 0.17549 0.05363 0.66135 0.0
O230 O 0.20497 0.03559 0.69971 0.0
H231 H 0.26221 0.05233 0.81762 0.0
H232 H 0.26496 0.0694 0.85315 0.0
C233 C 0.2467 0.06113 0.8365 0.0
H234 H 0.23151 0.05514 0.86322 0.0
H235 H 0.25839 0.02003 0.75564 0.0
O236 O 0.12452 0.08289 0.68022 0.0
C237 C 0.19649 0.04206 0.66251 0.0
Co238 Co 0.85971 0.94752 0.711 0.0
Co239 Co 0.813 0.97178 0.76384 0.0
C240 C 0.89223 0.97443 0.76015 0.0
O241 O 0.89497 0.96201 0.73703 0.0
O242 O 0.86213 0.97955 0.77254 0.0
C243 C 0.91336 0.92417 0.70072 0.0
O244 O 0.92503 0.92997 0.73899 0.0
C245 C 0.78891 0.98989 0.84227 0.0
C246 C 0.73218 0.99323 0.82716 0.0
C247 C 0.7578 0.99603 0.85964 0.0
N248 N 0.78195 0.98371 0.80147 0.0
N249 N 0.7481 0.98595 0.79237 0.0
C250 C 0.82368 0.98832 0.86601 0.0
H251 H 0.83674 0.9773 0.85602 0.0
H252 H 0.82025 0.98862 0.90322 0.0
H253 H 0.84109 0.99807 0.8559 0.0
C254 C 0.81898 0.92569 0.7682 0.0
N255 N 0.82798 0.94018 0.7556 0.0
N256 N 0.80896 0.95026 0.77858 0.0
C257 C 0.78752 0.94244 0.80704 0.0
C258 C 0.79306 0.92663 0.80129 0.0
C259 C 0.83266 0.91128 0.74595 0.0
H260 H 0.83379 0.91297 0.70887 0.0
H261 H 0.85986 0.90893 0.75826 0.0
H262 H 0.81573 0.90109 0.75336 0.0
O263 O 0.83331 0.95839 0.66276 0.0
O264 O 0.79928 0.97526 0.69942 0.0
H265 H 0.74082 0.95559 0.82093 0.0
H266 H 0.75142 0.94149 0.86392 0.0
C267 C 0.76267 0.94997 0.83977 0.0
H268 H 0.77697 0.95897 0.85924 0.0
H269 H 0.73559 0.982 0.7631 0.0
O270 O 0.88575 0.92993 0.68282 0.0
C271 C 0.81012 0.96912 0.66267 0.0
Co272 Co 0.60901 0.31453 0.46133 0.0
Co273 Co 0.56594 0.29018 0.51898 0.0
C274 C 0.6448 0.28828 0.51019 0.0
O275 O 0.64588 0.30029 0.48529 0.0
O276 O 0.61559 0.28318 0.52554 0.0
C277 C 0.66199 0.3377 0.44966 0.0
O278 O 0.6735 0.33189 0.48793 0.0
C279 C 0.54257 0.27234 0.59966 0.0
C280 C 0.48661 0.26786 0.58259 0.0
C281 C 0.51151 0.26583 0.61644 0.0
N282 N 0.53592 0.27826 0.55839 0.0
N283 N 0.5025 0.27537 0.54832 0.0
C284 C 0.57819 0.27258 0.62182 0.0
H285 H 0.59931 0.27116 0.59642 0.0
H286 H 0.58206 0.28392 0.63893 0.0
H287 H 0.58083 0.26311 0.64688 0.0
C288 C 0.56977 0.33637 0.52032 0.0
N289 N 0.57892 0.32187 0.50782 0.0
N290 N 0.56122 0.3118 0.5324 0.0
C291 C 0.54051 0.31963 0.56176 0.0
C292 C 0.54517 0.33545 0.55501 0.0
C293 C 0.58192 0.35073 0.49659 0.0
H294 H 0.58209 0.34874 0.45959 0.0
H295 H 0.6093 0.35349 0.50747 0.0
H296 H 0.56461 0.36079 0.50424 0.0
O297 O 0.5806 0.3035 0.41507 0.0
O298 O 0.55123 0.2859 0.45524 0.0
H299 H 0.49535 0.30593 0.5789 0.0
H300 H 0.50597 0.32069 0.62022 0.0
C301 C 0.51722 0.31212 0.59623 0.0
H302 H 0.53281 0.30355 0.61567 0.0
H303 H 0.49032 0.2788 0.51834 0.0
O304 O 0.63416 0.33207 0.43187 0.0
C305 C 0.55903 0.29217 0.4175 0.0
Co306 Co 0.39766 0.69687 0.4629 0.0
Co307 Co 0.44228 0.72114 0.51879 0.0
C308 C 0.36344 0.72333 0.5133 0.0
O309 O 0.36168 0.71125 0.48853 0.0
O310 O 0.39302 0.72842 0.52763 0.0
C311 C 0.34498 0.67326 0.45201 0.0
O312 O 0.33419 0.67851 0.49135 0.0
C313 C 0.46558 0.7392 0.59791 0.0
C314 C 0.52247 0.74247 0.58371 0.0
C315 C 0.49655 0.74531 0.61575 0.0
N316 N 0.47289 0.73299 0.55723 0.0
N317 N 0.50685 0.73519 0.5487 0.0
C318 C 0.43056 0.73771 0.62105 0.0
H319 H 0.41769 0.72663 0.61133 0.0
H320 H 0.43354 0.73822 0.6583 0.0
H321 H 0.41319 0.74738 0.61015 0.0
C322 C 0.43815 0.67495 0.52013 0.0
N323 N 0.42879 0.68945 0.50806 0.0
N324 N 0.44699 0.69952 0.53217 0.0
C325 C 0.46814 0.69168 0.56093 0.0
C326 C 0.46337 0.67586 0.55412 0.0
C327 C 0.42557 0.66059 0.4966 0.0
H328 H 0.42426 0.66263 0.45969 0.0
H329 H 0.39861 0.6577 0.50875 0.0
H330 H 0.4433 0.65059 0.50317 0.0
O331 O 0.42499 0.70785 0.41576 0.0
O332 O 0.45573 0.72538 0.45466 0.0
H333 H 0.51425 0.70486 0.57746 0.0
H334 H 0.50246 0.69063 0.61956 0.0
C335 C 0.49187 0.69916 0.59506 0.0
H336 H 0.47691 0.7081 0.61398 0.0
H337 H 0.51963 0.73123 0.51964 0.0
O338 O 0.37195 0.6794 0.43362 0.0
C339 C 0.44681 0.71911 0.41726 0.0
Co340 Co 0.64978 0.56449 0.71094 0.0
Co341 Co 0.69371 0.54033 0.76752 0.0
C342 C 0.61501 0.53827 0.7618 0.0
O343 O 0.6137 0.55018 0.73645 0.0
O344 O 0.64438 0.53316 0.7767 0.0
C345 C 0.59619 0.58752 0.70038 0.0
O346 O 0.58523 0.58175 0.73895 0.0
C347 C 0.71699 0.52233 0.8465 0.0
C348 C 0.77391 0.51908 0.83234 0.0
C349 C 0.74796 0.51623 0.86429 0.0
N350 N 0.72433 0.52854 0.80591 0.0
N351 N 0.7583 0.52636 0.79739 0.0
C352 C 0.68196 0.52382 0.86965 0.0
H353 H 0.66908 0.5349 0.86004 0.0
H354 H 0.68494 0.52332 0.9069 0.0
H355 H 0.66462 0.51414 0.85866 0.0
C356 C 0.68977 0.58651 0.76861 0.0
N357 N 0.68062 0.57199 0.75636 0.0
N358 N 0.6986 0.56196 0.78076 0.0
C359 C 0.71943 0.56985 0.80988 0.0
C360 C 0.71465 0.58566 0.80302 0.0
C361 C 0.67718 0.60083 0.74505 0.0
H362 H 0.65004 0.60363 0.75678 0.0
H363 H 0.69468 0.61089 0.752 0.0
H364 H 0.67624 0.59878 0.7081 0.0
O365 O 0.67736 0.5535 0.66384 0.0
O366 O 0.70717 0.5359 0.70343 0.0
H367 H 0.75304 0.57098 0.86917 0.0
H368 H 0.72756 0.55351 0.86309 0.0
C369 C 0.74275 0.56241 0.84448 0.0
H370 H 0.76533 0.55668 0.82733 0.0
H371 H 0.77108 0.53032 0.76839 0.0
O372 O 0.62384 0.58192 0.68208 0.0
C373 C 0.69886 0.54213 0.66584 0.0
Co374 Co 0.36111 0.44775 0.71156 0.0
Co375 Co 0.31435 0.47204 0.76415 0.0
C376 C 0.39359 0.47447 0.76174 0.0
O377 O 0.39622 0.46211 0.73836 0.0
O378 O 0.36351 0.4797 0.77384 0.0
C379 C 0.41509 0.42462 0.702 0.0
O380 O 0.42624 0.43049 0.74042 0.0
C381 C 0.28963 0.49031 0.84204 0.0
C382 C 0.23288 0.49333 0.82654 0.0
C383 C 0.25832 0.49636 0.85906 0.0
N384 N 0.28297 0.48395 0.80137 0.0
N385 N 0.24909 0.48601 0.79204 0.0
C386 C 0.32435 0.48896 0.86604 0.0
H387 H 0.33751 0.47789 0.85679 0.0
H388 H 0.32083 0.48952 0.9032 0.0
H389 H 0.34172 0.49866 0.8554 0.0
C390 C 0.31997 0.42592 0.76817 0.0
N391 N 0.32897 0.44041 0.7556 0.0
N392 N 0.31003 0.45049 0.77868 0.0
C393 C 0.28872 0.44268 0.8073 0.0
C394 C 0.2942 0.42685 0.80147 0.0
C395 C 0.33365 0.41152 0.74584 0.0
H396 H 0.33531 0.41331 0.70884 0.0
H397 H 0.36062 0.40902 0.75869 0.0
H398 H 0.31639 0.40139 0.75262 0.0
O399 O 0.33534 0.45873 0.6631 0.0
O400 O 0.30127 0.47566 0.69945 0.0
H401 H 0.24207 0.45572 0.82226 0.0
H402 H 0.2537 0.44177 0.86528 0.0
C403 C 0.26436 0.45022 0.84058 0.0
H404 H 0.27885 0.45932 0.8594 0.0
H405 H 0.23676 0.48191 0.76282 0.0
O406 O 0.38748 0.43022 0.68368 0.0
C407 C 0.31233 0.46954 0.66279 0.0
Co408 Co 0.609 0.81479 0.95989 0.0
Co409 Co 0.56617 0.79041 0.01772 0.0
C410 C 0.64511 0.78869 0.00884 0.0
O411 O 0.64612 0.80071 0.98398 0.0
O412 O 0.61592 0.78353 0.02406 0.0
C413 C 0.66141 0.83817 0.94861 0.0
O414 O 0.6724 0.83259 0.98741 0.0
C415 C 0.54324 0.77274 0.09903 0.0
C416 C 0.48778 0.76744 0.08133 0.0
C417 C 0.51251 0.76587 0.11559 0.0
N418 N 0.53654 0.7784 0.05745 0.0
N419 N 0.50342 0.77504 0.04705 0.0
C420 C 0.57858 0.77359 0.1218 0.0
H421 H 0.60016 0.77317 0.09679 0.0
H422 H 0.58064 0.78471 0.14055 0.0
H423 H 0.58218 0.76383 0.1457 0.0
C424 C 0.5694 0.83661 0.01867 0.0
N425 N 0.57877 0.82212 1.00632 0.0
N426 N 0.56113 0.81203 0.03091 0.0
C427 C 0.5402 0.81984 0.06007 0.0
C428 C 0.5447 0.83567 0.05324 0.0
C429 C 0.58142 0.85098 0.9949 0.0
H430 H 0.58186 0.84895 0.95793 0.0
H431 H 0.60866 0.85386 1.00605 0.0
H432 H 0.56386 0.86098 1.00228 0.0
O433 O 0.58074 0.80361 0.91373 0.0
O434 O 0.55141 0.78603 0.95405 0.0
H435 H 0.49544 0.80584 0.07685 0.0
H436 H 0.50491 0.82086 0.11783 0.0
C437 C 0.51681 0.81229 0.09436 0.0
H438 H 0.53253 0.80395 0.11442 0.0
H439 H 0.49127 0.77818 0.01676 0.0
O440 O 0.63401 0.83234 0.9303 0.0
C441 C 0.55923 0.79225 0.91625 0.0
Co442 Co 0.39636 0.19727 0.96451 0.0
Co443 Co 0.44079 0.22164 0.02006 0.0
C444 C 0.36185 0.22353 0.01539 0.0
O445 O 0.36023 0.21148 0.99049 0.0
O446 O 0.3914 0.22872 0.02949 0.0
C447 C 0.34403 0.17351 0.95371 0.0
O448 O 0.33318 0.17871 0.99307 0.0
C449 C 0.4643 0.23967 0.09911 0.0
C450 C 0.52098 0.24324 0.08416 0.0
C451 C 0.49527 0.24589 0.11661 0.0
N452 N 0.47141 0.23358 0.05823 0.0
N453 N 0.50523 0.23596 0.04925 0.0
C454 C 0.42953 0.23796 0.12274 0.0
H455 H 0.41675 0.22688 0.11279 0.0
H456 H 0.43288 0.2383 0.15996 0.0
H457 H 0.41191 0.24763 0.11252 0.0
C458 C 0.43743 0.17545 0.02136 0.0
N459 N 0.42781 0.18993 0.00938 0.0
N460 N 0.44601 0.20004 0.03332 0.0
C461 C 0.46745 0.19225 0.06186 0.0
C462 C 0.46283 0.17643 0.0551 0.0
C463 C 0.42487 0.16105 0.99799 0.0
H464 H 0.42344 0.16307 0.96107 0.0
H465 H 0.39795 0.15815 0.01028 0.0
H466 H 0.44267 0.15108 1.00455 0.0
O467 O 0.42327 0.20833 0.9172 0.0
O468 O 0.45389 0.22595 0.95585 0.0
H469 H 0.51336 0.20565 0.07787 0.0
H470 H 0.50236 0.19128 0.11993 0.0
C471 C 0.49131 0.1998 0.09573 0.0
H472 H 0.4763 0.20862 0.11501 0.0
H473 H 0.51785 0.23211 0.01995 0.0
O474 O 0.37088 0.17974 0.9353 0.0
C475 C 0.44493 0.21965 0.91852 0.0
Co476 Co 0.64886 0.06448 0.20899 0.0
Co477 Co 0.69232 0.03979 0.26397 0.0
C478 C 0.61332 0.03856 0.25968 0.0
O479 O 0.61212 0.05051 0.23453 0.0
O480 O 0.6427 0.03325 0.27387 0.0
C481 C 0.59625 0.08794 0.19963 0.0
O482 O 0.58542 0.08214 0.23822 0.0
C483 C 0.71482 0.02321 0.34525 0.0
C484 C 0.7651 0.01242 0.32374 0.0
C485 C 0.74227 0.01383 0.36011 0.0
N486 N 0.72133 0.02728 0.30222 0.0
N487 N 0.7514 0.02077 0.28953 0.0
C488 C 0.68149 0.02734 0.36982 0.0
H489 H 0.66101 0.01853 0.36177 0.0
H490 H 0.67161 0.03879 0.35831 0.0
H491 H 0.68536 0.02746 0.40688 0.0
C492 C 0.69049 0.08594 0.2666 0.0
N493 N 0.68064 0.07155 0.25409 0.0
N494 N 0.69896 0.0613 0.2773 0.0
C495 C 0.72102 0.06892 0.30555 0.0
C496 C 0.71633 0.0848 0.29977 0.0
C497 C 0.67753 0.10046 0.2444 0.0
H498 H 0.67623 0.09874 0.20732 0.0
H499 H 0.65048 0.10309 0.25677 0.0
H500 H 0.695 0.11049 0.25179 0.0
O501 O 0.67547 0.0533 0.16121 0.0
O502 O 0.70498 0.03531 0.19972 0.0
H503 H 0.76326 0.05308 0.3195 0.0
H504 H 0.76148 0.06948 0.35777 0.0
C505 C 0.74547 0.06108 0.33812 0.0
H506 H 0.72968 0.05416 0.36225 0.0
H507 H 0.76249 0.02198 0.25746 0.0
O508 O 0.62355 0.08222 0.18082 0.0
C509 C 0.69649 0.04174 0.16246 0.0
Co510 Co 0.35995 0.94769 0.21072 0.0
Co511 Co 0.3132 0.97178 0.26425 0.0
C512 C 0.39233 0.9745 0.26072 0.0
O513 O 0.395 0.96218 0.23717 0.0
O514 O 0.36226 0.9796 0.27331 0.0
C515 C 0.41414 0.92467 0.2006 0.0
O516 O 0.42529 0.9305 0.23908 0.0
C517 C 0.28884 0.9899 0.34264 0.0
C518 C 0.23194 0.99283 0.32784 0.0
C519 C 0.2576 0.99588 0.36008 0.0
N520 N 0.28193 0.98356 0.30201 0.0
N521 N 0.24796 0.98556 0.29311 0.0
C522 C 0.32376 0.98861 0.36618 0.0
H523 H 0.33699 0.97759 0.35667 0.0
H524 H 0.32052 0.98913 0.40339 0.0
H525 H 0.34092 0.99837 0.35541 0.0
C526 C 0.31938 0.92567 0.2674 0.0
N527 N 0.32826 0.9402 0.25511 0.0
N528 N 0.30937 0.9502 0.27857 0.0
C529 C 0.28822 0.94229 0.30714 0.0
C530 C 0.29372 0.92648 0.30088 0.0
C531 C 0.33292 0.91135 0.24451 0.0
H532 H 0.35997 0.90881 0.25704 0.0
H533 H 0.31571 0.90119 0.25114 0.0
H534 H 0.33438 0.91327 0.20755 0.0
O535 O 0.33349 0.9586 0.16269 0.0
O536 O 0.29954 0.97539 0.19978 0.0
H537 H 0.2414 0.95515 0.32254 0.0
H538 H 0.25345 0.9412 0.36533 0.0
C539 C 0.26386 0.94971 0.34066 0.0
H540 H 0.27826 0.95884 0.35947 0.0
H541 H 0.23547 0.98146 0.26401 0.0
O542 O 0.38645 0.93026 0.18242 0.0
C543 C 0.3103 0.96934 0.16288 0.0
H544 H 0.22621 0.35164 0.97699 0.0
H545 H 0.14687 0.35323 0.87202 0.0
H546 H 0.25695 0.37335 0.9421 0.0
H547 H 0.17815 0.37468 0.83641 0.0
H548 H 0.22298 0.423 0.81018 0.0
H549 H 0.19167 0.40167 0.84677 0.0
H550 H 0.29176 0.37969 0.87679 0.0
H551 H 0.32289 0.40143 0.84186 0.0
C552 C 0.2154 0.35657 0.94634 0.0
C553 C 0.18407 0.35068 0.92731 0.0
C554 C 0.23317 0.36897 0.92616 0.0
C555 C 0.22011 0.37577 0.88636 0.0
C556 C 0.18872 0.36988 0.86738 0.0
C557 C 0.17088 0.35751 0.88765 0.0
C558 C 0.23819 0.41367 0.82512 0.0
C559 C 0.2753 0.41387 0.82356 0.0
C560 C 0.2203 0.40136 0.84559 0.0
C561 C 0.23916 0.38893 0.86474 0.0
C562 C 0.27638 0.38916 0.86296 0.0
C563 C 0.29424 0.40151 0.84262 0.0
H564 H 0.78389 0.66045 0.98001 0.0
H565 H 0.86232 0.65913 0.87391 0.0
H566 H 0.75258 0.63893 0.94444 0.0
H567 H 0.83062 0.63781 0.83791 0.0
H568 H 0.78579 0.58919 0.81297 0.0
H569 H 0.81726 0.61055 0.84957 0.0
H570 H 0.71745 0.63308 0.87755 0.0
H571 H 0.6861 0.6114 0.84211 0.0
C572 C 0.79441 0.65561 0.94902 0.0
C573 C 0.82563 0.66152 0.92983 0.0
C574 C 0.77632 0.64333 0.92847 0.0
C575 C 0.78906 0.63665 0.88829 0.0
C576 C 0.82032 0.64256 0.86914 0.0
C577 C 0.83838 0.65485 0.88965 0.0
C578 C 0.77067 0.59867 0.82736 0.0
C579 C 0.73359 0.59865 0.82508 0.0
C580 C 0.78865 0.61097 0.84788 0.0
C581 C 0.76989 0.62354 0.86649 0.0
C582 C 0.73269 0.6235 0.86406 0.0
C583 C 0.71474 0.61118 0.84349 0.0
H584 H 0.93692 0.65157 0.09436 0.0
H585 H 0.03663 0.67273 0.05964 0.0
H586 H 0.9683 0.6299 0.12948 0.0
H587 H 0.06821 0.65141 0.09603 0.0
H588 H 0.11204 0.60267 0.12104 0.0
H589 H 0.08043 0.62406 0.08549 0.0
H590 H 0.00471 0.62408 0.19477 0.0
H591 H 0.03586 0.60248 0.22984 0.0
C592 C 0.96558 0.65157 0.09447 0.0
C593 C 0.98441 0.6638 0.07455 0.0
C594 C 0.98358 0.63926 0.11487 0.0
C595 C 0.02081 0.63892 0.11568 0.0
C596 C 0.03956 0.65121 0.09561 0.0
C597 C 0.02153 0.6635 0.07522 0.0
C598 C 0.08864 0.60723 0.13749 0.0
C599 C 0.07646 0.60084 0.17826 0.0
C600 C 0.07062 0.61956 0.11723 0.0
C601 C 0.04001 0.6258 0.13727 0.0
C602 C 0.02791 0.61942 0.1781 0.0
C603 C 0.04592 0.60709 0.19836 0.0
H604 H 0.0105 0.36054 1.00812 0.0
H605 H 0.02539 0.33846 0.13727 0.0
H606 H 0.97917 0.38193 0.04481 0.0
H607 H 0.99309 0.35958 0.17413 0.0
H608 H 0.96957 0.40844 0.22852 0.0
H609 H 1.00036 0.38697 0.19204 0.0
H610 H 0.92395 0.38757 0.08355 0.0
H611 H 0.89349 0.40924 0.1196 0.0
C612 C 0.00704 0.36032 0.04442 0.0
C613 C 0.02058 0.34799 0.07 0.0
C614 C 0.98879 0.37246 0.06541 0.0
C615 C 0.98363 0.37249 0.11246 0.0
C616 C 0.99699 0.36003 0.13793 0.0
C617 C 0.01521 0.34788 0.11687 0.0
C618 C 0.95931 0.404 0.19689 0.0
C619 C 0.92911 0.4106 0.17693 0.0
C620 C 0.97686 0.39162 0.17611 0.0
C621 C 0.96465 0.38554 0.13486 0.0
C622 C 0.93435 0.39211 0.115 0.0
C623 C 0.91677 0.40449 0.1358 0.0
H624 H 0.14604 0.85285 0.371 0.0
H625 H 0.2258 0.85109 0.47543 0.0
H626 H 0.1774 0.87426 0.33522 0.0
H627 H 0.25661 0.87275 0.44039 0.0
H628 H 0.32238 0.90089 0.34038 0.0
H629 H 0.29122 0.87909 0.37491 0.0
H630 H 0.19117 0.90124 0.34577 0.0
H631 H 0.22251 0.92264 0.30958 0.0
C632 C 0.17016 0.85708 0.38647 0.0
C633 C 0.18343 0.85023 0.42604 0.0
C634 C 0.18805 0.86942 0.36609 0.0
C635 C 0.21957 0.87525 0.38489 0.0
C636 C 0.23273 0.86841 0.42458 0.0
C637 C 0.21491 0.85604 0.44485 0.0
C638 C 0.29373 0.901 0.34123 0.0
C639 C 0.27481 0.91343 0.32258 0.0
C640 C 0.27585 0.8886 0.36135 0.0
C641 C 0.23864 0.88841 0.36328 0.0
C642 C 0.21979 0.9009 0.34446 0.0
C643 C 0.2377 0.91325 0.32422 0.0
H644 H 0.78469 0.15964 0.47717 0.0
H645 H 0.86224 0.15914 0.37 0.0
H646 H 0.75443 0.13775 0.44233 0.0
H647 H 0.83137 0.13751 0.3344 0.0
H648 H 0.6877 0.10968 0.34279 0.0
H649 H 0.71872 0.13142 0.37803 0.0
H650 H 0.81897 0.1104 0.34321 0.0
H651 H 0.78765 0.08906 0.30627 0.0
C652 C 0.79521 0.15491 0.44604 0.0
C653 C 0.82588 0.16116 0.42637 0.0
C654 C 0.77771 0.1424 0.42589 0.0
C655 C 0.79036 0.13586 0.38544 0.0
C656 C 0.82113 0.1421 0.36585 0.0
C657 C 0.83873 0.15458 0.38612 0.0
C658 C 0.71637 0.10979 0.34269 0.0
C659 C 0.73535 0.09768 0.32226 0.0
C660 C 0.73417 0.12215 0.36317 0.0
C661 C 0.7714 0.12266 0.36369 0.0
C662 C 0.79032 0.11049 0.34309 0.0
C663 C 0.77245 0.09816 0.32244 0.0
H664 H 0.99936 0.15247 0.50762 0.0
H665 H 0.98285 0.17436 0.63696 0.0
H666 H 0.0308 0.13117 0.54438 0.0
H667 H 0.01524 0.15332 0.67392 0.0
H668 H 0.03808 0.10426 0.72716 0.0
H669 H 0.00785 0.12587 0.69089 0.0
H670 H 0.08569 0.12561 0.58409 0.0
H671 H 0.11562 0.1038 0.61994 0.0
C672 C 1.00251 0.15268 0.54398 0.0
C673 C 0.98845 0.16492 0.56961 0.0
C674 C 0.02081 0.14059 0.565 0.0
C675 C 0.0255 0.14052 0.61213 0.0
C676 C 0.0117 0.15291 0.63765 0.0
C677 C 0.99342 0.16501 0.61655 0.0
C678 C 0.0488 0.10881 0.69596 0.0
C679 C 0.07922 0.10225 0.67638 0.0
C680 C 0.03157 0.12127 0.67531 0.0
C681 C 0.04432 0.12748 0.63457 0.0
C682 C 0.07489 0.12098 0.61514 0.0
C683 C 0.09215 0.10852 0.63582 0.0
H684 H 0.89483 0.90879 0.62333 0.0
H685 H 0.9736 0.90953 0.72912 0.0
H686 H 0.9252 0.88703 0.58771 0.0
H687 H 0.00432 0.88796 0.693 0.0
H688 H 0.02986 0.83915 0.64048 0.0
H689 H 0.99784 0.86037 0.6773 0.0
H690 H 0.97948 0.88148 0.5471 0.0
H691 H 0.01051 0.85999 0.51055 0.0
C692 C 0.9187 0.90435 0.63892 0.0
C693 C 0.93181 0.91093 0.67905 0.0
C694 C 0.93621 0.89192 0.61836 0.0
C695 C 0.96726 0.88576 0.63743 0.0
C696 C 0.98025 0.89229 0.6777 0.0
C697 C 0.96273 0.90473 0.69827 0.0
C698 C 0.01878 0.84833 0.61991 0.0
C699 C 0.0228 0.84805 0.57283 0.0
C700 C 1.00072 0.86053 0.64092 0.0
C701 C 0.98619 0.87267 0.61517 0.0
C702 C 0.99003 0.87226 0.56793 0.0
C703 C 0.0081 0.86006 0.547 0.0
H704 H 0.82106 0.40046 0.34074 0.0
H705 H 0.72168 0.42286 0.3113 0.0
H706 H 0.7894 0.37884 0.37573 0.0
H707 H 0.68988 0.40154 0.34744 0.0
H708 H 0.72269 0.35187 0.4782 0.0
H709 H 0.75411 0.37328 0.4426 0.0
H710 H 0.6763 0.37422 0.33575 0.0
H711 H 0.64446 0.35297 0.3718 0.0
C712 C 0.79242 0.40074 0.34195 0.0
C713 C 0.77375 0.41331 0.32363 0.0
C714 C 0.77429 0.38845 0.36225 0.0
C715 C 0.73709 0.38848 0.3645 0.0
C716 C 0.71849 0.40108 0.3459 0.0
C717 C 0.73666 0.41336 0.32565 0.0
C718 C 0.71223 0.35664 0.44713 0.0
C719 C 0.68105 0.3507 0.42786 0.0
C720 C 0.73039 0.36886 0.42657 0.0
C721 C 0.71777 0.37545 0.38628 0.0
C722 C 0.68652 0.36953 0.36705 0.0
C723 C 0.66838 0.35729 0.38759 0.0
H724 H 0.18769 0.60864 0.34711 0.0
H725 H 0.28735 0.58975 0.30236 0.0
H726 H 0.21875 0.63023 0.38334 0.0
H727 H 0.31875 0.61099 0.33981 0.0
H728 H 0.35978 0.65987 0.37026 0.0
H729 H 0.32856 0.6386 0.33336 0.0
H730 H 0.25712 0.63559 0.44688 0.0
H731 H 0.28782 0.65708 0.48332 0.0
C732 C 0.21631 0.60911 0.34534 0.0
C733 C 0.23523 0.59752 0.32243 0.0
C734 C 0.23414 0.62138 0.36632 0.0
C735 C 0.2713 0.62232 0.36469 0.0
C736 C 0.29013 0.61071 0.34141 0.0
C737 C 0.27225 0.59846 0.32041 0.0
C738 C 0.33739 0.65468 0.38735 0.0
C739 C 0.32626 0.66021 0.42972 0.0
C740 C 0.31961 0.64241 0.36629 0.0
C741 C 0.2903 0.63536 0.38712 0.0
C742 C 0.27926 0.64088 0.42957 0.0
C743 C 0.29702 0.65316 0.4506 0.0
H744 H 0.53467 0.67246 0.56239 0.0
H745 H 0.43562 0.65009 0.59361 0.0
H746 H 0.56685 0.6512 0.59822 0.0
H747 H 0.46766 0.62851 0.6283 0.0
H748 H 0.53565 0.60163 0.72984 0.0
H749 H 0.5037 0.62297 0.69461 0.0
H750 H 0.58033 0.62389 0.58643 0.0
H751 H 0.6127 0.60272 0.62209 0.0
C752 C 0.51985 0.66297 0.57707 0.0
C753 C 0.48274 0.66292 0.57564 0.0
C754 C 0.53823 0.65072 0.59714 0.0
C755 C 0.51984 0.63814 0.61614 0.0
C756 C 0.48262 0.6381 0.61449 0.0
C757 C 0.46427 0.65037 0.59437 0.0
C758 C 0.54573 0.60638 0.69856 0.0
C759 C 0.57675 0.60046 0.6788 0.0
C760 C 0.52726 0.61856 0.67821 0.0
C761 C 0.53941 0.62513 0.63766 0.0
C762 C 0.57048 0.61922 0.61793 0.0
C763 C 0.58892 0.60702 0.63825 0.0
H764 H 0.5737 0.36105 0.59475 0.0
H765 H 0.474 0.33907 0.56433 0.0
H766 H 0.54234 0.38277 0.62998 0.0
H767 H 0.44249 0.36048 0.60064 0.0
H768 H 0.39804 0.40926 0.62402 0.0
H769 H 0.42971 0.38782 0.58858 0.0
H770 H 0.50663 0.38866 0.69648 0.0
H771 H 0.47535 0.41029 0.73152 0.0
C772 C 0.54505 0.36088 0.59585 0.0
C773 C 0.5262 0.34841 0.57715 0.0
C774 C 0.52709 0.37323 0.61627 0.0
C775 C 0.48988 0.37335 0.61821 0.0
C776 C 0.47111 0.36083 0.59933 0.0
C777 C 0.4891 0.3485 0.57898 0.0
C778 C 0.42173 0.40489 0.64018 0.0
C779 C 0.43418 0.41151 0.68059 0.0
C780 C 0.43977 0.39253 0.61999 0.0
C781 C 0.47071 0.38651 0.6397 0.0
C782 C 0.48315 0.39314 0.68011 0.0
C783 C 0.46508 0.40549 0.70034 0.0
H784 H 0.72061 0.85307 0.97906 0.0
H785 H 0.64556 0.85269 0.86895 0.0
H786 H 0.75217 0.87445 0.94356 0.0
H787 H 0.6776 0.87389 0.83297 0.0
H788 H 0.82105 0.90145 0.8436 0.0
H789 H 0.78925 0.87985 0.87846 0.0
H790 H 0.68975 0.90134 0.84297 0.0
H791 H 0.72175 0.92261 0.80692 0.0
C792 C 0.7109 0.8575 0.94719 0.0
C793 C 0.68054 0.85116 0.92686 0.0
C794 C 0.72915 0.86971 0.92669 0.0
C795 C 0.71748 0.87587 0.88536 0.0
C796 C 0.68707 0.86954 0.86507 0.0
C797 C 0.66881 0.85733 0.88557 0.0
C798 C 0.79239 0.90146 0.8432 0.0
C799 C 0.77378 0.91367 0.82289 0.0
C800 C 0.77416 0.88918 0.86342 0.0
C801 C 0.73692 0.88888 0.86363 0.0
C802 C 0.7184 0.90112 0.84303 0.0
C803 C 0.73666 0.91338 0.82283 0.0
H804 H 0.35905 0.16024 0.8719 0.0
H805 H 0.28715 0.15713 0.98495 0.0
H806 H 0.32816 0.13891 0.83483 0.0
H807 H 0.25678 0.13558 0.94835 0.0
H808 H 0.18767 0.1087 0.84795 0.0
H809 H 0.2185 0.13024 0.88471 0.0
H810 H 0.31871 0.11128 0.84095 0.0
H811 H 0.28753 0.0901 0.80294 0.0
C812 C 0.33675 0.15497 0.88895 0.0
C813 C 0.32553 0.16042 0.93136 0.0
C814 C 0.31916 0.14267 0.86781 0.0
C815 C 0.28997 0.13551 0.88859 0.0
C816 C 0.27885 0.14095 0.93108 0.0
C817 C 0.29641 0.15326 0.9522 0.0
C818 C 0.21629 0.10921 0.8463 0.0
C819 C 0.23534 0.09772 0.82316 0.0
C820 C 0.23398 0.12145 0.86756 0.0
C821 C 0.27113 0.12246 0.866 0.0
C822 C 0.2901 0.11094 0.84253 0.0
C823 C 0.27235 0.09872 0.82122 0.0
H824 H 0.53633 0.10226 0.23018 0.0
H825 H 0.6124 0.1032 0.12128 0.0
H826 H 0.50434 0.1237 0.1955 0.0
H827 H 0.57998 0.12447 0.08618 0.0
H828 H 0.43543 0.1507 0.09516 0.0
H829 H 0.46775 0.12916 0.12959 0.0
H830 H 0.56669 0.15183 0.09811 0.0
H831 H 0.53421 0.17307 0.06256 0.0
C832 C 0.5462 0.10701 0.19878 0.0
C833 C 0.57693 0.10101 0.17851 0.0
C834 C 0.52771 0.11924 0.17875 0.0
C835 C 0.53955 0.12578 0.13801 0.0
C836 C 0.57037 0.11981 0.11783 0.0
C837 C 0.58884 0.10756 0.13783 0.0
C838 C 0.46408 0.15099 0.09557 0.0
C839 C 0.4824 0.16352 0.07652 0.0
C840 C 0.48259 0.13875 0.11554 0.0
C841 C 0.51982 0.13879 0.11672 0.0
C842 C 0.53806 0.15136 0.09741 0.0
C843 C 0.51951 0.16359 0.0775 0.0
H844 H 0.47347 0.83928 0.0622 0.0
H845 H 0.57305 0.86128 0.09313 0.0
H846 H 0.44183 0.86067 0.09848 0.0
H847 H 0.54158 0.88297 0.12831 0.0
H848 H 0.47447 0.91036 0.22994 0.0
H849 H 0.50583 0.88879 0.19472 0.0
H850 H 0.42892 0.88801 0.0868 0.0
H851 H 0.39716 0.90939 0.12243 0.0
C852 C 0.48852 0.8487 0.07696 0.0
C853 C 0.52562 0.84862 0.0753 0.0
C854 C 0.47046 0.86103 0.09729 0.0
C855 C 0.48916 0.87354 0.11632 0.0
C856 C 0.52637 0.87343 0.1145 0.0
C857 C 0.5444 0.8611 0.09411 0.0
C858 C 0.46421 0.90559 0.19871 0.0
C859 C 0.43329 0.91161 0.17902 0.0
C860 C 0.48233 0.89327 0.17837 0.0
C861 C 0.46992 0.88667 0.1379 0.0
C862 C 0.43896 0.89269 0.11825 0.0
C863 C 0.42087 0.90502 0.13855 0.0
H864 H 0.99682 0.24153 0.39093 0.0
H865 H 0.92093 0.21153 0.32509 0.0
H866 H 0.01327 0.25235 0.31764 0.0
H867 H 0.93755 0.2223 0.25218 0.0
H868 H 0.94467 0.25881 0.14009 0.0
H869 H 0.93069 0.24762 0.21344 0.0
H870 H 0.0421 0.24458 0.24435 0.0
H871 H 0.05619 0.25541 0.17055 0.0
C872 C 0.9838 0.23717 0.36089 0.0
C873 C 0.95743 0.22569 0.364 0.0
C874 C 0.99335 0.24333 0.3189 0.0
C875 C 0.97653 0.23825 0.27919 0.0
C876 C 0.95063 0.22661 0.28224 0.0
C877 C 0.94129 0.22037 0.32407 0.0
C878 C 0.96624 0.25576 0.16249 0.0
C879 C 1.00155 0.25838 0.14969 0.0
C880 C 0.95821 0.24931 0.20448 0.0
C881 C 0.9853 0.24526 0.23476 0.0
C882 C 0.02063 0.24783 0.22205 0.0
C883 C 0.02869 0.2542 0.17982 0.0
H884 H 0.05413 0.80742 0.33221 0.0
H885 H 0.03962 0.76269 0.39513 0.0
H886 H 0.03639 0.79634 0.25934 0.0
H887 H 0.02294 0.7516 0.32195 0.0
H888 H 0.05279 0.73868 0.16888 0.0
H889 H 0.06407 0.74983 0.24371 0.0
H890 H 0.97576 0.78097 0.22637 0.0
H891 H 0.96379 0.76947 0.15182 0.0
C892 C 0.047 0.79526 0.33052 0.0
C893 C 0.0483 0.78591 0.36936 0.0
C894 C 0.03674 0.78897 0.28893 0.0
C895 C 0.02844 0.77314 0.28525 0.0
C896 C 0.0293 0.76383 0.32407 0.0
C897 C 0.03871 0.7702 0.36586 0.0
C898 C 0.03574 0.74786 0.18119 0.0
C899 C 0.00734 0.75319 0.15489 0.0
C900 C 0.04207 0.75416 0.22394 0.0
C901 C 0.02069 0.76619 0.24063 0.0
C902 C 0.99254 0.77168 0.21412 0.0
C903 C 0.98565 0.7651 0.17174 0.0
H904 H 0.31029 0.51011 0.39719 0.0
H905 H 0.19895 0.50331 0.42382 0.0
H906 H 0.32452 0.49908 0.47058 0.0
H907 H 0.21332 0.49273 0.49797 0.0
H908 H 0.25901 0.49053 0.64627 0.0
H909 H 0.24121 0.5013 0.57321 0.0
H910 H 0.31951 0.47288 0.50662 0.0
H911 H 0.3373 0.46214 0.579 0.0
C912 C 0.28878 0.50636 0.41873 0.0
C913 C 0.25341 0.50793 0.40475 0.0
C914 C 0.29698 0.50002 0.4608 0.0
C915 C 0.27002 0.49509 0.49008 0.0
C916 C 0.23461 0.49668 0.47638 0.0
C917 C 0.22639 0.50289 0.43395 0.0
C918 C 0.27227 0.48652 0.616 0.0
C919 C 0.29972 0.47552 0.61862 0.0
C920 C 0.26197 0.49264 0.57419 0.0
C921 C 0.27918 0.48802 0.53428 0.0
C922 C 0.3061 0.47683 0.53686 0.0
C923 C 0.31614 0.47061 0.57842 0.0
H924 H 0.72011 0.51234 0.64981 0.0
H925 H 0.7086 0.55699 0.58542 0.0
H926 H 0.73761 0.5009 0.57735 0.0
H927 H 0.72711 0.54557 0.51337 0.0
H928 H 0.79785 0.5185 0.40628 0.0
H929 H 0.78643 0.52997 0.48098 0.0
H930 H 0.69795 0.49898 0.49897 0.0
H931 H 0.70871 0.48784 0.42401 0.0
C932 C 0.72192 0.51976 0.6204 0.0
C933 C 0.71286 0.53555 0.62323 0.0
C934 C 0.73178 0.5132 0.57902 0.0
C935 C 0.73365 0.52239 0.54 0.0
C936 C 0.72601 0.53829 0.54311 0.0
C937 C 0.71531 0.54477 0.58423 0.0
C938 C 0.77613 0.51412 0.42642 0.0
C939 C 0.75418 0.50229 0.40967 0.0
C940 C 0.76956 0.52069 0.4689 0.0
C941 C 0.74148 0.51526 0.49562 0.0
C942 C 0.71993 0.50326 0.47909 0.0
C943 C 0.72595 0.49697 0.43625 0.0
H944 H 0.99893 0.74149 0.89765 0.0
H945 H 0.92514 0.71115 0.82926 0.0
H946 H 0.01606 0.75263 0.82488 0.0
H947 H 0.94235 0.72223 0.75711 0.0
H948 H 0.94791 0.75909 0.64679 0.0
H949 H 0.93428 0.74789 0.72016 0.0
H950 H 0.04577 0.74521 0.75081 0.0
H951 H 0.05957 0.75604 0.67686 0.0
C952 C 0.98656 0.73711 0.86719 0.0
C953 C 0.96049 0.72547 0.86943 0.0
C954 C 0.99647 0.74346 0.82553 0.0
C955 C 0.98028 0.7384 0.78536 0.0
C956 C 0.95488 0.72654 0.78755 0.0
C957 C 0.94519 0.72012 0.82898 0.0
C958 C 0.96959 0.75613 0.66911 0.0
C959 C 0.00483 0.75879 0.65609 0.0
C960 C 0.96175 0.74968 0.71114 0.0
C961 C 0.98896 0.74568 0.74128 0.0
C962 C 0.02423 0.7484 0.72855 0.0
C963 C 0.03211 0.75476 0.68623 0.0
H964 H 0.01169 0.27098 0.89121 0.0
H965 H 0.08785 0.30086 0.82579 0.0
H966 H 0.99502 0.26026 0.81778 0.0
H967 H 0.07099 0.2902 0.75272 0.0
H968 H 0.06316 0.25397 0.63968 0.0
H969 H 0.07742 0.26504 0.71322 0.0
H970 H 0.96613 0.26802 0.74483 0.0
H971 H 0.95176 0.2573 0.67085 0.0
C972 C 0.02473 0.27534 0.86124 0.0
C973 C 0.05124 0.28675 0.86452 0.0
C974 C 0.01505 0.26923 0.81915 0.0
C975 C 0.03186 0.27431 0.77949 0.0
C976 C 0.05791 0.28588 0.78272 0.0
C977 C 0.06741 0.29206 0.82466 0.0
C978 C 0.04168 0.25698 0.66226 0.0
C979 C 0.00632 0.25439 0.64958 0.0
C980 C 0.04987 0.26337 0.70438 0.0
C981 C 0.02291 0.26736 0.73492 0.0
C982 C 0.98752 0.2648 0.72234 0.0
C983 C 0.9793 0.25851 0.67999 0.0
H984 H 0.24301 0.02866 0.94211 0.0
H985 H 0.2542 0.98367 0.87984 0.0
H986 H 0.25643 0.01743 0.01564 0.0
H987 H 0.26709 0.97226 0.95341 0.0
H988 H 0.33315 0.96158 0.07835 0.0
H989 H 0.31386 0.97205 1.00653 0.0
H990 H 0.23697 1.0007 0.07535 0.0
H991 H 0.25718 0.99052 0.14782 0.0
C992 C 0.24724 0.01627 0.9444 0.0
C993 C 0.24687 0.00696 0.90547 0.0
C994 C 0.25513 0.00982 0.98655 0.0
C995 C 0.26287 0.99391 0.99064 0.0
C996 C 0.26183 0.98459 0.95156 0.0
C997 C 0.25425 0.99108 0.90943 0.0
C998 C 0.31197 0.97005 0.07832 0.0
C999 C 0.2968 0.97522 0.11902 0.0
C1000 C 0.3007 0.976 0.03693 0.0
C1001 C 0.27373 0.98721 0.03494 0.0
C1002 C 0.25812 0.99223 0.0756 0.0
C1003 C 0.26957 0.98632 0.11717 0.0
H1004 H 0.79543 0.01873 0.90268 0.0
H1005 H 0.70565 0.98829 0.91827 0.0
H1006 H 0.7835 0.03001 0.97748 0.0
H1007 H 0.69437 0.99923 0.99336 0.0
H1008 H 0.7167 0.01189 0.14514 0.0
H1009 H 0.7338 1.00069 0.07221 0.0
H1010 H 0.72415 0.04567 0.00989 0.0
H1011 H 0.70603 0.05685 0.08241 0.0
C1012 C 0.77342 0.01437 0.92235 0.0
C1013 C 0.75148 1.00264 0.90498 0.0
C1014 C 0.76656 0.02083 0.96489 0.0
C1015 C 0.73817 0.01539 0.99107 0.0
C1016 C 0.71657 1.00352 0.9739 0.0
C1017 C 0.7229 0.99734 0.93098 0.0
C1018 C 0.71855 0.01942 0.11599 0.0
C1019 C 0.7099 0.03524 0.11943 0.0
C1020 C 0.72819 0.01299 0.07433 0.0
C1021 C 0.73023 0.02234 0.03566 0.0
C1022 C 0.72289 0.03826 0.03935 0.0
C1023 C 0.71241 0.04461 0.08075 0.0
H1024 H 0.5398 0.27356 0.69943 0.0
H1025 H 0.46492 0.24277 0.63539 0.0
H1026 H 0.52785 0.26155 0.77187 0.0
H1027 H 0.45042 0.23167 0.70845 0.0
H1028 H 0.45078 0.20469 0.83765 0.0
H1029 H 0.46968 0.21538 0.76566 0.0
H1030 H 0.4865 0.25996 0.82948 0.0
H1031 H 0.46948 0.24893 0.90192 0.0
C1032 C 0.52128 0.26402 0.70057 0.0
C1033 C 0.5044 0.2587 0.66116 0.0
C1034 C 0.5137 0.25735 0.74251 0.0
C1035 C 0.48829 0.24549 0.74638 0.0
C1036 C 0.47084 0.24046 0.70696 0.0
C1037 C 0.47886 0.24695 0.66497 0.0
C1038 C 0.45883 0.21674 0.83631 0.0
C1039 C 0.45856 0.22598 0.87544 0.0
C1040 C 0.46941 0.22294 0.79488 0.0
C1041 C 0.47931 0.23864 0.79127 0.0
C1042 C 0.47961 0.24778 0.83077 0.0
C1043 C 0.46967 0.24149 0.87241 0.0
H1044 H 0.53774 0.76244 0.90086 0.0
H1045 H 0.54867 0.807 0.83581 0.0
H1046 H 0.51976 0.75089 0.82874 0.0
H1047 H 0.5297 0.79547 0.76411 0.0
H1048 H 0.45878 0.76822 0.65769 0.0
H1049 H 0.47041 0.7798 0.73219 0.0
H1050 H 0.55899 0.74885 0.75018 0.0
H1051 H 0.54802 0.7376 0.6754 0.0
C1052 C 0.53569 0.76982 0.8714 0.0
C1053 C 0.54475 0.78562 0.87394 0.0
C1054 C 0.52556 0.76319 0.8302 0.0
C1055 C 0.52342 0.77232 0.79107 0.0
C1056 C 0.53101 0.78823 0.79393 0.0
C1057 C 0.54197 0.79479 0.83486 0.0
C1058 C 0.48057 0.76387 0.67778 0.0
C1059 C 0.50248 0.75202 0.66108 0.0
C1060 C 0.48726 0.77051 0.72016 0.0
C1061 C 0.51543 0.76511 0.74683 0.0
C1062 C 0.53693 0.75309 0.73035 0.0
C1063 C 0.53079 0.74674 0.68761 0.0
H1064 H 0.79902 0.45477 0.08475 0.0
H1065 H 0.78721 0.49942 0.14957 0.0
H1066 H 0.78072 0.46618 0.01272 0.0
H1067 H 0.76992 0.51085 0.07714 0.0
H1068 H 0.79933 0.52392 0.92417 0.0
H1069 H 0.80997 0.51274 0.99898 0.0
H1070 H 0.72139 0.48181 0.9803 0.0
H1071 H 0.71009 0.49333 0.90576 0.0
C1072 C 0.79228 0.46698 0.08366 0.0
C1073 C 0.79459 0.47621 0.12276 0.0
C1074 C 0.78171 0.47347 0.04255 0.0
C1075 C 0.77406 0.48936 0.03959 0.0
C1076 C 0.77576 0.49856 0.07872 0.0
C1077 C 0.7855 0.492 0.12008 0.0
C1078 C 0.78205 0.5148 0.93622 0.0
C1079 C 0.75381 0.50951 0.90951 0.0
C1080 C 0.788 0.50848 0.97897 0.0
C1081 C 0.76638 0.4965 0.99526 0.0
C1082 C 0.73832 0.49108 0.96839 0.0
C1083 C 0.73183 0.49768 0.92601 0.0
H1084 H 0.20475 0.55707 0.08193 0.0
H1085 H 0.21765 0.51216 0.14436 0.0
H1086 H 0.22278 0.54604 0.00915 0.0
H1087 H 0.23465 0.50112 0.07122 0.0
H1088 H 0.20633 0.48844 0.91771 0.0
H1089 H 0.1947 0.49944 0.99265 0.0
H1090 H 0.2828 0.53075 0.97634 0.0
H1091 H 0.2951 0.51942 0.90168 0.0
C1092 C 0.2116 0.54488 0.08015 0.0
C1093 C 0.20975 0.53547 0.11883 0.0
C1094 C 0.22202 0.53861 0.0386 0.0
C1095 C 0.22997 0.52276 0.03477 0.0
C1096 C 0.22856 0.51338 0.07344 0.0
C1097 C 0.21898 0.51971 0.11521 0.0
C1098 C 0.22326 0.49763 0.93028 0.0
C1099 C 0.25169 0.50306 0.90422 0.0
C1100 C 0.21674 0.50384 0.9731 0.0
C1101 C 0.23796 0.51587 0.99012 0.0
C1102 C 0.26615 0.52146 0.96385 0.0
C1103 C 0.27322 0.51497 0.9214 0.0
H1104 H 0.47089 0.74846 0.40091 0.0
H1105 H 0.45327 0.70419 0.33639 0.0
H1106 H 0.48775 0.75961 0.3286 0.0
H1107 H 0.47209 0.71499 0.2645 0.0
H1108 H 0.46679 0.74244 0.13435 0.0
H1109 H 0.45264 0.73117 0.20726 0.0
H1110 H 0.52887 0.76155 0.27106 0.0
H1111 H 0.54035 0.77374 0.19884 0.0
C1112 C 0.47132 0.74103 0.37137 0.0
C1113 C 0.46053 0.72548 0.37429 0.0
C1114 C 0.48117 0.7474 0.32979 0.0
C1115 C 0.48113 0.73828 0.29023 0.0
C1116 C 0.4716 0.72254 0.29375 0.0
C1117 C 0.46109 0.71627 0.33512 0.0
C1118 C 0.48054 0.7467 0.16397 0.0
C1119 C 0.50559 0.75866 0.1603 0.0
C1120 C 0.47273 0.7401 0.20589 0.0
C1121 C 0.48994 0.74522 0.24539 0.0
C1122 C 0.5149 0.75728 0.24165 0.0
C1123 C 0.52223 0.76405 0.19979 0.0
H1124 H 0.53764 0.26238 0.40167 0.0
H1125 H 0.54811 0.3071 0.33747 0.0
H1126 H 0.51944 0.25099 0.32942 0.0
H1127 H 0.52889 0.29573 0.26565 0.0
H1128 H 0.45731 0.26852 0.15952 0.0
H1129 H 0.46924 0.27994 0.23417 0.0
H1130 H 0.55866 0.24933 0.2503 0.0
H1131 H 0.5474 0.23826 0.17538 0.0
C1132 C 0.53543 0.26982 0.37237 0.0
C1133 C 0.54443 0.28562 0.37516 0.0
C1134 C 0.52517 0.26329 0.33111 0.0
C1135 C 0.52283 0.27252 0.29219 0.0
C1136 C 0.53036 0.28842 0.29531 0.0
C1137 C 0.54146 0.29489 0.3363 0.0
C1138 C 0.47936 0.26422 0.17924 0.0
C1139 C 0.50142 0.25251 0.16198 0.0
C1140 C 0.48621 0.27075 0.22169 0.0
C1141 C 0.5147 0.26541 0.24787 0.0
C1142 C 0.53637 0.25354 0.23084 0.0
C1143 C 0.53006 0.24729 0.18802 0.0
H1144 H 0.75639 0.98994 0.64711 0.0
H1145 H 0.83396 0.96162 0.5784 0.0
H1146 H 0.73647 1.0001 0.57452 0.0
H1147 H 0.81502 0.97211 0.50645 0.0
H1148 H 0.7565 0.98371 0.37887 0.0
H1149 H 0.76914 0.97219 0.4524 0.0
H1150 H 0.75554 0.01707 0.51557 0.0
H1151 H 0.74206 0.02837 0.442 0.0
C1152 C 0.7692 0.98588 0.61659 0.0
C1153 C 0.79678 0.97495 0.61869 0.0
C1154 C 0.75792 0.99178 0.57495 0.0
C1155 C 0.7741 0.98695 0.53445 0.0
C1156 C 0.80143 0.97591 0.53669 0.0
C1157 C 0.8125 0.96995 0.57816 0.0
C1158 C 0.75583 0.99102 0.40868 0.0
C1159 C 0.74765 0.00682 0.40504 0.0
C1160 C 0.76329 0.98447 0.45078 0.0
C1161 C 0.76345 0.99368 0.49011 0.0
C1162 C 0.75497 0.00953 0.48628 0.0
C1163 C 0.74717 0.01603 0.44416 0.0
H1164 H 0.20547 0.05709 0.58216 0.0
H1165 H 0.21707 0.01225 0.64536 0.0
H1166 H 0.22344 0.04584 0.50965 0.0
H1167 H 0.23403 1.00099 0.57248 0.0
H1168 H 0.20588 0.98806 0.41924 0.0
H1169 H 0.19456 0.99917 0.4941 0.0
H1170 H 0.28273 0.03039 0.47685 0.0
H1171 H 0.2947 0.01895 0.40227 0.0
C1172 C 0.21203 0.04487 0.58061 0.0
C1173 C 0.20981 0.03554 0.61943 0.0
C1174 C 0.22242 0.03847 0.53922 0.0
C1175 C 0.22998 0.02258 0.53566 0.0
C1176 C 0.22824 0.01328 0.57448 0.0
C1177 C 0.21868 0.01974 0.61611 0.0
C1178 C 0.22291 0.99724 0.43159 0.0
C1179 C 0.25124 1.00261 0.40528 0.0
C1180 C 0.21656 1.00352 0.47438 0.0
C1181 C 0.23788 0.01557 0.49112 0.0
C1182 C 0.266 0.02109 0.46461 0.0
C1183 C 0.27289 0.01453 0.42219 0.0
H1184 H 0.35557 0.2519 0.05651 0.0
H1185 H 0.29365 0.21518 0.99591 0.0
H1186 H 0.30224 0.26763 0.06434 0.0
H1187 H 0.24055 0.23098 1.00343 0.0
H1188 H 0.14624 0.25932 0.04753 0.0
H1189 H 0.199 0.24333 0.05743 0.0
H1190 H 0.26399 0.28096 0.00879 0.0
H1191 H 0.21151 0.29698 0.99918 0.0
C1192 C 0.33057 0.24709 0.04538 0.0
C1193 C 0.32899 0.23232 0.02516 0.0
C1194 C 0.30005 0.25615 0.04969 0.0
C1195 C 0.26724 0.2506 0.03423 0.0
C1196 C 0.26537 0.23555 0.01603 0.0
C1197 C 0.29589 0.22653 0.01145 0.0
C1198 C 0.17183 0.26427 0.03957 0.0
C1199 C 0.17458 0.27939 0.02213 0.0
C1200 C 0.20202 0.25507 0.04504 0.0
C1201 C 0.23562 0.26084 0.03361 0.0
C1202 C 0.23853 0.27621 0.01828 0.0
C1203 C 0.20837 0.28536 0.0125 0.0
H1204 H 0.86145 0.75405 0.04468 0.0
H1205 H 0.79757 0.71556 0.9985 0.0
H1206 H 0.80825 0.76999 0.05152 0.0
H1207 H 0.7447 0.7315 1.00508 0.0
H1208 H 0.65222 0.76057 0.05077 0.0
H1209 H 0.7059 0.74519 0.05943 0.0
H1210 H 0.76654 0.7815 0.99566 0.0
H1211 H 0.71299 0.797 0.98731 0.0
C1212 C 0.83607 0.74892 0.03656 0.0
C1213 C 0.83383 0.73355 0.0207 0.0
C1214 C 0.80565 0.75808 0.04023 0.0
C1215 C 0.77232 0.75203 0.0286 0.0
C1216 C 0.76993 0.73647 0.01469 0.0
C1217 C 0.80031 0.72736 0.01066 0.0
C1218 C 0.67704 0.76539 0.03909 0.0
C1219 C 0.6782 0.77999 0.018 0.0
C1220 C 0.70777 0.75652 0.04389 0.0
C1221 C 0.74041 0.76209 0.028 0.0
C1222 C 0.74185 0.77695 1.00861 0.0
C1223 C 0.71108 0.78579 1.00355 0.0
H1224 H 0.10789 0.50923 0.29788 0.0
H1225 H 0.04543 0.54667 0.2425 0.0
H1226 H 0.0545 0.49354 0.30567 0.0
H1227 H 0.99221 0.53093 0.25024 0.0
H1228 H 0.89881 0.50254 0.29899 0.0
H1229 H 0.95221 0.51826 0.30641 0.0
H1230 H 0.01418 0.48095 0.24957 0.0
H1231 H 0.96096 0.46518 0.24222 0.0
C1232 C 0.08276 0.5142 0.28789 0.0
C1233 C 0.08102 0.52917 0.26918 0.0
C1234 C 0.05222 0.50516 0.29217 0.0
C1235 C 0.01921 0.51096 0.27831 0.0
C1236 C 0.01722 0.52618 0.26154 0.0
C1237 C 0.04778 0.53516 0.25688 0.0
C1238 C 0.92387 0.49759 0.28861 0.0
C1239 C 0.92553 0.48262 0.26966 0.0
C1240 C 0.95442 0.50664 0.29267 0.0
C1241 C 0.98734 0.50087 0.27836 0.0
C1242 C 0.98925 0.48567 0.26125 0.0
C1243 C 0.95868 0.47667 0.25679 0.0
H1244 H 0.29501 0.7149 0.49559 0.0
H1245 H 0.35783 0.75218 0.55161 0.0
H1246 H 0.24206 0.73084 0.50278 0.0
H1247 H 0.30468 0.76806 0.55895 0.0
H1248 H 0.14879 0.75959 0.54968 0.0
H1249 H 0.20185 0.74372 0.55825 0.0
H1250 H 0.26511 0.78073 0.50251 0.0
H1251 H 0.21226 0.79665 0.49404 0.0
C1252 C 0.29749 0.7264 0.51001 0.0
C1253 C 0.33075 0.73229 0.52265 0.0
C1254 C 0.26707 0.73551 0.51438 0.0
C1255 C 0.26925 0.75073 0.5312 0.0
C1256 C 0.30227 0.75643 0.54541 0.0
C1257 C 0.33267 0.74728 0.5414 0.0
C1258 C 0.17407 0.76444 0.5398 0.0
C1259 C 0.1762 0.77936 0.52079 0.0
C1260 C 0.20441 0.7553 0.54453 0.0
C1261 C 0.23759 0.76094 0.53081 0.0
C1262 C 0.23996 0.77611 0.51374 0.0
C1263 C 0.20961 0.7852 0.50865 0.0
H1264 H 0.86103 0.2534 0.54365 0.0
H1265 H 0.79684 0.21505 0.49711 0.0
H1266 H 0.80789 0.26928 0.55171 0.0
H1267 H 0.744 0.23096 0.50487 0.0
H1268 H 0.71269 0.2966 0.48891 0.0
H1269 H 0.76614 0.281 0.49665 0.0
H1270 H 0.70535 0.24453 0.55944 0.0
H1271 H 0.65175 0.26 0.5513 0.0
C1272 C 0.8356 0.24828 0.53571 0.0
C1273 C 0.83325 0.23298 0.51934 0.0
C1274 C 0.8052 0.25742 0.54009 0.0
C1275 C 0.7718 0.25141 0.52864 0.0
C1276 C 0.7693 0.2359 0.51434 0.0
C1277 C 0.79966 0.2268 0.50964 0.0
C1278 C 0.71073 0.28532 0.50481 0.0
C1279 C 0.67783 0.27952 0.51913 0.0
C1280 C 0.74144 0.27643 0.50953 0.0
C1281 C 0.73993 0.2615 0.52848 0.0
C1282 C 0.70728 0.25592 0.54425 0.0
C1283 C 0.67659 0.26484 0.53977 0.0
H1284 H 0.1056 0.01113 0.80147 0.0
H1285 H 0.04463 0.04739 0.73741 0.0
H1286 H 0.05204 0.99565 0.80993 0.0
H1287 H 0.9912 0.03182 0.74571 0.0
H1288 H 0.89647 1.00404 0.79376 0.0
H1289 H 0.94938 0.02012 0.80121 0.0
H1290 H 0.01374 0.98189 0.75484 0.0
H1291 H 0.96113 0.96579 0.7476 0.0
C1292 C 0.08076 0.01589 0.78963 0.0
C1293 C 0.07952 0.03046 0.76831 0.0
C1294 C 0.0501 0.00697 0.79434 0.0
C1295 C 0.01746 0.01245 0.77819 0.0
C1296 C 0.0159 0.02731 0.75881 0.0
C1297 C 0.0466 0.0362 0.75382 0.0
C1298 C 0.92196 0.99899 0.78576 0.0
C1299 C 0.9245 0.98365 0.76973 0.0
C1300 C 0.95222 0.00824 0.7898 0.0
C1301 C 0.98569 1.0023 0.77839 0.0
C1302 C 0.98839 0.98677 0.76429 0.0
C1303 C 0.95815 0.97757 0.75987 0.0
H1304 H 0.39848 0.50387 0.79674 0.0
H1305 H 0.46229 0.46551 0.7495 0.0
H1306 H 0.4518 0.51964 0.80512 0.0
H1307 H 0.51529 0.48129 0.75757 0.0
H1308 H 0.60804 0.5101 0.80364 0.0
H1309 H 0.55426 0.49473 0.81229 0.0
H1310 H 0.49351 0.53134 0.75007 0.0
H1311 H 0.54706 0.54679 0.74172 0.0
C1312 C 0.42386 0.49873 0.7887 0.0
C1313 C 0.42605 0.48346 0.77204 0.0
C1314 C 0.45437 0.50779 0.79329 0.0
C1315 C 0.48772 0.50174 0.78176 0.0
C1316 C 0.49005 0.48626 0.76713 0.0
C1317 C 0.45958 0.47724 0.76222 0.0
C1318 C 0.58315 0.51498 0.79235 0.0
C1319 C 0.58195 0.52963 0.77158 0.0
C1320 C 0.55238 0.50613 0.79714 0.0
C1321 C 0.51968 0.51178 0.78162 0.0
C1322 C 0.51823 0.52671 0.76274 0.0
C1323 C 0.54901 0.53552 0.75767 0.0
H1324 H 0.39686 1.00399 0.2952 0.0
H1325 H 0.46112 0.96573 0.24824 0.0
H1326 H 0.44998 0.01991 0.30326 0.0
H1327 H 0.51392 0.98166 0.25606 0.0
H1328 H 0.60624 0.01058 0.30243 0.0
H1329 H 0.5525 0.99521 0.31118 0.0
H1330 H 0.49179 0.03164 0.24799 0.0
H1331 H 0.54535 0.04709 0.23947 0.0
C1332 C 0.4223 0.9989 0.28716 0.0
C1333 C 0.42468 0.98361 0.2707 0.0
C1334 C 0.45268 0.00805 0.29157 0.0
C1335 C 0.4861 1.00207 0.28008 0.0
C1336 C 0.48862 0.98657 0.26559 0.0
C1337 C 0.45827 0.97747 0.26082 0.0
C1338 C 0.58138 0.01542 0.29094 0.0
C1339 C 0.5802 0.03002 0.2698 0.0
C1340 C 0.55062 0.00657 0.2958 0.0
C1341 C 0.51797 0.01216 0.27999 0.0
C1342 C 0.51649 0.02705 0.26085 0.0
C1343 C 0.54727 0.03587 0.25571 0.0
loop_
_geom_bond_atom_site_label_1
_geom_bond_atom_site_label_2
_geom_bond_distance
_geom_bond_site_symmetry_2
_ccdc_geom_bond_type
Co0 O3 1.970 . S
Co0 N17 1.989 . S
Co0 O25 1.967 . S
Co0 O32 1.920 . S
Co1 O4 1.966 . S
Co1 N10 2.022 . S
Co1 N18 1.993 . S
Co1 O26 1.941 1_554 S
C2 O3 1.258 . S
C2 O4 1.263 1_556 S
O3 Co0 1.970 . S
O3 C2 1.258 . S
O4 Co1 1.966 . S
O4 C2 1.263 1_554 S
C5 O6 1.235 . S
C5 O32 1.289 . S
O6 C5 1.235 . S
C7 C9 1.400 . S
C7 N10 1.351 . S
C7 C12 1.501 . S
C8 C9 1.387 1_655 S
C8 N11 1.341 . S
C9 C7 1.400 . S
C9 C8 1.387 1_455 S
N10 Co1 2.022 . S
N10 C7 1.351 . S
N10 N11 1.365 1_455 S
N11 C8 1.341 . S
N11 N10 1.365 1_655 S
N11 H31 0.862 . S
C12 C7 1.501 . S
C12 H13 0.961 . S
C12 H14 0.961 . S
C12 H15 0.960 . S
H13 C12 0.961 . S
H14 C12 0.961 . S
H15 C12 0.960 . S
C16 N17 1.342 1_554 S
C16 C20 1.401 . S
C16 C21 1.499 1_554 S
N17 Co0 1.989 . S
N17 C16 1.342 1_556 S
N17 N18 1.388 1_556 S
N18 Co1 1.993 . S
N18 N17 1.388 1_554 S
N18 C19 1.346 . S
C19 N18 1.346 . S
C19 C20 1.396 . S
C19 C29 1.510 . S
C20 C16 1.401 . S
C20 C19 1.396 . S
C21 C16 1.499 1_556 S
C21 H22 0.959 . S
C21 H23 0.969 . S
C21 H24 0.961 . S
H22 C21 0.959 . S
H23 C21 0.969 . S
H24 C21 0.961 . S
O25 Co0 1.967 . S
O25 C33 1.258 . S
O26 Co1 1.941 1_556 S
O26 C33 1.266 . S
H27 C29 0.959 1_655 S
H28 C29 0.961 . S
C29 C19 1.510 . S
C29 H27 0.959 1_455 S
C29 H28 0.961 . S
C29 H30 0.960 . S
H30 C29 0.960 . S
H31 N11 0.862 . S
O32 Co0 1.920 . S
O32 C5 1.289 . S
C33 O25 1.258 . S
C33 O26 1.266 . S
Co34 O37 1.970 . S
Co34 N51 1.989 . S
Co34 O59 1.967 . S
Co34 O66 1.920 . S
Co35 O38 1.966 . S
Co35 N44 2.022 . S
Co35 N52 1.993 . S
Co35 O60 1.941 1_554 S
C36 O37 1.258 . S
C36 O38 1.263 1_556 S
O37 Co34 1.970 . S
O37 C36 1.258 . S
O38 Co35 1.966 . S
O38 C36 1.263 1_554 S
C39 O40 1.235 . S
C39 O66 1.289 . S
O40 C39 1.235 . S
C41 C43 1.400 . S
C41 N44 1.351 . S
C41 C46 1.501 . S
C42 C43 1.387 1_455 S
C42 N45 1.341 . S
C43 C41 1.400 . S
C43 C42 1.387 1_655 S
N44 Co35 2.022 . S
N44 C41 1.351 . S
N44 N45 1.365 1_655 S
N45 C42 1.341 . S
N45 N44 1.365 1_455 S
N45 H65 0.862 . S
C46 C41 1.501 . S
C46 H47 0.961 . S
C46 H48 0.961 . S
C46 H49 0.960 . S
H47 C46 0.961 . S
H48 C46 0.961 . S
H49 C46 0.960 . S
C50 N51 1.342 1_554 S
C50 C54 1.401 . S
C50 C55 1.499 1_554 S
N51 Co34 1.989 . S
N51 C50 1.342 1_556 S
N51 N52 1.388 1_556 S
N52 Co35 1.993 . S
N52 N51 1.388 1_554 S
N52 C53 1.346 . S
C53 N52 1.346 . S
C53 C54 1.396 . S
C53 C63 1.510 . S
C54 C50 1.401 . S
C54 C53 1.396 . S
C55 C50 1.499 1_556 S
C55 H56 0.959 . S
C55 H57 0.969 . S
C55 H58 0.961 . S
H56 C55 0.959 . S
H57 C55 0.969 . S
H58 C55 0.961 . S
O59 Co34 1.967 . S
O59 C67 1.258 . S
O60 Co35 1.941 1_556 S
O60 C67 1.266 . S
H61 C63 0.959 1_455 S
H62 C63 0.961 . S
C63 C53 1.510 . S
C63 H61 0.959 1_655 S
C63 H62 0.961 . S
C63 H64 0.960 . S
H64 C63 0.960 . S
H65 N45 0.862 . S
O66 Co34 1.920 . S
O66 C39 1.289 . S
C67 O59 1.258 . S
C67 O60 1.266 . S
Co68 O71 1.970 . S
Co68 N85 1.989 . S
Co68 O93 1.967 . S
Co68 O100 1.920 . S
Co69 O72 1.966 . S
Co69 N78 2.022 . S
Co69 N86 1.993 . S
Co69 O94 1.941 . S
C70 O71 1.258 . S
C70 O72 1.263 . S
O71 Co68 1.970 . S
O71 C70 1.258 . S
O72 Co69 1.966 . S
O72 C70 1.263 . S
C73 O74 1.235 . S
C73 O100 1.289 . S
O74 C73 1.235 . S
C75 C77 1.400 . S
C75 N78 1.351 . S
C75 C80 1.501 . S
C76 C77 1.387 . S
C76 N79 1.341 . S
C77 C75 1.400 . S
C77 C76 1.387 . S
N78 Co69 2.022 . S
N78 C75 1.351 . S
N78 N79 1.365 . S
N79 C76 1.341 . S
N79 N78 1.365 . S
N79 H99 0.862 . S
C80 C75 1.501 . S
C80 H81 0.961 . S
C80 H82 0.961 . S
C80 H83 0.960 . S
H81 C80 0.961 . S
H82 C80 0.961 . S
H83 C80 0.960 . S
C84 N85 1.342 . S
C84 C88 1.401 . S
C84 C89 1.499 . S
N85 Co68 1.989 . S
N85 C84 1.342 . S
N85 N86 1.388 . S
N86 Co69 1.993 . S
N86 N85 1.388 . S
N86 C87 1.346 . S
C87 N86 1.346 . S
C87 C88 1.396 . S
C87 C97 1.510 . S
C88 C84 1.401 . S
C88 C87 1.396 . S
C89 C84 1.499 . S
C89 H90 0.959 . S
C89 H91 0.960 . S
C89 H92 0.961 . S
H90 C89 0.959 . S
H91 C89 0.960 . S
H92 C89 0.961 . S
O93 Co68 1.967 . S
O93 C101 1.258 . S
O94 Co69 1.941 . S
O94 C101 1.266 . S
H95 C97 0.959 . S
H96 C97 0.961 . S
C97 C87 1.510 . S
C97 H95 0.959 . S
C97 H96 0.961 . S
C97 H98 0.960 . S
H98 C97 0.960 . S
H99 N79 0.862 . S
O100 Co68 1.920 . S
O100 C73 1.289 . S
C101 O93 1.258 . S
C101 O94 1.266 . S
Co102 O105 1.970 . S
Co102 N119 1.989 . S
Co102 O127 1.967 . S
Co102 O134 1.920 . S
Co103 O106 1.966 . S
Co103 N112 2.022 . S
Co103 N120 1.993 . S
Co103 O128 1.941 . S
C104 O105 1.258 . S
C104 O106 1.263 . S
O105 Co102 1.970 . S
O105 C104 1.258 . S
O106 Co103 1.966 . S
O106 C104 1.263 . S
C107 O108 1.235 . S
C107 O134 1.289 . S
O108 C107 1.235 . S
C109 C111 1.400 . S
C109 N112 1.351 . S
C109 C114 1.501 . S
C110 C111 1.387 . S
C110 N113 1.341 . S
C111 C109 1.400 . S
C111 C110 1.387 . S
N112 Co103 2.022 . S
N112 C109 1.351 . S
N112 N113 1.365 . S
N113 C110 1.341 . S
N113 N112 1.365 . S
N113 H133 0.862 . S
C114 C109 1.501 . S
C114 H115 0.961 . S
C114 H116 0.961 . S
C114 H117 0.960 . S
H115 C114 0.961 . S
H116 C114 0.961 . S
H117 C114 0.960 . S
C118 N119 1.342 . S
C118 C122 1.401 . S
C118 C123 1.499 . S
N119 Co102 1.989 . S
N119 C118 1.342 . S
N119 N120 1.388 . S
N120 Co103 1.993 . S
N120 N119 1.388 . S
N120 C121 1.346 . S
C121 N120 1.346 . S
C121 C122 1.396 . S
C121 C131 1.510 . S
C122 C118 1.401 . S
C122 C121 1.396 . S
C123 C118 1.499 . S
C123 H124 0.959 . S
C123 H125 0.960 . S
C123 H126 0.961 . S
H124 C123 0.959 . S
H125 C123 0.960 . S
H126 C123 0.961 . S
O127 Co102 1.967 . S
O127 C135 1.258 . S
O128 Co103 1.941 . S
O128 C135 1.266 . S
H129 C131 0.959 . S
H130 C131 0.961 . S
C131 C121 1.510 . S
C131 H129 0.959 . S
C131 H130 0.961 . S
C131 H132 0.960 . S
H132 C131 0.960 . S
H133 N113 0.862 . S
O134 Co102 1.920 . S
O134 C107 1.289 . S
C135 O127 1.258 . S
C135 O128 1.266 . S
Co136 O139 1.970 . S
Co136 N153 1.989 . S
Co136 O161 1.967 . S
Co136 O168 1.920 . S
Co137 O140 1.966 . S
Co137 N146 2.022 . S
Co137 N154 1.993 . S
Co137 O162 1.941 . S
C138 O139 1.258 . S
C138 O140 1.263 . S
O139 Co136 1.970 . S
O139 C138 1.258 . S
O140 Co137 1.966 . S
O140 C138 1.263 . S
C141 O142 1.235 . S
C141 O168 1.289 . S
O142 C141 1.235 . S
C143 C145 1.400 . S
C143 N146 1.351 . S
C143 C148 1.501 . S
C144 C145 1.387 1_655 S
C144 N147 1.341 . S
C145 C143 1.400 . S
C145 C144 1.387 1_455 S
N146 Co137 2.022 . S
N146 C143 1.351 . S
N146 N147 1.365 1_455 S
N147 C144 1.341 . S
N147 N146 1.365 1_655 S
N147 H167 0.862 . S
C148 C143 1.501 . S
C148 H149 0.961 . S
C148 H150 0.961 . S
C148 H151 0.960 . S
H149 C148 0.961 . S
H150 C148 0.961 . S
H151 C148 0.960 . S
C152 N153 1.342 . S
C152 C156 1.401 . S
C152 C157 1.499 . S
N153 Co136 1.989 . S
N153 C152 1.342 . S
N153 N154 1.388 . S
N154 Co137 1.993 . S
N154 N153 1.388 . S
N154 C155 1.346 . S
C155 N154 1.346 . S
C155 C156 1.396 . S
C155 C165 1.510 . S
C156 C152 1.401 . S
C156 C155 1.396 . S
C157 C152 1.499 . S
C157 H158 0.959 . S
C157 H159 0.960 . S
C157 H160 0.961 . S
H158 C157 0.959 . S
H159 C157 0.960 . S
H160 C157 0.961 . S
O161 Co136 1.967 . S
O161 C169 1.258 . S
O162 Co137 1.941 . S
O162 C169 1.266 . S
H163 C165 0.959 1_655 S
H164 C165 0.961 . S
C165 C155 1.510 . S
C165 H163 0.959 1_455 S
C165 H164 0.961 . S
C165 H166 0.960 . S
H166 C165 0.960 . S
H167 N147 0.862 . S
O168 Co136 1.920 . S
O168 C141 1.289 . S
C169 O161 1.258 . S
C169 O162 1.266 . S
Co170 O173 1.970 . S
Co170 N187 1.989 . S
Co170 O195 1.967 . S
Co170 O202 1.920 . S
Co171 O174 1.966 . S
Co171 N180 2.022 . S
Co171 N188 1.993 . S
Co171 O196 1.941 . S
C172 O173 1.258 . S
C172 O174 1.263 . S
O173 Co170 1.970 . S
O173 C172 1.258 . S
O174 Co171 1.966 . S
O174 C172 1.263 . S
C175 O176 1.235 . S
C175 O202 1.289 . S
O176 C175 1.235 . S
C177 C179 1.400 . S
C177 N180 1.351 . S
C177 C182 1.501 . S
C178 C179 1.387 1_455 S
C178 N181 1.341 . S
C179 C177 1.400 . S
C179 C178 1.387 1_655 S
N180 Co171 2.022 . S
N180 C177 1.351 . S
N180 N181 1.365 1_655 S
N181 C178 1.341 . S
N181 N180 1.365 1_455 S
N181 H201 0.862 . S
C182 C177 1.501 . S
C182 H183 0.961 . S
C182 H184 0.961 . S
C182 H185 0.960 . S
H183 C182 0.961 . S
H184 C182 0.961 . S
H185 C182 0.960 . S
C186 N187 1.342 . S
C186 C190 1.401 . S
C186 C191 1.499 . S
N187 Co170 1.989 . S
N187 C186 1.342 . S
N187 N188 1.388 . S
N188 Co171 1.993 . S
N188 N187 1.388 . S
N188 C189 1.346 . S
C189 N188 1.346 . S
C189 C190 1.396 . S
C189 C199 1.510 . S
C190 C186 1.401 . S
C190 C189 1.396 . S
C191 C186 1.499 . S
C191 H192 0.959 . S
C191 H193 0.960 . S
C191 H194 0.961 . S
H192 C191 0.959 . S
H193 C191 0.960 . S
H194 C191 0.961 . S
O195 Co170 1.967 . S
O195 C203 1.258 . S
O196 Co171 1.941 . S
O196 C203 1.266 . S
H197 C199 0.959 1_455 S
H198 C199 0.961 . S
C199 C189 1.510 . S
C199 H197 0.959 1_655 S
C199 H198 0.961 . S
C199 H200 0.960 . S
H200 C199 0.960 . S
H201 N181 0.862 . S
O202 Co170 1.920 . S
O202 C175 1.289 . S
C203 O195 1.258 . S
C203 O196 1.266 . S
Co204 O207 1.970 . S
Co204 N221 1.989 . S
Co204 O229 1.967 . S
Co204 O236 1.920 . S
Co205 O208 1.966 . S
Co205 N214 2.022 . S
Co205 N222 1.993 . S
Co205 O230 1.941 . S
C206 O207 1.258 . S
C206 O208 1.263 . S
O207 Co204 1.970 . S
O207 C206 1.258 . S
O208 Co205 1.966 . S
O208 C206 1.263 . S
C209 O210 1.235 . S
C209 O236 1.289 . S
O210 C209 1.235 . S
C211 C213 1.400 . S
C211 N214 1.351 . S
C211 C216 1.501 . S
C212 C213 1.387 . S
C212 N215 1.341 . S
C213 C211 1.400 . S
C213 C212 1.387 . S
N214 Co205 2.022 . S
N214 C211 1.351 . S
N214 N215 1.365 . S
N215 C212 1.341 . S
N215 N214 1.365 . S
N215 H235 0.862 . S
C216 C211 1.501 . S
C216 H217 0.961 . S
C216 H218 0.961 . S
C216 H219 0.960 . S
H217 C216 0.961 . S
H218 C216 0.961 . S
H219 C216 0.960 . S
C220 N221 1.342 . S
C220 C224 1.401 . S
C220 C225 1.499 . S
N221 Co204 1.989 . S
N221 C220 1.342 . S
N221 N222 1.388 . S
N222 Co205 1.993 . S
N222 N221 1.388 . S
N222 C223 1.346 . S
C223 N222 1.346 . S
C223 C224 1.396 . S
C223 C233 1.510 . S
C224 C220 1.401 . S
C224 C223 1.396 . S
C225 C220 1.499 . S
C225 H226 0.959 . S
C225 H227 0.960 . S
C225 H228 0.961 . S
H226 C225 0.959 . S
H227 C225 0.960 . S
H228 C225 0.961 . S
O229 Co204 1.967 . S
O229 C237 1.258 . S
O230 Co205 1.941 . S
O230 C237 1.266 . S
H231 C233 0.959 . S
H232 C233 0.961 . S
C233 C223 1.510 . S
C233 H231 0.959 . S
C233 H232 0.961 . S
C233 H234 0.960 . S
H234 C233 0.960 . S
H235 N215 0.862 . S
O236 Co204 1.920 . S
O236 C209 1.289 . S
C237 O229 1.258 . S
C237 O230 1.266 . S
Co238 O241 1.970 . S
Co238 N255 1.989 . S
Co238 O263 1.967 . S
Co238 O270 1.920 . S
Co239 O242 1.966 . S
Co239 N248 2.022 . S
Co239 N256 1.993 . S
Co239 O264 1.941 . S
C240 O241 1.258 . S
C240 O242 1.263 . S
O241 Co238 1.970 . S
O241 C240 1.258 . S
O242 Co239 1.966 . S
O242 C240 1.263 . S
C243 O244 1.235 . S
C243 O270 1.289 . S
O244 C243 1.235 . S
C245 C247 1.400 . S
C245 N248 1.351 . S
C245 C250 1.501 . S
C246 C247 1.387 . S
C246 N249 1.341 . S
C247 C245 1.400 . S
C247 C246 1.387 . S
N248 Co239 2.022 . S
N248 C245 1.351 . S
N248 N249 1.365 . S
N249 C246 1.341 . S
N249 N248 1.365 . S
N249 H269 0.862 . S
C250 C245 1.501 . S
C250 H251 0.961 . S
C250 H252 0.961 . S
C250 H253 0.960 . S
H251 C250 0.961 . S
H252 C250 0.961 . S
H253 C250 0.960 . S
C254 N255 1.342 . S
C254 C258 1.401 . S
C254 C259 1.499 . S
N255 Co238 1.989 . S
N255 C254 1.342 . S
N255 N256 1.388 . S
N256 Co239 1.993 . S
N256 N255 1.388 . S
N256 C257 1.346 . S
C257 N256 1.346 . S
C257 C258 1.396 . S
C257 C267 1.510 . S
C258 C254 1.401 . S
C258 C257 1.396 . S
C259 C254 1.499 . S
C259 H260 0.959 . S
C259 H261 0.960 . S
C259 H262 0.961 . S
H260 C259 0.959 . S
H261 C259 0.960 . S
H262 C259 0.961 . S
O263 Co238 1.967 . S
O263 C271 1.258 . S
O264 Co239 1.941 . S
O264 C271 1.266 . S
H265 C267 0.959 . S
H266 C267 0.961 . S
C267 C257 1.510 . S
C267 H265 0.959 . S
C267 H266 0.961 . S
C267 H268 0.960 . S
H268 C267 0.960 . S
H269 N249 0.862 . S
O270 Co238 1.920 . S
O270 C243 1.289 . S
C271 O263 1.258 . S
C271 O264 1.266 . S
Co272 O275 1.970 . S
Co272 N289 1.989 . S
Co272 O297 1.967 . S
Co272 O304 1.920 . S
Co273 O276 1.966 . S
Co273 N282 2.022 . S
Co273 N290 1.993 . S
Co273 O298 1.941 . S
C274 O275 1.258 . S
C274 O276 1.263 . S
O275 Co272 1.970 . S
O275 C274 1.258 . S
O276 Co273 1.966 . S
O276 C274 1.263 . S
C277 O278 1.235 . S
C277 O304 1.289 . S
O278 C277 1.235 . S
C279 C281 1.400 . S
C279 N282 1.351 . S
C279 C284 1.501 . S
C280 C281 1.387 . S
C280 N283 1.341 . S
C281 C279 1.400 . S
C281 C280 1.387 . S
N282 Co273 2.022 . S
N282 C279 1.351 . S
N282 N283 1.365 . S
N283 C280 1.341 . S
N283 N282 1.365 . S
N283 H303 0.862 . S
C284 C279 1.501 . S
C284 H285 0.961 . S
C284 H286 0.961 . S
C284 H287 0.960 . S
H285 C284 0.961 . S
H286 C284 0.961 . S
H287 C284 0.960 . S
C288 N289 1.342 . S
C288 C292 1.401 . S
C288 C293 1.499 . S
N289 Co272 1.989 . S
N289 C288 1.342 . S
N289 N290 1.388 . S
N290 Co273 1.993 . S
N290 N289 1.388 . S
N290 C291 1.346 . S
C291 N290 1.346 . S
C291 C292 1.396 . S
C291 C301 1.510 . S
C292 C288 1.401 . S
C292 C291 1.396 . S
C293 C288 1.499 . S
C293 H294 0.959 . S
C293 H295 0.960 . S
C293 H296 0.961 . S
H294 C293 0.959 . S
H295 C293 0.960 . S
H296 C293 0.961 . S
O297 Co272 1.967 . S
O297 C305 1.258 . S
O298 Co273 1.941 . S
O298 C305 1.266 . S
H299 C301 0.959 . S
H300 C301 0.961 . S
C301 C291 1.510 . S
C301 H299 0.959 . S
C301 H300 0.961 . S
C301 H302 0.960 . S
H302 C301 0.960 . S
H303 N283 0.862 . S
O304 Co272 1.920 . S
O304 C277 1.289 . S
C305 O297 1.258 . S
C305 O298 1.266 . S
Co306 O309 1.970 . S
Co306 N323 1.989 . S
Co306 O331 1.967 . S
Co306 O338 1.920 . S
Co307 O310 1.966 . S
Co307 N316 2.022 . S
Co307 N324 1.993 . S
Co307 O332 1.941 . S
C308 O309 1.258 . S
C308 O310 1.263 . S
O309 Co306 1.970 . S
O309 C308 1.258 . S
O310 Co307 1.966 . S
O310 C308 1.263 . S
C311 O312 1.235 . S
C311 O338 1.289 . S
O312 C311 1.235 . S
C313 C315 1.400 . S
C313 N316 1.351 . S
C313 C318 1.501 . S
C314 C315 1.387 . S
C314 N317 1.341 . S
C315 C313 1.400 . S
C315 C314 1.387 . S
N316 Co307 2.022 . S
N316 C313 1.351 . S
N316 N317 1.365 . S
N317 C314 1.341 . S
N317 N316 1.365 . S
N317 H337 0.862 . S
C318 C313 1.501 . S
C318 H319 0.961 . S
C318 H320 0.961 . S
C318 H321 0.960 . S
H319 C318 0.961 . S
H320 C318 0.961 . S
H321 C318 0.960 . S
C322 N323 1.342 . S
C322 C326 1.401 . S
C322 C327 1.499 . S
N323 Co306 1.989 . S
N323 C322 1.342 . S
N323 N324 1.388 . S
N324 Co307 1.993 . S
N324 N323 1.388 . S
N324 C325 1.346 . S
C325 N324 1.346 . S
C325 C326 1.396 . S
C325 C335 1.510 . S
C326 C322 1.401 . S
C326 C325 1.396 . S
C327 C322 1.499 . S
C327 H328 0.959 . S
C327 H329 0.960 . S
C327 H330 0.961 . S
H328 C327 0.959 . S
H329 C327 0.960 . S
H330 C327 0.961 . S
O331 Co306 1.967 . S
O331 C339 1.258 . S
O332 Co307 1.941 . S
O332 C339 1.266 . S
H333 C335 0.959 . S
H334 C335 0.961 . S
C335 C325 1.510 . S
C335 H333 0.959 . S
C335 H334 0.961 . S
C335 H336 0.960 . S
H336 C335 0.960 . S
H337 N317 0.862 . S
O338 Co306 1.920 . S
O338 C311 1.289 . S
C339 O331 1.258 . S
C339 O332 1.266 . S
Co340 O343 1.970 . S
Co340 N357 1.989 . S
Co340 O365 1.967 . S
Co340 O372 1.920 . S
Co341 O344 1.966 . S
Co341 N350 2.022 . S
Co341 N358 1.993 . S
Co341 O366 1.941 . S
C342 O343 1.258 . S
C342 O344 1.263 . S
O343 Co340 1.970 . S
O343 C342 1.258 . S
O344 Co341 1.966 . S
O344 C342 1.263 . S
C345 O346 1.235 . S
C345 O372 1.289 . S
O346 C345 1.235 . S
C347 C349 1.400 . S
C347 N350 1.351 . S
C347 C352 1.501 . S
C348 C349 1.387 . S
C348 N351 1.341 . S
C349 C347 1.400 . S
C349 C348 1.387 . S
N350 Co341 2.022 . S
N350 C347 1.351 . S
N350 N351 1.365 . S
N351 C348 1.341 . S
N351 N350 1.365 . S
N351 H371 0.862 . S
C352 C347 1.501 . S
C352 H353 0.961 . S
C352 H354 0.961 . S
C352 H355 0.960 . S
H353 C352 0.961 . S
H354 C352 0.961 . S
H355 C352 0.960 . S
C356 N357 1.342 . S
C356 C360 1.401 . S
C356 C361 1.499 . S
N357 Co340 1.989 . S
N357 C356 1.342 . S
N357 N358 1.388 . S
N358 Co341 1.993 . S
N358 N357 1.388 . S
N358 C359 1.346 . S
C359 N358 1.346 . S
C359 C360 1.396 . S
C359 C369 1.510 . S
C360 C356 1.401 . S
C360 C359 1.396 . S
C361 C356 1.499 . S
C361 H362 0.959 . S
C361 H363 0.960 . S
C361 H364 0.961 . S
H362 C361 0.959 . S
H363 C361 0.960 . S
H364 C361 0.961 . S
O365 Co340 1.967 . S
O365 C373 1.258 . S
O366 Co341 1.941 . S
O366 C373 1.266 . S
H367 C369 0.959 . S
H368 C369 0.961 . S
C369 C359 1.510 . S
C369 H367 0.959 . S
C369 H368 0.961 . S
C369 H370 0.960 . S
H370 C369 0.960 . S
H371 N351 0.862 . S
O372 Co340 1.920 . S
O372 C345 1.289 . S
C373 O365 1.258 . S
C373 O366 1.266 . S
Co374 O377 1.970 . S
Co374 N391 1.989 . S
Co374 O399 1.967 . S
Co374 O406 1.920 . S
Co375 O378 1.966 . S
Co375 N384 2.022 . S
Co375 N392 1.993 . S
Co375 O400 1.941 . S
C376 O377 1.258 . S
C376 O378 1.263 . S
O377 Co374 1.970 . S
O377 C376 1.258 . S
O378 Co375 1.966 . S
O378 C376 1.263 . S
C379 O380 1.235 . S
C379 O406 1.289 . S
O380 C379 1.235 . S
C381 C383 1.400 . S
C381 N384 1.351 . S
C381 C386 1.501 . S
C382 C383 1.387 . S
C382 N385 1.341 . S
C383 C381 1.400 . S
C383 C382 1.387 . S
N384 Co375 2.022 . S
N384 C381 1.351 . S
N384 N385 1.365 . S
N385 C382 1.341 . S
N385 N384 1.365 . S
N385 H405 0.862 . S
C386 C381 1.501 . S
C386 H387 0.961 . S
C386 H388 0.961 . S
C386 H389 0.960 . S
H387 C386 0.961 . S
H388 C386 0.961 . S
H389 C386 0.960 . S
C390 N391 1.342 . S
C390 C394 1.401 . S
C390 C395 1.499 . S
N391 Co374 1.989 . S
N391 C390 1.342 . S
N391 N392 1.388 . S
N392 Co375 1.993 . S
N392 N391 1.388 . S
N392 C393 1.346 . S
C393 N392 1.346 . S
C393 C394 1.396 . S
C393 C403 1.510 . S
C394 C390 1.401 . S
C394 C393 1.396 . S
C395 C390 1.499 . S
C395 H396 0.959 . S
C395 H397 0.960 . S
C395 H398 0.961 . S
H396 C395 0.959 . S
H397 C395 0.960 . S
H398 C395 0.961 . S
O399 Co374 1.967 . S
O399 C407 1.258 . S
O400 Co375 1.941 . S
O400 C407 1.266 . S
H401 C403 0.959 . S
H402 C403 0.961 . S
C403 C393 1.510 . S
C403 H401 0.959 . S
C403 H402 0.961 . S
C403 H404 0.960 . S
H404 C403 0.960 . S
H405 N385 0.862 . S
O406 Co374 1.920 . S
O406 C379 1.289 . S
C407 O399 1.258 . S
C407 O400 1.266 . S
Co408 O411 1.970 . S
Co408 N425 1.989 . S
Co408 O433 1.967 . S
Co408 O440 1.920 . S
Co409 O412 1.966 . S
Co409 N418 2.022 . S
Co409 N426 1.993 . S
Co409 O434 1.941 1_554 S
C410 O411 1.258 . S
C410 O412 1.263 1_556 S
O411 Co408 1.970 . S
O411 C410 1.258 . S
O412 Co409 1.966 . S
O412 C410 1.263 1_554 S
C413 O414 1.235 . S
C413 O440 1.289 . S
O414 C413 1.235 . S
C415 C417 1.400 . S
C415 N418 1.351 . S
C415 C420 1.501 . S
C416 C417 1.387 . S
C416 N419 1.341 . S
C417 C415 1.400 . S
C417 C416 1.387 . S
N418 Co409 2.022 . S
N418 C415 1.351 . S
N418 N419 1.365 . S
N419 C416 1.341 . S
N419 N418 1.365 . S
N419 H439 0.862 . S
C420 C415 1.501 . S
C420 H421 0.961 . S
C420 H422 0.961 . S
C420 H423 0.960 . S
H421 C420 0.961 . S
H422 C420 0.961 . S
H423 C420 0.960 . S
C424 N425 1.342 1_554 S
C424 C428 1.401 . S
C424 C429 1.499 1_554 S
N425 Co408 1.989 . S
N425 C424 1.342 1_556 S
N425 N426 1.388 1_556 S
N426 Co409 1.993 . S
N426 N425 1.388 1_554 S
N426 C427 1.346 . S
C427 N426 1.346 . S
C427 C428 1.396 . S
C427 C437 1.510 . S
C428 C424 1.401 . S
C428 C427 1.396 . S
C429 C424 1.499 1_556 S
C429 H430 0.959 . S
C429 H431 0.969 . S
C429 H432 0.961 . S
H430 C429 0.959 . S
H431 C429 0.969 . S
H432 C429 0.961 . S
O433 Co408 1.967 . S
O433 C441 1.258 . S
O434 Co409 1.941 1_556 S
O434 C441 1.266 . S
H435 C437 0.959 . S
H436 C437 0.961 . S
C437 C427 1.510 . S
C437 H435 0.959 . S
C437 H436 0.961 . S
C437 H438 0.960 . S
H438 C437 0.960 . S
H439 N419 0.862 . S
O440 Co408 1.920 . S
O440 C413 1.289 . S
C441 O433 1.258 . S
C441 O434 1.266 . S
Co442 O445 1.970 . S
Co442 N459 1.989 . S
Co442 O467 1.967 . S
Co442 O474 1.920 . S
Co443 O446 1.966 . S
Co443 N452 2.022 . S
Co443 N460 1.993 . S
Co443 O468 1.941 1_554 S
C444 O445 1.258 . S
C444 O446 1.263 1_556 S
O445 Co442 1.970 . S
O445 C444 1.258 . S
O446 Co443 1.966 . S
O446 C444 1.263 1_554 S
C447 O448 1.235 . S
C447 O474 1.289 . S
O448 C447 1.235 . S
C449 C451 1.400 . S
C449 N452 1.351 . S
C449 C454 1.501 . S
C450 C451 1.387 . S
C450 N453 1.341 . S
C451 C449 1.400 . S
C451 C450 1.387 . S
N452 Co443 2.022 . S
N452 C449 1.351 . S
N452 N453 1.365 . S
N453 C450 1.341 . S
N453 N452 1.365 . S
N453 H473 0.862 . S
C454 C449 1.501 . S
C454 H455 0.961 . S
C454 H456 0.961 . S
C454 H457 0.960 . S
H455 C454 0.961 . S
H456 C454 0.961 . S
H457 C454 0.960 . S
C458 N459 1.342 1_554 S
C458 C462 1.401 . S
C458 C463 1.499 1_554 S
N459 Co442 1.989 . S
N459 C458 1.342 1_556 S
N459 N460 1.388 1_556 S
N460 Co443 1.993 . S
N460 N459 1.388 1_554 S
N460 C461 1.346 . S
C461 N460 1.346 . S
C461 C462 1.396 . S
C461 C471 1.510 . S
C462 C458 1.401 . S
C462 C461 1.396 . S
C463 C458 1.499 1_556 S
C463 H464 0.959 . S
C463 H465 0.969 . S
C463 H466 0.961 . S
H464 C463 0.959 . S
H465 C463 0.969 . S
H466 C463 0.961 . S
O467 Co442 1.967 . S
O467 C475 1.258 . S
O468 Co443 1.941 1_556 S
O468 C475 1.266 . S
H469 C471 0.959 . S
H470 C471 0.961 . S
C471 C461 1.510 . S
C471 H469 0.959 . S
C471 H470 0.961 . S
C471 H472 0.960 . S
H472 C471 0.960 . S
H473 N453 0.862 . S
O474 Co442 1.920 . S
O474 C447 1.289 . S
C475 O467 1.258 . S
C475 O468 1.266 . S
Co476 O479 1.970 . S
Co476 N493 1.989 . S
Co476 O501 1.967 . S
Co476 O508 1.920 . S
Co477 O480 1.966 . S
Co477 N486 2.022 . S
Co477 N494 1.993 . S
Co477 O502 1.941 . S
C478 O479 1.258 . S
C478 O480 1.263 . S
O479 Co476 1.970 . S
O479 C478 1.258 . S
O480 Co477 1.966 . S
O480 C478 1.263 . S
C481 O482 1.235 . S
C481 O508 1.289 . S
O482 C481 1.235 . S
C483 C485 1.400 . S
C483 N486 1.351 . S
C483 C488 1.501 . S
C484 C485 1.387 . S
C484 N487 1.341 . S
C485 C483 1.400 . S
C485 C484 1.387 . S
N486 Co477 2.022 . S
N486 C483 1.351 . S
N486 N487 1.365 . S
N487 C484 1.341 . S
N487 N486 1.365 . S
N487 H507 0.862 . S
C488 C483 1.501 . S
C488 H489 0.961 . S
C488 H490 0.961 . S
C488 H491 0.960 . S
H489 C488 0.961 . S
H490 C488 0.961 . S
H491 C488 0.960 . S
C492 N493 1.342 . S
C492 C496 1.401 . S
C492 C497 1.499 . S
N493 Co476 1.989 . S
N493 C492 1.342 . S
N493 N494 1.388 . S
N494 Co477 1.993 . S
N494 N493 1.388 . S
N494 C495 1.346 . S
C495 N494 1.346 . S
C495 C496 1.396 . S
C495 C505 1.510 . S
C496 C492 1.401 . S
C496 C495 1.396 . S
C497 C492 1.499 . S
C497 H498 0.959 . S
C497 H499 0.960 . S
C497 H500 0.961 . S
H498 C497 0.959 . S
H499 C497 0.960 . S
H500 C497 0.961 . S
O501 Co476 1.967 . S
O501 C509 1.258 . S
O502 Co477 1.941 . S
O502 C509 1.266 . S
H503 C505 0.959 . S
H504 C505 0.961 . S
C505 C495 1.510 . S
C505 H503 0.959 . S
C505 H504 0.961 . S
C505 H506 0.960 . S
H506 C505 0.960 . S
H507 N487 0.862 . S
O508 Co476 1.920 . S
O508 C481 1.289 . S
C509 O501 1.258 . S
C509 O502 1.266 . S
Co510 O513 1.970 . S
Co510 N527 1.989 . S
Co510 O535 1.967 . S
Co510 O542 1.920 . S
Co511 O514 1.966 . S
Co511 N520 2.022 . S
Co511 N528 1.993 . S
Co511 O536 1.941 . S
C512 O513 1.258 . S
C512 O514 1.263 . S
O513 Co510 1.970 . S
O513 C512 1.258 . S
O514 Co511 1.966 . S
O514 C512 1.263 . S
C515 O516 1.235 . S
C515 O542 1.289 . S
O516 C515 1.235 . S
C517 C519 1.400 . S
C517 N520 1.351 . S
C517 C522 1.501 . S
C518 C519 1.387 . S
C518 N521 1.341 . S
C519 C517 1.400 . S
C519 C518 1.387 . S
N520 Co511 2.022 . S
N520 C517 1.351 . S
N520 N521 1.365 . S
N521 C518 1.341 . S
N521 N520 1.365 . S
N521 H541 0.862 . S
C522 C517 1.501 . S
C522 H523 0.961 . S
C522 H524 0.961 . S
C522 H525 0.960 . S
H523 C522 0.961 . S
H524 C522 0.961 . S
H525 C522 0.960 . S
C526 N527 1.342 . S
C526 C530 1.401 . S
C526 C531 1.499 . S
N527 Co510 1.989 . S
N527 C526 1.342 . S
N527 N528 1.388 . S
N528 Co511 1.993 . S
N528 N527 1.388 . S
N528 C529 1.346 . S
C529 N528 1.346 . S
C529 C530 1.396 . S
C529 C539 1.510 . S
C530 C526 1.401 . S
C530 C529 1.396 . S
C531 C526 1.499 . S
C531 H532 0.959 . S
C531 H533 0.960 . S
C531 H534 0.961 . S
H532 C531 0.959 . S
H533 C531 0.960 . S
H534 C531 0.961 . S
O535 Co510 1.967 . S
O535 C543 1.258 . S
O536 Co511 1.941 . S
O536 C543 1.266 . S
H537 C539 0.959 . S
H538 C539 0.961 . S
C539 C529 1.510 . S
C539 H537 0.959 . S
C539 H538 0.961 . S
C539 H540 0.960 . S
H540 C539 0.960 . S
H541 N521 0.862 . S
O542 Co510 1.920 . S
O542 C515 1.289 . S
C543 O535 1.258 . S
C543 O536 1.266 . S
H544 C552 0.950 . S
H545 C557 0.950 . S
H546 C554 0.950 . S
H547 C556 0.950 . S
H548 C558 0.950 . S
H549 C560 0.950 . S
H550 C562 0.950 . S
H551 C563 0.950 . S
C552 H544 0.950 . S
C552 C553 1.386 . S
C552 C554 1.391 . S
C553 C552 1.386 . S
C553 C557 1.393 . S
C554 H546 0.950 . S
C554 C552 1.391 . S
C554 C555 1.400 . S
C555 C554 1.400 . S
C555 C556 1.398 . S
C555 C561 1.491 . S
C556 H547 0.950 . S
C556 C555 1.398 . S
C556 C557 1.391 . S
C557 H545 0.950 . S
C557 C553 1.393 . S
C557 C556 1.391 . S
C558 H548 0.950 . S
C558 C559 1.386 . S
C558 C560 1.391 . S
C559 C558 1.386 . S
C559 C563 1.393 . S
C560 H549 0.950 . S
C560 C558 1.391 . S
C560 C561 1.400 . S
C561 C555 1.491 . S
C561 C560 1.400 . S
C561 C562 1.398 . S
C562 H550 0.950 . S
C562 C561 1.398 . S
C562 C563 1.391 . S
C563 H551 0.950 . S
C563 C559 1.393 . S
C563 C562 1.391 . S
H564 C572 0.950 . S
H565 C577 0.950 . S
H566 C574 0.950 . S
H567 C576 0.950 . S
H568 C578 0.950 . S
H569 C580 0.950 . S
H570 C582 0.950 . S
H571 C583 0.950 . S
C572 H564 0.950 . S
C572 C573 1.386 . S
C572 C574 1.391 . S
C573 C572 1.386 . S
C573 C577 1.393 . S
C574 H566 0.950 . S
C574 C572 1.391 . S
C574 C575 1.400 . S
C575 C574 1.400 . S
C575 C576 1.398 . S
C575 C581 1.491 . S
C576 H567 0.950 . S
C576 C575 1.398 . S
C576 C577 1.391 . S
C577 H565 0.950 . S
C577 C573 1.393 . S
C577 C576 1.391 . S
C578 H568 0.950 . S
C578 C579 1.386 . S
C578 C580 1.391 . S
C579 C578 1.386 . S
C579 C583 1.393 . S
C580 H569 0.950 . S
C580 C578 1.391 . S
C580 C581 1.400 . S
C581 C575 1.491 . S
C581 C580 1.400 . S
C581 C582 1.398 . S
C582 H570 0.950 . S
C582 C581 1.398 . S
C582 C583 1.391 . S
C583 H571 0.950 . S
C583 C579 1.393 . S
C583 C582 1.391 . S
H584 C592 0.950 . S
H585 C597 0.946 1_655 S
H586 C594 0.950 . S
H587 C596 0.950 . S
H588 C598 0.950 . S
H589 C600 0.950 . S
H590 C602 0.950 . S
H591 C603 0.950 . S
C592 H584 0.950 . S
C592 C593 1.386 . S
C592 C594 1.391 1_655 S
C593 C592 1.386 . S
C593 C597 1.393 1_655 S
C594 H586 0.950 . S
C594 C592 1.391 1_455 S
C594 C595 1.400 . S
C595 C594 1.400 . S
C595 C596 1.398 . S
C595 C601 1.491 . S
C596 H587 0.950 . S
C596 C595 1.398 . S
C596 C597 1.391 . S
C597 H585 0.946 1_455 S
C597 C593 1.393 1_455 S
C597 C596 1.391 . S
C598 H588 0.950 . S
C598 C599 1.386 . S
C598 C600 1.391 . S
C599 C598 1.386 . S
C599 C603 1.393 . S
C600 H589 0.950 . S
C600 C598 1.391 . S
C600 C601 1.400 . S
C601 C595 1.491 . S
C601 C600 1.400 . S
C601 C602 1.398 . S
C602 H590 0.950 . S
C602 C601 1.398 . S
C602 C603 1.391 . S
C603 H591 0.950 . S
C603 C599 1.393 . S
C603 C602 1.391 . S
H604 C612 0.950 . S
H605 C617 0.950 . S
H606 C614 0.950 . S
H607 C616 0.950 . S
H608 C618 0.950 . S
H609 C620 0.950 . S
H610 C622 0.950 . S
H611 C623 0.950 . S
C612 H604 0.950 . S
C612 C613 1.386 1_655 S
C612 C614 1.391 . S
C613 C612 1.386 1_455 S
C613 C617 1.393 . S
C614 H606 0.950 . S
C614 C612 1.391 . S
C614 C615 1.400 . S
C615 C614 1.400 . S
C615 C616 1.398 1_655 S
C615 C621 1.491 . S
C616 H607 0.950 . S
C616 C615 1.398 1_455 S
C616 C617 1.391 . S
C617 H605 0.950 . S
C617 C613 1.393 . S
C617 C616 1.391 . S
C618 H608 0.950 . S
C618 C619 1.386 . S
C618 C620 1.391 . S
C619 C618 1.386 . S
C619 C623 1.393 . S
C620 H609 0.950 . S
C620 C618 1.391 . S
C620 C621 1.400 . S
C621 C615 1.491 . S
C621 C620 1.400 . S
C621 C622 1.398 . S
C622 H610 0.950 . S
C622 C621 1.398 . S
C622 C623 1.391 . S
C623 H611 0.950 . S
C623 C619 1.393 . S
C623 C622 1.391 . S
H624 C632 0.950 . S
H625 C637 0.950 . S
H626 C634 0.950 . S
H627 C636 0.950 . S
H628 C638 0.950 . S
H629 C640 0.950 . S
H630 C642 0.950 . S
H631 C643 0.950 . S
C632 H624 0.950 . S
C632 C633 1.386 . S
C632 C634 1.391 . S
C633 C632 1.386 . S
C633 C637 1.393 . S
C634 H626 0.950 . S
C634 C632 1.391 . S
C634 C635 1.400 . S
C635 C634 1.400 . S
C635 C636 1.398 . S
C635 C641 1.491 . S
C636 H627 0.950 . S
C636 C635 1.398 . S
C636 C637 1.391 . S
C637 H625 0.950 . S
C637 C633 1.393 . S
C637 C636 1.391 . S
C638 H628 0.950 . S
C638 C639 1.386 . S
C638 C640 1.391 . S
C639 C638 1.386 . S
C639 C643 1.393 . S
C640 H629 0.950 . S
C640 C638 1.391 . S
C640 C641 1.400 . S
C641 C635 1.491 . S
C641 C640 1.400 . S
C641 C642 1.398 . S
C642 H630 0.950 . S
C642 C641 1.398 . S
C642 C643 1.391 . S
C643 H631 0.950 . S
C643 C639 1.393 . S
C643 C642 1.391 . S
H644 C652 0.950 . S
H645 C657 0.950 . S
H646 C654 0.950 . S
H647 C656 0.950 . S
H648 C658 0.950 . S
H649 C660 0.950 . S
H650 C662 0.950 . S
H651 C663 0.950 . S
C652 H644 0.950 . S
C652 C653 1.386 . S
C652 C654 1.391 . S
C653 C652 1.386 . S
C653 C657 1.393 . S
C654 H646 0.950 . S
C654 C652 1.391 . S
C654 C655 1.400 . S
C655 C654 1.400 . S
C655 C656 1.398 . S
C655 C661 1.491 . S
C656 H647 0.950 . S
C656 C655 1.398 . S
C656 C657 1.391 . S
C657 H645 0.950 . S
C657 C653 1.393 . S
C657 C656 1.391 . S
C658 H648 0.950 . S
C658 C659 1.386 . S
C658 C660 1.391 . S
C659 C658 1.386 . S
C659 C663 1.393 . S
C660 H649 0.950 . S
C660 C658 1.391 . S
C660 C661 1.400 . S
C661 C655 1.491 . S
C661 C660 1.400 . S
C661 C662 1.398 . S
C662 H650 0.950 . S
C662 C661 1.398 . S
C662 C663 1.391 . S
C663 H651 0.950 . S
C663 C659 1.393 . S
C663 C662 1.391 . S
H664 C672 0.950 . S
H665 C677 0.950 . S
H666 C674 0.950 . S
H667 C676 0.942 1_655 S
H668 C678 0.950 . S
H669 C680 0.950 . S
H670 C682 0.950 . S
H671 C683 0.950 . S
C672 H664 0.950 . S
C672 C673 1.386 1_455 S
C672 C674 1.391 . S
C673 C672 1.386 1_655 S
C673 C677 1.393 . S
C674 H666 0.950 . S
C674 C672 1.391 . S
C674 C675 1.400 . S
C675 C674 1.400 . S
C675 C676 1.425 . S
C675 C681 1.491 . S
C676 H667 0.942 1_455 S
C676 C675 1.425 . S
C676 C677 1.372 1_455 S
C677 H665 0.950 . S
C677 C673 1.393 . S
C677 C676 1.372 1_655 S
C678 H668 0.950 . S
C678 C679 1.386 . S
C678 C680 1.391 . S
C679 C678 1.386 . S
C679 C683 1.393 . S
C680 H669 0.950 . S
C680 C678 1.391 . S
C680 C681 1.400 . S
C681 C675 1.491 . S
C681 C680 1.400 . S
C681 C682 1.398 . S
C682 H670 0.950 . S
C682 C681 1.398 . S
C682 C683 1.391 . S
C683 H671 0.950 . S
C683 C679 1.393 . S
C683 C682 1.391 . S
H684 C692 0.950 . S
H685 C697 0.950 . S
H686 C694 0.950 . S
H687 C696 0.950 . S
H688 C698 0.950 . S
H689 C700 0.950 . S
H690 C702 0.950 . S
H691 C703 0.950 . S
C692 H684 0.950 . S
C692 C693 1.386 . S
C692 C694 1.391 . S
C693 C692 1.386 . S
C693 C697 1.393 . S
C694 H686 0.950 . S
C694 C692 1.391 . S
C694 C695 1.400 . S
C695 C694 1.400 . S
C695 C696 1.398 . S
C695 C701 1.491 . S
C696 H687 0.950 . S
C696 C695 1.398 . S
C696 C697 1.391 . S
C697 H685 0.950 . S
C697 C693 1.393 . S
C697 C696 1.391 . S
C698 H688 0.950 . S
C698 C699 1.386 . S
C698 C700 1.391 . S
C699 C698 1.386 . S
C699 C703 1.393 1_455 S
C700 H689 0.950 . S
C700 C698 1.391 . S
C700 C701 1.400 1_455 S
C701 C695 1.491 . S
C701 C700 1.400 1_655 S
C701 C702 1.398 . S
C702 H690 0.950 . S
C702 C701 1.398 . S
C702 C703 1.391 . S
C703 H691 0.950 . S
C703 C699 1.393 1_655 S
C703 C702 1.391 . S
H704 C712 0.950 . S
H705 C717 0.950 . S
H706 C714 0.950 . S
H707 C716 0.950 . S
H708 C718 0.950 . S
H709 C720 0.950 . S
H710 C722 0.950 . S
H711 C723 0.950 . S
C712 H704 0.950 . S
C712 C713 1.386 . S
C712 C714 1.391 . S
C713 C712 1.386 . S
C713 C717 1.393 . S
C714 H706 0.950 . S
C714 C712 1.391 . S
C714 C715 1.400 . S
C715 C714 1.400 . S
C715 C716 1.398 . S
C715 C721 1.491 . S
C716 H707 0.950 . S
C716 C715 1.398 . S
C716 C717 1.391 . S
C717 H705 0.950 . S
C717 C713 1.393 . S
C717 C716 1.391 . S
C718 H708 0.950 . S
C718 C719 1.386 . S
C718 C720 1.391 . S
C719 C718 1.386 . S
C719 C723 1.393 . S
C720 H709 0.950 . S
C720 C718 1.391 . S
C720 C721 1.400 . S
C721 C715 1.491 . S
C721 C720 1.400 . S
C721 C722 1.398 . S
C722 H710 0.950 . S
C722 C721 1.398 . S
C722 C723 1.391 . S
C723 H711 0.950 . S
C723 C719 1.393 . S
C723 C722 1.391 . S
H724 C732 0.950 . S
H725 C737 0.950 . S
H726 C734 0.950 . S
H727 C736 0.950 . S
H728 C738 0.950 . S
H729 C740 0.950 . S
H730 C742 0.950 . S
H731 C743 0.950 . S
C732 H724 0.950 . S
C732 C733 1.386 . S
C732 C734 1.391 . S
C733 C732 1.386 . S
C733 C737 1.393 . S
C734 H726 0.950 . S
C734 C732 1.391 . S
C734 C735 1.400 . S
C735 C734 1.400 . S
C735 C736 1.398 . S
C735 C741 1.491 . S
C736 H727 0.950 . S
C736 C735 1.398 . S
C736 C737 1.391 . S
C737 H725 0.950 . S
C737 C733 1.393 . S
C737 C736 1.391 . S
C738 H728 0.950 . S
C738 C739 1.386 . S
C738 C740 1.391 . S
C739 C738 1.386 . S
C739 C743 1.393 . S
C740 H729 0.950 . S
C740 C738 1.391 . S
C740 C741 1.400 . S
C741 C735 1.491 . S
C741 C740 1.400 . S
C741 C742 1.398 . S
C742 H730 0.950 . S
C742 C741 1.398 . S
C742 C743 1.391 . S
C743 H731 0.950 . S
C743 C739 1.393 . S
C743 C742 1.391 . S
H744 C752 0.950 . S
H745 C757 0.950 . S
H746 C754 0.950 . S
H747 C756 0.950 . S
H748 C758 0.950 . S
H749 C760 0.950 . S
H750 C762 0.950 . S
H751 C763 0.950 . S
C752 H744 0.950 . S
C752 C753 1.386 . S
C752 C754 1.391 . S
C753 C752 1.386 . S
C753 C757 1.393 . S
C754 H746 0.950 . S
C754 C752 1.391 . S
C754 C755 1.400 . S
C755 C754 1.400 . S
C755 C756 1.398 . S
C755 C761 1.491 . S
C756 H747 0.950 . S
C756 C755 1.398 . S
C756 C757 1.391 . S
C757 H745 0.950 . S
C757 C753 1.393 . S
C757 C756 1.391 . S
C758 H748 0.950 . S
C758 C759 1.386 . S
C758 C760 1.391 . S
C759 C758 1.386 . S
C759 C763 1.393 . S
C760 H749 0.950 . S
C760 C758 1.391 . S
C760 C761 1.400 . S
C761 C755 1.491 . S
C761 C760 1.400 . S
C761 C762 1.398 . S
C762 H750 0.950 . S
C762 C761 1.398 . S
C762 C763 1.391 . S
C763 H751 0.950 . S
C763 C759 1.393 . S
C763 C762 1.391 . S
H764 C772 0.950 . S
H765 C777 0.950 . S
H766 C774 0.950 . S
H767 C776 0.950 . S
H768 C778 0.950 . S
H769 C780 0.950 . S
H770 C782 0.950 . S
H771 C783 0.950 . S
C772 H764 0.950 . S
C772 C773 1.386 . S
C772 C774 1.391 . S
C773 C772 1.386 . S
C773 C777 1.393 . S
C774 H766 0.950 . S
C774 C772 1.391 . S
C774 C775 1.400 . S
C775 C774 1.400 . S
C775 C776 1.398 . S
C775 C781 1.491 . S
C776 H767 0.950 . S
C776 C775 1.398 . S
C776 C777 1.391 . S
C777 H765 0.950 . S
C777 C773 1.393 . S
C777 C776 1.391 . S
C778 H768 0.950 . S
C778 C779 1.386 . S
C778 C780 1.391 . S
C779 C778 1.386 . S
C779 C783 1.393 . S
C780 H769 0.950 . S
C780 C778 1.391 . S
C780 C781 1.400 . S
C781 C775 1.491 . S
C781 C780 1.400 . S
C781 C782 1.398 . S
C782 H770 0.950 . S
C782 C781 1.398 . S
C782 C783 1.391 . S
C783 H771 0.950 . S
C783 C779 1.393 . S
C783 C782 1.391 . S
H784 C792 0.950 . S
H785 C797 0.950 . S
H786 C794 0.950 . S
H787 C796 0.950 . S
H788 C798 0.950 . S
H789 C800 0.950 . S
H790 C802 0.950 . S
H791 C803 0.950 . S
C792 H784 0.950 . S
C792 C793 1.386 . S
C792 C794 1.391 . S
C793 C792 1.386 . S
C793 C797 1.393 . S
C794 H786 0.950 . S
C794 C792 1.391 . S
C794 C795 1.400 . S
C795 C794 1.400 . S
C795 C796 1.398 . S
C795 C801 1.491 . S
C796 H787 0.950 . S
C796 C795 1.398 . S
C796 C797 1.391 . S
C797 H785 0.950 . S
C797 C793 1.393 . S
C797 C796 1.391 . S
C798 H788 0.950 . S
C798 C799 1.386 . S
C798 C800 1.391 . S
C799 C798 1.386 . S
C799 C803 1.393 . S
C800 H789 0.950 . S
C800 C798 1.391 . S
C800 C801 1.400 . S
C801 C795 1.491 . S
C801 C800 1.400 . S
C801 C802 1.398 . S
C802 H790 0.950 . S
C802 C801 1.398 . S
C802 C803 1.391 . S
C803 H791 0.950 . S
C803 C799 1.393 . S
C803 C802 1.391 . S
H804 C812 0.950 . S
H805 C817 0.950 . S
H806 C814 0.950 . S
H807 C816 0.950 . S
H808 C818 0.950 . S
H809 C820 0.950 . S
H810 C822 0.950 . S
H811 C823 0.950 . S
C812 H804 0.950 . S
C812 C813 1.386 . S
C812 C814 1.391 . S
C813 C812 1.386 . S
C813 C817 1.393 . S
C814 H806 0.950 . S
C814 C812 1.391 . S
C814 C815 1.400 . S
C815 C814 1.400 . S
C815 C816 1.398 . S
C815 C821 1.491 . S
C816 H807 0.950 . S
C816 C815 1.398 . S
C816 C817 1.391 . S
C817 H805 0.950 . S
C817 C813 1.393 . S
C817 C816 1.391 . S
C818 H808 0.950 . S
C818 C819 1.386 . S
C818 C820 1.391 . S
C819 C818 1.386 . S
C819 C823 1.393 . S
C820 H809 0.950 . S
C820 C818 1.391 . S
C820 C821 1.400 . S
C821 C815 1.491 . S
C821 C820 1.400 . S
C821 C822 1.398 . S
C822 H810 0.950 . S
C822 C821 1.398 . S
C822 C823 1.391 . S
C823 H811 0.950 . S
C823 C819 1.393 . S
C823 C822 1.391 . S
H824 C832 0.950 . S
H825 C837 0.950 . S
H826 C834 0.950 . S
H827 C836 0.950 . S
H828 C838 0.950 . S
H829 C840 0.950 . S
H830 C842 0.950 . S
H831 C843 0.950 . S
C832 H824 0.950 . S
C832 C833 1.386 . S
C832 C834 1.391 . S
C833 C832 1.386 . S
C833 C837 1.393 . S
C834 H826 0.950 . S
C834 C832 1.391 . S
C834 C835 1.400 . S
C835 C834 1.400 . S
C835 C836 1.398 . S
C835 C841 1.491 . S
C836 H827 0.950 . S
C836 C835 1.398 . S
C836 C837 1.391 . S
C837 H825 0.950 . S
C837 C833 1.393 . S
C837 C836 1.391 . S
C838 H828 0.950 . S
C838 C839 1.386 . S
C838 C840 1.391 . S
C839 C838 1.386 . S
C839 C843 1.393 . S
C840 H829 0.950 . S
C840 C838 1.391 . S
C840 C841 1.400 . S
C841 C835 1.491 . S
C841 C840 1.400 . S
C841 C842 1.398 . S
C842 H830 0.950 . S
C842 C841 1.398 . S
C842 C843 1.391 . S
C843 H831 0.950 . S
C843 C839 1.393 . S
C843 C842 1.391 . S
H844 C852 0.950 . S
H845 C857 0.950 . S
H846 C854 0.950 . S
H847 C856 0.950 . S
H848 C858 0.950 . S
H849 C860 0.950 . S
H850 C862 0.950 . S
H851 C863 0.950 . S
C852 H844 0.950 . S
C852 C853 1.386 . S
C852 C854 1.391 . S
C853 C852 1.386 . S
C853 C857 1.393 . S
C854 H846 0.950 . S
C854 C852 1.391 . S
C854 C855 1.400 . S
C855 C854 1.400 . S
C855 C856 1.398 . S
C855 C861 1.491 . S
C856 H847 0.950 . S
C856 C855 1.398 . S
C856 C857 1.391 . S
C857 H845 0.950 . S
C857 C853 1.393 . S
C857 C856 1.391 . S
C858 H848 0.950 . S
C858 C859 1.386 . S
C858 C860 1.391 . S
C859 C858 1.386 . S
C859 C863 1.393 . S
C860 H849 0.950 . S
C860 C858 1.391 . S
C860 C861 1.400 . S
C861 C855 1.491 . S
C861 C860 1.400 . S
C861 C862 1.398 . S
C862 H850 0.950 . S
C862 C861 1.398 . S
C862 C863 1.391 . S
C863 H851 0.950 . S
C863 C859 1.393 . S
C863 C862 1.391 . S
H864 C872 0.950 1_455 S
H865 C877 0.950 . S
H866 C874 0.950 . S
H867 C876 0.950 . S
H868 C878 0.950 . S
H869 C880 0.950 . S
H870 C882 0.950 . S
H871 C883 0.950 . S
C872 H864 0.950 1_655 S
C872 C873 1.386 . S
C872 C874 1.391 1_655 S
C873 C872 1.386 . S
C873 C877 1.393 . S
C874 H866 0.950 . S
C874 C872 1.391 1_455 S
C874 C875 1.400 1_455 S
C875 C874 1.400 1_655 S
C875 C876 1.398 . S
C875 C881 1.491 . S
C876 H867 0.950 . S
C876 C875 1.398 . S
C876 C877 1.391 . S
C877 H865 0.950 . S
C877 C873 1.393 . S
C877 C876 1.391 . S
C878 H868 0.950 . S
C878 C879 1.386 1_655 S
C878 C880 1.391 . S
C879 C878 1.386 1_455 S
C879 C883 1.393 . S
C880 H869 0.950 . S
C880 C878 1.391 . S
C880 C881 1.400 . S
C881 C875 1.491 . S
C881 C880 1.400 . S
C881 C882 1.398 1_655 S
C882 H870 0.950 . S
C882 C881 1.398 1_455 S
C882 C883 1.391 . S
C883 H871 0.950 . S
C883 C879 1.393 . S
C883 C882 1.391 . S
H884 C892 0.950 . S
H885 C897 0.950 . S
H886 C894 0.950 1_655 S
H887 C896 0.950 . S
H888 C898 0.950 . S
H889 C900 0.950 . S
H890 C902 0.950 . S
H891 C903 0.950 . S
C892 H884 0.950 . S
C892 C893 1.386 . S
C892 C894 1.391 . S
C893 C892 1.386 . S
C893 C897 1.393 . S
C894 H886 0.950 1_455 S
C894 C892 1.391 . S
C894 C895 1.400 . S
C895 C894 1.400 . S
C895 C896 1.398 . S
C895 C901 1.491 . S
C896 H887 0.950 . S
C896 C895 1.398 . S
C896 C897 1.391 . S
C897 H885 0.950 . S
C897 C893 1.393 . S
C897 C896 1.391 . S
C898 H888 0.950 . S
C898 C899 1.386 1_455 S
C898 C900 1.391 . S
C899 C898 1.386 1_655 S
C899 C903 1.393 . S
C900 H889 0.950 . S
C900 C898 1.391 . S
C900 C901 1.400 . S
C901 C895 1.491 . S
C901 C900 1.400 . S
C901 C902 1.398 1_455 S
C902 H890 0.950 . S
C902 C901 1.398 1_655 S
C902 C903 1.391 . S
C903 H891 0.950 . S
C903 C899 1.393 . S
C903 C902 1.391 . S
H904 C912 0.950 . S
H905 C917 0.950 . S
H906 C914 0.950 . S
H907 C916 0.950 . S
H908 C918 0.950 . S
H909 C920 0.950 . S
H910 C922 0.950 . S
H911 C923 0.950 . S
C912 H904 0.950 . S
C912 C913 1.386 . S
C912 C914 1.391 . S
C913 C912 1.386 . S
C913 C917 1.393 . S
C914 H906 0.950 . S
C914 C912 1.391 . S
C914 C915 1.400 . S
C915 C914 1.400 . S
C915 C916 1.398 . S
C915 C921 1.491 . S
C916 H907 0.950 . S
C916 C915 1.398 . S
C916 C917 1.391 . S
C917 H905 0.950 . S
C917 C913 1.393 . S
C917 C916 1.391 . S
C918 H908 0.950 . S
C918 C919 1.386 . S
C918 C920 1.391 . S
C919 C918 1.386 . S
C919 C923 1.393 . S
C920 H909 0.950 . S
C920 C918 1.391 . S
C920 C921 1.400 . S
C921 C915 1.491 . S
C921 C920 1.400 . S
C921 C922 1.398 . S
C922 H910 0.950 . S
C922 C921 1.398 . S
C922 C923 1.391 . S
C923 H911 0.950 . S
C923 C919 1.393 . S
C923 C922 1.391 . S
H924 C932 0.950 . S
H925 C937 0.950 . S
H926 C934 0.950 . S
H927 C936 0.950 . S
H928 C938 0.950 . S
H929 C940 0.950 . S
H930 C942 0.950 . S
H931 C943 0.950 . S
C932 H924 0.950 . S
C932 C933 1.386 . S
C932 C934 1.391 . S
C933 C932 1.386 . S
C933 C937 1.393 . S
C934 H926 0.950 . S
C934 C932 1.391 . S
C934 C935 1.400 . S
C935 C934 1.400 . S
C935 C936 1.398 . S
C935 C941 1.491 . S
C936 H927 0.950 . S
C936 C935 1.398 . S
C936 C937 1.391 . S
C937 H925 0.950 . S
C937 C933 1.393 . S
C937 C936 1.391 . S
C938 H928 0.950 . S
C938 C939 1.386 . S
C938 C940 1.391 . S
C939 C938 1.386 . S
C939 C943 1.393 . S
C940 H929 0.950 . S
C940 C938 1.391 . S
C940 C941 1.400 . S
C941 C935 1.491 . S
C941 C940 1.400 . S
C941 C942 1.398 . S
C942 H930 0.950 . S
C942 C941 1.398 . S
C942 C943 1.391 . S
C943 H931 0.950 . S
C943 C939 1.393 . S
C943 C942 1.391 . S
H944 C952 0.950 1_455 S
H945 C957 0.950 . S
H946 C954 0.950 . S
H947 C956 0.950 . S
H948 C958 0.950 . S
H949 C960 0.950 . S
H950 C962 0.950 . S
H951 C963 0.950 . S
C952 H944 0.950 1_655 S
C952 C953 1.386 . S
C952 C954 1.391 1_655 S
C953 C952 1.386 . S
C953 C957 1.393 . S
C954 H946 0.950 . S
C954 C952 1.391 1_455 S
C954 C955 1.400 1_455 S
C955 C954 1.400 1_655 S
C955 C956 1.398 . S
C955 C961 1.491 . S
C956 H947 0.950 . S
C956 C955 1.398 . S
C956 C957 1.391 . S
C957 H945 0.950 . S
C957 C953 1.393 . S
C957 C956 1.391 . S
C958 H948 0.950 . S
C958 C959 1.386 1_655 S
C958 C960 1.391 . S
C959 C958 1.386 1_455 S
C959 C963 1.393 . S
C960 H949 0.950 . S
C960 C958 1.391 . S
C960 C961 1.400 . S
C961 C955 1.491 . S
C961 C960 1.400 . S
C961 C962 1.398 1_655 S
C962 H950 0.950 . S
C962 C961 1.398 1_455 S
C962 C963 1.391 . S
C963 H951 0.950 . S
C963 C959 1.393 . S
C963 C962 1.391 . S
H964 C972 0.950 1_655 S
H965 C977 0.950 . S
H966 C974 0.950 . S
H967 C976 0.950 . S
H968 C978 0.950 . S
H969 C980 0.950 . S
H970 C982 0.950 . S
H971 C983 0.950 . S
C972 H964 0.950 1_455 S
C972 C973 1.386 . S
C972 C974 1.391 1_455 S
C973 C972 1.386 . S
C973 C977 1.393 . S
C974 H966 0.950 . S
C974 C972 1.391 1_655 S
C974 C975 1.400 1_655 S
C975 C974 1.400 1_455 S
C975 C976 1.398 . S
C975 C981 1.491 . S
C976 H967 0.950 . S
C976 C975 1.398 . S
C976 C977 1.391 . S
C977 H965 0.950 . S
C977 C973 1.393 . S
C977 C976 1.391 . S
C978 H968 0.950 . S
C978 C979 1.386 1_455 S
C978 C980 1.391 . S
C979 C978 1.386 1_655 S
C979 C983 1.393 . S
C980 H969 0.950 . S
C980 C978 1.391 . S
C980 C981 1.400 . S
C981 C975 1.491 . S
C981 C980 1.400 . S
C981 C982 1.398 1_455 S
C982 H970 0.950 . S
C982 C981 1.398 1_655 S
C982 C983 1.391 . S
C983 H971 0.950 . S
C983 C979 1.393 . S
C983 C982 1.391 . S
H984 C992 0.950 . S
H985 C997 0.950 . S
H986 C994 0.953 . S
H987 C996 0.950 . S
H988 C998 0.950 . S
H989 C1000 0.950 . S
H990 C1002 0.950 1_545 S
H991 C1003 0.950 . S
C992 H984 0.950 . S
C992 C993 1.386 . S
C992 C994 1.388 1_556 S
C993 C992 1.386 . S
C993 C997 1.393 1_545 S
C994 H986 0.953 . S
C994 C992 1.388 1_554 S
C994 C995 1.400 1_545 S
C995 C994 1.400 1_565 S
C995 C996 1.379 1_554 S
C995 C1001 1.510 . S
C996 H987 0.950 . S
C996 C995 1.379 1_556 S
C996 C997 1.391 . S
C997 H985 0.950 . S
C997 C993 1.393 1_565 S
C997 C996 1.391 . S
C998 H988 0.950 . S
C998 C999 1.386 . S
C998 C1000 1.391 . S
C999 C998 1.386 . S
C999 C1003 1.393 . S
C1000 H989 0.950 . S
C1000 C998 1.391 . S
C1000 C1001 1.400 . S
C1001 C995 1.510 . S
C1001 C1000 1.400 . S
C1001 C1002 1.398 . S
C1002 H990 0.950 1_565 S
C1002 C1001 1.398 . S
C1002 C1003 1.391 . S
C1003 H991 0.950 . S
C1003 C999 1.393 . S
C1003 C1002 1.391 . S
H1004 C1012 0.950 . S
H1005 C1017 0.950 . S
H1006 C1014 0.950 . S
H1007 C1016 0.950 1_554 S
H1008 C1018 0.950 . S
H1009 C1020 0.950 1_565 S
H1010 C1022 0.950 . S
H1011 C1023 0.950 . S
C1012 H1004 0.950 . S
C1012 C1013 1.386 1_545 S
C1012 C1014 1.391 . S
C1013 C1012 1.386 1_565 S
C1013 C1017 1.393 . S
C1014 H1006 0.950 . S
C1014 C1012 1.391 . S
C1014 C1015 1.393 1_556 S
C1015 C1014 1.393 1_554 S
C1015 C1016 1.395 1_544 S
C1015 C1021 1.501 . S
C1016 H1007 0.950 1_556 S
C1016 C1015 1.395 1_566 S
C1016 C1017 1.391 . S
C1017 H1005 0.950 . S
C1017 C1013 1.393 . S
C1017 C1016 1.391 . S
C1018 H1008 0.950 . S
C1018 C1019 1.386 . S
C1018 C1020 1.391 . S
C1019 C1018 1.386 . S
C1019 C1023 1.393 . S
C1020 H1009 0.950 1_545 S
C1020 C1018 1.391 . S
C1020 C1021 1.400 . S
C1021 C1015 1.501 . S
C1021 C1020 1.400 . S
C1021 C1022 1.398 . S
C1022 H1010 0.950 . S
C1022 C1021 1.398 . S
C1022 C1023 1.391 . S
C1023 H1011 0.950 . S
C1023 C1019 1.393 . S
C1023 C1022 1.391 . S
H1024 C1032 0.950 . S
H1025 C1037 0.950 . S
H1026 C1034 0.950 . S
H1027 C1036 0.950 . S
H1028 C1038 0.950 . S
H1029 C1040 0.950 . S
H1030 C1042 0.950 . S
H1031 C1043 0.950 . S
C1032 H1024 0.950 . S
C1032 C1033 1.386 . S
C1032 C1034 1.391 . S
C1033 C1032 1.386 . S
C1033 C1037 1.393 . S
C1034 H1026 0.950 . S
C1034 C1032 1.391 . S
C1034 C1035 1.400 . S
C1035 C1034 1.400 . S
C1035 C1036 1.398 . S
C1035 C1041 1.491 . S
C1036 H1027 0.950 . S
C1036 C1035 1.398 . S
C1036 C1037 1.391 . S
C1037 H1025 0.950 . S
C1037 C1033 1.393 . S
C1037 C1036 1.391 . S
C1038 H1028 0.950 . S
C1038 C1039 1.386 . S
C1038 C1040 1.391 . S
C1039 C1038 1.386 . S
C1039 C1043 1.393 . S
C1040 H1029 0.950 . S
C1040 C1038 1.391 . S
C1040 C1041 1.400 . S
C1041 C1035 1.491 . S
C1041 C1040 1.400 . S
C1041 C1042 1.398 . S
C1042 H1030 0.950 . S
C1042 C1041 1.398 . S
C1042 C1043 1.391 . S
C1043 H1031 0.950 . S
C1043 C1039 1.393 . S
C1043 C1042 1.391 . S
H1044 C1052 0.950 . S
H1045 C1057 0.950 . S
H1046 C1054 0.950 . S
H1047 C1056 0.950 . S
H1048 C1058 0.950 . S
H1049 C1060 0.950 . S
H1050 C1062 0.950 . S
H1051 C1063 0.950 . S
C1052 H1044 0.950 . S
C1052 C1053 1.386 . S
C1052 C1054 1.391 . S
C1053 C1052 1.386 . S
C1053 C1057 1.393 . S
C1054 H1046 0.950 . S
C1054 C1052 1.391 . S
C1054 C1055 1.400 . S
C1055 C1054 1.400 . S
C1055 C1056 1.398 . S
C1055 C1061 1.491 . S
C1056 H1047 0.950 . S
C1056 C1055 1.398 . S
C1056 C1057 1.391 . S
C1057 H1045 0.950 . S
C1057 C1053 1.393 . S
C1057 C1056 1.391 . S
C1058 H1048 0.950 . S
C1058 C1059 1.386 . S
C1058 C1060 1.391 . S
C1059 C1058 1.386 . S
C1059 C1063 1.393 . S
C1060 H1049 0.950 . S
C1060 C1058 1.391 . S
C1060 C1061 1.400 . S
C1061 C1055 1.491 . S
C1061 C1060 1.400 . S
C1061 C1062 1.398 . S
C1062 H1050 0.950 . S
C1062 C1061 1.398 . S
C1062 C1063 1.391 . S
C1063 H1051 0.950 . S
C1063 C1059 1.393 . S
C1063 C1062 1.391 . S
H1064 C1072 0.950 . S
H1065 C1077 0.950 . S
H1066 C1074 0.950 . S
H1067 C1076 0.950 . S
H1068 C1078 0.950 . S
H1069 C1080 0.950 1_554 S
H1070 C1082 0.950 . S
H1071 C1083 0.950 . S
C1072 H1064 0.950 . S
C1072 C1073 1.386 . S
C1072 C1074 1.391 . S
C1073 C1072 1.386 . S
C1073 C1077 1.393 . S
C1074 H1066 0.950 . S
C1074 C1072 1.391 . S
C1074 C1075 1.400 . S
C1075 C1074 1.400 . S
C1075 C1076 1.398 . S
C1075 C1081 1.501 . S
C1076 H1067 0.950 . S
C1076 C1075 1.398 . S
C1076 C1077 1.391 . S
C1077 H1065 0.950 . S
C1077 C1073 1.393 . S
C1077 C1076 1.391 . S
C1078 H1068 0.950 . S
C1078 C1079 1.386 . S
C1078 C1080 1.391 . S
C1079 C1078 1.386 . S
C1079 C1083 1.393 . S
C1080 H1069 0.950 1_556 S
C1080 C1078 1.391 . S
C1080 C1081 1.398 1_556 S
C1081 C1075 1.501 . S
C1081 C1080 1.398 1_554 S
C1081 C1082 1.390 1_554 S
C1082 H1070 0.950 . S
C1082 C1081 1.390 1_556 S
C1082 C1083 1.391 . S
C1083 H1071 0.950 . S
C1083 C1079 1.393 . S
C1083 C1082 1.391 . S
H1084 C1092 0.950 . S
H1085 C1097 0.950 . S
H1086 C1094 0.950 . S
H1087 C1096 0.950 . S
H1088 C1098 0.950 . S
H1089 C1100 0.950 1_554 S
H1090 C1102 0.950 . S
H1091 C1103 0.950 . S
C1092 H1084 0.950 . S
C1092 C1093 1.386 . S
C1092 C1094 1.391 . S
C1093 C1092 1.386 . S
C1093 C1097 1.393 . S
C1094 H1086 0.950 . S
C1094 C1092 1.391 . S
C1094 C1095 1.400 . S
C1095 C1094 1.400 . S
C1095 C1096 1.398 . S
C1095 C1101 1.503 . S
C1096 H1087 0.950 . S
C1096 C1095 1.398 . S
C1096 C1097 1.391 . S
C1097 H1085 0.950 . S
C1097 C1093 1.393 . S
C1097 C1096 1.391 . S
C1098 H1088 0.950 . S
C1098 C1099 1.386 . S
C1098 C1100 1.391 . S
C1099 C1098 1.386 . S
C1099 C1103 1.393 . S
C1100 H1089 0.950 1_556 S
C1100 C1098 1.391 . S
C1100 C1101 1.399 1_556 S
C1101 C1095 1.503 . S
C1101 C1100 1.399 1_554 S
C1101 C1102 1.388 1_554 S
C1102 H1090 0.950 . S
C1102 C1101 1.388 1_556 S
C1102 C1103 1.391 . S
C1103 H1091 0.950 . S
C1103 C1099 1.393 . S
C1103 C1102 1.391 . S
H1104 C1112 0.950 . S
H1105 C1117 0.950 . S
H1106 C1114 0.950 . S
H1107 C1116 0.950 . S
H1108 C1118 0.950 . S
H1109 C1120 0.950 . S
H1110 C1122 0.950 . S
H1111 C1123 0.950 . S
C1112 H1104 0.950 . S
C1112 C1113 1.386 . S
C1112 C1114 1.391 . S
C1113 C1112 1.386 . S
C1113 C1117 1.393 . S
C1114 H1106 0.950 . S
C1114 C1112 1.391 . S
C1114 C1115 1.400 . S
C1115 C1114 1.400 . S
C1115 C1116 1.398 . S
C1115 C1121 1.491 . S
C1116 H1107 0.950 . S
C1116 C1115 1.398 . S
C1116 C1117 1.391 . S
C1117 H1105 0.950 . S
C1117 C1113 1.393 . S
C1117 C1116 1.391 . S
C1118 H1108 0.950 . S
C1118 C1119 1.386 . S
C1118 C1120 1.391 . S
C1119 C1118 1.386 . S
C1119 C1123 1.393 . S
C1120 H1109 0.950 . S
C1120 C1118 1.391 . S
C1120 C1121 1.400 . S
C1121 C1115 1.491 . S
C1121 C1120 1.400 . S
C1121 C1122 1.398 . S
C1122 H1110 0.950 . S
C1122 C1121 1.398 . S
C1122 C1123 1.391 . S
C1123 H1111 0.950 . S
C1123 C1119 1.393 . S
C1123 C1122 1.391 . S
H1124 C1132 0.950 . S
H1125 C1137 0.950 . S
H1126 C1134 0.950 . S
H1127 C1136 0.950 . S
H1128 C1138 0.950 . S
H1129 C1140 0.950 . S
H1130 C1142 0.950 . S
H1131 C1143 0.950 . S
C1132 H1124 0.950 . S
C1132 C1133 1.386 . S
C1132 C1134 1.391 . S
C1133 C1132 1.386 . S
C1133 C1137 1.393 . S
C1134 H1126 0.950 . S
C1134 C1132 1.391 . S
C1134 C1135 1.400 . S
C1135 C1134 1.400 . S
C1135 C1136 1.398 . S
C1135 C1141 1.491 . S
C1136 H1127 0.950 . S
C1136 C1135 1.398 . S
C1136 C1137 1.391 . S
C1137 H1125 0.950 . S
C1137 C1133 1.393 . S
C1137 C1136 1.391 . S
C1138 H1128 0.950 . S
C1138 C1139 1.386 . S
C1138 C1140 1.391 . S
C1139 C1138 1.386 . S
C1139 C1143 1.393 . S
C1140 H1129 0.950 . S
C1140 C1138 1.391 . S
C1140 C1141 1.400 . S
C1141 C1135 1.491 . S
C1141 C1140 1.400 . S
C1141 C1142 1.398 . S
C1142 H1130 0.950 . S
C1142 C1141 1.398 . S
C1142 C1143 1.391 . S
C1143 H1131 0.950 . S
C1143 C1139 1.393 . S
C1143 C1142 1.391 . S
H1144 C1152 0.950 . S
H1145 C1157 0.950 . S
H1146 C1154 0.950 . S
H1147 C1156 0.950 . S
H1148 C1158 0.953 . S
H1149 C1160 0.950 . S
H1150 C1162 0.950 . S
H1151 C1163 0.950 . S
C1152 H1144 0.950 . S
C1152 C1153 1.386 . S
C1152 C1154 1.391 . S
C1153 C1152 1.386 . S
C1153 C1157 1.393 . S
C1154 H1146 0.950 . S
C1154 C1152 1.391 . S
C1154 C1155 1.400 . S
C1155 C1154 1.400 . S
C1155 C1156 1.398 . S
C1155 C1161 1.491 . S
C1156 H1147 0.950 . S
C1156 C1155 1.398 . S
C1156 C1157 1.391 . S
C1157 H1145 0.950 . S
C1157 C1153 1.393 . S
C1157 C1156 1.391 . S
C1158 H1148 0.953 . S
C1158 C1159 1.398 . S
C1158 C1160 1.377 1_545 S
C1159 C1158 1.398 . S
C1159 C1163 1.393 . S
C1160 H1149 0.950 . S
C1160 C1158 1.377 1_565 S
C1160 C1161 1.400 . S
C1161 C1155 1.491 . S
C1161 C1160 1.400 . S
C1161 C1162 1.398 . S
C1162 H1150 0.950 . S
C1162 C1161 1.398 . S
C1162 C1163 1.391 1_565 S
C1163 H1151 0.950 . S
C1163 C1159 1.393 . S
C1163 C1162 1.391 1_545 S
H1164 C1172 0.950 . S
H1165 C1177 0.950 . S
H1166 C1174 0.950 . S
H1167 C1176 0.902 1_565 S
H1168 C1178 0.950 . S
H1169 C1180 0.950 . S
H1170 C1182 0.950 . S
H1171 C1183 0.950 . S
C1172 H1164 0.950 . S
C1172 C1173 1.386 . S
C1172 C1174 1.391 . S
C1173 C1172 1.386 . S
C1173 C1177 1.393 . S
C1174 H1166 0.950 . S
C1174 C1172 1.391 . S
C1174 C1175 1.400 . S
C1175 C1174 1.400 . S
C1175 C1176 1.398 . S
C1175 C1181 1.491 . S
C1176 H1167 0.902 1_545 S
C1176 C1175 1.398 . S
C1176 C1177 1.391 . S
C1177 H1165 0.950 . S
C1177 C1173 1.393 . S
C1177 C1176 1.391 . S
C1178 H1168 0.950 . S
C1178 C1179 1.386 . S
C1178 C1180 1.391 . S
C1179 C1178 1.386 . S
C1179 C1183 1.393 1_565 S
C1180 H1169 0.950 . S
C1180 C1178 1.391 . S
C1180 C1181 1.400 1_565 S
C1181 C1175 1.491 . S
C1181 C1180 1.400 1_545 S
C1181 C1182 1.398 . S
C1182 H1170 0.950 . S
C1182 C1181 1.398 . S
C1182 C1183 1.391 . S
C1183 H1171 0.950 . S
C1183 C1179 1.393 1_545 S
C1183 C1182 1.391 . S
H1184 C1192 0.950 . S
H1185 C1197 0.950 . S
H1186 C1194 0.950 . S
H1187 C1196 0.950 . S
H1188 C1198 0.950 . S
H1189 C1200 0.950 . S
H1190 C1202 0.951 . S
H1191 C1203 0.950 . S
C1192 H1184 0.950 . S
C1192 C1193 1.386 . S
C1192 C1194 1.391 . S
C1193 C1192 1.386 . S
C1193 C1197 1.393 . S
C1194 H1186 0.950 . S
C1194 C1192 1.391 . S
C1194 C1195 1.400 . S
C1195 C1194 1.400 . S
C1195 C1196 1.398 . S
C1195 C1201 1.491 . S
C1196 H1187 0.950 . S
C1196 C1195 1.398 . S
C1196 C1197 1.391 . S
C1197 H1185 0.950 . S
C1197 C1193 1.393 . S
C1197 C1196 1.391 . S
C1198 H1188 0.950 . S
C1198 C1199 1.386 . S
C1198 C1200 1.391 . S
C1199 C1198 1.386 . S
C1199 C1203 1.393 . S
C1200 H1189 0.950 . S
C1200 C1198 1.391 . S
C1200 C1201 1.400 1_554 S
C1201 C1195 1.491 . S
C1201 C1200 1.400 1_556 S
C1201 C1202 1.398 1_556 S
C1202 H1190 0.951 . S
C1202 C1201 1.398 1_554 S
C1202 C1203 1.391 . S
C1203 H1191 0.950 . S
C1203 C1199 1.393 . S
C1203 C1202 1.391 . S
H1204 C1212 0.950 . S
H1205 C1217 0.950 . S
H1206 C1214 0.950 . S
H1207 C1216 0.950 . S
H1208 C1218 0.950 . S
H1209 C1220 0.950 . S
H1210 C1222 0.951 . S
H1211 C1223 0.950 . S
C1212 H1204 0.950 . S
C1212 C1213 1.386 . S
C1212 C1214 1.391 . S
C1213 C1212 1.386 . S
C1213 C1217 1.393 . S
C1214 H1206 0.950 . S
C1214 C1212 1.391 . S
C1214 C1215 1.400 . S
C1215 C1214 1.400 . S
C1215 C1216 1.398 . S
C1215 C1221 1.491 . S
C1216 H1207 0.950 . S
C1216 C1215 1.398 . S
C1216 C1217 1.391 . S
C1217 H1205 0.950 . S
C1217 C1213 1.393 . S
C1217 C1216 1.391 . S
C1218 H1208 0.950 . S
C1218 C1219 1.386 . S
C1218 C1220 1.391 . S
C1219 C1218 1.386 . S
C1219 C1223 1.393 . S
C1220 H1209 0.950 . S
C1220 C1218 1.391 . S
C1220 C1221 1.400 1_554 S
C1221 C1215 1.491 . S
C1221 C1220 1.400 1_556 S
C1221 C1222 1.398 1_556 S
C1222 H1210 0.951 . S
C1222 C1221 1.398 1_554 S
C1222 C1223 1.391 . S
C1223 H1211 0.950 . S
C1223 C1219 1.393 . S
C1223 C1222 1.391 . S
H1224 C1232 0.950 . S
H1225 C1237 0.950 . S
H1226 C1234 0.950 . S
H1227 C1236 0.950 1_655 S
H1228 C1238 0.950 . S
H1229 C1240 0.950 . S
H1230 C1242 0.950 1_455 S
H1231 C1243 0.950 . S
C1232 H1224 0.950 . S
C1232 C1233 1.386 . S
C1232 C1234 1.391 . S
C1233 C1232 1.386 . S
C1233 C1237 1.393 . S
C1234 H1226 0.950 . S
C1234 C1232 1.391 . S
C1234 C1235 1.400 . S
C1235 C1234 1.400 . S
C1235 C1236 1.398 . S
C1235 C1241 1.491 1_455 S
C1236 H1227 0.950 1_455 S
C1236 C1235 1.398 . S
C1236 C1237 1.391 . S
C1237 H1225 0.950 . S
C1237 C1233 1.393 . S
C1237 C1236 1.391 . S
C1238 H1228 0.950 . S
C1238 C1239 1.386 . S
C1238 C1240 1.391 . S
C1239 C1238 1.386 . S
C1239 C1243 1.393 . S
C1240 H1229 0.950 . S
C1240 C1238 1.391 . S
C1240 C1241 1.400 . S
C1241 C1235 1.491 1_655 S
C1241 C1240 1.400 . S
C1241 C1242 1.398 . S
C1242 H1230 0.950 1_655 S
C1242 C1241 1.398 . S
C1242 C1243 1.391 . S
C1243 H1231 0.950 . S
C1243 C1239 1.393 . S
C1243 C1242 1.391 . S
H1244 C1252 0.950 . S
H1245 C1257 0.950 . S
H1246 C1254 0.950 . S
H1247 C1256 0.950 . S
H1248 C1258 0.950 . S
H1249 C1260 0.950 . S
H1250 C1262 0.950 . S
H1251 C1263 0.950 . S
C1252 H1244 0.950 . S
C1252 C1253 1.386 . S
C1252 C1254 1.391 . S
C1253 C1252 1.386 . S
C1253 C1257 1.393 . S
C1254 H1246 0.950 . S
C1254 C1252 1.391 . S
C1254 C1255 1.400 . S
C1255 C1254 1.400 . S
C1255 C1256 1.398 . S
C1255 C1261 1.491 . S
C1256 H1247 0.950 . S
C1256 C1255 1.398 . S
C1256 C1257 1.391 . S
C1257 H1245 0.950 . S
C1257 C1253 1.393 . S
C1257 C1256 1.391 . S
C1258 H1248 0.950 . S
C1258 C1259 1.386 . S
C1258 C1260 1.391 . S
C1259 C1258 1.386 . S
C1259 C1263 1.393 . S
C1260 H1249 0.950 . S
C1260 C1258 1.391 . S
C1260 C1261 1.400 . S
C1261 C1255 1.491 . S
C1261 C1260 1.400 . S
C1261 C1262 1.398 . S
C1262 H1250 0.950 . S
C1262 C1261 1.398 . S
C1262 C1263 1.391 . S
C1263 H1251 0.950 . S
C1263 C1259 1.393 . S
C1263 C1262 1.391 . S
H1264 C1272 0.950 . S
H1265 C1277 0.950 . S
H1266 C1274 0.950 . S
H1267 C1276 0.950 . S
H1268 C1278 0.950 . S
H1269 C1280 0.950 . S
H1270 C1282 0.950 . S
H1271 C1283 0.950 . S
C1272 H1264 0.950 . S
C1272 C1273 1.386 . S
C1272 C1274 1.391 . S
C1273 C1272 1.386 . S
C1273 C1277 1.393 . S
C1274 H1266 0.950 . S
C1274 C1272 1.391 . S
C1274 C1275 1.400 . S
C1275 C1274 1.400 . S
C1275 C1276 1.398 . S
C1275 C1281 1.491 . S
C1276 H1267 0.950 . S
C1276 C1275 1.398 . S
C1276 C1277 1.391 . S
C1277 H1265 0.950 . S
C1277 C1273 1.393 . S
C1277 C1276 1.391 . S
C1278 H1268 0.950 . S
C1278 C1279 1.386 . S
C1278 C1280 1.391 . S
C1279 C1278 1.386 . S
C1279 C1283 1.393 . S
C1280 H1269 0.950 . S
C1280 C1278 1.391 . S
C1280 C1281 1.400 . S
C1281 C1275 1.491 . S
C1281 C1280 1.400 . S
C1281 C1282 1.398 . S
C1282 H1270 0.950 . S
C1282 C1281 1.398 . S
C1282 C1283 1.391 . S
C1283 H1271 0.950 . S
C1283 C1279 1.393 . S
C1283 C1282 1.391 . S
H1284 C1292 0.950 . S
H1285 C1297 0.950 . S
H1286 C1294 0.950 . S
H1287 C1296 0.950 1_655 S
H1288 C1298 0.950 . S
H1289 C1300 0.950 . S
H1290 C1302 0.950 1_455 S
H1291 C1303 0.950 . S
C1292 H1284 0.950 . S
C1292 C1293 1.386 . S
C1292 C1294 1.391 1_545 S
C1293 C1292 1.386 . S
C1293 C1297 1.393 . S
C1294 H1286 0.950 . S
C1294 C1292 1.391 1_565 S
C1294 C1295 1.400 1_565 S
C1295 C1294 1.400 1_545 S
C1295 C1296 1.398 . S
C1295 C1301 1.491 1_445 S
C1296 H1287 0.950 1_455 S
C1296 C1295 1.398 . S
C1296 C1297 1.391 . S
C1297 H1285 0.950 . S
C1297 C1293 1.393 . S
C1297 C1296 1.391 . S
C1298 H1288 0.950 . S
C1298 C1299 1.386 . S
C1298 C1300 1.391 1_565 S
C1299 C1298 1.386 . S
C1299 C1303 1.393 . S
C1300 H1289 0.950 . S
C1300 C1298 1.391 1_545 S
C1300 C1301 1.400 1_545 S
C1301 C1295 1.491 1_665 S
C1301 C1300 1.400 1_565 S
C1301 C1302 1.398 . S
C1302 H1290 0.950 1_655 S
C1302 C1301 1.398 . S
C1302 C1303 1.391 . S
C1303 H1291 0.950 . S
C1303 C1299 1.393 . S
C1303 C1302 1.391 . S
H1304 C1312 0.950 . S
H1305 C1317 0.950 . S
H1306 C1314 0.950 . S
H1307 C1316 0.950 . S
H1308 C1318 0.950 . S
H1309 C1320 0.950 . S
H1310 C1322 0.950 . S
H1311 C1323 0.950 . S
C1312 H1304 0.950 . S
C1312 C1313 1.386 . S
C1312 C1314 1.391 . S
C1313 C1312 1.386 . S
C1313 C1317 1.393 . S
C1314 H1306 0.950 . S
C1314 C1312 1.391 . S
C1314 C1315 1.400 . S
C1315 C1314 1.400 . S
C1315 C1316 1.398 . S
C1315 C1321 1.491 . S
C1316 H1307 0.950 . S
C1316 C1315 1.398 . S
C1316 C1317 1.391 . S
C1317 H1305 0.950 . S
C1317 C1313 1.393 . S
C1317 C1316 1.391 . S
C1318 H1308 0.950 . S
C1318 C1319 1.386 . S
C1318 C1320 1.391 . S
C1319 C1318 1.386 . S
C1319 C1323 1.393 . S
C1320 H1309 0.950 . S
C1320 C1318 1.391 . S
C1320 C1321 1.400 . S
C1321 C1315 1.491 . S
C1321 C1320 1.400 . S
C1321 C1322 1.398 . S
C1322 H1310 0.950 . S
C1322 C1321 1.398 . S
C1322 C1323 1.391 . S
C1323 H1311 0.950 . S
C1323 C1319 1.393 . S
C1323 C1322 1.391 . S
H1324 C1332 0.950 . S
H1325 C1337 0.950 . S
H1326 C1334 0.950 . S
H1327 C1336 0.950 . S
H1328 C1338 0.950 . S
H1329 C1340 0.950 . S
H1330 C1342 0.950 . S
H1331 C1343 0.950 . S
C1332 H1324 0.950 . S
C1332 C1333 1.386 . S
C1332 C1334 1.391 1_565 S
C1333 C1332 1.386 . S
C1333 C1337 1.393 . S
C1334 H1326 0.950 . S
C1334 C1332 1.391 1_545 S
C1334 C1335 1.400 1_545 S
C1335 C1334 1.400 1_565 S
C1335 C1336 1.398 . S
C1335 C1341 1.491 1_565 S
C1336 H1327 0.950 . S
C1336 C1335 1.398 . S
C1336 C1337 1.391 . S
C1337 H1325 0.950 . S
C1337 C1333 1.393 . S
C1337 C1336 1.391 . S
C1338 H1328 0.950 . S
C1338 C1339 1.386 . S
C1338 C1340 1.391 1_545 S
C1339 C1338 1.386 . S
C1339 C1343 1.393 . S
C1340 H1329 0.950 . S
C1340 C1338 1.391 1_565 S
C1340 C1341 1.400 1_565 S
C1341 C1335 1.491 1_545 S
C1341 C1340 1.400 1_545 S
C1341 C1342 1.398 . S
C1342 H1330 0.950 . S
C1342 C1341 1.398 . S
C1342 C1343 1.391 . S
C1343 H1331 0.950 . S
C1343 C1339 1.393 . S
C1343 C1342 1.391 . S
C553 C5 1.410 . S
C559 C394 1.442 . S
C573 C39 1.397 . S
C579 C360 1.442 . S
C593 C54 1.438 . S
C599 C73 1.401 . S
C613 C20 1.441 . S
C619 C107 1.407 . S
C633 C141 1.403 . S
C639 C530 1.438 . S
C653 C175 1.390 . S
C659 C496 1.440 . S
C673 C190 1.441 . S
C679 C209 1.406 . S
C693 C243 1.405 . S
C699 C156 1.441 . S
C713 C122 1.439 . S
C719 C277 1.411 . S
C733 C88 1.440 . S
C739 C311 1.391 . S
C753 C326 1.440 . S
C759 C345 1.412 . S
C773 C292 1.439 . S
C779 C379 1.389 . S
C793 C413 1.389 . S
C799 C258 1.440 . S
C813 C447 1.390 . S
C819 C224 1.439 . S
C833 C481 1.411 . S
C839 C462 1.438 . S
C853 C428 1.441 . S
C859 C515 1.397 . S
C873 C203 1.541 . S
C879 C9 1.510 . S
C893 C169 1.539 . S
C899 C43 1.515 . S
C913 C77 1.505 . S
C919 C407 1.542 . S
C933 C373 1.539 . S
C939 C111 1.518 . S
C953 C67 1.542 . S
C959 C145 1.510 . S
C973 C33 1.540 . S
C979 C179 1.517 . S
C993 C213 1.515 . S
C999 C543 1.539 . S
C1013 C247 1.499 . S
C1019 C509 1.541 . S
C1033 C281 1.501 . S
C1039 C475 1.545 . S
C1053 C441 1.541 . S
C1059 C315 1.501 . S
C1073 C135 1.541 . S
C1079 C349 1.499 . S
C1093 C101 1.541 . S
C1099 C383 1.498 . S
C1113 C339 1.542 . S
C1119 C417 1.502 . S
C1133 C305 1.542 . S
C1139 C451 1.496 . S
C1153 C271 1.539 . S
C1159 C485 1.510 . S
C1173 C237 1.540 . S
C1179 C519 1.502 . S
C1193 C444 1.693 . S
C1199 C2 1.696 1_554 S
C1213 C36 1.693 . S
C1219 C410 1.696 1_554 S
C1233 C70 1.697 . S
C1239 C104 1.693 . S
C1253 C308 1.696 . S
C1259 C138 1.694 . S
C1273 C172 1.695 . S
C1279 C274 1.694 . S
C1293 C206 1.697 . S
C1299 C240 1.693 . S
C1313 C376 1.697 . S
C1319 C342 1.693 . S
C1333 C512 1.697 . S
C1339 C478 1.693 . S
