# Generated by pormake.
# Topology why, (6)-cn, num edge types: 1
# Building blocks:
#     Node 0, Type 0, BuildingBlock: CUWYAW_clean_sbu_0, # of connection points: 6
#     Node 1, Type 0, BuildingBlock: CUWYAW_clean_sbu_0, # of connection points: 6
#     Node 2, Type 0, BuildingBlock: CUWYAW_clean_sbu_0, # of connection points: 6
#     Node 3, Type 0, BuildingBlock: CUWYAW_clean_sbu_0, # of connection points: 6
#     Node 4, Type 0, BuildingBlock: CUWYAW_clean_sbu_0, # of connection points: 6
#     Node 5, Type 0, BuildingBlock: CUWYAW_clean_sbu_0, # of connection points: 6
#     Node 6, Type 0, BuildingBlock: CUWYAW_clean_sbu_0, # of connection points: 6
#     Node 7, Type 0, BuildingBlock: CUWYAW_clean_sbu_0, # of connection points: 6
#     Node 8, Type 0, BuildingBlock: CUWYAW_clean_sbu_0, # of connection points: 6
#     Node 9, Type 0, BuildingBlock: CUWYAW_clean_sbu_0, # of connection points: 6
#     Node 10, Type 0, BuildingBlock: CUWYAW_clean_sbu_0, # of connection points: 6
#     Node 11, Type 0, BuildingBlock: CUWYAW_clean_sbu_0, # of connection points: 6
#     Node 12, Type 0, BuildingBlock: CUWYAW_clean_sbu_0, # of connection points: 6
#     Node 13, Type 0, BuildingBlock: CUWYAW_clean_sbu_0, # of connection points: 6
#     Node 14, Type 0, BuildingBlock: CUWYAW_clean_sbu_0, # of connection points: 6
#     Node 15, Type 0, BuildingBlock: CUWYAW_clean_sbu_0, # of connection points: 6
#     Edge 16, Type (0, 0), BuildingBlock: CIFDUS_clean_linker_0, # of connection points: 2
#     Edge 17, Type (0, 0), BuildingBlock: CIFDUS_clean_linker_0, # of connection points: 2
#     Edge 18, Type (0, 0), BuildingBlock: CIFDUS_clean_linker_0, # of connection points: 2
#     Edge 19, Type (0, 0), BuildingBlock: CIFDUS_clean_linker_0, # of connection points: 2
#     Edge 20, Type (0, 0), BuildingBlock: CIFDUS_clean_linker_0, # of connection points: 2
#     Edge 21, Type (0, 0), BuildingBlock: CIFDUS_clean_linker_0, # of connection points: 2
#     Edge 22, Type (0, 0), BuildingBlock: CIFDUS_clean_linker_0, # of connection points: 2
#     Edge 23, Type (0, 0), BuildingBlock: CIFDUS_clean_linker_0, # of connection points: 2
#     Edge 24, Type (0, 0), BuildingBlock: CIFDUS_clean_linker_0, # of connection points: 2
#     Edge 25, Type (0, 0), BuildingBlock: CIFDUS_clean_linker_0, # of connection points: 2
#     Edge 26, Type (0, 0), BuildingBlock: CIFDUS_clean_linker_0, # of connection points: 2
#     Edge 27, Type (0, 0), BuildingBlock: CIFDUS_clean_linker_0, # of connection points: 2
#     Edge 28, Type (0, 0), BuildingBlock: CIFDUS_clean_linker_0, # of connection points: 2
#     Edge 29, Type (0, 0), BuildingBlock: CIFDUS_clean_linker_0, # of connection points: 2
#     Edge 30, Type (0, 0), BuildingBlock: CIFDUS_clean_linker_0, # of connection points: 2
#     Edge 31, Type (0, 0), BuildingBlock: CIFDUS_clean_linker_0, # of connection points: 2
#     Edge 32, Type (0, 0), BuildingBlock: CIFDUS_clean_linker_0, # of connection points: 2
#     Edge 33, Type (0, 0), BuildingBlock: CIFDUS_clean_linker_0, # of connection points: 2
#     Edge 34, Type (0, 0), BuildingBlock: CIFDUS_clean_linker_0, # of connection points: 2
#     Edge 35, Type (0, 0), BuildingBlock: CIFDUS_clean_linker_0, # of connection points: 2
#     Edge 36, Type (0, 0), BuildingBlock: CIFDUS_clean_linker_0, # of connection points: 2
#     Edge 37, Type (0, 0), BuildingBlock: CIFDUS_clean_linker_0, # of connection points: 2
#     Edge 38, Type (0, 0), BuildingBlock: CIFDUS_clean_linker_0, # of connection points: 2
#     Edge 39, Type (0, 0), BuildingBlock: CIFDUS_clean_linker_0, # of connection points: 2
#     Edge 40, Type (0, 0), BuildingBlock: CIFDUS_clean_linker_0, # of connection points: 2
#     Edge 41, Type (0, 0), BuildingBlock: CIFDUS_clean_linker_0, # of connection points: 2
#     Edge 42, Type (0, 0), BuildingBlock: CIFDUS_clean_linker_0, # of connection points: 2
#     Edge 43, Type (0, 0), BuildingBlock: CIFDUS_clean_linker_0, # of connection points: 2
#     Edge 44, Type (0, 0), BuildingBlock: CIFDUS_clean_linker_0, # of connection points: 2
#     Edge 45, Type (0, 0), BuildingBlock: CIFDUS_clean_linker_0, # of connection points: 2
#     Edge 46, Type (0, 0), BuildingBlock: CIFDUS_clean_linker_0, # of connection points: 2
#     Edge 47, Type (0, 0), BuildingBlock: CIFDUS_clean_linker_0, # of connection points: 2
#     Edge 48, Type (0, 0), BuildingBlock: CIFDUS_clean_linker_0, # of connection points: 2
#     Edge 49, Type (0, 0), BuildingBlock: CIFDUS_clean_linker_0, # of connection points: 2
#     Edge 50, Type (0, 0), BuildingBlock: CIFDUS_clean_linker_0, # of connection points: 2
#     Edge 51, Type (0, 0), BuildingBlock: CIFDUS_clean_linker_0, # of connection points: 2
#     Edge 52, Type (0, 0), BuildingBlock: CIFDUS_clean_linker_0, # of connection points: 2
#     Edge 53, Type (0, 0), BuildingBlock: CIFDUS_clean_linker_0, # of connection points: 2
#     Edge 54, Type (0, 0), BuildingBlock: CIFDUS_clean_linker_0, # of connection points: 2
#     Edge 55, Type (0, 0), BuildingBlock: CIFDUS_clean_linker_0, # of connection points: 2
#     Edge 56, Type (0, 0), BuildingBlock: CIFDUS_clean_linker_0, # of connection points: 2
#     Edge 57, Type (0, 0), BuildingBlock: CIFDUS_clean_linker_0, # of connection points: 2
#     Edge 58, Type (0, 0), BuildingBlock: CIFDUS_clean_linker_0, # of connection points: 2
#     Edge 59, Type (0, 0), BuildingBlock: CIFDUS_clean_linker_0, # of connection points: 2
#     Edge 60, Type (0, 0), BuildingBlock: CIFDUS_clean_linker_0, # of connection points: 2
#     Edge 61, Type (0, 0), BuildingBlock: CIFDUS_clean_linker_0, # of connection points: 2
#     Edge 62, Type (0, 0), BuildingBlock: CIFDUS_clean_linker_0, # of connection points: 2
#     Edge 63, Type (0, 0), BuildingBlock: CIFDUS_clean_linker_0, # of connection points: 2
# Relax obj value: 0.466
# Max RMSD: 0.244
# Mean RMSD: 0.244
data_MOF--net-why--node1-CUWYAW_clean_sbu_0--edge1-CIFDUS_clean_linker_0
_symmetry_space_group_name_H-M    P1
_symmetry_Int_Tables_number       1
_symmetry_cell_setting            triclinic
loop_
_symmetry_equiv_pos_as_xyz
'x, y, z'
_cell_length_a     44.630621
_cell_length_b     44.466422
_cell_length_c     35.811368
_cell_angle_alpha  90.126178
_cell_angle_beta   90.094229
_cell_angle_gamma 90.633792
loop_
_atom_site_label
_atom_site_type_symbol
_atom_site_fract_x
_atom_site_fract_y
_atom_site_fract_z
_atom_type_partial_charge
C0 C 0.43672 0.25461 0.16629 0.0
Eu1 Eu 0.45376 0.23272 0.10291 0.0
C2 C 0.42658 0.28428 0.17634 0.0
C3 C 0.42514 0.30675 0.14902 0.0
C4 C 0.41596 0.33546 0.1586 0.0
C5 C 0.40845 0.34196 0.1957 0.0
C6 C 0.41064 0.31946 0.22312 0.0
C7 C 0.4197 0.29069 0.21342 0.0
C8 C 0.44695 0.26663 0.0421 0.0
C9 C 0.40669 0.2114 0.03483 0.0
C10 C 0.51098 0.17223 0.01903 0.0
Eu11 Eu 0.4761 0.20289 0.06193 0.0
C12 C 0.53159 0.18168 0.99009 0.0
C13 C 0.55365 0.16194 0.97827 0.0
C14 C 0.57268 0.17031 0.94946 0.0
C15 C 0.56942 0.19833 0.93185 0.0
C16 C 0.54831 0.21881 0.94515 0.0
C17 C 0.52945 0.2105 0.97438 0.0
C18 C 0.45975 0.16259 0.12262 0.0
C19 C 0.51866 0.26561 0.08557 0.0
O20 O 0.41885 0.23916 0.14441 0.0
O21 O 0.4646 0.25396 0.15569 0.0
O22 O 0.42708 0.26414 0.06821 0.0
O23 O 0.4701 0.25113 0.0481 0.0
O24 O 0.40781 0.21876 0.07126 0.0
O25 O 0.43365 0.20503 0.02159 0.0
O26 O 0.48276 0.17662 1.01159 0.0
O27 O 0.51853 0.18067 0.05263 0.0
O28 O 0.44952 0.16229 0.08866 0.0
O29 O 0.47416 0.18787 0.12363 0.0
O30 O 0.51851 0.23842 0.06857 0.0
O31 O 0.4928 0.27018 0.10289 0.0
H32 H 0.43113 0.30213 0.12036 0.0
H33 H 0.41434 0.35244 0.13706 0.0
H34 H 0.40429 0.32379 0.2518 0.0
H35 H 0.42109 0.27346 0.23469 0.0
H36 H 0.55571 0.13986 0.99073 0.0
H37 H 0.58918 0.15438 0.93984 0.0
H38 H 0.54541 0.24044 0.93182 0.0
H39 H 0.51263 0.22609 0.98397 0.0
C40 C 0.66622 0.66319 0.39936 0.0
Eu41 Eu 0.68514 0.69929 0.34775 0.0
C42 C 0.65628 0.66917 0.43759 0.0
C43 C 0.62557 0.6718 0.44489 0.0
C44 C 0.61565 0.67706 0.48098 0.0
C45 C 0.63626 0.67947 0.51055 0.0
C46 C 0.66708 0.67859 0.50293 0.0
C47 C 0.67706 0.67337 0.4667 0.0
C48 C 0.65446 0.71328 0.28649 0.0
C49 C 0.71205 0.6583 0.27639 0.0
C50 C 0.75211 0.76672 0.27508 0.0
Eu51 Eu 0.72083 0.72794 0.31301 0.0
C52 C 0.74519 0.78514 0.24244 0.0
C53 C 0.76026 0.7799 0.2088 0.0
C54 C 0.75325 0.79658 0.1772 0.0
C55 C 0.73126 0.81884 0.17903 0.0
C56 C 0.71593 0.82385 0.21253 0.0
C57 C 0.72275 0.80705 0.24402 0.0
C58 C 0.7544 0.71211 0.37847 0.0
C59 C 0.6584 0.7681 0.34029 0.0
O60 O 0.64905 0.67373 0.37325 0.0
O61 O 0.69463 0.66747 0.39229 0.0
O62 O 0.64264 0.71225 0.3195 0.0
O63 O 0.68181 0.70616 0.28639 0.0
O64 O 0.69594 0.65694 0.3078 0.0
O65 O 0.72434 0.68568 0.27113 0.0
O66 O 0.75318 0.73783 0.26913 0.0
O67 O 0.73805 0.77337 0.30584 0.0
O68 O 0.76137 0.70671 0.34408 0.0
O69 O 0.72703 0.72222 0.37655 0.0
O70 O 0.68286 0.76722 0.31817 0.0
O71 O 0.65577 0.74309 0.36093 0.0
H72 H 0.60909 0.66897 0.42286 0.0
H73 H 0.59172 0.677 0.48599 0.0
H74 H 0.68337 0.68033 0.52532 0.0
H75 H 0.70093 0.6719 0.46176 0.0
H76 H 0.7774 0.7629 0.20695 0.0
H77 H 0.76544 0.79251 0.15157 0.0
H78 H 0.69863 0.8407 0.21429 0.0
H79 H 0.71039 0.81128 0.26947 0.0
C80 C 0.23684 0.91954 0.65972 0.0
Eu81 Eu 0.2194 0.94067 0.5964 0.0
C82 C 0.24192 0.8891 0.67138 0.0
C83 C 0.23722 0.86537 0.64607 0.0
C84 C 0.2397 0.83583 0.65808 0.0
C85 C 0.24672 0.83002 0.69547 0.0
C86 C 0.25127 0.85406 0.72061 0.0
C87 C 0.2487 0.88349 0.7086 0.0
C88 C 0.22443 0.90639 0.53582 0.0
C89 C 0.26402 0.96206 0.52684 0.0
C90 C 0.16066 1.00067 0.51474 0.0
Eu91 Eu 0.19529 0.96998 0.55791 0.0
C92 C 0.14191 0.99195 0.48304 0.0
C93 C 0.11812 0.97119 0.48694 0.0
C94 C 0.10157 0.96226 0.45576 0.0
C95 C 0.10888 0.97378 0.42049 0.0
C96 C 0.13353 0.99341 0.41657 0.0
C97 C 0.14963 1.00274 0.44766 0.0
C98 C 0.21304 1.01047 0.61796 0.0
C99 C 0.15357 0.90745 0.58229 0.0
O100 O 0.25552 0.93031 0.635 0.0
O101 O 0.2089 0.92468 0.65172 0.0
O102 O 0.24482 0.90861 0.56147 0.0
O103 O 0.20134 0.9219 0.54247 0.0
O104 O 0.26491 0.95509 0.56332 0.0
O105 O 0.23618 0.96759 0.51592 0.0
O106 O 0.1893 0.99782 0.50901 0.0
O107 O 0.15235 0.99117 0.54762 0.0
O108 O 0.22209 1.01105 0.58358 0.0
O109 O 0.19915 0.985 0.61932 0.0
O110 O 0.15283 0.935 0.56652 0.0
O111 O 0.18042 0.90268 0.59727 0.0
H112 H 0.23145 0.8697 0.61722 0.0
H113 H 0.2365 0.81763 0.63826 0.0
H114 H 0.25774 0.85018 0.74936 0.0
H115 H 0.252 0.90181 0.72825 0.0
H116 H 0.11216 0.96199 0.51393 0.0
H117 H 1.08263 0.94711 0.4594 0.0
H118 H 0.14007 1.00198 0.38945 0.0
H119 H 0.16834 1.0182 0.44401 0.0
C120 C 1.00745 0.48207 0.91012 0.0
Eu121 Eu 0.98597 0.46838 0.84525 0.0
C122 C 0.99646 0.4964 0.94363 0.0
C123 C 1.01125 0.49125 0.97728 0.0
C124 C 1.00377 0.50789 1.00868 0.0
C125 C 0.98149 0.53001 1.00651 0.0
C126 C 0.96441 0.53249 0.97366 0.0
C127 C 0.97198 0.5158 0.94219 0.0
C128 C 1.01648 0.46612 0.78236 0.0
C129 C 0.96249 0.51065 0.77784 0.0
C130 C 0.91869 0.41287 0.7628 0.0
Eu131 Eu 0.95369 0.43906 0.8111 0.0
C132 C 0.92579 0.39874 0.72718 0.0
C133 C 0.90614 0.40155 0.69694 0.0
C134 C 0.91336 0.38883 0.66255 0.0
C135 C 0.94026 0.37313 0.65828 0.0
C136 C 0.96034 0.37119 0.68831 0.0
C137 C 0.95326 0.38412 0.72248 0.0
C138 C 0.91963 0.45162 0.87802 0.0
C139 C 1.01616 0.39935 0.83393 0.0
O140 O 0.99494 0.45606 0.90258 0.0
O141 O 1.01061 0.49943 0.88088 0.0
O142 O 1.01666 0.48932 0.80448 0.0
O143 O 1.00111 0.444 0.79425 0.0
O144 O 0.97544 0.51322 0.81138 0.0
O145 O 0.95271 0.48252 0.77086 0.0
O146 O 0.92317 0.44184 0.76375 0.0
O147 O 0.92893 0.3994 0.79245 0.0
O148 O 0.92764 0.42534 0.86598 0.0
O149 O 0.93456 0.46987 0.85671 0.0
O150 O 0.99029 0.3987 0.81451 0.0
O151 O 1.01969 0.42596 0.85093 0.0
H152 H 1.02977 0.47571 0.97869 0.0
H153 H 1.01759 0.5055 0.03336 0.0
H154 H 0.94698 0.54916 0.97137 0.0
H155 H 0.95991 0.51927 0.9163 0.0
H156 H 0.88521 0.41342 0.70002 0.0
H157 H 0.89756 0.39044 0.63966 0.0
H158 H 0.98136 0.35945 0.6854 0.0
H159 H 0.96918 0.38254 0.74523 0.0
C160 C 0.65562 0.99506 1.0065 0.0
Eu161 Eu 0.6915 0.96545 0.96357 0.0
C162 C 0.64405 0.98831 0.0436 0.0
C163 C 0.64774 1.00961 0.07214 0.0
C164 C 0.63833 1.00293 0.10822 0.0
C165 C 0.62495 0.97496 0.11588 0.0
C166 C 0.62201 0.95333 0.08755 0.0
C167 C 0.63169 0.95988 0.05162 0.0
C168 C 0.70351 1.00132 0.89833 0.0
C169 C 0.65209 0.90281 0.93444 0.0
C170 C 0.75608 0.92417 0.87171 0.0
Eu171 Eu 0.71834 0.93344 0.92468 0.0
C172 C 0.78862 0.92183 0.87188 0.0
C173 C 0.80254 0.8949 0.88175 0.0
C174 C 0.83346 0.89259 0.87904 0.0
C175 C 0.85068 0.91719 0.86639 0.0
C176 C 0.837 0.94502 0.86075 0.0
C177 C 0.8061 0.94717 0.86269 0.0
C178 C 0.70979 0.89816 0.98377 0.0
C179 C 0.76179 0.95737 0.9968 0.0
O180 O 0.68437 1.00012 1.00535 0.0
O181 O 0.64622 0.97775 0.97932 0.0
O182 O 0.71174 1.00718 0.93223 0.0
O183 O 0.69263 0.97416 0.90029 0.0
O184 O 0.65343 0.92532 0.95966 0.0
O185 O 0.6755 0.90348 0.91132 0.0
O186 O 0.74619 0.95075 0.88042 0.0
O187 O 0.74076 0.90237 0.88725 0.0
O188 O 0.71029 0.88809 0.94969 0.0
O189 O 0.71487 0.92617 0.98598 0.0
O190 O 0.7622 0.94305 0.96377 0.0
O191 O 0.73448 0.96819 1.00428 0.0
H192 H 0.65786 1.03139 0.06646 0.0
H193 H 0.64048 1.01996 0.12977 0.0
H194 H 0.61179 0.93158 0.09313 0.0
H195 H 0.62939 0.94274 0.03024 0.0
H196 H 0.78955 0.87521 0.88973 0.0
H197 H 0.8434 0.87073 0.88325 0.0
H198 H 0.8499 0.96425 0.85108 0.0
H199 H 0.79585 0.96837 0.85551 0.0
C200 C 0.41827 0.39748 0.75008 0.0
Eu201 Eu 0.44793 0.43677 0.71113 0.0
C202 C 0.42671 0.38201 0.78399 0.0
C203 C 0.40621 0.36285 0.80143 0.0
C204 C 0.41437 0.34811 0.83399 0.0
C205 C 0.44305 0.35264 0.84955 0.0
C206 C 0.46372 0.37168 0.83166 0.0
C207 C 0.45554 0.38636 0.79896 0.0
C208 C 0.41275 0.45106 0.64612 0.0
C209 C 0.51267 0.39915 0.6851 0.0
C210 C 0.49653 0.50428 0.62692 0.0
Eu211 Eu 0.48099 0.46489 0.67607 0.0
C212 C 0.51645 0.52991 0.63055 0.0
C213 C 0.53701 0.53134 0.66025 0.0
C214 C 0.55651 0.5558 0.66345 0.0
C215 C 0.55511 0.57913 0.63735 0.0
C216 C 0.53356 0.57803 0.60859 0.0
C217 C 0.51431 0.55348 0.60523 0.0
C218 C 0.51327 0.45512 0.73831 0.0
C219 C 0.45682 0.50746 0.74739 0.0
O220 O 0.43417 0.3905 0.72093 0.0
O221 O 0.41478 0.42637 0.75376 0.0
O222 O 0.4064 0.45718 0.68053 0.0
O223 O 0.43997 0.44095 0.64775 0.0
O224 O 0.48813 0.39889 0.70723 0.0
O225 O 0.51384 0.42413 0.66456 0.0
O226 O 0.47196 0.5063 0.64642 0.0
O227 O 0.50937 0.47816 0.62978 0.0
O228 O 0.52497 0.45775 0.70537 0.0
O229 O 0.48552 0.45953 0.73807 0.0
O230 O 0.473 0.50819 0.71596 0.0
O231 O 0.44432 0.48002 0.75266 0.0
H232 H 0.38398 0.35934 0.7899 0.0
H233 H 0.39823 0.33314 0.84707 0.0
H234 H 0.48584 0.37565 0.84329 0.0
H235 H 0.47157 0.40116 0.78538 0.0
H236 H 0.53835 0.51332 0.68044 0.0
H237 H 0.57314 0.55613 0.68552 0.0
H238 H 0.53258 0.59543 0.5875 0.0
H239 H 0.49821 0.5526 0.58255 0.0
C240 C 1.01468 0.16053 0.50757 0.0
Eu241 Eu 0.97686 0.19076 0.46776 0.0
C242 C 1.03304 0.16868 0.54 0.0
C243 C 1.02938 0.15266 0.57333 0.0
C244 C 1.04631 0.1604 0.60465 0.0
C245 C 1.06722 0.18415 0.60287 0.0
C246 C 1.07036 0.20067 0.56979 0.0
C247 C 1.05331 0.19308 0.53858 0.0
C248 C 0.96008 0.15359 0.40534 0.0
C249 C 1.01765 0.2539 0.44037 0.0
C250 C 0.91234 0.24131 0.3842 0.0
Eu251 Eu 0.95125 0.22324 0.43188 0.0
C252 C 0.89191 0.26599 0.39005 0.0
C253 C 0.90105 0.29068 0.41194 0.0
C254 C 0.88167 0.31421 0.41842 0.0
C255 C 0.85326 0.31376 0.40196 0.0
C256 C 0.84318 0.28781 0.38286 0.0
C257 C 0.86252 0.26395 0.37696 0.0
C258 C 0.96218 0.25707 0.49343 0.0
C259 C 0.90698 0.20059 0.50223 0.0
O260 O 0.9859 0.15971 0.5133 0.0
O261 O 1.0217 0.17352 0.47615 0.0
O262 O 0.95301 0.14994 0.44007 0.0
O263 O 0.97217 0.1803 0.40469 0.0
O264 O 1.01672 0.22907 0.46197 0.0
O265 O 0.99269 0.25635 0.42024 0.0
O266 O 0.90738 0.21839 0.40604 0.0
O267 O 0.94065 0.24887 0.38211 0.0
O268 O 0.96106 0.26769 0.45993 0.0
O269 O 0.95628 0.22943 0.49418 0.0
O270 O 0.90722 0.2161 0.47033 0.0
O271 O 0.93382 0.18814 0.5088 0.0
H272 H 1.01353 0.13407 0.57506 0.0
H273 H 1.04366 0.1473 0.62993 0.0
H274 H 0.08612 0.21933 0.56805 0.0
H275 H 1.05619 0.20625 0.51342 0.0
H276 H 0.92357 0.29261 0.42264 0.0
H277 H 0.88998 0.33414 0.43271 0.0
H278 H 0.82146 0.28715 0.36931 0.0
H279 H 0.85497 0.24455 0.36101 0.0
C280 C 0.24749 0.75809 0.25537 0.0
Eu281 Eu 0.21778 0.72169 0.2122 0.0
C282 C 0.23875 0.77695 0.28694 0.0
C283 C 0.24885 0.76917 0.32261 0.0
C284 C 0.24005 0.7857 0.35345 0.0
C285 C 0.22171 0.81091 0.34911 0.0
C286 C 0.21068 0.81818 0.31358 0.0
C287 C 0.21908 0.80118 0.2826 0.0
C288 C 0.25819 0.70448 0.15219 0.0
C289 C 0.15396 0.76026 0.18719 0.0
C290 C 0.1663 0.67591 0.11045 0.0
Eu291 Eu 0.18855 0.69533 0.17287 0.0
C292 C 0.13611 0.66683 0.10066 0.0
C293 C 0.11389 0.66599 0.12828 0.0
C294 C 1.08443 0.65915 0.11868 0.0
C295 C 1.07697 0.65338 0.08131 0.0
C296 C 0.09932 0.65486 0.05366 0.0
C297 C 0.12879 0.66164 0.06335 0.0
C298 C 0.15552 0.6899 0.23463 0.0
C299 C 0.2116 0.65186 0.24284 0.0
O300 O 0.24499 0.72929 0.26144 0.0
O301 O 0.23802 0.7658 0.22225 0.0
O302 O 0.25925 0.69656 0.18697 0.0
O303 O 0.23246 0.71727 0.15041 0.0
O304 O 0.18087 0.7625 0.20453 0.0
O305 O 0.1507 0.73314 0.17163 0.0
O306 O 0.18027 0.6585 0.13389 0.0
O307 O 0.16876 0.7043 0.11895 0.0
O308 O 0.15806 0.66891 0.20979 0.0
O309 O 0.17007 0.71356 0.22649 0.0
O310 O 0.20333 0.65067 0.20675 0.0
O311 O 0.21749 0.67995 0.25371 0.0
H312 H 0.2635 0.75016 0.32667 0.0
H313 H 0.24815 0.77909 0.38074 0.0
H314 H 0.19645 0.83748 0.30958 0.0
H315 H 0.21042 0.80721 0.25539 0.0
H316 H 0.11927 0.67079 0.15715 0.0
H317 H 1.0676 0.65803 0.14041 0.0
H318 H 0.09424 0.64978 0.02473 0.0
H319 H 0.14581 0.66277 0.04183 0.0
C320 C 0.93403 0.7482 0.66393 0.0
Eu321 Eu 0.95187 0.72929 0.59962 0.0
C322 C 0.92828 0.77705 0.68047 0.0
C323 C 0.93816 0.80353 0.66289 0.0
C324 C 0.93713 0.83074 0.68205 0.0
C325 C 0.92632 0.83131 0.71873 0.0
C326 C 0.91522 0.8048 0.73533 0.0
C327 C 0.9164 0.77775 0.71631 0.0
C328 C 0.94706 0.76268 0.53922 0.0
C329 C 0.90719 0.7068 0.52983 0.0
C330 C 1.01227 0.66801 0.51712 0.0
Eu331 Eu 0.97681 0.6984 0.55979 0.0
C332 C 1.03172 0.6769 0.48664 0.0
C333 C 1.05282 0.65666 0.47339 0.0
C334 C 1.07076 0.66455 0.44326 0.0
C335 C 1.06747 0.69264 0.42583 0.0
C336 C 1.04708 0.71343 0.44022 0.0
C337 C 1.02924 0.70556 0.47063 0.0
C338 C 0.96224 0.6602 0.62292 0.0
C339 C 1.01787 0.76201 0.58398 0.0
O340 O 0.91543 0.73896 0.6381 0.0
O341 O 0.96207 0.7442 0.65541 0.0
O342 O 0.92724 0.76205 0.56559 0.0
O343 O 0.96986 0.74656 0.54543 0.0
O344 O 0.9065 0.71437 0.56621 0.0
O345 O 0.93489 0.7004 0.51893 0.0
O346 O 0.98369 0.67083 0.51056 0.0
O347 O 1.02022 0.67829 0.5498 0.0
O348 O 0.95348 0.6562 0.58872 0.0
O349 O 0.97438 0.68648 0.62182 0.0
O350 O 1.01847 0.73453 0.56768 0.0
O351 O 0.9913 0.76683 0.59989 0.0
H352 H 0.94755 0.80293 0.63501 0.0
H353 H 0.94528 0.85107 0.66869 0.0
H354 H 0.90572 0.80496 0.76316 0.0
H355 H 0.90886 0.75729 0.72996 0.0
H356 H 1.05508 0.63465 0.48595 0.0
H357 H 0.08676 0.64838 0.43296 0.0
H358 H 1.04412 0.73515 0.42714 0.0
H359 H 1.01306 0.72146 0.48114 0.0
C360 C 0.1836 0.16499 0.90268 0.0
Eu361 Eu 0.19338 0.20364 0.85069 0.0
C362 C 0.16972 0.13588 0.89723 0.0
C363 C 0.15275 0.13076 0.86477 0.0
C364 C 0.14003 0.10274 0.85814 0.0
C365 C 0.1435 1.07984 0.88446 0.0
C366 C 0.16241 1.08442 0.91555 0.0
C367 C 0.17559 0.11245 0.92182 0.0
C368 C 0.15412 0.20684 0.79393 0.0
C369 C 0.21322 0.15697 0.77934 0.0
C370 C 0.25405 0.26201 0.77062 0.0
Eu371 Eu 0.2222 0.22608 0.81163 0.0
C372 C 0.24978 0.27515 0.73379 0.0
C373 C 0.23847 0.30431 0.73063 0.0
C374 C 0.23417 0.3168 0.69565 0.0
C375 C 0.24133 0.30029 0.66356 0.0
C376 C 0.25202 0.27096 0.66657 0.0
C377 C 0.25633 0.25844 0.70152 0.0
C378 C 0.26099 0.21354 0.87443 0.0
C379 C 0.16205 0.2681 0.83892 0.0
O380 O 0.20935 0.16755 0.88581 0.0
O381 O 0.1661 0.1879 0.89702 0.0
O382 O 0.14644 0.20793 0.82879 0.0
O383 O 0.18194 0.20369 0.78931 0.0
O384 O 0.20066 0.15854 0.81327 0.0
O385 O 0.22396 0.18387 0.76929 0.0
O386 O 0.25757 0.233 0.77129 0.0
O387 O 0.23623 0.27145 0.7969 0.0
O388 O 0.26173 0.20172 0.84134 0.0
O389 O 0.23574 0.22761 0.87404 0.0
O390 O 0.18215 0.26385 0.81147 0.0
O391 O 0.16536 0.24732 0.86525 0.0
H392 H 0.14862 0.14865 0.84504 0.0
H393 H 0.12532 0.09972 0.83428 0.0
H394 H 0.16493 1.06722 0.93666 0.0
H395 H 0.18944 0.1161 0.94634 0.0
H396 H 0.2332 0.31755 0.75515 0.0
H397 H 0.22616 0.33966 0.69371 0.0
H398 H 0.25738 0.25791 0.64192 0.0
H399 H 0.26492 0.2358 0.70315 0.0
C400 C 0.74022 0.42305 0.1588 0.0
Eu401 Eu 0.71904 0.43981 0.09569 0.0
C402 C 0.76607 0.41183 0.17864 0.0
C403 C 0.76324 0.38408 0.19655 0.0
C404 C 0.78193 0.37753 0.22621 0.0
C405 C 0.80318 0.39893 0.23834 0.0
C406 C 0.80852 0.42497 0.21751 0.0
C407 C 0.79003 0.43139 0.18749 0.0
C408 C 0.72099 0.41065 0.0309 0.0
C409 C 0.76711 0.46191 0.02867 0.0
C410 C 0.6643 0.50668 1.0099 0.0
Eu411 Eu 0.69613 0.47413 0.05456 0.0
C412 C 0.64753 0.49895 0.97636 0.0
C413 C 0.65072 0.51724 0.94486 0.0
C414 C 0.63838 0.50817 0.91095 0.0
C415 C 0.62263 0.48079 0.90839 0.0
C416 C 0.61938 0.46249 0.93999 0.0
C417 C 0.63196 0.47142 0.97379 0.0
C418 C 0.70917 0.50915 0.12053 0.0
C419 C 0.65248 0.4114 0.08144 0.0
O420 O 0.74219 0.45064 0.14636 0.0
O421 O 0.7252 0.40463 0.13702 0.0
O422 O 0.74269 0.41015 0.05519 0.0
O423 O 0.69905 0.42622 0.04114 0.0
O424 O 0.7653 0.45078 0.06349 0.0
O425 O 0.74073 0.47205 0.01667 0.0
O426 O 0.69308 0.50332 1.00638 0.0
O427 O 0.65403 0.49609 0.0414 0.0
O428 O 0.71979 0.51384 0.08744 0.0
O429 O 0.696 0.48326 0.11725 0.0
O430 O 0.654 0.43753 0.06158 0.0
O431 O 0.67738 0.40673 0.10074 0.0
H432 H 0.74492 0.36874 0.18998 0.0
H433 H 0.77824 0.35681 0.24149 0.0
H434 H 0.82513 0.44147 0.22632 0.0
H435 H 0.79279 0.45291 0.17372 0.0
H436 H 0.66331 0.53819 0.94635 0.0
H437 H 0.64077 0.5227 0.88687 0.0
H438 H 0.60734 0.44122 0.93839 0.0
H439 H 0.62998 0.45658 0.99759 0.0
C440 C 0.49868 1.00484 0.4046 0.0
Eu441 Eu 0.48517 0.96792 0.35137 0.0
C442 C 0.5119 1.03457 0.4029 0.0
C443 C 0.52642 1.04412 0.37022 0.0
C444 C 0.53782 1.07326 0.36783 0.0
C445 C 0.53464 0.09298 0.3981 0.0
C446 C 0.51933 1.08337 0.43038 0.0
C447 C 0.50793 1.05428 0.43268 0.0
C448 C 0.51757 0.95996 0.28928 0.0
C449 C 0.46178 1.01444 0.28194 0.0
C450 C 0.42243 0.90588 0.2666 0.0
Eu451 Eu 0.45091 0.94257 0.31071 0.0
C452 C 0.43173 0.89047 0.23245 0.0
C453 C 0.41684 0.89658 0.19898 0.0
C454 C 0.42522 0.88206 0.16629 0.0
C455 C 0.44822 0.86071 0.16675 0.0
C456 C 0.46413 0.85568 0.1999 0.0
C457 C 0.45602 0.87055 0.23254 0.0
C458 C 0.41569 0.95488 0.37607 0.0
C459 C 0.51364 0.90149 0.33828 0.0
O460 O 0.47204 1.0031 0.3897 0.0
O461 O 0.51612 0.9829 0.39456 0.0
O462 O 0.52926 0.96067 0.32244 0.0
O463 O 0.49018 0.96611 0.28946 0.0
O464 O 0.47703 1.01254 0.31422 0.0
O465 O 0.44889 0.98793 0.27267 0.0
O466 O 0.42025 0.935 0.26414 0.0
O467 O 0.43533 0.89739 0.29744 0.0
O468 O 0.40974 0.96258 0.34204 0.0
O469 O 0.44247 0.94366 0.37418 0.0
O470 O 0.48984 0.90367 0.3149 0.0
O471 O 0.51528 0.92481 0.36168 0.0
H472 H 0.52917 1.02897 0.34676 0.0
H473 H 0.54974 1.08015 0.3429 0.0
H474 H 0.51731 0.09789 0.45455 0.0
H475 H 0.49633 1.0471 0.45775 0.0
H476 H 0.39854 0.91238 0.19818 0.0
H477 H 0.41313 0.88696 0.1408 0.0
H478 H 0.48194 0.83936 0.20102 0.0
H479 H 0.4684 0.86591 0.25787 0.0
C480 C 0.16657 0.50006 0.50398 0.0
Eu481 Eu 0.19148 0.46344 0.45721 0.0
C482 C 0.15184 0.49546 0.53986 0.0
C483 C 0.16134 0.51231 0.57078 0.0
C484 C 0.14675 0.50902 0.6048 0.0
C485 C 0.12221 0.48916 0.60805 0.0
C486 C 0.11377 0.47112 0.57753 0.0
C487 C 0.12866 0.47407 0.5437 0.0
C488 C 0.20063 0.49668 0.38939 0.0
C489 C 0.15042 0.40097 0.43636 0.0
C490 C 0.23132 0.40955 0.3597 0.0
Eu491 Eu 0.21941 0.43195 0.42448 0.0
C492 C 0.24518 0.42027 0.32569 0.0
C493 C 0.24076 0.40395 0.29284 0.0
C494 C 0.25792 0.41066 0.26158 0.0
C495 C 0.27981 0.43368 0.26317 0.0
C496 C 0.28143 0.45231 0.29489 0.0
C497 C 0.26424 0.44551 0.32621 0.0
C498 C 0.21748 0.40146 0.48738 0.0
C499 C 0.2631 0.45521 0.49073 0.0
O500 O 0.19526 0.49515 0.50355 0.0
O501 O 0.15284 0.48889 0.47492 0.0
O502 O 0.17544 0.48622 0.40206 0.0
O503 O 0.22044 0.48356 0.41008 0.0
O504 O 0.14933 0.42828 0.45248 0.0
O505 O 0.17765 0.39633 0.42214 0.0
O506 O 0.20568 0.42189 0.36772 0.0
O507 O 0.24921 0.40706 0.3885 0.0
O508 O 0.24044 0.40157 0.4651 0.0
O509 O 0.19548 0.4166 0.47579 0.0
O510 O 0.26503 0.4425 0.45705 0.0
O511 O 0.23518 0.46478 0.49776 0.0
H512 H 0.17973 0.52831 0.56846 0.0
H513 H 0.15418 0.52255 0.62832 0.0
H514 H 0.0949 0.45566 0.57924 0.0
H515 H 0.12149 0.46016 0.52041 0.0
H516 H 0.22558 0.38475 0.29215 0.0
H517 H 0.2562 0.3957 0.23776 0.0
H518 H 0.29794 0.4703 0.29669 0.0
H519 H 0.26724 0.45865 0.35149 0.0
C520 C 0.92121 0.90369 0.25711 0.0
Eu521 Eu 0.95117 0.93921 0.21372 0.0
C522 C 0.93103 0.88631 0.28942 0.0
C523 C 0.94543 0.85859 0.28479 0.0
C524 C 0.95558 0.84288 0.31581 0.0
C525 C 0.95142 0.85479 0.35163 0.0
C526 C 0.93843 0.88315 0.35606 0.0
C527 C 0.92791 0.89858 0.32528 0.0
C528 C 0.91325 0.9521 0.14964 0.0
C529 C 1.01424 0.89933 0.18801 0.0
C530 C 0.99831 0.98709 0.11227 0.0
Eu531 Eu 0.98097 0.96414 0.17356 0.0
C532 C 1.00814 1.00004 0.07768 0.0
C533 C 1.0388 1.00261 0.07074 0.0
C534 C 1.04851 1.01083 0.03559 0.0
C535 C 1.02757 1.0161 1.00708 0.0
C536 C 0.99682 1.01472 0.01458 0.0
C537 C 0.98708 1.00669 0.04999 0.0
C538 C 1.01323 0.97208 0.23506 0.0
C539 C 0.9581 1.00937 0.24229 0.0
O540 O 0.92225 0.9328 0.26156 0.0
O541 O 0.93138 0.89522 0.22465 0.0
O542 O 0.91032 0.96269 0.1832 0.0
O543 O 0.93894 0.93919 0.15133 0.0
O544 O 0.98902 0.89895 0.20905 0.0
O545 O 1.01613 0.92458 0.16825 0.0
O546 O 0.9731 0.99492 0.12789 0.0
O547 O 1.01434 0.96731 0.13004 0.0
O548 O 1.01029 0.99241 0.20954 0.0
O549 O 0.99887 0.94796 0.2282 0.0
O550 O 0.96642 1.00904 0.20633 0.0
O551 O 0.95172 0.98186 0.25462 0.0
H552 H 0.94857 0.84885 0.25734 0.0
H553 H 0.96543 0.82094 0.31192 0.0
H554 H 0.93544 0.8929 0.38355 0.0
H555 H 0.91729 0.9201 0.32962 0.0
H556 H 1.05518 0.99763 0.09219 0.0
H557 H 1.0724 1.01283 0.03062 0.0
H558 H 0.98047 1.01905 0.99292 0.0
H559 H 0.96326 1.00443 0.05527 0.0
C560 C 0.5106 0.6663 1.00961 0.0
Eu561 Eu 0.47524 0.69672 0.9668 0.0
C562 C 0.532 0.67454 0.03834 0.0
C563 C 0.55341 0.65372 0.04934 0.0
C564 C 0.57433 0.66152 0.07654 0.0
C565 C 0.57391 0.69025 0.09287 0.0
C566 C 0.55262 0.71128 0.08126 0.0
C567 C 0.53176 0.70347 0.05396 0.0
C568 C 0.46253 0.65849 0.90267 0.0
C569 C 0.5161 0.75988 0.93907 0.0
C570 C 0.4285 0.74172 0.8591 0.0
Eu571 Eu 0.45091 0.72765 0.92293 0.0
C572 C 0.3977 0.74281 0.8462 0.0
C573 C 0.3775 0.76371 0.86069 0.0
C574 C 0.34766 0.76259 0.84957 0.0
C575 C 0.33775 0.74023 0.82445 0.0
C576 C 0.35768 0.7182 0.8122 0.0
C577 C 0.38757 0.71996 0.82218 0.0
C578 C 0.44367 0.75876 0.98534 0.0
C579 C 0.40457 0.70336 0.99173 0.0
O580 O 0.48261 0.6714 0.01768 0.0
O581 O 0.5179 0.675 0.97609 0.0
O582 O 0.45183 0.65525 0.93612 0.0
O583 O 0.47539 0.6846 0.90451 0.0
O584 O 0.51495 0.73569 0.96207 0.0
O585 O 0.49187 0.76155 0.91766 0.0
O586 O 0.43679 0.71463 0.86787 0.0
O587 O 0.43752 0.76208 0.88313 0.0
O588 O 0.4228 0.75561 0.96018 0.0
O589 O 0.4677 0.74522 0.97729 0.0
O590 O 0.40567 0.71161 0.95543 0.0
O591 O 0.43158 0.69712 1.00523 0.0
H592 H 0.55379 0.63141 0.0371 0.0
H593 H 0.59027 0.64482 0.08554 0.0
H594 H 0.55204 0.7336 0.09344 0.0
H595 H 0.51539 0.71986 0.04517 0.0
H596 H 0.38473 0.7811 0.88005 0.0
H597 H 0.33286 0.78019 0.85898 0.0
H598 H 0.35049 0.70061 0.7931 0.0
H599 H 0.40279 0.70324 0.81133 0.0
C600 C 0.74977 0.25674 0.75389 0.0
Eu601 Eu 0.71621 0.22157 0.7135 0.0
C602 C 0.74741 0.27573 0.78688 0.0
C603 C 0.72889 0.301 0.78767 0.0
C604 C 0.72806 0.31898 0.8195 0.0
C605 C 0.74553 0.31164 0.85079 0.0
C606 C 0.76303 0.28567 0.85031 0.0
C607 C 0.76415 0.26801 0.81846 0.0
C608 C 0.75277 0.20515 0.65008 0.0
C609 C 0.65298 0.26037 0.68722 0.0
C610 C 0.65829 0.1689 0.61659 0.0
Eu611 Eu 0.68342 0.19225 0.67528 0.0
C612 C 0.64192 0.18176 0.58503 0.0
C613 C 0.61051 0.18084 0.58555 0.0
C614 C 0.59428 0.19005 0.55468 0.0
C615 C 0.60916 0.20006 0.52237 0.0
C616 C 0.64049 0.20388 0.52331 0.0
C617 C 0.65683 0.19454 0.55436 0.0
C618 C 0.65555 0.19003 0.7404 0.0
C619 C 0.7109 0.1516 0.74535 0.0
O620 O 0.74619 0.22808 0.76022 0.0
O621 O 0.73681 0.26558 0.7231 0.0
O622 O 0.75741 0.19845 0.68467 0.0
O623 O 0.72595 0.21603 0.65063 0.0
O624 O 0.67893 0.26189 0.70687 0.0
O625 O 0.64997 0.23386 0.66979 0.0
O626 O 0.64503 0.17166 0.64859 0.0
O627 O 0.68715 0.17383 0.61877 0.0
O628 O 0.65802 0.16719 0.71815 0.0
O629 O 0.66862 0.2136 0.7285 0.0
O630 O 0.70176 0.14933 0.70965 0.0
O631 O 0.71644 0.18003 0.75526 0.0
H632 H 0.71541 0.30707 0.76371 0.0
H633 H 0.7143 0.3389 0.81935 0.0
H634 H 0.77597 0.27908 0.87451 0.0
H635 H 0.77822 0.24828 0.81846 0.0
H636 H 0.59841 0.17152 0.60913 0.0
H637 H 0.57025 0.18645 0.55508 0.0
H638 H 0.6525 0.21189 0.49896 0.0
H639 H 0.68106 0.19614 0.55363 0.0
H640 H 0.52216 0.3327 0.08235 0.0
H641 H 0.58132 0.25693 0.08477 0.0
H642 H 0.6246 0.29149 0.08516 0.0
H643 H 0.6486 0.34477 0.08574 0.0
H644 H 0.58979 0.42033 0.07516 0.0
H645 H 0.54637 0.38588 0.07689 0.0
C646 C 0.54436 0.32316 0.08305 0.0
C647 C 0.54646 0.29021 0.0843 0.0
C648 C 0.57066 0.34418 0.08184 0.0
C649 C 0.57692 0.28081 0.08421 0.0
C650 C 0.60247 0.30123 0.08443 0.0
C651 C 0.62643 0.35429 0.08379 0.0
C652 C 0.62443 0.38715 0.08087 0.0
C653 C 0.60018 0.33326 0.08346 0.0
C654 C 0.59407 0.39651 0.0777 0.0
C655 C 0.56846 0.37616 0.07876 0.0
H656 H 0.5913 0.77136 0.33635 0.0
H657 H 0.66755 0.83127 0.3422 0.0
H658 H 0.63367 0.87441 0.34357 0.0
H659 H 0.58065 0.89824 0.34418 0.0
H660 H 0.50491 0.83865 0.32944 0.0
H661 H 0.53871 0.79545 0.33038 0.0
C662 C 0.60113 0.79367 0.33819 0.0
C663 C 0.63404 0.79589 0.34024 0.0
C664 C 0.58049 0.81999 0.33746 0.0
C665 C 0.64369 0.82663 0.34124 0.0
C666 C 0.62365 0.85215 0.34199 0.0
C667 C 0.5709 0.87595 0.34131 0.0
C668 C 0.53806 0.87376 0.33766 0.0
C669 C 0.59165 0.84972 0.3404 0.0
C670 C 0.52863 0.84319 0.33291 0.0
C671 C 0.54863 0.81764 0.33345 0.0
H672 H 0.14914 0.83998 0.58345 0.0
H673 H 0.09094 0.91644 0.5795 0.0
H674 H 1.04724 0.88247 0.58096 0.0
H675 H 1.02233 0.82947 0.58433 0.0
H676 H 1.08046 0.75295 0.58068 0.0
H677 H 0.12419 0.78691 0.58113 0.0
C678 C 0.12707 0.84984 0.58304 0.0
C679 C 0.12548 0.88289 0.58215 0.0
C680 C 0.10045 0.82908 0.58264 0.0
C681 C 0.09507 0.89252 0.58068 0.0
C682 C 1.06922 0.87243 0.58152 0.0
C683 C 1.04439 0.8196 0.58378 0.0
C684 C 1.04595 0.78655 0.58329 0.0
C685 C 1.07101 0.84034 0.58276 0.0
C686 C 1.07635 0.77688 0.58158 0.0
C687 C 0.10221 0.79697 0.58183 0.0
H688 H 1.06518 0.37782 0.88432 0.0
H689 H 1.02976 0.35991 0.77457 0.0
H690 H 1.06886 0.32238 0.76453 0.0
H691 H 0.11525 0.29175 0.78592 0.0
H692 H 0.14681 0.3061 0.89826 0.0
H693 H 0.10921 0.34522 0.90693 0.0
C694 C 1.06545 0.36593 0.85792 0.0
C695 C 1.04242 0.3737 0.83038 0.0
C696 C 0.08867 0.34242 0.85228 0.0
C697 C 1.04543 0.35612 0.79714 0.0
C698 C 1.0686 0.33397 0.79115 0.0
C699 C 0.11454 0.30334 0.81252 0.0
C700 C 0.13647 0.29451 0.84111 0.0
C701 C 0.09082 0.32643 0.81829 0.0
C702 C 0.13221 0.31094 0.87492 0.0
C703 C 0.10993 0.334 0.88009 0.0
H704 H 0.58757 0.89332 0.9571 0.0
H705 H 0.66189 0.84353 0.91318 0.0
H706 H 0.631 0.7978 0.91237 0.0
H707 H 0.58134 0.76884 0.9224 0.0
H708 H 0.50571 0.81904 0.96156 0.0
H709 H 0.53717 0.86454 0.96527 0.0
C710 C 0.59751 0.8727 0.94717 0.0
C711 C 0.62884 0.87403 0.93505 0.0
C712 C 0.57846 0.84495 0.94573 0.0
C713 C 0.63893 0.84538 0.92254 0.0
C714 C 0.62075 0.81832 0.92212 0.0
C715 C 0.57128 0.78944 0.93218 0.0
C716 C 0.53956 0.78832 0.94231 0.0
C717 C 0.59018 0.81724 0.93343 0.0
C718 C 0.52905 0.81711 0.95378 0.0
C719 C 0.54757 0.84397 0.95588 0.0
H720 H 0.51957 0.33154 0.69322 0.0
H721 H 0.57441 0.41107 0.68068 0.0
H722 H 0.61945 0.38011 0.68217 0.0
H723 H 0.64681 0.32872 0.68569 0.0
H724 H 0.59145 0.24902 0.69211 0.0
H725 H 0.54671 0.28027 0.69426 0.0
C726 C 0.54113 0.34274 0.69076 0.0
C727 C 0.54122 0.37566 0.68682 0.0
C728 C 0.56867 0.32372 0.6904 0.0
C729 C 0.57125 0.38701 0.68357 0.0
C730 C 0.59798 0.3687 0.68447 0.0
C731 C 0.6252 0.31755 0.68764 0.0
C732 C 0.62487 0.28443 0.68889 0.0
C733 C 0.59766 0.33665 0.68765 0.0
C734 C 0.59477 0.27316 0.69096 0.0
C735 C 0.56822 0.29164 0.69223 0.0
H736 H 1.02108 0.32074 0.43202 0.0
H737 H 1.07997 0.24619 0.45028 0.0
H738 H 0.12316 0.28087 0.44934 0.0
H739 H 0.14729 0.33392 0.44264 0.0
H740 H 0.08789 0.40905 0.43235 0.0
H741 H 1.04485 0.37421 0.43108 0.0
C742 C 1.04321 0.31146 0.43565 0.0
C743 C 1.04531 0.27873 0.44035 0.0
C744 C 1.06935 0.33271 0.43646 0.0
C745 C 1.07561 0.26983 0.44599 0.0
C746 C 0.10112 0.29032 0.44547 0.0
C747 C 0.12509 0.34325 0.4399 0.0
C748 C 0.12287 0.37608 0.43675 0.0
C749 C 0.09887 0.32211 0.44051 0.0
C750 C 0.09238 0.38523 0.4344 0.0
C751 C 1.06696 0.36466 0.43366 0.0
H752 H 0.14771 0.82833 0.18609 0.0
H753 H 0.09235 0.74867 0.19295 0.0
H754 H 1.04763 0.77997 0.19595 0.0
H755 H 1.02059 0.83145 0.19573 0.0
H756 H 1.07573 0.91074 0.18266 0.0
H757 H 0.12057 0.87961 0.18315 0.0
C758 C 0.12611 0.81718 0.18835 0.0
C759 C 0.12577 0.78411 0.18947 0.0
C760 C 0.09863 0.83628 0.18892 0.0
C761 C 0.09568 0.77281 0.19191 0.0
C762 C 1.06914 0.79132 0.19369 0.0
C763 C 1.04218 0.84255 0.19305 0.0
C764 C 1.04245 0.8755 0.18941 0.0
C765 C 1.06964 0.82341 0.19209 0.0
C766 C 1.07247 0.8867 0.18559 0.0
C767 C 0.09908 0.86829 0.18586 0.0
H768 H 0.27228 0.23179 0.95464 0.0
H769 H 0.31788 0.19422 0.85965 0.0
H770 H 0.36369 0.19042 0.89618 0.0
H771 H 0.39379 0.1964 0.95635 0.0
H772 H 0.34912 0.23265 0.05256 0.0
H773 H 0.30301 0.23786 0.01577 0.0
C774 C 0.29202 0.22275 0.94139 0.0
C775 C 0.28961 0.21338 0.90241 0.0
C776 C 0.31994 0.22 0.96377 0.0
C777 C 0.31707 0.20182 0.88838 0.0
C778 C 0.34412 0.19951 0.90983 0.0
C779 C 0.37413 0.20531 0.96997 0.0
C780 C 0.37674 0.21357 1.0092 0.0
C781 C 0.34632 0.20825 0.94786 0.0
C782 C 0.34955 0.22539 0.0237 0.0
C783 C 0.32243 0.22855 1.00204 0.0
H784 H 0.73099 0.57095 0.12661 0.0
H785 H 0.68235 0.50582 0.19212 0.0
H786 H 0.67855 0.54267 0.2432 0.0
H787 H 0.6889 0.5952 0.27221 0.0
H788 H 0.73767 0.65966 0.2055 0.0
H789 H 0.74089 0.62284 0.15495 0.0
C790 C 0.71949 0.56431 0.15194 0.0
C791 C 0.70713 0.5339 0.15362 0.0
C792 C 0.71727 0.58648 0.18253 0.0
C793 C 0.69242 0.52783 0.18807 0.0
C794 C 0.69019 0.54949 0.21805 0.0
C795 C 0.70052 0.6016 0.24689 0.0
C796 C 0.71338 0.63195 0.24496 0.0
C797 C 0.70254 0.57922 0.21622 0.0
C798 C 0.72767 0.6377 0.21014 0.0
C799 C 0.72953 0.61608 0.18033 0.0
H800 H 0.35295 0.97072 0.37767 0.0
H801 H 0.42003 0.93668 0.45233 0.0
H802 H 0.38285 0.93567 0.50313 0.0
H803 H 0.32922 0.94471 0.52931 0.0
H804 H 0.2631 0.97792 0.45226 0.0
H805 H 0.30037 0.97855 0.40267 0.0
C806 C 0.35997 0.963 0.40493 0.0
C807 C 0.39102 0.9539 0.40923 0.0
C808 C 0.33761 0.96234 0.43523 0.0
C809 C 0.39753 0.94403 0.44614 0.0
C810 C 0.37565 0.94347 0.47598 0.0
C811 C 0.32255 0.95242 0.50192 0.0
C812 C 0.29146 0.96185 0.49687 0.0
C813 C 0.34525 0.95267 0.4715 0.0
C814 C 0.28551 0.97084 0.45942 0.0
C815 C 0.30742 0.97118 0.43009 0.0
H816 H 0.94421 0.59666 0.62685 0.0
H817 H 0.98541 0.66478 0.69598 0.0
H818 H 0.98948 0.62832 0.74714 0.0
H819 H 0.98147 0.57532 0.7754 0.0
H820 H 0.94033 0.50769 0.70518 0.0
H821 H 0.93676 0.54415 0.6545 0.0
C822 C 0.95411 0.60403 0.65298 0.0
C823 C 0.96428 0.63519 0.65562 0.0
C824 C 0.95654 0.58205 0.68372 0.0
C825 C 0.97704 0.64216 0.69113 0.0
C826 C 0.97943 0.62072 0.72119 0.0
C827 C 0.97145 0.56812 0.74927 0.0
C828 C 0.96086 0.53697 0.74644 0.0
C829 C 0.96924 0.59027 0.71846 0.0
C830 C 0.94858 0.53027 0.71057 0.0
C831 C 0.9465 0.55169 0.68065 0.0
H832 H 0.82474 0.93428 0.99895 0.0
H833 H 0.76217 0.98151 0.06865 0.0
H834 H 0.79954 0.98405 0.1185 0.0
H835 H 0.85156 0.97397 0.14562 0.0
H836 H 0.91466 0.92656 0.07721 0.0
H837 H 0.87725 0.92352 0.02681 0.0
C838 C 0.81884 0.94543 0.02477 0.0
C839 C 0.78877 0.95808 0.02765 0.0
C840 C 0.84158 0.94698 0.05517 0.0
C841 C 0.78381 0.97168 0.06317 0.0
C842 C 0.80579 0.97315 0.09264 0.0
C843 C 0.85765 0.9629 0.11981 0.0
C844 C 0.88777 0.95065 0.11718 0.0
C845 C 0.83508 0.9611 0.08952 0.0
C846 C 0.89298 0.93652 0.08208 0.0
C847 C 0.87097 0.93475 0.05244 0.0
H848 H 0.4395 0.59645 0.89717 0.0
H849 H 0.48932 0.66029 0.8311 0.0
H850 H 0.49257 0.62305 0.78045 0.0
H851 H 0.48129 0.57049 0.75162 0.0
H852 H 0.43123 0.50726 0.81863 0.0
H853 H 0.42869 0.54441 0.86895 0.0
C854 C 0.45114 0.60276 0.87182 0.0
C855 C 0.46401 0.63305 0.86999 0.0
C856 C 0.45299 0.58028 0.8413 0.0
C857 C 0.47885 0.6385 0.83541 0.0
C858 C 0.48075 0.61656 0.8056 0.0
C859 C 0.46951 0.56438 0.77694 0.0
C860 C 0.45608 0.53417 0.77888 0.0
C861 C 0.46788 0.58703 0.80755 0.0
C862 C 0.44168 0.52899 0.81382 0.0
C863 C 0.44021 0.55086 0.84356 0.0
H864 H 0.81495 0.18541 0.64858 0.0
H865 H 0.75193 0.22947 0.57663 0.0
H866 H 0.79047 0.2328 0.52767 0.0
H867 H 0.84388 0.2228 0.50205 0.0
H868 H 0.90594 0.17801 0.5749 0.0
H869 H 0.86768 0.17591 0.62364 0.0
C870 C 0.80907 0.19574 0.62226 0.0
C871 C 0.7786 0.20689 0.61815 0.0
C872 C 0.83224 0.1975 0.5928 0.0
C873 C 0.77375 0.22022 0.58254 0.0
C874 C 0.79646 0.22218 0.55378 0.0
C875 C 0.84948 0.21228 0.52835 0.0
C876 C 0.8797 0.20016 0.53253 0.0
C877 C 0.82612 0.21079 0.55791 0.0
C878 C 0.88424 0.18735 0.5685 0.0
C879 C 0.86173 0.18614 0.59727 0.0
H880 H 0.23647 0.5538 0.3815 0.0
H881 H 0.16701 0.50321 0.32536 0.0
H882 H 0.16394 0.54216 0.27743 0.0
H883 H 0.18009 0.5926 0.24838 0.0
H884 H 0.24605 0.64565 0.30753 0.0
H885 H 0.25066 0.60576 0.35419 0.0
C886 C 0.22089 0.55059 0.3586 0.0
C887 C 0.20265 0.52314 0.35828 0.0
C888 C 0.21836 0.5747 0.33012 0.0
C889 C 0.18214 0.52232 0.32775 0.0
C890 C 0.18022 0.5453 0.2996 0.0
C891 C 0.19595 0.59575 0.27099 0.0
C892 C 0.21335 0.62373 0.27181 0.0
C893 C 0.19815 0.57194 0.29982 0.0
C894 C 0.23246 0.62555 0.30373 0.0
C895 C 0.23516 0.6021 0.33129 0.0
H896 H 0.81762 0.69778 0.38029 0.0
H897 H 0.74991 0.72958 0.45552 0.0
H898 H 0.78732 0.73124 0.50627 0.0
H899 H 0.84138 0.72315 0.53244 0.0
H900 H 0.90788 0.69171 0.45481 0.0
H901 H 0.87047 0.69083 0.40526 0.0
C902 C 0.81044 0.70508 0.40768 0.0
C903 C 0.77908 0.7133 0.41202 0.0
C904 C 0.83294 0.70601 0.43804 0.0
C905 C 0.77255 0.72277 0.44917 0.0
C906 C 0.7946 0.72372 0.47902 0.0
C907 C 0.84814 0.71576 0.50493 0.0
C908 C 0.87948 0.70691 0.49982 0.0
C909 C 0.82526 0.71525 0.47447 0.0
C910 C 0.88537 0.69832 0.46216 0.0
C911 C 0.86334 0.69784 0.4328 0.0
H912 H 0.23299 0.14353 0.70206 0.0
H913 H 0.18785 0.09998 0.79363 0.0
H914 H 0.18295 1.05386 0.75638 0.0
H915 H 0.19155 1.02268 0.69618 0.0
H916 H 0.23689 1.067 0.6052 0.0
H917 H 0.241 0.11294 0.64229 0.0
C918 C 0.22213 0.12414 0.71458 0.0
C919 C 0.21125 0.12718 0.75278 0.0
C920 C 0.21922 0.09623 0.69207 0.0
C921 C 0.19706 0.10022 0.76569 0.0
C922 C 0.19412 1.07303 0.74375 0.0
C923 C 0.20249 1.04214 0.68396 0.0
C924 C 0.21401 1.03931 0.64596 0.0
C925 C 0.20515 1.07014 0.70659 0.0
C926 C 0.22769 1.06649 0.63315 0.0
C927 C 0.23014 0.09361 0.65496 0.0
H928 H 0.79492 0.49705 0.96602 0.0
H929 H 0.80923 0.41594 0.0288 0.0
H930 H 0.85302 0.40492 0.99032 0.0
H931 H 0.89024 0.41728 0.93786 0.0
H932 H 0.87989 0.5009 0.87927 0.0
H933 H 0.83438 0.51104 0.9156 0.0
C934 C 0.80741 0.47688 0.97195 0.0
C935 C 0.79663 0.45756 1.0023 0.0
C936 C 0.83478 0.47081 0.94957 0.0
C937 C 0.81514 0.43193 1.0072 0.0
C938 C 0.84096 0.4254 0.98454 0.0
C939 C 0.87845 0.43802 0.93271 0.0
C940 C 0.8905 0.45806 0.90405 0.0
C941 C 0.85156 0.44453 0.95547 0.0
C942 C 0.87306 0.48451 0.89998 0.0
C943 C 0.84624 0.49044 0.92132 0.0
H944 H 0.43875 1.02937 0.20601 0.0
H945 H 0.48932 1.07062 0.29525 0.0
H946 H 0.49404 0.11689 0.2586 0.0
H947 H 0.48401 0.14893 0.19953 0.0
H948 H 0.43353 0.10689 0.11069 0.0
H949 H 0.42933 1.06083 0.14725 0.0
C950 C 0.45077 1.04827 0.21819 0.0
C951 C 0.46324 1.04445 0.2556 0.0
C952 C 0.45368 1.07633 0.19595 0.0
C953 C 0.47885 1.0709 0.26797 0.0
C954 C 0.48171 0.09821 0.24635 0.0
C955 C 0.4719 0.12997 0.18765 0.0
C956 C 0.45897 0.13356 0.15039 0.0
C957 C 0.46923 0.10183 0.20999 0.0
C958 C 0.44387 0.1069 0.13806 0.0
C959 C 0.44135 1.07967 0.15958 0.0
H960 H 0.32771 0.43752 0.49166 0.0
H961 H 0.26088 0.47419 0.56501 0.0
H962 H 0.29756 0.47593 0.61575 0.0
H963 H 0.34991 0.46781 0.64268 0.0
H964 H 0.41759 0.43164 0.57049 0.0
H965 H 0.38091 0.42941 0.51911 0.0
C966 C 0.32071 0.44617 0.5185 0.0
C967 C 0.28964 0.45606 0.52217 0.0
C968 C 0.34306 0.44735 0.54935 0.0
C969 C 0.28331 0.46659 0.55892 0.0
C970 C 0.30488 0.46757 0.58888 0.0
C971 C 0.35718 0.45938 0.61582 0.0
C972 C 0.38828 0.44997 0.6125 0.0
C973 C 0.3351 0.45817 0.585 0.0
C974 C 0.39508 0.43927 0.57601 0.0
C975 C 0.37348 0.43796 0.54582 0.0
H976 H 0.97545 0.14464 0.32368 0.0
H977 H 0.94346 0.09537 0.41951 0.0
H978 H 0.94017 1.04973 0.38233 0.0
H979 H 0.94509 1.02061 0.32152 0.0
H980 H 0.97645 1.06842 0.2246 0.0
H981 H 0.98085 0.1147 0.26179 0.0
C982 C 0.96767 0.12415 0.33695 0.0
C983 C 0.95967 0.1255 0.3764 0.0
C984 C 0.96537 0.09619 0.31423 0.0
C985 C 0.94988 0.09706 0.39044 0.0
C986 C 0.94789 1.07007 0.36862 0.0
C987 C 0.95272 1.04099 0.30784 0.0
C988 C 0.95983 1.03922 0.26831 0.0
C989 C 0.95529 1.06884 0.3302 0.0
C990 C 0.97012 1.06732 0.25373 0.0
C991 C 0.97279 0.09455 0.27561 0.0
H992 H 0.26891 0.71967 0.07103 0.0
H993 H 0.31619 0.68806 0.16805 0.0
H994 H 0.36221 0.68507 0.13172 0.0
H995 H 0.39213 0.69027 0.07114 0.0
H996 H 0.34575 0.72108 0.97323 0.0
H997 H 0.29941 0.72511 1.00967 0.0
C998 C 0.28905 0.71205 0.08479 0.0
C999 C 0.287 0.70409 0.12432 0.0
C1000 C 0.31712 0.70989 0.06255 0.0
C1001 C 0.31503 0.69445 0.13893 0.0
C1002 C 0.34221 0.69264 0.11756 0.0
C1003 C 0.37206 0.6977 0.05703 0.0
C1004 C 0.37439 0.70478 0.01734 0.0
C1005 C 0.34407 0.70004 0.07904 0.0
C1006 C 0.34657 0.71478 1.00239 0.0
C1007 C 0.31927 0.71725 0.02387 0.0
H1008 H 0.69305 1.08645 0.74441 0.0
H1009 H 0.72827 0.15388 0.81972 0.0
H1010 H 0.72895 0.11698 0.87 0.0
H1011 H 0.72043 1.06435 0.89592 0.0
H1012 H 0.68462 0.99614 0.82252 0.0
H1013 H 0.68364 1.03299 0.77127 0.0
C1014 C 0.70123 0.09347 0.77157 0.0
C1015 C 0.71117 0.12472 0.77599 0.0
C1016 C 0.70154 1.07106 0.80225 0.0
C1017 C 0.72079 0.13124 0.81312 0.0
C1018 C 0.72115 0.10958 0.8428 0.0
C1019 C 0.71234 1.05702 0.86883 0.0
C1020 C 0.70271 1.02578 0.86499 0.0
C1021 C 0.71174 1.07916 0.83825 0.0
C1022 C 0.69239 1.01883 0.82831 0.0
C1023 C 0.69184 1.04048 0.79824 0.0
H1024 H 0.57189 0.16067 0.87452 0.0
H1025 H 0.60114 0.24879 0.91052 0.0
H1026 H 0.62962 0.25514 0.85225 0.0
H1027 H 0.64832 0.23354 0.7929 0.0
H1028 H 0.62018 0.14374 0.76108 0.0
H1029 H 0.58939 0.13982 0.81662 0.0
C1030 C 0.58477 0.18117 0.86977 0.0
C1031 C 0.58525 0.20392 0.89673 0.0
C1032 C 0.60127 0.18421 0.83722 0.0
C1033 C 0.6009 0.23089 0.88995 0.0
C1034 C 0.61716 0.23443 0.85688 0.0
C1035 C 0.63523 0.2133 0.79819 0.0
C1036 C 0.63635 0.18899 0.77321 0.0
C1037 C 0.61787 0.21095 0.83059 0.0
C1038 C 0.61957 0.16273 0.78007 0.0
C1039 C 0.60197 0.16043 0.81173 0.0
H1040 H 0.72091 0.79991 0.10848 0.0
H1041 H 0.72837 0.87961 0.17698 0.0
H1042 H 0.72113 0.91129 0.12216 0.0
H1043 H 0.71463 0.91614 0.05501 0.0
H1044 H 0.70798 0.83682 0.98564 0.0
H1045 H 0.71301 0.80486 0.04086 0.0
C1046 C 0.72092 0.82422 0.11122 0.0
C1047 C 0.72518 0.83759 0.14634 0.0
C1048 C 0.71698 0.84218 0.07968 0.0
C1049 C 0.72482 0.869 0.15004 0.0
C1050 C 0.72087 0.88705 0.1188 0.0
C1051 C 0.71417 0.89184 0.05198 0.0
C1052 C 0.71117 0.8787 0.01655 0.0
C1053 C 0.71718 0.87385 0.08353 0.0
C1054 C 0.71042 0.84729 0.01284 0.0
C1055 C 0.7133 0.82909 0.04428 0.0
H1056 H 1.02877 0.93025 0.28588 0.0
H1057 H 1.03863 1.02427 0.25779 0.0
H1058 H 1.06806 1.033 0.31414 0.0
H1059 H 0.09031 1.01423 0.37086 0.0
H1060 H 1.08365 0.91999 0.39854 0.0
H1061 H 1.05246 0.91104 0.34309 0.0
C1062 C 1.03753 0.95256 0.29216 0.0
C1063 C 1.03188 0.97658 0.26798 0.0
C1064 C 1.05453 0.95738 0.32443 0.0
C1065 C 1.04308 1.00545 0.27607 0.0
C1066 C 1.05971 1.01049 0.30826 0.0
C1067 C 1.08249 0.9916 0.36444 0.0
C1068 C 0.08959 0.9677 0.3881 0.0
C1069 C 1.06555 0.98662 0.33246 0.0
C1070 C 1.07839 0.9387 0.38045 0.0
C1071 C 1.0608 0.93358 0.34877 0.0
H1072 H 0.95393 0.31716 0.49802 0.0
H1073 H 0.96914 0.23781 0.5643 0.0
H1074 H 0.96532 0.2674 0.62152 0.0
H1075 H 0.95528 0.31516 0.65248 0.0
H1076 H 0.93778 0.39429 0.58697 0.0
H1077 H 0.94478 0.36543 0.52931 0.0
C1078 C 0.95671 0.30652 0.52502 0.0
C1079 C 0.96181 0.27555 0.52722 0.0
C1080 C 0.95393 0.32353 0.55773 0.0
C1081 C 0.96512 0.26174 0.56218 0.0
C1082 C 0.96294 0.27857 0.59482 0.0
C1083 C 0.95348 0.32612 0.62552 0.0
C1084 C 0.94625 0.35665 0.6236 0.0
C1085 C 0.95705 0.30938 0.59287 0.0
C1086 C 0.9433 0.37067 0.58877 0.0
C1087 C 0.94733 0.35425 0.55597 0.0
H1088 H 0.56814 0.95835 0.12687 0.0
H1089 H 0.64987 0.98138 0.18505 0.0
H1090 H 0.62391 0.97704 0.24516 0.0
H1091 H 0.5772 0.96898 0.28039 0.0
H1092 H 0.49527 0.94877 0.22077 0.0
H1093 H 0.52215 0.94943 0.1616 0.0
C1094 C 0.58032 0.96183 0.15282 0.0
C1095 C 0.61071 0.9698 0.15206 0.0
C1096 C 0.56522 0.95996 0.18672 0.0
C1097 C 0.62635 0.97509 0.18546 0.0
C1098 C 0.61156 0.97265 0.21961 0.0
C1099 C 0.56545 0.96447 0.25441 0.0
C1100 C 0.53454 0.95891 0.25458 0.0
C1101 C 0.58091 0.96545 0.2205 0.0
C1102 C 0.51919 0.95329 0.22098 0.0
C1103 C 0.53447 0.9536 0.18725 0.0
H1104 H 0.40883 0.35043 0.91078 0.0
H1105 H 0.49429 0.32259 0.86746 0.0
H1106 H 0.50414 0.29475 0.92514 0.0
H1107 H 0.48655 0.27592 0.98601 0.0
H1108 H 0.39945 0.30176 0.02653 0.0
H1109 H 0.39186 0.33267 0.97128 0.0
C1110 C 0.42957 0.33816 0.91397 0.0
C1111 C 0.45062 0.33806 0.88503 0.0
C1112 C 0.43464 0.32185 0.94646 0.0
C1113 C 0.4778 0.32288 0.88962 0.0
C1114 C 0.48332 0.30688 0.92238 0.0
C1115 C 0.46605 0.28851 0.98277 0.0
C1116 C 0.4436 0.28671 1.0101 0.0
C1117 C 0.46164 0.30584 0.95071 0.0
C1118 C 0.41708 0.303 1.00581 0.0
C1119 C 0.41269 0.3206 0.97428 0.0
H1120 H 0.16859 0.20388 0.72158 0.0
H1121 H 0.09282 0.20322 0.79631 0.0
H1122 H 1.05874 0.19694 0.74296 0.0
H1123 H 1.05104 0.19077 0.67519 0.0
H1124 H 0.1275 0.19118 0.60157 0.0
H1125 H 0.16106 0.19876 0.65469 0.0
C1126 C 0.1446 0.20241 0.72626 0.0
C1127 C 0.13308 0.20387 0.76265 0.0
C1128 C 0.12543 0.19889 0.69577 0.0
C1129 C 0.10205 0.2021 0.76839 0.0
C1130 C 1.08265 0.19851 0.738 0.0
C1131 C 1.07506 0.19256 0.67098 0.0
C1132 C 0.08695 0.1905 0.63482 0.0
C1133 C 0.09416 0.19674 0.70161 0.0
C1134 C 0.11798 0.1931 0.62928 0.0
C1135 C 0.13712 0.19722 0.65956 0.0
H1136 H 0.18203 0.89232 0.48411 0.0
H1137 H 0.27503 0.87943 0.51293 0.0
H1138 H 0.28242 0.8503 0.45613 0.0
H1139 H 0.26281 0.82873 0.39904 0.0
H1140 H 0.16941 0.83811 0.37056 0.0
H1141 H 0.16191 0.86949 0.42616 0.0
C1142 C 0.2038 0.88292 0.47794 0.0
C1143 C 0.2279 0.88764 0.50259 0.0
C1144 C 0.20786 0.866 0.44536 0.0
C1145 C 0.2561 0.87567 0.49445 0.0
C1146 C 0.2604 0.85921 0.46196 0.0
C1147 C 0.24065 0.8372 0.40529 0.0
C1148 C 0.21656 0.83072 0.38136 0.0
C1149 C 0.23644 0.8542 0.43743 0.0
C1150 C 0.18826 0.84282 0.38883 0.0
C1151 C 0.18395 0.86052 0.42063 0.0
H1152 H 1.07159 0.65539 0.36758 0.0
H1153 H 0.09848 0.74369 0.40578 0.0
H1154 H 0.12719 0.75154 0.34812 0.0
H1155 H 0.14653 0.73164 0.28854 0.0
H1156 H 0.12077 0.64209 0.25314 0.0
H1157 H 0.08988 0.63608 0.30868 0.0
C1158 C 1.08396 0.67626 0.3634 0.0
C1159 C 1.08354 0.69872 0.39086 0.0
C1160 C 0.10056 0.68027 0.33092 0.0
C1161 C 0.09873 0.72608 0.38483 0.0
C1162 C 0.11516 0.73048 0.35208 0.0
C1163 C 0.13392 0.71096 0.29295 0.0
C1164 C 0.1357 0.68736 0.26695 0.0
C1165 C 0.11651 0.70751 0.32516 0.0
C1166 C 0.11952 0.66057 0.27281 0.0
C1167 C 0.10194 0.6571 0.30451 0.0
H1168 H 0.1952 0.33159 0.63592 0.0
H1169 H 0.2845 0.30125 0.61089 0.0
H1170 H 0.28416 0.32912 0.55237 0.0
H1171 H 0.25979 0.36414 0.51088 0.0
H1172 H 0.17126 0.39649 0.53634 0.0
H1173 H 0.16997 0.36584 0.59295 0.0
C1174 C 0.21442 0.33108 0.61741 0.0
C1175 C 0.23977 0.31461 0.62714 0.0
C1176 C 0.21427 0.34751 0.58443 0.0
C1177 C 0.26462 0.31361 0.6033 0.0
C1178 C 0.26454 0.32966 0.57017 0.0
C1179 C 0.24013 0.36426 0.52867 0.0
C1180 C 0.21568 0.38224 0.51989 0.0
C1181 C 0.23966 0.34694 0.56082 0.0
C1182 C 0.19029 0.38252 0.54291 0.0
C1183 C 0.18955 0.36512 0.57511 0.0
H1184 H 0.57331 0.46116 0.74611 0.0
H1185 H 0.49101 0.45075 0.8082 0.0
H1186 H 0.51842 0.45489 0.86682 0.0
H1187 H 0.56503 0.46513 0.90014 0.0
H1188 H 0.64711 0.47881 0.83889 0.0
H1189 H 0.62055 0.46981 0.77992 0.0
C1190 C 0.56155 0.45952 0.77252 0.0
C1191 C 0.5304 0.45563 0.77306 0.0
C1192 C 0.57731 0.46267 0.80609 0.0
C1193 C 0.51513 0.45366 0.80727 0.0
C1194 C 0.53071 0.4561 0.84076 0.0
C1195 C 0.57711 0.46555 0.87385 0.0
C1196 C 0.60775 0.47246 0.8734 0.0
C1197 C 0.56169 0.46105 0.84043 0.0
C1198 C 0.62334 0.47358 0.83945 0.0
C1199 C 0.60824 0.46845 0.80593 0.0
H1200 H 0.48757 0.78102 0.03 0.0
H1201 H 0.3916 0.77777 0.01474 0.0
H1202 H 0.38481 0.80833 0.07063 0.0
H1203 H 0.40593 0.83573 0.12308 0.0
H1204 H 0.50183 0.84224 0.13738 0.0
H1205 H 0.50899 0.80984 0.08274 0.0
C1206 C 0.46524 0.78712 0.03901 0.0
C1207 C 0.4401 0.77749 0.0185 0.0
C1208 C 0.46154 0.80504 0.07079 0.0
C1209 C 0.41123 0.78533 0.03011 0.0
C1210 C 0.40733 0.80265 0.06202 0.0
C1211 C 0.42845 0.83061 0.11385 0.0
C1212 C 0.45331 0.84174 0.13368 0.0
C1213 C 0.43232 0.81274 0.08232 0.0
C1214 C 0.48234 0.83392 0.12236 0.0
C1215 C 0.48643 0.81556 0.09114 0.0
H1216 H 0.09752 0.44083 0.64329 0.0
H1217 H 0.10512 0.53775 0.64808 0.0
H1218 H 1.07359 0.53869 0.70329 0.0
H1219 H 1.04333 0.51245 0.74908 0.0
H1220 H 1.03227 0.41605 0.74306 0.0
H1221 H 1.06534 0.41439 0.68853 0.0
C1222 C 0.09215 0.46212 0.65639 0.0
C1223 C 0.10395 0.48913 0.64211 0.0
C1224 C 1.07337 0.46259 0.68753 0.0
C1225 C 0.09696 0.51659 0.65928 0.0
C1226 C 1.07871 0.51721 0.69055 0.0
C1227 C 1.04835 0.49106 0.73595 0.0
C1228 C 1.03593 0.46442 0.74992 0.0
C1229 C 1.06685 0.4904 0.7048 0.0
C1230 C 1.04193 0.43682 0.73255 0.0
C1231 C 1.06076 0.43588 0.70156 0.0
H1232 H 0.91278 0.84627 0.40704 0.0
H1233 H 1.00059 0.82099 0.36878 0.0
H1234 H 1.00725 0.78984 0.42468 0.0
H1235 H 0.98782 0.77093 0.48453 0.0
H1236 H 0.89993 0.7975 0.52168 0.0
H1237 H 0.89383 0.82817 0.46603 0.0
C1238 C 0.93363 0.8344 0.41129 0.0
C1239 C 0.95645 0.83623 0.38464 0.0
C1240 C 0.93728 0.81715 0.44314 0.0
C1241 C 0.98289 0.81989 0.38941 0.0
C1242 C 0.98669 0.80229 0.42123 0.0
C1243 C 0.96745 0.78355 0.4804 0.0
C1244 C 0.9444 0.78222 0.5069 0.0
C1245 C 0.96403 0.80095 0.44833 0.0
C1246 C 0.91802 0.79849 0.50156 0.0
C1247 C 0.91445 0.81587 0.4698 0.0
H1248 H 0.55914 0.7155 0.1585 0.0
H1249 H 0.63372 0.67968 0.09678 0.0
H1250 H 0.66599 0.68535 0.15158 0.0
H1251 H 0.67185 0.69755 0.21754 0.0
H1252 H 0.59694 0.73178 0.28006 0.0
H1253 H 0.56577 0.73033 0.22382 0.0
C1254 C 0.58264 0.70963 0.15687 0.0
C1255 C 0.59422 0.69724 0.12397 0.0
C1256 C 0.60079 0.71259 0.18842 0.0
C1257 C 0.62447 0.6891 0.12214 0.0
C1258 C 0.64284 0.69236 0.15331 0.0
C1259 C 0.64879 0.70498 0.21871 0.0
C1260 C 0.63646 0.71457 0.25257 0.0
C1261 C 0.63106 0.70359 0.18669 0.0
C1262 C 0.60664 0.72409 0.25407 0.0
C1263 C 0.5889 0.72329 0.22205 0.0
H1264 H 0.76791 0.38499 0.99774 0.0
H1265 H 0.67244 0.39711 0.98819 0.0
H1266 H 0.67159 0.3678 0.93042 0.0
H1267 H 0.69806 0.3378 0.88387 0.0
H1268 H 0.79415 0.32895 0.8914 0.0
H1269 H 0.79479 0.35817 0.94904 0.0
C1270 C 0.747 0.38113 0.98296 0.0
C1271 C 0.72033 0.39271 0.99696 0.0
C1272 C 0.74681 0.36497 0.94962 0.0
C1273 C 0.69325 0.38806 0.97769 0.0
C1274 C 0.69274 0.37142 0.94476 0.0
C1275 C 0.71914 0.34265 0.89788 0.0
C1276 C 0.74593 0.33102 0.88393 0.0
C1277 C 0.71941 0.35973 0.93057 0.0
C1278 C 0.77315 0.33721 0.9023 0.0
C1279 C 0.77358 0.35396 0.93506 0.0
H1280 H 0.36446 0.36958 0.15805 0.0
H1281 H 0.42112 0.37782 0.25534 0.0
H1282 H 0.38806 0.41587 0.28123 0.0
H1283 H 0.33792 0.43599 0.28249 0.0
H1284 H 0.2793 0.4251 0.18732 0.0
H1285 H 0.31905 0.39959 0.1533 0.0
C1286 C 0.37026 0.38071 0.18411 0.0
C1287 C 0.39465 0.37071 0.2053 0.0
C1288 C 0.35073 0.4018 0.19918 0.0
C1289 C 0.40199 0.38498 0.2391 0.0
C1290 C 0.38313 0.40665 0.25382 0.0
C1291 C 0.33423 0.42959 0.25358 0.0
C1292 C 0.30556 0.43179 0.23763 0.0
C1293 C 0.35658 0.41382 0.23507 0.0
C1294 C 0.30116 0.42316 0.20026 0.0
C1295 C 0.32374 0.40833 0.181 0.0
H1296 H 0.65805 0.64146 0.56146 0.0
H1297 H 0.58879 0.70695 0.54429 0.0
H1298 H 0.55943 0.68464 0.59479 0.0
H1299 H 0.54823 0.63881 0.62975 0.0
H1300 H 0.61492 0.56981 0.63864 0.0
H1301 H 0.65138 0.60198 0.60726 0.0
C1302 C 0.63733 0.65194 0.57009 0.0
C1303 C 0.62525 0.67541 0.54892 0.0
C1304 C 0.62004 0.63806 0.5976 0.0
C1305 C 0.59823 0.68857 0.56007 0.0
C1306 C 0.5814 0.67571 0.58873 0.0
C1307 C 0.5712 0.63155 0.6262 0.0
C1308 C 0.57888 0.60202 0.63541 0.0
C1309 C 0.59122 0.64923 0.60572 0.0
C1310 C 0.6086 0.59255 0.63152 0.0
C1311 C 0.6293 0.61076 0.61305 0.0
H1312 H 0.22861 0.80319 0.75885 0.0
H1313 H 0.28179 0.78974 0.65986 0.0
H1314 H 0.3107 0.75151 0.69162 0.0
H1315 H 0.32994 0.73527 0.75083 0.0
H1316 H 0.2831 0.75583 0.85301 0.0
H1317 H 0.2427 0.77858 0.81699 0.0
C1318 C 0.2458 0.79092 0.74401 0.0
C1319 C 0.25379 0.79959 0.70775 0.0
C1320 C 0.264 0.77111 0.76344 0.0
C1321 C 0.27544 0.78341 0.68798 0.0
C1322 C 0.29229 0.76193 0.70633 0.0
C1323 C 0.31018 0.74322 0.76528 0.0
C1324 C 0.30943 0.74418 0.80442 0.0
C1325 C 0.28817 0.75747 0.74469 0.0
C1326 C 0.28409 0.75523 0.82279 0.0
C1327 C 0.26113 0.76824 0.80225 0.0
H1328 H 1.04578 0.61024 0.11731 0.0
H1329 H 1.0421 0.66987 0.02258 0.0
H1330 H 1.00262 0.63885 0.99458 0.0
H1331 H 0.98069 0.58893 0.99014 0.0
H1332 H 0.987 0.52736 0.08275 0.0
H1333 H 1.01316 0.56579 0.11952 0.0
C1334 C 1.03531 0.61722 0.09142 0.0
C1335 C 1.04712 0.64171 0.0714 0.0
C1336 C 1.01341 0.59879 0.07507 0.0
C1337 C 1.0336 0.6506 0.03788 0.0
C1338 C 1.01112 0.63288 0.02192 0.0
C1339 C 0.9862 0.58433 0.01907 0.0
C1340 C 0.98276 0.55511 0.03344 0.0
C1341 C 1.00238 0.60594 0.03918 0.0
C1342 C 0.99005 0.5496 0.07096 0.0
C1343 C 1.00526 0.57144 0.0918 0.0
H1344 H 0.86555 0.93423 0.79756 0.0
H1345 H 0.89795 0.88458 0.89257 0.0
H1346 H 0.93325 0.85818 0.85236 0.0
H1347 H 0.94413 0.84071 0.78932 0.0
H1348 H 0.90326 0.88406 0.69476 0.0
H1349 H 0.88308 0.92279 0.73557 0.0
C1350 C 0.88148 0.91888 0.80994 0.0
C1351 C 0.87923 0.91113 0.84783 0.0
C1352 C 0.8999 0.90251 0.7864 0.0
C1353 C 0.89946 0.89074 0.86337 0.0
C1354 C 0.91935 0.87551 0.84035 0.0
C1355 C 0.93164 0.85932 0.77774 0.0
C1356 C 0.9244 0.85945 0.73963 0.0
C1357 C 0.91821 0.87986 0.80161 0.0
C1358 C 0.90887 0.88366 0.72421 0.0
C1359 C 0.89705 0.90551 0.74758 0.0
H1360 H 0.77477 0.38576 0.30194 0.0
H1361 H 0.86213 0.40526 0.25602 0.0
H1362 H 0.88563 0.39021 0.31465 0.0
H1363 H 0.88135 0.35974 0.37003 0.0
H1364 H 0.79461 0.33015 0.4092 0.0
H1365 H 0.7703 0.36237 0.36324 0.0
C1366 C 0.79895 0.38704 0.30516 0.0
C1367 C 0.81703 0.39542 0.27488 0.0
C1368 C 0.81211 0.37689 0.33789 0.0
C1369 C 0.84809 0.39827 0.27915 0.0
C1370 C 0.8614 0.38971 0.31253 0.0
C1371 C 0.85711 0.3616 0.3699 0.0
C1372 C 0.83956 0.34237 0.39216 0.0
C1373 C 0.84367 0.37738 0.34109 0.0
C1374 C 0.8083 0.34481 0.39195 0.0
C1375 C 0.79453 0.36269 0.36524 0.0
H1376 H 1.08487 0.08834 0.88141 0.0
H1377 H 0.15138 1.0197 0.89589 0.0
H1378 H 0.115 0.98844 0.92944 0.0
H1379 H 1.0703 0.98804 0.96843 0.0
H1380 H 1.00929 1.06254 0.96426 0.0
H1381 H 1.03702 1.08414 0.91207 0.0
C1382 C 0.09091 1.06582 0.89007 0.0
C1383 C 0.12062 1.05621 0.8868 0.0
C1384 C 1.07094 1.04955 0.91201 0.0
C1385 C 0.12847 1.02727 0.89838 0.0
C1386 C 0.10786 1.00973 0.91798 0.0
C1387 C 1.06274 1.00857 0.9552 0.0
C1388 C 1.0384 1.02415 0.97008 0.0
C1389 C 1.07992 1.02175 0.92723 0.0
C1390 C 1.0281 1.05035 0.95291 0.0
C1391 C 1.04406 1.06275 0.92337 0.0
H1392 H 0.62999 0.17588 0.45872 0.0
H1393 H 0.55172 0.21761 0.50579 0.0
H1394 H 0.52004 0.19173 0.46009 0.0
H1395 H 0.51434 0.14704 0.42049 0.0
H1396 H 0.59296 0.10181 0.38023 0.0
H1397 H 0.62495 0.14044 0.40786 0.0
C1398 C 0.60626 0.18081 0.4578 0.0
C1399 C 0.59309 0.19786 0.48634 0.0
C1400 C 0.58819 0.16483 0.43272 0.0
C1401 C 0.56226 0.20394 0.48456 0.0
C1402 C 0.54412 0.18899 0.45862 0.0
C1403 C 0.53844 0.14652 0.41653 0.0
C1404 C 0.55146 0.12147 0.39945 0.0
C1405 C 0.55671 0.16771 0.43457 0.0
C1406 C 0.58252 0.12092 0.39354 0.0
C1407 C 0.60085 0.14279 0.40981 0.0
loop_
_geom_bond_atom_site_label_1
_geom_bond_atom_site_label_2
_geom_bond_distance
_geom_bond_site_symmetry_2
_ccdc_geom_bond_type
C0 Eu1 2.835 . S
C0 C2 1.500 . S
C0 O20 1.257 . S
C0 O21 1.260 . S
Eu1 C0 2.835 . S
Eu1 O20 2.473 . S
Eu1 O21 2.480 . S
Eu1 O22 2.430 . S
Eu1 O23 2.670 1_554 S
Eu1 O24 2.394 . S
Eu1 O29 2.355 . S
Eu1 O31 2.374 . S
C2 C0 1.500 . S
C2 C3 1.377 . S
C2 C7 1.377 . S
C3 C2 1.377 . S
C3 C4 1.395 . S
C3 H32 0.931 . S
C4 C3 1.395 . S
C4 C5 1.383 . S
C4 H33 0.931 . S
C5 C4 1.383 . S
C5 C6 1.394 . S
C6 C5 1.394 . S
C6 C7 1.378 . S
C6 H34 0.931 . S
C7 C2 1.377 . S
C7 C6 1.378 . S
C7 H35 0.931 . S
C8 O22 1.259 1_556 S
C8 O23 1.270 . S
C9 O24 1.251 . S
C9 O25 1.251 1_554 S
C10 Eu11 2.835 . S
C10 C12 1.500 . S
C10 O26 1.257 . S
C10 O27 1.260 . S
Eu11 C10 2.835 . S
Eu11 O23 2.355 . S
Eu11 O25 2.374 . S
Eu11 O26 2.473 . S
Eu11 O27 2.480 . S
Eu11 O28 2.430 1_556 S
Eu11 O29 2.670 1_556 S
Eu11 O30 2.394 1_556 S
C12 C10 1.500 . S
C12 C13 1.377 . S
C12 C17 1.377 . S
C13 C12 1.377 . S
C13 C14 1.395 . S
C13 H36 0.931 . S
C14 C13 1.395 . S
C14 C15 1.383 . S
C14 H37 0.931 . S
C15 C14 1.383 . S
C15 C16 1.394 . S
C16 C15 1.394 . S
C16 C17 1.378 . S
C16 H38 0.931 . S
C17 C12 1.377 . S
C17 C16 1.378 . S
C17 H39 0.931 . S
C18 O28 1.259 . S
C18 O29 1.270 . S
C19 O30 1.251 . S
C19 O31 1.251 . S
O20 C0 1.257 . S
O20 Eu1 2.473 . S
O21 C0 1.260 . S
O21 Eu1 2.480 . S
O22 Eu1 2.430 . S
O22 C8 1.259 1_554 S
O23 Eu1 2.670 1_556 S
O23 C8 1.270 . S
O23 Eu11 2.355 . S
O24 Eu1 2.394 . S
O24 C9 1.251 . S
O25 C9 1.251 1_556 S
O25 Eu11 2.374 . S
O26 C10 1.257 . S
O26 Eu11 2.473 . S
O27 C10 1.260 . S
O27 Eu11 2.480 . S
O28 Eu11 2.430 1_554 S
O28 C18 1.259 . S
O29 Eu1 2.355 . S
O29 Eu11 2.670 1_554 S
O29 C18 1.270 . S
O30 Eu11 2.394 1_554 S
O30 C19 1.251 . S
O31 Eu1 2.374 . S
O31 C19 1.251 . S
H32 C3 0.931 . S
H33 C4 0.931 . S
H34 C6 0.931 . S
H35 C7 0.931 . S
H36 C13 0.931 . S
H37 C14 0.931 . S
H38 C16 0.931 . S
H39 C17 0.931 . S
C40 Eu41 2.835 . S
C40 C42 1.500 . S
C40 O60 1.257 . S
C40 O61 1.260 . S
Eu41 C40 2.835 . S
Eu41 O60 2.473 . S
Eu41 O61 2.480 . S
Eu41 O62 2.430 . S
Eu41 O63 2.670 . S
Eu41 O64 2.394 . S
Eu41 O69 2.355 . S
Eu41 O71 2.374 . S
C42 C40 1.500 . S
C42 C43 1.377 . S
C42 C47 1.377 . S
C43 C42 1.377 . S
C43 C44 1.395 . S
C43 H72 0.931 . S
C44 C43 1.395 . S
C44 C45 1.383 . S
C44 H73 0.931 . S
C45 C44 1.383 . S
C45 C46 1.394 . S
C46 C45 1.394 . S
C46 C47 1.378 . S
C46 H74 0.931 . S
C47 C42 1.377 . S
C47 C46 1.378 . S
C47 H75 0.931 . S
C48 O62 1.259 . S
C48 O63 1.270 . S
C49 O64 1.251 . S
C49 O65 1.251 . S
C50 Eu51 2.835 . S
C50 C52 1.500 . S
C50 O66 1.257 . S
C50 O67 1.260 . S
Eu51 C50 2.835 . S
Eu51 O63 2.355 . S
Eu51 O65 2.374 . S
Eu51 O66 2.473 . S
Eu51 O67 2.480 . S
Eu51 O68 2.430 . S
Eu51 O69 2.670 . S
Eu51 O70 2.394 . S
C52 C50 1.500 . S
C52 C53 1.377 . S
C52 C57 1.377 . S
C53 C52 1.377 . S
C53 C54 1.395 . S
C53 H76 0.931 . S
C54 C53 1.395 . S
C54 C55 1.383 . S
C54 H77 0.931 . S
C55 C54 1.383 . S
C55 C56 1.394 . S
C56 C55 1.394 . S
C56 C57 1.378 . S
C56 H78 0.931 . S
C57 C52 1.377 . S
C57 C56 1.378 . S
C57 H79 0.931 . S
C58 O68 1.259 . S
C58 O69 1.270 . S
C59 O70 1.251 . S
C59 O71 1.251 . S
O60 C40 1.257 . S
O60 Eu41 2.473 . S
O61 C40 1.260 . S
O61 Eu41 2.480 . S
O62 Eu41 2.430 . S
O62 C48 1.259 . S
O63 Eu41 2.670 . S
O63 C48 1.270 . S
O63 Eu51 2.355 . S
O64 Eu41 2.394 . S
O64 C49 1.251 . S
O65 C49 1.251 . S
O65 Eu51 2.374 . S
O66 C50 1.257 . S
O66 Eu51 2.473 . S
O67 C50 1.260 . S
O67 Eu51 2.480 . S
O68 Eu51 2.430 . S
O68 C58 1.259 . S
O69 Eu41 2.355 . S
O69 Eu51 2.670 . S
O69 C58 1.270 . S
O70 Eu51 2.394 . S
O70 C59 1.251 . S
O71 Eu41 2.374 . S
O71 C59 1.251 . S
H72 C43 0.931 . S
H73 C44 0.931 . S
H74 C46 0.931 . S
H75 C47 0.931 . S
H76 C53 0.931 . S
H77 C54 0.931 . S
H78 C56 0.931 . S
H79 C57 0.931 . S
C80 Eu81 2.835 . S
C80 C82 1.500 . S
C80 O100 1.257 . S
C80 O101 1.260 . S
Eu81 C80 2.835 . S
Eu81 O100 2.473 . S
Eu81 O101 2.480 . S
Eu81 O102 2.430 . S
Eu81 O103 2.670 . S
Eu81 O104 2.394 . S
Eu81 O109 2.355 . S
Eu81 O111 2.374 . S
C82 C80 1.500 . S
C82 C83 1.377 . S
C82 C87 1.377 . S
C83 C82 1.377 . S
C83 C84 1.395 . S
C83 H112 0.931 . S
C84 C83 1.395 . S
C84 C85 1.383 . S
C84 H113 0.931 . S
C85 C84 1.383 . S
C85 C86 1.394 . S
C86 C85 1.394 . S
C86 C87 1.378 . S
C86 H114 0.931 . S
C87 C82 1.377 . S
C87 C86 1.378 . S
C87 H115 0.931 . S
C88 O102 1.259 . S
C88 O103 1.270 . S
C89 O104 1.251 . S
C89 O105 1.251 . S
C90 Eu91 2.835 . S
C90 C92 1.500 . S
C90 O106 1.257 . S
C90 O107 1.260 . S
Eu91 C90 2.835 . S
Eu91 O103 2.355 . S
Eu91 O105 2.374 . S
Eu91 O106 2.473 . S
Eu91 O107 2.480 . S
Eu91 O108 2.430 . S
Eu91 O109 2.670 . S
Eu91 O110 2.394 . S
C92 C90 1.500 . S
C92 C93 1.377 . S
C92 C97 1.377 . S
C93 C92 1.377 . S
C93 C94 1.398 . S
C93 H116 0.931 . S
C94 C93 1.398 . S
C94 C95 1.382 1_455 S
C94 H117 0.930 1_455 S
C95 C94 1.382 1_655 S
C95 C96 1.394 1_655 S
C96 C95 1.394 1_455 S
C96 C97 1.378 . S
C96 H118 0.931 1_455 S
C97 C92 1.377 . S
C97 C96 1.378 . S
C97 H119 0.931 . S
C98 O108 1.259 . S
C98 O109 1.270 . S
C99 O110 1.251 . S
C99 O111 1.251 . S
O100 C80 1.257 . S
O100 Eu81 2.473 . S
O101 C80 1.260 . S
O101 Eu81 2.480 . S
O102 Eu81 2.430 . S
O102 C88 1.259 . S
O103 Eu81 2.670 . S
O103 C88 1.270 . S
O103 Eu91 2.355 . S
O104 Eu81 2.394 . S
O104 C89 1.251 . S
O105 C89 1.251 . S
O105 Eu91 2.374 . S
O106 C90 1.257 . S
O106 Eu91 2.473 . S
O107 C90 1.260 . S
O107 Eu91 2.480 . S
O108 Eu91 2.430 . S
O108 C98 1.259 . S
O109 Eu81 2.355 . S
O109 Eu91 2.670 . S
O109 C98 1.270 . S
O110 Eu91 2.394 . S
O110 C99 1.251 . S
O111 Eu81 2.374 . S
O111 C99 1.251 . S
H112 C83 0.931 . S
H113 C84 0.931 . S
H114 C86 0.931 . S
H115 C87 0.931 . S
H116 C93 0.931 . S
H117 C94 0.930 1_655 S
H118 C96 0.931 1_655 S
H119 C97 0.931 . S
C120 Eu121 2.835 . S
C120 C122 1.500 . S
C120 O140 1.257 . S
C120 O141 1.260 . S
Eu121 C120 2.835 . S
Eu121 O140 2.473 . S
Eu121 O141 2.480 . S
Eu121 O142 2.430 . S
Eu121 O143 2.670 . S
Eu121 O144 2.394 . S
Eu121 O149 2.355 . S
Eu121 O151 2.374 . S
C122 C120 1.500 . S
C122 C123 1.377 . S
C122 C127 1.377 . S
C123 C122 1.377 . S
C123 C124 1.395 . S
C123 H152 0.931 . S
C124 C123 1.395 . S
C124 C125 1.383 . S
C124 H153 0.931 . S
C125 C124 1.383 . S
C125 C126 1.394 . S
C126 C125 1.394 . S
C126 C127 1.378 . S
C126 H154 0.931 . S
C127 C122 1.377 . S
C127 C126 1.378 . S
C127 H155 0.931 . S
C128 O142 1.259 . S
C128 O143 1.270 . S
C129 O144 1.251 . S
C129 O145 1.251 . S
C130 Eu131 2.835 . S
C130 C132 1.500 . S
C130 O146 1.257 . S
C130 O147 1.260 . S
Eu131 C130 2.835 . S
Eu131 O143 2.355 . S
Eu131 O145 2.374 . S
Eu131 O146 2.473 . S
Eu131 O147 2.480 . S
Eu131 O148 2.430 . S
Eu131 O149 2.670 . S
Eu131 O150 2.394 . S
C132 C130 1.500 . S
C132 C133 1.377 . S
C132 C137 1.377 . S
C133 C132 1.377 . S
C133 C134 1.395 . S
C133 H156 0.931 . S
C134 C133 1.395 . S
C134 C135 1.383 . S
C134 H157 0.931 . S
C135 C134 1.383 . S
C135 C136 1.394 . S
C136 C135 1.394 . S
C136 C137 1.378 . S
C136 H158 0.931 . S
C137 C132 1.377 . S
C137 C136 1.378 . S
C137 H159 0.931 . S
C138 O148 1.259 . S
C138 O149 1.270 . S
C139 O150 1.251 . S
C139 O151 1.251 . S
O140 C120 1.257 . S
O140 Eu121 2.473 . S
O141 C120 1.260 . S
O141 Eu121 2.480 . S
O142 Eu121 2.430 . S
O142 C128 1.259 . S
O143 Eu121 2.670 . S
O143 C128 1.270 . S
O143 Eu131 2.355 . S
O144 Eu121 2.394 . S
O144 C129 1.251 . S
O145 C129 1.251 . S
O145 Eu131 2.374 . S
O146 C130 1.257 . S
O146 Eu131 2.473 . S
O147 C130 1.260 . S
O147 Eu131 2.480 . S
O148 Eu131 2.430 . S
O148 C138 1.259 . S
O149 Eu121 2.355 . S
O149 Eu131 2.670 . S
O149 C138 1.270 . S
O150 Eu131 2.394 . S
O150 C139 1.251 . S
O151 Eu121 2.374 . S
O151 C139 1.251 . S
H152 C123 0.931 . S
H153 C124 0.931 . S
H154 C126 0.931 . S
H155 C127 0.931 . S
H156 C133 0.931 . S
H157 C134 0.931 . S
H158 C136 0.931 . S
H159 C137 0.931 . S
C160 Eu161 2.835 . S
C160 C162 1.500 . S
C160 O180 1.257 . S
C160 O181 1.260 . S
Eu161 C160 2.835 . S
Eu161 O180 2.473 . S
Eu161 O181 2.480 . S
Eu161 O182 2.430 1_554 S
Eu161 O183 2.670 1_554 S
Eu161 O184 2.394 1_554 S
Eu161 O189 2.355 . S
Eu161 O191 2.374 . S
C162 C160 1.500 . S
C162 C163 1.377 . S
C162 C167 1.377 . S
C163 C162 1.377 . S
C163 C164 1.395 . S
C163 H192 0.931 . S
C164 C163 1.395 . S
C164 C165 1.383 . S
C164 H193 0.931 . S
C165 C164 1.383 . S
C165 C166 1.394 . S
C166 C165 1.394 . S
C166 C167 1.378 . S
C166 H194 0.931 . S
C167 C162 1.377 . S
C167 C166 1.378 . S
C167 H195 0.931 . S
C168 O182 1.259 . S
C168 O183 1.270 . S
C169 O184 1.251 . S
C169 O185 1.251 . S
C170 Eu171 2.835 . S
C170 C172 1.500 . S
C170 O186 1.257 . S
C170 O187 1.260 . S
Eu171 C170 2.835 . S
Eu171 O183 2.355 . S
Eu171 O185 2.374 . S
Eu171 O186 2.473 . S
Eu171 O187 2.480 . S
Eu171 O188 2.430 . S
Eu171 O189 2.670 1_556 S
Eu171 O190 2.394 . S
C172 C170 1.500 . S
C172 C173 1.377 . S
C172 C177 1.377 . S
C173 C172 1.377 . S
C173 C174 1.395 . S
C173 H196 0.931 . S
C174 C173 1.395 . S
C174 C175 1.383 . S
C174 H197 0.931 . S
C175 C174 1.383 . S
C175 C176 1.394 . S
C176 C175 1.394 . S
C176 C177 1.378 . S
C176 H198 0.931 . S
C177 C172 1.377 . S
C177 C176 1.378 . S
C177 H199 0.931 . S
C178 O188 1.259 1_554 S
C178 O189 1.270 . S
C179 O190 1.251 . S
C179 O191 1.251 1_556 S
O180 C160 1.257 . S
O180 Eu161 2.473 . S
O181 C160 1.260 . S
O181 Eu161 2.480 . S
O182 Eu161 2.430 1_556 S
O182 C168 1.259 . S
O183 Eu161 2.670 1_556 S
O183 C168 1.270 . S
O183 Eu171 2.355 . S
O184 Eu161 2.394 1_556 S
O184 C169 1.251 . S
O185 C169 1.251 . S
O185 Eu171 2.374 . S
O186 C170 1.257 . S
O186 Eu171 2.473 . S
O187 C170 1.260 . S
O187 Eu171 2.480 . S
O188 Eu171 2.430 . S
O188 C178 1.259 1_556 S
O189 Eu161 2.355 . S
O189 Eu171 2.670 1_554 S
O189 C178 1.270 . S
O190 Eu171 2.394 . S
O190 C179 1.251 . S
O191 Eu161 2.374 . S
O191 C179 1.251 1_554 S
H192 C163 0.931 . S
H193 C164 0.931 . S
H194 C166 0.931 . S
H195 C167 0.931 . S
H196 C173 0.931 . S
H197 C174 0.931 . S
H198 C176 0.931 . S
H199 C177 0.931 . S
C200 Eu201 2.835 . S
C200 C202 1.500 . S
C200 O220 1.257 . S
C200 O221 1.260 . S
Eu201 C200 2.835 . S
Eu201 O220 2.473 . S
Eu201 O221 2.480 . S
Eu201 O222 2.430 . S
Eu201 O223 2.670 . S
Eu201 O224 2.394 . S
Eu201 O229 2.355 . S
Eu201 O231 2.374 . S
C202 C200 1.500 . S
C202 C203 1.377 . S
C202 C207 1.377 . S
C203 C202 1.377 . S
C203 C204 1.395 . S
C203 H232 0.931 . S
C204 C203 1.395 . S
C204 C205 1.383 . S
C204 H233 0.931 . S
C205 C204 1.383 . S
C205 C206 1.394 . S
C206 C205 1.394 . S
C206 C207 1.378 . S
C206 H234 0.931 . S
C207 C202 1.377 . S
C207 C206 1.378 . S
C207 H235 0.931 . S
C208 O222 1.259 . S
C208 O223 1.270 . S
C209 O224 1.251 . S
C209 O225 1.251 . S
C210 Eu211 2.835 . S
C210 C212 1.500 . S
C210 O226 1.257 . S
C210 O227 1.260 . S
Eu211 C210 2.835 . S
Eu211 O223 2.355 . S
Eu211 O225 2.374 . S
Eu211 O226 2.473 . S
Eu211 O227 2.480 . S
Eu211 O228 2.430 . S
Eu211 O229 2.670 . S
Eu211 O230 2.394 . S
C212 C210 1.500 . S
C212 C213 1.377 . S
C212 C217 1.377 . S
C213 C212 1.377 . S
C213 C214 1.395 . S
C213 H236 0.931 . S
C214 C213 1.395 . S
C214 C215 1.383 . S
C214 H237 0.931 . S
C215 C214 1.383 . S
C215 C216 1.394 . S
C216 C215 1.394 . S
C216 C217 1.378 . S
C216 H238 0.931 . S
C217 C212 1.377 . S
C217 C216 1.378 . S
C217 H239 0.931 . S
C218 O228 1.259 . S
C218 O229 1.270 . S
C219 O230 1.251 . S
C219 O231 1.251 . S
O220 C200 1.257 . S
O220 Eu201 2.473 . S
O221 C200 1.260 . S
O221 Eu201 2.480 . S
O222 Eu201 2.430 . S
O222 C208 1.259 . S
O223 Eu201 2.670 . S
O223 C208 1.270 . S
O223 Eu211 2.355 . S
O224 Eu201 2.394 . S
O224 C209 1.251 . S
O225 C209 1.251 . S
O225 Eu211 2.374 . S
O226 C210 1.257 . S
O226 Eu211 2.473 . S
O227 C210 1.260 . S
O227 Eu211 2.480 . S
O228 Eu211 2.430 . S
O228 C218 1.259 . S
O229 Eu201 2.355 . S
O229 Eu211 2.670 . S
O229 C218 1.270 . S
O230 Eu211 2.394 . S
O230 C219 1.251 . S
O231 Eu201 2.374 . S
O231 C219 1.251 . S
H232 C203 0.931 . S
H233 C204 0.931 . S
H234 C206 0.931 . S
H235 C207 0.931 . S
H236 C213 0.931 . S
H237 C214 0.931 . S
H238 C216 0.931 . S
H239 C217 0.931 . S
C240 Eu241 2.835 . S
C240 C242 1.500 . S
C240 O260 1.257 . S
C240 O261 1.260 . S
Eu241 C240 2.835 . S
Eu241 O260 2.473 . S
Eu241 O261 2.480 . S
Eu241 O262 2.430 . S
Eu241 O263 2.670 . S
Eu241 O264 2.394 . S
Eu241 O269 2.355 . S
Eu241 O271 2.374 . S
C242 C240 1.500 . S
C242 C243 1.377 . S
C242 C247 1.377 . S
C243 C242 1.377 . S
C243 C244 1.398 . S
C243 H272 0.931 . S
C244 C243 1.398 . S
C244 C245 1.382 1_655 S
C244 H273 0.930 1_655 S
C245 C244 1.382 1_455 S
C245 C246 1.394 1_455 S
C246 C245 1.394 1_655 S
C246 C247 1.378 . S
C246 H274 0.931 1_655 S
C247 C242 1.377 . S
C247 C246 1.378 . S
C247 H275 0.931 . S
C248 O262 1.259 . S
C248 O263 1.270 . S
C249 O264 1.251 . S
C249 O265 1.251 . S
C250 Eu251 2.835 . S
C250 C252 1.500 . S
C250 O266 1.257 . S
C250 O267 1.260 . S
Eu251 C250 2.835 . S
Eu251 O263 2.355 . S
Eu251 O265 2.374 . S
Eu251 O266 2.473 . S
Eu251 O267 2.480 . S
Eu251 O268 2.430 . S
Eu251 O269 2.670 . S
Eu251 O270 2.394 . S
C252 C250 1.500 . S
C252 C253 1.377 . S
C252 C257 1.377 . S
C253 C252 1.377 . S
C253 C254 1.395 . S
C253 H276 0.931 . S
C254 C253 1.395 . S
C254 C255 1.383 . S
C254 H277 0.931 . S
C255 C254 1.383 . S
C255 C256 1.394 . S
C256 C255 1.394 . S
C256 C257 1.378 . S
C256 H278 0.931 . S
C257 C252 1.377 . S
C257 C256 1.378 . S
C257 H279 0.931 . S
C258 O268 1.259 . S
C258 O269 1.270 . S
C259 O270 1.251 . S
C259 O271 1.251 . S
O260 C240 1.257 . S
O260 Eu241 2.473 . S
O261 C240 1.260 . S
O261 Eu241 2.480 . S
O262 Eu241 2.430 . S
O262 C248 1.259 . S
O263 Eu241 2.670 . S
O263 C248 1.270 . S
O263 Eu251 2.355 . S
O264 Eu241 2.394 . S
O264 C249 1.251 . S
O265 C249 1.251 . S
O265 Eu251 2.374 . S
O266 C250 1.257 . S
O266 Eu251 2.473 . S
O267 C250 1.260 . S
O267 Eu251 2.480 . S
O268 Eu251 2.430 . S
O268 C258 1.259 . S
O269 Eu241 2.355 . S
O269 Eu251 2.670 . S
O269 C258 1.270 . S
O270 Eu251 2.394 . S
O270 C259 1.251 . S
O271 Eu241 2.374 . S
O271 C259 1.251 . S
H272 C243 0.931 . S
H273 C244 0.930 1_455 S
H274 C246 0.931 1_455 S
H275 C247 0.931 . S
H276 C253 0.931 . S
H277 C254 0.931 . S
H278 C256 0.931 . S
H279 C257 0.931 . S
C280 Eu281 2.835 . S
C280 C282 1.500 . S
C280 O300 1.257 . S
C280 O301 1.260 . S
Eu281 C280 2.835 . S
Eu281 O300 2.473 . S
Eu281 O301 2.480 . S
Eu281 O302 2.430 . S
Eu281 O303 2.670 . S
Eu281 O304 2.394 . S
Eu281 O309 2.355 . S
Eu281 O311 2.374 . S
C282 C280 1.500 . S
C282 C283 1.377 . S
C282 C287 1.377 . S
C283 C282 1.377 . S
C283 C284 1.395 . S
C283 H312 0.931 . S
C284 C283 1.395 . S
C284 C285 1.383 . S
C284 H313 0.931 . S
C285 C284 1.383 . S
C285 C286 1.394 . S
C286 C285 1.394 . S
C286 C287 1.378 . S
C286 H314 0.931 . S
C287 C282 1.377 . S
C287 C286 1.378 . S
C287 H315 0.931 . S
C288 O302 1.259 . S
C288 O303 1.270 . S
C289 O304 1.251 . S
C289 O305 1.251 . S
C290 Eu291 2.835 . S
C290 C292 1.500 . S
C290 O306 1.257 . S
C290 O307 1.260 . S
Eu291 C290 2.835 . S
Eu291 O303 2.355 . S
Eu291 O305 2.374 . S
Eu291 O306 2.473 . S
Eu291 O307 2.480 . S
Eu291 O308 2.430 . S
Eu291 O309 2.670 . S
Eu291 O310 2.394 . S
C292 C290 1.500 . S
C292 C293 1.377 . S
C292 C297 1.377 . S
C293 C292 1.377 . S
C293 C294 1.395 . S
C293 H316 0.931 . S
C294 C293 1.395 . S
C294 C295 1.383 . S
C294 H317 0.931 . S
C295 C294 1.383 . S
C295 C296 1.394 . S
C296 C295 1.394 . S
C296 C297 1.378 . S
C296 H318 0.931 . S
C297 C292 1.377 . S
C297 C296 1.378 . S
C297 H319 0.931 . S
C298 O308 1.259 . S
C298 O309 1.270 . S
C299 O310 1.251 . S
C299 O311 1.251 . S
O300 C280 1.257 . S
O300 Eu281 2.473 . S
O301 C280 1.260 . S
O301 Eu281 2.480 . S
O302 Eu281 2.430 . S
O302 C288 1.259 . S
O303 Eu281 2.670 . S
O303 C288 1.270 . S
O303 Eu291 2.355 . S
O304 Eu281 2.394 . S
O304 C289 1.251 . S
O305 C289 1.251 . S
O305 Eu291 2.374 . S
O306 C290 1.257 . S
O306 Eu291 2.473 . S
O307 C290 1.260 . S
O307 Eu291 2.480 . S
O308 Eu291 2.430 . S
O308 C298 1.259 . S
O309 Eu281 2.355 . S
O309 Eu291 2.670 . S
O309 C298 1.270 . S
O310 Eu291 2.394 . S
O310 C299 1.251 . S
O311 Eu281 2.374 . S
O311 C299 1.251 . S
H312 C283 0.931 . S
H313 C284 0.931 . S
H314 C286 0.931 . S
H315 C287 0.931 . S
H316 C293 0.931 . S
H317 C294 0.931 . S
H318 C296 0.931 . S
H319 C297 0.931 . S
C320 Eu321 2.835 . S
C320 C322 1.500 . S
C320 O340 1.257 . S
C320 O341 1.260 . S
Eu321 C320 2.835 . S
Eu321 O340 2.473 . S
Eu321 O341 2.480 . S
Eu321 O342 2.430 . S
Eu321 O343 2.670 . S
Eu321 O344 2.394 . S
Eu321 O349 2.355 . S
Eu321 O351 2.374 . S
C322 C320 1.500 . S
C322 C323 1.377 . S
C322 C327 1.377 . S
C323 C322 1.377 . S
C323 C324 1.395 . S
C323 H352 0.931 . S
C324 C323 1.395 . S
C324 C325 1.383 . S
C324 H353 0.931 . S
C325 C324 1.383 . S
C325 C326 1.394 . S
C326 C325 1.394 . S
C326 C327 1.378 . S
C326 H354 0.931 . S
C327 C322 1.377 . S
C327 C326 1.378 . S
C327 H355 0.931 . S
C328 O342 1.259 . S
C328 O343 1.270 . S
C329 O344 1.251 . S
C329 O345 1.251 . S
C330 Eu331 2.835 . S
C330 C332 1.500 . S
C330 O346 1.257 . S
C330 O347 1.260 . S
Eu331 C330 2.835 . S
Eu331 O343 2.355 . S
Eu331 O345 2.374 . S
Eu331 O346 2.473 . S
Eu331 O347 2.480 . S
Eu331 O348 2.430 . S
Eu331 O349 2.670 . S
Eu331 O350 2.394 . S
C332 C330 1.500 . S
C332 C333 1.377 . S
C332 C337 1.377 . S
C333 C332 1.377 . S
C333 C334 1.398 . S
C333 H356 0.931 . S
C334 C333 1.398 . S
C334 C335 1.382 1_655 S
C334 H357 0.930 1_655 S
C335 C334 1.382 1_455 S
C335 C336 1.394 1_455 S
C336 C335 1.394 1_655 S
C336 C337 1.378 . S
C336 H358 0.931 1_655 S
C337 C332 1.377 . S
C337 C336 1.378 . S
C337 H359 0.931 . S
C338 O348 1.259 . S
C338 O349 1.270 . S
C339 O350 1.251 . S
C339 O351 1.251 . S
O340 C320 1.257 . S
O340 Eu321 2.473 . S
O341 C320 1.260 . S
O341 Eu321 2.480 . S
O342 Eu321 2.430 . S
O342 C328 1.259 . S
O343 Eu321 2.670 . S
O343 C328 1.270 . S
O343 Eu331 2.355 . S
O344 Eu321 2.394 . S
O344 C329 1.251 . S
O345 C329 1.251 . S
O345 Eu331 2.374 . S
O346 C330 1.257 . S
O346 Eu331 2.473 . S
O347 C330 1.260 . S
O347 Eu331 2.480 . S
O348 Eu331 2.430 . S
O348 C338 1.259 . S
O349 Eu321 2.355 . S
O349 Eu331 2.670 . S
O349 C338 1.270 . S
O350 Eu331 2.394 . S
O350 C339 1.251 . S
O351 Eu321 2.374 . S
O351 C339 1.251 . S
H352 C323 0.931 . S
H353 C324 0.931 . S
H354 C326 0.931 . S
H355 C327 0.931 . S
H356 C333 0.931 . S
H357 C334 0.930 1_455 S
H358 C336 0.931 1_455 S
H359 C337 0.931 . S
C360 Eu361 2.835 . S
C360 C362 1.500 . S
C360 O380 1.257 . S
C360 O381 1.260 . S
Eu361 C360 2.835 . S
Eu361 O380 2.473 . S
Eu361 O381 2.480 . S
Eu361 O382 2.430 . S
Eu361 O383 2.670 . S
Eu361 O384 2.394 . S
Eu361 O389 2.355 . S
Eu361 O391 2.374 . S
C362 C360 1.500 . S
C362 C363 1.377 . S
C362 C367 1.377 . S
C363 C362 1.377 . S
C363 C364 1.395 . S
C363 H392 0.931 . S
C364 C363 1.395 . S
C364 C365 1.383 . S
C364 H393 0.931 . S
C365 C364 1.383 . S
C365 C366 1.394 . S
C366 C365 1.394 . S
C366 C367 1.378 . S
C366 H394 0.931 . S
C367 C362 1.377 . S
C367 C366 1.378 . S
C367 H395 0.931 . S
C368 O382 1.259 . S
C368 O383 1.270 . S
C369 O384 1.251 . S
C369 O385 1.251 . S
C370 Eu371 2.835 . S
C370 C372 1.500 . S
C370 O386 1.257 . S
C370 O387 1.260 . S
Eu371 C370 2.835 . S
Eu371 O383 2.355 . S
Eu371 O385 2.374 . S
Eu371 O386 2.473 . S
Eu371 O387 2.480 . S
Eu371 O388 2.430 . S
Eu371 O389 2.670 . S
Eu371 O390 2.394 . S
C372 C370 1.500 . S
C372 C373 1.377 . S
C372 C377 1.377 . S
C373 C372 1.377 . S
C373 C374 1.395 . S
C373 H396 0.931 . S
C374 C373 1.395 . S
C374 C375 1.383 . S
C374 H397 0.931 . S
C375 C374 1.383 . S
C375 C376 1.394 . S
C376 C375 1.394 . S
C376 C377 1.378 . S
C376 H398 0.931 . S
C377 C372 1.377 . S
C377 C376 1.378 . S
C377 H399 0.931 . S
C378 O388 1.259 . S
C378 O389 1.270 . S
C379 O390 1.251 . S
C379 O391 1.251 . S
O380 C360 1.257 . S
O380 Eu361 2.473 . S
O381 C360 1.260 . S
O381 Eu361 2.480 . S
O382 Eu361 2.430 . S
O382 C368 1.259 . S
O383 Eu361 2.670 . S
O383 C368 1.270 . S
O383 Eu371 2.355 . S
O384 Eu361 2.394 . S
O384 C369 1.251 . S
O385 C369 1.251 . S
O385 Eu371 2.374 . S
O386 C370 1.257 . S
O386 Eu371 2.473 . S
O387 C370 1.260 . S
O387 Eu371 2.480 . S
O388 Eu371 2.430 . S
O388 C378 1.259 . S
O389 Eu361 2.355 . S
O389 Eu371 2.670 . S
O389 C378 1.270 . S
O390 Eu371 2.394 . S
O390 C379 1.251 . S
O391 Eu361 2.374 . S
O391 C379 1.251 . S
H392 C363 0.931 . S
H393 C364 0.931 . S
H394 C366 0.931 . S
H395 C367 0.931 . S
H396 C373 0.931 . S
H397 C374 0.931 . S
H398 C376 0.931 . S
H399 C377 0.931 . S
C400 Eu401 2.835 . S
C400 C402 1.500 . S
C400 O420 1.257 . S
C400 O421 1.260 . S
Eu401 C400 2.835 . S
Eu401 O420 2.473 . S
Eu401 O421 2.480 . S
Eu401 O422 2.430 . S
Eu401 O423 2.670 1_554 S
Eu401 O424 2.394 . S
Eu401 O429 2.355 . S
Eu401 O431 2.374 . S
C402 C400 1.500 . S
C402 C403 1.377 . S
C402 C407 1.377 . S
C403 C402 1.377 . S
C403 C404 1.395 . S
C403 H432 0.931 . S
C404 C403 1.395 . S
C404 C405 1.383 . S
C404 H433 0.931 . S
C405 C404 1.383 . S
C405 C406 1.394 . S
C406 C405 1.394 . S
C406 C407 1.378 . S
C406 H434 0.931 . S
C407 C402 1.377 . S
C407 C406 1.378 . S
C407 H435 0.931 . S
C408 O422 1.259 1_556 S
C408 O423 1.270 . S
C409 O424 1.251 . S
C409 O425 1.251 1_554 S
C410 Eu411 2.835 . S
C410 C412 1.500 . S
C410 O426 1.257 . S
C410 O427 1.260 . S
Eu411 C410 2.835 . S
Eu411 O423 2.355 . S
Eu411 O425 2.374 . S
Eu411 O426 2.473 . S
Eu411 O427 2.480 . S
Eu411 O428 2.430 1_556 S
Eu411 O429 2.670 1_556 S
Eu411 O430 2.394 1_556 S
C412 C410 1.500 . S
C412 C413 1.377 . S
C412 C417 1.377 . S
C413 C412 1.377 . S
C413 C414 1.395 . S
C413 H436 0.931 . S
C414 C413 1.395 . S
C414 C415 1.383 . S
C414 H437 0.931 . S
C415 C414 1.383 . S
C415 C416 1.394 . S
C416 C415 1.394 . S
C416 C417 1.378 . S
C416 H438 0.931 . S
C417 C412 1.377 . S
C417 C416 1.378 . S
C417 H439 0.931 . S
C418 O428 1.259 . S
C418 O429 1.270 . S
C419 O430 1.251 . S
C419 O431 1.251 . S
O420 C400 1.257 . S
O420 Eu401 2.473 . S
O421 C400 1.260 . S
O421 Eu401 2.480 . S
O422 Eu401 2.430 . S
O422 C408 1.259 1_554 S
O423 Eu401 2.670 1_556 S
O423 C408 1.270 . S
O423 Eu411 2.355 . S
O424 Eu401 2.394 . S
O424 C409 1.251 . S
O425 C409 1.251 1_556 S
O425 Eu411 2.374 . S
O426 C410 1.257 . S
O426 Eu411 2.473 . S
O427 C410 1.260 . S
O427 Eu411 2.480 . S
O428 Eu411 2.430 1_554 S
O428 C418 1.259 . S
O429 Eu401 2.355 . S
O429 Eu411 2.670 1_554 S
O429 C418 1.270 . S
O430 Eu411 2.394 1_554 S
O430 C419 1.251 . S
O431 Eu401 2.374 . S
O431 C419 1.251 . S
H432 C403 0.931 . S
H433 C404 0.931 . S
H434 C406 0.931 . S
H435 C407 0.931 . S
H436 C413 0.931 . S
H437 C414 0.931 . S
H438 C416 0.931 . S
H439 C417 0.931 . S
C440 Eu441 2.835 . S
C440 C442 1.500 . S
C440 O460 1.257 . S
C440 O461 1.260 . S
Eu441 C440 2.835 . S
Eu441 O460 2.473 . S
Eu441 O461 2.480 . S
Eu441 O462 2.430 . S
Eu441 O463 2.670 . S
Eu441 O464 2.394 . S
Eu441 O469 2.355 . S
Eu441 O471 2.374 . S
C442 C440 1.500 . S
C442 C443 1.377 . S
C442 C447 1.377 . S
C443 C442 1.377 . S
C443 C444 1.395 . S
C443 H472 0.931 . S
C444 C443 1.395 . S
C444 C445 1.383 . S
C444 H473 0.931 . S
C445 C444 1.383 . S
C445 C446 1.394 . S
C446 C445 1.394 . S
C446 C447 1.378 . S
C446 H474 0.931 . S
C447 C442 1.377 . S
C447 C446 1.378 . S
C447 H475 0.931 . S
C448 O462 1.259 . S
C448 O463 1.270 . S
C449 O464 1.251 . S
C449 O465 1.251 . S
C450 Eu451 2.835 . S
C450 C452 1.500 . S
C450 O466 1.257 . S
C450 O467 1.260 . S
Eu451 C450 2.835 . S
Eu451 O463 2.355 . S
Eu451 O465 2.374 . S
Eu451 O466 2.473 . S
Eu451 O467 2.480 . S
Eu451 O468 2.430 . S
Eu451 O469 2.670 . S
Eu451 O470 2.394 . S
C452 C450 1.500 . S
C452 C453 1.377 . S
C452 C457 1.377 . S
C453 C452 1.377 . S
C453 C454 1.395 . S
C453 H476 0.931 . S
C454 C453 1.395 . S
C454 C455 1.383 . S
C454 H477 0.931 . S
C455 C454 1.383 . S
C455 C456 1.394 . S
C456 C455 1.394 . S
C456 C457 1.378 . S
C456 H478 0.931 . S
C457 C452 1.377 . S
C457 C456 1.378 . S
C457 H479 0.931 . S
C458 O468 1.259 . S
C458 O469 1.270 . S
C459 O470 1.251 . S
C459 O471 1.251 . S
O460 C440 1.257 . S
O460 Eu441 2.473 . S
O461 C440 1.260 . S
O461 Eu441 2.480 . S
O462 Eu441 2.430 . S
O462 C448 1.259 . S
O463 Eu441 2.670 . S
O463 C448 1.270 . S
O463 Eu451 2.355 . S
O464 Eu441 2.394 . S
O464 C449 1.251 . S
O465 C449 1.251 . S
O465 Eu451 2.374 . S
O466 C450 1.257 . S
O466 Eu451 2.473 . S
O467 C450 1.260 . S
O467 Eu451 2.480 . S
O468 Eu451 2.430 . S
O468 C458 1.259 . S
O469 Eu441 2.355 . S
O469 Eu451 2.670 . S
O469 C458 1.270 . S
O470 Eu451 2.394 . S
O470 C459 1.251 . S
O471 Eu441 2.374 . S
O471 C459 1.251 . S
H472 C443 0.931 . S
H473 C444 0.931 . S
H474 C446 0.931 . S
H475 C447 0.931 . S
H476 C453 0.931 . S
H477 C454 0.931 . S
H478 C456 0.931 . S
H479 C457 0.931 . S
C480 Eu481 2.835 . S
C480 C482 1.500 . S
C480 O500 1.257 . S
C480 O501 1.260 . S
Eu481 C480 2.835 . S
Eu481 O500 2.473 . S
Eu481 O501 2.480 . S
Eu481 O502 2.430 . S
Eu481 O503 2.670 . S
Eu481 O504 2.394 . S
Eu481 O509 2.355 . S
Eu481 O511 2.374 . S
C482 C480 1.500 . S
C482 C483 1.377 . S
C482 C487 1.377 . S
C483 C482 1.377 . S
C483 C484 1.398 . S
C483 H512 0.931 . S
C484 C483 1.398 . S
C484 C485 1.382 1_455 S
C484 H513 0.930 1_455 S
C485 C484 1.382 1_655 S
C485 C486 1.394 1_655 S
C486 C485 1.394 1_455 S
C486 C487 1.378 . S
C486 H514 0.931 1_455 S
C487 C482 1.377 . S
C487 C486 1.378 . S
C487 H515 0.931 . S
C488 O502 1.259 . S
C488 O503 1.270 . S
C489 O504 1.251 . S
C489 O505 1.251 . S
C490 Eu491 2.835 . S
C490 C492 1.500 . S
C490 O506 1.257 . S
C490 O507 1.260 . S
Eu491 C490 2.835 . S
Eu491 O503 2.355 . S
Eu491 O505 2.374 . S
Eu491 O506 2.473 . S
Eu491 O507 2.480 . S
Eu491 O508 2.430 . S
Eu491 O509 2.670 . S
Eu491 O510 2.394 . S
C492 C490 1.500 . S
C492 C493 1.377 . S
C492 C497 1.377 . S
C493 C492 1.377 . S
C493 C494 1.395 . S
C493 H516 0.931 . S
C494 C493 1.395 . S
C494 C495 1.383 . S
C494 H517 0.931 . S
C495 C494 1.383 . S
C495 C496 1.394 . S
C496 C495 1.394 . S
C496 C497 1.378 . S
C496 H518 0.931 . S
C497 C492 1.377 . S
C497 C496 1.378 . S
C497 H519 0.931 . S
C498 O508 1.259 . S
C498 O509 1.270 . S
C499 O510 1.251 . S
C499 O511 1.251 . S
O500 C480 1.257 . S
O500 Eu481 2.473 . S
O501 C480 1.260 . S
O501 Eu481 2.480 . S
O502 Eu481 2.430 . S
O502 C488 1.259 . S
O503 Eu481 2.670 . S
O503 C488 1.270 . S
O503 Eu491 2.355 . S
O504 Eu481 2.394 . S
O504 C489 1.251 . S
O505 C489 1.251 . S
O505 Eu491 2.374 . S
O506 C490 1.257 . S
O506 Eu491 2.473 . S
O507 C490 1.260 . S
O507 Eu491 2.480 . S
O508 Eu491 2.430 . S
O508 C498 1.259 . S
O509 Eu481 2.355 . S
O509 Eu491 2.670 . S
O509 C498 1.270 . S
O510 Eu491 2.394 . S
O510 C499 1.251 . S
O511 Eu481 2.374 . S
O511 C499 1.251 . S
H512 C483 0.931 . S
H513 C484 0.930 1_655 S
H514 C486 0.931 1_655 S
H515 C487 0.931 . S
H516 C493 0.931 . S
H517 C494 0.931 . S
H518 C496 0.931 . S
H519 C497 0.931 . S
C520 Eu521 2.835 . S
C520 C522 1.500 . S
C520 O540 1.257 . S
C520 O541 1.260 . S
Eu521 C520 2.835 . S
Eu521 O540 2.473 . S
Eu521 O541 2.480 . S
Eu521 O542 2.430 . S
Eu521 O543 2.670 . S
Eu521 O544 2.394 . S
Eu521 O549 2.355 . S
Eu521 O551 2.374 . S
C522 C520 1.500 . S
C522 C523 1.377 . S
C522 C527 1.377 . S
C523 C522 1.377 . S
C523 C524 1.395 . S
C523 H552 0.931 . S
C524 C523 1.395 . S
C524 C525 1.383 . S
C524 H553 0.931 . S
C525 C524 1.383 . S
C525 C526 1.394 . S
C526 C525 1.394 . S
C526 C527 1.378 . S
C526 H554 0.931 . S
C527 C522 1.377 . S
C527 C526 1.378 . S
C527 H555 0.931 . S
C528 O542 1.259 . S
C528 O543 1.270 . S
C529 O544 1.251 . S
C529 O545 1.251 . S
C530 Eu531 2.835 . S
C530 C532 1.500 . S
C530 O546 1.257 . S
C530 O547 1.260 . S
Eu531 C530 2.835 . S
Eu531 O543 2.355 . S
Eu531 O545 2.374 . S
Eu531 O546 2.473 . S
Eu531 O547 2.480 . S
Eu531 O548 2.430 . S
Eu531 O549 2.670 . S
Eu531 O550 2.394 . S
C532 C530 1.500 . S
C532 C533 1.377 . S
C532 C537 1.377 . S
C533 C532 1.377 . S
C533 C534 1.395 . S
C533 H556 0.931 . S
C534 C533 1.395 . S
C534 C535 1.383 . S
C534 H557 0.931 . S
C535 C534 1.383 . S
C535 C536 1.394 . S
C536 C535 1.394 . S
C536 C537 1.378 . S
C536 H558 0.931 . S
C537 C532 1.377 . S
C537 C536 1.378 . S
C537 H559 0.931 . S
C538 O548 1.259 . S
C538 O549 1.270 . S
C539 O550 1.251 . S
C539 O551 1.251 . S
O540 C520 1.257 . S
O540 Eu521 2.473 . S
O541 C520 1.260 . S
O541 Eu521 2.480 . S
O542 Eu521 2.430 . S
O542 C528 1.259 . S
O543 Eu521 2.670 . S
O543 C528 1.270 . S
O543 Eu531 2.355 . S
O544 Eu521 2.394 . S
O544 C529 1.251 . S
O545 C529 1.251 . S
O545 Eu531 2.374 . S
O546 C530 1.257 . S
O546 Eu531 2.473 . S
O547 C530 1.260 . S
O547 Eu531 2.480 . S
O548 Eu531 2.430 . S
O548 C538 1.259 . S
O549 Eu521 2.355 . S
O549 Eu531 2.670 . S
O549 C538 1.270 . S
O550 Eu531 2.394 . S
O550 C539 1.251 . S
O551 Eu521 2.374 . S
O551 C539 1.251 . S
H552 C523 0.931 . S
H553 C524 0.931 . S
H554 C526 0.931 . S
H555 C527 0.931 . S
H556 C533 0.931 . S
H557 C534 0.931 . S
H558 C536 0.931 . S
H559 C537 0.931 . S
C560 Eu561 2.835 . S
C560 C562 1.500 . S
C560 O580 1.257 . S
C560 O581 1.260 . S
Eu561 C560 2.835 . S
Eu561 O580 2.473 . S
Eu561 O581 2.480 . S
Eu561 O582 2.430 1_554 S
Eu561 O583 2.670 1_554 S
Eu561 O584 2.394 1_554 S
Eu561 O589 2.355 . S
Eu561 O591 2.374 . S
C562 C560 1.500 . S
C562 C563 1.377 . S
C562 C567 1.377 . S
C563 C562 1.377 . S
C563 C564 1.395 . S
C563 H592 0.931 . S
C564 C563 1.395 . S
C564 C565 1.383 . S
C564 H593 0.931 . S
C565 C564 1.383 . S
C565 C566 1.394 . S
C566 C565 1.394 . S
C566 C567 1.378 . S
C566 H594 0.931 . S
C567 C562 1.377 . S
C567 C566 1.378 . S
C567 H595 0.931 . S
C568 O582 1.259 . S
C568 O583 1.270 . S
C569 O584 1.251 . S
C569 O585 1.251 . S
C570 Eu571 2.835 . S
C570 C572 1.500 . S
C570 O586 1.257 . S
C570 O587 1.260 . S
Eu571 C570 2.835 . S
Eu571 O583 2.355 . S
Eu571 O585 2.374 . S
Eu571 O586 2.473 . S
Eu571 O587 2.480 . S
Eu571 O588 2.430 . S
Eu571 O589 2.670 1_556 S
Eu571 O590 2.394 . S
C572 C570 1.500 . S
C572 C573 1.377 . S
C572 C577 1.377 . S
C573 C572 1.377 . S
C573 C574 1.395 . S
C573 H596 0.931 . S
C574 C573 1.395 . S
C574 C575 1.383 . S
C574 H597 0.931 . S
C575 C574 1.383 . S
C575 C576 1.394 . S
C576 C575 1.394 . S
C576 C577 1.378 . S
C576 H598 0.931 . S
C577 C572 1.377 . S
C577 C576 1.378 . S
C577 H599 0.931 . S
C578 O588 1.259 1_554 S
C578 O589 1.270 . S
C579 O590 1.251 . S
C579 O591 1.251 1_556 S
O580 C560 1.257 . S
O580 Eu561 2.473 . S
O581 C560 1.260 . S
O581 Eu561 2.480 . S
O582 Eu561 2.430 1_556 S
O582 C568 1.259 . S
O583 Eu561 2.670 1_556 S
O583 C568 1.270 . S
O583 Eu571 2.355 . S
O584 Eu561 2.394 1_556 S
O584 C569 1.251 . S
O585 C569 1.251 . S
O585 Eu571 2.374 . S
O586 C570 1.257 . S
O586 Eu571 2.473 . S
O587 C570 1.260 . S
O587 Eu571 2.480 . S
O588 Eu571 2.430 . S
O588 C578 1.259 1_556 S
O589 Eu561 2.355 . S
O589 Eu571 2.670 1_554 S
O589 C578 1.270 . S
O590 Eu571 2.394 . S
O590 C579 1.251 . S
O591 Eu561 2.374 . S
O591 C579 1.251 1_554 S
H592 C563 0.931 . S
H593 C564 0.931 . S
H594 C566 0.931 . S
H595 C567 0.931 . S
H596 C573 0.931 . S
H597 C574 0.931 . S
H598 C576 0.931 . S
H599 C577 0.931 . S
C600 Eu601 2.835 . S
C600 C602 1.500 . S
C600 O620 1.257 . S
C600 O621 1.260 . S
Eu601 C600 2.835 . S
Eu601 O620 2.473 . S
Eu601 O621 2.480 . S
Eu601 O622 2.430 . S
Eu601 O623 2.670 . S
Eu601 O624 2.394 . S
Eu601 O629 2.355 . S
Eu601 O631 2.374 . S
C602 C600 1.500 . S
C602 C603 1.377 . S
C602 C607 1.377 . S
C603 C602 1.377 . S
C603 C604 1.395 . S
C603 H632 0.931 . S
C604 C603 1.395 . S
C604 C605 1.383 . S
C604 H633 0.931 . S
C605 C604 1.383 . S
C605 C606 1.394 . S
C606 C605 1.394 . S
C606 C607 1.378 . S
C606 H634 0.931 . S
C607 C602 1.377 . S
C607 C606 1.378 . S
C607 H635 0.931 . S
C608 O622 1.259 . S
C608 O623 1.270 . S
C609 O624 1.251 . S
C609 O625 1.251 . S
C610 Eu611 2.835 . S
C610 C612 1.500 . S
C610 O626 1.257 . S
C610 O627 1.260 . S
Eu611 C610 2.835 . S
Eu611 O623 2.355 . S
Eu611 O625 2.374 . S
Eu611 O626 2.473 . S
Eu611 O627 2.480 . S
Eu611 O628 2.430 . S
Eu611 O629 2.670 . S
Eu611 O630 2.394 . S
C612 C610 1.500 . S
C612 C613 1.377 . S
C612 C617 1.377 . S
C613 C612 1.377 . S
C613 C614 1.395 . S
C613 H636 0.931 . S
C614 C613 1.395 . S
C614 C615 1.383 . S
C614 H637 0.931 . S
C615 C614 1.383 . S
C615 C616 1.394 . S
C616 C615 1.394 . S
C616 C617 1.378 . S
C616 H638 0.931 . S
C617 C612 1.377 . S
C617 C616 1.378 . S
C617 H639 0.931 . S
C618 O628 1.259 . S
C618 O629 1.270 . S
C619 O630 1.251 . S
C619 O631 1.251 . S
O620 C600 1.257 . S
O620 Eu601 2.473 . S
O621 C600 1.260 . S
O621 Eu601 2.480 . S
O622 Eu601 2.430 . S
O622 C608 1.259 . S
O623 Eu601 2.670 . S
O623 C608 1.270 . S
O623 Eu611 2.355 . S
O624 Eu601 2.394 . S
O624 C609 1.251 . S
O625 C609 1.251 . S
O625 Eu611 2.374 . S
O626 C610 1.257 . S
O626 Eu611 2.473 . S
O627 C610 1.260 . S
O627 Eu611 2.480 . S
O628 Eu611 2.430 . S
O628 C618 1.259 . S
O629 Eu601 2.355 . S
O629 Eu611 2.670 . S
O629 C618 1.270 . S
O630 Eu611 2.394 . S
O630 C619 1.251 . S
O631 Eu601 2.374 . S
O631 C619 1.251 . S
H632 C603 0.931 . S
H633 C604 0.931 . S
H634 C606 0.931 . S
H635 C607 0.931 . S
H636 C613 0.931 . S
H637 C614 0.931 . S
H638 C616 0.931 . S
H639 C617 0.931 . S
H640 C646 0.930 . S
H641 C649 0.913 1_556 S
H642 C650 0.930 1_556 S
H643 C651 0.930 . S
H644 C654 0.930 . S
H645 C655 0.930 . S
C646 H640 0.930 . S
C646 C647 1.355 . S
C646 C648 1.415 . S
C647 C646 1.355 . S
C647 C649 1.419 . S
C648 C646 1.415 . S
C648 C653 1.425 . S
C648 C655 1.409 . S
C649 H641 0.913 1_554 S
C649 C647 1.419 . S
C649 C650 1.362 . S
C650 H642 0.930 1_554 S
C650 C649 1.362 . S
C650 C653 1.409 . S
C651 H643 0.930 . S
C651 C652 1.355 . S
C651 C653 1.415 . S
C652 C651 1.355 . S
C652 C654 1.419 . S
C653 C648 1.425 . S
C653 C650 1.409 . S
C653 C651 1.415 . S
C654 H644 0.930 . S
C654 C652 1.419 . S
C654 C655 1.362 . S
C655 H645 0.930 . S
C655 C648 1.409 . S
C655 C654 1.362 . S
H656 C662 0.930 . S
H657 C665 0.930 . S
H658 C666 0.930 . S
H659 C667 0.930 . S
H660 C670 0.930 . S
H661 C671 0.930 . S
C662 H656 0.930 . S
C662 C663 1.355 . S
C662 C664 1.415 . S
C663 C662 1.355 . S
C663 C665 1.419 . S
C664 C662 1.415 . S
C664 C669 1.425 . S
C664 C671 1.409 . S
C665 H657 0.930 . S
C665 C663 1.419 . S
C665 C666 1.362 . S
C666 H658 0.930 . S
C666 C665 1.362 . S
C666 C669 1.409 . S
C667 H659 0.930 . S
C667 C668 1.355 . S
C667 C669 1.415 . S
C668 C667 1.355 . S
C668 C670 1.419 . S
C669 C664 1.425 . S
C669 C666 1.409 . S
C669 C667 1.415 . S
C670 H660 0.930 . S
C670 C668 1.419 . S
C670 C671 1.362 . S
C671 H661 0.930 . S
C671 C664 1.409 . S
C671 C670 1.362 . S
H672 C678 0.930 . S
H673 C681 0.934 . S
H674 C682 0.930 . S
H675 C683 0.930 . S
H676 C686 0.934 . S
H677 C687 0.930 . S
C678 H672 0.930 . S
C678 C679 1.355 . S
C678 C680 1.415 . S
C679 C678 1.355 . S
C679 C681 1.405 1_455 S
C680 C678 1.415 . S
C680 C685 1.425 1_455 S
C680 C687 1.409 . S
C681 H673 0.934 . S
C681 C679 1.405 1_655 S
C681 C682 1.373 . S
C682 H674 0.930 . S
C682 C681 1.373 . S
C682 C685 1.409 . S
C683 H675 0.930 . S
C683 C684 1.355 . S
C683 C685 1.415 . S
C684 C683 1.355 . S
C684 C686 1.405 1_655 S
C685 C680 1.425 1_655 S
C685 C682 1.409 . S
C685 C683 1.415 . S
C686 H676 0.934 . S
C686 C684 1.405 1_455 S
C686 C687 1.373 . S
C687 H677 0.930 . S
C687 C680 1.409 . S
C687 C686 1.373 . S
H688 C694 0.930 . S
H689 C697 0.930 . S
H690 C698 0.959 . S
H691 C699 0.930 . S
H692 C702 0.930 . S
H693 C703 0.959 . S
C694 H688 0.930 . S
C694 C695 1.355 . S
C694 C696 1.415 . S
C695 C694 1.355 . S
C695 C697 1.419 . S
C696 C694 1.415 . S
C696 C701 1.425 1_655 S
C696 C703 1.422 . S
C697 H689 0.930 . S
C697 C695 1.419 . S
C697 C698 1.322 1_655 S
C698 H690 0.959 . S
C698 C697 1.322 1_455 S
C698 C701 1.422 . S
C699 H691 0.930 . S
C699 C700 1.355 . S
C699 C701 1.415 . S
C700 C699 1.355 . S
C700 C702 1.419 . S
C701 C696 1.425 1_455 S
C701 C698 1.422 . S
C701 C699 1.415 . S
C702 H692 0.930 . S
C702 C700 1.419 . S
C702 C703 1.322 1_455 S
C703 H693 0.959 . S
C703 C696 1.422 . S
C703 C702 1.322 1_655 S
H704 C710 0.930 . S
H705 C713 0.930 . S
H706 C714 0.930 . S
H707 C715 0.930 . S
H708 C718 0.930 . S
H709 C719 0.930 . S
C710 H704 0.930 . S
C710 C711 1.355 . S
C710 C712 1.415 . S
C711 C710 1.355 . S
C711 C713 1.419 . S
C712 C710 1.415 . S
C712 C717 1.425 . S
C712 C719 1.409 . S
C713 H705 0.930 . S
C713 C711 1.419 . S
C713 C714 1.362 . S
C714 H706 0.930 . S
C714 C713 1.362 . S
C714 C717 1.409 . S
C715 H707 0.930 . S
C715 C716 1.355 . S
C715 C717 1.415 . S
C716 C715 1.355 . S
C716 C718 1.419 . S
C717 C712 1.425 . S
C717 C714 1.409 . S
C717 C715 1.415 . S
C718 H708 0.930 . S
C718 C716 1.419 . S
C718 C719 1.362 . S
C719 H709 0.930 . S
C719 C712 1.409 . S
C719 C718 1.362 . S
H720 C726 0.930 . S
H721 C729 0.930 . S
H722 C730 0.930 . S
H723 C731 0.930 . S
H724 C734 0.930 . S
H725 C735 0.930 . S
C726 H720 0.930 . S
C726 C727 1.355 . S
C726 C728 1.415 . S
C727 C726 1.355 . S
C727 C729 1.419 . S
C728 C726 1.415 . S
C728 C733 1.425 . S
C728 C735 1.409 . S
C729 H721 0.930 . S
C729 C727 1.419 . S
C729 C730 1.362 . S
C730 H722 0.930 . S
C730 C729 1.362 . S
C730 C733 1.409 . S
C731 H723 0.930 . S
C731 C732 1.355 . S
C731 C733 1.415 . S
C732 C731 1.355 . S
C732 C734 1.419 . S
C733 C728 1.425 . S
C733 C730 1.409 . S
C733 C731 1.415 . S
C734 H724 0.930 . S
C734 C732 1.419 . S
C734 C735 1.362 . S
C735 H725 0.930 . S
C735 C728 1.409 . S
C735 C734 1.362 . S
H736 C742 0.930 . S
H737 C745 0.930 1_455 S
H738 C746 0.930 . S
H739 C747 0.930 . S
H740 C750 0.930 1_655 S
H741 C751 0.930 . S
C742 H736 0.930 . S
C742 C743 1.355 . S
C742 C744 1.415 . S
C743 C742 1.355 . S
C743 C745 1.419 . S
C744 C742 1.415 . S
C744 C749 1.425 1_655 S
C744 C751 1.409 . S
C745 H737 0.930 1_655 S
C745 C743 1.419 . S
C745 C746 1.362 1_655 S
C746 H738 0.930 . S
C746 C745 1.362 1_455 S
C746 C749 1.409 . S
C747 H739 0.930 . S
C747 C748 1.355 . S
C747 C749 1.415 . S
C748 C747 1.355 . S
C748 C750 1.419 . S
C749 C744 1.425 1_455 S
C749 C746 1.409 . S
C749 C747 1.415 . S
C750 H740 0.930 1_455 S
C750 C748 1.419 . S
C750 C751 1.362 1_455 S
C751 H741 0.930 . S
C751 C744 1.409 . S
C751 C750 1.362 1_655 S
H752 C758 0.930 . S
H753 C761 0.930 . S
H754 C762 0.930 . S
H755 C763 0.930 . S
H756 C766 0.930 . S
H757 C767 0.930 . S
C758 H752 0.930 . S
C758 C759 1.355 . S
C758 C760 1.415 . S
C759 C758 1.355 . S
C759 C761 1.419 . S
C760 C758 1.415 . S
C760 C765 1.425 1_455 S
C760 C767 1.409 . S
C761 H753 0.930 . S
C761 C759 1.419 . S
C761 C762 1.362 1_455 S
C762 H754 0.930 . S
C762 C761 1.362 1_655 S
C762 C765 1.409 . S
C763 H755 0.930 . S
C763 C764 1.355 . S
C763 C765 1.415 . S
C764 C763 1.355 . S
C764 C766 1.419 . S
C765 C760 1.425 1_655 S
C765 C762 1.409 . S
C765 C763 1.415 . S
C766 H756 0.930 . S
C766 C764 1.419 . S
C766 C767 1.362 1_655 S
C767 H757 0.930 . S
C767 C760 1.409 . S
C767 C766 1.362 1_455 S
H768 C774 0.930 . S
H769 C777 0.930 . S
H770 C778 0.930 . S
H771 C779 0.930 . S
H772 C782 0.930 1_554 S
H773 C783 0.930 . S
C774 H768 0.930 . S
C774 C775 1.355 . S
C774 C776 1.415 . S
C775 C774 1.355 . S
C775 C777 1.419 . S
C776 C774 1.415 . S
C776 C781 1.425 . S
C776 C783 1.409 . S
C777 H769 0.930 . S
C777 C775 1.419 . S
C777 C778 1.362 . S
C778 H770 0.930 . S
C778 C777 1.362 . S
C778 C781 1.409 . S
C779 H771 0.930 . S
C779 C780 1.355 . S
C779 C781 1.415 . S
C780 C779 1.355 . S
C780 C782 1.419 . S
C781 C776 1.425 . S
C781 C778 1.409 . S
C781 C779 1.415 . S
C782 H772 0.930 1_556 S
C782 C780 1.419 . S
C782 C783 1.362 . S
C783 H773 0.930 . S
C783 C776 1.409 . S
C783 C782 1.362 . S
H784 C790 0.930 . S
H785 C793 0.930 . S
H786 C794 0.930 . S
H787 C795 0.930 . S
H788 C798 0.930 . S
H789 C799 0.930 . S
C790 H784 0.930 . S
C790 C791 1.355 . S
C790 C792 1.415 . S
C791 C790 1.355 . S
C791 C793 1.419 . S
C792 C790 1.415 . S
C792 C797 1.425 . S
C792 C799 1.409 . S
C793 H785 0.930 . S
C793 C791 1.419 . S
C793 C794 1.362 . S
C794 H786 0.930 . S
C794 C793 1.362 . S
C794 C797 1.409 . S
C795 H787 0.930 . S
C795 C796 1.355 . S
C795 C797 1.415 . S
C796 C795 1.355 . S
C796 C798 1.419 . S
C797 C792 1.425 . S
C797 C794 1.409 . S
C797 C795 1.415 . S
C798 H788 0.930 . S
C798 C796 1.419 . S
C798 C799 1.362 . S
C799 H789 0.930 . S
C799 C792 1.409 . S
C799 C798 1.362 . S
H800 C806 0.930 . S
H801 C809 0.930 . S
H802 C810 0.930 . S
H803 C811 0.930 . S
H804 C814 0.930 . S
H805 C815 0.930 . S
C806 H800 0.930 . S
C806 C807 1.355 . S
C806 C808 1.415 . S
C807 C806 1.355 . S
C807 C809 1.419 . S
C808 C806 1.415 . S
C808 C813 1.425 . S
C808 C815 1.409 . S
C809 H801 0.930 . S
C809 C807 1.419 . S
C809 C810 1.362 . S
C810 H802 0.930 . S
C810 C809 1.362 . S
C810 C813 1.409 . S
C811 H803 0.930 . S
C811 C812 1.355 . S
C811 C813 1.415 . S
C812 C811 1.355 . S
C812 C814 1.419 . S
C813 C808 1.425 . S
C813 C810 1.409 . S
C813 C811 1.415 . S
C814 H804 0.930 . S
C814 C812 1.419 . S
C814 C815 1.362 . S
C815 H805 0.930 . S
C815 C808 1.409 . S
C815 C814 1.362 . S
H816 C822 0.930 . S
H817 C825 0.930 . S
H818 C826 0.930 . S
H819 C827 0.930 . S
H820 C830 0.930 . S
H821 C831 0.930 . S
C822 H816 0.930 . S
C822 C823 1.355 . S
C822 C824 1.415 . S
C823 C822 1.355 . S
C823 C825 1.419 . S
C824 C822 1.415 . S
C824 C829 1.425 . S
C824 C831 1.409 . S
C825 H817 0.930 . S
C825 C823 1.419 . S
C825 C826 1.362 . S
C826 H818 0.930 . S
C826 C825 1.362 . S
C826 C829 1.409 . S
C827 H819 0.930 . S
C827 C828 1.355 . S
C827 C829 1.415 . S
C828 C827 1.355 . S
C828 C830 1.419 . S
C829 C824 1.425 . S
C829 C826 1.409 . S
C829 C827 1.415 . S
C830 H820 0.930 . S
C830 C828 1.419 . S
C830 C831 1.362 . S
C831 H821 0.930 . S
C831 C824 1.409 . S
C831 C830 1.362 . S
H832 C838 0.930 . S
H833 C841 0.930 . S
H834 C842 0.930 . S
H835 C843 0.930 . S
H836 C846 0.930 . S
H837 C847 0.930 . S
C838 H832 0.930 . S
C838 C839 1.355 . S
C838 C840 1.415 . S
C839 C838 1.355 . S
C839 C841 1.419 . S
C840 C838 1.415 . S
C840 C845 1.425 . S
C840 C847 1.409 . S
C841 H833 0.930 . S
C841 C839 1.419 . S
C841 C842 1.362 . S
C842 H834 0.930 . S
C842 C841 1.362 . S
C842 C845 1.409 . S
C843 H835 0.930 . S
C843 C844 1.355 . S
C843 C845 1.415 . S
C844 C843 1.355 . S
C844 C846 1.419 . S
C845 C840 1.425 . S
C845 C842 1.409 . S
C845 C843 1.415 . S
C846 H836 0.930 . S
C846 C844 1.419 . S
C846 C847 1.362 . S
C847 H837 0.930 . S
C847 C840 1.409 . S
C847 C846 1.362 . S
H848 C854 0.930 . S
H849 C857 0.930 . S
H850 C858 0.930 . S
H851 C859 0.930 . S
H852 C862 0.930 . S
H853 C863 0.930 . S
C854 H848 0.930 . S
C854 C855 1.355 . S
C854 C856 1.415 . S
C855 C854 1.355 . S
C855 C857 1.419 . S
C856 C854 1.415 . S
C856 C861 1.425 . S
C856 C863 1.409 . S
C857 H849 0.930 . S
C857 C855 1.419 . S
C857 C858 1.362 . S
C858 H850 0.930 . S
C858 C857 1.362 . S
C858 C861 1.409 . S
C859 H851 0.930 . S
C859 C860 1.355 . S
C859 C861 1.415 . S
C860 C859 1.355 . S
C860 C862 1.419 . S
C861 C856 1.425 . S
C861 C858 1.409 . S
C861 C859 1.415 . S
C862 H852 0.930 . S
C862 C860 1.419 . S
C862 C863 1.362 . S
C863 H853 0.930 . S
C863 C856 1.409 . S
C863 C862 1.362 . S
H864 C870 0.930 . S
H865 C873 0.930 . S
H866 C874 0.930 . S
H867 C875 0.930 . S
H868 C878 0.930 . S
H869 C879 0.930 . S
C870 H864 0.930 . S
C870 C871 1.355 . S
C870 C872 1.415 . S
C871 C870 1.355 . S
C871 C873 1.419 . S
C872 C870 1.415 . S
C872 C877 1.425 . S
C872 C879 1.409 . S
C873 H865 0.930 . S
C873 C871 1.419 . S
C873 C874 1.362 . S
C874 H866 0.930 . S
C874 C873 1.362 . S
C874 C877 1.409 . S
C875 H867 0.930 . S
C875 C876 1.355 . S
C875 C877 1.415 . S
C876 C875 1.355 . S
C876 C878 1.419 . S
C877 C872 1.425 . S
C877 C874 1.409 . S
C877 C875 1.415 . S
C878 H868 0.930 . S
C878 C876 1.419 . S
C878 C879 1.362 . S
C879 H869 0.930 . S
C879 C872 1.409 . S
C879 C878 1.362 . S
H880 C886 0.930 . S
H881 C889 0.930 . S
H882 C890 0.930 . S
H883 C891 0.930 . S
H884 C894 0.930 . S
H885 C895 0.930 . S
C886 H880 0.930 . S
C886 C887 1.355 . S
C886 C888 1.415 . S
C887 C886 1.355 . S
C887 C889 1.419 . S
C888 C886 1.415 . S
C888 C893 1.425 . S
C888 C895 1.409 . S
C889 H881 0.930 . S
C889 C887 1.419 . S
C889 C890 1.362 . S
C890 H882 0.930 . S
C890 C889 1.362 . S
C890 C893 1.409 . S
C891 H883 0.930 . S
C891 C892 1.355 . S
C891 C893 1.415 . S
C892 C891 1.355 . S
C892 C894 1.419 . S
C893 C888 1.425 . S
C893 C890 1.409 . S
C893 C891 1.415 . S
C894 H884 0.930 . S
C894 C892 1.419 . S
C894 C895 1.362 . S
C895 H885 0.930 . S
C895 C888 1.409 . S
C895 C894 1.362 . S
H896 C902 0.930 . S
H897 C905 0.930 . S
H898 C906 0.930 . S
H899 C907 0.930 . S
H900 C910 0.930 . S
H901 C911 0.930 . S
C902 H896 0.930 . S
C902 C903 1.355 . S
C902 C904 1.415 . S
C903 C902 1.355 . S
C903 C905 1.419 . S
C904 C902 1.415 . S
C904 C909 1.425 . S
C904 C911 1.409 . S
C905 H897 0.930 . S
C905 C903 1.419 . S
C905 C906 1.362 . S
C906 H898 0.930 . S
C906 C905 1.362 . S
C906 C909 1.409 . S
C907 H899 0.930 . S
C907 C908 1.355 . S
C907 C909 1.415 . S
C908 C907 1.355 . S
C908 C910 1.419 . S
C909 C904 1.425 . S
C909 C906 1.409 . S
C909 C907 1.415 . S
C910 H900 0.930 . S
C910 C908 1.419 . S
C910 C911 1.362 . S
C911 H901 0.930 . S
C911 C904 1.409 . S
C911 C910 1.362 . S
H912 C918 0.930 . S
H913 C921 0.925 1_545 S
H914 C922 0.930 . S
H915 C923 0.930 . S
H916 C926 0.930 . S
H917 C927 0.930 . S
C918 H912 0.930 . S
C918 C919 1.355 . S
C918 C920 1.415 1_545 S
C919 C918 1.355 . S
C919 C921 1.394 1_545 S
C920 C918 1.415 1_565 S
C920 C925 1.425 . S
C920 C927 1.409 . S
C921 H913 0.925 1_565 S
C921 C919 1.394 1_565 S
C921 C922 1.394 . S
C922 H914 0.930 . S
C922 C921 1.394 . S
C922 C925 1.409 . S
C923 H915 0.930 . S
C923 C924 1.355 . S
C923 C925 1.415 . S
C924 C923 1.355 . S
C924 C926 1.419 . S
C925 C920 1.425 . S
C925 C922 1.409 . S
C925 C923 1.415 . S
C926 H916 0.930 . S
C926 C924 1.419 . S
C926 C927 1.362 . S
C927 H917 0.930 . S
C927 C920 1.409 . S
C927 C926 1.362 . S
H928 C934 0.930 . S
H929 C937 0.930 . S
H930 C938 0.930 . S
H931 C939 0.930 . S
H932 C942 0.930 . S
H933 C943 0.930 . S
C934 H928 0.930 . S
C934 C935 1.355 . S
C934 C936 1.415 . S
C935 C934 1.355 . S
C935 C937 1.419 . S
C936 C934 1.415 . S
C936 C941 1.425 . S
C936 C943 1.409 . S
C937 H929 0.930 . S
C937 C935 1.419 . S
C937 C938 1.362 . S
C938 H930 0.930 . S
C938 C937 1.362 . S
C938 C941 1.409 . S
C939 H931 0.930 . S
C939 C940 1.355 . S
C939 C941 1.415 . S
C940 C939 1.355 . S
C940 C942 1.419 . S
C941 C936 1.425 . S
C941 C938 1.409 . S
C941 C939 1.415 . S
C942 H932 0.930 . S
C942 C940 1.419 . S
C942 C943 1.362 . S
C943 H933 0.930 . S
C943 C936 1.409 . S
C943 C942 1.362 . S
H944 C950 0.930 . S
H945 C953 0.930 . S
H946 C954 0.930 . S
H947 C955 0.930 . S
H948 C958 0.930 . S
H949 C959 0.930 1_565 S
C950 H944 0.930 . S
C950 C951 1.355 . S
C950 C952 1.415 1_565 S
C951 C950 1.355 . S
C951 C953 1.419 1_565 S
C952 C950 1.415 1_545 S
C952 C957 1.425 . S
C952 C959 1.409 . S
C953 H945 0.930 . S
C953 C951 1.419 1_545 S
C953 C954 1.362 . S
C954 H946 0.930 . S
C954 C953 1.362 . S
C954 C957 1.409 . S
C955 H947 0.930 . S
C955 C956 1.355 . S
C955 C957 1.415 . S
C956 C955 1.355 . S
C956 C958 1.419 . S
C957 C952 1.425 . S
C957 C954 1.409 . S
C957 C955 1.415 . S
C958 H948 0.930 . S
C958 C956 1.419 . S
C958 C959 1.362 . S
C959 H949 0.930 1_545 S
C959 C952 1.409 . S
C959 C958 1.362 . S
H960 C966 0.930 . S
H961 C969 0.930 . S
H962 C970 0.930 . S
H963 C971 0.930 . S
H964 C974 0.930 . S
H965 C975 0.930 . S
C966 H960 0.930 . S
C966 C967 1.355 . S
C966 C968 1.415 . S
C967 C966 1.355 . S
C967 C969 1.419 . S
C968 C966 1.415 . S
C968 C973 1.425 . S
C968 C975 1.409 . S
C969 H961 0.930 . S
C969 C967 1.419 . S
C969 C970 1.362 . S
C970 H962 0.930 . S
C970 C969 1.362 . S
C970 C973 1.409 . S
C971 H963 0.930 . S
C971 C972 1.355 . S
C971 C973 1.415 . S
C972 C971 1.355 . S
C972 C974 1.419 . S
C973 C968 1.425 . S
C973 C970 1.409 . S
C973 C971 1.415 . S
C974 H964 0.930 . S
C974 C972 1.419 . S
C974 C975 1.362 . S
C975 H965 0.930 . S
C975 C968 1.409 . S
C975 C974 1.362 . S
H976 C982 0.930 . S
H977 C985 0.930 . S
H978 C986 0.930 1_565 S
H979 C987 0.930 . S
H980 C990 0.930 . S
H981 C991 0.930 . S
C982 H976 0.930 . S
C982 C983 1.355 . S
C982 C984 1.415 . S
C983 C982 1.355 . S
C983 C985 1.419 . S
C984 C982 1.415 . S
C984 C989 1.425 . S
C984 C991 1.409 . S
C985 H977 0.930 . S
C985 C983 1.419 . S
C985 C986 1.362 . S
C986 H978 0.930 1_545 S
C986 C985 1.362 . S
C986 C989 1.409 . S
C987 H979 0.930 . S
C987 C988 1.355 . S
C987 C989 1.415 1_565 S
C988 C987 1.355 . S
C988 C990 1.419 1_565 S
C989 C984 1.425 . S
C989 C986 1.409 . S
C989 C987 1.415 1_545 S
C990 H980 0.930 . S
C990 C988 1.419 1_545 S
C990 C991 1.362 . S
C991 H981 0.930 . S
C991 C984 1.409 . S
C991 C990 1.362 . S
H992 C998 0.930 . S
H993 C1001 0.930 . S
H994 C1002 0.930 . S
H995 C1003 0.930 . S
H996 C1006 0.930 1_556 S
H997 C1007 0.930 . S
C998 H992 0.930 . S
C998 C999 1.355 . S
C998 C1000 1.415 . S
C999 C998 1.355 . S
C999 C1001 1.419 . S
C1000 C998 1.415 . S
C1000 C1005 1.425 . S
C1000 C1007 1.409 . S
C1001 H993 0.930 . S
C1001 C999 1.419 . S
C1001 C1002 1.362 . S
C1002 H994 0.930 . S
C1002 C1001 1.362 . S
C1002 C1005 1.409 . S
C1003 H995 0.930 . S
C1003 C1004 1.355 . S
C1003 C1005 1.415 . S
C1004 C1003 1.355 . S
C1004 C1006 1.419 . S
C1005 C1000 1.425 . S
C1005 C1002 1.409 . S
C1005 C1003 1.415 . S
C1006 H996 0.930 1_554 S
C1006 C1004 1.419 . S
C1006 C1007 1.362 . S
C1007 H997 0.930 . S
C1007 C1000 1.409 . S
C1007 C1006 1.362 . S
H1008 C1014 0.930 . S
H1009 C1017 0.930 . S
H1010 C1018 0.930 . S
H1011 C1019 0.930 . S
H1012 C1022 0.930 . S
H1013 C1023 0.930 . S
C1014 H1008 0.930 . S
C1014 C1015 1.355 1_565 S
C1014 C1016 1.415 . S
C1015 C1014 1.355 1_545 S
C1015 C1017 1.419 . S
C1016 C1014 1.415 . S
C1016 C1021 1.425 . S
C1016 C1023 1.409 . S
C1017 H1009 0.930 . S
C1017 C1015 1.419 . S
C1017 C1018 1.362 . S
C1018 H1010 0.930 . S
C1018 C1017 1.362 . S
C1018 C1021 1.409 1_545 S
C1019 H1011 0.930 . S
C1019 C1020 1.355 . S
C1019 C1021 1.415 . S
C1020 C1019 1.355 . S
C1020 C1022 1.419 . S
C1021 C1016 1.425 . S
C1021 C1018 1.409 1_565 S
C1021 C1019 1.415 . S
C1022 H1012 0.930 . S
C1022 C1020 1.419 . S
C1022 C1023 1.362 . S
C1023 H1013 0.930 . S
C1023 C1016 1.409 . S
C1023 C1022 1.362 . S
H1024 C1030 0.930 . S
H1025 C1033 0.930 . S
H1026 C1034 0.930 . S
H1027 C1035 0.930 . S
H1028 C1038 0.930 . S
H1029 C1039 0.930 . S
C1030 H1024 0.930 . S
C1030 C1031 1.355 . S
C1030 C1032 1.415 . S
C1031 C1030 1.355 . S
C1031 C1033 1.419 . S
C1032 C1030 1.415 . S
C1032 C1037 1.425 . S
C1032 C1039 1.409 . S
C1033 H1025 0.930 . S
C1033 C1031 1.419 . S
C1033 C1034 1.362 . S
C1034 H1026 0.930 . S
C1034 C1033 1.362 . S
C1034 C1037 1.409 . S
C1035 H1027 0.930 . S
C1035 C1036 1.355 . S
C1035 C1037 1.415 . S
C1036 C1035 1.355 . S
C1036 C1038 1.419 . S
C1037 C1032 1.425 . S
C1037 C1034 1.409 . S
C1037 C1035 1.415 . S
C1038 H1028 0.930 . S
C1038 C1036 1.419 . S
C1038 C1039 1.362 . S
C1039 H1029 0.930 . S
C1039 C1032 1.409 . S
C1039 C1038 1.362 . S
H1040 C1046 0.930 . S
H1041 C1049 0.930 . S
H1042 C1050 0.930 . S
H1043 C1051 0.930 . S
H1044 C1054 0.930 . S
H1045 C1055 0.930 . S
C1046 H1040 0.930 . S
C1046 C1047 1.355 . S
C1046 C1048 1.415 . S
C1047 C1046 1.355 . S
C1047 C1049 1.419 . S
C1048 C1046 1.415 . S
C1048 C1053 1.425 . S
C1048 C1055 1.409 . S
C1049 H1041 0.930 . S
C1049 C1047 1.419 . S
C1049 C1050 1.362 . S
C1050 H1042 0.930 . S
C1050 C1049 1.362 . S
C1050 C1053 1.409 . S
C1051 H1043 0.930 . S
C1051 C1052 1.355 . S
C1051 C1053 1.415 . S
C1052 C1051 1.355 . S
C1052 C1054 1.419 . S
C1053 C1048 1.425 . S
C1053 C1050 1.409 . S
C1053 C1051 1.415 . S
C1054 H1044 0.930 . S
C1054 C1052 1.419 . S
C1054 C1055 1.362 . S
C1055 H1045 0.930 . S
C1055 C1048 1.409 . S
C1055 C1054 1.362 . S
H1056 C1062 0.930 . S
H1057 C1065 0.930 . S
H1058 C1066 0.930 1_455 S
H1059 C1067 0.930 1_455 S
H1060 C1070 0.930 . S
H1061 C1071 0.930 . S
C1062 H1056 0.930 . S
C1062 C1063 1.355 . S
C1062 C1064 1.415 . S
C1063 C1062 1.355 . S
C1063 C1065 1.419 . S
C1064 C1062 1.415 . S
C1064 C1069 1.425 . S
C1064 C1071 1.409 . S
C1065 H1057 0.930 . S
C1065 C1063 1.419 . S
C1065 C1066 1.362 . S
C1066 H1058 0.930 1_655 S
C1066 C1065 1.362 . S
C1066 C1069 1.409 . S
C1067 H1059 0.930 1_655 S
C1067 C1068 1.355 . S
C1067 C1069 1.415 . S
C1068 C1067 1.355 . S
C1068 C1070 1.419 . S
C1069 C1064 1.425 . S
C1069 C1066 1.409 . S
C1069 C1067 1.415 . S
C1070 H1060 0.930 . S
C1070 C1068 1.419 . S
C1070 C1071 1.362 . S
C1071 H1061 0.930 . S
C1071 C1064 1.409 . S
C1071 C1070 1.362 . S
H1072 C1078 0.930 . S
H1073 C1081 0.930 . S
H1074 C1082 0.930 . S
H1075 C1083 0.930 . S
H1076 C1086 0.930 . S
H1077 C1087 0.930 . S
C1078 H1072 0.930 . S
C1078 C1079 1.355 . S
C1078 C1080 1.415 . S
C1079 C1078 1.355 . S
C1079 C1081 1.419 . S
C1080 C1078 1.415 . S
C1080 C1085 1.425 . S
C1080 C1087 1.409 . S
C1081 H1073 0.930 . S
C1081 C1079 1.419 . S
C1081 C1082 1.362 . S
C1082 H1074 0.930 . S
C1082 C1081 1.362 . S
C1082 C1085 1.409 . S
C1083 H1075 0.930 . S
C1083 C1084 1.355 . S
C1083 C1085 1.415 . S
C1084 C1083 1.355 . S
C1084 C1086 1.419 . S
C1085 C1080 1.425 . S
C1085 C1082 1.409 . S
C1085 C1083 1.415 . S
C1086 H1076 0.930 . S
C1086 C1084 1.419 . S
C1086 C1087 1.362 . S
C1087 H1077 0.930 . S
C1087 C1080 1.409 . S
C1087 C1086 1.362 . S
H1088 C1094 0.930 . S
H1089 C1097 0.930 . S
H1090 C1098 0.930 . S
H1091 C1099 0.930 . S
H1092 C1102 0.930 . S
H1093 C1103 0.930 . S
C1094 H1088 0.930 . S
C1094 C1095 1.355 . S
C1094 C1096 1.415 . S
C1095 C1094 1.355 . S
C1095 C1097 1.419 . S
C1096 C1094 1.415 . S
C1096 C1101 1.425 . S
C1096 C1103 1.409 . S
C1097 H1089 0.930 . S
C1097 C1095 1.419 . S
C1097 C1098 1.362 . S
C1098 H1090 0.930 . S
C1098 C1097 1.362 . S
C1098 C1101 1.409 . S
C1099 H1091 0.930 . S
C1099 C1100 1.355 . S
C1099 C1101 1.415 . S
C1100 C1099 1.355 . S
C1100 C1102 1.419 . S
C1101 C1096 1.425 . S
C1101 C1098 1.409 . S
C1101 C1099 1.415 . S
C1102 H1092 0.930 . S
C1102 C1100 1.419 . S
C1102 C1103 1.362 . S
C1103 H1093 0.930 . S
C1103 C1096 1.409 . S
C1103 C1102 1.362 . S
H1104 C1110 0.930 . S
H1105 C1113 0.930 . S
H1106 C1114 0.930 . S
H1107 C1115 0.930 . S
H1108 C1118 0.930 1_554 S
H1109 C1119 0.930 . S
C1110 H1104 0.930 . S
C1110 C1111 1.355 . S
C1110 C1112 1.415 . S
C1111 C1110 1.355 . S
C1111 C1113 1.419 . S
C1112 C1110 1.415 . S
C1112 C1117 1.425 . S
C1112 C1119 1.409 . S
C1113 H1105 0.930 . S
C1113 C1111 1.419 . S
C1113 C1114 1.362 . S
C1114 H1106 0.930 . S
C1114 C1113 1.362 . S
C1114 C1117 1.409 . S
C1115 H1107 0.930 . S
C1115 C1116 1.355 . S
C1115 C1117 1.415 . S
C1116 C1115 1.355 . S
C1116 C1118 1.419 . S
C1117 C1112 1.425 . S
C1117 C1114 1.409 . S
C1117 C1115 1.415 . S
C1118 H1108 0.930 1_556 S
C1118 C1116 1.419 . S
C1118 C1119 1.362 . S
C1119 H1109 0.930 . S
C1119 C1112 1.409 . S
C1119 C1118 1.362 . S
H1120 C1126 0.930 . S
H1121 C1129 0.930 . S
H1122 C1130 0.930 . S
H1123 C1131 0.930 . S
H1124 C1134 0.930 . S
H1125 C1135 0.930 . S
C1126 H1120 0.930 . S
C1126 C1127 1.355 . S
C1126 C1128 1.415 . S
C1127 C1126 1.355 . S
C1127 C1129 1.419 . S
C1128 C1126 1.415 . S
C1128 C1133 1.425 . S
C1128 C1135 1.409 . S
C1129 H1121 0.930 . S
C1129 C1127 1.419 . S
C1129 C1130 1.362 . S
C1130 H1122 0.930 . S
C1130 C1129 1.362 . S
C1130 C1133 1.409 . S
C1131 H1123 0.930 . S
C1131 C1132 1.355 . S
C1131 C1133 1.415 . S
C1132 C1131 1.355 . S
C1132 C1134 1.419 . S
C1133 C1128 1.425 . S
C1133 C1130 1.409 . S
C1133 C1131 1.415 . S
C1134 H1124 0.930 . S
C1134 C1132 1.419 . S
C1134 C1135 1.362 . S
C1135 H1125 0.930 . S
C1135 C1128 1.409 . S
C1135 C1134 1.362 . S
H1136 C1142 0.930 . S
H1137 C1145 0.930 . S
H1138 C1146 0.930 . S
H1139 C1147 0.930 . S
H1140 C1150 0.930 . S
H1141 C1151 0.930 . S
C1142 H1136 0.930 . S
C1142 C1143 1.355 . S
C1142 C1144 1.415 . S
C1143 C1142 1.355 . S
C1143 C1145 1.419 . S
C1144 C1142 1.415 . S
C1144 C1149 1.425 . S
C1144 C1151 1.409 . S
C1145 H1137 0.930 . S
C1145 C1143 1.419 . S
C1145 C1146 1.362 . S
C1146 H1138 0.930 . S
C1146 C1145 1.362 . S
C1146 C1149 1.409 . S
C1147 H1139 0.930 . S
C1147 C1148 1.355 . S
C1147 C1149 1.415 . S
C1148 C1147 1.355 . S
C1148 C1150 1.419 . S
C1149 C1144 1.425 . S
C1149 C1146 1.409 . S
C1149 C1147 1.415 . S
C1150 H1140 0.930 . S
C1150 C1148 1.419 . S
C1150 C1151 1.362 . S
C1151 H1141 0.930 . S
C1151 C1144 1.409 . S
C1151 C1150 1.362 . S
H1152 C1158 0.930 1_655 S
H1153 C1161 0.930 . S
H1154 C1162 0.930 . S
H1155 C1163 0.930 . S
H1156 C1166 0.930 . S
H1157 C1167 0.930 1_655 S
C1158 H1152 0.930 1_455 S
C1158 C1159 1.355 . S
C1158 C1160 1.415 . S
C1159 C1158 1.355 . S
C1159 C1161 1.419 . S
C1160 C1158 1.415 . S
C1160 C1165 1.425 . S
C1160 C1167 1.409 . S
C1161 H1153 0.930 . S
C1161 C1159 1.419 . S
C1161 C1162 1.362 . S
C1162 H1154 0.930 . S
C1162 C1161 1.362 . S
C1162 C1165 1.409 . S
C1163 H1155 0.930 . S
C1163 C1164 1.355 . S
C1163 C1165 1.415 . S
C1164 C1163 1.355 . S
C1164 C1166 1.419 . S
C1165 C1160 1.425 . S
C1165 C1162 1.409 . S
C1165 C1163 1.415 . S
C1166 H1156 0.930 . S
C1166 C1164 1.419 . S
C1166 C1167 1.362 . S
C1167 H1157 0.930 1_455 S
C1167 C1160 1.409 . S
C1167 C1166 1.362 . S
H1168 C1174 0.930 . S
H1169 C1177 0.930 . S
H1170 C1178 0.930 . S
H1171 C1179 0.930 . S
H1172 C1182 0.930 . S
H1173 C1183 0.930 . S
C1174 H1168 0.930 . S
C1174 C1175 1.355 . S
C1174 C1176 1.415 . S
C1175 C1174 1.355 . S
C1175 C1177 1.419 . S
C1176 C1174 1.415 . S
C1176 C1181 1.425 . S
C1176 C1183 1.409 . S
C1177 H1169 0.930 . S
C1177 C1175 1.419 . S
C1177 C1178 1.362 . S
C1178 H1170 0.930 . S
C1178 C1177 1.362 . S
C1178 C1181 1.409 . S
C1179 H1171 0.930 . S
C1179 C1180 1.355 . S
C1179 C1181 1.415 . S
C1180 C1179 1.355 . S
C1180 C1182 1.419 . S
C1181 C1176 1.425 . S
C1181 C1178 1.409 . S
C1181 C1179 1.415 . S
C1182 H1172 0.930 . S
C1182 C1180 1.419 . S
C1182 C1183 1.362 . S
C1183 H1173 0.930 . S
C1183 C1176 1.409 . S
C1183 C1182 1.362 . S
H1184 C1190 0.930 . S
H1185 C1193 0.930 . S
H1186 C1194 0.930 . S
H1187 C1195 0.930 . S
H1188 C1198 0.930 . S
H1189 C1199 0.930 . S
C1190 H1184 0.930 . S
C1190 C1191 1.355 . S
C1190 C1192 1.415 . S
C1191 C1190 1.355 . S
C1191 C1193 1.419 . S
C1192 C1190 1.415 . S
C1192 C1197 1.425 . S
C1192 C1199 1.409 . S
C1193 H1185 0.930 . S
C1193 C1191 1.419 . S
C1193 C1194 1.362 . S
C1194 H1186 0.930 . S
C1194 C1193 1.362 . S
C1194 C1197 1.409 . S
C1195 H1187 0.930 . S
C1195 C1196 1.355 . S
C1195 C1197 1.415 . S
C1196 C1195 1.355 . S
C1196 C1198 1.419 . S
C1197 C1192 1.425 . S
C1197 C1194 1.409 . S
C1197 C1195 1.415 . S
C1198 H1188 0.930 . S
C1198 C1196 1.419 . S
C1198 C1199 1.362 . S
C1199 H1189 0.930 . S
C1199 C1192 1.409 . S
C1199 C1198 1.362 . S
H1200 C1206 0.930 . S
H1201 C1209 0.930 . S
H1202 C1210 0.930 . S
H1203 C1211 0.930 . S
H1204 C1214 0.930 . S
H1205 C1215 0.930 . S
C1206 H1200 0.930 . S
C1206 C1207 1.355 . S
C1206 C1208 1.415 . S
C1207 C1206 1.355 . S
C1207 C1209 1.419 . S
C1208 C1206 1.415 . S
C1208 C1213 1.425 . S
C1208 C1215 1.409 . S
C1209 H1201 0.930 . S
C1209 C1207 1.419 . S
C1209 C1210 1.362 . S
C1210 H1202 0.930 . S
C1210 C1209 1.362 . S
C1210 C1213 1.409 . S
C1211 H1203 0.930 . S
C1211 C1212 1.355 . S
C1211 C1213 1.415 . S
C1212 C1211 1.355 . S
C1212 C1214 1.419 . S
C1213 C1208 1.425 . S
C1213 C1210 1.409 . S
C1213 C1211 1.415 . S
C1214 H1204 0.930 . S
C1214 C1212 1.419 . S
C1214 C1215 1.362 . S
C1215 H1205 0.930 . S
C1215 C1208 1.409 . S
C1215 C1214 1.362 . S
H1216 C1222 0.930 1_455 S
H1217 C1225 0.930 . S
H1218 C1226 0.930 . S
H1219 C1227 0.930 . S
H1220 C1230 0.930 . S
H1221 C1231 0.930 1_455 S
C1222 H1216 0.930 1_655 S
C1222 C1223 1.355 . S
C1222 C1224 1.415 . S
C1223 C1222 1.355 . S
C1223 C1225 1.419 . S
C1224 C1222 1.415 . S
C1224 C1229 1.425 . S
C1224 C1231 1.409 . S
C1225 H1217 0.930 . S
C1225 C1223 1.419 . S
C1225 C1226 1.362 . S
C1226 H1218 0.930 . S
C1226 C1225 1.362 . S
C1226 C1229 1.409 . S
C1227 H1219 0.930 . S
C1227 C1228 1.355 . S
C1227 C1229 1.415 . S
C1228 C1227 1.355 . S
C1228 C1230 1.419 . S
C1229 C1224 1.425 . S
C1229 C1226 1.409 . S
C1229 C1227 1.415 . S
C1230 H1220 0.930 . S
C1230 C1228 1.419 . S
C1230 C1231 1.362 . S
C1231 H1221 0.930 1_655 S
C1231 C1224 1.409 . S
C1231 C1230 1.362 . S
H1232 C1238 0.930 . S
H1233 C1241 0.930 . S
H1234 C1242 0.930 . S
H1235 C1243 0.930 . S
H1236 C1246 0.930 . S
H1237 C1247 0.930 . S
C1238 H1232 0.930 . S
C1238 C1239 1.355 . S
C1238 C1240 1.415 . S
C1239 C1238 1.355 . S
C1239 C1241 1.419 . S
C1240 C1238 1.415 . S
C1240 C1245 1.425 . S
C1240 C1247 1.409 . S
C1241 H1233 0.930 . S
C1241 C1239 1.419 . S
C1241 C1242 1.362 . S
C1242 H1234 0.930 . S
C1242 C1241 1.362 . S
C1242 C1245 1.409 . S
C1243 H1235 0.930 . S
C1243 C1244 1.355 . S
C1243 C1245 1.415 . S
C1244 C1243 1.355 . S
C1244 C1246 1.419 . S
C1245 C1240 1.425 . S
C1245 C1242 1.409 . S
C1245 C1243 1.415 . S
C1246 H1236 0.930 . S
C1246 C1244 1.419 . S
C1246 C1247 1.362 . S
C1247 H1237 0.930 . S
C1247 C1240 1.409 . S
C1247 C1246 1.362 . S
H1248 C1254 0.930 . S
H1249 C1257 0.930 . S
H1250 C1258 0.930 . S
H1251 C1259 0.930 . S
H1252 C1262 0.930 . S
H1253 C1263 0.930 . S
C1254 H1248 0.930 . S
C1254 C1255 1.355 . S
C1254 C1256 1.415 . S
C1255 C1254 1.355 . S
C1255 C1257 1.419 . S
C1256 C1254 1.415 . S
C1256 C1261 1.425 . S
C1256 C1263 1.409 . S
C1257 H1249 0.930 . S
C1257 C1255 1.419 . S
C1257 C1258 1.362 . S
C1258 H1250 0.930 . S
C1258 C1257 1.362 . S
C1258 C1261 1.409 . S
C1259 H1251 0.930 . S
C1259 C1260 1.355 . S
C1259 C1261 1.415 . S
C1260 C1259 1.355 . S
C1260 C1262 1.419 . S
C1261 C1256 1.425 . S
C1261 C1258 1.409 . S
C1261 C1259 1.415 . S
C1262 H1252 0.930 . S
C1262 C1260 1.419 . S
C1262 C1263 1.362 . S
C1263 H1253 0.930 . S
C1263 C1256 1.409 . S
C1263 C1262 1.362 . S
H1264 C1270 0.930 . S
H1265 C1273 0.930 . S
H1266 C1274 0.930 . S
H1267 C1275 0.930 . S
H1268 C1278 0.930 . S
H1269 C1279 0.930 . S
C1270 H1264 0.930 . S
C1270 C1271 1.355 . S
C1270 C1272 1.415 . S
C1271 C1270 1.355 . S
C1271 C1273 1.419 . S
C1272 C1270 1.415 . S
C1272 C1277 1.425 . S
C1272 C1279 1.409 . S
C1273 H1265 0.930 . S
C1273 C1271 1.419 . S
C1273 C1274 1.362 . S
C1274 H1266 0.930 . S
C1274 C1273 1.362 . S
C1274 C1277 1.409 . S
C1275 H1267 0.930 . S
C1275 C1276 1.355 . S
C1275 C1277 1.415 . S
C1276 C1275 1.355 . S
C1276 C1278 1.419 . S
C1277 C1272 1.425 . S
C1277 C1274 1.409 . S
C1277 C1275 1.415 . S
C1278 H1268 0.930 . S
C1278 C1276 1.419 . S
C1278 C1279 1.362 . S
C1279 H1269 0.930 . S
C1279 C1272 1.409 . S
C1279 C1278 1.362 . S
H1280 C1286 0.930 . S
H1281 C1289 0.930 . S
H1282 C1290 0.930 . S
H1283 C1291 0.930 . S
H1284 C1294 0.930 . S
H1285 C1295 0.930 . S
C1286 H1280 0.930 . S
C1286 C1287 1.355 . S
C1286 C1288 1.415 . S
C1287 C1286 1.355 . S
C1287 C1289 1.419 . S
C1288 C1286 1.415 . S
C1288 C1293 1.425 . S
C1288 C1295 1.409 . S
C1289 H1281 0.930 . S
C1289 C1287 1.419 . S
C1289 C1290 1.362 . S
C1290 H1282 0.930 . S
C1290 C1289 1.362 . S
C1290 C1293 1.409 . S
C1291 H1283 0.930 . S
C1291 C1292 1.355 . S
C1291 C1293 1.415 . S
C1292 C1291 1.355 . S
C1292 C1294 1.419 . S
C1293 C1288 1.425 . S
C1293 C1290 1.409 . S
C1293 C1291 1.415 . S
C1294 H1284 0.930 . S
C1294 C1292 1.419 . S
C1294 C1295 1.362 . S
C1295 H1285 0.930 . S
C1295 C1288 1.409 . S
C1295 C1294 1.362 . S
H1296 C1302 0.930 . S
H1297 C1305 0.930 . S
H1298 C1306 0.930 . S
H1299 C1307 0.930 . S
H1300 C1310 0.930 . S
H1301 C1311 0.930 . S
C1302 H1296 0.930 . S
C1302 C1303 1.355 . S
C1302 C1304 1.415 . S
C1303 C1302 1.355 . S
C1303 C1305 1.419 . S
C1304 C1302 1.415 . S
C1304 C1309 1.425 . S
C1304 C1311 1.409 . S
C1305 H1297 0.930 . S
C1305 C1303 1.419 . S
C1305 C1306 1.362 . S
C1306 H1298 0.930 . S
C1306 C1305 1.362 . S
C1306 C1309 1.409 . S
C1307 H1299 0.930 . S
C1307 C1308 1.355 . S
C1307 C1309 1.415 . S
C1308 C1307 1.355 . S
C1308 C1310 1.419 . S
C1309 C1304 1.425 . S
C1309 C1306 1.409 . S
C1309 C1307 1.415 . S
C1310 H1300 0.930 . S
C1310 C1308 1.419 . S
C1310 C1311 1.362 . S
C1311 H1301 0.930 . S
C1311 C1304 1.409 . S
C1311 C1310 1.362 . S
H1312 C1318 0.930 . S
H1313 C1321 0.930 . S
H1314 C1322 0.930 . S
H1315 C1323 0.930 . S
H1316 C1326 0.930 . S
H1317 C1327 0.930 . S
C1318 H1312 0.930 . S
C1318 C1319 1.355 . S
C1318 C1320 1.415 . S
C1319 C1318 1.355 . S
C1319 C1321 1.419 . S
C1320 C1318 1.415 . S
C1320 C1325 1.425 . S
C1320 C1327 1.409 . S
C1321 H1313 0.930 . S
C1321 C1319 1.419 . S
C1321 C1322 1.362 . S
C1322 H1314 0.930 . S
C1322 C1321 1.362 . S
C1322 C1325 1.409 . S
C1323 H1315 0.930 . S
C1323 C1324 1.355 . S
C1323 C1325 1.415 . S
C1324 C1323 1.355 . S
C1324 C1326 1.419 . S
C1325 C1320 1.425 . S
C1325 C1322 1.409 . S
C1325 C1323 1.415 . S
C1326 H1316 0.930 . S
C1326 C1324 1.419 . S
C1326 C1327 1.362 . S
C1327 H1317 0.930 . S
C1327 C1320 1.409 . S
C1327 C1326 1.362 . S
H1328 C1334 0.930 . S
H1329 C1337 0.930 . S
H1330 C1338 0.930 . S
H1331 C1339 0.930 . S
H1332 C1342 0.930 . S
H1333 C1343 0.930 . S
C1334 H1328 0.930 . S
C1334 C1335 1.355 . S
C1334 C1336 1.415 1_455 S
C1335 C1334 1.355 . S
C1335 C1337 1.419 . S
C1336 C1334 1.415 1_655 S
C1336 C1341 1.425 1_654 S
C1336 C1343 1.409 . S
C1337 H1329 0.930 . S
C1337 C1335 1.419 . S
C1337 C1338 1.362 1_554 S
C1338 H1330 0.930 . S
C1338 C1337 1.362 1_556 S
C1338 C1341 1.409 . S
C1339 H1331 0.930 . S
C1339 C1340 1.355 . S
C1339 C1341 1.415 1_655 S
C1340 C1339 1.355 . S
C1340 C1342 1.419 . S
C1341 C1336 1.425 1_456 S
C1341 C1338 1.409 . S
C1341 C1339 1.415 1_455 S
C1342 H1332 0.930 . S
C1342 C1340 1.419 . S
C1342 C1343 1.362 1_556 S
C1343 H1333 0.930 . S
C1343 C1336 1.409 . S
C1343 C1342 1.362 1_554 S
H1344 C1350 0.930 . S
H1345 C1353 0.930 . S
H1346 C1354 0.930 . S
H1347 C1355 0.930 . S
H1348 C1358 0.930 . S
H1349 C1359 0.930 . S
C1350 H1344 0.930 . S
C1350 C1351 1.355 . S
C1350 C1352 1.415 . S
C1351 C1350 1.355 . S
C1351 C1353 1.419 . S
C1352 C1350 1.415 . S
C1352 C1357 1.425 . S
C1352 C1359 1.409 . S
C1353 H1345 0.930 . S
C1353 C1351 1.419 . S
C1353 C1354 1.362 . S
C1354 H1346 0.930 . S
C1354 C1353 1.362 . S
C1354 C1357 1.409 . S
C1355 H1347 0.930 . S
C1355 C1356 1.355 . S
C1355 C1357 1.415 . S
C1356 C1355 1.355 . S
C1356 C1358 1.419 . S
C1357 C1352 1.425 . S
C1357 C1354 1.409 . S
C1357 C1355 1.415 . S
C1358 H1348 0.930 . S
C1358 C1356 1.419 . S
C1358 C1359 1.362 . S
C1359 H1349 0.930 . S
C1359 C1352 1.409 . S
C1359 C1358 1.362 . S
H1360 C1366 0.930 . S
H1361 C1369 0.930 . S
H1362 C1370 0.930 . S
H1363 C1371 0.930 . S
H1364 C1374 0.930 . S
H1365 C1375 0.930 . S
C1366 H1360 0.930 . S
C1366 C1367 1.355 . S
C1366 C1368 1.415 . S
C1367 C1366 1.355 . S
C1367 C1369 1.419 . S
C1368 C1366 1.415 . S
C1368 C1373 1.425 . S
C1368 C1375 1.409 . S
C1369 H1361 0.930 . S
C1369 C1367 1.419 . S
C1369 C1370 1.362 . S
C1370 H1362 0.930 . S
C1370 C1369 1.362 . S
C1370 C1373 1.409 . S
C1371 H1363 0.930 . S
C1371 C1372 1.355 . S
C1371 C1373 1.415 . S
C1372 C1371 1.355 . S
C1372 C1374 1.419 . S
C1373 C1368 1.425 . S
C1373 C1370 1.409 . S
C1373 C1371 1.415 . S
C1374 H1364 0.930 . S
C1374 C1372 1.419 . S
C1374 C1375 1.362 . S
C1375 H1365 0.930 . S
C1375 C1368 1.409 . S
C1375 C1374 1.362 . S
H1376 C1382 0.930 . S
H1377 C1385 0.930 . S
H1378 C1386 0.930 . S
H1379 C1387 0.930 . S
H1380 C1390 0.930 . S
H1381 C1391 0.930 . S
C1382 H1376 0.930 . S
C1382 C1383 1.355 1_545 S
C1382 C1384 1.415 1_455 S
C1383 C1382 1.355 1_565 S
C1383 C1385 1.419 . S
C1384 C1382 1.415 1_655 S
C1384 C1389 1.425 1_646 S
C1384 C1391 1.409 . S
C1385 H1377 0.930 . S
C1385 C1383 1.419 . S
C1385 C1386 1.362 1_556 S
C1386 H1378 0.930 . S
C1386 C1385 1.362 1_554 S
C1386 C1389 1.409 . S
C1387 H1379 0.930 . S
C1387 C1388 1.355 1_565 S
C1387 C1389 1.415 1_655 S
C1388 C1387 1.355 1_545 S
C1388 C1390 1.419 . S
C1389 C1384 1.425 1_464 S
C1389 C1386 1.409 . S
C1389 C1387 1.415 1_455 S
C1390 H1380 0.930 . S
C1390 C1388 1.419 . S
C1390 C1391 1.362 1_554 S
C1391 H1381 0.930 . S
C1391 C1384 1.409 . S
C1391 C1390 1.362 1_556 S
H1392 C1398 0.930 . S
H1393 C1401 0.930 . S
H1394 C1402 0.930 . S
H1395 C1403 0.930 . S
H1396 C1406 0.930 . S
H1397 C1407 0.930 . S
C1398 H1392 0.930 . S
C1398 C1399 1.355 . S
C1398 C1400 1.415 . S
C1399 C1398 1.355 . S
C1399 C1401 1.419 1_565 S
C1400 C1398 1.415 . S
C1400 C1405 1.425 1_565 S
C1400 C1407 1.409 . S
C1401 H1393 0.930 . S
C1401 C1399 1.419 1_545 S
C1401 C1402 1.362 . S
C1402 H1394 0.930 . S
C1402 C1401 1.362 . S
C1402 C1405 1.409 . S
C1403 H1395 0.930 . S
C1403 C1404 1.355 . S
C1403 C1405 1.415 . S
C1404 C1403 1.355 . S
C1404 C1406 1.419 1_545 S
C1405 C1400 1.425 1_545 S
C1405 C1402 1.409 . S
C1405 C1403 1.415 . S
C1406 H1396 0.930 . S
C1406 C1404 1.419 1_565 S
C1406 C1407 1.362 . S
C1407 H1397 0.930 . S
C1407 C1400 1.409 . S
C1407 C1406 1.362 . S
C647 C19 3.246 . S
C652 C419 3.245 . S
C663 C59 3.277 . S
C668 C459 3.276 . S
C679 C99 3.277 . S
C684 C339 3.277 . S
C695 C139 3.245 . S
C700 C379 3.245 . S
C711 C169 3.247 . S
C716 C569 3.246 . S
C727 C209 3.248 . S
C732 C609 3.247 . S
C743 C249 3.272 . S
C748 C489 3.273 . S
C759 C289 3.243 . S
C764 C529 3.242 . S
C775 C378 3.697 . S
C780 C9 3.675 1_556 S
C791 C418 3.726 . S
C796 C49 3.652 . S
C807 C458 3.726 . S
C812 C89 3.644 . S
C823 C338 3.726 . S
C828 C129 3.644 . S
C839 C179 3.644 1_554 S
C844 C528 3.725 . S
C855 C568 3.725 . S
C860 C219 3.644 . S
C871 C608 3.701 . S
C876 C259 3.680 . S
C887 C488 3.702 . S
C892 C299 3.679 . S
C903 C58 3.719 . S
C908 C329 3.664 . S
C919 C369 3.679 . S
C924 C98 3.697 . S
C935 C409 3.644 1_556 S
C940 C138 3.724 . S
C951 C449 3.672 . S
C956 C18 3.698 . S
C967 C499 3.644 . S
C972 C208 3.726 . S
C983 C248 3.698 . S
C988 C539 3.672 . S
C999 C288 3.703 . S
C1004 C579 3.663 1_554 S
C1015 C619 3.645 . S
C1020 C168 3.721 . S
C1031 C15 0.374 . S
C1036 C618 0.238 . S
C1047 C55 0.417 . S
C1052 C178 0.235 . S
C1063 C538 0.282 . S
C1068 C95 0.544 . S
C1079 C258 0.373 . S
C1084 C135 0.519 . S
C1095 C165 0.520 . S
C1100 C448 0.373 . S
C1111 C205 0.537 . S
C1116 C8 0.277 . S
C1127 C368 0.258 . S
C1132 C245 0.504 . S
C1143 C88 0.246 . S
C1148 C285 0.352 . S
C1159 C335 0.573 . S
C1164 C298 0.311 . S
C1175 C375 0.330 . S
C1180 C498 0.295 . S
C1191 C218 0.364 . S
C1196 C415 0.464 . S
C1207 C578 0.274 . S
C1212 C455 0.324 . S
C1223 C485 0.522 . S
C1228 C128 0.268 . S
C1239 C525 0.546 . S
C1244 C328 0.284 . S
C1255 C565 0.489 . S
C1260 C48 0.251 . S
C1271 C408 0.288 . S
C1276 C605 0.326 . S
C1287 C5 1.815 . S
C1292 C495 1.815 . S
C1303 C45 1.792 . S
C1308 C215 1.792 . S
C1319 C85 1.864 . S
C1324 C575 1.864 . S
C1335 C295 1.865 . S
C1340 C125 1.865 . S
C1351 C175 1.856 . S
C1356 C325 1.856 . S
C1367 C405 1.843 . S
C1372 C255 1.843 . S
C1383 C365 1.847 1_565 S
C1388 C535 1.847 1_545 S
C1399 C615 1.785 1_565 S
C1404 C445 1.785 1_545 S
