# Generated by pormake.
# Topology uoh, (4)-cn, num edge types: 1
# Building blocks:
#     Node 0, Type 0, BuildingBlock: QUQFOY_clean_sbu_1, # of connection points: 4
#     Node 1, Type 0, BuildingBlock: QUQFOY_clean_sbu_1, # of connection points: 4
#     Node 2, Type 0, BuildingBlock: QUQFOY_clean_sbu_1, # of connection points: 4
#     Node 3, Type 0, BuildingBlock: QUQFOY_clean_sbu_1, # of connection points: 4
#     Node 4, Type 0, BuildingBlock: QUQFOY_clean_sbu_1, # of connection points: 4
#     Node 5, Type 0, BuildingBlock: QUQFOY_clean_sbu_1, # of connection points: 4
#     Node 6, Type 0, BuildingBlock: QUQFOY_clean_sbu_1, # of connection points: 4
#     Node 7, Type 0, BuildingBlock: QUQFOY_clean_sbu_1, # of connection points: 4
#     Node 8, Type 0, BuildingBlock: QUQFOY_clean_sbu_1, # of connection points: 4
#     Node 9, Type 0, BuildingBlock: QUQFOY_clean_sbu_1, # of connection points: 4
#     Node 10, Type 0, BuildingBlock: QUQFOY_clean_sbu_1, # of connection points: 4
#     Node 11, Type 0, BuildingBlock: QUQFOY_clean_sbu_1, # of connection points: 4
#     Node 12, Type 0, BuildingBlock: QUQFOY_clean_sbu_1, # of connection points: 4
#     Node 13, Type 0, BuildingBlock: QUQFOY_clean_sbu_1, # of connection points: 4
#     Node 14, Type 0, BuildingBlock: QUQFOY_clean_sbu_1, # of connection points: 4
#     Node 15, Type 0, BuildingBlock: QUQFOY_clean_sbu_1, # of connection points: 4
#     Node 16, Type 0, BuildingBlock: QUQFOY_clean_sbu_1, # of connection points: 4
#     Node 17, Type 0, BuildingBlock: QUQFOY_clean_sbu_1, # of connection points: 4
#     Node 18, Type 0, BuildingBlock: QUQFOY_clean_sbu_1, # of connection points: 4
#     Node 19, Type 0, BuildingBlock: QUQFOY_clean_sbu_1, # of connection points: 4
#     Node 20, Type 0, BuildingBlock: QUQFOY_clean_sbu_1, # of connection points: 4
#     Node 21, Type 0, BuildingBlock: QUQFOY_clean_sbu_1, # of connection points: 4
#     Node 22, Type 0, BuildingBlock: QUQFOY_clean_sbu_1, # of connection points: 4
#     Node 23, Type 0, BuildingBlock: QUQFOY_clean_sbu_1, # of connection points: 4
#     Node 24, Type 0, BuildingBlock: QUQFOY_clean_sbu_1, # of connection points: 4
#     Node 25, Type 0, BuildingBlock: QUQFOY_clean_sbu_1, # of connection points: 4
#     Node 26, Type 0, BuildingBlock: QUQFOY_clean_sbu_1, # of connection points: 4
#     Node 27, Type 0, BuildingBlock: QUQFOY_clean_sbu_1, # of connection points: 4
#     Node 28, Type 0, BuildingBlock: QUQFOY_clean_sbu_1, # of connection points: 4
#     Node 29, Type 0, BuildingBlock: QUQFOY_clean_sbu_1, # of connection points: 4
#     Node 30, Type 0, BuildingBlock: QUQFOY_clean_sbu_1, # of connection points: 4
#     Node 31, Type 0, BuildingBlock: QUQFOY_clean_sbu_1, # of connection points: 4
#     Node 32, Type 0, BuildingBlock: QUQFOY_clean_sbu_1, # of connection points: 4
#     Node 33, Type 0, BuildingBlock: QUQFOY_clean_sbu_1, # of connection points: 4
#     Node 34, Type 0, BuildingBlock: QUQFOY_clean_sbu_1, # of connection points: 4
#     Node 35, Type 0, BuildingBlock: QUQFOY_clean_sbu_1, # of connection points: 4
#     Edge 36, Type (0, 0), None
#     Edge 37, Type (0, 0), None
#     Edge 38, Type (0, 0), None
#     Edge 39, Type (0, 0), None
#     Edge 40, Type (0, 0), None
#     Edge 41, Type (0, 0), None
#     Edge 42, Type (0, 0), None
#     Edge 43, Type (0, 0), None
#     Edge 44, Type (0, 0), None
#     Edge 45, Type (0, 0), None
#     Edge 46, Type (0, 0), None
#     Edge 47, Type (0, 0), None
#     Edge 48, Type (0, 0), None
#     Edge 49, Type (0, 0), None
#     Edge 50, Type (0, 0), None
#     Edge 51, Type (0, 0), None
#     Edge 52, Type (0, 0), None
#     Edge 53, Type (0, 0), None
#     Edge 54, Type (0, 0), None
#     Edge 55, Type (0, 0), None
#     Edge 56, Type (0, 0), None
#     Edge 57, Type (0, 0), None
#     Edge 58, Type (0, 0), None
#     Edge 59, Type (0, 0), None
#     Edge 60, Type (0, 0), None
#     Edge 61, Type (0, 0), None
#     Edge 62, Type (0, 0), None
#     Edge 63, Type (0, 0), None
#     Edge 64, Type (0, 0), None
#     Edge 65, Type (0, 0), None
#     Edge 66, Type (0, 0), None
#     Edge 67, Type (0, 0), None
#     Edge 68, Type (0, 0), None
#     Edge 69, Type (0, 0), None
#     Edge 70, Type (0, 0), None
#     Edge 71, Type (0, 0), None
#     Edge 72, Type (0, 0), None
#     Edge 73, Type (0, 0), None
#     Edge 74, Type (0, 0), None
#     Edge 75, Type (0, 0), None
#     Edge 76, Type (0, 0), None
#     Edge 77, Type (0, 0), None
#     Edge 78, Type (0, 0), None
#     Edge 79, Type (0, 0), None
#     Edge 80, Type (0, 0), None
#     Edge 81, Type (0, 0), None
#     Edge 82, Type (0, 0), None
#     Edge 83, Type (0, 0), None
#     Edge 84, Type (0, 0), None
#     Edge 85, Type (0, 0), None
#     Edge 86, Type (0, 0), None
#     Edge 87, Type (0, 0), None
#     Edge 88, Type (0, 0), None
#     Edge 89, Type (0, 0), None
#     Edge 90, Type (0, 0), None
#     Edge 91, Type (0, 0), None
#     Edge 92, Type (0, 0), None
#     Edge 93, Type (0, 0), None
#     Edge 94, Type (0, 0), None
#     Edge 95, Type (0, 0), None
#     Edge 96, Type (0, 0), None
#     Edge 97, Type (0, 0), None
#     Edge 98, Type (0, 0), None
#     Edge 99, Type (0, 0), None
#     Edge 100, Type (0, 0), None
#     Edge 101, Type (0, 0), None
#     Edge 102, Type (0, 0), None
#     Edge 103, Type (0, 0), None
#     Edge 104, Type (0, 0), None
#     Edge 105, Type (0, 0), None
#     Edge 106, Type (0, 0), None
#     Edge 107, Type (0, 0), None
# Relax obj value: 0.086
# Max RMSD: 0.137
# Mean RMSD: 0.137
data_MOF--net-uoh--node1-QUQFOY_clean_sbu_1--edge1-none
_symmetry_space_group_name_H-M    P1
_symmetry_Int_Tables_number       1
_symmetry_cell_setting            triclinic
loop_
_symmetry_equiv_pos_as_xyz
'x, y, z'
_cell_length_a     42.828969
_cell_length_b     42.82821
_cell_length_c     12.458245
_cell_angle_alpha  89.990583
_cell_angle_beta   90.018055
_cell_angle_gamma 119.99654
loop_
_atom_site_label
_atom_site_type_symbol
_atom_site_fract_x
_atom_site_fract_y
_atom_site_fract_z
_atom_type_partial_charge
O0 O 0.27442 0.18763 1.02722 0.0
Cd1 Cd 0.29343 0.20665 0.18025 0.0
Cd2 Cd 0.27455 0.13614 0.20488 0.0
O3 O 0.24919 0.12895 0.0581 0.0
O4 O 0.29594 0.2548 0.2057 0.0
O5 O 0.25615 0.204 0.28388 0.0
C6 C 0.26873 0.23796 0.26924 0.0
C7 C 0.254 0.11781 0.37848 0.0
C8 C 0.25629 0.15511 0.99482 0.0
C9 C 0.35257 0.18739 0.20752 0.0
O10 O 0.32866 0.15481 0.19194 0.0
O11 O 0.34378 0.21172 0.21757 0.0
O12 O 0.25632 0.09579 0.31224 0.0
O13 O 0.25926 0.14821 0.34184 0.0
O14 O 0.87605 0.09943 1.02725 0.0
Cd15 Cd 0.85701 0.0994 0.18024 0.0
Cd16 Cd 0.92751 0.151 0.20498 0.0
O17 O 0.93473 0.13286 0.05824 0.0
O18 O 0.80886 0.05376 0.20558 0.0
O19 O 0.85964 0.06475 0.2839 0.0
C20 C 0.82569 0.04339 0.26918 0.0
C21 C 0.94585 0.14879 0.37859 0.0
C22 C 0.90858 0.11382 0.99491 0.0
C23 C 0.87626 0.17778 0.20757 0.0
O24 O 0.90884 0.18644 0.19201 0.0
O25 O 0.85193 0.14466 0.21758 0.0
O26 O 0.96787 0.17313 0.31232 0.0
O27 O 0.91546 0.12364 0.34196 0.0
O28 O 0.9642 0.7893 1.02728 0.0
Cd29 Cd 0.96423 0.77031 0.18031 0.0
Cd30 Cd 0.91262 0.78919 0.20491 0.0
O31 O 0.93076 0.81455 0.05814 0.0
O32 O 1.00987 0.7678 0.20573 0.0
O33 O 0.99887 0.80759 0.28394 0.0
C34 C 1.02024 0.79501 0.26927 0.0
C35 C 0.91482 0.80973 0.37852 0.0
C36 C 0.9498 0.80743 0.99487 0.0
C37 C 0.88586 0.71117 0.20756 0.0
O38 O 0.87719 0.73508 0.19195 0.0
O39 O 0.91898 0.71996 0.21764 0.0
O40 O 0.89047 0.80741 0.31221 0.0
O41 O 0.93997 0.80449 0.34192 0.0
O42 O 0.20044 0.2616 0.56104 0.0
Cd43 Cd 0.21947 0.28061 0.40802 0.0
Cd44 Cd 0.14896 0.2617 0.38331 0.0
O45 O 0.14176 0.23634 0.53008 0.0
O46 O 0.26762 0.28312 0.38262 0.0
O47 O 0.21683 0.24332 0.3044 0.0
C48 C 0.25078 0.25591 0.31907 0.0
C49 C 0.13062 0.24115 0.20969 0.0
C50 C 0.16792 0.24347 0.5934 0.0
C51 C 0.20019 0.33972 0.3807 0.0
O52 O 0.16761 0.3158 0.39626 0.0
O53 O 0.22453 0.33095 0.37067 0.0
O54 O 0.1086 0.24347 0.27595 0.0
O55 O 0.16102 0.24641 0.24634 0.0
O56 O 0.80202 0.95145 0.56101 0.0
Cd57 Cd 0.78302 0.95148 0.40797 0.0
Cd58 Cd 0.80191 0.89987 0.38334 0.0
O59 O 0.82727 0.91801 0.53013 0.0
O60 O 0.78052 0.99712 0.38252 0.0
O61 O 0.8203 0.98611 0.30436 0.0
C62 C 0.80773 1.00749 0.31901 0.0
C63 C 0.82245 0.90206 0.20975 0.0
C64 C 0.82015 0.93705 0.59341 0.0
C65 C 0.72389 0.8731 0.38069 0.0
O66 O 0.74781 0.86444 0.39628 0.0
O67 O 0.73267 0.90622 0.37062 0.0
O68 O 0.82013 0.87772 0.27605 0.0
O69 O 0.81721 0.92721 0.24634 0.0
O70 O 0.1122 0.86331 0.56103 0.0
Cd71 Cd 0.11217 0.84428 0.40803 0.0
Cd72 Cd 0.16378 0.91478 0.38337 0.0
O73 O 0.14564 0.922 0.53012 0.0
O74 O 0.06653 0.79614 0.38266 0.0
O75 O 0.07752 0.84692 0.30438 0.0
C76 C 0.05615 0.81297 0.3191 0.0
C77 C 0.16157 0.93312 0.20975 0.0
C78 C 0.12659 0.89584 0.59341 0.0
C79 C 0.19054 0.86352 0.38077 0.0
O80 O 0.19921 0.8961 0.39637 0.0
O81 O 0.15742 0.83919 0.37071 0.0
O82 O 0.18591 0.95513 0.27603 0.0
O83 O 0.13642 0.90272 0.24637 0.0
O84 O 0.80206 0.86327 0.06106 0.0
Cd85 Cd 0.78304 0.84423 0.90805 0.0
Cd86 Cd 0.80191 0.91474 0.88335 0.0
O87 O 0.82728 0.92196 1.03012 0.0
O88 O 0.78055 0.79609 0.88262 0.0
O89 O 0.82031 0.84688 0.80437 0.0
C90 C 0.80774 0.81293 0.81904 0.0
C91 C 0.82243 0.93307 0.70977 0.0
C92 C 0.82018 0.8958 0.0934 0.0
C93 C 0.72389 0.86346 0.88076 0.0
O94 O 0.7478 0.89604 0.8963 0.0
O95 O 0.73268 0.83913 0.87073 0.0
O96 O 0.8201 0.95509 0.77601 0.0
O97 O 0.8172 0.90268 0.74638 0.0
O98 O 0.20035 0.95149 0.06108 0.0
Cd99 Cd 0.21939 0.9515 0.90809 0.0
Cd100 Cd 0.14888 0.89989 0.88338 0.0
O101 O 0.14166 0.91804 1.03012 0.0
O102 O 0.26754 0.99713 0.88273 0.0
O103 O 0.21676 0.98614 0.80441 0.0
C104 C 0.25071 1.00751 0.81912 0.0
C105 C 0.13056 0.9021 0.70976 0.0
C106 C 0.16783 0.9371 0.0934 0.0
C107 C 0.20013 0.87312 0.88083 0.0
O108 O 0.16755 0.86445 0.8964 0.0
O109 O 0.22447 0.90624 0.8708 0.0
O110 O 0.10853 0.87775 0.77599 0.0
O111 O 0.16096 0.92725 0.74641 0.0
O112 O 0.11223 0.26155 0.06098 0.0
Cd113 Cd 0.1122 0.28057 0.90799 0.0
Cd114 Cd 0.16384 0.2617 0.88334 0.0
O115 O 0.1457 0.23633 1.03009 0.0
O116 O 0.06656 0.28307 0.88262 0.0
O117 O 0.07758 0.2433 0.8043 0.0
C118 C 0.0562 0.25587 0.81902 0.0
C119 C 0.16166 0.24118 0.70974 0.0
C120 C 0.12663 0.24342 0.09334 0.0
C121 C 0.19056 0.33972 0.88077 0.0
O122 O 0.19924 0.31581 0.89634 0.0
O123 O 0.15744 0.33093 0.8707 0.0
O124 O 0.186 0.24352 0.77603 0.0
O125 O 0.13648 0.2464 0.74633 0.0
O126 O 0.87603 0.78932 0.52719 0.0
Cd127 Cd 0.857 0.7703 0.68019 0.0
Cd128 Cd 0.92752 0.78919 0.7049 0.0
O129 O 0.93472 0.81456 0.55815 0.0
O130 O 0.80885 0.76779 0.70559 0.0
O131 O 0.85964 0.80757 0.78385 0.0
C132 C 0.82569 0.79499 0.76917 0.0
C133 C 0.94583 0.80972 0.87852 0.0
C134 C 0.90856 0.80746 0.49486 0.0
C135 C 0.87626 0.71117 0.70747 0.0
O136 O 0.90884 0.73508 0.69192 0.0
O137 O 0.85192 0.71995 0.7175 0.0
O138 O 0.96786 0.8074 0.8123 0.0
O139 O 0.91544 0.80448 0.84186 0.0
O140 O 0.27439 0.09943 0.52725 0.0
Cd141 Cd 0.29339 0.09941 0.68029 0.0
Cd142 Cd 0.27451 0.15105 0.70486 0.0
O143 O 0.24914 0.13288 0.55808 0.0
O144 O 0.29589 0.05377 0.70577 0.0
O145 O 0.2561 0.06478 0.7839 0.0
C146 C 0.26868 0.04341 0.76928 0.0
C147 C 0.254 0.14885 0.87846 0.0
C148 C 0.25626 0.11382 0.49484 0.0
C149 C 0.35252 0.17779 0.70751 0.0
O150 O 0.32861 0.18646 0.69188 0.0
O151 O 0.34374 0.14467 0.71761 0.0
O152 O 0.25631 0.1732 0.81221 0.0
O153 O 0.25924 0.12369 0.84184 0.0
O154 O 0.96424 0.18758 0.52728 0.0
Cd155 Cd 0.96428 0.20662 0.68027 0.0
Cd156 Cd 0.91266 0.13612 0.70495 0.0
O157 O 0.9308 0.12889 0.55822 0.0
O158 O 1.00992 0.25476 0.70561 0.0
O159 O 0.99892 0.20397 0.78392 0.0
C160 C 1.02029 0.23792 0.76919 0.0
C161 C 0.91484 0.11779 0.87857 0.0
C162 C 0.94985 0.15505 0.49494 0.0
C163 C 0.88592 0.18739 0.70754 0.0
O164 O 0.87725 0.15481 0.69194 0.0
O165 O 0.91903 0.21173 0.7176 0.0
O166 O 0.8905 0.09577 0.8123 0.0
O167 O 0.94001 0.14818 0.84196 0.0
O168 O 0.941 0.52095 0.36056 0.0
Cd169 Cd 0.96002 0.53998 0.51359 0.0
Cd170 Cd 0.94113 0.46947 0.53826 0.0
O171 O 0.91577 0.46227 0.39147 0.0
O172 O 0.96252 0.58812 0.53903 0.0
O173 O 0.92274 0.53733 0.61723 0.0
C174 C 0.93533 0.57129 0.60258 0.0
C175 C 0.92058 0.45113 0.71186 0.0
C176 C 0.92288 0.48843 0.32817 0.0
C177 C 1.01915 0.52072 0.54088 0.0
O178 O 0.99523 0.48814 0.52533 0.0
O179 O 1.01037 0.54506 0.5509 0.0
O180 O 0.92291 0.42911 0.6456 0.0
O181 O 0.92583 0.48153 0.67523 0.0
O182 O 0.5427 0.43278 0.36057 0.0
Cd183 Cd 0.52367 0.43274 0.51357 0.0
Cd184 Cd 0.59417 0.48435 0.53829 0.0
O185 O 0.60138 0.46621 0.39154 0.0
O186 O 0.47553 0.3871 0.53895 0.0
O187 O 0.52633 0.3981 0.61721 0.0
C188 C 0.49238 0.37673 0.60252 0.0
C189 C 0.61251 0.48215 0.71192 0.0
C190 C 0.57523 0.44717 0.32822 0.0
C191 C 0.5429 0.51111 0.54089 0.0
O192 O 0.57548 0.51978 0.52531 0.0
O193 O 0.51857 0.47799 0.55092 0.0
O194 O 0.63452 0.5065 0.64565 0.0
O195 O 0.58212 0.457 0.67528 0.0
O196 O 0.63099 0.12263 0.36056 0.0
Cd197 Cd 0.63098 0.10363 0.5136 0.0
Cd198 Cd 0.5794 0.12258 0.53815 0.0
O199 O 0.59759 0.14793 0.39138 0.0
O200 O 0.6766 0.10108 0.53914 0.0
O201 O 0.66563 0.14092 0.61717 0.0
C202 C 0.68698 0.12831 0.60261 0.0
C203 C 0.58166 0.14313 0.71178 0.0
C204 C 0.61663 0.14079 0.32813 0.0
C205 C 0.55258 0.04455 0.54085 0.0
O206 O 0.54393 0.06848 0.52519 0.0
O207 O 0.58569 0.05331 0.55095 0.0
O208 O 0.55732 0.14084 0.64553 0.0
O209 O 0.60677 0.13783 0.67513 0.0
O210 O 0.86704 0.59493 0.89441 0.0
Cd211 Cd 0.88607 0.61394 0.74139 0.0
Cd212 Cd 0.81557 0.59505 0.71668 0.0
O213 O 0.80836 0.5697 0.86346 0.0
O214 O 0.93422 0.61644 0.716 0.0
O215 O 0.88342 0.57665 0.63776 0.0
C216 C 0.91738 0.58923 0.65244 0.0
C217 C 0.79723 0.5745 0.54307 0.0
C218 C 0.83452 0.57681 0.92678 0.0
C219 C 0.86682 0.67307 0.71406 0.0
O220 O 0.83424 0.64916 0.72962 0.0
O221 O 0.89116 0.66429 0.70405 0.0
O222 O 0.77522 0.57683 0.60932 0.0
O223 O 0.82763 0.57975 0.57971 0.0
O224 O 0.46877 0.28481 0.89437 0.0
Cd225 Cd 0.44975 0.28483 0.74135 0.0
Cd226 Cd 0.46865 0.23322 0.71671 0.0
O227 O 0.49401 0.25137 0.86348 0.0
O228 O 0.44724 0.33047 0.71592 0.0
O229 O 0.48702 0.31946 0.63769 0.0
C230 C 0.47443 0.34083 0.65236 0.0
C231 C 0.4892 0.23542 0.54312 0.0
C232 C 0.4869 0.27042 0.92677 0.0
C233 C 0.39063 0.20646 0.71408 0.0
O234 O 0.41454 0.19779 0.72964 0.0
O235 O 0.3994 0.23957 0.70403 0.0
O236 O 0.48687 0.21108 0.60942 0.0
O237 O 0.48395 0.26057 0.57971 0.0
O238 O 0.7789 0.19661 0.89442 0.0
Cd239 Cd 0.77888 0.17758 0.74143 0.0
Cd240 Cd 0.83048 0.24809 0.71674 0.0
O241 O 0.81233 0.2553 0.86348 0.0
O242 O 0.73326 0.12943 0.71603 0.0
O243 O 0.74425 0.18021 0.63776 0.0
C244 C 0.72289 0.14626 0.65245 0.0
C245 C 0.82827 0.26643 0.54312 0.0
C246 C 0.79329 0.22914 0.92678 0.0
C247 C 0.85725 0.19683 0.71413 0.0
O248 O 0.86592 0.22942 0.72971 0.0
O249 O 0.82414 0.1725 0.70411 0.0
O250 O 0.85261 0.28844 0.60941 0.0
O251 O 0.80312 0.23603 0.57973 0.0
O252 O 0.46883 0.19664 0.39441 0.0
Cd253 Cd 0.44984 0.17762 0.24136 0.0
Cd254 Cd 0.46869 0.24812 0.21673 0.0
O255 O 0.49406 0.25533 0.3635 0.0
O256 O 0.44738 0.1295 0.21588 0.0
O257 O 0.48715 0.18032 0.13778 0.0
C258 C 0.47459 0.14636 0.15239 0.0
C259 C 0.48919 0.26645 1.04312 0.0
C260 C 0.48695 0.22917 0.42677 0.0
C261 C 0.39068 0.19684 0.2141 0.0
O262 O 0.41458 0.22942 0.2297 0.0
O263 O 0.39947 0.17251 0.20401 0.0
O264 O 0.48687 0.28847 0.10937 0.0
O265 O 0.48397 0.23606 0.07974 0.0
O266 O 0.86705 0.2848 0.39444 0.0
Cd267 Cd 0.88607 0.28483 0.24144 0.0
Cd268 Cd 0.81556 0.2332 0.21676 0.0
O269 O 0.80836 0.25136 0.36349 0.0
O270 O 0.93422 0.33047 0.21603 0.0
O271 O 0.88342 0.31947 0.13779 0.0
C272 C 0.91737 0.34083 0.15247 0.0
C273 C 0.79725 0.2354 1.04313 0.0
C274 C 0.83452 0.27042 0.42677 0.0
C275 C 0.86683 0.20645 0.21417 0.0
O276 O 0.83425 0.19778 0.22977 0.0
O277 O 0.89116 0.23956 0.20411 0.0
O278 O 0.77522 0.21106 0.10936 0.0
O279 O 0.82764 0.26056 0.07978 0.0
O280 O 0.77885 0.59492 0.39435 0.0
Cd281 Cd 0.77883 0.61394 0.24135 0.0
Cd282 Cd 0.83046 0.59505 0.21672 0.0
O283 O 0.8123 0.56968 0.36346 0.0
O284 O 0.73319 0.61644 0.21595 0.0
O285 O 0.7442 0.57667 0.13768 0.0
C286 C 0.72283 0.58924 0.15237 0.0
C287 C 0.82826 0.57453 1.04312 0.0
C288 C 0.79325 0.57678 0.42671 0.0
C289 C 0.8572 0.67307 0.21413 0.0
O290 O 0.86588 0.64916 0.22972 0.0
O291 O 0.82409 0.66429 0.20406 0.0
O292 O 0.85261 0.57685 0.1094 0.0
O293 O 0.8031 0.57976 0.07971 0.0
O294 O 0.54292 0.12277 0.86056 0.0
Cd295 Cd 0.52391 0.10378 1.0136 0.0
Cd296 Cd 0.59442 0.1226 1.03813 0.0
O297 O 0.60161 0.14796 0.89137 0.0
O298 O 0.47575 0.10124 1.03896 0.0
O299 O 0.52653 0.14105 0.11724 0.0
C300 C 0.49257 0.12844 0.10254 0.0
C301 C 0.61269 0.1431 0.21177 0.0
C302 C 0.57544 0.14088 0.82815 0.0
C303 C 0.54312 0.0446 1.04083 0.0
O304 O 0.5757 0.06848 1.02517 0.0
O305 O 0.51881 0.05342 0.05093 0.0
O306 O 0.63474 0.14079 0.1456 0.0
O307 O 0.58231 0.13787 0.17505 0.0
O308 O 0.94098 0.43275 0.8606 0.0
Cd309 Cd 0.96001 0.43274 1.01362 0.0
Cd310 Cd 0.94112 0.48437 1.03823 0.0
O311 O 0.91575 0.46621 0.89147 0.0
O312 O 0.96252 0.3871 1.03906 0.0
O313 O 0.92274 0.39811 0.11729 0.0
C314 C 0.93532 0.37674 0.10262 0.0
C315 C 0.9206 0.48217 0.21182 0.0
C316 C 0.92285 0.44714 0.82822 0.0
C317 C 1.01914 0.51112 1.04083 0.0
O318 O 0.99523 0.51979 1.02526 0.0
O319 O 1.01036 0.478 0.0509 0.0
O320 O 0.92292 0.50651 0.14556 0.0
O321 O 0.92583 0.45701 0.17522 0.0
O322 O 0.63088 0.52094 0.8606 0.0
Cd323 Cd 0.63091 0.53998 1.01359 0.0
Cd324 Cd 0.57929 0.46947 1.03826 0.0
O325 O 0.59744 0.46225 0.89154 0.0
O326 O 0.67655 0.58813 1.03896 0.0
O327 O 0.66555 0.53734 0.11725 0.0
C328 C 0.68692 0.57129 0.10254 0.0
C329 C 0.58149 0.45115 0.21188 0.0
C330 C 0.61649 0.48842 0.82826 0.0
C331 C 0.55254 0.52074 1.04083 0.0
O332 O 0.54387 0.48816 1.02524 0.0
O333 O 0.58565 0.54507 0.0509 0.0
O334 O 0.55715 0.42913 0.14561 0.0
O335 O 0.60665 0.48154 0.17527 0.0
O336 O 0.60763 0.85423 0.69386 0.0
Cd337 Cd 0.62664 0.87325 0.84691 0.0
Cd338 Cd 0.60777 0.80275 0.87151 0.0
O339 O 0.58241 0.79555 0.72472 0.0
O340 O 0.62916 0.9214 0.87235 0.0
O341 O 0.58937 0.87062 0.95057 0.0
C342 C 0.60197 0.90457 0.93593 0.0
C343 C 0.58723 0.78442 0.04512 0.0
C344 C 0.58952 0.82171 0.66145 0.0
C345 C 0.68578 0.85401 0.87417 0.0
O346 O 0.66188 0.82143 0.85859 0.0
O347 O 0.67699 0.87834 0.88422 0.0
O348 O 0.58955 0.7624 0.97887 0.0
O349 O 0.59248 0.81481 1.00847 0.0
O350 O 0.20937 0.76612 0.69395 0.0
Cd351 Cd 0.19034 0.76608 0.84694 0.0
Cd352 Cd 0.26083 0.81769 0.87167 0.0
O353 O 0.26806 0.79956 0.72492 0.0
O354 O 0.1422 0.72044 0.87228 0.0
O355 O 0.19298 0.73144 0.95059 0.0
C356 C 0.15903 0.71007 0.93587 0.0
C357 C 0.27918 0.81549 0.0453 0.0
C358 C 0.2419 0.78052 0.6616 0.0
C359 C 0.20957 0.84445 0.87425 0.0
O360 O 0.24215 0.85312 0.85869 0.0
O361 O 0.18524 0.81134 0.88428 0.0
O362 O 0.30119 0.83983 0.97903 0.0
O363 O 0.24878 0.79034 1.00866 0.0
O364 O 0.29754 0.45597 0.69393 0.0
Cd365 Cd 0.29757 0.43697 0.84695 0.0
Cd366 Cd 0.24595 0.45584 0.87157 0.0
O367 O 0.26409 0.4812 0.7248 0.0
O368 O 0.34322 0.43447 0.87235 0.0
O369 O 0.33221 0.47425 0.9506 0.0
C370 C 0.35358 0.46167 0.93592 0.0
C371 C 0.24814 0.47638 0.04517 0.0
C372 C 0.28314 0.47409 0.66152 0.0
C373 C 0.21922 0.37782 0.8742 0.0
O374 O 0.21053 0.40173 0.85861 0.0
O375 O 0.25233 0.38661 0.88426 0.0
O376 O 0.22379 0.47404 0.97887 0.0
O377 O 0.2733 0.47115 1.00858 0.0
O378 O 0.53374 0.92829 0.22782 0.0
Cd379 Cd 0.55279 0.94728 0.07481 0.0
Cd380 Cd 0.48232 0.92848 0.05006 0.0
O381 O 0.47506 0.90311 0.19683 0.0
O382 O 0.6009 0.94972 0.04943 0.0
O383 O 0.5501 0.90999 0.97114 0.0
C384 C 0.58404 0.92254 0.98583 0.0
C385 C 0.46393 0.90794 0.87647 0.0
C386 C 0.50121 0.9102 0.26017 0.0
C387 C 0.53364 1.00648 0.04745 0.0
O388 O 0.50105 0.9826 0.063 0.0
O389 O 0.55795 0.99767 1.03746 0.0
O390 O 0.44195 0.91031 0.94275 0.0
O391 O 0.49432 0.91314 0.91308 0.0
O392 O 0.13539 0.61813 0.22767 0.0
Cd393 Cd 0.11638 0.61815 0.07464 0.0
Cd394 Cd 0.13527 0.56654 0.05 0.0
O395 O 0.16063 0.58468 0.19678 0.0
O396 O 0.11388 0.6638 0.04924 0.0
O397 O 0.15365 0.65278 0.971 0.0
C398 C 0.14108 0.67416 0.98569 0.0
C399 C 0.15581 0.56873 0.87641 0.0
C400 C 0.15351 0.60372 0.26007 0.0
C401 C 0.05724 0.53978 0.04738 0.0
O402 O 0.08116 0.53111 0.06294 0.0
O403 O 0.06602 0.5729 1.03733 0.0
O404 O 0.15347 0.54439 0.94271 0.0
O405 O 0.15057 0.59388 0.913 0.0
O406 O 0.44553 0.52996 0.22769 0.0
Cd407 Cd 0.4455 0.51094 0.07469 0.0
Cd408 Cd 0.4971 0.58144 0.05003 0.0
O409 O 0.47896 0.58865 0.19678 0.0
O410 O 0.39986 0.46279 0.0493 0.0
O411 O 0.41085 0.51358 0.97105 0.0
C412 C 0.38949 0.47963 0.98575 0.0
C413 C 0.49489 0.59977 0.87641 0.0
C414 C 0.45992 0.56249 0.26007 0.0
C415 C 0.52387 0.53018 0.04742 0.0
O416 O 0.53254 0.56276 0.06302 0.0
O417 O 0.49075 0.50585 1.03735 0.0
O418 O 0.51923 0.62179 0.94269 0.0
O419 O 0.46975 0.56937 0.91303 0.0
O420 O 0.13541 0.52994 0.72771 0.0
Cd421 Cd 0.11638 0.5109 0.5747 0.0
Cd422 Cd 0.13527 0.58142 0.55001 0.0
O423 O 0.16064 0.58863 0.69678 0.0
O424 O 0.11388 0.46275 0.54927 0.0
O425 O 0.15365 0.51354 0.47102 0.0
C426 C 0.14107 0.47959 0.48569 0.0
C427 C 0.1558 0.59975 0.37642 0.0
C428 C 0.15354 0.56247 0.76006 0.0
C429 C 0.05725 0.53016 0.54744 0.0
O430 O 0.08117 0.56274 0.56298 0.0
O431 O 0.06603 0.50582 0.53741 0.0
O432 O 0.15348 0.62177 0.44267 0.0
O433 O 0.15056 0.56935 0.41304 0.0
O434 O 0.53368 0.61814 0.72774 0.0
Cd435 Cd 0.55271 0.61815 0.57475 0.0
Cd436 Cd 0.4822 0.56653 0.55005 0.0
O437 O 0.47499 0.58469 0.69678 0.0
O438 O 0.60086 0.66379 0.54936 0.0
O439 O 0.55007 0.65279 0.47107 0.0
C440 C 0.58402 0.67415 0.48576 0.0
C441 C 0.46388 0.56874 0.37642 0.0
C442 C 0.50115 0.60375 0.76006 0.0
C443 C 0.53346 0.53977 0.54748 0.0
O444 O 0.50088 0.5311 0.56305 0.0
O445 O 0.55779 0.57289 0.53744 0.0
O446 O 0.44185 0.5444 0.44265 0.0
O447 O 0.49428 0.5939 0.41307 0.0
O448 O 0.44556 0.92836 0.72776 0.0
Cd449 Cd 0.44552 0.94735 0.57472 0.0
Cd450 Cd 0.49712 0.92843 0.5501 0.0
O451 O 0.47896 0.90307 0.69685 0.0
O452 O 0.39987 0.94984 0.54925 0.0
O453 O 0.41088 0.91004 0.47113 0.0
C454 C 0.3895 0.92262 0.48576 0.0
C455 C 0.49494 0.90791 0.37651 0.0
C456 C 0.45993 0.9102 0.76012 0.0
C457 C 0.5239 1.00645 0.54745 0.0
O458 O 0.53255 0.98253 0.56311 0.0
O459 O 0.49079 0.99768 0.53734 0.0
O460 O 0.51927 0.91022 0.44281 0.0
O461 O 0.46978 0.91315 0.41306 0.0
O462 O 0.20936 0.45596 0.19385 0.0
Cd463 Cd 0.19033 0.43694 0.34685 0.0
Cd464 Cd 0.26085 0.45585 0.37155 0.0
O465 O 0.26805 0.48122 0.22481 0.0
O466 O 0.14218 0.43443 0.37228 0.0
O467 O 0.19297 0.47422 0.4505 0.0
C468 C 0.15902 0.46164 0.43583 0.0
C469 C 0.27916 0.47637 0.54517 0.0
C470 C 0.24188 0.4741 0.16152 0.0
C471 C 0.20961 0.37783 0.37412 0.0
O472 O 0.24219 0.40174 0.35856 0.0
O473 O 0.18527 0.3866 0.38416 0.0
O474 O 0.3012 0.47407 0.47895 0.0
O475 O 0.24876 0.47112 0.50852 0.0
O476 O 0.60765 0.76605 0.19386 0.0
Cd477 Cd 0.62667 0.76605 0.34689 0.0
Cd478 Cd 0.60777 0.81767 0.37149 0.0
O479 O 0.5824 0.7995 0.22472 0.0
O480 O 0.62918 0.72041 0.37237 0.0
O481 O 0.58939 0.73142 0.45053 0.0
C482 C 0.60198 0.71005 0.4359 0.0
C483 C 0.58724 0.81547 0.54509 0.0
C484 C 0.58951 0.78044 0.16148 0.0
C485 C 0.68579 0.84444 0.37411 0.0
O486 O 0.66187 0.8531 0.35852 0.0
O487 O 0.67701 0.81132 0.38419 0.0
O488 O 0.58955 0.83981 0.47884 0.0
O489 O 0.59249 0.79032 0.50847 0.0
O490 O 0.29755 0.85428 0.19399 0.0
Cd491 Cd 0.29758 0.87332 0.34698 0.0
Cd492 Cd 0.24596 0.80281 0.37164 0.0
O493 O 0.26411 0.79559 0.22492 0.0
O494 O 0.34321 0.92147 0.37233 0.0
O495 O 0.33223 0.8707 0.45067 0.0
C496 C 0.35359 0.90465 0.43593 0.0
C497 C 0.24816 0.78449 0.54526 0.0
C498 C 0.28316 0.82175 0.16165 0.0
C499 C 0.21921 0.85408 0.3742 0.0
O500 O 0.21053 0.8215 0.35862 0.0
O501 O 0.25232 0.87841 0.38427 0.0
O502 O 0.22382 0.76247 0.47899 0.0
O503 O 0.27332 0.81488 0.50865 0.0
loop_
_geom_bond_atom_site_label_1
_geom_bond_atom_site_label_2
_geom_bond_distance
_geom_bond_site_symmetry_2
_ccdc_geom_bond_type
O0 Cd1 2.223 . S
O0 C8 1.315 . S
Cd1 O0 2.223 . S
Cd1 O4 2.297 . S
Cd1 O5 2.439 . S
Cd1 O11 2.240 . S
Cd2 O3 2.240 . S
Cd2 O10 2.223 . S
Cd2 O12 2.297 . S
Cd2 O13 2.439 . S
O3 Cd2 2.240 . S
O3 C8 1.279 . S
O4 Cd1 2.297 . S
O4 C6 1.247 . S
O5 Cd1 2.439 . S
O5 C6 1.208 . S
C6 O4 1.247 . S
C6 O5 1.208 . S
C7 O12 1.247 . S
C7 O13 1.208 . S
C8 O0 1.315 . S
C8 O3 1.279 . S
C9 O10 1.315 . S
C9 O11 1.279 . S
O10 Cd2 2.223 . S
O10 C9 1.315 . S
O11 Cd1 2.240 . S
O11 C9 1.279 . S
O12 Cd2 2.297 . S
O12 C7 1.247 . S
O13 Cd2 2.439 . S
O13 C7 1.208 . S
O14 Cd15 2.223 . S
O14 C22 1.315 . S
Cd15 O14 2.223 . S
Cd15 O18 2.297 . S
Cd15 O19 2.439 . S
Cd15 O25 2.240 . S
Cd16 O17 2.240 . S
Cd16 O24 2.223 . S
Cd16 O26 2.297 . S
Cd16 O27 2.439 . S
O17 Cd16 2.240 . S
O17 C22 1.279 . S
O18 Cd15 2.297 . S
O18 C20 1.247 . S
O19 Cd15 2.439 . S
O19 C20 1.208 . S
C20 O18 1.247 . S
C20 O19 1.208 . S
C21 O26 1.247 . S
C21 O27 1.208 . S
C22 O14 1.315 . S
C22 O17 1.279 . S
C23 O24 1.315 . S
C23 O25 1.279 . S
O24 Cd16 2.223 . S
O24 C23 1.315 . S
O25 Cd15 2.240 . S
O25 C23 1.279 . S
O26 Cd16 2.297 . S
O26 C21 1.247 . S
O27 Cd16 2.439 . S
O27 C21 1.208 . S
O28 Cd29 2.223 . S
O28 C36 1.315 . S
Cd29 O28 2.223 . S
Cd29 O32 2.297 . S
Cd29 O33 2.439 . S
Cd29 O39 2.240 . S
Cd30 O31 2.240 . S
Cd30 O38 2.223 . S
Cd30 O40 2.297 . S
Cd30 O41 2.439 . S
O31 Cd30 2.240 . S
O31 C36 1.279 . S
O32 Cd29 2.297 . S
O32 C34 1.247 . S
O33 Cd29 2.439 . S
O33 C34 1.208 . S
C34 O32 1.247 . S
C34 O33 1.208 . S
C35 O40 1.247 . S
C35 O41 1.208 . S
C36 O28 1.315 . S
C36 O31 1.279 . S
C37 O38 1.315 . S
C37 O39 1.279 . S
O38 Cd30 2.223 . S
O38 C37 1.315 . S
O39 Cd29 2.240 . S
O39 C37 1.279 . S
O40 Cd30 2.297 . S
O40 C35 1.247 . S
O41 Cd30 2.439 . S
O41 C35 1.208 . S
O42 Cd43 2.223 . S
O42 C50 1.315 . S
Cd43 O42 2.223 . S
Cd43 O46 2.297 . S
Cd43 O47 2.439 . S
Cd43 O53 2.240 . S
Cd44 O45 2.240 . S
Cd44 O52 2.223 . S
Cd44 O54 2.297 . S
Cd44 O55 2.439 . S
O45 Cd44 2.240 . S
O45 C50 1.279 . S
O46 Cd43 2.297 . S
O46 C48 1.247 . S
O47 Cd43 2.439 . S
O47 C48 1.208 . S
C48 O46 1.247 . S
C48 O47 1.208 . S
C49 O54 1.247 . S
C49 O55 1.208 . S
C50 O42 1.315 . S
C50 O45 1.279 . S
C51 O52 1.315 . S
C51 O53 1.279 . S
O52 Cd44 2.223 . S
O52 C51 1.315 . S
O53 Cd43 2.240 . S
O53 C51 1.279 . S
O54 Cd44 2.297 . S
O54 C49 1.247 . S
O55 Cd44 2.439 . S
O55 C49 1.208 . S
O56 Cd57 2.223 . S
O56 C64 1.315 . S
Cd57 O56 2.223 . S
Cd57 O60 2.297 . S
Cd57 O61 2.439 . S
Cd57 O67 2.240 . S
Cd58 O59 2.240 . S
Cd58 O66 2.223 . S
Cd58 O68 2.297 . S
Cd58 O69 2.439 . S
O59 Cd58 2.240 . S
O59 C64 1.279 . S
O60 Cd57 2.297 . S
O60 C62 1.247 . S
O61 Cd57 2.439 . S
O61 C62 1.208 . S
C62 O60 1.247 . S
C62 O61 1.208 . S
C63 O68 1.247 . S
C63 O69 1.208 . S
C64 O56 1.315 . S
C64 O59 1.279 . S
C65 O66 1.315 . S
C65 O67 1.279 . S
O66 Cd58 2.223 . S
O66 C65 1.315 . S
O67 Cd57 2.240 . S
O67 C65 1.279 . S
O68 Cd58 2.297 . S
O68 C63 1.247 . S
O69 Cd58 2.439 . S
O69 C63 1.208 . S
O70 Cd71 2.223 . S
O70 C78 1.315 . S
Cd71 O70 2.223 . S
Cd71 O74 2.297 . S
Cd71 O75 2.439 . S
Cd71 O81 2.240 . S
Cd72 O73 2.240 . S
Cd72 O80 2.223 . S
Cd72 O82 2.297 . S
Cd72 O83 2.439 . S
O73 Cd72 2.240 . S
O73 C78 1.279 . S
O74 Cd71 2.297 . S
O74 C76 1.247 . S
O75 Cd71 2.439 . S
O75 C76 1.208 . S
C76 O74 1.247 . S
C76 O75 1.208 . S
C77 O82 1.247 . S
C77 O83 1.208 . S
C78 O70 1.315 . S
C78 O73 1.279 . S
C79 O80 1.315 . S
C79 O81 1.279 . S
O80 Cd72 2.223 . S
O80 C79 1.315 . S
O81 Cd71 2.240 . S
O81 C79 1.279 . S
O82 Cd72 2.297 . S
O82 C77 1.247 . S
O83 Cd72 2.439 . S
O83 C77 1.208 . S
O84 Cd85 2.223 . S
O84 C92 1.315 . S
Cd85 O84 2.223 . S
Cd85 O88 2.297 . S
Cd85 O89 2.439 . S
Cd85 O95 2.240 . S
Cd86 O87 2.240 . S
Cd86 O94 2.223 . S
Cd86 O96 2.297 . S
Cd86 O97 2.439 . S
O87 Cd86 2.240 . S
O87 C92 1.279 . S
O88 Cd85 2.297 . S
O88 C90 1.247 . S
O89 Cd85 2.439 . S
O89 C90 1.208 . S
C90 O88 1.247 . S
C90 O89 1.208 . S
C91 O96 1.247 . S
C91 O97 1.208 . S
C92 O84 1.315 . S
C92 O87 1.279 . S
C93 O94 1.315 . S
C93 O95 1.279 . S
O94 Cd86 2.223 . S
O94 C93 1.315 . S
O95 Cd85 2.240 . S
O95 C93 1.279 . S
O96 Cd86 2.297 . S
O96 C91 1.247 . S
O97 Cd86 2.439 . S
O97 C91 1.208 . S
O98 Cd99 2.223 . S
O98 C106 1.315 . S
Cd99 O98 2.223 . S
Cd99 O102 2.297 . S
Cd99 O103 2.439 . S
Cd99 O109 2.240 . S
Cd100 O101 2.240 . S
Cd100 O108 2.223 . S
Cd100 O110 2.297 . S
Cd100 O111 2.439 . S
O101 Cd100 2.240 . S
O101 C106 1.279 . S
O102 Cd99 2.297 . S
O102 C104 1.247 . S
O103 Cd99 2.439 . S
O103 C104 1.208 . S
C104 O102 1.247 . S
C104 O103 1.208 . S
C105 O110 1.247 . S
C105 O111 1.208 . S
C106 O98 1.315 . S
C106 O101 1.279 . S
C107 O108 1.315 . S
C107 O109 1.279 . S
O108 Cd100 2.223 . S
O108 C107 1.315 . S
O109 Cd99 2.240 . S
O109 C107 1.279 . S
O110 Cd100 2.297 . S
O110 C105 1.247 . S
O111 Cd100 2.439 . S
O111 C105 1.208 . S
O112 Cd113 2.223 . S
O112 C120 1.315 . S
Cd113 O112 2.223 . S
Cd113 O116 2.297 . S
Cd113 O117 2.439 . S
Cd113 O123 2.240 . S
Cd114 O115 2.240 . S
Cd114 O122 2.223 . S
Cd114 O124 2.297 . S
Cd114 O125 2.439 . S
O115 Cd114 2.240 . S
O115 C120 1.279 . S
O116 Cd113 2.297 . S
O116 C118 1.247 . S
O117 Cd113 2.439 . S
O117 C118 1.208 . S
C118 O116 1.247 . S
C118 O117 1.208 . S
C119 O124 1.247 . S
C119 O125 1.208 . S
C120 O112 1.315 . S
C120 O115 1.279 . S
C121 O122 1.315 . S
C121 O123 1.279 . S
O122 Cd114 2.223 . S
O122 C121 1.315 . S
O123 Cd113 2.240 . S
O123 C121 1.279 . S
O124 Cd114 2.297 . S
O124 C119 1.247 . S
O125 Cd114 2.439 . S
O125 C119 1.208 . S
O126 Cd127 2.223 . S
O126 C134 1.315 . S
Cd127 O126 2.223 . S
Cd127 O130 2.297 . S
Cd127 O131 2.439 . S
Cd127 O137 2.240 . S
Cd128 O129 2.240 . S
Cd128 O136 2.223 . S
Cd128 O138 2.297 . S
Cd128 O139 2.439 . S
O129 Cd128 2.240 . S
O129 C134 1.279 . S
O130 Cd127 2.297 . S
O130 C132 1.247 . S
O131 Cd127 2.439 . S
O131 C132 1.208 . S
C132 O130 1.247 . S
C132 O131 1.208 . S
C133 O138 1.247 . S
C133 O139 1.208 . S
C134 O126 1.315 . S
C134 O129 1.279 . S
C135 O136 1.315 . S
C135 O137 1.279 . S
O136 Cd128 2.223 . S
O136 C135 1.315 . S
O137 Cd127 2.240 . S
O137 C135 1.279 . S
O138 Cd128 2.297 . S
O138 C133 1.247 . S
O139 Cd128 2.439 . S
O139 C133 1.208 . S
O140 Cd141 2.223 . S
O140 C148 1.315 . S
Cd141 O140 2.223 . S
Cd141 O144 2.297 . S
Cd141 O145 2.439 . S
Cd141 O151 2.240 . S
Cd142 O143 2.240 . S
Cd142 O150 2.223 . S
Cd142 O152 2.297 . S
Cd142 O153 2.439 . S
O143 Cd142 2.240 . S
O143 C148 1.279 . S
O144 Cd141 2.297 . S
O144 C146 1.247 . S
O145 Cd141 2.439 . S
O145 C146 1.208 . S
C146 O144 1.247 . S
C146 O145 1.208 . S
C147 O152 1.247 . S
C147 O153 1.208 . S
C148 O140 1.315 . S
C148 O143 1.279 . S
C149 O150 1.315 . S
C149 O151 1.279 . S
O150 Cd142 2.223 . S
O150 C149 1.315 . S
O151 Cd141 2.240 . S
O151 C149 1.279 . S
O152 Cd142 2.297 . S
O152 C147 1.247 . S
O153 Cd142 2.439 . S
O153 C147 1.208 . S
O154 Cd155 2.223 . S
O154 C162 1.315 . S
Cd155 O154 2.223 . S
Cd155 O158 2.297 . S
Cd155 O159 2.439 . S
Cd155 O165 2.240 . S
Cd156 O157 2.240 . S
Cd156 O164 2.223 . S
Cd156 O166 2.297 . S
Cd156 O167 2.439 . S
O157 Cd156 2.240 . S
O157 C162 1.279 . S
O158 Cd155 2.297 . S
O158 C160 1.247 . S
O159 Cd155 2.439 . S
O159 C160 1.208 . S
C160 O158 1.247 . S
C160 O159 1.208 . S
C161 O166 1.247 . S
C161 O167 1.208 . S
C162 O154 1.315 . S
C162 O157 1.279 . S
C163 O164 1.315 . S
C163 O165 1.279 . S
O164 Cd156 2.223 . S
O164 C163 1.315 . S
O165 Cd155 2.240 . S
O165 C163 1.279 . S
O166 Cd156 2.297 . S
O166 C161 1.247 . S
O167 Cd156 2.439 . S
O167 C161 1.208 . S
O168 Cd169 2.223 . S
O168 C176 1.315 . S
Cd169 O168 2.223 . S
Cd169 O172 2.297 . S
Cd169 O173 2.439 . S
Cd169 O179 2.240 . S
Cd170 O171 2.240 . S
Cd170 O178 2.223 . S
Cd170 O180 2.297 . S
Cd170 O181 2.439 . S
O171 Cd170 2.240 . S
O171 C176 1.279 . S
O172 Cd169 2.297 . S
O172 C174 1.247 . S
O173 Cd169 2.439 . S
O173 C174 1.208 . S
C174 O172 1.247 . S
C174 O173 1.208 . S
C175 O180 1.247 . S
C175 O181 1.208 . S
C176 O168 1.315 . S
C176 O171 1.279 . S
C177 O178 1.315 . S
C177 O179 1.279 . S
O178 Cd170 2.223 . S
O178 C177 1.315 . S
O179 Cd169 2.240 . S
O179 C177 1.279 . S
O180 Cd170 2.297 . S
O180 C175 1.247 . S
O181 Cd170 2.439 . S
O181 C175 1.208 . S
O182 Cd183 2.223 . S
O182 C190 1.315 . S
Cd183 O182 2.223 . S
Cd183 O186 2.297 . S
Cd183 O187 2.439 . S
Cd183 O193 2.240 . S
Cd184 O185 2.240 . S
Cd184 O192 2.223 . S
Cd184 O194 2.297 . S
Cd184 O195 2.439 . S
O185 Cd184 2.240 . S
O185 C190 1.279 . S
O186 Cd183 2.297 . S
O186 C188 1.247 . S
O187 Cd183 2.439 . S
O187 C188 1.208 . S
C188 O186 1.247 . S
C188 O187 1.208 . S
C189 O194 1.247 . S
C189 O195 1.208 . S
C190 O182 1.315 . S
C190 O185 1.279 . S
C191 O192 1.315 . S
C191 O193 1.279 . S
O192 Cd184 2.223 . S
O192 C191 1.315 . S
O193 Cd183 2.240 . S
O193 C191 1.279 . S
O194 Cd184 2.297 . S
O194 C189 1.247 . S
O195 Cd184 2.439 . S
O195 C189 1.208 . S
O196 Cd197 2.223 . S
O196 C204 1.315 . S
Cd197 O196 2.223 . S
Cd197 O200 2.297 . S
Cd197 O201 2.439 . S
Cd197 O207 2.240 . S
Cd198 O199 2.240 . S
Cd198 O206 2.223 . S
Cd198 O208 2.297 . S
Cd198 O209 2.439 . S
O199 Cd198 2.240 . S
O199 C204 1.279 . S
O200 Cd197 2.297 . S
O200 C202 1.247 . S
O201 Cd197 2.439 . S
O201 C202 1.208 . S
C202 O200 1.247 . S
C202 O201 1.208 . S
C203 O208 1.247 . S
C203 O209 1.208 . S
C204 O196 1.315 . S
C204 O199 1.279 . S
C205 O206 1.315 . S
C205 O207 1.279 . S
O206 Cd198 2.223 . S
O206 C205 1.315 . S
O207 Cd197 2.240 . S
O207 C205 1.279 . S
O208 Cd198 2.297 . S
O208 C203 1.247 . S
O209 Cd198 2.439 . S
O209 C203 1.208 . S
O210 Cd211 2.223 . S
O210 C218 1.315 . S
Cd211 O210 2.223 . S
Cd211 O214 2.297 . S
Cd211 O215 2.439 . S
Cd211 O221 2.240 . S
Cd212 O213 2.240 . S
Cd212 O220 2.223 . S
Cd212 O222 2.297 . S
Cd212 O223 2.439 . S
O213 Cd212 2.240 . S
O213 C218 1.279 . S
O214 Cd211 2.297 . S
O214 C216 1.247 . S
O215 Cd211 2.439 . S
O215 C216 1.208 . S
C216 O214 1.247 . S
C216 O215 1.208 . S
C217 O222 1.247 . S
C217 O223 1.208 . S
C218 O210 1.315 . S
C218 O213 1.279 . S
C219 O220 1.315 . S
C219 O221 1.279 . S
O220 Cd212 2.223 . S
O220 C219 1.315 . S
O221 Cd211 2.240 . S
O221 C219 1.279 . S
O222 Cd212 2.297 . S
O222 C217 1.247 . S
O223 Cd212 2.439 . S
O223 C217 1.208 . S
O224 Cd225 2.223 . S
O224 C232 1.315 . S
Cd225 O224 2.223 . S
Cd225 O228 2.297 . S
Cd225 O229 2.439 . S
Cd225 O235 2.240 . S
Cd226 O227 2.240 . S
Cd226 O234 2.223 . S
Cd226 O236 2.297 . S
Cd226 O237 2.439 . S
O227 Cd226 2.240 . S
O227 C232 1.279 . S
O228 Cd225 2.297 . S
O228 C230 1.247 . S
O229 Cd225 2.439 . S
O229 C230 1.208 . S
C230 O228 1.247 . S
C230 O229 1.208 . S
C231 O236 1.247 . S
C231 O237 1.208 . S
C232 O224 1.315 . S
C232 O227 1.279 . S
C233 O234 1.315 . S
C233 O235 1.279 . S
O234 Cd226 2.223 . S
O234 C233 1.315 . S
O235 Cd225 2.240 . S
O235 C233 1.279 . S
O236 Cd226 2.297 . S
O236 C231 1.247 . S
O237 Cd226 2.439 . S
O237 C231 1.208 . S
O238 Cd239 2.223 . S
O238 C246 1.315 . S
Cd239 O238 2.223 . S
Cd239 O242 2.297 . S
Cd239 O243 2.439 . S
Cd239 O249 2.240 . S
Cd240 O241 2.240 . S
Cd240 O248 2.223 . S
Cd240 O250 2.297 . S
Cd240 O251 2.439 . S
O241 Cd240 2.240 . S
O241 C246 1.279 . S
O242 Cd239 2.297 . S
O242 C244 1.247 . S
O243 Cd239 2.439 . S
O243 C244 1.208 . S
C244 O242 1.247 . S
C244 O243 1.208 . S
C245 O250 1.247 . S
C245 O251 1.208 . S
C246 O238 1.315 . S
C246 O241 1.279 . S
C247 O248 1.315 . S
C247 O249 1.279 . S
O248 Cd240 2.223 . S
O248 C247 1.315 . S
O249 Cd239 2.240 . S
O249 C247 1.279 . S
O250 Cd240 2.297 . S
O250 C245 1.247 . S
O251 Cd240 2.439 . S
O251 C245 1.208 . S
O252 Cd253 2.223 . S
O252 C260 1.315 . S
Cd253 O252 2.223 . S
Cd253 O256 2.297 . S
Cd253 O257 2.439 . S
Cd253 O263 2.240 . S
Cd254 O255 2.240 . S
Cd254 O262 2.223 . S
Cd254 O264 2.297 1_554 S
Cd254 O265 2.439 1_554 S
O255 Cd254 2.240 . S
O255 C260 1.279 . S
O256 Cd253 2.297 . S
O256 C258 1.247 . S
O257 Cd253 2.439 . S
O257 C258 1.208 . S
C258 O256 1.247 . S
C258 O257 1.208 . S
C259 O264 1.247 . S
C259 O265 1.208 . S
C260 O252 1.315 . S
C260 O255 1.279 . S
C261 O262 1.315 . S
C261 O263 1.279 . S
O262 Cd254 2.223 . S
O262 C261 1.315 . S
O263 Cd253 2.240 . S
O263 C261 1.279 . S
O264 Cd254 2.297 1_556 S
O264 C259 1.247 . S
O265 Cd254 2.439 1_556 S
O265 C259 1.208 . S
O266 Cd267 2.223 . S
O266 C274 1.315 . S
Cd267 O266 2.223 . S
Cd267 O270 2.297 . S
Cd267 O271 2.439 . S
Cd267 O277 2.240 . S
Cd268 O269 2.240 . S
Cd268 O276 2.223 . S
Cd268 O278 2.297 1_554 S
Cd268 O279 2.439 1_554 S
O269 Cd268 2.240 . S
O269 C274 1.279 . S
O270 Cd267 2.297 . S
O270 C272 1.247 . S
O271 Cd267 2.439 . S
O271 C272 1.208 . S
C272 O270 1.247 . S
C272 O271 1.208 . S
C273 O278 1.247 . S
C273 O279 1.208 . S
C274 O266 1.315 . S
C274 O269 1.279 . S
C275 O276 1.315 . S
C275 O277 1.279 . S
O276 Cd268 2.223 . S
O276 C275 1.315 . S
O277 Cd267 2.240 . S
O277 C275 1.279 . S
O278 Cd268 2.297 1_556 S
O278 C273 1.247 . S
O279 Cd268 2.439 1_556 S
O279 C273 1.208 . S
O280 Cd281 2.223 . S
O280 C288 1.315 . S
Cd281 O280 2.223 . S
Cd281 O284 2.297 . S
Cd281 O285 2.439 . S
Cd281 O291 2.240 . S
Cd282 O283 2.240 . S
Cd282 O290 2.223 . S
Cd282 O292 2.297 1_554 S
Cd282 O293 2.439 1_554 S
O283 Cd282 2.240 . S
O283 C288 1.279 . S
O284 Cd281 2.297 . S
O284 C286 1.247 . S
O285 Cd281 2.439 . S
O285 C286 1.208 . S
C286 O284 1.247 . S
C286 O285 1.208 . S
C287 O292 1.247 . S
C287 O293 1.208 . S
C288 O280 1.315 . S
C288 O283 1.279 . S
C289 O290 1.315 . S
C289 O291 1.279 . S
O290 Cd282 2.223 . S
O290 C289 1.315 . S
O291 Cd281 2.240 . S
O291 C289 1.279 . S
O292 Cd282 2.297 1_556 S
O292 C287 1.247 . S
O293 Cd282 2.439 1_556 S
O293 C287 1.208 . S
O294 Cd295 2.223 1_556 S
O294 C302 1.315 . S
Cd295 O294 2.223 1_554 S
Cd295 O298 2.297 1_554 S
Cd295 O299 2.439 . S
Cd295 O305 2.240 . S
Cd296 O297 2.240 1_554 S
Cd296 O304 2.223 . S
Cd296 O306 2.297 . S
Cd296 O307 2.439 . S
O297 Cd296 2.240 1_556 S
O297 C302 1.279 . S
O298 Cd295 2.297 1_556 S
O298 C300 1.247 1_556 S
O299 Cd295 2.439 . S
O299 C300 1.208 . S
C300 O298 1.247 1_554 S
C300 O299 1.208 . S
C301 O306 1.247 . S
C301 O307 1.208 . S
C302 O294 1.315 . S
C302 O297 1.279 . S
C303 O304 1.315 . S
C303 O305 1.279 . S
O304 Cd296 2.223 . S
O304 C303 1.315 . S
O305 Cd295 2.240 . S
O305 C303 1.279 . S
O306 Cd296 2.297 . S
O306 C301 1.247 . S
O307 Cd296 2.439 . S
O307 C301 1.208 . S
O308 Cd309 2.223 1_556 S
O308 C316 1.315 . S
Cd309 O308 2.223 1_554 S
Cd309 O312 2.297 1_554 S
Cd309 O313 2.439 . S
Cd309 O319 2.240 . S
Cd310 O311 2.240 1_554 S
Cd310 O318 2.223 . S
Cd310 O320 2.297 . S
Cd310 O321 2.439 . S
O311 Cd310 2.240 1_556 S
O311 C316 1.279 . S
O312 Cd309 2.297 1_556 S
O312 C314 1.247 1_556 S
O313 Cd309 2.439 . S
O313 C314 1.208 . S
C314 O312 1.247 1_554 S
C314 O313 1.208 . S
C315 O320 1.247 . S
C315 O321 1.208 . S
C316 O308 1.315 . S
C316 O311 1.279 . S
C317 O318 1.315 . S
C317 O319 1.279 . S
O318 Cd310 2.223 . S
O318 C317 1.315 . S
O319 Cd309 2.240 . S
O319 C317 1.279 . S
O320 Cd310 2.297 . S
O320 C315 1.247 . S
O321 Cd310 2.439 . S
O321 C315 1.208 . S
O322 Cd323 2.223 1_556 S
O322 C330 1.315 . S
Cd323 O322 2.223 1_554 S
Cd323 O326 2.297 1_554 S
Cd323 O327 2.439 . S
Cd323 O333 2.240 . S
Cd324 O325 2.240 1_554 S
Cd324 O332 2.223 . S
Cd324 O334 2.297 . S
Cd324 O335 2.439 . S
O325 Cd324 2.240 1_556 S
O325 C330 1.279 . S
O326 Cd323 2.297 1_556 S
O326 C328 1.247 1_556 S
O327 Cd323 2.439 . S
O327 C328 1.208 . S
C328 O326 1.247 1_554 S
C328 O327 1.208 . S
C329 O334 1.247 . S
C329 O335 1.208 . S
C330 O322 1.315 . S
C330 O325 1.279 . S
C331 O332 1.315 . S
C331 O333 1.279 . S
O332 Cd324 2.223 . S
O332 C331 1.315 . S
O333 Cd323 2.240 . S
O333 C331 1.279 . S
O334 Cd324 2.297 . S
O334 C329 1.247 . S
O335 Cd324 2.439 . S
O335 C329 1.208 . S
O336 Cd337 2.223 . S
O336 C344 1.315 . S
Cd337 O336 2.223 . S
Cd337 O340 2.297 . S
Cd337 O341 2.439 . S
Cd337 O347 2.240 . S
Cd338 O339 2.240 . S
Cd338 O346 2.223 . S
Cd338 O348 2.297 1_556 S
Cd338 O349 2.439 1_556 S
O339 Cd338 2.240 . S
O339 C344 1.279 . S
O340 Cd337 2.297 . S
O340 C342 1.247 . S
O341 Cd337 2.439 . S
O341 C342 1.208 . S
C342 O340 1.247 . S
C342 O341 1.208 . S
C343 O348 1.247 . S
C343 O349 1.208 . S
C344 O336 1.315 . S
C344 O339 1.279 . S
C345 O346 1.315 . S
C345 O347 1.279 . S
O346 Cd338 2.223 . S
O346 C345 1.315 . S
O347 Cd337 2.240 . S
O347 C345 1.279 . S
O348 Cd338 2.297 1_554 S
O348 C343 1.247 . S
O349 Cd338 2.439 1_554 S
O349 C343 1.208 . S
O350 Cd351 2.223 . S
O350 C358 1.315 . S
Cd351 O350 2.223 . S
Cd351 O354 2.297 . S
Cd351 O355 2.439 . S
Cd351 O361 2.240 . S
Cd352 O353 2.240 . S
Cd352 O360 2.223 . S
Cd352 O362 2.297 1_556 S
Cd352 O363 2.439 1_556 S
O353 Cd352 2.240 . S
O353 C358 1.279 . S
O354 Cd351 2.297 . S
O354 C356 1.247 . S
O355 Cd351 2.439 . S
O355 C356 1.208 . S
C356 O354 1.247 . S
C356 O355 1.208 . S
C357 O362 1.247 . S
C357 O363 1.208 . S
C358 O350 1.315 . S
C358 O353 1.279 . S
C359 O360 1.315 . S
C359 O361 1.279 . S
O360 Cd352 2.223 . S
O360 C359 1.315 . S
O361 Cd351 2.240 . S
O361 C359 1.279 . S
O362 Cd352 2.297 1_554 S
O362 C357 1.247 . S
O363 Cd352 2.439 1_554 S
O363 C357 1.208 . S
O364 Cd365 2.223 . S
O364 C372 1.315 . S
Cd365 O364 2.223 . S
Cd365 O368 2.297 . S
Cd365 O369 2.439 . S
Cd365 O375 2.240 . S
Cd366 O367 2.240 . S
Cd366 O374 2.223 . S
Cd366 O376 2.297 1_556 S
Cd366 O377 2.439 1_556 S
O367 Cd366 2.240 . S
O367 C372 1.279 . S
O368 Cd365 2.297 . S
O368 C370 1.247 . S
O369 Cd365 2.439 . S
O369 C370 1.208 . S
C370 O368 1.247 . S
C370 O369 1.208 . S
C371 O376 1.247 . S
C371 O377 1.208 . S
C372 O364 1.315 . S
C372 O367 1.279 . S
C373 O374 1.315 . S
C373 O375 1.279 . S
O374 Cd366 2.223 . S
O374 C373 1.315 . S
O375 Cd365 2.240 . S
O375 C373 1.279 . S
O376 Cd366 2.297 1_554 S
O376 C371 1.247 . S
O377 Cd366 2.439 1_554 S
O377 C371 1.208 . S
O378 Cd379 2.223 1_554 S
O378 C386 1.315 . S
Cd379 O378 2.223 1_556 S
Cd379 O382 2.297 1_556 S
Cd379 O383 2.439 . S
Cd379 O389 2.240 . S
Cd380 O381 2.240 1_556 S
Cd380 O388 2.223 . S
Cd380 O390 2.297 . S
Cd380 O391 2.439 . S
O381 Cd380 2.240 1_554 S
O381 C386 1.279 . S
O382 Cd379 2.297 1_554 S
O382 C384 1.247 1_554 S
O383 Cd379 2.439 . S
O383 C384 1.208 . S
C384 O382 1.247 1_556 S
C384 O383 1.208 . S
C385 O390 1.247 . S
C385 O391 1.208 . S
C386 O378 1.315 . S
C386 O381 1.279 . S
C387 O388 1.315 . S
C387 O389 1.279 . S
O388 Cd380 2.223 . S
O388 C387 1.315 . S
O389 Cd379 2.240 . S
O389 C387 1.279 . S
O390 Cd380 2.297 . S
O390 C385 1.247 . S
O391 Cd380 2.439 . S
O391 C385 1.208 . S
O392 Cd393 2.223 1_554 S
O392 C400 1.315 . S
Cd393 O392 2.223 1_556 S
Cd393 O396 2.297 1_556 S
Cd393 O397 2.439 . S
Cd393 O403 2.240 . S
Cd394 O395 2.240 1_556 S
Cd394 O402 2.223 . S
Cd394 O404 2.297 . S
Cd394 O405 2.439 . S
O395 Cd394 2.240 1_554 S
O395 C400 1.279 . S
O396 Cd393 2.297 1_554 S
O396 C398 1.247 1_554 S
O397 Cd393 2.439 . S
O397 C398 1.208 . S
C398 O396 1.247 1_556 S
C398 O397 1.208 . S
C399 O404 1.247 . S
C399 O405 1.208 . S
C400 O392 1.315 . S
C400 O395 1.279 . S
C401 O402 1.315 . S
C401 O403 1.279 . S
O402 Cd394 2.223 . S
O402 C401 1.315 . S
O403 Cd393 2.240 . S
O403 C401 1.279 . S
O404 Cd394 2.297 . S
O404 C399 1.247 . S
O405 Cd394 2.439 . S
O405 C399 1.208 . S
O406 Cd407 2.223 1_554 S
O406 C414 1.315 . S
Cd407 O406 2.223 1_556 S
Cd407 O410 2.297 1_556 S
Cd407 O411 2.439 . S
Cd407 O417 2.240 . S
Cd408 O409 2.240 1_556 S
Cd408 O416 2.223 . S
Cd408 O418 2.297 . S
Cd408 O419 2.439 . S
O409 Cd408 2.240 1_554 S
O409 C414 1.279 . S
O410 Cd407 2.297 1_554 S
O410 C412 1.247 1_554 S
O411 Cd407 2.439 . S
O411 C412 1.208 . S
C412 O410 1.247 1_556 S
C412 O411 1.208 . S
C413 O418 1.247 . S
C413 O419 1.208 . S
C414 O406 1.315 . S
C414 O409 1.279 . S
C415 O416 1.315 . S
C415 O417 1.279 . S
O416 Cd408 2.223 . S
O416 C415 1.315 . S
O417 Cd407 2.240 . S
O417 C415 1.279 . S
O418 Cd408 2.297 . S
O418 C413 1.247 . S
O419 Cd408 2.439 . S
O419 C413 1.208 . S
O420 Cd421 2.223 . S
O420 C428 1.315 . S
Cd421 O420 2.223 . S
Cd421 O424 2.297 . S
Cd421 O425 2.439 . S
Cd421 O431 2.240 . S
Cd422 O423 2.240 . S
Cd422 O430 2.223 . S
Cd422 O432 2.297 . S
Cd422 O433 2.439 . S
O423 Cd422 2.240 . S
O423 C428 1.279 . S
O424 Cd421 2.297 . S
O424 C426 1.247 . S
O425 Cd421 2.439 . S
O425 C426 1.208 . S
C426 O424 1.247 . S
C426 O425 1.208 . S
C427 O432 1.247 . S
C427 O433 1.208 . S
C428 O420 1.315 . S
C428 O423 1.279 . S
C429 O430 1.315 . S
C429 O431 1.279 . S
O430 Cd422 2.223 . S
O430 C429 1.315 . S
O431 Cd421 2.240 . S
O431 C429 1.279 . S
O432 Cd422 2.297 . S
O432 C427 1.247 . S
O433 Cd422 2.439 . S
O433 C427 1.208 . S
O434 Cd435 2.223 . S
O434 C442 1.315 . S
Cd435 O434 2.223 . S
Cd435 O438 2.297 . S
Cd435 O439 2.439 . S
Cd435 O445 2.240 . S
Cd436 O437 2.240 . S
Cd436 O444 2.223 . S
Cd436 O446 2.297 . S
Cd436 O447 2.439 . S
O437 Cd436 2.240 . S
O437 C442 1.279 . S
O438 Cd435 2.297 . S
O438 C440 1.247 . S
O439 Cd435 2.439 . S
O439 C440 1.208 . S
C440 O438 1.247 . S
C440 O439 1.208 . S
C441 O446 1.247 . S
C441 O447 1.208 . S
C442 O434 1.315 . S
C442 O437 1.279 . S
C443 O444 1.315 . S
C443 O445 1.279 . S
O444 Cd436 2.223 . S
O444 C443 1.315 . S
O445 Cd435 2.240 . S
O445 C443 1.279 . S
O446 Cd436 2.297 . S
O446 C441 1.247 . S
O447 Cd436 2.439 . S
O447 C441 1.208 . S
O448 Cd449 2.223 . S
O448 C456 1.315 . S
Cd449 O448 2.223 . S
Cd449 O452 2.297 . S
Cd449 O453 2.439 . S
Cd449 O459 2.240 . S
Cd450 O451 2.240 . S
Cd450 O458 2.223 . S
Cd450 O460 2.297 . S
Cd450 O461 2.439 . S
O451 Cd450 2.240 . S
O451 C456 1.279 . S
O452 Cd449 2.297 . S
O452 C454 1.247 . S
O453 Cd449 2.439 . S
O453 C454 1.208 . S
C454 O452 1.247 . S
C454 O453 1.208 . S
C455 O460 1.247 . S
C455 O461 1.208 . S
C456 O448 1.315 . S
C456 O451 1.279 . S
C457 O458 1.315 . S
C457 O459 1.279 . S
O458 Cd450 2.223 . S
O458 C457 1.315 . S
O459 Cd449 2.240 . S
O459 C457 1.279 . S
O460 Cd450 2.297 . S
O460 C455 1.247 . S
O461 Cd450 2.439 . S
O461 C455 1.208 . S
O462 Cd463 2.223 . S
O462 C470 1.315 . S
Cd463 O462 2.223 . S
Cd463 O466 2.297 . S
Cd463 O467 2.439 . S
Cd463 O473 2.240 . S
Cd464 O465 2.240 . S
Cd464 O472 2.223 . S
Cd464 O474 2.297 . S
Cd464 O475 2.439 . S
O465 Cd464 2.240 . S
O465 C470 1.279 . S
O466 Cd463 2.297 . S
O466 C468 1.247 . S
O467 Cd463 2.439 . S
O467 C468 1.208 . S
C468 O466 1.247 . S
C468 O467 1.208 . S
C469 O474 1.247 . S
C469 O475 1.208 . S
C470 O462 1.315 . S
C470 O465 1.279 . S
C471 O472 1.315 . S
C471 O473 1.279 . S
O472 Cd464 2.223 . S
O472 C471 1.315 . S
O473 Cd463 2.240 . S
O473 C471 1.279 . S
O474 Cd464 2.297 . S
O474 C469 1.247 . S
O475 Cd464 2.439 . S
O475 C469 1.208 . S
O476 Cd477 2.223 . S
O476 C484 1.315 . S
Cd477 O476 2.223 . S
Cd477 O480 2.297 . S
Cd477 O481 2.439 . S
Cd477 O487 2.240 . S
Cd478 O479 2.240 . S
Cd478 O486 2.223 . S
Cd478 O488 2.297 . S
Cd478 O489 2.439 . S
O479 Cd478 2.240 . S
O479 C484 1.279 . S
O480 Cd477 2.297 . S
O480 C482 1.247 . S
O481 Cd477 2.439 . S
O481 C482 1.208 . S
C482 O480 1.247 . S
C482 O481 1.208 . S
C483 O488 1.247 . S
C483 O489 1.208 . S
C484 O476 1.315 . S
C484 O479 1.279 . S
C485 O486 1.315 . S
C485 O487 1.279 . S
O486 Cd478 2.223 . S
O486 C485 1.315 . S
O487 Cd477 2.240 . S
O487 C485 1.279 . S
O488 Cd478 2.297 . S
O488 C483 1.247 . S
O489 Cd478 2.439 . S
O489 C483 1.208 . S
O490 Cd491 2.223 . S
O490 C498 1.315 . S
Cd491 O490 2.223 . S
Cd491 O494 2.297 . S
Cd491 O495 2.439 . S
Cd491 O501 2.240 . S
Cd492 O493 2.240 . S
Cd492 O500 2.223 . S
Cd492 O502 2.297 . S
Cd492 O503 2.439 . S
O493 Cd492 2.240 . S
O493 C498 1.279 . S
O494 Cd491 2.297 . S
O494 C496 1.247 . S
O495 Cd491 2.439 . S
O495 C496 1.208 . S
C496 O494 1.247 . S
C496 O495 1.208 . S
C497 O502 1.247 . S
C497 O503 1.208 . S
C498 O490 1.315 . S
C498 O493 1.279 . S
C499 O500 1.315 . S
C499 O501 1.279 . S
O500 Cd492 2.223 . S
O500 C499 1.315 . S
O501 Cd491 2.240 . S
O501 C499 1.279 . S
O502 Cd492 2.297 . S
O502 C497 1.247 . S
O503 Cd492 2.439 . S
O503 C497 1.208 . S
C147 C8 1.313 1_556 S
C161 C22 1.313 1_556 S
C36 C133 1.313 1_554 S
C50 C119 1.313 . S
C64 C91 1.313 . S
C105 C78 1.313 . S
C63 C92 1.313 1_554 S
C77 C106 1.313 1_554 S
C120 C49 1.313 1_556 S
C35 C134 1.313 . S
C148 C7 1.313 . S
C162 C21 1.313 . S
C315 C176 1.313 . S
C329 C190 1.313 . S
C204 C301 1.313 . S
C218 C287 1.313 . S
C232 C259 1.313 . S
C246 C273 1.313 . S
C231 C260 1.313 . S
C245 C274 1.313 . S
C217 C288 1.313 . S
C203 C302 1.313 . S
C175 C316 1.313 . S
C189 C330 1.313 . S
C344 C483 1.313 . S
C497 C358 1.313 . S
C469 C372 1.313 . S
C386 C455 1.313 . S
C400 C427 1.313 . S
C414 C441 1.313 . S
C399 C428 1.313 . S
C413 C442 1.313 . S
C385 C456 1.313 . S
C470 C371 1.313 . S
C343 C484 1.313 . S
C498 C357 1.313 . S
C48 C6 1.748 . S
C62 C20 1.748 1_565 S
C34 C76 1.748 1_655 S
C132 C90 1.748 . S
C146 C104 1.748 1_545 S
C160 C118 1.748 1_655 S
C216 C174 1.748 . S
C230 C188 1.748 . S
C202 C244 1.748 . S
C258 C300 1.748 . S
C314 C272 1.748 . S
C286 C328 1.748 . S
C384 C342 1.748 . S
C398 C356 1.748 . S
C370 C412 1.748 . S
C426 C468 1.748 . S
C440 C482 1.748 . S
C454 C496 1.748 . S
C9 C261 1.779 . S
C275 C23 1.780 . S
C289 C37 1.779 . S
C471 C51 1.779 . S
C485 C65 1.779 . S
C499 C79 1.780 . S
C93 C345 1.779 . S
C359 C107 1.780 . S
C373 C121 1.779 . S
C135 C219 1.779 . S
C149 C233 1.779 . S
C163 C247 1.780 . S
C429 C177 1.779 1_455 S
C443 C191 1.779 . S
C205 C457 1.779 1_545 S
C303 C387 1.780 1_544 S
C317 C401 1.779 1_654 S
C331 C415 1.779 1_554 S
