# Generated by pormake.
# Topology unb, (4)-cn, num edge types: 1
# Building blocks:
#     Node 0, Type 0, BuildingBlock: KUFVIS_clean_sbu_0, # of connection points: 4
#     Node 1, Type 0, BuildingBlock: KUFVIS_clean_sbu_0, # of connection points: 4
#     Node 2, Type 0, BuildingBlock: KUFVIS_clean_sbu_0, # of connection points: 4
#     Node 3, Type 0, BuildingBlock: KUFVIS_clean_sbu_0, # of connection points: 4
#     Node 4, Type 0, BuildingBlock: KUFVIS_clean_sbu_0, # of connection points: 4
#     Node 5, Type 0, BuildingBlock: KUFVIS_clean_sbu_0, # of connection points: 4
#     Node 6, Type 0, BuildingBlock: KUFVIS_clean_sbu_0, # of connection points: 4
#     Node 7, Type 0, BuildingBlock: KUFVIS_clean_sbu_0, # of connection points: 4
#     Node 8, Type 0, BuildingBlock: KUFVIS_clean_sbu_0, # of connection points: 4
#     Node 9, Type 0, BuildingBlock: KUFVIS_clean_sbu_0, # of connection points: 4
#     Node 10, Type 0, BuildingBlock: KUFVIS_clean_sbu_0, # of connection points: 4
#     Node 11, Type 0, BuildingBlock: KUFVIS_clean_sbu_0, # of connection points: 4
#     Node 12, Type 0, BuildingBlock: KUFVIS_clean_sbu_0, # of connection points: 4
#     Node 13, Type 0, BuildingBlock: KUFVIS_clean_sbu_0, # of connection points: 4
#     Node 14, Type 0, BuildingBlock: KUFVIS_clean_sbu_0, # of connection points: 4
#     Node 15, Type 0, BuildingBlock: KUFVIS_clean_sbu_0, # of connection points: 4
#     Node 16, Type 0, BuildingBlock: KUFVIS_clean_sbu_0, # of connection points: 4
#     Node 17, Type 0, BuildingBlock: KUFVIS_clean_sbu_0, # of connection points: 4
#     Edge 18, Type (0, 0), BuildingBlock: OJICUG_clean_linker_0, # of connection points: 2
#     Edge 19, Type (0, 0), BuildingBlock: OJICUG_clean_linker_0, # of connection points: 2
#     Edge 20, Type (0, 0), BuildingBlock: OJICUG_clean_linker_0, # of connection points: 2
#     Edge 21, Type (0, 0), BuildingBlock: OJICUG_clean_linker_0, # of connection points: 2
#     Edge 22, Type (0, 0), BuildingBlock: OJICUG_clean_linker_0, # of connection points: 2
#     Edge 23, Type (0, 0), BuildingBlock: OJICUG_clean_linker_0, # of connection points: 2
#     Edge 24, Type (0, 0), BuildingBlock: OJICUG_clean_linker_0, # of connection points: 2
#     Edge 25, Type (0, 0), BuildingBlock: OJICUG_clean_linker_0, # of connection points: 2
#     Edge 26, Type (0, 0), BuildingBlock: OJICUG_clean_linker_0, # of connection points: 2
#     Edge 27, Type (0, 0), BuildingBlock: OJICUG_clean_linker_0, # of connection points: 2
#     Edge 28, Type (0, 0), BuildingBlock: OJICUG_clean_linker_0, # of connection points: 2
#     Edge 29, Type (0, 0), BuildingBlock: OJICUG_clean_linker_0, # of connection points: 2
#     Edge 30, Type (0, 0), BuildingBlock: OJICUG_clean_linker_0, # of connection points: 2
#     Edge 31, Type (0, 0), BuildingBlock: OJICUG_clean_linker_0, # of connection points: 2
#     Edge 32, Type (0, 0), BuildingBlock: OJICUG_clean_linker_0, # of connection points: 2
#     Edge 33, Type (0, 0), BuildingBlock: OJICUG_clean_linker_0, # of connection points: 2
#     Edge 34, Type (0, 0), BuildingBlock: OJICUG_clean_linker_0, # of connection points: 2
#     Edge 35, Type (0, 0), BuildingBlock: OJICUG_clean_linker_0, # of connection points: 2
#     Edge 36, Type (0, 0), BuildingBlock: OJICUG_clean_linker_0, # of connection points: 2
#     Edge 37, Type (0, 0), BuildingBlock: OJICUG_clean_linker_0, # of connection points: 2
#     Edge 38, Type (0, 0), BuildingBlock: OJICUG_clean_linker_0, # of connection points: 2
#     Edge 39, Type (0, 0), BuildingBlock: OJICUG_clean_linker_0, # of connection points: 2
#     Edge 40, Type (0, 0), BuildingBlock: OJICUG_clean_linker_0, # of connection points: 2
#     Edge 41, Type (0, 0), BuildingBlock: OJICUG_clean_linker_0, # of connection points: 2
#     Edge 42, Type (0, 0), BuildingBlock: OJICUG_clean_linker_0, # of connection points: 2
#     Edge 43, Type (0, 0), BuildingBlock: OJICUG_clean_linker_0, # of connection points: 2
#     Edge 44, Type (0, 0), BuildingBlock: OJICUG_clean_linker_0, # of connection points: 2
#     Edge 45, Type (0, 0), BuildingBlock: OJICUG_clean_linker_0, # of connection points: 2
#     Edge 46, Type (0, 0), BuildingBlock: OJICUG_clean_linker_0, # of connection points: 2
#     Edge 47, Type (0, 0), BuildingBlock: OJICUG_clean_linker_0, # of connection points: 2
#     Edge 48, Type (0, 0), BuildingBlock: OJICUG_clean_linker_0, # of connection points: 2
#     Edge 49, Type (0, 0), BuildingBlock: OJICUG_clean_linker_0, # of connection points: 2
#     Edge 50, Type (0, 0), BuildingBlock: OJICUG_clean_linker_0, # of connection points: 2
#     Edge 51, Type (0, 0), BuildingBlock: OJICUG_clean_linker_0, # of connection points: 2
#     Edge 52, Type (0, 0), BuildingBlock: OJICUG_clean_linker_0, # of connection points: 2
#     Edge 53, Type (0, 0), BuildingBlock: OJICUG_clean_linker_0, # of connection points: 2
# Relax obj value: 0.075
# Max RMSD: 0.073
# Mean RMSD: 0.073
data_MOF--net-unb--node1-KUFVIS_clean_sbu_0--edge1-OJICUG_clean_linker_0
_symmetry_space_group_name_H-M    P1
_symmetry_Int_Tables_number       1
_symmetry_cell_setting            triclinic
loop_
_symmetry_equiv_pos_as_xyz
'x, y, z'
_cell_length_a     46.681625
_cell_length_b     46.693066
_cell_length_c     17.718356
_cell_angle_alpha  90.136988
_cell_angle_beta   89.914122
_cell_angle_gamma 119.95001
loop_
_atom_site_label
_atom_site_type_symbol
_atom_site_fract_x
_atom_site_fract_y
_atom_site_fract_z
_atom_type_partial_charge
Mn0 Mn 0.17022 0.28027 0.07574 0.0
Mn1 Mn 0.15303 0.34167 0.04378 0.0
C2 C 0.1838 0.30917 0.96616 0.0
C3 C 0.20391 0.25655 0.08664 0.0
C4 C 0.10111 0.26927 0.04236 0.0
O5 O 0.17069 0.29654 0.18391 0.0
O6 O 0.15385 0.33337 0.15458 0.0
C7 C 0.20868 0.40002 0.1144 0.0
N8 N 0.18733 0.38639 0.05572 0.0
C9 C 0.19109 0.43848 0.02484 0.0
C10 C 0.21388 0.45316 0.08416 0.0
C11 C 0.22312 0.43405 0.12814 0.0
C12 C 0.17945 0.40499 1.01047 0.0
H13 H 0.21368 0.38474 0.15166 0.0
C14 C 0.16325 0.31884 0.2021 0.0
O15 O 0.17241 0.23976 0.1003 0.0
O16 O 0.21666 0.28836 0.08149 0.0
N17 N 0.15235 0.35329 0.93931 0.0
C18 C 0.13291 0.32903 0.87312 0.0
C19 C 0.10568 0.35519 0.7856 0.0
C20 C 0.11824 0.39574 0.82364 0.0
C21 C 0.14344 0.4094 0.90091 0.0
C22 C 0.15856 0.38887 0.95113 0.0
H23 H 0.13013 0.30434 0.87487 0.0
O24 O 0.17479 0.27798 0.96517 0.0
O25 O 0.18093 0.32193 0.02822 0.0
O26 O 0.11883 0.25776 0.06748 0.0
O27 O 0.1132 0.29963 0.02817 0.0
C28 C 0.15587 0.44212 0.92409 0.0
C29 C 0.17945 0.45632 0.98258 0.0
H30 H 0.22412 0.47914 0.09733 0.0
H31 H 0.2402 0.44527 0.17462 0.0
H32 H 0.08814 0.34167 0.73165 0.0
H33 H 0.10886 0.37548 0.79523 0.0
H34 H 0.14818 0.45745 0.89462 0.0
H35 H 0.18859 0.48211 0.99595 0.0
Mn36 Mn 0.76817 0.89929 0.07632 0.0
Mn37 Mn 0.7125 0.81952 0.04028 0.0
C38 C 0.74133 0.88249 0.96496 0.0
C39 C 0.7895 0.95629 0.08632 0.0
C40 C 0.78537 0.84569 0.04125 0.0
O41 O 0.7505 0.88322 0.18239 0.0
O42 O 0.72143 0.82844 0.15224 0.0
C43 C 0.65313 0.81347 0.11478 0.0
N44 N 0.6671 0.80644 0.05545 0.0
C45 C 0.61552 0.75771 0.02361 0.0
C46 C 0.60061 0.76479 0.08435 0.0
C47 C 0.61928 0.79305 0.12902 0.0
C48 C 0.64882 0.7803 1.00904 0.0
H49 H 0.66795 0.83402 0.15178 0.0
C50 C 0.73131 0.85264 0.19986 0.0
O51 O 0.80694 0.94267 0.10379 0.0
O52 O 0.75796 0.93634 0.07772 0.0
N53 N 0.70005 0.80708 0.93567 0.0
C54 C 0.72398 0.81309 0.86766 0.0
C55 C 0.69826 0.76048 0.77741 0.0
C56 C 0.65835 0.73143 0.81621 0.0
C57 C 0.64477 0.74167 0.89562 0.0
C58 C 0.66491 0.77689 0.94766 0.0
H59 H 0.74836 0.8354 0.86915 0.0
O60 O 0.77213 0.90577 0.96564 0.0
O61 O 0.72835 0.86651 0.02635 0.0
O62 O 0.79263 0.87255 0.07469 0.0
O63 O 0.75637 0.82553 0.01947 0.0
C64 C 0.61237 0.72043 0.91937 0.0
C65 C 0.59803 0.72862 0.97983 0.0
H66 H 0.57477 0.74847 0.09769 0.0
H67 H 0.60784 0.79833 0.17614 0.0
H68 H 0.7116 0.75735 0.72179 0.0
H69 H 0.67833 0.74303 0.78721 0.0
H70 H 0.59734 0.69763 0.88877 0.0
H71 H 0.57243 0.71136 0.99341 0.0
Mn72 Mn 0.14897 0.87743 0.07651 0.0
Mn73 Mn 0.22769 0.89483 0.04456 0.0
C74 C 0.1645 0.86401 0.96676 0.0
C75 C 0.09164 0.84325 0.08803 0.0
C76 C 0.20696 0.94662 0.04354 0.0
O77 O 0.16478 0.87733 0.18464 0.0
O78 O 0.21839 0.89383 0.15522 0.0
C79 C 0.23043 0.83908 0.11416 0.0
N80 N 0.2382 0.86056 0.05582 0.0
C81 C 0.28674 0.85706 0.02484 0.0
C82 C 0.27856 0.83412 0.08374 0.0
C83 C 0.25009 0.82469 0.12759 0.0
C84 C 0.2648 0.86862 1.01066 0.0
H85 H 0.21007 0.83398 0.1514 0.0
C86 C 0.19449 0.88481 0.20275 0.0
O87 O 0.10601 0.87477 0.10129 0.0
O88 O 0.11099 0.83082 0.08271 0.0
N89 N 0.24025 0.89585 0.94014 0.0
C90 C 0.23564 0.91566 0.87469 0.0
C91 C 0.2894 0.94356 0.78817 0.0
C92 C 0.31733 0.93089 0.82578 0.0
C93 C 0.30553 0.90521 0.90213 0.0
C94 C 0.26967 0.88969 0.95177 0.0
H95 H 0.21366 0.91834 0.87653 0.0
O96 O 0.14208 0.87272 0.96607 0.0
O97 O 0.18012 0.86693 0.02875 0.0
O98 O 0.17757 0.92886 0.06787 0.0
O99 O 0.22533 0.93457 0.02984 0.0
C100 C 0.32585 0.89278 0.92501 0.0
C101 C 0.31636 0.86896 0.98288 0.0
H102 H 0.29434 0.82392 0.09672 0.0
H103 H 0.24418 0.80751 0.17379 0.0
H104 H 0.29358 0.96141 0.73485 0.0
H105 H 0.30651 0.94039 0.79769 0.0
H106 H 0.349 0.9007 0.89583 0.0
H107 H 0.33307 0.85987 0.99607 0.0
Mn108 Mn 0.29059 0.15725 0.94751 0.0
Mn109 Mn 0.35179 0.1397 0.97822 0.0
C110 C 0.31969 0.17053 0.05683 0.0
C111 C 0.26727 0.19131 0.93713 0.0
C112 C 0.27936 0.08816 0.98216 0.0
O113 O 0.3062 0.1573 0.83898 0.0
O114 O 0.34225 0.13945 0.86758 0.0
C115 C 0.40848 0.19558 0.90404 0.0
N116 N 0.39607 0.1744 0.9633 0.0
C117 C 0.44901 0.1794 0.9896 0.0
C118 C 0.46246 0.20191 0.92948 0.0
C119 C 0.44232 0.2105 0.88759 0.0
C120 C 0.41571 0.16746 1.00712 0.0
H121 H 0.39238 0.20006 0.86837 0.0
C122 C 0.32782 0.14904 0.8202 0.0
O123 O 0.25015 0.15979 0.9238 0.0
O124 O 0.29906 0.2038 0.94174 0.0
N125 N 0.36496 0.13974 0.08222 0.0
C126 C 0.34167 0.11947 0.14918 0.0
C127 C 0.36999 0.09292 0.23184 0.0
C128 C 0.41029 0.10667 0.19115 0.0
C129 C 0.42253 0.13226 0.11466 0.0
C130 C 0.40078 0.14691 0.06765 0.0
H131 H 0.3167 0.11604 0.14962 0.0
O132 O 0.2886 0.16188 0.05807 0.0
O133 O 0.3323 0.16772 0.99448 0.0
O134 O 0.26805 0.10593 0.9561 0.0
O135 O 0.30974 0.10004 0.99655 0.0
C136 C 0.45468 0.14455 0.08765 0.0
C137 C 0.46775 0.16807 0.02907 0.0
H138 H 0.48823 0.21237 0.91402 0.0
H139 H 0.45256 0.2274 0.84054 0.0
H140 H 0.35737 0.0749 0.28555 0.0
H141 H 0.39033 0.09673 0.2206 0.0
H142 H 0.4704 0.13652 0.11359 0.0
H143 H 0.49325 0.17717 1.01289 0.0
Mn144 Mn 0.88982 0.14156 0.94929 0.0
Mn145 Mn 0.90783 0.22029 0.98271 0.0
C146 C 0.87663 0.15697 0.05939 0.0
C147 C 0.85521 0.08442 0.937 0.0
C148 C 0.9592 0.19899 0.98364 0.0
O149 O 0.88978 0.15761 0.84158 0.0
O150 O 0.90716 0.21131 0.87181 0.0
C151 C 0.8524 0.22336 0.91207 0.0
N152 N 0.87369 0.23098 0.97081 0.0
C153 C 0.87006 0.2794 1.00219 0.0
C154 C 0.84735 0.27141 0.94278 0.0
C155 C 0.83807 0.24306 0.89853 0.0
C156 C 0.88157 0.25742 0.01638 0.0
H157 H 0.84737 0.20307 0.87462 0.0
C158 C 0.89762 0.18743 0.8239 0.0
O159 O 0.88673 0.09851 0.92371 0.0
O160 O 0.84306 0.10399 0.94269 0.0
N161 N 0.90846 0.23259 0.08731 0.0
C162 C 0.92793 0.22776 0.15329 0.0
C163 C 0.95538 0.28121 0.24093 0.0
C164 C 0.94291 0.30926 0.20322 0.0
C165 C 0.91763 0.29774 0.12615 0.0
C166 C 0.90237 0.26206 0.07578 0.0
H167 H 0.93062 0.20579 0.15136 0.0
O168 O 0.88515 0.13442 0.05962 0.0
O169 O 0.87964 0.17277 0.99767 0.0
O170 O 0.94126 0.16984 0.95802 0.0
O171 O 0.94739 0.21752 0.99828 0.0
C172 C 0.90532 0.31815 0.10319 0.0
C173 C 0.88177 0.30887 0.0447 0.0
H174 H 0.83721 0.28723 0.92976 0.0
H175 H 0.82105 0.23729 0.85198 0.0
H176 H 0.97297 0.28522 0.29475 0.0
H177 H 0.95226 0.29834 0.23145 0.0
H178 H 0.91311 0.34119 0.13281 0.0
H179 H 0.87273 0.32561 0.0315 0.0
Mn180 Mn 0.90576 0.75685 0.94927 0.0
Mn181 Mn 0.82589 0.7012 0.98344 0.0
C182 C 0.88845 0.72969 0.06015 0.0
C183 C 0.96289 0.77821 0.94022 0.0
C184 C 0.85219 0.77401 0.98538 0.0
O185 O 0.89003 0.73969 0.84253 0.0
O186 O 0.83521 0.71148 0.8718 0.0
C187 C 0.82202 0.64352 0.90528 0.0
N188 N 0.81372 0.65627 0.96493 0.0
C189 C 0.76527 0.60386 0.9913 0.0
C190 C 0.77351 0.5902 0.92993 0.0
C191 C 0.80233 0.60987 0.88796 0.0
C192 C 0.78733 0.63693 1.00943 0.0
H193 H 0.84308 0.65912 0.87042 0.0
C194 C 0.85941 0.72115 0.82431 0.0
O195 O 0.94933 0.79574 0.9231 0.0
O196 O 0.94287 0.74666 0.94813 0.0
N197 N 0.81238 0.68715 0.08736 0.0
C198 C 0.81645 0.71008 0.15642 0.0
C199 C 0.76211 0.68215 0.24106 0.0
C200 C 0.73457 0.64252 0.19901 0.0
C201 C 0.74681 0.63042 0.12032 0.0
C202 C 0.78293 0.65179 0.07201 0.0
H203 H 0.83839 0.73473 0.15758 0.0
O204 O 0.91185 0.76044 0.06011 0.0
O205 O 0.87279 0.71689 0.99831 0.0
O206 O 0.87884 0.78114 0.95105 0.0
O207 O 0.83201 0.74498 1.00727 0.0
C208 C 0.72599 0.59869 0.09215 0.0
C209 C 0.73542 0.58549 0.03171 0.0
H210 H 0.75764 0.56458 0.914 0.0
H211 H 0.80859 0.59941 0.84047 0.0
H212 H 0.75746 0.69454 0.29656 0.0
H213 H 0.74525 0.66218 0.22932 0.0
H214 H 0.70229 0.58337 0.11868 0.0
H215 H 0.71841 0.56022 0.01493 0.0
Mn216 Mn 0.83473 0.61482 0.41136 0.0
Mn217 Mn 0.8103 0.67036 0.37759 0.0
C218 C 0.84457 0.64202 0.30058 0.0
C219 C 0.87063 0.59358 0.42022 0.0
C220 C 0.76398 0.5975 0.37554 0.0
O221 O 0.83605 0.63192 0.51815 0.0
O222 O 0.80937 0.66011 0.48924 0.0
C223 C 0.86388 0.72815 0.45564 0.0
N224 N 0.8429 0.71533 0.39602 0.0
C225 C 0.84665 0.76768 0.36963 0.0
C226 C 0.86846 0.78139 0.43099 0.0
C227 C 0.87768 0.76179 0.47296 0.0
C228 C 0.83578 0.73461 0.35154 0.0
H229 H 0.86939 0.7126 0.49049 0.0
C230 C 0.82396 0.65047 0.53654 0.0
O231 O 0.83954 0.57598 0.43737 0.0
O232 O 0.88204 0.62512 0.41234 0.0
N233 N 0.81084 0.68438 0.27368 0.0
C234 C 0.79216 0.66143 0.2046 0.0
C235 C 0.76576 0.68926 0.1198 0.0
C236 C 0.77766 0.72888 0.16182 0.0
C237 C 0.80184 0.74102 0.24058 0.0
C238 C 0.81661 0.71971 0.28899 0.0
H239 H 0.78954 0.6368 0.20347 0.0
O240 O 0.83732 0.61129 0.30051 0.0
O241 O 0.84161 0.65477 0.36249 0.0
O242 O 0.78353 0.5904 0.40969 0.0
O243 O 0.77275 0.62654 0.35385 0.0
C244 C 0.81262 0.77275 0.26869 0.0
C245 C 0.83513 0.78598 0.32918 0.0
H246 H 0.8781 0.807 0.4469 0.0
H247 H 0.89433 0.77229 0.52043 0.0
H248 H 0.74883 0.67685 0.06426 0.0
H249 H 0.76878 0.70922 0.13151 0.0
H250 H 0.80424 0.78804 0.24207 0.0
H251 H 0.84329 0.81124 0.34592 0.0
Mn252 Mn 0.43354 0.23067 0.40923 0.0
Mn253 Mn 0.3787 0.15073 0.37284 0.0
C254 C 0.40697 0.21368 0.29763 0.0
C255 C 0.45394 0.28753 0.42001 0.0
C256 C 0.45174 0.17774 0.37375 0.0
O257 O 0.41595 0.2144 0.51514 0.0
O258 O 0.38774 0.15964 0.48485 0.0
C259 C 0.31933 0.14448 0.44785 0.0
N260 N 0.33326 0.13738 0.38855 0.0
C261 C 0.28168 0.08859 0.35715 0.0
C262 C 0.26683 0.0957 0.41796 0.0
C263 C 0.28551 0.12403 0.46238 0.0
C264 C 0.31495 0.11122 0.34227 0.0
H265 H 0.33415 0.16514 0.48456 0.0
C266 C 0.39717 0.18376 0.53254 0.0
O267 O 0.4718 0.27432 0.43717 0.0
O268 O 0.42252 0.26719 0.41092 0.0
N269 N 0.36604 0.1381 0.26827 0.0
C270 C 0.38985 0.14403 0.2 0.0
C271 C 0.36404 0.09124 0.1103 0.0
C272 C 0.32425 0.0622 0.14956 0.0
C273 C 0.31078 0.07253 0.22897 0.0
C274 C 0.33095 0.10785 0.28067 0.0
H275 H 0.4142 0.16639 0.20112 0.0
O276 O 0.43762 0.23732 0.29862 0.0
O277 O 0.39404 0.1976 0.35894 0.0
O278 O 0.45859 0.20444 0.40751 0.0
O279 O 0.42283 0.15735 0.35157 0.0
C280 C 0.27844 0.05125 0.25303 0.0
C281 C 0.26417 0.05945 0.31356 0.0
H282 H 0.24102 0.07936 0.43152 0.0
H283 H 0.27412 0.12936 0.5095 0.0
H284 H 0.37729 0.08803 0.05458 0.0
H285 H 0.34417 0.07379 0.12037 0.0
H286 H 0.26341 0.02839 0.22261 0.0
H287 H 0.23859 0.04217 0.32737 0.0
Mn288 Mn 0.8181 0.21392 0.41068 0.0
Mn289 Mn 0.8968 0.23174 0.3777 0.0
C290 C 0.83349 0.20064 0.30069 0.0
C291 C 0.76093 0.17935 0.42287 0.0
C292 C 0.87563 0.28324 0.3765 0.0
O293 O 0.83411 0.21389 0.51845 0.0
O294 O 0.8878 0.23108 0.48858 0.0
C295 C 0.89973 0.17625 0.44822 0.0
N296 N 0.9074 0.19754 0.38954 0.0
C297 C 0.95565 0.19361 0.35799 0.0
C298 C 0.94761 0.17091 0.41737 0.0
C299 C 0.91932 0.16179 0.46167 0.0
C300 C 0.93379 0.20529 0.34393 0.0
H301 H 0.87949 0.17131 0.48567 0.0
C302 C 0.8639 0.2216 0.53632 0.0
O303 O 0.77504 0.21087 0.43607 0.0
O304 O 0.7805 0.16719 0.41724 0.0
N305 N 0.9091 0.23233 0.27311 0.0
C306 C 0.90426 0.25175 0.20706 0.0
C307 C 0.95755 0.27877 0.11902 0.0
C308 C 0.98553 0.26617 0.15665 0.0
C309 C 0.97404 0.24104 0.23392 0.0
C310 C 0.93847 0.22606 0.28453 0.0
H311 H 0.88237 0.25458 0.20906 0.0
O312 O 0.81095 0.20919 0.30036 0.0
O313 O 0.84927 0.20365 0.36248 0.0
O314 O 0.84644 0.26536 0.4019 0.0
O315 O 0.89413 0.27136 0.36221 0.0
C316 C 0.99434 0.22861 0.2568 0.0
C317 C 0.98504 0.20513 0.31536 0.0
H318 H 0.96334 0.16065 0.43031 0.0
H319 H 0.91351 0.14476 0.50817 0.0
H320 H 0.96155 0.29627 0.0651 0.0
H321 H 0.97463 0.27555 0.12843 0.0
H322 H 1.01731 0.23622 0.22705 0.0
H323 H 1.0017 0.19597 0.32848 0.0
Mn324 Mn 0.95779 0.49443 0.28367 0.0
Mn325 Mn 1.01876 0.47657 0.31559 0.0
C326 C 0.98663 0.50773 0.39338 0.0
C327 C 0.93474 0.52872 0.27228 0.0
C328 C 0.94618 0.42508 0.31704 0.0
O329 O 0.97383 0.49456 0.17553 0.0
O330 O 1.01041 0.4774 0.20486 0.0
C331 C 0.07719 0.53207 0.2451 0.0
N332 N 0.06354 0.51071 0.30366 0.0
C333 C 0.11555 0.51418 0.33421 0.0
C334 C 0.13026 0.53699 0.27503 0.0
C335 C 0.1112 0.54638 0.23129 0.0
C336 C 0.0821 0.50271 0.34874 0.0
H337 H 0.06193 0.53717 0.20799 0.0
C338 C 0.9959 0.48682 0.15734 0.0
O339 O 0.9176 0.49721 0.2589 0.0
O340 O 0.96649 0.5411 0.27766 0.0
N341 N 0.03043 0.47576 0.41998 0.0
C342 C 1.00613 0.45618 0.48589 0.0
C343 C 0.03208 0.42843 0.57244 0.0
C344 C 0.07259 0.44092 0.53434 0.0
C345 C 0.08636 0.46637 0.4576 0.0
C346 C 0.06596 0.48181 0.40797 0.0
H347 H 0.9815 0.45355 0.48431 0.0
O348 O 0.95554 0.49912 0.39418 0.0
O349 O 0.99933 0.50473 0.33134 0.0
O350 O 0.93482 0.44298 0.29215 0.0
O351 O 0.97655 0.43695 0.33107 0.0
C352 C 0.11904 0.47868 0.43434 0.0
C353 C 0.13331 0.50234 0.37614 0.0
H354 H 0.15621 0.54712 0.26178 0.0
H355 H 0.12243 0.56347 0.1849 0.0
H356 H 1.01849 0.41074 0.62606 0.0
H357 H 0.05233 0.43154 0.56269 0.0
H358 H 0.13429 0.4708 0.46349 0.0
H359 H 0.15907 0.51137 0.36268 0.0
Mn360 Mn 0.55464 0.47311 0.28443 0.0
Mn361 Mn 0.57949 0.55308 0.32093 0.0
C362 C 0.54486 0.49003 0.39605 0.0
C363 C 0.51829 0.41627 0.27339 0.0
C364 C 0.62564 0.52616 0.31979 0.0
O365 O 0.5535 0.48947 0.17852 0.0
O366 O 0.57952 0.54421 0.20894 0.0
C367 C 0.52643 0.55954 0.24677 0.0
N368 N 0.5474 0.56647 0.30595 0.0
C369 C 0.5449 0.61543 0.33779 0.0
C370 C 0.52294 0.60846 0.27721 0.0
C371 C 0.51318 0.58013 0.23261 0.0
C372 C 0.5554 0.59266 0.35232 0.0
H373 H 0.52058 0.53893 0.20981 0.0
C374 C 0.56515 0.52009 0.1612 0.0
O375 O 0.54937 0.42949 0.25634 0.0
O376 O 0.50716 0.43659 0.28249 0.0
N377 N 0.57956 0.5656 0.42558 0.0
C378 C 0.59744 0.55952 0.4934 0.0
C379 C 0.62473 0.61228 0.58319 0.0
C380 C 0.61409 0.64148 0.54445 0.0
C381 C 0.59019 0.63128 0.46535 0.0
C382 C 0.57484 0.59596 0.41357 0.0
H383 H 0.59935 0.5371 0.49196 0.0
O384 O 0.55187 0.46637 0.39497 0.0
O385 O 0.54807 0.50615 0.33481 0.0
O386 O 0.60587 0.49932 0.28651 0.0
O387 O 0.61709 0.54661 0.3414 0.0
C388 C 0.57921 0.65268 0.44168 0.0
C389 C 0.55669 0.64459 0.38144 0.0
H390 H 0.51357 0.62491 0.26392 0.0
H391 H 0.49649 0.57493 0.18561 0.0
H392 H 0.64123 0.61538 0.63862 0.0
H393 H 0.62238 0.6298 0.57337 0.0
H394 H 0.58716 0.67556 0.47216 0.0
H395 H 0.54849 0.66198 0.36791 0.0
Mn396 Mn 0.57549 0.09197 0.28398 0.0
Mn397 Mn 0.49574 0.03633 0.3197 0.0
C398 C 0.55868 0.06511 0.39525 0.0
C399 C 0.63253 0.11337 0.27419 0.0
C400 C 0.52189 0.10921 0.31896 0.0
O401 O 0.55948 0.07423 0.17786 0.0
O402 O 0.50468 0.04534 0.20769 0.0
C403 C 0.48984 0.97707 0.24479 0.0
N404 N 0.48271 0.99095 0.30413 0.0
C405 C 0.43415 0.93924 0.33577 0.0
C406 C 0.44132 0.92444 0.27494 0.0
C407 C 0.46955 0.94321 0.23037 0.0
C408 C 0.45662 0.97257 0.35048 0.0
H409 H 0.5104 0.99194 0.20795 0.0
C410 C 0.52891 0.05506 0.16022 0.0
O411 O 0.61887 0.13076 0.25669 0.0
O412 O 0.61261 0.08184 0.28279 0.0
N413 N 0.48328 0.02374 0.42425 0.0
C414 C 0.48927 0.04753 0.49261 0.0
C415 C 0.43676 0.02147 0.58306 0.0
C416 C 0.4078 0.98157 0.54397 0.0
C417 C 0.41803 0.9682 0.46421 0.0
C418 C 0.45318 0.98854 0.41207 0.0
H419 H 0.51152 0.07196 0.49129 0.0
O420 O 0.58191 0.09593 0.39473 0.0
O421 O 0.54272 0.05214 0.33377 0.0
O422 O 0.54868 0.11638 0.28533 0.0
O423 O 0.50178 0.08023 0.34097 0.0
C424 C 0.39689 0.9358 0.44025 0.0
C425 C 0.40512 0.9216 0.37957 0.0
H426 H 0.4251 0.89858 0.26149 0.0
H427 H 0.47491 0.93185 0.18323 0.0
H428 H 0.43362 0.03468 0.63893 0.0
H429 H 0.41936 1.00152 0.57314 0.0
H430 H 0.37414 0.92065 0.47088 0.0
H431 H 0.38796 0.89598 0.36587 0.0
Mn432 Mn 0.50314 0.94844 0.74446 0.0
Mn433 Mn 0.48572 1.00977 0.71414 0.0
C434 C 0.51648 0.97765 0.63529 0.0
C435 C 0.53688 0.92467 0.75439 0.0
C436 C 0.43404 0.93744 0.71037 0.0
O437 O 0.50335 0.96412 0.85321 0.0
O438 O 0.48564 1.00029 0.82471 0.0
C439 C 0.54168 0.06656 0.78807 0.0
N440 N 0.52042 0.05405 0.72891 0.0
C441 C 0.52505 0.10684 0.70292 0.0
C442 C 0.54771 0.12041 0.76284 0.0
C443 C 0.55652 0.10039 0.80452 0.0
C444 C 0.51324 0.07358 0.68531 0.0
H445 H 0.54629 0.05053 0.82366 0.0
C446 C 0.49515 0.98579 0.87207 0.0
O447 O 0.50538 0.90781 0.76787 0.0
O448 O 0.5496 0.9565 0.7499 0.0
N449 N 0.48556 0.02281 0.61021 0.0
C450 C 0.46517 0.9994 0.54344 0.0
C451 C 0.43799 0.02731 0.46155 0.0
C452 C 0.45161 0.06758 0.50235 0.0
C453 C 0.47749 0.08004 0.57847 0.0
C454 C 0.49252 0.05853 0.625 0.0
H455 H 0.46192 0.97451 0.54287 0.0
O456 O 0.50769 0.94652 0.63379 0.0
O457 O 0.51371 0.99021 0.69774 0.0
O458 O 0.45182 0.92608 0.73609 0.0
O459 O 0.44595 0.9678 0.69599 0.0
C460 C 0.48974 0.1122 0.60547 0.0
C461 C 0.51346 0.12543 0.66373 0.0
H462 H 0.5581 0.14617 0.77833 0.0
H463 H 0.5735 0.11072 0.85147 0.0
H464 H 0.41981 1.01456 0.40807 0.0
H465 H 0.44169 0.04761 0.47289 0.0
H466 H 0.48153 0.12781 0.57972 0.0
H467 H 0.52251 0.15092 0.67992 0.0
Mn468 Mn 0.10239 0.56518 0.74352 0.0
Mn469 Mn 0.0411 0.48677 0.7104 0.0
C470 C 0.07364 0.55004 0.63372 0.0
C471 C 0.12582 0.62243 0.7551 0.0
C472 C 0.11353 0.50721 0.70917 0.0
O473 O 0.08609 0.54933 0.85137 0.0
O474 O 0.04937 0.49573 0.82136 0.0
C475 C 0.98272 0.48408 0.78125 0.0
N476 N 0.99637 0.47642 0.72237 0.0
C477 C 0.94423 0.4283 0.69061 0.0
C478 C 0.92954 0.43634 0.75016 0.0
C479 C 0.94867 0.46456 0.79468 0.0
C480 C 0.97776 0.45007 0.67661 0.0
H481 H 0.998 0.50425 0.81887 0.0
C482 C 0.0638 0.51963 0.86918 0.0
O483 O 0.14279 0.60789 0.76863 0.0
O484 O 0.09403 0.60331 0.74988 0.0
N485 N 1.0295 0.47469 0.60576 0.0
C486 C 0.05376 0.47963 0.53942 0.0
C487 C 1.0275 0.42656 0.45056 0.0
C488 C 0.98693 0.39857 0.48822 0.0
C489 C 0.9733 0.40993 0.56598 0.0
C490 C 0.99388 0.44537 0.61707 0.0
H491 H 0.07847 0.50146 0.54155 0.0
O492 O 0.10483 0.57218 0.63309 0.0
O493 O 0.0608 0.53434 0.69554 0.0
O494 O 0.12497 0.53638 0.73484 0.0
O495 O 0.08319 0.48896 0.69462 0.0
C496 C 0.94055 0.38968 0.58885 0.0
C497 C 0.92635 0.39897 0.64769 0.0
H498 H 0.90354 0.42067 0.76306 0.0
H499 H 0.93744 0.47038 0.84132 0.0
H500 H 0.041 0.42265 0.39632 0.0
H501 H 1.0072 0.40948 0.45991 0.0
H502 H 0.92519 0.36679 0.55884 0.0
H503 H 0.90054 0.38237 0.66077 0.0
Mn504 Mn 0.48557 0.54712 0.74673 0.0
Mn505 Mn 0.56408 0.56391 0.71569 0.0
C506 C 0.50121 0.53359 0.63733 0.0
C507 C 0.42818 0.51337 0.75712 0.0
C508 C 0.54382 0.61596 0.71228 0.0
O509 O 0.50102 0.54694 0.85519 0.0
O510 O 0.55477 0.56408 0.82636 0.0
C511 C 0.56463 0.50777 0.78914 0.0
N512 N 0.5734 0.52899 0.72997 0.0
C513 C 0.62117 0.52372 0.70284 0.0
C514 C 0.61207 0.50114 0.76282 0.0
C515 C 0.58342 0.49267 0.80509 0.0
C516 C 0.59993 0.53585 0.68585 0.0
H517 H 0.54413 0.5034 0.82513 0.0
C518 C 0.53079 0.55484 0.87382 0.0
O519 O 0.4427 0.5449 0.77051 0.0
O520 O 0.44734 0.5007 0.7526 0.0
N521 N 0.5771 0.56391 0.61158 0.0
C522 C 0.57409 0.58428 0.54495 0.0
C523 C 0.62881 0.61062 0.46156 0.0
C524 C 0.65526 0.59663 0.50159 0.0
C525 C 0.64192 0.57101 0.57805 0.0
C526 C 0.60563 0.55653 0.62556 0.0
H527 H 0.55263 0.58785 0.54496 0.0
O528 O 0.47896 0.54252 0.63624 0.0
O529 O 0.51657 0.53627 0.69958 0.0
O530 O 0.51465 0.59841 0.73805 0.0
O531 O 0.56211 0.60381 0.698 0.0
C532 C 0.66166 0.5585 0.60451 0.0
C533 C 0.65117 0.53492 0.66298 0.0
H534 H 0.62729 0.49054 0.77788 0.0
H535 H 0.57675 0.47573 0.85205 0.0
H536 H 0.6342 0.62868 0.40795 0.0
H537 H 0.64529 0.60669 0.47243 0.0
H538 H 0.68534 0.56641 0.57823 0.0
H539 H 0.66748 0.52566 0.67874 0.0
Mn540 Mn 0.62475 0.82621 0.61534 0.0
Mn541 Mn 0.68645 0.80928 0.6457 0.0
C542 C 0.65401 0.83976 0.72451 0.0
C543 C 0.60099 0.85995 0.60526 0.0
C544 C 0.61419 0.75731 0.64932 0.0
O545 O 0.64037 0.82636 0.50664 0.0
O546 O 0.67705 0.80927 0.53514 0.0
C547 C 0.74325 0.86532 0.57233 0.0
N548 N 0.73072 0.84409 0.63144 0.0
C549 C 0.78357 0.84891 0.65806 0.0
C550 C 0.79716 0.87154 0.59819 0.0
C551 C 0.77712 0.88024 0.5562 0.0
C552 C 0.75025 0.83698 0.67527 0.0
H553 H 0.72722 0.86985 0.5365 0.0
C554 C 0.66227 0.81847 0.48781 0.0
O555 O 0.58407 0.82842 0.59197 0.0
O556 O 0.63281 0.87265 0.60965 0.0
N557 N 0.69937 0.8091 0.74972 0.0
C558 C 0.6759 0.78873 0.81632 0.0
C559 C 0.70394 0.7619 0.899 0.0
C560 C 0.74432 0.77566 0.8587 0.0
C561 C 0.75677 0.80142 0.78247 0.0
C562 C 0.73518 0.81623 0.73543 0.0
H563 H 0.65095 0.78534 0.81653 0.0
O564 O 0.62286 0.83087 0.72592 0.0
O565 O 0.66662 0.83701 0.66211 0.0
O566 O 0.60254 0.7749 0.62398 0.0
O567 O 0.64461 0.76943 0.66331 0.0
C568 C 0.789 0.8138 0.75588 0.0
C569 C 0.80221 0.83746 0.69758 0.0
H570 H 0.82295 0.88199 0.58297 0.0
H571 H 0.78746 0.8972 0.50929 0.0
H572 H 0.69119 0.74378 0.95249 0.0
H573 H 0.7243 0.76569 0.88795 0.0
H574 H 0.80466 0.80572 0.78195 0.0
H575 H 0.82775 0.84659 0.68169 0.0
Mn576 Mn 0.22347 0.80734 0.61588 0.0
Mn577 Mn 0.24009 0.8856 0.64963 0.0
C578 C 0.20956 0.82219 0.72584 0.0
C579 C 0.18977 0.75011 0.60381 0.0
C580 C 0.29235 0.86548 0.65019 0.0
O581 O 0.22318 0.82334 0.50819 0.0
O582 O 0.23931 0.87675 0.53865 0.0
C583 C 0.18441 0.88847 0.57976 0.0
N584 N 0.20568 0.89595 0.6385 0.0
C585 C 0.20178 0.94413 0.67108 0.0
C586 C 0.17906 0.93624 0.61172 0.0
C587 C 0.16995 0.90809 0.56685 0.0
C588 C 0.21349 0.92227 0.68452 0.0
H589 H 0.17952 0.86837 0.54182 0.0
C590 C 0.23019 0.85296 0.49064 0.0
O591 O 0.2213 0.76467 0.59044 0.0
O592 O 0.17707 0.76922 0.60913 0.0
N593 N 0.24061 0.89747 0.75443 0.0
C594 C 0.25983 0.89228 0.82046 0.0
C595 C 0.28655 0.9451 0.9101 0.0
C596 C 0.27407 0.97326 0.8731 0.0
C597 C 0.24917 0.96216 0.79536 0.0
C598 C 0.23435 0.92685 0.74375 0.0
H599 H 0.2627 0.87043 0.81785 0.0
O600 O 0.21873 0.80012 0.72621 0.0
O601 O 0.21246 0.83799 0.66419 0.0
O602 O 0.27482 0.83624 0.62483 0.0
O603 O 0.28005 0.88358 0.66456 0.0
C604 C 0.23671 0.9825 0.77303 0.0
C605 C 0.21327 0.97339 0.71433 0.0
H606 H 0.16878 0.952 0.59922 0.0
H607 H 0.15293 0.90242 0.52033 0.0
H608 H 0.30388 0.94882 0.96425 0.0
H609 H 0.28336 0.96223 0.90111 0.0
H610 H 0.24424 1.00533 0.80337 0.0
H611 H 0.20408 0.99006 0.70167 0.0
Mn612 Mn 0.24278 0.42522 0.61688 0.0
Mn613 Mn 0.16422 0.36398 0.64903 0.0
C614 C 0.2274 0.39632 0.72643 0.0
C615 C 0.30016 0.44881 0.60606 0.0
C616 C 0.18475 0.43639 0.65049 0.0
O617 O 0.22705 0.40898 0.50872 0.0
O618 O 0.17337 0.37231 0.53822 0.0
C619 C 0.16143 0.30557 0.57812 0.0
N620 N 0.15375 0.31923 0.63694 0.0
C621 C 0.10538 0.2672 0.66793 0.0
C622 C 0.11346 0.25248 0.60847 0.0
C623 C 0.14181 0.27155 0.56436 0.0
C624 C 0.12727 0.30067 0.68231 0.0
H625 H 0.1817 0.32082 0.54077 0.0
C626 C 0.19732 0.38678 0.49061 0.0
O627 O 0.28554 0.46569 0.59238 0.0
O628 O 0.28107 0.41701 0.61104 0.0
N629 N 0.15192 0.35236 0.75352 0.0
C630 C 0.15675 0.37664 0.81975 0.0
C631 C 0.10337 0.35062 0.90747 0.0
C632 C 0.07535 0.3101 0.86946 0.0
C633 C 0.08688 0.29637 0.79211 0.0
C634 C 0.12252 0.31682 0.74176 0.0
H635 H 0.17868 0.4013 0.81794 0.0
O636 O 0.24956 0.4275 0.72743 0.0
O637 O 0.21179 0.38359 0.66439 0.0
O638 O 0.21396 0.44782 0.62523 0.0
O639 O 0.16645 0.40606 0.66484 0.0
C640 C 0.06656 0.26367 0.76893 0.0
C641 C 0.07591 0.24942 0.71032 0.0
H642 H 0.09771 0.22652 0.59529 0.0
H643 H 0.14764 0.26031 0.51777 0.0
H644 H 0.09937 0.36418 0.96148 0.0
H645 H 0.08625 0.33036 0.89787 0.0
H646 H 0.04354 0.24839 0.79848 0.0
H647 H 0.05924 0.22364 0.69696 0.0
C648 C 0.21113 0.36251 0.37916 0.0
C649 C 0.19012 0.37229 0.41334 0.0
H650 H 0.21833 0.33641 0.28756 0.0
C651 C 0.15921 0.36221 0.37986 0.0
H652 H 0.23467 0.369 0.40476 0.0
C653 C 0.14987 0.34358 0.31301 0.0
C654 C 0.17061 0.33336 0.27934 0.0
H655 H 0.14214 0.36868 0.4057 0.0
H656 H 0.12637 0.33722 0.28733 0.0
C657 C 0.20135 0.34301 0.31331 0.0
C658 C 0.6861 0.85602 0.37593 0.0
C659 C 0.67627 0.8253 0.40999 0.0
H660 H 0.71245 0.88933 0.28517 0.0
C661 C 0.68601 0.80423 0.37588 0.0
H662 H 0.67989 0.87324 0.4019 0.0
C663 C 0.70458 0.81337 0.30884 0.0
C664 C 0.7151 0.84442 0.27566 0.0
H665 H 0.67949 0.78072 0.40161 0.0
H666 H 0.71095 0.7962 0.28319 0.0
C667 C 0.70555 0.8656 0.31012 0.0
C668 C 0.24127 0.89189 0.38281 0.0
C669 C 0.22257 0.86001 0.41367 0.0
H670 H 0.24686 0.92484 0.2923 0.0
C671 C 0.19321 0.83719 0.37685 0.0
H672 H 0.26365 0.91027 0.41053 0.0
C673 C 0.18275 0.84614 0.31113 0.0
C674 C 0.2017 0.8779 0.28001 0.0
H675 H 0.17779 0.81273 0.40015 0.0
H676 H 0.16041 0.82783 0.28313 0.0
C677 C 0.2313 0.9005 0.31608 0.0
C678 C 0.37046 0.14429 0.64131 0.0
C679 C 0.38088 0.17535 0.60825 0.0
H680 H 0.3454 0.11152 0.73395 0.0
C681 C 0.3712 0.1964 0.64283 0.0
H682 H 0.37693 0.1272 0.61559 0.0
C683 C 0.35172 0.1867 0.70857 0.0
C684 C 0.34198 0.15599 0.74251 0.0
H685 H 0.37803 0.22015 0.61801 0.0
H686 H 0.3454 0.20385 0.73456 0.0
C687 C 0.35186 0.13503 0.70834 0.0
C688 C 0.90189 0.23514 0.64718 0.0
C689 C 0.87109 0.21427 0.6133 0.0
H690 H 0.93454 0.24294 0.74 0.0
C691 C 0.85014 0.18341 0.64678 0.0
H692 H 0.9189 0.25873 0.6218 0.0
C693 C 0.85984 0.17363 0.7124 0.0
C694 C 0.89044 0.19477 0.74687 0.0
H695 H 0.8267 0.16635 0.62078 0.0
H696 H 0.84291 0.14999 0.73762 0.0
C697 C 0.91115 0.2258 0.71389 0.0
C698 C 0.87203 0.69553 0.71317 0.0
C699 C 0.85108 0.70529 0.74784 0.0
H700 H 0.8793 0.66944 0.622 0.0
C701 C 0.82013 0.69517 0.71419 0.0
H702 H 0.89568 0.70209 0.73829 0.0
C703 C 0.8108 0.67658 0.64691 0.0
C704 C 0.83157 0.66638 0.61297 0.0
H705 H 0.8031 0.70171 0.73991 0.0
H706 H 0.78725 0.67011 0.62144 0.0
C707 C 0.86227 0.67606 0.64734 0.0
C708 C 1.01914 0.47226 0.04556 0.0
C709 C 1.01026 0.49387 0.08008 0.0
H710 H 0.04321 0.46353 0.95225 0.0
C711 C 1.02122 0.52503 0.04713 0.0
H712 H 1.01177 0.44841 0.07057 0.0
C713 C 0.0407 0.53438 0.98136 0.0
C714 C 0.04915 0.51253 0.94624 0.0
H715 H 1.01569 0.54263 0.07368 0.0
H716 H 0.04826 0.55831 0.95661 0.0
C717 C 0.03776 0.48121 0.97876 0.0
C718 C 0.52675 0.50734 0.05076 0.0
C719 C 0.55735 0.52848 0.08549 0.0
H720 H 0.49366 0.49985 0.95892 0.0
C721 C 0.57789 0.55962 0.0527 0.0
H722 H 0.50992 0.48353 0.07539 0.0
C723 C 0.56858 0.56889 0.98577 0.0
C724 C 0.53788 0.54786 0.95146 0.0
H725 H 0.60133 0.57676 0.07857 0.0
H726 H 0.58555 0.59247 0.96033 0.0
C727 C 0.517 0.51705 0.9851 0.0
C728 C 0.48971 0.0281 0.05092 0.0
C729 C 0.52074 0.03872 0.08444 0.0
H730 H 0.4572 1.00292 0.95784 0.0
C731 C 0.54202 0.02923 0.05025 0.0
H732 H 0.47246 0.03442 0.07632 0.0
C733 C 0.53257 1.00976 0.98438 0.0
C734 C 0.50187 0.99984 0.94995 0.0
H735 H 0.56575 0.03621 0.07544 0.0
H736 H 0.54988 1.00361 0.95866 0.0
C737 C 0.4807 1.00951 0.98382 0.0
C738 C 0.22229 0.36477 0.91968 0.0
C739 C 0.20227 0.33079 0.90507 0.0
H740 H 0.24506 0.4132 0.87234 0.0
C741 C 0.19851 0.31854 0.83191 0.0
H742 H 0.22772 0.37434 0.97667 0.0
C743 C 0.21023 0.34068 0.7728 0.0
C744 C 0.22421 0.37467 0.78744 0.0
H745 H 0.18454 0.29226 0.82017 0.0
H746 H 0.20606 0.33111 0.7158 0.0
C747 C 0.23273 0.38692 0.86058 0.0
C748 C 0.70962 0.87808 0.77173 0.0
C749 C 0.67567 0.85763 0.78602 0.0
H750 H 0.75811 0.90118 0.81933 0.0
C751 C 0.66338 0.85282 0.85923 0.0
H752 H 0.71915 0.8841 0.71479 0.0
C753 C 0.68548 0.86407 0.9184 0.0
C754 C 0.71958 0.87897 0.9038 0.0
H755 H 0.63711 0.83837 0.87079 0.0
H756 H 0.67577 0.85892 0.97531 0.0
C757 C 0.7318 0.88829 0.83091 0.0
C758 C 0.18216 0.82601 0.91921 0.0
C759 C 0.16805 0.84593 0.9052 0.0
H760 H 0.20834 0.8038 0.87115 0.0
C761 C 0.15979 0.85002 0.83218 0.0
H762 H 0.18612 0.82032 0.97604 0.0
C763 C 0.17063 0.83878 0.77272 0.0
C764 C 0.19078 0.82494 0.78693 0.0
H765 H 0.14736 0.86392 0.82089 0.0
H766 H 0.16539 0.8432 0.71586 0.0
C767 C 0.19427 0.81604 0.85978 0.0
C768 C 0.39746 0.21911 0.16339 0.0
C769 C 0.38522 0.20987 0.23629 0.0
H770 H 0.38487 0.21472 0.04721 0.0
C771 C 0.3511 0.19484 0.25078 0.0
H772 H 0.42378 0.23206 0.15191 0.0
C773 C 0.32903 0.18352 0.19156 0.0
C774 C 0.34135 0.18833 0.11838 0.0
H775 H 0.34136 0.18971 0.30767 0.0
H776 H 0.30276 0.16906 0.20307 0.0
C777 C 0.37531 0.20876 0.10414 0.0
C778 C 0.86234 0.15184 0.19378 0.0
C779 C 0.85843 0.16034 0.12086 0.0
H780 H 0.8551 0.15695 0.31013 0.0
C781 C 0.83847 0.17442 0.10687 0.0
H782 H 0.8763 0.13947 0.205 0.0
C783 C 0.82814 0.18613 0.16638 0.0
C784 C 0.83677 0.18234 0.23928 0.0
H785 H 0.83299 0.17862 0.05004 0.0
H786 H 0.8158 0.20011 0.15514 0.0
C787 C 0.8508 0.16235 0.25331 0.0
C788 C 0.8698 0.67384 0.10694 0.0
C789 C 0.8842 0.7079 0.12163 0.0
H790 H 0.84445 0.62538 0.1542 0.0
C791 C 0.89233 0.7201 0.19483 0.0
H792 H 0.86541 0.66422 0.04991 0.0
C793 C 0.88165 0.69792 0.25385 0.0
C794 C 0.86213 0.66385 0.23914 0.0
H795 H 0.90467 0.74638 0.20656 0.0
H796 H 0.88673 0.70754 0.31088 0.0
C797 C 0.85827 0.65166 0.16596 0.0
C798 C 0.0423 0.54572 0.44046 0.0
C799 C 1.00828 0.52586 0.45476 0.0
H800 H 0.09068 0.56804 0.48813 0.0
C801 C 0.99598 0.52191 0.52788 0.0
H802 H 0.05191 0.55128 0.38354 0.0
C803 C 1.01808 0.53326 0.58716 0.0
C804 C 0.05206 0.5471 0.5727 0.0
H805 H 0.96968 0.50805 0.5394 0.0
H806 H 1.00846 0.52894 0.6441 0.0
C807 C 0.06439 0.55582 0.49971 0.0
C808 C 0.51823 0.49504 0.58976 0.0
C809 C 0.50487 0.51564 0.57572 0.0
H810 H 0.5432 0.47153 0.54166 0.0
C811 C 0.49731 0.52045 0.50265 0.0
H812 H 0.52181 0.48905 0.64662 0.0
C813 C 0.50791 0.50898 0.44327 0.0
C814 C 0.52692 0.49385 0.45752 0.0
H815 H 0.4856 0.53502 0.49132 0.0
H816 H 0.50329 0.51411 0.38645 0.0
C817 C 0.52991 0.48458 0.53035 0.0
C818 C 0.52931 0.98712 0.50049 0.0
C819 C 0.53422 0.99935 0.5738 0.0
H820 H 0.53516 0.99957 0.3845 0.0
C821 C 0.55459 0.03331 0.58825 0.0
H822 H 0.51492 0.96086 0.48879 0.0
C823 C 0.56464 0.05552 0.52921 0.0
C824 C 0.55523 0.04334 0.45627 0.0
H825 H 0.56068 0.04281 0.64523 0.0
H826 H 0.57749 0.08181 0.54097 0.0
C827 C 0.54038 1.00925 0.44145 0.0
C828 C 0.20306 0.20624 0.03346 0.0
C829 C 0.22135 0.2398 0.05424 0.0
H830 H 0.20254 0.16529 0.97766 0.0
C831 C 0.25476 0.2579 0.03194 0.0
H832 H 0.17713 0.19153 0.04804 0.0
C833 C 0.26946 0.24271 0.99087 0.0
C834 C 0.25096 0.20919 0.96959 0.0
H835 H 0.26949 0.28393 0.04555 0.0
H836 H 0.29542 0.25716 0.97644 0.0
C837 C 0.21752 0.19128 0.99142 0.0
C838 C 0.80331 0.03505 0.98804 0.0
C839 C 0.83711 0.05029 0.96901 0.0
H840 H 0.76167 0.99366 0.04078 0.0
C841 C 0.85503 0.03508 0.99293 0.0
H842 H 0.78885 0.04634 0.97191 0.0
C843 C 0.83988 1.00584 0.03504 0.0
C844 C 0.80606 0.99031 0.05356 0.0
H845 H 0.88121 0.04627 0.98099 0.0
H846 H 0.85469 0.99496 0.05142 0.0
C847 C 0.78788 1.0052 0.02894 0.0
C848 C 1.01183 0.77625 0.99672 0.0
C849 C 0.99703 0.7946 0.97266 0.0
H850 H 0.05304 0.77692 0.05285 0.0
C851 C 1.01286 0.82843 0.99121 0.0
H852 H 1.00008 0.75003 0.98482 0.0
C853 C 0.04231 0.84344 0.03281 0.0
C854 C 0.05741 0.82534 0.05622 0.0
H855 H 1.00207 0.84338 0.97523 0.0
H856 H 0.05371 0.86963 0.0448 0.0
C857 C 0.04186 0.79153 0.03713 0.0
C858 C 0.83549 0.81431 0.94047 0.0
C859 C 0.84315 0.79968 1.00023 0.0
H860 H 0.81093 0.84091 0.90732 0.0
C861 C 0.83667 0.8054 0.07456 0.0
H862 H 0.84016 0.81007 0.88283 0.0
C863 C 0.82083 0.8237 0.08869 0.0
C864 C 0.81057 0.83587 0.02859 0.0
H865 H 0.84249 0.79437 0.12143 0.0
H866 H 0.81444 0.8263 0.14602 0.0
C867 C 0.81888 0.8319 0.9545 0.0
C868 C 0.25752 1.00075 0.02557 0.0
C869 C 0.22288 0.98313 0.03143 0.0
H870 H 0.30103 0.04516 0.99952 0.0
C871 C 0.20575 1.0006 0.02034 0.0
H872 H 0.27211 0.98889 0.03463 0.0
C873 C 0.22335 0.03488 1.00301 0.0
C874 C 0.25815 0.05184 0.9959 0.0
H875 H 0.17904 0.98783 0.0241 0.0
H876 H 0.20989 0.048 0.99563 0.0
C877 C 0.27449 0.03377 1.0061 0.0
C878 C 1.01368 0.24893 1.00404 0.0
C879 C 0.99567 0.21439 0.99604 0.0
H880 H 0.05868 0.2919 0.02966 0.0
C881 C 1.01282 0.19679 1.00448 0.0
H882 H 1.00209 0.26388 0.99698 0.0
C883 C 0.0472 0.21381 0.02115 0.0
C884 C 0.06461 0.24853 0.02996 0.0
H885 H 0.99976 0.17013 0.99896 0.0
H886 H 0.06006 0.2 0.02636 0.0
C887 C 0.04686 0.26536 0.02234 0.0
C888 C 0.87058 0.54345 0.36898 0.0
C889 C 0.8885 0.57727 0.38772 0.0
H890 H 0.87038 0.50232 0.31521 0.0
C891 C 0.92167 0.59565 0.36382 0.0
H892 H 0.84483 0.52848 0.38482 0.0
C893 C 0.93653 0.58041 0.32341 0.0
C894 C 0.91835 0.54662 0.30414 0.0
H895 H 0.93608 0.62185 0.37588 0.0
H896 H 0.96234 0.59503 0.30782 0.0
C897 C 0.88512 0.5285 0.32736 0.0
C898 C 0.5183 0.36661 0.32603 0.0
C899 C 0.50025 0.3821 0.30524 0.0
H900 H 0.51854 0.32616 0.38134 0.0
C901 C 0.46673 0.36695 0.32668 0.0
H902 H 0.5443 0.37768 0.31218 0.0
C903 C 0.45166 0.33681 0.36662 0.0
C904 C 0.47004 0.32169 0.38813 0.0
H905 H 0.45221 0.37847 0.31297 0.0
H906 H 0.42562 0.32527 0.38027 0.0
C907 C 0.5036 0.33721 0.36742 0.0
C908 C 0.68216 0.16383 0.32515 0.0
C909 C 0.66661 0.12999 0.3068 0.0
H910 H 0.72269 0.20525 0.3789 0.0
C911 C 0.68156 0.11186 0.33141 0.0
H912 H 0.67124 0.1786 0.30876 0.0
C913 C 0.71148 0.12737 0.37215 0.0
C914 C 0.72675 0.16119 0.39101 0.0
H915 H 0.67001 0.08564 0.31969 0.0
H916 H 0.72282 0.11295 0.38827 0.0
C917 C 0.71149 0.17906 0.36709 0.0
C918 C 0.50212 0.14676 0.27215 0.0
C919 C 0.51233 0.1346 0.33239 0.0
H920 H 0.47483 0.17056 0.23877 0.0
C921 C 0.50712 0.14173 0.40661 0.0
H922 H 0.50565 0.1413 0.21463 0.0
C923 C 0.49013 0.15894 0.42045 0.0
C924 C 0.47747 0.16864 0.36023 0.0
H925 H 0.51475 0.13244 0.45383 0.0
H926 H 0.48475 0.16252 0.478 0.0
C927 C 0.48449 0.16334 0.28598 0.0
C928 C 0.87355 0.33698 0.35601 0.0
C929 C 0.89107 0.3197 0.36367 0.0
H930 H 0.8769 0.3843 0.33473 0.0
C931 C 0.92556 0.33756 0.35458 0.0
H932 H 0.84694 0.32405 0.36242 0.0
C933 C 0.94201 0.37068 0.33593 0.0
C934 C 0.9253 0.38858 0.32927 0.0
H935 H 0.94049 0.32591 0.3611 0.0
H936 H 0.9685 0.38235 0.32774 0.0
C937 C 0.89063 0.37133 0.33917 0.0
C938 C 0.68307 0.54796 0.27221 0.0
C939 C 0.66058 0.53569 0.3323 0.0
H940 H 0.73405 0.57731 0.23947 0.0
C941 C 0.6728 0.5395 0.40634 0.0
H942 H 0.67412 0.5455 0.21494 0.0
C943 C 0.70697 0.55701 0.42033 0.0
C944 C 0.72932 0.57179 0.36062 0.0
H945 H 0.65581 0.53044 0.45355 0.0
H946 H 0.71583 0.56112 0.47794 0.0
C947 C 0.71717 0.56619 0.28631 0.0
C948 C 0.60281 0.9112 0.65903 0.0
C949 C 0.58448 0.87767 0.63765 0.0
H950 H 0.60255 0.95229 0.71363 0.0
C951 C 0.551 0.85964 0.65919 0.0
H952 H 0.62878 0.92576 0.64483 0.0
C953 C 0.53635 0.87449 0.70102 0.0
C954 C 0.55448 0.90805 0.72193 0.0
H955 H 0.53614 0.83365 0.64534 0.0
H956 H 0.51041 0.85968 0.71537 0.0
C957 C 0.58792 0.92627 0.69992 0.0
C958 C 0.19042 0.70084 0.6582 0.0
C959 C 0.17222 0.71607 0.63646 0.0
H960 H 0.1907 0.66066 0.71534 0.0
C961 C 0.13879 0.70105 0.65838 0.0
H962 H 0.21637 0.71188 0.64396 0.0
C963 C 0.12395 0.67145 0.70008 0.0
C964 C 0.14233 0.65644 0.72231 0.0
H965 H 0.12414 0.71236 0.64405 0.0
H966 H 0.09797 0.66014 0.7142 0.0
C967 C 0.17581 0.67169 0.70085 0.0
C968 C 0.37876 0.51376 0.70234 0.0
C969 C 0.39411 0.49569 0.72431 0.0
H970 H 0.33841 0.51378 0.64525 0.0
C971 C 0.37907 0.4622 0.70277 0.0
H972 H 0.3898 0.53974 0.71628 0.0
C973 C 0.34936 0.44718 0.66128 0.0
C974 C 0.33423 0.46543 0.63885 0.0
H975 H 0.39045 0.44762 0.71729 0.0
H976 H 0.33805 0.42117 0.64748 0.0
C977 C 0.34951 0.49897 0.65991 0.0
C978 C 0.18644 0.49189 0.67212 0.0
C979 C 0.16904 0.45721 0.66272 0.0
H980 H 0.18285 0.53566 0.69488 0.0
C981 C 0.13445 0.44052 0.66961 0.0
H982 H 0.21313 0.50558 0.66748 0.0
C983 C 0.11775 0.45708 0.68765 0.0
C984 C 0.13441 0.49159 0.69645 0.0
H985 H 0.11969 0.41401 0.66192 0.0
H986 H 0.09117 0.44227 0.69405 0.0
C987 C 0.16918 0.50903 0.68875 0.0
C988 C 0.54177 0.6695 0.69013 0.0
C989 C 0.55932 0.65231 0.69874 0.0
H990 H 0.54505 0.71666 0.66727 0.0
C991 C 0.59381 0.67012 0.68979 0.0
H992 H 0.51515 0.65657 0.69643 0.0
C993 C 0.61021 0.70311 0.67001 0.0
C994 C 0.59345 0.72092 0.66249 0.0
H995 H 0.60871 0.6585 0.69727 0.0
H996 H 0.63668 0.71477 0.66158 0.0
C997 C 0.5588 0.70373 0.67242 0.0
C998 C 0.34644 0.86426 0.67094 0.0
C999 C 0.32883 0.8814 0.66295 0.0
H1000 H 0.394 0.86824 0.69279 0.0
C1001 C 0.34633 0.91593 0.67181 0.0
H1002 H 0.33378 0.83764 0.66479 0.0
C1003 C 0.37947 0.93275 0.69049 0.0
C1004 C 0.39765 0.91637 0.69755 0.0
H1005 H 0.33434 0.93054 0.66523 0.0
H1006 H 0.39091 0.95922 0.6987 0.0
C1007 C 0.38076 0.8817 0.68794 0.0
loop_
_geom_bond_atom_site_label_1
_geom_bond_atom_site_label_2
_geom_bond_distance
_geom_bond_site_symmetry_2
_ccdc_geom_bond_type
Mn0 O5 2.095 . S
Mn0 O15 2.162 . S
Mn0 O16 2.297 . S
Mn0 O24 2.385 1_554 S
Mn0 O25 2.209 . S
Mn0 O26 2.094 . S
Mn1 O6 2.121 . S
Mn1 N8 2.257 . S
Mn1 N17 2.282 1_554 S
Mn1 O25 2.215 . S
Mn1 O27 2.117 . S
C2 O24 1.234 . S
C2 O25 1.283 1_556 S
C3 O15 1.281 . S
C3 O16 1.236 . S
C4 O26 1.240 . S
C4 O27 1.264 . S
O5 Mn0 2.095 . S
O5 C14 1.250 . S
O6 Mn1 2.121 . S
O6 C14 1.258 . S
C7 N8 1.326 . S
C7 C11 1.460 . S
C7 H13 0.929 . S
N8 Mn1 2.257 . S
N8 C7 1.326 . S
N8 C12 1.362 1_554 S
C9 C10 1.258 1_556 S
C9 C12 1.431 . S
C9 C29 1.449 . S
C10 C9 1.258 1_554 S
C10 C11 1.477 . S
C10 H30 0.931 1_554 S
C11 C7 1.460 . S
C11 C10 1.477 . S
C11 H31 0.930 . S
C12 N8 1.362 1_556 S
C12 C9 1.431 . S
C12 C22 1.476 . S
H13 C7 0.929 . S
C14 O5 1.250 . S
C14 O6 1.258 . S
O15 Mn0 2.162 . S
O15 C3 1.281 . S
O16 Mn0 2.297 . S
O16 C3 1.236 . S
N17 Mn1 2.282 1_556 S
N17 C18 1.328 . S
N17 C22 1.318 . S
C18 N17 1.328 . S
C18 C19 1.457 . S
C18 H23 0.929 . S
C19 C18 1.457 . S
C19 C20 1.291 . S
C19 H32 0.931 . S
C20 C19 1.291 . S
C20 C21 1.373 . S
C20 H33 0.929 . S
C21 C20 1.373 . S
C21 C22 1.396 . S
C21 C28 1.403 . S
C22 C12 1.476 . S
C22 N17 1.318 . S
C22 C21 1.396 . S
H23 C18 0.929 . S
O24 Mn0 2.385 1_556 S
O24 C2 1.234 . S
O25 Mn0 2.209 . S
O25 Mn1 2.215 . S
O25 C2 1.283 1_554 S
O26 Mn0 2.094 . S
O26 C4 1.240 . S
O27 Mn1 2.117 . S
O27 C4 1.264 . S
C28 C21 1.403 . S
C28 C29 1.399 . S
C28 H34 0.929 . S
C29 C9 1.449 . S
C29 C28 1.399 . S
C29 H35 0.930 . S
H30 C10 0.931 1_556 S
H31 C11 0.930 . S
H32 C19 0.931 . S
H33 C20 0.929 . S
H34 C28 0.929 . S
H35 C29 0.930 . S
Mn36 O41 2.095 . S
Mn36 O51 2.162 . S
Mn36 O52 2.297 . S
Mn36 O60 2.385 1_554 S
Mn36 O61 2.209 . S
Mn36 O62 2.094 . S
Mn37 O42 2.121 . S
Mn37 N44 2.257 . S
Mn37 N53 2.282 1_554 S
Mn37 O61 2.215 . S
Mn37 O63 2.117 . S
C38 O60 1.234 . S
C38 O61 1.283 1_556 S
C39 O51 1.281 . S
C39 O52 1.236 . S
C40 O62 1.240 . S
C40 O63 1.264 . S
O41 Mn36 2.095 . S
O41 C50 1.250 . S
O42 Mn37 2.121 . S
O42 C50 1.258 . S
C43 N44 1.326 . S
C43 C47 1.460 . S
C43 H49 0.929 . S
N44 Mn37 2.257 . S
N44 C43 1.326 . S
N44 C48 1.362 1_554 S
C45 C46 1.258 1_556 S
C45 C48 1.431 . S
C45 C65 1.449 . S
C46 C45 1.258 1_554 S
C46 C47 1.477 . S
C46 H66 0.931 1_554 S
C47 C43 1.460 . S
C47 C46 1.477 . S
C47 H67 0.930 . S
C48 N44 1.362 1_556 S
C48 C45 1.431 . S
C48 C58 1.476 . S
H49 C43 0.929 . S
C50 O41 1.250 . S
C50 O42 1.258 . S
O51 Mn36 2.162 . S
O51 C39 1.281 . S
O52 Mn36 2.297 . S
O52 C39 1.236 . S
N53 Mn37 2.282 1_556 S
N53 C54 1.328 . S
N53 C58 1.318 . S
C54 N53 1.328 . S
C54 C55 1.457 . S
C54 H59 0.929 . S
C55 C54 1.457 . S
C55 C56 1.291 . S
C55 H68 0.931 . S
C56 C55 1.291 . S
C56 C57 1.373 . S
C56 H69 0.929 . S
C57 C56 1.373 . S
C57 C58 1.396 . S
C57 C64 1.403 . S
C58 C48 1.476 . S
C58 N53 1.318 . S
C58 C57 1.396 . S
H59 C54 0.929 . S
O60 Mn36 2.385 1_556 S
O60 C38 1.234 . S
O61 Mn36 2.209 . S
O61 Mn37 2.215 . S
O61 C38 1.283 1_554 S
O62 Mn36 2.094 . S
O62 C40 1.240 . S
O63 Mn37 2.117 . S
O63 C40 1.264 . S
C64 C57 1.403 . S
C64 C65 1.399 . S
C64 H70 0.929 . S
C65 C45 1.449 . S
C65 C64 1.399 . S
C65 H71 0.930 . S
H66 C46 0.931 1_556 S
H67 C47 0.930 . S
H68 C55 0.931 . S
H69 C56 0.929 . S
H70 C64 0.929 . S
H71 C65 0.930 . S
Mn72 O77 2.095 . S
Mn72 O87 2.162 . S
Mn72 O88 2.297 . S
Mn72 O96 2.385 1_554 S
Mn72 O97 2.209 . S
Mn72 O98 2.094 . S
Mn73 O78 2.121 . S
Mn73 N80 2.257 . S
Mn73 N89 2.282 1_554 S
Mn73 O97 2.215 . S
Mn73 O99 2.117 . S
C74 O96 1.234 . S
C74 O97 1.283 1_556 S
C75 O87 1.281 . S
C75 O88 1.236 . S
C76 O98 1.240 . S
C76 O99 1.264 . S
O77 Mn72 2.095 . S
O77 C86 1.250 . S
O78 Mn73 2.121 . S
O78 C86 1.258 . S
C79 N80 1.326 . S
C79 C83 1.460 . S
C79 H85 0.929 . S
N80 Mn73 2.257 . S
N80 C79 1.326 . S
N80 C84 1.362 1_554 S
C81 C82 1.258 1_556 S
C81 C84 1.431 . S
C81 C101 1.449 . S
C82 C81 1.258 1_554 S
C82 C83 1.477 . S
C82 H102 0.931 1_554 S
C83 C79 1.460 . S
C83 C82 1.477 . S
C83 H103 0.930 . S
C84 N80 1.362 1_556 S
C84 C81 1.431 . S
C84 C94 1.476 . S
H85 C79 0.929 . S
C86 O77 1.250 . S
C86 O78 1.258 . S
O87 Mn72 2.162 . S
O87 C75 1.281 . S
O88 Mn72 2.297 . S
O88 C75 1.236 . S
N89 Mn73 2.282 1_556 S
N89 C90 1.328 . S
N89 C94 1.318 . S
C90 N89 1.328 . S
C90 C91 1.457 . S
C90 H95 0.929 . S
C91 C90 1.457 . S
C91 C92 1.291 . S
C91 H104 0.931 . S
C92 C91 1.291 . S
C92 C93 1.373 . S
C92 H105 0.929 . S
C93 C92 1.373 . S
C93 C94 1.396 . S
C93 C100 1.403 . S
C94 C84 1.476 . S
C94 N89 1.318 . S
C94 C93 1.396 . S
H95 C90 0.929 . S
O96 Mn72 2.385 1_556 S
O96 C74 1.234 . S
O97 Mn72 2.209 . S
O97 Mn73 2.215 . S
O97 C74 1.283 1_554 S
O98 Mn72 2.094 . S
O98 C76 1.240 . S
O99 Mn73 2.117 . S
O99 C76 1.264 . S
C100 C93 1.403 . S
C100 C101 1.399 . S
C100 H106 0.929 . S
C101 C81 1.449 . S
C101 C100 1.399 . S
C101 H107 0.930 . S
H102 C82 0.931 1_556 S
H103 C83 0.930 . S
H104 C91 0.931 . S
H105 C92 0.929 . S
H106 C100 0.929 . S
H107 C101 0.930 . S
Mn108 O113 2.095 . S
Mn108 O123 2.162 . S
Mn108 O124 2.297 . S
Mn108 O132 2.385 1_556 S
Mn108 O133 2.209 . S
Mn108 O134 2.094 . S
Mn109 O114 2.121 . S
Mn109 N116 2.257 . S
Mn109 N125 2.282 1_556 S
Mn109 O133 2.215 . S
Mn109 O135 2.117 . S
C110 O132 1.234 . S
C110 O133 1.283 1_554 S
C111 O123 1.281 . S
C111 O124 1.236 . S
C112 O134 1.240 . S
C112 O135 1.264 . S
O113 Mn108 2.095 . S
O113 C122 1.250 . S
O114 Mn109 2.121 . S
O114 C122 1.258 . S
C115 N116 1.326 . S
C115 C119 1.460 . S
C115 H121 0.929 . S
N116 Mn109 2.257 . S
N116 C115 1.326 . S
N116 C120 1.362 1_556 S
C117 C118 1.258 1_554 S
C117 C120 1.431 . S
C117 C137 1.449 . S
C118 C117 1.258 1_556 S
C118 C119 1.477 . S
C118 H138 0.931 1_556 S
C119 C115 1.460 . S
C119 C118 1.477 . S
C119 H139 0.930 . S
C120 N116 1.362 1_554 S
C120 C117 1.431 . S
C120 C130 1.476 . S
H121 C115 0.929 . S
C122 O113 1.250 . S
C122 O114 1.258 . S
O123 Mn108 2.162 . S
O123 C111 1.281 . S
O124 Mn108 2.297 . S
O124 C111 1.236 . S
N125 Mn109 2.282 1_554 S
N125 C126 1.328 . S
N125 C130 1.318 . S
C126 N125 1.328 . S
C126 C127 1.457 . S
C126 H131 0.929 . S
C127 C126 1.457 . S
C127 C128 1.291 . S
C127 H140 0.931 . S
C128 C127 1.291 . S
C128 C129 1.373 . S
C128 H141 0.929 . S
C129 C128 1.373 . S
C129 C130 1.396 . S
C129 C136 1.403 . S
C130 C120 1.476 . S
C130 N125 1.318 . S
C130 C129 1.396 . S
H131 C126 0.929 . S
O132 Mn108 2.385 1_554 S
O132 C110 1.234 . S
O133 Mn108 2.209 . S
O133 Mn109 2.215 . S
O133 C110 1.283 1_556 S
O134 Mn108 2.094 . S
O134 C112 1.240 . S
O135 Mn109 2.117 . S
O135 C112 1.264 . S
C136 C129 1.403 . S
C136 C137 1.399 . S
C136 H142 0.929 . S
C137 C117 1.449 . S
C137 C136 1.399 . S
C137 H143 0.930 . S
H138 C118 0.931 1_554 S
H139 C119 0.930 . S
H140 C127 0.931 . S
H141 C128 0.929 . S
H142 C136 0.929 . S
H143 C137 0.930 . S
Mn144 O149 2.095 . S
Mn144 O159 2.162 . S
Mn144 O160 2.297 . S
Mn144 O168 2.385 1_556 S
Mn144 O169 2.209 . S
Mn144 O170 2.094 . S
Mn145 O150 2.121 . S
Mn145 N152 2.257 . S
Mn145 N161 2.282 1_556 S
Mn145 O169 2.215 . S
Mn145 O171 2.117 . S
C146 O168 1.234 . S
C146 O169 1.283 1_554 S
C147 O159 1.281 . S
C147 O160 1.236 . S
C148 O170 1.240 . S
C148 O171 1.264 . S
O149 Mn144 2.095 . S
O149 C158 1.250 . S
O150 Mn145 2.121 . S
O150 C158 1.258 . S
C151 N152 1.326 . S
C151 C155 1.460 . S
C151 H157 0.929 . S
N152 Mn145 2.257 . S
N152 C151 1.326 . S
N152 C156 1.362 1_556 S
C153 C154 1.258 1_554 S
C153 C156 1.431 . S
C153 C173 1.449 . S
C154 C153 1.258 1_556 S
C154 C155 1.477 . S
C154 H174 0.931 1_556 S
C155 C151 1.460 . S
C155 C154 1.477 . S
C155 H175 0.930 . S
C156 N152 1.362 1_554 S
C156 C153 1.431 . S
C156 C166 1.476 . S
H157 C151 0.929 . S
C158 O149 1.250 . S
C158 O150 1.258 . S
O159 Mn144 2.162 . S
O159 C147 1.281 . S
O160 Mn144 2.297 . S
O160 C147 1.236 . S
N161 Mn145 2.282 1_554 S
N161 C162 1.328 . S
N161 C166 1.318 . S
C162 N161 1.328 . S
C162 C163 1.457 . S
C162 H167 0.929 . S
C163 C162 1.457 . S
C163 C164 1.291 . S
C163 H176 0.931 . S
C164 C163 1.291 . S
C164 C165 1.373 . S
C164 H177 0.929 . S
C165 C164 1.373 . S
C165 C166 1.396 . S
C165 C172 1.403 . S
C166 C156 1.476 . S
C166 N161 1.318 . S
C166 C165 1.396 . S
H167 C162 0.929 . S
O168 Mn144 2.385 1_554 S
O168 C146 1.234 . S
O169 Mn144 2.209 . S
O169 Mn145 2.215 . S
O169 C146 1.283 1_556 S
O170 Mn144 2.094 . S
O170 C148 1.240 . S
O171 Mn145 2.117 . S
O171 C148 1.264 . S
C172 C165 1.403 . S
C172 C173 1.399 . S
C172 H178 0.929 . S
C173 C153 1.449 . S
C173 C172 1.399 . S
C173 H179 0.930 . S
H174 C154 0.931 1_554 S
H175 C155 0.930 . S
H176 C163 0.931 . S
H177 C164 0.929 . S
H178 C172 0.929 . S
H179 C173 0.930 . S
Mn180 O185 2.095 . S
Mn180 O195 2.162 . S
Mn180 O196 2.297 . S
Mn180 O204 2.385 1_556 S
Mn180 O205 2.209 . S
Mn180 O206 2.094 . S
Mn181 O186 2.121 . S
Mn181 N188 2.257 . S
Mn181 N197 2.282 1_556 S
Mn181 O205 2.215 . S
Mn181 O207 2.117 . S
C182 O204 1.234 . S
C182 O205 1.283 1_554 S
C183 O195 1.281 . S
C183 O196 1.236 . S
C184 O206 1.240 . S
C184 O207 1.264 . S
O185 Mn180 2.095 . S
O185 C194 1.250 . S
O186 Mn181 2.121 . S
O186 C194 1.258 . S
C187 N188 1.326 . S
C187 C191 1.460 . S
C187 H193 0.929 . S
N188 Mn181 2.257 . S
N188 C187 1.326 . S
N188 C192 1.362 1_556 S
C189 C190 1.258 1_554 S
C189 C192 1.431 . S
C189 C209 1.449 . S
C190 C189 1.258 1_556 S
C190 C191 1.477 . S
C190 H210 0.931 1_556 S
C191 C187 1.460 . S
C191 C190 1.477 . S
C191 H211 0.930 . S
C192 N188 1.362 1_554 S
C192 C189 1.431 . S
C192 C202 1.476 . S
H193 C187 0.929 . S
C194 O185 1.250 . S
C194 O186 1.258 . S
O195 Mn180 2.162 . S
O195 C183 1.281 . S
O196 Mn180 2.297 . S
O196 C183 1.236 . S
N197 Mn181 2.282 1_554 S
N197 C198 1.328 . S
N197 C202 1.318 . S
C198 N197 1.328 . S
C198 C199 1.457 . S
C198 H203 0.929 . S
C199 C198 1.457 . S
C199 C200 1.291 . S
C199 H212 0.931 . S
C200 C199 1.291 . S
C200 C201 1.373 . S
C200 H213 0.929 . S
C201 C200 1.373 . S
C201 C202 1.396 . S
C201 C208 1.403 . S
C202 C192 1.476 . S
C202 N197 1.318 . S
C202 C201 1.396 . S
H203 C198 0.929 . S
O204 Mn180 2.385 1_554 S
O204 C182 1.234 . S
O205 Mn180 2.209 . S
O205 Mn181 2.215 . S
O205 C182 1.283 1_556 S
O206 Mn180 2.094 . S
O206 C184 1.240 . S
O207 Mn181 2.117 . S
O207 C184 1.264 . S
C208 C201 1.403 . S
C208 C209 1.399 . S
C208 H214 0.929 . S
C209 C189 1.449 . S
C209 C208 1.399 . S
C209 H215 0.930 . S
H210 C190 0.931 1_554 S
H211 C191 0.930 . S
H212 C199 0.931 . S
H213 C200 0.929 . S
H214 C208 0.929 . S
H215 C209 0.930 . S
Mn216 O221 2.095 . S
Mn216 O231 2.162 . S
Mn216 O232 2.297 . S
Mn216 O240 2.385 . S
Mn216 O241 2.209 . S
Mn216 O242 2.094 . S
Mn217 O222 2.121 . S
Mn217 N224 2.257 . S
Mn217 N233 2.282 . S
Mn217 O241 2.215 . S
Mn217 O243 2.117 . S
C218 O240 1.234 . S
C218 O241 1.283 . S
C219 O231 1.281 . S
C219 O232 1.236 . S
C220 O242 1.240 . S
C220 O243 1.264 . S
O221 Mn216 2.095 . S
O221 C230 1.250 . S
O222 Mn217 2.121 . S
O222 C230 1.258 . S
C223 N224 1.326 . S
C223 C227 1.460 . S
C223 H229 0.929 . S
N224 Mn217 2.257 . S
N224 C223 1.326 . S
N224 C228 1.362 . S
C225 C226 1.258 . S
C225 C228 1.431 . S
C225 C245 1.449 . S
C226 C225 1.258 . S
C226 C227 1.477 . S
C226 H246 0.931 . S
C227 C223 1.460 . S
C227 C226 1.477 . S
C227 H247 0.930 . S
C228 N224 1.362 . S
C228 C225 1.431 . S
C228 C238 1.476 . S
H229 C223 0.929 . S
C230 O221 1.250 . S
C230 O222 1.258 . S
O231 Mn216 2.162 . S
O231 C219 1.281 . S
O232 Mn216 2.297 . S
O232 C219 1.236 . S
N233 Mn217 2.282 . S
N233 C234 1.328 . S
N233 C238 1.318 . S
C234 N233 1.328 . S
C234 C235 1.457 . S
C234 H239 0.929 . S
C235 C234 1.457 . S
C235 C236 1.291 . S
C235 H248 0.931 . S
C236 C235 1.291 . S
C236 C237 1.373 . S
C236 H249 0.929 . S
C237 C236 1.373 . S
C237 C238 1.396 . S
C237 C244 1.403 . S
C238 C228 1.476 . S
C238 N233 1.318 . S
C238 C237 1.396 . S
H239 C234 0.929 . S
O240 Mn216 2.385 . S
O240 C218 1.234 . S
O241 Mn216 2.209 . S
O241 Mn217 2.215 . S
O241 C218 1.283 . S
O242 Mn216 2.094 . S
O242 C220 1.240 . S
O243 Mn217 2.117 . S
O243 C220 1.264 . S
C244 C237 1.403 . S
C244 C245 1.399 . S
C244 H250 0.929 . S
C245 C225 1.449 . S
C245 C244 1.399 . S
C245 H251 0.930 . S
H246 C226 0.931 . S
H247 C227 0.930 . S
H248 C235 0.931 . S
H249 C236 0.929 . S
H250 C244 0.929 . S
H251 C245 0.930 . S
Mn252 O257 2.095 . S
Mn252 O267 2.162 . S
Mn252 O268 2.297 . S
Mn252 O276 2.385 . S
Mn252 O277 2.209 . S
Mn252 O278 2.094 . S
Mn253 O258 2.121 . S
Mn253 N260 2.257 . S
Mn253 N269 2.282 . S
Mn253 O277 2.215 . S
Mn253 O279 2.117 . S
C254 O276 1.234 . S
C254 O277 1.283 . S
C255 O267 1.281 . S
C255 O268 1.236 . S
C256 O278 1.240 . S
C256 O279 1.264 . S
O257 Mn252 2.095 . S
O257 C266 1.250 . S
O258 Mn253 2.121 . S
O258 C266 1.258 . S
C259 N260 1.326 . S
C259 C263 1.460 . S
C259 H265 0.929 . S
N260 Mn253 2.257 . S
N260 C259 1.326 . S
N260 C264 1.362 . S
C261 C262 1.258 . S
C261 C264 1.431 . S
C261 C281 1.449 . S
C262 C261 1.258 . S
C262 C263 1.477 . S
C262 H282 0.931 . S
C263 C259 1.460 . S
C263 C262 1.477 . S
C263 H283 0.930 . S
C264 N260 1.362 . S
C264 C261 1.431 . S
C264 C274 1.476 . S
H265 C259 0.929 . S
C266 O257 1.250 . S
C266 O258 1.258 . S
O267 Mn252 2.162 . S
O267 C255 1.281 . S
O268 Mn252 2.297 . S
O268 C255 1.236 . S
N269 Mn253 2.282 . S
N269 C270 1.328 . S
N269 C274 1.318 . S
C270 N269 1.328 . S
C270 C271 1.457 . S
C270 H275 0.929 . S
C271 C270 1.457 . S
C271 C272 1.291 . S
C271 H284 0.931 . S
C272 C271 1.291 . S
C272 C273 1.373 . S
C272 H285 0.929 . S
C273 C272 1.373 . S
C273 C274 1.396 . S
C273 C280 1.403 . S
C274 C264 1.476 . S
C274 N269 1.318 . S
C274 C273 1.396 . S
H275 C270 0.929 . S
O276 Mn252 2.385 . S
O276 C254 1.234 . S
O277 Mn252 2.209 . S
O277 Mn253 2.215 . S
O277 C254 1.283 . S
O278 Mn252 2.094 . S
O278 C256 1.240 . S
O279 Mn253 2.117 . S
O279 C256 1.264 . S
C280 C273 1.403 . S
C280 C281 1.399 . S
C280 H286 0.929 . S
C281 C261 1.449 . S
C281 C280 1.399 . S
C281 H287 0.930 . S
H282 C262 0.931 . S
H283 C263 0.930 . S
H284 C271 0.931 . S
H285 C272 0.929 . S
H286 C280 0.929 . S
H287 C281 0.930 . S
Mn288 O293 2.095 . S
Mn288 O303 2.162 . S
Mn288 O304 2.297 . S
Mn288 O312 2.385 . S
Mn288 O313 2.209 . S
Mn288 O314 2.094 . S
Mn289 O294 2.121 . S
Mn289 N296 2.257 . S
Mn289 N305 2.282 . S
Mn289 O313 2.215 . S
Mn289 O315 2.117 . S
C290 O312 1.234 . S
C290 O313 1.283 . S
C291 O303 1.281 . S
C291 O304 1.236 . S
C292 O314 1.240 . S
C292 O315 1.264 . S
O293 Mn288 2.095 . S
O293 C302 1.250 . S
O294 Mn289 2.121 . S
O294 C302 1.258 . S
C295 N296 1.326 . S
C295 C299 1.460 . S
C295 H301 0.929 . S
N296 Mn289 2.257 . S
N296 C295 1.326 . S
N296 C300 1.362 . S
C297 C298 1.258 . S
C297 C300 1.431 . S
C297 C317 1.449 . S
C298 C297 1.258 . S
C298 C299 1.477 . S
C298 H318 0.931 . S
C299 C295 1.460 . S
C299 C298 1.477 . S
C299 H319 0.930 . S
C300 N296 1.362 . S
C300 C297 1.431 . S
C300 C310 1.476 . S
H301 C295 0.929 . S
C302 O293 1.250 . S
C302 O294 1.258 . S
O303 Mn288 2.162 . S
O303 C291 1.281 . S
O304 Mn288 2.297 . S
O304 C291 1.236 . S
N305 Mn289 2.282 . S
N305 C306 1.328 . S
N305 C310 1.318 . S
C306 N305 1.328 . S
C306 C307 1.457 . S
C306 H311 0.929 . S
C307 C306 1.457 . S
C307 C308 1.291 . S
C307 H320 0.931 . S
C308 C307 1.291 . S
C308 C309 1.373 . S
C308 H321 0.929 . S
C309 C308 1.373 . S
C309 C310 1.396 . S
C309 C316 1.403 . S
C310 C300 1.476 . S
C310 N305 1.318 . S
C310 C309 1.396 . S
H311 C306 0.929 . S
O312 Mn288 2.385 . S
O312 C290 1.234 . S
O313 Mn288 2.209 . S
O313 Mn289 2.215 . S
O313 C290 1.283 . S
O314 Mn288 2.094 . S
O314 C292 1.240 . S
O315 Mn289 2.117 . S
O315 C292 1.264 . S
C316 C309 1.403 . S
C316 C317 1.399 . S
C316 H322 0.929 . S
C317 C297 1.449 . S
C317 C316 1.399 . S
C317 H323 0.930 . S
H318 C298 0.931 . S
H319 C299 0.930 . S
H320 C307 0.931 . S
H321 C308 0.929 . S
H322 C316 0.929 . S
H323 C317 0.930 . S
Mn324 O329 2.095 . S
Mn324 O339 2.162 . S
Mn324 O340 2.297 . S
Mn324 O348 2.385 . S
Mn324 O349 2.209 . S
Mn324 O350 2.094 . S
Mn325 O330 2.121 . S
Mn325 N332 2.257 1_655 S
Mn325 N341 2.282 1_655 S
Mn325 O349 2.215 . S
Mn325 O351 2.117 . S
C326 O348 1.234 . S
C326 O349 1.283 . S
C327 O339 1.281 . S
C327 O340 1.236 . S
C328 O350 1.240 . S
C328 O351 1.264 . S
O329 Mn324 2.095 . S
O329 C338 1.250 . S
O330 Mn325 2.121 . S
O330 C338 1.258 . S
C331 N332 1.326 . S
C331 C335 1.460 . S
C331 H337 0.929 . S
N332 Mn325 2.257 1_455 S
N332 C331 1.326 . S
N332 C336 1.362 . S
C333 C334 1.258 . S
C333 C336 1.431 . S
C333 C353 1.449 . S
C334 C333 1.258 . S
C334 C335 1.477 . S
C334 H354 0.931 . S
C335 C331 1.460 . S
C335 C334 1.477 . S
C335 H355 0.930 . S
C336 N332 1.362 . S
C336 C333 1.431 . S
C336 C346 1.476 . S
H337 C331 0.929 . S
C338 O329 1.250 . S
C338 O330 1.258 . S
O339 Mn324 2.162 . S
O339 C327 1.281 . S
O340 Mn324 2.297 . S
O340 C327 1.236 . S
N341 Mn325 2.282 1_455 S
N341 C342 1.328 1_455 S
N341 C346 1.318 . S
C342 N341 1.328 1_655 S
C342 C343 1.457 . S
C342 H347 0.929 . S
C343 C342 1.457 . S
C343 C344 1.291 1_655 S
C343 H356 0.931 . S
C344 C343 1.291 1_455 S
C344 C345 1.373 . S
C344 H357 0.929 . S
C345 C344 1.373 . S
C345 C346 1.396 . S
C345 C352 1.403 . S
C346 C336 1.476 . S
C346 N341 1.318 . S
C346 C345 1.396 . S
H347 C342 0.929 . S
O348 Mn324 2.385 . S
O348 C326 1.234 . S
O349 Mn324 2.209 . S
O349 Mn325 2.215 . S
O349 C326 1.283 . S
O350 Mn324 2.094 . S
O350 C328 1.240 . S
O351 Mn325 2.117 . S
O351 C328 1.264 . S
C352 C345 1.403 . S
C352 C353 1.399 . S
C352 H358 0.929 . S
C353 C333 1.449 . S
C353 C352 1.399 . S
C353 H359 0.930 . S
H354 C334 0.931 . S
H355 C335 0.930 . S
H356 C343 0.931 . S
H357 C344 0.929 . S
H358 C352 0.929 . S
H359 C353 0.930 . S
Mn360 O365 2.095 . S
Mn360 O375 2.162 . S
Mn360 O376 2.297 . S
Mn360 O384 2.385 . S
Mn360 O385 2.209 . S
Mn360 O386 2.094 . S
Mn361 O366 2.121 . S
Mn361 N368 2.257 . S
Mn361 N377 2.282 . S
Mn361 O385 2.215 . S
Mn361 O387 2.117 . S
C362 O384 1.234 . S
C362 O385 1.283 . S
C363 O375 1.281 . S
C363 O376 1.236 . S
C364 O386 1.240 . S
C364 O387 1.264 . S
O365 Mn360 2.095 . S
O365 C374 1.250 . S
O366 Mn361 2.121 . S
O366 C374 1.258 . S
C367 N368 1.326 . S
C367 C371 1.460 . S
C367 H373 0.929 . S
N368 Mn361 2.257 . S
N368 C367 1.326 . S
N368 C372 1.362 . S
C369 C370 1.258 . S
C369 C372 1.431 . S
C369 C389 1.449 . S
C370 C369 1.258 . S
C370 C371 1.477 . S
C370 H390 0.931 . S
C371 C367 1.460 . S
C371 C370 1.477 . S
C371 H391 0.930 . S
C372 N368 1.362 . S
C372 C369 1.431 . S
C372 C382 1.476 . S
H373 C367 0.929 . S
C374 O365 1.250 . S
C374 O366 1.258 . S
O375 Mn360 2.162 . S
O375 C363 1.281 . S
O376 Mn360 2.297 . S
O376 C363 1.236 . S
N377 Mn361 2.282 . S
N377 C378 1.328 . S
N377 C382 1.318 . S
C378 N377 1.328 . S
C378 C379 1.457 . S
C378 H383 0.929 . S
C379 C378 1.457 . S
C379 C380 1.291 . S
C379 H392 0.931 . S
C380 C379 1.291 . S
C380 C381 1.373 . S
C380 H393 0.929 . S
C381 C380 1.373 . S
C381 C382 1.396 . S
C381 C388 1.403 . S
C382 C372 1.476 . S
C382 N377 1.318 . S
C382 C381 1.396 . S
H383 C378 0.929 . S
O384 Mn360 2.385 . S
O384 C362 1.234 . S
O385 Mn360 2.209 . S
O385 Mn361 2.215 . S
O385 C362 1.283 . S
O386 Mn360 2.094 . S
O386 C364 1.240 . S
O387 Mn361 2.117 . S
O387 C364 1.264 . S
C388 C381 1.403 . S
C388 C389 1.399 . S
C388 H394 0.929 . S
C389 C369 1.449 . S
C389 C388 1.399 . S
C389 H395 0.930 . S
H390 C370 0.931 . S
H391 C371 0.930 . S
H392 C379 0.931 . S
H393 C380 0.929 . S
H394 C388 0.929 . S
H395 C389 0.930 . S
Mn396 O401 2.095 . S
Mn396 O411 2.162 . S
Mn396 O412 2.297 . S
Mn396 O420 2.385 . S
Mn396 O421 2.209 . S
Mn396 O422 2.094 . S
Mn397 O402 2.121 . S
Mn397 N404 2.257 1_545 S
Mn397 N413 2.282 1_545 S
Mn397 O421 2.215 . S
Mn397 O423 2.117 . S
C398 O420 1.234 . S
C398 O421 1.283 . S
C399 O411 1.281 . S
C399 O412 1.236 . S
C400 O422 1.240 . S
C400 O423 1.264 . S
O401 Mn396 2.095 . S
O401 C410 1.250 . S
O402 Mn397 2.121 . S
O402 C410 1.258 . S
C403 N404 1.326 . S
C403 C407 1.460 . S
C403 H409 0.929 . S
N404 Mn397 2.257 1_565 S
N404 C403 1.326 . S
N404 C408 1.362 . S
C405 C406 1.258 . S
C405 C408 1.431 . S
C405 C425 1.449 . S
C406 C405 1.258 . S
C406 C407 1.477 . S
C406 H426 0.931 . S
C407 C403 1.460 . S
C407 C406 1.477 . S
C407 H427 0.930 . S
C408 N404 1.362 . S
C408 C405 1.431 . S
C408 C418 1.476 . S
H409 C403 0.929 . S
C410 O401 1.250 . S
C410 O402 1.258 . S
O411 Mn396 2.162 . S
O411 C399 1.281 . S
O412 Mn396 2.297 . S
O412 C399 1.236 . S
N413 Mn397 2.282 1_565 S
N413 C414 1.328 1_565 S
N413 C418 1.318 . S
C414 N413 1.328 1_545 S
C414 C415 1.457 . S
C414 H419 0.929 . S
C415 C414 1.457 . S
C415 C416 1.291 1_545 S
C415 H428 0.931 . S
C416 C415 1.291 1_565 S
C416 C417 1.373 . S
C416 H429 0.929 . S
C417 C416 1.373 . S
C417 C418 1.396 . S
C417 C424 1.403 . S
C418 C408 1.476 . S
C418 N413 1.318 . S
C418 C417 1.396 . S
H419 C414 0.929 . S
O420 Mn396 2.385 . S
O420 C398 1.234 . S
O421 Mn396 2.209 . S
O421 Mn397 2.215 . S
O421 C398 1.283 . S
O422 Mn396 2.094 . S
O422 C400 1.240 . S
O423 Mn397 2.117 . S
O423 C400 1.264 . S
C424 C417 1.403 . S
C424 C425 1.399 . S
C424 H430 0.929 . S
C425 C405 1.449 . S
C425 C424 1.399 . S
C425 H431 0.930 . S
H426 C406 0.931 . S
H427 C407 0.930 . S
H428 C415 0.931 . S
H429 C416 0.929 . S
H430 C424 0.929 . S
H431 C425 0.930 . S
Mn432 O437 2.095 . S
Mn432 O447 2.162 . S
Mn432 O448 2.297 . S
Mn432 O456 2.385 . S
Mn432 O457 2.209 . S
Mn432 O458 2.094 . S
Mn433 O438 2.121 . S
Mn433 N440 2.257 1_565 S
Mn433 N449 2.282 1_565 S
Mn433 O457 2.215 . S
Mn433 O459 2.117 . S
C434 O456 1.234 . S
C434 O457 1.283 . S
C435 O447 1.281 . S
C435 O448 1.236 . S
C436 O458 1.240 . S
C436 O459 1.264 . S
O437 Mn432 2.095 . S
O437 C446 1.250 . S
O438 Mn433 2.121 . S
O438 C446 1.258 . S
C439 N440 1.326 . S
C439 C443 1.460 . S
C439 H445 0.929 . S
N440 Mn433 2.257 1_545 S
N440 C439 1.326 . S
N440 C444 1.362 . S
C441 C442 1.258 . S
C441 C444 1.431 . S
C441 C461 1.449 . S
C442 C441 1.258 . S
C442 C443 1.477 . S
C442 H462 0.931 . S
C443 C439 1.460 . S
C443 C442 1.477 . S
C443 H463 0.930 . S
C444 N440 1.362 . S
C444 C441 1.431 . S
C444 C454 1.476 . S
H445 C439 0.929 . S
C446 O437 1.250 . S
C446 O438 1.258 . S
O447 Mn432 2.162 . S
O447 C435 1.281 . S
O448 Mn432 2.297 . S
O448 C435 1.236 . S
N449 Mn433 2.282 1_545 S
N449 C450 1.328 1_545 S
N449 C454 1.318 . S
C450 N449 1.328 1_565 S
C450 C451 1.457 . S
C450 H455 0.929 . S
C451 C450 1.457 . S
C451 C452 1.291 1_565 S
C451 H464 0.931 . S
C452 C451 1.291 1_545 S
C452 C453 1.373 . S
C452 H465 0.929 . S
C453 C452 1.373 . S
C453 C454 1.396 . S
C453 C460 1.403 . S
C454 C444 1.476 . S
C454 N449 1.318 . S
C454 C453 1.396 . S
H455 C450 0.929 . S
O456 Mn432 2.385 . S
O456 C434 1.234 . S
O457 Mn432 2.209 . S
O457 Mn433 2.215 . S
O457 C434 1.283 . S
O458 Mn432 2.094 . S
O458 C436 1.240 . S
O459 Mn433 2.117 . S
O459 C436 1.264 . S
C460 C453 1.403 . S
C460 C461 1.399 . S
C460 H466 0.929 . S
C461 C441 1.449 . S
C461 C460 1.399 . S
C461 H467 0.930 . S
H462 C442 0.931 . S
H463 C443 0.930 . S
H464 C451 0.931 . S
H465 C452 0.929 . S
H466 C460 0.929 . S
H467 C461 0.930 . S
Mn468 O473 2.095 . S
Mn468 O483 2.162 . S
Mn468 O484 2.297 . S
Mn468 O492 2.385 . S
Mn468 O493 2.209 . S
Mn468 O494 2.094 . S
Mn469 O474 2.121 . S
Mn469 N476 2.257 1_455 S
Mn469 N485 2.282 1_455 S
Mn469 O493 2.215 . S
Mn469 O495 2.117 . S
C470 O492 1.234 . S
C470 O493 1.283 . S
C471 O483 1.281 . S
C471 O484 1.236 . S
C472 O494 1.240 . S
C472 O495 1.264 . S
O473 Mn468 2.095 . S
O473 C482 1.250 . S
O474 Mn469 2.121 . S
O474 C482 1.258 . S
C475 N476 1.326 . S
C475 C479 1.460 . S
C475 H481 0.929 . S
N476 Mn469 2.257 1_655 S
N476 C475 1.326 . S
N476 C480 1.362 . S
C477 C478 1.258 . S
C477 C480 1.431 . S
C477 C497 1.449 . S
C478 C477 1.258 . S
C478 C479 1.477 . S
C478 H498 0.931 . S
C479 C475 1.460 . S
C479 C478 1.477 . S
C479 H499 0.930 . S
C480 N476 1.362 . S
C480 C477 1.431 . S
C480 C490 1.476 . S
H481 C475 0.929 . S
C482 O473 1.250 . S
C482 O474 1.258 . S
O483 Mn468 2.162 . S
O483 C471 1.281 . S
O484 Mn468 2.297 . S
O484 C471 1.236 . S
N485 Mn469 2.282 1_655 S
N485 C486 1.328 1_655 S
N485 C490 1.318 . S
C486 N485 1.328 1_455 S
C486 C487 1.457 . S
C486 H491 0.929 . S
C487 C486 1.457 . S
C487 C488 1.291 1_455 S
C487 H500 0.931 . S
C488 C487 1.291 1_655 S
C488 C489 1.373 . S
C488 H501 0.929 . S
C489 C488 1.373 . S
C489 C490 1.396 . S
C489 C496 1.403 . S
C490 C480 1.476 . S
C490 N485 1.318 . S
C490 C489 1.396 . S
H491 C486 0.929 . S
O492 Mn468 2.385 . S
O492 C470 1.234 . S
O493 Mn468 2.209 . S
O493 Mn469 2.215 . S
O493 C470 1.283 . S
O494 Mn468 2.094 . S
O494 C472 1.240 . S
O495 Mn469 2.117 . S
O495 C472 1.264 . S
C496 C489 1.403 . S
C496 C497 1.399 . S
C496 H502 0.929 . S
C497 C477 1.449 . S
C497 C496 1.399 . S
C497 H503 0.930 . S
H498 C478 0.931 . S
H499 C479 0.930 . S
H500 C487 0.931 . S
H501 C488 0.929 . S
H502 C496 0.929 . S
H503 C497 0.930 . S
Mn504 O509 2.095 . S
Mn504 O519 2.162 . S
Mn504 O520 2.297 . S
Mn504 O528 2.385 . S
Mn504 O529 2.209 . S
Mn504 O530 2.094 . S
Mn505 O510 2.121 . S
Mn505 N512 2.257 . S
Mn505 N521 2.282 . S
Mn505 O529 2.215 . S
Mn505 O531 2.117 . S
C506 O528 1.234 . S
C506 O529 1.283 . S
C507 O519 1.281 . S
C507 O520 1.236 . S
C508 O530 1.240 . S
C508 O531 1.264 . S
O509 Mn504 2.095 . S
O509 C518 1.250 . S
O510 Mn505 2.121 . S
O510 C518 1.258 . S
C511 N512 1.326 . S
C511 C515 1.460 . S
C511 H517 0.929 . S
N512 Mn505 2.257 . S
N512 C511 1.326 . S
N512 C516 1.362 . S
C513 C514 1.258 . S
C513 C516 1.431 . S
C513 C533 1.449 . S
C514 C513 1.258 . S
C514 C515 1.477 . S
C514 H534 0.931 . S
C515 C511 1.460 . S
C515 C514 1.477 . S
C515 H535 0.930 . S
C516 N512 1.362 . S
C516 C513 1.431 . S
C516 C526 1.476 . S
H517 C511 0.929 . S
C518 O509 1.250 . S
C518 O510 1.258 . S
O519 Mn504 2.162 . S
O519 C507 1.281 . S
O520 Mn504 2.297 . S
O520 C507 1.236 . S
N521 Mn505 2.282 . S
N521 C522 1.328 . S
N521 C526 1.318 . S
C522 N521 1.328 . S
C522 C523 1.457 . S
C522 H527 0.929 . S
C523 C522 1.457 . S
C523 C524 1.291 . S
C523 H536 0.931 . S
C524 C523 1.291 . S
C524 C525 1.373 . S
C524 H537 0.929 . S
C525 C524 1.373 . S
C525 C526 1.396 . S
C525 C532 1.403 . S
C526 C516 1.476 . S
C526 N521 1.318 . S
C526 C525 1.396 . S
H527 C522 0.929 . S
O528 Mn504 2.385 . S
O528 C506 1.234 . S
O529 Mn504 2.209 . S
O529 Mn505 2.215 . S
O529 C506 1.283 . S
O530 Mn504 2.094 . S
O530 C508 1.240 . S
O531 Mn505 2.117 . S
O531 C508 1.264 . S
C532 C525 1.403 . S
C532 C533 1.399 . S
C532 H538 0.929 . S
C533 C513 1.449 . S
C533 C532 1.399 . S
C533 H539 0.930 . S
H534 C514 0.931 . S
H535 C515 0.930 . S
H536 C523 0.931 . S
H537 C524 0.929 . S
H538 C532 0.929 . S
H539 C533 0.930 . S
Mn540 O545 2.095 . S
Mn540 O555 2.162 . S
Mn540 O556 2.297 . S
Mn540 O564 2.385 . S
Mn540 O565 2.209 . S
Mn540 O566 2.094 . S
Mn541 O546 2.121 . S
Mn541 N548 2.257 . S
Mn541 N557 2.282 . S
Mn541 O565 2.215 . S
Mn541 O567 2.117 . S
C542 O564 1.234 . S
C542 O565 1.283 . S
C543 O555 1.281 . S
C543 O556 1.236 . S
C544 O566 1.240 . S
C544 O567 1.264 . S
O545 Mn540 2.095 . S
O545 C554 1.250 . S
O546 Mn541 2.121 . S
O546 C554 1.258 . S
C547 N548 1.326 . S
C547 C551 1.460 . S
C547 H553 0.929 . S
N548 Mn541 2.257 . S
N548 C547 1.326 . S
N548 C552 1.362 . S
C549 C550 1.258 . S
C549 C552 1.431 . S
C549 C569 1.449 . S
C550 C549 1.258 . S
C550 C551 1.477 . S
C550 H570 0.931 . S
C551 C547 1.460 . S
C551 C550 1.477 . S
C551 H571 0.930 . S
C552 N548 1.362 . S
C552 C549 1.431 . S
C552 C562 1.476 . S
H553 C547 0.929 . S
C554 O545 1.250 . S
C554 O546 1.258 . S
O555 Mn540 2.162 . S
O555 C543 1.281 . S
O556 Mn540 2.297 . S
O556 C543 1.236 . S
N557 Mn541 2.282 . S
N557 C558 1.328 . S
N557 C562 1.318 . S
C558 N557 1.328 . S
C558 C559 1.457 . S
C558 H563 0.929 . S
C559 C558 1.457 . S
C559 C560 1.291 . S
C559 H572 0.931 . S
C560 C559 1.291 . S
C560 C561 1.373 . S
C560 H573 0.929 . S
C561 C560 1.373 . S
C561 C562 1.396 . S
C561 C568 1.403 . S
C562 C552 1.476 . S
C562 N557 1.318 . S
C562 C561 1.396 . S
H563 C558 0.929 . S
O564 Mn540 2.385 . S
O564 C542 1.234 . S
O565 Mn540 2.209 . S
O565 Mn541 2.215 . S
O565 C542 1.283 . S
O566 Mn540 2.094 . S
O566 C544 1.240 . S
O567 Mn541 2.117 . S
O567 C544 1.264 . S
C568 C561 1.403 . S
C568 C569 1.399 . S
C568 H574 0.929 . S
C569 C549 1.449 . S
C569 C568 1.399 . S
C569 H575 0.930 . S
H570 C550 0.931 . S
H571 C551 0.930 . S
H572 C559 0.931 . S
H573 C560 0.929 . S
H574 C568 0.929 . S
H575 C569 0.930 . S
Mn576 O581 2.095 . S
Mn576 O591 2.162 . S
Mn576 O592 2.297 . S
Mn576 O600 2.385 . S
Mn576 O601 2.209 . S
Mn576 O602 2.094 . S
Mn577 O582 2.121 . S
Mn577 N584 2.257 . S
Mn577 N593 2.282 . S
Mn577 O601 2.215 . S
Mn577 O603 2.117 . S
C578 O600 1.234 . S
C578 O601 1.283 . S
C579 O591 1.281 . S
C579 O592 1.236 . S
C580 O602 1.240 . S
C580 O603 1.264 . S
O581 Mn576 2.095 . S
O581 C590 1.250 . S
O582 Mn577 2.121 . S
O582 C590 1.258 . S
C583 N584 1.326 . S
C583 C587 1.460 . S
C583 H589 0.929 . S
N584 Mn577 2.257 . S
N584 C583 1.326 . S
N584 C588 1.362 . S
C585 C586 1.258 . S
C585 C588 1.431 . S
C585 C605 1.449 . S
C586 C585 1.258 . S
C586 C587 1.477 . S
C586 H606 0.931 . S
C587 C583 1.460 . S
C587 C586 1.477 . S
C587 H607 0.930 . S
C588 N584 1.362 . S
C588 C585 1.431 . S
C588 C598 1.476 . S
H589 C583 0.929 . S
C590 O581 1.250 . S
C590 O582 1.258 . S
O591 Mn576 2.162 . S
O591 C579 1.281 . S
O592 Mn576 2.297 . S
O592 C579 1.236 . S
N593 Mn577 2.282 . S
N593 C594 1.328 . S
N593 C598 1.318 . S
C594 N593 1.328 . S
C594 C595 1.457 . S
C594 H599 0.929 . S
C595 C594 1.457 . S
C595 C596 1.291 . S
C595 H608 0.931 . S
C596 C595 1.291 . S
C596 C597 1.373 . S
C596 H609 0.929 . S
C597 C596 1.373 . S
C597 C598 1.396 . S
C597 C604 1.403 . S
C598 C588 1.476 . S
C598 N593 1.318 . S
C598 C597 1.396 . S
H599 C594 0.929 . S
O600 Mn576 2.385 . S
O600 C578 1.234 . S
O601 Mn576 2.209 . S
O601 Mn577 2.215 . S
O601 C578 1.283 . S
O602 Mn576 2.094 . S
O602 C580 1.240 . S
O603 Mn577 2.117 . S
O603 C580 1.264 . S
C604 C597 1.403 . S
C604 C605 1.399 . S
C604 H610 0.929 . S
C605 C585 1.449 . S
C605 C604 1.399 . S
C605 H611 0.930 . S
H606 C586 0.931 . S
H607 C587 0.930 . S
H608 C595 0.931 . S
H609 C596 0.929 . S
H610 C604 0.929 . S
H611 C605 0.930 . S
Mn612 O617 2.095 . S
Mn612 O627 2.162 . S
Mn612 O628 2.297 . S
Mn612 O636 2.385 . S
Mn612 O637 2.209 . S
Mn612 O638 2.094 . S
Mn613 O618 2.121 . S
Mn613 N620 2.257 . S
Mn613 N629 2.282 . S
Mn613 O637 2.215 . S
Mn613 O639 2.117 . S
C614 O636 1.234 . S
C614 O637 1.283 . S
C615 O627 1.281 . S
C615 O628 1.236 . S
C616 O638 1.240 . S
C616 O639 1.264 . S
O617 Mn612 2.095 . S
O617 C626 1.250 . S
O618 Mn613 2.121 . S
O618 C626 1.258 . S
C619 N620 1.326 . S
C619 C623 1.460 . S
C619 H625 0.929 . S
N620 Mn613 2.257 . S
N620 C619 1.326 . S
N620 C624 1.362 . S
C621 C622 1.258 . S
C621 C624 1.431 . S
C621 C641 1.449 . S
C622 C621 1.258 . S
C622 C623 1.477 . S
C622 H642 0.931 . S
C623 C619 1.460 . S
C623 C622 1.477 . S
C623 H643 0.930 . S
C624 N620 1.362 . S
C624 C621 1.431 . S
C624 C634 1.476 . S
H625 C619 0.929 . S
C626 O617 1.250 . S
C626 O618 1.258 . S
O627 Mn612 2.162 . S
O627 C615 1.281 . S
O628 Mn612 2.297 . S
O628 C615 1.236 . S
N629 Mn613 2.282 . S
N629 C630 1.328 . S
N629 C634 1.318 . S
C630 N629 1.328 . S
C630 C631 1.457 . S
C630 H635 0.929 . S
C631 C630 1.457 . S
C631 C632 1.291 . S
C631 H644 0.931 . S
C632 C631 1.291 . S
C632 C633 1.373 . S
C632 H645 0.929 . S
C633 C632 1.373 . S
C633 C634 1.396 . S
C633 C640 1.403 . S
C634 C624 1.476 . S
C634 N629 1.318 . S
C634 C633 1.396 . S
H635 C630 0.929 . S
O636 Mn612 2.385 . S
O636 C614 1.234 . S
O637 Mn612 2.209 . S
O637 Mn613 2.215 . S
O637 C614 1.283 . S
O638 Mn612 2.094 . S
O638 C616 1.240 . S
O639 Mn613 2.117 . S
O639 C616 1.264 . S
C640 C633 1.403 . S
C640 C641 1.399 . S
C640 H646 0.929 . S
C641 C621 1.449 . S
C641 C640 1.399 . S
C641 H647 0.930 . S
H642 C622 0.931 . S
H643 C623 0.930 . S
H644 C631 0.931 . S
H645 C632 0.929 . S
H646 C640 0.929 . S
H647 C641 0.930 . S
C648 C649 1.387 . S
C648 H652 0.950 . S
C648 C657 1.390 . S
C649 C648 1.387 . S
C649 C651 1.387 . S
H650 C657 0.950 . S
C651 C649 1.387 . S
C651 C653 1.390 . S
C651 H655 0.950 . S
H652 C648 0.950 . S
C653 C651 1.390 . S
C653 C654 1.387 . S
C653 H656 0.950 . S
C654 C653 1.387 . S
C654 C657 1.387 . S
H655 C651 0.950 . S
H656 C653 0.950 . S
C657 C648 1.390 . S
C657 H650 0.950 . S
C657 C654 1.387 . S
C658 C659 1.387 . S
C658 H662 0.950 . S
C658 C667 1.390 . S
C659 C658 1.387 . S
C659 C661 1.387 . S
H660 C667 0.950 . S
C661 C659 1.387 . S
C661 C663 1.390 . S
C661 H665 0.950 . S
H662 C658 0.950 . S
C663 C661 1.390 . S
C663 C664 1.387 . S
C663 H666 0.950 . S
C664 C663 1.387 . S
C664 C667 1.387 . S
H665 C661 0.950 . S
H666 C663 0.950 . S
C667 C658 1.390 . S
C667 H660 0.950 . S
C667 C664 1.387 . S
C668 C669 1.387 . S
C668 H672 0.950 . S
C668 C677 1.390 . S
C669 C668 1.387 . S
C669 C671 1.387 . S
H670 C677 0.950 . S
C671 C669 1.387 . S
C671 C673 1.390 . S
C671 H675 0.950 . S
H672 C668 0.950 . S
C673 C671 1.390 . S
C673 C674 1.387 . S
C673 H676 0.950 . S
C674 C673 1.387 . S
C674 C677 1.387 . S
H675 C671 0.950 . S
H676 C673 0.950 . S
C677 C668 1.390 . S
C677 H670 0.950 . S
C677 C674 1.387 . S
C678 C679 1.387 . S
C678 H682 0.950 . S
C678 C687 1.390 . S
C679 C678 1.387 . S
C679 C681 1.387 . S
H680 C687 0.950 . S
C681 C679 1.387 . S
C681 C683 1.390 . S
C681 H685 0.950 . S
H682 C678 0.950 . S
C683 C681 1.390 . S
C683 C684 1.387 . S
C683 H686 0.950 . S
C684 C683 1.387 . S
C684 C687 1.387 . S
H685 C681 0.950 . S
H686 C683 0.950 . S
C687 C678 1.390 . S
C687 H680 0.950 . S
C687 C684 1.387 . S
C688 C689 1.387 . S
C688 H692 0.950 . S
C688 C697 1.390 . S
C689 C688 1.387 . S
C689 C691 1.387 . S
H690 C697 0.950 . S
C691 C689 1.387 . S
C691 C693 1.390 . S
C691 H695 0.950 . S
H692 C688 0.950 . S
C693 C691 1.390 . S
C693 C694 1.387 . S
C693 H696 0.950 . S
C694 C693 1.387 . S
C694 C697 1.387 . S
H695 C691 0.950 . S
H696 C693 0.950 . S
C697 C688 1.390 . S
C697 H690 0.950 . S
C697 C694 1.387 . S
C698 C699 1.387 . S
C698 H702 0.950 . S
C698 C707 1.390 . S
C699 C698 1.387 . S
C699 C701 1.387 . S
H700 C707 0.950 . S
C701 C699 1.387 . S
C701 C703 1.390 . S
C701 H705 0.950 . S
H702 C698 0.950 . S
C703 C701 1.390 . S
C703 C704 1.387 . S
C703 H706 0.950 . S
C704 C703 1.387 . S
C704 C707 1.387 . S
H705 C701 0.950 . S
H706 C703 0.950 . S
C707 C698 1.390 . S
C707 H700 0.950 . S
C707 C704 1.387 . S
C708 C709 1.387 . S
C708 H712 0.950 . S
C708 C717 1.390 1_554 S
C709 C708 1.387 . S
C709 C711 1.387 1_655 S
H710 C717 0.950 . S
C711 C709 1.387 1_455 S
C711 C713 1.390 1_554 S
C711 H715 0.950 . S
H712 C708 0.950 . S
C713 C711 1.390 1_556 S
C713 C714 1.387 . S
C713 H716 0.950 . S
C714 C713 1.387 . S
C714 C717 1.387 1_455 S
H715 C711 0.950 . S
H716 C713 0.950 . S
C717 C708 1.390 1_556 S
C717 H710 0.950 . S
C717 C714 1.387 1_655 S
C718 C719 1.387 . S
C718 H722 0.950 . S
C718 C727 1.390 1_554 S
C719 C718 1.387 . S
C719 C721 1.387 . S
H720 C727 0.950 . S
C721 C719 1.387 . S
C721 C723 1.390 1_554 S
C721 H725 0.950 . S
H722 C718 0.950 . S
C723 C721 1.390 1_556 S
C723 C724 1.387 . S
C723 H726 0.950 . S
C724 C723 1.387 . S
C724 C727 1.387 . S
H725 C721 0.950 . S
H726 C723 0.950 . S
C727 C718 1.390 1_556 S
C727 H720 0.950 . S
C727 C724 1.387 . S
C728 C729 1.387 . S
C728 H732 0.950 . S
C728 C737 1.390 1_544 S
C729 C728 1.387 . S
C729 C731 1.387 . S
H730 C737 0.950 . S
C731 C729 1.387 . S
C731 C733 1.390 1_544 S
C731 H735 0.950 . S
H732 C728 0.950 . S
C733 C731 1.390 1_566 S
C733 C734 1.387 . S
C733 H736 0.950 . S
C734 C733 1.387 . S
C734 C737 1.387 . S
H735 C731 0.950 . S
H736 C733 0.950 . S
C737 C728 1.390 1_566 S
C737 H730 0.950 . S
C737 C734 1.387 . S
C738 C739 1.387 . S
C738 H742 0.950 . S
C738 C747 1.390 . S
C739 C738 1.387 . S
C739 C741 1.387 . S
H740 C747 0.950 . S
C741 C739 1.387 . S
C741 C743 1.390 . S
C741 H745 0.950 . S
H742 C738 0.950 . S
C743 C741 1.390 . S
C743 C744 1.387 . S
C743 H746 0.950 . S
C744 C743 1.387 . S
C744 C747 1.387 . S
H745 C741 0.950 . S
H746 C743 0.950 . S
C747 C738 1.390 . S
C747 H740 0.950 . S
C747 C744 1.387 . S
C748 C749 1.387 . S
C748 H752 0.950 . S
C748 C757 1.390 . S
C749 C748 1.387 . S
C749 C751 1.387 . S
H750 C757 0.950 . S
C751 C749 1.387 . S
C751 C753 1.390 . S
C751 H755 0.950 . S
H752 C748 0.950 . S
C753 C751 1.390 . S
C753 C754 1.387 . S
C753 H756 0.950 . S
C754 C753 1.387 . S
C754 C757 1.387 . S
H755 C751 0.950 . S
H756 C753 0.950 . S
C757 C748 1.390 . S
C757 H750 0.950 . S
C757 C754 1.387 . S
C758 C759 1.387 . S
C758 H762 0.950 . S
C758 C767 1.390 . S
C759 C758 1.387 . S
C759 C761 1.387 . S
H760 C767 0.950 . S
C761 C759 1.387 . S
C761 C763 1.390 . S
C761 H765 0.950 . S
H762 C758 0.950 . S
C763 C761 1.390 . S
C763 C764 1.387 . S
C763 H766 0.950 . S
C764 C763 1.387 . S
C764 C767 1.387 . S
H765 C761 0.950 . S
H766 C763 0.950 . S
C767 C758 1.390 . S
C767 H760 0.950 . S
C767 C764 1.387 . S
C768 C769 1.387 . S
C768 H772 0.950 . S
C768 C777 1.390 . S
C769 C768 1.387 . S
C769 C771 1.387 . S
H770 C777 0.950 . S
C771 C769 1.387 . S
C771 C773 1.390 . S
C771 H775 0.950 . S
H772 C768 0.950 . S
C773 C771 1.390 . S
C773 C774 1.387 . S
C773 H776 0.950 . S
C774 C773 1.387 . S
C774 C777 1.387 . S
H775 C771 0.950 . S
H776 C773 0.950 . S
C777 C768 1.390 . S
C777 H770 0.950 . S
C777 C774 1.387 . S
C778 C779 1.387 . S
C778 H782 0.950 . S
C778 C787 1.390 . S
C779 C778 1.387 . S
C779 C781 1.387 . S
H780 C787 0.950 . S
C781 C779 1.387 . S
C781 C783 1.390 . S
C781 H785 0.950 . S
H782 C778 0.950 . S
C783 C781 1.390 . S
C783 C784 1.387 . S
C783 H786 0.950 . S
C784 C783 1.387 . S
C784 C787 1.387 . S
H785 C781 0.950 . S
H786 C783 0.950 . S
C787 C778 1.390 . S
C787 H780 0.950 . S
C787 C784 1.387 . S
C788 C789 1.387 . S
C788 H792 0.950 . S
C788 C797 1.390 . S
C789 C788 1.387 . S
C789 C791 1.387 . S
H790 C797 0.950 . S
C791 C789 1.387 . S
C791 C793 1.390 . S
C791 H795 0.950 . S
H792 C788 0.950 . S
C793 C791 1.390 . S
C793 C794 1.387 . S
C793 H796 0.950 . S
C794 C793 1.387 . S
C794 C797 1.387 . S
H795 C791 0.950 . S
H796 C793 0.950 . S
C797 C788 1.390 . S
C797 H790 0.950 . S
C797 C794 1.387 . S
C798 C799 1.387 1_455 S
C798 H802 0.950 . S
C798 C807 1.390 . S
C799 C798 1.387 1_655 S
C799 C801 1.387 . S
H800 C807 0.950 . S
C801 C799 1.387 . S
C801 C803 1.390 . S
C801 H805 0.950 . S
H802 C798 0.950 . S
C803 C801 1.390 . S
C803 C804 1.387 1_655 S
C803 H806 0.950 . S
C804 C803 1.387 1_455 S
C804 C807 1.387 . S
H805 C801 0.950 . S
H806 C803 0.950 . S
C807 C798 1.390 . S
C807 H800 0.950 . S
C807 C804 1.387 . S
C808 C809 1.387 . S
C808 H812 0.950 . S
C808 C817 1.390 . S
C809 C808 1.387 . S
C809 C811 1.387 . S
H810 C817 0.950 . S
C811 C809 1.387 . S
C811 C813 1.390 . S
C811 H815 0.950 . S
H812 C808 0.950 . S
C813 C811 1.390 . S
C813 C814 1.387 . S
C813 H816 0.950 . S
C814 C813 1.387 . S
C814 C817 1.387 . S
H815 C811 0.950 . S
H816 C813 0.950 . S
C817 C808 1.390 . S
C817 H810 0.950 . S
C817 C814 1.387 . S
C818 C819 1.387 . S
C818 H822 0.950 . S
C818 C827 1.390 1_565 S
C819 C818 1.387 . S
C819 C821 1.387 . S
H820 C827 0.950 . S
C821 C819 1.387 . S
C821 C823 1.390 1_565 S
C821 H825 0.950 . S
H822 C818 0.950 . S
C823 C821 1.390 1_545 S
C823 C824 1.387 . S
C823 H826 0.950 . S
C824 C823 1.387 . S
C824 C827 1.387 . S
H825 C821 0.950 . S
H826 C823 0.950 . S
C827 C818 1.390 1_545 S
C827 H820 0.950 . S
C827 C824 1.387 . S
C828 C829 1.387 . S
C828 H832 0.950 . S
C828 C837 1.390 . S
C829 C828 1.387 . S
C829 C831 1.387 1_554 S
H830 C837 0.950 . S
C831 C829 1.387 1_556 S
C831 C833 1.390 . S
C831 H835 0.950 . S
H832 C828 0.950 . S
C833 C831 1.390 . S
C833 C834 1.387 . S
C833 H836 0.950 . S
C834 C833 1.387 . S
C834 C837 1.387 1_556 S
H835 C831 0.950 . S
H836 C833 0.950 . S
C837 C828 1.390 . S
C837 H830 0.950 . S
C837 C834 1.387 1_554 S
C838 C839 1.387 . S
C838 H842 0.950 . S
C838 C847 1.390 1_546 S
C839 C838 1.387 . S
C839 C841 1.387 . S
H840 C847 0.950 . S
C841 C839 1.387 . S
C841 C843 1.390 1_546 S
C841 H845 0.950 . S
H842 C838 0.950 . S
C843 C841 1.390 1_564 S
C843 C844 1.387 . S
C843 H846 0.950 . S
C844 C843 1.387 . S
C844 C847 1.387 . S
H845 C841 0.950 . S
H846 C843 0.950 . S
C847 C838 1.390 1_564 S
C847 H840 0.950 . S
C847 C844 1.387 . S
C848 C849 1.387 1_554 S
C848 H852 0.950 . S
C848 C857 1.390 1_655 S
C849 C848 1.387 1_556 S
C849 C851 1.387 . S
H850 C857 0.950 . S
C851 C849 1.387 . S
C851 C853 1.390 1_655 S
C851 H855 0.950 . S
H852 C848 0.950 . S
C853 C851 1.390 1_455 S
C853 C854 1.387 1_556 S
C853 H856 0.950 . S
C854 C853 1.387 1_554 S
C854 C857 1.387 . S
H855 C851 0.950 . S
H856 C853 0.950 . S
C857 C848 1.390 1_455 S
C857 H850 0.950 . S
C857 C854 1.387 . S
C858 C859 1.387 . S
C858 H862 0.950 . S
C858 C867 1.390 . S
C859 C858 1.387 . S
C859 C861 1.387 1_556 S
H860 C867 0.950 . S
C861 C859 1.387 1_554 S
C861 C863 1.390 . S
C861 H865 0.950 . S
H862 C858 0.950 . S
C863 C861 1.390 . S
C863 C864 1.387 . S
C863 H866 0.950 . S
C864 C863 1.387 . S
C864 C867 1.387 1_554 S
H865 C861 0.950 . S
H866 C863 0.950 . S
C867 C858 1.390 . S
C867 H860 0.950 . S
C867 C864 1.387 1_556 S
C868 C869 1.387 . S
C868 H872 0.950 . S
C868 C877 1.390 1_564 S
C869 C868 1.387 . S
C869 C871 1.387 . S
H870 C877 0.950 . S
C871 C869 1.387 . S
C871 C873 1.390 1_564 S
C871 H875 0.950 . S
H872 C868 0.950 . S
C873 C871 1.390 1_546 S
C873 C874 1.387 . S
C873 H876 0.950 . S
C874 C873 1.387 . S
C874 C877 1.387 . S
H875 C871 0.950 . S
H876 C873 0.950 . S
C877 C868 1.390 1_546 S
C877 H870 0.950 . S
C877 C874 1.387 . S
C878 C879 1.387 . S
C878 H882 0.950 . S
C878 C887 1.390 1_655 S
C879 C878 1.387 . S
C879 C881 1.387 1_556 S
H880 C887 0.950 . S
C881 C879 1.387 1_554 S
C881 C883 1.390 1_655 S
C881 H885 0.950 . S
H882 C878 0.950 . S
C883 C881 1.390 1_455 S
C883 C884 1.387 . S
C883 H886 0.950 . S
C884 C883 1.387 . S
C884 C887 1.387 1_554 S
H885 C881 0.950 . S
H886 C883 0.950 . S
C887 C878 1.390 1_455 S
C887 H880 0.950 . S
C887 C884 1.387 1_556 S
C888 C889 1.387 . S
C888 H892 0.950 . S
C888 C897 1.390 . S
C889 C888 1.387 . S
C889 C891 1.387 . S
H890 C897 0.950 . S
C891 C889 1.387 . S
C891 C893 1.390 . S
C891 H895 0.950 . S
H892 C888 0.950 . S
C893 C891 1.390 . S
C893 C894 1.387 . S
C893 H896 0.950 . S
C894 C893 1.387 . S
C894 C897 1.387 . S
H895 C891 0.950 . S
H896 C893 0.950 . S
C897 C888 1.390 . S
C897 H890 0.950 . S
C897 C894 1.387 . S
C898 C899 1.387 . S
C898 H902 0.950 . S
C898 C907 1.390 . S
C899 C898 1.387 . S
C899 C901 1.387 . S
H900 C907 0.950 . S
C901 C899 1.387 . S
C901 C903 1.390 . S
C901 H905 0.950 . S
H902 C898 0.950 . S
C903 C901 1.390 . S
C903 C904 1.387 . S
C903 H906 0.950 . S
C904 C903 1.387 . S
C904 C907 1.387 . S
H905 C901 0.950 . S
H906 C903 0.950 . S
C907 C898 1.390 . S
C907 H900 0.950 . S
C907 C904 1.387 . S
C908 C909 1.387 . S
C908 H912 0.950 . S
C908 C917 1.390 . S
C909 C908 1.387 . S
C909 C911 1.387 . S
H910 C917 0.950 . S
C911 C909 1.387 . S
C911 C913 1.390 . S
C911 H915 0.950 . S
H912 C908 0.950 . S
C913 C911 1.390 . S
C913 C914 1.387 . S
C913 H916 0.950 . S
C914 C913 1.387 . S
C914 C917 1.387 . S
H915 C911 0.950 . S
H916 C913 0.950 . S
C917 C908 1.390 . S
C917 H910 0.950 . S
C917 C914 1.387 . S
C918 C919 1.387 . S
C918 H922 0.950 . S
C918 C927 1.390 . S
C919 C918 1.387 . S
C919 C921 1.387 . S
H920 C927 0.950 . S
C921 C919 1.387 . S
C921 C923 1.390 . S
C921 H925 0.950 . S
H922 C918 0.950 . S
C923 C921 1.390 . S
C923 C924 1.387 . S
C923 H926 0.950 . S
C924 C923 1.387 . S
C924 C927 1.387 . S
H925 C921 0.950 . S
H926 C923 0.950 . S
C927 C918 1.390 . S
C927 H920 0.950 . S
C927 C924 1.387 . S
C928 C929 1.387 . S
C928 H932 0.950 . S
C928 C937 1.390 . S
C929 C928 1.387 . S
C929 C931 1.387 . S
H930 C937 0.950 . S
C931 C929 1.387 . S
C931 C933 1.390 . S
C931 H935 0.950 . S
H932 C928 0.950 . S
C933 C931 1.390 . S
C933 C934 1.387 . S
C933 H936 0.950 . S
C934 C933 1.387 . S
C934 C937 1.387 . S
H935 C931 0.950 . S
H936 C933 0.950 . S
C937 C928 1.390 . S
C937 H930 0.950 . S
C937 C934 1.387 . S
C938 C939 1.387 . S
C938 H942 0.950 . S
C938 C947 1.390 . S
C939 C938 1.387 . S
C939 C941 1.387 . S
H940 C947 0.950 . S
C941 C939 1.387 . S
C941 C943 1.390 . S
C941 H945 0.950 . S
H942 C938 0.950 . S
C943 C941 1.390 . S
C943 C944 1.387 . S
C943 H946 0.950 . S
C944 C943 1.387 . S
C944 C947 1.387 . S
H945 C941 0.950 . S
H946 C943 0.950 . S
C947 C938 1.390 . S
C947 H940 0.950 . S
C947 C944 1.387 . S
C948 C949 1.387 . S
C948 H952 0.950 . S
C948 C957 1.390 . S
C949 C948 1.387 . S
C949 C951 1.387 . S
H950 C957 0.950 . S
C951 C949 1.387 . S
C951 C953 1.390 . S
C951 H955 0.950 . S
H952 C948 0.950 . S
C953 C951 1.390 . S
C953 C954 1.387 . S
C953 H956 0.950 . S
C954 C953 1.387 . S
C954 C957 1.387 . S
H955 C951 0.950 . S
H956 C953 0.950 . S
C957 C948 1.390 . S
C957 H950 0.950 . S
C957 C954 1.387 . S
C958 C959 1.387 . S
C958 H962 0.950 . S
C958 C967 1.390 . S
C959 C958 1.387 . S
C959 C961 1.387 . S
H960 C967 0.950 . S
C961 C959 1.387 . S
C961 C963 1.390 . S
C961 H965 0.950 . S
H962 C958 0.950 . S
C963 C961 1.390 . S
C963 C964 1.387 . S
C963 H966 0.950 . S
C964 C963 1.387 . S
C964 C967 1.387 . S
H965 C961 0.950 . S
H966 C963 0.950 . S
C967 C958 1.390 . S
C967 H960 0.950 . S
C967 C964 1.387 . S
C968 C969 1.387 . S
C968 H972 0.950 . S
C968 C977 1.390 . S
C969 C968 1.387 . S
C969 C971 1.387 . S
H970 C977 0.950 . S
C971 C969 1.387 . S
C971 C973 1.390 . S
C971 H975 0.950 . S
H972 C968 0.950 . S
C973 C971 1.390 . S
C973 C974 1.387 . S
C973 H976 0.950 . S
C974 C973 1.387 . S
C974 C977 1.387 . S
H975 C971 0.950 . S
H976 C973 0.950 . S
C977 C968 1.390 . S
C977 H970 0.950 . S
C977 C974 1.387 . S
C978 C979 1.387 . S
C978 H982 0.950 . S
C978 C987 1.390 . S
C979 C978 1.387 . S
C979 C981 1.387 . S
H980 C987 0.950 . S
C981 C979 1.387 . S
C981 C983 1.390 . S
C981 H985 0.950 . S
H982 C978 0.950 . S
C983 C981 1.390 . S
C983 C984 1.387 . S
C983 H986 0.950 . S
C984 C983 1.387 . S
C984 C987 1.387 . S
H985 C981 0.950 . S
H986 C983 0.950 . S
C987 C978 1.390 . S
C987 H980 0.950 . S
C987 C984 1.387 . S
C988 C989 1.387 . S
C988 H992 0.950 . S
C988 C997 1.390 . S
C989 C988 1.387 . S
C989 C991 1.387 . S
H990 C997 0.950 . S
C991 C989 1.387 . S
C991 C993 1.390 . S
C991 H995 0.950 . S
H992 C988 0.950 . S
C993 C991 1.390 . S
C993 C994 1.387 . S
C993 H996 0.950 . S
C994 C993 1.387 . S
C994 C997 1.387 . S
H995 C991 0.950 . S
H996 C993 0.950 . S
C997 C988 1.390 . S
C997 H990 0.950 . S
C997 C994 1.387 . S
C998 C999 1.387 . S
C998 H1002 0.950 . S
C998 C1007 1.390 . S
C999 C998 1.387 . S
C999 C1001 1.387 . S
H1000 C1007 0.950 . S
C1001 C999 1.387 . S
C1001 C1003 1.390 . S
C1001 H1005 0.950 . S
H1002 C998 0.950 . S
C1003 C1001 1.390 . S
C1003 C1004 1.387 . S
C1003 H1006 0.950 . S
C1004 C1003 1.387 . S
C1004 C1007 1.387 . S
H1005 C1001 0.950 . S
H1006 C1003 0.950 . S
C1007 C998 1.390 . S
C1007 H1000 0.950 . S
C1007 C1004 1.387 . S
C649 C626 1.655 . S
C654 C14 1.655 . S
C659 C554 1.655 . S
C664 C50 1.654 . S
C669 C590 1.655 . S
C674 C86 1.653 . S
C679 C266 1.654 . S
C684 C122 1.652 . S
C689 C302 1.653 . S
C694 C158 1.654 . S
C699 C194 1.655 . S
C704 C230 1.655 . S
C709 C338 1.652 . S
C714 C482 1.654 . S
C719 C374 1.654 . S
C724 C518 1.656 . S
C729 C410 1.653 . S
C734 C446 1.653 . S
C739 C2 0.830 . S
C744 C614 0.830 . S
C749 C542 0.832 . S
C754 C38 0.832 . S
C759 C74 0.833 . S
C764 C578 0.833 . S
C769 C254 0.833 . S
C774 C110 0.833 . S
C779 C146 0.830 . S
C784 C290 0.830 . S
C789 C182 0.834 . S
C794 C218 0.834 . S
C799 C326 0.830 . S
C804 C470 0.830 . S
C809 C506 0.833 . S
C814 C362 0.833 . S
C819 C434 0.830 . S
C824 C398 0.830 . S
C829 C3 1.634 . S
C834 C111 1.633 . S
C839 C147 1.633 . S
C844 C39 1.633 . S
C849 C183 1.633 . S
C854 C75 1.634 . S
C859 C184 1.641 . S
C864 C40 1.641 . S
C869 C76 1.642 . S
C874 C112 1.642 . S
C879 C148 1.642 . S
C884 C4 1.641 . S
C889 C219 1.634 . S
C894 C327 1.633 . S
C899 C363 1.634 . S
C904 C255 1.634 . S
C909 C399 1.633 . S
C914 C291 1.634 . S
C919 C400 1.641 . S
C924 C256 1.641 . S
C929 C292 1.640 . S
C934 C328 1.640 . S
C939 C364 1.642 . S
C944 C220 1.641 . S
C949 C543 1.634 . S
C954 C435 1.633 . S
C959 C579 1.634 . S
C964 C471 1.634 . S
C969 C507 1.634 . S
C974 C615 1.633 . S
C979 C616 1.641 . S
C984 C472 1.640 . S
C989 C508 1.640 . S
C994 C544 1.640 . S
C999 C580 1.640 . S
C1004 C436 1.641 . S
