# Generated by pormake.
# Topology ecf, (8)-cn, num edge types: 1
# Building blocks:
#     Node 0, Type 0, BuildingBlock: VETTIZ_charged_sbu_0, # of connection points: 8
#     Node 1, Type 0, BuildingBlock: VETTIZ_charged_sbu_0, # of connection points: 8
#     Node 2, Type 0, BuildingBlock: VETTIZ_charged_sbu_0, # of connection points: 8
#     Node 3, Type 0, BuildingBlock: VETTIZ_charged_sbu_0, # of connection points: 8
#     Node 4, Type 0, BuildingBlock: VETTIZ_charged_sbu_0, # of connection points: 8
#     Node 5, Type 0, BuildingBlock: VETTIZ_charged_sbu_0, # of connection points: 8
#     Edge 6, Type (0, 0), BuildingBlock: EZIPEK_clean_linker_0, # of connection points: 2
#     Edge 7, Type (0, 0), BuildingBlock: EZIPEK_clean_linker_0, # of connection points: 2
#     Edge 8, Type (0, 0), BuildingBlock: EZIPEK_clean_linker_0, # of connection points: 2
#     Edge 9, Type (0, 0), BuildingBlock: EZIPEK_clean_linker_0, # of connection points: 2
#     Edge 10, Type (0, 0), BuildingBlock: EZIPEK_clean_linker_0, # of connection points: 2
#     Edge 11, Type (0, 0), BuildingBlock: EZIPEK_clean_linker_0, # of connection points: 2
#     Edge 12, Type (0, 0), BuildingBlock: EZIPEK_clean_linker_0, # of connection points: 2
#     Edge 13, Type (0, 0), BuildingBlock: EZIPEK_clean_linker_0, # of connection points: 2
#     Edge 14, Type (0, 0), BuildingBlock: EZIPEK_clean_linker_0, # of connection points: 2
#     Edge 15, Type (0, 0), BuildingBlock: EZIPEK_clean_linker_0, # of connection points: 2
#     Edge 16, Type (0, 0), BuildingBlock: EZIPEK_clean_linker_0, # of connection points: 2
#     Edge 17, Type (0, 0), BuildingBlock: EZIPEK_clean_linker_0, # of connection points: 2
#     Edge 18, Type (0, 0), BuildingBlock: EZIPEK_clean_linker_0, # of connection points: 2
#     Edge 19, Type (0, 0), BuildingBlock: EZIPEK_clean_linker_0, # of connection points: 2
#     Edge 20, Type (0, 0), BuildingBlock: EZIPEK_clean_linker_0, # of connection points: 2
#     Edge 21, Type (0, 0), BuildingBlock: EZIPEK_clean_linker_0, # of connection points: 2
#     Edge 22, Type (0, 0), BuildingBlock: EZIPEK_clean_linker_0, # of connection points: 2
#     Edge 23, Type (0, 0), BuildingBlock: EZIPEK_clean_linker_0, # of connection points: 2
#     Edge 24, Type (0, 0), BuildingBlock: EZIPEK_clean_linker_0, # of connection points: 2
#     Edge 25, Type (0, 0), BuildingBlock: EZIPEK_clean_linker_0, # of connection points: 2
#     Edge 26, Type (0, 0), BuildingBlock: EZIPEK_clean_linker_0, # of connection points: 2
#     Edge 27, Type (0, 0), BuildingBlock: EZIPEK_clean_linker_0, # of connection points: 2
#     Edge 28, Type (0, 0), BuildingBlock: EZIPEK_clean_linker_0, # of connection points: 2
#     Edge 29, Type (0, 0), BuildingBlock: EZIPEK_clean_linker_0, # of connection points: 2
# Relax obj value: 0.148
# Max RMSD: 0.140
# Mean RMSD: 0.140
data_MOF--net-ecf--node1-VETTIZ_charged_sbu_0--edge1-EZIPEK_clean_linker_0
_symmetry_space_group_name_H-M    P1
_symmetry_Int_Tables_number       1
_symmetry_cell_setting            triclinic
loop_
_symmetry_equiv_pos_as_xyz
'x, y, z'
_cell_length_a     25.585531
_cell_length_b     25.402235
_cell_length_c     20.508659
_cell_angle_alpha  88.952698
_cell_angle_beta   89.825034
_cell_angle_gamma 118.69851
loop_
_atom_site_label
_atom_site_type_symbol
_atom_site_fract_x
_atom_site_fract_y
_atom_site_fract_z
_atom_type_partial_charge
Fe0 Fe 0.1221 0.2696 0.2614 0.0
O1 O 0.10911 0.29228 0.35113 0.0
Fe2 Fe 0.19949 0.40395 0.17897 0.0
Fe3 Fe 0.09945 0.24048 0.42851 0.0
O4 O 0.18793 0.35326 0.25646 0.0
O5 O 0.19059 0.3582 0.26153 0.0
O6 O 0.11011 0.29751 0.35537 0.0
Fe7 Fe 0.17741 0.38152 0.35168 0.0
C8 C 0.01061 0.17021 0.33026 0.0
O9 O 0.17988 0.24015 0.29579 0.0
O10 O 0.12737 0.18669 0.38141 0.0
O11 O 0.25233 0.4637 0.33352 0.0
O12 O 0.2771 0.46028 0.22477 0.0
O13 O 0.22779 0.34879 0.13871 0.0
O14 O 0.14858 0.25682 0.16698 0.0
O15 O 0.18106 0.2894 0.46763 0.0
O16 O 0.23695 0.355 0.39079 0.0
C17 C 0.19672 0.29135 0.13277 0.0
O18 O 0.12589 0.41917 0.31586 0.0
O19 O 0.16597 0.45476 0.21771 0.0
O20 O 0.04756 0.18603 0.281 0.0
O21 O 0.02139 0.192 0.38757 0.0
C22 C 0.16394 0.1957 0.33506 0.0
C23 C 0.23149 0.3254 0.44352 0.0
C24 C 0.10043 0.35114 0.48229 0.0
O25 O 0.07534 0.294 0.47581 0.0
O26 O 0.14657 0.39104 0.44751 0.0
C27 C 0.28835 0.48202 0.2831 0.0
O28 O 0.11701 0.34869 0.13712 0.0
O29 O 0.06232 0.29455 0.22129 0.0
C30 C 0.14056 0.45832 0.26919 0.0
C31 C 0.06619 0.3139 0.1627 0.0
Fe32 Fe 0.86271 0.13785 0.72067 0.0
O33 O 0.88153 0.16216 0.81389 0.0
Fe34 Fe 0.77446 0.20174 0.67611 0.0
Fe35 Fe 0.90031 0.11554 0.87835 0.0
O36 O 0.79355 0.15226 0.7373 0.0
O37 O 0.79267 0.15645 0.74288 0.0
O38 O 0.88029 0.16571 0.81934 0.0
Fe39 Fe 0.81142 0.18073 0.83644 0.0
C40 C 0.83493 0.01742 0.777 0.0
O41 O 0.94186 0.1325 0.71691 0.0
O42 O 0.97644 0.14969 0.82244 0.0
O43 O 0.86169 0.27142 0.81088 0.0
O44 O 0.80715 0.27963 0.73047 0.0
O45 O 0.85524 0.23836 0.62415 0.0
O46 O 0.91596 0.2266 0.69118 0.0
O47 O 0.92582 0.18777 0.93662 0.0
O48 O 0.8458 0.20621 0.93431 0.0
C49 C 0.90776 0.25574 0.64494 0.0
O50 O 0.73173 0.18691 0.83949 0.0
O51 O 0.69841 0.17079 0.73302 0.0
O52 O 0.81396 0.04684 0.7457 0.0
O53 O 0.87205 0.04072 0.82236 0.0
C54 C 0.98413 0.14966 0.75978 0.0
C55 C 0.89531 0.21155 0.96 0.0
C56 C 0.76598 0.06539 0.91289 0.0
O57 O 0.81855 0.07668 0.92882 0.0
O58 O 0.75702 0.09265 0.86551 0.0
C59 C 0.84435 0.30251 0.77655 0.0
O60 O 0.74743 0.12568 0.62014 0.0
O61 O 0.82878 0.10952 0.6251 0.0
C62 C 0.69019 0.17218 0.79548 0.0
C63 C 0.77686 0.09852 0.60185 0.0
Fe64 Fe 0.77216 0.90196 0.18753 0.0
O65 O 0.70227 0.87641 0.24441 0.0
Fe66 Fe 0.61883 0.80787 0.22087 0.0
Fe67 Fe 0.705 0.8543 0.3373 0.0
O68 O 0.69943 0.87486 0.23952 0.0
O69 O 0.62295 0.78203 0.31394 0.0
O70 O 0.62583 0.78591 0.32073 0.0
Fe71 Fe 0.56285 0.76859 0.38451 0.0
C72 C 0.79728 0.82924 0.29256 0.0
O73 O 0.80055 0.97577 0.24246 0.0
O74 O 0.7849 0.93015 0.34284 0.0
O75 O 0.52027 0.80631 0.3322 0.0
O76 O 0.58177 0.86036 0.25086 0.0
O77 O 0.6261 0.84947 0.12761 0.0
O78 O 0.72448 0.92487 0.12348 0.0
O79 O 0.67077 0.90876 0.36558 0.0
O80 O 0.60962 0.84731 0.43885 0.0
C81 C 0.66987 0.8995 0.10351 0.0
O82 O 0.51708 0.69601 0.32734 0.0
O83 O 0.5335 0.73272 0.21963 0.0
O84 O 0.81689 0.8736 0.25221 0.0
O85 O 0.74377 0.80357 0.31247 0.0
C86 C 0.80127 0.97692 0.3055 0.0
C87 C 0.64603 0.90101 0.42094 0.0
C88 C 0.66431 0.76735 0.45514 0.0
O89 O 0.70102 0.82057 0.43221 0.0
O90 O 0.6094 0.73613 0.43769 0.0
C91 C 0.53454 0.84381 0.2848 0.0
O92 O 0.65319 0.7539 0.18051 0.0
O93 O 0.74148 0.82367 0.13962 0.0
C94 C 0.50564 0.69192 0.26542 0.0
C95 C 0.69926 0.76989 0.14325 0.0
Fe96 Fe 0.86302 0.70578 0.73 0.0
O97 O 0.89833 0.70534 0.81627 0.0
Fe98 Fe 0.76822 0.55676 0.70213 0.0
Fe99 Fe 0.93062 0.77598 0.87133 0.0
O100 O 0.79779 0.62601 0.76001 0.0
O101 O 0.79581 0.62245 0.76607 0.0
O102 O 0.89737 0.7013 0.82146 0.0
Fe103 Fe 0.83187 0.62146 0.85311 0.0
C104 C 0.98893 0.81351 0.73634 0.0
O105 O 0.81766 0.74787 0.76577 0.0
O106 O 0.89185 0.82012 0.81882 0.0
O107 O 0.75471 0.53728 0.87188 0.0
O108 O 0.703 0.51557 0.77431 0.0
O109 O 0.73203 0.60396 0.65414 0.0
O110 O 0.815 0.69746 0.64604 0.0
O111 O 0.86177 0.74331 0.94017 0.0
O112 O 0.78654 0.66115 0.89884 0.0
C113 C 0.7609 0.65867 0.63125 0.0
O114 O 0.8762 0.5777 0.81624 0.0
O115 O 0.80996 0.51332 0.74743 0.0
O116 O 0.9382 0.78756 0.70688 0.0
O117 O 0.99535 0.80888 0.79868 0.0
C118 C 0.84427 0.80132 0.78557 0.0
C119 C 0.80714 0.70301 0.94066 0.0
C120 C 0.93748 0.67508 0.95086 0.0
O121 O 0.96319 0.72888 0.92484 0.0
O122 O 0.8836 0.63266 0.93767 0.0
C123 C 0.7068 0.50786 0.83676 0.0
O124 O 0.83849 0.59745 0.63186 0.0
O125 O 0.91014 0.66793 0.68856 0.0
C126 C 0.85315 0.52802 0.78662 0.0
C127 C 0.89327 0.63662 0.63779 0.0
Fe128 Fe 0.08866 0.85764 0.20407 0.0
O129 O 0.11279 0.82019 0.27371 0.0
Fe130 Fe 0.18463 0.80505 0.25416 0.0
Fe131 Fe 0.13485 0.85226 0.36366 0.0
O132 O 0.11473 0.8179 0.26898 0.0
O133 O 0.20676 0.83639 0.34475 0.0
O134 O 0.20532 0.83954 0.34933 0.0
Fe135 Fe 0.22649 0.79402 0.41467 0.0
C136 C 0.15504 0.96573 0.29526 0.0
O137 O 0.01542 0.82745 0.26412 0.0
O138 O 0.05435 0.85541 0.36713 0.0
O139 O 0.19295 0.71293 0.36611 0.0
O140 O 0.13485 0.71786 0.28887 0.0
O141 O 0.14803 0.76878 0.16192 0.0
O142 O 0.06358 0.77953 0.15718 0.0
O143 O 0.08553 0.76591 0.4007 0.0
O144 O 0.148 0.76194 0.4717 0.0
C145 C 0.09477 0.75418 0.14034 0.0
O146 O 0.3014 0.82226 0.35548 0.0
O147 O 0.2653 0.80118 0.25105 0.0
O148 O 0.11953 0.9375 0.24978 0.0
O149 O 0.17847 0.94091 0.33055 0.0
C150 C 0.01051 0.83456 0.32598 0.0
C151 C 0.0949 0.74733 0.45487 0.0
C152 C 0.22965 0.90624 0.47145 0.0
O153 O 0.17446 0.88866 0.45474 0.0
O154 O 0.25494 0.87324 0.46279 0.0
C155 C 0.15312 0.68806 0.32307 0.0
O156 O 0.23455 0.89088 0.21475 0.0
O157 O 0.1664 0.8932 0.14916 0.0
C158 C 0.30855 0.81977 0.29294 0.0
C159 C 0.22031 0.91232 0.16556 0.0
Fe160 Fe 0.29459 0.14303 0.72276 0.0
O161 O 0.29097 0.10426 0.80924 0.0
Fe162 Fe 0.44206 0.23609 0.69575 0.0
Fe163 Fe 0.21667 0.06747 0.86008 0.0
O164 O 0.37161 0.20848 0.75313 0.0
O165 O 0.37415 0.21062 0.75885 0.0
O166 O 0.29411 0.10576 0.81502 0.0
Fe167 Fe 0.36777 0.17449 0.84933 0.0
C168 C 0.19816 0.15755 0.77371 0.0
O169 O 0.2146 0.06653 0.69785 0.0
O170 O 0.19259 0.00503 0.78876 0.0
O171 O 0.41574 0.13176 0.82394 0.0
O172 O 0.47722 0.18775 0.74298 0.0
O173 O 0.40091 0.16882 0.62479 0.0
O174 O 0.33386 0.09696 0.68602 0.0
O175 O 0.26155 0.03753 0.92067 0.0
O176 O 0.35021 0.12474 0.93864 0.0
C177 C 0.36139 0.11405 0.6326 0.0
O178 O 0.45027 0.25312 0.86849 0.0
O179 O 0.48405 0.30007 0.76673 0.0
O180 O 0.25253 0.18675 0.75838 0.0
O181 O 0.17624 0.10599 0.80202 0.0
C182 C 0.18935 0.01389 0.72676 0.0
C183 C 0.30942 0.0697 0.95384 0.0
C184 C 0.27321 0.19008 0.9239 0.0
O185 O 0.24053 0.13357 0.9268 0.0
O186 O 0.31864 0.21554 0.88485 0.0
C187 C 0.46289 0.14934 0.78976 0.0
O188 O 0.40217 0.27817 0.64605 0.0
O189 O 0.30804 0.19705 0.63786 0.0
C190 C 0.48715 0.29768 0.83001 0.0
C191 C 0.3492 0.25142 0.62165 0.0
C192 C 0.18028 0.57081 0.24586 0.0
C193 C 0.13676 0.51562 0.27679 0.0
C194 C 0.09612 0.57359 0.33302 0.0
C195 C 0.1391 0.62695 0.30106 0.0
N196 N 0.19961 0.66766 0.20405 0.0
N197 N 0.03939 0.465 0.32773 0.0
C198 C 0.17344 0.62259 0.24979 0.0
C199 C 0.09053 0.517 0.31442 0.0
N200 N 0.23089 0.57678 0.21627 0.0
N201 N 0.05961 0.5767 0.37949 0.0
H202 H 0.03153 0.42418 0.30837 0.0
H203 H 0.0024 0.46368 0.35074 0.0
H204 H 0.05925 0.61674 0.38898 0.0
H205 H 0.03161 0.54023 0.40939 0.0
H206 H 0.26488 0.61804 0.1991 0.0
H207 H 0.2448 0.54472 0.21677 0.0
H208 H 0.22011 0.66354 0.16186 0.0
H209 H 0.19352 0.7052 0.2035 0.0
C210 C 0.54807 0.16788 0.8628 0.0
C211 C 0.50938 0.13393 0.81237 0.0
C212 C 0.58158 0.10171 0.78131 0.0
C213 C 0.62663 0.15095 0.81542 0.0
N214 N 0.65073 0.22912 0.89419 0.0
N215 N 0.48346 0.0582 0.73256 0.0
C216 C 0.60926 0.1825 0.85946 0.0
C217 C 0.52416 0.09701 0.77478 0.0
N218 N 0.52681 0.18784 0.91221 0.0
N219 N 0.59395 0.05943 0.75608 0.0
H220 H 0.43973 0.0511 0.7318 0.0
H221 H 0.49333 0.0345 0.69817 0.0
H222 H 0.63482 0.06046 0.76335 0.0
H223 H 0.56217 0.0205 0.73433 0.0
H224 H 0.55182 0.20948 0.95275 0.0
H225 H 0.48197 0.17639 0.91613 0.0
H226 H 0.64071 0.25761 0.92107 0.0
H227 H 0.69594 0.24237 0.89308 0.0
C228 C 0.3972 0.5299 0.26607 0.0
C229 C 0.34693 0.53433 0.2889 0.0
C230 C 0.39839 0.64147 0.26896 0.0
C231 C 0.45016 0.63855 0.25115 0.0
N232 N 0.5023 0.58236 0.2358 0.0
N233 N 0.30682 0.59607 0.33125 0.0
C234 C 0.45047 0.58316 0.24998 0.0
C235 C 0.34973 0.59064 0.29675 0.0
N236 N 0.39341 0.47466 0.25998 0.0
N237 N 0.39652 0.69366 0.25963 0.0
H238 H 0.27044 0.56004 0.35375 0.0
H239 H 0.31028 0.63737 0.3429 0.0
H240 H 0.43203 0.73036 0.23717 0.0
H241 H 0.35841 0.69789 0.26693 0.0
H242 H 0.42575 0.46757 0.23701 0.0
H243 H 0.35657 0.43532 0.27708 0.0
H244 H 0.50777 0.54446 0.24087 0.0
H245 H 0.54081 0.62102 0.22045 0.0
C246 C 0.84654 0.38416 0.84897 0.0
C247 C 0.86579 0.36772 0.79114 0.0
C248 C 0.90543 0.47173 0.74918 0.0
C249 C 0.87448 0.48302 0.79879 0.0
N250 N 0.84396 0.46402 0.91108 0.0
N251 N 0.92082 0.3991 0.68966 0.0
C252 C 0.85427 0.44369 0.85391 0.0
C253 C 0.89847 0.41299 0.74291 0.0
N254 N 0.81691 0.34193 0.89682 0.0
N255 N 0.94505 0.51872 0.71143 0.0
H256 H 0.91974 0.35796 0.68663 0.0
H257 H 0.9384 0.42724 0.6487 0.0
H258 H 0.95141 0.56216 0.71757 0.0
H259 H 0.97588 0.5159 0.68044 0.0
H260 H 0.79518 0.34882 0.93608 0.0
H261 H 0.81154 0.29863 0.89577 0.0
H262 H 0.83421 0.43997 0.95513 0.0
H263 H 0.85002 0.50749 0.91499 0.0
C264 C 0.4171 0.89019 0.30794 0.0
C265 C 0.37236 0.84444 0.27011 0.0
C266 C 0.45307 0.83752 0.21254 0.0
C267 C 0.49041 0.8637 0.26661 0.0
N268 N 0.51155 0.92384 0.36187 0.0
N269 N 0.35157 0.78138 0.17541 0.0
C270 C 0.47386 0.89364 0.31269 0.0
C271 C 0.39137 0.82118 0.21774 0.0
N272 N 0.40567 0.93139 0.33721 0.0
N273 N 0.47593 0.82611 0.15775 0.0
H274 H 0.30717 0.77093 0.17319 0.0
H275 H 0.36261 0.75697 0.14312 0.0
H276 H 0.5208 0.83787 0.15345 0.0
H277 H 0.45207 0.81106 0.11482 0.0
H278 H 0.43804 0.96811 0.36175 0.0
H279 H 0.36593 0.93255 0.3292 0.0
H280 H 0.49895 0.94111 0.40099 0.0
H281 H 0.55466 0.92937 0.36406 0.0
C282 C 0.54545 0.39941 0.88142 0.0
C283 C 0.54374 0.34683 0.8564 0.0
C284 C 0.65315 0.39829 0.85428 0.0
C285 C 0.65456 0.45349 0.86487 0.0
N286 N 0.60325 0.50814 0.89259 0.0
N287 N 0.59833 0.30095 0.80901 0.0
C288 C 0.60098 0.45438 0.88096 0.0
C289 C 0.59831 0.34711 0.84166 0.0
N290 N 0.49391 0.39706 0.90323 0.0
N291 N 0.70505 0.39571 0.8523 0.0
H292 H 0.55949 0.26307 0.79728 0.0
H293 H 0.63647 0.30257 0.78868 0.0
H294 H 0.74564 0.43374 0.85921 0.0
H295 H 0.70705 0.35574 0.85032 0.0
H296 H 0.49222 0.43252 0.92596 0.0
H297 H 0.45321 0.35749 0.90289 0.0
H298 H 0.5657 0.51362 0.89805 0.0
H299 H 0.64371 0.54789 0.89486 0.0
C300 C 0.21562 0.13149 0.34746 0.0
C301 C 0.17291 0.1439 0.31669 0.0
C302 C 0.11618 0.03945 0.28877 0.0
C303 C 0.16276 0.02732 0.30877 0.0
N304 N 0.26333 0.06872 0.35103 0.0
N305 N 0.09731 0.11275 0.23473 0.0
C306 C 0.21482 0.07539 0.33632 0.0
C307 C 0.1284 0.09905 0.27935 0.0
N308 N 0.25621 0.17286 0.38768 0.0
N309 N 0.05875 0.99476 0.28334 0.0
H310 H 0.11022 0.15698 0.22138 0.0
H311 H 0.06549 0.08057 0.20482 0.0
H312 H 0.04486 0.95097 0.29946 0.0
H313 H 0.02376 0.00351 0.27257 0.0
H314 H 0.28726 0.16621 0.41411 0.0
H315 H 0.25585 0.21275 0.39712 0.0
H316 H 0.30377 0.10415 0.36535 0.0
H317 H 0.26541 0.02935 0.34423 0.0
C318 C 0.09167 0.21909 0.77658 0.0
C319 C 0.04709 0.17326 0.73841 0.0
C320 C 0.12292 0.15193 0.69416 0.0
C321 C 0.15758 0.179 0.74912 0.0
N322 N 0.18913 0.25751 0.82666 0.0
N323 N 0.02568 0.10807 0.64574 0.0
C324 C 0.14704 0.21981 0.78474 0.0
C325 C 0.06447 0.14432 0.69116 0.0
N326 N 0.07979 0.26027 0.80548 0.0
N327 N 0.14766 0.13749 0.64346 0.0
H328 H 0.98546 0.10698 0.6355 0.0
H329 H 0.03432 0.07954 0.61718 0.0
H330 H 0.19183 0.1462 0.64448 0.0
H331 H 0.12722 0.12453 0.59836 0.0
H332 H 0.11059 0.29626 0.83201 0.0
H333 H 0.03955 0.26055 0.79834 0.0
H334 H 0.18274 0.28538 0.85851 0.0
H335 H 0.23091 0.25985 0.82986 0.0
C336 C 0.90774 0.13276 0.29355 0.0
C337 C 0.95125 0.1221 0.32506 0.0
C338 C 0.87364 0.03772 0.38359 0.0
C339 C 0.83489 0.03512 0.33447 0.0
N340 N 0.80606 0.08684 0.25546 0.0
N341 N 0.97552 0.06342 0.40196 0.0
C342 C 0.84866 0.08596 0.29459 0.0
C343 C 0.93422 0.07411 0.37104 0.0
N344 N 0.92216 0.18742 0.26602 0.0
N345 N 0.85261 0.00405 0.43955 0.0
H346 H 0.021 0.08777 0.39104 0.0
H347 H 0.96374 0.02712 0.4341 0.0
H348 H 0.80692 0.9783 0.44891 0.0
H349 H 0.88006 0.00727 0.47846 0.0
H350 H 0.89078 0.19827 0.24691 0.0
H351 H 0.965 0.22357 0.26741 0.0
H352 H 0.81487 0.1196 0.21945 0.0
H353 H 0.76188 0.05255 0.25835 0.0
C354 C 0.85146 0.94316 0.71215 0.0
C355 C 0.81855 0.95406 0.76101 0.0
C356 C 0.77838 0.84946 0.79999 0.0
C357 C 0.82346 0.84523 0.76488 0.0
N358 N 0.87835 0.87215 0.66433 0.0
N359 N 0.75012 0.91667 0.85191 0.0
C360 C 0.85301 0.88757 0.71368 0.0
C361 C 0.78046 0.90627 0.80386 0.0
N362 N 0.88344 0.9871 0.66675 0.0
N363 N 0.7327 0.79901 0.82733 0.0
H364 H 0.75466 0.95909 0.85845 0.0
H365 H 0.72471 0.8849 0.8875 0.0
H366 H 0.73078 0.75713 0.82416 0.0
H367 H 0.69494 0.7983 0.84754 0.0
H368 H 0.91403 0.98557 0.63435 0.0
H369 H 0.87942 0.02596 0.66223 0.0
H370 H 0.89641 0.89806 0.6221 0.0
H371 H 0.87405 0.82927 0.6626 0.0
C372 C 0.87786 0.85205 0.37333 0.0
C373 C 0.84028 0.81419 0.32448 0.0
C374 C 0.90268 0.76652 0.31809 0.0
C375 C 0.94909 0.81747 0.34781 0.0
N376 N 0.97771 0.90371 0.41591 0.0
N377 N 0.81043 0.7277 0.25819 0.0
C378 C 0.93556 0.85808 0.38071 0.0
C379 C 0.84992 0.76793 0.30034 0.0
N380 N 0.85737 0.88017 0.4138 0.0
N381 N 0.91074 0.71838 0.30503 0.0
H382 H 0.77044 0.72709 0.24697 0.0
H383 H 0.81829 0.69686 0.23306 0.0
H384 H 0.94948 0.7172 0.31877 0.0
H385 H 0.87749 0.67833 0.28673 0.0
H386 H 0.88091 0.90485 0.4537 0.0
H387 H 0.81319 0.87104 0.41266 0.0
H388 H 0.97189 0.93869 0.43364 0.0
H389 H 0.01903 0.90759 0.42676 0.0
C390 C 0.10145 0.95466 0.65474 0.0
C391 C 0.15073 0.95903 0.69002 0.0
C392 C 0.09736 0.85195 0.71575 0.0
C393 C 0.04417 0.85252 0.69816 0.0
N394 N 0.00109 0.88943 0.61722 0.0
N395 N 0.20555 0.90913 0.72338 0.0
C396 C 0.04762 0.89913 0.65642 0.0
C397 C 0.15209 0.90598 0.70903 0.0
N398 N 0.10612 0.00335 0.62106 0.0
N399 N 0.09433 0.80055 0.74136 0.0
H400 H 0.24539 0.94939 0.71755 0.0
H401 H 0.21093 0.87227 0.73645 0.0
H402 H 0.05434 0.76011 0.74281 0.0
H403 H 0.1305 0.7976 0.76031 0.0
H404 H 0.07022 0.006 0.60083 0.0
H405 H 0.14749 0.04032 0.61118 0.0
H406 H 0.00163 0.92086 0.58358 0.0
H407 H 0.96484 0.84686 0.61208 0.0
C408 C 0.17801 0.2381 1.02658 0.0
C409 C 0.21619 0.26553 0.07931 0.0
C410 C 0.29722 0.25837 1.02117 0.0
C411 C 0.25662 0.22393 0.97193 0.0
N412 N 0.15314 0.171 0.93757 0.0
N413 N 0.30953 0.29376 0.13233 0.0
C414 C 0.19562 0.21095 0.97758 0.0
C415 C 0.2753 0.27392 0.07788 0.0
N416 N 0.12563 0.23998 1.02127 0.0
N417 N 0.3564 0.2751 1.01513 0.0
H418 H 0.29446 0.30387 0.1752 0.0
H419 H 0.35041 0.29462 0.13746 0.0
H420 H 0.37423 0.2617 0.97735 0.0
H421 H 0.38883 0.30606 0.04531 0.0
H422 H 0.09973 0.22726 0.97945 0.0
H423 H 0.11082 0.25975 0.05559 0.0
H424 H 0.10756 0.15348 0.94626 0.0
H425 H 0.16274 0.15295 0.8975 0.0
C426 C 0.01981 0.33105 0.63761 0.0
C427 C 0.96192 0.30655 0.61008 0.0
C428 C 0.00836 0.35627 0.50558 0.0
C429 C 0.06478 0.36659 0.52833 0.0
N430 N 0.12694 0.37587 0.61861 0.0
N431 N 0.90702 0.33279 0.53198 0.0
C432 C 0.07136 0.35923 0.59583 0.0
C433 C 0.95762 0.33061 0.54831 0.0
N434 N 0.02545 0.33173 0.70377 0.0
N435 N 0.00244 0.36554 0.44102 0.0
H436 H 0.87277 0.3232 0.56547 0.0
H437 H 0.90315 0.35332 0.4892 0.0
H438 H 0.03941 0.3846 0.40974 0.0
H439 H 0.96153 0.35138 0.41851 0.0
H440 H 0.06623 0.35291 0.72721 0.0
H441 H 0.98897 0.31802 0.73536 0.0
H442 H 0.13552 0.36459 0.66492 0.0
H443 H 0.16438 0.40083 0.58905 0.0
C444 C 0.68325 -0.00095 0.07067 0.0
C445 C 0.65914 0.93763 0.05499 0.0
C446 C 0.67274 0.96622 0.93908 0.0
C447 C 0.7149 0.02511 0.95688 0.0
N448 N 0.73568 0.10334 1.03241 0.0
N449 N 0.61177 0.86194 0.97506 0.0
C450 C 0.71201 0.04358 1.02076 0.0
C451 C 0.64661 0.92081 0.98915 0.0
N452 N 0.68172 0.01359 0.13418 0.0
N453 N 0.65661 0.95485 0.87546 0.0
H454 H 0.58843 0.82996 1.01165 0.0
H455 H 0.60603 0.84531 0.92809 0.0
H456 H 0.67475 0.98848 0.83928 0.0
H457 H 0.62316 0.91382 0.85951 0.0
H458 H 0.70154 0.05715 0.15127 0.0
H459 H 0.65902 0.98048 0.17009 0.0
H460 H 0.73567 0.12113 0.07765 0.0
H461 H 0.75237 0.13525 0.99451 0.0
C462 C 0.7114 0.72082 0.61118 0.0
C463 C 0.72998 0.6805 0.58686 0.0
C464 C 0.70095 0.69364 0.47672 0.0
C465 C 0.68789 0.7384 0.50035 0.0
N466 N 0.68955 0.80185 0.58716 0.0
N467 N 0.7478 0.63145 0.49678 0.0
C468 C 0.69584 0.75426 0.56677 0.0
C469 C 0.72594 0.66738 0.51967 0.0
N470 N 0.70639 0.72527 0.67695 0.0
N471 N 0.6893 0.67623 0.41331 0.0
H472 H 0.76388 0.60938 0.52741 0.0
H473 H 0.75327 0.62611 0.44747 0.0
H474 H 0.67372 0.69635 0.37944 0.0
H475 H 0.69172 0.63954 0.39489 0.0
H476 H 0.68797 0.74982 0.69775 0.0
H477 H 0.71468 0.69904 0.7107 0.0
H478 H 0.70141 0.81982 0.63343 0.0
H479 H 0.67713 0.82663 0.55594 0.0
C480 C 0.03692 0.68728 0.97953 0.0
C481 C 0.97592 0.66392 0.99768 0.0
C482 C 0.00372 0.66291 0.11136 0.0
C483 C 0.06344 0.70452 0.09418 0.0
N484 N 0.14004 0.74778 1.01174 0.0
N485 N 0.8998 0.62044 0.08191 0.0
C486 C 0.08144 0.71251 1.02804 0.0
C487 C 0.95848 0.64693 0.06377 0.0
N488 N 0.05161 0.68712 0.91552 0.0
N489 N 0.99068 0.64244 0.17443 0.0
H490 H 0.86539 0.60576 0.0485 0.0
H491 H 0.8853 0.61442 0.13032 0.0
H492 H 0.0241 0.65536 0.20928 0.0
H493 H 0.94879 0.60927 0.19026 0.0
H494 H 0.09478 0.70027 0.8991 0.0
H495 H 0.01898 0.66827 0.87991 0.0
H496 H 0.1554 0.76173 0.96413 0.0
H497 H 0.17316 0.76394 0.04689 0.0
C498 C 0.35908 0.03156 0.5637 0.0
C499 C 0.33738 0.07163 0.57705 0.0
C500 C 0.24739 0.01001 0.51307 0.0
C501 C 0.26801 0.96749 0.50175 0.0
N502 N 0.36166 0.96628 0.48265 0.0
N503 N 0.2781 0.11377 0.53604 0.0
C504 C 0.32912 0.98588 0.51761 0.0
C505 C 0.28588 0.06482 0.54432 0.0
N506 N 0.40996 0.03867 0.59242 0.0
N507 N 0.1939 0.00167 0.49024 0.0
H508 H 0.31452 0.1562 0.54041 0.0
H509 H 0.24178 0.11372 0.51332 0.0
H510 H 0.17082 0.97367 0.45253 0.0
H511 H 0.17366 0.02621 0.50629 0.0
H512 H 0.42414 0.0065 0.58991 0.0
H513 H 0.43644 0.07597 0.62023 0.0
H514 H 0.40673 0.98085 0.49065 0.0
H515 H 0.34759 0.94567 0.43806 0.0
C516 C 0.75512 0.75819 0.98499 0.0
C517 C 0.76626 0.70879 0.98986 0.0
C518 C 0.71376 0.68364 0.09753 0.0
C519 C 0.70122 0.73195 0.08863 0.0
N520 N 0.68518 0.79297 1.01007 0.0
N521 N 0.74734 0.6178 0.04828 0.0
C522 C 0.71261 0.76041 1.02688 0.0
C523 C 0.74188 0.66861 0.04504 0.0
N524 N 0.78855 0.80632 0.9451 0.0
N525 N 0.70005 0.65343 0.15597 0.0
H526 H 0.76895 0.607 1.0119 0.0
H527 H 0.72738 0.58481 0.08465 0.0
H528 H 0.67693 0.66236 0.19235 0.0
H529 H 0.71285 0.62146 0.16875 0.0
H530 H 0.82198 0.8088 0.91441 0.0
H531 H 0.78596 0.84604 0.94729 0.0
H532 H 0.6898 0.81229 0.96383 0.0
H533 H 0.65245 0.79318 0.04022 0.0
C534 C 0.00703 0.74368 0.51534 0.0
C535 C 0.04286 0.71615 0.50215 0.0
C536 C 0.97 0.62653 0.5657 0.0
C537 C 0.93674 0.65612 0.58069 0.0
N538 N 0.90818 0.72724 0.53974 0.0
N539 N 0.06122 0.63248 0.52143 0.0
C540 C 0.95098 0.71047 0.54714 0.0
C541 C 0.02497 0.6576 0.52897 0.0
N542 N 0.02788 0.80306 0.50086 0.0
N543 N 0.9458 0.56696 0.58102 0.0
H544 H 0.10103 0.65338 0.49475 0.0
H545 H 0.054 0.59294 0.54519 0.0
H546 H 0.90389 0.54335 0.60345 0.0
H547 H 0.96353 0.53999 0.56539 0.0
H548 H 0.00527 0.82634 0.51325 0.0
H549 H 0.07085 0.83062 0.48347 0.0
H550 H 0.91392 0.76433 0.5117 0.0
H551 H 0.86403 0.69706 0.55082 0.0
C552 C 0.30025 0.06006 0.07611 0.0
C553 C 0.31304 0.04103 1.01626 0.0
C554 C 0.28599 0.94234 0.06567 0.0
C555 C 0.26703 0.9593 0.12269 0.0
N556 N 0.2762 0.03826 0.19158 0.0
N557 N 0.33642 0.9729 0.95984 0.0
C558 C 0.28127 0.01984 0.13101 0.0
C559 C 0.31249 0.98503 1.01339 0.0
N560 N 0.30194 0.11453 0.0792 0.0
N561 N 0.27597 0.8847 0.06073 0.0
H562 H 0.35639 0.00432 0.92174 0.0
H563 H 0.34106 0.9346 0.95549 0.0
H564 H 0.25973 0.85405 0.09994 0.0
H565 H 0.28237 0.86687 1.01806 0.0
H566 H 0.28556 0.12768 0.11865 0.0
H567 H 0.31776 0.14603 0.04094 0.0
H568 H 0.28948 0.0827 0.20276 0.0
H569 H 0.26461 0.00923 0.23201 0.0
C570 C 0.34956 0.29094 0.50711 0.0
C571 C 0.33328 0.2864 0.57436 0.0
C572 C 0.27932 0.34191 0.55097 0.0
C573 C 0.28339 0.33361 0.48362 0.0
N574 N 0.33898 0.32191 0.39626 0.0
N575 N 0.28722 0.31236 0.66188 0.0
C576 C 0.32448 0.31551 0.46111 0.0
C577 C 0.30036 0.3143 0.59691 0.0
N578 N 0.3869 0.26967 0.48753 0.0
N579 N 0.25584 0.37738 0.57004 0.0
H580 H 0.30477 0.2956 0.69741 0.0
H581 H 0.25695 0.3249 0.68033 0.0
H582 H 0.24309 0.39974 0.53565 0.0
H583 H 0.25531 0.38976 0.61806 0.0
H584 H 0.3982 0.26778 0.43925 0.0
H585 H 0.40676 0.25311 0.52047 0.0
H586 H 0.36943 0.31094 0.37533 0.0
H587 H 0.3219 0.34124 0.36323 0.0
C588 C -0.0014 0.32782 0.0799 0.0
C589 C 0.01169 0.28897 0.11966 0.0
C590 C 0.92415 0.20299 0.07349 0.0
C591 C 0.91911 0.2404 1.02451 0.0
N592 N 0.95251 0.33979 0.98066 0.0
N593 N 0.99233 0.18721 0.14118 0.0
C594 C 0.95602 0.30346 1.02829 0.0
C595 C 0.97516 0.22585 0.11397 0.0
N596 N 0.02648 0.38786 0.09174 0.0
N597 N 0.88169 0.14413 0.07841 0.0
H598 H 0.03273 0.20171 0.16456 0.0
H599 H 0.97018 0.14114 0.1335 0.0
H600 H 0.84525 0.12597 0.04752 0.0
H601 H 0.87985 0.11568 0.11669 0.0
H602 H 0.01554 0.41788 0.06825 0.0
H603 H 0.05672 0.40661 0.12952 0.0
H604 H 0.98267 0.3854 0.97568 0.0
H605 H 0.92041 0.32311 0.94434 0.0
C606 C 0.69889 0.99097 0.58149 0.0
C607 C 0.74453 0.04701 0.55622 0.0
C608 C 0.7093 0.01289 0.44511 0.0
C609 C 0.67062 0.95324 0.46879 0.0
N610 N 0.6179 0.89084 0.56271 0.0
N611 N 0.79594 0.10986 0.46333 0.0
C612 C 0.66236 0.94382 0.53801 0.0
C613 C 0.75055 0.05731 0.48782 0.0
N614 N 0.68861 0.98391 0.64747 0.0
N615 N 0.70279 0.02891 0.38298 0.0
H616 H 0.8264 0.14335 0.49311 0.0
H617 H 0.80632 0.11801 0.41377 0.0
H618 H 0.6685 0.00019 0.35291 0.0
H619 H 0.72531 0.07292 0.36489 0.0
H620 H 0.65277 0.94741 0.67005 0.0
H621 H 0.71494 0.0164 0.68061 0.0
H622 H 0.61665 0.87534 0.61029 0.0
H623 H 0.57993 0.86363 0.53653 0.0
loop_
_geom_bond_atom_site_label_1
_geom_bond_atom_site_label_2
_geom_bond_distance
_geom_bond_site_symmetry_2
_ccdc_geom_bond_type
Fe0 O1 1.886 . S
Fe0 O4 1.715 . S
Fe0 O9 2.077 . S
Fe0 O14 1.935 . S
Fe0 O20 2.077 . S
Fe0 O29 1.935 . S
O1 Fe0 1.886 . S
O1 Fe3 1.715 . S
Fe2 O4 1.886 . S
Fe2 O5 1.715 . S
Fe2 O12 1.935 . S
Fe2 O13 2.077 . S
Fe2 O19 1.935 . S
Fe2 O28 2.077 . S
Fe3 O1 1.715 . S
Fe3 O6 1.886 . S
Fe3 O10 1.935 . S
Fe3 O15 2.077 . S
Fe3 O21 1.935 . S
Fe3 O25 2.077 . S
O4 Fe0 1.715 . S
O4 Fe2 1.886 . S
O5 Fe2 1.715 . S
O5 Fe7 1.886 . S
O6 Fe3 1.886 . S
O6 Fe7 1.715 . S
Fe7 O5 1.886 . S
Fe7 O6 1.715 . S
Fe7 O11 2.077 . S
Fe7 O16 1.935 . S
Fe7 O18 2.077 . S
Fe7 O26 1.935 . S
C8 O20 1.381 . S
C8 O21 1.421 . S
O9 Fe0 2.077 . S
O9 C22 1.381 . S
O10 Fe3 1.935 . S
O10 C22 1.421 . S
O11 Fe7 2.077 . S
O11 C27 1.381 . S
O12 Fe2 1.935 . S
O12 C27 1.421 . S
O13 Fe2 2.077 . S
O13 C17 1.381 . S
O14 Fe0 1.935 . S
O14 C17 1.421 . S
O15 Fe3 2.077 . S
O15 C23 1.381 . S
O16 Fe7 1.935 . S
O16 C23 1.421 . S
C17 O13 1.381 . S
C17 O14 1.421 . S
O18 Fe7 2.077 . S
O18 C30 1.381 . S
O19 Fe2 1.935 . S
O19 C30 1.421 . S
O20 Fe0 2.077 . S
O20 C8 1.381 . S
O21 Fe3 1.935 . S
O21 C8 1.421 . S
C22 O9 1.381 . S
C22 O10 1.421 . S
C23 O15 1.381 . S
C23 O16 1.421 . S
C24 O25 1.381 . S
C24 O26 1.421 . S
O25 Fe3 2.077 . S
O25 C24 1.381 . S
O26 Fe7 1.935 . S
O26 C24 1.421 . S
C27 O11 1.381 . S
C27 O12 1.421 . S
O28 Fe2 2.077 . S
O28 C31 1.381 . S
O29 Fe0 1.935 . S
O29 C31 1.421 . S
C30 O18 1.381 . S
C30 O19 1.421 . S
C31 O28 1.381 . S
C31 O29 1.421 . S
Fe32 O33 1.886 . S
Fe32 O36 1.715 . S
Fe32 O41 2.077 . S
Fe32 O46 1.935 . S
Fe32 O52 2.077 . S
Fe32 O61 1.935 . S
O33 Fe32 1.886 . S
O33 Fe35 1.715 . S
Fe34 O36 1.886 . S
Fe34 O37 1.715 . S
Fe34 O44 1.935 . S
Fe34 O45 2.077 . S
Fe34 O51 1.935 . S
Fe34 O60 2.077 . S
Fe35 O33 1.715 . S
Fe35 O38 1.886 . S
Fe35 O42 1.935 . S
Fe35 O47 2.077 . S
Fe35 O53 1.935 . S
Fe35 O57 2.077 . S
O36 Fe32 1.715 . S
O36 Fe34 1.886 . S
O37 Fe34 1.715 . S
O37 Fe39 1.886 . S
O38 Fe35 1.886 . S
O38 Fe39 1.715 . S
Fe39 O37 1.886 . S
Fe39 O38 1.715 . S
Fe39 O43 2.077 . S
Fe39 O48 1.935 . S
Fe39 O50 2.077 . S
Fe39 O58 1.935 . S
C40 O52 1.381 . S
C40 O53 1.421 . S
O41 Fe32 2.077 . S
O41 C54 1.381 . S
O42 Fe35 1.935 . S
O42 C54 1.421 . S
O43 Fe39 2.077 . S
O43 C59 1.381 . S
O44 Fe34 1.935 . S
O44 C59 1.421 . S
O45 Fe34 2.077 . S
O45 C49 1.381 . S
O46 Fe32 1.935 . S
O46 C49 1.421 . S
O47 Fe35 2.077 . S
O47 C55 1.381 . S
O48 Fe39 1.935 . S
O48 C55 1.421 . S
C49 O45 1.381 . S
C49 O46 1.421 . S
O50 Fe39 2.077 . S
O50 C62 1.381 . S
O51 Fe34 1.935 . S
O51 C62 1.421 . S
O52 Fe32 2.077 . S
O52 C40 1.381 . S
O53 Fe35 1.935 . S
O53 C40 1.421 . S
C54 O41 1.381 . S
C54 O42 1.421 . S
C55 O47 1.381 . S
C55 O48 1.421 . S
C56 O57 1.381 . S
C56 O58 1.421 . S
O57 Fe35 2.077 . S
O57 C56 1.381 . S
O58 Fe39 1.935 . S
O58 C56 1.421 . S
C59 O43 1.381 . S
C59 O44 1.421 . S
O60 Fe34 2.077 . S
O60 C63 1.381 . S
O61 Fe32 1.935 . S
O61 C63 1.421 . S
C62 O50 1.381 . S
C62 O51 1.421 . S
C63 O60 1.381 . S
C63 O61 1.421 . S
Fe64 O65 1.886 . S
Fe64 O68 1.715 . S
Fe64 O73 2.077 . S
Fe64 O78 1.935 . S
Fe64 O84 2.077 . S
Fe64 O93 1.935 . S
O65 Fe64 1.886 . S
O65 Fe67 1.715 . S
Fe66 O68 1.886 . S
Fe66 O69 1.715 . S
Fe66 O76 1.935 . S
Fe66 O77 2.077 . S
Fe66 O83 1.935 . S
Fe66 O92 2.077 . S
Fe67 O65 1.715 . S
Fe67 O70 1.886 . S
Fe67 O74 1.935 . S
Fe67 O79 2.077 . S
Fe67 O85 1.935 . S
Fe67 O89 2.077 . S
O68 Fe64 1.715 . S
O68 Fe66 1.886 . S
O69 Fe66 1.715 . S
O69 Fe71 1.886 . S
O70 Fe67 1.886 . S
O70 Fe71 1.715 . S
Fe71 O69 1.886 . S
Fe71 O70 1.715 . S
Fe71 O75 2.077 . S
Fe71 O80 1.935 . S
Fe71 O82 2.077 . S
Fe71 O90 1.935 . S
C72 O84 1.381 . S
C72 O85 1.421 . S
O73 Fe64 2.077 . S
O73 C86 1.381 . S
O74 Fe67 1.935 . S
O74 C86 1.421 . S
O75 Fe71 2.077 . S
O75 C91 1.381 . S
O76 Fe66 1.935 . S
O76 C91 1.421 . S
O77 Fe66 2.077 . S
O77 C81 1.381 . S
O78 Fe64 1.935 . S
O78 C81 1.421 . S
O79 Fe67 2.077 . S
O79 C87 1.381 . S
O80 Fe71 1.935 . S
O80 C87 1.421 . S
C81 O77 1.381 . S
C81 O78 1.421 . S
O82 Fe71 2.077 . S
O82 C94 1.381 . S
O83 Fe66 1.935 . S
O83 C94 1.421 . S
O84 Fe64 2.077 . S
O84 C72 1.381 . S
O85 Fe67 1.935 . S
O85 C72 1.421 . S
C86 O73 1.381 . S
C86 O74 1.421 . S
C87 O79 1.381 . S
C87 O80 1.421 . S
C88 O89 1.381 . S
C88 O90 1.421 . S
O89 Fe67 2.077 . S
O89 C88 1.381 . S
O90 Fe71 1.935 . S
O90 C88 1.421 . S
C91 O75 1.381 . S
C91 O76 1.421 . S
O92 Fe66 2.077 . S
O92 C95 1.381 . S
O93 Fe64 1.935 . S
O93 C95 1.421 . S
C94 O82 1.381 . S
C94 O83 1.421 . S
C95 O92 1.381 . S
C95 O93 1.421 . S
Fe96 O97 1.886 . S
Fe96 O100 1.715 . S
Fe96 O105 2.077 . S
Fe96 O110 1.935 . S
Fe96 O116 2.077 . S
Fe96 O125 1.935 . S
O97 Fe96 1.886 . S
O97 Fe99 1.715 . S
Fe98 O100 1.886 . S
Fe98 O101 1.715 . S
Fe98 O108 1.935 . S
Fe98 O109 2.077 . S
Fe98 O115 1.935 . S
Fe98 O124 2.077 . S
Fe99 O97 1.715 . S
Fe99 O102 1.886 . S
Fe99 O106 1.935 . S
Fe99 O111 2.077 . S
Fe99 O117 1.935 . S
Fe99 O121 2.077 . S
O100 Fe96 1.715 . S
O100 Fe98 1.886 . S
O101 Fe98 1.715 . S
O101 Fe103 1.886 . S
O102 Fe99 1.886 . S
O102 Fe103 1.715 . S
Fe103 O101 1.886 . S
Fe103 O102 1.715 . S
Fe103 O107 2.077 . S
Fe103 O112 1.935 . S
Fe103 O114 2.077 . S
Fe103 O122 1.935 . S
C104 O116 1.381 . S
C104 O117 1.421 . S
O105 Fe96 2.077 . S
O105 C118 1.381 . S
O106 Fe99 1.935 . S
O106 C118 1.421 . S
O107 Fe103 2.077 . S
O107 C123 1.381 . S
O108 Fe98 1.935 . S
O108 C123 1.421 . S
O109 Fe98 2.077 . S
O109 C113 1.381 . S
O110 Fe96 1.935 . S
O110 C113 1.421 . S
O111 Fe99 2.077 . S
O111 C119 1.381 . S
O112 Fe103 1.935 . S
O112 C119 1.421 . S
C113 O109 1.381 . S
C113 O110 1.421 . S
O114 Fe103 2.077 . S
O114 C126 1.381 . S
O115 Fe98 1.935 . S
O115 C126 1.421 . S
O116 Fe96 2.077 . S
O116 C104 1.381 . S
O117 Fe99 1.935 . S
O117 C104 1.421 . S
C118 O105 1.381 . S
C118 O106 1.421 . S
C119 O111 1.381 . S
C119 O112 1.421 . S
C120 O121 1.381 . S
C120 O122 1.421 . S
O121 Fe99 2.077 . S
O121 C120 1.381 . S
O122 Fe103 1.935 . S
O122 C120 1.421 . S
C123 O107 1.381 . S
C123 O108 1.421 . S
O124 Fe98 2.077 . S
O124 C127 1.381 . S
O125 Fe96 1.935 . S
O125 C127 1.421 . S
C126 O114 1.381 . S
C126 O115 1.421 . S
C127 O124 1.381 . S
C127 O125 1.421 . S
Fe128 O129 1.886 . S
Fe128 O132 1.715 . S
Fe128 O137 2.077 . S
Fe128 O142 1.935 . S
Fe128 O148 2.077 . S
Fe128 O157 1.935 . S
O129 Fe128 1.886 . S
O129 Fe131 1.715 . S
Fe130 O132 1.886 . S
Fe130 O133 1.715 . S
Fe130 O140 1.935 . S
Fe130 O141 2.077 . S
Fe130 O147 1.935 . S
Fe130 O156 2.077 . S
Fe131 O129 1.715 . S
Fe131 O134 1.886 . S
Fe131 O138 1.935 . S
Fe131 O143 2.077 . S
Fe131 O149 1.935 . S
Fe131 O153 2.077 . S
O132 Fe128 1.715 . S
O132 Fe130 1.886 . S
O133 Fe130 1.715 . S
O133 Fe135 1.886 . S
O134 Fe131 1.886 . S
O134 Fe135 1.715 . S
Fe135 O133 1.886 . S
Fe135 O134 1.715 . S
Fe135 O139 2.077 . S
Fe135 O144 1.935 . S
Fe135 O146 2.077 . S
Fe135 O154 1.935 . S
C136 O148 1.381 . S
C136 O149 1.421 . S
O137 Fe128 2.077 . S
O137 C150 1.381 . S
O138 Fe131 1.935 . S
O138 C150 1.421 . S
O139 Fe135 2.077 . S
O139 C155 1.381 . S
O140 Fe130 1.935 . S
O140 C155 1.421 . S
O141 Fe130 2.077 . S
O141 C145 1.381 . S
O142 Fe128 1.935 . S
O142 C145 1.421 . S
O143 Fe131 2.077 . S
O143 C151 1.381 . S
O144 Fe135 1.935 . S
O144 C151 1.421 . S
C145 O141 1.381 . S
C145 O142 1.421 . S
O146 Fe135 2.077 . S
O146 C158 1.381 . S
O147 Fe130 1.935 . S
O147 C158 1.421 . S
O148 Fe128 2.077 . S
O148 C136 1.381 . S
O149 Fe131 1.935 . S
O149 C136 1.421 . S
C150 O137 1.381 . S
C150 O138 1.421 . S
C151 O143 1.381 . S
C151 O144 1.421 . S
C152 O153 1.381 . S
C152 O154 1.421 . S
O153 Fe131 2.077 . S
O153 C152 1.381 . S
O154 Fe135 1.935 . S
O154 C152 1.421 . S
C155 O139 1.381 . S
C155 O140 1.421 . S
O156 Fe130 2.077 . S
O156 C159 1.381 . S
O157 Fe128 1.935 . S
O157 C159 1.421 . S
C158 O146 1.381 . S
C158 O147 1.421 . S
C159 O156 1.381 . S
C159 O157 1.421 . S
Fe160 O161 1.886 . S
Fe160 O164 1.715 . S
Fe160 O169 2.077 . S
Fe160 O174 1.935 . S
Fe160 O180 2.077 . S
Fe160 O189 1.935 . S
O161 Fe160 1.886 . S
O161 Fe163 1.715 . S
Fe162 O164 1.886 . S
Fe162 O165 1.715 . S
Fe162 O172 1.935 . S
Fe162 O173 2.077 . S
Fe162 O179 1.935 . S
Fe162 O188 2.077 . S
Fe163 O161 1.715 . S
Fe163 O166 1.886 . S
Fe163 O170 1.935 . S
Fe163 O175 2.077 . S
Fe163 O181 1.935 . S
Fe163 O185 2.077 . S
O164 Fe160 1.715 . S
O164 Fe162 1.886 . S
O165 Fe162 1.715 . S
O165 Fe167 1.886 . S
O166 Fe163 1.886 . S
O166 Fe167 1.715 . S
Fe167 O165 1.886 . S
Fe167 O166 1.715 . S
Fe167 O171 2.077 . S
Fe167 O176 1.935 . S
Fe167 O178 2.077 . S
Fe167 O186 1.935 . S
C168 O180 1.381 . S
C168 O181 1.421 . S
O169 Fe160 2.077 . S
O169 C182 1.381 . S
O170 Fe163 1.935 . S
O170 C182 1.421 . S
O171 Fe167 2.077 . S
O171 C187 1.381 . S
O172 Fe162 1.935 . S
O172 C187 1.421 . S
O173 Fe162 2.077 . S
O173 C177 1.381 . S
O174 Fe160 1.935 . S
O174 C177 1.421 . S
O175 Fe163 2.077 . S
O175 C183 1.381 . S
O176 Fe167 1.935 . S
O176 C183 1.421 . S
C177 O173 1.381 . S
C177 O174 1.421 . S
O178 Fe167 2.077 . S
O178 C190 1.381 . S
O179 Fe162 1.935 . S
O179 C190 1.421 . S
O180 Fe160 2.077 . S
O180 C168 1.381 . S
O181 Fe163 1.935 . S
O181 C168 1.421 . S
C182 O169 1.381 . S
C182 O170 1.421 . S
C183 O175 1.381 . S
C183 O176 1.421 . S
C184 O185 1.381 . S
C184 O186 1.421 . S
O185 Fe163 2.077 . S
O185 C184 1.381 . S
O186 Fe167 1.935 . S
O186 C184 1.421 . S
C187 O171 1.381 . S
C187 O172 1.421 . S
O188 Fe162 2.077 . S
O188 C191 1.381 . S
O189 Fe160 1.935 . S
O189 C191 1.421 . S
C190 O178 1.381 . S
C190 O179 1.421 . S
C191 O188 1.381 . S
C191 O189 1.421 . S
C192 C193 1.363 . S
C192 C198 1.379 . S
C192 N200 1.356 . S
C193 C192 1.363 . S
C193 C199 1.363 . S
C194 C195 1.363 . S
C194 C199 1.379 . S
C194 N201 1.356 . S
C195 C194 1.363 . S
C195 C198 1.363 . S
N196 C198 1.356 . S
N196 H208 0.984 . S
N196 H209 0.985 . S
N197 C199 1.356 . S
N197 H202 0.984 . S
N197 H203 0.985 . S
C198 C192 1.379 . S
C198 C195 1.363 . S
C198 N196 1.356 . S
C199 C193 1.363 . S
C199 C194 1.379 . S
C199 N197 1.356 . S
N200 C192 1.356 . S
N200 H206 0.984 . S
N200 H207 0.984 . S
N201 C194 1.356 . S
N201 H204 0.984 . S
N201 H205 0.985 . S
H202 N197 0.984 . S
H203 N197 0.985 . S
H204 N201 0.984 . S
H205 N201 0.985 . S
H206 N200 0.984 . S
H207 N200 0.984 . S
H208 N196 0.984 . S
H209 N196 0.985 . S
C210 C211 1.363 . S
C210 C216 1.379 . S
C210 N218 1.356 . S
C211 C210 1.363 . S
C211 C217 1.363 . S
C212 C213 1.363 . S
C212 C217 1.379 . S
C212 N219 1.356 . S
C213 C212 1.363 . S
C213 C216 1.363 . S
N214 C216 1.356 . S
N214 H226 0.984 . S
N214 H227 0.985 . S
N215 C217 1.356 . S
N215 H220 0.984 . S
N215 H221 0.985 . S
C216 C210 1.379 . S
C216 C213 1.363 . S
C216 N214 1.356 . S
C217 C211 1.363 . S
C217 C212 1.379 . S
C217 N215 1.356 . S
N218 C210 1.356 . S
N218 H224 0.984 . S
N218 H225 0.984 . S
N219 C212 1.356 . S
N219 H222 0.984 . S
N219 H223 0.985 . S
H220 N215 0.984 . S
H221 N215 0.985 . S
H222 N219 0.984 . S
H223 N219 0.985 . S
H224 N218 0.984 . S
H225 N218 0.984 . S
H226 N214 0.984 . S
H227 N214 0.985 . S
C228 C229 1.363 . S
C228 C234 1.379 . S
C228 N236 1.356 . S
C229 C228 1.363 . S
C229 C235 1.363 . S
C230 C231 1.363 . S
C230 C235 1.379 . S
C230 N237 1.356 . S
C231 C230 1.363 . S
C231 C234 1.363 . S
N232 C234 1.356 . S
N232 H244 0.984 . S
N232 H245 0.985 . S
N233 C235 1.356 . S
N233 H238 0.984 . S
N233 H239 0.985 . S
C234 C228 1.379 . S
C234 C231 1.363 . S
C234 N232 1.356 . S
C235 C229 1.363 . S
C235 C230 1.379 . S
C235 N233 1.356 . S
N236 C228 1.356 . S
N236 H242 0.984 . S
N236 H243 0.984 . S
N237 C230 1.356 . S
N237 H240 0.984 . S
N237 H241 0.985 . S
H238 N233 0.984 . S
H239 N233 0.985 . S
H240 N237 0.984 . S
H241 N237 0.985 . S
H242 N236 0.984 . S
H243 N236 0.984 . S
H244 N232 0.984 . S
H245 N232 0.985 . S
C246 C247 1.363 . S
C246 C252 1.379 . S
C246 N254 1.356 . S
C247 C246 1.363 . S
C247 C253 1.363 . S
C248 C249 1.363 . S
C248 C253 1.379 . S
C248 N255 1.356 . S
C249 C248 1.363 . S
C249 C252 1.363 . S
N250 C252 1.356 . S
N250 H262 0.984 . S
N250 H263 0.985 . S
N251 C253 1.356 . S
N251 H256 0.984 . S
N251 H257 0.985 . S
C252 C246 1.379 . S
C252 C249 1.363 . S
C252 N250 1.356 . S
C253 C247 1.363 . S
C253 C248 1.379 . S
C253 N251 1.356 . S
N254 C246 1.356 . S
N254 H260 0.984 . S
N254 H261 0.984 . S
N255 C248 1.356 . S
N255 H258 0.984 . S
N255 H259 0.985 . S
H256 N251 0.984 . S
H257 N251 0.985 . S
H258 N255 0.984 . S
H259 N255 0.985 . S
H260 N254 0.984 . S
H261 N254 0.984 . S
H262 N250 0.984 . S
H263 N250 0.985 . S
C264 C265 1.363 . S
C264 C270 1.379 . S
C264 N272 1.356 . S
C265 C264 1.363 . S
C265 C271 1.363 . S
C266 C267 1.363 . S
C266 C271 1.379 . S
C266 N273 1.356 . S
C267 C266 1.363 . S
C267 C270 1.363 . S
N268 C270 1.356 . S
N268 H280 0.984 . S
N268 H281 0.985 . S
N269 C271 1.356 . S
N269 H274 0.984 . S
N269 H275 0.985 . S
C270 C264 1.379 . S
C270 C267 1.363 . S
C270 N268 1.356 . S
C271 C265 1.363 . S
C271 C266 1.379 . S
C271 N269 1.356 . S
N272 C264 1.356 . S
N272 H278 0.984 . S
N272 H279 0.984 . S
N273 C266 1.356 . S
N273 H276 0.984 . S
N273 H277 0.985 . S
H274 N269 0.984 . S
H275 N269 0.985 . S
H276 N273 0.984 . S
H277 N273 0.985 . S
H278 N272 0.984 . S
H279 N272 0.984 . S
H280 N268 0.984 . S
H281 N268 0.985 . S
C282 C283 1.363 . S
C282 C288 1.379 . S
C282 N290 1.356 . S
C283 C282 1.363 . S
C283 C289 1.363 . S
C284 C285 1.363 . S
C284 C289 1.379 . S
C284 N291 1.356 . S
C285 C284 1.363 . S
C285 C288 1.363 . S
N286 C288 1.356 . S
N286 H298 0.984 . S
N286 H299 0.985 . S
N287 C289 1.356 . S
N287 H292 0.984 . S
N287 H293 0.985 . S
C288 C282 1.379 . S
C288 C285 1.363 . S
C288 N286 1.356 . S
C289 C283 1.363 . S
C289 C284 1.379 . S
C289 N287 1.356 . S
N290 C282 1.356 . S
N290 H296 0.984 . S
N290 H297 0.984 . S
N291 C284 1.356 . S
N291 H294 0.984 . S
N291 H295 0.985 . S
H292 N287 0.984 . S
H293 N287 0.985 . S
H294 N291 0.984 . S
H295 N291 0.985 . S
H296 N290 0.984 . S
H297 N290 0.984 . S
H298 N286 0.984 . S
H299 N286 0.985 . S
C300 C301 1.363 . S
C300 C306 1.379 . S
C300 N308 1.356 . S
C301 C300 1.363 . S
C301 C307 1.363 . S
C302 C303 1.363 . S
C302 C307 1.379 . S
C302 N309 1.356 1_545 S
C303 C302 1.363 . S
C303 C306 1.363 . S
N304 C306 1.356 . S
N304 H316 0.984 . S
N304 H317 0.985 . S
N305 C307 1.356 . S
N305 H310 0.984 . S
N305 H311 0.985 . S
C306 C300 1.379 . S
C306 C303 1.363 . S
C306 N304 1.356 . S
C307 C301 1.363 . S
C307 C302 1.379 . S
C307 N305 1.356 . S
N308 C300 1.356 . S
N308 H314 0.984 . S
N308 H315 0.984 . S
N309 C302 1.356 1_565 S
N309 H312 0.984 . S
N309 H313 0.985 . S
H310 N305 0.984 . S
H311 N305 0.985 . S
H312 N309 0.984 . S
H313 N309 0.985 . S
H314 N308 0.984 . S
H315 N308 0.984 . S
H316 N304 0.984 . S
H317 N304 0.985 . S
C318 C319 1.363 . S
C318 C324 1.379 . S
C318 N326 1.356 . S
C319 C318 1.363 . S
C319 C325 1.363 . S
C320 C321 1.363 . S
C320 C325 1.379 . S
C320 N327 1.356 . S
C321 C320 1.363 . S
C321 C324 1.363 . S
N322 C324 1.356 . S
N322 H334 0.984 . S
N322 H335 0.985 . S
N323 C325 1.356 1_655 S
N323 H328 0.984 . S
N323 H329 0.985 . S
C324 C318 1.379 . S
C324 C321 1.363 . S
C324 N322 1.356 . S
C325 C319 1.363 . S
C325 C320 1.379 . S
C325 N323 1.356 1_455 S
N326 C318 1.356 . S
N326 H332 0.984 . S
N326 H333 0.984 . S
N327 C320 1.356 . S
N327 H330 0.984 . S
N327 H331 0.985 . S
H328 N323 0.984 . S
H329 N323 0.985 . S
H330 N327 0.984 . S
H331 N327 0.985 . S
H332 N326 0.984 . S
H333 N326 0.984 . S
H334 N322 0.984 . S
H335 N322 0.985 . S
C336 C337 1.363 . S
C336 C342 1.379 . S
C336 N344 1.356 . S
C337 C336 1.363 . S
C337 C343 1.363 . S
C338 C339 1.363 . S
C338 C343 1.379 . S
C338 N345 1.356 1_545 S
C339 C338 1.363 . S
C339 C342 1.363 . S
N340 C342 1.356 . S
N340 H352 0.984 . S
N340 H353 0.985 . S
N341 C343 1.356 1_455 S
N341 H346 0.984 . S
N341 H347 0.985 . S
C342 C336 1.379 . S
C342 C339 1.363 . S
C342 N340 1.356 . S
C343 C337 1.363 . S
C343 C338 1.379 . S
C343 N341 1.356 1_655 S
N344 C336 1.356 . S
N344 H350 0.984 . S
N344 H351 0.984 . S
N345 C338 1.356 1_565 S
N345 H348 0.984 . S
N345 H349 0.985 . S
H346 N341 0.984 . S
H347 N341 0.985 . S
H348 N345 0.984 . S
H349 N345 0.985 . S
H350 N344 0.984 . S
H351 N344 0.984 . S
H352 N340 0.984 . S
H353 N340 0.985 . S
C354 C355 1.363 . S
C354 C360 1.379 . S
C354 N362 1.356 1_565 S
C355 C354 1.363 . S
C355 C361 1.363 . S
C356 C357 1.363 . S
C356 C361 1.379 . S
C356 N363 1.356 . S
C357 C356 1.363 . S
C357 C360 1.363 . S
N358 C360 1.356 . S
N358 H370 0.984 . S
N358 H371 0.985 . S
N359 C361 1.356 . S
N359 H364 0.984 . S
N359 H365 0.985 . S
C360 C354 1.379 . S
C360 C357 1.363 . S
C360 N358 1.356 . S
C361 C355 1.363 . S
C361 C356 1.379 . S
C361 N359 1.356 . S
N362 C354 1.356 1_545 S
N362 H368 0.984 . S
N362 H369 0.984 . S
N363 C356 1.356 . S
N363 H366 0.984 . S
N363 H367 0.985 . S
H364 N359 0.984 . S
H365 N359 0.985 . S
H366 N363 0.984 . S
H367 N363 0.985 . S
H368 N362 0.984 . S
H369 N362 0.984 . S
H370 N358 0.984 . S
H371 N358 0.985 . S
C372 C373 1.363 . S
C372 C378 1.379 . S
C372 N380 1.356 . S
C373 C372 1.363 . S
C373 C379 1.363 . S
C374 C375 1.363 . S
C374 C379 1.379 . S
C374 N381 1.356 . S
C375 C374 1.363 . S
C375 C378 1.363 . S
N376 C378 1.356 1_455 S
N376 H388 0.984 . S
N376 H389 0.985 . S
N377 C379 1.356 . S
N377 H382 0.984 . S
N377 H383 0.985 . S
C378 C372 1.379 . S
C378 C375 1.363 . S
C378 N376 1.356 1_655 S
C379 C373 1.363 . S
C379 C374 1.379 . S
C379 N377 1.356 . S
N380 C372 1.356 . S
N380 H386 0.984 . S
N380 H387 0.984 . S
N381 C374 1.356 . S
N381 H384 0.984 . S
N381 H385 0.985 . S
H382 N377 0.984 . S
H383 N377 0.985 . S
H384 N381 0.984 . S
H385 N381 0.985 . S
H386 N380 0.984 . S
H387 N380 0.984 . S
H388 N376 0.984 . S
H389 N376 0.985 . S
C390 C391 1.363 . S
C390 C396 1.379 . S
C390 N398 1.356 1_565 S
C391 C390 1.363 . S
C391 C397 1.363 . S
C392 C393 1.363 . S
C392 C397 1.379 . S
C392 N399 1.356 . S
C393 C392 1.363 . S
C393 C396 1.363 . S
N394 C396 1.356 1_655 S
N394 H406 0.984 . S
N394 H407 0.985 . S
N395 C397 1.356 . S
N395 H400 0.984 . S
N395 H401 0.985 . S
C396 C390 1.379 . S
C396 C393 1.363 . S
C396 N394 1.356 1_455 S
C397 C391 1.363 . S
C397 C392 1.379 . S
C397 N395 1.356 . S
N398 C390 1.356 1_545 S
N398 H404 0.984 . S
N398 H405 0.984 . S
N399 C392 1.356 . S
N399 H402 0.984 . S
N399 H403 0.985 . S
H400 N395 0.984 . S
H401 N395 0.985 . S
H402 N399 0.984 . S
H403 N399 0.985 . S
H404 N398 0.984 . S
H405 N398 0.984 . S
H406 N394 0.984 . S
H407 N394 0.985 . S
C408 C409 1.363 . S
C408 C414 1.379 1_554 S
C408 N416 1.356 . S
C409 C408 1.363 . S
C409 C415 1.363 . S
C410 C411 1.363 . S
C410 C415 1.379 1_556 S
C410 N417 1.356 . S
C411 C410 1.363 . S
C411 C414 1.363 . S
N412 C414 1.356 . S
N412 H424 0.984 . S
N412 H425 0.985 . S
N413 C415 1.356 . S
N413 H418 0.984 . S
N413 H419 0.985 . S
C414 C408 1.379 1_556 S
C414 C411 1.363 . S
C414 N412 1.356 . S
C415 C409 1.363 . S
C415 C410 1.379 1_554 S
C415 N413 1.356 . S
N416 C408 1.356 . S
N416 H422 0.984 . S
N416 H423 0.984 . S
N417 C410 1.356 . S
N417 H420 0.984 . S
N417 H421 0.985 . S
H418 N413 0.984 . S
H419 N413 0.985 . S
H420 N417 0.984 . S
H421 N417 0.985 . S
H422 N416 0.984 . S
H423 N416 0.984 . S
H424 N412 0.984 . S
H425 N412 0.985 . S
C426 C427 1.363 . S
C426 C432 1.379 1_655 S
C426 N434 1.356 . S
C427 C426 1.363 . S
C427 C433 1.363 . S
C428 C429 1.363 . S
C428 C433 1.379 1_455 S
C428 N435 1.356 . S
C429 C428 1.363 . S
C429 C432 1.363 . S
N430 C432 1.356 . S
N430 H442 0.984 . S
N430 H443 0.985 . S
N431 C433 1.356 . S
N431 H436 0.984 . S
N431 H437 0.985 . S
C432 C426 1.379 1_455 S
C432 C429 1.363 . S
C432 N430 1.356 . S
C433 C427 1.363 . S
C433 C428 1.379 1_655 S
C433 N431 1.356 . S
N434 C426 1.356 . S
N434 H440 0.984 . S
N434 H441 0.984 . S
N435 C428 1.356 . S
N435 H438 0.984 . S
N435 H439 0.985 . S
H436 N431 0.984 . S
H437 N431 0.985 . S
H438 N435 0.984 . S
H439 N435 0.985 . S
H440 N434 0.984 . S
H441 N434 0.984 . S
H442 N430 0.984 . S
H443 N430 0.985 . S
C444 C445 1.363 1_545 S
C444 C450 1.379 1_554 S
C444 N452 1.356 1_545 S
C445 C444 1.363 1_565 S
C445 C451 1.363 . S
C446 C447 1.363 1_565 S
C446 C451 1.379 1_556 S
C446 N453 1.356 1_565 S
C447 C446 1.363 1_545 S
C447 C450 1.363 . S
N448 C450 1.356 . S
N448 H460 0.984 . S
N448 H461 0.985 . S
N449 C451 1.356 . S
N449 H454 0.984 . S
N449 H455 0.985 . S
C450 C444 1.379 1_556 S
C450 C447 1.363 . S
C450 N448 1.356 . S
C451 C445 1.363 . S
C451 C446 1.379 1_554 S
C451 N449 1.356 . S
N452 C444 1.356 1_565 S
N452 H458 0.984 1_565 S
N452 H459 0.984 . S
N453 C446 1.356 1_545 S
N453 H456 0.984 . S
N453 H457 0.985 1_545 S
H454 N449 0.984 . S
H455 N449 0.985 . S
H456 N453 0.984 . S
H457 N453 0.985 1_565 S
H458 N452 0.984 1_545 S
H459 N452 0.984 . S
H460 N448 0.984 . S
H461 N448 0.985 . S
C462 C463 1.363 . S
C462 C468 1.379 . S
C462 N470 1.356 . S
C463 C462 1.363 . S
C463 C469 1.363 . S
C464 C465 1.363 . S
C464 C469 1.379 . S
C464 N471 1.356 . S
C465 C464 1.363 . S
C465 C468 1.363 . S
N466 C468 1.356 . S
N466 H478 0.984 . S
N466 H479 0.985 . S
N467 C469 1.356 . S
N467 H472 0.984 . S
N467 H473 0.985 . S
C468 C462 1.379 . S
C468 C465 1.363 . S
C468 N466 1.356 . S
C469 C463 1.363 . S
C469 C464 1.379 . S
C469 N467 1.356 . S
N470 C462 1.356 . S
N470 H476 0.984 . S
N470 H477 0.984 . S
N471 C464 1.356 . S
N471 H474 0.984 . S
N471 H475 0.985 . S
H472 N467 0.984 . S
H473 N467 0.985 . S
H474 N471 0.984 . S
H475 N471 0.985 . S
H476 N470 0.984 . S
H477 N470 0.984 . S
H478 N466 0.984 . S
H479 N466 0.985 . S
C480 C481 1.363 1_455 S
C480 C486 1.379 . S
C480 N488 1.356 . S
C481 C480 1.363 1_655 S
C481 C487 1.363 1_556 S
C482 C483 1.363 1_655 S
C482 C487 1.379 . S
C482 N489 1.356 . S
C483 C482 1.363 1_455 S
C483 C486 1.363 1_554 S
N484 C486 1.356 1_554 S
N484 H496 0.984 1_554 S
N484 H497 0.985 . S
N485 C487 1.356 1_556 S
N485 H490 0.984 . S
N485 H491 0.985 1_556 S
C486 C480 1.379 . S
C486 C483 1.363 1_556 S
C486 N484 1.356 1_556 S
C487 C481 1.363 1_554 S
C487 C482 1.379 . S
C487 N485 1.356 1_554 S
N488 C480 1.356 . S
N488 H494 0.984 . S
N488 H495 0.984 1_455 S
N489 C482 1.356 . S
N489 H492 0.984 1_655 S
N489 H493 0.985 . S
H490 N485 0.984 . S
H491 N485 0.985 1_554 S
H492 N489 0.984 1_455 S
H493 N489 0.985 . S
H494 N488 0.984 . S
H495 N488 0.984 1_655 S
H496 N484 0.984 1_556 S
H497 N484 0.985 . S
C498 C499 1.363 . S
C498 C504 1.379 1_545 S
C498 N506 1.356 . S
C499 C498 1.363 . S
C499 C505 1.363 . S
C500 C501 1.363 . S
C500 C505 1.379 1_565 S
C500 N507 1.356 . S
C501 C500 1.363 . S
C501 C504 1.363 . S
N502 C504 1.356 . S
N502 H514 0.984 . S
N502 H515 0.985 . S
N503 C505 1.356 . S
N503 H508 0.984 . S
N503 H509 0.985 . S
C504 C498 1.379 1_565 S
C504 C501 1.363 . S
C504 N502 1.356 . S
C505 C499 1.363 . S
C505 C500 1.379 1_545 S
C505 N503 1.356 . S
N506 C498 1.356 . S
N506 H512 0.984 1_545 S
N506 H513 0.984 . S
N507 C500 1.356 . S
N507 H510 0.984 . S
N507 H511 0.985 1_565 S
H508 N503 0.984 . S
H509 N503 0.985 . S
H510 N507 0.984 . S
H511 N507 0.985 1_545 S
H512 N506 0.984 1_565 S
H513 N506 0.984 . S
H514 N502 0.984 . S
H515 N502 0.985 . S
C516 C517 1.363 . S
C516 C522 1.379 1_556 S
C516 N524 1.356 . S
C517 C516 1.363 . S
C517 C523 1.363 . S
C518 C519 1.363 . S
C518 C523 1.379 1_554 S
C518 N525 1.356 . S
C519 C518 1.363 . S
C519 C522 1.363 . S
N520 C522 1.356 . S
N520 H532 0.984 . S
N520 H533 0.985 . S
N521 C523 1.356 . S
N521 H526 0.984 . S
N521 H527 0.985 . S
C522 C516 1.379 1_554 S
C522 C519 1.363 . S
C522 N520 1.356 . S
C523 C517 1.363 . S
C523 C518 1.379 1_556 S
C523 N521 1.356 . S
N524 C516 1.356 . S
N524 H530 0.984 . S
N524 H531 0.984 . S
N525 C518 1.356 . S
N525 H528 0.984 . S
N525 H529 0.985 . S
H526 N521 0.984 . S
H527 N521 0.985 . S
H528 N525 0.984 . S
H529 N525 0.985 . S
H530 N524 0.984 . S
H531 N524 0.984 . S
H532 N520 0.984 . S
H533 N520 0.985 . S
C534 C535 1.363 . S
C534 C540 1.379 1_455 S
C534 N542 1.356 . S
C535 C534 1.363 . S
C535 C541 1.363 . S
C536 C537 1.363 . S
C536 C541 1.379 1_655 S
C536 N543 1.356 . S
C537 C536 1.363 . S
C537 C540 1.363 . S
N538 C540 1.356 . S
N538 H550 0.984 . S
N538 H551 0.985 . S
N539 C541 1.356 . S
N539 H544 0.984 . S
N539 H545 0.985 . S
C540 C534 1.379 1_655 S
C540 C537 1.363 . S
C540 N538 1.356 . S
C541 C535 1.363 . S
C541 C536 1.379 1_455 S
C541 N539 1.356 . S
N542 C534 1.356 . S
N542 H548 0.984 . S
N542 H549 0.984 . S
N543 C536 1.356 . S
N543 H546 0.984 . S
N543 H547 0.985 . S
H544 N539 0.984 . S
H545 N539 0.985 . S
H546 N543 0.984 . S
H547 N543 0.985 . S
H548 N542 0.984 . S
H549 N542 0.984 . S
H550 N538 0.984 . S
H551 N538 0.985 . S
C552 C553 1.363 1_554 S
C552 C558 1.379 . S
C552 N560 1.356 1_554 S
C553 C552 1.363 1_556 S
C553 C559 1.363 1_545 S
C554 C555 1.363 1_556 S
C554 C559 1.379 . S
C554 N561 1.356 1_556 S
C555 C554 1.363 1_554 S
C555 C558 1.363 1_565 S
N556 C558 1.356 . S
N556 H568 0.984 . S
N556 H569 0.985 1_545 S
N557 C559 1.356 . S
N557 H562 0.984 1_565 S
N557 H563 0.985 . S
C558 C552 1.379 . S
C558 C555 1.363 1_545 S
C558 N556 1.356 . S
C559 C553 1.363 1_565 S
C559 C554 1.379 . S
C559 N557 1.356 . S
N560 C552 1.356 1_556 S
N560 H566 0.984 1_556 S
N560 H567 0.984 . S
N561 C554 1.356 1_554 S
N561 H564 0.984 . S
N561 H565 0.985 1_554 S
H562 N557 0.984 1_545 S
H563 N557 0.985 . S
H564 N561 0.984 . S
H565 N561 0.985 1_556 S
H566 N560 0.984 1_554 S
H567 N560 0.984 . S
H568 N556 0.984 . S
H569 N556 0.985 1_565 S
C570 C571 1.363 . S
C570 C576 1.379 . S
C570 N578 1.356 . S
C571 C570 1.363 . S
C571 C577 1.363 . S
C572 C573 1.363 . S
C572 C577 1.379 . S
C572 N579 1.356 . S
C573 C572 1.363 . S
C573 C576 1.363 . S
N574 C576 1.356 . S
N574 H586 0.984 . S
N574 H587 0.985 . S
N575 C577 1.356 . S
N575 H580 0.984 . S
N575 H581 0.985 . S
C576 C570 1.379 . S
C576 C573 1.363 . S
C576 N574 1.356 . S
C577 C571 1.363 . S
C577 C572 1.379 . S
C577 N575 1.356 . S
N578 C570 1.356 . S
N578 H584 0.984 . S
N578 H585 0.984 . S
N579 C572 1.356 . S
N579 H582 0.984 . S
N579 H583 0.985 . S
H580 N575 0.984 . S
H581 N575 0.985 . S
H582 N579 0.984 . S
H583 N579 0.985 . S
H584 N578 0.984 . S
H585 N578 0.984 . S
H586 N574 0.984 . S
H587 N574 0.985 . S
C588 C589 1.363 . S
C588 C594 1.379 1_454 S
C588 N596 1.356 . S
C589 C588 1.363 . S
C589 C595 1.363 . S
C590 C591 1.363 . S
C590 C595 1.379 1_656 S
C590 N597 1.356 . S
C591 C590 1.363 . S
C591 C594 1.363 . S
N592 C594 1.356 . S
N592 H604 0.984 . S
N592 H605 0.985 . S
N593 C595 1.356 . S
N593 H598 0.984 . S
N593 H599 0.985 . S
C594 C588 1.379 1_656 S
C594 C591 1.363 . S
C594 N592 1.356 . S
C595 C589 1.363 . S
C595 C590 1.379 1_454 S
C595 N593 1.356 . S
N596 C588 1.356 . S
N596 H602 0.984 . S
N596 H603 0.984 . S
N597 C590 1.356 . S
N597 H600 0.984 . S
N597 H601 0.985 . S
H598 N593 0.984 . S
H599 N593 0.985 . S
H600 N597 0.984 . S
H601 N597 0.985 . S
H602 N596 0.984 . S
H603 N596 0.984 . S
H604 N592 0.984 . S
H605 N592 0.985 . S
C606 C607 1.363 1_565 S
C606 C612 1.379 . S
C606 N614 1.356 . S
C607 C606 1.363 1_545 S
C607 C613 1.363 . S
C608 C609 1.363 1_545 S
C608 C613 1.379 . S
C608 N615 1.356 . S
C609 C608 1.363 1_565 S
C609 C612 1.363 . S
N610 C612 1.356 . S
N610 H622 0.984 . S
N610 H623 0.985 . S
N611 C613 1.356 . S
N611 H616 0.984 . S
N611 H617 0.985 . S
C612 C606 1.379 . S
C612 C609 1.363 . S
C612 N610 1.356 . S
C613 C607 1.363 . S
C613 C608 1.379 . S
C613 N611 1.356 . S
N614 C606 1.356 . S
N614 H620 0.984 . S
N614 H621 0.984 1_565 S
N615 C608 1.356 . S
N615 H618 0.984 1_545 S
N615 H619 0.985 . S
H616 N611 0.984 . S
H617 N611 0.985 . S
H618 N615 0.984 1_565 S
H619 N615 0.985 . S
H620 N614 0.984 . S
H621 N614 0.984 1_545 S
H622 N610 0.984 . S
H623 N610 0.985 . S
C193 C30 1.213 . S
C195 C155 1.213 . S
C211 C187 1.213 . S
C213 C62 1.213 . S
C229 C27 1.213 . S
C231 C94 1.213 . S
C247 C59 1.213 . S
C249 C126 1.213 . S
C265 C158 1.213 . S
C267 C91 1.213 . S
C283 C190 1.213 . S
C285 C123 1.213 . S
C301 C22 1.096 . S
C303 C136 1.096 1_545 S
C319 C54 1.096 1_455 S
C321 C168 1.096 . S
C337 C8 1.096 1_655 S
C339 C86 1.096 1_545 S
C355 C40 1.096 1_565 S
C357 C118 1.096 . S
C373 C72 1.096 . S
C375 C150 1.096 1_655 S
C391 C182 1.096 1_565 S
C393 C104 1.096 1_455 S
C409 C17 1.543 . S
C411 C184 1.567 . S
C427 C49 1.543 . S
C429 C24 1.567 . S
C445 C81 1.543 . S
C447 C56 1.567 . S
C463 C113 1.543 . S
C465 C88 1.567 . S
C481 C120 1.567 . S
C483 C145 1.543 . S
C499 C177 1.543 . S
C501 C152 1.567 . S
C517 C119 1.567 . S
C519 C95 1.543 . S
C535 C151 1.567 . S
C537 C127 1.543 . S
C553 C183 1.567 . S
C555 C159 1.543 . S
C571 C191 1.543 . S
C573 C23 1.567 . S
C589 C31 1.543 . S
C591 C55 1.567 . S
C607 C63 1.543 . S
C609 C87 1.567 . S
