# Generated by pormake.
# Topology wmi, (6)-cn, num edge types: 1
# Building blocks:
#     Node 0, Type 0, BuildingBlock: CUKXOW_clean_sbu_0, # of connection points: 6
#     Node 1, Type 0, BuildingBlock: CUKXOW_clean_sbu_0, # of connection points: 6
#     Node 2, Type 0, BuildingBlock: CUKXOW_clean_sbu_0, # of connection points: 6
#     Node 3, Type 0, BuildingBlock: CUKXOW_clean_sbu_0, # of connection points: 6
#     Node 4, Type 0, BuildingBlock: CUKXOW_clean_sbu_0, # of connection points: 6
#     Node 5, Type 0, BuildingBlock: CUKXOW_clean_sbu_0, # of connection points: 6
#     Node 6, Type 0, BuildingBlock: CUKXOW_clean_sbu_0, # of connection points: 6
#     Node 7, Type 0, BuildingBlock: CUKXOW_clean_sbu_0, # of connection points: 6
#     Node 8, Type 0, BuildingBlock: CUKXOW_clean_sbu_0, # of connection points: 6
#     Node 9, Type 0, BuildingBlock: CUKXOW_clean_sbu_0, # of connection points: 6
#     Node 10, Type 0, BuildingBlock: CUKXOW_clean_sbu_0, # of connection points: 6
#     Node 11, Type 0, BuildingBlock: CUKXOW_clean_sbu_0, # of connection points: 6
#     Node 12, Type 0, BuildingBlock: CUKXOW_clean_sbu_0, # of connection points: 6
#     Node 13, Type 0, BuildingBlock: CUKXOW_clean_sbu_0, # of connection points: 6
#     Node 14, Type 0, BuildingBlock: CUKXOW_clean_sbu_0, # of connection points: 6
#     Node 15, Type 0, BuildingBlock: CUKXOW_clean_sbu_0, # of connection points: 6
#     Node 16, Type 0, BuildingBlock: CUKXOW_clean_sbu_0, # of connection points: 6
#     Node 17, Type 0, BuildingBlock: CUKXOW_clean_sbu_0, # of connection points: 6
#     Edge 18, Type (0, 0), BuildingBlock: UVAHIK_clean_linker_0, # of connection points: 2
#     Edge 19, Type (0, 0), BuildingBlock: UVAHIK_clean_linker_0, # of connection points: 2
#     Edge 20, Type (0, 0), BuildingBlock: UVAHIK_clean_linker_0, # of connection points: 2
#     Edge 21, Type (0, 0), BuildingBlock: UVAHIK_clean_linker_0, # of connection points: 2
#     Edge 22, Type (0, 0), BuildingBlock: UVAHIK_clean_linker_0, # of connection points: 2
#     Edge 23, Type (0, 0), BuildingBlock: UVAHIK_clean_linker_0, # of connection points: 2
#     Edge 24, Type (0, 0), BuildingBlock: UVAHIK_clean_linker_0, # of connection points: 2
#     Edge 25, Type (0, 0), BuildingBlock: UVAHIK_clean_linker_0, # of connection points: 2
#     Edge 26, Type (0, 0), BuildingBlock: UVAHIK_clean_linker_0, # of connection points: 2
#     Edge 27, Type (0, 0), BuildingBlock: UVAHIK_clean_linker_0, # of connection points: 2
#     Edge 28, Type (0, 0), BuildingBlock: UVAHIK_clean_linker_0, # of connection points: 2
#     Edge 29, Type (0, 0), BuildingBlock: UVAHIK_clean_linker_0, # of connection points: 2
#     Edge 30, Type (0, 0), BuildingBlock: UVAHIK_clean_linker_0, # of connection points: 2
#     Edge 31, Type (0, 0), BuildingBlock: UVAHIK_clean_linker_0, # of connection points: 2
#     Edge 32, Type (0, 0), BuildingBlock: UVAHIK_clean_linker_0, # of connection points: 2
#     Edge 33, Type (0, 0), BuildingBlock: UVAHIK_clean_linker_0, # of connection points: 2
#     Edge 34, Type (0, 0), BuildingBlock: UVAHIK_clean_linker_0, # of connection points: 2
#     Edge 35, Type (0, 0), BuildingBlock: UVAHIK_clean_linker_0, # of connection points: 2
#     Edge 36, Type (0, 0), BuildingBlock: UVAHIK_clean_linker_0, # of connection points: 2
#     Edge 37, Type (0, 0), BuildingBlock: UVAHIK_clean_linker_0, # of connection points: 2
#     Edge 38, Type (0, 0), BuildingBlock: UVAHIK_clean_linker_0, # of connection points: 2
#     Edge 39, Type (0, 0), BuildingBlock: UVAHIK_clean_linker_0, # of connection points: 2
#     Edge 40, Type (0, 0), BuildingBlock: UVAHIK_clean_linker_0, # of connection points: 2
#     Edge 41, Type (0, 0), BuildingBlock: UVAHIK_clean_linker_0, # of connection points: 2
#     Edge 42, Type (0, 0), BuildingBlock: UVAHIK_clean_linker_0, # of connection points: 2
#     Edge 43, Type (0, 0), BuildingBlock: UVAHIK_clean_linker_0, # of connection points: 2
#     Edge 44, Type (0, 0), BuildingBlock: UVAHIK_clean_linker_0, # of connection points: 2
#     Edge 45, Type (0, 0), BuildingBlock: UVAHIK_clean_linker_0, # of connection points: 2
#     Edge 46, Type (0, 0), BuildingBlock: UVAHIK_clean_linker_0, # of connection points: 2
#     Edge 47, Type (0, 0), BuildingBlock: UVAHIK_clean_linker_0, # of connection points: 2
#     Edge 48, Type (0, 0), BuildingBlock: UVAHIK_clean_linker_0, # of connection points: 2
#     Edge 49, Type (0, 0), BuildingBlock: UVAHIK_clean_linker_0, # of connection points: 2
#     Edge 50, Type (0, 0), BuildingBlock: UVAHIK_clean_linker_0, # of connection points: 2
#     Edge 51, Type (0, 0), BuildingBlock: UVAHIK_clean_linker_0, # of connection points: 2
#     Edge 52, Type (0, 0), BuildingBlock: UVAHIK_clean_linker_0, # of connection points: 2
#     Edge 53, Type (0, 0), BuildingBlock: UVAHIK_clean_linker_0, # of connection points: 2
#     Edge 54, Type (0, 0), BuildingBlock: UVAHIK_clean_linker_0, # of connection points: 2
#     Edge 55, Type (0, 0), BuildingBlock: UVAHIK_clean_linker_0, # of connection points: 2
#     Edge 56, Type (0, 0), BuildingBlock: UVAHIK_clean_linker_0, # of connection points: 2
#     Edge 57, Type (0, 0), BuildingBlock: UVAHIK_clean_linker_0, # of connection points: 2
#     Edge 58, Type (0, 0), BuildingBlock: UVAHIK_clean_linker_0, # of connection points: 2
#     Edge 59, Type (0, 0), BuildingBlock: UVAHIK_clean_linker_0, # of connection points: 2
#     Edge 60, Type (0, 0), BuildingBlock: UVAHIK_clean_linker_0, # of connection points: 2
#     Edge 61, Type (0, 0), BuildingBlock: UVAHIK_clean_linker_0, # of connection points: 2
#     Edge 62, Type (0, 0), BuildingBlock: UVAHIK_clean_linker_0, # of connection points: 2
#     Edge 63, Type (0, 0), BuildingBlock: UVAHIK_clean_linker_0, # of connection points: 2
#     Edge 64, Type (0, 0), BuildingBlock: UVAHIK_clean_linker_0, # of connection points: 2
#     Edge 65, Type (0, 0), BuildingBlock: UVAHIK_clean_linker_0, # of connection points: 2
#     Edge 66, Type (0, 0), BuildingBlock: UVAHIK_clean_linker_0, # of connection points: 2
#     Edge 67, Type (0, 0), BuildingBlock: UVAHIK_clean_linker_0, # of connection points: 2
#     Edge 68, Type (0, 0), BuildingBlock: UVAHIK_clean_linker_0, # of connection points: 2
#     Edge 69, Type (0, 0), BuildingBlock: UVAHIK_clean_linker_0, # of connection points: 2
#     Edge 70, Type (0, 0), BuildingBlock: UVAHIK_clean_linker_0, # of connection points: 2
#     Edge 71, Type (0, 0), BuildingBlock: UVAHIK_clean_linker_0, # of connection points: 2
# Relax obj value: 0.052
# Max RMSD: 0.150
# Mean RMSD: 0.150
data_MOF--net-wmi--node1-CUKXOW_clean_sbu_0--edge1-UVAHIK_clean_linker_0
_symmetry_space_group_name_H-M    P1
_symmetry_Int_Tables_number       1
_symmetry_cell_setting            triclinic
loop_
_symmetry_equiv_pos_as_xyz
'x, y, z'
_cell_length_a     40.983444
_cell_length_b     40.968138
_cell_length_c     110.61946
_cell_angle_alpha  90.037116
_cell_angle_beta   89.99173
_cell_angle_gamma 120.01587
loop_
_atom_site_label
_atom_site_type_symbol
_atom_site_fract_x
_atom_site_fract_y
_atom_site_fract_z
_atom_type_partial_charge
Tb0 Tb 0.49517 0.0519 0.09293 0.0
C1 C 0.47763 0.00617 0.11703 0.0
Tb2 Tb 0.50883 0.9849 0.09369 0.0
O3 O 0.43457 0.01488 0.09623 0.0
O4 O 0.46626 0.99508 0.08739 0.0
O5 O 0.48697 0.03938 0.11217 0.0
C6 C 0.5089 0.91997 0.09521 0.0
O7 O 0.48114 0.97983 0.11109 0.0
C8 C 0.56944 0.0518 0.09391 0.0
C9 C 0.51403 0.02265 0.06861 0.0
O10 O 0.53127 0.95056 0.10108 0.0
O11 O 0.48605 0.92576 0.08865 0.0
O12 O 0.568 0.02216 0.08919 0.0
O13 O 0.53863 0.04245 0.09913 0.0
O14 O 0.50768 0.99143 0.07427 0.0
O15 O 0.51467 0.05153 0.07439 0.0
C16 C 0.50529 0.12147 0.09201 0.0
O17 O 0.47711 0.09173 0.08725 0.0
O18 O 0.52762 0.11197 0.09722 0.0
C19 C 0.43445 0.98536 0.09183 0.0
Tb20 Tb 0.99515 0.45758 0.09491 0.0
C21 C 0.04072 0.48403 0.11907 0.0
Tb22 Tb 0.06211 0.53866 0.09624 0.0
O23 O 0.03228 0.4339 0.09764 0.0
O24 O 0.05216 0.48637 0.08945 0.0
O25 O 1.00765 0.46026 0.11411 0.0
C26 C 0.12667 0.60379 0.09883 0.0
O27 O 0.06695 0.5144 0.11333 0.0
C28 C 0.9952 0.53209 0.09655 0.0
C29 C 0.02414 0.50813 0.07103 0.0
O30 O 0.09576 0.59399 0.10474 0.0
O31 O 0.12138 0.57667 0.09157 0.0
O32 O 0.025 0.56095 0.09219 0.0
O33 O 1.00439 0.51013 0.10151 0.0
O34 O 0.05521 0.53311 0.07675 0.0
O35 O 0.99571 0.47895 0.07662 0.0
C36 C 0.92562 0.39771 0.09357 0.0
O37 O 0.93526 0.42821 0.0997 0.0
O38 O 0.95519 0.40091 0.08814 0.0
C39 C 0.06187 0.46388 0.09356 0.0
Tb40 Tb 0.5917 0.55531 0.09351 0.0
C41 C 0.56521 0.56874 0.11949 0.0
Tb42 Tb 0.50933 0.53463 0.09729 0.0
O43 O 0.60563 0.60894 0.08466 0.0
O44 O 0.56226 0.58388 0.09725 0.0
O45 O 0.59062 0.56447 0.11319 0.0
C46 C 0.44097 0.52804 0.09717 0.0
O47 O 0.53303 0.56277 0.11453 0.0
C48 C 0.52465 0.48027 0.10089 0.0
C49 C 0.53889 0.53139 0.07078 0.0
O50 O 0.45029 0.50644 0.10296 0.0
O51 O 0.47023 0.55359 0.09141 0.0
O52 O 0.49804 0.4826 0.10643 0.0
O53 O 0.53855 0.50563 0.093 0.0
O54 O 0.5131 0.53385 0.07744 0.0
O55 O 0.56952 0.53326 0.07559 0.0
C56 C 0.65366 0.54946 0.09482 0.0
O57 O 0.65069 0.57506 0.08878 0.0
O58 O 0.6219 0.52746 0.10017 0.0
C59 C 0.57712 0.6097 0.08956 0.0
Tb60 Tb 0.05824 0.49441 0.91675 0.0
C61 C 0.00841 0.4733 0.89341 0.0
Tb62 Tb 0.99105 0.50839 0.91655 0.0
O63 O 0.02154 0.43315 0.91461 0.0
O64 O 1.00177 0.466 0.92265 0.0
O65 O 0.04259 0.48398 0.89774 0.0
C66 C 0.92573 0.50801 0.91698 0.0
O67 O 0.98263 0.47688 0.89969 0.0
C68 C 0.05762 0.56921 0.91501 0.0
C69 C 0.03226 0.51507 0.94118 0.0
O70 O 0.9466 0.51436 0.90746 0.0
O71 O 0.94132 0.50137 0.92609 0.0
O72 O 0.02796 0.56887 0.91916 0.0
O73 O 0.04795 0.53743 0.9105 0.0
O74 O 1.00018 0.5075 0.93588 0.0
O75 O 0.06056 0.51564 0.93512 0.0
C76 C 0.12776 0.50456 0.91689 0.0
O77 O 0.09883 0.47735 0.92231 0.0
O78 O 0.11749 0.52592 0.91141 0.0
C79 C 0.99197 0.43354 0.91871 0.0
Tb80 Tb 0.56021 0.59006 0.918 0.0
C81 C 0.57231 0.56362 0.89178 0.0
Tb82 Tb 0.5397 0.50783 0.91396 0.0
O83 O 0.61362 0.60324 0.9269 0.0
O84 O 0.58878 0.56089 0.91397 0.0
O85 O 0.56893 0.58921 0.8983 0.0
C86 C 0.53275 0.43931 0.91382 0.0
O87 O 0.56602 0.53108 0.89651 0.0
C88 C 0.48592 0.52353 0.91009 0.0
C89 C 0.53617 0.53685 0.94053 0.0
O90 O 0.50782 0.44749 0.91 0.0
O91 O 0.56192 0.46985 0.91776 0.0
O92 O 0.48884 0.49754 0.90433 0.0
O93 O 0.51056 0.53689 0.91824 0.0
O94 O 0.53945 0.51157 0.93384 0.0
O95 O 0.53749 0.56725 0.93577 0.0
C96 C 0.55482 0.65232 0.91672 0.0
O97 O 0.58031 0.64915 0.92277 0.0
O98 O 0.53269 0.62058 0.91137 0.0
C99 C 0.61459 0.57526 0.92166 0.0
Tb100 Tb 0.4643 0.9939 0.91446 0.0
C101 C 0.49018 0.04064 0.89051 0.0
Tb102 Tb 0.54475 0.06161 0.91323 0.0
O103 O 0.43961 0.03037 0.91191 0.0
O104 O 0.49222 0.05086 0.91998 0.0
O105 O 0.46718 0.00703 0.89529 0.0
C106 C 0.6093 0.12689 0.91123 0.0
O107 O 0.51989 0.06726 0.89641 0.0
C108 C 0.53963 0.99524 0.9128 0.0
C109 C 0.51404 0.02327 0.93837 0.0
O110 O 0.59738 0.09896 0.90369 0.0
O111 O 0.58464 0.11825 0.91977 0.0
O112 O 0.56838 0.02542 0.917 0.0
O113 O 0.51718 1.00391 0.90793 0.0
O114 O 0.5378 0.05494 0.93269 0.0
O115 O 0.48613 0.99397 0.93265 0.0
C116 C 0.40458 0.92433 0.91562 0.0
O117 O 0.40803 0.9536 0.92133 0.0
O118 O 0.43476 0.93425 0.9093 0.0
C119 C 0.46937 0.06021 0.91599 0.0
Tb120 Tb 0.15893 0.38819 0.42791 0.0
C121 C 0.13925 0.34253 0.45209 0.0
Tb122 Tb 0.17199 0.32065 0.42927 0.0
O123 O 0.09794 0.35159 0.43072 0.0
O124 O 0.13001 0.33113 0.42256 0.0
O125 O 0.14897 0.37571 0.44713 0.0
C126 C 0.17307 0.25638 0.43208 0.0
O127 O 0.14293 0.31605 0.44633 0.0
C128 C 0.23289 0.38727 0.42928 0.0
C129 C 0.17859 0.35772 0.40399 0.0
O130 O 0.19364 0.28739 0.43801 0.0
O131 O 0.15142 0.26137 0.42465 0.0
O132 O 0.2312 0.35719 0.42487 0.0
O133 O 0.20209 0.37858 0.43442 0.0
O134 O 0.17124 0.32635 0.40978 0.0
O135 O 0.17981 0.38711 0.40962 0.0
C136 C 0.16908 0.45795 0.42658 0.0
O137 O 0.18944 0.44803 0.43285 0.0
O138 O 0.14299 0.42854 0.42099 0.0
C139 C 0.09792 0.32175 0.42667 0.0
Tb140 Tb 0.66054 0.79163 0.42717 0.0
C141 C 0.69935 0.81845 0.45326 0.0
Tb142 Tb 0.7221 0.87394 0.43099 0.0
O143 O 0.7005 0.77779 0.41848 0.0
O144 O 0.71844 0.82101 0.43114 0.0
O145 O 0.66984 0.79308 0.44689 0.0
C146 C 0.78386 0.94233 0.43098 0.0
O147 O 0.7259 0.85047 0.44833 0.0
C148 C 0.65237 0.85872 0.43433 0.0
C149 C 0.69046 0.84406 0.40442 0.0
O150 O 0.75256 0.93318 0.4365 0.0
O151 O 0.78053 0.91289 0.42543 0.0
O152 O 0.68117 0.88525 0.43995 0.0
O153 O 0.66398 0.84477 0.4265 0.0
O154 O 0.71849 0.8699 0.41114 0.0
O155 O 0.66138 0.8136 0.40918 0.0
C156 C 0.59296 0.72923 0.42831 0.0
O157 O 0.62215 0.73224 0.42266 0.0
O158 O 0.60195 0.76125 0.43336 0.0
C159 C 0.72962 0.80615 0.4235 0.0
Tb160 Tb 0.25381 0.88853 0.42672 0.0
C161 C 0.22582 0.90654 0.45078 0.0
Tb162 Tb 0.17327 0.87506 0.42746 0.0
O163 O 0.27757 0.94918 0.42997 0.0
O164 O 0.22606 0.91755 0.42114 0.0
O165 O 0.2496 0.89704 0.44595 0.0
C166 C 0.10834 0.8751 0.42899 0.0
O167 O 0.19598 0.90297 0.44484 0.0
C168 C 0.17932 0.8143 0.4277 0.0
C169 C 0.20573 0.86948 0.4024 0.0
O170 O 0.11655 0.85277 0.43488 0.0
O171 O 0.13694 0.89785 0.4224 0.0
O172 O 0.15119 0.81582 0.42298 0.0
O173 O 0.20085 0.84513 0.43292 0.0
O174 O 0.18095 0.87603 0.40803 0.0
O175 O 0.23388 0.8688 0.40819 0.0
C176 C 0.31316 0.87828 0.42577 0.0
O177 O 0.31157 0.90636 0.42095 0.0
O178 O 0.28141 0.85613 0.43106 0.0
C179 C 0.24824 0.94939 0.42557 0.0
Tb180 Tb 0.727 0.82386 0.25028 0.0
C181 C 0.68133 0.8035 0.22611 0.0
Tb182 Tb 0.65955 0.83702 0.2488 0.0
O183 O 0.69034 0.76292 0.2475 0.0
O184 O 0.66996 0.79511 0.25564 0.0
O185 O 0.71459 0.81359 0.23106 0.0
C186 C 0.59517 0.83766 0.24581 0.0
O187 O 0.65489 0.80738 0.23181 0.0
C188 C 0.7263 0.89776 0.2485 0.0
C189 C 0.69713 0.84477 0.2741 0.0
O190 O 0.62638 0.85875 0.24006 0.0
O191 O 0.60004 0.81581 0.25319 0.0
O192 O 0.69648 0.89654 0.25295 0.0
O193 O 0.71724 0.86661 0.24355 0.0
O194 O 0.6657 0.83736 0.26832 0.0
O195 O 0.72627 0.84544 0.26849 0.0
C196 C 0.79661 0.83398 0.25157 0.0
O197 O 0.76721 0.80767 0.25709 0.0
O198 O 0.78677 0.85456 0.2454 0.0
C199 C 0.66055 0.76295 0.25155 0.0
Tb200 Tb 0.22622 0.91712 0.24814 0.0
C201 C 0.24527 0.89045 0.22403 0.0
Tb202 Tb 0.21216 0.83627 0.2469 0.0
O203 O 0.28711 0.94075 0.24518 0.0
O204 O 0.25467 0.88861 0.2535 0.0
O205 O 0.23547 0.91395 0.22891 0.0
C206 C 0.21131 0.77108 0.24444 0.0
O207 O 0.24174 0.86051 0.22988 0.0
C208 C 0.1516 0.84248 0.24695 0.0
C209 C 0.20621 0.86755 0.27212 0.0
O210 O 0.19343 0.78261 0.23759 0.0
O211 O 0.23009 0.79648 0.25258 0.0
O212 O 0.15288 0.81372 0.25121 0.0
O213 O 0.18243 0.86441 0.24181 0.0
O214 O 0.21327 0.84326 0.26639 0.0
O215 O 0.20524 0.89572 0.26644 0.0
C216 C 0.21704 0.97713 0.24954 0.0
O217 O 0.24307 0.97357 0.25506 0.0
O218 O 0.19626 0.94694 0.24328 0.0
C219 C 0.28677 0.91087 0.24932 0.0
Tb220 Tb 0.13189 0.32267 0.24971 0.0
C221 C 0.1592 0.36771 0.2254 0.0
Tb222 Tb 0.21361 0.38982 0.2483 0.0
O223 O 0.10686 0.35878 0.247 0.0
O224 O 0.16074 0.38035 0.25423 0.0
O225 O 0.13524 0.33482 0.23044 0.0
C226 C 0.27976 0.45349 0.24586 0.0
O227 O 0.18962 0.39411 0.23109 0.0
C228 C 0.20645 0.32257 0.24885 0.0
C229 C 0.18108 0.35417 0.27365 0.0
O230 O 0.26701 0.42437 0.23878 0.0
O231 O 0.25512 0.44691 0.25426 0.0
O232 O 0.23548 0.35265 0.25296 0.0
O233 O 0.18483 0.33161 0.24361 0.0
O234 O 0.20531 0.38525 0.26777 0.0
O235 O 0.15331 0.32439 0.26807 0.0
C236 C 0.07245 0.25293 0.25091 0.0
O237 O 0.10243 0.26316 0.24445 0.0
O238 O 0.07593 0.28202 0.25676 0.0
C239 C 0.13761 0.38926 0.25014 0.0
Tb240 Tb 0.82646 0.72361 0.7607 0.0
C241 C 0.80452 0.67813 0.78495 0.0
Tb242 Tb 0.83925 0.65578 0.76279 0.0
O243 O 0.76513 0.68725 0.76285 0.0
O244 O 0.79803 0.66651 0.7555 0.0
O245 O 0.81494 0.71133 0.77988 0.0
C246 C 0.84031 0.59166 0.76608 0.0
O247 O 0.80851 0.65145 0.77945 0.0
C248 C 0.90001 0.72236 0.763 0.0
C249 C 0.84775 0.69247 0.73728 0.0
O250 O 0.86021 0.62266 0.77209 0.0
O251 O 0.81948 0.59665 0.75832 0.0
O252 O 0.89882 0.69224 0.75884 0.0
O253 O 0.86879 0.71375 0.76779 0.0
O254 O 0.83992 0.66121 0.74324 0.0
O255 O 0.84867 0.72206 0.74268 0.0
C256 C 0.83695 0.79338 0.75909 0.0
O257 O 0.81103 0.76395 0.75346 0.0
O258 O 0.85699 0.78349 0.76554 0.0
C259 C 0.7655 0.65728 0.75915 0.0
Tb260 Tb 0.32453 0.12825 0.76004 0.0
C261 C 0.37208 0.15603 0.78376 0.0
Tb262 Tb 0.39107 0.2094 0.76078 0.0
O263 O 0.36192 0.10489 0.7628 0.0
O264 O 0.38133 0.15685 0.75434 0.0
O265 O 0.33832 0.13252 0.77918 0.0
C266 C 0.45615 0.27428 0.76238 0.0
O267 O 0.39815 0.18558 0.77766 0.0
C268 C 0.32413 0.20288 0.76167 0.0
C269 C 0.35155 0.1768 0.73583 0.0
O270 O 0.42982 0.26121 0.77051 0.0
O271 O 0.44602 0.25066 0.75345 0.0
O272 O 0.35378 0.23211 0.75743 0.0
O273 O 0.33377 0.18103 0.76641 0.0
O274 O 0.38293 0.20205 0.74134 0.0
O275 O 0.32347 0.14808 0.74168 0.0
C276 C 0.25537 0.068 0.75933 0.0
O277 O 0.28473 0.07095 0.75383 0.0
O278 O 0.26499 0.09893 0.76519 0.0
C279 C 0.39132 0.13464 0.75852 0.0
Tb280 Tb 0.91883 0.2223 0.762 0.0
C281 C 0.89169 0.24064 0.78621 0.0
Tb282 Tb 0.83799 0.20884 0.7631 0.0
O283 O 0.94288 0.28311 0.76516 0.0
O284 O 0.89075 0.25125 0.75672 0.0
O285 O 0.91551 0.23139 0.78125 0.0
C286 C 0.77262 0.20777 0.76574 0.0
O287 O 0.86159 0.23691 0.7804 0.0
C288 C 0.84411 0.14816 0.76289 0.0
C289 C 0.86963 0.2035 0.73788 0.0
O290 O 0.78241 0.18634 0.77144 0.0
O291 O 0.7999 0.23022 0.75863 0.0
O292 O 0.81577 0.14979 0.75841 0.0
O293 O 0.86584 0.17879 0.76819 0.0
O294 O 0.84525 0.21043 0.74362 0.0
O295 O 0.89767 0.20225 0.74358 0.0
C296 C 0.97827 0.21201 0.76073 0.0
O297 O 0.97531 0.23843 0.75523 0.0
O298 O 0.94779 0.19148 0.76689 0.0
C299 C 0.91316 0.28315 0.76104 0.0
Tb300 Tb 0.38932 0.15814 0.5818 0.0
C301 C 0.34436 0.14059 0.55755 0.0
Tb302 Tb 0.32324 0.1736 0.58055 0.0
O303 O 0.3515 0.09762 0.57867 0.0
O304 O 0.33222 0.13042 0.58709 0.0
O305 O 0.37722 0.14929 0.56254 0.0
C306 C 0.25932 0.17527 0.57783 0.0
O307 O 0.31834 0.14503 0.56331 0.0
C308 C 0.39066 0.2333 0.58056 0.0
C309 C 0.36032 0.17918 0.60582 0.0
O310 O 0.29054 0.19629 0.57207 0.0
O311 O 0.26394 0.15293 0.58506 0.0
O312 O 0.36104 0.23272 0.58492 0.0
O313 O 0.38106 0.20224 0.57544 0.0
O314 O 0.3296 0.17395 0.60006 0.0
O315 O 0.38857 0.1781 0.60022 0.0
C316 C 0.45828 0.16654 0.58317 0.0
O317 O 0.42829 0.13999 0.58837 0.0
O318 O 0.44939 0.18829 0.57725 0.0
C319 C 0.32211 0.09833 0.58278 0.0
Tb320 Tb 0.88885 0.25181 0.58342 0.0
C321 C 0.90701 0.22505 0.55915 0.0
Tb322 Tb 0.8755 0.17109 0.58217 0.0
O323 O 0.94956 0.27588 0.58019 0.0
O324 O 0.91795 0.22376 0.58863 0.0
O325 O 0.89743 0.24855 0.56415 0.0
C326 C 0.87444 0.10576 0.57933 0.0
O327 O 0.90364 0.19504 0.56493 0.0
C328 C 0.81478 0.17709 0.58234 0.0
C329 C 0.86996 0.20234 0.60746 0.0
O330 O 0.85303 0.11567 0.57368 0.0
O331 O 0.89686 0.13287 0.58651 0.0
O332 O 0.81644 0.14874 0.58681 0.0
O333 O 0.84543 0.19893 0.5771 0.0
O334 O 0.87696 0.17804 0.60168 0.0
O335 O 0.86868 0.23042 0.6018 0.0
C336 C 0.87929 0.31172 0.58475 0.0
O337 O 0.90584 0.30861 0.5901 0.0
O338 O 0.85812 0.28106 0.57874 0.0
C339 C 0.94978 0.24624 0.58429 0.0
Tb340 Tb 0.79556 0.65754 0.58332 0.0
C341 C 0.82016 0.70298 0.55913 0.0
Tb342 Tb 0.87608 0.7252 0.58164 0.0
O343 O 0.77107 0.69418 0.58068 0.0
O344 O 0.82388 0.71459 0.58861 0.0
O345 O 0.79719 0.66973 0.56412 0.0
C346 C 0.94093 0.78964 0.57846 0.0
O347 O 0.85057 0.72958 0.56476 0.0
C348 C 0.87041 0.65861 0.58153 0.0
C349 C 0.84672 0.68838 0.60704 0.0
O350 O 0.93046 0.7585 0.57261 0.0
O351 O 0.91464 0.78467 0.58605 0.0
O352 O 0.89904 0.68873 0.58584 0.0
O353 O 0.84808 0.66728 0.57656 0.0
O354 O 0.87056 0.71968 0.60117 0.0
O355 O 0.81826 0.65894 0.60151 0.0
C356 C 0.7367 0.58748 0.58466 0.0
O357 O 0.73945 0.61667 0.59026 0.0
O358 O 0.76706 0.59782 0.57841 0.0
C359 C 0.80107 0.72402 0.58465 0.0
C360 C 0.54116 0.88459 0.10118 0.0
C361 C 0.51249 0.88601 0.0947 0.0
C362 C 0.54697 0.85398 0.09981 0.0
C363 C 0.56835 0.79907 0.08913 0.0
H364 H 0.48422 0.69664 0.08824 0.0
C365 C 0.58822 0.67056 0.08054 0.0
C366 C 0.56825 0.64026 0.08848 0.0
C367 C 0.58042 0.70016 0.08011 0.0
C368 C 0.50801 0.72511 0.08847 0.0
H369 H 0.46681 0.85647 0.08194 0.0
H370 H 0.47694 0.80289 0.07952 0.0
H371 H 0.47234 0.74902 0.0905 0.0
H372 H 0.52452 0.61696 0.10217 0.0
H373 H 0.51091 0.66814 0.10141 0.0
H374 H 0.60406 0.77505 0.08747 0.0
C375 C 0.49482 0.82526 0.08571 0.0
C376 C 0.50119 0.75511 0.08967 0.0
C377 C 0.48905 0.85592 0.08707 0.0
C378 C 0.54008 0.63972 0.09584 0.0
C379 C 0.53217 0.66903 0.09538 0.0
C380 C 0.57518 0.76906 0.08791 0.0
C381 C 0.52419 0.82421 0.09194 0.0
C382 C 0.53131 0.79239 0.09018 0.0
C383 C 0.5524 0.69973 0.08759 0.0
C384 C 0.54509 0.73172 0.08774 0.0
H385 H 0.5596 0.90746 0.10713 0.0
H386 H 0.56938 0.85367 0.10491 0.0
H387 H 0.59214 0.82753 0.0893 0.0
H388 H 0.61007 0.67158 0.07477 0.0
H389 H 0.5963 0.72336 0.07396 0.0
C390 C 0.37326 0.93658 0.10077 0.0
C391 C 0.40319 0.94617 0.09273 0.0
C392 C 0.34426 0.8991 0.10184 0.0
C393 C 0.29921 0.80804 0.08553 0.0
H394 H 0.25878 0.76604 0.11707 0.0
C395 C 0.19163 0.6501 0.09177 0.0
C396 C 0.16079 0.64138 0.09931 0.0
C397 C 0.22257 0.68672 0.09147 0.0
C398 C 0.26957 0.77744 0.10819 0.0
H399 H 0.42604 0.92463 0.07931 0.0
H400 H 0.37594 0.85915 0.08131 0.0
H401 H 0.30955 0.83141 0.11543 0.0
H402 H 0.13837 0.66358 0.11268 0.0
H403 H 0.19222 0.72756 0.11212 0.0
H404 H 0.25916 0.75424 0.07827 0.0
C405 C 0.37457 0.88042 0.08675 0.0
C406 C 0.29862 0.81492 0.10724 0.0
C407 C 0.4035 0.91784 0.08569 0.0
C408 C 0.16186 0.66956 0.10681 0.0
C409 C 0.19279 0.70616 0.10651 0.0
C410 C 0.27021 0.7706 0.08647 0.0
C411 C 0.3446 0.87056 0.09484 0.0
C412 C 0.31375 0.83069 0.0959 0.0
C413 C 0.22329 0.71533 0.09871 0.0
C414 C 0.25497 0.75485 0.09781 0.0
H415 H 0.37244 0.95798 0.10632 0.0
H416 H 0.32137 0.89255 0.10806 0.0
H417 H 0.30978 0.81945 0.07663 0.0
H418 H 0.19153 0.62881 0.08593 0.0
H419 H 0.24585 0.69268 0.0855 0.0
C420 C 0.12935 0.5008 0.08727 0.0
C421 C 0.10083 0.47088 0.09387 0.0
C422 C 0.1664 0.50776 0.08765 0.0
C423 C 0.22204 0.4617 0.09452 0.0
H424 H 0.30573 0.5642 0.09664 0.0
C425 C 0.37361 0.49376 0.1035 0.0
C426 C 0.4028 0.52321 0.09695 0.0
C427 C 0.3371 0.48817 0.10313 0.0
C428 C 0.28271 0.53544 0.09591 0.0
H429 H 0.08839 0.42472 0.10604 0.0
H430 H 0.15314 0.43683 0.10676 0.0
H431 H 0.2413 0.55277 0.09604 0.0
H432 H 0.41701 0.57023 0.08496 0.0
H433 H 0.35295 0.56034 0.0842 0.0
H434 H 0.26331 0.44432 0.09437 0.0
C435 C 0.14691 0.45476 0.10119 0.0
C436 C 0.24576 0.52888 0.09557 0.0
C437 C 0.10987 0.44786 0.10081 0.0
C438 C 0.39496 0.54731 0.09011 0.0
C439 C 0.35834 0.54174 0.08973 0.0
C440 C 0.25892 0.46825 0.09485 0.0
C441 C 0.17564 0.4848 0.09461 0.0
C442 C 0.21498 0.49191 0.09491 0.0
C443 C 0.32891 0.5119 0.09617 0.0
C444 C 0.28972 0.50518 0.0956 0.0
H445 H 0.12295 0.51854 0.08167 0.0
H446 H 0.18767 0.53074 0.08232 0.0
H447 H 0.19904 0.43292 0.09378 0.0
H448 H 0.37893 0.47485 0.1089 0.0
H449 H 0.31531 0.46534 0.10837 0.0
C450 C 0.87931 0.51587 0.9292 0.0
C451 C 0.89189 0.51163 0.91781 0.0
C452 C 0.84866 0.52168 0.93016 0.0
C453 C 0.7622 0.50298 0.91619 0.0
H454 H 0.77725 0.59521 0.93113 0.0
C455 C 0.65001 0.54675 0.91275 0.0
C456 C 0.64566 0.56708 0.92221 0.0
C457 C 0.67951 0.53915 0.91284 0.0
C458 C 0.77225 0.56895 0.92715 0.0
H459 H 0.88204 0.50915 0.89851 0.0
H460 H 0.82713 0.51797 0.90022 0.0
H461 H 0.82951 0.58271 0.93003 0.0
H462 H 0.66817 0.59492 0.93931 0.0
H463 H 0.71924 0.58024 0.93982 0.0
H464 H 0.70482 0.48816 0.91367 0.0
C465 C 0.84151 0.51733 0.90836 0.0
C466 C 0.8023 0.56203 0.92644 0.0
C467 C 0.87278 0.51236 0.90738 0.0
C468 C 0.67114 0.57935 0.93189 0.0
C469 C 0.70045 0.5711 0.93211 0.0
C470 C 0.73194 0.50945 0.91712 0.0
C471 C 0.82959 0.52251 0.91975 0.0
C472 C 0.79758 0.52925 0.9208 0.0
C473 C 0.70507 0.55097 0.92255 0.0
C474 C 0.73668 0.54285 0.92243 0.0
H475 H 0.8937 0.51553 0.93738 0.0
H476 H 0.83975 0.52542 0.93902 0.0
H477 H 0.7579 0.47725 0.91195 0.0
H478 H 0.631 0.53724 0.90509 0.0
H479 H 0.68255 0.52455 0.90515 0.0
C480 C 0.50703 0.12802 0.92185 0.0
C481 C 0.47591 0.09904 0.91578 0.0
C482 C 0.51382 0.16501 0.92152 0.0
C483 C 0.46663 0.22021 0.91663 0.0
H484 H 0.56794 0.30342 0.91135 0.0
C485 C 0.49555 0.37116 0.90857 0.0
C486 C 0.52783 0.40109 0.91383 0.0
C487 C 0.48995 0.33463 0.90873 0.0
C488 C 0.53957 0.28058 0.91299 0.0
H489 H 0.42728 0.08573 0.90469 0.0
H490 H 0.43891 0.15044 0.90416 0.0
H491 H 0.55652 0.23897 0.91177 0.0
H492 H 0.57977 0.41655 0.92333 0.0
H493 H 0.56975 0.35242 0.92384 0.0
H494 H 0.44963 0.26161 0.91802 0.0
C495 C 0.45805 0.14457 0.9092 0.0
C496 C 0.53301 0.24363 0.9132 0.0
C497 C 0.45141 0.10758 0.90948 0.0
C498 C 0.55466 0.39392 0.91919 0.0
C499 C 0.54897 0.35723 0.91941 0.0
C500 C 0.4732 0.25713 0.91649 0.0
C501 C 0.4894 0.17372 0.9152 0.0
C502 C 0.49644 0.21301 0.91498 0.0
C503 C 0.5164 0.32707 0.91424 0.0
C504 C 0.50972 0.28782 0.91461 0.0
H505 H 0.52592 0.12205 0.92697 0.0
H506 H 0.53786 0.18668 0.92639 0.0
H507 H 0.43824 0.19729 0.91822 0.0
H508 H 0.4745 0.37595 0.90431 0.0
H509 H 0.46494 0.31234 0.90444 0.0
C510 C 0.66108 0.18269 0.92156 0.0
C511 C 0.64696 0.16076 0.91108 0.0
C512 C 0.69804 0.2128 0.9219 0.0
C513 C 0.77128 0.2856 0.91942 0.0
H514 H 0.84858 0.27852 0.90138 0.0
C515 C 0.92302 0.4099 0.91803 0.0
C516 C 0.9528 0.40245 0.91752 0.0
C517 C 0.88586 0.38096 0.91664 0.0
C518 C 0.82751 0.28083 0.90662 0.0
H519 H 0.65956 0.15359 0.8926 0.0
H520 H 0.72357 0.20748 0.89292 0.0
H521 H 0.78377 0.22737 0.90033 0.0
H522 H 0.96739 0.35886 0.91518 0.0
H523 H 0.90223 0.30753 0.91344 0.0
H524 H 0.81514 0.33776 0.92634 0.0
C525 C 0.70675 0.20073 0.90106 0.0
C526 C 0.79004 0.25169 0.90583 0.0
C527 C 0.66995 0.17009 0.90081 0.0
C528 C 0.94482 0.36532 0.91561 0.0
C529 C 0.90746 0.33602 0.9145 0.0
C530 C 0.80876 0.31431 0.9204 0.0
C531 C 0.72152 0.22219 0.91168 0.0
C532 C 0.76137 0.25366 0.91223 0.0
C533 C 0.87741 0.34346 0.91501 0.0
C534 C 0.83745 0.31246 0.91398 0.0
H535 H 0.64399 0.1758 0.92965 0.0
H536 H 0.7084 0.22798 0.93033 0.0
H537 H 0.7501 0.28863 0.92433 0.0
H538 H 0.92848 0.43828 0.91925 0.0
H539 H 0.86384 0.38822 0.91673 0.0
C540 C 0.26072 0.0104 0.43469 0.0
C541 C 0.24035 0.98067 0.42657 0.0
C542 C 0.25237 0.03945 0.43586 0.0
C543 C 0.17723 0.06265 0.42985 0.0
H544 H 0.25886 0.1659 0.43276 0.0
C545 C 0.15588 0.19165 0.42507 0.0
C546 C 0.17704 0.22256 0.43271 0.0
C547 C 0.16214 0.16104 0.42496 0.0
C548 C 0.23568 0.13718 0.43212 0.0
H549 H 0.19616 0.95832 0.41308 0.0
H550 H 0.18157 0.009 0.41507 0.0
H551 H 0.27309 0.11501 0.43125 0.0
H552 H 0.22042 0.24538 0.44648 0.0
H553 H 0.23108 0.19186 0.44642 0.0
H554 H 0.13984 0.08496 0.43062 0.0
C555 C 0.20344 0.00961 0.42072 0.0
C556 C 0.24386 0.10798 0.43125 0.0
C557 C 0.2118 0.98061 0.41956 0.0
C558 C 0.20379 0.22193 0.44047 0.0
C559 C 0.21008 0.1914 0.44037 0.0
C560 C 0.16904 0.09188 0.43071 0.0
C561 C 0.22356 0.03937 0.42891 0.0
C562 C 0.21476 0.07036 0.43007 0.0
C563 C 0.18973 0.16083 0.43249 0.0
C564 C 0.19818 0.12952 0.43184 0.0
H565 H 0.28272 0.01091 0.44025 0.0
H566 H 0.26811 0.06168 0.44235 0.0
H567 H 0.15409 0.03394 0.42914 0.0
H568 H 0.13514 0.19151 0.41896 0.0
H569 H 0.14619 0.13811 0.41871 0.0
C570 C 0.03394 0.27389 0.43409 0.0
C571 C 0.06594 0.28281 0.42712 0.0
C572 C 1.00402 0.23672 0.43466 0.0
C573 C 0.96197 0.14549 0.41839 0.0
H574 H 0.91117 0.10474 0.44889 0.0
C575 C 0.8496 0.98803 0.42427 0.0
C576 C 0.81727 0.98045 0.43085 0.0
C577 C 0.8808 0.02455 0.42398 0.0
C578 C 0.92486 0.1158 0.44028 0.0
H579 H 0.09164 0.26036 0.41511 0.0
H580 H 0.03994 0.19541 0.41629 0.0
H581 H 0.96363 0.16936 0.44802 0.0
H582 H 0.7921 1.00474 0.44233 0.0
H583 H 0.8463 0.06841 0.44179 0.0
H584 H 0.92315 0.09191 0.41066 0.0
C585 C 0.03763 0.21698 0.42124 0.0
C586 C 0.95489 0.15287 0.43978 0.0
C587 C 0.06745 0.2541 0.42067 0.0
C588 C 0.81674 0.00982 0.43722 0.0
C589 C 0.84788 0.04624 0.43696 0.0
C590 C 0.93197 0.10839 0.4189 0.0
C591 C 1.00552 0.20779 0.42825 0.0
C592 C 0.97373 0.16823 0.42882 0.0
C593 C 0.88024 0.05411 0.43031 0.0
C594 C 0.91295 0.09315 0.42984 0.0
H595 H 0.03212 0.29558 0.43914 0.0
H596 H 0.97952 0.23073 0.44002 0.0
H597 H 0.97548 0.15657 0.40976 0.0
H598 H 0.85072 0.9658 0.41931 0.0
H599 H 0.90545 0.02959 0.41889 0.0
C600 C 0.04072 0.84281 0.435 0.0
C601 C 0.07081 0.87155 0.42853 0.0
C602 C 1.00431 0.83701 0.43367 0.0
C603 C 0.92805 0.81565 0.42299 0.0
H604 H 0.90951 0.89962 0.42245 0.0
C605 C 0.77962 0.7955 0.41446 0.0
C606 C 0.76909 0.81514 0.42248 0.0
C607 C 0.81706 0.80345 0.41405 0.0
C608 C 0.91426 0.87588 0.42258 0.0
H609 H 0.08695 0.91741 0.41585 0.0
H610 H 0.02324 0.90733 0.41351 0.0
H611 H 0.97384 0.91165 0.42463 0.0
H612 H 0.78919 0.85844 0.43633 0.0
H613 H 0.85409 0.87233 0.43558 0.0
H614 H 0.86835 0.77983 0.42129 0.0
C615 C 0.02774 0.88936 0.41965 0.0
C616 C 0.95112 0.88279 0.42374 0.0
C617 C 0.06417 0.8951 0.42097 0.0
C618 C 0.79656 0.84313 0.42994 0.0
C619 C 0.83383 0.8512 0.42949 0.0
C620 C 0.89119 0.80874 0.42181 0.0
C621 C 0.99732 0.85989 0.42585 0.0
C622 C 0.95837 0.85272 0.42412 0.0
C623 C 0.8445 0.83131 0.42161 0.0
C624 C 0.88385 0.83876 0.42176 0.0
H625 H 0.04515 0.82429 0.4409 0.0
H626 H 0.98159 0.81452 0.43874 0.0
H627 H 0.9328 0.79191 0.42307 0.0
H628 H 0.75892 0.77379 0.40861 0.0
H629 H 0.82454 0.78783 0.40782 0.0
C630 C 0.31628 0.87295 0.25534 0.0
C631 C 0.31803 0.9029 0.24867 0.0
C632 C 0.3453 0.86455 0.25461 0.0
C633 C 0.42456 0.87757 0.23539 0.0
H634 H 0.45937 0.85319 0.26478 0.0
C635 C 0.56079 0.86855 0.2375 0.0
C636 C 0.56108 0.84108 0.245 0.0
C637 C 0.52983 0.87414 0.23742 0.0
C638 C 0.44963 0.85936 0.25646 0.0
H639 H 0.35131 0.94766 0.236 0.0
H640 H 0.40249 0.93326 0.23478 0.0
H641 H 0.40857 0.86763 0.26577 0.0
H642 H 0.52893 0.79704 0.25802 0.0
H643 H 0.47445 0.80633 0.25778 0.0
H644 H 0.46572 0.86938 0.22608 0.0
C645 C 0.37846 0.916 0.24049 0.0
C646 C 0.42054 0.86774 0.25703 0.0
C647 C 0.34939 0.92447 0.24126 0.0
C648 C 0.52944 0.81852 0.25218 0.0
C649 C 0.4984 0.82405 0.2521 0.0
C650 C 0.45363 0.8691 0.23481 0.0
C651 C 0.37675 0.88595 0.24718 0.0
C652 C 0.4077 0.87702 0.24651 0.0
C653 C 0.49844 0.8523 0.24485 0.0
C654 C 0.4666 0.85999 0.24535 0.0
H655 H 0.29254 0.85611 0.26121 0.0
H656 H 0.34288 0.84099 0.25978 0.0
H657 H 0.41494 0.88407 0.22709 0.0
H658 H 0.58491 0.88642 0.2319 0.0
H659 H 0.53104 0.8964 0.23183 0.0
C660 C 0.18811 0.70882 0.23436 0.0
C661 C 0.20707 0.73324 0.24402 0.0
C662 C 0.18151 0.67188 0.23444 0.0
C663 C 0.15043 0.58926 0.24013 0.0
H664 H 0.2224 0.56619 0.25477 0.0
C665 C 0.11521 0.43589 0.24968 0.0
C666 C 0.1447 0.42801 0.24873 0.0
C667 C 0.12255 0.47306 0.24874 0.0
C668 C 0.20211 0.57204 0.2505 0.0
H669 H 0.2343 0.73867 0.26127 0.0
H670 H 0.22183 0.67401 0.26164 0.0
H671 H 0.23742 0.63124 0.25324 0.0
H672 H 0.20397 0.4519 0.24506 0.0
H673 H 0.217 0.51625 0.24311 0.0
H674 H 0.11582 0.53006 0.23693 0.0
C675 C 0.21283 0.68337 0.25383 0.0
C676 C 0.21051 0.60947 0.24979 0.0
C677 C 0.21986 0.72042 0.25366 0.0
C678 C 0.18118 0.45747 0.24634 0.0
C679 C 0.1885 0.4944 0.24519 0.0
C680 C 0.14222 0.5518 0.24069 0.0
C681 C 0.1933 0.65848 0.24426 0.0
C682 C 0.18473 0.61861 0.24466 0.0
C683 C 0.15943 0.50287 0.24657 0.0
C684 C 0.16793 0.54268 0.24591 0.0
H685 H 0.17808 0.71815 0.2268 0.0
H686 H 0.16709 0.65384 0.2268 0.0
H687 H 0.12959 0.59508 0.23627 0.0
H688 H 0.08671 0.41348 0.25146 0.0
H689 H 0.09945 0.47845 0.24996 0.0
C690 C 0.59256 0.73196 0.25711 0.0
C691 C 0.62147 0.73165 0.25042 0.0
C692 C 0.55534 0.70267 0.25592 0.0
C693 C 0.49853 0.60361 0.24554 0.0
H694 H 0.41645 0.62498 0.24669 0.0
C695 C 0.34409 0.48878 0.23679 0.0
C696 C 0.31754 0.48724 0.24513 0.0
C697 C 0.38081 0.51953 0.2367 0.0
C698 C 0.43908 0.61857 0.24642 0.0
H699 H 0.63443 0.70094 0.23715 0.0
H700 H 0.56932 0.64993 0.23489 0.0
H701 H 0.48142 0.67674 0.24788 0.0
H702 H 0.30802 0.5169 0.25968 0.0
H703 H 0.37217 0.5708 0.2595 0.0
H704 H 0.4561 0.54544 0.24404 0.0
C705 C 0.57534 0.67237 0.24124 0.0
C706 C 0.47633 0.6482 0.24714 0.0
C707 C 0.61262 0.70159 0.2425 0.0
C708 C 0.32799 0.51743 0.25315 0.0
C709 C 0.36464 0.54833 0.25301 0.0
C710 C 0.4613 0.57403 0.24475 0.0
C711 C 0.5462 0.67249 0.24796 0.0
C712 C 0.50655 0.64108 0.2468 0.0
C713 C 0.39161 0.54947 0.24489 0.0
C714 C 0.43115 0.58115 0.24526 0.0
H715 H 0.59878 0.75464 0.26339 0.0
H716 H 0.53383 0.70342 0.26141 0.0
H717 H 0.52098 0.59695 0.24545 0.0
H718 H 0.33671 0.46586 0.23049 0.0
H719 H 0.40083 0.51982 0.23024 0.0
C720 C 0.87125 0.55739 0.77453 0.0
C721 C 0.84407 0.55778 0.76691 0.0
C722 C 0.87722 0.52663 0.77449 0.0
C723 C 0.86424 0.44801 0.75492 0.0
H724 H 0.88695 0.41082 0.78411 0.0
C725 C 0.87616 0.31375 0.75514 0.0
C726 C 0.90554 0.31461 0.76189 0.0
C727 C 0.86814 0.343 0.75607 0.0
C728 C 0.88102 0.42116 0.77586 0.0
H729 H 0.80086 0.52598 0.7536 0.0
H730 H 0.81078 0.47195 0.75365 0.0
H731 H 0.87251 0.46179 0.78542 0.0
H732 H 0.94973 0.34655 0.7749 0.0
H733 H 0.93603 0.39815 0.77646 0.0
H734 H 0.87277 0.4075 0.74535 0.0
C735 C 0.82803 0.49564 0.7595 0.0
C736 C 0.87271 0.45033 0.77662 0.0
C737 C 0.82213 0.52643 0.75952 0.0
C738 C 0.92696 0.34533 0.76957 0.0
C739 C 0.91889 0.37463 0.77053 0.0
C740 C 0.87246 0.41884 0.75417 0.0
C741 C 0.85608 0.49563 0.76683 0.0
C742 C 0.86419 0.46409 0.76614 0.0
C743 C 0.8894 0.37381 0.76377 0.0
C744 C 0.88093 0.40504 0.76463 0.0
H745 H 0.88863 0.5813 0.78028 0.0
H746 H 0.89928 0.52774 0.78017 0.0
H747 H 0.85859 0.45842 0.74664 0.0
H748 H 0.85948 0.29054 0.74906 0.0
H749 H 0.845 0.34129 0.75083 0.0
C750 C 0.73724 0.58919 0.75431 0.0
C751 C 0.73344 0.6184 0.75941 0.0
C752 C 0.70799 0.55194 0.75504 0.0
C753 C 0.61562 0.4902 0.77048 0.0
H754 H 0.60832 0.42056 0.74551 0.0
C755 C 0.50418 0.33177 0.77329 0.0
C756 C 0.48966 0.31214 0.76243 0.0
C757 C 0.53486 0.36858 0.77317 0.0
C758 C 0.60929 0.43955 0.75249 0.0
H759 H 0.69542 0.63211 0.76873 0.0
H760 H 0.64298 0.56737 0.76923 0.0
H761 H 0.6569 0.48569 0.74425 0.0
H762 H 0.49501 0.31525 0.74295 0.0
H763 H 0.54652 0.37988 0.74259 0.0
H764 H 0.56596 0.44456 0.77816 0.0
C765 C 0.6693 0.57269 0.76524 0.0
C766 C 0.638 0.47712 0.75191 0.0
C767 C 0.69917 0.60995 0.76483 0.0
C768 C 0.50611 0.32972 0.75146 0.0
C769 C 0.53594 0.36682 0.7513 0.0
C770 C 0.58615 0.4528 0.77086 0.0
C771 C 0.67339 0.54301 0.76044 0.0
C772 C 0.6419 0.50304 0.76095 0.0
C773 C 0.5509 0.38691 0.76214 0.0
C774 C 0.58259 0.42681 0.76188 0.0
H775 H 0.76287 0.59511 0.74971 0.0
H776 H 0.71292 0.53024 0.75141 0.0
H777 H 0.6178 0.50887 0.77776 0.0
H778 H 0.49193 0.3186 0.78187 0.0
H779 H 0.54592 0.3825 0.78174 0.0
C780 C 0.43953 0.12089 0.76709 0.0
C781 C 0.43063 0.14303 0.75963 0.0
C782 C 0.47689 0.12926 0.76833 0.0
C783 C 0.57577 0.20577 0.7638 0.0
H784 H 0.5967 0.12339 0.76458 0.0
C785 C 0.72616 0.22678 0.75906 0.0
C786 C 0.73495 0.20407 0.76629 0.0
C787 C 0.68945 0.22095 0.75887 0.0
C788 C 0.59133 0.14673 0.76453 0.0
H789 H 0.45344 0.19088 0.74752 0.0
H790 H 0.51867 0.20536 0.74953 0.0
H791 H 0.53185 0.10978 0.76293 0.0
H792 H 0.71282 0.15831 0.77924 0.0
H793 H 0.6489 0.14827 0.779 0.0
H794 H 0.63545 0.2427 0.76524 0.0
C795 C 0.49701 0.18196 0.75462 0.0
C796 C 0.5541 0.13892 0.76359 0.0
C797 C 0.45965 0.17363 0.75342 0.0
C798 C 0.70676 0.17614 0.77356 0.0
C799 C 0.6701 0.17024 0.77335 0.0
C800 C 0.61307 0.21359 0.7647 0.0
C801 C 0.50612 0.15985 0.76208 0.0
C802 C 0.54582 0.16832 0.76321 0.0
C803 C 0.66086 0.19219 0.76587 0.0
C804 C 0.62127 0.18414 0.76508 0.0
H805 H 0.41766 0.09734 0.77208 0.0
H806 H 0.48291 0.11198 0.77429 0.0
H807 H 0.57039 0.2291 0.7637 0.0
H808 H 0.74741 0.24848 0.75335 0.0
H809 H 0.68321 0.23816 0.75295 0.0
C810 C 0.01152 0.26025 0.57542 0.0
C811 C 0.98117 0.23859 0.58317 0.0
C812 C 0.04082 0.2523 0.57419 0.0
C813 C 0.06442 0.17696 0.57928 0.0
H814 H 0.16748 0.25967 0.57783 0.0
C815 C 0.19397 0.15679 0.58446 0.0
C816 C 0.22543 0.17907 0.57716 0.0
C817 C 0.16311 0.16262 0.5845 0.0
C818 C 0.13883 0.23623 0.57806 0.0
H819 H 0.95782 0.19232 0.59592 0.0
H820 H 0.00896 0.17848 0.59386 0.0
H821 H 0.116 0.27302 0.5793 0.0
H822 H 0.24903 0.22407 0.56394 0.0
H823 H 0.1951 0.23405 0.56391 0.0
H824 H 0.0874 0.14019 0.57817 0.0
C825 C 0.00992 0.2011 0.58853 0.0
C826 C 0.1093 0.24389 0.5789 0.0
C827 C 0.98066 0.20904 0.58974 0.0
C828 C 0.22515 0.20657 0.56968 0.0
C829 C 0.19438 0.21246 0.56973 0.0
C830 C 0.09399 0.16929 0.57846 0.0
C831 C 0.04037 0.22261 0.58073 0.0
C832 C 0.07172 0.21437 0.57956 0.0
C833 C 0.16321 0.19092 0.57726 0.0
C834 C 0.13156 0.19885 0.57786 0.0
H835 H 0.0124 0.28302 0.57019 0.0
H836 H 0.06359 0.26912 0.56799 0.0
H837 H 0.03578 0.15354 0.57959 0.0
H838 H 0.19354 0.13542 0.59033 0.0
H839 H 0.13969 0.14575 0.59048 0.0
C840 C 0.83881 0.79174 0.59041 0.0
C841 C 0.8088 0.76317 0.58385 0.0
C842 C 0.84711 0.82912 0.58948 0.0
C843 C 0.83335 0.89427 0.56991 0.0
H844 H 0.85907 0.95523 0.59897 0.0
C845 C 0.84287 0.03997 0.57136 0.0
C846 C 0.87082 0.06812 0.57865 0.0
C847 C 0.83713 1.00334 0.57145 0.0
C848 C 0.8525 0.93881 0.59073 0.0
H849 H 0.76379 0.75095 0.5712 0.0
H850 H 0.77796 0.81642 0.56966 0.0
H851 H 0.84458 0.89 0.6003 0.0
H852 H 0.91552 0.08059 0.59146 0.0
H853 H 0.90592 0.01668 0.59153 0.0
H854 H 0.84116 0.94313 0.56035 0.0
C855 C 0.79538 0.81001 0.57542 0.0
C856 C 0.8441 0.90135 0.5915 0.0
C857 C 0.78702 0.77253 0.57638 0.0
C858 C 0.89368 0.05933 0.58579 0.0
C859 C 0.88797 0.02268 0.58588 0.0
C860 C 0.8418 0.9318 0.56913 0.0
C861 C 0.82552 0.83875 0.58198 0.0
C862 C 0.83437 0.8786 0.58111 0.0
C863 C 0.85926 0.99409 0.57884 0.0
C864 C 0.85143 0.95452 0.57954 0.0
H865 H 0.85579 0.78518 0.59632 0.0
H866 H 0.87076 0.85056 0.59455 0.0
H867 H 0.8265 0.87768 0.5617 0.0
H868 H 0.82477 0.046 0.5658 0.0
H869 H 0.81452 0.982 0.56602 0.0
C870 C 0.25432 0.06845 0.58854 0.0
C871 C 0.28281 0.06739 0.58182 0.0
C872 C 0.21692 0.0394 0.58753 0.0
C873 C 0.15927 0.93976 0.57817 0.0
H874 H 0.0777 0.96197 0.5782 0.0
C875 C 1.00559 0.8242 0.56972 0.0
C876 C 0.9784 0.82372 0.57754 0.0
C877 C 0.04219 0.85505 0.56955 0.0
C878 C 0.10016 0.95531 0.57827 0.0
H879 H 0.29484 0.03552 0.56873 0.0
H880 H 0.22944 0.98479 0.56686 0.0
H881 H 0.14286 0.01352 0.57923 0.0
H882 H 0.96761 0.85539 0.59107 0.0
H883 H 0.03173 0.90944 0.59082 0.0
H884 H 0.11664 0.8816 0.57724 0.0
C885 C 0.23594 0.00775 0.57304 0.0
C886 C 0.1375 0.98483 0.57887 0.0
C887 C 0.27337 0.0368 0.57408 0.0
C888 C 0.98808 0.85512 0.58494 0.0
C889 C 0.02473 0.88608 0.58476 0.0
C890 C 0.12198 0.9103 0.57753 0.0
C891 C 0.20725 0.00866 0.57978 0.0
C892 C 0.16752 0.9774 0.57887 0.0
C893 C 0.05237 0.88611 0.5772 0.0
C894 C 0.09198 0.9177 0.5776 0.0
H895 H 0.26102 0.0915 0.59471 0.0
H896 H 0.1957 0.04072 0.59301 0.0
H897 H 0.18161 0.93294 0.57836 0.0
H898 H 0.9988 0.80038 0.56389 0.0
H899 H 0.06264 0.85446 0.56348 0.0
C900 C 0.50549 0.98995 0.04881 0.0
C901 C 0.51736 0.02364 0.05527 0.0
C902 C 0.50654 0.99002 0.0362 0.0
C903 C 0.55233 0.04869 0.00985 0.0
H904 H 0.4621 0.97671 0.99273 0.0
C905 C 0.53811 0.05586 0.9582 0.0
C906 C 0.51697 0.02217 0.95169 0.0
C907 C 0.53928 0.05562 0.97081 0.0
C908 C 0.48779 0.99655 0.99733 0.0
H909 H 0.54045 0.08397 0.05353 0.0
H910 H 0.54296 0.08411 0.03139 0.0
H911 H 0.46244 0.97762 0.01475 0.0
H912 H 0.48131 0.96162 0.95333 0.0
H913 H 0.4844 0.96094 0.97536 0.0
H914 H 0.57814 0.06711 0.99252 0.0
C915 C 0.53263 0.05768 0.03617 0.0
C916 C 0.48786 0.99721 0.00996 0.0
C917 C 0.53105 0.05756 0.04882 0.0
C918 C 0.49767 0.98808 0.95808 0.0
C919 C 0.49925 0.98777 0.97073 0.0
C920 C 0.55247 0.04771 0.99721 0.0
C921 C 0.51995 0.0238 0.02975 0.0
C922 C 0.52006 0.02337 0.01634 0.0
C923 C 0.51976 0.02162 0.97727 0.0
C924 C 0.52012 0.02176 0.99076 0.0
H925 H 0.49464 0.96326 0.05347 0.0
H926 H 0.49694 0.96357 0.03148 0.0
H927 H 0.57767 0.06883 0.01456 0.0
H928 H 0.55304 0.08272 0.95359 0.0
H929 H 0.55477 0.08234 0.97548 0.0
C930 C 0.06094 0.51422 0.96114 0.0
C931 C 0.03493 0.51978 0.95447 0.0
C932 C 0.0608 0.51517 0.97378 0.0
C933 C 0.03134 0.54962 0.99992 0.0
H934 H 0.02873 0.46563 0.01697 0.0
C935 C 0.04782 0.54521 0.05186 0.0
C936 C 0.02266 0.51137 0.05773 0.0
C937 C 0.04867 0.54748 0.03925 0.0
C938 C 0.02928 0.48917 0.01232 0.0
H939 H 0.98944 0.53223 0.95582 0.0
H940 H 0.9897 0.5345 0.97786 0.0
H941 H 0.03358 0.46862 0.99492 0.0
H942 H 0.97818 0.45355 0.05495 0.0
H943 H 0.98003 0.45749 0.03289 0.0
H944 H 0.02715 0.57022 0.01734 0.0
C945 C 0.00998 0.52916 0.97331 0.0
C946 C 0.03246 0.49108 0.99972 0.0
C947 C 0.00975 0.52768 0.96069 0.0
C948 C 0.99782 0.48007 0.05071 0.0
C949 C 0.99905 0.48221 0.03809 0.0
C950 C 0.02868 0.54798 0.01253 0.0
C951 C 0.03507 0.52231 0.97999 0.0
C952 C 0.03333 0.52122 0.99339 0.0
C953 C 0.02474 0.51584 0.03223 0.0
C954 C 0.02739 0.51761 0.01885 0.0
H955 H 0.08063 0.50798 0.95661 0.0
H956 H 0.08067 0.51011 0.97872 0.0
H957 H 0.03208 0.57324 0.99526 0.0
H958 H 0.06726 0.56987 0.057 0.0
H959 H 0.06887 0.5737 0.03497 0.0
C960 C 0.54328 0.50939 0.95997 0.0
C961 C 0.53106 0.53127 0.95379 0.0
C962 C 0.54119 0.50673 0.97261 0.0
C963 C 0.53112 0.55564 0.99969 0.0
H964 H 0.51644 0.46611 0.0164 0.0
C965 C 0.50981 0.53699 0.05149 0.0
C966 C 0.53354 0.52668 0.0575 0.0
C967 C 0.50705 0.53533 0.03886 0.0
C968 C 0.52066 0.49133 0.01184 0.0
H969 H 0.50552 0.56619 0.95597 0.0
H970 H 0.5003 0.56028 0.97785 0.0
H971 H 0.51516 0.46683 0.99434 0.0
H972 H 0.572 0.50534 0.05496 0.0
H973 H 0.5665 0.50171 0.03293 0.0
H974 H 0.53581 0.57971 0.01726 0.0
C975 C 0.51288 0.54625 0.97307 0.0
C976 C 0.52016 0.49188 0.99918 0.0
C977 C 0.51557 0.54942 0.96047 0.0
C978 C 0.55355 0.51359 0.05061 0.0
C979 C 0.55028 0.51132 0.038 0.0
C980 C 0.53102 0.55483 0.01233 0.0
C981 C 0.52627 0.52542 0.97937 0.0
C982 C 0.52562 0.52417 0.9929 0.0
C983 C 0.52744 0.52271 0.03198 0.0
C984 C 0.52604 0.52278 0.01855 0.0
H985 H 0.55566 0.49532 0.95509 0.0
H986 H 0.55234 0.49087 0.97707 0.0
H987 H 0.53634 0.58138 0.99528 0.0
H988 H 0.49415 0.54735 0.05651 0.0
H989 H 0.48904 0.54405 0.03446 0.0
C990 C 0.19654 0.39229 0.38412 0.0
C991 C 0.18242 0.35844 0.39065 0.0
C992 C 0.19834 0.39219 0.37148 0.0
C993 C 0.15358 0.33126 0.34533 0.0
H994 H 0.24394 0.40091 0.32787 0.0
C995 C 0.16414 0.32022 0.29358 0.0
C996 C 0.1836 0.35396 0.28701 0.0
C997 C 0.16544 0.32056 0.30623 0.0
C998 C 0.21825 0.38158 0.33256 0.0
H999 H 0.15929 0.29798 0.38897 0.0
H1000 H 0.16203 0.29791 0.36699 0.0
H1001 H 0.24331 0.40305 0.34991 0.0
H1002 H 0.21965 0.41458 0.2886 0.0
H1003 H 0.22091 0.41534 0.31054 0.0
H1004 H 0.12796 0.31038 0.3281 0.0
C1005 C 0.17176 0.32447 0.37165 0.0
C1006 C 0.21801 0.38279 0.3452 0.0
C1007 C 0.17045 0.32461 0.38426 0.0
C1008 C 0.20459 0.38798 0.29336 0.0
C1009 C 0.20548 0.38839 0.30599 0.0
C1010 C 0.15361 0.33036 0.33269 0.0
C1011 C 0.18551 0.35818 0.36512 0.0
C1012 C 0.18572 0.35753 0.35171 0.0
C1013 C 0.18582 0.35472 0.31262 0.0
C1014 C 0.18598 0.35542 0.32612 0.0
H1015 H 0.20601 0.41881 0.38877 0.0
H1016 H 0.20893 0.41857 0.36665 0.0
H1017 H 0.12813 0.31174 0.35011 0.0
H1018 H 0.14792 0.29349 0.28895 0.0
H1019 H 0.15052 0.29395 0.31098 0.0
C1020 C 0.72617 0.87138 0.38516 0.0
C1021 C 0.69174 0.84895 0.39113 0.0
C1022 C 0.72772 0.87329 0.37251 0.0
C1023 C 0.67186 0.82113 0.34535 0.0
H1024 H 0.74391 0.91146 0.32831 0.0
C1025 C 0.6648 0.83786 0.29392 0.0
C1026 C 0.69835 0.84945 0.28742 0.0
C1027 C 0.66513 0.83969 0.30653 0.0
C1028 C 0.72382 0.88599 0.33297 0.0
H1029 H 0.63168 0.81231 0.38853 0.0
H1030 H 0.63402 0.81685 0.3666 0.0
H1031 H 0.74155 0.91172 0.35039 0.0
H1032 H 0.75878 0.87323 0.28913 0.0
H1033 H 0.75935 0.87708 0.31125 0.0
H1034 H 0.65355 0.79583 0.3279 0.0
C1035 C 0.66017 0.83191 0.37159 0.0
C1036 C 0.7225 0.88603 0.34564 0.0
C1037 C 0.65873 0.82953 0.3842 0.0
C1038 C 0.73244 0.86396 0.29385 0.0
C1039 C 0.73281 0.86633 0.3065 0.0
C1040 C 0.67283 0.82132 0.33273 0.0
C1041 C 0.69477 0.85322 0.36553 0.0
C1042 C 0.69641 0.85358 0.35202 0.0
C1043 C 0.69905 0.85364 0.31297 0.0
C1044 C 0.69874 0.85373 0.3264 0.0
H1045 H 0.75217 0.88645 0.39023 0.0
H1046 H 0.75496 0.88964 0.36823 0.0
H1047 H 0.65206 0.79526 0.34987 0.0
H1048 H 0.638 0.82646 0.28929 0.0
H1049 H 0.63874 0.83007 0.31127 0.0
C1050 C 0.18792 0.88438 0.29185 0.0
C1051 C 0.20246 0.86484 0.28545 0.0
C1052 C 0.18621 0.88301 0.30449 0.0
C1053 C 0.19282 0.83001 0.33103 0.0
H1054 H 0.21291 0.92035 0.34845 0.0
C1055 C 0.22355 0.85199 0.38267 0.0
C1056 C 0.20341 0.86592 0.38905 0.0
C1057 C 0.22219 0.85022 0.37002 0.0
C1058 C 0.20703 0.89485 0.34369 0.0
H1059 H 0.22668 0.82858 0.28734 0.0
H1060 H 0.22486 0.82719 0.30925 0.0
H1061 H 0.21254 0.92045 0.32643 0.0
H1062 H 0.16597 0.88881 0.38714 0.0
H1063 H 0.16415 0.88619 0.36515 0.0
H1064 H 0.18849 0.80497 0.34842 0.0
C1065 C 0.21371 0.84272 0.30458 0.0
C1066 C 0.20657 0.89477 0.33106 0.0
C1067 C 0.21494 0.84368 0.29196 0.0
C1068 C 0.18175 0.87779 0.38253 0.0
C1069 C 0.18086 0.87655 0.36992 0.0
C1070 C 0.19382 0.8303 0.34367 0.0
C1071 C 0.19948 0.86248 0.31104 0.0
C1072 C 0.19935 0.86232 0.32454 0.0
C1073 C 0.20117 0.86293 0.36353 0.0
C1074 C 0.20079 0.86267 0.35012 0.0
H1075 H 0.17786 0.90074 0.2871 0.0
H1076 H 0.17438 0.89801 0.30912 0.0
H1077 H 0.1865 0.80426 0.32637 0.0
H1078 H 0.24044 0.84257 0.38743 0.0
H1079 H 0.23824 0.83973 0.36529 0.0
C1080 C 0.84036 0.65874 0.71772 0.0
C1081 C 0.85213 0.69277 0.72397 0.0
C1082 C 0.84176 0.65816 0.70511 0.0
C1083 C 0.88749 0.71569 0.67844 0.0
H1084 H 0.7969 0.64312 0.6616 0.0
C1085 C 0.87175 0.72153 0.62676 0.0
C1086 C 0.85027 0.6877 0.62035 0.0
C1087 C 0.87341 0.72161 0.63937 0.0
C1088 C 0.82271 0.66312 0.66612 0.0
H1089 H 0.87566 0.75306 0.72185 0.0
H1090 H 0.87876 0.75205 0.69974 0.0
H1091 H 0.7978 0.64464 0.68362 0.0
H1092 H 0.81458 0.6272 0.62218 0.0
H1093 H 0.81852 0.62708 0.64419 0.0
H1094 H 0.91283 0.73373 0.66102 0.0
C1095 C 0.86823 0.72585 0.70467 0.0
C1096 C 0.8231 0.6641 0.67875 0.0
C1097 C 0.86632 0.72638 0.71731 0.0
C1098 C 0.83117 0.65378 0.62685 0.0
C1099 C 0.83324 0.65379 0.63949 0.0
C1100 C 0.88731 0.71438 0.66579 0.0
C1101 C 0.85544 0.69163 0.69845 0.0
C1102 C 0.85541 0.69051 0.68504 0.0
C1103 C 0.85405 0.68779 0.64594 0.0
C1104 C 0.85482 0.68823 0.65944 0.0
H1105 H 0.82916 0.63227 0.72254 0.0
H1106 H 0.83207 0.63144 0.70056 0.0
H1107 H 0.91291 0.73605 0.68306 0.0
H1108 H 0.88654 0.74826 0.62206 0.0
H1109 H 0.88913 0.74844 0.64396 0.0
C1110 C 0.33665 0.19218 0.62509 0.0
C1111 C 0.36171 0.1835 0.61915 0.0
C1112 C 0.33596 0.19357 0.63772 0.0
C1113 C 0.35601 0.15486 0.6646 0.0
H1114 H 0.35291 0.23591 0.68173 0.0
C1115 C 0.32385 0.14755 0.71574 0.0
C1116 C 0.34935 0.17917 0.72252 0.0
C1117 C 0.32436 0.14885 0.7031 0.0
C1118 C 0.35377 0.21311 0.67706 0.0
H1119 H 0.40613 0.17008 0.62182 0.0
H1120 H 0.40457 0.1721 0.64389 0.0
H1121 H 0.35758 0.23777 0.65965 0.0
H1122 H 0.39441 0.23738 0.72133 0.0
H1123 H 0.39479 0.23975 0.69928 0.0
H1124 H 0.35204 0.1301 0.68198 0.0
C1125 C 0.38549 0.17782 0.63874 0.0
C1126 C 0.35626 0.21408 0.66444 0.0
C1127 C 0.38655 0.17693 0.62611 0.0
C1128 C 0.37445 0.21249 0.71638 0.0
C1129 C 0.3746 0.21393 0.70376 0.0
C1130 C 0.353 0.15362 0.6772 0.0
C1131 C 0.35997 0.18583 0.64468 0.0
C1132 C 0.35759 0.18505 0.65808 0.0
C1133 C 0.34999 0.18195 0.69698 0.0
C1134 C 0.35199 0.1828 0.68357 0.0
H1135 H 0.3172 0.19748 0.62001 0.0
H1136 H 0.31586 0.19962 0.64205 0.0
H1137 H 0.35662 0.13191 0.65993 0.0
H1138 H 0.30422 0.12142 0.72018 0.0
H1139 H 0.30483 0.12389 0.6981 0.0
C1140 C 0.85172 0.2191 0.62722 0.0
C1141 C 0.86631 0.19963 0.62081 0.0
C1142 C 0.84996 0.21766 0.63987 0.0
C1143 C 0.85649 0.16452 0.6664 0.0
H1144 H 0.87585 0.2545 0.6839 0.0
C1145 C 0.88684 0.18579 0.71807 0.0
C1146 C 0.86702 0.19996 0.72452 0.0
C1147 C 0.88534 0.18411 0.70541 0.0
C1148 C 0.87014 0.22908 0.67913 0.0
H1149 H 0.89058 0.16343 0.62268 0.0
H1150 H 0.88868 0.16191 0.6446 0.0
H1151 H 0.87573 0.25482 0.66188 0.0
H1152 H 0.82997 0.22333 0.72271 0.0
H1153 H 0.82788 0.22081 0.7007 0.0
H1154 H 0.85209 0.13935 0.68377 0.0
C1155 C 0.87753 0.17745 0.63994 0.0
C1156 C 0.86984 0.22914 0.66649 0.0
C1157 C 0.87882 0.17849 0.62731 0.0
C1158 C 0.8455 0.21212 0.71805 0.0
C1159 C 0.84446 0.21095 0.70543 0.0
C1160 C 0.85732 0.16468 0.67905 0.0
C1161 C 0.86322 0.19713 0.64642 0.0
C1162 C 0.86293 0.19683 0.65993 0.0
C1163 C 0.86449 0.1971 0.69897 0.0
C1164 C 0.86403 0.19692 0.68554 0.0
H1165 H 0.84162 0.23545 0.62248 0.0
H1166 H 0.83806 0.2326 0.64449 0.0
H1167 H 0.85039 0.13887 0.66172 0.0
H1168 H 0.90363 0.17615 0.72278 0.0
H1169 H 0.9012 0.17345 0.70065 0.0
C1170 C 0.27667 0.87668 0.20685 0.0
C1171 C 0.26509 0.90041 0.2122 0.0
C1172 C 0.29909 0.88793 0.19645 0.0
C1173 C 0.36689 0.97344 0.17997 0.0
H1174 H 0.35119 0.90367 0.15394 0.0
C1175 C 0.44858 0.02092 0.13469 0.0
C1176 C 0.45824 0.99629 0.12893 0.0
C1177 C 0.42612 0.00967 0.14509 0.0
C1178 C 0.35635 0.92341 0.16121 0.0
H1179 H 0.2673 0.95427 0.21051 0.0
H1180 H 0.30615 0.97367 0.19233 0.0
H1181 H 0.30828 0.88263 0.17115 0.0
H1182 H 0.45289 0.9409 0.12995 0.0
H1183 H 0.41451 0.92169 0.14818 0.0
H1184 H 0.41512 0.01415 0.1701 0.0
C1185 C 0.2982 0.94652 0.19629 0.0
C1186 C 0.33162 0.91135 0.17106 0.0
C1187 C 0.27561 0.9352 0.20666 0.0
C1188 C 0.44599 0.96064 0.1341 0.0
C1189 C 0.42361 0.94944 0.14451 0.0
C1190 C 0.39172 0.98547 0.17015 0.0
C1191 C 0.31066 0.92326 0.19116 0.0
C1192 C 0.33656 0.93622 0.18056 0.0
C1193 C 0.41279 0.97354 0.15002 0.0
C1194 C 0.38679 0.96062 0.16063 0.0
H1195 H 0.26925 0.84973 0.21087 0.0
H1196 H 0.30841 0.86943 0.1928 0.0
H1197 H 0.3719 0.99315 0.18724 0.0
H1198 H 0.45728 0.04851 0.13095 0.0
H1199 H 0.4181 0.02888 0.149 0.0
C1200 C 0.08592 0.49763 0.13621 0.0
C1201 C 0.05057 0.47401 0.13088 0.0
C1202 C 0.09712 0.48622 0.14656 0.0
C1203 C 0.07915 0.40037 0.16289 0.0
H1204 H 0.13449 0.47 0.18882 0.0
C1205 C 0.11453 0.35285 0.20798 0.0
C1206 C 0.14924 0.37734 0.21353 0.0
C1207 C 0.103 0.36406 0.19764 0.0
C1208 C 0.11954 0.4503 0.18158 0.0
H1209 H 0.9988 0.42024 0.13257 0.0
H1210 H 0.01826 0.40059 0.15069 0.0
H1211 H 0.11227 0.49129 0.17178 0.0
H1212 H 0.1997 0.43234 0.21221 0.0
H1213 H 0.17993 0.45145 0.19409 0.0
H1214 H 0.08659 0.35943 0.17264 0.0
C1215 C 0.03751 0.42775 0.14674 0.0
C1216 C 0.10667 0.4625 0.17183 0.0
C1217 C 0.02623 0.4392 0.13641 0.0
C1218 C 0.17273 0.41273 0.20822 0.0
C1219 C 0.16123 0.42388 0.19788 0.0
C1220 C 0.0921 0.38818 0.17263 0.0
C1221 C 0.07332 0.45086 0.15183 0.0
C1222 C 0.08632 0.4377 0.16236 0.0
C1223 C 0.1259 0.39999 0.19259 0.0
C1224 C 0.11251 0.413 0.1821 0.0
H1225 H 0.10549 0.52457 0.1322 0.0
H1226 H 0.12501 0.50461 0.15019 0.0
H1227 H 0.06411 0.3807 0.15565 0.0
H1228 H 0.09558 0.32546 0.21183 0.0
H1229 H 0.07548 0.34502 0.19388 0.0
C1230 C 0.63495 0.76768 0.20959 0.0
C1231 C 0.67151 0.78294 0.21438 0.0
C1232 C 0.62422 0.74472 0.19931 0.0
C1233 C 0.64915 0.6834 0.18168 0.0
H1234 H 0.5833 0.68874 0.15759 0.0
C1235 C 0.61266 0.60174 0.13608 0.0
C1236 C 0.57597 0.58752 0.1315 0.0
C1237 C 0.62428 0.62415 0.14651 0.0
C1238 C 0.60129 0.6865 0.16431 0.0
H1239 H 0.72576 0.78663 0.21183 0.0
H1240 H 0.70719 0.74709 0.19378 0.0
H1241 H 0.60458 0.73229 0.17461 0.0
H1242 H 0.52215 0.58419 0.13476 0.0
H1243 H 0.5422 0.62262 0.15298 0.0
H1244 H 0.64586 0.63759 0.17133 0.0
C1245 C 0.68661 0.75242 0.19812 0.0
C1246 C 0.61358 0.71158 0.17408 0.0
C1247 C 0.69737 0.77542 0.20841 0.0
C1248 C 0.5507 0.59482 0.13795 0.0
C1249 C 0.56231 0.61719 0.14836 0.0
C1250 C 0.63687 0.6583 0.17189 0.0
C1251 C 0.64974 0.73636 0.19352 0.0
C1252 C 0.63757 0.71031 0.18292 0.0
C1253 C 0.59948 0.63288 0.15263 0.0
C1254 C 0.61262 0.6594 0.16311 0.0
H1255 H 0.61412 0.77255 0.21397 0.0
H1256 H 0.59547 0.73254 0.19613 0.0
H1257 H 0.66713 0.6812 0.18841 0.0
H1258 H 0.63294 0.59679 0.13135 0.0
H1259 H 0.65316 0.63587 0.14951 0.0
C1260 C 0.96074 0.43892 0.87702 0.0
C1261 C 0.99727 0.45278 0.88168 0.0
C1262 C 0.94906 0.41631 0.86663 0.0
C1263 C 0.98502 0.38701 0.84024 0.0
H1264 H 0.88343 0.30134 0.83958 0.0
C1265 C 0.93655 0.27155 0.80353 0.0
C1266 C 0.90138 0.2601 0.79812 0.0
C1267 C 0.94759 0.29396 0.81395 0.0
C1268 C 0.91179 0.3253 0.83958 0.0
H1269 H 0.05034 0.45411 0.87887 0.0
H1270 H 0.02989 0.4145 0.86094 0.0
H1271 H 0.90427 0.34393 0.8569 0.0
H1272 H 0.84976 0.26237 0.79974 0.0
H1273 H 0.86897 0.30118 0.81793 0.0
H1274 H 0.9926 0.36808 0.82296 0.0
C1275 C 0.01036 0.42149 0.86517 0.0
C1276 C 0.92374 0.34986 0.8495 0.0
C1277 C 0.02208 0.44419 0.87552 0.0
C1278 C 0.87701 0.27053 0.80366 0.0
C1279 C 0.88798 0.29275 0.81412 0.0
C1280 C 0.97314 0.36233 0.83036 0.0
C1281 C 0.97354 0.40684 0.86066 0.0
C1282 C 0.96054 0.38108 0.84997 0.0
C1283 C 0.92368 0.30532 0.81927 0.0
C1284 C 0.93639 0.33115 0.82991 0.0
H1285 H 0.94083 0.44492 0.8815 0.0
H1286 H 0.92073 0.40613 0.86331 0.0
H1287 H 0.01333 0.41103 0.84016 0.0
H1288 H 0.95612 0.26417 0.79953 0.0
H1289 H 0.97506 0.30269 0.8178 0.0
C1290 C 0.60336 0.61093 0.87506 0.0
C1291 C 0.59019 0.57443 0.87965 0.0
C1292 C 0.62486 0.62268 0.86445 0.0
C1293 C 0.65214 0.5876 0.83745 0.0
H1294 H 0.74122 0.68702 0.83779 0.0
C1295 C 0.76874 0.63241 0.80157 0.0
C1296 C 0.78367 0.6687 0.79659 0.0
C1297 C 0.74537 0.62188 0.81174 0.0
C1298 C 0.71626 0.65934 0.83749 0.0
H1299 H 0.58811 0.52117 0.87633 0.0
H1300 H 0.62556 0.54166 0.85796 0.0
H1301 H 0.69791 0.66649 0.85491 0.0
H1302 H 0.7865 0.72274 0.7987 0.0
H1303 H 0.74575 0.7043 0.81643 0.0
H1304 H 0.67065 0.58031 0.82008 0.0
C1305 C 0.61912 0.56121 0.86249 0.0
C1306 C 0.69133 0.64758 0.84729 0.0
C1307 C 0.59768 0.54948 0.87309 0.0
C1308 C 0.77564 0.69459 0.80229 0.0
C1309 C 0.75229 0.68405 0.81249 0.0
C1310 C 0.67707 0.59932 0.82766 0.0
C1311 C 0.63363 0.59819 0.85816 0.0
C1312 C 0.65907 0.61145 0.84743 0.0
C1313 C 0.73632 0.64734 0.81721 0.0
C1314 C 0.7096 0.63523 0.82759 0.0
H1315 H 0.59809 0.63091 0.87985 0.0
H1316 H 0.63502 0.65115 0.86126 0.0
H1317 H 0.62729 0.55983 0.83715 0.0
H1318 H 0.7743 0.61168 0.79747 0.0
H1319 H 0.73414 0.59361 0.81527 0.0
C1320 C 0.41871 0.16966 0.80047 0.0
C1321 C 0.38271 0.1464 0.79551 0.0
C1322 C 0.43026 0.1586 0.81083 0.0
C1323 C 0.39465 0.09158 0.83669 0.0
H1324 H 0.49727 0.11045 0.83754 0.0
C1325 C 0.44517 0.02611 0.87322 0.0
C1326 C 0.48002 0.05047 0.87871 0.0
C1327 C 0.43376 0.03724 0.86284 0.0
C1328 C 0.46861 0.10523 0.83749 0.0
H1329 H 0.33035 0.09351 0.79779 0.0
H1330 H 0.35062 0.07412 0.81571 0.0
H1331 H 0.476 0.13195 0.82029 0.0
H1332 H 0.53068 0.10528 0.87732 0.0
H1333 H 0.51082 0.12451 0.85922 0.0
H1334 H 0.38724 0.06456 0.85385 0.0
C1335 C 0.36981 0.10118 0.8117 0.0
C1336 C 0.45643 0.11768 0.82762 0.0
C1337 C 0.3582 0.1123 0.80137 0.0
C1338 C 0.50369 0.08572 0.87333 0.0
C1339 C 0.49235 0.09675 0.86292 0.0
C1340 C 0.40679 0.07898 0.84653 0.0
C1341 C 0.40619 0.12393 0.81648 0.0
C1342 C 0.41928 0.11108 0.82709 0.0
C1343 C 0.45698 0.0729 0.85767 0.0
C1344 C 0.44393 0.08567 0.84706 0.0
H1345 H 0.43836 0.19616 0.79623 0.0
H1346 H 0.45822 0.17719 0.81437 0.0
H1347 H 0.36604 0.08648 0.8367 0.0
H1348 H 0.42616 0.99878 0.8771 0.0
H1349 H 0.40657 0.01799 0.85891 0.0
C1350 C 0.93891 0.21202 0.54195 0.0
C1351 C 0.9265 0.23512 0.54726 0.0
C1352 C 0.96117 0.22358 0.53151 0.0
C1353 C 0.02692 0.30955 0.51475 0.0
H1354 H 0.01341 0.23946 0.48907 0.0
C1355 C 0.1086 0.35693 0.46939 0.0
C1356 C 0.11944 0.3328 0.46392 0.0
C1357 C 0.08597 0.34566 0.47976 0.0
C1358 C 0.01795 0.25932 0.49623 0.0
H1359 H 0.92704 0.28815 0.54547 0.0
H1360 H 0.96553 0.30805 0.52722 0.0
H1361 H 0.9706 0.21794 0.50629 0.0
H1362 H 0.11609 0.27837 0.46543 0.0
H1363 H 0.07741 0.25915 0.48359 0.0
H1364 H 0.07442 0.35088 0.50474 0.0
C1365 C 0.9584 0.28118 0.53123 0.0
C1366 C 0.99328 0.24697 0.5061 0.0
C1367 C 0.936 0.26957 0.54165 0.0
C1368 C 0.1082 0.29769 0.46934 0.0
C1369 C 0.08567 0.28647 0.47971 0.0
C1370 C 0.05167 0.32189 0.5049 0.0
C1371 C 0.97173 0.25858 0.52614 0.0
C1372 C 0.99745 0.27191 0.51549 0.0
C1373 C 0.07367 0.31 0.48494 0.0
C1374 C 0.04757 0.29692 0.49551 0.0
H1375 H 0.93233 0.18539 0.54602 0.0
H1376 H 0.97119 0.2056 0.52789 0.0
H1377 H 0.03134 0.32936 0.52192 0.0
H1378 H 0.11651 0.38409 0.46544 0.0
H1379 H 0.07705 0.36442 0.48346 0.0
C1380 C 0.73928 0.83276 0.47185 0.0
C1381 C 0.70676 0.80771 0.46534 0.0
C1382 C 0.74944 0.82105 0.48236 0.0
C1383 C 0.73674 0.73476 0.49717 0.0
H1384 H 0.78319 0.80127 0.52455 0.0
C1385 C 0.77527 0.68672 0.54168 0.0
C1386 C 0.80892 0.71268 0.5475 0.0
C1387 C 0.76233 0.69749 0.53157 0.0
C1388 C 0.77068 0.78248 0.51692 0.0
H1389 H 0.65846 0.75104 0.46518 0.0
H1390 H 0.67596 0.73081 0.4836 0.0
H1391 H 0.7596 0.82187 0.5077 0.0
H1392 H 0.85594 0.77009 0.54694 0.0
H1393 H 0.83366 0.78856 0.52927 0.0
H1394 H 0.74801 0.69544 0.50637 0.0
C1395 C 0.69397 0.75937 0.48043 0.0
C1396 C 0.75704 0.79427 0.50726 0.0
C1397 C 0.68375 0.77112 0.46992 0.0
C1398 C 0.8299 0.74928 0.54272 0.0
C1399 C 0.81693 0.76004 0.53264 0.0
C1400 C 0.75038 0.72295 0.50683 0.0
C1401 C 0.72736 0.78396 0.48665 0.0
C1402 C 0.7401 0.77067 0.49723 0.0
C1403 C 0.78265 0.73449 0.52706 0.0
C1404 C 0.76776 0.74677 0.51679 0.0
H1405 H 0.75774 0.86115 0.46862 0.0
H1406 H 0.77549 0.84069 0.48684 0.0
H1407 H 0.72443 0.71607 0.4895 0.0
H1408 H 0.75826 0.65833 0.54512 0.0
H1409 H 0.7357 0.67714 0.52755 0.0
C1410 C 0.26967 0.93574 0.46843 0.0
C1411 C 0.23547 0.92623 0.46265 0.0
C1412 C 0.28105 0.95845 0.47879 0.0
C1413 C 0.26529 0.02901 0.49476 0.0
H1414 H 0.31906 0.0133 0.52086 0.0
C1415 C 0.2992 0.10971 0.54031 0.0
C1416 C 0.33437 0.12087 0.54569 0.0
C1417 C 0.2878 0.08716 0.52993 0.0
C1418 C 0.30448 0.01836 0.51358 0.0
H1419 H 0.18578 0.93216 0.46357 0.0
H1420 H 0.20522 0.97096 0.48173 0.0
H1421 H 0.29652 0.96981 0.50379 0.0
H1422 H 0.38557 0.11784 0.54405 0.0
H1423 H 0.36577 0.07884 0.52589 0.0
H1424 H 0.27304 0.07742 0.50463 0.0
C1425 C 0.22367 0.96154 0.47811 0.0
C1426 C 0.29149 0.99337 0.50378 0.0
C1427 C 0.21233 0.93892 0.46774 0.0
C1428 C 0.35831 0.10986 0.54018 0.0
C1429 C 0.34682 0.08717 0.52982 0.0
C1430 C 0.27815 0.05391 0.50458 0.0
C1431 C 0.25849 0.97217 0.48366 0.0
C1432 C 0.27173 0.99835 0.49423 0.0
C1433 C 0.31118 0.07506 0.52467 0.0
C1434 C 0.29796 0.04894 0.51411 0.0
H1435 H 0.28838 0.92673 0.46475 0.0
H1436 H 0.30819 0.9663 0.48272 0.0
H1437 H 0.25083 0.03421 0.48748 0.0
H1438 H 0.27991 0.11748 0.54431 0.0
H1439 H 0.26006 0.07814 0.52626 0.0
C1440 C 0.55074 0.44166 0.09223 0.0
C1441 C 0.52842 0.44633 0.10092 0.0
C1442 C 0.551 0.40772 0.09148 0.0
C1443 C 0.49153 0.30721 0.09907 0.0
H1444 H 0.5812 0.30179 0.0917 0.0
C1445 C 0.54142 0.18915 0.09802 0.0
C1446 C 0.51024 0.15964 0.09215 0.0
C1447 C 0.54526 0.22496 0.09874 0.0
C1448 C 0.55594 0.30284 0.09382 0.0
H1449 H 0.49034 0.42014 0.11599 0.0
H1450 H 0.49114 0.36107 0.1148 0.0
H1451 H 0.58601 0.36321 0.09446 0.0
H1452 H 0.45911 0.14437 0.08217 0.0
H1453 H 0.46594 0.20708 0.0833 0.0
H1454 H 0.46154 0.24696 0.09867 0.0
C1455 C 0.50784 0.38324 0.10841 0.0
C1456 C 0.55865 0.33803 0.0953 0.0
C1457 C 0.50758 0.41713 0.10915 0.0
C1458 C 0.48334 0.16665 0.08679 0.0
C1459 C 0.48716 0.20247 0.08751 0.0
C1460 C 0.48882 0.27209 0.09759 0.0
C1461 C 0.52893 0.37783 0.09941 0.0
C1462 C 0.52647 0.3406 0.09797 0.0
C1463 C 0.51796 0.23195 0.09361 0.0
C1464 C 0.52097 0.26946 0.09495 0.0
H1465 H 0.56705 0.46376 0.08576 0.0
H1466 H 0.56737 0.4044 0.0844 0.0
H1467 H 0.46609 0.30817 0.10094 0.0
H1468 H 0.56257 0.18442 0.10223 0.0
H1469 H 0.5691 0.24689 0.10361 0.0
C1470 C 0.63266 0.09687 0.08564 0.0
C1471 C 0.60325 0.08976 0.09364 0.0
C1472 C 0.6655 0.13203 0.08542 0.0
C1473 C 0.72197 0.21738 0.10394 0.0
H1474 H 0.77365 0.25804 0.07354 0.0
C1475 C 0.85834 0.36317 0.10028 0.0
C1476 C 0.88737 0.36437 0.0932 0.0
C1477 C 0.82232 0.33122 0.1002 0.0
C1478 C 0.75968 0.24695 0.08211 0.0
H1479 H 0.58536 0.11362 0.10786 0.0
H1480 H 0.64246 0.17579 0.10726 0.0
H1481 H 0.71264 0.20022 0.07361 0.0
H1482 H 0.90154 0.33343 0.08038 0.0
H1483 H 0.83861 0.27763 0.08017 0.0
H1484 H 0.7692 0.26429 0.11242 0.0
C1485 C 0.64022 0.15402 0.10119 0.0
C1486 C 0.7247 0.21375 0.08217 0.0
C1487 C 0.60728 0.11861 0.10143 0.0
C1488 C 0.87965 0.33326 0.08591 0.0
C1489 C 0.84357 0.30142 0.08576 0.0
C1490 C 0.75691 0.25076 0.10388 0.0
C1491 C 0.66982 0.16113 0.09318 0.0
C1492 C 0.70562 0.19816 0.0931 0.0
C1493 C 0.81451 0.29994 0.09294 0.0
C1494 C 0.77642 0.26564 0.09298 0.0
H1495 H 0.63042 0.07507 0.07957 0.0
H1496 H 0.68787 0.13609 0.07931 0.0
H1497 H 0.70839 0.20602 0.11254 0.0
H1498 H 0.86353 0.38684 0.10597 0.0
H1499 H 0.80048 0.33113 0.10574 0.0
C1500 C 0.68733 0.51677 0.1024 0.0
C1501 C 0.68723 0.545 0.09522 0.0
C1502 C 0.7188 0.51194 0.10259 0.0
C1503 C 0.80239 0.53114 0.08469 0.0
H1504 H 0.84179 0.51808 0.11505 0.0
C1505 C 0.95083 0.55109 0.08838 0.0
C1506 C 0.95729 0.52791 0.09617 0.0
C1507 C 0.91591 0.54921 0.08813 0.0
C1508 C 0.83079 0.52102 0.10647 0.0
H1509 H 0.71981 0.59037 0.08266 0.0
H1510 H 0.77481 0.58198 0.08296 0.0
H1511 H 0.7848 0.52301 0.11497 0.0
H1512 H 0.93245 0.4848 0.10996 0.0
H1513 H 0.87065 0.48071 0.10936 0.0
H1514 H 0.84822 0.52926 0.07615 0.0
C1515 C 0.75051 0.56339 0.08838 0.0
C1516 C 0.79819 0.52398 0.10644 0.0
C1517 C 0.71915 0.56837 0.08826 0.0
C1518 C 0.92797 0.50249 0.1037 0.0
C1519 C 0.8928 0.50054 0.10346 0.0
C1520 C 0.83478 0.52798 0.08471 0.0
C1521 C 0.75067 0.53505 0.09553 0.0
C1522 C 0.78401 0.52972 0.09556 0.0
C1523 C 0.88642 0.52403 0.09568 0.0
C1524 C 0.84984 0.52359 0.09562 0.0
H1525 H 0.663 0.49828 0.10783 0.0
H1526 H 0.71793 0.48969 0.10811 0.0
H1527 H 0.79172 0.53474 0.07613 0.0
H1528 H 0.97298 0.57109 0.0825 0.0
H1529 H 0.91238 0.56824 0.0822 0.0
C1530 C 0.42416 0.50784 0.90106 0.0
C1531 C 0.45239 0.52786 0.90966 0.0
C1532 C 0.39046 0.50851 0.9014 0.0
C1533 C 0.3444 0.55904 0.91391 0.0
H1534 H 0.25365 0.46169 0.91037 0.0
C1535 C 0.17345 0.48355 0.92227 0.0
C1536 C 0.16594 0.50971 0.91661 0.0
C1537 C 0.20932 0.4876 0.92156 0.0
C1538 C 0.27871 0.48904 0.91146 0.0
H1539 H 0.46844 0.56556 0.92505 0.0
H1540 H 0.4094 0.56668 0.92569 0.0
H1541 H 0.31502 0.4664 0.90847 0.0
H1542 H 0.18987 0.56101 0.906 0.0
H1543 H 0.2526 0.56802 0.90468 0.0
H1544 H 0.30786 0.58149 0.91712 0.0
C1545 C 0.41334 0.55061 0.91864 0.0
C1546 C 0.31388 0.49183 0.91022 0.0
C1547 C 0.44707 0.54989 0.9183 0.0
C1548 C 0.19501 0.54042 0.91043 0.0
C1549 C 0.23092 0.54454 0.90974 0.0
C1550 C 0.30913 0.55626 0.91512 0.0
C1551 C 0.38435 0.52924 0.91035 0.0
C1552 C 0.34712 0.52683 0.91142 0.0
C1553 C 0.23836 0.51795 0.91519 0.0
C1554 C 0.27591 0.52118 0.91395 0.0
H1555 H 0.4277 0.49086 0.89424 0.0
H1556 H 0.36893 0.49233 0.89475 0.0
H1557 H 0.36953 0.58642 0.91483 0.0
H1558 H 0.15151 0.45972 0.92713 0.0
H1559 H 0.21433 0.46696 0.926 0.0
C1560 C 0.51005 0.92757 0.90606 0.0
C1561 C 0.53578 0.95747 0.91336 0.0
C1562 C 0.50818 0.89245 0.90654 0.0
C1563 C 0.53641 0.83585 0.92568 0.0
H1564 H 0.52949 0.78319 0.89581 0.0
C1565 C 0.5746 0.71832 0.923 0.0
C1566 C 0.55077 0.68613 0.9162 0.0
C1567 C 0.57012 0.75 0.92268 0.0
C1568 C 0.53102 0.79734 0.90425 0.0
H1569 H 0.57969 0.97428 0.92683 0.0
H1570 H 0.57699 0.91374 0.92754 0.0
H1571 H 0.52507 0.84046 0.89531 0.0
H1572 H 0.50372 0.66168 0.90372 0.0
H1573 H 0.49596 0.71709 0.90311 0.0
H1574 H 0.54313 0.7932 0.93458 0.0
C1575 C 0.55764 0.9168 0.92162 0.0
C1576 C 0.52836 0.83011 0.90396 0.0
C1577 C 0.55944 0.95167 0.92114 0.0
C1578 C 0.52256 0.68622 0.90902 0.0
C1579 C 0.51821 0.71798 0.90864 0.0
C1580 C 0.53926 0.80326 0.92595 0.0
C1581 C 0.53208 0.8867 0.91432 0.0
C1582 C 0.53158 0.85008 0.91467 0.0
C1583 C 0.54183 0.75018 0.91551 0.0
C1584 C 0.53708 0.78388 0.91523 0.0
H1585 H 0.49199 0.93153 0.89982 0.0
H1586 H 0.48805 0.86983 0.90083 0.0
H1587 H 0.53822 0.85003 0.93413 0.0
H1588 H 0.5966 0.71899 0.9286 0.0
H1589 H 0.58908 0.77454 0.92795 0.0
C1590 C 0.36956 0.85727 0.90862 0.0
C1591 C 0.37095 0.8863 0.91577 0.0
C1592 C 0.33695 0.82172 0.90832 0.0
C1593 C 0.23457 0.77576 0.91429 0.0
H1594 H 0.23813 0.6829 0.9138 0.0
C1595 C 0.10242 0.6332 0.92259 0.0
C1596 C 0.09551 0.60303 0.91496 0.0
C1597 C 0.13709 0.6665 0.92238 0.0
C1598 C 0.23675 0.70862 0.9138 0.0
H1599 H 0.33996 0.90083 0.92844 0.0
H1600 H 0.28329 0.83878 0.92809 0.0
H1601 H 0.29691 0.74362 0.91426 0.0
H1602 H 0.11935 0.58397 0.90107 0.0
H1603 H 0.18076 0.64244 0.90082 0.0
H1604 H 0.17461 0.741 0.91394 0.0
C1605 C 0.307 0.84351 0.92252 0.0
C1606 C 0.27038 0.7434 0.91406 0.0
C1607 C 0.33954 0.879 0.92279 0.0
C1608 C 0.12426 0.60653 0.90723 0.0
C1609 C 0.15926 0.64002 0.90705 0.0
C1610 C 0.20111 0.74114 0.91406 0.0
C1611 C 0.3051 0.81454 0.91516 0.0
C1612 C 0.26965 0.77739 0.91447 0.0
C1613 C 0.16578 0.67058 0.91451 0.0
C1614 C 0.20174 0.70715 0.91398 0.0
H1615 H 0.39346 0.8622 0.90311 0.0
H1616 H 0.33638 0.8002 0.90249 0.0
H1617 H 0.23291 0.80132 0.91427 0.0
H1618 H 0.08084 0.6312 0.92871 0.0
H1619 H 0.14141 0.68919 0.9284 0.0
C1620 C 0.1611 0.7511 0.41935 0.0
C1621 C 0.18341 0.78044 0.42738 0.0
C1622 C 0.16338 0.71823 0.41907 0.0
C1623 C 0.1921 0.66142 0.43744 0.0
H1624 H 0.18146 0.61038 0.40691 0.0
C1625 C 0.20158 0.5251 0.4335 0.0
C1626 C 0.17405 0.49625 0.42627 0.0
C1627 C 0.2056 0.56111 0.43351 0.0
C1628 C 0.18421 0.62414 0.41552 0.0
H1629 H 0.22512 0.79815 0.44161 0.0
H1630 H 0.23007 0.74098 0.44091 0.0
H1631 H 0.18453 0.67132 0.40714 0.0
H1632 H 0.1294 0.4824 0.41331 0.0
H1633 H 0.13642 0.54528 0.41327 0.0
H1634 H 0.19173 0.61404 0.4458 0.0
C1635 C 0.21058 0.74331 0.43485 0.0
C1636 C 0.18595 0.65911 0.41566 0.0
C1637 C 0.20817 0.77629 0.43515 0.0
C1638 C 0.15091 0.50415 0.41894 0.0
C1639 C 0.15508 0.54022 0.41889 0.0
C1640 C 0.19057 0.62648 0.43729 0.0
C1641 C 0.1881 0.71379 0.42681 0.0
C1642 C 0.18932 0.67798 0.42664 0.0
C1643 C 0.18236 0.5691 0.42621 0.0
C1644 C 0.18607 0.60718 0.42634 0.0
H1645 H 0.14158 0.75342 0.4133 0.0
H1646 H 0.14507 0.69593 0.41292 0.0
H1647 H 0.19423 0.67483 0.44607 0.0
H1648 H 0.21986 0.51978 0.43922 0.0
H1649 H 0.22712 0.58279 0.43915 0.0
C1650 C 0.54815 0.66242 0.42253 0.0
C1651 C 0.55535 0.69508 0.42883 0.0
C1652 C 0.51249 0.63012 0.42298 0.0
C1653 C 0.41216 0.59706 0.43021 0.0
H1654 H 0.40584 0.49949 0.43144 0.0
C1655 C 0.27179 0.45406 0.43681 0.0
C1656 C 0.26757 0.42454 0.4293 0.0
C1657 C 0.30604 0.48834 0.43707 0.0
C1658 C 0.40711 0.52652 0.43102 0.0
H1659 H 0.53108 0.7198 0.44052 0.0
H1660 H 0.46892 0.66317 0.44152 0.0
H1661 H 0.4673 0.55653 0.43141 0.0
H1662 H 0.2953 0.40787 0.41599 0.0
H1663 H 0.35466 0.4672 0.41646 0.0
H1664 H 0.35165 0.56662 0.4299 0.0
C1665 C 0.49057 0.66257 0.43607 0.0
C1666 C 0.44238 0.55926 0.43096 0.0
C1667 C 0.52625 0.69494 0.43557 0.0
C1668 C 0.29781 0.43005 0.42194 0.0
C1669 C 0.3319 0.46399 0.42224 0.0
C1670 C 0.37675 0.56418 0.43034 0.0
C1671 C 0.48325 0.62969 0.4298 0.0
C1672 C 0.44544 0.59497 0.43039 0.0
C1673 C 0.33665 0.49337 0.42992 0.0
C1674 C 0.37389 0.52855 0.43056 0.0
H1675 H 0.57004 0.66187 0.41719 0.0
H1676 H 0.50774 0.60559 0.41786 0.0
H1677 H 0.41342 0.62405 0.42966 0.0
H1678 H 0.24912 0.45032 0.44272 0.0
H1679 H 0.30896 0.51043 0.44313 0.0
C1680 C 0.5878 0.83272 0.42556 0.0
C1681 C 0.61465 0.8549 0.43431 0.0
C1682 C 0.55357 0.8324 0.4248 0.0
C1683 C 0.51245 0.8917 0.43249 0.0
H1684 H 0.41727 0.80204 0.42513 0.0
C1685 C 0.34462 0.84203 0.4317 0.0
C1686 C 0.3463 0.87323 0.42584 0.0
C1687 C 0.37653 0.83809 0.43234 0.0
C1688 C 0.44361 0.82729 0.42725 0.0
H1689 H 0.62627 0.89265 0.44947 0.0
H1690 H 0.56641 0.89179 0.44826 0.0
H1691 H 0.4739 0.79721 0.42779 0.0
H1692 H 0.3821 0.92425 0.4158 0.0
H1693 H 0.43787 0.91728 0.41681 0.0
H1694 H 0.48224 0.92171 0.43217 0.0
C1695 C 0.57199 0.87523 0.44183 0.0
C1696 C 0.4761 0.82457 0.42867 0.0
C1697 C 0.60615 0.87554 0.44258 0.0
C1698 C 0.38015 0.90003 0.42042 0.0
C1699 C 0.41209 0.89612 0.42106 0.0
C1700 C 0.48006 0.89442 0.43106 0.0
C1701 C 0.54563 0.8543 0.43277 0.0
C1702 C 0.51087 0.85675 0.43135 0.0
C1703 C 0.41077 0.86532 0.42715 0.0
C1704 C 0.44525 0.86227 0.42843 0.0
H1705 H 0.59371 0.81657 0.41906 0.0
H1706 H 0.53398 0.81615 0.41768 0.0
H1707 H 0.53888 0.91714 0.43437 0.0
H1708 H 0.31879 0.82095 0.43595 0.0
H1709 H 0.37464 0.81426 0.4372 0.0
C1710 C 0.86354 0.86638 0.24454 0.0
C1711 C 0.83466 0.83849 0.25165 0.0
C1712 C 0.89906 0.86936 0.24409 0.0
C1713 C 0.9452 0.81279 0.24947 0.0
H1714 H 0.03789 0.9093 0.24843 0.0
C1715 C 0.0887 0.82325 0.25556 0.0
C1716 C 0.11785 0.84657 0.24762 0.0
C1717 C 0.05542 0.82463 0.25598 0.0
C1718 C 0.01221 0.88217 0.24859 0.0
H1719 H 0.82041 0.79259 0.26413 0.0
H1720 H 0.88251 0.79809 0.26353 0.0
H1721 H 0.97727 0.90729 0.2496 0.0
H1722 H 0.13521 0.88982 0.23391 0.0
H1723 H 0.07676 0.89265 0.23473 0.0
H1724 H 0.97993 0.78763 0.24855 0.0
C1725 C 0.87764 0.81723 0.2581 0.0
C1726 C 0.97747 0.88098 0.24926 0.0
C1727 C 0.84213 0.8142 0.25852 0.0
C1728 C 0.11341 0.87199 0.24025 0.0
C1729 C 0.07994 0.87348 0.2407 0.0
C1730 C 0.97979 0.81399 0.24885 0.0
C1731 C 0.90643 0.84452 0.25075 0.0
C1732 C 0.94354 0.84623 0.24983 0.0
C1733 C 0.05035 0.84933 0.24844 0.0
C1734 C 0.01373 0.84865 0.24852 0.0
H1735 H 0.85849 0.88548 0.23915 0.0
H1736 H 0.92041 0.89047 0.23826 0.0
H1737 H 0.91967 0.78553 0.24958 0.0
H1738 H 0.09146 0.80358 0.26141 0.0
H1739 H 0.03352 0.80618 0.26221 0.0
C1740 C 0.2368 0.04189 0.25703 0.0
C1741 C 0.21265 0.01072 0.24991 0.0
C1742 C 0.23363 0.07431 0.25701 0.0
C1743 C 0.16942 0.11045 0.24904 0.0
H1744 H 0.26228 0.20678 0.24911 0.0
C1745 C 0.17741 0.25546 0.24166 0.0
C1746 C 0.20247 0.28477 0.24928 0.0
C1747 C 0.17615 0.22061 0.24177 0.0
C1748 C 0.23606 0.18011 0.2492 0.0
H1749 H 0.16584 0.98848 0.23734 0.0
H1750 H 0.16063 0.04536 0.23713 0.0
H1751 H 0.26493 0.14882 0.24929 0.0
H1752 H 0.2451 0.30057 0.26315 0.0
H1753 H 0.24294 0.24013 0.26336 0.0
H1754 H 0.14068 0.14219 0.24883 0.0
C1755 C 0.18172 0.0447 0.24286 0.0
C1756 C 0.23758 0.14684 0.24933 0.0
C1757 C 0.18484 0.01221 0.24291 0.0
C1758 C 0.22567 0.27852 0.25713 0.0
C1759 C 0.22454 0.24395 0.25721 0.0
C1760 C 0.16791 0.14387 0.24885 0.0
C1761 C 0.20634 0.0763 0.24982 0.0
C1762 C 0.20431 0.11157 0.24939 0.0
C1763 C 0.20022 0.21477 0.24942 0.0
C1764 C 0.20126 0.17905 0.24907 0.0
H1765 H 0.25834 0.04136 0.26256 0.0
H1766 H 0.25259 0.09783 0.26266 0.0
H1767 H 0.14324 0.08377 0.24916 0.0
H1768 H 0.15975 0.25983 0.23536 0.0
H1769 H 0.1573 0.19872 0.2356 0.0
C1770 C 0.79365 0.9351 0.24153 0.0
C1771 C 0.76436 0.93128 0.24905 0.0
C1772 C 0.82917 0.96785 0.24201 0.0
C1773 C 0.88822 0.05153 0.26136 0.0
H1774 H 0.93993 0.09726 0.23139 0.0
C1775 C 0.00818 0.20644 0.25852 0.0
C1776 C 0.03925 0.2146 0.25118 0.0
C1777 C 0.97637 0.17034 0.25851 0.0
C1778 C 0.9261 0.08462 0.23985 0.0
H1779 H 0.749 0.95852 0.26292 0.0
H1780 H 0.81031 0.01559 0.26362 0.0
H1781 H 0.88162 0.03652 0.23091 0.0
H1782 H 0.06176 0.1915 0.23814 0.0
H1783 H 1.00618 0.1284 0.23811 0.0
H1784 H 0.93229 0.09998 0.27027 0.0
C1785 C 0.80644 0.99324 0.25752 0.0
C1786 C 0.89269 0.04973 0.23958 0.0
C1787 C 0.77114 0.96063 0.25704 0.0
C1788 C 0.0381 0.18597 0.24388 0.0
C1789 C 1.00622 0.14992 0.24381 0.0
C1790 C 0.9215 0.08643 0.26162 0.0
C1791 C 0.83594 0.99739 0.25 0.0
C1792 C 0.87305 0.03299 0.25032 0.0
C1793 C 0.97492 0.14169 0.25111 0.0
C1794 C 0.9406 0.10363 0.25086 0.0
H1795 H 0.78893 0.9132 0.23511 0.0
H1796 H 0.85129 0.97002 0.23612 0.0
H1797 H 0.87428 0.03913 0.26983 0.0
H1798 H 0.00832 0.22804 0.26422 0.0
H1799 H 0.95257 0.16509 0.26413 0.0
C1800 C 0.81754 0.83881 0.75173 0.0
C1801 C 0.84138 0.83143 0.75887 0.0
C1802 C 0.82035 0.87426 0.75204 0.0
C1803 C 0.883 0.97416 0.76115 0.0
H1804 H 0.78943 0.97615 0.76086 0.0
C1805 C 0.87294 0.10961 0.76984 0.0
C1806 C 0.84808 0.1143 0.76227 0.0
C1807 C 0.87448 0.07616 0.76943 0.0
C1808 C 0.81586 0.97615 0.76084 0.0
H1809 H 0.88739 0.85537 0.77175 0.0
H1810 H 0.892 0.91718 0.77243 0.0
H1811 H 0.78771 0.91603 0.75999 0.0
H1812 H 0.80601 0.08827 0.74819 0.0
H1813 H 0.80866 0.0303 0.74746 0.0
H1814 H 0.91101 0.03457 0.76212 0.0
C1815 C 0.8714 0.89582 0.76648 0.0
C1816 C 0.81489 0.94163 0.7603 0.0
C1817 C 0.86864 0.86035 0.76614 0.0
C1818 C 0.82528 0.08534 0.75419 0.0
C1819 C 0.82668 0.05204 0.75381 0.0
C1820 C 0.88396 0.00882 0.76174 0.0
C1821 C 0.84698 0.90309 0.75954 0.0
C1822 C 0.84842 0.94013 0.76033 0.0
C1823 C 0.8509 0.04678 0.76152 0.0
C1824 C 0.85037 0.01019 0.76145 0.0
H1825 H 0.79641 0.81706 0.746 0.0
H1826 H 0.80156 0.87903 0.74639 0.0
H1827 H 0.90939 0.9741 0.7611 0.0
H1828 H 0.89032 0.13123 0.77631 0.0
H1829 H 0.89323 0.07283 0.77555 0.0
C1830 C 0.21021 1.00224 0.75274 0.0
C1831 C 0.21747 0.03433 0.75939 0.0
C1832 C 0.17471 0.96977 0.75319 0.0
C1833 C 0.07473 0.93445 0.76138 0.0
H1834 H 0.0717 0.83842 0.76281 0.0
C1835 C 0.93796 0.78988 0.76983 0.0
C1836 C 0.93388 0.76009 0.76249 0.0
C1837 C 0.97152 0.82475 0.76958 0.0
C1838 C 0.07204 0.865 0.76232 0.0
H1839 H 0.19339 0.05814 0.77155 0.0
H1840 H 0.13143 1.0012 0.7725 0.0
H1841 H 0.13219 0.89646 0.76205 0.0
H1842 H 0.96102 0.74341 0.74898 0.0
H1843 H 0.01922 0.80383 0.74854 0.0
H1844 H 0.01427 0.90255 0.76174 0.0
C1845 C 0.15295 1.00116 0.76682 0.0
C1846 C 0.10674 0.89829 0.76185 0.0
C1847 C 0.18847 0.03369 0.76634 0.0
C1848 C 0.9635 0.76583 0.7548 0.0
C1849 C 0.9969 0.80039 0.75458 0.0
C1850 C 0.03989 0.901 0.76191 0.0
C1851 C 0.14575 0.96867 0.76034 0.0
C1852 C 0.10857 0.93343 0.76122 0.0
C1853 C 1.00156 0.8301 0.76208 0.0
C1854 C 0.03822 0.86591 0.76222 0.0
H1855 H 0.23204 1.0021 0.74726 0.0
H1856 H 0.16995 0.94551 0.74791 0.0
H1857 H 0.07512 0.96103 0.76082 0.0
H1858 H 0.91577 0.78592 0.776 0.0
H1859 H 0.97443 0.84709 0.77552 0.0
C1860 C 0.25686 0.17217 0.76885 0.0
C1861 C 0.28591 0.19799 0.76132 0.0
C1862 C 0.22121 0.16912 0.76852 0.0
C1863 C 0.16154 0.19392 0.74956 0.0
H1864 H 0.11012 0.18684 0.77969 0.0
C1865 C 0.04262 0.22998 0.75316 0.0
C1866 C 0.01134 0.20669 0.76038 0.0
C1867 C 0.07423 0.22539 0.75304 0.0
C1868 C 0.12388 0.18834 0.77118 0.0
H1869 H 0.30071 0.24093 0.74763 0.0
H1870 H 0.23923 0.23623 0.7472 0.0
H1871 H 0.1684 0.18432 0.77992 0.0
H1872 H 0.98828 0.16013 0.77305 0.0
H1873 H 0.04357 0.15214 0.77287 0.0
H1874 H 0.11751 0.19882 0.74086 0.0
C1875 C 0.24335 0.21766 0.75317 0.0
C1876 C 0.15726 0.1868 0.77131 0.0
C1877 C 0.27876 0.22063 0.75349 0.0
C1878 C 0.0121 0.17856 0.76742 0.0
C1879 C 0.0438 0.1741 0.76737 0.0
C1880 C 0.12833 0.19565 0.74944 0.0
C1881 C 0.21407 0.19193 0.76068 0.0
C1882 C 0.17683 0.19016 0.76051 0.0
C1883 C 0.07528 0.19751 0.76018 0.0
C1884 C 0.10937 0.1934 0.76027 0.0
H1885 H 0.26189 0.15497 0.77515 0.0
H1886 H 0.19927 0.14891 0.7744 0.0
H1887 H 0.17539 0.19579 0.74104 0.0
H1888 H 0.04278 0.25193 0.74766 0.0
H1889 H 0.09817 0.24418 0.74752 0.0
C1890 C 0.52574 0.19881 0.57668 0.0
C1891 C 0.49611 0.17049 0.58345 0.0
C1892 C 0.56121 0.20161 0.57653 0.0
C1893 C 0.60701 0.1448 0.58242 0.0
H1894 H 0.69944 0.24161 0.58237 0.0
C1895 C 0.75069 0.15653 0.59024 0.0
C1896 C 0.7805 0.18037 0.58259 0.0
C1897 C 0.71707 0.15732 0.59024 0.0
C1898 C 0.67385 0.2144 0.58225 0.0
H1899 H 0.48038 0.12352 0.59559 0.0
H1900 H 0.54237 0.12874 0.59555 0.0
H1901 H 0.63858 0.2392 0.58282 0.0
H1902 H 0.7986 0.22379 0.56891 0.0
H1903 H 0.73966 0.22569 0.56902 0.0
H1904 H 0.64214 0.11998 0.58199 0.0
C1905 C 0.53817 0.14835 0.59014 0.0
C1906 C 0.63896 0.21297 0.58251 0.0
C1907 C 0.5027 0.14547 0.59024 0.0
C1908 C 0.77631 0.20561 0.57506 0.0
C1909 C 0.74255 0.20657 0.5751 0.0
C1910 C 0.64177 0.14623 0.58223 0.0
C1911 C 0.5678 0.1762 0.58318 0.0
C1912 C 0.60509 0.17811 0.58269 0.0
C1913 C 0.71237 0.18199 0.58258 0.0
C1914 C 0.6756 0.181 0.58226 0.0
H1915 H 0.52138 0.21847 0.57135 0.0
H1916 H 0.58319 0.22315 0.57098 0.0
H1917 H 0.58159 0.11746 0.58225 0.0
H1918 H 0.75321 0.13692 0.5962 0.0
H1919 H 0.69465 0.13851 0.59626 0.0
C1920 C 0.84699 0.34658 0.57791 0.0
C1921 C 0.87509 0.34548 0.58487 0.0
C1922 C 0.84421 0.37926 0.57753 0.0
C1923 C 0.90115 0.48213 0.58302 0.0
H1924 H 0.80467 0.47832 0.58234 0.0
C1925 C 0.89041 0.61505 0.58978 0.0
C1926 C 0.86678 0.62089 0.58199 0.0
C1927 C 0.88931 0.58048 0.59001 0.0
C1928 C 0.8318 0.47978 0.5824 0.0
H1929 H 0.92162 0.37714 0.59715 0.0
H1930 H 0.91643 0.43393 0.5967 0.0
H1931 H 0.80669 0.41968 0.58325 0.0
H1932 H 0.82348 0.59519 0.56828 0.0
H1933 H 0.82104 0.53407 0.5688 0.0
H1934 H 0.92628 0.54209 0.58228 0.0
C1935 C 0.89699 0.40993 0.59131 0.0
C1936 C 0.833 0.4462 0.58292 0.0
C1937 C 0.89983 0.37731 0.59165 0.0
C1938 C 0.84146 0.59118 0.57454 0.0
C1939 C 0.84021 0.55631 0.57481 0.0
C1940 C 0.89994 0.51556 0.58255 0.0
C1941 C 0.86943 0.41152 0.58413 0.0
C1942 C 0.86774 0.44699 0.58335 0.0
C1943 C 0.86457 0.55081 0.58243 0.0
C1944 C 0.8653 0.51486 0.58236 0.0
H1945 H 0.82755 0.32239 0.57259 0.0
H1946 H 0.82288 0.37953 0.57182 0.0
H1947 H 0.92841 0.48388 0.58302 0.0
H1948 H 0.91007 0.63738 0.59568 0.0
H1949 H 0.90796 0.577 0.59614 0.0
C1950 C 0.45845 0.27 0.57392 0.0
C1951 C 0.42905 0.26624 0.58137 0.0
C1952 C 0.49421 0.30238 0.57463 0.0
C1953 C 0.55319 0.38506 0.59443 0.0
H1954 H 0.60592 0.432 0.56471 0.0
C1955 C 0.67233 0.54047 0.59209 0.0
C1956 C 0.7038 0.54897 0.58489 0.0
C1957 C 0.64076 0.5042 0.59198 0.0
C1958 C 0.59179 0.419 0.5731 0.0
H1959 H 0.41377 0.29315 0.59538 0.0
H1960 H 0.47543 0.34956 0.59647 0.0
H1961 H 0.54764 0.37128 0.56392 0.0
H1962 H 0.72729 0.52632 0.57205 0.0
H1963 H 0.67211 0.46297 0.57183 0.0
H1964 H 0.59686 0.43324 0.60357 0.0
C1965 C 0.4715 0.32745 0.59025 0.0
C1966 C 0.55841 0.38412 0.57265 0.0
C1967 C 0.43598 0.29522 0.58955 0.0
C1968 C 0.70332 0.52052 0.57767 0.0
C1969 C 0.67168 0.48433 0.57749 0.0
C1970 C 0.58641 0.41998 0.59486 0.0
C1971 C 0.5011 0.33159 0.58279 0.0
C1972 C 0.53837 0.36697 0.5833 0.0
C1973 C 0.63996 0.47577 0.58461 0.0
C1974 C 0.60584 0.43761 0.5842 0.0
H1975 H 0.45362 0.24839 0.56737 0.0
H1976 H 0.5164 0.30456 0.56878 0.0
H1977 H 0.53894 0.37234 0.60283 0.0
H1978 H 0.67196 0.56192 0.59772 0.0
H1979 H 0.61663 0.49864 0.59746 0.0
loop_
_geom_bond_atom_site_label_1
_geom_bond_atom_site_label_2
_geom_bond_distance
_geom_bond_site_symmetry_2
_ccdc_geom_bond_type
Tb0 O3 2.453 1_545 S
Tb0 O4 2.596 1_545 S
Tb0 O5 2.374 . S
Tb0 O13 2.343 . S
Tb0 O15 2.353 . S
Tb0 O17 2.427 . S
Tb0 O18 2.513 . S
C1 O5 1.251 1_565 S
C1 O7 1.263 . S
Tb2 O4 2.343 . S
Tb2 O7 2.353 . S
Tb2 O10 2.427 . S
Tb2 O11 2.513 . S
Tb2 O12 2.453 1_565 S
Tb2 O13 2.596 1_565 S
Tb2 O14 2.374 . S
O3 Tb0 2.453 1_565 S
O3 C19 1.245 . S
O4 Tb0 2.596 1_565 S
O4 Tb2 2.343 . S
O4 C19 1.259 . S
O5 Tb0 2.374 . S
O5 C1 1.251 1_545 S
C6 O10 1.275 . S
C6 O11 1.246 . S
O7 C1 1.263 . S
O7 Tb2 2.353 . S
C8 O12 1.245 . S
C8 O13 1.259 . S
C9 O14 1.250 1_545 S
C9 O15 1.263 . S
O10 Tb2 2.427 . S
O10 C6 1.275 . S
O11 Tb2 2.513 . S
O11 C6 1.246 . S
O12 Tb2 2.453 1_545 S
O12 C8 1.245 . S
O13 Tb0 2.343 . S
O13 Tb2 2.596 1_545 S
O13 C8 1.259 . S
O14 Tb2 2.374 . S
O14 C9 1.250 1_565 S
O15 Tb0 2.353 . S
O15 C9 1.263 . S
C16 O17 1.275 . S
C16 O18 1.246 . S
O17 Tb0 2.427 . S
O17 C16 1.275 . S
O18 Tb0 2.513 . S
O18 C16 1.246 . S
C19 O3 1.245 . S
C19 O4 1.259 . S
Tb20 O23 2.453 . S
Tb20 O24 2.596 . S
Tb20 O25 2.374 . S
Tb20 O33 2.343 1_455 S
Tb20 O35 2.353 . S
Tb20 O37 2.427 1_455 S
Tb20 O38 2.513 1_455 S
C21 O25 1.251 . S
C21 O27 1.263 . S
Tb22 O24 2.343 . S
Tb22 O27 2.353 . S
Tb22 O30 2.427 . S
Tb22 O31 2.513 . S
Tb22 O32 2.453 1_455 S
Tb22 O33 2.596 1_455 S
Tb22 O34 2.374 . S
O23 Tb20 2.453 . S
O23 C39 1.245 . S
O24 Tb20 2.596 . S
O24 Tb22 2.343 . S
O24 C39 1.259 . S
O25 Tb20 2.374 . S
O25 C21 1.251 . S
C26 O30 1.275 . S
C26 O31 1.246 . S
O27 C21 1.263 . S
O27 Tb22 2.353 . S
C28 O32 1.245 . S
C28 O33 1.259 . S
C29 O34 1.250 . S
C29 O35 1.263 . S
O30 Tb22 2.427 . S
O30 C26 1.275 . S
O31 Tb22 2.513 . S
O31 C26 1.246 . S
O32 Tb22 2.453 1_655 S
O32 C28 1.245 . S
O33 Tb20 2.343 1_655 S
O33 Tb22 2.596 1_655 S
O33 C28 1.259 . S
O34 Tb22 2.374 . S
O34 C29 1.250 . S
O35 Tb20 2.353 . S
O35 C29 1.263 . S
C36 O37 1.275 . S
C36 O38 1.246 . S
O37 Tb20 2.427 1_655 S
O37 C36 1.275 . S
O38 Tb20 2.513 1_655 S
O38 C36 1.246 . S
C39 O23 1.245 . S
C39 O24 1.259 . S
Tb40 O43 2.453 . S
Tb40 O44 2.596 . S
Tb40 O45 2.374 . S
Tb40 O53 2.343 . S
Tb40 O55 2.353 . S
Tb40 O57 2.427 . S
Tb40 O58 2.513 . S
C41 O45 1.251 . S
C41 O47 1.263 . S
Tb42 O44 2.343 . S
Tb42 O47 2.353 . S
Tb42 O50 2.427 . S
Tb42 O51 2.513 . S
Tb42 O52 2.453 . S
Tb42 O53 2.596 . S
Tb42 O54 2.374 . S
O43 Tb40 2.453 . S
O43 C59 1.245 . S
O44 Tb40 2.596 . S
O44 Tb42 2.343 . S
O44 C59 1.259 . S
O45 Tb40 2.374 . S
O45 C41 1.251 . S
C46 O50 1.275 . S
C46 O51 1.246 . S
O47 C41 1.263 . S
O47 Tb42 2.353 . S
C48 O52 1.245 . S
C48 O53 1.259 . S
C49 O54 1.250 . S
C49 O55 1.263 . S
O50 Tb42 2.427 . S
O50 C46 1.275 . S
O51 Tb42 2.513 . S
O51 C46 1.246 . S
O52 Tb42 2.453 . S
O52 C48 1.245 . S
O53 Tb40 2.343 . S
O53 Tb42 2.596 . S
O53 C48 1.259 . S
O54 Tb42 2.374 . S
O54 C49 1.250 . S
O55 Tb40 2.353 . S
O55 C49 1.263 . S
C56 O57 1.275 . S
C56 O58 1.246 . S
O57 Tb40 2.427 . S
O57 C56 1.275 . S
O58 Tb40 2.513 . S
O58 C56 1.246 . S
C59 O43 1.245 . S
C59 O44 1.259 . S
Tb60 O63 2.453 1_455 S
Tb60 O64 2.596 1_455 S
Tb60 O65 2.374 . S
Tb60 O73 2.343 . S
Tb60 O75 2.353 . S
Tb60 O77 2.427 . S
Tb60 O78 2.513 . S
C61 O65 1.251 1_655 S
C61 O67 1.263 . S
Tb62 O64 2.343 . S
Tb62 O67 2.353 . S
Tb62 O70 2.427 . S
Tb62 O71 2.513 . S
Tb62 O72 2.453 1_655 S
Tb62 O73 2.596 1_655 S
Tb62 O74 2.374 . S
O63 Tb60 2.453 1_655 S
O63 C79 1.245 . S
O64 Tb60 2.596 1_655 S
O64 Tb62 2.343 . S
O64 C79 1.259 . S
O65 Tb60 2.374 . S
O65 C61 1.251 1_455 S
C66 O70 1.275 . S
C66 O71 1.246 . S
O67 C61 1.263 . S
O67 Tb62 2.353 . S
C68 O72 1.245 . S
C68 O73 1.259 . S
C69 O74 1.250 1_455 S
C69 O75 1.263 . S
O70 Tb62 2.427 . S
O70 C66 1.275 . S
O71 Tb62 2.513 . S
O71 C66 1.246 . S
O72 Tb62 2.453 1_455 S
O72 C68 1.245 . S
O73 Tb60 2.343 . S
O73 Tb62 2.596 1_455 S
O73 C68 1.259 . S
O74 Tb62 2.374 . S
O74 C69 1.250 1_655 S
O75 Tb60 2.353 . S
O75 C69 1.263 . S
C76 O77 1.275 . S
C76 O78 1.246 . S
O77 Tb60 2.427 . S
O77 C76 1.275 . S
O78 Tb60 2.513 . S
O78 C76 1.246 . S
C79 O63 1.245 . S
C79 O64 1.259 . S
Tb80 O83 2.453 . S
Tb80 O84 2.596 . S
Tb80 O85 2.374 . S
Tb80 O93 2.343 . S
Tb80 O95 2.353 . S
Tb80 O97 2.427 . S
Tb80 O98 2.513 . S
C81 O85 1.251 . S
C81 O87 1.263 . S
Tb82 O84 2.343 . S
Tb82 O87 2.353 . S
Tb82 O90 2.427 . S
Tb82 O91 2.513 . S
Tb82 O92 2.453 . S
Tb82 O93 2.596 . S
Tb82 O94 2.374 . S
O83 Tb80 2.453 . S
O83 C99 1.245 . S
O84 Tb80 2.596 . S
O84 Tb82 2.343 . S
O84 C99 1.259 . S
O85 Tb80 2.374 . S
O85 C81 1.251 . S
C86 O90 1.275 . S
C86 O91 1.246 . S
O87 C81 1.263 . S
O87 Tb82 2.353 . S
C88 O92 1.245 . S
C88 O93 1.259 . S
C89 O94 1.250 . S
C89 O95 1.263 . S
O90 Tb82 2.427 . S
O90 C86 1.275 . S
O91 Tb82 2.513 . S
O91 C86 1.246 . S
O92 Tb82 2.453 . S
O92 C88 1.245 . S
O93 Tb80 2.343 . S
O93 Tb82 2.596 . S
O93 C88 1.259 . S
O94 Tb82 2.374 . S
O94 C89 1.250 . S
O95 Tb80 2.353 . S
O95 C89 1.263 . S
C96 O97 1.275 . S
C96 O98 1.246 . S
O97 Tb80 2.427 . S
O97 C96 1.275 . S
O98 Tb80 2.513 . S
O98 C96 1.246 . S
C99 O83 1.245 . S
C99 O84 1.259 . S
Tb100 O103 2.453 . S
Tb100 O104 2.596 . S
Tb100 O105 2.374 . S
Tb100 O113 2.343 1_545 S
Tb100 O115 2.353 . S
Tb100 O117 2.427 1_545 S
Tb100 O118 2.513 1_545 S
C101 O105 1.251 . S
C101 O107 1.263 . S
Tb102 O104 2.343 . S
Tb102 O107 2.353 . S
Tb102 O110 2.427 . S
Tb102 O111 2.513 . S
Tb102 O112 2.453 1_545 S
Tb102 O113 2.596 1_545 S
Tb102 O114 2.374 . S
O103 Tb100 2.453 . S
O103 C119 1.245 . S
O104 Tb100 2.596 . S
O104 Tb102 2.343 . S
O104 C119 1.259 . S
O105 Tb100 2.374 . S
O105 C101 1.251 . S
C106 O110 1.275 . S
C106 O111 1.246 . S
O107 C101 1.263 . S
O107 Tb102 2.353 . S
C108 O112 1.245 . S
C108 O113 1.259 . S
C109 O114 1.250 . S
C109 O115 1.263 . S
O110 Tb102 2.427 . S
O110 C106 1.275 . S
O111 Tb102 2.513 . S
O111 C106 1.246 . S
O112 Tb102 2.453 1_565 S
O112 C108 1.245 . S
O113 Tb100 2.343 1_565 S
O113 Tb102 2.596 1_565 S
O113 C108 1.259 . S
O114 Tb102 2.374 . S
O114 C109 1.250 . S
O115 Tb100 2.353 . S
O115 C109 1.263 . S
C116 O117 1.275 . S
C116 O118 1.246 . S
O117 Tb100 2.427 1_565 S
O117 C116 1.275 . S
O118 Tb100 2.513 1_565 S
O118 C116 1.246 . S
C119 O103 1.245 . S
C119 O104 1.259 . S
Tb120 O123 2.453 . S
Tb120 O124 2.596 . S
Tb120 O125 2.374 . S
Tb120 O133 2.343 . S
Tb120 O135 2.353 . S
Tb120 O137 2.427 . S
Tb120 O138 2.513 . S
C121 O125 1.251 . S
C121 O127 1.263 . S
Tb122 O124 2.343 . S
Tb122 O127 2.353 . S
Tb122 O130 2.427 . S
Tb122 O131 2.513 . S
Tb122 O132 2.453 . S
Tb122 O133 2.596 . S
Tb122 O134 2.374 . S
O123 Tb120 2.453 . S
O123 C139 1.245 . S
O124 Tb120 2.596 . S
O124 Tb122 2.343 . S
O124 C139 1.259 . S
O125 Tb120 2.374 . S
O125 C121 1.251 . S
C126 O130 1.275 . S
C126 O131 1.246 . S
O127 C121 1.263 . S
O127 Tb122 2.353 . S
C128 O132 1.245 . S
C128 O133 1.259 . S
C129 O134 1.250 . S
C129 O135 1.263 . S
O130 Tb122 2.427 . S
O130 C126 1.275 . S
O131 Tb122 2.513 . S
O131 C126 1.246 . S
O132 Tb122 2.453 . S
O132 C128 1.245 . S
O133 Tb120 2.343 . S
O133 Tb122 2.596 . S
O133 C128 1.259 . S
O134 Tb122 2.374 . S
O134 C129 1.250 . S
O135 Tb120 2.353 . S
O135 C129 1.263 . S
C136 O137 1.275 . S
C136 O138 1.246 . S
O137 Tb120 2.427 . S
O137 C136 1.275 . S
O138 Tb120 2.513 . S
O138 C136 1.246 . S
C139 O123 1.245 . S
C139 O124 1.259 . S
Tb140 O143 2.453 . S
Tb140 O144 2.596 . S
Tb140 O145 2.374 . S
Tb140 O153 2.343 . S
Tb140 O155 2.353 . S
Tb140 O157 2.427 . S
Tb140 O158 2.513 . S
C141 O145 1.251 . S
C141 O147 1.263 . S
Tb142 O144 2.343 . S
Tb142 O147 2.353 . S
Tb142 O150 2.427 . S
Tb142 O151 2.513 . S
Tb142 O152 2.453 . S
Tb142 O153 2.596 . S
Tb142 O154 2.374 . S
O143 Tb140 2.453 . S
O143 C159 1.245 . S
O144 Tb140 2.596 . S
O144 Tb142 2.343 . S
O144 C159 1.259 . S
O145 Tb140 2.374 . S
O145 C141 1.251 . S
C146 O150 1.275 . S
C146 O151 1.246 . S
O147 C141 1.263 . S
O147 Tb142 2.353 . S
C148 O152 1.245 . S
C148 O153 1.259 . S
C149 O154 1.250 . S
C149 O155 1.263 . S
O150 Tb142 2.427 . S
O150 C146 1.275 . S
O151 Tb142 2.513 . S
O151 C146 1.246 . S
O152 Tb142 2.453 . S
O152 C148 1.245 . S
O153 Tb140 2.343 . S
O153 Tb142 2.596 . S
O153 C148 1.259 . S
O154 Tb142 2.374 . S
O154 C149 1.250 . S
O155 Tb140 2.353 . S
O155 C149 1.263 . S
C156 O157 1.275 . S
C156 O158 1.246 . S
O157 Tb140 2.427 . S
O157 C156 1.275 . S
O158 Tb140 2.513 . S
O158 C156 1.246 . S
C159 O143 1.245 . S
C159 O144 1.259 . S
Tb160 O163 2.453 . S
Tb160 O164 2.596 . S
Tb160 O165 2.374 . S
Tb160 O173 2.343 . S
Tb160 O175 2.353 . S
Tb160 O177 2.427 . S
Tb160 O178 2.513 . S
C161 O165 1.251 . S
C161 O167 1.263 . S
Tb162 O164 2.343 . S
Tb162 O167 2.353 . S
Tb162 O170 2.427 . S
Tb162 O171 2.513 . S
Tb162 O172 2.453 . S
Tb162 O173 2.596 . S
Tb162 O174 2.374 . S
O163 Tb160 2.453 . S
O163 C179 1.245 . S
O164 Tb160 2.596 . S
O164 Tb162 2.343 . S
O164 C179 1.259 . S
O165 Tb160 2.374 . S
O165 C161 1.251 . S
C166 O170 1.275 . S
C166 O171 1.246 . S
O167 C161 1.263 . S
O167 Tb162 2.353 . S
C168 O172 1.245 . S
C168 O173 1.259 . S
C169 O174 1.250 . S
C169 O175 1.263 . S
O170 Tb162 2.427 . S
O170 C166 1.275 . S
O171 Tb162 2.513 . S
O171 C166 1.246 . S
O172 Tb162 2.453 . S
O172 C168 1.245 . S
O173 Tb160 2.343 . S
O173 Tb162 2.596 . S
O173 C168 1.259 . S
O174 Tb162 2.374 . S
O174 C169 1.250 . S
O175 Tb160 2.353 . S
O175 C169 1.263 . S
C176 O177 1.275 . S
C176 O178 1.246 . S
O177 Tb160 2.427 . S
O177 C176 1.275 . S
O178 Tb160 2.513 . S
O178 C176 1.246 . S
C179 O163 1.245 . S
C179 O164 1.259 . S
Tb180 O183 2.453 . S
Tb180 O184 2.596 . S
Tb180 O185 2.374 . S
Tb180 O193 2.343 . S
Tb180 O195 2.353 . S
Tb180 O197 2.427 . S
Tb180 O198 2.513 . S
C181 O185 1.251 . S
C181 O187 1.263 . S
Tb182 O184 2.343 . S
Tb182 O187 2.353 . S
Tb182 O190 2.427 . S
Tb182 O191 2.513 . S
Tb182 O192 2.453 . S
Tb182 O193 2.596 . S
Tb182 O194 2.374 . S
O183 Tb180 2.453 . S
O183 C199 1.245 . S
O184 Tb180 2.596 . S
O184 Tb182 2.343 . S
O184 C199 1.259 . S
O185 Tb180 2.374 . S
O185 C181 1.251 . S
C186 O190 1.275 . S
C186 O191 1.246 . S
O187 C181 1.263 . S
O187 Tb182 2.353 . S
C188 O192 1.245 . S
C188 O193 1.259 . S
C189 O194 1.250 . S
C189 O195 1.263 . S
O190 Tb182 2.427 . S
O190 C186 1.275 . S
O191 Tb182 2.513 . S
O191 C186 1.246 . S
O192 Tb182 2.453 . S
O192 C188 1.245 . S
O193 Tb180 2.343 . S
O193 Tb182 2.596 . S
O193 C188 1.259 . S
O194 Tb182 2.374 . S
O194 C189 1.250 . S
O195 Tb180 2.353 . S
O195 C189 1.263 . S
C196 O197 1.275 . S
C196 O198 1.246 . S
O197 Tb180 2.427 . S
O197 C196 1.275 . S
O198 Tb180 2.513 . S
O198 C196 1.246 . S
C199 O183 1.245 . S
C199 O184 1.259 . S
Tb200 O203 2.453 . S
Tb200 O204 2.596 . S
Tb200 O205 2.374 . S
Tb200 O213 2.343 . S
Tb200 O215 2.353 . S
Tb200 O217 2.427 . S
Tb200 O218 2.513 . S
C201 O205 1.251 . S
C201 O207 1.263 . S
Tb202 O204 2.343 . S
Tb202 O207 2.353 . S
Tb202 O210 2.427 . S
Tb202 O211 2.513 . S
Tb202 O212 2.453 . S
Tb202 O213 2.596 . S
Tb202 O214 2.374 . S
O203 Tb200 2.453 . S
O203 C219 1.245 . S
O204 Tb200 2.596 . S
O204 Tb202 2.343 . S
O204 C219 1.259 . S
O205 Tb200 2.374 . S
O205 C201 1.251 . S
C206 O210 1.275 . S
C206 O211 1.246 . S
O207 C201 1.263 . S
O207 Tb202 2.353 . S
C208 O212 1.245 . S
C208 O213 1.259 . S
C209 O214 1.250 . S
C209 O215 1.263 . S
O210 Tb202 2.427 . S
O210 C206 1.275 . S
O211 Tb202 2.513 . S
O211 C206 1.246 . S
O212 Tb202 2.453 . S
O212 C208 1.245 . S
O213 Tb200 2.343 . S
O213 Tb202 2.596 . S
O213 C208 1.259 . S
O214 Tb202 2.374 . S
O214 C209 1.250 . S
O215 Tb200 2.353 . S
O215 C209 1.263 . S
C216 O217 1.275 . S
C216 O218 1.246 . S
O217 Tb200 2.427 . S
O217 C216 1.275 . S
O218 Tb200 2.513 . S
O218 C216 1.246 . S
C219 O203 1.245 . S
C219 O204 1.259 . S
Tb220 O223 2.453 . S
Tb220 O224 2.596 . S
Tb220 O225 2.374 . S
Tb220 O233 2.343 . S
Tb220 O235 2.353 . S
Tb220 O237 2.427 . S
Tb220 O238 2.513 . S
C221 O225 1.251 . S
C221 O227 1.263 . S
Tb222 O224 2.343 . S
Tb222 O227 2.353 . S
Tb222 O230 2.427 . S
Tb222 O231 2.513 . S
Tb222 O232 2.453 . S
Tb222 O233 2.596 . S
Tb222 O234 2.374 . S
O223 Tb220 2.453 . S
O223 C239 1.245 . S
O224 Tb220 2.596 . S
O224 Tb222 2.343 . S
O224 C239 1.259 . S
O225 Tb220 2.374 . S
O225 C221 1.251 . S
C226 O230 1.275 . S
C226 O231 1.246 . S
O227 C221 1.263 . S
O227 Tb222 2.353 . S
C228 O232 1.245 . S
C228 O233 1.259 . S
C229 O234 1.250 . S
C229 O235 1.263 . S
O230 Tb222 2.427 . S
O230 C226 1.275 . S
O231 Tb222 2.513 . S
O231 C226 1.246 . S
O232 Tb222 2.453 . S
O232 C228 1.245 . S
O233 Tb220 2.343 . S
O233 Tb222 2.596 . S
O233 C228 1.259 . S
O234 Tb222 2.374 . S
O234 C229 1.250 . S
O235 Tb220 2.353 . S
O235 C229 1.263 . S
C236 O237 1.275 . S
C236 O238 1.246 . S
O237 Tb220 2.427 . S
O237 C236 1.275 . S
O238 Tb220 2.513 . S
O238 C236 1.246 . S
C239 O223 1.245 . S
C239 O224 1.259 . S
Tb240 O243 2.453 . S
Tb240 O244 2.596 . S
Tb240 O245 2.374 . S
Tb240 O253 2.343 . S
Tb240 O255 2.353 . S
Tb240 O257 2.427 . S
Tb240 O258 2.513 . S
C241 O245 1.251 . S
C241 O247 1.263 . S
Tb242 O244 2.343 . S
Tb242 O247 2.353 . S
Tb242 O250 2.427 . S
Tb242 O251 2.513 . S
Tb242 O252 2.453 . S
Tb242 O253 2.596 . S
Tb242 O254 2.374 . S
O243 Tb240 2.453 . S
O243 C259 1.245 . S
O244 Tb240 2.596 . S
O244 Tb242 2.343 . S
O244 C259 1.259 . S
O245 Tb240 2.374 . S
O245 C241 1.251 . S
C246 O250 1.275 . S
C246 O251 1.246 . S
O247 C241 1.263 . S
O247 Tb242 2.353 . S
C248 O252 1.245 . S
C248 O253 1.259 . S
C249 O254 1.250 . S
C249 O255 1.263 . S
O250 Tb242 2.427 . S
O250 C246 1.275 . S
O251 Tb242 2.513 . S
O251 C246 1.246 . S
O252 Tb242 2.453 . S
O252 C248 1.245 . S
O253 Tb240 2.343 . S
O253 Tb242 2.596 . S
O253 C248 1.259 . S
O254 Tb242 2.374 . S
O254 C249 1.250 . S
O255 Tb240 2.353 . S
O255 C249 1.263 . S
C256 O257 1.275 . S
C256 O258 1.246 . S
O257 Tb240 2.427 . S
O257 C256 1.275 . S
O258 Tb240 2.513 . S
O258 C256 1.246 . S
C259 O243 1.245 . S
C259 O244 1.259 . S
Tb260 O263 2.453 . S
Tb260 O264 2.596 . S
Tb260 O265 2.374 . S
Tb260 O273 2.343 . S
Tb260 O275 2.353 . S
Tb260 O277 2.427 . S
Tb260 O278 2.513 . S
C261 O265 1.251 . S
C261 O267 1.263 . S
Tb262 O264 2.343 . S
Tb262 O267 2.353 . S
Tb262 O270 2.427 . S
Tb262 O271 2.513 . S
Tb262 O272 2.453 . S
Tb262 O273 2.596 . S
Tb262 O274 2.374 . S
O263 Tb260 2.453 . S
O263 C279 1.245 . S
O264 Tb260 2.596 . S
O264 Tb262 2.343 . S
O264 C279 1.259 . S
O265 Tb260 2.374 . S
O265 C261 1.251 . S
C266 O270 1.275 . S
C266 O271 1.246 . S
O267 C261 1.263 . S
O267 Tb262 2.353 . S
C268 O272 1.245 . S
C268 O273 1.259 . S
C269 O274 1.250 . S
C269 O275 1.263 . S
O270 Tb262 2.427 . S
O270 C266 1.275 . S
O271 Tb262 2.513 . S
O271 C266 1.246 . S
O272 Tb262 2.453 . S
O272 C268 1.245 . S
O273 Tb260 2.343 . S
O273 Tb262 2.596 . S
O273 C268 1.259 . S
O274 Tb262 2.374 . S
O274 C269 1.250 . S
O275 Tb260 2.353 . S
O275 C269 1.263 . S
C276 O277 1.275 . S
C276 O278 1.246 . S
O277 Tb260 2.427 . S
O277 C276 1.275 . S
O278 Tb260 2.513 . S
O278 C276 1.246 . S
C279 O263 1.245 . S
C279 O264 1.259 . S
Tb280 O283 2.453 . S
Tb280 O284 2.596 . S
Tb280 O285 2.374 . S
Tb280 O293 2.343 . S
Tb280 O295 2.353 . S
Tb280 O297 2.427 . S
Tb280 O298 2.513 . S
C281 O285 1.251 . S
C281 O287 1.263 . S
Tb282 O284 2.343 . S
Tb282 O287 2.353 . S
Tb282 O290 2.427 . S
Tb282 O291 2.513 . S
Tb282 O292 2.453 . S
Tb282 O293 2.596 . S
Tb282 O294 2.374 . S
O283 Tb280 2.453 . S
O283 C299 1.245 . S
O284 Tb280 2.596 . S
O284 Tb282 2.343 . S
O284 C299 1.259 . S
O285 Tb280 2.374 . S
O285 C281 1.251 . S
C286 O290 1.275 . S
C286 O291 1.246 . S
O287 C281 1.263 . S
O287 Tb282 2.353 . S
C288 O292 1.245 . S
C288 O293 1.259 . S
C289 O294 1.250 . S
C289 O295 1.263 . S
O290 Tb282 2.427 . S
O290 C286 1.275 . S
O291 Tb282 2.513 . S
O291 C286 1.246 . S
O292 Tb282 2.453 . S
O292 C288 1.245 . S
O293 Tb280 2.343 . S
O293 Tb282 2.596 . S
O293 C288 1.259 . S
O294 Tb282 2.374 . S
O294 C289 1.250 . S
O295 Tb280 2.353 . S
O295 C289 1.263 . S
C296 O297 1.275 . S
C296 O298 1.246 . S
O297 Tb280 2.427 . S
O297 C296 1.275 . S
O298 Tb280 2.513 . S
O298 C296 1.246 . S
C299 O283 1.245 . S
C299 O284 1.259 . S
Tb300 O303 2.453 . S
Tb300 O304 2.596 . S
Tb300 O305 2.374 . S
Tb300 O313 2.343 . S
Tb300 O315 2.353 . S
Tb300 O317 2.427 . S
Tb300 O318 2.513 . S
C301 O305 1.251 . S
C301 O307 1.263 . S
Tb302 O304 2.343 . S
Tb302 O307 2.353 . S
Tb302 O310 2.427 . S
Tb302 O311 2.513 . S
Tb302 O312 2.453 . S
Tb302 O313 2.596 . S
Tb302 O314 2.374 . S
O303 Tb300 2.453 . S
O303 C319 1.245 . S
O304 Tb300 2.596 . S
O304 Tb302 2.343 . S
O304 C319 1.259 . S
O305 Tb300 2.374 . S
O305 C301 1.251 . S
C306 O310 1.275 . S
C306 O311 1.246 . S
O307 C301 1.263 . S
O307 Tb302 2.353 . S
C308 O312 1.245 . S
C308 O313 1.259 . S
C309 O314 1.250 . S
C309 O315 1.263 . S
O310 Tb302 2.427 . S
O310 C306 1.275 . S
O311 Tb302 2.513 . S
O311 C306 1.246 . S
O312 Tb302 2.453 . S
O312 C308 1.245 . S
O313 Tb300 2.343 . S
O313 Tb302 2.596 . S
O313 C308 1.259 . S
O314 Tb302 2.374 . S
O314 C309 1.250 . S
O315 Tb300 2.353 . S
O315 C309 1.263 . S
C316 O317 1.275 . S
C316 O318 1.246 . S
O317 Tb300 2.427 . S
O317 C316 1.275 . S
O318 Tb300 2.513 . S
O318 C316 1.246 . S
C319 O303 1.245 . S
C319 O304 1.259 . S
Tb320 O323 2.453 . S
Tb320 O324 2.596 . S
Tb320 O325 2.374 . S
Tb320 O333 2.343 . S
Tb320 O335 2.353 . S
Tb320 O337 2.427 . S
Tb320 O338 2.513 . S
C321 O325 1.251 . S
C321 O327 1.263 . S
Tb322 O324 2.343 . S
Tb322 O327 2.353 . S
Tb322 O330 2.427 . S
Tb322 O331 2.513 . S
Tb322 O332 2.453 . S
Tb322 O333 2.596 . S
Tb322 O334 2.374 . S
O323 Tb320 2.453 . S
O323 C339 1.245 . S
O324 Tb320 2.596 . S
O324 Tb322 2.343 . S
O324 C339 1.259 . S
O325 Tb320 2.374 . S
O325 C321 1.251 . S
C326 O330 1.275 . S
C326 O331 1.246 . S
O327 C321 1.263 . S
O327 Tb322 2.353 . S
C328 O332 1.245 . S
C328 O333 1.259 . S
C329 O334 1.250 . S
C329 O335 1.263 . S
O330 Tb322 2.427 . S
O330 C326 1.275 . S
O331 Tb322 2.513 . S
O331 C326 1.246 . S
O332 Tb322 2.453 . S
O332 C328 1.245 . S
O333 Tb320 2.343 . S
O333 Tb322 2.596 . S
O333 C328 1.259 . S
O334 Tb322 2.374 . S
O334 C329 1.250 . S
O335 Tb320 2.353 . S
O335 C329 1.263 . S
C336 O337 1.275 . S
C336 O338 1.246 . S
O337 Tb320 2.427 . S
O337 C336 1.275 . S
O338 Tb320 2.513 . S
O338 C336 1.246 . S
C339 O323 1.245 . S
C339 O324 1.259 . S
Tb340 O343 2.453 . S
Tb340 O344 2.596 . S
Tb340 O345 2.374 . S
Tb340 O353 2.343 . S
Tb340 O355 2.353 . S
Tb340 O357 2.427 . S
Tb340 O358 2.513 . S
C341 O345 1.251 . S
C341 O347 1.263 . S
Tb342 O344 2.343 . S
Tb342 O347 2.353 . S
Tb342 O350 2.427 . S
Tb342 O351 2.513 . S
Tb342 O352 2.453 . S
Tb342 O353 2.596 . S
Tb342 O354 2.374 . S
O343 Tb340 2.453 . S
O343 C359 1.245 . S
O344 Tb340 2.596 . S
O344 Tb342 2.343 . S
O344 C359 1.259 . S
O345 Tb340 2.374 . S
O345 C341 1.251 . S
C346 O350 1.275 . S
C346 O351 1.246 . S
O347 C341 1.263 . S
O347 Tb342 2.353 . S
C348 O352 1.245 . S
C348 O353 1.259 . S
C349 O354 1.250 . S
C349 O355 1.263 . S
O350 Tb342 2.427 . S
O350 C346 1.275 . S
O351 Tb342 2.513 . S
O351 C346 1.246 . S
O352 Tb342 2.453 . S
O352 C348 1.245 . S
O353 Tb340 2.343 . S
O353 Tb342 2.596 . S
O353 C348 1.259 . S
O354 Tb342 2.374 . S
O354 C349 1.250 . S
O355 Tb340 2.353 . S
O355 C349 1.263 . S
C356 O357 1.275 . S
C356 O358 1.246 . S
O357 Tb340 2.427 . S
O357 C356 1.275 . S
O358 Tb340 2.513 . S
O358 C356 1.246 . S
C359 O343 1.245 . S
C359 O344 1.259 . S
C360 C361 1.349 . S
C360 C362 1.327 . S
C360 H385 0.950 . S
C361 C360 1.349 . S
C361 C377 1.349 . S
C362 C360 1.327 . S
C362 C381 1.429 . S
C362 H386 0.950 . S
C363 C380 1.574 . S
C363 C382 1.368 . S
C363 H387 0.949 . S
H364 C368 0.949 . S
C365 C366 1.349 . S
C365 C367 1.327 . S
C365 H388 0.950 . S
C366 C365 1.349 . S
C366 C378 1.349 . S
C367 C365 1.327 . S
C367 C383 1.429 . S
C367 H389 0.950 . S
C368 H364 0.949 . S
C368 C376 1.574 . S
C368 C384 1.368 . S
H369 C377 0.950 . S
H370 C375 0.950 . S
H371 C376 0.949 . S
H372 C378 0.950 . S
H373 C379 0.950 . S
H374 C380 0.949 . S
C375 H370 0.950 . S
C375 C377 1.327 . S
C375 C381 1.429 . S
C376 C368 1.574 . S
C376 H371 0.949 . S
C376 C382 1.368 . S
C377 C361 1.349 . S
C377 H369 0.950 . S
C377 C375 1.327 . S
C378 C366 1.349 . S
C378 H372 0.950 . S
C378 C379 1.327 . S
C379 H373 0.950 . S
C379 C378 1.327 . S
C379 C383 1.429 . S
C380 C363 1.574 . S
C380 H374 0.949 . S
C380 C384 1.368 . S
C381 C362 1.429 . S
C381 C375 1.429 . S
C381 C382 1.523 . S
C382 C363 1.368 . S
C382 C376 1.368 . S
C382 C381 1.523 . S
C383 C367 1.429 . S
C383 C379 1.429 . S
C383 C384 1.523 . S
C384 C368 1.368 . S
C384 C380 1.368 . S
C384 C383 1.523 . S
H385 C360 0.950 . S
H386 C362 0.950 . S
H387 C363 0.949 . S
H388 C365 0.950 . S
H389 C367 0.950 . S
C390 C391 1.349 . S
C390 C392 1.327 . S
C390 H415 0.950 . S
C391 C390 1.349 . S
C391 C407 1.349 . S
C392 C390 1.327 . S
C392 C411 1.429 . S
C392 H416 0.950 . S
C393 C410 1.574 . S
C393 C412 1.368 . S
C393 H417 0.949 . S
H394 C398 0.949 . S
C395 C396 1.349 . S
C395 C397 1.327 . S
C395 H418 0.950 . S
C396 C395 1.349 . S
C396 C408 1.349 . S
C397 C395 1.327 . S
C397 C413 1.429 . S
C397 H419 0.950 . S
C398 H394 0.949 . S
C398 C406 1.574 . S
C398 C414 1.368 . S
H399 C407 0.950 . S
H400 C405 0.950 . S
H401 C406 0.949 . S
H402 C408 0.950 . S
H403 C409 0.950 . S
H404 C410 0.949 . S
C405 H400 0.950 . S
C405 C407 1.327 . S
C405 C411 1.429 . S
C406 C398 1.574 . S
C406 H401 0.949 . S
C406 C412 1.368 . S
C407 C391 1.349 . S
C407 H399 0.950 . S
C407 C405 1.327 . S
C408 C396 1.349 . S
C408 H402 0.950 . S
C408 C409 1.327 . S
C409 H403 0.950 . S
C409 C408 1.327 . S
C409 C413 1.429 . S
C410 C393 1.574 . S
C410 H404 0.949 . S
C410 C414 1.368 . S
C411 C392 1.429 . S
C411 C405 1.429 . S
C411 C412 1.523 . S
C412 C393 1.368 . S
C412 C406 1.368 . S
C412 C411 1.523 . S
C413 C397 1.429 . S
C413 C409 1.429 . S
C413 C414 1.523 . S
C414 C398 1.368 . S
C414 C410 1.368 . S
C414 C413 1.523 . S
H415 C390 0.950 . S
H416 C392 0.950 . S
H417 C393 0.949 . S
H418 C395 0.950 . S
H419 C397 0.950 . S
C420 C421 1.349 . S
C420 C422 1.327 . S
C420 H445 0.950 . S
C421 C420 1.349 . S
C421 C437 1.349 . S
C422 C420 1.327 . S
C422 C441 1.429 . S
C422 H446 0.950 . S
C423 C440 1.574 . S
C423 C442 1.368 . S
C423 H447 0.949 . S
H424 C428 0.949 . S
C425 C426 1.349 . S
C425 C427 1.327 . S
C425 H448 0.950 . S
C426 C425 1.349 . S
C426 C438 1.349 . S
C427 C425 1.327 . S
C427 C443 1.429 . S
C427 H449 0.950 . S
C428 H424 0.949 . S
C428 C436 1.574 . S
C428 C444 1.368 . S
H429 C437 0.950 . S
H430 C435 0.950 . S
H431 C436 0.949 . S
H432 C438 0.950 . S
H433 C439 0.950 . S
H434 C440 0.949 . S
C435 H430 0.950 . S
C435 C437 1.327 . S
C435 C441 1.429 . S
C436 C428 1.574 . S
C436 H431 0.949 . S
C436 C442 1.368 . S
C437 C421 1.349 . S
C437 H429 0.950 . S
C437 C435 1.327 . S
C438 C426 1.349 . S
C438 H432 0.950 . S
C438 C439 1.327 . S
C439 H433 0.950 . S
C439 C438 1.327 . S
C439 C443 1.429 . S
C440 C423 1.574 . S
C440 H434 0.949 . S
C440 C444 1.368 . S
C441 C422 1.429 . S
C441 C435 1.429 . S
C441 C442 1.523 . S
C442 C423 1.368 . S
C442 C436 1.368 . S
C442 C441 1.523 . S
C443 C427 1.429 . S
C443 C439 1.429 . S
C443 C444 1.523 . S
C444 C428 1.368 . S
C444 C440 1.368 . S
C444 C443 1.523 . S
H445 C420 0.950 . S
H446 C422 0.950 . S
H447 C423 0.949 . S
H448 C425 0.950 . S
H449 C427 0.950 . S
C450 C451 1.349 . S
C450 C452 1.327 . S
C450 H475 0.950 . S
C451 C450 1.349 . S
C451 C467 1.349 . S
C452 C450 1.327 . S
C452 C471 1.429 . S
C452 H476 0.950 . S
C453 C470 1.574 . S
C453 C472 1.368 . S
C453 H477 0.949 . S
H454 C458 0.949 . S
C455 C456 1.349 . S
C455 C457 1.327 . S
C455 H478 0.950 . S
C456 C455 1.349 . S
C456 C468 1.349 . S
C457 C455 1.327 . S
C457 C473 1.429 . S
C457 H479 0.950 . S
C458 H454 0.949 . S
C458 C466 1.574 . S
C458 C474 1.368 . S
H459 C467 0.950 . S
H460 C465 0.950 . S
H461 C466 0.949 . S
H462 C468 0.950 . S
H463 C469 0.950 . S
H464 C470 0.949 . S
C465 H460 0.950 . S
C465 C467 1.327 . S
C465 C471 1.429 . S
C466 C458 1.574 . S
C466 H461 0.949 . S
C466 C472 1.368 . S
C467 C451 1.349 . S
C467 H459 0.950 . S
C467 C465 1.327 . S
C468 C456 1.349 . S
C468 H462 0.950 . S
C468 C469 1.327 . S
C469 H463 0.950 . S
C469 C468 1.327 . S
C469 C473 1.429 . S
C470 C453 1.574 . S
C470 H464 0.949 . S
C470 C474 1.368 . S
C471 C452 1.429 . S
C471 C465 1.429 . S
C471 C472 1.523 . S
C472 C453 1.368 . S
C472 C466 1.368 . S
C472 C471 1.523 . S
C473 C457 1.429 . S
C473 C469 1.429 . S
C473 C474 1.523 . S
C474 C458 1.368 . S
C474 C470 1.368 . S
C474 C473 1.523 . S
H475 C450 0.950 . S
H476 C452 0.950 . S
H477 C453 0.949 . S
H478 C455 0.950 . S
H479 C457 0.950 . S
C480 C481 1.349 . S
C480 C482 1.327 . S
C480 H505 0.950 . S
C481 C480 1.349 . S
C481 C497 1.349 . S
C482 C480 1.327 . S
C482 C501 1.429 . S
C482 H506 0.950 . S
C483 C500 1.574 . S
C483 C502 1.368 . S
C483 H507 0.949 . S
H484 C488 0.949 . S
C485 C486 1.349 . S
C485 C487 1.327 . S
C485 H508 0.950 . S
C486 C485 1.349 . S
C486 C498 1.349 . S
C487 C485 1.327 . S
C487 C503 1.429 . S
C487 H509 0.950 . S
C488 H484 0.949 . S
C488 C496 1.574 . S
C488 C504 1.368 . S
H489 C497 0.950 . S
H490 C495 0.950 . S
H491 C496 0.949 . S
H492 C498 0.950 . S
H493 C499 0.950 . S
H494 C500 0.949 . S
C495 H490 0.950 . S
C495 C497 1.327 . S
C495 C501 1.429 . S
C496 C488 1.574 . S
C496 H491 0.949 . S
C496 C502 1.368 . S
C497 C481 1.349 . S
C497 H489 0.950 . S
C497 C495 1.327 . S
C498 C486 1.349 . S
C498 H492 0.950 . S
C498 C499 1.327 . S
C499 H493 0.950 . S
C499 C498 1.327 . S
C499 C503 1.429 . S
C500 C483 1.574 . S
C500 H494 0.949 . S
C500 C504 1.368 . S
C501 C482 1.429 . S
C501 C495 1.429 . S
C501 C502 1.523 . S
C502 C483 1.368 . S
C502 C496 1.368 . S
C502 C501 1.523 . S
C503 C487 1.429 . S
C503 C499 1.429 . S
C503 C504 1.523 . S
C504 C488 1.368 . S
C504 C500 1.368 . S
C504 C503 1.523 . S
H505 C480 0.950 . S
H506 C482 0.950 . S
H507 C483 0.949 . S
H508 C485 0.950 . S
H509 C487 0.950 . S
C510 C511 1.349 . S
C510 C512 1.327 . S
C510 H535 0.950 . S
C511 C510 1.349 . S
C511 C527 1.349 . S
C512 C510 1.327 . S
C512 C531 1.429 . S
C512 H536 0.950 . S
C513 C530 1.574 . S
C513 C532 1.368 . S
C513 H537 0.949 . S
H514 C518 0.949 . S
C515 C516 1.349 . S
C515 C517 1.327 . S
C515 H538 0.950 . S
C516 C515 1.349 . S
C516 C528 1.349 . S
C517 C515 1.327 . S
C517 C533 1.429 . S
C517 H539 0.950 . S
C518 H514 0.949 . S
C518 C526 1.574 . S
C518 C534 1.368 . S
H519 C527 0.950 . S
H520 C525 0.950 . S
H521 C526 0.949 . S
H522 C528 0.950 . S
H523 C529 0.950 . S
H524 C530 0.949 . S
C525 H520 0.950 . S
C525 C527 1.327 . S
C525 C531 1.429 . S
C526 C518 1.574 . S
C526 H521 0.949 . S
C526 C532 1.368 . S
C527 C511 1.349 . S
C527 H519 0.950 . S
C527 C525 1.327 . S
C528 C516 1.349 . S
C528 H522 0.950 . S
C528 C529 1.327 . S
C529 H523 0.950 . S
C529 C528 1.327 . S
C529 C533 1.429 . S
C530 C513 1.574 . S
C530 H524 0.949 . S
C530 C534 1.368 . S
C531 C512 1.429 . S
C531 C525 1.429 . S
C531 C532 1.523 . S
C532 C513 1.368 . S
C532 C526 1.368 . S
C532 C531 1.523 . S
C533 C517 1.429 . S
C533 C529 1.429 . S
C533 C534 1.523 . S
C534 C518 1.368 . S
C534 C530 1.368 . S
C534 C533 1.523 . S
H535 C510 0.950 . S
H536 C512 0.950 . S
H537 C513 0.949 . S
H538 C515 0.950 . S
H539 C517 0.950 . S
C540 C541 1.349 . S
C540 C542 1.327 1_565 S
C540 H565 0.950 . S
C541 C540 1.349 . S
C541 C557 1.349 . S
C542 C540 1.327 1_545 S
C542 C561 1.429 . S
C542 H566 0.950 . S
C543 C560 1.574 . S
C543 C562 1.368 . S
C543 H567 0.949 . S
H544 C548 0.949 . S
C545 C546 1.349 . S
C545 C547 1.327 . S
C545 H568 0.950 . S
C546 C545 1.349 . S
C546 C558 1.349 . S
C547 C545 1.327 . S
C547 C563 1.429 . S
C547 H569 0.950 . S
C548 H544 0.949 . S
C548 C556 1.574 . S
C548 C564 1.368 . S
H549 C557 0.950 . S
H550 C555 0.950 . S
H551 C556 0.949 . S
H552 C558 0.950 . S
H553 C559 0.950 . S
H554 C560 0.949 . S
C555 H550 0.950 . S
C555 C557 1.327 . S
C555 C561 1.429 1_565 S
C556 C548 1.574 . S
C556 H551 0.949 . S
C556 C562 1.368 . S
C557 C541 1.349 . S
C557 H549 0.950 . S
C557 C555 1.327 . S
C558 C546 1.349 . S
C558 H552 0.950 . S
C558 C559 1.327 . S
C559 H553 0.950 . S
C559 C558 1.327 . S
C559 C563 1.429 . S
C560 C543 1.574 . S
C560 H554 0.949 . S
C560 C564 1.368 . S
C561 C542 1.429 . S
C561 C555 1.429 1_545 S
C561 C562 1.523 . S
C562 C543 1.368 . S
C562 C556 1.368 . S
C562 C561 1.523 . S
C563 C547 1.429 . S
C563 C559 1.429 . S
C563 C564 1.523 . S
C564 C548 1.368 . S
C564 C560 1.368 . S
C564 C563 1.523 . S
H565 C540 0.950 . S
H566 C542 0.950 . S
H567 C543 0.949 . S
H568 C545 0.950 . S
H569 C547 0.950 . S
C570 C571 1.349 . S
C570 C572 1.327 . S
C570 H595 0.950 . S
C571 C570 1.349 . S
C571 C587 1.349 . S
C572 C570 1.327 . S
C572 C591 1.429 . S
C572 H596 0.950 . S
C573 C590 1.574 . S
C573 C592 1.368 . S
C573 H597 0.949 1_655 S
H574 C578 0.949 . S
C575 C576 1.349 . S
C575 C577 1.327 1_565 S
C575 H598 0.950 . S
C576 C575 1.349 . S
C576 C588 1.349 . S
C577 C575 1.327 1_545 S
C577 C593 1.429 . S
C577 H599 0.950 . S
C578 H574 0.949 . S
C578 C586 1.574 . S
C578 C594 1.368 . S
H579 C587 0.950 . S
H580 C585 0.950 . S
H581 C586 0.949 . S
H582 C588 0.950 . S
H583 C589 0.950 . S
H584 C590 0.949 . S
C585 H580 0.950 . S
C585 C587 1.327 . S
C585 C591 1.429 . S
C586 C578 1.574 . S
C586 H581 0.949 . S
C586 C592 1.368 . S
C587 C571 1.349 . S
C587 H579 0.950 . S
C587 C585 1.327 . S
C588 C576 1.349 . S
C588 H582 0.950 . S
C588 C589 1.327 1_565 S
C589 H583 0.950 . S
C589 C588 1.327 1_545 S
C589 C593 1.429 . S
C590 C573 1.574 . S
C590 H584 0.949 . S
C590 C594 1.368 . S
C591 C572 1.429 . S
C591 C585 1.429 . S
C591 C592 1.523 1_455 S
C592 C573 1.368 . S
C592 C586 1.368 . S
C592 C591 1.523 1_655 S
C593 C577 1.429 . S
C593 C589 1.429 . S
C593 C594 1.523 . S
C594 C578 1.368 . S
C594 C590 1.368 . S
C594 C593 1.523 . S
H595 C570 0.950 . S
H596 C572 0.950 . S
H597 C573 0.949 1_455 S
H598 C575 0.950 . S
H599 C577 0.950 . S
C600 C601 1.349 . S
C600 C602 1.327 . S
C600 H625 0.950 . S
C601 C600 1.349 . S
C601 C617 1.349 . S
C602 C600 1.327 . S
C602 C621 1.414 1_455 S
C602 H626 0.950 . S
C603 C620 1.574 . S
C603 C622 1.368 . S
C603 H627 0.949 . S
H604 C608 0.949 . S
C605 C606 1.349 . S
C605 C607 1.327 . S
C605 H628 0.950 . S
C606 C605 1.349 . S
C606 C618 1.349 . S
C607 C605 1.327 . S
C607 C623 1.429 . S
C607 H629 0.950 . S
C608 H604 0.949 . S
C608 C616 1.574 . S
C608 C624 1.368 . S
H609 C617 0.950 . S
H610 C615 0.950 1_655 S
H611 C616 0.949 . S
H612 C618 0.950 . S
H613 C619 0.950 . S
H614 C620 0.949 . S
C615 H610 0.950 1_455 S
C615 C617 1.327 . S
C615 C621 1.411 1_455 S
C616 C608 1.574 . S
C616 H611 0.949 . S
C616 C622 1.368 . S
C617 C601 1.349 . S
C617 H609 0.950 . S
C617 C615 1.327 . S
C618 C606 1.349 . S
C618 H612 0.950 . S
C618 C619 1.327 . S
C619 H613 0.950 . S
C619 C618 1.327 . S
C619 C623 1.429 . S
C620 C603 1.574 . S
C620 H614 0.949 . S
C620 C624 1.368 . S
C621 C602 1.414 1_655 S
C621 C615 1.411 1_655 S
C621 C622 1.553 . S
C622 C603 1.368 . S
C622 C616 1.368 . S
C622 C621 1.553 . S
C623 C607 1.429 . S
C623 C619 1.429 . S
C623 C624 1.523 . S
C624 C608 1.368 . S
C624 C620 1.368 . S
C624 C623 1.523 . S
H625 C600 0.950 . S
H626 C602 0.950 . S
H627 C603 0.949 . S
H628 C605 0.950 . S
H629 C607 0.950 . S
C630 C631 1.349 . S
C630 C632 1.327 . S
C630 H655 0.950 . S
C631 C630 1.349 . S
C631 C647 1.349 . S
C632 C630 1.327 . S
C632 C651 1.429 . S
C632 H656 0.950 . S
C633 C650 1.574 . S
C633 C652 1.368 . S
C633 H657 0.949 . S
H634 C638 0.949 . S
C635 C636 1.349 . S
C635 C637 1.327 . S
C635 H658 0.950 . S
C636 C635 1.349 . S
C636 C648 1.349 . S
C637 C635 1.327 . S
C637 C653 1.429 . S
C637 H659 0.950 . S
C638 H634 0.949 . S
C638 C646 1.574 . S
C638 C654 1.368 . S
H639 C647 0.950 . S
H640 C645 0.950 . S
H641 C646 0.949 . S
H642 C648 0.950 . S
H643 C649 0.950 . S
H644 C650 0.949 . S
C645 H640 0.950 . S
C645 C647 1.327 . S
C645 C651 1.429 . S
C646 C638 1.574 . S
C646 H641 0.949 . S
C646 C652 1.368 . S
C647 C631 1.349 . S
C647 H639 0.950 . S
C647 C645 1.327 . S
C648 C636 1.349 . S
C648 H642 0.950 . S
C648 C649 1.327 . S
C649 H643 0.950 . S
C649 C648 1.327 . S
C649 C653 1.429 . S
C650 C633 1.574 . S
C650 H644 0.949 . S
C650 C654 1.368 . S
C651 C632 1.429 . S
C651 C645 1.429 . S
C651 C652 1.523 . S
C652 C633 1.368 . S
C652 C646 1.368 . S
C652 C651 1.523 . S
C653 C637 1.429 . S
C653 C649 1.429 . S
C653 C654 1.523 . S
C654 C638 1.368 . S
C654 C650 1.368 . S
C654 C653 1.523 . S
H655 C630 0.950 . S
H656 C632 0.950 . S
H657 C633 0.949 . S
H658 C635 0.950 . S
H659 C637 0.950 . S
C660 C661 1.349 . S
C660 C662 1.327 . S
C660 H685 0.950 . S
C661 C660 1.349 . S
C661 C677 1.349 . S
C662 C660 1.327 . S
C662 C681 1.429 . S
C662 H686 0.950 . S
C663 C680 1.574 . S
C663 C682 1.368 . S
C663 H687 0.949 . S
H664 C668 0.949 . S
C665 C666 1.349 . S
C665 C667 1.327 . S
C665 H688 0.950 . S
C666 C665 1.349 . S
C666 C678 1.349 . S
C667 C665 1.327 . S
C667 C683 1.429 . S
C667 H689 0.950 . S
C668 H664 0.949 . S
C668 C676 1.574 . S
C668 C684 1.368 . S
H669 C677 0.950 . S
H670 C675 0.950 . S
H671 C676 0.949 . S
H672 C678 0.950 . S
H673 C679 0.950 . S
H674 C680 0.949 . S
C675 H670 0.950 . S
C675 C677 1.327 . S
C675 C681 1.429 . S
C676 C668 1.574 . S
C676 H671 0.949 . S
C676 C682 1.368 . S
C677 C661 1.349 . S
C677 H669 0.950 . S
C677 C675 1.327 . S
C678 C666 1.349 . S
C678 H672 0.950 . S
C678 C679 1.327 . S
C679 H673 0.950 . S
C679 C678 1.327 . S
C679 C683 1.429 . S
C680 C663 1.574 . S
C680 H674 0.949 . S
C680 C684 1.368 . S
C681 C662 1.429 . S
C681 C675 1.429 . S
C681 C682 1.523 . S
C682 C663 1.368 . S
C682 C676 1.368 . S
C682 C681 1.523 . S
C683 C667 1.429 . S
C683 C679 1.429 . S
C683 C684 1.523 . S
C684 C668 1.368 . S
C684 C680 1.368 . S
C684 C683 1.523 . S
H685 C660 0.950 . S
H686 C662 0.950 . S
H687 C663 0.949 . S
H688 C665 0.950 . S
H689 C667 0.950 . S
C690 C691 1.349 . S
C690 C692 1.327 . S
C690 H715 0.950 . S
C691 C690 1.349 . S
C691 C707 1.349 . S
C692 C690 1.327 . S
C692 C711 1.429 . S
C692 H716 0.950 . S
C693 C710 1.574 . S
C693 C712 1.368 . S
C693 H717 0.949 . S
H694 C698 0.949 . S
C695 C696 1.349 . S
C695 C697 1.327 . S
C695 H718 0.950 . S
C696 C695 1.349 . S
C696 C708 1.349 . S
C697 C695 1.327 . S
C697 C713 1.429 . S
C697 H719 0.950 . S
C698 H694 0.949 . S
C698 C706 1.574 . S
C698 C714 1.368 . S
H699 C707 0.950 . S
H700 C705 0.950 . S
H701 C706 0.949 . S
H702 C708 0.950 . S
H703 C709 0.950 . S
H704 C710 0.949 . S
C705 H700 0.950 . S
C705 C707 1.327 . S
C705 C711 1.429 . S
C706 C698 1.574 . S
C706 H701 0.949 . S
C706 C712 1.368 . S
C707 C691 1.349 . S
C707 H699 0.950 . S
C707 C705 1.327 . S
C708 C696 1.349 . S
C708 H702 0.950 . S
C708 C709 1.327 . S
C709 H703 0.950 . S
C709 C708 1.327 . S
C709 C713 1.429 . S
C710 C693 1.574 . S
C710 H704 0.949 . S
C710 C714 1.368 . S
C711 C692 1.429 . S
C711 C705 1.429 . S
C711 C712 1.523 . S
C712 C693 1.368 . S
C712 C706 1.368 . S
C712 C711 1.523 . S
C713 C697 1.429 . S
C713 C709 1.429 . S
C713 C714 1.523 . S
C714 C698 1.368 . S
C714 C710 1.368 . S
C714 C713 1.523 . S
H715 C690 0.950 . S
H716 C692 0.950 . S
H717 C693 0.949 . S
H718 C695 0.950 . S
H719 C697 0.950 . S
C720 C721 1.349 . S
C720 C722 1.327 . S
C720 H745 0.950 . S
C721 C720 1.349 . S
C721 C737 1.349 . S
C722 C720 1.327 . S
C722 C741 1.429 . S
C722 H746 0.950 . S
C723 C740 1.574 . S
C723 C742 1.368 . S
C723 H747 0.949 . S
H724 C728 0.949 . S
C725 C726 1.349 . S
C725 C727 1.327 . S
C725 H748 0.950 . S
C726 C725 1.349 . S
C726 C738 1.349 . S
C727 C725 1.327 . S
C727 C743 1.429 . S
C727 H749 0.950 . S
C728 H724 0.949 . S
C728 C736 1.574 . S
C728 C744 1.368 . S
H729 C737 0.950 . S
H730 C735 0.950 . S
H731 C736 0.949 . S
H732 C738 0.950 . S
H733 C739 0.950 . S
H734 C740 0.949 . S
C735 H730 0.950 . S
C735 C737 1.327 . S
C735 C741 1.429 . S
C736 C728 1.574 . S
C736 H731 0.949 . S
C736 C742 1.368 . S
C737 C721 1.349 . S
C737 H729 0.950 . S
C737 C735 1.327 . S
C738 C726 1.349 . S
C738 H732 0.950 . S
C738 C739 1.327 . S
C739 H733 0.950 . S
C739 C738 1.327 . S
C739 C743 1.429 . S
C740 C723 1.574 . S
C740 H734 0.949 . S
C740 C744 1.368 . S
C741 C722 1.429 . S
C741 C735 1.429 . S
C741 C742 1.523 . S
C742 C723 1.368 . S
C742 C736 1.368 . S
C742 C741 1.523 . S
C743 C727 1.429 . S
C743 C739 1.429 . S
C743 C744 1.523 . S
C744 C728 1.368 . S
C744 C740 1.368 . S
C744 C743 1.523 . S
H745 C720 0.950 . S
H746 C722 0.950 . S
H747 C723 0.949 . S
H748 C725 0.950 . S
H749 C727 0.950 . S
C750 C751 1.349 . S
C750 C752 1.327 . S
C750 H775 0.950 . S
C751 C750 1.349 . S
C751 C767 1.349 . S
C752 C750 1.327 . S
C752 C771 1.429 . S
C752 H776 0.950 . S
C753 C770 1.574 . S
C753 C772 1.368 . S
C753 H777 0.949 . S
H754 C758 0.949 . S
C755 C756 1.349 . S
C755 C757 1.327 . S
C755 H778 0.950 . S
C756 C755 1.349 . S
C756 C768 1.349 . S
C757 C755 1.327 . S
C757 C773 1.429 . S
C757 H779 0.950 . S
C758 H754 0.949 . S
C758 C766 1.574 . S
C758 C774 1.368 . S
H759 C767 0.950 . S
H760 C765 0.950 . S
H761 C766 0.949 . S
H762 C768 0.950 . S
H763 C769 0.950 . S
H764 C770 0.949 . S
C765 H760 0.950 . S
C765 C767 1.327 . S
C765 C771 1.429 . S
C766 C758 1.574 . S
C766 H761 0.949 . S
C766 C772 1.368 . S
C767 C751 1.349 . S
C767 H759 0.950 . S
C767 C765 1.327 . S
C768 C756 1.349 . S
C768 H762 0.950 . S
C768 C769 1.327 . S
C769 H763 0.950 . S
C769 C768 1.327 . S
C769 C773 1.429 . S
C770 C753 1.574 . S
C770 H764 0.949 . S
C770 C774 1.368 . S
C771 C752 1.429 . S
C771 C765 1.429 . S
C771 C772 1.523 . S
C772 C753 1.368 . S
C772 C766 1.368 . S
C772 C771 1.523 . S
C773 C757 1.429 . S
C773 C769 1.429 . S
C773 C774 1.523 . S
C774 C758 1.368 . S
C774 C770 1.368 . S
C774 C773 1.523 . S
H775 C750 0.950 . S
H776 C752 0.950 . S
H777 C753 0.949 . S
H778 C755 0.950 . S
H779 C757 0.950 . S
C780 C781 1.349 . S
C780 C782 1.327 . S
C780 H805 0.950 . S
C781 C780 1.349 . S
C781 C797 1.349 . S
C782 C780 1.327 . S
C782 C801 1.429 . S
C782 H806 0.950 . S
C783 C800 1.574 . S
C783 C802 1.368 . S
C783 H807 0.949 . S
H784 C788 0.949 . S
C785 C786 1.349 . S
C785 C787 1.327 . S
C785 H808 0.950 . S
C786 C785 1.349 . S
C786 C798 1.349 . S
C787 C785 1.327 . S
C787 C803 1.429 . S
C787 H809 0.950 . S
C788 H784 0.949 . S
C788 C796 1.574 . S
C788 C804 1.368 . S
H789 C797 0.950 . S
H790 C795 0.950 . S
H791 C796 0.949 . S
H792 C798 0.950 . S
H793 C799 0.950 . S
H794 C800 0.949 . S
C795 H790 0.950 . S
C795 C797 1.327 . S
C795 C801 1.429 . S
C796 C788 1.574 . S
C796 H791 0.949 . S
C796 C802 1.368 . S
C797 C781 1.349 . S
C797 H789 0.950 . S
C797 C795 1.327 . S
C798 C786 1.349 . S
C798 H792 0.950 . S
C798 C799 1.327 . S
C799 H793 0.950 . S
C799 C798 1.327 . S
C799 C803 1.429 . S
C800 C783 1.574 . S
C800 H794 0.949 . S
C800 C804 1.368 . S
C801 C782 1.429 . S
C801 C795 1.429 . S
C801 C802 1.523 . S
C802 C783 1.368 . S
C802 C796 1.368 . S
C802 C801 1.523 . S
C803 C787 1.429 . S
C803 C799 1.429 . S
C803 C804 1.523 . S
C804 C788 1.368 . S
C804 C800 1.368 . S
C804 C803 1.523 . S
H805 C780 0.950 . S
H806 C782 0.950 . S
H807 C783 0.949 . S
H808 C785 0.950 . S
H809 C787 0.950 . S
C810 C811 1.349 . S
C810 C812 1.327 1_655 S
C810 H835 0.950 . S
C811 C810 1.349 . S
C811 C827 1.349 . S
C812 C810 1.327 1_455 S
C812 C831 1.429 . S
C812 H836 0.950 . S
C813 C830 1.574 . S
C813 C832 1.368 . S
C813 H837 0.949 . S
H814 C818 0.949 . S
C815 C816 1.349 . S
C815 C817 1.327 . S
C815 H838 0.950 . S
C816 C815 1.349 . S
C816 C828 1.349 . S
C817 C815 1.327 . S
C817 C833 1.429 . S
C817 H839 0.950 . S
C818 H814 0.949 . S
C818 C826 1.574 . S
C818 C834 1.368 . S
H819 C827 0.950 . S
H820 C825 0.950 . S
H821 C826 0.949 . S
H822 C828 0.950 . S
H823 C829 0.950 . S
H824 C830 0.949 . S
C825 H820 0.950 . S
C825 C827 1.327 . S
C825 C831 1.429 1_655 S
C826 C818 1.574 . S
C826 H821 0.949 . S
C826 C832 1.368 . S
C827 C811 1.349 . S
C827 H819 0.950 . S
C827 C825 1.327 . S
C828 C816 1.349 . S
C828 H822 0.950 . S
C828 C829 1.327 . S
C829 H823 0.950 . S
C829 C828 1.327 . S
C829 C833 1.429 . S
C830 C813 1.574 . S
C830 H824 0.949 . S
C830 C834 1.368 . S
C831 C812 1.429 . S
C831 C825 1.429 1_455 S
C831 C832 1.523 . S
C832 C813 1.368 . S
C832 C826 1.368 . S
C832 C831 1.523 . S
C833 C817 1.429 . S
C833 C829 1.429 . S
C833 C834 1.523 . S
C834 C818 1.368 . S
C834 C830 1.368 . S
C834 C833 1.523 . S
H835 C810 0.950 . S
H836 C812 0.950 . S
H837 C813 0.949 . S
H838 C815 0.950 . S
H839 C817 0.950 . S
C840 C841 1.349 . S
C840 C842 1.327 . S
C840 H865 0.950 . S
C841 C840 1.349 . S
C841 C857 1.349 . S
C842 C840 1.327 . S
C842 C861 1.429 . S
C842 H866 0.950 . S
C843 C860 1.574 . S
C843 C862 1.368 . S
C843 H867 0.949 . S
H844 C848 0.949 . S
C845 C846 1.349 . S
C845 C847 1.327 . S
C845 H868 0.950 . S
C846 C845 1.349 . S
C846 C858 1.349 . S
C847 C845 1.327 . S
C847 C863 1.411 1_545 S
C847 H869 0.950 1_545 S
C848 H844 0.949 . S
C848 C856 1.574 . S
C848 C864 1.368 . S
H849 C857 0.950 . S
H850 C855 0.950 . S
H851 C856 0.949 . S
H852 C858 0.950 . S
H853 C859 0.950 . S
H854 C860 0.949 . S
C855 H850 0.950 . S
C855 C857 1.327 . S
C855 C861 1.429 . S
C856 C848 1.574 . S
C856 H851 0.949 . S
C856 C862 1.368 . S
C857 C841 1.349 . S
C857 H849 0.950 . S
C857 C855 1.327 . S
C858 C846 1.349 . S
C858 H852 0.950 . S
C858 C859 1.327 . S
C859 H853 0.950 . S
C859 C858 1.327 . S
C859 C863 1.413 1_545 S
C860 C843 1.574 . S
C860 H854 0.949 . S
C860 C864 1.368 . S
C861 C842 1.429 . S
C861 C855 1.429 . S
C861 C862 1.523 . S
C862 C843 1.368 . S
C862 C856 1.368 . S
C862 C861 1.523 . S
C863 C847 1.411 1_565 S
C863 C859 1.413 1_565 S
C863 C864 1.553 . S
C864 C848 1.368 . S
C864 C860 1.368 . S
C864 C863 1.553 . S
H865 C840 0.950 . S
H866 C842 0.950 . S
H867 C843 0.949 . S
H868 C845 0.950 . S
H869 C847 0.950 1_565 S
C870 C871 1.349 . S
C870 C872 1.327 . S
C870 H895 0.950 . S
C871 C870 1.349 . S
C871 C887 1.349 . S
C872 C870 1.327 . S
C872 C891 1.429 . S
C872 H896 0.950 . S
C873 C890 1.574 . S
C873 C892 1.368 . S
C873 H897 0.949 . S
H874 C878 0.949 . S
C875 C876 1.349 . S
C875 C877 1.327 1_655 S
C875 H898 0.950 . S
C876 C875 1.349 . S
C876 C888 1.349 . S
C877 C875 1.327 1_455 S
C877 C893 1.429 . S
C877 H899 0.950 . S
C878 H874 0.949 . S
C878 C886 1.574 . S
C878 C894 1.368 . S
H879 C887 0.950 . S
H880 C885 0.950 . S
H881 C886 0.949 1_545 S
H882 C888 0.950 . S
H883 C889 0.950 . S
H884 C890 0.949 . S
C885 H880 0.950 . S
C885 C887 1.327 . S
C885 C891 1.429 . S
C886 C878 1.574 . S
C886 H881 0.949 1_565 S
C886 C892 1.368 . S
C887 C871 1.349 . S
C887 H879 0.950 . S
C887 C885 1.327 . S
C888 C876 1.349 . S
C888 H882 0.950 . S
C888 C889 1.327 1_655 S
C889 H883 0.950 . S
C889 C888 1.327 1_455 S
C889 C893 1.429 . S
C890 C873 1.574 . S
C890 H884 0.949 . S
C890 C894 1.368 . S
C891 C872 1.429 . S
C891 C885 1.429 . S
C891 C892 1.523 1_545 S
C892 C873 1.368 . S
C892 C886 1.368 . S
C892 C891 1.523 1_565 S
C893 C877 1.429 . S
C893 C889 1.429 . S
C893 C894 1.523 . S
C894 C878 1.368 . S
C894 C890 1.368 . S
C894 C893 1.523 . S
H895 C870 0.950 . S
H896 C872 0.950 . S
H897 C873 0.949 . S
H898 C875 0.950 . S
H899 C877 0.950 . S
C900 C901 1.349 1_565 S
C900 C902 1.327 . S
C900 H925 0.950 . S
C901 C900 1.349 1_545 S
C901 C917 1.349 . S
C902 C900 1.327 . S
C902 C921 1.429 1_565 S
C902 H926 0.950 . S
C903 C920 1.574 1_554 S
C903 C922 1.368 . S
C903 H927 0.949 . S
H904 C908 0.949 . S
C905 C906 1.349 . S
C905 C907 1.327 . S
C905 H928 0.950 . S
C906 C905 1.349 . S
C906 C918 1.349 1_545 S
C907 C905 1.327 . S
C907 C923 1.429 . S
C907 H929 0.950 . S
C908 H904 0.949 . S
C908 C916 1.574 1_556 S
C908 C924 1.368 1_565 S
H909 C917 0.950 . S
H910 C915 0.950 . S
H911 C916 0.949 . S
H912 C918 0.950 . S
H913 C919 0.950 . S
H914 C920 0.949 . S
C915 H910 0.950 . S
C915 C917 1.327 . S
C915 C921 1.429 . S
C916 C908 1.574 1_554 S
C916 H911 0.949 . S
C916 C922 1.368 1_565 S
C917 C901 1.349 . S
C917 H909 0.950 . S
C917 C915 1.327 . S
C918 C906 1.349 1_565 S
C918 H912 0.950 . S
C918 C919 1.327 . S
C919 H913 0.950 . S
C919 C918 1.327 . S
C919 C923 1.429 1_565 S
C920 C903 1.574 1_556 S
C920 H914 0.949 . S
C920 C924 1.368 . S
C921 C902 1.429 1_545 S
C921 C915 1.429 . S
C921 C922 1.523 . S
C922 C903 1.368 . S
C922 C916 1.368 1_545 S
C922 C921 1.523 . S
C923 C907 1.429 . S
C923 C919 1.429 1_545 S
C923 C924 1.523 . S
C924 C908 1.368 1_545 S
C924 C920 1.368 . S
C924 C923 1.523 . S
H925 C900 0.950 . S
H926 C902 0.950 . S
H927 C903 0.949 . S
H928 C905 0.950 . S
H929 C907 0.950 . S
C930 C931 1.349 . S
C930 C932 1.327 . S
C930 H955 0.950 . S
C931 C930 1.349 . S
C931 C947 1.349 . S
C932 C930 1.327 . S
C932 C951 1.429 . S
C932 H956 0.950 . S
C933 C950 1.574 1_556 S
C933 C952 1.368 . S
C933 H957 0.949 . S
H934 C938 0.949 . S
C935 C936 1.349 . S
C935 C937 1.327 . S
C935 H958 0.950 . S
C936 C935 1.349 . S
C936 C948 1.349 . S
C937 C935 1.327 . S
C937 C953 1.429 . S
C937 H959 0.950 . S
C938 H934 0.949 . S
C938 C946 1.574 1_554 S
C938 C954 1.368 . S
H939 C947 0.950 . S
H940 C945 0.950 . S
H941 C946 0.949 . S
H942 C948 0.950 . S
H943 C949 0.950 . S
H944 C950 0.949 . S
C945 H940 0.950 . S
C945 C947 1.327 . S
C945 C951 1.429 . S
C946 C938 1.574 1_556 S
C946 H941 0.949 . S
C946 C952 1.368 . S
C947 C931 1.349 . S
C947 H939 0.950 . S
C947 C945 1.327 . S
C948 C936 1.349 . S
C948 H942 0.950 . S
C948 C949 1.327 . S
C949 H943 0.950 . S
C949 C948 1.327 . S
C949 C953 1.429 . S
C950 C933 1.574 1_554 S
C950 H944 0.949 . S
C950 C954 1.368 . S
C951 C932 1.429 . S
C951 C945 1.429 . S
C951 C952 1.523 . S
C952 C933 1.368 . S
C952 C946 1.368 . S
C952 C951 1.523 . S
C953 C937 1.429 . S
C953 C949 1.429 . S
C953 C954 1.523 . S
C954 C938 1.368 . S
C954 C950 1.368 . S
C954 C953 1.523 . S
H955 C930 0.950 . S
H956 C932 0.950 . S
H957 C933 0.949 . S
H958 C935 0.950 . S
H959 C937 0.950 . S
C960 C961 1.349 . S
C960 C962 1.327 . S
C960 H985 0.950 . S
C961 C960 1.349 . S
C961 C977 1.349 . S
C962 C960 1.327 . S
C962 C981 1.429 . S
C962 H986 0.950 . S
C963 C980 1.574 1_556 S
C963 C982 1.368 . S
C963 H987 0.949 . S
H964 C968 0.949 . S
C965 C966 1.349 . S
C965 C967 1.327 . S
C965 H988 0.950 . S
C966 C965 1.349 . S
C966 C978 1.349 . S
C967 C965 1.327 . S
C967 C983 1.429 . S
C967 H989 0.950 . S
C968 H964 0.949 . S
C968 C976 1.574 1_554 S
C968 C984 1.368 . S
H969 C977 0.950 . S
H970 C975 0.950 . S
H971 C976 0.949 . S
H972 C978 0.950 . S
H973 C979 0.950 . S
H974 C980 0.949 . S
C975 H970 0.950 . S
C975 C977 1.327 . S
C975 C981 1.429 . S
C976 C968 1.574 1_556 S
C976 H971 0.949 . S
C976 C982 1.368 . S
C977 C961 1.349 . S
C977 H969 0.950 . S
C977 C975 1.327 . S
C978 C966 1.349 . S
C978 H972 0.950 . S
C978 C979 1.327 . S
C979 H973 0.950 . S
C979 C978 1.327 . S
C979 C983 1.429 . S
C980 C963 1.574 1_554 S
C980 H974 0.949 . S
C980 C984 1.368 . S
C981 C962 1.429 . S
C981 C975 1.429 . S
C981 C982 1.523 . S
C982 C963 1.368 . S
C982 C976 1.368 . S
C982 C981 1.523 . S
C983 C967 1.429 . S
C983 C979 1.429 . S
C983 C984 1.523 . S
C984 C968 1.368 . S
C984 C980 1.368 . S
C984 C983 1.523 . S
H985 C960 0.950 . S
H986 C962 0.950 . S
H987 C963 0.949 . S
H988 C965 0.950 . S
H989 C967 0.950 . S
C990 C991 1.349 . S
C990 C992 1.327 . S
C990 H1015 0.950 . S
C991 C990 1.349 . S
C991 C1007 1.349 . S
C992 C990 1.327 . S
C992 C1011 1.429 . S
C992 H1016 0.950 . S
C993 C1010 1.574 . S
C993 C1012 1.368 . S
C993 H1017 0.949 . S
H994 C998 0.949 . S
C995 C996 1.349 . S
C995 C997 1.327 . S
C995 H1018 0.950 . S
C996 C995 1.349 . S
C996 C1008 1.349 . S
C997 C995 1.327 . S
C997 C1013 1.429 . S
C997 H1019 0.950 . S
C998 H994 0.949 . S
C998 C1006 1.574 . S
C998 C1014 1.368 . S
H999 C1007 0.950 . S
H1000 C1005 0.950 . S
H1001 C1006 0.949 . S
H1002 C1008 0.950 . S
H1003 C1009 0.950 . S
H1004 C1010 0.949 . S
C1005 H1000 0.950 . S
C1005 C1007 1.327 . S
C1005 C1011 1.429 . S
C1006 C998 1.574 . S
C1006 H1001 0.949 . S
C1006 C1012 1.368 . S
C1007 C991 1.349 . S
C1007 H999 0.950 . S
C1007 C1005 1.327 . S
C1008 C996 1.349 . S
C1008 H1002 0.950 . S
C1008 C1009 1.327 . S
C1009 H1003 0.950 . S
C1009 C1008 1.327 . S
C1009 C1013 1.429 . S
C1010 C993 1.574 . S
C1010 H1004 0.949 . S
C1010 C1014 1.368 . S
C1011 C992 1.429 . S
C1011 C1005 1.429 . S
C1011 C1012 1.523 . S
C1012 C993 1.368 . S
C1012 C1006 1.368 . S
C1012 C1011 1.523 . S
C1013 C997 1.429 . S
C1013 C1009 1.429 . S
C1013 C1014 1.523 . S
C1014 C998 1.368 . S
C1014 C1010 1.368 . S
C1014 C1013 1.523 . S
H1015 C990 0.950 . S
H1016 C992 0.950 . S
H1017 C993 0.949 . S
H1018 C995 0.950 . S
H1019 C997 0.950 . S
C1020 C1021 1.349 . S
C1020 C1022 1.327 . S
C1020 H1045 0.950 . S
C1021 C1020 1.349 . S
C1021 C1037 1.349 . S
C1022 C1020 1.327 . S
C1022 C1041 1.429 . S
C1022 H1046 0.950 . S
C1023 C1040 1.574 . S
C1023 C1042 1.368 . S
C1023 H1047 0.949 . S
H1024 C1028 0.949 . S
C1025 C1026 1.349 . S
C1025 C1027 1.327 . S
C1025 H1048 0.950 . S
C1026 C1025 1.349 . S
C1026 C1038 1.349 . S
C1027 C1025 1.327 . S
C1027 C1043 1.429 . S
C1027 H1049 0.950 . S
C1028 H1024 0.949 . S
C1028 C1036 1.574 . S
C1028 C1044 1.368 . S
H1029 C1037 0.950 . S
H1030 C1035 0.950 . S
H1031 C1036 0.949 . S
H1032 C1038 0.950 . S
H1033 C1039 0.950 . S
H1034 C1040 0.949 . S
C1035 H1030 0.950 . S
C1035 C1037 1.327 . S
C1035 C1041 1.429 . S
C1036 C1028 1.574 . S
C1036 H1031 0.949 . S
C1036 C1042 1.368 . S
C1037 C1021 1.349 . S
C1037 H1029 0.950 . S
C1037 C1035 1.327 . S
C1038 C1026 1.349 . S
C1038 H1032 0.950 . S
C1038 C1039 1.327 . S
C1039 H1033 0.950 . S
C1039 C1038 1.327 . S
C1039 C1043 1.429 . S
C1040 C1023 1.574 . S
C1040 H1034 0.949 . S
C1040 C1044 1.368 . S
C1041 C1022 1.429 . S
C1041 C1035 1.429 . S
C1041 C1042 1.523 . S
C1042 C1023 1.368 . S
C1042 C1036 1.368 . S
C1042 C1041 1.523 . S
C1043 C1027 1.429 . S
C1043 C1039 1.429 . S
C1043 C1044 1.523 . S
C1044 C1028 1.368 . S
C1044 C1040 1.368 . S
C1044 C1043 1.523 . S
H1045 C1020 0.950 . S
H1046 C1022 0.950 . S
H1047 C1023 0.949 . S
H1048 C1025 0.950 . S
H1049 C1027 0.950 . S
C1050 C1051 1.349 . S
C1050 C1052 1.327 . S
C1050 H1075 0.950 . S
C1051 C1050 1.349 . S
C1051 C1067 1.349 . S
C1052 C1050 1.327 . S
C1052 C1071 1.429 . S
C1052 H1076 0.950 . S
C1053 C1070 1.574 . S
C1053 C1072 1.368 . S
C1053 H1077 0.949 . S
H1054 C1058 0.949 . S
C1055 C1056 1.349 . S
C1055 C1057 1.327 . S
C1055 H1078 0.950 . S
C1056 C1055 1.349 . S
C1056 C1068 1.349 . S
C1057 C1055 1.327 . S
C1057 C1073 1.429 . S
C1057 H1079 0.950 . S
C1058 H1054 0.949 . S
C1058 C1066 1.574 . S
C1058 C1074 1.368 . S
H1059 C1067 0.950 . S
H1060 C1065 0.950 . S
H1061 C1066 0.949 . S
H1062 C1068 0.950 . S
H1063 C1069 0.950 . S
H1064 C1070 0.949 . S
C1065 H1060 0.950 . S
C1065 C1067 1.327 . S
C1065 C1071 1.429 . S
C1066 C1058 1.574 . S
C1066 H1061 0.949 . S
C1066 C1072 1.368 . S
C1067 C1051 1.349 . S
C1067 H1059 0.950 . S
C1067 C1065 1.327 . S
C1068 C1056 1.349 . S
C1068 H1062 0.950 . S
C1068 C1069 1.327 . S
C1069 H1063 0.950 . S
C1069 C1068 1.327 . S
C1069 C1073 1.429 . S
C1070 C1053 1.574 . S
C1070 H1064 0.949 . S
C1070 C1074 1.368 . S
C1071 C1052 1.429 . S
C1071 C1065 1.429 . S
C1071 C1072 1.523 . S
C1072 C1053 1.368 . S
C1072 C1066 1.368 . S
C1072 C1071 1.523 . S
C1073 C1057 1.429 . S
C1073 C1069 1.429 . S
C1073 C1074 1.523 . S
C1074 C1058 1.368 . S
C1074 C1070 1.368 . S
C1074 C1073 1.523 . S
H1075 C1050 0.950 . S
H1076 C1052 0.950 . S
H1077 C1053 0.949 . S
H1078 C1055 0.950 . S
H1079 C1057 0.950 . S
C1080 C1081 1.349 . S
C1080 C1082 1.327 . S
C1080 H1105 0.950 . S
C1081 C1080 1.349 . S
C1081 C1097 1.349 . S
C1082 C1080 1.327 . S
C1082 C1101 1.429 . S
C1082 H1106 0.950 . S
C1083 C1100 1.574 . S
C1083 C1102 1.368 . S
C1083 H1107 0.949 . S
H1084 C1088 0.949 . S
C1085 C1086 1.349 . S
C1085 C1087 1.327 . S
C1085 H1108 0.950 . S
C1086 C1085 1.349 . S
C1086 C1098 1.349 . S
C1087 C1085 1.327 . S
C1087 C1103 1.429 . S
C1087 H1109 0.950 . S
C1088 H1084 0.949 . S
C1088 C1096 1.574 . S
C1088 C1104 1.368 . S
H1089 C1097 0.950 . S
H1090 C1095 0.950 . S
H1091 C1096 0.949 . S
H1092 C1098 0.950 . S
H1093 C1099 0.950 . S
H1094 C1100 0.949 . S
C1095 H1090 0.950 . S
C1095 C1097 1.327 . S
C1095 C1101 1.429 . S
C1096 C1088 1.574 . S
C1096 H1091 0.949 . S
C1096 C1102 1.368 . S
C1097 C1081 1.349 . S
C1097 H1089 0.950 . S
C1097 C1095 1.327 . S
C1098 C1086 1.349 . S
C1098 H1092 0.950 . S
C1098 C1099 1.327 . S
C1099 H1093 0.950 . S
C1099 C1098 1.327 . S
C1099 C1103 1.429 . S
C1100 C1083 1.574 . S
C1100 H1094 0.949 . S
C1100 C1104 1.368 . S
C1101 C1082 1.429 . S
C1101 C1095 1.429 . S
C1101 C1102 1.523 . S
C1102 C1083 1.368 . S
C1102 C1096 1.368 . S
C1102 C1101 1.523 . S
C1103 C1087 1.429 . S
C1103 C1099 1.429 . S
C1103 C1104 1.523 . S
C1104 C1088 1.368 . S
C1104 C1100 1.368 . S
C1104 C1103 1.523 . S
H1105 C1080 0.950 . S
H1106 C1082 0.950 . S
H1107 C1083 0.949 . S
H1108 C1085 0.950 . S
H1109 C1087 0.950 . S
C1110 C1111 1.349 . S
C1110 C1112 1.327 . S
C1110 H1135 0.950 . S
C1111 C1110 1.349 . S
C1111 C1127 1.349 . S
C1112 C1110 1.327 . S
C1112 C1131 1.429 . S
C1112 H1136 0.950 . S
C1113 C1130 1.574 . S
C1113 C1132 1.368 . S
C1113 H1137 0.949 . S
H1114 C1118 0.949 . S
C1115 C1116 1.349 . S
C1115 C1117 1.327 . S
C1115 H1138 0.950 . S
C1116 C1115 1.349 . S
C1116 C1128 1.349 . S
C1117 C1115 1.327 . S
C1117 C1133 1.429 . S
C1117 H1139 0.950 . S
C1118 H1114 0.949 . S
C1118 C1126 1.574 . S
C1118 C1134 1.368 . S
H1119 C1127 0.950 . S
H1120 C1125 0.950 . S
H1121 C1126 0.949 . S
H1122 C1128 0.950 . S
H1123 C1129 0.950 . S
H1124 C1130 0.949 . S
C1125 H1120 0.950 . S
C1125 C1127 1.327 . S
C1125 C1131 1.429 . S
C1126 C1118 1.574 . S
C1126 H1121 0.949 . S
C1126 C1132 1.368 . S
C1127 C1111 1.349 . S
C1127 H1119 0.950 . S
C1127 C1125 1.327 . S
C1128 C1116 1.349 . S
C1128 H1122 0.950 . S
C1128 C1129 1.327 . S
C1129 H1123 0.950 . S
C1129 C1128 1.327 . S
C1129 C1133 1.429 . S
C1130 C1113 1.574 . S
C1130 H1124 0.949 . S
C1130 C1134 1.368 . S
C1131 C1112 1.429 . S
C1131 C1125 1.429 . S
C1131 C1132 1.523 . S
C1132 C1113 1.368 . S
C1132 C1126 1.368 . S
C1132 C1131 1.523 . S
C1133 C1117 1.429 . S
C1133 C1129 1.429 . S
C1133 C1134 1.523 . S
C1134 C1118 1.368 . S
C1134 C1130 1.368 . S
C1134 C1133 1.523 . S
H1135 C1110 0.950 . S
H1136 C1112 0.950 . S
H1137 C1113 0.949 . S
H1138 C1115 0.950 . S
H1139 C1117 0.950 . S
C1140 C1141 1.349 . S
C1140 C1142 1.327 . S
C1140 H1165 0.950 . S
C1141 C1140 1.349 . S
C1141 C1157 1.349 . S
C1142 C1140 1.327 . S
C1142 C1161 1.429 . S
C1142 H1166 0.950 . S
C1143 C1160 1.574 . S
C1143 C1162 1.368 . S
C1143 H1167 0.949 . S
H1144 C1148 0.949 . S
C1145 C1146 1.349 . S
C1145 C1147 1.327 . S
C1145 H1168 0.950 . S
C1146 C1145 1.349 . S
C1146 C1158 1.349 . S
C1147 C1145 1.327 . S
C1147 C1163 1.429 . S
C1147 H1169 0.950 . S
C1148 H1144 0.949 . S
C1148 C1156 1.574 . S
C1148 C1164 1.368 . S
H1149 C1157 0.950 . S
H1150 C1155 0.950 . S
H1151 C1156 0.949 . S
H1152 C1158 0.950 . S
H1153 C1159 0.950 . S
H1154 C1160 0.949 . S
C1155 H1150 0.950 . S
C1155 C1157 1.327 . S
C1155 C1161 1.429 . S
C1156 C1148 1.574 . S
C1156 H1151 0.949 . S
C1156 C1162 1.368 . S
C1157 C1141 1.349 . S
C1157 H1149 0.950 . S
C1157 C1155 1.327 . S
C1158 C1146 1.349 . S
C1158 H1152 0.950 . S
C1158 C1159 1.327 . S
C1159 H1153 0.950 . S
C1159 C1158 1.327 . S
C1159 C1163 1.429 . S
C1160 C1143 1.574 . S
C1160 H1154 0.949 . S
C1160 C1164 1.368 . S
C1161 C1142 1.429 . S
C1161 C1155 1.429 . S
C1161 C1162 1.523 . S
C1162 C1143 1.368 . S
C1162 C1156 1.368 . S
C1162 C1161 1.523 . S
C1163 C1147 1.429 . S
C1163 C1159 1.429 . S
C1163 C1164 1.523 . S
C1164 C1148 1.368 . S
C1164 C1160 1.368 . S
C1164 C1163 1.523 . S
H1165 C1140 0.950 . S
H1166 C1142 0.950 . S
H1167 C1143 0.949 . S
H1168 C1145 0.950 . S
H1169 C1147 0.950 . S
C1170 C1171 1.349 . S
C1170 C1172 1.327 . S
C1170 H1195 0.950 . S
C1171 C1170 1.349 . S
C1171 C1187 1.349 . S
C1172 C1170 1.327 . S
C1172 C1191 1.429 . S
C1172 H1196 0.950 . S
C1173 C1190 1.574 . S
C1173 C1192 1.368 . S
C1173 H1197 0.949 . S
H1174 C1178 0.949 . S
C1175 C1176 1.349 . S
C1175 C1177 1.327 . S
C1175 H1198 0.950 1_565 S
C1176 C1175 1.349 . S
C1176 C1188 1.349 . S
C1177 C1175 1.327 . S
C1177 C1193 1.429 . S
C1177 H1199 0.950 . S
C1178 H1174 0.949 . S
C1178 C1186 1.574 . S
C1178 C1194 1.368 . S
H1179 C1187 0.950 . S
H1180 C1185 0.950 . S
H1181 C1186 0.949 . S
H1182 C1188 0.950 . S
H1183 C1189 0.950 . S
H1184 C1190 0.949 . S
C1185 H1180 0.950 . S
C1185 C1187 1.327 . S
C1185 C1191 1.429 . S
C1186 C1178 1.574 . S
C1186 H1181 0.949 . S
C1186 C1192 1.368 . S
C1187 C1171 1.349 . S
C1187 H1179 0.950 . S
C1187 C1185 1.327 . S
C1188 C1176 1.349 . S
C1188 H1182 0.950 . S
C1188 C1189 1.327 . S
C1189 H1183 0.950 . S
C1189 C1188 1.327 . S
C1189 C1193 1.429 . S
C1190 C1173 1.574 . S
C1190 H1184 0.949 . S
C1190 C1194 1.368 . S
C1191 C1172 1.429 . S
C1191 C1185 1.429 . S
C1191 C1192 1.523 . S
C1192 C1173 1.368 . S
C1192 C1186 1.368 . S
C1192 C1191 1.523 . S
C1193 C1177 1.429 . S
C1193 C1189 1.429 . S
C1193 C1194 1.523 . S
C1194 C1178 1.368 . S
C1194 C1190 1.368 . S
C1194 C1193 1.523 . S
H1195 C1170 0.950 . S
H1196 C1172 0.950 . S
H1197 C1173 0.949 . S
H1198 C1175 0.950 1_545 S
H1199 C1177 0.950 . S
C1200 C1201 1.349 . S
C1200 C1202 1.327 . S
C1200 H1225 0.950 . S
C1201 C1200 1.349 . S
C1201 C1217 1.349 . S
C1202 C1200 1.327 . S
C1202 C1221 1.429 . S
C1202 H1226 0.950 . S
C1203 C1220 1.574 . S
C1203 C1222 1.368 . S
C1203 H1227 0.949 . S
H1204 C1208 0.949 . S
C1205 C1206 1.349 . S
C1205 C1207 1.327 . S
C1205 H1228 0.950 . S
C1206 C1205 1.349 . S
C1206 C1218 1.349 . S
C1207 C1205 1.327 . S
C1207 C1223 1.429 . S
C1207 H1229 0.950 . S
C1208 H1204 0.949 . S
C1208 C1216 1.574 . S
C1208 C1224 1.368 . S
H1209 C1217 0.950 . S
H1210 C1215 0.950 . S
H1211 C1216 0.949 . S
H1212 C1218 0.950 . S
H1213 C1219 0.950 . S
H1214 C1220 0.949 . S
C1215 H1210 0.950 . S
C1215 C1217 1.327 . S
C1215 C1221 1.429 . S
C1216 C1208 1.574 . S
C1216 H1211 0.949 . S
C1216 C1222 1.368 . S
C1217 C1201 1.349 . S
C1217 H1209 0.950 . S
C1217 C1215 1.327 . S
C1218 C1206 1.349 . S
C1218 H1212 0.950 . S
C1218 C1219 1.327 . S
C1219 H1213 0.950 . S
C1219 C1218 1.327 . S
C1219 C1223 1.429 . S
C1220 C1203 1.574 . S
C1220 H1214 0.949 . S
C1220 C1224 1.368 . S
C1221 C1202 1.429 . S
C1221 C1215 1.429 . S
C1221 C1222 1.523 . S
C1222 C1203 1.368 . S
C1222 C1216 1.368 . S
C1222 C1221 1.523 . S
C1223 C1207 1.429 . S
C1223 C1219 1.429 . S
C1223 C1224 1.523 . S
C1224 C1208 1.368 . S
C1224 C1220 1.368 . S
C1224 C1223 1.523 . S
H1225 C1200 0.950 . S
H1226 C1202 0.950 . S
H1227 C1203 0.949 . S
H1228 C1205 0.950 . S
H1229 C1207 0.950 . S
C1230 C1231 1.349 . S
C1230 C1232 1.327 . S
C1230 H1255 0.950 . S
C1231 C1230 1.349 . S
C1231 C1247 1.349 . S
C1232 C1230 1.327 . S
C1232 C1251 1.429 . S
C1232 H1256 0.950 . S
C1233 C1250 1.574 . S
C1233 C1252 1.368 . S
C1233 H1257 0.949 . S
H1234 C1238 0.949 . S
C1235 C1236 1.349 . S
C1235 C1237 1.327 . S
C1235 H1258 0.950 . S
C1236 C1235 1.349 . S
C1236 C1248 1.349 . S
C1237 C1235 1.327 . S
C1237 C1253 1.429 . S
C1237 H1259 0.950 . S
C1238 H1234 0.949 . S
C1238 C1246 1.574 . S
C1238 C1254 1.368 . S
H1239 C1247 0.950 . S
H1240 C1245 0.950 . S
H1241 C1246 0.949 . S
H1242 C1248 0.950 . S
H1243 C1249 0.950 . S
H1244 C1250 0.949 . S
C1245 H1240 0.950 . S
C1245 C1247 1.327 . S
C1245 C1251 1.429 . S
C1246 C1238 1.574 . S
C1246 H1241 0.949 . S
C1246 C1252 1.368 . S
C1247 C1231 1.349 . S
C1247 H1239 0.950 . S
C1247 C1245 1.327 . S
C1248 C1236 1.349 . S
C1248 H1242 0.950 . S
C1248 C1249 1.327 . S
C1249 H1243 0.950 . S
C1249 C1248 1.327 . S
C1249 C1253 1.429 . S
C1250 C1233 1.574 . S
C1250 H1244 0.949 . S
C1250 C1254 1.368 . S
C1251 C1232 1.429 . S
C1251 C1245 1.429 . S
C1251 C1252 1.523 . S
C1252 C1233 1.368 . S
C1252 C1246 1.368 . S
C1252 C1251 1.523 . S
C1253 C1237 1.429 . S
C1253 C1249 1.429 . S
C1253 C1254 1.523 . S
C1254 C1238 1.368 . S
C1254 C1250 1.368 . S
C1254 C1253 1.523 . S
H1255 C1230 0.950 . S
H1256 C1232 0.950 . S
H1257 C1233 0.949 . S
H1258 C1235 0.950 . S
H1259 C1237 0.950 . S
C1260 C1261 1.349 . S
C1260 C1262 1.327 . S
C1260 H1285 0.950 . S
C1261 C1260 1.349 . S
C1261 C1277 1.349 . S
C1262 C1260 1.327 . S
C1262 C1281 1.429 . S
C1262 H1286 0.950 . S
C1263 C1280 1.574 . S
C1263 C1282 1.368 . S
C1263 H1287 0.949 . S
H1264 C1268 0.949 . S
C1265 C1266 1.349 . S
C1265 C1267 1.327 . S
C1265 H1288 0.950 . S
C1266 C1265 1.349 . S
C1266 C1278 1.349 . S
C1267 C1265 1.327 . S
C1267 C1283 1.429 . S
C1267 H1289 0.950 . S
C1268 H1264 0.949 . S
C1268 C1276 1.574 . S
C1268 C1284 1.368 . S
H1269 C1277 0.950 1_455 S
H1270 C1275 0.949 . S
H1271 C1276 0.949 . S
H1272 C1278 0.950 . S
H1273 C1279 0.950 . S
H1274 C1280 0.949 . S
C1275 H1270 0.949 . S
C1275 C1277 1.327 . S
C1275 C1281 1.429 . S
C1276 C1268 1.574 . S
C1276 H1271 0.949 . S
C1276 C1282 1.368 . S
C1277 C1261 1.349 . S
C1277 H1269 0.950 1_655 S
C1277 C1275 1.327 . S
C1278 C1266 1.349 . S
C1278 H1272 0.950 . S
C1278 C1279 1.327 . S
C1279 H1273 0.950 . S
C1279 C1278 1.327 . S
C1279 C1283 1.429 . S
C1280 C1263 1.574 . S
C1280 H1274 0.949 . S
C1280 C1284 1.368 . S
C1281 C1262 1.429 . S
C1281 C1275 1.429 . S
C1281 C1282 1.523 . S
C1282 C1263 1.368 . S
C1282 C1276 1.368 . S
C1282 C1281 1.523 . S
C1283 C1267 1.429 . S
C1283 C1279 1.429 . S
C1283 C1284 1.523 . S
C1284 C1268 1.368 . S
C1284 C1280 1.368 . S
C1284 C1283 1.523 . S
H1285 C1260 0.950 . S
H1286 C1262 0.950 . S
H1287 C1263 0.949 . S
H1288 C1265 0.950 . S
H1289 C1267 0.950 . S
C1290 C1291 1.349 . S
C1290 C1292 1.327 . S
C1290 H1315 0.950 . S
C1291 C1290 1.349 . S
C1291 C1307 1.349 . S
C1292 C1290 1.327 . S
C1292 C1311 1.429 . S
C1292 H1316 0.950 . S
C1293 C1310 1.574 . S
C1293 C1312 1.368 . S
C1293 H1317 0.949 . S
H1294 C1298 0.949 . S
C1295 C1296 1.349 . S
C1295 C1297 1.327 . S
C1295 H1318 0.950 . S
C1296 C1295 1.349 . S
C1296 C1308 1.349 . S
C1297 C1295 1.327 . S
C1297 C1313 1.429 . S
C1297 H1319 0.950 . S
C1298 H1294 0.949 . S
C1298 C1306 1.574 . S
C1298 C1314 1.368 . S
H1299 C1307 0.950 . S
H1300 C1305 0.950 . S
H1301 C1306 0.949 . S
H1302 C1308 0.950 . S
H1303 C1309 0.950 . S
H1304 C1310 0.949 . S
C1305 H1300 0.950 . S
C1305 C1307 1.327 . S
C1305 C1311 1.429 . S
C1306 C1298 1.574 . S
C1306 H1301 0.949 . S
C1306 C1312 1.368 . S
C1307 C1291 1.349 . S
C1307 H1299 0.950 . S
C1307 C1305 1.327 . S
C1308 C1296 1.349 . S
C1308 H1302 0.950 . S
C1308 C1309 1.327 . S
C1309 H1303 0.950 . S
C1309 C1308 1.327 . S
C1309 C1313 1.429 . S
C1310 C1293 1.574 . S
C1310 H1304 0.949 . S
C1310 C1314 1.368 . S
C1311 C1292 1.429 . S
C1311 C1305 1.429 . S
C1311 C1312 1.523 . S
C1312 C1293 1.368 . S
C1312 C1306 1.368 . S
C1312 C1311 1.523 . S
C1313 C1297 1.429 . S
C1313 C1309 1.429 . S
C1313 C1314 1.523 . S
C1314 C1298 1.368 . S
C1314 C1310 1.368 . S
C1314 C1313 1.523 . S
H1315 C1290 0.950 . S
H1316 C1292 0.950 . S
H1317 C1293 0.949 . S
H1318 C1295 0.950 . S
H1319 C1297 0.950 . S
C1320 C1321 1.349 . S
C1320 C1322 1.327 . S
C1320 H1345 0.950 . S
C1321 C1320 1.349 . S
C1321 C1337 1.349 . S
C1322 C1320 1.327 . S
C1322 C1341 1.429 . S
C1322 H1346 0.950 . S
C1323 C1340 1.574 . S
C1323 C1342 1.368 . S
C1323 H1347 0.949 . S
H1324 C1328 0.949 . S
C1325 C1326 1.349 . S
C1325 C1327 1.327 . S
C1325 H1348 0.950 . S
C1326 C1325 1.349 . S
C1326 C1338 1.349 . S
C1327 C1325 1.327 . S
C1327 C1343 1.429 . S
C1327 H1349 0.950 . S
C1328 H1324 0.949 . S
C1328 C1336 1.574 . S
C1328 C1344 1.368 . S
H1329 C1337 0.950 . S
H1330 C1335 0.950 . S
H1331 C1336 0.949 . S
H1332 C1338 0.950 . S
H1333 C1339 0.950 . S
H1334 C1340 0.949 . S
C1335 H1330 0.950 . S
C1335 C1337 1.327 . S
C1335 C1341 1.429 . S
C1336 C1328 1.574 . S
C1336 H1331 0.949 . S
C1336 C1342 1.368 . S
C1337 C1321 1.349 . S
C1337 H1329 0.950 . S
C1337 C1335 1.327 . S
C1338 C1326 1.349 . S
C1338 H1332 0.950 . S
C1338 C1339 1.327 . S
C1339 H1333 0.950 . S
C1339 C1338 1.327 . S
C1339 C1343 1.429 . S
C1340 C1323 1.574 . S
C1340 H1334 0.949 . S
C1340 C1344 1.368 . S
C1341 C1322 1.429 . S
C1341 C1335 1.429 . S
C1341 C1342 1.523 . S
C1342 C1323 1.368 . S
C1342 C1336 1.368 . S
C1342 C1341 1.523 . S
C1343 C1327 1.429 . S
C1343 C1339 1.429 . S
C1343 C1344 1.523 . S
C1344 C1328 1.368 . S
C1344 C1340 1.368 . S
C1344 C1343 1.523 . S
H1345 C1320 0.950 . S
H1346 C1322 0.950 . S
H1347 C1323 0.949 . S
H1348 C1325 0.950 . S
H1349 C1327 0.950 . S
C1350 C1351 1.349 . S
C1350 C1352 1.327 . S
C1350 H1375 0.950 . S
C1351 C1350 1.349 . S
C1351 C1367 1.349 . S
C1352 C1350 1.327 . S
C1352 C1371 1.429 . S
C1352 H1376 0.950 . S
C1353 C1370 1.574 . S
C1353 C1372 1.368 1_455 S
C1353 H1377 0.949 . S
H1354 C1358 0.949 1_655 S
C1355 C1356 1.349 . S
C1355 C1357 1.327 . S
C1355 H1378 0.950 . S
C1356 C1355 1.349 . S
C1356 C1368 1.349 . S
C1357 C1355 1.327 . S
C1357 C1373 1.429 . S
C1357 H1379 0.950 . S
C1358 H1354 0.949 1_455 S
C1358 C1366 1.574 1_455 S
C1358 C1374 1.368 . S
H1359 C1367 0.950 . S
H1360 C1365 0.950 1_455 S
H1361 C1366 0.949 . S
H1362 C1368 0.950 . S
H1363 C1369 0.950 . S
H1364 C1370 0.949 . S
C1365 H1360 0.950 1_655 S
C1365 C1367 1.327 . S
C1365 C1371 1.429 . S
C1366 C1358 1.574 1_655 S
C1366 H1361 0.949 . S
C1366 C1372 1.368 . S
C1367 C1351 1.349 . S
C1367 H1359 0.950 . S
C1367 C1365 1.327 . S
C1368 C1356 1.349 . S
C1368 H1362 0.950 . S
C1368 C1369 1.327 . S
C1369 H1363 0.950 . S
C1369 C1368 1.327 . S
C1369 C1373 1.429 . S
C1370 C1353 1.574 . S
C1370 H1364 0.949 . S
C1370 C1374 1.368 . S
C1371 C1352 1.429 . S
C1371 C1365 1.429 . S
C1371 C1372 1.523 . S
C1372 C1353 1.368 1_655 S
C1372 C1366 1.368 . S
C1372 C1371 1.523 . S
C1373 C1357 1.429 . S
C1373 C1369 1.429 . S
C1373 C1374 1.523 . S
C1374 C1358 1.368 . S
C1374 C1370 1.368 . S
C1374 C1373 1.523 . S
H1375 C1350 0.950 . S
H1376 C1352 0.950 . S
H1377 C1353 0.949 . S
H1378 C1355 0.950 . S
H1379 C1357 0.950 . S
C1380 C1381 1.349 . S
C1380 C1382 1.327 . S
C1380 H1405 0.950 . S
C1381 C1380 1.349 . S
C1381 C1397 1.349 . S
C1382 C1380 1.327 . S
C1382 C1401 1.429 . S
C1382 H1406 0.950 . S
C1383 C1400 1.574 . S
C1383 C1402 1.368 . S
C1383 H1407 0.949 . S
H1384 C1388 0.949 . S
C1385 C1386 1.349 . S
C1385 C1387 1.327 . S
C1385 H1408 0.950 . S
C1386 C1385 1.349 . S
C1386 C1398 1.349 . S
C1387 C1385 1.327 . S
C1387 C1403 1.429 . S
C1387 H1409 0.950 . S
C1388 H1384 0.949 . S
C1388 C1396 1.574 . S
C1388 C1404 1.368 . S
H1389 C1397 0.950 . S
H1390 C1395 0.950 . S
H1391 C1396 0.949 . S
H1392 C1398 0.950 . S
H1393 C1399 0.950 . S
H1394 C1400 0.949 . S
C1395 H1390 0.950 . S
C1395 C1397 1.327 . S
C1395 C1401 1.429 . S
C1396 C1388 1.574 . S
C1396 H1391 0.949 . S
C1396 C1402 1.368 . S
C1397 C1381 1.349 . S
C1397 H1389 0.950 . S
C1397 C1395 1.327 . S
C1398 C1386 1.349 . S
C1398 H1392 0.950 . S
C1398 C1399 1.327 . S
C1399 H1393 0.950 . S
C1399 C1398 1.327 . S
C1399 C1403 1.429 . S
C1400 C1383 1.574 . S
C1400 H1394 0.949 . S
C1400 C1404 1.368 . S
C1401 C1382 1.429 . S
C1401 C1395 1.429 . S
C1401 C1402 1.523 . S
C1402 C1383 1.368 . S
C1402 C1396 1.368 . S
C1402 C1401 1.523 . S
C1403 C1387 1.429 . S
C1403 C1399 1.429 . S
C1403 C1404 1.523 . S
C1404 C1388 1.368 . S
C1404 C1400 1.368 . S
C1404 C1403 1.523 . S
H1405 C1380 0.950 . S
H1406 C1382 0.950 . S
H1407 C1383 0.949 . S
H1408 C1385 0.950 . S
H1409 C1387 0.950 . S
C1410 C1411 1.349 . S
C1410 C1412 1.327 . S
C1410 H1435 0.950 . S
C1411 C1410 1.349 . S
C1411 C1427 1.349 . S
C1412 C1410 1.327 . S
C1412 C1431 1.429 . S
C1412 H1436 0.950 . S
C1413 C1430 1.574 . S
C1413 C1432 1.368 1_545 S
C1413 H1437 0.949 . S
H1414 C1418 0.949 . S
C1415 C1416 1.349 . S
C1415 C1417 1.327 . S
C1415 H1438 0.950 . S
C1416 C1415 1.349 . S
C1416 C1428 1.349 . S
C1417 C1415 1.327 . S
C1417 C1433 1.429 . S
C1417 H1439 0.950 . S
C1418 H1414 0.949 . S
C1418 C1426 1.574 1_545 S
C1418 C1434 1.368 . S
H1419 C1427 0.950 . S
H1420 C1425 0.950 . S
H1421 C1426 0.949 . S
H1422 C1428 0.950 . S
H1423 C1429 0.950 . S
H1424 C1430 0.949 . S
C1425 H1420 0.950 . S
C1425 C1427 1.327 . S
C1425 C1431 1.429 . S
C1426 C1418 1.574 1_565 S
C1426 H1421 0.949 . S
C1426 C1432 1.368 . S
C1427 C1411 1.349 . S
C1427 H1419 0.950 . S
C1427 C1425 1.327 . S
C1428 C1416 1.349 . S
C1428 H1422 0.950 . S
C1428 C1429 1.327 . S
C1429 H1423 0.950 . S
C1429 C1428 1.327 . S
C1429 C1433 1.429 . S
C1430 C1413 1.574 . S
C1430 H1424 0.949 . S
C1430 C1434 1.368 . S
C1431 C1412 1.429 . S
C1431 C1425 1.429 . S
C1431 C1432 1.523 . S
C1432 C1413 1.368 1_565 S
C1432 C1426 1.368 . S
C1432 C1431 1.523 . S
C1433 C1417 1.429 . S
C1433 C1429 1.429 . S
C1433 C1434 1.523 . S
C1434 C1418 1.368 . S
C1434 C1430 1.368 . S
C1434 C1433 1.523 . S
H1435 C1410 0.950 . S
H1436 C1412 0.950 . S
H1437 C1413 0.949 . S
H1438 C1415 0.950 . S
H1439 C1417 0.950 . S
C1440 C1441 1.349 . S
C1440 C1442 1.327 . S
C1440 H1465 0.950 . S
C1441 C1440 1.349 . S
C1441 C1457 1.349 . S
C1442 C1440 1.327 . S
C1442 C1461 1.429 . S
C1442 H1466 0.950 . S
C1443 C1460 1.574 . S
C1443 C1462 1.368 . S
C1443 H1467 0.949 . S
H1444 C1448 0.949 . S
C1445 C1446 1.349 . S
C1445 C1447 1.327 . S
C1445 H1468 0.950 . S
C1446 C1445 1.349 . S
C1446 C1458 1.349 . S
C1447 C1445 1.327 . S
C1447 C1463 1.429 . S
C1447 H1469 0.950 . S
C1448 H1444 0.949 . S
C1448 C1456 1.574 . S
C1448 C1464 1.368 . S
H1449 C1457 0.950 . S
H1450 C1455 0.950 . S
H1451 C1456 0.949 . S
H1452 C1458 0.950 . S
H1453 C1459 0.950 . S
H1454 C1460 0.949 . S
C1455 H1450 0.950 . S
C1455 C1457 1.327 . S
C1455 C1461 1.429 . S
C1456 C1448 1.574 . S
C1456 H1451 0.949 . S
C1456 C1462 1.368 . S
C1457 C1441 1.349 . S
C1457 H1449 0.950 . S
C1457 C1455 1.327 . S
C1458 C1446 1.349 . S
C1458 H1452 0.950 . S
C1458 C1459 1.327 . S
C1459 H1453 0.950 . S
C1459 C1458 1.327 . S
C1459 C1463 1.429 . S
C1460 C1443 1.574 . S
C1460 H1454 0.949 . S
C1460 C1464 1.368 . S
C1461 C1442 1.429 . S
C1461 C1455 1.429 . S
C1461 C1462 1.523 . S
C1462 C1443 1.368 . S
C1462 C1456 1.368 . S
C1462 C1461 1.523 . S
C1463 C1447 1.429 . S
C1463 C1459 1.429 . S
C1463 C1464 1.523 . S
C1464 C1448 1.368 . S
C1464 C1460 1.368 . S
C1464 C1463 1.523 . S
H1465 C1440 0.950 . S
H1466 C1442 0.950 . S
H1467 C1443 0.949 . S
H1468 C1445 0.950 . S
H1469 C1447 0.950 . S
C1470 C1471 1.349 . S
C1470 C1472 1.327 . S
C1470 H1495 0.950 . S
C1471 C1470 1.349 . S
C1471 C1487 1.349 . S
C1472 C1470 1.327 . S
C1472 C1491 1.429 . S
C1472 H1496 0.950 . S
C1473 C1490 1.574 . S
C1473 C1492 1.368 . S
C1473 H1497 0.949 . S
H1474 C1478 0.949 . S
C1475 C1476 1.349 . S
C1475 C1477 1.327 . S
C1475 H1498 0.950 . S
C1476 C1475 1.349 . S
C1476 C1488 1.349 . S
C1477 C1475 1.327 . S
C1477 C1493 1.429 . S
C1477 H1499 0.950 . S
C1478 H1474 0.949 . S
C1478 C1486 1.574 . S
C1478 C1494 1.368 . S
H1479 C1487 0.950 . S
H1480 C1485 0.950 . S
H1481 C1486 0.949 . S
H1482 C1488 0.950 . S
H1483 C1489 0.950 . S
H1484 C1490 0.949 . S
C1485 H1480 0.950 . S
C1485 C1487 1.327 . S
C1485 C1491 1.429 . S
C1486 C1478 1.574 . S
C1486 H1481 0.949 . S
C1486 C1492 1.368 . S
C1487 C1471 1.349 . S
C1487 H1479 0.950 . S
C1487 C1485 1.327 . S
C1488 C1476 1.349 . S
C1488 H1482 0.950 . S
C1488 C1489 1.327 . S
C1489 H1483 0.950 . S
C1489 C1488 1.327 . S
C1489 C1493 1.429 . S
C1490 C1473 1.574 . S
C1490 H1484 0.949 . S
C1490 C1494 1.368 . S
C1491 C1472 1.429 . S
C1491 C1485 1.429 . S
C1491 C1492 1.523 . S
C1492 C1473 1.368 . S
C1492 C1486 1.368 . S
C1492 C1491 1.523 . S
C1493 C1477 1.429 . S
C1493 C1489 1.429 . S
C1493 C1494 1.523 . S
C1494 C1478 1.368 . S
C1494 C1490 1.368 . S
C1494 C1493 1.523 . S
H1495 C1470 0.950 . S
H1496 C1472 0.950 . S
H1497 C1473 0.949 . S
H1498 C1475 0.950 . S
H1499 C1477 0.950 . S
C1500 C1501 1.349 . S
C1500 C1502 1.327 . S
C1500 H1525 0.950 . S
C1501 C1500 1.349 . S
C1501 C1517 1.349 . S
C1502 C1500 1.327 . S
C1502 C1521 1.429 . S
C1502 H1526 0.950 . S
C1503 C1520 1.574 . S
C1503 C1522 1.368 . S
C1503 H1527 0.949 . S
H1504 C1508 0.949 . S
C1505 C1506 1.349 . S
C1505 C1507 1.327 . S
C1505 H1528 0.950 . S
C1506 C1505 1.349 . S
C1506 C1518 1.349 . S
C1507 C1505 1.327 . S
C1507 C1523 1.429 . S
C1507 H1529 0.950 . S
C1508 H1504 0.949 . S
C1508 C1516 1.574 . S
C1508 C1524 1.368 . S
H1509 C1517 0.950 . S
H1510 C1515 0.950 . S
H1511 C1516 0.949 . S
H1512 C1518 0.950 . S
H1513 C1519 0.950 . S
H1514 C1520 0.949 . S
C1515 H1510 0.950 . S
C1515 C1517 1.327 . S
C1515 C1521 1.429 . S
C1516 C1508 1.574 . S
C1516 H1511 0.949 . S
C1516 C1522 1.368 . S
C1517 C1501 1.349 . S
C1517 H1509 0.950 . S
C1517 C1515 1.327 . S
C1518 C1506 1.349 . S
C1518 H1512 0.950 . S
C1518 C1519 1.327 . S
C1519 H1513 0.950 . S
C1519 C1518 1.327 . S
C1519 C1523 1.429 . S
C1520 C1503 1.574 . S
C1520 H1514 0.949 . S
C1520 C1524 1.368 . S
C1521 C1502 1.429 . S
C1521 C1515 1.429 . S
C1521 C1522 1.523 . S
C1522 C1503 1.368 . S
C1522 C1516 1.368 . S
C1522 C1521 1.523 . S
C1523 C1507 1.429 . S
C1523 C1519 1.429 . S
C1523 C1524 1.523 . S
C1524 C1508 1.368 . S
C1524 C1520 1.368 . S
C1524 C1523 1.523 . S
H1525 C1500 0.950 . S
H1526 C1502 0.950 . S
H1527 C1503 0.949 . S
H1528 C1505 0.950 . S
H1529 C1507 0.950 . S
C1530 C1531 1.349 . S
C1530 C1532 1.327 . S
C1530 H1555 0.950 . S
C1531 C1530 1.349 . S
C1531 C1547 1.349 . S
C1532 C1530 1.327 . S
C1532 C1551 1.429 . S
C1532 H1556 0.950 . S
C1533 C1550 1.574 . S
C1533 C1552 1.368 . S
C1533 H1557 0.949 . S
H1534 C1538 0.949 . S
C1535 C1536 1.349 . S
C1535 C1537 1.327 . S
C1535 H1558 0.950 . S
C1536 C1535 1.349 . S
C1536 C1548 1.349 . S
C1537 C1535 1.327 . S
C1537 C1553 1.429 . S
C1537 H1559 0.950 . S
C1538 H1534 0.949 . S
C1538 C1546 1.574 . S
C1538 C1554 1.368 . S
H1539 C1547 0.950 . S
H1540 C1545 0.950 . S
H1541 C1546 0.949 . S
H1542 C1548 0.950 . S
H1543 C1549 0.950 . S
H1544 C1550 0.949 . S
C1545 H1540 0.950 . S
C1545 C1547 1.327 . S
C1545 C1551 1.429 . S
C1546 C1538 1.574 . S
C1546 H1541 0.949 . S
C1546 C1552 1.368 . S
C1547 C1531 1.349 . S
C1547 H1539 0.950 . S
C1547 C1545 1.327 . S
C1548 C1536 1.349 . S
C1548 H1542 0.950 . S
C1548 C1549 1.327 . S
C1549 H1543 0.950 . S
C1549 C1548 1.327 . S
C1549 C1553 1.429 . S
C1550 C1533 1.574 . S
C1550 H1544 0.949 . S
C1550 C1554 1.368 . S
C1551 C1532 1.429 . S
C1551 C1545 1.429 . S
C1551 C1552 1.523 . S
C1552 C1533 1.368 . S
C1552 C1546 1.368 . S
C1552 C1551 1.523 . S
C1553 C1537 1.429 . S
C1553 C1549 1.429 . S
C1553 C1554 1.523 . S
C1554 C1538 1.368 . S
C1554 C1550 1.368 . S
C1554 C1553 1.523 . S
H1555 C1530 0.950 . S
H1556 C1532 0.950 . S
H1557 C1533 0.949 . S
H1558 C1535 0.950 . S
H1559 C1537 0.950 . S
C1560 C1561 1.349 . S
C1560 C1562 1.327 . S
C1560 H1585 0.950 . S
C1561 C1560 1.349 . S
C1561 C1577 1.349 . S
C1562 C1560 1.327 . S
C1562 C1581 1.429 . S
C1562 H1586 0.950 . S
C1563 C1580 1.574 . S
C1563 C1582 1.368 . S
C1563 H1587 0.949 . S
H1564 C1568 0.949 . S
C1565 C1566 1.349 . S
C1565 C1567 1.327 . S
C1565 H1588 0.950 . S
C1566 C1565 1.349 . S
C1566 C1578 1.349 . S
C1567 C1565 1.327 . S
C1567 C1583 1.429 . S
C1567 H1589 0.950 . S
C1568 H1564 0.949 . S
C1568 C1576 1.574 . S
C1568 C1584 1.368 . S
H1569 C1577 0.950 . S
H1570 C1575 0.950 . S
H1571 C1576 0.949 . S
H1572 C1578 0.950 . S
H1573 C1579 0.950 . S
H1574 C1580 0.949 . S
C1575 H1570 0.950 . S
C1575 C1577 1.327 . S
C1575 C1581 1.429 . S
C1576 C1568 1.574 . S
C1576 H1571 0.949 . S
C1576 C1582 1.368 . S
C1577 C1561 1.349 . S
C1577 H1569 0.950 . S
C1577 C1575 1.327 . S
C1578 C1566 1.349 . S
C1578 H1572 0.950 . S
C1578 C1579 1.327 . S
C1579 H1573 0.950 . S
C1579 C1578 1.327 . S
C1579 C1583 1.429 . S
C1580 C1563 1.574 . S
C1580 H1574 0.949 . S
C1580 C1584 1.368 . S
C1581 C1562 1.429 . S
C1581 C1575 1.429 . S
C1581 C1582 1.523 . S
C1582 C1563 1.368 . S
C1582 C1576 1.368 . S
C1582 C1581 1.523 . S
C1583 C1567 1.429 . S
C1583 C1579 1.429 . S
C1583 C1584 1.523 . S
C1584 C1568 1.368 . S
C1584 C1580 1.368 . S
C1584 C1583 1.523 . S
H1585 C1560 0.950 . S
H1586 C1562 0.950 . S
H1587 C1563 0.949 . S
H1588 C1565 0.950 . S
H1589 C1567 0.950 . S
C1590 C1591 1.349 . S
C1590 C1592 1.327 . S
C1590 H1615 0.950 . S
C1591 C1590 1.349 . S
C1591 C1607 1.349 . S
C1592 C1590 1.327 . S
C1592 C1611 1.429 . S
C1592 H1616 0.950 . S
C1593 C1610 1.574 . S
C1593 C1612 1.368 . S
C1593 H1617 0.949 . S
H1594 C1598 0.949 . S
C1595 C1596 1.349 . S
C1595 C1597 1.327 . S
C1595 H1618 0.950 . S
C1596 C1595 1.349 . S
C1596 C1608 1.349 . S
C1597 C1595 1.327 . S
C1597 C1613 1.429 . S
C1597 H1619 0.950 . S
C1598 H1594 0.949 . S
C1598 C1606 1.574 . S
C1598 C1614 1.368 . S
H1599 C1607 0.950 . S
H1600 C1605 0.950 . S
H1601 C1606 0.949 . S
H1602 C1608 0.950 . S
H1603 C1609 0.950 . S
H1604 C1610 0.949 . S
C1605 H1600 0.950 . S
C1605 C1607 1.327 . S
C1605 C1611 1.429 . S
C1606 C1598 1.574 . S
C1606 H1601 0.949 . S
C1606 C1612 1.368 . S
C1607 C1591 1.349 . S
C1607 H1599 0.950 . S
C1607 C1605 1.327 . S
C1608 C1596 1.349 . S
C1608 H1602 0.950 . S
C1608 C1609 1.327 . S
C1609 H1603 0.950 . S
C1609 C1608 1.327 . S
C1609 C1613 1.429 . S
C1610 C1593 1.574 . S
C1610 H1604 0.949 . S
C1610 C1614 1.368 . S
C1611 C1592 1.429 . S
C1611 C1605 1.429 . S
C1611 C1612 1.523 . S
C1612 C1593 1.368 . S
C1612 C1606 1.368 . S
C1612 C1611 1.523 . S
C1613 C1597 1.429 . S
C1613 C1609 1.429 . S
C1613 C1614 1.523 . S
C1614 C1598 1.368 . S
C1614 C1610 1.368 . S
C1614 C1613 1.523 . S
H1615 C1590 0.950 . S
H1616 C1592 0.950 . S
H1617 C1593 0.949 . S
H1618 C1595 0.950 . S
H1619 C1597 0.950 . S
C1620 C1621 1.349 . S
C1620 C1622 1.327 . S
C1620 H1645 0.950 . S
C1621 C1620 1.349 . S
C1621 C1637 1.349 . S
C1622 C1620 1.327 . S
C1622 C1641 1.429 . S
C1622 H1646 0.950 . S
C1623 C1640 1.574 . S
C1623 C1642 1.368 . S
C1623 H1647 0.949 . S
H1624 C1628 0.949 . S
C1625 C1626 1.349 . S
C1625 C1627 1.327 . S
C1625 H1648 0.950 . S
C1626 C1625 1.349 . S
C1626 C1638 1.349 . S
C1627 C1625 1.327 . S
C1627 C1643 1.429 . S
C1627 H1649 0.950 . S
C1628 H1624 0.949 . S
C1628 C1636 1.574 . S
C1628 C1644 1.368 . S
H1629 C1637 0.950 . S
H1630 C1635 0.950 . S
H1631 C1636 0.949 . S
H1632 C1638 0.950 . S
H1633 C1639 0.950 . S
H1634 C1640 0.949 . S
C1635 H1630 0.950 . S
C1635 C1637 1.327 . S
C1635 C1641 1.429 . S
C1636 C1628 1.574 . S
C1636 H1631 0.949 . S
C1636 C1642 1.368 . S
C1637 C1621 1.349 . S
C1637 H1629 0.950 . S
C1637 C1635 1.327 . S
C1638 C1626 1.349 . S
C1638 H1632 0.950 . S
C1638 C1639 1.327 . S
C1639 H1633 0.950 . S
C1639 C1638 1.327 . S
C1639 C1643 1.429 . S
C1640 C1623 1.574 . S
C1640 H1634 0.949 . S
C1640 C1644 1.368 . S
C1641 C1622 1.429 . S
C1641 C1635 1.429 . S
C1641 C1642 1.523 . S
C1642 C1623 1.368 . S
C1642 C1636 1.368 . S
C1642 C1641 1.523 . S
C1643 C1627 1.429 . S
C1643 C1639 1.429 . S
C1643 C1644 1.523 . S
C1644 C1628 1.368 . S
C1644 C1640 1.368 . S
C1644 C1643 1.523 . S
H1645 C1620 0.950 . S
H1646 C1622 0.950 . S
H1647 C1623 0.949 . S
H1648 C1625 0.950 . S
H1649 C1627 0.950 . S
C1650 C1651 1.349 . S
C1650 C1652 1.327 . S
C1650 H1675 0.950 . S
C1651 C1650 1.349 . S
C1651 C1667 1.349 . S
C1652 C1650 1.327 . S
C1652 C1671 1.429 . S
C1652 H1676 0.950 . S
C1653 C1670 1.574 . S
C1653 C1672 1.368 . S
C1653 H1677 0.949 . S
H1654 C1658 0.949 . S
C1655 C1656 1.349 . S
C1655 C1657 1.327 . S
C1655 H1678 0.950 . S
C1656 C1655 1.349 . S
C1656 C1668 1.349 . S
C1657 C1655 1.327 . S
C1657 C1673 1.429 . S
C1657 H1679 0.950 . S
C1658 H1654 0.949 . S
C1658 C1666 1.574 . S
C1658 C1674 1.368 . S
H1659 C1667 0.950 . S
H1660 C1665 0.950 . S
H1661 C1666 0.949 . S
H1662 C1668 0.950 . S
H1663 C1669 0.950 . S
H1664 C1670 0.949 . S
C1665 H1660 0.950 . S
C1665 C1667 1.327 . S
C1665 C1671 1.429 . S
C1666 C1658 1.574 . S
C1666 H1661 0.949 . S
C1666 C1672 1.368 . S
C1667 C1651 1.349 . S
C1667 H1659 0.950 . S
C1667 C1665 1.327 . S
C1668 C1656 1.349 . S
C1668 H1662 0.950 . S
C1668 C1669 1.327 . S
C1669 H1663 0.950 . S
C1669 C1668 1.327 . S
C1669 C1673 1.429 . S
C1670 C1653 1.574 . S
C1670 H1664 0.949 . S
C1670 C1674 1.368 . S
C1671 C1652 1.429 . S
C1671 C1665 1.429 . S
C1671 C1672 1.523 . S
C1672 C1653 1.368 . S
C1672 C1666 1.368 . S
C1672 C1671 1.523 . S
C1673 C1657 1.429 . S
C1673 C1669 1.429 . S
C1673 C1674 1.523 . S
C1674 C1658 1.368 . S
C1674 C1670 1.368 . S
C1674 C1673 1.523 . S
H1675 C1650 0.950 . S
H1676 C1652 0.950 . S
H1677 C1653 0.949 . S
H1678 C1655 0.950 . S
H1679 C1657 0.950 . S
C1680 C1681 1.349 . S
C1680 C1682 1.327 . S
C1680 H1705 0.950 . S
C1681 C1680 1.349 . S
C1681 C1697 1.349 . S
C1682 C1680 1.327 . S
C1682 C1701 1.429 . S
C1682 H1706 0.950 . S
C1683 C1700 1.574 . S
C1683 C1702 1.368 . S
C1683 H1707 0.949 . S
H1684 C1688 0.949 . S
C1685 C1686 1.349 . S
C1685 C1687 1.327 . S
C1685 H1708 0.950 . S
C1686 C1685 1.349 . S
C1686 C1698 1.349 . S
C1687 C1685 1.327 . S
C1687 C1703 1.429 . S
C1687 H1709 0.950 . S
C1688 H1684 0.949 . S
C1688 C1696 1.574 . S
C1688 C1704 1.368 . S
H1689 C1697 0.950 . S
H1690 C1695 0.950 . S
H1691 C1696 0.949 . S
H1692 C1698 0.950 . S
H1693 C1699 0.950 . S
H1694 C1700 0.949 . S
C1695 H1690 0.950 . S
C1695 C1697 1.327 . S
C1695 C1701 1.429 . S
C1696 C1688 1.574 . S
C1696 H1691 0.949 . S
C1696 C1702 1.368 . S
C1697 C1681 1.349 . S
C1697 H1689 0.950 . S
C1697 C1695 1.327 . S
C1698 C1686 1.349 . S
C1698 H1692 0.950 . S
C1698 C1699 1.327 . S
C1699 H1693 0.950 . S
C1699 C1698 1.327 . S
C1699 C1703 1.429 . S
C1700 C1683 1.574 . S
C1700 H1694 0.949 . S
C1700 C1704 1.368 . S
C1701 C1682 1.429 . S
C1701 C1695 1.429 . S
C1701 C1702 1.523 . S
C1702 C1683 1.368 . S
C1702 C1696 1.368 . S
C1702 C1701 1.523 . S
C1703 C1687 1.429 . S
C1703 C1699 1.429 . S
C1703 C1704 1.523 . S
C1704 C1688 1.368 . S
C1704 C1700 1.368 . S
C1704 C1703 1.523 . S
H1705 C1680 0.950 . S
H1706 C1682 0.950 . S
H1707 C1683 0.949 . S
H1708 C1685 0.950 . S
H1709 C1687 0.950 . S
C1710 C1711 1.349 . S
C1710 C1712 1.327 . S
C1710 H1735 0.950 . S
C1711 C1710 1.349 . S
C1711 C1727 1.349 . S
C1712 C1710 1.327 . S
C1712 C1731 1.429 . S
C1712 H1736 0.950 . S
C1713 C1730 1.574 . S
C1713 C1732 1.368 . S
C1713 H1737 0.949 . S
H1714 C1718 0.949 1_455 S
C1715 C1716 1.349 . S
C1715 C1717 1.327 . S
C1715 H1738 0.950 . S
C1716 C1715 1.349 . S
C1716 C1728 1.349 . S
C1717 C1715 1.327 . S
C1717 C1733 1.429 . S
C1717 H1739 0.950 . S
C1718 H1714 0.949 1_655 S
C1718 C1726 1.574 . S
C1718 C1734 1.368 . S
H1719 C1727 0.950 . S
H1720 C1725 0.950 . S
H1721 C1726 0.949 . S
H1722 C1728 0.950 . S
H1723 C1729 0.950 . S
H1724 C1730 0.949 . S
C1725 H1720 0.950 . S
C1725 C1727 1.327 . S
C1725 C1731 1.429 . S
C1726 C1718 1.574 . S
C1726 H1721 0.949 . S
C1726 C1732 1.368 . S
C1727 C1711 1.349 . S
C1727 H1719 0.950 . S
C1727 C1725 1.327 . S
C1728 C1716 1.349 . S
C1728 H1722 0.950 . S
C1728 C1729 1.327 . S
C1729 H1723 0.950 . S
C1729 C1728 1.327 . S
C1729 C1733 1.429 . S
C1730 C1713 1.574 . S
C1730 H1724 0.949 . S
C1730 C1734 1.368 . S
C1731 C1712 1.429 . S
C1731 C1725 1.429 . S
C1731 C1732 1.523 . S
C1732 C1713 1.368 . S
C1732 C1726 1.368 . S
C1732 C1731 1.523 . S
C1733 C1717 1.429 . S
C1733 C1729 1.429 . S
C1733 C1734 1.523 1_455 S
C1734 C1718 1.368 . S
C1734 C1730 1.368 . S
C1734 C1733 1.523 1_655 S
H1735 C1710 0.950 . S
H1736 C1712 0.950 . S
H1737 C1713 0.949 . S
H1738 C1715 0.950 . S
H1739 C1717 0.950 . S
C1740 C1741 1.352 . S
C1740 C1742 1.327 . S
C1740 H1765 0.950 . S
C1741 C1740 1.352 . S
C1741 C1757 1.352 . S
C1742 C1740 1.327 . S
C1742 C1761 1.429 . S
C1742 H1766 0.950 . S
C1743 C1760 1.574 . S
C1743 C1762 1.368 . S
C1743 H1767 0.949 . S
H1744 C1748 0.949 . S
C1745 C1746 1.349 . S
C1745 C1747 1.327 . S
C1745 H1768 0.950 . S
C1746 C1745 1.349 . S
C1746 C1758 1.349 . S
C1747 C1745 1.327 . S
C1747 C1763 1.429 . S
C1747 H1769 0.950 . S
C1748 H1744 0.949 . S
C1748 C1756 1.574 . S
C1748 C1764 1.368 . S
H1749 C1757 0.950 1_565 S
H1750 C1755 0.950 . S
H1751 C1756 0.949 . S
H1752 C1758 0.950 . S
H1753 C1759 0.950 . S
H1754 C1760 0.949 . S
C1755 H1750 0.950 . S
C1755 C1757 1.327 . S
C1755 C1761 1.429 . S
C1756 C1748 1.574 . S
C1756 H1751 0.949 . S
C1756 C1762 1.368 . S
C1757 C1741 1.352 . S
C1757 H1749 0.950 1_545 S
C1757 C1755 1.327 . S
C1758 C1746 1.349 . S
C1758 H1752 0.950 . S
C1758 C1759 1.327 . S
C1759 H1753 0.950 . S
C1759 C1758 1.327 . S
C1759 C1763 1.429 . S
C1760 C1743 1.574 . S
C1760 H1754 0.949 . S
C1760 C1764 1.368 . S
C1761 C1742 1.429 . S
C1761 C1755 1.429 . S
C1761 C1762 1.523 . S
C1762 C1743 1.368 . S
C1762 C1756 1.368 . S
C1762 C1761 1.523 . S
C1763 C1747 1.429 . S
C1763 C1759 1.429 . S
C1763 C1764 1.523 . S
C1764 C1748 1.368 . S
C1764 C1760 1.368 . S
C1764 C1763 1.523 . S
H1765 C1740 0.950 . S
H1766 C1742 0.950 . S
H1767 C1743 0.949 . S
H1768 C1745 0.950 . S
H1769 C1747 0.950 . S
C1770 C1771 1.349 . S
C1770 C1772 1.327 . S
C1770 H1795 0.950 . S
C1771 C1770 1.349 . S
C1771 C1787 1.349 . S
C1772 C1770 1.327 . S
C1772 C1791 1.429 1_565 S
C1772 H1796 0.950 . S
C1773 C1790 1.574 . S
C1773 C1792 1.368 . S
C1773 H1797 0.949 . S
H1774 C1778 0.949 . S
C1775 C1776 1.349 . S
C1775 C1777 1.327 1_455 S
C1775 H1798 0.950 . S
C1776 C1775 1.349 . S
C1776 C1788 1.349 . S
C1777 C1775 1.327 1_655 S
C1777 C1793 1.429 . S
C1777 H1799 0.950 . S
C1778 H1774 0.949 . S
C1778 C1786 1.574 . S
C1778 C1794 1.368 . S
H1779 C1787 0.950 . S
H1780 C1785 0.950 1_545 S
H1781 C1786 0.949 . S
H1782 C1788 0.950 . S
H1783 C1789 0.941 . S
H1784 C1790 0.949 . S
C1785 H1780 0.950 1_565 S
C1785 C1787 1.327 . S
C1785 C1791 1.429 1_565 S
C1786 C1778 1.574 . S
C1786 H1781 0.949 . S
C1786 C1792 1.368 . S
C1787 C1771 1.349 . S
C1787 H1779 0.950 . S
C1787 C1785 1.327 . S
C1788 C1776 1.349 . S
C1788 H1782 0.950 . S
C1788 C1789 1.313 1_455 S
C1789 H1783 0.941 . S
C1789 C1788 1.313 1_655 S
C1789 C1793 1.453 . S
C1790 C1773 1.574 . S
C1790 H1784 0.949 . S
C1790 C1794 1.368 . S
C1791 C1772 1.429 1_545 S
C1791 C1785 1.429 1_545 S
C1791 C1792 1.523 . S
C1792 C1773 1.368 . S
C1792 C1786 1.368 . S
C1792 C1791 1.523 . S
C1793 C1777 1.429 . S
C1793 C1789 1.453 . S
C1793 C1794 1.523 . S
C1794 C1778 1.368 . S
C1794 C1790 1.368 . S
C1794 C1793 1.523 . S
H1795 C1770 0.950 . S
H1796 C1772 0.950 . S
H1797 C1773 0.949 . S
H1798 C1775 0.950 . S
H1799 C1777 0.950 . S
C1800 C1801 1.349 . S
C1800 C1802 1.327 . S
C1800 H1825 0.950 . S
C1801 C1800 1.349 . S
C1801 C1817 1.349 . S
C1802 C1800 1.327 . S
C1802 C1821 1.429 . S
C1802 H1826 0.950 . S
C1803 C1820 1.574 . S
C1803 C1822 1.368 . S
C1803 H1827 0.949 . S
H1804 C1808 0.949 . S
C1805 C1806 1.349 . S
C1805 C1807 1.327 . S
C1805 H1828 0.950 . S
C1806 C1805 1.349 . S
C1806 C1818 1.349 . S
C1807 C1805 1.327 . S
C1807 C1823 1.429 . S
C1807 H1829 0.950 . S
C1808 H1804 0.949 . S
C1808 C1816 1.574 . S
C1808 C1824 1.368 . S
H1809 C1817 0.950 . S
H1810 C1815 0.950 . S
H1811 C1816 0.949 . S
H1812 C1818 0.950 . S
H1813 C1819 0.950 . S
H1814 C1820 0.949 1_545 S
C1815 H1810 0.950 . S
C1815 C1817 1.327 . S
C1815 C1821 1.429 . S
C1816 C1808 1.574 . S
C1816 H1811 0.949 . S
C1816 C1822 1.368 . S
C1817 C1801 1.349 . S
C1817 H1809 0.950 . S
C1817 C1815 1.327 . S
C1818 C1806 1.349 . S
C1818 H1812 0.950 . S
C1818 C1819 1.327 . S
C1819 H1813 0.950 . S
C1819 C1818 1.327 . S
C1819 C1823 1.429 . S
C1820 C1803 1.574 . S
C1820 H1814 0.949 1_565 S
C1820 C1824 1.368 . S
C1821 C1802 1.429 . S
C1821 C1815 1.429 . S
C1821 C1822 1.523 . S
C1822 C1803 1.368 . S
C1822 C1816 1.368 . S
C1822 C1821 1.523 . S
C1823 C1807 1.429 . S
C1823 C1819 1.429 . S
C1823 C1824 1.523 1_545 S
C1824 C1808 1.368 . S
C1824 C1820 1.368 . S
C1824 C1823 1.523 1_565 S
H1825 C1800 0.950 . S
H1826 C1802 0.950 . S
H1827 C1803 0.949 . S
H1828 C1805 0.950 . S
H1829 C1807 0.950 . S
C1830 C1831 1.349 . S
C1830 C1832 1.327 1_545 S
C1830 H1855 0.950 . S
C1831 C1830 1.349 . S
C1831 C1847 1.349 . S
C1832 C1830 1.327 1_565 S
C1832 C1851 1.429 . S
C1832 H1856 0.950 . S
C1833 C1850 1.574 . S
C1833 C1852 1.368 . S
C1833 H1857 0.949 . S
H1834 C1838 0.949 . S
C1835 C1836 1.349 . S
C1835 C1837 1.327 . S
C1835 H1858 0.950 . S
C1836 C1835 1.349 . S
C1836 C1848 1.349 . S
C1837 C1835 1.327 . S
C1837 C1853 1.429 1_655 S
C1837 H1859 0.950 . S
C1838 H1834 0.949 . S
C1838 C1846 1.574 . S
C1838 C1854 1.368 . S
H1839 C1847 0.950 . S
H1840 C1845 0.947 . S
H1841 C1846 0.949 . S
H1842 C1848 0.950 . S
H1843 C1849 0.950 1_455 S
H1844 C1850 0.949 . S
C1845 H1840 0.947 . S
C1845 C1847 1.324 1_565 S
C1845 C1851 1.434 . S
C1846 C1838 1.574 . S
C1846 H1841 0.949 . S
C1846 C1852 1.368 . S
C1847 C1831 1.349 . S
C1847 H1839 0.950 . S
C1847 C1845 1.324 1_545 S
C1848 C1836 1.349 . S
C1848 H1842 0.950 . S
C1848 C1849 1.327 . S
C1849 H1843 0.950 1_655 S
C1849 C1848 1.327 . S
C1849 C1853 1.429 1_655 S
C1850 C1833 1.574 . S
C1850 H1844 0.949 . S
C1850 C1854 1.368 . S
C1851 C1832 1.429 . S
C1851 C1845 1.434 . S
C1851 C1852 1.523 . S
C1852 C1833 1.368 . S
C1852 C1846 1.368 . S
C1852 C1851 1.523 . S
C1853 C1837 1.429 1_455 S
C1853 C1849 1.429 1_455 S
C1853 C1854 1.523 . S
C1854 C1838 1.368 . S
C1854 C1850 1.368 . S
C1854 C1853 1.523 . S
H1855 C1830 0.950 . S
H1856 C1832 0.950 . S
H1857 C1833 0.949 . S
H1858 C1835 0.950 . S
H1859 C1837 0.950 . S
C1860 C1861 1.349 . S
C1860 C1862 1.327 . S
C1860 H1885 0.950 . S
C1861 C1860 1.349 . S
C1861 C1877 1.349 . S
C1862 C1860 1.327 . S
C1862 C1881 1.429 . S
C1862 H1886 0.950 . S
C1863 C1880 1.574 . S
C1863 C1882 1.368 . S
C1863 H1887 0.949 . S
H1864 C1868 0.949 . S
C1865 C1866 1.352 . S
C1865 C1867 1.327 . S
C1865 H1888 0.950 1_455 S
C1866 C1865 1.352 . S
C1866 C1878 1.352 . S
C1867 C1865 1.327 . S
C1867 C1883 1.429 . S
C1867 H1889 0.950 . S
C1868 H1864 0.949 . S
C1868 C1876 1.574 . S
C1868 C1884 1.368 . S
H1869 C1877 0.950 . S
H1870 C1875 0.950 . S
H1871 C1876 0.949 . S
H1872 C1878 0.950 . S
H1873 C1879 0.950 . S
H1874 C1880 0.949 . S
C1875 H1870 0.950 . S
C1875 C1877 1.327 . S
C1875 C1881 1.429 . S
C1876 C1868 1.574 . S
C1876 H1871 0.949 . S
C1876 C1882 1.368 . S
C1877 C1861 1.349 . S
C1877 H1869 0.950 . S
C1877 C1875 1.327 . S
C1878 C1866 1.352 . S
C1878 H1872 0.950 . S
C1878 C1879 1.327 . S
C1879 H1873 0.950 . S
C1879 C1878 1.327 . S
C1879 C1883 1.429 . S
C1880 C1863 1.574 . S
C1880 H1874 0.949 . S
C1880 C1884 1.368 . S
C1881 C1862 1.429 . S
C1881 C1875 1.429 . S
C1881 C1882 1.523 . S
C1882 C1863 1.368 . S
C1882 C1876 1.368 . S
C1882 C1881 1.523 . S
C1883 C1867 1.429 . S
C1883 C1879 1.429 . S
C1883 C1884 1.523 . S
C1884 C1868 1.368 . S
C1884 C1880 1.368 . S
C1884 C1883 1.523 . S
H1885 C1860 0.950 . S
H1886 C1862 0.950 . S
H1887 C1863 0.949 . S
H1888 C1865 0.950 1_655 S
H1889 C1867 0.950 . S
C1890 C1891 1.349 . S
C1890 C1892 1.327 . S
C1890 H1915 0.950 . S
C1891 C1890 1.349 . S
C1891 C1907 1.349 . S
C1892 C1890 1.327 . S
C1892 C1911 1.429 . S
C1892 H1916 0.950 . S
C1893 C1910 1.574 . S
C1893 C1912 1.368 . S
C1893 H1917 0.949 . S
H1894 C1898 0.949 . S
C1895 C1896 1.349 . S
C1895 C1897 1.327 . S
C1895 H1918 0.950 . S
C1896 C1895 1.349 . S
C1896 C1908 1.349 . S
C1897 C1895 1.327 . S
C1897 C1913 1.429 . S
C1897 H1919 0.950 . S
C1898 H1894 0.949 . S
C1898 C1906 1.574 . S
C1898 C1914 1.368 . S
H1899 C1907 0.950 . S
H1900 C1905 0.950 . S
H1901 C1906 0.949 . S
H1902 C1908 0.950 . S
H1903 C1909 0.950 . S
H1904 C1910 0.949 . S
C1905 H1900 0.950 . S
C1905 C1907 1.327 . S
C1905 C1911 1.429 . S
C1906 C1898 1.574 . S
C1906 H1901 0.949 . S
C1906 C1912 1.368 . S
C1907 C1891 1.349 . S
C1907 H1899 0.950 . S
C1907 C1905 1.327 . S
C1908 C1896 1.349 . S
C1908 H1902 0.950 . S
C1908 C1909 1.327 . S
C1909 H1903 0.950 . S
C1909 C1908 1.327 . S
C1909 C1913 1.429 . S
C1910 C1893 1.574 . S
C1910 H1904 0.949 . S
C1910 C1914 1.368 . S
C1911 C1892 1.429 . S
C1911 C1905 1.429 . S
C1911 C1912 1.523 . S
C1912 C1893 1.368 . S
C1912 C1906 1.368 . S
C1912 C1911 1.523 . S
C1913 C1897 1.429 . S
C1913 C1909 1.429 . S
C1913 C1914 1.523 . S
C1914 C1898 1.368 . S
C1914 C1910 1.368 . S
C1914 C1913 1.523 . S
H1915 C1890 0.950 . S
H1916 C1892 0.950 . S
H1917 C1893 0.949 . S
H1918 C1895 0.950 . S
H1919 C1897 0.950 . S
C1920 C1921 1.349 . S
C1920 C1922 1.327 . S
C1920 H1945 0.950 . S
C1921 C1920 1.349 . S
C1921 C1937 1.349 . S
C1922 C1920 1.327 . S
C1922 C1941 1.429 . S
C1922 H1946 0.950 . S
C1923 C1940 1.574 . S
C1923 C1942 1.368 . S
C1923 H1947 0.949 . S
H1924 C1928 0.949 . S
C1925 C1926 1.349 . S
C1925 C1927 1.327 . S
C1925 H1948 0.950 . S
C1926 C1925 1.349 . S
C1926 C1938 1.349 . S
C1927 C1925 1.327 . S
C1927 C1943 1.429 . S
C1927 H1949 0.950 . S
C1928 H1924 0.949 . S
C1928 C1936 1.574 . S
C1928 C1944 1.368 . S
H1929 C1937 0.950 . S
H1930 C1935 0.950 . S
H1931 C1936 0.949 . S
H1932 C1938 0.950 . S
H1933 C1939 0.950 . S
H1934 C1940 0.949 . S
C1935 H1930 0.950 . S
C1935 C1937 1.327 . S
C1935 C1941 1.429 . S
C1936 C1928 1.574 . S
C1936 H1931 0.949 . S
C1936 C1942 1.368 . S
C1937 C1921 1.349 . S
C1937 H1929 0.950 . S
C1937 C1935 1.327 . S
C1938 C1926 1.349 . S
C1938 H1932 0.950 . S
C1938 C1939 1.327 . S
C1939 H1933 0.950 . S
C1939 C1938 1.327 . S
C1939 C1943 1.429 . S
C1940 C1923 1.574 . S
C1940 H1934 0.949 . S
C1940 C1944 1.368 . S
C1941 C1922 1.429 . S
C1941 C1935 1.429 . S
C1941 C1942 1.523 . S
C1942 C1923 1.368 . S
C1942 C1936 1.368 . S
C1942 C1941 1.523 . S
C1943 C1927 1.429 . S
C1943 C1939 1.429 . S
C1943 C1944 1.523 . S
C1944 C1928 1.368 . S
C1944 C1940 1.368 . S
C1944 C1943 1.523 . S
H1945 C1920 0.950 . S
H1946 C1922 0.950 . S
H1947 C1923 0.949 . S
H1948 C1925 0.950 . S
H1949 C1927 0.950 . S
C1950 C1951 1.349 . S
C1950 C1952 1.327 . S
C1950 H1975 0.950 . S
C1951 C1950 1.349 . S
C1951 C1967 1.349 . S
C1952 C1950 1.327 . S
C1952 C1971 1.429 . S
C1952 H1976 0.950 . S
C1953 C1970 1.574 . S
C1953 C1972 1.368 . S
C1953 H1977 0.949 . S
H1954 C1958 0.949 . S
C1955 C1956 1.349 . S
C1955 C1957 1.327 . S
C1955 H1978 0.950 . S
C1956 C1955 1.349 . S
C1956 C1968 1.349 . S
C1957 C1955 1.327 . S
C1957 C1973 1.429 . S
C1957 H1979 0.950 . S
C1958 H1954 0.949 . S
C1958 C1966 1.574 . S
C1958 C1974 1.368 . S
H1959 C1967 0.950 . S
H1960 C1965 0.950 . S
H1961 C1966 0.949 . S
H1962 C1968 0.950 . S
H1963 C1969 0.950 . S
H1964 C1970 0.949 . S
C1965 H1960 0.950 . S
C1965 C1967 1.327 . S
C1965 C1971 1.429 . S
C1966 C1958 1.574 . S
C1966 H1961 0.949 . S
C1966 C1972 1.368 . S
C1967 C1951 1.349 . S
C1967 H1959 0.950 . S
C1967 C1965 1.327 . S
C1968 C1956 1.349 . S
C1968 H1962 0.950 . S
C1968 C1969 1.327 . S
C1969 H1963 0.950 . S
C1969 C1968 1.327 . S
C1969 C1973 1.429 . S
C1970 C1953 1.574 . S
C1970 H1964 0.949 . S
C1970 C1974 1.368 . S
C1971 C1952 1.429 . S
C1971 C1965 1.429 . S
C1971 C1972 1.523 . S
C1972 C1953 1.368 . S
C1972 C1966 1.368 . S
C1972 C1971 1.523 . S
C1973 C1957 1.429 . S
C1973 C1969 1.429 . S
C1973 C1974 1.523 . S
C1974 C1958 1.368 . S
C1974 C1970 1.368 . S
C1974 C1973 1.523 . S
H1975 C1950 0.950 . S
H1976 C1952 0.950 . S
H1977 C1953 0.949 . S
H1978 C1955 0.950 . S
H1979 C1957 0.950 . S
C361 C6 1.044 . S
C366 C59 1.045 . S
C391 C19 1.044 . S
C396 C26 1.044 . S
C421 C39 1.045 . S
C426 C46 1.044 . S
C451 C66 1.044 . S
C456 C99 1.045 . S
C481 C119 1.045 . S
C486 C86 1.044 . S
C511 C106 1.044 . S
C516 C79 1.044 . S
C541 C179 1.045 . S
C546 C126 1.044 . S
C571 C139 1.044 . S
C576 C146 1.044 . S
C601 C166 1.044 . S
C606 C159 1.045 . S
C631 C219 1.045 . S
C636 C186 1.044 . S
C661 C206 1.044 . S
C666 C239 1.045 . S
C691 C199 1.045 . S
C696 C226 1.044 . S
C721 C246 1.044 . S
C726 C299 1.045 . S
C751 C259 1.045 . S
C756 C266 1.044 . S
C781 C279 1.045 . S
C786 C286 1.044 . S
C811 C339 1.045 . S
C816 C306 1.044 . S
C841 C359 1.045 . S
C846 C326 1.044 . S
C871 C319 1.044 . S
C876 C346 1.044 . S
C901 C9 1.760 . S
C906 C109 1.760 . S
C931 C69 1.760 . S
C936 C29 1.760 . S
C961 C89 1.760 . S
C966 C49 1.760 . S
C991 C129 1.760 . S
C996 C229 1.760 . S
C1021 C149 1.760 . S
C1026 C189 1.760 . S
C1051 C209 1.760 . S
C1056 C169 1.760 . S
C1081 C249 1.760 . S
C1086 C349 1.760 . S
C1111 C309 1.760 . S
C1116 C269 1.760 . S
C1141 C329 1.760 . S
C1146 C289 1.760 . S
C1171 C201 1.913 . S
C1176 C1 1.913 . S
C1201 C21 1.913 . S
C1206 C221 1.913 . S
C1231 C181 1.912 . S
C1236 C41 1.912 . S
C1261 C61 1.913 . S
C1266 C281 1.913 . S
C1291 C81 1.912 . S
C1296 C241 1.912 . S
C1321 C261 1.913 . S
C1326 C101 1.913 . S
C1351 C321 1.913 . S
C1356 C121 1.913 . S
C1381 C141 1.913 . S
C1386 C341 1.913 . S
C1411 C161 1.913 . S
C1416 C301 1.913 . S
C1441 C48 1.814 . S
C1446 C16 1.885 . S
C1471 C8 1.814 . S
C1476 C36 1.885 . S
C1501 C56 1.885 . S
C1506 C28 1.814 . S
C1531 C88 1.814 . S
C1536 C76 1.885 . S
C1561 C108 1.814 . S
C1566 C96 1.885 . S
C1591 C116 1.885 . S
C1596 C68 1.814 . S
C1621 C168 1.814 . S
C1626 C136 1.885 . S
C1651 C156 1.885 . S
C1656 C128 1.814 . S
C1681 C148 1.814 . S
C1686 C176 1.885 . S
C1711 C196 1.885 . S
C1716 C208 1.814 . S
C1741 C216 1.879 1_545 S
C1746 C228 1.814 . S
C1771 C188 1.814 . S
C1776 C236 1.885 . S
C1801 C256 1.885 . S
C1806 C288 1.814 . S
C1831 C276 1.885 . S
C1836 C248 1.814 . S
C1861 C268 1.814 . S
C1866 C296 1.879 1_455 S
C1891 C316 1.885 . S
C1896 C328 1.814 . S
C1921 C336 1.885 . S
C1926 C348 1.814 . S
C1951 C308 1.814 . S
C1956 C356 1.885 . S
