# Generated by pormake.
# Topology uli, (4)-cn, num edge types: 1
# Building blocks:
#     Node 0, Type 0, BuildingBlock: TATPOV_clean_sbu_0, # of connection points: 4
#     Node 1, Type 0, BuildingBlock: TATPOV_clean_sbu_0, # of connection points: 4
#     Node 2, Type 0, BuildingBlock: TATPOV_clean_sbu_0, # of connection points: 4
#     Node 3, Type 0, BuildingBlock: TATPOV_clean_sbu_0, # of connection points: 4
#     Node 4, Type 0, BuildingBlock: TATPOV_clean_sbu_0, # of connection points: 4
#     Node 5, Type 0, BuildingBlock: TATPOV_clean_sbu_0, # of connection points: 4
#     Node 6, Type 0, BuildingBlock: TATPOV_clean_sbu_0, # of connection points: 4
#     Node 7, Type 0, BuildingBlock: TATPOV_clean_sbu_0, # of connection points: 4
#     Node 8, Type 0, BuildingBlock: TATPOV_clean_sbu_0, # of connection points: 4
#     Node 9, Type 0, BuildingBlock: TATPOV_clean_sbu_0, # of connection points: 4
#     Node 10, Type 0, BuildingBlock: TATPOV_clean_sbu_0, # of connection points: 4
#     Node 11, Type 0, BuildingBlock: TATPOV_clean_sbu_0, # of connection points: 4
#     Node 12, Type 0, BuildingBlock: TATPOV_clean_sbu_0, # of connection points: 4
#     Node 13, Type 0, BuildingBlock: TATPOV_clean_sbu_0, # of connection points: 4
#     Node 14, Type 0, BuildingBlock: TATPOV_clean_sbu_0, # of connection points: 4
#     Node 15, Type 0, BuildingBlock: TATPOV_clean_sbu_0, # of connection points: 4
#     Node 16, Type 0, BuildingBlock: TATPOV_clean_sbu_0, # of connection points: 4
#     Node 17, Type 0, BuildingBlock: TATPOV_clean_sbu_0, # of connection points: 4
#     Node 18, Type 0, BuildingBlock: TATPOV_clean_sbu_0, # of connection points: 4
#     Node 19, Type 0, BuildingBlock: TATPOV_clean_sbu_0, # of connection points: 4
#     Node 20, Type 0, BuildingBlock: TATPOV_clean_sbu_0, # of connection points: 4
#     Node 21, Type 0, BuildingBlock: TATPOV_clean_sbu_0, # of connection points: 4
#     Node 22, Type 0, BuildingBlock: TATPOV_clean_sbu_0, # of connection points: 4
#     Node 23, Type 0, BuildingBlock: TATPOV_clean_sbu_0, # of connection points: 4
#     Node 24, Type 0, BuildingBlock: TATPOV_clean_sbu_0, # of connection points: 4
#     Node 25, Type 0, BuildingBlock: TATPOV_clean_sbu_0, # of connection points: 4
#     Node 26, Type 0, BuildingBlock: TATPOV_clean_sbu_0, # of connection points: 4
#     Node 27, Type 0, BuildingBlock: TATPOV_clean_sbu_0, # of connection points: 4
#     Node 28, Type 0, BuildingBlock: TATPOV_clean_sbu_0, # of connection points: 4
#     Node 29, Type 0, BuildingBlock: TATPOV_clean_sbu_0, # of connection points: 4
#     Node 30, Type 0, BuildingBlock: TATPOV_clean_sbu_0, # of connection points: 4
#     Node 31, Type 0, BuildingBlock: TATPOV_clean_sbu_0, # of connection points: 4
#     Node 32, Type 0, BuildingBlock: TATPOV_clean_sbu_0, # of connection points: 4
#     Node 33, Type 0, BuildingBlock: TATPOV_clean_sbu_0, # of connection points: 4
#     Node 34, Type 0, BuildingBlock: TATPOV_clean_sbu_0, # of connection points: 4
#     Node 35, Type 0, BuildingBlock: TATPOV_clean_sbu_0, # of connection points: 4
#     Node 36, Type 0, BuildingBlock: TATPOV_clean_sbu_0, # of connection points: 4
#     Node 37, Type 0, BuildingBlock: TATPOV_clean_sbu_0, # of connection points: 4
#     Node 38, Type 0, BuildingBlock: TATPOV_clean_sbu_0, # of connection points: 4
#     Node 39, Type 0, BuildingBlock: TATPOV_clean_sbu_0, # of connection points: 4
#     Node 40, Type 0, BuildingBlock: TATPOV_clean_sbu_0, # of connection points: 4
#     Node 41, Type 0, BuildingBlock: TATPOV_clean_sbu_0, # of connection points: 4
#     Node 42, Type 0, BuildingBlock: TATPOV_clean_sbu_0, # of connection points: 4
#     Node 43, Type 0, BuildingBlock: TATPOV_clean_sbu_0, # of connection points: 4
#     Node 44, Type 0, BuildingBlock: TATPOV_clean_sbu_0, # of connection points: 4
#     Node 45, Type 0, BuildingBlock: TATPOV_clean_sbu_0, # of connection points: 4
#     Node 46, Type 0, BuildingBlock: TATPOV_clean_sbu_0, # of connection points: 4
#     Node 47, Type 0, BuildingBlock: TATPOV_clean_sbu_0, # of connection points: 4
#     Edge 48, Type (0, 0), BuildingBlock: TEMPAE_clean_linker_10, # of connection points: 2
#     Edge 49, Type (0, 0), BuildingBlock: TEMPAE_clean_linker_10, # of connection points: 2
#     Edge 50, Type (0, 0), BuildingBlock: TEMPAE_clean_linker_10, # of connection points: 2
#     Edge 51, Type (0, 0), BuildingBlock: TEMPAE_clean_linker_10, # of connection points: 2
#     Edge 52, Type (0, 0), BuildingBlock: TEMPAE_clean_linker_10, # of connection points: 2
#     Edge 53, Type (0, 0), BuildingBlock: TEMPAE_clean_linker_10, # of connection points: 2
#     Edge 54, Type (0, 0), BuildingBlock: TEMPAE_clean_linker_10, # of connection points: 2
#     Edge 55, Type (0, 0), BuildingBlock: TEMPAE_clean_linker_10, # of connection points: 2
#     Edge 56, Type (0, 0), BuildingBlock: TEMPAE_clean_linker_10, # of connection points: 2
#     Edge 57, Type (0, 0), BuildingBlock: TEMPAE_clean_linker_10, # of connection points: 2
#     Edge 58, Type (0, 0), BuildingBlock: TEMPAE_clean_linker_10, # of connection points: 2
#     Edge 59, Type (0, 0), BuildingBlock: TEMPAE_clean_linker_10, # of connection points: 2
#     Edge 60, Type (0, 0), BuildingBlock: TEMPAE_clean_linker_10, # of connection points: 2
#     Edge 61, Type (0, 0), BuildingBlock: TEMPAE_clean_linker_10, # of connection points: 2
#     Edge 62, Type (0, 0), BuildingBlock: TEMPAE_clean_linker_10, # of connection points: 2
#     Edge 63, Type (0, 0), BuildingBlock: TEMPAE_clean_linker_10, # of connection points: 2
#     Edge 64, Type (0, 0), BuildingBlock: TEMPAE_clean_linker_10, # of connection points: 2
#     Edge 65, Type (0, 0), BuildingBlock: TEMPAE_clean_linker_10, # of connection points: 2
#     Edge 66, Type (0, 0), BuildingBlock: TEMPAE_clean_linker_10, # of connection points: 2
#     Edge 67, Type (0, 0), BuildingBlock: TEMPAE_clean_linker_10, # of connection points: 2
#     Edge 68, Type (0, 0), BuildingBlock: TEMPAE_clean_linker_10, # of connection points: 2
#     Edge 69, Type (0, 0), BuildingBlock: TEMPAE_clean_linker_10, # of connection points: 2
#     Edge 70, Type (0, 0), BuildingBlock: TEMPAE_clean_linker_10, # of connection points: 2
#     Edge 71, Type (0, 0), BuildingBlock: TEMPAE_clean_linker_10, # of connection points: 2
#     Edge 72, Type (0, 0), BuildingBlock: TEMPAE_clean_linker_10, # of connection points: 2
#     Edge 73, Type (0, 0), BuildingBlock: TEMPAE_clean_linker_10, # of connection points: 2
#     Edge 74, Type (0, 0), BuildingBlock: TEMPAE_clean_linker_10, # of connection points: 2
#     Edge 75, Type (0, 0), BuildingBlock: TEMPAE_clean_linker_10, # of connection points: 2
#     Edge 76, Type (0, 0), BuildingBlock: TEMPAE_clean_linker_10, # of connection points: 2
#     Edge 77, Type (0, 0), BuildingBlock: TEMPAE_clean_linker_10, # of connection points: 2
#     Edge 78, Type (0, 0), BuildingBlock: TEMPAE_clean_linker_10, # of connection points: 2
#     Edge 79, Type (0, 0), BuildingBlock: TEMPAE_clean_linker_10, # of connection points: 2
#     Edge 80, Type (0, 0), BuildingBlock: TEMPAE_clean_linker_10, # of connection points: 2
#     Edge 81, Type (0, 0), BuildingBlock: TEMPAE_clean_linker_10, # of connection points: 2
#     Edge 82, Type (0, 0), BuildingBlock: TEMPAE_clean_linker_10, # of connection points: 2
#     Edge 83, Type (0, 0), BuildingBlock: TEMPAE_clean_linker_10, # of connection points: 2
#     Edge 84, Type (0, 0), BuildingBlock: TEMPAE_clean_linker_10, # of connection points: 2
#     Edge 85, Type (0, 0), BuildingBlock: TEMPAE_clean_linker_10, # of connection points: 2
#     Edge 86, Type (0, 0), BuildingBlock: TEMPAE_clean_linker_10, # of connection points: 2
#     Edge 87, Type (0, 0), BuildingBlock: TEMPAE_clean_linker_10, # of connection points: 2
#     Edge 88, Type (0, 0), BuildingBlock: TEMPAE_clean_linker_10, # of connection points: 2
#     Edge 89, Type (0, 0), BuildingBlock: TEMPAE_clean_linker_10, # of connection points: 2
#     Edge 90, Type (0, 0), BuildingBlock: TEMPAE_clean_linker_10, # of connection points: 2
#     Edge 91, Type (0, 0), BuildingBlock: TEMPAE_clean_linker_10, # of connection points: 2
#     Edge 92, Type (0, 0), BuildingBlock: TEMPAE_clean_linker_10, # of connection points: 2
#     Edge 93, Type (0, 0), BuildingBlock: TEMPAE_clean_linker_10, # of connection points: 2
#     Edge 94, Type (0, 0), BuildingBlock: TEMPAE_clean_linker_10, # of connection points: 2
#     Edge 95, Type (0, 0), BuildingBlock: TEMPAE_clean_linker_10, # of connection points: 2
#     Edge 96, Type (0, 0), BuildingBlock: TEMPAE_clean_linker_10, # of connection points: 2
#     Edge 97, Type (0, 0), BuildingBlock: TEMPAE_clean_linker_10, # of connection points: 2
#     Edge 98, Type (0, 0), BuildingBlock: TEMPAE_clean_linker_10, # of connection points: 2
#     Edge 99, Type (0, 0), BuildingBlock: TEMPAE_clean_linker_10, # of connection points: 2
#     Edge 100, Type (0, 0), BuildingBlock: TEMPAE_clean_linker_10, # of connection points: 2
#     Edge 101, Type (0, 0), BuildingBlock: TEMPAE_clean_linker_10, # of connection points: 2
#     Edge 102, Type (0, 0), BuildingBlock: TEMPAE_clean_linker_10, # of connection points: 2
#     Edge 103, Type (0, 0), BuildingBlock: TEMPAE_clean_linker_10, # of connection points: 2
#     Edge 104, Type (0, 0), BuildingBlock: TEMPAE_clean_linker_10, # of connection points: 2
#     Edge 105, Type (0, 0), BuildingBlock: TEMPAE_clean_linker_10, # of connection points: 2
#     Edge 106, Type (0, 0), BuildingBlock: TEMPAE_clean_linker_10, # of connection points: 2
#     Edge 107, Type (0, 0), BuildingBlock: TEMPAE_clean_linker_10, # of connection points: 2
#     Edge 108, Type (0, 0), BuildingBlock: TEMPAE_clean_linker_10, # of connection points: 2
#     Edge 109, Type (0, 0), BuildingBlock: TEMPAE_clean_linker_10, # of connection points: 2
#     Edge 110, Type (0, 0), BuildingBlock: TEMPAE_clean_linker_10, # of connection points: 2
#     Edge 111, Type (0, 0), BuildingBlock: TEMPAE_clean_linker_10, # of connection points: 2
#     Edge 112, Type (0, 0), BuildingBlock: TEMPAE_clean_linker_10, # of connection points: 2
#     Edge 113, Type (0, 0), BuildingBlock: TEMPAE_clean_linker_10, # of connection points: 2
#     Edge 114, Type (0, 0), BuildingBlock: TEMPAE_clean_linker_10, # of connection points: 2
#     Edge 115, Type (0, 0), BuildingBlock: TEMPAE_clean_linker_10, # of connection points: 2
#     Edge 116, Type (0, 0), BuildingBlock: TEMPAE_clean_linker_10, # of connection points: 2
#     Edge 117, Type (0, 0), BuildingBlock: TEMPAE_clean_linker_10, # of connection points: 2
#     Edge 118, Type (0, 0), BuildingBlock: TEMPAE_clean_linker_10, # of connection points: 2
#     Edge 119, Type (0, 0), BuildingBlock: TEMPAE_clean_linker_10, # of connection points: 2
#     Edge 120, Type (0, 0), BuildingBlock: TEMPAE_clean_linker_10, # of connection points: 2
#     Edge 121, Type (0, 0), BuildingBlock: TEMPAE_clean_linker_10, # of connection points: 2
#     Edge 122, Type (0, 0), BuildingBlock: TEMPAE_clean_linker_10, # of connection points: 2
#     Edge 123, Type (0, 0), BuildingBlock: TEMPAE_clean_linker_10, # of connection points: 2
#     Edge 124, Type (0, 0), BuildingBlock: TEMPAE_clean_linker_10, # of connection points: 2
#     Edge 125, Type (0, 0), BuildingBlock: TEMPAE_clean_linker_10, # of connection points: 2
#     Edge 126, Type (0, 0), BuildingBlock: TEMPAE_clean_linker_10, # of connection points: 2
#     Edge 127, Type (0, 0), BuildingBlock: TEMPAE_clean_linker_10, # of connection points: 2
#     Edge 128, Type (0, 0), BuildingBlock: TEMPAE_clean_linker_10, # of connection points: 2
#     Edge 129, Type (0, 0), BuildingBlock: TEMPAE_clean_linker_10, # of connection points: 2
#     Edge 130, Type (0, 0), BuildingBlock: TEMPAE_clean_linker_10, # of connection points: 2
#     Edge 131, Type (0, 0), BuildingBlock: TEMPAE_clean_linker_10, # of connection points: 2
#     Edge 132, Type (0, 0), BuildingBlock: TEMPAE_clean_linker_10, # of connection points: 2
#     Edge 133, Type (0, 0), BuildingBlock: TEMPAE_clean_linker_10, # of connection points: 2
#     Edge 134, Type (0, 0), BuildingBlock: TEMPAE_clean_linker_10, # of connection points: 2
#     Edge 135, Type (0, 0), BuildingBlock: TEMPAE_clean_linker_10, # of connection points: 2
#     Edge 136, Type (0, 0), BuildingBlock: TEMPAE_clean_linker_10, # of connection points: 2
#     Edge 137, Type (0, 0), BuildingBlock: TEMPAE_clean_linker_10, # of connection points: 2
#     Edge 138, Type (0, 0), BuildingBlock: TEMPAE_clean_linker_10, # of connection points: 2
#     Edge 139, Type (0, 0), BuildingBlock: TEMPAE_clean_linker_10, # of connection points: 2
#     Edge 140, Type (0, 0), BuildingBlock: TEMPAE_clean_linker_10, # of connection points: 2
#     Edge 141, Type (0, 0), BuildingBlock: TEMPAE_clean_linker_10, # of connection points: 2
#     Edge 142, Type (0, 0), BuildingBlock: TEMPAE_clean_linker_10, # of connection points: 2
#     Edge 143, Type (0, 0), BuildingBlock: TEMPAE_clean_linker_10, # of connection points: 2
# Relax obj value: 0.412
# Max RMSD: 0.195
# Mean RMSD: 0.195
data_MOF--net-uli--node1-TATPOV_clean_sbu_0--edge1-TEMPAE_clean_linker_10
_symmetry_space_group_name_H-M    P1
_symmetry_Int_Tables_number       1
_symmetry_cell_setting            triclinic
loop_
_symmetry_equiv_pos_as_xyz
'x, y, z'
_cell_length_a     70.380589
_cell_length_b     70.143837
_cell_length_c     70.241
_cell_angle_alpha  90.095945
_cell_angle_beta   90.031091
_cell_angle_gamma 89.974433
loop_
_atom_site_label
_atom_site_type_symbol
_atom_site_fract_x
_atom_site_fract_y
_atom_site_fract_z
_atom_type_partial_charge
Zn0 Zn 0.11101 0.25138 0.1966 0.0
Zn1 Zn 0.07921 0.25161 0.18642 0.0
O2 O 0.08236 0.22557 0.20059 0.0
O3 O 0.11337 0.22347 0.20023 0.0
O4 O 0.05096 0.25131 0.18399 0.0
O5 O 0.10783 0.26872 0.21895 0.0
O6 O 0.08453 0.27752 0.20031 0.0
C7 C 0.0974 0.21576 0.20291 0.0
C8 C 0.10869 0.25712 0.15702 0.0
O9 O 0.09198 0.25067 0.15987 0.0
O10 O 0.11877 0.26187 0.1712 0.0
C11 C 0.04259 0.23742 0.17597 0.0
O12 O 0.05245 0.22569 0.16524 0.0
C13 C 0.09558 0.28099 0.21428 0.0
Zn14 Zn 0.73002 0.11346 0.19882 0.0
Zn15 Zn 0.72068 0.08228 0.18735 0.0
O16 O 0.74793 0.082 0.19946 0.0
O17 O 0.7493 0.10667 0.21848 0.0
O18 O 0.71804 0.05382 0.18481 0.0
O19 O 0.70431 0.12142 0.20636 0.0
O20 O 0.69605 0.0916 0.20187 0.0
C21 C 0.75652 0.09139 0.21236 0.0
C22 C 0.73158 0.10972 0.15802 0.0
O23 O 0.72187 0.09467 0.16088 0.0
O24 O 0.7383 0.11902 0.17194 0.0
C25 C 0.73198 0.04546 0.17687 0.0
O26 O 0.74415 0.05578 0.16719 0.0
C27 C 0.69179 0.10855 0.20707 0.0
Zn28 Zn 0.85246 0.71633 0.18325 0.0
Zn29 Zn 0.88669 0.71946 0.18151 0.0
O30 O 0.87807 0.7429 0.19756 0.0
O31 O 0.84739 0.7428 0.19243 0.0
O32 O 0.915 0.72392 0.18237 0.0
O33 O 0.85202 0.69454 0.20071 0.0
O34 O 0.88217 0.69189 0.19289 0.0
C35 C 0.86196 0.75106 0.19896 0.0
C36 C 0.86346 0.71666 0.14532 0.0
O37 O 0.87874 0.72267 0.15303 0.0
O38 O 0.85017 0.71049 0.15569 0.0
C39 C 0.92015 0.74082 0.17829 0.0
O40 O 0.90736 0.75281 0.17178 0.0
C41 C 0.86725 0.68503 0.20068 0.0
Zn42 Zn 0.25632 0.85753 0.1943 0.0
Zn43 Zn 0.25079 0.88997 0.18729 0.0
O44 O 0.22795 0.8818 0.20448 0.0
O45 O 0.2298 0.85086 0.20118 0.0
O46 O 0.2447 0.91814 0.18525 0.0
O47 O 0.27573 0.86169 0.21434 0.0
O48 O 0.27888 0.88805 0.19797 0.0
C49 C 0.22051 0.86536 0.20634 0.0
C50 C 0.25601 0.86224 0.15517 0.0
O51 O 0.24793 0.87769 0.16041 0.0
O52 O 0.26446 0.85222 0.16751 0.0
C53 C 0.22725 0.92208 0.18246 0.0
O54 O 0.21552 0.90817 0.17808 0.0
C55 C 0.28545 0.87616 0.21007 0.0
Zn56 Zn 0.11551 0.71907 0.78791 0.0
Zn57 Zn 0.08011 0.72035 0.78397 0.0
O58 O 0.09054 0.74337 0.76882 0.0
O59 O 0.1213 0.74301 0.77358 0.0
O60 O 0.05274 0.72398 0.77632 0.0
O61 O 0.11868 0.69378 0.7766 0.0
O62 O 0.08749 0.69251 0.77452 0.0
C63 C 0.10682 0.75092 0.76644 0.0
C64 C 0.0972 0.72388 0.82354 0.0
O65 O 0.08227 0.72559 0.81334 0.0
O66 O 0.11292 0.72001 0.81582 0.0
C67 C 0.03843 0.72778 0.78667 0.0
O68 O 0.04007 0.72739 0.80529 0.0
C69 C 0.10378 0.68459 0.77263 0.0
Zn70 Zn 0.24346 0.1201 0.78018 0.0
Zn71 Zn 0.24689 0.08489 0.78115 0.0
O72 O 0.22058 0.09105 0.76875 0.0
O73 O 0.21687 0.12198 0.771 0.0
O74 O 0.24531 0.05611 0.77882 0.0
O75 O 0.26451 0.12393 0.76249 0.0
O76 O 0.27174 0.09373 0.76632 0.0
C77 C 0.21036 0.10585 0.7664 0.0
C78 C 0.24914 0.10729 0.81795 0.0
O79 O 0.24721 0.09088 0.81034 0.0
O80 O 0.24907 0.12206 0.8077 0.0
C81 C 0.2293 0.04946 0.78406 0.0
O82 O 0.21731 0.06082 0.79285 0.0
C83 C 0.27579 0.11022 0.75963 0.0
Zn84 Zn 0.84869 0.24755 0.78182 0.0
Zn85 Zn 0.88402 0.24768 0.78141 0.0
O86 O 0.87667 0.22252 0.76785 0.0
O87 O 0.84601 0.22059 0.77291 0.0
O88 O 0.91211 0.24597 0.77691 0.0
O89 O 0.84596 0.26837 0.76315 0.0
O90 O 0.87635 0.27352 0.76814 0.0
C91 C 0.86117 0.21325 0.76662 0.0
C92 C 0.86354 0.2495 0.81918 0.0
O93 O 0.87895 0.24542 0.81053 0.0
O94 O 0.84877 0.25341 0.80969 0.0
C95 C 0.92383 0.23711 0.78742 0.0
O96 O 0.91834 0.23076 0.80411 0.0
C97 C 0.86055 0.27853 0.76071 0.0
Zn98 Zn 0.71332 0.85443 0.77372 0.0
Zn99 Zn 0.71609 0.88861 0.77963 0.0
O100 O 0.7401 0.88137 0.76385 0.0
O101 O 0.74031 0.85026 0.76613 0.0
O102 O 0.72077 0.91689 0.78148 0.0
O103 O 0.69359 0.85733 0.75381 0.0
O104 O 0.68937 0.88569 0.76644 0.0
C105 C 0.74855 0.86551 0.76131 0.0
C106 C 0.71111 0.86194 0.81287 0.0
O107 O 0.7175 0.87796 0.80719 0.0
O108 O 0.70558 0.84978 0.80075 0.0
C109 C 0.73775 0.92149 0.78569 0.0
O110 O 0.74954 0.90811 0.79133 0.0
C111 C 0.68384 0.87236 0.75534 0.0
Zn112 Zn 0.19713 0.11717 0.25035 0.0
Zn113 Zn 0.18772 0.08352 0.24922 0.0
O114 O 0.20174 0.08937 0.2236 0.0
O115 O 0.20525 0.12037 0.22355 0.0
O116 O 0.1849 0.05507 0.24558 0.0
O117 O 0.21655 0.11396 0.27038 0.0
O118 O 0.20242 0.08653 0.27532 0.0
C119 C 0.2067 0.10458 0.21503 0.0
C120 C 0.15703 0.1128 0.25463 0.0
O121 O 0.16068 0.09563 0.24977 0.0
O122 O 0.17058 0.1243 0.25753 0.0
C123 C 0.17959 0.04955 0.22914 0.0
O124 O 0.17315 0.06231 0.21707 0.0
C125 C 0.21424 0.09934 0.28057 0.0
Zn126 Zn 0.83999 0.18164 0.26204 0.0
Zn127 Zn 0.88692 0.18798 0.25208 0.0
O128 O 0.87372 0.20178 0.23086 0.0
O129 O 0.84328 0.19521 0.23582 0.0
O130 O 0.91427 0.19344 0.24622 0.0
O131 O 0.85995 0.17798 0.28367 0.0
O132 O 0.88018 0.2006 0.27776 0.0
C133 C 0.85642 0.20245 0.22568 0.0
C134 C 0.86725 0.15131 0.25667 0.0
O135 O 0.8802 0.15972 0.24733 0.0
O136 O 0.85938 0.16062 0.27005 0.0
C137 C 0.92503 0.18278 0.23633 0.0
O138 O 0.91913 0.16574 0.23129 0.0
C139 C 0.86864 0.19281 0.28922 0.0
Zn140 Zn 0.76618 0.85599 0.25459 0.0
Zn141 Zn 0.77731 0.8897 0.25179 0.0
O142 O 0.76204 0.88387 0.22701 0.0
O143 O 0.75437 0.85369 0.22897 0.0
O144 O 0.77929 0.91804 0.24828 0.0
O145 O 0.75008 0.85995 0.27733 0.0
O146 O 0.76526 0.88726 0.27916 0.0
C147 C 0.7545 0.86907 0.21965 0.0
C148 C 0.80731 0.85992 0.25419 0.0
O149 O 0.80396 0.87733 0.25015 0.0
O150 O 0.79368 0.84871 0.25786 0.0
C151 C 0.78536 0.92476 0.23263 0.0
O152 O 0.7938 0.9133 0.22047 0.0
C153 C 0.75402 0.87497 0.28641 0.0
Zn154 Zn 0.11259 0.76387 0.25046 0.0
Zn155 Zn 0.07953 0.77633 0.2477 0.0
O156 O 0.08496 0.76038 0.22315 0.0
O157 O 0.1153 0.75363 0.22418 0.0
O158 O 0.05172 0.78124 0.24289 0.0
O159 O 0.10655 0.74632 0.27174 0.0
O160 O 0.08067 0.76357 0.27478 0.0
C161 C 0.0997 0.75336 0.2153 0.0
C162 C 0.11063 0.80491 0.25232 0.0
O163 O 0.09346 0.80227 0.24715 0.0
O164 O 0.12112 0.79072 0.25609 0.0
C165 C 0.04753 0.78589 0.22589 0.0
O166 O 0.0613 0.79056 0.21417 0.0
C167 C 0.09203 0.75093 0.28124 0.0
Zn168 Zn 0.19838 0.85468 0.7148 0.0
Zn169 Zn 0.19062 0.88805 0.71567 0.0
O170 O 0.20472 0.88267 0.74124 0.0
O171 O 0.20393 0.85153 0.74236 0.0
O172 O 0.18832 0.91659 0.7185 0.0
O173 O 0.21965 0.85712 0.69658 0.0
O174 O 0.20513 0.88388 0.68969 0.0
C175 C 0.20728 0.86726 0.75045 0.0
C176 C 0.15918 0.85971 0.70984 0.0
O177 O 0.16348 0.87625 0.71611 0.0
O178 O 0.17231 0.84826 0.70526 0.0
C179 C 0.18301 0.9225 0.73479 0.0
O180 O 0.1762 0.91008 0.747 0.0
C181 C 0.21737 0.87109 0.68551 0.0
Zn182 Zn 0.1164 0.18224 0.71413 0.0
Zn183 Zn 0.0798 0.18228 0.71581 0.0
O184 O 0.08884 0.19717 0.73953 0.0
O185 O 0.1199 0.19834 0.73763 0.0
O186 O 0.05193 0.18726 0.71907 0.0
O187 O 0.11718 0.19278 0.6881 0.0
O188 O 0.08588 0.19321 0.68852 0.0
C189 C 0.10474 0.20235 0.74644 0.0
C190 C 0.10035 0.14468 0.71899 0.0
O191 O 0.08433 0.15317 0.71952 0.0
O192 O 0.11549 0.15406 0.71659 0.0
C193 C 0.04235 0.179 0.73197 0.0
O194 O 0.04998 0.16482 0.74147 0.0
C195 C 0.10158 0.19605 0.67983 0.0
Zn196 Zn 0.77526 0.11592 0.70884 0.0
Zn197 Zn 0.77915 0.08013 0.71271 0.0
O198 O 0.76356 0.08863 0.73621 0.0
O199 O 0.76404 0.11983 0.73478 0.0
O200 O 0.77948 0.05194 0.71813 0.0
O201 O 0.75873 0.11341 0.68623 0.0
O202 O 0.76635 0.08293 0.68571 0.0
C203 C 0.75974 0.10475 0.74362 0.0
C204 C 0.81416 0.10534 0.71032 0.0
O205 O 0.80717 0.08923 0.71496 0.0
O206 O 0.80328 0.11877 0.70526 0.0
C207 C 0.78408 0.04742 0.73506 0.0
O208 O 0.79063 0.06075 0.74647 0.0
C209 C 0.75824 0.09734 0.67811 0.0
Zn210 Zn 0.84666 0.77492 0.71986 0.0
Zn211 Zn 0.88144 0.77945 0.7182 0.0
O212 O 0.87629 0.76761 0.74492 0.0
O213 O 0.84524 0.76761 0.74714 0.0
O214 O 0.90995 0.77782 0.7188 0.0
O215 O 0.84521 0.75492 0.70011 0.0
O216 O 0.87421 0.76411 0.69333 0.0
C217 C 0.86129 0.76463 0.75462 0.0
C218 C 0.85674 0.81394 0.71367 0.0
O219 O 0.87345 0.808 0.71746 0.0
O220 O 0.84316 0.8022 0.71234 0.0
C221 C 0.91903 0.78548 0.73247 0.0
O222 O 0.91 0.79707 0.74406 0.0
C223 C 0.85941 0.75442 0.68915 0.0
Zn224 Zn 0.2471 0.18445 0.11338 0.0
Zn225 Zn 0.24792 0.18419 0.07961 0.0
O226 O 0.22322 0.19882 0.08624 0.0
O227 O 0.21871 0.18737 0.11479 0.0
O228 O 0.24551 0.18492 0.05101 0.0
O229 O 0.26361 0.20732 0.11535 0.0
O230 O 0.27309 0.19876 0.08685 0.0
C231 C 0.21237 0.19623 0.10048 0.0
C232 C 0.25288 0.14785 0.10237 0.0
O233 O 0.24602 0.15547 0.08739 0.0
O234 O 0.25879 0.15853 0.1156 0.0
C235 C 0.22912 0.17985 0.04528 0.0
O236 O 0.21731 0.17217 0.05756 0.0
C237 C 0.27541 0.2088 0.10188 0.0
Zn238 Zn 0.23932 0.78226 0.84801 0.0
Zn239 Zn 0.24416 0.78367 0.88339 0.0
O240 O 0.21751 0.77152 0.87821 0.0
O241 O 0.21555 0.76703 0.8474 0.0
O242 O 0.24455 0.77861 0.91148 0.0
O243 O 0.26426 0.77086 0.84245 0.0
O244 O 0.2693 0.77062 0.87333 0.0
C245 C 0.20832 0.76545 0.86378 0.0
C246 C 0.24062 0.82069 0.86286 0.0
O247 O 0.24394 0.813 0.87896 0.0
O248 O 0.23774 0.81051 0.84828 0.0
C249 C 0.23521 0.78865 0.92329 0.0
O250 O 0.22773 0.80486 0.91771 0.0
C251 C 0.27504 0.76731 0.85637 0.0
Zn252 Zn 0.19167 0.25129 0.85139 0.0
Zn253 Zn 0.18646 0.24984 0.88606 0.0
O254 O 0.20235 0.22574 0.87981 0.0
O255 O 0.20011 0.22419 0.84877 0.0
O256 O 0.18514 0.24608 0.91445 0.0
O257 O 0.21094 0.27172 0.85338 0.0
O258 O 0.19967 0.27651 0.88217 0.0
C259 C 0.20504 0.21666 0.86435 0.0
C260 C 0.15275 0.25252 0.85934 0.0
O261 O 0.1589 0.24716 0.87556 0.0
O262 O 0.16437 0.25792 0.84674 0.0
C263 C 0.18072 0.22927 0.91958 0.0
O264 O 0.17431 0.21731 0.90666 0.0
C265 C 0.21014 0.28177 0.86829 0.0
Zn266 Zn 0.71756 0.19584 0.84773 0.0
Zn267 Zn 0.7175 0.18892 0.88289 0.0
O268 O 0.74262 0.20349 0.87723 0.0
O269 O 0.74407 0.2057 0.84616 0.0
O270 O 0.72106 0.18704 0.91126 0.0
O271 O 0.69625 0.21407 0.84972 0.0
O272 O 0.69144 0.20322 0.87868 0.0
C273 C 0.75163 0.20827 0.86228 0.0
C274 C 0.71468 0.15596 0.85544 0.0
O275 O 0.7183 0.16126 0.87243 0.0
O276 O 0.71224 0.16825 0.8425 0.0
C277 C 0.7375 0.18113 0.91598 0.0
O278 O 0.74848 0.17369 0.90279 0.0
C279 C 0.68616 0.21344 0.86457 0.0
Zn280 Zn 0.78316 0.72008 0.85051 0.0
Zn281 Zn 0.78173 0.71992 0.88529 0.0
O282 O 0.76745 0.74459 0.87769 0.0
O283 O 0.7757 0.7475 0.84778 0.0
O284 O 0.77886 0.72206 0.91378 0.0
O285 O 0.76365 0.70021 0.84726 0.0
O286 O 0.76837 0.69404 0.87754 0.0
C287 C 0.76782 0.75436 0.86244 0.0
C288 C 0.81977 0.71758 0.86483 0.0
O289 O 0.81082 0.72258 0.87981 0.0
O290 O 0.81052 0.71266 0.85021 0.0
C291 C 0.78365 0.73815 0.92066 0.0
O292 O 0.79197 0.75058 0.90944 0.0
C293 C 0.7609 0.68963 0.86152 0.0
Zn294 Zn 0.71744 0.78032 0.1206 0.0
Zn295 Zn 0.71735 0.783 0.08298 0.0
O296 O 0.7411 0.76763 0.09072 0.0
O297 O 0.74128 0.76455 0.12176 0.0
O298 O 0.72069 0.78132 0.05439 0.0
O299 O 0.69178 0.76866 0.12032 0.0
O300 O 0.69089 0.7705 0.08895 0.0
C301 C 0.74904 0.76156 0.1058 0.0
C302 C 0.72064 0.81902 0.10675 0.0
O303 O 0.7202 0.81167 0.09013 0.0
O304 O 0.71952 0.80863 0.1214 0.0
C305 C 0.73764 0.78414 0.04875 0.0
O306 O 0.75028 0.7905 0.06098 0.0
C307 C 0.68314 0.76601 0.10477 0.0
Zn308 Zn 0.18124 0.71959 0.115 0.0
Zn309 Zn 0.18148 0.71992 0.08054 0.0
O310 O 0.19464 0.74526 0.08813 0.0
O311 O 0.18636 0.7475 0.11808 0.0
O312 O 0.18553 0.72166 0.05233 0.0
O313 O 0.20258 0.70128 0.11751 0.0
O314 O 0.19528 0.69436 0.08792 0.0
C315 C 0.19374 0.75493 0.10346 0.0
C316 C 0.14435 0.715 0.10123 0.0
O317 O 0.15242 0.72125 0.08623 0.0
O318 O 0.15443 0.71001 0.11527 0.0
C319 C 0.17731 0.73424 0.04227 0.0
O320 O 0.16353 0.74441 0.04978 0.0
C321 C 0.20426 0.69047 0.10322 0.0
Zn322 Zn 0.76723 0.24864 0.13398 0.0
Zn323 Zn 0.78111 0.25283 0.07108 0.0
O324 O 0.76435 0.22945 0.07594 0.0
O325 O 0.76506 0.23924 0.10512 0.0
O326 O 0.78504 0.2508 0.04284 0.0
O327 O 0.76739 0.26161 0.10621 0.0
O328 O 0.76675 0.27746 0.07965 0.0
C329 C 0.75996 0.22643 0.09314 0.0
C330 C 0.8023 0.24841 0.10449 0.0
O331 O 0.80617 0.24926 0.08681 0.0
O332 O 0.78478 0.24965 0.10913 0.0
C333 C 0.79021 0.23401 0.03832 0.0
O334 O 0.79609 0.22256 0.05191 0.0
C335 C 0.76272 0.27686 0.09732 0.0
Zn336 Zn 0.61835 0.7469 0.6857 0.0
Zn337 Zn 0.58268 0.74827 0.68656 0.0
O338 O 0.58978 0.72224 0.69857 0.0
O339 O 0.62063 0.72006 0.69481 0.0
O340 O 0.55476 0.74725 0.69233 0.0
O341 O 0.62215 0.76808 0.70381 0.0
O342 O 0.59161 0.77353 0.70024 0.0
C343 C 0.60513 0.71274 0.70016 0.0
C344 C 0.60206 0.75034 0.64847 0.0
O345 O 0.58646 0.74735 0.65719 0.0
O346 O 0.61732 0.7523 0.6578 0.0
C347 C 0.54196 0.74019 0.68169 0.0
O348 O 0.54616 0.7353 0.66413 0.0
C349 C 0.6078 0.77843 0.70691 0.0
Zn350 Zn 0.22183 0.61913 0.68528 0.0
Zn351 Zn 0.21777 0.58383 0.68429 0.0
O352 O 0.2443 0.58931 0.69648 0.0
O353 O 0.24666 0.62038 0.69845 0.0
O354 O 0.21788 0.55553 0.68916 0.0
O355 O 0.19817 0.62467 0.69871 0.0
O356 O 0.1925 0.5939 0.69753 0.0
C357 C 0.25375 0.60408 0.70118 0.0
C358 C 0.21951 0.60475 0.64708 0.0
O359 O 0.21832 0.58837 0.65489 0.0
O360 O 0.22102 0.6196 0.65717 0.0
C361 C 0.23016 0.54515 0.68085 0.0
O362 O 0.2402 0.5524 0.66687 0.0
C363 C 0.18719 0.61081 0.70187 0.0
Zn364 Zn 0.34883 0.21745 0.69183 0.0
Zn365 Zn 0.38525 0.21959 0.68579 0.0
O366 O 0.3781 0.24228 0.70335 0.0
O367 O 0.34744 0.2407 0.70847 0.0
O368 O 0.41351 0.22408 0.68517 0.0
O369 O 0.35095 0.19138 0.70234 0.0
O370 O 0.38157 0.19148 0.69564 0.0
C371 C 0.36312 0.2492 0.71079 0.0
C372 C 0.35867 0.22325 0.65231 0.0
O373 O 0.37574 0.22416 0.65828 0.0
O374 O 0.34514 0.22017 0.66374 0.0
C375 C 0.41816 0.24132 0.68204 0.0
O376 O 0.40493 0.25346 0.67682 0.0
C377 C 0.36676 0.18289 0.70172 0.0
Zn378 Zn 0.75183 0.35125 0.68909 0.0
Zn379 Zn 0.7492 0.38593 0.68576 0.0
O380 O 0.72513 0.37816 0.70092 0.0
O381 O 0.72465 0.34729 0.69632 0.0
O382 O 0.74486 0.41428 0.68521 0.0
O383 O 0.7714 0.35274 0.70926 0.0
O384 O 0.77558 0.38216 0.69942 0.0
C385 C 0.71654 0.36226 0.70222 0.0
C386 C 0.7537 0.36108 0.65075 0.0
O387 O 0.74744 0.37667 0.65769 0.0
O388 O 0.75962 0.3482 0.66185 0.0
C389 C 0.72806 0.41938 0.68087 0.0
O390 O 0.71608 0.40644 0.67461 0.0
C391 C 0.78096 0.36796 0.70941 0.0
Zn392 Zn 0.61861 0.21754 0.2864 0.0
Zn393 Zn 0.58226 0.21932 0.28453 0.0
O394 O 0.59345 0.24329 0.27163 0.0
O395 O 0.62436 0.23973 0.26941 0.0
O396 O 0.55499 0.22366 0.27678 0.0
O397 O 0.62011 0.19109 0.27745 0.0
O398 O 0.58905 0.19191 0.27369 0.0
C399 C 0.60959 0.24947 0.26626 0.0
C400 C 0.60008 0.22344 0.32293 0.0
O401 O 0.58437 0.22253 0.31392 0.0
O402 O 0.61568 0.22187 0.31416 0.0
C403 C 0.54119 0.22891 0.2872 0.0
O404 O 0.54343 0.22987 0.30574 0.0
C405 C 0.60486 0.18296 0.27261 0.0
Zn406 Zn 0.74338 0.61685 0.27779 0.0
Zn407 Zn 0.75052 0.58249 0.28095 0.0
O408 O 0.72429 0.58575 0.26693 0.0
O409 O 0.72263 0.61586 0.25872 0.0
O410 O 0.75162 0.5539 0.28003 0.0
O411 O 0.76938 0.62315 0.26964 0.0
O412 O 0.77551 0.59251 0.26782 0.0
C413 C 0.71586 0.59923 0.2582 0.0
C414 C 0.74262 0.60459 0.31647 0.0
O415 O 0.74971 0.58935 0.30966 0.0
O416 O 0.73736 0.61787 0.30552 0.0
C417 C 0.73697 0.54613 0.28723 0.0
O418 O 0.72485 0.55692 0.29655 0.0
C419 C 0.78075 0.60982 0.26555 0.0
Zn420 Zn 0.34676 0.7479 0.28495 0.0
Zn421 Zn 0.38184 0.75038 0.28412 0.0
O422 O 0.3753 0.72537 0.26956 0.0
O423 O 0.3447 0.72177 0.27396 0.0
O424 O 0.4104 0.74894 0.28136 0.0
O425 O 0.34237 0.7702 0.26888 0.0
O426 O 0.37284 0.77641 0.27139 0.0
C427 C 0.36027 0.71546 0.26759 0.0
C428 C 0.36115 0.74946 0.32218 0.0
O429 O 0.37688 0.74751 0.31338 0.0
O430 O 0.34594 0.75155 0.31288 0.0
C431 C 0.41707 0.7329 0.28658 0.0
O432 O 0.40564 0.72076 0.29504 0.0
C433 C 0.35617 0.78128 0.26586 0.0
Zn434 Zn 0.21618 0.3329 0.2859 0.0
Zn435 Zn 0.21711 0.38741 0.28275 0.0
O436 O 0.23942 0.36984 0.27357 0.0
O437 O 0.24246 0.33802 0.27501 0.0
O438 O 0.22594 0.41386 0.27661 0.0
O439 O 0.1985 0.35301 0.27337 0.0
O440 O 0.19176 0.38274 0.26792 0.0
C441 C 0.24892 0.35447 0.27055 0.0
C442 C 0.21106 0.36503 0.31192 0.0
O443 O 0.21485 0.38267 0.3118 0.0
O444 O 0.20654 0.35783 0.29612 0.0
C445 C 0.2373 0.42372 0.28666 0.0
O446 O 0.24283 0.4173 0.30332 0.0
C447 C 0.18764 0.36526 0.26567 0.0
Zn448 Zn 0.68684 0.61545 0.75437 0.0
Zn449 Zn 0.68581 0.58024 0.75036 0.0
O450 O 0.70157 0.58941 0.72722 0.0
O451 O 0.69616 0.62016 0.7278 0.0
O452 O 0.68654 0.55199 0.74521 0.0
O453 O 0.70499 0.6145 0.77582 0.0
O454 O 0.69835 0.58387 0.77738 0.0
C455 C 0.70287 0.6057 0.71938 0.0
C456 C 0.64916 0.60317 0.75329 0.0
O457 O 0.6574 0.58806 0.74745 0.0
O458 O 0.65902 0.61675 0.75983 0.0
C459 C 0.68265 0.5472 0.72817 0.0
O460 O 0.67644 0.5603 0.71634 0.0
C461 C 0.70627 0.59872 0.78433 0.0
Zn462 Zn 0.34801 0.68326 0.74359 0.0
Zn463 Zn 0.3835 0.68434 0.74635 0.0
O464 O 0.37641 0.69909 0.72159 0.0
O465 O 0.3453 0.70017 0.7211 0.0
O466 O 0.41144 0.69024 0.74609 0.0
O467 O 0.34292 0.69236 0.76943 0.0
O468 O 0.37386 0.69482 0.77301 0.0
C469 C 0.36104 0.70437 0.71357 0.0
C470 C 0.36483 0.64627 0.73987 0.0
O471 O 0.38057 0.65489 0.74251 0.0
O472 O 0.34942 0.65547 0.73965 0.0
C473 C 0.42208 0.68235 0.73376 0.0
O474 O 0.41524 0.66842 0.7233 0.0
C475 C 0.35704 0.69642 0.77975 0.0
Zn476 Zn 0.27663 0.34904 0.74633 0.0
Zn477 Zn 0.27966 0.38519 0.74781 0.0
O478 O 0.26774 0.37874 0.72151 0.0
O479 O 0.26617 0.34754 0.72 0.0
O480 O 0.27559 0.4136 0.74655 0.0
O481 O 0.25923 0.34721 0.76823 0.0
O482 O 0.26543 0.37754 0.77316 0.0
C483 C 0.26362 0.36362 0.71233 0.0
C484 C 0.31555 0.36223 0.74929 0.0
O485 O 0.30851 0.37889 0.74734 0.0
O486 O 0.30479 0.34782 0.75033 0.0
C487 C 0.28556 0.42531 0.73705 0.0
O488 O 0.30173 0.41966 0.72961 0.0
C489 C 0.25757 0.36199 0.77839 0.0
Zn490 Zn 0.61526 0.27044 0.7473 0.0
Zn491 Zn 0.58023 0.27757 0.74766 0.0
O492 O 0.58568 0.26384 0.72189 0.0
O493 O 0.61665 0.26087 0.72063 0.0
O494 O 0.5518 0.27936 0.74508 0.0
O495 O 0.61381 0.25199 0.76844 0.0
O496 O 0.58501 0.263 0.77353 0.0
C497 C 0.60058 0.25893 0.71285 0.0
C498 C 0.60742 0.31042 0.75087 0.0
O499 O 0.59042 0.30525 0.74736 0.0
O500 O 0.62035 0.29804 0.75291 0.0
C501 C 0.54603 0.28555 0.72907 0.0
O502 O 0.55849 0.29287 0.71724 0.0
C503 C 0.5991 0.25271 0.77869 0.0
Zn504 Zn 0.6711 0.34094 0.20642 0.0
Zn505 Zn 0.68152 0.39065 0.2121 0.0
O506 O 0.69389 0.3757 0.23303 0.0
O507 O 0.68733 0.34469 0.23123 0.0
O508 O 0.68864 0.41777 0.21848 0.0
O509 O 0.67192 0.36048 0.18381 0.0
O510 O 0.69444 0.38149 0.1873 0.0
C511 C 0.69518 0.35886 0.23957 0.0
C512 C 0.64566 0.37221 0.20923 0.0
O513 O 0.65293 0.38691 0.21674 0.0
O514 O 0.65552 0.36406 0.19654 0.0
C515 C 0.68802 0.42157 0.2362 0.0
O516 O 0.68134 0.40873 0.24802 0.0
C517 C 0.6876 0.36747 0.17811 0.0
Zn518 Zn 0.63144 0.68635 0.21178 0.0
Zn519 Zn 0.57516 0.68286 0.21356 0.0
O520 O 0.59233 0.6966 0.23501 0.0
O521 O 0.62423 0.70016 0.23631 0.0
O522 O 0.54797 0.68707 0.2215 0.0
O523 O 0.60617 0.68972 0.19796 0.0
O524 O 0.57873 0.6947 0.18617 0.0
C525 C 0.60756 0.70269 0.24335 0.0
C526 C 0.60041 0.65513 0.21415 0.0
O527 O 0.58247 0.65396 0.21487 0.0
O528 O 0.60697 0.67112 0.20902 0.0
C529 C 0.54375 0.68518 0.23898 0.0
O530 O 0.55671 0.67874 0.25079 0.0
C531 C 0.59652 0.69646 0.18433 0.0
Zn532 Zn 0.27946 0.61841 0.21945 0.0
Zn533 Zn 0.2814 0.5834 0.21877 0.0
O534 O 0.26813 0.58961 0.24436 0.0
O535 O 0.27241 0.62042 0.24691 0.0
O536 O 0.27904 0.55501 0.22052 0.0
O537 O 0.25921 0.62006 0.20002 0.0
O538 O 0.26695 0.59042 0.19345 0.0
C539 C 0.26685 0.60488 0.25408 0.0
C540 C 0.31741 0.60638 0.21512 0.0
O541 O 0.3101 0.59044 0.21982 0.0
O542 O 0.30671 0.62045 0.21164 0.0
C543 C 0.28995 0.54476 0.23065 0.0
O544 O 0.30549 0.5522 0.23786 0.0
C545 C 0.25784 0.60563 0.18935 0.0
Zn546 Zn 0.35177 0.28428 0.21678 0.0
Zn547 Zn 0.38538 0.28438 0.21735 0.0
O548 O 0.37838 0.26885 0.24134 0.0
O549 O 0.34959 0.28001 0.24501 0.0
O550 O 0.41379 0.28156 0.21884 0.0
O551 O 0.34959 0.2624 0.19885 0.0
O552 O 0.37794 0.27248 0.1908 0.0
C553 C 0.3637 0.27109 0.25169 0.0
C554 C 0.3633 0.32104 0.21498 0.0
O555 O 0.37786 0.31277 0.22197 0.0
O556 O 0.35096 0.31101 0.20658 0.0
C557 C 0.42317 0.28902 0.2324 0.0
O558 O 0.41473 0.30132 0.24371 0.0
C559 C 0.36323 0.26247 0.18719 0.0
Zn560 Zn 0.74725 0.70059 0.61324 0.0
Zn561 Zn 0.74604 0.69142 0.57996 0.0
O562 O 0.72036 0.70541 0.58556 0.0
O563 O 0.72019 0.70762 0.61663 0.0
O564 O 0.74343 0.68922 0.55141 0.0
O565 O 0.76639 0.721 0.61037 0.0
O566 O 0.77229 0.70549 0.58391 0.0
C567 C 0.7117 0.70961 0.60093 0.0
C568 C 0.75187 0.66056 0.60859 0.0
O569 O 0.746 0.6643 0.59181 0.0
O570 O 0.75564 0.67409 0.61994 0.0
C571 C 0.72734 0.68412 0.54489 0.0
O572 O 0.71455 0.67749 0.55679 0.0
C573 C 0.77716 0.71786 0.59635 0.0
Zn574 Zn 0.74715 0.26652 0.35127 0.0
Zn575 Zn 0.74597 0.2798 0.3843 0.0
O576 O 0.7211 0.26426 0.37998 0.0
O577 O 0.7213 0.25517 0.35017 0.0
O578 O 0.74301 0.28387 0.41262 0.0
O579 O 0.76977 0.25032 0.35504 0.0
O580 O 0.77318 0.26771 0.3809 0.0
C581 C 0.71284 0.25622 0.36599 0.0
C582 C 0.74785 0.30787 0.35288 0.0
O583 O 0.74407 0.30567 0.37049 0.0
O584 O 0.75093 0.29349 0.34239 0.0
C585 C 0.72629 0.28813 0.41806 0.0
O586 O 0.71377 0.29344 0.40522 0.0
C587 C 0.77976 0.2556 0.369 0.0
Zn588 Zn 0.68597 0.74809 0.3479 0.0
Zn589 Zn 0.68484 0.74933 0.38189 0.0
O590 O 0.70194 0.72608 0.37561 0.0
O591 O 0.69498 0.72129 0.34564 0.0
O592 O 0.68554 0.74659 0.41067 0.0
O593 O 0.7043 0.76876 0.34529 0.0
O594 O 0.69686 0.77621 0.37467 0.0
C595 C 0.70291 0.71572 0.36078 0.0
C596 C 0.64858 0.74874 0.35778 0.0
O597 O 0.65646 0.74436 0.37357 0.0
O598 O 0.65876 0.75419 0.34406 0.0
C599 C 0.6827 0.72949 0.41607 0.0
O600 O 0.67685 0.71689 0.40351 0.0
C601 C 0.70506 0.78044 0.35895 0.0
Zn602 Zn 0.21813 0.69068 0.34735 0.0
Zn603 Zn 0.21543 0.68834 0.3829 0.0
O604 O 0.24118 0.70183 0.37732 0.0
O605 O 0.24468 0.70045 0.34637 0.0
O606 O 0.21696 0.68955 0.41154 0.0
O607 O 0.19672 0.70854 0.34506 0.0
O608 O 0.19016 0.70267 0.37506 0.0
C609 C 0.2512 0.70482 0.36256 0.0
C610 C 0.21402 0.65218 0.35947 0.0
O611 O 0.21625 0.65948 0.37595 0.0
O612 O 0.21306 0.66282 0.34499 0.0
C613 C 0.23296 0.68397 0.41789 0.0
O614 O 0.24482 0.6755 0.40616 0.0
C615 C 0.18577 0.71043 0.35918 0.0
Zn616 Zn 0.27253 0.21074 0.35379 0.0
Zn617 Zn 0.27808 0.2145 0.38558 0.0
O618 O 0.26297 0.23861 0.37714 0.0
O619 O 0.27187 0.23839 0.34736 0.0
O620 O 0.27952 0.2197 0.41403 0.0
O621 O 0.2484 0.1965 0.35689 0.0
O622 O 0.26425 0.18787 0.38217 0.0
C623 C 0.26477 0.24725 0.3613 0.0
C624 C 0.30975 0.20594 0.35859 0.0
O625 O 0.30512 0.2158 0.37318 0.0
O626 O 0.29689 0.19643 0.35037 0.0
C627 C 0.28239 0.23699 0.41884 0.0
O628 O 0.28756 0.24922 0.40568 0.0
C629 C 0.25105 0.1846 0.37008 0.0
Zn630 Zn 0.21506 0.29025 0.61336 0.0
Zn631 Zn 0.21443 0.2859 0.5798 0.0
O632 O 0.23825 0.2709 0.588 0.0
O633 O 0.24238 0.28287 0.61656 0.0
O634 O 0.21704 0.28199 0.55123 0.0
O635 O 0.19561 0.27165 0.61933 0.0
O636 O 0.18814 0.27366 0.5891 0.0
C637 C 0.24848 0.27298 0.60279 0.0
C638 C 0.21447 0.32536 0.59878 0.0
O639 O 0.21969 0.31503 0.58475 0.0
O640 O 0.20713 0.3174 0.61307 0.0
C641 C 0.2336 0.28615 0.5452 0.0
O642 O 0.24551 0.29455 0.55694 0.0
C643 C 0.18416 0.26802 0.606 0.0
Zn644 Zn 0.68051 0.21907 0.6144 0.0
Zn645 Zn 0.68252 0.21916 0.57943 0.0
O646 O 0.69743 0.24314 0.58764 0.0
O647 O 0.68914 0.24615 0.61756 0.0
O648 O 0.68543 0.22242 0.55094 0.0
O649 O 0.69908 0.19839 0.61742 0.0
O650 O 0.69544 0.19283 0.58684 0.0
C651 C 0.69729 0.2528 0.60298 0.0
C652 C 0.64414 0.2183 0.59986 0.0
O653 O 0.65354 0.22293 0.58505 0.0
O654 O 0.65292 0.21277 0.61453 0.0
C655 C 0.68108 0.23911 0.54528 0.0
O656 O 0.67305 0.2509 0.55741 0.0
C657 C 0.70223 0.18802 0.60306 0.0
Zn658 Zn 0.27562 0.74962 0.61474 0.0
Zn659 Zn 0.27813 0.74947 0.57958 0.0
O660 O 0.26342 0.72472 0.5864 0.0
O661 O 0.26721 0.72253 0.61725 0.0
O662 O 0.27713 0.74673 0.55103 0.0
O663 O 0.25649 0.77026 0.61523 0.0
O664 O 0.26498 0.77581 0.58567 0.0
C665 C 0.26159 0.7153 0.60175 0.0
C666 C 0.31391 0.752 0.60328 0.0
O667 O 0.3066 0.74734 0.58733 0.0
O668 O 0.30324 0.75608 0.61718 0.0
C669 C 0.28135 0.73015 0.54499 0.0
O670 O 0.28865 0.71779 0.55699 0.0
C671 C 0.25593 0.78076 0.60066 0.0
C672 C 0.94412 0.21054 0.22536 0.0
C673 C 0.94258 0.19079 0.22805 0.0
C674 C 0.95993 0.21846 0.2162 0.0
C675 C 0.97482 0.20639 0.21005 0.0
C676 C 0.97355 0.18646 0.21307 0.0
C677 C 0.95727 0.17885 0.2218 0.0
C678 C 0.96059 0.23973 0.2129 0.0
C679 C -0.01057 0.17321 0.20723 0.0
C680 C 0.00989 0.22387 0.17273 0.0
C681 C 0.0246 0.23075 0.18423 0.0
C682 C -0.00667 0.21625 0.18094 0.0
C683 C -0.00801 0.21475 0.20103 0.0
C684 C 0.00701 0.22145 0.21262 0.0
C685 C 0.02298 0.22967 0.20408 0.0
C686 C 0.97732 0.20981 0.16817 0.0
C687 C 0.00643 0.21954 0.23404 0.0
H688 H 0.93266 0.21983 0.22992 0.0
H689 H 0.95611 0.16359 0.22387 0.0
H690 H 0.97292 0.24601 0.22049 0.0
H691 H 0.96251 0.24271 0.19751 0.0
H692 H 0.94747 0.24703 0.21786 0.0
H693 H -0.01352 0.15815 0.2111 0.0
H694 H -0.00832 0.17403 0.19163 0.0
H695 H 0.0029 0.17767 0.21416 0.0
H696 H 0.0113 0.22459 0.15738 0.0
H697 H 0.03462 0.23458 0.21295 0.0
H698 H 0.96393 0.2171 0.1723 0.0
H699 H 0.97496 0.19428 0.16988 0.0
H700 H 0.98021 0.2128 0.15292 0.0
H701 H -0.00587 0.22752 0.23987 0.0
H702 H 0.01958 0.22494 0.24094 0.0
H703 H 0.00452 0.20435 0.238 0.0
C704 C 0.76167 0.9512 0.23315 0.0
C705 C 0.77885 0.94375 0.22624 0.0
C706 C 0.7537 0.96774 0.22528 0.0
C707 C 0.76338 0.97737 0.2105 0.0
C708 C 0.78113 0.97037 0.20401 0.0
C709 C 0.78852 0.95346 0.21177 0.0
C710 C 0.73461 0.97456 0.23237 0.0
C711 C 0.79215 0.98056 0.18867 0.0
C712 C 0.73532 0.00995 0.17744 0.0
C713 C 0.73902 0.02778 0.18552 0.0
C714 C 0.74309 -0.00668 0.1855 0.0
C715 C 0.75491 -0.00524 0.20183 0.0
C716 C 0.75858 0.01286 0.20997 0.0
C717 C 0.75054 0.02914 0.20172 0.0
C718 C 0.73875 0.97424 0.17654 0.0
C719 C 0.77118 0.01507 0.22725 0.0
H720 H 0.75397 0.9436 0.24413 0.0
H721 H 0.80178 0.94772 0.20639 0.0
H722 H 0.73567 -0.01052 0.23751 0.0
H723 H 0.72419 0.97442 0.2205 0.0
H724 H 0.72902 0.96557 0.2441 0.0
H725 H 0.80622 0.97389 0.186 0.0
H726 H 0.78392 0.98047 0.1752 0.0
H727 H 0.79438 -0.00431 0.19273 0.0
H728 H 0.72649 0.00905 0.16482 0.0
H729 H 0.75345 0.04306 0.2078 0.0
H730 H 0.73224 0.96463 0.18723 0.0
H731 H 0.75211 0.96739 0.17167 0.0
H732 H 0.72896 0.97551 0.16419 0.0
H733 H 0.76522 0.00691 0.23937 0.0
H734 H 0.77277 0.0302 0.23167 0.0
H735 H 0.78548 0.00913 0.22423 0.0
C736 C 0.01286 0.77927 0.23053 0.0
C737 C 0.02834 0.78184 0.21827 0.0
C738 C -0.00484 0.77323 0.22351 0.0
C739 C -0.00697 0.76933 0.20382 0.0
C740 C 0.00852 0.77225 0.19133 0.0
C741 C 0.02593 0.77865 0.19868 0.0
C742 C 0.97885 0.77061 0.23721 0.0
C743 C 0.00692 0.768 0.1703 0.0
C744 C 0.95348 0.73519 0.18968 0.0
C745 C 0.93937 0.7478 0.18338 0.0
C746 C 0.97116 0.74198 0.19605 0.0
C747 C 0.9747 0.76187 0.19634 0.0
C748 C 0.96063 0.77463 0.1897 0.0
C749 C 0.94319 0.76745 0.18319 0.0
C750 C -0.01406 0.72791 0.20278 0.0
C751 C 0.9638 0.79593 0.1899 0.0
H752 H 0.01466 0.78171 0.24567 0.0
H753 H 0.03789 0.78037 0.18912 0.0
H754 H 0.9663 0.77884 0.23232 0.0
H755 H 0.97465 0.75538 0.23763 0.0
H756 H -0.01748 0.77525 0.25189 0.0
H757 H 0.02016 0.7715 0.16244 0.0
H758 H 0.00375 0.75265 0.16817 0.0
H759 H -0.00499 0.77619 0.16399 0.0
H760 H 0.95064 0.72 0.18985 0.0
H761 H 0.93235 0.77734 0.17845 0.0
H762 H -0.01093 0.73036 0.21807 0.0
H763 H -0.0006 0.73002 0.19484 0.0
H764 H 0.98128 0.71289 0.20091 0.0
H765 H 0.96634 0.80084 0.20472 0.0
H766 H 0.95151 0.80392 0.184 0.0
H767 H 0.97664 0.79956 0.18151 0.0
C768 C 0.20019 0.94296 0.19211 0.0
C769 C 0.21952 0.94108 0.18754 0.0
C770 C 0.19278 0.96026 0.19887 0.0
C771 C 0.2049 0.97624 0.20075 0.0
C772 C 0.22431 0.97463 0.19561 0.0
C773 C 0.23145 0.95699 0.18926 0.0
C774 C 0.17209 0.96129 0.20447 0.0
C775 C 0.23759 -0.00853 0.19707 0.0
C776 C 0.18278 0.02565 0.20288 0.0
C777 C 0.18415 0.03003 0.22235 0.0
C778 C 0.18934 0.00817 0.19569 0.0
C779 C 0.19728 -0.00541 0.20828 0.0
C780 C 0.1981 -0.00137 0.22803 0.0
C781 C 0.19161 0.01634 0.23483 0.0
C782 C 0.18828 0.00446 0.17453 0.0
C783 C 0.20623 -0.01559 0.24195 0.0
H784 H 0.1909 0.93068 0.19105 0.0
H785 H 0.24638 0.95563 0.18574 0.0
H786 H 0.17086 0.96515 0.21975 0.0
H787 H 0.16479 0.9726 0.19621 0.0
H788 H 0.16455 0.94758 0.20209 0.0
H789 H 0.25208 -0.01191 0.19177 0.0
H790 H 0.23187 0.00364 0.18877 0.0
H791 H 0.23867 -0.00382 0.21211 0.0
H792 H 0.17714 0.03615 0.19308 0.0
H793 H 0.19274 0.01959 0.24988 0.0
H794 H 0.18025 -0.00886 0.1717 0.0
H795 H 0.20281 0.00242 0.16874 0.0
H796 H 0.18135 0.01633 0.1667 0.0
H797 H 0.19878 0.97054 0.24053 0.0
H798 H 0.20503 -0.01065 0.25694 0.0
H799 H 0.22144 0.98187 0.2387 0.0
C800 C 0.94356 0.75976 0.73217 0.0
C801 C 0.93802 0.77814 0.73779 0.0
C802 C 0.9601 0.75132 0.73948 0.0
C803 C 0.97164 0.76169 0.75235 0.0
C804 C 0.96663 0.78062 0.75732 0.0
C805 C 0.94972 0.78853 0.75018 0.0
C806 C 0.96478 0.731 0.73407 0.0
C807 C 0.97887 0.79235 0.77054 0.0
C808 C 0.00351 0.73493 0.78702 0.0
C809 C 0.02105 0.7355 0.77762 0.0
C810 C -0.01278 0.7431 0.77878 0.0
C811 C -0.01133 0.75254 0.76101 0.0
C812 C 0.00638 0.75324 0.75152 0.0
C813 C 0.02228 0.7445 0.75982 0.0
C814 C 0.96847 0.74169 0.78912 0.0
C815 C 0.00863 0.76356 0.7328 0.0
H816 H 0.93447 0.75156 0.72276 0.0
H817 H 0.94551 0.80275 0.75453 0.0
H818 H 0.97934 0.73014 0.7281 0.0
H819 H 0.96446 0.72188 0.74696 0.0
H820 H 0.95465 0.72509 0.72346 0.0
H821 H 0.97384 0.80732 0.77172 0.0
H822 H 0.97883 0.78591 0.78495 0.0
H823 H -0.0062 0.79241 0.76547 0.0
H824 H 0.0025 0.72799 0.80076 0.0
H825 H 0.03587 0.74525 0.7526 0.0
H826 H 0.95766 0.73503 0.77972 0.0
H827 H 0.96326 0.75616 0.79281 0.0
H828 H 0.96956 0.73319 0.8024 0.0
H829 H -0.0009 0.75723 0.72193 0.0
H830 H 0.02346 0.76302 0.7274 0.0
H831 H 0.00443 0.77872 0.7345 0.0
C832 C 0.2349 0.01524 0.77519 0.0
C833 C 0.22256 0.03078 0.77707 0.0
C834 C 0.22824 -0.00239 0.76828 0.0
C835 C 0.20902 -0.00418 0.76245 0.0
C836 C 0.19666 0.01166 0.76396 0.0
C837 C 0.20349 0.02881 0.77158 0.0
C838 C 0.24169 0.98087 0.76739 0.0
C839 C 0.17625 0.01055 0.7574 0.0
C840 C 0.19621 0.9552 0.72882 0.0
C841 C 0.188 0.94198 0.74133 0.0
C842 C 0.20297 0.97286 0.73545 0.0
C843 C 0.20165 0.97732 0.75509 0.0
C844 C 0.19305 0.9642 0.76771 0.0
C845 C 0.18623 0.94678 0.76067 0.0
C846 C 0.21173 -0.01336 0.7215 0.0
C847 C 0.19146 0.96838 0.78875 0.0
H848 H 0.24962 0.01677 0.77946 0.0
H849 H 0.19396 0.04088 0.7728 0.0
H850 H 0.23593 0.96887 0.77591 0.0
H851 H 0.24302 0.97578 0.75249 0.0
H852 H 0.25607 -0.01551 0.77283 0.0
H853 H 0.16881 0.02447 0.75856 0.0
H854 H 0.17563 0.00573 0.74235 0.0
H855 H 0.16842 -9e-05 0.76602 0.0
H856 H 0.19766 0.95161 0.71387 0.0
H857 H 0.18001 0.93665 0.77049 0.0
H858 H 0.22682 -0.01082 0.72528 0.0
H859 H 0.20432 0.00059 0.72226 0.0
H860 H 0.21107 0.98131 0.70661 0.0
H861 H 0.20581 0.97079 0.79485 0.0
H862 H 0.18453 0.9566 0.79669 0.0
H863 H 0.18315 0.98162 0.79106 0.0
C864 C 0.01038 0.17655 0.7472 0.0
C865 C 0.02452 0.18773 0.73877 0.0
C866 C -0.006 0.18499 0.75492 0.0
C867 C -0.00788 0.20511 0.75479 0.0
C868 C 0.00647 0.21645 0.74641 0.0
C869 C 0.02236 0.2076 0.73822 0.0
C870 C 0.97871 0.1724 0.7632 0.0
C871 C 0.00524 0.23795 0.74646 0.0
C872 C 0.943 0.22683 0.75949 0.0
C873 C 0.94194 0.23049 0.7791 0.0
C874 C 0.95922 0.21851 0.75143 0.0
C875 C 0.975 0.21429 0.76317 0.0
C876 C 0.97429 0.2186 0.78288 0.0
C877 C 0.9576 0.22635 0.79069 0.0
C878 C 0.95921 0.21367 0.73046 0.0
C879 C -0.00891 0.21485 0.79572 0.0
H880 H 0.0121 0.1612 0.74767 0.0
H881 H 0.03346 0.2163 0.73202 0.0
H882 H 0.97699 0.17548 0.7786 0.0
H883 H 0.96488 0.17546 0.75623 0.0
H884 H 0.98197 0.157 0.76145 0.0
H885 H 0.01784 0.24471 0.73975 0.0
H886 H -0.00767 0.24267 0.73873 0.0
H887 H 0.00401 0.24324 0.76131 0.0
H888 H 0.9308 0.22973 0.75052 0.0
H889 H 0.95678 0.22917 0.80585 0.0
H890 H 0.96133 0.19811 0.72854 0.0
H891 H 0.97116 0.22095 0.7232 0.0
H892 H 0.94574 0.21784 0.72333 0.0
H893 H -0.00606 0.19932 0.79641 0.0
H894 H -0.01128 0.22022 0.81042 0.0
H895 H 0.00401 0.22175 0.78985 0.0
C896 C 0.7803 0.02512 0.7625 0.0
C897 C 0.77926 0.02839 0.74281 0.0
C898 C 0.77392 0.00794 0.77044 0.0
C899 C 0.7665 -0.00642 0.75839 0.0
C900 C 0.7659 -0.00344 0.73846 0.0
C901 C 0.77221 0.01397 0.73091 0.0
C902 C 0.77468 0.00535 0.79177 0.0
C903 C 0.75829 0.98146 0.72513 0.0
C904 C 0.76458 0.94266 0.77643 0.0
C905 C 0.74519 0.9405 0.78055 0.0
C906 C 0.77172 0.95989 0.76931 0.0
C907 C 0.75925 0.97548 0.76664 0.0
C908 C 0.73978 0.97361 0.77143 0.0
C909 C 0.73293 0.95605 0.77813 0.0
C910 C 0.79249 0.9612 0.76408 0.0
C911 C 0.72613 -0.00994 0.76913 0.0
H912 H 0.78562 0.03621 0.77185 0.0
H913 H 0.77136 0.01638 0.71569 0.0
H914 H 0.76012 0.00314 0.7974 0.0
H915 H 0.78308 -0.00754 0.79536 0.0
H916 H 0.78108 0.01782 0.79914 0.0
H917 H 0.75945 -0.01429 0.70995 0.0
H918 H 0.76614 0.9679 0.7272 0.0
H919 H 0.74313 0.97862 0.7284 0.0
H920 H 0.77411 0.93062 0.77804 0.0
H921 H 0.71794 0.95442 0.78131 0.0
H922 H 0.79931 0.97312 0.77191 0.0
H923 H 0.79392 0.96428 0.74866 0.0
H924 H 0.80035 0.94784 0.76728 0.0
H925 H 0.7315 0.00276 0.77688 0.0
H926 H 0.71168 -0.01339 0.77449 0.0
H927 H 0.72503 -0.00602 0.75387 0.0
C928 C 0.23445 0.18948 0.01133 0.0
C929 C 0.22199 0.18587 0.02644 0.0
C930 C 0.2276 0.19631 -0.00619 0.0
C931 C 0.20793 0.20009 -0.00838 0.0
C932 C 0.19533 0.19651 0.00688 0.0
C933 C 0.20248 0.18923 0.024 0.0
C934 C 0.24139 0.19956 0.97768 0.0
C935 C 0.17434 0.20071 0.00525 0.0
C936 C 0.19265 0.23461 0.95282 0.0
C937 C 0.18621 0.2221 0.93862 0.0
C938 C 0.19965 0.22765 0.97021 0.0
C939 C 0.20042 0.20772 0.97336 0.0
C940 C 0.19374 0.19505 0.95917 0.0
C941 C 0.18659 0.20239 0.94205 0.0
C942 C 0.20639 0.24161 -0.01486 0.0
C943 C 0.19449 0.17371 0.96192 0.0
H944 H 0.24953 0.18691 0.01319 0.0
H945 H 0.1928 0.18674 0.03574 0.0
H946 H 0.23688 0.19133 0.96496 0.0
H947 H 0.2414 0.21484 0.97365 0.0
H948 H 0.25612 0.19532 0.98148 0.0
H949 H 0.16651 0.19741 0.01858 0.0
H950 H 0.17216 0.21599 0.0018 0.0
H951 H 0.16805 0.19226 -0.00653 0.0
H952 H 0.19244 0.24984 0.95025 0.0
H953 H 0.18182 0.19258 0.93111 0.0
H954 H 0.22169 0.23926 -0.01187 0.0
H955 H 0.19859 0.23925 -0.00134 0.0
H956 H 0.20436 0.25666 0.98069 0.0
H957 H 0.20936 0.16915 0.96455 0.0
H958 H 0.18895 0.16579 0.94938 0.0
H959 H 0.18605 0.16961 0.9746 0.0
C960 C 0.22465 0.76043 0.94184 0.0
C961 C 0.22889 0.77996 0.94131 0.0
C962 C 0.21626 0.75219 0.95794 0.0
C963 C 0.2126 0.76363 0.97413 0.0
C964 C 0.21755 0.78322 0.97395 0.0
C965 C 0.2253 0.79125 0.95736 0.0
C966 C 0.21067 0.73141 0.95735 0.0
C967 C 0.21446 0.79574 -0.00882 0.0
C968 C 0.17489 0.749 0.00998 0.0
C969 C 0.18589 0.74014 0.02403 0.0
C970 C 0.18334 0.75623 -0.00662 0.0
C971 C 0.20333 0.75516 -0.00884 0.0
C972 C 0.21447 0.74614 0.00529 0.0
C973 C 0.20558 0.73847 0.02141 0.0
C974 C 0.17092 0.7652 0.97832 0.0
C975 C 0.23586 0.74515 0.00369 0.0
H976 H 0.22708 0.75174 0.92929 0.0
H977 H 0.22853 0.80636 0.95691 0.0
H978 H 0.21761 0.72354 0.96914 0.0
H979 H 0.19509 0.73006 0.95938 0.0
H980 H 0.21458 0.72446 0.94368 0.0
H981 H 0.22037 0.81028 -0.0108 0.0
H982 H 0.19903 0.79699 -0.00584 0.0
H983 H 0.22118 0.78921 0.00389 0.0
H984 H 0.15967 0.75031 0.01201 0.0
H985 H 0.21419 0.7319 0.0324 0.0
H986 H 0.17371 0.75847 0.96428 0.0
H987 H 0.17434 0.78056 0.97697 0.0
H988 H 0.15555 0.76377 0.98163 0.0
H989 H 0.23999 0.73771 -0.00961 0.0
H990 H 0.24246 0.73762 0.01593 0.0
H991 H 0.24179 0.75979 0.00296 0.0
C992 C 0.73416 0.19171 0.94991 0.0
C993 C 0.74579 0.18662 0.93454 0.0
C994 C 0.74204 0.1989 0.96684 0.0
C995 C 0.76198 0.20145 0.96821 0.0
C996 C 0.77379 0.19606 0.95283 0.0
C997 C 0.76557 0.18852 0.93628 0.0
C998 C 0.72904 0.20405 -0.01685 0.0
C999 C 0.79506 0.19886 0.95359 0.0
C1000 C 0.77937 0.23776 0.00451 0.0
C1001 C 0.78516 0.22594 0.0195 0.0
C1002 C 0.77221 0.22996 -0.01248 0.0
C1003 C 0.77048 0.20991 -0.01433 0.0
C1004 C 0.77668 0.19792 0.00059 0.0
C1005 C 0.78413 0.20607 0.01723 0.0
C1006 C 0.76609 0.24317 0.97171 0.0
C1007 C 0.77485 0.1765 -0.00073 0.0
H1008 H 0.71887 0.19026 0.94862 0.0
H1009 H 0.77466 0.18485 0.92437 0.0
H1010 H 0.73366 0.19665 -0.00368 0.0
H1011 H 0.72983 0.21959 -0.01403 0.0
H1012 H 0.714 0.20022 0.98021 0.0
H1013 H 0.80232 0.19304 0.9408 0.0
H1014 H 0.79832 0.2143 0.95467 0.0
H1015 H 0.80107 0.19189 0.96641 0.0
H1016 H 0.78012 0.2531 0.00618 0.0
H1017 H 0.78841 0.1968 0.02879 0.0
H1018 H 0.75058 0.24177 0.96929 0.0
H1019 H 0.7733 0.23919 0.95823 0.0
H1020 H 0.76933 0.25833 0.97496 0.0
H1021 H 0.75967 0.17255 -0.00244 0.0
H1022 H 0.78055 0.16917 0.01206 0.0
H1023 H 0.7825 0.17113 -0.01345 0.0
C1024 C 0.76804 0.73123 0.95205 0.0
C1025 C 0.77769 0.74394 0.94007 0.0
C1026 C 0.76113 0.73718 0.96987 0.0
C1027 C 0.7638 0.75632 0.97575 0.0
C1028 C 0.77369 0.76914 0.96379 0.0
C1029 C 0.78058 0.76278 0.94617 0.0
C1030 C 0.75091 0.72303 0.98238 0.0
C1031 C 0.77679 0.78968 0.96951 0.0
C1032 C 0.73182 0.77726 0.01419 0.0
C1033 C 0.74402 0.77724 0.02994 0.0
C1034 C 0.73805 0.77049 -0.00361 0.0
C1035 C 0.75667 0.76296 -0.00543 0.0
C1036 C 0.76882 0.76245 0.01061 0.0
C1037 C 0.76245 0.76988 0.028 0.0
C1038 C 0.72486 0.77167 0.97948 0.0
C1039 C 0.78857 0.75409 0.0094 0.0
H1040 H 0.76572 0.71666 0.94744 0.0
H1041 H 0.78795 0.77275 0.93701 0.0
H1042 H 0.75814 0.72201 -0.00361 0.0
H1043 H 0.73618 0.72796 -0.01491 0.0
H1044 H 0.75032 0.70858 0.9759 0.0
H1045 H 0.78441 0.79794 0.9584 0.0
H1046 H 0.76292 0.79667 0.97231 0.0
H1047 H 0.78514 0.79037 0.98289 0.0
H1048 H 0.71756 0.78292 0.0157 0.0
H1049 H 0.77183 0.76956 0.04024 0.0
H1050 H 0.72264 0.75728 0.97331 0.0
H1051 H 0.73138 0.78062 0.96823 0.0
H1052 H 0.71082 0.77782 -0.01672 0.0
H1053 H 0.78795 0.73942 0.00348 0.0
H1054 H 0.79571 0.75354 0.02349 0.0
H1055 H 0.79742 0.76273 -0.00038 0.0
C1056 C 0.52321 0.72927 0.70969 0.0
C1057 C 0.52382 0.73402 0.69029 0.0
C1058 C 0.50689 0.72122 0.7178 0.0
C1059 C 0.49059 0.71833 0.70636 0.0
C1060 C 0.49085 0.72384 0.68695 0.0
C1061 C 0.5076 0.73134 0.67906 0.0
C1062 C 0.50736 0.7151 0.7384 0.0
C1063 C 0.47355 0.72148 0.67445 0.0
C1064 C 0.45454 0.68031 0.71959 0.0
C1065 C 0.44045 0.69113 0.72863 0.0
C1066 C 0.4712 0.68891 0.71278 0.0
C1067 C 0.47352 0.7089 0.71453 0.0
C1068 C 0.45943 0.71987 0.72387 0.0
C1069 C 0.44317 0.7108 0.73104 0.0
C1070 C 0.48619 0.67666 0.70342 0.0
C1071 C 0.46118 0.74125 0.72565 0.0
H1072 H 0.53581 0.73107 0.7184 0.0
H1073 H 0.50804 0.73502 0.66408 0.0
H1074 H 0.49558 0.72187 0.7464 0.0
H1075 H 0.50531 0.69944 0.73932 0.0
H1076 H 0.52099 0.71881 0.74548 0.0
H1077 H 0.47559 0.72785 0.66013 0.0
H1078 H 0.47028 0.70611 0.67268 0.0
H1079 H 0.46101 0.72824 0.68126 0.0
H1080 H 0.45246 0.6651 0.71773 0.0
H1081 H 0.43217 0.71927 0.73777 0.0
H1082 H 0.5002 0.67915 0.71024 0.0
H1083 H 0.48757 0.6806 0.6882 0.0
H1084 H 0.48279 0.66122 0.70431 0.0
H1085 H 0.47462 0.74505 0.73299 0.0
H1086 H 0.44914 0.74766 0.73363 0.0
H1087 H 0.46171 0.74774 0.71126 0.0
C1088 C 0.25727 0.44448 0.72774 0.0
C1089 C 0.27693 0.44352 0.73092 0.0
C1090 C 0.24889 0.46078 0.7198 0.0
C1091 C 0.26034 0.47678 0.71551 0.0
C1092 C 0.28011 0.47618 0.7194 0.0
C1093 C 0.28824 0.45939 0.72672 0.0
C1094 C 0.22789 0.4606 0.71534 0.0
C1095 C 0.29269 0.49318 0.71561 0.0
C1096 C 0.2442 0.51253 0.67815 0.0
C1097 C 0.23606 0.52685 0.68943 0.0
C1098 C 0.2517 0.49592 0.68642 0.0
C1099 C 0.25169 0.49394 0.7065 0.0
C1100 C 0.24342 0.50836 0.71795 0.0
C1101 C 0.23543 0.5245 0.70925 0.0
C1102 C 0.25983 0.48059 0.67369 0.0
C1103 C 0.24358 0.50704 0.7394 0.0
H1104 H 0.24851 0.43212 0.73067 0.0
H1105 H 0.30343 0.45866 0.72917 0.0
H1106 H 0.22066 0.47258 0.72269 0.0
H1107 H 0.22572 0.46262 0.69982 0.0
H1108 H 0.22095 0.44706 0.71967 0.0
H1109 H 0.30743 0.49095 0.72082 0.0
H1110 H 0.29322 0.49607 0.7001 0.0
H1111 H 0.28675 0.50607 0.72259 0.0
H1112 H 0.24475 0.51436 0.66284 0.0
H1113 H 0.22948 0.53572 0.71805 0.0
H1114 H 0.25315 0.46665 0.67698 0.0
H1115 H 0.27529 0.4791 0.67634 0.0
H1116 H 0.25764 0.48376 0.65835 0.0
H1117 H 0.23627 0.49387 0.7441 0.0
H1118 H 0.23657 0.51948 0.74626 0.0
H1119 H 0.25846 0.5062 0.74457 0.0
C1120 C 0.45253 0.23591 0.68962 0.0
C1121 C 0.43717 0.24844 0.6875 0.0
C1122 C 0.47021 0.2425 0.69617 0.0
C1123 C 0.47242 0.26199 0.70106 0.0
C1124 C 0.45696 0.27469 0.69888 0.0
C1125 C 0.43958 0.2678 0.69194 0.0
C1126 C 0.48649 0.2286 0.69801 0.0
C1127 C 0.45863 0.29549 0.70425 0.0
C1128 C 0.5127 0.27442 0.73495 0.0
C1129 C 0.52654 0.28128 0.72236 0.0
C1130 C 0.49485 0.26844 0.72826 0.0
C1131 C 0.49089 0.26909 0.70849 0.0
C1132 C 0.50468 0.27634 0.69577 0.0
C1133 C 0.52227 0.28247 0.70287 0.0
C1134 C 0.48037 0.26107 0.74229 0.0
C1135 C 0.50107 0.27709 0.67459 0.0
H1136 H 0.4507 0.22094 0.68622 0.0
H1137 H 0.42769 0.27753 0.69059 0.0
H1138 H 0.49887 0.23369 0.68966 0.0
H1139 H 0.49106 0.22769 0.7131 0.0
H1140 H 0.48264 0.21407 0.693 0.0
H1141 H 0.44521 0.30346 0.7018 0.0
H1142 H 0.46254 0.29681 0.7195 0.0
H1143 H 0.47011 0.30232 0.69587 0.0
H1144 H 0.51591 0.27346 0.75001 0.0
H1145 H 0.53293 0.2876 0.693 0.0
H1146 H 0.47727 0.24586 0.73927 0.0
H1147 H 0.46683 0.26903 0.74075 0.0
H1148 H 0.48531 0.26234 0.75726 0.0
H1149 H 0.49831 0.26251 0.66909 0.0
H1150 H 0.51324 0.28325 0.66662 0.0
H1151 H 0.48822 0.28576 0.6716 0.0
C1152 C 0.73383 0.45333 0.69036 0.0
C1153 C 0.72109 0.43863 0.68591 0.0
C1154 C 0.72723 0.47111 0.69681 0.0
C1155 C 0.70745 0.47409 0.69915 0.0
C1156 C 0.69453 0.45938 0.69445 0.0
C1157 C 0.7015 0.44189 0.68773 0.0
C1158 C 0.74142 0.48659 0.70139 0.0
C1159 C 0.67337 0.46194 0.69697 0.0
C1160 C 0.69228 0.5132 0.73345 0.0
C1161 C 0.68765 0.52802 0.72091 0.0
C1162 C 0.69844 0.49544 0.72655 0.0
C1163 C 0.70028 0.49257 0.70667 0.0
C1164 C 0.69541 0.5074 0.69395 0.0
C1165 C 0.68901 0.52489 0.70122 0.0
C1166 C 0.70321 0.47982 0.74053 0.0
C1167 C 0.69737 0.50495 0.67267 0.0
H1168 H 0.74897 0.45089 0.68898 0.0
H1169 H 0.69155 0.43054 0.6845 0.0
H1170 H 0.73799 0.49969 0.69324 0.0
H1171 H 0.74058 0.4903 0.71673 0.0
H1172 H 0.75623 0.48226 0.69805 0.0
H1173 H 0.66522 0.4491 0.69256 0.0
H1174 H 0.67013 0.46504 0.71212 0.0
H1175 H 0.66834 0.47429 0.68851 0.0
H1176 H 0.69123 0.51553 0.74868 0.0
H1177 H 0.68561 0.53631 0.69142 0.0
H1178 H 0.71845 0.47597 0.73927 0.0
H1179 H 0.69485 0.46683 0.73722 0.0
H1180 H 0.70031 0.48409 0.75549 0.0
H1181 H 0.71238 0.50176 0.66902 0.0
H1182 H 0.69288 0.51786 0.66471 0.0
H1183 H 0.6887 0.4927 0.66776 0.0
C1184 C 0.44564 0.26157 0.23405 0.0
C1185 C 0.44171 0.2808 0.23796 0.0
C1186 C 0.46185 0.25265 0.24155 0.0
C1187 C 0.47472 0.26335 0.25277 0.0
C1188 C 0.47127 0.283 0.25603 0.0
C1189 C 0.45462 0.29141 0.24884 0.0
C1190 C 0.46477 0.23159 0.2381 0.0
C1191 C 0.48496 0.29503 0.26742 0.0
C1192 C 0.50677 0.23809 0.28838 0.0
C1193 C 0.52379 0.23659 0.27814 0.0
C1194 C 0.49056 0.24642 0.28015 0.0
C1195 C 0.49158 0.25389 0.26144 0.0
C1196 C 0.50873 0.25238 0.25104 0.0
C1197 C 0.52454 0.24355 0.25943 0.0
C1198 C 0.47238 0.24733 0.29151 0.0
C1199 C 0.51053 0.26052 0.23123 0.0
H1200 H 0.43556 0.25322 0.22588 0.0
H1201 H 0.45161 0.30627 0.25188 0.0
H1202 H 0.47884 0.22903 0.23147 0.0
H1203 H 0.46463 0.2239 0.25189 0.0
H1204 H 0.45362 0.2254 0.22875 0.0
H1205 H 0.48096 0.31035 0.26743 0.0
H1206 H 0.48538 0.28996 0.28236 0.0
H1207 H 0.49954 0.2936 0.26157 0.0
H1208 H 0.50612 0.23271 0.30283 0.0
H1209 H 0.53772 0.24266 0.25149 0.0
H1210 H 0.46062 0.24065 0.28335 0.0
H1211 H 0.46838 0.26241 0.29407 0.0
H1212 H 0.47365 0.24002 0.30547 0.0
H1213 H 0.49987 0.25392 0.22163 0.0
H1214 H 0.52489 0.25823 0.22508 0.0
H1215 H 0.50759 0.27607 0.23156 0.0
C1216 C 0.69586 0.4562 0.23333 0.0
C1217 C 0.69627 0.43929 0.24385 0.0
C1218 C 0.70328 0.47316 0.24095 0.0
C1219 C 0.71179 0.47297 0.25925 0.0
C1220 C 0.71273 0.45575 0.26966 0.0
C1221 C 0.70471 0.43917 0.26194 0.0
C1222 C 0.70162 0.49137 0.22963 0.0
C1223 C 0.72208 0.45485 0.289 0.0
C1224 C 0.74385 0.51487 0.27127 0.0
C1225 C 0.7316 0.52639 0.28204 0.0
C1226 C 0.73779 0.49714 0.2642 0.0
C1227 C 0.71899 0.49095 0.26782 0.0
C1228 C 0.70679 0.50222 0.27922 0.0
C1229 C 0.71329 0.51972 0.28631 0.0
C1230 C 0.75131 0.48528 0.25243 0.0
C1231 C 0.6866 0.49616 0.2833 0.0
H1232 H 0.68929 0.45627 0.21936 0.0
H1233 H 0.70527 0.426 0.26999 0.0
H1234 H 0.69319 0.50199 0.23776 0.0
H1235 H 0.7159 0.4976 0.22727 0.0
H1236 H 0.69471 0.48908 0.21559 0.0
H1237 H 0.72272 0.44008 0.29466 0.0
H1238 H 0.73674 0.46061 0.2882 0.0
H1239 H 0.71411 0.46385 0.29926 0.0
H1240 H 0.75803 0.5199 0.26796 0.0
H1241 H 0.7037 0.52851 0.29461 0.0
H1242 H 0.74596 0.4842 0.23761 0.0
H1243 H 0.75214 0.47058 0.25818 0.0
H1244 H 0.76585 0.49144 0.25209 0.0
H1245 H 0.67855 0.49502 0.26976 0.0
H1246 H 0.6791 0.50634 0.29282 0.0
H1247 H 0.68644 0.48188 0.29005 0.0
C1248 C 0.52315 0.69649 0.26563 0.0
C1249 C 0.52524 0.69201 0.24628 0.0
C1250 C 0.50605 0.70399 0.27269 0.0
C1251 C 0.49052 0.70668 0.26016 0.0
C1252 C 0.49248 0.702 0.24063 0.0
C1253 C 0.50989 0.6949 0.23388 0.0
C1254 C 0.50462 0.70906 0.29354 0.0
C1255 C 0.47613 0.70433 0.22689 0.0
C1256 C 0.44096 0.70719 0.28133 0.0
C1257 C 0.43636 0.72666 0.28088 0.0
C1258 C 0.45851 0.70055 0.27465 0.0
C1259 C 0.472 0.71371 0.26761 0.0
C1260 C 0.46765 0.73345 0.2675 0.0
C1261 C 0.44979 0.73968 0.27398 0.0
C1262 C 0.46245 0.67937 0.27474 0.0
C1263 C 0.48181 0.74792 0.26035 0.0
H1264 H 0.53503 0.69448 0.27525 0.0
H1265 H 0.51143 0.69145 0.21891 0.0
H1266 H 0.5002 0.72417 0.29516 0.0
H1267 H 0.49359 0.70016 0.30046 0.0
H1268 H 0.51828 0.70696 0.30119 0.0
H1269 H 0.47997 0.70004 0.21216 0.0
H1270 H 0.4639 0.69556 0.23163 0.0
H1271 H 0.47134 0.71939 0.22671 0.0
H1272 H 0.4306 0.69698 0.28645 0.0
H1273 H 0.44632 0.75474 0.27359 0.0
H1274 H 0.47534 0.67631 0.2833 0.0
H1275 H 0.46528 0.67435 0.26002 0.0
H1276 H 0.45042 0.67101 0.28063 0.0
H1277 H 0.49541 0.74649 0.26822 0.0
H1278 H 0.47657 0.76278 0.26195 0.0
H1279 H 0.4849 0.74527 0.24509 0.0
C1280 C 0.29524 0.51131 0.24174 0.0
C1281 C 0.28283 0.52643 0.23796 0.0
C1282 C 0.28846 0.49424 0.2497 0.0
C1283 C 0.26899 0.49266 0.25462 0.0
C1284 C 0.25651 0.50808 0.25111 0.0
C1285 C 0.26353 0.52465 0.24253 0.0
C1286 C 0.30205 0.47787 0.25274 0.0
C1287 C 0.23579 0.50719 0.25666 0.0
C1288 C 0.24532 0.44434 0.25895 0.0
C1289 C 0.24545 0.44142 0.2787 0.0
C1290 C 0.25339 0.46072 0.25093 0.0
C1291 C 0.26145 0.47473 0.26297 0.0
C1292 C 0.26158 0.47193 0.28294 0.0
C1293 C 0.25376 0.45516 0.29057 0.0
C1294 C 0.25324 0.46304 0.22955 0.0
C1295 C 0.26966 0.48679 0.29625 0.0
H1296 H 0.31018 0.51277 0.23829 0.0
H1297 H 0.25399 0.53653 0.24 0.0
H1298 H 0.30274 0.47422 0.26808 0.0
H1299 H 0.29687 0.46503 0.24509 0.0
H1300 H 0.31663 0.48121 0.24768 0.0
H1301 H 0.22818 0.52074 0.25368 0.0
H1302 H 0.22861 0.49552 0.24879 0.0
H1303 H 0.23448 0.50398 0.27207 0.0
H1304 H 0.23913 0.43365 0.24967 0.0
H1305 H 0.25388 0.45296 0.30584 0.0
H1306 H 0.26789 0.46558 0.22429 0.0
H1307 H 0.24459 0.47564 0.22558 0.0
H1308 H 0.24736 0.45034 0.22214 0.0
H1309 H 0.28477 0.48953 0.29274 0.0
H1310 H 0.2687 0.48243 0.31141 0.0
H1311 H 0.2619 0.50045 0.29442 0.0
C1312 C 0.73425 0.69892 0.51311 0.0
C1313 C 0.72178 0.68893 0.52508 0.0
C1314 C 0.72827 0.70556 0.49521 0.0
C1315 C 0.70938 0.70217 0.48914 0.0
C1316 C 0.69689 0.69167 0.50093 0.0
C1317 C 0.70325 0.68514 0.51871 0.0
C1318 C 0.74208 0.71651 0.48295 0.0
C1319 C 0.67666 0.68769 0.49495 0.0
C1320 C 0.68829 0.73457 0.45104 0.0
C1321 C 0.6892 0.72282 0.43494 0.0
C1322 C 0.69463 0.72797 0.46887 0.0
C1323 C 0.70265 0.70947 0.47039 0.0
C1324 C 0.70396 0.69776 0.45403 0.0
C1325 C 0.69696 0.70446 0.4366 0.0
C1326 C 0.69258 0.74069 0.4861 0.0
C1327 C 0.71289 0.67819 0.45489 0.0
H1328 H 0.74857 0.70197 0.51791 0.0
H1329 H 0.69349 0.67746 0.52783 0.0
H1330 H 0.74329 0.70967 0.46874 0.0
H1331 H 0.73674 0.73121 0.48066 0.0
H1332 H 0.75646 0.71735 0.48942 0.0
H1333 H 0.66877 0.67926 0.50573 0.0
H1334 H 0.66903 0.70133 0.49259 0.0
H1335 H 0.67649 0.67976 0.48127 0.0
H1336 H 0.68229 0.74875 0.44976 0.0
H1337 H 0.69797 0.69543 0.4241 0.0
H1338 H 0.70673 0.74345 0.4925 0.0
H1339 H 0.68384 0.73345 0.49706 0.0
H1340 H 0.68584 0.75457 0.48258 0.0
H1341 H 0.72773 0.67933 0.4601 0.0
H1342 H 0.71301 0.67097 0.44081 0.0
H1343 H 0.70505 0.66908 0.46512 0.0
C1344 C 0.73281 0.27978 0.45217 0.0
C1345 C 0.71978 0.2828 0.43738 0.0
C1346 C 0.72677 0.27285 0.46994 0.0
C1347 C 0.70733 0.26844 0.4728 0.0
C1348 C 0.69412 0.27161 0.45794 0.0
C1349 C 0.70047 0.27893 0.44051 0.0
C1350 C 0.74121 0.27007 0.4856 0.0
C1351 C 0.67333 0.2668 0.46028 0.0
C1352 C 0.69391 0.23379 0.51228 0.0
C1353 C 0.68722 0.24625 0.5264 0.0
C1354 C 0.70051 0.2408 0.49473 0.0
C1355 C 0.70068 0.26072 0.49138 0.0
C1356 C 0.69406 0.27333 0.50564 0.0
C1357 C 0.68728 0.26595 0.52288 0.0
C1358 C 0.70724 0.2269 0.47976 0.0
C1359 C 0.69421 0.29467 0.50273 0.0
H1360 H 0.74775 0.28271 0.44981 0.0
H1361 H 0.69033 0.28094 0.42907 0.0
H1362 H 0.73685 0.27814 0.49848 0.0
H1363 H 0.74189 0.2548 0.48961 0.0
H1364 H 0.75564 0.27482 0.48133 0.0
H1365 H 0.6648 0.27066 0.44754 0.0
H1366 H 0.67173 0.25129 0.4629 0.0
H1367 H 0.66737 0.27435 0.47281 0.0
H1368 H 0.69395 0.21857 0.51493 0.0
H1369 H 0.68236 0.27573 0.53378 0.0
H1370 H 0.72226 0.22987 0.47605 0.0
H1371 H 0.69874 0.22867 0.46656 0.0
H1372 H 0.7061 0.21185 0.48453 0.0
H1373 H 0.70879 0.29953 0.49923 0.0
H1374 H 0.68922 0.30256 0.51551 0.0
H1375 H 0.68495 0.29848 0.49053 0.0
C1376 C 0.25926 0.69244 0.43997 0.0
C1377 C 0.23971 0.69006 0.43687 0.0
C1378 C 0.26616 0.69952 0.4573 0.0
C1379 C 0.25323 0.7039 0.47209 0.0
C1380 C 0.23347 0.70126 0.46917 0.0
C1381 C 0.22691 0.69459 0.45146 0.0
C1382 C 0.28728 0.70253 0.45969 0.0
C1383 C 0.2193 0.70539 0.48476 0.0
C1384 C 0.27337 0.70412 0.52218 0.0
C1385 C 0.27511 0.7237 0.52592 0.0
C1386 C 0.26598 0.69752 0.50485 0.0
C1387 C 0.26052 0.71081 0.49074 0.0
C1388 C 0.2625 0.73061 0.49429 0.0
C1389 C 0.26962 0.73683 0.51193 0.0
C1390 C 0.26385 0.67632 0.50171 0.0
C1391 C 0.2571 0.74518 0.47945 0.0
H1392 H 0.26922 0.68927 0.42863 0.0
H1393 H 0.2118 0.69279 0.44906 0.0
H1394 H 0.29018 0.71768 0.46322 0.0
H1395 H 0.29266 0.6938 0.4717 0.0
H1396 H 0.29539 0.69871 0.44667 0.0
H1397 H 0.20447 0.70234 0.4803 0.0
H1398 H 0.22265 0.69667 0.4975 0.0
H1399 H 0.22027 0.72057 0.4891 0.0
H1400 H 0.27733 0.69386 0.533 0.0
H1401 H 0.27088 0.75197 0.51478 0.0
H1402 H 0.27275 0.67174 0.4895 0.0
H1403 H 0.24889 0.67287 0.49812 0.0
H1404 H 0.26806 0.6679 0.51443 0.0
H1405 H 0.26537 0.74269 0.46623 0.0
H1406 H 0.25968 0.76002 0.48436 0.0
H1407 H 0.24185 0.74369 0.47573 0.0
C1408 C 0.22798 0.27293 0.51231 0.0
C1409 C 0.24054 0.27949 0.52637 0.0
C1410 C 0.23482 0.26591 0.49481 0.0
C1411 C 0.25468 0.26513 0.49145 0.0
C1412 C 0.26738 0.27167 0.50564 0.0
C1413 C 0.26017 0.27889 0.52281 0.0
C1414 C 0.22082 0.25938 0.47988 0.0
C1415 C 0.28864 0.27089 0.50278 0.0
C1416 C 0.27311 0.23145 0.45297 0.0
C1417 C 0.2766 0.24407 0.43791 0.0
C1418 C 0.26615 0.23811 0.47056 0.0
C1419 C 0.26225 0.2578 0.47299 0.0
C1420 C 0.26585 0.27059 0.45786 0.0
C1421 C 0.27314 0.26361 0.44061 0.0
C1422 C 0.26288 0.22409 0.48649 0.0
C1423 C 0.2617 0.29164 0.45977 0.0
H1424 H 0.21281 0.27333 0.51496 0.0
H1425 H 0.27003 0.28372 0.53365 0.0
H1426 H 0.22297 0.26756 0.46654 0.0
H1427 H 0.22327 0.24413 0.47647 0.0
H1428 H 0.20585 0.26119 0.48455 0.0
H1429 H 0.2966 0.27602 0.51545 0.0
H1430 H 0.29312 0.25605 0.49963 0.0
H1431 H 0.29272 0.27975 0.49037 0.0
H1432 H 0.27574 0.21635 0.45099 0.0
H1433 H 0.27558 0.27347 0.42901 0.0
H1434 H 0.24764 0.22404 0.49052 0.0
H1435 H 0.27107 0.22846 0.49928 0.0
H1436 H 0.26712 0.20935 0.48251 0.0
H1437 H 0.24647 0.29381 0.46326 0.0
H1438 H 0.26502 0.29965 0.44655 0.0
H1439 H 0.27011 0.29779 0.47163 0.0
C1440 C 0.12406 0.11368 0.2409 0.0
C1441 C 0.13766 0.12099 0.25356 0.0
C1442 C 0.10939 0.12547 0.23399 0.0
C1443 C 0.10903 0.14497 0.23934 0.0
C1444 C 0.12069 0.15124 0.25454 0.0
C1445 C 0.13463 0.13899 0.26172 0.0
C1446 C 0.09583 0.11762 0.21936 0.0
C1447 C 0.12065 0.17176 0.26116 0.0
C1448 C 0.11169 0.18366 0.20295 0.0
C1449 C 0.09685 0.19558 0.20877 0.0
C1450 C 0.1144 0.16579 0.21125 0.0
C1451 C 0.10189 0.15966 0.22583 0.0
C1452 C 0.08538 0.17053 0.22988 0.0
C1453 C 0.08307 0.18856 0.22134 0.0
C1454 C 0.13184 0.15447 0.20571 0.0
C1455 C 0.07083 0.16389 0.24414 0.0
H1456 H 0.12589 0.09952 0.23496 0.0
H1457 H 0.14467 0.14443 0.27211 0.0
H1458 H 0.08287 0.12655 0.21802 0.0
H1459 H 0.10298 0.11691 0.20531 0.0
H1460 H 0.0916 0.10286 0.22321 0.0
H1461 H 0.12957 0.17393 0.27404 0.0
H1462 H 0.12622 0.18106 0.24967 0.0
H1463 H 0.106 0.17647 0.26445 0.0
H1464 H 0.12192 0.18881 0.19263 0.0
H1465 H 0.07123 0.19756 0.22546 0.0
H1466 H 0.12776 0.13982 0.20145 0.0
H1467 H 0.14165 0.15336 0.21804 0.0
H1468 H 0.1397 0.16105 0.19368 0.0
H1469 H 0.07119 0.14819 0.24605 0.0
H1470 H 0.05633 0.1682 0.2396 0.0
H1471 H 0.0736 0.17078 0.2581 0.0
C1472 C 0.83727 0.14326 0.24038 0.0
C1473 C 0.85529 0.13744 0.2464 0.0
C1474 C 0.82418 0.13028 0.23303 0.0
C1475 C 0.8293 0.11082 0.23135 0.0
C1476 C 0.84802 0.105 0.23609 0.0
C1477 C 0.86086 0.11845 0.24374 0.0
C1478 C 0.8045 0.1374 0.22798 0.0
C1479 C 0.85427 0.08455 0.23399 0.0
C1480 C 0.78248 0.08697 0.23572 0.0
C1481 C 0.77656 0.08765 0.21674 0.0
C1482 C 0.80136 0.0911 0.24058 0.0
C1483 C 0.81415 0.09696 0.22616 0.0
C1484 C 0.8089 0.09485 0.20681 0.0
C1485 C 0.79006 0.09004 0.20229 0.0
C1486 C 0.80668 0.09213 0.26135 0.0
C1487 C 0.82217 0.10057 0.19097 0.0
H1488 H 0.83311 0.158 0.24186 0.0
H1489 H 0.87491 0.11399 0.24824 0.0
H1490 H 0.80086 0.13338 0.21314 0.0
H1491 H 0.79383 0.13075 0.23751 0.0
H1492 H 0.8032 0.15313 0.22935 0.0
H1493 H 0.86994 0.08349 0.23242 0.0
H1494 H 0.85013 0.07651 0.24693 0.0
H1495 H 0.84741 0.0776 0.22156 0.0
H1496 H 0.772 0.08491 0.24684 0.0
H1497 H 0.78542 0.09054 0.18757 0.0
H1498 H 0.80553 0.10712 0.26631 0.0
H1499 H 0.82156 0.08739 0.26356 0.0
H1500 H 0.79713 0.0832 0.27022 0.0
H1501 H 0.82141 0.11625 0.18898 0.0
H1502 H 0.81818 0.09366 0.1773 0.0
H1503 H 0.8371 0.09686 0.19446 0.0
C1504 C 0.87542 0.77933 0.21666 0.0
C1505 C 0.86008 0.77028 0.20758 0.0
C1506 C 0.87318 0.79734 0.22528 0.0
C1507 C 0.85515 0.80634 0.2249 0.0
C1508 C 0.83993 0.79761 0.21493 0.0
C1509 C 0.84261 0.77977 0.20645 0.0
C1510 C 0.88996 0.80621 0.23529 0.0
C1511 C 0.82048 0.80672 0.21378 0.0
C1512 C 0.83064 0.83488 0.26209 0.0
C1513 C 0.82619 0.85118 0.25146 0.0
C1514 C 0.84294 0.82099 0.25481 0.0
C1515 C 0.85094 0.82361 0.23653 0.0
C1516 C 0.8494 0.84163 0.22757 0.0
C1517 C 0.83681 0.8553 0.23511 0.0
C1518 C 0.84481 0.8023 0.26525 0.0
C1519 C 0.85888 0.84546 0.20873 0.0
H1520 H 0.88909 0.77224 0.21734 0.0
H1521 H 0.83078 0.77312 0.19911 0.0
H1522 H 0.88889 0.82199 0.2359 0.0
H1523 H 0.89067 0.80072 0.25008 0.0
H1524 H 0.90346 0.80226 0.2281 0.0
H1525 H 0.81036 0.79821 0.2051 0.0
H1526 H 0.81445 0.80837 0.22829 0.0
H1527 H 0.82155 0.82114 0.20741 0.0
H1528 H 0.82275 0.83191 0.27501 0.0
H1529 H 0.83366 0.86805 0.22699 0.0
H1530 H 0.85965 0.79704 0.26467 0.0
H1531 H 0.83561 0.79146 0.25831 0.0
H1532 H 0.84045 0.80359 0.2804 0.0
H1533 H 0.87291 0.83827 0.20793 0.0
H1534 H 0.86082 0.86099 0.20638 0.0
H1535 H 0.84986 0.83978 0.19707 0.0
C1536 C 0.19151 0.84568 0.20986 0.0
C1537 C 0.20089 0.86291 0.21348 0.0
C1538 C 0.17339 0.84214 0.2171 0.0
C1539 C 0.1643 0.85617 0.22844 0.0
C1540 C 0.17313 0.87413 0.23115 0.0
C1541 C 0.19141 0.87731 0.2236 0.0
C1542 C 0.16442 0.82289 0.21332 0.0
C1543 C 0.16382 0.88973 0.24262 0.0
C1544 C 0.11573 0.83611 0.23601 0.0
C1545 C 0.11987 0.82375 0.25111 0.0
C1546 C 0.12922 0.84966 0.23006 0.0
C1547 C 0.14709 0.85043 0.23931 0.0
C1548 C 0.14976 0.84036 0.25654 0.0
C1549 C 0.13607 0.82709 0.26223 0.0
C1550 C 0.12535 0.86118 0.21238 0.0
C1551 C 0.16831 0.84127 0.2673 0.0
H1552 H 0.19849 0.8347 0.20152 0.0
H1553 H 0.19844 0.89084 0.22612 0.0
H1554 H 0.16266 0.81504 0.22691 0.0
H1555 H 0.15013 0.82472 0.20693 0.0
H1556 H 0.17307 0.81395 0.20354 0.0
H1557 H 0.16803 0.90401 0.23724 0.0
H1558 H 0.1481 0.88863 0.24238 0.0
H1559 H 0.16862 0.88871 0.25763 0.0
H1560 H 0.10303 0.83384 0.22756 0.0
H1561 H 0.13903 0.81787 0.27426 0.0
H1562 H 0.13084 0.85338 0.19977 0.0
H1563 H 0.13258 0.87522 0.21305 0.0
H1564 H 0.10986 0.86346 0.21035 0.0
H1565 H 0.17928 0.83304 0.25943 0.0
H1566 H 0.16701 0.83516 0.28182 0.0
H1567 H 0.17333 0.8562 0.26849 0.0
C1568 C 0.12666 0.7781 0.75532 0.0
C1569 C 0.1088 0.76936 0.75633 0.0
C1570 C 0.12906 0.79569 0.74628 0.0
C1571 C 0.11318 0.80491 0.73792 0.0
C1572 C 0.09498 0.79639 0.73916 0.0
C1573 C 0.09302 0.77864 0.74829 0.0
C1574 C 0.14877 0.80426 0.74553 0.0
C1575 C 0.07764 0.80567 0.73059 0.0
C1576 C 0.13042 0.85451 0.72958 0.0
C1577 C 0.14007 0.85145 0.7124 0.0
C1578 C 0.11851 0.84028 0.73706 0.0
C1579 C 0.11647 0.82283 0.72707 0.0
C1580 C 0.12315 0.82146 0.70813 0.0
C1581 C 0.13491 0.83588 0.70097 0.0
C1582 C 0.11061 0.84275 0.75686 0.0
C1583 C 0.12064 0.80345 0.69663 0.0
H1584 H 0.1389 0.77119 0.76165 0.0
H1585 H 0.07912 0.77205 0.7491 0.0
H1586 H 0.15329 0.80602 0.7305 0.0
H1587 H 0.14874 0.81858 0.75225 0.0
H1588 H 0.15951 0.79532 0.75293 0.0
H1589 H 0.06444 0.80091 0.73783 0.0
H1590 H 0.07846 0.82145 0.73134 0.0
H1591 H 0.07656 0.80154 0.71538 0.0
H1592 H 0.13411 0.86669 0.73836 0.0
H1593 H 0.14204 0.83371 0.68745 0.0
H1594 H 0.12055 0.83626 0.76727 0.0
H1595 H 0.09667 0.83551 0.7583 0.0
H1596 H 0.10893 0.85807 0.76052 0.0
H1597 H 0.13091 0.79255 0.70169 0.0
H1598 H 0.12324 0.80594 0.68124 0.0
H1599 H 0.10614 0.79759 0.69847 0.0
C1600 C 0.18063 0.08713 0.75941 0.0
C1601 C 0.19073 0.10438 0.75899 0.0
C1602 C 0.16149 0.08627 0.75358 0.0
C1603 C 0.15249 0.103 0.74676 0.0
C1604 C 0.16287 0.12034 0.74603 0.0
C1605 C 0.18173 0.12079 0.75223 0.0
C1606 C 0.15122 0.06744 0.75466 0.0
C1607 C 0.15417 0.1386 0.73862 0.0
C1608 C 0.11397 0.11333 0.71274 0.0
C1609 C 0.10283 0.12473 0.72475 0.0
C1610 C 0.12888 0.10238 0.72026 0.0
C1611 C 0.13239 0.10308 0.74007 0.0
C1612 C 0.11821 0.11055 0.75228 0.0
C1613 C 0.10331 0.12129 0.74438 0.0
C1614 C 0.14287 0.09325 0.70681 0.0
C1615 C 0.12071 0.11037 0.77359 0.0
H1616 H 0.18753 0.07438 0.76468 0.0
H1617 H 0.18948 0.13414 0.75174 0.0
H1618 H 0.13564 0.06923 0.75626 0.0
H1619 H 0.15393 0.0593 0.74138 0.0
H1620 H 0.15661 0.05877 0.76674 0.0
H1621 H 0.16418 0.15083 0.73927 0.0
H1622 H 0.14978 0.13665 0.72358 0.0
H1623 H 0.14138 0.14236 0.74704 0.0
H1624 H 0.11327 0.11558 0.69748 0.0
H1625 H 0.09439 0.12975 0.75373 0.0
H1626 H 0.14865 0.0799 0.71295 0.0
H1627 H 0.15491 0.10318 0.70439 0.0
H1628 H 0.1362 0.09003 0.69283 0.0
H1629 H 0.12759 0.09695 0.77833 0.0
H1630 H 0.10687 0.11202 0.781 0.0
H1631 H 0.13 0.12245 0.77784 0.0
C1632 C 0.84307 0.18588 0.75335 0.0
C1633 C 0.86065 0.19401 0.75794 0.0
C1634 C 0.84188 0.16775 0.74517 0.0
C1635 C 0.85874 0.15724 0.74155 0.0
C1636 C 0.8766 0.16523 0.74633 0.0
C1637 C 0.87735 0.18359 0.75446 0.0
C1638 C 0.82243 0.15999 0.7402 0.0
C1639 C 0.89486 0.15437 0.74331 0.0
C1640 C 0.83961 0.10853 0.73421 0.0
C1641 C 0.83377 0.11068 0.71527 0.0
C1642 C 0.85128 0.12237 0.74276 0.0
C1643 C 0.85701 0.13839 0.73194 0.0
C1644 C 0.85467 0.13808 0.71194 0.0
C1645 C 0.84292 0.12416 0.70378 0.0
C1646 C 0.85454 0.12159 0.76395 0.0
C1647 C 0.86144 0.15433 0.69967 0.0
H1648 H 0.83011 0.19381 0.75597 0.0
H1649 H 0.89099 0.1897 0.75824 0.0
H1650 H 0.82157 0.15697 0.72472 0.0
H1651 H 0.81987 0.14643 0.74787 0.0
H1652 H 0.81082 0.17006 0.74393 0.0
H1653 H 0.90734 0.16406 0.74293 0.0
H1654 H 0.89687 0.14426 0.75528 0.0
H1655 H 0.89451 0.14592 0.72995 0.0
H1656 H 0.83281 0.0979 0.74309 0.0
H1657 H 0.8387 0.12556 0.68899 0.0
H1658 H 0.84343 0.13013 0.77126 0.0
H1659 H 0.86858 0.12771 0.76772 0.0
H1660 H 0.85373 0.10672 0.76932 0.0
H1661 H 0.85109 0.16625 0.7006 0.0
H1662 H 0.86263 0.14997 0.6845 0.0
H1663 H 0.87543 0.15971 0.7046 0.0
C1664 C 0.85401 0.84364 0.73226 0.0
C1665 C 0.85143 0.8342 0.71486 0.0
C1666 C 0.84011 0.85642 0.73892 0.0
C1667 C 0.82354 0.85946 0.72788 0.0
C1668 C 0.82333 0.85343 0.70865 0.0
C1669 C 0.83736 0.84073 0.70233 0.0
C1670 C 0.84155 0.86386 0.759 0.0
C1671 C 0.8065 0.85733 0.69596 0.0
C1672 C 0.77726 0.84703 0.75212 0.0
C1673 C 0.76801 0.86467 0.7533 0.0
C1674 C 0.79551 0.84545 0.74448 0.0
C1675 C 0.80497 0.86198 0.73774 0.0
C1676 C 0.79601 0.88 0.73942 0.0
C1677 C 0.77756 0.88113 0.74713 0.0
C1678 C 0.80444 0.82584 0.74329 0.0
C1679 C 0.80547 0.89807 0.73269 0.0
H1680 H 0.86509 0.83888 0.74187 0.0
H1681 H 0.83562 0.83372 0.68866 0.0
H1682 H 0.83462 0.87802 0.76034 0.0
H1683 H 0.83421 0.85385 0.76877 0.0
H1684 H 0.85661 0.86502 0.76359 0.0
H1685 H 0.81011 0.85525 0.6807 0.0
H1686 H 0.7948 0.84738 0.69964 0.0
H1687 H 0.80123 0.87209 0.69806 0.0
H1688 H 0.77014 0.83427 0.75707 0.0
H1689 H 0.7706 0.89488 0.74817 0.0
H1690 H 0.81821 0.82569 0.75097 0.0
H1691 H 0.80725 0.82208 0.72821 0.0
H1692 H 0.79525 0.81458 0.74951 0.0
H1693 H 0.82119 0.897 0.73297 0.0
H1694 H 0.80104 0.91043 0.74156 0.0
H1695 H 0.80096 0.901 0.71785 0.0
C1696 C 0.21463 0.08711 0.1846 0.0
C1697 C 0.21346 0.10417 0.19505 0.0
C1698 C 0.22074 0.08711 0.16548 0.0
C1699 C 0.22593 0.10457 0.15678 0.0
C1700 C 0.22447 0.12181 0.16728 0.0
C1701 C 0.21832 0.12135 0.18617 0.0
C1702 C 0.22196 0.06843 0.15489 0.0
C1703 C 0.2296 0.14091 0.15869 0.0
C1704 C 0.2607 0.11864 0.12014 0.0
C1705 C 0.24826 0.12812 0.10777 0.0
C1706 C 0.25358 0.10714 0.13481 0.0
C1707 C 0.23368 0.10548 0.13707 0.0
C1708 C 0.22157 0.11144 0.1221 0.0
C1709 C 0.2291 0.12268 0.10738 0.0
C1710 C 0.26712 0.10002 0.14984 0.0
C1711 C 0.20032 0.10915 0.12345 0.0
H1712 H 0.21077 0.07375 0.19132 0.0
H1713 H 0.21735 0.13463 0.19403 0.0
H1714 H 0.21813 0.07013 0.13966 0.0
H1715 H 0.23677 0.06306 0.15554 0.0
H1716 H 0.21256 0.05747 0.16133 0.0
H1717 H 0.22717 0.15294 0.16869 0.0
H1718 H 0.2448 0.14101 0.15453 0.0
H1719 H 0.22103 0.14352 0.14569 0.0
H1720 H 0.27562 0.1225 0.12017 0.0
H1721 H 0.21944 0.12971 0.09761 0.0
H1722 H 0.26222 0.08624 0.15579 0.0
H1723 H 0.26776 0.11053 0.16166 0.0
H1724 H 0.28169 0.09821 0.14404 0.0
H1725 H 0.19646 0.09571 0.13078 0.0
H1726 H 0.19366 0.10932 0.1091 0.0
H1727 H 0.19435 0.12121 0.13178 0.0
C1728 C 0.8149 0.25582 0.13637 0.0
C1729 C 0.8166 0.24545 0.11942 0.0
C1730 C 0.82489 0.25041 0.15272 0.0
C1731 C 0.8364 0.23387 0.1522 0.0
C1732 C 0.83934 0.22424 0.13467 0.0
C1733 C 0.82946 0.23028 0.11834 0.0
C1734 C 0.82169 0.26138 0.17095 0.0
C1735 C 0.85143 0.2065 0.13354 0.0
C1736 C 0.86452 0.2222 0.197 0.0
C1737 C 0.85159 0.21058 0.20684 0.0
C1738 C 0.86006 0.22958 0.17894 0.0
C1739 C 0.84238 0.22502 0.17047 0.0
C1740 C 0.82952 0.2129 0.18014 0.0
C1741 C 0.83421 0.20598 0.19823 0.0
C1742 C 0.87404 0.24261 0.16915 0.0
C1743 C 0.81061 0.20744 0.17149 0.0
H1744 H 0.80493 0.26761 0.1371 0.0
H1745 H 0.83058 0.22219 0.10522 0.0
H1746 H 0.81226 0.25305 0.18047 0.0
H1747 H 0.83531 0.26366 0.17858 0.0
H1748 H 0.81495 0.27546 0.16831 0.0
H1749 H 0.8552 0.2029 0.1186 0.0
H1750 H 0.86468 0.20819 0.14192 0.0
H1751 H 0.84344 0.19434 0.13968 0.0
H1752 H 0.87803 0.22574 0.20353 0.0
H1753 H 0.82427 0.19675 0.20557 0.0
H1754 H 0.86805 0.25722 0.16842 0.0
H1755 H 0.87655 0.23781 0.15431 0.0
H1756 H 0.88788 0.24325 0.17673 0.0
H1757 H 0.80158 0.22031 0.16991 0.0
H1758 H 0.80281 0.19688 0.18029 0.0
H1759 H 0.81274 0.20133 0.15707 0.0
C1760 C 0.73986 0.85234 0.1921 0.0
C1761 C 0.74756 0.86911 0.1997 0.0
C1762 C 0.73544 0.85081 0.17276 0.0
C1763 C 0.73843 0.86663 0.16054 0.0
C1764 C 0.74528 0.884 0.16825 0.0
C1765 C 0.74995 0.88499 0.18775 0.0
C1766 C 0.72823 0.83186 0.16538 0.0
C1767 C 0.74842 0.90137 0.15602 0.0
C1768 C 0.74452 0.8431 0.11373 0.0
C1769 C 0.72537 0.8391 0.1101 0.0
C1770 C 0.74961 0.85536 0.1287 0.0
C1771 C 0.73511 0.86394 0.13974 0.0
C1772 C 0.71618 0.86351 0.13297 0.0
C1773 C 0.7114 0.85069 0.11834 0.0
C1774 C 0.77013 0.85618 0.13481 0.0
C1775 C 0.70053 0.87385 0.14336 0.0
H1776 H 0.73783 0.84004 0.20119 0.0
H1777 H 0.75591 0.89804 0.19348 0.0
H1778 H 0.71399 0.83367 0.15887 0.0
H1779 H 0.73796 0.8263 0.15426 0.0
H1780 H 0.72708 0.82096 0.17677 0.0
H1781 H 0.74588 0.91463 0.16431 0.0
H1782 H 0.76344 0.90162 0.15122 0.0
H1783 H 0.73913 0.90144 0.14326 0.0
H1784 H 0.75536 0.83424 0.10719 0.0
H1785 H 0.69655 0.84781 0.11538 0.0
H1786 H 0.7724 0.84616 0.14682 0.0
H1787 H 0.77389 0.8707 0.1398 0.0
H1788 H 0.77985 0.85209 0.12303 0.0
H1789 H 0.69561 0.86499 0.15547 0.0
H1790 H 0.6882 0.8765 0.13384 0.0
H1791 H 0.7057 0.88764 0.14914 0.0
C1792 C 0.11591 0.73958 0.187 0.0
C1793 C 0.09915 0.74629 0.19539 0.0
C1794 C 0.11656 0.73445 0.16778 0.0
C1795 C 0.09986 0.73572 0.1565 0.0
C1796 C 0.08265 0.74189 0.16497 0.0
C1797 C 0.08253 0.74729 0.18431 0.0
C1798 C 0.13536 0.72798 0.15955 0.0
C1799 C 0.06448 0.74336 0.15366 0.0
C1800 C 0.11968 0.73859 0.1077 0.0
C1801 C 0.12437 0.71929 0.10557 0.0
C1802 C 0.10836 0.74455 0.12307 0.0
C1803 C 0.10125 0.73073 0.1359 0.0
C1804 C 0.10205 0.71123 0.13076 0.0
C1805 C 0.11394 0.70565 0.11571 0.0
C1806 C 0.10724 0.76555 0.12753 0.0
C1807 C 0.09339 0.69609 0.14323 0.0
H1808 H 0.12881 0.73871 0.1954 0.0
H1809 H 0.0695 0.75255 0.19065 0.0
H1810 H 0.13414 0.71313 0.15424 0.0
H1811 H 0.1394 0.73716 0.14736 0.0
H1812 H 0.14707 0.72845 0.17016 0.0
H1813 H 0.0518 0.74242 0.16305 0.0
H1814 H 0.06401 0.75738 0.14639 0.0
H1815 H 0.06354 0.73207 0.14262 0.0
H1816 H 0.12751 0.74918 0.09966 0.0
H1817 H 0.11726 0.69066 0.11382 0.0
H1818 H 0.1186 0.76928 0.13785 0.0
H1819 H 0.09338 0.76922 0.13408 0.0
H1820 H 0.10927 0.77433 0.11454 0.0
H1821 H 0.10342 0.6926 0.15492 0.0
H1822 H 0.09059 0.68284 0.13502 0.0
H1823 H 0.07992 0.70116 0.1497 0.0
C1824 C 0.2149 0.85013 0.78038 0.0
C1825 C 0.21329 0.86746 0.77067 0.0
C1826 C 0.22013 0.8495 0.79953 0.0
C1827 C 0.22396 0.8667 0.80949 0.0
C1828 C 0.22208 0.88437 0.79991 0.0
C1829 C 0.21683 0.88454 0.78054 0.0
C1830 C 0.2218 0.83019 0.80894 0.0
C1831 C 0.22594 0.90308 0.80979 0.0
C1832 C 0.22184 0.84963 0.85916 0.0
C1833 C 0.23994 0.84136 0.85991 0.0
C1834 C 0.21695 0.86178 0.84404 0.0
C1835 C 0.23053 0.86537 0.82962 0.0
C1836 C 0.24981 0.86084 0.83307 0.0
C1837 C 0.25436 0.84892 0.84844 0.0
C1838 C 0.19649 0.86762 0.84163 0.0
C1839 C 0.26498 0.86535 0.81863 0.0
H1840 H 0.21205 0.83687 0.77297 0.0
H1841 H 0.2155 0.89805 0.77316 0.0
H1842 H 0.23667 0.82784 0.81361 0.0
H1843 H 0.21251 0.82951 0.82167 0.0
H1844 H 0.21777 0.81831 0.79928 0.0
H1845 H 0.21726 0.91473 0.80352 0.0
H1846 H 0.22306 0.90235 0.82529 0.0
H1847 H 0.24112 0.90688 0.80781 0.0
H1848 H 0.2107 0.8441 0.86827 0.0
H1849 H 0.2685 0.84279 0.84925 0.0
H1850 H 0.18901 0.85677 0.83289 0.0
H1851 H 0.19538 0.88154 0.83422 0.0
H1852 H 0.18918 0.86862 0.85562 0.0
H1853 H 0.26427 0.85479 0.80685 0.0
H1854 H 0.27941 0.86467 0.82502 0.0
H1855 H 0.26273 0.87972 0.81246 0.0
C1856 C 0.08956 0.21308 0.77711 0.0
C1857 C 0.10571 0.21165 0.76541 0.0
C1858 C 0.09088 0.22042 0.79574 0.0
C1859 C 0.10878 0.22629 0.80284 0.0
C1860 C 0.12501 0.22521 0.7909 0.0
C1861 C 0.12324 0.21798 0.7724 0.0
C1862 C 0.07321 0.22125 0.80787 0.0
C1863 C 0.14445 0.2314 0.79774 0.0
C1864 C 0.12413 0.26015 0.84056 0.0
C1865 C 0.13362 0.24742 0.85262 0.0
C1866 C 0.11261 0.25335 0.82572 0.0
C1867 C 0.11125 0.23345 0.82267 0.0
C1868 C 0.1179 0.22081 0.8369 0.0
C1869 C 0.12892 0.22803 0.85196 0.0
C1870 C 0.10459 0.26736 0.81159 0.0
C1871 C 0.11618 0.19951 0.83458 0.0
H1872 H 0.07594 0.20809 0.77189 0.0
H1873 H 0.13577 0.21698 0.76349 0.0
H1874 H 0.07241 0.20818 0.81671 0.0
H1875 H 0.07336 0.23372 0.81761 0.0
H1876 H 0.06016 0.22187 0.79897 0.0
H1877 H 0.1556 0.22937 0.78674 0.0
H1878 H 0.14416 0.24669 0.80178 0.0
H1879 H 0.14856 0.22314 0.81055 0.0
H1880 H 0.12758 0.27521 0.84122 0.0
H1881 H 0.13618 0.21816 0.86136 0.0
H1882 H 0.09078 0.26231 0.80587 0.0
H1883 H 0.1146 0.26884 0.79947 0.0
H1884 H 0.10259 0.28165 0.81814 0.0
H1885 H 0.11831 0.19198 0.84832 0.0
H1886 H 0.12717 0.19446 0.82442 0.0
H1887 H 0.10208 0.19561 0.82872 0.0
C1888 C 0.74766 0.08962 0.7738 0.0
C1889 C 0.75149 0.10603 0.76299 0.0
C1890 C 0.74076 0.09106 0.79257 0.0
C1891 C 0.73753 0.10931 0.80059 0.0
C1892 C 0.74147 0.12586 0.78969 0.0
C1893 C 0.74831 0.12399 0.77111 0.0
C1894 C 0.73668 0.07302 0.8035 0.0
C1895 C 0.73847 0.14572 0.7976 0.0
C1896 C 0.7041 0.12857 0.83631 0.0
C1897 C 0.7173 0.13616 0.84917 0.0
C1898 C 0.71 0.11614 0.82182 0.0
C1899 C 0.72956 0.11185 0.82005 0.0
C1900 C 0.74202 0.11634 0.83525 0.0
C1901 C 0.73567 0.12851 0.84983 0.0
C1902 C 0.69598 0.11054 0.80658 0.0
C1903 C 0.7628 0.11119 0.83441 0.0
H1904 H 0.75015 0.07565 0.76767 0.0
H1905 H 0.75132 0.13674 0.76295 0.0
H1906 H 0.7391 0.07487 0.81901 0.0
H1907 H 0.72158 0.06904 0.80137 0.0
H1908 H 0.74559 0.06099 0.79833 0.0
H1909 H 0.74274 0.15702 0.7874 0.0
H1910 H 0.72326 0.14785 0.80117 0.0
H1911 H 0.74682 0.14765 0.81086 0.0
H1912 H 0.68978 0.1343 0.83601 0.0
H1913 H 0.74587 0.13424 0.85991 0.0
H1914 H 0.6991 0.09603 0.8011 0.0
H1915 H 0.69711 0.12067 0.7945 0.0
H1916 H 0.68116 0.11095 0.81199 0.0
H1917 H 0.76488 0.09696 0.8278 0.0
H1918 H 0.7693 0.11122 0.84882 0.0
H1919 H 0.77039 0.12185 0.82556 0.0
C1920 C 0.84378 0.74259 0.86177 0.0
C1921 C 0.83968 0.72304 0.86159 0.0
C1922 C 0.85503 0.75056 0.84729 0.0
C1923 C 0.86237 0.73849 0.83288 0.0
C1924 C 0.86233 0.71854 0.83583 0.0
C1925 C 0.85077 0.71095 0.8502 0.0
C1926 C 0.85586 0.77193 0.84539 0.0
C1927 C 0.87127 0.70515 0.82162 0.0
C1928 C 0.84565 0.75143 0.78337 0.0
C1929 C 0.86228 0.75785 0.77457 0.0
C1930 C 0.84566 0.74532 0.80228 0.0
C1931 C 0.86283 0.7456 0.8129 0.0
C1932 C 0.87978 0.75207 0.80415 0.0
C1933 C 0.8793 0.75815 0.78502 0.0
C1934 C 0.82714 0.7384 0.81075 0.0
C1935 C 0.8983 0.75309 0.81492 0.0
H1936 H 0.83558 0.75199 0.87088 0.0
H1937 H 0.84801 0.69574 0.8504 0.0
H1938 H 0.86957 0.77647 0.83906 0.0
H1939 H 0.84425 0.77674 0.83582 0.0
H1940 H 0.85399 0.77906 0.8594 0.0
H1941 H 0.87437 0.69107 0.82816 0.0
H1942 H 0.86129 0.70289 0.80959 0.0
H1943 H 0.88462 0.71121 0.81581 0.0
H1944 H 0.83245 0.75109 0.77541 0.0
H1945 H 0.89219 0.76333 0.77836 0.0
H1946 H 0.82355 0.74682 0.82363 0.0
H1947 H 0.82851 0.72325 0.81501 0.0
H1948 H 0.81507 0.73954 0.80061 0.0
H1949 H 0.89905 0.76695 0.82252 0.0
H1950 H 0.91066 0.75226 0.80512 0.0
H1951 H 0.89952 0.74159 0.82567 0.0
C1952 C 0.11175 0.24188 0.1248 0.0
C1953 C 0.11853 0.25473 0.13853 0.0
C1954 C 0.12428 0.23364 0.11151 0.0
C1955 C 0.14392 0.23789 0.11265 0.0
C1956 C 0.15011 0.25302 0.12449 0.0
C1957 C 0.13717 0.26161 0.13691 0.0
C1958 C 0.11675 0.21889 0.09782 0.0
C1959 C 0.1709 0.25818 0.12628 0.0
C1960 C 0.18071 0.19932 0.11584 0.0
C1961 C 0.19297 0.20433 0.10097 0.0
C1962 C 0.1635 0.2089 0.11858 0.0
C1963 C 0.15836 0.22387 0.10605 0.0
C1964 C 0.16957 0.22746 0.08972 0.0
C1965 C 0.1869 0.21772 0.08743 0.0
C1966 C 0.15167 0.20401 0.13585 0.0
C1967 C 0.16395 0.24235 0.07532 0.0
H1968 H 0.09719 0.23687 0.12552 0.0
H1969 H 0.14234 0.2721 0.14702 0.0
H1970 H 0.12631 0.21692 0.08541 0.0
H1971 H 0.11528 0.20504 0.10527 0.0
H1972 H 0.10243 0.22306 0.09264 0.0
H1973 H 0.17312 0.27123 0.13498 0.0
H1974 H 0.1787 0.24625 0.13313 0.0
H1975 H 0.17726 0.26051 0.11206 0.0
H1976 H 0.18499 0.18848 0.12597 0.0
H1977 H 0.19605 0.22127 0.07554 0.0
H1978 H 0.13685 0.20084 0.13154 0.0
H1979 H 0.15127 0.21636 0.14576 0.0
H1980 H 0.15731 0.19148 0.14369 0.0
H1981 H 0.14827 0.24362 0.07418 0.0
H1982 H 0.16989 0.23896 0.06106 0.0
H1983 H 0.16968 0.25641 0.07973 0.0
C1984 C 0.17767 0.76145 0.88195 0.0
C1985 C 0.18871 0.75798 0.86564 0.0
C1986 C 0.15827 0.75642 0.88248 0.0
C1987 C 0.1498 0.74786 0.86627 0.0
C1988 C 0.16122 0.7436 0.85016 0.0
C1989 C 0.18043 0.74865 0.8501 0.0
C1990 C 0.14689 0.76108 0.90006 0.0
C1991 C 0.15309 0.73431 0.83252 0.0
C1992 C 0.10718 0.71857 0.85633 0.0
C1993 C 0.09845 0.73084 0.84323 0.0
C1994 C 0.12252 0.72499 0.86744 0.0
C1995 C 0.12898 0.74394 0.86513 0.0
C1996 C 0.11714 0.75722 0.85563 0.0
C1997 C 0.10156 0.75048 0.84506 0.0
C1998 C 0.13382 0.7107 0.87874 0.0
C1999 C 0.12288 0.77782 0.85361 0.0
H2000 H 0.18397 0.7687 0.89404 0.0
H2001 H 0.1889 0.74571 0.83754 0.0
H2002 H 0.14108 0.77573 0.89872 0.0
H2003 H 0.13482 0.75113 0.90206 0.0
H2004 H 0.15599 0.76074 0.91299 0.0
H2005 H 0.164 0.73178 0.82137 0.0
H2006 H 0.14661 0.7204 0.83621 0.0
H2007 H 0.14186 0.74354 0.82638 0.0
H2008 H 0.10441 0.70339 0.8554 0.0
H2009 H 0.09444 0.76012 0.83532 0.0
H2010 H 0.14046 0.71748 0.89138 0.0
H2011 H 0.14534 0.70483 0.86966 0.0
H2012 H 0.12473 0.69866 0.88346 0.0
H2013 H 0.11062 0.78691 0.84953 0.0
H2014 H 0.13388 0.77902 0.84235 0.0
H2015 H 0.12906 0.78329 0.86708 0.0
C2016 C 0.2162 0.18781 0.84711 0.0
C2017 C 0.21306 0.19713 0.86445 0.0
C2018 C 0.22316 0.16917 0.84649 0.0
C2019 C 0.22718 0.15939 0.86372 0.0
C2020 C 0.22388 0.16862 0.88137 0.0
C2021 C 0.21694 0.18747 0.88153 0.0
C2022 C 0.22639 0.1601 0.82721 0.0
C2023 C 0.22794 0.15894 0.9001 0.0
C2024 C 0.2295 0.10965 0.84645 0.0
C2025 C 0.24774 0.11054 0.83855 0.0
C2026 C 0.22307 0.12436 0.85846 0.0
C2027 C 0.23536 0.13983 0.86249 0.0
C2028 C 0.25496 0.13797 0.8585 0.0
C2029 C 0.261 0.12315 0.8465 0.0
C2030 C 0.20231 0.12514 0.86363 0.0
C2031 C 0.26883 0.15352 0.86363 0.0
H2032 H 0.21319 0.1951 0.83386 0.0
H2033 H 0.21446 0.19455 0.89503 0.0
H2034 H 0.2417 0.1568 0.82539 0.0
H2035 H 0.21834 0.14656 0.82606 0.0
H2036 H 0.22194 0.16948 0.81529 0.0
H2037 H 0.21855 0.16451 0.91154 0.0
H2038 H 0.22617 0.14325 0.89918 0.0
H2039 H 0.24284 0.16195 0.90431 0.0
H2040 H 0.21928 0.09962 0.84065 0.0
H2041 H 0.27529 0.12355 0.84073 0.0
H2042 H 0.19453 0.13335 0.8526 0.0
H2043 H 0.2002 0.13239 0.87753 0.0
H2044 H 0.19607 0.11061 0.8643 0.0
H2045 H 0.26767 0.16523 0.85307 0.0
H2046 H 0.2837 0.14819 0.86351 0.0
H2047 H 0.26559 0.1595 0.87789 0.0
C2048 C 0.77937 0.22411 0.8473 0.0
C2049 C 0.77127 0.21577 0.86343 0.0
C2050 C 0.79845 0.22961 0.84706 0.0
C2051 C 0.8099 0.2268 0.86347 0.0
C2052 C 0.80163 0.21906 0.88015 0.0
C2053 C 0.78237 0.21357 0.87992 0.0
C2054 C 0.80638 0.23797 0.82888 0.0
C2055 C 0.81302 0.21582 0.89806 0.0
C2056 C 0.858 0.22447 0.84241 0.0
C2057 C 0.8603 0.24402 0.83907 0.0
C2058 C 0.84287 0.21795 0.85368 0.0
C2059 C 0.83053 0.23144 0.86217 0.0
C2060 C 0.83608 0.25081 0.86285 0.0
C2061 C 0.85079 0.25702 0.85087 0.0
C2062 C 0.83804 0.19702 0.85341 0.0
C2063 C 0.82435 0.26539 0.87334 0.0
H2064 H 0.77083 0.22605 0.8346 0.0
H2065 H 0.77621 0.20706 0.89247 0.0
H2066 H 0.81187 0.25254 0.83158 0.0
H2067 H 0.81835 0.2291 0.82364 0.0
H2068 H 0.79558 0.23887 0.81738 0.0
H2069 H 0.80402 0.21795 0.91088 0.0
H2070 H 0.8181 0.20084 0.89827 0.0
H2071 H 0.82554 0.22538 0.89902 0.0
H2072 H 0.8656 0.21435 0.83352 0.0
H2073 H 0.85282 0.27218 0.84864 0.0
H2074 H 0.82679 0.1944 0.84263 0.0
H2075 H 0.83251 0.19242 0.86745 0.0
H2076 H 0.85059 0.18816 0.84967 0.0
H2077 H 0.81237 0.27001 0.86415 0.0
H2078 H 0.83296 0.27815 0.87698 0.0
H2079 H 0.81832 0.25925 0.88659 0.0
C2080 C 0.7321 0.85847 0.84103 0.0
C2081 C 0.71449 0.85497 0.83238 0.0
C2082 C 0.74014 0.84481 0.85326 0.0
C2083 C 0.7303 0.82751 0.85649 0.0
C2084 C 0.71098 0.82606 0.85114 0.0
C2085 C 0.70324 0.83992 0.83907 0.0
C2086 C 0.76026 0.84751 0.86006 0.0
C2087 C 0.69959 0.80833 0.85522 0.0
C2088 C 0.75741 0.78271 0.84398 0.0
C2089 C 0.75901 0.77351 0.86158 0.0
C2090 C 0.74861 0.8005 0.84241 0.0
C2091 C 0.74135 0.80959 0.85894 0.0
C2092 C 0.74358 0.80077 0.87693 0.0
C2093 C 0.75223 0.7827 0.87801 0.0
C2094 C 0.74667 0.80927 0.82283 0.0
C2095 C 0.73651 0.80997 0.89502 0.0
H2096 H 0.74071 0.87035 0.83626 0.0
H2097 H 0.68935 0.83753 0.83282 0.0
H2098 H 0.76243 0.84067 0.87414 0.0
H2099 H 0.77016 0.84074 0.84977 0.0
H2100 H 0.76394 0.86288 0.86113 0.0
H2101 H 0.68411 0.81082 0.85332 0.0
H2102 H 0.70403 0.79683 0.8453 0.0
H2103 H 0.7022 0.8033 0.86995 0.0
H2104 H 0.76271 0.77581 0.83122 0.0
H2105 H 0.75361 0.77578 0.89174 0.0
H2106 H 0.75376 0.82338 0.82249 0.0
H2107 H 0.73144 0.81149 0.81937 0.0
H2108 H 0.75303 0.80024 0.81149 0.0
H2109 H 0.73578 0.82573 0.89387 0.0
H2110 H 0.74579 0.80618 0.90724 0.0
H2111 H 0.72206 0.80454 0.89822 0.0
C2112 C 0.77681 0.74614 0.12153 0.0
C2113 C 0.76822 0.75289 0.10488 0.0
C2114 C 0.79569 0.7399 0.12154 0.0
C2115 C 0.8064 0.7404 0.10441 0.0
C2116 C 0.7977 0.74674 0.08739 0.0
C2117 C 0.77863 0.75276 0.08781 0.0
C2118 C 0.80428 0.73316 0.1401 0.0
C2119 C 0.80829 0.74724 0.06873 0.0
C2120 C 0.85621 0.74123 0.12183 0.0
C2121 C 0.85809 0.72176 0.12578 0.0
C2122 C 0.84038 0.74788 0.11163 0.0
C2123 C 0.82672 0.73458 0.10507 0.0
C2124 C 0.83121 0.71494 0.10508 0.0
C2125 C 0.84695 0.70868 0.11561 0.0
C2126 C 0.83662 0.76902 0.11093 0.0
C2127 C 0.81768 0.70039 0.09697 0.0
H2128 H 0.76887 0.7461 0.13475 0.0
H2129 H 0.77207 0.75785 0.07481 0.0
H2130 H 0.80937 0.71826 0.1386 0.0
H2131 H 0.81669 0.74216 0.14389 0.0
H2132 H 0.79399 0.73369 0.15208 0.0
H2133 H 0.80261 0.75857 0.05927 0.0
H2134 H 0.82374 0.74962 0.07072 0.0
H2135 H 0.80637 0.73337 0.06135 0.0
H2136 H 0.86503 0.7514 0.12942 0.0
H2137 H 0.84868 0.69356 0.11833 0.0
H2138 H 0.827 0.77299 0.12282 0.0
H2139 H 0.82955 0.77303 0.09739 0.0
H2140 H 0.84997 0.77734 0.11245 0.0
H2141 H 0.80609 0.69776 0.10735 0.0
H2142 H 0.82497 0.68663 0.0941 0.0
H2143 H 0.81116 0.70567 0.08359 0.0
C2144 C 0.20036 0.78462 0.12174 0.0
C2145 C 0.20186 0.77439 0.10467 0.0
C2146 C 0.20959 0.80211 0.12418 0.0
C2147 C 0.22049 0.80978 0.10905 0.0
C2148 C 0.22085 0.80028 0.09124 0.0
C2149 C 0.21166 0.78256 0.0893 0.0
C2150 C 0.20854 0.81176 0.14344 0.0
C2151 C 0.23158 0.80825 0.07446 0.0
C2152 C 0.23507 0.85809 0.12658 0.0
C2153 C 0.25146 0.85297 0.13675 0.0
C2154 C 0.22609 0.84481 0.11453 0.0
C2155 C 0.23342 0.82603 0.11327 0.0
C2156 C 0.25156 0.822 0.12097 0.0
C2157 C 0.26056 0.83572 0.13229 0.0
C2158 C 0.2076 0.85015 0.10512 0.0
C2159 C 0.26012 0.80228 0.1198 0.0
H2160 H 0.19248 0.77864 0.13357 0.0
H2161 H 0.21262 0.77491 0.0759 0.0
H2162 H 0.22296 0.81275 0.14975 0.0
H2163 H 0.203 0.82647 0.14189 0.0
H2164 H 0.19922 0.804 0.15356 0.0
H2165 H 0.22484 0.80386 0.06084 0.0
H2166 H 0.23236 0.82405 0.07496 0.0
H2167 H 0.24628 0.80254 0.07451 0.0
H2168 H 0.22818 0.87161 0.12948 0.0
H2169 H 0.27361 0.83193 0.13958 0.0
H2170 H 0.19563 0.84657 0.11474 0.0
H2171 H 0.20559 0.84221 0.09158 0.0
H2172 H 0.207 0.8657 0.10219 0.0
H2173 H 0.2519 0.79243 0.12901 0.0
H2174 H 0.27518 0.80208 0.12456 0.0
H2175 H 0.25941 0.79673 0.10505 0.0
C2176 C 0.71688 0.12883 0.13275 0.0
C2177 C 0.73277 0.1188 0.13933 0.0
C2178 C 0.71914 0.14496 0.12116 0.0
C2179 C 0.73769 0.15082 0.11601 0.0
C2180 C 0.75342 0.139 0.12034 0.0
C2181 C 0.75078 0.12319 0.1322 0.0
C2182 C 0.70197 0.15703 0.11667 0.0
C2183 C 0.77339 0.1444 0.11466 0.0
C2184 C 0.74745 0.19409 0.08515 0.0
C2185 C 0.75186 0.20791 0.09896 0.0
C2186 C 0.74209 0.17556 0.09039 0.0
C2187 C 0.74115 0.17079 0.1099 0.0
C2188 C 0.74481 0.18492 0.1239 0.0
C2189 C 0.7501 0.20333 0.11825 0.0
C2190 C 0.73829 0.16093 0.07507 0.0
C2191 C 0.74391 0.18041 0.14491 0.0
H2192 H 0.70298 0.12555 0.13854 0.0
H2193 H 0.76305 0.11547 0.13749 0.0
H2194 H 0.70123 0.16904 0.12694 0.0
H2195 H 0.70295 0.16318 0.10217 0.0
H2196 H 0.6886 0.14869 0.1178 0.0
H2197 H 0.78327 0.1321 0.11573 0.0
H2198 H 0.77375 0.14995 0.09989 0.0
H2199 H 0.77861 0.15586 0.12424 0.0
H2200 H 0.74876 0.19755 0.07017 0.0
H2201 H 0.75352 0.21393 0.12897 0.0
H2202 H 0.72491 0.15313 0.07802 0.0
H2203 H 0.74994 0.15027 0.07492 0.0
H2204 H 0.73732 0.16747 0.06071 0.0
H2205 H 0.72994 0.17402 0.14851 0.0
H2206 H 0.74607 0.19325 0.15393 0.0
H2207 H 0.75502 0.16979 0.14855 0.0
C2208 C 0.61924 0.62038 0.75912 0.0
C2209 C 0.62963 0.60792 0.74749 0.0
C2210 C 0.6078 0.63457 0.75101 0.0
C2211 C 0.60708 0.6362 0.73095 0.0
C2212 C 0.61393 0.621 0.71958 0.0
C2213 C 0.62518 0.60681 0.72807 0.0
C2214 C 0.59966 0.64983 0.76376 0.0
C2215 C 0.61241 0.62158 0.69818 0.0
C2216 C 0.58824 0.68252 0.7095 0.0
C2217 C 0.60506 0.69319 0.70807 0.0
C2218 C 0.58847 0.66377 0.71664 0.0
C2219 C 0.60593 0.65564 0.72255 0.0
C2220 C 0.62292 0.66645 0.7211 0.0
C2221 C 0.62224 0.68498 0.71383 0.0
C2222 C 0.57015 0.65264 0.71735 0.0
C2223 C 0.64195 0.65858 0.72736 0.0
H2224 H 0.62231 0.62092 0.77425 0.0
H2225 H 0.63289 0.59691 0.71904 0.0
H2226 H 0.60985 0.66188 0.76466 0.0
H2227 H 0.58608 0.6554 0.75798 0.0
H2228 H 0.59721 0.64437 0.77839 0.0
H2229 H 0.61388 0.60711 0.6919 0.0
H2230 H 0.59863 0.62781 0.69369 0.0
H2231 H 0.62395 0.63067 0.69242 0.0
H2232 H 0.57493 0.68871 0.7048 0.0
H2233 H 0.63529 0.69313 0.71281 0.0
H2234 H 0.56951 0.64323 0.73001 0.0
H2235 H 0.56921 0.64344 0.70452 0.0
H2236 H 0.55759 0.66223 0.71744 0.0
H2237 H 0.64145 0.65472 0.74265 0.0
H2238 H 0.65371 0.66893 0.72529 0.0
H2239 H 0.64537 0.64549 0.71917 0.0
C2240 C 0.28408 0.58575 0.70692 0.0
C2241 C 0.2734 0.6026 0.70859 0.0
C2242 C 0.30345 0.58531 0.71212 0.0
C2243 C 0.31224 0.60216 0.71895 0.0
C2244 C 0.30121 0.61896 0.72122 0.0
C2245 C 0.28204 0.6189 0.71611 0.0
C2246 C 0.31444 0.56704 0.70949 0.0
C2247 C 0.3097 0.63739 0.72842 0.0
C2248 C 0.35417 0.61439 0.74819 0.0
C2249 C 0.3634 0.62601 0.7349 0.0
C2250 C 0.33888 0.6028 0.74252 0.0
C2251 C 0.33298 0.60316 0.72326 0.0
C2252 C 0.34532 0.61105 0.70944 0.0
C2253 C 0.36076 0.6222 0.71549 0.0
C2254 C 0.32697 0.59329 0.75757 0.0
C2255 C 0.34022 0.61086 0.6886 0.0
H2256 H 0.27751 0.57306 0.70103 0.0
H2257 H 0.27387 0.63193 0.71761 0.0
H2258 H 0.3205 0.56673 0.69491 0.0
H2259 H 0.32632 0.56579 0.7198 0.0
H2260 H 0.30502 0.55442 0.71099 0.0
H2261 H 0.29902 0.64899 0.72968 0.0
H2262 H 0.31619 0.6352 0.74263 0.0
H2263 H 0.32095 0.64222 0.71848 0.0
H2264 H 0.35652 0.6169 0.76325 0.0
H2265 H 0.36825 0.63084 0.70511 0.0
H2266 H 0.32035 0.58004 0.752 0.0
H2267 H 0.31541 0.60312 0.76199 0.0
H2268 H 0.3356 0.5898 0.77035 0.0
H2269 H 0.33385 0.597 0.68447 0.0
H2270 H 0.35286 0.6136 0.67953 0.0
H2271 H 0.32958 0.62221 0.68577 0.0
C2272 C 0.34669 0.27578 0.7276 0.0
C2273 C 0.36346 0.2683 0.71991 0.0
C2274 C 0.34555 0.29484 0.7334 0.0
C2275 C 0.36173 0.30682 0.73182 0.0
C2276 C 0.37911 0.29907 0.7252 0.0
C2277 C 0.37973 0.2799 0.71918 0.0
C2278 C 0.32661 0.3023 0.74037 0.0
C2279 C 0.39689 0.31096 0.72358 0.0
C2280 C 0.34062 0.35509 0.72663 0.0
C2281 C 0.33568 0.35812 0.7457 0.0
C2282 C 0.35219 0.33959 0.72153 0.0
C2283 C 0.35941 0.32755 0.736 0.0
C2284 C 0.35823 0.33357 0.7552 0.0
C2285 C 0.34592 0.34862 0.75993 0.0
C2286 C 0.35373 0.33421 0.70079 0.0
C2287 C 0.36731 0.32217 0.77092 0.0
H2288 H 0.33411 0.26691 0.72838 0.0
H2289 H 0.39282 0.27427 0.71328 0.0
H2290 H 0.32802 0.30786 0.75508 0.0
H2291 H 0.32177 0.31421 0.73118 0.0
H2292 H 0.31539 0.29116 0.74036 0.0
H2293 H 0.40972 0.30217 0.72639 0.0
H2294 H 0.3981 0.31644 0.70882 0.0
H2295 H 0.39682 0.32328 0.73351 0.0
H2296 H 0.33283 0.36258 0.71559 0.0
H2297 H 0.34234 0.35112 0.77474 0.0
H2298 H 0.34357 0.32251 0.69765 0.0
H2299 H 0.36822 0.32898 0.69745 0.0
H2300 H 0.35036 0.34643 0.69133 0.0
H2301 H 0.35779 0.31021 0.7749 0.0
H2302 H 0.3697 0.3311 0.78377 0.0
H2303 H 0.38107 0.31604 0.76619 0.0
C2304 C 0.62773 0.33707 0.76105 0.0
C2305 C 0.61365 0.33029 0.74868 0.0
C2306 C 0.64167 0.34972 0.7545 0.0
C2307 C 0.6415 0.35523 0.73514 0.0
C2308 C 0.62508 0.35168 0.72402 0.0
C2309 C 0.61119 0.3391 0.73097 0.0
C2310 C 0.65833 0.3542 0.76724 0.0
C2311 C 0.62379 0.35839 0.70369 0.0
C2312 C 0.68709 0.37746 0.7159 0.0
C2313 C 0.69708 0.36109 0.71015 0.0
C2314 C 0.66859 0.3761 0.72342 0.0
C2315 C 0.66008 0.35791 0.72542 0.0
C2316 C 0.67 0.34144 0.71917 0.0
C2317 C 0.68827 0.34326 0.71164 0.0
C2318 C 0.65858 0.39409 0.72959 0.0
C2319 C 0.66155 0.32166 0.72077 0.0
H2320 H 0.62939 0.3305 0.77492 0.0
H2321 H 0.60012 0.33408 0.72146 0.0
H2322 H 0.67018 0.34429 0.76392 0.0
H2323 H 0.66343 0.36895 0.76481 0.0
H2324 H 0.6546 0.35253 0.78252 0.0
H2325 H 0.60877 0.35915 0.69886 0.0
H2326 H 0.6305 0.3726 0.70199 0.0
H2327 H 0.63142 0.34817 0.69435 0.0
H2328 H 0.69371 0.39135 0.71461 0.0
H2329 H 0.69577 0.33055 0.70706 0.0
H2330 H 0.66252 0.39734 0.74454 0.0
H2331 H 0.6429 0.3927 0.72881 0.0
H2332 H 0.66304 0.4064 0.72071 0.0
H2333 H 0.65871 0.31825 0.73592 0.0
H2334 H 0.67105 0.31046 0.71489 0.0
H2335 H 0.64783 0.32098 0.71301 0.0
C2336 C 0.64067 0.35441 0.2393 0.0
C2337 C 0.63413 0.35954 0.22118 0.0
C2338 C 0.63416 0.33769 0.24811 0.0
C2339 C 0.62053 0.32619 0.23867 0.0
C2340 C 0.61245 0.33249 0.22132 0.0
C2341 C 0.61959 0.34898 0.21263 0.0
C2342 C 0.6433 0.33141 0.26651 0.0
C2343 C 0.59762 0.32086 0.21099 0.0
C2344 C 0.62613 0.27287 0.24541 0.0
C2345 C 0.61135 0.26874 0.25807 0.0
C2346 C 0.62895 0.29147 0.23871 0.0
C2347 C 0.617 0.30638 0.24526 0.0
C2348 C 0.60198 0.30227 0.25797 0.0
C2349 C 0.59918 0.28341 0.26406 0.0
C2350 C 0.64489 0.2952 0.2248 0.0
C2351 C 0.58925 0.31784 0.26557 0.0
H2352 H 0.65216 0.36244 0.24578 0.0
H2353 H 0.61471 0.3529 0.19852 0.0
H2354 H 0.63243 0.32607 0.27661 0.0
H2355 H 0.6533 0.31953 0.26358 0.0
H2356 H 0.65138 0.34315 0.27341 0.0
H2357 H 0.59061 0.32916 0.1995 0.0
H2358 H 0.60445 0.30815 0.20452 0.0
H2359 H 0.58659 0.31572 0.22101 0.0
H2360 H 0.63552 0.26152 0.24076 0.0
H2361 H 0.58791 0.28027 0.27409 0.0
H2362 H 0.65524 0.30532 0.2311 0.0
H2363 H 0.63917 0.30188 0.21168 0.0
H2364 H 0.65255 0.28195 0.22075 0.0
H2365 H 0.59776 0.32792 0.27427 0.0
H2366 H 0.57755 0.31214 0.27452 0.0
H2367 H 0.58299 0.32611 0.25366 0.0
C2368 C 0.68163 0.5912 0.26094 0.0
C2369 C 0.69704 0.59655 0.24953 0.0
C2370 C 0.66291 0.5952 0.25517 0.0
C2371 C 0.65977 0.60452 0.23756 0.0
C2372 C 0.67521 0.60731 0.22494 0.0
C2373 C 0.69374 0.60363 0.23124 0.0
C2374 C 0.64687 0.59171 0.26895 0.0
C2375 C 0.67247 0.61657 0.20575 0.0
C2376 C 0.61223 0.62153 0.21789 0.0
C2377 C 0.61314 0.64088 0.22275 0.0
C2378 C 0.62672 0.60889 0.22367 0.0
C2379 C 0.6422 0.61593 0.23455 0.0
C2380 C 0.64216 0.63517 0.24072 0.0
C2381 C 0.6277 0.64736 0.23466 0.0
C2382 C 0.62605 0.58845 0.21705 0.0
C2383 C 0.65809 0.64333 0.25267 0.0
H2384 H 0.68425 0.58576 0.27515 0.0
H2385 H 0.70572 0.60765 0.22242 0.0
H2386 H 0.64394 0.60501 0.277 0.0
H2387 H 0.63366 0.58763 0.26135 0.0
H2388 H 0.65054 0.58036 0.27935 0.0
H2389 H 0.685 0.61442 0.19637 0.0
H2390 H 0.6597 0.61079 0.19852 0.0
H2391 H 0.67033 0.63213 0.20772 0.0
H2392 H 0.60088 0.61653 0.20873 0.0
H2393 H 0.62812 0.66224 0.23877 0.0
H2394 H 0.63192 0.57867 0.22797 0.0
H2395 H 0.63481 0.58691 0.20401 0.0
H2396 H 0.61131 0.58399 0.21356 0.0
H2397 H 0.66069 0.63426 0.26532 0.0
H2398 H 0.65499 0.65806 0.25763 0.0
H2399 H 0.67139 0.64366 0.2442 0.0
C2400 C 0.34343 0.60975 0.23803 0.0
C2401 C 0.33742 0.61092 0.21905 0.0
C2402 C 0.35472 0.6243 0.24588 0.0
C2403 C 0.36013 0.63985 0.23426 0.0
C2404 C 0.35805 0.63831 0.21428 0.0
C2405 C 0.34651 0.62379 0.20684 0.0
C2406 C 0.35768 0.62481 0.26713 0.0
C2407 C 0.36475 0.65392 0.20119 0.0
C2408 C 0.34381 0.68766 0.25316 0.0
C2409 C 0.36086 0.69641 0.2585 0.0
C2410 C 0.34357 0.66933 0.24536 0.0
C2411 C 0.36091 0.65928 0.24282 0.0
C2412 C 0.37827 0.66803 0.24808 0.0
C2413 C 0.37804 0.68655 0.25588 0.0
C2414 C 0.3246 0.66078 0.23986 0.0
C2415 C 0.39703 0.65781 0.24606 0.0
H2416 H 0.33672 0.59955 0.24747 0.0
H2417 H 0.34222 0.62442 0.19202 0.0
H2418 H 0.37152 0.63146 0.27074 0.0
H2419 H 0.34626 0.6335 0.27376 0.0
H2420 H 0.35711 0.61027 0.27335 0.0
H2421 H 0.3665 0.64859 0.18639 0.0
H2422 H 0.35404 0.66555 0.20102 0.0
H2423 H 0.37843 0.66001 0.20617 0.0
H2424 H 0.33049 0.69519 0.25509 0.0
H2425 H 0.39129 0.69315 0.26024 0.0
H2426 H 0.32224 0.64727 0.24769 0.0
H2427 H 0.32441 0.65749 0.22441 0.0
H2428 H 0.31251 0.67048 0.24298 0.0
H2429 H 0.39931 0.6487 0.25876 0.0
H2430 H 0.40906 0.66802 0.2452 0.0
H2431 H 0.39729 0.64845 0.23332 0.0
C2432 C 0.35586 0.34105 0.24273 0.0
C2433 C 0.35641 0.33927 0.22285 0.0
C2434 C 0.34028 0.34984 0.25164 0.0
C2435 C 0.32542 0.35731 0.24027 0.0
C2436 C 0.32822 0.35925 0.22041 0.0
C2437 C 0.34374 0.35006 0.21186 0.0
C2438 C 0.33822 0.34814 0.27293 0.0
C2439 C 0.31323 0.36807 0.20785 0.0
C2440 C 0.27658 0.33953 0.25422 0.0
C2441 C 0.26824 0.35575 0.26231 0.0
C2442 C 0.29507 0.34007 0.24691 0.0
C2443 C 0.30566 0.35726 0.24784 0.0
C2444 C 0.29728 0.37379 0.25583 0.0
C2445 C 0.27861 0.37285 0.26294 0.0
C2446 C 0.30326 0.32208 0.23828 0.0
C2447 C 0.30809 0.39228 0.25748 0.0
H2448 H 0.36578 0.33295 0.25135 0.0
H2449 H 0.34435 0.349 0.19646 0.0
H2450 H 0.33104 0.36086 0.27897 0.0
H2451 H 0.32937 0.33547 0.27627 0.0
H2452 H 0.35223 0.34632 0.27999 0.0
H2453 H 0.31928 0.37265 0.19399 0.0
H2454 H 0.30195 0.35738 0.20501 0.0
H2455 H 0.30653 0.38053 0.21491 0.0
H2456 H 0.26861 0.32633 0.25354 0.0
H2457 H 0.27229 0.38541 0.26935 0.0
H2458 H 0.31618 0.3177 0.2462 0.0
H2459 H 0.30748 0.32471 0.22329 0.0
H2460 H 0.29303 0.31002 0.23848 0.0
H2461 H 0.31744 0.39166 0.27018 0.0
H2462 H 0.29836 0.40464 0.2592 0.0
H2463 H 0.31725 0.39474 0.24487 0.0
C2464 C 0.71089 0.62562 0.69123 0.0
C2465 C 0.71149 0.60783 0.70025 0.0
C2466 C 0.71889 0.6283 0.67323 0.0
C2467 C 0.72785 0.6128 0.66384 0.0
C2468 C 0.72804 0.5946 0.67256 0.0
C2469 C 0.71989 0.59234 0.69073 0.0
C2470 C 0.71808 0.64798 0.66447 0.0
C2471 C 0.73723 0.5776 0.66314 0.0
C2472 C 0.73388 0.63064 0.61423 0.0
C2473 C 0.75048 0.64134 0.61694 0.0
C2474 C 0.72754 0.61813 0.62852 0.0
C2475 C 0.73804 0.61664 0.64567 0.0
C2476 C 0.75652 0.62449 0.64662 0.0
C2477 C 0.76255 0.63681 0.63216 0.0
C2478 C 0.70832 0.60891 0.62647 0.0
C2479 C 0.76858 0.62253 0.66426 0.0
H2480 H 0.70419 0.63761 0.69831 0.0
H2481 H 0.72026 0.57848 0.69752 0.0
H2482 H 0.73268 0.65348 0.66219 0.0
H2483 H 0.71095 0.64735 0.6504 0.0
H2484 H 0.71028 0.65836 0.67353 0.0
H2485 H 0.73024 0.56413 0.6676 0.0
H2486 H 0.73676 0.57858 0.64738 0.0
H2487 H 0.75233 0.57683 0.66758 0.0
H2488 H 0.72463 0.63386 0.60231 0.0
H2489 H 0.77563 0.64477 0.63403 0.0
H2490 H 0.69744 0.61809 0.63333 0.0
H2491 H 0.70803 0.5948 0.63359 0.0
H2492 H 0.7044 0.60709 0.61125 0.0
H2493 H 0.7631 0.63228 0.67546 0.0
H2494 H 0.78367 0.62625 0.66145 0.0
H2495 H 0.76791 0.60778 0.66988 0.0
C2496 C 0.34418 0.72115 0.68742 0.0
C2497 C 0.36122 0.71397 0.69479 0.0
C2498 C 0.34309 0.72819 0.66886 0.0
C2499 C 0.35958 0.72831 0.65723 0.0
C2500 C 0.3771 0.72187 0.66481 0.0
C2501 C 0.3777 0.71466 0.68352 0.0
C2502 C 0.32402 0.73503 0.66161 0.0
C2503 C 0.39508 0.72184 0.65313 0.0
C2504 C 0.33881 0.72831 0.60874 0.0
C2505 C 0.33377 0.74761 0.60797 0.0
C2506 C 0.35057 0.7216 0.62345 0.0
C2507 C 0.3576 0.7347 0.63711 0.0
C2508 C 0.35623 0.75447 0.63343 0.0
C2509 C 0.34393 0.76077 0.61902 0.0
C2510 C 0.35243 0.70039 0.62632 0.0
C2511 C 0.36487 0.76891 0.64677 0.0
H2512 H 0.33142 0.72084 0.69606 0.0
H2513 H 0.39094 0.70907 0.68908 0.0
H2514 H 0.32492 0.75025 0.65748 0.0
H2515 H 0.3198 0.72676 0.64881 0.0
H2516 H 0.31259 0.73358 0.67241 0.0
H2517 H 0.4078 0.72344 0.66237 0.0
H2518 H 0.39633 0.70798 0.64561 0.0
H2519 H 0.39513 0.73335 0.64232 0.0
H2520 H 0.33112 0.71811 0.60003 0.0
H2521 H 0.34029 0.77577 0.6182 0.0
H2522 H 0.34177 0.69566 0.63697 0.0
H2523 H 0.36673 0.69672 0.63184 0.0
H2524 H 0.34989 0.69243 0.61287 0.0
H2525 H 0.35513 0.77126 0.65897 0.0
H2526 H 0.36708 0.7828 0.63952 0.0
H2527 H 0.37866 0.76375 0.65246 0.0
C2528 C 0.2467 0.34901 0.68492 0.0
C2529 C 0.25662 0.36455 0.6925 0.0
C2530 C 0.24108 0.3487 0.66582 0.0
C2531 C 0.24564 0.3643 0.65382 0.0
C2532 C 0.25537 0.38025 0.66145 0.0
C2533 C 0.26069 0.38022 0.68078 0.0
C2534 C 0.23045 0.33144 0.65848 0.0
C2535 C 0.26073 0.39701 0.64914 0.0
C2536 C 0.24335 0.34335 0.6051 0.0
C2537 C 0.22358 0.3438 0.60272 0.0
C2538 C 0.25181 0.35263 0.62068 0.0
C2539 C 0.24021 0.36321 0.63334 0.0
C2540 C 0.22123 0.36735 0.62811 0.0
C2541 C 0.21302 0.35741 0.61281 0.0
C2542 C 0.27222 0.3481 0.62543 0.0
C2543 C 0.20863 0.37943 0.6406 0.0
H2544 H 0.2434 0.33694 0.69395 0.0
H2545 H 0.26854 0.3922 0.68657 0.0
H2546 H 0.21645 0.33582 0.65268 0.0
H2547 H 0.23855 0.32461 0.64677 0.0
H2548 H 0.22799 0.32062 0.66975 0.0
H2549 H 0.2648 0.40963 0.65781 0.0
H2550 H 0.27302 0.39305 0.64008 0.0
H2551 H 0.24888 0.40102 0.63953 0.0
H2552 H 0.25164 0.33301 0.59714 0.0
H2553 H 0.19776 0.35804 0.61077 0.0
H2554 H 0.27261 0.33598 0.63558 0.0
H2555 H 0.27933 0.36042 0.63229 0.0
H2556 H 0.28034 0.34391 0.61252 0.0
H2557 H 0.20287 0.3705 0.65229 0.0
H2558 H 0.19646 0.38532 0.63242 0.0
H2559 H 0.21669 0.39136 0.64711 0.0
C2560 C 0.62325 0.24508 0.6065 0.0
C2561 C 0.62481 0.22544 0.60317 0.0
C2562 C 0.61224 0.25187 0.62174 0.0
C2563 C 0.60206 0.23867 0.63305 0.0
C2564 C 0.59983 0.21975 0.62641 0.0
C2565 C 0.61166 0.21315 0.61171 0.0
C2566 C 0.61447 0.27237 0.62782 0.0
C2567 C 0.58764 0.20566 0.63701 0.0
C2568 C 0.61511 0.24246 0.68517 0.0
C2569 C 0.59951 0.25205 0.69295 0.0
C2570 C 0.6157 0.23762 0.66587 0.0
C2571 C 0.6002 0.24246 0.65385 0.0
C2572 C 0.58397 0.25145 0.66176 0.0
C2573 C 0.58383 0.25617 0.68127 0.0
C2574 C 0.63331 0.22782 0.65831 0.0
C2575 C 0.56707 0.25685 0.6497 0.0
H2576 H 0.63325 0.25468 0.5997 0.0
H2577 H 0.61255 0.19797 0.60889 0.0
H2578 H 0.60084 0.27814 0.63325 0.0
H2579 H 0.62506 0.2732 0.63952 0.0
H2580 H 0.61951 0.28147 0.61591 0.0
H2581 H 0.58315 0.19378 0.62756 0.0
H2582 H 0.59592 0.19955 0.64899 0.0
H2583 H 0.57484 0.21272 0.64299 0.0
H2584 H 0.62716 0.23903 0.69416 0.0
H2585 H 0.57172 0.26368 0.68719 0.0
H2586 H 0.63991 0.2366 0.64698 0.0
H2587 H 0.6295 0.21383 0.65201 0.0
H2588 H 0.64412 0.22533 0.66957 0.0
H2589 H 0.56898 0.27163 0.64445 0.0
H2590 H 0.55377 0.25655 0.65821 0.0
H2591 H 0.5654 0.2473 0.6372 0.0
C2592 C 0.70584 0.33805 0.26642 0.0
C2593 C 0.70509 0.3561 0.258 0.0
C2594 C 0.71447 0.3354 0.2842 0.0
C2595 C 0.72254 0.35122 0.2939 0.0
C2596 C 0.7219 0.36951 0.28549 0.0
C2597 C 0.71315 0.37173 0.26766 0.0
C2598 C 0.71495 0.31557 0.29259 0.0
C2599 C 0.73004 0.3868 0.29539 0.0
C2600 C 0.7279 0.33567 0.34459 0.0
C2601 C 0.74537 0.32623 0.34315 0.0
C2602 C 0.7211 0.34662 0.3293 0.0
C2603 C 0.73212 0.34797 0.31248 0.0
C2604 C 0.7511 0.34135 0.31253 0.0
C2605 C 0.7575 0.33044 0.32793 0.0
C2606 C 0.70111 0.35432 0.33011 0.0
C2607 C 0.76365 0.34319 0.29522 0.0
H2608 H 0.69957 0.32593 0.25916 0.0
H2609 H 0.71254 0.38582 0.26137 0.0
H2610 H 0.72988 0.31109 0.295 0.0
H2611 H 0.70765 0.31549 0.30659 0.0
H2612 H 0.70799 0.30486 0.28324 0.0
H2613 H 0.7322 0.39886 0.28537 0.0
H2614 H 0.72003 0.39157 0.30664 0.0
H2615 H 0.74377 0.38347 0.30239 0.0
H2616 H 0.71855 0.33251 0.35644 0.0
H2617 H 0.77115 0.3233 0.32698 0.0
H2618 H 0.69141 0.34431 0.32266 0.0
H2619 H 0.70015 0.36832 0.32285 0.0
H2620 H 0.69612 0.35594 0.34503 0.0
H2621 H 0.75951 0.33222 0.28459 0.0
H2622 H 0.77887 0.34106 0.29885 0.0
H2623 H 0.76193 0.35738 0.28848 0.0
C2624 C 0.59 0.70974 0.27396 0.0
C2625 C 0.60638 0.71139 0.26264 0.0
C2626 C 0.58997 0.71576 0.29312 0.0
C2627 C 0.60673 0.7236 0.30109 0.0
C2628 C 0.62298 0.72611 0.28942 0.0
C2629 C 0.62255 0.72005 0.27044 0.0
C2630 C 0.57224 0.7129 0.30482 0.0
C2631 C 0.64119 0.73467 0.29708 0.0
C2632 C 0.61782 0.75476 0.34237 0.0
C2633 C 0.62941 0.7422 0.35265 0.0
C2634 C 0.60689 0.74814 0.32699 0.0
C2635 C 0.6082 0.72873 0.32166 0.0
C2636 C 0.61673 0.7156 0.33437 0.0
C2637 C 0.6271 0.72254 0.35001 0.0
C2638 C 0.59673 0.7624 0.3146 0.0
C2639 C 0.61781 0.69465 0.32966 0.0
H2640 H 0.57737 0.70321 0.2681 0.0
H2641 H 0.63521 0.72169 0.26181 0.0
H2642 H 0.57262 0.69848 0.31127 0.0
H2643 H 0.57102 0.72352 0.31647 0.0
H2644 H 0.55931 0.71375 0.29577 0.0
H2645 H 0.65249 0.73558 0.28609 0.0
H2646 H 0.63846 0.74925 0.30258 0.0
H2647 H 0.64662 0.72595 0.30907 0.0
H2648 H 0.61939 0.76999 0.34456 0.0
H2649 H 0.63595 0.71277 0.35805 0.0
H2650 H 0.58371 0.75608 0.30828 0.0
H2651 H 0.60624 0.76676 0.30278 0.0
H2652 H 0.59279 0.77536 0.32281 0.0
H2653 H 0.62131 0.68599 0.34242 0.0
H2654 H 0.62909 0.69231 0.31885 0.0
H2655 H 0.60419 0.68956 0.32356 0.0
C2656 C 0.23467 0.62399 0.35885 0.0
C2657 C 0.21658 0.63172 0.35578 0.0
C2658 C 0.24261 0.61149 0.34535 0.0
C2659 C 0.23209 0.60703 0.32875 0.0
C2660 C 0.21238 0.61099 0.32834 0.0
C2661 C 0.20478 0.62341 0.34201 0.0
C2662 C 0.26327 0.60614 0.34705 0.0
C2663 C 0.20026 0.60547 0.31151 0.0
C2664 C 0.25556 0.62215 0.28281 0.0
C2665 C 0.2587 0.60478 0.27352 0.0
C2666 C 0.24741 0.62285 0.30091 0.0
C2667 C 0.24226 0.60565 0.31021 0.0
C2668 C 0.2458 0.58795 0.30116 0.0
C2669 C 0.25401 0.58772 0.28286 0.0
C2670 C 0.24388 0.64222 0.30978 0.0
C2671 C 0.24131 0.56926 0.31076 0.0
H2672 H 0.24372 0.63007 0.36979 0.0
H2673 H 0.19057 0.62905 0.33996 0.0
H2674 H 0.26596 0.59195 0.34059 0.0
H2675 H 0.27202 0.6168 0.33934 0.0
H2676 H 0.2679 0.60597 0.36217 0.0
H2677 H 0.18493 0.60545 0.31527 0.0
H2678 H 0.20246 0.61595 0.29988 0.0
H2679 H 0.20424 0.59117 0.30605 0.0
H2680 H 0.25922 0.6354 0.27578 0.0
H2681 H 0.2567 0.57418 0.27588 0.0
H2682 H 0.25118 0.64327 0.32373 0.0
H2683 H 0.22845 0.64426 0.31222 0.0
H2684 H 0.24899 0.6541 0.30069 0.0
H2685 H 0.25325 0.56544 0.32034 0.0
H2686 H 0.23958 0.55756 0.30021 0.0
H2687 H 0.22825 0.57019 0.31955 0.0
C2688 C 0.33992 0.22459 0.3533 0.0
C2689 C 0.32683 0.21079 0.34716 0.0
C2690 C 0.35184 0.23389 0.34014 0.0
C2691 C 0.34975 0.22999 0.32044 0.0
C2692 C 0.33799 0.21475 0.31451 0.0
C2693 C 0.32732 0.20487 0.32804 0.0
C2694 C 0.36538 0.24897 0.3472 0.0
C2695 C 0.33469 0.2104 0.29365 0.0
C2696 C 0.34773 0.26833 0.28316 0.0
C2697 C 0.36257 0.26284 0.27104 0.0
C2698 C 0.34457 0.25893 0.30043 0.0
C2699 C 0.3566 0.24364 0.30576 0.0
C2700 C 0.37276 0.23933 0.29454 0.0
C2701 C 0.37552 0.24894 0.27719 0.0
C2702 C 0.32731 0.26431 0.31206 0.0
C2703 C 0.38639 0.22374 0.30019 0.0
H2704 H 0.34001 0.22901 0.3681 0.0
H2705 H 0.31763 0.1939 0.32311 0.0
H2706 H 0.37803 0.25013 0.33784 0.0
H2707 H 0.3581 0.26299 0.3474 0.0
H2708 H 0.37016 0.24582 0.36195 0.0
H2709 H 0.32577 0.19752 0.29148 0.0
H2710 H 0.32743 0.22268 0.28682 0.0
H2711 H 0.34837 0.20823 0.28618 0.0
H2712 H 0.338 0.27949 0.27877 0.0
H2713 H 0.38729 0.24491 0.26809 0.0
H2714 H 0.3313 0.26659 0.32716 0.0
H2715 H 0.3168 0.25253 0.31161 0.0
H2716 H 0.32034 0.27749 0.30675 0.0
H2717 H 0.38877 0.22377 0.31581 0.0
H2718 H 0.40029 0.22526 0.29284 0.0
H2719 H 0.38033 0.20968 0.29627 0.0
C2720 C 0.68067 0.71638 0.58411 0.0
C2721 C 0.69164 0.71608 0.60084 0.0
C2722 C 0.66137 0.7218 0.58457 0.0
C2723 C 0.65301 0.72721 0.60212 0.0
C2724 C 0.66413 0.72687 0.61898 0.0
C2725 C 0.68318 0.72138 0.61808 0.0
C2726 C 0.65025 0.72202 0.56621 0.0
C2727 C 0.65606 0.73244 0.63816 0.0
C2728 C 0.61508 0.75982 0.6176 0.0
C2729 C 0.60433 0.74666 0.62801 0.0
C2730 C 0.62935 0.75349 0.60515 0.0
C2731 C 0.63289 0.73369 0.60359 0.0
C2732 C 0.61906 0.72072 0.61038 0.0
C2733 C 0.60462 0.72746 0.62246 0.0
C2734 C 0.64287 0.76787 0.59681 0.0
C2735 C 0.62164 0.6995 0.60812 0.0
H2736 H 0.6871 0.71225 0.5707 0.0
H2737 H 0.69148 0.72121 0.63109 0.0
H2738 H 0.63497 0.71893 0.56853 0.0
H2739 H 0.65138 0.73638 0.55971 0.0
H2740 H 0.65605 0.71153 0.55586 0.0
H2741 H 0.66648 0.73065 0.64991 0.0
H2742 H 0.65159 0.7476 0.6379 0.0
H2743 H 0.64341 0.72363 0.64149 0.0
H2744 H 0.61455 0.77477 0.62153 0.0
H2745 H 0.59602 0.71725 0.63021 0.0
H2746 H 0.64823 0.763 0.58277 0.0
H2747 H 0.65524 0.76959 0.60648 0.0
H2748 H 0.63594 0.782 0.59512 0.0
H2749 H 0.62815 0.69599 0.59416 0.0
H2750 H 0.60787 0.69188 0.60944 0.0
H2751 H 0.63127 0.69423 0.61949 0.0
C2752 C 0.68405 0.24176 0.35152 0.0
C2753 C 0.69273 0.25008 0.3674 0.0
C2754 C 0.66453 0.23819 0.35115 0.0
C2755 C 0.6532 0.24272 0.36727 0.0
C2756 C 0.662 0.25029 0.38378 0.0
C2757 C 0.68168 0.25403 0.3836 0.0
C2758 C 0.65601 0.23032 0.33302 0.0
C2759 C 0.65078 0.25523 0.4014 0.0
C2760 C 0.60555 0.24872 0.34568 0.0
C2761 C 0.60153 0.22935 0.34291 0.0
C2762 C 0.62121 0.25423 0.3568 0.0
C2763 C 0.63223 0.23998 0.36584 0.0
C2764 C 0.62482 0.22129 0.36722 0.0
C2765 C 0.60948 0.21608 0.3555 0.0
C2766 C 0.62794 0.27461 0.35583 0.0
C2767 C 0.63518 0.20604 0.37816 0.0
H2768 H 0.69244 0.23859 0.33897 0.0
H2769 H 0.68826 0.26053 0.39597 0.0
H2770 H 0.64836 0.21684 0.33598 0.0
H2771 H 0.64572 0.24074 0.32713 0.0
H2772 H 0.66688 0.22738 0.32193 0.0
H2773 H 0.65951 0.25308 0.4144 0.0
H2774 H 0.64679 0.27053 0.40088 0.0
H2775 H 0.6376 0.24666 0.40264 0.0
H2776 H 0.59904 0.25913 0.33629 0.0
H2777 H 0.60605 0.2011 0.3538 0.0
H2778 H 0.63927 0.27578 0.3449 0.0
H2779 H 0.63401 0.27918 0.36967 0.0
H2780 H 0.61621 0.28444 0.35187 0.0
H2781 H 0.64668 0.20006 0.36913 0.0
H2782 H 0.62546 0.19423 0.38214 0.0
H2783 H 0.64176 0.21202 0.39124 0.0
C2784 C 0.72449 0.60969 0.34566 0.0
C2785 C 0.74231 0.60875 0.3369 0.0
C2786 C 0.72012 0.62491 0.3579 0.0
C2787 C 0.73382 0.63939 0.36075 0.0
C2788 C 0.75294 0.63583 0.35568 0.0
C2789 C 0.75704 0.62029 0.34377 0.0
C2790 C 0.69991 0.6274 0.36451 0.0
C2791 C 0.76826 0.65036 0.35948 0.0
C2792 C 0.71515 0.68707 0.34417 0.0
C2793 C 0.71231 0.69689 0.36126 0.0
C2794 C 0.72248 0.66859 0.34399 0.0
C2795 C 0.72715 0.65951 0.36144 0.0
C2796 C 0.72489 0.66955 0.37881 0.0
C2797 C 0.71745 0.68818 0.37851 0.0
C2798 C 0.72473 0.65872 0.32497 0.0
C2799 C 0.72952 0.6606 0.39776 0.0
H2800 H 0.71315 0.6005 0.34062 0.0
H2801 H 0.77096 0.61933 0.33721 0.0
H2802 H 0.69945 0.63466 0.37855 0.0
H2803 H 0.6921 0.63637 0.3541 0.0
H2804 H 0.69251 0.61346 0.36559 0.0
H2805 H 0.78257 0.64369 0.35928 0.0
H2806 H 0.76781 0.66143 0.34821 0.0
H2807 H 0.76603 0.6575 0.37341 0.0
H2808 H 0.71135 0.69375 0.33079 0.0
H2809 H 0.71522 0.69571 0.39181 0.0
H2810 H 0.71543 0.64598 0.32437 0.0
H2811 H 0.73964 0.65398 0.32304 0.0
H2812 H 0.72096 0.66809 0.3128 0.0
H2813 H 0.71649 0.65385 0.40355 0.0
H2814 H 0.73425 0.67156 0.40817 0.0
H2815 H 0.74067 0.64948 0.39657 0.0
C2816 C 0.28095 0.71189 0.38124 0.0
C2817 C 0.27066 0.71264 0.36411 0.0
C2818 C 0.30002 0.71798 0.38206 0.0
C2819 C 0.30888 0.72496 0.36535 0.0
C2820 C 0.29824 0.72618 0.3482 0.0
C2821 C 0.27938 0.72001 0.34784 0.0
C2822 C 0.31062 0.71623 0.40065 0.0
C2823 C 0.30677 0.73373 0.32996 0.0
C2824 C 0.34837 0.75721 0.3536 0.0
C2825 C 0.35885 0.74449 0.34234 0.0
C2826 C 0.33356 0.75048 0.36516 0.0
C2827 C 0.32924 0.73079 0.36493 0.0
C2828 C 0.34278 0.71786 0.35744 0.0
C2829 C 0.35779 0.72496 0.34634 0.0
C2830 C 0.32042 0.76466 0.37446 0.0
C2831 C 0.33938 0.69666 0.35793 0.0
H2832 H 0.27431 0.70607 0.39388 0.0
H2833 H 0.27145 0.7208 0.33463 0.0
H2834 H 0.31694 0.70177 0.40158 0.0
H2835 H 0.32226 0.72682 0.4019 0.0
H2836 H 0.30084 0.71797 0.41294 0.0
H2837 H 0.29653 0.73358 0.31792 0.0
H2838 H 0.31159 0.74864 0.33208 0.0
H2839 H 0.31925 0.725 0.32584 0.0
H2840 H 0.34953 0.77239 0.35093 0.0
H2841 H 0.36622 0.71507 0.33798 0.0
H2842 H 0.31414 0.7587 0.38766 0.0
H2843 H 0.30866 0.76811 0.36451 0.0
H2844 H 0.32802 0.77811 0.37795 0.0
H2845 H 0.33313 0.69233 0.37176 0.0
H2846 H 0.35276 0.68858 0.35556 0.0
H2847 H 0.32919 0.69275 0.3465 0.0
C2848 C 0.24928 0.27712 0.37356 0.0
C2849 C 0.25842 0.26719 0.35883 0.0
C2850 C 0.24211 0.29559 0.37058 0.0
C2851 C 0.24406 0.30415 0.35244 0.0
C2852 C 0.25425 0.29458 0.33791 0.0
C2853 C 0.26132 0.27627 0.3413 0.0
C2854 C 0.23164 0.30549 0.38651 0.0
C2855 C 0.25672 0.30317 0.31832 0.0
C2856 C 0.20718 0.33484 0.32914 0.0
C2857 C 0.21697 0.35211 0.32729 0.0
C2858 C 0.2151 0.31955 0.33909 0.0
C2859 C 0.23328 0.32163 0.34742 0.0
C2860 C 0.2423 0.33971 0.34739 0.0
C2861 C 0.23401 0.35485 0.33721 0.0
C2862 C 0.20494 0.30057 0.33873 0.0
C2863 C 0.26152 0.34255 0.35646 0.0
H2864 H 0.24727 0.2703 0.38725 0.0
H2865 H 0.26868 0.26886 0.32994 0.0
H2866 H 0.23533 0.32086 0.38704 0.0
H2867 H 0.21612 0.30442 0.38397 0.0
H2868 H 0.23483 0.29897 0.40056 0.0
H2869 H 0.26633 0.29456 0.30916 0.0
H2870 H 0.2427 0.30421 0.31116 0.0
H2871 H 0.26257 0.3178 0.31942 0.0
H2872 H 0.19392 0.33281 0.32152 0.0
H2873 H 0.24162 0.3682 0.33572 0.0
H2874 H 0.20511 0.29388 0.35301 0.0
H2875 H 0.21237 0.29078 0.32877 0.0
H2876 H 0.18994 0.30198 0.33397 0.0
H2877 H 0.26253 0.33471 0.37013 0.0
H2878 H 0.26451 0.35788 0.35907 0.0
H2879 H 0.27268 0.33686 0.34685 0.0
C2880 C 0.35306 0.24808 0.62846 0.0
C2881 C 0.35339 0.22864 0.63287 0.0
C2882 C 0.33864 0.25549 0.61679 0.0
C2883 C 0.32455 0.24301 0.60956 0.0
C2884 C 0.32738 0.22308 0.61076 0.0
C2885 C 0.34177 0.21608 0.62265 0.0
C2886 C 0.33661 0.27681 0.61507 0.0
C2887 C 0.31323 0.20922 0.60247 0.0
C2888 C 0.27472 0.25906 0.62165 0.0
C2889 C 0.26751 0.26437 0.6039 0.0
C2890 C 0.29313 0.25184 0.62345 0.0
C2891 C 0.30487 0.25027 0.60709 0.0
C2892 C 0.29763 0.25552 0.58902 0.0
C2893 C 0.27889 0.26238 0.58762 0.0
C2894 C 0.3 0.24602 0.64301 0.0
C2895 C 0.30974 0.25463 0.57133 0.0
H2896 H 0.36213 0.2578 0.63634 0.0
H2897 H 0.34217 0.20099 0.62599 0.0
H2898 H 0.33085 0.28077 0.60092 0.0
H2899 H 0.32652 0.28201 0.62606 0.0
H2900 H 0.35043 0.28415 0.61727 0.0
H2901 H 0.31964 0.19488 0.60049 0.0
H2902 H 0.301 0.20784 0.61234 0.0
H2903 H 0.30774 0.21434 0.58858 0.0
H2904 H 0.26586 0.26052 0.6342 0.0
H2905 H 0.27337 0.26677 0.57389 0.0
H2906 H 0.3124 0.25483 0.64722 0.0
H2907 H 0.30462 0.2309 0.64286 0.0
H2908 H 0.28884 0.24767 0.65408 0.0
H2909 H 0.31885 0.26752 0.57074 0.0
H2910 H 0.3009 0.2543 0.55821 0.0
H2911 H 0.31923 0.24201 0.5714 0.0
C2912 C 0.71043 0.28207 0.58717 0.0
C2913 C 0.70633 0.27179 0.60382 0.0
C2914 C 0.71867 0.30032 0.58812 0.0
C2915 C 0.72301 0.30831 0.60613 0.0
C2916 C 0.71879 0.29794 0.62294 0.0
C2917 C 0.71044 0.27992 0.62155 0.0
C2918 C 0.7223 0.3111 0.5699 0.0
C2919 C 0.72326 0.30573 0.64254 0.0
C2920 C 0.7606 0.34131 0.62255 0.0
C2921 C 0.74904 0.3551 0.63119 0.0
C2922 C 0.7526 0.3272 0.61089 0.0
C2923 C 0.7327 0.32706 0.60806 0.0
C2924 C 0.72189 0.34326 0.61332 0.0
C2925 C 0.73028 0.35729 0.62488 0.0
C2926 C 0.76487 0.31068 0.60471 0.0
C2927 C 0.7008 0.34415 0.60966 0.0
H2928 H 0.70695 0.27596 0.57341 0.0
H2929 H 0.7073 0.27205 0.63444 0.0
H2930 H 0.71098 0.32194 0.56797 0.0
H2931 H 0.73608 0.31874 0.57039 0.0
H2932 H 0.72216 0.30152 0.55729 0.0
H2933 H 0.71914 0.29575 0.65408 0.0
H2934 H 0.73871 0.30862 0.64382 0.0
H2935 H 0.71565 0.31939 0.64485 0.0
H2936 H 0.77526 0.33988 0.62709 0.0
H2937 H 0.72135 0.36817 0.63127 0.0
H2938 H 0.76026 0.30506 0.59068 0.0
H2939 H 0.76357 0.299 0.61528 0.0
H2940 H 0.78007 0.31486 0.60383 0.0
H2941 H 0.69721 0.33773 0.59567 0.0
H2942 H 0.69553 0.35908 0.61005 0.0
H2943 H 0.69326 0.33597 0.62085 0.0
C2944 C 0.20772 0.61964 0.6182 0.0
C2945 C 0.22128 0.60758 0.62647 0.0
C2946 C 0.21348 0.63494 0.60671 0.0
C2947 C 0.2331 0.63774 0.60336 0.0
C2948 C 0.24595 0.62281 0.60767 0.0
C2949 C 0.23981 0.60768 0.61923 0.0
C2950 C 0.19908 0.64992 0.60137 0.0
C2951 C 0.26683 0.62459 0.60325 0.0
C2952 C 0.25042 0.6858 0.58448 0.0
C2953 C 0.25375 0.69569 0.60159 0.0
C2954 C 0.24393 0.66679 0.58459 0.0
C2955 C 0.24044 0.65764 0.60221 0.0
C2956 C 0.24371 0.6677 0.61946 0.0
C2957 C 0.25032 0.68648 0.6189 0.0
C2958 C 0.24063 0.65681 0.56584 0.0
C2959 C 0.24016 0.65875 0.6387 0.0
H2960 H 0.19324 0.61931 0.62348 0.0
H2961 H 0.25028 0.59809 0.62529 0.0
H2962 H 0.19941 0.66155 0.6121 0.0
H2963 H 0.20245 0.65619 0.58729 0.0
H2964 H 0.18446 0.64394 0.60098 0.0
H2965 H 0.2738 0.61039 0.60279 0.0
H2966 H 0.26908 0.63193 0.58945 0.0
H2967 H 0.27379 0.63318 0.61456 0.0
H2968 H 0.25311 0.69281 0.571 0.0
H2969 H 0.25282 0.69397 0.63217 0.0
H2970 H 0.22559 0.65879 0.56155 0.0
H2971 H 0.24341 0.64127 0.56684 0.0
H2972 H 0.24971 0.66289 0.55443 0.0
H2973 H 0.22495 0.65483 0.64001 0.0
H2974 H 0.2438 0.66844 0.65068 0.0
H2975 H 0.24873 0.64557 0.64024 0.0
C2976 C 0.15378 0.36904 0.25456 0.0
C2977 C 0.17066 0.35846 0.2554 0.0
C2978 C 0.13702 0.36079 0.24722 0.0
C2979 C 0.1374 0.34169 0.24057 0.0
C2980 C 0.15475 0.33145 0.24052 0.0
C2981 C 0.17106 0.33995 0.24795 0.0
C2982 C 0.1188 0.3721 0.24749 0.0
C2983 C 0.15602 0.3111 0.23342 0.0
C2984 C 0.1007 0.30334 0.24104 0.0
C2985 C 0.09832 0.30046 0.22148 0.0
C2986 C 0.11107 0.319 0.24785 0.0
C2987 C 0.11983 0.33149 0.23468 0.0
C2988 C 0.11534 0.32998 0.21508 0.0
C2989 C 0.10436 0.31452 0.20871 0.0
C2990 C 0.11497 0.32044 0.26893 0.0
C2991 C 0.12449 0.34282 0.20052 0.0
H2992 H 0.15345 0.38335 0.26041 0.0
H2993 H 0.18416 0.33181 0.24839 0.0
H2994 H 0.11104 0.3705 0.23384 0.0
H2995 H 0.10943 0.36657 0.25892 0.0
H2996 H 0.12141 0.38749 0.25017 0.0
H2997 H 0.17087 0.30572 0.23317 0.0
H2998 H 0.14755 0.30164 0.24279 0.0
H2999 H 0.15009 0.30997 0.21884 0.0
H3000 H 0.09602 0.29242 0.25089 0.0
H3001 H 0.10268 0.31215 0.19353 0.0
H3002 H 0.11555 0.33555 0.27358 0.0
H3003 H 0.12895 0.31383 0.27209 0.0
H3004 H 0.10396 0.31289 0.27738 0.0
H3005 H 0.12579 0.35762 0.20592 0.0
H3006 H 0.11634 0.34296 0.18697 0.0
H3007 H 0.13903 0.33751 0.19742 0.0
C3008 C 0.65904 0.10066 0.21995 0.0
C3009 C 0.67254 0.11401 0.21379 0.0
C3010 C 0.64183 0.10673 0.22835 0.0
C3011 C 0.63833 0.12651 0.23086 0.0
C3012 C 0.65134 0.13991 0.22327 0.0
C3013 C 0.66806 0.13348 0.21474 0.0
C3014 C 0.62801 0.09185 0.23522 0.0
C3015 C 0.64842 0.1612 0.22534 0.0
C3016 C 0.59907 0.1584 0.2473 0.0
C3017 C 0.60653 0.16336 0.26512 0.0
C3018 C 0.60723 0.14334 0.23677 0.0
C3019 C 0.62342 0.13378 0.2441 0.0
C3020 C 0.6286 0.13664 0.26336 0.0
C3021 C 0.61999 0.15137 0.27367 0.0
C3022 C 0.6001 0.13935 0.21693 0.0
C3023 C 0.64529 0.12636 0.27213 0.0
H3024 H 0.66217 0.08557 0.21888 0.0
H3025 H 0.67808 0.14393 0.20943 0.0
H3026 H 0.63319 0.0858 0.24885 0.0
H3027 H 0.61353 0.09773 0.23744 0.0
H3028 H 0.62717 0.07992 0.22484 0.0
H3029 H 0.65999 0.1696 0.21863 0.0
H3030 H 0.63482 0.1655 0.21864 0.0
H3031 H 0.64773 0.16514 0.24063 0.0
H3032 H 0.58838 0.1674 0.24077 0.0
H3033 H 0.62539 0.15494 0.2877 0.0
H3034 H 0.60271 0.12428 0.21284 0.0
H3035 H 0.60765 0.14865 0.20666 0.0
H3036 H 0.58466 0.14245 0.2158 0.0
H3037 H 0.64431 0.11084 0.26933 0.0
H3038 H 0.64612 0.12865 0.28777 0.0
H3039 H 0.65868 0.1316 0.26563 0.0
C3040 C 0.81231 0.60178 0.25002 0.0
C3041 C 0.79964 0.61515 0.25778 0.0
C3042 C 0.82922 0.60778 0.24102 0.0
C3043 C 0.83321 0.62755 0.23944 0.0
C3044 C 0.82092 0.64092 0.24826 0.0
C3045 C 0.80458 0.63452 0.25747 0.0
C3046 C 0.84221 0.59287 0.23266 0.0
C3047 C 0.82423 0.66221 0.24696 0.0
C3048 C 0.87306 0.65916 0.22437 0.0
C3049 C 0.86577 0.66506 0.2068 0.0
C3050 C 0.86464 0.64376 0.23409 0.0
C3051 C 0.84813 0.63506 0.2264 0.0
C3052 C 0.84287 0.63906 0.20737 0.0
C3053 C 0.85194 0.65393 0.19774 0.0
C3054 C 0.8718 0.63852 0.2536 0.0
C3055 C 0.82565 0.62994 0.19832 0.0
H3056 H 0.80882 0.58674 0.25047 0.0
H3057 H 0.7952 0.645 0.26384 0.0
H3058 H 0.83616 0.58768 0.21902 0.0
H3059 H 0.85673 0.59841 0.22999 0.0
H3060 H 0.8432 0.5804 0.24234 0.0
H3061 H 0.81292 0.67061 0.25415 0.0
H3062 H 0.83799 0.66599 0.25364 0.0
H3063 H 0.8248 0.6667 0.23183 0.0
H3064 H 0.88391 0.66763 0.23134 0.0
H3065 H 0.84649 0.65845 0.18401 0.0
H3066 H 0.86931 0.62317 0.25657 0.0
H3067 H 0.86412 0.64698 0.26452 0.0
H3068 H 0.88721 0.64165 0.255 0.0
H3069 H 0.82602 0.61428 0.20024 0.0
H3070 H 0.82468 0.63309 0.18285 0.0
H3071 H 0.81258 0.63539 0.20532 0.0
C3072 C 0.3659 0.81342 0.25215 0.0
C3073 C 0.35188 0.79994 0.25673 0.0
C3074 C 0.36092 0.83107 0.24379 0.0
C3075 C 0.34155 0.83515 0.23982 0.0
C3076 C 0.32746 0.82154 0.24454 0.0
C3077 C 0.33279 0.80433 0.25288 0.0
C3078 C 0.37646 0.84505 0.23901 0.0
C3079 C 0.30655 0.825 0.24074 0.0
C3080 C 0.31128 0.87795 0.23387 0.0
C3081 C 0.30574 0.87522 0.21492 0.0
C3082 C 0.32641 0.86739 0.2416 0.0
C3083 C 0.33523 0.85312 0.23036 0.0
C3084 C 0.33187 0.85284 0.21049 0.0
C3085 C 0.31723 0.86416 0.20293 0.0
C3086 C 0.33069 0.86921 0.26255 0.0
C3087 C 0.34115 0.83817 0.19783 0.0
H3088 H 0.38068 0.81021 0.25507 0.0
H3089 H 0.32171 0.79421 0.25643 0.0
H3090 H 0.38152 0.84224 0.22432 0.0
H3091 H 0.37141 0.86002 0.23972 0.0
H3092 H 0.38879 0.84336 0.24875 0.0
H3093 H 0.29758 0.81256 0.24456 0.0
H3094 H 0.30154 0.83742 0.24915 0.0
H3095 H 0.3042 0.82822 0.22547 0.0
H3096 H 0.30246 0.88656 0.24317 0.0
H3097 H 0.31291 0.86202 0.18825 0.0
H3098 H 0.34591 0.86624 0.26546 0.0
H3099 H 0.32204 0.8587 0.27056 0.0
H3100 H 0.3271 0.88368 0.26789 0.0
H3101 H 0.35636 0.83644 0.20155 0.0
H3102 H 0.33998 0.84207 0.18255 0.0
H3103 H 0.33405 0.8242 0.19992 0.0
C3104 C 0.12178 0.6545 0.77308 0.0
C3105 C 0.10636 0.66482 0.76577 0.0
C3106 C 0.12987 0.63947 0.76282 0.0
C3107 C 0.1221 0.63445 0.74492 0.0
C3108 C 0.10433 0.64228 0.73942 0.0
C3109 C 0.09675 0.65779 0.74976 0.0
C3110 C 0.14836 0.63105 0.76982 0.0
C3111 C 0.09447 0.63577 0.72153 0.0
C3112 C 0.16187 0.63413 0.70933 0.0
C3113 C 0.16827 0.6152 0.71015 0.0
C3114 C 0.14583 0.64015 0.71934 0.0
C3115 C 0.13539 0.62679 0.73024 0.0
C3116 C 0.14053 0.6072 0.72951 0.0
C3117 C 0.15709 0.60162 0.71958 0.0
C3118 C 0.14116 0.66122 0.71943 0.0
C3119 C 0.12928 0.59216 0.73984 0.0
H3120 H 0.12879 0.65952 0.78591 0.0
H3121 H 0.08448 0.66538 0.74431 0.0
H3122 H 0.1477 0.61528 0.76938 0.0
H3123 H 0.16016 0.63565 0.7604 0.0
H3124 H 0.15175 0.63554 0.78461 0.0
H3125 H 0.07881 0.63714 0.72301 0.0
H3126 H 0.09892 0.64484 0.70942 0.0
H3127 H 0.09807 0.62073 0.71811 0.0
H3128 H 0.16998 0.64463 0.70147 0.0
H3129 H 0.16164 0.58686 0.7199 0.0
H3130 H 0.14184 0.66692 0.73417 0.0
H3131 H 0.12655 0.66356 0.71404 0.0
H3132 H 0.15104 0.66968 0.71045 0.0
H3133 H 0.13732 0.58737 0.75255 0.0
H3134 H 0.12739 0.57948 0.73053 0.0
H3135 H 0.11508 0.59732 0.74439 0.0
C3136 C 0.36994 0.15764 0.726 0.0
C3137 C 0.36674 0.16261 0.70699 0.0
C3138 C 0.36018 0.14218 0.73417 0.0
C3139 C 0.34657 0.13216 0.72314 0.0
C3140 C 0.34631 0.13482 0.70317 0.0
C3141 C 0.3564 0.15016 0.69531 0.0
C3142 C 0.3619 0.13886 0.75529 0.0
C3143 C 0.33268 0.12392 0.69068 0.0
C3144 C 0.30821 0.10097 0.74639 0.0
C3145 C 0.29396 0.11461 0.74972 0.0
C3146 C 0.32565 0.10624 0.73787 0.0
C3147 C 0.32877 0.12553 0.73259 0.0
C3148 C 0.31434 0.13921 0.73594 0.0
C3149 C 0.29729 0.13357 0.74429 0.0
C3150 C 0.34043 0.09108 0.73433 0.0
C3151 C 0.31677 0.16003 0.73078 0.0
H3152 H 0.37802 0.16719 0.73506 0.0
H3153 H 0.354 0.15397 0.68053 0.0
H3154 H 0.35081 0.14726 0.76279 0.0
H3155 H 0.35975 0.12358 0.75878 0.0
H3156 H 0.37601 0.14349 0.76067 0.0
H3157 H 0.33699 0.12447 0.67548 0.0
H3158 H 0.33177 0.10881 0.69522 0.0
H3159 H 0.31829 0.13029 0.69197 0.0
H3160 H 0.30581 0.08629 0.75051 0.0
H3161 H 0.28653 0.14435 0.74674 0.0
H3162 H 0.35506 0.09693 0.73495 0.0
H3163 H 0.33819 0.08495 0.71993 0.0
H3164 H 0.33917 0.0793 0.7448 0.0
H3165 H 0.3291 0.16614 0.73851 0.0
H3166 H 0.30407 0.16874 0.73434 0.0
H3167 H 0.3195 0.16149 0.71531 0.0
C3168 C 0.79921 0.35991 0.73804 0.0
C3169 C 0.79919 0.3675 0.71964 0.0
C3170 C 0.81518 0.35038 0.74514 0.0
C3171 C 0.83146 0.34841 0.73343 0.0
C3172 C 0.83259 0.35898 0.71628 0.0
C3173 C 0.81626 0.36833 0.70942 0.0
C3174 C 0.81341 0.33986 0.76379 0.0
C3175 C 0.85012 0.35831 0.704 0.0
C3176 C 0.86579 0.31374 0.75661 0.0
C3177 C 0.85817 0.29648 0.75003 0.0
C3178 C 0.85876 0.33127 0.74976 0.0
C3179 C 0.84372 0.33132 0.7363 0.0
C3180 C 0.83768 0.31384 0.72813 0.0
C3181 C 0.84503 0.2967 0.73508 0.0
C3182 C 0.86635 0.34954 0.75815 0.0
C3183 C 0.8219 0.31297 0.71352 0.0
H3184 H 0.78599 0.35943 0.74597 0.0
H3185 H 0.81628 0.37426 0.69517 0.0
H3186 H 0.81149 0.3244 0.76093 0.0
H3187 H 0.82648 0.34158 0.77242 0.0
H3188 H 0.80109 0.34494 0.77228 0.0
H3189 H 0.8512 0.37125 0.69497 0.0
H3190 H 0.86316 0.35702 0.7128 0.0
H3191 H 0.84939 0.34572 0.69444 0.0
H3192 H 0.87607 0.31361 0.76811 0.0
H3193 H 0.83941 0.28331 0.72976 0.0
H3194 H 0.85863 0.35279 0.77153 0.0
H3195 H 0.86452 0.36175 0.74828 0.0
H3196 H 0.88165 0.34806 0.76174 0.0
H3197 H 0.80835 0.31774 0.72008 0.0
H3198 H 0.8198 0.29836 0.70778 0.0
H3199 H 0.82501 0.32262 0.70145 0.0
C3200 C 0.64894 0.86998 0.75831 0.0
C3201 C 0.66488 0.87206 0.74655 0.0
C3202 C 0.6331 0.85946 0.75201 0.0
C3203 C 0.63358 0.85082 0.73377 0.0
C3204 C 0.64807 0.85607 0.72081 0.0
C3205 C 0.66366 0.86659 0.72743 0.0
C3206 C 0.61732 0.8552 0.76585 0.0
C3207 C 0.64885 0.84787 0.70095 0.0
C3208 C 0.62627 0.7978 0.72974 0.0
C3209 C 0.61083 0.79659 0.71722 0.0
C3210 C 0.63282 0.81539 0.73639 0.0
C3211 C 0.62357 0.83236 0.73054 0.0
C3212 C 0.60675 0.83112 0.71946 0.0
C3213 C 0.60059 0.81316 0.71281 0.0
C3214 C 0.65068 0.81576 0.7484 0.0
C3215 C 0.59596 0.84869 0.7135 0.0
H3216 H 0.64983 0.87426 0.77312 0.0
H3217 H 0.67598 0.86835 0.71832 0.0
H3218 H 0.60355 0.85348 0.75833 0.0
H3219 H 0.62047 0.84168 0.77339 0.0
H3220 H 0.61596 0.86669 0.77667 0.0
H3221 H 0.65897 0.85579 0.69176 0.0
H3222 H 0.65355 0.83277 0.70168 0.0
H3223 H 0.63461 0.84816 0.69422 0.0
H3224 H 0.63399 0.78496 0.73351 0.0
H3225 H 0.58855 0.81229 0.70322 0.0
H3226 H 0.64823 0.82394 0.76169 0.0
H3227 H 0.66229 0.82291 0.74046 0.0
H3228 H 0.65559 0.80124 0.75234 0.0
H3229 H 0.59786 0.86059 0.72376 0.0
H3230 H 0.58055 0.84554 0.71209 0.0
H3231 H 0.60114 0.85344 0.69938 0.0
C3232 C 0.25134 0.14887 0.37318 0.0
C3233 C 0.24192 0.16569 0.3679 0.0
C3234 C 0.24652 0.13132 0.36461 0.0
C3235 C 0.23255 0.13091 0.35005 0.0
C3236 C 0.22136 0.1474 0.34674 0.0
C3237 C 0.22593 0.16441 0.35607 0.0
C3238 C 0.25763 0.11375 0.36997 0.0
C3239 C 0.20622 0.14791 0.33146 0.0
C3240 C 0.24009 0.10967 0.30191 0.0
C3241 C 0.22305 0.09961 0.29968 0.0
C3242 C 0.24493 0.11795 0.31939 0.0
C3243 C 0.23257 0.11569 0.33515 0.0
C3244 C 0.21732 0.10255 0.33382 0.0
C3245 C 0.21249 0.09482 0.31592 0.0
C3246 C 0.26176 0.1313 0.32009 0.0
C3247 C 0.20492 0.09822 0.35075 0.0
H3248 H 0.26349 0.1496 0.38265 0.0
H3249 H 0.21825 0.1773 0.3524 0.0
H3250 H 0.25026 0.10045 0.36561 0.0
H3251 H 0.2718 0.11417 0.36309 0.0
H3252 H 0.26002 0.11342 0.3856 0.0
H3253 H 0.19861 0.16179 0.33101 0.0
H3254 H 0.21277 0.1454 0.31729 0.0
H3255 H 0.19561 0.13653 0.33387 0.0
H3256 H 0.24855 0.11293 0.28942 0.0
H3257 H 0.19946 0.08672 0.31438 0.0
H3258 H 0.27103 0.12775 0.33233 0.0
H3259 H 0.25674 0.14619 0.32202 0.0
H3260 H 0.27044 0.13064 0.3069 0.0
H3261 H 0.21275 0.10016 0.36434 0.0
H3262 H 0.19947 0.08338 0.34997 0.0
H3263 H 0.19246 0.10791 0.35078 0.0
C3264 C 0.84015 0.2053 0.30549 0.0
C3265 C 0.85998 0.20406 0.30471 0.0
C3266 C 0.83102 0.21555 0.31989 0.0
C3267 C 0.84198 0.2244 0.33436 0.0
C3268 C 0.86208 0.22304 0.33383 0.0
C3269 C 0.87091 0.21313 0.31873 0.0
C3270 C 0.80957 0.21693 0.31948 0.0
C3271 C 0.87416 0.23182 0.34926 0.0
C3272 C 0.81104 0.2623 0.35552 0.0
C3273 C 0.80011 0.25119 0.36791 0.0
C3274 C 0.82675 0.2545 0.34603 0.0
C3275 C 0.83184 0.23527 0.34951 0.0
C3276 C 0.82272 0.22516 0.36439 0.0
C3277 C 0.80657 0.23309 0.37313 0.0
C3278 C 0.83569 0.26579 0.33011 0.0
C3279 C 0.82827 0.20497 0.36919 0.0
H3280 H 0.83168 0.19843 0.29455 0.0
H3281 H 0.88627 0.21206 0.31813 0.0
H3282 H 0.8035 0.20986 0.3322 0.0
H3283 H 0.80507 0.23209 0.31982 0.0
H3284 H 0.80334 0.21015 0.30661 0.0
H3285 H 0.88941 0.22802 0.34772 0.0
H3286 H 0.87284 0.24756 0.34889 0.0
H3287 H 0.86915 0.22707 0.36346 0.0
H3288 H 0.80581 0.27623 0.35131 0.0
H3289 H 0.798 0.22443 0.38259 0.0
H3290 H 0.82921 0.26137 0.31638 0.0
H3291 H 0.85117 0.26309 0.32916 0.0
H3292 H 0.8333 0.28135 0.33194 0.0
H3293 H 0.82131 0.19505 0.35904 0.0
H3294 H 0.82368 0.20109 0.38381 0.0
H3295 H 0.84387 0.20295 0.368 0.0
C3296 C 0.76109 0.86844 0.31997 0.0
C3297 C 0.74826 0.87559 0.3065 0.0
C3298 C 0.7545 0.85782 0.33559 0.0
C3299 C 0.73476 0.85445 0.33751 0.0
C3300 C 0.7219 0.8653 0.3264 0.0
C3301 C 0.72882 0.87551 0.31068 0.0
C3302 C 0.76871 0.84726 0.34769 0.0
C3303 C 0.70073 0.86316 0.32873 0.0
C3304 C 0.72171 0.8023 0.33693 0.0
C3305 C 0.71411 0.79921 0.35515 0.0
C3306 C 0.72856 0.82006 0.33137 0.0
C3307 C 0.72835 0.83543 0.34448 0.0
C3308 C 0.72144 0.8324 0.36322 0.0
C3309 C 0.71431 0.81426 0.36836 0.0
C3310 C 0.73551 0.82233 0.31108 0.0
C3311 C 0.72167 0.84812 0.37788 0.0
H3312 H 0.77617 0.86857 0.31679 0.0
H3313 H 0.71888 0.88119 0.30034 0.0
H3314 H 0.76348 0.84577 0.36251 0.0
H3315 H 0.77084 0.83273 0.34176 0.0
H3316 H 0.78268 0.85463 0.34785 0.0
H3317 H 0.69306 0.87576 0.32299 0.0
H3318 H 0.69591 0.85036 0.32077 0.0
H3319 H 0.69686 0.86125 0.34392 0.0
H3320 H 0.72185 0.79085 0.32656 0.0
H3321 H 0.70866 0.81198 0.38252 0.0
H3322 H 0.75045 0.82733 0.31097 0.0
H3323 H 0.72674 0.83308 0.30354 0.0
H3324 H 0.7348 0.80882 0.30284 0.0
H3325 H 0.73606 0.84895 0.38427 0.0
H3326 H 0.71134 0.84537 0.38951 0.0
H3327 H 0.71849 0.86219 0.37141 0.0
C3328 C 0.16532 0.73098 0.3392 0.0
C3329 C 0.16732 0.72013 0.35583 0.0
C3330 C 0.14749 0.73662 0.33256 0.0
C3331 C 0.13101 0.7319 0.34317 0.0
C3332 C 0.13305 0.72275 0.36106 0.0
C3333 C 0.15123 0.71673 0.36712 0.0
C3334 C 0.14635 0.74633 0.31335 0.0
C3335 C 0.11612 0.71831 0.37341 0.0
C3336 C 0.09411 0.75788 0.31568 0.0
C3337 C 0.09146 0.74442 0.30115 0.0
C3338 C 0.10437 0.753 0.33219 0.0
C3339 C 0.11216 0.73445 0.33377 0.0
C3340 C 0.10594 0.72004 0.32107 0.0
C3341 C 0.0957 0.72526 0.30475 0.0
C3342 C 0.10947 0.76841 0.34625 0.0
C3343 C 0.11294 0.69979 0.32275 0.0
H3344 H 0.17773 0.73412 0.33061 0.0
H3345 H 0.15264 0.70854 0.38011 0.0
H3346 H 0.13812 0.73737 0.30326 0.0
H3347 H 0.13897 0.76023 0.31466 0.0
H3348 H 0.16058 0.74895 0.30704 0.0
H3349 H 0.11988 0.71985 0.3887 0.0
H3350 H 0.10381 0.72768 0.37023 0.0
H3351 H 0.1118 0.70328 0.37109 0.0
H3352 H 0.09065 0.77271 0.31305 0.0
H3353 H 0.09335 0.71479 0.29361 0.0
H3354 H 0.12321 0.77495 0.34211 0.0
H3355 H 0.11109 0.76245 0.3608 0.0
H3356 H 0.09852 0.77982 0.34648 0.0
H3357 H 0.12791 0.69902 0.31781 0.0
H3358 H 0.10431 0.68983 0.31398 0.0
H3359 H 0.11253 0.69501 0.33777 0.0
C3360 C 0.25506 0.81624 0.59599 0.0
C3361 C 0.24653 0.79949 0.60271 0.0
C3362 C 0.25 0.8341 0.60374 0.0
C3363 C 0.23651 0.83494 0.61872 0.0
C3364 C 0.22618 0.81829 0.62357 0.0
C3365 C 0.23123 0.80084 0.61535 0.0
C3366 C 0.26038 0.85165 0.5971 0.0
C3367 C 0.21143 0.81831 0.63922 0.0
C3368 C 0.24357 0.85985 0.66511 0.0
C3369 C 0.22633 0.86972 0.66655 0.0
C3370 C 0.2486 0.85042 0.64828 0.0
C3371 C 0.23618 0.85121 0.63241 0.0
C3372 C 0.22064 0.86406 0.63275 0.0
C3373 C 0.21569 0.87307 0.65 0.0
C3374 C 0.26566 0.83733 0.64859 0.0
C3375 C 0.20794 0.86657 0.61565 0.0
H3376 H 0.26678 0.81529 0.58602 0.0
H3377 H 0.22435 0.7879 0.62023 0.0
H3378 H 0.2521 0.86483 0.59988 0.0
H3379 H 0.27418 0.85275 0.60466 0.0
H3380 H 0.2635 0.85068 0.58162 0.0
H3381 H 0.20402 0.80439 0.64046 0.0
H3382 H 0.21832 0.82152 0.65308 0.0
H3383 H 0.20062 0.82948 0.63658 0.0
H3384 H 0.25203 0.85763 0.67783 0.0
H3385 H 0.20246 0.88095 0.65093 0.0
H3386 H 0.27443 0.83942 0.63568 0.0
H3387 H 0.26082 0.82227 0.64871 0.0
H3388 H 0.27475 0.83974 0.6613 0.0
H3389 H 0.2158 0.86408 0.60218 0.0
H3390 H 0.20173 0.88113 0.61542 0.0
H3391 H 0.19603 0.85625 0.61638 0.0
C3392 C 0.15257 0.25214 0.59787 0.0
C3393 C 0.16633 0.25785 0.61118 0.0
C3394 C 0.13627 0.24188 0.60374 0.0
C3395 C 0.13383 0.23734 0.62329 0.0
C3396 C 0.14741 0.24374 0.63673 0.0
C3397 C 0.16325 0.25386 0.63053 0.0
C3398 C 0.12167 0.23608 0.58912 0.0
C3399 C 0.1457 0.23937 0.65778 0.0
C3400 C 0.09528 0.22144 0.65577 0.0
C3401 C 0.10252 0.2034 0.66021 0.0
C3402 C 0.10308 0.23197 0.64059 0.0
C3403 C 0.1186 0.2243 0.63021 0.0
C3404 C 0.12332 0.20482 0.63254 0.0
C3405 C 0.11525 0.19463 0.64763 0.0
C3406 C 0.09679 0.25229 0.6377 0.0
C3407 C 0.13937 0.19575 0.62154 0.0
H3408 H 0.15461 0.25548 0.58295 0.0
H3409 H 0.1735 0.25841 0.64112 0.0
H3410 H 0.11711 0.22111 0.59123 0.0
H3411 H 0.10889 0.2452 0.59078 0.0
H3412 H 0.12708 0.23773 0.57436 0.0
H3413 H 0.15759 0.24544 0.66626 0.0
H3414 H 0.13224 0.24526 0.66349 0.0
H3415 H 0.14554 0.22373 0.66007 0.0
H3416 H 0.08524 0.22818 0.66536 0.0
H3417 H 0.12059 0.18049 0.65092 0.0
H3418 H 0.09801 0.25643 0.62251 0.0
H3419 H 0.10603 0.26192 0.64617 0.0
H3420 H 0.08189 0.25439 0.64248 0.0
H3421 H 0.1394 0.20053 0.6065 0.0
H3422 H 0.13848 0.17994 0.62186 0.0
H3423 H 0.15311 0.20005 0.62803 0.0
C3424 C 0.76038 0.10054 0.64327 0.0
C3425 C 0.74918 0.09664 0.65928 0.0
C3426 C 0.75272 0.1105 0.62768 0.0
C3427 C 0.73365 0.11691 0.62851 0.0
C3428 C 0.7216 0.10987 0.64305 0.0
C3429 C 0.72959 0.09988 0.65839 0.0
C3430 C 0.76578 0.11677 0.61189 0.0
C3431 C 0.701 0.11567 0.6442 0.0
C3432 C 0.72535 0.16962 0.62202 0.0
C3433 C 0.71315 0.17023 0.60626 0.0
C3434 C 0.73282 0.15245 0.62868 0.0
C3435 C 0.72839 0.13522 0.61908 0.0
C3436 C 0.7175 0.13588 0.60206 0.0
C3437 C 0.70983 0.15345 0.59589 0.0
C3438 C 0.74441 0.15274 0.64685 0.0
C3439 C 0.71301 0.11806 0.59093 0.0
H3440 H 0.77558 0.09807 0.64394 0.0
H3441 H 0.72094 0.09687 0.67081 0.0
H3442 H 0.75803 0.11768 0.59815 0.0
H3443 H 0.77149 0.13114 0.61524 0.0
H3444 H 0.77798 0.10684 0.61031 0.0
H3445 H 0.69286 0.10628 0.65396 0.0
H3446 H 0.70004 0.13052 0.64962 0.0
H3447 H 0.69428 0.11525 0.62993 0.0
H3448 H 0.7283 0.18262 0.62987 0.0
H3449 H 0.70047 0.15383 0.58363 0.0
H3450 H 0.75849 0.14609 0.64442 0.0
H3451 H 0.73706 0.14441 0.65806 0.0
H3452 H 0.74672 0.16742 0.65234 0.0
H3453 H 0.72425 0.10708 0.59257 0.0
H3454 H 0.71124 0.12132 0.57555 0.0
H3455 H 0.69942 0.11199 0.59612 0.0
C3456 C 0.81232 0.71357 0.59587 0.0
C3457 C 0.79657 0.72573 0.59747 0.0
C3458 C 0.82935 0.71784 0.60553 0.0
C3459 C 0.83023 0.7343 0.61722 0.0
C3460 C 0.81557 0.7481 0.61595 0.0
C3461 C 0.79891 0.74363 0.60599 0.0
C3462 C 0.84537 0.70359 0.60515 0.0
C3463 C 0.8161 0.76626 0.62751 0.0
C3464 C 0.84291 0.73075 0.66896 0.0
C3465 C 0.85703 0.74472 0.67056 0.0
C3466 C 0.83538 0.72568 0.65124 0.0
C3467 C 0.84249 0.7345 0.63455 0.0
C3468 C 0.85867 0.74648 0.63587 0.0
C3469 C 0.86567 0.75166 0.65397 0.0
C3470 C 0.81831 0.71258 0.65076 0.0
C3471 C 0.86767 0.75513 0.61845 0.0
H3472 H 0.8107 0.69979 0.58904 0.0
H3473 H 0.78683 0.75321 0.60686 0.0
H3474 H 0.8593 0.71066 0.60747 0.0
H3475 H 0.84328 0.69295 0.61661 0.0
H3476 H 0.84569 0.69581 0.59136 0.0
H3477 H 0.80457 0.77628 0.62341 0.0
H3478 H 0.81447 0.76281 0.64285 0.0
H3479 H 0.82992 0.77357 0.62567 0.0
H3480 H 0.83654 0.72495 0.68177 0.0
H3481 H 0.87683 0.76226 0.65507 0.0
H3482 H 0.82072 0.70071 0.64062 0.0
H3483 H 0.80561 0.72059 0.64587 0.0
H3484 H 0.8151 0.70637 0.66494 0.0
H3485 H 0.86433 0.74695 0.60533 0.0
H3486 H 0.88334 0.75583 0.62019 0.0
H3487 H 0.86248 0.76996 0.61667 0.0
C3488 C 0.3106 0.2144 0.09936 0.0
C3489 C 0.29258 0.22044 0.10538 0.0
C3490 C 0.32715 0.22204 0.10774 0.0
C3491 C 0.32545 0.23573 0.12253 0.0
C3492 C 0.30733 0.24337 0.1269 0.0
C3493 C 0.29118 0.2357 0.11819 0.0
C3494 C 0.34623 0.21415 0.10199 0.0
C3495 C 0.30467 0.25813 0.14239 0.0
C3496 C 0.35173 0.23479 0.16888 0.0
C3497 C 0.36032 0.25276 0.1688 0.0
C3498 C 0.34233 0.22783 0.15274 0.0
C3499 C 0.3413 0.23929 0.13618 0.0
C3500 C 0.35209 0.25633 0.13525 0.0
C3501 C 0.36151 0.26295 0.15169 0.0
C3502 C 0.33143 0.20936 0.15436 0.0
C3503 C 0.35199 0.26861 0.11765 0.0
H3504 H 0.31177 0.20268 0.08934 0.0
H3505 H 0.27725 0.24064 0.12259 0.0
H3506 H 0.3576 0.225 0.10353 0.0
H3507 H 0.34985 0.2019 0.11127 0.0
H3508 H 0.34598 0.20898 0.08703 0.0
H3509 H 0.28994 0.26383 0.14277 0.0
H3510 H 0.30783 0.25164 0.15645 0.0
H3511 H 0.3146 0.27021 0.14036 0.0
H3512 H 0.35095 0.22689 0.18213 0.0
H3513 H 0.36813 0.2769 0.15162 0.0
H3514 H 0.33362 0.20041 0.14154 0.0
H3515 H 0.316 0.2125 0.15546 0.0
H3516 H 0.33572 0.20102 0.1671 0.0
H3517 H 0.35133 0.25977 0.10455 0.0
H3518 H 0.36478 0.27786 0.11705 0.0
H3519 H 0.33927 0.27797 0.11786 0.0
C3520 C 0.36407 0.71751 0.80808 0.0
C3521 C 0.35302 0.70344 0.79922 0.0
C3522 C 0.35678 0.7278 0.82375 0.0
C3523 C 0.33796 0.72422 0.83006 0.0
C3524 C 0.32806 0.7082 0.82281 0.0
C3525 C 0.33585 0.69792 0.80767 0.0
C3526 C 0.36864 0.7435 0.83232 0.0
C3527 C 0.30814 0.70335 0.82925 0.0
C3528 C 0.30417 0.74783 0.86476 0.0
C3529 C 0.2942 0.75963 0.85212 0.0
C3530 C 0.32048 0.73784 0.85861 0.0
C3531 C 0.3265 0.73948 0.83939 0.0
C3532 C 0.31774 0.75316 0.82746 0.0
C3533 C 0.30185 0.7631 0.83403 0.0
C3534 C 0.33035 0.72468 0.87237 0.0
C3535 C 0.32382 0.75598 0.807 0.0
H3536 H 0.37764 0.72149 0.80198 0.0
H3537 H 0.32761 0.68649 0.80131 0.0
H3538 H 0.36839 0.75611 0.82282 0.0
H3539 H 0.36342 0.74779 0.84662 0.0
H3540 H 0.38368 0.73884 0.83355 0.0
H3541 H 0.30276 0.69002 0.82262 0.0
H3542 H 0.30776 0.70161 0.84491 0.0
H3543 H 0.2983 0.71513 0.82547 0.0
H3544 H 0.29869 0.74552 0.87899 0.0
H3545 H 0.29468 0.77287 0.82447 0.0
H3546 H 0.34497 0.72104 0.86766 0.0
H3547 H 0.32204 0.71134 0.87384 0.0
H3548 H 0.33109 0.73136 0.88671 0.0
H3549 H 0.33908 0.75975 0.80639 0.0
H3550 H 0.31564 0.76743 0.79979 0.0
H3551 H 0.32183 0.74255 0.79885 0.0
C3552 C 0.20949 0.31729 0.86926 0.0
C3553 C 0.21991 0.30033 0.86775 0.0
C3554 C 0.21589 0.33398 0.86014 0.0
C3555 C 0.23269 0.33328 0.84903 0.0
C3556 C 0.24469 0.3171 0.85038 0.0
C3557 C 0.23812 0.30082 0.85979 0.0
C3558 C 0.20351 0.3515 0.8604 0.0
C3559 C 0.26308 0.3158 0.83938 0.0
C3560 C 0.23228 0.34709 0.79748 0.0
C3561 C 0.24739 0.36001 0.79667 0.0
C3562 C 0.22591 0.33979 0.81484 0.0
C3563 C 0.23478 0.34576 0.83198 0.0
C3564 C 0.24832 0.36073 0.83143 0.0
C3565 C 0.25464 0.36763 0.81366 0.0
C3566 C 0.2112 0.32408 0.8145 0.0
C3567 C 0.25734 0.36841 0.84933 0.0
H3568 H 0.19544 0.31701 0.87559 0.0
H3569 H 0.24628 0.28772 0.85891 0.0
H3570 H 0.21216 0.36466 0.859 0.0
H3571 H 0.19341 0.35096 0.84829 0.0
H3572 H 0.19509 0.35227 0.87375 0.0
H3573 H 0.27168 0.30323 0.84365 0.0
H3574 H 0.25992 0.31462 0.82393 0.0
H3575 H 0.27171 0.32882 0.84158 0.0
H3576 H 0.22642 0.34149 0.78432 0.0
H3577 H 0.26623 0.37779 0.81311 0.0
H3578 H 0.19941 0.32743 0.82439 0.0
H3579 H 0.21774 0.31048 0.81922 0.0
H3580 H 0.2051 0.32185 0.80007 0.0
H3581 H 0.24835 0.36591 0.86206 0.0
H3582 H 0.26004 0.38395 0.84794 0.0
H3583 H 0.27128 0.36137 0.85157 0.0
C3584 C 0.61103 0.22675 0.79897 0.0
C3585 C 0.60022 0.24344 0.79752 0.0
C3586 C 0.61971 0.22165 0.81614 0.0
C3587 C 0.61718 0.23339 0.8324 0.0
C3588 C 0.60357 0.24829 0.83177 0.0
C3589 C 0.59537 0.25338 0.81417 0.0
C3590 C 0.63369 0.20528 0.81602 0.0
C3591 C 0.5991 0.26013 0.84912 0.0
C3592 C 0.6508 0.21329 0.86903 0.0
C3593 C 0.66742 0.22288 0.86363 0.0
C3594 C 0.63311 0.21851 0.86113 0.0
C3595 C 0.63237 0.23315 0.84724 0.0
C3596 C 0.64869 0.24458 0.84413 0.0
C3597 C 0.66593 0.2394 0.85257 0.0
C3598 C 0.61573 0.20709 0.86625 0.0
C3599 C 0.64873 0.26066 0.82981 0.0
H3600 H 0.61443 0.21883 0.78613 0.0
H3601 H 0.58677 0.26617 0.81319 0.0
H3602 H 0.64835 0.21084 0.81785 0.0
H3603 H 0.63076 0.19544 0.82798 0.0
H3604 H 0.63314 0.19698 0.80254 0.0
H3605 H 0.58387 0.26432 0.84913 0.0
H3606 H 0.60233 0.25237 0.8625 0.0
H3607 H 0.6076 0.27344 0.84882 0.0
H3608 H 0.65179 0.20066 0.87785 0.0
H3609 H 0.67876 0.24708 0.84877 0.0
H3610 H 0.61558 0.19363 0.85794 0.0
H3611 H 0.60243 0.21505 0.86325 0.0
H3612 H 0.61605 0.20317 0.88157 0.0
H3613 H 0.6464 0.25485 0.81529 0.0
H3614 H 0.66233 0.26868 0.82984 0.0
H3615 H 0.63706 0.2708 0.8329 0.0
C3616 C 0.73523 0.6041 0.80294 0.0
C3617 C 0.71607 0.59881 0.80279 0.0
C3618 C 0.74291 0.6142 0.81837 0.0
C3619 C 0.731 0.61917 0.83387 0.0
C3620 C 0.71268 0.61091 0.83516 0.0
C3621 C 0.70529 0.60092 0.81942 0.0
C3622 C 0.76272 0.62219 0.81654 0.0
C3623 C 0.69991 0.61497 0.8519 0.0
C3624 C 0.75471 0.65472 0.86747 0.0
C3625 C 0.74998 0.67188 0.85841 0.0
C3626 C 0.74736 0.63722 0.86076 0.0
C3627 C 0.73531 0.63706 0.84456 0.0
C3628 C 0.72925 0.65458 0.83656 0.0
C3629 C 0.73655 0.67168 0.84369 0.0
C3630 C 0.75358 0.61899 0.87024 0.0
C3631 C 0.7163 0.65535 0.81937 0.0
H3632 H 0.74353 0.60249 0.79002 0.0
H3633 H 0.69042 0.59689 0.8193 0.0
H3634 H 0.76185 0.63743 0.81238 0.0
H3635 H 0.77037 0.6214 0.83031 0.0
H3636 H 0.77113 0.61448 0.80557 0.0
H3637 H 0.68888 0.60375 0.85347 0.0
H3638 H 0.70823 0.61598 0.8653 0.0
H3639 H 0.6926 0.62881 0.8497 0.0
H3640 H 0.76504 0.6548 0.87893 0.0
H3641 H 0.73258 0.68497 0.83689 0.0
H3642 H 0.76691 0.61391 0.86352 0.0
H3643 H 0.74272 0.60762 0.86878 0.0
H3644 H 0.75652 0.62138 0.8856 0.0
H3645 H 0.72341 0.64859 0.80698 0.0
H3646 H 0.71245 0.67019 0.81541 0.0
H3647 H 0.70301 0.64736 0.82216 0.0
C3648 C 0.65035 0.76708 0.11673 0.0
C3649 C 0.66409 0.75751 0.10594 0.0
C3650 C 0.63544 0.75711 0.12542 0.0
C3651 C 0.63448 0.73704 0.1234 0.0
C3652 C 0.64685 0.72775 0.11041 0.0
C3653 C 0.66165 0.73814 0.10184 0.0
C3654 C 0.62253 0.76772 0.13893 0.0
C3655 C 0.64609 0.70646 0.10751 0.0
C3656 C 0.625 0.71142 0.16983 0.0
C3657 C 0.60577 0.70649 0.16826 0.0
C3658 C 0.63441 0.72105 0.15519 0.0
C3659 C 0.62445 0.72575 0.13829 0.0
C3660 C 0.60509 0.72052 0.1364 0.0
C3661 C 0.5959 0.71104 0.15151 0.0
C3662 C 0.655 0.72653 0.15804 0.0
C3663 C 0.59414 0.72496 0.11847 0.0
H3664 H 0.65237 0.78207 0.11998 0.0
H3665 H 0.67243 0.7307 0.09367 0.0
H3666 H 0.60779 0.76223 0.13813 0.0
H3667 H 0.62765 0.76562 0.15373 0.0
H3668 H 0.62238 0.78326 0.13593 0.0
H3669 H 0.65311 0.70218 0.094 0.0
H3670 H 0.65358 0.69932 0.11944 0.0
H3671 H 0.6312 0.70128 0.1074 0.0
H3672 H 0.63273 0.708 0.18272 0.0
H3673 H 0.58107 0.7071 0.15018 0.0
H3674 H 0.65655 0.74225 0.15726 0.0
H3675 H 0.66387 0.72026 0.14658 0.0
H3676 H 0.66068 0.72166 0.17197 0.0
H3677 H 0.59404 0.74056 0.11591 0.0
H3678 H 0.57923 0.71983 0.11917 0.0
H3679 H 0.60122 0.71822 0.10606 0.0
C3680 C 0.23024 0.61865 0.17223 0.0
C3681 C 0.24695 0.60786 0.17157 0.0
C3682 C 0.22299 0.62731 0.15585 0.0
C3683 C 0.23274 0.6251 0.13833 0.0
C3684 C 0.24809 0.61205 0.13713 0.0
C3685 C 0.25515 0.60359 0.15389 0.0
C3686 C 0.20636 0.64081 0.15792 0.0
C3687 C 0.25833 0.60856 0.11861 0.0
C3688 C 0.2069 0.65496 0.1019 0.0
C3689 C 0.21517 0.67273 0.10572 0.0
C3690 C 0.21404 0.63833 0.11057 0.0
C3691 C 0.22959 0.63976 0.12332 0.0
C3692 C 0.23944 0.6573 0.125 0.0
C3693 C 0.23203 0.67358 0.11622 0.0
C3694 C 0.20368 0.61974 0.10767 0.0
C3695 C 0.25635 0.65955 0.13808 0.0
H3696 H 0.22381 0.62176 0.18593 0.0
H3697 H 0.26807 0.59519 0.15335 0.0
H3698 H 0.21144 0.65574 0.15664 0.0
H3699 H 0.19579 0.63834 0.14649 0.0
H3700 H 0.19914 0.63925 0.17189 0.0
H3701 H 0.26491 0.59417 0.1184 0.0
H3702 H 0.2486 0.60994 0.10625 0.0
H3703 H 0.26986 0.61921 0.11698 0.0
H3704 H 0.19385 0.65429 0.09371 0.0
H3705 H 0.23852 0.68734 0.11897 0.0
H3706 H 0.19277 0.61807 0.11893 0.0
H3707 H 0.21355 0.60743 0.10859 0.0
H3708 H 0.19635 0.61942 0.09366 0.0
H3709 H 0.25156 0.65871 0.15311 0.0
H3710 H 0.26368 0.67341 0.136 0.0
H3711 H 0.26675 0.64792 0.1357 0.0
C3712 C 0.71636 0.36381 0.15707 0.0
C3713 C 0.69909 0.3567 0.16404 0.0
C3714 C 0.72778 0.35275 0.14486 0.0
C3715 C 0.72188 0.33411 0.13976 0.0
C3716 C 0.70431 0.32705 0.14649 0.0
C3717 C 0.6931 0.33846 0.15838 0.0
C3718 C 0.74638 0.36078 0.13782 0.0
C3719 C 0.69761 0.30714 0.14168 0.0
C3720 C 0.74214 0.30602 0.0981 0.0
C3721 C 0.7538 0.29293 0.10758 0.0
C3722 C 0.73225 0.32017 0.1083 0.0
C3723 C 0.73439 0.32136 0.12833 0.0
C3724 C 0.747 0.3088 0.13777 0.0
C3725 C 0.75642 0.29466 0.12729 0.0
C3726 C 0.7188 0.33319 0.09778 0.0
C3727 C 0.74986 0.30967 0.15907 0.0
H3728 H 0.72105 0.3779 0.16136 0.0
H3729 H 0.67983 0.33276 0.16373 0.0
H3730 H 0.75835 0.35235 0.14373 0.0
H3731 H 0.74719 0.35964 0.12209 0.0
H3732 H 0.74831 0.37594 0.14197 0.0
H3733 H 0.68322 0.30411 0.14741 0.0
H3734 H 0.69733 0.30509 0.12602 0.0
H3735 H 0.70766 0.29652 0.14763 0.0
H3736 H 0.74013 0.30472 0.08285 0.0
H3737 H 0.76572 0.28476 0.13462 0.0
H3738 H 0.72141 0.34826 0.10182 0.0
H3739 H 0.70395 0.32977 0.10183 0.0
H3740 H 0.72017 0.33176 0.08209 0.0
H3741 H 0.75297 0.32449 0.16364 0.0
H3742 H 0.76162 0.30028 0.1639 0.0
H3743 H 0.73661 0.30519 0.16636 0.0
loop_
_geom_bond_atom_site_label_1
_geom_bond_atom_site_label_2
_geom_bond_distance
_geom_bond_site_symmetry_2
_ccdc_geom_bond_type
Zn0 O3 2.031 . S
Zn0 O5 2.049 . S
Zn0 O10 2.067 . S
Zn1 O2 1.962 . S
Zn1 O4 1.986 . S
Zn1 O6 1.996 . S
Zn1 O9 1.943 . S
O2 Zn1 1.962 . S
O2 C7 1.254 . S
O3 Zn0 2.031 . S
O3 C7 1.269 . S
O4 Zn1 1.986 . S
O4 C11 1.262 . S
O5 Zn0 2.049 . S
O5 C13 1.260 . S
O6 Zn1 1.996 . S
O6 C13 1.257 . S
C7 O2 1.254 . S
C7 O3 1.269 . S
C8 O9 1.249 . S
C8 O10 1.270 . S
O9 Zn1 1.943 . S
O9 C8 1.249 . S
O10 Zn0 2.067 . S
O10 C8 1.270 . S
C11 O4 1.262 . S
C11 O12 1.232 . S
O12 C11 1.232 . S
C13 O5 1.260 . S
C13 O6 1.257 . S
Zn14 O17 2.031 . S
Zn14 O19 2.049 . S
Zn14 O24 2.067 . S
Zn15 O16 1.962 . S
Zn15 O18 1.986 . S
Zn15 O20 1.996 . S
Zn15 O23 1.943 . S
O16 Zn15 1.962 . S
O16 C21 1.254 . S
O17 Zn14 2.031 . S
O17 C21 1.269 . S
O18 Zn15 1.986 . S
O18 C25 1.262 . S
O19 Zn14 2.049 . S
O19 C27 1.260 . S
O20 Zn15 1.996 . S
O20 C27 1.257 . S
C21 O16 1.254 . S
C21 O17 1.269 . S
C22 O23 1.249 . S
C22 O24 1.270 . S
O23 Zn15 1.943 . S
O23 C22 1.249 . S
O24 Zn14 2.067 . S
O24 C22 1.270 . S
C25 O18 1.262 . S
C25 O26 1.232 . S
O26 C25 1.232 . S
C27 O19 1.260 . S
C27 O20 1.257 . S
Zn28 O31 2.031 . S
Zn28 O33 2.049 . S
Zn28 O38 2.067 . S
Zn29 O30 1.962 . S
Zn29 O32 1.986 . S
Zn29 O34 1.996 . S
Zn29 O37 1.943 . S
O30 Zn29 1.962 . S
O30 C35 1.254 . S
O31 Zn28 2.031 . S
O31 C35 1.269 . S
O32 Zn29 1.986 . S
O32 C39 1.262 . S
O33 Zn28 2.049 . S
O33 C41 1.260 . S
O34 Zn29 1.996 . S
O34 C41 1.257 . S
C35 O30 1.254 . S
C35 O31 1.269 . S
C36 O37 1.249 . S
C36 O38 1.270 . S
O37 Zn29 1.943 . S
O37 C36 1.249 . S
O38 Zn28 2.067 . S
O38 C36 1.270 . S
C39 O32 1.262 . S
C39 O40 1.232 . S
O40 C39 1.232 . S
C41 O33 1.260 . S
C41 O34 1.257 . S
Zn42 O45 2.031 . S
Zn42 O47 2.049 . S
Zn42 O52 2.067 . S
Zn43 O44 1.962 . S
Zn43 O46 1.986 . S
Zn43 O48 1.996 . S
Zn43 O51 1.943 . S
O44 Zn43 1.962 . S
O44 C49 1.254 . S
O45 Zn42 2.031 . S
O45 C49 1.269 . S
O46 Zn43 1.986 . S
O46 C53 1.262 . S
O47 Zn42 2.049 . S
O47 C55 1.260 . S
O48 Zn43 1.996 . S
O48 C55 1.257 . S
C49 O44 1.254 . S
C49 O45 1.269 . S
C50 O51 1.249 . S
C50 O52 1.270 . S
O51 Zn43 1.943 . S
O51 C50 1.249 . S
O52 Zn42 2.067 . S
O52 C50 1.270 . S
C53 O46 1.262 . S
C53 O54 1.232 . S
O54 C53 1.232 . S
C55 O47 1.260 . S
C55 O48 1.257 . S
Zn56 O59 2.031 . S
Zn56 O61 2.049 . S
Zn56 O66 2.067 . S
Zn57 O58 1.962 . S
Zn57 O60 1.986 . S
Zn57 O62 1.996 . S
Zn57 O65 1.943 . S
O58 Zn57 1.962 . S
O58 C63 1.254 . S
O59 Zn56 2.031 . S
O59 C63 1.269 . S
O60 Zn57 1.986 . S
O60 C67 1.262 . S
O61 Zn56 2.049 . S
O61 C69 1.260 . S
O62 Zn57 1.996 . S
O62 C69 1.257 . S
C63 O58 1.254 . S
C63 O59 1.269 . S
C64 O65 1.249 . S
C64 O66 1.270 . S
O65 Zn57 1.943 . S
O65 C64 1.249 . S
O66 Zn56 2.067 . S
O66 C64 1.270 . S
C67 O60 1.262 . S
C67 O68 1.232 . S
O68 C67 1.232 . S
C69 O61 1.260 . S
C69 O62 1.257 . S
Zn70 O73 2.031 . S
Zn70 O75 2.049 . S
Zn70 O80 2.067 . S
Zn71 O72 1.962 . S
Zn71 O74 1.986 . S
Zn71 O76 1.996 . S
Zn71 O79 1.943 . S
O72 Zn71 1.962 . S
O72 C77 1.254 . S
O73 Zn70 2.031 . S
O73 C77 1.269 . S
O74 Zn71 1.986 . S
O74 C81 1.262 . S
O75 Zn70 2.049 . S
O75 C83 1.260 . S
O76 Zn71 1.996 . S
O76 C83 1.257 . S
C77 O72 1.254 . S
C77 O73 1.269 . S
C78 O79 1.249 . S
C78 O80 1.270 . S
O79 Zn71 1.943 . S
O79 C78 1.249 . S
O80 Zn70 2.067 . S
O80 C78 1.270 . S
C81 O74 1.262 . S
C81 O82 1.232 . S
O82 C81 1.232 . S
C83 O75 1.260 . S
C83 O76 1.257 . S
Zn84 O87 2.031 . S
Zn84 O89 2.049 . S
Zn84 O94 2.067 . S
Zn85 O86 1.962 . S
Zn85 O88 1.986 . S
Zn85 O90 1.996 . S
Zn85 O93 1.943 . S
O86 Zn85 1.962 . S
O86 C91 1.254 . S
O87 Zn84 2.031 . S
O87 C91 1.269 . S
O88 Zn85 1.986 . S
O88 C95 1.262 . S
O89 Zn84 2.049 . S
O89 C97 1.260 . S
O90 Zn85 1.996 . S
O90 C97 1.257 . S
C91 O86 1.254 . S
C91 O87 1.269 . S
C92 O93 1.249 . S
C92 O94 1.270 . S
O93 Zn85 1.943 . S
O93 C92 1.249 . S
O94 Zn84 2.067 . S
O94 C92 1.270 . S
C95 O88 1.262 . S
C95 O96 1.232 . S
O96 C95 1.232 . S
C97 O89 1.260 . S
C97 O90 1.257 . S
Zn98 O101 2.031 . S
Zn98 O103 2.049 . S
Zn98 O108 2.067 . S
Zn99 O100 1.962 . S
Zn99 O102 1.986 . S
Zn99 O104 1.996 . S
Zn99 O107 1.943 . S
O100 Zn99 1.962 . S
O100 C105 1.254 . S
O101 Zn98 2.031 . S
O101 C105 1.269 . S
O102 Zn99 1.986 . S
O102 C109 1.262 . S
O103 Zn98 2.049 . S
O103 C111 1.260 . S
O104 Zn99 1.996 . S
O104 C111 1.257 . S
C105 O100 1.254 . S
C105 O101 1.269 . S
C106 O107 1.249 . S
C106 O108 1.270 . S
O107 Zn99 1.943 . S
O107 C106 1.249 . S
O108 Zn98 2.067 . S
O108 C106 1.270 . S
C109 O102 1.262 . S
C109 O110 1.232 . S
O110 C109 1.232 . S
C111 O103 1.260 . S
C111 O104 1.257 . S
Zn112 O115 2.031 . S
Zn112 O117 2.049 . S
Zn112 O122 2.067 . S
Zn113 O114 1.962 . S
Zn113 O116 1.986 . S
Zn113 O118 1.996 . S
Zn113 O121 1.943 . S
O114 Zn113 1.962 . S
O114 C119 1.254 . S
O115 Zn112 2.031 . S
O115 C119 1.269 . S
O116 Zn113 1.986 . S
O116 C123 1.262 . S
O117 Zn112 2.049 . S
O117 C125 1.260 . S
O118 Zn113 1.996 . S
O118 C125 1.257 . S
C119 O114 1.254 . S
C119 O115 1.269 . S
C120 O121 1.249 . S
C120 O122 1.270 . S
O121 Zn113 1.943 . S
O121 C120 1.249 . S
O122 Zn112 2.067 . S
O122 C120 1.270 . S
C123 O116 1.262 . S
C123 O124 1.232 . S
O124 C123 1.232 . S
C125 O117 1.260 . S
C125 O118 1.257 . S
Zn126 O129 2.031 . S
Zn126 O131 2.049 . S
Zn126 O136 2.067 . S
Zn127 O128 1.962 . S
Zn127 O130 1.986 . S
Zn127 O132 1.996 . S
Zn127 O135 1.943 . S
O128 Zn127 1.962 . S
O128 C133 1.254 . S
O129 Zn126 2.031 . S
O129 C133 1.269 . S
O130 Zn127 1.986 . S
O130 C137 1.262 . S
O131 Zn126 2.049 . S
O131 C139 1.260 . S
O132 Zn127 1.996 . S
O132 C139 1.257 . S
C133 O128 1.254 . S
C133 O129 1.269 . S
C134 O135 1.249 . S
C134 O136 1.270 . S
O135 Zn127 1.943 . S
O135 C134 1.249 . S
O136 Zn126 2.067 . S
O136 C134 1.270 . S
C137 O130 1.262 . S
C137 O138 1.232 . S
O138 C137 1.232 . S
C139 O131 1.260 . S
C139 O132 1.257 . S
Zn140 O143 2.031 . S
Zn140 O145 2.049 . S
Zn140 O150 2.067 . S
Zn141 O142 1.962 . S
Zn141 O144 1.986 . S
Zn141 O146 1.996 . S
Zn141 O149 1.943 . S
O142 Zn141 1.962 . S
O142 C147 1.254 . S
O143 Zn140 2.031 . S
O143 C147 1.269 . S
O144 Zn141 1.986 . S
O144 C151 1.262 . S
O145 Zn140 2.049 . S
O145 C153 1.260 . S
O146 Zn141 1.996 . S
O146 C153 1.257 . S
C147 O142 1.254 . S
C147 O143 1.269 . S
C148 O149 1.249 . S
C148 O150 1.270 . S
O149 Zn141 1.943 . S
O149 C148 1.249 . S
O150 Zn140 2.067 . S
O150 C148 1.270 . S
C151 O144 1.262 . S
C151 O152 1.232 . S
O152 C151 1.232 . S
C153 O145 1.260 . S
C153 O146 1.257 . S
Zn154 O157 2.031 . S
Zn154 O159 2.049 . S
Zn154 O164 2.067 . S
Zn155 O156 1.962 . S
Zn155 O158 1.986 . S
Zn155 O160 1.996 . S
Zn155 O163 1.943 . S
O156 Zn155 1.962 . S
O156 C161 1.254 . S
O157 Zn154 2.031 . S
O157 C161 1.269 . S
O158 Zn155 1.986 . S
O158 C165 1.262 . S
O159 Zn154 2.049 . S
O159 C167 1.260 . S
O160 Zn155 1.996 . S
O160 C167 1.257 . S
C161 O156 1.254 . S
C161 O157 1.269 . S
C162 O163 1.249 . S
C162 O164 1.270 . S
O163 Zn155 1.943 . S
O163 C162 1.249 . S
O164 Zn154 2.067 . S
O164 C162 1.270 . S
C165 O158 1.262 . S
C165 O166 1.232 . S
O166 C165 1.232 . S
C167 O159 1.260 . S
C167 O160 1.257 . S
Zn168 O171 2.031 . S
Zn168 O173 2.049 . S
Zn168 O178 2.067 . S
Zn169 O170 1.962 . S
Zn169 O172 1.986 . S
Zn169 O174 1.996 . S
Zn169 O177 1.943 . S
O170 Zn169 1.962 . S
O170 C175 1.254 . S
O171 Zn168 2.031 . S
O171 C175 1.269 . S
O172 Zn169 1.986 . S
O172 C179 1.262 . S
O173 Zn168 2.049 . S
O173 C181 1.260 . S
O174 Zn169 1.996 . S
O174 C181 1.257 . S
C175 O170 1.254 . S
C175 O171 1.269 . S
C176 O177 1.249 . S
C176 O178 1.270 . S
O177 Zn169 1.943 . S
O177 C176 1.249 . S
O178 Zn168 2.067 . S
O178 C176 1.270 . S
C179 O172 1.262 . S
C179 O180 1.232 . S
O180 C179 1.232 . S
C181 O173 1.260 . S
C181 O174 1.257 . S
Zn182 O185 2.031 . S
Zn182 O187 2.049 . S
Zn182 O192 2.067 . S
Zn183 O184 1.962 . S
Zn183 O186 1.986 . S
Zn183 O188 1.996 . S
Zn183 O191 1.943 . S
O184 Zn183 1.962 . S
O184 C189 1.254 . S
O185 Zn182 2.031 . S
O185 C189 1.269 . S
O186 Zn183 1.986 . S
O186 C193 1.262 . S
O187 Zn182 2.049 . S
O187 C195 1.260 . S
O188 Zn183 1.996 . S
O188 C195 1.257 . S
C189 O184 1.254 . S
C189 O185 1.269 . S
C190 O191 1.249 . S
C190 O192 1.270 . S
O191 Zn183 1.943 . S
O191 C190 1.249 . S
O192 Zn182 2.067 . S
O192 C190 1.270 . S
C193 O186 1.262 . S
C193 O194 1.232 . S
O194 C193 1.232 . S
C195 O187 1.260 . S
C195 O188 1.257 . S
Zn196 O199 2.031 . S
Zn196 O201 2.049 . S
Zn196 O206 2.067 . S
Zn197 O198 1.962 . S
Zn197 O200 1.986 . S
Zn197 O202 1.996 . S
Zn197 O205 1.943 . S
O198 Zn197 1.962 . S
O198 C203 1.254 . S
O199 Zn196 2.031 . S
O199 C203 1.269 . S
O200 Zn197 1.986 . S
O200 C207 1.262 . S
O201 Zn196 2.049 . S
O201 C209 1.260 . S
O202 Zn197 1.996 . S
O202 C209 1.257 . S
C203 O198 1.254 . S
C203 O199 1.269 . S
C204 O205 1.249 . S
C204 O206 1.270 . S
O205 Zn197 1.943 . S
O205 C204 1.249 . S
O206 Zn196 2.067 . S
O206 C204 1.270 . S
C207 O200 1.262 . S
C207 O208 1.232 . S
O208 C207 1.232 . S
C209 O201 1.260 . S
C209 O202 1.257 . S
Zn210 O213 2.031 . S
Zn210 O215 2.049 . S
Zn210 O220 2.067 . S
Zn211 O212 1.962 . S
Zn211 O214 1.986 . S
Zn211 O216 1.996 . S
Zn211 O219 1.943 . S
O212 Zn211 1.962 . S
O212 C217 1.254 . S
O213 Zn210 2.031 . S
O213 C217 1.269 . S
O214 Zn211 1.986 . S
O214 C221 1.262 . S
O215 Zn210 2.049 . S
O215 C223 1.260 . S
O216 Zn211 1.996 . S
O216 C223 1.257 . S
C217 O212 1.254 . S
C217 O213 1.269 . S
C218 O219 1.249 . S
C218 O220 1.270 . S
O219 Zn211 1.943 . S
O219 C218 1.249 . S
O220 Zn210 2.067 . S
O220 C218 1.270 . S
C221 O214 1.262 . S
C221 O222 1.232 . S
O222 C221 1.232 . S
C223 O215 1.260 . S
C223 O216 1.257 . S
Zn224 O227 2.031 . S
Zn224 O229 2.049 . S
Zn224 O234 2.067 . S
Zn225 O226 1.962 . S
Zn225 O228 1.986 . S
Zn225 O230 1.996 . S
Zn225 O233 1.943 . S
O226 Zn225 1.962 . S
O226 C231 1.254 . S
O227 Zn224 2.031 . S
O227 C231 1.269 . S
O228 Zn225 1.986 . S
O228 C235 1.262 . S
O229 Zn224 2.049 . S
O229 C237 1.260 . S
O230 Zn225 1.996 . S
O230 C237 1.257 . S
C231 O226 1.254 . S
C231 O227 1.269 . S
C232 O233 1.249 . S
C232 O234 1.270 . S
O233 Zn225 1.943 . S
O233 C232 1.249 . S
O234 Zn224 2.067 . S
O234 C232 1.270 . S
C235 O228 1.262 . S
C235 O236 1.232 . S
O236 C235 1.232 . S
C237 O229 1.260 . S
C237 O230 1.257 . S
Zn238 O241 2.031 . S
Zn238 O243 2.049 . S
Zn238 O248 2.067 . S
Zn239 O240 1.962 . S
Zn239 O242 1.986 . S
Zn239 O244 1.996 . S
Zn239 O247 1.943 . S
O240 Zn239 1.962 . S
O240 C245 1.254 . S
O241 Zn238 2.031 . S
O241 C245 1.269 . S
O242 Zn239 1.986 . S
O242 C249 1.262 . S
O243 Zn238 2.049 . S
O243 C251 1.260 . S
O244 Zn239 1.996 . S
O244 C251 1.257 . S
C245 O240 1.254 . S
C245 O241 1.269 . S
C246 O247 1.249 . S
C246 O248 1.270 . S
O247 Zn239 1.943 . S
O247 C246 1.249 . S
O248 Zn238 2.067 . S
O248 C246 1.270 . S
C249 O242 1.262 . S
C249 O250 1.232 . S
O250 C249 1.232 . S
C251 O243 1.260 . S
C251 O244 1.257 . S
Zn252 O255 2.031 . S
Zn252 O257 2.049 . S
Zn252 O262 2.067 . S
Zn253 O254 1.962 . S
Zn253 O256 1.986 . S
Zn253 O258 1.996 . S
Zn253 O261 1.943 . S
O254 Zn253 1.962 . S
O254 C259 1.254 . S
O255 Zn252 2.031 . S
O255 C259 1.269 . S
O256 Zn253 1.986 . S
O256 C263 1.262 . S
O257 Zn252 2.049 . S
O257 C265 1.260 . S
O258 Zn253 1.996 . S
O258 C265 1.257 . S
C259 O254 1.254 . S
C259 O255 1.269 . S
C260 O261 1.249 . S
C260 O262 1.270 . S
O261 Zn253 1.943 . S
O261 C260 1.249 . S
O262 Zn252 2.067 . S
O262 C260 1.270 . S
C263 O256 1.262 . S
C263 O264 1.232 . S
O264 C263 1.232 . S
C265 O257 1.260 . S
C265 O258 1.257 . S
Zn266 O269 2.031 . S
Zn266 O271 2.049 . S
Zn266 O276 2.067 . S
Zn267 O268 1.962 . S
Zn267 O270 1.986 . S
Zn267 O272 1.996 . S
Zn267 O275 1.943 . S
O268 Zn267 1.962 . S
O268 C273 1.254 . S
O269 Zn266 2.031 . S
O269 C273 1.269 . S
O270 Zn267 1.986 . S
O270 C277 1.262 . S
O271 Zn266 2.049 . S
O271 C279 1.260 . S
O272 Zn267 1.996 . S
O272 C279 1.257 . S
C273 O268 1.254 . S
C273 O269 1.269 . S
C274 O275 1.249 . S
C274 O276 1.270 . S
O275 Zn267 1.943 . S
O275 C274 1.249 . S
O276 Zn266 2.067 . S
O276 C274 1.270 . S
C277 O270 1.262 . S
C277 O278 1.232 . S
O278 C277 1.232 . S
C279 O271 1.260 . S
C279 O272 1.257 . S
Zn280 O283 2.031 . S
Zn280 O285 2.049 . S
Zn280 O290 2.067 . S
Zn281 O282 1.962 . S
Zn281 O284 1.986 . S
Zn281 O286 1.996 . S
Zn281 O289 1.943 . S
O282 Zn281 1.962 . S
O282 C287 1.254 . S
O283 Zn280 2.031 . S
O283 C287 1.269 . S
O284 Zn281 1.986 . S
O284 C291 1.262 . S
O285 Zn280 2.049 . S
O285 C293 1.260 . S
O286 Zn281 1.996 . S
O286 C293 1.257 . S
C287 O282 1.254 . S
C287 O283 1.269 . S
C288 O289 1.249 . S
C288 O290 1.270 . S
O289 Zn281 1.943 . S
O289 C288 1.249 . S
O290 Zn280 2.067 . S
O290 C288 1.270 . S
C291 O284 1.262 . S
C291 O292 1.232 . S
O292 C291 1.232 . S
C293 O285 1.260 . S
C293 O286 1.257 . S
Zn294 O297 2.031 . S
Zn294 O299 2.049 . S
Zn294 O304 2.067 . S
Zn295 O296 1.962 . S
Zn295 O298 1.986 . S
Zn295 O300 1.996 . S
Zn295 O303 1.943 . S
O296 Zn295 1.962 . S
O296 C301 1.254 . S
O297 Zn294 2.031 . S
O297 C301 1.269 . S
O298 Zn295 1.986 . S
O298 C305 1.262 . S
O299 Zn294 2.049 . S
O299 C307 1.260 . S
O300 Zn295 1.996 . S
O300 C307 1.257 . S
C301 O296 1.254 . S
C301 O297 1.269 . S
C302 O303 1.249 . S
C302 O304 1.270 . S
O303 Zn295 1.943 . S
O303 C302 1.249 . S
O304 Zn294 2.067 . S
O304 C302 1.270 . S
C305 O298 1.262 . S
C305 O306 1.232 . S
O306 C305 1.232 . S
C307 O299 1.260 . S
C307 O300 1.257 . S
Zn308 O311 2.031 . S
Zn308 O313 2.049 . S
Zn308 O318 2.067 . S
Zn309 O310 1.962 . S
Zn309 O312 1.986 . S
Zn309 O314 1.996 . S
Zn309 O317 1.943 . S
O310 Zn309 1.962 . S
O310 C315 1.254 . S
O311 Zn308 2.031 . S
O311 C315 1.269 . S
O312 Zn309 1.986 . S
O312 C319 1.262 . S
O313 Zn308 2.049 . S
O313 C321 1.260 . S
O314 Zn309 1.996 . S
O314 C321 1.257 . S
C315 O310 1.254 . S
C315 O311 1.269 . S
C316 O317 1.249 . S
C316 O318 1.270 . S
O317 Zn309 1.943 . S
O317 C316 1.249 . S
O318 Zn308 2.067 . S
O318 C316 1.270 . S
C319 O312 1.262 . S
C319 O320 1.232 . S
O320 C319 1.232 . S
C321 O313 1.260 . S
C321 O314 1.257 . S
Zn322 O325 2.031 . S
Zn322 O327 2.049 . S
Zn322 O332 2.067 . S
Zn323 O324 1.962 . S
Zn323 O326 1.986 . S
Zn323 O328 1.996 . S
Zn323 O331 1.943 . S
O324 Zn323 1.962 . S
O324 C329 1.254 . S
O325 Zn322 2.031 . S
O325 C329 1.269 . S
O326 Zn323 1.986 . S
O326 C333 1.262 . S
O327 Zn322 2.049 . S
O327 C335 1.260 . S
O328 Zn323 1.996 . S
O328 C335 1.257 . S
C329 O324 1.254 . S
C329 O325 1.269 . S
C330 O331 1.249 . S
C330 O332 1.270 . S
O331 Zn323 1.943 . S
O331 C330 1.249 . S
O332 Zn322 2.067 . S
O332 C330 1.270 . S
C333 O326 1.262 . S
C333 O334 1.232 . S
O334 C333 1.232 . S
C335 O327 1.260 . S
C335 O328 1.257 . S
Zn336 O339 2.031 . S
Zn336 O341 2.049 . S
Zn336 O346 2.067 . S
Zn337 O338 1.962 . S
Zn337 O340 1.986 . S
Zn337 O342 1.996 . S
Zn337 O345 1.943 . S
O338 Zn337 1.962 . S
O338 C343 1.254 . S
O339 Zn336 2.031 . S
O339 C343 1.269 . S
O340 Zn337 1.986 . S
O340 C347 1.262 . S
O341 Zn336 2.049 . S
O341 C349 1.260 . S
O342 Zn337 1.996 . S
O342 C349 1.257 . S
C343 O338 1.254 . S
C343 O339 1.269 . S
C344 O345 1.249 . S
C344 O346 1.270 . S
O345 Zn337 1.943 . S
O345 C344 1.249 . S
O346 Zn336 2.067 . S
O346 C344 1.270 . S
C347 O340 1.262 . S
C347 O348 1.232 . S
O348 C347 1.232 . S
C349 O341 1.260 . S
C349 O342 1.257 . S
Zn350 O353 2.031 . S
Zn350 O355 2.049 . S
Zn350 O360 2.067 . S
Zn351 O352 1.962 . S
Zn351 O354 1.986 . S
Zn351 O356 1.996 . S
Zn351 O359 1.943 . S
O352 Zn351 1.962 . S
O352 C357 1.254 . S
O353 Zn350 2.031 . S
O353 C357 1.269 . S
O354 Zn351 1.986 . S
O354 C361 1.262 . S
O355 Zn350 2.049 . S
O355 C363 1.260 . S
O356 Zn351 1.996 . S
O356 C363 1.257 . S
C357 O352 1.254 . S
C357 O353 1.269 . S
C358 O359 1.249 . S
C358 O360 1.270 . S
O359 Zn351 1.943 . S
O359 C358 1.249 . S
O360 Zn350 2.067 . S
O360 C358 1.270 . S
C361 O354 1.262 . S
C361 O362 1.232 . S
O362 C361 1.232 . S
C363 O355 1.260 . S
C363 O356 1.257 . S
Zn364 O367 2.031 . S
Zn364 O369 2.049 . S
Zn364 O374 2.067 . S
Zn365 O366 1.962 . S
Zn365 O368 1.986 . S
Zn365 O370 1.996 . S
Zn365 O373 1.943 . S
O366 Zn365 1.962 . S
O366 C371 1.254 . S
O367 Zn364 2.031 . S
O367 C371 1.269 . S
O368 Zn365 1.986 . S
O368 C375 1.262 . S
O369 Zn364 2.049 . S
O369 C377 1.260 . S
O370 Zn365 1.996 . S
O370 C377 1.257 . S
C371 O366 1.254 . S
C371 O367 1.269 . S
C372 O373 1.249 . S
C372 O374 1.270 . S
O373 Zn365 1.943 . S
O373 C372 1.249 . S
O374 Zn364 2.067 . S
O374 C372 1.270 . S
C375 O368 1.262 . S
C375 O376 1.232 . S
O376 C375 1.232 . S
C377 O369 1.260 . S
C377 O370 1.257 . S
Zn378 O381 2.031 . S
Zn378 O383 2.049 . S
Zn378 O388 2.067 . S
Zn379 O380 1.962 . S
Zn379 O382 1.986 . S
Zn379 O384 1.996 . S
Zn379 O387 1.943 . S
O380 Zn379 1.962 . S
O380 C385 1.254 . S
O381 Zn378 2.031 . S
O381 C385 1.269 . S
O382 Zn379 1.986 . S
O382 C389 1.262 . S
O383 Zn378 2.049 . S
O383 C391 1.260 . S
O384 Zn379 1.996 . S
O384 C391 1.257 . S
C385 O380 1.254 . S
C385 O381 1.269 . S
C386 O387 1.249 . S
C386 O388 1.270 . S
O387 Zn379 1.943 . S
O387 C386 1.249 . S
O388 Zn378 2.067 . S
O388 C386 1.270 . S
C389 O382 1.262 . S
C389 O390 1.232 . S
O390 C389 1.232 . S
C391 O383 1.260 . S
C391 O384 1.257 . S
Zn392 O395 2.031 . S
Zn392 O397 2.049 . S
Zn392 O402 2.067 . S
Zn393 O394 1.962 . S
Zn393 O396 1.986 . S
Zn393 O398 1.996 . S
Zn393 O401 1.943 . S
O394 Zn393 1.962 . S
O394 C399 1.254 . S
O395 Zn392 2.031 . S
O395 C399 1.269 . S
O396 Zn393 1.986 . S
O396 C403 1.262 . S
O397 Zn392 2.049 . S
O397 C405 1.260 . S
O398 Zn393 1.996 . S
O398 C405 1.257 . S
C399 O394 1.254 . S
C399 O395 1.269 . S
C400 O401 1.249 . S
C400 O402 1.270 . S
O401 Zn393 1.943 . S
O401 C400 1.249 . S
O402 Zn392 2.067 . S
O402 C400 1.270 . S
C403 O396 1.262 . S
C403 O404 1.232 . S
O404 C403 1.232 . S
C405 O397 1.260 . S
C405 O398 1.257 . S
Zn406 O409 2.031 . S
Zn406 O411 2.049 . S
Zn406 O416 2.067 . S
Zn407 O408 1.962 . S
Zn407 O410 1.986 . S
Zn407 O412 1.996 . S
Zn407 O415 1.943 . S
O408 Zn407 1.962 . S
O408 C413 1.254 . S
O409 Zn406 2.031 . S
O409 C413 1.269 . S
O410 Zn407 1.986 . S
O410 C417 1.262 . S
O411 Zn406 2.049 . S
O411 C419 1.260 . S
O412 Zn407 1.996 . S
O412 C419 1.257 . S
C413 O408 1.254 . S
C413 O409 1.269 . S
C414 O415 1.249 . S
C414 O416 1.270 . S
O415 Zn407 1.943 . S
O415 C414 1.249 . S
O416 Zn406 2.067 . S
O416 C414 1.270 . S
C417 O410 1.262 . S
C417 O418 1.232 . S
O418 C417 1.232 . S
C419 O411 1.260 . S
C419 O412 1.257 . S
Zn420 O423 2.031 . S
Zn420 O425 2.049 . S
Zn420 O430 2.067 . S
Zn421 O422 1.962 . S
Zn421 O424 1.986 . S
Zn421 O426 1.996 . S
Zn421 O429 1.943 . S
O422 Zn421 1.962 . S
O422 C427 1.254 . S
O423 Zn420 2.031 . S
O423 C427 1.269 . S
O424 Zn421 1.986 . S
O424 C431 1.262 . S
O425 Zn420 2.049 . S
O425 C433 1.260 . S
O426 Zn421 1.996 . S
O426 C433 1.257 . S
C427 O422 1.254 . S
C427 O423 1.269 . S
C428 O429 1.249 . S
C428 O430 1.270 . S
O429 Zn421 1.943 . S
O429 C428 1.249 . S
O430 Zn420 2.067 . S
O430 C428 1.270 . S
C431 O424 1.262 . S
C431 O432 1.232 . S
O432 C431 1.232 . S
C433 O425 1.260 . S
C433 O426 1.257 . S
Zn434 O437 2.031 . S
Zn434 O439 2.049 . S
Zn434 O444 2.067 . S
Zn435 O436 1.962 . S
Zn435 O438 1.986 . S
Zn435 O440 1.996 . S
Zn435 O443 1.943 . S
O436 Zn435 1.962 . S
O436 C441 1.254 . S
O437 Zn434 2.031 . S
O437 C441 1.269 . S
O438 Zn435 1.986 . S
O438 C445 1.262 . S
O439 Zn434 2.049 . S
O439 C447 1.260 . S
O440 Zn435 1.996 . S
O440 C447 1.257 . S
C441 O436 1.254 . S
C441 O437 1.269 . S
C442 O443 1.249 . S
C442 O444 1.270 . S
O443 Zn435 1.943 . S
O443 C442 1.249 . S
O444 Zn434 2.067 . S
O444 C442 1.270 . S
C445 O438 1.262 . S
C445 O446 1.232 . S
O446 C445 1.232 . S
C447 O439 1.260 . S
C447 O440 1.257 . S
Zn448 O451 2.031 . S
Zn448 O453 2.049 . S
Zn448 O458 2.067 . S
Zn449 O450 1.962 . S
Zn449 O452 1.986 . S
Zn449 O454 1.996 . S
Zn449 O457 1.943 . S
O450 Zn449 1.962 . S
O450 C455 1.254 . S
O451 Zn448 2.031 . S
O451 C455 1.269 . S
O452 Zn449 1.986 . S
O452 C459 1.262 . S
O453 Zn448 2.049 . S
O453 C461 1.260 . S
O454 Zn449 1.996 . S
O454 C461 1.257 . S
C455 O450 1.254 . S
C455 O451 1.269 . S
C456 O457 1.249 . S
C456 O458 1.270 . S
O457 Zn449 1.943 . S
O457 C456 1.249 . S
O458 Zn448 2.067 . S
O458 C456 1.270 . S
C459 O452 1.262 . S
C459 O460 1.232 . S
O460 C459 1.232 . S
C461 O453 1.260 . S
C461 O454 1.257 . S
Zn462 O465 2.031 . S
Zn462 O467 2.049 . S
Zn462 O472 2.067 . S
Zn463 O464 1.962 . S
Zn463 O466 1.986 . S
Zn463 O468 1.996 . S
Zn463 O471 1.943 . S
O464 Zn463 1.962 . S
O464 C469 1.254 . S
O465 Zn462 2.031 . S
O465 C469 1.269 . S
O466 Zn463 1.986 . S
O466 C473 1.262 . S
O467 Zn462 2.049 . S
O467 C475 1.260 . S
O468 Zn463 1.996 . S
O468 C475 1.257 . S
C469 O464 1.254 . S
C469 O465 1.269 . S
C470 O471 1.249 . S
C470 O472 1.270 . S
O471 Zn463 1.943 . S
O471 C470 1.249 . S
O472 Zn462 2.067 . S
O472 C470 1.270 . S
C473 O466 1.262 . S
C473 O474 1.232 . S
O474 C473 1.232 . S
C475 O467 1.260 . S
C475 O468 1.257 . S
Zn476 O479 2.031 . S
Zn476 O481 2.049 . S
Zn476 O486 2.067 . S
Zn477 O478 1.962 . S
Zn477 O480 1.986 . S
Zn477 O482 1.996 . S
Zn477 O485 1.943 . S
O478 Zn477 1.962 . S
O478 C483 1.254 . S
O479 Zn476 2.031 . S
O479 C483 1.269 . S
O480 Zn477 1.986 . S
O480 C487 1.262 . S
O481 Zn476 2.049 . S
O481 C489 1.260 . S
O482 Zn477 1.996 . S
O482 C489 1.257 . S
C483 O478 1.254 . S
C483 O479 1.269 . S
C484 O485 1.249 . S
C484 O486 1.270 . S
O485 Zn477 1.943 . S
O485 C484 1.249 . S
O486 Zn476 2.067 . S
O486 C484 1.270 . S
C487 O480 1.262 . S
C487 O488 1.232 . S
O488 C487 1.232 . S
C489 O481 1.260 . S
C489 O482 1.257 . S
Zn490 O493 2.031 . S
Zn490 O495 2.049 . S
Zn490 O500 2.067 . S
Zn491 O492 1.962 . S
Zn491 O494 1.986 . S
Zn491 O496 1.996 . S
Zn491 O499 1.943 . S
O492 Zn491 1.962 . S
O492 C497 1.254 . S
O493 Zn490 2.031 . S
O493 C497 1.269 . S
O494 Zn491 1.986 . S
O494 C501 1.262 . S
O495 Zn490 2.049 . S
O495 C503 1.260 . S
O496 Zn491 1.996 . S
O496 C503 1.257 . S
C497 O492 1.254 . S
C497 O493 1.269 . S
C498 O499 1.249 . S
C498 O500 1.270 . S
O499 Zn491 1.943 . S
O499 C498 1.249 . S
O500 Zn490 2.067 . S
O500 C498 1.270 . S
C501 O494 1.262 . S
C501 O502 1.232 . S
O502 C501 1.232 . S
C503 O495 1.260 . S
C503 O496 1.257 . S
Zn504 O507 2.031 . S
Zn504 O509 2.049 . S
Zn504 O514 2.067 . S
Zn505 O506 1.962 . S
Zn505 O508 1.986 . S
Zn505 O510 1.996 . S
Zn505 O513 1.943 . S
O506 Zn505 1.962 . S
O506 C511 1.254 . S
O507 Zn504 2.031 . S
O507 C511 1.269 . S
O508 Zn505 1.986 . S
O508 C515 1.262 . S
O509 Zn504 2.049 . S
O509 C517 1.260 . S
O510 Zn505 1.996 . S
O510 C517 1.257 . S
C511 O506 1.254 . S
C511 O507 1.269 . S
C512 O513 1.249 . S
C512 O514 1.270 . S
O513 Zn505 1.943 . S
O513 C512 1.249 . S
O514 Zn504 2.067 . S
O514 C512 1.270 . S
C515 O508 1.262 . S
C515 O516 1.232 . S
O516 C515 1.232 . S
C517 O509 1.260 . S
C517 O510 1.257 . S
Zn518 O521 2.031 . S
Zn518 O523 2.049 . S
Zn518 O528 2.067 . S
Zn519 O520 1.962 . S
Zn519 O522 1.986 . S
Zn519 O524 1.996 . S
Zn519 O527 1.943 . S
O520 Zn519 1.962 . S
O520 C525 1.254 . S
O521 Zn518 2.031 . S
O521 C525 1.269 . S
O522 Zn519 1.986 . S
O522 C529 1.262 . S
O523 Zn518 2.049 . S
O523 C531 1.260 . S
O524 Zn519 1.996 . S
O524 C531 1.257 . S
C525 O520 1.254 . S
C525 O521 1.269 . S
C526 O527 1.249 . S
C526 O528 1.270 . S
O527 Zn519 1.943 . S
O527 C526 1.249 . S
O528 Zn518 2.067 . S
O528 C526 1.270 . S
C529 O522 1.262 . S
C529 O530 1.232 . S
O530 C529 1.232 . S
C531 O523 1.260 . S
C531 O524 1.257 . S
Zn532 O535 2.031 . S
Zn532 O537 2.049 . S
Zn532 O542 2.067 . S
Zn533 O534 1.962 . S
Zn533 O536 1.986 . S
Zn533 O538 1.996 . S
Zn533 O541 1.943 . S
O534 Zn533 1.962 . S
O534 C539 1.254 . S
O535 Zn532 2.031 . S
O535 C539 1.269 . S
O536 Zn533 1.986 . S
O536 C543 1.262 . S
O537 Zn532 2.049 . S
O537 C545 1.260 . S
O538 Zn533 1.996 . S
O538 C545 1.257 . S
C539 O534 1.254 . S
C539 O535 1.269 . S
C540 O541 1.249 . S
C540 O542 1.270 . S
O541 Zn533 1.943 . S
O541 C540 1.249 . S
O542 Zn532 2.067 . S
O542 C540 1.270 . S
C543 O536 1.262 . S
C543 O544 1.232 . S
O544 C543 1.232 . S
C545 O537 1.260 . S
C545 O538 1.257 . S
Zn546 O549 2.031 . S
Zn546 O551 2.049 . S
Zn546 O556 2.067 . S
Zn547 O548 1.962 . S
Zn547 O550 1.986 . S
Zn547 O552 1.996 . S
Zn547 O555 1.943 . S
O548 Zn547 1.962 . S
O548 C553 1.254 . S
O549 Zn546 2.031 . S
O549 C553 1.269 . S
O550 Zn547 1.986 . S
O550 C557 1.262 . S
O551 Zn546 2.049 . S
O551 C559 1.260 . S
O552 Zn547 1.996 . S
O552 C559 1.257 . S
C553 O548 1.254 . S
C553 O549 1.269 . S
C554 O555 1.249 . S
C554 O556 1.270 . S
O555 Zn547 1.943 . S
O555 C554 1.249 . S
O556 Zn546 2.067 . S
O556 C554 1.270 . S
C557 O550 1.262 . S
C557 O558 1.232 . S
O558 C557 1.232 . S
C559 O551 1.260 . S
C559 O552 1.257 . S
Zn560 O563 2.031 . S
Zn560 O565 2.049 . S
Zn560 O570 2.067 . S
Zn561 O562 1.962 . S
Zn561 O564 1.986 . S
Zn561 O566 1.996 . S
Zn561 O569 1.943 . S
O562 Zn561 1.962 . S
O562 C567 1.254 . S
O563 Zn560 2.031 . S
O563 C567 1.269 . S
O564 Zn561 1.986 . S
O564 C571 1.262 . S
O565 Zn560 2.049 . S
O565 C573 1.260 . S
O566 Zn561 1.996 . S
O566 C573 1.257 . S
C567 O562 1.254 . S
C567 O563 1.269 . S
C568 O569 1.249 . S
C568 O570 1.270 . S
O569 Zn561 1.943 . S
O569 C568 1.249 . S
O570 Zn560 2.067 . S
O570 C568 1.270 . S
C571 O564 1.262 . S
C571 O572 1.232 . S
O572 C571 1.232 . S
C573 O565 1.260 . S
C573 O566 1.257 . S
Zn574 O577 2.031 . S
Zn574 O579 2.049 . S
Zn574 O584 2.067 . S
Zn575 O576 1.962 . S
Zn575 O578 1.986 . S
Zn575 O580 1.996 . S
Zn575 O583 1.943 . S
O576 Zn575 1.962 . S
O576 C581 1.254 . S
O577 Zn574 2.031 . S
O577 C581 1.269 . S
O578 Zn575 1.986 . S
O578 C585 1.262 . S
O579 Zn574 2.049 . S
O579 C587 1.260 . S
O580 Zn575 1.996 . S
O580 C587 1.257 . S
C581 O576 1.254 . S
C581 O577 1.269 . S
C582 O583 1.249 . S
C582 O584 1.270 . S
O583 Zn575 1.943 . S
O583 C582 1.249 . S
O584 Zn574 2.067 . S
O584 C582 1.270 . S
C585 O578 1.262 . S
C585 O586 1.232 . S
O586 C585 1.232 . S
C587 O579 1.260 . S
C587 O580 1.257 . S
Zn588 O591 2.031 . S
Zn588 O593 2.049 . S
Zn588 O598 2.067 . S
Zn589 O590 1.962 . S
Zn589 O592 1.986 . S
Zn589 O594 1.996 . S
Zn589 O597 1.943 . S
O590 Zn589 1.962 . S
O590 C595 1.254 . S
O591 Zn588 2.031 . S
O591 C595 1.269 . S
O592 Zn589 1.986 . S
O592 C599 1.262 . S
O593 Zn588 2.049 . S
O593 C601 1.260 . S
O594 Zn589 1.996 . S
O594 C601 1.257 . S
C595 O590 1.254 . S
C595 O591 1.269 . S
C596 O597 1.249 . S
C596 O598 1.270 . S
O597 Zn589 1.943 . S
O597 C596 1.249 . S
O598 Zn588 2.067 . S
O598 C596 1.270 . S
C599 O592 1.262 . S
C599 O600 1.232 . S
O600 C599 1.232 . S
C601 O593 1.260 . S
C601 O594 1.257 . S
Zn602 O605 2.031 . S
Zn602 O607 2.049 . S
Zn602 O612 2.067 . S
Zn603 O604 1.962 . S
Zn603 O606 1.986 . S
Zn603 O608 1.996 . S
Zn603 O611 1.943 . S
O604 Zn603 1.962 . S
O604 C609 1.254 . S
O605 Zn602 2.031 . S
O605 C609 1.269 . S
O606 Zn603 1.986 . S
O606 C613 1.262 . S
O607 Zn602 2.049 . S
O607 C615 1.260 . S
O608 Zn603 1.996 . S
O608 C615 1.257 . S
C609 O604 1.254 . S
C609 O605 1.269 . S
C610 O611 1.249 . S
C610 O612 1.270 . S
O611 Zn603 1.943 . S
O611 C610 1.249 . S
O612 Zn602 2.067 . S
O612 C610 1.270 . S
C613 O606 1.262 . S
C613 O614 1.232 . S
O614 C613 1.232 . S
C615 O607 1.260 . S
C615 O608 1.257 . S
Zn616 O619 2.031 . S
Zn616 O621 2.049 . S
Zn616 O626 2.067 . S
Zn617 O618 1.962 . S
Zn617 O620 1.986 . S
Zn617 O622 1.996 . S
Zn617 O625 1.943 . S
O618 Zn617 1.962 . S
O618 C623 1.254 . S
O619 Zn616 2.031 . S
O619 C623 1.269 . S
O620 Zn617 1.986 . S
O620 C627 1.262 . S
O621 Zn616 2.049 . S
O621 C629 1.260 . S
O622 Zn617 1.996 . S
O622 C629 1.257 . S
C623 O618 1.254 . S
C623 O619 1.269 . S
C624 O625 1.249 . S
C624 O626 1.270 . S
O625 Zn617 1.943 . S
O625 C624 1.249 . S
O626 Zn616 2.067 . S
O626 C624 1.270 . S
C627 O620 1.262 . S
C627 O628 1.232 . S
O628 C627 1.232 . S
C629 O621 1.260 . S
C629 O622 1.257 . S
Zn630 O633 2.031 . S
Zn630 O635 2.049 . S
Zn630 O640 2.067 . S
Zn631 O632 1.962 . S
Zn631 O634 1.986 . S
Zn631 O636 1.996 . S
Zn631 O639 1.943 . S
O632 Zn631 1.962 . S
O632 C637 1.254 . S
O633 Zn630 2.031 . S
O633 C637 1.269 . S
O634 Zn631 1.986 . S
O634 C641 1.262 . S
O635 Zn630 2.049 . S
O635 C643 1.260 . S
O636 Zn631 1.996 . S
O636 C643 1.257 . S
C637 O632 1.254 . S
C637 O633 1.269 . S
C638 O639 1.249 . S
C638 O640 1.270 . S
O639 Zn631 1.943 . S
O639 C638 1.249 . S
O640 Zn630 2.067 . S
O640 C638 1.270 . S
C641 O634 1.262 . S
C641 O642 1.232 . S
O642 C641 1.232 . S
C643 O635 1.260 . S
C643 O636 1.257 . S
Zn644 O647 2.031 . S
Zn644 O649 2.049 . S
Zn644 O654 2.067 . S
Zn645 O646 1.962 . S
Zn645 O648 1.986 . S
Zn645 O650 1.996 . S
Zn645 O653 1.943 . S
O646 Zn645 1.962 . S
O646 C651 1.254 . S
O647 Zn644 2.031 . S
O647 C651 1.269 . S
O648 Zn645 1.986 . S
O648 C655 1.262 . S
O649 Zn644 2.049 . S
O649 C657 1.260 . S
O650 Zn645 1.996 . S
O650 C657 1.257 . S
C651 O646 1.254 . S
C651 O647 1.269 . S
C652 O653 1.249 . S
C652 O654 1.270 . S
O653 Zn645 1.943 . S
O653 C652 1.249 . S
O654 Zn644 2.067 . S
O654 C652 1.270 . S
C655 O648 1.262 . S
C655 O656 1.232 . S
O656 C655 1.232 . S
C657 O649 1.260 . S
C657 O650 1.257 . S
Zn658 O661 2.031 . S
Zn658 O663 2.049 . S
Zn658 O668 2.067 . S
Zn659 O660 1.962 . S
Zn659 O662 1.986 . S
Zn659 O664 1.996 . S
Zn659 O667 1.943 . S
O660 Zn659 1.962 . S
O660 C665 1.254 . S
O661 Zn658 2.031 . S
O661 C665 1.269 . S
O662 Zn659 1.986 . S
O662 C669 1.262 . S
O663 Zn658 2.049 . S
O663 C671 1.260 . S
O664 Zn659 1.996 . S
O664 C671 1.257 . S
C665 O660 1.254 . S
C665 O661 1.269 . S
C666 O667 1.249 . S
C666 O668 1.270 . S
O667 Zn659 1.943 . S
O667 C666 1.249 . S
O668 Zn658 2.067 . S
O668 C666 1.270 . S
C669 O662 1.262 . S
C669 O670 1.232 . S
O670 C669 1.232 . S
C671 O663 1.260 . S
C671 O664 1.257 . S
C672 C673 1.391 . S
C672 C674 1.394 . S
C672 H688 0.931 . S
C673 C672 1.391 . S
C673 C677 1.376 . S
C674 C672 1.394 . S
C674 C675 1.369 . S
C674 C678 1.531 . S
C675 C674 1.369 . S
C675 C676 1.410 . S
C675 C683 1.503 1_655 S
C676 C675 1.410 . S
C676 C677 1.392 . S
C676 C679 1.511 1_655 S
C677 C673 1.376 . S
C677 C676 1.392 . S
C677 H689 0.929 . S
C678 C674 1.531 . S
C678 H690 0.960 . S
C678 H691 0.962 . S
C678 H692 0.960 . S
C679 C676 1.511 1_455 S
C679 H693 0.961 . S
C679 H694 0.961 . S
C679 H695 0.961 . S
C680 C681 1.370 . S
C680 C682 1.363 . S
C680 H696 0.931 . S
C681 C680 1.370 . S
C681 C685 1.408 . S
C682 C680 1.363 . S
C682 C683 1.370 . S
C682 C686 1.524 1_455 S
C683 C675 1.503 1_455 S
C683 C682 1.370 . S
C683 C684 1.403 . S
C684 C683 1.403 . S
C684 C685 1.404 . S
C684 C687 1.539 . S
C685 C681 1.408 . S
C685 C684 1.404 . S
C685 H697 0.930 . S
C686 C682 1.524 1_655 S
C686 H698 0.956 . S
C686 H699 0.961 . S
C686 H700 0.961 . S
C687 C684 1.539 . S
C687 H701 0.958 . S
C687 H702 0.961 . S
C687 H703 0.960 . S
H688 C672 0.931 . S
H689 C677 0.929 . S
H690 C678 0.960 . S
H691 C678 0.962 . S
H692 C678 0.960 . S
H693 C679 0.961 . S
H694 C679 0.961 . S
H695 C679 0.961 . S
H696 C680 0.931 . S
H697 C685 0.930 . S
H698 C686 0.956 . S
H699 C686 0.961 . S
H700 C686 0.961 . S
H701 C687 0.958 . S
H702 C687 0.961 . S
H703 C687 0.960 . S
C704 C705 1.391 . S
C704 C706 1.394 . S
C704 H720 0.931 . S
C705 C704 1.391 . S
C705 C709 1.376 . S
C706 C704 1.394 . S
C706 C707 1.369 . S
C706 C710 1.531 . S
C707 C706 1.369 . S
C707 C708 1.410 . S
C707 C715 1.503 1_565 S
C708 C707 1.410 . S
C708 C709 1.392 . S
C708 C711 1.511 1_565 S
C709 C705 1.376 . S
C709 C708 1.392 . S
C709 H721 0.929 . S
C710 C706 1.531 . S
C710 H722 0.960 1_565 S
C710 H723 0.962 . S
C710 H724 0.960 . S
C711 C708 1.511 1_545 S
C711 H725 0.961 1_545 S
C711 H726 0.961 . S
C711 H727 0.961 . S
C712 C713 1.370 . S
C712 C714 1.363 . S
C712 H728 0.931 . S
C713 C712 1.370 . S
C713 C717 1.408 . S
C714 C712 1.363 . S
C714 C715 1.370 . S
C714 C718 1.524 1_545 S
C715 C707 1.503 1_545 S
C715 C714 1.370 . S
C715 C716 1.403 . S
C716 C715 1.403 . S
C716 C717 1.404 . S
C716 C719 1.539 . S
C717 C713 1.408 . S
C717 C716 1.404 . S
C717 H729 0.930 . S
C718 C714 1.524 1_565 S
C718 H730 0.956 . S
C718 H731 0.961 . S
C718 H732 0.961 . S
C719 C716 1.539 . S
C719 H733 0.958 . S
C719 H734 0.961 . S
C719 H735 0.960 . S
H720 C704 0.931 . S
H721 C709 0.929 . S
H722 C710 0.960 1_545 S
H723 C710 0.962 . S
H724 C710 0.960 . S
H725 C711 0.961 1_565 S
H726 C711 0.961 . S
H727 C711 0.961 . S
H728 C712 0.931 . S
H729 C717 0.930 . S
H730 C718 0.956 . S
H731 C718 0.961 . S
H732 C718 0.961 . S
H733 C719 0.958 . S
H734 C719 0.961 . S
H735 C719 0.960 . S
C736 C737 1.391 . S
C736 C738 1.394 . S
C736 H752 0.931 . S
C737 C736 1.391 . S
C737 C741 1.376 . S
C738 C736 1.394 . S
C738 C739 1.369 . S
C738 C742 1.531 1_455 S
C739 C738 1.369 . S
C739 C740 1.410 . S
C739 C747 1.503 1_455 S
C740 C739 1.410 . S
C740 C741 1.392 . S
C740 C743 1.511 . S
C741 C737 1.376 . S
C741 C740 1.392 . S
C741 H753 0.929 . S
C742 C738 1.531 1_655 S
C742 H754 0.960 . S
C742 H755 0.962 . S
C742 H756 0.960 . S
C743 C740 1.511 . S
C743 H757 0.961 . S
C743 H758 0.961 . S
C743 H759 0.961 . S
C744 C745 1.370 . S
C744 C746 1.363 . S
C744 H760 0.931 . S
C745 C744 1.370 . S
C745 C749 1.408 . S
C746 C744 1.363 . S
C746 C747 1.370 . S
C746 C750 1.524 1_655 S
C747 C739 1.503 1_655 S
C747 C746 1.370 . S
C747 C748 1.403 . S
C748 C747 1.403 . S
C748 C749 1.404 . S
C748 C751 1.539 . S
C749 C745 1.408 . S
C749 C748 1.404 . S
C749 H761 0.930 . S
C750 C746 1.524 1_455 S
C750 H762 0.956 . S
C750 H763 0.961 . S
C750 H764 0.961 . S
C751 C748 1.539 . S
C751 H765 0.958 . S
C751 H766 0.961 . S
C751 H767 0.960 . S
H752 C736 0.931 . S
H753 C741 0.929 . S
H754 C742 0.960 . S
H755 C742 0.962 . S
H756 C742 0.960 . S
H757 C743 0.961 . S
H758 C743 0.961 . S
H759 C743 0.961 . S
H760 C744 0.931 . S
H761 C749 0.930 . S
H762 C750 0.956 . S
H763 C750 0.961 . S
H764 C750 0.961 . S
H765 C751 0.958 . S
H766 C751 0.961 . S
H767 C751 0.960 . S
C768 C769 1.391 . S
C768 C770 1.394 . S
C768 H784 0.931 . S
C769 C768 1.391 . S
C769 C773 1.376 . S
C770 C768 1.394 . S
C770 C771 1.369 . S
C770 C774 1.531 . S
C771 C770 1.369 . S
C771 C772 1.410 . S
C771 C779 1.503 1_565 S
C772 C771 1.410 . S
C772 C773 1.392 . S
C772 C775 1.511 1_565 S
C773 C769 1.376 . S
C773 C772 1.392 . S
C773 H785 0.929 . S
C774 C770 1.531 . S
C774 H786 0.960 . S
C774 H787 0.962 . S
C774 H788 0.960 . S
C775 C772 1.511 1_545 S
C775 H789 0.961 . S
C775 H790 0.961 . S
C775 H791 0.961 . S
C776 C777 1.370 . S
C776 C778 1.363 . S
C776 H792 0.931 . S
C777 C776 1.370 . S
C777 C781 1.408 . S
C778 C776 1.363 . S
C778 C779 1.370 . S
C778 C782 1.524 . S
C779 C771 1.503 1_545 S
C779 C778 1.370 . S
C779 C780 1.403 . S
C780 C779 1.403 . S
C780 C781 1.404 . S
C780 C783 1.539 1_545 S
C781 C777 1.408 . S
C781 C780 1.404 . S
C781 H793 0.930 . S
C782 C778 1.524 . S
C782 H794 0.956 . S
C782 H795 0.961 . S
C782 H796 0.961 . S
C783 C780 1.539 1_565 S
C783 H797 0.958 . S
C783 H798 0.961 1_565 S
C783 H799 0.960 . S
H784 C768 0.931 . S
H785 C773 0.929 . S
H786 C774 0.960 . S
H787 C774 0.962 . S
H788 C774 0.960 . S
H789 C775 0.961 . S
H790 C775 0.961 . S
H791 C775 0.961 . S
H792 C776 0.931 . S
H793 C781 0.930 . S
H794 C782 0.956 . S
H795 C782 0.961 . S
H796 C782 0.961 . S
H797 C783 0.958 . S
H798 C783 0.961 1_545 S
H799 C783 0.960 . S
C800 C801 1.391 . S
C800 C802 1.394 . S
C800 H816 0.931 . S
C801 C800 1.391 . S
C801 C805 1.376 . S
C802 C800 1.394 . S
C802 C803 1.369 . S
C802 C806 1.531 . S
C803 C802 1.369 . S
C803 C804 1.410 . S
C803 C811 1.503 1_655 S
C804 C803 1.410 . S
C804 C805 1.392 . S
C804 C807 1.511 1_655 S
C805 C801 1.376 . S
C805 C804 1.392 . S
C805 H817 0.929 . S
C806 C802 1.531 . S
C806 H818 0.960 1_655 S
C806 H819 0.962 . S
C806 H820 0.960 . S
C807 C804 1.511 1_455 S
C807 H821 0.961 1_455 S
C807 H822 0.961 . S
C807 H823 0.961 . S
C808 C809 1.370 . S
C808 C810 1.363 . S
C808 H824 0.931 . S
C809 C808 1.370 . S
C809 C813 1.408 . S
C810 C808 1.363 . S
C810 C811 1.370 . S
C810 C814 1.524 1_455 S
C811 C803 1.503 1_455 S
C811 C810 1.370 . S
C811 C812 1.403 . S
C812 C811 1.403 . S
C812 C813 1.404 . S
C812 C815 1.539 . S
C813 C809 1.408 . S
C813 C812 1.404 . S
C813 H825 0.930 . S
C814 C810 1.524 1_655 S
C814 H826 0.956 . S
C814 H827 0.961 . S
C814 H828 0.961 . S
C815 C812 1.539 . S
C815 H829 0.958 . S
C815 H830 0.961 . S
C815 H831 0.960 . S
H816 C800 0.931 . S
H817 C805 0.929 . S
H818 C806 0.960 1_455 S
H819 C806 0.962 . S
H820 C806 0.960 . S
H821 C807 0.961 1_655 S
H822 C807 0.961 . S
H823 C807 0.961 . S
H824 C808 0.931 . S
H825 C813 0.930 . S
H826 C814 0.956 . S
H827 C814 0.961 . S
H828 C814 0.961 . S
H829 C815 0.958 . S
H830 C815 0.961 . S
H831 C815 0.960 . S
C832 C833 1.391 . S
C832 C834 1.394 . S
C832 H848 0.931 . S
C833 C832 1.391 . S
C833 C837 1.376 . S
C834 C832 1.394 . S
C834 C835 1.369 . S
C834 C838 1.531 1_545 S
C835 C834 1.369 . S
C835 C836 1.410 . S
C835 C843 1.503 1_545 S
C836 C835 1.410 . S
C836 C837 1.392 . S
C836 C839 1.511 . S
C837 C833 1.376 . S
C837 C836 1.392 . S
C837 H849 0.929 . S
C838 C834 1.531 1_565 S
C838 H850 0.960 . S
C838 H851 0.962 . S
C838 H852 0.960 . S
C839 C836 1.511 . S
C839 H853 0.961 . S
C839 H854 0.961 . S
C839 H855 0.961 . S
C840 C841 1.370 . S
C840 C842 1.363 . S
C840 H856 0.931 . S
C841 C840 1.370 . S
C841 C845 1.408 . S
C842 C840 1.363 . S
C842 C843 1.370 . S
C842 C846 1.515 1_565 S
C843 C835 1.503 1_565 S
C843 C842 1.370 . S
C843 C844 1.403 . S
C844 C843 1.403 . S
C844 C845 1.404 . S
C844 C847 1.539 . S
C845 C841 1.408 . S
C845 C844 1.404 . S
C845 H857 0.930 . S
C846 C842 1.515 1_545 S
C846 H858 0.953 1_545 S
C846 H859 0.977 . S
C846 H860 0.957 1_545 S
C847 C844 1.539 . S
C847 H861 0.958 . S
C847 H862 0.961 . S
C847 H863 0.960 . S
H848 C832 0.931 . S
H849 C837 0.929 . S
H850 C838 0.960 . S
H851 C838 0.962 . S
H852 C838 0.960 . S
H853 C839 0.961 . S
H854 C839 0.961 . S
H855 C839 0.961 . S
H856 C840 0.931 . S
H857 C845 0.930 . S
H858 C846 0.953 1_565 S
H859 C846 0.977 . S
H860 C846 0.957 1_565 S
H861 C847 0.958 . S
H862 C847 0.961 . S
H863 C847 0.960 . S
C864 C865 1.391 . S
C864 C866 1.394 . S
C864 H880 0.931 . S
C865 C864 1.391 . S
C865 C869 1.376 . S
C866 C864 1.394 . S
C866 C867 1.369 . S
C866 C870 1.531 1_455 S
C867 C866 1.369 . S
C867 C868 1.410 . S
C867 C875 1.503 1_455 S
C868 C867 1.410 . S
C868 C869 1.392 . S
C868 C871 1.511 . S
C869 C865 1.376 . S
C869 C868 1.392 . S
C869 H881 0.929 . S
C870 C866 1.531 1_655 S
C870 H882 0.960 . S
C870 H883 0.962 . S
C870 H884 0.975 . S
C871 C868 1.511 . S
C871 H885 0.961 . S
C871 H886 0.961 . S
C871 H887 0.961 . S
C872 C873 1.370 . S
C872 C874 1.363 . S
C872 H888 0.931 . S
C873 C872 1.370 . S
C873 C877 1.408 . S
C874 C872 1.363 . S
C874 C875 1.370 . S
C874 C878 1.524 . S
C875 C867 1.503 1_655 S
C875 C874 1.370 . S
C875 C876 1.403 . S
C876 C875 1.403 . S
C876 C877 1.404 . S
C876 C879 1.539 1_655 S
C877 C873 1.408 . S
C877 C876 1.404 . S
C877 H889 0.930 . S
C878 C874 1.524 . S
C878 H890 0.956 . S
C878 H891 0.961 . S
C878 H892 0.961 . S
C879 C876 1.539 1_455 S
C879 H893 0.958 . S
C879 H894 0.961 . S
C879 H895 0.960 . S
H880 C864 0.931 . S
H881 C869 0.929 . S
H882 C870 0.960 . S
H883 C870 0.962 . S
H884 C870 0.975 . S
H885 C871 0.961 . S
H886 C871 0.961 . S
H887 C871 0.961 . S
H888 C872 0.931 . S
H889 C877 0.930 . S
H890 C878 0.956 . S
H891 C878 0.961 . S
H892 C878 0.961 . S
H893 C879 0.958 . S
H894 C879 0.961 . S
H895 C879 0.960 . S
C896 C897 1.391 . S
C896 C898 1.394 . S
C896 H912 0.931 . S
C897 C896 1.391 . S
C897 C901 1.376 . S
C898 C896 1.394 . S
C898 C899 1.369 . S
C898 C902 1.531 . S
C899 C898 1.369 . S
C899 C900 1.410 . S
C899 C907 1.503 1_545 S
C900 C899 1.410 . S
C900 C901 1.392 . S
C900 C903 1.519 . S
C901 C897 1.376 . S
C901 C900 1.392 . S
C901 H913 0.929 . S
C902 C898 1.531 . S
C902 H914 0.960 . S
C902 H915 0.962 . S
C902 H916 0.960 . S
C903 C900 1.519 . S
C903 H917 0.959 1_545 S
C903 H918 0.949 1_545 S
C903 H919 0.966 . S
C904 C905 1.370 . S
C904 C906 1.363 . S
C904 H920 0.931 . S
C905 C904 1.370 . S
C905 C909 1.408 . S
C906 C904 1.363 . S
C906 C907 1.370 . S
C906 C910 1.524 . S
C907 C899 1.503 1_565 S
C907 C906 1.370 . S
C907 C908 1.403 . S
C908 C907 1.403 . S
C908 C909 1.404 . S
C908 C911 1.539 1_565 S
C909 C905 1.408 . S
C909 C908 1.404 . S
C909 H921 0.930 . S
C910 C906 1.524 . S
C910 H922 0.956 . S
C910 H923 0.961 . S
C910 H924 0.961 . S
C911 C908 1.539 1_545 S
C911 H925 0.958 . S
C911 H926 0.961 . S
C911 H927 0.960 . S
H912 C896 0.931 . S
H913 C901 0.929 . S
H914 C902 0.960 . S
H915 C902 0.962 . S
H916 C902 0.960 . S
H917 C903 0.959 1_565 S
H918 C903 0.949 1_565 S
H919 C903 0.966 . S
H920 C904 0.931 . S
H921 C909 0.930 . S
H922 C910 0.956 . S
H923 C910 0.961 . S
H924 C910 0.961 . S
H925 C911 0.958 . S
H926 C911 0.961 . S
H927 C911 0.960 . S
C928 C929 1.391 . S
C928 C930 1.394 . S
C928 H944 0.931 . S
C929 C928 1.391 . S
C929 C933 1.376 . S
C930 C928 1.394 . S
C930 C931 1.369 . S
C930 C934 1.531 1_554 S
C931 C930 1.369 . S
C931 C932 1.410 . S
C931 C939 1.503 1_554 S
C932 C931 1.410 . S
C932 C933 1.392 . S
C932 C935 1.511 . S
C933 C929 1.376 . S
C933 C932 1.392 . S
C933 H945 0.929 . S
C934 C930 1.531 1_556 S
C934 H946 0.960 . S
C934 H947 0.962 . S
C934 H948 0.960 . S
C935 C932 1.511 . S
C935 H949 0.961 . S
C935 H950 0.961 . S
C935 H951 0.961 . S
C936 C937 1.370 . S
C936 C938 1.363 . S
C936 H952 0.931 . S
C937 C936 1.370 . S
C937 C941 1.408 . S
C938 C936 1.363 . S
C938 C939 1.370 . S
C938 C942 1.524 1_556 S
C939 C931 1.503 1_556 S
C939 C938 1.370 . S
C939 C940 1.403 . S
C940 C939 1.403 . S
C940 C941 1.404 . S
C940 C943 1.539 . S
C941 C937 1.408 . S
C941 C940 1.404 . S
C941 H953 0.930 . S
C942 C938 1.524 1_554 S
C942 H954 0.956 . S
C942 H955 0.961 . S
C942 H956 0.961 . S
C943 C940 1.539 . S
C943 H957 0.958 . S
C943 H958 0.961 . S
C943 H959 0.960 . S
H944 C928 0.931 . S
H945 C933 0.929 . S
H946 C934 0.960 . S
H947 C934 0.962 . S
H948 C934 0.960 . S
H949 C935 0.961 . S
H950 C935 0.961 . S
H951 C935 0.961 . S
H952 C936 0.931 . S
H953 C941 0.930 . S
H954 C942 0.956 . S
H955 C942 0.961 . S
H956 C942 0.961 . S
H957 C943 0.958 . S
H958 C943 0.961 . S
H959 C943 0.960 . S
C960 C961 1.391 . S
C960 C962 1.394 . S
C960 H976 0.931 . S
C961 C960 1.391 . S
C961 C965 1.376 . S
C962 C960 1.394 . S
C962 C963 1.369 . S
C962 C966 1.531 . S
C963 C962 1.369 . S
C963 C964 1.410 . S
C963 C971 1.503 1_556 S
C964 C963 1.410 . S
C964 C965 1.392 . S
C964 C967 1.511 1_556 S
C965 C961 1.376 . S
C965 C964 1.392 . S
C965 H977 0.929 . S
C966 C962 1.531 . S
C966 H978 0.960 . S
C966 H979 0.962 . S
C966 H980 0.960 . S
C967 C964 1.511 1_554 S
C967 H981 0.961 . S
C967 H982 0.961 . S
C967 H983 0.961 . S
C968 C969 1.370 . S
C968 C970 1.363 . S
C968 H984 0.931 . S
C969 C968 1.370 . S
C969 C973 1.408 . S
C970 C968 1.363 . S
C970 C971 1.370 . S
C970 C974 1.524 1_554 S
C971 C963 1.503 1_554 S
C971 C970 1.370 . S
C971 C972 1.403 . S
C972 C971 1.403 . S
C972 C973 1.404 . S
C972 C975 1.539 . S
C973 C969 1.408 . S
C973 C972 1.404 . S
C973 H985 0.930 . S
C974 C970 1.524 1_556 S
C974 H986 0.956 . S
C974 H987 0.961 . S
C974 H988 0.961 . S
C975 C972 1.539 . S
C975 H989 0.958 . S
C975 H990 0.961 . S
C975 H991 0.960 . S
H976 C960 0.931 . S
H977 C965 0.929 . S
H978 C966 0.960 . S
H979 C966 0.962 . S
H980 C966 0.960 . S
H981 C967 0.961 . S
H982 C967 0.961 . S
H983 C967 0.961 . S
H984 C968 0.931 . S
H985 C973 0.930 . S
H986 C974 0.956 . S
H987 C974 0.961 . S
H988 C974 0.961 . S
H989 C975 0.958 . S
H990 C975 0.961 . S
H991 C975 0.960 . S
C992 C993 1.391 . S
C992 C994 1.394 . S
C992 H1008 0.931 . S
C993 C992 1.391 . S
C993 C997 1.376 . S
C994 C992 1.394 . S
C994 C995 1.369 . S
C994 C998 1.531 1_556 S
C995 C994 1.369 . S
C995 C996 1.410 . S
C995 C1003 1.503 1_556 S
C996 C995 1.410 . S
C996 C997 1.392 . S
C996 C999 1.511 . S
C997 C993 1.376 . S
C997 C996 1.392 . S
C997 H1009 0.929 . S
C998 C994 1.531 1_554 S
C998 H1010 0.960 . S
C998 H1011 0.962 . S
C998 H1012 0.960 . S
C999 C996 1.511 . S
C999 H1013 0.961 . S
C999 H1014 0.961 . S
C999 H1015 0.961 . S
C1000 C1001 1.370 . S
C1000 C1002 1.363 . S
C1000 H1016 0.931 . S
C1001 C1000 1.370 . S
C1001 C1005 1.408 . S
C1002 C1000 1.363 . S
C1002 C1003 1.370 . S
C1002 C1006 1.524 1_554 S
C1003 C995 1.503 1_554 S
C1003 C1002 1.370 . S
C1003 C1004 1.403 . S
C1004 C1003 1.403 . S
C1004 C1005 1.404 . S
C1004 C1007 1.539 . S
C1005 C1001 1.408 . S
C1005 C1004 1.404 . S
C1005 H1017 0.930 . S
C1006 C1002 1.524 1_556 S
C1006 H1018 0.956 . S
C1006 H1019 0.961 . S
C1006 H1020 0.961 . S
C1007 C1004 1.539 . S
C1007 H1021 0.958 . S
C1007 H1022 0.961 . S
C1007 H1023 0.960 . S
H1008 C992 0.931 . S
H1009 C997 0.929 . S
H1010 C998 0.960 . S
H1011 C998 0.962 . S
H1012 C998 0.960 . S
H1013 C999 0.961 . S
H1014 C999 0.961 . S
H1015 C999 0.961 . S
H1016 C1000 0.931 . S
H1017 C1005 0.930 . S
H1018 C1006 0.956 . S
H1019 C1006 0.961 . S
H1020 C1006 0.961 . S
H1021 C1007 0.958 . S
H1022 C1007 0.961 . S
H1023 C1007 0.960 . S
C1024 C1025 1.391 . S
C1024 C1026 1.394 . S
C1024 H1040 0.931 . S
C1025 C1024 1.391 . S
C1025 C1029 1.376 . S
C1026 C1024 1.394 . S
C1026 C1027 1.369 . S
C1026 C1030 1.531 1_556 S
C1027 C1026 1.369 . S
C1027 C1028 1.410 . S
C1027 C1035 1.503 1_556 S
C1028 C1027 1.410 . S
C1028 C1029 1.392 . S
C1028 C1031 1.511 . S
C1029 C1025 1.376 . S
C1029 C1028 1.392 . S
C1029 H1041 0.929 . S
C1030 C1026 1.531 1_554 S
C1030 H1042 0.960 . S
C1030 H1043 0.962 1_554 S
C1030 H1044 0.960 . S
C1031 C1028 1.511 . S
C1031 H1045 0.961 . S
C1031 H1046 0.961 . S
C1031 H1047 0.939 1_556 S
C1032 C1033 1.370 . S
C1032 C1034 1.363 . S
C1032 H1048 0.931 . S
C1033 C1032 1.370 . S
C1033 C1037 1.408 . S
C1034 C1032 1.363 . S
C1034 C1035 1.370 . S
C1034 C1038 1.524 1_554 S
C1035 C1027 1.503 1_554 S
C1035 C1034 1.370 . S
C1035 C1036 1.403 . S
C1036 C1035 1.403 . S
C1036 C1037 1.404 . S
C1036 C1039 1.539 . S
C1037 C1033 1.408 . S
C1037 C1036 1.404 . S
C1037 H1049 0.930 . S
C1038 C1034 1.524 1_556 S
C1038 H1050 0.956 . S
C1038 H1051 0.961 . S
C1038 H1052 0.961 . S
C1039 C1036 1.539 . S
C1039 H1053 0.958 . S
C1039 H1054 0.961 . S
C1039 H1055 0.960 . S
H1040 C1024 0.931 . S
H1041 C1029 0.929 . S
H1042 C1030 0.960 . S
H1043 C1030 0.962 1_556 S
H1044 C1030 0.960 . S
H1045 C1031 0.961 . S
H1046 C1031 0.961 . S
H1047 C1031 0.939 1_554 S
H1048 C1032 0.931 . S
H1049 C1037 0.930 . S
H1050 C1038 0.956 . S
H1051 C1038 0.961 . S
H1052 C1038 0.961 . S
H1053 C1039 0.958 . S
H1054 C1039 0.961 . S
H1055 C1039 0.960 . S
C1056 C1057 1.391 . S
C1056 C1058 1.394 . S
C1056 H1072 0.931 . S
C1057 C1056 1.391 . S
C1057 C1061 1.376 . S
C1058 C1056 1.394 . S
C1058 C1059 1.369 . S
C1058 C1062 1.531 . S
C1059 C1058 1.369 . S
C1059 C1060 1.410 . S
C1059 C1067 1.503 . S
C1060 C1059 1.410 . S
C1060 C1061 1.392 . S
C1060 C1063 1.511 . S
C1061 C1057 1.376 . S
C1061 C1060 1.392 . S
C1061 H1073 0.929 . S
C1062 C1058 1.531 . S
C1062 H1074 0.960 . S
C1062 H1075 0.962 . S
C1062 H1076 0.960 . S
C1063 C1060 1.511 . S
C1063 H1077 0.961 . S
C1063 H1078 0.961 . S
C1063 H1079 0.961 . S
C1064 C1065 1.370 . S
C1064 C1066 1.363 . S
C1064 H1080 0.931 . S
C1065 C1064 1.370 . S
C1065 C1069 1.408 . S
C1066 C1064 1.363 . S
C1066 C1067 1.370 . S
C1066 C1070 1.524 . S
C1067 C1059 1.503 . S
C1067 C1066 1.370 . S
C1067 C1068 1.403 . S
C1068 C1067 1.403 . S
C1068 C1069 1.404 . S
C1068 C1071 1.539 . S
C1069 C1065 1.408 . S
C1069 C1068 1.404 . S
C1069 H1081 0.930 . S
C1070 C1066 1.524 . S
C1070 H1082 0.956 . S
C1070 H1083 0.961 . S
C1070 H1084 0.961 . S
C1071 C1068 1.539 . S
C1071 H1085 0.958 . S
C1071 H1086 0.961 . S
C1071 H1087 0.960 . S
H1072 C1056 0.931 . S
H1073 C1061 0.929 . S
H1074 C1062 0.960 . S
H1075 C1062 0.962 . S
H1076 C1062 0.960 . S
H1077 C1063 0.961 . S
H1078 C1063 0.961 . S
H1079 C1063 0.961 . S
H1080 C1064 0.931 . S
H1081 C1069 0.930 . S
H1082 C1070 0.956 . S
H1083 C1070 0.961 . S
H1084 C1070 0.961 . S
H1085 C1071 0.958 . S
H1086 C1071 0.961 . S
H1087 C1071 0.960 . S
C1088 C1089 1.391 . S
C1088 C1090 1.394 . S
C1088 H1104 0.931 . S
C1089 C1088 1.391 . S
C1089 C1093 1.376 . S
C1090 C1088 1.394 . S
C1090 C1091 1.369 . S
C1090 C1094 1.531 . S
C1091 C1090 1.369 . S
C1091 C1092 1.410 . S
C1091 C1099 1.503 . S
C1092 C1091 1.410 . S
C1092 C1093 1.392 . S
C1092 C1095 1.511 . S
C1093 C1089 1.376 . S
C1093 C1092 1.392 . S
C1093 H1105 0.929 . S
C1094 C1090 1.531 . S
C1094 H1106 0.960 . S
C1094 H1107 0.962 . S
C1094 H1108 0.960 . S
C1095 C1092 1.511 . S
C1095 H1109 0.961 . S
C1095 H1110 0.961 . S
C1095 H1111 0.961 . S
C1096 C1097 1.370 . S
C1096 C1098 1.363 . S
C1096 H1112 0.931 . S
C1097 C1096 1.370 . S
C1097 C1101 1.408 . S
C1098 C1096 1.363 . S
C1098 C1099 1.370 . S
C1098 C1102 1.524 . S
C1099 C1091 1.503 . S
C1099 C1098 1.370 . S
C1099 C1100 1.403 . S
C1100 C1099 1.403 . S
C1100 C1101 1.404 . S
C1100 C1103 1.539 . S
C1101 C1097 1.408 . S
C1101 C1100 1.404 . S
C1101 H1113 0.930 . S
C1102 C1098 1.524 . S
C1102 H1114 0.956 . S
C1102 H1115 0.961 . S
C1102 H1116 0.961 . S
C1103 C1100 1.539 . S
C1103 H1117 0.958 . S
C1103 H1118 0.961 . S
C1103 H1119 0.960 . S
H1104 C1088 0.931 . S
H1105 C1093 0.929 . S
H1106 C1094 0.960 . S
H1107 C1094 0.962 . S
H1108 C1094 0.960 . S
H1109 C1095 0.961 . S
H1110 C1095 0.961 . S
H1111 C1095 0.961 . S
H1112 C1096 0.931 . S
H1113 C1101 0.930 . S
H1114 C1102 0.956 . S
H1115 C1102 0.961 . S
H1116 C1102 0.961 . S
H1117 C1103 0.958 . S
H1118 C1103 0.961 . S
H1119 C1103 0.960 . S
C1120 C1121 1.391 . S
C1120 C1122 1.394 . S
C1120 H1136 0.931 . S
C1121 C1120 1.391 . S
C1121 C1125 1.376 . S
C1122 C1120 1.394 . S
C1122 C1123 1.369 . S
C1122 C1126 1.531 . S
C1123 C1122 1.369 . S
C1123 C1124 1.410 . S
C1123 C1131 1.503 . S
C1124 C1123 1.410 . S
C1124 C1125 1.392 . S
C1124 C1127 1.511 . S
C1125 C1121 1.376 . S
C1125 C1124 1.392 . S
C1125 H1137 0.929 . S
C1126 C1122 1.531 . S
C1126 H1138 0.960 . S
C1126 H1139 0.962 . S
C1126 H1140 0.960 . S
C1127 C1124 1.511 . S
C1127 H1141 0.961 . S
C1127 H1142 0.961 . S
C1127 H1143 0.961 . S
C1128 C1129 1.370 . S
C1128 C1130 1.363 . S
C1128 H1144 0.931 . S
C1129 C1128 1.370 . S
C1129 C1133 1.408 . S
C1130 C1128 1.363 . S
C1130 C1131 1.370 . S
C1130 C1134 1.524 . S
C1131 C1123 1.503 . S
C1131 C1130 1.370 . S
C1131 C1132 1.403 . S
C1132 C1131 1.403 . S
C1132 C1133 1.404 . S
C1132 C1135 1.539 . S
C1133 C1129 1.408 . S
C1133 C1132 1.404 . S
C1133 H1145 0.930 . S
C1134 C1130 1.524 . S
C1134 H1146 0.956 . S
C1134 H1147 0.961 . S
C1134 H1148 0.961 . S
C1135 C1132 1.539 . S
C1135 H1149 0.958 . S
C1135 H1150 0.961 . S
C1135 H1151 0.960 . S
H1136 C1120 0.931 . S
H1137 C1125 0.929 . S
H1138 C1126 0.960 . S
H1139 C1126 0.962 . S
H1140 C1126 0.960 . S
H1141 C1127 0.961 . S
H1142 C1127 0.961 . S
H1143 C1127 0.961 . S
H1144 C1128 0.931 . S
H1145 C1133 0.930 . S
H1146 C1134 0.956 . S
H1147 C1134 0.961 . S
H1148 C1134 0.961 . S
H1149 C1135 0.958 . S
H1150 C1135 0.961 . S
H1151 C1135 0.960 . S
C1152 C1153 1.391 . S
C1152 C1154 1.394 . S
C1152 H1168 0.931 . S
C1153 C1152 1.391 . S
C1153 C1157 1.376 . S
C1154 C1152 1.394 . S
C1154 C1155 1.369 . S
C1154 C1158 1.531 . S
C1155 C1154 1.369 . S
C1155 C1156 1.410 . S
C1155 C1163 1.503 . S
C1156 C1155 1.410 . S
C1156 C1157 1.392 . S
C1156 C1159 1.511 . S
C1157 C1153 1.376 . S
C1157 C1156 1.392 . S
C1157 H1169 0.929 . S
C1158 C1154 1.531 . S
C1158 H1170 0.960 . S
C1158 H1171 0.962 . S
C1158 H1172 0.960 . S
C1159 C1156 1.511 . S
C1159 H1173 0.961 . S
C1159 H1174 0.961 . S
C1159 H1175 0.961 . S
C1160 C1161 1.370 . S
C1160 C1162 1.363 . S
C1160 H1176 0.931 . S
C1161 C1160 1.370 . S
C1161 C1165 1.408 . S
C1162 C1160 1.363 . S
C1162 C1163 1.370 . S
C1162 C1166 1.524 . S
C1163 C1155 1.503 . S
C1163 C1162 1.370 . S
C1163 C1164 1.403 . S
C1164 C1163 1.403 . S
C1164 C1165 1.404 . S
C1164 C1167 1.539 . S
C1165 C1161 1.408 . S
C1165 C1164 1.404 . S
C1165 H1177 0.930 . S
C1166 C1162 1.524 . S
C1166 H1178 0.956 . S
C1166 H1179 0.961 . S
C1166 H1180 0.961 . S
C1167 C1164 1.539 . S
C1167 H1181 0.958 . S
C1167 H1182 0.961 . S
C1167 H1183 0.960 . S
H1168 C1152 0.931 . S
H1169 C1157 0.929 . S
H1170 C1158 0.960 . S
H1171 C1158 0.962 . S
H1172 C1158 0.960 . S
H1173 C1159 0.961 . S
H1174 C1159 0.961 . S
H1175 C1159 0.961 . S
H1176 C1160 0.931 . S
H1177 C1165 0.930 . S
H1178 C1166 0.956 . S
H1179 C1166 0.961 . S
H1180 C1166 0.961 . S
H1181 C1167 0.958 . S
H1182 C1167 0.961 . S
H1183 C1167 0.960 . S
C1184 C1185 1.391 . S
C1184 C1186 1.394 . S
C1184 H1200 0.931 . S
C1185 C1184 1.391 . S
C1185 C1189 1.376 . S
C1186 C1184 1.394 . S
C1186 C1187 1.369 . S
C1186 C1190 1.531 . S
C1187 C1186 1.369 . S
C1187 C1188 1.410 . S
C1187 C1195 1.503 . S
C1188 C1187 1.410 . S
C1188 C1189 1.392 . S
C1188 C1191 1.511 . S
C1189 C1185 1.376 . S
C1189 C1188 1.392 . S
C1189 H1201 0.929 . S
C1190 C1186 1.531 . S
C1190 H1202 0.960 . S
C1190 H1203 0.962 . S
C1190 H1204 0.960 . S
C1191 C1188 1.511 . S
C1191 H1205 0.961 . S
C1191 H1206 0.961 . S
C1191 H1207 0.961 . S
C1192 C1193 1.370 . S
C1192 C1194 1.363 . S
C1192 H1208 0.931 . S
C1193 C1192 1.370 . S
C1193 C1197 1.408 . S
C1194 C1192 1.363 . S
C1194 C1195 1.370 . S
C1194 C1198 1.524 . S
C1195 C1187 1.503 . S
C1195 C1194 1.370 . S
C1195 C1196 1.403 . S
C1196 C1195 1.403 . S
C1196 C1197 1.404 . S
C1196 C1199 1.539 . S
C1197 C1193 1.408 . S
C1197 C1196 1.404 . S
C1197 H1209 0.930 . S
C1198 C1194 1.524 . S
C1198 H1210 0.956 . S
C1198 H1211 0.961 . S
C1198 H1212 0.961 . S
C1199 C1196 1.539 . S
C1199 H1213 0.958 . S
C1199 H1214 0.961 . S
C1199 H1215 0.960 . S
H1200 C1184 0.931 . S
H1201 C1189 0.929 . S
H1202 C1190 0.960 . S
H1203 C1190 0.962 . S
H1204 C1190 0.960 . S
H1205 C1191 0.961 . S
H1206 C1191 0.961 . S
H1207 C1191 0.961 . S
H1208 C1192 0.931 . S
H1209 C1197 0.930 . S
H1210 C1198 0.956 . S
H1211 C1198 0.961 . S
H1212 C1198 0.961 . S
H1213 C1199 0.958 . S
H1214 C1199 0.961 . S
H1215 C1199 0.960 . S
C1216 C1217 1.391 . S
C1216 C1218 1.394 . S
C1216 H1232 0.931 . S
C1217 C1216 1.391 . S
C1217 C1221 1.376 . S
C1218 C1216 1.394 . S
C1218 C1219 1.369 . S
C1218 C1222 1.531 . S
C1219 C1218 1.369 . S
C1219 C1220 1.410 . S
C1219 C1227 1.503 . S
C1220 C1219 1.410 . S
C1220 C1221 1.392 . S
C1220 C1223 1.511 . S
C1221 C1217 1.376 . S
C1221 C1220 1.392 . S
C1221 H1233 0.929 . S
C1222 C1218 1.531 . S
C1222 H1234 0.960 . S
C1222 H1235 0.962 . S
C1222 H1236 0.960 . S
C1223 C1220 1.511 . S
C1223 H1237 0.961 . S
C1223 H1238 0.961 . S
C1223 H1239 0.961 . S
C1224 C1225 1.370 . S
C1224 C1226 1.363 . S
C1224 H1240 0.931 . S
C1225 C1224 1.370 . S
C1225 C1229 1.408 . S
C1226 C1224 1.363 . S
C1226 C1227 1.370 . S
C1226 C1230 1.524 . S
C1227 C1219 1.503 . S
C1227 C1226 1.370 . S
C1227 C1228 1.403 . S
C1228 C1227 1.403 . S
C1228 C1229 1.404 . S
C1228 C1231 1.539 . S
C1229 C1225 1.408 . S
C1229 C1228 1.404 . S
C1229 H1241 0.930 . S
C1230 C1226 1.524 . S
C1230 H1242 0.956 . S
C1230 H1243 0.961 . S
C1230 H1244 0.961 . S
C1231 C1228 1.539 . S
C1231 H1245 0.958 . S
C1231 H1246 0.961 . S
C1231 H1247 0.960 . S
H1232 C1216 0.931 . S
H1233 C1221 0.929 . S
H1234 C1222 0.960 . S
H1235 C1222 0.962 . S
H1236 C1222 0.960 . S
H1237 C1223 0.961 . S
H1238 C1223 0.961 . S
H1239 C1223 0.961 . S
H1240 C1224 0.931 . S
H1241 C1229 0.930 . S
H1242 C1230 0.956 . S
H1243 C1230 0.961 . S
H1244 C1230 0.961 . S
H1245 C1231 0.958 . S
H1246 C1231 0.961 . S
H1247 C1231 0.960 . S
C1248 C1249 1.391 . S
C1248 C1250 1.394 . S
C1248 H1264 0.931 . S
C1249 C1248 1.391 . S
C1249 C1253 1.376 . S
C1250 C1248 1.394 . S
C1250 C1251 1.369 . S
C1250 C1254 1.531 . S
C1251 C1250 1.369 . S
C1251 C1252 1.410 . S
C1251 C1259 1.503 . S
C1252 C1251 1.410 . S
C1252 C1253 1.392 . S
C1252 C1255 1.511 . S
C1253 C1249 1.376 . S
C1253 C1252 1.392 . S
C1253 H1265 0.929 . S
C1254 C1250 1.531 . S
C1254 H1266 0.960 . S
C1254 H1267 0.962 . S
C1254 H1268 0.960 . S
C1255 C1252 1.511 . S
C1255 H1269 0.961 . S
C1255 H1270 0.961 . S
C1255 H1271 0.961 . S
C1256 C1257 1.370 . S
C1256 C1258 1.363 . S
C1256 H1272 0.931 . S
C1257 C1256 1.370 . S
C1257 C1261 1.408 . S
C1258 C1256 1.363 . S
C1258 C1259 1.370 . S
C1258 C1262 1.524 . S
C1259 C1251 1.503 . S
C1259 C1258 1.370 . S
C1259 C1260 1.403 . S
C1260 C1259 1.403 . S
C1260 C1261 1.404 . S
C1260 C1263 1.539 . S
C1261 C1257 1.408 . S
C1261 C1260 1.404 . S
C1261 H1273 0.930 . S
C1262 C1258 1.524 . S
C1262 H1274 0.956 . S
C1262 H1275 0.961 . S
C1262 H1276 0.961 . S
C1263 C1260 1.539 . S
C1263 H1277 0.958 . S
C1263 H1278 0.961 . S
C1263 H1279 0.960 . S
H1264 C1248 0.931 . S
H1265 C1253 0.929 . S
H1266 C1254 0.960 . S
H1267 C1254 0.962 . S
H1268 C1254 0.960 . S
H1269 C1255 0.961 . S
H1270 C1255 0.961 . S
H1271 C1255 0.961 . S
H1272 C1256 0.931 . S
H1273 C1261 0.930 . S
H1274 C1262 0.956 . S
H1275 C1262 0.961 . S
H1276 C1262 0.961 . S
H1277 C1263 0.958 . S
H1278 C1263 0.961 . S
H1279 C1263 0.960 . S
C1280 C1281 1.391 . S
C1280 C1282 1.394 . S
C1280 H1296 0.931 . S
C1281 C1280 1.391 . S
C1281 C1285 1.376 . S
C1282 C1280 1.394 . S
C1282 C1283 1.369 . S
C1282 C1286 1.531 . S
C1283 C1282 1.369 . S
C1283 C1284 1.410 . S
C1283 C1291 1.503 . S
C1284 C1283 1.410 . S
C1284 C1285 1.392 . S
C1284 C1287 1.511 . S
C1285 C1281 1.376 . S
C1285 C1284 1.392 . S
C1285 H1297 0.929 . S
C1286 C1282 1.531 . S
C1286 H1298 0.960 . S
C1286 H1299 0.962 . S
C1286 H1300 0.960 . S
C1287 C1284 1.511 . S
C1287 H1301 0.961 . S
C1287 H1302 0.961 . S
C1287 H1303 0.961 . S
C1288 C1289 1.370 . S
C1288 C1290 1.363 . S
C1288 H1304 0.931 . S
C1289 C1288 1.370 . S
C1289 C1293 1.408 . S
C1290 C1288 1.363 . S
C1290 C1291 1.370 . S
C1290 C1294 1.524 . S
C1291 C1283 1.503 . S
C1291 C1290 1.370 . S
C1291 C1292 1.403 . S
C1292 C1291 1.403 . S
C1292 C1293 1.404 . S
C1292 C1295 1.539 . S
C1293 C1289 1.408 . S
C1293 C1292 1.404 . S
C1293 H1305 0.930 . S
C1294 C1290 1.524 . S
C1294 H1306 0.956 . S
C1294 H1307 0.961 . S
C1294 H1308 0.961 . S
C1295 C1292 1.539 . S
C1295 H1309 0.958 . S
C1295 H1310 0.961 . S
C1295 H1311 0.960 . S
H1296 C1280 0.931 . S
H1297 C1285 0.929 . S
H1298 C1286 0.960 . S
H1299 C1286 0.962 . S
H1300 C1286 0.960 . S
H1301 C1287 0.961 . S
H1302 C1287 0.961 . S
H1303 C1287 0.961 . S
H1304 C1288 0.931 . S
H1305 C1293 0.930 . S
H1306 C1294 0.956 . S
H1307 C1294 0.961 . S
H1308 C1294 0.961 . S
H1309 C1295 0.958 . S
H1310 C1295 0.961 . S
H1311 C1295 0.960 . S
C1312 C1313 1.391 . S
C1312 C1314 1.394 . S
C1312 H1328 0.931 . S
C1313 C1312 1.391 . S
C1313 C1317 1.376 . S
C1314 C1312 1.394 . S
C1314 C1315 1.369 . S
C1314 C1318 1.531 . S
C1315 C1314 1.369 . S
C1315 C1316 1.410 . S
C1315 C1323 1.503 . S
C1316 C1315 1.410 . S
C1316 C1317 1.392 . S
C1316 C1319 1.511 . S
C1317 C1313 1.376 . S
C1317 C1316 1.392 . S
C1317 H1329 0.929 . S
C1318 C1314 1.531 . S
C1318 H1330 0.960 . S
C1318 H1331 0.962 . S
C1318 H1332 0.960 . S
C1319 C1316 1.511 . S
C1319 H1333 0.961 . S
C1319 H1334 0.961 . S
C1319 H1335 0.961 . S
C1320 C1321 1.370 . S
C1320 C1322 1.363 . S
C1320 H1336 0.931 . S
C1321 C1320 1.370 . S
C1321 C1325 1.408 . S
C1322 C1320 1.363 . S
C1322 C1323 1.370 . S
C1322 C1326 1.524 . S
C1323 C1315 1.503 . S
C1323 C1322 1.370 . S
C1323 C1324 1.403 . S
C1324 C1323 1.403 . S
C1324 C1325 1.404 . S
C1324 C1327 1.539 . S
C1325 C1321 1.408 . S
C1325 C1324 1.404 . S
C1325 H1337 0.930 . S
C1326 C1322 1.524 . S
C1326 H1338 0.956 . S
C1326 H1339 0.961 . S
C1326 H1340 0.961 . S
C1327 C1324 1.539 . S
C1327 H1341 0.958 . S
C1327 H1342 0.961 . S
C1327 H1343 0.960 . S
H1328 C1312 0.931 . S
H1329 C1317 0.929 . S
H1330 C1318 0.960 . S
H1331 C1318 0.962 . S
H1332 C1318 0.960 . S
H1333 C1319 0.961 . S
H1334 C1319 0.961 . S
H1335 C1319 0.961 . S
H1336 C1320 0.931 . S
H1337 C1325 0.930 . S
H1338 C1326 0.956 . S
H1339 C1326 0.961 . S
H1340 C1326 0.961 . S
H1341 C1327 0.958 . S
H1342 C1327 0.961 . S
H1343 C1327 0.960 . S
C1344 C1345 1.391 . S
C1344 C1346 1.394 . S
C1344 H1360 0.931 . S
C1345 C1344 1.391 . S
C1345 C1349 1.376 . S
C1346 C1344 1.394 . S
C1346 C1347 1.369 . S
C1346 C1350 1.531 . S
C1347 C1346 1.369 . S
C1347 C1348 1.410 . S
C1347 C1355 1.503 . S
C1348 C1347 1.410 . S
C1348 C1349 1.392 . S
C1348 C1351 1.511 . S
C1349 C1345 1.376 . S
C1349 C1348 1.392 . S
C1349 H1361 0.929 . S
C1350 C1346 1.531 . S
C1350 H1362 0.960 . S
C1350 H1363 0.962 . S
C1350 H1364 0.960 . S
C1351 C1348 1.511 . S
C1351 H1365 0.961 . S
C1351 H1366 0.961 . S
C1351 H1367 0.961 . S
C1352 C1353 1.370 . S
C1352 C1354 1.363 . S
C1352 H1368 0.931 . S
C1353 C1352 1.370 . S
C1353 C1357 1.408 . S
C1354 C1352 1.363 . S
C1354 C1355 1.370 . S
C1354 C1358 1.524 . S
C1355 C1347 1.503 . S
C1355 C1354 1.370 . S
C1355 C1356 1.403 . S
C1356 C1355 1.403 . S
C1356 C1357 1.404 . S
C1356 C1359 1.539 . S
C1357 C1353 1.408 . S
C1357 C1356 1.404 . S
C1357 H1369 0.930 . S
C1358 C1354 1.524 . S
C1358 H1370 0.956 . S
C1358 H1371 0.961 . S
C1358 H1372 0.961 . S
C1359 C1356 1.539 . S
C1359 H1373 0.958 . S
C1359 H1374 0.961 . S
C1359 H1375 0.960 . S
H1360 C1344 0.931 . S
H1361 C1349 0.929 . S
H1362 C1350 0.960 . S
H1363 C1350 0.962 . S
H1364 C1350 0.960 . S
H1365 C1351 0.961 . S
H1366 C1351 0.961 . S
H1367 C1351 0.961 . S
H1368 C1352 0.931 . S
H1369 C1357 0.930 . S
H1370 C1358 0.956 . S
H1371 C1358 0.961 . S
H1372 C1358 0.961 . S
H1373 C1359 0.958 . S
H1374 C1359 0.961 . S
H1375 C1359 0.960 . S
C1376 C1377 1.391 . S
C1376 C1378 1.394 . S
C1376 H1392 0.931 . S
C1377 C1376 1.391 . S
C1377 C1381 1.376 . S
C1378 C1376 1.394 . S
C1378 C1379 1.369 . S
C1378 C1382 1.531 . S
C1379 C1378 1.369 . S
C1379 C1380 1.410 . S
C1379 C1387 1.503 . S
C1380 C1379 1.410 . S
C1380 C1381 1.392 . S
C1380 C1383 1.511 . S
C1381 C1377 1.376 . S
C1381 C1380 1.392 . S
C1381 H1393 0.929 . S
C1382 C1378 1.531 . S
C1382 H1394 0.960 . S
C1382 H1395 0.962 . S
C1382 H1396 0.960 . S
C1383 C1380 1.511 . S
C1383 H1397 0.961 . S
C1383 H1398 0.961 . S
C1383 H1399 0.961 . S
C1384 C1385 1.370 . S
C1384 C1386 1.363 . S
C1384 H1400 0.931 . S
C1385 C1384 1.370 . S
C1385 C1389 1.408 . S
C1386 C1384 1.363 . S
C1386 C1387 1.370 . S
C1386 C1390 1.524 . S
C1387 C1379 1.503 . S
C1387 C1386 1.370 . S
C1387 C1388 1.403 . S
C1388 C1387 1.403 . S
C1388 C1389 1.404 . S
C1388 C1391 1.539 . S
C1389 C1385 1.408 . S
C1389 C1388 1.404 . S
C1389 H1401 0.930 . S
C1390 C1386 1.524 . S
C1390 H1402 0.956 . S
C1390 H1403 0.961 . S
C1390 H1404 0.961 . S
C1391 C1388 1.539 . S
C1391 H1405 0.958 . S
C1391 H1406 0.961 . S
C1391 H1407 0.960 . S
H1392 C1376 0.931 . S
H1393 C1381 0.929 . S
H1394 C1382 0.960 . S
H1395 C1382 0.962 . S
H1396 C1382 0.960 . S
H1397 C1383 0.961 . S
H1398 C1383 0.961 . S
H1399 C1383 0.961 . S
H1400 C1384 0.931 . S
H1401 C1389 0.930 . S
H1402 C1390 0.956 . S
H1403 C1390 0.961 . S
H1404 C1390 0.961 . S
H1405 C1391 0.958 . S
H1406 C1391 0.961 . S
H1407 C1391 0.960 . S
C1408 C1409 1.391 . S
C1408 C1410 1.394 . S
C1408 H1424 0.931 . S
C1409 C1408 1.391 . S
C1409 C1413 1.376 . S
C1410 C1408 1.394 . S
C1410 C1411 1.369 . S
C1410 C1414 1.531 . S
C1411 C1410 1.369 . S
C1411 C1412 1.410 . S
C1411 C1419 1.503 . S
C1412 C1411 1.410 . S
C1412 C1413 1.392 . S
C1412 C1415 1.511 . S
C1413 C1409 1.376 . S
C1413 C1412 1.392 . S
C1413 H1425 0.929 . S
C1414 C1410 1.531 . S
C1414 H1426 0.960 . S
C1414 H1427 0.962 . S
C1414 H1428 0.960 . S
C1415 C1412 1.511 . S
C1415 H1429 0.961 . S
C1415 H1430 0.961 . S
C1415 H1431 0.961 . S
C1416 C1417 1.370 . S
C1416 C1418 1.363 . S
C1416 H1432 0.931 . S
C1417 C1416 1.370 . S
C1417 C1421 1.408 . S
C1418 C1416 1.363 . S
C1418 C1419 1.370 . S
C1418 C1422 1.524 . S
C1419 C1411 1.503 . S
C1419 C1418 1.370 . S
C1419 C1420 1.403 . S
C1420 C1419 1.403 . S
C1420 C1421 1.404 . S
C1420 C1423 1.539 . S
C1421 C1417 1.408 . S
C1421 C1420 1.404 . S
C1421 H1433 0.930 . S
C1422 C1418 1.524 . S
C1422 H1434 0.956 . S
C1422 H1435 0.961 . S
C1422 H1436 0.961 . S
C1423 C1420 1.539 . S
C1423 H1437 0.958 . S
C1423 H1438 0.961 . S
C1423 H1439 0.960 . S
H1424 C1408 0.931 . S
H1425 C1413 0.929 . S
H1426 C1414 0.960 . S
H1427 C1414 0.962 . S
H1428 C1414 0.960 . S
H1429 C1415 0.961 . S
H1430 C1415 0.961 . S
H1431 C1415 0.961 . S
H1432 C1416 0.931 . S
H1433 C1421 0.930 . S
H1434 C1422 0.956 . S
H1435 C1422 0.961 . S
H1436 C1422 0.961 . S
H1437 C1423 0.958 . S
H1438 C1423 0.961 . S
H1439 C1423 0.960 . S
C1440 C1441 1.391 . S
C1440 C1442 1.394 . S
C1440 H1456 0.931 . S
C1441 C1440 1.391 . S
C1441 C1445 1.376 . S
C1442 C1440 1.394 . S
C1442 C1443 1.369 . S
C1442 C1446 1.531 . S
C1443 C1442 1.369 . S
C1443 C1444 1.410 . S
C1443 C1451 1.503 . S
C1444 C1443 1.410 . S
C1444 C1445 1.392 . S
C1444 C1447 1.511 . S
C1445 C1441 1.376 . S
C1445 C1444 1.392 . S
C1445 H1457 0.929 . S
C1446 C1442 1.531 . S
C1446 H1458 0.960 . S
C1446 H1459 0.962 . S
C1446 H1460 0.960 . S
C1447 C1444 1.511 . S
C1447 H1461 0.961 . S
C1447 H1462 0.961 . S
C1447 H1463 0.961 . S
C1448 C1449 1.370 . S
C1448 C1450 1.363 . S
C1448 H1464 0.931 . S
C1449 C1448 1.370 . S
C1449 C1453 1.408 . S
C1450 C1448 1.363 . S
C1450 C1451 1.370 . S
C1450 C1454 1.524 . S
C1451 C1443 1.503 . S
C1451 C1450 1.370 . S
C1451 C1452 1.403 . S
C1452 C1451 1.403 . S
C1452 C1453 1.404 . S
C1452 C1455 1.539 . S
C1453 C1449 1.408 . S
C1453 C1452 1.404 . S
C1453 H1465 0.930 . S
C1454 C1450 1.524 . S
C1454 H1466 0.956 . S
C1454 H1467 0.961 . S
C1454 H1468 0.961 . S
C1455 C1452 1.539 . S
C1455 H1469 0.958 . S
C1455 H1470 0.961 . S
C1455 H1471 0.960 . S
H1456 C1440 0.931 . S
H1457 C1445 0.929 . S
H1458 C1446 0.960 . S
H1459 C1446 0.962 . S
H1460 C1446 0.960 . S
H1461 C1447 0.961 . S
H1462 C1447 0.961 . S
H1463 C1447 0.961 . S
H1464 C1448 0.931 . S
H1465 C1453 0.930 . S
H1466 C1454 0.956 . S
H1467 C1454 0.961 . S
H1468 C1454 0.961 . S
H1469 C1455 0.958 . S
H1470 C1455 0.961 . S
H1471 C1455 0.960 . S
C1472 C1473 1.391 . S
C1472 C1474 1.394 . S
C1472 H1488 0.931 . S
C1473 C1472 1.391 . S
C1473 C1477 1.376 . S
C1474 C1472 1.394 . S
C1474 C1475 1.369 . S
C1474 C1478 1.531 . S
C1475 C1474 1.369 . S
C1475 C1476 1.410 . S
C1475 C1483 1.503 . S
C1476 C1475 1.410 . S
C1476 C1477 1.392 . S
C1476 C1479 1.511 . S
C1477 C1473 1.376 . S
C1477 C1476 1.392 . S
C1477 H1489 0.929 . S
C1478 C1474 1.531 . S
C1478 H1490 0.960 . S
C1478 H1491 0.962 . S
C1478 H1492 0.960 . S
C1479 C1476 1.511 . S
C1479 H1493 0.961 . S
C1479 H1494 0.961 . S
C1479 H1495 0.961 . S
C1480 C1481 1.370 . S
C1480 C1482 1.363 . S
C1480 H1496 0.931 . S
C1481 C1480 1.370 . S
C1481 C1485 1.408 . S
C1482 C1480 1.363 . S
C1482 C1483 1.370 . S
C1482 C1486 1.524 . S
C1483 C1475 1.503 . S
C1483 C1482 1.370 . S
C1483 C1484 1.403 . S
C1484 C1483 1.403 . S
C1484 C1485 1.404 . S
C1484 C1487 1.539 . S
C1485 C1481 1.408 . S
C1485 C1484 1.404 . S
C1485 H1497 0.930 . S
C1486 C1482 1.524 . S
C1486 H1498 0.956 . S
C1486 H1499 0.961 . S
C1486 H1500 0.961 . S
C1487 C1484 1.539 . S
C1487 H1501 0.958 . S
C1487 H1502 0.961 . S
C1487 H1503 0.960 . S
H1488 C1472 0.931 . S
H1489 C1477 0.929 . S
H1490 C1478 0.960 . S
H1491 C1478 0.962 . S
H1492 C1478 0.960 . S
H1493 C1479 0.961 . S
H1494 C1479 0.961 . S
H1495 C1479 0.961 . S
H1496 C1480 0.931 . S
H1497 C1485 0.930 . S
H1498 C1486 0.956 . S
H1499 C1486 0.961 . S
H1500 C1486 0.961 . S
H1501 C1487 0.958 . S
H1502 C1487 0.961 . S
H1503 C1487 0.960 . S
C1504 C1505 1.391 . S
C1504 C1506 1.394 . S
C1504 H1520 0.931 . S
C1505 C1504 1.391 . S
C1505 C1509 1.376 . S
C1506 C1504 1.394 . S
C1506 C1507 1.369 . S
C1506 C1510 1.531 . S
C1507 C1506 1.369 . S
C1507 C1508 1.410 . S
C1507 C1515 1.503 . S
C1508 C1507 1.410 . S
C1508 C1509 1.392 . S
C1508 C1511 1.511 . S
C1509 C1505 1.376 . S
C1509 C1508 1.392 . S
C1509 H1521 0.929 . S
C1510 C1506 1.531 . S
C1510 H1522 0.960 . S
C1510 H1523 0.962 . S
C1510 H1524 0.960 . S
C1511 C1508 1.511 . S
C1511 H1525 0.961 . S
C1511 H1526 0.961 . S
C1511 H1527 0.961 . S
C1512 C1513 1.370 . S
C1512 C1514 1.363 . S
C1512 H1528 0.931 . S
C1513 C1512 1.370 . S
C1513 C1517 1.408 . S
C1514 C1512 1.363 . S
C1514 C1515 1.370 . S
C1514 C1518 1.524 . S
C1515 C1507 1.503 . S
C1515 C1514 1.370 . S
C1515 C1516 1.403 . S
C1516 C1515 1.403 . S
C1516 C1517 1.404 . S
C1516 C1519 1.539 . S
C1517 C1513 1.408 . S
C1517 C1516 1.404 . S
C1517 H1529 0.930 . S
C1518 C1514 1.524 . S
C1518 H1530 0.956 . S
C1518 H1531 0.961 . S
C1518 H1532 0.961 . S
C1519 C1516 1.539 . S
C1519 H1533 0.958 . S
C1519 H1534 0.961 . S
C1519 H1535 0.960 . S
H1520 C1504 0.931 . S
H1521 C1509 0.929 . S
H1522 C1510 0.960 . S
H1523 C1510 0.962 . S
H1524 C1510 0.960 . S
H1525 C1511 0.961 . S
H1526 C1511 0.961 . S
H1527 C1511 0.961 . S
H1528 C1512 0.931 . S
H1529 C1517 0.930 . S
H1530 C1518 0.956 . S
H1531 C1518 0.961 . S
H1532 C1518 0.961 . S
H1533 C1519 0.958 . S
H1534 C1519 0.961 . S
H1535 C1519 0.960 . S
C1536 C1537 1.391 . S
C1536 C1538 1.394 . S
C1536 H1552 0.931 . S
C1537 C1536 1.391 . S
C1537 C1541 1.376 . S
C1538 C1536 1.394 . S
C1538 C1539 1.369 . S
C1538 C1542 1.531 . S
C1539 C1538 1.369 . S
C1539 C1540 1.410 . S
C1539 C1547 1.503 . S
C1540 C1539 1.410 . S
C1540 C1541 1.392 . S
C1540 C1543 1.511 . S
C1541 C1537 1.376 . S
C1541 C1540 1.392 . S
C1541 H1553 0.929 . S
C1542 C1538 1.531 . S
C1542 H1554 0.960 . S
C1542 H1555 0.962 . S
C1542 H1556 0.960 . S
C1543 C1540 1.511 . S
C1543 H1557 0.961 . S
C1543 H1558 0.961 . S
C1543 H1559 0.961 . S
C1544 C1545 1.370 . S
C1544 C1546 1.363 . S
C1544 H1560 0.931 . S
C1545 C1544 1.370 . S
C1545 C1549 1.408 . S
C1546 C1544 1.363 . S
C1546 C1547 1.370 . S
C1546 C1550 1.524 . S
C1547 C1539 1.503 . S
C1547 C1546 1.370 . S
C1547 C1548 1.403 . S
C1548 C1547 1.403 . S
C1548 C1549 1.404 . S
C1548 C1551 1.539 . S
C1549 C1545 1.408 . S
C1549 C1548 1.404 . S
C1549 H1561 0.930 . S
C1550 C1546 1.524 . S
C1550 H1562 0.956 . S
C1550 H1563 0.961 . S
C1550 H1564 0.961 . S
C1551 C1548 1.539 . S
C1551 H1565 0.958 . S
C1551 H1566 0.961 . S
C1551 H1567 0.960 . S
H1552 C1536 0.931 . S
H1553 C1541 0.929 . S
H1554 C1542 0.960 . S
H1555 C1542 0.962 . S
H1556 C1542 0.960 . S
H1557 C1543 0.961 . S
H1558 C1543 0.961 . S
H1559 C1543 0.961 . S
H1560 C1544 0.931 . S
H1561 C1549 0.930 . S
H1562 C1550 0.956 . S
H1563 C1550 0.961 . S
H1564 C1550 0.961 . S
H1565 C1551 0.958 . S
H1566 C1551 0.961 . S
H1567 C1551 0.960 . S
C1568 C1569 1.391 . S
C1568 C1570 1.394 . S
C1568 H1584 0.931 . S
C1569 C1568 1.391 . S
C1569 C1573 1.376 . S
C1570 C1568 1.394 . S
C1570 C1571 1.369 . S
C1570 C1574 1.531 . S
C1571 C1570 1.369 . S
C1571 C1572 1.410 . S
C1571 C1579 1.503 . S
C1572 C1571 1.410 . S
C1572 C1573 1.392 . S
C1572 C1575 1.511 . S
C1573 C1569 1.376 . S
C1573 C1572 1.392 . S
C1573 H1585 0.929 . S
C1574 C1570 1.531 . S
C1574 H1586 0.960 . S
C1574 H1587 0.962 . S
C1574 H1588 0.960 . S
C1575 C1572 1.511 . S
C1575 H1589 0.961 . S
C1575 H1590 0.961 . S
C1575 H1591 0.961 . S
C1576 C1577 1.370 . S
C1576 C1578 1.363 . S
C1576 H1592 0.931 . S
C1577 C1576 1.370 . S
C1577 C1581 1.408 . S
C1578 C1576 1.363 . S
C1578 C1579 1.370 . S
C1578 C1582 1.524 . S
C1579 C1571 1.503 . S
C1579 C1578 1.370 . S
C1579 C1580 1.403 . S
C1580 C1579 1.403 . S
C1580 C1581 1.404 . S
C1580 C1583 1.539 . S
C1581 C1577 1.408 . S
C1581 C1580 1.404 . S
C1581 H1593 0.930 . S
C1582 C1578 1.524 . S
C1582 H1594 0.956 . S
C1582 H1595 0.961 . S
C1582 H1596 0.961 . S
C1583 C1580 1.539 . S
C1583 H1597 0.958 . S
C1583 H1598 0.961 . S
C1583 H1599 0.960 . S
H1584 C1568 0.931 . S
H1585 C1573 0.929 . S
H1586 C1574 0.960 . S
H1587 C1574 0.962 . S
H1588 C1574 0.960 . S
H1589 C1575 0.961 . S
H1590 C1575 0.961 . S
H1591 C1575 0.961 . S
H1592 C1576 0.931 . S
H1593 C1581 0.930 . S
H1594 C1582 0.956 . S
H1595 C1582 0.961 . S
H1596 C1582 0.961 . S
H1597 C1583 0.958 . S
H1598 C1583 0.961 . S
H1599 C1583 0.960 . S
C1600 C1601 1.391 . S
C1600 C1602 1.394 . S
C1600 H1616 0.931 . S
C1601 C1600 1.391 . S
C1601 C1605 1.376 . S
C1602 C1600 1.394 . S
C1602 C1603 1.369 . S
C1602 C1606 1.531 . S
C1603 C1602 1.369 . S
C1603 C1604 1.410 . S
C1603 C1611 1.503 . S
C1604 C1603 1.410 . S
C1604 C1605 1.392 . S
C1604 C1607 1.511 . S
C1605 C1601 1.376 . S
C1605 C1604 1.392 . S
C1605 H1617 0.929 . S
C1606 C1602 1.531 . S
C1606 H1618 0.960 . S
C1606 H1619 0.962 . S
C1606 H1620 0.960 . S
C1607 C1604 1.511 . S
C1607 H1621 0.961 . S
C1607 H1622 0.961 . S
C1607 H1623 0.961 . S
C1608 C1609 1.370 . S
C1608 C1610 1.363 . S
C1608 H1624 0.931 . S
C1609 C1608 1.370 . S
C1609 C1613 1.408 . S
C1610 C1608 1.363 . S
C1610 C1611 1.370 . S
C1610 C1614 1.524 . S
C1611 C1603 1.503 . S
C1611 C1610 1.370 . S
C1611 C1612 1.403 . S
C1612 C1611 1.403 . S
C1612 C1613 1.404 . S
C1612 C1615 1.539 . S
C1613 C1609 1.408 . S
C1613 C1612 1.404 . S
C1613 H1625 0.930 . S
C1614 C1610 1.524 . S
C1614 H1626 0.956 . S
C1614 H1627 0.961 . S
C1614 H1628 0.961 . S
C1615 C1612 1.539 . S
C1615 H1629 0.958 . S
C1615 H1630 0.961 . S
C1615 H1631 0.960 . S
H1616 C1600 0.931 . S
H1617 C1605 0.929 . S
H1618 C1606 0.960 . S
H1619 C1606 0.962 . S
H1620 C1606 0.960 . S
H1621 C1607 0.961 . S
H1622 C1607 0.961 . S
H1623 C1607 0.961 . S
H1624 C1608 0.931 . S
H1625 C1613 0.930 . S
H1626 C1614 0.956 . S
H1627 C1614 0.961 . S
H1628 C1614 0.961 . S
H1629 C1615 0.958 . S
H1630 C1615 0.961 . S
H1631 C1615 0.960 . S
C1632 C1633 1.391 . S
C1632 C1634 1.394 . S
C1632 H1648 0.931 . S
C1633 C1632 1.391 . S
C1633 C1637 1.376 . S
C1634 C1632 1.394 . S
C1634 C1635 1.369 . S
C1634 C1638 1.531 . S
C1635 C1634 1.369 . S
C1635 C1636 1.410 . S
C1635 C1643 1.503 . S
C1636 C1635 1.410 . S
C1636 C1637 1.392 . S
C1636 C1639 1.511 . S
C1637 C1633 1.376 . S
C1637 C1636 1.392 . S
C1637 H1649 0.929 . S
C1638 C1634 1.531 . S
C1638 H1650 0.960 . S
C1638 H1651 0.962 . S
C1638 H1652 0.960 . S
C1639 C1636 1.511 . S
C1639 H1653 0.961 . S
C1639 H1654 0.961 . S
C1639 H1655 0.961 . S
C1640 C1641 1.370 . S
C1640 C1642 1.363 . S
C1640 H1656 0.931 . S
C1641 C1640 1.370 . S
C1641 C1645 1.408 . S
C1642 C1640 1.363 . S
C1642 C1643 1.370 . S
C1642 C1646 1.524 . S
C1643 C1635 1.503 . S
C1643 C1642 1.370 . S
C1643 C1644 1.403 . S
C1644 C1643 1.403 . S
C1644 C1645 1.404 . S
C1644 C1647 1.539 . S
C1645 C1641 1.408 . S
C1645 C1644 1.404 . S
C1645 H1657 0.930 . S
C1646 C1642 1.524 . S
C1646 H1658 0.956 . S
C1646 H1659 0.961 . S
C1646 H1660 0.961 . S
C1647 C1644 1.539 . S
C1647 H1661 0.958 . S
C1647 H1662 0.961 . S
C1647 H1663 0.960 . S
H1648 C1632 0.931 . S
H1649 C1637 0.929 . S
H1650 C1638 0.960 . S
H1651 C1638 0.962 . S
H1652 C1638 0.960 . S
H1653 C1639 0.961 . S
H1654 C1639 0.961 . S
H1655 C1639 0.961 . S
H1656 C1640 0.931 . S
H1657 C1645 0.930 . S
H1658 C1646 0.956 . S
H1659 C1646 0.961 . S
H1660 C1646 0.961 . S
H1661 C1647 0.958 . S
H1662 C1647 0.961 . S
H1663 C1647 0.960 . S
C1664 C1665 1.391 . S
C1664 C1666 1.394 . S
C1664 H1680 0.931 . S
C1665 C1664 1.391 . S
C1665 C1669 1.376 . S
C1666 C1664 1.394 . S
C1666 C1667 1.369 . S
C1666 C1670 1.531 . S
C1667 C1666 1.369 . S
C1667 C1668 1.410 . S
C1667 C1675 1.503 . S
C1668 C1667 1.410 . S
C1668 C1669 1.392 . S
C1668 C1671 1.511 . S
C1669 C1665 1.376 . S
C1669 C1668 1.392 . S
C1669 H1681 0.929 . S
C1670 C1666 1.531 . S
C1670 H1682 0.960 . S
C1670 H1683 0.962 . S
C1670 H1684 0.960 . S
C1671 C1668 1.511 . S
C1671 H1685 0.961 . S
C1671 H1686 0.961 . S
C1671 H1687 0.961 . S
C1672 C1673 1.370 . S
C1672 C1674 1.363 . S
C1672 H1688 0.931 . S
C1673 C1672 1.370 . S
C1673 C1677 1.408 . S
C1674 C1672 1.363 . S
C1674 C1675 1.370 . S
C1674 C1678 1.524 . S
C1675 C1667 1.503 . S
C1675 C1674 1.370 . S
C1675 C1676 1.403 . S
C1676 C1675 1.403 . S
C1676 C1677 1.404 . S
C1676 C1679 1.539 . S
C1677 C1673 1.408 . S
C1677 C1676 1.404 . S
C1677 H1689 0.930 . S
C1678 C1674 1.524 . S
C1678 H1690 0.956 . S
C1678 H1691 0.961 . S
C1678 H1692 0.961 . S
C1679 C1676 1.539 . S
C1679 H1693 0.958 . S
C1679 H1694 0.961 . S
C1679 H1695 0.960 . S
H1680 C1664 0.931 . S
H1681 C1669 0.929 . S
H1682 C1670 0.960 . S
H1683 C1670 0.962 . S
H1684 C1670 0.960 . S
H1685 C1671 0.961 . S
H1686 C1671 0.961 . S
H1687 C1671 0.961 . S
H1688 C1672 0.931 . S
H1689 C1677 0.930 . S
H1690 C1678 0.956 . S
H1691 C1678 0.961 . S
H1692 C1678 0.961 . S
H1693 C1679 0.958 . S
H1694 C1679 0.961 . S
H1695 C1679 0.960 . S
C1696 C1697 1.391 . S
C1696 C1698 1.394 . S
C1696 H1712 0.931 . S
C1697 C1696 1.391 . S
C1697 C1701 1.376 . S
C1698 C1696 1.394 . S
C1698 C1699 1.369 . S
C1698 C1702 1.531 . S
C1699 C1698 1.369 . S
C1699 C1700 1.410 . S
C1699 C1707 1.503 . S
C1700 C1699 1.410 . S
C1700 C1701 1.392 . S
C1700 C1703 1.511 . S
C1701 C1697 1.376 . S
C1701 C1700 1.392 . S
C1701 H1713 0.929 . S
C1702 C1698 1.531 . S
C1702 H1714 0.960 . S
C1702 H1715 0.962 . S
C1702 H1716 0.960 . S
C1703 C1700 1.511 . S
C1703 H1717 0.961 . S
C1703 H1718 0.961 . S
C1703 H1719 0.961 . S
C1704 C1705 1.370 . S
C1704 C1706 1.363 . S
C1704 H1720 0.931 . S
C1705 C1704 1.370 . S
C1705 C1709 1.408 . S
C1706 C1704 1.363 . S
C1706 C1707 1.370 . S
C1706 C1710 1.524 . S
C1707 C1699 1.503 . S
C1707 C1706 1.370 . S
C1707 C1708 1.403 . S
C1708 C1707 1.403 . S
C1708 C1709 1.404 . S
C1708 C1711 1.539 . S
C1709 C1705 1.408 . S
C1709 C1708 1.404 . S
C1709 H1721 0.930 . S
C1710 C1706 1.524 . S
C1710 H1722 0.956 . S
C1710 H1723 0.961 . S
C1710 H1724 0.961 . S
C1711 C1708 1.539 . S
C1711 H1725 0.958 . S
C1711 H1726 0.961 . S
C1711 H1727 0.960 . S
H1712 C1696 0.931 . S
H1713 C1701 0.929 . S
H1714 C1702 0.960 . S
H1715 C1702 0.962 . S
H1716 C1702 0.960 . S
H1717 C1703 0.961 . S
H1718 C1703 0.961 . S
H1719 C1703 0.961 . S
H1720 C1704 0.931 . S
H1721 C1709 0.930 . S
H1722 C1710 0.956 . S
H1723 C1710 0.961 . S
H1724 C1710 0.961 . S
H1725 C1711 0.958 . S
H1726 C1711 0.961 . S
H1727 C1711 0.960 . S
C1728 C1729 1.391 . S
C1728 C1730 1.394 . S
C1728 H1744 0.931 . S
C1729 C1728 1.391 . S
C1729 C1733 1.376 . S
C1730 C1728 1.394 . S
C1730 C1731 1.369 . S
C1730 C1734 1.531 . S
C1731 C1730 1.369 . S
C1731 C1732 1.410 . S
C1731 C1739 1.503 . S
C1732 C1731 1.410 . S
C1732 C1733 1.392 . S
C1732 C1735 1.511 . S
C1733 C1729 1.376 . S
C1733 C1732 1.392 . S
C1733 H1745 0.929 . S
C1734 C1730 1.531 . S
C1734 H1746 0.960 . S
C1734 H1747 0.962 . S
C1734 H1748 0.960 . S
C1735 C1732 1.511 . S
C1735 H1749 0.961 . S
C1735 H1750 0.961 . S
C1735 H1751 0.961 . S
C1736 C1737 1.370 . S
C1736 C1738 1.363 . S
C1736 H1752 0.931 . S
C1737 C1736 1.370 . S
C1737 C1741 1.408 . S
C1738 C1736 1.363 . S
C1738 C1739 1.370 . S
C1738 C1742 1.524 . S
C1739 C1731 1.503 . S
C1739 C1738 1.370 . S
C1739 C1740 1.403 . S
C1740 C1739 1.403 . S
C1740 C1741 1.404 . S
C1740 C1743 1.539 . S
C1741 C1737 1.408 . S
C1741 C1740 1.404 . S
C1741 H1753 0.930 . S
C1742 C1738 1.524 . S
C1742 H1754 0.956 . S
C1742 H1755 0.961 . S
C1742 H1756 0.961 . S
C1743 C1740 1.539 . S
C1743 H1757 0.958 . S
C1743 H1758 0.961 . S
C1743 H1759 0.960 . S
H1744 C1728 0.931 . S
H1745 C1733 0.929 . S
H1746 C1734 0.960 . S
H1747 C1734 0.962 . S
H1748 C1734 0.960 . S
H1749 C1735 0.961 . S
H1750 C1735 0.961 . S
H1751 C1735 0.961 . S
H1752 C1736 0.931 . S
H1753 C1741 0.930 . S
H1754 C1742 0.956 . S
H1755 C1742 0.961 . S
H1756 C1742 0.961 . S
H1757 C1743 0.958 . S
H1758 C1743 0.961 . S
H1759 C1743 0.960 . S
C1760 C1761 1.391 . S
C1760 C1762 1.394 . S
C1760 H1776 0.931 . S
C1761 C1760 1.391 . S
C1761 C1765 1.376 . S
C1762 C1760 1.394 . S
C1762 C1763 1.369 . S
C1762 C1766 1.531 . S
C1763 C1762 1.369 . S
C1763 C1764 1.410 . S
C1763 C1771 1.503 . S
C1764 C1763 1.410 . S
C1764 C1765 1.392 . S
C1764 C1767 1.511 . S
C1765 C1761 1.376 . S
C1765 C1764 1.392 . S
C1765 H1777 0.929 . S
C1766 C1762 1.531 . S
C1766 H1778 0.960 . S
C1766 H1779 0.962 . S
C1766 H1780 0.960 . S
C1767 C1764 1.511 . S
C1767 H1781 0.961 . S
C1767 H1782 0.961 . S
C1767 H1783 0.961 . S
C1768 C1769 1.370 . S
C1768 C1770 1.363 . S
C1768 H1784 0.931 . S
C1769 C1768 1.370 . S
C1769 C1773 1.408 . S
C1770 C1768 1.363 . S
C1770 C1771 1.370 . S
C1770 C1774 1.524 . S
C1771 C1763 1.503 . S
C1771 C1770 1.370 . S
C1771 C1772 1.403 . S
C1772 C1771 1.403 . S
C1772 C1773 1.404 . S
C1772 C1775 1.539 . S
C1773 C1769 1.408 . S
C1773 C1772 1.404 . S
C1773 H1785 0.930 . S
C1774 C1770 1.524 . S
C1774 H1786 0.956 . S
C1774 H1787 0.961 . S
C1774 H1788 0.961 . S
C1775 C1772 1.539 . S
C1775 H1789 0.958 . S
C1775 H1790 0.961 . S
C1775 H1791 0.960 . S
H1776 C1760 0.931 . S
H1777 C1765 0.929 . S
H1778 C1766 0.960 . S
H1779 C1766 0.962 . S
H1780 C1766 0.960 . S
H1781 C1767 0.961 . S
H1782 C1767 0.961 . S
H1783 C1767 0.961 . S
H1784 C1768 0.931 . S
H1785 C1773 0.930 . S
H1786 C1774 0.956 . S
H1787 C1774 0.961 . S
H1788 C1774 0.961 . S
H1789 C1775 0.958 . S
H1790 C1775 0.961 . S
H1791 C1775 0.960 . S
C1792 C1793 1.391 . S
C1792 C1794 1.394 . S
C1792 H1808 0.931 . S
C1793 C1792 1.391 . S
C1793 C1797 1.376 . S
C1794 C1792 1.394 . S
C1794 C1795 1.369 . S
C1794 C1798 1.531 . S
C1795 C1794 1.369 . S
C1795 C1796 1.410 . S
C1795 C1803 1.503 . S
C1796 C1795 1.410 . S
C1796 C1797 1.392 . S
C1796 C1799 1.511 . S
C1797 C1793 1.376 . S
C1797 C1796 1.392 . S
C1797 H1809 0.929 . S
C1798 C1794 1.531 . S
C1798 H1810 0.960 . S
C1798 H1811 0.962 . S
C1798 H1812 0.960 . S
C1799 C1796 1.511 . S
C1799 H1813 0.961 . S
C1799 H1814 0.961 . S
C1799 H1815 0.961 . S
C1800 C1801 1.370 . S
C1800 C1802 1.363 . S
C1800 H1816 0.931 . S
C1801 C1800 1.370 . S
C1801 C1805 1.408 . S
C1802 C1800 1.363 . S
C1802 C1803 1.370 . S
C1802 C1806 1.524 . S
C1803 C1795 1.503 . S
C1803 C1802 1.370 . S
C1803 C1804 1.403 . S
C1804 C1803 1.403 . S
C1804 C1805 1.404 . S
C1804 C1807 1.539 . S
C1805 C1801 1.408 . S
C1805 C1804 1.404 . S
C1805 H1817 0.930 . S
C1806 C1802 1.524 . S
C1806 H1818 0.956 . S
C1806 H1819 0.961 . S
C1806 H1820 0.961 . S
C1807 C1804 1.539 . S
C1807 H1821 0.958 . S
C1807 H1822 0.961 . S
C1807 H1823 0.960 . S
H1808 C1792 0.931 . S
H1809 C1797 0.929 . S
H1810 C1798 0.960 . S
H1811 C1798 0.962 . S
H1812 C1798 0.960 . S
H1813 C1799 0.961 . S
H1814 C1799 0.961 . S
H1815 C1799 0.961 . S
H1816 C1800 0.931 . S
H1817 C1805 0.930 . S
H1818 C1806 0.956 . S
H1819 C1806 0.961 . S
H1820 C1806 0.961 . S
H1821 C1807 0.958 . S
H1822 C1807 0.961 . S
H1823 C1807 0.960 . S
C1824 C1825 1.391 . S
C1824 C1826 1.394 . S
C1824 H1840 0.931 . S
C1825 C1824 1.391 . S
C1825 C1829 1.376 . S
C1826 C1824 1.394 . S
C1826 C1827 1.369 . S
C1826 C1830 1.531 . S
C1827 C1826 1.369 . S
C1827 C1828 1.410 . S
C1827 C1835 1.503 . S
C1828 C1827 1.410 . S
C1828 C1829 1.392 . S
C1828 C1831 1.511 . S
C1829 C1825 1.376 . S
C1829 C1828 1.392 . S
C1829 H1841 0.929 . S
C1830 C1826 1.531 . S
C1830 H1842 0.960 . S
C1830 H1843 0.962 . S
C1830 H1844 0.960 . S
C1831 C1828 1.511 . S
C1831 H1845 0.961 . S
C1831 H1846 0.961 . S
C1831 H1847 0.961 . S
C1832 C1833 1.370 . S
C1832 C1834 1.363 . S
C1832 H1848 0.931 . S
C1833 C1832 1.370 . S
C1833 C1837 1.408 . S
C1834 C1832 1.363 . S
C1834 C1835 1.370 . S
C1834 C1838 1.524 . S
C1835 C1827 1.503 . S
C1835 C1834 1.370 . S
C1835 C1836 1.403 . S
C1836 C1835 1.403 . S
C1836 C1837 1.404 . S
C1836 C1839 1.539 . S
C1837 C1833 1.408 . S
C1837 C1836 1.404 . S
C1837 H1849 0.930 . S
C1838 C1834 1.524 . S
C1838 H1850 0.956 . S
C1838 H1851 0.961 . S
C1838 H1852 0.961 . S
C1839 C1836 1.539 . S
C1839 H1853 0.958 . S
C1839 H1854 0.961 . S
C1839 H1855 0.960 . S
H1840 C1824 0.931 . S
H1841 C1829 0.929 . S
H1842 C1830 0.960 . S
H1843 C1830 0.962 . S
H1844 C1830 0.960 . S
H1845 C1831 0.961 . S
H1846 C1831 0.961 . S
H1847 C1831 0.961 . S
H1848 C1832 0.931 . S
H1849 C1837 0.930 . S
H1850 C1838 0.956 . S
H1851 C1838 0.961 . S
H1852 C1838 0.961 . S
H1853 C1839 0.958 . S
H1854 C1839 0.961 . S
H1855 C1839 0.960 . S
C1856 C1857 1.391 . S
C1856 C1858 1.394 . S
C1856 H1872 0.931 . S
C1857 C1856 1.391 . S
C1857 C1861 1.376 . S
C1858 C1856 1.394 . S
C1858 C1859 1.369 . S
C1858 C1862 1.531 . S
C1859 C1858 1.369 . S
C1859 C1860 1.410 . S
C1859 C1867 1.503 . S
C1860 C1859 1.410 . S
C1860 C1861 1.392 . S
C1860 C1863 1.511 . S
C1861 C1857 1.376 . S
C1861 C1860 1.392 . S
C1861 H1873 0.929 . S
C1862 C1858 1.531 . S
C1862 H1874 0.960 . S
C1862 H1875 0.962 . S
C1862 H1876 0.960 . S
C1863 C1860 1.511 . S
C1863 H1877 0.961 . S
C1863 H1878 0.961 . S
C1863 H1879 0.961 . S
C1864 C1865 1.370 . S
C1864 C1866 1.363 . S
C1864 H1880 0.931 . S
C1865 C1864 1.370 . S
C1865 C1869 1.408 . S
C1866 C1864 1.363 . S
C1866 C1867 1.370 . S
C1866 C1870 1.524 . S
C1867 C1859 1.503 . S
C1867 C1866 1.370 . S
C1867 C1868 1.403 . S
C1868 C1867 1.403 . S
C1868 C1869 1.404 . S
C1868 C1871 1.539 . S
C1869 C1865 1.408 . S
C1869 C1868 1.404 . S
C1869 H1881 0.930 . S
C1870 C1866 1.524 . S
C1870 H1882 0.956 . S
C1870 H1883 0.961 . S
C1870 H1884 0.961 . S
C1871 C1868 1.539 . S
C1871 H1885 0.958 . S
C1871 H1886 0.961 . S
C1871 H1887 0.960 . S
H1872 C1856 0.931 . S
H1873 C1861 0.929 . S
H1874 C1862 0.960 . S
H1875 C1862 0.962 . S
H1876 C1862 0.960 . S
H1877 C1863 0.961 . S
H1878 C1863 0.961 . S
H1879 C1863 0.961 . S
H1880 C1864 0.931 . S
H1881 C1869 0.930 . S
H1882 C1870 0.956 . S
H1883 C1870 0.961 . S
H1884 C1870 0.961 . S
H1885 C1871 0.958 . S
H1886 C1871 0.961 . S
H1887 C1871 0.960 . S
C1888 C1889 1.391 . S
C1888 C1890 1.394 . S
C1888 H1904 0.931 . S
C1889 C1888 1.391 . S
C1889 C1893 1.376 . S
C1890 C1888 1.394 . S
C1890 C1891 1.369 . S
C1890 C1894 1.531 . S
C1891 C1890 1.369 . S
C1891 C1892 1.410 . S
C1891 C1899 1.503 . S
C1892 C1891 1.410 . S
C1892 C1893 1.392 . S
C1892 C1895 1.511 . S
C1893 C1889 1.376 . S
C1893 C1892 1.392 . S
C1893 H1905 0.929 . S
C1894 C1890 1.531 . S
C1894 H1906 0.960 . S
C1894 H1907 0.962 . S
C1894 H1908 0.960 . S
C1895 C1892 1.511 . S
C1895 H1909 0.961 . S
C1895 H1910 0.961 . S
C1895 H1911 0.961 . S
C1896 C1897 1.370 . S
C1896 C1898 1.363 . S
C1896 H1912 0.931 . S
C1897 C1896 1.370 . S
C1897 C1901 1.408 . S
C1898 C1896 1.363 . S
C1898 C1899 1.370 . S
C1898 C1902 1.524 . S
C1899 C1891 1.503 . S
C1899 C1898 1.370 . S
C1899 C1900 1.403 . S
C1900 C1899 1.403 . S
C1900 C1901 1.404 . S
C1900 C1903 1.539 . S
C1901 C1897 1.408 . S
C1901 C1900 1.404 . S
C1901 H1913 0.930 . S
C1902 C1898 1.524 . S
C1902 H1914 0.956 . S
C1902 H1915 0.961 . S
C1902 H1916 0.961 . S
C1903 C1900 1.539 . S
C1903 H1917 0.958 . S
C1903 H1918 0.961 . S
C1903 H1919 0.960 . S
H1904 C1888 0.931 . S
H1905 C1893 0.929 . S
H1906 C1894 0.960 . S
H1907 C1894 0.962 . S
H1908 C1894 0.960 . S
H1909 C1895 0.961 . S
H1910 C1895 0.961 . S
H1911 C1895 0.961 . S
H1912 C1896 0.931 . S
H1913 C1901 0.930 . S
H1914 C1902 0.956 . S
H1915 C1902 0.961 . S
H1916 C1902 0.961 . S
H1917 C1903 0.958 . S
H1918 C1903 0.961 . S
H1919 C1903 0.960 . S
C1920 C1921 1.391 . S
C1920 C1922 1.394 . S
C1920 H1936 0.931 . S
C1921 C1920 1.391 . S
C1921 C1925 1.376 . S
C1922 C1920 1.394 . S
C1922 C1923 1.369 . S
C1922 C1926 1.531 . S
C1923 C1922 1.369 . S
C1923 C1924 1.410 . S
C1923 C1931 1.503 . S
C1924 C1923 1.410 . S
C1924 C1925 1.392 . S
C1924 C1927 1.511 . S
C1925 C1921 1.376 . S
C1925 C1924 1.392 . S
C1925 H1937 0.929 . S
C1926 C1922 1.531 . S
C1926 H1938 0.960 . S
C1926 H1939 0.962 . S
C1926 H1940 0.960 . S
C1927 C1924 1.511 . S
C1927 H1941 0.961 . S
C1927 H1942 0.961 . S
C1927 H1943 0.961 . S
C1928 C1929 1.370 . S
C1928 C1930 1.363 . S
C1928 H1944 0.931 . S
C1929 C1928 1.370 . S
C1929 C1933 1.408 . S
C1930 C1928 1.363 . S
C1930 C1931 1.370 . S
C1930 C1934 1.524 . S
C1931 C1923 1.503 . S
C1931 C1930 1.370 . S
C1931 C1932 1.403 . S
C1932 C1931 1.403 . S
C1932 C1933 1.404 . S
C1932 C1935 1.539 . S
C1933 C1929 1.408 . S
C1933 C1932 1.404 . S
C1933 H1945 0.930 . S
C1934 C1930 1.524 . S
C1934 H1946 0.956 . S
C1934 H1947 0.961 . S
C1934 H1948 0.961 . S
C1935 C1932 1.539 . S
C1935 H1949 0.958 . S
C1935 H1950 0.961 . S
C1935 H1951 0.960 . S
H1936 C1920 0.931 . S
H1937 C1925 0.929 . S
H1938 C1926 0.960 . S
H1939 C1926 0.962 . S
H1940 C1926 0.960 . S
H1941 C1927 0.961 . S
H1942 C1927 0.961 . S
H1943 C1927 0.961 . S
H1944 C1928 0.931 . S
H1945 C1933 0.930 . S
H1946 C1934 0.956 . S
H1947 C1934 0.961 . S
H1948 C1934 0.961 . S
H1949 C1935 0.958 . S
H1950 C1935 0.961 . S
H1951 C1935 0.960 . S
C1952 C1953 1.391 . S
C1952 C1954 1.394 . S
C1952 H1968 0.931 . S
C1953 C1952 1.391 . S
C1953 C1957 1.376 . S
C1954 C1952 1.394 . S
C1954 C1955 1.369 . S
C1954 C1958 1.531 . S
C1955 C1954 1.369 . S
C1955 C1956 1.410 . S
C1955 C1963 1.503 . S
C1956 C1955 1.410 . S
C1956 C1957 1.392 . S
C1956 C1959 1.511 . S
C1957 C1953 1.376 . S
C1957 C1956 1.392 . S
C1957 H1969 0.929 . S
C1958 C1954 1.531 . S
C1958 H1970 0.960 . S
C1958 H1971 0.962 . S
C1958 H1972 0.960 . S
C1959 C1956 1.511 . S
C1959 H1973 0.961 . S
C1959 H1974 0.961 . S
C1959 H1975 0.961 . S
C1960 C1961 1.370 . S
C1960 C1962 1.363 . S
C1960 H1976 0.931 . S
C1961 C1960 1.370 . S
C1961 C1965 1.408 . S
C1962 C1960 1.363 . S
C1962 C1963 1.370 . S
C1962 C1966 1.524 . S
C1963 C1955 1.503 . S
C1963 C1962 1.370 . S
C1963 C1964 1.403 . S
C1964 C1963 1.403 . S
C1964 C1965 1.404 . S
C1964 C1967 1.539 . S
C1965 C1961 1.408 . S
C1965 C1964 1.404 . S
C1965 H1977 0.930 . S
C1966 C1962 1.524 . S
C1966 H1978 0.956 . S
C1966 H1979 0.961 . S
C1966 H1980 0.961 . S
C1967 C1964 1.539 . S
C1967 H1981 0.958 . S
C1967 H1982 0.961 . S
C1967 H1983 0.960 . S
H1968 C1952 0.931 . S
H1969 C1957 0.929 . S
H1970 C1958 0.960 . S
H1971 C1958 0.962 . S
H1972 C1958 0.960 . S
H1973 C1959 0.961 . S
H1974 C1959 0.961 . S
H1975 C1959 0.961 . S
H1976 C1960 0.931 . S
H1977 C1965 0.930 . S
H1978 C1966 0.956 . S
H1979 C1966 0.961 . S
H1980 C1966 0.961 . S
H1981 C1967 0.958 . S
H1982 C1967 0.961 . S
H1983 C1967 0.960 . S
C1984 C1985 1.391 . S
C1984 C1986 1.394 . S
C1984 H2000 0.931 . S
C1985 C1984 1.391 . S
C1985 C1989 1.376 . S
C1986 C1984 1.394 . S
C1986 C1987 1.369 . S
C1986 C1990 1.531 . S
C1987 C1986 1.369 . S
C1987 C1988 1.410 . S
C1987 C1995 1.503 . S
C1988 C1987 1.410 . S
C1988 C1989 1.392 . S
C1988 C1991 1.511 . S
C1989 C1985 1.376 . S
C1989 C1988 1.392 . S
C1989 H2001 0.929 . S
C1990 C1986 1.531 . S
C1990 H2002 0.960 . S
C1990 H2003 0.962 . S
C1990 H2004 0.960 . S
C1991 C1988 1.511 . S
C1991 H2005 0.961 . S
C1991 H2006 0.961 . S
C1991 H2007 0.961 . S
C1992 C1993 1.370 . S
C1992 C1994 1.363 . S
C1992 H2008 0.931 . S
C1993 C1992 1.370 . S
C1993 C1997 1.408 . S
C1994 C1992 1.363 . S
C1994 C1995 1.370 . S
C1994 C1998 1.524 . S
C1995 C1987 1.503 . S
C1995 C1994 1.370 . S
C1995 C1996 1.403 . S
C1996 C1995 1.403 . S
C1996 C1997 1.404 . S
C1996 C1999 1.539 . S
C1997 C1993 1.408 . S
C1997 C1996 1.404 . S
C1997 H2009 0.930 . S
C1998 C1994 1.524 . S
C1998 H2010 0.956 . S
C1998 H2011 0.961 . S
C1998 H2012 0.961 . S
C1999 C1996 1.539 . S
C1999 H2013 0.958 . S
C1999 H2014 0.961 . S
C1999 H2015 0.960 . S
H2000 C1984 0.931 . S
H2001 C1989 0.929 . S
H2002 C1990 0.960 . S
H2003 C1990 0.962 . S
H2004 C1990 0.960 . S
H2005 C1991 0.961 . S
H2006 C1991 0.961 . S
H2007 C1991 0.961 . S
H2008 C1992 0.931 . S
H2009 C1997 0.930 . S
H2010 C1998 0.956 . S
H2011 C1998 0.961 . S
H2012 C1998 0.961 . S
H2013 C1999 0.958 . S
H2014 C1999 0.961 . S
H2015 C1999 0.960 . S
C2016 C2017 1.391 . S
C2016 C2018 1.394 . S
C2016 H2032 0.931 . S
C2017 C2016 1.391 . S
C2017 C2021 1.376 . S
C2018 C2016 1.394 . S
C2018 C2019 1.369 . S
C2018 C2022 1.531 . S
C2019 C2018 1.369 . S
C2019 C2020 1.410 . S
C2019 C2027 1.503 . S
C2020 C2019 1.410 . S
C2020 C2021 1.392 . S
C2020 C2023 1.511 . S
C2021 C2017 1.376 . S
C2021 C2020 1.392 . S
C2021 H2033 0.929 . S
C2022 C2018 1.531 . S
C2022 H2034 0.960 . S
C2022 H2035 0.962 . S
C2022 H2036 0.960 . S
C2023 C2020 1.511 . S
C2023 H2037 0.961 . S
C2023 H2038 0.961 . S
C2023 H2039 0.961 . S
C2024 C2025 1.370 . S
C2024 C2026 1.363 . S
C2024 H2040 0.931 . S
C2025 C2024 1.370 . S
C2025 C2029 1.408 . S
C2026 C2024 1.363 . S
C2026 C2027 1.370 . S
C2026 C2030 1.524 . S
C2027 C2019 1.503 . S
C2027 C2026 1.370 . S
C2027 C2028 1.403 . S
C2028 C2027 1.403 . S
C2028 C2029 1.404 . S
C2028 C2031 1.539 . S
C2029 C2025 1.408 . S
C2029 C2028 1.404 . S
C2029 H2041 0.930 . S
C2030 C2026 1.524 . S
C2030 H2042 0.956 . S
C2030 H2043 0.961 . S
C2030 H2044 0.961 . S
C2031 C2028 1.539 . S
C2031 H2045 0.958 . S
C2031 H2046 0.961 . S
C2031 H2047 0.960 . S
H2032 C2016 0.931 . S
H2033 C2021 0.929 . S
H2034 C2022 0.960 . S
H2035 C2022 0.962 . S
H2036 C2022 0.960 . S
H2037 C2023 0.961 . S
H2038 C2023 0.961 . S
H2039 C2023 0.961 . S
H2040 C2024 0.931 . S
H2041 C2029 0.930 . S
H2042 C2030 0.956 . S
H2043 C2030 0.961 . S
H2044 C2030 0.961 . S
H2045 C2031 0.958 . S
H2046 C2031 0.961 . S
H2047 C2031 0.960 . S
C2048 C2049 1.391 . S
C2048 C2050 1.394 . S
C2048 H2064 0.931 . S
C2049 C2048 1.391 . S
C2049 C2053 1.376 . S
C2050 C2048 1.394 . S
C2050 C2051 1.369 . S
C2050 C2054 1.531 . S
C2051 C2050 1.369 . S
C2051 C2052 1.410 . S
C2051 C2059 1.503 . S
C2052 C2051 1.410 . S
C2052 C2053 1.392 . S
C2052 C2055 1.511 . S
C2053 C2049 1.376 . S
C2053 C2052 1.392 . S
C2053 H2065 0.929 . S
C2054 C2050 1.531 . S
C2054 H2066 0.960 . S
C2054 H2067 0.962 . S
C2054 H2068 0.960 . S
C2055 C2052 1.511 . S
C2055 H2069 0.961 . S
C2055 H2070 0.961 . S
C2055 H2071 0.961 . S
C2056 C2057 1.370 . S
C2056 C2058 1.363 . S
C2056 H2072 0.931 . S
C2057 C2056 1.370 . S
C2057 C2061 1.408 . S
C2058 C2056 1.363 . S
C2058 C2059 1.370 . S
C2058 C2062 1.524 . S
C2059 C2051 1.503 . S
C2059 C2058 1.370 . S
C2059 C2060 1.403 . S
C2060 C2059 1.403 . S
C2060 C2061 1.404 . S
C2060 C2063 1.539 . S
C2061 C2057 1.408 . S
C2061 C2060 1.404 . S
C2061 H2073 0.930 . S
C2062 C2058 1.524 . S
C2062 H2074 0.956 . S
C2062 H2075 0.961 . S
C2062 H2076 0.961 . S
C2063 C2060 1.539 . S
C2063 H2077 0.958 . S
C2063 H2078 0.961 . S
C2063 H2079 0.960 . S
H2064 C2048 0.931 . S
H2065 C2053 0.929 . S
H2066 C2054 0.960 . S
H2067 C2054 0.962 . S
H2068 C2054 0.960 . S
H2069 C2055 0.961 . S
H2070 C2055 0.961 . S
H2071 C2055 0.961 . S
H2072 C2056 0.931 . S
H2073 C2061 0.930 . S
H2074 C2062 0.956 . S
H2075 C2062 0.961 . S
H2076 C2062 0.961 . S
H2077 C2063 0.958 . S
H2078 C2063 0.961 . S
H2079 C2063 0.960 . S
C2080 C2081 1.391 . S
C2080 C2082 1.394 . S
C2080 H2096 0.931 . S
C2081 C2080 1.391 . S
C2081 C2085 1.376 . S
C2082 C2080 1.394 . S
C2082 C2083 1.369 . S
C2082 C2086 1.531 . S
C2083 C2082 1.369 . S
C2083 C2084 1.410 . S
C2083 C2091 1.503 . S
C2084 C2083 1.410 . S
C2084 C2085 1.392 . S
C2084 C2087 1.511 . S
C2085 C2081 1.376 . S
C2085 C2084 1.392 . S
C2085 H2097 0.929 . S
C2086 C2082 1.531 . S
C2086 H2098 0.960 . S
C2086 H2099 0.962 . S
C2086 H2100 0.960 . S
C2087 C2084 1.511 . S
C2087 H2101 0.961 . S
C2087 H2102 0.961 . S
C2087 H2103 0.961 . S
C2088 C2089 1.370 . S
C2088 C2090 1.363 . S
C2088 H2104 0.931 . S
C2089 C2088 1.370 . S
C2089 C2093 1.408 . S
C2090 C2088 1.363 . S
C2090 C2091 1.370 . S
C2090 C2094 1.524 . S
C2091 C2083 1.503 . S
C2091 C2090 1.370 . S
C2091 C2092 1.403 . S
C2092 C2091 1.403 . S
C2092 C2093 1.404 . S
C2092 C2095 1.539 . S
C2093 C2089 1.408 . S
C2093 C2092 1.404 . S
C2093 H2105 0.930 . S
C2094 C2090 1.524 . S
C2094 H2106 0.956 . S
C2094 H2107 0.961 . S
C2094 H2108 0.961 . S
C2095 C2092 1.539 . S
C2095 H2109 0.958 . S
C2095 H2110 0.961 . S
C2095 H2111 0.960 . S
H2096 C2080 0.931 . S
H2097 C2085 0.929 . S
H2098 C2086 0.960 . S
H2099 C2086 0.962 . S
H2100 C2086 0.960 . S
H2101 C2087 0.961 . S
H2102 C2087 0.961 . S
H2103 C2087 0.961 . S
H2104 C2088 0.931 . S
H2105 C2093 0.930 . S
H2106 C2094 0.956 . S
H2107 C2094 0.961 . S
H2108 C2094 0.961 . S
H2109 C2095 0.958 . S
H2110 C2095 0.961 . S
H2111 C2095 0.960 . S
C2112 C2113 1.391 . S
C2112 C2114 1.394 . S
C2112 H2128 0.931 . S
C2113 C2112 1.391 . S
C2113 C2117 1.376 . S
C2114 C2112 1.394 . S
C2114 C2115 1.369 . S
C2114 C2118 1.531 . S
C2115 C2114 1.369 . S
C2115 C2116 1.410 . S
C2115 C2123 1.503 . S
C2116 C2115 1.410 . S
C2116 C2117 1.392 . S
C2116 C2119 1.511 . S
C2117 C2113 1.376 . S
C2117 C2116 1.392 . S
C2117 H2129 0.929 . S
C2118 C2114 1.531 . S
C2118 H2130 0.960 . S
C2118 H2131 0.962 . S
C2118 H2132 0.960 . S
C2119 C2116 1.511 . S
C2119 H2133 0.961 . S
C2119 H2134 0.961 . S
C2119 H2135 0.961 . S
C2120 C2121 1.370 . S
C2120 C2122 1.363 . S
C2120 H2136 0.931 . S
C2121 C2120 1.370 . S
C2121 C2125 1.408 . S
C2122 C2120 1.363 . S
C2122 C2123 1.370 . S
C2122 C2126 1.524 . S
C2123 C2115 1.503 . S
C2123 C2122 1.370 . S
C2123 C2124 1.403 . S
C2124 C2123 1.403 . S
C2124 C2125 1.404 . S
C2124 C2127 1.539 . S
C2125 C2121 1.408 . S
C2125 C2124 1.404 . S
C2125 H2137 0.930 . S
C2126 C2122 1.524 . S
C2126 H2138 0.956 . S
C2126 H2139 0.961 . S
C2126 H2140 0.961 . S
C2127 C2124 1.539 . S
C2127 H2141 0.958 . S
C2127 H2142 0.961 . S
C2127 H2143 0.960 . S
H2128 C2112 0.931 . S
H2129 C2117 0.929 . S
H2130 C2118 0.960 . S
H2131 C2118 0.962 . S
H2132 C2118 0.960 . S
H2133 C2119 0.961 . S
H2134 C2119 0.961 . S
H2135 C2119 0.961 . S
H2136 C2120 0.931 . S
H2137 C2125 0.930 . S
H2138 C2126 0.956 . S
H2139 C2126 0.961 . S
H2140 C2126 0.961 . S
H2141 C2127 0.958 . S
H2142 C2127 0.961 . S
H2143 C2127 0.960 . S
C2144 C2145 1.391 . S
C2144 C2146 1.394 . S
C2144 H2160 0.931 . S
C2145 C2144 1.391 . S
C2145 C2149 1.376 . S
C2146 C2144 1.394 . S
C2146 C2147 1.369 . S
C2146 C2150 1.531 . S
C2147 C2146 1.369 . S
C2147 C2148 1.410 . S
C2147 C2155 1.503 . S
C2148 C2147 1.410 . S
C2148 C2149 1.392 . S
C2148 C2151 1.511 . S
C2149 C2145 1.376 . S
C2149 C2148 1.392 . S
C2149 H2161 0.929 . S
C2150 C2146 1.531 . S
C2150 H2162 0.960 . S
C2150 H2163 0.962 . S
C2150 H2164 0.960 . S
C2151 C2148 1.511 . S
C2151 H2165 0.961 . S
C2151 H2166 0.961 . S
C2151 H2167 0.961 . S
C2152 C2153 1.370 . S
C2152 C2154 1.363 . S
C2152 H2168 0.931 . S
C2153 C2152 1.370 . S
C2153 C2157 1.408 . S
C2154 C2152 1.363 . S
C2154 C2155 1.370 . S
C2154 C2158 1.524 . S
C2155 C2147 1.503 . S
C2155 C2154 1.370 . S
C2155 C2156 1.403 . S
C2156 C2155 1.403 . S
C2156 C2157 1.404 . S
C2156 C2159 1.539 . S
C2157 C2153 1.408 . S
C2157 C2156 1.404 . S
C2157 H2169 0.930 . S
C2158 C2154 1.524 . S
C2158 H2170 0.956 . S
C2158 H2171 0.961 . S
C2158 H2172 0.961 . S
C2159 C2156 1.539 . S
C2159 H2173 0.958 . S
C2159 H2174 0.961 . S
C2159 H2175 0.960 . S
H2160 C2144 0.931 . S
H2161 C2149 0.929 . S
H2162 C2150 0.960 . S
H2163 C2150 0.962 . S
H2164 C2150 0.960 . S
H2165 C2151 0.961 . S
H2166 C2151 0.961 . S
H2167 C2151 0.961 . S
H2168 C2152 0.931 . S
H2169 C2157 0.930 . S
H2170 C2158 0.956 . S
H2171 C2158 0.961 . S
H2172 C2158 0.961 . S
H2173 C2159 0.958 . S
H2174 C2159 0.961 . S
H2175 C2159 0.960 . S
C2176 C2177 1.391 . S
C2176 C2178 1.394 . S
C2176 H2192 0.931 . S
C2177 C2176 1.391 . S
C2177 C2181 1.376 . S
C2178 C2176 1.394 . S
C2178 C2179 1.369 . S
C2178 C2182 1.531 . S
C2179 C2178 1.369 . S
C2179 C2180 1.410 . S
C2179 C2187 1.503 . S
C2180 C2179 1.410 . S
C2180 C2181 1.392 . S
C2180 C2183 1.511 . S
C2181 C2177 1.376 . S
C2181 C2180 1.392 . S
C2181 H2193 0.929 . S
C2182 C2178 1.531 . S
C2182 H2194 0.960 . S
C2182 H2195 0.962 . S
C2182 H2196 0.960 . S
C2183 C2180 1.511 . S
C2183 H2197 0.961 . S
C2183 H2198 0.961 . S
C2183 H2199 0.961 . S
C2184 C2185 1.370 . S
C2184 C2186 1.363 . S
C2184 H2200 0.931 . S
C2185 C2184 1.370 . S
C2185 C2189 1.408 . S
C2186 C2184 1.363 . S
C2186 C2187 1.370 . S
C2186 C2190 1.524 . S
C2187 C2179 1.503 . S
C2187 C2186 1.370 . S
C2187 C2188 1.403 . S
C2188 C2187 1.403 . S
C2188 C2189 1.404 . S
C2188 C2191 1.539 . S
C2189 C2185 1.408 . S
C2189 C2188 1.404 . S
C2189 H2201 0.930 . S
C2190 C2186 1.524 . S
C2190 H2202 0.956 . S
C2190 H2203 0.961 . S
C2190 H2204 0.961 . S
C2191 C2188 1.539 . S
C2191 H2205 0.958 . S
C2191 H2206 0.961 . S
C2191 H2207 0.960 . S
H2192 C2176 0.931 . S
H2193 C2181 0.929 . S
H2194 C2182 0.960 . S
H2195 C2182 0.962 . S
H2196 C2182 0.960 . S
H2197 C2183 0.961 . S
H2198 C2183 0.961 . S
H2199 C2183 0.961 . S
H2200 C2184 0.931 . S
H2201 C2189 0.930 . S
H2202 C2190 0.956 . S
H2203 C2190 0.961 . S
H2204 C2190 0.961 . S
H2205 C2191 0.958 . S
H2206 C2191 0.961 . S
H2207 C2191 0.960 . S
C2208 C2209 1.391 . S
C2208 C2210 1.394 . S
C2208 H2224 0.931 . S
C2209 C2208 1.391 . S
C2209 C2213 1.376 . S
C2210 C2208 1.394 . S
C2210 C2211 1.369 . S
C2210 C2214 1.531 . S
C2211 C2210 1.369 . S
C2211 C2212 1.410 . S
C2211 C2219 1.503 . S
C2212 C2211 1.410 . S
C2212 C2213 1.392 . S
C2212 C2215 1.511 . S
C2213 C2209 1.376 . S
C2213 C2212 1.392 . S
C2213 H2225 0.929 . S
C2214 C2210 1.531 . S
C2214 H2226 0.960 . S
C2214 H2227 0.962 . S
C2214 H2228 0.960 . S
C2215 C2212 1.511 . S
C2215 H2229 0.961 . S
C2215 H2230 0.961 . S
C2215 H2231 0.961 . S
C2216 C2217 1.370 . S
C2216 C2218 1.363 . S
C2216 H2232 0.931 . S
C2217 C2216 1.370 . S
C2217 C2221 1.408 . S
C2218 C2216 1.363 . S
C2218 C2219 1.370 . S
C2218 C2222 1.524 . S
C2219 C2211 1.503 . S
C2219 C2218 1.370 . S
C2219 C2220 1.403 . S
C2220 C2219 1.403 . S
C2220 C2221 1.404 . S
C2220 C2223 1.539 . S
C2221 C2217 1.408 . S
C2221 C2220 1.404 . S
C2221 H2233 0.930 . S
C2222 C2218 1.524 . S
C2222 H2234 0.956 . S
C2222 H2235 0.961 . S
C2222 H2236 0.961 . S
C2223 C2220 1.539 . S
C2223 H2237 0.958 . S
C2223 H2238 0.961 . S
C2223 H2239 0.960 . S
H2224 C2208 0.931 . S
H2225 C2213 0.929 . S
H2226 C2214 0.960 . S
H2227 C2214 0.962 . S
H2228 C2214 0.960 . S
H2229 C2215 0.961 . S
H2230 C2215 0.961 . S
H2231 C2215 0.961 . S
H2232 C2216 0.931 . S
H2233 C2221 0.930 . S
H2234 C2222 0.956 . S
H2235 C2222 0.961 . S
H2236 C2222 0.961 . S
H2237 C2223 0.958 . S
H2238 C2223 0.961 . S
H2239 C2223 0.960 . S
C2240 C2241 1.391 . S
C2240 C2242 1.394 . S
C2240 H2256 0.931 . S
C2241 C2240 1.391 . S
C2241 C2245 1.376 . S
C2242 C2240 1.394 . S
C2242 C2243 1.369 . S
C2242 C2246 1.531 . S
C2243 C2242 1.369 . S
C2243 C2244 1.410 . S
C2243 C2251 1.503 . S
C2244 C2243 1.410 . S
C2244 C2245 1.392 . S
C2244 C2247 1.511 . S
C2245 C2241 1.376 . S
C2245 C2244 1.392 . S
C2245 H2257 0.929 . S
C2246 C2242 1.531 . S
C2246 H2258 0.960 . S
C2246 H2259 0.962 . S
C2246 H2260 0.960 . S
C2247 C2244 1.511 . S
C2247 H2261 0.961 . S
C2247 H2262 0.961 . S
C2247 H2263 0.961 . S
C2248 C2249 1.370 . S
C2248 C2250 1.363 . S
C2248 H2264 0.931 . S
C2249 C2248 1.370 . S
C2249 C2253 1.408 . S
C2250 C2248 1.363 . S
C2250 C2251 1.370 . S
C2250 C2254 1.524 . S
C2251 C2243 1.503 . S
C2251 C2250 1.370 . S
C2251 C2252 1.403 . S
C2252 C2251 1.403 . S
C2252 C2253 1.404 . S
C2252 C2255 1.539 . S
C2253 C2249 1.408 . S
C2253 C2252 1.404 . S
C2253 H2265 0.930 . S
C2254 C2250 1.524 . S
C2254 H2266 0.956 . S
C2254 H2267 0.961 . S
C2254 H2268 0.961 . S
C2255 C2252 1.539 . S
C2255 H2269 0.958 . S
C2255 H2270 0.961 . S
C2255 H2271 0.960 . S
H2256 C2240 0.931 . S
H2257 C2245 0.929 . S
H2258 C2246 0.960 . S
H2259 C2246 0.962 . S
H2260 C2246 0.960 . S
H2261 C2247 0.961 . S
H2262 C2247 0.961 . S
H2263 C2247 0.961 . S
H2264 C2248 0.931 . S
H2265 C2253 0.930 . S
H2266 C2254 0.956 . S
H2267 C2254 0.961 . S
H2268 C2254 0.961 . S
H2269 C2255 0.958 . S
H2270 C2255 0.961 . S
H2271 C2255 0.960 . S
C2272 C2273 1.391 . S
C2272 C2274 1.394 . S
C2272 H2288 0.931 . S
C2273 C2272 1.391 . S
C2273 C2277 1.376 . S
C2274 C2272 1.394 . S
C2274 C2275 1.369 . S
C2274 C2278 1.531 . S
C2275 C2274 1.369 . S
C2275 C2276 1.410 . S
C2275 C2283 1.503 . S
C2276 C2275 1.410 . S
C2276 C2277 1.392 . S
C2276 C2279 1.511 . S
C2277 C2273 1.376 . S
C2277 C2276 1.392 . S
C2277 H2289 0.929 . S
C2278 C2274 1.531 . S
C2278 H2290 0.960 . S
C2278 H2291 0.962 . S
C2278 H2292 0.960 . S
C2279 C2276 1.511 . S
C2279 H2293 0.961 . S
C2279 H2294 0.961 . S
C2279 H2295 0.961 . S
C2280 C2281 1.370 . S
C2280 C2282 1.363 . S
C2280 H2296 0.931 . S
C2281 C2280 1.370 . S
C2281 C2285 1.408 . S
C2282 C2280 1.363 . S
C2282 C2283 1.370 . S
C2282 C2286 1.524 . S
C2283 C2275 1.503 . S
C2283 C2282 1.370 . S
C2283 C2284 1.403 . S
C2284 C2283 1.403 . S
C2284 C2285 1.404 . S
C2284 C2287 1.539 . S
C2285 C2281 1.408 . S
C2285 C2284 1.404 . S
C2285 H2297 0.930 . S
C2286 C2282 1.524 . S
C2286 H2298 0.956 . S
C2286 H2299 0.961 . S
C2286 H2300 0.961 . S
C2287 C2284 1.539 . S
C2287 H2301 0.958 . S
C2287 H2302 0.961 . S
C2287 H2303 0.960 . S
H2288 C2272 0.931 . S
H2289 C2277 0.929 . S
H2290 C2278 0.960 . S
H2291 C2278 0.962 . S
H2292 C2278 0.960 . S
H2293 C2279 0.961 . S
H2294 C2279 0.961 . S
H2295 C2279 0.961 . S
H2296 C2280 0.931 . S
H2297 C2285 0.930 . S
H2298 C2286 0.956 . S
H2299 C2286 0.961 . S
H2300 C2286 0.961 . S
H2301 C2287 0.958 . S
H2302 C2287 0.961 . S
H2303 C2287 0.960 . S
C2304 C2305 1.391 . S
C2304 C2306 1.394 . S
C2304 H2320 0.931 . S
C2305 C2304 1.391 . S
C2305 C2309 1.376 . S
C2306 C2304 1.394 . S
C2306 C2307 1.369 . S
C2306 C2310 1.531 . S
C2307 C2306 1.369 . S
C2307 C2308 1.410 . S
C2307 C2315 1.503 . S
C2308 C2307 1.410 . S
C2308 C2309 1.392 . S
C2308 C2311 1.511 . S
C2309 C2305 1.376 . S
C2309 C2308 1.392 . S
C2309 H2321 0.929 . S
C2310 C2306 1.531 . S
C2310 H2322 0.960 . S
C2310 H2323 0.962 . S
C2310 H2324 0.960 . S
C2311 C2308 1.511 . S
C2311 H2325 0.961 . S
C2311 H2326 0.961 . S
C2311 H2327 0.961 . S
C2312 C2313 1.370 . S
C2312 C2314 1.363 . S
C2312 H2328 0.931 . S
C2313 C2312 1.370 . S
C2313 C2317 1.408 . S
C2314 C2312 1.363 . S
C2314 C2315 1.370 . S
C2314 C2318 1.524 . S
C2315 C2307 1.503 . S
C2315 C2314 1.370 . S
C2315 C2316 1.403 . S
C2316 C2315 1.403 . S
C2316 C2317 1.404 . S
C2316 C2319 1.539 . S
C2317 C2313 1.408 . S
C2317 C2316 1.404 . S
C2317 H2329 0.930 . S
C2318 C2314 1.524 . S
C2318 H2330 0.956 . S
C2318 H2331 0.961 . S
C2318 H2332 0.961 . S
C2319 C2316 1.539 . S
C2319 H2333 0.958 . S
C2319 H2334 0.961 . S
C2319 H2335 0.960 . S
H2320 C2304 0.931 . S
H2321 C2309 0.929 . S
H2322 C2310 0.960 . S
H2323 C2310 0.962 . S
H2324 C2310 0.960 . S
H2325 C2311 0.961 . S
H2326 C2311 0.961 . S
H2327 C2311 0.961 . S
H2328 C2312 0.931 . S
H2329 C2317 0.930 . S
H2330 C2318 0.956 . S
H2331 C2318 0.961 . S
H2332 C2318 0.961 . S
H2333 C2319 0.958 . S
H2334 C2319 0.961 . S
H2335 C2319 0.960 . S
C2336 C2337 1.391 . S
C2336 C2338 1.394 . S
C2336 H2352 0.931 . S
C2337 C2336 1.391 . S
C2337 C2341 1.376 . S
C2338 C2336 1.394 . S
C2338 C2339 1.369 . S
C2338 C2342 1.531 . S
C2339 C2338 1.369 . S
C2339 C2340 1.410 . S
C2339 C2347 1.503 . S
C2340 C2339 1.410 . S
C2340 C2341 1.392 . S
C2340 C2343 1.511 . S
C2341 C2337 1.376 . S
C2341 C2340 1.392 . S
C2341 H2353 0.929 . S
C2342 C2338 1.531 . S
C2342 H2354 0.960 . S
C2342 H2355 0.962 . S
C2342 H2356 0.960 . S
C2343 C2340 1.511 . S
C2343 H2357 0.961 . S
C2343 H2358 0.961 . S
C2343 H2359 0.961 . S
C2344 C2345 1.370 . S
C2344 C2346 1.363 . S
C2344 H2360 0.931 . S
C2345 C2344 1.370 . S
C2345 C2349 1.408 . S
C2346 C2344 1.363 . S
C2346 C2347 1.370 . S
C2346 C2350 1.524 . S
C2347 C2339 1.503 . S
C2347 C2346 1.370 . S
C2347 C2348 1.403 . S
C2348 C2347 1.403 . S
C2348 C2349 1.404 . S
C2348 C2351 1.539 . S
C2349 C2345 1.408 . S
C2349 C2348 1.404 . S
C2349 H2361 0.930 . S
C2350 C2346 1.524 . S
C2350 H2362 0.956 . S
C2350 H2363 0.961 . S
C2350 H2364 0.961 . S
C2351 C2348 1.539 . S
C2351 H2365 0.958 . S
C2351 H2366 0.961 . S
C2351 H2367 0.960 . S
H2352 C2336 0.931 . S
H2353 C2341 0.929 . S
H2354 C2342 0.960 . S
H2355 C2342 0.962 . S
H2356 C2342 0.960 . S
H2357 C2343 0.961 . S
H2358 C2343 0.961 . S
H2359 C2343 0.961 . S
H2360 C2344 0.931 . S
H2361 C2349 0.930 . S
H2362 C2350 0.956 . S
H2363 C2350 0.961 . S
H2364 C2350 0.961 . S
H2365 C2351 0.958 . S
H2366 C2351 0.961 . S
H2367 C2351 0.960 . S
C2368 C2369 1.391 . S
C2368 C2370 1.394 . S
C2368 H2384 0.931 . S
C2369 C2368 1.391 . S
C2369 C2373 1.376 . S
C2370 C2368 1.394 . S
C2370 C2371 1.369 . S
C2370 C2374 1.531 . S
C2371 C2370 1.369 . S
C2371 C2372 1.410 . S
C2371 C2379 1.503 . S
C2372 C2371 1.410 . S
C2372 C2373 1.392 . S
C2372 C2375 1.511 . S
C2373 C2369 1.376 . S
C2373 C2372 1.392 . S
C2373 H2385 0.929 . S
C2374 C2370 1.531 . S
C2374 H2386 0.960 . S
C2374 H2387 0.962 . S
C2374 H2388 0.960 . S
C2375 C2372 1.511 . S
C2375 H2389 0.961 . S
C2375 H2390 0.961 . S
C2375 H2391 0.961 . S
C2376 C2377 1.370 . S
C2376 C2378 1.363 . S
C2376 H2392 0.931 . S
C2377 C2376 1.370 . S
C2377 C2381 1.408 . S
C2378 C2376 1.363 . S
C2378 C2379 1.370 . S
C2378 C2382 1.524 . S
C2379 C2371 1.503 . S
C2379 C2378 1.370 . S
C2379 C2380 1.403 . S
C2380 C2379 1.403 . S
C2380 C2381 1.404 . S
C2380 C2383 1.539 . S
C2381 C2377 1.408 . S
C2381 C2380 1.404 . S
C2381 H2393 0.930 . S
C2382 C2378 1.524 . S
C2382 H2394 0.956 . S
C2382 H2395 0.961 . S
C2382 H2396 0.961 . S
C2383 C2380 1.539 . S
C2383 H2397 0.958 . S
C2383 H2398 0.961 . S
C2383 H2399 0.960 . S
H2384 C2368 0.931 . S
H2385 C2373 0.929 . S
H2386 C2374 0.960 . S
H2387 C2374 0.962 . S
H2388 C2374 0.960 . S
H2389 C2375 0.961 . S
H2390 C2375 0.961 . S
H2391 C2375 0.961 . S
H2392 C2376 0.931 . S
H2393 C2381 0.930 . S
H2394 C2382 0.956 . S
H2395 C2382 0.961 . S
H2396 C2382 0.961 . S
H2397 C2383 0.958 . S
H2398 C2383 0.961 . S
H2399 C2383 0.960 . S
C2400 C2401 1.391 . S
C2400 C2402 1.394 . S
C2400 H2416 0.931 . S
C2401 C2400 1.391 . S
C2401 C2405 1.376 . S
C2402 C2400 1.394 . S
C2402 C2403 1.369 . S
C2402 C2406 1.531 . S
C2403 C2402 1.369 . S
C2403 C2404 1.410 . S
C2403 C2411 1.503 . S
C2404 C2403 1.410 . S
C2404 C2405 1.392 . S
C2404 C2407 1.511 . S
C2405 C2401 1.376 . S
C2405 C2404 1.392 . S
C2405 H2417 0.929 . S
C2406 C2402 1.531 . S
C2406 H2418 0.960 . S
C2406 H2419 0.962 . S
C2406 H2420 0.960 . S
C2407 C2404 1.511 . S
C2407 H2421 0.961 . S
C2407 H2422 0.961 . S
C2407 H2423 0.961 . S
C2408 C2409 1.370 . S
C2408 C2410 1.363 . S
C2408 H2424 0.931 . S
C2409 C2408 1.370 . S
C2409 C2413 1.408 . S
C2410 C2408 1.363 . S
C2410 C2411 1.370 . S
C2410 C2414 1.524 . S
C2411 C2403 1.503 . S
C2411 C2410 1.370 . S
C2411 C2412 1.403 . S
C2412 C2411 1.403 . S
C2412 C2413 1.404 . S
C2412 C2415 1.539 . S
C2413 C2409 1.408 . S
C2413 C2412 1.404 . S
C2413 H2425 0.930 . S
C2414 C2410 1.524 . S
C2414 H2426 0.956 . S
C2414 H2427 0.961 . S
C2414 H2428 0.961 . S
C2415 C2412 1.539 . S
C2415 H2429 0.958 . S
C2415 H2430 0.961 . S
C2415 H2431 0.960 . S
H2416 C2400 0.931 . S
H2417 C2405 0.929 . S
H2418 C2406 0.960 . S
H2419 C2406 0.962 . S
H2420 C2406 0.960 . S
H2421 C2407 0.961 . S
H2422 C2407 0.961 . S
H2423 C2407 0.961 . S
H2424 C2408 0.931 . S
H2425 C2413 0.930 . S
H2426 C2414 0.956 . S
H2427 C2414 0.961 . S
H2428 C2414 0.961 . S
H2429 C2415 0.958 . S
H2430 C2415 0.961 . S
H2431 C2415 0.960 . S
C2432 C2433 1.391 . S
C2432 C2434 1.394 . S
C2432 H2448 0.931 . S
C2433 C2432 1.391 . S
C2433 C2437 1.376 . S
C2434 C2432 1.394 . S
C2434 C2435 1.369 . S
C2434 C2438 1.531 . S
C2435 C2434 1.369 . S
C2435 C2436 1.410 . S
C2435 C2443 1.503 . S
C2436 C2435 1.410 . S
C2436 C2437 1.392 . S
C2436 C2439 1.511 . S
C2437 C2433 1.376 . S
C2437 C2436 1.392 . S
C2437 H2449 0.929 . S
C2438 C2434 1.531 . S
C2438 H2450 0.960 . S
C2438 H2451 0.962 . S
C2438 H2452 0.960 . S
C2439 C2436 1.511 . S
C2439 H2453 0.961 . S
C2439 H2454 0.961 . S
C2439 H2455 0.961 . S
C2440 C2441 1.370 . S
C2440 C2442 1.363 . S
C2440 H2456 0.931 . S
C2441 C2440 1.370 . S
C2441 C2445 1.408 . S
C2442 C2440 1.363 . S
C2442 C2443 1.370 . S
C2442 C2446 1.524 . S
C2443 C2435 1.503 . S
C2443 C2442 1.370 . S
C2443 C2444 1.403 . S
C2444 C2443 1.403 . S
C2444 C2445 1.404 . S
C2444 C2447 1.539 . S
C2445 C2441 1.408 . S
C2445 C2444 1.404 . S
C2445 H2457 0.930 . S
C2446 C2442 1.524 . S
C2446 H2458 0.956 . S
C2446 H2459 0.961 . S
C2446 H2460 0.961 . S
C2447 C2444 1.539 . S
C2447 H2461 0.958 . S
C2447 H2462 0.961 . S
C2447 H2463 0.960 . S
H2448 C2432 0.931 . S
H2449 C2437 0.929 . S
H2450 C2438 0.960 . S
H2451 C2438 0.962 . S
H2452 C2438 0.960 . S
H2453 C2439 0.961 . S
H2454 C2439 0.961 . S
H2455 C2439 0.961 . S
H2456 C2440 0.931 . S
H2457 C2445 0.930 . S
H2458 C2446 0.956 . S
H2459 C2446 0.961 . S
H2460 C2446 0.961 . S
H2461 C2447 0.958 . S
H2462 C2447 0.961 . S
H2463 C2447 0.960 . S
C2464 C2465 1.391 . S
C2464 C2466 1.394 . S
C2464 H2480 0.931 . S
C2465 C2464 1.391 . S
C2465 C2469 1.376 . S
C2466 C2464 1.394 . S
C2466 C2467 1.369 . S
C2466 C2470 1.531 . S
C2467 C2466 1.369 . S
C2467 C2468 1.410 . S
C2467 C2475 1.503 . S
C2468 C2467 1.410 . S
C2468 C2469 1.392 . S
C2468 C2471 1.511 . S
C2469 C2465 1.376 . S
C2469 C2468 1.392 . S
C2469 H2481 0.929 . S
C2470 C2466 1.531 . S
C2470 H2482 0.960 . S
C2470 H2483 0.962 . S
C2470 H2484 0.960 . S
C2471 C2468 1.511 . S
C2471 H2485 0.961 . S
C2471 H2486 0.961 . S
C2471 H2487 0.961 . S
C2472 C2473 1.370 . S
C2472 C2474 1.363 . S
C2472 H2488 0.931 . S
C2473 C2472 1.370 . S
C2473 C2477 1.408 . S
C2474 C2472 1.363 . S
C2474 C2475 1.370 . S
C2474 C2478 1.524 . S
C2475 C2467 1.503 . S
C2475 C2474 1.370 . S
C2475 C2476 1.403 . S
C2476 C2475 1.403 . S
C2476 C2477 1.404 . S
C2476 C2479 1.539 . S
C2477 C2473 1.408 . S
C2477 C2476 1.404 . S
C2477 H2489 0.930 . S
C2478 C2474 1.524 . S
C2478 H2490 0.956 . S
C2478 H2491 0.961 . S
C2478 H2492 0.961 . S
C2479 C2476 1.539 . S
C2479 H2493 0.958 . S
C2479 H2494 0.961 . S
C2479 H2495 0.960 . S
H2480 C2464 0.931 . S
H2481 C2469 0.929 . S
H2482 C2470 0.960 . S
H2483 C2470 0.962 . S
H2484 C2470 0.960 . S
H2485 C2471 0.961 . S
H2486 C2471 0.961 . S
H2487 C2471 0.961 . S
H2488 C2472 0.931 . S
H2489 C2477 0.930 . S
H2490 C2478 0.956 . S
H2491 C2478 0.961 . S
H2492 C2478 0.961 . S
H2493 C2479 0.958 . S
H2494 C2479 0.961 . S
H2495 C2479 0.960 . S
C2496 C2497 1.391 . S
C2496 C2498 1.394 . S
C2496 H2512 0.931 . S
C2497 C2496 1.391 . S
C2497 C2501 1.376 . S
C2498 C2496 1.394 . S
C2498 C2499 1.369 . S
C2498 C2502 1.531 . S
C2499 C2498 1.369 . S
C2499 C2500 1.410 . S
C2499 C2507 1.503 . S
C2500 C2499 1.410 . S
C2500 C2501 1.392 . S
C2500 C2503 1.511 . S
C2501 C2497 1.376 . S
C2501 C2500 1.392 . S
C2501 H2513 0.929 . S
C2502 C2498 1.531 . S
C2502 H2514 0.960 . S
C2502 H2515 0.962 . S
C2502 H2516 0.960 . S
C2503 C2500 1.511 . S
C2503 H2517 0.961 . S
C2503 H2518 0.961 . S
C2503 H2519 0.961 . S
C2504 C2505 1.370 . S
C2504 C2506 1.363 . S
C2504 H2520 0.931 . S
C2505 C2504 1.370 . S
C2505 C2509 1.408 . S
C2506 C2504 1.363 . S
C2506 C2507 1.370 . S
C2506 C2510 1.524 . S
C2507 C2499 1.503 . S
C2507 C2506 1.370 . S
C2507 C2508 1.403 . S
C2508 C2507 1.403 . S
C2508 C2509 1.404 . S
C2508 C2511 1.539 . S
C2509 C2505 1.408 . S
C2509 C2508 1.404 . S
C2509 H2521 0.930 . S
C2510 C2506 1.524 . S
C2510 H2522 0.956 . S
C2510 H2523 0.961 . S
C2510 H2524 0.961 . S
C2511 C2508 1.539 . S
C2511 H2525 0.958 . S
C2511 H2526 0.961 . S
C2511 H2527 0.960 . S
H2512 C2496 0.931 . S
H2513 C2501 0.929 . S
H2514 C2502 0.960 . S
H2515 C2502 0.962 . S
H2516 C2502 0.960 . S
H2517 C2503 0.961 . S
H2518 C2503 0.961 . S
H2519 C2503 0.961 . S
H2520 C2504 0.931 . S
H2521 C2509 0.930 . S
H2522 C2510 0.956 . S
H2523 C2510 0.961 . S
H2524 C2510 0.961 . S
H2525 C2511 0.958 . S
H2526 C2511 0.961 . S
H2527 C2511 0.960 . S
C2528 C2529 1.391 . S
C2528 C2530 1.394 . S
C2528 H2544 0.931 . S
C2529 C2528 1.391 . S
C2529 C2533 1.376 . S
C2530 C2528 1.394 . S
C2530 C2531 1.369 . S
C2530 C2534 1.531 . S
C2531 C2530 1.369 . S
C2531 C2532 1.410 . S
C2531 C2539 1.503 . S
C2532 C2531 1.410 . S
C2532 C2533 1.392 . S
C2532 C2535 1.511 . S
C2533 C2529 1.376 . S
C2533 C2532 1.392 . S
C2533 H2545 0.929 . S
C2534 C2530 1.531 . S
C2534 H2546 0.960 . S
C2534 H2547 0.962 . S
C2534 H2548 0.960 . S
C2535 C2532 1.511 . S
C2535 H2549 0.961 . S
C2535 H2550 0.961 . S
C2535 H2551 0.961 . S
C2536 C2537 1.370 . S
C2536 C2538 1.363 . S
C2536 H2552 0.931 . S
C2537 C2536 1.370 . S
C2537 C2541 1.408 . S
C2538 C2536 1.363 . S
C2538 C2539 1.370 . S
C2538 C2542 1.524 . S
C2539 C2531 1.503 . S
C2539 C2538 1.370 . S
C2539 C2540 1.403 . S
C2540 C2539 1.403 . S
C2540 C2541 1.404 . S
C2540 C2543 1.539 . S
C2541 C2537 1.408 . S
C2541 C2540 1.404 . S
C2541 H2553 0.930 . S
C2542 C2538 1.524 . S
C2542 H2554 0.956 . S
C2542 H2555 0.961 . S
C2542 H2556 0.961 . S
C2543 C2540 1.539 . S
C2543 H2557 0.958 . S
C2543 H2558 0.961 . S
C2543 H2559 0.960 . S
H2544 C2528 0.931 . S
H2545 C2533 0.929 . S
H2546 C2534 0.960 . S
H2547 C2534 0.962 . S
H2548 C2534 0.960 . S
H2549 C2535 0.961 . S
H2550 C2535 0.961 . S
H2551 C2535 0.961 . S
H2552 C2536 0.931 . S
H2553 C2541 0.930 . S
H2554 C2542 0.956 . S
H2555 C2542 0.961 . S
H2556 C2542 0.961 . S
H2557 C2543 0.958 . S
H2558 C2543 0.961 . S
H2559 C2543 0.960 . S
C2560 C2561 1.391 . S
C2560 C2562 1.394 . S
C2560 H2576 0.931 . S
C2561 C2560 1.391 . S
C2561 C2565 1.376 . S
C2562 C2560 1.394 . S
C2562 C2563 1.369 . S
C2562 C2566 1.531 . S
C2563 C2562 1.369 . S
C2563 C2564 1.410 . S
C2563 C2571 1.503 . S
C2564 C2563 1.410 . S
C2564 C2565 1.392 . S
C2564 C2567 1.511 . S
C2565 C2561 1.376 . S
C2565 C2564 1.392 . S
C2565 H2577 0.929 . S
C2566 C2562 1.531 . S
C2566 H2578 0.960 . S
C2566 H2579 0.962 . S
C2566 H2580 0.960 . S
C2567 C2564 1.511 . S
C2567 H2581 0.961 . S
C2567 H2582 0.961 . S
C2567 H2583 0.961 . S
C2568 C2569 1.370 . S
C2568 C2570 1.363 . S
C2568 H2584 0.931 . S
C2569 C2568 1.370 . S
C2569 C2573 1.408 . S
C2570 C2568 1.363 . S
C2570 C2571 1.370 . S
C2570 C2574 1.524 . S
C2571 C2563 1.503 . S
C2571 C2570 1.370 . S
C2571 C2572 1.403 . S
C2572 C2571 1.403 . S
C2572 C2573 1.404 . S
C2572 C2575 1.539 . S
C2573 C2569 1.408 . S
C2573 C2572 1.404 . S
C2573 H2585 0.930 . S
C2574 C2570 1.524 . S
C2574 H2586 0.956 . S
C2574 H2587 0.961 . S
C2574 H2588 0.961 . S
C2575 C2572 1.539 . S
C2575 H2589 0.958 . S
C2575 H2590 0.961 . S
C2575 H2591 0.960 . S
H2576 C2560 0.931 . S
H2577 C2565 0.929 . S
H2578 C2566 0.960 . S
H2579 C2566 0.962 . S
H2580 C2566 0.960 . S
H2581 C2567 0.961 . S
H2582 C2567 0.961 . S
H2583 C2567 0.961 . S
H2584 C2568 0.931 . S
H2585 C2573 0.930 . S
H2586 C2574 0.956 . S
H2587 C2574 0.961 . S
H2588 C2574 0.961 . S
H2589 C2575 0.958 . S
H2590 C2575 0.961 . S
H2591 C2575 0.960 . S
C2592 C2593 1.391 . S
C2592 C2594 1.394 . S
C2592 H2608 0.931 . S
C2593 C2592 1.391 . S
C2593 C2597 1.376 . S
C2594 C2592 1.394 . S
C2594 C2595 1.369 . S
C2594 C2598 1.531 . S
C2595 C2594 1.369 . S
C2595 C2596 1.410 . S
C2595 C2603 1.503 . S
C2596 C2595 1.410 . S
C2596 C2597 1.392 . S
C2596 C2599 1.511 . S
C2597 C2593 1.376 . S
C2597 C2596 1.392 . S
C2597 H2609 0.929 . S
C2598 C2594 1.531 . S
C2598 H2610 0.960 . S
C2598 H2611 0.962 . S
C2598 H2612 0.960 . S
C2599 C2596 1.511 . S
C2599 H2613 0.961 . S
C2599 H2614 0.961 . S
C2599 H2615 0.961 . S
C2600 C2601 1.370 . S
C2600 C2602 1.363 . S
C2600 H2616 0.931 . S
C2601 C2600 1.370 . S
C2601 C2605 1.408 . S
C2602 C2600 1.363 . S
C2602 C2603 1.370 . S
C2602 C2606 1.524 . S
C2603 C2595 1.503 . S
C2603 C2602 1.370 . S
C2603 C2604 1.403 . S
C2604 C2603 1.403 . S
C2604 C2605 1.404 . S
C2604 C2607 1.539 . S
C2605 C2601 1.408 . S
C2605 C2604 1.404 . S
C2605 H2617 0.930 . S
C2606 C2602 1.524 . S
C2606 H2618 0.956 . S
C2606 H2619 0.961 . S
C2606 H2620 0.961 . S
C2607 C2604 1.539 . S
C2607 H2621 0.958 . S
C2607 H2622 0.961 . S
C2607 H2623 0.960 . S
H2608 C2592 0.931 . S
H2609 C2597 0.929 . S
H2610 C2598 0.960 . S
H2611 C2598 0.962 . S
H2612 C2598 0.960 . S
H2613 C2599 0.961 . S
H2614 C2599 0.961 . S
H2615 C2599 0.961 . S
H2616 C2600 0.931 . S
H2617 C2605 0.930 . S
H2618 C2606 0.956 . S
H2619 C2606 0.961 . S
H2620 C2606 0.961 . S
H2621 C2607 0.958 . S
H2622 C2607 0.961 . S
H2623 C2607 0.960 . S
C2624 C2625 1.391 . S
C2624 C2626 1.394 . S
C2624 H2640 0.931 . S
C2625 C2624 1.391 . S
C2625 C2629 1.376 . S
C2626 C2624 1.394 . S
C2626 C2627 1.369 . S
C2626 C2630 1.531 . S
C2627 C2626 1.369 . S
C2627 C2628 1.410 . S
C2627 C2635 1.503 . S
C2628 C2627 1.410 . S
C2628 C2629 1.392 . S
C2628 C2631 1.511 . S
C2629 C2625 1.376 . S
C2629 C2628 1.392 . S
C2629 H2641 0.929 . S
C2630 C2626 1.531 . S
C2630 H2642 0.960 . S
C2630 H2643 0.962 . S
C2630 H2644 0.960 . S
C2631 C2628 1.511 . S
C2631 H2645 0.961 . S
C2631 H2646 0.961 . S
C2631 H2647 0.961 . S
C2632 C2633 1.370 . S
C2632 C2634 1.363 . S
C2632 H2648 0.931 . S
C2633 C2632 1.370 . S
C2633 C2637 1.408 . S
C2634 C2632 1.363 . S
C2634 C2635 1.370 . S
C2634 C2638 1.524 . S
C2635 C2627 1.503 . S
C2635 C2634 1.370 . S
C2635 C2636 1.403 . S
C2636 C2635 1.403 . S
C2636 C2637 1.404 . S
C2636 C2639 1.539 . S
C2637 C2633 1.408 . S
C2637 C2636 1.404 . S
C2637 H2649 0.930 . S
C2638 C2634 1.524 . S
C2638 H2650 0.956 . S
C2638 H2651 0.961 . S
C2638 H2652 0.961 . S
C2639 C2636 1.539 . S
C2639 H2653 0.958 . S
C2639 H2654 0.961 . S
C2639 H2655 0.960 . S
H2640 C2624 0.931 . S
H2641 C2629 0.929 . S
H2642 C2630 0.960 . S
H2643 C2630 0.962 . S
H2644 C2630 0.960 . S
H2645 C2631 0.961 . S
H2646 C2631 0.961 . S
H2647 C2631 0.961 . S
H2648 C2632 0.931 . S
H2649 C2637 0.930 . S
H2650 C2638 0.956 . S
H2651 C2638 0.961 . S
H2652 C2638 0.961 . S
H2653 C2639 0.958 . S
H2654 C2639 0.961 . S
H2655 C2639 0.960 . S
C2656 C2657 1.391 . S
C2656 C2658 1.394 . S
C2656 H2672 0.931 . S
C2657 C2656 1.391 . S
C2657 C2661 1.376 . S
C2658 C2656 1.394 . S
C2658 C2659 1.369 . S
C2658 C2662 1.531 . S
C2659 C2658 1.369 . S
C2659 C2660 1.410 . S
C2659 C2667 1.503 . S
C2660 C2659 1.410 . S
C2660 C2661 1.392 . S
C2660 C2663 1.511 . S
C2661 C2657 1.376 . S
C2661 C2660 1.392 . S
C2661 H2673 0.929 . S
C2662 C2658 1.531 . S
C2662 H2674 0.960 . S
C2662 H2675 0.962 . S
C2662 H2676 0.960 . S
C2663 C2660 1.511 . S
C2663 H2677 0.961 . S
C2663 H2678 0.961 . S
C2663 H2679 0.961 . S
C2664 C2665 1.370 . S
C2664 C2666 1.363 . S
C2664 H2680 0.931 . S
C2665 C2664 1.370 . S
C2665 C2669 1.408 . S
C2666 C2664 1.363 . S
C2666 C2667 1.370 . S
C2666 C2670 1.524 . S
C2667 C2659 1.503 . S
C2667 C2666 1.370 . S
C2667 C2668 1.403 . S
C2668 C2667 1.403 . S
C2668 C2669 1.404 . S
C2668 C2671 1.539 . S
C2669 C2665 1.408 . S
C2669 C2668 1.404 . S
C2669 H2681 0.930 . S
C2670 C2666 1.524 . S
C2670 H2682 0.956 . S
C2670 H2683 0.961 . S
C2670 H2684 0.961 . S
C2671 C2668 1.539 . S
C2671 H2685 0.958 . S
C2671 H2686 0.961 . S
C2671 H2687 0.960 . S
H2672 C2656 0.931 . S
H2673 C2661 0.929 . S
H2674 C2662 0.960 . S
H2675 C2662 0.962 . S
H2676 C2662 0.960 . S
H2677 C2663 0.961 . S
H2678 C2663 0.961 . S
H2679 C2663 0.961 . S
H2680 C2664 0.931 . S
H2681 C2669 0.930 . S
H2682 C2670 0.956 . S
H2683 C2670 0.961 . S
H2684 C2670 0.961 . S
H2685 C2671 0.958 . S
H2686 C2671 0.961 . S
H2687 C2671 0.960 . S
C2688 C2689 1.391 . S
C2688 C2690 1.394 . S
C2688 H2704 0.931 . S
C2689 C2688 1.391 . S
C2689 C2693 1.376 . S
C2690 C2688 1.394 . S
C2690 C2691 1.369 . S
C2690 C2694 1.531 . S
C2691 C2690 1.369 . S
C2691 C2692 1.410 . S
C2691 C2699 1.503 . S
C2692 C2691 1.410 . S
C2692 C2693 1.392 . S
C2692 C2695 1.511 . S
C2693 C2689 1.376 . S
C2693 C2692 1.392 . S
C2693 H2705 0.929 . S
C2694 C2690 1.531 . S
C2694 H2706 0.960 . S
C2694 H2707 0.962 . S
C2694 H2708 0.960 . S
C2695 C2692 1.511 . S
C2695 H2709 0.961 . S
C2695 H2710 0.961 . S
C2695 H2711 0.961 . S
C2696 C2697 1.370 . S
C2696 C2698 1.363 . S
C2696 H2712 0.931 . S
C2697 C2696 1.370 . S
C2697 C2701 1.408 . S
C2698 C2696 1.363 . S
C2698 C2699 1.370 . S
C2698 C2702 1.524 . S
C2699 C2691 1.503 . S
C2699 C2698 1.370 . S
C2699 C2700 1.403 . S
C2700 C2699 1.403 . S
C2700 C2701 1.404 . S
C2700 C2703 1.539 . S
C2701 C2697 1.408 . S
C2701 C2700 1.404 . S
C2701 H2713 0.930 . S
C2702 C2698 1.524 . S
C2702 H2714 0.956 . S
C2702 H2715 0.961 . S
C2702 H2716 0.961 . S
C2703 C2700 1.539 . S
C2703 H2717 0.958 . S
C2703 H2718 0.961 . S
C2703 H2719 0.960 . S
H2704 C2688 0.931 . S
H2705 C2693 0.929 . S
H2706 C2694 0.960 . S
H2707 C2694 0.962 . S
H2708 C2694 0.960 . S
H2709 C2695 0.961 . S
H2710 C2695 0.961 . S
H2711 C2695 0.961 . S
H2712 C2696 0.931 . S
H2713 C2701 0.930 . S
H2714 C2702 0.956 . S
H2715 C2702 0.961 . S
H2716 C2702 0.961 . S
H2717 C2703 0.958 . S
H2718 C2703 0.961 . S
H2719 C2703 0.960 . S
C2720 C2721 1.391 . S
C2720 C2722 1.394 . S
C2720 H2736 0.931 . S
C2721 C2720 1.391 . S
C2721 C2725 1.376 . S
C2722 C2720 1.394 . S
C2722 C2723 1.369 . S
C2722 C2726 1.531 . S
C2723 C2722 1.369 . S
C2723 C2724 1.410 . S
C2723 C2731 1.503 . S
C2724 C2723 1.410 . S
C2724 C2725 1.392 . S
C2724 C2727 1.511 . S
C2725 C2721 1.376 . S
C2725 C2724 1.392 . S
C2725 H2737 0.929 . S
C2726 C2722 1.531 . S
C2726 H2738 0.960 . S
C2726 H2739 0.962 . S
C2726 H2740 0.960 . S
C2727 C2724 1.511 . S
C2727 H2741 0.961 . S
C2727 H2742 0.961 . S
C2727 H2743 0.961 . S
C2728 C2729 1.370 . S
C2728 C2730 1.363 . S
C2728 H2744 0.931 . S
C2729 C2728 1.370 . S
C2729 C2733 1.408 . S
C2730 C2728 1.363 . S
C2730 C2731 1.370 . S
C2730 C2734 1.524 . S
C2731 C2723 1.503 . S
C2731 C2730 1.370 . S
C2731 C2732 1.403 . S
C2732 C2731 1.403 . S
C2732 C2733 1.404 . S
C2732 C2735 1.539 . S
C2733 C2729 1.408 . S
C2733 C2732 1.404 . S
C2733 H2745 0.930 . S
C2734 C2730 1.524 . S
C2734 H2746 0.956 . S
C2734 H2747 0.961 . S
C2734 H2748 0.961 . S
C2735 C2732 1.539 . S
C2735 H2749 0.958 . S
C2735 H2750 0.961 . S
C2735 H2751 0.960 . S
H2736 C2720 0.931 . S
H2737 C2725 0.929 . S
H2738 C2726 0.960 . S
H2739 C2726 0.962 . S
H2740 C2726 0.960 . S
H2741 C2727 0.961 . S
H2742 C2727 0.961 . S
H2743 C2727 0.961 . S
H2744 C2728 0.931 . S
H2745 C2733 0.930 . S
H2746 C2734 0.956 . S
H2747 C2734 0.961 . S
H2748 C2734 0.961 . S
H2749 C2735 0.958 . S
H2750 C2735 0.961 . S
H2751 C2735 0.960 . S
C2752 C2753 1.391 . S
C2752 C2754 1.394 . S
C2752 H2768 0.931 . S
C2753 C2752 1.391 . S
C2753 C2757 1.376 . S
C2754 C2752 1.394 . S
C2754 C2755 1.369 . S
C2754 C2758 1.531 . S
C2755 C2754 1.369 . S
C2755 C2756 1.410 . S
C2755 C2763 1.503 . S
C2756 C2755 1.410 . S
C2756 C2757 1.392 . S
C2756 C2759 1.511 . S
C2757 C2753 1.376 . S
C2757 C2756 1.392 . S
C2757 H2769 0.929 . S
C2758 C2754 1.531 . S
C2758 H2770 0.960 . S
C2758 H2771 0.962 . S
C2758 H2772 0.960 . S
C2759 C2756 1.511 . S
C2759 H2773 0.961 . S
C2759 H2774 0.961 . S
C2759 H2775 0.961 . S
C2760 C2761 1.370 . S
C2760 C2762 1.363 . S
C2760 H2776 0.931 . S
C2761 C2760 1.370 . S
C2761 C2765 1.408 . S
C2762 C2760 1.363 . S
C2762 C2763 1.370 . S
C2762 C2766 1.524 . S
C2763 C2755 1.503 . S
C2763 C2762 1.370 . S
C2763 C2764 1.403 . S
C2764 C2763 1.403 . S
C2764 C2765 1.404 . S
C2764 C2767 1.539 . S
C2765 C2761 1.408 . S
C2765 C2764 1.404 . S
C2765 H2777 0.930 . S
C2766 C2762 1.524 . S
C2766 H2778 0.956 . S
C2766 H2779 0.961 . S
C2766 H2780 0.961 . S
C2767 C2764 1.539 . S
C2767 H2781 0.958 . S
C2767 H2782 0.961 . S
C2767 H2783 0.960 . S
H2768 C2752 0.931 . S
H2769 C2757 0.929 . S
H2770 C2758 0.960 . S
H2771 C2758 0.962 . S
H2772 C2758 0.960 . S
H2773 C2759 0.961 . S
H2774 C2759 0.961 . S
H2775 C2759 0.961 . S
H2776 C2760 0.931 . S
H2777 C2765 0.930 . S
H2778 C2766 0.956 . S
H2779 C2766 0.961 . S
H2780 C2766 0.961 . S
H2781 C2767 0.958 . S
H2782 C2767 0.961 . S
H2783 C2767 0.960 . S
C2784 C2785 1.391 . S
C2784 C2786 1.394 . S
C2784 H2800 0.931 . S
C2785 C2784 1.391 . S
C2785 C2789 1.376 . S
C2786 C2784 1.394 . S
C2786 C2787 1.369 . S
C2786 C2790 1.531 . S
C2787 C2786 1.369 . S
C2787 C2788 1.410 . S
C2787 C2795 1.503 . S
C2788 C2787 1.410 . S
C2788 C2789 1.392 . S
C2788 C2791 1.511 . S
C2789 C2785 1.376 . S
C2789 C2788 1.392 . S
C2789 H2801 0.929 . S
C2790 C2786 1.531 . S
C2790 H2802 0.960 . S
C2790 H2803 0.962 . S
C2790 H2804 0.960 . S
C2791 C2788 1.511 . S
C2791 H2805 0.961 . S
C2791 H2806 0.961 . S
C2791 H2807 0.961 . S
C2792 C2793 1.370 . S
C2792 C2794 1.363 . S
C2792 H2808 0.931 . S
C2793 C2792 1.370 . S
C2793 C2797 1.408 . S
C2794 C2792 1.363 . S
C2794 C2795 1.370 . S
C2794 C2798 1.524 . S
C2795 C2787 1.503 . S
C2795 C2794 1.370 . S
C2795 C2796 1.403 . S
C2796 C2795 1.403 . S
C2796 C2797 1.404 . S
C2796 C2799 1.539 . S
C2797 C2793 1.408 . S
C2797 C2796 1.404 . S
C2797 H2809 0.930 . S
C2798 C2794 1.524 . S
C2798 H2810 0.956 . S
C2798 H2811 0.961 . S
C2798 H2812 0.961 . S
C2799 C2796 1.539 . S
C2799 H2813 0.958 . S
C2799 H2814 0.961 . S
C2799 H2815 0.960 . S
H2800 C2784 0.931 . S
H2801 C2789 0.929 . S
H2802 C2790 0.960 . S
H2803 C2790 0.962 . S
H2804 C2790 0.960 . S
H2805 C2791 0.961 . S
H2806 C2791 0.961 . S
H2807 C2791 0.961 . S
H2808 C2792 0.931 . S
H2809 C2797 0.930 . S
H2810 C2798 0.956 . S
H2811 C2798 0.961 . S
H2812 C2798 0.961 . S
H2813 C2799 0.958 . S
H2814 C2799 0.961 . S
H2815 C2799 0.960 . S
C2816 C2817 1.391 . S
C2816 C2818 1.394 . S
C2816 H2832 0.931 . S
C2817 C2816 1.391 . S
C2817 C2821 1.376 . S
C2818 C2816 1.394 . S
C2818 C2819 1.369 . S
C2818 C2822 1.531 . S
C2819 C2818 1.369 . S
C2819 C2820 1.410 . S
C2819 C2827 1.503 . S
C2820 C2819 1.410 . S
C2820 C2821 1.392 . S
C2820 C2823 1.511 . S
C2821 C2817 1.376 . S
C2821 C2820 1.392 . S
C2821 H2833 0.929 . S
C2822 C2818 1.531 . S
C2822 H2834 0.960 . S
C2822 H2835 0.962 . S
C2822 H2836 0.960 . S
C2823 C2820 1.511 . S
C2823 H2837 0.961 . S
C2823 H2838 0.961 . S
C2823 H2839 0.961 . S
C2824 C2825 1.370 . S
C2824 C2826 1.363 . S
C2824 H2840 0.931 . S
C2825 C2824 1.370 . S
C2825 C2829 1.408 . S
C2826 C2824 1.363 . S
C2826 C2827 1.370 . S
C2826 C2830 1.524 . S
C2827 C2819 1.503 . S
C2827 C2826 1.370 . S
C2827 C2828 1.403 . S
C2828 C2827 1.403 . S
C2828 C2829 1.404 . S
C2828 C2831 1.539 . S
C2829 C2825 1.408 . S
C2829 C2828 1.404 . S
C2829 H2841 0.930 . S
C2830 C2826 1.524 . S
C2830 H2842 0.956 . S
C2830 H2843 0.961 . S
C2830 H2844 0.961 . S
C2831 C2828 1.539 . S
C2831 H2845 0.958 . S
C2831 H2846 0.961 . S
C2831 H2847 0.960 . S
H2832 C2816 0.931 . S
H2833 C2821 0.929 . S
H2834 C2822 0.960 . S
H2835 C2822 0.962 . S
H2836 C2822 0.960 . S
H2837 C2823 0.961 . S
H2838 C2823 0.961 . S
H2839 C2823 0.961 . S
H2840 C2824 0.931 . S
H2841 C2829 0.930 . S
H2842 C2830 0.956 . S
H2843 C2830 0.961 . S
H2844 C2830 0.961 . S
H2845 C2831 0.958 . S
H2846 C2831 0.961 . S
H2847 C2831 0.960 . S
C2848 C2849 1.391 . S
C2848 C2850 1.394 . S
C2848 H2864 0.931 . S
C2849 C2848 1.391 . S
C2849 C2853 1.376 . S
C2850 C2848 1.394 . S
C2850 C2851 1.369 . S
C2850 C2854 1.531 . S
C2851 C2850 1.369 . S
C2851 C2852 1.410 . S
C2851 C2859 1.503 . S
C2852 C2851 1.410 . S
C2852 C2853 1.392 . S
C2852 C2855 1.511 . S
C2853 C2849 1.376 . S
C2853 C2852 1.392 . S
C2853 H2865 0.929 . S
C2854 C2850 1.531 . S
C2854 H2866 0.960 . S
C2854 H2867 0.962 . S
C2854 H2868 0.960 . S
C2855 C2852 1.511 . S
C2855 H2869 0.961 . S
C2855 H2870 0.961 . S
C2855 H2871 0.961 . S
C2856 C2857 1.370 . S
C2856 C2858 1.363 . S
C2856 H2872 0.931 . S
C2857 C2856 1.370 . S
C2857 C2861 1.408 . S
C2858 C2856 1.363 . S
C2858 C2859 1.370 . S
C2858 C2862 1.524 . S
C2859 C2851 1.503 . S
C2859 C2858 1.370 . S
C2859 C2860 1.403 . S
C2860 C2859 1.403 . S
C2860 C2861 1.404 . S
C2860 C2863 1.539 . S
C2861 C2857 1.408 . S
C2861 C2860 1.404 . S
C2861 H2873 0.930 . S
C2862 C2858 1.524 . S
C2862 H2874 0.956 . S
C2862 H2875 0.961 . S
C2862 H2876 0.961 . S
C2863 C2860 1.539 . S
C2863 H2877 0.958 . S
C2863 H2878 0.961 . S
C2863 H2879 0.960 . S
H2864 C2848 0.931 . S
H2865 C2853 0.929 . S
H2866 C2854 0.960 . S
H2867 C2854 0.962 . S
H2868 C2854 0.960 . S
H2869 C2855 0.961 . S
H2870 C2855 0.961 . S
H2871 C2855 0.961 . S
H2872 C2856 0.931 . S
H2873 C2861 0.930 . S
H2874 C2862 0.956 . S
H2875 C2862 0.961 . S
H2876 C2862 0.961 . S
H2877 C2863 0.958 . S
H2878 C2863 0.961 . S
H2879 C2863 0.960 . S
C2880 C2881 1.391 . S
C2880 C2882 1.394 . S
C2880 H2896 0.931 . S
C2881 C2880 1.391 . S
C2881 C2885 1.376 . S
C2882 C2880 1.394 . S
C2882 C2883 1.369 . S
C2882 C2886 1.531 . S
C2883 C2882 1.369 . S
C2883 C2884 1.410 . S
C2883 C2891 1.503 . S
C2884 C2883 1.410 . S
C2884 C2885 1.392 . S
C2884 C2887 1.511 . S
C2885 C2881 1.376 . S
C2885 C2884 1.392 . S
C2885 H2897 0.929 . S
C2886 C2882 1.531 . S
C2886 H2898 0.960 . S
C2886 H2899 0.962 . S
C2886 H2900 0.960 . S
C2887 C2884 1.511 . S
C2887 H2901 0.961 . S
C2887 H2902 0.961 . S
C2887 H2903 0.961 . S
C2888 C2889 1.370 . S
C2888 C2890 1.363 . S
C2888 H2904 0.931 . S
C2889 C2888 1.370 . S
C2889 C2893 1.408 . S
C2890 C2888 1.363 . S
C2890 C2891 1.370 . S
C2890 C2894 1.524 . S
C2891 C2883 1.503 . S
C2891 C2890 1.370 . S
C2891 C2892 1.403 . S
C2892 C2891 1.403 . S
C2892 C2893 1.404 . S
C2892 C2895 1.539 . S
C2893 C2889 1.408 . S
C2893 C2892 1.404 . S
C2893 H2905 0.930 . S
C2894 C2890 1.524 . S
C2894 H2906 0.956 . S
C2894 H2907 0.961 . S
C2894 H2908 0.961 . S
C2895 C2892 1.539 . S
C2895 H2909 0.958 . S
C2895 H2910 0.961 . S
C2895 H2911 0.960 . S
H2896 C2880 0.931 . S
H2897 C2885 0.929 . S
H2898 C2886 0.960 . S
H2899 C2886 0.962 . S
H2900 C2886 0.960 . S
H2901 C2887 0.961 . S
H2902 C2887 0.961 . S
H2903 C2887 0.961 . S
H2904 C2888 0.931 . S
H2905 C2893 0.930 . S
H2906 C2894 0.956 . S
H2907 C2894 0.961 . S
H2908 C2894 0.961 . S
H2909 C2895 0.958 . S
H2910 C2895 0.961 . S
H2911 C2895 0.960 . S
C2912 C2913 1.391 . S
C2912 C2914 1.394 . S
C2912 H2928 0.931 . S
C2913 C2912 1.391 . S
C2913 C2917 1.376 . S
C2914 C2912 1.394 . S
C2914 C2915 1.369 . S
C2914 C2918 1.531 . S
C2915 C2914 1.369 . S
C2915 C2916 1.410 . S
C2915 C2923 1.503 . S
C2916 C2915 1.410 . S
C2916 C2917 1.392 . S
C2916 C2919 1.511 . S
C2917 C2913 1.376 . S
C2917 C2916 1.392 . S
C2917 H2929 0.929 . S
C2918 C2914 1.531 . S
C2918 H2930 0.960 . S
C2918 H2931 0.962 . S
C2918 H2932 0.960 . S
C2919 C2916 1.511 . S
C2919 H2933 0.961 . S
C2919 H2934 0.961 . S
C2919 H2935 0.961 . S
C2920 C2921 1.370 . S
C2920 C2922 1.363 . S
C2920 H2936 0.931 . S
C2921 C2920 1.370 . S
C2921 C2925 1.408 . S
C2922 C2920 1.363 . S
C2922 C2923 1.370 . S
C2922 C2926 1.524 . S
C2923 C2915 1.503 . S
C2923 C2922 1.370 . S
C2923 C2924 1.403 . S
C2924 C2923 1.403 . S
C2924 C2925 1.404 . S
C2924 C2927 1.539 . S
C2925 C2921 1.408 . S
C2925 C2924 1.404 . S
C2925 H2937 0.930 . S
C2926 C2922 1.524 . S
C2926 H2938 0.956 . S
C2926 H2939 0.961 . S
C2926 H2940 0.961 . S
C2927 C2924 1.539 . S
C2927 H2941 0.958 . S
C2927 H2942 0.961 . S
C2927 H2943 0.960 . S
H2928 C2912 0.931 . S
H2929 C2917 0.929 . S
H2930 C2918 0.960 . S
H2931 C2918 0.962 . S
H2932 C2918 0.960 . S
H2933 C2919 0.961 . S
H2934 C2919 0.961 . S
H2935 C2919 0.961 . S
H2936 C2920 0.931 . S
H2937 C2925 0.930 . S
H2938 C2926 0.956 . S
H2939 C2926 0.961 . S
H2940 C2926 0.961 . S
H2941 C2927 0.958 . S
H2942 C2927 0.961 . S
H2943 C2927 0.960 . S
C2944 C2945 1.391 . S
C2944 C2946 1.394 . S
C2944 H2960 0.931 . S
C2945 C2944 1.391 . S
C2945 C2949 1.376 . S
C2946 C2944 1.394 . S
C2946 C2947 1.369 . S
C2946 C2950 1.531 . S
C2947 C2946 1.369 . S
C2947 C2948 1.410 . S
C2947 C2955 1.503 . S
C2948 C2947 1.410 . S
C2948 C2949 1.392 . S
C2948 C2951 1.511 . S
C2949 C2945 1.376 . S
C2949 C2948 1.392 . S
C2949 H2961 0.929 . S
C2950 C2946 1.531 . S
C2950 H2962 0.960 . S
C2950 H2963 0.962 . S
C2950 H2964 0.960 . S
C2951 C2948 1.511 . S
C2951 H2965 0.961 . S
C2951 H2966 0.961 . S
C2951 H2967 0.961 . S
C2952 C2953 1.370 . S
C2952 C2954 1.363 . S
C2952 H2968 0.931 . S
C2953 C2952 1.370 . S
C2953 C2957 1.408 . S
C2954 C2952 1.363 . S
C2954 C2955 1.370 . S
C2954 C2958 1.524 . S
C2955 C2947 1.503 . S
C2955 C2954 1.370 . S
C2955 C2956 1.403 . S
C2956 C2955 1.403 . S
C2956 C2957 1.404 . S
C2956 C2959 1.539 . S
C2957 C2953 1.408 . S
C2957 C2956 1.404 . S
C2957 H2969 0.930 . S
C2958 C2954 1.524 . S
C2958 H2970 0.956 . S
C2958 H2971 0.961 . S
C2958 H2972 0.961 . S
C2959 C2956 1.539 . S
C2959 H2973 0.958 . S
C2959 H2974 0.961 . S
C2959 H2975 0.960 . S
H2960 C2944 0.931 . S
H2961 C2949 0.929 . S
H2962 C2950 0.960 . S
H2963 C2950 0.962 . S
H2964 C2950 0.960 . S
H2965 C2951 0.961 . S
H2966 C2951 0.961 . S
H2967 C2951 0.961 . S
H2968 C2952 0.931 . S
H2969 C2957 0.930 . S
H2970 C2958 0.956 . S
H2971 C2958 0.961 . S
H2972 C2958 0.961 . S
H2973 C2959 0.958 . S
H2974 C2959 0.961 . S
H2975 C2959 0.960 . S
C2976 C2977 1.391 . S
C2976 C2978 1.394 . S
C2976 H2992 0.931 . S
C2977 C2976 1.391 . S
C2977 C2981 1.376 . S
C2978 C2976 1.394 . S
C2978 C2979 1.369 . S
C2978 C2982 1.531 . S
C2979 C2978 1.369 . S
C2979 C2980 1.410 . S
C2979 C2987 1.503 . S
C2980 C2979 1.410 . S
C2980 C2981 1.392 . S
C2980 C2983 1.511 . S
C2981 C2977 1.376 . S
C2981 C2980 1.392 . S
C2981 H2993 0.929 . S
C2982 C2978 1.531 . S
C2982 H2994 0.960 . S
C2982 H2995 0.962 . S
C2982 H2996 0.960 . S
C2983 C2980 1.511 . S
C2983 H2997 0.961 . S
C2983 H2998 0.961 . S
C2983 H2999 0.961 . S
C2984 C2985 1.370 . S
C2984 C2986 1.363 . S
C2984 H3000 0.931 . S
C2985 C2984 1.370 . S
C2985 C2989 1.408 . S
C2986 C2984 1.363 . S
C2986 C2987 1.370 . S
C2986 C2990 1.524 . S
C2987 C2979 1.503 . S
C2987 C2986 1.370 . S
C2987 C2988 1.403 . S
C2988 C2987 1.403 . S
C2988 C2989 1.404 . S
C2988 C2991 1.539 . S
C2989 C2985 1.408 . S
C2989 C2988 1.404 . S
C2989 H3001 0.930 . S
C2990 C2986 1.524 . S
C2990 H3002 0.956 . S
C2990 H3003 0.961 . S
C2990 H3004 0.961 . S
C2991 C2988 1.539 . S
C2991 H3005 0.958 . S
C2991 H3006 0.961 . S
C2991 H3007 0.960 . S
H2992 C2976 0.931 . S
H2993 C2981 0.929 . S
H2994 C2982 0.960 . S
H2995 C2982 0.962 . S
H2996 C2982 0.960 . S
H2997 C2983 0.961 . S
H2998 C2983 0.961 . S
H2999 C2983 0.961 . S
H3000 C2984 0.931 . S
H3001 C2989 0.930 . S
H3002 C2990 0.956 . S
H3003 C2990 0.961 . S
H3004 C2990 0.961 . S
H3005 C2991 0.958 . S
H3006 C2991 0.961 . S
H3007 C2991 0.960 . S
C3008 C3009 1.391 . S
C3008 C3010 1.394 . S
C3008 H3024 0.931 . S
C3009 C3008 1.391 . S
C3009 C3013 1.376 . S
C3010 C3008 1.394 . S
C3010 C3011 1.369 . S
C3010 C3014 1.531 . S
C3011 C3010 1.369 . S
C3011 C3012 1.410 . S
C3011 C3019 1.503 . S
C3012 C3011 1.410 . S
C3012 C3013 1.392 . S
C3012 C3015 1.511 . S
C3013 C3009 1.376 . S
C3013 C3012 1.392 . S
C3013 H3025 0.929 . S
C3014 C3010 1.531 . S
C3014 H3026 0.960 . S
C3014 H3027 0.962 . S
C3014 H3028 0.960 . S
C3015 C3012 1.511 . S
C3015 H3029 0.961 . S
C3015 H3030 0.961 . S
C3015 H3031 0.961 . S
C3016 C3017 1.370 . S
C3016 C3018 1.363 . S
C3016 H3032 0.931 . S
C3017 C3016 1.370 . S
C3017 C3021 1.408 . S
C3018 C3016 1.363 . S
C3018 C3019 1.370 . S
C3018 C3022 1.524 . S
C3019 C3011 1.503 . S
C3019 C3018 1.370 . S
C3019 C3020 1.403 . S
C3020 C3019 1.403 . S
C3020 C3021 1.404 . S
C3020 C3023 1.539 . S
C3021 C3017 1.408 . S
C3021 C3020 1.404 . S
C3021 H3033 0.930 . S
C3022 C3018 1.524 . S
C3022 H3034 0.956 . S
C3022 H3035 0.961 . S
C3022 H3036 0.961 . S
C3023 C3020 1.539 . S
C3023 H3037 0.958 . S
C3023 H3038 0.961 . S
C3023 H3039 0.960 . S
H3024 C3008 0.931 . S
H3025 C3013 0.929 . S
H3026 C3014 0.960 . S
H3027 C3014 0.962 . S
H3028 C3014 0.960 . S
H3029 C3015 0.961 . S
H3030 C3015 0.961 . S
H3031 C3015 0.961 . S
H3032 C3016 0.931 . S
H3033 C3021 0.930 . S
H3034 C3022 0.956 . S
H3035 C3022 0.961 . S
H3036 C3022 0.961 . S
H3037 C3023 0.958 . S
H3038 C3023 0.961 . S
H3039 C3023 0.960 . S
C3040 C3041 1.391 . S
C3040 C3042 1.394 . S
C3040 H3056 0.931 . S
C3041 C3040 1.391 . S
C3041 C3045 1.376 . S
C3042 C3040 1.394 . S
C3042 C3043 1.369 . S
C3042 C3046 1.531 . S
C3043 C3042 1.369 . S
C3043 C3044 1.410 . S
C3043 C3051 1.503 . S
C3044 C3043 1.410 . S
C3044 C3045 1.392 . S
C3044 C3047 1.511 . S
C3045 C3041 1.376 . S
C3045 C3044 1.392 . S
C3045 H3057 0.929 . S
C3046 C3042 1.531 . S
C3046 H3058 0.960 . S
C3046 H3059 0.962 . S
C3046 H3060 0.960 . S
C3047 C3044 1.511 . S
C3047 H3061 0.961 . S
C3047 H3062 0.961 . S
C3047 H3063 0.961 . S
C3048 C3049 1.370 . S
C3048 C3050 1.363 . S
C3048 H3064 0.931 . S
C3049 C3048 1.370 . S
C3049 C3053 1.408 . S
C3050 C3048 1.363 . S
C3050 C3051 1.370 . S
C3050 C3054 1.524 . S
C3051 C3043 1.503 . S
C3051 C3050 1.370 . S
C3051 C3052 1.403 . S
C3052 C3051 1.403 . S
C3052 C3053 1.404 . S
C3052 C3055 1.539 . S
C3053 C3049 1.408 . S
C3053 C3052 1.404 . S
C3053 H3065 0.930 . S
C3054 C3050 1.524 . S
C3054 H3066 0.956 . S
C3054 H3067 0.961 . S
C3054 H3068 0.961 . S
C3055 C3052 1.539 . S
C3055 H3069 0.958 . S
C3055 H3070 0.961 . S
C3055 H3071 0.960 . S
H3056 C3040 0.931 . S
H3057 C3045 0.929 . S
H3058 C3046 0.960 . S
H3059 C3046 0.962 . S
H3060 C3046 0.960 . S
H3061 C3047 0.961 . S
H3062 C3047 0.961 . S
H3063 C3047 0.961 . S
H3064 C3048 0.931 . S
H3065 C3053 0.930 . S
H3066 C3054 0.956 . S
H3067 C3054 0.961 . S
H3068 C3054 0.961 . S
H3069 C3055 0.958 . S
H3070 C3055 0.961 . S
H3071 C3055 0.960 . S
C3072 C3073 1.391 . S
C3072 C3074 1.394 . S
C3072 H3088 0.931 . S
C3073 C3072 1.391 . S
C3073 C3077 1.376 . S
C3074 C3072 1.394 . S
C3074 C3075 1.369 . S
C3074 C3078 1.531 . S
C3075 C3074 1.369 . S
C3075 C3076 1.410 . S
C3075 C3083 1.503 . S
C3076 C3075 1.410 . S
C3076 C3077 1.392 . S
C3076 C3079 1.511 . S
C3077 C3073 1.376 . S
C3077 C3076 1.392 . S
C3077 H3089 0.929 . S
C3078 C3074 1.531 . S
C3078 H3090 0.960 . S
C3078 H3091 0.962 . S
C3078 H3092 0.960 . S
C3079 C3076 1.511 . S
C3079 H3093 0.961 . S
C3079 H3094 0.961 . S
C3079 H3095 0.961 . S
C3080 C3081 1.370 . S
C3080 C3082 1.363 . S
C3080 H3096 0.931 . S
C3081 C3080 1.370 . S
C3081 C3085 1.408 . S
C3082 C3080 1.363 . S
C3082 C3083 1.370 . S
C3082 C3086 1.524 . S
C3083 C3075 1.503 . S
C3083 C3082 1.370 . S
C3083 C3084 1.403 . S
C3084 C3083 1.403 . S
C3084 C3085 1.404 . S
C3084 C3087 1.539 . S
C3085 C3081 1.408 . S
C3085 C3084 1.404 . S
C3085 H3097 0.930 . S
C3086 C3082 1.524 . S
C3086 H3098 0.956 . S
C3086 H3099 0.961 . S
C3086 H3100 0.961 . S
C3087 C3084 1.539 . S
C3087 H3101 0.958 . S
C3087 H3102 0.961 . S
C3087 H3103 0.960 . S
H3088 C3072 0.931 . S
H3089 C3077 0.929 . S
H3090 C3078 0.960 . S
H3091 C3078 0.962 . S
H3092 C3078 0.960 . S
H3093 C3079 0.961 . S
H3094 C3079 0.961 . S
H3095 C3079 0.961 . S
H3096 C3080 0.931 . S
H3097 C3085 0.930 . S
H3098 C3086 0.956 . S
H3099 C3086 0.961 . S
H3100 C3086 0.961 . S
H3101 C3087 0.958 . S
H3102 C3087 0.961 . S
H3103 C3087 0.960 . S
C3104 C3105 1.391 . S
C3104 C3106 1.394 . S
C3104 H3120 0.931 . S
C3105 C3104 1.391 . S
C3105 C3109 1.376 . S
C3106 C3104 1.394 . S
C3106 C3107 1.369 . S
C3106 C3110 1.531 . S
C3107 C3106 1.369 . S
C3107 C3108 1.410 . S
C3107 C3115 1.503 . S
C3108 C3107 1.410 . S
C3108 C3109 1.392 . S
C3108 C3111 1.511 . S
C3109 C3105 1.376 . S
C3109 C3108 1.392 . S
C3109 H3121 0.929 . S
C3110 C3106 1.531 . S
C3110 H3122 0.960 . S
C3110 H3123 0.962 . S
C3110 H3124 0.960 . S
C3111 C3108 1.511 . S
C3111 H3125 0.961 . S
C3111 H3126 0.961 . S
C3111 H3127 0.961 . S
C3112 C3113 1.370 . S
C3112 C3114 1.363 . S
C3112 H3128 0.931 . S
C3113 C3112 1.370 . S
C3113 C3117 1.408 . S
C3114 C3112 1.363 . S
C3114 C3115 1.370 . S
C3114 C3118 1.524 . S
C3115 C3107 1.503 . S
C3115 C3114 1.370 . S
C3115 C3116 1.403 . S
C3116 C3115 1.403 . S
C3116 C3117 1.404 . S
C3116 C3119 1.539 . S
C3117 C3113 1.408 . S
C3117 C3116 1.404 . S
C3117 H3129 0.930 . S
C3118 C3114 1.524 . S
C3118 H3130 0.956 . S
C3118 H3131 0.961 . S
C3118 H3132 0.961 . S
C3119 C3116 1.539 . S
C3119 H3133 0.958 . S
C3119 H3134 0.961 . S
C3119 H3135 0.960 . S
H3120 C3104 0.931 . S
H3121 C3109 0.929 . S
H3122 C3110 0.960 . S
H3123 C3110 0.962 . S
H3124 C3110 0.960 . S
H3125 C3111 0.961 . S
H3126 C3111 0.961 . S
H3127 C3111 0.961 . S
H3128 C3112 0.931 . S
H3129 C3117 0.930 . S
H3130 C3118 0.956 . S
H3131 C3118 0.961 . S
H3132 C3118 0.961 . S
H3133 C3119 0.958 . S
H3134 C3119 0.961 . S
H3135 C3119 0.960 . S
C3136 C3137 1.391 . S
C3136 C3138 1.394 . S
C3136 H3152 0.931 . S
C3137 C3136 1.391 . S
C3137 C3141 1.376 . S
C3138 C3136 1.394 . S
C3138 C3139 1.369 . S
C3138 C3142 1.531 . S
C3139 C3138 1.369 . S
C3139 C3140 1.410 . S
C3139 C3147 1.503 . S
C3140 C3139 1.410 . S
C3140 C3141 1.392 . S
C3140 C3143 1.511 . S
C3141 C3137 1.376 . S
C3141 C3140 1.392 . S
C3141 H3153 0.929 . S
C3142 C3138 1.531 . S
C3142 H3154 0.960 . S
C3142 H3155 0.962 . S
C3142 H3156 0.960 . S
C3143 C3140 1.511 . S
C3143 H3157 0.961 . S
C3143 H3158 0.961 . S
C3143 H3159 0.961 . S
C3144 C3145 1.370 . S
C3144 C3146 1.363 . S
C3144 H3160 0.931 . S
C3145 C3144 1.370 . S
C3145 C3149 1.408 . S
C3146 C3144 1.363 . S
C3146 C3147 1.370 . S
C3146 C3150 1.524 . S
C3147 C3139 1.503 . S
C3147 C3146 1.370 . S
C3147 C3148 1.403 . S
C3148 C3147 1.403 . S
C3148 C3149 1.404 . S
C3148 C3151 1.539 . S
C3149 C3145 1.408 . S
C3149 C3148 1.404 . S
C3149 H3161 0.930 . S
C3150 C3146 1.524 . S
C3150 H3162 0.956 . S
C3150 H3163 0.961 . S
C3150 H3164 0.961 . S
C3151 C3148 1.539 . S
C3151 H3165 0.958 . S
C3151 H3166 0.961 . S
C3151 H3167 0.960 . S
H3152 C3136 0.931 . S
H3153 C3141 0.929 . S
H3154 C3142 0.960 . S
H3155 C3142 0.962 . S
H3156 C3142 0.960 . S
H3157 C3143 0.961 . S
H3158 C3143 0.961 . S
H3159 C3143 0.961 . S
H3160 C3144 0.931 . S
H3161 C3149 0.930 . S
H3162 C3150 0.956 . S
H3163 C3150 0.961 . S
H3164 C3150 0.961 . S
H3165 C3151 0.958 . S
H3166 C3151 0.961 . S
H3167 C3151 0.960 . S
C3168 C3169 1.391 . S
C3168 C3170 1.394 . S
C3168 H3184 0.931 . S
C3169 C3168 1.391 . S
C3169 C3173 1.376 . S
C3170 C3168 1.394 . S
C3170 C3171 1.369 . S
C3170 C3174 1.531 . S
C3171 C3170 1.369 . S
C3171 C3172 1.410 . S
C3171 C3179 1.503 . S
C3172 C3171 1.410 . S
C3172 C3173 1.392 . S
C3172 C3175 1.511 . S
C3173 C3169 1.376 . S
C3173 C3172 1.392 . S
C3173 H3185 0.929 . S
C3174 C3170 1.531 . S
C3174 H3186 0.960 . S
C3174 H3187 0.962 . S
C3174 H3188 0.960 . S
C3175 C3172 1.511 . S
C3175 H3189 0.961 . S
C3175 H3190 0.961 . S
C3175 H3191 0.961 . S
C3176 C3177 1.370 . S
C3176 C3178 1.363 . S
C3176 H3192 0.931 . S
C3177 C3176 1.370 . S
C3177 C3181 1.408 . S
C3178 C3176 1.363 . S
C3178 C3179 1.370 . S
C3178 C3182 1.524 . S
C3179 C3171 1.503 . S
C3179 C3178 1.370 . S
C3179 C3180 1.403 . S
C3180 C3179 1.403 . S
C3180 C3181 1.404 . S
C3180 C3183 1.539 . S
C3181 C3177 1.408 . S
C3181 C3180 1.404 . S
C3181 H3193 0.930 . S
C3182 C3178 1.524 . S
C3182 H3194 0.956 . S
C3182 H3195 0.961 . S
C3182 H3196 0.961 . S
C3183 C3180 1.539 . S
C3183 H3197 0.958 . S
C3183 H3198 0.961 . S
C3183 H3199 0.960 . S
H3184 C3168 0.931 . S
H3185 C3173 0.929 . S
H3186 C3174 0.960 . S
H3187 C3174 0.962 . S
H3188 C3174 0.960 . S
H3189 C3175 0.961 . S
H3190 C3175 0.961 . S
H3191 C3175 0.961 . S
H3192 C3176 0.931 . S
H3193 C3181 0.930 . S
H3194 C3182 0.956 . S
H3195 C3182 0.961 . S
H3196 C3182 0.961 . S
H3197 C3183 0.958 . S
H3198 C3183 0.961 . S
H3199 C3183 0.960 . S
C3200 C3201 1.391 . S
C3200 C3202 1.394 . S
C3200 H3216 0.931 . S
C3201 C3200 1.391 . S
C3201 C3205 1.376 . S
C3202 C3200 1.394 . S
C3202 C3203 1.369 . S
C3202 C3206 1.531 . S
C3203 C3202 1.369 . S
C3203 C3204 1.410 . S
C3203 C3211 1.503 . S
C3204 C3203 1.410 . S
C3204 C3205 1.392 . S
C3204 C3207 1.511 . S
C3205 C3201 1.376 . S
C3205 C3204 1.392 . S
C3205 H3217 0.929 . S
C3206 C3202 1.531 . S
C3206 H3218 0.960 . S
C3206 H3219 0.962 . S
C3206 H3220 0.960 . S
C3207 C3204 1.511 . S
C3207 H3221 0.961 . S
C3207 H3222 0.961 . S
C3207 H3223 0.961 . S
C3208 C3209 1.370 . S
C3208 C3210 1.363 . S
C3208 H3224 0.931 . S
C3209 C3208 1.370 . S
C3209 C3213 1.408 . S
C3210 C3208 1.363 . S
C3210 C3211 1.370 . S
C3210 C3214 1.524 . S
C3211 C3203 1.503 . S
C3211 C3210 1.370 . S
C3211 C3212 1.403 . S
C3212 C3211 1.403 . S
C3212 C3213 1.404 . S
C3212 C3215 1.539 . S
C3213 C3209 1.408 . S
C3213 C3212 1.404 . S
C3213 H3225 0.930 . S
C3214 C3210 1.524 . S
C3214 H3226 0.956 . S
C3214 H3227 0.961 . S
C3214 H3228 0.961 . S
C3215 C3212 1.539 . S
C3215 H3229 0.958 . S
C3215 H3230 0.961 . S
C3215 H3231 0.960 . S
H3216 C3200 0.931 . S
H3217 C3205 0.929 . S
H3218 C3206 0.960 . S
H3219 C3206 0.962 . S
H3220 C3206 0.960 . S
H3221 C3207 0.961 . S
H3222 C3207 0.961 . S
H3223 C3207 0.961 . S
H3224 C3208 0.931 . S
H3225 C3213 0.930 . S
H3226 C3214 0.956 . S
H3227 C3214 0.961 . S
H3228 C3214 0.961 . S
H3229 C3215 0.958 . S
H3230 C3215 0.961 . S
H3231 C3215 0.960 . S
C3232 C3233 1.391 . S
C3232 C3234 1.394 . S
C3232 H3248 0.931 . S
C3233 C3232 1.391 . S
C3233 C3237 1.376 . S
C3234 C3232 1.394 . S
C3234 C3235 1.369 . S
C3234 C3238 1.531 . S
C3235 C3234 1.369 . S
C3235 C3236 1.410 . S
C3235 C3243 1.503 . S
C3236 C3235 1.410 . S
C3236 C3237 1.392 . S
C3236 C3239 1.511 . S
C3237 C3233 1.376 . S
C3237 C3236 1.392 . S
C3237 H3249 0.929 . S
C3238 C3234 1.531 . S
C3238 H3250 0.960 . S
C3238 H3251 0.962 . S
C3238 H3252 0.960 . S
C3239 C3236 1.511 . S
C3239 H3253 0.961 . S
C3239 H3254 0.961 . S
C3239 H3255 0.961 . S
C3240 C3241 1.370 . S
C3240 C3242 1.363 . S
C3240 H3256 0.931 . S
C3241 C3240 1.370 . S
C3241 C3245 1.408 . S
C3242 C3240 1.363 . S
C3242 C3243 1.370 . S
C3242 C3246 1.524 . S
C3243 C3235 1.503 . S
C3243 C3242 1.370 . S
C3243 C3244 1.403 . S
C3244 C3243 1.403 . S
C3244 C3245 1.404 . S
C3244 C3247 1.539 . S
C3245 C3241 1.408 . S
C3245 C3244 1.404 . S
C3245 H3257 0.930 . S
C3246 C3242 1.524 . S
C3246 H3258 0.956 . S
C3246 H3259 0.961 . S
C3246 H3260 0.961 . S
C3247 C3244 1.539 . S
C3247 H3261 0.958 . S
C3247 H3262 0.961 . S
C3247 H3263 0.960 . S
H3248 C3232 0.931 . S
H3249 C3237 0.929 . S
H3250 C3238 0.960 . S
H3251 C3238 0.962 . S
H3252 C3238 0.960 . S
H3253 C3239 0.961 . S
H3254 C3239 0.961 . S
H3255 C3239 0.961 . S
H3256 C3240 0.931 . S
H3257 C3245 0.930 . S
H3258 C3246 0.956 . S
H3259 C3246 0.961 . S
H3260 C3246 0.961 . S
H3261 C3247 0.958 . S
H3262 C3247 0.961 . S
H3263 C3247 0.960 . S
C3264 C3265 1.391 . S
C3264 C3266 1.394 . S
C3264 H3280 0.931 . S
C3265 C3264 1.391 . S
C3265 C3269 1.376 . S
C3266 C3264 1.394 . S
C3266 C3267 1.369 . S
C3266 C3270 1.531 . S
C3267 C3266 1.369 . S
C3267 C3268 1.410 . S
C3267 C3275 1.503 . S
C3268 C3267 1.410 . S
C3268 C3269 1.392 . S
C3268 C3271 1.511 . S
C3269 C3265 1.376 . S
C3269 C3268 1.392 . S
C3269 H3281 0.929 . S
C3270 C3266 1.531 . S
C3270 H3282 0.960 . S
C3270 H3283 0.962 . S
C3270 H3284 0.960 . S
C3271 C3268 1.511 . S
C3271 H3285 0.961 . S
C3271 H3286 0.961 . S
C3271 H3287 0.961 . S
C3272 C3273 1.370 . S
C3272 C3274 1.363 . S
C3272 H3288 0.931 . S
C3273 C3272 1.370 . S
C3273 C3277 1.408 . S
C3274 C3272 1.363 . S
C3274 C3275 1.370 . S
C3274 C3278 1.524 . S
C3275 C3267 1.503 . S
C3275 C3274 1.370 . S
C3275 C3276 1.403 . S
C3276 C3275 1.403 . S
C3276 C3277 1.404 . S
C3276 C3279 1.539 . S
C3277 C3273 1.408 . S
C3277 C3276 1.404 . S
C3277 H3289 0.930 . S
C3278 C3274 1.524 . S
C3278 H3290 0.956 . S
C3278 H3291 0.961 . S
C3278 H3292 0.961 . S
C3279 C3276 1.539 . S
C3279 H3293 0.958 . S
C3279 H3294 0.961 . S
C3279 H3295 0.960 . S
H3280 C3264 0.931 . S
H3281 C3269 0.929 . S
H3282 C3270 0.960 . S
H3283 C3270 0.962 . S
H3284 C3270 0.960 . S
H3285 C3271 0.961 . S
H3286 C3271 0.961 . S
H3287 C3271 0.961 . S
H3288 C3272 0.931 . S
H3289 C3277 0.930 . S
H3290 C3278 0.956 . S
H3291 C3278 0.961 . S
H3292 C3278 0.961 . S
H3293 C3279 0.958 . S
H3294 C3279 0.961 . S
H3295 C3279 0.960 . S
C3296 C3297 1.391 . S
C3296 C3298 1.394 . S
C3296 H3312 0.931 . S
C3297 C3296 1.391 . S
C3297 C3301 1.376 . S
C3298 C3296 1.394 . S
C3298 C3299 1.369 . S
C3298 C3302 1.531 . S
C3299 C3298 1.369 . S
C3299 C3300 1.410 . S
C3299 C3307 1.503 . S
C3300 C3299 1.410 . S
C3300 C3301 1.392 . S
C3300 C3303 1.511 . S
C3301 C3297 1.376 . S
C3301 C3300 1.392 . S
C3301 H3313 0.929 . S
C3302 C3298 1.531 . S
C3302 H3314 0.960 . S
C3302 H3315 0.962 . S
C3302 H3316 0.960 . S
C3303 C3300 1.511 . S
C3303 H3317 0.961 . S
C3303 H3318 0.961 . S
C3303 H3319 0.961 . S
C3304 C3305 1.370 . S
C3304 C3306 1.363 . S
C3304 H3320 0.931 . S
C3305 C3304 1.370 . S
C3305 C3309 1.408 . S
C3306 C3304 1.363 . S
C3306 C3307 1.370 . S
C3306 C3310 1.524 . S
C3307 C3299 1.503 . S
C3307 C3306 1.370 . S
C3307 C3308 1.403 . S
C3308 C3307 1.403 . S
C3308 C3309 1.404 . S
C3308 C3311 1.539 . S
C3309 C3305 1.408 . S
C3309 C3308 1.404 . S
C3309 H3321 0.930 . S
C3310 C3306 1.524 . S
C3310 H3322 0.956 . S
C3310 H3323 0.961 . S
C3310 H3324 0.961 . S
C3311 C3308 1.539 . S
C3311 H3325 0.958 . S
C3311 H3326 0.961 . S
C3311 H3327 0.960 . S
H3312 C3296 0.931 . S
H3313 C3301 0.929 . S
H3314 C3302 0.960 . S
H3315 C3302 0.962 . S
H3316 C3302 0.960 . S
H3317 C3303 0.961 . S
H3318 C3303 0.961 . S
H3319 C3303 0.961 . S
H3320 C3304 0.931 . S
H3321 C3309 0.930 . S
H3322 C3310 0.956 . S
H3323 C3310 0.961 . S
H3324 C3310 0.961 . S
H3325 C3311 0.958 . S
H3326 C3311 0.961 . S
H3327 C3311 0.960 . S
C3328 C3329 1.391 . S
C3328 C3330 1.394 . S
C3328 H3344 0.931 . S
C3329 C3328 1.391 . S
C3329 C3333 1.376 . S
C3330 C3328 1.394 . S
C3330 C3331 1.369 . S
C3330 C3334 1.531 . S
C3331 C3330 1.369 . S
C3331 C3332 1.410 . S
C3331 C3339 1.503 . S
C3332 C3331 1.410 . S
C3332 C3333 1.392 . S
C3332 C3335 1.511 . S
C3333 C3329 1.376 . S
C3333 C3332 1.392 . S
C3333 H3345 0.929 . S
C3334 C3330 1.531 . S
C3334 H3346 0.960 . S
C3334 H3347 0.962 . S
C3334 H3348 0.960 . S
C3335 C3332 1.511 . S
C3335 H3349 0.961 . S
C3335 H3350 0.961 . S
C3335 H3351 0.961 . S
C3336 C3337 1.370 . S
C3336 C3338 1.363 . S
C3336 H3352 0.931 . S
C3337 C3336 1.370 . S
C3337 C3341 1.408 . S
C3338 C3336 1.363 . S
C3338 C3339 1.370 . S
C3338 C3342 1.524 . S
C3339 C3331 1.503 . S
C3339 C3338 1.370 . S
C3339 C3340 1.403 . S
C3340 C3339 1.403 . S
C3340 C3341 1.404 . S
C3340 C3343 1.539 . S
C3341 C3337 1.408 . S
C3341 C3340 1.404 . S
C3341 H3353 0.930 . S
C3342 C3338 1.524 . S
C3342 H3354 0.956 . S
C3342 H3355 0.961 . S
C3342 H3356 0.961 . S
C3343 C3340 1.539 . S
C3343 H3357 0.958 . S
C3343 H3358 0.961 . S
C3343 H3359 0.960 . S
H3344 C3328 0.931 . S
H3345 C3333 0.929 . S
H3346 C3334 0.960 . S
H3347 C3334 0.962 . S
H3348 C3334 0.960 . S
H3349 C3335 0.961 . S
H3350 C3335 0.961 . S
H3351 C3335 0.961 . S
H3352 C3336 0.931 . S
H3353 C3341 0.930 . S
H3354 C3342 0.956 . S
H3355 C3342 0.961 . S
H3356 C3342 0.961 . S
H3357 C3343 0.958 . S
H3358 C3343 0.961 . S
H3359 C3343 0.960 . S
C3360 C3361 1.391 . S
C3360 C3362 1.394 . S
C3360 H3376 0.931 . S
C3361 C3360 1.391 . S
C3361 C3365 1.376 . S
C3362 C3360 1.394 . S
C3362 C3363 1.369 . S
C3362 C3366 1.531 . S
C3363 C3362 1.369 . S
C3363 C3364 1.410 . S
C3363 C3371 1.503 . S
C3364 C3363 1.410 . S
C3364 C3365 1.392 . S
C3364 C3367 1.511 . S
C3365 C3361 1.376 . S
C3365 C3364 1.392 . S
C3365 H3377 0.929 . S
C3366 C3362 1.531 . S
C3366 H3378 0.960 . S
C3366 H3379 0.962 . S
C3366 H3380 0.960 . S
C3367 C3364 1.511 . S
C3367 H3381 0.961 . S
C3367 H3382 0.961 . S
C3367 H3383 0.961 . S
C3368 C3369 1.370 . S
C3368 C3370 1.363 . S
C3368 H3384 0.931 . S
C3369 C3368 1.370 . S
C3369 C3373 1.408 . S
C3370 C3368 1.363 . S
C3370 C3371 1.370 . S
C3370 C3374 1.524 . S
C3371 C3363 1.503 . S
C3371 C3370 1.370 . S
C3371 C3372 1.403 . S
C3372 C3371 1.403 . S
C3372 C3373 1.404 . S
C3372 C3375 1.539 . S
C3373 C3369 1.408 . S
C3373 C3372 1.404 . S
C3373 H3385 0.930 . S
C3374 C3370 1.524 . S
C3374 H3386 0.956 . S
C3374 H3387 0.961 . S
C3374 H3388 0.961 . S
C3375 C3372 1.539 . S
C3375 H3389 0.958 . S
C3375 H3390 0.961 . S
C3375 H3391 0.960 . S
H3376 C3360 0.931 . S
H3377 C3365 0.929 . S
H3378 C3366 0.960 . S
H3379 C3366 0.962 . S
H3380 C3366 0.960 . S
H3381 C3367 0.961 . S
H3382 C3367 0.961 . S
H3383 C3367 0.961 . S
H3384 C3368 0.931 . S
H3385 C3373 0.930 . S
H3386 C3374 0.956 . S
H3387 C3374 0.961 . S
H3388 C3374 0.961 . S
H3389 C3375 0.958 . S
H3390 C3375 0.961 . S
H3391 C3375 0.960 . S
C3392 C3393 1.391 . S
C3392 C3394 1.394 . S
C3392 H3408 0.931 . S
C3393 C3392 1.391 . S
C3393 C3397 1.376 . S
C3394 C3392 1.394 . S
C3394 C3395 1.369 . S
C3394 C3398 1.531 . S
C3395 C3394 1.369 . S
C3395 C3396 1.410 . S
C3395 C3403 1.503 . S
C3396 C3395 1.410 . S
C3396 C3397 1.392 . S
C3396 C3399 1.511 . S
C3397 C3393 1.376 . S
C3397 C3396 1.392 . S
C3397 H3409 0.929 . S
C3398 C3394 1.531 . S
C3398 H3410 0.960 . S
C3398 H3411 0.962 . S
C3398 H3412 0.960 . S
C3399 C3396 1.511 . S
C3399 H3413 0.961 . S
C3399 H3414 0.961 . S
C3399 H3415 0.961 . S
C3400 C3401 1.370 . S
C3400 C3402 1.363 . S
C3400 H3416 0.931 . S
C3401 C3400 1.370 . S
C3401 C3405 1.408 . S
C3402 C3400 1.363 . S
C3402 C3403 1.370 . S
C3402 C3406 1.524 . S
C3403 C3395 1.503 . S
C3403 C3402 1.370 . S
C3403 C3404 1.403 . S
C3404 C3403 1.403 . S
C3404 C3405 1.404 . S
C3404 C3407 1.539 . S
C3405 C3401 1.408 . S
C3405 C3404 1.404 . S
C3405 H3417 0.930 . S
C3406 C3402 1.524 . S
C3406 H3418 0.956 . S
C3406 H3419 0.961 . S
C3406 H3420 0.961 . S
C3407 C3404 1.539 . S
C3407 H3421 0.958 . S
C3407 H3422 0.961 . S
C3407 H3423 0.960 . S
H3408 C3392 0.931 . S
H3409 C3397 0.929 . S
H3410 C3398 0.960 . S
H3411 C3398 0.962 . S
H3412 C3398 0.960 . S
H3413 C3399 0.961 . S
H3414 C3399 0.961 . S
H3415 C3399 0.961 . S
H3416 C3400 0.931 . S
H3417 C3405 0.930 . S
H3418 C3406 0.956 . S
H3419 C3406 0.961 . S
H3420 C3406 0.961 . S
H3421 C3407 0.958 . S
H3422 C3407 0.961 . S
H3423 C3407 0.960 . S
C3424 C3425 1.391 . S
C3424 C3426 1.394 . S
C3424 H3440 0.931 . S
C3425 C3424 1.391 . S
C3425 C3429 1.376 . S
C3426 C3424 1.394 . S
C3426 C3427 1.369 . S
C3426 C3430 1.531 . S
C3427 C3426 1.369 . S
C3427 C3428 1.410 . S
C3427 C3435 1.503 . S
C3428 C3427 1.410 . S
C3428 C3429 1.392 . S
C3428 C3431 1.511 . S
C3429 C3425 1.376 . S
C3429 C3428 1.392 . S
C3429 H3441 0.929 . S
C3430 C3426 1.531 . S
C3430 H3442 0.960 . S
C3430 H3443 0.962 . S
C3430 H3444 0.960 . S
C3431 C3428 1.511 . S
C3431 H3445 0.961 . S
C3431 H3446 0.961 . S
C3431 H3447 0.961 . S
C3432 C3433 1.370 . S
C3432 C3434 1.363 . S
C3432 H3448 0.931 . S
C3433 C3432 1.370 . S
C3433 C3437 1.408 . S
C3434 C3432 1.363 . S
C3434 C3435 1.370 . S
C3434 C3438 1.524 . S
C3435 C3427 1.503 . S
C3435 C3434 1.370 . S
C3435 C3436 1.403 . S
C3436 C3435 1.403 . S
C3436 C3437 1.404 . S
C3436 C3439 1.539 . S
C3437 C3433 1.408 . S
C3437 C3436 1.404 . S
C3437 H3449 0.930 . S
C3438 C3434 1.524 . S
C3438 H3450 0.956 . S
C3438 H3451 0.961 . S
C3438 H3452 0.961 . S
C3439 C3436 1.539 . S
C3439 H3453 0.958 . S
C3439 H3454 0.961 . S
C3439 H3455 0.960 . S
H3440 C3424 0.931 . S
H3441 C3429 0.929 . S
H3442 C3430 0.960 . S
H3443 C3430 0.962 . S
H3444 C3430 0.960 . S
H3445 C3431 0.961 . S
H3446 C3431 0.961 . S
H3447 C3431 0.961 . S
H3448 C3432 0.931 . S
H3449 C3437 0.930 . S
H3450 C3438 0.956 . S
H3451 C3438 0.961 . S
H3452 C3438 0.961 . S
H3453 C3439 0.958 . S
H3454 C3439 0.961 . S
H3455 C3439 0.960 . S
C3456 C3457 1.391 . S
C3456 C3458 1.394 . S
C3456 H3472 0.931 . S
C3457 C3456 1.391 . S
C3457 C3461 1.376 . S
C3458 C3456 1.394 . S
C3458 C3459 1.369 . S
C3458 C3462 1.531 . S
C3459 C3458 1.369 . S
C3459 C3460 1.410 . S
C3459 C3467 1.503 . S
C3460 C3459 1.410 . S
C3460 C3461 1.392 . S
C3460 C3463 1.511 . S
C3461 C3457 1.376 . S
C3461 C3460 1.392 . S
C3461 H3473 0.929 . S
C3462 C3458 1.531 . S
C3462 H3474 0.960 . S
C3462 H3475 0.962 . S
C3462 H3476 0.960 . S
C3463 C3460 1.511 . S
C3463 H3477 0.961 . S
C3463 H3478 0.961 . S
C3463 H3479 0.961 . S
C3464 C3465 1.370 . S
C3464 C3466 1.363 . S
C3464 H3480 0.931 . S
C3465 C3464 1.370 . S
C3465 C3469 1.408 . S
C3466 C3464 1.363 . S
C3466 C3467 1.370 . S
C3466 C3470 1.524 . S
C3467 C3459 1.503 . S
C3467 C3466 1.370 . S
C3467 C3468 1.403 . S
C3468 C3467 1.403 . S
C3468 C3469 1.404 . S
C3468 C3471 1.539 . S
C3469 C3465 1.408 . S
C3469 C3468 1.404 . S
C3469 H3481 0.930 . S
C3470 C3466 1.524 . S
C3470 H3482 0.956 . S
C3470 H3483 0.961 . S
C3470 H3484 0.961 . S
C3471 C3468 1.539 . S
C3471 H3485 0.958 . S
C3471 H3486 0.961 . S
C3471 H3487 0.960 . S
H3472 C3456 0.931 . S
H3473 C3461 0.929 . S
H3474 C3462 0.960 . S
H3475 C3462 0.962 . S
H3476 C3462 0.960 . S
H3477 C3463 0.961 . S
H3478 C3463 0.961 . S
H3479 C3463 0.961 . S
H3480 C3464 0.931 . S
H3481 C3469 0.930 . S
H3482 C3470 0.956 . S
H3483 C3470 0.961 . S
H3484 C3470 0.961 . S
H3485 C3471 0.958 . S
H3486 C3471 0.961 . S
H3487 C3471 0.960 . S
C3488 C3489 1.391 . S
C3488 C3490 1.394 . S
C3488 H3504 0.931 . S
C3489 C3488 1.391 . S
C3489 C3493 1.376 . S
C3490 C3488 1.394 . S
C3490 C3491 1.369 . S
C3490 C3494 1.531 . S
C3491 C3490 1.369 . S
C3491 C3492 1.410 . S
C3491 C3499 1.503 . S
C3492 C3491 1.410 . S
C3492 C3493 1.392 . S
C3492 C3495 1.511 . S
C3493 C3489 1.376 . S
C3493 C3492 1.392 . S
C3493 H3505 0.929 . S
C3494 C3490 1.531 . S
C3494 H3506 0.960 . S
C3494 H3507 0.962 . S
C3494 H3508 0.960 . S
C3495 C3492 1.511 . S
C3495 H3509 0.961 . S
C3495 H3510 0.961 . S
C3495 H3511 0.961 . S
C3496 C3497 1.370 . S
C3496 C3498 1.363 . S
C3496 H3512 0.931 . S
C3497 C3496 1.370 . S
C3497 C3501 1.408 . S
C3498 C3496 1.363 . S
C3498 C3499 1.370 . S
C3498 C3502 1.524 . S
C3499 C3491 1.503 . S
C3499 C3498 1.370 . S
C3499 C3500 1.403 . S
C3500 C3499 1.403 . S
C3500 C3501 1.404 . S
C3500 C3503 1.539 . S
C3501 C3497 1.408 . S
C3501 C3500 1.404 . S
C3501 H3513 0.930 . S
C3502 C3498 1.524 . S
C3502 H3514 0.956 . S
C3502 H3515 0.961 . S
C3502 H3516 0.961 . S
C3503 C3500 1.539 . S
C3503 H3517 0.958 . S
C3503 H3518 0.961 . S
C3503 H3519 0.960 . S
H3504 C3488 0.931 . S
H3505 C3493 0.929 . S
H3506 C3494 0.960 . S
H3507 C3494 0.962 . S
H3508 C3494 0.960 . S
H3509 C3495 0.961 . S
H3510 C3495 0.961 . S
H3511 C3495 0.961 . S
H3512 C3496 0.931 . S
H3513 C3501 0.930 . S
H3514 C3502 0.956 . S
H3515 C3502 0.961 . S
H3516 C3502 0.961 . S
H3517 C3503 0.958 . S
H3518 C3503 0.961 . S
H3519 C3503 0.960 . S
C3520 C3521 1.391 . S
C3520 C3522 1.394 . S
C3520 H3536 0.931 . S
C3521 C3520 1.391 . S
C3521 C3525 1.376 . S
C3522 C3520 1.394 . S
C3522 C3523 1.369 . S
C3522 C3526 1.531 . S
C3523 C3522 1.369 . S
C3523 C3524 1.410 . S
C3523 C3531 1.503 . S
C3524 C3523 1.410 . S
C3524 C3525 1.392 . S
C3524 C3527 1.511 . S
C3525 C3521 1.376 . S
C3525 C3524 1.392 . S
C3525 H3537 0.929 . S
C3526 C3522 1.531 . S
C3526 H3538 0.960 . S
C3526 H3539 0.962 . S
C3526 H3540 0.960 . S
C3527 C3524 1.511 . S
C3527 H3541 0.961 . S
C3527 H3542 0.961 . S
C3527 H3543 0.961 . S
C3528 C3529 1.370 . S
C3528 C3530 1.363 . S
C3528 H3544 0.931 . S
C3529 C3528 1.370 . S
C3529 C3533 1.408 . S
C3530 C3528 1.363 . S
C3530 C3531 1.370 . S
C3530 C3534 1.524 . S
C3531 C3523 1.503 . S
C3531 C3530 1.370 . S
C3531 C3532 1.403 . S
C3532 C3531 1.403 . S
C3532 C3533 1.404 . S
C3532 C3535 1.539 . S
C3533 C3529 1.408 . S
C3533 C3532 1.404 . S
C3533 H3545 0.930 . S
C3534 C3530 1.524 . S
C3534 H3546 0.956 . S
C3534 H3547 0.961 . S
C3534 H3548 0.961 . S
C3535 C3532 1.539 . S
C3535 H3549 0.958 . S
C3535 H3550 0.961 . S
C3535 H3551 0.960 . S
H3536 C3520 0.931 . S
H3537 C3525 0.929 . S
H3538 C3526 0.960 . S
H3539 C3526 0.962 . S
H3540 C3526 0.960 . S
H3541 C3527 0.961 . S
H3542 C3527 0.961 . S
H3543 C3527 0.961 . S
H3544 C3528 0.931 . S
H3545 C3533 0.930 . S
H3546 C3534 0.956 . S
H3547 C3534 0.961 . S
H3548 C3534 0.961 . S
H3549 C3535 0.958 . S
H3550 C3535 0.961 . S
H3551 C3535 0.960 . S
C3552 C3553 1.391 . S
C3552 C3554 1.394 . S
C3552 H3568 0.931 . S
C3553 C3552 1.391 . S
C3553 C3557 1.376 . S
C3554 C3552 1.394 . S
C3554 C3555 1.369 . S
C3554 C3558 1.531 . S
C3555 C3554 1.369 . S
C3555 C3556 1.410 . S
C3555 C3563 1.503 . S
C3556 C3555 1.410 . S
C3556 C3557 1.392 . S
C3556 C3559 1.511 . S
C3557 C3553 1.376 . S
C3557 C3556 1.392 . S
C3557 H3569 0.929 . S
C3558 C3554 1.531 . S
C3558 H3570 0.960 . S
C3558 H3571 0.962 . S
C3558 H3572 0.960 . S
C3559 C3556 1.511 . S
C3559 H3573 0.961 . S
C3559 H3574 0.961 . S
C3559 H3575 0.961 . S
C3560 C3561 1.370 . S
C3560 C3562 1.363 . S
C3560 H3576 0.931 . S
C3561 C3560 1.370 . S
C3561 C3565 1.408 . S
C3562 C3560 1.363 . S
C3562 C3563 1.370 . S
C3562 C3566 1.524 . S
C3563 C3555 1.503 . S
C3563 C3562 1.370 . S
C3563 C3564 1.403 . S
C3564 C3563 1.403 . S
C3564 C3565 1.404 . S
C3564 C3567 1.539 . S
C3565 C3561 1.408 . S
C3565 C3564 1.404 . S
C3565 H3577 0.930 . S
C3566 C3562 1.524 . S
C3566 H3578 0.956 . S
C3566 H3579 0.961 . S
C3566 H3580 0.961 . S
C3567 C3564 1.539 . S
C3567 H3581 0.958 . S
C3567 H3582 0.961 . S
C3567 H3583 0.960 . S
H3568 C3552 0.931 . S
H3569 C3557 0.929 . S
H3570 C3558 0.960 . S
H3571 C3558 0.962 . S
H3572 C3558 0.960 . S
H3573 C3559 0.961 . S
H3574 C3559 0.961 . S
H3575 C3559 0.961 . S
H3576 C3560 0.931 . S
H3577 C3565 0.930 . S
H3578 C3566 0.956 . S
H3579 C3566 0.961 . S
H3580 C3566 0.961 . S
H3581 C3567 0.958 . S
H3582 C3567 0.961 . S
H3583 C3567 0.960 . S
C3584 C3585 1.391 . S
C3584 C3586 1.394 . S
C3584 H3600 0.931 . S
C3585 C3584 1.391 . S
C3585 C3589 1.376 . S
C3586 C3584 1.394 . S
C3586 C3587 1.369 . S
C3586 C3590 1.531 . S
C3587 C3586 1.369 . S
C3587 C3588 1.410 . S
C3587 C3595 1.503 . S
C3588 C3587 1.410 . S
C3588 C3589 1.392 . S
C3588 C3591 1.511 . S
C3589 C3585 1.376 . S
C3589 C3588 1.392 . S
C3589 H3601 0.929 . S
C3590 C3586 1.531 . S
C3590 H3602 0.960 . S
C3590 H3603 0.962 . S
C3590 H3604 0.960 . S
C3591 C3588 1.511 . S
C3591 H3605 0.961 . S
C3591 H3606 0.961 . S
C3591 H3607 0.961 . S
C3592 C3593 1.370 . S
C3592 C3594 1.363 . S
C3592 H3608 0.931 . S
C3593 C3592 1.370 . S
C3593 C3597 1.408 . S
C3594 C3592 1.363 . S
C3594 C3595 1.370 . S
C3594 C3598 1.524 . S
C3595 C3587 1.503 . S
C3595 C3594 1.370 . S
C3595 C3596 1.403 . S
C3596 C3595 1.403 . S
C3596 C3597 1.404 . S
C3596 C3599 1.539 . S
C3597 C3593 1.408 . S
C3597 C3596 1.404 . S
C3597 H3609 0.930 . S
C3598 C3594 1.524 . S
C3598 H3610 0.956 . S
C3598 H3611 0.961 . S
C3598 H3612 0.961 . S
C3599 C3596 1.539 . S
C3599 H3613 0.958 . S
C3599 H3614 0.961 . S
C3599 H3615 0.960 . S
H3600 C3584 0.931 . S
H3601 C3589 0.929 . S
H3602 C3590 0.960 . S
H3603 C3590 0.962 . S
H3604 C3590 0.960 . S
H3605 C3591 0.961 . S
H3606 C3591 0.961 . S
H3607 C3591 0.961 . S
H3608 C3592 0.931 . S
H3609 C3597 0.930 . S
H3610 C3598 0.956 . S
H3611 C3598 0.961 . S
H3612 C3598 0.961 . S
H3613 C3599 0.958 . S
H3614 C3599 0.961 . S
H3615 C3599 0.960 . S
C3616 C3617 1.391 . S
C3616 C3618 1.394 . S
C3616 H3632 0.931 . S
C3617 C3616 1.391 . S
C3617 C3621 1.376 . S
C3618 C3616 1.394 . S
C3618 C3619 1.369 . S
C3618 C3622 1.531 . S
C3619 C3618 1.369 . S
C3619 C3620 1.410 . S
C3619 C3627 1.503 . S
C3620 C3619 1.410 . S
C3620 C3621 1.392 . S
C3620 C3623 1.511 . S
C3621 C3617 1.376 . S
C3621 C3620 1.392 . S
C3621 H3633 0.929 . S
C3622 C3618 1.531 . S
C3622 H3634 0.960 . S
C3622 H3635 0.962 . S
C3622 H3636 0.960 . S
C3623 C3620 1.511 . S
C3623 H3637 0.961 . S
C3623 H3638 0.961 . S
C3623 H3639 0.961 . S
C3624 C3625 1.370 . S
C3624 C3626 1.363 . S
C3624 H3640 0.931 . S
C3625 C3624 1.370 . S
C3625 C3629 1.408 . S
C3626 C3624 1.363 . S
C3626 C3627 1.370 . S
C3626 C3630 1.524 . S
C3627 C3619 1.503 . S
C3627 C3626 1.370 . S
C3627 C3628 1.403 . S
C3628 C3627 1.403 . S
C3628 C3629 1.404 . S
C3628 C3631 1.539 . S
C3629 C3625 1.408 . S
C3629 C3628 1.404 . S
C3629 H3641 0.930 . S
C3630 C3626 1.524 . S
C3630 H3642 0.956 . S
C3630 H3643 0.961 . S
C3630 H3644 0.961 . S
C3631 C3628 1.539 . S
C3631 H3645 0.958 . S
C3631 H3646 0.961 . S
C3631 H3647 0.960 . S
H3632 C3616 0.931 . S
H3633 C3621 0.929 . S
H3634 C3622 0.960 . S
H3635 C3622 0.962 . S
H3636 C3622 0.960 . S
H3637 C3623 0.961 . S
H3638 C3623 0.961 . S
H3639 C3623 0.961 . S
H3640 C3624 0.931 . S
H3641 C3629 0.930 . S
H3642 C3630 0.956 . S
H3643 C3630 0.961 . S
H3644 C3630 0.961 . S
H3645 C3631 0.958 . S
H3646 C3631 0.961 . S
H3647 C3631 0.960 . S
C3648 C3649 1.391 . S
C3648 C3650 1.394 . S
C3648 H3664 0.931 . S
C3649 C3648 1.391 . S
C3649 C3653 1.376 . S
C3650 C3648 1.394 . S
C3650 C3651 1.369 . S
C3650 C3654 1.531 . S
C3651 C3650 1.369 . S
C3651 C3652 1.410 . S
C3651 C3659 1.503 . S
C3652 C3651 1.410 . S
C3652 C3653 1.392 . S
C3652 C3655 1.511 . S
C3653 C3649 1.376 . S
C3653 C3652 1.392 . S
C3653 H3665 0.929 . S
C3654 C3650 1.531 . S
C3654 H3666 0.960 . S
C3654 H3667 0.962 . S
C3654 H3668 0.960 . S
C3655 C3652 1.511 . S
C3655 H3669 0.961 . S
C3655 H3670 0.961 . S
C3655 H3671 0.961 . S
C3656 C3657 1.370 . S
C3656 C3658 1.363 . S
C3656 H3672 0.931 . S
C3657 C3656 1.370 . S
C3657 C3661 1.408 . S
C3658 C3656 1.363 . S
C3658 C3659 1.370 . S
C3658 C3662 1.524 . S
C3659 C3651 1.503 . S
C3659 C3658 1.370 . S
C3659 C3660 1.403 . S
C3660 C3659 1.403 . S
C3660 C3661 1.404 . S
C3660 C3663 1.539 . S
C3661 C3657 1.408 . S
C3661 C3660 1.404 . S
C3661 H3673 0.930 . S
C3662 C3658 1.524 . S
C3662 H3674 0.956 . S
C3662 H3675 0.961 . S
C3662 H3676 0.961 . S
C3663 C3660 1.539 . S
C3663 H3677 0.958 . S
C3663 H3678 0.961 . S
C3663 H3679 0.960 . S
H3664 C3648 0.931 . S
H3665 C3653 0.929 . S
H3666 C3654 0.960 . S
H3667 C3654 0.962 . S
H3668 C3654 0.960 . S
H3669 C3655 0.961 . S
H3670 C3655 0.961 . S
H3671 C3655 0.961 . S
H3672 C3656 0.931 . S
H3673 C3661 0.930 . S
H3674 C3662 0.956 . S
H3675 C3662 0.961 . S
H3676 C3662 0.961 . S
H3677 C3663 0.958 . S
H3678 C3663 0.961 . S
H3679 C3663 0.960 . S
C3680 C3681 1.391 . S
C3680 C3682 1.394 . S
C3680 H3696 0.931 . S
C3681 C3680 1.391 . S
C3681 C3685 1.376 . S
C3682 C3680 1.394 . S
C3682 C3683 1.369 . S
C3682 C3686 1.531 . S
C3683 C3682 1.369 . S
C3683 C3684 1.410 . S
C3683 C3691 1.503 . S
C3684 C3683 1.410 . S
C3684 C3685 1.392 . S
C3684 C3687 1.511 . S
C3685 C3681 1.376 . S
C3685 C3684 1.392 . S
C3685 H3697 0.929 . S
C3686 C3682 1.531 . S
C3686 H3698 0.960 . S
C3686 H3699 0.962 . S
C3686 H3700 0.960 . S
C3687 C3684 1.511 . S
C3687 H3701 0.961 . S
C3687 H3702 0.961 . S
C3687 H3703 0.961 . S
C3688 C3689 1.370 . S
C3688 C3690 1.363 . S
C3688 H3704 0.931 . S
C3689 C3688 1.370 . S
C3689 C3693 1.408 . S
C3690 C3688 1.363 . S
C3690 C3691 1.370 . S
C3690 C3694 1.524 . S
C3691 C3683 1.503 . S
C3691 C3690 1.370 . S
C3691 C3692 1.403 . S
C3692 C3691 1.403 . S
C3692 C3693 1.404 . S
C3692 C3695 1.539 . S
C3693 C3689 1.408 . S
C3693 C3692 1.404 . S
C3693 H3705 0.930 . S
C3694 C3690 1.524 . S
C3694 H3706 0.956 . S
C3694 H3707 0.961 . S
C3694 H3708 0.961 . S
C3695 C3692 1.539 . S
C3695 H3709 0.958 . S
C3695 H3710 0.961 . S
C3695 H3711 0.960 . S
H3696 C3680 0.931 . S
H3697 C3685 0.929 . S
H3698 C3686 0.960 . S
H3699 C3686 0.962 . S
H3700 C3686 0.960 . S
H3701 C3687 0.961 . S
H3702 C3687 0.961 . S
H3703 C3687 0.961 . S
H3704 C3688 0.931 . S
H3705 C3693 0.930 . S
H3706 C3694 0.956 . S
H3707 C3694 0.961 . S
H3708 C3694 0.961 . S
H3709 C3695 0.958 . S
H3710 C3695 0.961 . S
H3711 C3695 0.960 . S
C3712 C3713 1.391 . S
C3712 C3714 1.394 . S
C3712 H3728 0.931 . S
C3713 C3712 1.391 . S
C3713 C3717 1.376 . S
C3714 C3712 1.394 . S
C3714 C3715 1.369 . S
C3714 C3718 1.531 . S
C3715 C3714 1.369 . S
C3715 C3716 1.410 . S
C3715 C3723 1.503 . S
C3716 C3715 1.410 . S
C3716 C3717 1.392 . S
C3716 C3719 1.511 . S
C3717 C3713 1.376 . S
C3717 C3716 1.392 . S
C3717 H3729 0.929 . S
C3718 C3714 1.531 . S
C3718 H3730 0.960 . S
C3718 H3731 0.962 . S
C3718 H3732 0.960 . S
C3719 C3716 1.511 . S
C3719 H3733 0.961 . S
C3719 H3734 0.961 . S
C3719 H3735 0.961 . S
C3720 C3721 1.370 . S
C3720 C3722 1.363 . S
C3720 H3736 0.931 . S
C3721 C3720 1.370 . S
C3721 C3725 1.408 . S
C3722 C3720 1.363 . S
C3722 C3723 1.370 . S
C3722 C3726 1.524 . S
C3723 C3715 1.503 . S
C3723 C3722 1.370 . S
C3723 C3724 1.403 . S
C3724 C3723 1.403 . S
C3724 C3725 1.404 . S
C3724 C3727 1.539 . S
C3725 C3721 1.408 . S
C3725 C3724 1.404 . S
C3725 H3737 0.930 . S
C3726 C3722 1.524 . S
C3726 H3738 0.956 . S
C3726 H3739 0.961 . S
C3726 H3740 0.961 . S
C3727 C3724 1.539 . S
C3727 H3741 0.958 . S
C3727 H3742 0.961 . S
C3727 H3743 0.960 . S
H3728 C3712 0.931 . S
H3729 C3717 0.929 . S
H3730 C3718 0.960 . S
H3731 C3718 0.962 . S
H3732 C3718 0.960 . S
H3733 C3719 0.961 . S
H3734 C3719 0.961 . S
H3735 C3719 0.961 . S
H3736 C3720 0.931 . S
H3737 C3725 0.930 . S
H3738 C3726 0.956 . S
H3739 C3726 0.961 . S
H3740 C3726 0.961 . S
H3741 C3727 0.958 . S
H3742 C3727 0.961 . S
H3743 C3727 0.960 . S
C673 C137 1.542 . S
C681 C11 1.490 . S
C705 C151 1.549 . S
C713 C25 1.486 . S
C737 C165 1.524 . S
C745 C39 1.496 . S
C769 C53 1.487 . S
C777 C123 1.513 . S
C801 C221 1.550 . S
C809 C67 1.486 . S
C833 C81 1.509 . S
C841 C179 1.502 . S
C865 C193 1.461 . S
C873 C95 1.522 . S
C897 C207 1.461 . S
C905 C109 1.523 . S
C929 C235 1.520 . S
C937 C263 1.498 . S
C961 C249 1.533 . S
C969 C319 1.494 . S
C993 C277 1.525 . S
C1001 C333 1.495 . S
C1025 C291 1.547 . S
C1033 C305 1.486 . S
C1057 C347 1.531 . S
C1065 C473 1.495 . S
C1089 C487 1.535 . S
C1097 C361 1.493 . S
C1121 C375 1.521 . S
C1129 C501 1.497 . S
C1153 C389 1.532 . S
C1161 C459 1.493 . S
C1185 C557 1.548 . S
C1193 C403 1.487 . S
C1217 C515 1.505 . S
C1225 C417 1.504 . S
C1249 C529 1.480 . S
C1257 C431 1.516 . S
C1281 C543 1.478 . S
C1289 C445 1.515 . S
C1313 C571 1.549 . S
C1321 C599 1.486 . S
C1345 C585 1.519 . S
C1353 C655 1.498 . S
C1377 C613 1.481 . S
C1385 C669 1.516 . S
C1409 C641 1.537 . S
C1417 C627 1.491 . S
C1441 C120 0.922 . S
C1449 C7 1.023 . S
C1473 C134 0.927 . S
C1481 C21 1.026 . S
C1505 C35 1.039 . S
C1513 C148 0.956 . S
C1537 C49 1.005 . S
C1545 C162 0.893 . S
C1569 C63 1.006 . S
C1577 C176 0.895 . S
C1601 C77 1.014 . S
C1609 C190 0.903 . S
C1633 C91 1.025 . S
C1641 C204 0.938 . S
C1665 C218 0.958 . S
C1673 C105 1.026 . S
C1697 C119 1.022 . S
C1705 C232 0.918 . S
C1729 C330 0.869 . S
C1737 C133 1.021 . S
C1761 C147 1.034 . S
C1769 C302 0.952 . S
C1793 C161 1.029 . S
C1801 C316 0.945 . S
C1825 C175 1.007 . S
C1833 C246 0.897 . S
C1857 C189 1.013 . S
C1865 C260 0.901 . S
C1889 C203 1.030 . S
C1897 C274 0.934 . S
C1921 C288 0.991 . S
C1929 C217 1.031 . S
C1953 C8 0.920 . S
C1961 C231 1.023 . S
C1985 C245 1.011 . S
C1993 C64 0.897 . S
C2017 C259 1.008 . S
C2025 C78 0.902 . S
C2049 C273 1.038 . S
C2057 C92 0.959 . S
C2081 C106 0.988 . S
C2089 C287 1.029 . S
C2113 C301 1.027 . S
C2121 C36 0.941 . S
C2145 C315 1.005 . S
C2153 C50 0.892 . S
C2177 C22 0.853 . S
C2185 C329 1.019 . S
C2209 C456 0.855 . S
C2217 C343 1.018 . S
C2241 C357 1.011 . S
C2249 C470 0.898 . S
C2273 C371 1.037 . S
C2281 C484 0.957 . S
C2305 C498 0.862 . S
C2313 C385 1.020 . S
C2337 C512 0.960 . S
C2345 C399 1.029 . S
C2369 C413 1.006 . S
C2377 C526 0.891 . S
C2401 C540 1.002 . S
C2409 C427 1.032 . S
C2433 C554 0.985 . S
C2441 C441 1.031 . S
C2465 C455 1.006 . S
C2473 C568 0.895 . S
C2497 C469 1.034 . S
C2505 C666 0.953 . S
C2529 C483 1.037 . S
C2537 C638 0.958 . S
C2561 C652 0.955 . S
C2569 C497 1.029 . S
C2593 C511 1.007 . S
C2601 C582 0.897 . S
C2625 C525 1.011 . S
C2633 C596 0.897 . S
C2657 C610 0.983 . S
C2665 C539 1.029 . S
C2689 C624 0.916 . S
C2697 C553 1.022 . S
C2721 C567 1.020 . S
C2729 C344 0.914 . S
C2753 C581 1.036 . S
C2761 C400 0.956 . S
C2785 C414 0.973 . S
C2793 C595 1.028 . S
C2817 C609 1.010 . S
C2825 C428 0.896 . S
C2849 C623 1.037 . S
C2857 C442 0.951 . S
C2881 C372 0.959 . S
C2889 C637 1.029 . S
C2913 C651 1.020 . S
C2921 C386 0.913 . S
C2945 C358 0.863 . S
C2953 C665 1.020 . S
C2977 C447 1.238 . S
C2985 C13 1.238 . S
C3009 C27 1.230 . S
C3017 C405 1.235 . S
C3041 C419 1.221 . S
C3049 C41 1.232 . S
C3073 C433 1.213 . S
C3081 C55 1.230 . S
C3105 C69 1.289 . S
C3113 C363 1.273 . S
C3137 C377 1.197 . S
C3145 C83 1.226 . S
C3169 C391 1.187 . S
C3177 C97 1.229 . S
C3201 C111 1.310 . S
C3209 C349 1.276 . S
C3233 C629 1.288 . S
C3241 C125 1.260 . S
C3265 C139 1.272 . S
C3273 C587 1.267 . S
C3297 C153 1.303 . S
C3305 C601 1.276 . S
C3329 C615 1.252 . S
C3337 C167 1.260 . S
C3361 C671 1.301 . S
C3369 C181 1.267 . S
C3393 C643 1.238 . S
C3401 C195 1.238 . S
C3425 C209 1.310 . S
C3433 C657 1.276 . S
C3457 C573 1.310 . S
C3465 C223 1.275 . S
C3489 C237 1.266 . S
C3497 C559 1.250 . S
C3521 C475 1.209 . S
C3529 C251 1.228 . S
C3553 C265 1.303 . S
C3561 C489 1.269 . S
C3585 C503 1.197 . S
C3593 C279 1.235 . S
C3617 C461 1.184 . S
C3625 C293 1.226 . S
C3649 C307 1.310 . S
C3657 C531 1.275 . S
C3681 C545 1.210 . S
C3689 C321 1.242 . S
C3713 C517 1.231 . S
C3721 C335 1.236 . S
