# Generated by pormake.
# Topology vbp, (6)-cn, num edge types: 1
# Building blocks:
#     Node 0, Type 0, BuildingBlock: IZENUY_clean_sbu_0, # of connection points: 6
#     Node 1, Type 0, BuildingBlock: IZENUY_clean_sbu_0, # of connection points: 6
#     Node 2, Type 0, BuildingBlock: IZENUY_clean_sbu_0, # of connection points: 6
#     Node 3, Type 0, BuildingBlock: IZENUY_clean_sbu_0, # of connection points: 6
#     Node 4, Type 0, BuildingBlock: IZENUY_clean_sbu_0, # of connection points: 6
#     Node 5, Type 0, BuildingBlock: IZENUY_clean_sbu_0, # of connection points: 6
#     Node 6, Type 0, BuildingBlock: IZENUY_clean_sbu_0, # of connection points: 6
#     Node 7, Type 0, BuildingBlock: IZENUY_clean_sbu_0, # of connection points: 6
#     Node 8, Type 0, BuildingBlock: IZENUY_clean_sbu_0, # of connection points: 6
#     Node 9, Type 0, BuildingBlock: IZENUY_clean_sbu_0, # of connection points: 6
#     Node 10, Type 0, BuildingBlock: IZENUY_clean_sbu_0, # of connection points: 6
#     Node 11, Type 0, BuildingBlock: IZENUY_clean_sbu_0, # of connection points: 6
#     Node 12, Type 0, BuildingBlock: IZENUY_clean_sbu_0, # of connection points: 6
#     Node 13, Type 0, BuildingBlock: IZENUY_clean_sbu_0, # of connection points: 6
#     Node 14, Type 0, BuildingBlock: IZENUY_clean_sbu_0, # of connection points: 6
#     Node 15, Type 0, BuildingBlock: IZENUY_clean_sbu_0, # of connection points: 6
#     Edge 16, Type (0, 0), BuildingBlock: AJUNOK_clean_linker_0, # of connection points: 2
#     Edge 17, Type (0, 0), BuildingBlock: AJUNOK_clean_linker_0, # of connection points: 2
#     Edge 18, Type (0, 0), BuildingBlock: AJUNOK_clean_linker_0, # of connection points: 2
#     Edge 19, Type (0, 0), BuildingBlock: AJUNOK_clean_linker_0, # of connection points: 2
#     Edge 20, Type (0, 0), BuildingBlock: AJUNOK_clean_linker_0, # of connection points: 2
#     Edge 21, Type (0, 0), BuildingBlock: AJUNOK_clean_linker_0, # of connection points: 2
#     Edge 22, Type (0, 0), BuildingBlock: AJUNOK_clean_linker_0, # of connection points: 2
#     Edge 23, Type (0, 0), BuildingBlock: AJUNOK_clean_linker_0, # of connection points: 2
#     Edge 24, Type (0, 0), BuildingBlock: AJUNOK_clean_linker_0, # of connection points: 2
#     Edge 25, Type (0, 0), BuildingBlock: AJUNOK_clean_linker_0, # of connection points: 2
#     Edge 26, Type (0, 0), BuildingBlock: AJUNOK_clean_linker_0, # of connection points: 2
#     Edge 27, Type (0, 0), BuildingBlock: AJUNOK_clean_linker_0, # of connection points: 2
#     Edge 28, Type (0, 0), BuildingBlock: AJUNOK_clean_linker_0, # of connection points: 2
#     Edge 29, Type (0, 0), BuildingBlock: AJUNOK_clean_linker_0, # of connection points: 2
#     Edge 30, Type (0, 0), BuildingBlock: AJUNOK_clean_linker_0, # of connection points: 2
#     Edge 31, Type (0, 0), BuildingBlock: AJUNOK_clean_linker_0, # of connection points: 2
#     Edge 32, Type (0, 0), BuildingBlock: AJUNOK_clean_linker_0, # of connection points: 2
#     Edge 33, Type (0, 0), BuildingBlock: AJUNOK_clean_linker_0, # of connection points: 2
#     Edge 34, Type (0, 0), BuildingBlock: AJUNOK_clean_linker_0, # of connection points: 2
#     Edge 35, Type (0, 0), BuildingBlock: AJUNOK_clean_linker_0, # of connection points: 2
#     Edge 36, Type (0, 0), BuildingBlock: AJUNOK_clean_linker_0, # of connection points: 2
#     Edge 37, Type (0, 0), BuildingBlock: AJUNOK_clean_linker_0, # of connection points: 2
#     Edge 38, Type (0, 0), BuildingBlock: AJUNOK_clean_linker_0, # of connection points: 2
#     Edge 39, Type (0, 0), BuildingBlock: AJUNOK_clean_linker_0, # of connection points: 2
#     Edge 40, Type (0, 0), BuildingBlock: AJUNOK_clean_linker_0, # of connection points: 2
#     Edge 41, Type (0, 0), BuildingBlock: AJUNOK_clean_linker_0, # of connection points: 2
#     Edge 42, Type (0, 0), BuildingBlock: AJUNOK_clean_linker_0, # of connection points: 2
#     Edge 43, Type (0, 0), BuildingBlock: AJUNOK_clean_linker_0, # of connection points: 2
#     Edge 44, Type (0, 0), BuildingBlock: AJUNOK_clean_linker_0, # of connection points: 2
#     Edge 45, Type (0, 0), BuildingBlock: AJUNOK_clean_linker_0, # of connection points: 2
#     Edge 46, Type (0, 0), BuildingBlock: AJUNOK_clean_linker_0, # of connection points: 2
#     Edge 47, Type (0, 0), BuildingBlock: AJUNOK_clean_linker_0, # of connection points: 2
#     Edge 48, Type (0, 0), BuildingBlock: AJUNOK_clean_linker_0, # of connection points: 2
#     Edge 49, Type (0, 0), BuildingBlock: AJUNOK_clean_linker_0, # of connection points: 2
#     Edge 50, Type (0, 0), BuildingBlock: AJUNOK_clean_linker_0, # of connection points: 2
#     Edge 51, Type (0, 0), BuildingBlock: AJUNOK_clean_linker_0, # of connection points: 2
#     Edge 52, Type (0, 0), BuildingBlock: AJUNOK_clean_linker_0, # of connection points: 2
#     Edge 53, Type (0, 0), BuildingBlock: AJUNOK_clean_linker_0, # of connection points: 2
#     Edge 54, Type (0, 0), BuildingBlock: AJUNOK_clean_linker_0, # of connection points: 2
#     Edge 55, Type (0, 0), BuildingBlock: AJUNOK_clean_linker_0, # of connection points: 2
#     Edge 56, Type (0, 0), BuildingBlock: AJUNOK_clean_linker_0, # of connection points: 2
#     Edge 57, Type (0, 0), BuildingBlock: AJUNOK_clean_linker_0, # of connection points: 2
#     Edge 58, Type (0, 0), BuildingBlock: AJUNOK_clean_linker_0, # of connection points: 2
#     Edge 59, Type (0, 0), BuildingBlock: AJUNOK_clean_linker_0, # of connection points: 2
#     Edge 60, Type (0, 0), BuildingBlock: AJUNOK_clean_linker_0, # of connection points: 2
#     Edge 61, Type (0, 0), BuildingBlock: AJUNOK_clean_linker_0, # of connection points: 2
#     Edge 62, Type (0, 0), BuildingBlock: AJUNOK_clean_linker_0, # of connection points: 2
#     Edge 63, Type (0, 0), BuildingBlock: AJUNOK_clean_linker_0, # of connection points: 2
# Relax obj value: 0.269
# Max RMSD: 0.259
# Mean RMSD: 0.259
data_MOF--net-vbp--node1-IZENUY_clean_sbu_0--edge1-AJUNOK_clean_linker_0
_symmetry_space_group_name_H-M    P1
_symmetry_Int_Tables_number       1
_symmetry_cell_setting            triclinic
loop_
_symmetry_equiv_pos_as_xyz
'x, y, z'
_cell_length_a     21.34665
_cell_length_b     29.93273
_cell_length_c     38.719323
_cell_angle_alpha  89.958377
_cell_angle_beta   90.051477
_cell_angle_gamma 90.050466
loop_
_atom_site_label
_atom_site_type_symbol
_atom_site_fract_x
_atom_site_fract_y
_atom_site_fract_z
_atom_type_partial_charge
Fe0 Fe 0.32002 0.16863 0.17527 0.0
Fe1 Fe 0.42644 0.16414 0.12233 0.0
O2 O 0.37424 0.13715 0.15089 0.0
Fe3 Fe 0.37376 0.07815 0.15358 0.0
O4 O 0.29391 0.0759 0.13742 0.0
O5 O 0.25875 0.12548 0.17453 0.0
O6 O 0.28372 0.18963 0.13526 0.0
C7 C 0.31181 0.20462 0.10885 0.0
C8 C 0.35222 0.10387 0.22262 0.0
O9 O 0.37093 0.20806 0.10958 0.0
C10 C 0.49942 0.09553 0.15405 0.0
O11 O 0.37188 0.21869 0.17974 0.0
O12 O 0.46024 0.197 0.15641 0.0
O13 O 0.3466 0.07626 0.19817 0.0
O14 O 0.35201 0.14588 0.21637 0.0
C15 C 0.4081 0.0924 0.08354 0.0
O16 O 0.49051 0.12453 0.13058 0.0
O17 O 0.45367 0.07789 0.16985 0.0
C18 C 0.43074 0.22336 0.17557 0.0
O19 O 0.39621 0.13305 0.08622 0.0
O20 O 0.40303 0.06794 0.1099 0.0
C21 C 0.24872 0.09416 0.15317 0.0
Fe22 Fe 0.58045 0.45092 0.12474 0.0
Fe23 Fe 0.6386 0.53281 0.15995 0.0
O24 O 0.63436 0.47409 0.15442 0.0
Fe25 Fe 0.68671 0.43873 0.17695 0.0
O26 O 0.72122 0.41987 0.13543 0.0
O27 O 0.63181 0.40559 0.1108 0.0
O28 O 0.61246 0.48403 0.08985 0.0
C29 C 0.60494 0.52568 0.08937 0.0
C30 C 0.57236 0.38783 0.1752 0.0
O31 O 0.61281 0.54739 0.11676 0.0
C32 C 0.65774 0.50039 0.22746 0.0
O33 O 0.52008 0.49181 0.13375 0.0
O34 O 0.55749 0.53511 0.17497 0.0
O35 O 0.6315 0.39045 0.17925 0.0
O36 O 0.54423 0.41685 0.1576 0.0
C37 C 0.76257 0.51268 0.15955 0.0
O38 O 0.66402 0.53015 0.20472 0.0
O39 O 0.65666 0.45894 0.21927 0.0
C40 C 0.51177 0.52025 0.15737 0.0
O41 O 0.71892 0.53382 0.14474 0.0
O42 O 0.75074 0.47944 0.17862 0.0
C43 C 0.69071 0.40712 0.10901 0.0
Fe44 Fe 0.40984 1.03453 0.42253 0.0
Fe45 Fe 0.34038 0.94602 0.40736 0.0
O46 O 0.40171 0.97584 0.42791 0.0
Fe47 Fe 0.45648 0.94739 0.45471 0.0
O48 O 0.47057 0.99442 0.48177 0.0
O49 O 0.4002 1.04442 0.46834 0.0
O50 O 0.32696 1.04687 0.41731 0.0
C51 C 0.27807 1.02459 0.42277 0.0
C52 C 0.53463 1.00374 0.42023 0.0
O53 O 0.27963 0.9825 0.42443 0.0
C54 C 0.43878 0.8845 0.4028 0.0
O55 O 0.42016 1.02876 0.37691 0.0
O56 O 0.34464 0.98029 0.36636 0.0
O57 O 0.52195 0.96311 0.4266 0.0
O58 O 0.49474 1.03397 0.42596 0.0
C59 C 0.34298 0.91473 0.47838 0.0
O60 O 0.39586 0.90583 0.38728 0.0
O61 O 0.45231 0.89389 0.43339 0.0
C62 C 0.38068 1.01231 0.35651 0.0
O63 O 0.32457 0.91012 0.44683 0.0
O64 O 0.39569 0.93188 0.4847 0.0
C65 C 0.43546 1.02612 0.49016 0.0
Fe66 Fe 0.56639 0.66587 0.45432 0.0
Fe67 Fe 0.61013 0.57832 0.4217 0.0
O68 O 0.62006 0.6368 0.42728 0.0
Fe69 Fe 0.68227 0.6656 0.40676 0.0
O70 O 0.70029 0.7005 0.44658 0.0
O71 O 0.62769 0.68054 0.48409 0.0
O72 O 0.55217 0.61896 0.48147 0.0
C73 C 0.58623 0.58646 0.48945 0.0
C74 C 0.58552 0.72876 0.40241 0.0
O75 O 0.62104 0.56817 0.46741 0.0
C76 C 0.63647 0.60178 0.35547 0.0
O77 O 0.49995 0.65094 0.42668 0.0
O78 O 0.5255 0.57989 0.42593 0.0
O79 O 0.62822 0.70709 0.38708 0.0
O80 O 0.57114 0.71934 0.43288 0.0
C81 C 0.74212 0.58591 0.42083 0.0
O82 O 0.59819 0.58474 0.37628 0.0
O83 O 0.6756 0.63184 0.36554 0.0
C84 C 0.4857 0.61043 0.42113 0.0
O85 O 0.69238 0.56459 0.41545 0.0
O86 O 0.74185 0.62787 0.42331 0.0
C87 C 0.68143 0.69597 0.47808 0.0
Fe88 Fe 0.56354 0.94792 0.95751 0.0
Fe89 Fe 0.67979 0.93823 0.91163 0.0
O90 O 0.62037 0.9721 0.92991 0.0
Fe91 Fe 0.6164 1.03021 0.9211 0.0
O92 O 0.62385 1.04492 0.96643 0.0
O93 O 0.55056 0.99797 0.98222 0.0
O94 O 0.62212 0.93384 0.98853 0.0
C95 C 0.67165 0.91225 0.98337 0.0
C96 C 0.48919 1.00228 0.92041 0.0
O97 O 0.69005 0.90403 0.95236 0.0
C98 C 0.64541 1.00016 0.85688 0.0
O99 O 0.56563 0.89254 0.93875 0.0
O100 O 0.6225 0.89963 0.89221 0.0
O101 O 0.53086 1.03226 0.92311 0.0
O102 O 0.50103 0.96215 0.92796 0.0
C103 C 0.74789 1.01392 0.92392 0.0
O104 O 0.68118 0.96957 0.86914 0.0
O105 O 0.60731 1.02035 0.87589 0.0
C106 C 0.57864 0.88072 0.90853 0.0
O107 O 0.74125 0.97276 0.92889 0.0
O108 O 0.70138 1.03834 0.9166 0.0
C109 C 0.58473 1.03124 0.98836 0.0
Fe110 Fe 0.32623 0.66578 0.90654 0.0
Fe111 Fe 0.38051 0.5745 0.92661 0.0
O112 O 0.38017 0.63338 0.93065 0.0
Fe113 Fe 0.43138 0.65949 0.96036 0.0
O114 O 0.37684 0.70372 0.97283 0.0
O115 O 0.28964 0.68594 0.94701 0.0
O116 O 0.26487 0.62306 0.90613 0.0
C117 C 0.2553 0.59037 0.92617 0.0
C118 C 0.43754 0.71958 0.90747 0.0
O119 O 0.30035 0.57129 0.9413 0.0
C120 C 0.50575 0.59135 0.93007 0.0
O121 O 0.35778 0.64432 0.86488 0.0
O122 O 0.35585 0.57406 0.88179 0.0
O123 O 0.46648 0.69304 0.92692 0.0
O124 O 0.37874 0.71529 0.90291 0.0
C125 C 0.40923 0.58561 0.99754 0.0
O126 O 0.46182 0.57469 0.91212 0.0
O127 O 0.49465 0.62016 0.95305 0.0
C128 C 0.35883 0.60253 0.85788 0.0
O129 O 0.40595 0.56279 0.97035 0.0
O130 O 0.40033 0.62705 0.99591 0.0
C131 C 0.3179 0.70092 0.97345 0.0
Fe132 Fe 0.56762 0.16416 0.629 0.0
Fe133 Fe 0.68508 0.1648 0.67563 0.0
O134 O 0.62291 0.13531 0.65541 0.0
Fe135 Fe 0.6146 0.07655 0.66047 0.0
O136 O 0.62279 0.06712 0.61446 0.0
O137 O 0.55253 0.11752 0.6019 0.0
O138 O 0.62786 0.17954 0.59868 0.0
C139 C 0.68127 0.19579 0.60445 0.0
C140 C 0.48934 0.1077 0.66323 0.0
O141 O 0.70105 0.19996 0.6358 0.0
C142 C 0.64381 0.09955 0.72682 0.0
O143 O 0.57235 0.2176 0.65036 0.0
O144 O 0.63063 0.2057 0.69577 0.0
O145 O 0.52954 0.07754 0.65784 0.0
O146 O 0.50233 0.1484 0.65727 0.0
C147 C 0.74664 0.0859 0.66039 0.0
O148 O 0.68066 0.131 0.71687 0.0
O149 O 0.6057 0.08175 0.7062 0.0
C150 C 0.5874 0.2272 0.68066 0.0
O151 O 0.74527 0.12793 0.6587 0.0
O152 O 0.69751 0.06358 0.66501 0.0
C153 C 0.58679 0.08562 0.59309 0.0
Fe154 Fe 0.45456 0.44388 0.62591 0.0
Fe155 Fe 0.34014 0.44368 0.67435 0.0
O156 O 0.40065 0.47301 0.65283 0.0
Fe157 Fe 0.40872 0.53185 0.65718 0.0
O158 O 0.39765 0.54028 0.61131 0.0
O159 O 0.4681 0.49036 0.59824 0.0
O160 O 0.39285 0.42796 0.59646 0.0
C161 C 0.33994 0.41172 0.6036 0.0
C162 C 0.53325 0.50091 0.65956 0.0
O163 O 0.32268 0.40758 0.63537 0.0
C164 C 0.38166 0.51125 0.72384 0.0
O165 O 0.4508 0.3907 0.64782 0.0
O166 O 0.39637 0.40378 0.69435 0.0
O167 O 0.49353 0.53108 0.6532 0.0
O168 O 0.52069 0.46014 0.65352 0.0
C169 C 0.27708 0.5218 0.65844 0.0
O170 O 0.34599 0.47861 0.71486 0.0
O171 O 0.42016 0.52765 0.70286 0.0
C172 C 0.43861 0.38201 0.67869 0.0
O173 O 0.27884 0.47973 0.65751 0.0
O174 O 0.32606 0.54436 0.66283 0.0
C175 C 0.43264 0.52174 0.58956 0.0
Fe176 Fe 0.83803 0.66545 0.67541 0.0
Fe177 Fe 0.95243 0.66223 0.62673 0.0
O178 O 0.89829 0.63496 0.65466 0.0
Fe179 Fe 0.90571 0.57633 0.66106 0.0
O180 O 0.82331 0.56469 0.66853 0.0
O181 O 0.77644 0.6287 0.65959 0.0
O182 O 0.82053 0.70028 0.6357 0.0
C183 C 0.83876 0.69622 0.60412 0.0
C184 C 0.88171 0.60119 0.72704 0.0
O185 O 0.89106 0.67895 0.59741 0.0
C186 C 0.03174 0.60489 0.65924 0.0
O187 O 0.8943 0.70618 0.69414 0.0
O188 O 0.95203 0.71583 0.64805 0.0
O189 O 0.91987 0.58371 0.70633 0.0
O190 O 0.84418 0.63213 0.71681 0.0
C191 C 0.92534 0.58299 0.59278 0.0
O192 O 0.01911 0.64566 0.6537 0.0
O193 O 0.99008 0.5754 0.65537 0.0
C194 C 0.93776 0.72658 0.67829 0.0
O195 O 0.96204 0.61452 0.59977 0.0
O196 O 0.89194 0.56536 0.61578 0.0
C197 C 0.7746 0.58682 0.66266 0.0
Fe198 Fe 0.06859 0.94313 0.62437 0.0
Fe199 Fe 0.11447 1.03212 0.65408 0.0
O200 O 0.12257 0.97309 0.65088 0.0
Fe201 Fe 0.18309 0.94446 0.67304 0.0
O202 O 0.20142 0.90785 0.63447 0.0
O203 O 0.13022 0.9262 0.59542 0.0
O204 O 0.05546 0.98868 0.59581 0.0
C205 C 0.09051 1.02009 0.58665 0.0
C206 C 0.08525 0.8822 0.67789 0.0
O207 O 0.12582 1.03909 0.60809 0.0
C208 C 0.14016 1.01282 0.72134 0.0
O209 O 1.00228 0.96024 0.65143 0.0
O210 O 0.02946 1.03117 0.64992 0.0
O211 O 0.12745 0.90445 0.69317 0.0
O212 O 0.07172 0.89059 0.64716 0.0
C213 C 0.24648 1.02257 0.65745 0.0
O214 O 0.10278 1.02934 0.69977 0.0
O215 O 0.17582 0.9799 0.71312 0.0
C216 C 0.98954 1.00115 0.65656 0.0
O217 O 0.19716 1.04518 0.65993 0.0
O218 O 0.24471 0.98053 0.6565 0.0
C219 C 0.18332 0.91046 0.60272 0.0
Fe220 Fe 0.88089 0.53164 0.92551 0.0
Fe221 Fe 0.82577 0.44027 0.90607 0.0
O222 O 0.8798 0.47274 0.92997 0.0
Fe223 Fe 0.93019 0.44676 0.96008 0.0
O224 O 0.89832 0.47972 0.99502 0.0
O225 O 0.90688 0.5437 0.96937 0.0
O226 O 0.80057 0.53539 0.94011 0.0
C227 C 0.75555 0.51599 0.92509 0.0
C228 C 1.00579 0.51351 0.92893 0.0
O229 O 0.76505 0.48337 0.90502 0.0
C230 C 0.93644 0.38572 0.90808 0.0
O231 O 0.85632 0.53166 0.88049 0.0
O232 O 0.85812 0.46091 0.86442 0.0
O233 O 0.99383 0.48583 0.95264 0.0
O234 O 0.96215 0.53063 0.91102 0.0
C235 C 0.81644 0.40615 0.97321 0.0
O236 O 0.87778 0.39042 0.90315 0.0
O237 O 0.96555 0.41261 0.92717 0.0
C238 C 0.85978 0.50257 0.85705 0.0
O239 O 0.78847 0.42099 0.94663 0.0
O240 O 0.87526 0.40281 0.97254 0.0
C241 C 0.90941 0.52084 0.99665 0.0
Fe242 Fe 0.12147 0.07231 0.9238 0.0
Fe243 Fe 0.17964 0.16342 0.90692 0.0
O244 O 0.12262 0.13109 0.9287 0.0
Fe245 Fe 0.06856 0.15712 0.95672 0.0
O246 O 0.09495 0.12395 0.99284 0.0
O247 O 0.09027 0.06023 0.96632 0.0
O248 O 0.19984 0.06736 0.94122 0.0
C249 C 0.24636 0.08545 0.92677 0.0
C250 C 0.99671 0.09089 0.92207 0.0
O251 O 0.23933 0.11964 0.90784 0.0
C252 C 0.06995 0.21871 0.90506 0.0
O253 O 0.15114 0.07264 0.87994 0.0
O254 O 0.15173 0.14335 0.86407 0.0
O255 O 1.00458 0.11851 0.94645 0.0
O256 O 0.04273 0.07396 0.90622 0.0
C257 C 0.18216 0.19722 0.97415 0.0
O258 O 0.12908 0.21396 0.90257 0.0
O259 O 0.03827 0.19159 0.92256 0.0
C260 C 0.15106 0.10173 0.85642 0.0
O261 O 0.21272 0.18225 0.94858 0.0
O262 O 0.12323 0.20035 0.97179 0.0
C263 C 0.08598 0.08256 0.99369 0.0
Fe264 Fe 0.18101 0.44747 0.40794 0.0
Fe265 Fe 0.11014 0.53538 0.42498 0.0
O266 O 0.11893 0.4763 0.42857 0.0
Fe267 Fe 0.06413 0.44598 0.45436 0.0
O268 O 0.12464 0.43149 0.48498 0.0
O269 O 0.1978 0.41202 0.44756 0.0
O270 O 0.24133 0.48443 0.42468 0.0
C271 C 0.24214 0.52653 0.42517 0.0
C272 C 0.08491 0.3843 0.40242 0.0
O273 O 0.19275 0.54896 0.42244 0.0
C274 C 0.98567 0.50195 0.41983 0.0
O275 O 0.17497 0.48131 0.3672 0.0
O276 O 0.10462 0.53379 0.37886 0.0
O277 O 0.07124 0.39275 0.43303 0.0
O278 O 0.12709 0.40667 0.3874 0.0
C279 C 0.07857 0.52347 0.49169 0.0
O280 O 0.02499 0.53275 0.42573 0.0
O281 O 0.99945 0.46124 0.42551 0.0
C282 C 0.14091 0.51462 0.35808 0.0
O283 O 0.11559 0.54276 0.47139 0.0
O284 O 0.04575 0.49154 0.48165 0.0
C285 C 0.17865 0.41625 0.47902 0.0
Fe286 Fe 0.83897 0.1678 0.40758 0.0
Fe287 Fe 0.90787 0.07914 0.42213 0.0
O288 O 0.89994 0.13768 0.42814 0.0
Fe289 Fe 0.95422 0.16555 0.45565 0.0
O290 O 0.89288 0.18086 0.48536 0.0
O291 O 0.82228 0.20271 0.44728 0.0
O292 O 0.77793 0.13105 0.42385 0.0
C293 C 0.77632 0.08912 0.42114 0.0
C294 C 0.93796 0.22909 0.40395 0.0
O295 O 0.82523 0.06694 0.41584 0.0
C296 C 0.03367 0.10911 0.42233 0.0
O297 O 0.84413 0.1344 0.36637 0.0
O298 O 0.91982 0.08591 0.37664 0.0
O299 O 0.9513 0.21926 0.43451 0.0
O300 O 0.89477 0.2083 0.38824 0.0
C301 C 0.93163 0.08597 0.49004 0.0
O302 O 0.99257 0.07925 0.42648 0.0
O303 O 0.02069 0.14983 0.42815 0.0
C304 C 0.88123 0.10332 0.35612 0.0
O305 O 0.89649 0.06853 0.46773 0.0
O306 O 0.96664 0.11814 0.48246 0.0
C307 C 0.8399 0.19731 0.47888 0.0
Fe308 Fe 0.07958 0.66075 0.12241 0.0
Fe309 Fe 0.18475 0.66994 0.1759 0.0
O310 O 0.13362 0.636 0.15125 0.0
Fe311 Fe 0.1395 0.57726 0.15415 0.0
O312 O 0.11411 0.56541 0.11035 0.0
O313 O 0.11176 0.63057 0.08606 0.0
O314 O 0.13154 0.70691 0.11055 0.0
C315 C 0.19055 0.70491 0.10893 0.0
C316 C 0.01233 0.58848 0.1524 0.0
O317 O 0.22049 0.69135 0.13537 0.0
C318 C 0.15226 0.60423 0.22307 0.0
O319 O 0.04288 0.69256 0.15655 0.0
O320 O 0.12985 0.71791 0.17919 0.0
O321 O 0.05871 0.57278 0.1689 0.0
O322 O 0.0193 0.61864 0.12978 0.0
C323 C 0.26288 0.59858 0.15635 0.0
O324 O 0.15274 0.64648 0.21717 0.0
O325 O 0.16418 0.57747 0.19889 0.0
C326 C 0.07096 0.72093 0.17484 0.0
O327 O 0.2489 0.62967 0.17695 0.0
O328 O 0.2204 0.57869 0.13943 0.0
C329 C 0.1065 0.58892 0.08376 0.0
Fe330 Fe 0.92286 0.94532 0.12435 0.0
Fe331 Fe 0.82064 0.94038 0.17947 0.0
O332 O 0.87316 0.97233 0.15422 0.0
Fe333 Fe 0.87342 1.03137 0.15703 0.0
O334 O 0.89584 1.04119 0.11231 0.0
O335 O 0.88788 0.97565 0.08896 0.0
O336 O 0.86841 0.8999 0.11422 0.0
C337 C 0.80954 0.90287 0.11381 0.0
C338 C 0.99889 1.01517 0.15148 0.0
O339 O 0.78219 0.91945 0.13991 0.0
C340 C 0.8562 1.00453 0.22655 0.0
O341 O 0.96049 0.91364 0.15805 0.0
O342 O 0.87356 0.89082 0.18265 0.0
O343 O 0.95576 1.03191 0.16989 0.0
O344 O 0.98647 0.98568 0.12913 0.0
C345 C 0.74801 1.01599 0.1607 0.0
O346 O 0.8545 0.96264 0.22014 0.0
O347 O 0.85213 1.03292 0.20254 0.0
C348 C 0.9323 0.88673 0.17756 0.0
O349 O 0.759 0.98319 0.18049 0.0
O350 O 0.79188 1.03434 0.14399 0.0
C351 C 0.89682 1.01682 0.08578 0.0
C352 C 0.50495 1.05072 0.06904 0.0
C353 C 0.45697 0.08009 0.05855 0.0
C354 C 0.55587 1.04174 0.04775 0.0
C355 C 0.55966 0.06047 1.01469 0.0
H356 H 0.50324 1.03401 0.09383 0.0
H357 H 0.58896 1.01625 0.05573 0.0
S358 S 0.44875 0.14102 0.97539 0.0
N359 N 0.41909 0.13043 1.01393 0.0
N360 N 0.51397 0.11151 0.97289 0.0
C361 C 0.51437 0.0919 1.00456 0.0
C362 C 0.46274 0.10169 1.02653 0.0
C363 C 0.54016 0.51822 1.03651 0.0
C364 C 0.55833 0.54405 0.06497 0.0
C365 C 0.48816 0.52983 1.01673 0.0
C366 C 0.45254 0.56841 1.02411 0.0
H367 H 0.56578 0.48831 1.02968 0.0
H368 H 0.4776 0.50905 0.99458 0.0
S369 S 0.47718 0.64617 0.09726 0.0
N370 N 0.53455 0.60953 0.10054 0.0
N371 N 0.43644 0.63078 0.06309 0.0
C372 C 0.46907 0.59407 0.05295 0.0
C373 C 0.52236 0.58241 0.07315 0.0
C374 C 0.50952 0.07939 0.51074 0.0
C375 C 0.4596 1.05071 0.51882 0.0
C376 C 0.55976 0.08405 0.53333 0.0
C377 C 0.56044 0.06118 0.56495 0.0
H378 H 0.51213 0.09542 0.48565 0.0
H379 H 0.59626 0.10799 0.52717 0.0
S380 S 0.4378 0.9855 0.59901 0.0
N381 N 0.41164 1.0013 0.56075 0.0
N382 N 0.50638 1.01033 0.60381 0.0
C383 C 0.51053 1.03271 0.57332 0.0
C384 C 0.4591 1.02856 0.55057 0.0
C385 C 0.55553 0.58373 0.54861 0.0
C386 C 0.55973 0.56105 0.51704 0.0
C387 C 0.50433 0.57723 0.57015 0.0
C388 C 0.45733 0.54657 0.56122 0.0
H389 H 0.58975 0.60905 0.55544 0.0
H390 H 0.50408 0.5935 0.59517 0.0
S391 S 0.44592 0.48008 0.48111 0.0
N392 N 0.5123 0.50801 0.47733 0.0
N393 N 0.41638 0.49454 0.51888 0.0
C394 C 0.46065 0.52409 0.52967 0.0
C395 C 0.51279 0.53055 0.5078 0.0
C396 C 0.9956 0.52763 0.5725 0.0
C397 C 0.94688 0.55719 0.56422 0.0
C398 C 0.04695 0.52331 0.55072 0.0
C399 C 0.04953 0.54691 0.51947 0.0
H400 H 0.99698 0.5112 0.59747 0.0
H401 H 0.083 0.49923 0.55725 0.0
S402 S 0.9286 0.6228 0.48404 0.0
N403 N 0.90087 0.60708 0.52195 0.0
N404 N 0.99713 0.59783 0.47998 0.0
C405 C 0.99991 0.57526 0.51041 0.0
C406 C 0.94759 0.5794 0.5325 0.0
C407 C 0.01797 0.07581 0.56877 0.0
C408 C 0.06375 1.04481 0.55879 0.0
C409 C 0.96481 0.08225 0.54867 0.0
C410 C 0.95766 0.05958 0.51723 0.0
H411 H 0.02079 0.09243 0.59361 0.0
H412 H 0.93172 0.10795 0.55621 0.0
S413 S 0.06621 0.97691 0.47916 0.0
N414 N 0.09965 0.99179 0.51587 0.0
N415 N 1.0001 1.00532 0.47694 0.0
C416 C 1.00294 1.02838 0.50713 0.0
C417 C 0.05703 1.02189 0.52757 0.0
C418 C 0.96795 0.58317 1.02382 0.0
C419 C 0.95494 0.5371 1.02247 0.0
C420 C 0.02062 0.59952 1.04108 0.0
C421 C 0.06225 0.57051 0.05812 0.0
H422 H 0.93785 0.60684 1.01065 0.0
H423 H 0.02719 0.63538 0.0421 0.0
S424 S 0.05077 0.44676 0.06183 0.0
N425 N 0.98884 0.46247 1.03941 0.0
N426 N 0.08808 0.4933 0.07176 0.0
C427 C 0.05027 0.52427 0.05671 0.0
C428 C 0.99628 0.5076 1.03933 0.0
C429 C 1.00285 0.09423 1.03732 0.0
C430 C 0.04272 0.0647 1.01968 0.0
C431 C 0.95157 0.07841 0.05586 0.0
C432 C 0.93876 1.0324 0.05814 0.0
H433 H 0.00984 0.13004 1.03594 0.0
H434 H 0.92289 0.10242 0.06957 0.0
S435 S 0.02991 0.94116 1.0168 0.0
N436 N 0.06642 0.98745 1.00542 0.0
N437 N 0.97038 0.95737 1.04084 0.0
C438 C 0.978 1.00246 1.04029 0.0
C439 C 0.03025 1.01865 1.02133 0.0
C440 C 0.33026 1.04048 0.26379 0.0
C441 C 0.35463 0.08403 0.2582 0.0
C442 C 0.33815 1.01754 0.29532 0.0
C443 C 0.37168 1.03669 0.32277 0.0
H444 H 0.30525 1.02345 0.2433 0.0
H445 H 0.31876 0.98426 0.29792 0.0
S446 S 0.44173 0.15122 0.32244 0.0
N447 N 0.41111 0.14596 0.28351 0.0
N448 N 0.4264 0.10387 0.34263 0.0
C449 C 0.39487 0.08091 0.31781 0.0
C450 C 0.38616 0.10428 0.28573 0.0
C451 C 0.70611 0.54136 0.27707 0.0
C452 C 0.65433 0.51769 0.26342 0.0
C453 C 0.7001 0.57038 0.30571 0.0
C454 C 0.6416 0.57789 0.32146 0.0
H455 H 0.75149 0.53841 0.26476 0.0
H456 H 0.74169 0.58651 0.31583 0.0
S457 S 0.49027 0.52753 0.29341 0.0
N458 N 0.54231 0.50604 0.26663 0.0
N459 N 0.53014 0.56029 0.31979 0.0
C460 C 0.58932 0.55489 0.30752 0.0
C461 C 0.59582 0.52503 0.27878 0.0
C462 C 0.59472 1.02839 0.80352 0.0
C463 C 0.65074 1.01897 0.82125 0.0
C464 C 0.59333 0.05643 0.77449 0.0
C465 C 0.64785 0.07718 0.76149 0.0
H466 H 0.55075 1.01489 0.81289 0.0
H467 H 0.54855 0.06178 0.76194 0.0
S468 S 0.80735 0.06428 0.79849 0.0
N469 N 0.76264 1.03356 0.82407 0.0
N470 N 0.76041 0.0855 0.7687 0.0
C471 C 0.70462 0.0681 0.77882 0.0
C472 C 0.706 1.03917 0.8087 0.0
C473 C 0.33509 0.53956 0.81689 0.0
C474 C 0.35894 0.58336 0.82207 0.0
C475 C 0.34188 0.51658 0.78538 0.0
C476 C 0.37348 0.53599 0.75741 0.0
H477 H 0.31159 0.52221 0.83776 0.0
H478 H 0.32327 0.48302 0.78323 0.0
S479 S 0.43932 0.65174 0.75599 0.0
N480 N 0.4116 0.64615 0.79553 0.0
N481 N 0.42438 0.60403 0.73624 0.0
C482 C 0.3954 0.58065 0.76176 0.0
C483 C 0.38801 0.60404 0.79393 0.0
C484 C 0.91464 0.51963 0.80137 0.0
C485 C 0.85968 0.52066 0.82117 0.0
C486 C 0.92178 0.54711 0.77203 0.0
C487 C 0.87445 0.57727 0.76106 0.0
H488 H 0.95359 0.49893 0.80948 0.0
H489 H 0.96538 0.54476 0.75785 0.0
S490 S 0.72046 0.59178 0.80401 0.0
N491 N 0.75676 0.55406 0.8279 0.0
N492 N 0.76945 0.60474 0.77253 0.0
C493 C 0.81889 0.57814 0.78056 0.0
C494 C 0.81176 0.55016 0.81052 0.0
C495 C 0.17945 1.03985 0.81555 0.0
C496 C 0.15499 0.08349 0.82047 0.0
C497 C 0.17546 1.0174 0.7837 0.0
C498 C 0.14629 1.03726 0.75512 0.0
H499 H 0.20098 1.02217 0.83691 0.0
H500 H 0.19409 0.98385 0.78176 0.0
S501 S 0.08122 0.15311 0.75286 0.0
N502 N 0.10514 0.14681 0.79311 0.0
N503 N 0.09782 0.10572 0.73309 0.0
C504 C 0.12429 0.08189 0.7592 0.0
C505 C 0.12873 0.10472 0.79175 0.0
C506 C 0.15907 0.58262 0.32108 0.0
C507 C 0.14691 0.53616 0.3235 0.0
C508 C 0.15918 0.6054 0.28903 0.0
C509 C 0.14593 0.58272 0.25811 0.0
H510 H 0.16888 0.60154 0.34432 0.0
H511 H 0.17063 0.64065 0.28848 0.0
S512 S 0.10317 0.46185 0.2513 0.0
N513 N 0.11732 0.46926 0.2928 0.0
N514 N 0.11481 0.51096 0.23299 0.0
C515 C 0.1314 0.53633 0.26067 0.0
C516 C 0.13269 0.51332 0.29313 0.0
C517 C 0.91914 1.04795 0.3117 0.0
C518 C 0.87334 0.07953 0.32217 0.0
C519 C 0.91116 1.02067 0.28237 0.0
C520 C 0.85697 1.02355 0.26205 0.0
H521 H 0.96215 1.0442 0.32628 0.0
H522 H 0.94889 0.99861 0.27474 0.0
S523 S 0.72165 0.09886 0.27772 0.0
N524 N 0.77048 0.11032 0.30965 0.0
N525 N 0.75634 0.06006 0.25423 0.0
C526 C 0.81057 0.05452 0.27214 0.0
C527 C 0.81848 0.0822 0.30213 0.0
C528 C 0.31052 0.21182 0.04339 0.0
C529 C 0.27725 0.21075 0.075 0.0
C530 C 0.2798 0.20928 1.01102 0.0
C531 C 0.21397 0.20654 1.00841 0.0
H532 H 0.36124 0.21245 0.04354 0.0
H533 H 0.30818 0.20818 0.98787 0.0
S534 S 0.10398 0.20546 0.08308 0.0
N535 N 0.17393 0.20843 0.10112 0.0
N536 N 0.11641 0.20517 1.04102 0.0
C537 C 0.17995 0.20769 1.03981 0.0
C538 C 0.21135 0.20943 0.07275 0.0
C539 C 0.81736 0.39927 1.03852 0.0
C540 C 0.78295 0.39935 1.0072 0.0
C541 C 0.78772 0.39989 0.07117 0.0
C542 C 0.72199 0.39971 0.07437 0.0
H543 H 0.86804 0.4008 1.03797 0.0
H544 H 0.81677 0.40184 0.09407 0.0
S545 S 0.60963 0.39624 1.00056 0.0
N546 N 0.67908 0.39717 0.98189 0.0
N547 N 0.62334 0.39674 0.04252 0.0
C548 C 0.68699 0.39754 0.0432 0.0
C549 C 0.71731 0.39779 1.00997 0.0
C550 C 0.32804 0.90862 0.54357 0.0
C551 C 0.30285 0.90314 0.5098 0.0
C552 C 0.29061 0.90733 0.5738 0.0
C553 C 0.22563 0.89974 0.5722 0.0
H554 H 0.37732 0.91593 0.5468 0.0
H555 H 0.31235 0.915 0.59838 0.0
S556 S 0.13778 0.87218 0.49173 0.0
N557 N 0.20945 0.88264 0.47786 0.0
N558 N 0.1396 0.87904 0.53405 0.0
C559 C 0.20073 0.88999 0.53898 0.0
C560 C 0.23893 0.89179 0.50812 0.0
C561 C 0.69594 0.6981 0.54349 0.0
C562 C 0.72161 0.70554 0.51 0.0
C563 C 0.73257 0.69887 0.57404 0.0
C564 C 0.79739 0.70718 0.5732 0.0
H565 H 0.64693 0.68949 0.54628 0.0
H566 H 0.71039 0.69011 0.59828 0.0
S567 S 0.88731 0.73669 0.49389 0.0
N568 N 0.81588 0.72694 0.47924 0.0
N569 N 0.88441 0.7286 0.53608 0.0
C570 C 0.82311 0.71771 0.54031 0.0
C571 C 0.78561 0.71693 0.50908 0.0
C572 C 0.67651 0.9024 0.04786 0.0
C573 C 0.7071 0.89889 1.01548 0.0
C574 C 0.70922 0.90063 0.07938 0.0
C575 C 0.77447 0.89468 0.08052 0.0
H576 H 0.62666 0.90894 0.04906 0.0
H577 H 0.68321 0.90614 0.103 0.0
S578 S 0.87642 0.87651 1.00368 0.0
N579 N 0.80609 0.88446 0.98699 0.0
N580 N 0.86775 0.87971 0.046 0.0
C581 C 0.8052 0.88733 0.04849 0.0
C582 C 0.77162 0.88969 1.01616 0.0
C583 C 0.3182 0.71001 1.03868 0.0
C584 C 0.28418 0.70919 1.00723 0.0
C585 C 0.28819 0.71054 0.07125 0.0
C586 C 0.22239 0.71144 0.07427 0.0
H587 H 0.36884 0.70816 1.0383 0.0
H588 H 0.31697 0.70893 0.09427 0.0
S589 S 0.11094 0.71365 1.00001 0.0
N590 N 0.18056 0.71148 0.98159 0.0
N591 N 0.12422 0.71452 0.04201 0.0
C592 C 0.18784 0.71312 0.04292 0.0
C593 C 0.21851 0.71148 1.00979 0.0
C594 C 0.82445 0.20689 0.54389 0.0
C595 C 0.79832 0.20692 0.51005 0.0
C596 C 0.78713 0.20669 0.57425 0.0
C597 C 0.72119 0.20632 0.57272 0.0
H598 H 0.87478 0.20502 0.54713 0.0
H599 H 0.81035 0.20424 0.59906 0.0
S600 S 0.62802 0.21003 0.49106 0.0
N601 N 0.70135 0.2094 0.47758 0.0
N602 N 0.63148 0.20956 0.53366 0.0
C603 C 0.69441 0.20887 0.53904 0.0
C604 C 0.73258 0.2091 0.50817 0.0
C605 C 0.23263 0.41232 0.57459 0.0
C606 C 0.29691 0.4021 0.5731 0.0
C607 C 0.19504 0.41428 0.54438 0.0
C608 C 0.2192 0.40615 0.5107 0.0
H609 H 0.2118 0.42163 0.59904 0.0
H610 H 0.14667 0.42427 0.54759 0.0
S611 S 0.38259 0.37075 0.4929 0.0
N612 N 0.38149 0.37865 0.53513 0.0
N613 N 0.31127 0.38241 0.479 0.0
C614 C 0.28252 0.39307 0.50915 0.0
C615 C 0.32096 0.3911 0.53998 0.0
C616 C 0.60958 0.08695 0.13331 0.0
C617 C 0.56331 0.0767 0.15806 0.0
C618 C 0.66884 0.06714 0.1344 0.0
C619 C 0.68469 1.03635 0.16036 0.0
H620 H 0.59971 0.10978 0.11229 0.0
H621 H 0.70219 0.0757 0.11437 0.0
S622 S 0.58282 1.00129 0.23342 0.0
N623 N 0.5389 1.03586 0.21068 0.0
N624 N 0.65046 0.99863 0.2129 0.0
C625 C 0.63956 1.02665 0.18592 0.0
C626 C 0.57898 1.04687 0.18477 0.0
C627 C 0.40392 0.52857 0.1339 0.0
C628 C 0.44883 0.54081 0.15903 0.0
C629 C 0.34466 0.54795 0.13295 0.0
C630 C 0.32729 0.58042 0.1571 0.0
H631 H 0.41444 0.50391 0.11429 0.0
H632 H 0.31225 0.53722 0.11305 0.0
S633 S 0.42695 0.62449 0.22841 0.0
N634 N 0.47177 0.58761 0.20865 0.0
N635 N 0.35981 0.62433 0.20721 0.0
C636 C 0.37164 0.59335 0.1824 0.0
C637 C 0.43241 0.57344 0.18332 0.0
C638 C 0.64961 1.0013 0.43325 0.0
C639 C 0.5993 1.01947 0.4145 0.0
C640 C 0.7073 1.02392 0.43514 0.0
C641 C 0.71575 0.06568 0.41895 0.0
H642 H 0.64337 0.97088 0.44804 0.0
H643 H 0.74479 1.00947 0.45036 0.0
S644 S 0.60202 0.12346 0.36218 0.0
N645 N 0.56448 0.07856 0.37584 0.0
N646 N 0.67201 0.12133 0.38026 0.0
C647 C 0.66705 0.08277 0.39863 0.0
C648 C 0.60911 0.05949 0.39613 0.0
C649 C 0.4102 0.55262 0.40278 0.0
C650 C 0.42024 0.59512 0.41744 0.0
C651 C 0.35294 0.53054 0.4061 0.0
C652 C 0.3027 0.55036 0.42363 0.0
H653 H 0.448 0.53528 0.38978 0.0
H654 H 0.34806 0.49765 0.39473 0.0
S655 S 0.30264 0.66242 0.46468 0.0
N656 N 0.37424 0.657 0.44907 0.0
N657 N 0.26503 0.61609 0.45419 0.0
C658 C 0.31074 0.59383 0.43692 0.0
C659 C 0.36978 0.61617 0.43397 0.0
C660 C 0.35401 0.07838 0.90324 0.0
C661 C 0.30691 0.06175 0.92524 0.0
C662 C 0.41136 0.05675 0.90001 0.0
C663 C 0.42412 1.0176 0.91857 0.0
H664 H 0.34709 0.10872 0.88847 0.0
H665 H 0.4469 0.07165 0.88365 0.0
S666 S 0.31731 0.95962 0.97943 0.0
N667 N 0.27674 1.00303 0.96556 0.0
N668 N 0.38556 0.96237 0.95952 0.0
C669 C 0.37729 0.99969 0.94002 0.0
C670 C 0.31855 1.02189 0.94346 0.0
C671 C 0.64853 0.52672 0.90047 0.0
C672 C 0.69212 0.535 0.92708 0.0
C673 C 0.58833 0.54516 0.90138 0.0
C674 C 0.56968 0.5725 0.92894 0.0
H675 H 0.66117 0.50626 0.87849 0.0
H676 H 0.55644 0.53817 0.88028 0.0
S677 S 0.66548 0.60156 1.00634 0.0
N678 N 0.71187 0.57027 0.98246 0.0
N679 N 0.59932 0.60525 0.98451 0.0
C680 C 0.61285 0.58047 0.95603 0.0
C681 C 0.67391 0.56163 0.95501 0.0
C682 C 0.3167 0.08841 0.64585 0.0
C683 C 0.30737 1.0459 0.66076 0.0
C684 C 0.37449 0.11084 0.64898 0.0
C685 C 0.42421 0.09175 0.6677 0.0
H686 H 0.27981 0.10372 0.6307 0.0
H687 H 0.38126 0.14196 0.63518 0.0
S688 S 0.41976 0.98504 0.71661 0.0
N689 N 0.35024 0.98828 0.69809 0.0
N690 N 0.45766 1.03059 0.70472 0.0
C691 C 0.41362 1.05083 0.68471 0.0
C692 C 0.35563 1.02778 0.68098 0.0
C693 C 0.64885 0.49887 0.64824 0.0
C694 C 0.59758 0.51678 0.66624 0.0
C695 C 0.70653 0.52161 0.64742 0.0
C696 C 0.71406 0.56322 0.66396 0.0
H697 H 0.64344 0.46858 0.63323 0.0
H698 H 0.74479 0.50739 0.63272 0.0
S699 S 0.59744 0.62024 0.71913 0.0
N700 N 0.5607 0.57546 0.70462 0.0
N701 N 0.66832 0.6184 0.70219 0.0
C702 C 0.66435 0.58003 0.68355 0.0
C703 C 0.60636 0.55665 0.68497 0.0
C704 C 0.16329 0.52255 0.6719 0.0
C705 C 0.21598 0.54507 0.65911 0.0
C706 C 0.10525 0.54374 0.67399 0.0
C707 C 0.09677 0.58819 0.66277 0.0
H708 H 0.16684 0.48823 0.68061 0.0
H709 H 0.06605 0.52442 0.68368 0.0
S710 S 0.22064 0.66253 0.62808 0.0
N711 N 0.25715 0.61504 0.63631 0.0
N712 N 0.14684 0.65456 0.63933 0.0
C713 C 0.14941 0.61169 0.65079 0.0
C714 C 0.20918 0.59015 0.64905 0.0
C715 C 0.81525 1.0206 0.64518 0.0
C716 C 0.80746 0.06235 0.6615 0.0
C717 C 0.87342 0.99838 0.64571 0.0
C718 C 0.92504 1.01699 0.66312 0.0
H719 H 0.77681 1.00585 0.63088 0.0
H720 H 0.87882 0.96789 0.63097 0.0
S721 S 0.92503 0.12091 0.71542 0.0
N722 N 0.8537 0.11822 0.69909 0.0
N723 N 0.96206 0.07639 0.70079 0.0
C724 C 0.91614 0.05698 0.6816 0.0
C725 C 0.85766 0.07976 0.68057 0.0
C726 C 0.14503 0.58562 0.90484 0.0
C727 C 0.1921 0.57047 0.92757 0.0
C728 C 0.08529 0.5664 0.90472 0.0
C729 C 0.07035 0.53133 0.92734 0.0
H730 H 0.15429 0.61248 0.88679 0.0
H731 H 0.05053 0.57947 0.887 0.0
S732 S 0.17713 0.47967 0.99232 0.0
N733 N 0.21957 0.51879 0.97362 0.0
N734 N 0.10823 0.4819 0.97317 0.0
C735 C 0.11732 0.51566 0.95014 0.0
C736 C 0.17786 0.53548 0.95037 0.0
C737 C 0.88093 0.09801 0.91899 0.0
C738 C 0.93437 0.0707 0.91861 0.0
C739 C 0.82077 0.0794 0.9206 0.0
C740 C 0.81207 1.03284 0.92278 0.0
H741 H 0.88576 0.13405 0.91844 0.0
H742 H 0.78092 0.10178 0.92067 0.0
S743 S 0.93836 0.94721 0.92434 0.0
N744 N 0.97575 0.9953 0.92125 0.0
N745 N 0.86316 0.95991 0.92486 0.0
C746 C 0.86567 1.00521 0.92255 0.0
C747 C 0.92671 1.02425 0.92029 0.0
C748 C 0.91127 0.56017 0.40052 0.0
C749 C 0.92038 0.5172 0.41463 0.0
C750 C 0.85375 0.58211 0.40299 0.0
C751 C 0.80232 0.56167 0.41903 0.0
H752 H 0.95 0.57805 0.38881 0.0
H753 H 0.84969 0.61549 0.39237 0.0
S754 S 0.79914 0.44814 0.45761 0.0
N755 N 0.87188 0.45416 0.44382 0.0
N756 N 0.76235 0.49481 0.4472 0.0
C757 C 0.80932 0.51768 0.43145 0.0
C758 C 0.8686 0.49549 0.42944 0.0
C759 C 0.1648 1.02698 0.40778 0.0
C760 C 0.21717 1.0482 0.42219 0.0
C761 C 0.10716 1.04884 0.40555 0.0
C762 C 0.09875 0.09259 0.41834 0.0
H763 H 0.16831 0.9932 0.39794 0.0
H764 H 0.06804 1.03047 0.39471 0.0
S765 S 0.22213 0.16346 0.45759 0.0
N766 N 0.25833 0.11628 0.44807 0.0
N767 N 0.14873 0.15687 0.44501 0.0
C768 C 0.15121 0.11482 0.43192 0.0
C769 C 0.21058 0.09267 0.4337 0.0
C770 C 0.90542 0.57544 0.12889 0.0
C771 C 0.94964 0.5679 0.15536 0.0
C772 C 0.84533 0.55721 0.13042 0.0
C773 C 0.82701 0.53042 0.15835 0.0
H774 H 0.91716 0.59551 0.10651 0.0
H775 H 0.81312 0.564 0.10942 0.0
S776 S 0.92425 0.5011 0.23478 0.0
N777 N 0.97058 0.53227 0.21059 0.0
N778 N 0.85733 0.49752 0.21352 0.0
C779 C 0.8707 0.52221 0.18497 0.0
C780 C 0.93208 0.54104 0.18345 0.0
C781 C 0.13956 0.08638 0.17614 0.0
C782 C 0.1851 0.07428 0.15147 0.0
C783 C 0.07985 0.06688 0.17627 0.0
C784 C 0.06309 1.03447 0.15171 0.0
H785 H 0.15016 0.11085 0.1959 0.0
H786 H 0.04671 0.0773 0.19584 0.0
S787 S 0.16435 0.99265 0.08034 0.0
N788 N 0.20853 1.02908 0.10104 0.0
N789 N 0.097 0.99203 0.10118 0.0
C790 C 0.10812 1.02238 0.12659 0.0
C791 C 0.16882 1.04239 0.12647 0.0
C792 C 0.43501 0.30676 0.18307 0.0
C793 C 0.46458 0.26499 0.18576 0.0
C794 C 0.47016 0.34661 0.18234 0.0
C795 C 0.53637 0.34646 0.18445 0.0
H796 H 0.38493 0.30859 0.17875 0.0
H797 H 0.44526 0.37765 0.17809 0.0
S798 S 0.63508 0.24597 0.19825 0.0
N799 N 0.56305 0.22615 0.19537 0.0
N800 N 0.6288 0.3007 0.19415 0.0
C801 C 0.56579 0.30513 0.1905 0.0
C802 C 0.53002 0.26457 0.19106 0.0
C803 C 0.5784 0.81012 0.38789 0.0
C804 C 0.55135 0.76734 0.38686 0.0
C805 C 0.54081 0.8489 0.38817 0.0
C806 C 0.47464 0.84663 0.3874 0.0
H807 H 0.62834 0.81359 0.39214 0.0
H808 H 0.5636 0.88081 0.39239 0.0
S809 S 0.38113 0.74279 0.38068 0.0
N810 N 0.45449 0.72526 0.38156 0.0
N811 N 0.38444 0.79792 0.38234 0.0
C812 C 0.44742 0.80432 0.38315 0.0
C813 C 0.48564 0.76481 0.38287 0.0
C814 C 0.57371 0.79953 0.8943 0.0
C815 C 0.54432 0.84141 0.8951 0.0
C816 C 0.53821 0.75989 0.89499 0.0
C817 C 0.472 0.76065 0.89655 0.0
H818 H 0.62424 0.79733 0.89636 0.0
H819 H 0.56303 0.72841 0.89682 0.0
S820 S 0.37309 0.86244 0.89428 0.0
N821 N 0.44566 0.88157 0.89368 0.0
N822 N 0.379 0.80742 0.89474 0.0
C823 C 0.44225 0.80241 0.89398 0.0
C824 C 0.47844 0.84268 0.89346 0.0
C825 C 0.5417 0.34741 0.69292 0.0
C826 C 0.47558 0.34476 0.69439 0.0
C827 C 0.57984 0.30889 0.69378 0.0
C828 C 0.55348 0.26595 0.69611 0.0
H829 H 0.56391 0.37928 0.68775 0.0
H830 H 0.62955 0.31254 0.68891 0.0
S831 S 0.38381 0.24055 0.70433 0.0
N832 N 0.3863 0.29562 0.7014 0.0
N833 N 0.45737 0.22348 0.7032 0.0
C834 C 0.48794 0.26318 0.70075 0.0
C835 C 0.44914 0.30243 0.69988 0.0
C836 C 0.07787 0.80107 0.69269 0.0
C837 C 0.05103 0.84389 0.69374 0.0
C838 C 0.04012 0.76234 0.69236 0.0
C839 C 0.97397 0.76471 0.69314 0.0
H840 H 0.12777 0.79754 0.68842 0.0
H841 H 0.06275 0.7304 0.68818 0.0
S842 S 0.88097 0.86868 0.69966 0.0
N843 N 0.95442 0.88613 0.6988 0.0
N844 N 0.88401 0.81354 0.69813 0.0
C845 C 0.94695 0.80705 0.69738 0.0
C846 C 0.98536 0.84652 0.69765 0.0
C847 C 0.03648 0.34273 0.90007 0.0
C848 C 0.97036 0.34407 0.89782 0.0
C849 C 0.06969 0.30219 0.89881 0.0
C850 C 0.03812 0.26123 0.89541 0.0
H851 H 0.06277 0.37306 0.90494 0.0
H852 H 0.11978 0.30279 0.9033 0.0
S853 S 0.867 0.24646 0.88193 0.0
N854 N 0.87584 0.30088 0.88702 0.0
N855 N 0.93801 0.22492 0.88466 0.0
C856 C 0.9728 0.26241 0.88976 0.0
C857 C 0.93899 0.30371 0.89091 0.0
C858 C 0.04086 0.26416 0.39047 0.0
C859 C 0.9748 0.2665 0.38856 0.0
C860 C 0.07861 0.30282 0.38954 0.0
C861 C 0.05184 0.34551 0.38668 0.0
H862 H 0.06326 0.23247 0.39603 0.0
H863 H 0.12824 0.29953 0.39483 0.0
S864 S 0.88226 0.36989 0.37671 0.0
N865 N 0.88515 0.31489 0.38023 0.0
N866 N 0.95563 0.38741 0.37833 0.0
C867 C 0.98644 0.34793 0.38144 0.0
C868 C 0.94801 0.30851 0.38237 0.0
C869 C 0.9357 0.80321 0.18432 0.0
C870 C 0.9663 0.84474 0.18648 0.0
C871 C 0.96988 0.76301 0.18307 0.0
C872 C 0.03607 0.76257 0.18428 0.0
H873 H 0.88535 0.80183 0.18093 0.0
H874 H 0.94421 0.73217 0.17927 0.0
S875 S 0.13775 0.86224 0.19568 0.0
N876 N 0.06602 0.88273 0.19399 0.0
N877 N 0.13001 0.80755 0.19206 0.0
C878 C 0.06673 0.80369 0.18958 0.0
C879 C 0.03195 0.8446 0.19052 0.0
loop_
_geom_bond_atom_site_label_1
_geom_bond_atom_site_label_2
_geom_bond_distance
_geom_bond_site_symmetry_2
_ccdc_geom_bond_type
Fe0 O2 1.918 . S
Fe0 O5 1.997 . S
Fe0 O6 2.002 . S
Fe0 O11 1.976 . S
Fe0 O14 1.996 . S
Fe1 O2 1.918 . S
Fe1 O9 1.997 . S
Fe1 O12 1.996 . S
Fe1 O16 1.976 . S
Fe1 O19 2.002 . S
O2 Fe0 1.918 . S
O2 Fe1 1.918 . S
O2 Fe3 1.918 . S
Fe3 O2 1.918 . S
Fe3 O4 2.002 1_545 S
Fe3 O13 1.976 . S
Fe3 O17 1.996 . S
Fe3 O20 1.997 1_545 S
O4 Fe3 2.002 1_565 S
O4 C21 1.295 1_565 S
O5 Fe0 1.997 . S
O5 C21 1.235 . S
O6 Fe0 2.002 . S
O6 C7 1.295 . S
C7 O6 1.295 . S
C7 O9 1.235 . S
C8 O13 1.287 . S
C8 O14 1.255 . S
O9 Fe1 1.997 . S
O9 C7 1.235 . S
C10 O16 1.287 . S
C10 O17 1.255 . S
O11 Fe0 1.976 . S
O11 C18 1.287 . S
O12 Fe1 1.996 . S
O12 C18 1.255 . S
O13 Fe3 1.976 . S
O13 C8 1.287 . S
O14 Fe0 1.996 . S
O14 C8 1.255 . S
C15 O19 1.295 . S
C15 O20 1.235 1_545 S
O16 Fe1 1.976 . S
O16 C10 1.287 . S
O17 Fe3 1.996 . S
O17 C10 1.255 . S
C18 O11 1.287 . S
C18 O12 1.255 . S
O19 Fe1 2.002 . S
O19 C15 1.295 . S
O20 Fe3 1.997 1_565 S
O20 C15 1.235 1_565 S
C21 O4 1.295 1_545 S
C21 O5 1.235 . S
Fe22 O24 1.918 . S
Fe22 O27 1.997 . S
Fe22 O28 2.002 . S
Fe22 O33 1.976 . S
Fe22 O36 1.996 . S
Fe23 O24 1.918 . S
Fe23 O31 1.997 . S
Fe23 O34 1.996 . S
Fe23 O38 1.976 . S
Fe23 O41 2.002 . S
O24 Fe22 1.918 . S
O24 Fe23 1.918 . S
O24 Fe25 1.918 . S
Fe25 O24 1.918 . S
Fe25 O26 2.002 . S
Fe25 O35 1.976 . S
Fe25 O39 1.996 . S
Fe25 O42 1.997 . S
O26 Fe25 2.002 . S
O26 C43 1.295 . S
O27 Fe22 1.997 . S
O27 C43 1.235 . S
O28 Fe22 2.002 . S
O28 C29 1.295 . S
C29 O28 1.295 . S
C29 O31 1.235 . S
C30 O35 1.287 . S
C30 O36 1.255 . S
O31 Fe23 1.997 . S
O31 C29 1.235 . S
C32 O38 1.287 . S
C32 O39 1.255 . S
O33 Fe22 1.976 . S
O33 C40 1.287 . S
O34 Fe23 1.996 . S
O34 C40 1.255 . S
O35 Fe25 1.976 . S
O35 C30 1.287 . S
O36 Fe22 1.996 . S
O36 C30 1.255 . S
C37 O41 1.295 . S
C37 O42 1.235 . S
O38 Fe23 1.976 . S
O38 C32 1.287 . S
O39 Fe25 1.996 . S
O39 C32 1.255 . S
C40 O33 1.287 . S
C40 O34 1.255 . S
O41 Fe23 2.002 . S
O41 C37 1.295 . S
O42 Fe25 1.997 . S
O42 C37 1.235 . S
C43 O26 1.295 . S
C43 O27 1.235 . S
Fe44 O46 1.918 . S
Fe44 O49 1.997 1_565 S
Fe44 O50 2.002 1_565 S
Fe44 O55 1.976 . S
Fe44 O58 1.996 . S
Fe45 O46 1.918 . S
Fe45 O53 1.997 . S
Fe45 O56 1.996 . S
Fe45 O60 1.976 . S
Fe45 O63 2.002 . S
O46 Fe44 1.918 . S
O46 Fe45 1.918 . S
O46 Fe47 1.918 . S
Fe47 O46 1.918 . S
Fe47 O48 2.002 . S
Fe47 O57 1.976 . S
Fe47 O61 1.996 . S
Fe47 O64 1.997 . S
O48 Fe47 2.002 . S
O48 C65 1.295 . S
O49 Fe44 1.997 1_545 S
O49 C65 1.235 1_545 S
O50 Fe44 2.002 1_545 S
O50 C51 1.295 1_545 S
C51 O50 1.295 1_565 S
C51 O53 1.235 . S
C52 O57 1.287 . S
C52 O58 1.255 . S
O53 Fe45 1.997 . S
O53 C51 1.235 . S
C54 O60 1.287 . S
C54 O61 1.255 . S
O55 Fe44 1.976 . S
O55 C62 1.287 . S
O56 Fe45 1.996 . S
O56 C62 1.255 . S
O57 Fe47 1.976 . S
O57 C52 1.287 . S
O58 Fe44 1.996 . S
O58 C52 1.255 . S
C59 O63 1.295 . S
C59 O64 1.235 . S
O60 Fe45 1.976 . S
O60 C54 1.287 . S
O61 Fe47 1.996 . S
O61 C54 1.255 . S
C62 O55 1.287 . S
C62 O56 1.255 . S
O63 Fe45 2.002 . S
O63 C59 1.295 . S
O64 Fe47 1.997 . S
O64 C59 1.235 . S
C65 O48 1.295 . S
C65 O49 1.235 1_565 S
Fe66 O68 1.918 . S
Fe66 O71 1.997 . S
Fe66 O72 2.002 . S
Fe66 O77 1.976 . S
Fe66 O80 1.996 . S
Fe67 O68 1.918 . S
Fe67 O75 1.997 . S
Fe67 O78 1.996 . S
Fe67 O82 1.976 . S
Fe67 O85 2.002 . S
O68 Fe66 1.918 . S
O68 Fe67 1.918 . S
O68 Fe69 1.918 . S
Fe69 O68 1.918 . S
Fe69 O70 2.002 . S
Fe69 O79 1.976 . S
Fe69 O83 1.996 . S
Fe69 O86 1.997 . S
O70 Fe69 2.002 . S
O70 C87 1.295 . S
O71 Fe66 1.997 . S
O71 C87 1.235 . S
O72 Fe66 2.002 . S
O72 C73 1.295 . S
C73 O72 1.295 . S
C73 O75 1.235 . S
C74 O79 1.287 . S
C74 O80 1.255 . S
O75 Fe67 1.997 . S
O75 C73 1.235 . S
C76 O82 1.287 . S
C76 O83 1.255 . S
O77 Fe66 1.976 . S
O77 C84 1.287 . S
O78 Fe67 1.996 . S
O78 C84 1.255 . S
O79 Fe69 1.976 . S
O79 C74 1.287 . S
O80 Fe66 1.996 . S
O80 C74 1.255 . S
C81 O85 1.295 . S
C81 O86 1.235 . S
O82 Fe67 1.976 . S
O82 C76 1.287 . S
O83 Fe69 1.996 . S
O83 C76 1.255 . S
C84 O77 1.287 . S
C84 O78 1.255 . S
O85 Fe67 2.002 . S
O85 C81 1.295 . S
O86 Fe69 1.997 . S
O86 C81 1.235 . S
C87 O70 1.295 . S
C87 O71 1.235 . S
Fe88 O90 1.918 . S
Fe88 O93 1.997 . S
Fe88 O94 2.002 . S
Fe88 O99 1.976 . S
Fe88 O102 1.996 . S
Fe89 O90 1.918 . S
Fe89 O97 1.997 . S
Fe89 O100 1.996 . S
Fe89 O104 1.976 . S
Fe89 O107 2.002 . S
O90 Fe88 1.918 . S
O90 Fe89 1.918 . S
O90 Fe91 1.918 . S
Fe91 O90 1.918 . S
Fe91 O92 2.002 1_565 S
Fe91 O101 1.976 . S
Fe91 O105 1.996 . S
Fe91 O108 1.997 . S
O92 Fe91 2.002 1_545 S
O92 C109 1.295 1_545 S
O93 Fe88 1.997 . S
O93 C109 1.235 . S
O94 Fe88 2.002 . S
O94 C95 1.295 . S
C95 O94 1.295 . S
C95 O97 1.235 . S
C96 O101 1.287 . S
C96 O102 1.255 . S
O97 Fe89 1.997 . S
O97 C95 1.235 . S
C98 O104 1.287 . S
C98 O105 1.255 . S
O99 Fe88 1.976 . S
O99 C106 1.287 . S
O100 Fe89 1.996 . S
O100 C106 1.255 . S
O101 Fe91 1.976 . S
O101 C96 1.287 . S
O102 Fe88 1.996 . S
O102 C96 1.255 . S
C103 O107 1.295 . S
C103 O108 1.235 . S
O104 Fe89 1.976 . S
O104 C98 1.287 . S
O105 Fe91 1.996 . S
O105 C98 1.255 . S
C106 O99 1.287 . S
C106 O100 1.255 . S
O107 Fe89 2.002 . S
O107 C103 1.295 . S
O108 Fe91 1.997 . S
O108 C103 1.235 . S
C109 O92 1.295 1_565 S
C109 O93 1.235 . S
Fe110 O112 1.918 . S
Fe110 O115 1.997 . S
Fe110 O116 2.002 . S
Fe110 O121 1.976 . S
Fe110 O124 1.996 . S
Fe111 O112 1.918 . S
Fe111 O119 1.997 . S
Fe111 O122 1.996 . S
Fe111 O126 1.976 . S
Fe111 O129 2.002 . S
O112 Fe110 1.918 . S
O112 Fe111 1.918 . S
O112 Fe113 1.918 . S
Fe113 O112 1.918 . S
Fe113 O114 2.002 . S
Fe113 O123 1.976 . S
Fe113 O127 1.996 . S
Fe113 O130 1.997 . S
O114 Fe113 2.002 . S
O114 C131 1.295 . S
O115 Fe110 1.997 . S
O115 C131 1.235 . S
O116 Fe110 2.002 . S
O116 C117 1.295 . S
C117 O116 1.295 . S
C117 O119 1.235 . S
C118 O123 1.287 . S
C118 O124 1.255 . S
O119 Fe111 1.997 . S
O119 C117 1.235 . S
C120 O126 1.287 . S
C120 O127 1.255 . S
O121 Fe110 1.976 . S
O121 C128 1.287 . S
O122 Fe111 1.996 . S
O122 C128 1.255 . S
O123 Fe113 1.976 . S
O123 C118 1.287 . S
O124 Fe110 1.996 . S
O124 C118 1.255 . S
C125 O129 1.295 . S
C125 O130 1.235 . S
O126 Fe111 1.976 . S
O126 C120 1.287 . S
O127 Fe113 1.996 . S
O127 C120 1.255 . S
C128 O121 1.287 . S
C128 O122 1.255 . S
O129 Fe111 2.002 . S
O129 C125 1.295 . S
O130 Fe113 1.997 . S
O130 C125 1.235 . S
C131 O114 1.295 . S
C131 O115 1.235 . S
Fe132 O134 1.918 . S
Fe132 O137 1.997 . S
Fe132 O138 2.002 . S
Fe132 O143 1.976 . S
Fe132 O146 1.996 . S
Fe133 O134 1.918 . S
Fe133 O141 1.997 . S
Fe133 O144 1.996 . S
Fe133 O148 1.976 . S
Fe133 O151 2.002 . S
O134 Fe132 1.918 . S
O134 Fe133 1.918 . S
O134 Fe135 1.918 . S
Fe135 O134 1.918 . S
Fe135 O136 2.002 1_545 S
Fe135 O145 1.976 . S
Fe135 O149 1.996 . S
Fe135 O152 1.997 . S
O136 Fe135 2.002 1_565 S
O136 C153 1.295 1_565 S
O137 Fe132 1.997 . S
O137 C153 1.235 . S
O138 Fe132 2.002 . S
O138 C139 1.295 . S
C139 O138 1.295 . S
C139 O141 1.235 . S
C140 O145 1.287 . S
C140 O146 1.255 . S
O141 Fe133 1.997 . S
O141 C139 1.235 . S
C142 O148 1.287 . S
C142 O149 1.255 . S
O143 Fe132 1.976 . S
O143 C150 1.287 . S
O144 Fe133 1.996 . S
O144 C150 1.255 . S
O145 Fe135 1.976 . S
O145 C140 1.287 . S
O146 Fe132 1.996 . S
O146 C140 1.255 . S
C147 O151 1.295 . S
C147 O152 1.235 . S
O148 Fe133 1.976 . S
O148 C142 1.287 . S
O149 Fe135 1.996 . S
O149 C142 1.255 . S
C150 O143 1.287 . S
C150 O144 1.255 . S
O151 Fe133 2.002 . S
O151 C147 1.295 . S
O152 Fe135 1.997 . S
O152 C147 1.235 . S
C153 O136 1.295 1_545 S
C153 O137 1.235 . S
Fe154 O156 1.918 . S
Fe154 O159 1.997 . S
Fe154 O160 2.002 . S
Fe154 O165 1.976 . S
Fe154 O168 1.996 . S
Fe155 O156 1.918 . S
Fe155 O163 1.997 . S
Fe155 O166 1.996 . S
Fe155 O170 1.976 . S
Fe155 O173 2.002 . S
O156 Fe154 1.918 . S
O156 Fe155 1.918 . S
O156 Fe157 1.918 . S
Fe157 O156 1.918 . S
Fe157 O158 2.002 . S
Fe157 O167 1.976 . S
Fe157 O171 1.996 . S
Fe157 O174 1.997 . S
O158 Fe157 2.002 . S
O158 C175 1.295 . S
O159 Fe154 1.997 . S
O159 C175 1.235 . S
O160 Fe154 2.002 . S
O160 C161 1.295 . S
C161 O160 1.295 . S
C161 O163 1.235 . S
C162 O167 1.287 . S
C162 O168 1.255 . S
O163 Fe155 1.997 . S
O163 C161 1.235 . S
C164 O170 1.287 . S
C164 O171 1.255 . S
O165 Fe154 1.976 . S
O165 C172 1.287 . S
O166 Fe155 1.996 . S
O166 C172 1.255 . S
O167 Fe157 1.976 . S
O167 C162 1.287 . S
O168 Fe154 1.996 . S
O168 C162 1.255 . S
C169 O173 1.295 . S
C169 O174 1.235 . S
O170 Fe155 1.976 . S
O170 C164 1.287 . S
O171 Fe157 1.996 . S
O171 C164 1.255 . S
C172 O165 1.287 . S
C172 O166 1.255 . S
O173 Fe155 2.002 . S
O173 C169 1.295 . S
O174 Fe157 1.997 . S
O174 C169 1.235 . S
C175 O158 1.295 . S
C175 O159 1.235 . S
Fe176 O178 1.918 . S
Fe176 O181 1.997 . S
Fe176 O182 2.002 . S
Fe176 O187 1.976 . S
Fe176 O190 1.996 . S
Fe177 O178 1.918 . S
Fe177 O185 1.997 . S
Fe177 O188 1.996 . S
Fe177 O192 1.976 1_655 S
Fe177 O195 2.002 . S
O178 Fe176 1.918 . S
O178 Fe177 1.918 . S
O178 Fe179 1.918 . S
Fe179 O178 1.918 . S
Fe179 O180 2.002 . S
Fe179 O189 1.976 . S
Fe179 O193 1.996 1_655 S
Fe179 O196 1.997 . S
O180 Fe179 2.002 . S
O180 C197 1.295 . S
O181 Fe176 1.997 . S
O181 C197 1.235 . S
O182 Fe176 2.002 . S
O182 C183 1.295 . S
C183 O182 1.295 . S
C183 O185 1.235 . S
C184 O189 1.287 . S
C184 O190 1.255 . S
O185 Fe177 1.997 . S
O185 C183 1.235 . S
C186 O192 1.287 . S
C186 O193 1.255 . S
O187 Fe176 1.976 . S
O187 C194 1.287 . S
O188 Fe177 1.996 . S
O188 C194 1.255 . S
O189 Fe179 1.976 . S
O189 C184 1.287 . S
O190 Fe176 1.996 . S
O190 C184 1.255 . S
C191 O195 1.295 . S
C191 O196 1.235 . S
O192 Fe177 1.976 1_455 S
O192 C186 1.287 . S
O193 Fe179 1.996 1_455 S
O193 C186 1.255 . S
C194 O187 1.287 . S
C194 O188 1.255 . S
O195 Fe177 2.002 . S
O195 C191 1.295 . S
O196 Fe179 1.997 . S
O196 C191 1.235 . S
C197 O180 1.295 . S
C197 O181 1.235 . S
Fe198 O200 1.918 . S
Fe198 O203 1.997 . S
Fe198 O204 2.002 . S
Fe198 O209 1.976 1_455 S
Fe198 O212 1.996 . S
Fe199 O200 1.918 . S
Fe199 O207 1.997 1_565 S
Fe199 O210 1.996 1_455 S
Fe199 O214 1.976 . S
Fe199 O217 2.002 1_565 S
O200 Fe198 1.918 . S
O200 Fe199 1.918 . S
O200 Fe201 1.918 . S
Fe201 O200 1.918 . S
Fe201 O202 2.002 . S
Fe201 O211 1.976 . S
Fe201 O215 1.996 . S
Fe201 O218 1.997 . S
O202 Fe201 2.002 . S
O202 C219 1.295 . S
O203 Fe198 1.997 . S
O203 C219 1.235 . S
O204 Fe198 2.002 . S
O204 C205 1.295 . S
C205 O204 1.295 . S
C205 O207 1.235 1_565 S
C206 O211 1.287 . S
C206 O212 1.255 . S
O207 Fe199 1.997 1_545 S
O207 C205 1.235 1_545 S
C208 O214 1.287 . S
C208 O215 1.255 . S
O209 Fe198 1.976 1_655 S
O209 C216 1.287 . S
O210 Fe199 1.996 1_655 S
O210 C216 1.255 . S
O211 Fe201 1.976 . S
O211 C206 1.287 . S
O212 Fe198 1.996 . S
O212 C206 1.255 . S
C213 O217 1.295 1_565 S
C213 O218 1.235 . S
O214 Fe199 1.976 . S
O214 C208 1.287 . S
O215 Fe201 1.996 . S
O215 C208 1.255 . S
C216 O209 1.287 . S
C216 O210 1.255 . S
O217 Fe199 2.002 1_545 S
O217 C213 1.295 1_545 S
O218 Fe201 1.997 . S
O218 C213 1.235 . S
C219 O202 1.295 . S
C219 O203 1.235 . S
Fe220 O222 1.918 . S
Fe220 O225 1.997 . S
Fe220 O226 2.002 . S
Fe220 O231 1.976 . S
Fe220 O234 1.996 1_655 S
Fe221 O222 1.918 . S
Fe221 O229 1.997 . S
Fe221 O232 1.996 . S
Fe221 O236 1.976 . S
Fe221 O239 2.002 . S
O222 Fe220 1.918 . S
O222 Fe221 1.918 . S
O222 Fe223 1.918 . S
Fe223 O222 1.918 . S
Fe223 O224 2.002 . S
Fe223 O233 1.976 1_655 S
Fe223 O237 1.996 . S
Fe223 O240 1.997 . S
O224 Fe223 2.002 . S
O224 C241 1.295 . S
O225 Fe220 1.997 . S
O225 C241 1.235 . S
O226 Fe220 2.002 . S
O226 C227 1.295 . S
C227 O226 1.295 . S
C227 O229 1.235 . S
C228 O233 1.287 . S
C228 O234 1.255 . S
O229 Fe221 1.997 . S
O229 C227 1.235 . S
C230 O236 1.287 . S
C230 O237 1.255 . S
O231 Fe220 1.976 . S
O231 C238 1.287 . S
O232 Fe221 1.996 . S
O232 C238 1.255 . S
O233 Fe223 1.976 1_455 S
O233 C228 1.287 . S
O234 Fe220 1.996 1_455 S
O234 C228 1.255 . S
C235 O239 1.295 . S
C235 O240 1.235 . S
O236 Fe221 1.976 . S
O236 C230 1.287 . S
O237 Fe223 1.996 . S
O237 C230 1.255 . S
C238 O231 1.287 . S
C238 O232 1.255 . S
O239 Fe221 2.002 . S
O239 C235 1.295 . S
O240 Fe223 1.997 . S
O240 C235 1.235 . S
C241 O224 1.295 . S
C241 O225 1.235 . S
Fe242 O244 1.918 . S
Fe242 O247 1.997 1_545 S
Fe242 O248 2.002 1_545 S
Fe242 O253 1.976 . S
Fe242 O256 1.996 1_455 S
Fe243 O244 1.918 . S
Fe243 O251 1.997 . S
Fe243 O254 1.996 . S
Fe243 O258 1.976 . S
Fe243 O261 2.002 . S
O244 Fe242 1.918 . S
O244 Fe243 1.918 . S
O244 Fe245 1.918 . S
Fe245 O244 1.918 . S
Fe245 O246 2.002 . S
Fe245 O255 1.976 1_455 S
Fe245 O259 1.996 . S
Fe245 O262 1.997 . S
O246 Fe245 2.002 . S
O246 C263 1.295 . S
O247 Fe242 1.997 1_565 S
O247 C263 1.235 1_565 S
O248 Fe242 2.002 1_565 S
O248 C249 1.295 1_565 S
C249 O248 1.295 1_545 S
C249 O251 1.235 . S
C250 O255 1.287 . S
C250 O256 1.255 . S
O251 Fe243 1.997 . S
O251 C249 1.235 . S
C252 O258 1.287 . S
C252 O259 1.255 . S
O253 Fe242 1.976 . S
O253 C260 1.287 . S
O254 Fe243 1.996 . S
O254 C260 1.255 . S
O255 Fe245 1.976 1_655 S
O255 C250 1.287 . S
O256 Fe242 1.996 1_655 S
O256 C250 1.255 . S
C257 O261 1.295 . S
C257 O262 1.235 . S
O258 Fe243 1.976 . S
O258 C252 1.287 . S
O259 Fe245 1.996 . S
O259 C252 1.255 . S
C260 O253 1.287 . S
C260 O254 1.255 . S
O261 Fe243 2.002 . S
O261 C257 1.295 . S
O262 Fe245 1.997 . S
O262 C257 1.235 . S
C263 O246 1.295 . S
C263 O247 1.235 1_545 S
Fe264 O266 1.918 . S
Fe264 O269 1.997 . S
Fe264 O270 2.002 . S
Fe264 O275 1.976 . S
Fe264 O278 1.996 . S
Fe265 O266 1.918 . S
Fe265 O273 1.997 . S
Fe265 O276 1.996 . S
Fe265 O280 1.976 1_455 S
Fe265 O283 2.002 . S
O266 Fe264 1.918 . S
O266 Fe265 1.918 . S
O266 Fe267 1.918 . S
Fe267 O266 1.918 . S
Fe267 O268 2.002 . S
Fe267 O277 1.976 . S
Fe267 O281 1.996 1_455 S
Fe267 O284 1.997 . S
O268 Fe267 2.002 . S
O268 C285 1.295 . S
O269 Fe264 1.997 . S
O269 C285 1.235 . S
O270 Fe264 2.002 . S
O270 C271 1.295 . S
C271 O270 1.295 . S
C271 O273 1.235 . S
C272 O277 1.287 . S
C272 O278 1.255 . S
O273 Fe265 1.997 . S
O273 C271 1.235 . S
C274 O280 1.287 . S
C274 O281 1.255 . S
O275 Fe264 1.976 . S
O275 C282 1.287 . S
O276 Fe265 1.996 . S
O276 C282 1.255 . S
O277 Fe267 1.976 . S
O277 C272 1.287 . S
O278 Fe264 1.996 . S
O278 C272 1.255 . S
C279 O283 1.295 . S
C279 O284 1.235 . S
O280 Fe265 1.976 1_655 S
O280 C274 1.287 . S
O281 Fe267 1.996 1_655 S
O281 C274 1.255 . S
C282 O275 1.287 . S
C282 O276 1.255 . S
O283 Fe265 2.002 . S
O283 C279 1.295 . S
O284 Fe267 1.997 . S
O284 C279 1.235 . S
C285 O268 1.295 . S
C285 O269 1.235 . S
Fe286 O288 1.918 . S
Fe286 O291 1.997 . S
Fe286 O292 2.002 . S
Fe286 O297 1.976 . S
Fe286 O300 1.996 . S
Fe287 O288 1.918 . S
Fe287 O295 1.997 . S
Fe287 O298 1.996 . S
Fe287 O302 1.976 1_655 S
Fe287 O305 2.002 1_545 S
O288 Fe286 1.918 . S
O288 Fe287 1.918 . S
O288 Fe289 1.918 . S
Fe289 O288 1.918 . S
Fe289 O290 2.002 . S
Fe289 O299 1.976 . S
Fe289 O303 1.996 1_655 S
Fe289 O306 1.997 . S
O290 Fe289 2.002 . S
O290 C307 1.295 . S
O291 Fe286 1.997 . S
O291 C307 1.235 . S
O292 Fe286 2.002 . S
O292 C293 1.295 . S
C293 O292 1.295 . S
C293 O295 1.235 . S
C294 O299 1.287 . S
C294 O300 1.255 . S
O295 Fe287 1.997 . S
O295 C293 1.235 . S
C296 O302 1.287 . S
C296 O303 1.255 . S
O297 Fe286 1.976 . S
O297 C304 1.287 . S
O298 Fe287 1.996 . S
O298 C304 1.255 . S
O299 Fe289 1.976 . S
O299 C294 1.287 . S
O300 Fe286 1.996 . S
O300 C294 1.255 . S
C301 O305 1.295 1_545 S
C301 O306 1.235 . S
O302 Fe287 1.976 1_455 S
O302 C296 1.287 . S
O303 Fe289 1.996 1_455 S
O303 C296 1.255 . S
C304 O297 1.287 . S
C304 O298 1.255 . S
O305 Fe287 2.002 1_565 S
O305 C301 1.295 1_565 S
O306 Fe289 1.997 . S
O306 C301 1.235 . S
C307 O290 1.295 . S
C307 O291 1.235 . S
Fe308 O310 1.918 . S
Fe308 O313 1.997 . S
Fe308 O314 2.002 . S
Fe308 O319 1.976 . S
Fe308 O322 1.996 1_455 S
Fe309 O310 1.918 . S
Fe309 O317 1.997 . S
Fe309 O320 1.996 . S
Fe309 O324 1.976 . S
Fe309 O327 2.002 . S
O310 Fe308 1.918 . S
O310 Fe309 1.918 . S
O310 Fe311 1.918 . S
Fe311 O310 1.918 . S
Fe311 O312 2.002 . S
Fe311 O321 1.976 1_455 S
Fe311 O325 1.996 . S
Fe311 O328 1.997 . S
O312 Fe311 2.002 . S
O312 C329 1.295 . S
O313 Fe308 1.997 . S
O313 C329 1.235 . S
O314 Fe308 2.002 . S
O314 C315 1.295 . S
C315 O314 1.295 . S
C315 O317 1.235 . S
C316 O321 1.287 . S
C316 O322 1.255 . S
O317 Fe309 1.997 . S
O317 C315 1.235 . S
C318 O324 1.287 . S
C318 O325 1.255 . S
O319 Fe308 1.976 . S
O319 C326 1.287 . S
O320 Fe309 1.996 . S
O320 C326 1.255 . S
O321 Fe311 1.976 1_655 S
O321 C316 1.287 . S
O322 Fe308 1.996 1_655 S
O322 C316 1.255 . S
C323 O327 1.295 . S
C323 O328 1.235 . S
O324 Fe309 1.976 . S
O324 C318 1.287 . S
O325 Fe311 1.996 . S
O325 C318 1.255 . S
C326 O319 1.287 . S
C326 O320 1.255 . S
O327 Fe309 2.002 . S
O327 C323 1.295 . S
O328 Fe311 1.997 . S
O328 C323 1.235 . S
C329 O312 1.295 . S
C329 O313 1.235 . S
Fe330 O332 1.918 . S
Fe330 O335 1.997 . S
Fe330 O336 2.002 . S
Fe330 O341 1.976 . S
Fe330 O344 1.996 1_655 S
Fe331 O332 1.918 . S
Fe331 O339 1.997 . S
Fe331 O342 1.996 . S
Fe331 O346 1.976 . S
Fe331 O349 2.002 . S
O332 Fe330 1.918 . S
O332 Fe331 1.918 . S
O332 Fe333 1.918 . S
Fe333 O332 1.918 . S
Fe333 O334 2.002 1_565 S
Fe333 O343 1.976 1_655 S
Fe333 O347 1.996 . S
Fe333 O350 1.997 . S
O334 Fe333 2.002 1_545 S
O334 C351 1.295 1_545 S
O335 Fe330 1.997 . S
O335 C351 1.235 . S
O336 Fe330 2.002 . S
O336 C337 1.295 . S
C337 O336 1.295 . S
C337 O339 1.235 . S
C338 O343 1.287 . S
C338 O344 1.255 . S
O339 Fe331 1.997 . S
O339 C337 1.235 . S
C340 O346 1.287 . S
C340 O347 1.255 . S
O341 Fe330 1.976 . S
O341 C348 1.287 . S
O342 Fe331 1.996 . S
O342 C348 1.255 . S
O343 Fe333 1.976 1_455 S
O343 C338 1.287 . S
O344 Fe330 1.996 1_455 S
O344 C338 1.255 . S
C345 O349 1.295 . S
C345 O350 1.235 . S
O346 Fe331 1.976 . S
O346 C340 1.287 . S
O347 Fe333 1.996 . S
O347 C340 1.255 . S
C348 O341 1.287 . S
C348 O342 1.255 . S
O349 Fe331 2.002 . S
O349 C345 1.295 . S
O350 Fe333 1.997 . S
O350 C345 1.235 . S
C351 O334 1.295 1_565 S
C351 O335 1.235 . S
C352 C353 1.374 . S
C352 C354 1.419 1_554 S
C352 H356 0.930 . S
C353 C352 1.374 . S
C353 C362 1.424 1_565 S
C354 C352 1.419 1_556 S
C354 C355 1.363 1_565 S
C354 H357 0.929 . S
C355 C354 1.363 1_545 S
C355 C361 1.428 . S
H356 C352 0.930 . S
H357 C354 0.929 . S
S358 N359 1.613 1_556 S
S358 N360 1.610 . S
N359 S358 1.613 1_554 S
N359 C362 1.350 . S
N360 S358 1.610 . S
N360 C361 1.351 . S
C361 C355 1.428 . S
C361 N360 1.351 . S
C361 C362 1.434 1_556 S
C362 C353 1.424 1_545 S
C362 N359 1.350 . S
C362 C361 1.434 1_554 S
C363 C364 1.369 . S
C363 C365 1.419 1_554 S
C363 H367 0.930 . S
C364 C363 1.369 . S
C364 C373 1.429 . S
C365 C363 1.419 1_556 S
C365 C366 1.363 . S
C365 H368 0.929 . S
C366 C365 1.363 . S
C366 C372 1.428 . S
H367 C363 0.930 . S
H368 C365 0.929 . S
S369 N370 1.613 . S
S369 N371 1.640 . S
N370 S369 1.613 . S
N370 C373 1.350 . S
N371 S369 1.640 . S
N371 C372 1.349 1_554 S
C372 C366 1.428 . S
C372 N371 1.349 1_556 S
C372 C373 1.434 1_556 S
C373 C364 1.429 . S
C373 N370 1.350 . S
C373 C372 1.434 1_554 S
C374 C375 1.374 . S
C374 C376 1.419 . S
C374 H378 0.930 . S
C375 C374 1.374 . S
C375 C384 1.424 1_545 S
C376 C374 1.419 . S
C376 C377 1.363 1_545 S
C376 H379 0.929 . S
C377 C376 1.363 1_565 S
C377 C383 1.428 . S
H378 C374 0.930 . S
H379 C376 0.929 . S
S380 N381 1.613 . S
S380 N382 1.610 . S
N381 S380 1.613 . S
N381 C384 1.350 . S
N382 S380 1.610 . S
N382 C383 1.351 . S
C383 C377 1.428 . S
C383 N382 1.351 . S
C383 C384 1.434 . S
C384 C375 1.424 1_565 S
C384 N381 1.350 . S
C384 C383 1.434 . S
C385 C386 1.369 . S
C385 C387 1.419 . S
C385 H389 0.930 . S
C386 C385 1.369 . S
C386 C395 1.429 . S
C387 C385 1.419 . S
C387 C388 1.363 . S
C387 H390 0.929 . S
C388 C387 1.363 . S
C388 C394 1.428 . S
H389 C385 0.930 . S
H390 C387 0.929 . S
S391 N392 1.613 . S
S391 N393 1.610 . S
N392 S391 1.613 . S
N392 C395 1.350 . S
N393 S391 1.610 . S
N393 C394 1.351 . S
C394 C388 1.428 . S
C394 N393 1.351 . S
C394 C395 1.434 . S
C395 C386 1.429 . S
C395 N392 1.350 . S
C395 C394 1.434 . S
C396 C397 1.369 1_455 S
C396 C398 1.419 . S
C396 H400 0.930 . S
C397 C396 1.369 1_655 S
C397 C406 1.429 . S
C398 C396 1.419 . S
C398 C399 1.363 . S
C398 H401 0.929 . S
C399 C398 1.363 . S
C399 C405 1.428 1_455 S
H400 C396 0.930 . S
H401 C398 0.929 . S
S402 N403 1.613 . S
S402 N404 1.610 . S
N403 S402 1.613 . S
N403 C406 1.350 . S
N404 S402 1.610 . S
N404 C405 1.351 . S
C405 C399 1.428 1_655 S
C405 N404 1.351 . S
C405 C406 1.434 . S
C406 C397 1.429 . S
C406 N403 1.350 . S
C406 C405 1.434 . S
C407 C408 1.370 1_655 S
C407 C409 1.419 . S
C407 H411 0.930 . S
C408 C407 1.370 1_455 S
C408 C417 1.428 1_545 S
C409 C407 1.419 . S
C409 C410 1.362 1_545 S
C409 H412 0.929 . S
C410 C409 1.362 1_565 S
C410 C416 1.429 1_655 S
H411 C407 0.930 . S
H412 C409 0.929 . S
S413 N414 1.613 . S
S413 N415 1.610 . S
N414 S413 1.613 . S
N414 C417 1.350 . S
N415 S413 1.610 . S
N415 C416 1.351 . S
C416 C410 1.429 1_455 S
C416 N415 1.351 . S
C416 C417 1.434 . S
C417 C408 1.428 1_565 S
C417 N414 1.350 . S
C417 C416 1.434 . S
C418 C419 1.369 . S
C418 C420 1.419 1_556 S
C418 H422 0.930 . S
C419 C418 1.369 . S
C419 C428 1.429 1_655 S
C420 C418 1.419 1_554 S
C420 C421 1.363 1_655 S
C420 H423 0.929 . S
C421 C420 1.363 1_455 S
C421 C427 1.428 . S
H422 C418 0.930 . S
H423 C420 0.929 . S
S424 N425 1.613 . S
S424 N426 1.610 1_556 S
N425 S424 1.613 . S
N425 C428 1.350 . S
N426 S424 1.610 1_554 S
N426 C427 1.351 . S
C427 C421 1.428 . S
C427 N426 1.351 . S
C427 C428 1.434 1_554 S
C428 C419 1.429 1_455 S
C428 N425 1.350 . S
C428 C427 1.434 1_556 S
C429 C430 1.357 1_645 S
C429 C431 1.419 1_556 S
C429 H433 0.930 . S
C430 C429 1.357 1_465 S
C430 C439 1.441 . S
C431 C429 1.419 1_554 S
C431 C432 1.370 . S
C431 H434 0.929 . S
C432 C431 1.370 . S
C432 C438 1.421 1_645 S
H433 C429 0.930 . S
H434 C431 0.929 . S
S435 N436 1.613 1_554 S
S435 N437 1.610 . S
N436 S435 1.613 1_556 S
N436 C439 1.350 . S
N437 S435 1.610 . S
N437 C438 1.351 . S
C438 C432 1.421 1_465 S
C438 N437 1.351 . S
C438 C439 1.434 1_554 S
C439 C430 1.441 . S
C439 N436 1.350 . S
C439 C438 1.434 1_556 S
C440 C441 1.369 1_565 S
C440 C442 1.419 . S
C440 H444 0.930 . S
C441 C440 1.369 1_545 S
C441 C450 1.429 . S
C442 C440 1.419 . S
C442 C443 1.363 . S
C442 H445 0.929 . S
C443 C442 1.363 . S
C443 C449 1.428 1_565 S
H444 C440 0.930 . S
H445 C442 0.929 . S
S446 N447 1.613 . S
S446 N448 1.610 . S
N447 S446 1.613 . S
N447 C450 1.350 . S
N448 S446 1.610 . S
N448 C449 1.351 . S
C449 C443 1.428 1_545 S
C449 N448 1.351 . S
C449 C450 1.434 . S
C450 C441 1.429 . S
C450 N447 1.350 . S
C450 C449 1.434 . S
C451 C452 1.369 . S
C451 C453 1.419 . S
C451 H455 0.930 . S
C452 C451 1.369 . S
C452 C461 1.429 . S
C453 C451 1.419 . S
C453 C454 1.363 . S
C453 H456 0.929 . S
C454 C453 1.363 . S
C454 C460 1.428 . S
H455 C451 0.930 . S
H456 C453 0.929 . S
S457 N458 1.613 . S
S457 N459 1.610 . S
N458 S457 1.613 . S
N458 C461 1.350 . S
N459 S457 1.610 . S
N459 C460 1.351 . S
C460 C454 1.428 . S
C460 N459 1.351 . S
C460 C461 1.434 . S
C461 C452 1.429 . S
C461 N458 1.350 . S
C461 C460 1.434 . S
C462 C463 1.369 . S
C462 C464 1.419 . S
C462 H466 0.930 . S
C463 C462 1.369 . S
C463 C472 1.429 1_565 S
C464 C462 1.419 . S
C464 C465 1.363 1_565 S
C464 H467 0.929 . S
C465 C464 1.363 1_545 S
C465 C471 1.428 . S
H466 C462 0.930 . S
H467 C464 0.929 . S
S468 N469 1.613 . S
S468 N470 1.610 . S
N469 S468 1.613 . S
N469 C472 1.350 . S
N470 S468 1.610 . S
N470 C471 1.351 . S
C471 C465 1.428 . S
C471 N470 1.351 . S
C471 C472 1.434 . S
C472 C463 1.429 1_545 S
C472 N469 1.350 . S
C472 C471 1.434 . S
C473 C474 1.369 . S
C473 C475 1.419 . S
C473 H477 0.930 . S
C474 C473 1.369 . S
C474 C483 1.429 . S
C475 C473 1.419 . S
C475 C476 1.363 . S
C475 H478 0.929 . S
C476 C475 1.363 . S
C476 C482 1.428 . S
H477 C473 0.930 . S
H478 C475 0.929 . S
S479 N480 1.613 . S
S479 N481 1.610 . S
N480 S479 1.613 . S
N480 C483 1.350 . S
N481 S479 1.610 . S
N481 C482 1.351 . S
C482 C476 1.428 . S
C482 N481 1.351 . S
C482 C483 1.434 . S
C483 C474 1.429 . S
C483 N480 1.350 . S
C483 C482 1.434 . S
C484 C485 1.369 . S
C484 C486 1.419 . S
C484 H488 0.930 . S
C485 C484 1.369 . S
C485 C494 1.429 . S
C486 C484 1.419 . S
C486 C487 1.363 . S
C486 H489 0.929 . S
C487 C486 1.363 . S
C487 C493 1.428 . S
H488 C484 0.930 . S
H489 C486 0.929 . S
S490 N491 1.613 . S
S490 N492 1.610 . S
N491 S490 1.613 . S
N491 C494 1.350 . S
N492 S490 1.610 . S
N492 C493 1.351 . S
C493 C487 1.428 . S
C493 N492 1.351 . S
C493 C494 1.434 . S
C494 C485 1.429 . S
C494 N491 1.350 . S
C494 C493 1.434 . S
C495 C496 1.369 1_565 S
C495 C497 1.419 . S
C495 H499 0.930 . S
C496 C495 1.369 1_545 S
C496 C505 1.429 . S
C497 C495 1.419 . S
C497 C498 1.363 . S
C497 H500 0.929 . S
C498 C497 1.363 . S
C498 C504 1.428 1_565 S
H499 C495 0.930 . S
H500 C497 0.929 . S
S501 N502 1.613 . S
S501 N503 1.610 . S
N502 S501 1.613 . S
N502 C505 1.350 . S
N503 S501 1.610 . S
N503 C504 1.351 . S
C504 C498 1.428 1_545 S
C504 N503 1.351 . S
C504 C505 1.434 . S
C505 C496 1.429 . S
C505 N502 1.350 . S
C505 C504 1.434 . S
C506 C507 1.369 . S
C506 C508 1.419 . S
C506 H510 0.930 . S
C507 C506 1.369 . S
C507 C516 1.429 . S
C508 C506 1.419 . S
C508 C509 1.363 . S
C508 H511 0.929 . S
C509 C508 1.363 . S
C509 C515 1.428 . S
H510 C506 0.930 . S
H511 C508 0.929 . S
S512 N513 1.613 1_655 S
S512 N514 1.610 1_655 S
N513 S512 1.613 1_455 S
N513 C516 1.350 . S
N514 S512 1.610 1_455 S
N514 C515 1.351 . S
C515 C509 1.428 . S
C515 N514 1.351 . S
C515 C516 1.434 . S
C516 C507 1.429 . S
C516 N513 1.350 . S
C516 C515 1.434 . S
C517 C518 1.369 1_565 S
C517 C519 1.419 . S
C517 H521 0.930 . S
C518 C517 1.369 1_545 S
C518 C527 1.429 . S
C519 C517 1.419 . S
C519 C520 1.363 . S
C519 H522 0.929 . S
C520 C519 1.363 . S
C520 C526 1.428 1_565 S
H521 C517 0.930 . S
H522 C519 0.929 . S
S523 N524 1.613 . S
S523 N525 1.610 . S
N524 S523 1.613 . S
N524 C527 1.350 . S
N525 S523 1.610 . S
N525 C526 1.351 . S
C526 C520 1.428 1_545 S
C526 N525 1.351 . S
C526 C527 1.434 . S
C527 C518 1.429 . S
C527 N524 1.350 . S
C527 C526 1.434 . S
C528 C529 1.369 . S
C528 C530 1.419 1_554 S
C528 H532 0.930 . S
C529 C528 1.369 . S
C529 C538 1.429 . S
C530 C528 1.419 1_556 S
C530 C531 1.363 . S
C530 H533 0.929 . S
C531 C530 1.363 . S
C531 C537 1.428 . S
H532 C528 0.930 . S
H533 C530 0.929 . S
S534 N535 1.613 . S
S534 N536 1.610 1_554 S
N535 S534 1.613 . S
N535 C538 1.350 . S
N536 S534 1.610 1_556 S
N536 C537 1.351 . S
C537 C531 1.428 . S
C537 N536 1.351 . S
C537 C538 1.434 1_556 S
C538 C529 1.429 . S
C538 N535 1.350 . S
C538 C537 1.434 1_554 S
C539 C540 1.369 . S
C539 C541 1.419 1_556 S
C539 H543 0.930 . S
C540 C539 1.369 . S
C540 C549 1.429 . S
C541 C539 1.419 1_554 S
C541 C542 1.363 . S
C541 H544 0.929 . S
C542 C541 1.363 . S
C542 C548 1.428 . S
H543 C539 0.930 . S
H544 C541 0.929 . S
S545 N546 1.613 . S
S545 N547 1.610 . S
N546 S545 1.613 . S
N546 C549 1.350 . S
N547 S545 1.610 . S
N547 C548 1.351 1_556 S
C548 C542 1.428 . S
C548 N547 1.351 1_554 S
C548 C549 1.434 1_554 S
C549 C540 1.429 . S
C549 N546 1.350 . S
C549 C548 1.434 1_556 S
C550 C551 1.369 . S
C550 C552 1.419 . S
C550 H554 0.930 . S
C551 C550 1.369 . S
C551 C560 1.429 . S
C552 C550 1.419 . S
C552 C553 1.363 . S
C552 H555 0.929 . S
C553 C552 1.363 . S
C553 C559 1.428 . S
H554 C550 0.930 . S
H555 C552 0.929 . S
S556 N557 1.613 . S
S556 N558 1.610 . S
N557 S556 1.613 . S
N557 C560 1.350 . S
N558 S556 1.610 . S
N558 C559 1.351 . S
C559 C553 1.428 . S
C559 N558 1.351 . S
C559 C560 1.434 . S
C560 C551 1.429 . S
C560 N557 1.350 . S
C560 C559 1.434 . S
C561 C562 1.369 . S
C561 C563 1.419 . S
C561 H565 0.930 . S
C562 C561 1.369 . S
C562 C571 1.429 . S
C563 C561 1.419 . S
C563 C564 1.363 . S
C563 H566 0.929 . S
C564 C563 1.363 . S
C564 C570 1.428 . S
H565 C561 0.930 . S
H566 C563 0.929 . S
S567 N568 1.613 . S
S567 N569 1.610 . S
N568 S567 1.613 . S
N568 C571 1.350 . S
N569 S567 1.610 . S
N569 C570 1.351 . S
C570 C564 1.428 . S
C570 N569 1.351 . S
C570 C571 1.434 . S
C571 C562 1.429 . S
C571 N568 1.350 . S
C571 C570 1.434 . S
C572 C573 1.369 1_554 S
C572 C574 1.419 . S
C572 H576 0.930 . S
C573 C572 1.369 1_556 S
C573 C582 1.429 . S
C574 C572 1.419 . S
C574 C575 1.363 . S
C574 H577 0.929 . S
C575 C574 1.363 . S
C575 C581 1.428 1_554 S
H576 C572 0.930 . S
H577 C574 0.929 . S
S578 N579 1.613 . S
S578 N580 1.610 . S
N579 S578 1.613 . S
N579 C582 1.350 . S
N580 S578 1.610 . S
N580 C581 1.351 . S
C581 C575 1.428 1_556 S
C581 N580 1.351 . S
C581 C582 1.434 . S
C582 C573 1.429 . S
C582 N579 1.350 . S
C582 C581 1.434 . S
C583 C584 1.369 1_554 S
C583 C585 1.419 . S
C583 H587 0.930 . S
C584 C583 1.369 1_556 S
C584 C593 1.429 . S
C585 C583 1.419 . S
C585 C586 1.363 . S
C585 H588 0.929 . S
C586 C585 1.363 . S
C586 C592 1.428 1_554 S
H587 C583 0.930 . S
H588 C585 0.929 . S
S589 N590 1.613 . S
S589 N591 1.610 . S
N590 S589 1.613 . S
N590 C593 1.350 . S
N591 S589 1.610 . S
N591 C592 1.351 . S
C592 C586 1.428 1_556 S
C592 N591 1.351 . S
C592 C593 1.434 . S
C593 C584 1.429 . S
C593 N590 1.350 . S
C593 C592 1.434 . S
C594 C595 1.369 . S
C594 C596 1.419 . S
C594 H598 0.930 . S
C595 C594 1.369 . S
C595 C604 1.429 . S
C596 C594 1.419 . S
C596 C597 1.363 . S
C596 H599 0.929 . S
C597 C596 1.363 . S
C597 C603 1.428 . S
H598 C594 0.930 . S
H599 C596 0.929 . S
S600 N601 1.613 . S
S600 N602 1.610 . S
N601 S600 1.613 . S
N601 C604 1.350 . S
N602 S600 1.610 . S
N602 C603 1.351 . S
C603 C597 1.428 . S
C603 N602 1.351 . S
C603 C604 1.434 . S
C604 C595 1.429 . S
C604 N601 1.350 . S
C604 C603 1.434 . S
C605 C606 1.369 . S
C605 C607 1.419 . S
C605 H609 0.930 . S
C606 C605 1.369 . S
C606 C615 1.429 . S
C607 C605 1.419 . S
C607 C608 1.363 . S
C607 H610 0.929 . S
C608 C607 1.363 . S
C608 C614 1.428 . S
H609 C605 0.930 . S
H610 C607 0.929 . S
S611 N612 1.613 . S
S611 N613 1.610 . S
N612 S611 1.613 . S
N612 C615 1.350 . S
N613 S611 1.610 . S
N613 C614 1.351 . S
C614 C608 1.428 . S
C614 N613 1.351 . S
C614 C615 1.434 . S
C615 C606 1.429 . S
C615 N612 1.350 . S
C615 C614 1.434 . S
C616 C617 1.369 . S
C616 C618 1.419 . S
C616 H620 0.930 . S
C617 C616 1.369 . S
C617 C626 1.429 1_545 S
C618 C616 1.419 . S
C618 C619 1.391 . S
C618 H621 0.929 . S
C619 C618 1.391 . S
C619 C625 1.414 1_545 S
H620 C616 0.930 . S
H621 C618 0.929 . S
S622 N623 1.613 . S
S622 N624 1.610 . S
N623 S622 1.613 . S
N623 C626 1.350 . S
N624 S622 1.610 . S
N624 C625 1.351 . S
C625 C619 1.414 1_565 S
C625 N624 1.351 . S
C625 C626 1.434 . S
C626 C617 1.429 1_565 S
C626 N623 1.350 . S
C626 C625 1.434 . S
C627 C628 1.369 . S
C627 C629 1.419 . S
C627 H631 0.930 . S
C628 C627 1.369 . S
C628 C637 1.429 . S
C629 C627 1.419 . S
C629 C630 1.363 . S
C629 H632 0.929 . S
C630 C629 1.363 . S
C630 C636 1.428 . S
H631 C627 0.930 . S
H632 C629 0.929 . S
S633 N634 1.613 . S
S633 N635 1.610 . S
N634 S633 1.613 . S
N634 C637 1.350 . S
N635 S633 1.610 . S
N635 C636 1.351 . S
C636 C630 1.428 . S
C636 N635 1.351 . S
C636 C637 1.434 . S
C637 C628 1.429 . S
C637 N634 1.350 . S
C637 C636 1.434 . S
C638 C639 1.369 . S
C638 C640 1.419 . S
C638 H642 0.930 . S
C639 C638 1.369 . S
C639 C648 1.429 1_565 S
C640 C638 1.419 . S
C640 C641 1.391 . S
C640 H643 0.929 . S
C641 C640 1.391 . S
C641 C647 1.414 1_565 S
H642 C638 0.930 . S
H643 C640 0.929 . S
S644 N645 1.613 . S
S644 N646 1.610 . S
N645 S644 1.613 . S
N645 C648 1.350 . S
N646 S644 1.610 . S
N646 C647 1.351 . S
C647 C641 1.414 1_545 S
C647 N646 1.351 . S
C647 C648 1.434 . S
C648 C639 1.429 1_545 S
C648 N645 1.350 . S
C648 C647 1.434 . S
C649 C650 1.369 . S
C649 C651 1.419 . S
C649 H653 0.930 . S
C650 C649 1.369 . S
C650 C659 1.429 . S
C651 C649 1.419 . S
C651 C652 1.363 . S
C651 H654 0.929 . S
C652 C651 1.363 . S
C652 C658 1.428 . S
H653 C649 0.930 . S
H654 C651 0.929 . S
S655 N656 1.613 . S
S655 N657 1.610 . S
N656 S655 1.613 . S
N656 C659 1.350 . S
N657 S655 1.610 . S
N657 C658 1.351 . S
C658 C652 1.428 . S
C658 N657 1.351 . S
C658 C659 1.434 . S
C659 C650 1.429 . S
C659 N656 1.350 . S
C659 C658 1.434 . S
C660 C661 1.369 . S
C660 C662 1.419 . S
C660 H664 0.929 1_565 S
C661 C660 1.369 . S
C661 C670 1.429 . S
C662 C660 1.419 . S
C662 C663 1.363 . S
C662 H665 0.929 . S
C663 C662 1.363 . S
C663 C669 1.428 . S
H664 C660 0.929 1_545 S
H665 C662 0.929 . S
S666 N667 1.613 . S
S666 N668 1.610 . S
N667 S666 1.613 . S
N667 C670 1.350 . S
N668 S666 1.610 . S
N668 C669 1.351 . S
C669 C663 1.428 . S
C669 N668 1.351 . S
C669 C670 1.434 . S
C670 C661 1.429 . S
C670 N667 1.350 . S
C670 C669 1.434 . S
C671 C672 1.369 . S
C671 C673 1.419 . S
C671 H675 0.930 . S
C672 C671 1.369 . S
C672 C681 1.429 . S
C673 C671 1.419 . S
C673 C674 1.363 . S
C673 H676 0.929 . S
C674 C673 1.363 . S
C674 C680 1.428 . S
H675 C671 0.930 . S
H676 C673 0.929 . S
S677 N678 1.613 . S
S677 N679 1.610 . S
N678 S677 1.613 . S
N678 C681 1.350 . S
N679 S677 1.610 . S
N679 C680 1.351 . S
C680 C674 1.428 . S
C680 N679 1.351 . S
C680 C681 1.434 . S
C681 C672 1.429 . S
C681 N678 1.350 . S
C681 C680 1.434 . S
C682 C683 1.369 . S
C682 C684 1.419 . S
C682 H686 0.930 . S
C683 C682 1.369 . S
C683 C692 1.427 1_545 S
C684 C682 1.419 . S
C684 C685 1.363 . S
C684 H687 0.929 . S
C685 C684 1.363 . S
C685 C691 1.428 . S
H686 C682 0.930 . S
H687 C684 0.929 . S
S688 N689 1.613 . S
S688 N690 1.610 1_565 S
N689 S688 1.613 . S
N689 C692 1.359 . S
N690 S688 1.610 1_545 S
N690 C691 1.351 . S
C691 C685 1.428 . S
C691 N690 1.351 . S
C691 C692 1.425 1_545 S
C692 C683 1.427 1_565 S
C692 N689 1.359 . S
C692 C691 1.425 1_565 S
C693 C694 1.369 . S
C693 C695 1.419 . S
C693 H697 0.930 . S
C694 C693 1.369 . S
C694 C703 1.429 . S
C695 C693 1.419 . S
C695 C696 1.363 . S
C695 H698 0.929 . S
C696 C695 1.363 . S
C696 C702 1.428 . S
H697 C693 0.930 . S
H698 C695 0.929 . S
S699 N700 1.613 . S
S699 N701 1.610 . S
N700 S699 1.613 . S
N700 C703 1.350 . S
N701 S699 1.610 . S
N701 C702 1.351 . S
C702 C696 1.428 . S
C702 N701 1.351 . S
C702 C703 1.434 . S
C703 C694 1.429 . S
C703 N700 1.350 . S
C703 C702 1.434 . S
C704 C705 1.369 . S
C704 C706 1.419 . S
C704 H708 0.930 . S
C705 C704 1.369 . S
C705 C714 1.429 . S
C706 C704 1.419 . S
C706 C707 1.363 . S
C706 H709 0.929 . S
C707 C706 1.363 . S
C707 C713 1.428 . S
H708 C704 0.930 . S
H709 C706 0.929 . S
S710 N711 1.613 . S
S710 N712 1.610 . S
N711 S710 1.613 . S
N711 C714 1.350 . S
N712 S710 1.610 . S
N712 C713 1.351 . S
C713 C707 1.428 . S
C713 N712 1.351 . S
C713 C714 1.434 . S
C714 C705 1.429 . S
C714 N711 1.350 . S
C714 C713 1.434 . S
C715 C716 1.369 1_545 S
C715 C717 1.419 1_545 S
C715 H719 0.930 . S
C716 C715 1.369 1_565 S
C716 C725 1.429 . S
C717 C715 1.419 1_565 S
C717 C718 1.363 . S
C717 H720 0.929 . S
C718 C717 1.363 . S
C718 C724 1.428 . S
H719 C715 0.930 . S
H720 C717 0.929 . S
S721 N722 1.613 . S
S721 N723 1.610 . S
N722 S721 1.613 . S
N722 C725 1.350 . S
N723 S721 1.610 . S
N723 C724 1.351 . S
C724 C718 1.428 . S
C724 N723 1.351 . S
C724 C725 1.434 . S
C725 C716 1.429 . S
C725 N722 1.350 . S
C725 C724 1.434 . S
C726 C727 1.369 . S
C726 C728 1.419 . S
C726 H730 0.930 . S
C727 C726 1.369 . S
C727 C736 1.429 . S
C728 C726 1.419 . S
C728 C729 1.363 . S
C728 H731 0.929 . S
C729 C728 1.363 . S
C729 C735 1.428 . S
H730 C726 0.930 . S
H731 C728 0.929 . S
S732 N733 1.613 . S
S732 N734 1.610 . S
N733 S732 1.613 . S
N733 C736 1.350 . S
N734 S732 1.610 . S
N734 C735 1.351 . S
C735 C729 1.428 . S
C735 N734 1.351 . S
C735 C736 1.434 . S
C736 C727 1.429 . S
C736 N733 1.350 . S
C736 C735 1.434 . S
C737 C738 1.369 . S
C737 C739 1.419 . S
C737 H741 0.930 . S
C738 C737 1.369 . S
C738 C747 1.429 1_545 S
C739 C737 1.419 . S
C739 C740 1.391 . S
C739 H742 0.929 . S
C740 C739 1.391 . S
C740 C746 1.414 1_545 S
H741 C737 0.930 . S
H742 C739 0.929 . S
S743 N744 1.613 . S
S743 N745 1.610 . S
N744 S743 1.613 . S
N744 C747 1.350 . S
N745 S743 1.610 . S
N745 C746 1.351 . S
C746 C740 1.414 1_565 S
C746 N745 1.351 . S
C746 C747 1.434 . S
C747 C738 1.429 1_565 S
C747 N744 1.350 . S
C747 C746 1.434 . S
C748 C749 1.369 . S
C748 C750 1.419 . S
C748 H752 0.930 . S
C749 C748 1.369 . S
C749 C758 1.429 . S
C750 C748 1.419 . S
C750 C751 1.363 . S
C750 H753 0.929 . S
C751 C750 1.363 . S
C751 C757 1.428 . S
H752 C748 0.930 . S
H753 C750 0.929 . S
S754 N755 1.613 . S
S754 N756 1.610 . S
N755 S754 1.613 . S
N755 C758 1.350 . S
N756 S754 1.610 . S
N756 C757 1.351 . S
C757 C751 1.428 . S
C757 N756 1.351 . S
C757 C758 1.434 . S
C758 C749 1.429 . S
C758 N755 1.350 . S
C758 C757 1.434 . S
C759 C760 1.369 1_565 S
C759 C761 1.419 1_565 S
C759 H763 0.930 . S
C760 C759 1.369 1_545 S
C760 C769 1.429 . S
C761 C759 1.419 1_545 S
C761 C762 1.363 . S
C761 H764 0.929 1_545 S
C762 C761 1.363 . S
C762 C768 1.428 . S
H763 C759 0.930 . S
H764 C761 0.929 1_565 S
S765 N766 1.613 . S
S765 N767 1.610 . S
N766 S765 1.613 . S
N766 C769 1.350 . S
N767 S765 1.610 . S
N767 C768 1.351 . S
C768 C762 1.428 . S
C768 N767 1.351 . S
C768 C769 1.434 . S
C769 C760 1.429 . S
C769 N766 1.350 . S
C769 C768 1.434 . S
C770 C771 1.369 . S
C770 C772 1.419 . S
C770 H774 0.930 . S
C771 C770 1.369 . S
C771 C780 1.429 . S
C772 C770 1.419 . S
C772 C773 1.363 . S
C772 H775 0.929 . S
C773 C772 1.363 . S
C773 C779 1.428 . S
H774 C770 0.930 . S
H775 C772 0.929 . S
S776 N777 1.613 . S
S776 N778 1.610 . S
N777 S776 1.613 . S
N777 C780 1.350 . S
N778 S776 1.610 . S
N778 C779 1.351 . S
C779 C773 1.428 . S
C779 N778 1.351 . S
C779 C780 1.434 . S
C780 C771 1.429 . S
C780 N777 1.350 . S
C780 C779 1.434 . S
C781 C782 1.369 . S
C781 C783 1.419 . S
C781 H785 0.930 1_565 S
C782 C781 1.369 . S
C782 C791 1.429 . S
C783 C781 1.419 . S
C783 C784 1.363 . S
C783 H786 0.929 . S
C784 C783 1.363 . S
C784 C790 1.428 . S
H785 C781 0.930 1_545 S
H786 C783 0.929 . S
S787 N788 1.613 . S
S787 N789 1.610 . S
N788 S787 1.613 . S
N788 C791 1.350 . S
N789 S787 1.610 . S
N789 C790 1.351 . S
C790 C784 1.428 . S
C790 N789 1.351 . S
C790 C791 1.434 . S
C791 C782 1.429 . S
C791 N788 1.350 . S
C791 C790 1.434 . S
C792 C793 1.369 . S
C792 C794 1.419 . S
C792 H796 0.930 . S
C793 C792 1.369 . S
C793 C802 1.429 . S
C794 C792 1.419 . S
C794 C795 1.363 . S
C794 H797 0.929 . S
C795 C794 1.363 . S
C795 C801 1.428 . S
H796 C792 0.930 . S
H797 C794 0.929 . S
S798 N799 1.613 . S
S798 N800 1.610 . S
N799 S798 1.613 . S
N799 C802 1.350 . S
N800 S798 1.610 . S
N800 C801 1.351 . S
C801 C795 1.428 . S
C801 N800 1.351 . S
C801 C802 1.434 . S
C802 C793 1.429 . S
C802 N799 1.350 . S
C802 C801 1.434 . S
C803 C804 1.369 . S
C803 C805 1.419 . S
C803 H807 0.930 . S
C804 C803 1.369 . S
C804 C813 1.429 . S
C805 C803 1.419 . S
C805 C806 1.363 . S
C805 H808 0.929 . S
C806 C805 1.363 . S
C806 C812 1.428 . S
H807 C803 0.930 . S
H808 C805 0.929 . S
S809 N810 1.613 . S
S809 N811 1.610 . S
N810 S809 1.613 . S
N810 C813 1.350 . S
N811 S809 1.610 . S
N811 C812 1.351 . S
C812 C806 1.428 . S
C812 N811 1.351 . S
C812 C813 1.434 . S
C813 C804 1.429 . S
C813 N810 1.350 . S
C813 C812 1.434 . S
C814 C815 1.369 . S
C814 C816 1.419 . S
C814 H818 0.930 . S
C815 C814 1.369 . S
C815 C824 1.429 . S
C816 C814 1.419 . S
C816 C817 1.363 . S
C816 H819 0.929 . S
C817 C816 1.363 . S
C817 C823 1.428 . S
H818 C814 0.930 . S
H819 C816 0.929 . S
S820 N821 1.613 . S
S820 N822 1.610 . S
N821 S820 1.613 . S
N821 C824 1.350 . S
N822 S820 1.610 . S
N822 C823 1.351 . S
C823 C817 1.428 . S
C823 N822 1.351 . S
C823 C824 1.434 . S
C824 C815 1.429 . S
C824 N821 1.350 . S
C824 C823 1.434 . S
C825 C826 1.369 . S
C825 C827 1.419 . S
C825 H829 0.930 . S
C826 C825 1.369 . S
C826 C835 1.429 . S
C827 C825 1.419 . S
C827 C828 1.363 . S
C827 H830 0.929 . S
C828 C827 1.363 . S
C828 C834 1.428 . S
H829 C825 0.930 . S
H830 C827 0.929 . S
S831 N832 1.613 . S
S831 N833 1.610 . S
N832 S831 1.613 . S
N832 C835 1.350 . S
N833 S831 1.610 . S
N833 C834 1.351 . S
C834 C828 1.428 . S
C834 N833 1.351 . S
C834 C835 1.434 . S
C835 C826 1.429 . S
C835 N832 1.350 . S
C835 C834 1.434 . S
C836 C837 1.369 . S
C836 C838 1.419 . S
C836 H840 0.930 . S
C837 C836 1.369 . S
C837 C846 1.429 1_455 S
C838 C836 1.419 . S
C838 C839 1.363 1_455 S
C838 H841 0.929 . S
C839 C838 1.363 1_655 S
C839 C845 1.428 . S
H840 C836 0.930 . S
H841 C838 0.929 . S
S842 N843 1.613 . S
S842 N844 1.610 . S
N843 S842 1.613 . S
N843 C846 1.350 . S
N844 S842 1.610 . S
N844 C845 1.351 . S
C845 C839 1.428 . S
C845 N844 1.351 . S
C845 C846 1.434 . S
C846 C837 1.429 1_655 S
C846 N843 1.350 . S
C846 C845 1.434 . S
C847 C848 1.369 1_455 S
C847 C849 1.419 . S
C847 H851 0.930 . S
C848 C847 1.369 1_655 S
C848 C857 1.429 . S
C849 C847 1.419 . S
C849 C850 1.363 . S
C849 H852 0.929 . S
C850 C849 1.363 . S
C850 C856 1.428 1_455 S
H851 C847 0.930 . S
H852 C849 0.929 . S
S853 N854 1.613 . S
S853 N855 1.610 . S
N854 S853 1.613 . S
N854 C857 1.350 . S
N855 S853 1.610 . S
N855 C856 1.351 . S
C856 C850 1.428 1_655 S
C856 N855 1.351 . S
C856 C857 1.434 . S
C857 C848 1.429 . S
C857 N854 1.350 . S
C857 C856 1.434 . S
C858 C859 1.369 . S
C858 C860 1.419 1_655 S
C858 H862 0.930 . S
C859 C858 1.369 . S
C859 C868 1.429 . S
C860 C858 1.419 1_455 S
C860 C861 1.363 . S
C860 H863 0.929 . S
C861 C860 1.363 . S
C861 C867 1.428 . S
H862 C858 0.930 . S
H863 C860 0.929 . S
S864 N865 1.613 . S
S864 N866 1.610 1_655 S
N865 S864 1.613 . S
N865 C868 1.350 . S
N866 S864 1.610 1_455 S
N866 C867 1.351 . S
C867 C861 1.428 . S
C867 N866 1.351 . S
C867 C868 1.434 1_455 S
C868 C859 1.429 . S
C868 N865 1.350 . S
C868 C867 1.434 1_655 S
C869 C870 1.369 . S
C869 C871 1.419 . S
C869 H873 0.930 . S
C870 C869 1.369 . S
C870 C879 1.429 1_655 S
C871 C869 1.419 . S
C871 C872 1.363 1_655 S
C871 H874 0.929 . S
C872 C871 1.363 1_455 S
C872 C878 1.428 . S
H873 C869 0.930 . S
H874 C871 0.929 . S
S875 N876 1.613 . S
S875 N877 1.610 . S
N876 S875 1.613 . S
N876 C879 1.350 . S
N877 S875 1.610 . S
N877 C878 1.351 . S
C878 C872 1.428 . S
C878 N877 1.351 . S
C878 C879 1.434 . S
C879 C870 1.429 1_455 S
C879 N876 1.350 . S
C879 C878 1.434 . S
C353 C15 1.089 1_565 S
C355 C109 1.100 1_545 S
C364 C29 1.084 . S
C366 C125 1.106 . S
C375 C65 1.089 1_545 S
C377 C153 1.100 1_565 S
C386 C73 1.094 . S
C388 C175 1.099 . S
C397 C191 1.091 . S
C399 C279 1.101 . S
C408 C205 1.089 1_545 S
C410 C301 1.088 1_565 S
C419 C241 1.082 . S
C421 C329 1.108 . S
C430 C263 1.088 1_565 S
C432 C351 1.089 1_545 S
C441 C8 1.878 . S
C443 C62 1.872 . S
C452 C32 1.873 . S
C454 C76 1.876 . S
C463 C98 1.838 . S
C465 C142 1.846 . S
C474 C128 1.847 . S
C476 C164 1.839 . S
C485 C238 1.875 . S
C487 C184 1.874 . S
C496 C260 1.879 . S
C498 C208 1.872 . S
C507 C282 1.847 . S
C509 C318 1.840 . S
C518 C304 1.848 . S
C520 C340 1.839 . S
C529 C7 1.816 . S
C531 C257 1.815 . S
C540 C235 1.815 . S
C542 C43 1.815 . S
C551 C59 1.813 . S
C553 C219 1.813 . S
C562 C87 1.816 . S
C564 C183 1.815 . S
C573 C95 1.822 . S
C575 C337 1.821 . S
C584 C131 1.821 . S
C586 C315 1.820 . S
C595 C307 1.821 . S
C597 C139 1.820 . S
C606 C161 1.821 . S
C608 C285 1.822 . S
C617 C10 1.328 . S
C619 C345 1.337 1_545 S
C628 C40 1.333 . S
C630 C323 1.352 . S
C639 C52 1.328 . S
C641 C293 1.337 1_565 S
C650 C84 1.330 . S
C652 C271 1.353 . S
C661 C249 1.358 1_565 S
C663 C96 1.337 . S
C672 C227 1.359 . S
C674 C120 1.340 . S
C683 C213 1.357 1_545 S
C685 C140 1.340 . S
C694 C162 1.337 . S
C696 C197 1.357 . S
C705 C169 1.354 . S
C707 C186 1.332 . S
C716 C147 1.352 1_565 S
C718 C216 1.333 . S
C727 C117 1.354 . S
C729 C228 1.333 . S
C738 C250 1.328 . S
C740 C103 1.337 1_545 S
C749 C274 1.342 . S
C751 C81 1.358 . S
C760 C51 1.359 1_545 S
C762 C296 1.341 . S
C771 C316 1.335 . S
C773 C37 1.357 . S
C782 C21 1.358 1_565 S
C784 C338 1.337 . S
C793 C18 1.494 . S
C795 C30 1.496 . S
C804 C74 1.499 . S
C806 C54 1.498 . S
C815 C106 1.499 . S
C817 C118 1.501 . S
C826 C172 1.503 . S
C828 C150 1.503 . S
C837 C206 1.496 . S
C839 C194 1.497 . S
C848 C230 1.496 . S
C850 C252 1.495 . S
C859 C294 1.503 . S
C861 C272 1.503 . S
C870 C348 1.500 . S
C872 C326 1.501 . S
