# Generated by pormake.
# Topology lcs, (4)-cn, num edge types: 1
# Building blocks:
#     Node 0, Type 0, BuildingBlock: UXUYUI_clean_sbu_0, # of connection points: 4
#     Node 1, Type 0, BuildingBlock: UXUYUI_clean_sbu_0, # of connection points: 4
#     Node 2, Type 0, BuildingBlock: UXUYUI_clean_sbu_0, # of connection points: 4
#     Node 3, Type 0, BuildingBlock: UXUYUI_clean_sbu_0, # of connection points: 4
#     Node 4, Type 0, BuildingBlock: UXUYUI_clean_sbu_0, # of connection points: 4
#     Node 5, Type 0, BuildingBlock: UXUYUI_clean_sbu_0, # of connection points: 4
#     Node 6, Type 0, BuildingBlock: UXUYUI_clean_sbu_0, # of connection points: 4
#     Node 7, Type 0, BuildingBlock: UXUYUI_clean_sbu_0, # of connection points: 4
#     Node 8, Type 0, BuildingBlock: UXUYUI_clean_sbu_0, # of connection points: 4
#     Node 9, Type 0, BuildingBlock: UXUYUI_clean_sbu_0, # of connection points: 4
#     Node 10, Type 0, BuildingBlock: UXUYUI_clean_sbu_0, # of connection points: 4
#     Node 11, Type 0, BuildingBlock: UXUYUI_clean_sbu_0, # of connection points: 4
#     Node 12, Type 0, BuildingBlock: UXUYUI_clean_sbu_0, # of connection points: 4
#     Node 13, Type 0, BuildingBlock: UXUYUI_clean_sbu_0, # of connection points: 4
#     Node 14, Type 0, BuildingBlock: UXUYUI_clean_sbu_0, # of connection points: 4
#     Node 15, Type 0, BuildingBlock: UXUYUI_clean_sbu_0, # of connection points: 4
#     Node 16, Type 0, BuildingBlock: UXUYUI_clean_sbu_0, # of connection points: 4
#     Node 17, Type 0, BuildingBlock: UXUYUI_clean_sbu_0, # of connection points: 4
#     Node 18, Type 0, BuildingBlock: UXUYUI_clean_sbu_0, # of connection points: 4
#     Node 19, Type 0, BuildingBlock: UXUYUI_clean_sbu_0, # of connection points: 4
#     Node 20, Type 0, BuildingBlock: UXUYUI_clean_sbu_0, # of connection points: 4
#     Node 21, Type 0, BuildingBlock: UXUYUI_clean_sbu_0, # of connection points: 4
#     Node 22, Type 0, BuildingBlock: UXUYUI_clean_sbu_0, # of connection points: 4
#     Node 23, Type 0, BuildingBlock: UXUYUI_clean_sbu_0, # of connection points: 4
#     Edge 24, Type (0, 0), BuildingBlock: KIFKEQ_clean_linker_1, # of connection points: 2
#     Edge 25, Type (0, 0), BuildingBlock: KIFKEQ_clean_linker_1, # of connection points: 2
#     Edge 26, Type (0, 0), BuildingBlock: KIFKEQ_clean_linker_1, # of connection points: 2
#     Edge 27, Type (0, 0), BuildingBlock: KIFKEQ_clean_linker_1, # of connection points: 2
#     Edge 28, Type (0, 0), BuildingBlock: KIFKEQ_clean_linker_1, # of connection points: 2
#     Edge 29, Type (0, 0), BuildingBlock: KIFKEQ_clean_linker_1, # of connection points: 2
#     Edge 30, Type (0, 0), BuildingBlock: KIFKEQ_clean_linker_1, # of connection points: 2
#     Edge 31, Type (0, 0), BuildingBlock: KIFKEQ_clean_linker_1, # of connection points: 2
#     Edge 32, Type (0, 0), BuildingBlock: KIFKEQ_clean_linker_1, # of connection points: 2
#     Edge 33, Type (0, 0), BuildingBlock: KIFKEQ_clean_linker_1, # of connection points: 2
#     Edge 34, Type (0, 0), BuildingBlock: KIFKEQ_clean_linker_1, # of connection points: 2
#     Edge 35, Type (0, 0), BuildingBlock: KIFKEQ_clean_linker_1, # of connection points: 2
#     Edge 36, Type (0, 0), BuildingBlock: KIFKEQ_clean_linker_1, # of connection points: 2
#     Edge 37, Type (0, 0), BuildingBlock: KIFKEQ_clean_linker_1, # of connection points: 2
#     Edge 38, Type (0, 0), BuildingBlock: KIFKEQ_clean_linker_1, # of connection points: 2
#     Edge 39, Type (0, 0), BuildingBlock: KIFKEQ_clean_linker_1, # of connection points: 2
#     Edge 40, Type (0, 0), BuildingBlock: KIFKEQ_clean_linker_1, # of connection points: 2
#     Edge 41, Type (0, 0), BuildingBlock: KIFKEQ_clean_linker_1, # of connection points: 2
#     Edge 42, Type (0, 0), BuildingBlock: KIFKEQ_clean_linker_1, # of connection points: 2
#     Edge 43, Type (0, 0), BuildingBlock: KIFKEQ_clean_linker_1, # of connection points: 2
#     Edge 44, Type (0, 0), BuildingBlock: KIFKEQ_clean_linker_1, # of connection points: 2
#     Edge 45, Type (0, 0), BuildingBlock: KIFKEQ_clean_linker_1, # of connection points: 2
#     Edge 46, Type (0, 0), BuildingBlock: KIFKEQ_clean_linker_1, # of connection points: 2
#     Edge 47, Type (0, 0), BuildingBlock: KIFKEQ_clean_linker_1, # of connection points: 2
#     Edge 48, Type (0, 0), BuildingBlock: KIFKEQ_clean_linker_1, # of connection points: 2
#     Edge 49, Type (0, 0), BuildingBlock: KIFKEQ_clean_linker_1, # of connection points: 2
#     Edge 50, Type (0, 0), BuildingBlock: KIFKEQ_clean_linker_1, # of connection points: 2
#     Edge 51, Type (0, 0), BuildingBlock: KIFKEQ_clean_linker_1, # of connection points: 2
#     Edge 52, Type (0, 0), BuildingBlock: KIFKEQ_clean_linker_1, # of connection points: 2
#     Edge 53, Type (0, 0), BuildingBlock: KIFKEQ_clean_linker_1, # of connection points: 2
#     Edge 54, Type (0, 0), BuildingBlock: KIFKEQ_clean_linker_1, # of connection points: 2
#     Edge 55, Type (0, 0), BuildingBlock: KIFKEQ_clean_linker_1, # of connection points: 2
#     Edge 56, Type (0, 0), BuildingBlock: KIFKEQ_clean_linker_1, # of connection points: 2
#     Edge 57, Type (0, 0), BuildingBlock: KIFKEQ_clean_linker_1, # of connection points: 2
#     Edge 58, Type (0, 0), BuildingBlock: KIFKEQ_clean_linker_1, # of connection points: 2
#     Edge 59, Type (0, 0), BuildingBlock: KIFKEQ_clean_linker_1, # of connection points: 2
#     Edge 60, Type (0, 0), BuildingBlock: KIFKEQ_clean_linker_1, # of connection points: 2
#     Edge 61, Type (0, 0), BuildingBlock: KIFKEQ_clean_linker_1, # of connection points: 2
#     Edge 62, Type (0, 0), BuildingBlock: KIFKEQ_clean_linker_1, # of connection points: 2
#     Edge 63, Type (0, 0), BuildingBlock: KIFKEQ_clean_linker_1, # of connection points: 2
#     Edge 64, Type (0, 0), BuildingBlock: KIFKEQ_clean_linker_1, # of connection points: 2
#     Edge 65, Type (0, 0), BuildingBlock: KIFKEQ_clean_linker_1, # of connection points: 2
#     Edge 66, Type (0, 0), BuildingBlock: KIFKEQ_clean_linker_1, # of connection points: 2
#     Edge 67, Type (0, 0), BuildingBlock: KIFKEQ_clean_linker_1, # of connection points: 2
#     Edge 68, Type (0, 0), BuildingBlock: KIFKEQ_clean_linker_1, # of connection points: 2
#     Edge 69, Type (0, 0), BuildingBlock: KIFKEQ_clean_linker_1, # of connection points: 2
#     Edge 70, Type (0, 0), BuildingBlock: KIFKEQ_clean_linker_1, # of connection points: 2
#     Edge 71, Type (0, 0), BuildingBlock: KIFKEQ_clean_linker_1, # of connection points: 2
# Relax obj value: 0.148
# Max RMSD: 0.190
# Mean RMSD: 0.190
data_MOF--net-lcs--node1-UXUYUI_clean_sbu_0--edge1-KIFKEQ_clean_linker_1
_symmetry_space_group_name_H-M    P1
_symmetry_Int_Tables_number       1
_symmetry_cell_setting            triclinic
loop_
_symmetry_equiv_pos_as_xyz
'x, y, z'
_cell_length_a     72.663659
_cell_length_b     72.658502
_cell_length_c     72.66016
_cell_angle_alpha  89.999975
_cell_angle_beta   90.005578
_cell_angle_gamma 90.004158
loop_
_atom_site_label
_atom_site_type_symbol
_atom_site_fract_x
_atom_site_fract_y
_atom_site_fract_z
_atom_type_partial_charge
Li0 Li 0.00667 0.26363 0.36255 0.0
Li1 Li 0.0151 0.24063 0.38692 0.0
Li2 Li 0.99315 0.23327 0.36074 0.0
Li3 Li 0.9842 0.25354 0.38496 0.0
C4 C 0.03459 0.24371 0.349 0.0
N5 N 0.06461 0.25279 0.32749 0.0
C6 C 0.05157 0.24757 0.3572 0.0
C7 C 0.03294 0.2443 0.32985 0.0
C8 C 0.06656 0.25218 0.34609 0.0
C9 C 0.04826 0.24897 0.31921 0.0
C10 C 0.00182 0.2806 0.40072 0.0
C11 C 0.99336 0.29221 0.43064 0.0
N12 N 0.98772 0.30821 0.42274 0.0
C13 C 0.99594 0.29716 0.39289 0.0
C14 C 0.00053 0.27809 0.41975 0.0
C15 C 0.98886 0.31096 0.40426 0.0
C16 C 0.00573 0.29283 0.33646 0.0
N17 N 0.01616 0.28417 0.34935 0.0
C18 C 0.04041 0.30599 0.34526 0.0
C19 C 0.03311 0.29054 0.35401 0.0
C20 C 0.03 0.31525 0.33184 0.0
C21 C 0.01243 0.30843 0.32745 0.0
H22 H 0.99202 0.28794 0.33349 0.0
H23 H 0.04087 0.28375 0.36473 0.0
C24 C 0.04293 0.21556 0.39488 0.0
N25 N 0.03464 0.23105 0.40127 0.0
C26 C 0.05816 0.20826 0.40401 0.0
C27 C 0.05571 0.23268 0.42647 0.0
C28 C 0.04066 0.23967 0.41673 0.0
C29 C 0.06482 0.21683 0.42005 0.0
H30 H 0.03793 0.20915 0.38241 0.0
H31 H 0.03394 0.25207 0.42139 0.0
C32 C 0.96924 0.25425 0.34369 0.0
N33 N 0.94641 0.24691 0.31414 0.0
C34 C 0.95038 0.25158 0.34645 0.0
C35 C 0.97645 0.25325 0.32588 0.0
C36 C 0.93907 0.24789 0.33133 0.0
C37 C 0.9647 0.24949 0.31114 0.0
C38 C 0.98095 0.21963 0.40096 0.0
C39 C 0.96223 0.21626 0.39811 0.0
C40 C 0.98901 0.21501 0.41782 0.0
C41 C 0.95181 0.20845 0.41226 0.0
C42 C 0.97813 0.2072 0.43161 0.0
N43 N 0.95991 0.20413 0.42858 0.0
C44 C 0.99828 0.20451 0.33468 0.0
C45 C 0.96763 0.20846 0.34508 0.0
C46 C 0.99295 0.18963 0.32369 0.0
N47 N 0.98561 0.2136 0.34504 0.0
C48 C 0.96166 0.19392 0.33411 0.0
C49 C 0.97439 0.18425 0.3233 0.0
H50 H 0.01257 0.20863 0.33516 0.0
H51 H 0.9579 0.21553 0.35376 0.0
C52 C 0.95277 0.27486 0.39043 0.0
N53 N 0.96371 0.26245 0.39916 0.0
C54 C 0.93711 0.28179 0.39905 0.0
C55 C 0.94468 0.26387 0.42601 0.0
C56 C 0.96028 0.25732 0.41685 0.0
C57 C 0.93268 0.27605 0.41697 0.0
H58 H 0.95622 0.27938 0.37669 0.0
H59 H 0.96958 0.24814 0.42389 0.0
O60 O 0.01969 0.23938 0.35967 0.0
O61 O 0.00828 0.26675 0.38974 0.0
O62 O 0.98061 0.25768 0.35833 0.0
O63 O 0.99145 0.22712 0.38728 0.0
H64 H 0.05309 0.24732 0.372 0.0
H65 H 0.01999 0.24115 0.32324 0.0
H66 H 0.07974 0.25532 0.35227 0.0
H67 H 0.04716 0.24954 0.30438 0.0
H68 H 0.99216 0.2904 0.44537 0.0
H69 H 0.99663 0.29928 0.37817 0.0
H70 H 0.00463 0.26522 0.426 0.0
H71 H 0.98419 0.32381 0.39837 0.0
H72 H 0.05406 0.31063 0.34902 0.0
H73 H 0.00372 0.31535 0.31754 0.0
H74 H 0.06488 0.19627 0.39825 0.0
H75 H 0.06013 0.23965 0.43887 0.0
H76 H 0.94455 0.25198 0.36013 0.0
H77 H 0.99098 0.25526 0.32348 0.0
H78 H 0.92448 0.24568 0.33329 0.0
H79 H 0.97013 0.24862 0.2973 0.0
H80 H 0.95573 0.21995 0.38526 0.0
H81 H 0.00349 0.21747 0.42023 0.0
H82 H 0.93728 0.20591 0.4103 0.0
H83 H 0.98416 0.2036 0.44474 0.0
H84 H 0.00318 0.18244 0.31558 0.0
H85 H 0.94729 0.18995 0.33447 0.0
H86 H 0.92859 0.29162 0.39177 0.0
H87 H 0.9419 0.25916 0.43987 0.0
Li88 Li 0.00806 0.76694 0.63513 0.0
Li89 Li 0.98654 0.75656 0.61231 0.0
Li90 Li 0.99611 0.73607 0.63678 0.0
Li91 Li 0.01723 0.74422 0.61268 0.0
C92 C 0.97086 0.77412 0.64219 0.0
N93 N 0.94787 0.80384 0.648 0.0
C94 C 0.97472 0.79109 0.63399 0.0
C95 C 0.95531 0.77227 0.65334 0.0
C96 C 0.96293 0.80595 0.63709 0.0
C97 C 0.94386 0.78746 0.65612 0.0
C98 C 0.0122 0.77392 0.5898 0.0
C99 C 0.0085 0.76574 0.55784 0.0
N100 N 0.01694 0.78169 0.55288 0.0
C101 C 0.02084 0.79022 0.58439 0.0
C102 C 0.00596 0.76156 0.57643 0.0
C103 C 0.02311 0.79391 0.56566 0.0
C104 C 0.03121 0.79682 0.64093 0.0
N105 N 0.0168 0.78765 0.64851 0.0
C106 C 0.01533 0.80921 0.67331 0.0
C107 C 0.00892 0.79337 0.66449 0.0
C108 C 0.03 0.8192 0.6656 0.0
C109 C 0.03807 0.81268 0.64927 0.0
H110 H 0.03728 0.79183 0.62828 0.0
H111 H 0.99747 0.7858 0.67025 0.0
C112 C 0.95144 0.75226 0.59645 0.0
N113 N 0.96597 0.76394 0.59787 0.0
C114 C 0.93533 0.75788 0.58756 0.0
C115 C 0.94964 0.78729 0.58149 0.0
C116 C 0.96544 0.78111 0.59044 0.0
C117 C 0.93419 0.77574 0.58022 0.0
H118 H 0.95219 0.73876 0.60269 0.0
H119 H 0.9771 0.79022 0.59191 0.0
C120 C 0.02753 0.74338 0.65754 0.0
N121 N 0.03857 0.7423 0.69391 0.0
C122 C 0.04576 0.73918 0.66199 0.0
C123 C 0.01491 0.74703 0.67159 0.0
C124 C 0.05108 0.7387 0.68046 0.0
C125 C 0.02076 0.74642 0.68989 0.0
C126 C 0.9967 0.71197 0.60741 0.0
C127 C 0.01204 0.70336 0.61521 0.0
C128 C 0.98426 0.70164 0.59701 0.0
C129 C 0.01468 0.68452 0.61245 0.0
C130 C 0.98738 0.68282 0.59456 0.0
N131 N 0.00239 0.67472 0.60227 0.0
C132 C 0.96955 0.71442 0.65451 0.0
C133 C 0.00016 0.70417 0.65929 0.0
C134 C 0.96265 0.69935 0.66425 0.0
N135 N 0.98798 0.71644 0.65211 0.0
C136 C 0.99387 0.68888 0.66906 0.0
C137 C 0.97487 0.6862 0.67147 0.0
H138 H 0.96021 0.72429 0.64844 0.0
H139 H 0.01475 0.70601 0.65707 0.0
C140 C 0.0544 0.74223 0.60455 0.0
N141 N 0.03773 0.73637 0.59849 0.0
C142 C 0.07047 0.73641 0.59583 0.0
C143 C 0.05189 0.71888 0.57451 0.0
C144 C 0.03614 0.72521 0.58355 0.0
C145 C 0.0694 0.72427 0.5808 0.0
H146 H 0.05519 0.75128 0.61635 0.0
H147 H 0.02269 0.72089 0.57889 0.0
O148 O 0.98205 0.75926 0.63925 0.0
O149 O 0.00999 0.77018 0.60813 0.0
O150 O 0.02224 0.74394 0.63948 0.0
O151 O 0.99364 0.73036 0.61005 0.0
H152 H 0.98668 0.79281 0.6253 0.0
H153 H 0.95213 0.75921 0.65977 0.0
H154 H 0.96575 0.81915 0.63081 0.0
H155 H 0.93177 0.78622 0.66472 0.0
H156 H 0.00374 0.7563 0.54735 0.0
H157 H 0.02573 0.79994 0.59457 0.0
H158 H 0.99919 0.7489 0.5803 0.0
H159 H 0.02977 0.80648 0.56127 0.0
H160 H 0.0086 0.81381 0.68578 0.0
H161 H 0.04962 0.81973 0.64302 0.0
H162 H 0.92367 0.7486 0.58707 0.0
H163 H 0.94944 0.80108 0.57583 0.0
H164 H 0.0557 0.73632 0.65126 0.0
H165 H 0.00073 0.75026 0.66846 0.0
H166 H 0.06515 0.73547 0.6841 0.0
H167 H 0.01113 0.74921 0.7009 0.0
H168 H 0.02183 0.71111 0.62329 0.0
H169 H 0.9723 0.70811 0.59092 0.0
H170 H 0.02648 0.67769 0.61841 0.0
H171 H 0.97786 0.67466 0.58655 0.0
H172 H 0.9479 0.6977 0.66556 0.0
H173 H 0.00376 0.67917 0.67454 0.0
H174 H 0.0836 0.74128 0.60093 0.0
H175 H 0.05035 0.70944 0.56309 0.0
Li176 Li 0.50644 0.76613 0.86161 0.0
Li177 Li 0.51534 0.74394 0.88664 0.0
Li178 Li 0.49409 0.73526 0.86289 0.0
Li179 Li 0.48416 0.75668 0.88574 0.0
C180 C 0.52647 0.72984 0.84774 0.0
N181 N 0.53771 0.703 0.82326 0.0
C182 C 0.53487 0.71378 0.85419 0.0
C183 C 0.52402 0.73237 0.82883 0.0
C184 C 0.5404 0.70035 0.84159 0.0
C185 C 0.52972 0.7186 0.81668 0.0
C186 C 0.50891 0.7771 0.90644 0.0
C187 C 0.50819 0.77246 0.93929 0.0
N188 N 0.51098 0.7908 0.94184 0.0
C189 C 0.51175 0.79589 0.90936 0.0
C190 C 0.5071 0.76527 0.9215 0.0
C191 C 0.51277 0.80255 0.92738 0.0
C192 C 0.50379 0.80114 0.84528 0.0
N193 N 0.51492 0.78629 0.84759 0.0
C194 C 0.53934 0.80117 0.83144 0.0
C195 C 0.53233 0.78593 0.8408 0.0
C196 C 0.52827 0.81685 0.82904 0.0
C197 C 0.51019 0.81664 0.83588 0.0
H198 H 0.49004 0.80102 0.85099 0.0
H199 H 0.54085 0.77391 0.84293 0.0
C200 C 0.53482 0.71823 0.90771 0.0
N201 N 0.53519 0.73583 0.90144 0.0
C202 C 0.54992 0.71101 0.91711 0.0
C203 C 0.56524 0.74039 0.91398 0.0
C204 C 0.54986 0.74702 0.90452 0.0
C205 C 0.56552 0.72205 0.9201 0.0
H206 H 0.52299 0.70964 0.90491 0.0
H207 H 0.54977 0.76093 0.89921 0.0
C208 C 0.47035 0.7601 0.84317 0.0
N209 N 0.44961 0.76335 0.81143 0.0
C210 C 0.45124 0.75786 0.8438 0.0
C211 C 0.47886 0.7642 0.8264 0.0
C212 C 0.44101 0.75949 0.8276 0.0
C213 C 0.46815 0.76574 0.81051 0.0
C214 C 0.47684 0.72052 0.89455 0.0
C215 C 0.46071 0.72158 0.88414 0.0
C216 C 0.47748 0.70902 0.90995 0.0
C217 C 0.44547 0.71106 0.88928 0.0
C218 C 0.46194 0.69872 0.91466 0.0
N219 N 0.44639 0.69994 0.9043 0.0
C220 C 0.49222 0.69752 0.85682 0.0
C221 C 0.47708 0.71414 0.83325 0.0
C222 C 0.4872 0.68084 0.84877 0.0
N223 N 0.487 0.71376 0.84912 0.0
C224 C 0.47156 0.69777 0.82484 0.0
C225 C 0.47644 0.68077 0.8327 0.0
H226 H 0.50021 0.69755 0.86939 0.0
H227 H 0.47315 0.72703 0.82716 0.0
C228 C 0.45254 0.77752 0.89088 0.0
N229 N 0.46379 0.76538 0.89957 0.0
C230 C 0.4365 0.78367 0.89941 0.0
C231 C 0.44432 0.76537 0.9261 0.0
C232 C 0.4601 0.75931 0.9169 0.0
C233 C 0.43218 0.77749 0.91719 0.0
H234 H 0.45592 0.78224 0.87718 0.0
H235 H 0.46924 0.74958 0.92346 0.0
O236 O 0.52053 0.74293 0.85989 0.0
O237 O 0.50778 0.77042 0.88888 0.0
O238 O 0.48054 0.7588 0.85896 0.0
O239 O 0.49191 0.7308 0.88992 0.0
H240 H 0.5369 0.71162 0.86876 0.0
H241 H 0.51771 0.74477 0.82359 0.0
H242 H 0.54679 0.68779 0.8464 0.0
H243 H 0.5278 0.72032 0.80202 0.0
H244 H 0.50679 0.76347 0.95107 0.0
H245 H 0.51314 0.80522 0.89783 0.0
H246 H 0.50478 0.7507 0.91949 0.0
H247 H 0.51496 0.81707 0.92986 0.0
H248 H 0.55329 0.80074 0.82621 0.0
H249 H 0.5013 0.82852 0.83449 0.0
H250 H 0.54949 0.69686 0.92178 0.0
H251 H 0.57705 0.7493 0.91585 0.0
H252 H 0.44434 0.75493 0.85667 0.0
H253 H 0.49356 0.7661 0.82561 0.0
H254 H 0.42623 0.75772 0.8279 0.0
H255 H 0.47458 0.76883 0.79745 0.0
H256 H 0.45999 0.73038 0.87221 0.0
H257 H 0.48984 0.70812 0.91822 0.0
H258 H 0.4329 0.71175 0.88131 0.0
H259 H 0.46223 0.68976 0.92655 0.0
H260 H 0.49166 0.66814 0.85516 0.0
H261 H 0.46311 0.69848 0.81259 0.0
H262 H 0.42757 0.79319 0.89221 0.0
H263 H 0.44137 0.76028 0.9398 0.0
Li264 Li 0.5073 0.26584 0.13483 0.0
Li265 Li 0.48645 0.25534 0.1119 0.0
Li266 Li 0.49473 0.23601 0.13745 0.0
Li267 Li 0.51823 0.24288 0.11398 0.0
C268 C 0.47049 0.27478 0.14008 0.0
N269 N 0.44877 0.30583 0.14335 0.0
C270 C 0.47473 0.29067 0.13007 0.0
C271 C 0.45519 0.2747 0.15172 0.0
C272 C 0.46359 0.30622 0.13192 0.0
C273 C 0.44438 0.29053 0.1532 0.0
C274 C 0.51352 0.27172 0.08976 0.0
C275 C 0.51242 0.26209 0.058 0.0
N276 N 0.51993 0.27845 0.05287 0.0
C277 C 0.52125 0.28842 0.08417 0.0
C278 C 0.50908 0.25842 0.07657 0.0
C279 C 0.52437 0.29157 0.06547 0.0
C280 C 0.53012 0.29615 0.14004 0.0
N281 N 0.51563 0.28715 0.14765 0.0
C282 C 0.51382 0.30929 0.17191 0.0
C283 C 0.5075 0.29326 0.16337 0.0
C284 C 0.52863 0.31907 0.16418 0.0
C285 C 0.5369 0.31218 0.14811 0.0
H286 H 0.53643 0.29082 0.12765 0.0
H287 H 0.49604 0.28575 0.16919 0.0
C288 C 0.45053 0.25201 0.09907 0.0
N289 N 0.46617 0.26196 0.09667 0.0
C290 C 0.43441 0.25688 0.08983 0.0
C291 C 0.45078 0.28224 0.07585 0.0
C292 C 0.46657 0.27689 0.0854 0.0
C293 C 0.43437 0.27228 0.07814 0.0
H294 H 0.45045 0.2406 0.10862 0.0
H295 H 0.47891 0.28508 0.08427 0.0
C296 C 0.52961 0.2486 0.15649 0.0
N297 N 0.54702 0.26216 0.18744 0.0
C298 C 0.54793 0.25435 0.15552 0.0
C299 C 0.52016 0.24965 0.17321 0.0
C300 C 0.55649 0.2612 0.17132 0.0
C301 C 0.52921 0.25655 0.18871 0.0
C302 C 0.49139 0.21094 0.11113 0.0
C303 C 0.5046 0.19919 0.11874 0.0
C304 C 0.47475 0.20369 0.10478 0.0
C305 C 0.50083 0.18039 0.12008 0.0
C306 C 0.4715 0.1848 0.10636 0.0
N307 N 0.48448 0.17364 0.11394 0.0
C308 C 0.46687 0.21321 0.15054 0.0
C309 C 0.49618 0.20644 0.16325 0.0
C310 C 0.45932 0.19762 0.1588 0.0
N311 N 0.48505 0.21705 0.15258 0.0
C312 C 0.48913 0.19082 0.17197 0.0
C313 C 0.47058 0.18605 0.16942 0.0
H314 H 0.45845 0.22182 0.14179 0.0
H315 H 0.51067 0.20965 0.16431 0.0
C316 C 0.55453 0.24473 0.10133 0.0
N317 N 0.53889 0.23453 0.10037 0.0
C318 C 0.57033 0.23916 0.09194 0.0
C319 C 0.55346 0.21293 0.08034 0.0
C320 C 0.53796 0.21909 0.08986 0.0
C321 C 0.57001 0.2229 0.08144 0.0
H322 H 0.55468 0.25725 0.10939 0.0
H323 H 0.52523 0.2115 0.08888 0.0
O324 O 0.48101 0.25925 0.13844 0.0
O325 O 0.51058 0.2685 0.10808 0.0
O326 O 0.5208 0.24236 0.14107 0.0
O327 O 0.49459 0.22949 0.11035 0.0
H328 H 0.48648 0.29105 0.12096 0.0
H329 H 0.45169 0.26248 0.15951 0.0
H330 H 0.46672 0.3186 0.12426 0.0
H331 H 0.4325 0.29065 0.16216 0.0
H332 H 0.50904 0.25193 0.04765 0.0
H333 H 0.52479 0.29885 0.09421 0.0
H334 H 0.50308 0.24541 0.08053 0.0
H335 H 0.53033 0.30445 0.06096 0.0
H336 H 0.50697 0.31416 0.18422 0.0
H337 H 0.54857 0.31903 0.14188 0.0
H338 H 0.42208 0.24879 0.09198 0.0
H339 H 0.45126 0.29446 0.06733 0.0
H340 H 0.55544 0.25364 0.14269 0.0
H341 H 0.5059 0.24545 0.17414 0.0
H342 H 0.57064 0.26578 0.17076 0.0
H343 H 0.52203 0.25756 0.20171 0.0
H344 H 0.5175 0.20461 0.12386 0.0
H345 H 0.46443 0.21253 0.09873 0.0
H346 H 0.51085 0.17118 0.1261 0.0
H347 H 0.45864 0.17901 0.10159 0.0
H348 H 0.44491 0.19446 0.15664 0.0
H349 H 0.49827 0.18212 0.17991 0.0
H350 H 0.58262 0.24753 0.09285 0.0
H351 H 0.55256 0.20027 0.07252 0.0
Li352 Li 0.00511 0.73395 0.13504 0.0
Li353 Li 0.01457 0.75548 0.1123 0.0
Li354 Li 0.99319 0.76592 0.13493 0.0
Li355 Li 0.98431 0.74347 0.11096 0.0
C356 C 0.02311 0.75952 0.15728 0.0
N357 N 0.03179 0.76365 0.1941 0.0
C358 C 0.04032 0.76636 0.16247 0.0
C359 C 0.01031 0.75475 0.17086 0.0
C360 C 0.04445 0.76835 0.18114 0.0
C361 C 0.01496 0.75696 0.18938 0.0
C362 C 0.02227 0.71857 0.10498 0.0
C363 C 0.03599 0.69205 0.09049 0.0
N364 N 0.05232 0.69612 0.09869 0.0
C365 C 0.0392 0.7225 0.11326 0.0
C366 C 0.02064 0.70323 0.0935 0.0
C367 C 0.05422 0.71098 0.10991 0.0
C368 C 0.0015 0.69837 0.14998 0.0
N369 N 0.01271 0.71333 0.14935 0.0
C370 C 0.03602 0.69733 0.16615 0.0
C371 C 0.02968 0.71311 0.15724 0.0
C372 C 0.02478 0.68164 0.16694 0.0
C373 C 0.00721 0.68234 0.15894 0.0
H374 H 0.98837 0.69869 0.14301 0.0
H375 H 0.03858 0.72495 0.15614 0.0
C376 C 0.04654 0.77595 0.10706 0.0
N377 N 0.03532 0.7637 0.0985 0.0
C378 C 0.0626 0.78198 0.09849 0.0
C379 C 0.05492 0.76322 0.07208 0.0
C380 C 0.03912 0.75728 0.08133 0.0
C381 C 0.06697 0.77552 0.08083 0.0
H382 H 0.04305 0.78093 0.12063 0.0
H383 H 0.02998 0.74745 0.07489 0.0
C384 C 0.96071 0.74046 0.13875 0.0
N385 N 0.92292 0.73612 0.13823 0.0
C386 C 0.94946 0.75428 0.13145 0.0
C387 C 0.95271 0.72452 0.14593 0.0
C388 C 0.9304 0.7518 0.13127 0.0
C389 C 0.93358 0.72257 0.14551 0.0
C390 C 0.99668 0.77937 0.09295 0.0
C391 C 0.00338 0.79729 0.09498 0.0
C392 C 0.99609 0.77135 0.07548 0.0
C393 C 0.00952 0.80685 0.07947 0.0
C394 C 0.00231 0.78138 0.0603 0.0
N395 N 0.00886 0.79877 0.0626 0.0
C396 C 0.9971 0.80142 0.14927 0.0
C397 C 0.97097 0.78561 0.16069 0.0
C398 C 0.99247 0.81709 0.15937 0.0
N399 N 0.98617 0.78626 0.14981 0.0
C400 C 0.96574 0.801 0.17092 0.0
C401 C 0.97642 0.81713 0.17018 0.0
H402 H 0.00944 0.80131 0.14095 0.0
H403 H 0.96282 0.77322 0.16138 0.0
C404 C 0.95976 0.71661 0.09907 0.0
N405 N 0.96433 0.73458 0.09661 0.0
C406 C 0.9438 0.70953 0.09112 0.0
C407 C 0.93802 0.73933 0.07745 0.0
C408 C 0.95396 0.74595 0.08596 0.0
C409 C 0.93263 0.721 0.08032 0.0
H410 H 0.96819 0.708 0.10781 0.0
H411 H 0.95768 0.76029 0.08461 0.0
O412 O 0.01897 0.75759 0.13899 0.0
O413 O 0.00725 0.7295 0.1081 0.0
O414 O 0.97945 0.74236 0.13836 0.0
O415 O 0.99102 0.7696 0.10802 0.0
H416 H 0.05043 0.77004 0.15217 0.0
H417 H 0.99694 0.7494 0.16724 0.0
H418 H 0.05773 0.77361 0.18533 0.0
H419 H 0.00519 0.75333 0.20001 0.0
H420 H 0.03492 0.68012 0.08165 0.0
H421 H 0.04076 0.73427 0.12221 0.0
H422 H 0.00762 0.69999 0.08702 0.0
H423 H 0.06738 0.71385 0.11625 0.0
H424 H 0.04966 0.69733 0.17217 0.0
H425 H 0.99828 0.6704 0.15898 0.0
H426 H 0.07149 0.79164 0.10555 0.0
H427 H 0.05793 0.75793 0.05847 0.0
H428 H 0.95544 0.76666 0.12571 0.0
H429 H 0.96114 0.71374 0.15175 0.0
H430 H 0.92156 0.76232 0.12553 0.0
H431 H 0.92721 0.71026 0.15095 0.0
H432 H 0.00393 0.80371 0.10838 0.0
H433 H 0.9912 0.7574 0.0737 0.0
H434 H 0.01481 0.8207 0.08085 0.0
H435 H 0.00205 0.7753 0.04672 0.0
H436 H 0.00137 0.82902 0.15872 0.0
H437 H 0.95322 0.80038 0.17897 0.0
H438 H 0.94008 0.6953 0.09357 0.0
H439 H 0.92961 0.7486 0.06936 0.0
Li440 Li 0.49453 0.76557 0.36373 0.0
Li441 Li 0.51577 0.7569 0.38817 0.0
Li442 Li 0.50608 0.73415 0.36363 0.0
Li443 Li 0.48463 0.74317 0.38817 0.0
C444 C 0.52731 0.76756 0.34698 0.0
N445 N 0.54053 0.78869 0.31825 0.0
C446 C 0.53833 0.78292 0.35054 0.0
C447 C 0.52328 0.76277 0.3288 0.0
C448 C 0.54481 0.79348 0.33584 0.0
C449 C 0.53002 0.77367 0.31447 0.0
C450 C 0.49093 0.77969 0.40653 0.0
C451 C 0.48833 0.78144 0.43959 0.0
N452 N 0.48947 0.8001 0.43861 0.0
C453 C 0.49182 0.7989 0.40585 0.0
C454 C 0.48897 0.7709 0.42352 0.0
C455 C 0.49117 0.80896 0.42222 0.0
C456 C 0.47295 0.78491 0.33728 0.0
N457 N 0.48712 0.78615 0.34943 0.0
C458 C 0.49044 0.81828 0.34331 0.0
C459 C 0.49591 0.80236 0.35252 0.0
C460 C 0.47567 0.81754 0.33087 0.0
C461 C 0.46701 0.80052 0.32773 0.0
H462 H 0.46597 0.77193 0.33532 0.0
H463 H 0.50703 0.80297 0.36239 0.0
C464 C 0.54789 0.75395 0.41046 0.0
N465 N 0.53577 0.76578 0.40248 0.0
C466 C 0.56328 0.76072 0.41982 0.0
C467 C 0.55352 0.79163 0.41231 0.0
C468 C 0.53827 0.78429 0.40328 0.0
C469 C 0.56635 0.77979 0.42059 0.0
H470 H 0.54588 0.73927 0.40917 0.0
H471 H 0.5287 0.79335 0.3964 0.0
C472 C 0.47149 0.73129 0.34873 0.0
N473 N 0.45442 0.70832 0.32368 0.0
C474 C 0.45907 0.7179 0.35478 0.0
C475 C 0.47499 0.73319 0.32992 0.0
C476 C 0.45063 0.70638 0.3419 0.0
C477 C 0.4663 0.72138 0.31747 0.0
C478 C 0.51011 0.71783 0.40443 0.0
C479 C 0.50959 0.69904 0.40031 0.0
C480 C 0.51232 0.72348 0.42268 0.0
C481 C 0.51084 0.68622 0.41459 0.0
C482 C 0.51355 0.71024 0.43657 0.0
N483 N 0.51276 0.69204 0.43228 0.0
C484 C 0.53136 0.71506 0.34138 0.0
C485 C 0.50417 0.69827 0.34792 0.0
C486 C 0.53868 0.70008 0.33182 0.0
N487 N 0.51442 0.71389 0.34921 0.0
C488 C 0.51089 0.68301 0.33838 0.0
C489 C 0.52845 0.68374 0.33036 0.0
H490 H 0.53937 0.7275 0.34289 0.0
H491 H 0.49105 0.69741 0.35482 0.0
C492 C 0.45117 0.74752 0.40728 0.0
N493 N 0.46438 0.73508 0.40274 0.0
C494 C 0.43557 0.74198 0.41707 0.0
C495 C 0.44749 0.71093 0.41731 0.0
C496 C 0.46278 0.71705 0.40748 0.0
C497 C 0.43357 0.72343 0.42215 0.0
H498 H 0.45264 0.76173 0.40309 0.0
H499 H 0.47304 0.70728 0.4031 0.0
O500 O 0.52061 0.7572 0.36121 0.0
O501 O 0.49162 0.76962 0.39061 0.0
O502 O 0.47993 0.74266 0.36117 0.0
O503 O 0.50891 0.73055 0.39058 0.0
H504 H 0.54175 0.78674 0.3645 0.0
H505 H 0.51513 0.75072 0.32578 0.0
H506 H 0.55323 0.80548 0.3384 0.0
H507 H 0.52694 0.77016 0.30033 0.0
H508 H 0.48686 0.77478 0.45282 0.0
H509 H 0.49309 0.80598 0.39283 0.0
H510 H 0.48773 0.75612 0.4243 0.0
H511 H 0.49199 0.82383 0.42189 0.0
H512 H 0.49763 0.83105 0.34601 0.0
H513 H 0.4554 0.79939 0.31845 0.0
H514 H 0.57301 0.75114 0.4258 0.0
H515 H 0.55536 0.80642 0.41266 0.0
H516 H 0.45602 0.71635 0.36924 0.0
H517 H 0.48427 0.74368 0.32495 0.0
H518 H 0.44108 0.69588 0.34641 0.0
H519 H 0.46897 0.72264 0.30288 0.0
H520 H 0.50808 0.69439 0.38627 0.0
H521 H 0.51335 0.73791 0.4261 0.0
H522 H 0.51031 0.67164 0.4116 0.0
H523 H 0.51522 0.71444 0.45076 0.0
H524 H 0.55225 0.70122 0.32578 0.0
H525 H 0.50272 0.67056 0.33788 0.0
H526 H 0.42518 0.75208 0.42057 0.0
H527 H 0.44629 0.69643 0.42056 0.0
Li528 Li 0.50447 0.23508 0.63652 0.0
Li529 Li 0.51432 0.25622 0.61298 0.0
Li530 Li 0.49295 0.26608 0.63654 0.0
Li531 Li 0.48308 0.24501 0.61312 0.0
C532 C 0.53699 0.25459 0.64339 0.0
N533 N 0.57374 0.24759 0.65022 0.0
C534 C 0.54549 0.23911 0.63574 0.0
C535 C 0.54719 0.2665 0.65452 0.0
C536 C 0.56407 0.23581 0.63936 0.0
C537 C 0.56576 0.26272 0.65781 0.0
C538 C 0.50716 0.22491 0.59173 0.0
C539 C 0.5066 0.23178 0.55926 0.0
N540 N 0.50964 0.2137 0.55547 0.0
C541 C 0.5103 0.20641 0.58752 0.0
C542 C 0.50531 0.23772 0.57749 0.0
C543 C 0.5115 0.20101 0.5691 0.0
C544 C 0.50554 0.19771 0.64451 0.0
N545 N 0.51127 0.2143 0.65092 0.0
C546 C 0.52747 0.19986 0.67564 0.0
C547 C 0.52174 0.21571 0.66637 0.0
C548 C 0.5222 0.18244 0.66904 0.0
C549 C 0.5108 0.18154 0.65342 0.0
H550 H 0.49706 0.19707 0.63229 0.0
H551 H 0.526 0.22909 0.67129 0.0
C552 C 0.53705 0.28247 0.59629 0.0
N553 N 0.53479 0.26406 0.59863 0.0
C554 C 0.55249 0.28923 0.58708 0.0
C555 C 0.56293 0.25793 0.58277 0.0
C556 C 0.54723 0.25177 0.59196 0.0
C557 C 0.5658 0.2769 0.58037 0.0
H558 H 0.52702 0.29191 0.60194 0.0
H559 H 0.54516 0.23719 0.59408 0.0
C560 C 0.47398 0.24104 0.65816 0.0
N561 N 0.46453 0.237 0.69478 0.0
C562 C 0.45698 0.23346 0.66298 0.0
C563 C 0.48616 0.24662 0.67198 0.0
C564 C 0.45245 0.23153 0.68157 0.0
C565 C 0.48113 0.24444 0.69041 0.0
C566 C 0.47722 0.28244 0.60586 0.0
C567 C 0.45964 0.27878 0.61275 0.0
C568 C 0.48015 0.29814 0.59514 0.0
C569 C 0.44527 0.29092 0.60882 0.0
C570 C 0.46542 0.30995 0.59152 0.0
N571 N 0.44843 0.30613 0.59838 0.0
C572 C 0.49802 0.29963 0.65562 0.0
C573 C 0.46772 0.28762 0.65691 0.0
C574 C 0.49271 0.31498 0.66593 0.0
N575 N 0.48552 0.28641 0.6513 0.0
C576 C 0.46179 0.30275 0.66709 0.0
C577 C 0.47432 0.31676 0.67172 0.0
H578 H 0.51209 0.29829 0.65094 0.0
H579 H 0.45803 0.27695 0.65326 0.0
C580 C 0.45129 0.22464 0.60667 0.0
N581 N 0.46271 0.23709 0.59867 0.0
C582 C 0.43553 0.21865 0.5975 0.0
C583 C 0.44385 0.23799 0.57172 0.0
C584 C 0.45933 0.24384 0.58153 0.0
C585 C 0.43165 0.22537 0.57982 0.0
H586 H 0.45439 0.21945 0.62027 0.0
H587 H 0.46851 0.25392 0.57557 0.0
O588 O 0.51884 0.25827 0.63995 0.0
O589 O 0.50592 0.2303 0.60972 0.0
O590 O 0.47849 0.24304 0.63997 0.0
O591 O 0.49158 0.27082 0.6095 0.0
H592 H 0.53783 0.22969 0.62713 0.0
H593 H 0.54083 0.27854 0.66054 0.0
H594 H 0.57081 0.22388 0.63352 0.0
H595 H 0.57382 0.27183 0.6664 0.0
H596 H 0.50518 0.24155 0.54811 0.0
H597 H 0.51179 0.19632 0.59839 0.0
H598 H 0.50291 0.2521 0.58045 0.0
H599 H 0.51392 0.18673 0.56565 0.0
H600 H 0.53638 0.20127 0.68749 0.0
H601 H 0.50605 0.16848 0.64805 0.0
H602 H 0.55429 0.30397 0.58575 0.0
H603 H 0.57276 0.24796 0.57766 0.0
H604 H 0.44733 0.22917 0.65247 0.0
H605 H 0.49932 0.25264 0.6686 0.0
H606 H 0.43933 0.22568 0.68549 0.0
H607 H 0.49043 0.2487 0.70123 0.0
H608 H 0.45708 0.26671 0.62106 0.0
H609 H 0.49368 0.30115 0.58968 0.0
H610 H 0.4316 0.28826 0.61408 0.0
H611 H 0.4675 0.32216 0.58325 0.0
H612 H 0.50289 0.32531 0.66934 0.0
H613 H 0.44742 0.30363 0.67091 0.0
H614 H 0.42655 0.20875 0.6041 0.0
H615 H 0.44122 0.24355 0.55814 0.0
Li616 Li 0.99081 0.26648 0.86458 0.0
Li617 Li 0.01341 0.25709 0.889 0.0
Li618 Li 0.0024 0.23382 0.86716 0.0
Li619 Li 0.98241 0.24785 0.89033 0.0
C620 C 0.02322 0.2562 0.8443 0.0
N621 N 0.03662 0.25471 0.80876 0.0
C622 C 0.04195 0.25897 0.84093 0.0
C623 C 0.01131 0.25261 0.82963 0.0
C624 C 0.04846 0.25818 0.82285 0.0
C625 C 0.01835 0.25194 0.81175 0.0
C626 C 0.98099 0.28188 0.90375 0.0
C627 C 0.97293 0.28754 0.93547 0.0
N628 N 0.95881 0.29846 0.92986 0.0
C629 C 0.96658 0.29341 0.89832 0.0
C630 C 0.98435 0.27914 0.92249 0.0
C631 C 0.95545 0.30157 0.91171 0.0
C632 C 0.96567 0.28979 0.84664 0.0
N633 N 0.98386 0.28591 0.8484 0.0
C634 C 0.99175 0.31148 0.82925 0.0
C635 C 0.99688 0.29635 0.83996 0.0
C636 C 0.97303 0.31616 0.82753 0.0
C637 C 0.95992 0.30494 0.83632 0.0
H638 H 0.95564 0.28158 0.8539 0.0
H639 H 0.01129 0.29318 0.84182 0.0
C640 C 0.05046 0.25507 0.90123 0.0
N641 N 0.03474 0.26522 0.90178 0.0
C642 C 0.06629 0.26125 0.91023 0.0
C643 C 0.04964 0.28852 0.91955 0.0
C644 C 0.03408 0.28169 0.91062 0.0
C645 C 0.066 0.27824 0.91941 0.0
H646 H 0.05076 0.2423 0.89362 0.0
H647 H 0.02153 0.28967 0.91051 0.0
C648 C 0.961 0.23301 0.86465 0.0
N649 N 0.92886 0.21298 0.86837 0.0
C650 C 0.96102 0.21633 0.87428 0.0
C651 C 0.94467 0.23935 0.8567 0.0
C652 C 0.94462 0.20645 0.87608 0.0
C653 C 0.92856 0.22905 0.85878 0.0
C654 C 0.01597 0.22484 0.90699 0.0
C655 C 0.02842 0.21104 0.90202 0.0
C656 C 0.01579 0.23135 0.92508 0.0
C657 C 0.04086 0.2044 0.91509 0.0
C658 C 0.02846 0.22438 0.93776 0.0
N659 N 0.04065 0.21118 0.93254 0.0
C660 C 0.02836 0.21012 0.85108 0.0
C661 C 0.99749 0.20121 0.84556 0.0
C662 C 0.03485 0.19472 0.8416 0.0
N663 N 0.00997 0.2129 0.85315 0.0
C664 C 0.00336 0.18554 0.83611 0.0
C665 C 0.02227 0.18205 0.83421 0.0
H666 H 0.03801 0.2197 0.85715 0.0
H667 H 0.98296 0.20394 0.84685 0.0
C668 C 0.94576 0.25166 0.90305 0.0
N669 N 0.96202 0.24299 0.90629 0.0
C670 C 0.93004 0.2468 0.91293 0.0
C671 C 0.94813 0.22439 0.92958 0.0
C672 C 0.96353 0.22974 0.91941 0.0
C673 C 0.93101 0.23273 0.92616 0.0
H674 H 0.94484 0.26187 0.89227 0.0
H675 H 0.9765 0.22277 0.92144 0.0
O676 O 0.01671 0.25661 0.86194 0.0
O677 O 0.99192 0.27359 0.89081 0.0
O678 O 0.97683 0.24314 0.86326 0.0
O679 O 0.00379 0.23165 0.8943 0.0
H680 H 0.05135 0.26164 0.85218 0.0
H681 H 0.99679 0.25031 0.83202 0.0
H682 H 0.06292 0.26029 0.82003 0.0
H683 H 0.0093 0.24918 0.80026 0.0
H684 H 0.97533 0.28542 0.95001 0.0
H685 H 0.96391 0.29596 0.88394 0.0
H686 H 0.99572 0.27072 0.92698 0.0
H687 H 0.94416 0.31039 0.90767 0.0
H688 H 0.00237 0.3195 0.82257 0.0
H689 H 0.94539 0.30816 0.83585 0.0
H690 H 0.07874 0.25309 0.90958 0.0
H691 H 0.04891 0.30168 0.9265 0.0
H692 H 0.97353 0.21122 0.88055 0.0
H693 H 0.9444 0.25205 0.84899 0.0
H694 H 0.94442 0.19364 0.88365 0.0
H695 H 0.91581 0.23384 0.85277 0.0
H696 H 0.0285 0.20548 0.88826 0.0
H697 H 0.00597 0.24163 0.92933 0.0
H698 H 0.05066 0.19382 0.91138 0.0
H699 H 0.02855 0.22942 0.95177 0.0
H700 H 0.04955 0.19249 0.84053 0.0
H701 H 0.99323 0.17626 0.83033 0.0
H702 H 0.91719 0.25373 0.90995 0.0
H703 H 0.94946 0.21328 0.93942 0.0
Li704 Li 0.38751 0.01605 0.24338 0.0
Li705 Li 0.36348 0.00637 0.265 0.0
Li706 Li 0.38812 0.98408 0.25535 0.0
Li707 Li 0.36322 0.99287 0.23455 0.0
C708 C 0.40607 0.01329 0.27817 0.0
N709 N 0.43754 0.02476 0.2962 0.0
C710 C 0.40483 0.02547 0.29303 0.0
C711 C 0.4233 0.00676 0.27267 0.0
C712 C 0.42091 0.03116 0.30191 0.0
C713 C 0.43905 0.01276 0.28191 0.0
C714 C 0.34827 0.03318 0.2444 0.0
C715 C 0.31724 0.04409 0.24877 0.0
N716 N 0.32383 0.06134 0.25184 0.0
C717 C 0.35473 0.05106 0.2474 0.0
C718 C 0.32937 0.02969 0.2449 0.0
C719 C 0.34215 0.06509 0.25121 0.0
C720 C 0.40089 0.03932 0.21602 0.0
N721 N 0.40126 0.03651 0.23451 0.0
C722 C 0.4187 0.06405 0.23894 0.0
C723 C 0.40993 0.04848 0.246 0.0
C724 C 0.41825 0.06748 0.21994 0.0
C725 C 0.40931 0.05481 0.20839 0.0
H726 H 0.39372 0.02966 0.20724 0.0
H727 H 0.40962 0.04631 0.26066 0.0
C728 C 0.33799 0.00317 0.29455 0.0
N729 N 0.3494 0.01481 0.28537 0.0
C730 C 0.32875 0.00913 0.31034 0.0
C731 C 0.34298 0.03897 0.3067 0.0
C732 C 0.35202 0.03241 0.2911 0.0
C733 C 0.33134 0.02722 0.31672 0.0
H734 H 0.33645 0.98912 0.28993 0.0
H735 H 0.36146 0.04125 0.28378 0.0
C736 C 0.40496 0.98648 0.21978 0.0
N737 N 0.43498 0.97433 0.19981 0.0
C738 C 0.40301 0.97211 0.20714 0.0
C739 C 0.4221 0.99493 0.22195 0.0
C740 C 0.41837 0.96608 0.19727 0.0
C741 C 0.43713 0.98853 0.21182 0.0
C742 C 0.34803 0.96686 0.2562 0.0
C743 C 0.3528 0.94823 0.25563 0.0
C744 C 0.32962 0.97203 0.25418 0.0
C745 C 0.33907 0.93509 0.25271 0.0
C746 C 0.3163 0.95849 0.25127 0.0
N747 N 0.32126 0.94045 0.25058 0.0
C748 C 0.40907 0.96325 0.28068 0.0
C749 C 0.40555 0.94952 0.25131 0.0
C750 C 0.41873 0.94791 0.28705 0.0
N751 N 0.4028 0.96381 0.26306 0.0
C752 C 0.41506 0.93387 0.25711 0.0
C753 C 0.42169 0.93288 0.27524 0.0
H754 H 0.40619 0.97454 0.28993 0.0
H755 H 0.39984 0.95 0.23761 0.0
C756 C 0.33848 0.99544 0.20432 0.0
N757 N 0.34894 0.98384 0.21461 0.0
C758 C 0.32917 0.98888 0.1888 0.0
C759 C 0.34127 0.95854 0.1951 0.0
C760 C 0.35047 0.96571 0.21032 0.0
C761 C 0.33066 0.97021 0.18388 0.0
H762 H 0.33775 0.00987 0.20789 0.0
H763 H 0.35915 0.95687 0.21852 0.0
O764 O 0.39044 0.00765 0.26931 0.0
O765 O 0.36038 0.01924 0.24078 0.0
O766 O 0.38999 0.99267 0.22941 0.0
O767 O 0.36132 0.97994 0.25884 0.0
H768 H 0.39161 0.03053 0.2976 0.0
H769 H 0.42449 0.99696 0.26157 0.0
H770 H 0.42016 0.04065 0.31335 0.0
H771 H 0.45247 0.00781 0.27777 0.0
H772 H 0.30257 0.04156 0.24929 0.0
H773 H 0.3693 0.05403 0.24698 0.0
H774 H 0.32412 0.01602 0.24231 0.0
H775 H 0.34697 0.07896 0.25369 0.0
H776 H 0.4252 0.07365 0.24832 0.0
H777 H 0.40875 0.05693 0.19365 0.0
H778 H 0.32015 0.99949 0.31777 0.0
H779 H 0.34523 0.05308 0.31093 0.0
H780 H 0.38981 0.96558 0.20504 0.0
H781 H 0.42379 0.00645 0.2312 0.0
H782 H 0.41708 0.95486 0.18757 0.0
H783 H 0.45048 0.99491 0.21343 0.0
H784 H 0.36695 0.94397 0.25733 0.0
H785 H 0.32569 0.98636 0.2548 0.0
H786 H 0.34257 0.92063 0.25213 0.0
H787 H 0.30201 0.96231 0.24957 0.0
H788 H 0.42327 0.94757 0.30124 0.0
H789 H 0.41704 0.9226 0.24756 0.0
H790 H 0.32138 0.99846 0.18045 0.0
H791 H 0.34261 0.94401 0.19209 0.0
Li792 Li 0.23491 0.13462 0.49525 0.0
Li793 Li 0.24664 0.11146 0.51675 0.0
Li794 Li 0.26674 0.13586 0.50507 0.0
Li795 Li 0.25637 0.11067 0.4853 0.0
C796 C 0.23264 0.15041 0.52827 0.0
N797 N 0.20733 0.17461 0.5431 0.0
C798 C 0.21916 0.14405 0.54043 0.0
C799 C 0.23333 0.1691 0.52376 0.0
C800 C 0.20648 0.1565 0.54776 0.0
C801 C 0.22039 0.1811 0.53135 0.0
C802 C 0.22419 0.09575 0.4822 0.0
C803 C 0.22226 0.06528 0.46917 0.0
N804 N 0.21198 0.07206 0.45508 0.0
C805 C 0.21357 0.10242 0.46761 0.0
C806 C 0.22853 0.07703 0.48304 0.0
C807 C 0.20753 0.09022 0.45403 0.0
C808 C 0.21408 0.15914 0.47315 0.0
N809 N 0.21362 0.14815 0.48827 0.0
C810 C 0.18153 0.15401 0.49233 0.0
C811 C 0.19777 0.14536 0.49778 0.0
C812 C 0.18141 0.16523 0.47655 0.0
C813 C 0.19807 0.16783 0.467 0.0
H814 H 0.22675 0.1607 0.46552 0.0
H815 H 0.19767 0.13611 0.50942 0.0
C816 C 0.24741 0.10407 0.55457 0.0
N817 N 0.24056 0.09793 0.53828 0.0
C818 C 0.2424 0.09553 0.57101 0.0
C819 C 0.2236 0.0743 0.5536 0.0
C820 C 0.22895 0.08329 0.53747 0.0
C821 C 0.23015 0.08058 0.57068 0.0
H822 H 0.25649 0.11587 0.55477 0.0
H823 H 0.2235 0.07888 0.52436 0.0
C824 C 0.26807 0.14976 0.47133 0.0
N825 N 0.29182 0.17488 0.45548 0.0
C826 C 0.28231 0.14371 0.4599 0.0
C827 C 0.26583 0.16858 0.4746 0.0
C828 C 0.29419 0.15663 0.45203 0.0
C829 C 0.27801 0.18106 0.4665 0.0
C830 C 0.27988 0.09869 0.52069 0.0
C831 C 0.29111 0.10682 0.53403 0.0
C832 C 0.27596 0.07988 0.52173 0.0
C833 C 0.29817 0.09598 0.54826 0.0
C834 C 0.28324 0.06953 0.5362 0.0
N835 N 0.2941 0.07773 0.54906 0.0
C836 C 0.2858 0.16325 0.52525 0.0
C837 C 0.30331 0.14842 0.5021 0.0
C838 C 0.3012 0.17324 0.53095 0.0
N839 N 0.28715 0.15109 0.51111 0.0
C840 C 0.31898 0.15831 0.50713 0.0
C841 C 0.31818 0.17074 0.52195 0.0
H842 H 0.27291 0.16474 0.53252 0.0
H843 H 0.30414 0.13826 0.49126 0.0
C844 C 0.25748 0.10146 0.44787 0.0
N845 N 0.26322 0.09595 0.46479 0.0
C846 C 0.26322 0.09203 0.43215 0.0
C847 C 0.28018 0.07107 0.45164 0.0
C848 C 0.27422 0.081 0.46697 0.0
C849 C 0.27494 0.07673 0.43388 0.0
H850 H 0.24885 0.11352 0.44657 0.0
H851 H 0.27864 0.07698 0.48058 0.0
O852 O 0.24507 0.13842 0.52079 0.0
O853 O 0.23064 0.10755 0.49537 0.0
O854 O 0.25643 0.13733 0.47934 0.0
O855 O 0.27254 0.10913 0.50685 0.0
H856 H 0.21835 0.12963 0.54401 0.0
H857 H 0.24372 0.17426 0.51443 0.0
H858 H 0.19591 0.15175 0.55712 0.0
H859 H 0.22071 0.19558 0.52792 0.0
H860 H 0.22563 0.05079 0.46958 0.0
H861 H 0.21016 0.11688 0.46668 0.0
H862 H 0.23691 0.07168 0.49413 0.0
H863 H 0.19936 0.0952 0.44262 0.0
H864 H 0.16916 0.15173 0.50032 0.0
H865 H 0.19866 0.17597 0.45454 0.0
H866 H 0.24791 0.1007 0.58386 0.0
H867 H 0.21394 0.06298 0.55275 0.0
H868 H 0.28434 0.1292 0.45731 0.0
H869 H 0.25485 0.1735 0.48336 0.0
H870 H 0.30533 0.15214 0.44324 0.0
H871 H 0.27649 0.19566 0.46898 0.0
H872 H 0.29424 0.12136 0.53351 0.0
H873 H 0.26711 0.07341 0.51166 0.0
H874 H 0.30682 0.10211 0.55872 0.0
H875 H 0.2802 0.05499 0.53725 0.0
H876 H 0.29993 0.1823 0.5427 0.0
H877 H 0.33163 0.15603 0.49961 0.0
H878 H 0.25904 0.09712 0.41879 0.0
H879 H 0.28898 0.05922 0.45368 0.0
Li880 Li 0.13738 0.01011 0.73658 0.0
Li881 Li 0.11251 0.01827 0.75721 0.0
Li882 Li 0.13653 0.9961 0.76639 0.0
Li883 Li 0.1135 0.98686 0.74399 0.0
C884 C 0.15245 0.03571 0.75982 0.0
N885 N 0.17947 0.06234 0.75712 0.0
C886 C 0.14781 0.05435 0.76097 0.0
C887 C 0.17085 0.03062 0.75752 0.0
C888 C 0.16167 0.06761 0.75952 0.0
C889 C 0.1843 0.04429 0.75612 0.0
C890 C 0.1069 0.02444 0.71831 0.0
C891 C 0.09578 0.03404 0.68854 0.0
N892 N 0.10031 0.05174 0.69265 0.0
C893 C 0.1114 0.04271 0.72223 0.0
C894 C 0.099 0.02005 0.70133 0.0
C895 C 0.10798 0.05632 0.70909 0.0
C896 C 0.15927 0.00558 0.70509 0.0
N897 N 0.15262 0.01856 0.71681 0.0
C898 C 0.16627 0.04253 0.69889 0.0
C899 C 0.15588 0.03677 0.71396 0.0
C900 C 0.1732 0.02945 0.68647 0.0
C901 C 0.16964 0.01074 0.68974 0.0
H902 H 0.1563 0.9912 0.70752 0.0
H903 H 0.15018 0.04693 0.72314 0.0
C904 C 0.10196 0.04465 0.7828 0.0
N905 N 0.09703 0.03727 0.76635 0.0
C906 C 0.09207 0.05935 0.79017 0.0
C907 C 0.07192 0.05835 0.7637 0.0
C908 C 0.08211 0.04351 0.75692 0.0
C909 C 0.07699 0.06655 0.78046 0.0
H910 H 0.11385 0.03931 0.79001 0.0
H911 H 0.07828 0.03716 0.74403 0.0
C912 C 0.1532 0.97054 0.746 0.0
N913 N 0.17906 0.94387 0.75408 0.0
C914 C 0.1476 0.95273 0.75061 0.0
C915 C 0.17196 0.97471 0.74518 0.0
C916 C 0.16088 0.93946 0.75474 0.0
C917 C 0.18482 0.96105 0.7494 0.0
C918 C 0.09143 0.9919 0.77499 0.0
C919 C 0.08692 0.9861 0.79276 0.0
C920 C 0.07743 0.99557 0.76232 0.0
C921 C 0.06841 0.98406 0.79757 0.0
C922 C 0.05909 0.99338 0.76766 0.0
N923 N 0.055 0.98772 0.78503 0.0
C924 C 0.16283 0.99756 0.79551 0.0
C925 C 0.14541 0.97008 0.79332 0.0
C926 C 0.17177 0.99102 0.81123 0.0
N927 N 0.14998 0.98704 0.78691 0.0
C928 C 0.15412 0.96292 0.80886 0.0
C929 C 0.16739 0.97349 0.81817 0.0
H930 H 0.16583 0.01121 0.79048 0.0
H931 H 0.13481 0.9622 0.78647 0.0
C932 C 0.09726 0.96473 0.71664 0.0
N933 N 0.09987 0.96644 0.73507 0.0
C934 C 0.08821 0.94933 0.70954 0.0
C935 C 0.08479 0.93772 0.74053 0.0
C936 C 0.09384 0.95337 0.74704 0.0
C937 C 0.08196 0.9355 0.72153 0.0
H938 H 0.10258 0.97513 0.70745 0.0
H939 H 0.09639 0.95493 0.76162 0.0
O940 O 0.13904 0.02254 0.76111 0.0
O941 O 0.11027 0.01087 0.73094 0.0
O942 O 0.14039 0.98377 0.74212 0.0
O943 O 0.10951 0.99397 0.77016 0.0
H944 H 0.13366 0.05857 0.76285 0.0
H945 H 0.17469 0.01628 0.75679 0.0
H946 H 0.15826 0.08208 0.76028 0.0
H947 H 0.19859 0.04053 0.75425 0.0
H948 H 0.08969 0.03083 0.67534 0.0
H949 H 0.11756 0.04635 0.73527 0.0
H950 H 0.09537 0.00599 0.69805 0.0
H951 H 0.11145 0.07051 0.71196 0.0
H952 H 0.1684 0.05712 0.69669 0.0
H953 H 0.17479 0.00021 0.68053 0.0
H954 H 0.0965 0.06538 0.80307 0.0
H955 H 0.06023 0.06336 0.75593 0.0
H956 H 0.13315 0.94924 0.75119 0.0
H957 H 0.17654 0.9883 0.74124 0.0
H958 H 0.15674 0.92566 0.75849 0.0
H959 H 0.19938 0.96411 0.7489 0.0
H960 H 0.09762 0.9832 0.80272 0.0
H961 H 0.08064 4e-05 0.74849 0.0
H962 H 0.06471 0.97958 0.81128 0.0
H963 H 0.04812 0.99617 0.758 0.0
H964 H 0.18161 -0.00017 0.81813 0.0
H965 H 0.15042 0.94927 0.81354 0.0
H966 H 0.08661 0.94803 0.69477 0.0
H967 H 0.08011 0.92745 0.75026 0.0
Li968 Li 0.26495 0.86238 0.99395 0.0
Li969 Li 0.25484 0.8859 0.01583 0.0
Li970 Li 0.23372 0.8619 0.00538 0.0
Li971 Li 0.24359 0.88671 0.9849 0.0
C972 C 0.26896 0.84683 0.02655 0.0
N973 N 0.29519 0.82245 0.03933 0.0
C974 C 0.2835 0.85312 0.03747 0.0
C975 C 0.26771 0.82813 0.02221 0.0
C976 C 0.29662 0.84057 0.0438 0.0
C977 C 0.28113 0.81603 0.02877 0.0
C978 C 0.27596 0.9008 0.98004 0.0
C979 C 0.27793 0.93102 0.96644 0.0
N980 N 0.28741 0.9238 0.952 0.0
C981 C 0.28575 0.89368 0.96509 0.0
C982 C 0.27206 0.91963 0.98077 0.0
C983 C 0.29142 0.90554 0.95105 0.0
C984 C 0.28351 0.83637 0.97162 0.0
N985 N 0.28546 0.8482 0.98597 0.0
C986 C 0.31766 0.84177 0.98776 0.0
C987 C 0.3021 0.85115 0.994 0.0
C988 C 0.31611 0.82964 0.97281 0.0
C989 C 0.29876 0.82691 0.96475 0.0
H990 H 0.27021 0.83461 0.96521 0.0
H991 H 0.30336 0.8611 0.00498 0.0
C992 C 0.25666 0.89251 0.05362 0.0
N993 N 0.262 0.89939 0.03707 0.0
C994 C 0.2623 0.90096 0.06989 0.0
C995 C 0.27841 0.92378 0.0518 0.0
C996 C 0.27258 0.91477 0.03584 0.0
C997 C 0.27349 0.91669 0.0691 0.0
H998 H 0.24829 0.8802 0.05413 0.0
H999 H 0.27677 0.91983 0.02251 0.0
C1000 C 0.22989 0.84805 0.97205 0.0
N1001 N 0.20401 0.82393 0.9581 0.0
C1002 C 0.21526 0.85464 0.96143 0.0
C1003 C 0.23141 0.82918 0.97549 0.0
C1004 C 0.20232 0.84222 0.95451 0.0
C1005 C 0.21816 0.81721 0.96835 0.0
C1006 C 0.22224 0.89938 0.02141 0.0
C1007 C 0.21199 0.89145 0.03562 0.0
C1008 C 0.22635 0.91817 0.02197 0.0
C1009 C 0.20607 0.90247 0.05023 0.0
C1010 C 0.22022 0.92871 0.03684 0.0
N1011 N 0.21028 0.92071 0.05054 0.0
C1012 C 0.21548 0.8348 0.02656 0.0
C1013 C 0.19668 0.85022 0.00479 0.0
C1014 C 0.20032 0.82503 0.03319 0.0
N1015 N 0.21338 0.84713 0.01265 0.0
C1016 C 0.18121 0.84054 0.01079 0.0
C1017 C 0.18291 0.82796 0.02534 0.0
H1018 H 0.22882 0.83293 0.03286 0.0
H1019 H 0.1953 0.86057 0.9942 0.0
C1020 C 0.24099 0.89543 0.94751 0.0
N1021 N 0.23621 0.90141 0.96457 0.0
C1022 C 0.23506 0.9049 0.93191 0.0
C1023 C 0.21986 0.92687 0.95174 0.0
C1024 C 0.22595 0.91685 0.96697 0.0
C1025 C 0.22416 0.92078 0.93387 0.0
H1026 H 0.24906 0.883 0.94605 0.0
H1027 H 0.22229 0.92125 0.98069 0.0
O1028 O 0.2561 0.85893 0.02001 0.0
O1029 O 0.26988 0.88935 0.99368 0.0
O1030 O 0.24259 0.86 0.97916 0.0
O1031 O 0.22854 0.88875 0.00721 0.0
H1032 H 0.28479 0.86756 0.04084 0.0
H1033 H 0.25656 0.82304 0.01378 0.0
H1034 H 0.308 0.84526 0.05218 0.0
H1035 H 0.28038 0.80154 0.02545 0.0
H1036 H 0.27489 0.94559 0.96676 0.0
H1037 H 0.28879 0.87914 0.96422 0.0
H1038 H 0.26428 0.92533 0.99211 0.0
H1039 H 0.29894 0.90021 0.93936 0.0
H1040 H 0.33087 0.84447 0.99411 0.0
H1041 H 0.29704 0.81768 0.95317 0.0
H1042 H 0.25809 0.89515 0.08296 0.0
H1043 H 0.2872 0.93576 0.05064 0.0
H1044 H 0.21376 0.8692 0.95877 0.0
H1045 H 0.24262 0.82385 0.98368 0.0
H1046 H 0.19087 0.84714 0.94635 0.0
H1047 H 0.21912 0.80259 0.97098 0.0
H1048 H 0.20877 0.87693 0.03549 0.0
H1049 H 0.23451 0.92449 0.01124 0.0
H1050 H 0.19818 0.8965 0.06135 0.0
H1051 H 0.22342 0.94323 0.03752 0.0
H1052 H 0.20213 0.81546 0.04447 0.0
H1053 H 0.16794 0.8434 0.00462 0.0
H1054 H 0.23849 0.89946 0.91847 0.0
H1055 H 0.21174 0.93916 0.95396 0.0
Li1056 Li 0.24374 0.38476 0.01735 0.0
Li1057 Li 0.26684 0.36023 0.0066 0.0
Li1058 Li 0.25609 0.38487 0.98614 0.0
Li1059 Li 0.23548 0.36128 0.99509 0.0
C1060 C 0.28053 0.40238 0.00552 0.0
N1061 N 0.30127 0.4325 0.99519 0.0
C1062 C 0.29855 0.39999 0.99927 0.0
C1063 C 0.27306 0.42007 0.00662 0.0
C1064 C 0.30881 0.4154 0.99408 0.0
C1065 C 0.28378 0.43513 0.00131 0.0
C1066 C 0.2321 0.34371 0.02664 0.0
C1067 C 0.22367 0.31162 0.02742 0.0
N1068 N 0.20815 0.31601 0.03692 0.0
C1069 C 0.21617 0.34789 0.03658 0.0
C1070 C 0.23598 0.32542 0.02217 0.0
C1071 C 0.2042 0.3337 0.04159 0.0
C1072 C 0.21749 0.40092 0.04056 0.0
N1073 N 0.23585 0.39875 0.03781 0.0
C1074 C 0.24264 0.41481 0.06569 0.0
C1075 C 0.24844 0.40559 0.04984 0.0
C1076 C 0.22374 0.4167 0.06923 0.0
C1077 C 0.21108 0.4098 0.05634 0.0
H1078 H 0.20783 0.39536 0.03068 0.0
H1079 H 0.26297 0.40357 0.04728 0.0
C1080 C 0.30203 0.34501 0.00217 0.0
N1081 N 0.28735 0.34599 0.0137 0.0
C1082 C 0.3178 0.33539 0.00742 0.0
C1083 C 0.30285 0.32772 0.03616 0.0
C1084 C 0.28738 0.33752 0.03036 0.0
C1085 C 0.31841 0.32672 0.0247 0.0
H1086 H 0.30153 0.35189 0.98897 0.0
H1087 H 0.2755 0.33866 0.03925 0.0
C1088 C 0.21894 0.393 0.97994 0.0
N1089 N 0.19604 0.40268 0.95119 0.0
C1090 C 0.22033 0.38397 0.96303 0.0
C1091 C 0.20588 0.40691 0.98227 0.0
C1092 C 0.20863 0.38906 0.94865 0.0
C1093 C 0.19444 0.41162 0.96756 0.0
C1094 C 0.26132 0.34458 0.96887 0.0
C1095 C 0.25954 0.34776 0.94996 0.0
C1096 C 0.26621 0.32706 0.97512 0.0
C1097 C 0.26234 0.33325 0.93767 0.0
C1098 C 0.26891 0.31291 0.96238 0.0
N1099 N 0.26692 0.31627 0.94408 0.0
C1100 C 0.27936 0.39284 0.95707 0.0
C1101 C 0.25671 0.41591 0.96145 0.0
C1102 C 0.28655 0.40224 0.94201 0.0
N1103 N 0.26465 0.39968 0.96634 0.0
C1104 C 0.26345 0.4258 0.94637 0.0
C1105 C 0.27854 0.41892 0.93639 0.0
H1106 H 0.28544 0.37995 0.96137 0.0
H1107 H 0.24516 0.42116 0.96922 0.0
C1108 C 0.19811 0.35295 0.99455 0.0
N1109 N 0.21446 0.34718 0.98753 0.0
C1110 C 0.1817 0.34459 0.98915 0.0
C1111 C 0.19916 0.32446 0.96929 0.0
C1112 C 0.21527 0.33305 0.97529 0.0
C1113 C 0.18201 0.33032 0.97608 0.0
H1114 H 0.19783 0.36428 0.0042 0.0
H1115 H 0.22828 0.32863 0.96979 0.0
O1116 O 0.27003 0.38745 0.01005 0.0
O1117 O 0.24378 0.35746 0.02124 0.0
O1118 O 0.23019 0.38824 0.99427 0.0
O1119 O 0.2588 0.35869 0.9811 0.0
H1120 H 0.30448 0.38637 0.99826 0.0
H1121 H 0.25906 0.42211 0.01129 0.0
H1122 H 0.32275 0.41376 0.98911 0.0
H1123 H 0.27816 0.4489 0.00198 0.0
H1124 H 0.22645 0.29741 0.02395 0.0
H1125 H 0.21299 0.36195 0.04024 0.0
H1126 H 0.24833 0.32191 0.01469 0.0
H1127 H 0.19175 0.33676 0.04916 0.0
H1128 H 0.2528 0.41984 0.07537 0.0
H1129 H 0.1964 0.41116 0.05852 0.0
H1130 H 0.32939 0.33477 0.99807 0.0
H1131 H 0.30282 0.32146 0.04969 0.0
H1132 H 0.23024 0.37311 0.96107 0.0
H1133 H 0.20463 0.414 0.99532 0.0
H1134 H 0.20956 0.38217 0.93548 0.0
H1135 H 0.18427 0.42239 0.96915 0.0
H1136 H 0.25607 0.36129 0.9448 0.0
H1137 H 0.26791 0.32436 0.98963 0.0
H1138 H 0.26094 0.3355 0.92302 0.0
H1139 H 0.27262 0.29927 0.96705 0.0
H1140 H 0.29803 0.39629 0.9346 0.0
H1141 H 0.25701 0.43871 0.94262 0.0
H1142 H 0.1689 0.34939 0.99508 0.0
H1143 H 0.20016 0.31374 0.959 0.0
Li1144 Li 0.73657 0.13394 0.00721 0.0
Li1145 Li 0.75941 0.10964 0.0144 0.0
Li1146 Li 0.76761 0.13594 0.99506 0.0
Li1147 Li 0.74697 0.11324 0.98406 0.0
C1148 C 0.75799 0.13818 0.03973 0.0
N1149 N 0.75402 0.14136 0.07741 0.0
C1150 C 0.74438 0.12813 0.04891 0.0
C1151 C 0.76961 0.1498 0.04972 0.0
C1152 C 0.74259 0.12994 0.06796 0.0
C1153 C 0.76737 0.15124 0.06876 0.0
C1154 C 0.72439 0.09147 0.001 0.0
C1155 C 0.72511 0.05986 0.99085 0.0
N1156 N 0.70674 0.06066 0.98737 0.0
C1157 C 0.7055 0.09194 0.99742 0.0
C1158 C 0.73428 0.07528 0.99776 0.0
C1159 C 0.69683 0.07623 0.9905 0.0
C1160 C 0.69997 0.14541 0.00605 0.0
N1161 N 0.71591 0.14786 0.01551 0.0
C1162 C 0.70136 0.16953 0.03552 0.0
C1163 C 0.71699 0.16002 0.02971 0.0
C1164 C 0.6845 0.16681 0.02642 0.0
C1165 C 0.68402 0.15474 0.01131 0.0
H1166 H 0.6997 0.13625 0.99433 0.0
H1167 H 0.72993 0.16239 0.03658 0.0
C1168 C 0.78473 0.09959 0.04127 0.0
N1169 N 0.76844 0.09443 0.03366 0.0
C1170 C 0.79132 0.09073 0.05698 0.0
C1171 C 0.76463 0.07085 0.05629 0.0
C1172 C 0.75835 0.08037 0.0408 0.0
C1173 C 0.78115 0.07625 0.0647 0.0
H1174 H 0.79229 0.11103 0.03545 0.0
H1175 H 0.74516 0.07692 0.03488 0.0
C1176 C 0.74139 0.15855 0.9791 0.0
N1177 N 0.73584 0.19575 0.97346 0.0
C1178 C 0.73331 0.16476 0.96279 0.0
C1179 C 0.74665 0.17127 0.99256 0.0
C1180 C 0.73063 0.18362 0.96019 0.0
C1181 C 0.74372 0.19001 0.98944 0.0
C1182 C 0.78434 0.1077 0.97585 0.0
C1183 C 0.78006 0.11686 0.95948 0.0
C1184 C 0.80026 0.09697 0.97685 0.0
C1185 C 0.79179 0.1151 0.94436 0.0
C1186 C 0.81165 0.09555 0.96142 0.0
N1187 N 0.80721 0.10457 0.94563 0.0
C1188 C 0.80145 0.15379 0.00114 0.0
C1189 C 0.78785 0.16033 0.97222 0.0
C1190 C 0.8168 0.16449 0.9967 0.0
N1191 N 0.78745 0.15186 0.98889 0.0
C1192 C 0.8029 0.17114 0.96721 0.0
C1193 C 0.81772 0.17324 0.97946 0.0
H1194 H 0.80079 0.14678 0.01426 0.0
H1195 H 0.77667 0.15839 0.96261 0.0
C1196 C 0.72346 0.10843 0.95426 0.0
N1197 N 0.73845 0.10088 0.96249 0.0
C1198 C 0.71632 0.10073 0.93821 0.0
C1199 C 0.74004 0.07743 0.93948 0.0
C1200 C 0.74675 0.08561 0.95554 0.0
C1201 C 0.72469 0.08508 0.93052 0.0
H1202 H 0.71707 0.12048 0.96022 0.0
H1203 H 0.7586 0.07982 0.96243 0.0
O1204 O 0.76036 0.13631 0.02115 0.0
O1205 O 0.73326 0.10682 0.00735 0.0
O1206 O 0.74398 0.14008 0.98175 0.0
O1207 O 0.7732 0.10928 0.99095 0.0
H1208 H 0.7353 0.11901 0.04143 0.0
H1209 H 0.78027 0.15759 0.04283 0.0
H1210 H 0.73213 0.12224 0.07524 0.0
H1211 H 0.77626 0.16019 0.07667 0.0
H1212 H 0.73262 0.0473 0.98815 0.0
H1213 H 0.69759 0.10427 -4e-05 0.0
H1214 H 0.74896 0.07475 0.00024 0.0
H1215 H 0.68223 0.07642 0.98761 0.0
H1216 H 0.70243 0.17866 0.04725 0.0
H1217 H 0.67149 0.15258 0.00355 0.0
H1218 H 0.80412 0.09524 0.06314 0.0
H1219 H 0.75635 0.05987 0.06205 0.0
H1220 H 0.72916 0.15508 0.95224 0.0
H1221 H 0.75293 0.1668 0.00526 0.0
H1222 H 0.72439 0.18861 0.94763 0.0
H1223 H 0.74772 0.2 0.99973 0.0
H1224 H 0.76781 0.12523 0.95841 0.0
H1225 H 0.80378 0.08982 0.98945 0.0
H1226 H 0.78863 0.12212 0.93161 0.0
H1227 H 0.82402 0.08729 0.962 0.0
H1228 H 0.82784 0.16585 0.00662 0.0
H1229 H 0.80314 0.17733 0.95366 0.0
H1230 H 0.70426 0.10689 0.93196 0.0
H1231 H 0.74698 0.06545 0.93397 0.0
Li1232 Li 0.13419 0.50656 0.26505 0.0
Li1233 Li 0.11137 0.48422 0.25417 0.0
Li1234 Li 0.13539 0.49431 0.23365 0.0
Li1235 Li 0.11016 0.51468 0.24321 0.0
C1236 C 0.15643 0.47609 0.25929 0.0
N1237 N 0.19298 0.46677 0.26408 0.0
C1238 C 0.16119 0.45854 0.26554 0.0
C1239 C 0.17027 0.48891 0.25545 0.0
C1240 C 0.17974 0.45409 0.26788 0.0
C1241 C 0.18866 0.48393 0.25796 0.0
C1242 C 0.09588 0.51963 0.27666 0.0
C1243 C 0.06585 0.53343 0.2802 0.0
N1244 N 0.07329 0.54665 0.29116 0.0
C1245 C 0.10315 0.53325 0.28816 0.0
C1246 C 0.07702 0.51961 0.27285 0.0
C1247 C 0.09154 0.54682 0.29529 0.0
C1248 C 0.15482 0.53176 0.28648 0.0
N1249 N 0.14863 0.51415 0.28546 0.0
C1250 C 0.16139 0.50724 0.31495 0.0
C1251 C 0.15184 0.50186 0.29917 0.0
C1252 C 0.16745 0.52554 0.31676 0.0
C1253 C 0.16419 0.53782 0.30213 0.0
H1254 H 0.15185 0.54127 0.27544 0.0
H1255 H 0.14674 0.48792 0.29795 0.0
C1256 C 0.10539 0.44629 0.25735 0.0
N1257 N 0.09809 0.46299 0.26151 0.0
C1258 C 0.09686 0.43021 0.26349 0.0
C1259 C 0.07319 0.44885 0.27761 0.0
C1260 C 0.08227 0.46457 0.27132 0.0
C1261 C 0.08063 0.43136 0.27397 0.0
H1262 H 0.11806 0.4455 0.24958 0.0
H1263 H 0.07682 0.47804 0.27446 0.0
C1264 C 0.1404 0.53254 0.22782 0.0
N1265 N 0.14667 0.557 0.19936 0.0
C1266 C 0.13166 0.5301 0.21084 0.0
C1267 C 0.15231 0.54744 0.23031 0.0
C1268 C 0.135 0.54262 0.19663 0.0
C1269 C 0.15532 0.55963 0.21575 0.0
C1270 C 0.09497 0.48033 0.22268 0.0
C1271 C 0.09892 0.46515 0.21154 0.0
C1272 C 0.07688 0.48331 0.22848 0.0
C1273 C 0.08481 0.45296 0.20682 0.0
C1274 C 0.06315 0.47081 0.22349 0.0
N1275 N 0.06737 0.45599 0.21288 0.0
C1276 C 0.15055 0.46775 0.21077 0.0
C1277 C 0.16374 0.49708 0.2056 0.0
C1278 C 0.16063 0.46026 0.19626 0.0
N1279 N 0.15171 0.48599 0.2147 0.0
C1280 C 0.17424 0.49014 0.19106 0.0
C1281 C 0.17245 0.47156 0.18591 0.0
H1282 H 0.14154 0.45906 0.2188 0.0
H1283 H 0.16522 0.51133 0.20949 0.0
C1284 C 0.09781 0.55146 0.24326 0.0
N1285 N 0.09536 0.53479 0.23513 0.0
C1286 C 0.08833 0.56687 0.23683 0.0
C1287 C 0.07435 0.54778 0.21344 0.0
C1288 C 0.08393 0.53269 0.22047 0.0
C1289 C 0.07658 0.56516 0.22159 0.0
H1290 H 0.10752 0.55288 0.25445 0.0
H1291 H 0.08268 0.51944 0.21386 0.0
O1292 O 0.1383 0.48056 0.25688 0.0
O1293 O 0.10712 0.50631 0.26941 0.0
O1294 O 0.13703 0.52075 0.24211 0.0
O1295 O 0.10867 0.49222 0.22788 0.0
H1296 H 0.15063 0.44846 0.26854 0.0
H1297 H 0.16689 0.50255 0.25056 0.0
H1298 H 0.18362 0.44056 0.27272 0.0
H1299 H 0.19951 0.4937 0.25505 0.0
H1300 H 0.05127 0.53362 0.27721 0.0
H1301 H 0.11758 0.53343 0.29155 0.0
H1302 H 0.071 0.50911 0.26426 0.0
H1303 H 0.09704 0.55748 0.3041 0.0
H1304 H 0.16387 0.49717 0.32564 0.0
H1305 H 0.16827 0.55212 0.30296 0.0
H1306 H 0.10326 0.41708 0.26055 0.0
H1307 H 0.06057 0.45042 0.28538 0.0
H1308 H 0.12242 0.51867 0.20859 0.0
H1309 H 0.15917 0.54956 0.24335 0.0
H1310 H 0.12833 0.54089 0.18344 0.0
H1311 H 0.16452 0.57121 0.21749 0.0
H1312 H 0.11266 0.46281 0.20646 0.0
H1313 H 0.07349 0.4951 0.23681 0.0
H1314 H 0.08773 0.44111 0.1983 0.0
H1315 H 0.04913 0.47291 0.22805 0.0
H1316 H 0.15871 0.44588 0.19289 0.0
H1317 H 0.18361 0.49925 0.18391 0.0
H1318 H 0.09071 0.58011 0.24325 0.0
H1319 H 0.06545 0.54593 0.20162 0.0
Li1320 Li 0.74584 0.88799 0.5161 0.0
Li1321 Li 0.76673 0.862 0.50643 0.0
Li1322 Li 0.75718 0.88779 0.48465 0.0
Li1323 Li 0.73567 0.86491 0.49439 0.0
C1324 C 0.78088 0.90039 0.51977 0.0
N1325 N 0.7984 0.92311 0.54472 0.0
C1326 C 0.79191 0.89285 0.53362 0.0
C1327 C 0.77897 0.91948 0.51846 0.0
C1328 C 0.8006 0.90458 0.54614 0.0
C1329 C 0.78787 0.93073 0.53125 0.0
C1330 C 0.73044 0.84921 0.52632 0.0
C1331 C 0.71891 0.81829 0.52965 0.0
N1332 N 0.70297 0.82511 0.53671 0.0
C1333 C 0.714 0.85593 0.53368 0.0
C1334 C 0.73299 0.83025 0.52433 0.0
C1335 C 0.70026 0.84351 0.53882 0.0
C1336 C 0.72284 0.91255 0.53524 0.0
N1337 N 0.73843 0.90232 0.53672 0.0
C1338 C 0.74125 0.91013 0.56857 0.0
C1339 C 0.7476 0.90086 0.55297 0.0
C1340 C 0.72505 0.92059 0.56749 0.0
C1341 C 0.71588 0.92186 0.55052 0.0
H1342 H 0.71547 0.91302 0.52233 0.0
H1343 H 0.75951 0.89203 0.55399 0.0
C1344 C 0.8018 0.84583 0.50384 0.0
N1345 N 0.78626 0.84669 0.51419 0.0
C1346 C 0.8171 0.83607 0.51019 0.0
C1347 C 0.7999 0.82804 0.53754 0.0
C1348 C 0.78495 0.83793 0.53065 0.0
C1349 C 0.81636 0.82725 0.5274 0.0
H1350 H 0.80246 0.85314 0.49089 0.0
H1351 H 0.77246 0.83907 0.53866 0.0
C1352 C 0.72555 0.90607 0.48294 0.0
N1353 N 0.71375 0.93519 0.4615 0.0
C1354 C 0.71406 0.90293 0.46782 0.0
C1355 C 0.73091 0.92403 0.48723 0.0
C1356 C 0.70827 0.91783 0.45714 0.0
C1357 C 0.72484 0.93856 0.4762 0.0
C1358 C 0.75542 0.8474 0.46767 0.0
C1359 C 0.744 0.85102 0.45262 0.0
C1360 C 0.7634 0.83 0.46962 0.0
C1361 C 0.74063 0.83709 0.43981 0.0
C1362 C 0.75972 0.81645 0.45648 0.0
N1363 N 0.7485 0.82024 0.44198 0.0
C1364 C 0.78253 0.91126 0.46675 0.0
C1365 C 0.75681 0.90295 0.4485 0.0
C1366 C 0.79012 0.92112 0.45209 0.0
N1367 N 0.76617 0.9024 0.4647 0.0
C1368 C 0.76375 0.91286 0.43359 0.0
C1369 C 0.78071 0.92194 0.43523 0.0
H1370 H 0.78987 0.91036 0.47965 0.0
H1371 H 0.74412 0.89542 0.44698 0.0
C1372 C 0.69794 0.86078 0.48884 0.0
N1373 N 0.71403 0.85133 0.48756 0.0
C1374 C 0.68143 0.85265 0.48346 0.0
C1375 C 0.6981 0.82479 0.47634 0.0
C1376 C 0.7143 0.83343 0.48208 0.0
C1377 C 0.68139 0.83454 0.47665 0.0
H1378 H 0.69796 0.87474 0.49397 0.0
H1379 H 0.72706 0.82585 0.48198 0.0
O1380 O 0.77217 0.88913 0.50745 0.0
O1381 O 0.74383 0.86116 0.52071 0.0
O1382 O 0.73147 0.89164 0.49351 0.0
O1383 O 0.75899 0.86083 0.48034 0.0
H1384 H 0.79362 0.87812 0.53481 0.0
H1385 H 0.77074 0.92554 0.50765 0.0
H1386 H 0.80908 0.89893 0.557 0.0
H1387 H 0.78644 0.94553 0.53045 0.0
H1388 H 0.72063 0.80358 0.52809 0.0
H1389 H 0.71181 0.87059 0.5352 0.0
H1390 H 0.74559 0.82487 0.51849 0.0
H1391 H 0.68741 0.84851 0.54445 0.0
H1392 H 0.7485 0.90854 0.58149 0.0
H1393 H 0.70332 0.92978 0.54915 0.0
H1394 H 0.82958 0.83603 0.50204 0.0
H1395 H 0.79867 0.8213 0.55077 0.0
H1396 H 0.7099 0.8891 0.46417 0.0
H1397 H 0.73963 0.92673 0.49897 0.0
H1398 H 0.69949 0.91558 0.44533 0.0
H1399 H 0.72893 0.95253 0.47934 0.0
H1400 H 0.73752 0.86431 0.45105 0.0
H1401 H 0.77227 0.82698 0.48119 0.0
H1402 H 0.7317 0.83965 0.42817 0.0
H1403 H 0.76576 0.80291 0.45782 0.0
H1404 H 0.80326 0.92795 0.45387 0.0
H1405 H 0.75623 0.91288 0.42072 0.0
H1406 H 0.66883 0.86053 0.48455 0.0
H1407 H 0.6988 0.8108 0.47127 0.0
Li1408 Li 0.88873 0.01531 0.25383 0.0
Li1409 Li 0.8654 0.99432 0.26606 0.0
Li1410 Li 0.88939 0.98359 0.24492 0.0
Li1411 Li 0.86427 0.00343 0.23395 0.0
C1412 C 0.90434 0.9818 0.27785 0.0
N1413 N 0.92825 0.95614 0.29254 0.0
C1414 C 0.898 0.96889 0.29063 0.0
C1415 C 0.92286 0.98174 0.27264 0.0
C1416 C 0.91031 0.95602 0.29789 0.0
C1417 C 0.93472 0.96863 0.28018 0.0
C1418 C 0.84956 0.02721 0.26738 0.0
C1419 C 0.81852 0.03092 0.27849 0.0
N1420 N 0.82482 0.04222 0.29203 0.0
C1421 C 0.85573 0.03893 0.28133 0.0
C1422 C 0.8308 0.02324 0.26586 0.0
C1423 C 0.843 0.04636 0.29367 0.0
C1424 C 0.89542 0.05315 0.25328 0.0
N1425 N 0.90252 0.03686 0.25912 0.0
C1426 C 0.92776 0.05226 0.27349 0.0
C1427 C 0.91842 0.03608 0.26893 0.0
C1428 C 0.9205 0.06933 0.26805 0.0
C1429 C 0.90422 0.06964 0.25763 0.0
H1430 H 0.88272 0.05331 0.24553 0.0
H1431 H 0.92366 0.02295 0.27353 0.0
C1432 C 0.84033 0.97277 0.28648 0.0
N1433 N 0.85158 0.98769 0.28729 0.0
C1434 C 0.83148 0.96646 0.30232 0.0
C1435 C 0.84561 0.99126 0.31944 0.0
C1436 C 0.8544 0.99693 0.30332 0.0
C1437 C 0.83421 0.97567 0.3191 0.0
H1438 H 0.83866 0.96543 0.27366 0.0
H1439 H 0.86391 0.00836 0.3037 0.0
C1440 C 0.902 0.01808 0.22083 0.0
N1441 N 0.9241 0.04561 0.20672 0.0
C1442 C 0.89427 0.0323 0.21044 0.0
C1443 C 0.92098 0.0178 0.22396 0.0
C1444 C 0.90568 0.0461 0.20343 0.0
C1445 C 0.93192 0.03187 0.21674 0.0
C1446 C 0.85059 0.96915 0.23343 0.0
C1447 C 0.85698 0.95626 0.22066 0.0
C1448 C 0.83177 0.97295 0.23452 0.0
C1449 C 0.84441 0.94751 0.20903 0.0
C1450 C 0.81964 0.96393 0.22264 0.0
N1451 N 0.82617 0.95151 0.21024 0.0
C1452 C 0.90101 0.94678 0.2475 0.0
C1453 C 0.91609 0.96405 0.22431 0.0
C1454 C 0.91055 0.93093 0.24239 0.0
N1455 N 0.90394 0.96288 0.23847 0.0
C1456 C 0.92582 0.94849 0.21861 0.0
C1457 C 0.92299 0.93157 0.22758 0.0
H1458 H 0.89099 0.94619 0.25849 0.0
H1459 H 0.91785 0.97695 0.21711 0.0
C1460 C 0.83919 0.02513 0.21374 0.0
N1461 N 0.84934 0.00943 0.2133 0.0
C1462 C 0.82987 0.03108 0.19801 0.0
C1463 C 0.8411 0.00426 0.18189 0.0
C1464 C 0.85051 0.99905 0.1978 0.0
C1465 C 0.83087 0.0207 0.18167 0.0
H1466 H 0.83893 0.03342 0.22609 0.0
H1467 H 0.85917 0.98696 0.19762 0.0
O1468 O 0.89246 0.99437 0.27041 0.0
O1469 O 0.86181 0.01963 0.25529 0.0
O1470 O 0.89101 0.00473 0.22824 0.0
O1471 O 0.86268 0.97795 0.24486 0.0
H1472 H 0.88373 0.96869 0.2948 0.0
H1473 H 0.92796 0.99153 0.26266 0.0
H1474 H 0.90559 0.9459 0.30773 0.0
H1475 H 0.94905 0.96833 0.27617 0.0
H1476 H 0.80397 0.0279 0.27754 0.0
H1477 H 0.87021 0.04208 0.28275 0.0
H1478 H 0.82581 0.01428 0.25508 0.0
H1479 H 0.84758 0.05537 0.3046 0.0
H1480 H 0.94017 0.05146 0.28172 0.0
H1481 H 0.89827 0.08251 0.25303 0.0
H1482 H 0.82277 0.95439 0.30153 0.0
H1483 H 0.84828 0.99853 0.33218 0.0
H1484 H 0.87961 0.03278 0.20795 0.0
H1485 H 0.92717 0.00696 0.23208 0.0
H1486 H 0.89988 0.05723 0.19543 0.0
H1487 H 0.94661 0.03189 0.21916 0.0
H1488 H 0.8715 0.95317 0.2196 0.0
H1489 H 0.82659 0.98281 0.24439 0.0
H1490 H 0.84917 0.93758 0.19902 0.0
H1491 H 0.80505 0.9668 0.22327 0.0
H1492 H 0.90806 0.91828 0.24986 0.0
H1493 H 0.93497 0.9496 0.20691 0.0
H1494 H 0.82259 0.04406 0.19853 0.0
H1495 H 0.84213 0.9956 0.16981 0.0
Li1496 Li 0.23565 0.63471 0.50624 0.0
Li1497 Li 0.25676 0.61163 0.51555 0.0
Li1498 Li 0.26634 0.6339 0.49354 0.0
Li1499 Li 0.24385 0.60999 0.48509 0.0
C1500 C 0.26177 0.6566 0.52329 0.0
N1501 N 0.26697 0.69343 0.53125 0.0
C1502 C 0.27039 0.66183 0.53967 0.0
C1503 C 0.2558 0.67012 0.51095 0.0
C1504 C 0.27288 0.68052 0.54345 0.0
C1505 C 0.25856 0.68865 0.51523 0.0
C1506 C 0.21923 0.6049 0.5234 0.0
C1507 C 0.19146 0.59201 0.53619 0.0
N1508 N 0.19586 0.5993 0.55286 0.0
C1509 C 0.22347 0.61228 0.54065 0.0
C1510 C 0.20309 0.5947 0.52112 0.0
C1511 C 0.21149 0.60929 0.55538 0.0
C1512 C 0.20129 0.65243 0.5024 0.0
N1513 N 0.21561 0.64957 0.51411 0.0
C1514 C 0.19978 0.6651 0.53835 0.0
C1515 C 0.21525 0.65592 0.5317 0.0
C1516 C 0.18457 0.66784 0.52676 0.0
C1517 C 0.18556 0.6617 0.50845 0.0
H1518 H 0.20191 0.64704 0.48853 0.0
H1519 H 0.22677 0.65341 0.54076 0.0
C1520 C 0.281 0.60541 0.54428 0.0
N1521 N 0.26588 0.59811 0.53608 0.0
C1522 C 0.28837 0.59727 0.56001 0.0
C1523 C 0.26467 0.57397 0.55839 0.0
C1524 C 0.25778 0.58255 0.5426 0.0
C1525 C 0.28004 0.58148 0.56745 0.0
H1526 H 0.28725 0.61769 0.53863 0.0
H1527 H 0.24582 0.57696 0.53573 0.0
C1528 C 0.24507 0.64002 0.46163 0.0
N1529 N 0.24992 0.64577 0.42435 0.0
C1530 C 0.25911 0.63087 0.45217 0.0
C1531 C 0.23347 0.65206 0.45211 0.0
C1532 C 0.26134 0.63397 0.43333 0.0
C1533 C 0.23616 0.6548 0.43327 0.0
C1534 C 0.27803 0.59041 0.49629 0.0
C1535 C 0.29695 0.58933 0.49954 0.0
C1536 C 0.26715 0.57464 0.49809 0.0
C1537 C 0.30468 0.57248 0.50464 0.0
C1538 C 0.2754 0.55804 0.50319 0.0
N1539 N 0.29383 0.55732 0.50635 0.0
C1540 C 0.30323 0.64379 0.49358 0.0
C1541 C 0.2854 0.66232 0.47352 0.0
C1542 C 0.31925 0.65299 0.48841 0.0
N1543 N 0.28684 0.64826 0.4858 0.0
C1544 C 0.3011 0.67192 0.46794 0.0
C1545 C 0.31836 0.6671 0.47521 0.0
H1546 H 0.30381 0.63304 0.50384 0.0
H1547 H 0.27214 0.66604 0.46795 0.0
C1548 C 0.21701 0.59856 0.46021 0.0
N1549 N 0.23475 0.59563 0.46531 0.0
C1550 C 0.20981 0.58978 0.44472 0.0
C1551 C 0.23919 0.57483 0.44024 0.0
C1552 C 0.24589 0.58408 0.4557 0.0
C1553 C 0.22096 0.57776 0.43441 0.0
H1554 H 0.20863 0.60814 0.46794 0.0
H1555 H 0.26007 0.58232 0.45981 0.0
O1556 O 0.25936 0.63831 0.51947 0.0
O1557 O 0.23059 0.60781 0.50867 0.0
O1558 O 0.24236 0.63705 0.48002 0.0
O1559 O 0.27006 0.60687 0.49178 0.0
H1560 H 0.27509 0.65154 0.54936 0.0
H1561 H 0.24908 0.66641 0.49822 0.0
H1562 H 0.27953 0.68476 0.55608 0.0
H1563 H 0.25401 0.69924 0.50581 0.0
H1564 H 0.17891 0.58414 0.53463 0.0
H1565 H 0.23586 0.62028 0.54267 0.0
H1566 H 0.19959 0.58896 0.50782 0.0
H1567 H 0.2146 0.61494 0.5688 0.0
H1568 H 0.19963 0.66981 0.55249 0.0
H1569 H 0.17405 0.66344 0.49914 0.0
H1570 H 0.30046 0.60332 0.56628 0.0
H1571 H 0.25775 0.56188 0.56369 0.0
H1572 H 0.26823 0.62149 0.45926 0.0
H1573 H 0.2225 0.65919 0.45923 0.0
H1574 H 0.27215 0.62698 0.42585 0.0
H1575 H 0.22729 0.66408 0.42574 0.0
H1576 H 0.30561 0.60134 0.49815 0.0
H1577 H 0.25244 0.57528 0.49585 0.0
H1578 H 0.3193 0.57145 0.50724 0.0
H1579 H 0.26712 0.54576 0.50474 0.0
H1580 H 0.3322 0.64914 0.49471 0.0
H1581 H 0.29978 0.6827 0.45774 0.0
H1582 H 0.19582 0.59283 0.4406 0.0
H1583 H 0.24826 0.56557 0.4329 0.0
Li1584 Li 0.38828 0.5142 0.75797 0.0
Li1585 Li 0.36278 0.49272 0.7675 0.0
Li1586 Li 0.38627 0.48315 0.74658 0.0
Li1587 Li 0.36393 0.50453 0.73581 0.0
C1588 C 0.40303 0.47962 0.77791 0.0
N1589 N 0.43053 0.45513 0.78728 0.0
C1590 C 0.39861 0.46296 0.78643 0.0
C1591 C 0.42141 0.48392 0.77427 0.0
C1592 C 0.41272 0.45073 0.79103 0.0
C1593 C 0.43512 0.47133 0.77909 0.0
C1594 C 0.35094 0.53219 0.76657 0.0
C1595 C 0.32347 0.55082 0.76748 0.0
N1596 N 0.33027 0.55997 0.78233 0.0
C1597 C 0.3577 0.54187 0.78176 0.0
C1598 C 0.33373 0.53678 0.75928 0.0
C1599 C 0.34702 0.55581 0.78957 0.0
C1600 C 0.40661 0.54831 0.75455 0.0
N1601 N 0.40306 0.53398 0.76604 0.0
C1602 C 0.41845 0.54906 0.79083 0.0
C1603 C 0.40899 0.53392 0.78377 0.0
C1604 C 0.42196 0.56428 0.77945 0.0
C1605 C 0.41622 0.56368 0.76099 0.0
H1606 H 0.40159 0.54796 0.74054 0.0
H1607 H 0.40587 0.52233 0.79257 0.0
C1608 C 0.34367 0.46698 0.78886 0.0
N1609 N 0.34801 0.48514 0.78779 0.0
C1610 C 0.33444 0.4601 0.80424 0.0
C1611 C 0.33404 0.49081 0.81703 0.0
C1612 C 0.34332 0.49707 0.80141 0.0
C1613 C 0.32974 0.47203 0.81872 0.0
H1614 H 0.34782 0.45772 0.77797 0.0
H1615 H 0.34729 0.51133 0.80049 0.0
C1616 C 0.39502 0.50228 0.71405 0.0
N1617 N 0.4024 0.49539 0.67739 0.0
C1618 C 0.38681 0.4873 0.70518 0.0
C1619 C 0.40696 0.51375 0.70429 0.0
C1620 C 0.39072 0.48405 0.68664 0.0
C1621 C 0.41053 0.51003 0.68576 0.0
C1622 C 0.3416 0.47384 0.74145 0.0
C1623 C 0.33735 0.45757 0.73213 0.0
C1624 C 0.32741 0.4851 0.74789 0.0
C1625 C 0.31892 0.45287 0.72932 0.0
C1626 C 0.30915 0.47992 0.74483 0.0
N1627 N 0.30532 0.46405 0.73567 0.0
C1628 C 0.39282 0.44544 0.74344 0.0
C1629 C 0.41696 0.46372 0.7313 0.0
C1630 C 0.40185 0.42937 0.73813 0.0
N1631 N 0.40038 0.46214 0.73982 0.0
C1632 C 0.42637 0.44798 0.7255 0.0
C1633 C 0.41872 0.43048 0.7287 0.0
H1634 H 0.37968 0.44465 0.75039 0.0
H1635 H 0.4227 0.4772 0.72869 0.0
C1636 C 0.34968 0.5319 0.71294 0.0
N1637 N 0.35031 0.51337 0.71532 0.0
C1638 C 0.34112 0.5394 0.69748 0.0
C1639 C 0.33404 0.50859 0.68713 0.0
C1640 C 0.34267 0.50169 0.70285 0.0
C1641 C 0.33332 0.52769 0.68419 0.0
H1642 H 0.35609 0.54085 0.72297 0.0
H1643 H 0.34373 0.48699 0.70481 0.0
O1644 O 0.3894 0.49153 0.77282 0.0
O1645 O 0.36136 0.51871 0.75851 0.0
O1646 O 0.39132 0.50588 0.73216 0.0
O1647 O 0.35961 0.47862 0.74413 0.0
H1648 H 0.38442 0.45943 0.78927 0.0
H1649 H 0.42502 0.49674 0.76758 0.0
H1650 H 0.40951 0.43773 0.79753 0.0
H1651 H 0.44941 0.4744 0.77625 0.0
H1652 H 0.31012 0.55449 0.762 0.0
H1653 H 0.37093 0.53848 0.78764 0.0
H1654 H 0.32834 0.52964 0.74738 0.0
H1655 H 0.35205 0.56333 0.80141 0.0
H1656 H 0.4228 0.54896 0.80509 0.0
H1657 H 0.41855 0.57522 0.75185 0.0
H1658 H 0.33127 0.44556 0.80491 0.0
H1659 H 0.33094 0.50042 0.82799 0.0
H1660 H 0.37753 0.47826 0.71248 0.0
H1661 H 0.41339 0.52541 0.71097 0.0
H1662 H 0.38446 0.47252 0.6796 0.0
H1663 H 0.41974 0.5188 0.67803 0.0
H1664 H 0.34821 0.44871 0.72705 0.0
H1665 H 0.33044 0.49759 0.75531 0.0
H1666 H 0.31543 0.44033 0.72208 0.0
H1667 H 0.29803 0.4885 0.74976 0.0
H1668 H 0.3956 0.41623 0.74132 0.0
H1669 H 0.43922 0.44959 0.71813 0.0
H1670 H 0.3407 0.55422 0.69592 0.0
H1671 H 0.32851 0.49903 0.67712 0.0
Li1672 Li 0.63632 0.00768 0.76469 0.0
Li1673 Li 0.61268 0.98624 0.75568 0.0
Li1674 Li 0.63605 0.99528 0.73394 0.0
Li1675 Li 0.61277 0.01683 0.74306 0.0
C1676 C 0.65738 0.97595 0.75877 0.0
N1677 N 0.69351 0.96449 0.76177 0.0
C1678 C 0.66138 0.95758 0.7628 0.0
C1679 C 0.67174 0.9885 0.75627 0.0
C1680 C 0.67974 0.95205 0.76427 0.0
C1681 C 0.68992 0.98244 0.75784 0.0
C1682 C 0.60585 0.00703 0.78747 0.0
C1683 C 0.59105 0.01623 0.81571 0.0
N1684 N 0.59883 0.00161 0.82445 0.0
C1685 C 0.6137 0.9921 0.79672 0.0
C1686 C 0.59444 0.0192 0.79702 0.0
C1687 C 0.60998 0.9896 0.81541 0.0
C1688 C 0.65259 0.03499 0.78622 0.0
N1689 N 0.65071 0.01645 0.78474 0.0
C1690 C 0.66703 0.0119 0.81293 0.0
C1691 C 0.65781 0.00486 0.79761 0.0
C1692 C 0.6689 0.03104 0.81504 0.0
C1693 C 0.66172 0.04262 0.8013 0.0
H1694 H 0.64669 0.04385 0.77581 0.0
H1695 H 0.65594 0.99016 0.79621 0.0
C1696 C 0.60444 0.94918 0.75612 0.0
N1697 N 0.59845 0.96552 0.76291 0.0
C1698 C 0.59589 0.9328 0.76131 0.0
C1699 C 0.57487 0.9504 0.78015 0.0
C1700 C 0.5837 0.96649 0.77438 0.0
C1701 C 0.58113 0.9332 0.77382 0.0
H1702 H 0.61606 0.94889 0.74682 0.0
H1703 H 0.57901 0.97969 0.77939 0.0
C1704 C 0.64348 0.03222 0.72644 0.0
N1705 N 0.6511 0.05427 0.6964 0.0
C1706 C 0.6361 0.02796 0.70918 0.0
C1707 C 0.65475 0.04767 0.7284 0.0
C1708 C 0.64011 0.03929 0.69418 0.0
C1709 C 0.65844 0.05866 0.71306 0.0
C1710 C 0.59098 0.99137 0.72502 0.0
C1711 C 0.5861 0.984 0.70793 0.0
C1712 C 0.5772 0.99679 0.73731 0.0
C1713 C 0.5675 0.98213 0.70344 0.0
C1714 C 0.55876 0.99468 0.73231 0.0
N1715 N 0.55433 0.98746 0.71562 0.0
C1716 C 0.64187 0.97359 0.70308 0.0
C1717 C 0.66732 0.99291 0.70978 0.0
C1718 C 0.65057 0.96703 0.6873 0.0
N1719 N 0.65022 0.98643 0.71381 0.0
C1720 C 0.67666 0.98651 0.69422 0.0
C1721 C 0.66813 0.97359 0.68265 0.0
H1722 H 0.62833 0.96862 0.70671 0.0
H1723 H 0.67357 0.00328 0.71844 0.0
C1724 C 0.59477 0.05085 0.74732 0.0
N1725 N 0.5982 0.03708 0.73516 0.0
C1726 C 0.58484 0.06638 0.74183 0.0
C1727 C 0.58212 0.05315 0.71142 0.0
C1728 C 0.59201 0.03788 0.71752 0.0
C1729 C 0.57848 0.06774 0.7236 0.0
H1730 H 0.59993 0.04985 0.76125 0.0
H1731 H 0.59501 0.0268 0.70807 0.0
O1732 O 0.63944 0.98147 0.7573 0.0
O1733 O 0.60938 0.00994 0.7692 0.0
O1734 O 0.63984 0.02137 0.74139 0.0
O1735 O 0.60919 0.99333 0.72947 0.0
H1736 H 0.6504 0.9477 0.76478 0.0
H1737 H 0.66893 0.00278 0.75317 0.0
H1738 H 0.68304 0.93787 0.76738 0.0
H1739 H 0.70116 0.992 0.75594 0.0
H1740 H 0.58224 0.02554 0.82328 0.0
H1741 H 0.62251 0.98249 0.78956 0.0
H1742 H 0.58826 0.03084 0.79006 0.0
H1743 H 0.61596 0.9781 0.82274 0.0
H1744 H 0.67213 0.00247 0.82329 0.0
H1745 H 0.66305 0.05743 0.80223 0.0
H1746 H 0.60093 0.91996 0.75567 0.0
H1747 H 0.56366 0.95144 0.7899 0.0
H1748 H 0.62739 0.01605 0.70735 0.0
H1749 H 0.6606 0.05113 0.74167 0.0
H1750 H 0.63448 0.03615 0.68075 0.0
H1751 H 0.66714 0.07067 0.71438 0.0
H1752 H 0.59658 0.97984 0.6982 0.0
H1753 H 0.58063 0.00263 0.75054 0.0
H1754 H 0.56354 0.97646 0.69026 0.0
H1755 H 0.54797 0.99882 0.7417 0.0
H1756 H 0.64365 0.95691 0.67881 0.0
H1757 H 0.69016 0.99195 0.69099 0.0
H1758 H 0.58218 0.07717 0.75176 0.0
H1759 H 0.5778 0.05371 0.69717 0.0
Li1760 Li 0.7564 0.61114 0.98273 0.0
Li1761 Li 0.76463 0.63515 0.00621 0.0
Li1762 Li 0.74364 0.61062 0.01351 0.0
Li1763 Li 0.73357 0.63451 0.99319 0.0
C1764 C 0.77586 0.59484 0.01772 0.0
N1765 N 0.78653 0.56739 0.04177 0.0
C1766 C 0.78391 0.59937 0.03459 0.0
C1767 C 0.77347 0.57637 0.01297 0.0
C1768 C 0.78916 0.58529 0.04659 0.0
C1769 C 0.77889 0.56269 0.02534 0.0
C1770 C 0.75815 0.65664 0.9743 0.0
C1771 C 0.75596 0.68908 0.981 0.0
N1772 N 0.75978 0.69293 0.96308 0.0
C1773 C 0.76202 0.66091 0.95596 0.0
C1774 C 0.75507 0.67082 0.98695 0.0
C1775 C 0.76279 0.67935 0.95056 0.0
C1776 C 0.75433 0.59522 0.94735 0.0
N1777 N 0.76536 0.59792 0.96222 0.0
C1778 C 0.79035 0.58263 0.94738 0.0
C1779 C 0.78302 0.59181 0.96257 0.0
C1780 C 0.77934 0.57967 0.93176 0.0
C1781 C 0.76105 0.58595 0.93191 0.0
H1782 H 0.74037 0.6004 0.94747 0.0
H1783 H 0.79144 0.59424 0.9746 0.0
C1784 C 0.78538 0.6528 0.03352 0.0
N1785 N 0.78428 0.64978 0.0151 0.0
C1786 C 0.80058 0.66192 0.04092 0.0
C1787 C 0.81278 0.66542 0.01015 0.0
C1788 C 0.79748 0.65596 0.00336 0.0
C1789 C 0.8146 0.66818 0.02919 0.0
H1790 H 0.77468 0.64763 0.0425 0.0
H1791 H 0.79632 0.65317 0.98879 0.0
C1792 C 0.71957 0.59281 0.98682 0.0
N1793 N 0.69734 0.56258 0.98052 0.0
C1794 C 0.70045 0.59432 0.9885 0.0
C1795 C 0.72734 0.57597 0.98169 0.0
C1796 C 0.68946 0.57886 0.98534 0.0
C1797 C 0.71588 0.56084 0.97863 0.0
C1798 C 0.72613 0.64115 0.03013 0.0
C1799 C 0.70994 0.63097 0.02826 0.0
C1800 C 0.72701 0.65537 0.04304 0.0
C1801 C 0.69483 0.63519 0.03936 0.0
C1802 C 0.7116 0.65919 0.05389 0.0
N1803 N 0.69596 0.6491 0.05184 0.0
C1804 C 0.74133 0.60191 0.05081 0.0
C1805 C 0.72612 0.57988 0.0322 0.0
C1806 C 0.73581 0.59274 0.06676 0.0
N1807 N 0.7363 0.5955 0.03395 0.0
C1808 C 0.72007 0.57044 0.04779 0.0
C1809 C 0.72478 0.57697 0.06534 0.0
H1810 H 0.7494 0.61437 0.05186 0.0
H1811 H 0.72238 0.57481 0.01881 0.0
C1812 C 0.70352 0.64101 0.97057 0.0
N1813 N 0.71311 0.64844 0.98479 0.0
C1814 C 0.68757 0.64951 0.96417 0.0
C1815 C 0.692 0.67361 0.98668 0.0
C1816 C 0.70784 0.66453 0.99278 0.0
C1817 C 0.68151 0.66593 0.97237 0.0
H1818 H 0.70817 0.62831 0.96436 0.0
H1819 H 0.71576 0.67017 0.00404 0.0
O1820 O 0.7702 0.60844 0.00599 0.0
O1821 O 0.75721 0.63865 0.97975 0.0
O1822 O 0.73052 0.60788 0.98963 0.0
O1823 O 0.74112 0.63733 0.0194 0.0
H1824 H 0.7859 0.61359 0.03847 0.0
H1825 H 0.76745 0.57262 -0.00011 0.0
H1826 H 0.79527 0.58859 0.05976 0.0
H1827 H 0.77702 0.54833 0.02188 0.0
H1828 H 0.75361 0.70018 0.99063 0.0
H1829 H 0.76438 0.65007 0.94601 0.0
H1830 H 0.752 0.66778 0.00119 0.0
H1831 H 0.76578 0.68286 0.9364 0.0
H1832 H 0.80446 0.57785 0.94786 0.0
H1833 H 0.7522 0.58412 0.92006 0.0
H1834 H 0.80148 0.66389 0.05568 0.0
H1835 H 0.8234 0.66991 0.0007 0.0
H1836 H 0.69412 0.60729 0.99215 0.0
H1837 H 0.74204 0.57453 0.98017 0.0
H1838 H 0.67467 0.57982 0.98666 0.0
H1839 H 0.72173 0.54771 0.97474 0.0
H1840 H 0.70909 0.61988 0.01843 0.0
H1841 H 0.73947 0.66339 0.04463 0.0
H1842 H 0.68221 0.62739 0.03807 0.0
H1843 H 0.71207 0.67017 0.06393 0.0
H1844 H 0.7396 0.5983 0.08007 0.0
H1845 H 0.7117 0.55821 0.04616 0.0
H1846 H 0.68004 0.6433 0.9529 0.0
H1847 H 0.68775 0.68623 0.99339 0.0
Li1848 Li 0.88842 0.51693 0.74278 0.0
Li1849 Li 0.86478 0.50592 0.76294 0.0
Li1850 Li 0.88892 0.48514 0.75401 0.0
Li1851 Li 0.86456 0.49496 0.7316 0.0
C1852 C 0.89543 0.52212 0.78017 0.0
N1853 N 0.90313 0.55072 0.80401 0.0
C1854 C 0.88581 0.53871 0.77879 0.0
C1855 C 0.90894 0.52004 0.79369 0.0
C1856 C 0.88991 0.55301 0.79096 0.0
C1857 C 0.91264 0.53467 0.80561 0.0
C1858 C 0.84707 0.53172 0.73729 0.0
C1859 C 0.81516 0.53627 0.72932 0.0
N1860 N 0.81737 0.55474 0.73138 0.0
C1861 C 0.84907 0.55077 0.73914 0.0
C1862 C 0.83002 0.52441 0.73218 0.0
C1863 C 0.83388 0.56217 0.73617 0.0
C1864 C 0.89552 0.54665 0.72006 0.0
N1865 N 0.90231 0.53761 0.73494 0.0
C1866 C 0.92662 0.55956 0.73795 0.0
C1867 C 0.91771 0.54353 0.74378 0.0
C1868 C 0.91961 0.56949 0.72289 0.0
C1869 C 0.90397 0.56268 0.71378 0.0
H1870 H 0.88335 0.54148 0.71322 0.0
H1871 H 0.92292 0.53598 0.75549 0.0
C1872 C 0.85648 0.50587 0.80033 0.0
N1873 N 0.85032 0.51264 0.78401 0.0
C1874 C 0.848 0.51091 0.81679 0.0
C1875 C 0.82677 0.52968 0.79941 0.0
C1876 C 0.83558 0.52414 0.78326 0.0
C1877 C 0.83311 0.52326 0.81653 0.0
H1878 H 0.86825 0.49676 0.80056 0.0
H1879 H 0.83083 0.5294 0.77026 0.0
C1880 C 0.90976 0.49332 0.722 0.0
N1881 N 0.94568 0.49214 0.70963 0.0
C1882 C 0.91345 0.4901 0.70341 0.0
C1883 C 0.92431 0.496 0.7343 0.0
C1884 C 0.93172 0.48953 0.69742 0.0
C1885 C 0.94237 0.49534 0.72777 0.0
C1886 C 0.84934 0.47368 0.76658 0.0
C1887 C 0.85483 0.4628 0.78146 0.0
C1888 C 0.83082 0.4785 0.76466 0.0
C1889 C 0.84172 0.45713 0.79433 0.0
C1890 C 0.81813 0.47258 0.77783 0.0
N1891 N 0.8238 0.46212 0.79228 0.0
C1892 C 0.90748 0.46279 0.77947 0.0
C1893 C 0.90974 0.45266 0.74855 0.0
C1894 C 0.91703 0.44728 0.7856 0.0
N1895 N 0.90382 0.465 0.76128 0.0
C1896 C 0.91962 0.4371 0.75403 0.0
C1897 C 0.92313 0.43404 0.77283 0.0
H1898 H 0.90243 0.47279 0.78928 0.0
H1899 H 0.90656 0.45475 0.73417 0.0
C1900 C 0.85496 0.4963 0.69442 0.0
N1901 N 0.8511 0.48777 0.71059 0.0
C1902 C 0.84605 0.49091 0.67828 0.0
C1903 C 0.82909 0.4683 0.69589 0.0
C1904 C 0.83843 0.47405 0.71166 0.0
C1905 C 0.83301 0.47664 0.67888 0.0
H1906 H 0.86516 0.50715 0.69406 0.0
H1907 H 0.83579 0.46741 0.72471 0.0
O1908 O 0.89161 0.50785 0.7685 0.0
O1909 O 0.86185 0.52037 0.73999 0.0
O1910 O 0.89195 0.49409 0.72801 0.0
O1911 O 0.86206 0.47973 0.75407 0.0
H1912 H 0.87526 0.5405 0.7685 0.0
H1913 H 0.91648 0.50726 0.79495 0.0
H1914 H 0.88255 0.56593 0.79005 0.0
H1915 H 0.92308 0.53327 0.81614 0.0
H1916 H 0.80187 0.53079 0.72544 0.0
H1917 H 0.86222 0.55672 0.7428 0.0
H1918 H 0.82823 0.50976 0.73045 0.0
H1919 H 0.83522 0.57692 0.73763 0.0
H1920 H 0.93859 0.56435 0.74543 0.0
H1921 H 0.8983 0.56965 0.70189 0.0
H1922 H 0.85318 0.50532 0.82959 0.0
H1923 H 0.81551 0.53939 0.7985 0.0
H1924 H 0.90231 0.48807 0.69372 0.0
H1925 H 0.9217 0.4986 0.74872 0.0
H1926 H 0.9348 0.48703 0.68307 0.0
H1927 H 0.95377 0.49739 0.73713 0.0
H1928 H 0.86907 0.45886 0.78313 0.0
H1929 H 0.82631 0.48688 0.75324 0.0
H1930 H 0.8458 0.44879 0.80597 0.0
H1931 H 0.80377 0.47634 0.77659 0.0
H1932 H 0.91905 0.44545 0.80024 0.0
H1933 H 0.9243 0.42753 0.74362 0.0
H1934 H 0.84934 0.49779 0.66548 0.0
H1935 H 0.81931 0.4571 0.69689 0.0
Li1936 Li 0.76547 0.3613 0.49307 0.0
Li1937 Li 0.757 0.38601 0.51438 0.0
Li1938 Li 0.73458 0.36205 0.50603 0.0
Li1939 Li 0.74322 0.3854 0.48375 0.0
C1940 C 0.75996 0.34122 0.52526 0.0
N1941 N 0.76298 0.30519 0.53704 0.0
C1942 C 0.76503 0.33739 0.5434 0.0
C1943 C 0.75643 0.32674 0.51309 0.0
C1944 C 0.76648 0.31908 0.5491 0.0
C1945 C 0.75803 0.30862 0.51931 0.0
C1946 C 0.78261 0.40097 0.48771 0.0
C1947 C 0.7916 0.43223 0.48105 0.0
N1948 N 0.80959 0.42726 0.48244 0.0
C1949 C 0.80119 0.39613 0.48883 0.0
C1950 C 0.77776 0.41912 0.48358 0.0
C1951 C 0.81462 0.40963 0.48622 0.0
C1952 C 0.78633 0.3411 0.46736 0.0
N1953 N 0.78562 0.34686 0.48513 0.0
C1954 C 0.81524 0.33398 0.49124 0.0
C1955 C 0.79954 0.34337 0.49712 0.0
C1956 C 0.81655 0.32812 0.47285 0.0
C1957 C 0.80173 0.33159 0.4609 0.0
H1958 H 0.77511 0.34429 0.45811 0.0
H1959 H 0.79862 0.34825 0.51115 0.0
C1960 C 0.75332 0.40575 0.54743 0.0
N1961 N 0.76559 0.40076 0.53422 0.0
C1962 C 0.75912 0.41574 0.56279 0.0
C1963 C 0.7901 0.41527 0.55066 0.0
C1964 C 0.78371 0.40517 0.53562 0.0
C1965 C 0.77775 0.42058 0.56455 0.0
H1966 H 0.73904 0.40173 0.54616 0.0
H1967 H 0.79332 0.40049 0.52534 0.0
C1968 C 0.7266 0.35435 0.46896 0.0
N1969 N 0.6964 0.34697 0.44705 0.0
C1970 C 0.70946 0.36196 0.47322 0.0
C1971 C 0.72837 0.34295 0.45357 0.0
C1972 C 0.69436 0.35807 0.46198 0.0
C1973 C 0.71294 0.33939 0.44266 0.0
C1974 C 0.72142 0.4051 0.50931 0.0
C1975 C 0.70225 0.40507 0.51092 0.0
C1976 C 0.73095 0.4218 0.50939 0.0
C1977 C 0.6929 0.42182 0.51228 0.0
C1978 C 0.72111 0.43825 0.5108 0.0
N1979 N 0.70244 0.43792 0.51218 0.0
C1980 C 0.70561 0.35573 0.53014 0.0
C1981 C 0.7089 0.3321 0.50788 0.0
C1982 C 0.68988 0.34734 0.53722 0.0
N1983 N 0.71458 0.34818 0.51559 0.0
C1984 C 0.69316 0.32325 0.5145 0.0
C1985 C 0.68327 0.33102 0.52921 0.0
H1986 H 0.71055 0.36848 0.53603 0.0
H1987 H 0.71632 0.32638 0.49632 0.0
C1988 C 0.74756 0.40306 0.44961 0.0
N1989 N 0.73526 0.39982 0.46333 0.0
C1990 C 0.74227 0.41285 0.43394 0.0
C1991 C 0.7117 0.41563 0.44671 0.0
C1992 C 0.7176 0.40589 0.46216 0.0
C1993 C 0.72407 0.4192 0.43228 0.0
H1994 H 0.76146 0.39788 0.4508 0.0
H1995 H 0.70793 0.40281 0.47298 0.0
O1996 O 0.75844 0.3591 0.51956 0.0
O1997 O 0.7693 0.38785 0.49004 0.0
O1998 O 0.74163 0.35799 0.4797 0.0
O1999 O 0.73073 0.3888 0.5079 0.0
H2000 H 0.7678 0.34846 0.55299 0.0
H2001 H 0.75251 0.32941 0.49899 0.0
H2002 H 0.77039 0.3159 0.56311 0.0
H2003 H 0.75533 0.29728 0.51005 0.0
H2004 H 0.78803 0.44634 0.47789 0.0
H2005 H 0.80521 0.38212 0.49182 0.0
H2006 H 0.76349 0.42304 0.48211 0.0
H2007 H 0.82905 0.4061 0.48719 0.0
H2008 H 0.82627 0.33145 0.50093 0.0
H2009 H 0.80228 0.32753 0.44657 0.0
H2010 H 0.74917 0.41959 0.57319 0.0
H2011 H 0.80464 0.41837 0.55169 0.0
H2012 H 0.70779 0.37074 0.4851 0.0
H2013 H 0.74154 0.33692 0.45009 0.0
H2014 H 0.68102 0.36389 0.46513 0.0
H2015 H 0.71412 0.33061 0.4307 0.0
H2016 H 0.69466 0.39225 0.51097 0.0
H2017 H 0.74578 0.42204 0.50858 0.0
H2018 H 0.67806 0.42201 0.51342 0.0
H2019 H 0.72832 0.45128 0.51086 0.0
H2020 H 0.68293 0.35363 0.5488 0.0
H2021 H 0.6885 0.31077 0.50781 0.0
H2022 H 0.75233 0.4154 0.42325 0.0
H2023 H 0.69744 0.41986 0.4459 0.0
Li2024 Li 0.63822 0.50653 0.23413 0.0
Li2025 Li 0.61501 0.516 0.25566 0.0
Li2026 Li 0.63809 0.49399 0.26467 0.0
Li2027 Li 0.61441 0.48521 0.24331 0.0
C2028 C 0.66015 0.52441 0.2596 0.0
N2029 N 0.69688 0.53335 0.26379 0.0
C2030 C 0.66518 0.54111 0.26771 0.0
C2031 C 0.67382 0.51228 0.25357 0.0
C2032 C 0.68382 0.54537 0.26972 0.0
C2033 C 0.6923 0.51704 0.25583 0.0
C2034 C 0.6077 0.52325 0.21842 0.0
C2035 C 0.59356 0.53602 0.19124 0.0
N2036 N 0.60056 0.55282 0.1956 0.0
C2037 C 0.61474 0.54065 0.22264 0.0
C2038 C 0.59701 0.5209 0.20261 0.0
C2039 C 0.61098 0.55543 0.21093 0.0
C2040 C 0.65654 0.50211 0.20024 0.0
N2041 N 0.65273 0.51438 0.21384 0.0
C2042 C 0.66725 0.53859 0.197 0.0
C2043 C 0.65816 0.53225 0.21267 0.0
C2044 C 0.67101 0.52634 0.18256 0.0
C2045 C 0.66587 0.50781 0.18441 0.0
H2046 H 0.65194 0.48802 0.20152 0.0
H2047 H 0.65506 0.54172 0.22372 0.0
C2048 C 0.6094 0.54653 0.27779 0.0
N2049 N 0.60113 0.53634 0.26449 0.0
C2050 C 0.60106 0.56251 0.28433 0.0
C2051 C 0.57545 0.55689 0.26383 0.0
C2052 C 0.5844 0.54107 0.25753 0.0
C2053 C 0.58395 0.56796 0.27721 0.0
H2054 H 0.62264 0.54234 0.28313 0.0
H2055 H 0.57819 0.53278 0.24684 0.0
C2056 C 0.64447 0.46205 0.24427 0.0
N2057 N 0.65078 0.42504 0.25037 0.0
C2058 C 0.63651 0.45323 0.25941 0.0
C2059 C 0.65564 0.45204 0.23225 0.0
C2060 C 0.63987 0.43452 0.26225 0.0
C2061 C 0.65867 0.43334 0.23556 0.0
C2062 C 0.59321 0.49144 0.27469 0.0
C2063 C 0.5888 0.48713 0.29291 0.0
C2064 C 0.57912 0.49444 0.26194 0.0
C2065 C 0.57032 0.48592 0.29808 0.0
C2066 C 0.56081 0.4931 0.26766 0.0
N2067 N 0.55683 0.48891 0.28546 0.0
C2068 C 0.64601 0.49208 0.30187 0.0
C2069 C 0.66769 0.47581 0.28372 0.0
C2070 C 0.65483 0.48654 0.31799 0.0
N2071 N 0.65238 0.48647 0.28523 0.0
C2072 C 0.67686 0.46979 0.29952 0.0
C2073 C 0.6703 0.47497 0.31699 0.0
H2074 H 0.63391 0.50072 0.3026 0.0
H2075 H 0.67257 0.47167 0.27029 0.0
C2076 C 0.59804 0.46391 0.21597 0.0
N2077 N 0.59984 0.46533 0.23451 0.0
C2078 C 0.58898 0.44884 0.20824 0.0
C2079 C 0.58356 0.43708 0.23889 0.0
C2080 C 0.59268 0.45243 0.24603 0.0
C2081 C 0.58184 0.43501 0.21973 0.0
H2082 H 0.604 0.47433 0.20717 0.0
H2083 H 0.59448 0.45378 0.26074 0.0
O2084 O 0.64191 0.52014 0.25757 0.0
O2085 O 0.61121 0.5085 0.22959 0.0
O2086 O 0.64132 0.48034 0.24104 0.0
O2087 O 0.61127 0.49269 0.26953 0.0
H2088 H 0.65479 0.5507 0.27238 0.0
H2089 H 0.67027 0.49935 0.24715 0.0
H2090 H 0.68791 0.55825 0.27598 0.0
H2091 H 0.70301 0.50778 0.25123 0.0
H2092 H 0.58531 0.53439 0.17895 0.0
H2093 H 0.62305 0.54276 0.23479 0.0
H2094 H 0.59144 0.50752 0.19917 0.0
H2095 H 0.61637 0.56896 0.21402 0.0
H2096 H 0.67116 0.55295 0.19611 0.0
H2097 H 0.66843 0.49801 0.17348 0.0
H2098 H 0.60793 0.57053 0.29485 0.0
H2099 H 0.5623 0.56072 0.25794 0.0
H2100 H 0.62786 0.46072 0.26891 0.0
H2101 H 0.6619 0.45866 0.22046 0.0
H2102 H 0.63379 0.42753 0.27391 0.0
H2103 H 0.66729 0.42543 0.22635 0.0
H2104 H 0.59956 0.48475 0.30294 0.0
H2105 H 0.58222 0.49774 0.24778 0.0
H2106 H 0.56671 0.4826 0.31214 0.0
H2107 H 0.54977 0.4954 0.25793 0.0
H2108 H 0.6495 0.49122 0.33109 0.0
H2109 H 0.68863 0.46078 0.29804 0.0
H2110 H 0.58774 0.44797 0.19342 0.0
H2111 H 0.57849 0.42666 0.24826 0.0
H2112 H 0.07716 0.39731 0.2579 0.0
H2113 H 0.06477 0.42711 0.30788 0.0
H2114 H 0.06501 0.36925 0.27167 0.0
H2115 H 0.05166 0.39939 0.32118 0.0
H2116 H 0.04994 0.34301 0.34768 0.0
H2117 H 0.06186 0.37068 0.33321 0.0
H2118 H 0.03725 0.35435 0.28158 0.0
H2119 H 0.02621 0.32606 0.29583 0.0
C2120 C 0.07177 0.39792 0.27178 0.0
C2121 C 0.07204 0.41449 0.28179 0.0
C2122 C 0.06458 0.38186 0.2796 0.0
C2123 C 0.05742 0.38202 0.29758 0.0
C2124 C 0.05733 0.39868 0.30741 0.0
C2125 C 0.0646 0.41468 0.29966 0.0
C2126 C 0.04729 0.34515 0.33317 0.0
C2127 C 0.03717 0.33223 0.32292 0.0
C2128 C 0.05389 0.36119 0.32493 0.0
C2129 C 0.05043 0.36483 0.30624 0.0
C2130 C 0.04032 0.35192 0.29596 0.0
C2131 C 0.03379 0.33579 0.30419 0.0
H2132 H 0.9184 0.80939 0.5853 0.0
H2133 H 0.91046 0.7577 0.557 0.0
H2134 H 0.88979 0.82095 0.5723 0.0
H2135 H 0.88141 0.76914 0.54438 0.0
H2136 H 0.84158 0.80543 0.50967 0.0
H2137 H 0.86995 0.79245 0.52227 0.0
H2138 H 0.8568 0.81549 0.57547 0.0
H2139 H 0.82887 0.82894 0.56279 0.0
C2140 C 0.91058 0.80052 0.57622 0.0
C2141 C 0.91675 0.78266 0.57211 0.0
C2142 C 0.89406 0.80707 0.56896 0.0
C2143 C 0.88328 0.79593 0.55739 0.0
C2144 C 0.88947 0.77809 0.55316 0.0
C2145 C 0.90601 0.77149 0.56051 0.0
C2146 C 0.84479 0.80774 0.52404 0.0
C2147 C 0.83298 0.81825 0.53521 0.0
C2148 C 0.86094 0.80016 0.5313 0.0
C2149 C 0.86566 0.80303 0.54984 0.0
C2150 C 0.85367 0.81323 0.56107 0.0
C2151 C 0.83753 0.82075 0.55385 0.0
H2152 H 0.45009 0.58452 0.76467 0.0
H2153 H 0.41343 0.58191 0.81133 0.0
H2154 H 0.46441 0.61214 0.77745 0.0
H2155 H 0.42719 0.60973 0.82384 0.0
H2156 H 0.46559 0.64958 0.85092 0.0
H2157 H 0.45401 0.6211 0.83795 0.0
H2158 H 0.45911 0.64387 0.78323 0.0
H2159 H 0.47201 0.67195 0.79615 0.0
C2160 C 0.44504 0.58995 0.77761 0.0
C2161 C 0.43076 0.58102 0.78708 0.0
C2162 C 0.45318 0.6058 0.78491 0.0
C2163 C 0.44703 0.61318 0.80174 0.0
C2164 C 0.43261 0.60425 0.81108 0.0
C2165 C 0.42465 0.58832 0.80389 0.0
C2166 C 0.46464 0.64843 0.83609 0.0
C2167 C 0.46977 0.66315 0.82461 0.0
C2168 C 0.45768 0.63215 0.82865 0.0
C2169 C 0.45542 0.63019 0.80952 0.0
C2170 C 0.46079 0.64479 0.798 0.0
C2171 C 0.46795 0.66104 0.80545 0.0
H2172 H 0.60549 0.224 0.09413 0.0
H2173 H 0.57288 0.20634 0.04759 0.0
H2174 H 0.63301 0.21169 0.07949 0.0
H2175 H 0.60043 0.19366 0.03318 0.0
H2176 H 0.64957 0.15276 0.02804 0.0
H2177 H 0.62195 0.16754 0.03995 0.0
H2178 H 0.65323 0.2166 0.05196 0.0
H2179 H 0.68087 0.20203 0.03964 0.0
C2180 C 0.6042 0.21773 0.08067 0.0
C2181 C 0.58692 0.21613 0.07208 0.0
C2182 C 0.61998 0.21065 0.07231 0.0
C2183 C 0.61885 0.20168 0.05522 0.0
C2184 C 0.60167 0.2003 0.04647 0.0
C2185 C 0.58589 0.20751 0.05477 0.0
C2186 C 0.65054 0.16682 0.03288 0.0
C2187 C 0.66749 0.17617 0.03291 0.0
C2188 C 0.63469 0.17527 0.03975 0.0
C2189 C 0.63546 0.1932 0.04693 0.0
C2190 C 0.6523 0.20267 0.04673 0.0
C2191 C 0.66813 0.19429 0.03972 0.0
H2192 H 0.05806 0.59245 0.23971 0.0
H2193 H 0.07508 0.57509 0.18548 0.0
H2194 H 0.04477 0.6205 0.22653 0.0
H2195 H 0.06173 0.603 0.17233 0.0
H2196 H 0.05805 0.66545 0.16118 0.0
H2197 H 0.06968 0.63689 0.17451 0.0
H2198 H 0.01886 0.63012 0.20455 0.0
H2199 H 0.0072 0.65885 0.19122 0.0
C2200 C 0.05887 0.59461 0.22498 0.0
C2201 C 0.06759 0.58162 0.21361 0.0
C2202 C 0.05118 0.61056 0.21744 0.0
C2203 C 0.05229 0.61392 0.19843 0.0
C2204 C 0.06081 0.60082 0.18705 0.0
C2205 C 0.0683 0.58479 0.19455 0.0
C2206 C 0.04941 0.65793 0.17072 0.0
C2207 C 0.03176 0.66438 0.17524 0.0
C2208 C 0.056 0.64151 0.17821 0.0
C2209 C 0.04514 0.63129 0.19051 0.0
C2210 C 0.02753 0.63779 0.19516 0.0
C2211 C 0.02084 0.65413 0.18747 0.0
H2212 H 0.58159 0.7706 0.45382 0.0
H2213 H 0.58932 0.80582 0.4066 0.0
H2214 H 0.60915 0.78366 0.46806 0.0
H2215 H 0.61701 0.8185 0.42047 0.0
H2216 H 0.65416 0.85157 0.45704 0.0
H2217 H 0.62622 0.83824 0.44463 0.0
H2218 H 0.64206 0.785 0.4659 0.0
H2219 H 0.66957 0.79865 0.47943 0.0
C2220 C 0.58928 0.78103 0.44645 0.0
C2221 C 0.58323 0.78733 0.4292 0.0
C2222 C 0.6051 0.78847 0.45455 0.0
C2223 C 0.61526 0.80224 0.44549 0.0
C2224 C 0.60931 0.80825 0.42807 0.0
C2225 C 0.59345 0.80095 0.42008 0.0
C2226 C 0.65157 0.83709 0.45941 0.0
C2227 C 0.66416 0.82622 0.46931 0.0
C2228 C 0.63564 0.82936 0.45201 0.0
C2229 C 0.63192 0.81049 0.45409 0.0
C2230 C 0.6444 0.79961 0.46414 0.0
C2231 C 0.66031 0.8074 0.4717 0.0
H2232 H 0.48492 0.35272 0.66689 0.0
H2233 H 0.44928 0.31834 0.69989 0.0
H2234 H 0.47267 0.38 0.68219 0.0
H2235 H 0.43671 0.34568 0.71471 0.0
H2236 H 0.40236 0.39962 0.71454 0.0
H2237 H 0.41707 0.37204 0.70266 0.0
H2238 H 0.47049 0.39537 0.71401 0.0
H2239 H 0.45581 0.42289 0.72662 0.0
C2240 C 0.4747 0.35092 0.67758 0.0
C2241 C 0.46798 0.3333 0.68201 0.0
C2242 C 0.46766 0.36657 0.6863 0.0
C2243 C 0.45364 0.36494 0.6995 0.0
C2244 C 0.44732 0.34734 0.70436 0.0
C2245 C 0.45447 0.3317 0.6958 0.0
C2246 C 0.41724 0.39881 0.71491 0.0
C2247 C 0.42786 0.41352 0.72168 0.0
C2248 C 0.42566 0.38299 0.70801 0.0
C2249 C 0.44491 0.38155 0.70748 0.0
C2250 C 0.45561 0.3962 0.71415 0.0
C2251 C 0.44718 0.41198 0.72129 0.0
H2252 H 0.897 0.22762 0.91097 0.0
H2253 H 0.92674 0.22214 0.96219 0.0
H2254 H 0.86963 0.21498 0.92547 0.0
H2255 H 0.89926 0.20924 0.97668 0.0
H2256 H 0.85387 0.1646 0.98563 0.0
H2257 H 0.88105 0.18061 0.97421 0.0
H2258 H 0.84629 0.22171 0.94899 0.0
H2259 H 0.81909 0.20578 0.96051 0.0
C2260 C 0.89762 0.22404 0.92542 0.0
C2261 C 0.91407 0.22596 0.93543 0.0
C2262 C 0.88191 0.21675 0.93373 0.0
C2263 C 0.88227 0.21113 0.95223 0.0
C2264 C 0.89862 0.21327 0.96234 0.0
C2265 C 0.91435 0.22063 0.95404 0.0
C2266 C 0.85202 0.17724 0.97796 0.0
C2267 C 0.83429 0.18384 0.97387 0.0
C2268 C 0.86761 0.18642 0.9714 0.0
C2269 C 0.86581 0.20236 0.96059 0.0
C2270 C 0.84811 0.20928 0.95702 0.0
C2271 C 0.83253 0.20014 0.9636 0.0
H2272 H 0.25737 0.06949 0.40118 0.0
H2273 H 0.30971 0.06317 0.42875 0.0
H2274 H 0.27072 0.057 0.37306 0.0
H2275 H 0.32269 0.04971 0.40105 0.0
H2276 H 0.34638 0.04916 0.34333 0.0
H2277 H 0.33219 0.06012 0.3715 0.0
H2278 H 0.28271 0.0298 0.35847 0.0
H2279 H 0.2966 0.01962 0.32963 0.0
C2280 C 0.27168 0.06531 0.4013 0.0
C2281 C 0.28248 0.06748 0.41723 0.0
C2282 C 0.27927 0.05793 0.38524 0.0
C2283 C 0.29783 0.05246 0.38473 0.0
C2284 C 0.30844 0.05407 0.40084 0.0
C2285 C 0.30089 0.06155 0.41684 0.0
C2286 C 0.33238 0.04502 0.3463 0.0
C2287 C 0.3226 0.0336 0.33411 0.0
C2288 C 0.32433 0.05107 0.36264 0.0
C2289 C 0.30633 0.04576 0.36734 0.0
C2290 C 0.29654 0.03428 0.35521 0.0
C2291 C 0.30458 0.02828 0.33877 0.0
H2292 H 0.20013 0.0556 0.68423 0.0
H2293 H 0.16934 0.01696 0.65119 0.0
H2294 H 0.21547 0.067 0.65664 0.0
H2295 H 0.18446 0.0285 0.62355 0.0
H2296 H 0.22536 0.044 0.57865 0.0
H2297 H 0.21323 0.03057 0.60699 0.0
H2298 H 0.20736 0.08504 0.63015 0.0
H2299 H 0.21962 0.09836 0.60201 0.0
C2300 C 0.19664 0.04956 0.67105 0.0
C2301 C 0.18347 0.03546 0.66986 0.0
C2302 C 0.2054 0.0561 0.65524 0.0
C2303 C 0.20111 0.04876 0.63784 0.0
C2304 C 0.18828 0.03431 0.63673 0.0
C2305 C 0.17958 0.0277 0.65257 0.0
C2306 C 0.22148 0.05307 0.58983 0.0
C2307 C 0.22349 0.07224 0.58811 0.0
C2308 C 0.21451 0.04539 0.60605 0.0
C2309 C 0.20934 0.05672 0.62087 0.0
C2310 C 0.21154 0.07587 0.61917 0.0
C2311 C 0.21855 0.08353 0.60301 0.0
H2312 H 0.15142 0.95334 0.84572 0.0
H2313 H 0.20316 0.97791 0.82966 0.0
H2314 H 0.16566 0.94141 0.87346 0.0
H2315 H 0.21713 0.96696 0.8581 0.0
H2316 H 0.24091 0.92647 0.90045 0.0
H2317 H 0.22742 0.9395 0.8727 0.0
H2318 H 0.17714 0.95068 0.90245 0.0
H2319 H 0.19015 0.93655 0.92979 0.0
C2320 C 0.16585 0.9562 0.84807 0.0
C2321 C 0.17614 0.96651 0.83533 0.0
C2322 C 0.17396 0.94961 0.86419 0.0
C2323 C 0.19255 0.9533 0.86812 0.0
C2324 C 0.20284 0.96369 0.85544 0.0
C2325 C 0.19475 0.97018 0.83922 0.0
C2326 C 0.22692 0.93158 0.90104 0.0
C2327 C 0.2166 0.9303 0.91737 0.0
C2328 C 0.21926 0.93929 0.88517 0.0
C2329 C 0.20113 0.94605 0.88526 0.0
C2330 C 0.19102 0.94531 0.90176 0.0
C2331 C 0.19862 0.93745 0.91757 0.0
H2332 H 0.28875 0.89886 0.09829 0.0
H2333 H 0.27499 0.95319 0.07847 0.0
H2334 H 0.3019 0.9123 0.12611 0.0
H2335 H 0.28834 0.96669 0.10637 0.0
H2336 H 0.29697 0.97943 0.16919 0.0
H2337 H 0.28261 0.9671 0.14135 0.0
H2338 H 0.32979 0.93214 0.13247 0.0
H2339 H 0.34441 0.94474 0.1598 0.0
C2340 C 0.28838 0.91368 0.09997 0.0
C2341 C 0.28083 0.92499 0.08623 0.0
C2342 C 0.29605 0.92136 0.11581 0.0
C2343 C 0.29619 0.94053 0.11834 0.0
C2344 C 0.28831 0.95186 0.10479 0.0
C2345 C 0.28082 0.94416 0.0888 0.0
C2346 C 0.30439 0.96928 0.16119 0.0
C2347 C 0.3218 0.96297 0.16688 0.0
C2348 C 0.29613 0.9622 0.14528 0.0
C2349 C 0.30503 0.94856 0.13487 0.0
C2350 C 0.32247 0.94241 0.14043 0.0
C2351 C 0.3308 0.94959 0.15616 0.0
H2352 H 0.32127 0.29407 0.04334 0.0
H2353 H 0.35399 0.3382 0.02059 0.0
H2354 H 0.34915 0.27953 0.05516 0.0
H2355 H 0.3818 0.32371 0.0324 0.0
H2356 H 0.42984 0.28513 0.04299 0.0
H2357 H 0.40173 0.29698 0.0289 0.0
H2358 H 0.37187 0.28562 0.07905 0.0
H2359 H 0.39989 0.27378 0.09308 0.0
C2360 C 0.33441 0.30067 0.04089 0.0
C2361 C 0.33541 0.31731 0.03106 0.0
C2362 C 0.35037 0.29235 0.04765 0.0
C2363 C 0.36769 0.30048 0.04476 0.0
C2364 C 0.36871 0.31693 0.03463 0.0
C2365 C 0.35276 0.32524 0.02786 0.0
C2366 C 0.41726 0.28517 0.05099 0.0
C2367 C 0.41711 0.27853 0.06916 0.0
C2368 C 0.40117 0.29196 0.04293 0.0
C2369 C 0.38457 0.29227 0.05286 0.0
C2370 C 0.38435 0.28531 0.07091 0.0
C2371 C 0.40043 0.27851 0.07896 0.0
H2372 H 0.96052 0.81968 0.20437 0.0
H2373 H 0.97879 0.85289 0.1585 0.0
H2374 H 0.94878 0.84724 0.21955 0.0
H2375 H 0.96742 0.8804 0.17391 0.0
H2376 H 0.95827 0.92771 0.21456 0.0
H2377 H 0.97258 0.90007 0.20187 0.0
H2378 H 0.92304 0.86925 0.21306 0.0
H2379 H 0.90855 0.89684 0.2253 0.0
C2380 C 0.96206 0.83283 0.19751 0.0
C2381 C 0.97051 0.83402 0.18014 0.0
C2382 C 0.95538 0.8486 0.20625 0.0
C2383 C 0.95715 0.86594 0.19789 0.0
C2384 C 0.96607 0.86724 0.18079 0.0
C2385 C 0.97262 0.85146 0.17198 0.0
C2386 C 0.95039 0.91507 0.21425 0.0
C2387 C 0.93223 0.91455 0.22094 0.0
C2388 C 0.95862 0.89924 0.20703 0.0
C2389 C 0.94893 0.88252 0.2065 0.0
C2390 C 0.93095 0.88188 0.21355 0.0
C2391 C 0.92267 0.89771 0.22061 0.0
H2392 H 0.16325 0.69464 0.51097 0.0
H2393 H 0.16727 0.65986 0.55896 0.0
H2394 H 0.13547 0.70885 0.52361 0.0
H2395 H 0.13942 0.6736 0.57139 0.0
H2396 H 0.10125 0.71419 0.59812 0.0
H2397 H 0.129 0.70155 0.58458 0.0
H2398 H 0.10365 0.70324 0.5308 0.0
H2399 H 0.07617 0.71703 0.54424 0.0
C2400 C 0.15809 0.68995 0.52414 0.0
C2401 C 0.16751 0.6763 0.53407 0.0
C2402 C 0.14216 0.69803 0.53137 0.0
C2403 C 0.13526 0.69249 0.5486 0.0
C2404 C 0.14456 0.67855 0.55831 0.0
C2405 C 0.16051 0.67062 0.55117 0.0
C2406 C 0.10166 0.71221 0.58335 0.0
C2407 C 0.08643 0.71672 0.57229 0.0
C2408 C 0.11752 0.70467 0.57561 0.0
C2409 C 0.11855 0.7012 0.5566 0.0
C2410 C 0.1034 0.70585 0.54547 0.0
C2411 C 0.08754 0.71354 0.55322 0.0
H2412 H 0.98692 0.65081 0.66732 0.0
H2413 H 0.94668 0.68356 0.69633 0.0
H2414 H 0.9742 0.62298 0.68102 0.0
H2415 H 0.93402 0.65571 0.71017 0.0
H2416 H 0.90245 0.60107 0.71182 0.0
H2417 H 0.91645 0.62927 0.70046 0.0
H2418 H 0.97048 0.60615 0.70958 0.0
H2419 H 0.95641 0.57756 0.72023 0.0
C2420 C 0.97555 0.6521 0.67687 0.0
C2421 C 0.96778 0.6694 0.68071 0.0
C2422 C 0.96826 0.63613 0.68474 0.0
C2423 C 0.95304 0.63709 0.69665 0.0
C2424 C 0.94554 0.65445 0.70081 0.0
C2425 C 0.9528 0.67041 0.6929 0.0
C2426 C 0.91732 0.60193 0.71127 0.0
C2427 C 0.9283 0.58698 0.71679 0.0
C2428 C 0.92536 0.61821 0.70499 0.0
C2429 C 0.9446 0.62 0.70412 0.0
C2430 C 0.95561 0.60516 0.7099 0.0
C2431 C 0.94755 0.58884 0.71619 0.0
H2432 H 0.14666 0.15041 0.4777 0.0
H2433 H 0.17636 0.19869 0.45954 0.0
H2434 H 0.11829 0.16345 0.466 0.0
H2435 H 0.14819 0.21103 0.44644 0.0
H2436 H 0.0922 0.23625 0.43752 0.0
H2437 H 0.11946 0.22428 0.45274 0.0
H2438 H 0.10311 0.16892 0.43828 0.0
H2439 H 0.07517 0.18076 0.42443 0.0
C2440 C 0.14719 0.16386 0.4713 0.0
C2441 C 0.16393 0.17347 0.46964 0.0
C2442 C 0.13089 0.17121 0.46426 0.0
C2443 C 0.13087 0.18825 0.45509 0.0
C2444 C 0.14756 0.19797 0.45358 0.0
C2445 C 0.16384 0.19073 0.46086 0.0
C2446 C 0.09419 0.22149 0.43792 0.0
C2447 C 0.08139 0.20951 0.42968 0.0
C2448 C 0.11004 0.21462 0.4464 0.0
C2449 C 0.11363 0.1956 0.4467 0.0
C2450 C 0.10076 0.18363 0.43859 0.0
C2451 C 0.08481 0.19047 0.43033 0.0
H2452 H 0.55141 0.41614 0.23189 0.0
H2453 H 0.59317 0.41564 0.18955 0.0
H2454 H 0.53786 0.38829 0.21877 0.0
H2455 H 0.57955 0.38803 0.17641 0.0
H2456 H 0.53925 0.35057 0.14661 0.0
H2457 H 0.55143 0.37867 0.16019 0.0
H2458 H 0.54528 0.35521 0.21446 0.0
H2459 H 0.53318 0.32694 0.20085 0.0
C2460 C 0.55774 0.41007 0.21985 0.0
C2461 C 0.57332 0.41821 0.21171 0.0
C2462 C 0.54998 0.39412 0.21234 0.0
C2463 C 0.55758 0.38602 0.19651 0.0
C2464 C 0.57316 0.39413 0.18842 0.0
C2465 C 0.58095 0.41 0.19594 0.0
C2466 C 0.54062 0.35132 0.16144 0.0
C2467 C 0.53538 0.33643 0.17263 0.0
C2468 C 0.54757 0.36745 0.16921 0.0
C2469 C 0.54943 0.36912 0.18839 0.0
C2470 C 0.54384 0.3544 0.19964 0.0
C2471 C 0.53691 0.33822 0.19184 0.0
H2472 H 0.32653 0.82828 0.9369 0.0
H2473 H 0.34314 0.81109 0.99126 0.0
H2474 H 0.3544 0.81494 0.92404 0.0
H2475 H 0.37081 0.79697 0.97839 0.0
H2476 H 0.42789 0.79215 0.95152 0.0
H2477 H 0.39962 0.80402 0.96531 0.0
H2478 H 0.36923 0.78736 0.91689 0.0
H2479 H 0.39765 0.77636 0.90294 0.0
C2480 C 0.33604 0.82133 0.94605 0.0
C2481 C 0.33268 0.82066 0.96505 0.0
C2482 C 0.35201 0.8136 0.93869 0.0
C2483 C 0.36491 0.80476 0.95013 0.0
C2484 C 0.36138 0.80391 0.96917 0.0
C2485 C 0.34549 0.81189 0.97656 0.0
C2486 C 0.4151 0.79098 0.94395 0.0
C2487 C 0.41492 0.78352 0.92613 0.0
C2488 C 0.39887 0.79768 0.95185 0.0
C2489 C 0.38208 0.7968 0.94219 0.0
C2490 C 0.38192 0.78873 0.92458 0.0
C2491 C 0.39817 0.78232 0.9166 0.0
H2492 H 0.94681 0.42953 0.80202 0.0
H2493 H 0.92025 0.39928 0.75818 0.0
H2494 H 0.95939 0.40103 0.81401 0.0
H2495 H 0.93414 0.37103 0.76925 0.0
H2496 H 0.94181 0.32143 0.80684 0.0
H2497 H 0.93089 0.34978 0.79305 0.0
H2498 H 0.98076 0.37736 0.8102 0.0
H2499 H 0.99096 0.34941 0.82537 0.0
C2500 C 0.94374 0.41685 0.79482 0.0
C2501 C 0.93231 0.41681 0.77919 0.0
C2502 C 0.95125 0.40047 0.80155 0.0
C2503 C 0.94778 0.3836 0.79268 0.0
C2504 C 0.93687 0.38365 0.77668 0.0
C2505 C 0.92913 0.39999 0.77012 0.0
C2506 C 0.95039 0.33357 0.80787 0.0
C2507 C 0.96721 0.33306 0.81744 0.0
C2508 C 0.94425 0.34983 0.79965 0.0
C2509 C 0.95488 0.366 0.8005 0.0
C2510 C 0.972 0.36532 0.80952 0.0
C2511 C 0.97803 0.34913 0.81798 0.0
H2512 H 0.3535 0.15735 0.52301 0.0
H2513 H 0.32133 0.20566 0.53629 0.0
H2514 H 0.38086 0.17224 0.53528 0.0
H2515 H 0.34872 0.22016 0.54929 0.0
H2516 H 0.39657 0.22435 0.59291 0.0
H2517 H 0.36912 0.21255 0.57739 0.0
H2518 H 0.40159 0.20049 0.52911 0.0
H2519 H 0.42908 0.21241 0.54464 0.0
C2520 C 0.35224 0.17123 0.52826 0.0
C2521 C 0.33509 0.18026 0.52862 0.0
C2522 C 0.36796 0.17972 0.53536 0.0
C2523 C 0.36687 0.19732 0.54325 0.0
C2524 C 0.34987 0.2065 0.54343 0.0
C2525 C 0.33418 0.19812 0.53607 0.0
C2526 C 0.39779 0.21926 0.57895 0.0
C2527 C 0.41491 0.2192 0.56998 0.0
C2528 C 0.38209 0.21265 0.57004 0.0
C2529 C 0.38327 0.20561 0.55208 0.0
C2530 C 0.40035 0.20577 0.543 0.0
C2531 C 0.41601 0.21266 0.55182 0.0
H2532 H 0.56305 0.66994 0.33459 0.0
H2533 H 0.5118 0.66012 0.30617 0.0
H2534 H 0.576 0.64225 0.32096 0.0
H2535 H 0.52488 0.63252 0.2921 0.0
H2536 H 0.54816 0.5736 0.28748 0.0
H2537 H 0.53451 0.60187 0.29953 0.0
H2538 H 0.58661 0.6298 0.2927 0.0
H2539 H 0.60025 0.60145 0.28117 0.0
C2540 C 0.55465 0.662 0.32518 0.0
C2541 C 0.53644 0.66723 0.32139 0.0
C2542 C 0.56207 0.64612 0.31732 0.0
C2543 C 0.55152 0.63515 0.30535 0.0
C2544 C 0.53332 0.64049 0.30145 0.0
C2545 C 0.52583 0.65632 0.30945 0.0
C2546 C 0.55661 0.58585 0.28846 0.0
C2547 C 0.5753 0.5853 0.28357 0.0
C2548 C 0.54879 0.60207 0.2953 0.0
C2549 C 0.55949 0.61811 0.29723 0.0
C2550 C 0.57806 0.61762 0.29182 0.0
C2551 C 0.58589 0.60139 0.28516 0.0
H2552 H 0.07118 0.79037 0.04659 0.0
H2553 H 0.10154 0.77404 0.09492 0.0
H2554 H 0.09945 0.80223 0.03278 0.0
H2555 H 0.12996 0.78498 0.08092 0.0
H2556 H 0.17273 0.82596 0.06125 0.0
H2557 H 0.1449 0.81249 0.07404 0.0
H2558 H 0.12816 0.79541 0.01951 0.0
H2559 H 0.15578 0.80971 0.00671 0.0
C2560 C 0.08401 0.78907 0.05409 0.0
C2561 C 0.08423 0.78147 0.07184 0.0
C2562 C 0.10023 0.79577 0.04618 0.0
C2563 C 0.11706 0.79472 0.05576 0.0
C2564 C 0.11725 0.78648 0.0733 0.0
C2565 C 0.101 0.7801 0.0813 0.0
C2566 C 0.16315 0.81917 0.05205 0.0
C2567 C 0.1664 0.81881 0.03302 0.0
C2568 C 0.14721 0.81136 0.05937 0.0
C2569 C 0.13422 0.80273 0.04785 0.0
C2570 C 0.13766 0.80217 0.02878 0.0
C2571 C 0.15351 0.81026 0.02144 0.0
H2572 H 0.74275 0.94132 0.5935 0.0
H2573 H 0.68955 0.91908 0.57922 0.0
H2574 H 0.72951 0.95533 0.62107 0.0
H2575 H 0.67641 0.93243 0.60694 0.0
H2576 H 0.65342 0.97209 0.6483 0.0
H2577 H 0.66766 0.96052 0.62027 0.0
H2578 H 0.71741 0.94841 0.65063 0.0
H2579 H 0.70324 0.96073 0.67854 0.0
C2580 C 0.72824 0.93936 0.59635 0.0
C2581 C 0.71714 0.92925 0.58417 0.0
C2582 C 0.72066 0.9473 0.61217 0.0
C2583 C 0.70184 0.94511 0.61625 0.0
C2584 C 0.69084 0.93482 0.60407 0.0
C2585 C 0.69837 0.92709 0.58819 0.0
C2586 C 0.66741 0.96697 0.64893 0.0
C2587 C 0.67721 0.96717 0.66557 0.0
C2588 C 0.67557 0.96025 0.63289 0.0
C2589 C 0.69364 0.95331 0.63317 0.0
C2590 C 0.70356 0.95384 0.64982 0.0
C2591 C 0.69545 0.96081 0.66584 0.0
H2592 H 0.81556 0.99474 0.34567 0.0
H2593 H 0.83469 0.94031 0.33143 0.0
H2594 H 0.80276 0.98266 0.37448 0.0
H2595 H 0.82198 0.92829 0.36014 0.0
H2596 H 0.81577 0.9188 0.42232 0.0
H2597 H 0.82876 0.93255 0.39449 0.0
H2598 H 0.77707 0.9598 0.38374 0.0
H2599 H 0.76404 0.94601 0.41162 0.0
C2600 C 0.81702 0.98022 0.34872 0.0
C2601 C 0.82604 0.96844 0.33632 0.0
C2602 C 0.80964 0.97331 0.36512 0.0
C2603 C 0.81146 0.95457 0.36953 0.0
C2604 C 0.82053 0.94283 0.35714 0.0
C2605 C 0.82764 0.94967 0.34066 0.0
C2606 C 0.80727 0.92791 0.41413 0.0
C2607 C 0.7889 0.93134 0.41909 0.0
C2608 C 0.81464 0.93564 0.39815 0.0
C2609 C 0.80388 0.94716 0.38695 0.0
C2610 C 0.78568 0.95103 0.39219 0.0
C2611 C 0.77821 0.94308 0.40804 0.0
H2612 H 0.78689 0.03967 0.07089 0.0
H2613 H 0.78937 0.09289 0.09714 0.0
H2614 H 0.79797 0.02515 0.09934 0.0
H2615 H 0.80004 0.07837 0.12565 0.0
H2616 H 0.79877 0.04052 0.17764 0.0
H2617 H 0.78607 0.05358 0.14941 0.0
H2618 H 0.82986 0.02877 0.118 0.0
H2619 H 0.84332 0.01658 0.14615 0.0
C2620 C 0.78969 0.04819 0.0828 0.0
C2621 C 0.7874 0.06736 0.08189 0.0
C2622 C 0.79604 0.03993 0.09899 0.0
C2623 C 0.79978 0.05068 0.11462 0.0
C2624 C 0.79712 0.0698 0.1138 0.0
C2625 C 0.79116 0.07809 0.09751 0.0
C2626 C 0.80586 0.03796 0.16479 0.0
C2627 C 0.82218 0.0275 0.16433 0.0
C2628 C 0.79848 0.04535 0.14863 0.0
C2629 C 0.807 0.04212 0.13161 0.0
C2630 C 0.82294 0.03126 0.13097 0.0
C2631 C 0.83055 0.02418 0.14715 0.0
H2632 H 0.65793 0.06105 0.83487 0.0
H2633 H 0.69969 0.01876 0.83315 0.0
H2634 H 0.67203 0.07389 0.8624 0.0
H2635 H 0.7138 0.03162 0.86082 0.0
H2636 H 0.72035 0.04857 0.92199 0.0
H2637 H 0.70749 0.03541 0.89385 0.0
H2638 H 0.69986 0.09009 0.8718 0.0
H2639 H 0.71271 0.10322 0.89984 0.0
C2640 C 0.67025 0.05461 0.84024 0.0
C2641 C 0.67773 0.03892 0.83174 0.0
C2642 C 0.67833 0.06197 0.85604 0.0
C2643 C 0.69408 0.05382 0.86377 0.0
C2644 C 0.70155 0.03809 0.85532 0.0
C2645 C 0.69347 0.03073 0.83947 0.0
C2646 C 0.71611 0.05776 0.91104 0.0
C2647 C 0.71744 0.07695 0.91321 0.0
C2648 C 0.70875 0.05022 0.89493 0.0
C2649 C 0.70255 0.06171 0.88063 0.0
C2650 C 0.70418 0.08088 0.88269 0.0
C2651 C 0.71153 0.0884 0.89877 0.0
H2652 H 0.5878 0.73749 0.94639 0.0
H2653 H 0.5813 0.68883 0.9129 0.0
H2654 H 0.61553 0.72429 0.96014 0.0
H2655 H 0.60904 0.6758 0.92629 0.0
H2656 H 0.64865 0.64922 0.96574 0.0
H2657 H 0.6204 0.66307 0.95425 0.0
H2658 H 0.64697 0.71629 0.9531 0.0
H2659 H 0.67519 0.70237 0.96503 0.0
C2660 C 0.59235 0.72402 0.94192 0.0
C2661 C 0.58229 0.71413 0.92868 0.0
C2662 C 0.60826 0.71648 0.94975 0.0
C2663 C 0.61449 0.69893 0.94441 0.0
C2664 C 0.60445 0.68916 0.93105 0.0
C2665 C 0.58853 0.69663 0.92334 0.0
C2666 C 0.64845 0.66387 0.963 0.0
C2667 C 0.66416 0.67469 0.96612 0.0
C2668 C 0.63227 0.67182 0.95637 0.0
C2669 C 0.63144 0.69078 0.95255 0.0
C2670 C 0.64706 0.70168 0.95607 0.0
C2671 C 0.66324 0.69372 0.96285 0.0
H2672 H 0.06515 0.07287 0.81557 0.0
H2673 H 0.06668 0.09723 0.76138 0.0
H2674 H 0.05077 0.10074 0.8277 0.0
H2675 H 0.05211 0.12506 0.77349 0.0
H2676 H 0.04993 0.17862 0.80893 0.0
H2677 H 0.06183 0.15029 0.79521 0.0
H2678 H 0.02135 0.11874 0.82518 0.0
H2679 H 0.00959 0.14703 0.83906 0.0
C2680 C 0.06231 0.08415 0.80625 0.0
C2681 C 0.06707 0.08291 0.78755 0.0
C2682 C 0.05396 0.10004 0.81315 0.0
C2683 C 0.05036 0.11507 0.80154 0.0
C2684 C 0.05485 0.11373 0.78277 0.0
C2685 C 0.06303 0.09776 0.77583 0.0
C2686 C 0.04357 0.16562 0.81255 0.0
C2687 C 0.02886 0.16502 0.82509 0.0
C2688 C 0.05027 0.14944 0.80459 0.0
C2689 C 0.04252 0.13232 0.80915 0.0
C2690 C 0.02766 0.13174 0.82151 0.0
C2691 C 0.02085 0.14793 0.82933 0.0
H2692 H 0.92775 0.28631 0.45301 0.0
H2693 H 0.89879 0.28066 0.40137 0.0
H2694 H 0.89957 0.29736 0.46755 0.0
H2695 H 0.87094 0.29249 0.41564 0.0
H2696 H 0.81938 0.2983 0.45003 0.0
H2697 H 0.84735 0.28462 0.43748 0.0
H2698 H 0.88011 0.32432 0.46728 0.0
H2699 H 0.85217 0.33783 0.47997 0.0
C2700 C 0.91537 0.28736 0.44477 0.0
C2701 C 0.91556 0.28266 0.426 0.0
C2702 C 0.89927 0.29389 0.45306 0.0
C2703 C 0.88298 0.29585 0.44276 0.0
C2704 C 0.88315 0.29096 0.42405 0.0
C2705 C 0.89921 0.28441 0.41579 0.0
C2706 C 0.83257 0.30408 0.45389 0.0
C2707 C 0.83356 0.31916 0.46595 0.0
C2708 C 0.8486 0.29627 0.44668 0.0
C2709 C 0.86599 0.30342 0.4513 0.0
C2710 C 0.86698 0.31829 0.46364 0.0
C2711 C 0.85095 0.32605 0.47091 0.0
H2712 H 0.54488 0.92598 0.78213 0.0
H2713 H 0.59879 0.9008 0.78149 0.0
H2714 H 0.53201 0.89793 0.79522 0.0
H2715 H 0.58574 0.87247 0.7933 0.0
H2716 H 0.56163 0.83283 0.83505 0.0
H2717 H 0.57393 0.8607 0.82121 0.0
H2718 H 0.52432 0.86657 0.78887 0.0
H2719 H 0.51185 0.8388 0.80316 0.0
C2720 C 0.55399 0.91447 0.78468 0.0
C2721 C 0.57291 0.91575 0.78078 0.0
C2722 C 0.54655 0.89827 0.79195 0.0
C2723 C 0.55783 0.88291 0.79539 0.0
C2724 C 0.57666 0.88409 0.79113 0.0
C2725 C 0.58412 0.90031 0.78404 0.0
C2726 C 0.55343 0.83999 0.82486 0.0
C2727 C 0.53581 0.8336 0.82013 0.0
C2728 C 0.56049 0.85596 0.81688 0.0
C2729 C 0.55018 0.86588 0.80382 0.0
C2730 C 0.53255 0.85943 0.79905 0.0
C2731 C 0.52541 0.8435 0.80718 0.0
H2732 H 0.94496 0.18222 0.3002 0.0
H2733 H 0.9899 0.15007 0.32197 0.0
H2734 H 0.93294 0.15503 0.28463 0.0
H2735 H 0.97764 0.12265 0.30691 0.0
H2736 H 0.95713 0.07833 0.26778 0.0
H2737 H 0.97135 0.10678 0.27878 0.0
H2738 H 0.91763 0.12767 0.29357 0.0
H2739 H 0.90354 0.09956 0.28222 0.0
C2740 C 0.95227 0.1693 0.30159 0.0
C2741 C 0.96827 0.16819 0.31236 0.0
C2742 C 0.94536 0.1537 0.29277 0.0
C2743 C 0.95417 0.13656 0.29471 0.0
C2744 C 0.97059 0.13563 0.30494 0.0
C2745 C 0.97761 0.15132 0.31361 0.0
C2746 C 0.94841 0.08908 0.27334 0.0
C2747 C 0.92923 0.08677 0.27408 0.0
C2748 C 0.95654 0.10535 0.27968 0.0
C2749 C 0.94565 0.11958 0.28702 0.0
C2750 C 0.92644 0.11723 0.28763 0.0
C2751 C 0.91834 0.10107 0.28117 0.0
H2752 H 0.58543 0.10375 0.73252 0.0
H2753 H 0.54925 0.06967 0.69982 0.0
H2754 H 0.57048 0.13123 0.72036 0.0
H2755 H 0.53462 0.09721 0.6874 0.0
H2756 H 0.5328 0.15042 0.65226 0.0
H2757 H 0.54483 0.12264 0.66651 0.0
H2758 H 0.54005 0.14787 0.72009 0.0
H2759 H 0.52751 0.17564 0.7059 0.0
C2760 C 0.57412 0.10208 0.72296 0.0
C2761 C 0.56862 0.08447 0.71708 0.0
C2762 C 0.56559 0.11785 0.71597 0.0
C2763 C 0.55146 0.11635 0.70286 0.0
C2764 C 0.54567 0.09877 0.69729 0.0
C2765 C 0.55409 0.08301 0.70437 0.0
C2766 C 0.53395 0.14999 0.66711 0.0
C2767 C 0.5291 0.16531 0.67791 0.0
C2768 C 0.54091 0.13405 0.67527 0.0
C2769 C 0.54335 0.13307 0.69441 0.0
C2770 C 0.53847 0.14831 0.70527 0.0
C2771 C 0.53135 0.16423 0.69712 0.0
H2772 H 0.14912 0.34775 0.96985 0.0
H2773 H 0.17527 0.29443 0.96605 0.0
H2774 H 0.12092 0.33481 0.95764 0.0
H2775 H 0.14745 0.28181 0.9524 0.0
H2776 H 0.08923 0.26046 0.94302 0.0
H2777 H 0.11679 0.27276 0.95785 0.0
H2778 H 0.10854 0.32459 0.92973 0.0
H2779 H 0.0807 0.31245 0.91563 0.0
C2780 C 0.14888 0.33323 0.96651 0.0
C2781 C 0.16457 0.32217 0.969 0.0
C2782 C 0.13273 0.32586 0.95916 0.0
C2783 C 0.13188 0.30728 0.95381 0.0
C2784 C 0.14749 0.29614 0.9565 0.0
C2785 C 0.16359 0.30347 0.96409 0.0
C2786 C 0.09338 0.27448 0.94008 0.0
C2787 C 0.08282 0.28555 0.92828 0.0
C2788 C 0.1092 0.28152 0.94849 0.0
C2789 C 0.11493 0.29972 0.94508 0.0
C2790 C 0.10438 0.31067 0.93308 0.0
C2791 C 0.08845 0.30371 0.92489 0.0
H2792 H 0.4313 0.69924 0.45086 0.0
H2793 H 0.39782 0.73272 0.41492 0.0
H2794 H 0.40358 0.68665 0.46498 0.0
H2795 H 0.37008 0.72005 0.42893 0.0
H2796 H 0.32383 0.70382 0.46834 0.0
H2797 H 0.35178 0.71865 0.45695 0.0
H2798 H 0.3792 0.66589 0.45585 0.0
H2799 H 0.3514 0.65116 0.46726 0.0
C2800 C 0.41801 0.70391 0.44598 0.0
C2801 C 0.41675 0.71689 0.43171 0.0
C2802 C 0.40213 0.69669 0.45405 0.0
C2803 C 0.38461 0.70224 0.44798 0.0
C2804 C 0.38335 0.71563 0.43407 0.0
C2805 C 0.39925 0.7229 0.42604 0.0
C2806 C 0.33583 0.69541 0.46561 0.0
C2807 C 0.33541 0.67632 0.46874 0.0
C2808 C 0.35183 0.7039 0.4591 0.0
C2809 C 0.36775 0.69347 0.45555 0.0
C2810 C 0.36732 0.6744 0.45878 0.0
C2811 C 0.35136 0.66594 0.46531 0.0
H2812 H 0.79675 0.53062 0.82387 0.0
H2813 H 0.85078 0.53154 0.84876 0.0
H2814 H 0.78373 0.5439 0.85175 0.0
H2815 H 0.83761 0.54369 0.87696 0.0
H2816 H 0.8125 0.58616 0.9155 0.0
H2817 H 0.82515 0.57177 0.88804 0.0
H2818 H 0.7764 0.53798 0.88329 0.0
H2819 H 0.76359 0.55278 0.91062 0.0
C2820 C 0.80585 0.53354 0.83531 0.0
C2821 C 0.82485 0.53007 0.83398 0.0
C2822 C 0.79833 0.54094 0.85141 0.0
C2823 C 0.80962 0.54495 0.86661 0.0
C2824 C 0.82854 0.54106 0.86543 0.0
C2825 C 0.83606 0.5338 0.84931 0.0
C2826 C 0.80456 0.57555 0.90867 0.0
C2827 C 0.78708 0.57056 0.91522 0.0
C2828 C 0.81182 0.56725 0.89294 0.0
C2829 C 0.80184 0.55363 0.88346 0.0
C2830 C 0.78436 0.54859 0.89008 0.0
C2831 C 0.77703 0.55702 0.90576 0.0
H2832 H 0.70036 0.51197 0.16388 0.0
H2833 H 0.66039 0.5559 0.16229 0.0
H2834 H 0.7139 0.52332 0.13507 0.0
H2835 H 0.67377 0.56711 0.13354 0.0
H2836 H 0.6893 0.5672 0.07214 0.0
H2837 H 0.6766 0.55413 0.10042 0.0
H2838 H 0.73085 0.55359 0.12463 0.0
H2839 H 0.74359 0.5668 0.0963 0.0
C2840 C 0.69448 0.52401 0.15733 0.0
C2841 C 0.6794 0.53312 0.16528 0.0
C2842 C 0.70225 0.53053 0.14096 0.0
C2843 C 0.69481 0.54603 0.13212 0.0
C2844 C 0.67966 0.55504 0.14003 0.0
C2845 C 0.67211 0.54873 0.15652 0.0
C2846 C 0.69853 0.56409 0.08343 0.0
C2847 C 0.71741 0.568 0.08207 0.0
C2848 C 0.69125 0.55675 0.09962 0.0
C2849 C 0.70276 0.55292 0.11467 0.0
C2850 C 0.72172 0.55634 0.11317 0.0
C2851 C 0.72897 0.56398 0.09705 0.0
H2852 H 0.70038 0.44843 0.42988 0.0
H2853 H 0.73341 0.41197 0.39643 0.0
H2854 H 0.68821 0.46281 0.40211 0.0
H2855 H 0.72149 0.42667 0.3687 0.0
H2856 H 0.70712 0.46941 0.32382 0.0
H2857 H 0.7212 0.45694 0.35171 0.0
H2858 H 0.66752 0.45222 0.37671 0.0
H2859 H 0.65339 0.46419 0.34885 0.0
C2860 C 0.70506 0.44348 0.41662 0.0
C2861 C 0.71777 0.42893 0.41541 0.0
C2862 C 0.69812 0.45176 0.40073 0.0
C2863 C 0.70383 0.44579 0.38325 0.0
C2864 C 0.71698 0.43167 0.382 0.0
C2865 C 0.72383 0.42329 0.3979 0.0
C2866 C 0.6983 0.46559 0.33521 0.0
C2867 C 0.6791 0.46788 0.33407 0.0
C2868 C 0.70639 0.4585 0.35119 0.0
C2869 C 0.69546 0.45371 0.3664 0.0
C2870 C 0.67632 0.45611 0.36532 0.0
C2871 C 0.66823 0.46303 0.34934 0.0
H2872 H 0.84916 0.46999 0.64566 0.0
H2873 H 0.79671 0.46816 0.67353 0.0
H2874 H 0.83493 0.45767 0.61795 0.0
H2875 H 0.78231 0.45612 0.64566 0.0
H2876 H 0.76912 0.41367 0.60045 0.0
H2877 H 0.78172 0.42839 0.62782 0.0
H2878 H 0.8141 0.46455 0.59341 0.0
H2879 H 0.80172 0.44952 0.56605 0.0
C2880 C 0.83451 0.46723 0.64576 0.0
C2881 C 0.82405 0.47002 0.66177 0.0
C2882 C 0.82633 0.4602 0.62985 0.0
C2883 C 0.80746 0.45589 0.62955 0.0
C2884 C 0.79693 0.459 0.6455 0.0
C2885 C 0.80516 0.46593 0.66146 0.0
C2886 C 0.77875 0.42492 0.59875 0.0
C2887 C 0.78449 0.4304 0.58112 0.0
C2888 C 0.78596 0.4334 0.61444 0.0
C2889 C 0.79899 0.44763 0.61284 0.0
C2890 C 0.80436 0.45341 0.59516 0.0
C2891 C 0.79724 0.44484 0.57948 0.0
H2892 H 0.40278 0.09107 0.19524 0.0
H2893 H 0.45186 0.08257 0.22762 0.0
H2894 H 0.41549 0.11969 0.18334 0.0
H2895 H 0.46493 0.11098 0.21532 0.0
H2896 H 0.47453 0.17229 0.20424 0.0
H2897 H 0.46205 0.14358 0.21649 0.0
H2898 H 0.43823 0.13141 0.16331 0.0
H2899 H 0.45024 0.16033 0.15137 0.0
C2900 C 0.41643 0.09522 0.1996 0.0
C2901 C 0.42636 0.08458 0.2123 0.0
C2902 C 0.42375 0.11161 0.19276 0.0
C2903 C 0.44129 0.11768 0.19831 0.0
C2904 C 0.45127 0.10692 0.21096 0.0
C2905 C 0.44384 0.0906 0.21795 0.0
C2906 C 0.46663 0.16342 0.19523 0.0
C2907 C 0.46319 0.16859 0.17693 0.0
C2908 C 0.45954 0.14693 0.20219 0.0
C2909 C 0.44905 0.13515 0.19092 0.0
C2910 C 0.44588 0.14029 0.17252 0.0
C2911 C 0.45279 0.15684 0.16564 0.0
H2912 H 0.0348 0.8264 0.70235 0.0
H2913 H 0.04035 0.85111 0.64855 0.0
H2914 H 0.046 0.85474 0.71648 0.0
H2915 H 0.05227 0.87908 0.66258 0.0
H2916 H 0.05633 0.93284 0.69407 0.0
H2917 H 0.04283 0.90495 0.68115 0.0
H2918 H 0.07439 0.87202 0.71931 0.0
H2919 H 0.08776 0.89991 0.7323 0.0
C2920 C 0.03836 0.83788 0.69354 0.0
C2921 C 0.03673 0.83645 0.67431 0.0
C2922 C 0.04497 0.85406 0.70163 0.0
C2923 C 0.05006 0.86918 0.69067 0.0
C2924 C 0.04827 0.86778 0.67145 0.0
C2925 C 0.04167 0.85164 0.66338 0.0
C2926 C 0.0604 0.91963 0.69966 0.0
C2927 C 0.07314 0.91859 0.71418 0.0
C2928 C 0.05268 0.90365 0.69225 0.0
C2929 C 0.05758 0.88623 0.69914 0.0
C2930 C 0.07011 0.88521 0.71385 0.0
C2931 C 0.07778 0.9012 0.7213 0.0
H2932 H 0.46477 0.82213 0.29504 0.0
H2933 H 0.471 0.85143 0.34639 0.0
H2934 H 0.45287 0.85005 0.28059 0.0
H2935 H 0.45904 0.87922 0.33205 0.0
H2936 H 0.45227 0.93037 0.29707 0.0
H2937 H 0.46639 0.90258 0.30958 0.0
H2938 H 0.42571 0.86939 0.28163 0.0
H2939 H 0.41173 0.89714 0.26903 0.0
C2940 C 0.46354 0.83451 0.30325 0.0
C2941 C 0.46887 0.83457 0.32184 0.0
C2942 C 0.45672 0.8505 0.29498 0.0
C2943 C 0.45503 0.86689 0.30515 0.0
C2944 C 0.46048 0.86694 0.32372 0.0
C2945 C 0.46733 0.85099 0.33195 0.0
C2946 C 0.44636 0.91713 0.29361 0.0
C2947 C 0.43088 0.91596 0.28209 0.0
C2948 C 0.45443 0.90121 0.30079 0.0
C2949 C 0.44714 0.88375 0.29666 0.0
C2950 C 0.43185 0.88258 0.28487 0.0
C2951 C 0.42382 0.8985 0.27765 0.0
H2952 H 0.83592 0.65513 0.057 0.0
H2953 H 0.83144 0.70007 0.01846 0.0
H2954 H 0.86431 0.66813 0.06905 0.0
H2955 H 0.85949 0.7137 0.03103 0.0
H2956 H 0.92026 0.72297 0.04489 0.0
H2957 H 0.89162 0.7105 0.03245 0.0
H2958 H 0.87637 0.69184 0.08691 0.0
H2959 H 0.90536 0.70354 0.09896 0.0
C2960 C 0.8409 0.66799 0.05132 0.0
C2961 C 0.83148 0.67664 0.03686 0.0
C2962 C 0.85715 0.67552 0.05827 0.0
C2963 C 0.86425 0.69207 0.05112 0.0
C2964 C 0.85466 0.7008 0.0367 0.0
C2965 C 0.83853 0.69308 0.02956 0.0
C2966 C 0.91071 0.71619 0.05412 0.0
C2967 C 0.91504 0.71403 0.07281 0.0
C2968 C 0.89424 0.70914 0.04706 0.0
C2969 C 0.88162 0.70004 0.05863 0.0
C2970 C 0.88588 0.69832 0.07745 0.0
C2971 C 0.90246 0.7051 0.08442 0.0
H2972 H 0.5691 0.3046 0.55509 0.0
H2973 H 0.60105 0.26501 0.58582 0.0
H2974 H 0.5973 0.31699 0.54173 0.0
H2975 H 0.62927 0.27751 0.57268 0.0
H2976 H 0.67549 0.29431 0.53374 0.0
H2977 H 0.64686 0.28055 0.54463 0.0
H2978 H 0.62342 0.33479 0.55137 0.0
H2979 H 0.65163 0.34846 0.53968 0.0
C2980 C 0.58217 0.29858 0.55903 0.0
C2981 C 0.58286 0.28386 0.57154 0.0
C2982 C 0.59833 0.30569 0.55141 0.0
C2983 C 0.61557 0.29831 0.5562 0.0
C2984 C 0.61622 0.28336 0.56847 0.0
C2985 C 0.60005 0.2762 0.57603 0.0
C2986 C 0.66415 0.30328 0.53734 0.0
C2987 C 0.6659 0.3225 0.5359 0.0
C2988 C 0.6478 0.2954 0.54377 0.0
C2989 C 0.63283 0.30656 0.5489 0.0
C2990 C 0.63457 0.32576 0.54733 0.0
C2991 C 0.65087 0.33362 0.54088 0.0
H2992 H 0.23497 0.44904 0.08492 0.0
H2993 H 0.19791 0.40326 0.09276 0.0
H2994 H 0.22409 0.46275 0.11378 0.0
H2995 H 0.18709 0.4169 0.12153 0.0
H2996 H 0.18745 0.43715 0.18122 0.0
H2997 H 0.20066 0.42416 0.15324 0.0
H2998 H 0.19337 0.47615 0.12548 0.0
H2999 H 0.17952 0.48906 0.15318 0.0
C3000 C 0.22456 0.44191 0.09285 0.0
C3001 C 0.21721 0.42514 0.0866 0.0
C3002 C 0.21829 0.44977 0.10928 0.0
C3003 C 0.20481 0.44083 0.11989 0.0
C3004 C 0.19762 0.42399 0.1137 0.0
C3005 C 0.20367 0.41628 0.09718 0.0
C3006 C 0.18853 0.44583 0.16915 0.0
C3007 C 0.18222 0.46414 0.16948 0.0
C3008 C 0.19618 0.43838 0.15316 0.0
C3009 C 0.19793 0.44913 0.1372 0.0
C3010 C 0.19231 0.46761 0.13766 0.0
C3011 C 0.18444 0.47501 0.15358 0.0
H3012 H 0.30182 0.48698 0.83928 0.0
H3013 H 0.33914 0.44075 0.83719 0.0
H3014 H 0.28931 0.4755 0.86837 0.0
H3015 H 0.32634 0.42906 0.86585 0.0
H3016 H 0.31448 0.42423 0.92674 0.0
H3017 H 0.3264 0.43777 0.89849 0.0
H3018 H 0.27092 0.44932 0.88053 0.0
H3019 H 0.25895 0.43566 0.90884 0.0
C3020 C 0.30731 0.47436 0.84501 0.0
C3021 C 0.32145 0.46476 0.83592 0.0
C3022 C 0.30006 0.46772 0.86157 0.0
C3023 C 0.30691 0.45143 0.86945 0.0
C3024 C 0.32093 0.44178 0.86026 0.0
C3025 C 0.3281 0.44835 0.84371 0.0
C3026 C 0.30481 0.42963 0.91676 0.0
C3027 C 0.28576 0.4287 0.91996 0.0
C3028 C 0.31164 0.43737 0.90057 0.0
C3029 C 0.29959 0.44442 0.88719 0.0
C3030 C 0.28056 0.44411 0.89065 0.0
C3031 C 0.2737 0.43632 0.90687 0.0
H3032 H 0.29229 0.59949 0.59809 0.0
H3033 H 0.28377 0.54488 0.57611 0.0
H3034 H 0.30479 0.58626 0.6262 0.0
H3035 H 0.29614 0.53162 0.60445 0.0
H3036 H 0.30221 0.51617 0.66609 0.0
H3037 H 0.28896 0.52878 0.63787 0.0
H3038 H 0.33254 0.56912 0.63546 0.0
H3039 H 0.3459 0.55645 0.66343 0.0
C3040 C 0.29321 0.58465 0.59919 0.0
C3041 C 0.28718 0.57325 0.58476 0.0
C3042 C 0.30034 0.57708 0.61533 0.0
C3043 C 0.30155 0.55791 0.6175 0.0
C3044 C 0.29522 0.54645 0.60324 0.0
C3045 C 0.28813 0.55405 0.58702 0.0
C3046 C 0.30905 0.52763 0.65945 0.0
C3047 C 0.32507 0.53536 0.6671 0.0
C3048 C 0.30144 0.53485 0.6433 0.0
C3049 C 0.30966 0.54999 0.6345 0.0
C3050 C 0.3257 0.55765 0.6421 0.0
C3051 C 0.33334 0.55041 0.65817 0.0
H3052 H 0.19525 0.55091 0.32071 0.0
H3053 H 0.15984 0.51492 0.3522 0.0
H3054 H 0.20819 0.56295 0.3491 0.0
H3055 H 0.17378 0.52592 0.38047 0.0
H3056 H 0.18611 0.56468 0.42796 0.0
H3057 H 0.17386 0.55189 0.39964 0.0
H3058 H 0.22749 0.55655 0.37431 0.0
H3059 H 0.2394 0.57064 0.40219 0.0
C3060 C 0.19028 0.54547 0.33366 0.0
C3061 C 0.17638 0.53199 0.33407 0.0
C3062 C 0.19792 0.55219 0.34999 0.0
C3063 C 0.19204 0.54546 0.36717 0.0
C3064 C 0.17847 0.53167 0.36755 0.0
C3065 C 0.17066 0.52511 0.35125 0.0
C3066 C 0.19527 0.56319 0.4163 0.0
C3067 C 0.21375 0.56882 0.41741 0.0
C3068 C 0.18829 0.55556 0.40009 0.0
C3069 C 0.19966 0.55313 0.3846 0.0
C3070 C 0.21824 0.55843 0.38583 0.0
C3071 C 0.22516 0.56627 0.40198 0.0
loop_
_geom_bond_atom_site_label_1
_geom_bond_atom_site_label_2
_geom_bond_distance
_geom_bond_site_symmetry_2
_ccdc_geom_bond_type
Li0 N17 1.990 . S
Li0 O60 1.956 . S
Li0 O61 1.970 . S
Li0 O62 1.961 1_455 S
Li1 N25 1.990 . S
Li1 O60 1.970 . S
Li1 O61 1.956 . S
Li1 O63 1.961 1_455 S
Li2 N47 1.990 . S
Li2 O60 1.961 1_655 S
Li2 O62 1.956 . S
Li2 O63 1.970 . S
Li3 N53 1.990 . S
Li3 O61 1.961 1_655 S
Li3 O62 1.970 . S
Li3 O63 1.956 . S
C4 C6 1.348 . S
C4 C7 1.356 . S
C4 O60 1.325 . S
N5 C8 1.314 . S
N5 C9 1.279 . S
C6 C4 1.348 . S
C6 C8 1.353 . S
C6 H64 0.929 . S
C7 C4 1.356 . S
C7 C9 1.358 . S
C7 H65 0.930 . S
C8 N5 1.314 . S
C8 C6 1.353 . S
C8 H66 0.930 . S
C9 N5 1.279 . S
C9 C7 1.358 . S
C9 H67 0.930 . S
C10 C13 1.348 . S
C10 C14 1.356 . S
C10 O61 1.325 . S
C11 N12 1.279 . S
C11 C14 1.358 . S
C11 H68 0.930 . S
N12 C11 1.279 . S
N12 C15 1.314 . S
C13 C10 1.348 . S
C13 C15 1.353 . S
C13 H69 0.929 . S
C14 C10 1.356 . S
C14 C11 1.358 . S
C14 H70 0.930 . S
C15 N12 1.314 . S
C15 C13 1.353 . S
C15 H71 0.930 . S
C16 N17 1.314 . S
C16 C21 1.353 . S
C16 H22 0.930 1_455 S
N17 Li0 1.990 . S
N17 C16 1.314 . S
N17 C19 1.279 . S
C18 C19 1.358 . S
C18 C20 1.356 . S
C18 H72 0.930 . S
C19 N17 1.279 . S
C19 C18 1.358 . S
C19 H23 0.930 . S
C20 C18 1.356 . S
C20 C21 1.348 . S
C21 C16 1.353 . S
C21 C20 1.348 . S
C21 H73 0.929 . S
H22 C16 0.930 1_655 S
H23 C19 0.930 . S
C24 N25 1.314 . S
C24 C26 1.353 . S
C24 H30 0.930 . S
N25 Li1 1.990 . S
N25 C24 1.314 . S
N25 C28 1.279 . S
C26 C24 1.353 . S
C26 C29 1.348 . S
C26 H74 0.929 . S
C27 C28 1.358 . S
C27 C29 1.356 . S
C27 H75 0.930 . S
C28 N25 1.279 . S
C28 C27 1.358 . S
C28 H31 0.930 . S
C29 C26 1.348 . S
C29 C27 1.356 . S
H30 C24 0.930 . S
H31 C28 0.930 . S
C32 C34 1.348 . S
C32 C35 1.356 . S
C32 O62 1.325 . S
N33 C36 1.314 . S
N33 C37 1.279 . S
C34 C32 1.348 . S
C34 C36 1.353 . S
C34 H76 0.929 . S
C35 C32 1.356 . S
C35 C37 1.358 . S
C35 H77 0.930 . S
C36 N33 1.314 . S
C36 C34 1.353 . S
C36 H78 0.930 . S
C37 N33 1.279 . S
C37 C35 1.358 . S
C37 H79 0.930 . S
C38 C39 1.348 . S
C38 C40 1.356 . S
C38 O63 1.325 . S
C39 C38 1.348 . S
C39 C41 1.353 . S
C39 H80 0.929 . S
C40 C38 1.356 . S
C40 C42 1.358 . S
C40 H81 0.930 . S
C41 C39 1.353 . S
C41 N43 1.314 . S
C41 H82 0.930 . S
C42 C40 1.358 . S
C42 N43 1.279 . S
C42 H83 0.930 . S
N43 C41 1.314 . S
N43 C42 1.279 . S
C44 C46 1.353 . S
C44 N47 1.314 . S
C44 H50 0.930 1_655 S
C45 N47 1.279 . S
C45 C48 1.358 . S
C45 H51 0.930 . S
C46 C44 1.353 . S
C46 C49 1.348 . S
C46 H84 0.929 . S
N47 Li2 1.990 . S
N47 C44 1.314 . S
N47 C45 1.279 . S
C48 C45 1.358 . S
C48 C49 1.356 . S
C48 H85 0.930 . S
C49 C46 1.348 . S
C49 C48 1.356 . S
H50 C44 0.930 1_455 S
H51 C45 0.930 . S
C52 N53 1.314 . S
C52 C54 1.353 . S
C52 H58 0.930 . S
N53 Li3 1.990 . S
N53 C52 1.314 . S
N53 C56 1.279 . S
C54 C52 1.353 . S
C54 C57 1.348 . S
C54 H86 0.929 . S
C55 C56 1.358 . S
C55 C57 1.356 . S
C55 H87 0.930 . S
C56 N53 1.279 . S
C56 C55 1.358 . S
C56 H59 0.930 . S
C57 C54 1.348 . S
C57 C55 1.356 . S
H58 C52 0.930 . S
H59 C56 0.930 . S
O60 Li0 1.956 . S
O60 Li1 1.970 . S
O60 Li2 1.961 1_455 S
O60 C4 1.325 . S
O61 Li0 1.970 . S
O61 Li1 1.956 . S
O61 Li3 1.961 1_455 S
O61 C10 1.325 . S
O62 Li0 1.961 1_655 S
O62 Li2 1.956 . S
O62 Li3 1.970 . S
O62 C32 1.325 . S
O63 Li1 1.961 1_655 S
O63 Li2 1.970 . S
O63 Li3 1.956 . S
O63 C38 1.325 . S
H64 C6 0.929 . S
H65 C7 0.930 . S
H66 C8 0.930 . S
H67 C9 0.930 . S
H68 C11 0.930 . S
H69 C13 0.929 . S
H70 C14 0.930 . S
H71 C15 0.930 . S
H72 C18 0.930 . S
H73 C21 0.929 . S
H74 C26 0.929 . S
H75 C27 0.930 . S
H76 C34 0.929 . S
H77 C35 0.930 . S
H78 C36 0.930 . S
H79 C37 0.930 . S
H80 C39 0.929 . S
H81 C40 0.930 . S
H82 C41 0.930 . S
H83 C42 0.930 . S
H84 C46 0.929 . S
H85 C48 0.930 . S
H86 C54 0.929 . S
H87 C55 0.930 . S
Li88 N105 1.990 . S
Li88 O148 1.956 1_455 S
Li88 O149 1.970 . S
Li88 O150 1.961 . S
Li89 N113 1.990 . S
Li89 O148 1.970 . S
Li89 O149 1.956 1_655 S
Li89 O151 1.961 . S
Li90 N135 1.990 . S
Li90 O148 1.961 . S
Li90 O150 1.956 1_655 S
Li90 O151 1.970 . S
Li91 N141 1.990 . S
Li91 O149 1.961 . S
Li91 O150 1.970 . S
Li91 O151 1.956 1_455 S
C92 C94 1.348 . S
C92 C95 1.356 . S
C92 O148 1.325 . S
N93 C96 1.314 . S
N93 C97 1.279 . S
C94 C92 1.348 . S
C94 C96 1.353 . S
C94 H152 0.929 . S
C95 C92 1.356 . S
C95 C97 1.358 . S
C95 H153 0.930 . S
C96 N93 1.314 . S
C96 C94 1.353 . S
C96 H154 0.930 . S
C97 N93 1.279 . S
C97 C95 1.358 . S
C97 H155 0.930 . S
C98 C101 1.348 . S
C98 C102 1.356 . S
C98 O149 1.325 . S
C99 N100 1.279 . S
C99 C102 1.358 . S
C99 H156 0.930 . S
N100 C99 1.279 . S
N100 C103 1.314 . S
C101 C98 1.348 . S
C101 C103 1.353 . S
C101 H157 0.929 . S
C102 C98 1.356 . S
C102 C99 1.358 . S
C102 H158 0.930 . S
C103 N100 1.314 . S
C103 C101 1.353 . S
C103 H159 0.930 . S
C104 N105 1.314 . S
C104 C109 1.353 . S
C104 H110 0.930 . S
N105 Li88 1.990 . S
N105 C104 1.314 . S
N105 C107 1.279 . S
C106 C107 1.358 . S
C106 C108 1.356 . S
C106 H160 0.930 . S
C107 N105 1.279 . S
C107 C106 1.358 . S
C107 H111 0.930 1_455 S
C108 C106 1.356 . S
C108 C109 1.348 . S
C109 C104 1.353 . S
C109 C108 1.348 . S
C109 H161 0.929 . S
H110 C104 0.930 . S
H111 C107 0.930 1_655 S
C112 N113 1.314 . S
C112 C114 1.353 . S
C112 H118 0.930 . S
N113 Li89 1.990 . S
N113 C112 1.314 . S
N113 C116 1.279 . S
C114 C112 1.353 . S
C114 C117 1.348 . S
C114 H162 0.929 . S
C115 C116 1.358 . S
C115 C117 1.356 . S
C115 H163 0.930 . S
C116 N113 1.279 . S
C116 C115 1.358 . S
C116 H119 0.930 . S
C117 C114 1.348 . S
C117 C115 1.356 . S
H118 C112 0.930 . S
H119 C116 0.930 . S
C120 C122 1.348 . S
C120 C123 1.356 . S
C120 O150 1.325 . S
N121 C124 1.314 . S
N121 C125 1.279 . S
C122 C120 1.348 . S
C122 C124 1.353 . S
C122 H164 0.929 . S
C123 C120 1.356 . S
C123 C125 1.358 . S
C123 H165 0.930 . S
C124 N121 1.314 . S
C124 C122 1.353 . S
C124 H166 0.930 . S
C125 N121 1.279 . S
C125 C123 1.358 . S
C125 H167 0.930 . S
C126 C127 1.348 . S
C126 C128 1.356 . S
C126 O151 1.325 . S
C127 C126 1.348 . S
C127 C129 1.353 . S
C127 H168 0.929 . S
C128 C126 1.356 . S
C128 C130 1.358 . S
C128 H169 0.930 . S
C129 C127 1.353 . S
C129 N131 1.314 . S
C129 H170 0.930 . S
C130 C128 1.358 . S
C130 N131 1.279 . S
C130 H171 0.930 . S
N131 C129 1.314 . S
N131 C130 1.279 . S
C132 C134 1.353 . S
C132 N135 1.314 . S
C132 H138 0.930 . S
C133 N135 1.279 . S
C133 C136 1.358 . S
C133 H139 0.930 1_655 S
C134 C132 1.353 . S
C134 C137 1.348 . S
C134 H172 0.929 . S
N135 Li90 1.990 . S
N135 C132 1.314 . S
N135 C133 1.279 . S
C136 C133 1.358 . S
C136 C137 1.356 . S
C136 H173 0.930 . S
C137 C134 1.348 . S
C137 C136 1.356 . S
H138 C132 0.930 . S
H139 C133 0.930 1_455 S
C140 N141 1.314 . S
C140 C142 1.353 . S
C140 H146 0.930 . S
N141 Li91 1.990 . S
N141 C140 1.314 . S
N141 C144 1.279 . S
C142 C140 1.353 . S
C142 C145 1.348 . S
C142 H174 0.929 . S
C143 C144 1.358 . S
C143 C145 1.356 . S
C143 H175 0.930 . S
C144 N141 1.279 . S
C144 C143 1.358 . S
C144 H147 0.930 . S
C145 C142 1.348 . S
C145 C143 1.356 . S
H146 C140 0.930 . S
H147 C144 0.930 . S
O148 Li88 1.956 1_655 S
O148 Li89 1.970 . S
O148 Li90 1.961 . S
O148 C92 1.325 . S
O149 Li88 1.970 . S
O149 Li89 1.956 1_455 S
O149 Li91 1.961 . S
O149 C98 1.325 . S
O150 Li88 1.961 . S
O150 Li90 1.956 1_455 S
O150 Li91 1.970 . S
O150 C120 1.325 . S
O151 Li89 1.961 . S
O151 Li90 1.970 . S
O151 Li91 1.956 1_655 S
O151 C126 1.325 . S
H152 C94 0.929 . S
H153 C95 0.930 . S
H154 C96 0.930 . S
H155 C97 0.930 . S
H156 C99 0.930 . S
H157 C101 0.929 . S
H158 C102 0.930 . S
H159 C103 0.930 . S
H160 C106 0.930 . S
H161 C109 0.929 . S
H162 C114 0.929 . S
H163 C115 0.930 . S
H164 C122 0.929 . S
H165 C123 0.930 . S
H166 C124 0.930 . S
H167 C125 0.930 . S
H168 C127 0.929 . S
H169 C128 0.930 . S
H170 C129 0.930 . S
H171 C130 0.930 . S
H172 C134 0.929 . S
H173 C136 0.930 . S
H174 C142 0.929 . S
H175 C143 0.930 . S
Li176 N193 1.990 . S
Li176 O236 1.956 . S
Li176 O237 1.970 . S
Li176 O238 1.961 . S
Li177 N201 1.990 . S
Li177 O236 1.970 . S
Li177 O237 1.956 . S
Li177 O239 1.961 . S
Li178 N223 1.990 . S
Li178 O236 1.961 . S
Li178 O238 1.956 . S
Li178 O239 1.970 . S
Li179 N229 1.990 . S
Li179 O237 1.961 . S
Li179 O238 1.970 . S
Li179 O239 1.956 . S
C180 C182 1.348 . S
C180 C183 1.356 . S
C180 O236 1.325 . S
N181 C184 1.314 . S
N181 C185 1.279 . S
C182 C180 1.348 . S
C182 C184 1.353 . S
C182 H240 0.929 . S
C183 C180 1.356 . S
C183 C185 1.358 . S
C183 H241 0.930 . S
C184 N181 1.314 . S
C184 C182 1.353 . S
C184 H242 0.930 . S
C185 N181 1.279 . S
C185 C183 1.358 . S
C185 H243 0.930 . S
C186 C189 1.348 . S
C186 C190 1.356 . S
C186 O237 1.325 . S
C187 N188 1.279 . S
C187 C190 1.358 . S
C187 H244 0.930 . S
N188 C187 1.279 . S
N188 C191 1.314 . S
C189 C186 1.348 . S
C189 C191 1.353 . S
C189 H245 0.929 . S
C190 C186 1.356 . S
C190 C187 1.358 . S
C190 H246 0.930 . S
C191 N188 1.314 . S
C191 C189 1.353 . S
C191 H247 0.930 . S
C192 N193 1.314 . S
C192 C197 1.353 . S
C192 H198 0.930 . S
N193 Li176 1.990 . S
N193 C192 1.314 . S
N193 C195 1.279 . S
C194 C195 1.358 . S
C194 C196 1.356 . S
C194 H248 0.930 . S
C195 N193 1.279 . S
C195 C194 1.358 . S
C195 H199 0.930 . S
C196 C194 1.356 . S
C196 C197 1.348 . S
C197 C192 1.353 . S
C197 C196 1.348 . S
C197 H249 0.929 . S
H198 C192 0.930 . S
H199 C195 0.930 . S
C200 N201 1.314 . S
C200 C202 1.353 . S
C200 H206 0.930 . S
N201 Li177 1.990 . S
N201 C200 1.314 . S
N201 C204 1.279 . S
C202 C200 1.353 . S
C202 C205 1.348 . S
C202 H250 0.929 . S
C203 C204 1.358 . S
C203 C205 1.356 . S
C203 H251 0.930 . S
C204 N201 1.279 . S
C204 C203 1.358 . S
C204 H207 0.930 . S
C205 C202 1.348 . S
C205 C203 1.356 . S
H206 C200 0.930 . S
H207 C204 0.930 . S
C208 C210 1.348 . S
C208 C211 1.356 . S
C208 O238 1.325 . S
N209 C212 1.314 . S
N209 C213 1.279 . S
C210 C208 1.348 . S
C210 C212 1.353 . S
C210 H252 0.929 . S
C211 C208 1.356 . S
C211 C213 1.358 . S
C211 H253 0.930 . S
C212 N209 1.314 . S
C212 C210 1.353 . S
C212 H254 0.930 . S
C213 N209 1.279 . S
C213 C211 1.358 . S
C213 H255 0.930 . S
C214 C215 1.348 . S
C214 C216 1.356 . S
C214 O239 1.325 . S
C215 C214 1.348 . S
C215 C217 1.353 . S
C215 H256 0.929 . S
C216 C214 1.356 . S
C216 C218 1.358 . S
C216 H257 0.930 . S
C217 C215 1.353 . S
C217 N219 1.314 . S
C217 H258 0.930 . S
C218 C216 1.358 . S
C218 N219 1.279 . S
C218 H259 0.930 . S
N219 C217 1.314 . S
N219 C218 1.279 . S
C220 C222 1.353 . S
C220 N223 1.314 . S
C220 H226 0.930 . S
C221 N223 1.279 . S
C221 C224 1.358 . S
C221 H227 0.930 . S
C222 C220 1.353 . S
C222 C225 1.348 . S
C222 H260 0.929 . S
N223 Li178 1.990 . S
N223 C220 1.314 . S
N223 C221 1.279 . S
C224 C221 1.358 . S
C224 C225 1.356 . S
C224 H261 0.930 . S
C225 C222 1.348 . S
C225 C224 1.356 . S
H226 C220 0.930 . S
H227 C221 0.930 . S
C228 N229 1.314 . S
C228 C230 1.353 . S
C228 H234 0.930 . S
N229 Li179 1.990 . S
N229 C228 1.314 . S
N229 C232 1.279 . S
C230 C228 1.353 . S
C230 C233 1.348 . S
C230 H262 0.929 . S
C231 C232 1.358 . S
C231 C233 1.356 . S
C231 H263 0.930 . S
C232 N229 1.279 . S
C232 C231 1.358 . S
C232 H235 0.930 . S
C233 C230 1.348 . S
C233 C231 1.356 . S
H234 C228 0.930 . S
H235 C232 0.930 . S
O236 Li176 1.956 . S
O236 Li177 1.970 . S
O236 Li178 1.961 . S
O236 C180 1.325 . S
O237 Li176 1.970 . S
O237 Li177 1.956 . S
O237 Li179 1.961 . S
O237 C186 1.325 . S
O238 Li176 1.961 . S
O238 Li178 1.956 . S
O238 Li179 1.970 . S
O238 C208 1.325 . S
O239 Li177 1.961 . S
O239 Li178 1.970 . S
O239 Li179 1.956 . S
O239 C214 1.325 . S
H240 C182 0.929 . S
H241 C183 0.930 . S
H242 C184 0.930 . S
H243 C185 0.930 . S
H244 C187 0.930 . S
H245 C189 0.929 . S
H246 C190 0.930 . S
H247 C191 0.930 . S
H248 C194 0.930 . S
H249 C197 0.929 . S
H250 C202 0.929 . S
H251 C203 0.930 . S
H252 C210 0.929 . S
H253 C211 0.930 . S
H254 C212 0.930 . S
H255 C213 0.930 . S
H256 C215 0.929 . S
H257 C216 0.930 . S
H258 C217 0.930 . S
H259 C218 0.930 . S
H260 C222 0.929 . S
H261 C224 0.930 . S
H262 C230 0.929 . S
H263 C231 0.930 . S
Li264 N281 1.990 . S
Li264 O324 1.956 . S
Li264 O325 1.970 . S
Li264 O326 1.961 . S
Li265 N289 1.990 . S
Li265 O324 1.970 . S
Li265 O325 1.956 . S
Li265 O327 1.961 . S
Li266 N311 1.990 . S
Li266 O324 1.961 . S
Li266 O326 1.956 . S
Li266 O327 1.970 . S
Li267 N317 1.990 . S
Li267 O325 1.961 . S
Li267 O326 1.970 . S
Li267 O327 1.956 . S
C268 C270 1.348 . S
C268 C271 1.356 . S
C268 O324 1.325 . S
N269 C272 1.314 . S
N269 C273 1.279 . S
C270 C268 1.348 . S
C270 C272 1.353 . S
C270 H328 0.929 . S
C271 C268 1.356 . S
C271 C273 1.358 . S
C271 H329 0.930 . S
C272 N269 1.314 . S
C272 C270 1.353 . S
C272 H330 0.930 . S
C273 N269 1.279 . S
C273 C271 1.358 . S
C273 H331 0.930 . S
C274 C277 1.348 . S
C274 C278 1.356 . S
C274 O325 1.325 . S
C275 N276 1.279 . S
C275 C278 1.358 . S
C275 H332 0.930 . S
N276 C275 1.279 . S
N276 C279 1.314 . S
C277 C274 1.348 . S
C277 C279 1.353 . S
C277 H333 0.929 . S
C278 C274 1.356 . S
C278 C275 1.358 . S
C278 H334 0.930 . S
C279 N276 1.314 . S
C279 C277 1.353 . S
C279 H335 0.930 . S
C280 N281 1.314 . S
C280 C285 1.353 . S
C280 H286 0.930 . S
N281 Li264 1.990 . S
N281 C280 1.314 . S
N281 C283 1.279 . S
C282 C283 1.358 . S
C282 C284 1.356 . S
C282 H336 0.930 . S
C283 N281 1.279 . S
C283 C282 1.358 . S
C283 H287 0.930 . S
C284 C282 1.356 . S
C284 C285 1.348 . S
C285 C280 1.353 . S
C285 C284 1.348 . S
C285 H337 0.929 . S
H286 C280 0.930 . S
H287 C283 0.930 . S
C288 N289 1.314 . S
C288 C290 1.353 . S
C288 H294 0.930 . S
N289 Li265 1.990 . S
N289 C288 1.314 . S
N289 C292 1.279 . S
C290 C288 1.353 . S
C290 C293 1.348 . S
C290 H338 0.929 . S
C291 C292 1.358 . S
C291 C293 1.356 . S
C291 H339 0.930 . S
C292 N289 1.279 . S
C292 C291 1.358 . S
C292 H295 0.930 . S
C293 C290 1.348 . S
C293 C291 1.356 . S
H294 C288 0.930 . S
H295 C292 0.930 . S
C296 C298 1.348 . S
C296 C299 1.356 . S
C296 O326 1.325 . S
N297 C300 1.314 . S
N297 C301 1.279 . S
C298 C296 1.348 . S
C298 C300 1.353 . S
C298 H340 0.929 . S
C299 C296 1.356 . S
C299 C301 1.358 . S
C299 H341 0.930 . S
C300 N297 1.314 . S
C300 C298 1.353 . S
C300 H342 0.930 . S
C301 N297 1.279 . S
C301 C299 1.358 . S
C301 H343 0.930 . S
C302 C303 1.348 . S
C302 C304 1.356 . S
C302 O327 1.325 . S
C303 C302 1.348 . S
C303 C305 1.353 . S
C303 H344 0.929 . S
C304 C302 1.356 . S
C304 C306 1.358 . S
C304 H345 0.930 . S
C305 C303 1.353 . S
C305 N307 1.314 . S
C305 H346 0.930 . S
C306 C304 1.358 . S
C306 N307 1.279 . S
C306 H347 0.930 . S
N307 C305 1.314 . S
N307 C306 1.279 . S
C308 C310 1.353 . S
C308 N311 1.314 . S
C308 H314 0.930 . S
C309 N311 1.279 . S
C309 C312 1.358 . S
C309 H315 0.930 . S
C310 C308 1.353 . S
C310 C313 1.348 . S
C310 H348 0.929 . S
N311 Li266 1.990 . S
N311 C308 1.314 . S
N311 C309 1.279 . S
C312 C309 1.358 . S
C312 C313 1.356 . S
C312 H349 0.930 . S
C313 C310 1.348 . S
C313 C312 1.356 . S
H314 C308 0.930 . S
H315 C309 0.930 . S
C316 N317 1.314 . S
C316 C318 1.353 . S
C316 H322 0.930 . S
N317 Li267 1.990 . S
N317 C316 1.314 . S
N317 C320 1.279 . S
C318 C316 1.353 . S
C318 C321 1.348 . S
C318 H350 0.929 . S
C319 C320 1.358 . S
C319 C321 1.356 . S
C319 H351 0.930 . S
C320 N317 1.279 . S
C320 C319 1.358 . S
C320 H323 0.930 . S
C321 C318 1.348 . S
C321 C319 1.356 . S
H322 C316 0.930 . S
H323 C320 0.930 . S
O324 Li264 1.956 . S
O324 Li265 1.970 . S
O324 Li266 1.961 . S
O324 C268 1.325 . S
O325 Li264 1.970 . S
O325 Li265 1.956 . S
O325 Li267 1.961 . S
O325 C274 1.325 . S
O326 Li264 1.961 . S
O326 Li266 1.956 . S
O326 Li267 1.970 . S
O326 C296 1.325 . S
O327 Li265 1.961 . S
O327 Li266 1.970 . S
O327 Li267 1.956 . S
O327 C302 1.325 . S
H328 C270 0.929 . S
H329 C271 0.930 . S
H330 C272 0.930 . S
H331 C273 0.930 . S
H332 C275 0.930 . S
H333 C277 0.929 . S
H334 C278 0.930 . S
H335 C279 0.930 . S
H336 C282 0.930 . S
H337 C285 0.929 . S
H338 C290 0.929 . S
H339 C291 0.930 . S
H340 C298 0.929 . S
H341 C299 0.930 . S
H342 C300 0.930 . S
H343 C301 0.930 . S
H344 C303 0.929 . S
H345 C304 0.930 . S
H346 C305 0.930 . S
H347 C306 0.930 . S
H348 C310 0.929 . S
H349 C312 0.930 . S
H350 C318 0.929 . S
H351 C319 0.930 . S
Li352 N369 1.990 . S
Li352 O412 1.956 . S
Li352 O413 1.970 . S
Li352 O414 1.961 1_455 S
Li353 N377 1.990 . S
Li353 O412 1.970 . S
Li353 O413 1.956 . S
Li353 O415 1.961 1_455 S
Li354 N399 1.990 . S
Li354 O412 1.961 1_655 S
Li354 O414 1.956 . S
Li354 O415 1.970 . S
Li355 N405 1.990 . S
Li355 O413 1.961 1_655 S
Li355 O414 1.970 . S
Li355 O415 1.956 . S
C356 C358 1.348 . S
C356 C359 1.356 . S
C356 O412 1.325 . S
N357 C360 1.314 . S
N357 C361 1.279 . S
C358 C356 1.348 . S
C358 C360 1.353 . S
C358 H416 0.929 . S
C359 C356 1.356 . S
C359 C361 1.358 . S
C359 H417 0.930 . S
C360 N357 1.314 . S
C360 C358 1.353 . S
C360 H418 0.930 . S
C361 N357 1.279 . S
C361 C359 1.358 . S
C361 H419 0.930 . S
C362 C365 1.348 . S
C362 C366 1.356 . S
C362 O413 1.325 . S
C363 N364 1.279 . S
C363 C366 1.358 . S
C363 H420 0.930 . S
N364 C363 1.279 . S
N364 C367 1.314 . S
C365 C362 1.348 . S
C365 C367 1.353 . S
C365 H421 0.929 . S
C366 C362 1.356 . S
C366 C363 1.358 . S
C366 H422 0.930 . S
C367 N364 1.314 . S
C367 C365 1.353 . S
C367 H423 0.930 . S
C368 N369 1.314 . S
C368 C373 1.353 . S
C368 H374 0.930 1_455 S
N369 Li352 1.990 . S
N369 C368 1.314 . S
N369 C371 1.279 . S
C370 C371 1.358 . S
C370 C372 1.356 . S
C370 H424 0.930 . S
C371 N369 1.279 . S
C371 C370 1.358 . S
C371 H375 0.930 . S
C372 C370 1.356 . S
C372 C373 1.348 . S
C373 C368 1.353 . S
C373 C372 1.348 . S
C373 H425 0.929 . S
H374 C368 0.930 1_655 S
H375 C371 0.930 . S
C376 N377 1.314 . S
C376 C378 1.353 . S
C376 H382 0.930 . S
N377 Li353 1.990 . S
N377 C376 1.314 . S
N377 C380 1.279 . S
C378 C376 1.353 . S
C378 C381 1.348 . S
C378 H426 0.929 . S
C379 C380 1.358 . S
C379 C381 1.356 . S
C379 H427 0.930 . S
C380 N377 1.279 . S
C380 C379 1.358 . S
C380 H383 0.930 . S
C381 C378 1.348 . S
C381 C379 1.356 . S
H382 C376 0.930 . S
H383 C380 0.930 . S
C384 C386 1.348 . S
C384 C387 1.356 . S
C384 O414 1.325 . S
N385 C388 1.314 . S
N385 C389 1.279 . S
C386 C384 1.348 . S
C386 C388 1.353 . S
C386 H428 0.929 . S
C387 C384 1.356 . S
C387 C389 1.358 . S
C387 H429 0.930 . S
C388 N385 1.314 . S
C388 C386 1.353 . S
C388 H430 0.930 . S
C389 N385 1.279 . S
C389 C387 1.358 . S
C389 H431 0.930 . S
C390 C391 1.348 . S
C390 C392 1.356 . S
C390 O415 1.325 . S
C391 C390 1.348 . S
C391 C393 1.353 . S
C391 H432 0.929 . S
C392 C390 1.356 . S
C392 C394 1.358 . S
C392 H433 0.930 . S
C393 C391 1.353 . S
C393 N395 1.314 . S
C393 H434 0.930 . S
C394 C392 1.358 . S
C394 N395 1.279 . S
C394 H435 0.930 . S
N395 C393 1.314 . S
N395 C394 1.279 . S
C396 C398 1.353 . S
C396 N399 1.314 . S
C396 H402 0.930 1_655 S
C397 N399 1.279 . S
C397 C400 1.358 . S
C397 H403 0.930 . S
C398 C396 1.353 . S
C398 C401 1.348 . S
C398 H436 0.929 . S
N399 Li354 1.990 . S
N399 C396 1.314 . S
N399 C397 1.279 . S
C400 C397 1.358 . S
C400 C401 1.356 . S
C400 H437 0.930 . S
C401 C398 1.348 . S
C401 C400 1.356 . S
H402 C396 0.930 1_455 S
H403 C397 0.930 . S
C404 N405 1.314 . S
C404 C406 1.353 . S
C404 H410 0.930 . S
N405 Li355 1.990 . S
N405 C404 1.314 . S
N405 C408 1.279 . S
C406 C404 1.353 . S
C406 C409 1.348 . S
C406 H438 0.929 . S
C407 C408 1.358 . S
C407 C409 1.356 . S
C407 H439 0.930 . S
C408 N405 1.279 . S
C408 C407 1.358 . S
C408 H411 0.930 . S
C409 C406 1.348 . S
C409 C407 1.356 . S
H410 C404 0.930 . S
H411 C408 0.930 . S
O412 Li352 1.956 . S
O412 Li353 1.970 . S
O412 Li354 1.961 1_455 S
O412 C356 1.325 . S
O413 Li352 1.970 . S
O413 Li353 1.956 . S
O413 Li355 1.961 1_455 S
O413 C362 1.325 . S
O414 Li352 1.961 1_655 S
O414 Li354 1.956 . S
O414 Li355 1.970 . S
O414 C384 1.325 . S
O415 Li353 1.961 1_655 S
O415 Li354 1.970 . S
O415 Li355 1.956 . S
O415 C390 1.325 . S
H416 C358 0.929 . S
H417 C359 0.930 . S
H418 C360 0.930 . S
H419 C361 0.930 . S
H420 C363 0.930 . S
H421 C365 0.929 . S
H422 C366 0.930 . S
H423 C367 0.930 . S
H424 C370 0.930 . S
H425 C373 0.929 . S
H426 C378 0.929 . S
H427 C379 0.930 . S
H428 C386 0.929 . S
H429 C387 0.930 . S
H430 C388 0.930 . S
H431 C389 0.930 . S
H432 C391 0.929 . S
H433 C392 0.930 . S
H434 C393 0.930 . S
H435 C394 0.930 . S
H436 C398 0.929 . S
H437 C400 0.930 . S
H438 C406 0.929 . S
H439 C407 0.930 . S
Li440 N457 1.990 . S
Li440 O500 1.956 . S
Li440 O501 1.970 . S
Li440 O502 1.961 . S
Li441 N465 1.990 . S
Li441 O500 1.970 . S
Li441 O501 1.956 . S
Li441 O503 1.961 . S
Li442 N487 1.990 . S
Li442 O500 1.961 . S
Li442 O502 1.956 . S
Li442 O503 1.970 . S
Li443 N493 1.990 . S
Li443 O501 1.961 . S
Li443 O502 1.970 . S
Li443 O503 1.956 . S
C444 C446 1.348 . S
C444 C447 1.356 . S
C444 O500 1.325 . S
N445 C448 1.314 . S
N445 C449 1.279 . S
C446 C444 1.348 . S
C446 C448 1.353 . S
C446 H504 0.929 . S
C447 C444 1.356 . S
C447 C449 1.358 . S
C447 H505 0.930 . S
C448 N445 1.314 . S
C448 C446 1.353 . S
C448 H506 0.930 . S
C449 N445 1.279 . S
C449 C447 1.358 . S
C449 H507 0.930 . S
C450 C453 1.348 . S
C450 C454 1.356 . S
C450 O501 1.325 . S
C451 N452 1.279 . S
C451 C454 1.358 . S
C451 H508 0.930 . S
N452 C451 1.279 . S
N452 C455 1.314 . S
C453 C450 1.348 . S
C453 C455 1.353 . S
C453 H509 0.929 . S
C454 C450 1.356 . S
C454 C451 1.358 . S
C454 H510 0.930 . S
C455 N452 1.314 . S
C455 C453 1.353 . S
C455 H511 0.930 . S
C456 N457 1.314 . S
C456 C461 1.353 . S
C456 H462 0.930 . S
N457 Li440 1.990 . S
N457 C456 1.314 . S
N457 C459 1.279 . S
C458 C459 1.358 . S
C458 C460 1.356 . S
C458 H512 0.930 . S
C459 N457 1.279 . S
C459 C458 1.358 . S
C459 H463 0.930 . S
C460 C458 1.356 . S
C460 C461 1.348 . S
C461 C456 1.353 . S
C461 C460 1.348 . S
C461 H513 0.929 . S
H462 C456 0.930 . S
H463 C459 0.930 . S
C464 N465 1.314 . S
C464 C466 1.353 . S
C464 H470 0.930 . S
N465 Li441 1.990 . S
N465 C464 1.314 . S
N465 C468 1.279 . S
C466 C464 1.353 . S
C466 C469 1.348 . S
C466 H514 0.929 . S
C467 C468 1.358 . S
C467 C469 1.356 . S
C467 H515 0.930 . S
C468 N465 1.279 . S
C468 C467 1.358 . S
C468 H471 0.930 . S
C469 C466 1.348 . S
C469 C467 1.356 . S
H470 C464 0.930 . S
H471 C468 0.930 . S
C472 C474 1.348 . S
C472 C475 1.356 . S
C472 O502 1.325 . S
N473 C476 1.314 . S
N473 C477 1.279 . S
C474 C472 1.348 . S
C474 C476 1.353 . S
C474 H516 0.929 . S
C475 C472 1.356 . S
C475 C477 1.358 . S
C475 H517 0.930 . S
C476 N473 1.314 . S
C476 C474 1.353 . S
C476 H518 0.930 . S
C477 N473 1.279 . S
C477 C475 1.358 . S
C477 H519 0.930 . S
C478 C479 1.348 . S
C478 C480 1.356 . S
C478 O503 1.325 . S
C479 C478 1.348 . S
C479 C481 1.353 . S
C479 H520 0.929 . S
C480 C478 1.356 . S
C480 C482 1.358 . S
C480 H521 0.930 . S
C481 C479 1.353 . S
C481 N483 1.314 . S
C481 H522 0.930 . S
C482 C480 1.358 . S
C482 N483 1.279 . S
C482 H523 0.930 . S
N483 C481 1.314 . S
N483 C482 1.279 . S
C484 C486 1.353 . S
C484 N487 1.314 . S
C484 H490 0.930 . S
C485 N487 1.279 . S
C485 C488 1.358 . S
C485 H491 0.930 . S
C486 C484 1.353 . S
C486 C489 1.348 . S
C486 H524 0.929 . S
N487 Li442 1.990 . S
N487 C484 1.314 . S
N487 C485 1.279 . S
C488 C485 1.358 . S
C488 C489 1.356 . S
C488 H525 0.930 . S
C489 C486 1.348 . S
C489 C488 1.356 . S
H490 C484 0.930 . S
H491 C485 0.930 . S
C492 N493 1.314 . S
C492 C494 1.353 . S
C492 H498 0.930 . S
N493 Li443 1.990 . S
N493 C492 1.314 . S
N493 C496 1.279 . S
C494 C492 1.353 . S
C494 C497 1.348 . S
C494 H526 0.929 . S
C495 C496 1.358 . S
C495 C497 1.356 . S
C495 H527 0.930 . S
C496 N493 1.279 . S
C496 C495 1.358 . S
C496 H499 0.930 . S
C497 C494 1.348 . S
C497 C495 1.356 . S
H498 C492 0.930 . S
H499 C496 0.930 . S
O500 Li440 1.956 . S
O500 Li441 1.970 . S
O500 Li442 1.961 . S
O500 C444 1.325 . S
O501 Li440 1.970 . S
O501 Li441 1.956 . S
O501 Li443 1.961 . S
O501 C450 1.325 . S
O502 Li440 1.961 . S
O502 Li442 1.956 . S
O502 Li443 1.970 . S
O502 C472 1.325 . S
O503 Li441 1.961 . S
O503 Li442 1.970 . S
O503 Li443 1.956 . S
O503 C478 1.325 . S
H504 C446 0.929 . S
H505 C447 0.930 . S
H506 C448 0.930 . S
H507 C449 0.930 . S
H508 C451 0.930 . S
H509 C453 0.929 . S
H510 C454 0.930 . S
H511 C455 0.930 . S
H512 C458 0.930 . S
H513 C461 0.929 . S
H514 C466 0.929 . S
H515 C467 0.930 . S
H516 C474 0.929 . S
H517 C475 0.930 . S
H518 C476 0.930 . S
H519 C477 0.930 . S
H520 C479 0.929 . S
H521 C480 0.930 . S
H522 C481 0.930 . S
H523 C482 0.930 . S
H524 C486 0.929 . S
H525 C488 0.930 . S
H526 C494 0.929 . S
H527 C495 0.930 . S
Li528 N545 1.990 . S
Li528 O588 1.956 . S
Li528 O589 1.970 . S
Li528 O590 1.961 . S
Li529 N553 1.990 . S
Li529 O588 1.970 . S
Li529 O589 1.956 . S
Li529 O591 1.961 . S
Li530 N575 1.990 . S
Li530 O588 1.961 . S
Li530 O590 1.956 . S
Li530 O591 1.970 . S
Li531 N581 1.990 . S
Li531 O589 1.961 . S
Li531 O590 1.970 . S
Li531 O591 1.956 . S
C532 C534 1.348 . S
C532 C535 1.356 . S
C532 O588 1.325 . S
N533 C536 1.314 . S
N533 C537 1.279 . S
C534 C532 1.348 . S
C534 C536 1.353 . S
C534 H592 0.929 . S
C535 C532 1.356 . S
C535 C537 1.358 . S
C535 H593 0.930 . S
C536 N533 1.314 . S
C536 C534 1.353 . S
C536 H594 0.930 . S
C537 N533 1.279 . S
C537 C535 1.358 . S
C537 H595 0.930 . S
C538 C541 1.348 . S
C538 C542 1.356 . S
C538 O589 1.325 . S
C539 N540 1.279 . S
C539 C542 1.358 . S
C539 H596 0.930 . S
N540 C539 1.279 . S
N540 C543 1.314 . S
C541 C538 1.348 . S
C541 C543 1.353 . S
C541 H597 0.929 . S
C542 C538 1.356 . S
C542 C539 1.358 . S
C542 H598 0.930 . S
C543 N540 1.314 . S
C543 C541 1.353 . S
C543 H599 0.930 . S
C544 N545 1.314 . S
C544 C549 1.353 . S
C544 H550 0.930 . S
N545 Li528 1.990 . S
N545 C544 1.314 . S
N545 C547 1.279 . S
C546 C547 1.358 . S
C546 C548 1.356 . S
C546 H600 0.930 . S
C547 N545 1.279 . S
C547 C546 1.358 . S
C547 H551 0.930 . S
C548 C546 1.356 . S
C548 C549 1.348 . S
C549 C544 1.353 . S
C549 C548 1.348 . S
C549 H601 0.929 . S
H550 C544 0.930 . S
H551 C547 0.930 . S
C552 N553 1.314 . S
C552 C554 1.353 . S
C552 H558 0.930 . S
N553 Li529 1.990 . S
N553 C552 1.314 . S
N553 C556 1.279 . S
C554 C552 1.353 . S
C554 C557 1.348 . S
C554 H602 0.929 . S
C555 C556 1.358 . S
C555 C557 1.356 . S
C555 H603 0.930 . S
C556 N553 1.279 . S
C556 C555 1.358 . S
C556 H559 0.930 . S
C557 C554 1.348 . S
C557 C555 1.356 . S
H558 C552 0.930 . S
H559 C556 0.930 . S
C560 C562 1.348 . S
C560 C563 1.356 . S
C560 O590 1.325 . S
N561 C564 1.314 . S
N561 C565 1.279 . S
C562 C560 1.348 . S
C562 C564 1.353 . S
C562 H604 0.929 . S
C563 C560 1.356 . S
C563 C565 1.358 . S
C563 H605 0.930 . S
C564 N561 1.314 . S
C564 C562 1.353 . S
C564 H606 0.930 . S
C565 N561 1.279 . S
C565 C563 1.358 . S
C565 H607 0.930 . S
C566 C567 1.348 . S
C566 C568 1.356 . S
C566 O591 1.325 . S
C567 C566 1.348 . S
C567 C569 1.353 . S
C567 H608 0.929 . S
C568 C566 1.356 . S
C568 C570 1.358 . S
C568 H609 0.930 . S
C569 C567 1.353 . S
C569 N571 1.314 . S
C569 H610 0.930 . S
C570 C568 1.358 . S
C570 N571 1.279 . S
C570 H611 0.930 . S
N571 C569 1.314 . S
N571 C570 1.279 . S
C572 C574 1.353 . S
C572 N575 1.314 . S
C572 H578 0.930 . S
C573 N575 1.279 . S
C573 C576 1.358 . S
C573 H579 0.930 . S
C574 C572 1.353 . S
C574 C577 1.348 . S
C574 H612 0.929 . S
N575 Li530 1.990 . S
N575 C572 1.314 . S
N575 C573 1.279 . S
C576 C573 1.358 . S
C576 C577 1.356 . S
C576 H613 0.930 . S
C577 C574 1.348 . S
C577 C576 1.356 . S
H578 C572 0.930 . S
H579 C573 0.930 . S
C580 N581 1.314 . S
C580 C582 1.353 . S
C580 H586 0.930 . S
N581 Li531 1.990 . S
N581 C580 1.314 . S
N581 C584 1.279 . S
C582 C580 1.353 . S
C582 C585 1.348 . S
C582 H614 0.929 . S
C583 C584 1.358 . S
C583 C585 1.356 . S
C583 H615 0.930 . S
C584 N581 1.279 . S
C584 C583 1.358 . S
C584 H587 0.930 . S
C585 C582 1.348 . S
C585 C583 1.356 . S
H586 C580 0.930 . S
H587 C584 0.930 . S
O588 Li528 1.956 . S
O588 Li529 1.970 . S
O588 Li530 1.961 . S
O588 C532 1.325 . S
O589 Li528 1.970 . S
O589 Li529 1.956 . S
O589 Li531 1.961 . S
O589 C538 1.325 . S
O590 Li528 1.961 . S
O590 Li530 1.956 . S
O590 Li531 1.970 . S
O590 C560 1.325 . S
O591 Li529 1.961 . S
O591 Li530 1.970 . S
O591 Li531 1.956 . S
O591 C566 1.325 . S
H592 C534 0.929 . S
H593 C535 0.930 . S
H594 C536 0.930 . S
H595 C537 0.930 . S
H596 C539 0.930 . S
H597 C541 0.929 . S
H598 C542 0.930 . S
H599 C543 0.930 . S
H600 C546 0.930 . S
H601 C549 0.929 . S
H602 C554 0.929 . S
H603 C555 0.930 . S
H604 C562 0.929 . S
H605 C563 0.930 . S
H606 C564 0.930 . S
H607 C565 0.930 . S
H608 C567 0.929 . S
H609 C568 0.930 . S
H610 C569 0.930 . S
H611 C570 0.930 . S
H612 C574 0.929 . S
H613 C576 0.930 . S
H614 C582 0.929 . S
H615 C583 0.930 . S
Li616 N633 1.990 . S
Li616 O676 1.956 1_655 S
Li616 O677 1.970 . S
Li616 O678 1.961 . S
Li617 N641 1.990 . S
Li617 O676 1.970 . S
Li617 O677 1.956 1_455 S
Li617 O679 1.961 . S
Li618 N663 1.990 . S
Li618 O676 1.961 . S
Li618 O678 1.956 1_455 S
Li618 O679 1.970 . S
Li619 N669 1.990 . S
Li619 O677 1.961 . S
Li619 O678 1.970 . S
Li619 O679 1.956 1_655 S
C620 C622 1.348 . S
C620 C623 1.356 . S
C620 O676 1.325 . S
N621 C624 1.314 . S
N621 C625 1.279 . S
C622 C620 1.348 . S
C622 C624 1.353 . S
C622 H680 0.929 . S
C623 C620 1.356 . S
C623 C625 1.358 . S
C623 H681 0.930 . S
C624 N621 1.314 . S
C624 C622 1.353 . S
C624 H682 0.930 . S
C625 N621 1.279 . S
C625 C623 1.358 . S
C625 H683 0.930 . S
C626 C629 1.348 . S
C626 C630 1.356 . S
C626 O677 1.325 . S
C627 N628 1.279 . S
C627 C630 1.358 . S
C627 H684 0.930 . S
N628 C627 1.279 . S
N628 C631 1.314 . S
C629 C626 1.348 . S
C629 C631 1.353 . S
C629 H685 0.929 . S
C630 C626 1.356 . S
C630 C627 1.358 . S
C630 H686 0.930 . S
C631 N628 1.314 . S
C631 C629 1.353 . S
C631 H687 0.930 . S
C632 N633 1.314 . S
C632 C637 1.353 . S
C632 H638 0.930 . S
N633 Li616 1.990 . S
N633 C632 1.314 . S
N633 C635 1.279 . S
C634 C635 1.358 . S
C634 C636 1.356 . S
C634 H688 0.930 . S
C635 N633 1.279 . S
C635 C634 1.358 . S
C635 H639 0.930 1_655 S
C636 C634 1.356 . S
C636 C637 1.348 . S
C637 C632 1.353 . S
C637 C636 1.348 . S
C637 H689 0.929 . S
H638 C632 0.930 . S
H639 C635 0.930 1_455 S
C640 N641 1.314 . S
C640 C642 1.353 . S
C640 H646 0.930 . S
N641 Li617 1.990 . S
N641 C640 1.314 . S
N641 C644 1.279 . S
C642 C640 1.353 . S
C642 C645 1.348 . S
C642 H690 0.929 . S
C643 C644 1.358 . S
C643 C645 1.356 . S
C643 H691 0.930 . S
C644 N641 1.279 . S
C644 C643 1.358 . S
C644 H647 0.930 . S
C645 C642 1.348 . S
C645 C643 1.356 . S
H646 C640 0.930 . S
H647 C644 0.930 . S
C648 C650 1.348 . S
C648 C651 1.356 . S
C648 O678 1.325 . S
N649 C652 1.314 . S
N649 C653 1.279 . S
C650 C648 1.348 . S
C650 C652 1.353 . S
C650 H692 0.929 . S
C651 C648 1.356 . S
C651 C653 1.358 . S
C651 H693 0.930 . S
C652 N649 1.314 . S
C652 C650 1.353 . S
C652 H694 0.930 . S
C653 N649 1.279 . S
C653 C651 1.358 . S
C653 H695 0.930 . S
C654 C655 1.348 . S
C654 C656 1.356 . S
C654 O679 1.325 . S
C655 C654 1.348 . S
C655 C657 1.353 . S
C655 H696 0.929 . S
C656 C654 1.356 . S
C656 C658 1.358 . S
C656 H697 0.930 . S
C657 C655 1.353 . S
C657 N659 1.314 . S
C657 H698 0.930 . S
C658 C656 1.358 . S
C658 N659 1.279 . S
C658 H699 0.930 . S
N659 C657 1.314 . S
N659 C658 1.279 . S
C660 C662 1.353 . S
C660 N663 1.314 . S
C660 H666 0.930 . S
C661 N663 1.279 . S
C661 C664 1.358 . S
C661 H667 0.930 1_455 S
C662 C660 1.353 . S
C662 C665 1.348 . S
C662 H700 0.929 . S
N663 Li618 1.990 . S
N663 C660 1.314 . S
N663 C661 1.279 . S
C664 C661 1.358 . S
C664 C665 1.356 . S
C664 H701 0.930 . S
C665 C662 1.348 . S
C665 C664 1.356 . S
H666 C660 0.930 . S
H667 C661 0.930 1_655 S
C668 N669 1.314 . S
C668 C670 1.353 . S
C668 H674 0.930 . S
N669 Li619 1.990 . S
N669 C668 1.314 . S
N669 C672 1.279 . S
C670 C668 1.353 . S
C670 C673 1.348 . S
C670 H702 0.929 . S
C671 C672 1.358 . S
C671 C673 1.356 . S
C671 H703 0.930 . S
C672 N669 1.279 . S
C672 C671 1.358 . S
C672 H675 0.930 . S
C673 C670 1.348 . S
C673 C671 1.356 . S
H674 C668 0.930 . S
H675 C672 0.930 . S
O676 Li616 1.956 1_455 S
O676 Li617 1.970 . S
O676 Li618 1.961 . S
O676 C620 1.325 . S
O677 Li616 1.970 . S
O677 Li617 1.956 1_655 S
O677 Li619 1.961 . S
O677 C626 1.325 . S
O678 Li616 1.961 . S
O678 Li618 1.956 1_655 S
O678 Li619 1.970 . S
O678 C648 1.325 . S
O679 Li617 1.961 . S
O679 Li618 1.970 . S
O679 Li619 1.956 1_455 S
O679 C654 1.325 . S
H680 C622 0.929 . S
H681 C623 0.930 . S
H682 C624 0.930 . S
H683 C625 0.930 . S
H684 C627 0.930 . S
H685 C629 0.929 . S
H686 C630 0.930 . S
H687 C631 0.930 . S
H688 C634 0.930 . S
H689 C637 0.929 . S
H690 C642 0.929 . S
H691 C643 0.930 . S
H692 C650 0.929 . S
H693 C651 0.930 . S
H694 C652 0.930 . S
H695 C653 0.930 . S
H696 C655 0.929 . S
H697 C656 0.930 . S
H698 C657 0.930 . S
H699 C658 0.930 . S
H700 C662 0.929 . S
H701 C664 0.930 . S
H702 C670 0.929 . S
H703 C671 0.930 . S
Li704 N721 1.990 . S
Li704 O764 1.956 . S
Li704 O765 1.970 . S
Li704 O766 1.961 1_545 S
Li705 N729 1.990 . S
Li705 O764 1.970 . S
Li705 O765 1.956 . S
Li705 O767 1.961 1_545 S
Li706 N751 1.990 . S
Li706 O764 1.961 1_565 S
Li706 O766 1.956 . S
Li706 O767 1.970 . S
Li707 N757 1.990 . S
Li707 O765 1.961 1_565 S
Li707 O766 1.970 . S
Li707 O767 1.956 . S
C708 C710 1.348 . S
C708 C711 1.356 . S
C708 O764 1.325 . S
N709 C712 1.314 . S
N709 C713 1.279 . S
C710 C708 1.348 . S
C710 C712 1.353 . S
C710 H768 0.929 . S
C711 C708 1.356 . S
C711 C713 1.358 . S
C711 H769 0.930 . S
C712 N709 1.314 . S
C712 C710 1.353 . S
C712 H770 0.930 . S
C713 N709 1.279 . S
C713 C711 1.358 . S
C713 H771 0.930 . S
C714 C717 1.348 . S
C714 C718 1.356 . S
C714 O765 1.325 . S
C715 N716 1.279 . S
C715 C718 1.358 . S
C715 H772 0.930 . S
N716 C715 1.279 . S
N716 C719 1.314 . S
C717 C714 1.348 . S
C717 C719 1.353 . S
C717 H773 0.929 . S
C718 C714 1.356 . S
C718 C715 1.358 . S
C718 H774 0.930 . S
C719 N716 1.314 . S
C719 C717 1.353 . S
C719 H775 0.930 . S
C720 N721 1.314 . S
C720 C725 1.353 . S
C720 H726 0.930 . S
N721 Li704 1.990 . S
N721 C720 1.314 . S
N721 C723 1.279 . S
C722 C723 1.358 . S
C722 C724 1.356 . S
C722 H776 0.930 . S
C723 N721 1.279 . S
C723 C722 1.358 . S
C723 H727 0.930 . S
C724 C722 1.356 . S
C724 C725 1.348 . S
C725 C720 1.353 . S
C725 C724 1.348 . S
C725 H777 0.929 . S
H726 C720 0.930 . S
H727 C723 0.930 . S
C728 N729 1.314 . S
C728 C730 1.353 . S
C728 H734 0.930 1_545 S
N729 Li705 1.990 . S
N729 C728 1.314 . S
N729 C732 1.279 . S
C730 C728 1.353 . S
C730 C733 1.348 . S
C730 H778 0.929 . S
C731 C732 1.358 . S
C731 C733 1.356 . S
C731 H779 0.930 . S
C732 N729 1.279 . S
C732 C731 1.358 . S
C732 H735 0.930 . S
C733 C730 1.348 . S
C733 C731 1.356 . S
H734 C728 0.930 1_565 S
H735 C732 0.930 . S
C736 C738 1.348 . S
C736 C739 1.356 . S
C736 O766 1.325 . S
N737 C740 1.314 . S
N737 C741 1.279 . S
C738 C736 1.348 . S
C738 C740 1.353 . S
C738 H780 0.929 . S
C739 C736 1.356 . S
C739 C741 1.358 . S
C739 H781 0.930 . S
C740 N737 1.314 . S
C740 C738 1.353 . S
C740 H782 0.930 . S
C741 N737 1.279 . S
C741 C739 1.358 . S
C741 H783 0.930 . S
C742 C743 1.348 . S
C742 C744 1.356 . S
C742 O767 1.325 . S
C743 C742 1.348 . S
C743 C745 1.353 . S
C743 H784 0.929 . S
C744 C742 1.356 . S
C744 C746 1.358 . S
C744 H785 0.930 . S
C745 C743 1.353 . S
C745 N747 1.314 . S
C745 H786 0.930 . S
C746 C744 1.358 . S
C746 N747 1.279 . S
C746 H787 0.930 . S
N747 C745 1.314 . S
N747 C746 1.279 . S
C748 C750 1.353 . S
C748 N751 1.314 . S
C748 H754 0.930 . S
C749 N751 1.279 . S
C749 C752 1.358 . S
C749 H755 0.930 . S
C750 C748 1.353 . S
C750 C753 1.348 . S
C750 H788 0.929 . S
N751 Li706 1.990 . S
N751 C748 1.314 . S
N751 C749 1.279 . S
C752 C749 1.358 . S
C752 C753 1.356 . S
C752 H789 0.930 . S
C753 C750 1.348 . S
C753 C752 1.356 . S
H754 C748 0.930 . S
H755 C749 0.930 . S
C756 N757 1.314 . S
C756 C758 1.353 . S
C756 H762 0.930 1_565 S
N757 Li707 1.990 . S
N757 C756 1.314 . S
N757 C760 1.279 . S
C758 C756 1.353 . S
C758 C761 1.348 . S
C758 H790 0.929 . S
C759 C760 1.358 . S
C759 C761 1.356 . S
C759 H791 0.930 . S
C760 N757 1.279 . S
C760 C759 1.358 . S
C760 H763 0.930 . S
C761 C758 1.348 . S
C761 C759 1.356 . S
H762 C756 0.930 1_545 S
H763 C760 0.930 . S
O764 Li704 1.956 . S
O764 Li705 1.970 . S
O764 Li706 1.961 1_545 S
O764 C708 1.325 . S
O765 Li704 1.970 . S
O765 Li705 1.956 . S
O765 Li707 1.961 1_545 S
O765 C714 1.325 . S
O766 Li704 1.961 1_565 S
O766 Li706 1.956 . S
O766 Li707 1.970 . S
O766 C736 1.325 . S
O767 Li705 1.961 1_565 S
O767 Li706 1.970 . S
O767 Li707 1.956 . S
O767 C742 1.325 . S
H768 C710 0.929 . S
H769 C711 0.930 . S
H770 C712 0.930 . S
H771 C713 0.930 . S
H772 C715 0.930 . S
H773 C717 0.929 . S
H774 C718 0.930 . S
H775 C719 0.930 . S
H776 C722 0.930 . S
H777 C725 0.929 . S
H778 C730 0.929 . S
H779 C731 0.930 . S
H780 C738 0.929 . S
H781 C739 0.930 . S
H782 C740 0.930 . S
H783 C741 0.930 . S
H784 C743 0.929 . S
H785 C744 0.930 . S
H786 C745 0.930 . S
H787 C746 0.930 . S
H788 C750 0.929 . S
H789 C752 0.930 . S
H790 C758 0.929 . S
H791 C759 0.930 . S
Li792 N809 1.990 . S
Li792 O852 1.956 . S
Li792 O853 1.970 . S
Li792 O854 1.961 . S
Li793 N817 1.990 . S
Li793 O852 1.970 . S
Li793 O853 1.956 . S
Li793 O855 1.961 . S
Li794 N839 1.990 . S
Li794 O852 1.961 . S
Li794 O854 1.956 . S
Li794 O855 1.970 . S
Li795 N845 1.990 . S
Li795 O853 1.961 . S
Li795 O854 1.970 . S
Li795 O855 1.956 . S
C796 C798 1.348 . S
C796 C799 1.356 . S
C796 O852 1.325 . S
N797 C800 1.314 . S
N797 C801 1.279 . S
C798 C796 1.348 . S
C798 C800 1.353 . S
C798 H856 0.929 . S
C799 C796 1.356 . S
C799 C801 1.358 . S
C799 H857 0.930 . S
C800 N797 1.314 . S
C800 C798 1.353 . S
C800 H858 0.930 . S
C801 N797 1.279 . S
C801 C799 1.358 . S
C801 H859 0.930 . S
C802 C805 1.348 . S
C802 C806 1.356 . S
C802 O853 1.325 . S
C803 N804 1.279 . S
C803 C806 1.358 . S
C803 H860 0.930 . S
N804 C803 1.279 . S
N804 C807 1.314 . S
C805 C802 1.348 . S
C805 C807 1.353 . S
C805 H861 0.929 . S
C806 C802 1.356 . S
C806 C803 1.358 . S
C806 H862 0.930 . S
C807 N804 1.314 . S
C807 C805 1.353 . S
C807 H863 0.930 . S
C808 N809 1.314 . S
C808 C813 1.353 . S
C808 H814 0.930 . S
N809 Li792 1.990 . S
N809 C808 1.314 . S
N809 C811 1.279 . S
C810 C811 1.358 . S
C810 C812 1.356 . S
C810 H864 0.930 . S
C811 N809 1.279 . S
C811 C810 1.358 . S
C811 H815 0.930 . S
C812 C810 1.356 . S
C812 C813 1.348 . S
C813 C808 1.353 . S
C813 C812 1.348 . S
C813 H865 0.929 . S
H814 C808 0.930 . S
H815 C811 0.930 . S
C816 N817 1.314 . S
C816 C818 1.353 . S
C816 H822 0.930 . S
N817 Li793 1.990 . S
N817 C816 1.314 . S
N817 C820 1.279 . S
C818 C816 1.353 . S
C818 C821 1.348 . S
C818 H866 0.929 . S
C819 C820 1.358 . S
C819 C821 1.356 . S
C819 H867 0.930 . S
C820 N817 1.279 . S
C820 C819 1.358 . S
C820 H823 0.930 . S
C821 C818 1.348 . S
C821 C819 1.356 . S
H822 C816 0.930 . S
H823 C820 0.930 . S
C824 C826 1.348 . S
C824 C827 1.356 . S
C824 O854 1.325 . S
N825 C828 1.314 . S
N825 C829 1.279 . S
C826 C824 1.348 . S
C826 C828 1.353 . S
C826 H868 0.929 . S
C827 C824 1.356 . S
C827 C829 1.358 . S
C827 H869 0.930 . S
C828 N825 1.314 . S
C828 C826 1.353 . S
C828 H870 0.930 . S
C829 N825 1.279 . S
C829 C827 1.358 . S
C829 H871 0.930 . S
C830 C831 1.348 . S
C830 C832 1.356 . S
C830 O855 1.325 . S
C831 C830 1.348 . S
C831 C833 1.353 . S
C831 H872 0.929 . S
C832 C830 1.356 . S
C832 C834 1.358 . S
C832 H873 0.930 . S
C833 C831 1.353 . S
C833 N835 1.314 . S
C833 H874 0.930 . S
C834 C832 1.358 . S
C834 N835 1.279 . S
C834 H875 0.930 . S
N835 C833 1.314 . S
N835 C834 1.279 . S
C836 C838 1.353 . S
C836 N839 1.314 . S
C836 H842 0.930 . S
C837 N839 1.279 . S
C837 C840 1.358 . S
C837 H843 0.930 . S
C838 C836 1.353 . S
C838 C841 1.348 . S
C838 H876 0.929 . S
N839 Li794 1.990 . S
N839 C836 1.314 . S
N839 C837 1.279 . S
C840 C837 1.358 . S
C840 C841 1.356 . S
C840 H877 0.930 . S
C841 C838 1.348 . S
C841 C840 1.356 . S
H842 C836 0.930 . S
H843 C837 0.930 . S
C844 N845 1.314 . S
C844 C846 1.353 . S
C844 H850 0.930 . S
N845 Li795 1.990 . S
N845 C844 1.314 . S
N845 C848 1.279 . S
C846 C844 1.353 . S
C846 C849 1.348 . S
C846 H878 0.929 . S
C847 C848 1.358 . S
C847 C849 1.356 . S
C847 H879 0.930 . S
C848 N845 1.279 . S
C848 C847 1.358 . S
C848 H851 0.930 . S
C849 C846 1.348 . S
C849 C847 1.356 . S
H850 C844 0.930 . S
H851 C848 0.930 . S
O852 Li792 1.956 . S
O852 Li793 1.970 . S
O852 Li794 1.961 . S
O852 C796 1.325 . S
O853 Li792 1.970 . S
O853 Li793 1.956 . S
O853 Li795 1.961 . S
O853 C802 1.325 . S
O854 Li792 1.961 . S
O854 Li794 1.956 . S
O854 Li795 1.970 . S
O854 C824 1.325 . S
O855 Li793 1.961 . S
O855 Li794 1.970 . S
O855 Li795 1.956 . S
O855 C830 1.325 . S
H856 C798 0.929 . S
H857 C799 0.930 . S
H858 C800 0.930 . S
H859 C801 0.930 . S
H860 C803 0.930 . S
H861 C805 0.929 . S
H862 C806 0.930 . S
H863 C807 0.930 . S
H864 C810 0.930 . S
H865 C813 0.929 . S
H866 C818 0.929 . S
H867 C819 0.930 . S
H868 C826 0.929 . S
H869 C827 0.930 . S
H870 C828 0.930 . S
H871 C829 0.930 . S
H872 C831 0.929 . S
H873 C832 0.930 . S
H874 C833 0.930 . S
H875 C834 0.930 . S
H876 C838 0.929 . S
H877 C840 0.930 . S
H878 C846 0.929 . S
H879 C847 0.930 . S
Li880 N897 1.990 . S
Li880 O940 1.956 . S
Li880 O941 1.970 . S
Li880 O942 1.961 1_545 S
Li881 N905 1.990 . S
Li881 O940 1.970 . S
Li881 O941 1.956 . S
Li881 O943 1.961 1_545 S
Li882 N927 1.990 . S
Li882 O940 1.961 1_565 S
Li882 O942 1.956 . S
Li882 O943 1.970 . S
Li883 N933 1.990 . S
Li883 O941 1.961 1_565 S
Li883 O942 1.970 . S
Li883 O943 1.956 . S
C884 C886 1.348 . S
C884 C887 1.356 . S
C884 O940 1.325 . S
N885 C888 1.314 . S
N885 C889 1.279 . S
C886 C884 1.348 . S
C886 C888 1.353 . S
C886 H944 0.929 . S
C887 C884 1.356 . S
C887 C889 1.358 . S
C887 H945 0.930 . S
C888 N885 1.314 . S
C888 C886 1.353 . S
C888 H946 0.930 . S
C889 N885 1.279 . S
C889 C887 1.358 . S
C889 H947 0.930 . S
C890 C893 1.348 . S
C890 C894 1.356 . S
C890 O941 1.325 . S
C891 N892 1.279 . S
C891 C894 1.358 . S
C891 H948 0.930 . S
N892 C891 1.279 . S
N892 C895 1.314 . S
C893 C890 1.348 . S
C893 C895 1.353 . S
C893 H949 0.929 . S
C894 C890 1.356 . S
C894 C891 1.358 . S
C894 H950 0.930 . S
C895 N892 1.314 . S
C895 C893 1.353 . S
C895 H951 0.930 . S
C896 N897 1.314 . S
C896 C901 1.353 . S
C896 H902 0.930 1_545 S
N897 Li880 1.990 . S
N897 C896 1.314 . S
N897 C899 1.279 . S
C898 C899 1.358 . S
C898 C900 1.356 . S
C898 H952 0.930 . S
C899 N897 1.279 . S
C899 C898 1.358 . S
C899 H903 0.930 . S
C900 C898 1.356 . S
C900 C901 1.348 . S
C901 C896 1.353 . S
C901 C900 1.348 . S
C901 H953 0.929 . S
H902 C896 0.930 1_565 S
H903 C899 0.930 . S
C904 N905 1.314 . S
C904 C906 1.353 . S
C904 H910 0.930 . S
N905 Li881 1.990 . S
N905 C904 1.314 . S
N905 C908 1.279 . S
C906 C904 1.353 . S
C906 C909 1.348 . S
C906 H954 0.929 . S
C907 C908 1.358 . S
C907 C909 1.356 . S
C907 H955 0.930 . S
C908 N905 1.279 . S
C908 C907 1.358 . S
C908 H911 0.930 . S
C909 C906 1.348 . S
C909 C907 1.356 . S
H910 C904 0.930 . S
H911 C908 0.930 . S
C912 C914 1.348 . S
C912 C915 1.356 . S
C912 O942 1.325 . S
N913 C916 1.314 . S
N913 C917 1.279 . S
C914 C912 1.348 . S
C914 C916 1.353 . S
C914 H956 0.929 . S
C915 C912 1.356 . S
C915 C917 1.358 . S
C915 H957 0.930 . S
C916 N913 1.314 . S
C916 C914 1.353 . S
C916 H958 0.930 . S
C917 N913 1.279 . S
C917 C915 1.358 . S
C917 H959 0.930 . S
C918 C919 1.348 . S
C918 C920 1.356 . S
C918 O943 1.325 . S
C919 C918 1.348 . S
C919 C921 1.353 . S
C919 H960 0.929 . S
C920 C918 1.356 . S
C920 C922 1.358 . S
C920 H961 0.930 . S
C921 C919 1.353 . S
C921 N923 1.314 . S
C921 H962 0.930 . S
C922 C920 1.358 . S
C922 N923 1.279 . S
C922 H963 0.930 . S
N923 C921 1.314 . S
N923 C922 1.279 . S
C924 C926 1.353 . S
C924 N927 1.314 . S
C924 H930 0.930 1_565 S
C925 N927 1.279 . S
C925 C928 1.358 . S
C925 H931 0.930 . S
C926 C924 1.353 . S
C926 C929 1.348 . S
C926 H964 0.929 . S
N927 Li882 1.990 . S
N927 C924 1.314 . S
N927 C925 1.279 . S
C928 C925 1.358 . S
C928 C929 1.356 . S
C928 H965 0.930 . S
C929 C926 1.348 . S
C929 C928 1.356 . S
H930 C924 0.930 1_545 S
H931 C925 0.930 . S
C932 N933 1.314 . S
C932 C934 1.353 . S
C932 H938 0.930 . S
N933 Li883 1.990 . S
N933 C932 1.314 . S
N933 C936 1.279 . S
C934 C932 1.353 . S
C934 C937 1.348 . S
C934 H966 0.929 . S
C935 C936 1.358 . S
C935 C937 1.356 . S
C935 H967 0.930 . S
C936 N933 1.279 . S
C936 C935 1.358 . S
C936 H939 0.930 . S
C937 C934 1.348 . S
C937 C935 1.356 . S
H938 C932 0.930 . S
H939 C936 0.930 . S
O940 Li880 1.956 . S
O940 Li881 1.970 . S
O940 Li882 1.961 1_545 S
O940 C884 1.325 . S
O941 Li880 1.970 . S
O941 Li881 1.956 . S
O941 Li883 1.961 1_545 S
O941 C890 1.325 . S
O942 Li880 1.961 1_565 S
O942 Li882 1.956 . S
O942 Li883 1.970 . S
O942 C912 1.325 . S
O943 Li881 1.961 1_565 S
O943 Li882 1.970 . S
O943 Li883 1.956 . S
O943 C918 1.325 . S
H944 C886 0.929 . S
H945 C887 0.930 . S
H946 C888 0.930 . S
H947 C889 0.930 . S
H948 C891 0.930 . S
H949 C893 0.929 . S
H950 C894 0.930 . S
H951 C895 0.930 . S
H952 C898 0.930 . S
H953 C901 0.929 . S
H954 C906 0.929 . S
H955 C907 0.930 . S
H956 C914 0.929 . S
H957 C915 0.930 . S
H958 C916 0.930 . S
H959 C917 0.930 . S
H960 C919 0.929 . S
H961 C920 0.930 . S
H962 C921 0.930 . S
H963 C922 0.930 . S
H964 C926 0.929 . S
H965 C928 0.930 . S
H966 C934 0.929 . S
H967 C935 0.930 . S
Li968 N985 1.990 . S
Li968 O1028 1.956 1_556 S
Li968 O1029 1.970 . S
Li968 O1030 1.961 . S
Li969 N993 1.990 . S
Li969 O1028 1.970 . S
Li969 O1029 1.956 1_554 S
Li969 O1031 1.961 . S
Li970 N1015 1.990 . S
Li970 O1028 1.961 . S
Li970 O1030 1.956 1_554 S
Li970 O1031 1.970 . S
Li971 N1021 1.990 . S
Li971 O1029 1.961 . S
Li971 O1030 1.970 . S
Li971 O1031 1.956 1_556 S
C972 C974 1.348 . S
C972 C975 1.356 . S
C972 O1028 1.325 . S
N973 C976 1.314 . S
N973 C977 1.279 . S
C974 C972 1.348 . S
C974 C976 1.353 . S
C974 H1032 0.929 . S
C975 C972 1.356 . S
C975 C977 1.358 . S
C975 H1033 0.930 . S
C976 N973 1.314 . S
C976 C974 1.353 . S
C976 H1034 0.930 . S
C977 N973 1.279 . S
C977 C975 1.358 . S
C977 H1035 0.930 . S
C978 C981 1.348 . S
C978 C982 1.356 . S
C978 O1029 1.325 . S
C979 N980 1.279 . S
C979 C982 1.358 . S
C979 H1036 0.930 . S
N980 C979 1.279 . S
N980 C983 1.314 . S
C981 C978 1.348 . S
C981 C983 1.353 . S
C981 H1037 0.929 . S
C982 C978 1.356 . S
C982 C979 1.358 . S
C982 H1038 0.930 . S
C983 N980 1.314 . S
C983 C981 1.353 . S
C983 H1039 0.930 . S
C984 N985 1.314 . S
C984 C989 1.353 . S
C984 H990 0.930 . S
N985 Li968 1.990 . S
N985 C984 1.314 . S
N985 C987 1.279 . S
C986 C987 1.358 . S
C986 C988 1.356 . S
C986 H1040 0.930 . S
C987 N985 1.279 . S
C987 C986 1.358 . S
C987 H991 0.930 1_556 S
C988 C986 1.356 . S
C988 C989 1.348 . S
C989 C984 1.353 . S
C989 C988 1.348 . S
C989 H1041 0.929 . S
H990 C984 0.930 . S
H991 C987 0.930 1_554 S
C992 N993 1.314 . S
C992 C994 1.353 . S
C992 H998 0.930 . S
N993 Li969 1.990 . S
N993 C992 1.314 . S
N993 C996 1.279 . S
C994 C992 1.353 . S
C994 C997 1.348 . S
C994 H1042 0.929 . S
C995 C996 1.358 . S
C995 C997 1.356 . S
C995 H1043 0.930 . S
C996 N993 1.279 . S
C996 C995 1.358 . S
C996 H999 0.930 . S
C997 C994 1.348 . S
C997 C995 1.356 . S
H998 C992 0.930 . S
H999 C996 0.930 . S
C1000 C1002 1.348 . S
C1000 C1003 1.356 . S
C1000 O1030 1.325 . S
N1001 C1004 1.314 . S
N1001 C1005 1.279 . S
C1002 C1000 1.348 . S
C1002 C1004 1.353 . S
C1002 H1044 0.929 . S
C1003 C1000 1.356 . S
C1003 C1005 1.358 . S
C1003 H1045 0.930 . S
C1004 N1001 1.314 . S
C1004 C1002 1.353 . S
C1004 H1046 0.930 . S
C1005 N1001 1.279 . S
C1005 C1003 1.358 . S
C1005 H1047 0.930 . S
C1006 C1007 1.348 . S
C1006 C1008 1.356 . S
C1006 O1031 1.325 . S
C1007 C1006 1.348 . S
C1007 C1009 1.353 . S
C1007 H1048 0.929 . S
C1008 C1006 1.356 . S
C1008 C1010 1.358 . S
C1008 H1049 0.930 . S
C1009 C1007 1.353 . S
C1009 N1011 1.314 . S
C1009 H1050 0.930 . S
C1010 C1008 1.358 . S
C1010 N1011 1.279 . S
C1010 H1051 0.930 . S
N1011 C1009 1.314 . S
N1011 C1010 1.279 . S
C1012 C1014 1.353 . S
C1012 N1015 1.314 . S
C1012 H1018 0.930 . S
C1013 N1015 1.279 . S
C1013 C1016 1.358 . S
C1013 H1019 0.930 1_554 S
C1014 C1012 1.353 . S
C1014 C1017 1.348 . S
C1014 H1052 0.929 . S
N1015 Li970 1.990 . S
N1015 C1012 1.314 . S
N1015 C1013 1.279 . S
C1016 C1013 1.358 . S
C1016 C1017 1.356 . S
C1016 H1053 0.930 . S
C1017 C1014 1.348 . S
C1017 C1016 1.356 . S
H1018 C1012 0.930 . S
H1019 C1013 0.930 1_556 S
C1020 N1021 1.314 . S
C1020 C1022 1.353 . S
C1020 H1026 0.930 . S
N1021 Li971 1.990 . S
N1021 C1020 1.314 . S
N1021 C1024 1.279 . S
C1022 C1020 1.353 . S
C1022 C1025 1.348 . S
C1022 H1054 0.929 . S
C1023 C1024 1.358 . S
C1023 C1025 1.356 . S
C1023 H1055 0.930 . S
C1024 N1021 1.279 . S
C1024 C1023 1.358 . S
C1024 H1027 0.930 . S
C1025 C1022 1.348 . S
C1025 C1023 1.356 . S
H1026 C1020 0.930 . S
H1027 C1024 0.930 . S
O1028 Li968 1.956 1_554 S
O1028 Li969 1.970 . S
O1028 Li970 1.961 . S
O1028 C972 1.325 . S
O1029 Li968 1.970 . S
O1029 Li969 1.956 1_556 S
O1029 Li971 1.961 . S
O1029 C978 1.325 . S
O1030 Li968 1.961 . S
O1030 Li970 1.956 1_556 S
O1030 Li971 1.970 . S
O1030 C1000 1.325 . S
O1031 Li969 1.961 . S
O1031 Li970 1.970 . S
O1031 Li971 1.956 1_554 S
O1031 C1006 1.325 . S
H1032 C974 0.929 . S
H1033 C975 0.930 . S
H1034 C976 0.930 . S
H1035 C977 0.930 . S
H1036 C979 0.930 . S
H1037 C981 0.929 . S
H1038 C982 0.930 . S
H1039 C983 0.930 . S
H1040 C986 0.930 . S
H1041 C989 0.929 . S
H1042 C994 0.929 . S
H1043 C995 0.930 . S
H1044 C1002 0.929 . S
H1045 C1003 0.930 . S
H1046 C1004 0.930 . S
H1047 C1005 0.930 . S
H1048 C1007 0.929 . S
H1049 C1008 0.930 . S
H1050 C1009 0.930 . S
H1051 C1010 0.930 . S
H1052 C1014 0.929 . S
H1053 C1016 0.930 . S
H1054 C1022 0.929 . S
H1055 C1023 0.930 . S
Li1056 N1073 1.990 . S
Li1056 O1116 1.956 . S
Li1056 O1117 1.970 . S
Li1056 O1118 1.961 1_554 S
Li1057 N1081 1.990 . S
Li1057 O1116 1.970 . S
Li1057 O1117 1.956 . S
Li1057 O1119 1.961 1_554 S
Li1058 N1103 1.990 . S
Li1058 O1116 1.961 1_556 S
Li1058 O1118 1.956 . S
Li1058 O1119 1.970 . S
Li1059 N1109 1.990 . S
Li1059 O1117 1.961 1_556 S
Li1059 O1118 1.970 . S
Li1059 O1119 1.956 . S
C1060 C1062 1.348 . S
C1060 C1063 1.356 . S
C1060 O1116 1.325 . S
N1061 C1064 1.314 . S
N1061 C1065 1.279 . S
C1062 C1060 1.348 . S
C1062 C1064 1.353 . S
C1062 H1120 0.929 . S
C1063 C1060 1.356 . S
C1063 C1065 1.358 . S
C1063 H1121 0.930 . S
C1064 N1061 1.314 . S
C1064 C1062 1.353 . S
C1064 H1122 0.930 . S
C1065 N1061 1.279 . S
C1065 C1063 1.358 . S
C1065 H1123 0.930 . S
C1066 C1069 1.348 . S
C1066 C1070 1.356 . S
C1066 O1117 1.325 . S
C1067 N1068 1.279 . S
C1067 C1070 1.358 . S
C1067 H1124 0.930 . S
N1068 C1067 1.279 . S
N1068 C1071 1.314 . S
C1069 C1066 1.348 . S
C1069 C1071 1.353 . S
C1069 H1125 0.929 . S
C1070 C1066 1.356 . S
C1070 C1067 1.358 . S
C1070 H1126 0.930 . S
C1071 N1068 1.314 . S
C1071 C1069 1.353 . S
C1071 H1127 0.930 . S
C1072 N1073 1.314 . S
C1072 C1077 1.353 . S
C1072 H1078 0.930 . S
N1073 Li1056 1.990 . S
N1073 C1072 1.314 . S
N1073 C1075 1.279 . S
C1074 C1075 1.358 . S
C1074 C1076 1.356 . S
C1074 H1128 0.930 . S
C1075 N1073 1.279 . S
C1075 C1074 1.358 . S
C1075 H1079 0.930 . S
C1076 C1074 1.356 . S
C1076 C1077 1.348 . S
C1077 C1072 1.353 . S
C1077 C1076 1.348 . S
C1077 H1129 0.929 . S
H1078 C1072 0.930 . S
H1079 C1075 0.930 . S
C1080 N1081 1.314 . S
C1080 C1082 1.353 . S
C1080 H1086 0.930 1_554 S
N1081 Li1057 1.990 . S
N1081 C1080 1.314 . S
N1081 C1084 1.279 . S
C1082 C1080 1.353 . S
C1082 C1085 1.348 . S
C1082 H1130 0.929 . S
C1083 C1084 1.358 . S
C1083 C1085 1.356 . S
C1083 H1131 0.930 . S
C1084 N1081 1.279 . S
C1084 C1083 1.358 . S
C1084 H1087 0.930 . S
C1085 C1082 1.348 . S
C1085 C1083 1.356 . S
H1086 C1080 0.930 1_556 S
H1087 C1084 0.930 . S
C1088 C1090 1.348 . S
C1088 C1091 1.356 . S
C1088 O1118 1.325 . S
N1089 C1092 1.314 . S
N1089 C1093 1.279 . S
C1090 C1088 1.348 . S
C1090 C1092 1.353 . S
C1090 H1132 0.929 . S
C1091 C1088 1.356 . S
C1091 C1093 1.358 . S
C1091 H1133 0.930 . S
C1092 N1089 1.314 . S
C1092 C1090 1.353 . S
C1092 H1134 0.930 . S
C1093 N1089 1.279 . S
C1093 C1091 1.358 . S
C1093 H1135 0.930 . S
C1094 C1095 1.348 . S
C1094 C1096 1.356 . S
C1094 O1119 1.325 . S
C1095 C1094 1.348 . S
C1095 C1097 1.353 . S
C1095 H1136 0.929 . S
C1096 C1094 1.356 . S
C1096 C1098 1.358 . S
C1096 H1137 0.930 . S
C1097 C1095 1.353 . S
C1097 N1099 1.314 . S
C1097 H1138 0.930 . S
C1098 C1096 1.358 . S
C1098 N1099 1.279 . S
C1098 H1139 0.930 . S
N1099 C1097 1.314 . S
N1099 C1098 1.279 . S
C1100 C1102 1.353 . S
C1100 N1103 1.314 . S
C1100 H1106 0.930 . S
C1101 N1103 1.279 . S
C1101 C1104 1.358 . S
C1101 H1107 0.930 . S
C1102 C1100 1.353 . S
C1102 C1105 1.348 . S
C1102 H1140 0.929 . S
N1103 Li1058 1.990 . S
N1103 C1100 1.314 . S
N1103 C1101 1.279 . S
C1104 C1101 1.358 . S
C1104 C1105 1.356 . S
C1104 H1141 0.930 . S
C1105 C1102 1.348 . S
C1105 C1104 1.356 . S
H1106 C1100 0.930 . S
H1107 C1101 0.930 . S
C1108 N1109 1.314 . S
C1108 C1110 1.353 . S
C1108 H1114 0.930 1_556 S
N1109 Li1059 1.990 . S
N1109 C1108 1.314 . S
N1109 C1112 1.279 . S
C1110 C1108 1.353 . S
C1110 C1113 1.348 . S
C1110 H1142 0.929 . S
C1111 C1112 1.358 . S
C1111 C1113 1.356 . S
C1111 H1143 0.930 . S
C1112 N1109 1.279 . S
C1112 C1111 1.358 . S
C1112 H1115 0.930 . S
C1113 C1110 1.348 . S
C1113 C1111 1.356 . S
H1114 C1108 0.930 1_554 S
H1115 C1112 0.930 . S
O1116 Li1056 1.956 . S
O1116 Li1057 1.970 . S
O1116 Li1058 1.961 1_554 S
O1116 C1060 1.325 . S
O1117 Li1056 1.970 . S
O1117 Li1057 1.956 . S
O1117 Li1059 1.961 1_554 S
O1117 C1066 1.325 . S
O1118 Li1056 1.961 1_556 S
O1118 Li1058 1.956 . S
O1118 Li1059 1.970 . S
O1118 C1088 1.325 . S
O1119 Li1057 1.961 1_556 S
O1119 Li1058 1.970 . S
O1119 Li1059 1.956 . S
O1119 C1094 1.325 . S
H1120 C1062 0.929 . S
H1121 C1063 0.930 . S
H1122 C1064 0.930 . S
H1123 C1065 0.930 . S
H1124 C1067 0.930 . S
H1125 C1069 0.929 . S
H1126 C1070 0.930 . S
H1127 C1071 0.930 . S
H1128 C1074 0.930 . S
H1129 C1077 0.929 . S
H1130 C1082 0.929 . S
H1131 C1083 0.930 . S
H1132 C1090 0.929 . S
H1133 C1091 0.930 . S
H1134 C1092 0.930 . S
H1135 C1093 0.930 . S
H1136 C1095 0.929 . S
H1137 C1096 0.930 . S
H1138 C1097 0.930 . S
H1139 C1098 0.930 . S
H1140 C1102 0.929 . S
H1141 C1104 0.930 . S
H1142 C1110 0.929 . S
H1143 C1111 0.930 . S
Li1144 N1161 1.990 . S
Li1144 O1204 1.956 . S
Li1144 O1205 1.970 . S
Li1144 O1206 1.961 1_554 S
Li1145 N1169 1.990 . S
Li1145 O1204 1.970 . S
Li1145 O1205 1.956 . S
Li1145 O1207 1.961 1_554 S
Li1146 N1191 1.990 . S
Li1146 O1204 1.961 1_556 S
Li1146 O1206 1.956 . S
Li1146 O1207 1.970 . S
Li1147 N1197 1.990 . S
Li1147 O1205 1.961 1_556 S
Li1147 O1206 1.970 . S
Li1147 O1207 1.956 . S
C1148 C1150 1.348 . S
C1148 C1151 1.356 . S
C1148 O1204 1.325 . S
N1149 C1152 1.314 . S
N1149 C1153 1.279 . S
C1150 C1148 1.348 . S
C1150 C1152 1.353 . S
C1150 H1208 0.929 . S
C1151 C1148 1.356 . S
C1151 C1153 1.358 . S
C1151 H1209 0.930 . S
C1152 N1149 1.314 . S
C1152 C1150 1.353 . S
C1152 H1210 0.930 . S
C1153 N1149 1.279 . S
C1153 C1151 1.358 . S
C1153 H1211 0.930 . S
C1154 C1157 1.348 . S
C1154 C1158 1.356 . S
C1154 O1205 1.325 . S
C1155 N1156 1.279 . S
C1155 C1158 1.358 . S
C1155 H1212 0.930 . S
N1156 C1155 1.279 . S
N1156 C1159 1.314 . S
C1157 C1154 1.348 . S
C1157 C1159 1.353 . S
C1157 H1213 0.929 . S
C1158 C1154 1.356 . S
C1158 C1155 1.358 . S
C1158 H1214 0.930 . S
C1159 N1156 1.314 . S
C1159 C1157 1.353 . S
C1159 H1215 0.930 . S
C1160 N1161 1.314 . S
C1160 C1165 1.353 . S
C1160 H1166 0.930 1_554 S
N1161 Li1144 1.990 . S
N1161 C1160 1.314 . S
N1161 C1163 1.279 . S
C1162 C1163 1.358 . S
C1162 C1164 1.356 . S
C1162 H1216 0.930 . S
C1163 N1161 1.279 . S
C1163 C1162 1.358 . S
C1163 H1167 0.930 . S
C1164 C1162 1.356 . S
C1164 C1165 1.348 . S
C1165 C1160 1.353 . S
C1165 C1164 1.348 . S
C1165 H1217 0.929 . S
H1166 C1160 0.930 1_556 S
H1167 C1163 0.930 . S
C1168 N1169 1.314 . S
C1168 C1170 1.353 . S
C1168 H1174 0.930 . S
N1169 Li1145 1.990 . S
N1169 C1168 1.314 . S
N1169 C1172 1.279 . S
C1170 C1168 1.353 . S
C1170 C1173 1.348 . S
C1170 H1218 0.929 . S
C1171 C1172 1.358 . S
C1171 C1173 1.356 . S
C1171 H1219 0.930 . S
C1172 N1169 1.279 . S
C1172 C1171 1.358 . S
C1172 H1175 0.930 . S
C1173 C1170 1.348 . S
C1173 C1171 1.356 . S
H1174 C1168 0.930 . S
H1175 C1172 0.930 . S
C1176 C1178 1.348 . S
C1176 C1179 1.356 . S
C1176 O1206 1.325 . S
N1177 C1180 1.314 . S
N1177 C1181 1.279 . S
C1178 C1176 1.348 . S
C1178 C1180 1.353 . S
C1178 H1220 0.929 . S
C1179 C1176 1.356 . S
C1179 C1181 1.358 . S
C1179 H1221 0.930 . S
C1180 N1177 1.314 . S
C1180 C1178 1.353 . S
C1180 H1222 0.930 . S
C1181 N1177 1.279 . S
C1181 C1179 1.358 . S
C1181 H1223 0.930 . S
C1182 C1183 1.348 . S
C1182 C1184 1.356 . S
C1182 O1207 1.325 . S
C1183 C1182 1.348 . S
C1183 C1185 1.353 . S
C1183 H1224 0.929 . S
C1184 C1182 1.356 . S
C1184 C1186 1.358 . S
C1184 H1225 0.930 . S
C1185 C1183 1.353 . S
C1185 N1187 1.314 . S
C1185 H1226 0.930 . S
C1186 C1184 1.358 . S
C1186 N1187 1.279 . S
C1186 H1227 0.930 . S
N1187 C1185 1.314 . S
N1187 C1186 1.279 . S
C1188 C1190 1.353 . S
C1188 N1191 1.314 . S
C1188 H1194 0.930 1_556 S
C1189 N1191 1.279 . S
C1189 C1192 1.358 . S
C1189 H1195 0.930 . S
C1190 C1188 1.353 . S
C1190 C1193 1.348 . S
C1190 H1228 0.929 . S
N1191 Li1146 1.990 . S
N1191 C1188 1.314 . S
N1191 C1189 1.279 . S
C1192 C1189 1.358 . S
C1192 C1193 1.356 . S
C1192 H1229 0.930 . S
C1193 C1190 1.348 . S
C1193 C1192 1.356 . S
H1194 C1188 0.930 1_554 S
H1195 C1189 0.930 . S
C1196 N1197 1.314 . S
C1196 C1198 1.353 . S
C1196 H1202 0.930 . S
N1197 Li1147 1.990 . S
N1197 C1196 1.314 . S
N1197 C1200 1.279 . S
C1198 C1196 1.353 . S
C1198 C1201 1.348 . S
C1198 H1230 0.929 . S
C1199 C1200 1.358 . S
C1199 C1201 1.356 . S
C1199 H1231 0.930 . S
C1200 N1197 1.279 . S
C1200 C1199 1.358 . S
C1200 H1203 0.930 . S
C1201 C1198 1.348 . S
C1201 C1199 1.356 . S
H1202 C1196 0.930 . S
H1203 C1200 0.930 . S
O1204 Li1144 1.956 . S
O1204 Li1145 1.970 . S
O1204 Li1146 1.961 1_554 S
O1204 C1148 1.325 . S
O1205 Li1144 1.970 . S
O1205 Li1145 1.956 . S
O1205 Li1147 1.961 1_554 S
O1205 C1154 1.325 . S
O1206 Li1144 1.961 1_556 S
O1206 Li1146 1.956 . S
O1206 Li1147 1.970 . S
O1206 C1176 1.325 . S
O1207 Li1145 1.961 1_556 S
O1207 Li1146 1.970 . S
O1207 Li1147 1.956 . S
O1207 C1182 1.325 . S
H1208 C1150 0.929 . S
H1209 C1151 0.930 . S
H1210 C1152 0.930 . S
H1211 C1153 0.930 . S
H1212 C1155 0.930 . S
H1213 C1157 0.929 . S
H1214 C1158 0.930 . S
H1215 C1159 0.930 . S
H1216 C1162 0.930 . S
H1217 C1165 0.929 . S
H1218 C1170 0.929 . S
H1219 C1171 0.930 . S
H1220 C1178 0.929 . S
H1221 C1179 0.930 . S
H1222 C1180 0.930 . S
H1223 C1181 0.930 . S
H1224 C1183 0.929 . S
H1225 C1184 0.930 . S
H1226 C1185 0.930 . S
H1227 C1186 0.930 . S
H1228 C1190 0.929 . S
H1229 C1192 0.930 . S
H1230 C1198 0.929 . S
H1231 C1199 0.930 . S
Li1232 N1249 1.990 . S
Li1232 O1292 1.956 . S
Li1232 O1293 1.970 . S
Li1232 O1294 1.961 . S
Li1233 N1257 1.990 . S
Li1233 O1292 1.970 . S
Li1233 O1293 1.956 . S
Li1233 O1295 1.961 . S
Li1234 N1279 1.990 . S
Li1234 O1292 1.961 . S
Li1234 O1294 1.956 . S
Li1234 O1295 1.970 . S
Li1235 N1285 1.990 . S
Li1235 O1293 1.961 . S
Li1235 O1294 1.970 . S
Li1235 O1295 1.956 . S
C1236 C1238 1.348 . S
C1236 C1239 1.356 . S
C1236 O1292 1.325 . S
N1237 C1240 1.314 . S
N1237 C1241 1.279 . S
C1238 C1236 1.348 . S
C1238 C1240 1.353 . S
C1238 H1296 0.929 . S
C1239 C1236 1.356 . S
C1239 C1241 1.358 . S
C1239 H1297 0.930 . S
C1240 N1237 1.314 . S
C1240 C1238 1.353 . S
C1240 H1298 0.930 . S
C1241 N1237 1.279 . S
C1241 C1239 1.358 . S
C1241 H1299 0.930 . S
C1242 C1245 1.348 . S
C1242 C1246 1.356 . S
C1242 O1293 1.325 . S
C1243 N1244 1.279 . S
C1243 C1246 1.358 . S
C1243 H1300 0.930 . S
N1244 C1243 1.279 . S
N1244 C1247 1.314 . S
C1245 C1242 1.348 . S
C1245 C1247 1.353 . S
C1245 H1301 0.929 . S
C1246 C1242 1.356 . S
C1246 C1243 1.358 . S
C1246 H1302 0.930 . S
C1247 N1244 1.314 . S
C1247 C1245 1.353 . S
C1247 H1303 0.930 . S
C1248 N1249 1.314 . S
C1248 C1253 1.353 . S
C1248 H1254 0.930 . S
N1249 Li1232 1.990 . S
N1249 C1248 1.314 . S
N1249 C1251 1.279 . S
C1250 C1251 1.358 . S
C1250 C1252 1.356 . S
C1250 H1304 0.930 . S
C1251 N1249 1.279 . S
C1251 C1250 1.358 . S
C1251 H1255 0.930 . S
C1252 C1250 1.356 . S
C1252 C1253 1.348 . S
C1253 C1248 1.353 . S
C1253 C1252 1.348 . S
C1253 H1305 0.929 . S
H1254 C1248 0.930 . S
H1255 C1251 0.930 . S
C1256 N1257 1.314 . S
C1256 C1258 1.353 . S
C1256 H1262 0.930 . S
N1257 Li1233 1.990 . S
N1257 C1256 1.314 . S
N1257 C1260 1.279 . S
C1258 C1256 1.353 . S
C1258 C1261 1.348 . S
C1258 H1306 0.929 . S
C1259 C1260 1.358 . S
C1259 C1261 1.356 . S
C1259 H1307 0.930 . S
C1260 N1257 1.279 . S
C1260 C1259 1.358 . S
C1260 H1263 0.930 . S
C1261 C1258 1.348 . S
C1261 C1259 1.356 . S
H1262 C1256 0.930 . S
H1263 C1260 0.930 . S
C1264 C1266 1.348 . S
C1264 C1267 1.356 . S
C1264 O1294 1.325 . S
N1265 C1268 1.314 . S
N1265 C1269 1.279 . S
C1266 C1264 1.348 . S
C1266 C1268 1.353 . S
C1266 H1308 0.929 . S
C1267 C1264 1.356 . S
C1267 C1269 1.358 . S
C1267 H1309 0.930 . S
C1268 N1265 1.314 . S
C1268 C1266 1.353 . S
C1268 H1310 0.930 . S
C1269 N1265 1.279 . S
C1269 C1267 1.358 . S
C1269 H1311 0.930 . S
C1270 C1271 1.348 . S
C1270 C1272 1.356 . S
C1270 O1295 1.325 . S
C1271 C1270 1.348 . S
C1271 C1273 1.353 . S
C1271 H1312 0.929 . S
C1272 C1270 1.356 . S
C1272 C1274 1.358 . S
C1272 H1313 0.930 . S
C1273 C1271 1.353 . S
C1273 N1275 1.314 . S
C1273 H1314 0.930 . S
C1274 C1272 1.358 . S
C1274 N1275 1.279 . S
C1274 H1315 0.930 . S
N1275 C1273 1.314 . S
N1275 C1274 1.279 . S
C1276 C1278 1.353 . S
C1276 N1279 1.314 . S
C1276 H1282 0.930 . S
C1277 N1279 1.279 . S
C1277 C1280 1.358 . S
C1277 H1283 0.930 . S
C1278 C1276 1.353 . S
C1278 C1281 1.348 . S
C1278 H1316 0.929 . S
N1279 Li1234 1.990 . S
N1279 C1276 1.314 . S
N1279 C1277 1.279 . S
C1280 C1277 1.358 . S
C1280 C1281 1.356 . S
C1280 H1317 0.930 . S
C1281 C1278 1.348 . S
C1281 C1280 1.356 . S
H1282 C1276 0.930 . S
H1283 C1277 0.930 . S
C1284 N1285 1.314 . S
C1284 C1286 1.353 . S
C1284 H1290 0.930 . S
N1285 Li1235 1.990 . S
N1285 C1284 1.314 . S
N1285 C1288 1.279 . S
C1286 C1284 1.353 . S
C1286 C1289 1.348 . S
C1286 H1318 0.929 . S
C1287 C1288 1.358 . S
C1287 C1289 1.356 . S
C1287 H1319 0.930 . S
C1288 N1285 1.279 . S
C1288 C1287 1.358 . S
C1288 H1291 0.930 . S
C1289 C1286 1.348 . S
C1289 C1287 1.356 . S
H1290 C1284 0.930 . S
H1291 C1288 0.930 . S
O1292 Li1232 1.956 . S
O1292 Li1233 1.970 . S
O1292 Li1234 1.961 . S
O1292 C1236 1.325 . S
O1293 Li1232 1.970 . S
O1293 Li1233 1.956 . S
O1293 Li1235 1.961 . S
O1293 C1242 1.325 . S
O1294 Li1232 1.961 . S
O1294 Li1234 1.956 . S
O1294 Li1235 1.970 . S
O1294 C1264 1.325 . S
O1295 Li1233 1.961 . S
O1295 Li1234 1.970 . S
O1295 Li1235 1.956 . S
O1295 C1270 1.325 . S
H1296 C1238 0.929 . S
H1297 C1239 0.930 . S
H1298 C1240 0.930 . S
H1299 C1241 0.930 . S
H1300 C1243 0.930 . S
H1301 C1245 0.929 . S
H1302 C1246 0.930 . S
H1303 C1247 0.930 . S
H1304 C1250 0.930 . S
H1305 C1253 0.929 . S
H1306 C1258 0.929 . S
H1307 C1259 0.930 . S
H1308 C1266 0.929 . S
H1309 C1267 0.930 . S
H1310 C1268 0.930 . S
H1311 C1269 0.930 . S
H1312 C1271 0.929 . S
H1313 C1272 0.930 . S
H1314 C1273 0.930 . S
H1315 C1274 0.930 . S
H1316 C1278 0.929 . S
H1317 C1280 0.930 . S
H1318 C1286 0.929 . S
H1319 C1287 0.930 . S
Li1320 N1337 1.990 . S
Li1320 O1380 1.956 . S
Li1320 O1381 1.970 . S
Li1320 O1382 1.961 . S
Li1321 N1345 1.990 . S
Li1321 O1380 1.970 . S
Li1321 O1381 1.956 . S
Li1321 O1383 1.961 . S
Li1322 N1367 1.990 . S
Li1322 O1380 1.961 . S
Li1322 O1382 1.956 . S
Li1322 O1383 1.970 . S
Li1323 N1373 1.990 . S
Li1323 O1381 1.961 . S
Li1323 O1382 1.970 . S
Li1323 O1383 1.956 . S
C1324 C1326 1.348 . S
C1324 C1327 1.356 . S
C1324 O1380 1.325 . S
N1325 C1328 1.314 . S
N1325 C1329 1.279 . S
C1326 C1324 1.348 . S
C1326 C1328 1.353 . S
C1326 H1384 0.929 . S
C1327 C1324 1.356 . S
C1327 C1329 1.358 . S
C1327 H1385 0.930 . S
C1328 N1325 1.314 . S
C1328 C1326 1.353 . S
C1328 H1386 0.930 . S
C1329 N1325 1.279 . S
C1329 C1327 1.358 . S
C1329 H1387 0.930 . S
C1330 C1333 1.348 . S
C1330 C1334 1.356 . S
C1330 O1381 1.325 . S
C1331 N1332 1.279 . S
C1331 C1334 1.358 . S
C1331 H1388 0.930 . S
N1332 C1331 1.279 . S
N1332 C1335 1.314 . S
C1333 C1330 1.348 . S
C1333 C1335 1.353 . S
C1333 H1389 0.929 . S
C1334 C1330 1.356 . S
C1334 C1331 1.358 . S
C1334 H1390 0.930 . S
C1335 N1332 1.314 . S
C1335 C1333 1.353 . S
C1335 H1391 0.930 . S
C1336 N1337 1.314 . S
C1336 C1341 1.353 . S
C1336 H1342 0.930 . S
N1337 Li1320 1.990 . S
N1337 C1336 1.314 . S
N1337 C1339 1.279 . S
C1338 C1339 1.358 . S
C1338 C1340 1.356 . S
C1338 H1392 0.930 . S
C1339 N1337 1.279 . S
C1339 C1338 1.358 . S
C1339 H1343 0.930 . S
C1340 C1338 1.356 . S
C1340 C1341 1.348 . S
C1341 C1336 1.353 . S
C1341 C1340 1.348 . S
C1341 H1393 0.929 . S
H1342 C1336 0.930 . S
H1343 C1339 0.930 . S
C1344 N1345 1.314 . S
C1344 C1346 1.353 . S
C1344 H1350 0.930 . S
N1345 Li1321 1.990 . S
N1345 C1344 1.314 . S
N1345 C1348 1.279 . S
C1346 C1344 1.353 . S
C1346 C1349 1.348 . S
C1346 H1394 0.929 . S
C1347 C1348 1.358 . S
C1347 C1349 1.356 . S
C1347 H1395 0.930 . S
C1348 N1345 1.279 . S
C1348 C1347 1.358 . S
C1348 H1351 0.930 . S
C1349 C1346 1.348 . S
C1349 C1347 1.356 . S
H1350 C1344 0.930 . S
H1351 C1348 0.930 . S
C1352 C1354 1.348 . S
C1352 C1355 1.356 . S
C1352 O1382 1.325 . S
N1353 C1356 1.314 . S
N1353 C1357 1.279 . S
C1354 C1352 1.348 . S
C1354 C1356 1.353 . S
C1354 H1396 0.929 . S
C1355 C1352 1.356 . S
C1355 C1357 1.358 . S
C1355 H1397 0.930 . S
C1356 N1353 1.314 . S
C1356 C1354 1.353 . S
C1356 H1398 0.930 . S
C1357 N1353 1.279 . S
C1357 C1355 1.358 . S
C1357 H1399 0.930 . S
C1358 C1359 1.348 . S
C1358 C1360 1.356 . S
C1358 O1383 1.325 . S
C1359 C1358 1.348 . S
C1359 C1361 1.353 . S
C1359 H1400 0.929 . S
C1360 C1358 1.356 . S
C1360 C1362 1.358 . S
C1360 H1401 0.930 . S
C1361 C1359 1.353 . S
C1361 N1363 1.314 . S
C1361 H1402 0.930 . S
C1362 C1360 1.358 . S
C1362 N1363 1.279 . S
C1362 H1403 0.930 . S
N1363 C1361 1.314 . S
N1363 C1362 1.279 . S
C1364 C1366 1.353 . S
C1364 N1367 1.314 . S
C1364 H1370 0.930 . S
C1365 N1367 1.279 . S
C1365 C1368 1.358 . S
C1365 H1371 0.930 . S
C1366 C1364 1.353 . S
C1366 C1369 1.348 . S
C1366 H1404 0.929 . S
N1367 Li1322 1.990 . S
N1367 C1364 1.314 . S
N1367 C1365 1.279 . S
C1368 C1365 1.358 . S
C1368 C1369 1.356 . S
C1368 H1405 0.930 . S
C1369 C1366 1.348 . S
C1369 C1368 1.356 . S
H1370 C1364 0.930 . S
H1371 C1365 0.930 . S
C1372 N1373 1.314 . S
C1372 C1374 1.353 . S
C1372 H1378 0.930 . S
N1373 Li1323 1.990 . S
N1373 C1372 1.314 . S
N1373 C1376 1.279 . S
C1374 C1372 1.353 . S
C1374 C1377 1.348 . S
C1374 H1406 0.929 . S
C1375 C1376 1.358 . S
C1375 C1377 1.356 . S
C1375 H1407 0.930 . S
C1376 N1373 1.279 . S
C1376 C1375 1.358 . S
C1376 H1379 0.930 . S
C1377 C1374 1.348 . S
C1377 C1375 1.356 . S
H1378 C1372 0.930 . S
H1379 C1376 0.930 . S
O1380 Li1320 1.956 . S
O1380 Li1321 1.970 . S
O1380 Li1322 1.961 . S
O1380 C1324 1.325 . S
O1381 Li1320 1.970 . S
O1381 Li1321 1.956 . S
O1381 Li1323 1.961 . S
O1381 C1330 1.325 . S
O1382 Li1320 1.961 . S
O1382 Li1322 1.956 . S
O1382 Li1323 1.970 . S
O1382 C1352 1.325 . S
O1383 Li1321 1.961 . S
O1383 Li1322 1.970 . S
O1383 Li1323 1.956 . S
O1383 C1358 1.325 . S
H1384 C1326 0.929 . S
H1385 C1327 0.930 . S
H1386 C1328 0.930 . S
H1387 C1329 0.930 . S
H1388 C1331 0.930 . S
H1389 C1333 0.929 . S
H1390 C1334 0.930 . S
H1391 C1335 0.930 . S
H1392 C1338 0.930 . S
H1393 C1341 0.929 . S
H1394 C1346 0.929 . S
H1395 C1347 0.930 . S
H1396 C1354 0.929 . S
H1397 C1355 0.930 . S
H1398 C1356 0.930 . S
H1399 C1357 0.930 . S
H1400 C1359 0.929 . S
H1401 C1360 0.930 . S
H1402 C1361 0.930 . S
H1403 C1362 0.930 . S
H1404 C1366 0.929 . S
H1405 C1368 0.930 . S
H1406 C1374 0.929 . S
H1407 C1375 0.930 . S
Li1408 N1425 1.990 . S
Li1408 O1468 1.956 1_545 S
Li1408 O1469 1.970 . S
Li1408 O1470 1.961 . S
Li1409 N1433 1.990 . S
Li1409 O1468 1.970 . S
Li1409 O1469 1.956 1_565 S
Li1409 O1471 1.961 . S
Li1410 N1455 1.990 . S
Li1410 O1468 1.961 . S
Li1410 O1470 1.956 1_565 S
Li1410 O1471 1.970 . S
Li1411 N1461 1.990 . S
Li1411 O1469 1.961 . S
Li1411 O1470 1.970 . S
Li1411 O1471 1.956 1_545 S
C1412 C1414 1.348 . S
C1412 C1415 1.356 . S
C1412 O1468 1.325 . S
N1413 C1416 1.314 . S
N1413 C1417 1.279 . S
C1414 C1412 1.348 . S
C1414 C1416 1.353 . S
C1414 H1472 0.929 . S
C1415 C1412 1.356 . S
C1415 C1417 1.358 . S
C1415 H1473 0.930 . S
C1416 N1413 1.314 . S
C1416 C1414 1.353 . S
C1416 H1474 0.930 . S
C1417 N1413 1.279 . S
C1417 C1415 1.358 . S
C1417 H1475 0.930 . S
C1418 C1421 1.348 . S
C1418 C1422 1.356 . S
C1418 O1469 1.325 . S
C1419 N1420 1.279 . S
C1419 C1422 1.358 . S
C1419 H1476 0.930 . S
N1420 C1419 1.279 . S
N1420 C1423 1.314 . S
C1421 C1418 1.348 . S
C1421 C1423 1.353 . S
C1421 H1477 0.929 . S
C1422 C1418 1.356 . S
C1422 C1419 1.358 . S
C1422 H1478 0.930 . S
C1423 N1420 1.314 . S
C1423 C1421 1.353 . S
C1423 H1479 0.930 . S
C1424 N1425 1.314 . S
C1424 C1429 1.353 . S
C1424 H1430 0.930 . S
N1425 Li1408 1.990 . S
N1425 C1424 1.314 . S
N1425 C1427 1.279 . S
C1426 C1427 1.358 . S
C1426 C1428 1.356 . S
C1426 H1480 0.930 . S
C1427 N1425 1.279 . S
C1427 C1426 1.358 . S
C1427 H1431 0.930 . S
C1428 C1426 1.356 . S
C1428 C1429 1.348 . S
C1429 C1424 1.353 . S
C1429 C1428 1.348 . S
C1429 H1481 0.929 . S
H1430 C1424 0.930 . S
H1431 C1427 0.930 . S
C1432 N1433 1.314 . S
C1432 C1434 1.353 . S
C1432 H1438 0.930 . S
N1433 Li1409 1.990 . S
N1433 C1432 1.314 . S
N1433 C1436 1.279 . S
C1434 C1432 1.353 . S
C1434 C1437 1.348 . S
C1434 H1482 0.929 . S
C1435 C1436 1.358 . S
C1435 C1437 1.356 . S
C1435 H1483 0.930 . S
C1436 N1433 1.279 . S
C1436 C1435 1.358 . S
C1436 H1439 0.930 1_565 S
C1437 C1434 1.348 . S
C1437 C1435 1.356 . S
H1438 C1432 0.930 . S
H1439 C1436 0.930 1_545 S
C1440 C1442 1.348 . S
C1440 C1443 1.356 . S
C1440 O1470 1.325 . S
N1441 C1444 1.314 . S
N1441 C1445 1.279 . S
C1442 C1440 1.348 . S
C1442 C1444 1.353 . S
C1442 H1484 0.929 . S
C1443 C1440 1.356 . S
C1443 C1445 1.358 . S
C1443 H1485 0.930 . S
C1444 N1441 1.314 . S
C1444 C1442 1.353 . S
C1444 H1486 0.930 . S
C1445 N1441 1.279 . S
C1445 C1443 1.358 . S
C1445 H1487 0.930 . S
C1446 C1447 1.348 . S
C1446 C1448 1.356 . S
C1446 O1471 1.325 . S
C1447 C1446 1.348 . S
C1447 C1449 1.353 . S
C1447 H1488 0.929 . S
C1448 C1446 1.356 . S
C1448 C1450 1.358 . S
C1448 H1489 0.930 . S
C1449 C1447 1.353 . S
C1449 N1451 1.314 . S
C1449 H1490 0.930 . S
C1450 C1448 1.358 . S
C1450 N1451 1.279 . S
C1450 H1491 0.930 . S
N1451 C1449 1.314 . S
N1451 C1450 1.279 . S
C1452 C1454 1.353 . S
C1452 N1455 1.314 . S
C1452 H1458 0.930 . S
C1453 N1455 1.279 . S
C1453 C1456 1.358 . S
C1453 H1459 0.930 . S
C1454 C1452 1.353 . S
C1454 C1457 1.348 . S
C1454 H1492 0.929 . S
N1455 Li1410 1.990 . S
N1455 C1452 1.314 . S
N1455 C1453 1.279 . S
C1456 C1453 1.358 . S
C1456 C1457 1.356 . S
C1456 H1493 0.930 . S
C1457 C1454 1.348 . S
C1457 C1456 1.356 . S
H1458 C1452 0.930 . S
H1459 C1453 0.930 . S
C1460 N1461 1.314 . S
C1460 C1462 1.353 . S
C1460 H1466 0.930 . S
N1461 Li1411 1.990 . S
N1461 C1460 1.314 . S
N1461 C1464 1.279 . S
C1462 C1460 1.353 . S
C1462 C1465 1.348 . S
C1462 H1494 0.929 . S
C1463 C1464 1.358 . S
C1463 C1465 1.356 . S
C1463 H1495 0.930 . S
C1464 N1461 1.279 . S
C1464 C1463 1.358 . S
C1464 H1467 0.930 1_545 S
C1465 C1462 1.348 . S
C1465 C1463 1.356 . S
H1466 C1460 0.930 . S
H1467 C1464 0.930 1_565 S
O1468 Li1408 1.956 1_565 S
O1468 Li1409 1.970 . S
O1468 Li1410 1.961 . S
O1468 C1412 1.325 . S
O1469 Li1408 1.970 . S
O1469 Li1409 1.956 1_545 S
O1469 Li1411 1.961 . S
O1469 C1418 1.325 . S
O1470 Li1408 1.961 . S
O1470 Li1410 1.956 1_545 S
O1470 Li1411 1.970 . S
O1470 C1440 1.325 . S
O1471 Li1409 1.961 . S
O1471 Li1410 1.970 . S
O1471 Li1411 1.956 1_565 S
O1471 C1446 1.325 . S
H1472 C1414 0.929 . S
H1473 C1415 0.930 . S
H1474 C1416 0.930 . S
H1475 C1417 0.930 . S
H1476 C1419 0.930 . S
H1477 C1421 0.929 . S
H1478 C1422 0.930 . S
H1479 C1423 0.930 . S
H1480 C1426 0.930 . S
H1481 C1429 0.929 . S
H1482 C1434 0.929 . S
H1483 C1435 0.930 . S
H1484 C1442 0.929 . S
H1485 C1443 0.930 . S
H1486 C1444 0.930 . S
H1487 C1445 0.930 . S
H1488 C1447 0.929 . S
H1489 C1448 0.930 . S
H1490 C1449 0.930 . S
H1491 C1450 0.930 . S
H1492 C1454 0.929 . S
H1493 C1456 0.930 . S
H1494 C1462 0.929 . S
H1495 C1463 0.930 . S
Li1496 N1513 1.990 . S
Li1496 O1556 1.956 . S
Li1496 O1557 1.970 . S
Li1496 O1558 1.961 . S
Li1497 N1521 1.990 . S
Li1497 O1556 1.970 . S
Li1497 O1557 1.956 . S
Li1497 O1559 1.961 . S
Li1498 N1543 1.990 . S
Li1498 O1556 1.961 . S
Li1498 O1558 1.956 . S
Li1498 O1559 1.970 . S
Li1499 N1549 1.990 . S
Li1499 O1557 1.961 . S
Li1499 O1558 1.970 . S
Li1499 O1559 1.956 . S
C1500 C1502 1.348 . S
C1500 C1503 1.356 . S
C1500 O1556 1.325 . S
N1501 C1504 1.314 . S
N1501 C1505 1.279 . S
C1502 C1500 1.348 . S
C1502 C1504 1.353 . S
C1502 H1560 0.929 . S
C1503 C1500 1.356 . S
C1503 C1505 1.358 . S
C1503 H1561 0.930 . S
C1504 N1501 1.314 . S
C1504 C1502 1.353 . S
C1504 H1562 0.930 . S
C1505 N1501 1.279 . S
C1505 C1503 1.358 . S
C1505 H1563 0.930 . S
C1506 C1509 1.348 . S
C1506 C1510 1.356 . S
C1506 O1557 1.325 . S
C1507 N1508 1.279 . S
C1507 C1510 1.358 . S
C1507 H1564 0.930 . S
N1508 C1507 1.279 . S
N1508 C1511 1.314 . S
C1509 C1506 1.348 . S
C1509 C1511 1.353 . S
C1509 H1565 0.929 . S
C1510 C1506 1.356 . S
C1510 C1507 1.358 . S
C1510 H1566 0.930 . S
C1511 N1508 1.314 . S
C1511 C1509 1.353 . S
C1511 H1567 0.930 . S
C1512 N1513 1.314 . S
C1512 C1517 1.353 . S
C1512 H1518 0.930 . S
N1513 Li1496 1.990 . S
N1513 C1512 1.314 . S
N1513 C1515 1.279 . S
C1514 C1515 1.358 . S
C1514 C1516 1.356 . S
C1514 H1568 0.930 . S
C1515 N1513 1.279 . S
C1515 C1514 1.358 . S
C1515 H1519 0.930 . S
C1516 C1514 1.356 . S
C1516 C1517 1.348 . S
C1517 C1512 1.353 . S
C1517 C1516 1.348 . S
C1517 H1569 0.929 . S
H1518 C1512 0.930 . S
H1519 C1515 0.930 . S
C1520 N1521 1.314 . S
C1520 C1522 1.353 . S
C1520 H1526 0.930 . S
N1521 Li1497 1.990 . S
N1521 C1520 1.314 . S
N1521 C1524 1.279 . S
C1522 C1520 1.353 . S
C1522 C1525 1.348 . S
C1522 H1570 0.929 . S
C1523 C1524 1.358 . S
C1523 C1525 1.356 . S
C1523 H1571 0.930 . S
C1524 N1521 1.279 . S
C1524 C1523 1.358 . S
C1524 H1527 0.930 . S
C1525 C1522 1.348 . S
C1525 C1523 1.356 . S
H1526 C1520 0.930 . S
H1527 C1524 0.930 . S
C1528 C1530 1.348 . S
C1528 C1531 1.356 . S
C1528 O1558 1.325 . S
N1529 C1532 1.314 . S
N1529 C1533 1.279 . S
C1530 C1528 1.348 . S
C1530 C1532 1.353 . S
C1530 H1572 0.929 . S
C1531 C1528 1.356 . S
C1531 C1533 1.358 . S
C1531 H1573 0.930 . S
C1532 N1529 1.314 . S
C1532 C1530 1.353 . S
C1532 H1574 0.930 . S
C1533 N1529 1.279 . S
C1533 C1531 1.358 . S
C1533 H1575 0.930 . S
C1534 C1535 1.348 . S
C1534 C1536 1.356 . S
C1534 O1559 1.325 . S
C1535 C1534 1.348 . S
C1535 C1537 1.353 . S
C1535 H1576 0.929 . S
C1536 C1534 1.356 . S
C1536 C1538 1.358 . S
C1536 H1577 0.930 . S
C1537 C1535 1.353 . S
C1537 N1539 1.314 . S
C1537 H1578 0.930 . S
C1538 C1536 1.358 . S
C1538 N1539 1.279 . S
C1538 H1579 0.930 . S
N1539 C1537 1.314 . S
N1539 C1538 1.279 . S
C1540 C1542 1.353 . S
C1540 N1543 1.314 . S
C1540 H1546 0.930 . S
C1541 N1543 1.279 . S
C1541 C1544 1.358 . S
C1541 H1547 0.930 . S
C1542 C1540 1.353 . S
C1542 C1545 1.348 . S
C1542 H1580 0.929 . S
N1543 Li1498 1.990 . S
N1543 C1540 1.314 . S
N1543 C1541 1.279 . S
C1544 C1541 1.358 . S
C1544 C1545 1.356 . S
C1544 H1581 0.930 . S
C1545 C1542 1.348 . S
C1545 C1544 1.356 . S
H1546 C1540 0.930 . S
H1547 C1541 0.930 . S
C1548 N1549 1.314 . S
C1548 C1550 1.353 . S
C1548 H1554 0.930 . S
N1549 Li1499 1.990 . S
N1549 C1548 1.314 . S
N1549 C1552 1.279 . S
C1550 C1548 1.353 . S
C1550 C1553 1.348 . S
C1550 H1582 0.929 . S
C1551 C1552 1.358 . S
C1551 C1553 1.356 . S
C1551 H1583 0.930 . S
C1552 N1549 1.279 . S
C1552 C1551 1.358 . S
C1552 H1555 0.930 . S
C1553 C1550 1.348 . S
C1553 C1551 1.356 . S
H1554 C1548 0.930 . S
H1555 C1552 0.930 . S
O1556 Li1496 1.956 . S
O1556 Li1497 1.970 . S
O1556 Li1498 1.961 . S
O1556 C1500 1.325 . S
O1557 Li1496 1.970 . S
O1557 Li1497 1.956 . S
O1557 Li1499 1.961 . S
O1557 C1506 1.325 . S
O1558 Li1496 1.961 . S
O1558 Li1498 1.956 . S
O1558 Li1499 1.970 . S
O1558 C1528 1.325 . S
O1559 Li1497 1.961 . S
O1559 Li1498 1.970 . S
O1559 Li1499 1.956 . S
O1559 C1534 1.325 . S
H1560 C1502 0.929 . S
H1561 C1503 0.930 . S
H1562 C1504 0.930 . S
H1563 C1505 0.930 . S
H1564 C1507 0.930 . S
H1565 C1509 0.929 . S
H1566 C1510 0.930 . S
H1567 C1511 0.930 . S
H1568 C1514 0.930 . S
H1569 C1517 0.929 . S
H1570 C1522 0.929 . S
H1571 C1523 0.930 . S
H1572 C1530 0.929 . S
H1573 C1531 0.930 . S
H1574 C1532 0.930 . S
H1575 C1533 0.930 . S
H1576 C1535 0.929 . S
H1577 C1536 0.930 . S
H1578 C1537 0.930 . S
H1579 C1538 0.930 . S
H1580 C1542 0.929 . S
H1581 C1544 0.930 . S
H1582 C1550 0.929 . S
H1583 C1551 0.930 . S
Li1584 N1601 1.990 . S
Li1584 O1644 1.956 . S
Li1584 O1645 1.970 . S
Li1584 O1646 1.961 . S
Li1585 N1609 1.990 . S
Li1585 O1644 1.970 . S
Li1585 O1645 1.956 . S
Li1585 O1647 1.961 . S
Li1586 N1631 1.990 . S
Li1586 O1644 1.961 . S
Li1586 O1646 1.956 . S
Li1586 O1647 1.970 . S
Li1587 N1637 1.990 . S
Li1587 O1645 1.961 . S
Li1587 O1646 1.970 . S
Li1587 O1647 1.956 . S
C1588 C1590 1.348 . S
C1588 C1591 1.356 . S
C1588 O1644 1.325 . S
N1589 C1592 1.314 . S
N1589 C1593 1.279 . S
C1590 C1588 1.348 . S
C1590 C1592 1.353 . S
C1590 H1648 0.929 . S
C1591 C1588 1.356 . S
C1591 C1593 1.358 . S
C1591 H1649 0.930 . S
C1592 N1589 1.314 . S
C1592 C1590 1.353 . S
C1592 H1650 0.930 . S
C1593 N1589 1.279 . S
C1593 C1591 1.358 . S
C1593 H1651 0.930 . S
C1594 C1597 1.348 . S
C1594 C1598 1.356 . S
C1594 O1645 1.325 . S
C1595 N1596 1.279 . S
C1595 C1598 1.358 . S
C1595 H1652 0.930 . S
N1596 C1595 1.279 . S
N1596 C1599 1.314 . S
C1597 C1594 1.348 . S
C1597 C1599 1.353 . S
C1597 H1653 0.929 . S
C1598 C1594 1.356 . S
C1598 C1595 1.358 . S
C1598 H1654 0.930 . S
C1599 N1596 1.314 . S
C1599 C1597 1.353 . S
C1599 H1655 0.930 . S
C1600 N1601 1.314 . S
C1600 C1605 1.353 . S
C1600 H1606 0.930 . S
N1601 Li1584 1.990 . S
N1601 C1600 1.314 . S
N1601 C1603 1.279 . S
C1602 C1603 1.358 . S
C1602 C1604 1.356 . S
C1602 H1656 0.930 . S
C1603 N1601 1.279 . S
C1603 C1602 1.358 . S
C1603 H1607 0.930 . S
C1604 C1602 1.356 . S
C1604 C1605 1.348 . S
C1605 C1600 1.353 . S
C1605 C1604 1.348 . S
C1605 H1657 0.929 . S
H1606 C1600 0.930 . S
H1607 C1603 0.930 . S
C1608 N1609 1.314 . S
C1608 C1610 1.353 . S
C1608 H1614 0.930 . S
N1609 Li1585 1.990 . S
N1609 C1608 1.314 . S
N1609 C1612 1.279 . S
C1610 C1608 1.353 . S
C1610 C1613 1.348 . S
C1610 H1658 0.929 . S
C1611 C1612 1.358 . S
C1611 C1613 1.356 . S
C1611 H1659 0.930 . S
C1612 N1609 1.279 . S
C1612 C1611 1.358 . S
C1612 H1615 0.930 . S
C1613 C1610 1.348 . S
C1613 C1611 1.356 . S
H1614 C1608 0.930 . S
H1615 C1612 0.930 . S
C1616 C1618 1.348 . S
C1616 C1619 1.356 . S
C1616 O1646 1.325 . S
N1617 C1620 1.314 . S
N1617 C1621 1.279 . S
C1618 C1616 1.348 . S
C1618 C1620 1.353 . S
C1618 H1660 0.929 . S
C1619 C1616 1.356 . S
C1619 C1621 1.358 . S
C1619 H1661 0.930 . S
C1620 N1617 1.314 . S
C1620 C1618 1.353 . S
C1620 H1662 0.930 . S
C1621 N1617 1.279 . S
C1621 C1619 1.358 . S
C1621 H1663 0.930 . S
C1622 C1623 1.348 . S
C1622 C1624 1.356 . S
C1622 O1647 1.325 . S
C1623 C1622 1.348 . S
C1623 C1625 1.353 . S
C1623 H1664 0.929 . S
C1624 C1622 1.356 . S
C1624 C1626 1.358 . S
C1624 H1665 0.930 . S
C1625 C1623 1.353 . S
C1625 N1627 1.314 . S
C1625 H1666 0.930 . S
C1626 C1624 1.358 . S
C1626 N1627 1.279 . S
C1626 H1667 0.930 . S
N1627 C1625 1.314 . S
N1627 C1626 1.279 . S
C1628 C1630 1.353 . S
C1628 N1631 1.314 . S
C1628 H1634 0.930 . S
C1629 N1631 1.279 . S
C1629 C1632 1.358 . S
C1629 H1635 0.930 . S
C1630 C1628 1.353 . S
C1630 C1633 1.348 . S
C1630 H1668 0.929 . S
N1631 Li1586 1.990 . S
N1631 C1628 1.314 . S
N1631 C1629 1.279 . S
C1632 C1629 1.358 . S
C1632 C1633 1.356 . S
C1632 H1669 0.930 . S
C1633 C1630 1.348 . S
C1633 C1632 1.356 . S
H1634 C1628 0.930 . S
H1635 C1629 0.930 . S
C1636 N1637 1.314 . S
C1636 C1638 1.353 . S
C1636 H1642 0.930 . S
N1637 Li1587 1.990 . S
N1637 C1636 1.314 . S
N1637 C1640 1.279 . S
C1638 C1636 1.353 . S
C1638 C1641 1.348 . S
C1638 H1670 0.929 . S
C1639 C1640 1.358 . S
C1639 C1641 1.356 . S
C1639 H1671 0.930 . S
C1640 N1637 1.279 . S
C1640 C1639 1.358 . S
C1640 H1643 0.930 . S
C1641 C1638 1.348 . S
C1641 C1639 1.356 . S
H1642 C1636 0.930 . S
H1643 C1640 0.930 . S
O1644 Li1584 1.956 . S
O1644 Li1585 1.970 . S
O1644 Li1586 1.961 . S
O1644 C1588 1.325 . S
O1645 Li1584 1.970 . S
O1645 Li1585 1.956 . S
O1645 Li1587 1.961 . S
O1645 C1594 1.325 . S
O1646 Li1584 1.961 . S
O1646 Li1586 1.956 . S
O1646 Li1587 1.970 . S
O1646 C1616 1.325 . S
O1647 Li1585 1.961 . S
O1647 Li1586 1.970 . S
O1647 Li1587 1.956 . S
O1647 C1622 1.325 . S
H1648 C1590 0.929 . S
H1649 C1591 0.930 . S
H1650 C1592 0.930 . S
H1651 C1593 0.930 . S
H1652 C1595 0.930 . S
H1653 C1597 0.929 . S
H1654 C1598 0.930 . S
H1655 C1599 0.930 . S
H1656 C1602 0.930 . S
H1657 C1605 0.929 . S
H1658 C1610 0.929 . S
H1659 C1611 0.930 . S
H1660 C1618 0.929 . S
H1661 C1619 0.930 . S
H1662 C1620 0.930 . S
H1663 C1621 0.930 . S
H1664 C1623 0.929 . S
H1665 C1624 0.930 . S
H1666 C1625 0.930 . S
H1667 C1626 0.930 . S
H1668 C1630 0.929 . S
H1669 C1632 0.930 . S
H1670 C1638 0.929 . S
H1671 C1639 0.930 . S
Li1672 N1689 1.990 . S
Li1672 O1732 1.956 1_545 S
Li1672 O1733 1.970 . S
Li1672 O1734 1.961 . S
Li1673 N1697 1.990 . S
Li1673 O1732 1.970 . S
Li1673 O1733 1.956 1_565 S
Li1673 O1735 1.961 . S
Li1674 N1719 1.990 . S
Li1674 O1732 1.961 . S
Li1674 O1734 1.956 1_565 S
Li1674 O1735 1.970 . S
Li1675 N1725 1.990 . S
Li1675 O1733 1.961 . S
Li1675 O1734 1.970 . S
Li1675 O1735 1.956 1_545 S
C1676 C1678 1.348 . S
C1676 C1679 1.356 . S
C1676 O1732 1.325 . S
N1677 C1680 1.314 . S
N1677 C1681 1.279 . S
C1678 C1676 1.348 . S
C1678 C1680 1.353 . S
C1678 H1736 0.929 . S
C1679 C1676 1.356 . S
C1679 C1681 1.358 . S
C1679 H1737 0.930 . S
C1680 N1677 1.314 . S
C1680 C1678 1.353 . S
C1680 H1738 0.930 . S
C1681 N1677 1.279 . S
C1681 C1679 1.358 . S
C1681 H1739 0.930 . S
C1682 C1685 1.348 . S
C1682 C1686 1.356 . S
C1682 O1733 1.325 . S
C1683 N1684 1.279 . S
C1683 C1686 1.358 . S
C1683 H1740 0.930 . S
N1684 C1683 1.279 . S
N1684 C1687 1.314 . S
C1685 C1682 1.348 . S
C1685 C1687 1.353 . S
C1685 H1741 0.929 . S
C1686 C1682 1.356 . S
C1686 C1683 1.358 . S
C1686 H1742 0.930 . S
C1687 N1684 1.314 . S
C1687 C1685 1.353 . S
C1687 H1743 0.930 . S
C1688 N1689 1.314 . S
C1688 C1693 1.353 . S
C1688 H1694 0.930 . S
N1689 Li1672 1.990 . S
N1689 C1688 1.314 . S
N1689 C1691 1.279 . S
C1690 C1691 1.358 . S
C1690 C1692 1.356 . S
C1690 H1744 0.930 . S
C1691 N1689 1.279 . S
C1691 C1690 1.358 . S
C1691 H1695 0.930 1_545 S
C1692 C1690 1.356 . S
C1692 C1693 1.348 . S
C1693 C1688 1.353 . S
C1693 C1692 1.348 . S
C1693 H1745 0.929 . S
H1694 C1688 0.930 . S
H1695 C1691 0.930 1_565 S
C1696 N1697 1.314 . S
C1696 C1698 1.353 . S
C1696 H1702 0.930 . S
N1697 Li1673 1.990 . S
N1697 C1696 1.314 . S
N1697 C1700 1.279 . S
C1698 C1696 1.353 . S
C1698 C1701 1.348 . S
C1698 H1746 0.929 . S
C1699 C1700 1.358 . S
C1699 C1701 1.356 . S
C1699 H1747 0.930 . S
C1700 N1697 1.279 . S
C1700 C1699 1.358 . S
C1700 H1703 0.930 . S
C1701 C1698 1.348 . S
C1701 C1699 1.356 . S
H1702 C1696 0.930 . S
H1703 C1700 0.930 . S
C1704 C1706 1.348 . S
C1704 C1707 1.356 . S
C1704 O1734 1.325 . S
N1705 C1708 1.314 . S
N1705 C1709 1.279 . S
C1706 C1704 1.348 . S
C1706 C1708 1.353 . S
C1706 H1748 0.929 . S
C1707 C1704 1.356 . S
C1707 C1709 1.358 . S
C1707 H1749 0.930 . S
C1708 N1705 1.314 . S
C1708 C1706 1.353 . S
C1708 H1750 0.930 . S
C1709 N1705 1.279 . S
C1709 C1707 1.358 . S
C1709 H1751 0.930 . S
C1710 C1711 1.348 . S
C1710 C1712 1.356 . S
C1710 O1735 1.325 . S
C1711 C1710 1.348 . S
C1711 C1713 1.353 . S
C1711 H1752 0.929 . S
C1712 C1710 1.356 . S
C1712 C1714 1.358 . S
C1712 H1753 0.930 . S
C1713 C1711 1.353 . S
C1713 N1715 1.314 . S
C1713 H1754 0.930 . S
C1714 C1712 1.358 . S
C1714 N1715 1.279 . S
C1714 H1755 0.930 . S
N1715 C1713 1.314 . S
N1715 C1714 1.279 . S
C1716 C1718 1.353 . S
C1716 N1719 1.314 . S
C1716 H1722 0.930 . S
C1717 N1719 1.279 . S
C1717 C1720 1.358 . S
C1717 H1723 0.930 1_565 S
C1718 C1716 1.353 . S
C1718 C1721 1.348 . S
C1718 H1756 0.929 . S
N1719 Li1674 1.990 . S
N1719 C1716 1.314 . S
N1719 C1717 1.279 . S
C1720 C1717 1.358 . S
C1720 C1721 1.356 . S
C1720 H1757 0.930 . S
C1721 C1718 1.348 . S
C1721 C1720 1.356 . S
H1722 C1716 0.930 . S
H1723 C1717 0.930 1_545 S
C1724 N1725 1.314 . S
C1724 C1726 1.353 . S
C1724 H1730 0.930 . S
N1725 Li1675 1.990 . S
N1725 C1724 1.314 . S
N1725 C1728 1.279 . S
C1726 C1724 1.353 . S
C1726 C1729 1.348 . S
C1726 H1758 0.929 . S
C1727 C1728 1.358 . S
C1727 C1729 1.356 . S
C1727 H1759 0.930 . S
C1728 N1725 1.279 . S
C1728 C1727 1.358 . S
C1728 H1731 0.930 . S
C1729 C1726 1.348 . S
C1729 C1727 1.356 . S
H1730 C1724 0.930 . S
H1731 C1728 0.930 . S
O1732 Li1672 1.956 1_565 S
O1732 Li1673 1.970 . S
O1732 Li1674 1.961 . S
O1732 C1676 1.325 . S
O1733 Li1672 1.970 . S
O1733 Li1673 1.956 1_545 S
O1733 Li1675 1.961 . S
O1733 C1682 1.325 . S
O1734 Li1672 1.961 . S
O1734 Li1674 1.956 1_545 S
O1734 Li1675 1.970 . S
O1734 C1704 1.325 . S
O1735 Li1673 1.961 . S
O1735 Li1674 1.970 . S
O1735 Li1675 1.956 1_565 S
O1735 C1710 1.325 . S
H1736 C1678 0.929 . S
H1737 C1679 0.930 . S
H1738 C1680 0.930 . S
H1739 C1681 0.930 . S
H1740 C1683 0.930 . S
H1741 C1685 0.929 . S
H1742 C1686 0.930 . S
H1743 C1687 0.930 . S
H1744 C1690 0.930 . S
H1745 C1693 0.929 . S
H1746 C1698 0.929 . S
H1747 C1699 0.930 . S
H1748 C1706 0.929 . S
H1749 C1707 0.930 . S
H1750 C1708 0.930 . S
H1751 C1709 0.930 . S
H1752 C1711 0.929 . S
H1753 C1712 0.930 . S
H1754 C1713 0.930 . S
H1755 C1714 0.930 . S
H1756 C1718 0.929 . S
H1757 C1720 0.930 . S
H1758 C1726 0.929 . S
H1759 C1727 0.930 . S
Li1760 N1777 1.990 . S
Li1760 O1820 1.956 1_556 S
Li1760 O1821 1.970 . S
Li1760 O1822 1.961 . S
Li1761 N1785 1.990 . S
Li1761 O1820 1.970 . S
Li1761 O1821 1.956 1_554 S
Li1761 O1823 1.961 . S
Li1762 N1807 1.990 . S
Li1762 O1820 1.961 . S
Li1762 O1822 1.956 1_554 S
Li1762 O1823 1.970 . S
Li1763 N1813 1.990 . S
Li1763 O1821 1.961 . S
Li1763 O1822 1.970 . S
Li1763 O1823 1.956 1_556 S
C1764 C1766 1.348 . S
C1764 C1767 1.356 . S
C1764 O1820 1.325 . S
N1765 C1768 1.314 . S
N1765 C1769 1.279 . S
C1766 C1764 1.348 . S
C1766 C1768 1.353 . S
C1766 H1824 0.929 . S
C1767 C1764 1.356 . S
C1767 C1769 1.358 . S
C1767 H1825 0.930 . S
C1768 N1765 1.314 . S
C1768 C1766 1.353 . S
C1768 H1826 0.930 . S
C1769 N1765 1.279 . S
C1769 C1767 1.358 . S
C1769 H1827 0.930 . S
C1770 C1773 1.348 . S
C1770 C1774 1.356 . S
C1770 O1821 1.325 . S
C1771 N1772 1.279 . S
C1771 C1774 1.358 . S
C1771 H1828 0.930 . S
N1772 C1771 1.279 . S
N1772 C1775 1.314 . S
C1773 C1770 1.348 . S
C1773 C1775 1.353 . S
C1773 H1829 0.929 . S
C1774 C1770 1.356 . S
C1774 C1771 1.358 . S
C1774 H1830 0.930 . S
C1775 N1772 1.314 . S
C1775 C1773 1.353 . S
C1775 H1831 0.930 . S
C1776 N1777 1.314 . S
C1776 C1781 1.353 . S
C1776 H1782 0.930 . S
N1777 Li1760 1.990 . S
N1777 C1776 1.314 . S
N1777 C1779 1.279 . S
C1778 C1779 1.358 . S
C1778 C1780 1.356 . S
C1778 H1832 0.930 . S
C1779 N1777 1.279 . S
C1779 C1778 1.358 . S
C1779 H1783 0.930 . S
C1780 C1778 1.356 . S
C1780 C1781 1.348 . S
C1781 C1776 1.353 . S
C1781 C1780 1.348 . S
C1781 H1833 0.929 . S
H1782 C1776 0.930 . S
H1783 C1779 0.930 . S
C1784 N1785 1.314 . S
C1784 C1786 1.353 . S
C1784 H1790 0.930 . S
N1785 Li1761 1.990 . S
N1785 C1784 1.314 . S
N1785 C1788 1.279 . S
C1786 C1784 1.353 . S
C1786 C1789 1.348 . S
C1786 H1834 0.929 . S
C1787 C1788 1.358 . S
C1787 C1789 1.356 . S
C1787 H1835 0.930 . S
C1788 N1785 1.279 . S
C1788 C1787 1.358 . S
C1788 H1791 0.930 1_554 S
C1789 C1786 1.348 . S
C1789 C1787 1.356 . S
H1790 C1784 0.930 . S
H1791 C1788 0.930 1_556 S
C1792 C1794 1.348 . S
C1792 C1795 1.356 . S
C1792 O1822 1.325 . S
N1793 C1796 1.314 . S
N1793 C1797 1.279 . S
C1794 C1792 1.348 . S
C1794 C1796 1.353 . S
C1794 H1836 0.929 . S
C1795 C1792 1.356 . S
C1795 C1797 1.358 . S
C1795 H1837 0.930 . S
C1796 N1793 1.314 . S
C1796 C1794 1.353 . S
C1796 H1838 0.930 . S
C1797 N1793 1.279 . S
C1797 C1795 1.358 . S
C1797 H1839 0.930 . S
C1798 C1799 1.348 . S
C1798 C1800 1.356 . S
C1798 O1823 1.325 . S
C1799 C1798 1.348 . S
C1799 C1801 1.353 . S
C1799 H1840 0.929 . S
C1800 C1798 1.356 . S
C1800 C1802 1.358 . S
C1800 H1841 0.930 . S
C1801 C1799 1.353 . S
C1801 N1803 1.314 . S
C1801 H1842 0.930 . S
C1802 C1800 1.358 . S
C1802 N1803 1.279 . S
C1802 H1843 0.930 . S
N1803 C1801 1.314 . S
N1803 C1802 1.279 . S
C1804 C1806 1.353 . S
C1804 N1807 1.314 . S
C1804 H1810 0.930 . S
C1805 N1807 1.279 . S
C1805 C1808 1.358 . S
C1805 H1811 0.930 . S
C1806 C1804 1.353 . S
C1806 C1809 1.348 . S
C1806 H1844 0.929 . S
N1807 Li1762 1.990 . S
N1807 C1804 1.314 . S
N1807 C1805 1.279 . S
C1808 C1805 1.358 . S
C1808 C1809 1.356 . S
C1808 H1845 0.930 . S
C1809 C1806 1.348 . S
C1809 C1808 1.356 . S
H1810 C1804 0.930 . S
H1811 C1805 0.930 . S
C1812 N1813 1.314 . S
C1812 C1814 1.353 . S
C1812 H1818 0.930 . S
N1813 Li1763 1.990 . S
N1813 C1812 1.314 . S
N1813 C1816 1.279 . S
C1814 C1812 1.353 . S
C1814 C1817 1.348 . S
C1814 H1846 0.929 . S
C1815 C1816 1.358 . S
C1815 C1817 1.356 . S
C1815 H1847 0.930 . S
C1816 N1813 1.279 . S
C1816 C1815 1.358 . S
C1816 H1819 0.930 1_556 S
C1817 C1814 1.348 . S
C1817 C1815 1.356 . S
H1818 C1812 0.930 . S
H1819 C1816 0.930 1_554 S
O1820 Li1760 1.956 1_554 S
O1820 Li1761 1.970 . S
O1820 Li1762 1.961 . S
O1820 C1764 1.325 . S
O1821 Li1760 1.970 . S
O1821 Li1761 1.956 1_556 S
O1821 Li1763 1.961 . S
O1821 C1770 1.325 . S
O1822 Li1760 1.961 . S
O1822 Li1762 1.956 1_556 S
O1822 Li1763 1.970 . S
O1822 C1792 1.325 . S
O1823 Li1761 1.961 . S
O1823 Li1762 1.970 . S
O1823 Li1763 1.956 1_554 S
O1823 C1798 1.325 . S
H1824 C1766 0.929 . S
H1825 C1767 0.930 . S
H1826 C1768 0.930 . S
H1827 C1769 0.930 . S
H1828 C1771 0.930 . S
H1829 C1773 0.929 . S
H1830 C1774 0.930 . S
H1831 C1775 0.930 . S
H1832 C1778 0.930 . S
H1833 C1781 0.929 . S
H1834 C1786 0.929 . S
H1835 C1787 0.930 . S
H1836 C1794 0.929 . S
H1837 C1795 0.930 . S
H1838 C1796 0.930 . S
H1839 C1797 0.930 . S
H1840 C1799 0.929 . S
H1841 C1800 0.930 . S
H1842 C1801 0.930 . S
H1843 C1802 0.930 . S
H1844 C1806 0.929 . S
H1845 C1808 0.930 . S
H1846 C1814 0.929 . S
H1847 C1815 0.930 . S
Li1848 N1865 1.990 . S
Li1848 O1908 1.956 . S
Li1848 O1909 1.970 . S
Li1848 O1910 1.961 . S
Li1849 N1873 1.990 . S
Li1849 O1908 1.970 . S
Li1849 O1909 1.956 . S
Li1849 O1911 1.961 . S
Li1850 N1895 1.990 . S
Li1850 O1908 1.961 . S
Li1850 O1910 1.956 . S
Li1850 O1911 1.970 . S
Li1851 N1901 1.990 . S
Li1851 O1909 1.961 . S
Li1851 O1910 1.970 . S
Li1851 O1911 1.956 . S
C1852 C1854 1.348 . S
C1852 C1855 1.356 . S
C1852 O1908 1.325 . S
N1853 C1856 1.314 . S
N1853 C1857 1.279 . S
C1854 C1852 1.348 . S
C1854 C1856 1.353 . S
C1854 H1912 0.929 . S
C1855 C1852 1.356 . S
C1855 C1857 1.358 . S
C1855 H1913 0.930 . S
C1856 N1853 1.314 . S
C1856 C1854 1.353 . S
C1856 H1914 0.930 . S
C1857 N1853 1.279 . S
C1857 C1855 1.358 . S
C1857 H1915 0.930 . S
C1858 C1861 1.348 . S
C1858 C1862 1.356 . S
C1858 O1909 1.325 . S
C1859 N1860 1.279 . S
C1859 C1862 1.358 . S
C1859 H1916 0.930 . S
N1860 C1859 1.279 . S
N1860 C1863 1.314 . S
C1861 C1858 1.348 . S
C1861 C1863 1.353 . S
C1861 H1917 0.929 . S
C1862 C1858 1.356 . S
C1862 C1859 1.358 . S
C1862 H1918 0.930 . S
C1863 N1860 1.314 . S
C1863 C1861 1.353 . S
C1863 H1919 0.930 . S
C1864 N1865 1.314 . S
C1864 C1869 1.353 . S
C1864 H1870 0.930 . S
N1865 Li1848 1.990 . S
N1865 C1864 1.314 . S
N1865 C1867 1.279 . S
C1866 C1867 1.358 . S
C1866 C1868 1.356 . S
C1866 H1920 0.930 . S
C1867 N1865 1.279 . S
C1867 C1866 1.358 . S
C1867 H1871 0.930 . S
C1868 C1866 1.356 . S
C1868 C1869 1.348 . S
C1869 C1864 1.353 . S
C1869 C1868 1.348 . S
C1869 H1921 0.929 . S
H1870 C1864 0.930 . S
H1871 C1867 0.930 . S
C1872 N1873 1.314 . S
C1872 C1874 1.353 . S
C1872 H1878 0.930 . S
N1873 Li1849 1.990 . S
N1873 C1872 1.314 . S
N1873 C1876 1.279 . S
C1874 C1872 1.353 . S
C1874 C1877 1.348 . S
C1874 H1922 0.929 . S
C1875 C1876 1.358 . S
C1875 C1877 1.356 . S
C1875 H1923 0.930 . S
C1876 N1873 1.279 . S
C1876 C1875 1.358 . S
C1876 H1879 0.930 . S
C1877 C1874 1.348 . S
C1877 C1875 1.356 . S
H1878 C1872 0.930 . S
H1879 C1876 0.930 . S
C1880 C1882 1.348 . S
C1880 C1883 1.356 . S
C1880 O1910 1.325 . S
N1881 C1884 1.314 . S
N1881 C1885 1.279 . S
C1882 C1880 1.348 . S
C1882 C1884 1.353 . S
C1882 H1924 0.929 . S
C1883 C1880 1.356 . S
C1883 C1885 1.358 . S
C1883 H1925 0.930 . S
C1884 N1881 1.314 . S
C1884 C1882 1.353 . S
C1884 H1926 0.930 . S
C1885 N1881 1.279 . S
C1885 C1883 1.358 . S
C1885 H1927 0.930 . S
C1886 C1887 1.348 . S
C1886 C1888 1.356 . S
C1886 O1911 1.325 . S
C1887 C1886 1.348 . S
C1887 C1889 1.353 . S
C1887 H1928 0.929 . S
C1888 C1886 1.356 . S
C1888 C1890 1.358 . S
C1888 H1929 0.930 . S
C1889 C1887 1.353 . S
C1889 N1891 1.314 . S
C1889 H1930 0.930 . S
C1890 C1888 1.358 . S
C1890 N1891 1.279 . S
C1890 H1931 0.930 . S
N1891 C1889 1.314 . S
N1891 C1890 1.279 . S
C1892 C1894 1.353 . S
C1892 N1895 1.314 . S
C1892 H1898 0.930 . S
C1893 N1895 1.279 . S
C1893 C1896 1.358 . S
C1893 H1899 0.930 . S
C1894 C1892 1.353 . S
C1894 C1897 1.348 . S
C1894 H1932 0.929 . S
N1895 Li1850 1.990 . S
N1895 C1892 1.314 . S
N1895 C1893 1.279 . S
C1896 C1893 1.358 . S
C1896 C1897 1.356 . S
C1896 H1933 0.930 . S
C1897 C1894 1.348 . S
C1897 C1896 1.356 . S
H1898 C1892 0.930 . S
H1899 C1893 0.930 . S
C1900 N1901 1.314 . S
C1900 C1902 1.353 . S
C1900 H1906 0.930 . S
N1901 Li1851 1.990 . S
N1901 C1900 1.314 . S
N1901 C1904 1.279 . S
C1902 C1900 1.353 . S
C1902 C1905 1.348 . S
C1902 H1934 0.929 . S
C1903 C1904 1.358 . S
C1903 C1905 1.356 . S
C1903 H1935 0.930 . S
C1904 N1901 1.279 . S
C1904 C1903 1.358 . S
C1904 H1907 0.930 . S
C1905 C1902 1.348 . S
C1905 C1903 1.356 . S
H1906 C1900 0.930 . S
H1907 C1904 0.930 . S
O1908 Li1848 1.956 . S
O1908 Li1849 1.970 . S
O1908 Li1850 1.961 . S
O1908 C1852 1.325 . S
O1909 Li1848 1.970 . S
O1909 Li1849 1.956 . S
O1909 Li1851 1.961 . S
O1909 C1858 1.325 . S
O1910 Li1848 1.961 . S
O1910 Li1850 1.956 . S
O1910 Li1851 1.970 . S
O1910 C1880 1.325 . S
O1911 Li1849 1.961 . S
O1911 Li1850 1.970 . S
O1911 Li1851 1.956 . S
O1911 C1886 1.325 . S
H1912 C1854 0.929 . S
H1913 C1855 0.930 . S
H1914 C1856 0.930 . S
H1915 C1857 0.930 . S
H1916 C1859 0.930 . S
H1917 C1861 0.929 . S
H1918 C1862 0.930 . S
H1919 C1863 0.930 . S
H1920 C1866 0.930 . S
H1921 C1869 0.929 . S
H1922 C1874 0.929 . S
H1923 C1875 0.930 . S
H1924 C1882 0.929 . S
H1925 C1883 0.930 . S
H1926 C1884 0.930 . S
H1927 C1885 0.930 . S
H1928 C1887 0.929 . S
H1929 C1888 0.930 . S
H1930 C1889 0.930 . S
H1931 C1890 0.930 . S
H1932 C1894 0.929 . S
H1933 C1896 0.930 . S
H1934 C1902 0.929 . S
H1935 C1903 0.930 . S
Li1936 N1953 1.990 . S
Li1936 O1996 1.956 . S
Li1936 O1997 1.970 . S
Li1936 O1998 1.961 . S
Li1937 N1961 1.990 . S
Li1937 O1996 1.970 . S
Li1937 O1997 1.956 . S
Li1937 O1999 1.961 . S
Li1938 N1983 1.990 . S
Li1938 O1996 1.961 . S
Li1938 O1998 1.956 . S
Li1938 O1999 1.970 . S
Li1939 N1989 1.990 . S
Li1939 O1997 1.961 . S
Li1939 O1998 1.970 . S
Li1939 O1999 1.956 . S
C1940 C1942 1.348 . S
C1940 C1943 1.356 . S
C1940 O1996 1.325 . S
N1941 C1944 1.314 . S
N1941 C1945 1.279 . S
C1942 C1940 1.348 . S
C1942 C1944 1.353 . S
C1942 H2000 0.929 . S
C1943 C1940 1.356 . S
C1943 C1945 1.358 . S
C1943 H2001 0.930 . S
C1944 N1941 1.314 . S
C1944 C1942 1.353 . S
C1944 H2002 0.930 . S
C1945 N1941 1.279 . S
C1945 C1943 1.358 . S
C1945 H2003 0.930 . S
C1946 C1949 1.348 . S
C1946 C1950 1.356 . S
C1946 O1997 1.325 . S
C1947 N1948 1.279 . S
C1947 C1950 1.358 . S
C1947 H2004 0.930 . S
N1948 C1947 1.279 . S
N1948 C1951 1.314 . S
C1949 C1946 1.348 . S
C1949 C1951 1.353 . S
C1949 H2005 0.929 . S
C1950 C1946 1.356 . S
C1950 C1947 1.358 . S
C1950 H2006 0.930 . S
C1951 N1948 1.314 . S
C1951 C1949 1.353 . S
C1951 H2007 0.930 . S
C1952 N1953 1.314 . S
C1952 C1957 1.353 . S
C1952 H1958 0.930 . S
N1953 Li1936 1.990 . S
N1953 C1952 1.314 . S
N1953 C1955 1.279 . S
C1954 C1955 1.358 . S
C1954 C1956 1.356 . S
C1954 H2008 0.930 . S
C1955 N1953 1.279 . S
C1955 C1954 1.358 . S
C1955 H1959 0.930 . S
C1956 C1954 1.356 . S
C1956 C1957 1.348 . S
C1957 C1952 1.353 . S
C1957 C1956 1.348 . S
C1957 H2009 0.929 . S
H1958 C1952 0.930 . S
H1959 C1955 0.930 . S
C1960 N1961 1.314 . S
C1960 C1962 1.353 . S
C1960 H1966 0.930 . S
N1961 Li1937 1.990 . S
N1961 C1960 1.314 . S
N1961 C1964 1.279 . S
C1962 C1960 1.353 . S
C1962 C1965 1.348 . S
C1962 H2010 0.929 . S
C1963 C1964 1.358 . S
C1963 C1965 1.356 . S
C1963 H2011 0.930 . S
C1964 N1961 1.279 . S
C1964 C1963 1.358 . S
C1964 H1967 0.930 . S
C1965 C1962 1.348 . S
C1965 C1963 1.356 . S
H1966 C1960 0.930 . S
H1967 C1964 0.930 . S
C1968 C1970 1.348 . S
C1968 C1971 1.356 . S
C1968 O1998 1.325 . S
N1969 C1972 1.314 . S
N1969 C1973 1.279 . S
C1970 C1968 1.348 . S
C1970 C1972 1.353 . S
C1970 H2012 0.929 . S
C1971 C1968 1.356 . S
C1971 C1973 1.358 . S
C1971 H2013 0.930 . S
C1972 N1969 1.314 . S
C1972 C1970 1.353 . S
C1972 H2014 0.930 . S
C1973 N1969 1.279 . S
C1973 C1971 1.358 . S
C1973 H2015 0.930 . S
C1974 C1975 1.348 . S
C1974 C1976 1.356 . S
C1974 O1999 1.325 . S
C1975 C1974 1.348 . S
C1975 C1977 1.353 . S
C1975 H2016 0.929 . S
C1976 C1974 1.356 . S
C1976 C1978 1.358 . S
C1976 H2017 0.930 . S
C1977 C1975 1.353 . S
C1977 N1979 1.314 . S
C1977 H2018 0.930 . S
C1978 C1976 1.358 . S
C1978 N1979 1.279 . S
C1978 H2019 0.930 . S
N1979 C1977 1.314 . S
N1979 C1978 1.279 . S
C1980 C1982 1.353 . S
C1980 N1983 1.314 . S
C1980 H1986 0.930 . S
C1981 N1983 1.279 . S
C1981 C1984 1.358 . S
C1981 H1987 0.930 . S
C1982 C1980 1.353 . S
C1982 C1985 1.348 . S
C1982 H2020 0.929 . S
N1983 Li1938 1.990 . S
N1983 C1980 1.314 . S
N1983 C1981 1.279 . S
C1984 C1981 1.358 . S
C1984 C1985 1.356 . S
C1984 H2021 0.930 . S
C1985 C1982 1.348 . S
C1985 C1984 1.356 . S
H1986 C1980 0.930 . S
H1987 C1981 0.930 . S
C1988 N1989 1.314 . S
C1988 C1990 1.353 . S
C1988 H1994 0.930 . S
N1989 Li1939 1.990 . S
N1989 C1988 1.314 . S
N1989 C1992 1.279 . S
C1990 C1988 1.353 . S
C1990 C1993 1.348 . S
C1990 H2022 0.929 . S
C1991 C1992 1.358 . S
C1991 C1993 1.356 . S
C1991 H2023 0.930 . S
C1992 N1989 1.279 . S
C1992 C1991 1.358 . S
C1992 H1995 0.930 . S
C1993 C1990 1.348 . S
C1993 C1991 1.356 . S
H1994 C1988 0.930 . S
H1995 C1992 0.930 . S
O1996 Li1936 1.956 . S
O1996 Li1937 1.970 . S
O1996 Li1938 1.961 . S
O1996 C1940 1.325 . S
O1997 Li1936 1.970 . S
O1997 Li1937 1.956 . S
O1997 Li1939 1.961 . S
O1997 C1946 1.325 . S
O1998 Li1936 1.961 . S
O1998 Li1938 1.956 . S
O1998 Li1939 1.970 . S
O1998 C1968 1.325 . S
O1999 Li1937 1.961 . S
O1999 Li1938 1.970 . S
O1999 Li1939 1.956 . S
O1999 C1974 1.325 . S
H2000 C1942 0.929 . S
H2001 C1943 0.930 . S
H2002 C1944 0.930 . S
H2003 C1945 0.930 . S
H2004 C1947 0.930 . S
H2005 C1949 0.929 . S
H2006 C1950 0.930 . S
H2007 C1951 0.930 . S
H2008 C1954 0.930 . S
H2009 C1957 0.929 . S
H2010 C1962 0.929 . S
H2011 C1963 0.930 . S
H2012 C1970 0.929 . S
H2013 C1971 0.930 . S
H2014 C1972 0.930 . S
H2015 C1973 0.930 . S
H2016 C1975 0.929 . S
H2017 C1976 0.930 . S
H2018 C1977 0.930 . S
H2019 C1978 0.930 . S
H2020 C1982 0.929 . S
H2021 C1984 0.930 . S
H2022 C1990 0.929 . S
H2023 C1991 0.930 . S
Li2024 N2041 1.990 . S
Li2024 O2084 1.956 . S
Li2024 O2085 1.970 . S
Li2024 O2086 1.961 . S
Li2025 N2049 1.990 . S
Li2025 O2084 1.970 . S
Li2025 O2085 1.956 . S
Li2025 O2087 1.961 . S
Li2026 N2071 1.990 . S
Li2026 O2084 1.961 . S
Li2026 O2086 1.956 . S
Li2026 O2087 1.970 . S
Li2027 N2077 1.990 . S
Li2027 O2085 1.961 . S
Li2027 O2086 1.970 . S
Li2027 O2087 1.956 . S
C2028 C2030 1.348 . S
C2028 C2031 1.356 . S
C2028 O2084 1.325 . S
N2029 C2032 1.314 . S
N2029 C2033 1.279 . S
C2030 C2028 1.348 . S
C2030 C2032 1.353 . S
C2030 H2088 0.929 . S
C2031 C2028 1.356 . S
C2031 C2033 1.358 . S
C2031 H2089 0.930 . S
C2032 N2029 1.314 . S
C2032 C2030 1.353 . S
C2032 H2090 0.930 . S
C2033 N2029 1.279 . S
C2033 C2031 1.358 . S
C2033 H2091 0.930 . S
C2034 C2037 1.348 . S
C2034 C2038 1.356 . S
C2034 O2085 1.325 . S
C2035 N2036 1.279 . S
C2035 C2038 1.358 . S
C2035 H2092 0.930 . S
N2036 C2035 1.279 . S
N2036 C2039 1.314 . S
C2037 C2034 1.348 . S
C2037 C2039 1.353 . S
C2037 H2093 0.929 . S
C2038 C2034 1.356 . S
C2038 C2035 1.358 . S
C2038 H2094 0.930 . S
C2039 N2036 1.314 . S
C2039 C2037 1.353 . S
C2039 H2095 0.930 . S
C2040 N2041 1.314 . S
C2040 C2045 1.353 . S
C2040 H2046 0.930 . S
N2041 Li2024 1.990 . S
N2041 C2040 1.314 . S
N2041 C2043 1.279 . S
C2042 C2043 1.358 . S
C2042 C2044 1.356 . S
C2042 H2096 0.930 . S
C2043 N2041 1.279 . S
C2043 C2042 1.358 . S
C2043 H2047 0.930 . S
C2044 C2042 1.356 . S
C2044 C2045 1.348 . S
C2045 C2040 1.353 . S
C2045 C2044 1.348 . S
C2045 H2097 0.929 . S
H2046 C2040 0.930 . S
H2047 C2043 0.930 . S
C2048 N2049 1.314 . S
C2048 C2050 1.353 . S
C2048 H2054 0.930 . S
N2049 Li2025 1.990 . S
N2049 C2048 1.314 . S
N2049 C2052 1.279 . S
C2050 C2048 1.353 . S
C2050 C2053 1.348 . S
C2050 H2098 0.929 . S
C2051 C2052 1.358 . S
C2051 C2053 1.356 . S
C2051 H2099 0.930 . S
C2052 N2049 1.279 . S
C2052 C2051 1.358 . S
C2052 H2055 0.930 . S
C2053 C2050 1.348 . S
C2053 C2051 1.356 . S
H2054 C2048 0.930 . S
H2055 C2052 0.930 . S
C2056 C2058 1.348 . S
C2056 C2059 1.356 . S
C2056 O2086 1.325 . S
N2057 C2060 1.314 . S
N2057 C2061 1.279 . S
C2058 C2056 1.348 . S
C2058 C2060 1.353 . S
C2058 H2100 0.929 . S
C2059 C2056 1.356 . S
C2059 C2061 1.358 . S
C2059 H2101 0.930 . S
C2060 N2057 1.314 . S
C2060 C2058 1.353 . S
C2060 H2102 0.930 . S
C2061 N2057 1.279 . S
C2061 C2059 1.358 . S
C2061 H2103 0.930 . S
C2062 C2063 1.348 . S
C2062 C2064 1.356 . S
C2062 O2087 1.325 . S
C2063 C2062 1.348 . S
C2063 C2065 1.353 . S
C2063 H2104 0.929 . S
C2064 C2062 1.356 . S
C2064 C2066 1.358 . S
C2064 H2105 0.930 . S
C2065 C2063 1.353 . S
C2065 N2067 1.314 . S
C2065 H2106 0.930 . S
C2066 C2064 1.358 . S
C2066 N2067 1.279 . S
C2066 H2107 0.930 . S
N2067 C2065 1.314 . S
N2067 C2066 1.279 . S
C2068 C2070 1.353 . S
C2068 N2071 1.314 . S
C2068 H2074 0.930 . S
C2069 N2071 1.279 . S
C2069 C2072 1.358 . S
C2069 H2075 0.930 . S
C2070 C2068 1.353 . S
C2070 C2073 1.348 . S
C2070 H2108 0.929 . S
N2071 Li2026 1.990 . S
N2071 C2068 1.314 . S
N2071 C2069 1.279 . S
C2072 C2069 1.358 . S
C2072 C2073 1.356 . S
C2072 H2109 0.930 . S
C2073 C2070 1.348 . S
C2073 C2072 1.356 . S
H2074 C2068 0.930 . S
H2075 C2069 0.930 . S
C2076 N2077 1.314 . S
C2076 C2078 1.353 . S
C2076 H2082 0.930 . S
N2077 Li2027 1.990 . S
N2077 C2076 1.314 . S
N2077 C2080 1.279 . S
C2078 C2076 1.353 . S
C2078 C2081 1.348 . S
C2078 H2110 0.929 . S
C2079 C2080 1.358 . S
C2079 C2081 1.356 . S
C2079 H2111 0.930 . S
C2080 N2077 1.279 . S
C2080 C2079 1.358 . S
C2080 H2083 0.930 . S
C2081 C2078 1.348 . S
C2081 C2079 1.356 . S
H2082 C2076 0.930 . S
H2083 C2080 0.930 . S
O2084 Li2024 1.956 . S
O2084 Li2025 1.970 . S
O2084 Li2026 1.961 . S
O2084 C2028 1.325 . S
O2085 Li2024 1.970 . S
O2085 Li2025 1.956 . S
O2085 Li2027 1.961 . S
O2085 C2034 1.325 . S
O2086 Li2024 1.961 . S
O2086 Li2026 1.956 . S
O2086 Li2027 1.970 . S
O2086 C2056 1.325 . S
O2087 Li2025 1.961 . S
O2087 Li2026 1.970 . S
O2087 Li2027 1.956 . S
O2087 C2062 1.325 . S
H2088 C2030 0.929 . S
H2089 C2031 0.930 . S
H2090 C2032 0.930 . S
H2091 C2033 0.930 . S
H2092 C2035 0.930 . S
H2093 C2037 0.929 . S
H2094 C2038 0.930 . S
H2095 C2039 0.930 . S
H2096 C2042 0.930 . S
H2097 C2045 0.929 . S
H2098 C2050 0.929 . S
H2099 C2051 0.930 . S
H2100 C2058 0.929 . S
H2101 C2059 0.930 . S
H2102 C2060 0.930 . S
H2103 C2061 0.930 . S
H2104 C2063 0.929 . S
H2105 C2064 0.930 . S
H2106 C2065 0.930 . S
H2107 C2066 0.930 . S
H2108 C2070 0.929 . S
H2109 C2072 0.930 . S
H2110 C2078 0.929 . S
H2111 C2079 0.930 . S
H2112 C2120 0.950 . S
H2113 C2125 0.950 . S
H2114 C2122 0.950 . S
H2115 C2124 0.950 . S
H2116 C2126 0.950 . S
H2117 C2128 0.950 . S
H2118 C2130 0.950 . S
H2119 C2131 0.950 . S
C2120 H2112 0.950 . S
C2120 C2121 1.386 . S
C2120 C2122 1.391 . S
C2121 C2120 1.386 . S
C2121 C2125 1.393 . S
C2122 H2114 0.950 . S
C2122 C2120 1.391 . S
C2122 C2123 1.400 . S
C2123 C2122 1.400 . S
C2123 C2124 1.398 . S
C2123 C2129 1.491 . S
C2124 H2115 0.950 . S
C2124 C2123 1.398 . S
C2124 C2125 1.391 . S
C2125 H2113 0.950 . S
C2125 C2121 1.393 . S
C2125 C2124 1.391 . S
C2126 H2116 0.950 . S
C2126 C2127 1.386 . S
C2126 C2128 1.391 . S
C2127 C2126 1.386 . S
C2127 C2131 1.393 . S
C2128 H2117 0.950 . S
C2128 C2126 1.391 . S
C2128 C2129 1.400 . S
C2129 C2123 1.491 . S
C2129 C2128 1.400 . S
C2129 C2130 1.398 . S
C2130 H2118 0.950 . S
C2130 C2129 1.398 . S
C2130 C2131 1.391 . S
C2131 H2119 0.950 . S
C2131 C2127 1.393 . S
C2131 C2130 1.391 . S
H2132 C2140 0.950 . S
H2133 C2145 0.950 . S
H2134 C2142 0.950 . S
H2135 C2144 0.950 . S
H2136 C2146 0.950 . S
H2137 C2148 0.950 . S
H2138 C2150 0.950 . S
H2139 C2151 0.950 . S
C2140 H2132 0.950 . S
C2140 C2141 1.386 . S
C2140 C2142 1.391 . S
C2141 C2140 1.386 . S
C2141 C2145 1.393 . S
C2142 H2134 0.950 . S
C2142 C2140 1.391 . S
C2142 C2143 1.400 . S
C2143 C2142 1.400 . S
C2143 C2144 1.398 . S
C2143 C2149 1.491 . S
C2144 H2135 0.950 . S
C2144 C2143 1.398 . S
C2144 C2145 1.391 . S
C2145 H2133 0.950 . S
C2145 C2141 1.393 . S
C2145 C2144 1.391 . S
C2146 H2136 0.950 . S
C2146 C2147 1.386 . S
C2146 C2148 1.391 . S
C2147 C2146 1.386 . S
C2147 C2151 1.393 . S
C2148 H2137 0.950 . S
C2148 C2146 1.391 . S
C2148 C2149 1.400 . S
C2149 C2143 1.491 . S
C2149 C2148 1.400 . S
C2149 C2150 1.398 . S
C2150 H2138 0.950 . S
C2150 C2149 1.398 . S
C2150 C2151 1.391 . S
C2151 H2139 0.950 . S
C2151 C2147 1.393 . S
C2151 C2150 1.391 . S
H2152 C2160 0.950 . S
H2153 C2165 0.950 . S
H2154 C2162 0.950 . S
H2155 C2164 0.950 . S
H2156 C2166 0.950 . S
H2157 C2168 0.950 . S
H2158 C2170 0.950 . S
H2159 C2171 0.950 . S
C2160 H2152 0.950 . S
C2160 C2161 1.386 . S
C2160 C2162 1.391 . S
C2161 C2160 1.386 . S
C2161 C2165 1.393 . S
C2162 H2154 0.950 . S
C2162 C2160 1.391 . S
C2162 C2163 1.400 . S
C2163 C2162 1.400 . S
C2163 C2164 1.398 . S
C2163 C2169 1.491 . S
C2164 H2155 0.950 . S
C2164 C2163 1.398 . S
C2164 C2165 1.391 . S
C2165 H2153 0.950 . S
C2165 C2161 1.393 . S
C2165 C2164 1.391 . S
C2166 H2156 0.950 . S
C2166 C2167 1.386 . S
C2166 C2168 1.391 . S
C2167 C2166 1.386 . S
C2167 C2171 1.393 . S
C2168 H2157 0.950 . S
C2168 C2166 1.391 . S
C2168 C2169 1.400 . S
C2169 C2163 1.491 . S
C2169 C2168 1.400 . S
C2169 C2170 1.398 . S
C2170 H2158 0.950 . S
C2170 C2169 1.398 . S
C2170 C2171 1.391 . S
C2171 H2159 0.950 . S
C2171 C2167 1.393 . S
C2171 C2170 1.391 . S
H2172 C2180 0.950 . S
H2173 C2185 0.950 . S
H2174 C2182 0.950 . S
H2175 C2184 0.950 . S
H2176 C2186 0.950 . S
H2177 C2188 0.950 . S
H2178 C2190 0.950 . S
H2179 C2191 0.950 . S
C2180 H2172 0.950 . S
C2180 C2181 1.386 . S
C2180 C2182 1.391 . S
C2181 C2180 1.386 . S
C2181 C2185 1.393 . S
C2182 H2174 0.950 . S
C2182 C2180 1.391 . S
C2182 C2183 1.400 . S
C2183 C2182 1.400 . S
C2183 C2184 1.398 . S
C2183 C2189 1.491 . S
C2184 H2175 0.950 . S
C2184 C2183 1.398 . S
C2184 C2185 1.391 . S
C2185 H2173 0.950 . S
C2185 C2181 1.393 . S
C2185 C2184 1.391 . S
C2186 H2176 0.950 . S
C2186 C2187 1.386 . S
C2186 C2188 1.391 . S
C2187 C2186 1.386 . S
C2187 C2191 1.393 . S
C2188 H2177 0.950 . S
C2188 C2186 1.391 . S
C2188 C2189 1.400 . S
C2189 C2183 1.491 . S
C2189 C2188 1.400 . S
C2189 C2190 1.398 . S
C2190 H2178 0.950 . S
C2190 C2189 1.398 . S
C2190 C2191 1.391 . S
C2191 H2179 0.950 . S
C2191 C2187 1.393 . S
C2191 C2190 1.391 . S
H2192 C2200 0.950 . S
H2193 C2205 0.950 . S
H2194 C2202 0.950 . S
H2195 C2204 0.950 . S
H2196 C2206 0.950 . S
H2197 C2208 0.950 . S
H2198 C2210 0.950 . S
H2199 C2211 0.950 . S
C2200 H2192 0.950 . S
C2200 C2201 1.386 . S
C2200 C2202 1.391 . S
C2201 C2200 1.386 . S
C2201 C2205 1.393 . S
C2202 H2194 0.950 . S
C2202 C2200 1.391 . S
C2202 C2203 1.400 . S
C2203 C2202 1.400 . S
C2203 C2204 1.398 . S
C2203 C2209 1.491 . S
C2204 H2195 0.950 . S
C2204 C2203 1.398 . S
C2204 C2205 1.391 . S
C2205 H2193 0.950 . S
C2205 C2201 1.393 . S
C2205 C2204 1.391 . S
C2206 H2196 0.950 . S
C2206 C2207 1.386 . S
C2206 C2208 1.391 . S
C2207 C2206 1.386 . S
C2207 C2211 1.393 . S
C2208 H2197 0.950 . S
C2208 C2206 1.391 . S
C2208 C2209 1.400 . S
C2209 C2203 1.491 . S
C2209 C2208 1.400 . S
C2209 C2210 1.398 . S
C2210 H2198 0.950 . S
C2210 C2209 1.398 . S
C2210 C2211 1.391 . S
C2211 H2199 0.950 . S
C2211 C2207 1.393 . S
C2211 C2210 1.391 . S
H2212 C2220 0.950 . S
H2213 C2225 0.950 . S
H2214 C2222 0.950 . S
H2215 C2224 0.950 . S
H2216 C2226 0.950 . S
H2217 C2228 0.950 . S
H2218 C2230 0.950 . S
H2219 C2231 0.950 . S
C2220 H2212 0.950 . S
C2220 C2221 1.386 . S
C2220 C2222 1.391 . S
C2221 C2220 1.386 . S
C2221 C2225 1.393 . S
C2222 H2214 0.950 . S
C2222 C2220 1.391 . S
C2222 C2223 1.400 . S
C2223 C2222 1.400 . S
C2223 C2224 1.398 . S
C2223 C2229 1.491 . S
C2224 H2215 0.950 . S
C2224 C2223 1.398 . S
C2224 C2225 1.391 . S
C2225 H2213 0.950 . S
C2225 C2221 1.393 . S
C2225 C2224 1.391 . S
C2226 H2216 0.950 . S
C2226 C2227 1.386 . S
C2226 C2228 1.391 . S
C2227 C2226 1.386 . S
C2227 C2231 1.393 . S
C2228 H2217 0.950 . S
C2228 C2226 1.391 . S
C2228 C2229 1.400 . S
C2229 C2223 1.491 . S
C2229 C2228 1.400 . S
C2229 C2230 1.398 . S
C2230 H2218 0.950 . S
C2230 C2229 1.398 . S
C2230 C2231 1.391 . S
C2231 H2219 0.950 . S
C2231 C2227 1.393 . S
C2231 C2230 1.391 . S
H2232 C2240 0.950 . S
H2233 C2245 0.950 . S
H2234 C2242 0.950 . S
H2235 C2244 0.950 . S
H2236 C2246 0.950 . S
H2237 C2248 0.950 . S
H2238 C2250 0.950 . S
H2239 C2251 0.950 . S
C2240 H2232 0.950 . S
C2240 C2241 1.386 . S
C2240 C2242 1.391 . S
C2241 C2240 1.386 . S
C2241 C2245 1.393 . S
C2242 H2234 0.950 . S
C2242 C2240 1.391 . S
C2242 C2243 1.400 . S
C2243 C2242 1.400 . S
C2243 C2244 1.398 . S
C2243 C2249 1.491 . S
C2244 H2235 0.950 . S
C2244 C2243 1.398 . S
C2244 C2245 1.391 . S
C2245 H2233 0.950 . S
C2245 C2241 1.393 . S
C2245 C2244 1.391 . S
C2246 H2236 0.950 . S
C2246 C2247 1.386 . S
C2246 C2248 1.391 . S
C2247 C2246 1.386 . S
C2247 C2251 1.393 . S
C2248 H2237 0.950 . S
C2248 C2246 1.391 . S
C2248 C2249 1.400 . S
C2249 C2243 1.491 . S
C2249 C2248 1.400 . S
C2249 C2250 1.398 . S
C2250 H2238 0.950 . S
C2250 C2249 1.398 . S
C2250 C2251 1.391 . S
C2251 H2239 0.950 . S
C2251 C2247 1.393 . S
C2251 C2250 1.391 . S
H2252 C2260 0.950 . S
H2253 C2265 0.950 . S
H2254 C2262 0.950 . S
H2255 C2264 0.950 . S
H2256 C2266 0.950 . S
H2257 C2268 0.950 . S
H2258 C2270 0.950 . S
H2259 C2271 0.950 . S
C2260 H2252 0.950 . S
C2260 C2261 1.386 . S
C2260 C2262 1.391 . S
C2261 C2260 1.386 . S
C2261 C2265 1.393 . S
C2262 H2254 0.950 . S
C2262 C2260 1.391 . S
C2262 C2263 1.400 . S
C2263 C2262 1.400 . S
C2263 C2264 1.398 . S
C2263 C2269 1.491 . S
C2264 H2255 0.950 . S
C2264 C2263 1.398 . S
C2264 C2265 1.391 . S
C2265 H2253 0.950 . S
C2265 C2261 1.393 . S
C2265 C2264 1.391 . S
C2266 H2256 0.950 . S
C2266 C2267 1.386 . S
C2266 C2268 1.391 . S
C2267 C2266 1.386 . S
C2267 C2271 1.393 . S
C2268 H2257 0.950 . S
C2268 C2266 1.391 . S
C2268 C2269 1.400 . S
C2269 C2263 1.491 . S
C2269 C2268 1.400 . S
C2269 C2270 1.398 . S
C2270 H2258 0.950 . S
C2270 C2269 1.398 . S
C2270 C2271 1.391 . S
C2271 H2259 0.950 . S
C2271 C2267 1.393 . S
C2271 C2270 1.391 . S
H2272 C2280 0.950 . S
H2273 C2285 0.950 . S
H2274 C2282 0.950 . S
H2275 C2284 0.950 . S
H2276 C2286 0.950 . S
H2277 C2288 0.950 . S
H2278 C2290 0.950 . S
H2279 C2291 0.950 . S
C2280 H2272 0.950 . S
C2280 C2281 1.386 . S
C2280 C2282 1.391 . S
C2281 C2280 1.386 . S
C2281 C2285 1.393 . S
C2282 H2274 0.950 . S
C2282 C2280 1.391 . S
C2282 C2283 1.400 . S
C2283 C2282 1.400 . S
C2283 C2284 1.398 . S
C2283 C2289 1.491 . S
C2284 H2275 0.950 . S
C2284 C2283 1.398 . S
C2284 C2285 1.391 . S
C2285 H2273 0.950 . S
C2285 C2281 1.393 . S
C2285 C2284 1.391 . S
C2286 H2276 0.950 . S
C2286 C2287 1.386 . S
C2286 C2288 1.391 . S
C2287 C2286 1.386 . S
C2287 C2291 1.393 . S
C2288 H2277 0.950 . S
C2288 C2286 1.391 . S
C2288 C2289 1.400 . S
C2289 C2283 1.491 . S
C2289 C2288 1.400 . S
C2289 C2290 1.398 . S
C2290 H2278 0.950 . S
C2290 C2289 1.398 . S
C2290 C2291 1.391 . S
C2291 H2279 0.950 . S
C2291 C2287 1.393 . S
C2291 C2290 1.391 . S
H2292 C2300 0.950 . S
H2293 C2305 0.950 . S
H2294 C2302 0.950 . S
H2295 C2304 0.950 . S
H2296 C2306 0.950 . S
H2297 C2308 0.950 . S
H2298 C2310 0.950 . S
H2299 C2311 0.950 . S
C2300 H2292 0.950 . S
C2300 C2301 1.386 . S
C2300 C2302 1.391 . S
C2301 C2300 1.386 . S
C2301 C2305 1.393 . S
C2302 H2294 0.950 . S
C2302 C2300 1.391 . S
C2302 C2303 1.400 . S
C2303 C2302 1.400 . S
C2303 C2304 1.398 . S
C2303 C2309 1.491 . S
C2304 H2295 0.950 . S
C2304 C2303 1.398 . S
C2304 C2305 1.391 . S
C2305 H2293 0.950 . S
C2305 C2301 1.393 . S
C2305 C2304 1.391 . S
C2306 H2296 0.950 . S
C2306 C2307 1.386 . S
C2306 C2308 1.391 . S
C2307 C2306 1.386 . S
C2307 C2311 1.393 . S
C2308 H2297 0.950 . S
C2308 C2306 1.391 . S
C2308 C2309 1.400 . S
C2309 C2303 1.491 . S
C2309 C2308 1.400 . S
C2309 C2310 1.398 . S
C2310 H2298 0.950 . S
C2310 C2309 1.398 . S
C2310 C2311 1.391 . S
C2311 H2299 0.950 . S
C2311 C2307 1.393 . S
C2311 C2310 1.391 . S
H2312 C2320 0.950 . S
H2313 C2325 0.950 . S
H2314 C2322 0.950 . S
H2315 C2324 0.950 . S
H2316 C2326 0.950 . S
H2317 C2328 0.950 . S
H2318 C2330 0.950 . S
H2319 C2331 0.950 . S
C2320 H2312 0.950 . S
C2320 C2321 1.386 . S
C2320 C2322 1.391 . S
C2321 C2320 1.386 . S
C2321 C2325 1.393 . S
C2322 H2314 0.950 . S
C2322 C2320 1.391 . S
C2322 C2323 1.400 . S
C2323 C2322 1.400 . S
C2323 C2324 1.398 . S
C2323 C2329 1.491 . S
C2324 H2315 0.950 . S
C2324 C2323 1.398 . S
C2324 C2325 1.391 . S
C2325 H2313 0.950 . S
C2325 C2321 1.393 . S
C2325 C2324 1.391 . S
C2326 H2316 0.950 . S
C2326 C2327 1.386 . S
C2326 C2328 1.391 . S
C2327 C2326 1.386 . S
C2327 C2331 1.393 . S
C2328 H2317 0.950 . S
C2328 C2326 1.391 . S
C2328 C2329 1.400 . S
C2329 C2323 1.491 . S
C2329 C2328 1.400 . S
C2329 C2330 1.398 . S
C2330 H2318 0.950 . S
C2330 C2329 1.398 . S
C2330 C2331 1.391 . S
C2331 H2319 0.950 . S
C2331 C2327 1.393 . S
C2331 C2330 1.391 . S
H2332 C2340 0.950 . S
H2333 C2345 0.950 . S
H2334 C2342 0.950 . S
H2335 C2344 0.950 . S
H2336 C2346 0.950 . S
H2337 C2348 0.950 . S
H2338 C2350 0.950 . S
H2339 C2351 0.950 . S
C2340 H2332 0.950 . S
C2340 C2341 1.386 . S
C2340 C2342 1.391 . S
C2341 C2340 1.386 . S
C2341 C2345 1.393 . S
C2342 H2334 0.950 . S
C2342 C2340 1.391 . S
C2342 C2343 1.400 . S
C2343 C2342 1.400 . S
C2343 C2344 1.398 . S
C2343 C2349 1.491 . S
C2344 H2335 0.950 . S
C2344 C2343 1.398 . S
C2344 C2345 1.391 . S
C2345 H2333 0.950 . S
C2345 C2341 1.393 . S
C2345 C2344 1.391 . S
C2346 H2336 0.950 . S
C2346 C2347 1.386 . S
C2346 C2348 1.391 . S
C2347 C2346 1.386 . S
C2347 C2351 1.393 . S
C2348 H2337 0.950 . S
C2348 C2346 1.391 . S
C2348 C2349 1.400 . S
C2349 C2343 1.491 . S
C2349 C2348 1.400 . S
C2349 C2350 1.398 . S
C2350 H2338 0.950 . S
C2350 C2349 1.398 . S
C2350 C2351 1.391 . S
C2351 H2339 0.950 . S
C2351 C2347 1.393 . S
C2351 C2350 1.391 . S
H2352 C2360 0.950 . S
H2353 C2365 0.950 . S
H2354 C2362 0.950 . S
H2355 C2364 0.950 . S
H2356 C2366 0.950 . S
H2357 C2368 0.950 . S
H2358 C2370 0.950 . S
H2359 C2371 0.950 . S
C2360 H2352 0.950 . S
C2360 C2361 1.386 . S
C2360 C2362 1.391 . S
C2361 C2360 1.386 . S
C2361 C2365 1.393 . S
C2362 H2354 0.950 . S
C2362 C2360 1.391 . S
C2362 C2363 1.400 . S
C2363 C2362 1.400 . S
C2363 C2364 1.398 . S
C2363 C2369 1.491 . S
C2364 H2355 0.950 . S
C2364 C2363 1.398 . S
C2364 C2365 1.391 . S
C2365 H2353 0.950 . S
C2365 C2361 1.393 . S
C2365 C2364 1.391 . S
C2366 H2356 0.950 . S
C2366 C2367 1.386 . S
C2366 C2368 1.391 . S
C2367 C2366 1.386 . S
C2367 C2371 1.393 . S
C2368 H2357 0.950 . S
C2368 C2366 1.391 . S
C2368 C2369 1.400 . S
C2369 C2363 1.491 . S
C2369 C2368 1.400 . S
C2369 C2370 1.398 . S
C2370 H2358 0.950 . S
C2370 C2369 1.398 . S
C2370 C2371 1.391 . S
C2371 H2359 0.950 . S
C2371 C2367 1.393 . S
C2371 C2370 1.391 . S
H2372 C2380 0.950 . S
H2373 C2385 0.950 . S
H2374 C2382 0.950 . S
H2375 C2384 0.950 . S
H2376 C2386 0.950 . S
H2377 C2388 0.950 . S
H2378 C2390 0.950 . S
H2379 C2391 0.950 . S
C2380 H2372 0.950 . S
C2380 C2381 1.386 . S
C2380 C2382 1.391 . S
C2381 C2380 1.386 . S
C2381 C2385 1.393 . S
C2382 H2374 0.950 . S
C2382 C2380 1.391 . S
C2382 C2383 1.400 . S
C2383 C2382 1.400 . S
C2383 C2384 1.398 . S
C2383 C2389 1.491 . S
C2384 H2375 0.950 . S
C2384 C2383 1.398 . S
C2384 C2385 1.391 . S
C2385 H2373 0.950 . S
C2385 C2381 1.393 . S
C2385 C2384 1.391 . S
C2386 H2376 0.950 . S
C2386 C2387 1.386 . S
C2386 C2388 1.391 . S
C2387 C2386 1.386 . S
C2387 C2391 1.393 . S
C2388 H2377 0.950 . S
C2388 C2386 1.391 . S
C2388 C2389 1.400 . S
C2389 C2383 1.491 . S
C2389 C2388 1.400 . S
C2389 C2390 1.398 . S
C2390 H2378 0.950 . S
C2390 C2389 1.398 . S
C2390 C2391 1.391 . S
C2391 H2379 0.950 . S
C2391 C2387 1.393 . S
C2391 C2390 1.391 . S
H2392 C2400 0.950 . S
H2393 C2405 0.950 . S
H2394 C2402 0.950 . S
H2395 C2404 0.950 . S
H2396 C2406 0.950 . S
H2397 C2408 0.950 . S
H2398 C2410 0.950 . S
H2399 C2411 0.950 . S
C2400 H2392 0.950 . S
C2400 C2401 1.386 . S
C2400 C2402 1.391 . S
C2401 C2400 1.386 . S
C2401 C2405 1.393 . S
C2402 H2394 0.950 . S
C2402 C2400 1.391 . S
C2402 C2403 1.400 . S
C2403 C2402 1.400 . S
C2403 C2404 1.398 . S
C2403 C2409 1.491 . S
C2404 H2395 0.950 . S
C2404 C2403 1.398 . S
C2404 C2405 1.391 . S
C2405 H2393 0.950 . S
C2405 C2401 1.393 . S
C2405 C2404 1.391 . S
C2406 H2396 0.950 . S
C2406 C2407 1.386 . S
C2406 C2408 1.391 . S
C2407 C2406 1.386 . S
C2407 C2411 1.393 . S
C2408 H2397 0.950 . S
C2408 C2406 1.391 . S
C2408 C2409 1.400 . S
C2409 C2403 1.491 . S
C2409 C2408 1.400 . S
C2409 C2410 1.398 . S
C2410 H2398 0.950 . S
C2410 C2409 1.398 . S
C2410 C2411 1.391 . S
C2411 H2399 0.950 . S
C2411 C2407 1.393 . S
C2411 C2410 1.391 . S
H2412 C2420 0.950 . S
H2413 C2425 0.950 . S
H2414 C2422 0.950 . S
H2415 C2424 0.950 . S
H2416 C2426 0.950 . S
H2417 C2428 0.950 . S
H2418 C2430 0.950 . S
H2419 C2431 0.950 . S
C2420 H2412 0.950 . S
C2420 C2421 1.386 . S
C2420 C2422 1.391 . S
C2421 C2420 1.386 . S
C2421 C2425 1.393 . S
C2422 H2414 0.950 . S
C2422 C2420 1.391 . S
C2422 C2423 1.400 . S
C2423 C2422 1.400 . S
C2423 C2424 1.398 . S
C2423 C2429 1.491 . S
C2424 H2415 0.950 . S
C2424 C2423 1.398 . S
C2424 C2425 1.391 . S
C2425 H2413 0.950 . S
C2425 C2421 1.393 . S
C2425 C2424 1.391 . S
C2426 H2416 0.950 . S
C2426 C2427 1.386 . S
C2426 C2428 1.391 . S
C2427 C2426 1.386 . S
C2427 C2431 1.393 . S
C2428 H2417 0.950 . S
C2428 C2426 1.391 . S
C2428 C2429 1.400 . S
C2429 C2423 1.491 . S
C2429 C2428 1.400 . S
C2429 C2430 1.398 . S
C2430 H2418 0.950 . S
C2430 C2429 1.398 . S
C2430 C2431 1.391 . S
C2431 H2419 0.950 . S
C2431 C2427 1.393 . S
C2431 C2430 1.391 . S
H2432 C2440 0.950 . S
H2433 C2445 0.950 . S
H2434 C2442 0.950 . S
H2435 C2444 0.950 . S
H2436 C2446 0.950 . S
H2437 C2448 0.950 . S
H2438 C2450 0.950 . S
H2439 C2451 0.950 . S
C2440 H2432 0.950 . S
C2440 C2441 1.386 . S
C2440 C2442 1.391 . S
C2441 C2440 1.386 . S
C2441 C2445 1.393 . S
C2442 H2434 0.950 . S
C2442 C2440 1.391 . S
C2442 C2443 1.400 . S
C2443 C2442 1.400 . S
C2443 C2444 1.398 . S
C2443 C2449 1.491 . S
C2444 H2435 0.950 . S
C2444 C2443 1.398 . S
C2444 C2445 1.391 . S
C2445 H2433 0.950 . S
C2445 C2441 1.393 . S
C2445 C2444 1.391 . S
C2446 H2436 0.950 . S
C2446 C2447 1.386 . S
C2446 C2448 1.391 . S
C2447 C2446 1.386 . S
C2447 C2451 1.393 . S
C2448 H2437 0.950 . S
C2448 C2446 1.391 . S
C2448 C2449 1.400 . S
C2449 C2443 1.491 . S
C2449 C2448 1.400 . S
C2449 C2450 1.398 . S
C2450 H2438 0.950 . S
C2450 C2449 1.398 . S
C2450 C2451 1.391 . S
C2451 H2439 0.950 . S
C2451 C2447 1.393 . S
C2451 C2450 1.391 . S
H2452 C2460 0.950 . S
H2453 C2465 0.950 . S
H2454 C2462 0.950 . S
H2455 C2464 0.950 . S
H2456 C2466 0.950 . S
H2457 C2468 0.950 . S
H2458 C2470 0.950 . S
H2459 C2471 0.950 . S
C2460 H2452 0.950 . S
C2460 C2461 1.386 . S
C2460 C2462 1.391 . S
C2461 C2460 1.386 . S
C2461 C2465 1.393 . S
C2462 H2454 0.950 . S
C2462 C2460 1.391 . S
C2462 C2463 1.400 . S
C2463 C2462 1.400 . S
C2463 C2464 1.398 . S
C2463 C2469 1.491 . S
C2464 H2455 0.950 . S
C2464 C2463 1.398 . S
C2464 C2465 1.391 . S
C2465 H2453 0.950 . S
C2465 C2461 1.393 . S
C2465 C2464 1.391 . S
C2466 H2456 0.950 . S
C2466 C2467 1.386 . S
C2466 C2468 1.391 . S
C2467 C2466 1.386 . S
C2467 C2471 1.393 . S
C2468 H2457 0.950 . S
C2468 C2466 1.391 . S
C2468 C2469 1.400 . S
C2469 C2463 1.491 . S
C2469 C2468 1.400 . S
C2469 C2470 1.398 . S
C2470 H2458 0.950 . S
C2470 C2469 1.398 . S
C2470 C2471 1.391 . S
C2471 H2459 0.950 . S
C2471 C2467 1.393 . S
C2471 C2470 1.391 . S
H2472 C2480 0.950 . S
H2473 C2485 0.950 . S
H2474 C2482 0.950 . S
H2475 C2484 0.950 . S
H2476 C2486 0.950 . S
H2477 C2488 0.950 . S
H2478 C2490 0.950 . S
H2479 C2491 0.950 . S
C2480 H2472 0.950 . S
C2480 C2481 1.386 . S
C2480 C2482 1.391 . S
C2481 C2480 1.386 . S
C2481 C2485 1.393 . S
C2482 H2474 0.950 . S
C2482 C2480 1.391 . S
C2482 C2483 1.400 . S
C2483 C2482 1.400 . S
C2483 C2484 1.398 . S
C2483 C2489 1.491 . S
C2484 H2475 0.950 . S
C2484 C2483 1.398 . S
C2484 C2485 1.391 . S
C2485 H2473 0.950 . S
C2485 C2481 1.393 . S
C2485 C2484 1.391 . S
C2486 H2476 0.950 . S
C2486 C2487 1.386 . S
C2486 C2488 1.391 . S
C2487 C2486 1.386 . S
C2487 C2491 1.393 . S
C2488 H2477 0.950 . S
C2488 C2486 1.391 . S
C2488 C2489 1.400 . S
C2489 C2483 1.491 . S
C2489 C2488 1.400 . S
C2489 C2490 1.398 . S
C2490 H2478 0.950 . S
C2490 C2489 1.398 . S
C2490 C2491 1.391 . S
C2491 H2479 0.950 . S
C2491 C2487 1.393 . S
C2491 C2490 1.391 . S
H2492 C2500 0.950 . S
H2493 C2505 0.950 . S
H2494 C2502 0.950 . S
H2495 C2504 0.950 . S
H2496 C2506 0.950 . S
H2497 C2508 0.950 . S
H2498 C2510 0.950 . S
H2499 C2511 0.950 . S
C2500 H2492 0.950 . S
C2500 C2501 1.386 . S
C2500 C2502 1.391 . S
C2501 C2500 1.386 . S
C2501 C2505 1.393 . S
C2502 H2494 0.950 . S
C2502 C2500 1.391 . S
C2502 C2503 1.400 . S
C2503 C2502 1.400 . S
C2503 C2504 1.398 . S
C2503 C2509 1.491 . S
C2504 H2495 0.950 . S
C2504 C2503 1.398 . S
C2504 C2505 1.391 . S
C2505 H2493 0.950 . S
C2505 C2501 1.393 . S
C2505 C2504 1.391 . S
C2506 H2496 0.950 . S
C2506 C2507 1.386 . S
C2506 C2508 1.391 . S
C2507 C2506 1.386 . S
C2507 C2511 1.393 . S
C2508 H2497 0.950 . S
C2508 C2506 1.391 . S
C2508 C2509 1.400 . S
C2509 C2503 1.491 . S
C2509 C2508 1.400 . S
C2509 C2510 1.398 . S
C2510 H2498 0.950 . S
C2510 C2509 1.398 . S
C2510 C2511 1.391 . S
C2511 H2499 0.950 . S
C2511 C2507 1.393 . S
C2511 C2510 1.391 . S
H2512 C2520 0.950 . S
H2513 C2525 0.950 . S
H2514 C2522 0.950 . S
H2515 C2524 0.950 . S
H2516 C2526 0.950 . S
H2517 C2528 0.950 . S
H2518 C2530 0.950 . S
H2519 C2531 0.950 . S
C2520 H2512 0.950 . S
C2520 C2521 1.386 . S
C2520 C2522 1.391 . S
C2521 C2520 1.386 . S
C2521 C2525 1.393 . S
C2522 H2514 0.950 . S
C2522 C2520 1.391 . S
C2522 C2523 1.400 . S
C2523 C2522 1.400 . S
C2523 C2524 1.398 . S
C2523 C2529 1.491 . S
C2524 H2515 0.950 . S
C2524 C2523 1.398 . S
C2524 C2525 1.391 . S
C2525 H2513 0.950 . S
C2525 C2521 1.393 . S
C2525 C2524 1.391 . S
C2526 H2516 0.950 . S
C2526 C2527 1.386 . S
C2526 C2528 1.391 . S
C2527 C2526 1.386 . S
C2527 C2531 1.393 . S
C2528 H2517 0.950 . S
C2528 C2526 1.391 . S
C2528 C2529 1.400 . S
C2529 C2523 1.491 . S
C2529 C2528 1.400 . S
C2529 C2530 1.398 . S
C2530 H2518 0.950 . S
C2530 C2529 1.398 . S
C2530 C2531 1.391 . S
C2531 H2519 0.950 . S
C2531 C2527 1.393 . S
C2531 C2530 1.391 . S
H2532 C2540 0.950 . S
H2533 C2545 0.950 . S
H2534 C2542 0.950 . S
H2535 C2544 0.950 . S
H2536 C2546 0.950 . S
H2537 C2548 0.950 . S
H2538 C2550 0.950 . S
H2539 C2551 0.950 . S
C2540 H2532 0.950 . S
C2540 C2541 1.386 . S
C2540 C2542 1.391 . S
C2541 C2540 1.386 . S
C2541 C2545 1.393 . S
C2542 H2534 0.950 . S
C2542 C2540 1.391 . S
C2542 C2543 1.400 . S
C2543 C2542 1.400 . S
C2543 C2544 1.398 . S
C2543 C2549 1.491 . S
C2544 H2535 0.950 . S
C2544 C2543 1.398 . S
C2544 C2545 1.391 . S
C2545 H2533 0.950 . S
C2545 C2541 1.393 . S
C2545 C2544 1.391 . S
C2546 H2536 0.950 . S
C2546 C2547 1.386 . S
C2546 C2548 1.391 . S
C2547 C2546 1.386 . S
C2547 C2551 1.393 . S
C2548 H2537 0.950 . S
C2548 C2546 1.391 . S
C2548 C2549 1.400 . S
C2549 C2543 1.491 . S
C2549 C2548 1.400 . S
C2549 C2550 1.398 . S
C2550 H2538 0.950 . S
C2550 C2549 1.398 . S
C2550 C2551 1.391 . S
C2551 H2539 0.950 . S
C2551 C2547 1.393 . S
C2551 C2550 1.391 . S
H2552 C2560 0.950 . S
H2553 C2565 0.950 . S
H2554 C2562 0.950 . S
H2555 C2564 0.950 . S
H2556 C2566 0.950 . S
H2557 C2568 0.950 . S
H2558 C2570 0.950 . S
H2559 C2571 0.950 . S
C2560 H2552 0.950 . S
C2560 C2561 1.386 . S
C2560 C2562 1.391 . S
C2561 C2560 1.386 . S
C2561 C2565 1.393 . S
C2562 H2554 0.950 . S
C2562 C2560 1.391 . S
C2562 C2563 1.400 . S
C2563 C2562 1.400 . S
C2563 C2564 1.398 . S
C2563 C2569 1.491 . S
C2564 H2555 0.950 . S
C2564 C2563 1.398 . S
C2564 C2565 1.391 . S
C2565 H2553 0.950 . S
C2565 C2561 1.393 . S
C2565 C2564 1.391 . S
C2566 H2556 0.950 . S
C2566 C2567 1.386 . S
C2566 C2568 1.391 . S
C2567 C2566 1.386 . S
C2567 C2571 1.393 . S
C2568 H2557 0.950 . S
C2568 C2566 1.391 . S
C2568 C2569 1.400 . S
C2569 C2563 1.491 . S
C2569 C2568 1.400 . S
C2569 C2570 1.398 . S
C2570 H2558 0.950 . S
C2570 C2569 1.398 . S
C2570 C2571 1.391 . S
C2571 H2559 0.950 . S
C2571 C2567 1.393 . S
C2571 C2570 1.391 . S
H2572 C2580 0.950 . S
H2573 C2585 0.950 . S
H2574 C2582 0.950 . S
H2575 C2584 0.950 . S
H2576 C2586 0.950 . S
H2577 C2588 0.950 . S
H2578 C2590 0.950 . S
H2579 C2591 0.950 . S
C2580 H2572 0.950 . S
C2580 C2581 1.386 . S
C2580 C2582 1.391 . S
C2581 C2580 1.386 . S
C2581 C2585 1.393 . S
C2582 H2574 0.950 . S
C2582 C2580 1.391 . S
C2582 C2583 1.400 . S
C2583 C2582 1.400 . S
C2583 C2584 1.398 . S
C2583 C2589 1.491 . S
C2584 H2575 0.950 . S
C2584 C2583 1.398 . S
C2584 C2585 1.391 . S
C2585 H2573 0.950 . S
C2585 C2581 1.393 . S
C2585 C2584 1.391 . S
C2586 H2576 0.950 . S
C2586 C2587 1.386 . S
C2586 C2588 1.391 . S
C2587 C2586 1.386 . S
C2587 C2591 1.393 . S
C2588 H2577 0.950 . S
C2588 C2586 1.391 . S
C2588 C2589 1.400 . S
C2589 C2583 1.491 . S
C2589 C2588 1.400 . S
C2589 C2590 1.398 . S
C2590 H2578 0.950 . S
C2590 C2589 1.398 . S
C2590 C2591 1.391 . S
C2591 H2579 0.950 . S
C2591 C2587 1.393 . S
C2591 C2590 1.391 . S
H2592 C2600 0.950 . S
H2593 C2605 0.950 . S
H2594 C2602 0.950 . S
H2595 C2604 0.950 . S
H2596 C2606 0.950 . S
H2597 C2608 0.950 . S
H2598 C2610 0.950 . S
H2599 C2611 0.950 . S
C2600 H2592 0.950 . S
C2600 C2601 1.386 . S
C2600 C2602 1.391 . S
C2601 C2600 1.386 . S
C2601 C2605 1.393 . S
C2602 H2594 0.950 . S
C2602 C2600 1.391 . S
C2602 C2603 1.400 . S
C2603 C2602 1.400 . S
C2603 C2604 1.398 . S
C2603 C2609 1.491 . S
C2604 H2595 0.950 . S
C2604 C2603 1.398 . S
C2604 C2605 1.391 . S
C2605 H2593 0.950 . S
C2605 C2601 1.393 . S
C2605 C2604 1.391 . S
C2606 H2596 0.950 . S
C2606 C2607 1.386 . S
C2606 C2608 1.391 . S
C2607 C2606 1.386 . S
C2607 C2611 1.393 . S
C2608 H2597 0.950 . S
C2608 C2606 1.391 . S
C2608 C2609 1.400 . S
C2609 C2603 1.491 . S
C2609 C2608 1.400 . S
C2609 C2610 1.398 . S
C2610 H2598 0.950 . S
C2610 C2609 1.398 . S
C2610 C2611 1.391 . S
C2611 H2599 0.950 . S
C2611 C2607 1.393 . S
C2611 C2610 1.391 . S
H2612 C2620 0.950 . S
H2613 C2625 0.950 . S
H2614 C2622 0.950 . S
H2615 C2624 0.950 . S
H2616 C2626 0.950 . S
H2617 C2628 0.950 . S
H2618 C2630 0.950 . S
H2619 C2631 0.950 . S
C2620 H2612 0.950 . S
C2620 C2621 1.386 . S
C2620 C2622 1.391 . S
C2621 C2620 1.386 . S
C2621 C2625 1.393 . S
C2622 H2614 0.950 . S
C2622 C2620 1.391 . S
C2622 C2623 1.400 . S
C2623 C2622 1.400 . S
C2623 C2624 1.398 . S
C2623 C2629 1.491 . S
C2624 H2615 0.950 . S
C2624 C2623 1.398 . S
C2624 C2625 1.391 . S
C2625 H2613 0.950 . S
C2625 C2621 1.393 . S
C2625 C2624 1.391 . S
C2626 H2616 0.950 . S
C2626 C2627 1.386 . S
C2626 C2628 1.391 . S
C2627 C2626 1.386 . S
C2627 C2631 1.393 . S
C2628 H2617 0.950 . S
C2628 C2626 1.391 . S
C2628 C2629 1.400 . S
C2629 C2623 1.491 . S
C2629 C2628 1.400 . S
C2629 C2630 1.398 . S
C2630 H2618 0.950 . S
C2630 C2629 1.398 . S
C2630 C2631 1.391 . S
C2631 H2619 0.950 . S
C2631 C2627 1.393 . S
C2631 C2630 1.391 . S
H2632 C2640 0.950 . S
H2633 C2645 0.950 . S
H2634 C2642 0.950 . S
H2635 C2644 0.950 . S
H2636 C2646 0.950 . S
H2637 C2648 0.950 . S
H2638 C2650 0.950 . S
H2639 C2651 0.950 . S
C2640 H2632 0.950 . S
C2640 C2641 1.386 . S
C2640 C2642 1.391 . S
C2641 C2640 1.386 . S
C2641 C2645 1.393 . S
C2642 H2634 0.950 . S
C2642 C2640 1.391 . S
C2642 C2643 1.400 . S
C2643 C2642 1.400 . S
C2643 C2644 1.398 . S
C2643 C2649 1.491 . S
C2644 H2635 0.950 . S
C2644 C2643 1.398 . S
C2644 C2645 1.391 . S
C2645 H2633 0.950 . S
C2645 C2641 1.393 . S
C2645 C2644 1.391 . S
C2646 H2636 0.950 . S
C2646 C2647 1.386 . S
C2646 C2648 1.391 . S
C2647 C2646 1.386 . S
C2647 C2651 1.393 . S
C2648 H2637 0.950 . S
C2648 C2646 1.391 . S
C2648 C2649 1.400 . S
C2649 C2643 1.491 . S
C2649 C2648 1.400 . S
C2649 C2650 1.398 . S
C2650 H2638 0.950 . S
C2650 C2649 1.398 . S
C2650 C2651 1.391 . S
C2651 H2639 0.950 . S
C2651 C2647 1.393 . S
C2651 C2650 1.391 . S
H2652 C2660 0.950 . S
H2653 C2665 0.950 . S
H2654 C2662 0.950 . S
H2655 C2664 0.950 . S
H2656 C2666 0.950 . S
H2657 C2668 0.950 . S
H2658 C2670 0.950 . S
H2659 C2671 0.950 . S
C2660 H2652 0.950 . S
C2660 C2661 1.386 . S
C2660 C2662 1.391 . S
C2661 C2660 1.386 . S
C2661 C2665 1.393 . S
C2662 H2654 0.950 . S
C2662 C2660 1.391 . S
C2662 C2663 1.400 . S
C2663 C2662 1.400 . S
C2663 C2664 1.398 . S
C2663 C2669 1.491 . S
C2664 H2655 0.950 . S
C2664 C2663 1.398 . S
C2664 C2665 1.391 . S
C2665 H2653 0.950 . S
C2665 C2661 1.393 . S
C2665 C2664 1.391 . S
C2666 H2656 0.950 . S
C2666 C2667 1.386 . S
C2666 C2668 1.391 . S
C2667 C2666 1.386 . S
C2667 C2671 1.393 . S
C2668 H2657 0.950 . S
C2668 C2666 1.391 . S
C2668 C2669 1.400 . S
C2669 C2663 1.491 . S
C2669 C2668 1.400 . S
C2669 C2670 1.398 . S
C2670 H2658 0.950 . S
C2670 C2669 1.398 . S
C2670 C2671 1.391 . S
C2671 H2659 0.950 . S
C2671 C2667 1.393 . S
C2671 C2670 1.391 . S
H2672 C2680 0.950 . S
H2673 C2685 0.950 . S
H2674 C2682 0.950 . S
H2675 C2684 0.950 . S
H2676 C2686 0.950 . S
H2677 C2688 0.950 . S
H2678 C2690 0.950 . S
H2679 C2691 0.950 . S
C2680 H2672 0.950 . S
C2680 C2681 1.386 . S
C2680 C2682 1.391 . S
C2681 C2680 1.386 . S
C2681 C2685 1.393 . S
C2682 H2674 0.950 . S
C2682 C2680 1.391 . S
C2682 C2683 1.400 . S
C2683 C2682 1.400 . S
C2683 C2684 1.398 . S
C2683 C2689 1.491 . S
C2684 H2675 0.950 . S
C2684 C2683 1.398 . S
C2684 C2685 1.391 . S
C2685 H2673 0.950 . S
C2685 C2681 1.393 . S
C2685 C2684 1.391 . S
C2686 H2676 0.950 . S
C2686 C2687 1.386 . S
C2686 C2688 1.391 . S
C2687 C2686 1.386 . S
C2687 C2691 1.393 . S
C2688 H2677 0.950 . S
C2688 C2686 1.391 . S
C2688 C2689 1.400 . S
C2689 C2683 1.491 . S
C2689 C2688 1.400 . S
C2689 C2690 1.398 . S
C2690 H2678 0.950 . S
C2690 C2689 1.398 . S
C2690 C2691 1.391 . S
C2691 H2679 0.950 . S
C2691 C2687 1.393 . S
C2691 C2690 1.391 . S
H2692 C2700 0.950 . S
H2693 C2705 0.950 . S
H2694 C2702 0.950 . S
H2695 C2704 0.950 . S
H2696 C2706 0.950 . S
H2697 C2708 0.950 . S
H2698 C2710 0.950 . S
H2699 C2711 0.950 . S
C2700 H2692 0.950 . S
C2700 C2701 1.386 . S
C2700 C2702 1.391 . S
C2701 C2700 1.386 . S
C2701 C2705 1.393 . S
C2702 H2694 0.950 . S
C2702 C2700 1.391 . S
C2702 C2703 1.400 . S
C2703 C2702 1.400 . S
C2703 C2704 1.398 . S
C2703 C2709 1.491 . S
C2704 H2695 0.950 . S
C2704 C2703 1.398 . S
C2704 C2705 1.391 . S
C2705 H2693 0.950 . S
C2705 C2701 1.393 . S
C2705 C2704 1.391 . S
C2706 H2696 0.950 . S
C2706 C2707 1.386 . S
C2706 C2708 1.391 . S
C2707 C2706 1.386 . S
C2707 C2711 1.393 . S
C2708 H2697 0.950 . S
C2708 C2706 1.391 . S
C2708 C2709 1.400 . S
C2709 C2703 1.491 . S
C2709 C2708 1.400 . S
C2709 C2710 1.398 . S
C2710 H2698 0.950 . S
C2710 C2709 1.398 . S
C2710 C2711 1.391 . S
C2711 H2699 0.950 . S
C2711 C2707 1.393 . S
C2711 C2710 1.391 . S
H2712 C2720 0.950 . S
H2713 C2725 0.950 . S
H2714 C2722 0.950 . S
H2715 C2724 0.950 . S
H2716 C2726 0.950 . S
H2717 C2728 0.950 . S
H2718 C2730 0.950 . S
H2719 C2731 0.950 . S
C2720 H2712 0.950 . S
C2720 C2721 1.386 . S
C2720 C2722 1.391 . S
C2721 C2720 1.386 . S
C2721 C2725 1.393 . S
C2722 H2714 0.950 . S
C2722 C2720 1.391 . S
C2722 C2723 1.400 . S
C2723 C2722 1.400 . S
C2723 C2724 1.398 . S
C2723 C2729 1.491 . S
C2724 H2715 0.950 . S
C2724 C2723 1.398 . S
C2724 C2725 1.391 . S
C2725 H2713 0.950 . S
C2725 C2721 1.393 . S
C2725 C2724 1.391 . S
C2726 H2716 0.950 . S
C2726 C2727 1.386 . S
C2726 C2728 1.391 . S
C2727 C2726 1.386 . S
C2727 C2731 1.393 . S
C2728 H2717 0.950 . S
C2728 C2726 1.391 . S
C2728 C2729 1.400 . S
C2729 C2723 1.491 . S
C2729 C2728 1.400 . S
C2729 C2730 1.398 . S
C2730 H2718 0.950 . S
C2730 C2729 1.398 . S
C2730 C2731 1.391 . S
C2731 H2719 0.950 . S
C2731 C2727 1.393 . S
C2731 C2730 1.391 . S
H2732 C2740 0.950 . S
H2733 C2745 0.950 . S
H2734 C2742 0.950 . S
H2735 C2744 0.950 . S
H2736 C2746 0.950 . S
H2737 C2748 0.950 . S
H2738 C2750 0.950 . S
H2739 C2751 0.950 . S
C2740 H2732 0.950 . S
C2740 C2741 1.386 . S
C2740 C2742 1.391 . S
C2741 C2740 1.386 . S
C2741 C2745 1.393 . S
C2742 H2734 0.950 . S
C2742 C2740 1.391 . S
C2742 C2743 1.400 . S
C2743 C2742 1.400 . S
C2743 C2744 1.398 . S
C2743 C2749 1.491 . S
C2744 H2735 0.950 . S
C2744 C2743 1.398 . S
C2744 C2745 1.391 . S
C2745 H2733 0.950 . S
C2745 C2741 1.393 . S
C2745 C2744 1.391 . S
C2746 H2736 0.950 . S
C2746 C2747 1.386 . S
C2746 C2748 1.391 . S
C2747 C2746 1.386 . S
C2747 C2751 1.393 . S
C2748 H2737 0.950 . S
C2748 C2746 1.391 . S
C2748 C2749 1.400 . S
C2749 C2743 1.491 . S
C2749 C2748 1.400 . S
C2749 C2750 1.398 . S
C2750 H2738 0.950 . S
C2750 C2749 1.398 . S
C2750 C2751 1.391 . S
C2751 H2739 0.950 . S
C2751 C2747 1.393 . S
C2751 C2750 1.391 . S
H2752 C2760 0.950 . S
H2753 C2765 0.950 . S
H2754 C2762 0.950 . S
H2755 C2764 0.950 . S
H2756 C2766 0.950 . S
H2757 C2768 0.950 . S
H2758 C2770 0.950 . S
H2759 C2771 0.950 . S
C2760 H2752 0.950 . S
C2760 C2761 1.386 . S
C2760 C2762 1.391 . S
C2761 C2760 1.386 . S
C2761 C2765 1.393 . S
C2762 H2754 0.950 . S
C2762 C2760 1.391 . S
C2762 C2763 1.400 . S
C2763 C2762 1.400 . S
C2763 C2764 1.398 . S
C2763 C2769 1.491 . S
C2764 H2755 0.950 . S
C2764 C2763 1.398 . S
C2764 C2765 1.391 . S
C2765 H2753 0.950 . S
C2765 C2761 1.393 . S
C2765 C2764 1.391 . S
C2766 H2756 0.950 . S
C2766 C2767 1.386 . S
C2766 C2768 1.391 . S
C2767 C2766 1.386 . S
C2767 C2771 1.393 . S
C2768 H2757 0.950 . S
C2768 C2766 1.391 . S
C2768 C2769 1.400 . S
C2769 C2763 1.491 . S
C2769 C2768 1.400 . S
C2769 C2770 1.398 . S
C2770 H2758 0.950 . S
C2770 C2769 1.398 . S
C2770 C2771 1.391 . S
C2771 H2759 0.950 . S
C2771 C2767 1.393 . S
C2771 C2770 1.391 . S
H2772 C2780 0.950 . S
H2773 C2785 0.950 . S
H2774 C2782 0.950 . S
H2775 C2784 0.950 . S
H2776 C2786 0.950 . S
H2777 C2788 0.950 . S
H2778 C2790 0.950 . S
H2779 C2791 0.950 . S
C2780 H2772 0.950 . S
C2780 C2781 1.386 . S
C2780 C2782 1.391 . S
C2781 C2780 1.386 . S
C2781 C2785 1.393 . S
C2782 H2774 0.950 . S
C2782 C2780 1.391 . S
C2782 C2783 1.400 . S
C2783 C2782 1.400 . S
C2783 C2784 1.398 . S
C2783 C2789 1.491 . S
C2784 H2775 0.950 . S
C2784 C2783 1.398 . S
C2784 C2785 1.391 . S
C2785 H2773 0.950 . S
C2785 C2781 1.393 . S
C2785 C2784 1.391 . S
C2786 H2776 0.950 . S
C2786 C2787 1.386 . S
C2786 C2788 1.391 . S
C2787 C2786 1.386 . S
C2787 C2791 1.393 . S
C2788 H2777 0.950 . S
C2788 C2786 1.391 . S
C2788 C2789 1.400 . S
C2789 C2783 1.491 . S
C2789 C2788 1.400 . S
C2789 C2790 1.398 . S
C2790 H2778 0.950 . S
C2790 C2789 1.398 . S
C2790 C2791 1.391 . S
C2791 H2779 0.950 . S
C2791 C2787 1.393 . S
C2791 C2790 1.391 . S
H2792 C2800 0.950 . S
H2793 C2805 0.950 . S
H2794 C2802 0.950 . S
H2795 C2804 0.950 . S
H2796 C2806 0.950 . S
H2797 C2808 0.950 . S
H2798 C2810 0.950 . S
H2799 C2811 0.950 . S
C2800 H2792 0.950 . S
C2800 C2801 1.386 . S
C2800 C2802 1.391 . S
C2801 C2800 1.386 . S
C2801 C2805 1.393 . S
C2802 H2794 0.950 . S
C2802 C2800 1.391 . S
C2802 C2803 1.400 . S
C2803 C2802 1.400 . S
C2803 C2804 1.398 . S
C2803 C2809 1.491 . S
C2804 H2795 0.950 . S
C2804 C2803 1.398 . S
C2804 C2805 1.391 . S
C2805 H2793 0.950 . S
C2805 C2801 1.393 . S
C2805 C2804 1.391 . S
C2806 H2796 0.950 . S
C2806 C2807 1.386 . S
C2806 C2808 1.391 . S
C2807 C2806 1.386 . S
C2807 C2811 1.393 . S
C2808 H2797 0.950 . S
C2808 C2806 1.391 . S
C2808 C2809 1.400 . S
C2809 C2803 1.491 . S
C2809 C2808 1.400 . S
C2809 C2810 1.398 . S
C2810 H2798 0.950 . S
C2810 C2809 1.398 . S
C2810 C2811 1.391 . S
C2811 H2799 0.950 . S
C2811 C2807 1.393 . S
C2811 C2810 1.391 . S
H2812 C2820 0.950 . S
H2813 C2825 0.950 . S
H2814 C2822 0.950 . S
H2815 C2824 0.950 . S
H2816 C2826 0.950 . S
H2817 C2828 0.950 . S
H2818 C2830 0.950 . S
H2819 C2831 0.950 . S
C2820 H2812 0.950 . S
C2820 C2821 1.386 . S
C2820 C2822 1.391 . S
C2821 C2820 1.386 . S
C2821 C2825 1.393 . S
C2822 H2814 0.950 . S
C2822 C2820 1.391 . S
C2822 C2823 1.400 . S
C2823 C2822 1.400 . S
C2823 C2824 1.398 . S
C2823 C2829 1.491 . S
C2824 H2815 0.950 . S
C2824 C2823 1.398 . S
C2824 C2825 1.391 . S
C2825 H2813 0.950 . S
C2825 C2821 1.393 . S
C2825 C2824 1.391 . S
C2826 H2816 0.950 . S
C2826 C2827 1.386 . S
C2826 C2828 1.391 . S
C2827 C2826 1.386 . S
C2827 C2831 1.393 . S
C2828 H2817 0.950 . S
C2828 C2826 1.391 . S
C2828 C2829 1.400 . S
C2829 C2823 1.491 . S
C2829 C2828 1.400 . S
C2829 C2830 1.398 . S
C2830 H2818 0.950 . S
C2830 C2829 1.398 . S
C2830 C2831 1.391 . S
C2831 H2819 0.950 . S
C2831 C2827 1.393 . S
C2831 C2830 1.391 . S
H2832 C2840 0.950 . S
H2833 C2845 0.950 . S
H2834 C2842 0.950 . S
H2835 C2844 0.950 . S
H2836 C2846 0.950 . S
H2837 C2848 0.950 . S
H2838 C2850 0.950 . S
H2839 C2851 0.950 . S
C2840 H2832 0.950 . S
C2840 C2841 1.386 . S
C2840 C2842 1.391 . S
C2841 C2840 1.386 . S
C2841 C2845 1.393 . S
C2842 H2834 0.950 . S
C2842 C2840 1.391 . S
C2842 C2843 1.400 . S
C2843 C2842 1.400 . S
C2843 C2844 1.398 . S
C2843 C2849 1.491 . S
C2844 H2835 0.950 . S
C2844 C2843 1.398 . S
C2844 C2845 1.391 . S
C2845 H2833 0.950 . S
C2845 C2841 1.393 . S
C2845 C2844 1.391 . S
C2846 H2836 0.950 . S
C2846 C2847 1.386 . S
C2846 C2848 1.391 . S
C2847 C2846 1.386 . S
C2847 C2851 1.393 . S
C2848 H2837 0.950 . S
C2848 C2846 1.391 . S
C2848 C2849 1.400 . S
C2849 C2843 1.491 . S
C2849 C2848 1.400 . S
C2849 C2850 1.398 . S
C2850 H2838 0.950 . S
C2850 C2849 1.398 . S
C2850 C2851 1.391 . S
C2851 H2839 0.950 . S
C2851 C2847 1.393 . S
C2851 C2850 1.391 . S
H2852 C2860 0.950 . S
H2853 C2865 0.950 . S
H2854 C2862 0.950 . S
H2855 C2864 0.950 . S
H2856 C2866 0.950 . S
H2857 C2868 0.950 . S
H2858 C2870 0.950 . S
H2859 C2871 0.950 . S
C2860 H2852 0.950 . S
C2860 C2861 1.386 . S
C2860 C2862 1.391 . S
C2861 C2860 1.386 . S
C2861 C2865 1.393 . S
C2862 H2854 0.950 . S
C2862 C2860 1.391 . S
C2862 C2863 1.400 . S
C2863 C2862 1.400 . S
C2863 C2864 1.398 . S
C2863 C2869 1.491 . S
C2864 H2855 0.950 . S
C2864 C2863 1.398 . S
C2864 C2865 1.391 . S
C2865 H2853 0.950 . S
C2865 C2861 1.393 . S
C2865 C2864 1.391 . S
C2866 H2856 0.950 . S
C2866 C2867 1.386 . S
C2866 C2868 1.391 . S
C2867 C2866 1.386 . S
C2867 C2871 1.393 . S
C2868 H2857 0.950 . S
C2868 C2866 1.391 . S
C2868 C2869 1.400 . S
C2869 C2863 1.491 . S
C2869 C2868 1.400 . S
C2869 C2870 1.398 . S
C2870 H2858 0.950 . S
C2870 C2869 1.398 . S
C2870 C2871 1.391 . S
C2871 H2859 0.950 . S
C2871 C2867 1.393 . S
C2871 C2870 1.391 . S
H2872 C2880 0.950 . S
H2873 C2885 0.950 . S
H2874 C2882 0.950 . S
H2875 C2884 0.950 . S
H2876 C2886 0.950 . S
H2877 C2888 0.950 . S
H2878 C2890 0.950 . S
H2879 C2891 0.950 . S
C2880 H2872 0.950 . S
C2880 C2881 1.386 . S
C2880 C2882 1.391 . S
C2881 C2880 1.386 . S
C2881 C2885 1.393 . S
C2882 H2874 0.950 . S
C2882 C2880 1.391 . S
C2882 C2883 1.400 . S
C2883 C2882 1.400 . S
C2883 C2884 1.398 . S
C2883 C2889 1.491 . S
C2884 H2875 0.950 . S
C2884 C2883 1.398 . S
C2884 C2885 1.391 . S
C2885 H2873 0.950 . S
C2885 C2881 1.393 . S
C2885 C2884 1.391 . S
C2886 H2876 0.950 . S
C2886 C2887 1.386 . S
C2886 C2888 1.391 . S
C2887 C2886 1.386 . S
C2887 C2891 1.393 . S
C2888 H2877 0.950 . S
C2888 C2886 1.391 . S
C2888 C2889 1.400 . S
C2889 C2883 1.491 . S
C2889 C2888 1.400 . S
C2889 C2890 1.398 . S
C2890 H2878 0.950 . S
C2890 C2889 1.398 . S
C2890 C2891 1.391 . S
C2891 H2879 0.950 . S
C2891 C2887 1.393 . S
C2891 C2890 1.391 . S
H2892 C2900 0.950 . S
H2893 C2905 0.950 . S
H2894 C2902 0.950 . S
H2895 C2904 0.950 . S
H2896 C2906 0.950 . S
H2897 C2908 0.950 . S
H2898 C2910 0.950 . S
H2899 C2911 0.950 . S
C2900 H2892 0.950 . S
C2900 C2901 1.386 . S
C2900 C2902 1.391 . S
C2901 C2900 1.386 . S
C2901 C2905 1.393 . S
C2902 H2894 0.950 . S
C2902 C2900 1.391 . S
C2902 C2903 1.400 . S
C2903 C2902 1.400 . S
C2903 C2904 1.398 . S
C2903 C2909 1.491 . S
C2904 H2895 0.950 . S
C2904 C2903 1.398 . S
C2904 C2905 1.391 . S
C2905 H2893 0.950 . S
C2905 C2901 1.393 . S
C2905 C2904 1.391 . S
C2906 H2896 0.950 . S
C2906 C2907 1.386 . S
C2906 C2908 1.391 . S
C2907 C2906 1.386 . S
C2907 C2911 1.393 . S
C2908 H2897 0.950 . S
C2908 C2906 1.391 . S
C2908 C2909 1.400 . S
C2909 C2903 1.491 . S
C2909 C2908 1.400 . S
C2909 C2910 1.398 . S
C2910 H2898 0.950 . S
C2910 C2909 1.398 . S
C2910 C2911 1.391 . S
C2911 H2899 0.950 . S
C2911 C2907 1.393 . S
C2911 C2910 1.391 . S
H2912 C2920 0.950 . S
H2913 C2925 0.950 . S
H2914 C2922 0.950 . S
H2915 C2924 0.950 . S
H2916 C2926 0.950 . S
H2917 C2928 0.950 . S
H2918 C2930 0.950 . S
H2919 C2931 0.950 . S
C2920 H2912 0.950 . S
C2920 C2921 1.386 . S
C2920 C2922 1.391 . S
C2921 C2920 1.386 . S
C2921 C2925 1.393 . S
C2922 H2914 0.950 . S
C2922 C2920 1.391 . S
C2922 C2923 1.400 . S
C2923 C2922 1.400 . S
C2923 C2924 1.398 . S
C2923 C2929 1.491 . S
C2924 H2915 0.950 . S
C2924 C2923 1.398 . S
C2924 C2925 1.391 . S
C2925 H2913 0.950 . S
C2925 C2921 1.393 . S
C2925 C2924 1.391 . S
C2926 H2916 0.950 . S
C2926 C2927 1.386 . S
C2926 C2928 1.391 . S
C2927 C2926 1.386 . S
C2927 C2931 1.393 . S
C2928 H2917 0.950 . S
C2928 C2926 1.391 . S
C2928 C2929 1.400 . S
C2929 C2923 1.491 . S
C2929 C2928 1.400 . S
C2929 C2930 1.398 . S
C2930 H2918 0.950 . S
C2930 C2929 1.398 . S
C2930 C2931 1.391 . S
C2931 H2919 0.950 . S
C2931 C2927 1.393 . S
C2931 C2930 1.391 . S
H2932 C2940 0.950 . S
H2933 C2945 0.950 . S
H2934 C2942 0.950 . S
H2935 C2944 0.950 . S
H2936 C2946 0.950 . S
H2937 C2948 0.950 . S
H2938 C2950 0.950 . S
H2939 C2951 0.950 . S
C2940 H2932 0.950 . S
C2940 C2941 1.386 . S
C2940 C2942 1.391 . S
C2941 C2940 1.386 . S
C2941 C2945 1.393 . S
C2942 H2934 0.950 . S
C2942 C2940 1.391 . S
C2942 C2943 1.400 . S
C2943 C2942 1.400 . S
C2943 C2944 1.398 . S
C2943 C2949 1.491 . S
C2944 H2935 0.950 . S
C2944 C2943 1.398 . S
C2944 C2945 1.391 . S
C2945 H2933 0.950 . S
C2945 C2941 1.393 . S
C2945 C2944 1.391 . S
C2946 H2936 0.950 . S
C2946 C2947 1.386 . S
C2946 C2948 1.391 . S
C2947 C2946 1.386 . S
C2947 C2951 1.393 . S
C2948 H2937 0.950 . S
C2948 C2946 1.391 . S
C2948 C2949 1.400 . S
C2949 C2943 1.491 . S
C2949 C2948 1.400 . S
C2949 C2950 1.398 . S
C2950 H2938 0.950 . S
C2950 C2949 1.398 . S
C2950 C2951 1.391 . S
C2951 H2939 0.950 . S
C2951 C2947 1.393 . S
C2951 C2950 1.391 . S
H2952 C2960 0.950 . S
H2953 C2965 0.950 . S
H2954 C2962 0.950 . S
H2955 C2964 0.950 . S
H2956 C2966 0.950 . S
H2957 C2968 0.950 . S
H2958 C2970 0.950 . S
H2959 C2971 0.950 . S
C2960 H2952 0.950 . S
C2960 C2961 1.386 . S
C2960 C2962 1.391 . S
C2961 C2960 1.386 . S
C2961 C2965 1.393 . S
C2962 H2954 0.950 . S
C2962 C2960 1.391 . S
C2962 C2963 1.400 . S
C2963 C2962 1.400 . S
C2963 C2964 1.398 . S
C2963 C2969 1.491 . S
C2964 H2955 0.950 . S
C2964 C2963 1.398 . S
C2964 C2965 1.391 . S
C2965 H2953 0.950 . S
C2965 C2961 1.393 . S
C2965 C2964 1.391 . S
C2966 H2956 0.950 . S
C2966 C2967 1.386 . S
C2966 C2968 1.391 . S
C2967 C2966 1.386 . S
C2967 C2971 1.393 . S
C2968 H2957 0.950 . S
C2968 C2966 1.391 . S
C2968 C2969 1.400 . S
C2969 C2963 1.491 . S
C2969 C2968 1.400 . S
C2969 C2970 1.398 . S
C2970 H2958 0.950 . S
C2970 C2969 1.398 . S
C2970 C2971 1.391 . S
C2971 H2959 0.950 . S
C2971 C2967 1.393 . S
C2971 C2970 1.391 . S
H2972 C2980 0.950 . S
H2973 C2985 0.950 . S
H2974 C2982 0.950 . S
H2975 C2984 0.950 . S
H2976 C2986 0.950 . S
H2977 C2988 0.950 . S
H2978 C2990 0.950 . S
H2979 C2991 0.950 . S
C2980 H2972 0.950 . S
C2980 C2981 1.386 . S
C2980 C2982 1.391 . S
C2981 C2980 1.386 . S
C2981 C2985 1.393 . S
C2982 H2974 0.950 . S
C2982 C2980 1.391 . S
C2982 C2983 1.400 . S
C2983 C2982 1.400 . S
C2983 C2984 1.398 . S
C2983 C2989 1.491 . S
C2984 H2975 0.950 . S
C2984 C2983 1.398 . S
C2984 C2985 1.391 . S
C2985 H2973 0.950 . S
C2985 C2981 1.393 . S
C2985 C2984 1.391 . S
C2986 H2976 0.950 . S
C2986 C2987 1.386 . S
C2986 C2988 1.391 . S
C2987 C2986 1.386 . S
C2987 C2991 1.393 . S
C2988 H2977 0.950 . S
C2988 C2986 1.391 . S
C2988 C2989 1.400 . S
C2989 C2983 1.491 . S
C2989 C2988 1.400 . S
C2989 C2990 1.398 . S
C2990 H2978 0.950 . S
C2990 C2989 1.398 . S
C2990 C2991 1.391 . S
C2991 H2979 0.950 . S
C2991 C2987 1.393 . S
C2991 C2990 1.391 . S
H2992 C3000 0.950 . S
H2993 C3005 0.950 . S
H2994 C3002 0.950 . S
H2995 C3004 0.950 . S
H2996 C3006 0.950 . S
H2997 C3008 0.950 . S
H2998 C3010 0.950 . S
H2999 C3011 0.950 . S
C3000 H2992 0.950 . S
C3000 C3001 1.386 . S
C3000 C3002 1.391 . S
C3001 C3000 1.386 . S
C3001 C3005 1.393 . S
C3002 H2994 0.950 . S
C3002 C3000 1.391 . S
C3002 C3003 1.400 . S
C3003 C3002 1.400 . S
C3003 C3004 1.398 . S
C3003 C3009 1.491 . S
C3004 H2995 0.950 . S
C3004 C3003 1.398 . S
C3004 C3005 1.391 . S
C3005 H2993 0.950 . S
C3005 C3001 1.393 . S
C3005 C3004 1.391 . S
C3006 H2996 0.950 . S
C3006 C3007 1.386 . S
C3006 C3008 1.391 . S
C3007 C3006 1.386 . S
C3007 C3011 1.393 . S
C3008 H2997 0.950 . S
C3008 C3006 1.391 . S
C3008 C3009 1.400 . S
C3009 C3003 1.491 . S
C3009 C3008 1.400 . S
C3009 C3010 1.398 . S
C3010 H2998 0.950 . S
C3010 C3009 1.398 . S
C3010 C3011 1.391 . S
C3011 H2999 0.950 . S
C3011 C3007 1.393 . S
C3011 C3010 1.391 . S
H3012 C3020 0.950 . S
H3013 C3025 0.950 . S
H3014 C3022 0.950 . S
H3015 C3024 0.950 . S
H3016 C3026 0.950 . S
H3017 C3028 0.950 . S
H3018 C3030 0.950 . S
H3019 C3031 0.950 . S
C3020 H3012 0.950 . S
C3020 C3021 1.386 . S
C3020 C3022 1.391 . S
C3021 C3020 1.386 . S
C3021 C3025 1.393 . S
C3022 H3014 0.950 . S
C3022 C3020 1.391 . S
C3022 C3023 1.400 . S
C3023 C3022 1.400 . S
C3023 C3024 1.398 . S
C3023 C3029 1.491 . S
C3024 H3015 0.950 . S
C3024 C3023 1.398 . S
C3024 C3025 1.391 . S
C3025 H3013 0.950 . S
C3025 C3021 1.393 . S
C3025 C3024 1.391 . S
C3026 H3016 0.950 . S
C3026 C3027 1.386 . S
C3026 C3028 1.391 . S
C3027 C3026 1.386 . S
C3027 C3031 1.393 . S
C3028 H3017 0.950 . S
C3028 C3026 1.391 . S
C3028 C3029 1.400 . S
C3029 C3023 1.491 . S
C3029 C3028 1.400 . S
C3029 C3030 1.398 . S
C3030 H3018 0.950 . S
C3030 C3029 1.398 . S
C3030 C3031 1.391 . S
C3031 H3019 0.950 . S
C3031 C3027 1.393 . S
C3031 C3030 1.391 . S
H3032 C3040 0.950 . S
H3033 C3045 0.950 . S
H3034 C3042 0.950 . S
H3035 C3044 0.950 . S
H3036 C3046 0.950 . S
H3037 C3048 0.950 . S
H3038 C3050 0.950 . S
H3039 C3051 0.950 . S
C3040 H3032 0.950 . S
C3040 C3041 1.386 . S
C3040 C3042 1.391 . S
C3041 C3040 1.386 . S
C3041 C3045 1.393 . S
C3042 H3034 0.950 . S
C3042 C3040 1.391 . S
C3042 C3043 1.400 . S
C3043 C3042 1.400 . S
C3043 C3044 1.398 . S
C3043 C3049 1.491 . S
C3044 H3035 0.950 . S
C3044 C3043 1.398 . S
C3044 C3045 1.391 . S
C3045 H3033 0.950 . S
C3045 C3041 1.393 . S
C3045 C3044 1.391 . S
C3046 H3036 0.950 . S
C3046 C3047 1.386 . S
C3046 C3048 1.391 . S
C3047 C3046 1.386 . S
C3047 C3051 1.393 . S
C3048 H3037 0.950 . S
C3048 C3046 1.391 . S
C3048 C3049 1.400 . S
C3049 C3043 1.491 . S
C3049 C3048 1.400 . S
C3049 C3050 1.398 . S
C3050 H3038 0.950 . S
C3050 C3049 1.398 . S
C3050 C3051 1.391 . S
C3051 H3039 0.950 . S
C3051 C3047 1.393 . S
C3051 C3050 1.391 . S
H3052 C3060 0.950 . S
H3053 C3065 0.950 . S
H3054 C3062 0.950 . S
H3055 C3064 0.950 . S
H3056 C3066 0.950 . S
H3057 C3068 0.950 . S
H3058 C3070 0.950 . S
H3059 C3071 0.950 . S
C3060 H3052 0.950 . S
C3060 C3061 1.386 . S
C3060 C3062 1.391 . S
C3061 C3060 1.386 . S
C3061 C3065 1.393 . S
C3062 H3054 0.950 . S
C3062 C3060 1.391 . S
C3062 C3063 1.400 . S
C3063 C3062 1.400 . S
C3063 C3064 1.398 . S
C3063 C3069 1.491 . S
C3064 H3055 0.950 . S
C3064 C3063 1.398 . S
C3064 C3065 1.391 . S
C3065 H3053 0.950 . S
C3065 C3061 1.393 . S
C3065 C3064 1.391 . S
C3066 H3056 0.950 . S
C3066 C3067 1.386 . S
C3066 C3068 1.391 . S
C3067 C3066 1.386 . S
C3067 C3071 1.393 . S
C3068 H3057 0.950 . S
C3068 C3066 1.391 . S
C3068 C3069 1.400 . S
C3069 C3063 1.491 . S
C3069 C3068 1.400 . S
C3069 C3070 1.398 . S
C3070 H3058 0.950 . S
C3070 C3069 1.398 . S
C3070 C3071 1.391 . S
C3071 H3059 0.950 . S
C3071 C3067 1.393 . S
C3071 C3070 1.391 . S
C2121 C1261 1.309 . S
C2127 C20 1.307 . S
C2141 C117 1.326 . S
C2147 C1349 1.331 . S
C2161 C1604 1.310 . S
C2167 C225 1.316 . S
C2181 C321 1.316 . S
C2187 C1164 1.321 . S
C2201 C1289 1.309 . S
C2207 C372 1.309 . S
C2221 C469 1.309 . S
C2227 C1377 1.313 . S
C2241 C577 1.315 . S
C2247 C1633 1.322 . S
C2261 C673 1.316 . S
C2267 C1193 1.331 . S
C2281 C849 1.309 . S
C2287 C733 1.310 . S
C2301 C900 1.319 . S
C2307 C821 1.309 . S
C2321 C929 1.325 . S
C2327 C1025 1.335 . S
C2341 C997 1.322 . S
C2347 C761 1.323 . S
C2361 C1085 1.319 . S
C2367 C293 1.310 . S
C2381 C401 1.322 . S
C2387 C1457 1.324 . S
C2401 C1516 1.309 . S
C2407 C145 1.307 . S
C2421 C137 1.334 . S
C2427 C1868 1.332 . S
C2441 C812 1.327 . S
C2447 C29 1.316 . S
C2461 C2081 1.334 . S
C2467 C284 1.333 . S
C2481 C988 1.316 . S
C2487 C233 1.320 . S
C2501 C1897 1.322 . S
C2507 C636 1.331 . S
C2521 C841 1.333 . S
C2527 C585 1.328 . S
C2541 C489 1.316 . S
C2547 C2053 1.318 . S
C2561 C381 1.330 . S
C2567 C1017 1.326 . S
C2581 C1340 1.334 . S
C2587 C1721 1.335 . S
C2601 C1437 1.334 . S
C2607 C1369 1.337 . S
C2621 C1173 1.328 . S
C2627 C1465 1.325 . S
C2641 C1692 1.316 . S
C2647 C1201 1.320 . S
C2661 C205 1.334 . S
C2667 C1817 1.335 . S
C2681 C909 1.323 . S
C2687 C665 1.322 . S
C2701 C57 1.326 . S
C2707 C1956 1.337 . S
C2721 C1701 1.313 . S
C2727 C196 1.315 . S
C2741 C49 1.323 . S
C2747 C1428 1.313 . S
C2761 C1729 1.312 . S
C2767 C548 1.313 . S
C2781 C1113 1.322 . S
C2787 C645 1.323 . S
C2801 C497 1.319 . S
C2807 C1545 1.312 . S
C2821 C1877 1.316 . S
C2827 C1780 1.316 . S
C2841 C2044 1.309 . S
C2847 C1809 1.304 . S
C2861 C1993 1.322 . S
C2867 C2073 1.315 . S
C2881 C1905 1.317 . S
C2887 C1965 1.324 . S
C2901 C724 1.316 . S
C2907 C313 1.311 . S
C2921 C108 1.325 . S
C2927 C937 1.333 . S
C2941 C460 1.318 . S
C2947 C753 1.329 . S
C2961 C1789 1.316 . S
C2967 C409 1.320 . S
C2981 C557 1.317 . S
C2987 C1985 1.321 . S
C3001 C1076 1.325 . S
C3007 C1281 1.326 . S
C3021 C1613 1.329 . S
C3027 C1105 1.338 . S
C3041 C1525 1.317 . S
C3047 C1641 1.316 . S
C3061 C1252 1.324 . S
C3067 C1553 1.330 . S
