# Generated by pormake.
# Topology sne, (6)-cn, num edge types: 1
# Building blocks:
#     Node 0, Type 0, BuildingBlock: OJICUG_clean_sbu_0, # of connection points: 6
#     Node 1, Type 0, BuildingBlock: OJICUG_clean_sbu_0, # of connection points: 6
#     Node 2, Type 0, BuildingBlock: OJICUG_clean_sbu_0, # of connection points: 6
#     Node 3, Type 0, BuildingBlock: OJICUG_clean_sbu_0, # of connection points: 6
#     Node 4, Type 0, BuildingBlock: OJICUG_clean_sbu_0, # of connection points: 6
#     Node 5, Type 0, BuildingBlock: OJICUG_clean_sbu_0, # of connection points: 6
#     Node 6, Type 0, BuildingBlock: OJICUG_clean_sbu_0, # of connection points: 6
#     Node 7, Type 0, BuildingBlock: OJICUG_clean_sbu_0, # of connection points: 6
#     Edge 8, Type (0, 0), BuildingBlock: AJUNOK_clean_linker_0, # of connection points: 2
#     Edge 9, Type (0, 0), BuildingBlock: AJUNOK_clean_linker_0, # of connection points: 2
#     Edge 10, Type (0, 0), BuildingBlock: AJUNOK_clean_linker_0, # of connection points: 2
#     Edge 11, Type (0, 0), BuildingBlock: AJUNOK_clean_linker_0, # of connection points: 2
#     Edge 12, Type (0, 0), BuildingBlock: AJUNOK_clean_linker_0, # of connection points: 2
#     Edge 13, Type (0, 0), BuildingBlock: AJUNOK_clean_linker_0, # of connection points: 2
#     Edge 14, Type (0, 0), BuildingBlock: AJUNOK_clean_linker_0, # of connection points: 2
#     Edge 15, Type (0, 0), BuildingBlock: AJUNOK_clean_linker_0, # of connection points: 2
#     Edge 16, Type (0, 0), BuildingBlock: AJUNOK_clean_linker_0, # of connection points: 2
#     Edge 17, Type (0, 0), BuildingBlock: AJUNOK_clean_linker_0, # of connection points: 2
#     Edge 18, Type (0, 0), BuildingBlock: AJUNOK_clean_linker_0, # of connection points: 2
#     Edge 19, Type (0, 0), BuildingBlock: AJUNOK_clean_linker_0, # of connection points: 2
#     Edge 20, Type (0, 0), BuildingBlock: AJUNOK_clean_linker_0, # of connection points: 2
#     Edge 21, Type (0, 0), BuildingBlock: AJUNOK_clean_linker_0, # of connection points: 2
#     Edge 22, Type (0, 0), BuildingBlock: AJUNOK_clean_linker_0, # of connection points: 2
#     Edge 23, Type (0, 0), BuildingBlock: AJUNOK_clean_linker_0, # of connection points: 2
#     Edge 24, Type (0, 0), BuildingBlock: AJUNOK_clean_linker_0, # of connection points: 2
#     Edge 25, Type (0, 0), BuildingBlock: AJUNOK_clean_linker_0, # of connection points: 2
#     Edge 26, Type (0, 0), BuildingBlock: AJUNOK_clean_linker_0, # of connection points: 2
#     Edge 27, Type (0, 0), BuildingBlock: AJUNOK_clean_linker_0, # of connection points: 2
#     Edge 28, Type (0, 0), BuildingBlock: AJUNOK_clean_linker_0, # of connection points: 2
#     Edge 29, Type (0, 0), BuildingBlock: AJUNOK_clean_linker_0, # of connection points: 2
#     Edge 30, Type (0, 0), BuildingBlock: AJUNOK_clean_linker_0, # of connection points: 2
#     Edge 31, Type (0, 0), BuildingBlock: AJUNOK_clean_linker_0, # of connection points: 2
# Relax obj value: 0.189
# Max RMSD: 0.224
# Mean RMSD: 0.224
data_MOF--net-sne--node1-OJICUG_clean_sbu_0--edge1-AJUNOK_clean_linker_0
_symmetry_space_group_name_H-M    P1
_symmetry_Int_Tables_number       1
_symmetry_cell_setting            triclinic
loop_
_symmetry_equiv_pos_as_xyz
'x, y, z'
_cell_length_a     26.632757
_cell_length_b     26.629321
_cell_length_c     21.734632
_cell_angle_alpha  89.99764
_cell_angle_beta   89.991439
_cell_angle_gamma 90.215032
loop_
_atom_site_label
_atom_site_type_symbol
_atom_site_fract_x
_atom_site_fract_y
_atom_site_fract_z
_atom_type_partial_charge
Sc0 Sc 0.2908 0.10085 0.40135 0.0
Sc1 Sc 0.17777 0.10804 0.32421 0.0
Sc2 Sc 0.24362 0.21829 0.36055 0.0
O3 O 0.23747 0.1431 0.3618 0.0
C4 C 0.29461 0.19757 0.48821 0.0
C5 C 0.20265 0.04035 0.44304 0.0
C6 C 0.12964 0.19525 0.40022 0.0
C7 C 0.25654 0.03397 0.28544 0.0
C8 C 0.35252 0.17655 0.32153 0.0
C9 C 0.18983 0.20142 0.23314 0.0
O10 O 0.30906 0.15371 0.4739 0.0
O11 O 0.17961 0.04746 0.39231 0.0
O12 O 0.16663 0.22564 0.39374 0.0
O13 O 0.27939 0.03917 0.33661 0.0
O14 O 0.32119 0.21257 0.32849 0.0
O15 O 0.16868 0.16069 0.24927 0.0
O16 O 0.34553 0.13238 0.34196 0.0
O17 O 0.22492 0.06548 0.26594 0.0
O18 O 0.22086 0.2245 0.26701 0.0
O19 O 0.23704 0.06942 0.46149 0.0
O20 O 0.26697 0.2237 0.45367 0.0
O21 O 0.12892 0.15038 0.38051 0.0
Sc22 Sc 0.10287 0.78827 0.64678 0.0
Sc23 Sc 0.10913 0.67364 0.57155 0.0
Sc24 Sc 0.22013 0.74035 0.60513 0.0
O25 O 0.14458 0.7341 0.60761 0.0
C26 C 0.17882 0.84869 0.5646 0.0
C27 C 0.03443 0.75356 0.53168 0.0
C28 C 0.20132 0.68533 0.47818 0.0
C29 C 0.04248 0.69894 0.69157 0.0
C30 C 0.20004 0.79232 0.73317 0.0
C31 C 0.19828 0.62685 0.64682 0.0
O32 O 0.1355 0.84257 0.5878 0.0
O33 O 0.0634 0.71879 0.5144 0.0
O34 O 0.22571 0.71514 0.51234 0.0
O35 O 0.06911 0.73615 0.70732 0.0
O36 O 0.22678 0.76622 0.69746 0.0
O37 O 0.15366 0.62535 0.62633 0.0
O38 O 0.15546 0.80514 0.71999 0.0
O39 O 0.0504 0.67457 0.64195 0.0
O40 O 0.22798 0.66439 0.64091 0.0
O41 O 0.04198 0.77843 0.58101 0.0
O42 O 0.21451 0.81688 0.56998 0.0
O43 O 0.15991 0.66553 0.49439 0.0
Sc44 Sc 0.73661 0.76729 0.35853 0.0
Sc45 Sc 0.80288 0.87837 0.32852 0.0
Sc46 Sc 0.68887 0.88374 0.40327 0.0
O47 O 0.74261 0.84248 0.36307 0.0
C48 C 0.62776 0.80974 0.32036 0.0
C49 C 0.79205 0.78705 0.2334 0.0
C50 C 0.72475 0.953 0.28969 0.0
C51 C 0.84963 0.78958 0.40218 0.0
C52 C 0.68602 0.78512 0.48747 0.0
C53 C 0.77635 0.94387 0.4486 0.0
O54 O 0.65899 0.77358 0.32669 0.0
O55 O 0.81396 0.82664 0.25235 0.0
O56 O 0.70085 0.94651 0.34002 0.0
O57 O 0.81403 0.75859 0.39034 0.0
O58 O 0.67097 0.82905 0.47417 0.0
O59 O 0.7998 0.93782 0.39795 0.0
O60 O 0.71358 0.75971 0.4519 0.0
O61 O 0.84968 0.83551 0.38666 0.0
O62 O 0.74148 0.9147 0.46537 0.0
O63 O 0.75923 0.76404 0.26476 0.0
O64 O 0.63469 0.85339 0.34233 0.0
O65 O 0.75689 0.92202 0.27002 0.0
Sc66 Sc 0.88296 0.19208 0.65656 0.0
Sc67 Sc 0.87829 0.30426 0.57763 0.0
Sc68 Sc 0.76638 0.24222 0.61494 0.0
O69 O 0.84185 0.24608 0.61633 0.0
C70 C 0.80475 0.13201 0.57723 0.0
C71 C 0.94883 0.2225 0.53817 0.0
C72 C 0.78378 0.29557 0.4876 0.0
C73 C 0.94652 0.27987 0.69596 0.0
C74 C 0.78639 0.1923 0.74407 0.0
C75 C 0.7939 0.35505 0.65562 0.0
O76 O 0.84863 0.13768 0.59909 0.0
O77 O 0.91848 0.25536 0.51888 0.0
O78 O 0.76029 0.26472 0.52127 0.0
O79 O 0.91843 0.2448 0.71508 0.0
O80 O 0.76038 0.2191 0.70833 0.0
O81 O 0.83871 0.35371 0.63577 0.0
O82 O 0.83029 0.17742 0.73055 0.0
O83 O 0.93929 0.30148 0.6444 0.0
O84 O 0.76157 0.3199 0.64728 0.0
O85 O 0.94374 0.20049 0.58994 0.0
O86 O 0.76967 0.16451 0.58288 0.0
O87 O 0.82507 0.31555 0.50372 0.0
Sc88 Sc 0.24389 0.26308 0.86028 0.0
Sc89 Sc 0.31011 0.37322 0.82353 0.0
Sc90 Sc 0.19814 0.38102 0.903 0.0
O91 O 0.25067 0.3384 0.86216 0.0
C92 C 0.13606 0.30619 0.82108 0.0
C93 C 0.29791 0.27986 0.73255 0.0
C94 C 0.23033 0.44729 0.78599 0.0
C95 C 0.35781 0.28572 0.90015 0.0
C96 C 0.19337 0.28383 -0.01114 0.0
C97 C 0.28787 0.44093 0.94325 0.0
O98 O 0.16695 0.26965 0.82646 0.0
O99 O 0.31827 0.3211 0.74806 0.0
O100 O 0.20837 0.4423 0.83772 0.0
O101 O 0.32046 0.25561 0.89476 0.0
O102 O 0.18088 0.32854 0.97602 0.0
O103 O 0.30972 0.43335 0.89186 0.0
O104 O 0.21913 0.25701 0.95294 0.0
O105 O 0.35908 0.3302 0.8791 0.0
O106 O 0.2524 0.41323 0.96204 0.0
O107 O 0.26773 0.25634 0.7671 0.0
O108 O 0.14282 0.34931 0.84471 0.0
O109 O 0.2626 0.41653 0.76625 0.0
Sc110 Sc 0.38087 0.69567 0.14872 0.0
Sc111 Sc 0.37199 0.80912 0.07305 0.0
Sc112 Sc 0.26286 0.73929 0.10465 0.0
O113 O 0.33786 0.74787 0.10835 0.0
C114 C 0.30923 0.6328 0.06447 0.0
C115 C 0.44854 0.73216 0.03405 0.0
C116 C 0.28074 0.79536 0.9787 0.0
C117 C 0.43809 0.78498 0.19353 0.0
C118 C 0.28266 0.68817 0.23289 0.0
C119 C 0.28176 0.85313 0.14773 0.0
O120 O 0.35213 0.64059 0.08811 0.0
O121 O 0.41729 0.76433 0.01527 0.0
O122 O 0.25784 0.76343 0.01151 0.0
O123 O 0.40927 0.74989 0.21036 0.0
O124 O 0.25604 0.71435 0.1972 0.0
O125 O 0.32692 0.85552 0.12921 0.0
O126 O 0.32742 0.67573 0.21996 0.0
O127 O 0.43154 0.80836 0.14288 0.0
O128 O 0.2525 0.81547 0.13946 0.0
O129 O 0.44311 0.70881 0.08494 0.0
O130 O 0.27177 0.66252 0.07056 0.0
O131 O 0.3206 0.81744 -0.00368 0.0
Sc132 Sc 0.79025 0.60599 0.90511 0.0
Sc133 Sc 0.67623 0.61404 0.82914 0.0
Sc134 Sc 0.74627 0.72371 0.85849 0.0
O135 O 0.73773 0.64845 0.86386 0.0
C136 C 0.79613 0.70484 -0.01149 0.0
C137 C 0.69951 0.54795 0.94984 0.0
C138 C 0.63273 0.70531 0.90272 0.0
C139 C 0.75444 0.53753 0.7904 0.0
C140 C 0.8533 0.67786 0.82008 0.0
C141 C 0.68937 0.70442 0.73319 0.0
O142 O 0.80724 0.65939 0.97743 0.0
O143 O 0.67603 0.55568 0.89967 0.0
O144 O 0.67028 0.73456 0.89375 0.0
O145 O 0.77954 0.54492 0.83964 0.0
O146 O 0.82271 0.7148 0.8234 0.0
O147 O 0.66807 0.66431 0.75136 0.0
O148 O 0.8461 0.63593 0.84633 0.0
O149 O 0.72011 0.56684 0.77253 0.0
O150 O 0.72112 0.72802 0.76552 0.0
O151 O 0.73681 0.57433 0.96584 0.0
O152 O 0.77214 0.73175 0.95078 0.0
O153 O 0.63022 0.66006 0.88467 0.0
Sc154 Sc 0.60257 0.2942 0.15866 0.0
Sc155 Sc 0.61216 0.18136 0.0818 0.0
Sc156 Sc 0.72093 0.25095 0.11454 0.0
O157 O 0.64594 0.24239 0.11794 0.0
C158 C 0.67508 0.35824 0.07625 0.0
C159 C 0.53752 0.25978 0.0411 0.0
C160 C 0.70432 0.19467 -0.01116 0.0
C161 C 0.54414 0.20462 0.20064 0.0
C162 C 0.70016 0.30026 0.24382 0.0
C163 C 0.70132 0.13695 0.15746 0.0
O164 O 0.63229 0.3504 0.10019 0.0
O165 O 0.56847 0.22696 0.02319 0.0
O166 O 0.72655 0.22736 0.02118 0.0
O167 O 0.57275 0.23945 0.21866 0.0
O168 O 0.72722 0.27538 0.20724 0.0
O169 O 0.65608 0.13486 0.13914 0.0
O170 O 0.65518 0.3123 0.23147 0.0
O171 O 0.55136 0.18199 0.14969 0.0
O172 O 0.73092 0.17433 0.14874 0.0
O173 O 0.54155 0.28235 0.09272 0.0
O174 O 0.71225 0.32801 0.08111 0.0
O175 O 0.66468 0.17232 0.00654 0.0
C176 C 0.25932 0.98755 0.18663 0.0
C177 C 0.26102 0.98678 0.25123 0.0
C178 C 0.26199 0.94302 0.15288 0.0
C179 C 0.26479 0.89642 0.18276 0.0
H180 H 0.25736 0.0229 0.16204 0.0
H181 H 0.26378 0.94508 0.10312 0.0
S182 S 0.26563 0.87369 0.35078 0.0
N183 N 0.26256 0.93541 0.34392 0.0
N184 N 0.2669 0.8514 0.27983 0.0
C185 C 0.26424 0.89483 0.24716 0.0
C186 C 0.26256 0.9402 0.28165 0.0
C187 C 0.97424 0.73187 0.75835 0.0
C188 C -0.00468 0.69104 0.72599 0.0
C189 C 0.92741 0.72799 0.78693 0.0
C190 C 0.9003 0.68292 0.78513 0.0
H191 H -0.00647 0.76771 0.76068 0.0
H192 H 0.91286 0.76015 0.81165 0.0
S193 S 0.93786 0.56513 0.7061 0.0
N194 N 0.9848 0.60442 0.69309 0.0
N195 N 0.89686 0.59667 0.74783 0.0
C196 C 0.92069 0.64173 0.75302 0.0
C197 C 0.96817 0.6459 0.72318 0.0
C198 C 0.72584 0.00223 0.19267 0.0
C199 C 0.72082 0.0011 0.25704 0.0
C200 C 0.72377 0.04762 0.16053 0.0
C201 C 0.71817 0.09328 0.19193 0.0
H202 H 0.72992 0.96767 0.16685 0.0
H203 H 0.7245 0.0469 0.11068 0.0
S204 S 0.70825 0.11131 0.36036 0.0
N205 N 0.71333 0.04992 0.35136 0.0
N206 N 0.7099 0.13548 0.29034 0.0
C207 C 0.71535 0.09304 0.25627 0.0
C208 C 0.71655 0.0468 0.28906 0.0
C209 C 0.06162 0.25464 0.79273 0.0
C210 C 0.08924 0.29919 0.78654 0.0
C211 C 0.01459 0.24959 0.76487 0.0
C212 C -0.00599 0.28863 0.72905 0.0
H213 H 0.07586 0.22401 0.82043 0.0
H214 H -0.0053 0.21435 0.77062 0.0
S215 S 0.05327 0.41199 0.69654 0.0
N216 N 0.09398 0.38259 0.74092 0.0
N217 N 0.00567 0.37274 0.68777 0.0
C218 C 0.02183 0.33305 0.72165 0.0
C219 C 0.06945 0.3384 0.7506 0.0
C220 C 0.25983 0.55669 0.03765 0.0
C221 C 0.30337 0.58564 0.03032 0.0
C222 C 0.25619 0.50905 0.01111 0.0
C223 C 0.29568 0.48905 0.97547 0.0
H224 H 0.22893 0.57034 0.06536 0.0
H225 H 0.2216 0.48822 0.01778 0.0
S226 S 0.41681 0.55178 0.94028 0.0
N227 N 0.38634 0.59227 0.98389 0.0
N228 N 0.3791 0.50277 0.93306 0.0
C229 C 0.3391 0.5182 0.9669 0.0
C230 C 0.34302 0.5665 -0.00545 0.0
C231 C 0.58631 0.7126 -4e-05 0.0
C232 C 0.58913 0.72279 0.93675 0.0
C233 C 0.54039 0.71499 0.03106 0.0
C234 C 0.49593 0.72742 -0.00034 0.0
H235 H 0.6194 0.7005 0.02485 0.0
H236 H 0.53975 0.70688 0.07991 0.0
S237 S 0.48435 0.75631 0.83314 0.0
N238 N 0.54469 0.74499 0.84343 0.0
N239 N 0.45801 0.7502 0.90155 0.0
C240 C 0.49871 0.73855 0.93641 0.0
C241 C 0.54547 0.73598 0.90498 0.0
C242 C 0.72549 0.4334 0.04754 0.0
C243 C 0.68096 0.40565 0.04237 0.0
C244 C 0.73003 0.48045 0.01959 0.0
C245 C 0.6905 0.50109 0.98454 0.0
H246 H 0.75667 0.41912 0.07422 0.0
H247 H 0.76549 0.50016 0.0244 0.0
S248 S 0.56633 0.44213 0.9561 0.0
N249 N 0.59653 0.40132 -0.00045 0.0
N250 N 0.6055 0.48965 0.94609 0.0
C251 C 0.6458 0.47343 0.97877 0.0
C252 C 0.64097 0.42574 0.00791 0.0
C253 C 0.44508 0.27095 0.03365 0.0
C254 C 0.49185 0.26606 0.00423 0.0
C255 C 0.40064 0.27303 -0.00061 0.0
C256 C 0.40192 0.2706 0.93494 0.0
H257 H 0.44279 0.27279 0.08338 0.0
H258 H 0.36534 0.27865 0.02319 0.0
S259 S 0.51439 0.25857 0.83612 0.0
N260 N 0.53661 0.25849 0.90707 0.0
N261 N 0.45285 0.26384 0.84281 0.0
C262 C 0.44818 0.26546 0.90506 0.0
C263 C 0.4933 0.26275 0.93974 0.0
C264 C 0.80907 0.46614 0.7609 0.0
C265 C 0.76304 0.49111 0.75515 0.0
C266 C 0.81787 0.42143 0.72946 0.0
C267 C 0.78079 0.39966 0.69167 0.0
H268 H 0.83881 0.48147 0.78936 0.0
H269 H 0.85424 0.40379 0.73465 0.0
S270 S 0.65335 0.44905 0.66232 0.0
N271 N 0.67923 0.4902 0.70962 0.0
N272 N 0.69631 0.40551 0.65064 0.0
C273 C 0.73427 0.42348 0.68625 0.0
C274 C 0.72534 0.46951 0.71777 0.0
C275 C 0.46905 0.15261 0.227 0.0
C276 C 0.49631 0.19745 0.23384 0.0
C277 C 0.4221 0.1466 0.25491 0.0
C278 C 0.40032 0.18557 0.28953 0.0
H279 H 0.48412 0.12191 0.2001 0.0
H280 H 0.40254 0.11115 0.24904 0.0
S281 S 0.45541 0.31091 0.32028 0.0
N282 N 0.49754 0.28204 0.27743 0.0
N283 N 0.40898 0.27035 0.32909 0.0
C284 C 0.42669 0.23079 0.29615 0.0
C285 C 0.47485 0.23676 0.26864 0.0
C286 C 0.20947 0.53521 0.65315 0.0
C287 C 0.21435 0.5826 0.68098 0.0
C288 C 0.21489 0.49128 0.68757 0.0
C289 C 0.22356 0.49366 0.75112 0.0
H290 H 0.20028 0.53219 0.60471 0.0
H291 H 0.21099 0.45529 0.66473 0.0
S292 S 0.24139 0.60859 0.84503 0.0
N293 N 0.23047 0.62961 0.77474 0.0
N294 N 0.23945 0.54667 0.84025 0.0
C295 C 0.22944 0.54077 0.77934 0.0
C296 C 0.22517 0.58549 0.74395 0.0
C297 C 0.55799 0.8423 0.25558 0.0
C298 C 0.58042 0.80168 0.28674 0.0
C299 C 0.51166 0.83696 0.22593 0.0
C300 C 0.48566 0.79112 0.2275 0.0
H301 H 0.57654 0.87856 0.2538 0.0
H302 H 0.49599 0.86897 0.202 0.0
S303 S 0.52891 0.67292 0.30171 0.0
N304 N 0.57383 0.71404 0.31637 0.0
N305 N 0.48654 0.70362 0.26125 0.0
C306 C 0.50787 0.75006 0.25829 0.0
C307 C 0.55537 0.7554 0.28764 0.0
C308 C 0.83573 0.06192 0.5122 0.0
C309 C 0.79554 0.08501 0.54338 0.0
C310 C 0.8295 0.01593 0.48214 0.0
C311 C 0.78312 0.99094 0.48323 0.0
H312 H 0.87239 0.07967 0.51067 0.0
H313 H 0.86126 -0.00026 0.45825 0.0
S314 S 0.66557 0.03639 0.55669 0.0
N315 N 0.70759 0.08032 0.57217 0.0
N316 N 0.69554 -0.00651 0.51616 0.0
C317 C 0.74242 0.01382 0.51388 0.0
C318 C 0.74867 0.06104 0.5437 0.0
C319 C 0.03809 0.20671 0.40552 0.0
C320 C 0.08517 0.21069 0.43427 0.0
C321 C -0.00618 0.21045 0.43964 0.0
C322 C -0.00447 0.21643 0.50372 0.0
H323 H 0.03559 0.1994 0.35656 0.0
H324 H 0.95808 0.20747 0.41606 0.0
S325 S 0.10956 0.23123 0.60005 0.0
N326 N 0.13124 0.22321 0.52948 0.0
N327 N 0.04771 0.22912 0.59437 0.0
C328 C 0.04238 0.22144 0.53288 0.0
C329 C 0.08742 0.21889 0.49785 0.0
C330 C 0.14585 0.91958 0.50232 0.0
C331 C 0.187 0.89597 0.53098 0.0
C332 C 0.15094 0.96651 0.47417 0.0
C333 C 0.19711 -0.00814 0.4748 0.0
H334 H 0.10925 0.90167 0.50169 0.0
H335 H 0.11845 0.98326 0.45243 0.0
S336 S 0.3171 0.94488 0.54036 0.0
N337 N 0.27579 0.90029 0.5558 0.0
N338 N 0.28568 0.98879 0.50328 0.0
C339 C 0.23886 0.96825 0.50229 0.0
C340 C 0.23376 0.92014 0.53013 0.0
C341 C 0.94906 0.79085 0.52337 0.0
C342 C 0.98719 0.76125 0.49724 0.0
C343 C 0.90306 0.79703 0.49368 0.0
C344 C 0.89324 0.77337 0.4373 0.0
H345 H 0.95465 0.80966 0.56704 0.0
H346 H 0.87531 0.82157 0.5142 0.0
S347 S 0.97965 0.69311 0.34803 0.0
N348 N 0.01166 0.70846 0.41038 0.0
N349 N 0.92435 0.72034 0.35529 0.0
C350 C 0.93021 0.74326 0.41071 0.0
C351 C 0.97746 0.73717 0.44052 0.0
C352 C 0.18481 0.29454 0.10216 0.0
C353 C 0.18203 0.26322 0.0503 0.0
C354 C 0.18467 0.27424 0.16156 0.0
C355 C 0.18078 0.22206 0.17114 0.0
H356 H 0.19037 0.33464 0.09684 0.0
H357 H 0.18951 0.29948 0.20023 0.0
S358 S 0.1656 0.12475 0.05053 0.0
N359 N 0.17031 0.17808 0.01214 0.0
N360 N 0.16925 0.14002 0.12404 0.0
C361 C 0.17409 0.19073 0.11982 0.0
C362 C 0.175 0.21131 0.05929 0.0
C363 C 0.20857 0.80061 0.90613 0.0
C364 C 0.26066 0.80459 0.91637 0.0
C365 C 0.18871 0.80053 0.84648 0.0
C366 C 0.22037 0.80342 0.79492 0.0
H367 H 0.18304 0.79567 0.9445 0.0
H368 H 0.14866 0.79496 0.84074 0.0
S369 S 0.35878 0.8199 0.79681 0.0
N370 N 0.343 0.81619 0.87017 0.0
N371 N 0.30578 0.81511 0.75778 0.0
C372 C 0.27221 0.81037 0.80455 0.0
C373 C 0.29235 0.81128 0.86538 0.0
C374 C 0.80085 0.71473 0.16165 0.0
C375 C 0.80316 0.76695 0.17154 0.0
C376 C 0.80265 0.69453 0.10222 0.0
C377 C 0.80582 0.72592 0.05039 0.0
H378 H 0.79574 0.68931 0.2001 0.0
H379 H 0.79824 0.65431 0.09679 0.0
S380 S 0.81849 0.86485 0.05177 0.0
N381 N 0.81359 0.84931 0.1251 0.0
N382 N 0.8161 0.81153 0.01302 0.0
C383 C 0.81125 0.77802 0.05984 0.0
C384 C 0.81022 0.79851 0.12053 0.0
C385 C 0.79728 0.18675 0.85767 0.0
C386 C 0.7659 0.18253 0.80601 0.0
C387 C 0.77704 0.18826 0.91712 0.0
C388 C 0.72488 0.18454 0.927 0.0
H389 H 0.83736 0.19214 0.852 0.0
H390 H 0.80231 0.19411 0.95555 0.0
S391 S 0.62743 0.16647 0.8072 0.0
N392 N 0.68071 0.17014 0.76851 0.0
N393 N 0.64279 0.17194 0.88051 0.0
C394 C 0.69349 0.17661 0.87601 0.0
C395 C 0.714 0.17594 0.8154 0.0
C396 C 0.67871 0.79619 0.60096 0.0
C397 C 0.67626 0.76443 0.54944 0.0
C398 C 0.68055 0.77636 0.66062 0.0
C399 C 0.67892 0.72415 0.67095 0.0
H400 H 0.68252 0.83643 0.59508 0.0
H401 H 0.68502 0.80206 0.6989 0.0
S402 S 0.66594 0.62539 0.55178 0.0
N403 N 0.66776 0.67854 0.51263 0.0
N404 N 0.67008 0.64139 0.62503 0.0
C405 C 0.6727 0.69221 0.62011 0.0
C406 C 0.67174 0.71234 0.55926 0.0
C407 C 0.71045 0.30189 0.41668 0.0
C408 C 0.76263 0.30632 0.42614 0.0
C409 C 0.68977 0.30417 0.35753 0.0
C410 C 0.72068 0.31012 0.30569 0.0
H411 H 0.6855 0.29479 0.45512 0.0
H412 H 0.64978 0.29793 0.35214 0.0
S413 S 0.85877 0.32923 0.30585 0.0
N414 N 0.84409 0.32177 0.3791 0.0
N415 N 0.80529 0.32529 0.26769 0.0
C416 C 0.77248 0.31772 0.31474 0.0
C417 C 0.79346 0.31609 0.37506 0.0
C418 C 0.30315 0.20694 0.66089 0.0
C419 C 0.30684 0.25916 0.67049 0.0
C420 C 0.30325 0.18663 0.60146 0.0
C421 C 0.3061 0.21797 0.54965 0.0
H422 H 0.29831 0.18168 0.69954 0.0
H423 H 0.29779 0.14653 0.59605 0.0
S424 S 0.32182 0.35648 0.54979 0.0
N425 N 0.3181 0.34124 0.62329 0.0
N426 N 0.31745 0.3031 0.51145 0.0
C427 C 0.31284 0.26989 0.55864 0.0
C428 C 0.3135 0.29049 0.61914 0.0
C429 C 0.2936 0.67865 0.34615 0.0
C430 C 0.26202 0.67683 0.29446 0.0
C431 C 0.2736 0.67876 0.40574 0.0
C432 C 0.22139 0.67614 0.4158 0.0
H433 H 0.33379 0.68326 0.3406 0.0
H434 H 0.29917 0.68281 0.44421 0.0
S435 S 0.12316 0.66406 0.29579 0.0
N436 N 0.17639 0.66754 0.257 0.0
N437 N 0.13889 0.66697 0.36919 0.0
C438 C 0.18968 0.6705 0.36463 0.0
C439 C 0.20999 0.67113 0.30388 0.0
loop_
_geom_bond_atom_site_label_1
_geom_bond_atom_site_label_2
_geom_bond_distance
_geom_bond_site_symmetry_2
_ccdc_geom_bond_type
Sc0 O3 2.025 . S
Sc0 O10 2.105 . S
Sc0 O13 2.105 . S
Sc0 O16 2.105 . S
Sc0 O19 2.105 . S
Sc1 O3 2.025 . S
Sc1 O11 2.105 . S
Sc1 O15 2.105 . S
Sc1 O17 2.105 . S
Sc1 O21 2.105 . S
Sc2 O3 2.025 . S
Sc2 O12 2.105 . S
Sc2 O14 2.105 . S
Sc2 O18 2.105 . S
Sc2 O20 2.105 . S
O3 Sc0 2.025 . S
O3 Sc1 2.025 . S
O3 Sc2 2.025 . S
C4 O10 1.268 . S
C4 O20 1.268 . S
C5 O11 1.268 . S
C5 O19 1.268 . S
C6 O12 1.268 . S
C6 O21 1.268 . S
C7 O13 1.268 . S
C7 O17 1.268 . S
C8 O14 1.268 . S
C8 O16 1.268 . S
C9 O15 1.268 . S
C9 O18 1.268 . S
O10 Sc0 2.105 . S
O10 C4 1.268 . S
O11 Sc1 2.105 . S
O11 C5 1.268 . S
O12 Sc2 2.105 . S
O12 C6 1.268 . S
O13 Sc0 2.105 . S
O13 C7 1.268 . S
O14 Sc2 2.105 . S
O14 C8 1.268 . S
O15 Sc1 2.105 . S
O15 C9 1.268 . S
O16 Sc0 2.105 . S
O16 C8 1.268 . S
O17 Sc1 2.105 . S
O17 C7 1.268 . S
O18 Sc2 2.105 . S
O18 C9 1.268 . S
O19 Sc0 2.105 . S
O19 C5 1.268 . S
O20 Sc2 2.105 . S
O20 C4 1.268 . S
O21 Sc1 2.105 . S
O21 C6 1.268 . S
Sc22 O25 2.025 . S
Sc22 O32 2.105 . S
Sc22 O35 2.105 . S
Sc22 O38 2.105 . S
Sc22 O41 2.105 . S
Sc23 O25 2.025 . S
Sc23 O33 2.105 . S
Sc23 O37 2.105 . S
Sc23 O39 2.105 . S
Sc23 O43 2.105 . S
Sc24 O25 2.025 . S
Sc24 O34 2.105 . S
Sc24 O36 2.105 . S
Sc24 O40 2.105 . S
Sc24 O42 2.105 . S
O25 Sc22 2.025 . S
O25 Sc23 2.025 . S
O25 Sc24 2.025 . S
C26 O32 1.268 . S
C26 O42 1.268 . S
C27 O33 1.268 . S
C27 O41 1.268 . S
C28 O34 1.268 . S
C28 O43 1.268 . S
C29 O35 1.268 . S
C29 O39 1.268 . S
C30 O36 1.268 . S
C30 O38 1.268 . S
C31 O37 1.268 . S
C31 O40 1.268 . S
O32 Sc22 2.105 . S
O32 C26 1.268 . S
O33 Sc23 2.105 . S
O33 C27 1.268 . S
O34 Sc24 2.105 . S
O34 C28 1.268 . S
O35 Sc22 2.105 . S
O35 C29 1.268 . S
O36 Sc24 2.105 . S
O36 C30 1.268 . S
O37 Sc23 2.105 . S
O37 C31 1.268 . S
O38 Sc22 2.105 . S
O38 C30 1.268 . S
O39 Sc23 2.105 . S
O39 C29 1.268 . S
O40 Sc24 2.105 . S
O40 C31 1.268 . S
O41 Sc22 2.105 . S
O41 C27 1.268 . S
O42 Sc24 2.105 . S
O42 C26 1.268 . S
O43 Sc23 2.105 . S
O43 C28 1.268 . S
Sc44 O47 2.025 . S
Sc44 O54 2.105 . S
Sc44 O57 2.105 . S
Sc44 O60 2.105 . S
Sc44 O63 2.105 . S
Sc45 O47 2.025 . S
Sc45 O55 2.105 . S
Sc45 O59 2.105 . S
Sc45 O61 2.105 . S
Sc45 O65 2.105 . S
Sc46 O47 2.025 . S
Sc46 O56 2.105 . S
Sc46 O58 2.105 . S
Sc46 O62 2.105 . S
Sc46 O64 2.105 . S
O47 Sc44 2.025 . S
O47 Sc45 2.025 . S
O47 Sc46 2.025 . S
C48 O54 1.268 . S
C48 O64 1.268 . S
C49 O55 1.268 . S
C49 O63 1.268 . S
C50 O56 1.268 . S
C50 O65 1.268 . S
C51 O57 1.268 . S
C51 O61 1.268 . S
C52 O58 1.268 . S
C52 O60 1.268 . S
C53 O59 1.268 . S
C53 O62 1.268 . S
O54 Sc44 2.105 . S
O54 C48 1.268 . S
O55 Sc45 2.105 . S
O55 C49 1.268 . S
O56 Sc46 2.105 . S
O56 C50 1.268 . S
O57 Sc44 2.105 . S
O57 C51 1.268 . S
O58 Sc46 2.105 . S
O58 C52 1.268 . S
O59 Sc45 2.105 . S
O59 C53 1.268 . S
O60 Sc44 2.105 . S
O60 C52 1.268 . S
O61 Sc45 2.105 . S
O61 C51 1.268 . S
O62 Sc46 2.105 . S
O62 C53 1.268 . S
O63 Sc44 2.105 . S
O63 C49 1.268 . S
O64 Sc46 2.105 . S
O64 C48 1.268 . S
O65 Sc45 2.105 . S
O65 C50 1.268 . S
Sc66 O69 2.025 . S
Sc66 O76 2.105 . S
Sc66 O79 2.105 . S
Sc66 O82 2.105 . S
Sc66 O85 2.105 . S
Sc67 O69 2.025 . S
Sc67 O77 2.105 . S
Sc67 O81 2.105 . S
Sc67 O83 2.105 . S
Sc67 O87 2.105 . S
Sc68 O69 2.025 . S
Sc68 O78 2.105 . S
Sc68 O80 2.105 . S
Sc68 O84 2.105 . S
Sc68 O86 2.105 . S
O69 Sc66 2.025 . S
O69 Sc67 2.025 . S
O69 Sc68 2.025 . S
C70 O76 1.268 . S
C70 O86 1.268 . S
C71 O77 1.268 . S
C71 O85 1.268 . S
C72 O78 1.268 . S
C72 O87 1.268 . S
C73 O79 1.268 . S
C73 O83 1.268 . S
C74 O80 1.268 . S
C74 O82 1.268 . S
C75 O81 1.268 . S
C75 O84 1.268 . S
O76 Sc66 2.105 . S
O76 C70 1.268 . S
O77 Sc67 2.105 . S
O77 C71 1.268 . S
O78 Sc68 2.105 . S
O78 C72 1.268 . S
O79 Sc66 2.105 . S
O79 C73 1.268 . S
O80 Sc68 2.105 . S
O80 C74 1.268 . S
O81 Sc67 2.105 . S
O81 C75 1.268 . S
O82 Sc66 2.105 . S
O82 C74 1.268 . S
O83 Sc67 2.105 . S
O83 C73 1.268 . S
O84 Sc68 2.105 . S
O84 C75 1.268 . S
O85 Sc66 2.105 . S
O85 C71 1.268 . S
O86 Sc68 2.105 . S
O86 C70 1.268 . S
O87 Sc67 2.105 . S
O87 C72 1.268 . S
Sc88 O91 2.025 . S
Sc88 O98 2.105 . S
Sc88 O101 2.105 . S
Sc88 O104 2.105 . S
Sc88 O107 2.105 . S
Sc89 O91 2.025 . S
Sc89 O99 2.105 . S
Sc89 O103 2.105 . S
Sc89 O105 2.105 . S
Sc89 O109 2.105 . S
Sc90 O91 2.025 . S
Sc90 O100 2.105 . S
Sc90 O102 2.105 . S
Sc90 O106 2.105 . S
Sc90 O108 2.105 . S
O91 Sc88 2.025 . S
O91 Sc89 2.025 . S
O91 Sc90 2.025 . S
C92 O98 1.268 . S
C92 O108 1.268 . S
C93 O99 1.268 . S
C93 O107 1.268 . S
C94 O100 1.268 . S
C94 O109 1.268 . S
C95 O101 1.268 . S
C95 O105 1.268 . S
C96 O102 1.268 1_554 S
C96 O104 1.268 1_554 S
C97 O103 1.268 . S
C97 O106 1.268 . S
O98 Sc88 2.105 . S
O98 C92 1.268 . S
O99 Sc89 2.105 . S
O99 C93 1.268 . S
O100 Sc90 2.105 . S
O100 C94 1.268 . S
O101 Sc88 2.105 . S
O101 C95 1.268 . S
O102 Sc90 2.105 . S
O102 C96 1.268 1_556 S
O103 Sc89 2.105 . S
O103 C97 1.268 . S
O104 Sc88 2.105 . S
O104 C96 1.268 1_556 S
O105 Sc89 2.105 . S
O105 C95 1.268 . S
O106 Sc90 2.105 . S
O106 C97 1.268 . S
O107 Sc88 2.105 . S
O107 C93 1.268 . S
O108 Sc90 2.105 . S
O108 C92 1.268 . S
O109 Sc89 2.105 . S
O109 C94 1.268 . S
Sc110 O113 2.025 . S
Sc110 O120 2.105 . S
Sc110 O123 2.105 . S
Sc110 O126 2.105 . S
Sc110 O129 2.105 . S
Sc111 O113 2.025 . S
Sc111 O121 2.105 . S
Sc111 O125 2.105 . S
Sc111 O127 2.105 . S
Sc111 O131 2.105 . S
Sc112 O113 2.025 . S
Sc112 O122 2.105 . S
Sc112 O124 2.105 . S
Sc112 O128 2.105 . S
Sc112 O130 2.105 . S
O113 Sc110 2.025 . S
O113 Sc111 2.025 . S
O113 Sc112 2.025 . S
C114 O120 1.268 . S
C114 O130 1.268 . S
C115 O121 1.268 . S
C115 O129 1.268 . S
C116 O122 1.268 1_556 S
C116 O131 1.268 1_556 S
C117 O123 1.268 . S
C117 O127 1.268 . S
C118 O124 1.268 . S
C118 O126 1.268 . S
C119 O125 1.268 . S
C119 O128 1.268 . S
O120 Sc110 2.105 . S
O120 C114 1.268 . S
O121 Sc111 2.105 . S
O121 C115 1.268 . S
O122 Sc112 2.105 . S
O122 C116 1.268 1_554 S
O123 Sc110 2.105 . S
O123 C117 1.268 . S
O124 Sc112 2.105 . S
O124 C118 1.268 . S
O125 Sc111 2.105 . S
O125 C119 1.268 . S
O126 Sc110 2.105 . S
O126 C118 1.268 . S
O127 Sc111 2.105 . S
O127 C117 1.268 . S
O128 Sc112 2.105 . S
O128 C119 1.268 . S
O129 Sc110 2.105 . S
O129 C115 1.268 . S
O130 Sc112 2.105 . S
O130 C114 1.268 . S
O131 Sc111 2.105 . S
O131 C116 1.268 1_554 S
Sc132 O135 2.025 . S
Sc132 O142 2.105 . S
Sc132 O145 2.105 . S
Sc132 O148 2.105 . S
Sc132 O151 2.105 . S
Sc133 O135 2.025 . S
Sc133 O143 2.105 . S
Sc133 O147 2.105 . S
Sc133 O149 2.105 . S
Sc133 O153 2.105 . S
Sc134 O135 2.025 . S
Sc134 O144 2.105 . S
Sc134 O146 2.105 . S
Sc134 O150 2.105 . S
Sc134 O152 2.105 . S
O135 Sc132 2.025 . S
O135 Sc133 2.025 . S
O135 Sc134 2.025 . S
C136 O142 1.268 1_554 S
C136 O152 1.268 1_554 S
C137 O143 1.268 . S
C137 O151 1.268 . S
C138 O144 1.268 . S
C138 O153 1.268 . S
C139 O145 1.268 . S
C139 O149 1.268 . S
C140 O146 1.268 . S
C140 O148 1.268 . S
C141 O147 1.268 . S
C141 O150 1.268 . S
O142 Sc132 2.105 . S
O142 C136 1.268 1_556 S
O143 Sc133 2.105 . S
O143 C137 1.268 . S
O144 Sc134 2.105 . S
O144 C138 1.268 . S
O145 Sc132 2.105 . S
O145 C139 1.268 . S
O146 Sc134 2.105 . S
O146 C140 1.268 . S
O147 Sc133 2.105 . S
O147 C141 1.268 . S
O148 Sc132 2.105 . S
O148 C140 1.268 . S
O149 Sc133 2.105 . S
O149 C139 1.268 . S
O150 Sc134 2.105 . S
O150 C141 1.268 . S
O151 Sc132 2.105 . S
O151 C137 1.268 . S
O152 Sc134 2.105 . S
O152 C136 1.268 1_556 S
O153 Sc133 2.105 . S
O153 C138 1.268 . S
Sc154 O157 2.025 . S
Sc154 O164 2.105 . S
Sc154 O167 2.105 . S
Sc154 O170 2.105 . S
Sc154 O173 2.105 . S
Sc155 O157 2.025 . S
Sc155 O165 2.105 . S
Sc155 O169 2.105 . S
Sc155 O171 2.105 . S
Sc155 O175 2.105 . S
Sc156 O157 2.025 . S
Sc156 O166 2.105 . S
Sc156 O168 2.105 . S
Sc156 O172 2.105 . S
Sc156 O174 2.105 . S
O157 Sc154 2.025 . S
O157 Sc155 2.025 . S
O157 Sc156 2.025 . S
C158 O164 1.268 . S
C158 O174 1.268 . S
C159 O165 1.268 . S
C159 O173 1.268 . S
C160 O166 1.268 1_556 S
C160 O175 1.268 1_556 S
C161 O167 1.268 . S
C161 O171 1.268 . S
C162 O168 1.268 . S
C162 O170 1.268 . S
C163 O169 1.268 . S
C163 O172 1.268 . S
O164 Sc154 2.105 . S
O164 C158 1.268 . S
O165 Sc155 2.105 . S
O165 C159 1.268 . S
O166 Sc156 2.105 . S
O166 C160 1.268 1_554 S
O167 Sc154 2.105 . S
O167 C161 1.268 . S
O168 Sc156 2.105 . S
O168 C162 1.268 . S
O169 Sc155 2.105 . S
O169 C163 1.268 . S
O170 Sc154 2.105 . S
O170 C162 1.268 . S
O171 Sc155 2.105 . S
O171 C161 1.268 . S
O172 Sc156 2.105 . S
O172 C163 1.268 . S
O173 Sc154 2.105 . S
O173 C159 1.268 . S
O174 Sc156 2.105 . S
O174 C158 1.268 . S
O175 Sc155 2.105 . S
O175 C160 1.268 1_554 S
C176 C177 1.368 1_565 S
C176 C178 1.434 . S
C176 H180 0.915 1_565 S
C177 C176 1.368 1_545 S
C177 C186 1.429 1_545 S
C178 C176 1.434 . S
C178 C179 1.363 . S
C178 H181 0.929 . S
C179 C178 1.363 . S
C179 C185 1.428 . S
H180 C176 0.915 1_545 S
H181 C178 0.929 . S
S182 N183 1.613 . S
S182 N184 1.610 . S
N183 S182 1.613 . S
N183 C186 1.350 . S
N184 S182 1.610 . S
N184 C185 1.351 . S
C185 C179 1.428 . S
C185 N184 1.351 . S
C185 C186 1.434 . S
C186 C177 1.429 1_565 S
C186 N183 1.350 . S
C186 C185 1.434 . S
C187 C188 1.369 1_655 S
C187 C189 1.419 . S
C187 H191 0.930 . S
C188 C187 1.369 1_455 S
C188 C197 1.429 1_455 S
C189 C187 1.419 . S
C189 C190 1.363 . S
C189 H192 0.929 . S
C190 C189 1.363 . S
C190 C196 1.428 . S
H191 C187 0.930 . S
H192 C189 0.929 . S
S193 N194 1.613 1_655 S
S193 N195 1.610 . S
N194 S193 1.613 1_455 S
N194 C197 1.350 1_455 S
N195 S193 1.610 . S
N195 C196 1.351 . S
C196 C190 1.428 . S
C196 N195 1.351 . S
C196 C197 1.434 . S
C197 C188 1.429 1_655 S
C197 N194 1.350 1_655 S
C197 C196 1.434 . S
C198 C199 1.369 1_545 S
C198 C200 1.419 . S
C198 H202 0.930 1_545 S
C199 C198 1.369 1_565 S
C199 C208 1.429 1_565 S
C200 C198 1.419 . S
C200 C201 1.363 . S
C200 H203 0.929 . S
C201 C200 1.363 . S
C201 C207 1.428 . S
H202 C198 0.930 1_565 S
H203 C200 0.929 . S
S204 N205 1.613 . S
S204 N206 1.610 . S
N205 S204 1.613 . S
N205 C208 1.350 . S
N206 S204 1.610 . S
N206 C207 1.351 . S
C207 C201 1.428 . S
C207 N206 1.351 . S
C207 C208 1.434 . S
C208 C199 1.429 1_545 S
C208 N205 1.350 . S
C208 C207 1.434 . S
C209 C210 1.369 . S
C209 C211 1.419 . S
C209 H213 0.930 . S
C210 C209 1.369 . S
C210 C219 1.429 . S
C211 C209 1.419 . S
C211 C212 1.363 1_455 S
C211 H214 0.929 1_455 S
C212 C211 1.363 1_655 S
C212 C218 1.428 1_655 S
H213 C209 0.930 . S
H214 C211 0.929 1_655 S
S215 N216 1.613 . S
S215 N217 1.610 . S
N216 S215 1.613 . S
N216 C219 1.350 . S
N217 S215 1.610 . S
N217 C218 1.351 . S
C218 C212 1.428 1_455 S
C218 N217 1.351 . S
C218 C219 1.434 . S
C219 C210 1.429 . S
C219 N216 1.350 . S
C219 C218 1.434 . S
C220 C221 1.369 . S
C220 C222 1.419 . S
C220 H224 0.930 . S
C221 C220 1.369 . S
C221 C230 1.429 . S
C222 C220 1.419 . S
C222 C223 1.363 1_554 S
C222 H225 0.929 . S
C223 C222 1.363 1_556 S
C223 C229 1.428 . S
H224 C220 0.930 . S
H225 C222 0.929 . S
S226 N227 1.613 . S
S226 N228 1.610 . S
N227 S226 1.613 . S
N227 C230 1.350 1_556 S
N228 S226 1.610 . S
N228 C229 1.351 . S
C229 C223 1.428 . S
C229 N228 1.351 . S
C229 C230 1.434 1_556 S
C230 C221 1.429 . S
C230 N227 1.350 1_554 S
C230 C229 1.434 1_554 S
C231 C232 1.369 . S
C231 C233 1.419 1_556 S
C231 H235 0.930 1_556 S
C232 C231 1.369 . S
C232 C241 1.429 . S
C233 C231 1.419 1_554 S
C233 C234 1.363 . S
C233 H236 0.929 . S
C234 C233 1.363 . S
C234 C240 1.428 1_554 S
H235 C231 0.930 1_554 S
H236 C233 0.929 . S
S237 N238 1.613 . S
S237 N239 1.610 . S
N238 S237 1.613 . S
N238 C241 1.350 . S
N239 S237 1.610 . S
N239 C240 1.351 . S
C240 C234 1.428 1_556 S
C240 N239 1.351 . S
C240 C241 1.434 . S
C241 C232 1.429 . S
C241 N238 1.350 . S
C241 C240 1.434 . S
C242 C243 1.369 . S
C242 C244 1.419 . S
C242 H246 0.930 . S
C243 C242 1.369 . S
C243 C252 1.429 . S
C244 C242 1.419 . S
C244 C245 1.363 1_554 S
C244 H247 0.929 1_554 S
C245 C244 1.363 1_556 S
C245 C251 1.428 1_556 S
H246 C242 0.930 . S
H247 C244 0.929 1_556 S
S248 N249 1.613 . S
S248 N250 1.610 . S
N249 S248 1.613 . S
N249 C252 1.350 . S
N250 S248 1.610 . S
N250 C251 1.351 . S
C251 C245 1.428 1_554 S
C251 N250 1.351 . S
C251 C252 1.434 . S
C252 C243 1.429 . S
C252 N249 1.350 . S
C252 C251 1.434 . S
C253 C254 1.369 . S
C253 C255 1.419 1_554 S
C253 H257 0.930 . S
C254 C253 1.369 . S
C254 C263 1.429 1_554 S
C255 C253 1.419 1_556 S
C255 C256 1.363 . S
C255 H258 0.929 1_556 S
C256 C255 1.363 . S
C256 C262 1.428 . S
H257 C253 0.930 . S
H258 C255 0.929 1_554 S
S259 N260 1.613 . S
S259 N261 1.610 . S
N260 S259 1.613 . S
N260 C263 1.350 . S
N261 S259 1.610 . S
N261 C262 1.351 . S
C262 C256 1.428 . S
C262 N261 1.351 . S
C262 C263 1.434 . S
C263 C254 1.429 1_556 S
C263 N260 1.350 . S
C263 C262 1.434 . S
C264 C265 1.369 . S
C264 C266 1.419 . S
C264 H268 0.930 . S
C265 C264 1.369 . S
C265 C274 1.429 . S
C266 C264 1.419 . S
C266 C267 1.363 . S
C266 H269 0.929 . S
C267 C266 1.363 . S
C267 C273 1.428 . S
H268 C264 0.930 . S
H269 C266 0.929 . S
S270 N271 1.613 . S
S270 N272 1.610 . S
N271 S270 1.613 . S
N271 C274 1.350 . S
N272 S270 1.610 . S
N272 C273 1.351 . S
C273 C267 1.428 . S
C273 N272 1.351 . S
C273 C274 1.434 . S
C274 C265 1.429 . S
C274 N271 1.350 . S
C274 C273 1.434 . S
C275 C276 1.369 . S
C275 C277 1.419 . S
C275 H279 0.930 . S
C276 C275 1.369 . S
C276 C285 1.429 . S
C277 C275 1.419 . S
C277 C278 1.363 . S
C277 H280 0.929 . S
C278 C277 1.363 . S
C278 C284 1.428 . S
H279 C275 0.930 . S
H280 C277 0.929 . S
S281 N282 1.613 . S
S281 N283 1.610 . S
N282 S281 1.613 . S
N282 C285 1.350 . S
N283 S281 1.610 . S
N283 C284 1.351 . S
C284 C278 1.428 . S
C284 N283 1.351 . S
C284 C285 1.434 . S
C285 C276 1.429 . S
C285 N282 1.350 . S
C285 C284 1.434 . S
C286 C287 1.369 . S
C286 C288 1.419 . S
C286 H290 0.930 . S
C287 C286 1.369 . S
C287 C296 1.429 . S
C288 C286 1.419 . S
C288 C289 1.363 . S
C288 H291 0.929 . S
C289 C288 1.363 . S
C289 C295 1.428 . S
H290 C286 0.930 . S
H291 C288 0.929 . S
S292 N293 1.613 . S
S292 N294 1.610 . S
N293 S292 1.613 . S
N293 C296 1.350 . S
N294 S292 1.610 . S
N294 C295 1.351 . S
C295 C289 1.428 . S
C295 N294 1.351 . S
C295 C296 1.434 . S
C296 C287 1.429 . S
C296 N293 1.350 . S
C296 C295 1.434 . S
C297 C298 1.369 . S
C297 C299 1.419 . S
C297 H301 0.930 . S
C298 C297 1.369 . S
C298 C307 1.429 . S
C299 C297 1.419 . S
C299 C300 1.363 . S
C299 H302 0.929 . S
C300 C299 1.363 . S
C300 C306 1.428 . S
H301 C297 0.930 . S
H302 C299 0.929 . S
S303 N304 1.613 . S
S303 N305 1.610 . S
N304 S303 1.613 . S
N304 C307 1.350 . S
N305 S303 1.610 . S
N305 C306 1.351 . S
C306 C300 1.428 . S
C306 N305 1.351 . S
C306 C307 1.434 . S
C307 C298 1.429 . S
C307 N304 1.350 . S
C307 C306 1.434 . S
C308 C309 1.369 . S
C308 C310 1.419 . S
C308 H312 0.930 . S
C309 C308 1.369 . S
C309 C318 1.429 . S
C310 C308 1.419 . S
C310 C311 1.363 1_545 S
C310 H313 0.929 . S
C311 C310 1.363 1_565 S
C311 C317 1.428 1_565 S
H312 C308 0.930 . S
H313 C310 0.929 . S
S314 N315 1.613 1_565 S
S314 N316 1.610 . S
N315 S314 1.613 1_545 S
N315 C318 1.350 . S
N316 S314 1.610 . S
N316 C317 1.351 1_565 S
C317 C311 1.428 1_545 S
C317 N316 1.351 1_545 S
C317 C318 1.434 . S
C318 C309 1.429 . S
C318 N315 1.350 . S
C318 C317 1.434 . S
C319 C320 1.369 . S
C319 C321 1.419 . S
C319 H323 0.930 . S
C320 C319 1.369 . S
C320 C329 1.429 . S
C321 C319 1.419 . S
C321 C322 1.363 1_455 S
C321 H324 0.929 1_455 S
C322 C321 1.363 1_655 S
C322 C328 1.428 1_655 S
H323 C319 0.930 . S
H324 C321 0.929 1_655 S
S325 N326 1.613 . S
S325 N327 1.610 . S
N326 S325 1.613 . S
N326 C329 1.350 . S
N327 S325 1.610 . S
N327 C328 1.351 . S
C328 C322 1.428 1_455 S
C328 N327 1.351 . S
C328 C329 1.434 . S
C329 C320 1.429 . S
C329 N326 1.350 . S
C329 C328 1.434 . S
C330 C331 1.369 . S
C330 C332 1.419 . S
C330 H334 0.930 . S
C331 C330 1.369 . S
C331 C340 1.429 . S
C332 C330 1.419 . S
C332 C333 1.363 1_565 S
C332 H335 0.929 1_565 S
C333 C332 1.363 1_545 S
C333 C339 1.428 1_545 S
H334 C330 0.930 . S
H335 C332 0.929 1_545 S
S336 N337 1.613 . S
S336 N338 1.610 . S
N337 S336 1.613 . S
N337 C340 1.350 . S
N338 S336 1.610 . S
N338 C339 1.351 . S
C339 C333 1.428 1_565 S
C339 N338 1.351 . S
C339 C340 1.434 . S
C340 C331 1.429 . S
C340 N337 1.350 . S
C340 C339 1.434 . S
C341 C342 1.369 1_655 S
C341 C343 1.419 . S
C341 H345 0.930 . S
C342 C341 1.369 1_455 S
C342 C351 1.429 . S
C343 C341 1.419 . S
C343 C344 1.363 . S
C343 H346 0.929 . S
C344 C343 1.363 . S
C344 C350 1.428 . S
H345 C341 0.930 . S
H346 C343 0.929 . S
S347 N348 1.613 . S
S347 N349 1.610 1_455 S
N348 S347 1.613 . S
N348 C351 1.350 . S
N349 S347 1.610 1_655 S
N349 C350 1.351 . S
C350 C344 1.428 . S
C350 N349 1.351 . S
C350 C351 1.434 1_655 S
C351 C342 1.429 . S
C351 N348 1.350 . S
C351 C350 1.434 1_455 S
C352 C353 1.369 . S
C352 C354 1.419 . S
C352 H356 0.930 . S
C353 C352 1.369 . S
C353 C362 1.429 . S
C354 C352 1.419 . S
C354 C355 1.363 . S
C354 H357 0.929 . S
C355 C354 1.363 . S
C355 C361 1.428 . S
H356 C352 0.930 . S
H357 C354 0.929 . S
S358 N359 1.613 . S
S358 N360 1.610 . S
N359 S358 1.613 . S
N359 C362 1.350 . S
N360 S358 1.610 . S
N360 C361 1.351 . S
C361 C355 1.428 . S
C361 N360 1.351 . S
C361 C362 1.434 . S
C362 C353 1.429 . S
C362 N359 1.350 . S
C362 C361 1.434 . S
C363 C364 1.369 . S
C363 C365 1.419 . S
C363 H367 0.930 . S
C364 C363 1.369 . S
C364 C373 1.429 . S
C365 C363 1.419 . S
C365 C366 1.363 . S
C365 H368 0.929 . S
C366 C365 1.363 . S
C366 C372 1.428 . S
H367 C363 0.930 . S
H368 C365 0.929 . S
S369 N370 1.613 . S
S369 N371 1.610 . S
N370 S369 1.613 . S
N370 C373 1.350 . S
N371 S369 1.610 . S
N371 C372 1.351 . S
C372 C366 1.428 . S
C372 N371 1.351 . S
C372 C373 1.434 . S
C373 C364 1.429 . S
C373 N370 1.350 . S
C373 C372 1.434 . S
C374 C375 1.369 . S
C374 C376 1.419 . S
C374 H378 0.930 . S
C375 C374 1.369 . S
C375 C384 1.429 . S
C376 C374 1.419 . S
C376 C377 1.363 . S
C376 H379 0.929 . S
C377 C376 1.363 . S
C377 C383 1.428 . S
H378 C374 0.930 . S
H379 C376 0.929 . S
S380 N381 1.613 . S
S380 N382 1.610 . S
N381 S380 1.613 . S
N381 C384 1.350 . S
N382 S380 1.610 . S
N382 C383 1.351 . S
C383 C377 1.428 . S
C383 N382 1.351 . S
C383 C384 1.434 . S
C384 C375 1.429 . S
C384 N381 1.350 . S
C384 C383 1.434 . S
C385 C386 1.369 . S
C385 C387 1.419 . S
C385 H389 0.930 . S
C386 C385 1.369 . S
C386 C395 1.429 . S
C387 C385 1.419 . S
C387 C388 1.363 . S
C387 H390 0.929 . S
C388 C387 1.363 . S
C388 C394 1.428 . S
H389 C385 0.930 . S
H390 C387 0.929 . S
S391 N392 1.613 . S
S391 N393 1.610 . S
N392 S391 1.613 . S
N392 C395 1.350 . S
N393 S391 1.610 . S
N393 C394 1.351 . S
C394 C388 1.428 . S
C394 N393 1.351 . S
C394 C395 1.434 . S
C395 C386 1.429 . S
C395 N392 1.350 . S
C395 C394 1.434 . S
C396 C397 1.369 . S
C396 C398 1.419 . S
C396 H400 0.930 . S
C397 C396 1.369 . S
C397 C406 1.429 . S
C398 C396 1.419 . S
C398 C399 1.363 . S
C398 H401 0.929 . S
C399 C398 1.363 . S
C399 C405 1.428 . S
H400 C396 0.930 . S
H401 C398 0.929 . S
S402 N403 1.613 . S
S402 N404 1.610 . S
N403 S402 1.613 . S
N403 C406 1.350 . S
N404 S402 1.610 . S
N404 C405 1.351 . S
C405 C399 1.428 . S
C405 N404 1.351 . S
C405 C406 1.434 . S
C406 C397 1.429 . S
C406 N403 1.350 . S
C406 C405 1.434 . S
C407 C408 1.369 . S
C407 C409 1.419 . S
C407 H411 0.930 . S
C408 C407 1.369 . S
C408 C417 1.429 . S
C409 C407 1.419 . S
C409 C410 1.363 . S
C409 H412 0.929 . S
C410 C409 1.363 . S
C410 C416 1.428 . S
H411 C407 0.930 . S
H412 C409 0.929 . S
S413 N414 1.613 . S
S413 N415 1.610 . S
N414 S413 1.613 . S
N414 C417 1.350 . S
N415 S413 1.610 . S
N415 C416 1.351 . S
C416 C410 1.428 . S
C416 N415 1.351 . S
C416 C417 1.434 . S
C417 C408 1.429 . S
C417 N414 1.350 . S
C417 C416 1.434 . S
C418 C419 1.369 . S
C418 C420 1.419 . S
C418 H422 0.930 . S
C419 C418 1.369 . S
C419 C428 1.429 . S
C420 C418 1.419 . S
C420 C421 1.363 . S
C420 H423 0.929 . S
C421 C420 1.363 . S
C421 C427 1.428 . S
H422 C418 0.930 . S
H423 C420 0.929 . S
S424 N425 1.613 . S
S424 N426 1.610 . S
N425 S424 1.613 . S
N425 C428 1.350 . S
N426 S424 1.610 . S
N426 C427 1.351 . S
C427 C421 1.428 . S
C427 N426 1.351 . S
C427 C428 1.434 . S
C428 C419 1.429 . S
C428 N425 1.350 . S
C428 C427 1.434 . S
C429 C430 1.369 . S
C429 C431 1.419 . S
C429 H433 0.930 . S
C430 C429 1.369 . S
C430 C439 1.429 . S
C431 C429 1.419 . S
C431 C432 1.363 . S
C431 H434 0.929 . S
C432 C431 1.363 . S
C432 C438 1.428 . S
H433 C429 0.930 . S
H434 C431 0.929 . S
S435 N436 1.613 . S
S435 N437 1.610 . S
N436 S435 1.613 . S
N436 C439 1.350 . S
N437 S435 1.610 . S
N437 C438 1.351 . S
C438 C432 1.428 . S
C438 N437 1.351 . S
C438 C439 1.434 . S
C439 C430 1.429 . S
C439 N436 1.350 . S
C439 C438 1.434 . S
C177 C7 1.257 . S
C179 C119 1.312 . S
C188 C29 1.264 . S
C190 C140 1.310 . S
C199 C50 1.255 . S
C201 C163 1.313 . S
C210 C92 1.310 . S
C212 C73 1.262 . S
C221 C114 1.312 . S
C223 C97 1.258 . S
C232 C138 1.312 . S
C234 C115 1.262 . S
C243 C158 1.310 . S
C245 C137 1.263 . S
C254 C159 1.265 . S
C256 C95 1.310 . S
C265 C139 1.254 . S
C267 C75 1.314 . S
C276 C161 1.264 . S
C278 C8 1.312 . S
C287 C31 1.314 . S
C289 C94 1.255 . S
C298 C48 1.314 . S
C300 C117 1.256 . S
C309 C70 1.312 . S
C311 C53 1.262 . S
C320 C6 1.313 . S
C322 C71 1.256 . S
C331 C26 1.314 . S
C333 C5 1.257 . S
C342 C27 1.265 . S
C344 C51 1.311 . S
C353 C96 1.489 . S
C355 C9 1.493 . S
C364 C116 1.492 . S
C366 C30 1.490 . S
C375 C49 1.495 . S
C377 C136 1.489 . S
C386 C74 1.491 . S
C388 C160 1.493 . S
C397 C52 1.488 . S
C399 C141 1.494 . S
C408 C72 1.495 . S
C410 C162 1.488 . S
C419 C93 1.495 . S
C421 C4 1.489 . S
C430 C118 1.488 . S
C432 C28 1.494 . S
