# Generated by pormake.
# Topology wjt, (5)-cn, num edge types: 1
# Building blocks:
#     Node 0, Type 0, BuildingBlock: XOMCOT_clean_sbu_1, # of connection points: 5
#     Node 1, Type 0, BuildingBlock: XOMCOT_clean_sbu_1, # of connection points: 5
#     Node 2, Type 0, BuildingBlock: XOMCOT_clean_sbu_1, # of connection points: 5
#     Node 3, Type 0, BuildingBlock: XOMCOT_clean_sbu_1, # of connection points: 5
#     Node 4, Type 0, BuildingBlock: XOMCOT_clean_sbu_1, # of connection points: 5
#     Node 5, Type 0, BuildingBlock: XOMCOT_clean_sbu_1, # of connection points: 5
#     Node 6, Type 0, BuildingBlock: XOMCOT_clean_sbu_1, # of connection points: 5
#     Node 7, Type 0, BuildingBlock: XOMCOT_clean_sbu_1, # of connection points: 5
#     Node 8, Type 0, BuildingBlock: XOMCOT_clean_sbu_1, # of connection points: 5
#     Node 9, Type 0, BuildingBlock: XOMCOT_clean_sbu_1, # of connection points: 5
#     Node 10, Type 0, BuildingBlock: XOMCOT_clean_sbu_1, # of connection points: 5
#     Node 11, Type 0, BuildingBlock: XOMCOT_clean_sbu_1, # of connection points: 5
#     Edge 12, Type (0, 0), BuildingBlock: XIVTED_clean_linker_0, # of connection points: 2
#     Edge 13, Type (0, 0), BuildingBlock: XIVTED_clean_linker_0, # of connection points: 2
#     Edge 14, Type (0, 0), BuildingBlock: XIVTED_clean_linker_0, # of connection points: 2
#     Edge 15, Type (0, 0), BuildingBlock: XIVTED_clean_linker_0, # of connection points: 2
#     Edge 16, Type (0, 0), BuildingBlock: XIVTED_clean_linker_0, # of connection points: 2
#     Edge 17, Type (0, 0), BuildingBlock: XIVTED_clean_linker_0, # of connection points: 2
#     Edge 18, Type (0, 0), BuildingBlock: XIVTED_clean_linker_0, # of connection points: 2
#     Edge 19, Type (0, 0), BuildingBlock: XIVTED_clean_linker_0, # of connection points: 2
#     Edge 20, Type (0, 0), BuildingBlock: XIVTED_clean_linker_0, # of connection points: 2
#     Edge 21, Type (0, 0), BuildingBlock: XIVTED_clean_linker_0, # of connection points: 2
#     Edge 22, Type (0, 0), BuildingBlock: XIVTED_clean_linker_0, # of connection points: 2
#     Edge 23, Type (0, 0), BuildingBlock: XIVTED_clean_linker_0, # of connection points: 2
#     Edge 24, Type (0, 0), BuildingBlock: XIVTED_clean_linker_0, # of connection points: 2
#     Edge 25, Type (0, 0), BuildingBlock: XIVTED_clean_linker_0, # of connection points: 2
#     Edge 26, Type (0, 0), BuildingBlock: XIVTED_clean_linker_0, # of connection points: 2
#     Edge 27, Type (0, 0), BuildingBlock: XIVTED_clean_linker_0, # of connection points: 2
#     Edge 28, Type (0, 0), BuildingBlock: XIVTED_clean_linker_0, # of connection points: 2
#     Edge 29, Type (0, 0), BuildingBlock: XIVTED_clean_linker_0, # of connection points: 2
#     Edge 30, Type (0, 0), BuildingBlock: XIVTED_clean_linker_0, # of connection points: 2
#     Edge 31, Type (0, 0), BuildingBlock: XIVTED_clean_linker_0, # of connection points: 2
#     Edge 32, Type (0, 0), BuildingBlock: XIVTED_clean_linker_0, # of connection points: 2
#     Edge 33, Type (0, 0), BuildingBlock: XIVTED_clean_linker_0, # of connection points: 2
#     Edge 34, Type (0, 0), BuildingBlock: XIVTED_clean_linker_0, # of connection points: 2
#     Edge 35, Type (0, 0), BuildingBlock: XIVTED_clean_linker_0, # of connection points: 2
#     Edge 36, Type (0, 0), BuildingBlock: XIVTED_clean_linker_0, # of connection points: 2
#     Edge 37, Type (0, 0), BuildingBlock: XIVTED_clean_linker_0, # of connection points: 2
#     Edge 38, Type (0, 0), BuildingBlock: XIVTED_clean_linker_0, # of connection points: 2
#     Edge 39, Type (0, 0), BuildingBlock: XIVTED_clean_linker_0, # of connection points: 2
#     Edge 40, Type (0, 0), BuildingBlock: XIVTED_clean_linker_0, # of connection points: 2
#     Edge 41, Type (0, 0), BuildingBlock: XIVTED_clean_linker_0, # of connection points: 2
# Relax obj value: 0.215
# Max RMSD: 0.163
# Mean RMSD: 0.163
data_MOF--net-wjt--node1-XOMCOT_clean_sbu_1--edge1-XIVTED_clean_linker_0
_symmetry_space_group_name_H-M    P1
_symmetry_Int_Tables_number       1
_symmetry_cell_setting            triclinic
loop_
_symmetry_equiv_pos_as_xyz
'x, y, z'
_cell_length_a     68.876616
_cell_length_b     68.910264
_cell_length_c     17.376016
_cell_angle_alpha  90.026005
_cell_angle_beta   90.012966
_cell_angle_gamma 119.97108
loop_
_atom_site_label
_atom_site_type_symbol
_atom_site_fract_x
_atom_site_fract_y
_atom_site_fract_z
_atom_type_partial_charge
C0 C 0.31668 0.45778 0.22625 0.0
C1 C 0.31507 0.46007 0.3044 0.0
N2 N 0.31078 0.44077 0.33846 0.0
N3 N 0.31352 0.4372 0.21168 0.0
C4 C 0.30929 0.42703 0.28068 0.0
H5 H 0.32152 0.4708 0.18348 0.0
Co6 Co 0.31936 0.42801 0.11895 0.0
C7 C 0.33606 0.39722 0.16002 0.0
O8 O 0.35181 0.40757 0.10802 0.0
N9 N 0.32422 0.41871 0.02262 0.0
C10 C 0.31781 0.3961 0.92237 0.0
C11 C 0.31662 0.39724 0.00081 0.0
C12 C 0.32881 0.43004 0.95541 0.0
N13 N 0.32527 0.41674 0.89388 0.0
O14 O 0.28765 0.40937 0.1016 0.0
H15 H 0.30862 0.38286 0.03841 0.0
H16 H 0.33241 0.44712 0.95062 0.0
O17 O 0.32133 0.40319 0.17051 0.0
C18 C 0.28067 0.41942 0.05768 0.0
O19 O 0.29501 0.43976 0.03411 0.0
N20 N 0.35055 0.44819 0.13627 0.0
C21 C 0.39217 0.48431 0.17966 0.0
C22 C 0.38134 0.46524 0.22596 0.0
C23 C 0.36057 0.44747 0.20361 0.0
C24 C 0.36104 0.46676 0.09065 0.0
C25 C 0.3821 0.48477 0.11027 0.0
H26 H 0.35189 0.43397 0.24409 0.0
H27 H 0.35242 0.46873 0.04244 0.0
H28 H 0.3065 0.41032 0.28914 0.0
H29 H 0.31862 0.47531 0.33414 0.0
H30 H 0.31154 0.38093 0.88857 0.0
H31 H 0.38837 0.46452 0.28098 0.0
H32 H 0.38961 0.49963 0.07449 0.0
C33 C 0.8547 0.27631 0.63599 0.0
C34 C 0.85401 0.27301 0.71446 0.0
N35 N 0.87377 0.28861 0.74443 0.0
N36 N 0.87487 0.29378 0.61696 0.0
C37 C 0.88608 0.30077 0.68406 0.0
H38 H 0.84106 0.26713 0.59613 0.0
Co39 Co 0.88488 0.30794 0.52271 0.0
C40 C 0.93027 0.31092 0.51398 0.0
O41 O 0.92876 0.30516 0.44134 0.0
N42 N 0.89486 0.32251 0.42611 0.0
C43 C 0.90136 0.34541 0.32667 0.0
C44 C 0.8975 0.34255 0.40447 0.0
C45 C 0.89716 0.3136 0.3596 0.0
N46 N 0.90092 0.32704 0.29837 0.0
O47 O 0.87491 0.27917 0.47466 0.0
H48 H 0.89535 0.35398 0.44119 0.0
H49 H 0.8952 0.29708 0.3552 0.0
O50 O 0.91425 0.31196 0.54667 0.0
C51 C 0.85619 0.27292 0.44121 0.0
O52 O 0.84752 0.2861 0.44495 0.0
N53 N 0.89239 0.33532 0.56979 0.0
C54 C 0.89736 0.37471 0.63403 0.0
C55 C 0.91622 0.37264 0.61726 0.0
C56 C 0.9134 0.35275 0.58501 0.0
C57 C 0.87395 0.33697 0.58611 0.0
C58 C 0.87603 0.35645 0.61817 0.0
H59 H 0.92808 0.35164 0.57082 0.0
H60 H 0.85748 0.3231 0.57275 0.0
H61 H 0.90278 0.31508 0.68874 0.0
H62 H 0.8397 0.26089 0.74718 0.0
H63 H 0.9027 0.35923 0.2929 0.0
H64 H 0.933 0.38626 0.62879 0.0
H65 H 0.86099 0.35735 0.62844 0.0
C66 C 0.5604 0.85117 0.98472 0.0
C67 C 0.56171 0.8479 0.06197 0.0
N68 N 0.58091 0.86517 0.08913 0.0
N69 N 0.57879 0.87027 0.96299 0.0
C70 C 0.59105 0.87839 0.02772 0.0
H71 H 0.54625 0.84107 0.94769 0.0
Co72 Co 0.58173 0.88326 0.86753 0.0
C73 C 0.62566 0.92476 0.87504 0.0
O74 O 0.63154 0.91962 0.8096 0.0
N75 N 0.584 0.89583 0.77162 0.0
C76 C 0.5884 0.91832 0.67374 0.0
C77 C 0.58691 0.91609 0.75258 0.0
C78 C 0.58326 0.88591 0.7042 0.0
N79 N 0.58617 0.89928 0.64354 0.0
O80 O 0.60207 0.87302 0.83469 0.0
H81 H 0.58815 0.92851 0.79343 0.0
H82 H 0.58106 0.86929 0.70001 0.0
O83 O 0.60653 0.91148 0.90423 0.0
C84 C 0.59358 0.85198 0.82433 0.0
O85 O 0.57224 0.83866 0.83921 0.0
N86 N 0.56094 0.89178 0.89773 0.0
C87 C 0.5259 0.89867 0.94254 0.0
C88 C 0.54679 0.90995 0.97968 0.0
C89 C 0.56411 0.90622 0.9566 0.0
C90 C 0.54082 0.88069 0.86094 0.0
C91 C 0.52312 0.88398 0.88204 0.0
H92 H 0.5798 0.91449 0.98758 0.0
H93 H 0.5384 0.86886 0.81583 0.0
H94 H 0.60646 0.89429 0.03085 0.0
H95 H 0.54866 0.83482 0.09652 0.0
H96 H 0.59083 0.93278 0.6414 0.0
H97 H 0.54973 0.92148 0.02652 0.0
H98 H 0.5072 0.87454 0.85273 0.0
C99 C 0.70627 0.55673 0.30947 0.0
C100 C 0.7084 0.55588 0.3877 0.0
N101 N 0.70851 0.57379 0.41884 0.0
N102 N 0.70495 0.57506 0.29128 0.0
C103 C 0.70649 0.58523 0.35939 0.0
H104 H 0.7034 0.54354 0.26944 0.0
Co105 Co 0.6944 0.57808 0.19626 0.0
C106 C 0.69751 0.62223 0.20125 0.0
O107 O 0.70748 0.6271 0.13384 0.0
N108 N 0.68336 0.58025 0.10071 0.0
C109 C 0.66235 0.58215 0.00712 0.0
C110 C 0.66467 0.5813 0.08553 0.0
C111 C 0.69209 0.58047 0.03102 0.0
N112 N 0.67973 0.58178 0.97327 0.0
O113 O 0.72484 0.5978 0.16122 0.0
H114 H 0.65343 0.58144 0.12874 0.0
H115 H 0.70694 0.57917 0.02244 0.0
O116 O 0.69201 0.60348 0.23301 0.0
C117 C 0.73627 0.58835 0.14586 0.0
O118 O 0.72694 0.56659 0.15435 0.0
N119 N 0.66522 0.55779 0.22955 0.0
C120 C 0.62497 0.52272 0.2862 0.0
C121 C 0.63389 0.5445 0.31579 0.0
C122 C 0.65413 0.56182 0.28698 0.0
C123 C 0.65651 0.53694 0.19852 0.0
C124 C 0.63637 0.51918 0.22575 0.0
H125 H 0.66124 0.57814 0.31344 0.0
H126 H 0.66568 0.53395 0.15398 0.0
H127 H 0.70358 0.59916 0.36655 0.0
H128 H 0.70781 0.54214 0.41987 0.0
H129 H 0.64909 0.58317 0.97731 0.0
H130 H 0.62586 0.54795 0.36321 0.0
H131 H 0.63001 0.50272 0.20054 0.0
C132 C 0.14621 0.72339 0.63474 0.0
C133 C 0.14685 0.72682 0.71307 0.0
N134 N 0.12679 0.71177 0.74259 0.0
N135 N 0.12578 0.70639 0.61536 0.0
C136 C 0.11436 0.6998 0.6821 0.0
H137 H 0.16003 0.73212 0.59526 0.0
Co138 Co 0.11581 0.69243 0.52102 0.0
C139 C 0.07031 0.68883 0.50909 0.0
O140 O 0.07219 0.69417 0.43596 0.0
N141 N 0.10584 0.67799 0.42397 0.0
C142 C 0.09778 0.65456 0.32489 0.0
C143 C 0.10145 0.65726 0.40284 0.0
C144 C 0.10465 0.68739 0.35704 0.0
N145 N 0.09999 0.67366 0.2961 0.0
O146 O 0.12599 0.72138 0.47409 0.0
H147 H 0.10199 0.64502 0.44012 0.0
H148 H 0.1076 0.70427 0.35231 0.0
O149 O 0.08633 0.68836 0.54422 0.0
C150 C 0.14486 0.72768 0.44165 0.0
O151 O 0.15325 0.71424 0.44419 0.0
N152 N 0.10828 0.66499 0.56737 0.0
C153 C 0.10329 0.62496 0.62422 0.0
C154 C 0.08467 0.628 0.61758 0.0
C155 C 0.08747 0.64818 0.58832 0.0
C156 C 0.12661 0.66261 0.5764 0.0
C157 C 0.12449 0.64269 0.60426 0.0
H158 H 0.07285 0.64989 0.58064 0.0
H159 H 0.14293 0.67613 0.55963 0.0
H160 H 0.09741 0.68591 0.68651 0.0
H161 H 0.16131 0.7386 0.74608 0.0
H162 H 0.09512 0.64016 0.29155 0.0
H163 H 0.06802 0.6146 0.63202 0.0
H164 H 0.1393 0.64107 0.60936 0.0
C165 C 0.45886 0.14328 0.88682 0.0
C166 C 0.46199 0.14767 0.96452 0.0
N167 N 0.44324 0.13258 0.00119 0.0
N168 N 0.43836 0.12538 0.87513 0.0
C169 C 0.42913 0.11942 0.94563 0.0
H170 H 0.47098 0.15203 0.84183 0.0
Co171 Co 0.42762 0.11157 0.78153 0.0
C172 C 0.3976 0.06371 0.81559 0.0
O173 O 0.40766 0.05967 0.75863 0.0
N174 N 0.41657 0.09842 0.6844 0.0
C175 C 0.39177 0.08348 0.58911 0.0
C176 C 0.39453 0.08585 0.66719 0.0
C177 C 0.42674 0.10417 0.61491 0.0
N178 N 0.41205 0.0953 0.55603 0.0
O179 O 0.40873 0.12478 0.77572 0.0
H180 H 0.38101 0.08016 0.70838 0.0
H181 H 0.4441 0.11667 0.60695 0.0
O182 O 0.40364 0.08408 0.83293 0.0
C183 C 0.41714 0.14151 0.72998 0.0
O184 O 0.4362 0.14698 0.69569 0.0
N185 N 0.44824 0.10084 0.78736 0.0
C186 C 0.48571 0.09592 0.81432 0.0
C187 C 0.4667 0.08515 0.86125 0.0
C188 C 0.44845 0.08828 0.84811 0.0
C189 C 0.46666 0.11144 0.74123 0.0
C190 C 0.4854 0.10896 0.7529 0.0
H191 H 0.43536 0.08196 0.89086 0.0
H192 H 0.46781 0.12352 0.69952 0.0
H193 H 0.41282 0.10504 0.95663 0.0
H194 H 0.477 0.16066 0.99193 0.0
H195 H 0.37588 0.07486 0.55925 0.0
H196 H 0.46657 0.07576 0.91143 0.0
H197 H 0.49995 0.11807 0.71636 0.0
C198 C 0.556 0.70765 0.33257 0.0
C199 C 0.555 0.71008 0.25456 0.0
N200 N 0.57396 0.71259 0.22316 0.0
N201 N 0.57546 0.70849 0.35039 0.0
C202 C 0.58621 0.71177 0.28237 0.0
H203 H 0.54248 0.70336 0.37286 0.0
Co204 Co 0.57982 0.69877 0.4454 0.0
C205 C 0.62399 0.70211 0.43298 0.0
O206 O 0.63002 0.71303 0.49863 0.0
N207 N 0.58345 0.68874 0.54098 0.0
C208 C 0.58673 0.66873 0.63505 0.0
C209 C 0.58572 0.67078 0.55659 0.0
C210 C 0.58315 0.69734 0.61045 0.0
N211 N 0.58522 0.68554 0.66857 0.0
O212 O 0.59978 0.72944 0.47734 0.0
H213 H 0.58631 0.65972 0.51363 0.0
H214 H 0.58073 0.71156 0.61847 0.0
O215 O 0.60468 0.69608 0.40491 0.0
C216 C 0.59094 0.7416 0.48954 0.0
O217 O 0.56941 0.73314 0.47712 0.0
N218 N 0.55935 0.66916 0.41578 0.0
C219 C 0.52466 0.62709 0.36889 0.0
C220 C 0.54476 0.63834 0.32688 0.0
C221 C 0.56194 0.65924 0.35157 0.0
C222 C 0.54011 0.65856 0.45771 0.0
C223 C 0.52278 0.6374 0.43622 0.0
H224 H 0.57693 0.6678 0.31702 0.0
H225 H 0.53809 0.66674 0.50772 0.0
H226 H 0.60141 0.711 0.27496 0.0
H227 H 0.54066 0.7082 0.22258 0.0
H228 H 0.58842 0.6559 0.66515 0.0
H229 H 0.54705 0.63155 0.27372 0.0
H230 H 0.50796 0.62939 0.47201 0.0
C231 C 0.85172 0.54766 0.71044 0.0
C232 C 0.84775 0.54766 0.63292 0.0
N233 N 0.86314 0.56763 0.60383 0.0
N234 N 0.86946 0.56755 0.7301 0.0
C235 C 0.8759 0.57946 0.66422 0.0
H236 H 0.84301 0.53366 0.74938 0.0
Co237 Co 0.88332 0.57414 0.82553 0.0
C238 C 0.92463 0.61759 0.79673 0.0
O239 O 0.92071 0.62665 0.85695 0.0
N240 N 0.89683 0.58031 0.92128 0.0
C241 C 0.91997 0.58774 0.01984 0.0
C242 C 0.9177 0.58513 0.94123 0.0
C243 C 0.88665 0.57971 0.98803 0.0
N244 N 0.90036 0.5843 0.04909 0.0
O245 O 0.87312 0.59526 0.84596 0.0
H246 H 0.93031 0.58633 0.90134 0.0
H247 H 0.86942 0.57588 0.99151 0.0
O248 O 0.91102 0.59721 0.7794 0.0
C249 C 0.85203 0.58668 0.8554 0.0
O250 O 0.839 0.56499 0.84648 0.0
N251 N 0.89178 0.55252 0.80829 0.0
C252 C 0.89807 0.51595 0.78304 0.0
C253 C 0.90756 0.53452 0.73326 0.0
C254 C 0.90421 0.55266 0.74687 0.0
C255 C 0.88263 0.53481 0.85763 0.0
C256 C 0.88582 0.51654 0.84677 0.0
H257 H 0.91083 0.56634 0.7062 0.0
H258 H 0.87241 0.53469 0.90509 0.0
H259 H 0.89022 0.59615 0.65991 0.0
H260 H 0.83548 0.53352 0.59979 0.0
H261 H 0.93468 0.59125 0.05292 0.0
H262 H 0.91675 0.53472 0.68245 0.0
H263 H 0.87845 0.50287 0.88761 0.0
C264 C 0.30921 0.85263 0.05029 0.0
C265 C 0.3054 0.8486 0.97271 0.0
N266 N 0.3007 0.86386 0.94308 0.0
N267 N 0.30688 0.8703 0.06945 0.0
C268 C 0.30136 0.87657 0.00326 0.0
H269 H 0.31463 0.84409 0.08948 0.0
Co270 Co 0.3143 0.88436 0.16457 0.0
C271 C 0.31219 0.92638 0.1361 0.0
O272 O 0.30155 0.92499 0.20042 0.0
N273 N 0.32189 0.89801 0.26019 0.0
C274 C 0.33819 0.92124 0.35822 0.0
C275 C 0.33809 0.91887 0.27951 0.0
C276 C 0.31269 0.88794 0.32748 0.0
N277 N 0.3222 0.90169 0.38817 0.0
O278 O 0.2829 0.87282 0.18647 0.0
H279 H 0.3493 0.93141 0.23909 0.0
H280 H 0.29931 0.87076 0.33184 0.0
O281 O 0.3172 0.9114 0.11924 0.0
C282 C 0.27287 0.85198 0.20247 0.0
O283 O 0.28444 0.84154 0.20293 0.0
N284 N 0.34457 0.89408 0.14412 0.0
C285 C 0.3871 0.9011 0.10714 0.0
C286 C 0.37754 0.91164 0.06514 0.0
C287 C 0.35619 0.90779 0.08411 0.0
C288 C 0.35376 0.88416 0.18698 0.0
C289 C 0.37506 0.88752 0.16975 0.0
H290 H 0.34874 0.91507 0.04814 0.0
H291 H 0.34412 0.87287 0.233 0.0
H292 H 0.29874 0.89072 -0.00145 0.0
H293 H 0.30754 0.83644 0.93992 0.0
H294 H 0.34959 0.93596 0.39086 0.0
H295 H 0.38624 0.9224 0.01676 0.0
H296 H 0.38153 0.87872 0.20306 0.0
C297 C 0.45334 0.30881 0.46062 0.0
C298 C 0.45781 0.31014 0.38286 0.0
N299 N 0.4457 0.31798 0.34736 0.0
N300 N 0.43843 0.31566 0.47365 0.0
C301 C 0.434 0.32095 0.40378 0.0
H302 H 0.46107 0.30398 0.50517 0.0
Co303 Co 0.4296 0.32029 0.56884 0.0
C304 C 0.3959 0.33466 0.53832 0.0
O305 O 0.40412 0.34872 0.59636 0.0
N306 N 0.4209 0.3244 0.66684 0.0
C307 C 0.39992 0.31742 0.77175 0.0
C308 C 0.39965 0.31407 0.69384 0.0
C309 C 0.43378 0.33321 0.73008 0.0
N310 N 0.42142 0.32927 0.79436 0.0
O311 O 0.41086 0.2883 0.58158 0.0
H312 H 0.38491 0.30355 0.65981 0.0
H313 H 0.4518 0.34085 0.73048 0.0
O314 O 0.40448 0.32243 0.52108 0.0
C315 C 0.41899 0.28032 0.62995 0.0
O316 O 0.43796 0.29409 0.66445 0.0
N317 N 0.45005 0.35132 0.55665 0.0
C318 C 0.48784 0.39239 0.51867 0.0
C319 C 0.46675 0.38629 0.48769 0.0
C320 C 0.44818 0.36557 0.50623 0.0
C321 C 0.47038 0.35722 0.58823 0.0
C322 C 0.48938 0.37773 0.57098 0.0
H323 H 0.43304 0.36057 0.47432 0.0
H324 H 0.47227 0.34521 0.62273 0.0
H325 H 0.42285 0.32745 0.39467 0.0
H326 H 0.46966 0.30642 0.35531 0.0
H327 H 0.38554 0.31006 0.80976 0.0
H328 H 0.46489 0.39668 0.44493 0.0
H329 H 0.50533 0.38159 0.59592 0.0
C330 C 0.14846 0.45247 0.72659 0.0
C331 C 0.1521 0.45305 0.64843 0.0
N332 N 0.13546 0.43406 0.61761 0.0
N333 N 0.12967 0.4332 0.74442 0.0
C334 C 0.12243 0.42218 0.67709 0.0
H335 H 0.15799 0.46586 0.76701 0.0
Co336 Co 0.11517 0.42658 0.83856 0.0
C337 C 0.07478 0.38192 0.808 0.0
O338 O 0.07832 0.37286 0.86902 0.0
N339 N 0.10107 0.42044 0.93344 0.0
C340 C 0.07707 0.41181 0.02992 0.0
C341 C 0.07956 0.41364 0.95122 0.0
C342 C 0.11138 0.42314 0.00162 0.0
N343 N 0.09718 0.41779 0.06163 0.0
O344 O 0.1266 0.40675 0.86143 0.0
H345 H 0.06656 0.41039 0.90976 0.0
H346 H 0.12916 0.42955 0.00691 0.0
O347 O 0.08817 0.40245 0.79213 0.0
C348 C 0.14679 0.41727 0.88544 0.0
O349 O 0.15698 0.43918 0.89169 0.0
N350 N 0.10551 0.44708 0.81727 0.0
C351 C 0.09837 0.48245 0.78077 0.0
C352 C 0.08916 0.46306 0.73515 0.0
C353 C 0.09291 0.44553 0.75436 0.0
C354 C 0.1142 0.46558 0.86325 0.0
C355 C 0.11062 0.48338 0.84654 0.0
H356 H 0.08653 0.43122 0.71645 0.0
H357 H 0.12464 0.46685 0.91167 0.0
H358 H 0.1072 0.40628 0.67058 0.0
H359 H 0.16486 0.46705 0.61616 0.0
H360 H 0.06159 0.40646 0.06085 0.0
H361 H 0.07959 0.46168 0.68391 0.0
H362 H 0.11831 0.49819 0.88258 0.0
C363 C 0.70678 0.15152 0.99338 0.0
C364 C 0.71096 0.15471 0.91588 0.0
N365 N 0.71201 0.13704 0.88776 0.0
N366 N 0.70541 0.13205 0.01421 0.0
C367 C 0.70884 0.12368 0.94878 0.0
H368 H 0.70328 0.16191 0.031 0.0
Co369 Co 0.69547 0.11886 0.10936 0.0
C370 C 0.69999 0.07849 0.10382 0.0
O371 O 0.71061 0.08395 0.17008 0.0
N372 N 0.68517 0.10602 0.20511 0.0
C373 C 0.66675 0.08307 0.30176 0.0
C374 C 0.66799 0.08552 0.22297 0.0
C375 C 0.69378 0.11581 0.27325 0.0
N376 N 0.68306 0.10222 0.33308 0.0
O377 O 0.72625 0.13069 0.14245 0.0
H378 H 0.65723 0.0731 0.18135 0.0
H379 H 0.70796 0.1325 0.27891 0.0
O380 O 0.69365 0.09126 0.07351 0.0
C381 C 0.73576 0.15147 0.15921 0.0
O382 O 0.72408 0.16174 0.15491 0.0
N383 N 0.66604 0.10916 0.07767 0.0
C384 C 0.62539 0.10328 0.02254 0.0
C385 C 0.63424 0.09029 0.9937 0.0
C386 C 0.65476 0.09362 0.02156 0.0
C387 C 0.65734 0.12137 0.10816 0.0
C388 C 0.63702 0.1187 0.08153 0.0
H389 H 0.66192 0.08442 0.99535 0.0
H390 H 0.6667 0.1339 0.15148 0.0
H391 H 0.70776 0.10752 0.9449 0.0
H392 H 0.71127 0.16803 0.88195 0.0
H393 H 0.65471 0.06844 0.33333 0.0
H394 H 0.62596 0.07843 0.94742 0.0
H395 H 0.6307 0.12894 0.10587 0.0
H396 H 0.26738 0.41692 0.91044 0.0
H397 H 0.15123 0.40417 0.02855 0.0
H398 H 0.2415 0.39948 0.14106 0.0
H399 H 0.17225 0.40714 0.79356 0.0
H400 H 0.18092 0.39664 0.07003 0.0
H401 H 0.23025 0.40775 0.86486 0.0
C402 C 0.25364 0.41063 0.95118 0.0
C403 C 0.2574 0.40893 0.02947 0.0
C404 C 0.17865 0.39823 0.00916 0.0
C405 C 0.2149 0.39912 0.97836 0.0
C406 C 0.16159 0.40234 0.98553 0.0
C407 C 0.15919 0.40591 0.90755 0.0
C408 C 0.19369 0.39827 0.9544 0.0
C409 C 0.17339 0.4041 0.85409 0.0
C410 C 0.23243 0.40544 0.92524 0.0
C411 C 0.23915 0.40083 0.08009 0.0
N412 N 0.19024 0.40073 0.87856 0.0
N413 N 0.21873 0.39666 0.05393 0.0
H414 H 0.76884 0.18832 0.09229 0.0
H415 H 0.84407 0.22908 0.47367 0.0
H416 H 0.75492 0.14531 0.28883 0.0
H417 H 0.8424 0.27174 0.29581 0.0
H418 H 0.8188 0.19602 0.39506 0.0
H419 H 0.80377 0.21618 0.15254 0.0
C420 C 0.77358 0.1845 0.14731 0.0
C421 C 0.75917 0.16452 0.18552 0.0
C422 C 0.82443 0.21266 0.37271 0.0
C423 C 0.79866 0.19676 0.25685 0.0
C424 C 0.83893 0.23145 0.41718 0.0
C425 C 0.84526 0.25306 0.39081 0.0
C426 C 0.81664 0.21571 0.30133 0.0
C427 C 0.83789 0.25534 0.31806 0.0
C428 C 0.7934 0.20049 0.18213 0.0
C429 C 0.76583 0.16046 0.25726 0.0
N430 N 0.82397 0.23697 0.27616 0.0
N431 N 0.78496 0.17667 0.29147 0.0
H432 H 0.59227 0.78018 0.44885 0.0
H433 H 0.59722 0.81606 0.86579 0.0
H434 H 0.61545 0.75191 0.6224 0.0
H435 H 0.61511 0.86502 0.68569 0.0
H436 H 0.60631 0.79348 0.7802 0.0
H437 H 0.60284 0.81267 0.53193 0.0
C438 C 0.60027 0.78121 0.50359 0.0
C439 C 0.60308 0.76345 0.52889 0.0
C440 C 0.60895 0.80949 0.76007 0.0
C441 C 0.61429 0.80003 0.62557 0.0
C442 C 0.60382 0.8224 0.80897 0.0
C443 C 0.60552 0.84242 0.78273 0.0
C444 C 0.61493 0.81623 0.68339 0.0
C445 C 0.61375 0.84975 0.70822 0.0
C446 C 0.60627 0.79972 0.55104 0.0
C447 C 0.61318 0.76537 0.60073 0.0
N448 N 0.61755 0.83633 0.66027 0.0
N449 N 0.61785 0.78305 0.64761 0.0
H450 H 0.86358 0.61024 0.99006 0.0
H451 H 0.74757 0.61053 0.00847 0.0
H452 H 0.81672 0.58979 0.80176 0.0
H453 H 0.77478 0.59148 0.19798 0.0
H454 H 0.78111 0.6193 0.9322 0.0
H455 H 0.83918 0.61984 0.06482 0.0
C456 C 0.84867 0.60873 0.96329 0.0
C457 C 0.8421 0.59929 0.88973 0.0
C458 C 0.78003 0.61392 0.99139 0.0
C459 C 0.81429 0.61015 0.9744 0.0
C460 C 0.76102 0.6091 0.03498 0.0
C461 C 0.75854 0.60033 0.10941 0.0
C462 C 0.79673 0.61033 0.02331 0.0
C463 C 0.7762 0.59832 0.14081 0.0
C464 C 0.83469 0.61399 0.00613 0.0
C465 C 0.82236 0.59713 0.85824 0.0
N466 N 0.79451 0.60313 0.09748 0.0
N467 N 0.80904 0.60235 0.90091 0.0
H468 H 0.15768 0.77107 0.48326 0.0
H469 H 0.24126 0.81665 0.12401 0.0
H470 H 0.16017 0.73107 0.29718 0.0
H471 H 0.25071 0.85657 0.32619 0.0
H472 H 0.20458 0.78846 0.17212 0.0
H473 H 0.18506 0.80518 0.4139 0.0
C474 C 0.16342 0.76955 0.42676 0.0
C475 C 0.15671 0.74834 0.39554 0.0
C476 C 0.21436 0.80357 0.20553 0.0
C477 C 0.18787 0.7869 0.31663 0.0
C478 C 0.23521 0.81974 0.1776 0.0
C479 C 0.24883 0.83894 0.22098 0.0
C480 C 0.20727 0.80626 0.27861 0.0
C481 C 0.24046 0.84205 0.2907 0.0
C482 C 0.17914 0.78894 0.38756 0.0
C483 C 0.16492 0.74714 0.32303 0.0
N484 N 0.22033 0.82564 0.31823 0.0
N485 N 0.1801 0.76608 0.28638 0.0
H486 H 0.39934 0.24521 0.52801 0.0
H487 H 0.4001 0.15872 0.83549 0.0
H488 H 0.41626 0.26069 0.76755 0.0
H489 H 0.41233 0.15722 0.59298 0.0
H490 H 0.39252 0.18958 0.81203 0.0
H491 H 0.39066 0.2065 0.55301 0.0
C492 C 0.40054 0.24026 0.58619 0.0
C493 C 0.40868 0.2561 0.64573 0.0
C494 C 0.3963 0.18206 0.76379 0.0
C495 C 0.39884 0.21215 0.67471 0.0
C496 C 0.40043 0.16438 0.77711 0.0
C497 C 0.40695 0.1556 0.71608 0.0
C498 C 0.39842 0.19068 0.68887 0.0
C499 C 0.40748 0.16371 0.64157 0.0
C500 C 0.39576 0.21827 0.60035 0.0
C501 C 0.41022 0.24895 0.71998 0.0
N502 N 0.40347 0.1809 0.63007 0.0
N503 N 0.40552 0.22757 0.73231 0.0
H504 H 0.52592 0.59351 0.2848 0.0
H505 H 0.39603 0.50632 0.31333 0.0
H506 H 0.47927 0.61053 0.38847 0.0
H507 H 0.43352 0.50857 0.11162 0.0
H508 H 0.42861 0.54082 0.35994 0.0
H509 H 0.49415 0.55875 0.23688 0.0
C510 C 0.50915 0.59015 0.29748 0.0
C511 C 0.50554 0.60529 0.34123 0.0
C512 C 0.42972 0.53371 0.30562 0.0
C513 C 0.46912 0.56498 0.28833 0.0
C514 C 0.41124 0.51402 0.27929 0.0
C515 C 0.41221 0.50466 0.20874 0.0
C516 C 0.44946 0.54387 0.26187 0.0
C517 C 0.43219 0.51536 0.16628 0.0
C518 C 0.49103 0.57018 0.2703 0.0
C519 C 0.48319 0.5994 0.35688 0.0
N520 N 0.45017 0.53437 0.19382 0.0
N521 N 0.46592 0.57971 0.33098 0.0
H522 H 0.93352 0.51336 0.71952 0.0
H523 H 0.87114 0.37955 0.74238 0.0
H524 H 0.8665 0.47185 0.80795 0.0
H525 H 0.9287 0.41824 0.59723 0.0
H526 H 0.87257 0.41408 0.78327 0.0
H527 H 0.93501 0.47944 0.68877 0.0
C528 C 0.91911 0.4972 0.73252 0.0
C529 C 0.89985 0.49562 0.7666 0.0
C530 C 0.88495 0.41505 0.74267 0.0
C531 C 0.90168 0.45673 0.73268 0.0
C532 C 0.88411 0.3953 0.71904 0.0
C533 C 0.89963 0.39588 0.66532 0.0
C534 C 0.90152 0.43567 0.71289 0.0
C535 C 0.91643 0.41693 0.63891 0.0
C536 C 0.92006 0.47785 0.71528 0.0
C537 C 0.8819 0.47411 0.78318 0.0
N538 N 0.91686 0.43598 0.6626 0.0
N539 N 0.88327 0.4556 0.76609 0.0
H540 H 0.51363 0.90208 0.09035 0.0
H541 H 0.40202 0.90188 0.96018 0.0
H542 H 0.49446 0.90149 0.85346 0.0
H543 H 0.42149 0.90441 0.1978 0.0
H544 H 0.4367 0.90347 0.92055 0.0
H545 H 0.48104 0.9047 0.13111 0.0
C546 C 0.50273 0.90274 0.04681 0.0
C547 C 0.50681 0.90147 0.96824 0.0
C548 C 0.43348 0.9038 0.98139 0.0
C549 C 0.46922 0.90418 0.01472 0.0
C550 C 0.4137 0.90306 0.00417 0.0
C551 C 0.40875 0.90307 0.08262 0.0
C552 C 0.44853 0.90447 0.03729 0.0
C553 C 0.42442 0.9041 0.13674 0.0
C554 C 0.48402 0.9041 0.0702 0.0
C555 C 0.49184 0.90207 0.91463 0.0
N556 N 0.44355 0.90471 0.11308 0.0
N557 N 0.47372 0.9033 0.93885 0.0
H558 H 0.61757 0.48064 0.31762 0.0
H559 H 0.49387 0.43423 0.4867 0.0
H560 H 0.58621 0.52124 0.33555 0.0
H561 H 0.52847 0.39652 0.48306 0.0
H562 H 0.52712 0.46626 0.43092 0.0
H563 H 0.58458 0.44954 0.37645 0.0
C564 C 0.60365 0.48297 0.33329 0.0
C565 C 0.60466 0.5036 0.32103 0.0
C566 C 0.52746 0.45102 0.44284 0.0
C567 C 0.56676 0.46797 0.38983 0.0
C568 C 0.50846 0.4327 0.47451 0.0
C569 C 0.50836 0.41263 0.49005 0.0
C570 C 0.54646 0.44922 0.42596 0.0
C571 C 0.52784 0.41171 0.47345 0.0
C572 C 0.58485 0.46523 0.36757 0.0
C573 C 0.58625 0.50571 0.34428 0.0
N574 N 0.546 0.42966 0.44211 0.0
N575 N 0.56804 0.48811 0.37733 0.0
H576 H 0.1053 0.50075 0.63729 0.0
H577 H 0.08043 0.59885 0.74859 0.0
H578 H 0.08833 0.50948 0.86879 0.0
H579 H 0.12019 0.6014 0.55306 0.0
H580 H 0.07752 0.56311 0.78705 0.0
H581 H 0.10485 0.53458 0.59848 0.0
C582 C 0.1012 0.50965 0.67977 0.0
C583 C 0.09681 0.50227 0.75637 0.0
C584 C 0.08686 0.57154 0.73576 0.0
C585 C 0.09641 0.54114 0.71238 0.0
C586 C 0.08842 0.59181 0.71366 0.0
C587 C 0.1007 0.60311 0.64791 0.0
C588 C 0.09729 0.56239 0.69087 0.0
C589 C 0.11081 0.59336 0.60469 0.0
C590 C 0.10113 0.52906 0.65772 0.0
C591 C 0.09195 0.51469 0.80926 0.0
N592 N 0.10882 0.57355 0.62677 0.0
N593 N 0.09183 0.53352 0.78626 0.0
H594 H 0.61859 0.13778 0.98295 0.0
H595 H 0.49026 0.06034 0.86215 0.0
H596 H 0.58575 0.06561 0.98291 0.0
H597 H 0.5286 0.13136 0.81761 0.0
H598 H 0.52441 0.06155 0.90937 0.0
H599 H 0.58505 0.1355 0.92668 0.0
C600 C 0.60424 0.12142 0.97155 0.0
C601 C 0.60492 0.10185 0.98826 0.0
C602 C 0.52537 0.07681 0.88853 0.0
C603 C 0.56641 0.0991 0.92297 0.0
C604 C 0.50589 0.07614 0.86172 0.0
C605 C 0.50656 0.09577 0.83564 0.0
C606 C 0.54563 0.09731 0.89024 0.0
C607 C 0.5273 0.11576 0.83609 0.0
C608 C 0.58514 0.12013 0.93877 0.0
C609 C 0.58596 0.08112 0.97074 0.0
N610 N 0.54592 0.11604 0.86352 0.0
N611 N 0.56742 0.08027 0.9395 0.0
H612 H 0.35632 0.37276 0.13036 0.0
H613 H 0.37018 0.35367 0.56789 0.0
H614 H 0.32027 0.38525 0.30815 0.0
H615 H 0.38578 0.32063 0.38739 0.0
H616 H 0.34983 0.36335 0.47483 0.0
H617 H 0.36532 0.35167 0.22244 0.0
C618 C 0.35 0.37079 0.18862 0.0
C619 C 0.33777 0.38107 0.21188 0.0
C620 C 0.3574 0.35369 0.45571 0.0
C621 C 0.34838 0.35722 0.31816 0.0
C622 C 0.36909 0.34818 0.50883 0.0
C623 C 0.38014 0.3367 0.48521 0.0
C624 C 0.35705 0.34804 0.37792 0.0
C625 C 0.37788 0.3298 0.40809 0.0
C626 C 0.35512 0.35869 0.24116 0.0
C627 C 0.32987 0.37778 0.28787 0.0
N628 N 0.36697 0.33596 0.35689 0.0
N629 N 0.33568 0.36651 0.33875 0.0
H630 H 0.06711 0.39046 0.66076 0.0
H631 H 0.93601 0.31019 0.66963 0.0
H632 H 0.0351 0.34483 0.84969 0.0
H633 H 0.9728 0.32908 0.45604 0.0
H634 H 0.97151 0.32543 0.74005 0.0
H635 H 0.03223 0.37097 0.5875 0.0
C636 C 0.05282 0.37623 0.68668 0.0
C637 C 0.05411 0.36922 0.76145 0.0
C638 C 0.97177 0.32604 0.67776 0.0
C639 C 0.0139 0.34713 0.6783 0.0
C640 C 0.95154 0.31746 0.63755 0.0
C641 C 0.95145 0.31841 0.55683 0.0
C642 C 0.99209 0.33614 0.63709 0.0
C643 C 0.97209 0.3279 0.5182 0.0
C644 C 0.03291 0.36509 0.6447 0.0
C645 C 0.03492 0.35072 0.79209 0.0
N646 N 0.9916 0.33667 0.55871 0.0
N647 N 0.01551 0.34048 0.75079 0.0
H648 H 0.69288 0.04038 0.17731 0.0
H649 H 0.65632 0.96327 0.80283 0.0
H650 H 0.6892 0.06549 0.95354 0.0
H651 H 0.6265 0.93756 0.02488 0.0
H652 H 0.67677 1.00106 0.85819 0.0
H653 H 0.67675 1.00263 0.1223 0.0
C654 C 0.68902 0.03803 0.11641 0.0
C655 C 0.69238 0.05611 0.0699 0.0
C656 C 0.66589 0.98707 0.89476 0.0
C657 C 0.67417 0.01309 0.00683 0.0
C658 C 0.65433 0.96551 0.86345 0.0
C659 C 0.63967 0.94725 0.90935 0.0
C660 C 0.66315 0.99031 0.97286 0.0
C661 C 0.63758 0.95118 0.98742 0.0
C662 C 0.67969 0.01649 0.08531 0.0
C663 C 0.68684 0.05203 0.99149 0.0
N664 N 0.64925 0.97228 0.01684 0.0
N665 N 0.6781 0.03097 0.96231 0.0
H666 H 0.65523 0.69472 0.50331 0.0
H667 H 0.68939 0.6525 0.12739 0.0
H668 H 0.62408 0.68975 0.28314 0.0
H669 H 0.68764 0.62509 0.35218 0.0
H670 H 0.67347 0.67426 0.18285 0.0
H671 H 0.67538 0.67718 0.44702 0.0
C672 C 0.6529 0.69028 0.44286 0.0
C673 C 0.63794 0.69369 0.39779 0.0
C674 C 0.67678 0.6636 0.21995 0.0
C675 C 0.66105 0.67383 0.33325 0.0
C676 C 0.68598 0.6513 0.18858 0.0
C677 C 0.68983 0.63694 0.23529 0.0
C678 C 0.67187 0.66192 0.29886 0.0
C679 C 0.68488 0.6359 0.31409 0.0
C680 C 0.66428 0.68014 0.41105 0.0
C681 C 0.6354 0.68737 0.31995 0.0
N682 N 0.67624 0.64829 0.3435 0.0
N683 N 0.6469 0.67782 0.29002 0.0
H684 H 0.02834 0.66967 0.44579 0.0
H685 H 0.96388 0.65432 0.84287 0.0
H686 H 0.06285 0.68922 0.66382 0.0
H687 H 0.93366 0.60941 0.65064 0.0
H688 H 0.99937 0.67336 0.77171 0.0
H689 H 0.99245 0.6536 0.51425 0.0
C690 C 0.02839 0.67085 0.50796 0.0
C691 C 0.04862 0.68076 0.54921 0.0
C692 C 0.9849 0.65941 0.74512 0.0
C693 C 0.00767 0.66258 0.62762 0.0
C694 C 0.96463 0.64862 0.78544 0.0
C695 C 0.94578 0.63021 0.75271 0.0
C696 C 0.98622 0.65205 0.67094 0.0
C697 C 0.94778 0.62346 0.67821 0.0
C698 C 0.00791 0.66155 0.54693 0.0
C699 C 0.04765 0.68162 0.62981 0.0
N700 N 0.9676 0.63443 0.63972 0.0
N701 N 0.02753 0.67272 0.66639 0.0
H702 H 0.38186 0.06317 0.96304 0.0
H703 H 0.3257 0.93028 0.98708 0.0
H704 H 0.37534 0.02014 0.77247 0.0
H705 H 0.31874 0.96837 0.1712 0.0
H706 H 0.34297 0.96366 0.9079 0.0
H707 H 0.35774 0.02962 0.04047 0.0
C708 C 0.37511 0.04675 0.93716 0.0
C709 C 0.38085 0.04446 0.86145 0.0
C710 C 0.33753 0.96483 0.96531 0.0
C711 C 0.35352 0.0062 0.94939 0.0
C712 C 0.3276 0.94565 0.01073 0.0
C713 C 0.32072 0.94643 0.08602 0.0
C714 C 0.34106 0.98528 0.99537 0.0
C715 C 0.32372 0.96698 0.11331 0.0
C716 C 0.36142 0.02763 0.98138 0.0
C717 C 0.37169 0.02278 0.83087 0.0
N718 N 0.33393 0.9857 0.0683 0.0
N719 N 0.3587 0.00461 0.87496 0.0
H720 H 0.32588 0.41485 0.40166 0.0
H721 H 0.3147 0.44683 0.8347 0.0
H722 H 0.30104 0.45943 0.45943 0.0
H723 H 0.33431 0.3985 0.77165 0.0
H724 H 0.31155 0.45352 0.69828 0.0
H725 H 0.3302 0.40987 0.53736 0.0
C726 C 0.32094 0.42331 0.44294 0.0
C727 C 0.31267 0.43727 0.41906 0.0
C728 C 0.31666 0.44154 0.71432 0.0
C729 C 0.31824 0.43212 0.57546 0.0
C730 C 0.31868 0.43788 0.79213 0.0
C731 C 0.32488 0.42213 0.81429 0.0
C732 C 0.32091 0.42939 0.65853 0.0
C733 C 0.32934 0.41065 0.75681 0.0
C734 C 0.32368 0.42066 0.52068 0.0
C735 C 0.30743 0.4485 0.47548 0.0
N736 N 0.32724 0.41449 0.68159 0.0
N737 N 0.31027 0.44565 0.55128 0.0
H738 H 0.91976 0.35562 0.1785 0.0
H739 H 0.85852 0.25917 0.86344 0.0
H740 H 0.8807 0.28535 0.23465 0.0
H741 H 0.90225 0.32893 0.80858 0.0
H742 H 0.86755 0.26806 -0.00014 0.0
H743 H 0.91507 0.34585 0.04209 0.0
C744 C 0.91027 0.33814 0.16222 0.0
C745 C 0.90039 0.32134 0.2183 0.0
C746 C 0.87531 0.28137 0.95778 0.0
C747 C 0.89493 0.30997 0.06218 0.0
C748 C 0.87005 0.27631 0.88005 0.0
C749 C 0.87964 0.29329 0.82449 0.0
C750 C 0.89012 0.30361 0.98004 0.0
C751 C 0.89469 0.31522 0.84908 0.0
C752 C 0.90766 0.33255 0.08432 0.0
C753 C 0.88863 0.2989 0.19379 0.0
N754 N 0.89934 0.31974 0.92498 0.0
N755 N 0.88604 0.29389 0.11757 0.0
H756 H 0.60381 0.90669 0.15305 0.0
H757 H 0.56895 0.85814 0.57773 0.0
H758 H 0.57014 0.83621 0.20786 0.0
H759 H 0.60633 0.9289 0.52655 0.0
H760 H 0.57159 0.85 0.44344 0.0
H761 H 0.60792 0.91536 0.29012 0.0
C762 C 0.59767 0.89303 0.19382 0.0
C763 C 0.58641 0.87064 0.16896 0.0
C764 C 0.57931 0.86732 0.46155 0.0
C765 C 0.59063 0.88047 0.32599 0.0
C766 C 0.57787 0.87202 0.53853 0.0
C767 C 0.58738 0.89429 0.5638 0.0
C768 C 0.59022 0.88499 0.40901 0.0
C769 C 0.59841 0.9115 0.50962 0.0
C770 C 0.59985 0.898 0.2722 0.0
C771 C 0.57856 0.85366 0.22461 0.0
N772 N 0.59946 0.90648 0.43468 0.0
N773 N 0.58063 0.85892 0.30053 0.0
H774 H 0.71997 0.60359 0.90226 0.0
H775 H 0.67382 0.5435 0.5022 0.0
H776 H 0.64931 0.56091 0.86035 0.0
H777 H 0.7328 0.60879 0.51366 0.0
H778 H 0.66631 0.54665 0.63828 0.0
H779 H 0.72709 0.60306 0.76392 0.0
C780 C 0.70601 0.59411 0.86376 0.0
C781 C 0.68405 0.5822 0.89229 0.0
C782 C 0.68086 0.56033 0.61105 0.0
C783 C 0.692 0.58138 0.73523 0.0
C784 C 0.68518 0.55846 0.53397 0.0
C785 C 0.704 0.57586 0.49788 0.0
C786 C 0.69574 0.57956 0.65251 0.0
C787 C 0.71818 0.59508 0.54033 0.0
C788 C 0.71004 0.59395 0.78511 0.0
C789 C 0.66644 0.57038 0.84029 0.0
N790 N 0.71392 0.59635 0.61609 0.0
N791 N 0.67081 0.57003 0.76424 0.0
H792 H 0.0796 0.64531 0.17647 0.0
H793 H 0.14268 0.74124 0.86139 0.0
H794 H 0.12226 0.71524 0.23227 0.0
H795 H 0.09741 0.67177 0.80649 0.0
H796 H 0.13379 0.7325 -0.00218 0.0
H797 H 0.08407 0.6551 0.0401 0.0
C798 C 0.08984 0.66271 0.16015 0.0
C799 C 0.10073 0.67941 0.21608 0.0
C800 C 0.12567 0.71922 0.95575 0.0
C801 C 0.1059 0.69079 0.06013 0.0
C802 C 0.13084 0.72419 0.87803 0.0
C803 C 0.12081 0.70724 0.82251 0.0
C804 C 0.1105 0.69709 0.97802 0.0
C805 C 0.10534 0.68546 0.84704 0.0
C806 C 0.09232 0.66832 0.0823 0.0
C807 C 0.11347 0.70177 0.19157 0.0
N808 N 0.10079 0.68099 0.92297 0.0
N809 N 0.11586 0.70677 0.11542 0.0
H810 H 0.38313 0.09452 0.44778 0.0
H811 H 0.47444 0.14162 0.11191 0.0
H812 H 0.45137 0.10932 0.48015 0.0
H813 H 0.40375 0.11587 0.07629 0.0
H814 H 0.46729 0.13323 0.24932 0.0
H815 H 0.39121 0.10481 0.31332 0.0
C816 C 0.39977 0.09968 0.42667 0.0
C817 C 0.41655 0.10085 0.47564 0.0
C818 C 0.45337 0.12948 0.2114 0.0
C819 C 0.42606 0.11319 0.32108 0.0
C820 C 0.45747 0.13445 0.13318 0.0
C821 C 0.43963 0.12935 0.08273 0.0
C822 C 0.43131 0.11949 0.23919 0.0
C823 C 0.41792 0.11978 0.11307 0.0
C824 C 0.40443 0.10576 0.34969 0.0
C825 C 0.43797 0.1083 0.44474 0.0
N826 N 0.41436 0.11515 0.18929 0.0
N827 N 0.44213 0.1142 0.36934 0.0
H828 H 0.60935 0.73909 0.13252 0.0
H829 H 0.56515 0.65429 0.77935 0.0
H830 H 0.54533 0.67832 0.13418 0.0
H831 H 0.60411 0.72555 0.74201 0.0
H832 H 0.56351 0.66114 0.91701 0.0
H833 H 0.6134 0.73288 0.99471 0.0
C834 C 0.59625 0.72448 0.10357 0.0
C835 C 0.5769 0.7093 0.14351 0.0
C836 C 0.57247 0.67526 0.87863 0.0
C837 C 0.58152 0.70184 0.98857 0.0
C838 C 0.57351 0.67136 0.80043 0.0
C839 C 0.58471 0.6894 0.74962 0.0
C840 C 0.5831 0.69734 0.90637 0.0
C841 C 0.59514 0.71125 0.77952 0.0
C842 C 0.59849 0.72097 0.0255 0.0
C843 C 0.56033 0.6905 0.1045 0.0
N844 N 0.5942 0.71465 0.85624 0.0
N845 N 0.56306 0.6872 0.02923 0.0
H846 H 0.92897 0.60692 0.16602 0.0
H847 H 0.8332 0.55222 0.48645 0.0
H848 H 0.85908 0.56215 0.11489 0.0
H849 H 0.90331 0.59573 0.5375 0.0
H850 H 0.84181 0.55855 0.34919 0.0
H851 H 0.91943 0.60564 0.30191 0.0
C852 C 0.91163 0.5968 0.1833 0.0
C853 C 0.89485 0.58449 0.1289 0.0
C854 C 0.85528 0.56688 0.39051 0.0
C855 C 0.88375 0.5831 0.28432 0.0
C856 C 0.85036 0.56322 0.46881 0.0
C857 C 0.86755 0.57331 0.52359 0.0
C858 C 0.87757 0.58065 0.36679 0.0
C859 C 0.88947 0.58771 0.49758 0.0
C860 C 0.90617 0.5962 0.26085 0.0
C861 C 0.87258 0.57204 0.1545 0.0
N862 N 0.89387 0.59078 0.42104 0.0
N863 N 0.86771 0.57155 0.2304 0.0
H864 H 0.32848 0.93026 0.50558 0.0
H865 H 0.28709 0.83415 0.82507 0.0
H866 H 0.30374 0.86049 0.45395 0.0
H867 H 0.31274 0.90405 0.87686 0.0
H868 H 0.29006 0.84299 0.68788 0.0
H869 H 0.3203 0.92062 0.64152 0.0
C870 C 0.32137 0.91294 0.52277 0.0
C871 C 0.31689 0.8962 0.4682 0.0
C872 C 0.29485 0.85637 0.72934 0.0
C873 C 0.30727 0.88498 0.62357 0.0
C874 C 0.29319 0.85132 0.80762 0.0
C875 C 0.29981 0.86838 0.86266 0.0
C876 C 0.30329 0.87867 0.70589 0.0
C877 C 0.30727 0.8903 0.8368 0.0
C878 C 0.31655 0.90741 0.60033 0.0
C879 C 0.30727 0.87394 0.49367 0.0
N880 N 0.309 0.89484 0.76032 0.0
N881 N 0.3029 0.86901 0.56951 0.0
H882 H 0.45448 0.32307 0.85125 0.0
H883 H 0.43307 0.34612 0.2837 0.0
H884 H 0.40525 0.34132 0.91495 0.0
H885 H 0.45872 0.30209 0.22604 0.0
H886 H 0.43025 0.35217 0.14749 0.0
H887 H 0.46387 0.3234 0.98768 0.0
C888 C 0.44602 0.32762 0.894 0.0
C889 C 0.42909 0.3322 0.87245 0.0
C890 C 0.43656 0.34125 0.16481 0.0
C891 C 0.43958 0.33249 0.02745 0.0
C892 C 0.43803 0.33759 0.24276 0.0
C893 C 0.44567 0.32309 0.26691 0.0
C894 C 0.44303 0.33061 0.11029 0.0
C895 C 0.45268 0.31332 0.2104 0.0
C896 C 0.45122 0.3276 0.97158 0.0
C897 C 0.41831 0.33761 0.92977 0.0
N898 N 0.45108 0.31717 0.13457 0.0
N899 N 0.42372 0.33758 0.00485 0.0
H900 H 0.09391 0.41486 0.55616 0.0
H901 H 0.13525 0.4215 0.12486 0.0
H902 H 0.16379 0.44419 0.49688 0.0
H903 H 0.07185 0.41625 0.18475 0.0
H904 H 0.14471 0.42456 0.26068 0.0
H905 H 0.08427 0.40942 0.41989 0.0
C906 C 0.10721 0.41983 0.51437 0.0
C907 C 0.12969 0.4298 0.5376 0.0
C908 C 0.12875 0.42276 0.24378 0.0
C909 C 0.11878 0.42394 0.38159 0.0
C910 C 0.12329 0.4211 0.16594 0.0
C911 C 0.10271 0.41883 0.14226 0.0
C912 C 0.11344 0.42183 0.29869 0.0
C913 C 0.08782 0.41785 0.19944 0.0
C914 C 0.10171 0.41695 0.43661 0.0
C915 C 0.14629 0.43648 0.48098 0.0
N916 N 0.09348 0.41934 0.27492 0.0
N917 N 0.14051 0.43337 0.4053 0.0
H918 H 0.70466 0.14332 0.39972 0.0
H919 H 0.69248 0.09539 0.82426 0.0
H920 H 0.67423 0.07269 0.44985 0.0
H921 H 0.7297 0.16579 0.7682 0.0
H922 H 0.68734 0.08653 0.68749 0.0
H923 H 0.71496 0.15167 0.53427 0.0
C924 C 0.70027 0.12952 0.43881 0.0
C925 C 0.68859 0.10723 0.41316 0.0
C926 C 0.69683 0.10391 0.70508 0.0
C927 C 0.70012 0.11674 0.56818 0.0
C928 C 0.69996 0.109 0.7833 0.0
C929 C 0.71142 0.13143 0.80778 0.0
C930 C 0.70511 0.12136 0.65105 0.0
C931 C 0.72043 0.14832 0.75183 0.0
C932 C 0.70611 0.13433 0.5159 0.0
C933 C 0.68296 0.09009 0.46716 0.0
N934 N 0.71691 0.14295 0.67606 0.0
N935 N 0.68874 0.09521 0.54227 0.0
loop_
_geom_bond_atom_site_label_1
_geom_bond_atom_site_label_2
_geom_bond_distance
_geom_bond_site_symmetry_2
_ccdc_geom_bond_type
C0 C1 1.351 . S
C0 N3 1.368 . S
C0 H5 0.931 . S
C1 C0 1.351 . S
C1 N2 1.373 . S
C1 H29 0.930 . S
N2 C1 1.373 . S
N2 C4 1.340 . S
N3 C0 1.368 . S
N3 C4 1.321 . S
N3 Co6 2.135 . S
C4 N2 1.340 . S
C4 N3 1.321 . S
C4 H28 0.930 . S
H5 C0 0.931 . S
Co6 N3 2.135 . S
Co6 N9 2.121 . S
Co6 O14 2.055 . S
Co6 O17 2.039 . S
Co6 N20 2.140 . S
C7 O8 1.227 . S
C7 O17 1.265 . S
O8 C7 1.227 . S
N9 Co6 2.121 . S
N9 C11 1.375 . S
N9 C12 1.313 . S
C10 C11 1.338 . S
C10 N13 1.377 1_554 S
C10 H30 0.930 1_554 S
C11 N9 1.375 . S
C11 C10 1.338 . S
C11 H15 0.931 . S
C12 N9 1.313 . S
C12 N13 1.344 1_554 S
C12 H16 0.930 . S
N13 C10 1.377 1_556 S
N13 C12 1.344 1_556 S
O14 Co6 2.055 . S
O14 C18 1.253 . S
H15 C11 0.931 . S
H16 C12 0.930 . S
O17 Co6 2.039 . S
O17 C7 1.265 . S
C18 O14 1.253 . S
C18 O19 1.227 . S
O19 C18 1.227 . S
N20 Co6 2.140 . S
N20 C23 1.346 . S
N20 C24 1.345 . S
C21 C22 1.387 . S
C21 C25 1.391 . S
C22 C21 1.387 . S
C22 C23 1.369 . S
C22 H31 0.929 . S
C23 N20 1.346 . S
C23 C22 1.369 . S
C23 H26 0.928 . S
C24 N20 1.345 . S
C24 C25 1.371 . S
C24 H27 0.931 . S
C25 C21 1.391 . S
C25 C24 1.371 . S
C25 H32 0.930 . S
H26 C23 0.928 . S
H27 C24 0.931 . S
H28 C4 0.930 . S
H29 C1 0.930 . S
H30 C10 0.930 1_556 S
H31 C22 0.929 . S
H32 C25 0.930 . S
C33 C34 1.351 . S
C33 N36 1.368 . S
C33 H38 0.931 . S
C34 C33 1.351 . S
C34 N35 1.373 . S
C34 H62 0.930 . S
N35 C34 1.373 . S
N35 C37 1.340 . S
N36 C33 1.368 . S
N36 C37 1.321 . S
N36 Co39 2.135 . S
C37 N35 1.340 . S
C37 N36 1.321 . S
C37 H61 0.930 . S
H38 C33 0.931 . S
Co39 N36 2.135 . S
Co39 N42 2.121 . S
Co39 O47 2.055 . S
Co39 O50 2.039 . S
Co39 N53 2.140 . S
C40 O41 1.227 . S
C40 O50 1.265 . S
O41 C40 1.227 . S
N42 Co39 2.121 . S
N42 C44 1.375 . S
N42 C45 1.313 . S
C43 C44 1.338 . S
C43 N46 1.377 . S
C43 H63 0.930 . S
C44 N42 1.375 . S
C44 C43 1.338 . S
C44 H48 0.931 . S
C45 N42 1.313 . S
C45 N46 1.344 . S
C45 H49 0.930 . S
N46 C43 1.377 . S
N46 C45 1.344 . S
O47 Co39 2.055 . S
O47 C51 1.253 . S
H48 C44 0.931 . S
H49 C45 0.930 . S
O50 Co39 2.039 . S
O50 C40 1.265 . S
C51 O47 1.253 . S
C51 O52 1.227 . S
O52 C51 1.227 . S
N53 Co39 2.140 . S
N53 C56 1.346 . S
N53 C57 1.345 . S
C54 C55 1.387 . S
C54 C58 1.391 . S
C55 C54 1.387 . S
C55 C56 1.369 . S
C55 H64 0.929 . S
C56 N53 1.346 . S
C56 C55 1.369 . S
C56 H59 0.928 . S
C57 N53 1.345 . S
C57 C58 1.371 . S
C57 H60 0.931 . S
C58 C54 1.391 . S
C58 C57 1.371 . S
C58 H65 0.930 . S
H59 C56 0.928 . S
H60 C57 0.931 . S
H61 C37 0.930 . S
H62 C34 0.930 . S
H63 C43 0.930 . S
H64 C55 0.929 . S
H65 C58 0.930 . S
C66 C67 1.351 . S
C66 N69 1.368 . S
C66 H71 0.931 . S
C67 C66 1.351 . S
C67 N68 1.373 . S
C67 H95 0.930 . S
N68 C67 1.373 . S
N68 C70 1.340 . S
N69 C66 1.368 . S
N69 C70 1.321 . S
N69 Co72 2.135 1_554 S
C70 N68 1.340 . S
C70 N69 1.321 . S
C70 H94 0.930 . S
H71 C66 0.931 . S
Co72 N69 2.135 1_556 S
Co72 N75 2.121 . S
Co72 O80 2.055 . S
Co72 O83 2.039 . S
Co72 N86 2.140 . S
C73 O74 1.227 . S
C73 O83 1.265 . S
O74 C73 1.227 . S
N75 Co72 2.121 . S
N75 C77 1.375 . S
N75 C78 1.313 . S
C76 C77 1.338 . S
C76 N79 1.377 . S
C76 H96 0.930 . S
C77 N75 1.375 . S
C77 C76 1.338 . S
C77 H81 0.931 . S
C78 N75 1.313 . S
C78 N79 1.344 . S
C78 H82 0.930 . S
N79 C76 1.377 . S
N79 C78 1.344 . S
O80 Co72 2.055 . S
O80 C84 1.253 . S
H81 C77 0.931 . S
H82 C78 0.930 . S
O83 Co72 2.039 . S
O83 C73 1.265 . S
C84 O80 1.253 . S
C84 O85 1.227 . S
O85 C84 1.227 . S
N86 Co72 2.140 . S
N86 C89 1.346 . S
N86 C90 1.345 . S
C87 C88 1.387 . S
C87 C91 1.391 . S
C88 C87 1.387 . S
C88 C89 1.369 . S
C88 H97 0.929 1_556 S
C89 N86 1.346 . S
C89 C88 1.369 . S
C89 H92 0.928 1_556 S
C90 N86 1.345 . S
C90 C91 1.371 . S
C90 H93 0.931 . S
C91 C87 1.391 . S
C91 C90 1.371 . S
C91 H98 0.930 . S
H92 C89 0.928 1_554 S
H93 C90 0.931 . S
H94 C70 0.930 . S
H95 C67 0.930 . S
H96 C76 0.930 . S
H97 C88 0.929 1_554 S
H98 C91 0.930 . S
C99 C100 1.351 . S
C99 N102 1.368 . S
C99 H104 0.931 . S
C100 C99 1.351 . S
C100 N101 1.373 . S
C100 H128 0.930 . S
N101 C100 1.373 . S
N101 C103 1.340 . S
N102 C99 1.368 . S
N102 C103 1.321 . S
N102 Co105 2.135 . S
C103 N101 1.340 . S
C103 N102 1.321 . S
C103 H127 0.930 . S
H104 C99 0.931 . S
Co105 N102 2.135 . S
Co105 N108 2.121 . S
Co105 O113 2.055 . S
Co105 O116 2.039 . S
Co105 N119 2.140 . S
C106 O107 1.227 . S
C106 O116 1.265 . S
O107 C106 1.227 . S
N108 Co105 2.121 . S
N108 C110 1.375 . S
N108 C111 1.313 . S
C109 C110 1.338 . S
C109 N112 1.377 1_554 S
C109 H129 0.930 1_554 S
C110 N108 1.375 . S
C110 C109 1.338 . S
C110 H114 0.931 . S
C111 N108 1.313 . S
C111 N112 1.344 1_554 S
C111 H115 0.930 . S
N112 C109 1.377 1_556 S
N112 C111 1.344 1_556 S
O113 Co105 2.055 . S
O113 C117 1.253 . S
H114 C110 0.931 . S
H115 C111 0.930 . S
O116 Co105 2.039 . S
O116 C106 1.265 . S
C117 O113 1.253 . S
C117 O118 1.227 . S
O118 C117 1.227 . S
N119 Co105 2.140 . S
N119 C122 1.346 . S
N119 C123 1.345 . S
C120 C121 1.387 . S
C120 C124 1.391 . S
C121 C120 1.387 . S
C121 C122 1.369 . S
C121 H130 0.929 . S
C122 N119 1.346 . S
C122 C121 1.369 . S
C122 H125 0.928 . S
C123 N119 1.345 . S
C123 C124 1.371 . S
C123 H126 0.931 . S
C124 C120 1.391 . S
C124 C123 1.371 . S
C124 H131 0.930 . S
H125 C122 0.928 . S
H126 C123 0.931 . S
H127 C103 0.930 . S
H128 C100 0.930 . S
H129 C109 0.930 1_556 S
H130 C121 0.929 . S
H131 C124 0.930 . S
C132 C133 1.351 . S
C132 N135 1.368 . S
C132 H137 0.931 . S
C133 C132 1.351 . S
C133 N134 1.373 . S
C133 H161 0.930 . S
N134 C133 1.373 . S
N134 C136 1.340 . S
N135 C132 1.368 . S
N135 C136 1.321 . S
N135 Co138 2.135 . S
C136 N134 1.340 . S
C136 N135 1.321 . S
C136 H160 0.930 . S
H137 C132 0.931 . S
Co138 N135 2.135 . S
Co138 N141 2.121 . S
Co138 O146 2.055 . S
Co138 O149 2.039 . S
Co138 N152 2.140 . S
C139 O140 1.227 . S
C139 O149 1.265 . S
O140 C139 1.227 . S
N141 Co138 2.121 . S
N141 C143 1.375 . S
N141 C144 1.313 . S
C142 C143 1.338 . S
C142 N145 1.377 . S
C142 H162 0.930 . S
C143 N141 1.375 . S
C143 C142 1.338 . S
C143 H147 0.931 . S
C144 N141 1.313 . S
C144 N145 1.344 . S
C144 H148 0.930 . S
N145 C142 1.377 . S
N145 C144 1.344 . S
O146 Co138 2.055 . S
O146 C150 1.253 . S
H147 C143 0.931 . S
H148 C144 0.930 . S
O149 Co138 2.039 . S
O149 C139 1.265 . S
C150 O146 1.253 . S
C150 O151 1.227 . S
O151 C150 1.227 . S
N152 Co138 2.140 . S
N152 C155 1.346 . S
N152 C156 1.345 . S
C153 C154 1.387 . S
C153 C157 1.391 . S
C154 C153 1.387 . S
C154 C155 1.369 . S
C154 H163 0.929 . S
C155 N152 1.346 . S
C155 C154 1.369 . S
C155 H158 0.928 . S
C156 N152 1.345 . S
C156 C157 1.371 . S
C156 H159 0.931 . S
C157 C153 1.391 . S
C157 C156 1.371 . S
C157 H164 0.930 . S
H158 C155 0.928 . S
H159 C156 0.931 . S
H160 C136 0.930 . S
H161 C133 0.930 . S
H162 C142 0.930 . S
H163 C154 0.929 . S
H164 C157 0.930 . S
C165 C166 1.351 . S
C165 N168 1.368 . S
C165 H170 0.931 . S
C166 C165 1.351 . S
C166 N167 1.373 . S
C166 H194 0.930 . S
N167 C166 1.373 . S
N167 C169 1.340 . S
N168 C165 1.368 . S
N168 C169 1.321 . S
N168 Co171 2.135 1_554 S
C169 N167 1.340 . S
C169 N168 1.321 . S
C169 H193 0.930 . S
H170 C165 0.931 . S
Co171 N168 2.135 1_556 S
Co171 N174 2.121 . S
Co171 O179 2.055 . S
Co171 O182 2.039 . S
Co171 N185 2.140 . S
C172 O173 1.227 . S
C172 O182 1.265 . S
O173 C172 1.227 . S
N174 Co171 2.121 . S
N174 C176 1.375 . S
N174 C177 1.313 . S
C175 C176 1.338 . S
C175 N178 1.377 . S
C175 H195 0.930 . S
C176 N174 1.375 . S
C176 C175 1.338 . S
C176 H180 0.931 . S
C177 N174 1.313 . S
C177 N178 1.344 . S
C177 H181 0.930 . S
N178 C175 1.377 . S
N178 C177 1.344 . S
O179 Co171 2.055 . S
O179 C183 1.253 . S
H180 C176 0.931 . S
H181 C177 0.930 . S
O182 Co171 2.039 . S
O182 C172 1.265 . S
C183 O179 1.253 . S
C183 O184 1.227 . S
O184 C183 1.227 . S
N185 Co171 2.140 . S
N185 C188 1.346 . S
N185 C189 1.345 . S
C186 C187 1.387 . S
C186 C190 1.391 . S
C187 C186 1.387 . S
C187 C188 1.369 . S
C187 H196 0.929 1_556 S
C188 N185 1.346 . S
C188 C187 1.369 . S
C188 H191 0.928 1_556 S
C189 N185 1.345 . S
C189 C190 1.371 . S
C189 H192 0.931 . S
C190 C186 1.391 . S
C190 C189 1.371 . S
C190 H197 0.930 . S
H191 C188 0.928 1_554 S
H192 C189 0.931 . S
H193 C169 0.930 . S
H194 C166 0.930 . S
H195 C175 0.930 . S
H196 C187 0.929 1_554 S
H197 C190 0.930 . S
C198 C199 1.351 . S
C198 N201 1.368 . S
C198 H203 0.931 . S
C199 C198 1.351 . S
C199 N200 1.373 . S
C199 H227 0.930 . S
N200 C199 1.373 . S
N200 C202 1.340 . S
N201 C198 1.368 . S
N201 C202 1.321 . S
N201 Co204 2.135 . S
C202 N200 1.340 . S
C202 N201 1.321 . S
C202 H226 0.930 . S
H203 C198 0.931 . S
Co204 N201 2.135 . S
Co204 N207 2.121 . S
Co204 O212 2.055 . S
Co204 O215 2.039 . S
Co204 N218 2.140 . S
C205 O206 1.227 . S
C205 O215 1.265 . S
O206 C205 1.227 . S
N207 Co204 2.121 . S
N207 C209 1.375 . S
N207 C210 1.313 . S
C208 C209 1.338 . S
C208 N211 1.377 . S
C208 H228 0.930 . S
C209 N207 1.375 . S
C209 C208 1.338 . S
C209 H213 0.931 . S
C210 N207 1.313 . S
C210 N211 1.344 . S
C210 H214 0.930 . S
N211 C208 1.377 . S
N211 C210 1.344 . S
O212 Co204 2.055 . S
O212 C216 1.253 . S
H213 C209 0.931 . S
H214 C210 0.930 . S
O215 Co204 2.039 . S
O215 C205 1.265 . S
C216 O212 1.253 . S
C216 O217 1.227 . S
O217 C216 1.227 . S
N218 Co204 2.140 . S
N218 C221 1.346 . S
N218 C222 1.345 . S
C219 C220 1.387 . S
C219 C223 1.391 . S
C220 C219 1.387 . S
C220 C221 1.369 . S
C220 H229 0.929 . S
C221 N218 1.346 . S
C221 C220 1.369 . S
C221 H224 0.928 . S
C222 N218 1.345 . S
C222 C223 1.371 . S
C222 H225 0.931 . S
C223 C219 1.391 . S
C223 C222 1.371 . S
C223 H230 0.930 . S
H224 C221 0.928 . S
H225 C222 0.931 . S
H226 C202 0.930 . S
H227 C199 0.930 . S
H228 C208 0.930 . S
H229 C220 0.929 . S
H230 C223 0.930 . S
C231 C232 1.351 . S
C231 N234 1.368 . S
C231 H236 0.931 . S
C232 C231 1.351 . S
C232 N233 1.373 . S
C232 H260 0.930 . S
N233 C232 1.373 . S
N233 C235 1.340 . S
N234 C231 1.368 . S
N234 C235 1.321 . S
N234 Co237 2.135 . S
C235 N233 1.340 . S
C235 N234 1.321 . S
C235 H259 0.930 . S
H236 C231 0.931 . S
Co237 N234 2.135 . S
Co237 N240 2.121 . S
Co237 O245 2.055 . S
Co237 O248 2.039 . S
Co237 N251 2.140 . S
C238 O239 1.227 . S
C238 O248 1.265 . S
O239 C238 1.227 . S
N240 Co237 2.121 . S
N240 C242 1.375 . S
N240 C243 1.313 . S
C241 C242 1.338 . S
C241 N244 1.377 1_556 S
C241 H261 0.930 1_556 S
C242 N240 1.375 . S
C242 C241 1.338 . S
C242 H246 0.931 . S
C243 N240 1.313 . S
C243 N244 1.344 1_556 S
C243 H247 0.930 . S
N244 C241 1.377 1_554 S
N244 C243 1.344 1_554 S
O245 Co237 2.055 . S
O245 C249 1.253 . S
H246 C242 0.931 . S
H247 C243 0.930 . S
O248 Co237 2.039 . S
O248 C238 1.265 . S
C249 O245 1.253 . S
C249 O250 1.227 . S
O250 C249 1.227 . S
N251 Co237 2.140 . S
N251 C254 1.346 . S
N251 C255 1.345 . S
C252 C253 1.387 . S
C252 C256 1.391 . S
C253 C252 1.387 . S
C253 C254 1.369 . S
C253 H262 0.929 . S
C254 N251 1.346 . S
C254 C253 1.369 . S
C254 H257 0.928 . S
C255 N251 1.345 . S
C255 C256 1.371 . S
C255 H258 0.931 . S
C256 C252 1.391 . S
C256 C255 1.371 . S
C256 H263 0.930 . S
H257 C254 0.928 . S
H258 C255 0.931 . S
H259 C235 0.930 . S
H260 C232 0.930 . S
H261 C241 0.930 1_554 S
H262 C253 0.929 . S
H263 C256 0.930 . S
C264 C265 1.351 . S
C264 N267 1.368 . S
C264 H269 0.931 . S
C265 C264 1.351 . S
C265 N266 1.373 . S
C265 H293 0.930 . S
N266 C265 1.373 . S
N266 C268 1.340 . S
N267 C264 1.368 . S
N267 C268 1.321 . S
N267 Co270 2.135 1_556 S
C268 N266 1.340 . S
C268 N267 1.321 . S
C268 H292 0.930 . S
H269 C264 0.931 . S
Co270 N267 2.135 1_554 S
Co270 N273 2.121 . S
Co270 O278 2.055 . S
Co270 O281 2.039 . S
Co270 N284 2.140 . S
C271 O272 1.227 . S
C271 O281 1.265 . S
O272 C271 1.227 . S
N273 Co270 2.121 . S
N273 C275 1.375 . S
N273 C276 1.313 . S
C274 C275 1.338 . S
C274 N277 1.377 . S
C274 H294 0.930 . S
C275 N273 1.375 . S
C275 C274 1.338 . S
C275 H279 0.931 . S
C276 N273 1.313 . S
C276 N277 1.344 . S
C276 H280 0.930 . S
N277 C274 1.377 . S
N277 C276 1.344 . S
O278 Co270 2.055 . S
O278 C282 1.253 . S
H279 C275 0.931 . S
H280 C276 0.930 . S
O281 Co270 2.039 . S
O281 C271 1.265 . S
C282 O278 1.253 . S
C282 O283 1.227 . S
O283 C282 1.227 . S
N284 Co270 2.140 . S
N284 C287 1.346 . S
N284 C288 1.345 . S
C285 C286 1.387 . S
C285 C289 1.391 . S
C286 C285 1.387 . S
C286 C287 1.369 . S
C286 H295 0.929 1_554 S
C287 N284 1.346 . S
C287 C286 1.369 . S
C287 H290 0.928 1_554 S
C288 N284 1.345 . S
C288 C289 1.371 . S
C288 H291 0.931 . S
C289 C285 1.391 . S
C289 C288 1.371 . S
C289 H296 0.930 . S
H290 C287 0.928 1_556 S
H291 C288 0.931 . S
H292 C268 0.930 . S
H293 C265 0.930 . S
H294 C274 0.930 . S
H295 C286 0.929 1_556 S
H296 C289 0.930 . S
C297 C298 1.351 . S
C297 N300 1.368 . S
C297 H302 0.931 . S
C298 C297 1.351 . S
C298 N299 1.373 . S
C298 H326 0.930 . S
N299 C298 1.373 . S
N299 C301 1.340 . S
N300 C297 1.368 . S
N300 C301 1.321 . S
N300 Co303 2.135 . S
C301 N299 1.340 . S
C301 N300 1.321 . S
C301 H325 0.930 . S
H302 C297 0.931 . S
Co303 N300 2.135 . S
Co303 N306 2.121 . S
Co303 O311 2.055 . S
Co303 O314 2.039 . S
Co303 N317 2.140 . S
C304 O305 1.227 . S
C304 O314 1.265 . S
O305 C304 1.227 . S
N306 Co303 2.121 . S
N306 C308 1.375 . S
N306 C309 1.313 . S
C307 C308 1.338 . S
C307 N310 1.377 . S
C307 H327 0.930 . S
C308 N306 1.375 . S
C308 C307 1.338 . S
C308 H312 0.931 . S
C309 N306 1.313 . S
C309 N310 1.344 . S
C309 H313 0.930 . S
N310 C307 1.377 . S
N310 C309 1.344 . S
O311 Co303 2.055 . S
O311 C315 1.253 . S
H312 C308 0.931 . S
H313 C309 0.930 . S
O314 Co303 2.039 . S
O314 C304 1.265 . S
C315 O311 1.253 . S
C315 O316 1.227 . S
O316 C315 1.227 . S
N317 Co303 2.140 . S
N317 C320 1.346 . S
N317 C321 1.345 . S
C318 C319 1.387 . S
C318 C322 1.391 . S
C319 C318 1.387 . S
C319 C320 1.369 . S
C319 H328 0.929 . S
C320 N317 1.346 . S
C320 C319 1.369 . S
C320 H323 0.928 . S
C321 N317 1.345 . S
C321 C322 1.371 . S
C321 H324 0.931 . S
C322 C318 1.391 . S
C322 C321 1.371 . S
C322 H329 0.930 . S
H323 C320 0.928 . S
H324 C321 0.931 . S
H325 C301 0.930 . S
H326 C298 0.930 . S
H327 C307 0.930 . S
H328 C319 0.929 . S
H329 C322 0.930 . S
C330 C331 1.351 . S
C330 N333 1.368 . S
C330 H335 0.931 . S
C331 C330 1.351 . S
C331 N332 1.373 . S
C331 H359 0.930 . S
N332 C331 1.373 . S
N332 C334 1.340 . S
N333 C330 1.368 . S
N333 C334 1.321 . S
N333 Co336 2.135 . S
C334 N332 1.340 . S
C334 N333 1.321 . S
C334 H358 0.930 . S
H335 C330 0.931 . S
Co336 N333 2.135 . S
Co336 N339 2.121 . S
Co336 O344 2.055 . S
Co336 O347 2.039 . S
Co336 N350 2.140 . S
C337 O338 1.227 . S
C337 O347 1.265 . S
O338 C337 1.227 . S
N339 Co336 2.121 . S
N339 C341 1.375 . S
N339 C342 1.313 . S
C340 C341 1.338 . S
C340 N343 1.377 1_556 S
C340 H360 0.930 1_556 S
C341 N339 1.375 . S
C341 C340 1.338 . S
C341 H345 0.931 . S
C342 N339 1.313 . S
C342 N343 1.344 1_556 S
C342 H346 0.930 . S
N343 C340 1.377 1_554 S
N343 C342 1.344 1_554 S
O344 Co336 2.055 . S
O344 C348 1.253 . S
H345 C341 0.931 . S
H346 C342 0.930 . S
O347 Co336 2.039 . S
O347 C337 1.265 . S
C348 O344 1.253 . S
C348 O349 1.227 . S
O349 C348 1.227 . S
N350 Co336 2.140 . S
N350 C353 1.346 . S
N350 C354 1.345 . S
C351 C352 1.387 . S
C351 C355 1.391 . S
C352 C351 1.387 . S
C352 C353 1.369 . S
C352 H361 0.929 . S
C353 N350 1.346 . S
C353 C352 1.369 . S
C353 H356 0.928 . S
C354 N350 1.345 . S
C354 C355 1.371 . S
C354 H357 0.931 . S
C355 C351 1.391 . S
C355 C354 1.371 . S
C355 H362 0.930 . S
H356 C353 0.928 . S
H357 C354 0.931 . S
H358 C334 0.930 . S
H359 C331 0.930 . S
H360 C340 0.930 1_554 S
H361 C352 0.929 . S
H362 C355 0.930 . S
C363 C364 1.351 . S
C363 N366 1.368 . S
C363 H368 0.931 . S
C364 C363 1.351 . S
C364 N365 1.373 . S
C364 H392 0.930 . S
N365 C364 1.373 . S
N365 C367 1.340 . S
N366 C363 1.368 . S
N366 C367 1.321 . S
N366 Co369 2.135 1_556 S
C367 N365 1.340 . S
C367 N366 1.321 . S
C367 H391 0.930 . S
H368 C363 0.931 . S
Co369 N366 2.135 1_554 S
Co369 N372 2.121 . S
Co369 O377 2.055 . S
Co369 O380 2.039 . S
Co369 N383 2.140 . S
C370 O371 1.227 . S
C370 O380 1.265 . S
O371 C370 1.227 . S
N372 Co369 2.121 . S
N372 C374 1.375 . S
N372 C375 1.313 . S
C373 C374 1.338 . S
C373 N376 1.377 . S
C373 H393 0.930 . S
C374 N372 1.375 . S
C374 C373 1.338 . S
C374 H378 0.931 . S
C375 N372 1.313 . S
C375 N376 1.344 . S
C375 H379 0.930 . S
N376 C373 1.377 . S
N376 C375 1.344 . S
O377 Co369 2.055 . S
O377 C381 1.253 . S
H378 C374 0.931 . S
H379 C375 0.930 . S
O380 Co369 2.039 . S
O380 C370 1.265 . S
C381 O377 1.253 . S
C381 O382 1.227 . S
O382 C381 1.227 . S
N383 Co369 2.140 . S
N383 C386 1.346 . S
N383 C387 1.345 . S
C384 C385 1.387 . S
C384 C388 1.391 . S
C385 C384 1.387 . S
C385 C386 1.369 . S
C385 H394 0.929 1_554 S
C386 N383 1.346 . S
C386 C385 1.369 . S
C386 H389 0.928 1_554 S
C387 N383 1.345 . S
C387 C388 1.371 . S
C387 H390 0.931 . S
C388 C384 1.391 . S
C388 C387 1.371 . S
C388 H395 0.930 . S
H389 C386 0.928 1_556 S
H390 C387 0.931 . S
H391 C367 0.930 . S
H392 C364 0.930 . S
H393 C373 0.930 . S
H394 C385 0.929 1_556 S
H395 C388 0.930 . S
H396 C402 0.930 . S
H397 C406 0.930 . S
H398 C411 0.929 . S
H399 C409 0.929 . S
H400 C404 0.929 1_554 S
H401 C410 0.929 1_556 S
C402 H396 0.930 . S
C402 C403 1.367 . S
C402 C410 1.378 . S
C403 C402 1.367 . S
C403 C411 1.433 . S
C404 H400 0.929 1_556 S
C404 C406 1.378 . S
C404 C408 1.350 . S
C405 C408 1.463 1_554 S
C405 C410 1.350 . S
C405 N413 1.427 . S
C406 H397 0.930 . S
C406 C404 1.378 . S
C406 C407 1.367 . S
C407 C406 1.367 . S
C407 C409 1.433 . S
C408 C404 1.350 . S
C408 C405 1.463 1_556 S
C408 N412 1.427 . S
C409 H399 0.929 . S
C409 C407 1.433 . S
C409 N412 1.384 . S
C410 H401 0.929 1_554 S
C410 C402 1.378 . S
C410 C405 1.350 . S
C411 H398 0.929 . S
C411 C403 1.433 . S
C411 N413 1.384 . S
N412 C408 1.427 . S
N412 C409 1.384 . S
N413 C405 1.427 . S
N413 C411 1.384 . S
H414 C420 0.930 . S
H415 C424 0.930 . S
H416 C429 0.929 . S
H417 C427 0.929 . S
H418 C422 0.929 . S
H419 C428 0.929 . S
C420 H414 0.930 . S
C420 C421 1.367 . S
C420 C428 1.378 . S
C421 C420 1.367 . S
C421 C429 1.433 . S
C422 H418 0.929 . S
C422 C424 1.378 . S
C422 C426 1.350 . S
C423 C426 1.463 . S
C423 C428 1.350 . S
C423 N431 1.427 . S
C424 H415 0.930 . S
C424 C422 1.378 . S
C424 C425 1.367 . S
C425 C424 1.367 . S
C425 C427 1.433 . S
C426 C422 1.350 . S
C426 C423 1.463 . S
C426 N430 1.427 . S
C427 H417 0.929 . S
C427 C425 1.433 . S
C427 N430 1.384 . S
C428 H419 0.929 . S
C428 C420 1.378 . S
C428 C423 1.350 . S
C429 H416 0.929 . S
C429 C421 1.433 . S
C429 N431 1.384 . S
N430 C426 1.427 . S
N430 C427 1.384 . S
N431 C423 1.427 . S
N431 C429 1.384 . S
H432 C438 0.930 . S
H433 C442 0.930 . S
H434 C447 0.929 . S
H435 C445 0.929 . S
H436 C440 0.929 . S
H437 C446 0.929 . S
C438 H432 0.930 . S
C438 C439 1.367 . S
C438 C446 1.378 . S
C439 C438 1.367 . S
C439 C447 1.433 . S
C440 H436 0.929 . S
C440 C442 1.378 . S
C440 C444 1.350 . S
C441 C444 1.463 . S
C441 C446 1.350 . S
C441 N449 1.427 . S
C442 H433 0.930 . S
C442 C440 1.378 . S
C442 C443 1.367 . S
C443 C442 1.367 . S
C443 C445 1.433 . S
C444 C440 1.350 . S
C444 C441 1.463 . S
C444 N448 1.427 . S
C445 H435 0.929 . S
C445 C443 1.433 . S
C445 N448 1.384 . S
C446 H437 0.929 . S
C446 C438 1.378 . S
C446 C441 1.350 . S
C447 H434 0.929 . S
C447 C439 1.433 . S
C447 N449 1.384 . S
N448 C444 1.427 . S
N448 C445 1.384 . S
N449 C441 1.427 . S
N449 C447 1.384 . S
H450 C456 0.930 . S
H451 C460 0.930 . S
H452 C465 0.929 . S
H453 C463 0.929 . S
H454 C458 0.929 1_556 S
H455 C464 0.929 1_554 S
C456 H450 0.930 . S
C456 C457 1.367 . S
C456 C464 1.378 . S
C457 C456 1.367 . S
C457 C465 1.433 . S
C458 H454 0.929 1_554 S
C458 C460 1.378 . S
C458 C462 1.350 . S
C459 C462 1.463 1_556 S
C459 C464 1.350 . S
C459 N467 1.427 . S
C460 H451 0.930 . S
C460 C458 1.378 . S
C460 C461 1.367 . S
C461 C460 1.367 . S
C461 C463 1.433 . S
C462 C458 1.350 . S
C462 C459 1.463 1_554 S
C462 N466 1.427 . S
C463 H453 0.929 . S
C463 C461 1.433 . S
C463 N466 1.384 . S
C464 H455 0.929 1_556 S
C464 C456 1.378 . S
C464 C459 1.350 . S
C465 H452 0.929 . S
C465 C457 1.433 . S
C465 N467 1.384 . S
N466 C462 1.427 . S
N466 C463 1.384 . S
N467 C459 1.427 . S
N467 C465 1.384 . S
H468 C474 0.930 . S
H469 C478 0.930 . S
H470 C483 0.929 . S
H471 C481 0.929 . S
H472 C476 0.929 . S
H473 C482 0.929 . S
C474 H468 0.930 . S
C474 C475 1.367 . S
C474 C482 1.378 . S
C475 C474 1.367 . S
C475 C483 1.433 . S
C476 H472 0.929 . S
C476 C478 1.378 . S
C476 C480 1.350 . S
C477 C480 1.463 . S
C477 C482 1.350 . S
C477 N485 1.427 . S
C478 H469 0.930 . S
C478 C476 1.378 . S
C478 C479 1.367 . S
C479 C478 1.367 . S
C479 C481 1.433 . S
C480 C476 1.350 . S
C480 C477 1.463 . S
C480 N484 1.427 . S
C481 H471 0.929 . S
C481 C479 1.433 . S
C481 N484 1.384 . S
C482 H473 0.929 . S
C482 C474 1.378 . S
C482 C477 1.350 . S
C483 H470 0.929 . S
C483 C475 1.433 . S
C483 N485 1.384 . S
N484 C480 1.427 . S
N484 C481 1.384 . S
N485 C477 1.427 . S
N485 C483 1.384 . S
H486 C492 0.930 . S
H487 C496 0.930 . S
H488 C501 0.929 . S
H489 C499 0.929 . S
H490 C494 0.929 . S
H491 C500 0.929 . S
C492 H486 0.930 . S
C492 C493 1.367 . S
C492 C500 1.378 . S
C493 C492 1.367 . S
C493 C501 1.433 . S
C494 H490 0.929 . S
C494 C496 1.378 . S
C494 C498 1.350 . S
C495 C498 1.463 . S
C495 C500 1.350 . S
C495 N503 1.427 . S
C496 H487 0.930 . S
C496 C494 1.378 . S
C496 C497 1.367 . S
C497 C496 1.367 . S
C497 C499 1.433 . S
C498 C494 1.350 . S
C498 C495 1.463 . S
C498 N502 1.427 . S
C499 H489 0.929 . S
C499 C497 1.433 . S
C499 N502 1.384 . S
C500 H491 0.929 . S
C500 C492 1.378 . S
C500 C495 1.350 . S
C501 H488 0.929 . S
C501 C493 1.433 . S
C501 N503 1.384 . S
N502 C498 1.427 . S
N502 C499 1.384 . S
N503 C495 1.427 . S
N503 C501 1.384 . S
H504 C510 0.930 . S
H505 C514 0.930 . S
H506 C519 0.929 . S
H507 C517 0.929 . S
H508 C512 0.929 . S
H509 C518 0.929 . S
C510 H504 0.930 . S
C510 C511 1.367 . S
C510 C518 1.378 . S
C511 C510 1.367 . S
C511 C519 1.433 . S
C512 H508 0.929 . S
C512 C514 1.378 . S
C512 C516 1.350 . S
C513 C516 1.463 . S
C513 C518 1.350 . S
C513 N521 1.427 . S
C514 H505 0.930 . S
C514 C512 1.378 . S
C514 C515 1.367 . S
C515 C514 1.367 . S
C515 C517 1.433 . S
C516 C512 1.350 . S
C516 C513 1.463 . S
C516 N520 1.427 . S
C517 H507 0.929 . S
C517 C515 1.433 . S
C517 N520 1.384 . S
C518 H509 0.929 . S
C518 C510 1.378 . S
C518 C513 1.350 . S
C519 H506 0.929 . S
C519 C511 1.433 . S
C519 N521 1.384 . S
N520 C516 1.427 . S
N520 C517 1.384 . S
N521 C513 1.427 . S
N521 C519 1.384 . S
H522 C528 0.930 . S
H523 C532 0.930 . S
H524 C537 0.929 . S
H525 C535 0.929 . S
H526 C530 0.929 . S
H527 C536 0.929 . S
C528 H522 0.930 . S
C528 C529 1.367 . S
C528 C536 1.378 . S
C529 C528 1.367 . S
C529 C537 1.433 . S
C530 H526 0.929 . S
C530 C532 1.378 . S
C530 C534 1.350 . S
C531 C534 1.463 . S
C531 C536 1.350 . S
C531 N539 1.427 . S
C532 H523 0.930 . S
C532 C530 1.378 . S
C532 C533 1.367 . S
C533 C532 1.367 . S
C533 C535 1.433 . S
C534 C530 1.350 . S
C534 C531 1.463 . S
C534 N538 1.427 . S
C535 H525 0.929 . S
C535 C533 1.433 . S
C535 N538 1.384 . S
C536 H527 0.929 . S
C536 C528 1.378 . S
C536 C531 1.350 . S
C537 H524 0.929 . S
C537 C529 1.433 . S
C537 N539 1.384 . S
N538 C534 1.427 . S
N538 C535 1.384 . S
N539 C531 1.427 . S
N539 C537 1.384 . S
H540 C546 0.930 . S
H541 C550 0.930 . S
H542 C555 0.929 . S
H543 C553 0.929 . S
H544 C548 0.929 . S
H545 C554 0.929 . S
C546 H540 0.930 . S
C546 C547 1.367 1_554 S
C546 C554 1.378 . S
C547 C546 1.367 1_556 S
C547 C555 1.433 . S
C548 H544 0.929 . S
C548 C550 1.378 . S
C548 C552 1.350 1_556 S
C549 C552 1.463 1_556 S
C549 C554 1.350 1_556 S
C549 N557 1.427 . S
C550 H541 0.930 . S
C550 C548 1.378 . S
C550 C551 1.367 1_556 S
C551 C550 1.367 1_554 S
C551 C553 1.433 . S
C552 C548 1.350 1_554 S
C552 C549 1.463 1_554 S
C552 N556 1.427 . S
C553 H543 0.929 . S
C553 C551 1.433 . S
C553 N556 1.384 . S
C554 H545 0.929 . S
C554 C546 1.378 . S
C554 C549 1.350 1_554 S
C555 H542 0.929 . S
C555 C547 1.433 . S
C555 N557 1.384 . S
N556 C552 1.427 . S
N556 C553 1.384 . S
N557 C549 1.427 . S
N557 C555 1.384 . S
H558 C564 0.930 . S
H559 C568 0.930 . S
H560 C573 0.929 . S
H561 C571 0.929 . S
H562 C566 0.929 . S
H563 C572 0.929 . S
C564 H558 0.930 . S
C564 C565 1.367 . S
C564 C572 1.378 . S
C565 C564 1.367 . S
C565 C573 1.433 . S
C566 H562 0.929 . S
C566 C568 1.378 . S
C566 C570 1.350 . S
C567 C570 1.463 . S
C567 C572 1.350 . S
C567 N575 1.427 . S
C568 H559 0.930 . S
C568 C566 1.378 . S
C568 C569 1.367 . S
C569 C568 1.367 . S
C569 C571 1.433 . S
C570 C566 1.350 . S
C570 C567 1.463 . S
C570 N574 1.427 . S
C571 H561 0.929 . S
C571 C569 1.433 . S
C571 N574 1.384 . S
C572 H563 0.929 . S
C572 C564 1.378 . S
C572 C567 1.350 . S
C573 H560 0.929 . S
C573 C565 1.433 . S
C573 N575 1.384 . S
N574 C570 1.427 . S
N574 C571 1.384 . S
N575 C567 1.427 . S
N575 C573 1.384 . S
H576 C582 0.930 . S
H577 C586 0.930 . S
H578 C591 0.929 . S
H579 C589 0.929 . S
H580 C584 0.929 . S
H581 C590 0.929 . S
C582 H576 0.930 . S
C582 C583 1.367 . S
C582 C590 1.378 . S
C583 C582 1.367 . S
C583 C591 1.433 . S
C584 H580 0.929 . S
C584 C586 1.378 . S
C584 C588 1.350 . S
C585 C588 1.463 . S
C585 C590 1.350 . S
C585 N593 1.427 . S
C586 H577 0.930 . S
C586 C584 1.378 . S
C586 C587 1.367 . S
C587 C586 1.367 . S
C587 C589 1.433 . S
C588 C584 1.350 . S
C588 C585 1.463 . S
C588 N592 1.427 . S
C589 H579 0.929 . S
C589 C587 1.433 . S
C589 N592 1.384 . S
C590 H581 0.929 . S
C590 C582 1.378 . S
C590 C585 1.350 . S
C591 H578 0.929 . S
C591 C583 1.433 . S
C591 N593 1.384 . S
N592 C588 1.427 . S
N592 C589 1.384 . S
N593 C585 1.427 . S
N593 C591 1.384 . S
H594 C600 0.930 . S
H595 C604 0.930 . S
H596 C609 0.929 . S
H597 C607 0.929 . S
H598 C602 0.930 . S
H599 C608 0.930 . S
C600 H594 0.930 . S
C600 C601 1.367 . S
C600 C608 1.378 . S
C601 C600 1.367 . S
C601 C609 1.433 . S
C602 H598 0.930 . S
C602 C604 1.378 . S
C602 C606 1.350 . S
C603 C606 1.463 1_554 S
C603 C608 1.350 . S
C603 N611 1.427 . S
C604 H595 0.930 . S
C604 C602 1.378 . S
C604 C605 1.367 . S
C605 C604 1.367 . S
C605 C607 1.433 . S
C606 C602 1.350 . S
C606 C603 1.463 1_556 S
C606 N610 1.427 . S
C607 H597 0.929 . S
C607 C605 1.433 . S
C607 N610 1.384 . S
C608 H599 0.930 . S
C608 C600 1.378 . S
C608 C603 1.350 . S
C609 H596 0.929 . S
C609 C601 1.433 . S
C609 N611 1.384 . S
N610 C606 1.427 . S
N610 C607 1.384 . S
N611 C603 1.427 . S
N611 C609 1.384 . S
H612 C618 0.930 . S
H613 C622 0.930 . S
H614 C627 0.929 . S
H615 C625 0.929 . S
H616 C620 0.929 . S
H617 C626 0.929 . S
C618 H612 0.930 . S
C618 C619 1.367 . S
C618 C626 1.378 . S
C619 C618 1.367 . S
C619 C627 1.433 . S
C620 H616 0.929 . S
C620 C622 1.378 . S
C620 C624 1.350 . S
C621 C624 1.463 . S
C621 C626 1.350 . S
C621 N629 1.427 . S
C622 H613 0.930 . S
C622 C620 1.378 . S
C622 C623 1.367 . S
C623 C622 1.367 . S
C623 C625 1.433 . S
C624 C620 1.350 . S
C624 C621 1.463 . S
C624 N628 1.427 . S
C625 H615 0.929 . S
C625 C623 1.433 . S
C625 N628 1.384 . S
C626 H617 0.929 . S
C626 C618 1.378 . S
C626 C621 1.350 . S
C627 H614 0.929 . S
C627 C619 1.433 . S
C627 N629 1.384 . S
N628 C624 1.427 . S
N628 C625 1.384 . S
N629 C621 1.427 . S
N629 C627 1.384 . S
H630 C636 0.930 . S
H631 C640 0.930 . S
H632 C645 0.929 . S
H633 C643 0.929 . S
H634 C638 0.929 . S
H635 C644 0.929 . S
C636 H630 0.930 . S
C636 C637 1.367 . S
C636 C644 1.378 . S
C637 C636 1.367 . S
C637 C645 1.433 . S
C638 H634 0.929 . S
C638 C640 1.378 . S
C638 C642 1.350 . S
C639 C642 1.463 1_455 S
C639 C644 1.350 . S
C639 N647 1.427 . S
C640 H631 0.930 . S
C640 C638 1.378 . S
C640 C641 1.367 . S
C641 C640 1.367 . S
C641 C643 1.433 . S
C642 C638 1.350 . S
C642 C639 1.463 1_655 S
C642 N646 1.427 . S
C643 H633 0.929 . S
C643 C641 1.433 . S
C643 N646 1.384 . S
C644 H635 0.929 . S
C644 C636 1.378 . S
C644 C639 1.350 . S
C645 H632 0.929 . S
C645 C637 1.433 . S
C645 N647 1.384 . S
N646 C642 1.427 . S
N646 C643 1.384 . S
N647 C639 1.427 . S
N647 C645 1.384 . S
H648 C654 0.930 . S
H649 C658 0.930 . S
H650 C663 0.930 . S
H651 C661 0.930 . S
H652 C656 0.929 . S
H653 C662 0.929 . S
C654 H648 0.930 . S
C654 C655 1.367 . S
C654 C662 1.378 . S
C655 C654 1.367 . S
C655 C663 1.431 1_554 S
C656 H652 0.929 . S
C656 C658 1.378 . S
C656 C660 1.350 . S
C657 C660 1.463 1_544 S
C657 C662 1.350 . S
C657 N665 1.427 1_554 S
C658 H649 0.930 . S
C658 C656 1.378 . S
C658 C659 1.367 . S
C659 C658 1.367 . S
C659 C661 1.431 1_556 S
C660 C656 1.350 . S
C660 C657 1.463 1_566 S
C660 N664 1.427 1_556 S
C661 H651 0.930 . S
C661 C659 1.431 1_554 S
C661 N664 1.384 . S
C662 H653 0.929 . S
C662 C654 1.378 . S
C662 C657 1.350 . S
C663 H650 0.930 . S
C663 C655 1.431 1_556 S
C663 N665 1.384 . S
N664 C660 1.427 1_554 S
N664 C661 1.384 . S
N665 C657 1.427 1_556 S
N665 C663 1.384 . S
H666 C672 0.930 . S
H667 C676 0.930 . S
H668 C681 0.929 . S
H669 C679 0.929 . S
H670 C674 0.929 . S
H671 C680 0.929 . S
C672 H666 0.930 . S
C672 C673 1.367 . S
C672 C680 1.378 . S
C673 C672 1.367 . S
C673 C681 1.433 . S
C674 H670 0.929 . S
C674 C676 1.378 . S
C674 C678 1.350 . S
C675 C678 1.463 . S
C675 C680 1.350 . S
C675 N683 1.427 . S
C676 H667 0.930 . S
C676 C674 1.378 . S
C676 C677 1.367 . S
C677 C676 1.367 . S
C677 C679 1.433 . S
C678 C674 1.350 . S
C678 C675 1.463 . S
C678 N682 1.427 . S
C679 H669 0.929 . S
C679 C677 1.433 . S
C679 N682 1.384 . S
C680 H671 0.929 . S
C680 C672 1.378 . S
C680 C675 1.350 . S
C681 H668 0.929 . S
C681 C673 1.433 . S
C681 N683 1.384 . S
N682 C678 1.427 . S
N682 C679 1.384 . S
N683 C675 1.427 . S
N683 C681 1.384 . S
H684 C690 0.930 . S
H685 C694 0.930 . S
H686 C699 0.929 . S
H687 C697 0.929 . S
H688 C692 0.929 . S
H689 C698 0.929 . S
C690 H684 0.930 . S
C690 C691 1.367 . S
C690 C698 1.378 . S
C691 C690 1.367 . S
C691 C699 1.433 . S
C692 H688 0.929 . S
C692 C694 1.378 . S
C692 C696 1.350 . S
C693 C696 1.463 1_455 S
C693 C698 1.350 . S
C693 N701 1.427 . S
C694 H685 0.930 . S
C694 C692 1.378 . S
C694 C695 1.367 . S
C695 C694 1.367 . S
C695 C697 1.433 . S
C696 C692 1.350 . S
C696 C693 1.463 1_655 S
C696 N700 1.427 . S
C697 H687 0.929 . S
C697 C695 1.433 . S
C697 N700 1.384 . S
C698 H689 0.929 . S
C698 C690 1.378 . S
C698 C693 1.350 . S
C699 H686 0.929 . S
C699 C691 1.433 . S
C699 N701 1.384 . S
N700 C696 1.427 . S
N700 C697 1.384 . S
N701 C693 1.427 . S
N701 C699 1.384 . S
H702 C708 0.930 . S
H703 C712 0.930 . S
H704 C717 0.929 . S
H705 C715 0.929 . S
H706 C710 0.929 . S
H707 C716 0.929 . S
C708 H702 0.930 . S
C708 C709 1.367 1_554 S
C708 C716 1.378 . S
C709 C708 1.367 1_556 S
C709 C717 1.433 . S
C710 H706 0.929 . S
C710 C712 1.378 . S
C710 C714 1.350 1_556 S
C711 C714 1.463 1_546 S
C711 C716 1.350 1_556 S
C711 N719 1.427 . S
C712 H703 0.930 . S
C712 C710 1.378 . S
C712 C713 1.367 1_556 S
C713 C712 1.367 1_554 S
C713 C715 1.433 . S
C714 C710 1.350 1_554 S
C714 C711 1.463 1_564 S
C714 N718 1.427 . S
C715 H705 0.929 . S
C715 C713 1.433 . S
C715 N718 1.384 . S
C716 H707 0.929 . S
C716 C708 1.378 . S
C716 C711 1.350 1_554 S
C717 H704 0.929 . S
C717 C709 1.433 . S
C717 N719 1.384 . S
N718 C714 1.427 . S
N718 C715 1.384 . S
N719 C711 1.427 . S
N719 C717 1.384 . S
H720 C726 0.930 . S
H721 C730 0.930 . S
H722 C735 0.929 . S
H723 C733 0.929 . S
H724 C728 0.929 . S
H725 C734 0.929 . S
C726 H720 0.930 . S
C726 C727 1.367 . S
C726 C734 1.378 . S
C727 C726 1.367 . S
C727 C735 1.433 . S
C728 H724 0.929 . S
C728 C730 1.378 . S
C728 C732 1.350 . S
C729 C732 1.463 . S
C729 C734 1.350 . S
C729 N737 1.427 . S
C730 H721 0.930 . S
C730 C728 1.378 . S
C730 C731 1.367 . S
C731 C730 1.367 . S
C731 C733 1.433 . S
C732 C728 1.350 . S
C732 C729 1.463 . S
C732 N736 1.427 . S
C733 H723 0.929 . S
C733 C731 1.433 . S
C733 N736 1.384 . S
C734 H725 0.929 . S
C734 C726 1.378 . S
C734 C729 1.350 . S
C735 H722 0.929 . S
C735 C727 1.433 . S
C735 N737 1.384 . S
N736 C732 1.427 . S
N736 C733 1.384 . S
N737 C729 1.427 . S
N737 C735 1.384 . S
H738 C744 0.930 . S
H739 C748 0.930 . S
H740 C753 0.929 . S
H741 C751 0.929 . S
H742 C746 0.929 . S
H743 C752 0.929 . S
C744 H738 0.930 . S
C744 C745 1.367 . S
C744 C752 1.378 . S
C745 C744 1.367 . S
C745 C753 1.433 . S
C746 H742 0.929 . S
C746 C748 1.378 1_554 S
C746 C750 1.350 . S
C747 C750 1.463 . S
C747 C752 1.350 . S
C747 N755 1.427 . S
C748 H739 0.930 . S
C748 C746 1.378 1_556 S
C748 C749 1.367 . S
C749 C748 1.367 . S
C749 C751 1.433 . S
C750 C746 1.350 . S
C750 C747 1.463 . S
C750 N754 1.427 1_554 S
C751 H741 0.929 . S
C751 C749 1.433 . S
C751 N754 1.384 . S
C752 H743 0.929 . S
C752 C744 1.378 . S
C752 C747 1.350 . S
C753 H740 0.929 . S
C753 C745 1.433 . S
C753 N755 1.384 . S
N754 C750 1.427 1_556 S
N754 C751 1.384 . S
N755 C747 1.427 . S
N755 C753 1.384 . S
H756 C762 0.930 . S
H757 C766 0.930 . S
H758 C771 0.929 . S
H759 C769 0.929 . S
H760 C764 0.929 . S
H761 C770 0.929 . S
C762 H756 0.930 . S
C762 C763 1.367 . S
C762 C770 1.378 . S
C763 C762 1.367 . S
C763 C771 1.433 . S
C764 H760 0.929 . S
C764 C766 1.378 . S
C764 C768 1.350 . S
C765 C768 1.463 . S
C765 C770 1.350 . S
C765 N773 1.427 . S
C766 H757 0.930 . S
C766 C764 1.378 . S
C766 C767 1.367 . S
C767 C766 1.367 . S
C767 C769 1.433 . S
C768 C764 1.350 . S
C768 C765 1.463 . S
C768 N772 1.427 . S
C769 H759 0.929 . S
C769 C767 1.433 . S
C769 N772 1.384 . S
C770 H761 0.929 . S
C770 C762 1.378 . S
C770 C765 1.350 . S
C771 H758 0.929 . S
C771 C763 1.433 . S
C771 N773 1.384 . S
N772 C768 1.427 . S
N772 C769 1.384 . S
N773 C765 1.427 . S
N773 C771 1.384 . S
H774 C780 0.930 . S
H775 C784 0.930 . S
H776 C789 0.929 . S
H777 C787 0.929 . S
H778 C782 0.929 . S
H779 C788 0.929 . S
C780 H774 0.930 . S
C780 C781 1.367 . S
C780 C788 1.378 . S
C781 C780 1.367 . S
C781 C789 1.433 . S
C782 H778 0.929 . S
C782 C784 1.378 . S
C782 C786 1.350 . S
C783 C786 1.463 . S
C783 C788 1.350 . S
C783 N791 1.427 . S
C784 H775 0.930 . S
C784 C782 1.378 . S
C784 C785 1.367 . S
C785 C784 1.367 . S
C785 C787 1.433 . S
C786 C782 1.350 . S
C786 C783 1.463 . S
C786 N790 1.427 . S
C787 H777 0.929 . S
C787 C785 1.433 . S
C787 N790 1.384 . S
C788 H779 0.929 . S
C788 C780 1.378 . S
C788 C783 1.350 . S
C789 H776 0.929 . S
C789 C781 1.433 . S
C789 N791 1.384 . S
N790 C786 1.427 . S
N790 C787 1.384 . S
N791 C783 1.427 . S
N791 C789 1.384 . S
H792 C798 0.930 . S
H793 C802 0.930 . S
H794 C807 0.929 . S
H795 C805 0.929 . S
H796 C800 0.929 . S
H797 C806 0.929 . S
C798 H792 0.930 . S
C798 C799 1.367 . S
C798 C806 1.378 . S
C799 C798 1.367 . S
C799 C807 1.433 . S
C800 H796 0.929 . S
C800 C802 1.378 1_554 S
C800 C804 1.350 . S
C801 C804 1.463 . S
C801 C806 1.350 . S
C801 N809 1.427 . S
C802 H793 0.930 . S
C802 C800 1.378 1_556 S
C802 C803 1.367 . S
C803 C802 1.367 . S
C803 C805 1.433 . S
C804 C800 1.350 . S
C804 C801 1.463 . S
C804 N808 1.427 1_554 S
C805 H795 0.929 . S
C805 C803 1.433 . S
C805 N808 1.384 . S
C806 H797 0.929 . S
C806 C798 1.378 . S
C806 C801 1.350 . S
C807 H794 0.929 . S
C807 C799 1.433 . S
C807 N809 1.384 . S
N808 C804 1.427 1_556 S
N808 C805 1.384 . S
N809 C801 1.427 . S
N809 C807 1.384 . S
H810 C816 0.930 . S
H811 C820 0.930 . S
H812 C825 0.929 . S
H813 C823 0.929 . S
H814 C818 0.929 . S
H815 C824 0.929 . S
C816 H810 0.930 . S
C816 C817 1.367 . S
C816 C824 1.378 . S
C817 C816 1.367 . S
C817 C825 1.433 . S
C818 H814 0.929 . S
C818 C820 1.378 . S
C818 C822 1.350 . S
C819 C822 1.463 . S
C819 C824 1.350 . S
C819 N827 1.427 . S
C820 H811 0.930 . S
C820 C818 1.378 . S
C820 C821 1.367 . S
C821 C820 1.367 . S
C821 C823 1.433 . S
C822 C818 1.350 . S
C822 C819 1.463 . S
C822 N826 1.427 . S
C823 H813 0.929 . S
C823 C821 1.433 . S
C823 N826 1.384 . S
C824 H815 0.929 . S
C824 C816 1.378 . S
C824 C819 1.350 . S
C825 H812 0.929 . S
C825 C817 1.433 . S
C825 N827 1.384 . S
N826 C822 1.427 . S
N826 C823 1.384 . S
N827 C819 1.427 . S
N827 C825 1.384 . S
H828 C834 0.930 . S
H829 C838 0.930 . S
H830 C843 0.929 . S
H831 C841 0.929 . S
H832 C836 0.929 . S
H833 C842 0.934 . S
C834 H828 0.930 . S
C834 C835 1.367 . S
C834 C842 1.368 1_554 S
C835 C834 1.367 . S
C835 C843 1.433 . S
C836 H832 0.929 . S
C836 C838 1.378 . S
C836 C840 1.350 . S
C837 C840 1.463 . S
C837 C842 1.354 . S
C837 N845 1.427 1_556 S
C838 H829 0.930 . S
C838 C836 1.378 . S
C838 C839 1.367 . S
C839 C838 1.367 . S
C839 C841 1.433 . S
C840 C836 1.350 . S
C840 C837 1.463 . S
C840 N844 1.427 . S
C841 H831 0.929 . S
C841 C839 1.433 . S
C841 N844 1.384 . S
C842 H833 0.934 . S
C842 C834 1.368 1_556 S
C842 C837 1.354 . S
C843 H830 0.929 . S
C843 C835 1.433 . S
C843 N845 1.384 . S
N844 C840 1.427 . S
N844 C841 1.384 . S
N845 C837 1.427 1_554 S
N845 C843 1.384 . S
H846 C852 0.930 . S
H847 C856 0.930 . S
H848 C861 0.929 . S
H849 C859 0.929 . S
H850 C854 0.929 . S
H851 C860 0.929 . S
C852 H846 0.930 . S
C852 C853 1.367 . S
C852 C860 1.378 . S
C853 C852 1.367 . S
C853 C861 1.433 . S
C854 H850 0.929 . S
C854 C856 1.378 . S
C854 C858 1.350 . S
C855 C858 1.463 . S
C855 C860 1.350 . S
C855 N863 1.427 . S
C856 H847 0.930 . S
C856 C854 1.378 . S
C856 C857 1.367 . S
C857 C856 1.367 . S
C857 C859 1.433 . S
C858 C854 1.350 . S
C858 C855 1.463 . S
C858 N862 1.427 . S
C859 H849 0.929 . S
C859 C857 1.433 . S
C859 N862 1.384 . S
C860 H851 0.929 . S
C860 C852 1.378 . S
C860 C855 1.350 . S
C861 H848 0.929 . S
C861 C853 1.433 . S
C861 N863 1.384 . S
N862 C858 1.427 . S
N862 C859 1.384 . S
N863 C855 1.427 . S
N863 C861 1.384 . S
H864 C870 0.930 . S
H865 C874 0.930 . S
H866 C879 0.929 . S
H867 C877 0.929 . S
H868 C872 0.929 . S
H869 C878 0.929 . S
C870 H864 0.930 . S
C870 C871 1.367 . S
C870 C878 1.378 . S
C871 C870 1.367 . S
C871 C879 1.433 . S
C872 H868 0.929 . S
C872 C874 1.378 . S
C872 C876 1.350 . S
C873 C876 1.463 . S
C873 C878 1.350 . S
C873 N881 1.427 . S
C874 H865 0.930 . S
C874 C872 1.378 . S
C874 C875 1.367 . S
C875 C874 1.367 . S
C875 C877 1.433 . S
C876 C872 1.350 . S
C876 C873 1.463 . S
C876 N880 1.427 . S
C877 H867 0.929 . S
C877 C875 1.433 . S
C877 N880 1.384 . S
C878 H869 0.929 . S
C878 C870 1.378 . S
C878 C873 1.350 . S
C879 H866 0.929 . S
C879 C871 1.433 . S
C879 N881 1.384 . S
N880 C876 1.427 . S
N880 C877 1.384 . S
N881 C873 1.427 . S
N881 C879 1.384 . S
H882 C888 0.930 . S
H883 C892 0.930 . S
H884 C897 0.929 . S
H885 C895 0.929 . S
H886 C890 0.927 1_556 S
H887 C896 0.929 . S
C888 H882 0.930 . S
C888 C889 1.367 . S
C888 C896 1.378 . S
C889 C888 1.367 . S
C889 C897 1.433 . S
C890 H886 0.927 1_554 S
C890 C892 1.378 . S
C890 C894 1.350 1_554 S
C891 C894 1.463 . S
C891 C896 1.350 . S
C891 N899 1.427 . S
C892 H883 0.930 . S
C892 C890 1.378 . S
C892 C893 1.367 . S
C893 C892 1.367 . S
C893 C895 1.433 . S
C894 C890 1.350 1_556 S
C894 C891 1.463 . S
C894 N898 1.427 . S
C895 H885 0.929 . S
C895 C893 1.433 . S
C895 N898 1.384 1_554 S
C896 H887 0.929 . S
C896 C888 1.378 . S
C896 C891 1.350 . S
C897 H884 0.929 . S
C897 C889 1.433 . S
C897 N899 1.384 . S
N898 C894 1.427 . S
N898 C895 1.384 1_556 S
N899 C891 1.427 . S
N899 C897 1.384 . S
H900 C906 0.930 . S
H901 C910 0.930 . S
H902 C915 0.929 . S
H903 C913 0.929 . S
H904 C908 0.929 . S
H905 C914 0.929 . S
C906 H900 0.930 . S
C906 C907 1.367 . S
C906 C914 1.378 . S
C907 C906 1.367 . S
C907 C915 1.433 . S
C908 H904 0.929 . S
C908 C910 1.378 . S
C908 C912 1.350 . S
C909 C912 1.463 . S
C909 C914 1.350 . S
C909 N917 1.427 . S
C910 H901 0.930 . S
C910 C908 1.378 . S
C910 C911 1.367 . S
C911 C910 1.367 . S
C911 C913 1.433 . S
C912 C908 1.350 . S
C912 C909 1.463 . S
C912 N916 1.427 . S
C913 H903 0.929 . S
C913 C911 1.433 . S
C913 N916 1.384 . S
C914 H905 0.929 . S
C914 C906 1.378 . S
C914 C909 1.350 . S
C915 H902 0.929 . S
C915 C907 1.433 . S
C915 N917 1.384 . S
N916 C912 1.427 . S
N916 C913 1.384 . S
N917 C909 1.427 . S
N917 C915 1.384 . S
H918 C924 0.930 . S
H919 C928 0.930 . S
H920 C933 0.929 . S
H921 C931 0.929 . S
H922 C926 0.929 . S
H923 C932 0.929 . S
C924 H918 0.930 . S
C924 C925 1.367 . S
C924 C932 1.378 . S
C925 C924 1.367 . S
C925 C933 1.433 . S
C926 H922 0.929 . S
C926 C928 1.378 . S
C926 C930 1.350 . S
C927 C930 1.463 . S
C927 C932 1.350 . S
C927 N935 1.427 . S
C928 H919 0.930 . S
C928 C926 1.378 . S
C928 C929 1.367 . S
C929 C928 1.367 . S
C929 C931 1.433 . S
C930 C926 1.350 . S
C930 C927 1.463 . S
C930 N934 1.427 . S
C931 H921 0.929 . S
C931 C929 1.433 . S
C931 N934 1.384 . S
C932 H923 0.929 . S
C932 C924 1.378 . S
C932 C927 1.350 . S
C933 H920 0.929 . S
C933 C925 1.433 . S
C933 N935 1.384 . S
N934 C930 1.427 . S
N934 C931 1.384 . S
N935 C927 1.427 . S
N935 C933 1.384 . S
C403 C18 1.400 . S
C407 C348 1.396 . S
C421 C381 1.404 . S
C425 C51 1.408 . S
C439 C216 1.411 . S
C443 C84 1.410 . S
C457 C249 1.396 . S
C461 C117 1.400 . S
C475 C150 1.411 . S
C479 C282 1.409 . S
C493 C315 1.409 . S
C497 C183 1.405 . S
C511 C219 1.590 . S
C515 C21 1.592 . S
C529 C252 1.590 . S
C533 C54 1.593 . S
C547 C87 1.590 . S
C551 C285 1.591 . S
C565 C120 1.594 . S
C569 C318 1.592 . S
C583 C351 1.590 . S
C587 C153 1.591 . S
C601 C384 1.594 . S
C605 C186 1.590 . S
C619 C7 1.343 . S
C623 C304 1.347 . S
C637 C337 1.342 . S
C641 C40 1.337 . S
C655 C370 1.339 . S
C659 C73 1.349 . S
C673 C205 1.342 . S
C677 C106 1.348 . S
C691 C139 1.341 . S
C695 C238 1.349 . S
C709 C172 1.340 . S
C713 C271 1.339 . S
C727 N2 1.038 . S
C731 N13 1.038 . S
C745 N46 1.039 . S
C749 N35 1.038 . S
C763 N68 1.042 . S
C767 N79 1.042 . S
C781 N112 1.037 . S
C785 N101 1.037 . S
C799 N145 1.036 . S
C803 N134 1.035 . S
C817 N178 1.035 . S
C821 N167 1.035 . S
C835 N200 1.041 . S
C839 N211 1.041 . S
C853 N244 1.035 . S
C857 N233 1.035 . S
C871 N277 1.035 . S
C875 N266 1.034 . S
C889 N310 1.040 . S
C893 N299 1.040 . S
C907 N332 1.043 . S
C911 N343 1.043 . S
C925 N376 1.043 . S
C929 N365 1.043 . S
