# Generated by pormake.
# Topology wjh, (4)-cn, num edge types: 1
# Building blocks:
#     Node 0, Type 0, BuildingBlock: GALJAG_clean_sbu_0, # of connection points: 4
#     Node 1, Type 0, BuildingBlock: GALJAG_clean_sbu_0, # of connection points: 4
#     Node 2, Type 0, BuildingBlock: GALJAG_clean_sbu_0, # of connection points: 4
#     Node 3, Type 0, BuildingBlock: GALJAG_clean_sbu_0, # of connection points: 4
#     Node 4, Type 0, BuildingBlock: GALJAG_clean_sbu_0, # of connection points: 4
#     Node 5, Type 0, BuildingBlock: GALJAG_clean_sbu_0, # of connection points: 4
#     Node 6, Type 0, BuildingBlock: GALJAG_clean_sbu_0, # of connection points: 4
#     Node 7, Type 0, BuildingBlock: GALJAG_clean_sbu_0, # of connection points: 4
#     Node 8, Type 0, BuildingBlock: GALJAG_clean_sbu_0, # of connection points: 4
#     Node 9, Type 0, BuildingBlock: GALJAG_clean_sbu_0, # of connection points: 4
#     Node 10, Type 0, BuildingBlock: GALJAG_clean_sbu_0, # of connection points: 4
#     Node 11, Type 0, BuildingBlock: GALJAG_clean_sbu_0, # of connection points: 4
#     Edge 12, Type (0, 0), BuildingBlock: MIFKUJ_clean_linker_0, # of connection points: 2
#     Edge 13, Type (0, 0), BuildingBlock: MIFKUJ_clean_linker_0, # of connection points: 2
#     Edge 14, Type (0, 0), BuildingBlock: MIFKUJ_clean_linker_0, # of connection points: 2
#     Edge 15, Type (0, 0), BuildingBlock: MIFKUJ_clean_linker_0, # of connection points: 2
#     Edge 16, Type (0, 0), BuildingBlock: MIFKUJ_clean_linker_0, # of connection points: 2
#     Edge 17, Type (0, 0), BuildingBlock: MIFKUJ_clean_linker_0, # of connection points: 2
#     Edge 18, Type (0, 0), BuildingBlock: MIFKUJ_clean_linker_0, # of connection points: 2
#     Edge 19, Type (0, 0), BuildingBlock: MIFKUJ_clean_linker_0, # of connection points: 2
#     Edge 20, Type (0, 0), BuildingBlock: MIFKUJ_clean_linker_0, # of connection points: 2
#     Edge 21, Type (0, 0), BuildingBlock: MIFKUJ_clean_linker_0, # of connection points: 2
#     Edge 22, Type (0, 0), BuildingBlock: MIFKUJ_clean_linker_0, # of connection points: 2
#     Edge 23, Type (0, 0), BuildingBlock: MIFKUJ_clean_linker_0, # of connection points: 2
#     Edge 24, Type (0, 0), BuildingBlock: MIFKUJ_clean_linker_0, # of connection points: 2
#     Edge 25, Type (0, 0), BuildingBlock: MIFKUJ_clean_linker_0, # of connection points: 2
#     Edge 26, Type (0, 0), BuildingBlock: MIFKUJ_clean_linker_0, # of connection points: 2
#     Edge 27, Type (0, 0), BuildingBlock: MIFKUJ_clean_linker_0, # of connection points: 2
#     Edge 28, Type (0, 0), BuildingBlock: MIFKUJ_clean_linker_0, # of connection points: 2
#     Edge 29, Type (0, 0), BuildingBlock: MIFKUJ_clean_linker_0, # of connection points: 2
#     Edge 30, Type (0, 0), BuildingBlock: MIFKUJ_clean_linker_0, # of connection points: 2
#     Edge 31, Type (0, 0), BuildingBlock: MIFKUJ_clean_linker_0, # of connection points: 2
#     Edge 32, Type (0, 0), BuildingBlock: MIFKUJ_clean_linker_0, # of connection points: 2
#     Edge 33, Type (0, 0), BuildingBlock: MIFKUJ_clean_linker_0, # of connection points: 2
#     Edge 34, Type (0, 0), BuildingBlock: MIFKUJ_clean_linker_0, # of connection points: 2
#     Edge 35, Type (0, 0), BuildingBlock: MIFKUJ_clean_linker_0, # of connection points: 2
# Relax obj value: 0.053
# Max RMSD: 0.092
# Mean RMSD: 0.092
data_MOF--net-wjh--node1-GALJAG_clean_sbu_0--edge1-MIFKUJ_clean_linker_0
_symmetry_space_group_name_H-M    P1
_symmetry_Int_Tables_number       1
_symmetry_cell_setting            triclinic
loop_
_symmetry_equiv_pos_as_xyz
'x, y, z'
_cell_length_a     77.462454
_cell_length_b     77.487766
_cell_length_c     36.333523
_cell_angle_alpha  90.001872
_cell_angle_beta   89.984409
_cell_angle_gamma 119.97824
loop_
_atom_site_label
_atom_site_type_symbol
_atom_site_fract_x
_atom_site_fract_y
_atom_site_fract_z
_atom_type_partial_charge
In0 In 0.52451 0.1458 0.03412 0.0
O1 O 0.55178 0.15551 0.99722 0.0
O2 O 0.52385 0.14659 0.9717 0.0
C3 C 0.53971 0.14784 0.10189 0.0
C4 C 0.49753 0.10665 0.03155 0.0
C5 C 0.51756 0.17637 0.03784 0.0
O6 O 0.5485 0.14718 0.07309 0.0
O7 O 0.52351 0.14752 0.09634 0.0
O8 O 0.50363 0.1585 0.03554 0.0
O9 O 0.53492 0.17874 0.0374 0.0
C10 C 0.54219 0.15273 0.9676 0.0
O11 O 0.49246 0.11975 0.03391 0.0
O12 O 0.51607 0.11334 0.03028 0.0
In13 In 0.37407 0.51932 0.20596 0.0
O14 O 0.39021 0.54594 0.16725 0.0
O15 O 0.37234 0.51725 0.14349 0.0
C16 C 0.38616 0.53924 0.27049 0.0
C17 C 0.38958 0.49496 0.20746 0.0
C18 C 0.33502 0.50672 0.21187 0.0
O19 O 0.3955 0.54648 0.24081 0.0
O20 O 0.37086 0.52234 0.26731 0.0
O21 O 0.34253 0.49636 0.22223 0.0
O22 O 0.34714 0.52331 0.1976 0.0
C23 C 0.38378 0.53566 0.13826 0.0
O24 O 0.3714 0.48863 0.20099 0.0
O25 O 0.39984 0.51347 0.21266 0.0
In26 In 0.85065 0.37934 0.37926 0.0
O27 O 0.83719 0.3925 0.33977 0.0
O28 O 0.85526 0.38153 0.31745 0.0
C29 C 0.84533 0.39103 0.44623 0.0
C30 C 0.89046 0.39596 0.38073 0.0
C31 C 0.82346 0.3403 0.3807 0.0
O32 O 0.84418 0.39926 0.41701 0.0
O33 O 0.84897 0.37707 0.44137 0.0
O34 O 0.84192 0.34656 0.38273 0.0
O35 O 0.81887 0.35371 0.37713 0.0
C36 C 0.84486 0.38958 0.31143 0.0
O37 O 0.87898 0.37732 0.37937 0.0
O38 O 0.88181 0.40611 0.38114 0.0
In39 In 0.47326 0.85164 0.54457 0.0
O40 O 0.44728 0.84381 0.50528 0.0
O41 O 0.47508 0.85014 0.48235 0.0
C42 C 0.45657 0.8483 0.61118 0.0
C43 C 0.49906 0.89106 0.54337 0.0
C44 C 0.48087 0.8217 0.55313 0.0
O45 O 0.44725 0.84677 0.58168 0.0
O46 O 0.47411 0.85157 0.60685 0.0
O47 O 0.4946 0.83968 0.55125 0.0
O48 O 0.46345 0.81889 0.5492 0.0
C49 C 0.45727 0.84566 0.47658 0.0
O50 O 0.50477 0.87845 0.54031 0.0
O51 O 0.48051 0.88372 0.54679 0.0
In52 In 0.62235 0.47356 0.70959 0.0
O53 O 0.60541 0.44697 0.67102 0.0
O54 O 0.62488 0.47531 0.64739 0.0
C55 C 0.61134 0.45711 0.77691 0.0
C56 C 0.60588 0.49697 0.70921 0.0
C57 C 0.6608 0.48388 0.71537 0.0
O58 O 0.60315 0.44736 0.74798 0.0
O59 O 0.62472 0.47494 0.77165 0.0
O60 O 0.65528 0.49671 0.71379 0.0
O61 O 0.64696 0.46601 0.71246 0.0
C62 C 0.61265 0.4571 0.64209 0.0
O63 O 0.62447 0.50402 0.7069 0.0
O64 O 0.59577 0.47825 0.71157 0.0
In65 In 0.14434 0.61838 0.87452 0.0
O66 O 0.15152 0.5988 0.838 0.0
O67 O 0.15227 0.62415 0.81378 0.0
C68 C 0.14381 0.60443 0.94274 0.0
C69 C 0.10542 0.60523 0.86294 0.0
C70 C 0.17401 0.65553 0.888 0.0
O71 O 0.15002 0.59913 0.91519 0.0
O72 O 0.13754 0.61625 0.93553 0.0
O73 O 0.15648 0.65177 0.88107 0.0
O74 O 0.17658 0.64069 0.88658 0.0
C75 C 0.15422 0.60907 0.80933 0.0
O76 O 0.11809 0.62357 0.86522 0.0
O77 O 0.11246 0.59374 0.86633 0.0
In78 In 0.85433 0.47786 0.88016 0.0
O79 O 0.88205 0.50873 0.88162 0.0
O80 O 0.88584 0.48361 0.87342 0.0
C81 C 0.82644 0.48877 0.87904 0.0
C82 C 0.84864 0.46091 0.9472 0.0
C83 C 0.84818 0.46072 0.81318 0.0
O84 O 0.8448 0.50128 0.87611 0.0
O85 O 0.82236 0.471 0.8838 0.0
O86 O 0.84957 0.45228 0.84188 0.0
O87 O 0.8498 0.47753 0.8185 0.0
C88 C 0.89395 0.50229 0.87621 0.0
O89 O 0.84122 0.45077 0.91836 0.0
O90 O 0.85894 0.47945 0.9421 0.0
In91 In 0.3771 0.85626 0.04504 0.0
O92 O 0.37252 0.88308 0.05133 0.0
O93 O 0.40192 0.88835 0.04257 0.0
C94 C 0.33944 0.82615 0.03878 0.0
C95 C 0.38863 0.8506 0.11185 0.0
C96 C 0.38893 0.85262 0.97711 0.0
O97 O 0.34368 0.84415 0.03937 0.0
O98 O 0.35413 0.82346 0.04245 0.0
O99 O 0.39551 0.8486 0.00578 0.0
O100 O 0.37664 0.85847 0.98297 0.0
C101 C 0.39076 0.89569 0.04716 0.0
O102 O 0.3975 0.85067 0.08261 0.0
O103 O 0.37396 0.85321 0.10724 0.0
In104 In 0.52463 0.37902 0.2103 0.0
O105 O 0.49307 0.37385 0.21753 0.0
O106 O 0.51712 0.40367 0.21409 0.0
C107 C 0.51716 0.34187 0.1974 0.0
C108 C 0.54213 0.38832 0.27698 0.0
C109 C 0.54075 0.39295 0.14358 0.0
O110 O 0.50333 0.3459 0.20104 0.0
O111 O 0.53453 0.35639 0.20204 0.0
O112 O 0.55106 0.39846 0.17267 0.0
O113 O 0.52245 0.38095 0.14844 0.0
C114 C 0.49861 0.39219 0.21757 0.0
O115 O 0.55025 0.39873 0.24872 0.0
O116 O 0.52534 0.37308 0.27146 0.0
In117 In 0.14368 0.52251 0.37677 0.0
O118 O 0.11499 0.49275 0.38446 0.0
O119 O 0.11262 0.51854 0.37502 0.0
C120 C 0.16937 0.50929 0.36631 0.0
C121 C 0.15268 0.53866 0.44466 0.0
C122 C 0.14938 0.54087 0.31109 0.0
O123 O 0.15083 0.49833 0.36165 0.0
O124 O 0.17485 0.52671 0.37754 0.0
O125 O 0.1504 0.54968 0.34099 0.0
O126 O 0.14551 0.52313 0.31461 0.0
C127 C 0.10372 0.50003 0.38066 0.0
O128 O 0.15594 0.54914 0.41606 0.0
O129 O 0.1452 0.52024 0.43881 0.0
In130 In 0.6193 0.14197 0.5368 0.0
O131 O 0.60059 0.1492 0.57565 0.0
O132 O 0.62677 0.1505 0.59703 0.0
C133 C 0.60349 0.14099 0.47021 0.0
C134 C 0.60591 0.10296 0.547 0.0
C135 C 0.65632 0.17101 0.52039 0.0
O136 O 0.5998 0.14841 0.49806 0.0
O137 O 0.61474 0.13391 0.47633 0.0
O138 O 0.6526 0.15373 0.5294 0.0
O139 O 0.64153 0.17368 0.52115 0.0
C140 C 0.61172 0.15231 0.60319 0.0
O141 O 0.6242 0.11535 0.54253 0.0
O142 O 0.59466 0.11037 0.54698 0.0
In143 In 0.47111 0.61483 0.70594 0.0
O144 O 0.50197 0.61808 0.71093 0.0
O145 O 0.47676 0.58887 0.70802 0.0
C146 C 0.48012 0.6529 0.69929 0.0
C147 C 0.45394 0.60489 0.77292 0.0
C148 C 0.45609 0.60318 0.63771 0.0
O149 O 0.49343 0.64804 0.70103 0.0
O150 O 0.46245 0.63861 0.70188 0.0
O151 O 0.44514 0.59715 0.66602 0.0
O152 O 0.47434 0.6147 0.64411 0.0
C153 C 0.49545 0.59954 0.71043 0.0
O154 O 0.44475 0.59591 0.74402 0.0
O155 O 0.47155 0.61884 0.7678 0.0
H156 H 0.56907 0.1401 0.12305 0.0
H157 H 0.58009 0.13935 0.18609 0.0
H158 H 0.53861 0.15634 0.22803 0.0
H159 H 0.52739 0.15688 0.16534 0.0
H160 H 0.57727 0.17748 0.26003 0.0
H161 H 0.52574 0.11013 0.23368 0.0
H162 H 0.5096 0.07903 0.19759 0.0
H163 H 0.56089 0.07224 0.21228 0.0
H164 H 0.57747 0.10349 0.24801 0.0
H165 H 0.57848 0.15465 0.4491 0.0
H166 H 0.56753 0.15608 0.38644 0.0
H167 H 0.60138 0.12989 0.34456 0.0
H168 H 0.61194 0.128 0.40694 0.0
H169 H 0.56651 0.11362 0.31205 0.0
H170 H 0.61848 0.18023 0.33752 0.0
H171 H 0.63586 0.21168 0.37241 0.0
H172 H 0.5858 0.22054 0.35811 0.0
H173 H 0.568 0.18898 0.32355 0.0
C174 C 0.56242 0.1438 0.14573 0.0
C175 C 0.54733 0.14846 0.13938 0.0
C176 C 0.56867 0.14332 0.18164 0.0
C177 C 0.56005 0.14769 0.21163 0.0
C178 C 0.54542 0.15293 0.20523 0.0
C179 C 0.53899 0.15315 0.16944 0.0
C180 C 0.56585 0.14626 0.24983 0.0
C181 C 0.57474 0.1635 0.27163 0.0
C182 C 0.56291 0.12809 0.2645 0.0
C183 C 0.55293 0.10926 0.24316 0.0
C184 C 0.53365 0.1021 0.22893 0.0
C185 C 0.52441 0.08443 0.20859 0.0
C186 C 0.53424 0.07369 0.20255 0.0
C187 C 0.55331 0.08059 0.21693 0.0
C188 C 0.56263 0.09827 0.23724 0.0
C189 C 0.58348 0.14912 0.42651 0.0
C190 C 0.5961 0.14127 0.43288 0.0
C191 C 0.57731 0.15004 0.39073 0.0
C192 C 0.58386 0.14334 0.36073 0.0
C193 C 0.59615 0.13516 0.36723 0.0
C194 C 0.60221 0.13413 0.40292 0.0
C195 C 0.57804 0.14489 0.32248 0.0
C196 C 0.5691 0.12765 0.30059 0.0
C197 C 0.58115 0.16312 0.30761 0.0
C198 C 0.59183 0.18213 0.32828 0.0
C199 C 0.61111 0.1888 0.34206 0.0
C200 C 0.62105 0.20666 0.36174 0.0
C201 C 0.61191 0.21807 0.36756 0.0
C202 C 0.59284 0.21167 0.35363 0.0
C203 C 0.58283 0.1938 0.33398 0.0
H204 H 0.61963 0.2319 0.38279 0.0
H205 H 0.52705 0.06001 0.18682 0.0
H206 H 0.36517 0.52916 0.33439 0.0
H207 H 0.37718 0.54282 0.39568 0.0
H208 H 0.43463 0.58452 0.35015 0.0
H209 H 0.42262 0.57091 0.28841 0.0
H210 H 0.43671 0.5631 0.40976 0.0
H211 H 0.40578 0.60157 0.38059 0.0
H212 H 0.37869 0.60715 0.35965 0.0
H213 H 0.3416 0.5711 0.44843 0.0
H214 H 0.36838 0.56506 0.46962 0.0
H215 H 0.47717 0.61646 0.57414 0.0
H216 H 0.46498 0.60744 0.51126 0.0
H217 H 0.40565 0.56815 0.55222 0.0
H218 H 0.41776 0.57746 0.61559 0.0
H219 H 0.405 0.58954 0.49402 0.0
H220 H 0.43455 0.54959 0.5217 0.0
H221 H 0.46092 0.54294 0.54282 0.0
H222 H 0.49966 0.58034 0.45698 0.0
H223 H 0.4736 0.58745 0.43565 0.0
C224 C 0.38029 0.54141 0.33733 0.0
C225 C 0.39299 0.54896 0.30667 0.0
C226 C 0.3871 0.54924 0.37235 0.0
C227 C 0.40676 0.56473 0.3774 0.0
C228 C 0.41939 0.57259 0.34675 0.0
C229 C 0.4125 0.56487 0.31155 0.0
C230 C 0.41437 0.57173 0.41506 0.0
C231 C 0.43004 0.56924 0.42799 0.0
C232 C 0.40518 0.57909 0.43912 0.0
C233 C 0.38904 0.58272 0.4265 0.0
C234 C 0.39179 0.59469 0.39547 0.0
C235 C 0.3765 0.59796 0.38359 0.0
C236 C 0.35842 0.58945 0.40265 0.0
C237 C 0.35561 0.57767 0.43368 0.0
C238 C 0.37085 0.57434 0.44566 0.0
C239 C 0.46152 0.60588 0.56983 0.0
C240 C 0.44843 0.59754 0.5998 0.0
C241 C 0.45459 0.6007 0.53384 0.0
C242 C 0.43447 0.58691 0.52705 0.0
C243 C 0.42126 0.57879 0.55688 0.0
C244 C 0.42819 0.58404 0.59302 0.0
C245 C 0.42736 0.58092 0.48874 0.0
C246 C 0.41175 0.58352 0.47573 0.0
C247 C 0.43651 0.5735 0.46463 0.0
C248 C 0.45219 0.56921 0.47731 0.0
C249 C 0.44875 0.55653 0.50751 0.0
C250 C 0.46363 0.55265 0.51949 0.0
C251 C 0.48197 0.56125 0.50131 0.0
C252 C 0.48545 0.57371 0.47106 0.0
C253 C 0.47063 0.57766 0.45899 0.0
H254 H 0.49347 0.55823 0.51063 0.0
H255 H 0.3466 0.592 0.39341 0.0
H256 H 0.84152 0.47505 0.74966 0.0
H257 H 0.83895 0.46213 0.68739 0.0
H258 H 0.84636 0.41425 0.72993 0.0
H259 H 0.84908 0.42721 0.79254 0.0
H260 H 0.87073 0.43302 0.6711 0.0
H261 H 0.80134 0.40498 0.70046 0.0
H262 H 0.77161 0.40595 0.72179 0.0
H263 H 0.77854 0.44586 0.63369 0.0
H264 H 0.80847 0.44533 0.6121 0.0
H265 H 0.84702 0.37474 0.51134 0.0
H266 H 0.84566 0.38615 0.57324 0.0
H267 H 0.83802 0.43334 0.52779 0.0
H268 H 0.83919 0.42182 0.46533 0.0
H269 H 0.81357 0.41537 0.58759 0.0
H270 H 0.88262 0.44395 0.55824 0.0
H271 H 0.91292 0.44413 0.53685 0.0
H272 H 0.90739 0.40469 0.62485 0.0
H273 H 0.87686 0.40403 0.64645 0.0
C274 C 0.84248 0.46169 0.74582 0.0
C275 C 0.84553 0.45213 0.77594 0.0
C276 C 0.84092 0.45428 0.71023 0.0
C277 C 0.84232 0.43715 0.70408 0.0
C278 C 0.84521 0.42748 0.73414 0.0
C279 C 0.84669 0.43484 0.76985 0.0
C280 C 0.84159 0.42986 0.66609 0.0
C281 C 0.8581 0.42884 0.65303 0.0
C282 C 0.82538 0.42509 0.64218 0.0
C283 C 0.80725 0.42526 0.65486 0.0
C284 C 0.79661 0.41408 0.68578 0.0
C285 C 0.7797 0.41453 0.6979 0.0
C286 C 0.77322 0.426 0.67916 0.0
C287 C 0.78359 0.43699 0.6482 0.0
C288 C 0.80051 0.4366 0.63598 0.0
C289 C 0.84495 0.3875 0.51443 0.0
C290 C 0.84336 0.39749 0.48348 0.0
C291 C 0.84422 0.39402 0.54985 0.0
C292 C 0.84203 0.41075 0.55508 0.0
C293 C 0.83979 0.42042 0.52429 0.0
C294 C 0.84051 0.41387 0.48869 0.0
C295 C 0.84263 0.41834 0.59278 0.0
C296 C 0.82617 0.41949 0.60572 0.0
C297 C 0.85894 0.42338 0.61658 0.0
C298 C 0.87734 0.42378 0.60374 0.0
C299 C 0.88777 0.43518 0.57285 0.0
C300 C 0.905 0.43539 0.56072 0.0
C301 C 0.91205 0.42439 0.57942 0.0
C302 C 0.9019 0.41318 0.61036 0.0
C303 C 0.88464 0.41289 0.62257 0.0
H304 H 0.9254 0.42458 0.56999 0.0
H305 H 0.76014 0.42634 0.6886 0.0
H306 H 0.42298 0.84962 0.62952 0.0
H307 H 0.41005 0.84869 0.69164 0.0
H308 H 0.45776 0.84221 0.73795 0.0
H309 H 0.47086 0.84335 0.67621 0.0
H310 H 0.41983 0.81642 0.76946 0.0
H311 H 0.46268 0.88588 0.73988 0.0
H312 H 0.47434 0.91602 0.70178 0.0
H313 H 0.41729 0.91212 0.71264 0.0
H314 H 0.4052 0.88175 0.75037 0.0
H315 H 0.41677 0.84254 0.95638 0.0
H316 H 0.42693 0.84013 0.89356 0.0
H317 H 0.38461 0.85568 0.85027 0.0
H318 H 0.37473 0.85849 0.91275 0.0
H319 H 0.41892 0.87613 0.81621 0.0
H320 H 0.37592 0.8076 0.84703 0.0
H321 H 0.3634 0.77699 0.88406 0.0
H322 H 0.41907 0.77827 0.87 0.0
H323 H 0.43204 0.80907 0.8333 0.0
C324 C 0.43061 0.84787 0.65296 0.0
C325 C 0.44797 0.84668 0.64812 0.0
C326 C 0.42325 0.84737 0.68835 0.0
C327 C 0.43304 0.84548 0.7193 0.0
C328 C 0.45 0.84366 0.7144 0.0
C329 C 0.4575 0.84441 0.67914 0.0
C330 C 0.42611 0.84616 0.75694 0.0
C331 C 0.41978 0.82952 0.7799 0.0
C332 C 0.42569 0.86311 0.77011 0.0
C333 C 0.43297 0.88142 0.74759 0.0
C334 C 0.45257 0.89135 0.73387 0.0
C335 C 0.45927 0.90849 0.71239 0.0
C336 C 0.44655 0.91595 0.7047 0.0
C337 C 0.42712 0.90631 0.71856 0.0
C338 C 0.42033 0.88913 0.74001 0.0
C339 C 0.40963 0.84539 0.93343 0.0
C340 C 0.39498 0.85071 0.93945 0.0
C341 C 0.41536 0.84392 0.89756 0.0
C342 C 0.40639 0.84754 0.86717 0.0
C343 C 0.39175 0.85283 0.87325 0.0
C344 C 0.38609 0.85439 0.909 0.0
C345 C 0.41255 0.84634 0.829 0.0
C346 C 0.41882 0.86295 0.80588 0.0
C347 C 0.41276 0.82928 0.81564 0.0
C348 C 0.40502 0.81077 0.83773 0.0
C349 C 0.38556 0.80146 0.8521 0.0
C350 C 0.37837 0.78405 0.87298 0.0
C351 C 0.39045 0.77572 0.87947 0.0
C352 C 0.40974 0.78476 0.86501 0.0
C353 C 0.41701 0.80218 0.84414 0.0
H354 H 0.38485 0.76224 0.89563 0.0
H355 H 0.45176 0.92923 0.68808 0.0
H356 H 0.52237 0.37795 0.07811 0.0
H357 H 0.5365 0.38777 0.01643 0.0
H358 H 0.59259 0.43186 0.0632 0.0
H359 H 0.57854 0.42198 0.12529 0.0
H360 H 0.57889 0.44621 0.00593 0.0
H361 H 0.58935 0.39125 0.02948 0.0
H362 H 0.57965 0.35689 0.04744 0.0
H363 H 0.53822 0.33405 0.95754 0.0
H364 H 0.54742 0.36828 0.93938 0.0
H365 H 0.63214 0.47252 0.84005 0.0
H366 H 0.62196 0.46022 0.90267 0.0
H367 H 0.56739 0.41084 0.86111 0.0
H368 H 0.57786 0.4228 0.79801 0.0
H369 H 0.58159 0.39904 0.91686 0.0
H370 H 0.56845 0.45249 0.89572 0.0
H371 H 0.57652 0.48635 0.87737 0.0
H372 H 0.62086 0.5113 0.96235 0.0
H373 H 0.61324 0.47757 0.98089 0.0
C374 C 0.53772 0.38974 0.0753 0.0
C375 C 0.54937 0.39925 0.10647 0.0
C376 C 0.54579 0.39523 0.04006 0.0
C377 C 0.56563 0.41038 0.03535 0.0
C378 C 0.57727 0.42006 0.06637 0.0
C379 C 0.56924 0.41442 0.10174 0.0
C380 C 0.5739 0.41654 0.99786 0.0
C381 C 0.57984 0.43602 0.98663 0.0
C382 C 0.57449 0.40298 0.97248 0.0
C383 C 0.56895 0.38236 0.98328 0.0
C384 C 0.57804 0.37891 0.01373 0.0
C385 C 0.57265 0.35945 0.02391 0.0
C386 C 0.55829 0.34329 0.0037 0.0
C387 C 0.54932 0.34658 0.9732 0.0
C388 C 0.55463 0.36601 0.96294 0.0
C389 C 0.61802 0.45896 0.84422 0.0
C390 C 0.60564 0.44873 0.81427 0.0
C391 C 0.61222 0.45197 0.88002 0.0
C392 C 0.59372 0.43486 0.88663 0.0
C393 C 0.58169 0.42414 0.85663 0.0
C394 C 0.58763 0.431 0.82066 0.0
C395 C 0.5866 0.42875 0.92489 0.0
C396 C 0.5808 0.40927 0.93623 0.0
C397 C 0.58589 0.44222 0.95035 0.0
C398 C 0.59041 0.46252 0.93945 0.0
C399 C 0.58002 0.4652 0.91032 0.0
C400 C 0.5845 0.48437 0.89991 0.0
C401 C 0.59923 0.50097 0.91862 0.0
C402 C 0.60947 0.49843 0.94785 0.0
C403 C 0.60507 0.47929 0.95834 0.0
H404 H 0.60268 0.5158 0.91052 0.0
H405 H 0.55415 0.32824 0.01162 0.0
H406 H 0.14798 0.5745 0.29318 0.0
H407 H 0.14894 0.58753 0.2311 0.0
H408 H 0.15714 0.54086 0.18475 0.0
H409 H 0.15604 0.52774 0.24637 0.0
H410 H 0.18153 0.57836 0.15225 0.0
H411 H 0.11238 0.53471 0.18522 0.0
H412 H 0.08275 0.52339 0.22471 0.0
H413 H 0.0857 0.57986 0.21128 0.0
H414 H 0.11555 0.59163 0.17212 0.0
H415 H 0.15413 0.57715 0.96584 0.0
H416 H 0.15655 0.56802 0.0294 0.0
H417 H 0.13862 0.60925 0.06896 0.0
H418 H 0.13561 0.61794 0.00567 0.0
H419 H 0.12023 0.57641 0.10647 0.0
H420 H 0.18796 0.62008 0.07157 0.0
H421 H 0.21809 0.6325 0.03309 0.0
H422 H 0.21886 0.57812 0.05112 0.0
H423 H 0.18856 0.56526 0.08931 0.0
C424 C 0.15021 0.5672 0.26974 0.0
C425 C 0.15177 0.55004 0.27449 0.0
C426 C 0.15071 0.5746 0.23437 0.0
C427 C 0.15296 0.56504 0.2034 0.0
C428 C 0.15538 0.54844 0.2083 0.0
C429 C 0.15465 0.54092 0.24349 0.0
C430 C 0.15172 0.57155 0.16568 0.0
C431 C 0.16811 0.57783 0.14206 0.0
C432 C 0.13434 0.57124 0.1528 0.0
C433 C 0.11632 0.56412 0.1761 0.0
C434 C 0.10681 0.54477 0.19094 0.0
C435 C 0.08996 0.53826 0.21322 0.0
C436 C 0.08238 0.55092 0.22059 0.0
C437 C 0.09161 0.57009 0.2056 0.0
C438 C 0.10848 0.57668 0.18336 0.0
C439 C 0.15063 0.58418 0.98812 0.0
C440 C 0.14471 0.59826 0.98082 0.0
C441 C 0.15215 0.57907 0.02443 0.0
C442 C 0.14807 0.58819 0.05402 0.0
C443 C 0.14188 0.60203 0.04664 0.0
C444 C 0.14018 0.607 0.01043 0.0
C445 C 0.15006 0.58321 0.0927 0.0
C446 C 0.13377 0.57715 0.11656 0.0
C447 C 0.16762 0.58393 0.10588 0.0
C448 C 0.18588 0.59163 0.08302 0.0
C449 C 0.19447 0.61071 0.0671 0.0
C450 C 0.21159 0.61784 0.04538 0.0
C451 C 0.22036 0.60608 0.03959 0.0
C452 C 0.21204 0.5872 0.05559 0.0
C453 C 0.19491 0.57999 0.07731 0.0
H454 H 0.23361 0.61163 0.02277 0.0
H455 H 0.06934 0.54585 0.23784 0.0
H456 H 0.48144 0.30862 0.18165 0.0
H457 H 0.47645 0.27849 0.14991 0.0
H458 H 0.53998 0.30177 0.14931 0.0
H459 H 0.54509 0.33169 0.18105 0.0
H460 H 0.52162 0.28991 0.07953 0.0
H461 H 0.51238 0.26545 0.2056 0.0
H462 H 0.4959 0.25727 0.26627 0.0
H463 H 0.43984 0.21753 0.21507 0.0
H464 H 0.45597 0.22569 0.154 0.0
H465 H 0.54529 0.21553 0.0454 0.0
H466 H 0.53976 0.24237 0.06542 0.0
H467 H 0.47622 0.20192 0.06564 0.0
H468 H 0.48172 0.17477 0.04616 0.0
H469 H 0.48762 0.22098 0.1287 0.0
H470 H 0.49775 0.24048 0.00399 0.0
H471 H 0.51336 0.24873 0.94261 0.0
H472 H 0.56613 0.29792 0.98837 0.0
H473 H 0.55103 0.28975 0.05017 0.0
C474 C 0.49429 0.30711 0.17534 0.0
C475 C 0.51365 0.32249 0.18369 0.0
C476 C 0.49141 0.28996 0.15716 0.0
C477 C 0.50788 0.28808 0.14708 0.0
C478 C 0.52713 0.30308 0.15667 0.0
C479 C 0.52999 0.32009 0.175 0.0
C480 C 0.5054 0.27098 0.1251 0.0
C481 C 0.5143 0.27481 0.09021 0.0
C482 C 0.49498 0.25126 0.13853 0.0
C483 C 0.48532 0.24638 0.17522 0.0
C484 C 0.4965 0.25512 0.20725 0.0
C485 C 0.48723 0.25045 0.24172 0.0
C486 C 0.46682 0.23694 0.24451 0.0
C487 C 0.45564 0.22802 0.21285 0.0
C488 C 0.46484 0.23266 0.17832 0.0
C489 C 0.53011 0.21242 0.04903 0.0
C490 C 0.51393 0.19305 0.04443 0.0
C491 C 0.52696 0.22781 0.06026 0.0
C492 C 0.50756 0.22419 0.06675 0.0
C493 C 0.4913 0.20503 0.0607 0.0
C494 C 0.49446 0.18957 0.0495 0.0
C495 C 0.50464 0.23997 0.08352 0.0
C496 C 0.49464 0.23595 0.11744 0.0
C497 C 0.51394 0.25953 0.06901 0.0
C498 C 0.52326 0.26438 0.03187 0.0
C499 C 0.51276 0.25293 0.00108 0.0
C500 C 0.52152 0.25762 0.96617 0.0
C501 C 0.54074 0.27381 0.9616 0.0
C502 C 0.55125 0.28536 0.99195 0.0
C503 C 0.54259 0.28071 0.02694 0.0
H504 H 0.54748 0.27744 0.93454 0.0
H505 H 0.45967 0.23334 0.27122 0.0
H506 H 0.31221 0.48302 0.26748 0.0
H507 H 0.28036 0.47845 0.28857 0.0
H508 H 0.27891 0.51262 0.19584 0.0
H509 H 0.31163 0.51842 0.17626 0.0
H510 H 0.27111 0.52597 0.25054 0.0
H511 H 0.24462 0.45979 0.20897 0.0
H512 H 0.24182 0.42692 0.20044 0.0
H513 H 0.23334 0.41601 0.31671 0.0
H514 H 0.23636 0.44893 0.32603 0.0
H515 H 0.1626 0.47879 0.32031 0.0
H516 H 0.18779 0.47349 0.29011 0.0
H517 H 0.23367 0.52077 0.35517 0.0
H518 H 0.20864 0.52667 0.38427 0.0
H519 H 0.21547 0.46462 0.30505 0.0
H520 H 0.27294 0.5498 0.30373 0.0
H521 H 0.27268 0.58151 0.30364 0.0
H522 H 0.21412 0.55217 0.25598 0.0
H523 H 0.21417 0.52037 0.25523 0.0
C524 C 0.30488 0.48921 0.25121 0.0
C525 C 0.31432 0.50112 0.22036 0.0
C526 C 0.28656 0.48646 0.26313 0.0
C527 C 0.27701 0.495 0.24365 0.0
C528 C 0.28598 0.50596 0.2115 0.0
C529 C 0.30461 0.50921 0.20021 0.0
C530 C 0.25897 0.49442 0.25916 0.0
C531 C 0.2589 0.51245 0.26207 0.0
C532 C 0.24272 0.47678 0.27363 0.0
C533 C 0.24084 0.45691 0.26821 0.0
C534 C 0.24229 0.45044 0.23276 0.0
C535 C 0.24064 0.43179 0.22778 0.0
C536 C 0.23744 0.4194 0.25802 0.0
C537 C 0.23582 0.42563 0.2933 0.0
C538 C 0.23747 0.44427 0.29845 0.0
C539 C 0.17802 0.48778 0.32867 0.0
C540 C 0.18377 0.50334 0.35419 0.0
C541 C 0.19239 0.48473 0.3114 0.0
C542 C 0.21264 0.49708 0.31971 0.0
C543 C 0.21816 0.51142 0.34765 0.0
C544 C 0.20387 0.51472 0.3644 0.0
C545 C 0.22813 0.49621 0.2972 0.0
C546 C 0.22766 0.47798 0.29304 0.0
C547 C 0.24347 0.51348 0.28006 0.0
C548 C 0.24351 0.53267 0.27974 0.0
C549 C 0.26006 0.55014 0.29304 0.0
C550 C 0.25994 0.56813 0.29317 0.0
C551 C 0.24337 0.56884 0.27991 0.0
C552 C 0.22692 0.55159 0.26634 0.0
C553 C 0.22699 0.53358 0.26608 0.0
H554 H 0.2433 0.58277 0.28009 0.0
H555 H 0.23617 0.40497 0.2541 0.0
H556 H 0.69096 0.16963 0.51689 0.0
H557 H 0.72246 0.19425 0.48803 0.0
H558 H 0.69689 0.23115 0.46264 0.0
H559 H 0.66565 0.20689 0.49146 0.0
H560 H 0.71546 0.22396 0.40215 0.0
H561 H 0.72791 0.2435 0.53168 0.0
H562 H 0.73134 0.23748 0.59722 0.0
H563 H 0.77731 0.22405 0.57008 0.0
H564 H 0.77396 0.22975 0.50426 0.0
H565 H 0.78335 0.32398 0.37562 0.0
H566 H 0.75793 0.29034 0.39246 0.0
H567 H 0.8035 0.27517 0.41453 0.0
H568 H 0.82921 0.30918 0.39816 0.0
H569 H 0.77837 0.26509 0.47077 0.0
H570 H 0.77111 0.25294 0.34297 0.0
H571 H 0.7681 0.25915 0.2774 0.0
H572 H 0.71299 0.25782 0.2994 0.0
H573 H 0.71579 0.2519 0.36521 0.0
C574 C 0.69218 0.18311 0.50549 0.0
C575 C 0.67589 0.18638 0.50641 0.0
C576 C 0.71012 0.19708 0.48898 0.0
C577 C 0.71186 0.21438 0.47304 0.0
C578 C 0.69573 0.21778 0.47456 0.0
C579 C 0.67795 0.20398 0.49126 0.0
C580 C 0.73034 0.22911 0.45439 0.0
C581 C 0.72927 0.23298 0.41701 0.0
C582 C 0.74851 0.24019 0.47354 0.0
C583 C 0.75049 0.23677 0.51305 0.0
C584 C 0.73861 0.23907 0.53966 0.0
C585 C 0.74057 0.23576 0.57686 0.0
C586 C 0.75448 0.23031 0.5878 0.0
C587 C 0.76651 0.22822 0.56156 0.0
C588 C 0.76459 0.23149 0.52431 0.0
C589 C 0.78798 0.3134 0.3834 0.0
C590 C 0.80824 0.3192 0.38573 0.0
C591 C 0.77342 0.29411 0.3928 0.0
C592 C 0.77881 0.28017 0.40439 0.0
C593 C 0.79904 0.28569 0.40549 0.0
C594 C 0.81368 0.30507 0.39605 0.0
C595 C 0.76326 0.26065 0.41878 0.0
C596 C 0.76483 0.25576 0.45539 0.0
C597 C 0.74557 0.24853 0.3988 0.0
C598 C 0.74371 0.25203 0.35914 0.0
C599 C 0.75841 0.25409 0.3339 0.0
C600 C 0.75673 0.25755 0.29666 0.0
C601 C 0.74037 0.25889 0.28425 0.0
C602 C 0.72564 0.25676 0.30905 0.0
C603 C 0.72725 0.25331 0.34632 0.0
H604 H 0.7391 0.26158 0.2554 0.0
H605 H 0.75598 0.22776 0.61661 0.0
H606 H 0.51682 0.82366 0.56331 0.0
H607 H 0.52245 0.79788 0.59058 0.0
H608 H 0.45895 0.758 0.59631 0.0
H609 H 0.4532 0.78342 0.56884 0.0
H610 H 0.48037 0.76462 0.66457 0.0
H611 H 0.48331 0.74901 0.53541 0.0
H612 H 0.49722 0.75709 0.47262 0.0
H613 H 0.55477 0.7715 0.51426 0.0
H614 H 0.54124 0.76376 0.57741 0.0
H615 H 0.45369 0.66609 0.69463 0.0
H616 H 0.46013 0.6987 0.67441 0.0
H617 H 0.52293 0.71872 0.66566 0.0
H618 H 0.51648 0.68572 0.68538 0.0
H619 H 0.50982 0.72768 0.60498 0.0
H620 H 0.50635 0.73807 0.73206 0.0
H621 H 0.49349 0.73061 0.79558 0.0
H622 H 0.43918 0.72775 0.76061 0.0
H623 H 0.45157 0.7349 0.69676 0.0
C624 C 0.5041 0.80925 0.56977 0.0
C625 C 0.48457 0.80554 0.56412 0.0
C626 C 0.50734 0.79461 0.58536 0.0
C627 C 0.49109 0.77619 0.59566 0.0
C628 C 0.47165 0.77222 0.58871 0.0
C629 C 0.4684 0.78671 0.57284 0.0
C630 C 0.49403 0.76128 0.61555 0.0
C631 C 0.48675 0.75645 0.65162 0.0
C632 C 0.50324 0.75143 0.59909 0.0
C633 C 0.51133 0.75608 0.56116 0.0
C634 C 0.49898 0.7541 0.53122 0.0
C635 C 0.50678 0.75857 0.49556 0.0
C636 C 0.52688 0.76488 0.48947 0.0
C637 C 0.53921 0.76667 0.51902 0.0
C638 C 0.53149 0.76223 0.55475 0.0
C639 C 0.46893 0.6775 0.68897 0.0
C640 C 0.48458 0.67338 0.69152 0.0
C641 C 0.47261 0.69619 0.6776 0.0
C642 C 0.49205 0.71122 0.66893 0.0
C643 C 0.50784 0.70734 0.67237 0.0
C644 C 0.50414 0.68854 0.68375 0.0
C645 C 0.4953 0.73032 0.6536 0.0
C646 C 0.50384 0.73607 0.61843 0.0
C647 C 0.48746 0.74122 0.67109 0.0
C648 C 0.47988 0.73694 0.70952 0.0
C649 C 0.49161 0.73572 0.73784 0.0
C650 C 0.48441 0.73156 0.77393 0.0
C651 C 0.46553 0.72869 0.78212 0.0
C652 C 0.45381 0.72999 0.75423 0.0
C653 C 0.46093 0.73413 0.71809 0.0
H654 H 0.45998 0.72547 0.81008 0.0
H655 H 0.53289 0.76832 0.46184 0.0
H656 H 0.67408 0.45827 0.731 0.0
H657 H 0.70558 0.46632 0.76023 0.0
H658 H 0.72512 0.52897 0.75313 0.0
H659 H 0.69331 0.52105 0.7243 0.0
H660 H 0.7546 0.51125 0.73575 0.0
H661 H 0.71173 0.51782 0.82632 0.0
H662 H 0.67892 0.50596 0.85542 0.0
H663 H 0.67659 0.45128 0.88573 0.0
H664 H 0.70921 0.46266 0.85616 0.0
H665 H 0.83124 0.52476 0.8578 0.0
H666 H 0.80532 0.53098 0.83367 0.0
H667 H 0.76072 0.47027 0.8583 0.0
H668 H 0.78638 0.46409 0.88295 0.0
H669 H 0.74596 0.49433 0.86884 0.0
H670 H 0.7826 0.48247 0.77431 0.0
H671 H 0.81284 0.48884 0.7405 0.0
H672 H 0.82491 0.54786 0.71393 0.0
H673 H 0.79482 0.54189 0.74802 0.0
C674 C 0.68522 0.47379 0.73485 0.0
C675 C 0.68119 0.48904 0.72573 0.0
C676 C 0.70317 0.47833 0.75156 0.0
C677 C 0.71743 0.49818 0.75902 0.0
C678 C 0.71417 0.51357 0.74751 0.0
C679 C 0.69604 0.50902 0.73113 0.0
C680 C 0.73469 0.50235 0.78209 0.0
C681 C 0.753 0.50817 0.76507 0.0
C682 C 0.73218 0.49766 0.82 0.0
C683 C 0.71285 0.49105 0.83881 0.0
C684 C 0.70415 0.50321 0.83897 0.0
C685 C 0.6856 0.49658 0.85557 0.0
C686 C 0.67566 0.47787 0.87237 0.0
C687 C 0.6843 0.46577 0.8727 0.0
C688 C 0.70283 0.47231 0.85606 0.0
C689 C 0.81584 0.51292 0.85894 0.0
C690 C 0.81082 0.49387 0.87176 0.0
C691 C 0.80108 0.51647 0.84502 0.0
C692 C 0.78118 0.50097 0.84357 0.0
C693 C 0.77599 0.48242 0.85907 0.0
C694 C 0.79069 0.47889 0.87304 0.0
C695 C 0.76603 0.50315 0.82257 0.0
C696 C 0.74795 0.49825 0.83987 0.0
C697 C 0.76861 0.50824 0.78469 0.0
C698 C 0.78664 0.51184 0.7641 0.0
C699 C 0.79179 0.49686 0.76149 0.0
C700 C 0.80888 0.50038 0.74225 0.0
C701 C 0.82083 0.51877 0.72519 0.0
C702 C 0.81567 0.53364 0.72724 0.0
C703 C 0.7986 0.5302 0.74651 0.0
H704 H 0.83406 0.52148 0.7103 0.0
H705 H 0.6613 0.47276 0.88519 0.0
H706 H 0.17233 0.68986 0.89519 0.0
H707 H 0.19742 0.72112 0.92393 0.0
H708 H 0.23589 0.69636 0.93968 0.0
H709 H 0.21112 0.6653 0.91099 0.0
H710 H 0.22946 0.71265 0.00374 0.0
H711 H 0.24654 0.72964 0.87481 0.0
H712 H 0.23939 0.7346 0.81077 0.0
H713 H 0.22411 0.77805 0.84693 0.0
H714 H 0.23093 0.77314 0.91129 0.0
H715 H 0.32747 0.78673 0.03625 0.0
H716 H 0.29546 0.75966 0.01541 0.0
H717 H 0.27372 0.80084 0.00192 0.0
H718 H 0.30606 0.82824 0.02229 0.0
H719 H 0.2665 0.77839 0.94196 0.0
H720 H 0.25462 0.76562 0.06947 0.0
H721 H 0.26167 0.761 0.13374 0.0
H722 H 0.26611 0.70997 0.10208 0.0
H723 H 0.25938 0.71444 0.03751 0.0
C724 C 0.18628 0.69123 0.90431 0.0
C725 C 0.18979 0.67516 0.90094 0.0
C726 C 0.20053 0.70904 0.92074 0.0
C727 C 0.21839 0.71091 0.93408 0.0
C728 C 0.22211 0.69509 0.92976 0.0
C729 C 0.208 0.67742 0.91317 0.0
C730 C 0.2331 0.72903 0.95373 0.0
C731 C 0.23764 0.72704 0.99029 0.0
C732 C 0.24307 0.7479 0.93654 0.0
C733 C 0.23898 0.75083 0.89788 0.0
C734 C 0.24147 0.74011 0.86914 0.0
C735 C 0.23752 0.74294 0.83278 0.0
C736 C 0.23123 0.75658 0.8248 0.0
C737 C 0.22893 0.76746 0.85316 0.0
C738 C 0.23285 0.76466 0.88957 0.0
C739 C 0.31579 0.79 0.02944 0.0
C740 C 0.31925 0.80958 0.03084 0.0
C741 C 0.29745 0.77449 0.01769 0.0
C742 C 0.28213 0.7782 0.00746 0.0
C743 C 0.28533 0.79766 0.00982 0.0
C744 C 0.30376 0.81325 0.02158 0.0
C745 C 0.26346 0.76188 0.99166 0.0
C746 C 0.25808 0.76416 0.95585 0.0
C747 C 0.25259 0.74327 0.00966 0.0
C748 C 0.25658 0.74044 0.04854 0.0
C749 C 0.25723 0.75349 0.07614 0.0
C750 C 0.26116 0.75088 0.11265 0.0
C751 C 0.26436 0.73521 0.12198 0.0
C752 C 0.26362 0.7221 0.09482 0.0
C753 C 0.25972 0.72464 0.05826 0.0
H754 H 0.2674 0.73323 0.15026 0.0
H755 H 0.22818 0.75876 0.79663 0.0
H756 H 0.63525 0.16329 0.66435 0.0
H757 H 0.62628 0.16748 0.7269 0.0
H758 H 0.56816 0.1542 0.68869 0.0
H759 H 0.57729 0.15057 0.62587 0.0
H760 H 0.58165 0.18314 0.73836 0.0
H761 H 0.57614 0.11846 0.72995 0.0
H762 H 0.5882 0.09502 0.71715 0.0
H763 H 0.63395 0.12381 0.7988 0.0
H764 H 0.62232 0.1476 0.81173 0.0
H765 H 0.52429 0.14832 0.90108 0.0
H766 H 0.53908 0.15225 0.84013 0.0
H767 H 0.59573 0.16828 0.88978 0.0
H768 H 0.58092 0.16415 0.95111 0.0
H769 H 0.5859 0.14067 0.83609 0.0
H770 H 0.58877 0.2035 0.84829 0.0
H771 H 0.57561 0.22601 0.86125 0.0
H772 H 0.53366 0.19982 0.77274 0.0
H773 H 0.54638 0.17695 0.75956 0.0
C774 C 0.62063 0.16146 0.66924 0.0
C775 C 0.6069 0.15645 0.64031 0.0
C776 C 0.6155 0.16378 0.70501 0.0
C777 C 0.59641 0.16078 0.71263 0.0
C778 C 0.58295 0.15653 0.6835 0.0
C779 C 0.58816 0.15442 0.64763 0.0
C780 C 0.59013 0.16124 0.75106 0.0
C781 C 0.58243 0.17374 0.75967 0.0
C782 C 0.59157 0.14931 0.7791 0.0
C783 C 0.5985 0.13494 0.77151 0.0
C784 C 0.58886 0.11988 0.74498 0.0
C785 C 0.5956 0.10651 0.73773 0.0
C786 C 0.61186 0.10796 0.75708 0.0
C787 C 0.62138 0.12273 0.78379 0.0
C788 C 0.61471 0.13615 0.79111 0.0
C789 C 0.53994 0.15281 0.89906 0.0
C790 C 0.55147 0.15594 0.93085 0.0
C791 C 0.54839 0.15515 0.86419 0.0
C792 C 0.56856 0.16079 0.86041 0.0
C793 C 0.58015 0.16399 0.89212 0.0
C794 C 0.57169 0.16167 0.92708 0.0
C795 C 0.57722 0.16241 0.82329 0.0
C796 C 0.58534 0.15026 0.81491 0.0
C797 C 0.57603 0.17456 0.79545 0.0
C798 C 0.56844 0.1884 0.80312 0.0
C799 C 0.57665 0.20244 0.83175 0.0
C800 C 0.56928 0.21528 0.83911 0.0
C801 C 0.55379 0.21432 0.81788 0.0
C802 C 0.54566 0.20054 0.78917 0.0
C803 C 0.55296 0.18765 0.78171 0.0
H804 H 0.5481 0.22427 0.82363 0.0
H805 H 0.61706 0.0976 0.75143 0.0
H806 H 0.47025 0.62387 0.83745 0.0
H807 H 0.45702 0.61341 0.89949 0.0
H808 H 0.40497 0.56229 0.85486 0.0
H809 H 0.41799 0.57294 0.79242 0.0
H810 H 0.395 0.57858 0.9106 0.0
H811 H 0.4428 0.5576 0.89065 0.0
H812 H 0.47539 0.56158 0.87345 0.0
H813 H 0.50352 0.60401 0.96064 0.0
H814 H 0.47112 0.6005 0.97803 0.0
H815 H 0.36676 0.51813 0.07297 0.0
H816 H 0.37753 0.53176 0.01103 0.0
H817 H 0.42504 0.58601 0.05744 0.0
H818 H 0.41417 0.57257 0.11959 0.0
H819 H 0.43713 0.56865 0.00138 0.0
H820 H 0.38808 0.58812 0.02216 0.0
H821 H 0.35497 0.58293 0.03886 0.0
H822 H 0.32852 0.54147 0.9497 0.0
H823 H 0.36145 0.54619 0.93278 0.0
C824 C 0.45592 0.61047 0.8408 0.0
C825 C 0.44521 0.59912 0.81012 0.0
C826 C 0.44841 0.60447 0.87628 0.0
C827 C 0.43017 0.58688 0.88184 0.0
C828 C 0.41911 0.57588 0.85119 0.0
C829 C 0.42658 0.58194 0.81557 0.0
C830 C 0.42302 0.5797 0.91971 0.0
C831 C 0.40411 0.57618 0.93032 0.0
C832 C 0.43506 0.57688 0.94562 0.0
C833 C 0.45456 0.57894 0.9354 0.0
C834 C 0.45596 0.56789 0.90598 0.0
C835 C 0.47439 0.57004 0.89622 0.0
C836 C 0.49152 0.58308 0.91587 0.0
C837 C 0.49024 0.59394 0.9454 0.0
C838 C 0.47184 0.59187 0.95524 0.0
C839 C 0.3794 0.53303 0.06998 0.0
C840 C 0.38965 0.5443 0.10105 0.0
C841 C 0.38549 0.5408 0.03463 0.0
C842 C 0.40203 0.5599 0.02975 0.0
C843 C 0.41222 0.57125 0.06072 0.0
C844 C 0.40596 0.56359 0.09613 0.0
C845 C 0.40918 0.56762 0.99225 0.0
C846 C 0.42808 0.57115 0.98168 0.0
C847 C 0.39705 0.57023 0.96634 0.0
C848 C 0.37722 0.56736 0.97644 0.0
C849 C 0.37518 0.57775 0.00632 0.0
C850 C 0.35645 0.57492 0.01578 0.0
C851 C 0.33964 0.56184 0.99541 0.0
C852 C 0.34154 0.55158 0.96548 0.0
C853 C 0.36025 0.55434 0.95593 0.0
H854 H 0.32515 0.55968 0.00277 0.0
H855 H 0.50578 0.58473 0.90827 0.0
H856 H 0.82143 0.42287 0.96771 0.0
H857 H 0.81571 0.4085 0.02964 0.0
H858 H 0.86349 0.46413 0.07138 0.0
H859 H 0.86867 0.47871 0.01006 0.0
H860 H 0.83654 0.40071 0.07361 0.0
H861 H 0.85628 0.47257 0.1578 0.0
H862 H 0.8526 0.50228 0.15195 0.0
H863 H 0.8035 0.47074 0.07769 0.0
H864 H 0.80669 0.44075 0.08349 0.0
H865 H 0.86691 0.39333 0.25076 0.0
H866 H 0.86303 0.40307 0.18891 0.0
H867 H 0.8124 0.40768 0.22519 0.0
H868 H 0.81687 0.39879 0.28784 0.0
H869 H 0.83333 0.43707 0.18341 0.0
H870 H 0.80741 0.3678 0.17011 0.0
H871 H 0.80607 0.33544 0.17562 0.0
H872 H 0.85812 0.35688 0.10755 0.0
H873 H 0.85995 0.38948 0.10204 0.0
C874 C 0.83063 0.43202 0.9902 0.0
C875 C 0.84541 0.45193 0.98418 0.0
C876 C 0.82737 0.4238 0.02554 0.0
C877 C 0.83893 0.43532 0.05538 0.0
C878 C 0.85399 0.45509 0.0491 0.0
C879 C 0.85704 0.46338 0.01396 0.0
C880 C 0.83577 0.42661 0.0929 0.0
C881 C 0.83572 0.4086 0.0976 0.0
C882 C 0.83399 0.43651 0.1242 0.0
C883 C 0.83184 0.45445 0.12088 0.0
C884 C 0.84463 0.47193 0.14038 0.0
C885 C 0.84265 0.48884 0.13703 0.0
C886 C 0.82786 0.48841 0.11439 0.0
C887 C 0.81499 0.47107 0.09512 0.0
C888 C 0.8169 0.45412 0.09839 0.0
C889 C 0.85491 0.39637 0.24554 0.0
C890 C 0.84214 0.39525 0.27403 0.0
C891 C 0.85261 0.40179 0.21007 0.0
C892 C 0.83714 0.4057 0.20207 0.0
C893 C 0.82439 0.40466 0.23061 0.0
C894 C 0.82693 0.39957 0.26635 0.0
C895 C 0.83488 0.41157 0.1642 0.0
C896 C 0.8339 0.42904 0.15943 0.0
C897 C 0.83494 0.40076 0.13278 0.0
C898 C 0.83388 0.38114 0.13586 0.0
C899 C 0.81865 0.36567 0.1565 0.0
C900 C 0.81779 0.34727 0.1596 0.0
C901 C 0.83202 0.34412 0.142 0.0
C902 C 0.84711 0.35935 0.12118 0.0
C903 C 0.84805 0.37778 0.11801 0.0
H904 H 0.83133 0.32987 0.14444 0.0
H905 H 0.82636 0.50152 0.11182 0.0
H906 H 0.4759 0.84787 0.41174 0.0
H907 H 0.46354 0.84694 0.34952 0.0
H908 H 0.40831 0.83875 0.39414 0.0
H909 H 0.42049 0.83931 0.45663 0.0
H910 H 0.40161 0.81534 0.33503 0.0
H911 H 0.44408 0.88415 0.3645 0.0
H912 H 0.47492 0.91388 0.38524 0.0
H913 H 0.50717 0.90713 0.29555 0.0
H914 H 0.47658 0.87716 0.27459 0.0
H915 H 0.36953 0.84617 0.17712 0.0
H916 H 0.38077 0.84339 0.23857 0.0
H917 H 0.43367 0.84705 0.19172 0.0
H918 H 0.42248 0.84981 0.12998 0.0
H919 H 0.44153 0.87236 0.25151 0.0
H920 H 0.39772 0.80344 0.22174 0.0
H921 H 0.36617 0.77443 0.20148 0.0
H922 H 0.33555 0.78248 0.29254 0.0
H923 H 0.36688 0.81173 0.31307 0.0
C924 C 0.46107 0.84573 0.40832 0.0
C925 C 0.4492 0.84378 0.43904 0.0
C926 C 0.45406 0.84529 0.37275 0.0
C927 C 0.43514 0.84311 0.36721 0.0
C928 C 0.42299 0.84052 0.39781 0.0
C929 C 0.42997 0.84088 0.43346 0.0
C930 C 0.42824 0.84396 0.32952 0.0
C931 C 0.41022 0.82791 0.31692 0.0
C932 C 0.43964 0.86023 0.30569 0.0
C933 C 0.45807 0.87828 0.31818 0.0
C934 C 0.45778 0.8889 0.34937 0.0
C935 C 0.47521 0.90582 0.36114 0.0
C936 C 0.493 0.91236 0.34177 0.0
C937 C 0.49338 0.90202 0.31055 0.0
C938 C 0.476 0.88508 0.2987 0.0
C939 C 0.38351 0.84627 0.17986 0.0
C940 C 0.39513 0.84818 0.14876 0.0
C941 C 0.38987 0.84462 0.21497 0.0
C942 C 0.40798 0.84488 0.21964 0.0
C943 C 0.41963 0.84679 0.18865 0.0
C944 C 0.41319 0.84829 0.15345 0.0
C945 C 0.41497 0.84372 0.25702 0.0
C946 C 0.43298 0.85975 0.26959 0.0
C947 C 0.40346 0.82754 0.28092 0.0
C948 C 0.38462 0.80989 0.26874 0.0
C949 C 0.38423 0.79913 0.23728 0.0
C950 C 0.36639 0.78262 0.22578 0.0
C951 C 0.34886 0.77665 0.24566 0.0
C952 C 0.34914 0.78714 0.27714 0.0
C953 C 0.36694 0.80367 0.28875 0.0
H954 H 0.33506 0.76386 0.2367 0.0
H955 H 0.50647 0.92547 0.35088 0.0
H956 H 0.62712 0.47623 0.57692 0.0
H957 H 0.61591 0.46313 0.51506 0.0
H958 H 0.57334 0.40605 0.56076 0.0
H959 H 0.58472 0.41903 0.62298 0.0
H960 H 0.59161 0.40194 0.50024 0.0
H961 H 0.55827 0.43763 0.53275 0.0
H962 H 0.55531 0.46617 0.55461 0.0
H963 H 0.59147 0.50164 0.46444 0.0
H964 H 0.59493 0.47341 0.44237 0.0
H965 H 0.5292 0.36661 0.3403 0.0
H966 H 0.54262 0.37716 0.40242 0.0
H967 H 0.58824 0.43362 0.35948 0.0
H968 H 0.57495 0.42314 0.29726 0.0
H969 H 0.56784 0.43727 0.41904 0.0
H970 H 0.60079 0.40078 0.38681 0.0
H971 H 0.60269 0.37163 0.3651 0.0
H972 H 0.56567 0.33682 0.45502 0.0
H973 H 0.56331 0.36571 0.47699 0.0
C974 C 0.61546 0.46084 0.57383 0.0
C975 C 0.60669 0.44867 0.60477 0.0
C976 C 0.60903 0.4534 0.53847 0.0
C977 C 0.59358 0.43372 0.53338 0.0
C978 C 0.58523 0.42131 0.56415 0.0
C979 C 0.59171 0.42875 0.59962 0.0
C980 C 0.58586 0.42635 0.49593 0.0
C981 C 0.58616 0.4095 0.48263 0.0
C982 C 0.57903 0.43641 0.47283 0.0
C983 C 0.57702 0.45345 0.4861 0.0
C984 C 0.56574 0.45157 0.51776 0.0
C985 C 0.56395 0.46768 0.53017 0.0
C986 C 0.57323 0.48571 0.51096 0.0
C987 C 0.58431 0.48767 0.47931 0.0
C988 C 0.58619 0.47161 0.46683 0.0
C989 C 0.54221 0.38119 0.34407 0.0
C990 C 0.55103 0.39408 0.314 0.0
C991 C 0.54988 0.38717 0.37951 0.0
C992 C 0.56645 0.40613 0.38544 0.0
C993 C 0.57544 0.41892 0.3554 0.0
C994 C 0.56788 0.41289 0.31991 0.0
C995 C 0.5738 0.41302 0.42322 0.0
C996 C 0.57333 0.42974 0.43663 0.0
C997 C 0.5803 0.40274 0.44645 0.0
C998 C 0.58171 0.38536 0.43332 0.0
C999 C 0.59291 0.38686 0.40177 0.0
C1000 C 0.5941 0.3704 0.38945 0.0
C1001 C 0.58426 0.35237 0.40861 0.0
C1002 C 0.57326 0.35079 0.44018 0.0
C1003 C 0.572 0.36721 0.45259 0.0
H1004 H 0.58521 0.33964 0.39903 0.0
H1005 H 0.57178 0.49816 0.52052 0.0
H1006 H 0.16452 0.57695 0.4653 0.0
H1007 H 0.1681 0.58985 0.52805 0.0
H1008 H 0.15296 0.53213 0.57148 0.0
H1009 H 0.14895 0.51909 0.50897 0.0
H1010 H 0.13206 0.54576 0.60472 0.0
H1011 H 0.20103 0.57225 0.57525 0.0
H1012 H 0.23173 0.59079 0.53855 0.0
H1013 H 0.22922 0.64454 0.55219 0.0
H1014 H 0.19834 0.62625 0.58857 0.0
H1015 H 0.154 0.57478 0.79099 0.0
H1016 H 0.15709 0.56383 0.72935 0.0
H1017 H 0.16589 0.61904 0.6837 0.0
H1018 H 0.16282 0.6301 0.74523 0.0
H1019 H 0.19098 0.60678 0.65239 0.0
H1020 H 0.12132 0.57978 0.67953 0.0
H1021 H 0.0907 0.56121 0.71645 0.0
H1022 H 0.09483 0.50815 0.70696 0.0
H1023 H 0.12566 0.52649 0.67044 0.0
C1024 C 0.16216 0.56709 0.48825 0.0
C1025 C 0.15642 0.54701 0.48226 0.0
C1026 C 0.16429 0.57449 0.52409 0.0
C1027 C 0.16094 0.56199 0.55451 0.0
C1028 C 0.15559 0.54204 0.54846 0.0
C1029 C 0.15335 0.53462 0.51272 0.0
C1030 C 0.16188 0.56933 0.59262 0.0
C1031 C 0.1451 0.55891 0.61529 0.0
C1032 C 0.17868 0.58678 0.60617 0.0
C1033 C 0.19726 0.59783 0.58434 0.0
C1034 C 0.20693 0.58799 0.57018 0.0
C1035 C 0.22438 0.59846 0.54948 0.0
C1036 C 0.23239 0.61882 0.54296 0.0
C1037 C 0.22299 0.62876 0.55722 0.0
C1038 C 0.20552 0.61835 0.57791 0.0
C1039 C 0.15683 0.58468 0.76789 0.0
C1040 C 0.15802 0.60323 0.77285 0.0
C1041 C 0.15855 0.57839 0.73271 0.0
C1042 C 0.16151 0.59055 0.70198 0.0
C1043 C 0.1636 0.60944 0.70708 0.0
C1044 C 0.16176 0.61569 0.74221 0.0
C1045 C 0.16125 0.58311 0.66431 0.0
C1046 C 0.17806 0.59354 0.64176 0.0
C1047 C 0.1445 0.56565 0.65081 0.0
C1048 C 0.12591 0.55456 0.6726 0.0
C1049 C 0.11579 0.56419 0.68558 0.0
C1050 C 0.09838 0.5537 0.70639 0.0
C1051 C 0.09086 0.53353 0.71414 0.0
C1052 C 0.10069 0.52379 0.701 0.0
C1053 C 0.11813 0.53422 0.68023 0.0
H1054 H 0.07738 0.52543 0.73024 0.0
H1055 H 0.2459 0.62691 0.52694 0.0
H1056 H 0.50539 0.07672 0.01922 0.0
H1057 H 0.48189 0.041 0.01906 0.0
H1058 H 0.43359 0.05197 0.04227 0.0
H1059 H 0.45718 0.08801 0.04246 0.0
H1060 H 0.43343 0.02224 0.08672 0.0
H1061 H 0.43568 0.03713 0.95949 0.0
H1062 H 0.4513 0.05222 0.90008 0.0
H1063 H 0.48148 0.01844 0.89912 0.0
H1064 H 0.46628 0.00336 0.95882 0.0
H1065 H 0.37041 0.91572 0.05873 0.0
H1066 H 0.38367 0.95183 0.05414 0.0
H1067 H 0.44175 0.96031 0.02807 0.0
H1068 H 0.42872 0.92452 0.03257 0.0
H1069 H 0.43005 0.98032 0.98065 0.0
H1070 H 0.43227 0.97029 0.11228 0.0
H1071 H 0.41745 0.95567 0.17246 0.0
H1072 H 0.3789 0.9805 0.16481 0.0
H1073 H 0.39333 0.99506 0.1043 0.0
C1074 C 0.48976 0.07157 0.02414 0.0
C1075 C 0.48308 0.08512 0.03074 0.0
C1076 C 0.47635 0.05117 0.02391 0.0
C1077 C 0.456 0.0439 0.03025 0.0
C1078 C 0.44924 0.05735 0.03715 0.0
C1079 C 0.46269 0.07787 0.03714 0.0
C1080 C 0.44213 0.02216 0.03042 0.0
C1081 C 0.43225 0.01305 0.06327 0.0
C1082 C 0.4408 0.01026 0.99987 0.0
C1083 C 0.4499 0.01918 0.96378 0.0
C1084 C 0.44575 0.03301 0.94675 0.0
C1085 C 0.45452 0.04155 0.91299 0.0
C1086 C 0.46739 0.03631 0.89586 0.0
C1087 C 0.4715 0.02248 0.91242 0.0
C1088 C 0.46278 0.01391 0.9462 0.0
C1089 C 0.38601 0.92534 0.05218 0.0
C1090 C 0.39855 0.91736 0.04602 0.0
C1091 C 0.39355 0.9459 0.04959 0.0
C1092 C 0.41367 0.95866 0.04072 0.0
C1093 C 0.42616 0.95068 0.03475 0.0
C1094 C 0.4187 0.93024 0.03751 0.0
C1095 C 0.42201 0.98041 0.03736 0.0
C1096 C 0.43081 0.98951 0.00381 0.0
C1097 C 0.42233 0.99226 0.06724 0.0
C1098 C 0.41368 0.98352 0.10357 0.0
C1099 C 0.4205 0.97247 0.12327 0.0
C1100 C 0.4122 0.96423 0.15747 0.0
C1101 C 0.39719 0.96709 0.17239 0.0
C1102 C 0.39049 0.97826 0.15318 0.0
C1103 C 0.39872 0.9865 0.11894 0.0
H1104 H 0.39079 0.96071 0.19888 0.0
H1105 H 0.47417 0.04294 0.86972 0.0
H1106 H 0.50799 0.43082 0.2234 0.0
H1107 H 0.48522 0.4439 0.22666 0.0
H1108 H 0.43495 0.38414 0.22191 0.0
H1109 H 0.45781 0.37084 0.21846 0.0
H1110 H 0.43162 0.41016 0.1739 0.0
H1111 H 0.44491 0.40808 0.30125 0.0
H1112 H 0.46569 0.41349 0.35619 0.0
H1113 H 0.49531 0.47671 0.33868 0.0
H1114 H 0.47492 0.47168 0.2833 0.0
H1115 H 0.37013 0.45427 0.20341 0.0
H1116 H 0.38474 0.4327 0.20945 0.0
H1117 H 0.44303 0.48457 0.22248 0.0
H1118 H 0.42852 0.50608 0.21721 0.0
H1119 H 0.43695 0.45692 0.27243 0.0
H1120 H 0.42774 0.45873 0.14071 0.0
H1121 H 0.40808 0.45388 0.08435 0.0
H1122 H 0.37157 0.39167 0.10944 0.0
H1123 H 0.39088 0.39622 0.16623 0.0
C1124 C 0.4921 0.42043 0.22325 0.0
C1125 C 0.48465 0.39982 0.22075 0.0
C1126 C 0.47911 0.42792 0.22528 0.0
C1127 C 0.45843 0.41496 0.22496 0.0
C1128 C 0.45089 0.39435 0.22237 0.0
C1129 C 0.46393 0.3868 0.2205 0.0
C1130 C 0.44493 0.42328 0.22605 0.0
C1131 C 0.4324 0.42003 0.19583 0.0
C1132 C 0.44623 0.43635 0.25446 0.0
C1133 C 0.45843 0.43948 0.28798 0.0
C1134 C 0.45594 0.42313 0.30896 0.0
C1135 C 0.46764 0.42613 0.34021 0.0
C1136 C 0.48183 0.44543 0.35089 0.0
C1137 C 0.48431 0.46177 0.33038 0.0
C1138 C 0.47266 0.45885 0.29909 0.0
C1139 C 0.38606 0.46103 0.20746 0.0
C1140 C 0.39822 0.48183 0.2098 0.0
C1141 C 0.39438 0.44871 0.21085 0.0
C1142 C 0.41498 0.45706 0.21625 0.0
C1143 C 0.42708 0.47783 0.21849 0.0
C1144 C 0.41879 0.4901 0.21531 0.0
C1145 C 0.42417 0.44437 0.21966 0.0
C1146 C 0.43585 0.44675 0.25083 0.0
C1147 C 0.42215 0.43059 0.19205 0.0
C1148 C 0.41058 0.42786 0.15792 0.0
C1149 C 0.41541 0.44405 0.13435 0.0
C1150 C 0.40436 0.44135 0.10231 0.0
C1151 C 0.38854 0.4225 0.09338 0.0
C1152 C 0.38379 0.40628 0.11643 0.0
C1153 C 0.39479 0.40891 0.14853 0.0
H1154 H 0.38 0.42043 0.06856 0.0
H1155 H 0.49088 0.44772 0.37508 0.0
H1156 H 0.07707 0.51298 0.37432 0.0
H1157 H 0.04079 0.4931 0.37733 0.0
H1158 H 0.04454 0.43996 0.39432 0.0
H1159 H 0.081 0.4598 0.39101 0.0
H1160 H 0.0162 0.43465 0.34308 0.0
H1161 H 0.03387 0.46005 0.46562 0.0
H1162 H 0.05082 0.48588 0.51309 0.0
H1163 H 0.01989 0.51576 0.47628 0.0
H1164 H 0.00297 0.49026 0.42821 0.0
H1165 H 0.9125 0.37746 0.38663 0.0
H1166 H 0.94886 0.39324 0.38939 0.0
H1167 H 0.95395 0.45111 0.37956 0.0
H1168 H 0.9177 0.4355 0.37769 0.0
H1169 H 0.97802 0.45146 0.43156 0.0
H1170 H 0.96266 0.42813 0.30615 0.0
H1171 H 0.94609 0.40302 0.25735 0.0
H1172 H 0.97284 0.36988 0.29847 0.0
H1173 H 0.98937 0.39468 0.34783 0.0
C1174 C 0.07019 0.49707 0.37877 0.0
C1175 C 0.08183 0.48793 0.38258 0.0
C1176 C 0.04948 0.48575 0.38061 0.0
C1177 C 0.04004 0.46512 0.38652 0.0
C1178 C 0.05159 0.45589 0.38989 0.0
C1179 C 0.07237 0.46723 0.38809 0.0
C1180 C 0.01806 0.45328 0.38866 0.0
C1181 C 0.00782 0.43805 0.36284 0.0
C1182 C 0.00721 0.45802 0.41404 0.0
C1183 C 0.01726 0.47331 0.44313 0.0
C1184 C 0.03079 0.4722 0.46748 0.0
C1185 C 0.04038 0.48677 0.49452 0.0
C1186 C 0.03646 0.50247 0.49766 0.0
C1187 C 0.02291 0.5036 0.47381 0.0
C1188 C 0.0133 0.48908 0.44669 0.0
C1189 C 0.92141 0.39355 0.38502 0.0
C1190 C 0.91232 0.40528 0.38188 0.0
C1191 C 0.94215 0.40252 0.38648 0.0
C1192 C 0.9541 0.42334 0.38434 0.0
C1193 C 0.945 0.43503 0.38132 0.0
C1194 C 0.9243 0.42609 0.38013 0.0
C1195 C 0.97611 0.43308 0.38546 0.0
C1196 C 0.98637 0.4479 0.412 0.0
C1197 C 0.98696 0.42802 0.36063 0.0
C1198 C 0.97706 0.41313 0.33092 0.0
C1199 C 0.96488 0.4154 0.30496 0.0
C1200 C 0.95552 0.40124 0.27717 0.0
C1201 C 0.95836 0.38483 0.27488 0.0
C1202 C 0.97062 0.38258 0.30032 0.0
C1203 C 0.98 0.39668 0.32819 0.0
H1204 H 0.9511 0.37388 0.25334 0.0
H1205 H 0.04391 0.51374 0.51861 0.0
H1206 H 0.48957 0.92004 0.55267 0.0
H1207 H 0.51189 0.95596 0.5511 0.0
H1208 H 0.56194 0.94723 0.53148 0.0
H1209 H 0.53956 0.91096 0.53353 0.0
H1210 H 0.57031 0.97685 0.58267 0.0
H1211 H 0.54414 0.96053 0.46143 0.0
H1212 H 0.51809 0.94432 0.41409 0.0
H1213 H 0.49014 0.97706 0.45131 0.0
H1214 H 0.51583 0.99321 0.49934 0.0
H1215 H 0.62621 0.08259 0.53998 0.0
H1216 H 0.61187 0.0463 0.53783 0.0
H1217 H 0.55336 0.03841 0.55679 0.0
H1218 H 0.56747 0.07443 0.55863 0.0
H1219 H 0.55416 0.01705 0.49801 0.0
H1220 H 0.5783 0.02975 0.62424 0.0
H1221 H 0.60422 0.04539 0.67201 0.0
H1222 H 0.6366 0.01946 0.62376 0.0
H1223 H 0.61098 0.00386 0.57539 0.0
C1224 C 0.50532 0.92572 0.54803 0.0
C1225 C 0.51283 0.91273 0.54294 0.0
C1226 C 0.51804 0.94625 0.54705 0.0
C1227 C 0.53849 0.9542 0.54059 0.0
C1228 C 0.54617 0.94132 0.53631 0.0
C1229 C 0.53339 0.92067 0.53738 0.0
C1230 C 0.55155 0.97604 0.53814 0.0
C1231 C 0.56709 0.98567 0.56366 0.0
C1232 C 0.54723 0.98746 0.5134 0.0
C1233 C 0.53188 0.97802 0.48414 0.0
C1234 C 0.53238 0.96419 0.45967 0.0
C1235 C 0.51767 0.95502 0.4327 0.0
C1236 C 0.50246 0.95965 0.4297 0.0
C1237 C 0.50194 0.97349 0.45365 0.0
C1238 C 0.51659 0.98268 0.48074 0.0
C1239 C 0.61033 0.07307 0.54411 0.0
C1240 C 0.59792 0.08129 0.54931 0.0
C1241 C 0.60218 0.05239 0.54289 0.0
C1242 C 0.58156 0.03972 0.54705 0.0
C1243 C 0.56929 0.04795 0.55327 0.0
C1244 C 0.57739 0.06853 0.55445 0.0
C1245 C 0.57237 0.01787 0.54354 0.0
C1246 C 0.55762 0.00824 0.51663 0.0
C1247 C 0.57751 0.00652 0.56684 0.0
C1248 C 0.59286 0.01585 0.59596 0.0
C1249 C 0.59104 0.02753 0.62363 0.0
C1250 C 0.60565 0.03635 0.65086 0.0
C1251 C 0.62208 0.03347 0.65085 0.0
C1252 C 0.62389 0.02171 0.62368 0.0
C1253 C 0.60932 0.01287 0.59638 0.0
H1254 H 0.63338 0.04032 0.67195 0.0
H1255 H 0.49109 0.95252 0.4088 0.0
H1256 H 0.56632 0.48445 0.71213 0.0
H1257 H 0.55047 0.50484 0.711 0.0
H1258 H 0.60816 0.55807 0.70469 0.0
H1259 H 0.62424 0.53765 0.70608 0.0
H1260 H 0.58264 0.56121 0.75476 0.0
H1261 H 0.5813 0.54227 0.62926 0.0
H1262 H 0.57517 0.51898 0.57817 0.0
H1263 H 0.5127 0.48725 0.60385 0.0
H1264 H 0.51851 0.51016 0.65556 0.0
H1265 H 0.53621 0.61916 0.7114 0.0
H1266 H 0.5577 0.60431 0.71017 0.0
H1267 H 0.50569 0.54557 0.71045 0.0
H1268 H 0.48422 0.56025 0.71116 0.0
H1269 H 0.53198 0.54873 0.65909 0.0
H1270 H 0.53363 0.56526 0.78771 0.0
H1271 H 0.53944 0.58772 0.84018 0.0
H1272 H 0.60091 0.62348 0.80912 0.0
H1273 H 0.5954 0.60136 0.75616 0.0
C1274 C 0.57566 0.50049 0.71051 0.0
C1275 C 0.5965 0.50947 0.70898 0.0
C1276 C 0.56658 0.51211 0.70978 0.0
C1277 C 0.57816 0.53292 0.70729 0.0
C1278 C 0.599 0.54201 0.70647 0.0
C1279 C 0.60813 0.53035 0.70715 0.0
C1280 C 0.56826 0.54499 0.70539 0.0
C1281 C 0.57184 0.5588 0.73347 0.0
C1282 C 0.55398 0.54155 0.67788 0.0
C1283 C 0.55037 0.52787 0.64647 0.0
C1284 C 0.56627 0.53025 0.62419 0.0
C1285 C 0.56285 0.51712 0.59508 0.0
C1286 C 0.54356 0.50163 0.58778 0.0
C1287 C 0.52764 0.49926 0.60954 0.0
C1288 C 0.53099 0.51233 0.63873 0.0
C1289 C 0.5294 0.60309 0.71138 0.0
C1290 C 0.50856 0.59085 0.71136 0.0
C1291 C 0.54167 0.59464 0.71076 0.0
C1292 C 0.53326 0.57385 0.71036 0.0
C1293 C 0.51246 0.56165 0.71061 0.0
C1294 C 0.50023 0.57006 0.71115 0.0
C1295 C 0.54597 0.56461 0.70899 0.0
C1296 C 0.54296 0.55135 0.68015 0.0
C1297 C 0.5607 0.56853 0.73586 0.0
C1298 C 0.56404 0.5818 0.76773 0.0
C1299 C 0.54834 0.57801 0.79189 0.0
C1300 C 0.55159 0.59065 0.82175 0.0
C1301 C 0.57052 0.60705 0.82791 0.0
C1302 C 0.58625 0.6108 0.80428 0.0
C1303 C 0.58308 0.59821 0.77435 0.0
H1304 H 0.57301 0.61682 0.85105 0.0
H1305 H 0.54093 0.49148 0.56523 0.0
H1306 H 0.08578 0.6264 0.86245 0.0
H1307 H 0.04966 0.61296 0.85854 0.0
H1308 H 0.04063 0.55349 0.8492 0.0
H1309 H 0.07651 0.56675 0.85279 0.0
H1310 H 0.01701 0.55964 0.80174 0.0
H1311 H 0.03553 0.5711 0.93107 0.0
H1312 H 0.05398 0.59188 0.98435 0.0
H1313 H 0.02874 0.62942 0.96538 0.0
H1314 H 0.01034 0.60898 0.91166 0.0
H1315 H 0.92182 0.49136 0.86472 0.0
H1316 H 0.95764 0.51302 0.8567 0.0
H1317 H 0.95103 0.56475 0.87029 0.0
H1318 H 0.91501 0.54303 0.87886 0.0
H1319 H 0.98231 0.56791 0.90933 0.0
H1320 H 0.95941 0.5528 0.78579 0.0
H1321 H 0.94058 0.53144 0.73342 0.0
H1322 H 0.97373 0.50073 0.74099 0.0
H1323 H 0.99256 0.52171 0.79379 0.0
C1324 C 0.07607 0.61049 0.85922 0.0
C1325 C 0.08391 0.59759 0.85816 0.0
C1326 C 0.05548 0.60285 0.85708 0.0
C1327 C 0.0425 0.58223 0.85388 0.0
C1328 C 0.0504 0.56945 0.8516 0.0
C1329 C 0.0709 0.57704 0.85383 0.0
C1330 C 0.02063 0.57362 0.85458 0.0
C1331 C 0.00939 0.5614 0.82525 0.0
C1332 C 0.01077 0.57645 0.88479 0.0
C1333 C 0.02177 0.58868 0.91711 0.0
C1334 C 0.03405 0.58388 0.93809 0.0
C1335 C 0.04447 0.59558 0.9684 0.0
C1336 C 0.04258 0.612 0.97817 0.0
C1337 C 0.03022 0.61672 0.95773 0.0
C1338 C 0.01979 0.60509 0.92736 0.0
C1339 C 0.92797 0.50734 0.86602 0.0
C1340 C 0.91564 0.51552 0.87231 0.0
C1341 C 0.94842 0.5197 0.86121 0.0
C1342 C 0.95692 0.54049 0.86225 0.0
C1343 C 0.94471 0.54874 0.86915 0.0
C1344 C 0.92419 0.53634 0.87402 0.0
C1345 C 0.97866 0.55341 0.85699 0.0
C1346 C 0.98989 0.56646 0.88541 0.0
C1347 C 0.98851 0.55134 0.82592 0.0
C1348 C 0.97733 0.53878 0.79392 0.0
C1349 C 0.9626 0.54141 0.77646 0.0
C1350 C 0.95193 0.52938 0.74666 0.0
C1351 C 0.95593 0.51472 0.73392 0.0
C1352 C 0.97064 0.51209 0.7509 0.0
C1353 C 0.98134 0.52407 0.78073 0.0
H1354 H 0.94765 0.50541 0.71086 0.0
H1355 H 0.05066 0.62103 0.00165 0.0
loop_
_geom_bond_atom_site_label_1
_geom_bond_atom_site_label_2
_geom_bond_distance
_geom_bond_site_symmetry_2
_ccdc_geom_bond_type
In0 O1 2.294 . S
In0 O2 2.326 1_554 S
In0 O6 2.266 . S
In0 O7 2.326 . S
In0 O8 2.266 . S
In0 O9 2.326 . S
In0 O11 2.294 . S
In0 O12 2.326 . S
O1 In0 2.294 . S
O1 C10 1.240 1_554 S
O2 In0 2.326 1_556 S
O2 C10 1.252 . S
C3 O6 1.252 . S
C3 O7 1.260 . S
C4 O11 1.240 . S
C4 O12 1.252 . S
C5 O8 1.252 . S
C5 O9 1.260 . S
O6 In0 2.266 . S
O6 C3 1.252 . S
O7 In0 2.326 . S
O7 C3 1.260 . S
O8 In0 2.266 . S
O8 C5 1.252 . S
O9 In0 2.326 . S
O9 C5 1.260 . S
C10 O1 1.240 1_556 S
C10 O2 1.252 . S
O11 In0 2.294 . S
O11 C4 1.240 . S
O12 In0 2.326 . S
O12 C4 1.252 . S
In13 O14 2.294 . S
In13 O15 2.326 . S
In13 O19 2.266 . S
In13 O20 2.326 . S
In13 O21 2.266 . S
In13 O22 2.326 . S
In13 O24 2.294 . S
In13 O25 2.326 . S
O14 In13 2.294 . S
O14 C23 1.240 . S
O15 In13 2.326 . S
O15 C23 1.252 . S
C16 O19 1.252 . S
C16 O20 1.260 . S
C17 O24 1.240 . S
C17 O25 1.252 . S
C18 O21 1.252 . S
C18 O22 1.260 . S
O19 In13 2.266 . S
O19 C16 1.252 . S
O20 In13 2.326 . S
O20 C16 1.260 . S
O21 In13 2.266 . S
O21 C18 1.252 . S
O22 In13 2.326 . S
O22 C18 1.260 . S
C23 O14 1.240 . S
C23 O15 1.252 . S
O24 In13 2.294 . S
O24 C17 1.240 . S
O25 In13 2.326 . S
O25 C17 1.252 . S
In26 O27 2.294 . S
In26 O28 2.326 . S
In26 O32 2.266 . S
In26 O33 2.326 . S
In26 O34 2.266 . S
In26 O35 2.326 . S
In26 O37 2.294 . S
In26 O38 2.326 . S
O27 In26 2.294 . S
O27 C36 1.240 . S
O28 In26 2.326 . S
O28 C36 1.252 . S
C29 O32 1.252 . S
C29 O33 1.260 . S
C30 O37 1.240 . S
C30 O38 1.252 . S
C31 O34 1.252 . S
C31 O35 1.260 . S
O32 In26 2.266 . S
O32 C29 1.252 . S
O33 In26 2.326 . S
O33 C29 1.260 . S
O34 In26 2.266 . S
O34 C31 1.252 . S
O35 In26 2.326 . S
O35 C31 1.260 . S
C36 O27 1.240 . S
C36 O28 1.252 . S
O37 In26 2.294 . S
O37 C30 1.240 . S
O38 In26 2.326 . S
O38 C30 1.252 . S
In39 O40 2.294 . S
In39 O41 2.326 . S
In39 O45 2.266 . S
In39 O46 2.326 . S
In39 O47 2.266 . S
In39 O48 2.326 . S
In39 O50 2.294 . S
In39 O51 2.326 . S
O40 In39 2.294 . S
O40 C49 1.240 . S
O41 In39 2.326 . S
O41 C49 1.252 . S
C42 O45 1.252 . S
C42 O46 1.260 . S
C43 O50 1.240 . S
C43 O51 1.252 . S
C44 O47 1.252 . S
C44 O48 1.260 . S
O45 In39 2.266 . S
O45 C42 1.252 . S
O46 In39 2.326 . S
O46 C42 1.260 . S
O47 In39 2.266 . S
O47 C44 1.252 . S
O48 In39 2.326 . S
O48 C44 1.260 . S
C49 O40 1.240 . S
C49 O41 1.252 . S
O50 In39 2.294 . S
O50 C43 1.240 . S
O51 In39 2.326 . S
O51 C43 1.252 . S
In52 O53 2.294 . S
In52 O54 2.326 . S
In52 O58 2.266 . S
In52 O59 2.326 . S
In52 O60 2.266 . S
In52 O61 2.326 . S
In52 O63 2.294 . S
In52 O64 2.326 . S
O53 In52 2.294 . S
O53 C62 1.240 . S
O54 In52 2.326 . S
O54 C62 1.252 . S
C55 O58 1.252 . S
C55 O59 1.260 . S
C56 O63 1.240 . S
C56 O64 1.252 . S
C57 O60 1.252 . S
C57 O61 1.260 . S
O58 In52 2.266 . S
O58 C55 1.252 . S
O59 In52 2.326 . S
O59 C55 1.260 . S
O60 In52 2.266 . S
O60 C57 1.252 . S
O61 In52 2.326 . S
O61 C57 1.260 . S
C62 O53 1.240 . S
C62 O54 1.252 . S
O63 In52 2.294 . S
O63 C56 1.240 . S
O64 In52 2.326 . S
O64 C56 1.252 . S
In65 O66 2.294 . S
In65 O67 2.326 . S
In65 O71 2.266 . S
In65 O72 2.326 . S
In65 O73 2.266 . S
In65 O74 2.326 . S
In65 O76 2.294 . S
In65 O77 2.326 . S
O66 In65 2.294 . S
O66 C75 1.240 . S
O67 In65 2.326 . S
O67 C75 1.252 . S
C68 O71 1.252 . S
C68 O72 1.260 . S
C69 O76 1.240 . S
C69 O77 1.252 . S
C70 O73 1.252 . S
C70 O74 1.260 . S
O71 In65 2.266 . S
O71 C68 1.252 . S
O72 In65 2.326 . S
O72 C68 1.260 . S
O73 In65 2.266 . S
O73 C70 1.252 . S
O74 In65 2.326 . S
O74 C70 1.260 . S
C75 O66 1.240 . S
C75 O67 1.252 . S
O76 In65 2.294 . S
O76 C69 1.240 . S
O77 In65 2.326 . S
O77 C69 1.252 . S
In78 O79 2.294 . S
In78 O80 2.326 . S
In78 O84 2.266 . S
In78 O85 2.326 . S
In78 O86 2.266 . S
In78 O87 2.326 . S
In78 O89 2.294 . S
In78 O90 2.326 . S
O79 In78 2.294 . S
O79 C88 1.240 . S
O80 In78 2.326 . S
O80 C88 1.252 . S
C81 O84 1.252 . S
C81 O85 1.260 . S
C82 O89 1.240 . S
C82 O90 1.252 . S
C83 O86 1.252 . S
C83 O87 1.260 . S
O84 In78 2.266 . S
O84 C81 1.252 . S
O85 In78 2.326 . S
O85 C81 1.260 . S
O86 In78 2.266 . S
O86 C83 1.252 . S
O87 In78 2.326 . S
O87 C83 1.260 . S
C88 O79 1.240 . S
C88 O80 1.252 . S
O89 In78 2.294 . S
O89 C82 1.240 . S
O90 In78 2.326 . S
O90 C82 1.252 . S
In91 O92 2.294 . S
In91 O93 2.326 . S
In91 O97 2.266 . S
In91 O98 2.326 . S
In91 O99 2.266 1_554 S
In91 O100 2.326 1_554 S
In91 O102 2.294 . S
In91 O103 2.326 . S
O92 In91 2.294 . S
O92 C101 1.240 . S
O93 In91 2.326 . S
O93 C101 1.252 . S
C94 O97 1.252 . S
C94 O98 1.260 . S
C95 O102 1.240 . S
C95 O103 1.252 . S
C96 O99 1.252 . S
C96 O100 1.260 . S
O97 In91 2.266 . S
O97 C94 1.252 . S
O98 In91 2.326 . S
O98 C94 1.260 . S
O99 In91 2.266 1_556 S
O99 C96 1.252 . S
O100 In91 2.326 1_556 S
O100 C96 1.260 . S
C101 O92 1.240 . S
C101 O93 1.252 . S
O102 In91 2.294 . S
O102 C95 1.240 . S
O103 In91 2.326 . S
O103 C95 1.252 . S
In104 O105 2.294 . S
In104 O106 2.326 . S
In104 O110 2.266 . S
In104 O111 2.326 . S
In104 O112 2.266 . S
In104 O113 2.326 . S
In104 O115 2.294 . S
In104 O116 2.326 . S
O105 In104 2.294 . S
O105 C114 1.240 . S
O106 In104 2.326 . S
O106 C114 1.252 . S
C107 O110 1.252 . S
C107 O111 1.260 . S
C108 O115 1.240 . S
C108 O116 1.252 . S
C109 O112 1.252 . S
C109 O113 1.260 . S
O110 In104 2.266 . S
O110 C107 1.252 . S
O111 In104 2.326 . S
O111 C107 1.260 . S
O112 In104 2.266 . S
O112 C109 1.252 . S
O113 In104 2.326 . S
O113 C109 1.260 . S
C114 O105 1.240 . S
C114 O106 1.252 . S
O115 In104 2.294 . S
O115 C108 1.240 . S
O116 In104 2.326 . S
O116 C108 1.252 . S
In117 O118 2.294 . S
In117 O119 2.326 . S
In117 O123 2.266 . S
In117 O124 2.326 . S
In117 O125 2.266 . S
In117 O126 2.326 . S
In117 O128 2.294 . S
In117 O129 2.326 . S
O118 In117 2.294 . S
O118 C127 1.240 . S
O119 In117 2.326 . S
O119 C127 1.252 . S
C120 O123 1.252 . S
C120 O124 1.260 . S
C121 O128 1.240 . S
C121 O129 1.252 . S
C122 O125 1.252 . S
C122 O126 1.260 . S
O123 In117 2.266 . S
O123 C120 1.252 . S
O124 In117 2.326 . S
O124 C120 1.260 . S
O125 In117 2.266 . S
O125 C122 1.252 . S
O126 In117 2.326 . S
O126 C122 1.260 . S
C127 O118 1.240 . S
C127 O119 1.252 . S
O128 In117 2.294 . S
O128 C121 1.240 . S
O129 In117 2.326 . S
O129 C121 1.252 . S
In130 O131 2.294 . S
In130 O132 2.326 . S
In130 O136 2.266 . S
In130 O137 2.326 . S
In130 O138 2.266 . S
In130 O139 2.326 . S
In130 O141 2.294 . S
In130 O142 2.326 . S
O131 In130 2.294 . S
O131 C140 1.240 . S
O132 In130 2.326 . S
O132 C140 1.252 . S
C133 O136 1.252 . S
C133 O137 1.260 . S
C134 O141 1.240 . S
C134 O142 1.252 . S
C135 O138 1.252 . S
C135 O139 1.260 . S
O136 In130 2.266 . S
O136 C133 1.252 . S
O137 In130 2.326 . S
O137 C133 1.260 . S
O138 In130 2.266 . S
O138 C135 1.252 . S
O139 In130 2.326 . S
O139 C135 1.260 . S
C140 O131 1.240 . S
C140 O132 1.252 . S
O141 In130 2.294 . S
O141 C134 1.240 . S
O142 In130 2.326 . S
O142 C134 1.252 . S
In143 O144 2.294 . S
In143 O145 2.326 . S
In143 O149 2.266 . S
In143 O150 2.326 . S
In143 O151 2.266 . S
In143 O152 2.326 . S
In143 O154 2.294 . S
In143 O155 2.326 . S
O144 In143 2.294 . S
O144 C153 1.240 . S
O145 In143 2.326 . S
O145 C153 1.252 . S
C146 O149 1.252 . S
C146 O150 1.260 . S
C147 O154 1.240 . S
C147 O155 1.252 . S
C148 O151 1.252 . S
C148 O152 1.260 . S
O149 In143 2.266 . S
O149 C146 1.252 . S
O150 In143 2.326 . S
O150 C146 1.260 . S
O151 In143 2.266 . S
O151 C148 1.252 . S
O152 In143 2.326 . S
O152 C148 1.260 . S
C153 O144 1.240 . S
C153 O145 1.252 . S
O154 In143 2.294 . S
O154 C147 1.240 . S
O155 In143 2.326 . S
O155 C147 1.252 . S
H156 C174 0.951 . S
H157 C176 0.951 . S
H158 C178 0.950 . S
H159 C179 0.950 . S
H160 C181 0.950 . S
H161 C184 0.950 . S
H162 C185 0.950 . S
H163 C187 0.950 . S
H164 C188 0.950 . S
H165 C189 0.951 . S
H166 C191 0.951 . S
H167 C193 0.950 . S
H168 C194 0.950 . S
H169 C196 0.950 . S
H170 C199 0.950 . S
H171 C200 0.950 . S
H172 C202 0.950 . S
H173 C203 0.950 . S
C174 H156 0.951 . S
C174 C175 1.366 . S
C174 C176 1.388 . S
C175 C174 1.366 . S
C175 C179 1.385 . S
C176 H157 0.951 . S
C176 C174 1.388 . S
C176 C177 1.366 . S
C177 C176 1.366 . S
C177 C178 1.414 . S
C177 C180 1.499 . S
C178 H158 0.950 . S
C178 C177 1.414 . S
C178 C179 1.374 . S
C179 H159 0.950 . S
C179 C175 1.385 . S
C179 C178 1.374 . S
C180 C177 1.499 . S
C180 C181 1.373 . S
C180 C182 1.389 . S
C181 H160 0.950 . S
C181 C180 1.373 . S
C181 C197 1.377 . S
C182 C180 1.389 . S
C182 C183 1.524 . S
C182 C196 1.377 . S
C183 C182 1.524 . S
C183 C184 1.397 . S
C183 C188 1.363 . S
C184 H161 0.950 . S
C184 C183 1.397 . S
C184 C185 1.334 . S
C185 H162 0.950 . S
C185 C184 1.334 . S
C185 C186 1.287 . S
C186 C185 1.287 . S
C186 C187 1.524 . S
C186 H205 0.913 . S
C187 H163 0.950 . S
C187 C186 1.524 . S
C187 C188 1.415 . S
C188 H164 0.950 . S
C188 C183 1.363 . S
C188 C187 1.415 . S
C189 H165 0.951 . S
C189 C190 1.366 . S
C189 C191 1.388 . S
C190 C189 1.366 . S
C190 C194 1.385 . S
C191 H166 0.951 . S
C191 C189 1.388 . S
C191 C192 1.366 . S
C192 C191 1.366 . S
C192 C193 1.414 . S
C192 C195 1.499 . S
C193 H167 0.950 . S
C193 C192 1.414 . S
C193 C194 1.374 . S
C194 H168 0.950 . S
C194 C190 1.385 . S
C194 C193 1.374 . S
C195 C192 1.499 . S
C195 C196 1.373 . S
C195 C197 1.389 . S
C196 H169 0.950 . S
C196 C182 1.377 . S
C196 C195 1.373 . S
C197 C181 1.377 . S
C197 C195 1.389 . S
C197 C198 1.524 . S
C198 C197 1.524 . S
C198 C199 1.397 . S
C198 C203 1.363 . S
C199 H170 0.950 . S
C199 C198 1.397 . S
C199 C200 1.334 . S
C200 H171 0.950 . S
C200 C199 1.334 . S
C200 C201 1.287 . S
C201 C200 1.287 . S
C201 C202 1.524 . S
C201 H204 0.999 . S
C202 H172 0.950 . S
C202 C201 1.524 . S
C202 C203 1.415 . S
C203 H173 0.950 . S
C203 C198 1.363 . S
C203 C202 1.415 . S
H204 C201 0.999 . S
H205 C186 0.913 . S
H206 C224 0.951 . S
H207 C226 0.951 . S
H208 C228 0.950 . S
H209 C229 0.950 . S
H210 C231 0.950 . S
H211 C234 0.950 . S
H212 C235 0.950 . S
H213 C237 0.950 . S
H214 C238 0.950 . S
H215 C239 0.951 . S
H216 C241 0.951 . S
H217 C243 0.950 . S
H218 C244 0.950 . S
H219 C246 0.950 . S
H220 C249 0.950 . S
H221 C250 0.950 . S
H222 C252 0.950 . S
H223 C253 0.950 . S
C224 H206 0.951 . S
C224 C225 1.366 . S
C224 C226 1.388 . S
C225 C224 1.366 . S
C225 C229 1.385 . S
C226 H207 0.951 . S
C226 C224 1.388 . S
C226 C227 1.366 . S
C227 C226 1.366 . S
C227 C228 1.414 . S
C227 C230 1.499 . S
C228 H208 0.950 . S
C228 C227 1.414 . S
C228 C229 1.374 . S
C229 H209 0.950 . S
C229 C225 1.385 . S
C229 C228 1.374 . S
C230 C227 1.499 . S
C230 C231 1.373 . S
C230 C232 1.389 . S
C231 H210 0.950 . S
C231 C230 1.373 . S
C231 C247 1.377 . S
C232 C230 1.389 . S
C232 C233 1.524 . S
C232 C246 1.377 . S
C233 C232 1.524 . S
C233 C234 1.397 . S
C233 C238 1.363 . S
C234 H211 0.950 . S
C234 C233 1.397 . S
C234 C235 1.334 . S
C235 H212 0.950 . S
C235 C234 1.334 . S
C235 C236 1.287 . S
C236 C235 1.287 . S
C236 C237 1.524 . S
C236 H255 0.913 . S
C237 H213 0.950 . S
C237 C236 1.524 . S
C237 C238 1.415 . S
C238 H214 0.950 . S
C238 C233 1.363 . S
C238 C237 1.415 . S
C239 H215 0.951 . S
C239 C240 1.366 . S
C239 C241 1.388 . S
C240 C239 1.366 . S
C240 C244 1.385 . S
C241 H216 0.951 . S
C241 C239 1.388 . S
C241 C242 1.366 . S
C242 C241 1.366 . S
C242 C243 1.414 . S
C242 C245 1.499 . S
C243 H217 0.950 . S
C243 C242 1.414 . S
C243 C244 1.374 . S
C244 H218 0.950 . S
C244 C240 1.385 . S
C244 C243 1.374 . S
C245 C242 1.499 . S
C245 C246 1.373 . S
C245 C247 1.389 . S
C246 H219 0.950 . S
C246 C232 1.377 . S
C246 C245 1.373 . S
C247 C231 1.377 . S
C247 C245 1.389 . S
C247 C248 1.524 . S
C248 C247 1.524 . S
C248 C249 1.397 . S
C248 C253 1.363 . S
C249 H220 0.950 . S
C249 C248 1.397 . S
C249 C250 1.334 . S
C250 H221 0.950 . S
C250 C249 1.334 . S
C250 C251 1.287 . S
C251 C250 1.287 . S
C251 C252 1.524 . S
C251 H254 0.999 . S
C252 H222 0.950 . S
C252 C251 1.524 . S
C252 C253 1.415 . S
C253 H223 0.950 . S
C253 C248 1.363 . S
C253 C252 1.415 . S
H254 C251 0.999 . S
H255 C236 0.913 . S
H256 C274 0.951 . S
H257 C276 0.951 . S
H258 C278 0.950 . S
H259 C279 0.950 . S
H260 C281 0.950 . S
H261 C284 0.950 . S
H262 C285 0.950 . S
H263 C287 0.950 . S
H264 C288 0.950 . S
H265 C289 0.951 . S
H266 C291 0.951 . S
H267 C293 0.950 . S
H268 C294 0.950 . S
H269 C296 0.950 . S
H270 C299 0.950 . S
H271 C300 0.950 . S
H272 C302 0.950 . S
H273 C303 0.950 . S
C274 H256 0.951 . S
C274 C275 1.366 . S
C274 C276 1.388 . S
C275 C274 1.366 . S
C275 C279 1.385 . S
C276 H257 0.951 . S
C276 C274 1.388 . S
C276 C277 1.366 . S
C277 C276 1.366 . S
C277 C278 1.414 . S
C277 C280 1.499 . S
C278 H258 0.950 . S
C278 C277 1.414 . S
C278 C279 1.374 . S
C279 H259 0.950 . S
C279 C275 1.385 . S
C279 C278 1.374 . S
C280 C277 1.499 . S
C280 C281 1.373 . S
C280 C282 1.389 . S
C281 H260 0.950 . S
C281 C280 1.373 . S
C281 C297 1.377 . S
C282 C280 1.389 . S
C282 C283 1.524 . S
C282 C296 1.377 . S
C283 C282 1.524 . S
C283 C284 1.397 . S
C283 C288 1.363 . S
C284 H261 0.950 . S
C284 C283 1.397 . S
C284 C285 1.334 . S
C285 H262 0.950 . S
C285 C284 1.334 . S
C285 C286 1.287 . S
C286 C285 1.287 . S
C286 C287 1.524 . S
C286 H305 0.913 . S
C287 H263 0.950 . S
C287 C286 1.524 . S
C287 C288 1.415 . S
C288 H264 0.950 . S
C288 C283 1.363 . S
C288 C287 1.415 . S
C289 H265 0.951 . S
C289 C290 1.366 . S
C289 C291 1.388 . S
C290 C289 1.366 . S
C290 C294 1.385 . S
C291 H266 0.951 . S
C291 C289 1.388 . S
C291 C292 1.366 . S
C292 C291 1.366 . S
C292 C293 1.414 . S
C292 C295 1.499 . S
C293 H267 0.950 . S
C293 C292 1.414 . S
C293 C294 1.374 . S
C294 H268 0.950 . S
C294 C290 1.385 . S
C294 C293 1.374 . S
C295 C292 1.499 . S
C295 C296 1.373 . S
C295 C297 1.389 . S
C296 H269 0.950 . S
C296 C282 1.377 . S
C296 C295 1.373 . S
C297 C281 1.377 . S
C297 C295 1.389 . S
C297 C298 1.524 . S
C298 C297 1.524 . S
C298 C299 1.397 . S
C298 C303 1.363 . S
C299 H270 0.950 . S
C299 C298 1.397 . S
C299 C300 1.334 . S
C300 H271 0.950 . S
C300 C299 1.334 . S
C300 C301 1.287 . S
C301 C300 1.287 . S
C301 C302 1.524 . S
C301 H304 0.999 . S
C302 H272 0.950 . S
C302 C301 1.524 . S
C302 C303 1.415 . S
C303 H273 0.950 . S
C303 C298 1.363 . S
C303 C302 1.415 . S
H304 C301 0.999 . S
H305 C286 0.913 . S
H306 C324 0.951 . S
H307 C326 0.951 . S
H308 C328 0.950 . S
H309 C329 0.950 . S
H310 C331 0.950 . S
H311 C334 0.950 . S
H312 C335 0.950 . S
H313 C337 0.950 . S
H314 C338 0.950 . S
H315 C339 0.951 . S
H316 C341 0.951 . S
H317 C343 0.950 . S
H318 C344 0.950 . S
H319 C346 0.950 . S
H320 C349 0.950 . S
H321 C350 0.950 . S
H322 C352 0.950 . S
H323 C353 0.950 . S
C324 H306 0.951 . S
C324 C325 1.366 . S
C324 C326 1.388 . S
C325 C324 1.366 . S
C325 C329 1.385 . S
C326 H307 0.951 . S
C326 C324 1.388 . S
C326 C327 1.366 . S
C327 C326 1.366 . S
C327 C328 1.414 . S
C327 C330 1.499 . S
C328 H308 0.950 . S
C328 C327 1.414 . S
C328 C329 1.374 . S
C329 H309 0.950 . S
C329 C325 1.385 . S
C329 C328 1.374 . S
C330 C327 1.499 . S
C330 C331 1.373 . S
C330 C332 1.389 . S
C331 H310 0.950 . S
C331 C330 1.373 . S
C331 C347 1.377 . S
C332 C330 1.389 . S
C332 C333 1.524 . S
C332 C346 1.377 . S
C333 C332 1.524 . S
C333 C334 1.397 . S
C333 C338 1.363 . S
C334 H311 0.950 . S
C334 C333 1.397 . S
C334 C335 1.334 . S
C335 H312 0.950 . S
C335 C334 1.334 . S
C335 C336 1.287 . S
C336 C335 1.287 . S
C336 C337 1.524 . S
C336 H355 0.913 . S
C337 H313 0.950 . S
C337 C336 1.524 . S
C337 C338 1.415 . S
C338 H314 0.950 . S
C338 C333 1.363 . S
C338 C337 1.415 . S
C339 H315 0.951 . S
C339 C340 1.366 . S
C339 C341 1.388 . S
C340 C339 1.366 . S
C340 C344 1.385 . S
C341 H316 0.951 . S
C341 C339 1.388 . S
C341 C342 1.366 . S
C342 C341 1.366 . S
C342 C343 1.414 . S
C342 C345 1.499 . S
C343 H317 0.950 . S
C343 C342 1.414 . S
C343 C344 1.374 . S
C344 H318 0.950 . S
C344 C340 1.385 . S
C344 C343 1.374 . S
C345 C342 1.499 . S
C345 C346 1.373 . S
C345 C347 1.389 . S
C346 H319 0.950 . S
C346 C332 1.377 . S
C346 C345 1.373 . S
C347 C331 1.377 . S
C347 C345 1.389 . S
C347 C348 1.524 . S
C348 C347 1.524 . S
C348 C349 1.397 . S
C348 C353 1.363 . S
C349 H320 0.950 . S
C349 C348 1.397 . S
C349 C350 1.334 . S
C350 H321 0.950 . S
C350 C349 1.334 . S
C350 C351 1.287 . S
C351 C350 1.287 . S
C351 C352 1.524 . S
C351 H354 0.999 . S
C352 H322 0.950 . S
C352 C351 1.524 . S
C352 C353 1.415 . S
C353 H323 0.950 . S
C353 C348 1.363 . S
C353 C352 1.415 . S
H354 C351 0.999 . S
H355 C336 0.913 . S
H356 C374 0.951 . S
H357 C376 0.951 . S
H358 C378 0.950 . S
H359 C379 0.950 . S
H360 C381 0.950 . S
H361 C384 0.950 . S
H362 C385 0.950 . S
H363 C387 0.950 . S
H364 C388 0.950 . S
H365 C389 0.951 . S
H366 C391 0.951 . S
H367 C393 0.950 . S
H368 C394 0.950 . S
H369 C396 0.950 . S
H370 C399 0.950 . S
H371 C400 0.950 . S
H372 C402 0.950 . S
H373 C403 0.950 . S
C374 H356 0.951 . S
C374 C375 1.366 . S
C374 C376 1.388 . S
C375 C374 1.366 . S
C375 C379 1.385 . S
C376 H357 0.951 . S
C376 C374 1.388 . S
C376 C377 1.366 . S
C377 C376 1.366 . S
C377 C378 1.414 . S
C377 C380 1.499 1_554 S
C378 H358 0.950 . S
C378 C377 1.414 . S
C378 C379 1.374 . S
C379 H359 0.950 . S
C379 C375 1.385 . S
C379 C378 1.374 . S
C380 C377 1.499 1_556 S
C380 C381 1.373 . S
C380 C382 1.389 . S
C381 H360 0.950 . S
C381 C380 1.373 . S
C381 C397 1.377 . S
C382 C380 1.389 . S
C382 C383 1.524 . S
C382 C396 1.377 . S
C383 C382 1.524 . S
C383 C384 1.397 1_556 S
C383 C388 1.363 . S
C384 H361 0.950 . S
C384 C383 1.397 1_554 S
C384 C385 1.334 . S
C385 H362 0.950 . S
C385 C384 1.334 . S
C385 C386 1.287 . S
C386 C385 1.287 . S
C386 C387 1.524 1_554 S
C386 H405 0.913 . S
C387 H363 0.950 . S
C387 C386 1.524 1_556 S
C387 C388 1.415 . S
C388 H364 0.950 . S
C388 C383 1.363 . S
C388 C387 1.415 . S
C389 H365 0.951 . S
C389 C390 1.366 . S
C389 C391 1.388 . S
C390 C389 1.366 . S
C390 C394 1.385 . S
C391 H366 0.951 . S
C391 C389 1.388 . S
C391 C392 1.366 . S
C392 C391 1.366 . S
C392 C393 1.414 . S
C392 C395 1.499 . S
C393 H367 0.950 . S
C393 C392 1.414 . S
C393 C394 1.374 . S
C394 H368 0.950 . S
C394 C390 1.385 . S
C394 C393 1.374 . S
C395 C392 1.499 . S
C395 C396 1.373 . S
C395 C397 1.389 . S
C396 H369 0.950 . S
C396 C382 1.377 . S
C396 C395 1.373 . S
C397 C381 1.377 . S
C397 C395 1.389 . S
C397 C398 1.524 . S
C398 C397 1.524 . S
C398 C399 1.397 . S
C398 C403 1.363 . S
C399 H370 0.950 . S
C399 C398 1.397 . S
C399 C400 1.334 . S
C400 H371 0.950 . S
C400 C399 1.334 . S
C400 C401 1.287 . S
C401 C400 1.287 . S
C401 C402 1.524 . S
C401 H404 0.999 . S
C402 H372 0.950 . S
C402 C401 1.524 . S
C402 C403 1.415 . S
C403 H373 0.950 . S
C403 C398 1.363 . S
C403 C402 1.415 . S
H404 C401 0.999 . S
H405 C386 0.913 . S
H406 C424 0.951 . S
H407 C426 0.951 . S
H408 C428 0.950 . S
H409 C429 0.950 . S
H410 C431 0.950 . S
H411 C434 0.950 . S
H412 C435 0.950 . S
H413 C437 0.950 . S
H414 C438 0.950 . S
H415 C439 0.951 . S
H416 C441 0.951 . S
H417 C443 0.950 . S
H418 C444 0.950 . S
H419 C446 0.950 . S
H420 C449 0.950 . S
H421 C450 0.950 . S
H422 C452 0.950 . S
H423 C453 0.950 . S
C424 H406 0.951 . S
C424 C425 1.366 . S
C424 C426 1.388 . S
C425 C424 1.366 . S
C425 C429 1.385 . S
C426 H407 0.951 . S
C426 C424 1.388 . S
C426 C427 1.366 . S
C427 C426 1.366 . S
C427 C428 1.414 . S
C427 C430 1.499 . S
C428 H408 0.950 . S
C428 C427 1.414 . S
C428 C429 1.374 . S
C429 H409 0.950 . S
C429 C425 1.385 . S
C429 C428 1.374 . S
C430 C427 1.499 . S
C430 C431 1.373 . S
C430 C432 1.389 . S
C431 H410 0.950 . S
C431 C430 1.373 . S
C431 C447 1.377 . S
C432 C430 1.389 . S
C432 C433 1.524 . S
C432 C446 1.377 . S
C433 C432 1.524 . S
C433 C434 1.397 . S
C433 C438 1.363 . S
C434 H411 0.950 . S
C434 C433 1.397 . S
C434 C435 1.334 . S
C435 H412 0.950 . S
C435 C434 1.334 . S
C435 C436 1.287 . S
C436 C435 1.287 . S
C436 C437 1.524 . S
C436 H455 0.913 . S
C437 H413 0.950 . S
C437 C436 1.524 . S
C437 C438 1.415 . S
C438 H414 0.950 . S
C438 C433 1.363 . S
C438 C437 1.415 . S
C439 H415 0.951 . S
C439 C440 1.366 . S
C439 C441 1.388 1_556 S
C440 C439 1.366 . S
C440 C444 1.385 1_556 S
C441 H416 0.951 . S
C441 C439 1.388 1_554 S
C441 C442 1.366 . S
C442 C441 1.366 . S
C442 C443 1.414 . S
C442 C445 1.499 . S
C443 H417 0.950 . S
C443 C442 1.414 . S
C443 C444 1.374 . S
C444 H418 0.950 . S
C444 C440 1.385 1_554 S
C444 C443 1.374 . S
C445 C442 1.499 . S
C445 C446 1.373 . S
C445 C447 1.389 . S
C446 H419 0.950 . S
C446 C432 1.377 . S
C446 C445 1.373 . S
C447 C431 1.377 . S
C447 C445 1.389 . S
C447 C448 1.524 . S
C448 C447 1.524 . S
C448 C449 1.397 . S
C448 C453 1.363 . S
C449 H420 0.950 . S
C449 C448 1.397 . S
C449 C450 1.334 . S
C450 H421 0.950 . S
C450 C449 1.334 . S
C450 C451 1.287 . S
C451 C450 1.287 . S
C451 C452 1.524 . S
C451 H454 0.999 . S
C452 H422 0.950 . S
C452 C451 1.524 . S
C452 C453 1.415 . S
C453 H423 0.950 . S
C453 C448 1.363 . S
C453 C452 1.415 . S
H454 C451 0.999 . S
H455 C436 0.913 . S
H456 C474 0.951 . S
H457 C476 0.951 . S
H458 C478 0.950 . S
H459 C479 0.950 . S
H460 C481 0.950 . S
H461 C484 0.950 . S
H462 C485 0.950 . S
H463 C487 0.950 . S
H464 C488 0.950 . S
H465 C489 0.951 . S
H466 C491 0.951 . S
H467 C493 0.950 . S
H468 C494 0.950 . S
H469 C496 0.950 . S
H470 C499 0.950 . S
H471 C500 0.950 . S
H472 C502 0.950 . S
H473 C503 0.950 . S
C474 H456 0.951 . S
C474 C475 1.366 . S
C474 C476 1.388 . S
C475 C474 1.366 . S
C475 C479 1.385 . S
C476 H457 0.951 . S
C476 C474 1.388 . S
C476 C477 1.366 . S
C477 C476 1.366 . S
C477 C478 1.414 . S
C477 C480 1.499 . S
C478 H458 0.950 . S
C478 C477 1.414 . S
C478 C479 1.374 . S
C479 H459 0.950 . S
C479 C475 1.385 . S
C479 C478 1.374 . S
C480 C477 1.499 . S
C480 C481 1.373 . S
C480 C482 1.389 . S
C481 H460 0.950 . S
C481 C480 1.373 . S
C481 C497 1.377 . S
C482 C480 1.389 . S
C482 C483 1.524 . S
C482 C496 1.377 . S
C483 C482 1.524 . S
C483 C484 1.397 . S
C483 C488 1.363 . S
C484 H461 0.950 . S
C484 C483 1.397 . S
C484 C485 1.334 . S
C485 H462 0.950 . S
C485 C484 1.334 . S
C485 C486 1.287 . S
C486 C485 1.287 . S
C486 C487 1.524 . S
C486 H505 0.913 . S
C487 H463 0.950 . S
C487 C486 1.524 . S
C487 C488 1.415 . S
C488 H464 0.950 . S
C488 C483 1.363 . S
C488 C487 1.415 . S
C489 H465 0.951 . S
C489 C490 1.366 . S
C489 C491 1.388 . S
C490 C489 1.366 . S
C490 C494 1.385 . S
C491 H466 0.951 . S
C491 C489 1.388 . S
C491 C492 1.366 . S
C492 C491 1.366 . S
C492 C493 1.414 . S
C492 C495 1.499 . S
C493 H467 0.950 . S
C493 C492 1.414 . S
C493 C494 1.374 . S
C494 H468 0.950 . S
C494 C490 1.385 . S
C494 C493 1.374 . S
C495 C492 1.499 . S
C495 C496 1.373 . S
C495 C497 1.389 . S
C496 H469 0.950 . S
C496 C482 1.377 . S
C496 C495 1.373 . S
C497 C481 1.377 . S
C497 C495 1.389 . S
C497 C498 1.524 . S
C498 C497 1.524 . S
C498 C499 1.397 . S
C498 C503 1.363 . S
C499 H470 0.950 . S
C499 C498 1.397 . S
C499 C500 1.334 1_554 S
C500 H471 0.950 . S
C500 C499 1.334 1_556 S
C500 C501 1.287 . S
C501 C500 1.287 . S
C501 C502 1.524 1_556 S
C501 H504 0.999 . S
C502 H472 0.950 . S
C502 C501 1.524 1_554 S
C502 C503 1.415 . S
C503 H473 0.950 . S
C503 C498 1.363 . S
C503 C502 1.415 . S
H504 C501 0.999 . S
H505 C486 0.913 . S
H506 C524 0.951 . S
H507 C526 0.951 . S
H508 C528 0.950 . S
H509 C529 0.950 . S
H510 C531 0.950 . S
H511 C534 0.950 . S
H512 C535 0.950 . S
H513 C537 0.950 . S
H514 C538 0.950 . S
H515 C539 0.951 . S
H516 C541 0.951 . S
H517 C543 0.950 . S
H518 C544 0.950 . S
H519 C546 0.950 . S
H520 C549 0.950 . S
H521 C550 0.950 . S
H522 C552 0.950 . S
H523 C553 0.950 . S
C524 H506 0.951 . S
C524 C525 1.366 . S
C524 C526 1.388 . S
C525 C524 1.366 . S
C525 C529 1.385 . S
C526 H507 0.951 . S
C526 C524 1.388 . S
C526 C527 1.366 . S
C527 C526 1.366 . S
C527 C528 1.414 . S
C527 C530 1.499 . S
C528 H508 0.950 . S
C528 C527 1.414 . S
C528 C529 1.374 . S
C529 H509 0.950 . S
C529 C525 1.385 . S
C529 C528 1.374 . S
C530 C527 1.499 . S
C530 C531 1.373 . S
C530 C532 1.389 . S
C531 H510 0.950 . S
C531 C530 1.373 . S
C531 C547 1.377 . S
C532 C530 1.389 . S
C532 C533 1.524 . S
C532 C546 1.377 . S
C533 C532 1.524 . S
C533 C534 1.397 . S
C533 C538 1.363 . S
C534 H511 0.950 . S
C534 C533 1.397 . S
C534 C535 1.334 . S
C535 H512 0.950 . S
C535 C534 1.334 . S
C535 C536 1.287 . S
C536 C535 1.287 . S
C536 C537 1.524 . S
C536 H555 0.913 . S
C537 H513 0.950 . S
C537 C536 1.524 . S
C537 C538 1.415 . S
C538 H514 0.950 . S
C538 C533 1.363 . S
C538 C537 1.415 . S
C539 H515 0.951 . S
C539 C540 1.366 . S
C539 C541 1.388 . S
C540 C539 1.366 . S
C540 C544 1.385 . S
C541 H516 0.951 . S
C541 C539 1.388 . S
C541 C542 1.366 . S
C542 C541 1.366 . S
C542 C543 1.414 . S
C542 C545 1.499 . S
C543 H517 0.950 . S
C543 C542 1.414 . S
C543 C544 1.374 . S
C544 H518 0.950 . S
C544 C540 1.385 . S
C544 C543 1.374 . S
C545 C542 1.499 . S
C545 C546 1.373 . S
C545 C547 1.389 . S
C546 H519 0.950 . S
C546 C532 1.377 . S
C546 C545 1.373 . S
C547 C531 1.377 . S
C547 C545 1.389 . S
C547 C548 1.524 . S
C548 C547 1.524 . S
C548 C549 1.397 . S
C548 C553 1.363 . S
C549 H520 0.950 . S
C549 C548 1.397 . S
C549 C550 1.334 . S
C550 H521 0.950 . S
C550 C549 1.334 . S
C550 C551 1.287 . S
C551 C550 1.287 . S
C551 C552 1.524 . S
C551 H554 0.999 . S
C552 H522 0.950 . S
C552 C551 1.524 . S
C552 C553 1.415 . S
C553 H523 0.950 . S
C553 C548 1.363 . S
C553 C552 1.415 . S
H554 C551 0.999 . S
H555 C536 0.913 . S
H556 C574 0.951 . S
H557 C576 0.951 . S
H558 C578 0.950 . S
H559 C579 0.950 . S
H560 C581 0.950 . S
H561 C584 0.950 . S
H562 C585 0.950 . S
H563 C587 0.950 . S
H564 C588 0.950 . S
H565 C589 0.951 . S
H566 C591 0.951 . S
H567 C593 0.950 . S
H568 C594 0.950 . S
H569 C596 0.950 . S
H570 C599 0.950 . S
H571 C600 0.950 . S
H572 C602 0.950 . S
H573 C603 0.950 . S
C574 H556 0.951 . S
C574 C575 1.366 . S
C574 C576 1.388 . S
C575 C574 1.366 . S
C575 C579 1.385 . S
C576 H557 0.951 . S
C576 C574 1.388 . S
C576 C577 1.366 . S
C577 C576 1.366 . S
C577 C578 1.414 . S
C577 C580 1.499 . S
C578 H558 0.950 . S
C578 C577 1.414 . S
C578 C579 1.374 . S
C579 H559 0.950 . S
C579 C575 1.385 . S
C579 C578 1.374 . S
C580 C577 1.499 . S
C580 C581 1.373 . S
C580 C582 1.389 . S
C581 H560 0.950 . S
C581 C580 1.373 . S
C581 C597 1.377 . S
C582 C580 1.389 . S
C582 C583 1.524 . S
C582 C596 1.377 . S
C583 C582 1.524 . S
C583 C584 1.397 . S
C583 C588 1.363 . S
C584 H561 0.950 . S
C584 C583 1.397 . S
C584 C585 1.334 . S
C585 H562 0.950 . S
C585 C584 1.334 . S
C585 C586 1.287 . S
C586 C585 1.287 . S
C586 C587 1.524 . S
C586 H605 0.913 . S
C587 H563 0.950 . S
C587 C586 1.524 . S
C587 C588 1.415 . S
C588 H564 0.950 . S
C588 C583 1.363 . S
C588 C587 1.415 . S
C589 H565 0.951 . S
C589 C590 1.366 . S
C589 C591 1.388 . S
C590 C589 1.366 . S
C590 C594 1.385 . S
C591 H566 0.951 . S
C591 C589 1.388 . S
C591 C592 1.366 . S
C592 C591 1.366 . S
C592 C593 1.414 . S
C592 C595 1.499 . S
C593 H567 0.950 . S
C593 C592 1.414 . S
C593 C594 1.374 . S
C594 H568 0.950 . S
C594 C590 1.385 . S
C594 C593 1.374 . S
C595 C592 1.499 . S
C595 C596 1.373 . S
C595 C597 1.389 . S
C596 H569 0.950 . S
C596 C582 1.377 . S
C596 C595 1.373 . S
C597 C581 1.377 . S
C597 C595 1.389 . S
C597 C598 1.524 . S
C598 C597 1.524 . S
C598 C599 1.397 . S
C598 C603 1.363 . S
C599 H570 0.950 . S
C599 C598 1.397 . S
C599 C600 1.334 . S
C600 H571 0.950 . S
C600 C599 1.334 . S
C600 C601 1.287 . S
C601 C600 1.287 . S
C601 C602 1.524 . S
C601 H604 0.999 . S
C602 H572 0.950 . S
C602 C601 1.524 . S
C602 C603 1.415 . S
C603 H573 0.950 . S
C603 C598 1.363 . S
C603 C602 1.415 . S
H604 C601 0.999 . S
H605 C586 0.913 . S
H606 C624 0.951 . S
H607 C626 0.951 . S
H608 C628 0.950 . S
H609 C629 0.950 . S
H610 C631 0.950 . S
H611 C634 0.950 . S
H612 C635 0.950 . S
H613 C637 0.950 . S
H614 C638 0.950 . S
H615 C639 0.951 . S
H616 C641 0.951 . S
H617 C643 0.950 . S
H618 C644 0.950 . S
H619 C646 0.950 . S
H620 C649 0.950 . S
H621 C650 0.950 . S
H622 C652 0.950 . S
H623 C653 0.950 . S
C624 H606 0.951 . S
C624 C625 1.366 . S
C624 C626 1.388 . S
C625 C624 1.366 . S
C625 C629 1.385 . S
C626 H607 0.951 . S
C626 C624 1.388 . S
C626 C627 1.366 . S
C627 C626 1.366 . S
C627 C628 1.414 . S
C627 C630 1.499 . S
C628 H608 0.950 . S
C628 C627 1.414 . S
C628 C629 1.374 . S
C629 H609 0.950 . S
C629 C625 1.385 . S
C629 C628 1.374 . S
C630 C627 1.499 . S
C630 C631 1.373 . S
C630 C632 1.389 . S
C631 H610 0.950 . S
C631 C630 1.373 . S
C631 C647 1.377 . S
C632 C630 1.389 . S
C632 C633 1.524 . S
C632 C646 1.377 . S
C633 C632 1.524 . S
C633 C634 1.397 . S
C633 C638 1.363 . S
C634 H611 0.950 . S
C634 C633 1.397 . S
C634 C635 1.334 . S
C635 H612 0.950 . S
C635 C634 1.334 . S
C635 C636 1.287 . S
C636 C635 1.287 . S
C636 C637 1.524 . S
C636 H655 0.913 . S
C637 H613 0.950 . S
C637 C636 1.524 . S
C637 C638 1.415 . S
C638 H614 0.950 . S
C638 C633 1.363 . S
C638 C637 1.415 . S
C639 H615 0.951 . S
C639 C640 1.366 . S
C639 C641 1.388 . S
C640 C639 1.366 . S
C640 C644 1.385 . S
C641 H616 0.951 . S
C641 C639 1.388 . S
C641 C642 1.366 . S
C642 C641 1.366 . S
C642 C643 1.414 . S
C642 C645 1.499 . S
C643 H617 0.950 . S
C643 C642 1.414 . S
C643 C644 1.374 . S
C644 H618 0.950 . S
C644 C640 1.385 . S
C644 C643 1.374 . S
C645 C642 1.499 . S
C645 C646 1.373 . S
C645 C647 1.389 . S
C646 H619 0.950 . S
C646 C632 1.377 . S
C646 C645 1.373 . S
C647 C631 1.377 . S
C647 C645 1.389 . S
C647 C648 1.524 . S
C648 C647 1.524 . S
C648 C649 1.397 . S
C648 C653 1.363 . S
C649 H620 0.950 . S
C649 C648 1.397 . S
C649 C650 1.334 . S
C650 H621 0.950 . S
C650 C649 1.334 . S
C650 C651 1.287 . S
C651 C650 1.287 . S
C651 C652 1.524 . S
C651 H654 0.999 . S
C652 H622 0.950 . S
C652 C651 1.524 . S
C652 C653 1.415 . S
C653 H623 0.950 . S
C653 C648 1.363 . S
C653 C652 1.415 . S
H654 C651 0.999 . S
H655 C636 0.913 . S
H656 C674 0.951 . S
H657 C676 0.951 . S
H658 C678 0.950 . S
H659 C679 0.950 . S
H660 C681 0.950 . S
H661 C684 0.950 . S
H662 C685 0.950 . S
H663 C687 0.950 . S
H664 C688 0.950 . S
H665 C689 0.951 . S
H666 C691 0.951 . S
H667 C693 0.950 . S
H668 C694 0.950 . S
H669 C696 0.950 . S
H670 C699 0.950 . S
H671 C700 0.950 . S
H672 C702 0.950 . S
H673 C703 0.950 . S
C674 H656 0.951 . S
C674 C675 1.366 . S
C674 C676 1.388 . S
C675 C674 1.366 . S
C675 C679 1.385 . S
C676 H657 0.951 . S
C676 C674 1.388 . S
C676 C677 1.366 . S
C677 C676 1.366 . S
C677 C678 1.414 . S
C677 C680 1.499 . S
C678 H658 0.950 . S
C678 C677 1.414 . S
C678 C679 1.374 . S
C679 H659 0.950 . S
C679 C675 1.385 . S
C679 C678 1.374 . S
C680 C677 1.499 . S
C680 C681 1.373 . S
C680 C682 1.389 . S
C681 H660 0.950 . S
C681 C680 1.373 . S
C681 C697 1.377 . S
C682 C680 1.389 . S
C682 C683 1.524 . S
C682 C696 1.377 . S
C683 C682 1.524 . S
C683 C684 1.397 . S
C683 C688 1.363 . S
C684 H661 0.950 . S
C684 C683 1.397 . S
C684 C685 1.334 . S
C685 H662 0.950 . S
C685 C684 1.334 . S
C685 C686 1.287 . S
C686 C685 1.287 . S
C686 C687 1.524 . S
C686 H705 0.913 . S
C687 H663 0.950 . S
C687 C686 1.524 . S
C687 C688 1.415 . S
C688 H664 0.950 . S
C688 C683 1.363 . S
C688 C687 1.415 . S
C689 H665 0.951 . S
C689 C690 1.366 . S
C689 C691 1.388 . S
C690 C689 1.366 . S
C690 C694 1.385 . S
C691 H666 0.951 . S
C691 C689 1.388 . S
C691 C692 1.366 . S
C692 C691 1.366 . S
C692 C693 1.414 . S
C692 C695 1.499 . S
C693 H667 0.950 . S
C693 C692 1.414 . S
C693 C694 1.374 . S
C694 H668 0.950 . S
C694 C690 1.385 . S
C694 C693 1.374 . S
C695 C692 1.499 . S
C695 C696 1.373 . S
C695 C697 1.389 . S
C696 H669 0.950 . S
C696 C682 1.377 . S
C696 C695 1.373 . S
C697 C681 1.377 . S
C697 C695 1.389 . S
C697 C698 1.524 . S
C698 C697 1.524 . S
C698 C699 1.397 . S
C698 C703 1.363 . S
C699 H670 0.950 . S
C699 C698 1.397 . S
C699 C700 1.334 . S
C700 H671 0.950 . S
C700 C699 1.334 . S
C700 C701 1.287 . S
C701 C700 1.287 . S
C701 C702 1.524 . S
C701 H704 0.999 . S
C702 H672 0.950 . S
C702 C701 1.524 . S
C702 C703 1.415 . S
C703 H673 0.950 . S
C703 C698 1.363 . S
C703 C702 1.415 . S
H704 C701 0.999 . S
H705 C686 0.913 . S
H706 C724 0.951 . S
H707 C726 0.951 . S
H708 C728 0.950 . S
H709 C729 0.950 . S
H710 C731 0.950 . S
H711 C734 0.950 . S
H712 C735 0.950 . S
H713 C737 0.950 . S
H714 C738 0.950 . S
H715 C739 0.951 . S
H716 C741 0.952 . S
H717 C743 0.950 . S
H718 C744 0.950 . S
H719 C746 0.950 . S
H720 C749 0.950 . S
H721 C750 0.950 . S
H722 C752 0.950 . S
H723 C753 0.950 . S
C724 H706 0.951 . S
C724 C725 1.366 . S
C724 C726 1.388 . S
C725 C724 1.366 . S
C725 C729 1.385 . S
C726 H707 0.951 . S
C726 C724 1.388 . S
C726 C727 1.366 . S
C727 C726 1.366 . S
C727 C728 1.414 . S
C727 C730 1.499 . S
C728 H708 0.950 . S
C728 C727 1.414 . S
C728 C729 1.374 . S
C729 H709 0.950 . S
C729 C725 1.385 . S
C729 C728 1.374 . S
C730 C727 1.499 . S
C730 C731 1.373 . S
C730 C732 1.389 . S
C731 H710 0.950 . S
C731 C730 1.373 . S
C731 C747 1.377 . S
C732 C730 1.389 . S
C732 C733 1.524 . S
C732 C746 1.377 . S
C733 C732 1.524 . S
C733 C734 1.397 . S
C733 C738 1.363 . S
C734 H711 0.950 . S
C734 C733 1.397 . S
C734 C735 1.334 . S
C735 H712 0.950 . S
C735 C734 1.334 . S
C735 C736 1.287 . S
C736 C735 1.287 . S
C736 C737 1.524 . S
C736 H755 0.913 . S
C737 H713 0.950 . S
C737 C736 1.524 . S
C737 C738 1.415 . S
C738 H714 0.950 . S
C738 C733 1.363 . S
C738 C737 1.415 . S
C739 H715 0.951 . S
C739 C740 1.366 . S
C739 C741 1.391 . S
C740 C739 1.366 . S
C740 C744 1.385 1_554 S
C741 H716 0.952 . S
C741 C739 1.391 . S
C741 C742 1.361 1_554 S
C742 C741 1.361 1_556 S
C742 C743 1.414 . S
C742 C745 1.499 . S
C743 H717 0.950 . S
C743 C742 1.414 . S
C743 C744 1.374 . S
C744 H718 0.950 . S
C744 C740 1.385 1_556 S
C744 C743 1.374 . S
C745 C742 1.499 . S
C745 C746 1.373 . S
C745 C747 1.389 . S
C746 H719 0.950 . S
C746 C732 1.377 . S
C746 C745 1.373 . S
C747 C731 1.377 . S
C747 C745 1.389 . S
C747 C748 1.524 1_556 S
C748 C747 1.524 1_554 S
C748 C749 1.397 . S
C748 C753 1.363 . S
C749 H720 0.950 . S
C749 C748 1.397 . S
C749 C750 1.334 . S
C750 H721 0.950 . S
C750 C749 1.334 . S
C750 C751 1.287 . S
C751 C750 1.287 . S
C751 C752 1.524 . S
C751 H754 0.999 . S
C752 H722 0.950 . S
C752 C751 1.524 . S
C752 C753 1.415 . S
C753 H723 0.950 . S
C753 C748 1.363 . S
C753 C752 1.415 . S
H754 C751 0.999 . S
H755 C736 0.913 . S
H756 C774 0.951 . S
H757 C776 0.951 . S
H758 C778 0.950 . S
H759 C779 0.950 . S
H760 C781 0.950 . S
H761 C784 0.950 . S
H762 C785 0.950 . S
H763 C787 0.950 . S
H764 C788 0.950 . S
H765 C789 0.951 . S
H766 C791 0.951 . S
H767 C793 0.950 . S
H768 C794 0.950 . S
H769 C796 0.950 . S
H770 C799 0.950 . S
H771 C800 0.950 . S
H772 C802 0.950 . S
H773 C803 0.950 . S
C774 H756 0.951 . S
C774 C775 1.366 . S
C774 C776 1.388 . S
C775 C774 1.366 . S
C775 C779 1.385 . S
C776 H757 0.951 . S
C776 C774 1.388 . S
C776 C777 1.366 . S
C777 C776 1.366 . S
C777 C778 1.414 . S
C777 C780 1.499 . S
C778 H758 0.950 . S
C778 C777 1.414 . S
C778 C779 1.374 . S
C779 H759 0.950 . S
C779 C775 1.385 . S
C779 C778 1.374 . S
C780 C777 1.499 . S
C780 C781 1.373 . S
C780 C782 1.389 . S
C781 H760 0.950 . S
C781 C780 1.373 . S
C781 C797 1.377 . S
C782 C780 1.389 . S
C782 C783 1.524 . S
C782 C796 1.377 . S
C783 C782 1.524 . S
C783 C784 1.397 . S
C783 C788 1.363 . S
C784 H761 0.950 . S
C784 C783 1.397 . S
C784 C785 1.334 . S
C785 H762 0.950 . S
C785 C784 1.334 . S
C785 C786 1.287 . S
C786 C785 1.287 . S
C786 C787 1.524 . S
C786 H805 0.913 . S
C787 H763 0.950 . S
C787 C786 1.524 . S
C787 C788 1.415 . S
C788 H764 0.950 . S
C788 C783 1.363 . S
C788 C787 1.415 . S
C789 H765 0.951 . S
C789 C790 1.366 . S
C789 C791 1.388 . S
C790 C789 1.366 . S
C790 C794 1.385 . S
C791 H766 0.951 . S
C791 C789 1.388 . S
C791 C792 1.366 . S
C792 C791 1.366 . S
C792 C793 1.414 . S
C792 C795 1.499 . S
C793 H767 0.950 . S
C793 C792 1.414 . S
C793 C794 1.374 . S
C794 H768 0.950 . S
C794 C790 1.385 . S
C794 C793 1.374 . S
C795 C792 1.499 . S
C795 C796 1.373 . S
C795 C797 1.389 . S
C796 H769 0.950 . S
C796 C782 1.377 . S
C796 C795 1.373 . S
C797 C781 1.377 . S
C797 C795 1.389 . S
C797 C798 1.524 . S
C798 C797 1.524 . S
C798 C799 1.397 . S
C798 C803 1.363 . S
C799 H770 0.950 . S
C799 C798 1.397 . S
C799 C800 1.334 . S
C800 H771 0.950 . S
C800 C799 1.334 . S
C800 C801 1.287 . S
C801 C800 1.287 . S
C801 C802 1.524 . S
C801 H804 0.999 . S
C802 H772 0.950 . S
C802 C801 1.524 . S
C802 C803 1.415 . S
C803 H773 0.950 . S
C803 C798 1.363 . S
C803 C802 1.415 . S
H804 C801 0.999 . S
H805 C786 0.913 . S
H806 C824 0.951 . S
H807 C826 0.951 . S
H808 C828 0.950 . S
H809 C829 0.950 . S
H810 C831 0.950 . S
H811 C834 0.950 . S
H812 C835 0.950 . S
H813 C837 0.950 . S
H814 C838 0.950 . S
H815 C839 0.951 . S
H816 C841 0.951 . S
H817 C843 0.950 . S
H818 C844 0.950 . S
H819 C846 0.950 . S
H820 C849 0.950 . S
H821 C850 0.950 . S
H822 C852 0.950 1_556 S
H823 C853 0.950 . S
C824 H806 0.951 . S
C824 C825 1.366 . S
C824 C826 1.388 . S
C825 C824 1.366 . S
C825 C829 1.385 . S
C826 H807 0.951 . S
C826 C824 1.388 . S
C826 C827 1.366 . S
C827 C826 1.366 . S
C827 C828 1.414 . S
C827 C830 1.499 . S
C828 H808 0.950 . S
C828 C827 1.414 . S
C828 C829 1.374 . S
C829 H809 0.950 . S
C829 C825 1.385 . S
C829 C828 1.374 . S
C830 C827 1.499 . S
C830 C831 1.373 . S
C830 C832 1.389 . S
C831 H810 0.950 . S
C831 C830 1.373 . S
C831 C847 1.377 . S
C832 C830 1.389 . S
C832 C833 1.524 . S
C832 C846 1.377 . S
C833 C832 1.524 . S
C833 C834 1.397 . S
C833 C838 1.363 . S
C834 H811 0.950 . S
C834 C833 1.397 . S
C834 C835 1.334 . S
C835 H812 0.950 . S
C835 C834 1.334 . S
C835 C836 1.287 . S
C836 C835 1.287 . S
C836 C837 1.524 . S
C836 H855 0.913 . S
C837 H813 0.950 . S
C837 C836 1.524 . S
C837 C838 1.415 . S
C838 H814 0.950 . S
C838 C833 1.363 . S
C838 C837 1.415 . S
C839 H815 0.951 . S
C839 C840 1.366 . S
C839 C841 1.388 . S
C840 C839 1.366 . S
C840 C844 1.385 . S
C841 H816 0.951 . S
C841 C839 1.388 . S
C841 C842 1.366 . S
C842 C841 1.366 . S
C842 C843 1.414 . S
C842 C845 1.499 1_554 S
C843 H817 0.950 . S
C843 C842 1.414 . S
C843 C844 1.374 . S
C844 H818 0.950 . S
C844 C840 1.385 . S
C844 C843 1.374 . S
C845 C842 1.499 1_556 S
C845 C846 1.373 . S
C845 C847 1.389 . S
C846 H819 0.950 . S
C846 C832 1.377 . S
C846 C845 1.373 . S
C847 C831 1.377 . S
C847 C845 1.389 . S
C847 C848 1.524 . S
C848 C847 1.524 . S
C848 C849 1.397 1_556 S
C848 C853 1.363 . S
C849 H820 0.950 . S
C849 C848 1.397 1_554 S
C849 C850 1.334 . S
C850 H821 0.950 . S
C850 C849 1.334 . S
C850 C851 1.287 . S
C851 C850 1.287 . S
C851 C852 1.524 . S
C851 H854 0.999 . S
C852 H822 0.950 1_554 S
C852 C851 1.524 . S
C852 C853 1.415 1_554 S
C853 H823 0.950 . S
C853 C848 1.363 . S
C853 C852 1.415 1_556 S
H854 C851 0.999 . S
H855 C836 0.913 . S
H856 C874 0.951 . S
H857 C876 0.951 . S
H858 C878 0.950 . S
H859 C879 0.950 . S
H860 C881 0.950 . S
H861 C884 0.950 . S
H862 C885 0.950 . S
H863 C887 0.950 . S
H864 C888 0.950 . S
H865 C889 0.951 . S
H866 C891 0.951 . S
H867 C893 0.950 . S
H868 C894 0.950 . S
H869 C896 0.950 . S
H870 C899 0.950 . S
H871 C900 0.950 . S
H872 C902 0.950 . S
H873 C903 0.950 . S
C874 H856 0.951 . S
C874 C875 1.366 . S
C874 C876 1.388 1_556 S
C875 C874 1.366 . S
C875 C879 1.385 . S
C876 H857 0.951 . S
C876 C874 1.388 1_554 S
C876 C877 1.366 . S
C877 C876 1.366 . S
C877 C878 1.414 . S
C877 C880 1.499 . S
C878 H858 0.950 . S
C878 C877 1.414 . S
C878 C879 1.374 1_554 S
C879 H859 0.950 . S
C879 C875 1.385 . S
C879 C878 1.374 1_556 S
C880 C877 1.499 . S
C880 C881 1.373 . S
C880 C882 1.389 . S
C881 H860 0.950 . S
C881 C880 1.373 . S
C881 C897 1.377 . S
C882 C880 1.389 . S
C882 C883 1.524 . S
C882 C896 1.377 . S
C883 C882 1.524 . S
C883 C884 1.397 . S
C883 C888 1.363 . S
C884 H861 0.950 . S
C884 C883 1.397 . S
C884 C885 1.334 . S
C885 H862 0.950 . S
C885 C884 1.334 . S
C885 C886 1.287 . S
C886 C885 1.287 . S
C886 C887 1.524 . S
C886 H905 0.913 . S
C887 H863 0.950 . S
C887 C886 1.524 . S
C887 C888 1.415 . S
C888 H864 0.950 . S
C888 C883 1.363 . S
C888 C887 1.415 . S
C889 H865 0.951 . S
C889 C890 1.366 . S
C889 C891 1.388 . S
C890 C889 1.366 . S
C890 C894 1.385 . S
C891 H866 0.951 . S
C891 C889 1.388 . S
C891 C892 1.366 . S
C892 C891 1.366 . S
C892 C893 1.414 . S
C892 C895 1.499 . S
C893 H867 0.950 . S
C893 C892 1.414 . S
C893 C894 1.374 . S
C894 H868 0.950 . S
C894 C890 1.385 . S
C894 C893 1.374 . S
C895 C892 1.499 . S
C895 C896 1.373 . S
C895 C897 1.389 . S
C896 H869 0.950 . S
C896 C882 1.377 . S
C896 C895 1.373 . S
C897 C881 1.377 . S
C897 C895 1.389 . S
C897 C898 1.524 . S
C898 C897 1.524 . S
C898 C899 1.397 . S
C898 C903 1.363 . S
C899 H870 0.950 . S
C899 C898 1.397 . S
C899 C900 1.334 . S
C900 H871 0.950 . S
C900 C899 1.334 . S
C900 C901 1.287 . S
C901 C900 1.287 . S
C901 C902 1.524 . S
C901 H904 0.999 . S
C902 H872 0.950 . S
C902 C901 1.524 . S
C902 C903 1.415 . S
C903 H873 0.950 . S
C903 C898 1.363 . S
C903 C902 1.415 . S
H904 C901 0.999 . S
H905 C886 0.913 . S
H906 C924 0.951 . S
H907 C926 0.951 . S
H908 C928 0.950 . S
H909 C929 0.950 . S
H910 C931 0.950 . S
H911 C934 0.950 . S
H912 C935 0.950 . S
H913 C937 0.950 . S
H914 C938 0.950 . S
H915 C939 0.951 . S
H916 C941 0.951 . S
H917 C943 0.950 . S
H918 C944 0.950 . S
H919 C946 0.950 . S
H920 C949 0.950 . S
H921 C950 0.950 . S
H922 C952 0.950 . S
H923 C953 0.950 . S
C924 H906 0.951 . S
C924 C925 1.366 . S
C924 C926 1.388 . S
C925 C924 1.366 . S
C925 C929 1.385 . S
C926 H907 0.951 . S
C926 C924 1.388 . S
C926 C927 1.366 . S
C927 C926 1.366 . S
C927 C928 1.414 . S
C927 C930 1.499 . S
C928 H908 0.950 . S
C928 C927 1.414 . S
C928 C929 1.374 . S
C929 H909 0.950 . S
C929 C925 1.385 . S
C929 C928 1.374 . S
C930 C927 1.499 . S
C930 C931 1.373 . S
C930 C932 1.389 . S
C931 H910 0.950 . S
C931 C930 1.373 . S
C931 C947 1.377 . S
C932 C930 1.389 . S
C932 C933 1.524 . S
C932 C946 1.377 . S
C933 C932 1.524 . S
C933 C934 1.397 . S
C933 C938 1.363 . S
C934 H911 0.950 . S
C934 C933 1.397 . S
C934 C935 1.334 . S
C935 H912 0.950 . S
C935 C934 1.334 . S
C935 C936 1.287 . S
C936 C935 1.287 . S
C936 C937 1.524 . S
C936 H955 0.913 . S
C937 H913 0.950 . S
C937 C936 1.524 . S
C937 C938 1.415 . S
C938 H914 0.950 . S
C938 C933 1.363 . S
C938 C937 1.415 . S
C939 H915 0.951 . S
C939 C940 1.366 . S
C939 C941 1.388 . S
C940 C939 1.366 . S
C940 C944 1.385 . S
C941 H916 0.951 . S
C941 C939 1.388 . S
C941 C942 1.366 . S
C942 C941 1.366 . S
C942 C943 1.414 . S
C942 C945 1.499 . S
C943 H917 0.950 . S
C943 C942 1.414 . S
C943 C944 1.374 . S
C944 H918 0.950 . S
C944 C940 1.385 . S
C944 C943 1.374 . S
C945 C942 1.499 . S
C945 C946 1.373 . S
C945 C947 1.389 . S
C946 H919 0.950 . S
C946 C932 1.377 . S
C946 C945 1.373 . S
C947 C931 1.377 . S
C947 C945 1.389 . S
C947 C948 1.524 . S
C948 C947 1.524 . S
C948 C949 1.397 . S
C948 C953 1.363 . S
C949 H920 0.950 . S
C949 C948 1.397 . S
C949 C950 1.334 . S
C950 H921 0.950 . S
C950 C949 1.334 . S
C950 C951 1.287 . S
C951 C950 1.287 . S
C951 C952 1.524 . S
C951 H954 0.999 . S
C952 H922 0.950 . S
C952 C951 1.524 . S
C952 C953 1.415 . S
C953 H923 0.950 . S
C953 C948 1.363 . S
C953 C952 1.415 . S
H954 C951 0.999 . S
H955 C936 0.913 . S
H956 C974 0.951 . S
H957 C976 0.951 . S
H958 C978 0.950 . S
H959 C979 0.950 . S
H960 C981 0.950 . S
H961 C984 0.950 . S
H962 C985 0.950 . S
H963 C987 0.950 . S
H964 C988 0.950 . S
H965 C989 0.951 . S
H966 C991 0.951 . S
H967 C993 0.950 . S
H968 C994 0.950 . S
H969 C996 0.950 . S
H970 C999 0.950 . S
H971 C1000 0.950 . S
H972 C1002 0.950 . S
H973 C1003 0.950 . S
C974 H956 0.951 . S
C974 C975 1.366 . S
C974 C976 1.388 . S
C975 C974 1.366 . S
C975 C979 1.385 . S
C976 H957 0.951 . S
C976 C974 1.388 . S
C976 C977 1.366 . S
C977 C976 1.366 . S
C977 C978 1.414 . S
C977 C980 1.499 . S
C978 H958 0.950 . S
C978 C977 1.414 . S
C978 C979 1.374 . S
C979 H959 0.950 . S
C979 C975 1.385 . S
C979 C978 1.374 . S
C980 C977 1.499 . S
C980 C981 1.373 . S
C980 C982 1.389 . S
C981 H960 0.950 . S
C981 C980 1.373 . S
C981 C997 1.377 . S
C982 C980 1.389 . S
C982 C983 1.524 . S
C982 C996 1.377 . S
C983 C982 1.524 . S
C983 C984 1.397 . S
C983 C988 1.363 . S
C984 H961 0.950 . S
C984 C983 1.397 . S
C984 C985 1.334 . S
C985 H962 0.950 . S
C985 C984 1.334 . S
C985 C986 1.287 . S
C986 C985 1.287 . S
C986 C987 1.524 . S
C986 H1005 0.913 . S
C987 H963 0.950 . S
C987 C986 1.524 . S
C987 C988 1.415 . S
C988 H964 0.950 . S
C988 C983 1.363 . S
C988 C987 1.415 . S
C989 H965 0.951 . S
C989 C990 1.366 . S
C989 C991 1.388 . S
C990 C989 1.366 . S
C990 C994 1.385 . S
C991 H966 0.951 . S
C991 C989 1.388 . S
C991 C992 1.366 . S
C992 C991 1.366 . S
C992 C993 1.414 . S
C992 C995 1.499 . S
C993 H967 0.950 . S
C993 C992 1.414 . S
C993 C994 1.374 . S
C994 H968 0.950 . S
C994 C990 1.385 . S
C994 C993 1.374 . S
C995 C992 1.499 . S
C995 C996 1.373 . S
C995 C997 1.389 . S
C996 H969 0.950 . S
C996 C982 1.377 . S
C996 C995 1.373 . S
C997 C981 1.377 . S
C997 C995 1.389 . S
C997 C998 1.524 . S
C998 C997 1.524 . S
C998 C999 1.397 . S
C998 C1003 1.363 . S
C999 H970 0.950 . S
C999 C998 1.397 . S
C999 C1000 1.334 . S
C1000 H971 0.950 . S
C1000 C999 1.334 . S
C1000 C1001 1.287 . S
C1001 C1000 1.287 . S
C1001 C1002 1.524 . S
C1001 H1004 0.999 . S
C1002 H972 0.950 . S
C1002 C1001 1.524 . S
C1002 C1003 1.415 . S
C1003 H973 0.950 . S
C1003 C998 1.363 . S
C1003 C1002 1.415 . S
H1004 C1001 0.999 . S
H1005 C986 0.913 . S
H1006 C1024 0.951 . S
H1007 C1026 0.951 . S
H1008 C1028 0.950 . S
H1009 C1029 0.950 . S
H1010 C1031 0.950 . S
H1011 C1034 0.950 . S
H1012 C1035 0.950 . S
H1013 C1037 0.950 . S
H1014 C1038 0.950 . S
H1015 C1039 0.951 . S
H1016 C1041 0.951 . S
H1017 C1043 0.950 . S
H1018 C1044 0.950 . S
H1019 C1046 0.950 . S
H1020 C1049 0.950 . S
H1021 C1050 0.950 . S
H1022 C1052 0.950 . S
H1023 C1053 0.950 . S
C1024 H1006 0.951 . S
C1024 C1025 1.366 . S
C1024 C1026 1.388 . S
C1025 C1024 1.366 . S
C1025 C1029 1.385 . S
C1026 H1007 0.951 . S
C1026 C1024 1.388 . S
C1026 C1027 1.366 . S
C1027 C1026 1.366 . S
C1027 C1028 1.414 . S
C1027 C1030 1.499 . S
C1028 H1008 0.950 . S
C1028 C1027 1.414 . S
C1028 C1029 1.374 . S
C1029 H1009 0.950 . S
C1029 C1025 1.385 . S
C1029 C1028 1.374 . S
C1030 C1027 1.499 . S
C1030 C1031 1.373 . S
C1030 C1032 1.389 . S
C1031 H1010 0.950 . S
C1031 C1030 1.373 . S
C1031 C1047 1.377 . S
C1032 C1030 1.389 . S
C1032 C1033 1.524 . S
C1032 C1046 1.377 . S
C1033 C1032 1.524 . S
C1033 C1034 1.397 . S
C1033 C1038 1.363 . S
C1034 H1011 0.950 . S
C1034 C1033 1.397 . S
C1034 C1035 1.334 . S
C1035 H1012 0.950 . S
C1035 C1034 1.334 . S
C1035 C1036 1.287 . S
C1036 C1035 1.287 . S
C1036 C1037 1.524 . S
C1036 H1055 0.913 . S
C1037 H1013 0.950 . S
C1037 C1036 1.524 . S
C1037 C1038 1.415 . S
C1038 H1014 0.950 . S
C1038 C1033 1.363 . S
C1038 C1037 1.415 . S
C1039 H1015 0.951 . S
C1039 C1040 1.366 . S
C1039 C1041 1.388 . S
C1040 C1039 1.366 . S
C1040 C1044 1.385 . S
C1041 H1016 0.951 . S
C1041 C1039 1.388 . S
C1041 C1042 1.366 . S
C1042 C1041 1.366 . S
C1042 C1043 1.414 . S
C1042 C1045 1.499 . S
C1043 H1017 0.950 . S
C1043 C1042 1.414 . S
C1043 C1044 1.374 . S
C1044 H1018 0.950 . S
C1044 C1040 1.385 . S
C1044 C1043 1.374 . S
C1045 C1042 1.499 . S
C1045 C1046 1.373 . S
C1045 C1047 1.389 . S
C1046 H1019 0.950 . S
C1046 C1032 1.377 . S
C1046 C1045 1.373 . S
C1047 C1031 1.377 . S
C1047 C1045 1.389 . S
C1047 C1048 1.524 . S
C1048 C1047 1.524 . S
C1048 C1049 1.397 . S
C1048 C1053 1.363 . S
C1049 H1020 0.950 . S
C1049 C1048 1.397 . S
C1049 C1050 1.334 . S
C1050 H1021 0.950 . S
C1050 C1049 1.334 . S
C1050 C1051 1.287 . S
C1051 C1050 1.287 . S
C1051 C1052 1.524 . S
C1051 H1054 0.999 . S
C1052 H1022 0.950 . S
C1052 C1051 1.524 . S
C1052 C1053 1.415 . S
C1053 H1023 0.950 . S
C1053 C1048 1.363 . S
C1053 C1052 1.415 . S
H1054 C1051 0.999 . S
H1055 C1036 0.913 . S
H1056 C1074 0.951 . S
H1057 C1076 0.951 . S
H1058 C1078 0.950 . S
H1059 C1079 0.950 . S
H1060 C1081 0.950 . S
H1061 C1084 0.950 . S
H1062 C1085 0.950 . S
H1063 C1087 0.950 . S
H1064 C1088 0.950 . S
H1065 C1089 0.951 . S
H1066 C1091 0.951 . S
H1067 C1093 0.950 . S
H1068 C1094 0.950 . S
H1069 C1096 0.950 1_556 S
H1070 C1099 0.950 . S
H1071 C1100 0.950 . S
H1072 C1102 0.950 . S
H1073 C1103 0.950 . S
C1074 H1056 0.951 . S
C1074 C1075 1.366 . S
C1074 C1076 1.388 . S
C1075 C1074 1.366 . S
C1075 C1079 1.385 . S
C1076 H1057 0.951 . S
C1076 C1074 1.388 . S
C1076 C1077 1.366 . S
C1077 C1076 1.366 . S
C1077 C1078 1.414 . S
C1077 C1080 1.499 . S
C1078 H1058 0.950 . S
C1078 C1077 1.414 . S
C1078 C1079 1.374 . S
C1079 H1059 0.950 . S
C1079 C1075 1.385 . S
C1079 C1078 1.374 . S
C1080 C1077 1.499 . S
C1080 C1081 1.373 . S
C1080 C1082 1.389 . S
C1081 H1060 0.950 . S
C1081 C1080 1.373 . S
C1081 C1097 1.377 1_545 S
C1082 C1080 1.389 . S
C1082 C1083 1.524 1_554 S
C1082 C1096 1.377 1_545 S
C1083 C1082 1.524 1_556 S
C1083 C1084 1.397 . S
C1083 C1088 1.363 . S
C1084 H1061 0.950 . S
C1084 C1083 1.397 . S
C1084 C1085 1.334 . S
C1085 H1062 0.950 . S
C1085 C1084 1.334 . S
C1085 C1086 1.287 . S
C1086 C1085 1.287 . S
C1086 C1087 1.524 . S
C1086 H1105 0.913 . S
C1087 H1063 0.950 . S
C1087 C1086 1.524 . S
C1087 C1088 1.415 . S
C1088 H1064 0.950 . S
C1088 C1083 1.363 . S
C1088 C1087 1.415 . S
C1089 H1065 0.951 . S
C1089 C1090 1.366 . S
C1089 C1091 1.388 . S
C1090 C1089 1.366 . S
C1090 C1094 1.385 . S
C1091 H1066 0.951 . S
C1091 C1089 1.388 . S
C1091 C1092 1.366 . S
C1092 C1091 1.366 . S
C1092 C1093 1.414 . S
C1092 C1095 1.499 . S
C1093 H1067 0.950 . S
C1093 C1092 1.414 . S
C1093 C1094 1.374 . S
C1094 H1068 0.950 . S
C1094 C1090 1.385 . S
C1094 C1093 1.374 . S
C1095 C1092 1.499 . S
C1095 C1096 1.373 . S
C1095 C1097 1.389 . S
C1096 H1069 0.950 1_554 S
C1096 C1082 1.377 1_565 S
C1096 C1095 1.373 . S
C1097 C1081 1.377 1_565 S
C1097 C1095 1.389 . S
C1097 C1098 1.524 . S
C1098 C1097 1.524 . S
C1098 C1099 1.397 . S
C1098 C1103 1.363 . S
C1099 H1070 0.950 . S
C1099 C1098 1.397 . S
C1099 C1100 1.334 . S
C1100 H1071 0.950 . S
C1100 C1099 1.334 . S
C1100 C1101 1.287 . S
C1101 C1100 1.287 . S
C1101 C1102 1.524 . S
C1101 H1104 0.999 . S
C1102 H1072 0.950 . S
C1102 C1101 1.524 . S
C1102 C1103 1.415 . S
C1103 H1073 0.950 . S
C1103 C1098 1.363 . S
C1103 C1102 1.415 . S
H1104 C1101 0.999 . S
H1105 C1086 0.913 . S
H1106 C1124 0.951 . S
H1107 C1126 0.951 . S
H1108 C1128 0.950 . S
H1109 C1129 0.950 . S
H1110 C1131 0.950 . S
H1111 C1134 0.950 . S
H1112 C1135 0.950 . S
H1113 C1137 0.950 . S
H1114 C1138 0.950 . S
H1115 C1139 0.951 . S
H1116 C1141 0.951 . S
H1117 C1143 0.950 . S
H1118 C1144 0.950 . S
H1119 C1146 0.950 . S
H1120 C1149 0.950 . S
H1121 C1150 0.950 . S
H1122 C1152 0.950 . S
H1123 C1153 0.950 . S
C1124 H1106 0.951 . S
C1124 C1125 1.366 . S
C1124 C1126 1.388 . S
C1125 C1124 1.366 . S
C1125 C1129 1.385 . S
C1126 H1107 0.951 . S
C1126 C1124 1.388 . S
C1126 C1127 1.366 . S
C1127 C1126 1.366 . S
C1127 C1128 1.414 . S
C1127 C1130 1.499 . S
C1128 H1108 0.950 . S
C1128 C1127 1.414 . S
C1128 C1129 1.374 . S
C1129 H1109 0.950 . S
C1129 C1125 1.385 . S
C1129 C1128 1.374 . S
C1130 C1127 1.499 . S
C1130 C1131 1.373 . S
C1130 C1132 1.389 . S
C1131 H1110 0.950 . S
C1131 C1130 1.373 . S
C1131 C1147 1.377 . S
C1132 C1130 1.389 . S
C1132 C1133 1.524 . S
C1132 C1146 1.377 . S
C1133 C1132 1.524 . S
C1133 C1134 1.397 . S
C1133 C1138 1.363 . S
C1134 H1111 0.950 . S
C1134 C1133 1.397 . S
C1134 C1135 1.334 . S
C1135 H1112 0.950 . S
C1135 C1134 1.334 . S
C1135 C1136 1.287 . S
C1136 C1135 1.287 . S
C1136 C1137 1.524 . S
C1136 H1155 0.913 . S
C1137 H1113 0.950 . S
C1137 C1136 1.524 . S
C1137 C1138 1.415 . S
C1138 H1114 0.950 . S
C1138 C1133 1.363 . S
C1138 C1137 1.415 . S
C1139 H1115 0.951 . S
C1139 C1140 1.366 . S
C1139 C1141 1.388 . S
C1140 C1139 1.366 . S
C1140 C1144 1.385 . S
C1141 H1116 0.951 . S
C1141 C1139 1.388 . S
C1141 C1142 1.366 . S
C1142 C1141 1.366 . S
C1142 C1143 1.414 . S
C1142 C1145 1.499 . S
C1143 H1117 0.950 . S
C1143 C1142 1.414 . S
C1143 C1144 1.374 . S
C1144 H1118 0.950 . S
C1144 C1140 1.385 . S
C1144 C1143 1.374 . S
C1145 C1142 1.499 . S
C1145 C1146 1.373 . S
C1145 C1147 1.389 . S
C1146 H1119 0.950 . S
C1146 C1132 1.377 . S
C1146 C1145 1.373 . S
C1147 C1131 1.377 . S
C1147 C1145 1.389 . S
C1147 C1148 1.524 . S
C1148 C1147 1.524 . S
C1148 C1149 1.397 . S
C1148 C1153 1.363 . S
C1149 H1120 0.950 . S
C1149 C1148 1.397 . S
C1149 C1150 1.334 . S
C1150 H1121 0.950 . S
C1150 C1149 1.334 . S
C1150 C1151 1.287 . S
C1151 C1150 1.287 . S
C1151 C1152 1.524 . S
C1151 H1154 0.999 . S
C1152 H1122 0.950 . S
C1152 C1151 1.524 . S
C1152 C1153 1.415 . S
C1153 H1123 0.950 . S
C1153 C1148 1.363 . S
C1153 C1152 1.415 . S
H1154 C1151 0.999 . S
H1155 C1136 0.913 . S
H1156 C1174 0.951 . S
H1157 C1176 0.951 . S
H1158 C1178 0.950 . S
H1159 C1179 0.950 . S
H1160 C1181 0.950 . S
H1161 C1184 0.950 . S
H1162 C1185 0.950 . S
H1163 C1187 0.950 . S
H1164 C1188 0.950 . S
H1165 C1189 0.951 . S
H1166 C1191 0.951 . S
H1167 C1193 0.950 . S
H1168 C1194 0.950 . S
H1169 C1196 0.950 . S
H1170 C1199 0.950 . S
H1171 C1200 0.950 . S
H1172 C1202 0.950 . S
H1173 C1203 0.950 . S
C1174 H1156 0.951 . S
C1174 C1175 1.366 . S
C1174 C1176 1.388 . S
C1175 C1174 1.366 . S
C1175 C1179 1.385 . S
C1176 H1157 0.951 . S
C1176 C1174 1.388 . S
C1176 C1177 1.366 . S
C1177 C1176 1.366 . S
C1177 C1178 1.414 . S
C1177 C1180 1.499 . S
C1178 H1158 0.950 . S
C1178 C1177 1.414 . S
C1178 C1179 1.374 . S
C1179 H1159 0.950 . S
C1179 C1175 1.385 . S
C1179 C1178 1.374 . S
C1180 C1177 1.499 . S
C1180 C1181 1.373 . S
C1180 C1182 1.389 . S
C1181 H1160 0.950 . S
C1181 C1180 1.373 . S
C1181 C1197 1.377 1_455 S
C1182 C1180 1.389 . S
C1182 C1183 1.524 . S
C1182 C1196 1.377 1_455 S
C1183 C1182 1.524 . S
C1183 C1184 1.397 . S
C1183 C1188 1.363 . S
C1184 H1161 0.950 . S
C1184 C1183 1.397 . S
C1184 C1185 1.334 . S
C1185 H1162 0.950 . S
C1185 C1184 1.334 . S
C1185 C1186 1.287 . S
C1186 C1185 1.287 . S
C1186 C1187 1.524 . S
C1186 H1205 0.913 . S
C1187 H1163 0.950 . S
C1187 C1186 1.524 . S
C1187 C1188 1.415 . S
C1188 H1164 0.950 . S
C1188 C1183 1.363 . S
C1188 C1187 1.415 . S
C1189 H1165 0.951 . S
C1189 C1190 1.366 . S
C1189 C1191 1.388 . S
C1190 C1189 1.366 . S
C1190 C1194 1.385 . S
C1191 H1166 0.951 . S
C1191 C1189 1.388 . S
C1191 C1192 1.366 . S
C1192 C1191 1.366 . S
C1192 C1193 1.414 . S
C1192 C1195 1.499 . S
C1193 H1167 0.950 . S
C1193 C1192 1.414 . S
C1193 C1194 1.374 . S
C1194 H1168 0.950 . S
C1194 C1190 1.385 . S
C1194 C1193 1.374 . S
C1195 C1192 1.499 . S
C1195 C1196 1.373 . S
C1195 C1197 1.389 . S
C1196 H1169 0.950 . S
C1196 C1182 1.377 1_655 S
C1196 C1195 1.373 . S
C1197 C1181 1.377 1_655 S
C1197 C1195 1.389 . S
C1197 C1198 1.524 . S
C1198 C1197 1.524 . S
C1198 C1199 1.397 . S
C1198 C1203 1.363 . S
C1199 H1170 0.950 . S
C1199 C1198 1.397 . S
C1199 C1200 1.334 . S
C1200 H1171 0.950 . S
C1200 C1199 1.334 . S
C1200 C1201 1.287 . S
C1201 C1200 1.287 . S
C1201 C1202 1.524 . S
C1201 H1204 0.999 . S
C1202 H1172 0.950 . S
C1202 C1201 1.524 . S
C1202 C1203 1.415 . S
C1203 H1173 0.950 . S
C1203 C1198 1.363 . S
C1203 C1202 1.415 . S
H1204 C1201 0.999 . S
H1205 C1186 0.913 . S
H1206 C1224 0.951 . S
H1207 C1226 0.951 . S
H1208 C1228 0.950 . S
H1209 C1229 0.950 . S
H1210 C1231 0.950 . S
H1211 C1234 0.950 . S
H1212 C1235 0.950 . S
H1213 C1237 0.950 . S
H1214 C1238 0.950 . S
H1215 C1239 0.951 . S
H1216 C1241 0.951 . S
H1217 C1243 0.950 . S
H1218 C1244 0.950 . S
H1219 C1246 0.950 . S
H1220 C1249 0.950 . S
H1221 C1250 0.950 . S
H1222 C1252 0.950 . S
H1223 C1253 0.950 . S
C1224 H1206 0.951 . S
C1224 C1225 1.366 . S
C1224 C1226 1.388 . S
C1225 C1224 1.366 . S
C1225 C1229 1.385 . S
C1226 H1207 0.951 . S
C1226 C1224 1.388 . S
C1226 C1227 1.366 . S
C1227 C1226 1.366 . S
C1227 C1228 1.414 . S
C1227 C1230 1.499 . S
C1228 H1208 0.950 . S
C1228 C1227 1.414 . S
C1228 C1229 1.374 . S
C1229 H1209 0.950 . S
C1229 C1225 1.385 . S
C1229 C1228 1.374 . S
C1230 C1227 1.499 . S
C1230 C1231 1.373 . S
C1230 C1232 1.389 . S
C1231 H1210 0.950 . S
C1231 C1230 1.373 . S
C1231 C1247 1.377 1_565 S
C1232 C1230 1.389 . S
C1232 C1233 1.524 . S
C1232 C1246 1.377 1_565 S
C1233 C1232 1.524 . S
C1233 C1234 1.397 . S
C1233 C1238 1.363 . S
C1234 H1211 0.950 . S
C1234 C1233 1.397 . S
C1234 C1235 1.334 . S
C1235 H1212 0.950 . S
C1235 C1234 1.334 . S
C1235 C1236 1.287 . S
C1236 C1235 1.287 . S
C1236 C1237 1.524 . S
C1236 H1255 0.913 . S
C1237 H1213 0.950 . S
C1237 C1236 1.524 . S
C1237 C1238 1.415 . S
C1238 H1214 0.950 . S
C1238 C1233 1.363 . S
C1238 C1237 1.415 . S
C1239 H1215 0.951 . S
C1239 C1240 1.366 . S
C1239 C1241 1.388 . S
C1240 C1239 1.366 . S
C1240 C1244 1.385 . S
C1241 H1216 0.951 . S
C1241 C1239 1.388 . S
C1241 C1242 1.366 . S
C1242 C1241 1.366 . S
C1242 C1243 1.414 . S
C1242 C1245 1.499 . S
C1243 H1217 0.950 . S
C1243 C1242 1.414 . S
C1243 C1244 1.374 . S
C1244 H1218 0.950 . S
C1244 C1240 1.385 . S
C1244 C1243 1.374 . S
C1245 C1242 1.499 . S
C1245 C1246 1.373 . S
C1245 C1247 1.389 . S
C1246 H1219 0.950 . S
C1246 C1232 1.377 1_545 S
C1246 C1245 1.373 . S
C1247 C1231 1.377 1_545 S
C1247 C1245 1.389 . S
C1247 C1248 1.524 . S
C1248 C1247 1.524 . S
C1248 C1249 1.397 . S
C1248 C1253 1.363 . S
C1249 H1220 0.950 . S
C1249 C1248 1.397 . S
C1249 C1250 1.334 . S
C1250 H1221 0.950 . S
C1250 C1249 1.334 . S
C1250 C1251 1.287 . S
C1251 C1250 1.287 . S
C1251 C1252 1.524 . S
C1251 H1254 0.999 . S
C1252 H1222 0.950 . S
C1252 C1251 1.524 . S
C1252 C1253 1.415 . S
C1253 H1223 0.950 . S
C1253 C1248 1.363 . S
C1253 C1252 1.415 . S
H1254 C1251 0.999 . S
H1255 C1236 0.913 . S
H1256 C1274 0.951 . S
H1257 C1276 0.951 . S
H1258 C1278 0.950 . S
H1259 C1279 0.950 . S
H1260 C1281 0.950 . S
H1261 C1284 0.950 . S
H1262 C1285 0.950 . S
H1263 C1287 0.950 . S
H1264 C1288 0.950 . S
H1265 C1289 0.951 . S
H1266 C1291 0.951 . S
H1267 C1293 0.950 . S
H1268 C1294 0.950 . S
H1269 C1296 0.950 . S
H1270 C1299 0.950 . S
H1271 C1300 0.950 . S
H1272 C1302 0.950 . S
H1273 C1303 0.950 . S
C1274 H1256 0.951 . S
C1274 C1275 1.366 . S
C1274 C1276 1.388 . S
C1275 C1274 1.366 . S
C1275 C1279 1.385 . S
C1276 H1257 0.951 . S
C1276 C1274 1.388 . S
C1276 C1277 1.366 . S
C1277 C1276 1.366 . S
C1277 C1278 1.414 . S
C1277 C1280 1.499 . S
C1278 H1258 0.950 . S
C1278 C1277 1.414 . S
C1278 C1279 1.374 . S
C1279 H1259 0.950 . S
C1279 C1275 1.385 . S
C1279 C1278 1.374 . S
C1280 C1277 1.499 . S
C1280 C1281 1.373 . S
C1280 C1282 1.389 . S
C1281 H1260 0.950 . S
C1281 C1280 1.373 . S
C1281 C1297 1.377 . S
C1282 C1280 1.389 . S
C1282 C1283 1.524 . S
C1282 C1296 1.377 . S
C1283 C1282 1.524 . S
C1283 C1284 1.397 . S
C1283 C1288 1.363 . S
C1284 H1261 0.950 . S
C1284 C1283 1.397 . S
C1284 C1285 1.334 . S
C1285 H1262 0.950 . S
C1285 C1284 1.334 . S
C1285 C1286 1.287 . S
C1286 C1285 1.287 . S
C1286 C1287 1.524 . S
C1286 H1305 0.913 . S
C1287 H1263 0.950 . S
C1287 C1286 1.524 . S
C1287 C1288 1.415 . S
C1288 H1264 0.950 . S
C1288 C1283 1.363 . S
C1288 C1287 1.415 . S
C1289 H1265 0.951 . S
C1289 C1290 1.366 . S
C1289 C1291 1.388 . S
C1290 C1289 1.366 . S
C1290 C1294 1.385 . S
C1291 H1266 0.951 . S
C1291 C1289 1.388 . S
C1291 C1292 1.366 . S
C1292 C1291 1.366 . S
C1292 C1293 1.414 . S
C1292 C1295 1.499 . S
C1293 H1267 0.950 . S
C1293 C1292 1.414 . S
C1293 C1294 1.374 . S
C1294 H1268 0.950 . S
C1294 C1290 1.385 . S
C1294 C1293 1.374 . S
C1295 C1292 1.499 . S
C1295 C1296 1.373 . S
C1295 C1297 1.389 . S
C1296 H1269 0.950 . S
C1296 C1282 1.377 . S
C1296 C1295 1.373 . S
C1297 C1281 1.377 . S
C1297 C1295 1.389 . S
C1297 C1298 1.524 . S
C1298 C1297 1.524 . S
C1298 C1299 1.397 . S
C1298 C1303 1.363 . S
C1299 H1270 0.950 . S
C1299 C1298 1.397 . S
C1299 C1300 1.334 . S
C1300 H1271 0.950 . S
C1300 C1299 1.334 . S
C1300 C1301 1.287 . S
C1301 C1300 1.287 . S
C1301 C1302 1.524 . S
C1301 H1304 0.999 . S
C1302 H1272 0.950 . S
C1302 C1301 1.524 . S
C1302 C1303 1.415 . S
C1303 H1273 0.950 . S
C1303 C1298 1.363 . S
C1303 C1302 1.415 . S
H1304 C1301 0.999 . S
H1305 C1286 0.913 . S
H1306 C1324 0.951 . S
H1307 C1326 0.951 . S
H1308 C1328 0.950 . S
H1309 C1329 0.950 . S
H1310 C1331 0.950 . S
H1311 C1334 0.950 . S
H1312 C1335 0.950 . S
H1313 C1337 0.950 . S
H1314 C1338 0.950 . S
H1315 C1339 0.951 . S
H1316 C1341 0.951 . S
H1317 C1343 0.950 . S
H1318 C1344 0.950 . S
H1319 C1346 0.950 . S
H1320 C1349 0.950 . S
H1321 C1350 0.950 . S
H1322 C1352 0.950 . S
H1323 C1353 0.950 . S
C1324 H1306 0.951 . S
C1324 C1325 1.366 . S
C1324 C1326 1.388 . S
C1325 C1324 1.366 . S
C1325 C1329 1.385 . S
C1326 H1307 0.951 . S
C1326 C1324 1.388 . S
C1326 C1327 1.366 . S
C1327 C1326 1.366 . S
C1327 C1328 1.414 . S
C1327 C1330 1.499 . S
C1328 H1308 0.950 . S
C1328 C1327 1.414 . S
C1328 C1329 1.374 . S
C1329 H1309 0.950 . S
C1329 C1325 1.385 . S
C1329 C1328 1.374 . S
C1330 C1327 1.499 . S
C1330 C1331 1.373 . S
C1330 C1332 1.389 . S
C1331 H1310 0.950 . S
C1331 C1330 1.373 . S
C1331 C1347 1.377 1_455 S
C1332 C1330 1.389 . S
C1332 C1333 1.524 . S
C1332 C1346 1.377 1_455 S
C1333 C1332 1.524 . S
C1333 C1334 1.397 . S
C1333 C1338 1.363 . S
C1334 H1311 0.950 . S
C1334 C1333 1.397 . S
C1334 C1335 1.334 . S
C1335 H1312 0.950 . S
C1335 C1334 1.334 . S
C1335 C1336 1.287 . S
C1336 C1335 1.287 . S
C1336 C1337 1.524 . S
C1336 H1355 0.913 . S
C1337 H1313 0.950 . S
C1337 C1336 1.524 . S
C1337 C1338 1.415 . S
C1338 H1314 0.950 . S
C1338 C1333 1.363 . S
C1338 C1337 1.415 . S
C1339 H1315 0.951 . S
C1339 C1340 1.366 . S
C1339 C1341 1.388 . S
C1340 C1339 1.366 . S
C1340 C1344 1.385 . S
C1341 H1316 0.951 . S
C1341 C1339 1.388 . S
C1341 C1342 1.366 . S
C1342 C1341 1.366 . S
C1342 C1343 1.414 . S
C1342 C1345 1.499 . S
C1343 H1317 0.950 . S
C1343 C1342 1.414 . S
C1343 C1344 1.374 . S
C1344 H1318 0.950 . S
C1344 C1340 1.385 . S
C1344 C1343 1.374 . S
C1345 C1342 1.499 . S
C1345 C1346 1.373 . S
C1345 C1347 1.389 . S
C1346 H1319 0.950 . S
C1346 C1332 1.377 1_655 S
C1346 C1345 1.373 . S
C1347 C1331 1.377 1_655 S
C1347 C1345 1.389 . S
C1347 C1348 1.524 . S
C1348 C1347 1.524 . S
C1348 C1349 1.397 . S
C1348 C1353 1.363 . S
C1349 H1320 0.950 . S
C1349 C1348 1.397 . S
C1349 C1350 1.334 . S
C1350 H1321 0.950 . S
C1350 C1349 1.334 . S
C1350 C1351 1.287 . S
C1351 C1350 1.287 . S
C1351 C1352 1.524 . S
C1351 H1354 0.999 . S
C1352 H1322 0.950 . S
C1352 C1351 1.524 . S
C1352 C1353 1.415 . S
C1353 H1323 0.950 . S
C1353 C1348 1.363 . S
C1353 C1352 1.415 . S
H1354 C1351 0.999 . S
H1355 C1336 0.913 . S
C175 C3 1.018 . S
C190 C133 1.018 . S
C225 C16 1.018 . S
C240 C148 1.018 . S
C275 C83 1.018 . S
C290 C29 1.018 . S
C325 C42 1.018 . S
C340 C96 1.018 . S
C375 C109 1.018 . S
C390 C55 1.018 . S
C425 C122 1.018 . S
C440 C68 1.017 . S
C475 C107 1.291 . S
C490 C5 1.291 . S
C525 C18 1.291 . S
C540 C120 1.291 . S
C575 C135 1.291 . S
C590 C31 1.291 . S
C625 C44 1.291 . S
C640 C146 1.291 . S
C675 C57 1.291 . S
C690 C81 1.291 . S
C725 C70 1.291 . S
C740 C94 1.291 . S
C775 C140 1.771 . S
C790 C10 1.771 . S
C825 C147 1.771 . S
C840 C23 1.771 . S
C875 C82 1.771 . S
C890 C36 1.771 . S
C925 C49 1.771 . S
C940 C95 1.771 . S
C975 C62 1.771 . S
C990 C108 1.771 . S
C1025 C121 1.771 . S
C1040 C75 1.771 . S
C1075 C4 1.382 . S
C1090 C101 1.382 . S
C1125 C114 1.382 . S
C1140 C17 1.382 . S
C1175 C127 1.382 . S
C1190 C30 1.382 . S
C1225 C43 1.382 . S
C1240 C134 1.382 . S
C1275 C56 1.382 . S
C1290 C153 1.382 . S
C1325 C69 1.382 . S
C1340 C88 1.382 . S
