# Generated by pormake.
# Topology zfb, (5)-cn, num edge types: 1
# Building blocks:
#     Node 0, Type 0, BuildingBlock: XOMCOT_clean_sbu_1, # of connection points: 5
#     Node 1, Type 0, BuildingBlock: XOMCOT_clean_sbu_1, # of connection points: 5
#     Node 2, Type 0, BuildingBlock: XOMCOT_clean_sbu_1, # of connection points: 5
#     Node 3, Type 0, BuildingBlock: XOMCOT_clean_sbu_1, # of connection points: 5
#     Node 4, Type 0, BuildingBlock: XOMCOT_clean_sbu_1, # of connection points: 5
#     Node 5, Type 0, BuildingBlock: XOMCOT_clean_sbu_1, # of connection points: 5
#     Node 6, Type 0, BuildingBlock: XOMCOT_clean_sbu_1, # of connection points: 5
#     Node 7, Type 0, BuildingBlock: XOMCOT_clean_sbu_1, # of connection points: 5
#     Edge 8, Type (0, 0), BuildingBlock: CIFDUS_clean_linker_0, # of connection points: 2
#     Edge 9, Type (0, 0), BuildingBlock: CIFDUS_clean_linker_0, # of connection points: 2
#     Edge 10, Type (0, 0), BuildingBlock: CIFDUS_clean_linker_0, # of connection points: 2
#     Edge 11, Type (0, 0), BuildingBlock: CIFDUS_clean_linker_0, # of connection points: 2
#     Edge 12, Type (0, 0), BuildingBlock: CIFDUS_clean_linker_0, # of connection points: 2
#     Edge 13, Type (0, 0), BuildingBlock: CIFDUS_clean_linker_0, # of connection points: 2
#     Edge 14, Type (0, 0), BuildingBlock: CIFDUS_clean_linker_0, # of connection points: 2
#     Edge 15, Type (0, 0), BuildingBlock: CIFDUS_clean_linker_0, # of connection points: 2
#     Edge 16, Type (0, 0), BuildingBlock: CIFDUS_clean_linker_0, # of connection points: 2
#     Edge 17, Type (0, 0), BuildingBlock: CIFDUS_clean_linker_0, # of connection points: 2
#     Edge 18, Type (0, 0), BuildingBlock: CIFDUS_clean_linker_0, # of connection points: 2
#     Edge 19, Type (0, 0), BuildingBlock: CIFDUS_clean_linker_0, # of connection points: 2
#     Edge 20, Type (0, 0), BuildingBlock: CIFDUS_clean_linker_0, # of connection points: 2
#     Edge 21, Type (0, 0), BuildingBlock: CIFDUS_clean_linker_0, # of connection points: 2
#     Edge 22, Type (0, 0), BuildingBlock: CIFDUS_clean_linker_0, # of connection points: 2
#     Edge 23, Type (0, 0), BuildingBlock: CIFDUS_clean_linker_0, # of connection points: 2
#     Edge 24, Type (0, 0), BuildingBlock: CIFDUS_clean_linker_0, # of connection points: 2
#     Edge 25, Type (0, 0), BuildingBlock: CIFDUS_clean_linker_0, # of connection points: 2
#     Edge 26, Type (0, 0), BuildingBlock: CIFDUS_clean_linker_0, # of connection points: 2
#     Edge 27, Type (0, 0), BuildingBlock: CIFDUS_clean_linker_0, # of connection points: 2
# Relax obj value: 0.179
# Max RMSD: 0.185
# Mean RMSD: 0.185
data_MOF--net-zfb--node1-XOMCOT_clean_sbu_1--edge1-CIFDUS_clean_linker_0
_symmetry_space_group_name_H-M    P1
_symmetry_Int_Tables_number       1
_symmetry_cell_setting            triclinic
loop_
_symmetry_equiv_pos_as_xyz
'x, y, z'
_cell_length_a     29.343356
_cell_length_b     29.10001
_cell_length_c     30.504692
_cell_angle_alpha  90.094788
_cell_angle_beta   89.934952
_cell_angle_gamma 90.716314
loop_
_atom_site_label
_atom_site_type_symbol
_atom_site_fract_x
_atom_site_fract_y
_atom_site_fract_z
_atom_type_partial_charge
C0 C 0.23644 0.35353 1.00928 0.0
C1 C 0.23531 0.34023 0.96579 0.0
N2 N 0.19337 0.3484 0.94976 0.0
N3 N 0.19547 0.37018 1.02076 0.0
C4 C 0.16985 0.36607 0.98391 0.0
H5 H 0.26527 0.35121 1.03119 0.0
Co6 Co 0.17792 0.39081 0.077 0.0
C7 C 0.10887 0.45637 0.03819 0.0
O8 O 0.13623 0.49227 0.03958 0.0
N9 N 0.15814 0.40979 0.13439 0.0
C10 C 0.12719 0.45265 0.1869 0.0
C11 C 0.13657 0.44953 0.14311 0.0
C12 C 0.16128 0.38924 0.17446 0.0
N13 N 0.1429 0.41496 0.2071 0.0
O14 O 0.14657 0.33368 0.08403 0.0
H15 H 0.1291 0.47589 0.11967 0.0
H16 H 0.17748 0.35662 0.17992 0.0
O17 O 0.1219 0.41727 0.05235 0.0
C18 C 0.17233 0.30333 0.10032 0.0
O19 O 0.21319 0.31573 0.11379 0.0
N20 N 0.2137 0.44651 0.06976 0.0
C21 C 0.25838 0.53199 0.06357 0.0
C22 C 0.24339 0.50878 1.02584 0.0
C23 C 0.22174 0.46594 1.02953 0.0
C24 C 0.23486 0.46523 0.10568 0.0
C25 C 0.25612 0.5085 0.10362 0.0
H26 H 0.20776 0.45096 1.00006 0.0
H27 H 0.23396 0.44775 0.13686 0.0
H28 H 0.1343 0.37521 0.98214 0.0
H29 H 0.26342 0.32624 0.94729 0.0
H30 H 0.10986 0.48087 0.20259 0.0
H31 H 0.2462 0.52457 0.9938 0.0
H32 H 0.26849 0.52419 0.13361 0.0
C33 C 0.58731 0.23603 0.49003 0.0
C34 C 0.60127 0.23461 0.44706 0.0
N35 N 0.62763 0.19751 0.44147 0.0
N36 N 0.60383 0.19946 0.51172 0.0
C37 C 0.62969 0.17754 0.48153 0.0
H38 H 0.56604 0.26212 0.50442 0.0
Co39 Co 0.59235 0.18636 0.57148 0.0
C40 C 0.57043 0.09034 0.53211 0.0
O41 O 0.57294 0.09948 0.49004 0.0
N42 N 0.58092 0.17285 0.63183 0.0
C43 C 0.54472 0.14455 0.69027 0.0
C44 C 0.54109 0.15498 0.64668 0.0
C45 C 0.60857 0.17226 0.66765 0.0
N46 N 0.58735 0.15482 0.7037 0.0
O47 O 0.65568 0.17453 0.57929 0.0
H48 H 0.51133 0.14811 0.62676 0.0
H49 H 0.64416 0.18224 0.66697 0.0
O50 O 0.57819 0.12183 0.56043 0.0
C51 C 0.67324 0.214 0.58711 0.0
O52 O 0.64577 0.24929 0.58963 0.0
N53 N 0.53099 0.20284 0.56379 0.0
C54 C 0.44374 0.23783 0.55122 0.0
C55 C 0.45743 0.19741 0.5301 0.0
C56 C 0.50126 0.18101 0.53617 0.0
C57 C 0.51847 0.24211 0.58485 0.0
C58 C 0.47495 0.26022 0.57911 0.0
H59 H 0.51115 0.15159 0.51749 0.0
H60 H 0.5428 0.25989 0.60565 0.0
H61 H 0.6486 0.14673 0.48855 0.0
H62 H 0.59273 0.25922 0.4219 0.0
H63 H 0.51789 0.12962 0.71022 0.0
H64 H 0.43454 0.17836 0.50877 0.0
H65 H 0.46627 0.29186 0.59567 0.0
C66 C 0.72149 0.59929 0.98475 0.0
C67 C 0.71623 0.6113 0.94142 0.0
N68 N 0.75573 0.62987 0.9267 0.0
N69 N 0.76451 0.60904 0.99749 0.0
C70 C 0.7836 0.63011 0.96214 0.0
H71 H 0.69618 0.58232 1.00506 0.0
Co72 Co 0.79069 0.59285 0.05217 0.0
C73 C 0.86692 0.56062 0.98836 0.0
O74 O 0.84605 0.56236 0.95043 0.0
N75 N 0.81694 0.57787 0.10782 0.0
C76 C 0.85686 0.53897 0.15711 0.0
C77 C 0.84635 0.5431 0.11358 0.0
C78 C 0.81005 0.59432 0.14921 0.0
N79 N 0.83389 0.57089 0.17991 0.0
O80 O 0.81526 0.65317 0.05618 0.0
H81 H 0.85819 0.5206 0.08798 0.0
H82 H 0.78656 0.62144 0.15707 0.0
O83 O 0.84706 0.57171 1.02414 0.0
C84 C 0.78965 0.68091 0.07646 0.0
O85 O 0.75127 0.66551 0.09348 0.0
N86 N 0.76434 0.53317 0.04874 0.0
C87 C 0.72707 0.44412 0.04736 0.0
C88 C 0.74839 0.46292 1.01016 0.0
C89 C 0.7672 0.50702 1.01172 0.0
C90 C 0.74045 0.51709 0.08408 0.0
C91 C 0.72237 0.47235 0.08447 0.0
H92 H 0.78298 0.52037 0.9826 0.0
H93 H 0.73624 0.5386 0.11269 0.0
H94 H 0.81844 0.64269 0.96162 0.0
H95 H 0.68594 0.60529 0.92194 0.0
H96 H 0.87926 0.51358 0.17103 0.0
H97 H 0.75093 0.44371 0.97985 0.0
H98 H 0.70608 0.4598 0.11404 0.0
C99 C 0.39854 0.74402 0.47941 0.0
C100 C 0.39725 0.75057 0.43489 0.0
N101 N 0.37685 0.79088 0.42671 0.0
N102 N 0.37967 0.78027 0.49977 0.0
C103 C 0.36616 0.80815 0.46675 0.0
H104 H 0.41185 0.71428 0.49606 0.0
Co105 Co 0.37234 0.78302 0.56113 0.0
C106 C 0.41188 0.87286 0.58422 0.0
O107 O 0.43153 0.85206 0.6173 0.0
N108 N 0.36196 0.78318 0.62317 0.0
C109 C 0.34353 0.75362 0.68848 0.0
C110 C 0.35505 0.74386 0.64585 0.0
C111 C 0.35118 0.8165 0.65267 0.0
N112 N 0.34137 0.7995 0.69301 0.0
O113 O 0.3085 0.78953 0.55344 0.0
H114 H 0.35658 0.70975 0.63191 0.0
H115 H 0.34868 0.85252 0.64457 0.0
O116 O 0.38371 0.85024 0.55996 0.0
C117 C 0.2928 0.74877 0.54904 0.0
O118 O 0.32187 0.71474 0.54872 0.0
N119 N 0.43598 0.7727 0.56765 0.0
C120 C 0.5292 0.75565 0.57265 0.0
C121 C 0.51282 0.79076 0.54594 0.0
C122 C 0.46627 0.79814 0.54327 0.0
C123 C 0.4513 0.73648 0.59169 0.0
C124 C 0.49788 0.72768 0.59512 0.0
H125 H 0.45455 0.82437 0.52109 0.0
H126 H 0.42781 0.71324 0.60744 0.0
H127 H 0.3485 0.84012 0.47197 0.0
H128 H 0.40901 0.72657 0.41033 0.0
H129 H 0.33723 0.72867 0.71411 0.0
H130 H 0.53579 0.8119 0.52651 0.0
H131 H 0.50922 0.69934 0.61516 0.0
C132 C 0.74814 0.1112 0.14599 0.0
C133 C 0.74459 0.12492 0.18911 0.0
N134 N 0.70026 0.13196 0.19828 0.0
N135 N 0.70624 0.10923 0.128 0.0
C136 C 0.67781 0.12243 0.1605 0.0
H137 H 0.77922 0.10267 0.12888 0.0
Co138 Co 0.69264 0.09002 0.07077 0.0
C139 C 0.59307 0.07453 0.0743 0.0
O140 O 0.58653 0.10574 0.04396 0.0
N141 N 0.67792 0.07027 1.01246 0.0
C142 C 0.65152 0.02463 0.9593 0.0
C143 C 0.66534 0.02674 1.00213 0.0
C144 C 0.67099 0.09408 0.97466 0.0
N145 N 0.65457 0.06703 0.94191 0.0
O146 O 0.67208 0.15046 0.0582 0.0
H147 H 0.6639 -0.00166 1.02491 0.0
H148 H 0.67497 0.13092 0.97174 0.0
O149 O 0.63305 0.06812 0.08908 0.0
C150 C 0.70801 0.17116 0.04485 0.0
O151 O 0.74551 0.14722 0.04072 0.0
N152 N 0.71734 0.03268 0.08361 0.0
C153 C 0.75641 0.94736 0.09904 0.0
C154 C 0.71951 0.96258 0.12438 0.0
C155 C 0.70114 0.00568 0.11676 0.0
C156 C 0.7547 0.01995 0.06022 0.0
C157 C 0.77473 0.97728 0.06726 0.0
H158 H 0.67384 0.01729 0.1376 0.0
H159 H 0.76846 0.04275 0.0354 0.0
H160 H 0.64122 0.12413 0.15675 0.0
H161 H 0.77259 0.12977 0.21178 0.0
H162 H 0.63853 -0.0057 0.94269 0.0
H163 H 0.70391 0.94107 0.14926 0.0
H164 H 0.80398 0.9678 0.04775 0.0
C165 C 0.87652 0.73501 0.63101 0.0
C166 C 0.86857 0.74029 0.6752 0.0
N167 N 0.85348 0.69986 0.69157 0.0
N168 N 0.86708 0.69127 0.61923 0.0
C169 C 0.85258 0.67074 0.65679 0.0
H170 H 0.88862 0.76139 0.60876 0.0
Co171 Co 0.87322 0.66769 0.56171 0.0
C172 C 0.87783 0.56904 0.58979 0.0
O173 O 0.83548 0.5591 0.57911 0.0
N174 N 0.87918 0.64364 0.50385 0.0
C175 C 0.90533 0.60173 0.44831 0.0
C176 C 0.91063 0.61254 0.49184 0.0
C177 C 0.85565 0.65194 0.4663 0.0
N178 N 0.87077 0.6264 0.43205 0.0
O179 O 0.81104 0.64973 0.56296 0.0
H180 H 0.93634 0.5987 0.5133 0.0
H181 H 0.82767 0.67569 0.46419 0.0
O182 O 0.89321 0.60979 0.58503 0.0
C183 C 0.78915 0.68609 0.55455 0.0
O184 O 0.81242 0.72337 0.54396 0.0
N185 N 0.93356 0.68874 0.56001 0.0
C186 C 0.02242 0.72238 0.55465 0.0
C187 C 0.00937 0.69267 0.58865 0.0
C188 C 0.96457 0.67668 0.59109 0.0
C189 C 0.94502 0.71927 0.52784 0.0
C190 C -0.01045 0.73655 0.52447 0.0
H191 H 0.95473 0.65494 0.61825 0.0
H192 H 0.91958 0.72986 0.50444 0.0
H193 H 0.84211 0.63501 0.6587 0.0
H194 H 0.87302 0.77175 0.69378 0.0
H195 H 0.92592 0.57797 0.42974 0.0
H196 H 0.03367 0.68191 0.61318 0.0
H197 H -0.00155 0.75968 0.49794 0.0
C198 C 0.2234 0.87922 0.14494 0.0
C199 C 0.22551 0.87292 0.18946 0.0
N200 N 0.26965 0.87163 0.2015 0.0
N201 N 0.2659 0.88202 0.1284 0.0
C202 C 0.29355 0.87695 0.16367 0.0
H203 H 0.19266 0.88197 0.12562 0.0
Co204 Co 0.27496 0.89253 0.06822 0.0
C205 C 0.37733 0.90402 0.08512 0.0
O206 O 0.38827 0.86131 0.09356 0.0
N207 N 0.28357 0.90302 1.007 0.0
C208 C 0.30201 0.93706 0.94384 0.0
C209 C 0.29696 0.94302 0.98833 0.0
C210 C 0.28093 0.87324 0.97274 0.0
N211 N 0.29212 0.89293 0.93381 0.0
O212 O 0.29357 0.82993 0.06146 0.0
H213 H 0.30318 0.97474 1.00593 0.0
H214 H 0.27223 0.83736 0.97627 0.0
O215 O 0.33632 0.91415 0.07654 0.0
C216 C 0.25821 0.80491 0.05526 0.0
O217 O 0.21841 0.82504 0.05316 0.0
N218 N 0.25382 0.95279 0.07619 0.0
C219 C 0.2163 0.03862 0.09417 0.0
C220 C 0.25733 0.02522 0.11361 0.0
C221 C 0.2751 0.98214 0.10476 0.0
C222 C 0.21394 0.96494 0.05669 0.0
C223 C 0.19467 0.00799 0.06497 0.0
H224 H 0.30543 0.97211 0.12209 0.0
H225 H 0.19666 0.94084 0.03517 0.0
H226 H 0.33032 0.87802 0.16193 0.0
H227 H 0.19656 0.86899 0.2112 0.0
H228 H 0.31227 0.96351 0.92088 0.0
H229 H 0.27576 0.04778 0.13581 0.0
H230 H 0.16274 0.0167 0.04951 0.0
C231 C 0.10698 0.23197 0.6478 0.0
C232 C 0.1211 0.22771 0.6906 0.0
N233 N 0.12814 0.27009 0.70738 0.0
N234 N 0.10505 0.27683 0.63735 0.0
C235 C 0.11808 0.29936 0.67437 0.0
H236 H 0.09978 0.20412 0.62522 0.0
Co237 Co 0.09354 0.29838 0.58052 0.0
C238 C 0.08597 0.39757 0.59973 0.0
O239 O 0.12524 0.40639 0.58061 0.0
N240 N 0.0828 0.32037 0.52263 0.0
C241 C 0.05226 0.35955 0.46745 0.0
C242 C 0.0482 0.34804 0.51098 0.0
C243 C 0.1068 0.31461 0.48488 0.0
N244 N 0.08902 0.33844 0.45101 0.0
O245 O 0.15479 0.3198 0.57802 0.0
H246 H 0.02171 0.35959 0.53291 0.0
H247 H 0.13738 0.29448 0.48227 0.0
O248 O 0.07203 0.35616 0.60354 0.0
C249 C 0.18131 0.28907 0.56369 0.0
O250 O 0.16396 0.24948 0.55073 0.0
N251 N 0.03389 0.27448 0.58333 0.0
C252 C 0.94476 0.2397 0.58518 0.0
C253 C 0.96155 0.2675 0.61937 0.0
C254 C 0.00603 0.28465 0.61775 0.0
C255 C 0.01935 0.24528 0.55109 0.0
C256 C 0.97465 0.22791 0.55108 0.0
H257 H 0.0181 0.30615 0.64433 0.0
H258 H 0.04221 0.23624 0.52469 0.0
H259 H 0.12219 0.33631 0.67648 0.0
H260 H 0.12644 0.19578 0.70791 0.0
H261 H 0.02994 0.38183 0.44919 0.0
H262 H 0.94042 0.27627 0.64721 0.0
H263 H 0.96337 0.20657 0.52398 0.0
H264 H 0.17465 0.09934 0.0388 0.0
H265 H 0.21424 0.08111 0.17392 0.0
H266 H 0.19785 0.16125 0.18931 0.0
H267 H 0.18347 0.23885 0.16191 0.0
H268 H 0.14091 0.25787 1.02821 0.0
H269 H 0.14584 0.1749 1.01499 0.0
C270 C 0.17855 0.11255 0.07186 0.0
C271 C 0.19725 0.08455 0.10474 0.0
C272 C 0.1686 0.15887 0.08073 0.0
C273 C 0.20164 0.10229 0.14751 0.0
C274 C 0.19198 0.14809 0.1565 0.0
C275 C 0.17387 0.22448 0.13034 0.0
C276 C 0.16194 0.25399 0.09608 0.0
C277 C 0.17721 0.17708 0.12299 0.0
C278 C 0.14965 0.23546 0.05519 0.0
C279 C 0.15304 0.18815 0.04751 0.0
H280 H 0.87249 0.29017 0.61044 0.0
H281 H 0.90656 0.15745 0.55726 0.0
H282 H 0.82551 0.13638 0.55441 0.0
H283 H 0.7442 0.15693 0.56584 0.0
H284 H 0.71345 0.28973 0.62126 0.0
H285 H 0.79396 0.30864 0.62566 0.0
C286 C 0.86253 0.25617 0.59907 0.0
C287 C 0.89581 0.22544 0.58437 0.0
C288 C 0.81624 0.24414 0.59806 0.0
C289 C 0.88174 0.18208 0.56843 0.0
C290 C 0.83537 0.16987 0.56705 0.0
C291 C 0.75529 0.1897 0.57932 0.0
C292 C 0.72274 0.22192 0.59291 0.0
C293 C 0.80219 0.20076 0.58162 0.0
C294 C 0.73761 0.26437 0.61016 0.0
C295 C 0.78375 0.27536 0.61272 0.0
H296 H 0.7892 0.89024 0.03532 0.0
H297 H 0.76235 0.89649 0.17457 0.0
H298 H 0.7744 0.81418 0.18048 0.0
H299 H 0.78264 0.73915 0.14439 0.0
H300 H 0.81512 0.73318 1.00677 0.0
H301 H 0.81234 0.8172 1.00218 0.0
C302 C 0.78731 0.87412 0.06729 0.0
C303 C 0.77328 0.89959 0.10415 0.0
C304 C 0.79518 0.82678 0.07072 0.0
C305 C 0.77117 0.87761 0.14521 0.0
C306 C 0.77842 0.83051 0.14878 0.0
C307 C 0.79019 0.75651 0.11372 0.0
C308 C 0.79863 0.73056 0.07591 0.0
C309 C 0.78872 0.80455 0.11147 0.0
C310 C 0.80875 0.75287 0.03629 0.0
C311 C 0.80677 0.80076 0.03362 0.0
H312 H 0.09405 0.66636 0.55347 0.0
H313 H 0.05855 0.80922 0.54476 0.0
H314 H 0.1397 0.83093 0.54121 0.0
H315 H 0.22115 0.80851 0.54361 0.0
H316 H 0.25373 0.66427 0.55097 0.0
H317 H 0.17345 0.64401 0.55216 0.0
C318 C 0.10416 0.70227 0.55087 0.0
C319 C 0.07076 0.73622 0.54992 0.0
C320 C 0.15036 0.71424 0.54872 0.0
C321 C 0.08396 0.78256 0.54559 0.0
C322 C 0.13024 0.79491 0.54374 0.0
C323 C 0.21055 0.77273 0.54529 0.0
C324 C 0.2435 0.73808 0.54746 0.0
C325 C 0.16384 0.76099 0.54574 0.0
C326 C 0.22926 0.69178 0.54933 0.0
C327 C 0.18326 0.67999 0.55008 0.0
H328 H 0.76786 0.37309 1.00587 0.0
H329 H 0.65409 0.40321 0.09069 0.0
H330 H 0.63528 0.3212 0.09502 0.0
H331 H 0.65447 0.23997 0.07777 0.0
H332 H 0.76696 0.21344 0.99034 0.0
H333 H 0.78137 0.29531 0.98238 0.0
C334 C 0.73802 0.36232 1.02434 0.0
C335 C 0.71258 0.39475 0.04788 0.0
C336 C 0.72692 0.3155 1.02603 0.0
C337 C 0.67496 0.37919 0.07275 0.0
C338 C 0.66388 0.33223 0.07498 0.0
C339 C 0.68143 0.25233 0.05631 0.0
C340 C 0.70991 0.22074 0.03505 0.0
C341 C 0.69006 0.29992 0.05219 0.0
C342 C 0.74491 0.23706 1.00749 0.0
C343 C 0.7533 0.2839 1.00296 0.0
H344 H 0.57463 0.67444 0.56772 0.0
H345 H 0.59481 0.82064 0.58452 0.0
H346 H 0.67707 0.81118 0.58144 0.0
H347 H 0.74249 0.76272 0.56993 0.0
H348 H 0.72507 0.61623 0.55432 0.0
H349 H 0.6421 0.62428 0.56153 0.0
C350 C 0.59716 0.70402 0.57141 0.0
C351 C 0.57881 0.74826 0.57576 0.0
C352 C 0.64461 0.69834 0.56948 0.0
C353 C 0.60823 0.78639 0.58034 0.0
C354 C 0.65519 0.78102 0.57868 0.0
C355 C 0.72061 0.73245 0.568 0.0
C356 C 0.73957 0.68906 0.56083 0.0
C357 C 0.6736 0.73737 0.57238 0.0
C358 C 0.71099 0.65004 0.5595 0.0
C359 C 0.6637 0.65468 0.56358 0.0
H360 H 0.21876 0.59764 1.0145 0.0
H361 H 0.32547 0.57885 0.10974 0.0
H362 H 0.33841 0.66215 0.11274 0.0
H363 H 0.3145 0.7412 0.09242 0.0
H364 H 0.20593 0.75714 0.99864 0.0
H365 H 0.19968 0.67417 0.98995 0.0
C366 C 0.24579 0.61141 0.03508 0.0
C367 C 0.27109 0.58177 0.06178 0.0
C368 C 0.25265 0.6591 0.03697 0.0
C369 C 0.3051 0.60078 0.08911 0.0
C370 C 0.31261 0.64846 0.09076 0.0
C371 C 0.29018 0.72632 0.06955 0.0
C372 C 0.2605 0.75511 0.04641 0.0
C373 C 0.2859 0.67811 0.06548 0.0
C374 C 0.2288 0.73559 1.01713 0.0
C375 C 0.22516 0.68815 1.01215 0.0
H376 H 0.23987 0.27066 0.4989 0.0
H377 H 0.23299 0.31857 0.63233 0.0
H378 H 0.31583 0.31068 0.63969 0.0
H379 H 0.38778 0.27983 0.61071 0.0
H380 H 0.39441 0.2368 0.4752 0.0
H381 H 0.31393 0.25307 0.46612 0.0
C382 C 0.25686 0.28039 0.52918 0.0
C383 C 0.23094 0.29485 0.56509 0.0
C384 C 0.30412 0.27583 0.53301 0.0
C385 C 0.25274 0.30767 0.60422 0.0
C386 C 0.2999 0.30274 0.6085 0.0
C387 C 0.37204 0.27507 0.57887 0.0
C388 C 0.39696 0.25554 0.54416 0.0
C389 C 0.3257 0.28536 0.5735 0.0
C390 C 0.37574 0.24993 0.50308 0.0
C391 C 0.32974 0.25961 0.49765 0.0
H392 H 0.07663 0.52264 0.98577 0.0
H393 H 0.03362 0.40786 0.06571 0.0
H394 H 0.95382 0.42952 0.05617 0.0
H395 H 0.89701 0.48485 1.02948 0.0
H396 H 0.9405 0.59857 0.9488 0.0
H397 H 0.01978 0.5736 0.954 0.0
C398 C 0.04972 0.50207 1.00071 0.0
C399 C 0.06083 0.46407 1.02677 0.0
C400 C 0.00427 0.5149 0.99533 0.0
C401 C 0.02578 0.43723 0.04542 0.0
C402 C 0.98025 0.44982 0.04028 0.0
C403 C 0.92407 0.50416 1.01342 0.0
C404 C 0.91373 0.54402 0.9898 0.0
C405 C 0.96925 0.48925 1.01622 0.0
C406 C 0.94828 0.56806 0.96754 0.0
C407 C -0.00662 0.55379 0.97051 0.0
H408 H 0.46935 0.92825 0.62961 0.0
H409 H 0.4023 0.91528 0.50425 0.0
H410 H 0.44757 0.98011 0.47611 0.0
H411 H 0.50862 0.03841 0.48649 0.0
H412 H 0.57484 0.05045 0.61236 0.0
H413 H 0.52821 0.98702 0.64057 0.0
C414 C 0.46418 0.9398 0.59621 0.0
C415 C 0.43243 0.91685 0.5691 0.0
C416 C 0.49098 0.97622 0.58005 0.0
C417 C 0.42615 0.93254 0.526 0.0
C418 C 0.45245 0.96926 0.50973 0.0
C419 C 0.51333 0.02665 0.51987 0.0
C420 C 0.54573 0.04861 0.5471 0.0
C421 C 0.48559 -0.00922 0.53623 0.0
C422 C 0.55055 0.03377 0.59062 0.0
C423 C 0.52366 -0.00224 0.60687 0.0
H424 H 0.46617 0.90196 0.11291 0.0
H425 H 0.36688 -0.00913 0.05392 0.0
H426 H 0.42361 0.05191 0.04745 0.0
H427 H 0.50251 0.07957 0.0553 0.0
H428 H 0.60156 -0.00811 0.11611 0.0
H429 H 0.54411 0.93184 0.12557 0.0
C430 C 0.45696 0.9347 0.09874 0.0
C431 C 0.41234 0.94132 0.08343 0.0
C432 C 0.4898 0.9703 0.09554 0.0
C433 C 0.40094 0.98436 0.06569 0.0
C434 C 0.43342 0.01954 0.06198 0.0
C435 C 0.51144 0.04753 0.07105 0.0
C436 C 0.55649 0.04053 0.08484 0.0
C437 C 0.4781 0.0128 0.07636 0.0
C438 C 0.56725 -0.0013 0.10536 0.0
C439 C 0.53437 0.96398 0.11055 0.0
H440 H 0.9698 0.577 0.59759 0.0
H441 H 0.85965 0.47759 0.60508 0.0
H442 H 0.91488 0.41597 0.61425 0.0
H443 H -0.00569 0.39005 0.61328 0.0
H444 H 0.1038 0.48986 0.60161 0.0
H445 H 0.0486 0.55198 0.60183 0.0
C446 C 0.95756 0.54208 0.60202 0.0
C447 C 0.91045 0.5321 0.60054 0.0
C448 C -0.01056 0.5069 0.6064 0.0
C449 C 0.89563 0.48634 0.60592 0.0
C450 C 0.92722 0.45108 0.61112 0.0
C451 C 0.00627 0.4254 0.6116 0.0
C452 C 0.05327 0.43523 0.60721 0.0
C453 C 0.97424 0.46089 0.61045 0.0
C454 C 0.06793 0.48129 0.60483 0.0
C455 C 0.03635 0.51682 0.60479 0.0
H456 H 0.13952 0.33225 0.24998 0.0
H457 H 0.14166 0.47902 0.27111 0.0
H458 H 0.12649 0.4679 0.34847 0.0
H459 H 0.10694 0.41742 0.40996 0.0
H460 H 0.10908 0.27085 0.39305 0.0
H461 H 0.1288 0.2806 0.315 0.0
C462 C 0.13736 0.36169 0.27163 0.0
C463 C 0.1404 0.40654 0.25399 0.0
C464 C 0.12917 0.35509 0.31708 0.0
C465 C 0.13787 0.44418 0.28299 0.0
C466 C 0.12948 0.43792 0.32757 0.0
C467 C 0.11228 0.3877 0.38917 0.0
C468 C 0.1063 0.34357 0.40692 0.0
C469 C 0.12398 0.3937 0.3448 0.0
C470 C 0.11369 0.30516 0.37997 0.0
C471 C 0.1247 0.31082 0.33535 0.0
H472 H 0.68701 0.13386 0.88697 0.0
H473 H 0.58138 0.03045 0.90125 0.0
H474 H 0.55249 0.04796 0.82876 0.0
H475 H 0.55748 0.09053 0.76085 0.0
H476 H 0.6605 0.19596 0.74387 0.0
H477 H 0.69056 0.17926 0.81718 0.0
C478 C 0.65752 0.11551 0.8742 0.0
C479 C 0.63685 0.08037 0.89954 0.0
C480 C 0.64078 0.1258 0.83179 0.0
C481 C 0.59866 0.05685 0.88235 0.0
C482 C 0.58188 0.06701 0.84085 0.0
C483 C 0.58606 0.1106 0.7731 0.0
C484 C 0.6062 0.14492 0.74663 0.0
C485 C 0.60278 0.1011 0.81519 0.0
C486 C 0.64428 0.16923 0.76319 0.0
C487 C 0.66134 0.15983 0.80532 0.0
H488 H 0.86007 0.55078 0.383 0.0
H489 H 0.84637 0.69769 0.37962 0.0
H490 H 0.83023 0.69415 0.30041 0.0
H491 H 0.8267 0.64861 0.23029 0.0
H492 H 0.83934 0.50124 0.23737 0.0
H493 H 0.84911 0.50557 0.31627 0.0
C494 C 0.85315 0.58201 0.36497 0.0
C495 C 0.85485 0.62445 0.3871 0.0
C496 C 0.84411 0.57958 0.31973 0.0
C497 C 0.8451 0.66457 0.36342 0.0
C498 C 0.8362 0.6625 0.31804 0.0
C499 C 0.83089 0.61751 0.24927 0.0
C500 C 0.8333 0.57467 0.22742 0.0
C501 C 0.83651 0.62017 0.2955 0.0
C502 C 0.83859 0.53473 0.25281 0.0
C503 C 0.84398 0.5371 0.29817 0.0
H504 H 0.3355 0.92517 0.86074 0.0
H505 H 0.25471 0.81068 0.90881 0.0
H506 H 0.26176 0.77251 0.8382 0.0
H507 H 0.29187 0.77047 0.76295 0.0
H508 H 0.37154 0.8851 0.71439 0.0
H509 H 0.36245 0.92482 0.78448 0.0
C510 C 0.31884 0.89217 0.85598 0.0
C511 C 0.29487 0.87105 0.89097 0.0
C512 C 0.32255 0.87036 0.81481 0.0
C513 C 0.27412 0.82783 0.88337 0.0
C514 C 0.27786 0.80591 0.84265 0.0
C515 C 0.30736 0.8041 0.76762 0.0
C516 C 0.33262 0.82454 0.73323 0.0
C517 C 0.30229 0.82664 0.80824 0.0
C518 C 0.35159 0.86862 0.7399 0.0
C519 C 0.3467 0.89123 0.7802 0.0
H520 H 0.82206 0.68761 0.89606 0.0
H521 H 0.71764 0.59167 0.8539 0.0
H522 H 0.73915 0.60391 0.77777 0.0
H523 H 0.78798 0.64158 0.72203 0.0
H524 H 0.89196 0.73788 0.76375 0.0
H525 H 0.87074 0.72548 0.84031 0.0
C526 C 0.80404 0.66931 0.87029 0.0
C527 C 0.76791 0.639 0.88128 0.0
C528 C 0.81672 0.6764 0.82603 0.0
C529 C 0.74491 0.61592 0.84697 0.0
C530 C 0.7575 0.62256 0.80312 0.0
C531 C 0.8062 0.65952 0.74791 0.0
C532 C 0.84154 0.69066 0.73691 0.0
C533 C 0.79341 0.65263 0.79214 0.0
C534 C 0.86435 0.71408 0.77104 0.0
C535 C 0.85229 0.70691 0.81498 0.0
H536 H 0.30436 0.84209 0.40316 0.0
H537 H 0.42607 0.77961 0.35262 0.0
H538 H 0.40507 0.80124 0.27817 0.0
H539 H 0.34931 0.83324 0.22639 0.0
H540 H 0.22775 0.89608 0.27705 0.0
H541 H 0.25144 0.87928 0.35178 0.0
C542 C 0.32664 0.83393 0.37595 0.0
C543 C 0.36651 0.80878 0.38362 0.0
C544 C 0.31411 0.84617 0.33288 0.0
C545 C 0.39477 0.79821 0.34773 0.0
C546 C 0.38285 0.81069 0.30503 0.0
C547 C 0.32835 0.84387 0.25377 0.0
C548 C 0.28643 0.86534 0.24575 0.0
C549 C 0.34214 0.83392 0.29702 0.0
C550 C 0.25967 0.87859 0.28192 0.0
C551 C 0.27332 0.86921 0.32486 0.0
H552 H 0.10372 0.33967 0.76138 0.0
H553 H 0.19307 0.22385 0.75059 0.0
H554 H 0.22185 0.23822 0.8245 0.0
H555 H 0.22055 0.28248 0.89326 0.0
H556 H 0.12958 0.39688 0.90589 0.0
H557 H 0.10237 0.38424 0.83098 0.0
C558 C 0.12974 0.31793 0.7752 0.0
C559 C 0.14616 0.28068 0.75044 0.0
C560 C 0.14564 0.32593 0.81836 0.0
C561 C 0.17953 0.25243 0.76903 0.0
C562 C 0.1961 0.2607 0.81131 0.0
C563 C 0.19503 0.30487 0.87954 0.0
C564 C 0.17724 0.34061 0.90539 0.0
C565 C 0.17922 0.29713 0.83646 0.0
C566 C 0.14358 0.3688 0.88709 0.0
C567 C 0.12816 0.36174 0.84406 0.0
H568 H 0.73399 0.11684 0.2796 0.0
H569 H 0.62295 0.18014 0.21065 0.0
H570 H 0.5905 0.20564 0.28012 0.0
H571 H 0.59369 0.21047 0.36032 0.0
H572 H 0.70447 0.14775 0.42999 0.0
H573 H 0.73692 0.12142 0.36047 0.0
C574 C 0.70289 0.13651 0.27972 0.0
C575 C 0.68105 0.14657 0.2397 0.0
C576 C 0.68432 0.15112 0.31998 0.0
C577 C 0.64027 0.17142 0.24075 0.0
C578 C 0.6218 0.18626 0.28054 0.0
C579 C 0.62521 0.19148 0.36039 0.0
C580 C 0.64677 0.18151 0.40051 0.0
C581 C 0.64357 0.17643 0.32032 0.0
C582 C 0.687 0.15576 0.39978 0.0
C583 C 0.70567 0.14087 0.35996 0.0
loop_
_geom_bond_atom_site_label_1
_geom_bond_atom_site_label_2
_geom_bond_distance
_geom_bond_site_symmetry_2
_ccdc_geom_bond_type
C0 C1 1.351 . S
C0 N3 1.368 . S
C0 H5 0.931 . S
C1 C0 1.351 . S
C1 N2 1.373 . S
C1 H29 0.930 . S
N2 C1 1.373 . S
N2 C4 1.340 . S
N3 C0 1.368 . S
N3 C4 1.321 . S
N3 Co6 2.135 1_556 S
C4 N2 1.340 . S
C4 N3 1.321 . S
C4 H28 0.930 . S
H5 C0 0.931 . S
Co6 N3 2.135 1_554 S
Co6 N9 2.121 . S
Co6 O14 2.055 . S
Co6 O17 2.039 . S
Co6 N20 2.140 . S
C7 O8 1.227 . S
C7 O17 1.265 . S
O8 C7 1.227 . S
N9 Co6 2.121 . S
N9 C11 1.375 . S
N9 C12 1.313 . S
C10 C11 1.338 . S
C10 N13 1.377 . S
C10 H30 0.930 . S
C11 N9 1.375 . S
C11 C10 1.338 . S
C11 H15 0.931 . S
C12 N9 1.313 . S
C12 N13 1.344 . S
C12 H16 0.930 . S
N13 C10 1.377 . S
N13 C12 1.344 . S
O14 Co6 2.055 . S
O14 C18 1.253 . S
H15 C11 0.931 . S
H16 C12 0.930 . S
O17 Co6 2.039 . S
O17 C7 1.265 . S
C18 O14 1.253 . S
C18 O19 1.227 . S
O19 C18 1.227 . S
N20 Co6 2.140 . S
N20 C23 1.346 1_554 S
N20 C24 1.345 . S
C21 C22 1.387 1_554 S
C21 C25 1.391 . S
C22 C21 1.387 1_556 S
C22 C23 1.369 . S
C22 H31 0.929 . S
C23 N20 1.346 1_556 S
C23 C22 1.369 . S
C23 H26 0.928 . S
C24 N20 1.345 . S
C24 C25 1.371 . S
C24 H27 0.931 . S
C25 C21 1.391 . S
C25 C24 1.371 . S
C25 H32 0.930 . S
H26 C23 0.928 . S
H27 C24 0.931 . S
H28 C4 0.930 . S
H29 C1 0.930 . S
H30 C10 0.930 . S
H31 C22 0.929 . S
H32 C25 0.930 . S
C33 C34 1.351 . S
C33 N36 1.368 . S
C33 H38 0.931 . S
C34 C33 1.351 . S
C34 N35 1.373 . S
C34 H62 0.930 . S
N35 C34 1.373 . S
N35 C37 1.340 . S
N36 C33 1.368 . S
N36 C37 1.321 . S
N36 Co39 2.135 . S
C37 N35 1.340 . S
C37 N36 1.321 . S
C37 H61 0.930 . S
H38 C33 0.931 . S
Co39 N36 2.135 . S
Co39 N42 2.121 . S
Co39 O47 2.055 . S
Co39 O50 2.039 . S
Co39 N53 2.140 . S
C40 O41 1.227 . S
C40 O50 1.265 . S
O41 C40 1.227 . S
N42 Co39 2.121 . S
N42 C44 1.375 . S
N42 C45 1.313 . S
C43 C44 1.338 . S
C43 N46 1.377 . S
C43 H63 0.930 . S
C44 N42 1.375 . S
C44 C43 1.338 . S
C44 H48 0.931 . S
C45 N42 1.313 . S
C45 N46 1.344 . S
C45 H49 0.930 . S
N46 C43 1.377 . S
N46 C45 1.344 . S
O47 Co39 2.055 . S
O47 C51 1.253 . S
H48 C44 0.931 . S
H49 C45 0.930 . S
O50 Co39 2.039 . S
O50 C40 1.265 . S
C51 O47 1.253 . S
C51 O52 1.227 . S
O52 C51 1.227 . S
N53 Co39 2.140 . S
N53 C56 1.346 . S
N53 C57 1.345 . S
C54 C55 1.387 . S
C54 C58 1.391 . S
C55 C54 1.387 . S
C55 C56 1.369 . S
C55 H64 0.929 . S
C56 N53 1.346 . S
C56 C55 1.369 . S
C56 H59 0.928 . S
C57 N53 1.345 . S
C57 C58 1.371 . S
C57 H60 0.931 . S
C58 C54 1.391 . S
C58 C57 1.371 . S
C58 H65 0.930 . S
H59 C56 0.928 . S
H60 C57 0.931 . S
H61 C37 0.930 . S
H62 C34 0.930 . S
H63 C43 0.930 . S
H64 C55 0.929 . S
H65 C58 0.930 . S
C66 C67 1.351 . S
C66 N69 1.368 . S
C66 H71 0.931 . S
C67 C66 1.351 . S
C67 N68 1.373 . S
C67 H95 0.930 . S
N68 C67 1.373 . S
N68 C70 1.340 . S
N69 C66 1.368 . S
N69 C70 1.321 . S
N69 Co72 2.135 1_556 S
C70 N68 1.340 . S
C70 N69 1.321 . S
C70 H94 0.930 . S
H71 C66 0.931 . S
Co72 N69 2.135 1_554 S
Co72 N75 2.121 . S
Co72 O80 2.055 . S
Co72 O83 2.039 . S
Co72 N86 2.140 . S
C73 O74 1.227 . S
C73 O83 1.265 . S
O74 C73 1.227 . S
N75 Co72 2.121 . S
N75 C77 1.375 . S
N75 C78 1.313 . S
C76 C77 1.338 . S
C76 N79 1.377 . S
C76 H96 0.930 . S
C77 N75 1.375 . S
C77 C76 1.338 . S
C77 H81 0.931 . S
C78 N75 1.313 . S
C78 N79 1.344 . S
C78 H82 0.930 . S
N79 C76 1.377 . S
N79 C78 1.344 . S
O80 Co72 2.055 . S
O80 C84 1.253 . S
H81 C77 0.931 . S
H82 C78 0.930 . S
O83 Co72 2.039 . S
O83 C73 1.265 . S
C84 O80 1.253 . S
C84 O85 1.227 . S
O85 C84 1.227 . S
N86 Co72 2.140 . S
N86 C89 1.346 1_554 S
N86 C90 1.345 . S
C87 C88 1.387 1_554 S
C87 C91 1.391 . S
C88 C87 1.387 1_556 S
C88 C89 1.369 . S
C88 H97 0.929 . S
C89 N86 1.346 1_556 S
C89 C88 1.369 . S
C89 H92 0.928 . S
C90 N86 1.345 . S
C90 C91 1.371 . S
C90 H93 0.931 . S
C91 C87 1.391 . S
C91 C90 1.371 . S
C91 H98 0.930 . S
H92 C89 0.928 . S
H93 C90 0.931 . S
H94 C70 0.930 . S
H95 C67 0.930 . S
H96 C76 0.930 . S
H97 C88 0.929 . S
H98 C91 0.930 . S
C99 C100 1.351 . S
C99 N102 1.368 . S
C99 H104 0.931 . S
C100 C99 1.351 . S
C100 N101 1.373 . S
C100 H128 0.930 . S
N101 C100 1.373 . S
N101 C103 1.340 . S
N102 C99 1.368 . S
N102 C103 1.321 . S
N102 Co105 2.135 . S
C103 N101 1.340 . S
C103 N102 1.321 . S
C103 H127 0.930 . S
H104 C99 0.931 . S
Co105 N102 2.135 . S
Co105 N108 2.121 . S
Co105 O113 2.055 . S
Co105 O116 2.039 . S
Co105 N119 2.140 . S
C106 O107 1.227 . S
C106 O116 1.265 . S
O107 C106 1.227 . S
N108 Co105 2.121 . S
N108 C110 1.375 . S
N108 C111 1.313 . S
C109 C110 1.338 . S
C109 N112 1.377 . S
C109 H129 0.930 . S
C110 N108 1.375 . S
C110 C109 1.338 . S
C110 H114 0.931 . S
C111 N108 1.313 . S
C111 N112 1.344 . S
C111 H115 0.930 . S
N112 C109 1.377 . S
N112 C111 1.344 . S
O113 Co105 2.055 . S
O113 C117 1.253 . S
H114 C110 0.931 . S
H115 C111 0.930 . S
O116 Co105 2.039 . S
O116 C106 1.265 . S
C117 O113 1.253 . S
C117 O118 1.227 . S
O118 C117 1.227 . S
N119 Co105 2.140 . S
N119 C122 1.346 . S
N119 C123 1.345 . S
C120 C121 1.387 . S
C120 C124 1.391 . S
C121 C120 1.387 . S
C121 C122 1.369 . S
C121 H130 0.929 . S
C122 N119 1.346 . S
C122 C121 1.369 . S
C122 H125 0.928 . S
C123 N119 1.345 . S
C123 C124 1.371 . S
C123 H126 0.931 . S
C124 C120 1.391 . S
C124 C123 1.371 . S
C124 H131 0.930 . S
H125 C122 0.928 . S
H126 C123 0.931 . S
H127 C103 0.930 . S
H128 C100 0.930 . S
H129 C109 0.930 . S
H130 C121 0.929 . S
H131 C124 0.930 . S
C132 C133 1.351 . S
C132 N135 1.368 . S
C132 H137 0.931 . S
C133 C132 1.351 . S
C133 N134 1.373 . S
C133 H161 0.930 . S
N134 C133 1.373 . S
N134 C136 1.340 . S
N135 C132 1.368 . S
N135 C136 1.321 . S
N135 Co138 2.135 . S
C136 N134 1.340 . S
C136 N135 1.321 . S
C136 H160 0.930 . S
H137 C132 0.931 . S
Co138 N135 2.135 . S
Co138 N141 2.121 1_554 S
Co138 O146 2.055 . S
Co138 O149 2.039 . S
Co138 N152 2.140 . S
C139 O140 1.227 . S
C139 O149 1.265 . S
O140 C139 1.227 . S
N141 Co138 2.121 1_556 S
N141 C143 1.375 . S
N141 C144 1.313 . S
C142 C143 1.338 . S
C142 N145 1.377 . S
C142 H162 0.930 . S
C143 N141 1.375 . S
C143 C142 1.338 . S
C143 H147 0.931 . S
C144 N141 1.313 . S
C144 N145 1.344 . S
C144 H148 0.930 . S
N145 C142 1.377 . S
N145 C144 1.344 . S
O146 Co138 2.055 . S
O146 C150 1.253 . S
H147 C143 0.931 . S
H148 C144 0.930 . S
O149 Co138 2.039 . S
O149 C139 1.265 . S
C150 O146 1.253 . S
C150 O151 1.227 . S
O151 C150 1.227 . S
N152 Co138 2.140 . S
N152 C155 1.346 1_545 S
N152 C156 1.345 . S
C153 C154 1.387 . S
C153 C157 1.391 . S
C154 C153 1.387 . S
C154 C155 1.369 . S
C154 H163 0.929 . S
C155 N152 1.346 1_565 S
C155 C154 1.369 . S
C155 H158 0.926 1_565 S
C156 N152 1.345 . S
C156 C157 1.371 1_545 S
C156 H159 0.931 1_554 S
C157 C153 1.391 . S
C157 C156 1.371 1_565 S
C157 H164 0.930 1_554 S
H158 C155 0.926 1_545 S
H159 C156 0.931 1_556 S
H160 C136 0.930 . S
H161 C133 0.930 . S
H162 C142 0.930 . S
H163 C154 0.929 . S
H164 C157 0.930 1_556 S
C165 C166 1.351 . S
C165 N168 1.368 . S
C165 H170 0.931 . S
C166 C165 1.351 . S
C166 N167 1.373 . S
C166 H194 0.930 . S
N167 C166 1.373 . S
N167 C169 1.340 . S
N168 C165 1.368 . S
N168 C169 1.321 . S
N168 Co171 2.135 . S
C169 N167 1.340 . S
C169 N168 1.321 . S
C169 H193 0.930 . S
H170 C165 0.931 . S
Co171 N168 2.135 . S
Co171 N174 2.121 . S
Co171 O179 2.055 . S
Co171 O182 2.039 . S
Co171 N185 2.140 . S
C172 O173 1.227 . S
C172 O182 1.265 . S
O173 C172 1.227 . S
N174 Co171 2.121 . S
N174 C176 1.375 . S
N174 C177 1.313 . S
C175 C176 1.338 . S
C175 N178 1.377 . S
C175 H195 0.930 . S
C176 N174 1.375 . S
C176 C175 1.338 . S
C176 H180 0.931 . S
C177 N174 1.313 . S
C177 N178 1.344 . S
C177 H181 0.930 . S
N178 C175 1.377 . S
N178 C177 1.344 . S
O179 Co171 2.055 . S
O179 C183 1.253 . S
H180 C176 0.931 . S
H181 C177 0.930 . S
O182 Co171 2.039 . S
O182 C172 1.265 . S
C183 O179 1.253 . S
C183 O184 1.227 . S
O184 C183 1.227 . S
N185 Co171 2.140 . S
N185 C188 1.346 1_655 S
N185 C189 1.345 . S
C186 C187 1.387 . S
C186 C190 1.391 . S
C187 C186 1.387 . S
C187 C188 1.369 . S
C187 H196 0.929 . S
C188 N185 1.346 1_455 S
C188 C187 1.369 . S
C188 H191 0.926 1_455 S
C189 N185 1.345 . S
C189 C190 1.371 1_655 S
C189 H192 0.931 . S
C190 C186 1.391 . S
C190 C189 1.371 1_455 S
C190 H197 0.930 . S
H191 C188 0.926 1_655 S
H192 C189 0.931 . S
H193 C169 0.930 . S
H194 C166 0.930 . S
H195 C175 0.930 . S
H196 C187 0.929 . S
H197 C190 0.930 . S
C198 C199 1.351 . S
C198 N201 1.368 . S
C198 H203 0.931 . S
C199 C198 1.351 . S
C199 N200 1.373 . S
C199 H227 0.930 . S
N200 C199 1.373 . S
N200 C202 1.340 . S
N201 C198 1.368 . S
N201 C202 1.321 . S
N201 Co204 2.135 . S
C202 N200 1.340 . S
C202 N201 1.321 . S
C202 H226 0.930 . S
H203 C198 0.931 . S
Co204 N201 2.135 . S
Co204 N207 2.121 1_554 S
Co204 O212 2.055 . S
Co204 O215 2.039 . S
Co204 N218 2.140 . S
C205 O206 1.227 . S
C205 O215 1.265 . S
O206 C205 1.227 . S
N207 Co204 2.121 1_556 S
N207 C209 1.375 . S
N207 C210 1.313 . S
C208 C209 1.338 . S
C208 N211 1.377 . S
C208 H228 0.930 . S
C209 N207 1.375 . S
C209 C208 1.338 . S
C209 H213 0.931 . S
C210 N207 1.313 . S
C210 N211 1.344 . S
C210 H214 0.930 . S
N211 C208 1.377 . S
N211 C210 1.344 . S
O212 Co204 2.055 . S
O212 C216 1.253 . S
H213 C209 0.931 . S
H214 C210 0.930 . S
O215 Co204 2.039 . S
O215 C205 1.265 . S
C216 O212 1.253 . S
C216 O217 1.227 . S
O217 C216 1.227 . S
N218 Co204 2.140 . S
N218 C221 1.346 1_565 S
N218 C222 1.345 . S
C219 C220 1.387 . S
C219 C223 1.391 . S
C220 C219 1.387 . S
C220 C221 1.369 . S
C220 H229 0.929 . S
C221 N218 1.346 1_545 S
C221 C220 1.369 . S
C221 H224 0.926 1_545 S
C222 N218 1.345 . S
C222 C223 1.371 1_565 S
C222 H225 0.931 1_554 S
C223 C219 1.391 . S
C223 C222 1.371 1_545 S
C223 H230 0.930 1_554 S
H224 C221 0.926 1_565 S
H225 C222 0.931 1_556 S
H226 C202 0.930 . S
H227 C199 0.930 . S
H228 C208 0.930 . S
H229 C220 0.929 . S
H230 C223 0.930 1_556 S
C231 C232 1.351 . S
C231 N234 1.368 . S
C231 H236 0.931 . S
C232 C231 1.351 . S
C232 N233 1.373 . S
C232 H260 0.930 . S
N233 C232 1.373 . S
N233 C235 1.340 . S
N234 C231 1.368 . S
N234 C235 1.321 . S
N234 Co237 2.135 . S
C235 N233 1.340 . S
C235 N234 1.321 . S
C235 H259 0.930 . S
H236 C231 0.931 . S
Co237 N234 2.135 . S
Co237 N240 2.121 . S
Co237 O245 2.055 . S
Co237 O248 2.039 . S
Co237 N251 2.140 . S
C238 O239 1.227 . S
C238 O248 1.265 . S
O239 C238 1.227 . S
N240 Co237 2.121 . S
N240 C242 1.375 . S
N240 C243 1.313 . S
C241 C242 1.338 . S
C241 N244 1.377 . S
C241 H261 0.930 . S
C242 N240 1.375 . S
C242 C241 1.338 . S
C242 H246 0.931 . S
C243 N240 1.313 . S
C243 N244 1.344 . S
C243 H247 0.930 . S
N244 C241 1.377 . S
N244 C243 1.344 . S
O245 Co237 2.055 . S
O245 C249 1.253 . S
H246 C242 0.931 . S
H247 C243 0.930 . S
O248 Co237 2.039 . S
O248 C238 1.265 . S
C249 O245 1.253 . S
C249 O250 1.227 . S
O250 C249 1.227 . S
N251 Co237 2.140 . S
N251 C254 1.346 1_455 S
N251 C255 1.345 . S
C252 C253 1.387 . S
C252 C256 1.391 . S
C253 C252 1.387 . S
C253 C254 1.369 . S
C253 H262 0.929 . S
C254 N251 1.346 1_655 S
C254 C253 1.369 . S
C254 H257 0.926 1_655 S
C255 N251 1.345 . S
C255 C256 1.371 1_455 S
C255 H258 0.931 . S
C256 C252 1.391 . S
C256 C255 1.371 1_655 S
C256 H263 0.930 . S
H257 C254 0.926 1_455 S
H258 C255 0.931 . S
H259 C235 0.930 . S
H260 C232 0.930 . S
H261 C241 0.930 . S
H262 C253 0.929 . S
H263 C256 0.930 . S
H264 C270 0.930 1_556 S
H265 C273 0.930 . S
H266 C274 0.930 . S
H267 C275 0.930 . S
H268 C278 0.938 . S
H269 C279 0.930 . S
C270 H264 0.930 1_554 S
C270 C271 1.355 . S
C270 C272 1.415 . S
C271 C270 1.355 . S
C271 C273 1.419 . S
C272 C270 1.415 . S
C272 C277 1.425 . S
C272 C279 1.409 1_554 S
C273 H265 0.930 . S
C273 C271 1.419 . S
C273 C274 1.362 . S
C274 H266 0.930 . S
C274 C273 1.362 . S
C274 C277 1.409 . S
C275 H267 0.930 . S
C275 C276 1.355 . S
C275 C277 1.415 . S
C276 C275 1.355 . S
C276 C278 1.409 1_554 S
C277 C272 1.425 . S
C277 C274 1.409 . S
C277 C275 1.415 . S
C278 H268 0.938 . S
C278 C276 1.409 1_556 S
C278 C279 1.364 . S
C279 H269 0.930 . S
C279 C272 1.409 1_556 S
C279 C278 1.364 . S
H280 C286 0.930 . S
H281 C289 0.930 . S
H282 C290 0.930 . S
H283 C291 0.930 . S
H284 C294 0.930 . S
H285 C295 0.930 . S
C286 H280 0.930 . S
C286 C287 1.355 . S
C286 C288 1.415 . S
C287 C286 1.355 . S
C287 C289 1.419 . S
C288 C286 1.415 . S
C288 C293 1.425 . S
C288 C295 1.409 . S
C289 H281 0.930 . S
C289 C287 1.419 . S
C289 C290 1.362 . S
C290 H282 0.930 . S
C290 C289 1.362 . S
C290 C293 1.409 . S
C291 H283 0.930 . S
C291 C292 1.355 . S
C291 C293 1.415 . S
C292 C291 1.355 . S
C292 C294 1.419 . S
C293 C288 1.425 . S
C293 C290 1.409 . S
C293 C291 1.415 . S
C294 H284 0.930 . S
C294 C292 1.419 . S
C294 C295 1.362 . S
C295 H285 0.930 . S
C295 C288 1.409 . S
C295 C294 1.362 . S
H296 C302 0.930 1_556 S
H297 C305 0.930 . S
H298 C306 0.930 . S
H299 C307 0.930 . S
H300 C310 0.930 . S
H301 C311 0.930 . S
C302 H296 0.930 1_554 S
C302 C303 1.355 . S
C302 C304 1.415 . S
C303 C302 1.355 . S
C303 C305 1.419 . S
C304 C302 1.415 . S
C304 C309 1.425 . S
C304 C311 1.409 1_554 S
C305 H297 0.930 . S
C305 C303 1.419 . S
C305 C306 1.362 . S
C306 H298 0.930 . S
C306 C305 1.362 . S
C306 C309 1.409 . S
C307 H299 0.930 . S
C307 C308 1.355 . S
C307 C309 1.415 . S
C308 C307 1.355 . S
C308 C310 1.419 1_554 S
C309 C304 1.425 . S
C309 C306 1.409 . S
C309 C307 1.415 . S
C310 H300 0.930 . S
C310 C308 1.419 1_556 S
C310 C311 1.362 . S
C311 H301 0.930 . S
C311 C304 1.409 1_556 S
C311 C310 1.362 . S
H312 C318 0.930 . S
H313 C321 0.930 . S
H314 C322 0.930 . S
H315 C323 0.930 . S
H316 C326 0.930 . S
H317 C327 0.930 . S
C318 H312 0.930 . S
C318 C319 1.355 . S
C318 C320 1.415 . S
C319 C318 1.355 . S
C319 C321 1.419 . S
C320 C318 1.415 . S
C320 C325 1.425 . S
C320 C327 1.409 . S
C321 H313 0.930 . S
C321 C319 1.419 . S
C321 C322 1.362 . S
C322 H314 0.930 . S
C322 C321 1.362 . S
C322 C325 1.409 . S
C323 H315 0.930 . S
C323 C324 1.355 . S
C323 C325 1.415 . S
C324 C323 1.355 . S
C324 C326 1.419 . S
C325 C320 1.425 . S
C325 C322 1.409 . S
C325 C323 1.415 . S
C326 H316 0.930 . S
C326 C324 1.419 . S
C326 C327 1.362 . S
C327 H317 0.930 . S
C327 C320 1.409 . S
C327 C326 1.362 . S
H328 C334 0.930 1_556 S
H329 C337 0.930 . S
H330 C338 0.930 . S
H331 C339 0.930 . S
H332 C342 0.930 . S
H333 C343 0.930 . S
C334 H328 0.930 1_554 S
C334 C335 1.355 . S
C334 C336 1.415 . S
C335 C334 1.355 . S
C335 C337 1.419 . S
C336 C334 1.415 . S
C336 C341 1.425 . S
C336 C343 1.409 1_554 S
C337 H329 0.930 . S
C337 C335 1.419 . S
C337 C338 1.362 . S
C338 H330 0.930 . S
C338 C337 1.362 . S
C338 C341 1.409 . S
C339 H331 0.930 . S
C339 C340 1.355 . S
C339 C341 1.415 . S
C340 C339 1.355 . S
C340 C342 1.419 1_554 S
C341 C336 1.425 . S
C341 C338 1.409 . S
C341 C339 1.415 . S
C342 H332 0.930 . S
C342 C340 1.419 1_556 S
C342 C343 1.362 . S
C343 H333 0.930 . S
C343 C336 1.409 1_556 S
C343 C342 1.362 . S
H344 C350 0.930 . S
H345 C353 0.930 . S
H346 C354 0.930 . S
H347 C355 0.930 . S
H348 C358 0.930 . S
H349 C359 0.930 . S
C350 H344 0.930 . S
C350 C351 1.355 . S
C350 C352 1.415 . S
C351 C350 1.355 . S
C351 C353 1.419 . S
C352 C350 1.415 . S
C352 C357 1.425 . S
C352 C359 1.409 . S
C353 H345 0.930 . S
C353 C351 1.419 . S
C353 C354 1.362 . S
C354 H346 0.930 . S
C354 C353 1.362 . S
C354 C357 1.409 . S
C355 H347 0.930 . S
C355 C356 1.355 . S
C355 C357 1.415 . S
C356 C355 1.355 . S
C356 C358 1.419 . S
C357 C352 1.425 . S
C357 C354 1.409 . S
C357 C355 1.415 . S
C358 H348 0.930 . S
C358 C356 1.419 . S
C358 C359 1.362 . S
C359 H349 0.930 . S
C359 C352 1.409 . S
C359 C358 1.362 . S
H360 C366 0.930 . S
H361 C369 0.930 . S
H362 C370 0.930 . S
H363 C371 0.930 . S
H364 C374 0.930 . S
H365 C375 0.930 . S
C366 H360 0.930 . S
C366 C367 1.355 . S
C366 C368 1.415 . S
C367 C366 1.355 . S
C367 C369 1.419 . S
C368 C366 1.415 . S
C368 C373 1.425 . S
C368 C375 1.409 . S
C369 H361 0.930 . S
C369 C367 1.419 . S
C369 C370 1.362 . S
C370 H362 0.930 . S
C370 C369 1.362 . S
C370 C373 1.409 . S
C371 H363 0.930 . S
C371 C372 1.355 . S
C371 C373 1.415 . S
C372 C371 1.355 . S
C372 C374 1.419 . S
C373 C368 1.425 . S
C373 C370 1.409 . S
C373 C371 1.415 . S
C374 H364 0.930 . S
C374 C372 1.419 . S
C374 C375 1.362 . S
C375 H365 0.930 . S
C375 C368 1.409 . S
C375 C374 1.362 . S
H376 C382 0.930 . S
H377 C385 0.930 . S
H378 C386 0.930 . S
H379 C387 0.930 . S
H380 C390 0.930 . S
H381 C391 0.930 . S
C382 H376 0.930 . S
C382 C383 1.355 . S
C382 C384 1.415 . S
C383 C382 1.355 . S
C383 C385 1.419 . S
C384 C382 1.415 . S
C384 C389 1.425 . S
C384 C391 1.409 . S
C385 H377 0.930 . S
C385 C383 1.419 . S
C385 C386 1.362 . S
C386 H378 0.930 . S
C386 C385 1.362 . S
C386 C389 1.409 . S
C387 H379 0.930 . S
C387 C388 1.355 . S
C387 C389 1.415 . S
C388 C387 1.355 . S
C388 C390 1.419 . S
C389 C384 1.425 . S
C389 C386 1.409 . S
C389 C387 1.415 . S
C390 H380 0.930 . S
C390 C388 1.419 . S
C390 C391 1.362 . S
C391 H381 0.930 . S
C391 C384 1.409 . S
C391 C390 1.362 . S
H392 C398 0.930 . S
H393 C401 0.930 . S
H394 C402 0.930 . S
H395 C403 0.930 . S
H396 C406 0.930 . S
H397 C407 0.930 . S
C398 H392 0.930 . S
C398 C399 1.355 1_556 S
C398 C400 1.414 1_556 S
C399 C398 1.355 1_554 S
C399 C401 1.419 . S
C400 C398 1.414 1_554 S
C400 C405 1.429 1_455 S
C400 C407 1.406 1_554 S
C401 H393 0.930 . S
C401 C399 1.419 . S
C401 C402 1.362 1_455 S
C402 H394 0.930 . S
C402 C401 1.362 1_655 S
C402 C405 1.409 . S
C403 H395 0.930 . S
C403 C404 1.355 . S
C403 C405 1.415 . S
C404 C403 1.355 . S
C404 C406 1.419 1_554 S
C405 C400 1.429 1_655 S
C405 C402 1.409 . S
C405 C403 1.415 . S
C406 H396 0.930 . S
C406 C404 1.419 1_556 S
C406 C407 1.362 1_655 S
C407 H397 0.930 . S
C407 C400 1.406 1_556 S
C407 C406 1.362 1_455 S
H408 C414 0.930 . S
H409 C417 0.930 . S
H410 C418 0.930 . S
H411 C419 0.930 . S
H412 C422 0.930 . S
H413 C423 0.930 . S
C414 H408 0.930 . S
C414 C415 1.355 . S
C414 C416 1.415 1_565 S
C415 C414 1.355 . S
C415 C417 1.419 . S
C416 C414 1.415 1_545 S
C416 C421 1.425 1_545 S
C416 C423 1.409 . S
C417 H409 0.930 . S
C417 C415 1.419 . S
C417 C418 1.362 . S
C418 H410 0.930 . S
C418 C417 1.362 . S
C418 C421 1.409 . S
C419 H411 0.930 . S
C419 C420 1.355 . S
C419 C421 1.415 1_545 S
C420 C419 1.355 . S
C420 C422 1.419 . S
C421 C416 1.425 1_565 S
C421 C418 1.409 . S
C421 C419 1.415 1_565 S
C422 H412 0.930 . S
C422 C420 1.419 . S
C422 C423 1.362 . S
C423 H413 0.930 . S
C423 C416 1.409 . S
C423 C422 1.362 . S
H424 C430 0.930 . S
H425 C433 0.930 . S
H426 C434 0.930 . S
H427 C435 0.930 . S
H428 C438 0.930 . S
H429 C439 0.930 . S
C430 H424 0.930 . S
C430 C431 1.355 . S
C430 C432 1.415 . S
C431 C430 1.355 . S
C431 C433 1.419 . S
C432 C430 1.415 . S
C432 C437 1.425 1_565 S
C432 C439 1.409 . S
C433 H425 0.930 . S
C433 C431 1.419 . S
C433 C434 1.362 1_565 S
C434 H426 0.930 . S
C434 C433 1.362 1_545 S
C434 C437 1.409 . S
C435 H427 0.930 . S
C435 C436 1.355 . S
C435 C437 1.415 . S
C436 C435 1.355 . S
C436 C438 1.419 . S
C437 C432 1.425 1_545 S
C437 C434 1.409 . S
C437 C435 1.415 . S
C438 H428 0.930 . S
C438 C436 1.419 . S
C438 C439 1.362 1_545 S
C439 H429 0.930 . S
C439 C432 1.409 . S
C439 C438 1.362 1_565 S
H440 C446 0.930 . S
H441 C449 0.930 . S
H442 C450 0.930 . S
H443 C451 0.930 . S
H444 C454 0.930 . S
H445 C455 0.930 . S
C446 H440 0.930 . S
C446 C447 1.355 . S
C446 C448 1.415 1_655 S
C447 C446 1.355 . S
C447 C449 1.419 . S
C448 C446 1.415 1_455 S
C448 C453 1.425 1_455 S
C448 C455 1.409 . S
C449 H441 0.930 . S
C449 C447 1.419 . S
C449 C450 1.362 . S
C450 H442 0.930 . S
C450 C449 1.362 . S
C450 C453 1.409 . S
C451 H443 0.930 . S
C451 C452 1.355 . S
C451 C453 1.415 1_455 S
C452 C451 1.355 . S
C452 C454 1.419 . S
C453 C448 1.425 1_655 S
C453 C450 1.409 . S
C453 C451 1.415 1_655 S
C454 H444 0.930 . S
C454 C452 1.419 . S
C454 C455 1.362 . S
C455 H445 0.930 . S
C455 C448 1.409 . S
C455 C454 1.362 . S
H456 C462 0.930 . S
H457 C465 0.930 . S
H458 C466 0.930 . S
H459 C467 0.930 . S
H460 C470 0.930 . S
H461 C471 0.930 . S
C462 H456 0.930 . S
C462 C463 1.355 . S
C462 C464 1.415 . S
C463 C462 1.355 . S
C463 C465 1.419 . S
C464 C462 1.415 . S
C464 C469 1.425 . S
C464 C471 1.409 . S
C465 H457 0.930 . S
C465 C463 1.419 . S
C465 C466 1.362 . S
C466 H458 0.930 . S
C466 C465 1.362 . S
C466 C469 1.409 . S
C467 H459 0.930 . S
C467 C468 1.355 . S
C467 C469 1.415 . S
C468 C467 1.355 . S
C468 C470 1.419 . S
C469 C464 1.425 . S
C469 C466 1.409 . S
C469 C467 1.415 . S
C470 H460 0.930 . S
C470 C468 1.419 . S
C470 C471 1.362 . S
C471 H461 0.930 . S
C471 C464 1.409 . S
C471 C470 1.362 . S
H472 C478 0.930 . S
H473 C481 0.930 . S
H474 C482 0.930 . S
H475 C483 0.930 . S
H476 C486 0.930 . S
H477 C487 0.930 . S
C478 H472 0.930 . S
C478 C479 1.355 . S
C478 C480 1.415 . S
C479 C478 1.355 . S
C479 C481 1.419 . S
C480 C478 1.415 . S
C480 C485 1.425 . S
C480 C487 1.409 . S
C481 H473 0.930 . S
C481 C479 1.419 . S
C481 C482 1.362 . S
C482 H474 0.930 . S
C482 C481 1.362 . S
C482 C485 1.409 . S
C483 H475 0.930 . S
C483 C484 1.355 . S
C483 C485 1.415 . S
C484 C483 1.355 . S
C484 C486 1.419 . S
C485 C480 1.425 . S
C485 C482 1.409 . S
C485 C483 1.415 . S
C486 H476 0.930 . S
C486 C484 1.419 . S
C486 C487 1.362 . S
C487 H477 0.930 . S
C487 C480 1.409 . S
C487 C486 1.362 . S
H488 C494 0.930 . S
H489 C497 0.930 . S
H490 C498 0.930 . S
H491 C499 0.930 . S
H492 C502 0.930 . S
H493 C503 0.930 . S
C494 H488 0.930 . S
C494 C495 1.355 . S
C494 C496 1.415 . S
C495 C494 1.355 . S
C495 C497 1.419 . S
C496 C494 1.415 . S
C496 C501 1.425 . S
C496 C503 1.409 . S
C497 H489 0.930 . S
C497 C495 1.419 . S
C497 C498 1.362 . S
C498 H490 0.930 . S
C498 C497 1.362 . S
C498 C501 1.409 . S
C499 H491 0.930 . S
C499 C500 1.355 . S
C499 C501 1.415 . S
C500 C499 1.355 . S
C500 C502 1.419 . S
C501 C496 1.425 . S
C501 C498 1.409 . S
C501 C499 1.415 . S
C502 H492 0.930 . S
C502 C500 1.419 . S
C502 C503 1.362 . S
C503 H493 0.930 . S
C503 C496 1.409 . S
C503 C502 1.362 . S
H504 C510 0.930 . S
H505 C513 0.930 . S
H506 C514 0.930 . S
H507 C515 0.930 . S
H508 C518 0.930 . S
H509 C519 0.930 . S
C510 H504 0.930 . S
C510 C511 1.355 . S
C510 C512 1.415 . S
C511 C510 1.355 . S
C511 C513 1.419 . S
C512 C510 1.415 . S
C512 C517 1.425 . S
C512 C519 1.409 . S
C513 H505 0.930 . S
C513 C511 1.419 . S
C513 C514 1.362 . S
C514 H506 0.930 . S
C514 C513 1.362 . S
C514 C517 1.409 . S
C515 H507 0.930 . S
C515 C516 1.355 . S
C515 C517 1.415 . S
C516 C515 1.355 . S
C516 C518 1.419 . S
C517 C512 1.425 . S
C517 C514 1.409 . S
C517 C515 1.415 . S
C518 H508 0.930 . S
C518 C516 1.419 . S
C518 C519 1.362 . S
C519 H509 0.930 . S
C519 C512 1.409 . S
C519 C518 1.362 . S
H520 C526 0.930 . S
H521 C529 0.930 . S
H522 C530 0.930 . S
H523 C531 0.930 . S
H524 C534 0.930 . S
H525 C535 0.930 . S
C526 H520 0.930 . S
C526 C527 1.355 . S
C526 C528 1.415 . S
C527 C526 1.355 . S
C527 C529 1.419 . S
C528 C526 1.415 . S
C528 C533 1.425 . S
C528 C535 1.409 . S
C529 H521 0.930 . S
C529 C527 1.419 . S
C529 C530 1.362 . S
C530 H522 0.930 . S
C530 C529 1.362 . S
C530 C533 1.409 . S
C531 H523 0.930 . S
C531 C532 1.355 . S
C531 C533 1.415 . S
C532 C531 1.355 . S
C532 C534 1.419 . S
C533 C528 1.425 . S
C533 C530 1.409 . S
C533 C531 1.415 . S
C534 H524 0.930 . S
C534 C532 1.419 . S
C534 C535 1.362 . S
C535 H525 0.930 . S
C535 C528 1.409 . S
C535 C534 1.362 . S
H536 C542 0.930 . S
H537 C545 0.930 . S
H538 C546 0.930 . S
H539 C547 0.930 . S
H540 C550 0.930 . S
H541 C551 0.930 . S
C542 H536 0.930 . S
C542 C543 1.355 . S
C542 C544 1.415 . S
C543 C542 1.355 . S
C543 C545 1.419 . S
C544 C542 1.415 . S
C544 C549 1.425 . S
C544 C551 1.409 . S
C545 H537 0.930 . S
C545 C543 1.419 . S
C545 C546 1.362 . S
C546 H538 0.930 . S
C546 C545 1.362 . S
C546 C549 1.409 . S
C547 H539 0.930 . S
C547 C548 1.355 . S
C547 C549 1.415 . S
C548 C547 1.355 . S
C548 C550 1.419 . S
C549 C544 1.425 . S
C549 C546 1.409 . S
C549 C547 1.415 . S
C550 H540 0.930 . S
C550 C548 1.419 . S
C550 C551 1.362 . S
C551 H541 0.930 . S
C551 C544 1.409 . S
C551 C550 1.362 . S
H552 C558 0.930 . S
H553 C561 0.930 . S
H554 C562 0.930 . S
H555 C563 0.930 . S
H556 C566 0.930 . S
H557 C567 0.930 . S
C558 H552 0.930 . S
C558 C559 1.355 . S
C558 C560 1.415 . S
C559 C558 1.355 . S
C559 C561 1.419 . S
C560 C558 1.415 . S
C560 C565 1.425 . S
C560 C567 1.409 . S
C561 H553 0.930 . S
C561 C559 1.419 . S
C561 C562 1.362 . S
C562 H554 0.930 . S
C562 C561 1.362 . S
C562 C565 1.409 . S
C563 H555 0.930 . S
C563 C564 1.355 . S
C563 C565 1.415 . S
C564 C563 1.355 . S
C564 C566 1.419 . S
C565 C560 1.425 . S
C565 C562 1.409 . S
C565 C563 1.415 . S
C566 H556 0.930 . S
C566 C564 1.419 . S
C566 C567 1.362 . S
C567 H557 0.930 . S
C567 C560 1.409 . S
C567 C566 1.362 . S
H568 C574 0.930 . S
H569 C577 0.930 . S
H570 C578 0.930 . S
H571 C579 0.930 . S
H572 C582 0.930 . S
H573 C583 0.930 . S
C574 H568 0.930 . S
C574 C575 1.355 . S
C574 C576 1.415 . S
C575 C574 1.355 . S
C575 C577 1.419 . S
C576 C574 1.415 . S
C576 C581 1.425 . S
C576 C583 1.409 . S
C577 H569 0.930 . S
C577 C575 1.419 . S
C577 C578 1.362 . S
C578 H570 0.930 . S
C578 C577 1.362 . S
C578 C581 1.409 . S
C579 H571 0.930 . S
C579 C580 1.355 . S
C579 C581 1.415 . S
C580 C579 1.355 . S
C580 C582 1.419 . S
C581 C576 1.425 . S
C581 C578 1.409 . S
C581 C579 1.415 . S
C582 H572 0.930 . S
C582 C580 1.419 . S
C582 C583 1.362 . S
C583 H573 0.930 . S
C583 C576 1.409 . S
C583 C582 1.362 . S
C271 C219 1.527 . S
C276 C18 1.583 . S
C287 C252 1.585 . S
C292 C51 1.615 . S
C303 C153 1.543 . S
C308 C84 1.590 . S
C319 C186 1.581 . S
C324 C117 1.614 . S
C335 C87 1.582 . S
C340 C150 1.615 . S
C351 C120 1.515 . S
C356 C183 1.579 . S
C367 C21 1.586 . S
C372 C216 1.616 . S
C383 C249 1.607 . S
C388 C54 1.573 . S
C399 C7 0.659 . S
C404 C73 0.637 . S
C415 C106 0.568 . S
C420 C40 0.590 . S
C431 C205 0.513 . S
C436 C139 0.525 . S
C447 C172 0.735 . S
C452 C238 0.735 . S
C463 N13 1.727 . S
C468 N244 1.781 . S
C479 N145 1.725 . S
C484 N46 1.780 . S
C495 N178 1.763 . S
C500 N79 1.775 . S
C511 N211 1.785 . S
C516 N112 1.735 . S
C527 N68 1.451 . S
C532 N167 1.466 . S
C543 N101 1.427 . S
C548 N200 1.475 . S
C559 N233 1.395 . S
C564 N2 1.464 . S
C575 N134 1.433 . S
C580 N35 1.388 . S
