# Generated by pormake.
# Topology wjx, (5)-cn, num edge types: 1
# Building blocks:
#     Node 0, Type 0, BuildingBlock: BEQFEK_clean_sbu_0, # of connection points: 5
#     Node 1, Type 0, BuildingBlock: BEQFEK_clean_sbu_0, # of connection points: 5
#     Node 2, Type 0, BuildingBlock: BEQFEK_clean_sbu_0, # of connection points: 5
#     Node 3, Type 0, BuildingBlock: BEQFEK_clean_sbu_0, # of connection points: 5
#     Node 4, Type 0, BuildingBlock: BEQFEK_clean_sbu_0, # of connection points: 5
#     Node 5, Type 0, BuildingBlock: BEQFEK_clean_sbu_0, # of connection points: 5
#     Node 6, Type 0, BuildingBlock: BEQFEK_clean_sbu_0, # of connection points: 5
#     Node 7, Type 0, BuildingBlock: BEQFEK_clean_sbu_0, # of connection points: 5
#     Node 8, Type 0, BuildingBlock: BEQFEK_clean_sbu_0, # of connection points: 5
#     Node 9, Type 0, BuildingBlock: BEQFEK_clean_sbu_0, # of connection points: 5
#     Node 10, Type 0, BuildingBlock: BEQFEK_clean_sbu_0, # of connection points: 5
#     Node 11, Type 0, BuildingBlock: BEQFEK_clean_sbu_0, # of connection points: 5
#     Edge 12, Type (0, 0), BuildingBlock: CIFDUS_clean_linker_0, # of connection points: 2
#     Edge 13, Type (0, 0), BuildingBlock: CIFDUS_clean_linker_0, # of connection points: 2
#     Edge 14, Type (0, 0), BuildingBlock: CIFDUS_clean_linker_0, # of connection points: 2
#     Edge 15, Type (0, 0), BuildingBlock: CIFDUS_clean_linker_0, # of connection points: 2
#     Edge 16, Type (0, 0), BuildingBlock: CIFDUS_clean_linker_0, # of connection points: 2
#     Edge 17, Type (0, 0), BuildingBlock: CIFDUS_clean_linker_0, # of connection points: 2
#     Edge 18, Type (0, 0), BuildingBlock: CIFDUS_clean_linker_0, # of connection points: 2
#     Edge 19, Type (0, 0), BuildingBlock: CIFDUS_clean_linker_0, # of connection points: 2
#     Edge 20, Type (0, 0), BuildingBlock: CIFDUS_clean_linker_0, # of connection points: 2
#     Edge 21, Type (0, 0), BuildingBlock: CIFDUS_clean_linker_0, # of connection points: 2
#     Edge 22, Type (0, 0), BuildingBlock: CIFDUS_clean_linker_0, # of connection points: 2
#     Edge 23, Type (0, 0), BuildingBlock: CIFDUS_clean_linker_0, # of connection points: 2
#     Edge 24, Type (0, 0), BuildingBlock: CIFDUS_clean_linker_0, # of connection points: 2
#     Edge 25, Type (0, 0), BuildingBlock: CIFDUS_clean_linker_0, # of connection points: 2
#     Edge 26, Type (0, 0), BuildingBlock: CIFDUS_clean_linker_0, # of connection points: 2
#     Edge 27, Type (0, 0), BuildingBlock: CIFDUS_clean_linker_0, # of connection points: 2
#     Edge 28, Type (0, 0), BuildingBlock: CIFDUS_clean_linker_0, # of connection points: 2
#     Edge 29, Type (0, 0), BuildingBlock: CIFDUS_clean_linker_0, # of connection points: 2
#     Edge 30, Type (0, 0), BuildingBlock: CIFDUS_clean_linker_0, # of connection points: 2
#     Edge 31, Type (0, 0), BuildingBlock: CIFDUS_clean_linker_0, # of connection points: 2
#     Edge 32, Type (0, 0), BuildingBlock: CIFDUS_clean_linker_0, # of connection points: 2
#     Edge 33, Type (0, 0), BuildingBlock: CIFDUS_clean_linker_0, # of connection points: 2
#     Edge 34, Type (0, 0), BuildingBlock: CIFDUS_clean_linker_0, # of connection points: 2
#     Edge 35, Type (0, 0), BuildingBlock: CIFDUS_clean_linker_0, # of connection points: 2
#     Edge 36, Type (0, 0), BuildingBlock: CIFDUS_clean_linker_0, # of connection points: 2
#     Edge 37, Type (0, 0), BuildingBlock: CIFDUS_clean_linker_0, # of connection points: 2
#     Edge 38, Type (0, 0), BuildingBlock: CIFDUS_clean_linker_0, # of connection points: 2
#     Edge 39, Type (0, 0), BuildingBlock: CIFDUS_clean_linker_0, # of connection points: 2
#     Edge 40, Type (0, 0), BuildingBlock: CIFDUS_clean_linker_0, # of connection points: 2
#     Edge 41, Type (0, 0), BuildingBlock: CIFDUS_clean_linker_0, # of connection points: 2
# Relax obj value: 0.085
# Max RMSD: 0.104
# Mean RMSD: 0.104
data_MOF--net-wjx--node1-BEQFEK_clean_sbu_0--edge1-CIFDUS_clean_linker_0
_symmetry_space_group_name_H-M    P1
_symmetry_Int_Tables_number       1
_symmetry_cell_setting            triclinic
loop_
_symmetry_equiv_pos_as_xyz
'x, y, z'
_cell_length_a     64.726671
_cell_length_b     64.724575
_cell_length_c     17.416124
_cell_angle_alpha  89.903573
_cell_angle_beta   90.003054
_cell_angle_gamma 119.97251
loop_
_atom_site_label
_atom_site_type_symbol
_atom_site_fract_x
_atom_site_fract_y
_atom_site_fract_z
_atom_type_partial_charge
Co0 Co 0.11688 0.45494 0.1782 0.0
Co1 Co 0.10627 0.45683 0.00442 0.0
C2 C 0.06781 0.4242 0.11164 0.0
O3 O 0.08239 0.43188 0.16752 0.0
O4 O 0.07461 0.43175 0.04344 0.0
C5 C 0.11338 0.43509 0.32812 0.0
O6 O 0.09422 0.41659 0.30031 0.0
C7 C 0.09787 0.44302 0.84149 0.0
C8 C 0.11523 0.47862 0.78664 0.0
C9 C 0.10436 0.45447 0.77082 0.0
N10 N 0.1051 0.45978 0.89642 0.0
N11 N 0.11499 0.48096 0.86315 0.0
C12 C 0.08731 0.41695 0.85747 0.0
H13 H 0.09089 0.41402 0.91769 0.0
H14 H 0.0946 0.40891 0.81716 0.0
H15 H 0.06772 0.40797 0.84904 0.0
C16 C 0.15407 0.44598 0.11263 0.0
N17 N 0.13534 0.44951 0.105 0.0
N18 N 0.13126 0.45069 0.03153 0.0
C19 C 0.14755 0.44828 0.99007 0.0
C20 C 0.16234 0.44494 0.03997 0.0
C21 C 0.16378 0.44381 0.18826 0.0
H22 H 0.17189 0.46124 0.21826 0.0
H23 H 0.14899 0.43057 0.22459 0.0
H24 H 0.17735 0.43826 0.18121 0.0
O25 O 0.12168 0.48763 0.16795 0.0
O26 O 0.11312 0.48809 0.04509 0.0
H27 H 0.14859 0.46706 0.88722 0.0
H28 H 0.1688 0.45563 0.88676 0.0
C29 C 0.15084 0.45188 0.90502 0.0
H30 H 0.13736 0.43553 0.87541 0.0
H31 H 0.12263 0.4971 0.89284 0.0
O32 O 0.12624 0.45262 0.28431 0.0
C33 C 0.11913 0.49822 0.11021 0.0
Co34 Co 0.66503 0.11937 0.58404 0.0
Co35 Co 0.65238 0.11229 0.4072 0.0
C36 C 0.64764 0.07206 0.504 0.0
O37 O 0.65438 0.08571 0.56224 0.0
O38 O 0.64656 0.07985 0.43754 0.0
C39 C 0.68061 0.11169 0.73144 0.0
O40 O 0.68171 0.09443 0.69557 0.0
C41 C 0.6586 0.11085 0.23722 0.0
C42 C 0.63574 0.12518 0.19818 0.0
C43 C 0.65161 0.11832 0.17194 0.0
N44 N 0.64774 0.11385 0.29883 0.0
N45 N 0.63376 0.12194 0.27451 0.0
C46 C 0.67674 0.10303 0.24245 0.0
H47 H 0.68324 0.10464 0.30235 0.0
H48 H 0.6919 0.11374 0.20309 0.0
H49 H 0.66835 0.08406 0.22494 0.0
C50 C 0.70997 0.1595 0.52289 0.0
N51 N 0.68845 0.13994 0.51244 0.0
N52 N 0.68314 0.13752 0.43868 0.0
C53 C 0.70105 0.1559 0.40025 0.0
C54 C 0.71874 0.17019 0.45206 0.0
C55 C 0.7213 0.16813 0.59977 0.0
H56 H 0.71149 0.17543 0.63144 0.0
H57 H 0.71993 0.15295 0.63349 0.0
H58 H 0.74032 0.18215 0.59431 0.0
O59 O 0.63675 0.1235 0.57925 0.0
O60 O 0.62738 0.11713 0.45582 0.0
H61 H 0.6815 0.15791 0.3036 0.0
H62 H 0.71216 0.18116 0.30604 0.0
C63 C 0.69981 0.16198 0.31797 0.0
H64 H 0.70492 0.15146 0.28055 0.0
H65 H 0.62364 0.12633 0.31045 0.0
O66 O 0.67577 0.12553 0.69322 0.0
C67 C 0.62327 0.12166 0.52336 0.0
Co68 Co 0.54654 0.66494 0.87409 0.0
Co69 Co 0.54591 0.65306 0.69746 0.0
C70 C 0.57819 0.64745 0.80681 0.0
O71 O 0.56935 0.65373 0.8608 0.0
O72 O 0.5717 0.64701 0.73725 0.0
C73 C 0.56978 0.68315 0.01891 0.0
O74 O 0.58881 0.68693 0.98037 0.0
C75 C 0.55481 0.66001 0.52667 0.0
C76 C 0.51917 0.63243 0.48674 0.0
C77 C 0.5407 0.65102 0.46107 0.0
N78 N 0.54166 0.64773 0.58819 0.0
N79 N 0.52068 0.63088 0.56306 0.0
C80 C 0.57956 0.68085 0.53172 0.0
H81 H 0.58374 0.68759 0.59154 0.0
H82 H 0.58178 0.69525 0.49199 0.0
H83 H 0.59236 0.67506 0.51411 0.0
C84 C 0.55329 0.71024 0.80905 0.0
N85 N 0.55176 0.68884 0.80037 0.0
N86 N 0.5502 0.68362 0.7266 0.0
C87 C 0.54954 0.70119 0.68653 0.0
C88 C 0.55206 0.71886 0.7371 0.0
C89 C 0.55487 0.72154 0.88528 0.0
H90 H 0.56778 0.7197 0.92238 0.0
H91 H 0.56054 0.74072 0.8791 0.0
H92 H 0.53717 0.71211 0.91374 0.0
O93 O 0.51382 0.63695 0.86323 0.0
O94 O 0.51506 0.62847 0.7406 0.0
H95 H 0.53185 0.70886 0.59491 0.0
H96 H 0.55752 0.70718 0.56666 0.0
C97 C 0.54168 0.69912 0.60461 0.0
H98 H 0.52976 0.68023 0.58903 0.0
H99 H 0.50683 0.61893 0.59835 0.0
O100 O 0.55015 0.67574 0.98309 0.0
C101 C 0.50411 0.624 0.80442 0.0
Co102 Co 0.88655 0.54449 0.15997 0.0
Co103 Co 0.89665 0.5405 0.98689 0.0
C104 C 0.93533 0.57462 0.09131 0.0
O105 O 0.9209 0.56771 0.14771 0.0
O106 O 0.92837 0.56602 0.02428 0.0
C107 C 0.89049 0.564 0.31079 0.0
O108 O 0.91025 0.58205 0.28395 0.0
C109 C 0.90515 0.55389 0.82383 0.0
C110 C 0.88803 0.51828 0.76951 0.0
C111 C 0.89885 0.54243 0.75328 0.0
N112 N 0.89791 0.53715 0.87905 0.0
N113 N 0.88815 0.51596 0.84614 0.0
C114 C 0.91547 0.57993 0.83939 0.0
H115 H 0.91157 0.58281 0.89925 0.0
H116 H 0.90828 0.5879 0.79834 0.0
H117 H 0.9351 0.58904 0.83185 0.0
C118 C 0.84956 0.55331 0.09138 0.0
N119 N 0.86794 0.54917 0.08526 0.0
N120 N 0.87169 0.5469 0.01225 0.0
C121 C 0.85544 0.54908 0.96968 0.0
C122 C 0.8411 0.55352 0.01822 0.0
C123 C 0.8405 0.55705 0.16606 0.0
H124 H 0.83095 0.53979 0.19718 0.0
H125 H 0.85576 0.5696 0.20215 0.0
H126 H 0.82826 0.5642 0.15732 0.0
O127 O 0.88205 0.51185 0.15325 0.0
O128 O 0.8899 0.50954 0.03084 0.0
H129 H 0.85419 0.52906 0.86996 0.0
H130 H 0.83362 0.54003 0.86731 0.0
C131 C 0.85177 0.5443 0.88524 0.0
H132 H 0.86491 0.56034 0.85323 0.0
H133 H 0.88052 0.49985 0.87615 0.0
O134 O 0.8771 0.54708 0.26589 0.0
C135 C 0.88427 0.50039 0.0976 0.0
Co136 Co 0.34306 0.88685 0.46075 0.0
Co137 Co 0.35431 0.89516 0.28643 0.0
C138 C 0.36092 0.93504 0.38788 0.0
O139 O 0.35423 0.92111 0.44563 0.0
O140 O 0.36149 0.92745 0.32085 0.0
C141 C 0.32725 0.89139 0.61043 0.0
O142 O 0.32853 0.91087 0.5826 0.0
C143 C 0.34832 0.9029 0.12413 0.0
C144 C 0.36474 0.88385 0.0688 0.0
C145 C 0.35248 0.89584 0.05346 0.0
N146 N 0.3574 0.89505 0.17868 0.0
N147 N 0.36755 0.88405 0.14522 0.0
C148 C 0.33398 0.91471 0.14062 0.0
H149 H 0.32726 0.91105 0.20059 0.0
H150 H 0.31883 0.90846 0.0999 0.0
H151 H 0.34552 0.93427 0.13345 0.0
C152 C 0.2963 0.84941 0.40143 0.0
N153 N 0.3186 0.86771 0.39073 0.0
N154 N 0.32323 0.87084 0.31673 0.0
C155 C 0.30399 0.85431 0.27786 0.0
C156 C 0.28625 0.84032 0.33022 0.0
C157 C 0.28498 0.841 0.47862 0.0
H158 H 0.29436 0.83318 0.51011 0.0
H159 H 0.287 0.85644 0.51223 0.0
H160 H 0.26576 0.82757 0.47398 0.0
O161 O 0.3707 0.88162 0.45115 0.0
O162 O 0.3788 0.88834 0.32713 0.0
H163 H 0.28839 0.83252 0.17662 0.0
H164 H 0.30131 0.86416 0.16273 0.0
C165 C 0.30339 0.85026 0.19307 0.0
H166 H 0.32027 0.85139 0.17437 0.0
H167 H 0.37552 0.87583 0.17476 0.0
O168 O 0.33178 0.87837 0.56717 0.0
C169 C 0.38332 0.88313 0.39308 0.0
Co170 Co 0.4581 0.33922 0.87685 0.0
Co171 Co 0.45673 0.34793 0.70034 0.0
C172 C 0.42457 0.3542 0.80512 0.0
O173 O 0.43417 0.34901 0.85992 0.0
O174 O 0.43071 0.35408 0.73542 0.0
C175 C 0.4361 0.31978 0.02383 0.0
O176 O 0.41569 0.31011 0.98694 0.0
C177 C 0.44933 0.34658 0.5286 0.0
C178 C 0.4871 0.36208 0.49416 0.0
C179 C 0.46438 0.35319 0.46496 0.0
N180 N 0.46281 0.35142 0.59234 0.0
N181 N 0.48529 0.36063 0.57077 0.0
C182 C 0.42294 0.33662 0.52916 0.0
H183 H 0.41706 0.33988 0.58545 0.0
H184 H 0.41391 0.31709 0.51961 0.0
H185 H 0.41764 0.34464 0.4822 0.0
C186 C 0.45197 0.2932 0.81988 0.0
N187 N 0.45315 0.31436 0.80884 0.0
N188 N 0.45213 0.31782 0.73473 0.0
C189 C 0.4503 0.29891 0.69618 0.0
C190 C 0.45012 0.28263 0.74882 0.0
C191 C 0.45313 0.28372 0.89718 0.0
H192 H 0.43973 0.28418 0.93561 0.0
H193 H 0.44968 0.26514 0.89388 0.0
H194 H 0.47099 0.29539 0.92259 0.0
O195 O 0.4903 0.36739 0.8633 0.0
O196 O 0.48726 0.37394 0.74043 0.0
H197 H 0.45033 0.28112 0.59012 0.0
H198 H 0.4371 0.2999 0.58455 0.0
C199 C 0.45165 0.29792 0.61052 0.0
H200 H 0.46891 0.31293 0.59052 0.0
H201 H 0.49952 0.3657 0.60852 0.0
O202 O 0.45557 0.33069 0.98657 0.0
C203 C 0.49897 0.37974 0.80275 0.0
Co204 Co 0.5437 0.88191 0.44009 0.0
Co205 Co 0.54199 0.89036 0.6164 0.0
C206 C 0.57515 0.93005 0.51713 0.0
O207 O 0.56701 0.91594 0.45999 0.0
O208 O 0.56779 0.92279 0.58536 0.0
C209 C 0.56595 0.8858 0.29159 0.0
O210 O 0.58655 0.89847 0.32632 0.0
C211 C 0.54742 0.89591 0.78858 0.0
C212 C 0.51067 0.86834 0.81974 0.0
C213 C 0.53242 0.8847 0.85096 0.0
N214 N 0.53493 0.88625 0.72367 0.0
N215 N 0.51302 0.8699 0.74319 0.0
C216 C 0.57275 0.91577 0.79033 0.0
H217 H 0.57743 0.92601 0.73581 0.0
H218 H 0.5847 0.90821 0.79732 0.0
H219 H 0.57567 0.92779 0.83959 0.0
C220 C 0.5509 0.84256 0.49929 0.0
N221 N 0.5481 0.8617 0.5088 0.0
N222 N 0.54845 0.86614 0.58263 0.0
C223 C 0.55206 0.85035 0.62236 0.0
C224 C 0.55339 0.8346 0.57122 0.0
C225 C 0.54979 0.83144 0.42308 0.0
H226 H 0.53759 0.8338 0.38402 0.0
H227 H 0.56786 0.84047 0.397 0.0
H228 H 0.54369 0.81216 0.42935 0.0
O229 O 0.51133 0.87732 0.44946 0.0
O230 O 0.51147 0.88542 0.5727 0.0
H231 H 0.53822 0.84369 0.73681 0.0
H232 H 0.56467 0.84129 0.72528 0.0
C233 C 0.55573 0.85133 0.70743 0.0
H234 H 0.56695 0.87011 0.72551 0.0
H235 H 0.49966 0.85952 0.70392 0.0
O236 O 0.54681 0.87608 0.33076 0.0
C237 C 0.50117 0.88006 0.50775 0.0
Co238 Co 0.6621 0.54114 0.79855 0.0
Co239 Co 0.65313 0.54399 0.97443 0.0
C240 C 0.64723 0.57547 0.86647 0.0
O241 O 0.65233 0.56531 0.8132 0.0
O242 O 0.64743 0.57001 0.93697 0.0
C243 C 0.68246 0.56261 0.65147 0.0
O244 O 0.69294 0.58303 0.68831 0.0
C245 C 0.65369 0.55105 0.14692 0.0
C246 C 0.64047 0.5135 0.18023 0.0
C247 C 0.64801 0.53591 0.21011 0.0
N248 N 0.64968 0.53794 0.08269 0.0
N249 N 0.64179 0.51558 0.10365 0.0
C250 C 0.66213 0.57717 0.14744 0.0
H251 H 0.6589 0.58295 0.09087 0.0
H252 H 0.68156 0.58719 0.15926 0.0
H253 H 0.65301 0.58139 0.19362 0.0
C254 C 0.70748 0.54623 0.86003 0.0
N255 N 0.68666 0.54603 0.86811 0.0
N256 N 0.6831 0.5482 0.94139 0.0
C257 C 0.70171 0.55018 0.98202 0.0
C258 C 0.71765 0.5487 0.93225 0.0
C259 C 0.71625 0.54199 0.78556 0.0
H260 H 0.70094 0.52984 0.7489 0.0
H261 H 0.72653 0.55925 0.75489 0.0
H262 H 0.72805 0.53435 0.79506 0.0
O263 O 0.63379 0.50924 0.8132 0.0
O264 O 0.62691 0.51337 0.9349 0.0
H265 H 0.69244 0.53628 0.09607 0.0
H266 H 0.72292 0.56008 0.08581 0.0
C267 C 0.70427 0.55352 0.06716 0.0
H268 H 0.69893 0.56661 0.08482 0.0
H269 H 0.63759 0.50165 0.06542 0.0
O270 O 0.67079 0.54325 0.68892 0.0
C271 C 0.62119 0.50119 0.87354 0.0
Co272 Co 0.11702 0.65822 0.15485 0.0
Co273 Co 0.11027 0.64898 0.3317 0.0
C274 C 0.06979 0.64245 0.23598 0.0
O275 O 0.08335 0.64817 0.17739 0.0
O276 O 0.07765 0.6424 0.30322 0.0
C277 C 0.11369 0.67724 0.00624 0.0
O278 O 0.10225 0.68655 0.04095 0.0
C279 C 0.1054 0.65005 0.50324 0.0
C280 C 0.13121 0.63861 0.53557 0.0
C281 C 0.11579 0.64542 0.56604 0.0
N282 N 0.11456 0.64628 0.43879 0.0
N283 N 0.12989 0.63941 0.45895 0.0
C284 C 0.08672 0.65721 0.50412 0.0
H285 H 0.07453 0.64898 0.55378 0.0
H286 H 0.0764 0.65193 0.44985 0.0
H287 H 0.09547 0.67688 0.50966 0.0
C288 C 0.15796 0.7041 0.20851 0.0
N289 N 0.13808 0.68293 0.22099 0.0
N290 N 0.13463 0.67929 0.29541 0.0
C291 C 0.15201 0.69824 0.33268 0.0
C292 C 0.16755 0.71449 0.27909 0.0
C293 C 0.16859 0.71292 0.13076 0.0
H294 H 0.16604 0.69775 0.09454 0.0
H295 H 0.15922 0.72134 0.10276 0.0
H296 H 0.18788 0.72624 0.13452 0.0
O297 O 0.12138 0.6303 0.16435 0.0
O298 O 0.11478 0.62312 0.28862 0.0
H299 H 0.16014 0.68931 0.44251 0.0
H300 H 0.16591 0.71958 0.43549 0.0
C301 C 0.15362 0.70086 0.41817 0.0
H302 H 0.13572 0.69517 0.44212 0.0
H303 H 0.13968 0.63544 0.42011 0.0
O304 O 0.1223 0.66672 0.04532 0.0
C305 C 0.11939 0.61778 0.22311 0.0
Co306 Co 0.45599 0.1187 0.46352 0.0
Co307 Co 0.45906 0.10882 0.63416 0.0
C308 C 0.42588 0.06974 0.53066 0.0
O309 O 0.43268 0.08418 0.4742 0.0
O310 O 0.43429 0.07681 0.59774 0.0
C311 C 0.43856 0.11553 0.31198 0.0
O312 O 0.41858 0.09731 0.33679 0.0
C313 C 0.448 0.09827 0.79847 0.0
C314 C 0.48266 0.12549 0.84644 0.0
C315 C 0.4596 0.10851 0.86697 0.0
N316 N 0.4634 0.10945 0.74073 0.0
N317 N 0.48418 0.12528 0.76986 0.0
C318 C 0.423 0.07831 0.78708 0.0
H319 H 0.41095 0.08574 0.77949 0.0
H320 H 0.41695 0.06602 0.83709 0.0
H321 H 0.42184 0.06807 0.73493 0.0
C322 C 0.44695 0.15596 0.52707 0.0
N323 N 0.45086 0.13748 0.53475 0.0
N324 N 0.45179 0.13315 0.60798 0.0
C325 C 0.44827 0.1487 0.6496 0.0
C326 C 0.44523 0.16377 0.59979 0.0
C327 C 0.44658 0.16677 0.45146 0.0
H328 H 0.46214 0.16963 0.41659 0.0
H329 H 0.43021 0.15415 0.41976 0.0
H330 H 0.44702 0.18402 0.45855 0.0
O331 O 0.48853 0.12356 0.47073 0.0
O332 O 0.49045 0.11583 0.59307 0.0
H333 H 0.46497 0.15488 0.75959 0.0
H334 H 0.44028 0.16042 0.75653 0.0
C335 C 0.44698 0.14869 0.7354 0.0
H336 H 0.43479 0.13036 0.75603 0.0
H337 H 0.49908 0.13672 0.73714 0.0
O338 O 0.4548 0.12833 0.35933 0.0
C339 C 0.49987 0.12149 0.52685 0.0
Co340 Co 0.34197 0.46236 0.81185 0.0
Co341 Co 0.35257 0.45844 0.98488 0.0
C342 C 0.35793 0.42808 0.87008 0.0
O343 O 0.35251 0.43856 0.8188 0.0
O344 O 0.35791 0.43292 0.9411 0.0
C345 C 0.32417 0.44257 0.66383 0.0
O346 O 0.32244 0.42322 0.69454 0.0
C347 C 0.34803 0.44486 0.15032 0.0
C348 C 0.36423 0.48093 0.20103 0.0
C349 C 0.35228 0.45694 0.21975 0.0
N350 N 0.35649 0.46115 0.09341 0.0
N351 N 0.36663 0.48262 0.12449 0.0
C352 C 0.33412 0.41851 0.13735 0.0
H353 H 0.32825 0.41454 0.07661 0.0
H354 H 0.31844 0.41008 0.17626 0.0
H355 H 0.34565 0.41078 0.15034 0.0
C356 C 0.29704 0.45609 0.87812 0.0
N357 N 0.31801 0.45653 0.88473 0.0
N358 N 0.32223 0.45472 0.95766 0.0
C359 C 0.30398 0.45312 -0.00017 0.0
C360 C 0.28748 0.454 0.951 0.0
C361 C 0.28778 0.46003 0.80411 0.0
H362 H 0.30232 0.47556 0.77362 0.0
H363 H 0.28195 0.44416 0.76695 0.0
H364 H 0.27258 0.46311 0.8134 0.0
O365 O 0.37018 0.49437 0.82755 0.0
O366 O 0.37833 0.48983 0.94778 0.0
H367 H 0.31743 0.46732 0.11133 0.0
H368 H 0.28535 0.44888 0.10764 0.0
C369 C 0.30241 0.45114 0.0855 0.0
H370 H 0.3036 0.43539 0.10346 0.0
H371 H 0.37408 0.49848 0.09317 0.0
O372 O 0.33079 0.46099 0.70528 0.0
C373 C 0.38327 0.50233 0.88698 0.0
Co374 Co 0.8863 0.34139 0.1746 0.0
Co375 Co 0.8925 0.35247 0.3518 0.0
C376 C 0.93349 0.35892 0.25932 0.0
O377 O 0.91999 0.3525 0.20059 0.0
O378 O 0.92544 0.35934 0.32589 0.0
C379 C 0.89646 0.32793 0.02761 0.0
O380 O 0.9143 0.32812 0.06412 0.0
C381 C 0.89529 0.34905 0.52285 0.0
C382 C 0.87057 0.36174 0.55602 0.0
C383 C 0.88382 0.35218 0.586 0.0
N384 N 0.88837 0.3558 0.45908 0.0
N385 N 0.87403 0.36382 0.47986 0.0
C386 C 0.91082 0.33801 0.52143 0.0
H387 H 0.91252 0.33284 0.46203 0.0
H388 H 0.9034 0.32214 0.55958 0.0
H389 H 0.92886 0.35117 0.54244 0.0
C390 C 0.8463 0.29542 0.23164 0.0
N391 N 0.86536 0.31724 0.24312 0.0
N392 N 0.86845 0.3215 0.31737 0.0
C393 C 0.85161 0.30225 0.3555 0.0
C394 C 0.83684 0.28515 0.30262 0.0
C395 C 0.83656 0.28547 0.15398 0.0
H396 H 0.84689 0.27757 0.12954 0.0
H397 H 0.81747 0.2715 0.15718 0.0
H398 H 0.83861 0.29995 0.11504 0.0
O399 O 0.88143 0.36905 0.17948 0.0
O400 O 0.88758 0.37765 0.30333 0.0
H401 H 0.83787 0.28131 0.46009 0.0
H402 H 0.86834 0.3043 0.46264 0.0
C403 C 0.85054 0.29974 0.44106 0.0
H404 H 0.84532 0.31217 0.46651 0.0
H405 H 0.86572 0.36975 0.4415 0.0
O406 O 0.88151 0.33127 0.06519 0.0
C407 C 0.8831 0.38215 0.23617 0.0
H408 H 0.04594 0.41166 0.25144 0.0
H409 H 0.03185 0.40015 0.00816 0.0
H410 H 0.98912 0.37697 0.03398 0.0
H411 H 0.95594 0.3631 0.12377 0.0
H412 H 0.96943 0.37585 0.36682 0.0
H413 H 0.01239 0.39531 0.34267 0.0
C414 C 0.03357 0.40383 0.20399 0.0
C415 C 0.04215 0.40782 0.12779 0.0
C416 C 0.00896 0.3909 0.21913 0.0
C417 C 0.0258 0.39753 0.06723 0.0
C418 C 1.00134 0.38429 0.08195 0.0
C419 C 0.96815 0.3698 0.17191 0.0
C420 C 0.95935 0.36808 0.24711 0.0
C421 C 0.99273 0.38133 0.15747 0.0
C422 C 0.97563 0.37696 0.30838 0.0
C423 C 1.00022 0.38816 0.29455 0.0
H424 H 0.63145 0.03623 0.39737 0.0
H425 H 0.64316 0.04961 0.64086 0.0
H426 H 0.62333 0.00703 0.66625 0.0
H427 H 0.5994 0.96578 0.62106 0.0
H428 H 0.58815 0.95222 0.3776 0.0
H429 H 0.61111 0.9948 0.35114 0.0
C430 C 0.62995 0.02986 0.45588 0.0
C431 C 0.63859 0.04624 0.5169 0.0
C432 C 0.61838 0.00518 0.47053 0.0
C433 C 0.63661 0.03755 0.59242 0.0
C434 C 0.62516 0.0131 0.60729 0.0
C435 C 0.60219 0.97211 0.56218 0.0
C436 C 0.59175 0.95574 0.50174 0.0
C437 C 0.61546 0.99673 0.54701 0.0
C438 C 0.59581 0.96433 0.42562 0.0
C439 C 0.60893 0.98876 0.41022 0.0
H440 H 0.63337 0.60058 0.95901 0.0
H441 H 0.64176 0.58766 0.72089 0.0
H442 H 0.62279 0.61017 0.68069 0.0
H443 H 0.60042 0.63054 0.7127 0.0
H444 H 0.59273 0.64402 0.95088 0.0
H445 H 0.61486 0.62465 0.99045 0.0
C446 C 0.63134 0.60294 0.89834 0.0
C447 C 0.63873 0.59208 0.84348 0.0
C448 C 0.62031 0.61595 0.87511 0.0
C449 C 0.6361 0.59558 0.76489 0.0
C450 C 0.62516 0.60845 0.74152 0.0
C451 C 0.60385 0.62952 0.77315 0.0
C452 C 0.59456 0.6385 0.82837 0.0
C453 C 0.61666 0.61824 0.7961 0.0
C454 C 0.59942 0.63715 0.90663 0.0
C455 C 0.61208 0.62599 0.92968 0.0
H456 H 0.04729 0.63673 0.09942 0.0
H457 H 0.03404 0.62731 0.3436 0.0
H458 H 0.99109 0.60744 0.31999 0.0
H459 H 0.95747 0.58951 0.22975 0.0
H460 H 0.97105 0.59726 0.98556 0.0
H461 H 0.01383 0.62117 0.00982 0.0
C462 C 0.03509 0.63062 0.1478 0.0
C463 C 0.04397 0.63337 0.22329 0.0
C464 C 0.01047 0.61873 0.13376 0.0
C465 C 0.02777 0.62537 0.28495 0.0
C466 C 0.00319 0.61392 0.27145 0.0
C467 C 0.96972 0.59667 0.18168 0.0
C468 C 0.961 0.5914 0.10581 0.0
C469 C 0.99435 0.61 0.19602 0.0
C470 C 0.97722 0.60086 0.04445 0.0
C471 C 0.00171 0.61452 0.05829 0.0
H472 H 0.41159 0.04732 0.3925 0.0
H473 H 0.40394 0.03401 0.63685 0.0
H474 H 0.38129 0.99116 0.61343 0.0
H475 H 0.3667 0.95758 0.52447 0.0
H476 H 0.37578 0.97065 0.28015 0.0
H477 H 0.39468 0.01354 0.30296 0.0
C478 C 0.40471 0.0351 0.44075 0.0
C479 C 0.40965 0.04395 0.51642 0.0
C480 C 0.3921 0.01042 0.42693 0.0
C481 C 0.40057 0.02776 0.57806 0.0
C482 C 0.38764 0.00322 0.56473 0.0
C483 C 0.37254 0.96972 0.47595 0.0
C484 C 0.36996 0.96083 0.40065 0.0
C485 C 0.38377 0.99436 0.48949 0.0
C486 C 0.37764 0.97695 0.33872 0.0
C487 C 0.3885 0.0015 0.35172 0.0
H488 H 0.36843 0.39955 0.95854 0.0
H489 H 0.36656 0.4197 0.72323 0.0
H490 H 0.38493 0.39683 0.68082 0.0
H491 H 0.40512 0.37415 0.71144 0.0
H492 H 0.40644 0.35365 0.94678 0.0
H493 H 0.38459 0.37324 0.98725 0.0
C494 C 0.37179 0.39873 0.89792 0.0
C495 C 0.36636 0.41165 0.84462 0.0
C496 C 0.38245 0.38551 0.87349 0.0
C497 C 0.37064 0.41011 0.76601 0.0
C498 C 0.38123 0.39704 0.74143 0.0
C499 C 0.40028 0.37362 0.77133 0.0
C500 C 0.40782 0.36273 0.82581 0.0
C501 C 0.38774 0.38511 0.79482 0.0
C502 C 0.40121 0.36213 0.9033 0.0
C503 C 0.3887 0.3734 0.92684 0.0
H504 H 0.13912 0.47234 0.6652 0.0
H505 H 0.0677 0.41442 0.70505 0.0
H506 H 0.06547 0.40104 0.57219 0.0
H507 H 0.08232 0.40882 0.44152 0.0
H508 H 0.15337 0.4679 0.40243 0.0
H509 H 0.15741 0.47764 0.53875 0.0
C510 C 0.12314 0.45665 0.64487 0.0
C511 C 0.10354 0.44444 0.69426 0.0
C512 C 0.12193 0.44935 0.56868 0.0
C513 C 0.08306 0.42397 0.66801 0.0
C514 C 0.08175 0.41644 0.59201 0.0
C515 C 0.09887 0.42352 0.46308 0.0
C516 C 0.11741 0.43783 0.4118 0.0
C517 C 0.10088 0.42937 0.54135 0.0
C518 C 0.13875 0.45678 0.44062 0.0
C519 C 0.14105 0.46242 0.51848 0.0
H520 H 0.67703 0.14371 0.82306 0.0
H521 H 0.68334 0.08045 0.83161 0.0
H522 H 0.6766 0.07761 0.9702 0.0
H523 H 0.66475 0.09082 0.08694 0.0
H524 H 0.65814 0.1539 0.07591 0.0
H525 H 0.66889 0.15885 0.94064 0.0
C526 C 0.67728 0.12947 0.85527 0.0
C527 C 0.68046 0.11221 0.81664 0.0
C528 C 0.673 0.1277 0.9347 0.0
C529 C 0.68086 0.09398 0.85964 0.0
C530 C 0.67688 0.09225 0.93901 0.0
C531 C 0.66623 0.10595 0.0555 0.0
C532 C 0.66061 0.12193 0.09182 0.0
C533 C 0.67233 0.10868 0.97694 0.0
C534 C 0.66212 0.14115 0.04936 0.0
C535 C 0.66834 0.14408 0.9719 0.0
H536 H 0.58142 0.66968 0.37234 0.0
H537 H 0.50814 0.65347 0.37098 0.0
H538 H 0.51137 0.66441 0.23616 0.0
H539 H 0.53358 0.67504 0.11577 0.0
H540 H 0.60668 0.69076 0.1139 0.0
H541 H 0.60511 0.6842 0.2525 0.0
C542 C 0.56637 0.66907 0.34294 0.0
C543 C 0.54455 0.66062 0.38174 0.0
C544 C 0.56824 0.67521 0.26446 0.0
C545 C 0.52508 0.6596 0.3423 0.0
C546 C 0.52689 0.66592 0.26511 0.0
C547 C 0.5493 0.67739 0.14571 0.0
C548 C 0.5701 0.68314 0.10414 0.0
C549 C 0.54817 0.67319 0.22512 0.0
C550 C 0.59035 0.68625 0.14425 0.0
C551 C 0.58945 0.68238 0.22362 0.0
H552 H 0.86438 0.52473 0.6466 0.0
H553 H 0.9357 0.58252 0.68814 0.0
H554 H 0.93817 0.59646 0.55578 0.0
H555 H 0.92146 0.58947 0.42517 0.0
H556 H 0.85039 0.53073 0.38429 0.0
H557 H 0.84625 0.52012 0.52002 0.0
C558 C 0.88039 0.54049 0.62671 0.0
C559 C 0.89988 0.55254 0.67652 0.0
C560 C 0.88171 0.54818 0.5508 0.0
C561 C 0.92041 0.5731 0.65081 0.0
C562 C 0.92186 0.58097 0.57509 0.0
C563 C 0.90489 0.57464 0.44618 0.0
C564 C 0.88638 0.56071 0.39447 0.0
C565 C 0.9028 0.56831 0.52412 0.0
C566 C 0.865 0.54159 0.42272 0.0
C567 C 0.86264 0.53544 0.50027 0.0
H568 H 0.33384 0.86162 0.94668 0.0
H569 H 0.35223 0.93442 0.98944 0.0
H570 H 0.34237 0.93839 0.85643 0.0
H571 H 0.33329 0.92247 0.72477 0.0
H572 H 0.31654 0.84999 0.68274 0.0
H573 H 0.32063 0.84443 0.81921 0.0
C574 C 0.33545 0.87828 0.92693 0.0
C575 C 0.34385 0.89775 0.9771 0.0
C576 C 0.33011 0.88047 0.85064 0.0
C577 C 0.34559 0.91915 0.9517 0.0
C578 C 0.34011 0.92145 0.87563 0.0
C579 C 0.33003 0.90531 0.74574 0.0
C580 C 0.32498 0.88678 0.69373 0.0
C581 C 0.33298 0.90241 0.82409 0.0
C582 C 0.32076 0.86462 0.72164 0.0
C583 C 0.32316 0.86144 0.79955 0.0
H584 H 0.46889 0.35646 0.10619 0.0
H585 H 0.40405 0.28885 0.12967 0.0
H586 H 0.40566 0.29384 0.26988 0.0
H587 H 0.42712 0.31692 0.38594 0.0
H588 H 0.49101 0.38528 0.35729 0.0
H589 H 0.48798 0.38063 0.21858 0.0
C590 C 0.45516 0.34271 0.14198 0.0
C591 C 0.43668 0.32209 0.10814 0.0
C592 C 0.45592 0.34598 0.22146 0.0
C593 C 0.41862 0.30476 0.15486 0.0
C594 C 0.41951 0.30766 0.23481 0.0
C595 C 0.43994 0.33105 0.34924 0.0
C596 C 0.45924 0.35145 0.38186 0.0
C597 C 0.4382 0.32819 0.26887 0.0
C598 C 0.47605 0.36937 0.33351 0.0
C599 C 0.47441 0.36671 0.2542 0.0
H600 H 0.57279 0.89285 0.92902 0.0
H601 H 0.50179 0.88176 0.96052 0.0
H602 H 0.50575 0.88033 0.09899 0.0
H603 H 0.52839 0.88068 0.21036 0.0
H604 H 0.60008 0.89345 0.18371 0.0
H605 H 0.59689 0.89584 0.04376 0.0
C606 C 0.55848 0.89079 0.96625 0.0
C607 C 0.53708 0.88761 0.93446 0.0
C608 C 0.56083 0.88987 0.04643 0.0
C609 C 0.51843 0.88423 0.98358 0.0
C610 C 0.52062 0.88333 0.06276 0.0
C611 C 0.54331 0.88381 0.17405 0.0
C612 C 0.56429 0.88648 0.2071 0.0
C613 C 0.54154 0.88571 0.09462 0.0
C614 C 0.58364 0.89111 0.15936 0.0
C615 C 0.58185 0.89256 0.07951 0.0
H616 H 0.64573 0.52978 0.56863 0.0
H617 H 0.71304 0.595 0.54563 0.0
H618 H 0.70759 0.594 0.40575 0.0
H619 H 0.68414 0.5731 0.28949 0.0
H620 H 0.61626 0.50864 0.31756 0.0
H621 H 0.62131 0.51105 0.45628 0.0
C622 C 0.65933 0.54372 0.53306 0.0
C623 C 0.67999 0.56216 0.56705 0.0
C624 C 0.65579 0.54331 0.4537 0.0
C625 C 0.69711 0.58045 0.52045 0.0
C626 C 0.69394 0.57993 0.44065 0.0
C627 C 0.6702 0.56002 0.32618 0.0
C628 C 0.64979 0.54077 0.29339 0.0
C629 C 0.67335 0.56135 0.4065 0.0
C630 C 0.63212 0.52361 0.34156 0.0
C631 C 0.63504 0.52488 0.42084 0.0
H632 H 0.10954 0.67894 0.64342 0.0
H633 H 0.11606 0.61628 0.67572 0.0
H634 H 0.11649 0.62106 0.81423 0.0
H635 H 0.11663 0.64354 0.92539 0.0
H636 H 0.10856 0.70537 0.89805 0.0
H637 H 0.10697 0.70036 0.75793 0.0
C638 C 0.1104 0.66601 0.68079 0.0
C639 C 0.11259 0.64717 0.64929 0.0
C640 C 0.11073 0.66891 0.76099 0.0
C641 C 0.1144 0.63095 0.69859 0.0
C642 C 0.11471 0.63368 0.77779 0.0
C643 C 0.11468 0.65607 0.88893 0.0
C644 C 0.11312 0.67504 0.92179 0.0
C645 C 0.1133 0.65279 0.80944 0.0
C646 C 0.11 0.69074 0.87384 0.0
C647 C 0.10904 0.68783 0.79389 0.0
H648 H 0.40964 0.10036 0.18632 0.0
H649 H 0.48327 0.13273 0.25772 0.0
H650 H 0.49535 0.13073 0.12768 0.0
H651 H 0.48541 0.11962 0.99521 0.0
H652 H 0.4132 0.09308 0.91665 0.0
H653 H 0.40007 0.09199 0.04809 0.0
C654 C 0.4283 0.10716 0.17288 0.0
C655 C 0.44548 0.11672 0.23126 0.0
C656 C 0.43534 0.10641 0.09723 0.0
C657 C 0.46968 0.12555 0.21357 0.0
C658 C 0.47664 0.12422 0.13937 0.0
C659 C 0.46674 0.1135 0.00647 0.0
C660 C 0.45028 0.10561 0.94599 0.0
C661 C 0.45962 0.11457 0.08106 0.0
C662 C 0.4262 0.09803 0.96189 0.0
C663 C 0.4187 0.09793 0.03722 0.0
H664 H 0.32882 0.41503 0.5552 0.0
H665 H 0.31788 0.47514 0.58401 0.0
H666 H 0.32332 0.48317 0.44637 0.0
H667 H 0.33549 0.47593 0.32158 0.0
H668 H 0.34895 0.41753 0.29232 0.0
H669 H 0.33786 0.40574 0.4265 0.0
C670 C 0.32713 0.42958 0.53109 0.0
C671 C 0.32316 0.44462 0.57971 0.0
C672 C 0.33096 0.43451 0.45215 0.0
C673 C 0.32113 0.46346 0.54779 0.0
C674 C 0.3243 0.4681 0.4692 0.0
C675 C 0.33585 0.4605 0.34441 0.0
C676 C 0.34314 0.44768 0.2974 0.0
C677 C 0.32999 0.45423 0.42148 0.0
C678 C 0.34318 0.42754 0.32719 0.0
C679 C 0.33701 0.42092 0.40404 0.0
H680 H 0.9174 0.34851 0.67437 0.0
H681 H 0.84634 0.33872 0.68181 0.0
H682 H 0.84315 0.32844 0.81703 0.0
H683 H 0.86114 0.32446 0.93517 0.0
H684 H 0.93176 0.3333 0.92906 0.0
H685 H 0.93403 0.34069 0.79087 0.0
C686 C 0.90097 0.34351 0.70465 0.0
C687 C 0.88215 0.34436 0.66718 0.0
C688 C 0.89909 0.33735 0.78298 0.0
C689 C 0.86128 0.33849 0.70894 0.0
C690 C 0.85933 0.33246 0.78644 0.0
C691 C 0.87692 0.32769 0.90351 0.0
C692 C 0.8963 0.32853 0.94261 0.0
C693 C 0.87823 0.33218 0.82432 0.0
C694 C 0.91654 0.33255 0.90049 0.0
C695 C 0.91794 0.33696 0.82143 0.0
H696 H 0.12184 0.52161 0.24323 0.0
H697 H 0.12251 0.52883 0.99656 0.0
H698 H 0.12395 0.567 0.00985 0.0
H699 H 0.12283 0.5973 0.09095 0.0
H700 H 0.12088 0.5896 0.33763 0.0
H701 H 0.12222 0.55276 0.32464 0.0
C702 C 0.12254 0.53164 0.19237 0.0
C703 C 0.12196 0.52227 0.11905 0.0
C704 C 0.12299 0.55346 0.20031 0.0
C705 C 0.12279 0.5355 0.05376 0.0
C706 C 0.1236 0.55736 0.06124 0.0
C707 C 0.12288 0.58769 0.14197 0.0
C708 C 0.12163 0.5962 0.21509 0.0
C709 C 0.12336 0.56634 0.13417 0.0
C710 C 0.12168 0.58343 0.28052 0.0
C711 C 0.12246 0.56234 0.27322 0.0
H712 H 0.59465 0.12557 0.41686 0.0
H713 H 0.60371 0.12272 0.66157 0.0
H714 H 0.56691 0.12354 0.68432 0.0
H715 H 0.53112 0.12299 0.63461 0.0
H716 H 0.52237 0.12618 0.38978 0.0
H717 H 0.56019 0.12745 0.3675 0.0
C718 C 0.58867 0.12522 0.47524 0.0
C719 C 0.60186 0.12387 0.53733 0.0
C720 C 0.5675 0.12571 0.48798 0.0
C721 C 0.59392 0.12371 0.61262 0.0
C722 C 0.57282 0.12412 0.62573 0.0
C723 C 0.53753 0.1241 0.57636 0.0
C724 C 0.52378 0.12429 0.51401 0.0
C725 C 0.55931 0.1248 0.56381 0.0
C726 C 0.53252 0.12596 0.43894 0.0
C727 C 0.55414 0.12663 0.42605 0.0
H728 H 0.48059 0.59869 0.93221 0.0
H729 H 0.47311 0.60193 0.68695 0.0
H730 H 0.43458 0.56537 0.69122 0.0
H731 H 0.40393 0.53122 0.76316 0.0
H732 H 0.41182 0.52707 0.00795 0.0
H733 H 0.44901 0.56515 0.0052 0.0
C734 C 0.4704 0.59152 0.8799 0.0
C735 C 0.47985 0.60294 0.80934 0.0
C736 C 0.44831 0.57019 0.8825 0.0
C737 C 0.46644 0.59334 0.74195 0.0
C738 C 0.44434 0.57243 0.74429 0.0
C739 C 0.41366 0.53872 0.81604 0.0
C740 C 0.40508 0.52618 0.88548 0.0
C741 C 0.43526 0.56049 0.81403 0.0
C742 C 0.41802 0.53621 0.95345 0.0
C743 C 0.43934 0.55803 0.95204 0.0
H744 H 0.88027 0.401 0.09938 0.0
H745 H 0.88111 0.41176 0.34427 0.0
H746 H 0.88007 0.44851 0.32304 0.0
H747 H 0.88101 0.47868 0.23502 0.0
H748 H 0.88145 0.46839 0.99019 0.0
H749 H 0.87976 0.43035 0.01162 0.0
C750 C 0.88003 0.41125 0.14824 0.0
C751 C 0.88087 0.40362 0.2233 0.0
C752 C 0.87975 0.43254 0.13569 0.0
C753 C 0.8806 0.41722 0.28581 0.0
C754 C 0.88 0.43827 0.27376 0.0
C755 C 0.88051 0.46803 0.18629 0.0
C756 C 0.88145 0.47649 0.11111 0.0
C757 C 0.87989 0.44627 0.19894 0.0
C758 C 0.88088 0.46243 0.04871 0.0
C759 C 0.87992 0.44064 0.06086 0.0
H760 H 0.47717 0.87647 0.37546 0.0
H761 H 0.47192 0.87958 0.6219 0.0
H762 H 0.43428 0.87934 0.60841 0.0
H763 H 0.40393 0.88044 0.52654 0.0
H764 H 0.40999 0.87861 0.28 0.0
H765 H 0.4461 0.87603 0.29393 0.0
C766 C 0.46771 0.87688 0.42633 0.0
C767 C 0.47747 0.87815 0.49953 0.0
C768 C 0.44622 0.87708 0.41822 0.0
C769 C 0.46494 0.87873 0.56475 0.0
C770 C 0.44338 0.8786 0.55715 0.0
C771 C 0.41301 0.87925 0.47584 0.0
C772 C 0.40426 0.87983 0.40236 0.0
C773 C 0.43402 0.87811 0.48413 0.0
C774 C 0.41636 0.87835 0.33732 0.0
C775 C 0.43704 0.87687 0.34516 0.0
H776 H 0.59719 0.47432 0.74941 0.0
H777 H 0.59567 0.47487 0.9972 0.0
H778 H 0.55846 0.43681 0.99755 0.0
H779 H 0.52538 0.40405 0.92755 0.0
H780 H 0.52617 0.40448 0.67964 0.0
H781 H 0.56453 0.44127 0.67956 0.0
C782 C 0.58882 0.46603 0.80349 0.0
C783 C 0.59922 0.4775 0.87304 0.0
C784 C 0.56718 0.44428 0.8034 0.0
C785 C 0.58802 0.46654 0.94266 0.0
C786 C 0.56672 0.44472 0.94302 0.0
C787 C 0.53403 0.41209 0.87354 0.0
C788 C 0.52284 0.40148 0.80383 0.0
C789 C 0.55599 0.43354 0.87373 0.0
C790 C 0.53427 0.41226 0.73429 0.0
C791 C 0.55626 0.43334 0.73407 0.0
H792 H 0.24171 0.42557 0.90532 0.0
H793 H 0.28627 0.48641 0.04649 0.0
H794 H 0.25133 0.48841 0.08967 0.0
H795 H 0.20799 0.47286 0.08685 0.0
H796 H 0.16337 0.41252 0.94399 0.0
H797 H 0.19825 0.41017 0.90175 0.0
C798 C 0.24365 0.43929 0.94517 0.0
C799 C 0.26634 0.4557 0.97329 0.0
C800 C 0.22347 0.44029 0.96969 0.0
C801 C 0.26883 0.47345 0.02486 0.0
C802 C 0.2489 0.4746 0.0495 0.0
C803 C 0.20598 0.45905 0.04725 0.0
C804 C 0.18328 0.44273 0.01898 0.0
C805 C 0.22612 0.45804 0.02265 0.0
C806 C 0.18078 0.42517 0.96657 0.0
C807 C 0.20068 0.42388 0.94233 0.0
H808 H 0.80096 0.27626 0.40129 0.0
H809 H 0.82459 0.24175 0.24081 0.0
H810 H 0.79 0.20296 0.27284 0.0
H811 H 0.75347 0.1788 0.34937 0.0
H812 H 0.73153 0.21327 0.51557 0.0
H813 H 0.76553 0.25214 0.48082 0.0
C814 C 0.79866 0.26019 0.374 0.0
C815 C 0.81535 0.26179 0.31921 0.0
C816 C 0.77926 0.23798 0.39471 0.0
C817 C 0.81187 0.24095 0.28279 0.0
C818 C 0.79223 0.21879 0.30159 0.0
C819 C 0.75634 0.19488 0.37817 0.0
C820 C 0.74028 0.19333 0.43528 0.0
C821 C 0.77593 0.21708 0.35794 0.0
C822 C 0.74395 0.21412 0.47227 0.0
C823 C 0.76322 0.2363 0.45195 0.0
H824 H 0.52876 0.80134 0.67997 0.0
H825 H 0.58272 0.82043 0.50605 0.0
H826 H 0.58726 0.78633 0.54272 0.0
H827 H 0.57639 0.75157 0.62666 0.0
H828 H 0.52305 0.7333 0.80224 0.0
H829 H 0.51836 0.76717 0.7647 0.0
C830 C 0.54168 0.79816 0.65062 0.0
C831 C 0.5555 0.81342 0.59071 0.0
C832 C 0.54454 0.77892 0.67321 0.0
C833 C 0.57176 0.80879 0.55192 0.0
C834 C 0.57449 0.78944 0.57332 0.0
C835 C 0.56383 0.75514 0.65673 0.0
C836 C 0.55029 0.74022 0.71768 0.0
C837 C 0.56108 0.77448 0.63423 0.0
C838 C 0.53402 0.74487 0.75626 0.0
C839 C 0.53116 0.76406 0.73427 0.0
H840 H 0.79584 0.5285 0.07182 0.0
H841 H 0.84042 0.58413 0.91282 0.0
H842 H 0.80603 0.58721 0.8695 0.0
H843 H 0.76301 0.57394 0.87737 0.0
H844 H 0.71864 0.51799 0.03597 0.0
H845 H 0.75303 0.51512 0.07912 0.0
C846 C 0.79798 0.54147 0.02841 0.0
C847 C 0.82052 0.55621 0.99586 0.0
C848 C 0.77813 0.54297 0.00351 0.0
C849 C 0.82314 0.57266 0.93863 0.0
C850 C 0.80351 0.57438 0.91381 0.0
C851 C 0.76097 0.56106 0.92095 0.0
C852 C 0.73848 0.54635 0.95401 0.0
C853 C 0.78088 0.55956 0.94563 0.0
C854 C 0.73591 0.52971 0.01053 0.0
C855 C 0.75554 0.52804 0.03513 0.0
H856 H 0.26893 0.7958 0.38679 0.0
H857 H 0.25171 0.83757 0.23483 0.0
H858 H 0.21338 0.80219 0.20385 0.0
H859 H 0.18464 0.75918 0.22114 0.0
H860 H 0.20264 0.71762 0.37172 0.0
H861 H 0.24065 0.75301 0.40278 0.0
C862 C 0.25662 0.79711 0.34751 0.0
C863 C 0.26286 0.81913 0.31353 0.0
C864 C 0.2348 0.77673 0.32982 0.0
C865 C 0.2471 0.82068 0.26164 0.0
C866 C 0.22525 0.80051 0.24397 0.0
C867 C 0.19701 0.75796 0.26035 0.0
C868 C 0.19085 0.73599 0.29476 0.0
C869 C 0.21892 0.7784 0.27766 0.0
C870 C 0.20691 0.7345 0.34557 0.0
C871 C 0.22866 0.75468 0.36312 0.0
H872 H 0.42008 0.24496 0.66058 0.0
H873 H 0.48373 0.27226 0.79805 0.0
H874 H 0.4877 0.23769 0.76473 0.0
H875 H 0.47378 0.20036 0.69291 0.0
H876 H 0.4108 0.1734 0.55242 0.0
H877 H 0.4061 0.20744 0.58852 0.0
C878 C 0.43478 0.24324 0.68308 0.0
C879 C 0.45156 0.26098 0.73178 0.0
C880 C 0.43719 0.22358 0.6623 0.0
C881 C 0.47047 0.25862 0.76116 0.0
C882 C 0.47283 0.23898 0.74165 0.0
C883 C 0.45897 0.20194 0.67066 0.0
C884 C 0.44261 0.18451 0.62035 0.0
C885 C 0.45641 0.22146 0.69184 0.0
C886 C 0.42365 0.18677 0.59094 0.0
C887 C 0.42092 0.20612 0.61186 0.0
loop_
_geom_bond_atom_site_label_1
_geom_bond_atom_site_label_2
_geom_bond_distance
_geom_bond_site_symmetry_2
_ccdc_geom_bond_type
Co0 O3 1.970 . S
Co0 N17 1.989 . S
Co0 O25 1.967 . S
Co0 O32 1.920 . S
Co1 O4 1.966 . S
Co1 N10 2.022 1_554 S
Co1 N18 1.993 . S
Co1 O26 1.941 . S
C2 O3 1.258 . S
C2 O4 1.263 . S
O3 Co0 1.970 . S
O3 C2 1.258 . S
O4 Co1 1.966 . S
O4 C2 1.263 . S
C5 O6 1.235 . S
C5 O32 1.289 . S
O6 C5 1.235 . S
C7 C9 1.400 . S
C7 N10 1.351 . S
C7 C12 1.501 . S
C8 C9 1.387 . S
C8 N11 1.341 . S
C9 C7 1.400 . S
C9 C8 1.387 . S
N10 Co1 2.022 1_556 S
N10 C7 1.351 . S
N10 N11 1.365 . S
N11 C8 1.341 . S
N11 N10 1.365 . S
N11 H31 0.862 . S
C12 C7 1.501 . S
C12 H13 0.961 . S
C12 H14 0.961 . S
C12 H15 0.960 . S
H13 C12 0.961 . S
H14 C12 0.961 . S
H15 C12 0.960 . S
C16 N17 1.342 . S
C16 C20 1.401 . S
C16 C21 1.499 . S
N17 Co0 1.989 . S
N17 C16 1.342 . S
N17 N18 1.388 . S
N18 Co1 1.993 . S
N18 N17 1.388 . S
N18 C19 1.346 . S
C19 N18 1.346 . S
C19 C20 1.396 . S
C19 C29 1.510 1_554 S
C20 C16 1.401 . S
C20 C19 1.396 . S
C21 C16 1.499 . S
C21 H22 0.959 . S
C21 H23 0.960 . S
C21 H24 0.961 . S
H22 C21 0.959 . S
H23 C21 0.960 . S
H24 C21 0.961 . S
O25 Co0 1.967 . S
O25 C33 1.258 . S
O26 Co1 1.941 . S
O26 C33 1.266 . S
H27 C29 0.959 . S
H28 C29 0.961 . S
C29 C19 1.510 1_556 S
C29 H27 0.959 . S
C29 H28 0.961 . S
C29 H30 0.960 . S
H30 C29 0.960 . S
H31 N11 0.862 . S
O32 Co0 1.920 . S
O32 C5 1.289 . S
C33 O25 1.258 . S
C33 O26 1.266 . S
Co34 O37 1.970 . S
Co34 N51 1.989 . S
Co34 O59 1.967 . S
Co34 O66 1.920 . S
Co35 O38 1.966 . S
Co35 N44 2.022 . S
Co35 N52 1.993 . S
Co35 O60 1.941 . S
C36 O37 1.258 . S
C36 O38 1.263 . S
O37 Co34 1.970 . S
O37 C36 1.258 . S
O38 Co35 1.966 . S
O38 C36 1.263 . S
C39 O40 1.235 . S
C39 O66 1.289 . S
O40 C39 1.235 . S
C41 C43 1.400 . S
C41 N44 1.351 . S
C41 C46 1.501 . S
C42 C43 1.387 . S
C42 N45 1.341 . S
C43 C41 1.400 . S
C43 C42 1.387 . S
N44 Co35 2.022 . S
N44 C41 1.351 . S
N44 N45 1.365 . S
N45 C42 1.341 . S
N45 N44 1.365 . S
N45 H65 0.862 . S
C46 C41 1.501 . S
C46 H47 0.961 . S
C46 H48 0.961 . S
C46 H49 0.960 . S
H47 C46 0.961 . S
H48 C46 0.961 . S
H49 C46 0.960 . S
C50 N51 1.342 . S
C50 C54 1.401 . S
C50 C55 1.499 . S
N51 Co34 1.989 . S
N51 C50 1.342 . S
N51 N52 1.388 . S
N52 Co35 1.993 . S
N52 N51 1.388 . S
N52 C53 1.346 . S
C53 N52 1.346 . S
C53 C54 1.396 . S
C53 C63 1.510 . S
C54 C50 1.401 . S
C54 C53 1.396 . S
C55 C50 1.499 . S
C55 H56 0.959 . S
C55 H57 0.960 . S
C55 H58 0.961 . S
H56 C55 0.959 . S
H57 C55 0.960 . S
H58 C55 0.961 . S
O59 Co34 1.967 . S
O59 C67 1.258 . S
O60 Co35 1.941 . S
O60 C67 1.266 . S
H61 C63 0.959 . S
H62 C63 0.961 . S
C63 C53 1.510 . S
C63 H61 0.959 . S
C63 H62 0.961 . S
C63 H64 0.960 . S
H64 C63 0.960 . S
H65 N45 0.862 . S
O66 Co34 1.920 . S
O66 C39 1.289 . S
C67 O59 1.258 . S
C67 O60 1.266 . S
Co68 O71 1.970 . S
Co68 N85 1.989 . S
Co68 O93 1.967 . S
Co68 O100 1.920 . S
Co69 O72 1.966 . S
Co69 N78 2.022 . S
Co69 N86 1.993 . S
Co69 O94 1.941 . S
C70 O71 1.258 . S
C70 O72 1.263 . S
O71 Co68 1.970 . S
O71 C70 1.258 . S
O72 Co69 1.966 . S
O72 C70 1.263 . S
C73 O74 1.235 1_554 S
C73 O100 1.289 1_554 S
O74 C73 1.235 1_556 S
C75 C77 1.400 . S
C75 N78 1.351 . S
C75 C80 1.501 . S
C76 C77 1.387 . S
C76 N79 1.341 . S
C77 C75 1.400 . S
C77 C76 1.387 . S
N78 Co69 2.022 . S
N78 C75 1.351 . S
N78 N79 1.365 . S
N79 C76 1.341 . S
N79 N78 1.365 . S
N79 H99 0.862 . S
C80 C75 1.501 . S
C80 H81 0.961 . S
C80 H82 0.961 . S
C80 H83 0.960 . S
H81 C80 0.961 . S
H82 C80 0.961 . S
H83 C80 0.960 . S
C84 N85 1.342 . S
C84 C88 1.401 . S
C84 C89 1.499 . S
N85 Co68 1.989 . S
N85 C84 1.342 . S
N85 N86 1.388 . S
N86 Co69 1.993 . S
N86 N85 1.388 . S
N86 C87 1.346 . S
C87 N86 1.346 . S
C87 C88 1.396 . S
C87 C97 1.510 . S
C88 C84 1.401 . S
C88 C87 1.396 . S
C89 C84 1.499 . S
C89 H90 0.959 . S
C89 H91 0.960 . S
C89 H92 0.961 . S
H90 C89 0.959 . S
H91 C89 0.960 . S
H92 C89 0.961 . S
O93 Co68 1.967 . S
O93 C101 1.258 . S
O94 Co69 1.941 . S
O94 C101 1.266 . S
H95 C97 0.959 . S
H96 C97 0.961 . S
C97 C87 1.510 . S
C97 H95 0.959 . S
C97 H96 0.961 . S
C97 H98 0.960 . S
H98 C97 0.960 . S
H99 N79 0.862 . S
O100 Co68 1.920 . S
O100 C73 1.289 1_556 S
C101 O93 1.258 . S
C101 O94 1.266 . S
Co102 O105 1.970 . S
Co102 N119 1.989 . S
Co102 O127 1.967 . S
Co102 O134 1.920 . S
Co103 O106 1.966 . S
Co103 N112 2.022 1_554 S
Co103 N120 1.993 . S
Co103 O128 1.941 . S
C104 O105 1.258 . S
C104 O106 1.263 . S
O105 Co102 1.970 . S
O105 C104 1.258 . S
O106 Co103 1.966 . S
O106 C104 1.263 . S
C107 O108 1.235 . S
C107 O134 1.289 . S
O108 C107 1.235 . S
C109 C111 1.400 . S
C109 N112 1.351 . S
C109 C114 1.501 . S
C110 C111 1.387 . S
C110 N113 1.341 . S
C111 C109 1.400 . S
C111 C110 1.387 . S
N112 Co103 2.022 1_556 S
N112 C109 1.351 . S
N112 N113 1.365 . S
N113 C110 1.341 . S
N113 N112 1.365 . S
N113 H133 0.862 . S
C114 C109 1.501 . S
C114 H115 0.961 . S
C114 H116 0.961 . S
C114 H117 0.960 . S
H115 C114 0.961 . S
H116 C114 0.961 . S
H117 C114 0.960 . S
C118 N119 1.342 . S
C118 C122 1.401 . S
C118 C123 1.499 . S
N119 Co102 1.989 . S
N119 C118 1.342 . S
N119 N120 1.388 . S
N120 Co103 1.993 . S
N120 N119 1.388 . S
N120 C121 1.346 . S
C121 N120 1.346 . S
C121 C122 1.396 . S
C121 C131 1.510 1_554 S
C122 C118 1.401 . S
C122 C121 1.396 . S
C123 C118 1.499 . S
C123 H124 0.959 . S
C123 H125 0.960 . S
C123 H126 0.961 . S
H124 C123 0.959 . S
H125 C123 0.960 . S
H126 C123 0.961 . S
O127 Co102 1.967 . S
O127 C135 1.258 . S
O128 Co103 1.941 . S
O128 C135 1.266 . S
H129 C131 0.959 . S
H130 C131 0.961 . S
C131 C121 1.510 1_556 S
C131 H129 0.959 . S
C131 H130 0.961 . S
C131 H132 0.960 . S
H132 C131 0.960 . S
H133 N113 0.862 . S
O134 Co102 1.920 . S
O134 C107 1.289 . S
C135 O127 1.258 . S
C135 O128 1.266 . S
Co136 O139 1.970 . S
Co136 N153 1.989 . S
Co136 O161 1.967 . S
Co136 O168 1.920 . S
Co137 O140 1.966 . S
Co137 N146 2.022 . S
Co137 N154 1.993 . S
Co137 O162 1.941 . S
C138 O139 1.258 . S
C138 O140 1.263 . S
O139 Co136 1.970 . S
O139 C138 1.258 . S
O140 Co137 1.966 . S
O140 C138 1.263 . S
C141 O142 1.235 . S
C141 O168 1.289 . S
O142 C141 1.235 . S
C143 C145 1.400 . S
C143 N146 1.351 . S
C143 C148 1.501 . S
C144 C145 1.387 . S
C144 N147 1.341 . S
C145 C143 1.400 . S
C145 C144 1.387 . S
N146 Co137 2.022 . S
N146 C143 1.351 . S
N146 N147 1.365 . S
N147 C144 1.341 . S
N147 N146 1.365 . S
N147 H167 0.862 . S
C148 C143 1.501 . S
C148 H149 0.961 . S
C148 H150 0.961 . S
C148 H151 0.960 . S
H149 C148 0.961 . S
H150 C148 0.961 . S
H151 C148 0.960 . S
C152 N153 1.342 . S
C152 C156 1.401 . S
C152 C157 1.499 . S
N153 Co136 1.989 . S
N153 C152 1.342 . S
N153 N154 1.388 . S
N154 Co137 1.993 . S
N154 N153 1.388 . S
N154 C155 1.346 . S
C155 N154 1.346 . S
C155 C156 1.396 . S
C155 C165 1.510 . S
C156 C152 1.401 . S
C156 C155 1.396 . S
C157 C152 1.499 . S
C157 H158 0.959 . S
C157 H159 0.960 . S
C157 H160 0.961 . S
H158 C157 0.959 . S
H159 C157 0.960 . S
H160 C157 0.961 . S
O161 Co136 1.967 . S
O161 C169 1.258 . S
O162 Co137 1.941 . S
O162 C169 1.266 . S
H163 C165 0.959 . S
H164 C165 0.961 . S
C165 C155 1.510 . S
C165 H163 0.959 . S
C165 H164 0.961 . S
C165 H166 0.960 . S
H166 C165 0.960 . S
H167 N147 0.862 . S
O168 Co136 1.920 . S
O168 C141 1.289 . S
C169 O161 1.258 . S
C169 O162 1.266 . S
Co170 O173 1.970 . S
Co170 N187 1.989 . S
Co170 O195 1.967 . S
Co170 O202 1.920 . S
Co171 O174 1.966 . S
Co171 N180 2.022 . S
Co171 N188 1.993 . S
Co171 O196 1.941 . S
C172 O173 1.258 . S
C172 O174 1.263 . S
O173 Co170 1.970 . S
O173 C172 1.258 . S
O174 Co171 1.966 . S
O174 C172 1.263 . S
C175 O176 1.235 1_554 S
C175 O202 1.289 1_554 S
O176 C175 1.235 1_556 S
C177 C179 1.400 . S
C177 N180 1.351 . S
C177 C182 1.501 . S
C178 C179 1.387 . S
C178 N181 1.341 . S
C179 C177 1.400 . S
C179 C178 1.387 . S
N180 Co171 2.022 . S
N180 C177 1.351 . S
N180 N181 1.365 . S
N181 C178 1.341 . S
N181 N180 1.365 . S
N181 H201 0.862 . S
C182 C177 1.501 . S
C182 H183 0.961 . S
C182 H184 0.961 . S
C182 H185 0.960 . S
H183 C182 0.961 . S
H184 C182 0.961 . S
H185 C182 0.960 . S
C186 N187 1.342 . S
C186 C190 1.401 . S
C186 C191 1.499 . S
N187 Co170 1.989 . S
N187 C186 1.342 . S
N187 N188 1.388 . S
N188 Co171 1.993 . S
N188 N187 1.388 . S
N188 C189 1.346 . S
C189 N188 1.346 . S
C189 C190 1.396 . S
C189 C199 1.510 . S
C190 C186 1.401 . S
C190 C189 1.396 . S
C191 C186 1.499 . S
C191 H192 0.959 . S
C191 H193 0.960 . S
C191 H194 0.961 . S
H192 C191 0.959 . S
H193 C191 0.960 . S
H194 C191 0.961 . S
O195 Co170 1.967 . S
O195 C203 1.258 . S
O196 Co171 1.941 . S
O196 C203 1.266 . S
H197 C199 0.959 . S
H198 C199 0.961 . S
C199 C189 1.510 . S
C199 H197 0.959 . S
C199 H198 0.961 . S
C199 H200 0.960 . S
H200 C199 0.960 . S
H201 N181 0.862 . S
O202 Co170 1.920 . S
O202 C175 1.289 1_556 S
C203 O195 1.258 . S
C203 O196 1.266 . S
Co204 O207 1.970 . S
Co204 N221 1.989 . S
Co204 O229 1.967 . S
Co204 O236 1.920 . S
Co205 O208 1.966 . S
Co205 N214 2.022 . S
Co205 N222 1.993 . S
Co205 O230 1.941 . S
C206 O207 1.258 . S
C206 O208 1.263 . S
O207 Co204 1.970 . S
O207 C206 1.258 . S
O208 Co205 1.966 . S
O208 C206 1.263 . S
C209 O210 1.235 . S
C209 O236 1.289 . S
O210 C209 1.235 . S
C211 C213 1.400 . S
C211 N214 1.351 . S
C211 C216 1.501 . S
C212 C213 1.387 . S
C212 N215 1.341 . S
C213 C211 1.400 . S
C213 C212 1.387 . S
N214 Co205 2.022 . S
N214 C211 1.351 . S
N214 N215 1.365 . S
N215 C212 1.341 . S
N215 N214 1.365 . S
N215 H235 0.862 . S
C216 C211 1.501 . S
C216 H217 0.961 . S
C216 H218 0.961 . S
C216 H219 0.960 . S
H217 C216 0.961 . S
H218 C216 0.961 . S
H219 C216 0.960 . S
C220 N221 1.342 . S
C220 C224 1.401 . S
C220 C225 1.499 . S
N221 Co204 1.989 . S
N221 C220 1.342 . S
N221 N222 1.388 . S
N222 Co205 1.993 . S
N222 N221 1.388 . S
N222 C223 1.346 . S
C223 N222 1.346 . S
C223 C224 1.396 . S
C223 C233 1.510 . S
C224 C220 1.401 . S
C224 C223 1.396 . S
C225 C220 1.499 . S
C225 H226 0.959 . S
C225 H227 0.960 . S
C225 H228 0.961 . S
H226 C225 0.959 . S
H227 C225 0.960 . S
H228 C225 0.961 . S
O229 Co204 1.967 . S
O229 C237 1.258 . S
O230 Co205 1.941 . S
O230 C237 1.266 . S
H231 C233 0.959 . S
H232 C233 0.961 . S
C233 C223 1.510 . S
C233 H231 0.959 . S
C233 H232 0.961 . S
C233 H234 0.960 . S
H234 C233 0.960 . S
H235 N215 0.862 . S
O236 Co204 1.920 . S
O236 C209 1.289 . S
C237 O229 1.258 . S
C237 O230 1.266 . S
Co238 O241 1.970 . S
Co238 N255 1.989 . S
Co238 O263 1.967 . S
Co238 O270 1.920 . S
Co239 O242 1.966 . S
Co239 N248 2.022 1_556 S
Co239 N256 1.993 . S
Co239 O264 1.941 . S
C240 O241 1.258 . S
C240 O242 1.263 . S
O241 Co238 1.970 . S
O241 C240 1.258 . S
O242 Co239 1.966 . S
O242 C240 1.263 . S
C243 O244 1.235 . S
C243 O270 1.289 . S
O244 C243 1.235 . S
C245 C247 1.400 . S
C245 N248 1.351 . S
C245 C250 1.501 . S
C246 C247 1.387 . S
C246 N249 1.341 . S
C247 C245 1.400 . S
C247 C246 1.387 . S
N248 Co239 2.022 1_554 S
N248 C245 1.351 . S
N248 N249 1.365 . S
N249 C246 1.341 . S
N249 N248 1.365 . S
N249 H269 0.862 . S
C250 C245 1.501 . S
C250 H251 0.961 . S
C250 H252 0.961 . S
C250 H253 0.960 . S
H251 C250 0.961 . S
H252 C250 0.961 . S
H253 C250 0.960 . S
C254 N255 1.342 . S
C254 C258 1.401 . S
C254 C259 1.499 . S
N255 Co238 1.989 . S
N255 C254 1.342 . S
N255 N256 1.388 . S
N256 Co239 1.993 . S
N256 N255 1.388 . S
N256 C257 1.346 . S
C257 N256 1.346 . S
C257 C258 1.396 . S
C257 C267 1.510 1_556 S
C258 C254 1.401 . S
C258 C257 1.396 . S
C259 C254 1.499 . S
C259 H260 0.959 . S
C259 H261 0.960 . S
C259 H262 0.961 . S
H260 C259 0.959 . S
H261 C259 0.960 . S
H262 C259 0.961 . S
O263 Co238 1.967 . S
O263 C271 1.258 . S
O264 Co239 1.941 . S
O264 C271 1.266 . S
H265 C267 0.959 . S
H266 C267 0.961 . S
C267 C257 1.510 1_554 S
C267 H265 0.959 . S
C267 H266 0.961 . S
C267 H268 0.960 . S
H268 C267 0.960 . S
H269 N249 0.862 . S
O270 Co238 1.920 . S
O270 C243 1.289 . S
C271 O263 1.258 . S
C271 O264 1.266 . S
Co272 O275 1.970 . S
Co272 N289 1.989 . S
Co272 O297 1.967 . S
Co272 O304 1.920 . S
Co273 O276 1.966 . S
Co273 N282 2.022 . S
Co273 N290 1.993 . S
Co273 O298 1.941 . S
C274 O275 1.258 . S
C274 O276 1.263 . S
O275 Co272 1.970 . S
O275 C274 1.258 . S
O276 Co273 1.966 . S
O276 C274 1.263 . S
C277 O278 1.235 1_556 S
C277 O304 1.289 1_556 S
O278 C277 1.235 1_554 S
C279 C281 1.400 . S
C279 N282 1.351 . S
C279 C284 1.501 . S
C280 C281 1.387 . S
C280 N283 1.341 . S
C281 C279 1.400 . S
C281 C280 1.387 . S
N282 Co273 2.022 . S
N282 C279 1.351 . S
N282 N283 1.365 . S
N283 C280 1.341 . S
N283 N282 1.365 . S
N283 H303 0.862 . S
C284 C279 1.501 . S
C284 H285 0.961 . S
C284 H286 0.961 . S
C284 H287 0.960 . S
H285 C284 0.961 . S
H286 C284 0.961 . S
H287 C284 0.960 . S
C288 N289 1.342 . S
C288 C292 1.401 . S
C288 C293 1.499 . S
N289 Co272 1.989 . S
N289 C288 1.342 . S
N289 N290 1.388 . S
N290 Co273 1.993 . S
N290 N289 1.388 . S
N290 C291 1.346 . S
C291 N290 1.346 . S
C291 C292 1.396 . S
C291 C301 1.510 . S
C292 C288 1.401 . S
C292 C291 1.396 . S
C293 C288 1.499 . S
C293 H294 0.959 . S
C293 H295 0.960 . S
C293 H296 0.961 . S
H294 C293 0.959 . S
H295 C293 0.960 . S
H296 C293 0.961 . S
O297 Co272 1.967 . S
O297 C305 1.258 . S
O298 Co273 1.941 . S
O298 C305 1.266 . S
H299 C301 0.959 . S
H300 C301 0.961 . S
C301 C291 1.510 . S
C301 H299 0.959 . S
C301 H300 0.961 . S
C301 H302 0.960 . S
H302 C301 0.960 . S
H303 N283 0.862 . S
O304 Co272 1.920 . S
O304 C277 1.289 1_554 S
C305 O297 1.258 . S
C305 O298 1.266 . S
Co306 O309 1.970 . S
Co306 N323 1.989 . S
Co306 O331 1.967 . S
Co306 O338 1.920 . S
Co307 O310 1.966 . S
Co307 N316 2.022 . S
Co307 N324 1.993 . S
Co307 O332 1.941 . S
C308 O309 1.258 . S
C308 O310 1.263 . S
O309 Co306 1.970 . S
O309 C308 1.258 . S
O310 Co307 1.966 . S
O310 C308 1.263 . S
C311 O312 1.235 . S
C311 O338 1.289 . S
O312 C311 1.235 . S
C313 C315 1.400 . S
C313 N316 1.351 . S
C313 C318 1.501 . S
C314 C315 1.387 . S
C314 N317 1.341 . S
C315 C313 1.400 . S
C315 C314 1.387 . S
N316 Co307 2.022 . S
N316 C313 1.351 . S
N316 N317 1.365 . S
N317 C314 1.341 . S
N317 N316 1.365 . S
N317 H337 0.862 . S
C318 C313 1.501 . S
C318 H319 0.961 . S
C318 H320 0.961 . S
C318 H321 0.960 . S
H319 C318 0.961 . S
H320 C318 0.961 . S
H321 C318 0.960 . S
C322 N323 1.342 . S
C322 C326 1.401 . S
C322 C327 1.499 . S
N323 Co306 1.989 . S
N323 C322 1.342 . S
N323 N324 1.388 . S
N324 Co307 1.993 . S
N324 N323 1.388 . S
N324 C325 1.346 . S
C325 N324 1.346 . S
C325 C326 1.396 . S
C325 C335 1.510 . S
C326 C322 1.401 . S
C326 C325 1.396 . S
C327 C322 1.499 . S
C327 H328 0.959 . S
C327 H329 0.960 . S
C327 H330 0.961 . S
H328 C327 0.959 . S
H329 C327 0.960 . S
H330 C327 0.961 . S
O331 Co306 1.967 . S
O331 C339 1.258 . S
O332 Co307 1.941 . S
O332 C339 1.266 . S
H333 C335 0.959 . S
H334 C335 0.961 . S
C335 C325 1.510 . S
C335 H333 0.959 . S
C335 H334 0.961 . S
C335 H336 0.960 . S
H336 C335 0.960 . S
H337 N317 0.862 . S
O338 Co306 1.920 . S
O338 C311 1.289 . S
C339 O331 1.258 . S
C339 O332 1.266 . S
Co340 O343 1.970 . S
Co340 N357 1.989 . S
Co340 O365 1.967 . S
Co340 O372 1.920 . S
Co341 O344 1.966 . S
Co341 N350 2.022 1_556 S
Co341 N358 1.993 . S
Co341 O366 1.941 . S
C342 O343 1.258 . S
C342 O344 1.263 . S
O343 Co340 1.970 . S
O343 C342 1.258 . S
O344 Co341 1.966 . S
O344 C342 1.263 . S
C345 O346 1.235 . S
C345 O372 1.289 . S
O346 C345 1.235 . S
C347 C349 1.400 . S
C347 N350 1.351 . S
C347 C352 1.501 . S
C348 C349 1.387 . S
C348 N351 1.341 . S
C349 C347 1.400 . S
C349 C348 1.387 . S
N350 Co341 2.022 1_554 S
N350 C347 1.351 . S
N350 N351 1.365 . S
N351 C348 1.341 . S
N351 N350 1.365 . S
N351 H371 0.862 . S
C352 C347 1.501 . S
C352 H353 0.961 . S
C352 H354 0.961 . S
C352 H355 0.960 . S
H353 C352 0.961 . S
H354 C352 0.961 . S
H355 C352 0.960 . S
C356 N357 1.342 . S
C356 C360 1.401 . S
C356 C361 1.499 . S
N357 Co340 1.989 . S
N357 C356 1.342 . S
N357 N358 1.388 . S
N358 Co341 1.993 . S
N358 N357 1.388 . S
N358 C359 1.346 . S
C359 N358 1.346 . S
C359 C360 1.396 . S
C359 C369 1.510 1_556 S
C360 C356 1.401 . S
C360 C359 1.396 . S
C361 C356 1.499 . S
C361 H362 0.959 . S
C361 H363 0.960 . S
C361 H364 0.961 . S
H362 C361 0.959 . S
H363 C361 0.960 . S
H364 C361 0.961 . S
O365 Co340 1.967 . S
O365 C373 1.258 . S
O366 Co341 1.941 . S
O366 C373 1.266 . S
H367 C369 0.959 . S
H368 C369 0.961 . S
C369 C359 1.510 1_554 S
C369 H367 0.959 . S
C369 H368 0.961 . S
C369 H370 0.960 . S
H370 C369 0.960 . S
H371 N351 0.862 . S
O372 Co340 1.920 . S
O372 C345 1.289 . S
C373 O365 1.258 . S
C373 O366 1.266 . S
Co374 O377 1.970 . S
Co374 N391 1.989 . S
Co374 O399 1.967 . S
Co374 O406 1.920 . S
Co375 O378 1.966 . S
Co375 N384 2.022 . S
Co375 N392 1.993 . S
Co375 O400 1.941 . S
C376 O377 1.258 . S
C376 O378 1.263 . S
O377 Co374 1.970 . S
O377 C376 1.258 . S
O378 Co375 1.966 . S
O378 C376 1.263 . S
C379 O380 1.235 1_556 S
C379 O406 1.289 1_556 S
O380 C379 1.235 1_554 S
C381 C383 1.400 . S
C381 N384 1.351 . S
C381 C386 1.501 . S
C382 C383 1.387 . S
C382 N385 1.341 . S
C383 C381 1.400 . S
C383 C382 1.387 . S
N384 Co375 2.022 . S
N384 C381 1.351 . S
N384 N385 1.365 . S
N385 C382 1.341 . S
N385 N384 1.365 . S
N385 H405 0.862 . S
C386 C381 1.501 . S
C386 H387 0.961 . S
C386 H388 0.961 . S
C386 H389 0.960 . S
H387 C386 0.961 . S
H388 C386 0.961 . S
H389 C386 0.960 . S
C390 N391 1.342 . S
C390 C394 1.401 . S
C390 C395 1.499 . S
N391 Co374 1.989 . S
N391 C390 1.342 . S
N391 N392 1.388 . S
N392 Co375 1.993 . S
N392 N391 1.388 . S
N392 C393 1.346 . S
C393 N392 1.346 . S
C393 C394 1.396 . S
C393 C403 1.510 . S
C394 C390 1.401 . S
C394 C393 1.396 . S
C395 C390 1.499 . S
C395 H396 0.959 . S
C395 H397 0.960 . S
C395 H398 0.961 . S
H396 C395 0.959 . S
H397 C395 0.960 . S
H398 C395 0.961 . S
O399 Co374 1.967 . S
O399 C407 1.258 . S
O400 Co375 1.941 . S
O400 C407 1.266 . S
H401 C403 0.959 . S
H402 C403 0.961 . S
C403 C393 1.510 . S
C403 H401 0.959 . S
C403 H402 0.961 . S
C403 H404 0.960 . S
H404 C403 0.960 . S
H405 N385 0.862 . S
O406 Co374 1.920 . S
O406 C379 1.289 1_554 S
C407 O399 1.258 . S
C407 O400 1.266 . S
H408 C414 0.930 . S
H409 C417 0.930 . S
H410 C418 0.930 1_655 S
H411 C419 0.930 . S
H412 C422 0.930 . S
H413 C423 0.930 1_455 S
C414 H408 0.930 . S
C414 C415 1.355 . S
C414 C416 1.415 . S
C415 C414 1.355 . S
C415 C417 1.419 . S
C416 C414 1.415 . S
C416 C421 1.425 1_455 S
C416 C423 1.409 1_455 S
C417 H409 0.930 . S
C417 C415 1.419 . S
C417 C418 1.362 . S
C418 H410 0.930 1_455 S
C418 C417 1.362 . S
C418 C421 1.409 1_455 S
C419 H411 0.930 . S
C419 C420 1.355 . S
C419 C421 1.415 . S
C420 C419 1.355 . S
C420 C422 1.419 . S
C421 C416 1.425 1_655 S
C421 C418 1.409 1_655 S
C421 C419 1.415 . S
C422 H412 0.930 . S
C422 C420 1.419 . S
C422 C423 1.362 . S
C423 H413 0.930 1_655 S
C423 C416 1.409 1_655 S
C423 C422 1.362 . S
H424 C430 0.930 . S
H425 C433 0.930 . S
H426 C434 0.930 . S
H427 C435 0.930 . S
H428 C438 0.930 . S
H429 C439 0.930 . S
C430 H424 0.930 . S
C430 C431 1.355 . S
C430 C432 1.415 . S
C431 C430 1.355 . S
C431 C433 1.419 . S
C432 C430 1.415 . S
C432 C437 1.425 1_545 S
C432 C439 1.409 1_545 S
C433 H425 0.930 . S
C433 C431 1.419 . S
C433 C434 1.362 . S
C434 H426 0.930 . S
C434 C433 1.362 . S
C434 C437 1.409 1_545 S
C435 H427 0.930 . S
C435 C436 1.355 . S
C435 C437 1.415 . S
C436 C435 1.355 . S
C436 C438 1.419 . S
C437 C432 1.425 1_565 S
C437 C434 1.409 1_565 S
C437 C435 1.415 . S
C438 H428 0.930 . S
C438 C436 1.419 . S
C438 C439 1.362 . S
C439 H429 0.930 . S
C439 C432 1.409 1_565 S
C439 C438 1.362 . S
H440 C446 0.930 . S
H441 C449 0.930 . S
H442 C450 0.930 . S
H443 C451 0.930 . S
H444 C454 0.930 . S
H445 C455 0.930 . S
C446 H440 0.930 . S
C446 C447 1.355 . S
C446 C448 1.415 . S
C447 C446 1.355 . S
C447 C449 1.419 . S
C448 C446 1.415 . S
C448 C453 1.425 . S
C448 C455 1.409 . S
C449 H441 0.930 . S
C449 C447 1.419 . S
C449 C450 1.362 . S
C450 H442 0.930 . S
C450 C449 1.362 . S
C450 C453 1.409 . S
C451 H443 0.930 . S
C451 C452 1.355 . S
C451 C453 1.415 . S
C452 C451 1.355 . S
C452 C454 1.419 . S
C453 C448 1.425 . S
C453 C450 1.409 . S
C453 C451 1.415 . S
C454 H444 0.930 . S
C454 C452 1.419 . S
C454 C455 1.362 . S
C455 H445 0.930 . S
C455 C448 1.409 . S
C455 C454 1.362 . S
H456 C462 0.930 . S
H457 C465 0.930 . S
H458 C466 0.930 . S
H459 C467 0.930 . S
H460 C470 0.930 . S
H461 C471 0.930 . S
C462 H456 0.930 . S
C462 C463 1.355 . S
C462 C464 1.415 . S
C463 C462 1.355 . S
C463 C465 1.419 . S
C464 C462 1.415 . S
C464 C469 1.425 1_455 S
C464 C471 1.409 1_455 S
C465 H457 0.930 . S
C465 C463 1.419 . S
C465 C466 1.362 . S
C466 H458 0.930 . S
C466 C465 1.362 . S
C466 C469 1.409 1_455 S
C467 H459 0.930 . S
C467 C468 1.355 . S
C467 C469 1.415 . S
C468 C467 1.355 . S
C468 C470 1.419 . S
C469 C464 1.425 1_655 S
C469 C466 1.409 1_655 S
C469 C467 1.415 . S
C470 H460 0.930 . S
C470 C468 1.419 . S
C470 C471 1.362 . S
C471 H461 0.930 . S
C471 C464 1.409 1_655 S
C471 C470 1.362 . S
H472 C478 0.930 . S
H473 C481 0.930 . S
H474 C482 0.930 1_565 S
H475 C483 0.930 . S
H476 C486 0.930 . S
H477 C487 0.930 1_545 S
C478 H472 0.930 . S
C478 C479 1.355 . S
C478 C480 1.415 . S
C479 C478 1.355 . S
C479 C481 1.419 . S
C480 C478 1.415 . S
C480 C485 1.425 1_545 S
C480 C487 1.409 1_545 S
C481 H473 0.930 . S
C481 C479 1.419 . S
C481 C482 1.362 . S
C482 H474 0.930 1_545 S
C482 C481 1.362 . S
C482 C485 1.409 1_545 S
C483 H475 0.930 . S
C483 C484 1.355 . S
C483 C485 1.415 . S
C484 C483 1.355 . S
C484 C486 1.419 . S
C485 C480 1.425 1_565 S
C485 C482 1.409 1_565 S
C485 C483 1.415 . S
C486 H476 0.930 . S
C486 C484 1.419 . S
C486 C487 1.362 . S
C487 H477 0.930 1_565 S
C487 C480 1.409 1_565 S
C487 C486 1.362 . S
H488 C494 0.930 . S
H489 C497 0.930 . S
H490 C498 0.930 . S
H491 C499 0.930 . S
H492 C502 0.930 . S
H493 C503 0.930 . S
C494 H488 0.930 . S
C494 C495 1.355 . S
C494 C496 1.415 . S
C495 C494 1.355 . S
C495 C497 1.419 . S
C496 C494 1.415 . S
C496 C501 1.425 . S
C496 C503 1.409 . S
C497 H489 0.930 . S
C497 C495 1.419 . S
C497 C498 1.362 . S
C498 H490 0.930 . S
C498 C497 1.362 . S
C498 C501 1.409 . S
C499 H491 0.930 . S
C499 C500 1.355 . S
C499 C501 1.415 . S
C500 C499 1.355 . S
C500 C502 1.419 . S
C501 C496 1.425 . S
C501 C498 1.409 . S
C501 C499 1.415 . S
C502 H492 0.930 . S
C502 C500 1.419 . S
C502 C503 1.362 . S
C503 H493 0.930 . S
C503 C496 1.409 . S
C503 C502 1.362 . S
H504 C510 0.930 . S
H505 C513 0.930 . S
H506 C514 0.930 . S
H507 C515 0.930 . S
H508 C518 0.930 . S
H509 C519 0.930 . S
C510 H504 0.930 . S
C510 C511 1.355 . S
C510 C512 1.415 . S
C511 C510 1.355 . S
C511 C513 1.419 . S
C512 C510 1.415 . S
C512 C517 1.425 . S
C512 C519 1.409 . S
C513 H505 0.930 . S
C513 C511 1.419 . S
C513 C514 1.362 . S
C514 H506 0.930 . S
C514 C513 1.362 . S
C514 C517 1.409 . S
C515 H507 0.930 . S
C515 C516 1.355 . S
C515 C517 1.415 . S
C516 C515 1.355 . S
C516 C518 1.419 . S
C517 C512 1.425 . S
C517 C514 1.409 . S
C517 C515 1.415 . S
C518 H508 0.930 . S
C518 C516 1.419 . S
C518 C519 1.362 . S
C519 H509 0.930 . S
C519 C512 1.409 . S
C519 C518 1.362 . S
H520 C526 0.930 . S
H521 C529 0.930 . S
H522 C530 0.930 . S
H523 C531 0.930 . S
H524 C534 0.930 . S
H525 C535 0.930 . S
C526 H520 0.930 . S
C526 C527 1.355 . S
C526 C528 1.415 . S
C527 C526 1.355 . S
C527 C529 1.419 . S
C528 C526 1.415 . S
C528 C533 1.425 . S
C528 C535 1.409 . S
C529 H521 0.930 . S
C529 C527 1.419 . S
C529 C530 1.362 . S
C530 H522 0.930 . S
C530 C529 1.362 . S
C530 C533 1.409 . S
C531 H523 0.930 . S
C531 C532 1.355 1_556 S
C531 C533 1.415 . S
C532 C531 1.355 1_554 S
C532 C534 1.419 . S
C533 C528 1.425 . S
C533 C530 1.409 . S
C533 C531 1.415 . S
C534 H524 0.930 . S
C534 C532 1.419 . S
C534 C535 1.362 1_554 S
C535 H525 0.930 . S
C535 C528 1.409 . S
C535 C534 1.362 1_556 S
H536 C542 0.930 . S
H537 C545 0.930 . S
H538 C546 0.930 . S
H539 C547 0.930 . S
H540 C550 0.930 . S
H541 C551 0.930 . S
C542 H536 0.930 . S
C542 C543 1.355 . S
C542 C544 1.415 . S
C543 C542 1.355 . S
C543 C545 1.419 . S
C544 C542 1.415 . S
C544 C549 1.425 . S
C544 C551 1.409 . S
C545 H537 0.930 . S
C545 C543 1.419 . S
C545 C546 1.362 . S
C546 H538 0.930 . S
C546 C545 1.362 . S
C546 C549 1.409 . S
C547 H539 0.930 . S
C547 C548 1.355 . S
C547 C549 1.415 . S
C548 C547 1.355 . S
C548 C550 1.419 . S
C549 C544 1.425 . S
C549 C546 1.409 . S
C549 C547 1.415 . S
C550 H540 0.930 . S
C550 C548 1.419 . S
C550 C551 1.362 . S
C551 H541 0.930 . S
C551 C544 1.409 . S
C551 C550 1.362 . S
H552 C558 0.930 . S
H553 C561 0.930 . S
H554 C562 0.930 . S
H555 C563 0.930 . S
H556 C566 0.930 . S
H557 C567 0.930 . S
C558 H552 0.930 . S
C558 C559 1.355 . S
C558 C560 1.415 . S
C559 C558 1.355 . S
C559 C561 1.419 . S
C560 C558 1.415 . S
C560 C565 1.425 . S
C560 C567 1.409 . S
C561 H553 0.930 . S
C561 C559 1.419 . S
C561 C562 1.362 . S
C562 H554 0.930 . S
C562 C561 1.362 . S
C562 C565 1.409 . S
C563 H555 0.930 . S
C563 C564 1.355 . S
C563 C565 1.415 . S
C564 C563 1.355 . S
C564 C566 1.419 . S
C565 C560 1.425 . S
C565 C562 1.409 . S
C565 C563 1.415 . S
C566 H556 0.930 . S
C566 C564 1.419 . S
C566 C567 1.362 . S
C567 H557 0.930 . S
C567 C560 1.409 . S
C567 C566 1.362 . S
H568 C574 0.930 1_554 S
H569 C577 0.938 . S
H570 C578 0.930 . S
H571 C579 0.930 . S
H572 C582 0.930 . S
H573 C583 0.930 . S
C574 H568 0.930 1_556 S
C574 C575 1.355 1_556 S
C574 C576 1.415 . S
C575 C574 1.355 1_554 S
C575 C577 1.425 . S
C576 C574 1.415 . S
C576 C581 1.425 . S
C576 C583 1.409 . S
C577 H569 0.938 . S
C577 C575 1.425 . S
C577 C578 1.349 1_554 S
C578 H570 0.930 . S
C578 C577 1.349 1_556 S
C578 C581 1.409 . S
C579 H571 0.930 . S
C579 C580 1.355 . S
C579 C581 1.415 . S
C580 C579 1.355 . S
C580 C582 1.419 . S
C581 C576 1.425 . S
C581 C578 1.409 . S
C581 C579 1.415 . S
C582 H572 0.930 . S
C582 C580 1.419 . S
C582 C583 1.362 . S
C583 H573 0.930 . S
C583 C576 1.409 . S
C583 C582 1.362 . S
H584 C590 0.930 . S
H585 C593 0.930 . S
H586 C594 0.930 . S
H587 C595 0.930 . S
H588 C598 0.930 . S
H589 C599 0.930 . S
C590 H584 0.930 . S
C590 C591 1.355 . S
C590 C592 1.415 . S
C591 C590 1.355 . S
C591 C593 1.419 . S
C592 C590 1.415 . S
C592 C597 1.425 . S
C592 C599 1.409 . S
C593 H585 0.930 . S
C593 C591 1.419 . S
C593 C594 1.362 . S
C594 H586 0.930 . S
C594 C593 1.362 . S
C594 C597 1.409 . S
C595 H587 0.930 . S
C595 C596 1.355 . S
C595 C597 1.415 . S
C596 C595 1.355 . S
C596 C598 1.419 . S
C597 C592 1.425 . S
C597 C594 1.409 . S
C597 C595 1.415 . S
C598 H588 0.930 . S
C598 C596 1.419 . S
C598 C599 1.362 . S
C599 H589 0.930 . S
C599 C592 1.409 . S
C599 C598 1.362 . S
H600 C606 0.930 1_556 S
H601 C609 0.930 . S
H602 C610 0.930 . S
H603 C611 0.930 . S
H604 C614 0.930 . S
H605 C615 0.930 . S
C606 H600 0.930 1_554 S
C606 C607 1.355 1_554 S
C606 C608 1.415 . S
C607 C606 1.355 1_556 S
C607 C609 1.419 . S
C608 C606 1.415 . S
C608 C613 1.425 . S
C608 C615 1.409 . S
C609 H601 0.930 . S
C609 C607 1.419 . S
C609 C610 1.362 1_556 S
C610 H602 0.930 . S
C610 C609 1.362 1_554 S
C610 C613 1.409 . S
C611 H603 0.930 . S
C611 C612 1.355 . S
C611 C613 1.415 . S
C612 C611 1.355 . S
C612 C614 1.419 . S
C613 C608 1.425 . S
C613 C610 1.409 . S
C613 C611 1.415 . S
C614 H604 0.930 . S
C614 C612 1.419 . S
C614 C615 1.362 . S
C615 H605 0.930 . S
C615 C608 1.409 . S
C615 C614 1.362 . S
H616 C622 0.930 . S
H617 C625 0.930 . S
H618 C626 0.930 . S
H619 C627 0.930 . S
H620 C630 0.930 . S
H621 C631 0.930 . S
C622 H616 0.930 . S
C622 C623 1.355 . S
C622 C624 1.415 . S
C623 C622 1.355 . S
C623 C625 1.419 . S
C624 C622 1.415 . S
C624 C629 1.425 . S
C624 C631 1.409 . S
C625 H617 0.930 . S
C625 C623 1.419 . S
C625 C626 1.362 . S
C626 H618 0.930 . S
C626 C625 1.362 . S
C626 C629 1.409 . S
C627 H619 0.930 . S
C627 C628 1.355 . S
C627 C629 1.415 . S
C628 C627 1.355 . S
C628 C630 1.419 . S
C629 C624 1.425 . S
C629 C626 1.409 . S
C629 C627 1.415 . S
C630 H620 0.930 . S
C630 C628 1.419 . S
C630 C631 1.362 . S
C631 H621 0.930 . S
C631 C624 1.409 . S
C631 C630 1.362 . S
H632 C638 0.930 . S
H633 C641 0.930 . S
H634 C642 0.930 . S
H635 C643 0.930 . S
H636 C646 0.930 . S
H637 C647 0.930 . S
C638 H632 0.930 . S
C638 C639 1.355 . S
C638 C640 1.415 . S
C639 C638 1.355 . S
C639 C641 1.419 . S
C640 C638 1.415 . S
C640 C645 1.425 . S
C640 C647 1.409 . S
C641 H633 0.930 . S
C641 C639 1.419 . S
C641 C642 1.362 . S
C642 H634 0.930 . S
C642 C641 1.362 . S
C642 C645 1.409 . S
C643 H635 0.930 . S
C643 C644 1.355 . S
C643 C645 1.415 . S
C644 C643 1.355 . S
C644 C646 1.419 . S
C645 C640 1.425 . S
C645 C642 1.409 . S
C645 C643 1.415 . S
C646 H636 0.930 . S
C646 C644 1.419 . S
C646 C647 1.362 . S
C647 H637 0.930 . S
C647 C640 1.409 . S
C647 C646 1.362 . S
H648 C654 0.930 . S
H649 C657 0.930 . S
H650 C658 0.930 . S
H651 C659 0.930 . S
H652 C662 0.930 . S
H653 C663 0.930 . S
C654 H648 0.930 . S
C654 C655 1.355 . S
C654 C656 1.415 . S
C655 C654 1.355 . S
C655 C657 1.419 . S
C656 C654 1.415 . S
C656 C661 1.425 . S
C656 C663 1.409 . S
C657 H649 0.930 . S
C657 C655 1.419 . S
C657 C658 1.362 . S
C658 H650 0.930 . S
C658 C657 1.362 . S
C658 C661 1.409 . S
C659 H651 0.930 . S
C659 C660 1.355 1_554 S
C659 C661 1.415 . S
C660 C659 1.355 1_556 S
C660 C662 1.419 . S
C661 C656 1.425 . S
C661 C658 1.409 . S
C661 C659 1.415 . S
C662 H652 0.930 . S
C662 C660 1.419 . S
C662 C663 1.362 1_556 S
C663 H653 0.930 . S
C663 C656 1.409 . S
C663 C662 1.362 1_554 S
H664 C670 0.930 . S
H665 C673 0.930 . S
H666 C674 0.930 . S
H667 C675 0.930 . S
H668 C678 0.930 . S
H669 C679 0.930 . S
C670 H664 0.930 . S
C670 C671 1.355 . S
C670 C672 1.415 . S
C671 C670 1.355 . S
C671 C673 1.419 . S
C672 C670 1.415 . S
C672 C677 1.425 . S
C672 C679 1.409 . S
C673 H665 0.930 . S
C673 C671 1.419 . S
C673 C674 1.362 . S
C674 H666 0.930 . S
C674 C673 1.362 . S
C674 C677 1.409 . S
C675 H667 0.930 . S
C675 C676 1.355 . S
C675 C677 1.415 . S
C676 C675 1.355 . S
C676 C678 1.419 . S
C677 C672 1.425 . S
C677 C674 1.409 . S
C677 C675 1.415 . S
C678 H668 0.930 . S
C678 C676 1.419 . S
C678 C679 1.362 . S
C679 H669 0.930 . S
C679 C672 1.409 . S
C679 C678 1.362 . S
H680 C686 0.930 . S
H681 C689 0.930 . S
H682 C690 0.930 . S
H683 C691 0.930 . S
H684 C694 0.930 . S
H685 C695 0.930 . S
C686 H680 0.930 . S
C686 C687 1.355 . S
C686 C688 1.415 . S
C687 C686 1.355 . S
C687 C689 1.419 . S
C688 C686 1.415 . S
C688 C693 1.425 . S
C688 C695 1.409 . S
C689 H681 0.930 . S
C689 C687 1.419 . S
C689 C690 1.362 . S
C690 H682 0.930 . S
C690 C689 1.362 . S
C690 C693 1.409 . S
C691 H683 0.930 . S
C691 C692 1.355 . S
C691 C693 1.415 . S
C692 C691 1.355 . S
C692 C694 1.419 . S
C693 C688 1.425 . S
C693 C690 1.409 . S
C693 C691 1.415 . S
C694 H684 0.930 . S
C694 C692 1.419 . S
C694 C695 1.362 . S
C695 H685 0.930 . S
C695 C688 1.409 . S
C695 C694 1.362 . S
H696 C702 0.930 . S
H697 C705 0.930 . S
H698 C706 0.930 . S
H699 C707 0.930 . S
H700 C710 0.930 . S
H701 C711 0.930 . S
C702 H696 0.930 . S
C702 C703 1.355 . S
C702 C704 1.415 . S
C703 C702 1.355 . S
C703 C705 1.419 . S
C704 C702 1.415 . S
C704 C709 1.425 . S
C704 C711 1.409 . S
C705 H697 0.930 . S
C705 C703 1.419 . S
C705 C706 1.362 . S
C706 H698 0.930 . S
C706 C705 1.362 . S
C706 C709 1.409 . S
C707 H699 0.930 . S
C707 C708 1.355 . S
C707 C709 1.415 . S
C708 C707 1.355 . S
C708 C710 1.419 . S
C709 C704 1.425 . S
C709 C706 1.409 . S
C709 C707 1.415 . S
C710 H700 0.930 . S
C710 C708 1.419 . S
C710 C711 1.362 . S
C711 H701 0.930 . S
C711 C704 1.409 . S
C711 C710 1.362 . S
H712 C718 0.930 . S
H713 C721 0.930 . S
H714 C722 0.930 . S
H715 C723 0.930 . S
H716 C726 0.930 . S
H717 C727 0.930 . S
C718 H712 0.930 . S
C718 C719 1.355 . S
C718 C720 1.415 . S
C719 C718 1.355 . S
C719 C721 1.419 . S
C720 C718 1.415 . S
C720 C725 1.425 . S
C720 C727 1.409 . S
C721 H713 0.930 . S
C721 C719 1.419 . S
C721 C722 1.362 . S
C722 H714 0.930 . S
C722 C721 1.362 . S
C722 C725 1.409 . S
C723 H715 0.930 . S
C723 C724 1.355 . S
C723 C725 1.415 . S
C724 C723 1.355 . S
C724 C726 1.419 . S
C725 C720 1.425 . S
C725 C722 1.409 . S
C725 C723 1.415 . S
C726 H716 0.930 . S
C726 C724 1.419 . S
C726 C727 1.362 . S
C727 H717 0.930 . S
C727 C720 1.409 . S
C727 C726 1.362 . S
H728 C734 0.930 . S
H729 C737 0.930 . S
H730 C738 0.930 . S
H731 C739 0.930 . S
H732 C742 0.930 . S
H733 C743 0.930 . S
C734 H728 0.930 . S
C734 C735 1.355 . S
C734 C736 1.415 . S
C735 C734 1.355 . S
C735 C737 1.419 . S
C736 C734 1.415 . S
C736 C741 1.425 . S
C736 C743 1.409 . S
C737 H729 0.930 . S
C737 C735 1.419 . S
C737 C738 1.362 . S
C738 H730 0.930 . S
C738 C737 1.362 . S
C738 C741 1.409 . S
C739 H731 0.930 . S
C739 C740 1.355 . S
C739 C741 1.415 . S
C740 C739 1.355 . S
C740 C742 1.419 . S
C741 C736 1.425 . S
C741 C738 1.409 . S
C741 C739 1.415 . S
C742 H732 0.930 . S
C742 C740 1.419 . S
C742 C743 1.362 . S
C743 H733 0.930 . S
C743 C736 1.409 . S
C743 C742 1.362 . S
H744 C750 0.930 . S
H745 C753 0.930 . S
H746 C754 0.930 . S
H747 C755 0.930 . S
H748 C758 0.930 . S
H749 C759 0.930 . S
C750 H744 0.930 . S
C750 C751 1.355 . S
C750 C752 1.415 . S
C751 C750 1.355 . S
C751 C753 1.419 . S
C752 C750 1.415 . S
C752 C757 1.425 . S
C752 C759 1.409 . S
C753 H745 0.930 . S
C753 C751 1.419 . S
C753 C754 1.362 . S
C754 H746 0.930 . S
C754 C753 1.362 . S
C754 C757 1.409 . S
C755 H747 0.930 . S
C755 C756 1.355 . S
C755 C757 1.415 . S
C756 C755 1.355 . S
C756 C758 1.419 . S
C757 C752 1.425 . S
C757 C754 1.409 . S
C757 C755 1.415 . S
C758 H748 0.930 . S
C758 C756 1.419 . S
C758 C759 1.362 . S
C759 H749 0.930 . S
C759 C752 1.409 . S
C759 C758 1.362 . S
H760 C766 0.930 . S
H761 C769 0.930 . S
H762 C770 0.930 . S
H763 C771 0.930 . S
H764 C774 0.930 . S
H765 C775 0.930 . S
C766 H760 0.930 . S
C766 C767 1.355 . S
C766 C768 1.415 . S
C767 C766 1.355 . S
C767 C769 1.419 . S
C768 C766 1.415 . S
C768 C773 1.425 . S
C768 C775 1.409 . S
C769 H761 0.930 . S
C769 C767 1.419 . S
C769 C770 1.362 . S
C770 H762 0.930 . S
C770 C769 1.362 . S
C770 C773 1.409 . S
C771 H763 0.930 . S
C771 C772 1.355 . S
C771 C773 1.415 . S
C772 C771 1.355 . S
C772 C774 1.419 . S
C773 C768 1.425 . S
C773 C770 1.409 . S
C773 C771 1.415 . S
C774 H764 0.930 . S
C774 C772 1.419 . S
C774 C775 1.362 . S
C775 H765 0.930 . S
C775 C768 1.409 . S
C775 C774 1.362 . S
H776 C782 0.930 . S
H777 C785 0.930 . S
H778 C786 0.930 . S
H779 C787 0.930 . S
H780 C790 0.930 . S
H781 C791 0.930 . S
C782 H776 0.930 . S
C782 C783 1.355 . S
C782 C784 1.415 . S
C783 C782 1.355 . S
C783 C785 1.419 . S
C784 C782 1.415 . S
C784 C789 1.425 . S
C784 C791 1.409 . S
C785 H777 0.930 . S
C785 C783 1.419 . S
C785 C786 1.362 . S
C786 H778 0.930 . S
C786 C785 1.362 . S
C786 C789 1.409 . S
C787 H779 0.930 . S
C787 C788 1.355 . S
C787 C789 1.415 . S
C788 C787 1.355 . S
C788 C790 1.419 . S
C789 C784 1.425 . S
C789 C786 1.409 . S
C789 C787 1.415 . S
C790 H780 0.930 . S
C790 C788 1.419 . S
C790 C791 1.362 . S
C791 H781 0.930 . S
C791 C784 1.409 . S
C791 C790 1.362 . S
H792 C798 0.930 . S
H793 C801 0.930 . S
H794 C802 0.930 . S
H795 C803 0.930 . S
H796 C806 0.930 . S
H797 C807 0.930 . S
C798 H792 0.930 . S
C798 C799 1.355 . S
C798 C800 1.415 . S
C799 C798 1.355 . S
C799 C801 1.419 . S
C800 C798 1.415 . S
C800 C805 1.425 1_556 S
C800 C807 1.409 . S
C801 H793 0.930 . S
C801 C799 1.419 . S
C801 C802 1.362 1_556 S
C802 H794 0.930 . S
C802 C801 1.362 1_554 S
C802 C805 1.409 . S
C803 H795 0.930 . S
C803 C804 1.355 . S
C803 C805 1.415 . S
C804 C803 1.355 . S
C804 C806 1.419 . S
C805 C800 1.425 1_554 S
C805 C802 1.409 . S
C805 C803 1.415 . S
C806 H796 0.930 . S
C806 C804 1.419 . S
C806 C807 1.362 1_554 S
C807 H797 0.930 . S
C807 C800 1.409 . S
C807 C806 1.362 1_556 S
H808 C814 0.930 . S
H809 C817 0.930 . S
H810 C818 0.930 . S
H811 C819 0.930 . S
H812 C822 0.930 . S
H813 C823 0.930 . S
C814 H808 0.930 . S
C814 C815 1.355 . S
C814 C816 1.415 . S
C815 C814 1.355 . S
C815 C817 1.419 . S
C816 C814 1.415 . S
C816 C821 1.425 . S
C816 C823 1.409 . S
C817 H809 0.930 . S
C817 C815 1.419 . S
C817 C818 1.362 . S
C818 H810 0.930 . S
C818 C817 1.362 . S
C818 C821 1.409 . S
C819 H811 0.930 . S
C819 C820 1.355 . S
C819 C821 1.415 . S
C820 C819 1.355 . S
C820 C822 1.419 . S
C821 C816 1.425 . S
C821 C818 1.409 . S
C821 C819 1.415 . S
C822 H812 0.930 . S
C822 C820 1.419 . S
C822 C823 1.362 . S
C823 H813 0.930 . S
C823 C816 1.409 . S
C823 C822 1.362 . S
H824 C830 0.930 . S
H825 C833 0.930 . S
H826 C834 0.930 . S
H827 C835 0.930 . S
H828 C838 0.930 . S
H829 C839 0.930 . S
C830 H824 0.930 . S
C830 C831 1.355 . S
C830 C832 1.415 . S
C831 C830 1.355 . S
C831 C833 1.419 . S
C832 C830 1.415 . S
C832 C837 1.425 . S
C832 C839 1.409 . S
C833 H825 0.930 . S
C833 C831 1.419 . S
C833 C834 1.362 . S
C834 H826 0.930 . S
C834 C833 1.362 . S
C834 C837 1.409 . S
C835 H827 0.930 . S
C835 C836 1.355 . S
C835 C837 1.415 . S
C836 C835 1.355 . S
C836 C838 1.419 . S
C837 C832 1.425 . S
C837 C834 1.409 . S
C837 C835 1.415 . S
C838 H828 0.930 . S
C838 C836 1.419 . S
C838 C839 1.362 . S
C839 H829 0.930 . S
C839 C832 1.409 . S
C839 C838 1.362 . S
H840 C846 0.930 . S
H841 C849 0.930 . S
H842 C850 0.930 . S
H843 C851 0.930 . S
H844 C854 0.930 . S
H845 C855 0.930 . S
C846 H840 0.930 . S
C846 C847 1.355 . S
C846 C848 1.415 . S
C847 C846 1.355 . S
C847 C849 1.419 . S
C848 C846 1.415 . S
C848 C853 1.425 1_554 S
C848 C855 1.409 . S
C849 H841 0.930 . S
C849 C847 1.419 . S
C849 C850 1.362 1_554 S
C850 H842 0.930 . S
C850 C849 1.362 1_556 S
C850 C853 1.409 . S
C851 H843 0.930 . S
C851 C852 1.355 . S
C851 C853 1.415 . S
C852 C851 1.355 . S
C852 C854 1.419 . S
C853 C848 1.425 1_556 S
C853 C850 1.409 . S
C853 C851 1.415 . S
C854 H844 0.930 . S
C854 C852 1.419 . S
C854 C855 1.362 1_556 S
C855 H845 0.930 . S
C855 C848 1.409 . S
C855 C854 1.362 1_554 S
H856 C862 0.930 . S
H857 C865 0.930 . S
H858 C866 0.930 . S
H859 C867 0.930 . S
H860 C870 0.930 . S
H861 C871 0.930 . S
C862 H856 0.930 . S
C862 C863 1.355 . S
C862 C864 1.415 . S
C863 C862 1.355 . S
C863 C865 1.419 . S
C864 C862 1.415 . S
C864 C869 1.425 . S
C864 C871 1.409 . S
C865 H857 0.930 . S
C865 C863 1.419 . S
C865 C866 1.362 . S
C866 H858 0.930 . S
C866 C865 1.362 . S
C866 C869 1.409 . S
C867 H859 0.930 . S
C867 C868 1.355 . S
C867 C869 1.415 . S
C868 C867 1.355 . S
C868 C870 1.419 . S
C869 C864 1.425 . S
C869 C866 1.409 . S
C869 C867 1.415 . S
C870 H860 0.930 . S
C870 C868 1.419 . S
C870 C871 1.362 . S
C871 H861 0.930 . S
C871 C864 1.409 . S
C871 C870 1.362 . S
H872 C878 0.930 . S
H873 C881 0.930 . S
H874 C882 0.930 . S
H875 C883 0.930 . S
H876 C886 0.930 . S
H877 C887 0.930 . S
C878 H872 0.930 . S
C878 C879 1.355 . S
C878 C880 1.415 . S
C879 C878 1.355 . S
C879 C881 1.419 . S
C880 C878 1.415 . S
C880 C885 1.425 . S
C880 C887 1.409 . S
C881 H873 0.930 . S
C881 C879 1.419 . S
C881 C882 1.362 . S
C882 H874 0.930 . S
C882 C881 1.362 . S
C882 C885 1.409 . S
C883 H875 0.930 . S
C883 C884 1.355 . S
C883 C885 1.415 . S
C884 C883 1.355 . S
C884 C886 1.419 . S
C885 C880 1.425 . S
C885 C882 1.409 . S
C885 C883 1.415 . S
C886 H876 0.930 . S
C886 C884 1.419 . S
C886 C887 1.362 . S
C887 H877 0.930 . S
C887 C880 1.409 . S
C887 C886 1.362 . S
C415 C2 1.487 . S
C420 C376 1.489 . S
C431 C36 1.458 . S
C436 C206 1.470 . S
C447 C240 1.460 . S
C452 C70 1.451 . S
C463 C274 1.476 . S
C468 C104 1.464 . S
C479 C308 1.488 . S
C484 C138 1.489 . S
C495 C342 1.453 . S
C500 C172 1.464 . S
C511 C9 1.318 . S
C516 C5 1.391 . S
C527 C39 1.348 . S
C532 C43 1.269 . S
C543 C77 1.255 . S
C548 C73 1.347 . S
C559 C111 1.348 . S
C564 C107 1.389 . S
C575 C145 1.335 . S
C580 C141 1.393 . S
C591 C175 1.380 . S
C596 C179 1.281 . S
C607 C213 1.243 . S
C612 C209 1.353 . S
C623 C243 1.386 . S
C628 C247 1.299 . S
C639 C281 1.284 . S
C644 C277 1.381 . S
C655 C311 1.351 . S
C660 C315 1.280 . S
C671 C345 1.393 . S
C676 C349 1.328 . S
C687 C383 1.252 . S
C692 C379 1.347 . S
C703 C33 1.458 . S
C708 C305 1.470 . S
C719 C67 1.461 . S
C724 C339 1.464 . S
C735 C101 1.472 . S
C740 C373 1.461 . S
C751 C407 1.467 . S
C756 C135 1.468 . S
C767 C237 1.461 . S
C772 C169 1.471 . S
C783 C271 1.464 . S
C788 C203 1.470 . S
C799 C360 1.509 . S
C804 C20 1.501 . S
C815 C394 1.491 . S
C820 C54 1.492 . S
C831 C224 1.506 . S
C836 C88 1.513 . S
C847 C122 1.493 . S
C852 C258 1.500 . S
C863 C156 1.491 . S
C868 C292 1.495 . S
C879 C190 1.518 . S
C884 C326 1.517 . S
