# Generated by pormake.
# Topology umr, (4)-cn, num edge types: 1
# Building blocks:
#     Node 0, Type 0, BuildingBlock: AZAVOO_clean_sbu_0, # of connection points: 4
#     Node 1, Type 0, BuildingBlock: AZAVOO_clean_sbu_0, # of connection points: 4
#     Node 2, Type 0, BuildingBlock: AZAVOO_clean_sbu_0, # of connection points: 4
#     Node 3, Type 0, BuildingBlock: AZAVOO_clean_sbu_0, # of connection points: 4
#     Node 4, Type 0, BuildingBlock: AZAVOO_clean_sbu_0, # of connection points: 4
#     Node 5, Type 0, BuildingBlock: AZAVOO_clean_sbu_0, # of connection points: 4
#     Node 6, Type 0, BuildingBlock: AZAVOO_clean_sbu_0, # of connection points: 4
#     Node 7, Type 0, BuildingBlock: AZAVOO_clean_sbu_0, # of connection points: 4
#     Node 8, Type 0, BuildingBlock: AZAVOO_clean_sbu_0, # of connection points: 4
#     Node 9, Type 0, BuildingBlock: AZAVOO_clean_sbu_0, # of connection points: 4
#     Node 10, Type 0, BuildingBlock: AZAVOO_clean_sbu_0, # of connection points: 4
#     Node 11, Type 0, BuildingBlock: AZAVOO_clean_sbu_0, # of connection points: 4
#     Node 12, Type 0, BuildingBlock: AZAVOO_clean_sbu_0, # of connection points: 4
#     Node 13, Type 0, BuildingBlock: AZAVOO_clean_sbu_0, # of connection points: 4
#     Node 14, Type 0, BuildingBlock: AZAVOO_clean_sbu_0, # of connection points: 4
#     Node 15, Type 0, BuildingBlock: AZAVOO_clean_sbu_0, # of connection points: 4
#     Node 16, Type 0, BuildingBlock: AZAVOO_clean_sbu_0, # of connection points: 4
#     Node 17, Type 0, BuildingBlock: AZAVOO_clean_sbu_0, # of connection points: 4
#     Node 18, Type 0, BuildingBlock: AZAVOO_clean_sbu_0, # of connection points: 4
#     Node 19, Type 0, BuildingBlock: AZAVOO_clean_sbu_0, # of connection points: 4
#     Node 20, Type 0, BuildingBlock: AZAVOO_clean_sbu_0, # of connection points: 4
#     Node 21, Type 0, BuildingBlock: AZAVOO_clean_sbu_0, # of connection points: 4
#     Node 22, Type 0, BuildingBlock: AZAVOO_clean_sbu_0, # of connection points: 4
#     Node 23, Type 0, BuildingBlock: AZAVOO_clean_sbu_0, # of connection points: 4
#     Node 24, Type 0, BuildingBlock: AZAVOO_clean_sbu_0, # of connection points: 4
#     Node 25, Type 0, BuildingBlock: AZAVOO_clean_sbu_0, # of connection points: 4
#     Node 26, Type 0, BuildingBlock: AZAVOO_clean_sbu_0, # of connection points: 4
#     Node 27, Type 0, BuildingBlock: AZAVOO_clean_sbu_0, # of connection points: 4
#     Node 28, Type 0, BuildingBlock: AZAVOO_clean_sbu_0, # of connection points: 4
#     Node 29, Type 0, BuildingBlock: AZAVOO_clean_sbu_0, # of connection points: 4
#     Node 30, Type 0, BuildingBlock: AZAVOO_clean_sbu_0, # of connection points: 4
#     Node 31, Type 0, BuildingBlock: AZAVOO_clean_sbu_0, # of connection points: 4
#     Edge 32, Type (0, 0), BuildingBlock: UVAHIK_clean_linker_0, # of connection points: 2
#     Edge 33, Type (0, 0), BuildingBlock: UVAHIK_clean_linker_0, # of connection points: 2
#     Edge 34, Type (0, 0), BuildingBlock: UVAHIK_clean_linker_0, # of connection points: 2
#     Edge 35, Type (0, 0), BuildingBlock: UVAHIK_clean_linker_0, # of connection points: 2
#     Edge 36, Type (0, 0), BuildingBlock: UVAHIK_clean_linker_0, # of connection points: 2
#     Edge 37, Type (0, 0), BuildingBlock: UVAHIK_clean_linker_0, # of connection points: 2
#     Edge 38, Type (0, 0), BuildingBlock: UVAHIK_clean_linker_0, # of connection points: 2
#     Edge 39, Type (0, 0), BuildingBlock: UVAHIK_clean_linker_0, # of connection points: 2
#     Edge 40, Type (0, 0), BuildingBlock: UVAHIK_clean_linker_0, # of connection points: 2
#     Edge 41, Type (0, 0), BuildingBlock: UVAHIK_clean_linker_0, # of connection points: 2
#     Edge 42, Type (0, 0), BuildingBlock: UVAHIK_clean_linker_0, # of connection points: 2
#     Edge 43, Type (0, 0), BuildingBlock: UVAHIK_clean_linker_0, # of connection points: 2
#     Edge 44, Type (0, 0), BuildingBlock: UVAHIK_clean_linker_0, # of connection points: 2
#     Edge 45, Type (0, 0), BuildingBlock: UVAHIK_clean_linker_0, # of connection points: 2
#     Edge 46, Type (0, 0), BuildingBlock: UVAHIK_clean_linker_0, # of connection points: 2
#     Edge 47, Type (0, 0), BuildingBlock: UVAHIK_clean_linker_0, # of connection points: 2
#     Edge 48, Type (0, 0), BuildingBlock: UVAHIK_clean_linker_0, # of connection points: 2
#     Edge 49, Type (0, 0), BuildingBlock: UVAHIK_clean_linker_0, # of connection points: 2
#     Edge 50, Type (0, 0), BuildingBlock: UVAHIK_clean_linker_0, # of connection points: 2
#     Edge 51, Type (0, 0), BuildingBlock: UVAHIK_clean_linker_0, # of connection points: 2
#     Edge 52, Type (0, 0), BuildingBlock: UVAHIK_clean_linker_0, # of connection points: 2
#     Edge 53, Type (0, 0), BuildingBlock: UVAHIK_clean_linker_0, # of connection points: 2
#     Edge 54, Type (0, 0), BuildingBlock: UVAHIK_clean_linker_0, # of connection points: 2
#     Edge 55, Type (0, 0), BuildingBlock: UVAHIK_clean_linker_0, # of connection points: 2
#     Edge 56, Type (0, 0), BuildingBlock: UVAHIK_clean_linker_0, # of connection points: 2
#     Edge 57, Type (0, 0), BuildingBlock: UVAHIK_clean_linker_0, # of connection points: 2
#     Edge 58, Type (0, 0), BuildingBlock: UVAHIK_clean_linker_0, # of connection points: 2
#     Edge 59, Type (0, 0), BuildingBlock: UVAHIK_clean_linker_0, # of connection points: 2
#     Edge 60, Type (0, 0), BuildingBlock: UVAHIK_clean_linker_0, # of connection points: 2
#     Edge 61, Type (0, 0), BuildingBlock: UVAHIK_clean_linker_0, # of connection points: 2
#     Edge 62, Type (0, 0), BuildingBlock: UVAHIK_clean_linker_0, # of connection points: 2
#     Edge 63, Type (0, 0), BuildingBlock: UVAHIK_clean_linker_0, # of connection points: 2
#     Edge 64, Type (0, 0), BuildingBlock: UVAHIK_clean_linker_0, # of connection points: 2
#     Edge 65, Type (0, 0), BuildingBlock: UVAHIK_clean_linker_0, # of connection points: 2
#     Edge 66, Type (0, 0), BuildingBlock: UVAHIK_clean_linker_0, # of connection points: 2
#     Edge 67, Type (0, 0), BuildingBlock: UVAHIK_clean_linker_0, # of connection points: 2
#     Edge 68, Type (0, 0), BuildingBlock: UVAHIK_clean_linker_0, # of connection points: 2
#     Edge 69, Type (0, 0), BuildingBlock: UVAHIK_clean_linker_0, # of connection points: 2
#     Edge 70, Type (0, 0), BuildingBlock: UVAHIK_clean_linker_0, # of connection points: 2
#     Edge 71, Type (0, 0), BuildingBlock: UVAHIK_clean_linker_0, # of connection points: 2
#     Edge 72, Type (0, 0), BuildingBlock: UVAHIK_clean_linker_0, # of connection points: 2
#     Edge 73, Type (0, 0), BuildingBlock: UVAHIK_clean_linker_0, # of connection points: 2
#     Edge 74, Type (0, 0), BuildingBlock: UVAHIK_clean_linker_0, # of connection points: 2
#     Edge 75, Type (0, 0), BuildingBlock: UVAHIK_clean_linker_0, # of connection points: 2
#     Edge 76, Type (0, 0), BuildingBlock: UVAHIK_clean_linker_0, # of connection points: 2
#     Edge 77, Type (0, 0), BuildingBlock: UVAHIK_clean_linker_0, # of connection points: 2
#     Edge 78, Type (0, 0), BuildingBlock: UVAHIK_clean_linker_0, # of connection points: 2
#     Edge 79, Type (0, 0), BuildingBlock: UVAHIK_clean_linker_0, # of connection points: 2
#     Edge 80, Type (0, 0), BuildingBlock: UVAHIK_clean_linker_0, # of connection points: 2
#     Edge 81, Type (0, 0), BuildingBlock: UVAHIK_clean_linker_0, # of connection points: 2
#     Edge 82, Type (0, 0), BuildingBlock: UVAHIK_clean_linker_0, # of connection points: 2
#     Edge 83, Type (0, 0), BuildingBlock: UVAHIK_clean_linker_0, # of connection points: 2
#     Edge 84, Type (0, 0), BuildingBlock: UVAHIK_clean_linker_0, # of connection points: 2
#     Edge 85, Type (0, 0), BuildingBlock: UVAHIK_clean_linker_0, # of connection points: 2
#     Edge 86, Type (0, 0), BuildingBlock: UVAHIK_clean_linker_0, # of connection points: 2
#     Edge 87, Type (0, 0), BuildingBlock: UVAHIK_clean_linker_0, # of connection points: 2
#     Edge 88, Type (0, 0), BuildingBlock: UVAHIK_clean_linker_0, # of connection points: 2
#     Edge 89, Type (0, 0), BuildingBlock: UVAHIK_clean_linker_0, # of connection points: 2
#     Edge 90, Type (0, 0), BuildingBlock: UVAHIK_clean_linker_0, # of connection points: 2
#     Edge 91, Type (0, 0), BuildingBlock: UVAHIK_clean_linker_0, # of connection points: 2
#     Edge 92, Type (0, 0), BuildingBlock: UVAHIK_clean_linker_0, # of connection points: 2
#     Edge 93, Type (0, 0), BuildingBlock: UVAHIK_clean_linker_0, # of connection points: 2
#     Edge 94, Type (0, 0), BuildingBlock: UVAHIK_clean_linker_0, # of connection points: 2
#     Edge 95, Type (0, 0), BuildingBlock: UVAHIK_clean_linker_0, # of connection points: 2
# Relax obj value: 0.172
# Max RMSD: 0.152
# Mean RMSD: 0.152
data_MOF--net-umr--node1-AZAVOO_clean_sbu_0--edge1-UVAHIK_clean_linker_0
_symmetry_space_group_name_H-M    P1
_symmetry_Int_Tables_number       1
_symmetry_cell_setting            triclinic
loop_
_symmetry_equiv_pos_as_xyz
'x, y, z'
_cell_length_a     108.16102
_cell_length_b     108.2143
_cell_length_c     32.254559
_cell_angle_alpha  90.001737
_cell_angle_beta   89.989427
_cell_angle_gamma 90.002969
loop_
_atom_site_label
_atom_site_type_symbol
_atom_site_fract_x
_atom_site_fract_y
_atom_site_fract_z
_atom_type_partial_charge
Mg0 Mg 0.15954 0.29668 0.07932 0.0
O1 O 0.18047 0.29729 0.07624 0.0
O2 O 0.18836 0.30157 0.13837 0.0
Mg3 Mg 0.17171 0.30338 0.18245 0.0
C4 C 0.1897 0.29923 0.09983 0.0
C5 C 0.15049 0.29095 0.99118 0.0
O6 O 0.14111 0.28709 0.01362 0.0
O7 O 0.15888 0.31766 0.08307 0.0
O8 O 0.16502 0.32093 0.14843 0.0
O9 O 0.16014 0.27673 0.09557 0.0
O10 O 0.16002 0.29185 0.14175 0.0
C11 C 0.16096 0.32489 0.11362 0.0
C12 C 0.16052 0.28018 0.13398 0.0
O13 O 0.15939 0.29642 0.00914 0.0
Mg14 Mg 0.9499 0.9094 0.33143 0.0
O15 O 0.95 0.93019 0.319 0.0
O16 O 0.94702 0.94 0.37909 0.0
Mg17 Mg 0.94539 0.92539 0.43008 0.0
C18 C 0.94877 0.94012 0.33994 0.0
C19 C 0.95549 0.89719 0.24967 0.0
O20 O 0.96107 0.89025 0.27739 0.0
O21 O 0.92906 0.90978 0.33959 0.0
O22 O 0.92705 0.9183 0.40234 0.0
O23 O 0.97015 0.90958 0.34211 0.0
O24 O 0.95628 0.91252 0.39155 0.0
C25 C 0.92239 0.91323 0.37014 0.0
C26 C 0.96774 0.91222 0.38038 0.0
O27 O 0.94867 0.90597 0.26225 0.0
Mg28 Mg 0.34171 0.70138 0.57917 0.0
O29 O 0.32073 0.70235 0.57637 0.0
O30 O 0.31261 0.69887 0.63877 0.0
Mg31 Mg 0.32907 0.69577 0.68244 0.0
C32 C 0.31141 0.70119 0.6002 0.0
C33 C 0.35062 0.70554 0.48868 0.0
O34 O 0.36048 0.70927 0.50887 0.0
O35 O 0.34079 0.68053 0.58384 0.0
O36 O 0.33388 0.67755 0.64845 0.0
O37 O 0.34268 0.72134 0.59434 0.0
O38 O 0.34153 0.70649 0.64138 0.0
C39 C 0.33778 0.67339 0.61369 0.0
C40 C 0.34189 0.71814 0.63294 0.0
O41 O 0.34164 0.70102 0.50898 0.0
Mg42 Mg 0.54501 0.08957 0.82366 0.0
O43 O 0.54575 0.06865 0.82735 0.0
O44 O 0.54948 0.0618 0.89114 0.0
Mg45 Mg 0.55188 0.07954 0.92958 0.0
C46 C 0.54732 0.05982 0.85284 0.0
C47 C 0.53623 0.08058 0.74015 0.0
O48 O 0.529 0.07516 0.76738 0.0
O49 O 0.56595 0.09024 0.82684 0.0
O50 O 0.56948 0.08454 0.89251 0.0
O51 O 0.52513 0.08943 0.84065 0.0
O52 O 0.54035 0.09058 0.88638 0.0
C53 C 0.57333 0.08807 0.8569 0.0
C54 C 0.52866 0.0899 0.87895 0.0
O55 O 0.54466 0.0878 0.75315 0.0
Mg56 Mg 0.16086 0.70223 0.42105 0.0
O57 O 0.18178 0.70244 0.42888 0.0
O58 O 0.19083 0.69874 0.36801 0.0
Mg59 Mg 0.17521 0.69638 0.32055 0.0
C60 C 0.19144 0.70097 0.40681 0.0
C61 C 0.14889 0.70337 0.50883 0.0
O62 O 0.13886 0.70438 0.48607 0.0
O63 O 0.16108 0.6814 0.41573 0.0
O64 O 0.16889 0.67826 0.35242 0.0
O65 O 0.16086 0.72224 0.40693 0.0
O66 O 0.16256 0.70762 0.35928 0.0
C67 C 0.16421 0.6742 0.38622 0.0
C68 C 0.16241 0.71923 0.36841 0.0
O69 O 0.1592 0.70164 0.491 0.0
Mg70 Mg 0.54733 0.90915 0.6694 0.0
O71 O 0.5472 0.9299 0.68189 0.0
O72 O 0.55101 0.93982 0.6226 0.0
Mg73 Mg 0.55349 0.92517 0.57201 0.0
C74 C 0.54873 0.93987 0.66144 0.0
C75 C 0.54042 0.89715 0.75062 0.0
O76 O 0.53489 0.89037 0.72236 0.0
O77 O 0.56819 0.90937 0.6649 0.0
O78 O 0.57149 0.91827 0.60331 0.0
O79 O 0.52736 0.90956 0.65479 0.0
O80 O 0.54209 0.91202 0.60793 0.0
C81 C 0.57547 0.91302 0.63625 0.0
C82 C 0.53045 0.91179 0.61674 0.0
O83 O 0.54751 0.90581 0.73875 0.0
Mg84 Mg 0.3401 0.29612 0.91818 0.0
O85 O 0.31918 0.29638 0.92614 0.0
O86 O 0.31014 0.29999 0.86523 0.0
Mg87 Mg 0.32576 0.3018 0.81752 0.0
C88 C 0.30952 0.29797 0.90416 0.0
C89 C 0.35119 0.29308 0.0068 0.0
O90 O 0.36068 0.28928 0.98478 0.0
O91 O 0.34025 0.31693 0.91174 0.0
O92 O 0.33237 0.31995 0.84846 0.0
O93 O 0.33971 0.27603 0.90487 0.0
O94 O 0.33826 0.29051 0.85668 0.0
C95 C 0.33716 0.32407 0.882 0.0
C96 C 0.3382 0.27893 0.86624 0.0
O97 O 0.34168 0.29711 0.98815 0.0
Mg98 Mg 0.95234 0.08987 0.16622 0.0
O99 O 0.95286 0.06885 0.16883 0.0
O100 O 0.94961 0.06097 0.1059 0.0
Mg101 Mg 0.94726 0.0775 0.06221 0.0
C102 C 0.95165 0.05962 0.14461 0.0
C103 C 0.95544 0.09906 0.25683 0.0
O104 O 0.95899 0.10899 0.23662 0.0
O105 O 0.93151 0.08938 0.15959 0.0
O106 O 0.92889 0.08271 0.09455 0.0
O107 O 0.97243 0.09051 0.15325 0.0
O108 O 0.95806 0.08951 0.10453 0.0
C109 C 0.92454 0.08662 0.12903 0.0
C110 C 0.96963 0.08964 0.11433 0.0
O111 O 0.95139 0.08988 0.23644 0.0
Mg112 Mg 0.84062 0.7023 0.92217 0.0
O113 O 0.8197 0.70247 0.92966 0.0
O114 O 0.81067 0.69906 0.8686 0.0
Mg115 Mg 0.82634 0.69687 0.82127 0.0
C116 C 0.81004 0.70111 0.90751 0.0
C117 C 0.85155 0.70503 0.01127 0.0
O118 O 0.86123 0.7086 0.98974 0.0
O119 O 0.84038 0.6815 0.91581 0.0
O120 O 0.8325 0.67859 0.85248 0.0
O121 O 0.8406 0.72239 0.90889 0.0
O122 O 0.83898 0.70794 0.86064 0.0
C123 C 0.83716 0.6744 0.88611 0.0
C124 C 0.83906 0.71952 0.87025 0.0
O125 O 0.84201 0.70127 0.99215 0.0
Mg126 Mg 0.04566 0.08945 0.66689 0.0
O127 O 0.04542 0.0686 0.67581 0.0
O128 O 0.04864 0.05919 0.61528 0.0
Mg129 Mg 0.05069 0.07456 0.56678 0.0
C130 C 0.04671 0.05881 0.6543 0.0
C131 C 0.04248 0.10057 0.75526 0.0
O132 O 0.03843 0.10993 0.73313 0.0
O133 O 0.06646 0.08905 0.65983 0.0
O134 O 0.06909 0.08083 0.59684 0.0
O135 O 0.02552 0.08948 0.65423 0.0
O136 O 0.03983 0.08751 0.60565 0.0
C137 C 0.07344 0.08565 0.63001 0.0
C138 C 0.02828 0.08774 0.6156 0.0
O139 O 0.04682 0.09118 0.73673 0.0
Mg140 Mg 0.65879 0.29746 0.41734 0.0
O141 O 0.67978 0.29669 0.42112 0.0
O142 O 0.68805 0.30009 0.35885 0.0
Mg143 Mg 0.67175 0.30288 0.31439 0.0
C144 C 0.68916 0.29787 0.39753 0.0
C145 C 0.64936 0.29381 0.50747 0.0
O146 O 0.63953 0.29019 0.48686 0.0
O147 O 0.65953 0.31829 0.41186 0.0
O148 O 0.66658 0.32117 0.3474 0.0
O149 O 0.65801 0.27746 0.40339 0.0
O150 O 0.65936 0.29202 0.35538 0.0
C151 C 0.66253 0.32538 0.38189 0.0
C152 C 0.65908 0.28042 0.36465 0.0
O153 O 0.65851 0.29811 0.48751 0.0
Mg154 Mg 0.45188 0.90757 0.16873 0.0
O155 O 0.45157 0.92853 0.16851 0.0
O156 O 0.44769 0.9358 0.10523 0.0
Mg157 Mg 0.44535 0.91863 0.06409 0.0
C158 C 0.44994 0.93752 0.14363 0.0
C159 C 0.4562 0.89948 0.25967 0.0
O160 O 0.45936 0.88931 0.2401 0.0
O161 O 0.43095 0.9072 0.16487 0.0
O162 O 0.42753 0.91338 0.09965 0.0
O163 O 0.47181 0.9077 0.15266 0.0
O164 O 0.45671 0.90715 0.10634 0.0
C165 C 0.42362 0.90961 0.1349 0.0
C166 C 0.46838 0.90763 0.1142 0.0
O167 O 0.4519 0.90847 0.23889 0.0
Mg168 Mg 0.839 0.2973 0.58638 0.0
O169 O 0.81817 0.2972 0.57518 0.0
O170 O 0.80855 0.30137 0.63475 0.0
Mg171 Mg 0.82349 0.30404 0.68426 0.0
C172 C 0.8083 0.29888 0.59607 0.0
C173 C 0.85055 0.28978 0.50539 0.0
O174 O 0.85738 0.28442 0.53391 0.0
O175 O 0.83888 0.31815 0.58964 0.0
O176 O 0.83031 0.32185 0.65149 0.0
O177 O 0.83856 0.27744 0.60189 0.0
O178 O 0.83638 0.29236 0.64825 0.0
C179 C 0.83542 0.32561 0.61799 0.0
C180 C 0.8365 0.2807 0.63988 0.0
O181 O 0.84203 0.29707 0.5169 0.0
Mg182 Mg 0.45195 0.08842 0.32432 0.0
O183 O 0.45131 0.06762 0.31264 0.0
O184 O 0.44776 0.05824 0.37319 0.0
Mg185 Mg 0.4469 0.0731 0.42377 0.0
C186 C 0.44956 0.05786 0.33406 0.0
C187 C 0.45719 0.10082 0.24261 0.0
O188 O 0.46265 0.10786 0.2703 0.0
O189 O 0.43114 0.0886 0.33246 0.0
O190 O 0.42877 0.08085 0.39627 0.0
O191 O 0.4722 0.08767 0.33486 0.0
O192 O 0.45826 0.08529 0.38441 0.0
C193 C 0.42435 0.08574 0.36337 0.0
C194 C 0.46972 0.08522 0.37322 0.0
O195 O 0.45069 0.0918 0.25519 0.0
Mg196 Mg 0.65964 0.70229 0.07745 0.0
O197 O 0.6806 0.70232 0.07547 0.0
O198 O 0.68842 0.69858 0.1381 0.0
Mg199 Mg 0.67165 0.69606 0.18104 0.0
C200 C 0.68981 0.70084 0.09955 0.0
C201 C 0.65069 0.70624 0.98718 0.0
O202 O 0.64062 0.70931 0.00754 0.0
O203 O 0.65955 0.68139 0.08181 0.0
O204 O 0.66617 0.67812 0.1466 0.0
O205 O 0.65962 0.72224 0.09307 0.0
O206 O 0.65969 0.70723 0.13974 0.0
C207 C 0.66217 0.67413 0.11176 0.0
C208 C 0.65993 0.71889 0.1316 0.0
O209 O 0.6599 0.70213 0.00727 0.0
Mg210 Mg 0.04377 0.90975 0.83094 0.0
O211 O 0.04483 0.93067 0.8311 0.0
O212 O 0.04905 0.9384 0.89338 0.0
Mg213 Mg 0.05136 0.9212 0.93461 0.0
C214 C 0.0467 0.93984 0.85494 0.0
C215 C 0.03465 0.9177 0.74676 0.0
O216 O 0.02759 0.92349 0.77361 0.0
O217 O 0.06472 0.90886 0.83297 0.0
O218 O 0.06872 0.91542 0.89743 0.0
O219 O 0.024 0.91036 0.84913 0.0
O220 O 0.03945 0.90966 0.89405 0.0
C221 C 0.0723 0.91134 0.86217 0.0
C222 C 0.02773 0.91032 0.88724 0.0
O223 O 0.04308 0.91056 0.76027 0.0
Mg224 Mg 0.65917 0.79756 0.57699 0.0
O225 O 0.68004 0.79715 0.56672 0.0
O226 O 0.68949 0.80087 0.62693 0.0
Mg227 Mg 0.6744 0.80355 0.67594 0.0
C228 C 0.68985 0.79856 0.58813 0.0
C229 C 0.64787 0.79079 0.49443 0.0
O230 O 0.64076 0.7853 0.52187 0.0
O231 O 0.65959 0.81841 0.58149 0.0
O232 O 0.66798 0.8216 0.64392 0.0
O233 O 0.65921 0.7776 0.59161 0.0
O234 O 0.66146 0.79229 0.6387 0.0
C235 C 0.66306 0.82565 0.61049 0.0
C236 C 0.66119 0.78066 0.62983 0.0
O237 O 0.65648 0.79778 0.50731 0.0
Mg238 Mg 0.45315 0.40902 0.82981 0.0
O239 O 0.45337 0.42997 0.8298 0.0
O240 O 0.44957 0.43738 0.89294 0.0
Mg241 Mg 0.44681 0.4203 0.93425 0.0
C242 C 0.45192 0.43902 0.85457 0.0
C243 C 0.45705 0.40075 0.73875 0.0
O244 O 0.45993 0.39047 0.75817 0.0
O245 O 0.43225 0.40907 0.83371 0.0
O246 O 0.42888 0.41527 0.89892 0.0
O247 O 0.47308 0.40874 0.84573 0.0
O248 O 0.45799 0.40855 0.89218 0.0
C249 C 0.42493 0.41156 0.86365 0.0
C250 C 0.46967 0.40878 0.88422 0.0
O251 O 0.45311 0.40986 0.75969 0.0
Mg252 Mg 0.83816 0.2009 0.08684 0.0
O253 O 0.81721 0.20132 0.08483 0.0
O254 O 0.80934 0.19609 0.14625 0.0
Mg255 Mg 0.82607 0.19328 0.18919 0.0
C256 C 0.80801 0.19926 0.10841 0.0
C257 C 0.8471 0.20582 0.99693 0.0
O258 O 0.85721 0.20866 0.01737 0.0
O259 O 0.83808 0.17996 0.08809 0.0
O260 O 0.83162 0.1758 0.15247 0.0
O261 O 0.83834 0.2206 0.10501 0.0
O262 O 0.8381 0.20506 0.14978 0.0
C263 C 0.83554 0.17229 0.11694 0.0
C264 C 0.83793 0.21681 0.14308 0.0
O265 O 0.8379 0.20157 0.01676 0.0
Mg266 Mg 0.0471 0.59172 0.32925 0.0
O267 O 0.04667 0.57076 0.32379 0.0
O268 O 0.05025 0.56212 0.38534 0.0
Mg269 Mg 0.05279 0.57815 0.43109 0.0
C270 C 0.04802 0.56124 0.3466 0.0
C271 C 0.04279 0.60146 0.23995 0.0
O272 O 0.03874 0.61097 0.26137 0.0
O273 O 0.06796 0.59131 0.33455 0.0
O274 O 0.07098 0.58388 0.39844 0.0
O275 O 0.0271 0.59204 0.34339 0.0
O276 O 0.04171 0.59065 0.39121 0.0
C277 C 0.07512 0.58824 0.36428 0.0
C278 C 0.03009 0.59079 0.38203 0.0
O279 O 0.04765 0.59245 0.25911 0.0
Mg280 Mg 0.65906 0.20324 0.91728 0.0
O281 O 0.67996 0.20314 0.92523 0.0
O282 O 0.68898 0.19888 0.8647 0.0
Mg283 Mg 0.67341 0.19747 0.81667 0.0
C284 C 0.68959 0.20123 0.90342 0.0
C285 C 0.64818 0.20696 0.00553 0.0
O286 O 0.63883 0.21093 0.98317 0.0
O287 O 0.65891 0.18238 0.91091 0.0
O288 O 0.66657 0.17942 0.84728 0.0
O289 O 0.65941 0.22329 0.90403 0.0
O290 O 0.66093 0.20882 0.8558 0.0
C291 C 0.66184 0.17527 0.88087 0.0
C292 C 0.66097 0.2204 0.86542 0.0
O293 O 0.65752 0.2024 0.98724 0.0
Mg294 Mg 0.04444 0.41111 0.16666 0.0
O295 O 0.04444 0.43206 0.17321 0.0
O296 O 0.04693 0.44078 0.11115 0.0
Mg297 Mg 0.04801 0.42495 0.06396 0.0
C298 C 0.04552 0.4416 0.15034 0.0
C299 C 0.04182 0.40068 0.25554 0.0
O300 O 0.03764 0.39131 0.23372 0.0
O301 O 0.06526 0.41121 0.15623 0.0
O302 O 0.06657 0.41839 0.09136 0.0
O303 O 0.02408 0.41104 0.15681 0.0
O304 O 0.03778 0.41252 0.10617 0.0
C305 C 0.07158 0.41396 0.12405 0.0
C306 C 0.02636 0.41239 0.11767 0.0
O307 O 0.04627 0.40995 0.23661 0.0
Mg308 Mg 0.84025 0.7952 0.42055 0.0
O309 O 0.81927 0.79423 0.4224 0.0
O310 O 0.81159 0.79715 0.35901 0.0
Mg311 Mg 0.82826 0.79932 0.31553 0.0
C312 C 0.81012 0.79524 0.39775 0.0
C313 C 0.84929 0.79265 0.5113 0.0
O314 O 0.85932 0.78929 0.49127 0.0
O315 O 0.83922 0.81603 0.41263 0.0
O316 O 0.83342 0.81787 0.34632 0.0
O317 O 0.84143 0.77502 0.40877 0.0
O318 O 0.84024 0.7891 0.35925 0.0
C319 C 0.83685 0.82262 0.38077 0.0
C320 C 0.8406 0.7776 0.36967 0.0
O321 O 0.84004 0.79646 0.49071 0.0
Mg322 Mg 0.45133 0.58921 0.66785 0.0
O323 O 0.45169 0.56845 0.68012 0.0
O324 O 0.44798 0.55852 0.62079 0.0
Mg325 Mg 0.44535 0.57318 0.57034 0.0
C326 C 0.45027 0.55848 0.65962 0.0
C327 C 0.45796 0.60118 0.74958 0.0
O328 O 0.46353 0.60807 0.72173 0.0
O329 O 0.43049 0.58873 0.66325 0.0
O330 O 0.42725 0.57987 0.6016 0.0
O331 O 0.47131 0.58903 0.65336 0.0
O332 O 0.45662 0.58642 0.60642 0.0
C333 C 0.42323 0.58504 0.63462 0.0
C334 C 0.46825 0.58676 0.61531 0.0
O335 O 0.45101 0.59247 0.73722 0.0
Mg336 Mg 0.3408 0.20312 0.41649 0.0
O337 O 0.3198 0.20383 0.42005 0.0
O338 O 0.31167 0.20122 0.35715 0.0
Mg339 Mg 0.32802 0.19924 0.31238 0.0
C340 C 0.31048 0.2029 0.3961 0.0
C341 C 0.35005 0.20613 0.50685 0.0
O342 O 0.35978 0.21011 0.48639 0.0
O343 O 0.34004 0.18228 0.40786 0.0
O344 O 0.3334 0.18067 0.34244 0.0
O345 O 0.34169 0.22336 0.4051 0.0
O346 O 0.34033 0.20937 0.35534 0.0
C347 C 0.33728 0.17578 0.37612 0.0
C348 C 0.34069 0.22085 0.36599 0.0
O349 O 0.341 0.20172 0.48665 0.0
Mg350 Mg 0.54611 0.58971 0.1668 0.0
O351 O 0.54588 0.56875 0.16719 0.0
O352 O 0.54945 0.56126 0.10399 0.0
Mg353 Mg 0.55204 0.57827 0.06224 0.0
C354 C 0.54724 0.55967 0.14249 0.0
C355 C 0.54227 0.59808 0.25769 0.0
O356 O 0.53916 0.60824 0.238 0.0
O357 O 0.56702 0.58963 0.162 0.0
O358 O 0.57009 0.58334 0.09671 0.0
O359 O 0.52612 0.59 0.15159 0.0
O360 O 0.54107 0.59008 0.10463 0.0
C361 C 0.5742 0.58709 0.13172 0.0
C362 C 0.52941 0.58989 0.11298 0.0
O363 O 0.54637 0.58899 0.23696 0.0
Mg364 Mg 0.15686 0.79582 0.9187 0.0
O365 O 0.17783 0.7954 0.92201 0.0
O366 O 0.18604 0.79876 0.85968 0.0
Mg367 Mg 0.1696 0.80111 0.81534 0.0
C368 C 0.18719 0.79667 0.89842 0.0
C369 C 0.1479 0.79182 0.0091 0.0
O370 O 0.13817 0.78781 0.98877 0.0
O371 O 0.15724 0.81668 0.91256 0.0
O372 O 0.16411 0.81937 0.84774 0.0
O373 O 0.15638 0.77576 0.90464 0.0
O374 O 0.15728 0.7904 0.85685 0.0
C375 C 0.16004 0.82368 0.88207 0.0
C376 C 0.15713 0.77879 0.86588 0.0
O377 O 0.15681 0.79651 0.9889 0.0
Mg378 Mg 0.95198 0.4087 0.6691 0.0
O379 O 0.95223 0.42966 0.67452 0.0
O380 O 0.9487 0.43827 0.61288 0.0
Mg381 Mg 0.94639 0.42222 0.56709 0.0
C382 C 0.95084 0.43916 0.65167 0.0
C383 C 0.95513 0.39884 0.75963 0.0
O384 O 0.95913 0.38909 0.73941 0.0
O385 O 0.93115 0.40899 0.66317 0.0
O386 O 0.92815 0.41641 0.59928 0.0
O387 O 0.97206 0.40852 0.6553 0.0
O388 O 0.9575 0.40982 0.60728 0.0
C389 C 0.924 0.41202 0.63339 0.0
C390 C 0.96911 0.40976 0.6166 0.0
O391 O 0.95102 0.408 0.73927 0.0
Mg392 Mg 0.33772 0.79549 0.0779 0.0
O393 O 0.31678 0.79542 0.07026 0.0
O394 O 0.30789 0.79903 0.13145 0.0
Mg395 Mg 0.32353 0.80114 0.17885 0.0
C396 C 0.30717 0.79691 0.09259 0.0
C397 C 0.3497 0.79384 0.99068 0.0
O398 O 0.35955 0.79239 0.01403 0.0
O399 O 0.33761 0.81633 0.08381 0.0
O400 O 0.32992 0.81928 0.14742 0.0
O401 O 0.33767 0.77545 0.09155 0.0
O402 O 0.33606 0.78998 0.13953 0.0
C403 C 0.33456 0.82344 0.11369 0.0
C404 C 0.33617 0.77838 0.13015 0.0
O405 O 0.33941 0.79615 0.00794 0.0
Mg406 Mg 0.95212 0.58949 0.82911 0.0
O407 O 0.95225 0.56852 0.82334 0.0
O408 O 0.94855 0.55995 0.88496 0.0
Mg409 Mg 0.94623 0.57596 0.93089 0.0
C410 C 0.95076 0.55904 0.84622 0.0
C411 C 0.95573 0.59988 0.74031 0.0
O412 O 0.95911 0.60955 0.76222 0.0
O413 O 0.93127 0.58934 0.83441 0.0
O414 O 0.92812 0.58196 0.8983 0.0
O415 O 0.97212 0.58955 0.84323 0.0
O416 O 0.95749 0.58829 0.89104 0.0
C417 C 0.92406 0.58638 0.86412 0.0
C418 C 0.96911 0.58832 0.88187 0.0
O419 O 0.95157 0.59044 0.75901 0.0
Mg420 Mg 0.16 0.19944 0.57827 0.0
O421 O 0.18088 0.19961 0.56849 0.0
O422 O 0.19019 0.19514 0.62836 0.0
Mg423 Mg 0.17495 0.19225 0.67676 0.0
C424 C 0.19064 0.19783 0.58985 0.0
C425 C 0.14912 0.20738 0.49643 0.0
O426 O 0.14217 0.21282 0.52446 0.0
O427 O 0.16006 0.17856 0.58047 0.0
O428 O 0.16824 0.17461 0.64273 0.0
O429 O 0.1603 0.21923 0.59499 0.0
O430 O 0.16222 0.20409 0.64066 0.0
C431 C 0.16332 0.17099 0.60876 0.0
C432 C 0.1621 0.2158 0.63296 0.0
O433 O 0.15746 0.19996 0.50853 0.0
Mg434 Mg 0.5482 0.40946 0.32906 0.0
O435 O 0.54795 0.43023 0.31692 0.0
O436 O 0.55176 0.4401 0.3763 0.0
Mg437 Mg 0.55438 0.42538 0.4266 0.0
C438 C 0.54944 0.44018 0.3375 0.0
C439 C 0.54141 0.39749 0.24764 0.0
O440 O 0.5359 0.39063 0.27573 0.0
O441 O 0.56905 0.4098 0.33339 0.0
O442 O 0.57241 0.41863 0.39504 0.0
O443 O 0.52825 0.40976 0.34369 0.0
O444 O 0.54298 0.41225 0.39056 0.0
C445 C 0.57636 0.41344 0.36194 0.0
C446 C 0.53134 0.412 0.38173 0.0
O447 O 0.54841 0.40619 0.2597 0.0
C448 C 0.2863 0.29794 0.90157 0.0
C449 C 0.29728 0.29766 0.92485 0.0
C450 C 0.2748 0.29778 0.92137 0.0
C451 C 0.2597 0.30497 0.02061 0.0
H452 H 0.23355 0.28381 0.97922 0.0
C453 C 0.2129 0.29946 0.10616 0.0
C454 C 0.20224 0.29885 0.08132 0.0
C455 C 0.22467 0.29902 0.0881 0.0
C456 C 0.2407 0.28988 0.99092 0.0
H457 H 0.30475 0.29698 0.98735 0.0
H458 H 0.28469 0.29673 0.02168 0.0
H459 H 0.25366 0.28374 0.94517 0.0
H460 H 0.19563 0.29748 0.01786 0.0
H461 H 0.21601 0.29699 0.98664 0.0
H462 H 0.2467 0.31128 0.06595 0.0
C463 C 0.285 0.29714 0.98814 0.0
C464 C 0.25223 0.28982 0.97141 0.0
C465 C 0.29648 0.29721 0.96838 0.0
C466 C 0.20362 0.29787 0.03808 0.0
C467 C 0.21534 0.29751 0.02009 0.0
C468 C 0.24814 0.3051 0.03999 0.0
C469 C 0.27403 0.29742 0.96487 0.0
C470 C 0.26183 0.29739 0.98594 0.0
C471 C 0.22602 0.29802 0.04482 0.0
C472 C 0.23847 0.2976 0.02524 0.0
H473 H 0.28656 0.2983 0.86803 0.0
H474 H 0.26649 0.29812 0.90264 0.0
H475 H 0.2669 0.31101 0.03223 0.0
H476 H 0.21217 0.30017 0.13956 0.0
H477 H 0.2327 0.29931 0.10811 0.0
C478 C 0.94985 0.96327 0.34074 0.0
C479 C 0.94953 0.95216 0.31817 0.0
C480 C 0.95073 0.9746 0.32027 0.0
C481 C 0.94467 0.98969 0.22044 0.0
H482 H 0.96704 0.01474 0.26238 0.0
C483 C 0.95172 0.0365 0.13698 0.0
C484 C 0.95236 0.04703 0.16246 0.0
C485 C 0.95207 0.02465 0.15432 0.0
C486 C 0.96066 0.00789 0.25049 0.0
H487 H 0.94981 0.94429 0.25623 0.0
H488 H 0.95129 0.96412 0.22059 0.0
H489 H 0.96614 0.9946 0.29606 0.0
H490 H 0.95389 0.05331 0.22623 0.0
H491 H 0.95427 0.03276 0.25626 0.0
H492 H 0.939 0.00305 0.17537 0.0
C493 C 0.95082 0.96402 0.25414 0.0
C494 C 0.96016 0.99635 0.26977 0.0
C495 C 0.95004 0.95266 0.27461 0.0
C496 C 0.95344 0.04543 0.20557 0.0
C497 C 0.95374 0.03361 0.22285 0.0
C498 C 0.94511 0.00126 0.20126 0.0
C499 C 0.95122 0.9751 0.27677 0.0
C500 C 0.95208 0.98717 0.2552 0.0
C501 C 0.95303 0.02308 0.19749 0.0
C502 C 0.95303 0.01054 0.21632 0.0
H503 H 0.94948 0.96323 0.37429 0.0
H504 H 0.95086 0.98301 0.33851 0.0
H505 H 0.93826 0.98283 0.20878 0.0
H506 H 0.95094 0.03739 0.10365 0.0
H507 H 0.95166 0.01672 0.13386 0.0
C508 C 0.21465 0.7016 0.40376 0.0
C509 C 0.20369 0.70174 0.42723 0.0
C510 C 0.22617 0.70222 0.42333 0.0
C511 C 0.24149 0.69593 0.52269 0.0
H512 H 0.26725 0.71728 0.47966 0.0
C513 C 0.28826 0.70192 0.60696 0.0
C514 C 0.29889 0.70224 0.58189 0.0
C515 C 0.27648 0.70254 0.58914 0.0
C516 C 0.2602 0.71117 0.49184 0.0
H517 H 0.19629 0.70267 0.4898 0.0
H518 H 0.21637 0.70371 0.52371 0.0
H519 H 0.24708 0.71686 0.44593 0.0
H520 H 0.30543 0.70352 0.51834 0.0
H521 H 0.285 0.70434 0.48748 0.0
H522 H 0.25463 0.69004 0.5681 0.0
C523 C 0.21604 0.70306 0.49022 0.0
C524 C 0.24865 0.71095 0.47252 0.0
C525 C 0.20453 0.70254 0.47069 0.0
C526 C 0.29746 0.70331 0.53869 0.0
C527 C 0.28572 0.70386 0.52092 0.0
C528 C 0.25307 0.69609 0.54187 0.0
C529 C 0.22698 0.7029 0.46677 0.0
C530 C 0.23919 0.70329 0.48764 0.0
C531 C 0.27507 0.70345 0.54587 0.0
C532 C 0.26259 0.70366 0.52655 0.0
H533 H 0.21435 0.70101 0.37026 0.0
H534 H 0.23445 0.70196 0.40449 0.0
H535 H 0.23441 0.68982 0.53475 0.0
H536 H 0.28901 0.70117 0.64034 0.0
H537 H 0.26848 0.70237 0.60931 0.0
C538 C 0.54747 0.03673 0.86321 0.0
C539 C 0.54671 0.04701 0.83668 0.0
C540 C 0.54689 0.02471 0.84711 0.0
C541 C 0.53717 0.00742 0.75308 0.0
H542 H 0.55964 0.98223 0.79336 0.0
C543 C 0.54758 0.96302 0.66143 0.0
C544 C 0.54789 0.95184 0.68359 0.0
C545 C 0.54676 0.97429 0.68235 0.0
C546 C 0.55321 0.98913 0.78213 0.0
H547 H 0.54485 0.05267 0.7723 0.0
H548 H 0.54408 0.03192 0.74457 0.0
H549 H 0.55933 0.00253 0.82651 0.0
H550 H 0.54765 0.94377 0.74525 0.0
H551 H 0.54629 0.96349 0.78165 0.0
H552 H 0.53128 0.99413 0.70808 0.0
C553 C 0.54485 0.03306 0.77783 0.0
C554 C 0.553 0.00075 0.80117 0.0
C555 C 0.54538 0.045 0.79382 0.0
C556 C 0.54741 0.9522 0.72718 0.0
C557 C 0.5467 0.96349 0.7481 0.0
C558 C 0.53744 0.99586 0.73392 0.0
C559 C 0.54555 0.02276 0.8042 0.0
C560 C 0.54511 0.01009 0.78644 0.0
C561 C 0.54633 0.97465 0.72588 0.0
C562 C 0.54558 0.98666 0.74786 0.0
H563 H 0.54847 0.03794 0.89636 0.0
H564 H 0.54737 0.01696 0.8683 0.0
H565 H 0.53077 0.01431 0.74153 0.0
H566 H 0.54793 0.96308 0.62787 0.0
H567 H 0.54663 0.98275 0.66442 0.0
C568 C 0.71298 0.70108 0.1069 0.0
C569 C 0.70241 0.70157 0.0816 0.0
C570 C 0.7248 0.70163 0.08937 0.0
C571 C 0.74123 0.71066 0.99281 0.0
H572 H 0.76706 0.68924 0.03498 0.0
C573 C 0.78683 0.70167 0.9045 0.0
C574 C 0.79779 0.70175 0.92797 0.0
C575 C 0.77531 0.70214 0.92411 0.0
C576 C 0.75997 0.69537 0.02314 0.0
H577 H 0.69603 0.70297 0.01789 0.0
H578 H 0.71652 0.70369 0.98755 0.0
H579 H 0.74679 0.68924 0.06814 0.0
H580 H 0.80517 0.70241 0.99058 0.0
H581 H 0.78509 0.70319 0.02456 0.0
H582 H 0.75438 0.7166 0.94734 0.0
C583 C 0.71572 0.70314 0.02097 0.0
C584 C 0.74836 0.6954 0.0422 0.0
C585 C 0.70394 0.70265 0.03844 0.0
C586 C 0.79694 0.70233 0.97147 0.0
C587 C 0.78543 0.70271 0.99103 0.0
C588 C 0.7528 0.71057 0.97361 0.0
C589 C 0.72631 0.70265 0.04615 0.0
C590 C 0.73883 0.70299 0.0271 0.0
C591 C 0.7745 0.70261 0.96758 0.0
C592 C 0.76228 0.70288 0.98844 0.0
H593 H 0.71213 0.7003 0.14026 0.0
H594 H 0.73276 0.70138 0.10971 0.0
H595 H 0.73417 0.7168 0.98084 0.0
H596 H 0.78714 0.70124 0.87097 0.0
H597 H 0.76703 0.70194 0.90524 0.0
C598 C 0.04744 0.96305 0.86118 0.0
C599 C 0.0464 0.95239 0.83651 0.0
C600 C 0.04736 0.9748 0.84289 0.0
C601 C 0.05372 0.99037 0.74382 0.0
H602 H 0.03342 0.01687 0.78744 0.0
C603 C 0.04636 0.0356 0.65309 0.0
C604 C 0.04624 0.0467 0.67572 0.0
C605 C 0.04623 0.02422 0.67358 0.0
C606 C 0.03926 0.00962 0.77515 0.0
H607 H 0.04435 0.94577 0.7732 0.0
H608 H 0.04425 0.96612 0.74177 0.0
H609 H 0.03376 0.9969 0.82267 0.0
H610 H 0.04587 0.05449 0.73778 0.0
H611 H 0.04589 0.03469 0.77332 0.0
H612 H 0.05934 0.00303 0.69659 0.0
C613 C 0.04522 0.96542 0.77512 0.0
C614 C 0.03945 0.99819 0.79536 0.0
C615 C 0.04521 0.95375 0.79329 0.0
C616 C 0.0459 0.04613 0.71929 0.0
C617 C 0.04585 0.03476 0.73975 0.0
C618 C 0.0536 0.0018 0.7238 0.0
C619 C 0.04637 0.97607 0.79963 0.0
C620 C 0.04659 0.98841 0.77965 0.0
C621 C 0.04607 0.02366 0.71717 0.0
C622 C 0.04629 0.01155 0.73898 0.0
H623 H 0.04835 0.96234 0.89452 0.0
H624 H 0.04831 0.98287 0.8625 0.0
H625 H 0.05947 0.98306 0.73137 0.0
H626 H 0.04654 0.03569 0.61953 0.0
H627 H 0.04619 0.01584 0.65518 0.0
C628 C 0.71232 0.29716 0.39122 0.0
C629 C 0.70165 0.29692 0.41612 0.0
C630 C 0.72407 0.29656 0.40924 0.0
C631 C 0.74015 0.28809 0.50698 0.0
H632 H 0.76609 0.30931 0.46435 0.0
C633 C 0.78511 0.29818 0.59718 0.0
C634 C 0.79623 0.29799 0.57458 0.0
C635 C 0.77374 0.29741 0.57677 0.0
C636 C 0.75897 0.30324 0.47631 0.0
H637 H 0.69501 0.29584 0.47959 0.0
H638 H 0.7154 0.29505 0.51081 0.0
H639 H 0.74595 0.30903 0.43035 0.0
H640 H 0.80408 0.29685 0.5127 0.0
H641 H 0.78422 0.29557 0.47724 0.0
H642 H 0.75313 0.2825 0.55348 0.0
C643 C 0.71473 0.29545 0.47734 0.0
C644 C 0.74744 0.30304 0.45678 0.0
C645 C 0.70301 0.29598 0.45937 0.0
C646 C 0.7957 0.29702 0.53111 0.0
C647 C 0.78433 0.29635 0.51072 0.0
C648 C 0.75165 0.28834 0.52666 0.0
C649 C 0.72541 0.29576 0.45255 0.0
C650 C 0.73786 0.29553 0.47206 0.0
C651 C 0.77323 0.29654 0.53333 0.0
C652 C 0.76115 0.29598 0.51169 0.0
H653 H 0.71161 0.29782 0.35781 0.0
H654 H 0.7321 0.29666 0.3892 0.0
H655 H 0.73306 0.28202 0.51912 0.0
H656 H 0.78517 0.29891 0.63066 0.0
H657 H 0.76533 0.2977 0.59498 0.0
C658 C 0.45118 0.95206 0.20371 0.0
C659 C 0.45025 0.95024 0.16063 0.0
C660 C 0.45098 0.96394 0.22043 0.0
C661 C 0.45655 0.99653 0.19669 0.0
H662 H 0.4359 0.00215 0.29321 0.0
C663 C 0.44993 0.04503 0.26924 0.0
C664 C 0.44958 0.04572 0.31279 0.0
C665 C 0.44982 0.03358 0.24919 0.0
C666 C 0.44183 0.00071 0.26658 0.0
H667 H 0.44862 0.95956 0.10131 0.0
H668 H 0.44835 0.98041 0.13077 0.0
H669 H 0.43617 0.98186 0.26059 0.0
H670 H 0.44904 0.03488 0.36935 0.0
H671 H 0.4491 0.01496 0.33448 0.0
H672 H 0.46239 0.01534 0.20313 0.0
C673 C 0.44923 0.97256 0.15142 0.0
C674 C 0.44195 0.9891 0.24783 0.0
C675 C 0.44933 0.96063 0.1346 0.0
C676 C 0.44922 0.0347 0.33579 0.0
C677 C 0.44918 0.02326 0.31575 0.0
C678 C 0.4565 0.00816 0.21564 0.0
C679 C 0.44991 0.97431 0.19455 0.0
C680 C 0.44939 0.98685 0.21294 0.0
C681 C 0.44942 0.02256 0.27221 0.0
C682 C 0.44921 0.01035 0.25106 0.0
H683 H 0.45193 0.9443 0.22477 0.0
H684 H 0.45171 0.96501 0.25373 0.0
H685 H 0.46245 0.99502 0.17003 0.0
H686 H 0.45017 0.05334 0.25052 0.0
H687 H 0.44986 0.03338 0.21563 0.0
C688 C 0.71301 0.79743 0.59032 0.0
C689 C 0.70199 0.79749 0.56718 0.0
C690 C 0.72445 0.79642 0.57047 0.0
C691 C 0.73984 0.80184 0.47073 0.0
H692 H 0.76504 0.78011 0.51542 0.0
C693 C 0.787 0.79481 0.38934 0.0
C694 C 0.79746 0.79447 0.41519 0.0
C695 C 0.7751 0.79441 0.40633 0.0
C696 C 0.75815 0.78631 0.50276 0.0
H697 H 0.6944 0.79657 0.50491 0.0
H698 H 0.71439 0.79487 0.47042 0.0
H699 H 0.74478 0.78105 0.54842 0.0
H700 H 0.80357 0.79341 0.47927 0.0
H701 H 0.78293 0.79296 0.50865 0.0
H702 H 0.75326 0.80731 0.42558 0.0
C703 C 0.71414 0.79564 0.50389 0.0
C704 C 0.74654 0.78683 0.52166 0.0
C705 C 0.7027 0.79655 0.52373 0.0
C706 C 0.79574 0.79363 0.45832 0.0
C707 C 0.78388 0.79329 0.47525 0.0
C708 C 0.75148 0.80138 0.45195 0.0
C709 C 0.72514 0.79555 0.52706 0.0
C710 C 0.7373 0.79468 0.50606 0.0
C711 C 0.77341 0.7937 0.44951 0.0
C712 C 0.76081 0.79369 0.46797 0.0
H713 H 0.71282 0.79813 0.6238 0.0
H714 H 0.73278 0.79652 0.5891 0.0
H715 H 0.73294 0.80807 0.45828 0.0
H716 H 0.78798 0.7954 0.35599 0.0
H717 H 0.76723 0.7946 0.38559 0.0
C718 C 0.45422 0.45349 0.79464 0.0
C719 C 0.45279 0.45172 0.83757 0.0
C720 C 0.45479 0.46536 0.77795 0.0
C721 C 0.44643 0.49774 0.79983 0.0
H722 H 0.46802 0.50419 0.70622 0.0
C723 C 0.45179 0.54616 0.72532 0.0
C724 C 0.45125 0.54652 0.68174 0.0
C725 C 0.4526 0.53488 0.74623 0.0
C726 C 0.4619 0.5025 0.7322 0.0
H727 H 0.45098 0.46111 0.89668 0.0
H728 H 0.45217 0.48192 0.86746 0.0
H729 H 0.46863 0.48409 0.74022 0.0
H730 H 0.45122 0.53526 0.62603 0.0
H731 H 0.45268 0.5156 0.6626 0.0
H732 H 0.43973 0.51621 0.79165 0.0
C733 C 0.45267 0.47406 0.84671 0.0
C734 C 0.46223 0.49099 0.75167 0.0
C735 C 0.45205 0.46214 0.86348 0.0
C736 C 0.45161 0.53533 0.65958 0.0
C737 C 0.45253 0.52407 0.68051 0.0
C738 C 0.44617 0.5093 0.78049 0.0
C739 C 0.45402 0.4758 0.8037 0.0
C740 C 0.45435 0.48839 0.78528 0.0
C741 C 0.453 0.52372 0.72403 0.0
C742 C 0.45377 0.51173 0.74609 0.0
H743 H 0.45476 0.4457 0.77362 0.0
H744 H 0.45559 0.46633 0.74464 0.0
H745 H 0.44014 0.49601 0.8253 0.0
H746 H 0.45152 0.55459 0.74339 0.0
H747 H 0.45304 0.53489 0.77978 0.0
C748 C 0.70315 0.20743 0.96268 0.0
C749 C 0.70178 0.20152 0.92416 0.0
C750 C 0.71454 0.20745 0.98303 0.0
C751 C 0.74808 0.20185 0.9656 0.0
H752 H 0.74874 0.20023 0.08567 0.0
C753 C 0.78547 0.19374 0.10721 0.0
C754 C 0.79548 0.20032 0.09047 0.0
C755 C 0.77389 0.19406 0.08786 0.0
C756 C 0.74875 0.20054 0.05212 0.0
H757 H 0.71129 0.1909 0.87691 0.0
H758 H 0.73106 0.19055 0.91299 0.0
H759 H 0.72903 0.19984 0.04959 0.0
H760 H 0.80109 0.21289 0.04157 0.0
H761 H 0.78089 0.21389 0.00899 0.0
H762 H 0.76779 0.20192 0.96793 0.0
C763 C 0.72343 0.19549 0.92705 0.0
C764 C 0.73741 0.20052 0.03137 0.0
C765 C 0.71207 0.19564 0.90638 0.0
C766 C 0.79359 0.20758 0.05492 0.0
C767 C 0.782 0.20807 0.03602 0.0
C768 C 0.75941 0.20169 0.98629 0.0
C769 C 0.72482 0.2014 0.96569 0.0
C770 C 0.73691 0.20124 0.98782 0.0
C771 C 0.77205 0.20114 0.05172 0.0
C772 C 0.75991 0.20113 0.02985 0.0
H773 H 0.69542 0.21214 0.97707 0.0
H774 H 0.71529 0.21233 0.01223 0.0
H775 H 0.7481 0.20257 0.93212 0.0
H776 H 0.78668 0.18801 0.13445 0.0
H777 H 0.7665 0.18849 0.10062 0.0
C778 C 0.04516 0.45499 0.21371 0.0
C779 C 0.0453 0.45395 0.17024 0.0
C780 C 0.04514 0.46658 0.23273 0.0
C781 C 0.05264 0.49939 0.213 0.0
H782 H 0.03309 0.50495 0.31211 0.0
C783 C 0.04602 0.54781 0.28372 0.0
C784 C 0.04721 0.54888 0.32702 0.0
C785 C 0.04556 0.53622 0.26484 0.0
C786 C 0.03869 0.50349 0.28468 0.0
H787 H 0.04538 0.46433 0.1127 0.0
H788 H 0.04513 0.48457 0.1459 0.0
H789 H 0.03252 0.48481 0.27813 0.0
H790 H 0.04869 0.53852 0.38441 0.0
H791 H 0.04787 0.51824 0.35129 0.0
H792 H 0.05872 0.51811 0.21942 0.0
C793 C 0.04526 0.4764 0.1653 0.0
C794 C 0.03837 0.49196 0.2652 0.0
C795 C 0.04533 0.46479 0.14624 0.0
C796 C 0.04778 0.53804 0.35102 0.0
C797 C 0.04724 0.52642 0.33208 0.0
C798 C 0.0529 0.51093 0.23235 0.0
C799 C 0.04521 0.47743 0.20878 0.0
C800 C 0.04537 0.48976 0.22916 0.0
C801 C 0.04622 0.5254 0.28877 0.0
C802 C 0.04594 0.51311 0.26841 0.0
H803 H 0.04519 0.44685 0.23324 0.0
H804 H 0.04529 0.46703 0.26626 0.0
H805 H 0.05832 0.49796 0.18576 0.0
H806 H 0.04553 0.55595 0.2642 0.0
H807 H 0.0446 0.53573 0.23145 0.0
C808 C 0.28732 0.20331 0.38943 0.0
C809 C 0.29794 0.20344 0.41457 0.0
C810 C 0.27553 0.20342 0.40726 0.0
C811 C 0.25906 0.21024 0.50573 0.0
H812 H 0.23369 0.18908 0.45918 0.0
C813 C 0.21383 0.19858 0.59234 0.0
C814 C 0.20283 0.19891 0.56915 0.0
C815 C 0.2253 0.19963 0.57268 0.0
C816 C 0.24064 0.19513 0.47227 0.0
H817 H 0.30444 0.20384 0.47828 0.0
H818 H 0.28398 0.20379 0.50914 0.0
H819 H 0.25392 0.19018 0.426 0.0
H820 H 0.19529 0.20056 0.50697 0.0
H821 H 0.21531 0.20235 0.47282 0.0
H822 H 0.24582 0.215 0.55245 0.0
C823 C 0.28472 0.20385 0.47566 0.0
C824 C 0.25223 0.19579 0.4532 0.0
C825 C 0.29649 0.20379 0.45789 0.0
C826 C 0.20357 0.20028 0.52584 0.0
C827 C 0.21504 0.20123 0.50618 0.0
C828 C 0.24751 0.20952 0.52492 0.0
C829 C 0.2741 0.20362 0.45061 0.0
C830 C 0.2616 0.2033 0.46984 0.0
C831 C 0.22602 0.20094 0.5294 0.0
C832 C 0.2382 0.20191 0.50851 0.0
H833 H 0.2881 0.20309 0.35597 0.0
H834 H 0.26754 0.20341 0.38705 0.0
H835 H 0.26599 0.2163 0.51896 0.0
H836 H 0.2136 0.19754 0.62572 0.0
H837 H 0.23362 0.19924 0.59133 0.0
C838 C 0.54822 0.46333 0.33782 0.0
C839 C 0.54847 0.45217 0.31553 0.0
C840 C 0.5473 0.47462 0.31704 0.0
C841 C 0.55338 0.48945 0.21691 0.0
H842 H 0.53111 0.51469 0.25818 0.0
C843 C 0.54712 0.53654 0.13389 0.0
C844 C 0.54646 0.54699 0.1597 0.0
C845 C 0.54659 0.52464 0.15082 0.0
C846 C 0.53746 0.50778 0.24646 0.0
H847 H 0.548 0.44415 0.25381 0.0
H848 H 0.54646 0.46389 0.21767 0.0
H849 H 0.53182 0.49458 0.29213 0.0
H850 H 0.54476 0.55307 0.22366 0.0
H851 H 0.54409 0.53247 0.25293 0.0
H852 H 0.55924 0.50273 0.17183 0.0
C853 C 0.547 0.46387 0.25121 0.0
C854 C 0.53785 0.49627 0.2659 0.0
C855 C 0.54782 0.45257 0.27198 0.0
C856 C 0.54522 0.54526 0.20272 0.0
C857 C 0.54475 0.53341 0.21958 0.0
C858 C 0.55305 0.50101 0.19759 0.0
C859 C 0.54671 0.47501 0.27353 0.0
C860 C 0.5459 0.48702 0.25162 0.0
C861 C 0.54543 0.52294 0.19391 0.0
C862 C 0.54519 0.51037 0.21247 0.0
H863 H 0.5487 0.46337 0.37135 0.0
H864 H 0.54723 0.48307 0.33504 0.0
H865 H 0.55975 0.48253 0.20544 0.0
H866 H 0.54804 0.53754 0.10062 0.0
H867 H 0.54701 0.51676 0.13014 0.0
C868 C 0.2939 0.7957 0.02903 0.0
C869 C 0.29487 0.79635 0.07246 0.0
C870 C 0.28233 0.79544 0.00982 0.0
C871 C 0.24947 0.80312 0.0284 0.0
H872 H 0.24392 0.78254 0.93167 0.0
C873 C 0.20097 0.79516 0.96054 0.0
C874 C 0.19968 0.79604 0.91723 0.0
C875 C 0.21265 0.79499 0.9788 0.0
C876 C 0.24538 0.78842 0.95842 0.0
H877 H 0.28438 0.79705 0.12977 0.0
H878 H 0.26421 0.79636 0.0963 0.0
H879 H 0.26412 0.78244 0.96545 0.0
H880 H 0.20974 0.79723 0.85915 0.0
H881 H 0.23022 0.79688 0.89125 0.0
H882 H 0.23069 0.80898 0.0216 0.0
C883 C 0.27241 0.7963 0.07702 0.0
C884 C 0.25695 0.78838 0.97777 0.0
C885 C 0.28398 0.79662 0.09625 0.0
C886 C 0.21039 0.79656 0.89258 0.0
C887 C 0.22212 0.7963 0.91092 0.0
C888 C 0.2379 0.8031 0.00921 0.0
C889 C 0.27144 0.79577 0.03356 0.0
C890 C 0.25913 0.79572 0.01303 0.0
C891 C 0.22335 0.79563 0.95425 0.0
C892 C 0.23572 0.79574 0.97408 0.0
H893 H 0.30209 0.79554 0.00967 0.0
H894 H 0.28194 0.79522 0.97628 0.0
H895 H 0.25089 0.80908 0.05496 0.0
H896 H 0.19294 0.79472 0.98057 0.0
H897 H 0.21331 0.79429 0.01223 0.0
C898 C 0.95225 0.45261 0.71468 0.0
C899 C 0.95146 0.45153 0.67128 0.0
C900 C 0.95251 0.46421 0.73355 0.0
C901 C 0.95958 0.4969 0.71445 0.0
H902 H 0.93876 0.50255 0.81054 0.0
C903 C 0.95217 0.5455 0.78339 0.0
C904 C 0.95139 0.54664 0.82675 0.0
C905 C 0.95249 0.53387 0.76472 0.0
C906 C 0.94477 0.50109 0.78413 0.0
H907 H 0.95049 0.46187 0.61372 0.0
H908 H 0.95098 0.48217 0.64684 0.0
H909 H 0.93878 0.48236 0.77713 0.0
H910 H 0.95051 0.5364 0.8845 0.0
H911 H 0.95131 0.51609 0.85192 0.0
H912 H 0.96567 0.51559 0.72159 0.0
C913 C 0.95144 0.47398 0.66613 0.0
C914 C 0.94474 0.48952 0.76492 0.0
C915 C 0.95109 0.46236 0.64719 0.0
C916 C 0.95105 0.53586 0.85102 0.0
C917 C 0.95143 0.52421 0.83231 0.0
C918 C 0.95966 0.50846 0.73381 0.0
C919 C 0.95206 0.47502 0.70952 0.0
C920 C 0.95213 0.48732 0.72984 0.0
C921 C 0.95211 0.52307 0.78891 0.0
C922 C 0.95223 0.5107 0.76882 0.0
H923 H 0.95257 0.44449 0.73427 0.0
H924 H 0.95315 0.46472 0.76703 0.0
H925 H 0.96549 0.49542 0.68779 0.0
H926 H 0.95238 0.5536 0.76366 0.0
H927 H 0.95281 0.53335 0.7312 0.0
C928 C 0.14207 0.28062 0.92783 0.0
C929 C 0.15182 0.28682 0.94771 0.0
C930 C 0.14394 0.27492 0.88949 0.0
C931 C 0.16848 0.25999 0.83116 0.0
H932 H 0.14455 0.25954 0.74166 0.0
C933 C 0.16138 0.23766 0.65763 0.0
C934 C 0.16333 0.22507 0.66633 0.0
C935 C 0.16113 0.24635 0.68958 0.0
C936 C 0.15138 0.25968 0.76622 0.0
H937 H 0.17099 0.29252 0.94182 0.0
H938 H 0.17423 0.28248 0.87495 0.0
H939 H 0.14146 0.27345 0.80051 0.0
H940 H 0.16704 0.21182 0.71522 0.0
H941 H 0.16678 0.22707 0.77102 0.0
H942 H 0.17822 0.24599 0.79737 0.0
C943 C 0.16518 0.28198 0.88924 0.0
C944 C 0.14956 0.26756 0.79996 0.0
C945 C 0.16329 0.28778 0.92739 0.0
C946 C 0.16554 0.22144 0.70748 0.0
C947 C 0.16543 0.23017 0.73942 0.0
C948 C 0.17022 0.252 0.79764 0.0
C949 C 0.15562 0.27523 0.87045 0.0
C950 C 0.15803 0.26771 0.83294 0.0
C951 C 0.16297 0.24267 0.73084 0.0
C952 C 0.16162 0.25169 0.76506 0.0
H953 H 0.13312 0.27975 0.94261 0.0
H954 H 0.13641 0.26973 0.87579 0.0
H955 H 0.17508 0.25981 0.85638 0.0
H956 H 0.15965 0.24077 0.62624 0.0
H957 H 0.15934 0.25594 0.68209 0.0
C958 C 0.02235 0.90567 0.96071 0.0
C959 C 0.01878 0.91022 0.92173 0.0
C960 C 0.01358 0.90401 0.99194 0.0
C961 C 0.9852 0.91438 0.03541 0.0
H962 H 0.98135 0.88091 0.07652 0.0
C963 C 0.954 0.90439 0.17587 0.0
C964 C 0.95918 0.89643 0.20561 0.0
C965 C 0.95906 0.90513 0.13602 0.0
C966 C 0.98236 0.89033 0.06568 0.0
H967 H 0.0034 0.91716 0.88541 0.0
H968 H 0.9881 0.91468 0.94102 0.0
H969 H 0.99523 0.88496 0.01848 0.0
H970 H 0.97324 0.88247 0.21607 0.0
H971 H 0.98225 0.88403 0.1477 0.0
H972 H 0.97303 0.91997 0.08408 0.0
C973 C 0.99765 0.9122 0.94682 0.0
C974 C 0.99025 0.8926 0.03234 0.0
C975 C 0.00638 0.91362 0.91518 0.0
C976 C 0.96902 0.88871 0.19395 0.0
C977 C 0.97415 0.88956 0.15442 0.0
C978 C 0.97748 0.91216 0.06937 0.0
C979 C 0.00116 0.90712 0.98503 0.0
C980 C 0.9919 0.90467 0.01753 0.0
C981 C 0.96947 0.89802 0.12526 0.0
C982 C 0.97618 0.90013 0.08556 0.0
H983 H 0.03182 0.90293 0.96658 0.0
H984 H 0.01647 0.90017 0.02142 0.0
H985 H 0.98639 0.92376 0.02437 0.0
H986 H 0.94634 0.91038 0.18382 0.0
H987 H 0.95503 0.91155 0.11409 0.0
C988 C 0.33741 0.70709 0.42522 0.0
C989 C 0.34898 0.70868 0.4444 0.0
C990 C 0.33516 0.71204 0.38598 0.0
C991 C 0.3498 0.72575 0.29315 0.0
H992 H 0.3207 0.74672 0.29151 0.0
C993 C 0.33299 0.77196 0.20394 0.0
C994 C 0.33517 0.76874 0.1624 0.0
C995 C 0.33324 0.76295 0.23492 0.0
C996 C 0.32881 0.74085 0.29144 0.0
H997 H 0.36753 0.71588 0.43609 0.0
H998 H 0.3636 0.72449 0.36751 0.0
H999 H 0.32442 0.73321 0.35077 0.0
H1000 H 0.33899 0.75348 0.1206 0.0
H1001 H 0.33956 0.73778 0.17495 0.0
H1002 H 0.35439 0.73374 0.23437 0.0
C1003 C 0.35627 0.71944 0.38288 0.0
C1004 C 0.33089 0.73303 0.32514 0.0
C1005 C 0.35851 0.71455 0.42227 0.0
C1006 C 0.33727 0.75627 0.15234 0.0
C1007 C 0.33766 0.74728 0.18341 0.0
C1008 C 0.34766 0.7335 0.25923 0.0
C1009 C 0.34445 0.71859 0.36498 0.0
C1010 C 0.34154 0.7256 0.32674 0.0
C1011 C 0.33581 0.75057 0.22505 0.0
C1012 C 0.33728 0.74132 0.25852 0.0
H1013 H 0.32988 0.70254 0.44129 0.0
H1014 H 0.32601 0.71111 0.37262 0.0
H1015 H 0.35805 0.72008 0.29352 0.0
H1016 H 0.33141 0.78147 0.21278 0.0
H1017 H 0.33191 0.76577 0.26684 0.0
C1018 C 0.54002 0.08581 0.66521 0.0
C1019 C 0.53386 0.07878 0.69545 0.0
C1020 C 0.53665 0.08484 0.6234 0.0
C1021 C 0.51743 0.06602 0.5503 0.0
H1022 H 0.5117 0.09753 0.49646 0.0
C1023 C 0.47734 0.07584 0.43934 0.0
C1024 C 0.47973 0.08249 0.40287 0.0
C1025 C 0.4867 0.07391 0.46837 0.0
C1026 C 0.51347 0.08864 0.51072 0.0
H1027 H 0.51985 0.06471 0.70534 0.0
H1028 H 0.51382 0.06326 0.63344 0.0
H1029 H 0.52378 0.09677 0.56019 0.0
H1030 H 0.49385 0.09214 0.3677 0.0
H1031 H 0.51016 0.08908 0.41938 0.0
H1032 H 0.50627 0.05808 0.50229 0.0
C1033 C 0.52137 0.06939 0.6414 0.0
C1034 C 0.52043 0.08818 0.54716 0.0
C1035 C 0.52473 0.07034 0.6829 0.0
C1036 C 0.49175 0.08696 0.39556 0.0
C1037 C 0.50106 0.08524 0.42504 0.0
C1038 C 0.51031 0.06652 0.51426 0.0
C1039 C 0.52708 0.0768 0.61117 0.0
C1040 C 0.52209 0.07692 0.56824 0.0
C1041 C 0.49858 0.07877 0.4618 0.0
C1042 C 0.50794 0.07789 0.49499 0.0
H1043 H 0.54716 0.09233 0.67394 0.0
H1044 H 0.54134 0.09057 0.60081 0.0
H1045 H 0.5188 0.05715 0.56516 0.0
H1046 H 0.46823 0.07221 0.44571 0.0
H1047 H 0.48453 0.069 0.49673 0.0
C1048 C 0.15663 0.75666 0.84303 0.0
C1049 C 0.15724 0.76929 0.83298 0.0
C1050 C 0.15543 0.74777 0.81181 0.0
C1051 C 0.14428 0.74474 0.70465 0.0
H1052 H 0.16277 0.71404 0.7034 0.0
C1053 C 0.13754 0.71042 0.57223 0.0
C1054 C 0.14862 0.70665 0.55334 0.0
C1055 C 0.13769 0.71579 0.61163 0.0
C1056 C 0.15751 0.72256 0.70344 0.0
H1057 H 0.15753 0.78246 0.78226 0.0
H1058 H 0.15563 0.76699 0.72798 0.0
H1059 H 0.16555 0.72857 0.76076 0.0
H1060 H 0.1684 0.70456 0.56245 0.0
H1061 H 0.16866 0.71408 0.63066 0.0
H1062 H 0.13659 0.73906 0.6468 0.0
C1063 C 0.15585 0.76396 0.75998 0.0
C1064 C 0.15905 0.73083 0.73637 0.0
C1065 C 0.15706 0.77282 0.7911 0.0
C1066 C 0.1597 0.70746 0.57598 0.0
C1067 C 0.15985 0.71285 0.61529 0.0
C1068 C 0.14273 0.73649 0.67188 0.0
C1069 C 0.15478 0.75136 0.77001 0.0
C1070 C 0.15263 0.74213 0.73682 0.0
C1071 C 0.14891 0.71751 0.63285 0.0
C1072 C 0.14948 0.7254 0.67049 0.0
H1073 H 0.15673 0.75366 0.87506 0.0
H1074 H 0.15459 0.73814 0.82048 0.0
H1075 H 0.13904 0.75327 0.70451 0.0
H1076 H 0.12882 0.7098 0.55583 0.0
H1077 H 0.12907 0.71906 0.62475 0.0
C1078 C 0.47411 0.90314 0.04095 0.0
C1079 C 0.47755 0.90744 0.08037 0.0
C1080 C 0.48297 0.90162 0.00997 0.0
C1081 C 0.51134 0.91239 0.96806 0.0
H1082 H 0.51497 0.87941 0.92252 0.0
C1083 C 0.54198 0.90381 0.82498 0.0
C1084 C 0.53665 0.89619 0.79455 0.0
C1085 C 0.53704 0.9042 0.86506 0.0
C1086 C 0.51404 0.88869 0.93464 0.0
H1087 H 0.49285 0.91401 0.11786 0.0
H1088 H 0.50834 0.91178 0.06267 0.0
H1089 H 0.50132 0.88281 0.98163 0.0
H1090 H 0.52239 0.88252 0.78292 0.0
H1091 H 0.51359 0.88347 0.85176 0.0
H1092 H 0.52333 0.91851 0.9196 0.0
C1093 C 0.4988 0.90939 0.05634 0.0
C1094 C 0.50628 0.8906 0.9686 0.0
C1095 C 0.48996 0.91066 0.08774 0.0
C1096 C 0.52673 0.8885 0.80559 0.0
C1097 C 0.52172 0.88898 0.84537 0.0
C1098 C 0.51893 0.91055 0.93352 0.0
C1099 C 0.49538 0.90462 0.01757 0.0
C1100 C 0.50468 0.90249 0.98496 0.0
C1101 C 0.52661 0.89705 0.87538 0.0
C1102 C 0.52012 0.89871 0.91571 0.0
H1103 H 0.46464 0.90053 0.03442 0.0
H1104 H 0.48016 0.89803 0.98007 0.0
H1105 H 0.51018 0.92165 0.98027 0.0
H1106 H 0.5497 0.90978 0.8175 0.0
H1107 H 0.54121 0.91033 0.8876 0.0
C1108 C 0.33964 0.29289 0.074 0.0
C1109 C 0.35059 0.29055 0.05183 0.0
C1110 C 0.33817 0.28841 0.1143 0.0
C1111 C 0.35423 0.27414 0.20378 0.0
H1112 H 0.32434 0.25448 0.21225 0.0
C1113 C 0.3376 0.22801 0.293 0.0
C1114 C 0.34014 0.2308 0.33466 0.0
C1115 C 0.33784 0.23727 0.26293 0.0
C1116 C 0.33267 0.26001 0.21047 0.0
H1117 H 0.36898 0.28264 0.05587 0.0
H1118 H 0.36639 0.27481 0.1262 0.0
H1119 H 0.32729 0.26803 0.15273 0.0
H1120 H 0.34487 0.24553 0.37749 0.0
H1121 H 0.34552 0.2617 0.32447 0.0
H1122 H 0.35977 0.26569 0.26099 0.0
C1123 C 0.35894 0.28009 0.1124 0.0
C1124 C 0.33432 0.26786 0.17663 0.0
C1125 C 0.3604 0.28452 0.07199 0.0
C1126 C 0.34281 0.24309 0.34566 0.0
C1127 C 0.34324 0.25234 0.31539 0.0
C1128 C 0.35252 0.26637 0.23795 0.0
C1129 C 0.34764 0.28159 0.13333 0.0
C1130 C 0.34525 0.27478 0.17239 0.0
C1131 C 0.3408 0.24948 0.27373 0.0
C1132 C 0.34186 0.25899 0.24097 0.0
H1133 H 0.33194 0.29762 0.05955 0.0
H1134 H 0.32943 0.28987 0.12997 0.0
H1135 H 0.36271 0.27942 0.20137 0.0
H1136 H 0.33562 0.21866 0.28333 0.0
H1137 H 0.33608 0.23479 0.23093 0.0
C1138 C 0.02155 0.08397 0.54243 0.0
C1139 C 0.01849 0.08648 0.5839 0.0
C1140 C 0.01241 0.08388 0.51187 0.0
C1141 C 0.99022 0.07874 0.45664 0.0
H1142 H 0.96908 0.10768 0.4524 0.0
C1143 C 0.95684 0.08615 0.32107 0.0
C1144 C 0.95831 0.09767 0.30144 0.0
C1145 C 0.96161 0.08416 0.36075 0.0
C1146 C 0.97486 0.09951 0.45337 0.0
H1147 H 0.00338 0.09056 0.62602 0.0
H1148 H 0.98742 0.09052 0.57237 0.0
H1149 H 0.98284 0.10462 0.51168 0.0
H1150 H 0.96506 0.11639 0.30939 0.0
H1151 H 0.97338 0.11291 0.37861 0.0
H1152 H 0.98263 0.07385 0.3977 0.0
C1153 C 0.99691 0.08862 0.56365 0.0
C1154 C 0.98266 0.09771 0.4874 0.0
C1155 C 0.00604 0.08858 0.59433 0.0
C1156 C 0.96384 0.1074 0.32354 0.0
C1157 C 0.96855 0.10542 0.36332 0.0
C1158 C 0.98236 0.08048 0.42283 0.0
C1159 C 4e-05 0.08641 0.52206 0.0
C1160 C 0.99064 0.08746 0.48883 0.0
C1161 C 0.96787 0.09367 0.38172 0.0
C1162 C 0.97481 0.09103 0.42037 0.0
H1163 H 0.03104 0.08238 0.53328 0.0
H1164 H 0.01512 0.08229 0.47998 0.0
H1165 H 0.9962 0.07071 0.45714 0.0
H1166 H 0.95254 0.07848 0.30505 0.0
H1167 H 0.96079 0.07506 0.37445 0.0
C1168 C 0.8397 0.70548 0.07786 0.0
C1169 C 0.85081 0.70756 0.05627 0.0
C1170 C 0.83814 0.71 0.11804 0.0
C1171 C 0.83446 0.73073 0.17984 0.0
H1172 H 0.85948 0.73235 0.26576 0.0
C1173 C 0.83794 0.77054 0.29636 0.0
C1174 C 0.84016 0.76769 0.33817 0.0
C1175 C 0.83819 0.76129 0.26627 0.0
C1176 C 0.85234 0.73183 0.24228 0.0
H1177 H 0.86935 0.71505 0.06128 0.0
H1178 H 0.8666 0.72297 0.13144 0.0
H1179 H 0.86241 0.71849 0.20648 0.0
H1180 H 0.84435 0.75285 0.38125 0.0
H1181 H 0.84501 0.73669 0.32822 0.0
H1182 H 0.82462 0.74439 0.21469 0.0
C1183 C 0.8591 0.71785 0.11725 0.0
C1184 C 0.85406 0.72398 0.20831 0.0
C1185 C 0.86066 0.71337 0.07695 0.0
C1186 C 0.84254 0.75534 0.34929 0.0
C1187 C 0.84298 0.7461 0.31902 0.0
C1188 C 0.83282 0.73865 0.21349 0.0
C1189 C 0.84767 0.71663 0.13755 0.0
C1190 C 0.84523 0.72354 0.17637 0.0
C1191 C 0.84084 0.74901 0.27723 0.0
C1192 C 0.84186 0.73947 0.24454 0.0
H1193 H 0.83197 0.70092 0.06301 0.0
H1194 H 0.82929 0.70877 0.13323 0.0
H1195 H 0.82756 0.7307 0.1555 0.0
H1196 H 0.8362 0.77993 0.28662 0.0
H1197 H 0.83667 0.76381 0.23416 0.0
C1198 C 0.97635 0.08679 0.04068 0.0
C1199 C 0.97939 0.08904 0.08233 0.0
C1200 C 0.98548 0.08703 0.01013 0.0
C1201 C 0.01488 0.10129 0.98532 0.0
H1202 H 0.01597 0.07665 0.89807 0.0
C1203 C 0.04177 0.08878 0.8219 0.0
C1204 C 0.03974 0.09985 0.80013 0.0
C1205 C 0.03702 0.08719 0.86178 0.0
C1206 C 0.01594 0.08351 0.92253 0.0
H1207 H 0.99442 0.09319 0.12467 0.0
H1208 H 0.01036 0.09381 0.07092 0.0
H1209 H 0.00224 0.07365 0.95721 0.0
H1210 H 0.03207 0.11833 0.80454 0.0
H1211 H 0.02379 0.11556 0.87425 0.0
H1212 H 0.02827 0.11137 0.94975 0.0
C1213 C 0.0009 0.09179 0.06215 0.0
C1214 C 0.00799 0.08184 0.95613 0.0
C1215 C 0.99179 0.09137 0.09285 0.0
C1216 C 0.03372 0.10966 0.82036 0.0
C1217 C 0.02903 0.10809 0.86039 0.0
C1218 C 0.02274 0.10303 0.9514 0.0
C1219 C 0.99781 0.08969 0.02049 0.0
C1220 C 0.00722 0.09082 0.98743 0.0
C1221 C 0.03023 0.09669 0.88081 0.0
C1222 C 0.02319 0.09425 0.91935 0.0
H1223 H 0.9669 0.08505 0.03145 0.0
H1224 H 0.98282 0.08552 0.97814 0.0
H1225 H 0.0144 0.10838 0.00897 0.0
H1226 H 0.04647 0.08107 0.80737 0.0
H1227 H 0.03822 0.07837 0.87709 0.0
C1228 C 0.64102 0.28505 0.57364 0.0
C1229 C 0.65075 0.29072 0.55189 0.0
C1230 C 0.64302 0.28014 0.61314 0.0
C1231 C 0.66792 0.26603 0.67177 0.0
H1232 H 0.64405 0.26563 0.76148 0.0
C1233 C 0.66454 0.22691 0.7919 0.0
C1234 C 0.66226 0.23008 0.83343 0.0
C1235 C 0.66459 0.23599 0.76114 0.0
C1236 C 0.65089 0.26579 0.73692 0.0
H1237 H 0.66994 0.29652 0.55583 0.0
H1238 H 0.67338 0.28791 0.62469 0.0
H1239 H 0.6409 0.27947 0.70245 0.0
H1240 H 0.65859 0.24532 0.87543 0.0
H1241 H 0.65855 0.26115 0.82146 0.0
H1242 H 0.6777 0.25208 0.70554 0.0
C1243 C 0.66427 0.28714 0.61095 0.0
C1244 C 0.64903 0.27363 0.70307 0.0
C1245 C 0.66226 0.29212 0.57159 0.0
C1246 C 0.66037 0.24257 0.8437 0.0
C1247 C 0.66029 0.25164 0.81285 0.0
C1248 C 0.66971 0.25812 0.70539 0.0
C1249 C 0.65478 0.28077 0.63155 0.0
C1250 C 0.65742 0.27367 0.66983 0.0
C1251 C 0.66224 0.2484 0.77121 0.0
C1252 C 0.6611 0.25775 0.73792 0.0
H1253 H 0.63203 0.28388 0.55942 0.0
H1254 H 0.63554 0.27522 0.6282 0.0
H1255 H 0.67448 0.26577 0.6464 0.0
H1256 H 0.66597 0.21738 0.78291 0.0
H1257 H 0.66599 0.23321 0.72921 0.0
C1258 C 0.46519 0.89165 0.32615 0.0
C1259 C 0.45975 0.90132 0.30352 0.0
C1260 C 0.47041 0.8939 0.36503 0.0
C1261 C 0.48556 0.91887 0.42085 0.0
H1262 H 0.48511 0.89583 0.51288 0.0
C1263 C 0.50834 0.91178 0.59422 0.0
C1264 C 0.52091 0.9134 0.58441 0.0
C1265 C 0.49939 0.91184 0.56303 0.0
C1266 C 0.4852 0.90244 0.48768 0.0
H1267 H 0.45478 0.92076 0.30518 0.0
H1268 H 0.46393 0.92465 0.37303 0.0
H1269 H 0.47123 0.89259 0.45411 0.0
H1270 H 0.53387 0.91684 0.5344 0.0
H1271 H 0.51822 0.91704 0.48002 0.0
H1272 H 0.49975 0.92854 0.45391 0.0
C1273 C 0.46426 0.91537 0.36043 0.0
C1274 C 0.47734 0.90053 0.45394 0.0
C1275 C 0.45897 0.91311 0.32168 0.0
C1276 C 0.52427 0.91561 0.54301 0.0
C1277 C 0.5153 0.91576 0.51186 0.0
C1278 C 0.49349 0.92072 0.45443 0.0
C1279 C 0.47034 0.90587 0.38195 0.0
C1280 C 0.47758 0.90861 0.41988 0.0
C1281 C 0.5028 0.91361 0.52146 0.0
C1282 C 0.49354 0.91241 0.48786 0.0
H1283 H 0.4659 0.88246 0.31311 0.0
H1284 H 0.4751 0.8864 0.38079 0.0
H1285 H 0.48604 0.92519 0.39486 0.0
H1286 H 0.50544 0.91008 0.62585 0.0
H1287 H 0.48981 0.91029 0.57135 0.0
C1288 C 0.83505 0.23819 0.17103 0.0
C1289 C 0.83804 0.2257 0.1777 0.0
C1290 C 0.83642 0.24683 0.20296 0.0
C1291 C 0.85542 0.25349 0.29077 0.0
H1292 H 0.82815 0.27181 0.33879 0.0
C1293 C 0.8586 0.27529 0.45174 0.0
C1294 C 0.85126 0.28555 0.46188 0.0
C1295 C 0.85782 0.26989 0.4126 0.0
C1296 C 0.83595 0.26703 0.32515 0.0
H1297 H 0.84454 0.2124 0.22302 0.0
H1298 H 0.84724 0.22758 0.2784 0.0
H1299 H 0.82452 0.25848 0.27889 0.0
H1300 H 0.83801 0.29878 0.43793 0.0
H1301 H 0.83696 0.28962 0.36886 0.0
H1302 H 0.86695 0.26204 0.33616 0.0
C1303 C 0.84375 0.23062 0.2486 0.0
C1304 C 0.83381 0.25934 0.29108 0.0
C1305 C 0.84213 0.22195 0.21705 0.0
C1306 C 0.84371 0.29081 0.43113 0.0
C1307 C 0.84303 0.28548 0.39167 0.0
C1308 C 0.85762 0.26135 0.32423 0.0
C1309 C 0.84105 0.24312 0.24162 0.0
C1310 C 0.84347 0.25226 0.27448 0.0
C1311 C 0.8498 0.27473 0.38232 0.0
C1312 C 0.84784 0.26793 0.34273 0.0
H1313 H 0.83186 0.24132 0.14099 0.0
H1314 H 0.83428 0.25645 0.19709 0.0
H1315 H 0.86302 0.24822 0.27791 0.0
H1316 H 0.86451 0.27099 0.47469 0.0
H1317 H 0.86305 0.26153 0.40698 0.0
C1318 C 0.45537 0.09398 0.16855 0.0
C1319 C 0.46058 0.10189 0.19837 0.0
C1320 C 0.46015 0.09359 0.12826 0.0
C1321 C 0.48261 0.1093 0.0571 0.0
H1322 H 0.48741 0.07612 0.01438 0.0
C1323 C 0.5229 0.09513 0.95163 0.0
C1324 C 0.51955 0.09023 0.91291 0.0
C1325 C 0.51402 0.09674 0.98252 0.0
C1326 C 0.48599 0.08544 0.02577 0.0
H1327 H 0.47435 0.11614 0.20861 0.0
H1328 H 0.48289 0.1152 0.13942 0.0
H1329 H 0.47417 0.07935 0.07472 0.0
H1330 H 0.50443 0.08272 0.87661 0.0
H1331 H 0.48894 0.08512 0.93168 0.0
H1332 H 0.49518 0.11517 0.00963 0.0
C1333 C 0.47499 0.10944 0.14644 0.0
C1334 C 0.47834 0.08733 0.06011 0.0
C1335 C 0.47013 0.10992 0.18643 0.0
C1336 C 0.50725 0.08654 0.90619 0.0
C1337 C 0.49841 0.0879 0.93751 0.0
C1338 C 0.49044 0.10735 0.02334 0.0
C1339 C 0.4703 0.10102 0.11714 0.0
C1340 C 0.4768 0.09926 0.07688 0.0
C1341 C 0.50171 0.09325 0.97554 0.0
C1342 C 0.49238 0.09538 0.00804 0.0
H1343 H 0.44792 0.08775 0.17672 0.0
H1344 H 0.45613 0.08719 0.10625 0.0
H1345 H 0.48141 0.11864 0.06841 0.0
H1346 H 0.53229 0.09811 0.9576 0.0
H1347 H 0.51675 0.10078 0.01187 0.0
C1348 C 0.6423 0.71512 0.9213 0.0
C1349 C 0.65215 0.7097 0.9431 0.0
C1350 C 0.64424 0.72033 0.88221 0.0
C1351 C 0.65025 0.72737 0.79284 0.0
H1352 H 0.67823 0.74982 0.79135 0.0
C1353 C 0.66096 0.75856 0.65228 0.0
C1354 C 0.66264 0.77111 0.66217 0.0
C1355 C 0.66103 0.74958 0.68339 0.0
C1356 C 0.67042 0.74355 0.79125 0.0
H1357 H 0.67157 0.70471 0.93968 0.0
H1358 H 0.67493 0.71383 0.8715 0.0
H1359 H 0.67528 0.73601 0.85031 0.0
H1360 H 0.66614 0.78401 0.71227 0.0
H1361 H 0.6664 0.76832 0.76648 0.0
H1362 H 0.64517 0.73525 0.73437 0.0
C1363 C 0.66575 0.71417 0.88491 0.0
C1364 C 0.6688 0.73556 0.82477 0.0
C1365 C 0.66379 0.70889 0.92386 0.0
C1366 C 0.66487 0.77443 0.70359 0.0
C1367 C 0.66505 0.76544 0.73464 0.0
C1368 C 0.65194 0.73531 0.75912 0.0
C1369 C 0.65608 0.72026 0.86427 0.0
C1370 C 0.65856 0.72756 0.82629 0.0
C1371 C 0.66291 0.75296 0.72493 0.0
C1372 C 0.6619 0.74365 0.75844 0.0
H1373 H 0.6332 0.71584 0.93518 0.0
H1374 H 0.63662 0.72502 0.86712 0.0
H1375 H 0.64232 0.72126 0.79312 0.0
H1376 H 0.65923 0.75569 0.62064 0.0
H1377 H 0.65947 0.74001 0.67502 0.0
C1378 C 0.98971 0.90996 0.40283 0.0
C1379 C 0.97782 0.91479 0.40991 0.0
C1380 C 0.99908 0.91158 0.43218 0.0
C1381 C 0.00886 0.93061 0.51997 0.0
H1382 H 0.02158 0.90035 0.56817 0.0
C1383 C 0.02317 0.92759 0.68882 0.0
C1384 C 0.03218 0.91912 0.70197 0.0
C1385 C 0.01978 0.92828 0.64729 0.0
C1386 C 0.01844 0.90893 0.55449 0.0
H1387 H 0.96661 0.92558 0.45222 0.0
H1388 H 0.98301 0.92862 0.50297 0.0
H1389 H 0.00946 0.89946 0.50451 0.0
H1390 H 0.04523 0.90518 0.68149 0.0
H1391 H 0.03935 0.90648 0.60828 0.0
H1392 H 0.01757 0.9401 0.57017 0.0
C1393 C 0.98503 0.9235 0.47489 0.0
C1394 C 0.01145 0.90839 0.5181 0.0
C1395 C 0.97561 0.92167 0.44602 0.0
C1396 C 0.03818 0.91174 0.67228 0.0
C1397 C 0.03478 0.91245 0.63044 0.0
C1398 C 0.01599 0.93117 0.55596 0.0
C1399 C 0.99678 0.91831 0.46855 0.0
C1400 C 0.00619 0.91918 0.50158 0.0
C1401 C 0.02536 0.92057 0.61763 0.0
C1402 C 0.02037 0.92028 0.57472 0.0
H1403 H 0.99166 0.90459 0.37525 0.0
H1404 H 0.00807 0.90749 0.42671 0.0
H1405 H 0.00502 0.93907 0.50739 0.0
H1406 H 0.01841 0.93347 0.71082 0.0
H1407 H 0.01234 0.93449 0.63887 0.0
C1408 C 0.63953 0.77733 0.4383 0.0
C1409 C 0.64728 0.78709 0.45035 0.0
C1410 C 0.64031 0.77238 0.39849 0.0
C1411 C 0.66267 0.76932 0.31269 0.0
H1412 H 0.63508 0.75236 0.26119 0.0
C1413 C 0.66265 0.7406 0.15716 0.0
C1414 C 0.65987 0.72813 0.16523 0.0
C1415 C 0.6614 0.74948 0.18841 0.0
C1416 C 0.64282 0.75716 0.27514 0.0
H1417 H 0.66132 0.79994 0.42914 0.0
H1418 H 0.66241 0.79154 0.35898 0.0
H1419 H 0.63135 0.76599 0.32016 0.0
H1420 H 0.6538 0.71515 0.2123 0.0
H1421 H 0.65132 0.73075 0.26641 0.0
H1422 H 0.67406 0.76041 0.26703 0.0
C1423 C 0.65598 0.78745 0.38076 0.0
C1424 C 0.64074 0.76489 0.30904 0.0
C1425 C 0.65529 0.79234 0.42087 0.0
C1426 C 0.65607 0.72467 0.20521 0.0
C1427 C 0.65457 0.73357 0.23608 0.0
C1428 C 0.66471 0.76176 0.27822 0.0
C1429 C 0.64876 0.77717 0.36946 0.0
C1430 C 0.65069 0.77073 0.32919 0.0
C1431 C 0.6571 0.74603 0.22775 0.0
C1432 C 0.65484 0.75535 0.2601 0.0
H1433 H 0.63326 0.77306 0.46022 0.0
H1434 H 0.63472 0.76436 0.39134 0.0
H1435 H 0.67059 0.77354 0.32759 0.0
H1436 H 0.66561 0.74351 0.1266 0.0
H1437 H 0.66341 0.75907 0.18156 0.0
C1438 C 0.46577 0.39274 0.6721 0.0
C1439 C 0.46051 0.40249 0.69479 0.0
C1440 C 0.47096 0.3949 0.6331 0.0
C1441 C 0.47795 0.40139 0.54416 0.0
H1442 H 0.50068 0.42914 0.54406 0.0
C1443 C 0.50922 0.41216 0.40407 0.0
C1444 C 0.52179 0.41366 0.41399 0.0
C1445 C 0.50023 0.41233 0.43516 0.0
C1446 C 0.49433 0.4214 0.54357 0.0
H1447 H 0.45577 0.42199 0.69306 0.0
H1448 H 0.46484 0.42572 0.62501 0.0
H1449 H 0.48691 0.426 0.60306 0.0
H1450 H 0.53473 0.41702 0.46409 0.0
H1451 H 0.51903 0.41741 0.51831 0.0
H1452 H 0.48571 0.39654 0.48532 0.0
C1453 C 0.46508 0.41645 0.63766 0.0
C1454 C 0.48636 0.41967 0.57712 0.0
C1455 C 0.45984 0.41428 0.67654 0.0
C1456 C 0.52513 0.41587 0.4554 0.0
C1457 C 0.51613 0.41613 0.48645 0.0
C1458 C 0.48586 0.40318 0.51045 0.0
C1459 C 0.47102 0.40686 0.61611 0.0
C1460 C 0.47827 0.4095 0.57815 0.0
C1461 C 0.50363 0.41411 0.47674 0.0
C1462 C 0.49431 0.41305 0.51025 0.0
H1463 H 0.46639 0.38354 0.68521 0.0
H1464 H 0.47553 0.38733 0.61732 0.0
H1465 H 0.47176 0.39353 0.54404 0.0
H1466 H 0.50633 0.41047 0.37242 0.0
H1467 H 0.49065 0.41087 0.42676 0.0
C1468 C 0.83638 0.25868 0.66303 0.0
C1469 C 0.83489 0.27127 0.67256 0.0
C1470 C 0.83628 0.2498 0.69442 0.0
C1471 C 0.82728 0.2441 0.80277 0.0
H1472 H 0.85522 0.2216 0.80371 0.0
C1473 C 0.85543 0.21512 0.93161 0.0
C1474 C 0.84558 0.20962 0.9532 0.0
C1475 C 0.85346 0.22055 0.89287 0.0
C1476 C 0.84734 0.22777 0.8037 0.0
H1477 H 0.83165 0.28437 0.72229 0.0
H1478 H 0.83137 0.26883 0.77707 0.0
H1479 H 0.85229 0.23558 0.74502 0.0
H1480 H 0.82613 0.20473 0.94979 0.0
H1481 H 0.82273 0.21424 0.88225 0.0
H1482 H 0.82254 0.23658 0.86201 0.0
C1483 C 0.83259 0.26585 0.74527 0.0
C1484 C 0.8456 0.2357 0.77002 0.0
C1485 C 0.83279 0.27475 0.71391 0.0
C1486 C 0.83391 0.20898 0.93413 0.0
C1487 C 0.83192 0.21447 0.89554 0.0
C1488 C 0.82895 0.2361 0.83625 0.0
C1489 C 0.8346 0.25332 0.73591 0.0
C1490 C 0.83569 0.2441 0.76962 0.0
C1491 C 0.8416 0.22061 0.8751 0.0
C1492 C 0.83912 0.22802 0.83739 0.0
H1493 H 0.83799 0.25569 0.63145 0.0
H1494 H 0.83772 0.24019 0.68631 0.0
H1495 H 0.81951 0.25042 0.80309 0.0
H1496 H 0.86454 0.21572 0.94538 0.0
H1497 H 0.86108 0.22527 0.87789 0.0
C1498 C 0.0335 0.60977 0.17457 0.0
C1499 C 0.03952 0.60014 0.19565 0.0
C1500 C 0.02844 0.60778 0.13528 0.0
C1501 C 0.02183 0.60179 0.04526 0.0
H1502 H 0.00072 0.57279 0.04303 0.0
C1503 C 0.99121 0.5895 0.90434 0.0
C1504 C 0.97872 0.58744 0.91432 0.0
C1505 C 0.00018 0.5899 0.93547 0.0
C1506 C 0.00663 0.58088 0.04313 0.0
H1507 H 0.04574 0.58111 0.19075 0.0
H1508 H 0.03684 0.57765 0.12231 0.0
H1509 H 0.01444 0.57623 0.102 0.0
H1510 H 0.96592 0.58378 0.96464 0.0
H1511 H 0.98161 0.58428 0.01884 0.0
H1512 H 0.01371 0.60661 0.98688 0.0
C1513 C 0.03594 0.5867 0.13639 0.0
C1514 C 0.01456 0.58279 0.07665 0.0
C1515 C 0.04109 0.58871 0.1755 0.0
C1516 C 0.97545 0.58534 0.95587 0.0
C1517 C 0.98445 0.58559 0.98692 0.0
C1518 C 0.01398 0.5998 0.01148 0.0
C1519 C 0.02924 0.59609 0.11647 0.0
C1520 C 0.02206 0.59339 0.07845 0.0
C1521 C 0.99686 0.58808 0.97709 0.0
C1522 C 0.00612 0.58946 0.01055 0.0
H1523 H 0.03219 0.61869 0.18917 0.0
H1524 H 0.02327 0.61517 0.12072 0.0
H1525 H 0.02755 0.61001 0.04581 0.0
H1526 H 0.99402 0.59116 0.8726 0.0
H1527 H 0.0097 0.59175 0.92706 0.0
C1528 C 0.65733 0.25835 0.34232 0.0
C1529 C 0.65969 0.27077 0.33226 0.0
C1530 C 0.65691 0.24934 0.3113 0.0
C1531 C 0.66678 0.24258 0.2049 0.0
H1532 H 0.63745 0.222 0.19908 0.0
C1533 C 0.63911 0.21605 0.07012 0.0
C1534 C 0.64895 0.21002 0.05015 0.0
C1535 C 0.64067 0.22099 0.1098 0.0
C1536 C 0.64572 0.22762 0.20054 0.0
H1537 H 0.66371 0.28343 0.28188 0.0
H1538 H 0.66319 0.26768 0.22793 0.0
H1539 H 0.64037 0.2359 0.25818 0.0
H1540 H 0.66785 0.20357 0.05751 0.0
H1541 H 0.67054 0.21226 0.12663 0.0
H1542 H 0.67199 0.23461 0.14681 0.0
C1543 C 0.66168 0.26492 0.25982 0.0
C1544 C 0.64744 0.2355 0.2344 0.0
C1545 C 0.66195 0.27395 0.29073 0.0
C1546 C 0.6601 0.20826 0.07185 0.0
C1547 C 0.66168 0.21328 0.11137 0.0
C1548 C 0.66515 0.23461 0.17135 0.0
C1549 C 0.659 0.25257 0.26974 0.0
C1550 C 0.65785 0.24325 0.23639 0.0
C1551 C 0.65212 0.22004 0.13013 0.0
C1552 C 0.65448 0.22723 0.16841 0.0
H1553 H 0.65552 0.25561 0.37404 0.0
H1554 H 0.65488 0.23987 0.31975 0.0
H1555 H 0.67493 0.24839 0.20587 0.0
H1556 H 0.63039 0.2175 0.05434 0.0
H1557 H 0.63315 0.22621 0.12347 0.0
C1558 C 0.9755 0.41313 0.54284 0.0
C1559 C 0.97874 0.41079 0.58426 0.0
C1560 C 0.98452 0.41322 0.51187 0.0
C1561 C 0.00661 0.41887 0.45646 0.0
H1562 H 0.028 0.39014 0.45016 0.0
C1563 C 0.04049 0.41284 0.32144 0.0
C1564 C 0.039 0.40156 0.30034 0.0
C1565 C 0.03561 0.41442 0.36119 0.0
C1566 C 0.02215 0.39826 0.45174 0.0
H1567 H 0.99404 0.40687 0.62578 0.0
H1568 H 0.00978 0.40685 0.57138 0.0
H1569 H 0.01419 0.39272 0.50968 0.0
H1570 H 0.03214 0.38279 0.3058 0.0
H1571 H 0.02369 0.38554 0.37525 0.0
H1572 H 0.01423 0.42423 0.398 0.0
C1573 C 0.00025 0.40866 0.56305 0.0
C1574 C 0.01432 0.39977 0.48586 0.0
C1575 C 0.99124 0.40873 0.59415 0.0
C1576 C 0.03338 0.39161 0.3211 0.0
C1577 C 0.02858 0.39317 0.36099 0.0
C1578 C 0.01452 0.41743 0.42261 0.0
C1579 C 0.99695 0.41081 0.52158 0.0
C1580 C 0.00627 0.40995 0.48804 0.0
C1581 C 0.02925 0.40472 0.38079 0.0
C1582 C 0.02218 0.40698 0.41945 0.0
H1583 H 0.96597 0.41467 0.53409 0.0
H1584 H 0.9817 0.41475 0.48006 0.0
H1585 H 0.00057 0.42685 0.45754 0.0
H1586 H 0.04483 0.42067 0.30645 0.0
H1587 H 0.0364 0.42337 0.37599 0.0
C1588 C 0.8395 0.74172 0.84854 0.0
C1589 C 0.83776 0.72921 0.83825 0.0
C1590 C 0.83941 0.7508 0.81771 0.0
C1591 C 0.82968 0.75706 0.71028 0.0
H1592 H 0.85787 0.77921 0.70703 0.0
C1593 C 0.85775 0.78454 0.57821 0.0
C1594 C 0.84788 0.78974 0.55588 0.0
C1595 C 0.85584 0.77973 0.61789 0.0
C1596 C 0.84991 0.77315 0.70772 0.0
H1597 H 0.83424 0.71648 0.78766 0.0
H1598 H 0.83393 0.73232 0.73407 0.0
H1599 H 0.85513 0.76534 0.76618 0.0
H1600 H 0.82848 0.79483 0.55898 0.0
H1601 H 0.82518 0.7864 0.62821 0.0
H1602 H 0.82469 0.76449 0.6512 0.0
C1603 C 0.83532 0.73511 0.76599 0.0
C1604 C 0.84828 0.76528 0.74167 0.0
C1605 C 0.83553 0.72602 0.79671 0.0
C1606 C 0.83627 0.79079 0.57519 0.0
C1607 C 0.83435 0.78592 0.61477 0.0
C1608 C 0.83124 0.76499 0.67654 0.0
C1609 C 0.83745 0.74756 0.77607 0.0
C1610 C 0.83831 0.75695 0.74277 0.0
C1611 C 0.84401 0.77998 0.63595 0.0
C1612 C 0.84153 0.77291 0.67445 0.0
H1613 H 0.84125 0.74449 0.88028 0.0
H1614 H 0.841 0.76034 0.82635 0.0
H1615 H 0.82186 0.75081 0.71051 0.0
H1616 H 0.86682 0.78364 0.5643 0.0
H1617 H 0.86346 0.77515 0.63335 0.0
C1618 C 0.52353 0.5943 0.03984 0.0
C1619 C 0.52013 0.5902 0.07953 0.0
C1620 C 0.5146 0.59592 0.00915 0.0
C1621 C 0.48625 0.58557 0.96757 0.0
H1622 H 0.48254 0.61869 0.92324 0.0
C1623 C 0.45607 0.59441 0.82372 0.0
C1624 C 0.46151 0.6021 0.79372 0.0
C1625 C 0.46082 0.59397 0.86404 0.0
C1626 C 0.48349 0.60937 0.93505 0.0
H1627 H 0.50481 0.58409 0.11783 0.0
H1628 H 0.48919 0.58649 0.06313 0.0
H1629 H 0.49611 0.61514 0.98249 0.0
H1630 H 0.47574 0.61587 0.7831 0.0
H1631 H 0.48422 0.61484 0.85238 0.0
H1632 H 0.47439 0.57956 0.9186 0.0
C1633 C 0.49876 0.58865 0.05639 0.0
C1634 C 0.49119 0.60739 0.9691 0.0
C1635 C 0.50768 0.58728 0.08749 0.0
C1636 C 0.47132 0.60983 0.80543 0.0
C1637 C 0.47614 0.6093 0.84546 0.0
C1638 C 0.47871 0.5875 0.93295 0.0
C1639 C 0.50216 0.59322 0.01733 0.0
C1640 C 0.49282 0.59544 0.98497 0.0
C1641 C 0.47116 0.60114 0.87503 0.0
C1642 C 0.47751 0.59939 0.91557 0.0
H1643 H 0.53304 0.59667 0.03285 0.0
H1644 H 0.51739 0.59936 0.97901 0.0
H1645 H 0.48745 0.57628 0.9794 0.0
H1646 H 0.44841 0.58841 0.81572 0.0
H1647 H 0.45658 0.58776 0.88623 0.0
C1648 C 0.33704 0.20767 0.57085 0.0
C1649 C 0.3486 0.20905 0.55141 0.0
C1650 C 0.33499 0.21256 0.61033 0.0
C1651 C 0.33134 0.23353 0.67179 0.0
H1652 H 0.35513 0.23368 0.76173 0.0
C1653 C 0.3347 0.27247 0.79262 0.0
C1654 C 0.33695 0.26926 0.83413 0.0
C1655 C 0.33467 0.26343 0.76173 0.0
C1656 C 0.34831 0.2336 0.73712 0.0
H1657 H 0.36734 0.21577 0.55953 0.0
H1658 H 0.36376 0.22426 0.62849 0.0
H1659 H 0.35827 0.21993 0.70246 0.0
H1660 H 0.34062 0.25398 0.87594 0.0
H1661 H 0.34069 0.2382 0.82175 0.0
H1662 H 0.32159 0.24747 0.70575 0.0
C1663 C 0.35628 0.21942 0.61315 0.0
C1664 C 0.35016 0.2258 0.70311 0.0
C1665 C 0.35831 0.21461 0.57354 0.0
C1666 C 0.33885 0.25676 0.84424 0.0
C1667 C 0.33895 0.24773 0.81325 0.0
C1668 C 0.32955 0.2414 0.70556 0.0
C1669 C 0.34448 0.21883 0.63132 0.0
C1670 C 0.34181 0.22585 0.66977 0.0
C1671 C 0.33701 0.251 0.77163 0.0
C1672 C 0.33814 0.24168 0.73818 0.0
H1673 H 0.32937 0.20337 0.55477 0.0
H1674 H 0.32585 0.21182 0.62386 0.0
H1675 H 0.3248 0.23388 0.64637 0.0
H1676 H 0.33328 0.282 0.78372 0.0
H1677 H 0.33328 0.26624 0.72984 0.0
C1678 C 0.49038 0.58682 0.59296 0.0
C1679 C 0.47783 0.58515 0.58308 0.0
C1680 C 0.49936 0.58669 0.56186 0.0
C1681 C 0.50536 0.57744 0.45366 0.0
H1682 H 0.52762 0.60556 0.45237 0.0
C1683 C 0.53352 0.60613 0.32424 0.0
C1684 C 0.53888 0.59638 0.30174 0.0
C1685 C 0.52839 0.60399 0.36333 0.0
C1686 C 0.52151 0.59762 0.45248 0.0
H1687 H 0.46492 0.58155 0.53305 0.0
H1688 H 0.48062 0.58123 0.47884 0.0
H1689 H 0.51372 0.60252 0.51123 0.0
H1690 H 0.54383 0.57694 0.30389 0.0
H1691 H 0.53485 0.57326 0.37212 0.0
H1692 H 0.5128 0.57278 0.39427 0.0
C1693 C 0.48351 0.5826 0.51066 0.0
C1694 C 0.51363 0.59582 0.48627 0.0
C1695 C 0.47451 0.58283 0.54172 0.0
C1696 C 0.5397 0.58464 0.32027 0.0
C1697 C 0.5345 0.5825 0.35925 0.0
C1698 C 0.51329 0.57918 0.42004 0.0
C1699 C 0.49599 0.58478 0.52032 0.0
C1700 C 0.50529 0.58586 0.48677 0.0
C1701 C 0.52847 0.59207 0.38062 0.0
C1702 C 0.52127 0.58943 0.4187 0.0
H1703 H 0.49325 0.5886 0.62457 0.0
H1704 H 0.50894 0.58827 0.57022 0.0
H1705 H 0.49909 0.56962 0.45341 0.0
H1706 H 0.53279 0.61528 0.31092 0.0
H1707 H 0.52374 0.61154 0.37897 0.0
C1708 C 0.16562 0.72555 0.2945 0.0
C1709 C 0.16342 0.72883 0.33599 0.0
C1710 C 0.16536 0.73452 0.26337 0.0
C1711 C 0.15093 0.76396 0.2387 0.0
H1712 H 0.17414 0.76418 0.14706 0.0
C1713 C 0.16112 0.79033 0.07258 0.0
C1714 C 0.14955 0.78871 0.05342 0.0
C1715 C 0.16339 0.78537 0.11182 0.0
C1716 C 0.16768 0.76437 0.17272 0.0
H1717 H 0.15959 0.74414 0.37752 0.0
H1718 H 0.15902 0.75977 0.32294 0.0
H1719 H 0.17787 0.75069 0.20641 0.0
H1720 H 0.13101 0.78148 0.06177 0.0
H1721 H 0.13497 0.77288 0.13036 0.0
H1722 H 0.14054 0.77736 0.20436 0.0
C1723 C 0.16093 0.75026 0.31463 0.0
C1724 C 0.16976 0.75657 0.20647 0.0
C1725 C 0.16132 0.74132 0.34584 0.0
C1726 C 0.14004 0.78283 0.07558 0.0
C1727 C 0.14229 0.77795 0.11497 0.0
C1728 C 0.14878 0.77168 0.20473 0.0
C1729 C 0.16279 0.74692 0.27304 0.0
C1730 C 0.1613 0.75613 0.23944 0.0
C1731 C 0.15411 0.77881 0.13285 0.0
C1732 C 0.15703 0.77181 0.17111 0.0
H1733 H 0.16721 0.71603 0.28583 0.0
H1734 H 0.1667 0.73166 0.2315 0.0
H1735 H 0.1442 0.76373 0.26358 0.0
H1736 H 0.16863 0.79488 0.05648 0.0
H1737 H 0.17253 0.78631 0.12515 0.0
C1738 C 0.96345 0.39069 0.82675 0.0
C1739 C 0.95743 0.40013 0.80465 0.0
C1740 C 0.96758 0.39276 0.86721 0.0
C1741 C 0.97897 0.41836 0.92902 0.0
H1742 H 0.9812 0.39374 0.01606 0.0
C1743 C 0.00396 0.41072 0.09863 0.0
C1744 C 0.01623 0.41337 0.0871 0.0
C1745 C 0.99458 0.41039 0.06878 0.0
C1746 C 0.98049 0.40078 0.99233 0.0
H1747 H 0.95011 0.41878 0.80891 0.0
H1748 H 0.95734 0.42234 0.87945 0.0
H1749 H 0.96774 0.39005 0.95634 0.0
H1750 H 0.02815 0.41812 0.03541 0.0
H1751 H 0.01181 0.41779 0.98375 0.0
H1752 H 0.99207 0.42886 0.96412 0.0
C1753 C 0.95901 0.41342 0.86526 0.0
C1754 C 0.97287 0.39863 0.95805 0.0
C1755 C 0.95484 0.41135 0.82489 0.0
C1756 C 0.01882 0.41613 0.04546 0.0
C1757 C 0.00944 0.41598 0.01582 0.0
C1758 C 0.98665 0.42045 0.96304 0.0
C1759 C 0.96579 0.4043 0.8863 0.0
C1760 C 0.97226 0.40727 0.92559 0.0
C1761 C 0.99728 0.4129 0.02703 0.0
C1762 C 0.98773 0.41155 0.99448 0.0
H1763 H 0.96552 0.38192 0.81214 0.0
H1764 H 0.97284 0.38557 0.88253 0.0
H1765 H 0.9788 0.42514 0.90434 0.0
H1766 H 0.00167 0.40852 0.13047 0.0
H1767 H 0.98527 0.40804 0.07822 0.0
C1768 C 0.33899 0.78966 0.92338 0.0
C1769 C 0.35002 0.79035 0.94636 0.0
C1770 C 0.33884 0.78407 0.88438 0.0
C1771 C 0.35573 0.75992 0.82912 0.0
H1772 H 0.3335 0.76811 0.73888 0.0
C1773 C 0.34186 0.72385 0.70802 0.0
C1774 C 0.34182 0.72751 0.66626 0.0
C1775 C 0.34299 0.73261 0.73951 0.0
C1776 C 0.33983 0.76576 0.76366 0.0
H1777 H 0.36974 0.78676 0.94474 0.0
H1778 H 0.36952 0.77718 0.87634 0.0
H1779 H 0.33618 0.78262 0.7963 0.0
H1780 H 0.34256 0.74328 0.62479 0.0
H1781 H 0.34458 0.75861 0.67995 0.0
H1782 H 0.35939 0.74309 0.79675 0.0
C1783 C 0.36093 0.78068 0.88899 0.0
C1784 C 0.34131 0.77403 0.79664 0.0
C1785 C 0.36107 0.78624 0.92808 0.0
C1786 C 0.34255 0.74017 0.6567 0.0
C1787 C 0.34367 0.74895 0.68827 0.0
C1788 C 0.35425 0.75167 0.79629 0.0
C1789 C 0.34973 0.77909 0.86744 0.0
C1790 C 0.34915 0.77111 0.83003 0.0
C1791 C 0.34413 0.74524 0.72998 0.0
C1792 C 0.34613 0.75439 0.76356 0.0
H1793 H 0.33031 0.79281 0.93645 0.0
H1794 H 0.33005 0.78296 0.86874 0.0
H1795 H 0.36171 0.75728 0.85456 0.0
H1796 H 0.34131 0.71418 0.71647 0.0
H1797 H 0.34307 0.72948 0.77141 0.0
C1798 C 0.96465 0.60903 0.6756 0.0
C1799 C 0.95901 0.59902 0.69588 0.0
C1800 C 0.96978 0.60752 0.63615 0.0
C1801 C 0.98453 0.58342 0.57567 0.0
H1802 H 0.98491 0.60797 0.48812 0.0
C1803 C 0.00798 0.59182 0.40444 0.0
C1804 C 0.02048 0.58983 0.41443 0.0
C1805 C 0.99897 0.59196 0.43549 0.0
C1806 C 0.98478 0.60097 0.5121 0.0
H1807 H 0.95346 0.57983 0.68932 0.0
H1808 H 0.96245 0.57723 0.62058 0.0
H1809 H 0.97086 0.61051 0.54701 0.0
H1810 H 0.03327 0.58615 0.46473 0.0
H1811 H 0.01752 0.58619 0.51875 0.0
H1812 H 0.99869 0.57407 0.54148 0.0
C1813 C 0.96303 0.58619 0.63544 0.0
C1814 C 0.97681 0.60246 0.54585 0.0
C1815 C 0.95784 0.58771 0.67473 0.0
C1816 C 0.02373 0.58763 0.45593 0.0
C1817 C 0.0147 0.58762 0.48688 0.0
C1818 C 0.99257 0.582 0.54219 0.0
C1819 C 0.9694 0.59596 0.61636 0.0
C1820 C 0.97674 0.59379 0.57825 0.0
C1821 C 0.00227 0.58996 0.47704 0.0
C1822 C 0.99292 0.59085 0.51043 0.0
H1823 H 0.96565 0.61788 0.69095 0.0
H1824 H 0.97468 0.61521 0.62226 0.0
H1825 H 0.98478 0.57665 0.60041 0.0
H1826 H 0.00517 0.59357 0.37275 0.0
H1827 H 0.98943 0.5937 0.42707 0.0
C1828 C 0.16359 0.25858 0.16011 0.0
C1829 C 0.16076 0.27105 0.16793 0.0
C1830 C 0.16252 0.24977 0.19167 0.0
C1831 C 0.14418 0.24247 0.27957 0.0
H1832 H 0.17187 0.22531 0.32959 0.0
C1833 C 0.14116 0.2216 0.44182 0.0
C1834 C 0.14863 0.21151 0.45277 0.0
C1835 C 0.14199 0.22683 0.40242 0.0
C1836 C 0.16397 0.22976 0.31538 0.0
H1837 H 0.15487 0.28413 0.21497 0.0
H1838 H 0.15271 0.26866 0.26963 0.0
H1839 H 0.17527 0.2385 0.2691 0.0
H1840 H 0.16225 0.19844 0.43007 0.0
H1841 H 0.16341 0.20733 0.36059 0.0
H1842 H 0.13279 0.23379 0.3251 0.0
C1843 C 0.15585 0.26578 0.23923 0.0
C1844 C 0.16597 0.23736 0.28097 0.0
C1845 C 0.15716 0.2746 0.20803 0.0
C1846 C 0.15643 0.20628 0.42263 0.0
C1847 C 0.15717 0.21145 0.38293 0.0
C1848 C 0.14213 0.23471 0.31339 0.0
C1849 C 0.15837 0.2533 0.23112 0.0
C1850 C 0.15614 0.24403 0.26369 0.0
C1851 C 0.15019 0.22199 0.37269 0.0
C1852 C 0.15206 0.22858 0.33265 0.0
H1853 H 0.16641 0.2556 0.12947 0.0
H1854 H 0.16452 0.24017 0.18497 0.0
H1855 H 0.13645 0.24747 0.26625 0.0
H1856 H 0.13507 0.22588 0.46427 0.0
H1857 H 0.1366 0.23504 0.39611 0.0
C1858 C 0.54313 0.40416 0.17334 0.0
C1859 C 0.53772 0.39655 0.20364 0.0
C1860 C 0.53827 0.40458 0.13319 0.0
C1861 C 0.51526 0.38925 0.06317 0.0
H1862 H 0.51158 0.42229 0.01806 0.0
C1863 C 0.47539 0.40422 0.95741 0.0
C1864 C 0.47886 0.40846 0.91794 0.0
C1865 C 0.48426 0.40259 0.98829 0.0
C1866 C 0.51269 0.41301 0.03012 0.0
H1867 H 0.52341 0.38291 0.21494 0.0
H1868 H 0.51473 0.38392 0.14595 0.0
H1869 H 0.52469 0.41901 0.07871 0.0
H1870 H 0.49422 0.4148 0.88026 0.0
H1871 H 0.50972 0.41236 0.93529 0.0
H1872 H 0.50252 0.38351 0.01607 0.0
C1873 C 0.52287 0.3894 0.15251 0.0
C1874 C 0.52026 0.41108 0.06465 0.0
C1875 C 0.52781 0.38888 0.19238 0.0
C1876 C 0.4913 0.4115 0.91042 0.0
C1877 C 0.50015 0.41011 0.94172 0.0
C1878 C 0.50752 0.39124 0.02922 0.0
C1879 C 0.52783 0.39748 0.12265 0.0
C1880 C 0.52139 0.39921 0.08228 0.0
C1881 C 0.4967 0.4054 0.98054 0.0
C1882 C 0.50599 0.40317 0.01306 0.0
H1883 H 0.55086 0.4101 0.181 0.0
H1884 H 0.54249 0.41072 0.11076 0.0
H1885 H 0.51614 0.37995 0.07516 0.0
H1886 H 0.46588 0.40176 0.96405 0.0
H1887 H 0.48142 0.39904 0.01824 0.0
C1888 C 0.15484 0.34487 0.14657 0.0
C1889 C 0.15715 0.338 0.11042 0.0
C1890 C 0.14908 0.3564 0.14431 0.0
C1891 C 0.12793 0.3731 0.07434 0.0
H1892 H 0.12933 0.39765 0.16186 0.0
C1893 C 0.09069 0.40523 0.15721 0.0
C1894 C 0.08483 0.41044 0.12244 0.0
C1895 C 0.10234 0.39973 0.15338 0.0
C1896 C 0.12893 0.39092 0.13703 0.0
H1897 H 0.15635 0.33837 0.04329 0.0
H1898 H 0.14679 0.35873 0.03914 0.0
H1899 H 0.14543 0.38185 0.1573 0.0
H1900 H 0.08713 0.4149 0.0572 0.0
H1901 H 0.10733 0.40516 0.05064 0.0
H1902 H 0.11136 0.38207 0.05449 0.0
C1903 C 0.14895 0.355 0.06944 0.0
C1904 C 0.13809 0.38182 0.13449 0.0
C1905 C 0.15451 0.34335 0.07175 0.0
C1906 C 0.09129 0.41088 0.08458 0.0
C1907 C 0.10287 0.40528 0.08071 0.0
C1908 C 0.11892 0.3823 0.0765 0.0
C1909 C 0.14567 0.36144 0.10577 0.0
C1910 C 0.13746 0.37251 0.10399 0.0
C1911 C 0.10829 0.39926 0.11468 0.0
C1912 C 0.1191 0.39105 0.10861 0.0
H1913 H 0.15675 0.34103 0.17692 0.0
H1914 H 0.14663 0.36093 0.17306 0.0
H1915 H 0.12692 0.36603 0.05084 0.0
H1916 H 0.08603 0.40481 0.1869 0.0
H1917 H 0.10628 0.3951 0.18007 0.0
C1918 C 0.84216 0.84249 0.34561 0.0
C1919 C 0.83956 0.83601 0.38234 0.0
C1920 C 0.84704 0.85442 0.34712 0.0
C1921 C 0.86571 0.87322 0.41872 0.0
H1922 H 0.8652 0.89616 0.32637 0.0
C1923 C 0.90215 0.911 0.40724 0.0
C1924 C 0.9091 0.90988 0.37053 0.0
C1925 C 0.89048 0.90556 0.41038 0.0
C1926 C 0.86533 0.8899 0.35258 0.0
H1927 H 0.8388 0.83743 0.44932 0.0
H1928 H 0.84681 0.85847 0.452 0.0
H1929 H 0.84958 0.87988 0.33064 0.0
H1930 H 0.90866 0.90327 0.307 0.0
H1931 H 0.88829 0.8938 0.31258 0.0
H1932 H 0.88159 0.88303 0.44012 0.0
C1933 C 0.84558 0.85416 0.42199 0.0
C1934 C 0.85644 0.88053 0.35496 0.0
C1935 C 0.84092 0.84212 0.4205 0.0
C1936 C 0.90363 0.90419 0.33588 0.0
C1937 C 0.8919 0.89884 0.33895 0.0
C1938 C 0.87444 0.88267 0.41664 0.0
C1939 C 0.84925 0.86025 0.38542 0.0
C1940 C 0.85683 0.87175 0.3872 0.0
C1941 C 0.88546 0.89902 0.37677 0.0
C1942 C 0.87463 0.89082 0.38279 0.0
H1943 H 0.84121 0.83806 0.31566 0.0
H1944 H 0.84983 0.85868 0.31825 0.0
H1945 H 0.86651 0.86658 0.44369 0.0
H1946 H 0.90601 0.91542 0.43445 0.0
H1947 H 0.88563 0.90595 0.43975 0.0
C1948 C 0.34839 0.65572 0.5788 0.0
C1949 C 0.34032 0.65999 0.60975 0.0
C1950 C 0.35281 0.64362 0.57968 0.0
C1951 C 0.36102 0.61721 0.58298 0.0
H1952 H 0.37017 0.6076 0.69451 0.0
C1953 C 0.40143 0.584 0.60776 0.0
C1954 C 0.40992 0.58817 0.63768 0.0
C1955 C 0.38939 0.58873 0.60667 0.0
C1956 C 0.36771 0.61013 0.6631 0.0
H1957 H 0.32952 0.65453 0.66335 0.0
H1958 H 0.33686 0.63323 0.66399 0.0
H1959 H 0.35518 0.62392 0.68443 0.0
H1960 H 0.41209 0.59988 0.69183 0.0
H1961 H 0.3915 0.6084 0.68905 0.0
H1962 H 0.37454 0.60435 0.56171 0.0
C1963 C 0.34018 0.63937 0.63994 0.0
C1964 C 0.3589 0.61939 0.65723 0.0
C1965 C 0.3359 0.65157 0.63945 0.0
C1966 C 0.40584 0.59648 0.6682 0.0
C1967 C 0.3939 0.60131 0.6668 0.0
C1968 C 0.37003 0.60814 0.58886 0.0
C1969 C 0.34912 0.63539 0.61118 0.0
C1970 C 0.3559 0.62351 0.61707 0.0
C1971 C 0.38563 0.59783 0.63517 0.0
C1972 C 0.37396 0.60493 0.62905 0.0
H1973 H 0.35197 0.66194 0.55538 0.0
H1974 H 0.35978 0.64105 0.55721 0.0
H1975 H 0.35864 0.61981 0.55156 0.0
H1976 H 0.40423 0.57746 0.58413 0.0
H1977 H 0.38321 0.5856 0.58246 0.0
C1978 C 0.66224 0.15369 0.85233 0.0
C1979 C 0.65833 0.16206 0.88302 0.0
C1980 C 0.65719 0.1418 0.85034 0.0
C1981 C 0.63569 0.12008 0.90575 0.0
H1982 H 0.62571 0.11164 0.79391 0.0
C1983 C 0.59031 0.0997 0.82182 0.0
C1984 C 0.58657 0.09121 0.85223 0.0
C1985 C 0.60221 0.10468 0.82257 0.0
C1986 C 0.62839 0.11385 0.82539 0.0
H1987 H 0.64673 0.16418 0.93744 0.0
H1988 H 0.63767 0.14381 0.93318 0.0
H1989 H 0.64104 0.12765 0.80469 0.0
H1990 H 0.59276 0.08027 0.90457 0.0
H1991 H 0.6137 0.08856 0.90487 0.0
H1992 H 0.62216 0.1072 0.92663 0.0
C1993 C 0.64479 0.1462 0.91102 0.0
C1994 C 0.63739 0.12292 0.83161 0.0
C1995 C 0.64994 0.158 0.91331 0.0
C1996 C 0.59532 0.08696 0.88112 0.0
C1997 C 0.60731 0.09179 0.88144 0.0
C1998 C 0.62653 0.11118 0.89955 0.0
C1999 C 0.64803 0.13807 0.8787 0.0
C2000 C 0.64074 0.12656 0.87197 0.0
C2001 C 0.61074 0.10113 0.85336 0.0
C2002 C 0.62236 0.10834 0.85932 0.0
H2003 H 0.66883 0.15647 0.82885 0.0
H2004 H 0.66014 0.1357 0.82562 0.0
H2005 H 0.63831 0.12236 0.93724 0.0
H2006 H 0.5838 0.10318 0.79911 0.0
H2007 H 0.60437 0.11194 0.80065 0.0
C2008 C 0.09693 0.58692 0.39071 0.0
C2009 C 0.08845 0.59121 0.36095 0.0
C2010 C 0.10904 0.59145 0.39151 0.0
C2011 C 0.13098 0.61251 0.33462 0.0
H2012 H 0.14085 0.62149 0.44606 0.0
C2013 C 0.15265 0.65694 0.4201 0.0
C2014 C 0.16091 0.66094 0.38926 0.0
C2015 C 0.14759 0.6451 0.41863 0.0
C2016 C 0.13824 0.61909 0.41467 0.0
H2017 H 0.08633 0.60297 0.30694 0.0
H2018 H 0.10706 0.6112 0.30929 0.0
H2019 H 0.12441 0.60661 0.43612 0.0
H2020 H 0.17129 0.65517 0.33507 0.0
H2021 H 0.16279 0.63431 0.33335 0.0
H2022 H 0.1439 0.62595 0.31322 0.0
C2023 C 0.10461 0.60413 0.33156 0.0
C2024 C 0.12891 0.61034 0.40889 0.0
C2025 C 0.09259 0.59947 0.33038 0.0
C2026 C 0.1648 0.65245 0.35895 0.0
C2027 C 0.15985 0.6405 0.35783 0.0
C2028 C 0.14012 0.62146 0.34041 0.0
C2029 C 0.11289 0.60051 0.36297 0.0
C2030 C 0.12473 0.60738 0.36878 0.0
C2031 C 0.15078 0.63684 0.38664 0.0
C2032 C 0.14345 0.62531 0.38057 0.0
H2033 H 0.09408 0.5804 0.41436 0.0
H2034 H 0.11523 0.58819 0.41552 0.0
H2035 H 0.12832 0.61016 0.30323 0.0
H2036 H 0.14946 0.66321 0.444 0.0
H2037 H 0.14054 0.64279 0.44115 0.0
C2038 C 0.65154 0.84302 0.57714 0.0
C2039 C 0.65993 0.83895 0.60743 0.0
C2040 C 0.64668 0.85495 0.57876 0.0
C2041 C 0.63785 0.88116 0.58308 0.0
H2042 H 0.62848 0.89011 0.69507 0.0
C2043 C 0.59728 0.91411 0.60956 0.0
C2044 C 0.58876 0.90979 0.63914 0.0
C2045 C 0.6093 0.90936 0.60823 0.0
C2046 C 0.63101 0.88777 0.66354 0.0
H2047 H 0.67077 0.84463 0.66071 0.0
H2048 H 0.66259 0.86562 0.66274 0.0
H2049 H 0.6438 0.87411 0.68419 0.0
H2050 H 0.5865 0.89774 0.69241 0.0
H2051 H 0.6071 0.88918 0.6892 0.0
H2052 H 0.62414 0.89391 0.56243 0.0
C2053 C 0.65941 0.85944 0.63858 0.0
C2054 C 0.63999 0.87869 0.65724 0.0
C2055 C 0.66416 0.84742 0.63728 0.0
C2056 C 0.59279 0.90127 0.66908 0.0
C2057 C 0.60472 0.89641 0.66743 0.0
C2058 C 0.62869 0.89007 0.58939 0.0
C2059 C 0.65021 0.8632 0.61038 0.0
C2060 C 0.6431 0.87484 0.61688 0.0
C2061 C 0.61302 0.90008 0.63614 0.0
C2062 C 0.62472 0.89305 0.62972 0.0
H2063 H 0.6481 0.83677 0.55359 0.0
H2064 H 0.63953 0.85735 0.55673 0.0
H2065 H 0.64029 0.87873 0.55156 0.0
H2066 H 0.59453 0.92081 0.5864 0.0
H2067 H 0.61552 0.91263 0.5843 0.0
C2068 C 0.40299 0.41261 0.88872 0.0
C2069 C 0.41165 0.40856 0.85917 0.0
C2070 C 0.39095 0.40789 0.88879 0.0
C2071 C 0.36966 0.38643 0.83076 0.0
H2072 H 0.35985 0.37697 0.94184 0.0
C2073 C 0.34878 0.34138 0.9153 0.0
C2074 C 0.34051 0.33732 0.88463 0.0
C2075 C 0.35371 0.35327 0.91383 0.0
C2076 C 0.36244 0.3795 0.91054 0.0
H2077 H 0.41417 0.39709 0.80466 0.0
H2078 H 0.39356 0.38851 0.80576 0.0
H2079 H 0.3759 0.39229 0.93253 0.0
H2080 H 0.33002 0.34299 0.83054 0.0
H2081 H 0.33833 0.36394 0.82876 0.0
H2082 H 0.35713 0.37269 0.80887 0.0
C2083 C 0.39581 0.39553 0.82843 0.0
C2084 C 0.37155 0.38851 0.90512 0.0
C2085 C 0.40775 0.4004 0.82795 0.0
C2086 C 0.33653 0.34577 0.85431 0.0
C2087 C 0.34135 0.35777 0.85316 0.0
C2088 C 0.36074 0.37723 0.83621 0.0
C2089 C 0.38737 0.39885 0.85976 0.0
C2090 C 0.37571 0.39166 0.86515 0.0
C2091 C 0.35037 0.36152 0.88198 0.0
C2092 C 0.35745 0.37322 0.87623 0.0
H2093 H 0.40565 0.41905 0.91283 0.0
H2094 H 0.38463 0.41094 0.91271 0.0
H2095 H 0.37231 0.3889 0.79947 0.0
H2096 H 0.35205 0.33514 0.93917 0.0
H2097 H 0.36075 0.35566 0.9363 0.0
C2098 C 0.84709 0.15565 0.07983 0.0
C2099 C 0.83872 0.1591 0.111 0.0
C2100 C 0.85212 0.14378 0.0792 0.0
C2101 C 0.8616 0.11777 0.07914 0.0
H2102 H 0.87072 0.10709 0.18961 0.0
C2103 C 0.90292 0.08548 0.10089 0.0
C2104 C 0.91116 0.08941 0.13192 0.0
C2105 C 0.89077 0.08993 0.09991 0.0
C2106 C 0.86828 0.10992 0.15848 0.0
H2107 H 0.82802 0.15242 0.16325 0.0
H2108 H 0.83642 0.13153 0.16117 0.0
H2109 H 0.85513 0.12292 0.18118 0.0
H2110 H 0.91283 0.1004 0.18792 0.0
H2111 H 0.89204 0.10848 0.18537 0.0
H2112 H 0.87568 0.10572 0.05666 0.0
C2113 C 0.83951 0.13813 0.13819 0.0
C2114 C 0.85913 0.1189 0.15353 0.0
C2115 C 0.83462 0.1501 0.13924 0.0
C2116 C 0.90675 0.09719 0.16349 0.0
C2117 C 0.89471 0.10176 0.16218 0.0
C2118 C 0.87094 0.10898 0.08412 0.0
C2119 C 0.84875 0.13498 0.10933 0.0
C2120 C 0.85609 0.12339 0.11386 0.0
C2121 C 0.88667 0.09854 0.1296 0.0
C2122 C 0.87483 0.1054 0.12399 0.0
H2123 H 0.85045 0.16235 0.05754 0.0
H2124 H 0.8593 0.14186 0.05672 0.0
H2125 H 0.85922 0.12067 0.04802 0.0
H2126 H 0.90597 0.07934 0.07643 0.0
H2127 H 0.88477 0.08698 0.07493 0.0
C2128 C 0.83609 0.65269 0.85869 0.0
C2129 C 0.84025 0.66109 0.88888 0.0
C2130 C 0.84072 0.64061 0.85756 0.0
C2131 C 0.86175 0.61866 0.91441 0.0
H2132 H 0.87126 0.60925 0.803 0.0
C2133 C 0.90677 0.59781 0.82997 0.0
C2134 C 0.91077 0.58955 0.86075 0.0
C2135 C 0.89485 0.60271 0.83111 0.0
C2136 C 0.86871 0.61173 0.83438 0.0
H2137 H 0.85187 0.66311 0.94331 0.0
H2138 H 0.86025 0.64246 0.94043 0.0
H2139 H 0.85616 0.6255 0.81292 0.0
H2140 H 0.90497 0.57898 0.91445 0.0
H2141 H 0.88397 0.58718 0.91557 0.0
H2142 H 0.87525 0.60583 0.9359 0.0
C2143 C 0.85322 0.64494 0.91805 0.0
C2144 C 0.85984 0.62095 0.84014 0.0
C2145 C 0.84847 0.65691 0.91952 0.0
C2146 C 0.90223 0.58549 0.89065 0.0
C2147 C 0.89021 0.59025 0.89142 0.0
C2148 C 0.87082 0.60963 0.90866 0.0
C2149 C 0.84973 0.63674 0.88625 0.0
C2150 C 0.85669 0.62497 0.88027 0.0
C2151 C 0.88653 0.59933 0.8627 0.0
C2152 C 0.87487 0.60649 0.86854 0.0
H2153 H 0.82961 0.65556 0.83497 0.0
H2154 H 0.83757 0.63448 0.83323 0.0
H2155 H 0.85926 0.62119 0.94579 0.0
H2156 H 0.91308 0.60114 0.80639 0.0
H2157 H 0.89253 0.60978 0.80869 0.0
C2158 C 0.16393 0.14893 0.63308 0.0
C2159 C 0.15988 0.1578 0.60425 0.0
C2160 C 0.15885 0.13704 0.6332 0.0
C2161 C 0.13896 0.11817 0.65045 0.0
H2162 H 0.12224 0.10442 0.55481 0.0
C2163 C 0.09121 0.09677 0.6626 0.0
C2164 C 0.08679 0.08864 0.63206 0.0
C2165 C 0.10323 0.10137 0.66062 0.0
C2166 C 0.12702 0.10785 0.58195 0.0
H2167 H 0.14802 0.1608 0.55092 0.0
H2168 H 0.13888 0.14046 0.55209 0.0
H2169 H 0.13882 0.11918 0.54482 0.0
H2170 H 0.09196 0.07805 0.57763 0.0
H2171 H 0.11313 0.08578 0.57493 0.0
H2172 H 0.12727 0.10674 0.68756 0.0
C2173 C 0.14614 0.14244 0.57419 0.0
C2174 C 0.13644 0.11652 0.57618 0.0
C2175 C 0.15134 0.15424 0.57371 0.0
C2176 C 0.09501 0.08445 0.60132 0.0
C2177 C 0.10714 0.08894 0.59965 0.0
C2178 C 0.12972 0.10932 0.65618 0.0
C2179 C 0.14949 0.13381 0.60487 0.0
C2180 C 0.14203 0.12233 0.6104 0.0
C2181 C 0.11126 0.09783 0.62837 0.0
C2182 C 0.12313 0.10459 0.62212 0.0
H2183 H 0.17064 0.15132 0.65666 0.0
H2184 H 0.1619 0.13055 0.65661 0.0
H2185 H 0.14302 0.12236 0.67772 0.0
H2186 H 0.08516 0.10019 0.6868 0.0
H2187 H 0.10592 0.10831 0.68305 0.0
C2188 C 0.59822 0.41447 0.38823 0.0
C2189 C 0.58965 0.41027 0.35863 0.0
C2190 C 0.61026 0.40975 0.38901 0.0
C2191 C 0.62975 0.39043 0.40635 0.0
H2192 H 0.64433 0.37456 0.31044 0.0
C2193 C 0.6518 0.34302 0.41652 0.0
C2194 C 0.65981 0.33876 0.38541 0.0
C2195 C 0.64725 0.35508 0.41548 0.0
C2196 C 0.64069 0.37911 0.33771 0.0
H2197 H 0.58733 0.39848 0.30474 0.0
H2198 H 0.60793 0.38996 0.307 0.0
H2199 H 0.62922 0.39079 0.30069 0.0
H2200 H 0.67038 0.3442 0.33125 0.0
H2201 H 0.66281 0.36542 0.3303 0.0
H2202 H 0.64135 0.37888 0.44337 0.0
C2203 C 0.60559 0.39708 0.32922 0.0
C2204 C 0.63181 0.38833 0.33205 0.0
C2205 C 0.59365 0.40191 0.32812 0.0
C2206 C 0.66404 0.34715 0.3553 0.0
C2207 C 0.65963 0.3593 0.35463 0.0
C2208 C 0.63884 0.38141 0.41201 0.0
C2209 C 0.61395 0.40061 0.36051 0.0
C2210 C 0.62566 0.39355 0.36627 0.0
C2211 C 0.65075 0.36327 0.38365 0.0
C2212 C 0.64386 0.37508 0.37782 0.0
H2213 H 0.59549 0.42105 0.41184 0.0
H2214 H 0.61652 0.41292 0.41296 0.0
H2215 H 0.62533 0.39423 0.43361 0.0
H2216 H 0.64836 0.33683 0.44027 0.0
H2217 H 0.64033 0.35763 0.43815 0.0
C2218 C 0.33412 0.84505 0.14211 0.0
C2219 C 0.3379 0.8367 0.11121 0.0
C2220 C 0.33912 0.85697 0.14375 0.0
C2221 C 0.35901 0.87583 0.1615 0.0
H2222 H 0.37413 0.89133 0.06588 0.0
C2223 C 0.40649 0.89815 0.16983 0.0
C2224 C 0.41035 0.90658 0.13937 0.0
C2225 C 0.3945 0.8934 0.16929 0.0
C2226 C 0.3698 0.88741 0.09313 0.0
H2227 H 0.34918 0.83465 0.05598 0.0
H2228 H 0.35817 0.85504 0.05966 0.0
H2229 H 0.35771 0.87643 0.05592 0.0
H2230 H 0.40429 0.91761 0.08705 0.0
H2231 H 0.38319 0.9097 0.08712 0.0
H2232 H 0.37098 0.88694 0.19873 0.0
C2233 C 0.35118 0.85263 0.08228 0.0
C2234 C 0.36048 0.87866 0.08731 0.0
C2235 C 0.34608 0.84081 0.08033 0.0
C2236 C 0.40164 0.91096 0.11054 0.0
C2237 C 0.38956 0.90636 0.11044 0.0
C2238 C 0.36816 0.88477 0.16735 0.0
C2239 C 0.34811 0.86074 0.11484 0.0
C2240 C 0.35547 0.87223 0.12128 0.0
C2241 C 0.38598 0.89711 0.13869 0.0
C2242 C 0.37418 0.89016 0.13318 0.0
H2243 H 0.32769 0.84224 0.16604 0.0
H2244 H 0.33629 0.86305 0.16868 0.0
H2245 H 0.3554 0.87115 0.18858 0.0
H2246 H 0.41295 0.89458 0.1925 0.0
H2247 H 0.39224 0.8862 0.19131 0.0
C2248 C 0.90651 0.40101 0.66795 0.0
C2249 C 0.91067 0.40905 0.63675 0.0
C2250 C 0.89449 0.39634 0.66709 0.0
C2251 C 0.86813 0.38796 0.66455 0.0
H2252 H 0.85849 0.37798 0.55385 0.0
C2253 C 0.83464 0.34758 0.64325 0.0
C2254 C 0.83871 0.33885 0.61396 0.0
C2255 C 0.83949 0.35957 0.64336 0.0
C2256 C 0.86103 0.38067 0.58504 0.0
H2257 H 0.90507 0.41948 0.58248 0.0
H2258 H 0.88392 0.41168 0.58179 0.0
H2259 H 0.87482 0.39304 0.56264 0.0
H2260 H 0.85039 0.33619 0.55996 0.0
H2261 H 0.85912 0.3567 0.56109 0.0
H2262 H 0.85525 0.37463 0.68699 0.0
C2263 C 0.8901 0.4086 0.6061 0.0
C2264 C 0.8703 0.38952 0.59014 0.0
C2265 C 0.90221 0.41313 0.60661 0.0
C2266 C 0.84706 0.34263 0.58311 0.0
C2267 C 0.85201 0.35452 0.58355 0.0
C2268 C 0.85904 0.37891 0.65946 0.0
C2269 C 0.88623 0.39975 0.63536 0.0
C2270 C 0.87441 0.39283 0.63002 0.0
C2271 C 0.84862 0.36304 0.61452 0.0
C2272 C 0.85582 0.3747 0.61962 0.0
H2273 H 0.91275 0.39767 0.69172 0.0
H2274 H 0.89202 0.38944 0.68991 0.0
H2275 H 0.87073 0.39058 0.69575 0.0
H2276 H 0.82807 0.34502 0.6671 0.0
H2277 H 0.83642 0.36595 0.66708 0.0
C2278 C 0.33884 0.15537 0.33983 0.0
C2279 C 0.34012 0.16238 0.37634 0.0
C2280 C 0.3439 0.14353 0.33713 0.0
C2281 C 0.3663 0.1269 0.33126 0.0
H2282 H 0.36826 0.10193 0.41713 0.0
C2283 C 0.40506 0.09136 0.32494 0.0
C2284 C 0.4112 0.08942 0.36271 0.0
C2285 C 0.39333 0.09676 0.32426 0.0
C2286 C 0.36785 0.10883 0.39287 0.0
H2287 H 0.3466 0.16188 0.44003 0.0
H2288 H 0.35545 0.14123 0.43516 0.0
H2289 H 0.35261 0.11817 0.42178 0.0
H2290 H 0.40958 0.09088 0.42953 0.0
H2291 H 0.3895 0.10084 0.42841 0.0
H2292 H 0.382 0.11837 0.30382 0.0
C2293 C 0.35056 0.14492 0.40862 0.0
C2294 C 0.35883 0.11807 0.39547 0.0
C2295 C 0.34555 0.15681 0.41129 0.0
C2296 C 0.40507 0.09226 0.39989 0.0
C2297 C 0.39347 0.09791 0.39921 0.0
C2298 C 0.3754 0.11782 0.32897 0.0
C2299 C 0.35026 0.13841 0.37095 0.0
C2300 C 0.35818 0.12737 0.36519 0.0
C2301 C 0.38762 0.10064 0.3613 0.0
C2302 C 0.37655 0.10885 0.36033 0.0
H2303 H 0.33457 0.15928 0.31244 0.0
H2304 H 0.3434 0.13863 0.30789 0.0
H2305 H 0.36616 0.13405 0.30776 0.0
H2306 H 0.40949 0.08907 0.2958 0.0
H2307 H 0.38897 0.09836 0.29453 0.0
C2308 C 0.66307 0.65228 0.13768 0.0
C2309 C 0.65902 0.66086 0.10792 0.0
C2310 C 0.65825 0.64029 0.13838 0.0
C2311 C 0.63875 0.62104 0.15576 0.0
H2312 H 0.62294 0.60629 0.06008 0.0
C2313 C 0.59158 0.59824 0.16637 0.0
C2314 C 0.58751 0.59007 0.13543 0.0
C2315 C 0.60353 0.60308 0.16519 0.0
C2316 C 0.62747 0.61 0.08729 0.0
H2317 H 0.64741 0.66329 0.0537 0.0
H2318 H 0.63867 0.64276 0.05584 0.0
H2319 H 0.63912 0.62146 0.05009 0.0
H2320 H 0.59321 0.57955 0.08149 0.0
H2321 H 0.61425 0.58761 0.08035 0.0
H2322 H 0.62724 0.60945 0.19295 0.0
C2323 C 0.64577 0.64504 0.07821 0.0
C2324 C 0.63666 0.6189 0.08149 0.0
C2325 C 0.65073 0.65693 0.07713 0.0
C2326 C 0.596 0.58599 0.10541 0.0
C2327 C 0.60805 0.59068 0.10461 0.0
C2328 C 0.62976 0.61194 0.16156 0.0
C2329 C 0.64912 0.63668 0.10973 0.0
C2330 C 0.6419 0.62506 0.11562 0.0
C2331 C 0.6118 0.59971 0.13341 0.0
C2332 C 0.62349 0.60682 0.12744 0.0
H2333 H 0.66961 0.65496 0.16148 0.0
H2334 H 0.66131 0.63402 0.16245 0.0
H2335 H 0.64255 0.62549 0.18298 0.0
H2336 H 0.58529 0.60158 0.18999 0.0
H2337 H 0.60593 0.6101 0.1877 0.0
C2338 C 0.08899 0.89932 0.82691 0.0
C2339 C 0.08549 0.90801 0.857 0.0
C2340 C 0.10088 0.8943 0.82706 0.0
C2341 C 0.12707 0.88521 0.82799 0.0
H2342 H 0.13789 0.87719 0.9393 0.0
C2343 C 0.16073 0.84522 0.85328 0.0
C2344 C 0.15697 0.837 0.8846 0.0
C2345 C 0.15589 0.8572 0.85149 0.0
C2346 C 0.13502 0.87933 0.90795 0.0
H2347 H 0.09208 0.91923 0.90813 0.0
H2348 H 0.11299 0.91085 0.90738 0.0
H2349 H 0.12167 0.89231 0.9294 0.0
H2350 H 0.14592 0.83525 0.94043 0.0
H2351 H 0.13718 0.85576 0.93656 0.0
H2352 H 0.13954 0.87131 0.80683 0.0
C2353 C 0.10642 0.90751 0.88467 0.0
C2354 C 0.12581 0.8882 0.90215 0.0
C2355 C 0.09444 0.91238 0.88496 0.0
C2356 C 0.149 0.84131 0.91578 0.0
C2357 C 0.14404 0.85319 0.91369 0.0
C2358 C 0.13611 0.87615 0.83384 0.0
C2359 C 0.10963 0.89801 0.85689 0.0
C2360 C 0.12131 0.89085 0.86218 0.0
C2361 C 0.14707 0.86115 0.88067 0.0
C2362 C 0.13979 0.87269 0.87406 0.0
H2363 H 0.08232 0.89574 0.80491 0.0
H2364 H 0.10286 0.88692 0.80543 0.0
H2365 H 0.12413 0.88727 0.79666 0.0
H2366 H 0.16702 0.84225 0.8291 0.0
H2367 H 0.15869 0.86316 0.82622 0.0
loop_
_geom_bond_atom_site_label_1
_geom_bond_atom_site_label_2
_geom_bond_distance
_geom_bond_site_symmetry_2
_ccdc_geom_bond_type
Mg0 O1 2.028 . S
Mg0 O7 1.986 . S
Mg0 O9 2.114 . S
Mg0 O10 2.251 . S
Mg0 O13 2.010 1_554 S
O1 Mg0 2.028 . S
O1 C4 1.250 . S
O2 Mg3 2.028 . S
O2 C4 1.248 . S
Mg3 O2 2.028 . S
Mg3 O8 2.032 . S
Mg3 O10 2.079 . S
C4 O1 1.250 . S
C4 O2 1.248 . S
C5 O6 1.264 . S
C5 O13 1.249 . S
O6 C5 1.264 . S
O7 Mg0 1.986 . S
O7 C11 1.246 . S
O8 Mg3 2.032 . S
O8 C11 1.259 . S
O9 Mg0 2.114 . S
O9 C12 1.252 . S
O10 Mg0 2.251 . S
O10 Mg3 2.079 . S
O10 C12 1.273 . S
C11 O7 1.246 . S
C11 O8 1.259 . S
C12 O9 1.252 . S
C12 O10 1.273 . S
O13 Mg0 2.010 1_556 S
O13 C5 1.249 . S
Mg14 O15 2.028 . S
Mg14 O21 1.986 . S
Mg14 O23 2.114 . S
Mg14 O24 2.251 . S
Mg14 O27 2.010 . S
O15 Mg14 2.028 . S
O15 C18 1.250 . S
O16 Mg17 2.028 . S
O16 C18 1.248 . S
Mg17 O16 2.028 . S
Mg17 O22 2.032 . S
Mg17 O24 2.079 . S
C18 O15 1.250 . S
C18 O16 1.248 . S
C19 O20 1.264 . S
C19 O27 1.249 . S
O20 C19 1.264 . S
O21 Mg14 1.986 . S
O21 C25 1.246 . S
O22 Mg17 2.032 . S
O22 C25 1.259 . S
O23 Mg14 2.114 . S
O23 C26 1.252 . S
O24 Mg14 2.251 . S
O24 Mg17 2.079 . S
O24 C26 1.273 . S
C25 O21 1.246 . S
C25 O22 1.259 . S
C26 O23 1.252 . S
C26 O24 1.273 . S
O27 Mg14 2.010 . S
O27 C19 1.249 . S
Mg28 O29 2.028 . S
Mg28 O35 1.986 . S
Mg28 O37 2.114 . S
Mg28 O38 2.251 . S
Mg28 O41 2.010 . S
O29 Mg28 2.028 . S
O29 C32 1.250 . S
O30 Mg31 2.028 . S
O30 C32 1.248 . S
Mg31 O30 2.028 . S
Mg31 O36 2.032 . S
Mg31 O38 2.079 . S
C32 O29 1.250 . S
C32 O30 1.248 . S
C33 O34 1.264 . S
C33 O41 1.249 . S
O34 C33 1.264 . S
O35 Mg28 1.986 . S
O35 C39 1.246 . S
O36 Mg31 2.032 . S
O36 C39 1.259 . S
O37 Mg28 2.114 . S
O37 C40 1.252 . S
O38 Mg28 2.251 . S
O38 Mg31 2.079 . S
O38 C40 1.273 . S
C39 O35 1.246 . S
C39 O36 1.259 . S
C40 O37 1.252 . S
C40 O38 1.273 . S
O41 Mg28 2.010 . S
O41 C33 1.249 . S
Mg42 O43 2.028 . S
Mg42 O49 1.986 . S
Mg42 O51 2.114 . S
Mg42 O52 2.251 . S
Mg42 O55 2.010 . S
O43 Mg42 2.028 . S
O43 C46 1.250 . S
O44 Mg45 2.028 . S
O44 C46 1.248 . S
Mg45 O44 2.028 . S
Mg45 O50 2.032 . S
Mg45 O52 2.079 . S
C46 O43 1.250 . S
C46 O44 1.248 . S
C47 O48 1.264 . S
C47 O55 1.249 . S
O48 C47 1.264 . S
O49 Mg42 1.986 . S
O49 C53 1.246 . S
O50 Mg45 2.032 . S
O50 C53 1.259 . S
O51 Mg42 2.114 . S
O51 C54 1.252 . S
O52 Mg42 2.251 . S
O52 Mg45 2.079 . S
O52 C54 1.273 . S
C53 O49 1.246 . S
C53 O50 1.259 . S
C54 O51 1.252 . S
C54 O52 1.273 . S
O55 Mg42 2.010 . S
O55 C47 1.249 . S
Mg56 O57 2.028 . S
Mg56 O63 1.986 . S
Mg56 O65 2.114 . S
Mg56 O66 2.251 . S
Mg56 O69 2.010 . S
O57 Mg56 2.028 . S
O57 C60 1.250 . S
O58 Mg59 2.028 . S
O58 C60 1.248 . S
Mg59 O58 2.028 . S
Mg59 O64 2.032 . S
Mg59 O66 2.079 . S
C60 O57 1.250 . S
C60 O58 1.248 . S
C61 O62 1.264 . S
C61 O69 1.249 . S
O62 C61 1.264 . S
O63 Mg56 1.986 . S
O63 C67 1.246 . S
O64 Mg59 2.032 . S
O64 C67 1.259 . S
O65 Mg56 2.114 . S
O65 C68 1.252 . S
O66 Mg56 2.251 . S
O66 Mg59 2.079 . S
O66 C68 1.273 . S
C67 O63 1.246 . S
C67 O64 1.259 . S
C68 O65 1.252 . S
C68 O66 1.273 . S
O69 Mg56 2.010 . S
O69 C61 1.249 . S
Mg70 O71 2.028 . S
Mg70 O77 1.986 . S
Mg70 O79 2.114 . S
Mg70 O80 2.251 . S
Mg70 O83 2.010 . S
O71 Mg70 2.028 . S
O71 C74 1.250 . S
O72 Mg73 2.028 . S
O72 C74 1.248 . S
Mg73 O72 2.028 . S
Mg73 O78 2.032 . S
Mg73 O80 2.079 . S
C74 O71 1.250 . S
C74 O72 1.248 . S
C75 O76 1.264 . S
C75 O83 1.249 . S
O76 C75 1.264 . S
O77 Mg70 1.986 . S
O77 C81 1.246 . S
O78 Mg73 2.032 . S
O78 C81 1.259 . S
O79 Mg70 2.114 . S
O79 C82 1.252 . S
O80 Mg70 2.251 . S
O80 Mg73 2.079 . S
O80 C82 1.273 . S
C81 O77 1.246 . S
C81 O78 1.259 . S
C82 O79 1.252 . S
C82 O80 1.273 . S
O83 Mg70 2.010 . S
O83 C75 1.249 . S
Mg84 O85 2.028 . S
Mg84 O91 1.986 . S
Mg84 O93 2.114 . S
Mg84 O94 2.251 . S
Mg84 O97 2.010 1_556 S
O85 Mg84 2.028 . S
O85 C88 1.250 . S
O86 Mg87 2.028 . S
O86 C88 1.248 . S
Mg87 O86 2.028 . S
Mg87 O92 2.032 . S
Mg87 O94 2.079 . S
C88 O85 1.250 . S
C88 O86 1.248 . S
C89 O90 1.264 . S
C89 O97 1.249 . S
O90 C89 1.264 . S
O91 Mg84 1.986 . S
O91 C95 1.246 . S
O92 Mg87 2.032 . S
O92 C95 1.259 . S
O93 Mg84 2.114 . S
O93 C96 1.252 . S
O94 Mg84 2.251 . S
O94 Mg87 2.079 . S
O94 C96 1.273 . S
C95 O91 1.246 . S
C95 O92 1.259 . S
C96 O93 1.252 . S
C96 O94 1.273 . S
O97 Mg84 2.010 1_554 S
O97 C89 1.249 . S
Mg98 O99 2.028 . S
Mg98 O105 1.986 . S
Mg98 O107 2.114 . S
Mg98 O108 2.251 . S
Mg98 O111 2.010 . S
O99 Mg98 2.028 . S
O99 C102 1.250 . S
O100 Mg101 2.028 . S
O100 C102 1.248 . S
Mg101 O100 2.028 . S
Mg101 O106 2.032 . S
Mg101 O108 2.079 . S
C102 O99 1.250 . S
C102 O100 1.248 . S
C103 O104 1.264 . S
C103 O111 1.249 . S
O104 C103 1.264 . S
O105 Mg98 1.986 . S
O105 C109 1.246 . S
O106 Mg101 2.032 . S
O106 C109 1.259 . S
O107 Mg98 2.114 . S
O107 C110 1.252 . S
O108 Mg98 2.251 . S
O108 Mg101 2.079 . S
O108 C110 1.273 . S
C109 O105 1.246 . S
C109 O106 1.259 . S
C110 O107 1.252 . S
C110 O108 1.273 . S
O111 Mg98 2.010 . S
O111 C103 1.249 . S
Mg112 O113 2.028 . S
Mg112 O119 1.986 . S
Mg112 O121 2.114 . S
Mg112 O122 2.251 . S
Mg112 O125 2.010 1_556 S
O113 Mg112 2.028 . S
O113 C116 1.250 . S
O114 Mg115 2.028 . S
O114 C116 1.248 . S
Mg115 O114 2.028 . S
Mg115 O120 2.032 . S
Mg115 O122 2.079 . S
C116 O113 1.250 . S
C116 O114 1.248 . S
C117 O118 1.264 . S
C117 O125 1.249 . S
O118 C117 1.264 . S
O119 Mg112 1.986 . S
O119 C123 1.246 . S
O120 Mg115 2.032 . S
O120 C123 1.259 . S
O121 Mg112 2.114 . S
O121 C124 1.252 . S
O122 Mg112 2.251 . S
O122 Mg115 2.079 . S
O122 C124 1.273 . S
C123 O119 1.246 . S
C123 O120 1.259 . S
C124 O121 1.252 . S
C124 O122 1.273 . S
O125 Mg112 2.010 1_554 S
O125 C117 1.249 . S
Mg126 O127 2.028 . S
Mg126 O133 1.986 . S
Mg126 O135 2.114 . S
Mg126 O136 2.251 . S
Mg126 O139 2.010 . S
O127 Mg126 2.028 . S
O127 C130 1.250 . S
O128 Mg129 2.028 . S
O128 C130 1.248 . S
Mg129 O128 2.028 . S
Mg129 O134 2.032 . S
Mg129 O136 2.079 . S
C130 O127 1.250 . S
C130 O128 1.248 . S
C131 O132 1.264 . S
C131 O139 1.249 . S
O132 C131 1.264 . S
O133 Mg126 1.986 . S
O133 C137 1.246 . S
O134 Mg129 2.032 . S
O134 C137 1.259 . S
O135 Mg126 2.114 . S
O135 C138 1.252 . S
O136 Mg126 2.251 . S
O136 Mg129 2.079 . S
O136 C138 1.273 . S
C137 O133 1.246 . S
C137 O134 1.259 . S
C138 O135 1.252 . S
C138 O136 1.273 . S
O139 Mg126 2.010 . S
O139 C131 1.249 . S
Mg140 O141 2.028 . S
Mg140 O147 1.986 . S
Mg140 O149 2.114 . S
Mg140 O150 2.251 . S
Mg140 O153 2.010 . S
O141 Mg140 2.028 . S
O141 C144 1.250 . S
O142 Mg143 2.028 . S
O142 C144 1.248 . S
Mg143 O142 2.028 . S
Mg143 O148 2.032 . S
Mg143 O150 2.079 . S
C144 O141 1.250 . S
C144 O142 1.248 . S
C145 O146 1.264 . S
C145 O153 1.249 . S
O146 C145 1.264 . S
O147 Mg140 1.986 . S
O147 C151 1.246 . S
O148 Mg143 2.032 . S
O148 C151 1.259 . S
O149 Mg140 2.114 . S
O149 C152 1.252 . S
O150 Mg140 2.251 . S
O150 Mg143 2.079 . S
O150 C152 1.273 . S
C151 O147 1.246 . S
C151 O148 1.259 . S
C152 O149 1.252 . S
C152 O150 1.273 . S
O153 Mg140 2.010 . S
O153 C145 1.249 . S
Mg154 O155 2.028 . S
Mg154 O161 1.986 . S
Mg154 O163 2.114 . S
Mg154 O164 2.251 . S
Mg154 O167 2.010 . S
O155 Mg154 2.028 . S
O155 C158 1.250 . S
O156 Mg157 2.028 . S
O156 C158 1.248 . S
Mg157 O156 2.028 . S
Mg157 O162 2.032 . S
Mg157 O164 2.079 . S
C158 O155 1.250 . S
C158 O156 1.248 . S
C159 O160 1.264 . S
C159 O167 1.249 . S
O160 C159 1.264 . S
O161 Mg154 1.986 . S
O161 C165 1.246 . S
O162 Mg157 2.032 . S
O162 C165 1.259 . S
O163 Mg154 2.114 . S
O163 C166 1.252 . S
O164 Mg154 2.251 . S
O164 Mg157 2.079 . S
O164 C166 1.273 . S
C165 O161 1.246 . S
C165 O162 1.259 . S
C166 O163 1.252 . S
C166 O164 1.273 . S
O167 Mg154 2.010 . S
O167 C159 1.249 . S
Mg168 O169 2.028 . S
Mg168 O175 1.986 . S
Mg168 O177 2.114 . S
Mg168 O178 2.251 . S
Mg168 O181 2.010 . S
O169 Mg168 2.028 . S
O169 C172 1.250 . S
O170 Mg171 2.028 . S
O170 C172 1.248 . S
Mg171 O170 2.028 . S
Mg171 O176 2.032 . S
Mg171 O178 2.079 . S
C172 O169 1.250 . S
C172 O170 1.248 . S
C173 O174 1.264 . S
C173 O181 1.249 . S
O174 C173 1.264 . S
O175 Mg168 1.986 . S
O175 C179 1.246 . S
O176 Mg171 2.032 . S
O176 C179 1.259 . S
O177 Mg168 2.114 . S
O177 C180 1.252 . S
O178 Mg168 2.251 . S
O178 Mg171 2.079 . S
O178 C180 1.273 . S
C179 O175 1.246 . S
C179 O176 1.259 . S
C180 O177 1.252 . S
C180 O178 1.273 . S
O181 Mg168 2.010 . S
O181 C173 1.249 . S
Mg182 O183 2.028 . S
Mg182 O189 1.986 . S
Mg182 O191 2.114 . S
Mg182 O192 2.251 . S
Mg182 O195 2.010 . S
O183 Mg182 2.028 . S
O183 C186 1.250 . S
O184 Mg185 2.028 . S
O184 C186 1.248 . S
Mg185 O184 2.028 . S
Mg185 O190 2.032 . S
Mg185 O192 2.079 . S
C186 O183 1.250 . S
C186 O184 1.248 . S
C187 O188 1.264 . S
C187 O195 1.249 . S
O188 C187 1.264 . S
O189 Mg182 1.986 . S
O189 C193 1.246 . S
O190 Mg185 2.032 . S
O190 C193 1.259 . S
O191 Mg182 2.114 . S
O191 C194 1.252 . S
O192 Mg182 2.251 . S
O192 Mg185 2.079 . S
O192 C194 1.273 . S
C193 O189 1.246 . S
C193 O190 1.259 . S
C194 O191 1.252 . S
C194 O192 1.273 . S
O195 Mg182 2.010 . S
O195 C187 1.249 . S
Mg196 O197 2.028 . S
Mg196 O203 1.986 . S
Mg196 O205 2.114 . S
Mg196 O206 2.251 . S
Mg196 O209 2.010 1_554 S
O197 Mg196 2.028 . S
O197 C200 1.250 . S
O198 Mg199 2.028 . S
O198 C200 1.248 . S
Mg199 O198 2.028 . S
Mg199 O204 2.032 . S
Mg199 O206 2.079 . S
C200 O197 1.250 . S
C200 O198 1.248 . S
C201 O202 1.264 . S
C201 O209 1.249 . S
O202 C201 1.264 . S
O203 Mg196 1.986 . S
O203 C207 1.246 . S
O204 Mg199 2.032 . S
O204 C207 1.259 . S
O205 Mg196 2.114 . S
O205 C208 1.252 . S
O206 Mg196 2.251 . S
O206 Mg199 2.079 . S
O206 C208 1.273 . S
C207 O203 1.246 . S
C207 O204 1.259 . S
C208 O205 1.252 . S
C208 O206 1.273 . S
O209 Mg196 2.010 1_556 S
O209 C201 1.249 . S
Mg210 O211 2.028 . S
Mg210 O217 1.986 . S
Mg210 O219 2.114 . S
Mg210 O220 2.251 . S
Mg210 O223 2.010 . S
O211 Mg210 2.028 . S
O211 C214 1.250 . S
O212 Mg213 2.028 . S
O212 C214 1.248 . S
Mg213 O212 2.028 . S
Mg213 O218 2.032 . S
Mg213 O220 2.079 . S
C214 O211 1.250 . S
C214 O212 1.248 . S
C215 O216 1.264 . S
C215 O223 1.249 . S
O216 C215 1.264 . S
O217 Mg210 1.986 . S
O217 C221 1.246 . S
O218 Mg213 2.032 . S
O218 C221 1.259 . S
O219 Mg210 2.114 . S
O219 C222 1.252 . S
O220 Mg210 2.251 . S
O220 Mg213 2.079 . S
O220 C222 1.273 . S
C221 O217 1.246 . S
C221 O218 1.259 . S
C222 O219 1.252 . S
C222 O220 1.273 . S
O223 Mg210 2.010 . S
O223 C215 1.249 . S
Mg224 O225 2.028 . S
Mg224 O231 1.986 . S
Mg224 O233 2.114 . S
Mg224 O234 2.251 . S
Mg224 O237 2.010 . S
O225 Mg224 2.028 . S
O225 C228 1.250 . S
O226 Mg227 2.028 . S
O226 C228 1.248 . S
Mg227 O226 2.028 . S
Mg227 O232 2.032 . S
Mg227 O234 2.079 . S
C228 O225 1.250 . S
C228 O226 1.248 . S
C229 O230 1.264 . S
C229 O237 1.249 . S
O230 C229 1.264 . S
O231 Mg224 1.986 . S
O231 C235 1.246 . S
O232 Mg227 2.032 . S
O232 C235 1.259 . S
O233 Mg224 2.114 . S
O233 C236 1.252 . S
O234 Mg224 2.251 . S
O234 Mg227 2.079 . S
O234 C236 1.273 . S
C235 O231 1.246 . S
C235 O232 1.259 . S
C236 O233 1.252 . S
C236 O234 1.273 . S
O237 Mg224 2.010 . S
O237 C229 1.249 . S
Mg238 O239 2.028 . S
Mg238 O245 1.986 . S
Mg238 O247 2.114 . S
Mg238 O248 2.251 . S
Mg238 O251 2.010 . S
O239 Mg238 2.028 . S
O239 C242 1.250 . S
O240 Mg241 2.028 . S
O240 C242 1.248 . S
Mg241 O240 2.028 . S
Mg241 O246 2.032 . S
Mg241 O248 2.079 . S
C242 O239 1.250 . S
C242 O240 1.248 . S
C243 O244 1.264 . S
C243 O251 1.249 . S
O244 C243 1.264 . S
O245 Mg238 1.986 . S
O245 C249 1.246 . S
O246 Mg241 2.032 . S
O246 C249 1.259 . S
O247 Mg238 2.114 . S
O247 C250 1.252 . S
O248 Mg238 2.251 . S
O248 Mg241 2.079 . S
O248 C250 1.273 . S
C249 O245 1.246 . S
C249 O246 1.259 . S
C250 O247 1.252 . S
C250 O248 1.273 . S
O251 Mg238 2.010 . S
O251 C243 1.249 . S
Mg252 O253 2.028 . S
Mg252 O259 1.986 . S
Mg252 O261 2.114 . S
Mg252 O262 2.251 . S
Mg252 O265 2.010 1_554 S
O253 Mg252 2.028 . S
O253 C256 1.250 . S
O254 Mg255 2.028 . S
O254 C256 1.248 . S
Mg255 O254 2.028 . S
Mg255 O260 2.032 . S
Mg255 O262 2.079 . S
C256 O253 1.250 . S
C256 O254 1.248 . S
C257 O258 1.264 . S
C257 O265 1.249 . S
O258 C257 1.264 . S
O259 Mg252 1.986 . S
O259 C263 1.246 . S
O260 Mg255 2.032 . S
O260 C263 1.259 . S
O261 Mg252 2.114 . S
O261 C264 1.252 . S
O262 Mg252 2.251 . S
O262 Mg255 2.079 . S
O262 C264 1.273 . S
C263 O259 1.246 . S
C263 O260 1.259 . S
C264 O261 1.252 . S
C264 O262 1.273 . S
O265 Mg252 2.010 1_556 S
O265 C257 1.249 . S
Mg266 O267 2.028 . S
Mg266 O273 1.986 . S
Mg266 O275 2.114 . S
Mg266 O276 2.251 . S
Mg266 O279 2.010 . S
O267 Mg266 2.028 . S
O267 C270 1.250 . S
O268 Mg269 2.028 . S
O268 C270 1.248 . S
Mg269 O268 2.028 . S
Mg269 O274 2.032 . S
Mg269 O276 2.079 . S
C270 O267 1.250 . S
C270 O268 1.248 . S
C271 O272 1.264 . S
C271 O279 1.249 . S
O272 C271 1.264 . S
O273 Mg266 1.986 . S
O273 C277 1.246 . S
O274 Mg269 2.032 . S
O274 C277 1.259 . S
O275 Mg266 2.114 . S
O275 C278 1.252 . S
O276 Mg266 2.251 . S
O276 Mg269 2.079 . S
O276 C278 1.273 . S
C277 O273 1.246 . S
C277 O274 1.259 . S
C278 O275 1.252 . S
C278 O276 1.273 . S
O279 Mg266 2.010 . S
O279 C271 1.249 . S
Mg280 O281 2.028 . S
Mg280 O287 1.986 . S
Mg280 O289 2.114 . S
Mg280 O290 2.251 . S
Mg280 O293 2.010 1_556 S
O281 Mg280 2.028 . S
O281 C284 1.250 . S
O282 Mg283 2.028 . S
O282 C284 1.248 . S
Mg283 O282 2.028 . S
Mg283 O288 2.032 . S
Mg283 O290 2.079 . S
C284 O281 1.250 . S
C284 O282 1.248 . S
C285 O286 1.264 . S
C285 O293 1.249 . S
O286 C285 1.264 . S
O287 Mg280 1.986 . S
O287 C291 1.246 . S
O288 Mg283 2.032 . S
O288 C291 1.259 . S
O289 Mg280 2.114 . S
O289 C292 1.252 . S
O290 Mg280 2.251 . S
O290 Mg283 2.079 . S
O290 C292 1.273 . S
C291 O287 1.246 . S
C291 O288 1.259 . S
C292 O289 1.252 . S
C292 O290 1.273 . S
O293 Mg280 2.010 1_554 S
O293 C285 1.249 . S
Mg294 O295 2.028 . S
Mg294 O301 1.986 . S
Mg294 O303 2.114 . S
Mg294 O304 2.251 . S
Mg294 O307 2.010 . S
O295 Mg294 2.028 . S
O295 C298 1.250 . S
O296 Mg297 2.028 . S
O296 C298 1.248 . S
Mg297 O296 2.028 . S
Mg297 O302 2.032 . S
Mg297 O304 2.079 . S
C298 O295 1.250 . S
C298 O296 1.248 . S
C299 O300 1.264 . S
C299 O307 1.249 . S
O300 C299 1.264 . S
O301 Mg294 1.986 . S
O301 C305 1.246 . S
O302 Mg297 2.032 . S
O302 C305 1.259 . S
O303 Mg294 2.114 . S
O303 C306 1.252 . S
O304 Mg294 2.251 . S
O304 Mg297 2.079 . S
O304 C306 1.273 . S
C305 O301 1.246 . S
C305 O302 1.259 . S
C306 O303 1.252 . S
C306 O304 1.273 . S
O307 Mg294 2.010 . S
O307 C299 1.249 . S
Mg308 O309 2.028 . S
Mg308 O315 1.986 . S
Mg308 O317 2.114 . S
Mg308 O318 2.251 . S
Mg308 O321 2.010 . S
O309 Mg308 2.028 . S
O309 C312 1.250 . S
O310 Mg311 2.028 . S
O310 C312 1.248 . S
Mg311 O310 2.028 . S
Mg311 O316 2.032 . S
Mg311 O318 2.079 . S
C312 O309 1.250 . S
C312 O310 1.248 . S
C313 O314 1.264 . S
C313 O321 1.249 . S
O314 C313 1.264 . S
O315 Mg308 1.986 . S
O315 C319 1.246 . S
O316 Mg311 2.032 . S
O316 C319 1.259 . S
O317 Mg308 2.114 . S
O317 C320 1.252 . S
O318 Mg308 2.251 . S
O318 Mg311 2.079 . S
O318 C320 1.273 . S
C319 O315 1.246 . S
C319 O316 1.259 . S
C320 O317 1.252 . S
C320 O318 1.273 . S
O321 Mg308 2.010 . S
O321 C313 1.249 . S
Mg322 O323 2.028 . S
Mg322 O329 1.986 . S
Mg322 O331 2.114 . S
Mg322 O332 2.251 . S
Mg322 O335 2.010 . S
O323 Mg322 2.028 . S
O323 C326 1.250 . S
O324 Mg325 2.028 . S
O324 C326 1.248 . S
Mg325 O324 2.028 . S
Mg325 O330 2.032 . S
Mg325 O332 2.079 . S
C326 O323 1.250 . S
C326 O324 1.248 . S
C327 O328 1.264 . S
C327 O335 1.249 . S
O328 C327 1.264 . S
O329 Mg322 1.986 . S
O329 C333 1.246 . S
O330 Mg325 2.032 . S
O330 C333 1.259 . S
O331 Mg322 2.114 . S
O331 C334 1.252 . S
O332 Mg322 2.251 . S
O332 Mg325 2.079 . S
O332 C334 1.273 . S
C333 O329 1.246 . S
C333 O330 1.259 . S
C334 O331 1.252 . S
C334 O332 1.273 . S
O335 Mg322 2.010 . S
O335 C327 1.249 . S
Mg336 O337 2.028 . S
Mg336 O343 1.986 . S
Mg336 O345 2.114 . S
Mg336 O346 2.251 . S
Mg336 O349 2.010 . S
O337 Mg336 2.028 . S
O337 C340 1.250 . S
O338 Mg339 2.028 . S
O338 C340 1.248 . S
Mg339 O338 2.028 . S
Mg339 O344 2.032 . S
Mg339 O346 2.079 . S
C340 O337 1.250 . S
C340 O338 1.248 . S
C341 O342 1.264 . S
C341 O349 1.249 . S
O342 C341 1.264 . S
O343 Mg336 1.986 . S
O343 C347 1.246 . S
O344 Mg339 2.032 . S
O344 C347 1.259 . S
O345 Mg336 2.114 . S
O345 C348 1.252 . S
O346 Mg336 2.251 . S
O346 Mg339 2.079 . S
O346 C348 1.273 . S
C347 O343 1.246 . S
C347 O344 1.259 . S
C348 O345 1.252 . S
C348 O346 1.273 . S
O349 Mg336 2.010 . S
O349 C341 1.249 . S
Mg350 O351 2.028 . S
Mg350 O357 1.986 . S
Mg350 O359 2.114 . S
Mg350 O360 2.251 . S
Mg350 O363 2.010 . S
O351 Mg350 2.028 . S
O351 C354 1.250 . S
O352 Mg353 2.028 . S
O352 C354 1.248 . S
Mg353 O352 2.028 . S
Mg353 O358 2.032 . S
Mg353 O360 2.079 . S
C354 O351 1.250 . S
C354 O352 1.248 . S
C355 O356 1.264 . S
C355 O363 1.249 . S
O356 C355 1.264 . S
O357 Mg350 1.986 . S
O357 C361 1.246 . S
O358 Mg353 2.032 . S
O358 C361 1.259 . S
O359 Mg350 2.114 . S
O359 C362 1.252 . S
O360 Mg350 2.251 . S
O360 Mg353 2.079 . S
O360 C362 1.273 . S
C361 O357 1.246 . S
C361 O358 1.259 . S
C362 O359 1.252 . S
C362 O360 1.273 . S
O363 Mg350 2.010 . S
O363 C355 1.249 . S
Mg364 O365 2.028 . S
Mg364 O371 1.986 . S
Mg364 O373 2.114 . S
Mg364 O374 2.251 . S
Mg364 O377 2.010 1_556 S
O365 Mg364 2.028 . S
O365 C368 1.250 . S
O366 Mg367 2.028 . S
O366 C368 1.248 . S
Mg367 O366 2.028 . S
Mg367 O372 2.032 . S
Mg367 O374 2.079 . S
C368 O365 1.250 . S
C368 O366 1.248 . S
C369 O370 1.264 . S
C369 O377 1.249 . S
O370 C369 1.264 . S
O371 Mg364 1.986 . S
O371 C375 1.246 . S
O372 Mg367 2.032 . S
O372 C375 1.259 . S
O373 Mg364 2.114 . S
O373 C376 1.252 . S
O374 Mg364 2.251 . S
O374 Mg367 2.079 . S
O374 C376 1.273 . S
C375 O371 1.246 . S
C375 O372 1.259 . S
C376 O373 1.252 . S
C376 O374 1.273 . S
O377 Mg364 2.010 1_554 S
O377 C369 1.249 . S
Mg378 O379 2.028 . S
Mg378 O385 1.986 . S
Mg378 O387 2.114 . S
Mg378 O388 2.251 . S
Mg378 O391 2.010 . S
O379 Mg378 2.028 . S
O379 C382 1.250 . S
O380 Mg381 2.028 . S
O380 C382 1.248 . S
Mg381 O380 2.028 . S
Mg381 O386 2.032 . S
Mg381 O388 2.079 . S
C382 O379 1.250 . S
C382 O380 1.248 . S
C383 O384 1.264 . S
C383 O391 1.249 . S
O384 C383 1.264 . S
O385 Mg378 1.986 . S
O385 C389 1.246 . S
O386 Mg381 2.032 . S
O386 C389 1.259 . S
O387 Mg378 2.114 . S
O387 C390 1.252 . S
O388 Mg378 2.251 . S
O388 Mg381 2.079 . S
O388 C390 1.273 . S
C389 O385 1.246 . S
C389 O386 1.259 . S
C390 O387 1.252 . S
C390 O388 1.273 . S
O391 Mg378 2.010 . S
O391 C383 1.249 . S
Mg392 O393 2.028 . S
Mg392 O399 1.986 . S
Mg392 O401 2.114 . S
Mg392 O402 2.251 . S
Mg392 O405 2.010 1_554 S
O393 Mg392 2.028 . S
O393 C396 1.250 . S
O394 Mg395 2.028 . S
O394 C396 1.248 . S
Mg395 O394 2.028 . S
Mg395 O400 2.032 . S
Mg395 O402 2.079 . S
C396 O393 1.250 . S
C396 O394 1.248 . S
C397 O398 1.264 . S
C397 O405 1.249 . S
O398 C397 1.264 . S
O399 Mg392 1.986 . S
O399 C403 1.246 . S
O400 Mg395 2.032 . S
O400 C403 1.259 . S
O401 Mg392 2.114 . S
O401 C404 1.252 . S
O402 Mg392 2.251 . S
O402 Mg395 2.079 . S
O402 C404 1.273 . S
C403 O399 1.246 . S
C403 O400 1.259 . S
C404 O401 1.252 . S
C404 O402 1.273 . S
O405 Mg392 2.010 1_556 S
O405 C397 1.249 . S
Mg406 O407 2.028 . S
Mg406 O413 1.986 . S
Mg406 O415 2.114 . S
Mg406 O416 2.251 . S
Mg406 O419 2.010 . S
O407 Mg406 2.028 . S
O407 C410 1.250 . S
O408 Mg409 2.028 . S
O408 C410 1.248 . S
Mg409 O408 2.028 . S
Mg409 O414 2.032 . S
Mg409 O416 2.079 . S
C410 O407 1.250 . S
C410 O408 1.248 . S
C411 O412 1.264 . S
C411 O419 1.249 . S
O412 C411 1.264 . S
O413 Mg406 1.986 . S
O413 C417 1.246 . S
O414 Mg409 2.032 . S
O414 C417 1.259 . S
O415 Mg406 2.114 . S
O415 C418 1.252 . S
O416 Mg406 2.251 . S
O416 Mg409 2.079 . S
O416 C418 1.273 . S
C417 O413 1.246 . S
C417 O414 1.259 . S
C418 O415 1.252 . S
C418 O416 1.273 . S
O419 Mg406 2.010 . S
O419 C411 1.249 . S
Mg420 O421 2.028 . S
Mg420 O427 1.986 . S
Mg420 O429 2.114 . S
Mg420 O430 2.251 . S
Mg420 O433 2.010 . S
O421 Mg420 2.028 . S
O421 C424 1.250 . S
O422 Mg423 2.028 . S
O422 C424 1.248 . S
Mg423 O422 2.028 . S
Mg423 O428 2.032 . S
Mg423 O430 2.079 . S
C424 O421 1.250 . S
C424 O422 1.248 . S
C425 O426 1.264 . S
C425 O433 1.249 . S
O426 C425 1.264 . S
O427 Mg420 1.986 . S
O427 C431 1.246 . S
O428 Mg423 2.032 . S
O428 C431 1.259 . S
O429 Mg420 2.114 . S
O429 C432 1.252 . S
O430 Mg420 2.251 . S
O430 Mg423 2.079 . S
O430 C432 1.273 . S
C431 O427 1.246 . S
C431 O428 1.259 . S
C432 O429 1.252 . S
C432 O430 1.273 . S
O433 Mg420 2.010 . S
O433 C425 1.249 . S
Mg434 O435 2.028 . S
Mg434 O441 1.986 . S
Mg434 O443 2.114 . S
Mg434 O444 2.251 . S
Mg434 O447 2.010 . S
O435 Mg434 2.028 . S
O435 C438 1.250 . S
O436 Mg437 2.028 . S
O436 C438 1.248 . S
Mg437 O436 2.028 . S
Mg437 O442 2.032 . S
Mg437 O444 2.079 . S
C438 O435 1.250 . S
C438 O436 1.248 . S
C439 O440 1.264 . S
C439 O447 1.249 . S
O440 C439 1.264 . S
O441 Mg434 1.986 . S
O441 C445 1.246 . S
O442 Mg437 2.032 . S
O442 C445 1.259 . S
O443 Mg434 2.114 . S
O443 C446 1.252 . S
O444 Mg434 2.251 . S
O444 Mg437 2.079 . S
O444 C446 1.273 . S
C445 O441 1.246 . S
C445 O442 1.259 . S
C446 O443 1.252 . S
C446 O444 1.273 . S
O447 Mg434 2.010 . S
O447 C439 1.249 . S
C448 C449 1.349 . S
C448 C450 1.327 . S
C448 H473 0.950 . S
C449 C448 1.349 . S
C449 C465 1.349 . S
C450 C448 1.327 . S
C450 C469 1.429 . S
C450 H474 0.950 . S
C451 C468 1.574 . S
C451 C470 1.368 1_554 S
C451 H475 0.949 . S
H452 C456 0.949 . S
C453 C454 1.349 . S
C453 C455 1.327 . S
C453 H476 0.950 . S
C454 C453 1.349 . S
C454 C466 1.349 . S
C455 C453 1.327 . S
C455 C471 1.429 . S
C455 H477 0.950 . S
C456 H452 0.949 . S
C456 C464 1.574 . S
C456 C472 1.368 1_556 S
H457 C465 0.946 1_554 S
H458 C463 0.950 1_554 S
H459 C464 0.949 . S
H460 C466 0.946 1_556 S
H461 C467 0.950 1_556 S
H462 C468 0.949 . S
C463 H458 0.950 1_556 S
C463 C465 1.327 . S
C463 C469 1.429 . S
C464 C456 1.574 . S
C464 H459 0.949 . S
C464 C470 1.368 . S
C465 C449 1.349 . S
C465 H457 0.946 1_556 S
C465 C463 1.327 . S
C466 C454 1.349 . S
C466 H460 0.946 1_554 S
C466 C467 1.327 . S
C467 H461 0.950 1_554 S
C467 C466 1.327 . S
C467 C471 1.429 . S
C468 C451 1.574 . S
C468 H462 0.949 . S
C468 C472 1.368 . S
C469 C450 1.429 . S
C469 C463 1.429 . S
C469 C470 1.523 . S
C470 C451 1.368 1_556 S
C470 C464 1.368 . S
C470 C469 1.523 . S
C471 C455 1.429 . S
C471 C467 1.429 . S
C471 C472 1.523 . S
C472 C456 1.368 1_554 S
C472 C468 1.368 . S
C472 C471 1.523 . S
H473 C448 0.950 . S
H474 C450 0.950 . S
H475 C451 0.949 . S
H476 C453 0.950 . S
H477 C455 0.950 . S
C478 C479 1.349 . S
C478 C480 1.327 . S
C478 H503 0.950 . S
C479 C478 1.349 . S
C479 C495 1.349 . S
C480 C478 1.327 . S
C480 C499 1.429 . S
C480 H504 0.950 . S
C481 C498 1.574 1_565 S
C481 C500 1.368 . S
C481 H505 0.949 . S
H482 C486 0.949 . S
C483 C484 1.349 . S
C483 C485 1.327 . S
C483 H506 0.950 . S
C484 C483 1.349 . S
C484 C496 1.349 . S
C485 C483 1.327 . S
C485 C501 1.429 . S
C485 H507 0.950 . S
C486 H482 0.949 . S
C486 C494 1.574 1_545 S
C486 C502 1.368 . S
H487 C495 0.950 . S
H488 C493 0.950 . S
H489 C494 0.949 . S
H490 C496 0.950 . S
H491 C497 0.950 . S
H492 C498 0.949 . S
C493 H488 0.950 . S
C493 C495 1.327 . S
C493 C499 1.429 . S
C494 C486 1.574 1_565 S
C494 H489 0.949 . S
C494 C500 1.368 . S
C495 C479 1.349 . S
C495 H487 0.950 . S
C495 C493 1.327 . S
C496 C484 1.349 . S
C496 H490 0.950 . S
C496 C497 1.327 . S
C497 H491 0.950 . S
C497 C496 1.327 . S
C497 C501 1.429 . S
C498 C481 1.574 1_545 S
C498 H492 0.949 . S
C498 C502 1.368 . S
C499 C480 1.429 . S
C499 C493 1.429 . S
C499 C500 1.523 . S
C500 C481 1.368 . S
C500 C494 1.368 . S
C500 C499 1.523 . S
C501 C485 1.429 . S
C501 C497 1.429 . S
C501 C502 1.523 . S
C502 C486 1.368 . S
C502 C498 1.368 . S
C502 C501 1.523 . S
H503 C478 0.950 . S
H504 C480 0.950 . S
H505 C481 0.949 . S
H506 C483 0.950 . S
H507 C485 0.950 . S
C508 C509 1.349 . S
C508 C510 1.327 . S
C508 H533 0.950 . S
C509 C508 1.349 . S
C509 C525 1.349 . S
C510 C508 1.327 . S
C510 C529 1.429 . S
C510 H534 0.950 . S
C511 C528 1.574 . S
C511 C530 1.368 . S
C511 H535 0.949 . S
H512 C516 0.949 . S
C513 C514 1.349 . S
C513 C515 1.327 . S
C513 H536 0.950 . S
C514 C513 1.349 . S
C514 C526 1.349 . S
C515 C513 1.327 . S
C515 C531 1.429 . S
C515 H537 0.950 . S
C516 H512 0.949 . S
C516 C524 1.574 . S
C516 C532 1.368 . S
H517 C525 0.950 . S
H518 C523 0.950 . S
H519 C524 0.949 . S
H520 C526 0.950 . S
H521 C527 0.950 . S
H522 C528 0.949 . S
C523 H518 0.950 . S
C523 C525 1.327 . S
C523 C529 1.429 . S
C524 C516 1.574 . S
C524 H519 0.949 . S
C524 C530 1.368 . S
C525 C509 1.349 . S
C525 H517 0.950 . S
C525 C523 1.327 . S
C526 C514 1.349 . S
C526 H520 0.950 . S
C526 C527 1.327 . S
C527 H521 0.950 . S
C527 C526 1.327 . S
C527 C531 1.429 . S
C528 C511 1.574 . S
C528 H522 0.949 . S
C528 C532 1.368 . S
C529 C510 1.429 . S
C529 C523 1.429 . S
C529 C530 1.523 . S
C530 C511 1.368 . S
C530 C524 1.368 . S
C530 C529 1.523 . S
C531 C515 1.429 . S
C531 C527 1.429 . S
C531 C532 1.523 . S
C532 C516 1.368 . S
C532 C528 1.368 . S
C532 C531 1.523 . S
H533 C508 0.950 . S
H534 C510 0.950 . S
H535 C511 0.949 . S
H536 C513 0.950 . S
H537 C515 0.950 . S
C538 C539 1.349 . S
C538 C540 1.327 . S
C538 H563 0.950 . S
C539 C538 1.349 . S
C539 C555 1.349 . S
C540 C538 1.327 . S
C540 C559 1.429 . S
C540 H564 0.950 . S
C541 C558 1.574 1_545 S
C541 C560 1.368 . S
C541 H565 0.949 . S
H542 C546 0.949 . S
C543 C544 1.349 . S
C543 C545 1.327 . S
C543 H566 0.950 . S
C544 C543 1.349 . S
C544 C556 1.349 . S
C545 C543 1.327 . S
C545 C561 1.429 . S
C545 H567 0.950 . S
C546 H542 0.949 . S
C546 C554 1.574 1_565 S
C546 C562 1.368 . S
H547 C555 0.950 . S
H548 C553 0.950 . S
H549 C554 0.949 . S
H550 C556 0.950 . S
H551 C557 0.950 . S
H552 C558 0.949 . S
C553 H548 0.950 . S
C553 C555 1.327 . S
C553 C559 1.429 . S
C554 C546 1.574 1_545 S
C554 H549 0.949 . S
C554 C560 1.368 . S
C555 C539 1.349 . S
C555 H547 0.950 . S
C555 C553 1.327 . S
C556 C544 1.349 . S
C556 H550 0.950 . S
C556 C557 1.327 . S
C557 H551 0.950 . S
C557 C556 1.327 . S
C557 C561 1.429 . S
C558 C541 1.574 1_565 S
C558 H552 0.949 . S
C558 C562 1.368 . S
C559 C540 1.429 . S
C559 C553 1.429 . S
C559 C560 1.523 . S
C560 C541 1.368 . S
C560 C554 1.368 . S
C560 C559 1.523 . S
C561 C545 1.429 . S
C561 C557 1.429 . S
C561 C562 1.523 . S
C562 C546 1.368 . S
C562 C558 1.368 . S
C562 C561 1.523 . S
H563 C538 0.950 . S
H564 C540 0.950 . S
H565 C541 0.949 . S
H566 C543 0.950 . S
H567 C545 0.950 . S
C568 C569 1.349 . S
C568 C570 1.327 . S
C568 H593 0.950 . S
C569 C568 1.349 . S
C569 C585 1.349 . S
C570 C568 1.327 . S
C570 C589 1.429 . S
C570 H594 0.950 . S
C571 C588 1.574 . S
C571 C590 1.368 1_556 S
C571 H595 0.949 . S
H572 C576 0.949 . S
C573 C574 1.349 . S
C573 C575 1.327 . S
C573 H596 0.950 . S
C574 C573 1.349 . S
C574 C586 1.349 . S
C575 C573 1.327 . S
C575 C591 1.429 . S
C575 H597 0.950 . S
C576 H572 0.949 . S
C576 C584 1.574 . S
C576 C592 1.368 1_554 S
H577 C585 0.946 1_556 S
H578 C583 0.950 1_556 S
H579 C584 0.949 . S
H580 C586 0.946 1_554 S
H581 C587 0.950 1_554 S
H582 C588 0.949 . S
C583 H578 0.950 1_554 S
C583 C585 1.327 . S
C583 C589 1.429 . S
C584 C576 1.574 . S
C584 H579 0.949 . S
C584 C590 1.368 . S
C585 C569 1.349 . S
C585 H577 0.946 1_554 S
C585 C583 1.327 . S
C586 C574 1.349 . S
C586 H580 0.946 1_556 S
C586 C587 1.327 . S
C587 H581 0.950 1_556 S
C587 C586 1.327 . S
C587 C591 1.429 . S
C588 C571 1.574 . S
C588 H582 0.949 . S
C588 C592 1.368 . S
C589 C570 1.429 . S
C589 C583 1.429 . S
C589 C590 1.523 . S
C590 C571 1.368 1_554 S
C590 C584 1.368 . S
C590 C589 1.523 . S
C591 C575 1.429 . S
C591 C587 1.429 . S
C591 C592 1.523 . S
C592 C576 1.368 1_556 S
C592 C588 1.368 . S
C592 C591 1.523 . S
H593 C568 0.950 . S
H594 C570 0.950 . S
H595 C571 0.949 . S
H596 C573 0.950 . S
H597 C575 0.950 . S
C598 C599 1.349 . S
C598 C600 1.327 . S
C598 H623 0.950 . S
C599 C598 1.349 . S
C599 C615 1.349 . S
C600 C598 1.327 . S
C600 C619 1.429 . S
C600 H624 0.950 . S
C601 C618 1.574 1_565 S
C601 C620 1.368 . S
C601 H625 0.949 . S
H602 C606 0.949 . S
C603 C604 1.349 . S
C603 C605 1.327 . S
C603 H626 0.950 . S
C604 C603 1.349 . S
C604 C616 1.349 . S
C605 C603 1.327 . S
C605 C621 1.429 . S
C605 H627 0.950 . S
C606 H602 0.949 . S
C606 C614 1.574 1_545 S
C606 C622 1.368 . S
H607 C615 0.950 . S
H608 C613 0.950 . S
H609 C614 0.949 . S
H610 C616 0.950 . S
H611 C617 0.950 . S
H612 C618 0.949 . S
C613 H608 0.950 . S
C613 C615 1.327 . S
C613 C619 1.429 . S
C614 C606 1.574 1_565 S
C614 H609 0.949 . S
C614 C620 1.368 . S
C615 C599 1.349 . S
C615 H607 0.950 . S
C615 C613 1.327 . S
C616 C604 1.349 . S
C616 H610 0.950 . S
C616 C617 1.327 . S
C617 H611 0.950 . S
C617 C616 1.327 . S
C617 C621 1.429 . S
C618 C601 1.574 1_545 S
C618 H612 0.949 . S
C618 C622 1.368 . S
C619 C600 1.429 . S
C619 C613 1.429 . S
C619 C620 1.523 . S
C620 C601 1.368 . S
C620 C614 1.368 . S
C620 C619 1.523 . S
C621 C605 1.429 . S
C621 C617 1.429 . S
C621 C622 1.523 . S
C622 C606 1.368 . S
C622 C618 1.368 . S
C622 C621 1.523 . S
H623 C598 0.950 . S
H624 C600 0.950 . S
H625 C601 0.949 . S
H626 C603 0.950 . S
H627 C605 0.950 . S
C628 C629 1.349 . S
C628 C630 1.327 . S
C628 H653 0.950 . S
C629 C628 1.349 . S
C629 C645 1.349 . S
C630 C628 1.327 . S
C630 C649 1.429 . S
C630 H654 0.950 . S
C631 C648 1.574 . S
C631 C650 1.368 . S
C631 H655 0.949 . S
H632 C636 0.949 . S
C633 C634 1.349 . S
C633 C635 1.327 . S
C633 H656 0.950 . S
C634 C633 1.349 . S
C634 C646 1.349 . S
C635 C633 1.327 . S
C635 C651 1.429 . S
C635 H657 0.950 . S
C636 H632 0.949 . S
C636 C644 1.574 . S
C636 C652 1.368 . S
H637 C645 0.950 . S
H638 C643 0.950 . S
H639 C644 0.949 . S
H640 C646 0.950 . S
H641 C647 0.950 . S
H642 C648 0.949 . S
C643 H638 0.950 . S
C643 C645 1.327 . S
C643 C649 1.429 . S
C644 C636 1.574 . S
C644 H639 0.949 . S
C644 C650 1.368 . S
C645 C629 1.349 . S
C645 H637 0.950 . S
C645 C643 1.327 . S
C646 C634 1.349 . S
C646 H640 0.950 . S
C646 C647 1.327 . S
C647 H641 0.950 . S
C647 C646 1.327 . S
C647 C651 1.429 . S
C648 C631 1.574 . S
C648 H642 0.949 . S
C648 C652 1.368 . S
C649 C630 1.429 . S
C649 C643 1.429 . S
C649 C650 1.523 . S
C650 C631 1.368 . S
C650 C644 1.368 . S
C650 C649 1.523 . S
C651 C635 1.429 . S
C651 C647 1.429 . S
C651 C652 1.523 . S
C652 C636 1.368 . S
C652 C648 1.368 . S
C652 C651 1.523 . S
H653 C628 0.950 . S
H654 C630 0.950 . S
H655 C631 0.949 . S
H656 C633 0.950 . S
H657 C635 0.950 . S
C658 C659 1.349 . S
C658 C660 1.327 . S
C658 H683 0.950 . S
C659 C658 1.349 . S
C659 C675 1.349 . S
C660 C658 1.327 . S
C660 C679 1.429 . S
C660 H684 0.950 . S
C661 C678 1.574 1_565 S
C661 C680 1.368 . S
C661 H685 0.949 . S
H662 C666 0.949 . S
C663 C664 1.349 . S
C663 C665 1.327 . S
C663 H686 0.950 . S
C664 C663 1.349 . S
C664 C676 1.349 . S
C665 C663 1.327 . S
C665 C681 1.429 . S
C665 H687 0.950 . S
C666 H662 0.949 . S
C666 C674 1.574 1_545 S
C666 C682 1.368 . S
H667 C675 0.950 . S
H668 C673 0.950 . S
H669 C674 0.949 . S
H670 C676 0.950 . S
H671 C677 0.950 . S
H672 C678 0.949 . S
C673 H668 0.950 . S
C673 C675 1.327 . S
C673 C679 1.429 . S
C674 C666 1.574 1_565 S
C674 H669 0.949 . S
C674 C680 1.368 . S
C675 C659 1.349 . S
C675 H667 0.950 . S
C675 C673 1.327 . S
C676 C664 1.349 . S
C676 H670 0.950 . S
C676 C677 1.327 . S
C677 H671 0.950 . S
C677 C676 1.327 . S
C677 C681 1.429 . S
C678 C661 1.574 1_545 S
C678 H672 0.949 . S
C678 C682 1.368 . S
C679 C660 1.429 . S
C679 C673 1.429 . S
C679 C680 1.523 . S
C680 C661 1.368 . S
C680 C674 1.368 . S
C680 C679 1.523 . S
C681 C665 1.429 . S
C681 C677 1.429 . S
C681 C682 1.523 . S
C682 C666 1.368 . S
C682 C678 1.368 . S
C682 C681 1.523 . S
H683 C658 0.950 . S
H684 C660 0.950 . S
H685 C661 0.949 . S
H686 C663 0.950 . S
H687 C665 0.950 . S
C688 C689 1.349 . S
C688 C690 1.327 . S
C688 H713 0.950 . S
C689 C688 1.349 . S
C689 C705 1.349 . S
C690 C688 1.327 . S
C690 C709 1.429 . S
C690 H714 0.950 . S
C691 C708 1.574 . S
C691 C710 1.368 . S
C691 H715 0.949 . S
H692 C696 0.949 . S
C693 C694 1.349 . S
C693 C695 1.327 . S
C693 H716 0.950 . S
C694 C693 1.349 . S
C694 C706 1.349 . S
C695 C693 1.327 . S
C695 C711 1.429 . S
C695 H717 0.950 . S
C696 H692 0.949 . S
C696 C704 1.574 . S
C696 C712 1.368 . S
H697 C705 0.950 . S
H698 C703 0.950 . S
H699 C704 0.949 . S
H700 C706 0.950 . S
H701 C707 0.950 . S
H702 C708 0.949 . S
C703 H698 0.950 . S
C703 C705 1.327 . S
C703 C709 1.429 . S
C704 C696 1.574 . S
C704 H699 0.949 . S
C704 C710 1.368 . S
C705 C689 1.349 . S
C705 H697 0.950 . S
C705 C703 1.327 . S
C706 C694 1.349 . S
C706 H700 0.950 . S
C706 C707 1.327 . S
C707 H701 0.950 . S
C707 C706 1.327 . S
C707 C711 1.429 . S
C708 C691 1.574 . S
C708 H702 0.949 . S
C708 C712 1.368 . S
C709 C690 1.429 . S
C709 C703 1.429 . S
C709 C710 1.523 . S
C710 C691 1.368 . S
C710 C704 1.368 . S
C710 C709 1.523 . S
C711 C695 1.429 . S
C711 C707 1.429 . S
C711 C712 1.523 . S
C712 C696 1.368 . S
C712 C708 1.368 . S
C712 C711 1.523 . S
H713 C688 0.950 . S
H714 C690 0.950 . S
H715 C691 0.949 . S
H716 C693 0.950 . S
H717 C695 0.950 . S
C718 C719 1.349 . S
C718 C720 1.327 . S
C718 H743 0.950 . S
C719 C718 1.349 . S
C719 C735 1.349 . S
C720 C718 1.327 . S
C720 C739 1.429 . S
C720 H744 0.950 . S
C721 C738 1.574 . S
C721 C740 1.368 . S
C721 H745 0.949 . S
H722 C726 0.949 . S
C723 C724 1.349 . S
C723 C725 1.327 . S
C723 H746 0.950 . S
C724 C723 1.349 . S
C724 C736 1.349 . S
C725 C723 1.327 . S
C725 C741 1.429 . S
C725 H747 0.950 . S
C726 H722 0.949 . S
C726 C734 1.574 . S
C726 C742 1.368 . S
H727 C735 0.950 . S
H728 C733 0.950 . S
H729 C734 0.949 . S
H730 C736 0.950 . S
H731 C737 0.950 . S
H732 C738 0.949 . S
C733 H728 0.950 . S
C733 C735 1.327 . S
C733 C739 1.429 . S
C734 C726 1.574 . S
C734 H729 0.949 . S
C734 C740 1.368 . S
C735 C719 1.349 . S
C735 H727 0.950 . S
C735 C733 1.327 . S
C736 C724 1.349 . S
C736 H730 0.950 . S
C736 C737 1.327 . S
C737 H731 0.950 . S
C737 C736 1.327 . S
C737 C741 1.429 . S
C738 C721 1.574 . S
C738 H732 0.949 . S
C738 C742 1.368 . S
C739 C720 1.429 . S
C739 C733 1.429 . S
C739 C740 1.523 . S
C740 C721 1.368 . S
C740 C734 1.368 . S
C740 C739 1.523 . S
C741 C725 1.429 . S
C741 C737 1.429 . S
C741 C742 1.523 . S
C742 C726 1.368 . S
C742 C738 1.368 . S
C742 C741 1.523 . S
H743 C718 0.950 . S
H744 C720 0.950 . S
H745 C721 0.949 . S
H746 C723 0.950 . S
H747 C725 0.950 . S
C748 C749 1.349 . S
C748 C750 1.327 . S
C748 H773 0.946 1_556 S
C749 C748 1.349 . S
C749 C765 1.349 . S
C750 C748 1.327 . S
C750 C769 1.429 . S
C750 H774 0.950 1_556 S
C751 C768 1.574 . S
C751 C770 1.368 . S
C751 H775 0.949 . S
H752 C756 0.949 . S
C753 C754 1.349 . S
C753 C755 1.327 . S
C753 H776 0.946 1_554 S
C754 C753 1.349 . S
C754 C766 1.349 . S
C755 C753 1.327 . S
C755 C771 1.429 . S
C755 H777 0.950 1_554 S
C756 H752 0.949 . S
C756 C764 1.574 . S
C756 C772 1.368 . S
H757 C765 0.950 . S
H758 C763 0.950 . S
H759 C764 0.949 . S
H760 C766 0.950 . S
H761 C767 0.950 . S
H762 C768 0.949 . S
C763 H758 0.950 . S
C763 C765 1.327 . S
C763 C769 1.429 . S
C764 C756 1.574 . S
C764 H759 0.949 . S
C764 C770 1.368 1_554 S
C765 C749 1.349 . S
C765 H757 0.950 . S
C765 C763 1.327 . S
C766 C754 1.349 . S
C766 H760 0.950 . S
C766 C767 1.327 . S
C767 H761 0.950 . S
C767 C766 1.327 . S
C767 C771 1.429 . S
C768 C751 1.574 . S
C768 H762 0.949 . S
C768 C772 1.368 1_556 S
C769 C750 1.429 . S
C769 C763 1.429 . S
C769 C770 1.523 . S
C770 C751 1.368 . S
C770 C764 1.368 1_556 S
C770 C769 1.523 . S
C771 C755 1.429 . S
C771 C767 1.429 . S
C771 C772 1.523 . S
C772 C756 1.368 . S
C772 C768 1.368 1_554 S
C772 C771 1.523 . S
H773 C748 0.946 1_554 S
H774 C750 0.950 1_554 S
H775 C751 0.949 . S
H776 C753 0.946 1_556 S
H777 C755 0.950 1_556 S
C778 C779 1.349 . S
C778 C780 1.327 . S
C778 H803 0.950 . S
C779 C778 1.349 . S
C779 C795 1.349 . S
C780 C778 1.327 . S
C780 C799 1.429 . S
C780 H804 0.950 . S
C781 C798 1.574 . S
C781 C800 1.368 . S
C781 H805 0.949 . S
H782 C786 0.949 . S
C783 C784 1.349 . S
C783 C785 1.327 . S
C783 H806 0.950 . S
C784 C783 1.349 . S
C784 C796 1.349 . S
C785 C783 1.327 . S
C785 C801 1.429 . S
C785 H807 0.950 . S
C786 H782 0.949 . S
C786 C794 1.574 . S
C786 C802 1.368 . S
H787 C795 0.950 . S
H788 C793 0.950 . S
H789 C794 0.949 . S
H790 C796 0.950 . S
H791 C797 0.950 . S
H792 C798 0.949 . S
C793 H788 0.950 . S
C793 C795 1.327 . S
C793 C799 1.429 . S
C794 C786 1.574 . S
C794 H789 0.949 . S
C794 C800 1.368 . S
C795 C779 1.349 . S
C795 H787 0.950 . S
C795 C793 1.327 . S
C796 C784 1.349 . S
C796 H790 0.950 . S
C796 C797 1.327 . S
C797 H791 0.950 . S
C797 C796 1.327 . S
C797 C801 1.429 . S
C798 C781 1.574 . S
C798 H792 0.949 . S
C798 C802 1.368 . S
C799 C780 1.429 . S
C799 C793 1.429 . S
C799 C800 1.523 . S
C800 C781 1.368 . S
C800 C794 1.368 . S
C800 C799 1.523 . S
C801 C785 1.429 . S
C801 C797 1.429 . S
C801 C802 1.523 . S
C802 C786 1.368 . S
C802 C798 1.368 . S
C802 C801 1.523 . S
H803 C778 0.950 . S
H804 C780 0.950 . S
H805 C781 0.949 . S
H806 C783 0.950 . S
H807 C785 0.950 . S
C808 C809 1.349 . S
C808 C810 1.327 . S
C808 H833 0.950 . S
C809 C808 1.349 . S
C809 C825 1.349 . S
C810 C808 1.327 . S
C810 C829 1.429 . S
C810 H834 0.950 . S
C811 C828 1.574 . S
C811 C830 1.368 . S
C811 H835 0.949 . S
H812 C816 0.949 . S
C813 C814 1.349 . S
C813 C815 1.327 . S
C813 H836 0.950 . S
C814 C813 1.349 . S
C814 C826 1.349 . S
C815 C813 1.327 . S
C815 C831 1.429 . S
C815 H837 0.950 . S
C816 H812 0.949 . S
C816 C824 1.574 . S
C816 C832 1.368 . S
H817 C825 0.950 . S
H818 C823 0.950 . S
H819 C824 0.949 . S
H820 C826 0.950 . S
H821 C827 0.950 . S
H822 C828 0.949 . S
C823 H818 0.950 . S
C823 C825 1.327 . S
C823 C829 1.429 . S
C824 C816 1.574 . S
C824 H819 0.949 . S
C824 C830 1.368 . S
C825 C809 1.349 . S
C825 H817 0.950 . S
C825 C823 1.327 . S
C826 C814 1.349 . S
C826 H820 0.950 . S
C826 C827 1.327 . S
C827 H821 0.950 . S
C827 C826 1.327 . S
C827 C831 1.429 . S
C828 C811 1.574 . S
C828 H822 0.949 . S
C828 C832 1.368 . S
C829 C810 1.429 . S
C829 C823 1.429 . S
C829 C830 1.523 . S
C830 C811 1.368 . S
C830 C824 1.368 . S
C830 C829 1.523 . S
C831 C815 1.429 . S
C831 C827 1.429 . S
C831 C832 1.523 . S
C832 C816 1.368 . S
C832 C828 1.368 . S
C832 C831 1.523 . S
H833 C808 0.950 . S
H834 C810 0.950 . S
H835 C811 0.949 . S
H836 C813 0.950 . S
H837 C815 0.950 . S
C838 C839 1.349 . S
C838 C840 1.327 . S
C838 H863 0.950 . S
C839 C838 1.349 . S
C839 C855 1.349 . S
C840 C838 1.327 . S
C840 C859 1.429 . S
C840 H864 0.950 . S
C841 C858 1.574 . S
C841 C860 1.368 . S
C841 H865 0.949 . S
H842 C846 0.949 . S
C843 C844 1.349 . S
C843 C845 1.327 . S
C843 H866 0.950 . S
C844 C843 1.349 . S
C844 C856 1.349 . S
C845 C843 1.327 . S
C845 C861 1.429 . S
C845 H867 0.950 . S
C846 H842 0.949 . S
C846 C854 1.574 . S
C846 C862 1.368 . S
H847 C855 0.950 . S
H848 C853 0.950 . S
H849 C854 0.949 . S
H850 C856 0.950 . S
H851 C857 0.950 . S
H852 C858 0.949 . S
C853 H848 0.950 . S
C853 C855 1.327 . S
C853 C859 1.429 . S
C854 C846 1.574 . S
C854 H849 0.949 . S
C854 C860 1.368 . S
C855 C839 1.349 . S
C855 H847 0.950 . S
C855 C853 1.327 . S
C856 C844 1.349 . S
C856 H850 0.950 . S
C856 C857 1.327 . S
C857 H851 0.950 . S
C857 C856 1.327 . S
C857 C861 1.429 . S
C858 C841 1.574 . S
C858 H852 0.949 . S
C858 C862 1.368 . S
C859 C840 1.429 . S
C859 C853 1.429 . S
C859 C860 1.523 . S
C860 C841 1.368 . S
C860 C854 1.368 . S
C860 C859 1.523 . S
C861 C845 1.429 . S
C861 C857 1.429 . S
C861 C862 1.523 . S
C862 C846 1.368 . S
C862 C858 1.368 . S
C862 C861 1.523 . S
H863 C838 0.950 . S
H864 C840 0.950 . S
H865 C841 0.949 . S
H866 C843 0.950 . S
H867 C845 0.950 . S
C868 C869 1.349 . S
C868 C870 1.327 . S
C868 H893 0.946 1_554 S
C869 C868 1.349 . S
C869 C885 1.349 . S
C870 C868 1.327 . S
C870 C889 1.429 . S
C870 H894 0.950 1_554 S
C871 C888 1.574 . S
C871 C890 1.368 . S
C871 H895 0.949 . S
H872 C876 0.949 . S
C873 C874 1.349 . S
C873 C875 1.327 . S
C873 H896 0.946 1_556 S
C874 C873 1.349 . S
C874 C886 1.349 . S
C875 C873 1.327 . S
C875 C891 1.429 . S
C875 H897 0.950 1_556 S
C876 H872 0.949 . S
C876 C884 1.574 . S
C876 C892 1.368 . S
H877 C885 0.950 . S
H878 C883 0.950 . S
H879 C884 0.949 . S
H880 C886 0.950 . S
H881 C887 0.950 . S
H882 C888 0.949 . S
C883 H878 0.950 . S
C883 C885 1.327 . S
C883 C889 1.429 . S
C884 C876 1.574 . S
C884 H879 0.949 . S
C884 C890 1.368 1_556 S
C885 C869 1.349 . S
C885 H877 0.950 . S
C885 C883 1.327 . S
C886 C874 1.349 . S
C886 H880 0.950 . S
C886 C887 1.327 . S
C887 H881 0.950 . S
C887 C886 1.327 . S
C887 C891 1.429 . S
C888 C871 1.574 . S
C888 H882 0.949 . S
C888 C892 1.368 1_554 S
C889 C870 1.429 . S
C889 C883 1.429 . S
C889 C890 1.523 . S
C890 C871 1.368 . S
C890 C884 1.368 1_554 S
C890 C889 1.523 . S
C891 C875 1.429 . S
C891 C887 1.429 . S
C891 C892 1.523 . S
C892 C876 1.368 . S
C892 C888 1.368 1_556 S
C892 C891 1.523 . S
H893 C868 0.946 1_556 S
H894 C870 0.950 1_556 S
H895 C871 0.949 . S
H896 C873 0.946 1_554 S
H897 C875 0.950 1_554 S
C898 C899 1.349 . S
C898 C900 1.327 . S
C898 H923 0.950 . S
C899 C898 1.349 . S
C899 C915 1.349 . S
C900 C898 1.327 . S
C900 C919 1.429 . S
C900 H924 0.950 . S
C901 C918 1.574 . S
C901 C920 1.368 . S
C901 H925 0.949 . S
H902 C906 0.949 . S
C903 C904 1.349 . S
C903 C905 1.327 . S
C903 H926 0.950 . S
C904 C903 1.349 . S
C904 C916 1.349 . S
C905 C903 1.327 . S
C905 C921 1.429 . S
C905 H927 0.950 . S
C906 H902 0.949 . S
C906 C914 1.574 . S
C906 C922 1.368 . S
H907 C915 0.950 . S
H908 C913 0.950 . S
H909 C914 0.949 . S
H910 C916 0.950 . S
H911 C917 0.950 . S
H912 C918 0.949 . S
C913 H908 0.950 . S
C913 C915 1.327 . S
C913 C919 1.429 . S
C914 C906 1.574 . S
C914 H909 0.949 . S
C914 C920 1.368 . S
C915 C899 1.349 . S
C915 H907 0.950 . S
C915 C913 1.327 . S
C916 C904 1.349 . S
C916 H910 0.950 . S
C916 C917 1.327 . S
C917 H911 0.950 . S
C917 C916 1.327 . S
C917 C921 1.429 . S
C918 C901 1.574 . S
C918 H912 0.949 . S
C918 C922 1.368 . S
C919 C900 1.429 . S
C919 C913 1.429 . S
C919 C920 1.523 . S
C920 C901 1.368 . S
C920 C914 1.368 . S
C920 C919 1.523 . S
C921 C905 1.429 . S
C921 C917 1.429 . S
C921 C922 1.523 . S
C922 C906 1.368 . S
C922 C918 1.368 . S
C922 C921 1.523 . S
H923 C898 0.950 . S
H924 C900 0.950 . S
H925 C901 0.949 . S
H926 C903 0.950 . S
H927 C905 0.950 . S
C928 C929 1.349 . S
C928 C930 1.327 . S
C928 H953 0.950 . S
C929 C928 1.349 . S
C929 C945 1.349 . S
C930 C928 1.327 . S
C930 C949 1.429 . S
C930 H954 0.950 . S
C931 C948 1.574 . S
C931 C950 1.368 . S
C931 H955 0.949 . S
H932 C936 0.949 . S
C933 C934 1.349 . S
C933 C935 1.327 . S
C933 H956 0.950 . S
C934 C933 1.349 . S
C934 C946 1.349 . S
C935 C933 1.327 . S
C935 C951 1.429 . S
C935 H957 0.950 . S
C936 H932 0.949 . S
C936 C944 1.574 . S
C936 C952 1.368 . S
H937 C945 0.950 . S
H938 C943 0.950 . S
H939 C944 0.949 . S
H940 C946 0.950 . S
H941 C947 0.950 . S
H942 C948 0.949 . S
C943 H938 0.950 . S
C943 C945 1.327 . S
C943 C949 1.429 . S
C944 C936 1.574 . S
C944 H939 0.949 . S
C944 C950 1.368 . S
C945 C929 1.349 . S
C945 H937 0.950 . S
C945 C943 1.327 . S
C946 C934 1.349 . S
C946 H940 0.950 . S
C946 C947 1.327 . S
C947 H941 0.950 . S
C947 C946 1.327 . S
C947 C951 1.429 . S
C948 C931 1.574 . S
C948 H942 0.949 . S
C948 C952 1.368 . S
C949 C930 1.429 . S
C949 C943 1.429 . S
C949 C950 1.523 . S
C950 C931 1.368 . S
C950 C944 1.368 . S
C950 C949 1.523 . S
C951 C935 1.429 . S
C951 C947 1.429 . S
C951 C952 1.523 . S
C952 C936 1.368 . S
C952 C948 1.368 . S
C952 C951 1.523 . S
H953 C928 0.950 . S
H954 C930 0.950 . S
H955 C931 0.949 . S
H956 C933 0.950 . S
H957 C935 0.950 . S
C958 C959 1.349 . S
C958 C960 1.327 . S
C958 H983 0.950 . S
C959 C958 1.349 . S
C959 C975 1.349 . S
C960 C958 1.327 . S
C960 C979 1.429 . S
C960 H984 0.950 . S
C961 C978 1.574 . S
C961 C980 1.368 1_655 S
C961 H985 0.949 1_554 S
H962 C966 0.957 . S
C963 C964 1.349 . S
C963 C965 1.327 . S
C963 H986 0.950 . S
C964 C963 1.349 . S
C964 C976 1.349 . S
C965 C963 1.327 . S
C965 C981 1.429 . S
C965 H987 0.950 . S
C966 H962 0.957 . S
C966 C974 1.625 . S
C966 C982 1.315 1_455 S
H967 C975 0.950 . S
H968 C973 0.950 . S
H969 C974 0.949 . S
H970 C976 0.950 . S
H971 C977 0.950 . S
H972 C978 0.949 . S
C973 H968 0.950 . S
C973 C975 1.327 . S
C973 C979 1.429 . S
C974 C966 1.625 . S
C974 H969 0.949 . S
C974 C980 1.368 . S
C975 C959 1.349 . S
C975 H967 0.950 . S
C975 C973 1.327 . S
C976 C964 1.349 . S
C976 H970 0.950 . S
C976 C977 1.327 . S
C977 H971 0.950 . S
C977 C976 1.327 . S
C977 C981 1.429 . S
C978 C961 1.574 . S
C978 H972 0.949 . S
C978 C982 1.368 . S
C979 C960 1.429 . S
C979 C973 1.429 . S
C979 C980 1.523 1_556 S
C980 C961 1.368 1_455 S
C980 C974 1.368 . S
C980 C979 1.523 1_554 S
C981 C965 1.429 . S
C981 C977 1.429 . S
C981 C982 1.523 . S
C982 C966 1.315 1_655 S
C982 C978 1.368 . S
C982 C981 1.523 . S
H983 C958 0.950 . S
H984 C960 0.950 . S
H985 C961 0.949 1_556 S
H986 C963 0.950 . S
H987 C965 0.950 . S
C988 C989 1.349 . S
C988 C990 1.327 . S
C988 H1013 0.950 . S
C989 C988 1.349 . S
C989 C1005 1.349 . S
C990 C988 1.327 . S
C990 C1009 1.429 . S
C990 H1014 0.950 . S
C991 C1008 1.574 . S
C991 C1010 1.368 . S
C991 H1015 0.949 . S
H992 C996 0.949 . S
C993 C994 1.349 . S
C993 C995 1.327 . S
C993 H1016 0.950 . S
C994 C993 1.349 . S
C994 C1006 1.349 . S
C995 C993 1.327 . S
C995 C1011 1.429 . S
C995 H1017 0.950 . S
C996 H992 0.949 . S
C996 C1004 1.574 . S
C996 C1012 1.368 . S
H997 C1005 0.950 . S
H998 C1003 0.950 . S
H999 C1004 0.949 . S
H1000 C1006 0.950 . S
H1001 C1007 0.950 . S
H1002 C1008 0.949 . S
C1003 H998 0.950 . S
C1003 C1005 1.327 . S
C1003 C1009 1.429 . S
C1004 C996 1.574 . S
C1004 H999 0.949 . S
C1004 C1010 1.368 . S
C1005 C989 1.349 . S
C1005 H997 0.950 . S
C1005 C1003 1.327 . S
C1006 C994 1.349 . S
C1006 H1000 0.950 . S
C1006 C1007 1.327 . S
C1007 H1001 0.950 . S
C1007 C1006 1.327 . S
C1007 C1011 1.429 . S
C1008 C991 1.574 . S
C1008 H1002 0.949 . S
C1008 C1012 1.368 . S
C1009 C990 1.429 . S
C1009 C1003 1.429 . S
C1009 C1010 1.523 . S
C1010 C991 1.368 . S
C1010 C1004 1.368 . S
C1010 C1009 1.523 . S
C1011 C995 1.429 . S
C1011 C1007 1.429 . S
C1011 C1012 1.523 . S
C1012 C996 1.368 . S
C1012 C1008 1.368 . S
C1012 C1011 1.523 . S
H1013 C988 0.950 . S
H1014 C990 0.950 . S
H1015 C991 0.949 . S
H1016 C993 0.950 . S
H1017 C995 0.950 . S
C1018 C1019 1.349 . S
C1018 C1020 1.327 . S
C1018 H1043 0.950 . S
C1019 C1018 1.349 . S
C1019 C1035 1.349 . S
C1020 C1018 1.327 . S
C1020 C1039 1.429 . S
C1020 H1044 0.950 . S
C1021 C1038 1.574 . S
C1021 C1040 1.368 . S
C1021 H1045 0.949 . S
H1022 C1026 0.949 . S
C1023 C1024 1.349 . S
C1023 C1025 1.327 . S
C1023 H1046 0.950 . S
C1024 C1023 1.349 . S
C1024 C1036 1.349 . S
C1025 C1023 1.327 . S
C1025 C1041 1.429 . S
C1025 H1047 0.950 . S
C1026 H1022 0.949 . S
C1026 C1034 1.574 . S
C1026 C1042 1.368 . S
H1027 C1035 0.950 . S
H1028 C1033 0.950 . S
H1029 C1034 0.949 . S
H1030 C1036 0.950 . S
H1031 C1037 0.950 . S
H1032 C1038 0.949 . S
C1033 H1028 0.950 . S
C1033 C1035 1.327 . S
C1033 C1039 1.429 . S
C1034 C1026 1.574 . S
C1034 H1029 0.949 . S
C1034 C1040 1.368 . S
C1035 C1019 1.349 . S
C1035 H1027 0.950 . S
C1035 C1033 1.327 . S
C1036 C1024 1.349 . S
C1036 H1030 0.950 . S
C1036 C1037 1.327 . S
C1037 H1031 0.950 . S
C1037 C1036 1.327 . S
C1037 C1041 1.429 . S
C1038 C1021 1.574 . S
C1038 H1032 0.949 . S
C1038 C1042 1.368 . S
C1039 C1020 1.429 . S
C1039 C1033 1.429 . S
C1039 C1040 1.523 . S
C1040 C1021 1.368 . S
C1040 C1034 1.368 . S
C1040 C1039 1.523 . S
C1041 C1025 1.429 . S
C1041 C1037 1.429 . S
C1041 C1042 1.523 . S
C1042 C1026 1.368 . S
C1042 C1038 1.368 . S
C1042 C1041 1.523 . S
H1043 C1018 0.950 . S
H1044 C1020 0.950 . S
H1045 C1021 0.949 . S
H1046 C1023 0.950 . S
H1047 C1025 0.950 . S
C1048 C1049 1.349 . S
C1048 C1050 1.327 . S
C1048 H1073 0.950 . S
C1049 C1048 1.349 . S
C1049 C1065 1.349 . S
C1050 C1048 1.327 . S
C1050 C1069 1.429 . S
C1050 H1074 0.950 . S
C1051 C1068 1.574 . S
C1051 C1070 1.368 . S
C1051 H1075 0.949 . S
H1052 C1056 0.949 . S
C1053 C1054 1.349 . S
C1053 C1055 1.327 . S
C1053 H1076 0.950 . S
C1054 C1053 1.349 . S
C1054 C1066 1.349 . S
C1055 C1053 1.327 . S
C1055 C1071 1.429 . S
C1055 H1077 0.950 . S
C1056 H1052 0.949 . S
C1056 C1064 1.574 . S
C1056 C1072 1.368 . S
H1057 C1065 0.950 . S
H1058 C1063 0.950 . S
H1059 C1064 0.949 . S
H1060 C1066 0.950 . S
H1061 C1067 0.950 . S
H1062 C1068 0.949 . S
C1063 H1058 0.950 . S
C1063 C1065 1.327 . S
C1063 C1069 1.429 . S
C1064 C1056 1.574 . S
C1064 H1059 0.949 . S
C1064 C1070 1.368 . S
C1065 C1049 1.349 . S
C1065 H1057 0.950 . S
C1065 C1063 1.327 . S
C1066 C1054 1.349 . S
C1066 H1060 0.950 . S
C1066 C1067 1.327 . S
C1067 H1061 0.950 . S
C1067 C1066 1.327 . S
C1067 C1071 1.429 . S
C1068 C1051 1.574 . S
C1068 H1062 0.949 . S
C1068 C1072 1.368 . S
C1069 C1050 1.429 . S
C1069 C1063 1.429 . S
C1069 C1070 1.523 . S
C1070 C1051 1.368 . S
C1070 C1064 1.368 . S
C1070 C1069 1.523 . S
C1071 C1055 1.429 . S
C1071 C1067 1.429 . S
C1071 C1072 1.523 . S
C1072 C1056 1.368 . S
C1072 C1068 1.368 . S
C1072 C1071 1.523 . S
H1073 C1048 0.950 . S
H1074 C1050 0.950 . S
H1075 C1051 0.949 . S
H1076 C1053 0.950 . S
H1077 C1055 0.950 . S
C1078 C1079 1.349 . S
C1078 C1080 1.327 . S
C1078 H1103 0.950 . S
C1079 C1078 1.349 . S
C1079 C1095 1.349 . S
C1080 C1078 1.327 . S
C1080 C1099 1.429 . S
C1080 H1104 0.950 . S
C1081 C1098 1.574 . S
C1081 C1100 1.368 . S
C1081 H1105 0.949 1_556 S
H1082 C1086 0.949 . S
C1083 C1084 1.349 . S
C1083 C1085 1.327 . S
C1083 H1106 0.950 . S
C1084 C1083 1.349 . S
C1084 C1096 1.349 . S
C1085 C1083 1.327 . S
C1085 C1101 1.429 . S
C1085 H1107 0.950 . S
C1086 H1082 0.949 . S
C1086 C1094 1.574 . S
C1086 C1102 1.368 . S
H1087 C1095 0.950 . S
H1088 C1093 0.950 . S
H1089 C1094 0.949 . S
H1090 C1096 0.950 . S
H1091 C1097 0.950 . S
H1092 C1098 0.949 . S
C1093 H1088 0.950 . S
C1093 C1095 1.327 . S
C1093 C1099 1.429 . S
C1094 C1086 1.574 . S
C1094 H1089 0.949 . S
C1094 C1100 1.368 . S
C1095 C1079 1.349 . S
C1095 H1087 0.950 . S
C1095 C1093 1.327 . S
C1096 C1084 1.349 . S
C1096 H1090 0.950 . S
C1096 C1097 1.327 . S
C1097 H1091 0.950 . S
C1097 C1096 1.327 . S
C1097 C1101 1.429 . S
C1098 C1081 1.574 . S
C1098 H1092 0.949 . S
C1098 C1102 1.368 . S
C1099 C1080 1.429 . S
C1099 C1093 1.429 . S
C1099 C1100 1.523 1_554 S
C1100 C1081 1.368 . S
C1100 C1094 1.368 . S
C1100 C1099 1.523 1_556 S
C1101 C1085 1.429 . S
C1101 C1097 1.429 . S
C1101 C1102 1.523 . S
C1102 C1086 1.368 . S
C1102 C1098 1.368 . S
C1102 C1101 1.523 . S
H1103 C1078 0.950 . S
H1104 C1080 0.950 . S
H1105 C1081 0.949 1_554 S
H1106 C1083 0.950 . S
H1107 C1085 0.950 . S
C1108 C1109 1.349 . S
C1108 C1110 1.327 . S
C1108 H1133 0.950 . S
C1109 C1108 1.349 . S
C1109 C1125 1.349 . S
C1110 C1108 1.327 . S
C1110 C1129 1.429 . S
C1110 H1134 0.950 . S
C1111 C1128 1.574 . S
C1111 C1130 1.368 . S
C1111 H1135 0.949 . S
H1112 C1116 0.949 . S
C1113 C1114 1.349 . S
C1113 C1115 1.327 . S
C1113 H1136 0.950 . S
C1114 C1113 1.349 . S
C1114 C1126 1.349 . S
C1115 C1113 1.327 . S
C1115 C1131 1.429 . S
C1115 H1137 0.950 . S
C1116 H1112 0.949 . S
C1116 C1124 1.574 . S
C1116 C1132 1.368 . S
H1117 C1125 0.950 . S
H1118 C1123 0.950 . S
H1119 C1124 0.949 . S
H1120 C1126 0.950 . S
H1121 C1127 0.950 . S
H1122 C1128 0.949 . S
C1123 H1118 0.950 . S
C1123 C1125 1.327 . S
C1123 C1129 1.429 . S
C1124 C1116 1.574 . S
C1124 H1119 0.949 . S
C1124 C1130 1.368 . S
C1125 C1109 1.349 . S
C1125 H1117 0.950 . S
C1125 C1123 1.327 . S
C1126 C1114 1.349 . S
C1126 H1120 0.950 . S
C1126 C1127 1.327 . S
C1127 H1121 0.950 . S
C1127 C1126 1.327 . S
C1127 C1131 1.429 . S
C1128 C1111 1.574 . S
C1128 H1122 0.949 . S
C1128 C1132 1.368 . S
C1129 C1110 1.429 . S
C1129 C1123 1.429 . S
C1129 C1130 1.523 . S
C1130 C1111 1.368 . S
C1130 C1124 1.368 . S
C1130 C1129 1.523 . S
C1131 C1115 1.429 . S
C1131 C1127 1.429 . S
C1131 C1132 1.523 . S
C1132 C1116 1.368 . S
C1132 C1128 1.368 . S
C1132 C1131 1.523 . S
H1133 C1108 0.950 . S
H1134 C1110 0.950 . S
H1135 C1111 0.949 . S
H1136 C1113 0.950 . S
H1137 C1115 0.950 . S
C1138 C1139 1.349 . S
C1138 C1140 1.327 . S
C1138 H1163 0.950 . S
C1139 C1138 1.349 . S
C1139 C1155 1.349 . S
C1140 C1138 1.327 . S
C1140 C1159 1.429 . S
C1140 H1164 0.950 . S
C1141 C1158 1.574 . S
C1141 C1160 1.368 1_655 S
C1141 H1165 0.949 . S
H1142 C1146 0.949 . S
C1143 C1144 1.349 . S
C1143 C1145 1.327 . S
C1143 H1166 0.950 . S
C1144 C1143 1.349 . S
C1144 C1156 1.349 . S
C1145 C1143 1.327 . S
C1145 C1161 1.429 . S
C1145 H1167 0.950 . S
C1146 H1142 0.949 . S
C1146 C1154 1.574 . S
C1146 C1162 1.368 1_455 S
H1147 C1155 0.950 . S
H1148 C1153 0.950 . S
H1149 C1154 0.949 . S
H1150 C1156 0.950 . S
H1151 C1157 0.950 . S
H1152 C1158 0.949 . S
C1153 H1148 0.950 . S
C1153 C1155 1.327 . S
C1153 C1159 1.429 . S
C1154 C1146 1.574 . S
C1154 H1149 0.949 . S
C1154 C1160 1.368 . S
C1155 C1139 1.349 . S
C1155 H1147 0.950 . S
C1155 C1153 1.327 . S
C1156 C1144 1.349 . S
C1156 H1150 0.950 . S
C1156 C1157 1.327 . S
C1157 H1151 0.950 . S
C1157 C1156 1.327 . S
C1157 C1161 1.429 . S
C1158 C1141 1.574 . S
C1158 H1152 0.949 . S
C1158 C1162 1.368 . S
C1159 C1140 1.429 . S
C1159 C1153 1.429 . S
C1159 C1160 1.523 . S
C1160 C1141 1.368 1_455 S
C1160 C1154 1.368 . S
C1160 C1159 1.523 . S
C1161 C1145 1.429 . S
C1161 C1157 1.429 . S
C1161 C1162 1.523 . S
C1162 C1146 1.368 1_655 S
C1162 C1158 1.368 . S
C1162 C1161 1.523 . S
H1163 C1138 0.950 . S
H1164 C1140 0.950 . S
H1165 C1141 0.949 . S
H1166 C1143 0.950 . S
H1167 C1145 0.950 . S
C1168 C1169 1.349 . S
C1168 C1170 1.327 . S
C1168 H1193 0.950 . S
C1169 C1168 1.349 . S
C1169 C1185 1.349 . S
C1170 C1168 1.327 . S
C1170 C1189 1.429 . S
C1170 H1194 0.950 . S
C1171 C1188 1.574 . S
C1171 C1190 1.368 . S
C1171 H1195 0.949 . S
H1172 C1176 0.949 . S
C1173 C1174 1.349 . S
C1173 C1175 1.327 . S
C1173 H1196 0.950 . S
C1174 C1173 1.349 . S
C1174 C1186 1.349 . S
C1175 C1173 1.327 . S
C1175 C1191 1.429 . S
C1175 H1197 0.950 . S
C1176 H1172 0.949 . S
C1176 C1184 1.574 . S
C1176 C1192 1.368 . S
H1177 C1185 0.950 . S
H1178 C1183 0.950 . S
H1179 C1184 0.949 . S
H1180 C1186 0.950 . S
H1181 C1187 0.950 . S
H1182 C1188 0.949 . S
C1183 H1178 0.950 . S
C1183 C1185 1.327 . S
C1183 C1189 1.429 . S
C1184 C1176 1.574 . S
C1184 H1179 0.949 . S
C1184 C1190 1.368 . S
C1185 C1169 1.349 . S
C1185 H1177 0.950 . S
C1185 C1183 1.327 . S
C1186 C1174 1.349 . S
C1186 H1180 0.950 . S
C1186 C1187 1.327 . S
C1187 H1181 0.950 . S
C1187 C1186 1.327 . S
C1187 C1191 1.429 . S
C1188 C1171 1.574 . S
C1188 H1182 0.949 . S
C1188 C1192 1.368 . S
C1189 C1170 1.429 . S
C1189 C1183 1.429 . S
C1189 C1190 1.523 . S
C1190 C1171 1.368 . S
C1190 C1184 1.368 . S
C1190 C1189 1.523 . S
C1191 C1175 1.429 . S
C1191 C1187 1.429 . S
C1191 C1192 1.523 . S
C1192 C1176 1.368 . S
C1192 C1188 1.368 . S
C1192 C1191 1.523 . S
H1193 C1168 0.950 . S
H1194 C1170 0.950 . S
H1195 C1171 0.949 . S
H1196 C1173 0.950 . S
H1197 C1175 0.950 . S
C1198 C1199 1.349 . S
C1198 C1200 1.327 . S
C1198 H1223 0.950 . S
C1199 C1198 1.349 . S
C1199 C1215 1.349 . S
C1200 C1198 1.327 . S
C1200 C1219 1.429 . S
C1200 H1224 0.950 . S
C1201 C1218 1.574 . S
C1201 C1220 1.368 1_455 S
C1201 H1225 0.949 1_556 S
H1202 C1206 0.957 . S
C1203 C1204 1.349 . S
C1203 C1205 1.327 . S
C1203 H1226 0.950 . S
C1204 C1203 1.349 . S
C1204 C1216 1.349 . S
C1205 C1203 1.327 . S
C1205 C1221 1.429 . S
C1205 H1227 0.950 . S
C1206 H1202 0.957 . S
C1206 C1214 1.624 . S
C1206 C1222 1.316 1_655 S
H1207 C1215 0.950 . S
H1208 C1213 0.950 . S
H1209 C1214 0.949 . S
H1210 C1216 0.950 . S
H1211 C1217 0.950 . S
H1212 C1218 0.949 . S
C1213 H1208 0.950 . S
C1213 C1215 1.327 . S
C1213 C1219 1.429 . S
C1214 C1206 1.624 . S
C1214 H1209 0.949 . S
C1214 C1220 1.368 . S
C1215 C1199 1.349 . S
C1215 H1207 0.950 . S
C1215 C1213 1.327 . S
C1216 C1204 1.349 . S
C1216 H1210 0.950 . S
C1216 C1217 1.327 . S
C1217 H1211 0.950 . S
C1217 C1216 1.327 . S
C1217 C1221 1.429 . S
C1218 C1201 1.574 . S
C1218 H1212 0.949 . S
C1218 C1222 1.368 . S
C1219 C1200 1.429 . S
C1219 C1213 1.429 . S
C1219 C1220 1.523 1_554 S
C1220 C1201 1.368 1_655 S
C1220 C1214 1.368 . S
C1220 C1219 1.523 1_556 S
C1221 C1205 1.429 . S
C1221 C1217 1.429 . S
C1221 C1222 1.523 . S
C1222 C1206 1.316 1_455 S
C1222 C1218 1.368 . S
C1222 C1221 1.523 . S
H1223 C1198 0.950 . S
H1224 C1200 0.950 . S
H1225 C1201 0.949 1_554 S
H1226 C1203 0.950 . S
H1227 C1205 0.950 . S
C1228 C1229 1.349 . S
C1228 C1230 1.327 . S
C1228 H1253 0.950 . S
C1229 C1228 1.349 . S
C1229 C1245 1.349 . S
C1230 C1228 1.327 . S
C1230 C1249 1.429 . S
C1230 H1254 0.950 . S
C1231 C1248 1.574 . S
C1231 C1250 1.368 . S
C1231 H1255 0.949 . S
H1232 C1236 0.949 . S
C1233 C1234 1.349 . S
C1233 C1235 1.327 . S
C1233 H1256 0.950 . S
C1234 C1233 1.349 . S
C1234 C1246 1.349 . S
C1235 C1233 1.327 . S
C1235 C1251 1.429 . S
C1235 H1257 0.950 . S
C1236 H1232 0.949 . S
C1236 C1244 1.574 . S
C1236 C1252 1.368 . S
H1237 C1245 0.950 . S
H1238 C1243 0.950 . S
H1239 C1244 0.949 . S
H1240 C1246 0.950 . S
H1241 C1247 0.950 . S
H1242 C1248 0.949 . S
C1243 H1238 0.950 . S
C1243 C1245 1.327 . S
C1243 C1249 1.429 . S
C1244 C1236 1.574 . S
C1244 H1239 0.949 . S
C1244 C1250 1.368 . S
C1245 C1229 1.349 . S
C1245 H1237 0.950 . S
C1245 C1243 1.327 . S
C1246 C1234 1.349 . S
C1246 H1240 0.950 . S
C1246 C1247 1.327 . S
C1247 H1241 0.950 . S
C1247 C1246 1.327 . S
C1247 C1251 1.429 . S
C1248 C1231 1.574 . S
C1248 H1242 0.949 . S
C1248 C1252 1.368 . S
C1249 C1230 1.429 . S
C1249 C1243 1.429 . S
C1249 C1250 1.523 . S
C1250 C1231 1.368 . S
C1250 C1244 1.368 . S
C1250 C1249 1.523 . S
C1251 C1235 1.429 . S
C1251 C1247 1.429 . S
C1251 C1252 1.523 . S
C1252 C1236 1.368 . S
C1252 C1248 1.368 . S
C1252 C1251 1.523 . S
H1253 C1228 0.950 . S
H1254 C1230 0.950 . S
H1255 C1231 0.949 . S
H1256 C1233 0.950 . S
H1257 C1235 0.950 . S
C1258 C1259 1.349 . S
C1258 C1260 1.327 . S
C1258 H1283 0.950 . S
C1259 C1258 1.349 . S
C1259 C1275 1.349 . S
C1260 C1258 1.327 . S
C1260 C1279 1.429 . S
C1260 H1284 0.950 . S
C1261 C1278 1.574 . S
C1261 C1280 1.368 . S
C1261 H1285 0.949 . S
H1262 C1266 0.949 . S
C1263 C1264 1.349 . S
C1263 C1265 1.327 . S
C1263 H1286 0.950 . S
C1264 C1263 1.349 . S
C1264 C1276 1.349 . S
C1265 C1263 1.327 . S
C1265 C1281 1.429 . S
C1265 H1287 0.950 . S
C1266 H1262 0.949 . S
C1266 C1274 1.574 . S
C1266 C1282 1.368 . S
H1267 C1275 0.950 . S
H1268 C1273 0.950 . S
H1269 C1274 0.949 . S
H1270 C1276 0.950 . S
H1271 C1277 0.950 . S
H1272 C1278 0.949 . S
C1273 H1268 0.950 . S
C1273 C1275 1.327 . S
C1273 C1279 1.429 . S
C1274 C1266 1.574 . S
C1274 H1269 0.949 . S
C1274 C1280 1.368 . S
C1275 C1259 1.349 . S
C1275 H1267 0.950 . S
C1275 C1273 1.327 . S
C1276 C1264 1.349 . S
C1276 H1270 0.950 . S
C1276 C1277 1.327 . S
C1277 H1271 0.950 . S
C1277 C1276 1.327 . S
C1277 C1281 1.429 . S
C1278 C1261 1.574 . S
C1278 H1272 0.949 . S
C1278 C1282 1.368 . S
C1279 C1260 1.429 . S
C1279 C1273 1.429 . S
C1279 C1280 1.523 . S
C1280 C1261 1.368 . S
C1280 C1274 1.368 . S
C1280 C1279 1.523 . S
C1281 C1265 1.429 . S
C1281 C1277 1.429 . S
C1281 C1282 1.523 . S
C1282 C1266 1.368 . S
C1282 C1278 1.368 . S
C1282 C1281 1.523 . S
H1283 C1258 0.950 . S
H1284 C1260 0.950 . S
H1285 C1261 0.949 . S
H1286 C1263 0.950 . S
H1287 C1265 0.950 . S
C1288 C1289 1.349 . S
C1288 C1290 1.327 . S
C1288 H1313 0.950 . S
C1289 C1288 1.349 . S
C1289 C1305 1.349 . S
C1290 C1288 1.327 . S
C1290 C1309 1.429 . S
C1290 H1314 0.950 . S
C1291 C1308 1.574 . S
C1291 C1310 1.368 . S
C1291 H1315 0.949 . S
H1292 C1296 0.949 . S
C1293 C1294 1.349 . S
C1293 C1295 1.327 . S
C1293 H1316 0.950 . S
C1294 C1293 1.349 . S
C1294 C1306 1.349 . S
C1295 C1293 1.327 . S
C1295 C1311 1.429 . S
C1295 H1317 0.950 . S
C1296 H1292 0.949 . S
C1296 C1304 1.574 . S
C1296 C1312 1.368 . S
H1297 C1305 0.950 . S
H1298 C1303 0.950 . S
H1299 C1304 0.949 . S
H1300 C1306 0.950 . S
H1301 C1307 0.950 . S
H1302 C1308 0.949 . S
C1303 H1298 0.950 . S
C1303 C1305 1.327 . S
C1303 C1309 1.429 . S
C1304 C1296 1.574 . S
C1304 H1299 0.949 . S
C1304 C1310 1.368 . S
C1305 C1289 1.349 . S
C1305 H1297 0.950 . S
C1305 C1303 1.327 . S
C1306 C1294 1.349 . S
C1306 H1300 0.950 . S
C1306 C1307 1.327 . S
C1307 H1301 0.950 . S
C1307 C1306 1.327 . S
C1307 C1311 1.429 . S
C1308 C1291 1.574 . S
C1308 H1302 0.949 . S
C1308 C1312 1.368 . S
C1309 C1290 1.429 . S
C1309 C1303 1.429 . S
C1309 C1310 1.523 . S
C1310 C1291 1.368 . S
C1310 C1304 1.368 . S
C1310 C1309 1.523 . S
C1311 C1295 1.429 . S
C1311 C1307 1.429 . S
C1311 C1312 1.523 . S
C1312 C1296 1.368 . S
C1312 C1308 1.368 . S
C1312 C1311 1.523 . S
H1313 C1288 0.950 . S
H1314 C1290 0.950 . S
H1315 C1291 0.949 . S
H1316 C1293 0.950 . S
H1317 C1295 0.950 . S
C1318 C1319 1.349 . S
C1318 C1320 1.327 . S
C1318 H1343 0.950 . S
C1319 C1318 1.349 . S
C1319 C1335 1.349 . S
C1320 C1318 1.327 . S
C1320 C1339 1.429 . S
C1320 H1344 0.950 . S
C1321 C1338 1.574 . S
C1321 C1340 1.368 . S
C1321 H1345 0.949 . S
H1322 C1326 0.949 1_556 S
C1323 C1324 1.349 . S
C1323 C1325 1.327 . S
C1323 H1346 0.950 . S
C1324 C1323 1.349 . S
C1324 C1336 1.349 . S
C1325 C1323 1.327 . S
C1325 C1341 1.429 . S
C1325 H1347 0.950 . S
C1326 H1322 0.949 1_554 S
C1326 C1334 1.574 . S
C1326 C1342 1.368 . S
H1327 C1335 0.950 . S
H1328 C1333 0.950 . S
H1329 C1334 0.949 . S
H1330 C1336 0.950 . S
H1331 C1337 0.950 . S
H1332 C1338 0.949 . S
C1333 H1328 0.950 . S
C1333 C1335 1.327 . S
C1333 C1339 1.429 . S
C1334 C1326 1.574 . S
C1334 H1329 0.949 . S
C1334 C1340 1.368 . S
C1335 C1319 1.349 . S
C1335 H1327 0.950 . S
C1335 C1333 1.327 . S
C1336 C1324 1.349 . S
C1336 H1330 0.950 . S
C1336 C1337 1.327 . S
C1337 H1331 0.950 . S
C1337 C1336 1.327 . S
C1337 C1341 1.429 . S
C1338 C1321 1.574 . S
C1338 H1332 0.949 . S
C1338 C1342 1.368 . S
C1339 C1320 1.429 . S
C1339 C1333 1.429 . S
C1339 C1340 1.523 . S
C1340 C1321 1.368 . S
C1340 C1334 1.368 . S
C1340 C1339 1.523 . S
C1341 C1325 1.429 . S
C1341 C1337 1.429 . S
C1341 C1342 1.523 1_556 S
C1342 C1326 1.368 . S
C1342 C1338 1.368 . S
C1342 C1341 1.523 1_554 S
H1343 C1318 0.950 . S
H1344 C1320 0.950 . S
H1345 C1321 0.949 . S
H1346 C1323 0.950 . S
H1347 C1325 0.950 . S
C1348 C1349 1.349 . S
C1348 C1350 1.327 . S
C1348 H1373 0.950 . S
C1349 C1348 1.349 . S
C1349 C1365 1.349 . S
C1350 C1348 1.327 . S
C1350 C1369 1.429 . S
C1350 H1374 0.950 . S
C1351 C1368 1.574 . S
C1351 C1370 1.368 . S
C1351 H1375 0.949 . S
H1352 C1356 0.949 . S
C1353 C1354 1.349 . S
C1353 C1355 1.327 . S
C1353 H1376 0.950 . S
C1354 C1353 1.349 . S
C1354 C1366 1.349 . S
C1355 C1353 1.327 . S
C1355 C1371 1.429 . S
C1355 H1377 0.950 . S
C1356 H1352 0.949 . S
C1356 C1364 1.574 . S
C1356 C1372 1.368 . S
H1357 C1365 0.950 . S
H1358 C1363 0.950 . S
H1359 C1364 0.949 . S
H1360 C1366 0.950 . S
H1361 C1367 0.950 . S
H1362 C1368 0.949 . S
C1363 H1358 0.950 . S
C1363 C1365 1.327 . S
C1363 C1369 1.429 . S
C1364 C1356 1.574 . S
C1364 H1359 0.949 . S
C1364 C1370 1.368 . S
C1365 C1349 1.349 . S
C1365 H1357 0.950 . S
C1365 C1363 1.327 . S
C1366 C1354 1.349 . S
C1366 H1360 0.950 . S
C1366 C1367 1.327 . S
C1367 H1361 0.950 . S
C1367 C1366 1.327 . S
C1367 C1371 1.429 . S
C1368 C1351 1.574 . S
C1368 H1362 0.949 . S
C1368 C1372 1.368 . S
C1369 C1350 1.429 . S
C1369 C1363 1.429 . S
C1369 C1370 1.523 . S
C1370 C1351 1.368 . S
C1370 C1364 1.368 . S
C1370 C1369 1.523 . S
C1371 C1355 1.429 . S
C1371 C1367 1.429 . S
C1371 C1372 1.523 . S
C1372 C1356 1.368 . S
C1372 C1368 1.368 . S
C1372 C1371 1.523 . S
H1373 C1348 0.950 . S
H1374 C1350 0.950 . S
H1375 C1351 0.949 . S
H1376 C1353 0.950 . S
H1377 C1355 0.950 . S
C1378 C1379 1.349 . S
C1378 C1380 1.327 . S
C1378 H1403 0.950 . S
C1379 C1378 1.349 . S
C1379 C1395 1.349 . S
C1380 C1378 1.327 . S
C1380 C1399 1.429 . S
C1380 H1404 0.950 . S
C1381 C1398 1.576 1_655 S
C1381 C1400 1.368 . S
C1381 H1405 0.949 . S
H1382 C1386 0.949 . S
C1383 C1384 1.349 . S
C1383 C1385 1.327 . S
C1383 H1406 0.950 . S
C1384 C1383 1.349 . S
C1384 C1396 1.349 . S
C1385 C1383 1.327 . S
C1385 C1401 1.429 . S
C1385 H1407 0.950 . S
C1386 H1382 0.949 . S
C1386 C1394 1.576 . S
C1386 C1402 1.368 . S
H1387 C1395 0.950 . S
H1388 C1393 0.950 . S
H1389 C1394 0.949 1_655 S
H1390 C1396 0.950 . S
H1391 C1397 0.950 . S
H1392 C1398 0.949 . S
C1393 H1388 0.950 . S
C1393 C1395 1.327 . S
C1393 C1399 1.429 . S
C1394 C1386 1.576 . S
C1394 H1389 0.949 1_455 S
C1394 C1400 1.366 1_455 S
C1395 C1379 1.349 . S
C1395 H1387 0.950 . S
C1395 C1393 1.327 . S
C1396 C1384 1.349 . S
C1396 H1390 0.950 . S
C1396 C1397 1.327 . S
C1397 H1391 0.950 . S
C1397 C1396 1.327 . S
C1397 C1401 1.429 . S
C1398 C1381 1.576 1_455 S
C1398 H1392 0.949 . S
C1398 C1402 1.366 . S
C1399 C1380 1.429 . S
C1399 C1393 1.429 . S
C1399 C1400 1.523 . S
C1400 C1381 1.368 . S
C1400 C1394 1.366 1_655 S
C1400 C1399 1.523 . S
C1401 C1385 1.429 . S
C1401 C1397 1.429 . S
C1401 C1402 1.523 . S
C1402 C1386 1.368 . S
C1402 C1398 1.366 . S
C1402 C1401 1.523 . S
H1403 C1378 0.950 . S
H1404 C1380 0.950 . S
H1405 C1381 0.949 . S
H1406 C1383 0.950 . S
H1407 C1385 0.950 . S
C1408 C1409 1.349 . S
C1408 C1410 1.327 . S
C1408 H1433 0.950 . S
C1409 C1408 1.349 . S
C1409 C1425 1.349 . S
C1410 C1408 1.327 . S
C1410 C1429 1.429 . S
C1410 H1434 0.950 . S
C1411 C1428 1.574 . S
C1411 C1430 1.368 . S
C1411 H1435 0.949 . S
H1412 C1416 0.949 . S
C1413 C1414 1.349 . S
C1413 C1415 1.327 . S
C1413 H1436 0.950 . S
C1414 C1413 1.349 . S
C1414 C1426 1.349 . S
C1415 C1413 1.327 . S
C1415 C1431 1.429 . S
C1415 H1437 0.950 . S
C1416 H1412 0.949 . S
C1416 C1424 1.574 . S
C1416 C1432 1.368 . S
H1417 C1425 0.950 . S
H1418 C1423 0.950 . S
H1419 C1424 0.949 . S
H1420 C1426 0.950 . S
H1421 C1427 0.950 . S
H1422 C1428 0.949 . S
C1423 H1418 0.950 . S
C1423 C1425 1.327 . S
C1423 C1429 1.429 . S
C1424 C1416 1.574 . S
C1424 H1419 0.949 . S
C1424 C1430 1.368 . S
C1425 C1409 1.349 . S
C1425 H1417 0.950 . S
C1425 C1423 1.327 . S
C1426 C1414 1.349 . S
C1426 H1420 0.950 . S
C1426 C1427 1.327 . S
C1427 H1421 0.950 . S
C1427 C1426 1.327 . S
C1427 C1431 1.429 . S
C1428 C1411 1.574 . S
C1428 H1422 0.949 . S
C1428 C1432 1.368 . S
C1429 C1410 1.429 . S
C1429 C1423 1.429 . S
C1429 C1430 1.523 . S
C1430 C1411 1.368 . S
C1430 C1424 1.368 . S
C1430 C1429 1.523 . S
C1431 C1415 1.429 . S
C1431 C1427 1.429 . S
C1431 C1432 1.523 . S
C1432 C1416 1.368 . S
C1432 C1428 1.368 . S
C1432 C1431 1.523 . S
H1433 C1408 0.950 . S
H1434 C1410 0.950 . S
H1435 C1411 0.949 . S
H1436 C1413 0.950 . S
H1437 C1415 0.950 . S
C1438 C1439 1.349 . S
C1438 C1440 1.327 . S
C1438 H1463 0.950 . S
C1439 C1438 1.349 . S
C1439 C1455 1.349 . S
C1440 C1438 1.327 . S
C1440 C1459 1.429 . S
C1440 H1464 0.950 . S
C1441 C1458 1.574 . S
C1441 C1460 1.368 . S
C1441 H1465 0.949 . S
H1442 C1446 0.949 . S
C1443 C1444 1.349 . S
C1443 C1445 1.327 . S
C1443 H1466 0.950 . S
C1444 C1443 1.349 . S
C1444 C1456 1.349 . S
C1445 C1443 1.327 . S
C1445 C1461 1.429 . S
C1445 H1467 0.950 . S
C1446 H1442 0.949 . S
C1446 C1454 1.574 . S
C1446 C1462 1.368 . S
H1447 C1455 0.950 . S
H1448 C1453 0.950 . S
H1449 C1454 0.949 . S
H1450 C1456 0.950 . S
H1451 C1457 0.950 . S
H1452 C1458 0.949 . S
C1453 H1448 0.950 . S
C1453 C1455 1.327 . S
C1453 C1459 1.429 . S
C1454 C1446 1.574 . S
C1454 H1449 0.949 . S
C1454 C1460 1.368 . S
C1455 C1439 1.349 . S
C1455 H1447 0.950 . S
C1455 C1453 1.327 . S
C1456 C1444 1.349 . S
C1456 H1450 0.950 . S
C1456 C1457 1.327 . S
C1457 H1451 0.950 . S
C1457 C1456 1.327 . S
C1457 C1461 1.429 . S
C1458 C1441 1.574 . S
C1458 H1452 0.949 . S
C1458 C1462 1.368 . S
C1459 C1440 1.429 . S
C1459 C1453 1.429 . S
C1459 C1460 1.523 . S
C1460 C1441 1.368 . S
C1460 C1454 1.368 . S
C1460 C1459 1.523 . S
C1461 C1445 1.429 . S
C1461 C1457 1.429 . S
C1461 C1462 1.523 . S
C1462 C1446 1.368 . S
C1462 C1458 1.368 . S
C1462 C1461 1.523 . S
H1463 C1438 0.950 . S
H1464 C1440 0.950 . S
H1465 C1441 0.949 . S
H1466 C1443 0.950 . S
H1467 C1445 0.950 . S
C1468 C1469 1.349 . S
C1468 C1470 1.327 . S
C1468 H1493 0.950 . S
C1469 C1468 1.349 . S
C1469 C1485 1.349 . S
C1470 C1468 1.327 . S
C1470 C1489 1.429 . S
C1470 H1494 0.950 . S
C1471 C1488 1.574 . S
C1471 C1490 1.368 . S
C1471 H1495 0.949 . S
H1472 C1476 0.949 . S
C1473 C1474 1.349 . S
C1473 C1475 1.327 . S
C1473 H1496 0.950 . S
C1474 C1473 1.349 . S
C1474 C1486 1.349 . S
C1475 C1473 1.327 . S
C1475 C1491 1.429 . S
C1475 H1497 0.950 . S
C1476 H1472 0.949 . S
C1476 C1484 1.574 . S
C1476 C1492 1.368 . S
H1477 C1485 0.950 . S
H1478 C1483 0.950 . S
H1479 C1484 0.949 . S
H1480 C1486 0.950 . S
H1481 C1487 0.950 . S
H1482 C1488 0.949 . S
C1483 H1478 0.950 . S
C1483 C1485 1.327 . S
C1483 C1489 1.429 . S
C1484 C1476 1.574 . S
C1484 H1479 0.949 . S
C1484 C1490 1.368 . S
C1485 C1469 1.349 . S
C1485 H1477 0.950 . S
C1485 C1483 1.327 . S
C1486 C1474 1.349 . S
C1486 H1480 0.950 . S
C1486 C1487 1.327 . S
C1487 H1481 0.950 . S
C1487 C1486 1.327 . S
C1487 C1491 1.429 . S
C1488 C1471 1.574 . S
C1488 H1482 0.949 . S
C1488 C1492 1.368 . S
C1489 C1470 1.429 . S
C1489 C1483 1.429 . S
C1489 C1490 1.523 . S
C1490 C1471 1.368 . S
C1490 C1484 1.368 . S
C1490 C1489 1.523 . S
C1491 C1475 1.429 . S
C1491 C1487 1.429 . S
C1491 C1492 1.523 . S
C1492 C1476 1.368 . S
C1492 C1488 1.368 . S
C1492 C1491 1.523 . S
H1493 C1468 0.950 . S
H1494 C1470 0.950 . S
H1495 C1471 0.949 . S
H1496 C1473 0.950 . S
H1497 C1475 0.950 . S
C1498 C1499 1.349 . S
C1498 C1500 1.327 . S
C1498 H1523 0.950 . S
C1499 C1498 1.349 . S
C1499 C1515 1.349 . S
C1500 C1498 1.327 . S
C1500 C1519 1.429 . S
C1500 H1524 0.950 . S
C1501 C1518 1.574 . S
C1501 C1520 1.368 . S
C1501 H1525 0.949 . S
H1502 C1506 0.949 . S
C1503 C1504 1.349 . S
C1503 C1505 1.327 . S
C1503 H1526 0.950 . S
C1504 C1503 1.349 . S
C1504 C1516 1.349 . S
C1505 C1503 1.327 . S
C1505 C1521 1.429 . S
C1505 H1527 0.950 . S
C1506 H1502 0.949 . S
C1506 C1514 1.626 . S
C1506 C1522 1.368 . S
H1507 C1515 0.950 . S
H1508 C1513 0.950 . S
H1509 C1514 0.958 . S
H1510 C1516 0.950 . S
H1511 C1517 0.950 . S
H1512 C1518 0.949 1_556 S
C1513 H1508 0.950 . S
C1513 C1515 1.327 . S
C1513 C1519 1.429 . S
C1514 C1506 1.626 . S
C1514 H1509 0.958 . S
C1514 C1520 1.314 1_655 S
C1515 C1499 1.349 . S
C1515 H1507 0.950 . S
C1515 C1513 1.327 . S
C1516 C1504 1.349 . S
C1516 H1510 0.950 . S
C1516 C1517 1.327 . S
C1517 H1511 0.950 . S
C1517 C1516 1.327 . S
C1517 C1521 1.429 . S
C1518 C1501 1.574 . S
C1518 H1512 0.949 1_554 S
C1518 C1522 1.368 1_455 S
C1519 C1500 1.429 . S
C1519 C1513 1.429 . S
C1519 C1520 1.523 . S
C1520 C1501 1.368 . S
C1520 C1514 1.314 1_455 S
C1520 C1519 1.523 . S
C1521 C1505 1.429 . S
C1521 C1517 1.429 . S
C1521 C1522 1.523 1_556 S
C1522 C1506 1.368 . S
C1522 C1518 1.368 1_655 S
C1522 C1521 1.523 1_554 S
H1523 C1498 0.950 . S
H1524 C1500 0.950 . S
H1525 C1501 0.949 . S
H1526 C1503 0.950 . S
H1527 C1505 0.950 . S
C1528 C1529 1.349 . S
C1528 C1530 1.327 . S
C1528 H1553 0.950 . S
C1529 C1528 1.349 . S
C1529 C1545 1.349 . S
C1530 C1528 1.327 . S
C1530 C1549 1.429 . S
C1530 H1554 0.950 . S
C1531 C1548 1.574 . S
C1531 C1550 1.368 . S
C1531 H1555 0.949 . S
H1532 C1536 0.949 . S
C1533 C1534 1.349 . S
C1533 C1535 1.327 . S
C1533 H1556 0.950 . S
C1534 C1533 1.349 . S
C1534 C1546 1.349 . S
C1535 C1533 1.327 . S
C1535 C1551 1.429 . S
C1535 H1557 0.950 . S
C1536 H1532 0.949 . S
C1536 C1544 1.574 . S
C1536 C1552 1.368 . S
H1537 C1545 0.950 . S
H1538 C1543 0.950 . S
H1539 C1544 0.949 . S
H1540 C1546 0.950 . S
H1541 C1547 0.950 . S
H1542 C1548 0.949 . S
C1543 H1538 0.950 . S
C1543 C1545 1.327 . S
C1543 C1549 1.429 . S
C1544 C1536 1.574 . S
C1544 H1539 0.949 . S
C1544 C1550 1.368 . S
C1545 C1529 1.349 . S
C1545 H1537 0.950 . S
C1545 C1543 1.327 . S
C1546 C1534 1.349 . S
C1546 H1540 0.950 . S
C1546 C1547 1.327 . S
C1547 H1541 0.950 . S
C1547 C1546 1.327 . S
C1547 C1551 1.429 . S
C1548 C1531 1.574 . S
C1548 H1542 0.949 . S
C1548 C1552 1.368 . S
C1549 C1530 1.429 . S
C1549 C1543 1.429 . S
C1549 C1550 1.523 . S
C1550 C1531 1.368 . S
C1550 C1544 1.368 . S
C1550 C1549 1.523 . S
C1551 C1535 1.429 . S
C1551 C1547 1.429 . S
C1551 C1552 1.523 . S
C1552 C1536 1.368 . S
C1552 C1548 1.368 . S
C1552 C1551 1.523 . S
H1553 C1528 0.950 . S
H1554 C1530 0.950 . S
H1555 C1531 0.949 . S
H1556 C1533 0.950 . S
H1557 C1535 0.950 . S
C1558 C1559 1.349 . S
C1558 C1560 1.327 . S
C1558 H1583 0.950 . S
C1559 C1558 1.349 . S
C1559 C1575 1.349 . S
C1560 C1558 1.327 . S
C1560 C1579 1.429 . S
C1560 H1584 0.950 . S
C1561 C1578 1.574 . S
C1561 C1580 1.368 1_455 S
C1561 H1585 0.949 . S
H1562 C1566 0.949 . S
C1563 C1564 1.349 . S
C1563 C1565 1.327 . S
C1563 H1586 0.950 . S
C1564 C1563 1.349 . S
C1564 C1576 1.349 . S
C1565 C1563 1.327 . S
C1565 C1581 1.429 . S
C1565 H1587 0.950 . S
C1566 H1562 0.949 . S
C1566 C1574 1.574 . S
C1566 C1582 1.368 1_655 S
H1567 C1575 0.950 . S
H1568 C1573 0.950 . S
H1569 C1574 0.949 . S
H1570 C1576 0.950 . S
H1571 C1577 0.950 . S
H1572 C1578 0.949 . S
C1573 H1568 0.950 . S
C1573 C1575 1.327 . S
C1573 C1579 1.429 . S
C1574 C1566 1.574 . S
C1574 H1569 0.949 . S
C1574 C1580 1.368 . S
C1575 C1559 1.349 . S
C1575 H1567 0.950 . S
C1575 C1573 1.327 . S
C1576 C1564 1.349 . S
C1576 H1570 0.950 . S
C1576 C1577 1.327 . S
C1577 H1571 0.950 . S
C1577 C1576 1.327 . S
C1577 C1581 1.429 . S
C1578 C1561 1.574 . S
C1578 H1572 0.949 . S
C1578 C1582 1.368 . S
C1579 C1560 1.429 . S
C1579 C1573 1.429 . S
C1579 C1580 1.523 . S
C1580 C1561 1.368 1_655 S
C1580 C1574 1.368 . S
C1580 C1579 1.523 . S
C1581 C1565 1.429 . S
C1581 C1577 1.429 . S
C1581 C1582 1.523 . S
C1582 C1566 1.368 1_455 S
C1582 C1578 1.368 . S
C1582 C1581 1.523 . S
H1583 C1558 0.950 . S
H1584 C1560 0.950 . S
H1585 C1561 0.949 . S
H1586 C1563 0.950 . S
H1587 C1565 0.950 . S
C1588 C1589 1.349 . S
C1588 C1590 1.327 . S
C1588 H1613 0.950 . S
C1589 C1588 1.349 . S
C1589 C1605 1.349 . S
C1590 C1588 1.327 . S
C1590 C1609 1.429 . S
C1590 H1614 0.950 . S
C1591 C1608 1.574 . S
C1591 C1610 1.368 . S
C1591 H1615 0.949 . S
H1592 C1596 0.949 . S
C1593 C1594 1.349 . S
C1593 C1595 1.327 . S
C1593 H1616 0.950 . S
C1594 C1593 1.349 . S
C1594 C1606 1.349 . S
C1595 C1593 1.327 . S
C1595 C1611 1.429 . S
C1595 H1617 0.950 . S
C1596 H1592 0.949 . S
C1596 C1604 1.574 . S
C1596 C1612 1.368 . S
H1597 C1605 0.950 . S
H1598 C1603 0.950 . S
H1599 C1604 0.949 . S
H1600 C1606 0.950 . S
H1601 C1607 0.950 . S
H1602 C1608 0.949 . S
C1603 H1598 0.950 . S
C1603 C1605 1.327 . S
C1603 C1609 1.429 . S
C1604 C1596 1.574 . S
C1604 H1599 0.949 . S
C1604 C1610 1.368 . S
C1605 C1589 1.349 . S
C1605 H1597 0.950 . S
C1605 C1603 1.327 . S
C1606 C1594 1.349 . S
C1606 H1600 0.950 . S
C1606 C1607 1.327 . S
C1607 H1601 0.950 . S
C1607 C1606 1.327 . S
C1607 C1611 1.429 . S
C1608 C1591 1.574 . S
C1608 H1602 0.949 . S
C1608 C1612 1.368 . S
C1609 C1590 1.429 . S
C1609 C1603 1.429 . S
C1609 C1610 1.523 . S
C1610 C1591 1.368 . S
C1610 C1604 1.368 . S
C1610 C1609 1.523 . S
C1611 C1595 1.429 . S
C1611 C1607 1.429 . S
C1611 C1612 1.523 . S
C1612 C1596 1.368 . S
C1612 C1608 1.368 . S
C1612 C1611 1.523 . S
H1613 C1588 0.950 . S
H1614 C1590 0.950 . S
H1615 C1591 0.949 . S
H1616 C1593 0.950 . S
H1617 C1595 0.950 . S
C1618 C1619 1.349 . S
C1618 C1620 1.327 . S
C1618 H1643 0.950 . S
C1619 C1618 1.349 . S
C1619 C1635 1.349 . S
C1620 C1618 1.327 . S
C1620 C1639 1.429 . S
C1620 H1644 0.950 . S
C1621 C1638 1.574 . S
C1621 C1640 1.368 . S
C1621 H1645 0.949 1_556 S
H1622 C1626 0.949 . S
C1623 C1624 1.349 . S
C1623 C1625 1.327 . S
C1623 H1646 0.950 . S
C1624 C1623 1.349 . S
C1624 C1636 1.349 . S
C1625 C1623 1.327 . S
C1625 C1641 1.429 . S
C1625 H1647 0.950 . S
C1626 H1622 0.949 . S
C1626 C1634 1.574 . S
C1626 C1642 1.368 . S
H1627 C1635 0.950 . S
H1628 C1633 0.950 . S
H1629 C1634 0.949 . S
H1630 C1636 0.950 . S
H1631 C1637 0.950 . S
H1632 C1638 0.949 . S
C1633 H1628 0.950 . S
C1633 C1635 1.327 . S
C1633 C1639 1.429 . S
C1634 C1626 1.574 . S
C1634 H1629 0.949 . S
C1634 C1640 1.368 . S
C1635 C1619 1.349 . S
C1635 H1627 0.950 . S
C1635 C1633 1.327 . S
C1636 C1624 1.349 . S
C1636 H1630 0.950 . S
C1636 C1637 1.327 . S
C1637 H1631 0.950 . S
C1637 C1636 1.327 . S
C1637 C1641 1.429 . S
C1638 C1621 1.574 . S
C1638 H1632 0.949 . S
C1638 C1642 1.368 . S
C1639 C1620 1.429 . S
C1639 C1633 1.429 . S
C1639 C1640 1.523 1_554 S
C1640 C1621 1.368 . S
C1640 C1634 1.368 . S
C1640 C1639 1.523 1_556 S
C1641 C1625 1.429 . S
C1641 C1637 1.429 . S
C1641 C1642 1.523 . S
C1642 C1626 1.368 . S
C1642 C1638 1.368 . S
C1642 C1641 1.523 . S
H1643 C1618 0.950 . S
H1644 C1620 0.950 . S
H1645 C1621 0.949 1_554 S
H1646 C1623 0.950 . S
H1647 C1625 0.950 . S
C1648 C1649 1.349 . S
C1648 C1650 1.327 . S
C1648 H1673 0.950 . S
C1649 C1648 1.349 . S
C1649 C1665 1.349 . S
C1650 C1648 1.327 . S
C1650 C1669 1.429 . S
C1650 H1674 0.950 . S
C1651 C1668 1.574 . S
C1651 C1670 1.368 . S
C1651 H1675 0.949 . S
H1652 C1656 0.949 . S
C1653 C1654 1.349 . S
C1653 C1655 1.327 . S
C1653 H1676 0.950 . S
C1654 C1653 1.349 . S
C1654 C1666 1.349 . S
C1655 C1653 1.327 . S
C1655 C1671 1.429 . S
C1655 H1677 0.950 . S
C1656 H1652 0.949 . S
C1656 C1664 1.574 . S
C1656 C1672 1.368 . S
H1657 C1665 0.950 . S
H1658 C1663 0.950 . S
H1659 C1664 0.949 . S
H1660 C1666 0.950 . S
H1661 C1667 0.950 . S
H1662 C1668 0.949 . S
C1663 H1658 0.950 . S
C1663 C1665 1.327 . S
C1663 C1669 1.429 . S
C1664 C1656 1.574 . S
C1664 H1659 0.949 . S
C1664 C1670 1.368 . S
C1665 C1649 1.349 . S
C1665 H1657 0.950 . S
C1665 C1663 1.327 . S
C1666 C1654 1.349 . S
C1666 H1660 0.950 . S
C1666 C1667 1.327 . S
C1667 H1661 0.950 . S
C1667 C1666 1.327 . S
C1667 C1671 1.429 . S
C1668 C1651 1.574 . S
C1668 H1662 0.949 . S
C1668 C1672 1.368 . S
C1669 C1650 1.429 . S
C1669 C1663 1.429 . S
C1669 C1670 1.523 . S
C1670 C1651 1.368 . S
C1670 C1664 1.368 . S
C1670 C1669 1.523 . S
C1671 C1655 1.429 . S
C1671 C1667 1.429 . S
C1671 C1672 1.523 . S
C1672 C1656 1.368 . S
C1672 C1668 1.368 . S
C1672 C1671 1.523 . S
H1673 C1648 0.950 . S
H1674 C1650 0.950 . S
H1675 C1651 0.949 . S
H1676 C1653 0.950 . S
H1677 C1655 0.950 . S
C1678 C1679 1.349 . S
C1678 C1680 1.327 . S
C1678 H1703 0.950 . S
C1679 C1678 1.349 . S
C1679 C1695 1.349 . S
C1680 C1678 1.327 . S
C1680 C1699 1.429 . S
C1680 H1704 0.950 . S
C1681 C1698 1.574 . S
C1681 C1700 1.368 . S
C1681 H1705 0.949 . S
H1682 C1686 0.949 . S
C1683 C1684 1.349 . S
C1683 C1685 1.327 . S
C1683 H1706 0.950 . S
C1684 C1683 1.349 . S
C1684 C1696 1.349 . S
C1685 C1683 1.327 . S
C1685 C1701 1.429 . S
C1685 H1707 0.950 . S
C1686 H1682 0.949 . S
C1686 C1694 1.574 . S
C1686 C1702 1.368 . S
H1687 C1695 0.950 . S
H1688 C1693 0.950 . S
H1689 C1694 0.949 . S
H1690 C1696 0.950 . S
H1691 C1697 0.950 . S
H1692 C1698 0.949 . S
C1693 H1688 0.950 . S
C1693 C1695 1.327 . S
C1693 C1699 1.429 . S
C1694 C1686 1.574 . S
C1694 H1689 0.949 . S
C1694 C1700 1.368 . S
C1695 C1679 1.349 . S
C1695 H1687 0.950 . S
C1695 C1693 1.327 . S
C1696 C1684 1.349 . S
C1696 H1690 0.950 . S
C1696 C1697 1.327 . S
C1697 H1691 0.950 . S
C1697 C1696 1.327 . S
C1697 C1701 1.429 . S
C1698 C1681 1.574 . S
C1698 H1692 0.949 . S
C1698 C1702 1.368 . S
C1699 C1680 1.429 . S
C1699 C1693 1.429 . S
C1699 C1700 1.523 . S
C1700 C1681 1.368 . S
C1700 C1694 1.368 . S
C1700 C1699 1.523 . S
C1701 C1685 1.429 . S
C1701 C1697 1.429 . S
C1701 C1702 1.523 . S
C1702 C1686 1.368 . S
C1702 C1698 1.368 . S
C1702 C1701 1.523 . S
H1703 C1678 0.950 . S
H1704 C1680 0.950 . S
H1705 C1681 0.949 . S
H1706 C1683 0.950 . S
H1707 C1685 0.950 . S
C1708 C1709 1.349 . S
C1708 C1710 1.327 . S
C1708 H1733 0.950 . S
C1709 C1708 1.349 . S
C1709 C1725 1.349 . S
C1710 C1708 1.327 . S
C1710 C1729 1.429 . S
C1710 H1734 0.950 . S
C1711 C1728 1.574 . S
C1711 C1730 1.368 . S
C1711 H1735 0.949 . S
H1712 C1716 0.949 . S
C1713 C1714 1.349 . S
C1713 C1715 1.327 . S
C1713 H1736 0.950 . S
C1714 C1713 1.349 . S
C1714 C1726 1.349 . S
C1715 C1713 1.327 . S
C1715 C1731 1.429 . S
C1715 H1737 0.950 . S
C1716 H1712 0.949 . S
C1716 C1724 1.574 . S
C1716 C1732 1.368 . S
H1717 C1725 0.950 . S
H1718 C1723 0.950 . S
H1719 C1724 0.949 . S
H1720 C1726 0.950 . S
H1721 C1727 0.950 . S
H1722 C1728 0.949 . S
C1723 H1718 0.950 . S
C1723 C1725 1.327 . S
C1723 C1729 1.429 . S
C1724 C1716 1.574 . S
C1724 H1719 0.949 . S
C1724 C1730 1.368 . S
C1725 C1709 1.349 . S
C1725 H1717 0.950 . S
C1725 C1723 1.327 . S
C1726 C1714 1.349 . S
C1726 H1720 0.950 . S
C1726 C1727 1.327 . S
C1727 H1721 0.950 . S
C1727 C1726 1.327 . S
C1727 C1731 1.429 . S
C1728 C1711 1.574 . S
C1728 H1722 0.949 . S
C1728 C1732 1.368 . S
C1729 C1710 1.429 . S
C1729 C1723 1.429 . S
C1729 C1730 1.523 . S
C1730 C1711 1.368 . S
C1730 C1724 1.368 . S
C1730 C1729 1.523 . S
C1731 C1715 1.429 . S
C1731 C1727 1.429 . S
C1731 C1732 1.523 . S
C1732 C1716 1.368 . S
C1732 C1728 1.368 . S
C1732 C1731 1.523 . S
H1733 C1708 0.950 . S
H1734 C1710 0.950 . S
H1735 C1711 0.949 . S
H1736 C1713 0.950 . S
H1737 C1715 0.950 . S
C1738 C1739 1.349 . S
C1738 C1740 1.327 . S
C1738 H1763 0.950 . S
C1739 C1738 1.349 . S
C1739 C1755 1.349 . S
C1740 C1738 1.327 . S
C1740 C1759 1.429 . S
C1740 H1764 0.950 . S
C1741 C1758 1.574 . S
C1741 C1760 1.368 . S
C1741 H1765 0.949 . S
H1742 C1746 0.949 . S
C1743 C1744 1.349 . S
C1743 C1745 1.327 . S
C1743 H1766 0.950 . S
C1744 C1743 1.349 . S
C1744 C1756 1.349 . S
C1745 C1743 1.327 . S
C1745 C1761 1.429 . S
C1745 H1767 0.950 . S
C1746 H1742 0.949 . S
C1746 C1754 1.574 . S
C1746 C1762 1.368 . S
H1747 C1755 0.950 . S
H1748 C1753 0.950 . S
H1749 C1754 0.949 . S
H1750 C1756 0.950 . S
H1751 C1757 0.950 . S
H1752 C1758 0.949 1_554 S
C1753 H1748 0.950 . S
C1753 C1755 1.327 . S
C1753 C1759 1.429 . S
C1754 C1746 1.574 . S
C1754 H1749 0.949 . S
C1754 C1760 1.368 1_455 S
C1755 C1739 1.349 . S
C1755 H1747 0.950 . S
C1755 C1753 1.327 . S
C1756 C1744 1.349 . S
C1756 H1750 0.950 . S
C1756 C1757 1.327 . S
C1757 H1751 0.950 . S
C1757 C1756 1.327 . S
C1757 C1761 1.429 . S
C1758 C1741 1.574 . S
C1758 H1752 0.949 1_556 S
C1758 C1762 1.368 1_655 S
C1759 C1740 1.429 . S
C1759 C1753 1.429 . S
C1759 C1760 1.523 . S
C1760 C1741 1.368 . S
C1760 C1754 1.368 1_655 S
C1760 C1759 1.523 . S
C1761 C1745 1.429 . S
C1761 C1757 1.429 . S
C1761 C1762 1.523 1_554 S
C1762 C1746 1.368 . S
C1762 C1758 1.368 1_455 S
C1762 C1761 1.523 1_556 S
H1763 C1738 0.950 . S
H1764 C1740 0.950 . S
H1765 C1741 0.949 . S
H1766 C1743 0.950 . S
H1767 C1745 0.950 . S
C1768 C1769 1.349 . S
C1768 C1770 1.327 . S
C1768 H1793 0.950 . S
C1769 C1768 1.349 . S
C1769 C1785 1.349 . S
C1770 C1768 1.327 . S
C1770 C1789 1.429 . S
C1770 H1794 0.950 . S
C1771 C1788 1.574 . S
C1771 C1790 1.368 . S
C1771 H1795 0.949 . S
H1772 C1776 0.949 . S
C1773 C1774 1.349 . S
C1773 C1775 1.327 . S
C1773 H1796 0.950 . S
C1774 C1773 1.349 . S
C1774 C1786 1.349 . S
C1775 C1773 1.327 . S
C1775 C1791 1.429 . S
C1775 H1797 0.950 . S
C1776 H1772 0.949 . S
C1776 C1784 1.574 . S
C1776 C1792 1.368 . S
H1777 C1785 0.950 . S
H1778 C1783 0.950 . S
H1779 C1784 0.949 . S
H1780 C1786 0.950 . S
H1781 C1787 0.950 . S
H1782 C1788 0.949 . S
C1783 H1778 0.950 . S
C1783 C1785 1.327 . S
C1783 C1789 1.429 . S
C1784 C1776 1.574 . S
C1784 H1779 0.949 . S
C1784 C1790 1.368 . S
C1785 C1769 1.349 . S
C1785 H1777 0.950 . S
C1785 C1783 1.327 . S
C1786 C1774 1.349 . S
C1786 H1780 0.950 . S
C1786 C1787 1.327 . S
C1787 H1781 0.950 . S
C1787 C1786 1.327 . S
C1787 C1791 1.429 . S
C1788 C1771 1.574 . S
C1788 H1782 0.949 . S
C1788 C1792 1.368 . S
C1789 C1770 1.429 . S
C1789 C1783 1.429 . S
C1789 C1790 1.523 . S
C1790 C1771 1.368 . S
C1790 C1784 1.368 . S
C1790 C1789 1.523 . S
C1791 C1775 1.429 . S
C1791 C1787 1.429 . S
C1791 C1792 1.523 . S
C1792 C1776 1.368 . S
C1792 C1788 1.368 . S
C1792 C1791 1.523 . S
H1793 C1768 0.950 . S
H1794 C1770 0.950 . S
H1795 C1771 0.949 . S
H1796 C1773 0.950 . S
H1797 C1775 0.950 . S
C1798 C1799 1.349 . S
C1798 C1800 1.327 . S
C1798 H1823 0.950 . S
C1799 C1798 1.349 . S
C1799 C1815 1.349 . S
C1800 C1798 1.327 . S
C1800 C1819 1.429 . S
C1800 H1824 0.950 . S
C1801 C1818 1.574 . S
C1801 C1820 1.368 . S
C1801 H1825 0.949 . S
H1802 C1806 0.949 . S
C1803 C1804 1.349 . S
C1803 C1805 1.327 . S
C1803 H1826 0.950 . S
C1804 C1803 1.349 . S
C1804 C1816 1.349 . S
C1805 C1803 1.327 . S
C1805 C1821 1.429 . S
C1805 H1827 0.950 . S
C1806 H1802 0.949 . S
C1806 C1814 1.574 . S
C1806 C1822 1.368 . S
H1807 C1815 0.950 . S
H1808 C1813 0.950 . S
H1809 C1814 0.949 . S
H1810 C1816 0.950 . S
H1811 C1817 0.950 . S
H1812 C1818 0.949 . S
C1813 H1808 0.950 . S
C1813 C1815 1.327 . S
C1813 C1819 1.429 . S
C1814 C1806 1.574 . S
C1814 H1809 0.949 . S
C1814 C1820 1.368 1_455 S
C1815 C1799 1.349 . S
C1815 H1807 0.950 . S
C1815 C1813 1.327 . S
C1816 C1804 1.349 . S
C1816 H1810 0.950 . S
C1816 C1817 1.327 . S
C1817 H1811 0.950 . S
C1817 C1816 1.327 . S
C1817 C1821 1.429 . S
C1818 C1801 1.574 . S
C1818 H1812 0.949 . S
C1818 C1822 1.368 1_655 S
C1819 C1800 1.429 . S
C1819 C1813 1.429 . S
C1819 C1820 1.523 . S
C1820 C1801 1.368 . S
C1820 C1814 1.368 1_655 S
C1820 C1819 1.523 . S
C1821 C1805 1.429 . S
C1821 C1817 1.429 . S
C1821 C1822 1.523 . S
C1822 C1806 1.368 . S
C1822 C1818 1.368 1_455 S
C1822 C1821 1.523 . S
H1823 C1798 0.950 . S
H1824 C1800 0.950 . S
H1825 C1801 0.949 . S
H1826 C1803 0.950 . S
H1827 C1805 0.950 . S
C1828 C1829 1.349 . S
C1828 C1830 1.327 . S
C1828 H1853 0.950 . S
C1829 C1828 1.349 . S
C1829 C1845 1.349 . S
C1830 C1828 1.327 . S
C1830 C1849 1.429 . S
C1830 H1854 0.950 . S
C1831 C1848 1.574 . S
C1831 C1850 1.368 . S
C1831 H1855 0.949 . S
H1832 C1836 0.949 . S
C1833 C1834 1.349 . S
C1833 C1835 1.327 . S
C1833 H1856 0.950 . S
C1834 C1833 1.349 . S
C1834 C1846 1.349 . S
C1835 C1833 1.327 . S
C1835 C1851 1.429 . S
C1835 H1857 0.950 . S
C1836 H1832 0.949 . S
C1836 C1844 1.574 . S
C1836 C1852 1.368 . S
H1837 C1845 0.950 . S
H1838 C1843 0.950 . S
H1839 C1844 0.949 . S
H1840 C1846 0.950 . S
H1841 C1847 0.950 . S
H1842 C1848 0.949 . S
C1843 H1838 0.950 . S
C1843 C1845 1.327 . S
C1843 C1849 1.429 . S
C1844 C1836 1.574 . S
C1844 H1839 0.949 . S
C1844 C1850 1.368 . S
C1845 C1829 1.349 . S
C1845 H1837 0.950 . S
C1845 C1843 1.327 . S
C1846 C1834 1.349 . S
C1846 H1840 0.950 . S
C1846 C1847 1.327 . S
C1847 H1841 0.950 . S
C1847 C1846 1.327 . S
C1847 C1851 1.429 . S
C1848 C1831 1.574 . S
C1848 H1842 0.949 . S
C1848 C1852 1.368 . S
C1849 C1830 1.429 . S
C1849 C1843 1.429 . S
C1849 C1850 1.523 . S
C1850 C1831 1.368 . S
C1850 C1844 1.368 . S
C1850 C1849 1.523 . S
C1851 C1835 1.429 . S
C1851 C1847 1.429 . S
C1851 C1852 1.523 . S
C1852 C1836 1.368 . S
C1852 C1848 1.368 . S
C1852 C1851 1.523 . S
H1853 C1828 0.950 . S
H1854 C1830 0.950 . S
H1855 C1831 0.949 . S
H1856 C1833 0.950 . S
H1857 C1835 0.950 . S
C1858 C1859 1.349 . S
C1858 C1860 1.327 . S
C1858 H1883 0.950 . S
C1859 C1858 1.349 . S
C1859 C1875 1.349 . S
C1860 C1858 1.327 . S
C1860 C1879 1.429 . S
C1860 H1884 0.950 . S
C1861 C1878 1.574 . S
C1861 C1880 1.368 . S
C1861 H1885 0.949 . S
H1862 C1866 0.949 1_556 S
C1863 C1864 1.349 . S
C1863 C1865 1.327 . S
C1863 H1886 0.950 . S
C1864 C1863 1.349 . S
C1864 C1876 1.349 . S
C1865 C1863 1.327 . S
C1865 C1881 1.429 . S
C1865 H1887 0.950 . S
C1866 H1862 0.949 1_554 S
C1866 C1874 1.574 . S
C1866 C1882 1.368 . S
H1867 C1875 0.950 . S
H1868 C1873 0.950 . S
H1869 C1874 0.949 . S
H1870 C1876 0.950 . S
H1871 C1877 0.950 . S
H1872 C1878 0.949 . S
C1873 H1868 0.950 . S
C1873 C1875 1.327 . S
C1873 C1879 1.429 . S
C1874 C1866 1.574 . S
C1874 H1869 0.949 . S
C1874 C1880 1.368 . S
C1875 C1859 1.349 . S
C1875 H1867 0.950 . S
C1875 C1873 1.327 . S
C1876 C1864 1.349 . S
C1876 H1870 0.950 . S
C1876 C1877 1.327 . S
C1877 H1871 0.950 . S
C1877 C1876 1.327 . S
C1877 C1881 1.429 . S
C1878 C1861 1.574 . S
C1878 H1872 0.949 . S
C1878 C1882 1.368 . S
C1879 C1860 1.429 . S
C1879 C1873 1.429 . S
C1879 C1880 1.523 . S
C1880 C1861 1.368 . S
C1880 C1874 1.368 . S
C1880 C1879 1.523 . S
C1881 C1865 1.429 . S
C1881 C1877 1.429 . S
C1881 C1882 1.523 1_556 S
C1882 C1866 1.368 . S
C1882 C1878 1.368 . S
C1882 C1881 1.523 1_554 S
H1883 C1858 0.950 . S
H1884 C1860 0.950 . S
H1885 C1861 0.949 . S
H1886 C1863 0.950 . S
H1887 C1865 0.950 . S
C1888 C1889 1.349 . S
C1888 C1890 1.327 . S
C1888 H1913 0.950 . S
C1889 C1888 1.349 . S
C1889 C1905 1.349 . S
C1890 C1888 1.327 . S
C1890 C1909 1.429 . S
C1890 H1914 0.950 . S
C1891 C1908 1.574 . S
C1891 C1910 1.368 . S
C1891 H1915 0.949 . S
H1892 C1896 0.949 . S
C1893 C1894 1.349 . S
C1893 C1895 1.327 . S
C1893 H1916 0.950 . S
C1894 C1893 1.349 . S
C1894 C1906 1.349 . S
C1895 C1893 1.327 . S
C1895 C1911 1.429 . S
C1895 H1917 0.950 . S
C1896 H1892 0.949 . S
C1896 C1904 1.574 . S
C1896 C1912 1.368 . S
H1897 C1905 0.950 . S
H1898 C1903 0.950 . S
H1899 C1904 0.949 . S
H1900 C1906 0.950 . S
H1901 C1907 0.950 . S
H1902 C1908 0.949 . S
C1903 H1898 0.950 . S
C1903 C1905 1.327 . S
C1903 C1909 1.429 . S
C1904 C1896 1.574 . S
C1904 H1899 0.949 . S
C1904 C1910 1.368 . S
C1905 C1889 1.349 . S
C1905 H1897 0.950 . S
C1905 C1903 1.327 . S
C1906 C1894 1.349 . S
C1906 H1900 0.950 . S
C1906 C1907 1.327 . S
C1907 H1901 0.950 . S
C1907 C1906 1.327 . S
C1907 C1911 1.429 . S
C1908 C1891 1.574 . S
C1908 H1902 0.949 . S
C1908 C1912 1.368 . S
C1909 C1890 1.429 . S
C1909 C1903 1.429 . S
C1909 C1910 1.523 . S
C1910 C1891 1.368 . S
C1910 C1904 1.368 . S
C1910 C1909 1.523 . S
C1911 C1895 1.429 . S
C1911 C1907 1.429 . S
C1911 C1912 1.523 . S
C1912 C1896 1.368 . S
C1912 C1908 1.368 . S
C1912 C1911 1.523 . S
H1913 C1888 0.950 . S
H1914 C1890 0.950 . S
H1915 C1891 0.949 . S
H1916 C1893 0.950 . S
H1917 C1895 0.950 . S
C1918 C1919 1.349 . S
C1918 C1920 1.327 . S
C1918 H1943 0.950 . S
C1919 C1918 1.349 . S
C1919 C1935 1.349 . S
C1920 C1918 1.327 . S
C1920 C1939 1.429 . S
C1920 H1944 0.950 . S
C1921 C1938 1.574 . S
C1921 C1940 1.368 . S
C1921 H1945 0.949 . S
H1922 C1926 0.949 . S
C1923 C1924 1.349 . S
C1923 C1925 1.327 . S
C1923 H1946 0.950 . S
C1924 C1923 1.349 . S
C1924 C1936 1.349 . S
C1925 C1923 1.327 . S
C1925 C1941 1.429 . S
C1925 H1947 0.950 . S
C1926 H1922 0.949 . S
C1926 C1934 1.574 . S
C1926 C1942 1.368 . S
H1927 C1935 0.950 . S
H1928 C1933 0.950 . S
H1929 C1934 0.949 . S
H1930 C1936 0.950 . S
H1931 C1937 0.950 . S
H1932 C1938 0.949 . S
C1933 H1928 0.950 . S
C1933 C1935 1.327 . S
C1933 C1939 1.429 . S
C1934 C1926 1.574 . S
C1934 H1929 0.949 . S
C1934 C1940 1.368 . S
C1935 C1919 1.349 . S
C1935 H1927 0.950 . S
C1935 C1933 1.327 . S
C1936 C1924 1.349 . S
C1936 H1930 0.950 . S
C1936 C1937 1.327 . S
C1937 H1931 0.950 . S
C1937 C1936 1.327 . S
C1937 C1941 1.429 . S
C1938 C1921 1.574 . S
C1938 H1932 0.949 . S
C1938 C1942 1.368 . S
C1939 C1920 1.429 . S
C1939 C1933 1.429 . S
C1939 C1940 1.523 . S
C1940 C1921 1.368 . S
C1940 C1934 1.368 . S
C1940 C1939 1.523 . S
C1941 C1925 1.429 . S
C1941 C1937 1.429 . S
C1941 C1942 1.523 . S
C1942 C1926 1.368 . S
C1942 C1938 1.368 . S
C1942 C1941 1.523 . S
H1943 C1918 0.950 . S
H1944 C1920 0.950 . S
H1945 C1921 0.949 . S
H1946 C1923 0.950 . S
H1947 C1925 0.950 . S
C1948 C1949 1.349 . S
C1948 C1950 1.327 . S
C1948 H1973 0.950 . S
C1949 C1948 1.349 . S
C1949 C1965 1.349 . S
C1950 C1948 1.327 . S
C1950 C1969 1.429 . S
C1950 H1974 0.950 . S
C1951 C1968 1.574 . S
C1951 C1970 1.368 . S
C1951 H1975 0.949 . S
H1952 C1956 0.949 . S
C1953 C1954 1.349 . S
C1953 C1955 1.327 . S
C1953 H1976 0.950 . S
C1954 C1953 1.349 . S
C1954 C1966 1.349 . S
C1955 C1953 1.327 . S
C1955 C1971 1.429 . S
C1955 H1977 0.950 . S
C1956 H1952 0.949 . S
C1956 C1964 1.574 . S
C1956 C1972 1.368 . S
H1957 C1965 0.950 . S
H1958 C1963 0.950 . S
H1959 C1964 0.949 . S
H1960 C1966 0.950 . S
H1961 C1967 0.950 . S
H1962 C1968 0.949 . S
C1963 H1958 0.950 . S
C1963 C1965 1.327 . S
C1963 C1969 1.429 . S
C1964 C1956 1.574 . S
C1964 H1959 0.949 . S
C1964 C1970 1.368 . S
C1965 C1949 1.349 . S
C1965 H1957 0.950 . S
C1965 C1963 1.327 . S
C1966 C1954 1.349 . S
C1966 H1960 0.950 . S
C1966 C1967 1.327 . S
C1967 H1961 0.950 . S
C1967 C1966 1.327 . S
C1967 C1971 1.429 . S
C1968 C1951 1.574 . S
C1968 H1962 0.949 . S
C1968 C1972 1.368 . S
C1969 C1950 1.429 . S
C1969 C1963 1.429 . S
C1969 C1970 1.523 . S
C1970 C1951 1.368 . S
C1970 C1964 1.368 . S
C1970 C1969 1.523 . S
C1971 C1955 1.429 . S
C1971 C1967 1.429 . S
C1971 C1972 1.523 . S
C1972 C1956 1.368 . S
C1972 C1968 1.368 . S
C1972 C1971 1.523 . S
H1973 C1948 0.950 . S
H1974 C1950 0.950 . S
H1975 C1951 0.949 . S
H1976 C1953 0.950 . S
H1977 C1955 0.950 . S
C1978 C1979 1.349 . S
C1978 C1980 1.327 . S
C1978 H2003 0.950 . S
C1979 C1978 1.349 . S
C1979 C1995 1.349 . S
C1980 C1978 1.327 . S
C1980 C1999 1.429 . S
C1980 H2004 0.950 . S
C1981 C1998 1.574 . S
C1981 C2000 1.368 . S
C1981 H2005 0.949 . S
H1982 C1986 0.949 . S
C1983 C1984 1.349 . S
C1983 C1985 1.327 . S
C1983 H2006 0.950 . S
C1984 C1983 1.349 . S
C1984 C1996 1.349 . S
C1985 C1983 1.327 . S
C1985 C2001 1.429 . S
C1985 H2007 0.950 . S
C1986 H1982 0.949 . S
C1986 C1994 1.574 . S
C1986 C2002 1.368 . S
H1987 C1995 0.950 . S
H1988 C1993 0.950 . S
H1989 C1994 0.949 . S
H1990 C1996 0.950 . S
H1991 C1997 0.950 . S
H1992 C1998 0.949 . S
C1993 H1988 0.950 . S
C1993 C1995 1.327 . S
C1993 C1999 1.429 . S
C1994 C1986 1.574 . S
C1994 H1989 0.949 . S
C1994 C2000 1.368 . S
C1995 C1979 1.349 . S
C1995 H1987 0.950 . S
C1995 C1993 1.327 . S
C1996 C1984 1.349 . S
C1996 H1990 0.950 . S
C1996 C1997 1.327 . S
C1997 H1991 0.950 . S
C1997 C1996 1.327 . S
C1997 C2001 1.429 . S
C1998 C1981 1.574 . S
C1998 H1992 0.949 . S
C1998 C2002 1.368 . S
C1999 C1980 1.429 . S
C1999 C1993 1.429 . S
C1999 C2000 1.523 . S
C2000 C1981 1.368 . S
C2000 C1994 1.368 . S
C2000 C1999 1.523 . S
C2001 C1985 1.429 . S
C2001 C1997 1.429 . S
C2001 C2002 1.523 . S
C2002 C1986 1.368 . S
C2002 C1998 1.368 . S
C2002 C2001 1.523 . S
H2003 C1978 0.950 . S
H2004 C1980 0.950 . S
H2005 C1981 0.949 . S
H2006 C1983 0.950 . S
H2007 C1985 0.950 . S
C2008 C2009 1.349 . S
C2008 C2010 1.327 . S
C2008 H2033 0.950 . S
C2009 C2008 1.349 . S
C2009 C2025 1.349 . S
C2010 C2008 1.327 . S
C2010 C2029 1.429 . S
C2010 H2034 0.950 . S
C2011 C2028 1.574 . S
C2011 C2030 1.368 . S
C2011 H2035 0.949 . S
H2012 C2016 0.949 . S
C2013 C2014 1.349 . S
C2013 C2015 1.327 . S
C2013 H2036 0.950 . S
C2014 C2013 1.349 . S
C2014 C2026 1.349 . S
C2015 C2013 1.327 . S
C2015 C2031 1.429 . S
C2015 H2037 0.950 . S
C2016 H2012 0.949 . S
C2016 C2024 1.574 . S
C2016 C2032 1.368 . S
H2017 C2025 0.950 . S
H2018 C2023 0.950 . S
H2019 C2024 0.949 . S
H2020 C2026 0.950 . S
H2021 C2027 0.950 . S
H2022 C2028 0.949 . S
C2023 H2018 0.950 . S
C2023 C2025 1.327 . S
C2023 C2029 1.429 . S
C2024 C2016 1.574 . S
C2024 H2019 0.949 . S
C2024 C2030 1.368 . S
C2025 C2009 1.349 . S
C2025 H2017 0.950 . S
C2025 C2023 1.327 . S
C2026 C2014 1.349 . S
C2026 H2020 0.950 . S
C2026 C2027 1.327 . S
C2027 H2021 0.950 . S
C2027 C2026 1.327 . S
C2027 C2031 1.429 . S
C2028 C2011 1.574 . S
C2028 H2022 0.949 . S
C2028 C2032 1.368 . S
C2029 C2010 1.429 . S
C2029 C2023 1.429 . S
C2029 C2030 1.523 . S
C2030 C2011 1.368 . S
C2030 C2024 1.368 . S
C2030 C2029 1.523 . S
C2031 C2015 1.429 . S
C2031 C2027 1.429 . S
C2031 C2032 1.523 . S
C2032 C2016 1.368 . S
C2032 C2028 1.368 . S
C2032 C2031 1.523 . S
H2033 C2008 0.950 . S
H2034 C2010 0.950 . S
H2035 C2011 0.949 . S
H2036 C2013 0.950 . S
H2037 C2015 0.950 . S
C2038 C2039 1.349 . S
C2038 C2040 1.327 . S
C2038 H2063 0.950 . S
C2039 C2038 1.349 . S
C2039 C2055 1.349 . S
C2040 C2038 1.327 . S
C2040 C2059 1.429 . S
C2040 H2064 0.950 . S
C2041 C2058 1.574 . S
C2041 C2060 1.368 . S
C2041 H2065 0.949 . S
H2042 C2046 0.949 . S
C2043 C2044 1.349 . S
C2043 C2045 1.327 . S
C2043 H2066 0.950 . S
C2044 C2043 1.349 . S
C2044 C2056 1.349 . S
C2045 C2043 1.327 . S
C2045 C2061 1.429 . S
C2045 H2067 0.950 . S
C2046 H2042 0.949 . S
C2046 C2054 1.574 . S
C2046 C2062 1.368 . S
H2047 C2055 0.950 . S
H2048 C2053 0.950 . S
H2049 C2054 0.949 . S
H2050 C2056 0.950 . S
H2051 C2057 0.950 . S
H2052 C2058 0.949 . S
C2053 H2048 0.950 . S
C2053 C2055 1.327 . S
C2053 C2059 1.429 . S
C2054 C2046 1.574 . S
C2054 H2049 0.949 . S
C2054 C2060 1.368 . S
C2055 C2039 1.349 . S
C2055 H2047 0.950 . S
C2055 C2053 1.327 . S
C2056 C2044 1.349 . S
C2056 H2050 0.950 . S
C2056 C2057 1.327 . S
C2057 H2051 0.950 . S
C2057 C2056 1.327 . S
C2057 C2061 1.429 . S
C2058 C2041 1.574 . S
C2058 H2052 0.949 . S
C2058 C2062 1.368 . S
C2059 C2040 1.429 . S
C2059 C2053 1.429 . S
C2059 C2060 1.523 . S
C2060 C2041 1.368 . S
C2060 C2054 1.368 . S
C2060 C2059 1.523 . S
C2061 C2045 1.429 . S
C2061 C2057 1.429 . S
C2061 C2062 1.523 . S
C2062 C2046 1.368 . S
C2062 C2058 1.368 . S
C2062 C2061 1.523 . S
H2063 C2038 0.950 . S
H2064 C2040 0.950 . S
H2065 C2041 0.949 . S
H2066 C2043 0.950 . S
H2067 C2045 0.950 . S
C2068 C2069 1.349 . S
C2068 C2070 1.327 . S
C2068 H2093 0.950 . S
C2069 C2068 1.349 . S
C2069 C2085 1.349 . S
C2070 C2068 1.327 . S
C2070 C2089 1.429 . S
C2070 H2094 0.950 . S
C2071 C2088 1.574 . S
C2071 C2090 1.368 . S
C2071 H2095 0.949 . S
H2072 C2076 0.949 . S
C2073 C2074 1.349 . S
C2073 C2075 1.327 . S
C2073 H2096 0.950 . S
C2074 C2073 1.349 . S
C2074 C2086 1.349 . S
C2075 C2073 1.327 . S
C2075 C2091 1.429 . S
C2075 H2097 0.950 . S
C2076 H2072 0.949 . S
C2076 C2084 1.574 . S
C2076 C2092 1.368 . S
H2077 C2085 0.950 . S
H2078 C2083 0.950 . S
H2079 C2084 0.949 . S
H2080 C2086 0.950 . S
H2081 C2087 0.950 . S
H2082 C2088 0.949 . S
C2083 H2078 0.950 . S
C2083 C2085 1.327 . S
C2083 C2089 1.429 . S
C2084 C2076 1.574 . S
C2084 H2079 0.949 . S
C2084 C2090 1.368 . S
C2085 C2069 1.349 . S
C2085 H2077 0.950 . S
C2085 C2083 1.327 . S
C2086 C2074 1.349 . S
C2086 H2080 0.950 . S
C2086 C2087 1.327 . S
C2087 H2081 0.950 . S
C2087 C2086 1.327 . S
C2087 C2091 1.429 . S
C2088 C2071 1.574 . S
C2088 H2082 0.949 . S
C2088 C2092 1.368 . S
C2089 C2070 1.429 . S
C2089 C2083 1.429 . S
C2089 C2090 1.523 . S
C2090 C2071 1.368 . S
C2090 C2084 1.368 . S
C2090 C2089 1.523 . S
C2091 C2075 1.429 . S
C2091 C2087 1.429 . S
C2091 C2092 1.523 . S
C2092 C2076 1.368 . S
C2092 C2088 1.368 . S
C2092 C2091 1.523 . S
H2093 C2068 0.950 . S
H2094 C2070 0.950 . S
H2095 C2071 0.949 . S
H2096 C2073 0.950 . S
H2097 C2075 0.950 . S
C2098 C2099 1.349 . S
C2098 C2100 1.327 . S
C2098 H2123 0.950 . S
C2099 C2098 1.349 . S
C2099 C2115 1.349 . S
C2100 C2098 1.327 . S
C2100 C2119 1.429 . S
C2100 H2124 0.950 . S
C2101 C2118 1.574 . S
C2101 C2120 1.368 . S
C2101 H2125 0.949 . S
H2102 C2106 0.949 . S
C2103 C2104 1.349 . S
C2103 C2105 1.327 . S
C2103 H2126 0.950 . S
C2104 C2103 1.349 . S
C2104 C2116 1.349 . S
C2105 C2103 1.327 . S
C2105 C2121 1.429 . S
C2105 H2127 0.950 . S
C2106 H2102 0.949 . S
C2106 C2114 1.574 . S
C2106 C2122 1.368 . S
H2107 C2115 0.950 . S
H2108 C2113 0.950 . S
H2109 C2114 0.949 . S
H2110 C2116 0.950 . S
H2111 C2117 0.950 . S
H2112 C2118 0.949 . S
C2113 H2108 0.950 . S
C2113 C2115 1.327 . S
C2113 C2119 1.429 . S
C2114 C2106 1.574 . S
C2114 H2109 0.949 . S
C2114 C2120 1.368 . S
C2115 C2099 1.349 . S
C2115 H2107 0.950 . S
C2115 C2113 1.327 . S
C2116 C2104 1.349 . S
C2116 H2110 0.950 . S
C2116 C2117 1.327 . S
C2117 H2111 0.950 . S
C2117 C2116 1.327 . S
C2117 C2121 1.429 . S
C2118 C2101 1.574 . S
C2118 H2112 0.949 . S
C2118 C2122 1.368 . S
C2119 C2100 1.429 . S
C2119 C2113 1.429 . S
C2119 C2120 1.523 . S
C2120 C2101 1.368 . S
C2120 C2114 1.368 . S
C2120 C2119 1.523 . S
C2121 C2105 1.429 . S
C2121 C2117 1.429 . S
C2121 C2122 1.523 . S
C2122 C2106 1.368 . S
C2122 C2118 1.368 . S
C2122 C2121 1.523 . S
H2123 C2098 0.950 . S
H2124 C2100 0.950 . S
H2125 C2101 0.949 . S
H2126 C2103 0.950 . S
H2127 C2105 0.950 . S
C2128 C2129 1.349 . S
C2128 C2130 1.327 . S
C2128 H2153 0.950 . S
C2129 C2128 1.349 . S
C2129 C2145 1.349 . S
C2130 C2128 1.327 . S
C2130 C2149 1.429 . S
C2130 H2154 0.950 . S
C2131 C2148 1.574 . S
C2131 C2150 1.368 . S
C2131 H2155 0.949 . S
H2132 C2136 0.949 . S
C2133 C2134 1.349 . S
C2133 C2135 1.327 . S
C2133 H2156 0.950 . S
C2134 C2133 1.349 . S
C2134 C2146 1.349 . S
C2135 C2133 1.327 . S
C2135 C2151 1.429 . S
C2135 H2157 0.950 . S
C2136 H2132 0.949 . S
C2136 C2144 1.574 . S
C2136 C2152 1.368 . S
H2137 C2145 0.950 . S
H2138 C2143 0.950 . S
H2139 C2144 0.949 . S
H2140 C2146 0.950 . S
H2141 C2147 0.950 . S
H2142 C2148 0.949 . S
C2143 H2138 0.950 . S
C2143 C2145 1.327 . S
C2143 C2149 1.429 . S
C2144 C2136 1.574 . S
C2144 H2139 0.949 . S
C2144 C2150 1.368 . S
C2145 C2129 1.349 . S
C2145 H2137 0.950 . S
C2145 C2143 1.327 . S
C2146 C2134 1.349 . S
C2146 H2140 0.950 . S
C2146 C2147 1.327 . S
C2147 H2141 0.950 . S
C2147 C2146 1.327 . S
C2147 C2151 1.429 . S
C2148 C2131 1.574 . S
C2148 H2142 0.949 . S
C2148 C2152 1.368 . S
C2149 C2130 1.429 . S
C2149 C2143 1.429 . S
C2149 C2150 1.523 . S
C2150 C2131 1.368 . S
C2150 C2144 1.368 . S
C2150 C2149 1.523 . S
C2151 C2135 1.429 . S
C2151 C2147 1.429 . S
C2151 C2152 1.523 . S
C2152 C2136 1.368 . S
C2152 C2148 1.368 . S
C2152 C2151 1.523 . S
H2153 C2128 0.950 . S
H2154 C2130 0.950 . S
H2155 C2131 0.949 . S
H2156 C2133 0.950 . S
H2157 C2135 0.950 . S
C2158 C2159 1.349 . S
C2158 C2160 1.327 . S
C2158 H2183 0.950 . S
C2159 C2158 1.349 . S
C2159 C2175 1.349 . S
C2160 C2158 1.327 . S
C2160 C2179 1.429 . S
C2160 H2184 0.950 . S
C2161 C2178 1.574 . S
C2161 C2180 1.368 . S
C2161 H2185 0.949 . S
H2162 C2166 0.949 . S
C2163 C2164 1.349 . S
C2163 C2165 1.327 . S
C2163 H2186 0.950 . S
C2164 C2163 1.349 . S
C2164 C2176 1.349 . S
C2165 C2163 1.327 . S
C2165 C2181 1.429 . S
C2165 H2187 0.950 . S
C2166 H2162 0.949 . S
C2166 C2174 1.574 . S
C2166 C2182 1.368 . S
H2167 C2175 0.950 . S
H2168 C2173 0.950 . S
H2169 C2174 0.949 . S
H2170 C2176 0.950 . S
H2171 C2177 0.950 . S
H2172 C2178 0.949 . S
C2173 H2168 0.950 . S
C2173 C2175 1.327 . S
C2173 C2179 1.429 . S
C2174 C2166 1.574 . S
C2174 H2169 0.949 . S
C2174 C2180 1.368 . S
C2175 C2159 1.349 . S
C2175 H2167 0.950 . S
C2175 C2173 1.327 . S
C2176 C2164 1.349 . S
C2176 H2170 0.950 . S
C2176 C2177 1.327 . S
C2177 H2171 0.950 . S
C2177 C2176 1.327 . S
C2177 C2181 1.429 . S
C2178 C2161 1.574 . S
C2178 H2172 0.949 . S
C2178 C2182 1.368 . S
C2179 C2160 1.429 . S
C2179 C2173 1.429 . S
C2179 C2180 1.523 . S
C2180 C2161 1.368 . S
C2180 C2174 1.368 . S
C2180 C2179 1.523 . S
C2181 C2165 1.429 . S
C2181 C2177 1.429 . S
C2181 C2182 1.523 . S
C2182 C2166 1.368 . S
C2182 C2178 1.368 . S
C2182 C2181 1.523 . S
H2183 C2158 0.950 . S
H2184 C2160 0.950 . S
H2185 C2161 0.949 . S
H2186 C2163 0.950 . S
H2187 C2165 0.950 . S
C2188 C2189 1.349 . S
C2188 C2190 1.327 . S
C2188 H2213 0.950 . S
C2189 C2188 1.349 . S
C2189 C2205 1.349 . S
C2190 C2188 1.327 . S
C2190 C2209 1.429 . S
C2190 H2214 0.950 . S
C2191 C2208 1.574 . S
C2191 C2210 1.368 . S
C2191 H2215 0.949 . S
H2192 C2196 0.949 . S
C2193 C2194 1.349 . S
C2193 C2195 1.327 . S
C2193 H2216 0.950 . S
C2194 C2193 1.349 . S
C2194 C2206 1.349 . S
C2195 C2193 1.327 . S
C2195 C2211 1.429 . S
C2195 H2217 0.950 . S
C2196 H2192 0.949 . S
C2196 C2204 1.574 . S
C2196 C2212 1.368 . S
H2197 C2205 0.950 . S
H2198 C2203 0.950 . S
H2199 C2204 0.949 . S
H2200 C2206 0.950 . S
H2201 C2207 0.950 . S
H2202 C2208 0.949 . S
C2203 H2198 0.950 . S
C2203 C2205 1.327 . S
C2203 C2209 1.429 . S
C2204 C2196 1.574 . S
C2204 H2199 0.949 . S
C2204 C2210 1.368 . S
C2205 C2189 1.349 . S
C2205 H2197 0.950 . S
C2205 C2203 1.327 . S
C2206 C2194 1.349 . S
C2206 H2200 0.950 . S
C2206 C2207 1.327 . S
C2207 H2201 0.950 . S
C2207 C2206 1.327 . S
C2207 C2211 1.429 . S
C2208 C2191 1.574 . S
C2208 H2202 0.949 . S
C2208 C2212 1.368 . S
C2209 C2190 1.429 . S
C2209 C2203 1.429 . S
C2209 C2210 1.523 . S
C2210 C2191 1.368 . S
C2210 C2204 1.368 . S
C2210 C2209 1.523 . S
C2211 C2195 1.429 . S
C2211 C2207 1.429 . S
C2211 C2212 1.523 . S
C2212 C2196 1.368 . S
C2212 C2208 1.368 . S
C2212 C2211 1.523 . S
H2213 C2188 0.950 . S
H2214 C2190 0.950 . S
H2215 C2191 0.949 . S
H2216 C2193 0.950 . S
H2217 C2195 0.950 . S
C2218 C2219 1.349 . S
C2218 C2220 1.327 . S
C2218 H2243 0.950 . S
C2219 C2218 1.349 . S
C2219 C2235 1.349 . S
C2220 C2218 1.327 . S
C2220 C2239 1.429 . S
C2220 H2244 0.950 . S
C2221 C2238 1.574 . S
C2221 C2240 1.368 . S
C2221 H2245 0.949 . S
H2222 C2226 0.949 . S
C2223 C2224 1.349 . S
C2223 C2225 1.327 . S
C2223 H2246 0.950 . S
C2224 C2223 1.349 . S
C2224 C2236 1.349 . S
C2225 C2223 1.327 . S
C2225 C2241 1.429 . S
C2225 H2247 0.950 . S
C2226 H2222 0.949 . S
C2226 C2234 1.574 . S
C2226 C2242 1.368 . S
H2227 C2235 0.950 . S
H2228 C2233 0.950 . S
H2229 C2234 0.949 . S
H2230 C2236 0.950 . S
H2231 C2237 0.950 . S
H2232 C2238 0.949 . S
C2233 H2228 0.950 . S
C2233 C2235 1.327 . S
C2233 C2239 1.429 . S
C2234 C2226 1.574 . S
C2234 H2229 0.949 . S
C2234 C2240 1.368 . S
C2235 C2219 1.349 . S
C2235 H2227 0.950 . S
C2235 C2233 1.327 . S
C2236 C2224 1.349 . S
C2236 H2230 0.950 . S
C2236 C2237 1.327 . S
C2237 H2231 0.950 . S
C2237 C2236 1.327 . S
C2237 C2241 1.429 . S
C2238 C2221 1.574 . S
C2238 H2232 0.949 . S
C2238 C2242 1.368 . S
C2239 C2220 1.429 . S
C2239 C2233 1.429 . S
C2239 C2240 1.523 . S
C2240 C2221 1.368 . S
C2240 C2234 1.368 . S
C2240 C2239 1.523 . S
C2241 C2225 1.429 . S
C2241 C2237 1.429 . S
C2241 C2242 1.523 . S
C2242 C2226 1.368 . S
C2242 C2238 1.368 . S
C2242 C2241 1.523 . S
H2243 C2218 0.950 . S
H2244 C2220 0.950 . S
H2245 C2221 0.949 . S
H2246 C2223 0.950 . S
H2247 C2225 0.950 . S
C2248 C2249 1.349 . S
C2248 C2250 1.327 . S
C2248 H2273 0.950 . S
C2249 C2248 1.349 . S
C2249 C2265 1.349 . S
C2250 C2248 1.327 . S
C2250 C2269 1.429 . S
C2250 H2274 0.950 . S
C2251 C2268 1.574 . S
C2251 C2270 1.368 . S
C2251 H2275 0.949 . S
H2252 C2256 0.949 . S
C2253 C2254 1.349 . S
C2253 C2255 1.327 . S
C2253 H2276 0.950 . S
C2254 C2253 1.349 . S
C2254 C2266 1.349 . S
C2255 C2253 1.327 . S
C2255 C2271 1.429 . S
C2255 H2277 0.950 . S
C2256 H2252 0.949 . S
C2256 C2264 1.574 . S
C2256 C2272 1.368 . S
H2257 C2265 0.950 . S
H2258 C2263 0.950 . S
H2259 C2264 0.949 . S
H2260 C2266 0.950 . S
H2261 C2267 0.950 . S
H2262 C2268 0.949 . S
C2263 H2258 0.950 . S
C2263 C2265 1.327 . S
C2263 C2269 1.429 . S
C2264 C2256 1.574 . S
C2264 H2259 0.949 . S
C2264 C2270 1.368 . S
C2265 C2249 1.349 . S
C2265 H2257 0.950 . S
C2265 C2263 1.327 . S
C2266 C2254 1.349 . S
C2266 H2260 0.950 . S
C2266 C2267 1.327 . S
C2267 H2261 0.950 . S
C2267 C2266 1.327 . S
C2267 C2271 1.429 . S
C2268 C2251 1.574 . S
C2268 H2262 0.949 . S
C2268 C2272 1.368 . S
C2269 C2250 1.429 . S
C2269 C2263 1.429 . S
C2269 C2270 1.523 . S
C2270 C2251 1.368 . S
C2270 C2264 1.368 . S
C2270 C2269 1.523 . S
C2271 C2255 1.429 . S
C2271 C2267 1.429 . S
C2271 C2272 1.523 . S
C2272 C2256 1.368 . S
C2272 C2268 1.368 . S
C2272 C2271 1.523 . S
H2273 C2248 0.950 . S
H2274 C2250 0.950 . S
H2275 C2251 0.949 . S
H2276 C2253 0.950 . S
H2277 C2255 0.950 . S
C2278 C2279 1.349 . S
C2278 C2280 1.327 . S
C2278 H2303 0.950 . S
C2279 C2278 1.349 . S
C2279 C2295 1.349 . S
C2280 C2278 1.327 . S
C2280 C2299 1.429 . S
C2280 H2304 0.950 . S
C2281 C2298 1.574 . S
C2281 C2300 1.368 . S
C2281 H2305 0.949 . S
H2282 C2286 0.949 . S
C2283 C2284 1.349 . S
C2283 C2285 1.327 . S
C2283 H2306 0.950 . S
C2284 C2283 1.349 . S
C2284 C2296 1.349 . S
C2285 C2283 1.327 . S
C2285 C2301 1.429 . S
C2285 H2307 0.950 . S
C2286 H2282 0.949 . S
C2286 C2294 1.574 . S
C2286 C2302 1.368 . S
H2287 C2295 0.950 . S
H2288 C2293 0.950 . S
H2289 C2294 0.949 . S
H2290 C2296 0.950 . S
H2291 C2297 0.950 . S
H2292 C2298 0.949 . S
C2293 H2288 0.950 . S
C2293 C2295 1.327 . S
C2293 C2299 1.429 . S
C2294 C2286 1.574 . S
C2294 H2289 0.949 . S
C2294 C2300 1.368 . S
C2295 C2279 1.349 . S
C2295 H2287 0.950 . S
C2295 C2293 1.327 . S
C2296 C2284 1.349 . S
C2296 H2290 0.950 . S
C2296 C2297 1.327 . S
C2297 H2291 0.950 . S
C2297 C2296 1.327 . S
C2297 C2301 1.429 . S
C2298 C2281 1.574 . S
C2298 H2292 0.949 . S
C2298 C2302 1.368 . S
C2299 C2280 1.429 . S
C2299 C2293 1.429 . S
C2299 C2300 1.523 . S
C2300 C2281 1.368 . S
C2300 C2294 1.368 . S
C2300 C2299 1.523 . S
C2301 C2285 1.429 . S
C2301 C2297 1.429 . S
C2301 C2302 1.523 . S
C2302 C2286 1.368 . S
C2302 C2298 1.368 . S
C2302 C2301 1.523 . S
H2303 C2278 0.950 . S
H2304 C2280 0.950 . S
H2305 C2281 0.949 . S
H2306 C2283 0.950 . S
H2307 C2285 0.950 . S
C2308 C2309 1.349 . S
C2308 C2310 1.327 . S
C2308 H2333 0.950 . S
C2309 C2308 1.349 . S
C2309 C2325 1.349 . S
C2310 C2308 1.327 . S
C2310 C2329 1.429 . S
C2310 H2334 0.950 . S
C2311 C2328 1.574 . S
C2311 C2330 1.368 . S
C2311 H2335 0.949 . S
H2312 C2316 0.949 . S
C2313 C2314 1.349 . S
C2313 C2315 1.327 . S
C2313 H2336 0.950 . S
C2314 C2313 1.349 . S
C2314 C2326 1.349 . S
C2315 C2313 1.327 . S
C2315 C2331 1.429 . S
C2315 H2337 0.950 . S
C2316 H2312 0.949 . S
C2316 C2324 1.574 . S
C2316 C2332 1.368 . S
H2317 C2325 0.950 . S
H2318 C2323 0.950 . S
H2319 C2324 0.949 . S
H2320 C2326 0.950 . S
H2321 C2327 0.950 . S
H2322 C2328 0.949 . S
C2323 H2318 0.950 . S
C2323 C2325 1.327 . S
C2323 C2329 1.429 . S
C2324 C2316 1.574 . S
C2324 H2319 0.949 . S
C2324 C2330 1.368 . S
C2325 C2309 1.349 . S
C2325 H2317 0.950 . S
C2325 C2323 1.327 . S
C2326 C2314 1.349 . S
C2326 H2320 0.950 . S
C2326 C2327 1.327 . S
C2327 H2321 0.950 . S
C2327 C2326 1.327 . S
C2327 C2331 1.429 . S
C2328 C2311 1.574 . S
C2328 H2322 0.949 . S
C2328 C2332 1.368 . S
C2329 C2310 1.429 . S
C2329 C2323 1.429 . S
C2329 C2330 1.523 . S
C2330 C2311 1.368 . S
C2330 C2324 1.368 . S
C2330 C2329 1.523 . S
C2331 C2315 1.429 . S
C2331 C2327 1.429 . S
C2331 C2332 1.523 . S
C2332 C2316 1.368 . S
C2332 C2328 1.368 . S
C2332 C2331 1.523 . S
H2333 C2308 0.950 . S
H2334 C2310 0.950 . S
H2335 C2311 0.949 . S
H2336 C2313 0.950 . S
H2337 C2315 0.950 . S
C2338 C2339 1.349 . S
C2338 C2340 1.327 . S
C2338 H2363 0.950 . S
C2339 C2338 1.349 . S
C2339 C2355 1.349 . S
C2340 C2338 1.327 . S
C2340 C2359 1.429 . S
C2340 H2364 0.950 . S
C2341 C2358 1.574 . S
C2341 C2360 1.368 . S
C2341 H2365 0.949 . S
H2342 C2346 0.949 . S
C2343 C2344 1.349 . S
C2343 C2345 1.327 . S
C2343 H2366 0.950 . S
C2344 C2343 1.349 . S
C2344 C2356 1.349 . S
C2345 C2343 1.327 . S
C2345 C2361 1.429 . S
C2345 H2367 0.950 . S
C2346 H2342 0.949 . S
C2346 C2354 1.574 . S
C2346 C2362 1.368 . S
H2347 C2355 0.950 . S
H2348 C2353 0.950 . S
H2349 C2354 0.949 . S
H2350 C2356 0.950 . S
H2351 C2357 0.950 . S
H2352 C2358 0.949 . S
C2353 H2348 0.950 . S
C2353 C2355 1.327 . S
C2353 C2359 1.429 . S
C2354 C2346 1.574 . S
C2354 H2349 0.949 . S
C2354 C2360 1.368 . S
C2355 C2339 1.349 . S
C2355 H2347 0.950 . S
C2355 C2353 1.327 . S
C2356 C2344 1.349 . S
C2356 H2350 0.950 . S
C2356 C2357 1.327 . S
C2357 H2351 0.950 . S
C2357 C2356 1.327 . S
C2357 C2361 1.429 . S
C2358 C2341 1.574 . S
C2358 H2352 0.949 . S
C2358 C2362 1.368 . S
C2359 C2340 1.429 . S
C2359 C2353 1.429 . S
C2359 C2360 1.523 . S
C2360 C2341 1.368 . S
C2360 C2354 1.368 . S
C2360 C2359 1.523 . S
C2361 C2345 1.429 . S
C2361 C2357 1.429 . S
C2361 C2362 1.523 . S
C2362 C2346 1.368 . S
C2362 C2358 1.368 . S
C2362 C2361 1.523 . S
H2363 C2338 0.950 . S
H2364 C2340 0.950 . S
H2365 C2341 0.949 . S
H2366 C2343 0.950 . S
H2367 C2345 0.950 . S
C449 C88 1.010 . S
C454 C4 1.010 . S
C479 C18 1.009 . S
C484 C102 1.009 . S
C509 C60 1.010 . S
C514 C32 1.010 . S
C539 C46 1.009 . S
C544 C74 1.009 . S
C569 C200 1.010 . S
C574 C116 1.010 . S
C599 C214 1.009 . S
C604 C130 1.009 . S
C629 C144 1.010 . S
C634 C172 1.010 . S
C659 C158 1.009 . S
C664 C186 1.009 . S
C689 C228 1.010 . S
C694 C312 1.010 . S
C719 C242 1.009 . S
C724 C326 1.009 . S
C749 C284 1.010 . S
C754 C256 1.010 . S
C779 C298 1.009 . S
C784 C270 1.009 . S
C809 C340 1.010 . S
C814 C424 1.010 . S
C839 C438 1.009 . S
C844 C354 1.009 . S
C869 C396 1.010 . S
C874 C368 1.010 . S
C899 C382 1.009 . S
C904 C410 1.009 . S
C929 C5 1.220 . S
C934 C432 1.373 . S
C959 C222 1.373 . S
C964 C19 1.220 . S
C989 C33 1.220 . S
C994 C404 1.373 . S
C1019 C47 1.220 . S
C1024 C194 1.373 . S
C1049 C376 1.373 . S
C1054 C61 1.220 . S
C1079 C166 1.373 . S
C1084 C75 1.220 . S
C1109 C89 1.220 . S
C1114 C348 1.373 . S
C1139 C138 1.373 . S
C1144 C103 1.220 . S
C1169 C117 1.220 . S
C1174 C320 1.373 . S
C1199 C110 1.373 . S
C1204 C131 1.220 . S
C1229 C145 1.220 . S
C1234 C292 1.373 . S
C1259 C159 1.220 . S
C1264 C82 1.373 . S
C1289 C264 1.373 . S
C1294 C173 1.220 . S
C1319 C187 1.220 . S
C1324 C54 1.373 . S
C1349 C201 1.220 . S
C1354 C236 1.373 . S
C1379 C26 1.373 . S
C1384 C215 1.220 . S
C1409 C229 1.220 . S
C1414 C208 1.373 . S
C1439 C243 1.220 . S
C1444 C446 1.373 . S
C1469 C180 1.373 . S
C1474 C257 1.220 . S
C1499 C271 1.220 . S
C1504 C418 1.373 . S
C1529 C152 1.373 . S
C1534 C285 1.220 . S
C1559 C390 1.373 . S
C1564 C299 1.220 . S
C1589 C124 1.373 . S
C1594 C313 1.220 . S
C1619 C362 1.373 . S
C1624 C327 1.220 . S
C1649 C341 1.220 . S
C1654 C96 1.373 . S
C1679 C334 1.373 . S
C1684 C355 1.220 . S
C1709 C68 1.373 . S
C1714 C369 1.220 . S
C1739 C383 1.220 . S
C1744 C306 1.373 . S
C1769 C397 1.220 . S
C1774 C40 1.373 . S
C1799 C411 1.220 . S
C1804 C278 1.373 . S
C1829 C12 1.373 . S
C1834 C425 1.220 . S
C1859 C439 1.220 . S
C1864 C250 1.373 . S
C1889 C11 1.070 . S
C1894 C305 1.070 . S
C1919 C319 1.070 . S
C1924 C25 1.070 . S
C1949 C39 1.071 . S
C1954 C333 1.071 . S
C1979 C291 1.070 . S
C1984 C53 1.070 . S
C2009 C277 1.071 . S
C2014 C67 1.071 . S
C2039 C235 1.070 . S
C2044 C81 1.070 . S
C2069 C249 1.071 . S
C2074 C95 1.071 . S
C2099 C263 1.071 . S
C2104 C109 1.071 . S
C2129 C123 1.070 . S
C2134 C417 1.070 . S
C2159 C431 1.070 . S
C2164 C137 1.070 . S
C2189 C445 1.071 . S
C2194 C151 1.071 . S
C2219 C403 1.070 . S
C2224 C165 1.070 . S
C2249 C389 1.071 . S
C2254 C179 1.071 . S
C2279 C347 1.070 . S
C2284 C193 1.070 . S
C2309 C207 1.071 . S
C2314 C361 1.071 . S
C2339 C221 1.071 . S
C2344 C375 1.071 . S
