# Generated by pormake.
# Topology uoj, (4)-cn, num edge types: 1
# Building blocks:
#     Node 0, Type 0, BuildingBlock: QUQFOY_clean_sbu_1, # of connection points: 4
#     Node 1, Type 0, BuildingBlock: QUQFOY_clean_sbu_1, # of connection points: 4
#     Node 2, Type 0, BuildingBlock: QUQFOY_clean_sbu_1, # of connection points: 4
#     Node 3, Type 0, BuildingBlock: QUQFOY_clean_sbu_1, # of connection points: 4
#     Node 4, Type 0, BuildingBlock: QUQFOY_clean_sbu_1, # of connection points: 4
#     Node 5, Type 0, BuildingBlock: QUQFOY_clean_sbu_1, # of connection points: 4
#     Node 6, Type 0, BuildingBlock: QUQFOY_clean_sbu_1, # of connection points: 4
#     Node 7, Type 0, BuildingBlock: QUQFOY_clean_sbu_1, # of connection points: 4
#     Edge 8, Type (0, 0), BuildingBlock: KIFKEQ_clean_linker_1, # of connection points: 2
#     Edge 9, Type (0, 0), BuildingBlock: KIFKEQ_clean_linker_1, # of connection points: 2
#     Edge 10, Type (0, 0), BuildingBlock: KIFKEQ_clean_linker_1, # of connection points: 2
#     Edge 11, Type (0, 0), BuildingBlock: KIFKEQ_clean_linker_1, # of connection points: 2
#     Edge 12, Type (0, 0), BuildingBlock: KIFKEQ_clean_linker_1, # of connection points: 2
#     Edge 13, Type (0, 0), BuildingBlock: KIFKEQ_clean_linker_1, # of connection points: 2
#     Edge 14, Type (0, 0), BuildingBlock: KIFKEQ_clean_linker_1, # of connection points: 2
#     Edge 15, Type (0, 0), BuildingBlock: KIFKEQ_clean_linker_1, # of connection points: 2
#     Edge 16, Type (0, 0), BuildingBlock: KIFKEQ_clean_linker_1, # of connection points: 2
#     Edge 17, Type (0, 0), BuildingBlock: KIFKEQ_clean_linker_1, # of connection points: 2
#     Edge 18, Type (0, 0), BuildingBlock: KIFKEQ_clean_linker_1, # of connection points: 2
#     Edge 19, Type (0, 0), BuildingBlock: KIFKEQ_clean_linker_1, # of connection points: 2
#     Edge 20, Type (0, 0), BuildingBlock: KIFKEQ_clean_linker_1, # of connection points: 2
#     Edge 21, Type (0, 0), BuildingBlock: KIFKEQ_clean_linker_1, # of connection points: 2
#     Edge 22, Type (0, 0), BuildingBlock: KIFKEQ_clean_linker_1, # of connection points: 2
#     Edge 23, Type (0, 0), BuildingBlock: KIFKEQ_clean_linker_1, # of connection points: 2
# Relax obj value: 0.060
# Max RMSD: 0.096
# Mean RMSD: 0.096
data_MOF--net-uoj--node1-QUQFOY_clean_sbu_1--edge1-KIFKEQ_clean_linker_1
_symmetry_space_group_name_H-M    P1
_symmetry_Int_Tables_number       1
_symmetry_cell_setting            triclinic
loop_
_symmetry_equiv_pos_as_xyz
'x, y, z'
_cell_length_a     33.361497
_cell_length_b     33.519293
_cell_length_c     41.181853
_cell_angle_alpha  89.996476
_cell_angle_beta   90.069345
_cell_angle_gamma 90.447671
loop_
_atom_site_label
_atom_site_type_symbol
_atom_site_fract_x
_atom_site_fract_y
_atom_site_fract_z
_atom_type_partial_charge
O0 O -0.00251 0.25796 0.49682 0.0
Cd1 Cd 0.05458 0.27876 0.49016 0.0
Cd2 Cd 0.03408 0.26418 0.43072 0.0
O3 O -0.00863 0.2256 0.45055 0.0
O4 O 0.08179 0.26843 0.53235 0.0
O5 O 0.09798 0.23863 0.48613 0.0
C6 C 0.10235 0.24175 0.51724 0.0
C7 C 0.08012 0.25375 0.38916 0.0
C8 C 0.97811 0.234 0.47872 0.0
C9 C 0.03615 0.34904 0.45357 0.0
O10 O 0.02035 0.32365 0.43442 0.0
O11 O 0.0581 0.33754 0.47696 0.0
O12 O 0.0421 0.25504 0.38325 0.0
O13 O 0.09153 0.25402 0.41918 0.0
O14 O 0.23422 0.97666 0.59978 0.0
Cd15 Cd 0.26253 0.92311 0.60448 0.0
Cd16 Cd 0.25785 0.94477 0.66645 0.0
O17 O 0.21814 -0.01191 0.65087 0.0
O18 O 0.25169 0.89708 0.5619 0.0
O19 O 0.2272 0.87495 0.60857 0.0
C20 C 0.22833 0.87273 0.57724 0.0
C21 C 0.24905 0.89827 0.70798 0.0
C22 C 0.21634 -0.00254 0.62095 0.0
C23 C 0.33905 0.94463 0.63529 0.0
O24 O 0.31717 0.95748 0.65818 0.0
O25 O 0.32357 0.92533 0.61177 0.0
O26 O 0.25355 0.9358 0.71422 0.0
O27 O 0.2459 0.88761 0.67789 0.0
O28 O 0.97268 0.72087 0.48601 0.0
Cd29 Cd 0.91516 0.70094 0.4798 0.0
Cd30 Cd 0.93656 0.71246 0.42031 0.0
O31 O 0.97958 0.75153 0.43907 0.0
O32 O 0.88993 0.71113 0.52272 0.0
O33 O 0.87163 0.74136 0.47723 0.0
C34 C 0.8687 0.73794 0.50842 0.0
C35 C 0.89094 0.7216 0.37819 0.0
C36 C -0.00742 0.74381 0.46746 0.0
C37 C 0.93321 0.62882 0.44576 0.0
O38 O 0.94978 0.65304 0.42607 0.0
O39 O 0.91073 0.64176 0.46824 0.0
O40 O 0.92897 0.71954 0.37261 0.0
O41 O 0.87926 0.72273 0.40811 0.0
O42 O 0.73522 -0.00283 0.60139 0.0
Cd43 Cd 0.70633 0.05 0.60836 0.0
Cd44 Cd 0.71127 0.02466 0.66906 0.0
O45 O 0.75215 0.98332 0.65192 0.0
O46 O 0.71711 0.07899 0.56707 0.0
O47 O 0.74141 0.09794 0.61477 0.0
C48 C 0.74044 0.10224 0.58358 0.0
C49 C 0.71881 0.07008 0.71153 0.0
C50 C 0.75381 0.97563 0.62168 0.0
C51 C 0.63021 0.02497 0.63779 0.0
O52 O 0.65235 0.01078 0.66003 0.0
O53 O 0.64531 0.0465 0.61544 0.0
O54 O 0.7155 0.03225 0.71703 0.0
O55 O 0.72148 0.08173 0.68166 0.0
O56 O 0.46144 0.72805 0.99031 0.0
Cd57 Cd 0.41054 0.76145 0.98748 0.0
Cd58 Cd 0.42953 0.75587 0.92477 0.0
O59 O 0.46965 0.7122 0.93877 0.0
O60 O 0.38679 0.75345 1.03132 0.0
O61 O 0.35848 0.73155 0.98598 0.0
C62 C 0.35889 0.73286 1.01736 0.0
C63 C 0.38174 0.75243 0.88349 0.0
C64 C 0.47988 0.70892 0.96842 0.0
C65 C 0.4388 0.83562 0.95701 0.0
O66 O 0.44852 0.81318 0.9335 0.0
O67 O 0.4187 0.82175 0.98073 0.0
O68 O 0.4196 0.75344 0.87706 0.0
O69 O 0.37108 0.7498 0.91361 0.0
O70 O 0.75627 0.49416 0.09062 0.0
Cd71 Cd 0.77383 0.55246 0.09121 0.0
Cd72 Cd 0.77161 0.53784 0.15379 0.0
O73 O 0.73528 0.48923 0.14118 0.0
O74 O 0.75527 0.57338 0.04868 0.0
O75 O 0.73221 0.5945 0.0961 0.0
C76 C 0.73027 0.59494 0.06473 0.0
C77 C 0.76221 0.58178 0.19713 0.0
C78 C 0.73895 0.47441 0.11287 0.0
C79 C 0.85176 0.54355 0.11947 0.0
O80 O 0.83164 0.53078 0.14358 0.0
O81 O 0.83436 0.55951 0.09537 0.0
O82 O 0.77029 0.54467 0.20193 0.0
O83 O 0.75588 0.59326 0.1676 0.0
O84 O 0.50897 0.21227 1.00268 0.0
Cd85 Cd 0.56498 0.18939 0.99654 0.0
Cd86 Cd 0.54491 0.20048 0.93633 0.0
O87 O 0.50415 0.24135 0.95492 0.0
O88 O 0.59413 0.20203 1.03751 0.0
O89 O 0.60931 0.22845 0.98963 0.0
C90 C 0.61489 0.2273 1.0207 0.0
C91 C 0.58976 0.20825 0.89332 0.0
C92 C 0.49079 0.23563 0.98353 0.0
C93 C 0.5443 0.11708 0.96281 0.0
O94 O 0.52939 0.14145 0.94255 0.0
O95 O 0.56642 0.12977 0.98579 0.0
O96 O 0.55154 0.20673 0.88837 0.0
O97 O 0.60223 0.20942 0.92304 0.0
O98 O 0.2215 0.47543 0.09964 0.0
Cd99 Cd 0.20474 0.41689 0.10085 0.0
Cd100 Cd 0.20339 0.43284 0.16315 0.0
O101 O 0.23959 0.48166 0.15093 0.0
O102 O 0.22567 0.39314 0.06007 0.0
O103 O 0.24642 0.37582 0.10925 0.0
C104 C 0.24972 0.37275 0.07805 0.0
C105 C 0.21131 0.39012 0.20752 0.0
C106 C 0.2372 0.49584 0.12231 0.0
C107 C 0.12522 0.42548 0.12621 0.0
O108 O 0.14383 0.43901 0.15086 0.0
O109 O 0.14413 0.4092 0.10307 0.0
O110 O 0.20257 0.42723 0.21141 0.0
O111 O 0.21906 0.37796 0.17842 0.0
H112 H 0.19818 0.3095 0.20461 0.0
H113 H 0.21183 0.40706 0.27228 0.0
H114 H 0.17489 0.26632 0.24881 0.0
H115 H 0.18903 0.36395 0.31632 0.0
H116 H 0.06714 0.24513 0.32395 0.0
H117 H 0.10952 0.27037 0.2802 0.0
H118 H 0.20113 0.30194 0.34989 0.0
H119 H 0.15885 0.27641 0.39376 0.0
C120 C 0.19745 0.32138 0.22906 0.0
C121 C 0.20662 0.36178 0.23493 0.0
C122 C 0.18383 0.29672 0.25431 0.0
C123 C 0.17987 0.31177 0.28601 0.0
C124 C 0.19204 0.3513 0.29225 0.0
C125 C 0.20499 0.37609 0.26697 0.0
C126 C 0.09682 0.25628 0.32987 0.0
C127 C 0.10942 0.25906 0.36239 0.0
C128 C 0.12119 0.27067 0.30475 0.0
C129 C 0.1585 0.28858 0.31163 0.0
C130 C 0.17236 0.28865 0.34389 0.0
C131 C 0.14821 0.27375 0.36898 0.0
H132 H 0.26345 0.81828 0.70194 0.0
H133 H 0.24664 0.91086 0.77346 0.0
H134 H 0.28655 0.77313 0.74455 0.0
H135 H 0.26969 0.86588 0.81588 0.0
H136 H 0.3036 0.77558 0.89 0.0
H137 H 0.26058 0.80314 0.84755 0.0
H138 H 0.35045 0.77574 0.77575 0.0
H139 H 0.39328 0.74828 0.81799 0.0
C140 C 0.26355 0.82866 0.72685 0.0
C141 C 0.25358 0.86832 0.73426 0.0
C142 C 0.27706 0.80285 0.75123 0.0
C143 C 0.28039 0.81601 0.78357 0.0
C144 C 0.26727 0.85463 0.79129 0.0
C145 C 0.25419 0.88053 0.76691 0.0
C146 C 0.31366 0.77437 0.86503 0.0
C147 C 0.35204 0.76008 0.85741 0.0
C148 C 0.28911 0.79044 0.84074 0.0
C149 C 0.30223 0.79203 0.80831 0.0
C150 C 0.33925 0.77476 0.80041 0.0
C151 C 0.36393 0.75914 0.82469 0.0
H152 H 0.8121 0.69917 0.38243 0.0
H153 H 0.90458 0.72886 0.31303 0.0
H154 H 0.77016 0.67295 0.33851 0.0
H155 H 0.8626 0.70292 0.26924 0.0
H156 H 0.75975 0.56648 0.26214 0.0
H157 H 0.78182 0.61047 0.30586 0.0
H158 H 0.79813 0.70639 0.23706 0.0
H159 H 0.77565 0.6623 0.19317 0.0
C160 C 0.82298 0.70133 0.35771 0.0
C161 C 0.86186 0.71579 0.35127 0.0
C162 C 0.79903 0.68603 0.33259 0.0
C163 C 0.81321 0.68545 0.30044 0.0
C164 C 0.85066 0.70311 0.29369 0.0
C165 C 0.87481 0.71789 0.31883 0.0
C166 C 0.7669 0.59727 0.25645 0.0
C167 C 0.76618 0.6108 0.22415 0.0
C168 C 0.77943 0.62258 0.28155 0.0
C169 C 0.79205 0.66186 0.2749 0.0
C170 C 0.78886 0.67619 0.2429 0.0
C171 C 0.77572 0.651 0.21781 0.0
H172 H 0.57404 0.21302 0.82828 0.0
H173 H 0.66897 0.18789 0.89651 0.0
H174 H 0.61518 0.18747 0.78419 0.0
H175 H 0.71015 0.16219 0.85227 0.0
H176 H 0.70099 0.14949 0.70708 0.0
H177 H 0.67785 0.19287 0.75087 0.0
H178 H 0.70044 0.09924 0.82036 0.0
H179 H 0.72338 0.05595 0.77675 0.0
C180 C 0.60413 0.20309 0.83375 0.0
C181 C 0.61804 0.20218 0.86598 0.0
C182 C 0.62781 0.18854 0.80842 0.0
C183 C 0.6658 0.17236 0.81476 0.0
C184 C 0.68083 0.17405 0.84666 0.0
C185 C 0.65731 0.18906 0.87197 0.0
C186 C 0.70207 0.13855 0.73182 0.0
C187 C 0.71373 0.09912 0.73839 0.0
C188 C 0.68855 0.16334 0.75686 0.0
C189 C 0.68696 0.14941 0.78906 0.0
C190 C 0.70154 0.11104 0.79589 0.0
C191 C 0.71455 0.08612 0.77084 0.0
H192 H 0.20738 0.06839 0.65342 0.0
H193 H 0.18032 0.00877 0.56301 0.0
H194 H 0.18414 0.13154 0.63021 0.0
H195 H 0.15599 0.07081 0.54031 0.0
H196 H 0.15633 0.1888 0.49314 0.0
H197 H 0.18458 0.13158 0.52111 0.0
H198 H 0.12716 0.16831 0.61014 0.0
H199 H 0.1002 0.22649 0.58237 0.0
C200 C 0.19558 0.06865 0.62891 0.0
C201 C 0.19589 0.03387 0.6099 0.0
C202 C 0.18245 0.10477 0.61554 0.0
C203 C 0.16916 0.10647 0.58309 0.0
C204 C 0.16737 0.07098 0.56495 0.0
C205 C 0.18083 0.03526 0.5781 0.0
C206 C 0.15045 0.18513 0.51884 0.0
C207 C 0.12574 0.21192 0.53545 0.0
C208 C 0.16625 0.15208 0.53483 0.0
C209 C 0.15721 0.14473 0.56769 0.0
C210 C 0.13469 0.173 0.58485 0.0
C211 C 0.11924 0.20638 0.5689 0.0
H212 H 0.22091 0.86454 0.51138 0.0
H213 H 0.17043 0.82382 0.60222 0.0
H214 H 0.16718 0.83049 0.48183 0.0
H215 H 0.11642 0.79081 0.57289 0.0
H216 H 0.03913 0.71089 0.51379 0.0
H217 H 0.10039 0.73706 0.53745 0.0
H218 H 0.09543 0.83854 0.47285 0.0
H219 H 0.03412 0.81123 0.44813 0.0
C220 C 0.1987 0.84785 0.52503 0.0
C221 C 0.19993 0.84688 0.55918 0.0
C222 C 0.16767 0.82872 0.50808 0.0
C223 C 0.1373 0.80817 0.52494 0.0
C224 C 0.13955 0.80593 0.55904 0.0
C225 C 0.17054 0.82494 0.57593 0.0
C226 C 0.05112 0.73874 0.50444 0.0
C227 C 0.03145 0.75939 0.47942 0.0
C228 C 0.08626 0.7538 0.51813 0.0
C229 C 0.10251 0.79023 0.50749 0.0
C230 C 0.08379 0.81024 0.4815 0.0
C231 C 0.04861 0.79479 0.46744 0.0
H232 H 0.78985 0.96853 0.56337 0.0
H233 H 0.76407 0.90297 0.65121 0.0
H234 H 0.81497 0.90834 0.53809 0.0
H235 H 0.78806 0.8417 0.62539 0.0
H236 H 0.87175 0.7502 0.57394 0.0
H237 H 0.84509 0.80682 0.60383 0.0
H238 H 0.78725 0.84854 0.51635 0.0
H239 H 0.81522 0.79284 0.48625 0.0
C240 C 0.78982 0.94113 0.57734 0.0
C241 C 0.77489 0.94032 0.60918 0.0
C242 C 0.80373 0.90647 0.56271 0.0
C243 C 0.8025 0.86988 0.57935 0.0
C244 C 0.78934 0.86938 0.61185 0.0
C245 C 0.77579 0.90442 0.62672 0.0
C246 C 0.85275 0.77111 0.56122 0.0
C247 C 0.84595 0.76733 0.52763 0.0
C248 C 0.83745 0.80358 0.5784 0.0
C249 C 0.81478 0.83276 0.56237 0.0
C250 C 0.80566 0.8273 0.52926 0.0
C251 C 0.8213 0.79512 0.51203 0.0
H252 H 0.74806 0.11501 0.51824 0.0
H253 H 0.79903 0.14841 0.61094 0.0
H254 H 0.80267 0.14975 0.49046 0.0
H255 H 0.85394 0.18208 0.58333 0.0
H256 H 0.93314 0.26415 0.52739 0.0
H257 H 0.87175 0.23754 0.55031 0.0
H258 H 0.87412 0.14029 0.48145 0.0
H259 H 0.93559 0.16802 0.45753 0.0
C260 C 0.77057 0.13027 0.5327 0.0
C261 C 0.76922 0.12894 0.56683 0.0
C262 C 0.8021 0.14977 0.51675 0.0
C263 C 0.83291 0.16838 0.53461 0.0
C264 C 0.83052 0.16846 0.56874 0.0
C265 C 0.799 0.14909 0.58465 0.0
C266 C 0.92063 0.23711 0.51697 0.0
C267 C 0.93958 0.21783 0.49089 0.0
C268 C 0.88538 0.2218 0.53024 0.0
C269 C 0.86824 0.18649 0.51808 0.0
C270 C 0.8864 0.16776 0.49126 0.0
C271 C 0.92171 0.18343 0.47766 0.0
H272 H 0.30507 0.53661 0.14163 0.0
H273 H 0.19639 0.54773 0.08557 0.0
H274 H 0.32892 0.6007 0.11986 0.0
H275 H 0.21898 0.61201 0.06504 0.0
H276 H 0.30163 0.68116 0.99519 0.0
H277 H 0.26819 0.62881 1.02576 0.0
H278 H 0.32237 0.67263 0.11437 0.0
H279 H 0.35678 0.72472 0.08346 0.0
C280 C 0.28592 0.55332 0.1254 0.0
C281 C 0.24935 0.53711 0.11476 0.0
C282 C 0.29939 0.59004 0.11299 0.0
C283 C 0.27613 0.61115 0.09018 0.0
C284 C 0.23814 0.59608 0.08179 0.0
C285 C 0.22512 0.55936 0.09367 0.0
C286 C 0.30575 0.68025 1.02128 0.0
C287 C 0.33208 0.70693 1.03681 0.0
C288 C 0.28645 0.65022 1.03892 0.0
C289 C 0.29282 0.64627 0.07258 0.0
C290 C 0.31733 0.67445 0.08843 0.0
C291 C 0.33672 0.70453 0.07073 0.0
H292 H 0.70959 0.58926 1.00069 0.0
H293 H 0.67601 0.64659 0.09049 0.0
H294 H 0.64891 0.61406 0.97489 0.0
H295 H 0.61612 0.67256 0.06443 0.0
H296 H 0.49149 0.67122 1.02561 0.0
H297 H 0.55384 0.6447 0.04675 0.0
H298 H 0.61227 0.67116 0.95552 0.0
H299 H 0.54893 0.69658 0.93395 0.0
C300 C 0.68969 0.6079 1.01473 0.0
C301 C 0.6974 0.61568 0.04774 0.0
C302 C 0.6549 0.62214 0.9999 0.0
C303 C 0.62721 0.64463 1.01773 0.0
C304 C 0.63621 0.65432 0.05022 0.0
C305 C 0.67078 0.63983 0.06511 0.0
C306 C 0.51749 0.6707 1.00987 0.0
C307 C 0.51549 0.68608 0.97821 0.0
C308 C 0.55338 0.65599 1.02211 0.0
C309 C 0.58838 0.65683 1.00317 0.0
C310 C 0.58588 0.67015 0.97079 0.0
C311 C 0.54962 0.68452 0.95835 0.0
H312 H 0.67492 0.43185 0.13787 0.0
H313 H 0.77341 0.42446 0.07026 0.0
H314 H 0.64945 0.36726 0.11816 0.0
H315 H 0.74917 0.36008 0.05156 0.0
H316 H 0.66074 0.28492 0.99212 0.0
H317 H 0.69363 0.34116 1.01826 0.0
H318 H 0.65975 0.295 0.11238 0.0
H319 H 0.62582 0.23878 0.086 0.0
C320 C 0.69146 0.41606 0.11933 0.0
C321 C 0.72557 0.43344 0.1051 0.0
C322 C 0.67707 0.37908 0.10811 0.0
C323 C 0.69693 0.35888 0.08283 0.0
C324 C 0.73253 0.37529 0.07037 0.0
C325 C 0.74646 0.41218 0.08118 0.0
C326 C 0.66086 0.2863 1.0184 0.0
C327 C 0.6406 0.25741 1.03694 0.0
C328 C 0.67985 0.31856 1.03347 0.0
C329 C 0.67923 0.32267 0.06748 0.0
C330 C 0.66032 0.29294 0.08614 0.0
C331 C 0.64126 0.26055 0.07101 0.0
H332 H 0.44596 0.21308 1.03521 0.0
H333 H 0.45084 0.30019 0.95792 0.0
H334 H 0.38591 0.24359 0.05627 0.0
H335 H 0.39075 0.33199 0.97993 0.0
H336 H 0.26246 0.35803 1.01354 0.0
H337 H 0.31927 0.32392 0.98902 0.0
H338 H 0.36827 0.30239 0.08459 0.0
H339 H 0.31108 0.33523 0.109 0.0
C340 C 0.43435 0.23904 1.02279 0.0
C341 C 0.45347 0.2545 0.99505 0.0
C342 C 0.3999 0.25666 1.03502 0.0
C343 C 0.38375 0.29059 1.02012 0.0
C344 C 0.40228 0.30569 0.99188 0.0
C345 C 0.43678 0.28767 0.97936 0.0
C346 C 0.28516 0.34555 1.0293 0.0
C347 C 0.28217 0.34914 0.06324 0.0
C348 C 0.31791 0.32637 1.01521 0.0
C349 C 0.34841 0.31047 1.03478 0.0
C350 C 0.34504 0.31369 0.06875 0.0
C351 C 0.31225 0.33262 0.0828 0.0
H352 H 0.97109 0.59002 0.39667 0.0
H353 H 0.92146 0.57219 0.4926 0.0
H354 H -0.00189 0.52274 0.39772 0.0
H355 H 0.94838 0.50465 0.49343 0.0
H356 H 0.04524 0.40846 0.4985 0.0
H357 H 0.01847 0.47601 0.49543 0.0
H358 H 0.97414 0.45192 0.39877 0.0
H359 H 0.00101 0.38468 0.40161 0.0
C360 C 0.96549 0.57155 0.41779 0.0
C361 C 0.94429 0.5864 0.44461 0.0
C362 C 0.98095 0.53306 0.41836 0.0
C363 C 0.97573 0.50883 0.44582 0.0
C364 C 0.95337 0.5231 0.47219 0.0
C365 C 0.93759 0.56152 0.47154 0.0
C366 C 0.03033 0.41781 0.47643 0.0
C367 C 0.02507 0.39129 0.45035 0.0
C368 C 0.01464 0.45624 0.47483 0.0
C369 C -0.00615 0.46885 0.44702 0.0
C370 C -0.00992 0.44291 0.42046 0.0
C371 C 0.00544 0.40444 0.42214 0.0
H372 H 0.58816 -0.0141 0.68477 0.0
H373 H 0.57511 0.0395 0.58983 0.0
H374 H 0.51835 0.96487 0.6834 0.0
H375 H 0.50468 0.01869 0.58876 0.0
H376 H 0.39358 0.93482 0.5862 0.0
H377 H 0.46427 0.9548 0.58639 0.0
H378 H 0.45221 -0.00297 0.68496 0.0
H379 H 0.38214 0.97681 0.68504 0.0
C380 C 0.57034 -0.00656 0.66366 0.0
C381 C 0.58717 0.01445 0.63741 0.0
C382 C 0.5303 0.98145 0.66296 0.0
C383 C 0.50617 -0.00989 0.63597 0.0
C384 C 0.52281 0.01126 0.60972 0.0
C385 C 0.56296 0.02348 0.61048 0.0
C386 C 0.40616 0.94807 0.60797 0.0
C387 C 0.3823 0.9542 0.6356 0.0
C388 C 0.44646 0.95981 0.60796 0.0
C389 C 0.4636 0.97754 0.63566 0.0
C390 C 0.43987 0.98311 0.66337 0.0
C391 C 0.39968 0.97162 0.66334 0.0
H392 H 0.50549 0.07969 0.91317 0.0
H393 H 0.55623 0.05872 1.00828 0.0
H394 H 0.47979 0.01167 0.91197 0.0
H395 H 0.53077 -0.00986 1.00678 0.0
H396 H 0.43492 0.88953 1.00688 0.0
H397 H 0.46296 0.95709 1.00799 0.0
H398 H 0.50452 0.94271 0.90941 0.0
H399 H 0.47621 0.8757 0.90802 0.0
C400 C 0.51156 0.06042 0.93368 0.0
C401 C 0.53279 0.0746 0.96088 0.0
C402 C 0.49692 0.02142 0.93292 0.0
C403 C 0.50309 -0.00422 0.95936 0.0
C404 C 0.52515 0.00954 0.98626 0.0
C405 C 0.54003 0.04861 0.98697 0.0
C406 C 0.44976 0.90093 0.98538 0.0
C407 C 0.45328 0.87731 0.95736 0.0
C408 C 0.46615 0.9394 0.98615 0.0
C409 C 0.48607 0.95496 0.95885 0.0
C410 C 0.48907 0.93155 0.93072 0.0
C411 C 0.4729 0.89313 0.92999 0.0
H412 H 0.08907 0.45234 0.07169 0.0
H413 H 0.06732 0.42403 0.17234 0.0
H414 H 0.0244 0.48504 0.06835 0.0
H415 H 0.00113 0.45372 0.16865 0.0
H416 H 0.90674 0.54589 0.16793 0.0
H417 H 0.97295 0.51593 0.16754 0.0
H418 H 0.95574 0.48221 0.06693 0.0
H419 H 0.89104 0.51515 0.06699 0.0
C420 C 0.06961 0.4518 0.09274 0.0
C421 C 0.08289 0.43575 0.12226 0.0
C422 C 0.03252 0.47065 0.09092 0.0
C423 C 0.00763 0.47289 0.11843 0.0
C424 C 0.02 0.45403 0.14729 0.0
C425 C 0.05756 0.43629 0.14933 0.0
C426 C 0.91784 0.53302 0.14557 0.0
C427 C 0.8942 0.53297 0.11746 0.0
C428 C 0.95541 0.51512 0.14542 0.0
C429 C 0.96946 0.49554 0.11744 0.0
C430 C 0.94628 0.49715 0.08888 0.0
C431 C 0.90919 0.51614 0.08882 0.0
loop_
_geom_bond_atom_site_label_1
_geom_bond_atom_site_label_2
_geom_bond_distance
_geom_bond_site_symmetry_2
_ccdc_geom_bond_type
O0 Cd1 2.223 . S
O0 C8 1.315 . S
Cd1 O0 2.223 . S
Cd1 O4 2.297 . S
Cd1 O5 2.439 . S
Cd1 O11 2.240 . S
Cd2 O3 2.240 . S
Cd2 O10 2.223 . S
Cd2 O12 2.297 . S
Cd2 O13 2.439 . S
O3 Cd2 2.240 . S
O3 C8 1.279 . S
O4 Cd1 2.297 . S
O4 C6 1.247 . S
O5 Cd1 2.439 . S
O5 C6 1.208 . S
C6 O4 1.247 . S
C6 O5 1.208 . S
C7 O12 1.247 . S
C7 O13 1.208 . S
C8 O0 1.315 . S
C8 O3 1.279 . S
C9 O10 1.315 . S
C9 O11 1.279 . S
O10 Cd2 2.223 . S
O10 C9 1.315 . S
O11 Cd1 2.240 . S
O11 C9 1.279 . S
O12 Cd2 2.297 . S
O12 C7 1.247 . S
O13 Cd2 2.439 . S
O13 C7 1.208 . S
O14 Cd15 2.223 . S
O14 C22 1.315 . S
Cd15 O14 2.223 . S
Cd15 O18 2.297 . S
Cd15 O19 2.439 . S
Cd15 O25 2.240 . S
Cd16 O17 2.240 . S
Cd16 O24 2.223 . S
Cd16 O26 2.297 . S
Cd16 O27 2.439 . S
O17 Cd16 2.240 . S
O17 C22 1.279 . S
O18 Cd15 2.297 . S
O18 C20 1.247 . S
O19 Cd15 2.439 . S
O19 C20 1.208 . S
C20 O18 1.247 . S
C20 O19 1.208 . S
C21 O26 1.247 . S
C21 O27 1.208 . S
C22 O14 1.315 . S
C22 O17 1.279 . S
C23 O24 1.315 . S
C23 O25 1.279 . S
O24 Cd16 2.223 . S
O24 C23 1.315 . S
O25 Cd15 2.240 . S
O25 C23 1.279 . S
O26 Cd16 2.297 . S
O26 C21 1.247 . S
O27 Cd16 2.439 . S
O27 C21 1.208 . S
O28 Cd29 2.223 . S
O28 C36 1.315 . S
Cd29 O28 2.223 . S
Cd29 O32 2.297 . S
Cd29 O33 2.439 . S
Cd29 O39 2.240 . S
Cd30 O31 2.240 . S
Cd30 O38 2.223 . S
Cd30 O40 2.297 . S
Cd30 O41 2.439 . S
O31 Cd30 2.240 . S
O31 C36 1.279 . S
O32 Cd29 2.297 . S
O32 C34 1.247 . S
O33 Cd29 2.439 . S
O33 C34 1.208 . S
C34 O32 1.247 . S
C34 O33 1.208 . S
C35 O40 1.247 . S
C35 O41 1.208 . S
C36 O28 1.315 . S
C36 O31 1.279 . S
C37 O38 1.315 . S
C37 O39 1.279 . S
O38 Cd30 2.223 . S
O38 C37 1.315 . S
O39 Cd29 2.240 . S
O39 C37 1.279 . S
O40 Cd30 2.297 . S
O40 C35 1.247 . S
O41 Cd30 2.439 . S
O41 C35 1.208 . S
O42 Cd43 2.223 . S
O42 C50 1.315 . S
Cd43 O42 2.223 . S
Cd43 O46 2.297 . S
Cd43 O47 2.439 . S
Cd43 O53 2.240 . S
Cd44 O45 2.240 . S
Cd44 O52 2.223 . S
Cd44 O54 2.297 . S
Cd44 O55 2.439 . S
O45 Cd44 2.240 . S
O45 C50 1.279 . S
O46 Cd43 2.297 . S
O46 C48 1.247 . S
O47 Cd43 2.439 . S
O47 C48 1.208 . S
C48 O46 1.247 . S
C48 O47 1.208 . S
C49 O54 1.247 . S
C49 O55 1.208 . S
C50 O42 1.315 . S
C50 O45 1.279 . S
C51 O52 1.315 . S
C51 O53 1.279 . S
O52 Cd44 2.223 . S
O52 C51 1.315 . S
O53 Cd43 2.240 . S
O53 C51 1.279 . S
O54 Cd44 2.297 . S
O54 C49 1.247 . S
O55 Cd44 2.439 . S
O55 C49 1.208 . S
O56 Cd57 2.223 . S
O56 C64 1.315 . S
Cd57 O56 2.223 . S
Cd57 O60 2.297 . S
Cd57 O61 2.439 . S
Cd57 O67 2.240 . S
Cd58 O59 2.240 . S
Cd58 O66 2.223 . S
Cd58 O68 2.297 . S
Cd58 O69 2.439 . S
O59 Cd58 2.240 . S
O59 C64 1.279 . S
O60 Cd57 2.297 . S
O60 C62 1.247 . S
O61 Cd57 2.439 . S
O61 C62 1.208 . S
C62 O60 1.247 . S
C62 O61 1.208 . S
C63 O68 1.247 . S
C63 O69 1.208 . S
C64 O56 1.315 . S
C64 O59 1.279 . S
C65 O66 1.315 . S
C65 O67 1.279 . S
O66 Cd58 2.223 . S
O66 C65 1.315 . S
O67 Cd57 2.240 . S
O67 C65 1.279 . S
O68 Cd58 2.297 . S
O68 C63 1.247 . S
O69 Cd58 2.439 . S
O69 C63 1.208 . S
O70 Cd71 2.223 . S
O70 C78 1.315 . S
Cd71 O70 2.223 . S
Cd71 O74 2.297 . S
Cd71 O75 2.439 . S
Cd71 O81 2.240 . S
Cd72 O73 2.240 . S
Cd72 O80 2.223 . S
Cd72 O82 2.297 . S
Cd72 O83 2.439 . S
O73 Cd72 2.240 . S
O73 C78 1.279 . S
O74 Cd71 2.297 . S
O74 C76 1.247 . S
O75 Cd71 2.439 . S
O75 C76 1.208 . S
C76 O74 1.247 . S
C76 O75 1.208 . S
C77 O82 1.247 . S
C77 O83 1.208 . S
C78 O70 1.315 . S
C78 O73 1.279 . S
C79 O80 1.315 . S
C79 O81 1.279 . S
O80 Cd72 2.223 . S
O80 C79 1.315 . S
O81 Cd71 2.240 . S
O81 C79 1.279 . S
O82 Cd72 2.297 . S
O82 C77 1.247 . S
O83 Cd72 2.439 . S
O83 C77 1.208 . S
O84 Cd85 2.223 . S
O84 C92 1.315 . S
Cd85 O84 2.223 . S
Cd85 O88 2.297 . S
Cd85 O89 2.439 . S
Cd85 O95 2.240 . S
Cd86 O87 2.240 . S
Cd86 O94 2.223 . S
Cd86 O96 2.297 . S
Cd86 O97 2.439 . S
O87 Cd86 2.240 . S
O87 C92 1.279 . S
O88 Cd85 2.297 . S
O88 C90 1.247 . S
O89 Cd85 2.439 . S
O89 C90 1.208 . S
C90 O88 1.247 . S
C90 O89 1.208 . S
C91 O96 1.247 . S
C91 O97 1.208 . S
C92 O84 1.315 . S
C92 O87 1.279 . S
C93 O94 1.315 . S
C93 O95 1.279 . S
O94 Cd86 2.223 . S
O94 C93 1.315 . S
O95 Cd85 2.240 . S
O95 C93 1.279 . S
O96 Cd86 2.297 . S
O96 C91 1.247 . S
O97 Cd86 2.439 . S
O97 C91 1.208 . S
O98 Cd99 2.223 . S
O98 C106 1.315 . S
Cd99 O98 2.223 . S
Cd99 O102 2.297 . S
Cd99 O103 2.439 . S
Cd99 O109 2.240 . S
Cd100 O101 2.240 . S
Cd100 O108 2.223 . S
Cd100 O110 2.297 . S
Cd100 O111 2.439 . S
O101 Cd100 2.240 . S
O101 C106 1.279 . S
O102 Cd99 2.297 . S
O102 C104 1.247 . S
O103 Cd99 2.439 . S
O103 C104 1.208 . S
C104 O102 1.247 . S
C104 O103 1.208 . S
C105 O110 1.247 . S
C105 O111 1.208 . S
C106 O98 1.315 . S
C106 O101 1.279 . S
C107 O108 1.315 . S
C107 O109 1.279 . S
O108 Cd100 2.223 . S
O108 C107 1.315 . S
O109 Cd99 2.240 . S
O109 C107 1.279 . S
O110 Cd100 2.297 . S
O110 C105 1.247 . S
O111 Cd100 2.439 . S
O111 C105 1.208 . S
H112 C120 0.950 . S
H113 C125 0.950 . S
H114 C122 0.950 . S
H115 C124 0.950 . S
H116 C126 0.950 . S
H117 C128 0.950 . S
H118 C130 0.950 . S
H119 C131 0.950 . S
C120 H112 0.950 . S
C120 C121 1.386 . S
C120 C122 1.391 . S
C121 C120 1.386 . S
C121 C125 1.393 . S
C122 H114 0.950 . S
C122 C120 1.391 . S
C122 C123 1.400 . S
C123 C122 1.400 . S
C123 C124 1.398 . S
C123 C129 1.491 . S
C124 H115 0.950 . S
C124 C123 1.398 . S
C124 C125 1.391 . S
C125 H113 0.950 . S
C125 C121 1.393 . S
C125 C124 1.391 . S
C126 H116 0.950 . S
C126 C127 1.386 . S
C126 C128 1.391 . S
C127 C126 1.386 . S
C127 C131 1.393 . S
C128 H117 0.950 . S
C128 C126 1.391 . S
C128 C129 1.400 . S
C129 C123 1.491 . S
C129 C128 1.400 . S
C129 C130 1.398 . S
C130 H118 0.950 . S
C130 C129 1.398 . S
C130 C131 1.391 . S
C131 H119 0.950 . S
C131 C127 1.393 . S
C131 C130 1.391 . S
H132 C140 0.950 . S
H133 C145 0.950 . S
H134 C142 0.950 . S
H135 C144 0.950 . S
H136 C146 0.950 . S
H137 C148 0.950 . S
H138 C150 0.950 . S
H139 C151 0.950 . S
C140 H132 0.950 . S
C140 C141 1.386 . S
C140 C142 1.391 . S
C141 C140 1.386 . S
C141 C145 1.393 . S
C142 H134 0.950 . S
C142 C140 1.391 . S
C142 C143 1.400 . S
C143 C142 1.400 . S
C143 C144 1.398 . S
C143 C149 1.491 . S
C144 H135 0.950 . S
C144 C143 1.398 . S
C144 C145 1.391 . S
C145 H133 0.950 . S
C145 C141 1.393 . S
C145 C144 1.391 . S
C146 H136 0.950 . S
C146 C147 1.386 . S
C146 C148 1.391 . S
C147 C146 1.386 . S
C147 C151 1.393 . S
C148 H137 0.950 . S
C148 C146 1.391 . S
C148 C149 1.400 . S
C149 C143 1.491 . S
C149 C148 1.400 . S
C149 C150 1.398 . S
C150 H138 0.950 . S
C150 C149 1.398 . S
C150 C151 1.391 . S
C151 H139 0.950 . S
C151 C147 1.393 . S
C151 C150 1.391 . S
H152 C160 0.950 . S
H153 C165 0.950 . S
H154 C162 0.950 . S
H155 C164 0.950 . S
H156 C166 0.950 . S
H157 C168 0.950 . S
H158 C170 0.950 . S
H159 C171 0.950 . S
C160 H152 0.950 . S
C160 C161 1.386 . S
C160 C162 1.391 . S
C161 C160 1.386 . S
C161 C165 1.393 . S
C162 H154 0.950 . S
C162 C160 1.391 . S
C162 C163 1.400 . S
C163 C162 1.400 . S
C163 C164 1.398 . S
C163 C169 1.491 . S
C164 H155 0.950 . S
C164 C163 1.398 . S
C164 C165 1.391 . S
C165 H153 0.950 . S
C165 C161 1.393 . S
C165 C164 1.391 . S
C166 H156 0.950 . S
C166 C167 1.386 . S
C166 C168 1.391 . S
C167 C166 1.386 . S
C167 C171 1.393 . S
C168 H157 0.950 . S
C168 C166 1.391 . S
C168 C169 1.400 . S
C169 C163 1.491 . S
C169 C168 1.400 . S
C169 C170 1.398 . S
C170 H158 0.950 . S
C170 C169 1.398 . S
C170 C171 1.391 . S
C171 H159 0.950 . S
C171 C167 1.393 . S
C171 C170 1.391 . S
H172 C180 0.950 . S
H173 C185 0.950 . S
H174 C182 0.950 . S
H175 C184 0.950 . S
H176 C186 0.950 . S
H177 C188 0.950 . S
H178 C190 0.950 . S
H179 C191 0.950 . S
C180 H172 0.950 . S
C180 C181 1.386 . S
C180 C182 1.391 . S
C181 C180 1.386 . S
C181 C185 1.393 . S
C182 H174 0.950 . S
C182 C180 1.391 . S
C182 C183 1.400 . S
C183 C182 1.400 . S
C183 C184 1.398 . S
C183 C189 1.491 . S
C184 H175 0.950 . S
C184 C183 1.398 . S
C184 C185 1.391 . S
C185 H173 0.950 . S
C185 C181 1.393 . S
C185 C184 1.391 . S
C186 H176 0.950 . S
C186 C187 1.386 . S
C186 C188 1.391 . S
C187 C186 1.386 . S
C187 C191 1.393 . S
C188 H177 0.950 . S
C188 C186 1.391 . S
C188 C189 1.400 . S
C189 C183 1.491 . S
C189 C188 1.400 . S
C189 C190 1.398 . S
C190 H178 0.950 . S
C190 C189 1.398 . S
C190 C191 1.391 . S
C191 H179 0.950 . S
C191 C187 1.393 . S
C191 C190 1.391 . S
H192 C200 0.950 . S
H193 C205 0.950 1_565 S
H194 C202 0.950 . S
H195 C204 0.950 . S
H196 C206 0.950 . S
H197 C208 0.950 . S
H198 C210 0.950 . S
H199 C211 0.950 . S
C200 H192 0.950 . S
C200 C201 1.386 1_545 S
C200 C202 1.391 . S
C201 C200 1.386 1_565 S
C201 C205 1.393 1_565 S
C202 H194 0.950 . S
C202 C200 1.391 . S
C202 C203 1.400 . S
C203 C202 1.400 . S
C203 C204 1.398 . S
C203 C209 1.491 . S
C204 H195 0.950 . S
C204 C203 1.398 . S
C204 C205 1.391 . S
C205 H193 0.950 1_545 S
C205 C201 1.393 1_545 S
C205 C204 1.391 . S
C206 H196 0.950 . S
C206 C207 1.386 . S
C206 C208 1.391 . S
C207 C206 1.386 . S
C207 C211 1.393 . S
C208 H197 0.950 . S
C208 C206 1.391 . S
C208 C209 1.400 . S
C209 C203 1.491 . S
C209 C208 1.400 . S
C209 C210 1.398 . S
C210 H198 0.950 . S
C210 C209 1.398 . S
C210 C211 1.391 . S
C211 H199 0.950 . S
C211 C207 1.393 . S
C211 C210 1.391 . S
H212 C220 0.950 . S
H213 C225 0.950 . S
H214 C222 0.950 . S
H215 C224 0.950 . S
H216 C226 0.950 . S
H217 C228 0.950 . S
H218 C230 0.950 . S
H219 C231 0.950 1_655 S
C220 H212 0.950 . S
C220 C221 1.386 . S
C220 C222 1.391 . S
C221 C220 1.386 . S
C221 C225 1.393 . S
C222 H214 0.950 . S
C222 C220 1.391 . S
C222 C223 1.400 . S
C223 C222 1.400 . S
C223 C224 1.398 . S
C223 C229 1.491 . S
C224 H215 0.950 . S
C224 C223 1.398 . S
C224 C225 1.391 . S
C225 H213 0.950 . S
C225 C221 1.393 . S
C225 C224 1.391 . S
C226 H216 0.950 . S
C226 C227 1.386 1_455 S
C226 C228 1.391 . S
C227 C226 1.386 1_655 S
C227 C231 1.393 1_655 S
C228 H217 0.950 . S
C228 C226 1.391 . S
C228 C229 1.400 . S
C229 C223 1.491 . S
C229 C228 1.400 . S
C229 C230 1.398 . S
C230 H218 0.950 . S
C230 C229 1.398 . S
C230 C231 1.391 . S
C231 H219 0.950 1_455 S
C231 C227 1.393 1_455 S
C231 C230 1.391 . S
H232 C240 0.950 1_545 S
H233 C245 0.950 . S
H234 C242 0.950 . S
H235 C244 0.950 . S
H236 C246 0.950 . S
H237 C248 0.950 . S
H238 C250 0.950 . S
H239 C251 0.950 . S
C240 H232 0.950 1_565 S
C240 C241 1.384 1_565 S
C240 C242 1.391 . S
C241 C240 1.384 1_545 S
C241 C245 1.384 1_545 S
C242 H234 0.950 . S
C242 C240 1.391 . S
C242 C243 1.400 . S
C243 C242 1.400 . S
C243 C244 1.398 . S
C243 C249 1.491 . S
C244 H235 0.950 . S
C244 C243 1.398 . S
C244 C245 1.391 . S
C245 H233 0.950 . S
C245 C241 1.384 1_565 S
C245 C244 1.391 . S
C246 H236 0.950 . S
C246 C247 1.386 . S
C246 C248 1.391 . S
C247 C246 1.386 . S
C247 C251 1.393 . S
C248 H237 0.950 . S
C248 C246 1.391 . S
C248 C249 1.400 . S
C249 C243 1.491 . S
C249 C248 1.400 . S
C249 C250 1.398 . S
C250 H238 0.950 . S
C250 C249 1.398 . S
C250 C251 1.391 . S
C251 H239 0.950 . S
C251 C247 1.393 . S
C251 C250 1.391 . S
H252 C260 0.950 . S
H253 C265 0.950 . S
H254 C262 0.950 . S
H255 C264 0.950 . S
H256 C266 0.950 1_455 S
H257 C268 0.950 . S
H258 C270 0.950 . S
H259 C271 0.950 . S
C260 H252 0.950 . S
C260 C261 1.386 . S
C260 C262 1.391 . S
C261 C260 1.386 . S
C261 C265 1.393 . S
C262 H254 0.950 . S
C262 C260 1.391 . S
C262 C263 1.400 . S
C263 C262 1.400 . S
C263 C264 1.398 . S
C263 C269 1.491 . S
C264 H255 0.950 . S
C264 C263 1.398 . S
C264 C265 1.391 . S
C265 H253 0.950 . S
C265 C261 1.393 . S
C265 C264 1.391 . S
C266 H256 0.950 1_655 S
C266 C267 1.386 1_655 S
C266 C268 1.391 . S
C267 C266 1.386 1_455 S
C267 C271 1.393 1_455 S
C268 H257 0.950 . S
C268 C266 1.391 . S
C268 C269 1.400 . S
C269 C263 1.491 . S
C269 C268 1.400 . S
C269 C270 1.398 . S
C270 H258 0.950 . S
C270 C269 1.398 . S
C270 C271 1.391 . S
C271 H259 0.950 . S
C271 C267 1.393 1_655 S
C271 C270 1.391 . S
H272 C280 0.950 . S
H273 C285 0.950 . S
H274 C282 0.950 . S
H275 C284 0.950 . S
H276 C286 0.950 . S
H277 C288 0.950 . S
H278 C290 0.950 . S
H279 C291 0.950 . S
C280 H272 0.950 . S
C280 C281 1.386 . S
C280 C282 1.391 . S
C281 C280 1.386 . S
C281 C285 1.393 1_554 S
C282 H274 0.950 . S
C282 C280 1.391 . S
C282 C283 1.400 . S
C283 C282 1.400 . S
C283 C284 1.398 1_554 S
C283 C289 1.492 1_554 S
C284 H275 0.950 . S
C284 C283 1.398 1_556 S
C284 C285 1.391 . S
C285 H273 0.950 . S
C285 C281 1.393 1_556 S
C285 C284 1.391 . S
C286 H276 0.950 . S
C286 C287 1.386 . S
C286 C288 1.391 . S
C287 C286 1.386 . S
C287 C291 1.393 1_556 S
C288 H277 0.950 . S
C288 C286 1.391 . S
C288 C289 1.396 . S
C289 C283 1.492 1_556 S
C289 C288 1.396 . S
C289 C290 1.401 1_556 S
C290 H278 0.950 . S
C290 C289 1.401 1_554 S
C290 C291 1.391 . S
C291 H279 0.950 . S
C291 C287 1.393 1_554 S
C291 C290 1.391 . S
H292 C300 0.950 . S
H293 C305 0.950 . S
H294 C302 0.950 1_556 S
H295 C304 0.950 . S
H296 C306 0.950 . S
H297 C308 0.950 . S
H298 C310 0.950 . S
H299 C311 0.950 . S
C300 H292 0.950 . S
C300 C301 1.386 . S
C300 C302 1.391 . S
C301 C300 1.386 . S
C301 C305 1.393 . S
C302 H294 0.950 1_554 S
C302 C300 1.391 . S
C302 C303 1.400 1_554 S
C303 C302 1.400 1_556 S
C303 C304 1.397 1_556 S
C303 C309 1.493 . S
C304 H295 0.950 . S
C304 C303 1.397 1_554 S
C304 C305 1.391 . S
C305 H293 0.950 . S
C305 C301 1.393 . S
C305 C304 1.391 . S
C306 H296 0.950 . S
C306 C307 1.386 . S
C306 C308 1.391 . S
C307 C306 1.386 . S
C307 C311 1.393 . S
C308 H297 0.950 . S
C308 C306 1.391 . S
C308 C309 1.400 . S
C309 C303 1.493 . S
C309 C308 1.400 . S
C309 C310 1.398 . S
C310 H298 0.950 . S
C310 C309 1.398 . S
C310 C311 1.391 . S
C311 H299 0.950 . S
C311 C307 1.393 . S
C311 C310 1.391 . S
H312 C320 0.950 . S
H313 C325 0.950 1_556 S
H314 C322 0.950 . S
H315 C324 0.950 . S
H316 C326 0.950 . S
H317 C328 0.950 . S
H318 C330 0.950 . S
H319 C331 0.950 . S
C320 H312 0.950 . S
C320 C321 1.386 . S
C320 C322 1.391 . S
C321 C320 1.386 . S
C321 C325 1.393 . S
C322 H314 0.950 . S
C322 C320 1.391 . S
C322 C323 1.400 . S
C323 C322 1.400 . S
C323 C324 1.398 1_554 S
C323 C329 1.485 1_554 S
C324 H315 0.950 . S
C324 C323 1.398 1_556 S
C324 C325 1.391 1_556 S
C325 H313 0.950 1_554 S
C325 C321 1.393 . S
C325 C324 1.391 1_554 S
C326 H316 0.950 . S
C326 C327 1.386 . S
C326 C328 1.391 . S
C327 C326 1.386 . S
C327 C331 1.393 1_556 S
C328 H317 0.950 . S
C328 C326 1.391 . S
C328 C329 1.416 . S
C329 C323 1.485 1_556 S
C329 C328 1.416 . S
C329 C330 1.389 1_556 S
C330 H318 0.950 . S
C330 C329 1.389 1_554 S
C330 C331 1.391 . S
C331 H319 0.950 . S
C331 C327 1.393 1_554 S
C331 C330 1.391 . S
H332 C340 0.950 . S
H333 C345 0.950 . S
H334 C342 0.951 . S
H335 C344 0.950 . S
H336 C346 0.957 . S
H337 C348 0.950 . S
H338 C350 0.950 . S
H339 C351 0.950 . S
C340 H332 0.950 . S
C340 C341 1.386 . S
C340 C342 1.391 1_556 S
C341 C340 1.386 . S
C341 C345 1.393 . S
C342 H334 0.951 . S
C342 C340 1.391 1_554 S
C342 C343 1.399 1_554 S
C343 C342 1.399 1_556 S
C343 C344 1.398 . S
C343 C349 1.492 . S
C344 H335 0.950 . S
C344 C343 1.398 . S
C344 C345 1.391 . S
C345 H333 0.950 . S
C345 C341 1.393 . S
C345 C344 1.391 . S
C346 H336 0.957 . S
C346 C347 1.373 1_556 S
C346 C348 1.398 . S
C347 C346 1.373 1_554 S
C347 C351 1.393 . S
C348 H337 0.950 . S
C348 C346 1.398 . S
C348 C349 1.401 . S
C349 C343 1.492 . S
C349 C348 1.401 . S
C349 C350 1.396 1_556 S
C350 H338 0.950 . S
C350 C349 1.396 1_554 S
C350 C351 1.391 . S
C351 H339 0.950 . S
C351 C347 1.393 . S
C351 C350 1.391 . S
H352 C360 0.950 . S
H353 C365 0.950 . S
H354 C362 0.950 . S
H355 C364 0.950 . S
H356 C366 0.950 . S
H357 C368 0.950 . S
H358 C370 0.950 . S
H359 C371 0.950 . S
C360 H352 0.950 . S
C360 C361 1.386 . S
C360 C362 1.391 1_655 S
C361 C360 1.386 . S
C361 C365 1.393 . S
C362 H354 0.950 . S
C362 C360 1.391 1_455 S
C362 C363 1.400 1_455 S
C363 C362 1.400 1_655 S
C363 C364 1.398 . S
C363 C369 1.491 1_655 S
C364 H355 0.950 . S
C364 C363 1.398 . S
C364 C365 1.391 . S
C365 H353 0.950 . S
C365 C361 1.393 . S
C365 C364 1.391 . S
C366 H356 0.950 . S
C366 C367 1.386 . S
C366 C368 1.391 1_455 S
C367 C366 1.386 . S
C367 C371 1.393 . S
C368 H357 0.950 . S
C368 C366 1.391 1_655 S
C368 C369 1.400 1_655 S
C369 C363 1.491 1_455 S
C369 C368 1.400 1_455 S
C369 C370 1.398 . S
C370 H358 0.950 . S
C370 C369 1.398 . S
C370 C371 1.391 . S
C371 H359 0.950 . S
C371 C367 1.393 . S
C371 C370 1.391 . S
H372 C380 0.950 . S
H373 C385 0.950 . S
H374 C382 0.950 . S
H375 C384 0.950 . S
H376 C386 0.950 . S
H377 C388 0.950 . S
H378 C390 0.950 . S
H379 C391 0.950 . S
C380 H372 0.950 . S
C380 C381 1.386 . S
C380 C382 1.391 1_545 S
C381 C380 1.386 . S
C381 C385 1.393 . S
C382 H374 0.950 . S
C382 C380 1.391 1_565 S
C382 C383 1.400 1_565 S
C383 C382 1.400 1_545 S
C383 C384 1.398 . S
C383 C389 1.491 1_545 S
C384 H375 0.950 . S
C384 C383 1.398 . S
C384 C385 1.391 . S
C385 H373 0.950 . S
C385 C381 1.393 . S
C385 C384 1.391 . S
C386 H376 0.950 . S
C386 C387 1.386 . S
C386 C388 1.391 1_565 S
C387 C386 1.386 . S
C387 C391 1.393 . S
C388 H377 0.950 . S
C388 C386 1.391 1_545 S
C388 C389 1.400 1_545 S
C389 C383 1.491 1_565 S
C389 C388 1.400 1_565 S
C389 C390 1.398 . S
C390 H378 0.950 . S
C390 C389 1.398 . S
C390 C391 1.391 . S
C391 H379 0.950 . S
C391 C387 1.393 . S
C391 C390 1.391 . S
H392 C400 0.950 . S
H393 C405 0.950 . S
H394 C402 0.950 . S
H395 C404 0.950 1_565 S
H396 C406 0.950 . S
H397 C408 0.950 . S
H398 C410 0.950 1_545 S
H399 C411 0.950 . S
C400 H392 0.950 . S
C400 C401 1.386 . S
C400 C402 1.391 . S
C401 C400 1.386 . S
C401 C405 1.393 . S
C402 H394 0.950 . S
C402 C400 1.391 . S
C402 C403 1.400 . S
C403 C402 1.400 . S
C403 C404 1.398 . S
C403 C409 1.491 1_545 S
C404 H395 0.950 1_545 S
C404 C403 1.398 . S
C404 C405 1.391 . S
C405 H393 0.950 . S
C405 C401 1.393 . S
C405 C404 1.391 . S
C406 H396 0.950 . S
C406 C407 1.386 . S
C406 C408 1.391 . S
C407 C406 1.386 . S
C407 C411 1.393 . S
C408 H397 0.950 . S
C408 C406 1.391 . S
C408 C409 1.400 . S
C409 C403 1.491 1_565 S
C409 C408 1.400 . S
C409 C410 1.398 . S
C410 H398 0.950 1_565 S
C410 C409 1.398 . S
C410 C411 1.391 . S
C411 H399 0.950 . S
C411 C407 1.393 . S
C411 C410 1.391 . S
H412 C420 0.950 . S
H413 C425 0.950 . S
H414 C422 0.950 . S
H415 C424 0.950 . S
H416 C426 0.950 . S
H417 C428 0.950 . S
H418 C430 0.950 . S
H419 C431 0.950 . S
C420 H412 0.950 . S
C420 C421 1.386 . S
C420 C422 1.391 . S
C421 C420 1.386 . S
C421 C425 1.393 . S
C422 H414 0.950 . S
C422 C420 1.391 . S
C422 C423 1.400 . S
C423 C422 1.400 . S
C423 C424 1.398 . S
C423 C429 1.491 1_455 S
C424 H415 0.950 . S
C424 C423 1.398 . S
C424 C425 1.391 . S
C425 H413 0.950 . S
C425 C421 1.393 . S
C425 C424 1.391 . S
C426 H416 0.950 . S
C426 C427 1.386 . S
C426 C428 1.391 . S
C427 C426 1.386 . S
C427 C431 1.393 . S
C428 H417 0.950 . S
C428 C426 1.391 . S
C428 C429 1.400 . S
C429 C423 1.491 1_655 S
C429 C428 1.400 . S
C429 C430 1.398 . S
C430 H418 0.950 . S
C430 C429 1.398 . S
C430 C431 1.391 . S
C431 H419 0.950 . S
C431 C427 1.393 . S
C431 C430 1.391 . S
C121 C105 1.552 . S
C127 C7 1.550 . S
C141 C21 1.549 . S
C147 C63 1.563 . S
C161 C35 1.552 . S
C167 C77 1.549 . S
C181 C91 1.548 . S
C187 C49 1.555 . S
C201 C22 1.493 . S
C207 C6 1.482 . S
C221 C20 1.486 . S
C227 C36 1.492 . S
C241 C50 1.513 . S
C247 C34 1.491 . S
C261 C48 1.494 . S
C267 C8 1.498 . S
C281 C106 1.493 . S
C287 C62 1.489 . S
C301 C76 1.480 . S
C307 C64 1.493 . S
C321 C78 1.497 . S
C327 C90 1.494 . S
C341 C92 1.492 . S
C347 C104 1.486 . S
C361 C37 1.281 . S
C367 C9 1.253 . S
C381 C51 1.258 . S
C387 C23 1.286 . S
C401 C93 1.266 . S
C407 C65 1.287 . S
C421 C107 1.278 . S
C427 C79 1.282 . S
