# Generated by pormake.
# Topology wjd, (6)-cn, num edge types: 1
# Building blocks:
#     Node 0, Type 0, BuildingBlock: HISSIN_clean_sbu_0, # of connection points: 6
#     Node 1, Type 0, BuildingBlock: HISSIN_clean_sbu_0, # of connection points: 6
#     Node 2, Type 0, BuildingBlock: HISSIN_clean_sbu_0, # of connection points: 6
#     Node 3, Type 0, BuildingBlock: HISSIN_clean_sbu_0, # of connection points: 6
#     Node 4, Type 0, BuildingBlock: HISSIN_clean_sbu_0, # of connection points: 6
#     Node 5, Type 0, BuildingBlock: HISSIN_clean_sbu_0, # of connection points: 6
#     Node 6, Type 0, BuildingBlock: HISSIN_clean_sbu_0, # of connection points: 6
#     Node 7, Type 0, BuildingBlock: HISSIN_clean_sbu_0, # of connection points: 6
#     Node 8, Type 0, BuildingBlock: HISSIN_clean_sbu_0, # of connection points: 6
#     Node 9, Type 0, BuildingBlock: HISSIN_clean_sbu_0, # of connection points: 6
#     Node 10, Type 0, BuildingBlock: HISSIN_clean_sbu_0, # of connection points: 6
#     Node 11, Type 0, BuildingBlock: HISSIN_clean_sbu_0, # of connection points: 6
#     Edge 12, Type (0, 0), BuildingBlock: XIVTED_clean_linker_0, # of connection points: 2
#     Edge 13, Type (0, 0), BuildingBlock: XIVTED_clean_linker_0, # of connection points: 2
#     Edge 14, Type (0, 0), BuildingBlock: XIVTED_clean_linker_0, # of connection points: 2
#     Edge 15, Type (0, 0), BuildingBlock: XIVTED_clean_linker_0, # of connection points: 2
#     Edge 16, Type (0, 0), BuildingBlock: XIVTED_clean_linker_0, # of connection points: 2
#     Edge 17, Type (0, 0), BuildingBlock: XIVTED_clean_linker_0, # of connection points: 2
#     Edge 18, Type (0, 0), BuildingBlock: XIVTED_clean_linker_0, # of connection points: 2
#     Edge 19, Type (0, 0), BuildingBlock: XIVTED_clean_linker_0, # of connection points: 2
#     Edge 20, Type (0, 0), BuildingBlock: XIVTED_clean_linker_0, # of connection points: 2
#     Edge 21, Type (0, 0), BuildingBlock: XIVTED_clean_linker_0, # of connection points: 2
#     Edge 22, Type (0, 0), BuildingBlock: XIVTED_clean_linker_0, # of connection points: 2
#     Edge 23, Type (0, 0), BuildingBlock: XIVTED_clean_linker_0, # of connection points: 2
#     Edge 24, Type (0, 0), BuildingBlock: XIVTED_clean_linker_0, # of connection points: 2
#     Edge 25, Type (0, 0), BuildingBlock: XIVTED_clean_linker_0, # of connection points: 2
#     Edge 26, Type (0, 0), BuildingBlock: XIVTED_clean_linker_0, # of connection points: 2
#     Edge 27, Type (0, 0), BuildingBlock: XIVTED_clean_linker_0, # of connection points: 2
#     Edge 28, Type (0, 0), BuildingBlock: XIVTED_clean_linker_0, # of connection points: 2
#     Edge 29, Type (0, 0), BuildingBlock: XIVTED_clean_linker_0, # of connection points: 2
#     Edge 30, Type (0, 0), BuildingBlock: XIVTED_clean_linker_0, # of connection points: 2
#     Edge 31, Type (0, 0), BuildingBlock: XIVTED_clean_linker_0, # of connection points: 2
#     Edge 32, Type (0, 0), BuildingBlock: XIVTED_clean_linker_0, # of connection points: 2
#     Edge 33, Type (0, 0), BuildingBlock: XIVTED_clean_linker_0, # of connection points: 2
#     Edge 34, Type (0, 0), BuildingBlock: XIVTED_clean_linker_0, # of connection points: 2
#     Edge 35, Type (0, 0), BuildingBlock: XIVTED_clean_linker_0, # of connection points: 2
#     Edge 36, Type (0, 0), BuildingBlock: XIVTED_clean_linker_0, # of connection points: 2
#     Edge 37, Type (0, 0), BuildingBlock: XIVTED_clean_linker_0, # of connection points: 2
#     Edge 38, Type (0, 0), BuildingBlock: XIVTED_clean_linker_0, # of connection points: 2
#     Edge 39, Type (0, 0), BuildingBlock: XIVTED_clean_linker_0, # of connection points: 2
#     Edge 40, Type (0, 0), BuildingBlock: XIVTED_clean_linker_0, # of connection points: 2
#     Edge 41, Type (0, 0), BuildingBlock: XIVTED_clean_linker_0, # of connection points: 2
#     Edge 42, Type (0, 0), BuildingBlock: XIVTED_clean_linker_0, # of connection points: 2
#     Edge 43, Type (0, 0), BuildingBlock: XIVTED_clean_linker_0, # of connection points: 2
#     Edge 44, Type (0, 0), BuildingBlock: XIVTED_clean_linker_0, # of connection points: 2
#     Edge 45, Type (0, 0), BuildingBlock: XIVTED_clean_linker_0, # of connection points: 2
#     Edge 46, Type (0, 0), BuildingBlock: XIVTED_clean_linker_0, # of connection points: 2
#     Edge 47, Type (0, 0), BuildingBlock: XIVTED_clean_linker_0, # of connection points: 2
# Relax obj value: 0.092
# Max RMSD: 0.206
# Mean RMSD: 0.206
data_MOF--net-wjd--node1-HISSIN_clean_sbu_0--edge1-XIVTED_clean_linker_0
_symmetry_space_group_name_H-M    P1
_symmetry_Int_Tables_number       1
_symmetry_cell_setting            triclinic
loop_
_symmetry_equiv_pos_as_xyz
'x, y, z'
_cell_length_a     40.478844
_cell_length_b     40.386072
_cell_length_c     54.177738
_cell_angle_alpha  89.627669
_cell_angle_beta   89.895692
_cell_angle_gamma 120.2384
loop_
_atom_site_label
_atom_site_type_symbol
_atom_site_fract_x
_atom_site_fract_y
_atom_site_fract_z
_atom_type_partial_charge
Eu0 Eu 0.37864 0.19343 0.11087 0.0
Eu1 Eu 0.33282 0.11034 0.1405 0.0
C2 C 0.38232 0.18946 0.1698 0.0
C3 C 0.44879 0.29848 0.09275 0.0
C4 C 0.44511 0.33115 0.09441 0.0
C5 C 0.51738 0.33891 0.09907 0.0
C6 C 0.47711 0.3673 0.09853 0.0
C7 C 0.48529 0.30271 0.09511 0.0
C8 C 0.51376 0.37175 0.10094 0.0
C9 C 0.41423 0.26054 0.08872 0.0
O10 O 0.28857 0.12418 0.12597 0.0
O11 O 0.32682 0.18866 0.12923 0.0
C12 C 0.29268 0.15826 0.12904 0.0
O13 O 0.34042 0.14834 0.08276 0.0
O14 O 0.29413 0.07568 0.17031 0.0
O15 O 0.31328 0.04926 0.14376 0.0
O16 O 0.34183 0.09838 0.10163 0.0
C17 C 0.33616 0.11379 0.08203 0.0
O18 O 0.42025 0.17231 0.11299 0.0
O19 O 0.39538 0.1277 0.14471 0.0
O20 O 0.35095 0.15588 0.16933 0.0
O21 O 0.41901 0.23191 0.08289 0.0
O22 O 0.38628 0.25037 0.10442 0.0
O23 O 0.40232 0.20624 0.14974 0.0
C24 C 0.24949 1.01339 0.15781 0.0
C25 C 0.23065 1.0125 0.13588 0.0
C26 C 0.19084 0.95868 0.17324 0.0
C27 C 0.19223 0.98477 0.1326 0.0
C28 C 0.22938 0.98635 0.17646 0.0
C29 C 0.17181 0.95759 0.15126 0.0
C30 C 0.28944 0.04358 0.16169 0.0
C31 C 0.42363 0.1504 0.12964 0.0
H32 H 0.41728 0.32867 0.09269 0.0
H33 H 0.54511 0.34114 0.1004 0.0
H34 H 0.47295 0.39166 0.10021 0.0
H35 H 0.48914 0.27809 0.09392 0.0
H36 H 0.24558 0.03351 0.12139 0.0
H37 H 0.17603 0.93794 0.18787 0.0
H38 H 0.17831 0.98509 0.11561 0.0
H39 H 0.24341 0.98679 0.19356 0.0
Eu40 Eu 0.81098 0.71279 0.38076 0.0
Eu41 Eu 0.84908 0.66628 0.40718 0.0
C42 C 0.82132 0.71587 0.43812 0.0
C43 C 0.79815 0.79639 0.36315 0.0
C44 C 0.77126 0.80855 0.36282 0.0
C45 C 0.849 0.86266 0.3677 0.0
C46 C 0.78309 0.84746 0.3651 0.0
C47 C 0.83713 0.82372 0.36563 0.0
C48 C 0.82209 0.87496 0.36765 0.0
C49 C 0.78517 0.75514 0.36211 0.0
O50 O 0.79121 0.62063 0.39472 0.0
O51 O 0.76105 0.65591 0.3945 0.0
C52 C 0.75984 0.62261 0.39511 0.0
O53 O 0.80584 0.67 0.35289 0.0
O54 O 0.84632 0.62254 0.43251 0.0
O55 O 0.89856 0.659 0.41224 0.0
O56 O 0.85716 0.66491 0.36559 0.0
C57 C 0.83216 0.66094 0.34862 0.0
O58 O 0.875 0.74677 0.37385 0.0
O59 O 0.89297 0.72888 0.40902 0.0
O60 O 0.82067 0.68292 0.43732 0.0
O61 O 0.80709 0.74569 0.34998 0.0
O62 O 0.77282 0.73627 0.38291 0.0
O63 O 0.82989 0.73736 0.41835 0.0
C64 C 0.8848 0.59608 0.42136 0.0
C65 C 0.8677 0.57359 0.40047 0.0
C66 C 0.9115 0.55565 0.43175 0.0
C67 C 0.87239 0.54222 0.39529 0.0
C68 C 0.90675 0.58694 0.43691 0.0
C69 C 0.89434 0.53278 0.41089 0.0
C70 C 0.88063 0.62947 0.42697 0.0
C71 C 0.90117 0.75246 0.39027 0.0
H72 H 0.74106 0.78788 0.36106 0.0
H73 H 0.87917 0.88304 0.36996 0.0
H74 H 0.76169 0.85604 0.36478 0.0
H75 H 0.85838 0.81494 0.36628 0.0
H76 H 0.85084 0.58036 0.38815 0.0
H77 H 0.92811 0.549 0.44438 0.0
H78 H 0.85913 0.52561 0.37891 0.0
H79 H 0.9202 0.60399 0.45312 0.0
Eu80 Eu 0.85321 0.20433 0.10708 0.0
Eu81 Eu 0.9394 0.24064 0.13185 0.0
C82 C 0.86473 0.20272 0.16535 0.0
C83 C 0.74793 0.1727 0.09549 0.0
C84 C 0.7473 0.19977 0.11131 0.0
C85 C 0.6785 0.13936 0.09354 0.0
C86 C 0.71244 0.19677 0.11807 0.0
C87 C 0.71333 0.14251 0.08671 0.0
C88 C 0.67756 0.16644 0.1093 0.0
C89 C 0.78403 0.17414 0.08907 0.0
O90 O 0.9256 0.18306 0.11636 0.0
O91 O 0.86022 0.15423 0.1163 0.0
C92 C 0.89148 0.15223 0.11552 0.0
O93 O 0.89645 0.21595 0.07632 0.0
O94 O 0.98002 0.25519 0.16218 0.0
O95 O 1.00036 0.26739 0.12437 0.0
O96 O 0.94285 0.2684 0.09537 0.0
C97 C 0.92951 0.24815 0.0754 0.0
O98 O 0.87238 0.26622 0.11318 0.0
O99 O 0.92336 0.286 0.13994 0.0
O100 O 0.89677 0.2032 0.16075 0.0
O101 O 0.81261 0.20706 0.08172 0.0
O102 O 0.7948 0.15643 0.10436 0.0
O103 O 0.84706 0.21082 0.14808 0.0
C104 C 0.03418 0.25006 0.15134 0.0
C105 C 0.07368 0.27473 0.15328 0.0
C106 C 0.04429 0.19553 0.15117 0.0
C107 C 0.09841 0.26005 0.15392 0.0
C108 C 1.01954 0.21033 0.15053 0.0
C109 C 0.08413 0.22028 0.1526 0.0
C110 C 1.00928 0.26635 0.14733 0.0
C111 C 0.89759 0.29134 0.12848 0.0
H112 H 0.7737 0.223 0.11858 0.0
H113 H 0.6523 0.11598 0.08618 0.0
H114 H 0.71276 0.21789 0.13043 0.0
H115 H 0.71324 0.12119 0.07463 0.0
H116 H 0.08553 0.3055 0.15352 0.0
H117 H 0.03225 0.16478 0.15036 0.0
H118 H 0.12888 0.28008 0.15455 0.0
H119 H 0.98908 0.1909 0.14882 0.0
Eu120 Eu 0.33858 0.10595 0.37765 0.0
Eu121 Eu 0.38365 0.18832 0.40651 0.0
C122 C 0.33423 0.10806 0.43557 0.0
C123 C 0.25542 1.01018 0.36018 0.0
C124 C 0.2348 1.01092 0.38082 0.0
C125 C 0.1975 0.95539 0.3446 0.0
C126 C 0.19597 0.98388 0.38348 0.0
C127 C 0.23652 0.98238 0.34203 0.0
C128 C 0.17683 0.95571 0.36545 0.0
C129 C 0.29627 0.03903 0.35739 0.0
O130 O 0.42991 0.17822 0.39244 0.0
O131 O 0.3954 0.11258 0.3902 0.0
C132 C 0.42839 0.14502 0.39148 0.0
O133 O 0.38118 0.1464 0.35001 0.0
O134 O 0.42627 0.2273 0.43275 0.0
O135 O 0.39106 0.24493 0.41319 0.0
O136 O 0.38531 0.20119 0.36533 0.0
C137 C 0.3898 0.18213 0.34721 0.0
O138 O 0.3047 0.13631 0.37258 0.0
O139 O 0.32107 0.16909 0.40877 0.0
O140 O 0.36682 0.14091 0.43536 0.0
O141 O 0.30371 0.07125 0.3469 0.0
O142 O 0.31739 0.04449 0.37683 0.0
O143 O 0.31343 0.09617 0.41565 0.0
C144 C 0.45382 0.29319 0.42292 0.0
C145 C 0.47755 0.29908 0.40248 0.0
C146 C 0.49431 0.36013 0.43401 0.0
C147 C 0.50959 0.33524 0.3979 0.0
C148 C 0.46233 0.32394 0.43857 0.0
C149 C 0.5185 0.36625 0.41366 0.0
C150 C 0.41997 0.25535 0.42797 0.0
C151 C 0.29822 0.15518 0.38978 0.0
H152 H 0.24873 0.0325 0.39487 0.0
H153 H 0.18367 0.9339 0.33048 0.0
H154 H 0.18081 0.98533 0.39956 0.0
H155 H 0.25192 0.98152 0.3259 0.0
H156 H 0.47126 0.2757 0.39007 0.0
H157 H 0.5005 0.3831 0.44671 0.0
H158 H 0.52723 0.33897 0.38189 0.0
H159 H 0.44429 0.31993 0.45443 0.0
Eu160 Eu 0.84394 0.66809 0.11071 0.0
Eu161 Eu 0.80704 0.71555 0.13639 0.0
C162 C 0.82813 0.66419 0.16955 0.0
C163 C 0.87741 0.59554 0.09938 0.0
C164 C 0.90417 0.59842 0.11707 0.0
C165 C 0.85781 0.52827 0.09405 0.0
C166 C 0.90758 0.56653 0.12323 0.0
C167 C 0.8545 0.56015 0.08784 0.0
C168 C 0.88432 0.53099 0.11187 0.0
C169 C 0.87394 0.62927 0.09232 0.0
O170 O 0.87101 0.74853 0.14279 0.0
O171 O 0.88878 0.73033 0.10784 0.0
C172 C 0.89714 0.75401 0.12629 0.0
O173 O 0.81599 0.68485 0.08023 0.0
O174 O 0.8079 0.7541 0.1649 0.0
O175 O 0.76607 0.7355 0.1356 0.0
O176 O 0.8261 0.73971 0.09844 0.0
C177 C 0.81727 0.71809 0.07895 0.0
O178 O 0.78623 0.62323 0.12461 0.0
O179 O 0.75682 0.65906 0.1232 0.0
O180 O 0.80217 0.67386 0.16549 0.0
O181 O 0.83992 0.62296 0.08659 0.0
O182 O 0.89298 0.66027 0.10537 0.0
O183 O 0.85256 0.66742 0.15226 0.0
C184 C 0.79481 0.80036 0.14804 0.0
C185 C 0.79773 0.81343 0.12357 0.0
C186 C 0.81889 0.86559 0.16228 0.0
C187 C 0.81088 0.85206 0.11852 0.0
C188 C 0.80548 0.82678 0.16734 0.0
C189 C 0.82167 0.87863 0.13779 0.0
C190 C 0.7829 0.75989 0.15343 0.0
C191 C 0.75511 0.62558 0.12368 0.0
H192 H 0.92254 0.6253 0.12623 0.0
H193 H 0.83992 0.50156 0.08458 0.0
H194 H 0.9281 0.5696 0.13714 0.0
H195 H 0.83405 0.55711 0.07388 0.0
H196 H 0.79021 0.7939 0.10824 0.0
H197 H 0.82662 0.88529 0.17753 0.0
H198 H 0.81312 0.86124 0.09946 0.0
H199 H 0.80372 0.81744 0.18633 0.0
Eu200 Eu 0.94651 0.24105 0.37638 0.0
Eu201 Eu 0.86238 0.20401 0.40423 0.0
C202 C 0.94076 0.23261 0.43431 0.0
C203 C 0.04278 0.25339 0.36017 0.0
C204 C 0.04059 0.23059 0.38048 0.0
C205 C 0.09866 0.25166 0.34537 0.0
C206 C 0.06745 0.21876 0.38338 0.0
C207 C 0.07189 0.26372 0.34259 0.0
C208 C 0.09687 0.22916 0.36588 0.0
C209 C 1.01431 0.26568 0.35712 0.0
O210 O 0.8745 0.26069 0.38887 0.0
O211 O 0.94003 0.29148 0.38866 0.0
C212 C 0.90786 0.29236 0.38878 0.0
O213 O 0.90732 0.24256 0.34786 0.0
O214 O 0.82268 0.20892 0.42927 0.0
O215 O 0.80497 0.15533 0.41067 0.0
O216 O 0.85201 0.19154 0.36316 0.0
C217 C 0.87192 0.21489 0.34491 0.0
O218 O 0.91655 0.17639 0.37252 0.0
O219 O 0.87998 0.15969 0.40758 0.0
O220 O 0.90821 0.23266 0.43381 0.0
O221 O 0.9826 0.24132 0.34621 0.0
O222 O 1.00806 0.28087 0.37649 0.0
O223 O 0.95359 0.22442 0.41451 0.0
C224 C 0.75702 0.17066 0.41933 0.0
C225 C 0.75241 0.1904 0.39946 0.0
C226 C 0.68944 0.14248 0.42929 0.0
C227 C 0.71654 0.18636 0.39462 0.0
C228 C 0.72529 0.14661 0.43412 0.0
C229 C 0.68455 0.1624 0.40953 0.0
C230 C 0.79448 0.17447 0.42478 0.0
C231 C 0.89559 0.15085 0.38947 0.0
H232 H 1.01801 0.22183 0.39409 0.0
H233 H 0.12112 0.26043 0.33167 0.0
H234 H 0.06486 0.20102 0.39918 0.0
H235 H 0.07395 0.28116 0.32673 0.0
H236 H 0.77654 0.20891 0.38771 0.0
H237 H 0.6657 0.12423 0.44137 0.0
H238 H 0.71382 0.20177 0.37907 0.0
H239 H 0.72829 0.13111 0.44954 0.0
Eu240 Eu 0.11652 0.32135 0.64231 0.0
Eu241 Eu 0.19446 0.3781 0.60997 0.0
C242 C 0.11351 0.32445 0.58252 0.0
C243 C 1.02393 0.23267 0.6613 0.0
C244 C 1.00815 0.22172 0.63761 0.0
C245 C 0.98436 0.16661 0.67529 0.0
C246 C 0.9805 0.18361 0.63288 0.0
C247 C 1.01174 0.20481 0.68007 0.0
C248 C 0.96843 0.15555 0.65163 0.0
C249 C 0.05476 0.27225 0.66631 0.0
O250 O 0.15397 0.40047 0.6075 0.0
O251 O 0.12812 0.38251 0.64607 0.0
C252 C 0.13792 0.40584 0.62688 0.0
O253 O 0.16546 0.3416 0.66856 0.0
O254 O 0.23438 0.43521 0.59582 0.0
O255 O 0.24589 0.38915 0.58945 0.0
O256 O 0.20661 0.39867 0.6496 0.0
C257 C 0.19533 0.37612 0.66913 0.0
O258 O 0.13639 0.28423 0.62422 0.0
O259 O 0.19983 0.32886 0.62477 0.0
O260 O 0.15116 0.34103 0.58074 0.0
O261 O 0.08836 0.27641 0.67033 0.0
O262 O 0.05663 0.29947 0.65218 0.0
O263 O 0.09598 0.31927 0.6038 0.0
C264 C 0.29904 0.4514 0.59613 0.0
C265 C 0.30707 0.46447 0.62056 0.0
C266 C 0.36668 0.49107 0.58604 0.0
C267 C 0.34444 0.49129 0.62752 0.0
C268 C 0.3292 0.46443 0.57904 0.0
C269 C 0.37465 0.5054 0.61025 0.0
C270 C 0.25921 0.42602 0.58808 0.0
C271 C 0.1723 0.29295 0.62451 0.0
H272 H 1.0175 0.2425 0.62265 0.0
H273 H 0.97539 0.14578 0.69018 0.0
H274 H 0.96911 0.17593 0.61439 0.0
H275 H 1.02374 0.21255 0.69842 0.0
H276 H 0.28429 0.45463 0.63413 0.0
H277 H 0.38917 0.50156 0.57223 0.0
H278 H 0.34963 0.50133 0.64638 0.0
H279 H 0.32361 0.45473 0.56011 0.0
Eu280 Eu 0.20794 0.85154 0.91014 0.0
Eu281 Eu 0.25008 0.93978 0.88736 0.0
C282 C 0.21009 0.8674 0.85214 0.0
C283 C 0.17138 0.7441 0.92316 0.0
C284 C 0.13526 0.71153 0.91974 0.0
C285 C 0.20034 0.70439 0.91783 0.0
C286 C 0.13162 0.67578 0.91531 0.0
C287 C 0.20397 0.74026 0.92212 0.0
C288 C 0.16408 0.67162 0.91434 0.0
C289 C 0.1739 0.78138 0.92776 0.0
O290 O 0.19168 0.92784 0.90065 0.0
O291 O 0.16039 0.86206 0.90063 0.0
C292 C 0.15997 0.89424 0.90121 0.0
O293 O 0.21669 0.89338 0.94108 0.0
O294 O 0.27016 0.98258 0.85757 0.0
O295 O 0.27864 1.00054 0.89574 0.0
O296 O 0.2728 0.93941 0.92489 0.0
C297 C 0.24966 0.92516 0.94374 0.0
O298 O 0.26973 0.86871 0.9066 0.0
O299 O 0.2934 0.92084 0.88005 0.0
O300 O 0.21307 0.90039 0.85755 0.0
O301 O 0.20573 0.80931 0.93662 0.0
O302 O 0.15923 0.79323 0.9109 0.0
O303 O 0.21565 0.84705 0.86894 0.0
C304 C 0.26711 0.03799 0.86803 0.0
C305 C 0.2934 0.0774 0.86732 0.0
C306 C 0.21494 0.05145 0.86688 0.0
C307 C 0.28062 0.10373 0.86694 0.0
C308 C 0.22779 0.02509 0.86735 0.0
C309 C 0.24126 0.09109 0.86734 0.0
C310 C 0.28093 1.01117 0.87275 0.0
C311 C 0.29665 0.89393 0.89189 0.0
H312 H 0.1097 0.71379 0.9204 0.0
H313 H 0.22598 0.7023 0.91757 0.0
H314 H 0.10331 0.65149 0.91231 0.0
H315 H 0.23224 0.76488 0.92467 0.0
H316 H 0.32384 0.08785 0.868 0.0
H317 H 0.18446 0.04081 0.86738 0.0
H318 H 0.30159 0.13405 0.86695 0.0
H319 H 0.20709 0.99471 0.86818 0.0
Eu320 Eu 0.72345 0.7937 0.63795 0.0
Eu321 Eu 0.67214 0.82793 0.61145 0.0
C322 C 0.71262 0.79043 0.58031 0.0
C323 C 0.81418 0.79063 0.6505 0.0
C324 C 0.83771 0.82749 0.64053 0.0
C325 C 0.86864 0.78074 0.65065 0.0
C326 C 0.87649 0.84098 0.63577 0.0
C327 C 0.82996 0.76743 0.65558 0.0
C328 C 0.89236 0.81762 0.64058 0.0
C329 C 0.77306 0.77577 0.65492 0.0
O330 O 0.63031 0.76566 0.619 0.0
O331 O 0.66335 0.74289 0.64181 0.0
C332 C 0.63176 0.73855 0.63172 0.0
O333 O 0.69505 0.80429 0.67005 0.0
O334 O 0.62425 0.8194 0.58826 0.0
O335 O 0.66451 0.87608 0.60127 0.0
O336 O 0.65666 0.82506 0.65185 0.0
C337 C 0.66972 0.81551 0.67126 0.0
O338 O 0.76371 0.85449 0.62432 0.0
O339 O 0.72346 0.87827 0.62744 0.0
O340 O 0.7078 0.82032 0.58151 0.0
O341 O 0.76415 0.7987 0.66616 0.0
O342 O 0.75055 0.75861 0.63636 0.0
O343 O 0.70867 0.77004 0.60001 0.0
C344 C 0.59931 0.86011 0.59807 0.0
C345 C 0.60481 0.89017 0.61373 0.0
C346 C 0.53164 0.84 0.59591 0.0
C347 C 0.57401 0.89492 0.62049 0.0
C348 C 0.56241 0.83535 0.58908 0.0
C349 C 0.53695 0.86973 0.61179 0.0
C350 C 0.63163 0.85459 0.5907 0.0
C351 C 0.75803 0.88361 0.62656 0.0
H352 H 0.82596 0.84566 0.63618 0.0
H353 H 0.88002 0.76216 0.65482 0.0
H354 H 0.89381 0.86931 0.62777 0.0
H355 H 0.81229 0.73888 0.66321 0.0
H356 H 0.63289 0.90999 0.62091 0.0
H357 H 0.50367 0.82048 0.58846 0.0
H358 H 0.57913 0.91798 0.63286 0.0
H359 H 0.55728 0.81227 0.57673 0.0
Eu360 Eu 0.19703 0.37607 0.90504 0.0
Eu361 Eu 0.11357 0.32888 0.8776 0.0
C362 C 0.18819 0.38068 0.84598 0.0
C363 C 0.30276 0.44668 0.91748 0.0
C364 C 0.30633 0.47049 0.89745 0.0
C365 C 0.37158 0.48408 0.92347 0.0
C366 C 0.34227 0.50112 0.89061 0.0
C367 C 0.33562 0.45357 0.93034 0.0
C368 C 0.37539 0.5084 0.90358 0.0
C369 C 0.26523 0.41398 0.92468 0.0
O370 O 0.14383 0.29503 0.87248 0.0
O371 O 0.17895 0.31376 0.90781 0.0
C372 C 0.16414 0.28993 0.88937 0.0
O373 O 0.15076 0.35897 0.93463 0.0
O374 O 0.07756 0.29385 0.84739 0.0
O375 O 0.05196 0.3061 0.87856 0.0
O376 O 0.10675 0.30441 0.91561 0.0
C377 C 0.11854 0.32576 0.93528 0.0
O378 O 0.18506 0.42101 0.89058 0.0
O379 O 0.11956 0.3852 0.89066 0.0
O380 O 0.15239 0.37126 0.84922 0.0
O381 O 0.2379 0.4214 0.92913 0.0
O382 O 0.25335 0.38301 0.91168 0.0
O383 O 0.20813 0.37681 0.86379 0.0
C384 C 1.01785 0.24443 0.86165 0.0
C385 C 1.02571 0.22132 0.8772 0.0
C386 C 0.95584 0.18929 0.85254 0.0
C387 C 0.99869 0.18246 0.88052 0.0
C388 C 0.9829 0.22816 0.84923 0.0
C389 C 0.96326 0.166 0.86838 0.0
C390 C 0.04584 0.28553 0.85879 0.0
C391 C 0.15156 0.41866 0.89076 0.0
H392 H 0.28132 0.46536 0.8871 0.0
H393 H 0.39631 0.48908 0.93407 0.0
H394 H 0.34415 0.51893 0.87502 0.0
H395 H 0.33345 0.43537 0.94578 0.0
H396 H 0.05261 0.23347 0.88698 0.0
H397 H 0.92912 0.17747 0.84261 0.0
H398 H 1.00522 0.16557 0.89306 0.0
H399 H 0.97644 0.24555 0.83709 0.0
Eu400 Eu 0.2555 0.93728 0.63372 0.0
Eu401 Eu 0.21654 0.84869 0.61274 0.0
C402 C 0.26029 0.92234 0.57826 0.0
C403 C 0.26775 0.03481 0.64869 0.0
C404 C 0.23149 0.02443 0.63937 0.0
C405 C 0.27833 0.09826 0.65758 0.0
C406 C 0.21906 0.05106 0.63866 0.0
C407 C 0.29077 0.07162 0.65819 0.0
C408 C 0.24268 0.08861 0.64727 0.0
C409 C 0.28321 1.00893 0.64615 0.0
O410 O 0.27784 0.86619 0.61915 0.0
O411 O 0.3003 0.92085 0.64284 0.0
C412 C 0.3042 0.89311 0.63301 0.0
O413 O 0.21897 0.89816 0.66425 0.0
O414 O 0.21773 0.80612 0.58851 0.0
O415 O 0.16739 0.79086 0.61067 0.0
O416 O 0.22148 0.84432 0.65431 0.0
C417 C 0.21566 0.86515 0.67043 0.0
O418 O 0.19738 0.92299 0.61851 0.0
O419 O 0.16781 0.85761 0.62173 0.0
O420 O 0.22748 0.89012 0.58058 0.0
O421 O 0.27198 0.98106 0.66226 0.0
O422 O 0.28333 0.99759 0.6237 0.0
O423 O 0.28173 0.93644 0.59764 0.0
C424 C 0.17833 0.74056 0.60027 0.0
C425 C 0.20056 0.73441 0.61754 0.0
C426 C 0.14226 0.6722 0.59238 0.0
C427 C 0.19379 0.69719 0.62205 0.0
C428 C 0.14907 0.7092 0.5879 0.0
C429 C 0.16468 0.66563 0.60935 0.0
C430 C 0.18377 0.77889 0.59528 0.0
C431 C 0.1662 0.88898 0.61915 0.0
H432 H 0.21341 0.99618 0.63179 0.0
H433 H 0.29695 0.12664 0.66482 0.0
H434 H 0.19164 0.04266 0.63039 0.0
H435 H 0.31886 0.08014 0.66542 0.0
H436 H 0.22311 0.75832 0.62744 0.0
H437 H 0.11914 0.64863 0.58262 0.0
H438 H 0.21175 0.69323 0.63511 0.0
H439 H 0.13129 0.71333 0.57475 0.0
Eu440 Eu 0.66842 0.834 0.90782 0.0
Eu441 Eu 0.72134 0.80477 0.8793 0.0
C442 C 0.66885 0.82932 0.84867 0.0
C443 C 0.5943 0.86331 0.92256 0.0
C444 C 0.56821 0.83932 0.90474 0.0
C445 C 0.5575 0.89545 0.92718 0.0
C446 C 0.53677 0.84316 0.89836 0.0
C447 C 0.5888 0.89145 0.93364 0.0
C448 C 0.531 0.87128 0.90951 0.0
C449 C 0.62814 0.86042 0.92902 0.0
O450 O 0.7611 0.86308 0.89572 0.0
O451 O 0.71969 0.885 0.89138 0.0
C452 C 0.7547 0.89171 0.8933 0.0
O453 O 0.70496 0.82671 0.93707 0.0
O454 O 0.76152 0.81198 0.84993 0.0
O455 O 0.74812 0.76933 0.8784 0.0
O456 O 0.70782 0.77882 0.91709 0.0
C457 C 0.71113 0.79763 0.93731 0.0
O458 O 0.62972 0.77076 0.90309 0.0
O459 O 0.66066 0.75568 0.87303 0.0
O460 O 0.7016 0.83011 0.8498 0.0
O461 O 0.62272 0.82614 0.93305 0.0
O462 O 0.65864 0.88135 0.91574 0.0
O463 O 0.64759 0.82417 0.86831 0.0
C464 C 0.81177 0.80291 0.86396 0.0
C465 C 0.83647 0.84112 0.87089 0.0
C466 C 0.86464 0.79083 0.8672 0.0
C467 C 0.87498 0.85407 0.87598 0.0
C468 C 0.82623 0.77798 0.86201 0.0
C469 C 0.88943 0.82894 0.87447 0.0
C470 C 0.77065 0.7883 0.86 0.0
C471 C 0.63017 0.74728 0.88657 0.0
H472 H 0.57223 0.81773 0.89571 0.0
H473 H 0.55371 0.91707 0.93636 0.0
H474 H 0.5172 0.82437 0.88448 0.0
H475 H 0.60877 0.9104 0.94731 0.0
H476 H 0.82584 0.8608 0.87273 0.0
H477 H 0.87496 0.77085 0.86554 0.0
H478 H 0.89315 0.88345 0.88175 0.0
H479 H 0.80766 0.7484 0.85675 0.0
H480 H 0.07938 0.16098 0.12475 0.0
H481 H 0.29412 0.21812 0.15224 0.0
H482 H 0.15065 0.24531 0.17842 0.0
H483 H 0.21604 0.11026 0.11818 0.0
H484 H 0.24136 0.22901 0.1601 0.0
H485 H 0.12762 0.14153 0.12088 0.0
C486 C 0.10483 0.17507 0.13599 0.0
C487 C 0.11108 0.20526 0.15173 0.0
C488 C 0.23552 0.20281 0.15101 0.0
C489 C 0.1666 0.18349 0.147 0.0
C490 C 0.26576 0.19664 0.14635 0.0
C491 C 0.25958 0.16333 0.13432 0.0
C492 C 0.19854 0.17581 0.14333 0.0
C493 C 0.22204 0.13636 0.12746 0.0
C494 C 0.13242 0.16402 0.13365 0.0
C495 C 0.14487 0.2226 0.16559 0.0
N496 N 0.19288 0.14337 0.13182 0.0
N497 N 0.17139 0.21174 0.16272 0.0
H498 H 0.11978 0.92858 0.33068 0.0
H499 H 0.95973 0.7774 0.4233 0.0
H500 H 0.13989 0.91645 0.40752 0.0
H501 H 0.93369 0.80058 0.35019 0.0
H502 H 1.02611 0.82752 0.41727 0.0
H503 H 0.05207 0.8806 0.3367 0.0
C504 C 0.11 0.91574 0.34879 0.0
C505 C 0.1356 0.92661 0.36863 0.0
C506 C 1.00591 0.82183 0.40256 0.0
C507 C 0.05812 0.87183 0.37567 0.0
C508 C 0.9679 0.79313 0.40598 0.0
C509 C 0.941 0.78462 0.3872 0.0
C510 C 1.01743 0.84214 0.38009 0.0
C511 C 0.9534 0.80616 0.36519 0.0
C512 C 0.0713 0.88855 0.35225 0.0
C513 C 0.12118 0.90933 0.39175 0.0
N514 N 0.99077 0.83377 0.36218 0.0
N515 N 0.08354 0.88277 0.39459 0.0
H516 H 0.94009 0.12847 0.13327 0.0
H517 H 0.79156 0.90765 0.10484 0.0
H518 H 0.83184 0.08766 0.09685 0.0
H519 H 0.88212 0.94288 0.15808 0.0
H520 H 0.81279 0.97482 0.09628 0.0
H521 H 0.92616 0.06187 0.13691 0.0
C522 C 0.91377 0.10564 0.1257 0.0
C523 C 0.88695 0.11355 0.11493 0.0
C524 C 0.82814 0.96793 0.10979 0.0
C525 C 0.87085 0.03768 0.11903 0.0
C526 C 0.81614 0.92955 0.1146 0.0
C527 C 0.835 0.91959 0.13227 0.0
C528 C 0.85941 0.9968 0.12264 0.0
C529 C 0.86644 0.94929 0.14455 0.0
C530 C 0.9057 0.06767 0.12794 0.0
C531 C 0.85316 0.08285 0.10553 0.0
N532 N 0.87768 0.98659 0.13951 0.0
N533 N 0.84607 0.04639 0.10786 0.0
H534 H 0.27189 0.18663 0.42368 0.0
H535 H 0.1263 0.20197 0.33082 0.0
H536 H 0.2522 0.14256 0.3495 0.0
H537 H 0.13307 0.22803 0.40839 0.0
H538 H 0.1738 0.18206 0.33675 0.0
H539 H 0.22215 0.20328 0.41804 0.0
C540 C 0.257 0.18027 0.40622 0.0
C541 C 0.26637 0.16318 0.38703 0.0
C542 C 0.1648 0.19203 0.35249 0.0
C543 C 0.20937 0.18256 0.38036 0.0
C544 C 0.13787 0.20366 0.34908 0.0
C545 C 0.12563 0.21674 0.36913 0.0
C546 C 0.17996 0.19379 0.37608 0.0
C547 C 0.1413 0.21778 0.39244 0.0
C548 C 0.22854 0.1898 0.40301 0.0
C549 C 0.24595 0.15562 0.36484 0.0
N550 N 0.16769 0.20664 0.39523 0.0
N551 N 0.21861 0.16556 0.36206 0.0
H552 H 0.11281 0.93273 0.18474 0.0
H553 H 0.95689 0.77721 0.09387 0.0
H554 H 0.13732 0.91582 0.10984 0.0
H555 H 0.92856 0.80327 0.16527 0.0
H556 H 1.02322 0.82739 0.09973 0.0
H557 H 0.04555 0.88448 0.17849 0.0
C558 C 0.10409 0.91875 0.16702 0.0
C559 C 0.13081 0.92834 0.14779 0.0
C560 C 1.00251 0.82229 0.11409 0.0
C561 C 0.05376 0.87324 0.14045 0.0
C562 C 0.96454 0.79358 0.11076 0.0
C563 C 0.93703 0.78589 0.12913 0.0
C564 C 1.01327 0.84343 0.13603 0.0
C565 C 0.94875 0.80818 0.1506 0.0
C566 C 0.06563 0.8914 0.16341 0.0
C567 C 0.11771 0.90966 0.1251 0.0
N568 N 0.98601 0.83579 0.15351 0.0
N569 N 0.08021 0.88297 0.12211 0.0
H570 H 0.88306 0.93773 0.34589 0.0
H571 H 0.84655 0.08906 0.41785 0.0
H572 H 0.78964 0.90611 0.39688 0.0
H573 H 0.92504 0.12085 0.35635 0.0
H574 H 0.82992 0.02252 0.41293 0.0
H575 H 0.90302 1.0054 0.35182 0.0
C576 C 0.86683 0.94502 0.35839 0.0
C577 C 0.83453 0.91618 0.37084 0.0
C578 C 0.85085 0.04401 0.40052 0.0
C579 C 0.85723 0.99351 0.37772 0.0
C580 C 0.86052 0.08215 0.40338 0.0
C581 C 0.8872 0.11073 0.38744 0.0
C582 C 0.86806 0.03415 0.38166 0.0
C583 C 0.90424 0.09981 0.36902 0.0
C584 C 0.87813 0.98363 0.36168 0.0
C585 C 0.81439 0.92731 0.38665 0.0
N586 N 0.89436 0.06238 0.36662 0.0
N587 N 0.82613 0.96502 0.38968 0.0
H588 H 0.17109 0.0803 0.65276 0.0
H589 H 0.24317 0.30055 0.62151 0.0
H590 H 0.2879 0.16433 0.63437 0.0
H591 H 0.12407 0.21554 0.63193 0.0
H592 H 0.25977 0.25076 0.62688 0.0
H593 H 0.15305 0.12912 0.64606 0.0
C594 C 0.19296 0.10894 0.64728 0.0
C595 C 0.23117 0.11814 0.64424 0.0
C596 C 0.22996 0.24288 0.62791 0.0
C597 C 0.21067 0.17426 0.6367 0.0
C598 C 0.22043 0.27135 0.62483 0.0
C599 C 0.18214 0.26228 0.62629 0.0
C600 C 0.20108 0.20491 0.63265 0.0
C601 C 0.15396 0.22386 0.6306 0.0
C602 C 0.18262 0.13683 0.64353 0.0
C603 C 0.25826 0.15594 0.63741 0.0
N604 N 0.16401 0.19661 0.63373 0.0
N605 N 0.24749 0.18249 0.63389 0.0
H606 H 0.13856 0.94507 0.88326 0.0
H607 H 0.91605 0.79039 0.90189 0.0
H608 H 0.09428 0.83537 0.9197 0.0
H609 H 0.95479 0.89711 0.86266 0.0
H610 H 0.98209 0.81019 0.91155 0.0
H611 H 0.07256 0.93243 0.87899 0.0
C612 C 0.1151 0.91872 0.89072 0.0
C613 C 0.12187 0.89105 0.9016 0.0
C614 C 0.97633 0.82946 0.90086 0.0
C615 C 0.04669 0.87632 0.89667 0.0
C616 C 0.93852 0.81798 0.89519 0.0
C617 C 0.9298 0.84185 0.88114 0.0
C618 C 1.00605 0.86511 0.89237 0.0
C619 C 0.96019 0.87778 0.87355 0.0
C620 C 0.07747 0.91139 0.88814 0.0
C621 C 0.09043 0.85731 0.91086 0.0
N622 N 0.99701 0.88822 0.87908 0.0
N623 N 0.0544 0.85086 0.90805 0.0
H624 H 0.75725 0.94952 0.61715 0.0
H625 H 0.96831 0.09008 0.66596 0.0
H626 H 0.83292 0.90871 0.63934 0.0
H627 H 0.90177 0.1286 0.62579 0.0
H628 H 0.91868 0.02351 0.65822 0.0
H629 H 0.80942 1.01523 0.6218 0.0
C630 C 0.78493 0.95435 0.62293 0.0
C631 C 0.79065 0.92344 0.62791 0.0
C632 C 0.91508 0.04655 0.651 0.0
C633 C 0.85071 0.99902 0.63349 0.0
C634 C 0.94324 0.08453 0.65555 0.0
C635 C 0.93913 0.11499 0.64657 0.0
C636 C 0.88231 0.03892 0.63764 0.0
C637 C 0.9063 0.10609 0.6329 0.0
C638 C 0.81479 0.99198 0.62551 0.0
C639 C 0.82727 0.93161 0.63519 0.0
N640 N 0.87909 0.06895 0.62902 0.0
N641 N 0.85586 0.96864 0.63798 0.0
H642 H 0.21001 0.27519 0.91881 0.0
H643 H 0.18229 0.09313 0.84332 0.0
H644 H 0.13771 0.23267 0.85465 0.0
H645 H 0.26954 0.15255 0.89805 0.0
H646 H 0.16095 0.13977 0.84912 0.0
H647 H 0.22699 0.22582 0.91363 0.0
C648 C 0.19748 0.25534 0.90367 0.0
C649 C 0.17249 0.2583 0.88707 0.0
C650 C 0.18481 0.14258 0.85978 0.0
C651 C 0.19209 0.20146 0.88096 0.0
C652 C 0.19691 0.11593 0.85655 0.0
C653 C 0.22797 0.11915 0.87006 0.0
C654 C 0.20362 0.17231 0.87688 0.0
C655 C 0.24594 0.14932 0.8869 0.0
C656 C 0.20735 0.22717 0.90067 0.0
C657 C 0.15721 0.23159 0.86784 0.0
N658 N 0.23347 0.17459 0.88985 0.0
N659 N 0.16731 0.2043 0.86527 0.0
H660 H 0.14216 0.93957 0.63299 0.0
H661 H 0.92165 0.77735 0.61841 0.0
H662 H 0.10177 0.82717 0.60264 0.0
H663 H 0.95605 0.88856 0.64869 0.0
H664 H 0.9884 0.79814 0.60997 0.0
H665 H 0.07533 0.92509 0.63583 0.0
C666 C 0.11939 0.9122 0.62654 0.0
C667 C 0.12752 0.88439 0.6178 0.0
C668 C 0.98154 0.81819 0.61841 0.0
C669 C 0.05137 0.86755 0.62117 0.0
C670 C 0.94332 0.80616 0.62339 0.0
C671 C 0.93317 0.83103 0.63456 0.0
C672 C 1.01027 0.85542 0.62475 0.0
C673 C 0.96257 0.86843 0.64003 0.0
C674 C 0.08128 0.90384 0.62831 0.0
C675 C 0.0969 0.84931 0.60983 0.0
N676 N 0.99983 0.87941 0.63527 0.0
N677 N 0.06041 0.84189 0.61185 0.0
H678 H 0.97303 0.10337 0.87308 0.0
H679 H 0.749 0.95593 0.89051 0.0
H680 H 0.88597 0.13516 0.87396 0.0
H681 H 0.83285 0.91979 0.8917 0.0
H682 H 0.79991 0.02181 0.88524 0.0
H683 H 0.92344 0.03644 0.88057 0.0
C684 C 0.94356 0.09636 0.87493 0.0
C685 C 0.93371 0.12505 0.87274 0.0
C686 C 0.80739 0.99962 0.88668 0.0
C687 C 0.87683 0.04846 0.88118 0.0
C688 C 0.7782 0.96178 0.88972 0.0
C689 C 0.78651 0.93201 0.89141 0.0
C690 C 0.84551 1.00821 0.88523 0.0
C691 C 0.82506 0.94173 0.89037 0.0
C692 C 0.91527 0.05811 0.87911 0.0
C693 C 0.89497 0.1141 0.87505 0.0
N694 N 0.85318 0.97902 0.88724 0.0
N695 N 0.8681 0.07682 0.87912 0.0
H696 H 0.36998 0.22983 0.32376 0.0
H697 H 0.44883 0.2071 0.19301 0.0
H698 H 0.43394 0.17188 0.31376 0.0
H699 H 0.34373 0.2083 0.20225 0.0
H700 H 0.46084 0.21856 0.23756 0.0
H701 H 0.37774 0.24595 0.27946 0.0
C702 C 0.3866 0.22152 0.31238 0.0
C703 C 0.40101 0.19918 0.32226 0.0
C704 C 0.43575 0.21745 0.22965 0.0
C705 C 0.4102 0.21767 0.27195 0.0
C706 C 0.42912 0.2113 0.20429 0.0
C707 C 0.39535 0.20692 0.19417 0.0
C708 C 0.4086 0.21967 0.24471 0.0
C709 C 0.37014 0.21165 0.20952 0.0
C710 C 0.39083 0.23052 0.28716 0.0
C711 C 0.42203 0.18879 0.30673 0.0
N712 N 0.37713 0.21753 0.23409 0.0
N713 N 0.4258 0.1979 0.2823 0.0
H714 H 0.89579 0.6783 0.3206 0.0
H715 H 0.76863 0.61868 0.19944 0.0
H716 H 0.77256 0.61596 0.31926 0.0
H717 H 0.89183 0.68043 0.19674 0.0
H718 H 0.77085 0.60639 0.24324 0.0
H719 H 0.8965 0.66888 0.27576 0.0
C720 C 0.86897 0.66171 0.31098 0.0
C721 C 0.83405 0.6483 0.32345 0.0
C722 C 0.79754 0.62223 0.23316 0.0
C723 C 0.83456 0.63773 0.27251 0.0
C724 C 0.79622 0.62919 0.20811 0.0
C725 C 0.83008 0.65096 0.19463 0.0
C726 C 0.83304 0.63797 0.24509 0.0
C727 C 0.86509 0.66357 0.20661 0.0
C728 C 0.86935 0.65655 0.28542 0.0
C729 C 0.80009 0.62725 0.31022 0.0
N730 N 0.86573 0.65758 0.23137 0.0
N731 N 0.80121 0.62299 0.2855 0.0
H732 H 0.83618 0.24142 0.19039 0.0
H733 H 0.83218 0.14652 0.32114 0.0
H734 H 0.86445 0.15236 0.19902 0.0
H735 H 0.878 0.26797 0.31132 0.0
H736 H 0.81879 0.13776 0.2766 0.0
H737 H 0.82638 0.24012 0.23534 0.0
C738 C 0.83919 0.22085 0.20167 0.0
C739 C 0.85133 0.1971 0.19117 0.0
C740 C 0.8309 0.16614 0.2844 0.0
C741 C 0.83973 0.19515 0.24209 0.0
C742 C 0.83829 0.17111 0.30973 0.0
C743 C 0.85635 0.20803 0.31972 0.0
C744 C 0.84081 0.19821 0.26927 0.0
C745 C 0.86424 0.23909 0.30417 0.0
C746 C 0.83383 0.22029 0.22722 0.0
C747 C 0.85534 0.17128 0.20654 0.0
N748 N 0.85652 0.23353 0.27966 0.0
N749 N 0.84965 0.17103 0.23129 0.0
H750 H 0.20945 0.44169 0.69234 0.0
H751 H 0.23913 0.3657 0.82247 0.0
H752 H 0.21894 0.34071 0.70117 0.0
H753 H 0.17405 0.42263 0.81269 0.0
H754 H 0.25585 0.37567 0.77832 0.0
H755 H 0.2212 0.45401 0.73681 0.0
C756 C 0.21553 0.42304 0.70349 0.0
C757 C 0.21315 0.39012 0.69332 0.0
C758 C 0.23866 0.38674 0.78605 0.0
C759 C 0.22636 0.40379 0.74374 0.0
C760 C 0.22925 0.38119 0.81117 0.0
C761 C 0.20474 0.39288 0.82103 0.0
C762 C 0.22401 0.4047 0.77095 0.0
C763 C 0.19255 0.41268 0.80564 0.0
C764 C 0.22186 0.42984 0.7288 0.0
C765 C 0.22048 0.36634 0.7085 0.0
N766 N 0.20207 0.41774 0.7813 0.0
N767 N 0.22644 0.37343 0.73303 0.0
H768 H 0.16488 0.87888 0.82087 0.0
H769 H 0.23859 0.82386 0.69947 0.0
H770 H 0.23605 0.82777 0.82446 0.0
H771 H 0.17117 0.87919 0.70078 0.0
H772 H 0.23018 0.81452 0.74459 0.0
H773 H 0.15837 0.86809 0.77665 0.0
C774 C 0.17882 0.86492 0.8123 0.0
C775 C 0.20134 0.85456 0.82627 0.0
C776 C 0.21675 0.82813 0.73488 0.0
C777 C 0.1948 0.8428 0.77522 0.0
C778 C 0.22136 0.83325 0.70916 0.0
C779 C 0.20591 0.85272 0.69647 0.0
C780 C 0.19629 0.84233 0.74775 0.0
C781 C 0.18405 0.86453 0.70986 0.0
C782 C 0.17516 0.85878 0.78698 0.0
C783 C 0.21842 0.83618 0.81427 0.0
N784 N 0.18016 0.8594 0.73467 0.0
N785 N 0.21537 0.83145 0.78928 0.0
H786 H 0.67116 0.87686 0.69333 0.0
H787 H 0.6087 0.77152 0.82498 0.0
H788 H 0.63851 0.75868 0.70551 0.0
H789 H 0.69936 0.88858 0.81593 0.0
H790 H 0.5976 0.76803 0.78018 0.0
H791 H 0.65991 0.88215 0.73752 0.0
C792 C 0.66054 0.85181 0.7052 0.0
C793 C 0.65587 0.81736 0.69603 0.0
C794 C 0.61907 0.79482 0.78816 0.0
C795 C 0.64261 0.82298 0.74599 0.0
C796 C 0.62514 0.79691 0.81364 0.0
C797 C 0.65476 0.83046 0.82393 0.0
C798 C 0.6425 0.82669 0.77312 0.0
C799 C 0.67608 0.86234 0.80853 0.0
C800 C 0.65433 0.85487 0.7303 0.0
C801 C 0.64256 0.78576 0.71205 0.0
N802 N 0.6697 0.85965 0.7838 0.0
N803 N 0.6365 0.78933 0.73631 0.0
H804 H 0.31923 0.96208 0.96508 0.0
H805 H 0.27649 0.09695 0.05032 0.0
H806 H 0.20513 0.94351 0.9726 0.0
H807 H 0.36917 0.07567 0.06337 0.0
H808 H 0.25296 0.04823 0.01743 0.0
H809 H 0.34066 1.00991 0.9977 0.0
C810 C 0.29853 0.96763 0.97399 0.0
C811 C 0.26025 0.94837 0.96646 0.0
C812 C 0.27863 0.0546 0.0274 0.0
C813 C 0.2849 1.00436 1.00321 0.0
C814 C 0.29234 0.08273 0.04583 0.0
C815 C 0.32506 0.09059 0.0593 0.0
C816 C 0.29823 0.03483 0.02227 0.0
C817 C 0.34402 0.07066 0.05327 0.0
C818 C 0.31081 0.99513 0.99248 0.0
C819 C 0.23473 0.95718 0.97828 0.0
N820 N 0.33047 0.04393 0.0352 0.0
N821 N 0.24759 0.98492 0.99592 0.0
H822 H 0.78711 0.67429 0.48049 0.0
H823 H 0.74761 0.83436 0.53847 0.0
H824 H 0.82432 0.7842 0.44588 0.0
H825 H 0.70767 0.72225 0.57043 0.0
H826 H 0.77548 0.81695 0.50398 0.0
H827 H 0.75917 0.69247 0.5142 0.0
C828 C 0.78983 0.70238 0.4801 0.0
C829 C 0.80812 0.72765 0.46027 0.0
C830 C 0.7604 0.79615 0.51853 0.0
C831 C 0.77565 0.74857 0.49866 0.0
C832 C 0.74423 0.80601 0.53808 0.0
C833 C 0.72542 0.77987 0.55746 0.0
C834 C 0.75766 0.75993 0.5184 0.0
C835 C 0.7222 0.74357 0.55607 0.0
C836 C 0.77361 0.71269 0.49927 0.0
C837 C 0.81044 0.76365 0.46073 0.0
N838 N 0.73824 0.73482 0.53705 0.0
N839 N 0.79433 0.77295 0.47951 0.0
H840 H 0.05446 0.25599 0.94302 0.0
H841 H 0.99264 0.31794 0.06686 0.0
H842 H 0.12207 0.36669 0.97683 0.0
H843 H 0.92511 0.20665 0.03383 0.0
H844 H 0.03926 0.33643 0.03358 0.0
H845 H 1.0073 0.23735 0.97603 0.0
C846 C 0.05967 0.27636 0.95753 0.0
C847 C 0.09249 0.31311 0.95707 0.0
C848 C 1.01421 0.30802 0.03346 0.0
C849 C 0.03787 0.29179 0.995 0.0
C850 C 0.98736 0.29739 0.05245 0.0
C851 C 0.95478 0.26053 0.05324 0.0
C852 C 1.00878 0.28167 0.01495 0.0
C853 C 0.94963 0.23537 0.03395 0.0
C854 C 0.03249 0.26565 0.97636 0.0
C855 C 0.09741 0.33806 0.97644 0.0
N856 N 0.97647 0.24633 0.01567 0.0
N857 N 0.07032 0.327 0.99453 0.0
H858 H 0.26542 0.04234 0.44295 0.0
H859 H 0.32999 0.98411 0.56765 0.0
H860 H 0.37472 0.11292 0.47763 0.0
H861 H 0.21671 0.91704 0.53742 0.0
H862 H 0.34732 0.02952 0.53361 0.0
H863 H 0.24734 0.99565 0.4765 0.0
C864 C 0.2856 0.04827 0.45772 0.0
C865 C 0.32179 0.08182 0.45738 0.0
C866 C 0.3187 1.00485 0.53426 0.0
C867 C 0.30115 0.02782 0.49591 0.0
C868 C 0.30874 0.97865 0.5537 0.0
C869 C 0.27168 0.94657 0.55552 0.0
C870 C 0.29153 0.99924 0.51629 0.0
C871 C 0.24561 0.94119 0.53674 0.0
C872 C 0.2752 0.0214 0.47687 0.0
C873 C 0.34652 0.08768 0.47711 0.0
N874 N 0.25598 0.96737 0.51797 0.0
N875 N 0.33582 0.06089 0.49546 0.0
H876 H 0.78149 0.67635 0.03737 0.0
H877 H 0.74317 0.83843 0.9801 0.0
H878 H 0.82325 0.78759 0.06999 0.0
H879 H 0.70927 0.73017 0.9453 0.0
H880 H 0.77042 0.81959 0.01426 0.0
H881 H 0.75429 0.69551 1.00357 0.0
C882 C 0.78535 0.7049 0.0373 0.0
C883 C 0.8046 0.73025 0.05664 0.0
C884 C 0.75685 0.79995 0.99915 0.0
C885 C 0.77295 0.75227 0.01822 0.0
C886 C 0.74103 0.81061 0.97977 0.0
C887 C 0.72402 0.78599 0.95973 0.0
C888 C 0.75547 0.76437 0.99851 0.0
C889 C 0.72235 0.75032 0.96022 0.0
C890 C 0.76956 0.71579 0.01809 0.0
C891 C 0.8084 0.76688 0.05562 0.0
N892 N 0.7379 0.7407 0.97916 0.0
N893 N 0.7926 0.77668 0.03687 0.0
H894 H 0.03862 0.30478 0.57978 0.0
H895 H 1.01141 0.24007 0.439 0.0
H896 H 0.13126 0.31486 0.53453 0.0
H897 H 0.92712 0.25261 0.48036 0.0
H898 H 0.0539 0.263 0.47438 0.0
H899 H 0.99664 0.28209 0.54431 0.0
C900 C 0.0503 0.30223 0.56236 0.0
C901 C 0.08878 0.31172 0.56027 0.0
C902 C 1.02613 0.26072 0.47577 0.0
C903 C 0.0401 0.28536 0.51925 0.0
C904 C 1.00159 0.2474 0.45557 0.0
C905 C 0.96535 0.24427 0.45661 0.0
C906 C 1.0145 0.27087 0.4974 0.0
C907 C 0.95463 0.25442 0.47867 0.0
C908 C 1.02612 0.2893 0.54204 0.0
C909 C 0.10193 0.30797 0.53705 0.0
N910 N 0.97907 0.26721 0.49818 0.0
N911 N 0.07757 0.29488 0.51746 0.0
H912 H 0.6092 0.10189 0.12156 0.0
H913 H 0.49246 0.21244 0.11895 0.0
H914 H 0.66103 0.22431 0.1122 0.0
H915 H 0.44114 0.09487 0.14351 0.0
H916 H 0.5544 0.21656 0.11709 0.0
H917 H 0.54766 0.09775 0.12998 0.0
C918 C 0.60769 0.12791 0.12131 0.0
C919 C 0.64041 0.16351 0.116 0.0
C920 C 0.52979 0.18986 0.12308 0.0
C921 C 0.57003 0.15893 0.12574 0.0
C922 C 0.49428 0.18743 0.12408 0.0
C923 C 0.46147 0.15311 0.1312 0.0
C924 C 0.5328 0.15758 0.12888 0.0
C925 C 0.46573 0.12185 0.13794 0.0
C926 C 0.57259 0.12552 0.1263 0.0
C927 C 0.63678 0.19629 0.11635 0.0
N928 N 0.50073 0.12466 0.13631 0.0
N929 N 0.60227 0.19314 0.12091 0.0
H930 H 0.68716 0.61085 0.40343 0.0
H931 H 0.58961 0.3817 0.39854 0.0
H932 H 0.74779 0.55037 0.38919 0.0
H933 H 0.52723 0.43818 0.419 0.0
H934 H 0.64679 0.44413 0.39239 0.0
H935 H 0.62733 0.54884 0.40678 0.0
C936 C 0.68792 0.58467 0.40088 0.0
C937 C 0.72269 0.58596 0.39614 0.0
C938 C 0.62062 0.44299 0.39818 0.0
C939 C 0.65446 0.51502 0.39993 0.0
C940 C 0.58778 0.40722 0.40153 0.0
C941 C 0.55337 0.40448 0.4093 0.0
C942 C 0.61935 0.4766 0.40258 0.0
C943 C 0.55318 0.4388 0.4133 0.0
C944 C 0.65379 0.54928 0.40286 0.0
C945 C 0.72187 0.55102 0.39304 0.0
N946 N 0.58562 0.47339 0.40991 0.0
N947 N 0.68848 0.51719 0.39501 0.0
H948 H 0.83463 0.29839 0.1276 0.0
H949 H 0.94945 0.52712 0.12058 0.0
H950 H 0.95688 0.36502 0.13691 0.0
H951 H 0.8265 0.45677 0.1183 0.0
H952 H 0.95354 0.4696 0.12925 0.0
H953 H 0.83175 0.35705 0.12723 0.0
C954 C 0.86093 0.32551 0.12981 0.0
C955 C 0.89611 0.32686 0.13209 0.0
C956 C 0.92569 0.46685 0.12702 0.0
C957 C 0.89312 0.39468 0.13129 0.0
C958 C 0.9233 0.49969 0.12214 0.0
C959 C 0.88755 0.49681 0.11843 0.0
C960 C 0.89211 0.43084 0.12821 0.0
C961 C 0.85471 0.4604 0.12048 0.0
C962 C 0.85927 0.35909 0.12958 0.0
C963 C 0.92918 0.36276 0.13515 0.0
N964 N 0.85782 0.42899 0.12509 0.0
N965 N 0.92697 0.39539 0.13432 0.0
H966 H 0.44068 0.08393 0.3974 0.0
H967 H 0.66935 0.21898 0.39595 0.0
H968 H 0.50046 0.20671 0.38692 0.0
H969 H 0.61278 0.09794 0.41272 0.0
H970 H 0.60713 0.2134 0.38968 0.0
H971 H 0.50273 0.08687 0.40036 0.0
C972 C 0.46673 0.11141 0.39556 0.0
C973 C 0.4652 0.1451 0.39202 0.0
C974 C 0.60822 0.18797 0.39467 0.0
C975 C 0.53624 0.14869 0.3954 0.0
C976 C 0.64388 0.19111 0.3981 0.0
C977 C 0.64653 0.15892 0.40491 0.0
C978 C 0.57463 0.15235 0.39803 0.0
C979 C 0.61224 0.12368 0.40781 0.0
C980 C 0.50214 0.11309 0.39733 0.0
C981 C 0.49999 0.17993 0.38982 0.0
N982 N 0.57778 0.12134 0.40438 0.0
N983 N 0.53387 0.18077 0.39158 0.0
H984 H 0.52954 0.44226 0.08254 0.0
H985 H 0.74011 0.55464 0.13815 0.0
H986 H 0.57635 0.38979 0.12989 0.0
H987 H 0.68536 0.61337 0.10713 0.0
H988 H 0.68063 0.49391 0.13395 0.0
H989 H 0.58621 0.50479 0.09005 0.0
C990 C 0.55148 0.44377 0.09467 0.0
C991 C 0.54797 0.41034 0.10549 0.0
C992 C 0.68141 0.52002 0.12818 0.0
C993 C 0.61339 0.48212 0.11383 0.0
C994 C 0.71547 0.55481 0.13053 0.0
C995 C 0.71783 0.58924 0.12289 0.0
C996 C 0.64931 0.51928 0.1178 0.0
C997 C 0.68479 0.58755 0.11332 0.0
C998 C 0.58394 0.47957 0.09886 0.0
C999 C 0.57787 0.41438 0.12069 0.0
N1000 N 0.65196 0.55308 0.11082 0.0
N1001 N 0.60925 0.44945 0.12428 0.0
H1002 H 0.95824 0.52561 0.41642 0.0
H1003 H 0.84806 0.30373 0.37987 0.0
H1004 H 0.84021 0.46214 0.3938 0.0
H1005 H 0.96772 0.36521 0.39896 0.0
H1006 H 0.8462 0.36265 0.38361 0.0
H1007 H 0.9635 0.46856 0.40935 0.0
C1008 C 0.93339 0.49972 0.41 0.0
C1009 C 0.89865 0.49882 0.40578 0.0
C1010 C 0.87299 0.36349 0.3869 0.0
C1011 C 0.90466 0.43337 0.39744 0.0
C1012 C 0.87412 0.3297 0.38477 0.0
C1013 C 0.90811 0.32931 0.38924 0.0
C1014 C 0.90602 0.3975 0.39372 0.0
C1015 C 0.9409 0.36411 0.39533 0.0
C1016 C 0.93653 0.46721 0.40583 0.0
C1017 C 0.8677 0.46453 0.39706 0.0
N1018 N 0.93899 0.39677 0.39757 0.0
N1019 N 0.87141 0.4333 0.39331 0.0
H1020 H 0.14837 0.61132 0.57423 0.0
H1021 H 0.14015 0.45056 0.66605 0.0
H1022 H 0.16613 0.62954 0.65265 0.0
H1023 H 0.12767 0.44013 0.58698 0.0
H1024 H 0.14412 0.51347 0.66304 0.0
H1025 H 0.1361 0.54642 0.5799 0.0
C1026 C 0.1494 0.6016 0.59274 0.0
C1027 C 0.15808 0.62606 0.613 0.0
C1028 C 0.14007 0.49711 0.64643 0.0
C1029 C 0.14448 0.55117 0.61967 0.0
C1030 C 0.13745 0.46111 0.64817 0.0
C1031 C 0.13373 0.44021 0.62672 0.0
C1032 C 0.13874 0.51194 0.62308 0.0
C1033 C 0.13086 0.45538 0.60399 0.0
C1034 C 0.14255 0.56441 0.59597 0.0
C1035 C 0.15985 0.61185 0.63646 0.0
N1036 N 0.1336 0.49022 0.60279 0.0
N1037 N 0.15311 0.57533 0.63916 0.0
H1038 H 0.37031 0.95149 0.88088 0.0
H1039 H 0.4572 0.81347 0.90252 0.0
H1040 H 0.30326 0.83076 0.89813 0.0
H1041 H 0.52695 0.93682 0.90247 0.0
H1042 H 0.40109 0.81928 0.89431 0.0
H1043 H 0.42853 0.94655 0.88221 0.0
C1044 C 0.36778 0.92391 0.88458 0.0
C1045 C 0.33193 0.89157 0.88959 0.0
C1046 C 0.42867 0.84513 0.89598 0.0
C1047 C 0.39809 0.8857 0.89114 0.0
C1048 C 0.46083 0.84182 0.90052 0.0
C1049 C 0.49693 0.87469 0.90332 0.0
C1050 C 0.43242 0.8816 0.8941 0.0
C1051 C 0.49962 0.91069 0.90082 0.0
C1052 C 0.40098 0.92115 0.8855 0.0
C1053 C 0.33032 0.85657 0.89443 0.0
N1054 N 0.46782 0.9132 0.8964 0.0
N1055 N 0.36281 0.85462 0.89513 0.0
H1056 H 0.56228 0.72958 0.64163 0.0
H1057 H 0.44455 0.51301 0.59852 0.0
H1058 H 0.61801 0.66473 0.62676 0.0
H1059 H 0.39379 0.56964 0.63715 0.0
H1060 H 0.50824 0.5675 0.6077 0.0
H1061 H 0.50032 0.67076 0.63967 0.0
C1062 C 0.5614 0.70271 0.63829 0.0
C1063 C 0.59525 0.70193 0.63439 0.0
C1064 C 0.48313 0.56771 0.6144 0.0
C1065 C 0.52416 0.63435 0.63149 0.0
C1066 C 0.44678 0.53677 0.60903 0.0
C1067 C 0.41369 0.53672 0.61703 0.0
C1068 C 0.48642 0.59913 0.62751 0.0
C1069 C 0.41837 0.56816 0.63078 0.0
C1070 C 0.526 0.66911 0.63715 0.0
C1071 C 0.59252 0.66641 0.63008 0.0
N1072 N 0.45392 0.59814 0.63534 0.0
N1073 N 0.55749 0.63401 0.62834 0.0
H1074 H 0.10749 0.60048 0.93068 0.0
H1075 H 0.20889 0.4899 0.87772 0.0
H1076 H 0.21138 0.65496 0.88722 0.0
H1077 H 0.09311 0.43053 0.90572 0.0
H1078 H 0.21041 0.55059 0.88207 0.0
H1079 H 0.10179 0.53828 0.92279 0.0
C1080 C 0.12898 0.59947 0.91932 0.0
C1081 C 0.16007 0.63333 0.90967 0.0
C1082 C 0.18453 0.52435 0.88713 0.0
C1083 C 0.1539 0.56192 0.9009 0.0
C1084 C 0.18363 0.48958 0.88469 0.0
C1085 C 0.15084 0.45499 0.89147 0.0
C1086 C 0.15257 0.52487 0.89672 0.0
C1087 C 0.11894 0.45648 0.90022 0.0
C1088 C 0.12573 0.56386 0.91491 0.0
C1089 C 0.1873 0.62995 0.89546 0.0
N1090 N 0.12072 0.49092 0.90282 0.0
N1091 N 0.18364 0.59502 0.89161 0.0
H1092 H 0.37836 0.95309 0.63833 0.0
H1093 H 0.46442 0.81323 0.62415 0.0
H1094 H 0.31115 0.82983 0.63445 0.0
H1095 H 0.53378 0.93614 0.61668 0.0
H1096 H 0.40935 0.82002 0.63381 0.0
H1097 H 0.43692 0.94869 0.63673 0.0
C1098 C 0.37593 0.92515 0.63765 0.0
C1099 C 0.33987 0.8918 0.63633 0.0
C1100 C 0.4366 0.8456 0.63015 0.0
C1101 C 0.40637 0.88654 0.63433 0.0
C1102 C 0.46809 0.8417 0.62447 0.0
C1103 C 0.5038 0.87409 0.61922 0.0
C1104 C 0.4405 0.8822 0.63059 0.0
C1105 C 0.50687 0.91034 0.62062 0.0
C1106 C 0.40929 0.92265 0.63653 0.0
C1107 C 0.33834 0.85633 0.63524 0.0
N1108 N 0.47558 0.91341 0.62597 0.0
N1109 N 0.37097 0.85468 0.63414 0.0
H1110 H 0.56028 0.73974 0.88423 0.0
H1111 H 0.44565 0.51274 0.90195 0.0
H1112 H 0.61653 0.67327 0.88146 0.0
H1113 H 0.39227 0.58093 0.89035 0.0
H1114 H 0.50819 0.56968 0.89355 0.0
H1115 H 0.49851 0.68082 0.88477 0.0
C1116 C 0.55951 0.71255 0.88343 0.0
C1117 C 0.59351 0.71131 0.88287 0.0
C1118 C 0.48273 0.57203 0.89261 0.0
C1119 C 0.52254 0.64329 0.88402 0.0
C1120 C 0.44701 0.53961 0.89759 0.0
C1121 C 0.4135 0.54197 0.897 0.0
C1122 C 0.48507 0.60722 0.88722 0.0
C1123 C 0.4171 0.57748 0.89084 0.0
C1124 C 0.52418 0.67884 0.88376 0.0
C1125 C 0.59091 0.67538 0.88176 0.0
N1126 N 0.45213 0.6086 0.88641 0.0
N1127 N 0.55595 0.64265 0.88274 0.0
loop_
_geom_bond_atom_site_label_1
_geom_bond_atom_site_label_2
_geom_bond_distance
_geom_bond_site_symmetry_2
_ccdc_geom_bond_type
Eu0 C9 2.828 . S
Eu0 O11 2.392 . S
Eu0 O13 2.418 . S
Eu0 O18 2.373 . S
Eu0 O21 2.488 . S
Eu0 O22 2.471 . S
Eu0 O23 2.349 . S
Eu1 O10 2.373 . S
Eu1 O14 2.488 . S
Eu1 O15 2.471 . S
Eu1 O16 2.349 . S
Eu1 O19 2.392 . S
Eu1 O20 2.418 . S
Eu1 C30 2.828 . S
C2 O20 1.244 . S
C2 O23 1.265 . S
C3 C4 1.379 . S
C3 C7 1.373 . S
C3 C9 1.505 . S
C4 C3 1.379 . S
C4 C6 1.369 . S
C4 H32 0.930 . S
C5 C7 1.383 . S
C5 C8 1.382 . S
C5 H33 0.930 . S
C6 C4 1.369 . S
C6 C8 1.392 . S
C6 H34 0.930 . S
C7 C3 1.373 . S
C7 C5 1.383 . S
C7 H35 0.931 . S
C8 C5 1.382 . S
C8 C6 1.392 . S
C9 Eu0 2.828 . S
C9 C3 1.505 . S
C9 O21 1.249 . S
C9 O22 1.244 . S
O10 Eu1 2.373 . S
O10 C12 1.258 . S
O11 Eu0 2.392 . S
O11 C12 1.242 . S
C12 O10 1.258 . S
C12 O11 1.242 . S
O13 Eu0 2.418 . S
O13 C17 1.244 . S
O14 Eu1 2.488 . S
O14 C30 1.249 . S
O15 Eu1 2.471 . S
O15 C30 1.244 . S
O16 Eu1 2.349 . S
O16 C17 1.265 . S
C17 O13 1.244 . S
C17 O16 1.265 . S
O18 Eu0 2.373 . S
O18 C31 1.258 . S
O19 Eu1 2.392 . S
O19 C31 1.242 . S
O20 Eu1 2.418 . S
O20 C2 1.244 . S
O21 Eu0 2.488 . S
O21 C9 1.249 . S
O22 Eu0 2.471 . S
O22 C9 1.244 . S
O23 Eu0 2.349 . S
O23 C2 1.265 . S
C24 C25 1.379 . S
C24 C28 1.373 . S
C24 C30 1.505 1_565 S
C25 C24 1.379 . S
C25 C27 1.369 . S
C25 H36 0.937 . S
C26 C28 1.383 . S
C26 C29 1.382 . S
C26 H37 0.930 . S
C27 C25 1.369 . S
C27 C29 1.392 . S
C27 H38 0.930 . S
C28 C24 1.373 . S
C28 C26 1.383 . S
C28 H39 0.931 . S
C29 C26 1.382 . S
C29 C27 1.392 . S
C30 Eu1 2.828 . S
C30 O14 1.249 . S
C30 O15 1.244 . S
C30 C24 1.505 1_545 S
C31 O18 1.258 . S
C31 O19 1.242 . S
H32 C4 0.930 . S
H33 C5 0.930 . S
H34 C6 0.930 . S
H35 C7 0.931 . S
H36 C25 0.937 . S
H37 C26 0.930 . S
H38 C27 0.930 . S
H39 C28 0.931 . S
Eu40 C49 2.828 . S
Eu40 O51 2.392 . S
Eu40 O53 2.418 . S
Eu40 O58 2.373 . S
Eu40 O61 2.488 . S
Eu40 O62 2.471 . S
Eu40 O63 2.349 . S
Eu41 O50 2.373 . S
Eu41 O54 2.488 . S
Eu41 O55 2.471 . S
Eu41 O56 2.349 . S
Eu41 O59 2.392 . S
Eu41 O60 2.418 . S
Eu41 C70 2.828 . S
C42 O60 1.244 . S
C42 O63 1.265 . S
C43 C44 1.379 . S
C43 C47 1.373 . S
C43 C49 1.505 . S
C44 C43 1.379 . S
C44 C46 1.369 . S
C44 H72 0.930 . S
C45 C47 1.383 . S
C45 C48 1.382 . S
C45 H73 0.930 . S
C46 C44 1.369 . S
C46 C48 1.392 . S
C46 H74 0.930 . S
C47 C43 1.373 . S
C47 C45 1.383 . S
C47 H75 0.931 . S
C48 C45 1.382 . S
C48 C46 1.392 . S
C49 Eu40 2.828 . S
C49 C43 1.505 . S
C49 O61 1.249 . S
C49 O62 1.244 . S
O50 Eu41 2.373 . S
O50 C52 1.258 . S
O51 Eu40 2.392 . S
O51 C52 1.242 . S
C52 O50 1.258 . S
C52 O51 1.242 . S
O53 Eu40 2.418 . S
O53 C57 1.244 . S
O54 Eu41 2.488 . S
O54 C70 1.249 . S
O55 Eu41 2.471 . S
O55 C70 1.244 . S
O56 Eu41 2.349 . S
O56 C57 1.265 . S
C57 O53 1.244 . S
C57 O56 1.265 . S
O58 Eu40 2.373 . S
O58 C71 1.258 . S
O59 Eu41 2.392 . S
O59 C71 1.242 . S
O60 Eu41 2.418 . S
O60 C42 1.244 . S
O61 Eu40 2.488 . S
O61 C49 1.249 . S
O62 Eu40 2.471 . S
O62 C49 1.244 . S
O63 Eu40 2.349 . S
O63 C42 1.265 . S
C64 C65 1.379 . S
C64 C68 1.373 . S
C64 C70 1.505 . S
C65 C64 1.379 . S
C65 C67 1.369 . S
C65 H76 0.930 . S
C66 C68 1.383 . S
C66 C69 1.382 . S
C66 H77 0.930 . S
C67 C65 1.369 . S
C67 C69 1.392 . S
C67 H78 0.930 . S
C68 C64 1.373 . S
C68 C66 1.383 . S
C68 H79 0.931 . S
C69 C66 1.382 . S
C69 C67 1.392 . S
C70 Eu41 2.828 . S
C70 O54 1.249 . S
C70 O55 1.244 . S
C70 C64 1.505 . S
C71 O58 1.258 . S
C71 O59 1.242 . S
H72 C44 0.930 . S
H73 C45 0.930 . S
H74 C46 0.930 . S
H75 C47 0.931 . S
H76 C65 0.930 . S
H77 C66 0.930 . S
H78 C67 0.930 . S
H79 C68 0.931 . S
Eu80 C89 2.828 . S
Eu80 O91 2.392 . S
Eu80 O93 2.418 . S
Eu80 O98 2.373 . S
Eu80 O101 2.488 . S
Eu80 O102 2.471 . S
Eu80 O103 2.349 . S
Eu81 O90 2.373 . S
Eu81 O94 2.488 . S
Eu81 O95 2.471 . S
Eu81 O96 2.349 . S
Eu81 O99 2.392 . S
Eu81 O100 2.418 . S
Eu81 C110 2.828 . S
C82 O100 1.244 . S
C82 O103 1.265 . S
C83 C84 1.379 . S
C83 C87 1.373 . S
C83 C89 1.505 . S
C84 C83 1.379 . S
C84 C86 1.369 . S
C84 H112 0.930 . S
C85 C87 1.383 . S
C85 C88 1.382 . S
C85 H113 0.930 . S
C86 C84 1.369 . S
C86 C88 1.392 . S
C86 H114 0.930 . S
C87 C83 1.373 . S
C87 C85 1.383 . S
C87 H115 0.931 . S
C88 C85 1.382 . S
C88 C86 1.392 . S
C89 Eu80 2.828 . S
C89 C83 1.505 . S
C89 O101 1.249 . S
C89 O102 1.244 . S
O90 Eu81 2.373 . S
O90 C92 1.258 . S
O91 Eu80 2.392 . S
O91 C92 1.242 . S
C92 O90 1.258 . S
C92 O91 1.242 . S
O93 Eu80 2.418 . S
O93 C97 1.244 . S
O94 Eu81 2.488 . S
O94 C110 1.249 . S
O95 Eu81 2.471 . S
O95 C110 1.244 . S
O96 Eu81 2.349 . S
O96 C97 1.265 . S
C97 O93 1.244 . S
C97 O96 1.265 . S
O98 Eu80 2.373 . S
O98 C111 1.258 . S
O99 Eu81 2.392 . S
O99 C111 1.242 . S
O100 Eu81 2.418 . S
O100 C82 1.244 . S
O101 Eu80 2.488 . S
O101 C89 1.249 . S
O102 Eu80 2.471 . S
O102 C89 1.244 . S
O103 Eu80 2.349 . S
O103 C82 1.265 . S
C104 C105 1.379 . S
C104 C108 1.373 . S
C104 C110 1.505 1_455 S
C105 C104 1.379 . S
C105 C107 1.369 . S
C105 H116 0.941 . S
C106 C108 1.383 . S
C106 C109 1.382 . S
C106 H117 0.930 . S
C107 C105 1.369 . S
C107 C109 1.392 . S
C107 H118 0.930 . S
C108 C104 1.373 . S
C108 C106 1.383 . S
C108 H119 0.931 . S
C109 C106 1.382 . S
C109 C107 1.392 . S
C110 Eu81 2.828 . S
C110 O94 1.249 . S
C110 O95 1.244 . S
C110 C104 1.505 1_655 S
C111 O98 1.258 . S
C111 O99 1.242 . S
H112 C84 0.930 . S
H113 C85 0.930 . S
H114 C86 0.930 . S
H115 C87 0.931 . S
H116 C105 0.941 . S
H117 C106 0.930 . S
H118 C107 0.930 . S
H119 C108 0.931 . S
Eu120 C129 2.828 . S
Eu120 O131 2.392 . S
Eu120 O133 2.418 . S
Eu120 O138 2.373 . S
Eu120 O141 2.488 . S
Eu120 O142 2.471 . S
Eu120 O143 2.349 . S
Eu121 O130 2.373 . S
Eu121 O134 2.488 . S
Eu121 O135 2.471 . S
Eu121 O136 2.349 . S
Eu121 O139 2.392 . S
Eu121 O140 2.418 . S
Eu121 C150 2.828 . S
C122 O140 1.244 . S
C122 O143 1.265 . S
C123 C124 1.379 . S
C123 C127 1.373 . S
C123 C129 1.505 1_565 S
C124 C123 1.379 . S
C124 C126 1.369 . S
C124 H152 0.937 . S
C125 C127 1.383 . S
C125 C128 1.382 . S
C125 H153 0.930 . S
C126 C124 1.369 . S
C126 C128 1.392 . S
C126 H154 0.930 . S
C127 C123 1.373 . S
C127 C125 1.383 . S
C127 H155 0.931 . S
C128 C125 1.382 . S
C128 C126 1.392 . S
C129 Eu120 2.828 . S
C129 C123 1.505 1_545 S
C129 O141 1.249 . S
C129 O142 1.244 . S
O130 Eu121 2.373 . S
O130 C132 1.258 . S
O131 Eu120 2.392 . S
O131 C132 1.242 . S
C132 O130 1.258 . S
C132 O131 1.242 . S
O133 Eu120 2.418 . S
O133 C137 1.244 . S
O134 Eu121 2.488 . S
O134 C150 1.249 . S
O135 Eu121 2.471 . S
O135 C150 1.244 . S
O136 Eu121 2.349 . S
O136 C137 1.265 . S
C137 O133 1.244 . S
C137 O136 1.265 . S
O138 Eu120 2.373 . S
O138 C151 1.258 . S
O139 Eu121 2.392 . S
O139 C151 1.242 . S
O140 Eu121 2.418 . S
O140 C122 1.244 . S
O141 Eu120 2.488 . S
O141 C129 1.249 . S
O142 Eu120 2.471 . S
O142 C129 1.244 . S
O143 Eu120 2.349 . S
O143 C122 1.265 . S
C144 C145 1.379 . S
C144 C148 1.373 . S
C144 C150 1.505 . S
C145 C144 1.379 . S
C145 C147 1.369 . S
C145 H156 0.930 . S
C146 C148 1.383 . S
C146 C149 1.382 . S
C146 H157 0.930 . S
C147 C145 1.369 . S
C147 C149 1.392 . S
C147 H158 0.930 . S
C148 C144 1.373 . S
C148 C146 1.383 . S
C148 H159 0.931 . S
C149 C146 1.382 . S
C149 C147 1.392 . S
C150 Eu121 2.828 . S
C150 O134 1.249 . S
C150 O135 1.244 . S
C150 C144 1.505 . S
C151 O138 1.258 . S
C151 O139 1.242 . S
H152 C124 0.937 . S
H153 C125 0.930 . S
H154 C126 0.930 . S
H155 C127 0.931 . S
H156 C145 0.930 . S
H157 C146 0.930 . S
H158 C147 0.930 . S
H159 C148 0.931 . S
Eu160 C169 2.828 . S
Eu160 O171 2.392 . S
Eu160 O173 2.418 . S
Eu160 O178 2.373 . S
Eu160 O181 2.488 . S
Eu160 O182 2.471 . S
Eu160 O183 2.349 . S
Eu161 O170 2.373 . S
Eu161 O174 2.488 . S
Eu161 O175 2.471 . S
Eu161 O176 2.349 . S
Eu161 O179 2.392 . S
Eu161 O180 2.418 . S
Eu161 C190 2.828 . S
C162 O180 1.244 . S
C162 O183 1.265 . S
C163 C164 1.379 . S
C163 C167 1.373 . S
C163 C169 1.505 . S
C164 C163 1.379 . S
C164 C166 1.369 . S
C164 H192 0.930 . S
C165 C167 1.383 . S
C165 C168 1.382 . S
C165 H193 0.930 . S
C166 C164 1.369 . S
C166 C168 1.392 . S
C166 H194 0.930 . S
C167 C163 1.373 . S
C167 C165 1.383 . S
C167 H195 0.931 . S
C168 C165 1.382 . S
C168 C166 1.392 . S
C169 Eu160 2.828 . S
C169 C163 1.505 . S
C169 O181 1.249 . S
C169 O182 1.244 . S
O170 Eu161 2.373 . S
O170 C172 1.258 . S
O171 Eu160 2.392 . S
O171 C172 1.242 . S
C172 O170 1.258 . S
C172 O171 1.242 . S
O173 Eu160 2.418 . S
O173 C177 1.244 . S
O174 Eu161 2.488 . S
O174 C190 1.249 . S
O175 Eu161 2.471 . S
O175 C190 1.244 . S
O176 Eu161 2.349 . S
O176 C177 1.265 . S
C177 O173 1.244 . S
C177 O176 1.265 . S
O178 Eu160 2.373 . S
O178 C191 1.258 . S
O179 Eu161 2.392 . S
O179 C191 1.242 . S
O180 Eu161 2.418 . S
O180 C162 1.244 . S
O181 Eu160 2.488 . S
O181 C169 1.249 . S
O182 Eu160 2.471 . S
O182 C169 1.244 . S
O183 Eu160 2.349 . S
O183 C162 1.265 . S
C184 C185 1.379 . S
C184 C188 1.373 . S
C184 C190 1.505 . S
C185 C184 1.379 . S
C185 C187 1.369 . S
C185 H196 0.930 . S
C186 C188 1.383 . S
C186 C189 1.382 . S
C186 H197 0.930 . S
C187 C185 1.369 . S
C187 C189 1.392 . S
C187 H198 0.930 . S
C188 C184 1.373 . S
C188 C186 1.383 . S
C188 H199 0.931 . S
C189 C186 1.382 . S
C189 C187 1.392 . S
C190 Eu161 2.828 . S
C190 O174 1.249 . S
C190 O175 1.244 . S
C190 C184 1.505 . S
C191 O178 1.258 . S
C191 O179 1.242 . S
H192 C164 0.930 . S
H193 C165 0.930 . S
H194 C166 0.930 . S
H195 C167 0.931 . S
H196 C185 0.930 . S
H197 C186 0.930 . S
H198 C187 0.930 . S
H199 C188 0.931 . S
Eu200 C209 2.828 . S
Eu200 O211 2.392 . S
Eu200 O213 2.418 . S
Eu200 O218 2.373 . S
Eu200 O221 2.488 . S
Eu200 O222 2.471 . S
Eu200 O223 2.349 . S
Eu201 O210 2.373 . S
Eu201 O214 2.488 . S
Eu201 O215 2.471 . S
Eu201 O216 2.349 . S
Eu201 O219 2.392 . S
Eu201 O220 2.418 . S
Eu201 C230 2.828 . S
C202 O220 1.244 . S
C202 O223 1.265 . S
C203 C204 1.379 . S
C203 C207 1.373 . S
C203 C209 1.505 1_455 S
C204 C203 1.379 . S
C204 C206 1.369 . S
C204 H232 0.941 . S
C205 C207 1.383 . S
C205 C208 1.382 . S
C205 H233 0.930 . S
C206 C204 1.369 . S
C206 C208 1.392 . S
C206 H234 0.930 . S
C207 C203 1.373 . S
C207 C205 1.383 . S
C207 H235 0.931 . S
C208 C205 1.382 . S
C208 C206 1.392 . S
C209 Eu200 2.828 . S
C209 C203 1.505 1_655 S
C209 O221 1.249 . S
C209 O222 1.244 . S
O210 Eu201 2.373 . S
O210 C212 1.258 . S
O211 Eu200 2.392 . S
O211 C212 1.242 . S
C212 O210 1.258 . S
C212 O211 1.242 . S
O213 Eu200 2.418 . S
O213 C217 1.244 . S
O214 Eu201 2.488 . S
O214 C230 1.249 . S
O215 Eu201 2.471 . S
O215 C230 1.244 . S
O216 Eu201 2.349 . S
O216 C217 1.265 . S
C217 O213 1.244 . S
C217 O216 1.265 . S
O218 Eu200 2.373 . S
O218 C231 1.258 . S
O219 Eu201 2.392 . S
O219 C231 1.242 . S
O220 Eu201 2.418 . S
O220 C202 1.244 . S
O221 Eu200 2.488 . S
O221 C209 1.249 . S
O222 Eu200 2.471 . S
O222 C209 1.244 . S
O223 Eu200 2.349 . S
O223 C202 1.265 . S
C224 C225 1.379 . S
C224 C228 1.373 . S
C224 C230 1.505 . S
C225 C224 1.379 . S
C225 C227 1.369 . S
C225 H236 0.930 . S
C226 C228 1.383 . S
C226 C229 1.382 . S
C226 H237 0.930 . S
C227 C225 1.369 . S
C227 C229 1.392 . S
C227 H238 0.930 . S
C228 C224 1.373 . S
C228 C226 1.383 . S
C228 H239 0.931 . S
C229 C226 1.382 . S
C229 C227 1.392 . S
C230 Eu201 2.828 . S
C230 O214 1.249 . S
C230 O215 1.244 . S
C230 C224 1.505 . S
C231 O218 1.258 . S
C231 O219 1.242 . S
H232 C204 0.941 . S
H233 C205 0.930 . S
H234 C206 0.930 . S
H235 C207 0.931 . S
H236 C225 0.930 . S
H237 C226 0.930 . S
H238 C227 0.930 . S
H239 C228 0.931 . S
Eu240 C249 2.828 . S
Eu240 O251 2.392 . S
Eu240 O253 2.418 . S
Eu240 O258 2.373 . S
Eu240 O261 2.488 . S
Eu240 O262 2.471 . S
Eu240 O263 2.349 . S
Eu241 O250 2.373 . S
Eu241 O254 2.488 . S
Eu241 O255 2.471 . S
Eu241 O256 2.349 . S
Eu241 O259 2.392 . S
Eu241 O260 2.418 . S
Eu241 C270 2.828 . S
C242 O260 1.244 . S
C242 O263 1.265 . S
C243 C244 1.379 . S
C243 C247 1.373 . S
C243 C249 1.505 1_655 S
C244 C243 1.379 . S
C244 C246 1.369 . S
C244 H272 0.937 . S
C245 C247 1.383 . S
C245 C248 1.382 . S
C245 H273 0.930 . S
C246 C244 1.369 . S
C246 C248 1.392 . S
C246 H274 0.930 . S
C247 C243 1.373 . S
C247 C245 1.383 . S
C247 H275 0.931 . S
C248 C245 1.382 . S
C248 C246 1.392 . S
C249 Eu240 2.828 . S
C249 C243 1.505 1_455 S
C249 O261 1.249 . S
C249 O262 1.244 . S
O250 Eu241 2.373 . S
O250 C252 1.258 . S
O251 Eu240 2.392 . S
O251 C252 1.242 . S
C252 O250 1.258 . S
C252 O251 1.242 . S
O253 Eu240 2.418 . S
O253 C257 1.244 . S
O254 Eu241 2.488 . S
O254 C270 1.249 . S
O255 Eu241 2.471 . S
O255 C270 1.244 . S
O256 Eu241 2.349 . S
O256 C257 1.265 . S
C257 O253 1.244 . S
C257 O256 1.265 . S
O258 Eu240 2.373 . S
O258 C271 1.258 . S
O259 Eu241 2.392 . S
O259 C271 1.242 . S
O260 Eu241 2.418 . S
O260 C242 1.244 . S
O261 Eu240 2.488 . S
O261 C249 1.249 . S
O262 Eu240 2.471 . S
O262 C249 1.244 . S
O263 Eu240 2.349 . S
O263 C242 1.265 . S
C264 C265 1.379 . S
C264 C268 1.373 . S
C264 C270 1.505 . S
C265 C264 1.379 . S
C265 C267 1.369 . S
C265 H276 0.930 . S
C266 C268 1.383 . S
C266 C269 1.382 . S
C266 H277 0.930 . S
C267 C265 1.369 . S
C267 C269 1.392 . S
C267 H278 0.930 . S
C268 C264 1.373 . S
C268 C266 1.383 . S
C268 H279 0.931 . S
C269 C266 1.382 . S
C269 C267 1.392 . S
C270 Eu241 2.828 . S
C270 O254 1.249 . S
C270 O255 1.244 . S
C270 C264 1.505 . S
C271 O258 1.258 . S
C271 O259 1.242 . S
H272 C244 0.937 . S
H273 C245 0.930 . S
H274 C246 0.930 . S
H275 C247 0.931 . S
H276 C265 0.930 . S
H277 C266 0.930 . S
H278 C267 0.930 . S
H279 C268 0.931 . S
Eu280 C289 2.828 . S
Eu280 O291 2.392 . S
Eu280 O293 2.418 . S
Eu280 O298 2.373 . S
Eu280 O301 2.488 . S
Eu280 O302 2.471 . S
Eu280 O303 2.349 . S
Eu281 O290 2.373 . S
Eu281 O294 2.488 . S
Eu281 O295 2.471 . S
Eu281 O296 2.349 . S
Eu281 O299 2.392 . S
Eu281 O300 2.418 . S
Eu281 C310 2.828 . S
C282 O300 1.244 . S
C282 O303 1.265 . S
C283 C284 1.379 . S
C283 C287 1.373 . S
C283 C289 1.505 . S
C284 C283 1.379 . S
C284 C286 1.369 . S
C284 H312 0.930 . S
C285 C287 1.383 . S
C285 C288 1.382 . S
C285 H313 0.930 . S
C286 C284 1.369 . S
C286 C288 1.392 . S
C286 H314 0.930 . S
C287 C283 1.373 . S
C287 C285 1.383 . S
C287 H315 0.931 . S
C288 C285 1.382 . S
C288 C286 1.392 . S
C289 Eu280 2.828 . S
C289 C283 1.505 . S
C289 O301 1.249 . S
C289 O302 1.244 . S
O290 Eu281 2.373 . S
O290 C292 1.258 . S
O291 Eu280 2.392 . S
O291 C292 1.242 . S
C292 O290 1.258 . S
C292 O291 1.242 . S
O293 Eu280 2.418 . S
O293 C297 1.244 . S
O294 Eu281 2.488 . S
O294 C310 1.249 . S
O295 Eu281 2.471 . S
O295 C310 1.244 . S
O296 Eu281 2.349 . S
O296 C297 1.265 . S
C297 O293 1.244 . S
C297 O296 1.265 . S
O298 Eu280 2.373 . S
O298 C311 1.258 . S
O299 Eu281 2.392 . S
O299 C311 1.242 . S
O300 Eu281 2.418 . S
O300 C282 1.244 . S
O301 Eu280 2.488 . S
O301 C289 1.249 . S
O302 Eu280 2.471 . S
O302 C289 1.244 . S
O303 Eu280 2.349 . S
O303 C282 1.265 . S
C304 C305 1.379 . S
C304 C308 1.373 . S
C304 C310 1.505 1_545 S
C305 C304 1.379 . S
C305 C307 1.369 . S
C305 H316 0.941 . S
C306 C308 1.383 . S
C306 C309 1.382 . S
C306 H317 0.930 . S
C307 C305 1.369 . S
C307 C309 1.392 . S
C307 H318 0.930 . S
C308 C304 1.373 . S
C308 C306 1.383 . S
C308 H319 0.931 . S
C309 C306 1.382 . S
C309 C307 1.392 . S
C310 Eu281 2.828 . S
C310 O294 1.249 . S
C310 O295 1.244 . S
C310 C304 1.505 1_565 S
C311 O298 1.258 . S
C311 O299 1.242 . S
H312 C284 0.930 . S
H313 C285 0.930 . S
H314 C286 0.930 . S
H315 C287 0.931 . S
H316 C305 0.941 . S
H317 C306 0.930 . S
H318 C307 0.930 . S
H319 C308 0.931 . S
Eu320 C329 2.828 . S
Eu320 O331 2.392 . S
Eu320 O333 2.418 . S
Eu320 O338 2.373 . S
Eu320 O341 2.488 . S
Eu320 O342 2.471 . S
Eu320 O343 2.349 . S
Eu321 O330 2.373 . S
Eu321 O334 2.488 . S
Eu321 O335 2.471 . S
Eu321 O336 2.349 . S
Eu321 O339 2.392 . S
Eu321 O340 2.418 . S
Eu321 C350 2.828 . S
C322 O340 1.244 . S
C322 O343 1.265 . S
C323 C324 1.379 . S
C323 C327 1.373 . S
C323 C329 1.505 . S
C324 C323 1.379 . S
C324 C326 1.369 . S
C324 H352 0.930 . S
C325 C327 1.383 . S
C325 C328 1.382 . S
C325 H353 0.930 . S
C326 C324 1.369 . S
C326 C328 1.392 . S
C326 H354 0.930 . S
C327 C323 1.373 . S
C327 C325 1.383 . S
C327 H355 0.931 . S
C328 C325 1.382 . S
C328 C326 1.392 . S
C329 Eu320 2.828 . S
C329 C323 1.505 . S
C329 O341 1.249 . S
C329 O342 1.244 . S
O330 Eu321 2.373 . S
O330 C332 1.258 . S
O331 Eu320 2.392 . S
O331 C332 1.242 . S
C332 O330 1.258 . S
C332 O331 1.242 . S
O333 Eu320 2.418 . S
O333 C337 1.244 . S
O334 Eu321 2.488 . S
O334 C350 1.249 . S
O335 Eu321 2.471 . S
O335 C350 1.244 . S
O336 Eu321 2.349 . S
O336 C337 1.265 . S
C337 O333 1.244 . S
C337 O336 1.265 . S
O338 Eu320 2.373 . S
O338 C351 1.258 . S
O339 Eu321 2.392 . S
O339 C351 1.242 . S
O340 Eu321 2.418 . S
O340 C322 1.244 . S
O341 Eu320 2.488 . S
O341 C329 1.249 . S
O342 Eu320 2.471 . S
O342 C329 1.244 . S
O343 Eu320 2.349 . S
O343 C322 1.265 . S
C344 C345 1.379 . S
C344 C348 1.373 . S
C344 C350 1.505 . S
C345 C344 1.379 . S
C345 C347 1.369 . S
C345 H356 0.930 . S
C346 C348 1.383 . S
C346 C349 1.382 . S
C346 H357 0.930 . S
C347 C345 1.369 . S
C347 C349 1.392 . S
C347 H358 0.930 . S
C348 C344 1.373 . S
C348 C346 1.383 . S
C348 H359 0.931 . S
C349 C346 1.382 . S
C349 C347 1.392 . S
C350 Eu321 2.828 . S
C350 O334 1.249 . S
C350 O335 1.244 . S
C350 C344 1.505 . S
C351 O338 1.258 . S
C351 O339 1.242 . S
H352 C324 0.930 . S
H353 C325 0.930 . S
H354 C326 0.930 . S
H355 C327 0.931 . S
H356 C345 0.930 . S
H357 C346 0.930 . S
H358 C347 0.930 . S
H359 C348 0.931 . S
Eu360 C369 2.828 . S
Eu360 O371 2.392 . S
Eu360 O373 2.418 . S
Eu360 O378 2.373 . S
Eu360 O381 2.488 . S
Eu360 O382 2.471 . S
Eu360 O383 2.349 . S
Eu361 O370 2.373 . S
Eu361 O374 2.488 . S
Eu361 O375 2.471 . S
Eu361 O376 2.349 . S
Eu361 O379 2.392 . S
Eu361 O380 2.418 . S
Eu361 C390 2.828 . S
C362 O380 1.244 . S
C362 O383 1.265 . S
C363 C364 1.379 . S
C363 C367 1.373 . S
C363 C369 1.505 . S
C364 C363 1.379 . S
C364 C366 1.369 . S
C364 H392 0.930 . S
C365 C367 1.383 . S
C365 C368 1.382 . S
C365 H393 0.930 . S
C366 C364 1.369 . S
C366 C368 1.392 . S
C366 H394 0.930 . S
C367 C363 1.373 . S
C367 C365 1.383 . S
C367 H395 0.931 . S
C368 C365 1.382 . S
C368 C366 1.392 . S
C369 Eu360 2.828 . S
C369 C363 1.505 . S
C369 O381 1.249 . S
C369 O382 1.244 . S
O370 Eu361 2.373 . S
O370 C372 1.258 . S
O371 Eu360 2.392 . S
O371 C372 1.242 . S
C372 O370 1.258 . S
C372 O371 1.242 . S
O373 Eu360 2.418 . S
O373 C377 1.244 . S
O374 Eu361 2.488 . S
O374 C390 1.249 . S
O375 Eu361 2.471 . S
O375 C390 1.244 . S
O376 Eu361 2.349 . S
O376 C377 1.265 . S
C377 O373 1.244 . S
C377 O376 1.265 . S
O378 Eu360 2.373 . S
O378 C391 1.258 . S
O379 Eu361 2.392 . S
O379 C391 1.242 . S
O380 Eu361 2.418 . S
O380 C362 1.244 . S
O381 Eu360 2.488 . S
O381 C369 1.249 . S
O382 Eu360 2.471 . S
O382 C369 1.244 . S
O383 Eu360 2.349 . S
O383 C362 1.265 . S
C384 C385 1.379 . S
C384 C388 1.373 . S
C384 C390 1.505 1_655 S
C385 C384 1.379 . S
C385 C387 1.369 . S
C385 H396 0.937 . S
C386 C388 1.383 . S
C386 C389 1.382 . S
C386 H397 0.930 . S
C387 C385 1.369 . S
C387 C389 1.392 . S
C387 H398 0.930 . S
C388 C384 1.373 . S
C388 C386 1.383 . S
C388 H399 0.931 . S
C389 C386 1.382 . S
C389 C387 1.392 . S
C390 Eu361 2.828 . S
C390 O374 1.249 . S
C390 O375 1.244 . S
C390 C384 1.505 1_455 S
C391 O378 1.258 . S
C391 O379 1.242 . S
H392 C364 0.930 . S
H393 C365 0.930 . S
H394 C366 0.930 . S
H395 C367 0.931 . S
H396 C385 0.937 . S
H397 C386 0.930 . S
H398 C387 0.930 . S
H399 C388 0.931 . S
Eu400 C409 2.828 . S
Eu400 O411 2.392 . S
Eu400 O413 2.418 . S
Eu400 O418 2.373 . S
Eu400 O421 2.488 . S
Eu400 O422 2.471 . S
Eu400 O423 2.349 . S
Eu401 O410 2.373 . S
Eu401 O414 2.488 . S
Eu401 O415 2.471 . S
Eu401 O416 2.349 . S
Eu401 O419 2.392 . S
Eu401 O420 2.418 . S
Eu401 C430 2.828 . S
C402 O420 1.244 . S
C402 O423 1.265 . S
C403 C404 1.379 . S
C403 C407 1.373 . S
C403 C409 1.505 1_545 S
C404 C403 1.379 . S
C404 C406 1.369 . S
C404 H432 0.941 . S
C405 C407 1.383 . S
C405 C408 1.382 . S
C405 H433 0.930 . S
C406 C404 1.369 . S
C406 C408 1.392 . S
C406 H434 0.930 . S
C407 C403 1.373 . S
C407 C405 1.383 . S
C407 H435 0.931 . S
C408 C405 1.382 . S
C408 C406 1.392 . S
C409 Eu400 2.828 . S
C409 C403 1.505 1_565 S
C409 O421 1.249 . S
C409 O422 1.244 . S
O410 Eu401 2.373 . S
O410 C412 1.258 . S
O411 Eu400 2.392 . S
O411 C412 1.242 . S
C412 O410 1.258 . S
C412 O411 1.242 . S
O413 Eu400 2.418 . S
O413 C417 1.244 . S
O414 Eu401 2.488 . S
O414 C430 1.249 . S
O415 Eu401 2.471 . S
O415 C430 1.244 . S
O416 Eu401 2.349 . S
O416 C417 1.265 . S
C417 O413 1.244 . S
C417 O416 1.265 . S
O418 Eu400 2.373 . S
O418 C431 1.258 . S
O419 Eu401 2.392 . S
O419 C431 1.242 . S
O420 Eu401 2.418 . S
O420 C402 1.244 . S
O421 Eu400 2.488 . S
O421 C409 1.249 . S
O422 Eu400 2.471 . S
O422 C409 1.244 . S
O423 Eu400 2.349 . S
O423 C402 1.265 . S
C424 C425 1.379 . S
C424 C428 1.373 . S
C424 C430 1.505 . S
C425 C424 1.379 . S
C425 C427 1.369 . S
C425 H436 0.930 . S
C426 C428 1.383 . S
C426 C429 1.382 . S
C426 H437 0.930 . S
C427 C425 1.369 . S
C427 C429 1.392 . S
C427 H438 0.930 . S
C428 C424 1.373 . S
C428 C426 1.383 . S
C428 H439 0.931 . S
C429 C426 1.382 . S
C429 C427 1.392 . S
C430 Eu401 2.828 . S
C430 O414 1.249 . S
C430 O415 1.244 . S
C430 C424 1.505 . S
C431 O418 1.258 . S
C431 O419 1.242 . S
H432 C404 0.941 . S
H433 C405 0.930 . S
H434 C406 0.930 . S
H435 C407 0.931 . S
H436 C425 0.930 . S
H437 C426 0.930 . S
H438 C427 0.930 . S
H439 C428 0.931 . S
Eu440 C449 2.828 . S
Eu440 O451 2.392 . S
Eu440 O453 2.418 . S
Eu440 O458 2.373 . S
Eu440 O461 2.488 . S
Eu440 O462 2.471 . S
Eu440 O463 2.349 . S
Eu441 O450 2.373 . S
Eu441 O454 2.488 . S
Eu441 O455 2.471 . S
Eu441 O456 2.349 . S
Eu441 O459 2.392 . S
Eu441 O460 2.418 . S
Eu441 C470 2.828 . S
C442 O460 1.244 . S
C442 O463 1.265 . S
C443 C444 1.379 . S
C443 C447 1.373 . S
C443 C449 1.505 . S
C444 C443 1.379 . S
C444 C446 1.369 . S
C444 H472 0.930 . S
C445 C447 1.383 . S
C445 C448 1.382 . S
C445 H473 0.930 . S
C446 C444 1.369 . S
C446 C448 1.392 . S
C446 H474 0.930 . S
C447 C443 1.373 . S
C447 C445 1.383 . S
C447 H475 0.931 . S
C448 C445 1.382 . S
C448 C446 1.392 . S
C449 Eu440 2.828 . S
C449 C443 1.505 . S
C449 O461 1.249 . S
C449 O462 1.244 . S
O450 Eu441 2.373 . S
O450 C452 1.258 . S
O451 Eu440 2.392 . S
O451 C452 1.242 . S
C452 O450 1.258 . S
C452 O451 1.242 . S
O453 Eu440 2.418 . S
O453 C457 1.244 . S
O454 Eu441 2.488 . S
O454 C470 1.249 . S
O455 Eu441 2.471 . S
O455 C470 1.244 . S
O456 Eu441 2.349 . S
O456 C457 1.265 . S
C457 O453 1.244 . S
C457 O456 1.265 . S
O458 Eu440 2.373 . S
O458 C471 1.258 . S
O459 Eu441 2.392 . S
O459 C471 1.242 . S
O460 Eu441 2.418 . S
O460 C442 1.244 . S
O461 Eu440 2.488 . S
O461 C449 1.249 . S
O462 Eu440 2.471 . S
O462 C449 1.244 . S
O463 Eu440 2.349 . S
O463 C442 1.265 . S
C464 C465 1.379 . S
C464 C468 1.373 . S
C464 C470 1.505 . S
C465 C464 1.379 . S
C465 C467 1.369 . S
C465 H476 0.930 . S
C466 C468 1.383 . S
C466 C469 1.382 . S
C466 H477 0.930 . S
C467 C465 1.369 . S
C467 C469 1.392 . S
C467 H478 0.930 . S
C468 C464 1.373 . S
C468 C466 1.383 . S
C468 H479 0.931 . S
C469 C466 1.382 . S
C469 C467 1.392 . S
C470 Eu441 2.828 . S
C470 O454 1.249 . S
C470 O455 1.244 . S
C470 C464 1.505 . S
C471 O458 1.258 . S
C471 O459 1.242 . S
H472 C444 0.930 . S
H473 C445 0.930 . S
H474 C446 0.930 . S
H475 C447 0.931 . S
H476 C465 0.930 . S
H477 C466 0.930 . S
H478 C467 0.930 . S
H479 C468 0.931 . S
H480 C486 0.930 . S
H481 C490 0.930 . S
H482 C495 0.929 . S
H483 C493 0.929 . S
H484 C488 0.929 . S
H485 C494 0.929 . S
C486 H480 0.930 . S
C486 C487 1.367 . S
C486 C494 1.378 . S
C487 C486 1.367 . S
C487 C495 1.433 . S
C488 H484 0.929 . S
C488 C490 1.378 . S
C488 C492 1.350 . S
C489 C492 1.463 . S
C489 C494 1.350 . S
C489 N497 1.427 . S
C490 H481 0.930 . S
C490 C488 1.378 . S
C490 C491 1.367 . S
C491 C490 1.367 . S
C491 C493 1.433 . S
C492 C488 1.350 . S
C492 C489 1.463 . S
C492 N496 1.427 . S
C493 H483 0.929 . S
C493 C491 1.433 . S
C493 N496 1.384 . S
C494 H485 0.929 . S
C494 C486 1.378 . S
C494 C489 1.350 . S
C495 H482 0.929 . S
C495 C487 1.433 . S
C495 N497 1.384 . S
N496 C492 1.427 . S
N496 C493 1.384 . S
N497 C489 1.427 . S
N497 C495 1.384 . S
H498 C504 0.930 . S
H499 C508 0.930 . S
H500 C513 0.929 . S
H501 C511 0.929 . S
H502 C506 0.929 . S
H503 C512 0.929 . S
C504 H498 0.930 . S
C504 C505 1.367 . S
C504 C512 1.378 . S
C505 C504 1.367 . S
C505 C513 1.433 . S
C506 H502 0.929 . S
C506 C508 1.378 . S
C506 C510 1.350 . S
C507 C510 1.463 1_455 S
C507 C512 1.350 . S
C507 N515 1.427 . S
C508 H499 0.930 . S
C508 C506 1.378 . S
C508 C509 1.367 . S
C509 C508 1.367 . S
C509 C511 1.433 . S
C510 C506 1.350 . S
C510 C507 1.463 1_655 S
C510 N514 1.427 . S
C511 H501 0.929 . S
C511 C509 1.433 . S
C511 N514 1.384 . S
C512 H503 0.929 . S
C512 C504 1.378 . S
C512 C507 1.350 . S
C513 H500 0.929 . S
C513 C505 1.433 . S
C513 N515 1.384 . S
N514 C510 1.427 . S
N514 C511 1.384 . S
N515 C507 1.427 . S
N515 C513 1.384 . S
H516 C522 0.930 . S
H517 C526 0.930 . S
H518 C531 0.929 . S
H519 C529 0.929 . S
H520 C524 0.929 . S
H521 C530 0.929 . S
C522 H516 0.930 . S
C522 C523 1.367 . S
C522 C530 1.378 . S
C523 C522 1.367 . S
C523 C531 1.433 . S
C524 H520 0.929 . S
C524 C526 1.378 . S
C524 C528 1.350 . S
C525 C528 1.463 1_545 S
C525 C530 1.350 . S
C525 N533 1.427 . S
C526 H517 0.930 . S
C526 C524 1.378 . S
C526 C527 1.367 . S
C527 C526 1.367 . S
C527 C529 1.433 . S
C528 C524 1.350 . S
C528 C525 1.463 1_565 S
C528 N532 1.427 . S
C529 H519 0.929 . S
C529 C527 1.433 . S
C529 N532 1.384 . S
C530 H521 0.929 . S
C530 C522 1.378 . S
C530 C525 1.350 . S
C531 H518 0.929 . S
C531 C523 1.433 . S
C531 N533 1.384 . S
N532 C528 1.427 . S
N532 C529 1.384 . S
N533 C525 1.427 . S
N533 C531 1.384 . S
H534 C540 0.930 . S
H535 C544 0.930 . S
H536 C549 0.929 . S
H537 C547 0.929 . S
H538 C542 0.929 . S
H539 C548 0.929 . S
C540 H534 0.930 . S
C540 C541 1.367 . S
C540 C548 1.378 . S
C541 C540 1.367 . S
C541 C549 1.433 . S
C542 H538 0.929 . S
C542 C544 1.378 . S
C542 C546 1.350 . S
C543 C546 1.463 . S
C543 C548 1.350 . S
C543 N551 1.427 . S
C544 H535 0.930 . S
C544 C542 1.378 . S
C544 C545 1.367 . S
C545 C544 1.367 . S
C545 C547 1.433 . S
C546 C542 1.350 . S
C546 C543 1.463 . S
C546 N550 1.427 . S
C547 H537 0.929 . S
C547 C545 1.433 . S
C547 N550 1.384 . S
C548 H539 0.929 . S
C548 C540 1.378 . S
C548 C543 1.350 . S
C549 H536 0.929 . S
C549 C541 1.433 . S
C549 N551 1.384 . S
N550 C546 1.427 . S
N550 C547 1.384 . S
N551 C543 1.427 . S
N551 C549 1.384 . S
H552 C558 0.930 . S
H553 C562 0.930 . S
H554 C567 0.929 . S
H555 C565 0.929 . S
H556 C560 0.929 . S
H557 C566 0.929 . S
C558 H552 0.930 . S
C558 C559 1.367 . S
C558 C566 1.378 . S
C559 C558 1.367 . S
C559 C567 1.433 . S
C560 H556 0.929 . S
C560 C562 1.378 . S
C560 C564 1.350 . S
C561 C564 1.463 1_455 S
C561 C566 1.350 . S
C561 N569 1.427 . S
C562 H553 0.930 . S
C562 C560 1.378 . S
C562 C563 1.367 . S
C563 C562 1.367 . S
C563 C565 1.433 . S
C564 C560 1.350 . S
C564 C561 1.463 1_655 S
C564 N568 1.427 . S
C565 H555 0.929 . S
C565 C563 1.433 . S
C565 N568 1.384 . S
C566 H557 0.929 . S
C566 C558 1.378 . S
C566 C561 1.350 . S
C567 H554 0.929 . S
C567 C559 1.433 . S
C567 N569 1.384 . S
N568 C564 1.427 . S
N568 C565 1.384 . S
N569 C561 1.427 . S
N569 C567 1.384 . S
H570 C576 0.930 . S
H571 C580 0.930 . S
H572 C585 0.929 . S
H573 C583 0.929 . S
H574 C578 0.929 . S
H575 C584 0.929 . S
C576 H570 0.930 . S
C576 C577 1.367 . S
C576 C584 1.378 . S
C577 C576 1.367 . S
C577 C585 1.433 . S
C578 H574 0.929 . S
C578 C580 1.378 . S
C578 C582 1.350 . S
C579 C582 1.463 1_565 S
C579 C584 1.350 . S
C579 N587 1.427 . S
C580 H571 0.930 . S
C580 C578 1.378 . S
C580 C581 1.367 . S
C581 C580 1.367 . S
C581 C583 1.433 . S
C582 C578 1.350 . S
C582 C579 1.463 1_545 S
C582 N586 1.427 . S
C583 H573 0.929 . S
C583 C581 1.433 . S
C583 N586 1.384 . S
C584 H575 0.929 . S
C584 C576 1.378 . S
C584 C579 1.350 . S
C585 H572 0.929 . S
C585 C577 1.433 . S
C585 N587 1.384 . S
N586 C582 1.427 . S
N586 C583 1.384 . S
N587 C579 1.427 . S
N587 C585 1.384 . S
H588 C594 0.930 . S
H589 C598 0.930 . S
H590 C603 0.929 . S
H591 C601 0.929 . S
H592 C596 0.929 . S
H593 C602 0.929 . S
C594 H588 0.930 . S
C594 C595 1.367 . S
C594 C602 1.378 . S
C595 C594 1.367 . S
C595 C603 1.433 . S
C596 H592 0.929 . S
C596 C598 1.378 . S
C596 C600 1.350 . S
C597 C600 1.463 . S
C597 C602 1.350 . S
C597 N605 1.427 . S
C598 H589 0.930 . S
C598 C596 1.378 . S
C598 C599 1.367 . S
C599 C598 1.367 . S
C599 C601 1.433 . S
C600 C596 1.350 . S
C600 C597 1.463 . S
C600 N604 1.427 . S
C601 H591 0.929 . S
C601 C599 1.433 . S
C601 N604 1.384 . S
C602 H593 0.929 . S
C602 C594 1.378 . S
C602 C597 1.350 . S
C603 H590 0.929 . S
C603 C595 1.433 . S
C603 N605 1.384 . S
N604 C600 1.427 . S
N604 C601 1.384 . S
N605 C597 1.427 . S
N605 C603 1.384 . S
H606 C612 0.930 . S
H607 C616 0.930 . S
H608 C621 0.929 . S
H609 C619 0.929 . S
H610 C614 0.929 . S
H611 C620 0.929 . S
C612 H606 0.930 . S
C612 C613 1.367 . S
C612 C620 1.378 . S
C613 C612 1.367 . S
C613 C621 1.433 . S
C614 H610 0.929 . S
C614 C616 1.378 . S
C614 C618 1.350 . S
C615 C618 1.463 1_455 S
C615 C620 1.350 . S
C615 N623 1.427 . S
C616 H607 0.930 . S
C616 C614 1.378 . S
C616 C617 1.367 . S
C617 C616 1.367 . S
C617 C619 1.433 . S
C618 C614 1.350 . S
C618 C615 1.463 1_655 S
C618 N622 1.427 . S
C619 H609 0.929 . S
C619 C617 1.433 . S
C619 N622 1.384 . S
C620 H611 0.929 . S
C620 C612 1.378 . S
C620 C615 1.350 . S
C621 H608 0.929 . S
C621 C613 1.433 . S
C621 N623 1.384 . S
N622 C618 1.427 . S
N622 C619 1.384 . S
N623 C615 1.427 . S
N623 C621 1.384 . S
H624 C630 0.930 . S
H625 C634 0.930 . S
H626 C639 0.929 . S
H627 C637 0.929 . S
H628 C632 0.929 . S
H629 C638 0.929 . S
C630 H624 0.930 . S
C630 C631 1.367 . S
C630 C638 1.378 . S
C631 C630 1.367 . S
C631 C639 1.433 . S
C632 H628 0.929 . S
C632 C634 1.378 . S
C632 C636 1.350 . S
C633 C636 1.463 1_565 S
C633 C638 1.350 . S
C633 N641 1.427 . S
C634 H625 0.930 . S
C634 C632 1.378 . S
C634 C635 1.367 . S
C635 C634 1.367 . S
C635 C637 1.433 . S
C636 C632 1.350 . S
C636 C633 1.463 1_545 S
C636 N640 1.427 . S
C637 H627 0.929 . S
C637 C635 1.433 . S
C637 N640 1.384 . S
C638 H629 0.929 . S
C638 C630 1.378 . S
C638 C633 1.350 . S
C639 H626 0.929 . S
C639 C631 1.433 . S
C639 N641 1.384 . S
N640 C636 1.427 . S
N640 C637 1.384 . S
N641 C633 1.427 . S
N641 C639 1.384 . S
H642 C648 0.930 . S
H643 C652 0.930 . S
H644 C657 0.929 . S
H645 C655 0.929 . S
H646 C650 0.929 . S
H647 C656 0.929 . S
C648 H642 0.930 . S
C648 C649 1.367 . S
C648 C656 1.378 . S
C649 C648 1.367 . S
C649 C657 1.433 . S
C650 H646 0.929 . S
C650 C652 1.378 . S
C650 C654 1.350 . S
C651 C654 1.463 . S
C651 C656 1.350 . S
C651 N659 1.427 . S
C652 H643 0.930 . S
C652 C650 1.378 . S
C652 C653 1.367 . S
C653 C652 1.367 . S
C653 C655 1.433 . S
C654 C650 1.350 . S
C654 C651 1.463 . S
C654 N658 1.427 . S
C655 H645 0.929 . S
C655 C653 1.433 . S
C655 N658 1.384 . S
C656 H647 0.929 . S
C656 C648 1.378 . S
C656 C651 1.350 . S
C657 H644 0.929 . S
C657 C649 1.433 . S
C657 N659 1.384 . S
N658 C654 1.427 . S
N658 C655 1.384 . S
N659 C651 1.427 . S
N659 C657 1.384 . S
H660 C666 0.930 . S
H661 C670 0.930 . S
H662 C675 0.929 . S
H663 C673 0.929 . S
H664 C668 0.929 . S
H665 C674 0.929 . S
C666 H660 0.930 . S
C666 C667 1.367 . S
C666 C674 1.378 . S
C667 C666 1.367 . S
C667 C675 1.433 . S
C668 H664 0.929 . S
C668 C670 1.378 . S
C668 C672 1.350 . S
C669 C672 1.463 1_455 S
C669 C674 1.350 . S
C669 N677 1.427 . S
C670 H661 0.930 . S
C670 C668 1.378 . S
C670 C671 1.367 . S
C671 C670 1.367 . S
C671 C673 1.433 . S
C672 C668 1.350 . S
C672 C669 1.463 1_655 S
C672 N676 1.427 . S
C673 H663 0.929 . S
C673 C671 1.433 . S
C673 N676 1.384 . S
C674 H665 0.929 . S
C674 C666 1.378 . S
C674 C669 1.350 . S
C675 H662 0.929 . S
C675 C667 1.433 . S
C675 N677 1.384 . S
N676 C672 1.427 . S
N676 C673 1.384 . S
N677 C669 1.427 . S
N677 C675 1.384 . S
H678 C684 0.930 . S
H679 C688 0.930 . S
H680 C693 0.929 . S
H681 C691 0.929 . S
H682 C686 0.929 . S
H683 C692 0.929 . S
C684 H678 0.930 . S
C684 C685 1.367 . S
C684 C692 1.378 . S
C685 C684 1.367 . S
C685 C693 1.433 . S
C686 H682 0.929 . S
C686 C688 1.378 . S
C686 C690 1.350 . S
C687 C690 1.463 1_545 S
C687 C692 1.350 . S
C687 N695 1.427 . S
C688 H679 0.930 . S
C688 C686 1.378 . S
C688 C689 1.367 . S
C689 C688 1.367 . S
C689 C691 1.433 . S
C690 C686 1.350 . S
C690 C687 1.463 1_565 S
C690 N694 1.427 . S
C691 H681 0.929 . S
C691 C689 1.433 . S
C691 N694 1.384 . S
C692 H683 0.929 . S
C692 C684 1.378 . S
C692 C687 1.350 . S
C693 H680 0.929 . S
C693 C685 1.433 . S
C693 N695 1.384 . S
N694 C690 1.427 . S
N694 C691 1.384 . S
N695 C687 1.427 . S
N695 C693 1.384 . S
H696 C702 0.930 . S
H697 C706 0.930 . S
H698 C711 0.929 . S
H699 C709 0.929 . S
H700 C704 0.929 . S
H701 C710 0.929 . S
C702 H696 0.930 . S
C702 C703 1.367 . S
C702 C710 1.378 . S
C703 C702 1.367 . S
C703 C711 1.433 . S
C704 H700 0.929 . S
C704 C706 1.378 . S
C704 C708 1.350 . S
C705 C708 1.463 . S
C705 C710 1.350 . S
C705 N713 1.427 . S
C706 H697 0.930 . S
C706 C704 1.378 . S
C706 C707 1.367 . S
C707 C706 1.367 . S
C707 C709 1.433 . S
C708 C704 1.350 . S
C708 C705 1.463 . S
C708 N712 1.427 . S
C709 H699 0.929 . S
C709 C707 1.433 . S
C709 N712 1.384 . S
C710 H701 0.929 . S
C710 C702 1.378 . S
C710 C705 1.350 . S
C711 H698 0.929 . S
C711 C703 1.433 . S
C711 N713 1.384 . S
N712 C708 1.427 . S
N712 C709 1.384 . S
N713 C705 1.427 . S
N713 C711 1.384 . S
H714 C720 0.930 . S
H715 C724 0.930 . S
H716 C729 0.929 . S
H717 C727 0.929 . S
H718 C722 0.929 . S
H719 C728 0.929 . S
C720 H714 0.930 . S
C720 C721 1.367 . S
C720 C728 1.378 . S
C721 C720 1.367 . S
C721 C729 1.433 . S
C722 H718 0.929 . S
C722 C724 1.378 . S
C722 C726 1.350 . S
C723 C726 1.463 . S
C723 C728 1.350 . S
C723 N731 1.427 . S
C724 H715 0.930 . S
C724 C722 1.378 . S
C724 C725 1.367 . S
C725 C724 1.367 . S
C725 C727 1.433 . S
C726 C722 1.350 . S
C726 C723 1.463 . S
C726 N730 1.427 . S
C727 H717 0.929 . S
C727 C725 1.433 . S
C727 N730 1.384 . S
C728 H719 0.929 . S
C728 C720 1.378 . S
C728 C723 1.350 . S
C729 H716 0.929 . S
C729 C721 1.433 . S
C729 N731 1.384 . S
N730 C726 1.427 . S
N730 C727 1.384 . S
N731 C723 1.427 . S
N731 C729 1.384 . S
H732 C738 0.930 . S
H733 C742 0.930 . S
H734 C747 0.929 . S
H735 C745 0.929 . S
H736 C740 0.929 . S
H737 C746 0.929 . S
C738 H732 0.930 . S
C738 C739 1.367 . S
C738 C746 1.378 . S
C739 C738 1.367 . S
C739 C747 1.433 . S
C740 H736 0.929 . S
C740 C742 1.378 . S
C740 C744 1.350 . S
C741 C744 1.463 . S
C741 C746 1.350 . S
C741 N749 1.427 . S
C742 H733 0.930 . S
C742 C740 1.378 . S
C742 C743 1.367 . S
C743 C742 1.367 . S
C743 C745 1.433 . S
C744 C740 1.350 . S
C744 C741 1.463 . S
C744 N748 1.427 . S
C745 H735 0.929 . S
C745 C743 1.433 . S
C745 N748 1.384 . S
C746 H737 0.929 . S
C746 C738 1.378 . S
C746 C741 1.350 . S
C747 H734 0.929 . S
C747 C739 1.433 . S
C747 N749 1.384 . S
N748 C744 1.427 . S
N748 C745 1.384 . S
N749 C741 1.427 . S
N749 C747 1.384 . S
H750 C756 0.930 . S
H751 C760 0.930 . S
H752 C765 0.929 . S
H753 C763 0.929 . S
H754 C758 0.929 . S
H755 C764 0.929 . S
C756 H750 0.930 . S
C756 C757 1.367 . S
C756 C764 1.378 . S
C757 C756 1.367 . S
C757 C765 1.433 . S
C758 H754 0.929 . S
C758 C760 1.378 . S
C758 C762 1.350 . S
C759 C762 1.463 . S
C759 C764 1.350 . S
C759 N767 1.427 . S
C760 H751 0.930 . S
C760 C758 1.378 . S
C760 C761 1.367 . S
C761 C760 1.367 . S
C761 C763 1.433 . S
C762 C758 1.350 . S
C762 C759 1.463 . S
C762 N766 1.427 . S
C763 H753 0.929 . S
C763 C761 1.433 . S
C763 N766 1.384 . S
C764 H755 0.929 . S
C764 C756 1.378 . S
C764 C759 1.350 . S
C765 H752 0.929 . S
C765 C757 1.433 . S
C765 N767 1.384 . S
N766 C762 1.427 . S
N766 C763 1.384 . S
N767 C759 1.427 . S
N767 C765 1.384 . S
H768 C774 0.930 . S
H769 C778 0.930 . S
H770 C783 0.929 . S
H771 C781 0.929 . S
H772 C776 0.929 . S
H773 C782 0.929 . S
C774 H768 0.930 . S
C774 C775 1.367 . S
C774 C782 1.378 . S
C775 C774 1.367 . S
C775 C783 1.433 . S
C776 H772 0.929 . S
C776 C778 1.378 . S
C776 C780 1.350 . S
C777 C780 1.463 . S
C777 C782 1.350 . S
C777 N785 1.427 . S
C778 H769 0.930 . S
C778 C776 1.378 . S
C778 C779 1.367 . S
C779 C778 1.367 . S
C779 C781 1.433 . S
C780 C776 1.350 . S
C780 C777 1.463 . S
C780 N784 1.427 . S
C781 H771 0.929 . S
C781 C779 1.433 . S
C781 N784 1.384 . S
C782 H773 0.929 . S
C782 C774 1.378 . S
C782 C777 1.350 . S
C783 H770 0.929 . S
C783 C775 1.433 . S
C783 N785 1.384 . S
N784 C780 1.427 . S
N784 C781 1.384 . S
N785 C777 1.427 . S
N785 C783 1.384 . S
H786 C792 0.930 . S
H787 C796 0.930 . S
H788 C801 0.929 . S
H789 C799 0.929 . S
H790 C794 0.929 . S
H791 C800 0.929 . S
C792 H786 0.930 . S
C792 C793 1.367 . S
C792 C800 1.378 . S
C793 C792 1.367 . S
C793 C801 1.433 . S
C794 H790 0.929 . S
C794 C796 1.378 . S
C794 C798 1.350 . S
C795 C798 1.463 . S
C795 C800 1.350 . S
C795 N803 1.427 . S
C796 H787 0.930 . S
C796 C794 1.378 . S
C796 C797 1.367 . S
C797 C796 1.367 . S
C797 C799 1.433 . S
C798 C794 1.350 . S
C798 C795 1.463 . S
C798 N802 1.427 . S
C799 H789 0.929 . S
C799 C797 1.433 . S
C799 N802 1.384 . S
C800 H791 0.929 . S
C800 C792 1.378 . S
C800 C795 1.350 . S
C801 H788 0.929 . S
C801 C793 1.433 . S
C801 N803 1.384 . S
N802 C798 1.427 . S
N802 C799 1.384 . S
N803 C795 1.427 . S
N803 C801 1.384 . S
H804 C810 0.930 . S
H805 C814 0.930 . S
H806 C819 0.929 . S
H807 C817 0.929 . S
H808 C812 0.929 1_556 S
H809 C818 0.929 1_554 S
C810 H804 0.930 . S
C810 C811 1.367 . S
C810 C818 1.378 . S
C811 C810 1.367 . S
C811 C819 1.433 . S
C812 H808 0.929 1_554 S
C812 C814 1.378 . S
C812 C816 1.350 . S
C813 C816 1.463 1_566 S
C813 C818 1.350 . S
C813 N821 1.427 . S
C814 H805 0.930 . S
C814 C812 1.378 . S
C814 C815 1.367 . S
C815 C814 1.367 . S
C815 C817 1.433 . S
C816 C812 1.350 . S
C816 C813 1.463 1_544 S
C816 N820 1.427 . S
C817 H807 0.929 . S
C817 C815 1.433 . S
C817 N820 1.384 . S
C818 H809 0.929 1_556 S
C818 C810 1.378 . S
C818 C813 1.350 . S
C819 H806 0.929 . S
C819 C811 1.433 . S
C819 N821 1.384 . S
N820 C816 1.427 . S
N820 C817 1.384 . S
N821 C813 1.427 . S
N821 C819 1.384 . S
H822 C828 0.930 . S
H823 C832 0.930 . S
H824 C837 0.929 . S
H825 C835 0.929 . S
H826 C830 0.929 . S
H827 C836 0.929 . S
C828 H822 0.930 . S
C828 C829 1.367 . S
C828 C836 1.378 . S
C829 C828 1.367 . S
C829 C837 1.433 . S
C830 H826 0.929 . S
C830 C832 1.378 . S
C830 C834 1.350 . S
C831 C834 1.463 . S
C831 C836 1.350 . S
C831 N839 1.427 . S
C832 H823 0.930 . S
C832 C830 1.378 . S
C832 C833 1.367 . S
C833 C832 1.367 . S
C833 C835 1.433 . S
C834 C830 1.350 . S
C834 C831 1.463 . S
C834 N838 1.427 . S
C835 H825 0.929 . S
C835 C833 1.433 . S
C835 N838 1.384 . S
C836 H827 0.929 . S
C836 C828 1.378 . S
C836 C831 1.350 . S
C837 H824 0.929 . S
C837 C829 1.433 . S
C837 N839 1.384 . S
N838 C834 1.427 . S
N838 C835 1.384 . S
N839 C831 1.427 . S
N839 C837 1.384 . S
H840 C846 0.930 . S
H841 C850 0.930 . S
H842 C855 0.929 . S
H843 C853 0.929 . S
H844 C848 0.930 . S
H845 C854 0.930 . S
C846 H840 0.930 . S
C846 C847 1.367 . S
C846 C854 1.378 . S
C847 C846 1.367 . S
C847 C855 1.433 . S
C848 H844 0.930 . S
C848 C850 1.378 . S
C848 C852 1.350 . S
C849 C852 1.463 1_456 S
C849 C854 1.350 . S
C849 N857 1.427 . S
C850 H841 0.930 . S
C850 C848 1.378 . S
C850 C851 1.367 . S
C851 C850 1.367 . S
C851 C853 1.433 . S
C852 C848 1.350 . S
C852 C849 1.463 1_654 S
C852 N856 1.427 . S
C853 H843 0.929 . S
C853 C851 1.433 . S
C853 N856 1.384 . S
C854 H845 0.930 . S
C854 C846 1.378 . S
C854 C849 1.350 . S
C855 H842 0.929 . S
C855 C847 1.433 . S
C855 N857 1.384 . S
N856 C852 1.427 . S
N856 C853 1.384 . S
N857 C849 1.427 . S
N857 C855 1.384 . S
H858 C864 0.930 . S
H859 C868 0.930 . S
H860 C873 0.929 . S
H861 C871 0.929 . S
H862 C866 0.929 . S
H863 C872 0.929 . S
C864 H858 0.930 . S
C864 C865 1.367 . S
C864 C872 1.378 . S
C865 C864 1.367 . S
C865 C873 1.433 . S
C866 H862 0.929 . S
C866 C868 1.378 . S
C866 C870 1.350 . S
C867 C870 1.463 1_545 S
C867 C872 1.350 . S
C867 N875 1.427 . S
C868 H859 0.930 . S
C868 C866 1.378 . S
C868 C869 1.367 . S
C869 C868 1.367 . S
C869 C871 1.433 . S
C870 C866 1.350 . S
C870 C867 1.463 1_565 S
C870 N874 1.427 . S
C871 H861 0.929 . S
C871 C869 1.433 . S
C871 N874 1.384 . S
C872 H863 0.929 . S
C872 C864 1.378 . S
C872 C867 1.350 . S
C873 H860 0.929 . S
C873 C865 1.433 . S
C873 N875 1.384 . S
N874 C870 1.427 . S
N874 C871 1.384 . S
N875 C867 1.427 . S
N875 C873 1.384 . S
H876 C882 0.930 . S
H877 C886 0.930 . S
H878 C891 0.929 . S
H879 C889 0.929 . S
H880 C884 0.929 1_554 S
H881 C890 0.929 1_556 S
C882 H876 0.930 . S
C882 C883 1.367 . S
C882 C890 1.378 . S
C883 C882 1.367 . S
C883 C891 1.433 . S
C884 H880 0.929 1_556 S
C884 C886 1.378 . S
C884 C888 1.350 . S
C885 C888 1.463 1_554 S
C885 C890 1.350 . S
C885 N893 1.427 . S
C886 H877 0.930 . S
C886 C884 1.378 . S
C886 C887 1.367 . S
C887 C886 1.367 . S
C887 C889 1.433 . S
C888 C884 1.350 . S
C888 C885 1.463 1_556 S
C888 N892 1.427 . S
C889 H879 0.929 . S
C889 C887 1.433 . S
C889 N892 1.384 . S
C890 H881 0.929 1_554 S
C890 C882 1.378 . S
C890 C885 1.350 . S
C891 H878 0.929 . S
C891 C883 1.433 . S
C891 N893 1.384 . S
N892 C888 1.427 . S
N892 C889 1.384 . S
N893 C885 1.427 . S
N893 C891 1.384 . S
H894 C900 0.930 . S
H895 C904 0.930 . S
H896 C909 0.929 . S
H897 C907 0.929 . S
H898 C902 0.929 . S
H899 C908 0.929 . S
C900 H894 0.930 . S
C900 C901 1.367 . S
C900 C908 1.378 . S
C901 C900 1.367 . S
C901 C909 1.433 . S
C902 H898 0.929 . S
C902 C904 1.378 . S
C902 C906 1.350 . S
C903 C906 1.463 1_455 S
C903 C908 1.350 . S
C903 N911 1.427 . S
C904 H895 0.930 . S
C904 C902 1.378 . S
C904 C905 1.367 . S
C905 C904 1.367 . S
C905 C907 1.433 . S
C906 C902 1.350 . S
C906 C903 1.463 1_655 S
C906 N910 1.427 . S
C907 H897 0.929 . S
C907 C905 1.433 . S
C907 N910 1.384 . S
C908 H899 0.929 . S
C908 C900 1.378 . S
C908 C903 1.350 . S
C909 H896 0.929 . S
C909 C901 1.433 . S
C909 N911 1.384 . S
N910 C906 1.427 . S
N910 C907 1.384 . S
N911 C903 1.427 . S
N911 C909 1.384 . S
H912 C918 0.930 . S
H913 C922 0.930 . S
H914 C927 0.929 . S
H915 C925 0.929 . S
H916 C920 0.929 . S
H917 C926 0.929 . S
C918 H912 0.930 . S
C918 C919 1.367 . S
C918 C926 1.378 . S
C919 C918 1.367 . S
C919 C927 1.433 . S
C920 H916 0.929 . S
C920 C922 1.378 . S
C920 C924 1.350 . S
C921 C924 1.463 . S
C921 C926 1.350 . S
C921 N929 1.427 . S
C922 H913 0.930 . S
C922 C920 1.378 . S
C922 C923 1.367 . S
C923 C922 1.367 . S
C923 C925 1.433 . S
C924 C920 1.350 . S
C924 C921 1.463 . S
C924 N928 1.427 . S
C925 H915 0.929 . S
C925 C923 1.433 . S
C925 N928 1.384 . S
C926 H917 0.929 . S
C926 C918 1.378 . S
C926 C921 1.350 . S
C927 H914 0.929 . S
C927 C919 1.433 . S
C927 N929 1.384 . S
N928 C924 1.427 . S
N928 C925 1.384 . S
N929 C921 1.427 . S
N929 C927 1.384 . S
H930 C936 0.930 . S
H931 C940 0.930 . S
H932 C945 0.929 . S
H933 C943 0.929 . S
H934 C938 0.929 . S
H935 C944 0.929 . S
C936 H930 0.930 . S
C936 C937 1.367 . S
C936 C944 1.378 . S
C937 C936 1.367 . S
C937 C945 1.433 . S
C938 H934 0.929 . S
C938 C940 1.378 . S
C938 C942 1.350 . S
C939 C942 1.463 . S
C939 C944 1.350 . S
C939 N947 1.427 . S
C940 H931 0.930 . S
C940 C938 1.378 . S
C940 C941 1.367 . S
C941 C940 1.367 . S
C941 C943 1.433 . S
C942 C938 1.350 . S
C942 C939 1.463 . S
C942 N946 1.427 . S
C943 H933 0.929 . S
C943 C941 1.433 . S
C943 N946 1.384 . S
C944 H935 0.929 . S
C944 C936 1.378 . S
C944 C939 1.350 . S
C945 H932 0.929 . S
C945 C937 1.433 . S
C945 N947 1.384 . S
N946 C942 1.427 . S
N946 C943 1.384 . S
N947 C939 1.427 . S
N947 C945 1.384 . S
H948 C954 0.930 . S
H949 C958 0.930 . S
H950 C963 0.929 . S
H951 C961 0.929 . S
H952 C956 0.929 . S
H953 C962 0.929 . S
C954 H948 0.930 . S
C954 C955 1.367 . S
C954 C962 1.378 . S
C955 C954 1.367 . S
C955 C963 1.433 . S
C956 H952 0.929 . S
C956 C958 1.378 . S
C956 C960 1.350 . S
C957 C960 1.463 . S
C957 C962 1.350 . S
C957 N965 1.427 . S
C958 H949 0.930 . S
C958 C956 1.378 . S
C958 C959 1.367 . S
C959 C958 1.367 . S
C959 C961 1.433 . S
C960 C956 1.350 . S
C960 C957 1.463 . S
C960 N964 1.427 . S
C961 H951 0.929 . S
C961 C959 1.433 . S
C961 N964 1.384 . S
C962 H953 0.929 . S
C962 C954 1.378 . S
C962 C957 1.350 . S
C963 H950 0.929 . S
C963 C955 1.433 . S
C963 N965 1.384 . S
N964 C960 1.427 . S
N964 C961 1.384 . S
N965 C957 1.427 . S
N965 C963 1.384 . S
H966 C972 0.930 . S
H967 C976 0.930 . S
H968 C981 0.929 . S
H969 C979 0.929 . S
H970 C974 0.929 . S
H971 C980 0.929 . S
C972 H966 0.930 . S
C972 C973 1.367 . S
C972 C980 1.378 . S
C973 C972 1.367 . S
C973 C981 1.433 . S
C974 H970 0.929 . S
C974 C976 1.378 . S
C974 C978 1.350 . S
C975 C978 1.463 . S
C975 C980 1.350 . S
C975 N983 1.427 . S
C976 H967 0.930 . S
C976 C974 1.378 . S
C976 C977 1.367 . S
C977 C976 1.367 . S
C977 C979 1.433 . S
C978 C974 1.350 . S
C978 C975 1.463 . S
C978 N982 1.427 . S
C979 H969 0.929 . S
C979 C977 1.433 . S
C979 N982 1.384 . S
C980 H971 0.929 . S
C980 C972 1.378 . S
C980 C975 1.350 . S
C981 H968 0.929 . S
C981 C973 1.433 . S
C981 N983 1.384 . S
N982 C978 1.427 . S
N982 C979 1.384 . S
N983 C975 1.427 . S
N983 C981 1.384 . S
H984 C990 0.930 . S
H985 C994 0.930 . S
H986 C999 0.929 . S
H987 C997 0.929 . S
H988 C992 0.929 . S
H989 C998 0.929 . S
C990 H984 0.930 . S
C990 C991 1.367 . S
C990 C998 1.378 . S
C991 C990 1.367 . S
C991 C999 1.433 . S
C992 H988 0.929 . S
C992 C994 1.378 . S
C992 C996 1.350 . S
C993 C996 1.463 . S
C993 C998 1.350 . S
C993 N1001 1.427 . S
C994 H985 0.930 . S
C994 C992 1.378 . S
C994 C995 1.367 . S
C995 C994 1.367 . S
C995 C997 1.433 . S
C996 C992 1.350 . S
C996 C993 1.463 . S
C996 N1000 1.427 . S
C997 H987 0.929 . S
C997 C995 1.433 . S
C997 N1000 1.384 . S
C998 H989 0.929 . S
C998 C990 1.378 . S
C998 C993 1.350 . S
C999 H986 0.929 . S
C999 C991 1.433 . S
C999 N1001 1.384 . S
N1000 C996 1.427 . S
N1000 C997 1.384 . S
N1001 C993 1.427 . S
N1001 C999 1.384 . S
H1002 C1008 0.930 . S
H1003 C1012 0.930 . S
H1004 C1017 0.929 . S
H1005 C1015 0.929 . S
H1006 C1010 0.929 . S
H1007 C1016 0.929 . S
C1008 H1002 0.930 . S
C1008 C1009 1.367 . S
C1008 C1016 1.378 . S
C1009 C1008 1.367 . S
C1009 C1017 1.433 . S
C1010 H1006 0.929 . S
C1010 C1012 1.378 . S
C1010 C1014 1.350 . S
C1011 C1014 1.463 . S
C1011 C1016 1.350 . S
C1011 N1019 1.427 . S
C1012 H1003 0.930 . S
C1012 C1010 1.378 . S
C1012 C1013 1.367 . S
C1013 C1012 1.367 . S
C1013 C1015 1.433 . S
C1014 C1010 1.350 . S
C1014 C1011 1.463 . S
C1014 N1018 1.427 . S
C1015 H1005 0.929 . S
C1015 C1013 1.433 . S
C1015 N1018 1.384 . S
C1016 H1007 0.929 . S
C1016 C1008 1.378 . S
C1016 C1011 1.350 . S
C1017 H1004 0.929 . S
C1017 C1009 1.433 . S
C1017 N1019 1.384 . S
N1018 C1014 1.427 . S
N1018 C1015 1.384 . S
N1019 C1011 1.427 . S
N1019 C1017 1.384 . S
H1020 C1026 0.930 . S
H1021 C1030 0.930 . S
H1022 C1035 0.929 . S
H1023 C1033 0.929 . S
H1024 C1028 0.929 . S
H1025 C1034 0.929 . S
C1026 H1020 0.930 . S
C1026 C1027 1.367 . S
C1026 C1034 1.378 . S
C1027 C1026 1.367 . S
C1027 C1035 1.433 . S
C1028 H1024 0.929 . S
C1028 C1030 1.378 . S
C1028 C1032 1.350 . S
C1029 C1032 1.463 . S
C1029 C1034 1.350 . S
C1029 N1037 1.427 . S
C1030 H1021 0.930 . S
C1030 C1028 1.378 . S
C1030 C1031 1.367 . S
C1031 C1030 1.367 . S
C1031 C1033 1.433 . S
C1032 C1028 1.350 . S
C1032 C1029 1.463 . S
C1032 N1036 1.427 . S
C1033 H1023 0.929 . S
C1033 C1031 1.433 . S
C1033 N1036 1.384 . S
C1034 H1025 0.929 . S
C1034 C1026 1.378 . S
C1034 C1029 1.350 . S
C1035 H1022 0.929 . S
C1035 C1027 1.433 . S
C1035 N1037 1.384 . S
N1036 C1032 1.427 . S
N1036 C1033 1.384 . S
N1037 C1029 1.427 . S
N1037 C1035 1.384 . S
H1038 C1044 0.930 . S
H1039 C1048 0.930 . S
H1040 C1053 0.929 . S
H1041 C1051 0.929 . S
H1042 C1046 0.929 . S
H1043 C1052 0.929 . S
C1044 H1038 0.930 . S
C1044 C1045 1.367 . S
C1044 C1052 1.378 . S
C1045 C1044 1.367 . S
C1045 C1053 1.433 . S
C1046 H1042 0.929 . S
C1046 C1048 1.378 . S
C1046 C1050 1.350 . S
C1047 C1050 1.463 . S
C1047 C1052 1.350 . S
C1047 N1055 1.427 . S
C1048 H1039 0.930 . S
C1048 C1046 1.378 . S
C1048 C1049 1.367 . S
C1049 C1048 1.367 . S
C1049 C1051 1.433 . S
C1050 C1046 1.350 . S
C1050 C1047 1.463 . S
C1050 N1054 1.427 . S
C1051 H1041 0.929 . S
C1051 C1049 1.433 . S
C1051 N1054 1.384 . S
C1052 H1043 0.929 . S
C1052 C1044 1.378 . S
C1052 C1047 1.350 . S
C1053 H1040 0.929 . S
C1053 C1045 1.433 . S
C1053 N1055 1.384 . S
N1054 C1050 1.427 . S
N1054 C1051 1.384 . S
N1055 C1047 1.427 . S
N1055 C1053 1.384 . S
H1056 C1062 0.930 . S
H1057 C1066 0.930 . S
H1058 C1071 0.929 . S
H1059 C1069 0.929 . S
H1060 C1064 0.929 . S
H1061 C1070 0.929 . S
C1062 H1056 0.930 . S
C1062 C1063 1.367 . S
C1062 C1070 1.378 . S
C1063 C1062 1.367 . S
C1063 C1071 1.433 . S
C1064 H1060 0.929 . S
C1064 C1066 1.378 . S
C1064 C1068 1.350 . S
C1065 C1068 1.463 . S
C1065 C1070 1.350 . S
C1065 N1073 1.427 . S
C1066 H1057 0.930 . S
C1066 C1064 1.378 . S
C1066 C1067 1.367 . S
C1067 C1066 1.367 . S
C1067 C1069 1.433 . S
C1068 C1064 1.350 . S
C1068 C1065 1.463 . S
C1068 N1072 1.427 . S
C1069 H1059 0.929 . S
C1069 C1067 1.433 . S
C1069 N1072 1.384 . S
C1070 H1061 0.929 . S
C1070 C1062 1.378 . S
C1070 C1065 1.350 . S
C1071 H1058 0.929 . S
C1071 C1063 1.433 . S
C1071 N1073 1.384 . S
N1072 C1068 1.427 . S
N1072 C1069 1.384 . S
N1073 C1065 1.427 . S
N1073 C1071 1.384 . S
H1074 C1080 0.930 . S
H1075 C1084 0.930 . S
H1076 C1089 0.929 . S
H1077 C1087 0.929 . S
H1078 C1082 0.929 . S
H1079 C1088 0.929 . S
C1080 H1074 0.930 . S
C1080 C1081 1.367 . S
C1080 C1088 1.378 . S
C1081 C1080 1.367 . S
C1081 C1089 1.433 . S
C1082 H1078 0.929 . S
C1082 C1084 1.378 . S
C1082 C1086 1.350 . S
C1083 C1086 1.463 . S
C1083 C1088 1.350 . S
C1083 N1091 1.427 . S
C1084 H1075 0.930 . S
C1084 C1082 1.378 . S
C1084 C1085 1.367 . S
C1085 C1084 1.367 . S
C1085 C1087 1.433 . S
C1086 C1082 1.350 . S
C1086 C1083 1.463 . S
C1086 N1090 1.427 . S
C1087 H1077 0.929 . S
C1087 C1085 1.433 . S
C1087 N1090 1.384 . S
C1088 H1079 0.929 . S
C1088 C1080 1.378 . S
C1088 C1083 1.350 . S
C1089 H1076 0.929 . S
C1089 C1081 1.433 . S
C1089 N1091 1.384 . S
N1090 C1086 1.427 . S
N1090 C1087 1.384 . S
N1091 C1083 1.427 . S
N1091 C1089 1.384 . S
H1092 C1098 0.930 . S
H1093 C1102 0.930 . S
H1094 C1107 0.929 . S
H1095 C1105 0.929 . S
H1096 C1100 0.929 . S
H1097 C1106 0.929 . S
C1098 H1092 0.930 . S
C1098 C1099 1.367 . S
C1098 C1106 1.378 . S
C1099 C1098 1.367 . S
C1099 C1107 1.433 . S
C1100 H1096 0.929 . S
C1100 C1102 1.378 . S
C1100 C1104 1.350 . S
C1101 C1104 1.463 . S
C1101 C1106 1.350 . S
C1101 N1109 1.427 . S
C1102 H1093 0.930 . S
C1102 C1100 1.378 . S
C1102 C1103 1.367 . S
C1103 C1102 1.367 . S
C1103 C1105 1.433 . S
C1104 C1100 1.350 . S
C1104 C1101 1.463 . S
C1104 N1108 1.427 . S
C1105 H1095 0.929 . S
C1105 C1103 1.433 . S
C1105 N1108 1.384 . S
C1106 H1097 0.929 . S
C1106 C1098 1.378 . S
C1106 C1101 1.350 . S
C1107 H1094 0.929 . S
C1107 C1099 1.433 . S
C1107 N1109 1.384 . S
N1108 C1104 1.427 . S
N1108 C1105 1.384 . S
N1109 C1101 1.427 . S
N1109 C1107 1.384 . S
H1110 C1116 0.930 . S
H1111 C1120 0.930 . S
H1112 C1125 0.929 . S
H1113 C1123 0.929 . S
H1114 C1118 0.929 . S
H1115 C1124 0.929 . S
C1116 H1110 0.930 . S
C1116 C1117 1.367 . S
C1116 C1124 1.378 . S
C1117 C1116 1.367 . S
C1117 C1125 1.433 . S
C1118 H1114 0.929 . S
C1118 C1120 1.378 . S
C1118 C1122 1.350 . S
C1119 C1122 1.463 . S
C1119 C1124 1.350 . S
C1119 N1127 1.427 . S
C1120 H1111 0.930 . S
C1120 C1118 1.378 . S
C1120 C1121 1.367 . S
C1121 C1120 1.367 . S
C1121 C1123 1.433 . S
C1122 C1118 1.350 . S
C1122 C1119 1.463 . S
C1122 N1126 1.427 . S
C1123 H1113 0.929 . S
C1123 C1121 1.433 . S
C1123 N1126 1.384 . S
C1124 H1115 0.929 . S
C1124 C1116 1.378 . S
C1124 C1119 1.350 . S
C1125 H1112 0.929 . S
C1125 C1117 1.433 . S
C1125 N1127 1.384 . S
N1126 C1122 1.427 . S
N1126 C1123 1.384 . S
N1127 C1119 1.427 . S
N1127 C1125 1.384 . S
C487 C109 1.272 . S
C491 C12 1.262 . S
C505 C128 1.273 . S
C509 C71 1.260 . S
C523 C92 1.264 . S
C527 C189 1.270 . S
C541 C151 1.257 . S
C545 C208 1.272 . S
C559 C29 1.273 . S
C563 C172 1.259 . S
C577 C48 1.272 . S
C581 C231 1.263 . S
C595 C408 1.271 . S
C599 C271 1.256 . S
C613 C292 1.265 . S
C617 C469 1.272 . S
C631 C351 1.261 . S
C635 C248 1.273 . S
C649 C372 1.263 . S
C653 C309 1.272 . S
C667 C431 1.263 . S
C671 C328 1.272 . S
C685 C389 1.271 . S
C689 C452 1.256 . S
C703 C137 1.752 . S
C707 C2 1.749 . S
C721 C57 1.755 . S
C725 C162 1.746 . S
C739 C82 1.751 . S
C743 C217 1.750 . S
C757 C257 1.748 . S
C761 C362 1.753 . S
C775 C282 1.744 . S
C779 C417 1.757 . S
C793 C337 1.758 . S
C797 C442 1.743 . S
C811 C297 2.320 . S
C815 C17 2.320 . S
C829 C42 2.319 . S
C833 C322 2.319 . S
C847 C377 2.319 . S
C851 C97 2.320 . S
C865 C122 2.321 . S
C869 C402 2.321 . S
C883 C177 2.320 . S
C887 C457 2.320 . S
C901 C242 2.321 . S
C905 C202 2.321 . S
C919 C88 1.669 . S
C923 C31 1.714 . S
C937 C52 1.717 . S
C941 C149 1.676 . S
C955 C111 1.714 . S
C959 C168 1.669 . S
C973 C132 1.719 . S
C977 C229 1.680 . S
C991 C8 1.669 . S
C995 C191 1.714 . S
C1009 C69 1.669 . S
C1013 C212 1.715 . S
C1027 C429 1.679 . S
C1031 C252 1.719 . S
C1045 C311 1.719 . S
C1049 C448 1.681 . S
C1063 C332 1.716 . S
C1067 C269 1.672 . S
C1081 C288 1.669 . S
C1085 C391 1.714 . S
C1099 C412 1.719 . S
C1103 C349 1.680 . S
C1117 C471 1.715 . S
C1121 C368 1.670 . S
