# Generated by pormake.
# Topology ukr, (4)-cn, num edge types: 1
# Building blocks:
#     Node 0, Type 0, BuildingBlock: NAHDIM_clean_sbu_0, # of connection points: 4
#     Node 1, Type 0, BuildingBlock: NAHDIM_clean_sbu_0, # of connection points: 4
#     Node 2, Type 0, BuildingBlock: NAHDIM_clean_sbu_0, # of connection points: 4
#     Node 3, Type 0, BuildingBlock: NAHDIM_clean_sbu_0, # of connection points: 4
#     Node 4, Type 0, BuildingBlock: NAHDIM_clean_sbu_0, # of connection points: 4
#     Node 5, Type 0, BuildingBlock: NAHDIM_clean_sbu_0, # of connection points: 4
#     Node 6, Type 0, BuildingBlock: NAHDIM_clean_sbu_0, # of connection points: 4
#     Node 7, Type 0, BuildingBlock: NAHDIM_clean_sbu_0, # of connection points: 4
#     Node 8, Type 0, BuildingBlock: NAHDIM_clean_sbu_0, # of connection points: 4
#     Node 9, Type 0, BuildingBlock: NAHDIM_clean_sbu_0, # of connection points: 4
#     Node 10, Type 0, BuildingBlock: NAHDIM_clean_sbu_0, # of connection points: 4
#     Node 11, Type 0, BuildingBlock: NAHDIM_clean_sbu_0, # of connection points: 4
#     Node 12, Type 0, BuildingBlock: NAHDIM_clean_sbu_0, # of connection points: 4
#     Node 13, Type 0, BuildingBlock: NAHDIM_clean_sbu_0, # of connection points: 4
#     Node 14, Type 0, BuildingBlock: NAHDIM_clean_sbu_0, # of connection points: 4
#     Node 15, Type 0, BuildingBlock: NAHDIM_clean_sbu_0, # of connection points: 4
#     Node 16, Type 0, BuildingBlock: NAHDIM_clean_sbu_0, # of connection points: 4
#     Node 17, Type 0, BuildingBlock: NAHDIM_clean_sbu_0, # of connection points: 4
#     Node 18, Type 0, BuildingBlock: NAHDIM_clean_sbu_0, # of connection points: 4
#     Node 19, Type 0, BuildingBlock: NAHDIM_clean_sbu_0, # of connection points: 4
#     Node 20, Type 0, BuildingBlock: NAHDIM_clean_sbu_0, # of connection points: 4
#     Node 21, Type 0, BuildingBlock: NAHDIM_clean_sbu_0, # of connection points: 4
#     Node 22, Type 0, BuildingBlock: NAHDIM_clean_sbu_0, # of connection points: 4
#     Node 23, Type 0, BuildingBlock: NAHDIM_clean_sbu_0, # of connection points: 4
#     Node 24, Type 0, BuildingBlock: NAHDIM_clean_sbu_0, # of connection points: 4
#     Node 25, Type 0, BuildingBlock: NAHDIM_clean_sbu_0, # of connection points: 4
#     Node 26, Type 0, BuildingBlock: NAHDIM_clean_sbu_0, # of connection points: 4
#     Node 27, Type 0, BuildingBlock: NAHDIM_clean_sbu_0, # of connection points: 4
#     Node 28, Type 0, BuildingBlock: NAHDIM_clean_sbu_0, # of connection points: 4
#     Node 29, Type 0, BuildingBlock: NAHDIM_clean_sbu_0, # of connection points: 4
#     Node 30, Type 0, BuildingBlock: NAHDIM_clean_sbu_0, # of connection points: 4
#     Node 31, Type 0, BuildingBlock: NAHDIM_clean_sbu_0, # of connection points: 4
#     Node 32, Type 0, BuildingBlock: NAHDIM_clean_sbu_0, # of connection points: 4
#     Node 33, Type 0, BuildingBlock: NAHDIM_clean_sbu_0, # of connection points: 4
#     Node 34, Type 0, BuildingBlock: NAHDIM_clean_sbu_0, # of connection points: 4
#     Node 35, Type 0, BuildingBlock: NAHDIM_clean_sbu_0, # of connection points: 4
#     Node 36, Type 0, BuildingBlock: NAHDIM_clean_sbu_0, # of connection points: 4
#     Node 37, Type 0, BuildingBlock: NAHDIM_clean_sbu_0, # of connection points: 4
#     Node 38, Type 0, BuildingBlock: NAHDIM_clean_sbu_0, # of connection points: 4
#     Node 39, Type 0, BuildingBlock: NAHDIM_clean_sbu_0, # of connection points: 4
#     Node 40, Type 0, BuildingBlock: NAHDIM_clean_sbu_0, # of connection points: 4
#     Node 41, Type 0, BuildingBlock: NAHDIM_clean_sbu_0, # of connection points: 4
#     Node 42, Type 0, BuildingBlock: NAHDIM_clean_sbu_0, # of connection points: 4
#     Node 43, Type 0, BuildingBlock: NAHDIM_clean_sbu_0, # of connection points: 4
#     Node 44, Type 0, BuildingBlock: NAHDIM_clean_sbu_0, # of connection points: 4
#     Node 45, Type 0, BuildingBlock: NAHDIM_clean_sbu_0, # of connection points: 4
#     Node 46, Type 0, BuildingBlock: NAHDIM_clean_sbu_0, # of connection points: 4
#     Node 47, Type 0, BuildingBlock: NAHDIM_clean_sbu_0, # of connection points: 4
#     Edge 48, Type (0, 0), BuildingBlock: XUDNAN_clean_linker_2, # of connection points: 2
#     Edge 49, Type (0, 0), BuildingBlock: XUDNAN_clean_linker_2, # of connection points: 2
#     Edge 50, Type (0, 0), BuildingBlock: XUDNAN_clean_linker_2, # of connection points: 2
#     Edge 51, Type (0, 0), BuildingBlock: XUDNAN_clean_linker_2, # of connection points: 2
#     Edge 52, Type (0, 0), BuildingBlock: XUDNAN_clean_linker_2, # of connection points: 2
#     Edge 53, Type (0, 0), BuildingBlock: XUDNAN_clean_linker_2, # of connection points: 2
#     Edge 54, Type (0, 0), BuildingBlock: XUDNAN_clean_linker_2, # of connection points: 2
#     Edge 55, Type (0, 0), BuildingBlock: XUDNAN_clean_linker_2, # of connection points: 2
#     Edge 56, Type (0, 0), BuildingBlock: XUDNAN_clean_linker_2, # of connection points: 2
#     Edge 57, Type (0, 0), BuildingBlock: XUDNAN_clean_linker_2, # of connection points: 2
#     Edge 58, Type (0, 0), BuildingBlock: XUDNAN_clean_linker_2, # of connection points: 2
#     Edge 59, Type (0, 0), BuildingBlock: XUDNAN_clean_linker_2, # of connection points: 2
#     Edge 60, Type (0, 0), BuildingBlock: XUDNAN_clean_linker_2, # of connection points: 2
#     Edge 61, Type (0, 0), BuildingBlock: XUDNAN_clean_linker_2, # of connection points: 2
#     Edge 62, Type (0, 0), BuildingBlock: XUDNAN_clean_linker_2, # of connection points: 2
#     Edge 63, Type (0, 0), BuildingBlock: XUDNAN_clean_linker_2, # of connection points: 2
#     Edge 64, Type (0, 0), BuildingBlock: XUDNAN_clean_linker_2, # of connection points: 2
#     Edge 65, Type (0, 0), BuildingBlock: XUDNAN_clean_linker_2, # of connection points: 2
#     Edge 66, Type (0, 0), BuildingBlock: XUDNAN_clean_linker_2, # of connection points: 2
#     Edge 67, Type (0, 0), BuildingBlock: XUDNAN_clean_linker_2, # of connection points: 2
#     Edge 68, Type (0, 0), BuildingBlock: XUDNAN_clean_linker_2, # of connection points: 2
#     Edge 69, Type (0, 0), BuildingBlock: XUDNAN_clean_linker_2, # of connection points: 2
#     Edge 70, Type (0, 0), BuildingBlock: XUDNAN_clean_linker_2, # of connection points: 2
#     Edge 71, Type (0, 0), BuildingBlock: XUDNAN_clean_linker_2, # of connection points: 2
#     Edge 72, Type (0, 0), BuildingBlock: XUDNAN_clean_linker_2, # of connection points: 2
#     Edge 73, Type (0, 0), BuildingBlock: XUDNAN_clean_linker_2, # of connection points: 2
#     Edge 74, Type (0, 0), BuildingBlock: XUDNAN_clean_linker_2, # of connection points: 2
#     Edge 75, Type (0, 0), BuildingBlock: XUDNAN_clean_linker_2, # of connection points: 2
#     Edge 76, Type (0, 0), BuildingBlock: XUDNAN_clean_linker_2, # of connection points: 2
#     Edge 77, Type (0, 0), BuildingBlock: XUDNAN_clean_linker_2, # of connection points: 2
#     Edge 78, Type (0, 0), BuildingBlock: XUDNAN_clean_linker_2, # of connection points: 2
#     Edge 79, Type (0, 0), BuildingBlock: XUDNAN_clean_linker_2, # of connection points: 2
#     Edge 80, Type (0, 0), BuildingBlock: XUDNAN_clean_linker_2, # of connection points: 2
#     Edge 81, Type (0, 0), BuildingBlock: XUDNAN_clean_linker_2, # of connection points: 2
#     Edge 82, Type (0, 0), BuildingBlock: XUDNAN_clean_linker_2, # of connection points: 2
#     Edge 83, Type (0, 0), BuildingBlock: XUDNAN_clean_linker_2, # of connection points: 2
#     Edge 84, Type (0, 0), BuildingBlock: XUDNAN_clean_linker_2, # of connection points: 2
#     Edge 85, Type (0, 0), BuildingBlock: XUDNAN_clean_linker_2, # of connection points: 2
#     Edge 86, Type (0, 0), BuildingBlock: XUDNAN_clean_linker_2, # of connection points: 2
#     Edge 87, Type (0, 0), BuildingBlock: XUDNAN_clean_linker_2, # of connection points: 2
#     Edge 88, Type (0, 0), BuildingBlock: XUDNAN_clean_linker_2, # of connection points: 2
#     Edge 89, Type (0, 0), BuildingBlock: XUDNAN_clean_linker_2, # of connection points: 2
#     Edge 90, Type (0, 0), BuildingBlock: XUDNAN_clean_linker_2, # of connection points: 2
#     Edge 91, Type (0, 0), BuildingBlock: XUDNAN_clean_linker_2, # of connection points: 2
#     Edge 92, Type (0, 0), BuildingBlock: XUDNAN_clean_linker_2, # of connection points: 2
#     Edge 93, Type (0, 0), BuildingBlock: XUDNAN_clean_linker_2, # of connection points: 2
#     Edge 94, Type (0, 0), BuildingBlock: XUDNAN_clean_linker_2, # of connection points: 2
#     Edge 95, Type (0, 0), BuildingBlock: XUDNAN_clean_linker_2, # of connection points: 2
#     Edge 96, Type (0, 0), BuildingBlock: XUDNAN_clean_linker_2, # of connection points: 2
#     Edge 97, Type (0, 0), BuildingBlock: XUDNAN_clean_linker_2, # of connection points: 2
#     Edge 98, Type (0, 0), BuildingBlock: XUDNAN_clean_linker_2, # of connection points: 2
#     Edge 99, Type (0, 0), BuildingBlock: XUDNAN_clean_linker_2, # of connection points: 2
#     Edge 100, Type (0, 0), BuildingBlock: XUDNAN_clean_linker_2, # of connection points: 2
#     Edge 101, Type (0, 0), BuildingBlock: XUDNAN_clean_linker_2, # of connection points: 2
#     Edge 102, Type (0, 0), BuildingBlock: XUDNAN_clean_linker_2, # of connection points: 2
#     Edge 103, Type (0, 0), BuildingBlock: XUDNAN_clean_linker_2, # of connection points: 2
#     Edge 104, Type (0, 0), BuildingBlock: XUDNAN_clean_linker_2, # of connection points: 2
#     Edge 105, Type (0, 0), BuildingBlock: XUDNAN_clean_linker_2, # of connection points: 2
#     Edge 106, Type (0, 0), BuildingBlock: XUDNAN_clean_linker_2, # of connection points: 2
#     Edge 107, Type (0, 0), BuildingBlock: XUDNAN_clean_linker_2, # of connection points: 2
#     Edge 108, Type (0, 0), BuildingBlock: XUDNAN_clean_linker_2, # of connection points: 2
#     Edge 109, Type (0, 0), BuildingBlock: XUDNAN_clean_linker_2, # of connection points: 2
#     Edge 110, Type (0, 0), BuildingBlock: XUDNAN_clean_linker_2, # of connection points: 2
#     Edge 111, Type (0, 0), BuildingBlock: XUDNAN_clean_linker_2, # of connection points: 2
#     Edge 112, Type (0, 0), BuildingBlock: XUDNAN_clean_linker_2, # of connection points: 2
#     Edge 113, Type (0, 0), BuildingBlock: XUDNAN_clean_linker_2, # of connection points: 2
#     Edge 114, Type (0, 0), BuildingBlock: XUDNAN_clean_linker_2, # of connection points: 2
#     Edge 115, Type (0, 0), BuildingBlock: XUDNAN_clean_linker_2, # of connection points: 2
#     Edge 116, Type (0, 0), BuildingBlock: XUDNAN_clean_linker_2, # of connection points: 2
#     Edge 117, Type (0, 0), BuildingBlock: XUDNAN_clean_linker_2, # of connection points: 2
#     Edge 118, Type (0, 0), BuildingBlock: XUDNAN_clean_linker_2, # of connection points: 2
#     Edge 119, Type (0, 0), BuildingBlock: XUDNAN_clean_linker_2, # of connection points: 2
#     Edge 120, Type (0, 0), BuildingBlock: XUDNAN_clean_linker_2, # of connection points: 2
#     Edge 121, Type (0, 0), BuildingBlock: XUDNAN_clean_linker_2, # of connection points: 2
#     Edge 122, Type (0, 0), BuildingBlock: XUDNAN_clean_linker_2, # of connection points: 2
#     Edge 123, Type (0, 0), BuildingBlock: XUDNAN_clean_linker_2, # of connection points: 2
#     Edge 124, Type (0, 0), BuildingBlock: XUDNAN_clean_linker_2, # of connection points: 2
#     Edge 125, Type (0, 0), BuildingBlock: XUDNAN_clean_linker_2, # of connection points: 2
#     Edge 126, Type (0, 0), BuildingBlock: XUDNAN_clean_linker_2, # of connection points: 2
#     Edge 127, Type (0, 0), BuildingBlock: XUDNAN_clean_linker_2, # of connection points: 2
#     Edge 128, Type (0, 0), BuildingBlock: XUDNAN_clean_linker_2, # of connection points: 2
#     Edge 129, Type (0, 0), BuildingBlock: XUDNAN_clean_linker_2, # of connection points: 2
#     Edge 130, Type (0, 0), BuildingBlock: XUDNAN_clean_linker_2, # of connection points: 2
#     Edge 131, Type (0, 0), BuildingBlock: XUDNAN_clean_linker_2, # of connection points: 2
#     Edge 132, Type (0, 0), BuildingBlock: XUDNAN_clean_linker_2, # of connection points: 2
#     Edge 133, Type (0, 0), BuildingBlock: XUDNAN_clean_linker_2, # of connection points: 2
#     Edge 134, Type (0, 0), BuildingBlock: XUDNAN_clean_linker_2, # of connection points: 2
#     Edge 135, Type (0, 0), BuildingBlock: XUDNAN_clean_linker_2, # of connection points: 2
#     Edge 136, Type (0, 0), BuildingBlock: XUDNAN_clean_linker_2, # of connection points: 2
#     Edge 137, Type (0, 0), BuildingBlock: XUDNAN_clean_linker_2, # of connection points: 2
#     Edge 138, Type (0, 0), BuildingBlock: XUDNAN_clean_linker_2, # of connection points: 2
#     Edge 139, Type (0, 0), BuildingBlock: XUDNAN_clean_linker_2, # of connection points: 2
#     Edge 140, Type (0, 0), BuildingBlock: XUDNAN_clean_linker_2, # of connection points: 2
#     Edge 141, Type (0, 0), BuildingBlock: XUDNAN_clean_linker_2, # of connection points: 2
#     Edge 142, Type (0, 0), BuildingBlock: XUDNAN_clean_linker_2, # of connection points: 2
#     Edge 143, Type (0, 0), BuildingBlock: XUDNAN_clean_linker_2, # of connection points: 2
# Relax obj value: 0.402
# Max RMSD: 0.185
# Mean RMSD: 0.185
data_MOF--net-ukr--node1-NAHDIM_clean_sbu_0--edge1-XUDNAN_clean_linker_2
_symmetry_space_group_name_H-M    P1
_symmetry_Int_Tables_number       1
_symmetry_cell_setting            triclinic
loop_
_symmetry_equiv_pos_as_xyz
'x, y, z'
_cell_length_a     67.90583
_cell_length_b     67.924491
_cell_length_c     67.899829
_cell_angle_alpha  89.999883
_cell_angle_beta   90.022666
_cell_angle_gamma 89.984682
loop_
_atom_site_label
_atom_site_type_symbol
_atom_site_fract_x
_atom_site_fract_y
_atom_site_fract_z
_atom_type_partial_charge
C0 C 0.06599 0.31035 0.17494 0.0
O1 O 0.07035 0.31484 0.19324 0.0
O2 O 0.09895 0.26685 0.1922 0.0
Zn3 Zn 0.10338 0.29272 0.17846 0.0
O4 O 0.111 0.31229 0.19924 0.0
C5 C 0.12388 0.27836 0.1443 0.0
O6 O 0.10618 0.27251 0.1391 0.0
O7 O 0.07853 0.30099 0.16469 0.0
C8 C 0.12655 0.309 0.20909 0.0
O9 O 0.13763 0.29386 0.20435 0.0
C10 C 0.09187 0.2658 0.2095 0.0
O11 O 0.08611 0.28199 0.21836 0.0
O12 O 0.12593 0.28838 0.15996 0.0
C13 C 0.20331 0.56669 0.67483 0.0
O14 O 0.19711 0.57181 0.69243 0.0
O15 O 0.24553 0.60245 0.69182 0.0
Zn16 Zn 0.22024 0.60511 0.67669 0.0
O17 O 0.19945 0.61411 0.69575 0.0
C18 C 0.22313 0.64366 0.66037 0.0
O19 O 0.2171 0.64825 0.67817 0.0
O20 O 0.21332 0.57891 0.66482 0.0
C21 C 0.18146 0.61677 0.69142 0.0
O22 O 0.17546 0.61352 0.67331 0.0
C23 C 0.24596 0.59629 0.70949 0.0
O24 O 0.22948 0.59079 0.71799 0.0
O25 O 0.22491 0.6256 0.65578 0.0
C26 C 0.93677 0.70647 0.17756 0.0
O27 O 0.93136 0.70257 0.19572 0.0
O28 O 0.89655 0.73944 0.19397 0.0
Zn29 Zn 0.89679 0.71506 0.17695 0.0
O30 O 0.89163 0.69206 0.19487 0.0
C31 C 0.85778 0.71782 0.16181 0.0
O32 O 0.85388 0.71145 0.17965 0.0
O33 O 0.92383 0.71229 0.16535 0.0
C34 C 0.88239 0.67608 0.19199 0.0
O35 O 0.8743 0.67257 0.17477 0.0
C36 C 0.88493 0.74022 0.20862 0.0
O37 O 0.87401 0.72484 0.21286 0.0
O38 O 0.87565 0.71919 0.15643 0.0
C39 C 0.80544 0.42358 0.65224 0.0
O40 O 0.81821 0.41083 0.6453 0.0
O41 O 0.76138 0.39045 0.68827 0.0
Zn42 Zn 0.78586 0.38999 0.67165 0.0
O43 O 0.80717 0.37928 0.68928 0.0
C44 C 0.78399 0.35427 0.64805 0.0
O45 O 0.79546 0.347 0.66183 0.0
O46 O 0.79139 0.41769 0.66309 0.0
C47 C 0.82498 0.37497 0.68553 0.0
O48 O 0.83191 0.37749 0.66766 0.0
C49 C 0.75712 0.37454 0.69713 0.0
O50 O 0.76887 0.3593 0.69516 0.0
O51 O 0.77938 0.3724 0.64865 0.0
C52 C 0.06673 0.69959 0.84034 0.0
O53 O 0.07895 0.68518 0.84449 0.0
O54 O 0.1001 0.7427 0.80409 0.0
Zn55 Zn 0.10002 0.71781 0.82 0.0
O56 O 0.1063 0.69562 0.80136 0.0
C57 C 0.13784 0.7244 0.83659 0.0
O58 O 0.1427 0.72315 0.8179 0.0
O59 O 0.07288 0.71441 0.83073 0.0
C60 C 0.11931 0.6823 0.80309 0.0
O61 O 0.13016 0.6815 0.81908 0.0
C62 C 0.09469 0.74311 0.78617 0.0
O63 O 0.08848 0.72684 0.77776 0.0
O64 O 0.12002 0.7216 0.84155 0.0
C65 C 0.80457 0.55913 0.33345 0.0
O66 O 0.81894 0.57204 0.3342 0.0
O67 O 0.75977 0.58911 0.2952 0.0
Zn68 Zn 0.78389 0.59001 0.31243 0.0
O69 O 0.80649 0.59711 0.29479 0.0
C70 C 0.76269 0.61476 0.33897 0.0
O71 O 0.74814 0.60334 0.33329 0.0
O72 O 0.78842 0.56379 0.32519 0.0
C73 C 0.82129 0.60691 0.30065 0.0
O74 O 0.82256 0.61197 0.31928 0.0
C75 C 0.75684 0.60439 0.28479 0.0
O76 O 0.76954 0.61895 0.28587 0.0
O77 O 0.77994 0.61138 0.33257 0.0
C78 C 0.92945 0.30301 0.84412 0.0
O79 O 0.91705 0.31737 0.84033 0.0
O80 O 0.90406 0.25261 0.8114 0.0
Zn81 Zn 0.90007 0.27877 0.82492 0.0
O82 O 0.89534 0.29907 0.80374 0.0
C83 C 0.87369 0.25963 0.85122 0.0
O84 O 0.88655 0.24543 0.84853 0.0
O85 O 0.92481 0.28548 0.83951 0.0
C86 C 0.87874 0.30727 0.80102 0.0
O87 O 0.86415 0.30326 0.81306 0.0
C88 C 0.89434 0.24863 0.79591 0.0
O89 O 0.88211 0.26184 0.78882 0.0
O90 O 0.87669 0.27623 0.84312 0.0
C91 C 0.20551 0.41968 0.33873 0.0
O92 O 0.20008 0.41235 0.32167 0.0
O93 O 0.24547 0.37988 0.32632 0.0
Zn94 Zn 0.22099 0.38086 0.34299 0.0
O95 O 0.19976 0.3692 0.32602 0.0
C96 C 0.22127 0.34592 0.36692 0.0
O97 O 0.20938 0.33946 0.3531 0.0
O98 O 0.21475 0.40876 0.35079 0.0
C99 C 0.18123 0.37149 0.32707 0.0
O100 O 0.17369 0.38247 0.3411 0.0
C101 C 0.25203 0.39287 0.31455 0.0
O102 O 0.24286 0.4098 0.31288 0.0
O103 O 0.22692 0.36375 0.36642 0.0
C104 C 0.16996 0.08565 0.30742 0.0
O105 O 0.18718 0.09312 0.31212 0.0
O106 O 0.17981 0.1153 0.25826 0.0
Zn107 Zn 0.16748 0.12103 0.28462 0.0
O108 O 0.18884 0.13438 0.30036 0.0
C109 C 0.13748 0.14192 0.26351 0.0
O110 O 0.1431 0.12998 0.24938 0.0
O111 O 0.15844 0.09553 0.29649 0.0
C112 C 0.19631 0.14899 0.29136 0.0
O113 O 0.18869 0.15428 0.27437 0.0
C114 C 0.19687 0.10774 0.25687 0.0
O115 O 0.20609 0.10223 0.27297 0.0
O116 O 0.14515 0.14019 0.28051 0.0
C117 C 0.42938 0.67262 0.80044 0.0
O118 O 0.42242 0.6896 0.80655 0.0
O119 O 0.38967 0.68524 0.7595 0.0
Zn120 Zn 0.39062 0.67001 0.78488 0.0
O121 O 0.38052 0.68837 0.80572 0.0
C122 C 0.37013 0.6396 0.76499 0.0
O123 O 0.38208 0.64527 0.75087 0.0
O124 O 0.41818 0.66114 0.79081 0.0
C125 C 0.36505 0.69793 0.80134 0.0
O126 O 0.35632 0.69439 0.78443 0.0
C127 C 0.40233 0.69701 0.75237 0.0
O128 O 0.4191 0.69982 0.76159 0.0
O129 O 0.37181 0.64734 0.78195 0.0
C130 C 0.82494 0.93476 0.29726 0.0
O131 O 0.80795 0.93014 0.30525 0.0
O132 O 0.8049 0.89806 0.25624 0.0
Zn133 Zn 0.82045 0.89621 0.28139 0.0
O134 O 0.80123 0.88921 0.30295 0.0
C135 C 0.83284 0.85817 0.2717 0.0
O136 O 0.81358 0.85631 0.27101 0.0
O137 O 0.83366 0.92215 0.28656 0.0
C138 C 0.80287 0.87514 0.31515 0.0
O139 O 0.81884 0.86423 0.31506 0.0
C140 C 0.78668 0.90234 0.25581 0.0
O141 O 0.77768 0.90709 0.27226 0.0
O142 O 0.84015 0.87461 0.27684 0.0
C143 C 0.56798 0.34076 0.79477 0.0
O144 O 0.58076 0.34165 0.80927 0.0
O145 O 0.59494 0.3057 0.7464 0.0
Zn146 Zn 0.59849 0.3198 0.77209 0.0
O147 O 0.60637 0.29965 0.79249 0.0
C148 C 0.63601 0.33038 0.76077 0.0
O149 O 0.63596 0.3111 0.75915 0.0
O150 O 0.57292 0.33279 0.77859 0.0
C151 C 0.62077 0.30242 0.80413 0.0
O152 O 0.62981 0.31951 0.80413 0.0
C153 C 0.58798 0.28846 0.74451 0.0
O154 O 0.58173 0.27897 0.76017 0.0
O155 O 0.6206 0.33891 0.76714 0.0
C156 C 0.16993 0.93204 0.70765 0.0
O157 O 0.18854 0.92816 0.71133 0.0
O158 O 0.18058 0.89581 0.74374 0.0
Zn159 Zn 0.16903 0.89222 0.71658 0.0
O160 O 0.1909 0.88377 0.69854 0.0
C161 C 0.13921 0.86867 0.73409 0.0
O162 O 0.14202 0.88134 0.74844 0.0
O163 O 0.15755 0.91806 0.70827 0.0
C164 C 0.19337 0.8885 0.68062 0.0
O165 O 0.18046 0.89994 0.67187 0.0
C166 C 0.19624 0.88694 0.74887 0.0
O167 O 0.20519 0.87547 0.73612 0.0
O168 O 0.14862 0.87085 0.71806 0.0
C169 C 0.57022 0.64922 0.18573 0.0
O170 O 0.58257 0.65086 0.17095 0.0
O171 O 0.60012 0.67941 0.23575 0.0
Zn172 Zn 0.60214 0.66559 0.20969 0.0
O173 O 0.61039 0.68611 0.19003 0.0
C174 C 0.64035 0.65255 0.21622 0.0
O175 O 0.64244 0.67177 0.21553 0.0
O176 O 0.57576 0.65405 0.20295 0.0
C177 C 0.61896 0.68288 0.17373 0.0
O178 O 0.62248 0.66468 0.16821 0.0
C179 C 0.59437 0.69716 0.23714 0.0
O180 O 0.58841 0.70644 0.22123 0.0
O181 O 0.6234 0.64525 0.21307 0.0
C182 C 0.82849 0.07669 0.68393 0.0
O183 O 0.81035 0.08311 0.68191 0.0
O184 O 0.81754 0.10279 0.73274 0.0
Zn185 Zn 0.83108 0.11111 0.70764 0.0
O186 O 0.81118 0.12695 0.69234 0.0
C187 C 0.86453 0.12564 0.72954 0.0
O188 O 0.86383 0.10823 0.73795 0.0
O189 O 0.84072 0.08702 0.69359 0.0
C190 C 0.80501 0.14167 0.70214 0.0
O191 O 0.81286 0.1452 0.71948 0.0
C192 C 0.79905 0.09987 0.73311 0.0
O193 O 0.78897 0.10079 0.71663 0.0
O194 O 0.85293 0.1294 0.71536 0.0
C195 C 0.42696 0.3354 0.19986 0.0
O196 O 0.41415 0.33008 0.18638 0.0
O197 O 0.40305 0.309 0.25381 0.0
Zn198 Zn 0.39764 0.32117 0.22744 0.0
O199 O 0.38985 0.29901 0.20944 0.0
C200 C 0.36136 0.33309 0.24161 0.0
O201 O 0.36205 0.31435 0.24638 0.0
O202 O 0.42246 0.33377 0.21794 0.0
C203 C 0.37588 0.29945 0.19701 0.0
O204 O 0.36557 0.31568 0.19485 0.0
C205 C 0.41224 0.29282 0.25579 0.0
O206 O 0.41968 0.28421 0.24014 0.0
O207 O 0.37547 0.34035 0.23169 0.0
C208 C 0.29716 0.15752 0.07971 0.0
O209 O 0.31047 0.15488 0.09349 0.0
O210 O 0.25045 0.19569 0.10586 0.0
Zn211 Zn 0.27453 0.17886 0.10972 0.0
O212 O 0.29627 0.1964 0.11951 0.0
C213 C 0.25092 0.15242 0.13263 0.0
O214 O 0.23698 0.15934 0.12114 0.0
O215 O 0.28142 0.16681 0.08372 0.0
C216 C 0.31046 0.19004 0.12991 0.0
O217 O 0.31161 0.17114 0.13385 0.0
C218 C 0.2464 0.20913 0.11822 0.0
O219 O 0.25828 0.21199 0.13323 0.0
O220 O 0.26855 0.15816 0.13007 0.0
C221 C 0.28954 0.8278 0.9336 0.0
O222 O 0.29429 0.80988 0.92808 0.0
O223 O 0.24927 0.80872 0.89856 0.0
Zn224 Zn 0.27294 0.82669 0.89569 0.0
O225 O 0.29581 0.81112 0.8851 0.0
C226 C 0.25116 0.85869 0.87797 0.0
O227 O 0.24174 0.85879 0.89487 0.0
O228 O 0.27997 0.83866 0.92175 0.0
C229 C 0.29542 0.80577 0.86718 0.0
O230 O 0.28064 0.81142 0.85603 0.0
C231 C 0.25011 0.79034 0.89505 0.0
O232 O 0.26712 0.78219 0.89085 0.0
O233 O 0.26561 0.84705 0.87565 0.0
C234 C 0.6779 0.77899 0.42209 0.0
O235 O 0.69546 0.78502 0.41666 0.0
O236 O 0.69297 0.74078 0.38193 0.0
Zn237 Zn 0.67756 0.76605 0.38231 0.0
O238 O 0.69605 0.78771 0.37436 0.0
C239 C 0.64781 0.74691 0.36001 0.0
O240 O 0.6532 0.73225 0.37143 0.0
O241 O 0.66693 0.77051 0.40953 0.0
C242 C 0.6916 0.80586 0.3738 0.0
O243 O 0.67365 0.81139 0.37846 0.0
C244 C 0.711 0.73984 0.38687 0.0
O245 O 0.71997 0.75582 0.39303 0.0
O246 O 0.65576 0.76368 0.3624 0.0
C247 C 0.70517 0.16794 0.91877 0.0
O248 O 0.69791 0.18463 0.9122 0.0
O249 O 0.748 0.18635 0.88463 0.0
Zn250 Zn 0.72422 0.16887 0.88134 0.0
O251 O 0.70174 0.18459 0.86973 0.0
C252 C 0.72588 0.14401 0.84623 0.0
O253 O 0.71118 0.15491 0.83995 0.0
O254 O 0.71668 0.1581 0.9078 0.0
C255 C 0.70526 0.19901 0.85833 0.0
O256 O 0.72354 0.20289 0.85335 0.0
C257 C 0.74791 0.20376 0.89151 0.0
O258 O 0.73128 0.21147 0.8977 0.0
O259 O 0.73279 0.14694 0.86337 0.0
C260 C 0.34143 0.17941 0.42356 0.0
O261 O 0.33629 0.1659 0.4107 0.0
O262 O 0.31795 0.23434 0.40013 0.0
Zn263 Zn 0.33356 0.21007 0.39321 0.0
O264 O 0.31583 0.19364 0.3759 0.0
C265 C 0.36267 0.23577 0.37604 0.0
O266 O 0.35324 0.2491 0.38641 0.0
O267 O 0.34131 0.19743 0.41861 0.0
C268 C 0.31222 0.20224 0.35965 0.0
O269 O 0.32102 0.21907 0.35595 0.0
C270 C 0.29934 0.23354 0.4019 0.0
O271 O 0.29032 0.21656 0.39979 0.0
O272 O 0.35751 0.21784 0.37739 0.0
C273 C 0.706 0.82661 0.06694 0.0
O274 O 0.70097 0.80827 0.07044 0.0
O275 O 0.74144 0.80688 0.10613 0.0
Zn276 Zn 0.71659 0.82309 0.10683 0.0
O277 O 0.69443 0.80385 0.11085 0.0
C278 C 0.73539 0.85013 0.13244 0.0
O279 O 0.75005 0.84599 0.12051 0.0
O280 O 0.71326 0.83681 0.08084 0.0
C281 C 0.68472 0.80142 0.12663 0.0
O282 O 0.68811 0.813 0.14176 0.0
C283 C 0.74419 0.79503 0.12035 0.0
O284 O 0.73102 0.79421 0.1345 0.0
O285 O 0.71865 0.84241 0.12924 0.0
C286 C 0.66335 0.19015 0.57321 0.0
O287 O 0.66458 0.17658 0.58694 0.0
O288 O 0.68805 0.24424 0.60091 0.0
Zn289 Zn 0.67311 0.21869 0.60421 0.0
O290 O 0.69057 0.20079 0.62016 0.0
C291 C 0.6415 0.24069 0.6221 0.0
O292 O 0.64954 0.25534 0.61237 0.0
O293 O 0.66648 0.20805 0.5776 0.0
C294 C 0.69363 0.20744 0.6374 0.0
O295 O 0.68459 0.22368 0.6428 0.0
C296 C 0.70677 0.24422 0.60064 0.0
O297 O 0.71626 0.22739 0.60149 0.0
O298 O 0.64849 0.22347 0.62003 0.0
C299 C 0.325 0.79358 0.56782 0.0
O300 O 0.30646 0.79639 0.57263 0.0
O301 O 0.30533 0.7604 0.60393 0.0
Zn302 Zn 0.32432 0.78319 0.60728 0.0
O303 O 0.30905 0.80757 0.61475 0.0
C304 C 0.33838 0.7644 0.64185 0.0
O305 O 0.3197 0.75944 0.64233 0.0
O306 O 0.33694 0.78782 0.58101 0.0
C307 C 0.30591 0.81315 0.63232 0.0
O308 O 0.31385 0.8033 0.64695 0.0
C309 C 0.28801 0.76061 0.61104 0.0
O310 O 0.28172 0.77645 0.62017 0.0
O311 O 0.34443 0.77551 0.62802 0.0
C312 C 0.92324 0.70708 0.83967 0.0
O313 O 0.90914 0.69691 0.84813 0.0
O314 O 0.89305 0.75058 0.80059 0.0
Zn315 Zn 0.89173 0.72605 0.81705 0.0
O316 O 0.88125 0.70428 0.7999 0.0
C317 C 0.85505 0.73061 0.83745 0.0
O318 O 0.8481 0.72302 0.82106 0.0
O319 O 0.91894 0.71979 0.82662 0.0
C320 C 0.87564 0.68751 0.80598 0.0
O321 O 0.87653 0.68346 0.82487 0.0
C322 C 0.89806 0.7505 0.78257 0.0
O323 O 0.90315 0.7338 0.77423 0.0
O324 O 0.87357 0.73232 0.83955 0.0
C325 C 0.80118 0.41716 0.34036 0.0
O326 O 0.81532 0.40397 0.33978 0.0
O327 O 0.74797 0.38872 0.31434 0.0
Zn328 Zn 0.7761 0.3868 0.32288 0.0
O329 O 0.79225 0.38012 0.29883 0.0
C330 C 0.76729 0.36644 0.35839 0.0
O331 O 0.76013 0.38377 0.36317 0.0
O332 O 0.78406 0.4126 0.33441 0.0
C333 C 0.784 0.36977 0.28557 0.0
O334 O 0.76605 0.3632 0.28853 0.0
C335 C 0.74139 0.40011 0.30104 0.0
O336 O 0.75322 0.41311 0.29297 0.0
O337 O 0.77658 0.36462 0.34225 0.0
C338 C 0.07093 0.30296 0.84389 0.0
O339 O 0.08344 0.31726 0.84026 0.0
O340 O 0.09614 0.25152 0.8125 0.0
Zn341 Zn 0.10048 0.27752 0.82584 0.0
O342 O 0.10799 0.29696 0.80476 0.0
C343 C 0.13802 0.26536 0.83611 0.0
O344 O 0.13761 0.26279 0.81693 0.0
O345 O 0.07556 0.28538 0.83949 0.0
C346 C 0.12141 0.30984 0.80672 0.0
O347 O 0.1304 0.31165 0.82376 0.0
C348 C 0.09 0.2498 0.79492 0.0
O349 O 0.08476 0.26563 0.78511 0.0
O350 O 0.12306 0.27291 0.84448 0.0
C351 C 0.20687 0.56078 0.32345 0.0
O352 O 0.20161 0.56433 0.30517 0.0
O353 O 0.25124 0.58997 0.303 0.0
Zn354 Zn 0.22608 0.59706 0.31715 0.0
O355 O 0.20567 0.60486 0.29705 0.0
C356 C 0.23948 0.63502 0.32577 0.0
O357 O 0.24008 0.63483 0.30643 0.0
O358 O 0.21723 0.57345 0.3325 0.0
C359 C 0.19388 0.61925 0.29888 0.0
O360 O 0.19402 0.62965 0.31519 0.0
C361 C 0.25418 0.5945 0.28507 0.0
O362 O 0.24002 0.60306 0.27503 0.0
O363 O 0.23291 0.61995 0.33472 0.0
C364 C 0.92486 0.30372 0.16223 0.0
O365 O 0.9197 0.29823 0.18003 0.0
O366 O 0.88836 0.27168 0.17654 0.0
Zn367 Zn 0.88537 0.29287 0.15594 0.0
O368 O 0.86778 0.31407 0.16728 0.0
C369 C 0.8553 0.28552 0.12656 0.0
O370 O 0.84792 0.30214 0.13316 0.0
O371 O 0.91225 0.30291 0.14843 0.0
C372 C 0.87211 0.32445 0.18224 0.0
O373 O 0.88976 0.323 0.18997 0.0
C374 C 0.87369 0.26758 0.18739 0.0
O375 O 0.85725 0.27754 0.18509 0.0
O376 O 0.87174 0.27956 0.13323 0.0
C377 C 0.20093 0.42436 0.66886 0.0
O378 O 0.19306 0.41771 0.68521 0.0
O379 O 0.24419 0.38884 0.68531 0.0
Zn380 Zn 0.21941 0.38629 0.66922 0.0
O381 O 0.19764 0.37505 0.68626 0.0
C382 C 0.2198 0.35032 0.64635 0.0
O383 O 0.20777 0.34421 0.6602 0.0
O384 O 0.21228 0.41321 0.65902 0.0
C385 C 0.19775 0.37731 0.70486 0.0
O386 O 0.21189 0.38765 0.71305 0.0
C387 C 0.25113 0.37371 0.69385 0.0
O388 O 0.24175 0.35687 0.6922 0.0
O389 O 0.22593 0.368 0.64676 0.0
C390 C 0.07948 0.71507 0.18064 0.0
O391 O 0.08533 0.70965 0.19827 0.0
O392 O 0.11628 0.75582 0.19674 0.0
Zn393 Zn 0.118 0.73113 0.18047 0.0
O394 O 0.12811 0.70945 0.19779 0.0
C395 C 0.13353 0.74993 0.14648 0.0
O396 O 0.11637 0.75884 0.1473 0.0
O397 O 0.09132 0.72449 0.16966 0.0
C398 C 0.12991 0.69169 0.19224 0.0
O399 O 0.12517 0.68688 0.17411 0.0
C400 C 0.11243 0.7556 0.21506 0.0
O401 O 0.10862 0.73873 0.22372 0.0
O402 O 0.13733 0.73646 0.15888 0.0
C403 C 0.79952 0.5667 0.65917 0.0
O404 O 0.81333 0.5802 0.65802 0.0
O405 O 0.75132 0.59451 0.6941 0.0
Zn406 Zn 0.77683 0.59697 0.67937 0.0
O407 O 0.79754 0.60423 0.69927 0.0
C408 C 0.76382 0.63352 0.66552 0.0
O409 O 0.75921 0.63447 0.68429 0.0
O410 O 0.78313 0.57097 0.66711 0.0
C411 C 0.80863 0.61925 0.69833 0.0
O412 O 0.8077 0.63079 0.68283 0.0
C413 C 0.75049 0.58881 0.7119 0.0
O414 O 0.76668 0.58292 0.72071 0.0
O415 O 0.77277 0.61834 0.65919 0.0
C416 C 0.82456 0.93549 0.68798 0.0
O417 O 0.80602 0.9302 0.68644 0.0
O418 O 0.81413 0.90296 0.73367 0.0
Zn419 Zn 0.82669 0.89816 0.70721 0.0
O420 O 0.80583 0.88608 0.69011 0.0
C421 C 0.85614 0.87578 0.72758 0.0
O422 O 0.85144 0.88792 0.74189 0.0
O423 O 0.83671 0.92378 0.69609 0.0
C424 C 0.80512 0.88635 0.67142 0.0
O425 O 0.81906 0.89529 0.66144 0.0
C426 C 0.7965 0.90899 0.73548 0.0
O427 O 0.78623 0.91309 0.71961 0.0
O428 O 0.84824 0.87806 0.71076 0.0
C429 C 0.56842 0.32447 0.19758 0.0
O430 O 0.58103 0.32076 0.18341 0.0
O431 O 0.59628 0.29543 0.24916 0.0
Zn432 Zn 0.59965 0.31115 0.22422 0.0
O433 O 0.6121 0.29352 0.20399 0.0
C434 C 0.63149 0.32958 0.24294 0.0
O435 O 0.633 0.31153 0.24972 0.0
O436 O 0.57337 0.32144 0.21538 0.0
C437 C 0.62205 0.2999 0.1895 0.0
O438 O 0.62408 0.31898 0.18701 0.0
C439 C 0.59444 0.27682 0.24944 0.0
O440 O 0.59277 0.26723 0.23272 0.0
O441 O 0.61798 0.33355 0.2306 0.0
C442 C 0.15427 0.07434 0.7171 0.0
O443 O 0.13927 0.08645 0.71552 0.0
O444 O 0.19296 0.10945 0.7543 0.0
Zn445 Zn 0.17794 0.10867 0.72883 0.0
O446 O 0.19602 0.11851 0.70781 0.0
C447 C 0.14596 0.12802 0.74769 0.0
O448 O 0.15219 0.11717 0.76246 0.0
O449 O 0.17092 0.08083 0.7226 0.0
C450 C 0.19257 0.11628 0.68957 0.0
O451 O 0.17611 0.1078 0.68396 0.0
C452 C 0.21068 0.10349 0.75523 0.0
O453 O 0.21903 0.09623 0.73936 0.0
O454 O 0.15431 0.12634 0.73104 0.0
C455 C 0.4278 0.65157 0.19046 0.0
O456 O 0.41445 0.65387 0.17664 0.0
O457 O 0.40248 0.67997 0.24365 0.0
Zn458 Zn 0.39797 0.66731 0.21717 0.0
O459 O 0.38793 0.68753 0.19801 0.0
C460 C 0.38069 0.63216 0.23273 0.0
O461 O 0.39804 0.63061 0.24118 0.0
O462 O 0.4236 0.65599 0.20814 0.0
C463 C 0.37125 0.69534 0.20132 0.0
O464 O 0.3611 0.68956 0.21675 0.0
C465 C 0.40364 0.69845 0.24636 0.0
O466 O 0.40224 0.71042 0.23124 0.0
O467 O 0.37757 0.64635 0.22095 0.0
C468 C 0.83121 0.07642 0.29081 0.0
O469 O 0.81345 0.08218 0.29588 0.0
O470 O 0.81363 0.10994 0.24876 0.0
Zn471 Zn 0.82958 0.11396 0.27342 0.0
O472 O 0.81095 0.12333 0.29441 0.0
C473 C 0.84059 0.15216 0.2649 0.0
O474 O 0.82149 0.15343 0.26779 0.0
O475 O 0.84205 0.08814 0.28104 0.0
C476 C 0.81466 0.12498 0.31266 0.0
O477 O 0.83223 0.12034 0.3193 0.0
C478 C 0.79552 0.1052 0.24914 0.0
O479 O 0.78696 0.10192 0.26617 0.0
O480 O 0.84892 0.13556 0.26724 0.0
C481 C 0.4255 0.33885 0.79526 0.0
O482 O 0.41206 0.34316 0.80847 0.0
O483 O 0.39514 0.29763 0.75297 0.0
Zn484 Zn 0.39499 0.31415 0.77755 0.0
O485 O 0.38904 0.29591 0.80001 0.0
C486 C 0.37402 0.34916 0.76445 0.0
O487 O 0.39144 0.35548 0.75892 0.0
O488 O 0.42118 0.32741 0.78108 0.0
C489 C 0.38195 0.30151 0.81638 0.0
O490 O 0.37873 0.32033 0.81943 0.0
C491 C 0.37848 0.29024 0.7487 0.0
O492 O 0.36354 0.29351 0.76056 0.0
O493 O 0.37265 0.33306 0.77385 0.0
C494 C 0.18072 0.94415 0.30593 0.0
O495 O 0.19936 0.93989 0.30897 0.0
O496 O 0.19667 0.91034 0.26383 0.0
Zn497 Zn 0.18266 0.90601 0.28975 0.0
O498 O 0.20291 0.89824 0.31008 0.0
C499 C 0.15546 0.88112 0.2692 0.0
O500 O 0.15974 0.89325 0.25476 0.0
O501 O 0.16974 0.93135 0.29784 0.0
C502 C 0.20614 0.88037 0.31453 0.0
O503 O 0.19542 0.86652 0.30633 0.0
C504 C 0.21071 0.89903 0.25882 0.0
O505 O 0.21619 0.88495 0.27089 0.0
O506 O 0.16286 0.88415 0.28613 0.0
C507 C 0.57222 0.67763 0.80213 0.0
O508 O 0.57779 0.69529 0.80772 0.0
O509 O 0.60835 0.69121 0.75887 0.0
Zn510 Zn 0.61069 0.67744 0.785 0.0
O511 O 0.62062 0.69737 0.80447 0.0
C512 C 0.63164 0.64692 0.76549 0.0
O513 O 0.61941 0.6519 0.75135 0.0
O514 O 0.58421 0.6669 0.7926 0.0
C515 C 0.63616 0.70663 0.7997 0.0
O516 O 0.64516 0.70193 0.78323 0.0
C517 C 0.60155 0.70856 0.75712 0.0
O518 O 0.59513 0.71783 0.77283 0.0
O519 O 0.63038 0.65551 0.78207 0.0
C520 C 0.70848 0.84126 0.92483 0.0
O521 O 0.70341 0.82407 0.91753 0.0
O522 O 0.74784 0.82568 0.88908 0.0
Zn523 Zn 0.72407 0.84348 0.8868 0.0
O524 O 0.70167 0.82744 0.87592 0.0
C525 C 0.74798 0.86969 0.86377 0.0
O526 O 0.76218 0.86112 0.87372 0.0
O527 O 0.71748 0.85341 0.91384 0.0
C528 C 0.70373 0.81962 0.85905 0.0
O529 O 0.71977 0.82338 0.8489 0.0
C530 C 0.74671 0.80699 0.88922 0.0
O531 O 0.7294 0.79842 0.88852 0.0
O532 O 0.7302 0.86528 0.86763 0.0
C533 C 0.70169 0.16856 0.06096 0.0
O534 O 0.69662 0.18648 0.06621 0.0
O535 O 0.74491 0.18419 0.09463 0.0
Zn536 Zn 0.71907 0.17017 0.09882 0.0
O537 O 0.69935 0.19064 0.1073 0.0
C538 C 0.73977 0.14248 0.12288 0.0
O539 O 0.75396 0.14675 0.11044 0.0
O540 O 0.71111 0.1579 0.07311 0.0
C541 C 0.69138 0.19156 0.12419 0.0
O542 O 0.69503 0.17772 0.1372 0.0
C543 C 0.74575 0.20249 0.09085 0.0
O544 O 0.72934 0.21258 0.08908 0.0
O545 O 0.72285 0.15005 0.1203 0.0
C546 C 0.33492 0.18257 0.5653 0.0
O547 O 0.33 0.16913 0.57831 0.0
O548 O 0.302 0.23374 0.5886 0.0
Zn549 Zn 0.3179 0.20902 0.59385 0.0
O550 O 0.29928 0.18752 0.60222 0.0
C551 C 0.32854 0.22346 0.63091 0.0
O552 O 0.30924 0.22487 0.63131 0.0
O553 O 0.33184 0.20063 0.56918 0.0
C554 C 0.3011 0.17716 0.61768 0.0
O555 O 0.31664 0.17947 0.62896 0.0
C556 C 0.28387 0.23476 0.59324 0.0
O557 O 0.27498 0.21899 0.6 0.0
O558 O 0.33671 0.21604 0.61578 0.0
C559 C 0.30281 0.83527 0.07527 0.0
O560 O 0.30552 0.81699 0.08102 0.0
O561 O 0.26132 0.82299 0.10881 0.0
Zn562 Zn 0.2875 0.8361 0.1134 0.0
O563 O 0.30718 0.81617 0.12312 0.0
C564 C 0.27052 0.8701 0.1321 0.0
O565 O 0.26212 0.8724 0.11481 0.0
O566 O 0.29585 0.84759 0.0875 0.0
C567 C 0.30414 0.80745 0.13939 0.0
O568 O 0.28847 0.81209 0.14975 0.0
C569 C 0.25853 0.80453 0.10766 0.0
O570 O 0.27354 0.79244 0.10926 0.0
O571 O 0.28296 0.85633 0.13441 0.0
C572 C 0.67314 0.78548 0.56549 0.0
O573 O 0.68955 0.79374 0.57153 0.0
O574 O 0.68958 0.75322 0.61072 0.0
Zn575 Zn 0.6718 0.77649 0.60604 0.0
O576 O 0.68781 0.8007 0.61146 0.0
C577 C 0.64339 0.75694 0.6291 0.0
O578 O 0.65003 0.74223 0.61844 0.0
O579 O 0.66222 0.77684 0.57798 0.0
C580 C 0.69569 0.8031 0.62824 0.0
O581 O 0.69207 0.79026 0.64226 0.0
C582 C 0.69992 0.7441 0.59807 0.0
O583 O 0.69969 0.74983 0.5796 0.0
O584 O 0.64971 0.77421 0.62561 0.0
C585 C 0.3029 0.15517 0.9371 0.0
O586 O 0.31779 0.15341 0.92488 0.0
O587 O 0.26019 0.19195 0.90304 0.0
Zn588 Zn 0.28461 0.17519 0.9044 0.0
O589 O 0.30728 0.1934 0.89908 0.0
C590 C 0.26512 0.14684 0.881 0.0
O591 O 0.2509 0.15161 0.89321 0.0
O592 O 0.2872 0.16353 0.93127 0.0
C593 C 0.31737 0.19295 0.88335 0.0
O594 O 0.3139 0.17912 0.87028 0.0
C595 C 0.25582 0.19861 0.8861 0.0
O596 O 0.26737 0.19442 0.87115 0.0
O597 O 0.2821 0.1543 0.88351 0.0
C598 C 0.3325 0.7909 0.4246 0.0
O599 O 0.31432 0.79172 0.418 0.0
O600 O 0.32051 0.75585 0.38581 0.0
Zn601 Zn 0.33734 0.78014 0.38525 0.0
O602 O 0.32001 0.80147 0.37445 0.0
C603 C 0.37018 0.7593 0.37054 0.0
O604 O 0.36753 0.74995 0.38728 0.0
O605 O 0.3462 0.78634 0.41272 0.0
C606 C 0.32057 0.81974 0.37837 0.0
O607 O 0.33431 0.82659 0.39014 0.0
C608 C 0.31346 0.75079 0.36923 0.0
O609 O 0.3177 0.76146 0.35365 0.0
O610 O 0.35964 0.7743 0.36683 0.0
C611 C 0.66192 0.18682 0.43041 0.0
O612 O 0.66593 0.17245 0.41808 0.0
O613 O 0.69064 0.23745 0.40169 0.0
Zn614 Zn 0.67659 0.21146 0.399 0.0
O615 O 0.69733 0.19139 0.39234 0.0
C616 C 0.64834 0.23015 0.3738 0.0
O617 O 0.65268 0.24528 0.38504 0.0
O618 O 0.66458 0.20453 0.42499 0.0
C619 C 0.69925 0.18419 0.37519 0.0
O620 O 0.68661 0.18913 0.3614 0.0
C621 C 0.70275 0.24237 0.38831 0.0
O622 O 0.70544 0.23051 0.37327 0.0
O623 O 0.65626 0.21358 0.37741 0.0
H624 H 0.95138 0.31696 0.18893 0.0
H625 H 0.94484 0.30244 0.12709 0.0
H626 H 0.9807 0.3071 0.1223 0.0
H627 H 0.99183 0.35402 0.18249 0.0
H628 H 0.00352 0.34625 0.20503 0.0
H629 H 0.97711 0.3449 0.20262 0.0
H630 H 0.97825 0.30779 0.2115 0.0
H631 H 0.00457 0.30897 0.21381 0.0
H632 H 0.99353 0.29147 0.19718 0.0
H633 H 0.01777 0.3077 0.12586 0.0
H634 H 0.05243 0.30599 0.13702 0.0
H635 H 0.03397 0.32153 0.19618 0.0
C636 C 0.95742 0.31524 0.17427 0.0
C637 C 0.94545 0.30931 0.15839 0.0
C638 C 0.95381 0.30712 0.13942 0.0
C639 C 0.97413 0.30974 0.13658 0.0
C640 C 0.98567 0.31496 0.15277 0.0
C641 C 0.97751 0.31803 0.17117 0.0
C642 C 0.99311 0.32199 0.18653 0.0
C643 C 0.99128 0.34305 0.19464 0.0
C644 C 0.99231 0.30664 0.20322 0.0
C645 C 0.01142 0.31969 0.17415 0.0
C646 C 0.00691 0.31584 0.15467 0.0
C647 C 0.02149 0.31119 0.14097 0.0
C648 C 0.04111 0.31017 0.14744 0.0
C649 C 0.04589 0.31379 0.16743 0.0
C650 C 0.03085 0.31905 0.18074 0.0
H651 H 0.18478 0.53659 0.69399 0.0
H652 H 0.21604 0.55057 0.64002 0.0
H653 H 0.21481 0.51556 0.63032 0.0
H654 H 0.20971 0.49408 0.70434 0.0
H655 H 0.18895 0.48075 0.71413 0.0
H656 H 0.18934 0.50718 0.71523 0.0
H657 H 0.15599 0.50864 0.69668 0.0
H658 H 0.15545 0.48212 0.69559 0.0
H659 H 0.15346 0.49636 0.67328 0.0
H660 H 0.21429 0.47863 0.6288 0.0
H661 H 0.21433 0.44288 0.63552 0.0
H662 H 0.18314 0.45332 0.69033 0.0
C663 C 0.19093 0.53241 0.67989 0.0
C664 C 0.20047 0.54632 0.66775 0.0
C665 C 0.20858 0.54017 0.64953 0.0
C666 C 0.2079 0.52033 0.64387 0.0
C667 C 0.19888 0.50688 0.65647 0.0
C668 C 0.19038 0.51271 0.67403 0.0
C669 C 0.18322 0.49522 0.68581 0.0
C670 C 0.19342 0.49426 0.70606 0.0
C671 C 0.16069 0.49561 0.68796 0.0
C672 C 0.18977 0.47859 0.67255 0.0
C673 C 0.19851 0.48559 0.65555 0.0
C674 C 0.20715 0.47296 0.64187 0.0
C675 C 0.20715 0.45269 0.64584 0.0
C676 C 0.19866 0.4453 0.66341 0.0
C677 C 0.18949 0.45845 0.67664 0.0
H678 H 0.05014 0.69801 0.20208 0.0
H679 H 0.06219 0.72509 0.14545 0.0
H680 H 0.02695 0.72238 0.13673 0.0
H681 H 0.01074 0.66422 0.18511 0.0
H682 H 0.99682 0.66761 0.20746 0.0
H683 H 0.02331 0.66918 0.20797 0.0
H684 H 0.02094 0.70393 0.2236 0.0
H685 H 0.99452 0.70251 0.22307 0.0
H686 H 0.00689 0.7228 0.21128 0.0
H687 H 0.98983 0.71994 0.13579 0.0
H688 H 0.95413 0.71834 0.14294 0.0
H689 H 0.967 0.69309 0.20025 0.0
C690 C 0.04549 0.70299 0.18766 0.0
C691 C 0.05891 0.71171 0.17443 0.0
C692 C 0.05216 0.71829 0.15581 0.0
C693 C 0.03218 0.71676 0.1507 0.0
C694 C 0.01925 0.7085 0.16432 0.0
C695 C 0.02568 0.70162 0.18237 0.0
C696 C 0.00871 0.69489 0.19508 0.0
C697 C 0.00998 0.67265 0.19914 0.0
C698 C 0.00771 0.70675 0.21439 0.0
C699 C 0.99163 0.69968 0.18164 0.0
C700 C 0.99796 0.70724 0.16384 0.0
C701 C 0.98471 0.71379 0.14957 0.0
C702 C 0.96448 0.71284 0.15376 0.0
C703 C 0.9578 0.70559 0.17214 0.0
C704 C 0.97161 0.69862 0.18602 0.0
H705 H 0.77833 0.45231 0.65903 0.0
H706 H 0.8376 0.44297 0.63705 0.0
H707 H 0.84181 0.47902 0.63347 0.0
H708 H 0.76645 0.49481 0.62758 0.0
H709 H 0.75257 0.50663 0.64686 0.0
H710 H 0.75378 0.48015 0.64572 0.0
H711 H 0.76685 0.47918 0.68161 0.0
H712 H 0.76573 0.50559 0.68284 0.0
H713 H 0.78858 0.49307 0.68793 0.0
H714 H 0.8404 0.51642 0.63563 0.0
H715 H 0.83328 0.55148 0.64267 0.0
H716 H 0.77472 0.53534 0.66255 0.0
C717 C 0.79213 0.45778 0.6532 0.0
C718 C 0.80766 0.44486 0.64835 0.0
C719 C 0.82547 0.45263 0.64077 0.0
C720 C 0.82798 0.47306 0.63869 0.0
C721 C 0.81245 0.48541 0.644 0.0
C722 C 0.7948 0.47799 0.65091 0.0
C723 C 0.7807 0.49422 0.65658 0.0
C724 C 0.76229 0.49393 0.6434 0.0
C725 C 0.77516 0.49293 0.67854 0.0
C726 C 0.79336 0.512 0.65239 0.0
C727 C 0.81156 0.50672 0.64498 0.0
C728 C 0.82609 0.52073 0.64115 0.0
C729 C 0.82192 0.54059 0.64522 0.0
C730 C 0.80343 0.54617 0.6531 0.0
C731 C 0.78894 0.53164 0.65637 0.0
H732 H 0.95472 0.72982 0.82976 0.0
H733 H 0.93892 0.67602 0.86039 0.0
H734 H 0.97426 0.66909 0.86624 0.0
H735 H 0.99564 0.71136 0.80496 0.0
H736 H 0.01 0.73357 0.80712 0.0
H737 H 0.98356 0.73491 0.80694 0.0
H738 H 0.98415 0.7535 0.84031 0.0
H739 H 0.01065 0.75224 0.84057 0.0
H740 H 0.99673 0.74273 0.86106 0.0
H741 H 0.01173 0.66687 0.86604 0.0
H742 H 0.04764 0.67 0.86047 0.0
H743 H 0.03786 0.7257 0.83067 0.0
C744 C 0.95863 0.71667 0.8379 0.0
C745 C 0.9441 0.70343 0.84459 0.0
C746 C 0.94984 0.68641 0.8552 0.0
C747 C 0.96986 0.68236 0.85859 0.0
C748 C 0.98383 0.69562 0.85149 0.0
C749 C 0.9784 0.71252 0.84153 0.0
C750 C 0.99611 0.72408 0.83468 0.0
C751 C 0.99633 0.72608 0.81209 0.0
C752 C 0.99696 0.74433 0.84477 0.0
C753 C 0.01243 0.71079 0.84187 0.0
C754 C 0.00515 0.6945 0.85164 0.0
C755 C 0.01758 0.67971 0.85864 0.0
C756 C 0.03794 0.68159 0.85539 0.0
C757 C 0.04557 0.69812 0.84521 0.0
C758 C 0.03257 0.71296 0.83866 0.0
H759 H 0.7769 0.53031 0.33711 0.0
H760 H 0.83928 0.54178 0.34484 0.0
H761 H 0.84478 0.50656 0.3522 0.0
H762 H 0.7728 0.49083 0.37527 0.0
H763 H 0.75553 0.47719 0.36042 0.0
H764 H 0.7562 0.50369 0.35901 0.0
H765 H 0.76136 0.50152 0.32123 0.0
H766 H 0.76079 0.47512 0.32253 0.0
H767 H 0.78169 0.48736 0.31169 0.0
H768 H 0.84401 0.46937 0.35377 0.0
H769 H 0.8369 0.43386 0.34984 0.0
H770 H 0.77497 0.44745 0.3417 0.0
C771 C 0.79166 0.52553 0.34081 0.0
C772 C 0.80766 0.53876 0.34039 0.0
C773 C 0.82677 0.5319 0.34517 0.0
C774 C 0.83004 0.51193 0.34941 0.0
C775 C 0.81398 0.49915 0.3491 0.0
C776 C 0.79512 0.50577 0.34515 0.0
C777 C 0.78062 0.48895 0.34398 0.0
C778 C 0.76539 0.49025 0.36067 0.0
C779 C 0.77054 0.4882 0.32365 0.0
C780 C 0.79439 0.47174 0.34695 0.0
C781 C 0.81352 0.47784 0.35019 0.0
C782 C 0.82902 0.46442 0.35165 0.0
C783 C 0.82485 0.44429 0.34936 0.0
C784 C 0.80538 0.43788 0.34551 0.0
C785 C 0.78999 0.45183 0.34481 0.0
H786 H 0.04169 0.27653 0.85149 0.0
H787 H 0.05401 0.3392 0.85019 0.0
H788 H 0.01873 0.34614 0.85587 0.0
H789 H 0.00031 0.27827 0.82398 0.0
H790 H 0.98705 0.2593 0.83695 0.0
H791 H 0.01348 0.25927 0.83704 0.0
H792 H 0.0136 0.25948 0.87522 0.0
H793 H 0.98705 0.2594 0.87526 0.0
H794 H 0.00028 0.27837 0.88828 0.0
H795 H 0.98164 0.34614 0.85608 0.0
H796 H 0.94634 0.3392 0.8506 0.0
H797 H 0.9587 0.27652 0.85172 0.0
C798 C 0.03711 0.29173 0.85299 0.0
C799 C 0.05061 0.30732 0.85043 0.0
C800 C 0.04395 0.327 0.85221 0.0
C801 C 0.02394 0.33108 0.8555 0.0
C802 C 0.01088 0.31532 0.8572 0.0
C803 C 0.01728 0.29602 0.8562 0.0
C804 C 0.0002 0.28174 0.85614 0.0
C805 C 0.00027 0.26891 0.83742 0.0
C806 C 0.00029 0.269 0.87485 0.0
C807 C 0.98314 0.29602 0.85622 0.0
C808 C 0.98953 0.31532 0.85724 0.0
C809 C 0.97644 0.33108 0.85569 0.0
C810 C 0.95642 0.32699 0.85254 0.0
C811 C 0.94975 0.30731 0.85075 0.0
C812 C 0.96327 0.29172 0.85322 0.0
H813 H 0.1879 0.4469 0.31503 0.0
H814 H 0.21744 0.4404 0.37135 0.0
H815 H 0.21634 0.47645 0.37599 0.0
H816 H 0.21373 0.48684 0.29945 0.0
H817 H 0.19355 0.49896 0.28718 0.0
H818 H 0.19335 0.47268 0.29001 0.0
H819 H 0.15951 0.47464 0.30756 0.0
H820 H 0.15956 0.50103 0.30472 0.0
H821 H 0.15665 0.49029 0.32882 0.0
H822 H 0.21643 0.51322 0.37214 0.0
H823 H 0.21801 0.54745 0.35998 0.0
H824 H 0.18827 0.52961 0.30628 0.0
C825 C 0.19368 0.45298 0.32859 0.0
C826 C 0.20273 0.44085 0.34284 0.0
C827 C 0.21036 0.44942 0.36026 0.0
C828 C 0.20973 0.46987 0.36306 0.0
C829 C 0.20122 0.48148 0.34842 0.0
C830 C 0.19317 0.4733 0.3316 0.0
C831 C 0.18675 0.48897 0.31715 0.0
C832 C 0.1975 0.48672 0.29729 0.0
C833 C 0.16428 0.48871 0.31441 0.0
C834 C 0.19333 0.50724 0.32802 0.0
C835 C 0.20129 0.50268 0.3462 0.0
C836 C 0.20988 0.51701 0.35811 0.0
C837 C 0.21075 0.53641 0.35106 0.0
C838 C 0.20323 0.5412 0.33219 0.0
C839 C 0.19395 0.52648 0.32085 0.0
H840 H 0.20143 0.97506 0.32106 0.0
H841 H 0.14354 0.95871 0.29946 0.0
H842 H 0.1327 0.99329 0.30258 0.0
H843 H 0.18481 0.01477 0.35559 0.0
H844 H 0.20586 0.02982 0.34971 0.0
H845 H 0.20789 0.00336 0.34911 0.0
H846 H 0.22031 0.00512 0.31305 0.0
H847 H 0.21829 0.03148 0.31352 0.0
H848 H 0.20557 0.01759 0.29482 0.0
H849 H 0.12984 0.03009 0.30325 0.0
H850 H 0.13526 0.06596 0.30117 0.0
H851 H 0.19495 0.05806 0.32263 0.0
C852 C 0.1863 0.97862 0.31748 0.0
C853 C 0.17332 0.96418 0.31006 0.0
C854 C 0.15373 0.96952 0.30525 0.0
C855 C 0.14741 0.98911 0.30705 0.0
C856 C 0.1608 0.0031 0.31388 0.0
C857 C 0.1798 0.99805 0.31918 0.0
C858 C 0.19196 0.01604 0.32411 0.0
C859 C 0.19798 0.01599 0.34593 0.0
C860 C 0.21009 0.01764 0.31056 0.0
C861 C 0.17712 0.03209 0.31988 0.0
C862 C 0.15912 0.02435 0.31434 0.0
C863 C 0.14372 0.03633 0.30796 0.0
C864 C 0.14696 0.05669 0.30678 0.0
C865 C 0.1655 0.06482 0.31183 0.0
C866 C 0.18052 0.05235 0.31899 0.0
H867 H 0.54161 0.69927 0.81681 0.0
H868 H 0.5561 0.64184 0.79277 0.0
H869 H 0.52091 0.63278 0.79337 0.0
H870 H 0.49975 0.68293 0.84834 0.0
H871 H 0.48591 0.70496 0.84308 0.0
H872 H 0.51243 0.70575 0.84357 0.0
H873 H 0.5126 0.72015 0.80821 0.0
H874 H 0.48615 0.71929 0.80756 0.0
H875 H 0.50025 0.70698 0.78873 0.0
H876 H 0.48402 0.63159 0.79259 0.0
H877 H 0.44829 0.63823 0.79092 0.0
H878 H 0.4581 0.6964 0.81554 0.0
C879 C 0.53747 0.6846 0.81215 0.0
C880 C 0.5516 0.67124 0.8048 0.0
C881 C 0.54552 0.6523 0.79852 0.0
C882 C 0.52558 0.647 0.79885 0.0
C883 C 0.51195 0.66074 0.80566 0.0
C884 C 0.51765 0.67909 0.81235 0.0
C885 C 0.50003 0.69179 0.81727 0.0
C886 C 0.4995 0.69664 0.83938 0.0
C887 C 0.49975 0.71066 0.80469 0.0
C888 C 0.48351 0.67798 0.81163 0.0
C889 C 0.49066 0.66004 0.80521 0.0
C890 C 0.47822 0.64544 0.79791 0.0
C891 C 0.45797 0.64938 0.79695 0.0
C892 C 0.45041 0.6678 0.80317 0.0
C893 C 0.46338 0.68208 0.81091 0.0
H894 H 0.81138 0.04885 0.31204 0.0
H895 H 0.86417 0.05731 0.27706 0.0
H896 H 0.87111 0.02163 0.2791 0.0
H897 H 0.83055 0.00763 0.34343 0.0
H898 H 0.80693 0.99552 0.34318 0.0
H899 H 0.80827 0.02201 0.34204 0.0
H900 H 0.78754 0.02163 0.30997 0.0
H901 H 0.78625 0.99524 0.31091 0.0
H902 H 0.79587 0.00723 0.28928 0.0
H903 H 0.86928 0.98462 0.28055 0.0
H904 H 0.85911 0.94971 0.28161 0.0
H905 H 0.80756 0.96591 0.31572 0.0
C906 C 0.82471 0.04332 0.30525 0.0
C907 C 0.83725 0.05584 0.2944 0.0
C908 C 0.85442 0.04799 0.28555 0.0
C909 C 0.85849 0.02775 0.28667 0.0
C910 C 0.84539 0.01569 0.2969 0.0
C911 C 0.82896 0.02326 0.30623 0.0
C912 C 0.81608 0.00711 0.31453 0.0
C913 C 0.81543 0.00813 0.33714 0.0
C914 C 0.79522 0.00785 0.30563 0.0
C915 C 0.82731 0.98921 0.3076 0.0
C916 C 0.84435 0.9944 0.29776 0.0
C917 C 0.85619 0.98036 0.28858 0.0
C918 C 0.85026 0.96058 0.2892 0.0
C919 C 0.83256 0.95508 0.2988 0.0
C920 C 0.82127 0.96959 0.30848 0.0
H921 H 0.5382 0.33823 0.76805 0.0
H922 H 0.55073 0.35617 0.82811 0.0
H923 H 0.51517 0.36211 0.83356 0.0
H924 H 0.49606 0.37204 0.75908 0.0
H925 H 0.48315 0.35357 0.74505 0.0
H926 H 0.50969 0.3541 0.74504 0.0
H927 H 0.5104 0.31772 0.75659 0.0
H928 H 0.48396 0.3171 0.75673 0.0
H929 H 0.49746 0.31085 0.77873 0.0
H930 H 0.47781 0.36215 0.83342 0.0
H931 H 0.44242 0.35538 0.82808 0.0
H932 H 0.45515 0.33666 0.76833 0.0
C933 C 0.5336 0.34389 0.78223 0.0
C934 C 0.54726 0.3468 0.79764 0.0
C935 C 0.54053 0.35393 0.81605 0.0
C936 C 0.52037 0.35739 0.81926 0.0
C937 C 0.50724 0.35378 0.80386 0.0
C938 C 0.51366 0.34728 0.78567 0.0
C939 C 0.49665 0.3425 0.77215 0.0
C940 C 0.49637 0.35639 0.75427 0.0
C941 C 0.49715 0.32076 0.76569 0.0
C942 C 0.47957 0.34658 0.78578 0.0
C943 C 0.48589 0.35346 0.80388 0.0
C944 C 0.47271 0.35706 0.81921 0.0
C945 C 0.45264 0.35317 0.81604 0.0
C946 C 0.44606 0.34548 0.79779 0.0
C947 C 0.45971 0.34259 0.78242 0.0
H948 H 0.18368 0.04729 0.71423 0.0
H949 H 0.12021 0.05354 0.70984 0.0
H950 H 0.11726 0.01766 0.70391 0.0
H951 H 0.18906 0.00907 0.67668 0.0
H952 H 0.20829 0.99675 0.6902 0.0
H953 H 0.20528 0.02301 0.6924 0.0
H954 H 0.20228 0.01957 0.73033 0.0
H955 H 0.2053 0.99336 0.72826 0.0
H956 H 0.18395 0.00329 0.7405 0.0
H957 H 0.12142 0.98053 0.70116 0.0
H958 H 0.13221 0.94574 0.70204 0.0
H959 H 0.19292 0.96487 0.70782 0.0
C960 C 0.16913 0.04122 0.71184 0.0
C961 C 0.15215 0.05319 0.71254 0.0
C962 C 0.13342 0.04462 0.70932 0.0
C963 C 0.13161 0.02429 0.70591 0.0
C964 C 0.1487 0.01288 0.70556 0.0
C965 C 0.1671 0.02112 0.70834 0.0
C966 C 0.18314 0.00573 0.70827 0.0
C967 C 0.19727 0.00883 0.69085 0.0
C968 C 0.19431 0.00548 0.72801 0.0
C969 C 0.1709 0.98739 0.70557 0.0
C970 C 0.15109 0.99175 0.70384 0.0
C971 C 0.13692 0.97698 0.70226 0.0
C972 C 0.14318 0.95728 0.70278 0.0
C973 C 0.16341 0.9526 0.70496 0.0
C974 C 0.17737 0.96793 0.706 0.0
H975 H 0.45827 0.64598 0.21597 0.0
H976 H 0.44367 0.6451 0.15374 0.0
H977 H 0.47881 0.63982 0.14572 0.0
H978 H 0.49999 0.67375 0.21176 0.0
H979 H 0.51371 0.66128 0.23076 0.0
H980 H 0.48728 0.66157 0.23164 0.0
H981 H 0.48669 0.62342 0.23284 0.0
H982 H 0.51322 0.623 0.23206 0.0
H983 H 0.4992 0.60953 0.21399 0.0
H984 H 0.51603 0.639 0.14452 0.0
H985 H 0.55176 0.64303 0.15023 0.0
H986 H 0.54135 0.64462 0.21328 0.0
C987 C 0.46234 0.64421 0.20065 0.0
C988 C 0.44822 0.64592 0.18548 0.0
C989 C 0.45422 0.64374 0.16562 0.0
C990 C 0.47414 0.64069 0.16093 0.0
C991 C 0.48776 0.63966 0.17628 0.0
C992 C 0.48205 0.6412 0.19575 0.0
C993 C 0.49958 0.64151 0.20947 0.0
C994 C 0.50016 0.66067 0.2216 0.0
C995 C 0.49967 0.62328 0.22288 0.0
C996 C 0.51613 0.6407 0.19465 0.0
C997 C 0.5091 0.6393 0.17559 0.0
C998 C 0.52171 0.63976 0.1594 0.0
C999 C 0.54198 0.64208 0.16279 0.0
C1000 C 0.54935 0.64412 0.18221 0.0
C1001 C 0.53623 0.64295 0.19827 0.0
H1002 H 0.80343 0.04805 0.67101 0.0
H1003 H 0.86468 0.05885 0.68569 0.0
H1004 H 0.87158 0.0233 0.68286 0.0
H1005 H 0.79784 0.00814 0.69973 0.0
H1006 H 0.78181 0.99449 0.68358 0.0
H1007 H 0.78253 0.02087 0.68216 0.0
H1008 H 0.79114 0.01896 0.64503 0.0
H1009 H 0.79024 0.99246 0.64626 0.0
H1010 H 0.81201 0.00458 0.63713 0.0
H1011 H 0.87049 0.98652 0.68445 0.0
H1012 H 0.86158 0.95167 0.68974 0.0
H1013 H 0.80102 0.96498 0.67417 0.0
C1014 C 0.81846 0.04305 0.6729 0.0
C1015 C 0.83353 0.05623 0.67849 0.0
C1016 C 0.85291 0.04903 0.6813 0.0
C1017 C 0.85699 0.02885 0.67966 0.0
C1018 C 0.84158 0.01612 0.67502 0.0
C1019 C 0.82273 0.02298 0.67144 0.0
C1020 C 0.80826 0.00619 0.66918 0.0
C1021 C 0.79165 0.00751 0.68458 0.0
C1022 C 0.79993 0.00551 0.64815 0.0
C1023 C 0.8217 0.98887 0.67309 0.0
C1024 C 0.84093 0.99483 0.67604 0.0
C1025 C 0.85558 0.98161 0.68172 0.0
C1026 C 0.85036 0.96186 0.68478 0.0
C1027 C 0.83062 0.9556 0.68231 0.0
C1028 C 0.81629 0.96924 0.67593 0.0
H1029 H 0.54005 0.33581 0.22361 0.0
H1030 H 0.55081 0.327 0.16124 0.0
H1031 H 0.51581 0.33419 0.15426 0.0
H1032 H 0.49608 0.31173 0.22558 0.0
H1033 H 0.48463 0.32794 0.2432 0.0
H1034 H 0.51095 0.32547 0.24277 0.0
H1035 H 0.51454 0.36322 0.23832 0.0
H1036 H 0.48812 0.36581 0.23873 0.0
H1037 H 0.50206 0.3753 0.21823 0.0
H1038 H 0.47882 0.33746 0.1548 0.0
H1039 H 0.44334 0.33617 0.16284 0.0
H1040 H 0.45738 0.34349 0.22478 0.0
C1041 C 0.53518 0.33582 0.20842 0.0
C1042 C 0.54814 0.33085 0.19297 0.0
C1043 C 0.54115 0.33086 0.17331 0.0
C1044 C 0.52131 0.335 0.1692 0.0
C1045 C 0.50879 0.33936 0.18488 0.0
C1046 C 0.51553 0.33998 0.20409 0.0
C1047 C 0.4989 0.34315 0.21851 0.0
C1048 C 0.49756 0.32605 0.23337 0.0
C1049 C 0.50103 0.36306 0.22907 0.0
C1050 C 0.48159 0.34326 0.20454 0.0
C1051 C 0.48755 0.34141 0.18516 0.0
C1052 C 0.47399 0.33932 0.16987 0.0
C1053 C 0.45387 0.33859 0.17458 0.0
C1054 C 0.44758 0.33978 0.19443 0.0
C1055 C 0.46166 0.34277 0.20944 0.0
H1056 H 0.27163 0.15929 0.04881 0.0
H1057 H 0.33134 0.14236 0.06412 0.0
H1058 H 0.33834 0.1358 0.02896 0.0
H1059 H 0.26495 0.12397 0.00758 0.0
H1060 H 0.25103 0.14164 0.99348 0.0
H1061 H 0.25005 0.14209 0.02 0.0
H1062 H 0.26084 0.17871 0.01976 0.0
H1063 H 0.26193 0.17835 0.99333 0.0
H1064 H 0.28329 0.18556 0.00735 0.0
H1065 H 0.33982 0.13518 0.99169 0.0
H1066 H 0.33565 0.14054 0.9559 0.0
H1067 H 0.27489 0.15776 0.96574 0.0
C1068 C 0.28607 0.1538 0.04488 0.0
C1069 C 0.30094 0.15133 0.0592 0.0
C1070 C 0.31969 0.14427 0.05339 0.0
C1071 C 0.32378 0.14047 0.03347 0.0
C1072 C 0.30889 0.14359 0.01966 0.0
C1073 C 0.29036 0.14993 0.02518 0.0
C1074 C 0.27738 0.15378 0.00752 0.0
C1075 C 0.25981 0.13951 0.00713 0.0
C1076 C 0.27047 0.17538 0.00696 0.0
C1077 C 0.29172 0.14936 0.99111 0.0
C1078 C 0.30974 0.14322 0.99833 0.0
C1079 C 0.32568 0.13965 0.98587 0.0
C1080 C 0.32318 0.14277 0.96557 0.0
C1081 C 0.30494 0.14954 0.95802 0.0
C1082 C 0.28897 0.15243 0.971 0.0
H1083 H 0.31582 0.81149 0.04568 0.0
H1084 H 0.29327 0.87017 0.05716 0.0
H1085 H 0.29126 0.8763 0.02134 0.0
H1086 H 0.34387 0.82387 -0.00018 0.0
H1087 H 0.33734 0.8007 0.98865 0.0
H1088 H 0.3403 0.80238 0.01498 0.0
H1089 H 0.30514 0.78832 0.01972 0.0
H1090 H 0.30197 0.78679 0.9935 0.0
H1091 H 0.28458 0.8005 0.00813 0.0
H1092 H 0.28698 0.87405 0.98455 0.0
H1093 H 0.28181 0.86399 0.94994 0.0
H1094 H 0.30718 0.80679 0.96297 0.0
C1095 C 0.31099 0.82586 0.04071 0.0
C1096 C 0.30474 0.84037 0.05421 0.0
C1097 C 0.29826 0.85887 0.04708 0.0
C1098 C 0.29708 0.86249 0.02676 0.0
C1099 C 0.30265 0.84754 0.01383 0.0
C1100 C 0.30972 0.82968 0.02056 0.0
C1101 C 0.31297 0.81535 0.00382 0.0
C1102 C 0.33493 0.81028 0.00169 0.0
C1103 C 0.30041 0.79665 0.00646 0.0
C1104 C 0.30582 0.82763 0.9867 0.0
C1105 C 0.30019 0.84625 0.99268 0.0
C1106 C 0.2917 0.85965 0.97963 0.0
C1107 C 0.28874 0.85377 0.96003 0.0
C1108 C 0.29415 0.83463 0.95374 0.0
C1109 C 0.30308 0.8216 0.96724 0.0
H1110 H 0.6953 0.80017 0.53544 0.0
H1111 H 0.64056 0.76947 0.54752 0.0
H1112 H 0.63422 0.76692 0.51172 0.0
H1113 H 0.67834 0.82738 0.49192 0.0
H1114 H 0.70169 0.82466 0.47959 0.0
H1115 H 0.70075 0.82578 0.50609 0.0
H1116 H 0.71934 0.7925 0.50819 0.0
H1117 H 0.7203 0.79125 0.48176 0.0
H1118 H 0.70954 0.77131 0.49556 0.0
H1119 H 0.63531 0.76559 0.47449 0.0
H1120 H 0.64397 0.76506 0.43913 0.0
H1121 H 0.69814 0.79643 0.45211 0.0
C1122 C 0.6818 0.79318 0.53063 0.0
C1123 C 0.66839 0.78507 0.54427 0.0
C1124 C 0.65102 0.77585 0.53731 0.0
C1125 C 0.64727 0.77438 0.51703 0.0
C1126 C 0.661 0.78228 0.50397 0.0
C1127 C 0.67789 0.79155 0.51053 0.0
C1128 C 0.69097 0.7977 0.49361 0.0
C1129 C 0.69305 0.82022 0.49276 0.0
C1130 C 0.71123 0.78758 0.49486 0.0
C1131 C 0.67905 0.79002 0.47647 0.0
C1132 C 0.66171 0.78137 0.48267 0.0
C1133 C 0.64875 0.7725 0.46946 0.0
C1134 C 0.6538 0.77226 0.44941 0.0
C1135 C 0.67172 0.78071 0.44287 0.0
C1136 C 0.68429 0.78993 0.45661 0.0
H1137 H 0.68462 0.18925 0.03103 0.0
H1138 H 0.71317 0.1336 0.04421 0.0
H1139 H 0.7129 0.1252 0.00883 0.0
H1140 H 0.65429 0.17135 0.98843 0.0
H1141 H 0.65784 0.19414 0.97531 0.0
H1142 H 0.65705 0.19408 0.00185 0.0
H1143 H 0.69108 0.21135 0.00286 0.0
H1144 H 0.69206 0.21133 0.97642 0.0
H1145 H 0.71169 0.20018 0.99039 0.0
H1146 H 0.71422 0.12525 0.97191 0.0
H1147 H 0.71644 0.13347 0.93655 0.0
H1148 H 0.68685 0.189 0.94772 0.0
C1149 C 0.69031 0.17503 0.02658 0.0
C1150 C 0.69888 0.16206 0.04038 0.0
C1151 C 0.70644 0.14374 0.0339 0.0
C1152 C 0.70631 0.13881 0.01383 0.0
C1153 C 0.69836 0.15227 0.00052 0.0
C1154 C 0.6903 0.16992 0.00666 0.0
C1155 C 0.68451 0.18271 0.98936 0.0
C1156 C 0.66209 0.18574 0.9887 0.0
C1157 C 0.6955 0.20255 0.98979 0.0
C1158 C 0.69141 0.1699 0.97251 0.0
C1159 C 0.69907 0.15227 0.9792 0.0
C1160 C 0.70789 0.13882 0.96646 0.0
C1161 C 0.70915 0.14365 0.94641 0.0
C1162 C 0.70174 0.16184 0.93937 0.0
C1163 C 0.69239 0.17487 0.95258 0.0
H1164 H 0.34777 0.20668 0.53587 0.0
H1165 H 0.33542 0.14547 0.54928 0.0
H1166 H 0.34057 0.13683 0.51432 0.0
H1167 H 0.32177 0.20885 0.49336 0.0
H1168 H 0.33841 0.22486 0.48029 0.0
H1169 H 0.33752 0.22555 0.50671 0.0
H1170 H 0.37502 0.21854 0.50843 0.0
H1171 H 0.37607 0.21797 0.4819 0.0
H1172 H 0.38497 0.1973 0.49599 0.0
H1173 H 0.34157 0.13598 0.47708 0.0
H1174 H 0.3393 0.14298 0.44136 0.0
H1175 H 0.35158 0.2046 0.45301 0.0
C1176 C 0.3467 0.19136 0.53159 0.0
C1177 C 0.3412 0.17676 0.54529 0.0
C1178 C 0.33974 0.1569 0.53905 0.0
C1179 C 0.34266 0.15185 0.51922 0.0
C1180 C 0.34734 0.16677 0.50592 0.0
C1181 C 0.34963 0.18609 0.51194 0.0
C1182 C 0.35277 0.19971 0.49464 0.0
C1183 C 0.33666 0.21567 0.4937 0.0
C1184 C 0.37344 0.20891 0.49528 0.0
C1185 C 0.35092 0.18522 0.47787 0.0
C1186 C 0.34809 0.16623 0.48458 0.0
C1187 C 0.34421 0.15072 0.47165 0.0
C1188 C 0.3429 0.15483 0.4514 0.0
C1189 C 0.3453 0.17431 0.44438 0.0
C1190 C 0.34984 0.1895 0.45784 0.0
H1191 H 0.69035 0.80844 0.03477 0.0
H1192 H 0.71858 0.86265 0.05344 0.0
H1193 H 0.71871 0.87433 0.01894 0.0
H1194 H 0.7176 0.80169 0.99262 0.0
H1195 H 0.69771 0.79189 0.97801 0.0
H1196 H 0.69733 0.78916 0.00433 0.0
H1197 H 0.66316 0.80615 0.00575 0.0
H1198 H 0.66341 0.8089 0.97935 0.0
H1199 H 0.66 0.83015 0.99487 0.0
H1200 H 0.71919 0.87823 0.98191 0.0
H1201 H 0.72013 0.87391 0.94575 0.0
H1202 H 0.69136 0.8172 0.95197 0.0
C1203 C 0.69622 0.82295 0.03171 0.0
C1204 C 0.70444 0.83464 0.04678 0.0
C1205 C 0.71213 0.85346 0.04211 0.0
C1206 C 0.71222 0.86024 0.02258 0.0
C1207 C 0.70437 0.8481 0.00799 0.0
C1208 C 0.69639 0.82991 0.01239 0.0
C1209 C 0.6903 0.81897 0.99399 0.0
C1210 C 0.70141 0.79928 0.99214 0.0
C1211 C 0.66788 0.81587 0.99346 0.0
C1212 C 0.69679 0.83351 0.97847 0.0
C1213 C 0.70462 0.85036 0.98677 0.0
C1214 C 0.7128 0.86524 0.97525 0.0
C1215 C 0.7133 0.86265 0.95473 0.0
C1216 C 0.70578 0.84524 0.94605 0.0
C1217 C 0.69707 0.83075 0.95812 0.0
H1218 H 0.6567 0.21534 0.54273 0.0
H1219 H 0.66101 0.15315 0.55679 0.0
H1220 H 0.65685 0.14504 0.52147 0.0
H1221 H 0.62061 0.2106 0.5022 0.0
H1222 H 0.63225 0.22991 0.48821 0.0
H1223 H 0.63296 0.23046 0.51474 0.0
H1224 H 0.67108 0.23256 0.51374 0.0
H1225 H 0.67049 0.23201 0.4873 0.0
H1226 H 0.68478 0.21401 0.50058 0.0
H1227 H 0.65603 0.1442 0.48412 0.0
H1228 H 0.65906 0.15067 0.44841 0.0
H1229 H 0.65493 0.21345 0.45964 0.0
C1230 C 0.65644 0.19997 0.5385 0.0
C1231 C 0.65919 0.18486 0.55251 0.0
C1232 C 0.65885 0.16496 0.5463 0.0
C1233 C 0.65644 0.16023 0.52629 0.0
C1234 C 0.65416 0.17556 0.5128 0.0
C1235 C 0.654 0.19503 0.51872 0.0
C1236 C 0.65286 0.2089 0.50137 0.0
C1237 C 0.63352 0.22065 0.50165 0.0
C1238 C 0.67088 0.22266 0.50072 0.0
C1239 C 0.65314 0.19425 0.48465 0.0
C1240 C 0.65361 0.17508 0.49146 0.0
C1241 C 0.65535 0.15914 0.47863 0.0
C1242 C 0.65707 0.16297 0.45837 0.0
C1243 C 0.6572 0.18257 0.45123 0.0
C1244 C 0.65471 0.19829 0.46458 0.0
H1245 H 0.30628 0.80152 0.45307 0.0
H1246 H 0.36775 0.78648 0.44402 0.0
H1247 H 0.37345 0.78851 0.47994 0.0
H1248 H 0.31396 0.83565 0.49463 0.0
H1249 H 0.29183 0.82756 0.50684 0.0
H1250 H 0.29329 0.82706 0.48035 0.0
H1251 H 0.28442 0.78993 0.48056 0.0
H1252 H 0.28302 0.79029 0.50699 0.0
H1253 H 0.29919 0.77311 0.49484 0.0
H1254 H 0.37146 0.78895 0.51717 0.0
H1255 H 0.36203 0.78816 0.55235 0.0
H1256 H 0.30197 0.80315 0.53635 0.0
C1257 C 0.32104 0.79898 0.45856 0.0
C1258 C 0.33657 0.79385 0.44576 0.0
C1259 C 0.35563 0.7905 0.45358 0.0
C1260 C 0.35902 0.79165 0.47394 0.0
C1261 C 0.34323 0.79633 0.4862 0.0
C1262 C 0.32466 0.8001 0.47876 0.0
C1263 C 0.30988 0.80361 0.49502 0.0
C1264 C 0.30177 0.82473 0.49415 0.0
C1265 C 0.29315 0.78832 0.4943 0.0
C1266 C 0.32289 0.80066 0.51282 0.0
C1267 C 0.34212 0.79667 0.50751 0.0
C1268 C 0.35651 0.79233 0.52151 0.0
C1269 C 0.35101 0.79187 0.54144 0.0
C1270 C 0.33128 0.79564 0.5471 0.0
C1271 C 0.3172 0.80037 0.53255 0.0
H1272 H 0.19177 0.34415 0.29967 0.0
H1273 H 0.14267 0.38049 0.31854 0.0
H1274 H 0.12313 0.3686 0.29012 0.0
H1275 H 0.18621 0.35178 0.24849 0.0
H1276 H 0.19282 0.32696 0.24181 0.0
H1277 H 0.20254 0.33773 0.26401 0.0
H1278 H 0.18857 0.30872 0.28451 0.0
H1279 H 0.17898 0.29775 0.26235 0.0
H1280 H 0.16276 0.30275 0.28275 0.0
H1281 H 0.10978 0.35391 0.25847 0.0
H1282 H 0.1027 0.33571 0.22774 0.0
H1283 H 0.16065 0.30884 0.23044 0.0
C1284 C 0.17685 0.34953 0.29796 0.0
C1285 C 0.16873 0.36328 0.31128 0.0
C1286 C 0.14914 0.36988 0.30854 0.0
C1287 C 0.13798 0.36328 0.29241 0.0
C1288 C 0.14662 0.35001 0.27934 0.0
C1289 C 0.16554 0.34305 0.2821 0.0
C1290 C 0.17154 0.32892 0.26598 0.0
C1291 C 0.18933 0.33683 0.25439 0.0
C1292 C 0.1757 0.30831 0.27441 0.0
C1293 C 0.15307 0.32907 0.25357 0.0
C1294 C 0.13889 0.34138 0.26142 0.0
C1295 C 0.12073 0.34415 0.25226 0.0
C1296 C 0.1169 0.33383 0.23477 0.0
C1297 C 0.13113 0.32084 0.22673 0.0
C1298 C 0.14945 0.31859 0.23626 0.0
H1299 H 0.153 0.66128 0.79591 0.0
H1300 H 0.09564 0.67518 0.77135 0.0
H1301 H 0.10428 0.65722 0.74097 0.0
H1302 H 0.17937 0.66931 0.75292 0.0
H1303 H 0.19687 0.6497 0.7566 0.0
H1304 H 0.18528 0.66114 0.77749 0.0
H1305 H 0.17271 0.62714 0.78942 0.0
H1306 H 0.18441 0.61555 0.7686 0.0
H1307 H 0.15848 0.61195 0.77294 0.0
H1308 H 0.12024 0.64055 0.71211 0.0
H1309 H 0.14246 0.62643 0.68697 0.0
H1310 H 0.18953 0.62405 0.73023 0.0
C1311 C 0.14206 0.66008 0.78436 0.0
C1312 C 0.1236 0.66948 0.78605 0.0
C1313 C 0.10986 0.66801 0.7704 0.0
C1314 C 0.1146 0.65781 0.7531 0.0
C1315 C 0.13314 0.64915 0.75168 0.0
C1316 C 0.14663 0.6501 0.76692 0.0
C1317 C 0.1661 0.64099 0.76105 0.0
C1318 C 0.18288 0.6562 0.76207 0.0
C1319 C 0.17069 0.62283 0.77376 0.0
C1320 C 0.1616 0.63522 0.73999 0.0
C1321 C 0.14245 0.63982 0.73493 0.0
C1322 C 0.13521 0.63666 0.71597 0.0
C1323 C 0.14794 0.62868 0.70178 0.0
C1324 C 0.16771 0.62412 0.70662 0.0
C1325 C 0.17447 0.62729 0.72606 0.0
H1326 H 0.81764 0.60773 0.26056 0.0
H1327 H 0.85725 0.62343 0.30822 0.0
H1328 H 0.87976 0.63896 0.28427 0.0
H1329 H 0.856 0.59921 0.22207 0.0
H1330 H 0.84089 0.61009 0.20314 0.0
H1331 H 0.82955 0.5974 0.22351 0.0
H1332 H 0.80894 0.62852 0.23146 0.0
H1333 H 0.82022 0.6413 0.21122 0.0
H1334 H 0.82136 0.65161 0.23565 0.0
H1335 H 0.89563 0.6562 0.25619 0.0
H1336 H 0.90354 0.67472 0.22602 0.0
H1337 H 0.85351 0.64813 0.19643 0.0
C1338 C 0.83132 0.61394 0.2659 0.0
C1339 C 0.8358 0.61425 0.28623 0.0
C1340 C 0.85358 0.62296 0.2927 0.0
C1341 C 0.8665 0.63172 0.2792 0.0
C1342 C 0.86141 0.63158 0.25931 0.0
C1343 C 0.84428 0.62286 0.25265 0.0
C1344 C 0.8412 0.62654 0.23085 0.0
C1345 C 0.84196 0.60715 0.21921 0.0
C1346 C 0.82179 0.63765 0.22709 0.0
C1347 C 0.85893 0.6393 0.22644 0.0
C1348 C 0.87055 0.64174 0.24299 0.0
C1349 C 0.88685 0.65414 0.24304 0.0
C1350 C 0.89117 0.66465 0.22585 0.0
C1351 C 0.87918 0.66277 0.20887 0.0
C1352 C 0.86315 0.64956 0.20906 0.0
H1353 H 0.84458 0.32563 0.78991 0.0
H1354 H 0.90509 0.31595 0.77165 0.0
H1355 H 0.89848 0.33367 0.74059 0.0
H1356 H 0.82292 0.31777 0.74368 0.0
H1357 H 0.80433 0.33653 0.74642 0.0
H1358 H 0.81424 0.32449 0.76785 0.0
H1359 H 0.82408 0.35832 0.78256 0.0
H1360 H 0.81408 0.37048 0.7612 0.0
H1361 H 0.83927 0.37481 0.76835 0.0
H1362 H 0.88447 0.3504 0.71036 0.0
H1363 H 0.8644 0.3657 0.68405 0.0
H1364 H 0.8134 0.36445 0.72259 0.0
C1365 C 0.85655 0.32747 0.77954 0.0
C1366 C 0.87535 0.31942 0.78325 0.0
C1367 C 0.89056 0.32204 0.76918 0.0
C1368 C 0.88696 0.33208 0.75148 0.0
C1369 C 0.86813 0.33951 0.74813 0.0
C1370 C 0.85323 0.33746 0.76185 0.0
C1371 C 0.8341 0.34612 0.75442 0.0
C1372 C 0.81795 0.33028 0.75301 0.0
C1373 C 0.8275 0.36346 0.7674 0.0
C1374 C 0.84047 0.35306 0.73425 0.0
C1375 C 0.86015 0.34921 0.73087 0.0
C1376 C 0.86909 0.35367 0.71292 0.0
C1377 C 0.85757 0.36231 0.69805 0.0
C1378 C 0.83736 0.36636 0.70127 0.0
C1379 C 0.82884 0.36172 0.71968 0.0
H1380 H 0.28491 0.17273 0.36575 0.0
H1381 H 0.30474 0.21567 0.3227 0.0
H1382 H 0.27755 0.20626 0.3007 0.0
H1383 H 0.2689 0.13537 0.33001 0.0
H1384 H 0.24779 0.12824 0.34442 0.0
H1385 H 0.26955 0.13748 0.35647 0.0
H1386 H 0.24855 0.1643 0.37366 0.0
H1387 H 0.22677 0.15527 0.36153 0.0
H1388 H 0.23378 0.18073 0.35893 0.0
H1389 H 0.24755 0.19396 0.2842 0.0
H1390 H 0.21705 0.17797 0.27305 0.0
H1391 H 0.21617 0.1425 0.3263 0.0
C1392 C 0.2837 0.1799 0.35156 0.0
C1393 C 0.29698 0.19492 0.34593 0.0
C1394 C 0.29476 0.20414 0.32735 0.0
C1395 C 0.27935 0.19891 0.31473 0.0
C1396 C 0.26629 0.18439 0.32085 0.0
C1397 C 0.26833 0.17486 0.33872 0.0
C1398 C 0.25183 0.16011 0.34182 0.0
C1399 C 0.26001 0.13905 0.34326 0.0
C1400 C 0.23951 0.16543 0.36007 0.0
C1401 C 0.24016 0.16304 0.32299 0.0
C1402 C 0.24882 0.17714 0.31117 0.0
C1403 C 0.24067 0.18279 0.29324 0.0
C1404 C 0.22328 0.17365 0.28708 0.0
C1405 C 0.21419 0.15896 0.29878 0.0
C1406 C 0.22277 0.15365 0.31702 0.0
H1407 H 0.29437 0.78612 0.83207 0.0
H1408 H 0.32829 0.79172 0.886 0.0
H1409 H 0.35028 0.76494 0.87487 0.0
H1410 H 0.29588 0.73427 0.82964 0.0
H1411 H 0.29786 0.73323 0.80319 0.0
H1412 H 0.28567 0.75373 0.81474 0.0
H1413 H 0.30916 0.77802 0.79699 0.0
H1414 H 0.32131 0.7576 0.78521 0.0
H1415 H 0.33541 0.77498 0.79949 0.0
H1416 H 0.36771 0.73655 0.85832 0.0
H1417 H 0.37968 0.70935 0.83728 0.0
H1418 H 0.33372 0.7223 0.79471 0.0
C1419 C 0.30659 0.78195 0.84144 0.0
C1420 C 0.30968 0.79107 0.85986 0.0
C1421 C 0.3257 0.78498 0.87178 0.0
C1422 C 0.33825 0.76977 0.8656 0.0
C1423 C 0.33454 0.76084 0.8475 0.0
C1424 C 0.31915 0.76677 0.83557 0.0
C1425 C 0.31787 0.75436 0.81712 0.0
C1426 C 0.29815 0.74324 0.81613 0.0
C1427 C 0.32114 0.767 0.79861 0.0
C1428 C 0.33489 0.74044 0.82058 0.0
C1429 C 0.34437 0.74441 0.83814 0.0
C1430 C 0.36044 0.73334 0.8445 0.0
C1431 C 0.36709 0.7179 0.83249 0.0
C1432 C 0.35762 0.71368 0.81438 0.0
C1433 C 0.34127 0.7251 0.80848 0.0
H1434 H 0.73054 0.79909 0.36608 0.0
H1435 H 0.68653 0.84546 0.36746 0.0
H1436 H 0.71139 0.86923 0.35553 0.0
H1437 H 0.77251 0.8296 0.3814 0.0
H1438 H 0.78934 0.81692 0.36526 0.0
H1439 H 0.76853 0.80403 0.37549 0.0
H1440 H 0.75712 0.79439 0.34036 0.0
H1441 H 0.77787 0.80719 0.33004 0.0
H1442 H 0.75327 0.81341 0.32224 0.0
H1443 H 0.74018 0.88708 0.34056 0.0
H1444 H 0.77067 0.8977 0.32383 0.0
H1445 H 0.79594 0.83975 0.33312 0.0
C1446 C 0.72614 0.81429 0.36411 0.0
C1447 C 0.70657 0.82043 0.36768 0.0
C1448 C 0.70144 0.84044 0.36485 0.0
C1449 C 0.71547 0.85405 0.35813 0.0
C1450 C 0.73457 0.84743 0.35453 0.0
C1451 C 0.73993 0.82804 0.35753 0.0
C1452 C 0.76111 0.82441 0.35161 0.0
C1453 C 0.77361 0.81839 0.36951 0.0
C1454 C 0.7624 0.80894 0.33508 0.0
C1455 C 0.76671 0.84468 0.34429 0.0
C1456 C 0.75125 0.85779 0.34623 0.0
C1457 C 0.75248 0.87703 0.33924 0.0
C1458 C 0.76984 0.88291 0.32974 0.0
C1459 C 0.78573 0.86959 0.32733 0.0
C1460 C 0.78421 0.85037 0.33507 0.0
H1461 H 0.70843 0.23674 0.84495 0.0
H1462 H 0.66577 0.19074 0.85699 0.0
H1463 H 0.63894 0.2128 0.84587 0.0
H1464 H 0.67806 0.27716 0.86175 0.0
H1465 H 0.68689 0.29384 0.8431 0.0
H1466 H 0.7026 0.27441 0.85201 0.0
H1467 H 0.70733 0.26167 0.81633 0.0
H1468 H 0.69174 0.28111 0.80731 0.0
H1469 H 0.68599 0.25583 0.80164 0.0
H1470 H 0.61713 0.23939 0.83141 0.0
H1471 H 0.60198 0.26879 0.81604 0.0
H1472 H 0.65888 0.29781 0.81579 0.0
C1473 C 0.69345 0.23127 0.8452 0.0
C1474 C 0.68915 0.212 0.85167 0.0
C1475 C 0.66935 0.20547 0.85205 0.0
C1476 C 0.65404 0.21789 0.84578 0.0
C1477 C 0.6588 0.23684 0.83951 0.0
C1478 C 0.67801 0.24354 0.83934 0.0
C1479 C 0.67926 0.26454 0.83203 0.0
C1480 C 0.68717 0.2783 0.84819 0.0
C1481 C 0.69182 0.26585 0.81321 0.0
C1482 C 0.65777 0.26854 0.82779 0.0
C1483 C 0.64618 0.25238 0.83211 0.0
C1484 C 0.62601 0.25223 0.82824 0.0
C1485 C 0.61754 0.26896 0.81952 0.0
C1486 C 0.62921 0.28564 0.81503 0.0
C1487 C 0.6495 0.28545 0.8195 0.0
H1488 H 0.28945 0.82304 0.66775 0.0
H1489 H 0.28835 0.8377 0.60553 0.0
H1490 H 0.26077 0.86065 0.61145 0.0
H1491 H 0.23878 0.82142 0.67406 0.0
H1492 H 0.23872 0.83186 0.69847 0.0
H1493 H 0.25994 0.81857 0.68985 0.0
H1494 H 0.28212 0.84878 0.69706 0.0
H1495 H 0.26095 0.86214 0.70589 0.0
H1496 H 0.27594 0.87234 0.6865 0.0
H1497 H 0.23134 0.87976 0.62375 0.0
H1498 H 0.20278 0.8937 0.64157 0.0
H1499 H 0.22321 0.86594 0.69545 0.0
C1500 C 0.28375 0.83142 0.65543 0.0
C1501 C 0.29113 0.82865 0.6362 0.0
C1502 C 0.28298 0.83964 0.62042 0.0
C1503 C 0.26733 0.85273 0.62363 0.0
C1504 C 0.26004 0.8547 0.64271 0.0
C1505 C 0.26808 0.84444 0.65836 0.0
C1506 C 0.25673 0.84811 0.67716 0.0
C1507 C 0.24803 0.82884 0.68535 0.0
C1508 C 0.26971 0.85846 0.69256 0.0
C1509 C 0.24078 0.86166 0.66956 0.0
C1510 C 0.24302 0.86548 0.64971 0.0
C1511 C 0.22956 0.87704 0.63935 0.0
C1512 C 0.21336 0.88485 0.64958 0.0
C1513 C 0.21074 0.88092 0.66989 0.0
C1514 C 0.22478 0.86929 0.67994 0.0
H1515 H 0.66348 0.78991 0.15907 0.0
H1516 H 0.67745 0.77304 0.09898 0.0
H1517 H 0.65967 0.74177 0.10363 0.0
H1518 H 0.67071 0.744 0.18014 0.0
H1519 H 0.6507 0.74563 0.19749 0.0
H1520 H 0.66248 0.7677 0.18883 0.0
H1521 H 0.62881 0.7813 0.17701 0.0
H1522 H 0.61689 0.75928 0.18579 0.0
H1523 H 0.61391 0.7668 0.16051 0.0
H1524 H 0.64416 0.71067 0.11607 0.0
H1525 H 0.63002 0.68289 0.13492 0.0
H1526 H 0.62513 0.72052 0.18635 0.0
C1527 C 0.66243 0.77985 0.14674 0.0
C1528 C 0.67187 0.78395 0.12867 0.0
C1529 C 0.67031 0.77027 0.11297 0.0
C1530 C 0.66023 0.75245 0.11545 0.0
C1531 C 0.65157 0.74862 0.13362 0.0
C1532 C 0.65232 0.76204 0.14892 0.0
C1533 C 0.64273 0.75388 0.1673 0.0
C1534 C 0.65754 0.75273 0.18444 0.0
C1535 C 0.6245 0.76604 0.17298 0.0
C1536 C 0.637 0.73358 0.16011 0.0
C1537 C 0.64217 0.73084 0.14063 0.0
C1538 C 0.63969 0.71275 0.13122 0.0
C1539 C 0.63174 0.69705 0.14205 0.0
C1540 C 0.6263 0.69962 0.162 0.0
C1541 C 0.6288 0.71821 0.171 0.0
H1542 H 0.78507 0.13911 0.66681 0.0
H1543 H 0.78655 0.171 0.72227 0.0
H1544 H 0.75752 0.1901 0.71208 0.0
H1545 H 0.77093 0.18057 0.63675 0.0
H1546 H 0.75509 0.16634 0.6209 0.0
H1547 H 0.77594 0.15484 0.63261 0.0
H1548 H 0.75284 0.12858 0.64787 0.0
H1549 H 0.7319 0.14009 0.63632 0.0
H1550 H 0.73218 0.13636 0.6626 0.0
H1551 H 0.72861 0.20572 0.69634 0.0
H1552 H 0.70214 0.2183 0.67504 0.0
H1553 H 0.71909 0.17682 0.62937 0.0
C1554 C 0.77931 0.15015 0.67677 0.0
C1555 C 0.7881 0.15355 0.69534 0.0
C1556 C 0.78013 0.16814 0.70795 0.0
C1557 C 0.76358 0.17904 0.70234 0.0
C1558 C 0.75519 0.17525 0.68405 0.0
C1559 C 0.76279 0.16128 0.67136 0.0
C1560 C 0.75106 0.16047 0.65237 0.0
C1561 C 0.76403 0.16588 0.63461 0.0
C1562 C 0.74142 0.14017 0.64964 0.0
C1563 C 0.73576 0.17622 0.65639 0.0
C1564 C 0.7384 0.18444 0.67482 0.0
C1565 C 0.72635 0.19942 0.68187 0.0
C1566 C 0.71134 0.20644 0.66965 0.0
C1567 C 0.70852 0.19854 0.65054 0.0
C1568 C 0.7208 0.18307 0.64394 0.0
H1569 H 0.30727 0.23018 0.13186 0.0
H1570 H 0.34519 0.18148 0.14855 0.0
H1571 H 0.36751 0.20473 0.16543 0.0
H1572 H 0.34626 0.26692 0.12431 0.0
H1573 H 0.33169 0.28655 0.13464 0.0
H1574 H 0.31979 0.26634 0.12224 0.0
H1575 H 0.29867 0.25968 0.15332 0.0
H1576 H 0.31051 0.27981 0.16582 0.0
H1577 H 0.31071 0.25557 0.17662 0.0
H1578 H 0.38442 0.23287 0.18225 0.0
H1579 H 0.39447 0.26375 0.19846 0.0
H1580 H 0.34513 0.29404 0.17124 0.0
C1581 C 0.32046 0.22442 0.13874 0.0
C1582 C 0.32458 0.20402 0.13878 0.0
C1583 C 0.34178 0.19706 0.14829 0.0
C1584 C 0.35457 0.21015 0.15786 0.0
C1585 C 0.3499 0.23014 0.15779 0.0
C1586 C 0.33327 0.23725 0.14847 0.0
C1587 C 0.33092 0.25919 0.15167 0.0
C1588 C 0.33225 0.27041 0.13205 0.0
C1589 C 0.31156 0.26382 0.1625 0.0
C1590 C 0.34865 0.26326 0.16455 0.0
C1591 C 0.35951 0.24634 0.16773 0.0
C1592 C 0.37613 0.24625 0.17974 0.0
C1593 C 0.3817 0.26388 0.1889 0.0
C1594 C 0.3706 0.28134 0.1861 0.0
C1595 C 0.354 0.281 0.17357 0.0
H1596 H 0.83008 0.65305 0.70367 0.0
H1597 H 0.81417 0.59809 0.7322 0.0
H1598 H 0.83161 0.60866 0.76226 0.0
H1599 H 0.87905 0.65824 0.7267 0.0
H1600 H 0.87663 0.68457 0.72896 0.0
H1601 H 0.8646 0.67181 0.70903 0.0
H1602 H 0.83114 0.6868 0.71967 0.0
H1603 H 0.84302 0.69948 0.73967 0.0
H1604 H 0.82261 0.68325 0.74456 0.0
H1605 H 0.84824 0.62638 0.79015 0.0
H1606 H 0.86354 0.64972 0.81351 0.0
H1607 H 0.86859 0.69295 0.76665 0.0
C1608 C 0.83059 0.64306 0.71609 0.0
C1609 C 0.82081 0.62472 0.71554 0.0
C1610 C 0.8216 0.6122 0.73223 0.0
C1611 C 0.83149 0.61805 0.74939 0.0
C1612 C 0.8406 0.63641 0.74958 0.0
C1613 C 0.84037 0.64867 0.73333 0.0
C1614 C 0.85034 0.66811 0.73772 0.0
C1615 C 0.86875 0.67084 0.72484 0.0
C1616 C 0.83591 0.68542 0.73527 0.0
C1617 C 0.85581 0.66503 0.75911 0.0
C1618 C 0.8502 0.64661 0.76565 0.0
C1619 C 0.85292 0.64076 0.78514 0.0
C1620 C 0.86156 0.65414 0.79831 0.0
C1621 C 0.86732 0.67313 0.79191 0.0
C1622 C 0.86451 0.67849 0.77199 0.0
H1623 H 0.87537 0.34498 0.21685 0.0
H1624 H 0.83315 0.32718 0.17221 0.0
H1625 H 0.80612 0.33995 0.19278 0.0
H1626 H 0.84836 0.33047 0.25692 0.0
H1627 H 0.85505 0.35067 0.27279 0.0
H1628 H 0.87145 0.3431 0.25343 0.0
H1629 H 0.87144 0.37847 0.23914 0.0
H1630 H 0.8552 0.38625 0.25864 0.0
H1631 H 0.84836 0.39023 0.2333 0.0
H1632 H 0.78359 0.34983 0.21993 0.0
H1633 H 0.76701 0.35854 0.25104 0.0
H1634 H 0.8237 0.37076 0.27792 0.0
C1635 C 0.8605 0.34427 0.21113 0.0
C1636 C 0.8564 0.3351 0.1929 0.0
C1637 C 0.83669 0.33422 0.18609 0.0
C1638 C 0.82122 0.34144 0.19766 0.0
C1639 C 0.82572 0.34971 0.21589 0.0
C1640 C 0.84489 0.35146 0.22247 0.0
C1641 C 0.84561 0.35962 0.24324 0.0
C1642 C 0.85571 0.34509 0.25742 0.0
C1643 C 0.85575 0.37985 0.24359 0.0
C1644 C 0.82382 0.36143 0.24757 0.0
C1645 C 0.81262 0.35577 0.23153 0.0
C1646 C 0.79217 0.35468 0.23245 0.0
C1647 C 0.78291 0.35952 0.25023 0.0
C1648 C 0.79408 0.36542 0.26682 0.0
C1649 C 0.81479 0.3666 0.26536 0.0
H1650 H 0.15244 0.33564 0.80458 0.0
H1651 H 0.10611 0.30904 0.76941 0.0
H1652 H 0.11941 0.32518 0.73972 0.0
H1653 H 0.15475 0.3826 0.7775 0.0
H1654 H 0.18114 0.38418 0.77984 0.0
H1655 H 0.16688 0.37199 0.7986 0.0
H1656 H 0.18809 0.34056 0.79425 0.0
H1657 H 0.20231 0.35259 0.77542 0.0
H1658 H 0.19025 0.32954 0.77019 0.0
H1659 H 0.13942 0.34178 0.71342 0.0
H1660 H 0.16412 0.35857 0.69266 0.0
H1661 H 0.19708 0.37457 0.74507 0.0
C1662 C 0.14486 0.33349 0.79072 0.0
C1663 C 0.1282 0.32111 0.78935 0.0
C1664 C 0.11887 0.3185 0.77085 0.0
C1665 C 0.1263 0.32762 0.75389 0.0
C1666 C 0.14299 0.33939 0.75568 0.0
C1667 C 0.15207 0.34248 0.77364 0.0
C1668 C 0.17037 0.355 0.77141 0.0
C1669 C 0.16814 0.37461 0.78249 0.0
C1670 C 0.18884 0.34374 0.77821 0.0
C1671 C 0.1704 0.35811 0.74934 0.0
C1672 C 0.15444 0.34908 0.74054 0.0
C1673 C 0.15185 0.34913 0.72017 0.0
C1674 C 0.16598 0.35865 0.7085 0.0
C1675 C 0.18247 0.36798 0.71724 0.0
C1676 C 0.18454 0.36778 0.73795 0.0
H1677 H 0.17471 0.65435 0.2938 0.0
H1678 H 0.18638 0.59837 0.26524 0.0
H1679 H 0.16907 0.60998 0.23545 0.0
H1680 H 0.12592 0.66324 0.27155 0.0
H1681 H 0.13037 0.68928 0.26909 0.0
H1682 H 0.14169 0.67571 0.2889 0.0
H1683 H 0.17604 0.68795 0.27763 0.0
H1684 H 0.16487 0.70143 0.25774 0.0
H1685 H 0.18385 0.6836 0.25263 0.0
H1686 H 0.1527 0.62862 0.20789 0.0
H1687 H 0.13869 0.65296 0.18471 0.0
H1688 H 0.13845 0.6968 0.23127 0.0
C1689 C 0.17325 0.64437 0.28145 0.0
C1690 C 0.18178 0.62542 0.28188 0.0
C1691 C 0.17989 0.61294 0.26525 0.0
C1692 C 0.17005 0.61938 0.24828 0.0
C1693 C 0.16219 0.63832 0.24818 0.0
C1694 C 0.16362 0.65061 0.26435 0.0
C1695 C 0.15514 0.67074 0.26 0.0
C1696 C 0.13721 0.67498 0.27317 0.0
C1697 C 0.17092 0.68687 0.26212 0.0
C1698 C 0.1491 0.66799 0.23874 0.0
C1699 C 0.15308 0.64914 0.23223 0.0
C1700 C 0.14936 0.64338 0.21287 0.0
C1701 C 0.14143 0.6573 0.19981 0.0
C1702 C 0.13749 0.67677 0.20616 0.0
C1703 C 0.14126 0.68203 0.22594 0.0
H1704 H 0.778 0.86143 0.68748 0.0
H1705 H 0.7949 0.88908 0.63237 0.0
H1706 H 0.76712 0.87245 0.61563 0.0
H1707 H 0.76564 0.81514 0.66712 0.0
H1708 H 0.74531 0.81088 0.68364 0.0
H1709 H 0.76567 0.82598 0.69135 0.0
H1710 H 0.74157 0.85456 0.69911 0.0
H1711 H 0.72112 0.83955 0.69134 0.0
H1712 H 0.72512 0.86329 0.68017 0.0
H1713 H 0.73793 0.85208 0.6049 0.0
H1714 H 0.71099 0.82806 0.60048 0.0
H1715 H 0.71403 0.81337 0.66265 0.0
C1716 C 0.77579 0.86416 0.67191 0.0
C1717 C 0.78855 0.87663 0.66122 0.0
C1718 C 0.78529 0.87959 0.64084 0.0
C1719 C 0.76952 0.87028 0.63124 0.0
C1720 C 0.75724 0.85805 0.64225 0.0
C1721 C 0.76028 0.85491 0.66212 0.0
C1722 C 0.74566 0.84032 0.67044 0.0
C1723 C 0.7562 0.822 0.67861 0.0
C1724 C 0.7326 0.85002 0.68619 0.0
C1725 C 0.734 0.83554 0.65209 0.0
C1726 C 0.74074 0.84607 0.63603 0.0
C1727 C 0.73249 0.8438 0.61739 0.0
C1728 C 0.71717 0.83015 0.61504 0.0
C1729 C 0.71041 0.81883 0.63123 0.0
C1730 C 0.71882 0.82181 0.65001 0.0
H1731 H 0.63011 0.26106 0.19618 0.0
H1732 H 0.63586 0.30721 0.15234 0.0
H1733 H 0.65241 0.28375 0.12993 0.0
H1734 H 0.67725 0.24007 0.1881 0.0
H1735 H 0.66929 0.21508 0.19214 0.0
H1736 H 0.65663 0.23509 0.20405 0.0
H1737 H 0.62363 0.22335 0.18888 0.0
H1738 H 0.6362 0.2033 0.17688 0.0
H1739 H 0.62168 0.22031 0.16257 0.0
H1740 H 0.66889 0.25549 0.11268 0.0
H1741 H 0.68606 0.22514 0.10256 0.0
H1742 H 0.67059 0.19784 0.15829 0.0
C1743 C 0.63464 0.26618 0.18177 0.0
C1744 C 0.63158 0.2859 0.1759 0.0
C1745 C 0.63805 0.29214 0.15709 0.0
C1746 C 0.64738 0.27892 0.14425 0.0
C1747 C 0.65023 0.25959 0.15054 0.0
C1748 C 0.64418 0.25327 0.1689 0.0
C1749 C 0.65005 0.23208 0.17257 0.0
C1750 C 0.66415 0.2305 0.19026 0.0
C1751 C 0.6318 0.21899 0.17539 0.0
C1752 C 0.66046 0.22747 0.15342 0.0
C1753 C 0.66021 0.24347 0.14083 0.0
C1754 C 0.66914 0.24285 0.12239 0.0
C1755 C 0.67883 0.22552 0.11677 0.0
C1756 C 0.67968 0.2091 0.12964 0.0
C1757 C 0.67017 0.21011 0.14811 0.0
H1758 H 0.29398 0.1631 0.6547 0.0
H1759 H 0.27051 0.16365 0.59524 0.0
H1760 H 0.24092 0.14592 0.60677 0.0
H1761 H 0.27411 0.11473 0.66959 0.0
H1762 H 0.26874 0.12316 0.69419 0.0
H1763 H 0.28907 0.13362 0.68073 0.0
H1764 H 0.27448 0.1685 0.68597 0.0
H1765 H 0.25404 0.15815 0.69925 0.0
H1766 H 0.24963 0.17355 0.67808 0.0
H1767 H 0.21283 0.13035 0.62528 0.0
H1768 H 0.18833 0.11838 0.64942 0.0
H1769 H 0.22999 0.12921 0.69674 0.0
C1770 C 0.28286 0.15905 0.64401 0.0
C1771 C 0.28459 0.16458 0.62406 0.0
C1772 C 0.26949 0.15945 0.6106 0.0
C1773 C 0.25266 0.14936 0.61699 0.0
C1774 C 0.25117 0.14457 0.63688 0.0
C1775 C 0.26589 0.14919 0.65018 0.0
C1776 C 0.26005 0.14379 0.67098 0.0
C1777 C 0.27381 0.12787 0.67936 0.0
C1778 C 0.25951 0.16209 0.68435 0.0
C1779 C 0.23961 0.13575 0.66735 0.0
C1780 C 0.23481 0.13609 0.64759 0.0
C1781 C 0.21647 0.12987 0.64079 0.0
C1782 C 0.20265 0.12314 0.6546 0.0
C1783 C 0.20723 0.12292 0.67495 0.0
C1784 C 0.22601 0.12923 0.68129 0.0
H1785 H 0.29961 0.7834 0.17147 0.0
H1786 H 0.33824 0.79489 0.12183 0.0
H1787 H 0.35952 0.76722 0.13207 0.0
H1788 H 0.33754 0.77027 0.20617 0.0
H1789 H 0.32302 0.75127 0.21766 0.0
H1790 H 0.31105 0.77214 0.20652 0.0
H1791 H 0.2903 0.74866 0.18473 0.0
H1792 H 0.30227 0.72771 0.19573 0.0
H1793 H 0.3026 0.73084 0.16937 0.0
H1794 H 0.37652 0.73819 0.1477 0.0
H1795 H 0.38812 0.71015 0.16777 0.0
H1796 H 0.33804 0.71756 0.20682 0.0
C1797 C 0.3126 0.78019 0.16279 0.0
C1798 C 0.31729 0.79135 0.14587 0.0
C1799 C 0.33437 0.78657 0.13487 0.0
C1800 C 0.34654 0.77087 0.14055 0.0
C1801 C 0.3414 0.76009 0.15723 0.0
C1802 C 0.32485 0.76456 0.1682 0.0
C1803 C 0.32251 0.7506 0.18541 0.0
C1804 C 0.3236 0.76174 0.2051 0.0
C1805 C 0.30328 0.73875 0.18369 0.0
C1806 C 0.34035 0.73759 0.18243 0.0
C1807 C 0.35106 0.7433 0.1661 0.0
C1808 C 0.36824 0.73357 0.1605 0.0
C1809 C 0.3747 0.71765 0.17199 0.0
C1810 C 0.36398 0.71163 0.18884 0.0
C1811 C 0.34653 0.72173 0.19399 0.0
H1812 H 0.71005 0.17017 0.33899 0.0
H1813 H 0.72868 0.17222 0.40014 0.0
H1814 H 0.75979 0.15567 0.39117 0.0
H1815 H 0.73217 0.12228 0.32709 0.0
H1816 H 0.73909 0.13008 0.30268 0.0
H1817 H 0.71761 0.14044 0.31432 0.0
H1818 H 0.73175 0.17551 0.30904 0.0
H1819 H 0.75331 0.16526 0.29755 0.0
H1820 H 0.75586 0.18138 0.31848 0.0
H1821 H 0.79003 0.14119 0.37498 0.0
H1822 H 0.8164 0.12904 0.35293 0.0
H1823 H 0.77754 0.13672 0.3027 0.0
C1824 C 0.72048 0.16683 0.35058 0.0
C1825 C 0.7169 0.17245 0.37027 0.0
C1826 C 0.73108 0.168 0.38495 0.0
C1827 C 0.7488 0.1586 0.38001 0.0
C1828 C 0.75205 0.15368 0.36037 0.0
C1829 C 0.73821 0.15751 0.34592 0.0
C1830 C 0.74563 0.15161 0.32578 0.0
C1831 C 0.73287 0.13512 0.31696 0.0
C1832 C 0.7467 0.16951 0.3119 0.0
C1833 C 0.76593 0.1442 0.33109 0.0
C1834 C 0.76938 0.14539 0.3511 0.0
C1835 C 0.78743 0.14001 0.3593 0.0
C1836 C 0.80232 0.13319 0.34667 0.0
C1837 C 0.79903 0.13189 0.32611 0.0
C1838 C 0.78053 0.13742 0.31835 0.0
H1839 H 0.33881 0.19844 0.84961 0.0
H1840 H 0.32559 0.22516 0.90618 0.0
H1841 H 0.344 0.25487 0.89641 0.0
H1842 H 0.38884 0.2206 0.84374 0.0
H1843 H 0.38542 0.2238 0.81761 0.0
H1844 H 0.37366 0.20358 0.83015 0.0
H1845 H 0.3398 0.21508 0.81679 0.0
H1846 H 0.35139 0.23537 0.80437 0.0
H1847 H 0.33168 0.2399 0.82156 0.0
H1848 H 0.35955 0.28331 0.8788 0.0
H1849 H 0.37264 0.30769 0.85515 0.0
H1850 H 0.37647 0.26211 0.81052 0.0
C1851 C 0.34021 0.21032 0.86016 0.0
C1852 C 0.33077 0.20945 0.87866 0.0
C1853 C 0.33275 0.22544 0.89193 0.0
C1854 C 0.3432 0.24239 0.88654 0.0
C1855 C 0.3518 0.24303 0.86793 0.0
C1856 C 0.35065 0.22731 0.85504 0.0
C1857 C 0.3599 0.23226 0.83538 0.0
C1858 C 0.37804 0.21929 0.8315 0.0
C1859 C 0.34479 0.23056 0.81855 0.0
C1860 C 0.36574 0.25345 0.83899 0.0
C1861 C 0.3611 0.25935 0.8579 0.0
C1862 C 0.36363 0.27876 0.86409 0.0
C1863 C 0.37098 0.29251 0.85054 0.0
C1864 C 0.37573 0.28675 0.83108 0.0
C1865 C 0.37333 0.26689 0.82541 0.0
H1866 H 0.28841 0.80885 0.35686 0.0
H1867 H 0.31712 0.85991 0.38248 0.0
H1868 H 0.29022 0.8811 0.36995 0.0
H1869 H 0.27146 0.83219 0.31299 0.0
H1870 H 0.24856 0.81878 0.31243 0.0
H1871 H 0.27001 0.8079 0.32358 0.0
H1872 H 0.25054 0.80272 0.356 0.0
H1873 H 0.22905 0.81371 0.34499 0.0
H1874 H 0.23881 0.82349 0.36766 0.0
H1875 H 0.26026 0.89665 0.35389 0.0
H1876 H 0.23013 0.90533 0.33537 0.0
H1877 H 0.22121 0.84364 0.3212 0.0
C1878 C 0.28914 0.82449 0.35984 0.0
C1879 C 0.30491 0.83274 0.37062 0.0
C1880 C 0.30519 0.85328 0.37423 0.0
C1881 C 0.28997 0.86541 0.36722 0.0
C1882 C 0.27458 0.85672 0.35673 0.0
C1883 C 0.27409 0.83673 0.35308 0.0
C1884 C 0.25606 0.83095 0.34137 0.0
C1885 C 0.26188 0.82193 0.32141 0.0
C1886 C 0.24284 0.81689 0.35322 0.0
C1887 C 0.24648 0.85086 0.33883 0.0
C1888 C 0.25733 0.86556 0.3478 0.0
C1889 C 0.25161 0.88524 0.34691 0.0
C1890 C 0.23447 0.89002 0.33637 0.0
C1891 C 0.22327 0.87515 0.32691 0.0
C1892 C 0.22932 0.85533 0.32841 0.0
H1893 H 0.66888 0.7292 0.79321 0.0
H1894 H 0.61943 0.72205 0.83311 0.0
H1895 H 0.63071 0.75095 0.85213 0.0
H1896 H 0.70426 0.74374 0.82989 0.0
H1897 H 0.71636 0.76112 0.81391 0.0
H1898 H 0.70434 0.73985 0.80362 0.0
H1899 H 0.68334 0.76257 0.78123 0.0
H1900 H 0.69519 0.78393 0.79157 0.0
H1901 H 0.66873 0.78183 0.79221 0.0
H1902 H 0.64748 0.78074 0.86674 0.0
H1903 H 0.66912 0.80831 0.87651 0.0
H1904 H 0.70722 0.79587 0.82668 0.0
C1905 C 0.66043 0.73364 0.80598 0.0
C1906 C 0.64327 0.72335 0.81168 0.0
C1907 C 0.63265 0.72967 0.8285 0.0
C1908 C 0.6389 0.74611 0.83935 0.0
C1909 C 0.65578 0.75602 0.83319 0.0
C1910 C 0.66644 0.74995 0.81696 0.0
C1911 C 0.68414 0.76302 0.81349 0.0
C1912 C 0.70341 0.75123 0.81535 0.0
C1913 C 0.68275 0.77345 0.79343 0.0
C1914 C 0.68178 0.77742 0.83031 0.0
C1915 C 0.66534 0.77316 0.8415 0.0
C1916 C 0.66037 0.78424 0.85805 0.0
C1917 C 0.67273 0.79989 0.86345 0.0
C1918 C 0.68981 0.80431 0.85231 0.0
C1919 C 0.69419 0.79301 0.83541 0.0
H1920 H 0.10341 0.22979 0.19551 0.0
H1921 H 0.08265 0.25933 0.24827 0.0
H1922 H 0.08819 0.22893 0.2674 0.0
H1923 H 0.08359 0.17999 0.20777 0.0
H1924 H 0.10483 0.16794 0.19738 0.0
H1925 H 0.09646 0.19105 0.18736 0.0
H1926 H 0.13117 0.20596 0.19285 0.0
H1927 H 0.1396 0.18299 0.20293 0.0
H1928 H 0.14192 0.20529 0.21713 0.0
H1929 H 0.10068 0.19713 0.2816 0.0
H1930 H 0.11799 0.16605 0.28939 0.0
H1931 H 0.12951 0.15706 0.22719 0.0
C1932 C 0.09954 0.22975 0.21099 0.0
C1933 C 0.09256 0.24694 0.22038 0.0
C1934 C 0.08792 0.24632 0.24071 0.0
C1935 C 0.09099 0.2291 0.25171 0.0
C1936 C 0.09845 0.21257 0.2421 0.0
C1937 C 0.10243 0.21269 0.22213 0.0
C1938 C 0.11183 0.19357 0.2156 0.0
C1939 C 0.09837 0.18248 0.20117 0.0
C1940 C 0.13234 0.19718 0.20661 0.0
C1941 C 0.11322 0.18297 0.23514 0.0
C1942 C 0.10527 0.19407 0.25024 0.0
C1943 C 0.10654 0.1881 0.26985 0.0
C1944 C 0.11644 0.17047 0.27415 0.0
C1945 C 0.12488 0.15904 0.25888 0.0
C1946 C 0.12282 0.16523 0.23914 0.0
H1947 H 0.35541 0.63135 0.72857 0.0
H1948 H 0.34522 0.62101 0.7908 0.0
H1949 H 0.31367 0.60467 0.7828 0.0
H1950 H 0.3082 0.64541 0.71784 0.0
H1951 H 0.30724 0.63445 0.69368 0.0
H1952 H 0.3305 0.6419 0.70387 0.0
H1953 H 0.3442 0.6066 0.69908 0.0
H1954 H 0.32097 0.59904 0.68869 0.0
H1955 H 0.33113 0.58595 0.70944 0.0
H1956 H 0.28156 0.59317 0.76831 0.0
H1957 H 0.25134 0.58813 0.7487 0.0
H1958 H 0.28242 0.60706 0.69614 0.0
C1959 C 0.34688 0.62508 0.7405 0.0
C1960 C 0.35286 0.62724 0.7603 0.0
C1961 C 0.34097 0.61937 0.77551 0.0
C1962 C 0.32307 0.61003 0.7711 0.0
C1963 C 0.3173 0.60871 0.75143 0.0
C1964 C 0.32891 0.61597 0.73637 0.0
C1965 C 0.31848 0.61477 0.71671 0.0
C1966 C 0.31596 0.63535 0.7075 0.0
C1967 C 0.32934 0.60075 0.70265 0.0
C1968 C 0.29894 0.60625 0.72312 0.0
C1969 C 0.29864 0.60254 0.74313 0.0
C1970 C 0.28173 0.59575 0.75258 0.0
C1971 C 0.26462 0.59296 0.74132 0.0
C1972 C 0.26451 0.59717 0.72088 0.0
C1973 C 0.28204 0.60356 0.7117 0.0
H1974 H 0.82225 0.81985 0.26633 0.0
H1975 H 0.87188 0.85978 0.26138 0.0
H1976 H 0.89177 0.8331 0.24655 0.0
H1977 H 0.85115 0.77547 0.27795 0.0
H1978 H 0.83499 0.7598 0.26388 0.0
H1979 H 0.82542 0.78161 0.27557 0.0
H1980 H 0.81198 0.79371 0.24193 0.0
H1981 H 0.8216 0.77204 0.23012 0.0
H1982 H 0.82861 0.79609 0.22137 0.0
H1983 H 0.90475 0.80305 0.22864 0.0
H1984 H 0.91053 0.77135 0.21152 0.0
H1985 H 0.85281 0.75109 0.22991 0.0
C1986 C 0.8374 0.82292 0.26243 0.0
C1987 C 0.84553 0.84187 0.26497 0.0
C1988 C 0.8654 0.84531 0.25965 0.0
C1989 C 0.87679 0.83027 0.25119 0.0
C1990 C 0.86815 0.81186 0.24846 0.0
C1991 C 0.84899 0.80808 0.2542 0.0
C1992 C 0.84286 0.78731 0.24905 0.0
C1993 C 0.83835 0.77534 0.26773 0.0
C1994 C 0.82523 0.7873 0.23477 0.0
C1995 C 0.8614 0.7801 0.23908 0.0
C1996 C 0.87584 0.79444 0.23883 0.0
C1997 C 0.89369 0.79158 0.22909 0.0
C1998 C 0.89682 0.7736 0.21936 0.0
C1999 C 0.88222 0.75873 0.21964 0.0
C2000 C 0.86442 0.76203 0.22981 0.0
H2001 H 0.67188 0.31565 0.75073 0.0
H2002 H 0.63937 0.37045 0.75568 0.0
H2003 H 0.66787 0.38845 0.74176 0.0
H2004 H 0.7205 0.33582 0.76263 0.0
H2005 H 0.73272 0.31991 0.74525 0.0
H2006 H 0.7104 0.31189 0.75715 0.0
H2007 H 0.6945 0.30557 0.723 0.0
H2008 H 0.71667 0.31366 0.71101 0.0
H2009 H 0.69351 0.32527 0.70524 0.0
H2010 H 0.69908 0.39979 0.72446 0.0
H2011 H 0.73052 0.40364 0.70644 0.0
H2012 H 0.74208 0.34119 0.71364 0.0
C2013 C 0.67079 0.33148 0.74916 0.0
C2014 C 0.65341 0.34167 0.75426 0.0
C2015 C 0.6526 0.36237 0.75193 0.0
C2016 C 0.6687 0.3727 0.74404 0.0
C2017 C 0.68549 0.36209 0.73877 0.0
C2018 C 0.68666 0.34196 0.74143 0.0
C2019 C 0.70592 0.33377 0.73386 0.0
C2020 C 0.7181 0.32482 0.75073 0.0
C2021 C 0.70243 0.31869 0.7173 0.0
C2022 C 0.71528 0.35237 0.72609 0.0
C2023 C 0.70337 0.3686 0.72911 0.0
C2024 C 0.70862 0.38722 0.72225 0.0
C2025 C 0.72646 0.38925 0.71199 0.0
C2026 C 0.73879 0.37273 0.70871 0.0
C2027 C 0.73311 0.35415 0.71606 0.0
H2028 H 0.10333 0.77988 0.80006 0.0
H2029 H 0.09114 0.74769 0.7462 0.0
H2030 H 0.09773 0.77777 0.72681 0.0
H2031 H 0.0823 0.82754 0.78379 0.0
H2032 H 0.10113 0.84139 0.79636 0.0
H2033 H 0.09327 0.81795 0.80599 0.0
H2034 H 0.12937 0.80552 0.80532 0.0
H2035 H 0.13732 0.82885 0.7957 0.0
H2036 H 0.14303 0.8065 0.78258 0.0
H2037 H 0.10977 0.81013 0.71324 0.0
H2038 H 0.12527 0.84244 0.70672 0.0
H2039 H 0.12821 0.85355 0.76959 0.0
C2040 C 0.10169 0.77922 0.78421 0.0
C2041 C 0.09673 0.76145 0.77463 0.0
C2042 C 0.09485 0.76117 0.75386 0.0
C2043 C 0.09853 0.77819 0.74272 0.0
C2044 C 0.10379 0.79538 0.75263 0.0
C2045 C 0.10515 0.79605 0.77293 0.0
C2046 C 0.11222 0.81595 0.77998 0.0
C2047 C 0.09627 0.82632 0.79225 0.0
C2048 C 0.13163 0.81408 0.79157 0.0
C2049 C 0.11529 0.82617 0.76045 0.0
C2050 C 0.11023 0.81415 0.74482 0.0
C2051 C 0.11341 0.81983 0.72535 0.0
C2052 C 0.12225 0.83816 0.72179 0.0
C2053 C 0.12773 0.85057 0.73764 0.0
C2054 C 0.1238 0.84459 0.75715 0.0
H2055 H 0.67823 0.6641 0.22264 0.0
H2056 H 0.63973 0.61321 0.2259 0.0
H2057 H 0.66656 0.59406 0.24145 0.0
H2058 H 0.72447 0.6368 0.21332 0.0
H2059 H 0.73861 0.65357 0.22826 0.0
H2060 H 0.71719 0.66225 0.21522 0.0
H2061 H 0.70257 0.67524 0.24802 0.0
H2062 H 0.72381 0.66648 0.26117 0.0
H2063 H 0.69955 0.65855 0.26844 0.0
H2064 H 0.69655 0.58181 0.2601 0.0
H2065 H 0.72733 0.57724 0.27908 0.0
H2066 H 0.74571 0.63632 0.26311 0.0
C2067 C 0.67551 0.6488 0.22623 0.0
C2068 C 0.65689 0.64014 0.22303 0.0
C2069 C 0.65393 0.62012 0.2281 0.0
C2070 C 0.66907 0.60914 0.23695 0.0
C2071 C 0.6871 0.61835 0.24042 0.0
C2072 C 0.69041 0.63768 0.235 0.0
C2073 C 0.71057 0.64464 0.24141 0.0
C2074 C 0.72347 0.6496 0.22348 0.0
C2075 C 0.70902 0.66226 0.2556 0.0
C2076 C 0.7179 0.62641 0.25184 0.0
C2077 C 0.70427 0.61131 0.251 0.0
C2078 C 0.70743 0.59343 0.26059 0.0
C2079 C 0.72493 0.59099 0.27138 0.0
C2080 C 0.73896 0.60639 0.27252 0.0
C2081 C 0.73539 0.62419 0.2624 0.0
H2082 H 0.87717 0.23656 0.76158 0.0
H2083 H 0.91434 0.21618 0.80944 0.0
H2084 H 0.91421 0.18271 0.79517 0.0
H2085 H 0.8468 0.19575 0.75968 0.0
H2086 H 0.84406 0.19565 0.73328 0.0
H2087 H 0.84917 0.21833 0.74593 0.0
H2088 H 0.87997 0.22371 0.72401 0.0
H2089 H 0.87495 0.20097 0.71129 0.0
H2090 H 0.89859 0.20483 0.72274 0.0
H2091 H 0.90663 0.15072 0.77781 0.0
H2092 H 0.89229 0.12313 0.75886 0.0
H2093 H 0.861 0.16495 0.722 0.0
C2094 C 0.88559 0.22517 0.7689 0.0
C2095 C 0.89579 0.22899 0.78661 0.0
C2096 C 0.90649 0.21361 0.7958 0.0
C2097 C 0.90655 0.19456 0.78777 0.0
C2098 C 0.89604 0.19122 0.77045 0.0
C2099 C 0.88588 0.20616 0.76105 0.0
C2100 C 0.8746 0.19854 0.74343 0.0
C2101 C 0.85235 0.20228 0.74573 0.0
C2102 C 0.88251 0.20755 0.72423 0.0
C2103 C 0.87943 0.17685 0.74474 0.0
C2104 C 0.89197 0.1729 0.76029 0.0
C2105 C 0.89711 0.15367 0.76537 0.0
C2106 C 0.88889 0.1381 0.75454 0.0
C2107 C 0.87567 0.14188 0.73884 0.0
C2108 C 0.87135 0.16155 0.73365 0.0
H2109 H 0.33403 0.32299 0.26911 0.0
H2110 H 0.35288 0.37161 0.23217 0.0
H2111 H 0.32692 0.39264 0.24686 0.0
H2112 H 0.28209 0.33279 0.26751 0.0
H2113 H 0.2783 0.32582 0.29284 0.0
H2114 H 0.29793 0.31476 0.27887 0.0
H2115 H 0.32308 0.32588 0.30537 0.0
H2116 H 0.30355 0.33708 0.31937 0.0
H2117 H 0.32455 0.35154 0.312 0.0
H2118 H 0.29866 0.40827 0.26609 0.0
H2119 H 0.27081 0.417 0.28794 0.0
H2120 H 0.27186 0.35796 0.31244 0.0
C2121 C 0.33263 0.338 0.26392 0.0
C2122 C 0.34539 0.34564 0.2494 0.0
C2123 C 0.3432 0.36545 0.24324 0.0
C2124 C 0.32853 0.37749 0.25151 0.0
C2125 C 0.31632 0.36949 0.26597 0.0
C2126 C 0.31828 0.35019 0.27209 0.0
C2127 C 0.30371 0.34513 0.28812 0.0
C2128 C 0.28967 0.32866 0.28142 0.0
C2129 C 0.31436 0.33958 0.30735 0.0
C2130 C 0.2931 0.36458 0.29004 0.0
C2131 C 0.30051 0.37848 0.27716 0.0
C2132 C 0.29278 0.39749 0.27624 0.0
C2133 C 0.27699 0.40232 0.28872 0.0
C2134 C 0.26917 0.38819 0.30194 0.0
C2135 C 0.27751 0.36915 0.30259 0.0
H2136 H 0.21449 0.14686 0.14866 0.0
H2137 H 0.27595 0.13093 0.15588 0.0
H2138 H 0.26775 0.1135 0.18676 0.0
H2139 H 0.20631 0.15865 0.19724 0.0
H2140 H 0.18142 0.14949 0.19829 0.0
H2141 H 0.19148 0.15769 0.17523 0.0
H2142 H 0.18351 0.12383 0.15952 0.0
H2143 H 0.17336 0.11552 0.1826 0.0
H2144 H 0.19271 0.10165 0.17085 0.0
H2145 H 0.25354 0.10121 0.21858 0.0
H2146 H 0.23479 0.09613 0.2493 0.0
H2147 H 0.18278 0.12079 0.22143 0.0
C2148 C 0.22614 0.13923 0.15643 0.0
C2149 C 0.24583 0.14007 0.14979 0.0
C2150 C 0.26075 0.13036 0.16066 0.0
C2151 C 0.25622 0.12036 0.17816 0.0
C2152 C 0.23671 0.12022 0.18455 0.0
C2153 C 0.22191 0.12938 0.17399 0.0
C2154 C 0.20256 0.12895 0.18504 0.0
C2155 C 0.19502 0.14994 0.1892 0.0
C2156 C 0.18713 0.11675 0.17383 0.0
C2157 C 0.20892 0.11869 0.20376 0.0
C2158 C 0.22858 0.11345 0.20307 0.0
C2159 C 0.23807 0.10497 0.21918 0.0
C2160 C 0.22729 0.10216 0.23658 0.0
C2161 C 0.2073 0.10801 0.23776 0.0
C2162 C 0.19797 0.11596 0.22095 0.0
H2163 H 0.32989 0.73731 0.6701 0.0
H2164 H 0.3775 0.77363 0.64778 0.0
H2165 H 0.39972 0.75992 0.67332 0.0
H2166 H 0.34162 0.7417 0.72106 0.0
H2167 H 0.33485 0.71667 0.72667 0.0
H2168 H 0.32306 0.72937 0.70661 0.0
H2169 H 0.3334 0.70139 0.68276 0.0
H2170 H 0.34526 0.68863 0.70275 0.0
H2171 H 0.35901 0.69466 0.68086 0.0
H2172 H 0.41642 0.74231 0.7022 0.0
H2173 H 0.42596 0.72241 0.73129 0.0
H2174 H 0.36706 0.69764 0.73324 0.0
C2175 C 0.34498 0.74247 0.67053 0.0
C2176 C 0.35196 0.7566 0.65698 0.0
C2177 C 0.37184 0.76282 0.65804 0.0
C2178 C 0.38455 0.75511 0.67247 0.0
C2179 C 0.37714 0.74114 0.68559 0.0
C2180 C 0.35779 0.73488 0.68466 0.0
C2181 C 0.35326 0.71979 0.70035 0.0
C2182 C 0.33726 0.72735 0.71451 0.0
C2183 C 0.34739 0.69995 0.69112 0.0
C2184 C 0.37305 0.71854 0.71039 0.0
C2185 C 0.38669 0.73094 0.70177 0.0
C2186 C 0.40587 0.73249 0.70898 0.0
C2187 C 0.41115 0.72114 0.72549 0.0
C2188 C 0.3973 0.70841 0.7345 0.0
C2189 C 0.37808 0.7071 0.72666 0.0
H2190 H 0.80088 0.89149 0.2197 0.0
H2191 H 0.74677 0.90597 0.25051 0.0
H2192 H 0.72761 0.89707 0.22089 0.0
H2193 H 0.785 0.9084 0.17031 0.0
H2194 H 0.79766 0.88845 0.15821 0.0
H2195 H 0.8071 0.89826 0.18099 0.0
H2196 H 0.80626 0.86334 0.19637 0.0
H2197 H 0.79672 0.85345 0.17373 0.0
H2198 H 0.78348 0.8497 0.19643 0.0
H2199 H 0.71425 0.88272 0.18931 0.0
H2200 H 0.70793 0.86535 0.15792 0.0
H2201 H 0.77089 0.86103 0.14784 0.0
C2202 C 0.78503 0.89322 0.22012 0.0
C2203 C 0.77533 0.89947 0.23742 0.0
C2204 C 0.75455 0.90131 0.2374 0.0
C2205 C 0.74353 0.89629 0.22063 0.0
C2206 C 0.75354 0.88967 0.20398 0.0
C2207 C 0.77385 0.88834 0.20355 0.0
C2208 C 0.78103 0.87959 0.18436 0.0
C2209 C 0.79343 0.89457 0.17278 0.0
C2210 C 0.79254 0.86038 0.18795 0.0
C2211 C 0.76157 0.87568 0.17427 0.0
C2212 C 0.74587 0.88169 0.18574 0.0
C2213 C 0.72643 0.87828 0.18004 0.0
C2214 C 0.72298 0.86836 0.16223 0.0
C2215 C 0.7389 0.86199 0.15035 0.0
C2216 C 0.75839 0.86599 0.1564 0.0
H2217 H 0.60078 0.30423 0.70985 0.0
H2218 H 0.57888 0.25004 0.73567 0.0
H2219 H 0.58565 0.23258 0.70446 0.0
H2220 H 0.58371 0.29464 0.65826 0.0
H2221 H 0.60563 0.30564 0.64813 0.0
H2222 H 0.59578 0.31445 0.67116 0.0
H2223 H 0.62951 0.30825 0.68797 0.0
H2224 H 0.63941 0.29938 0.6651 0.0
H2225 H 0.64037 0.28405 0.68675 0.0
H2226 H 0.59971 0.22014 0.67258 0.0
H2227 H 0.61952 0.21385 0.64273 0.0
H2228 H 0.63166 0.27636 0.63775 0.0
C2229 C 0.59688 0.2888 0.70881 0.0
C2230 C 0.58926 0.2785 0.72519 0.0
C2231 C 0.58463 0.25826 0.72328 0.0
C2232 C 0.58838 0.24824 0.70559 0.0
C2233 C 0.59651 0.25873 0.68992 0.0
C2234 C 0.60051 0.27863 0.69132 0.0
C2235 C 0.61107 0.28615 0.67321 0.0
C2236 C 0.59828 0.3011 0.66203 0.0
C2237 C 0.63128 0.29496 0.67859 0.0
C2238 C 0.61319 0.26719 0.66173 0.0
C2239 C 0.60445 0.25158 0.67145 0.0
C2240 C 0.60621 0.23231 0.66462 0.0
C2241 C 0.61754 0.22887 0.64769 0.0
C2242 C 0.627 0.24464 0.63783 0.0
C2243 C 0.62429 0.26406 0.6447 0.0
H2244 H 0.22942 0.87007 0.76423 0.0
H2245 H 0.1795 0.90683 0.77981 0.0
H2246 H 0.1905 0.90692 0.8145 0.0
H2247 H 0.22761 0.83982 0.80522 0.0
H2248 H 0.2539 0.83731 0.80789 0.0
H2249 H 0.24346 0.84222 0.78406 0.0
H2250 H 0.26554 0.87318 0.78067 0.0
H2251 H 0.27605 0.86835 0.80457 0.0
H2252 H 0.26485 0.89187 0.79951 0.0
H2253 H 0.20482 0.89977 0.84799 0.0
H2254 H 0.2213 0.88595 0.87739 0.0
H2255 H 0.26212 0.85459 0.83949 0.0
C2256 C 0.22098 0.87845 0.77485 0.0
C2257 C 0.20362 0.88847 0.7693 0.0
C2258 C 0.1929 0.8991 0.7837 0.0
C2259 C 0.19905 0.89929 0.80344 0.0
C2260 C 0.21606 0.88895 0.80846 0.0
C2261 C 0.22694 0.87884 0.79453 0.0
C2262 C 0.24383 0.86774 0.80389 0.0
C2263 C 0.24208 0.84546 0.80004 0.0
C2264 C 0.26375 0.87577 0.79673 0.0
C2265 C 0.24039 0.87264 0.82533 0.0
C2266 C 0.22444 0.88505 0.8277 0.0
C2267 C 0.21755 0.89033 0.84631 0.0
C2268 C 0.22698 0.88239 0.86292 0.0
C2269 C 0.24308 0.8693 0.86075 0.0
C2270 C 0.25007 0.86481 0.84169 0.0
H2271 H 0.60673 0.68221 0.27245 0.0
H2272 H 0.5881 0.73644 0.24418 0.0
H2273 H 0.59625 0.7549 0.27443 0.0
H2274 H 0.58995 0.6951 0.32303 0.0
H2275 H 0.61099 0.68328 0.3341 0.0
H2276 H 0.60109 0.67408 0.31125 0.0
H2277 H 0.63545 0.67763 0.29498 0.0
H2278 H 0.6454 0.6869 0.31768 0.0
H2279 H 0.64767 0.70118 0.29543 0.0
H2280 H 0.61073 0.76792 0.30597 0.0
H2281 H 0.62934 0.77422 0.33665 0.0
H2282 H 0.6376 0.71134 0.3444 0.0
C2283 C 0.6039 0.6979 0.27275 0.0
C2284 C 0.59673 0.70787 0.25595 0.0
C2285 C 0.59348 0.72845 0.25689 0.0
C2286 C 0.59804 0.73907 0.27403 0.0
C2287 C 0.60561 0.72885 0.29014 0.0
C2288 C 0.6083 0.70868 0.28971 0.0
C2289 C 0.61804 0.70135 0.30837 0.0
C2290 C 0.60418 0.68765 0.31987 0.0
C2291 C 0.63781 0.69118 0.30383 0.0
C2292 C 0.62105 0.72063 0.31909 0.0
C2293 C 0.61365 0.73632 0.30844 0.0
C2294 C 0.61623 0.75572 0.31463 0.0
C2295 C 0.62686 0.75916 0.33203 0.0
C2296 C 0.63474 0.74327 0.34299 0.0
C2297 C 0.63142 0.72379 0.33657 0.0
H2298 H 0.76138 0.11139 0.7405 0.0
H2299 H 0.81376 0.08823 0.76876 0.0
H2300 H 0.79784 0.09205 0.80128 0.0
H2301 H 0.75431 0.14865 0.77316 0.0
H2302 H 0.72777 0.14811 0.77294 0.0
H2303 H 0.74129 0.13954 0.75189 0.0
H2304 H 0.7235 0.10584 0.75391 0.0
H2305 H 0.70978 0.11437 0.77498 0.0
H2306 H 0.72407 0.09206 0.77659 0.0
H2307 H 0.77832 0.10258 0.83055 0.0
H2308 H 0.7576 0.12047 0.85437 0.0
H2309 H 0.7184 0.13805 0.80699 0.0
C2310 C 0.7692 0.10641 0.75348 0.0
C2311 C 0.78866 0.09921 0.75216 0.0
C2312 C 0.79875 0.09359 0.7695 0.0
C2313 C 0.7898 0.09562 0.788 0.0
C2314 C 0.77079 0.10337 0.78886 0.0
C2315 C 0.7606 0.10867 0.77204 0.0
C2316 C 0.74158 0.11919 0.77703 0.0
C2317 C 0.74124 0.1401 0.76824 0.0
C2318 C 0.72367 0.10714 0.77022 0.0
C2319 C 0.74301 0.11966 0.79926 0.0
C2320 C 0.75974 0.11006 0.80581 0.0
C2321 C 0.76501 0.10985 0.82563 0.0
C2322 C 0.75315 0.12011 0.83905 0.0
C2323 C 0.73635 0.13066 0.83255 0.0
C2324 C 0.731 0.12994 0.81246 0.0
H2325 H 0.39623 0.30607 0.29024 0.0
H2326 H 0.42665 0.25609 0.26452 0.0
H2327 H 0.42135 0.23722 0.29516 0.0
H2328 H 0.41274 0.29796 0.3423 0.0
H2329 H 0.38913 0.30551 0.3518 0.0
H2330 H 0.39839 0.31611 0.32928 0.0
H2331 H 0.36648 0.30551 0.31119 0.0
H2332 H 0.35719 0.29483 0.33353 0.0
H2333 H 0.35918 0.28 0.31161 0.0
H2334 H 0.40798 0.22219 0.32618 0.0
H2335 H 0.38846 0.21258 0.35536 0.0
H2336 H 0.3675 0.27267 0.36096 0.0
C2337 C 0.40231 0.29136 0.29122 0.0
C2338 C 0.4119 0.28257 0.275 0.0
C2339 C 0.41934 0.26317 0.2768 0.0
C2340 C 0.41643 0.25235 0.29417 0.0
C2341 C 0.40629 0.26124 0.30964 0.0
C2342 C 0.39955 0.2804 0.30841 0.0
C2343 C 0.38741 0.28595 0.32624 0.0
C2344 C 0.39753 0.30235 0.33811 0.0
C2345 C 0.36633 0.29191 0.32028 0.0
C2346 C 0.38766 0.26665 0.33734 0.0
C2347 C 0.39881 0.25263 0.32768 0.0
C2348 C 0.39959 0.23316 0.33413 0.0
C2349 C 0.38842 0.22782 0.35067 0.0
C2350 C 0.37664 0.24192 0.36054 0.0
C2351 C 0.3767 0.26165 0.35401 0.0
H2352 H 0.23316 0.2383 0.14266 0.0
H2353 H 0.2177 0.20546 0.09002 0.0
H2354 H 0.18575 0.22278 0.08866 0.0
H2355 H 0.18714 0.23611 0.16469 0.0
H2356 H 0.18802 0.26049 0.17513 0.0
H2357 H 0.2105 0.2473 0.17052 0.0
H2358 H 0.22321 0.27626 0.14913 0.0
H2359 H 0.20068 0.28955 0.15366 0.0
H2360 H 0.20854 0.28489 0.12874 0.0
H2361 H 0.15411 0.24092 0.0952 0.0
H2362 H 0.12539 0.2583 0.10927 0.0
H2363 H 0.162 0.27968 0.15712 0.0
C2364 C 0.22323 0.23499 0.13062 0.0
C2365 C 0.22795 0.22056 0.11642 0.0
C2366 C 0.21444 0.21652 0.10104 0.0
C2367 C 0.19627 0.22632 0.1001 0.0
C2368 C 0.19195 0.24025 0.11454 0.0
C2369 C 0.2051 0.24465 0.12944 0.0
C2370 C 0.19638 0.25913 0.14396 0.0
C2371 C 0.19545 0.25022 0.1648 0.0
C2372 C 0.20789 0.27861 0.14385 0.0
C2373 C 0.17604 0.26171 0.13524 0.0
C2374 C 0.17381 0.25087 0.11817 0.0
C2375 C 0.15579 0.24975 0.10837 0.0
C2376 C 0.13955 0.25964 0.11648 0.0
C2377 C 0.14147 0.27047 0.1342 0.0
C2378 C 0.1601 0.27183 0.14336 0.0
H2379 H 0.24377 0.76082 0.86889 0.0
H2380 H 0.21503 0.79521 0.91432 0.0
H2381 H 0.18353 0.77821 0.90719 0.0
H2382 H 0.206 0.76535 0.83516 0.0
H2383 H 0.20881 0.74118 0.82455 0.0
H2384 H 0.2296 0.75319 0.83569 0.0
H2385 H 0.23472 0.72327 0.85882 0.0
H2386 H 0.21391 0.71111 0.84771 0.0
H2387 H 0.21461 0.71485 0.87398 0.0
H2388 H 0.15479 0.75922 0.89331 0.0
H2389 H 0.13055 0.74273 0.87173 0.0
H2390 H 0.17791 0.72295 0.83372 0.0
C2391 C 0.23097 0.76431 0.87776 0.0
C2392 C 0.23182 0.77898 0.89244 0.0
C2393 C 0.21464 0.7838 0.90319 0.0
C2394 C 0.19677 0.77417 0.89929 0.0
C2395 C 0.19633 0.75998 0.88443 0.0
C2396 C 0.21298 0.7552 0.87372 0.0
C2397 C 0.20816 0.74147 0.85685 0.0
C2398 C 0.21345 0.75087 0.83689 0.0
C2399 C 0.21846 0.72149 0.85951 0.0
C2400 C 0.18612 0.7396 0.85941 0.0
C2401 C 0.17963 0.74996 0.8757 0.0
C2402 C 0.15973 0.75094 0.88062 0.0
C2403 C 0.14607 0.74149 0.86831 0.0
C2404 C 0.15239 0.73159 0.85107 0.0
C2405 C 0.17269 0.73037 0.84684 0.0
H2406 H 0.69672 0.70451 0.37375 0.0
H2407 H 0.75033 0.7333 0.39339 0.0
H2408 H 0.76916 0.70305 0.38609 0.0
H2409 H 0.70895 0.6549 0.39204 0.0
H2410 H 0.69787 0.64307 0.37101 0.0
H2411 H 0.6884 0.66629 0.37967 0.0
H2412 H 0.6933 0.68129 0.34491 0.0
H2413 H 0.70282 0.65818 0.33616 0.0
H2414 H 0.71729 0.68026 0.33357 0.0
H2415 H 0.78258 0.67086 0.37346 0.0
H2416 H 0.78938 0.6391 0.35703 0.0
H2417 H 0.72682 0.63138 0.3464 0.0
C2418 C 0.71237 0.70438 0.37686 0.0
C2419 C 0.72205 0.72127 0.38418 0.0
C2420 C 0.74258 0.72052 0.38785 0.0
C2421 C 0.7534 0.70339 0.38378 0.0
C2422 C 0.74343 0.68712 0.37623 0.0
C2423 C 0.72335 0.68744 0.37294 0.0
C2424 C 0.7163 0.66846 0.36366 0.0
C2425 C 0.70204 0.65753 0.37742 0.0
C2426 C 0.70688 0.67229 0.34338 0.0
C2427 C 0.73565 0.65758 0.36176 0.0
C2428 C 0.75112 0.66851 0.3692 0.0
C2429 C 0.77055 0.66203 0.36787 0.0
C2430 C 0.77427 0.644 0.35849 0.0
C2431 C 0.75862 0.63269 0.35059 0.0
C2432 C 0.73907 0.6395 0.35258 0.0
H2433 H 0.78531 0.19105 0.88393 0.0
H2434 H 0.75124 0.24384 0.89561 0.0
H2435 H 0.78084 0.26416 0.88956 0.0
H2436 H 0.83202 0.20869 0.90585 0.0
H2437 H 0.8466 0.19654 0.88729 0.0
H2438 H 0.82329 0.18625 0.89468 0.0
H2439 H 0.81159 0.18661 0.85833 0.0
H2440 H 0.83478 0.19697 0.85085 0.0
H2441 H 0.81213 0.2094 0.84472 0.0
H2442 H 0.81321 0.27875 0.87813 0.0
H2443 H 0.84591 0.2862 0.86387 0.0
H2444 H 0.8587 0.22367 0.86094 0.0
C2445 C 0.78413 0.20687 0.88559 0.0
C2446 C 0.76597 0.21587 0.89025 0.0
C2447 C 0.76504 0.23661 0.89218 0.0
C2448 C 0.78177 0.24828 0.88875 0.0
C2449 C 0.79935 0.23893 0.88371 0.0
C2450 C 0.80067 0.21866 0.8824 0.0
C2451 C 0.82091 0.21221 0.87571 0.0
C2452 C 0.83132 0.20022 0.89185 0.0
C2453 C 0.81977 0.20062 0.85625 0.0
C2454 C 0.83063 0.23203 0.87285 0.0
C2455 C 0.81803 0.24729 0.87762 0.0
C2456 C 0.82332 0.26692 0.87471 0.0
C2457 C 0.84189 0.27101 0.86656 0.0
C2458 C 0.85492 0.25553 0.86148 0.0
C2459 C 0.84924 0.23585 0.865 0.0
H2460 H 0.26167 0.23992 0.38974 0.0
H2461 H 0.31153 0.26859 0.41746 0.0
H2462 H 0.29351 0.30021 0.41708 0.0
H2463 H 0.25313 0.27631 0.35636 0.0
H2464 H 0.22667 0.27421 0.35613 0.0
H2465 H 0.24148 0.25328 0.36256 0.0
H2466 H 0.22283 0.25012 0.39572 0.0
H2467 H 0.20791 0.27115 0.38936 0.0
H2468 H 0.2216 0.27097 0.41211 0.0
H2469 H 0.27218 0.32917 0.4097 0.0
H2470 H 0.25075 0.35354 0.39345 0.0
H2471 H 0.21529 0.30617 0.36929 0.0
C2472 C 0.2685 0.25272 0.39637 0.0
C2473 C 0.28784 0.25183 0.40391 0.0
C2474 C 0.29663 0.26899 0.41177 0.0
C2475 C 0.28646 0.28696 0.41173 0.0
C2476 C 0.26755 0.28748 0.40372 0.0
C2477 C 0.25868 0.2708 0.39612 0.0
C2478 C 0.23959 0.27577 0.38572 0.0
C2479 C 0.24028 0.26953 0.36391 0.0
C2480 C 0.22194 0.26645 0.39637 0.0
C2481 C 0.23952 0.29794 0.38793 0.0
C2482 C 0.25549 0.30436 0.39881 0.0
C2483 C 0.25944 0.32432 0.40143 0.0
C2484 C 0.24717 0.33806 0.39213 0.0
C2485 C 0.23133 0.33177 0.38007 0.0
C2486 C 0.22713 0.31146 0.37857 0.0
H2487 H 0.75364 0.76814 0.1487 0.0
H2488 H 0.77523 0.79399 0.09438 0.0
H2489 H 0.80563 0.77411 0.09713 0.0
H2490 H 0.79853 0.76854 0.17382 0.0
H2491 H 0.79445 0.74554 0.18641 0.0
H2492 H 0.77381 0.76039 0.17902 0.0
H2493 H 0.75941 0.73079 0.15963 0.0
H2494 H 0.78011 0.71586 0.1669 0.0
H2495 H 0.77424 0.71878 0.14118 0.0
H2496 H 0.83486 0.75335 0.10747 0.0
H2497 H 0.86057 0.73431 0.12491 0.0
H2498 H 0.81915 0.72194 0.17199 0.0
C2499 C 0.76462 0.76947 0.13722 0.0
C2500 C 0.76204 0.78259 0.1213 0.0
C2501 C 0.77687 0.78398 0.10669 0.0
C2502 C 0.79415 0.7727 0.10809 0.0
C2503 C 0.79628 0.76002 0.1241 0.0
C2504 C 0.78187 0.75834 0.13837 0.0
C2505 C 0.78814 0.7446 0.15473 0.0
C2506 C 0.78877 0.75542 0.17466 0.0
C2507 C 0.77467 0.72643 0.15565 0.0
C2508 C 0.80855 0.73918 0.14773 0.0
C2509 C 0.81296 0.74803 0.12994 0.0
C2510 C 0.83148 0.74613 0.12127 0.0
C2511 C 0.84597 0.73528 0.13127 0.0
C2512 C 0.84186 0.72655 0.14977 0.0
C2513 C 0.82273 0.7282 0.15777 0.0
H2514 H 0.78889 0.31443 0.64394 0.0
H2515 H 0.75455 0.36375 0.62211 0.0
H2516 H 0.73297 0.34075 0.60415 0.0
H2517 H 0.78362 0.28279 0.59885 0.0
H2518 H 0.78192 0.26072 0.6135 0.0
H2519 H 0.79647 0.28121 0.62203 0.0
H2520 H 0.77663 0.28162 0.65462 0.0
H2521 H 0.76191 0.26133 0.64615 0.0
H2522 H 0.75019 0.2839 0.65372 0.0
H2523 H 0.71185 0.31241 0.59355 0.0
H2524 H 0.6945 0.28073 0.58875 0.0
H2525 H 0.74336 0.24997 0.61607 0.0
C2526 C 0.7772 0.32045 0.6349 0.0
C2527 C 0.77344 0.3409 0.63444 0.0
C2528 C 0.75781 0.34815 0.62264 0.0
C2529 C 0.74545 0.33519 0.61237 0.0
C2530 C 0.74909 0.31506 0.61377 0.0
C2531 C 0.76481 0.30773 0.62445 0.0
C2532 C 0.76464 0.28545 0.62484 0.0
C2533 C 0.78274 0.27705 0.61416 0.0
C2534 C 0.76325 0.27763 0.64609 0.0
C2535 C 0.74593 0.28141 0.61342 0.0
C2536 C 0.73721 0.29867 0.60707 0.0
C2537 C 0.71878 0.29876 0.59798 0.0
C2538 C 0.709 0.28074 0.5954 0.0
C2539 C 0.71774 0.26293 0.60176 0.0
C2540 C 0.73657 0.26331 0.61059 0.0
H2541 H 0.22039 0.68346 0.66557 0.0
H2542 H 0.24251 0.63913 0.6252 0.0
H2543 H 0.25838 0.66517 0.6054 0.0
H2544 H 0.21227 0.72288 0.62804 0.0
H2545 H 0.22011 0.74182 0.6449 0.0
H2546 H 0.20811 0.72001 0.6541 0.0
H2547 H 0.23775 0.71352 0.67731 0.0
H2548 H 0.24984 0.73519 0.66813 0.0
H2549 H 0.26216 0.71171 0.66702 0.0
H2550 H 0.27599 0.69534 0.59314 0.0
H2551 H 0.29263 0.7274 0.58858 0.0
H2552 H 0.25801 0.75201 0.6363 0.0
C2553 C 0.22814 0.67924 0.65229 0.0
C2554 C 0.23019 0.65926 0.64692 0.0
C2555 C 0.24065 0.65435 0.62955 0.0
C2556 C 0.2497 0.66905 0.61819 0.0
C2557 C 0.2479 0.68858 0.62425 0.0
C2558 C 0.23715 0.69371 0.64076 0.0
C2559 C 0.23873 0.71551 0.64505 0.0
C2560 C 0.21861 0.72565 0.64289 0.0
C2561 C 0.24766 0.71918 0.66558 0.0
C2562 C 0.25268 0.72173 0.62885 0.0
C2563 C 0.25769 0.70604 0.61689 0.0
C2564 C 0.27183 0.70783 0.60211 0.0
C2565 C 0.28125 0.72606 0.59967 0.0
C2566 C 0.27643 0.74223 0.61193 0.0
C2567 C 0.26167 0.74006 0.62639 0.0
H2568 H 0.86546 0.86091 0.76373 0.0
H2569 H 0.87203 0.84965 0.70117 0.0
H2570 H 0.8872 0.81741 0.70867 0.0
H2571 H 0.91072 0.83495 0.78053 0.0
H2572 H 0.89851 0.8256 0.80216 0.0
H2573 H 0.89125 0.84898 0.79189 0.0
H2574 H 0.85522 0.83665 0.78937 0.0
H2575 H 0.86236 0.81324 0.79945 0.0
H2576 H 0.85002 0.81433 0.77597 0.0
H2577 H 0.89816 0.78496 0.72295 0.0
H2578 H 0.90357 0.75491 0.74276 0.0
H2579 H 0.88887 0.78742 0.79581 0.0
C2580 C 0.87062 0.85196 0.7516 0.0
C2581 C 0.86774 0.85787 0.73187 0.0
C2582 C 0.87422 0.84546 0.71641 0.0
C2583 C 0.88289 0.82715 0.72052 0.0
C2584 C 0.88496 0.8215 0.74016 0.0
C2585 C 0.87908 0.8336 0.75544 0.0
C2586 C 0.88105 0.82339 0.77514 0.0
C2587 C 0.8963 0.83385 0.78819 0.0
C2588 C 0.86097 0.82181 0.78558 0.0
C2589 C 0.8884 0.80344 0.76854 0.0
C2590 C 0.89087 0.80271 0.74835 0.0
C2591 C 0.89654 0.78544 0.7388 0.0
C2592 C 0.89955 0.76844 0.75017 0.0
C2593 C 0.89667 0.76881 0.77084 0.0
C2594 C 0.89131 0.78666 0.78007 0.0
H2595 H 0.65412 0.32809 0.27586 0.0
H2596 H 0.63961 0.36554 0.22617 0.0
H2597 H 0.66401 0.39011 0.23773 0.0
H2598 H 0.66206 0.368 0.31162 0.0
H2599 H 0.68198 0.35504 0.32345 0.0
H2600 H 0.66221 0.34146 0.31209 0.0
H2601 H 0.68745 0.32239 0.2907 0.0
H2602 H 0.70723 0.3358 0.30205 0.0
H2603 H 0.7046 0.33594 0.27564 0.0
H2604 H 0.69273 0.40869 0.25304 0.0
H2605 H 0.7227 0.41957 0.27073 0.0
H2606 H 0.71658 0.37023 0.31091 0.0
C2607 C 0.65591 0.34155 0.26748 0.0
C2608 C 0.64509 0.34492 0.25008 0.0
C2609 C 0.64777 0.36273 0.23959 0.0
C2610 C 0.66154 0.37676 0.24606 0.0
C2611 C 0.67216 0.37283 0.26321 0.0
C2612 C 0.66932 0.35571 0.27385 0.0
C2613 C 0.68313 0.35441 0.29124 0.0
C2614 C 0.67165 0.35476 0.31075 0.0
C2615 C 0.69638 0.33606 0.2898 0.0
C2616 C 0.69473 0.37315 0.28836 0.0
C2617 C 0.68816 0.38371 0.27225 0.0
C2618 C 0.69777 0.40072 0.2659 0.0
C2619 C 0.71477 0.40679 0.27603 0.0
C2620 C 0.72193 0.39583 0.29227 0.0
C2621 C 0.71139 0.37913 0.29873 0.0
H2622 H 0.135 0.14347 0.78307 0.0
H2623 H 0.12562 0.14943 0.72015 0.0
H2624 H 0.10551 0.17921 0.72603 0.0
H2625 H 0.08645 0.16348 0.7997 0.0
H2626 H 0.09769 0.17605 0.8202 0.0
H2627 H 0.10805 0.15328 0.81131 0.0
H2628 H 0.14183 0.17048 0.80669 0.0
H2629 H 0.1316 0.19323 0.81545 0.0
H2630 H 0.14333 0.19231 0.79167 0.0
H2631 H 0.09035 0.21061 0.73843 0.0
H2632 H 0.08239 0.24139 0.75609 0.0
H2633 H 0.10241 0.21497 0.81077 0.0
C2634 C 0.12818 0.15065 0.77056 0.0
C2635 C 0.13168 0.14405 0.75117 0.0
C2636 C 0.12299 0.15419 0.73515 0.0
C2637 C 0.1115 0.17106 0.73835 0.0
C2638 C 0.10884 0.17754 0.75766 0.0
C2639 C 0.1169 0.16759 0.7735 0.0
C2640 C 0.11396 0.1788 0.79252 0.0
C2641 C 0.10075 0.16721 0.80677 0.0
C2642 C 0.13386 0.18401 0.80213 0.0
C2643 C 0.10358 0.19694 0.78484 0.0
C2644 C 0.10042 0.19581 0.76476 0.0
C2645 C 0.09244 0.21151 0.7542 0.0
C2646 C 0.08797 0.22895 0.76436 0.0
C2647 C 0.09172 0.23058 0.78482 0.0
C2648 C 0.09916 0.21414 0.79518 0.0
H2649 H 0.34222 0.63447 0.22104 0.0
H2650 H 0.38155 0.60206 0.25963 0.0
H2651 H 0.35301 0.5849 0.27417 0.0
H2652 H 0.30709 0.64404 0.25537 0.0
H2653 H 0.28615 0.64157 0.23924 0.0
H2654 H 0.30967 0.64846 0.22931 0.0
H2655 H 0.30836 0.61895 0.20513 0.0
H2656 H 0.28469 0.61201 0.21493 0.0
H2657 H 0.30458 0.59443 0.21457 0.0
H2658 H 0.32017 0.57551 0.28815 0.0
H2659 H 0.28575 0.5741 0.29983 0.0
H2660 H 0.26797 0.61228 0.25176 0.0
C2661 C 0.34492 0.62332 0.23212 0.0
C2662 C 0.36413 0.61957 0.23916 0.0
C2663 C 0.36698 0.60512 0.25393 0.0
C2664 C 0.35085 0.59525 0.26225 0.0
C2665 C 0.33202 0.59984 0.25547 0.0
C2666 C 0.32901 0.61338 0.24056 0.0
C2667 C 0.3073 0.61722 0.2373 0.0
C2668 C 0.30227 0.63911 0.24051 0.0
C2669 C 0.30085 0.61023 0.21676 0.0
C2670 C 0.29858 0.60441 0.25329 0.0
C2671 C 0.31303 0.59428 0.26344 0.0
C2672 C 0.30868 0.58301 0.28003 0.0
C2673 C 0.2891 0.58235 0.2866 0.0
C2674 C 0.27416 0.59295 0.27661 0.0
C2675 C 0.27897 0.6037 0.25949 0.0
H2676 H 0.82619 0.18906 0.25886 0.0
H2677 H 0.87898 0.15372 0.25191 0.0
H2678 H 0.89496 0.18132 0.23427 0.0
H2679 H 0.82606 0.20877 0.21248 0.0
H2680 H 0.81715 0.23276 0.21955 0.0
H2681 H 0.81118 0.21162 0.23429 0.0
H2682 H 0.82616 0.22852 0.26508 0.0
H2683 H 0.83206 0.24985 0.25044 0.0
H2684 H 0.85111 0.23754 0.26423 0.0
H2685 H 0.90349 0.21141 0.2139 0.0
H2686 H 0.90383 0.24111 0.19283 0.0
H2687 H 0.84511 0.25606 0.21318 0.0
C2688 C 0.84128 0.18722 0.25406 0.0
C2689 C 0.85136 0.16925 0.25679 0.0
C2690 C 0.87102 0.16742 0.25008 0.0
C2691 C 0.88021 0.18302 0.24007 0.0
C2692 C 0.86959 0.20036 0.2371 0.0
C2693 C 0.8506 0.20256 0.24408 0.0
C2694 C 0.84166 0.22189 0.23759 0.0
C2695 C 0.82292 0.21854 0.22524 0.0
C2696 C 0.83751 0.23524 0.25539 0.0
C2697 C 0.85827 0.22993 0.22519 0.0
C2698 C 0.8744 0.2175 0.22531 0.0
C2699 C 0.89105 0.22138 0.21395 0.0
C2700 C 0.89109 0.23826 0.20199 0.0
C2701 C 0.87449 0.2509 0.20136 0.0
C2702 C 0.85807 0.24677 0.2134 0.0
H2703 H 0.26756 0.3451 0.71698 0.0
H2704 H 0.27656 0.40498 0.69653 0.0
H2705 H 0.30812 0.40633 0.71462 0.0
H2706 H 0.28855 0.35197 0.76593 0.0
H2707 H 0.2996 0.32783 0.76627 0.0
H2708 H 0.27728 0.33201 0.75253 0.0
H2709 H 0.29413 0.31869 0.72094 0.0
H2710 H 0.31643 0.31442 0.73459 0.0
H2711 H 0.31693 0.32954 0.71279 0.0
H2712 H 0.34013 0.39997 0.73267 0.0
H2713 H 0.3694 0.3866 0.7499 0.0
H2714 H 0.33826 0.33167 0.75964 0.0
C2715 C 0.27606 0.35857 0.71642 0.0
C2716 C 0.2696 0.37493 0.70533 0.0
C2717 C 0.2812 0.39227 0.70498 0.0
C2718 C 0.29914 0.39319 0.71521 0.0
C2719 C 0.30514 0.37672 0.72589 0.0
C2720 C 0.29387 0.35979 0.72664 0.0
C2721 C 0.30385 0.3439 0.73865 0.0
C2722 C 0.29159 0.33863 0.75693 0.0
C2723 C 0.30809 0.32557 0.72598 0.0
C2724 C 0.32265 0.35443 0.74428 0.0
C2725 C 0.32318 0.37334 0.73678 0.0
C2726 C 0.33975 0.38531 0.7389 0.0
C2727 C 0.35628 0.37762 0.74869 0.0
C2728 C 0.35599 0.35824 0.75636 0.0
C2729 C 0.33879 0.34672 0.75438 0.0
H2730 H 0.14548 0.86605 0.23325 0.0
H2731 H 0.14116 0.85443 0.29596 0.0
H2732 H 0.12607 0.82209 0.28883 0.0
H2733 H 0.0998 0.84017 0.21811 0.0
H2734 H 0.11109 0.83093 0.19594 0.0
H2735 H 0.11882 0.85422 0.20605 0.0
H2736 H 0.1549 0.84178 0.20706 0.0
H2737 H 0.14729 0.81848 0.19707 0.0
H2738 H 0.16057 0.81933 0.22004 0.0
H2739 H 0.1146 0.78974 0.27477 0.0
H2740 H 0.10836 0.75984 0.25503 0.0
H2741 H 0.1209 0.79265 0.20161 0.0
C2742 C 0.14089 0.85695 0.24552 0.0
C2743 C 0.14434 0.86283 0.26517 0.0
C2744 C 0.13855 0.85027 0.28078 0.0
C2745 C 0.12992 0.8319 0.27687 0.0
C2746 C 0.12717 0.82636 0.2573 0.0
C2747 C 0.13244 0.83856 0.24188 0.0
C2748 C 0.12964 0.82848 0.2222 0.0
C2749 C 0.11389 0.83908 0.20985 0.0
C2750 C 0.14927 0.82693 0.21094 0.0
C2751 C 0.1225 0.80851 0.22895 0.0
C2752 C 0.12089 0.80764 0.24922 0.0
C2753 C 0.11557 0.79033 0.25888 0.0
C2754 C 0.11208 0.77341 0.24753 0.0
C2755 C 0.11411 0.7739 0.22677 0.0
C2756 C 0.11908 0.79181 0.21743 0.0
H2757 H 0.71499 0.60183 0.69807 0.0
H2758 H 0.74468 0.58287 0.75144 0.0
H2759 H 0.71544 0.59226 0.77092 0.0
H2760 H 0.69444 0.64373 0.71728 0.0
H2761 H 0.67154 0.6422 0.70393 0.0
H2762 H 0.69342 0.6312 0.69389 0.0
H2763 H 0.67565 0.5975 0.69151 0.0
H2764 H 0.65361 0.60845 0.70143 0.0
H2765 H 0.66427 0.58714 0.71313 0.0
H2766 H 0.68512 0.60826 0.78495 0.0
H2767 H 0.65549 0.62817 0.79216 0.0
H2768 H 0.64548 0.63576 0.7295 0.0
C2769 C 0.71518 0.59915 0.71379 0.0
C2770 C 0.73211 0.59158 0.72323 0.0
C2771 C 0.73184 0.58856 0.74387 0.0
C2772 C 0.71529 0.59383 0.75506 0.0
C2773 C 0.69908 0.60186 0.74535 0.0
C2774 C 0.69882 0.60427 0.72514 0.0
C2775 C 0.6803 0.61467 0.7184 0.0
C2776 C 0.68523 0.6341 0.70776 0.0
C2777 C 0.66771 0.60113 0.70535 0.0
C2778 C 0.6705 0.61837 0.73804 0.0
C2779 C 0.68146 0.61076 0.75342 0.0
C2780 C 0.67619 0.61391 0.77302 0.0
C2781 C 0.6594 0.62529 0.77697 0.0
C2782 C 0.64809 0.63332 0.76139 0.0
C2783 C 0.65358 0.62947 0.74172 0.0
H2784 H 0.78375 0.87387 0.84583 0.0
H2785 H 0.7226 0.89199 0.84164 0.0
H2786 H 0.72961 0.90807 0.80978 0.0
H2787 H 0.80574 0.91766 0.82069 0.0
H2788 H 0.82389 0.90266 0.80844 0.0
H2789 H 0.81486 0.89565 0.8324 0.0
H2790 H 0.80493 0.86149 0.81858 0.0
H2791 H 0.81379 0.86842 0.79463 0.0
H2792 H 0.78874 0.86017 0.79757 0.0
H2793 H 0.74216 0.91818 0.77658 0.0
H2794 H 0.75923 0.92145 0.74465 0.0
H2795 H 0.81208 0.89637 0.77049 0.0
C2796 C 0.77195 0.88174 0.83853 0.0
C2797 C 0.75265 0.8818 0.84629 0.0
C2798 C 0.73752 0.89185 0.83602 0.0
C2799 C 0.74138 0.90107 0.81795 0.0
C2800 C 0.76044 0.90018 0.8104 0.0
C2801 C 0.77552 0.89087 0.82044 0.0
C2802 C 0.79418 0.89018 0.80826 0.0
C2803 C 0.81064 0.90226 0.81803 0.0
C2804 C 0.80078 0.8688 0.80454 0.0
C2805 C 0.78705 0.89991 0.78953 0.0
C2806 C 0.76765 0.90585 0.79115 0.0
C2807 C 0.75746 0.9139 0.77525 0.0
C2808 C 0.76726 0.91564 0.75715 0.0
C2809 C 0.78701 0.90924 0.75508 0.0
C2810 C 0.79707 0.90164 0.77164 0.0
H2811 H 0.60407 0.2922 0.28542 0.0
H2812 H 0.59228 0.23693 0.25555 0.0
H2813 H 0.60165 0.21879 0.28567 0.0
H2814 H 0.64644 0.27703 0.30898 0.0
H2815 H 0.64221 0.29057 0.33141 0.0
H2816 H 0.63189 0.29923 0.30861 0.0
H2817 H 0.59698 0.29896 0.32406 0.0
H2818 H 0.60723 0.2904 0.34701 0.0
H2819 H 0.58778 0.27671 0.33523 0.0
H2820 H 0.61612 0.20669 0.31764 0.0
H2821 H 0.63383 0.20167 0.34906 0.0
H2822 H 0.63587 0.26494 0.35783 0.0
C2823 C 0.60293 0.27629 0.28533 0.0
C2824 C 0.59733 0.26599 0.26814 0.0
C2825 C 0.59642 0.24515 0.26857 0.0
C2826 C 0.6017 0.23472 0.28562 0.0
C2827 C 0.60772 0.24534 0.30213 0.0
C2828 C 0.60819 0.26568 0.30216 0.0
C2829 C 0.6167 0.27361 0.32118 0.0
C2830 C 0.63541 0.28582 0.3173 0.0
C2831 C 0.60124 0.28563 0.33254 0.0
C2832 C 0.62142 0.25453 0.33167 0.0
C2833 C 0.61599 0.23838 0.32054 0.0
C2834 C 0.62013 0.21922 0.32663 0.0
C2835 C 0.63023 0.21652 0.34447 0.0
C2836 C 0.6361 0.2329 0.35598 0.0
C2837 C 0.63132 0.2521 0.34955 0.0
H2838 H 0.19738 0.11732 0.79069 0.0
H2839 H 0.24979 0.09543 0.76133 0.0
H2840 H 0.26919 0.10165 0.79148 0.0
H2841 H 0.2203 0.15629 0.81571 0.0
H2842 H 0.2057 0.15395 0.83773 0.0
H2843 H 0.19573 0.14631 0.81441 0.0
H2844 H 0.1889 0.11153 0.82861 0.0
H2845 H 0.19887 0.11907 0.85202 0.0
H2846 H 0.20876 0.09778 0.83964 0.0
H2847 H 0.28341 0.11323 0.82382 0.0
H2848 H 0.29102 0.12841 0.85608 0.0
H2849 H 0.22902 0.14146 0.86436 0.0
C2850 C 0.21288 0.11357 0.79065 0.0
C2851 C 0.22206 0.10587 0.77365 0.0
C2852 C 0.24241 0.10129 0.7742 0.0
C2853 C 0.25356 0.10475 0.79126 0.0
C2854 C 0.24408 0.11262 0.80768 0.0
C2855 C 0.22417 0.11685 0.80754 0.0
C2856 C 0.21766 0.12602 0.82676 0.0
C2857 C 0.20937 0.14687 0.82344 0.0
C2858 C 0.20266 0.11281 0.83738 0.0
C2859 C 0.23708 0.1266 0.83764 0.0
C2860 C 0.25217 0.1188 0.82642 0.0
C2861 C 0.27167 0.11906 0.83288 0.0
C2862 C 0.27586 0.12772 0.85118 0.0
C2863 C 0.26058 0.13584 0.86281 0.0
C2864 C 0.24095 0.13496 0.85602 0.0
H2865 H 0.37318 0.77104 0.33205 0.0
H2866 H 0.39344 0.7265 0.37319 0.0
H2867 H 0.40826 0.70795 0.34572 0.0
H2868 H 0.35791 0.73944 0.29638 0.0
H2869 H 0.36534 0.75411 0.27554 0.0
H2870 H 0.35963 0.76584 0.29856 0.0
H2871 H 0.39402 0.78234 0.29907 0.0
H2872 H 0.39981 0.77083 0.27586 0.0
H2873 H 0.4158 0.76734 0.29677 0.0
H2874 H 0.41557 0.69154 0.31366 0.0
H2875 H 0.41665 0.67944 0.27936 0.0
H2876 H 0.39241 0.73494 0.25904 0.0
C2877 C 0.38132 0.75774 0.33539 0.0
C2878 C 0.38221 0.75025 0.35479 0.0
C2879 C 0.39264 0.73257 0.35847 0.0
C2880 C 0.40114 0.72194 0.34295 0.0
C2881 C 0.39927 0.7293 0.32389 0.0
C2882 C 0.38987 0.74695 0.32008 0.0
C2883 C 0.38818 0.75066 0.29814 0.0
C2884 C 0.36648 0.75262 0.2918 0.0
C2885 C 0.40018 0.76887 0.29211 0.0
C2886 C 0.39735 0.73197 0.29022 0.0
C2887 C 0.40382 0.71991 0.3053 0.0
C2888 C 0.41102 0.70104 0.3017 0.0
C2889 C 0.41147 0.69425 0.2822 0.0
C2890 C 0.40483 0.70635 0.26657 0.0
C2891 C 0.39802 0.72555 0.27066 0.0
H2892 H 0.77605 0.13355 0.13773 0.0
H2893 H 0.71358 0.12763 0.1498 0.0
H2894 H 0.72133 0.11335 0.18238 0.0
H2895 H 0.79289 0.08895 0.16488 0.0
H2896 H 0.81466 0.10132 0.17369 0.0
H2897 H 0.80422 0.10793 0.15018 0.0
H2898 H 0.80197 0.14432 0.16146 0.0
H2899 H 0.81226 0.13783 0.18498 0.0
H2900 H 0.78883 0.15024 0.18376 0.0
H2901 H 0.73583 0.10337 0.21498 0.0
H2902 H 0.75579 0.09918 0.24509 0.0
H2903 H 0.80868 0.11246 0.21173 0.0
C2904 C 0.76398 0.12871 0.14696 0.0
C2905 C 0.74421 0.13153 0.14116 0.0
C2906 C 0.72884 0.12549 0.15391 0.0
C2907 C 0.7331 0.11731 0.17241 0.0
C2908 C 0.75278 0.11527 0.1779 0.0
C2909 C 0.76797 0.12074 0.16551 0.0
C2910 C 0.78776 0.11898 0.17561 0.0
C2911 C 0.80064 0.10336 0.16549 0.0
C2912 C 0.79831 0.13903 0.1765 0.0
C2913 C 0.78131 0.11225 0.19583 0.0
C2914 C 0.76112 0.10988 0.19679 0.0
C2915 C 0.75168 0.10491 0.21432 0.0
C2916 C 0.76315 0.10259 0.23136 0.0
C2917 C 0.7838 0.10545 0.23077 0.0
C2918 C 0.79295 0.11 0.21265 0.0
H2919 H 0.34356 0.27779 0.73334 0.0
H2920 H 0.40656 0.27721 0.72255 0.0
H2921 H 0.40096 0.25872 0.6916 0.0
H2922 H 0.33298 0.22926 0.71442 0.0
H2923 H 0.30984 0.2367 0.70373 0.0
H2924 H 0.31907 0.2491 0.72528 0.0
H2925 H 0.31674 0.28256 0.70711 0.0
H2926 H 0.30754 0.27032 0.68548 0.0
H2927 H 0.32913 0.28567 0.68385 0.0
H2928 H 0.38802 0.24075 0.66132 0.0
H2929 H 0.3689 0.22586 0.63405 0.0
H2930 H 0.31466 0.23897 0.66524 0.0
C2931 C 0.35624 0.27365 0.7246 0.0
C2932 C 0.37552 0.27883 0.7304 0.0
C2933 C 0.39166 0.27334 0.71839 0.0
C2934 C 0.38862 0.26281 0.70082 0.0
C2935 C 0.36937 0.25798 0.69553 0.0
C2936 C 0.35348 0.26329 0.70708 0.0
C2937 C 0.3342 0.257 0.6979 0.0
C2938 C 0.32339 0.24213 0.71112 0.0
C2939 C 0.32115 0.27496 0.69331 0.0
C2940 C 0.34168 0.24738 0.67929 0.0
C2941 C 0.36199 0.24796 0.67817 0.0
C2942 C 0.37211 0.24016 0.66208 0.0
C2943 C 0.36114 0.23172 0.64669 0.0
C2944 C 0.3403 0.23125 0.64751 0.0
C2945 C 0.33057 0.23906 0.66414 0.0
H2946 H 0.24172 0.87778 0.24453 0.0
H2947 H 0.20014 0.92359 0.22845 0.0
H2948 H 0.21379 0.924 0.1947 0.0
H2949 H 0.28307 0.89528 0.21372 0.0
H2950 H 0.29052 0.87054 0.20764 0.0
H2951 H 0.27901 0.87556 0.23103 0.0
H2952 H 0.25237 0.84924 0.22364 0.0
H2953 H 0.26377 0.84414 0.2003 0.0
H2954 H 0.23816 0.85103 0.20127 0.0
H2955 H 0.22942 0.91658 0.16179 0.0
H2956 H 0.24574 0.90203 0.13267 0.0
H2957 H 0.27748 0.86175 0.17083 0.0
C2958 C 0.2357 0.88818 0.23405 0.0
C2959 C 0.21989 0.90068 0.23914 0.0
C2960 C 0.21232 0.91393 0.22491 0.0
C2961 C 0.22001 0.9143 0.20571 0.0
C2962 C 0.23538 0.9015 0.20109 0.0
C2963 C 0.24322 0.88879 0.21492 0.0
C2964 C 0.25872 0.87553 0.20596 0.0
C2965 C 0.27904 0.87947 0.21513 0.0
C2966 C 0.2529 0.8537 0.2079 0.0
C2967 C 0.25796 0.88233 0.18477 0.0
C2968 C 0.24455 0.89744 0.18224 0.0
C2969 C 0.24021 0.905 0.16365 0.0
C2970 C 0.24954 0.89663 0.14719 0.0
C2971 C 0.26301 0.88087 0.14948 0.0
C2972 C 0.26755 0.87403 0.16859 0.0
H2973 H 0.63763 0.72147 0.64694 0.0
H2974 H 0.62345 0.78355 0.65209 0.0
H2975 H 0.60765 0.77717 0.68428 0.0
H2976 H 0.59347 0.70174 0.67238 0.0
H2977 H 0.60758 0.68263 0.68423 0.0
H2978 H 0.61487 0.69163 0.66034 0.0
H2979 H 0.64965 0.69952 0.67399 0.0
H2980 H 0.64245 0.6907 0.69789 0.0
H2981 H 0.65201 0.71531 0.6952 0.0
H2982 H 0.59661 0.76453 0.71739 0.0
H2983 H 0.59179 0.74687 0.74883 0.0
H2984 H 0.6142 0.69334 0.72202 0.0
C2985 C 0.63069 0.73365 0.65453 0.0
C2986 C 0.63157 0.75298 0.64693 0.0
C2987 C 0.62281 0.7686 0.6576 0.0
C2988 C 0.61377 0.76511 0.67586 0.0
C2989 C 0.61367 0.74593 0.6832 0.0
C2990 C 0.62186 0.73046 0.67282 0.0
C2991 C 0.62164 0.71162 0.68472 0.0
C2992 C 0.60861 0.69598 0.67483 0.0
C2993 C 0.64268 0.70385 0.68815 0.0
C2994 C 0.61249 0.719 0.70362 0.0
C2995 C 0.60772 0.73875 0.70239 0.0
C2996 C 0.60004 0.749 0.71843 0.0
C2997 C 0.59738 0.73886 0.73624 0.0
C2998 C 0.60258 0.71872 0.73789 0.0
C2999 C 0.60994 0.70869 0.72122 0.0
H3000 H 0.8149 0.72745 0.83897 0.0
H3001 H 0.86461 0.75589 0.86737 0.0
H3002 H 0.84175 0.7761 0.88705 0.0
H3003 H 0.78646 0.76844 0.83322 0.0
H3004 H 0.76309 0.75693 0.8383 0.0
H3005 H 0.78311 0.74248 0.82877 0.0
H3006 H 0.78038 0.71864 0.85846 0.0
H3007 H 0.76017 0.73297 0.86801 0.0
H3008 H 0.78147 0.7283 0.88316 0.0
H3009 H 0.814 0.79729 0.89878 0.0
H3010 H 0.78301 0.81569 0.90418 0.0
H3011 H 0.75124 0.77219 0.86991 0.0
C3012 C 0.82098 0.73753 0.84973 0.0
C3013 C 0.84153 0.7401 0.85162 0.0
C3014 C 0.84891 0.75357 0.86574 0.0
C3015 C 0.83604 0.76514 0.87699 0.0
C3016 C 0.81585 0.76277 0.87423 0.0
C3017 C 0.80833 0.74901 0.86124 0.0
C3018 C 0.78611 0.75032 0.86 0.0
C3019 C 0.77931 0.75482 0.83882 0.0
C3020 C 0.77646 0.73144 0.86788 0.0
C3021 C 0.78238 0.76757 0.8736 0.0
C3022 C 0.79972 0.7745 0.88174 0.0
C3023 C 0.80026 0.79167 0.89298 0.0
C3024 C 0.78265 0.80207 0.89589 0.0
C3025 C 0.76478 0.79511 0.88776 0.0
C3026 C 0.76463 0.77748 0.87679 0.0
H3027 H 0.81706 0.29099 0.11501 0.0
H3028 H 0.86536 0.24922 0.11208 0.0
H3029 H 0.84296 0.2244 0.09794 0.0
H3030 H 0.7827 0.259 0.13171 0.0
H3031 H 0.76211 0.26869 0.11802 0.0
H3032 H 0.78249 0.28443 0.12409 0.0
H3033 H 0.78731 0.29292 0.0872 0.0
H3034 H 0.76673 0.27733 0.08099 0.0
H3035 H 0.79034 0.27335 0.06952 0.0
H3036 H 0.81447 0.20255 0.08999 0.0
H3037 H 0.78228 0.18586 0.08709 0.0
H3038 H 0.75261 0.24196 0.09454 0.0
C3039 C 0.82311 0.27686 0.11076 0.0
C3040 C 0.84298 0.27208 0.11462 0.0
C3041 C 0.85021 0.25327 0.10919 0.0
C3042 C 0.83759 0.23907 0.10111 0.0
C3043 C 0.81787 0.24398 0.09831 0.0
C3044 C 0.81071 0.26253 0.10269 0.0
C3045 C 0.78857 0.26347 0.10023 0.0
C3046 C 0.77838 0.26923 0.11967 0.0
C3047 C 0.78291 0.2776 0.08348 0.0
C3048 C 0.78428 0.24232 0.09471 0.0
C3049 C 0.80139 0.23136 0.09343 0.0
C3050 C 0.80101 0.21106 0.09046 0.0
C3051 C 0.78266 0.2017 0.08894 0.0
C3052 C 0.76498 0.21265 0.09041 0.0
C3053 C 0.76588 0.23326 0.09294 0.0
H3054 H 0.21206 0.3109 0.64354 0.0
H3055 H 0.24735 0.35747 0.61767 0.0
H3056 H 0.26487 0.33288 0.59744 0.0
H3057 H 0.2495 0.27769 0.64917 0.0
H3058 H 0.23523 0.25606 0.64344 0.0
H3059 H 0.22327 0.27749 0.65331 0.0
H3060 H 0.1996 0.27832 0.62336 0.0
H3061 H 0.21147 0.25677 0.6134 0.0
H3062 H 0.20959 0.27883 0.59877 0.0
H3063 H 0.28188 0.30289 0.58398 0.0
H3064 H 0.29632 0.27003 0.57788 0.0
H3065 H 0.24939 0.24329 0.612 0.0
C3066 C 0.22309 0.31602 0.63322 0.0
C3067 C 0.22828 0.33612 0.63216 0.0
C3068 C 0.24303 0.34216 0.61868 0.0
C3069 C 0.25305 0.3283 0.60709 0.0
C3070 C 0.24799 0.3085 0.60897 0.0
C3071 C 0.23319 0.30241 0.62155 0.0
C3072 C 0.23176 0.28019 0.62223 0.0
C3073 C 0.23515 0.27242 0.64328 0.0
C3074 C 0.21193 0.27312 0.61394 0.0
C3075 C 0.24858 0.27471 0.6087 0.0
C3076 C 0.25764 0.29122 0.60099 0.0
C3077 C 0.27465 0.28984 0.58957 0.0
C3078 C 0.28278 0.27113 0.58622 0.0
C3079 C 0.27389 0.25408 0.59431 0.0
C3080 C 0.25632 0.25597 0.60528 0.0
H3081 H 0.24519 0.76892 0.12064 0.0
H3082 H 0.22608 0.82333 0.09323 0.0
H3083 H 0.19151 0.81224 0.09525 0.0
H3084 H 0.20568 0.73606 0.09986 0.0
H3085 H 0.20362 0.72268 0.12269 0.0
H3086 H 0.22698 0.73299 0.11542 0.0
H3087 H 0.22899 0.75181 0.14856 0.0
H3088 H 0.20571 0.74164 0.15589 0.0
H3089 H 0.2091 0.76795 0.15556 0.0
H3090 H 0.15916 0.79749 0.10421 0.0
H3091 H 0.13146 0.78116 0.12106 0.0
H3092 H 0.17155 0.73675 0.14362 0.0
C3093 C 0.23377 0.77818 0.11446 0.0
C3094 C 0.23826 0.79686 0.10657 0.0
C3095 C 0.2229 0.8089 0.09923 0.0
C3096 C 0.20326 0.80267 0.1002 0.0
C3097 C 0.19923 0.78439 0.10859 0.0
C3098 C 0.21406 0.7723 0.11559 0.0
C3099 C 0.2057 0.75462 0.1263 0.0
C3100 C 0.2108 0.73545 0.11541 0.0
C3101 C 0.21279 0.75399 0.14785 0.0
C3102 C 0.18391 0.7591 0.12495 0.0
C3103 C 0.18046 0.77608 0.11427 0.0
C3104 C 0.16163 0.784 0.11233 0.0
C3105 C 0.14598 0.77463 0.12198 0.0
C3106 C 0.14933 0.75767 0.13365 0.0
C3107 C 0.16847 0.74956 0.13465 0.0
H3108 H 0.74041 0.66497 0.67425 0.0
H3109 H 0.7724 0.63761 0.62613 0.0
H3110 H 0.76015 0.66343 0.60348 0.0
H3111 H 0.69783 0.67761 0.64671 0.0
H3112 H 0.69386 0.70056 0.65942 0.0
H3113 H 0.7059 0.68047 0.67184 0.0
H3114 H 0.73582 0.70293 0.67948 0.0
H3115 H 0.72385 0.72311 0.66712 0.0
H3116 H 0.74813 0.71548 0.6596 0.0
H3117 H 0.74348 0.69202 0.58598 0.0
H3118 H 0.72392 0.72082 0.57521 0.0
H3119 H 0.70291 0.72864 0.6351 0.0
C3120 C 0.74504 0.66446 0.65899 0.0
C3121 C 0.75744 0.64932 0.65196 0.0
C3122 C 0.76294 0.64911 0.63184 0.0
C3123 C 0.75607 0.6637 0.61888 0.0
C3124 C 0.74369 0.67832 0.6263 0.0
C3125 C 0.73826 0.67877 0.6459 0.0
C3126 C 0.72441 0.69567 0.65018 0.0
C3127 C 0.70431 0.68812 0.65746 0.0
C3128 C 0.73361 0.71015 0.66497 0.0
C3129 C 0.72283 0.70468 0.62989 0.0
C3130 C 0.73407 0.69453 0.61629 0.0
C3131 C 0.73469 0.7001 0.59653 0.0
C3132 C 0.72352 0.71646 0.59055 0.0
C3133 C 0.7119 0.72701 0.6043 0.0
C3134 C 0.71166 0.72096 0.6242 0.0
H3135 H 0.17092 0.24721 0.82198 0.0
H3136 H 0.14331 0.26656 0.87629 0.0
H3137 H 0.17091 0.25217 0.8953 0.0
H3138 H 0.18792 0.20123 0.83991 0.0
H3139 H 0.21055 0.20179 0.82608 0.0
H3140 H 0.18909 0.21437 0.81688 0.0
H3141 H 0.20886 0.24699 0.81491 0.0
H3142 H 0.23041 0.2345 0.82402 0.0
H3143 H 0.2213 0.25605 0.83655 0.0
H3144 H 0.20102 0.23407 0.9083 0.0
H3145 H 0.23155 0.21496 0.91405 0.0
H3146 H 0.23895 0.20815 0.85093 0.0
C3147 C 0.17071 0.24863 0.83786 0.0
C3148 C 0.15498 0.25806 0.84766 0.0
C3149 C 0.15526 0.25946 0.86848 0.0
C3150 C 0.17084 0.2513 0.87938 0.0
C3151 C 0.186 0.24187 0.86922 0.0
C3152 C 0.18606 0.2406 0.84891 0.0
C3153 C 0.20377 0.22936 0.84145 0.0
C3154 C 0.19745 0.21058 0.83044 0.0
C3155 C 0.21686 0.24252 0.82847 0.0
C3156 C 0.21373 0.22448 0.86074 0.0
C3157 C 0.20327 0.23172 0.87662 0.0
C3158 C 0.2094 0.22847 0.89595 0.0
C3159 C 0.22671 0.21757 0.89908 0.0
C3160 C 0.23768 0.2102 0.88294 0.0
C3161 C 0.23103 0.21378 0.86358 0.0
H3162 H 0.29808 0.73557 0.33538 0.0
H3163 H 0.30056 0.72601 0.39855 0.0
H3164 H 0.28005 0.69614 0.39471 0.0
H3165 H 0.24781 0.71907 0.32814 0.0
H3166 H 0.25327 0.70759 0.30484 0.0
H3167 H 0.26724 0.72867 0.31282 0.0
H3168 H 0.29964 0.70882 0.30891 0.0
H3169 H 0.28578 0.68772 0.30088 0.0
H3170 H 0.30231 0.68563 0.32155 0.0
H3171 H 0.26022 0.66646 0.38352 0.0
H3172 H 0.24365 0.63921 0.36587 0.0
H3173 H 0.25459 0.66882 0.31028 0.0
C3174 C 0.29421 0.72732 0.34846 0.0
C3175 C 0.30088 0.73314 0.36727 0.0
C3176 C 0.29559 0.72183 0.38398 0.0
C3177 C 0.28391 0.70488 0.38196 0.0
C3178 C 0.27765 0.69952 0.36314 0.0
C3179 C 0.28265 0.71043 0.34671 0.0
C3180 C 0.27476 0.70123 0.32804 0.0
C3181 C 0.25988 0.71496 0.31787 0.0
C3182 C 0.29163 0.69551 0.31403 0.0
C3183 C 0.26472 0.68326 0.33648 0.0
C3184 C 0.2664 0.68255 0.35675 0.0
C3185 C 0.25872 0.66694 0.36765 0.0
C3186 C 0.24933 0.65155 0.35751 0.0
C3187 C 0.24781 0.65189 0.3367 0.0
C3188 C 0.25542 0.66812 0.32619 0.0
H3189 H 0.76923 0.32832 0.3458 0.0
H3190 H 0.7496 0.36456 0.39463 0.0
H3191 H 0.73348 0.33556 0.40956 0.0
H3192 H 0.72593 0.30309 0.34027 0.0
H3193 H 0.73684 0.27979 0.33377 0.0
H3194 H 0.74983 0.30228 0.32874 0.0
H3195 H 0.77987 0.28986 0.34876 0.0
H3196 H 0.76709 0.26713 0.35365 0.0
H3197 H 0.77646 0.28168 0.37378 0.0
H3198 H 0.71607 0.3036 0.41693 0.0
H3199 H 0.6994 0.27125 0.41644 0.0
H3200 H 0.72987 0.25655 0.36219 0.0
C3201 C 0.76212 0.33006 0.35997 0.0
C3202 C 0.76082 0.34867 0.36915 0.0
C3203 C 0.7509 0.3504 0.38742 0.0
C3204 C 0.74171 0.33401 0.39601 0.0
C3205 C 0.74261 0.31603 0.38615 0.0
C3206 C 0.75271 0.31394 0.3686 0.0
C3207 C 0.74985 0.29364 0.35989 0.0
C3208 C 0.74003 0.29478 0.33947 0.0
C3209 C 0.76949 0.28241 0.35898 0.0
C3210 C 0.73615 0.28476 0.37502 0.0
C3211 C 0.73231 0.29779 0.39018 0.0
C3212 C 0.7192 0.29318 0.40528 0.0
C3213 C 0.70975 0.2748 0.40484 0.0
C3214 C 0.71336 0.26135 0.3893 0.0
C3215 C 0.72688 0.26643 0.37435 0.0
loop_
_geom_bond_atom_site_label_1
_geom_bond_atom_site_label_2
_geom_bond_distance
_geom_bond_site_symmetry_2
_ccdc_geom_bond_type
C0 O1 1.160 . S
C0 O7 1.185 . S
O1 C0 1.160 . S
O2 Zn3 1.899 . S
O2 C10 1.284 . S
Zn3 O2 1.899 . S
Zn3 O4 2.032 . S
Zn3 O7 2.086 . S
Zn3 O12 1.977 . S
O4 Zn3 2.032 . S
O4 C8 1.278 . S
C5 O6 1.203 . S
C5 O12 1.267 . S
O6 C5 1.203 . S
O7 C0 1.185 . S
O7 Zn3 2.086 . S
C8 O4 1.278 . S
C8 O9 1.211 . S
O9 C8 1.211 . S
C10 O2 1.284 . S
C10 O11 1.273 . S
O11 C10 1.273 . S
O12 Zn3 1.977 . S
O12 C5 1.267 . S
C13 O14 1.160 . S
C13 O20 1.185 . S
O14 C13 1.160 . S
O15 Zn16 1.899 . S
O15 C23 1.284 . S
Zn16 O15 1.899 . S
Zn16 O17 2.032 . S
Zn16 O20 2.086 . S
Zn16 O25 1.977 . S
O17 Zn16 2.032 . S
O17 C21 1.278 . S
C18 O19 1.203 . S
C18 O25 1.267 . S
O19 C18 1.203 . S
O20 C13 1.185 . S
O20 Zn16 2.086 . S
C21 O17 1.278 . S
C21 O22 1.211 . S
O22 C21 1.211 . S
C23 O15 1.284 . S
C23 O24 1.273 . S
O24 C23 1.273 . S
O25 Zn16 1.977 . S
O25 C18 1.267 . S
C26 O27 1.160 . S
C26 O33 1.185 . S
O27 C26 1.160 . S
O28 Zn29 1.899 . S
O28 C36 1.284 . S
Zn29 O28 1.899 . S
Zn29 O30 2.032 . S
Zn29 O33 2.086 . S
Zn29 O38 1.977 . S
O30 Zn29 2.032 . S
O30 C34 1.278 . S
C31 O32 1.203 . S
C31 O38 1.267 . S
O32 C31 1.203 . S
O33 C26 1.185 . S
O33 Zn29 2.086 . S
C34 O30 1.278 . S
C34 O35 1.211 . S
O35 C34 1.211 . S
C36 O28 1.284 . S
C36 O37 1.273 . S
O37 C36 1.273 . S
O38 Zn29 1.977 . S
O38 C31 1.267 . S
C39 O40 1.160 . S
C39 O46 1.185 . S
O40 C39 1.160 . S
O41 Zn42 1.899 . S
O41 C49 1.284 . S
Zn42 O41 1.899 . S
Zn42 O43 2.032 . S
Zn42 O46 2.086 . S
Zn42 O51 1.977 . S
O43 Zn42 2.032 . S
O43 C47 1.278 . S
C44 O45 1.203 . S
C44 O51 1.267 . S
O45 C44 1.203 . S
O46 C39 1.185 . S
O46 Zn42 2.086 . S
C47 O43 1.278 . S
C47 O48 1.211 . S
O48 C47 1.211 . S
C49 O41 1.284 . S
C49 O50 1.273 . S
O50 C49 1.273 . S
O51 Zn42 1.977 . S
O51 C44 1.267 . S
C52 O53 1.160 . S
C52 O59 1.185 . S
O53 C52 1.160 . S
O54 Zn55 1.899 . S
O54 C62 1.284 . S
Zn55 O54 1.899 . S
Zn55 O56 2.032 . S
Zn55 O59 2.086 . S
Zn55 O64 1.977 . S
O56 Zn55 2.032 . S
O56 C60 1.278 . S
C57 O58 1.203 . S
C57 O64 1.267 . S
O58 C57 1.203 . S
O59 C52 1.185 . S
O59 Zn55 2.086 . S
C60 O56 1.278 . S
C60 O61 1.211 . S
O61 C60 1.211 . S
C62 O54 1.284 . S
C62 O63 1.273 . S
O63 C62 1.273 . S
O64 Zn55 1.977 . S
O64 C57 1.267 . S
C65 O66 1.160 . S
C65 O72 1.185 . S
O66 C65 1.160 . S
O67 Zn68 1.899 . S
O67 C75 1.284 . S
Zn68 O67 1.899 . S
Zn68 O69 2.032 . S
Zn68 O72 2.086 . S
Zn68 O77 1.977 . S
O69 Zn68 2.032 . S
O69 C73 1.278 . S
C70 O71 1.203 . S
C70 O77 1.267 . S
O71 C70 1.203 . S
O72 C65 1.185 . S
O72 Zn68 2.086 . S
C73 O69 1.278 . S
C73 O74 1.211 . S
O74 C73 1.211 . S
C75 O67 1.284 . S
C75 O76 1.273 . S
O76 C75 1.273 . S
O77 Zn68 1.977 . S
O77 C70 1.267 . S
C78 O79 1.160 . S
C78 O85 1.185 . S
O79 C78 1.160 . S
O80 Zn81 1.899 . S
O80 C88 1.284 . S
Zn81 O80 1.899 . S
Zn81 O82 2.032 . S
Zn81 O85 2.086 . S
Zn81 O90 1.977 . S
O82 Zn81 2.032 . S
O82 C86 1.278 . S
C83 O84 1.203 . S
C83 O90 1.267 . S
O84 C83 1.203 . S
O85 C78 1.185 . S
O85 Zn81 2.086 . S
C86 O82 1.278 . S
C86 O87 1.211 . S
O87 C86 1.211 . S
C88 O80 1.284 . S
C88 O89 1.273 . S
O89 C88 1.273 . S
O90 Zn81 1.977 . S
O90 C83 1.267 . S
C91 O92 1.160 . S
C91 O98 1.185 . S
O92 C91 1.160 . S
O93 Zn94 1.899 . S
O93 C101 1.284 . S
Zn94 O93 1.899 . S
Zn94 O95 2.032 . S
Zn94 O98 2.086 . S
Zn94 O103 1.977 . S
O95 Zn94 2.032 . S
O95 C99 1.278 . S
C96 O97 1.203 . S
C96 O103 1.267 . S
O97 C96 1.203 . S
O98 C91 1.185 . S
O98 Zn94 2.086 . S
C99 O95 1.278 . S
C99 O100 1.211 . S
O100 C99 1.211 . S
C101 O93 1.284 . S
C101 O102 1.273 . S
O102 C101 1.273 . S
O103 Zn94 1.977 . S
O103 C96 1.267 . S
C104 O105 1.160 . S
C104 O111 1.185 . S
O105 C104 1.160 . S
O106 Zn107 1.899 . S
O106 C114 1.284 . S
Zn107 O106 1.899 . S
Zn107 O108 2.032 . S
Zn107 O111 2.086 . S
Zn107 O116 1.977 . S
O108 Zn107 2.032 . S
O108 C112 1.278 . S
C109 O110 1.203 . S
C109 O116 1.267 . S
O110 C109 1.203 . S
O111 C104 1.185 . S
O111 Zn107 2.086 . S
C112 O108 1.278 . S
C112 O113 1.211 . S
O113 C112 1.211 . S
C114 O106 1.284 . S
C114 O115 1.273 . S
O115 C114 1.273 . S
O116 Zn107 1.977 . S
O116 C109 1.267 . S
C117 O118 1.160 . S
C117 O124 1.185 . S
O118 C117 1.160 . S
O119 Zn120 1.899 . S
O119 C127 1.284 . S
Zn120 O119 1.899 . S
Zn120 O121 2.032 . S
Zn120 O124 2.086 . S
Zn120 O129 1.977 . S
O121 Zn120 2.032 . S
O121 C125 1.278 . S
C122 O123 1.203 . S
C122 O129 1.267 . S
O123 C122 1.203 . S
O124 C117 1.185 . S
O124 Zn120 2.086 . S
C125 O121 1.278 . S
C125 O126 1.211 . S
O126 C125 1.211 . S
C127 O119 1.284 . S
C127 O128 1.273 . S
O128 C127 1.273 . S
O129 Zn120 1.977 . S
O129 C122 1.267 . S
C130 O131 1.160 . S
C130 O137 1.185 . S
O131 C130 1.160 . S
O132 Zn133 1.899 . S
O132 C140 1.284 . S
Zn133 O132 1.899 . S
Zn133 O134 2.032 . S
Zn133 O137 2.086 . S
Zn133 O142 1.977 . S
O134 Zn133 2.032 . S
O134 C138 1.278 . S
C135 O136 1.203 . S
C135 O142 1.267 . S
O136 C135 1.203 . S
O137 C130 1.185 . S
O137 Zn133 2.086 . S
C138 O134 1.278 . S
C138 O139 1.211 . S
O139 C138 1.211 . S
C140 O132 1.284 . S
C140 O141 1.273 . S
O141 C140 1.273 . S
O142 Zn133 1.977 . S
O142 C135 1.267 . S
C143 O144 1.160 . S
C143 O150 1.185 . S
O144 C143 1.160 . S
O145 Zn146 1.899 . S
O145 C153 1.284 . S
Zn146 O145 1.899 . S
Zn146 O147 2.032 . S
Zn146 O150 2.086 . S
Zn146 O155 1.977 . S
O147 Zn146 2.032 . S
O147 C151 1.278 . S
C148 O149 1.203 . S
C148 O155 1.267 . S
O149 C148 1.203 . S
O150 C143 1.185 . S
O150 Zn146 2.086 . S
C151 O147 1.278 . S
C151 O152 1.211 . S
O152 C151 1.211 . S
C153 O145 1.284 . S
C153 O154 1.273 . S
O154 C153 1.273 . S
O155 Zn146 1.977 . S
O155 C148 1.267 . S
C156 O157 1.160 . S
C156 O163 1.185 . S
O157 C156 1.160 . S
O158 Zn159 1.899 . S
O158 C166 1.284 . S
Zn159 O158 1.899 . S
Zn159 O160 2.032 . S
Zn159 O163 2.086 . S
Zn159 O168 1.977 . S
O160 Zn159 2.032 . S
O160 C164 1.278 . S
C161 O162 1.203 . S
C161 O168 1.267 . S
O162 C161 1.203 . S
O163 C156 1.185 . S
O163 Zn159 2.086 . S
C164 O160 1.278 . S
C164 O165 1.211 . S
O165 C164 1.211 . S
C166 O158 1.284 . S
C166 O167 1.273 . S
O167 C166 1.273 . S
O168 Zn159 1.977 . S
O168 C161 1.267 . S
C169 O170 1.160 . S
C169 O176 1.185 . S
O170 C169 1.160 . S
O171 Zn172 1.899 . S
O171 C179 1.284 . S
Zn172 O171 1.899 . S
Zn172 O173 2.032 . S
Zn172 O176 2.086 . S
Zn172 O181 1.977 . S
O173 Zn172 2.032 . S
O173 C177 1.278 . S
C174 O175 1.203 . S
C174 O181 1.267 . S
O175 C174 1.203 . S
O176 C169 1.185 . S
O176 Zn172 2.086 . S
C177 O173 1.278 . S
C177 O178 1.211 . S
O178 C177 1.211 . S
C179 O171 1.284 . S
C179 O180 1.273 . S
O180 C179 1.273 . S
O181 Zn172 1.977 . S
O181 C174 1.267 . S
C182 O183 1.160 . S
C182 O189 1.185 . S
O183 C182 1.160 . S
O184 Zn185 1.899 . S
O184 C192 1.284 . S
Zn185 O184 1.899 . S
Zn185 O186 2.032 . S
Zn185 O189 2.086 . S
Zn185 O194 1.977 . S
O186 Zn185 2.032 . S
O186 C190 1.278 . S
C187 O188 1.203 . S
C187 O194 1.267 . S
O188 C187 1.203 . S
O189 C182 1.185 . S
O189 Zn185 2.086 . S
C190 O186 1.278 . S
C190 O191 1.211 . S
O191 C190 1.211 . S
C192 O184 1.284 . S
C192 O193 1.273 . S
O193 C192 1.273 . S
O194 Zn185 1.977 . S
O194 C187 1.267 . S
C195 O196 1.160 . S
C195 O202 1.185 . S
O196 C195 1.160 . S
O197 Zn198 1.899 . S
O197 C205 1.284 . S
Zn198 O197 1.899 . S
Zn198 O199 2.032 . S
Zn198 O202 2.086 . S
Zn198 O207 1.977 . S
O199 Zn198 2.032 . S
O199 C203 1.278 . S
C200 O201 1.203 . S
C200 O207 1.267 . S
O201 C200 1.203 . S
O202 C195 1.185 . S
O202 Zn198 2.086 . S
C203 O199 1.278 . S
C203 O204 1.211 . S
O204 C203 1.211 . S
C205 O197 1.284 . S
C205 O206 1.273 . S
O206 C205 1.273 . S
O207 Zn198 1.977 . S
O207 C200 1.267 . S
C208 O209 1.160 . S
C208 O215 1.185 . S
O209 C208 1.160 . S
O210 Zn211 1.899 . S
O210 C218 1.284 . S
Zn211 O210 1.899 . S
Zn211 O212 2.032 . S
Zn211 O215 2.086 . S
Zn211 O220 1.977 . S
O212 Zn211 2.032 . S
O212 C216 1.278 . S
C213 O214 1.203 . S
C213 O220 1.267 . S
O214 C213 1.203 . S
O215 C208 1.185 . S
O215 Zn211 2.086 . S
C216 O212 1.278 . S
C216 O217 1.211 . S
O217 C216 1.211 . S
C218 O210 1.284 . S
C218 O219 1.273 . S
O219 C218 1.273 . S
O220 Zn211 1.977 . S
O220 C213 1.267 . S
C221 O222 1.160 . S
C221 O228 1.185 . S
O222 C221 1.160 . S
O223 Zn224 1.899 . S
O223 C231 1.284 . S
Zn224 O223 1.899 . S
Zn224 O225 2.032 . S
Zn224 O228 2.086 . S
Zn224 O233 1.977 . S
O225 Zn224 2.032 . S
O225 C229 1.278 . S
C226 O227 1.203 . S
C226 O233 1.267 . S
O227 C226 1.203 . S
O228 C221 1.185 . S
O228 Zn224 2.086 . S
C229 O225 1.278 . S
C229 O230 1.211 . S
O230 C229 1.211 . S
C231 O223 1.284 . S
C231 O232 1.273 . S
O232 C231 1.273 . S
O233 Zn224 1.977 . S
O233 C226 1.267 . S
C234 O235 1.160 . S
C234 O241 1.185 . S
O235 C234 1.160 . S
O236 Zn237 1.899 . S
O236 C244 1.284 . S
Zn237 O236 1.899 . S
Zn237 O238 2.032 . S
Zn237 O241 2.086 . S
Zn237 O246 1.977 . S
O238 Zn237 2.032 . S
O238 C242 1.278 . S
C239 O240 1.203 . S
C239 O246 1.267 . S
O240 C239 1.203 . S
O241 C234 1.185 . S
O241 Zn237 2.086 . S
C242 O238 1.278 . S
C242 O243 1.211 . S
O243 C242 1.211 . S
C244 O236 1.284 . S
C244 O245 1.273 . S
O245 C244 1.273 . S
O246 Zn237 1.977 . S
O246 C239 1.267 . S
C247 O248 1.160 . S
C247 O254 1.185 . S
O248 C247 1.160 . S
O249 Zn250 1.899 . S
O249 C257 1.284 . S
Zn250 O249 1.899 . S
Zn250 O251 2.032 . S
Zn250 O254 2.086 . S
Zn250 O259 1.977 . S
O251 Zn250 2.032 . S
O251 C255 1.278 . S
C252 O253 1.203 . S
C252 O259 1.267 . S
O253 C252 1.203 . S
O254 C247 1.185 . S
O254 Zn250 2.086 . S
C255 O251 1.278 . S
C255 O256 1.211 . S
O256 C255 1.211 . S
C257 O249 1.284 . S
C257 O258 1.273 . S
O258 C257 1.273 . S
O259 Zn250 1.977 . S
O259 C252 1.267 . S
C260 O261 1.160 . S
C260 O267 1.185 . S
O261 C260 1.160 . S
O262 Zn263 1.899 . S
O262 C270 1.284 . S
Zn263 O262 1.899 . S
Zn263 O264 2.032 . S
Zn263 O267 2.086 . S
Zn263 O272 1.977 . S
O264 Zn263 2.032 . S
O264 C268 1.278 . S
C265 O266 1.203 . S
C265 O272 1.267 . S
O266 C265 1.203 . S
O267 C260 1.185 . S
O267 Zn263 2.086 . S
C268 O264 1.278 . S
C268 O269 1.211 . S
O269 C268 1.211 . S
C270 O262 1.284 . S
C270 O271 1.273 . S
O271 C270 1.273 . S
O272 Zn263 1.977 . S
O272 C265 1.267 . S
C273 O274 1.160 . S
C273 O280 1.185 . S
O274 C273 1.160 . S
O275 Zn276 1.899 . S
O275 C283 1.284 . S
Zn276 O275 1.899 . S
Zn276 O277 2.032 . S
Zn276 O280 2.086 . S
Zn276 O285 1.977 . S
O277 Zn276 2.032 . S
O277 C281 1.278 . S
C278 O279 1.203 . S
C278 O285 1.267 . S
O279 C278 1.203 . S
O280 C273 1.185 . S
O280 Zn276 2.086 . S
C281 O277 1.278 . S
C281 O282 1.211 . S
O282 C281 1.211 . S
C283 O275 1.284 . S
C283 O284 1.273 . S
O284 C283 1.273 . S
O285 Zn276 1.977 . S
O285 C278 1.267 . S
C286 O287 1.160 . S
C286 O293 1.185 . S
O287 C286 1.160 . S
O288 Zn289 1.899 . S
O288 C296 1.284 . S
Zn289 O288 1.899 . S
Zn289 O290 2.032 . S
Zn289 O293 2.086 . S
Zn289 O298 1.977 . S
O290 Zn289 2.032 . S
O290 C294 1.278 . S
C291 O292 1.203 . S
C291 O298 1.267 . S
O292 C291 1.203 . S
O293 C286 1.185 . S
O293 Zn289 2.086 . S
C294 O290 1.278 . S
C294 O295 1.211 . S
O295 C294 1.211 . S
C296 O288 1.284 . S
C296 O297 1.273 . S
O297 C296 1.273 . S
O298 Zn289 1.977 . S
O298 C291 1.267 . S
C299 O300 1.160 . S
C299 O306 1.185 . S
O300 C299 1.160 . S
O301 Zn302 1.899 . S
O301 C309 1.284 . S
Zn302 O301 1.899 . S
Zn302 O303 2.032 . S
Zn302 O306 2.086 . S
Zn302 O311 1.977 . S
O303 Zn302 2.032 . S
O303 C307 1.278 . S
C304 O305 1.203 . S
C304 O311 1.267 . S
O305 C304 1.203 . S
O306 C299 1.185 . S
O306 Zn302 2.086 . S
C307 O303 1.278 . S
C307 O308 1.211 . S
O308 C307 1.211 . S
C309 O301 1.284 . S
C309 O310 1.273 . S
O310 C309 1.273 . S
O311 Zn302 1.977 . S
O311 C304 1.267 . S
C312 O313 1.160 . S
C312 O319 1.185 . S
O313 C312 1.160 . S
O314 Zn315 1.899 . S
O314 C322 1.284 . S
Zn315 O314 1.899 . S
Zn315 O316 2.032 . S
Zn315 O319 2.086 . S
Zn315 O324 1.977 . S
O316 Zn315 2.032 . S
O316 C320 1.278 . S
C317 O318 1.203 . S
C317 O324 1.267 . S
O318 C317 1.203 . S
O319 C312 1.185 . S
O319 Zn315 2.086 . S
C320 O316 1.278 . S
C320 O321 1.211 . S
O321 C320 1.211 . S
C322 O314 1.284 . S
C322 O323 1.273 . S
O323 C322 1.273 . S
O324 Zn315 1.977 . S
O324 C317 1.267 . S
C325 O326 1.160 . S
C325 O332 1.185 . S
O326 C325 1.160 . S
O327 Zn328 1.899 . S
O327 C335 1.284 . S
Zn328 O327 1.899 . S
Zn328 O329 2.032 . S
Zn328 O332 2.086 . S
Zn328 O337 1.977 . S
O329 Zn328 2.032 . S
O329 C333 1.278 . S
C330 O331 1.203 . S
C330 O337 1.267 . S
O331 C330 1.203 . S
O332 C325 1.185 . S
O332 Zn328 2.086 . S
C333 O329 1.278 . S
C333 O334 1.211 . S
O334 C333 1.211 . S
C335 O327 1.284 . S
C335 O336 1.273 . S
O336 C335 1.273 . S
O337 Zn328 1.977 . S
O337 C330 1.267 . S
C338 O339 1.160 . S
C338 O345 1.185 . S
O339 C338 1.160 . S
O340 Zn341 1.899 . S
O340 C348 1.284 . S
Zn341 O340 1.899 . S
Zn341 O342 2.032 . S
Zn341 O345 2.086 . S
Zn341 O350 1.977 . S
O342 Zn341 2.032 . S
O342 C346 1.278 . S
C343 O344 1.203 . S
C343 O350 1.267 . S
O344 C343 1.203 . S
O345 C338 1.185 . S
O345 Zn341 2.086 . S
C346 O342 1.278 . S
C346 O347 1.211 . S
O347 C346 1.211 . S
C348 O340 1.284 . S
C348 O349 1.273 . S
O349 C348 1.273 . S
O350 Zn341 1.977 . S
O350 C343 1.267 . S
C351 O352 1.160 . S
C351 O358 1.185 . S
O352 C351 1.160 . S
O353 Zn354 1.899 . S
O353 C361 1.284 . S
Zn354 O353 1.899 . S
Zn354 O355 2.032 . S
Zn354 O358 2.086 . S
Zn354 O363 1.977 . S
O355 Zn354 2.032 . S
O355 C359 1.278 . S
C356 O357 1.203 . S
C356 O363 1.267 . S
O357 C356 1.203 . S
O358 C351 1.185 . S
O358 Zn354 2.086 . S
C359 O355 1.278 . S
C359 O360 1.211 . S
O360 C359 1.211 . S
C361 O353 1.284 . S
C361 O362 1.273 . S
O362 C361 1.273 . S
O363 Zn354 1.977 . S
O363 C356 1.267 . S
C364 O365 1.160 . S
C364 O371 1.185 . S
O365 C364 1.160 . S
O366 Zn367 1.899 . S
O366 C374 1.284 . S
Zn367 O366 1.899 . S
Zn367 O368 2.032 . S
Zn367 O371 2.086 . S
Zn367 O376 1.977 . S
O368 Zn367 2.032 . S
O368 C372 1.278 . S
C369 O370 1.203 . S
C369 O376 1.267 . S
O370 C369 1.203 . S
O371 C364 1.185 . S
O371 Zn367 2.086 . S
C372 O368 1.278 . S
C372 O373 1.211 . S
O373 C372 1.211 . S
C374 O366 1.284 . S
C374 O375 1.273 . S
O375 C374 1.273 . S
O376 Zn367 1.977 . S
O376 C369 1.267 . S
C377 O378 1.160 . S
C377 O384 1.185 . S
O378 C377 1.160 . S
O379 Zn380 1.899 . S
O379 C387 1.284 . S
Zn380 O379 1.899 . S
Zn380 O381 2.032 . S
Zn380 O384 2.086 . S
Zn380 O389 1.977 . S
O381 Zn380 2.032 . S
O381 C385 1.278 . S
C382 O383 1.203 . S
C382 O389 1.267 . S
O383 C382 1.203 . S
O384 C377 1.185 . S
O384 Zn380 2.086 . S
C385 O381 1.278 . S
C385 O386 1.211 . S
O386 C385 1.211 . S
C387 O379 1.284 . S
C387 O388 1.273 . S
O388 C387 1.273 . S
O389 Zn380 1.977 . S
O389 C382 1.267 . S
C390 O391 1.160 . S
C390 O397 1.185 . S
O391 C390 1.160 . S
O392 Zn393 1.899 . S
O392 C400 1.284 . S
Zn393 O392 1.899 . S
Zn393 O394 2.032 . S
Zn393 O397 2.086 . S
Zn393 O402 1.977 . S
O394 Zn393 2.032 . S
O394 C398 1.278 . S
C395 O396 1.203 . S
C395 O402 1.267 . S
O396 C395 1.203 . S
O397 C390 1.185 . S
O397 Zn393 2.086 . S
C398 O394 1.278 . S
C398 O399 1.211 . S
O399 C398 1.211 . S
C400 O392 1.284 . S
C400 O401 1.273 . S
O401 C400 1.273 . S
O402 Zn393 1.977 . S
O402 C395 1.267 . S
C403 O404 1.160 . S
C403 O410 1.185 . S
O404 C403 1.160 . S
O405 Zn406 1.899 . S
O405 C413 1.284 . S
Zn406 O405 1.899 . S
Zn406 O407 2.032 . S
Zn406 O410 2.086 . S
Zn406 O415 1.977 . S
O407 Zn406 2.032 . S
O407 C411 1.278 . S
C408 O409 1.203 . S
C408 O415 1.267 . S
O409 C408 1.203 . S
O410 C403 1.185 . S
O410 Zn406 2.086 . S
C411 O407 1.278 . S
C411 O412 1.211 . S
O412 C411 1.211 . S
C413 O405 1.284 . S
C413 O414 1.273 . S
O414 C413 1.273 . S
O415 Zn406 1.977 . S
O415 C408 1.267 . S
C416 O417 1.160 . S
C416 O423 1.185 . S
O417 C416 1.160 . S
O418 Zn419 1.899 . S
O418 C426 1.284 . S
Zn419 O418 1.899 . S
Zn419 O420 2.032 . S
Zn419 O423 2.086 . S
Zn419 O428 1.977 . S
O420 Zn419 2.032 . S
O420 C424 1.278 . S
C421 O422 1.203 . S
C421 O428 1.267 . S
O422 C421 1.203 . S
O423 C416 1.185 . S
O423 Zn419 2.086 . S
C424 O420 1.278 . S
C424 O425 1.211 . S
O425 C424 1.211 . S
C426 O418 1.284 . S
C426 O427 1.273 . S
O427 C426 1.273 . S
O428 Zn419 1.977 . S
O428 C421 1.267 . S
C429 O430 1.160 . S
C429 O436 1.185 . S
O430 C429 1.160 . S
O431 Zn432 1.899 . S
O431 C439 1.284 . S
Zn432 O431 1.899 . S
Zn432 O433 2.032 . S
Zn432 O436 2.086 . S
Zn432 O441 1.977 . S
O433 Zn432 2.032 . S
O433 C437 1.278 . S
C434 O435 1.203 . S
C434 O441 1.267 . S
O435 C434 1.203 . S
O436 C429 1.185 . S
O436 Zn432 2.086 . S
C437 O433 1.278 . S
C437 O438 1.211 . S
O438 C437 1.211 . S
C439 O431 1.284 . S
C439 O440 1.273 . S
O440 C439 1.273 . S
O441 Zn432 1.977 . S
O441 C434 1.267 . S
C442 O443 1.160 . S
C442 O449 1.185 . S
O443 C442 1.160 . S
O444 Zn445 1.899 . S
O444 C452 1.284 . S
Zn445 O444 1.899 . S
Zn445 O446 2.032 . S
Zn445 O449 2.086 . S
Zn445 O454 1.977 . S
O446 Zn445 2.032 . S
O446 C450 1.278 . S
C447 O448 1.203 . S
C447 O454 1.267 . S
O448 C447 1.203 . S
O449 C442 1.185 . S
O449 Zn445 2.086 . S
C450 O446 1.278 . S
C450 O451 1.211 . S
O451 C450 1.211 . S
C452 O444 1.284 . S
C452 O453 1.273 . S
O453 C452 1.273 . S
O454 Zn445 1.977 . S
O454 C447 1.267 . S
C455 O456 1.160 . S
C455 O462 1.185 . S
O456 C455 1.160 . S
O457 Zn458 1.899 . S
O457 C465 1.284 . S
Zn458 O457 1.899 . S
Zn458 O459 2.032 . S
Zn458 O462 2.086 . S
Zn458 O467 1.977 . S
O459 Zn458 2.032 . S
O459 C463 1.278 . S
C460 O461 1.203 . S
C460 O467 1.267 . S
O461 C460 1.203 . S
O462 C455 1.185 . S
O462 Zn458 2.086 . S
C463 O459 1.278 . S
C463 O464 1.211 . S
O464 C463 1.211 . S
C465 O457 1.284 . S
C465 O466 1.273 . S
O466 C465 1.273 . S
O467 Zn458 1.977 . S
O467 C460 1.267 . S
C468 O469 1.160 . S
C468 O475 1.185 . S
O469 C468 1.160 . S
O470 Zn471 1.899 . S
O470 C478 1.284 . S
Zn471 O470 1.899 . S
Zn471 O472 2.032 . S
Zn471 O475 2.086 . S
Zn471 O480 1.977 . S
O472 Zn471 2.032 . S
O472 C476 1.278 . S
C473 O474 1.203 . S
C473 O480 1.267 . S
O474 C473 1.203 . S
O475 C468 1.185 . S
O475 Zn471 2.086 . S
C476 O472 1.278 . S
C476 O477 1.211 . S
O477 C476 1.211 . S
C478 O470 1.284 . S
C478 O479 1.273 . S
O479 C478 1.273 . S
O480 Zn471 1.977 . S
O480 C473 1.267 . S
C481 O482 1.160 . S
C481 O488 1.185 . S
O482 C481 1.160 . S
O483 Zn484 1.899 . S
O483 C491 1.284 . S
Zn484 O483 1.899 . S
Zn484 O485 2.032 . S
Zn484 O488 2.086 . S
Zn484 O493 1.977 . S
O485 Zn484 2.032 . S
O485 C489 1.278 . S
C486 O487 1.203 . S
C486 O493 1.267 . S
O487 C486 1.203 . S
O488 C481 1.185 . S
O488 Zn484 2.086 . S
C489 O485 1.278 . S
C489 O490 1.211 . S
O490 C489 1.211 . S
C491 O483 1.284 . S
C491 O492 1.273 . S
O492 C491 1.273 . S
O493 Zn484 1.977 . S
O493 C486 1.267 . S
C494 O495 1.160 . S
C494 O501 1.185 . S
O495 C494 1.160 . S
O496 Zn497 1.899 . S
O496 C504 1.284 . S
Zn497 O496 1.899 . S
Zn497 O498 2.032 . S
Zn497 O501 2.086 . S
Zn497 O506 1.977 . S
O498 Zn497 2.032 . S
O498 C502 1.278 . S
C499 O500 1.203 . S
C499 O506 1.267 . S
O500 C499 1.203 . S
O501 C494 1.185 . S
O501 Zn497 2.086 . S
C502 O498 1.278 . S
C502 O503 1.211 . S
O503 C502 1.211 . S
C504 O496 1.284 . S
C504 O505 1.273 . S
O505 C504 1.273 . S
O506 Zn497 1.977 . S
O506 C499 1.267 . S
C507 O508 1.160 . S
C507 O514 1.185 . S
O508 C507 1.160 . S
O509 Zn510 1.899 . S
O509 C517 1.284 . S
Zn510 O509 1.899 . S
Zn510 O511 2.032 . S
Zn510 O514 2.086 . S
Zn510 O519 1.977 . S
O511 Zn510 2.032 . S
O511 C515 1.278 . S
C512 O513 1.203 . S
C512 O519 1.267 . S
O513 C512 1.203 . S
O514 C507 1.185 . S
O514 Zn510 2.086 . S
C515 O511 1.278 . S
C515 O516 1.211 . S
O516 C515 1.211 . S
C517 O509 1.284 . S
C517 O518 1.273 . S
O518 C517 1.273 . S
O519 Zn510 1.977 . S
O519 C512 1.267 . S
C520 O521 1.160 . S
C520 O527 1.185 . S
O521 C520 1.160 . S
O522 Zn523 1.899 . S
O522 C530 1.284 . S
Zn523 O522 1.899 . S
Zn523 O524 2.032 . S
Zn523 O527 2.086 . S
Zn523 O532 1.977 . S
O524 Zn523 2.032 . S
O524 C528 1.278 . S
C525 O526 1.203 . S
C525 O532 1.267 . S
O526 C525 1.203 . S
O527 C520 1.185 . S
O527 Zn523 2.086 . S
C528 O524 1.278 . S
C528 O529 1.211 . S
O529 C528 1.211 . S
C530 O522 1.284 . S
C530 O531 1.273 . S
O531 C530 1.273 . S
O532 Zn523 1.977 . S
O532 C525 1.267 . S
C533 O534 1.160 . S
C533 O540 1.185 . S
O534 C533 1.160 . S
O535 Zn536 1.899 . S
O535 C543 1.284 . S
Zn536 O535 1.899 . S
Zn536 O537 2.032 . S
Zn536 O540 2.086 . S
Zn536 O545 1.977 . S
O537 Zn536 2.032 . S
O537 C541 1.278 . S
C538 O539 1.203 . S
C538 O545 1.267 . S
O539 C538 1.203 . S
O540 C533 1.185 . S
O540 Zn536 2.086 . S
C541 O537 1.278 . S
C541 O542 1.211 . S
O542 C541 1.211 . S
C543 O535 1.284 . S
C543 O544 1.273 . S
O544 C543 1.273 . S
O545 Zn536 1.977 . S
O545 C538 1.267 . S
C546 O547 1.160 . S
C546 O553 1.185 . S
O547 C546 1.160 . S
O548 Zn549 1.899 . S
O548 C556 1.284 . S
Zn549 O548 1.899 . S
Zn549 O550 2.032 . S
Zn549 O553 2.086 . S
Zn549 O558 1.977 . S
O550 Zn549 2.032 . S
O550 C554 1.278 . S
C551 O552 1.203 . S
C551 O558 1.267 . S
O552 C551 1.203 . S
O553 C546 1.185 . S
O553 Zn549 2.086 . S
C554 O550 1.278 . S
C554 O555 1.211 . S
O555 C554 1.211 . S
C556 O548 1.284 . S
C556 O557 1.273 . S
O557 C556 1.273 . S
O558 Zn549 1.977 . S
O558 C551 1.267 . S
C559 O560 1.160 . S
C559 O566 1.185 . S
O560 C559 1.160 . S
O561 Zn562 1.899 . S
O561 C569 1.284 . S
Zn562 O561 1.899 . S
Zn562 O563 2.032 . S
Zn562 O566 2.086 . S
Zn562 O571 1.977 . S
O563 Zn562 2.032 . S
O563 C567 1.278 . S
C564 O565 1.203 . S
C564 O571 1.267 . S
O565 C564 1.203 . S
O566 C559 1.185 . S
O566 Zn562 2.086 . S
C567 O563 1.278 . S
C567 O568 1.211 . S
O568 C567 1.211 . S
C569 O561 1.284 . S
C569 O570 1.273 . S
O570 C569 1.273 . S
O571 Zn562 1.977 . S
O571 C564 1.267 . S
C572 O573 1.160 . S
C572 O579 1.185 . S
O573 C572 1.160 . S
O574 Zn575 1.899 . S
O574 C582 1.284 . S
Zn575 O574 1.899 . S
Zn575 O576 2.032 . S
Zn575 O579 2.086 . S
Zn575 O584 1.977 . S
O576 Zn575 2.032 . S
O576 C580 1.278 . S
C577 O578 1.203 . S
C577 O584 1.267 . S
O578 C577 1.203 . S
O579 C572 1.185 . S
O579 Zn575 2.086 . S
C580 O576 1.278 . S
C580 O581 1.211 . S
O581 C580 1.211 . S
C582 O574 1.284 . S
C582 O583 1.273 . S
O583 C582 1.273 . S
O584 Zn575 1.977 . S
O584 C577 1.267 . S
C585 O586 1.160 . S
C585 O592 1.185 . S
O586 C585 1.160 . S
O587 Zn588 1.899 . S
O587 C595 1.284 . S
Zn588 O587 1.899 . S
Zn588 O589 2.032 . S
Zn588 O592 2.086 . S
Zn588 O597 1.977 . S
O589 Zn588 2.032 . S
O589 C593 1.278 . S
C590 O591 1.203 . S
C590 O597 1.267 . S
O591 C590 1.203 . S
O592 C585 1.185 . S
O592 Zn588 2.086 . S
C593 O589 1.278 . S
C593 O594 1.211 . S
O594 C593 1.211 . S
C595 O587 1.284 . S
C595 O596 1.273 . S
O596 C595 1.273 . S
O597 Zn588 1.977 . S
O597 C590 1.267 . S
C598 O599 1.160 . S
C598 O605 1.185 . S
O599 C598 1.160 . S
O600 Zn601 1.899 . S
O600 C608 1.284 . S
Zn601 O600 1.899 . S
Zn601 O602 2.032 . S
Zn601 O605 2.086 . S
Zn601 O610 1.977 . S
O602 Zn601 2.032 . S
O602 C606 1.278 . S
C603 O604 1.203 . S
C603 O610 1.267 . S
O604 C603 1.203 . S
O605 C598 1.185 . S
O605 Zn601 2.086 . S
C606 O602 1.278 . S
C606 O607 1.211 . S
O607 C606 1.211 . S
C608 O600 1.284 . S
C608 O609 1.273 . S
O609 C608 1.273 . S
O610 Zn601 1.977 . S
O610 C603 1.267 . S
C611 O612 1.160 . S
C611 O618 1.185 . S
O612 C611 1.160 . S
O613 Zn614 1.899 . S
O613 C621 1.284 . S
Zn614 O613 1.899 . S
Zn614 O615 2.032 . S
Zn614 O618 2.086 . S
Zn614 O623 1.977 . S
O615 Zn614 2.032 . S
O615 C619 1.278 . S
C616 O617 1.203 . S
C616 O623 1.267 . S
O617 C616 1.203 . S
O618 C611 1.185 . S
O618 Zn614 2.086 . S
C619 O615 1.278 . S
C619 O620 1.211 . S
O620 C619 1.211 . S
C621 O613 1.284 . S
C621 O622 1.273 . S
O622 C621 1.273 . S
O623 Zn614 1.977 . S
O623 C616 1.267 . S
H624 C636 0.930 . S
H625 C638 0.930 . S
H626 C639 0.930 . S
H627 C643 0.962 . S
H628 C643 0.978 . S
H629 C643 0.940 1_655 S
H630 C644 0.959 1_655 S
H631 C644 0.962 . S
H632 C644 0.959 . S
H633 C647 0.929 . S
H634 C648 0.931 . S
H635 C650 0.930 . S
C636 H624 0.930 . S
C636 C637 1.399 . S
C636 C641 1.399 . S
C637 C636 1.399 . S
C637 C638 1.376 . S
C638 H625 0.930 . S
C638 C637 1.376 . S
C638 C639 1.388 . S
C639 H626 0.930 . S
C639 C638 1.388 . S
C639 C640 1.390 . S
C640 C639 1.390 . S
C640 C641 1.394 . S
C640 C646 1.465 1_655 S
C641 C636 1.399 . S
C641 C640 1.394 . S
C641 C642 1.518 1_655 S
C642 C641 1.518 1_455 S
C642 C643 1.502 . S
C642 C644 1.561 . S
C642 C645 1.524 . S
C643 H627 0.962 . S
C643 H628 0.978 . S
C643 H629 0.940 1_455 S
C643 C642 1.502 . S
C644 H630 0.959 1_455 S
C644 H631 0.962 . S
C644 H632 0.959 . S
C644 C642 1.561 . S
C645 C642 1.524 . S
C645 C646 1.396 . S
C645 C650 1.390 . S
C646 C640 1.465 1_455 S
C646 C645 1.396 . S
C646 C647 1.399 . S
C647 H633 0.929 . S
C647 C646 1.399 . S
C647 C648 1.385 . S
C648 H634 0.931 . S
C648 C647 1.385 . S
C648 C649 1.389 . S
C649 C648 1.389 . S
C649 C650 1.387 . S
C650 H635 0.930 . S
C650 C645 1.390 . S
C650 C649 1.387 . S
H651 C663 0.930 . S
H652 C665 0.930 . S
H653 C666 0.930 . S
H654 C670 0.959 . S
H655 C670 0.959 . S
H656 C670 0.961 . S
H657 C671 0.960 . S
H658 C671 0.961 . S
H659 C671 0.959 . S
H660 C674 0.929 . S
H661 C675 0.931 . S
H662 C677 0.930 . S
C663 H651 0.930 . S
C663 C664 1.399 . S
C663 C668 1.399 . S
C664 C663 1.399 . S
C664 C665 1.376 . S
C665 H652 0.930 . S
C665 C664 1.376 . S
C665 C666 1.388 . S
C666 H653 0.930 . S
C666 C665 1.388 . S
C666 C667 1.390 . S
C667 C666 1.390 . S
C667 C668 1.394 . S
C667 C673 1.465 . S
C668 C663 1.399 . S
C668 C667 1.394 . S
C668 C669 1.516 . S
C669 C668 1.516 . S
C669 C670 1.502 . S
C669 C671 1.561 . S
C669 C672 1.526 . S
C670 H654 0.959 . S
C670 H655 0.959 . S
C670 H656 0.961 . S
C670 C669 1.502 . S
C671 H657 0.960 . S
C671 H658 0.961 . S
C671 H659 0.959 . S
C671 C669 1.561 . S
C672 C669 1.526 . S
C672 C673 1.396 . S
C672 C677 1.390 . S
C673 C667 1.465 . S
C673 C672 1.396 . S
C673 C674 1.399 . S
C674 H660 0.929 . S
C674 C673 1.399 . S
C674 C675 1.385 . S
C675 H661 0.931 . S
C675 C674 1.385 . S
C675 C676 1.389 . S
C676 C675 1.389 . S
C676 C677 1.387 . S
C677 H662 0.930 . S
C677 C672 1.390 . S
C677 C676 1.387 . S
H678 C690 0.930 . S
H679 C692 0.930 . S
H680 C693 0.930 . S
H681 C697 0.962 . S
H682 C697 0.978 . S
H683 C697 0.940 1_455 S
H684 C698 0.959 1_455 S
H685 C698 0.962 . S
H686 C698 0.959 . S
H687 C701 0.929 . S
H688 C702 0.931 . S
H689 C704 0.930 . S
C690 H678 0.930 . S
C690 C691 1.399 . S
C690 C695 1.399 . S
C691 C690 1.399 . S
C691 C692 1.376 . S
C692 H679 0.930 . S
C692 C691 1.376 . S
C692 C693 1.388 . S
C693 H680 0.930 . S
C693 C692 1.388 . S
C693 C694 1.390 . S
C694 C693 1.390 . S
C694 C695 1.394 . S
C694 C700 1.465 1_455 S
C695 C690 1.399 . S
C695 C694 1.394 . S
C695 C696 1.518 1_455 S
C696 C695 1.518 1_655 S
C696 C697 1.502 . S
C696 C698 1.561 . S
C696 C699 1.524 . S
C697 H681 0.962 . S
C697 H682 0.978 . S
C697 H683 0.940 1_655 S
C697 C696 1.502 . S
C698 H684 0.959 1_655 S
C698 H685 0.962 . S
C698 H686 0.959 . S
C698 C696 1.561 . S
C699 C696 1.524 . S
C699 C700 1.396 . S
C699 C704 1.390 . S
C700 C694 1.465 1_655 S
C700 C699 1.396 . S
C700 C701 1.399 . S
C701 H687 0.929 . S
C701 C700 1.399 . S
C701 C702 1.385 . S
C702 H688 0.931 . S
C702 C701 1.385 . S
C702 C703 1.389 . S
C703 C702 1.389 . S
C703 C704 1.387 . S
C704 H689 0.930 . S
C704 C699 1.390 . S
C704 C703 1.387 . S
H705 C717 0.930 . S
H706 C719 0.930 . S
H707 C720 0.930 . S
H708 C724 0.959 . S
H709 C724 0.959 . S
H710 C724 0.961 . S
H711 C725 0.960 . S
H712 C725 0.961 . S
H713 C725 0.959 . S
H714 C728 0.929 . S
H715 C729 0.931 . S
H716 C731 0.930 . S
C717 H705 0.930 . S
C717 C718 1.399 . S
C717 C722 1.399 . S
C718 C717 1.399 . S
C718 C719 1.376 . S
C719 H706 0.930 . S
C719 C718 1.376 . S
C719 C720 1.388 . S
C720 H707 0.930 . S
C720 C719 1.388 . S
C720 C721 1.390 . S
C721 C720 1.390 . S
C721 C722 1.394 . S
C721 C727 1.465 . S
C722 C717 1.399 . S
C722 C721 1.394 . S
C722 C723 1.516 . S
C723 C722 1.516 . S
C723 C724 1.502 . S
C723 C725 1.561 . S
C723 C726 1.526 . S
C724 H708 0.959 . S
C724 H709 0.959 . S
C724 H710 0.961 . S
C724 C723 1.502 . S
C725 H711 0.960 . S
C725 H712 0.961 . S
C725 H713 0.959 . S
C725 C723 1.561 . S
C726 C723 1.526 . S
C726 C727 1.396 . S
C726 C731 1.390 . S
C727 C721 1.465 . S
C727 C726 1.396 . S
C727 C728 1.399 . S
C728 H714 0.929 . S
C728 C727 1.399 . S
C728 C729 1.385 . S
C729 H715 0.931 . S
C729 C728 1.385 . S
C729 C730 1.389 . S
C730 C729 1.389 . S
C730 C731 1.387 . S
C731 H716 0.930 . S
C731 C726 1.390 . S
C731 C730 1.387 . S
H732 C744 0.930 . S
H733 C746 0.930 . S
H734 C747 0.930 . S
H735 C751 0.962 . S
H736 C751 0.978 . S
H737 C751 0.940 1_655 S
H738 C752 0.959 1_655 S
H739 C752 0.962 . S
H740 C752 0.959 . S
H741 C755 0.929 . S
H742 C756 0.931 . S
H743 C758 0.930 . S
C744 H732 0.930 . S
C744 C745 1.399 . S
C744 C749 1.399 . S
C745 C744 1.399 . S
C745 C746 1.376 . S
C746 H733 0.930 . S
C746 C745 1.376 . S
C746 C747 1.388 . S
C747 H734 0.930 . S
C747 C746 1.388 . S
C747 C748 1.390 . S
C748 C747 1.390 . S
C748 C749 1.394 . S
C748 C754 1.465 1_655 S
C749 C744 1.399 . S
C749 C748 1.394 . S
C749 C750 1.518 1_655 S
C750 C749 1.518 1_455 S
C750 C751 1.502 . S
C750 C752 1.561 . S
C750 C753 1.524 . S
C751 H735 0.962 . S
C751 H736 0.978 . S
C751 H737 0.940 1_455 S
C751 C750 1.502 . S
C752 H738 0.959 1_455 S
C752 H739 0.962 . S
C752 H740 0.959 . S
C752 C750 1.561 . S
C753 C750 1.524 . S
C753 C754 1.396 . S
C753 C758 1.390 . S
C754 C748 1.465 1_455 S
C754 C753 1.396 . S
C754 C755 1.399 . S
C755 H741 0.929 . S
C755 C754 1.399 . S
C755 C756 1.385 . S
C756 H742 0.931 . S
C756 C755 1.385 . S
C756 C757 1.389 . S
C757 C756 1.389 . S
C757 C758 1.387 . S
C758 H743 0.930 . S
C758 C753 1.390 . S
C758 C757 1.387 . S
H759 C771 0.930 . S
H760 C773 0.930 . S
H761 C774 0.930 . S
H762 C778 0.959 . S
H763 C778 0.959 . S
H764 C778 0.961 . S
H765 C779 0.960 . S
H766 C779 0.961 . S
H767 C779 0.959 . S
H768 C782 0.929 . S
H769 C783 0.931 . S
H770 C785 0.930 . S
C771 H759 0.930 . S
C771 C772 1.399 . S
C771 C776 1.399 . S
C772 C771 1.399 . S
C772 C773 1.376 . S
C773 H760 0.930 . S
C773 C772 1.376 . S
C773 C774 1.388 . S
C774 H761 0.930 . S
C774 C773 1.388 . S
C774 C775 1.390 . S
C775 C774 1.390 . S
C775 C776 1.394 . S
C775 C781 1.465 . S
C776 C771 1.399 . S
C776 C775 1.394 . S
C776 C777 1.516 . S
C777 C776 1.516 . S
C777 C778 1.502 . S
C777 C779 1.561 . S
C777 C780 1.526 . S
C778 H762 0.959 . S
C778 H763 0.959 . S
C778 H764 0.961 . S
C778 C777 1.502 . S
C779 H765 0.960 . S
C779 H766 0.961 . S
C779 H767 0.959 . S
C779 C777 1.561 . S
C780 C777 1.526 . S
C780 C781 1.396 . S
C780 C785 1.390 . S
C781 C775 1.465 . S
C781 C780 1.396 . S
C781 C782 1.399 . S
C782 H768 0.929 . S
C782 C781 1.399 . S
C782 C783 1.385 . S
C783 H769 0.931 . S
C783 C782 1.385 . S
C783 C784 1.389 . S
C784 C783 1.389 . S
C784 C785 1.387 . S
C785 H770 0.930 . S
C785 C780 1.390 . S
C785 C784 1.387 . S
H786 C798 0.930 . S
H787 C800 0.930 . S
H788 C801 0.930 . S
H789 C805 0.962 . S
H790 C805 0.978 . S
H791 C805 0.940 1_455 S
H792 C806 0.959 1_455 S
H793 C806 0.962 . S
H794 C806 0.959 . S
H795 C809 0.929 . S
H796 C810 0.931 . S
H797 C812 0.930 . S
C798 H786 0.930 . S
C798 C799 1.399 . S
C798 C803 1.399 . S
C799 C798 1.399 . S
C799 C800 1.376 . S
C800 H787 0.930 . S
C800 C799 1.376 . S
C800 C801 1.388 . S
C801 H788 0.930 . S
C801 C800 1.388 . S
C801 C802 1.390 . S
C802 C801 1.390 . S
C802 C803 1.394 . S
C802 C808 1.465 1_455 S
C803 C798 1.399 . S
C803 C802 1.394 . S
C803 C804 1.518 1_455 S
C804 C803 1.518 1_655 S
C804 C805 1.502 . S
C804 C806 1.561 . S
C804 C807 1.524 . S
C805 H789 0.962 . S
C805 H790 0.978 . S
C805 H791 0.940 1_655 S
C805 C804 1.502 . S
C806 H792 0.959 1_655 S
C806 H793 0.962 . S
C806 H794 0.959 . S
C806 C804 1.561 . S
C807 C804 1.524 . S
C807 C808 1.396 . S
C807 C812 1.390 . S
C808 C802 1.465 1_655 S
C808 C807 1.396 . S
C808 C809 1.399 . S
C809 H795 0.929 . S
C809 C808 1.399 . S
C809 C810 1.385 . S
C810 H796 0.931 . S
C810 C809 1.385 . S
C810 C811 1.389 . S
C811 C810 1.389 . S
C811 C812 1.387 . S
C812 H797 0.930 . S
C812 C807 1.390 . S
C812 C811 1.387 . S
H813 C825 0.930 . S
H814 C827 0.930 . S
H815 C828 0.930 . S
H816 C832 0.959 . S
H817 C832 0.959 . S
H818 C832 0.961 . S
H819 C833 0.960 . S
H820 C833 0.961 . S
H821 C833 0.959 . S
H822 C836 0.929 . S
H823 C837 0.931 . S
H824 C839 0.930 . S
C825 H813 0.930 . S
C825 C826 1.399 . S
C825 C830 1.399 . S
C826 C825 1.399 . S
C826 C827 1.376 . S
C827 H814 0.930 . S
C827 C826 1.376 . S
C827 C828 1.388 . S
C828 H815 0.930 . S
C828 C827 1.388 . S
C828 C829 1.390 . S
C829 C828 1.390 . S
C829 C830 1.394 . S
C829 C835 1.465 . S
C830 C825 1.399 . S
C830 C829 1.394 . S
C830 C831 1.516 . S
C831 C830 1.516 . S
C831 C832 1.502 . S
C831 C833 1.561 . S
C831 C834 1.526 . S
C832 H816 0.959 . S
C832 H817 0.959 . S
C832 H818 0.961 . S
C832 C831 1.502 . S
C833 H819 0.960 . S
C833 H820 0.961 . S
C833 H821 0.959 . S
C833 C831 1.561 . S
C834 C831 1.526 . S
C834 C835 1.396 . S
C834 C839 1.390 . S
C835 C829 1.465 . S
C835 C834 1.396 . S
C835 C836 1.399 . S
C836 H822 0.929 . S
C836 C835 1.399 . S
C836 C837 1.385 . S
C837 H823 0.931 . S
C837 C836 1.385 . S
C837 C838 1.389 . S
C838 C837 1.389 . S
C838 C839 1.387 . S
C839 H824 0.930 . S
C839 C834 1.390 . S
C839 C838 1.387 . S
H840 C852 0.930 . S
H841 C854 0.930 . S
H842 C855 0.930 . S
H843 C859 0.962 . S
H844 C859 0.978 . S
H845 C859 0.940 1_565 S
H846 C860 0.959 1_565 S
H847 C860 0.962 . S
H848 C860 0.959 . S
H849 C863 0.929 . S
H850 C864 0.931 . S
H851 C866 0.930 . S
C852 H840 0.930 . S
C852 C853 1.399 . S
C852 C857 1.399 . S
C853 C852 1.399 . S
C853 C854 1.376 . S
C854 H841 0.930 . S
C854 C853 1.376 . S
C854 C855 1.388 . S
C855 H842 0.930 . S
C855 C854 1.388 . S
C855 C856 1.390 . S
C856 C855 1.390 . S
C856 C857 1.394 . S
C856 C862 1.465 1_565 S
C857 C852 1.399 . S
C857 C856 1.394 . S
C857 C858 1.518 1_565 S
C858 C857 1.518 1_545 S
C858 C859 1.502 . S
C858 C860 1.561 . S
C858 C861 1.524 . S
C859 H843 0.962 . S
C859 H844 0.978 . S
C859 H845 0.940 1_545 S
C859 C858 1.502 . S
C860 H846 0.959 1_545 S
C860 H847 0.962 . S
C860 H848 0.959 . S
C860 C858 1.561 . S
C861 C858 1.524 . S
C861 C862 1.396 . S
C861 C866 1.390 . S
C862 C856 1.465 1_545 S
C862 C861 1.396 . S
C862 C863 1.399 . S
C863 H849 0.929 . S
C863 C862 1.399 . S
C863 C864 1.385 . S
C864 H850 0.931 . S
C864 C863 1.385 . S
C864 C865 1.389 . S
C865 C864 1.389 . S
C865 C866 1.387 . S
C866 H851 0.930 . S
C866 C861 1.390 . S
C866 C865 1.387 . S
H867 C879 0.930 . S
H868 C881 0.930 . S
H869 C882 0.930 . S
H870 C886 0.959 . S
H871 C886 0.959 . S
H872 C886 0.961 . S
H873 C887 0.960 . S
H874 C887 0.961 . S
H875 C887 0.959 . S
H876 C890 0.929 . S
H877 C891 0.931 . S
H878 C893 0.930 . S
C879 H867 0.930 . S
C879 C880 1.399 . S
C879 C884 1.399 . S
C880 C879 1.399 . S
C880 C881 1.376 . S
C881 H868 0.930 . S
C881 C880 1.376 . S
C881 C882 1.388 . S
C882 H869 0.930 . S
C882 C881 1.388 . S
C882 C883 1.390 . S
C883 C882 1.390 . S
C883 C884 1.394 . S
C883 C889 1.465 . S
C884 C879 1.399 . S
C884 C883 1.394 . S
C884 C885 1.516 . S
C885 C884 1.516 . S
C885 C886 1.502 . S
C885 C887 1.561 . S
C885 C888 1.526 . S
C886 H870 0.959 . S
C886 H871 0.959 . S
C886 H872 0.961 . S
C886 C885 1.502 . S
C887 H873 0.960 . S
C887 H874 0.961 . S
C887 H875 0.959 . S
C887 C885 1.561 . S
C888 C885 1.526 . S
C888 C889 1.396 . S
C888 C893 1.390 . S
C889 C883 1.465 . S
C889 C888 1.396 . S
C889 C890 1.399 . S
C890 H876 0.929 . S
C890 C889 1.399 . S
C890 C891 1.385 . S
C891 H877 0.931 . S
C891 C890 1.385 . S
C891 C892 1.389 . S
C892 C891 1.389 . S
C892 C893 1.387 . S
C893 H878 0.930 . S
C893 C888 1.390 . S
C893 C892 1.387 . S
H894 C906 0.930 . S
H895 C908 0.930 . S
H896 C909 0.930 . S
H897 C913 0.962 . S
H898 C913 0.978 . S
H899 C913 0.940 1_545 S
H900 C914 0.959 1_545 S
H901 C914 0.962 . S
H902 C914 0.959 . S
H903 C917 0.929 . S
H904 C918 0.931 . S
H905 C920 0.930 . S
C906 H894 0.930 . S
C906 C907 1.399 . S
C906 C911 1.399 . S
C907 C906 1.399 . S
C907 C908 1.376 . S
C908 H895 0.930 . S
C908 C907 1.376 . S
C908 C909 1.388 . S
C909 H896 0.930 . S
C909 C908 1.388 . S
C909 C910 1.390 . S
C910 C909 1.390 . S
C910 C911 1.394 . S
C910 C916 1.465 1_545 S
C911 C906 1.399 . S
C911 C910 1.394 . S
C911 C912 1.518 1_545 S
C912 C911 1.518 1_565 S
C912 C913 1.502 . S
C912 C914 1.561 . S
C912 C915 1.524 . S
C913 H897 0.962 . S
C913 H898 0.978 . S
C913 H899 0.940 1_565 S
C913 C912 1.502 . S
C914 H900 0.959 1_565 S
C914 H901 0.962 . S
C914 H902 0.959 . S
C914 C912 1.561 . S
C915 C912 1.524 . S
C915 C916 1.396 . S
C915 C920 1.390 . S
C916 C910 1.465 1_565 S
C916 C915 1.396 . S
C916 C917 1.399 . S
C917 H903 0.929 . S
C917 C916 1.399 . S
C917 C918 1.385 . S
C918 H904 0.931 . S
C918 C917 1.385 . S
C918 C919 1.389 . S
C919 C918 1.389 . S
C919 C920 1.387 . S
C920 H905 0.930 . S
C920 C915 1.390 . S
C920 C919 1.387 . S
H921 C933 0.930 . S
H922 C935 0.930 . S
H923 C936 0.930 . S
H924 C940 0.959 . S
H925 C940 0.959 . S
H926 C940 0.961 . S
H927 C941 0.960 . S
H928 C941 0.961 . S
H929 C941 0.959 . S
H930 C944 0.929 . S
H931 C945 0.931 . S
H932 C947 0.930 . S
C933 H921 0.930 . S
C933 C934 1.399 . S
C933 C938 1.399 . S
C934 C933 1.399 . S
C934 C935 1.376 . S
C935 H922 0.930 . S
C935 C934 1.376 . S
C935 C936 1.388 . S
C936 H923 0.930 . S
C936 C935 1.388 . S
C936 C937 1.390 . S
C937 C936 1.390 . S
C937 C938 1.394 . S
C937 C943 1.465 . S
C938 C933 1.399 . S
C938 C937 1.394 . S
C938 C939 1.516 . S
C939 C938 1.516 . S
C939 C940 1.502 . S
C939 C941 1.561 . S
C939 C942 1.526 . S
C940 H924 0.959 . S
C940 H925 0.959 . S
C940 H926 0.961 . S
C940 C939 1.502 . S
C941 H927 0.960 . S
C941 H928 0.961 . S
C941 H929 0.959 . S
C941 C939 1.561 . S
C942 C939 1.526 . S
C942 C943 1.396 . S
C942 C947 1.390 . S
C943 C937 1.465 . S
C943 C942 1.396 . S
C943 C944 1.399 . S
C944 H930 0.929 . S
C944 C943 1.399 . S
C944 C945 1.385 . S
C945 H931 0.931 . S
C945 C944 1.385 . S
C945 C946 1.389 . S
C946 C945 1.389 . S
C946 C947 1.387 . S
C947 H932 0.930 . S
C947 C942 1.390 . S
C947 C946 1.387 . S
H948 C960 0.930 . S
H949 C962 0.930 . S
H950 C963 0.930 . S
H951 C967 0.962 . S
H952 C967 0.978 . S
H953 C967 0.940 1_545 S
H954 C968 0.959 1_545 S
H955 C968 0.962 . S
H956 C968 0.959 . S
H957 C971 0.929 . S
H958 C972 0.931 . S
H959 C974 0.930 . S
C960 H948 0.930 . S
C960 C961 1.399 . S
C960 C965 1.399 . S
C961 C960 1.399 . S
C961 C962 1.376 . S
C962 H949 0.930 . S
C962 C961 1.376 . S
C962 C963 1.388 . S
C963 H950 0.930 . S
C963 C962 1.388 . S
C963 C964 1.390 . S
C964 C963 1.390 . S
C964 C965 1.394 . S
C964 C970 1.465 1_545 S
C965 C960 1.399 . S
C965 C964 1.394 . S
C965 C966 1.518 1_545 S
C966 C965 1.518 1_565 S
C966 C967 1.502 . S
C966 C968 1.561 . S
C966 C969 1.524 . S
C967 H951 0.962 . S
C967 H952 0.978 . S
C967 H953 0.940 1_565 S
C967 C966 1.502 . S
C968 H954 0.959 1_565 S
C968 H955 0.962 . S
C968 H956 0.959 . S
C968 C966 1.561 . S
C969 C966 1.524 . S
C969 C970 1.396 . S
C969 C974 1.390 . S
C970 C964 1.465 1_565 S
C970 C969 1.396 . S
C970 C971 1.399 . S
C971 H957 0.929 . S
C971 C970 1.399 . S
C971 C972 1.385 . S
C972 H958 0.931 . S
C972 C971 1.385 . S
C972 C973 1.389 . S
C973 C972 1.389 . S
C973 C974 1.387 . S
C974 H959 0.930 . S
C974 C969 1.390 . S
C974 C973 1.387 . S
H975 C987 0.930 . S
H976 C989 0.930 . S
H977 C990 0.930 . S
H978 C994 0.959 . S
H979 C994 0.959 . S
H980 C994 0.961 . S
H981 C995 0.960 . S
H982 C995 0.961 . S
H983 C995 0.959 . S
H984 C998 0.929 . S
H985 C999 0.931 . S
H986 C1001 0.930 . S
C987 H975 0.930 . S
C987 C988 1.399 . S
C987 C992 1.399 . S
C988 C987 1.399 . S
C988 C989 1.376 . S
C989 H976 0.930 . S
C989 C988 1.376 . S
C989 C990 1.388 . S
C990 H977 0.930 . S
C990 C989 1.388 . S
C990 C991 1.390 . S
C991 C990 1.390 . S
C991 C992 1.394 . S
C991 C997 1.465 . S
C992 C987 1.399 . S
C992 C991 1.394 . S
C992 C993 1.516 . S
C993 C992 1.516 . S
C993 C994 1.502 . S
C993 C995 1.561 . S
C993 C996 1.526 . S
C994 H978 0.959 . S
C994 H979 0.959 . S
C994 H980 0.961 . S
C994 C993 1.502 . S
C995 H981 0.960 . S
C995 H982 0.961 . S
C995 H983 0.959 . S
C995 C993 1.561 . S
C996 C993 1.526 . S
C996 C997 1.396 . S
C996 C1001 1.390 . S
C997 C991 1.465 . S
C997 C996 1.396 . S
C997 C998 1.399 . S
C998 H984 0.929 . S
C998 C997 1.399 . S
C998 C999 1.385 . S
C999 H985 0.931 . S
C999 C998 1.385 . S
C999 C1000 1.389 . S
C1000 C999 1.389 . S
C1000 C1001 1.387 . S
C1001 H986 0.930 . S
C1001 C996 1.390 . S
C1001 C1000 1.387 . S
H1002 C1014 0.930 . S
H1003 C1016 0.930 . S
H1004 C1017 0.930 . S
H1005 C1021 0.962 . S
H1006 C1021 0.978 . S
H1007 C1021 0.940 1_545 S
H1008 C1022 0.959 1_545 S
H1009 C1022 0.962 . S
H1010 C1022 0.959 . S
H1011 C1025 0.929 . S
H1012 C1026 0.931 . S
H1013 C1028 0.930 . S
C1014 H1002 0.930 . S
C1014 C1015 1.399 . S
C1014 C1019 1.399 . S
C1015 C1014 1.399 . S
C1015 C1016 1.376 . S
C1016 H1003 0.930 . S
C1016 C1015 1.376 . S
C1016 C1017 1.388 . S
C1017 H1004 0.930 . S
C1017 C1016 1.388 . S
C1017 C1018 1.390 . S
C1018 C1017 1.390 . S
C1018 C1019 1.394 . S
C1018 C1024 1.465 1_545 S
C1019 C1014 1.399 . S
C1019 C1018 1.394 . S
C1019 C1020 1.518 1_545 S
C1020 C1019 1.518 1_565 S
C1020 C1021 1.502 . S
C1020 C1022 1.561 . S
C1020 C1023 1.524 . S
C1021 H1005 0.962 . S
C1021 H1006 0.978 . S
C1021 H1007 0.940 1_565 S
C1021 C1020 1.502 . S
C1022 H1008 0.959 1_565 S
C1022 H1009 0.962 . S
C1022 H1010 0.959 . S
C1022 C1020 1.561 . S
C1023 C1020 1.524 . S
C1023 C1024 1.396 . S
C1023 C1028 1.390 . S
C1024 C1018 1.465 1_565 S
C1024 C1023 1.396 . S
C1024 C1025 1.399 . S
C1025 H1011 0.929 . S
C1025 C1024 1.399 . S
C1025 C1026 1.385 . S
C1026 H1012 0.931 . S
C1026 C1025 1.385 . S
C1026 C1027 1.389 . S
C1027 C1026 1.389 . S
C1027 C1028 1.387 . S
C1028 H1013 0.930 . S
C1028 C1023 1.390 . S
C1028 C1027 1.387 . S
H1029 C1041 0.930 . S
H1030 C1043 0.930 . S
H1031 C1044 0.930 . S
H1032 C1048 0.959 . S
H1033 C1048 0.959 . S
H1034 C1048 0.961 . S
H1035 C1049 0.960 . S
H1036 C1049 0.961 . S
H1037 C1049 0.959 . S
H1038 C1052 0.929 . S
H1039 C1053 0.931 . S
H1040 C1055 0.930 . S
C1041 H1029 0.930 . S
C1041 C1042 1.399 . S
C1041 C1046 1.399 . S
C1042 C1041 1.399 . S
C1042 C1043 1.376 . S
C1043 H1030 0.930 . S
C1043 C1042 1.376 . S
C1043 C1044 1.388 . S
C1044 H1031 0.930 . S
C1044 C1043 1.388 . S
C1044 C1045 1.390 . S
C1045 C1044 1.390 . S
C1045 C1046 1.394 . S
C1045 C1051 1.465 . S
C1046 C1041 1.399 . S
C1046 C1045 1.394 . S
C1046 C1047 1.516 . S
C1047 C1046 1.516 . S
C1047 C1048 1.502 . S
C1047 C1049 1.561 . S
C1047 C1050 1.526 . S
C1048 H1032 0.959 . S
C1048 H1033 0.959 . S
C1048 H1034 0.961 . S
C1048 C1047 1.502 . S
C1049 H1035 0.960 . S
C1049 H1036 0.961 . S
C1049 H1037 0.959 . S
C1049 C1047 1.561 . S
C1050 C1047 1.526 . S
C1050 C1051 1.396 . S
C1050 C1055 1.390 . S
C1051 C1045 1.465 . S
C1051 C1050 1.396 . S
C1051 C1052 1.399 . S
C1052 H1038 0.929 . S
C1052 C1051 1.399 . S
C1052 C1053 1.385 . S
C1053 H1039 0.931 . S
C1053 C1052 1.385 . S
C1053 C1054 1.389 . S
C1054 C1053 1.389 . S
C1054 C1055 1.387 . S
C1055 H1040 0.930 . S
C1055 C1050 1.390 . S
C1055 C1054 1.387 . S
H1056 C1068 0.930 . S
H1057 C1070 0.930 . S
H1058 C1071 0.930 . S
H1059 C1075 0.962 . S
H1060 C1075 0.978 . S
H1061 C1075 0.940 1_554 S
H1062 C1076 0.959 1_554 S
H1063 C1076 0.962 . S
H1064 C1076 0.959 . S
H1065 C1079 0.929 . S
H1066 C1080 0.931 . S
H1067 C1082 0.930 . S
C1068 H1056 0.930 . S
C1068 C1069 1.399 . S
C1068 C1073 1.399 . S
C1069 C1068 1.399 . S
C1069 C1070 1.376 . S
C1070 H1057 0.930 . S
C1070 C1069 1.376 . S
C1070 C1071 1.388 . S
C1071 H1058 0.930 . S
C1071 C1070 1.388 . S
C1071 C1072 1.390 . S
C1072 C1071 1.390 . S
C1072 C1073 1.394 . S
C1072 C1078 1.465 1_554 S
C1073 C1068 1.399 . S
C1073 C1072 1.394 . S
C1073 C1074 1.518 1_554 S
C1074 C1073 1.518 1_556 S
C1074 C1075 1.502 . S
C1074 C1076 1.561 . S
C1074 C1077 1.524 . S
C1075 H1059 0.962 . S
C1075 H1060 0.978 . S
C1075 H1061 0.940 1_556 S
C1075 C1074 1.502 . S
C1076 H1062 0.959 1_556 S
C1076 H1063 0.962 . S
C1076 H1064 0.959 . S
C1076 C1074 1.561 . S
C1077 C1074 1.524 . S
C1077 C1078 1.396 . S
C1077 C1082 1.390 . S
C1078 C1072 1.465 1_556 S
C1078 C1077 1.396 . S
C1078 C1079 1.399 . S
C1079 H1065 0.929 . S
C1079 C1078 1.399 . S
C1079 C1080 1.385 . S
C1080 H1066 0.931 . S
C1080 C1079 1.385 . S
C1080 C1081 1.389 . S
C1081 C1080 1.389 . S
C1081 C1082 1.387 . S
C1082 H1067 0.930 . S
C1082 C1077 1.390 . S
C1082 C1081 1.387 . S
H1083 C1095 0.930 . S
H1084 C1097 0.930 . S
H1085 C1098 0.930 . S
H1086 C1102 0.962 . S
H1087 C1102 0.978 . S
H1088 C1102 0.940 1_554 S
H1089 C1103 0.959 1_554 S
H1090 C1103 0.962 . S
H1091 C1103 0.959 . S
H1092 C1106 0.929 . S
H1093 C1107 0.931 . S
H1094 C1109 0.930 . S
C1095 H1083 0.930 . S
C1095 C1096 1.399 . S
C1095 C1100 1.399 . S
C1096 C1095 1.399 . S
C1096 C1097 1.376 . S
C1097 H1084 0.930 . S
C1097 C1096 1.376 . S
C1097 C1098 1.388 . S
C1098 H1085 0.930 . S
C1098 C1097 1.388 . S
C1098 C1099 1.390 . S
C1099 C1098 1.390 . S
C1099 C1100 1.394 . S
C1099 C1105 1.465 1_554 S
C1100 C1095 1.399 . S
C1100 C1099 1.394 . S
C1100 C1101 1.518 1_554 S
C1101 C1100 1.518 1_556 S
C1101 C1102 1.502 . S
C1101 C1103 1.561 . S
C1101 C1104 1.524 . S
C1102 H1086 0.962 . S
C1102 H1087 0.978 . S
C1102 H1088 0.940 1_556 S
C1102 C1101 1.502 . S
C1103 H1089 0.959 1_556 S
C1103 H1090 0.962 . S
C1103 H1091 0.959 . S
C1103 C1101 1.561 . S
C1104 C1101 1.524 . S
C1104 C1105 1.396 . S
C1104 C1109 1.390 . S
C1105 C1099 1.465 1_556 S
C1105 C1104 1.396 . S
C1105 C1106 1.399 . S
C1106 H1092 0.929 . S
C1106 C1105 1.399 . S
C1106 C1107 1.385 . S
C1107 H1093 0.931 . S
C1107 C1106 1.385 . S
C1107 C1108 1.389 . S
C1108 C1107 1.389 . S
C1108 C1109 1.387 . S
C1109 H1094 0.930 . S
C1109 C1104 1.390 . S
C1109 C1108 1.387 . S
H1110 C1122 0.930 . S
H1111 C1124 0.930 . S
H1112 C1125 0.930 . S
H1113 C1129 0.959 . S
H1114 C1129 0.959 . S
H1115 C1129 0.961 . S
H1116 C1130 0.960 . S
H1117 C1130 0.961 . S
H1118 C1130 0.959 . S
H1119 C1133 0.929 . S
H1120 C1134 0.931 . S
H1121 C1136 0.930 . S
C1122 H1110 0.930 . S
C1122 C1123 1.399 . S
C1122 C1127 1.399 . S
C1123 C1122 1.399 . S
C1123 C1124 1.376 . S
C1124 H1111 0.930 . S
C1124 C1123 1.376 . S
C1124 C1125 1.388 . S
C1125 H1112 0.930 . S
C1125 C1124 1.388 . S
C1125 C1126 1.390 . S
C1126 C1125 1.390 . S
C1126 C1127 1.394 . S
C1126 C1132 1.465 . S
C1127 C1122 1.399 . S
C1127 C1126 1.394 . S
C1127 C1128 1.516 . S
C1128 C1127 1.516 . S
C1128 C1129 1.502 . S
C1128 C1130 1.561 . S
C1128 C1131 1.526 . S
C1129 H1113 0.959 . S
C1129 H1114 0.959 . S
C1129 H1115 0.961 . S
C1129 C1128 1.502 . S
C1130 H1116 0.960 . S
C1130 H1117 0.961 . S
C1130 H1118 0.959 . S
C1130 C1128 1.561 . S
C1131 C1128 1.526 . S
C1131 C1132 1.396 . S
C1131 C1136 1.390 . S
C1132 C1126 1.465 . S
C1132 C1131 1.396 . S
C1132 C1133 1.399 . S
C1133 H1119 0.929 . S
C1133 C1132 1.399 . S
C1133 C1134 1.385 . S
C1134 H1120 0.931 . S
C1134 C1133 1.385 . S
C1134 C1135 1.389 . S
C1135 C1134 1.389 . S
C1135 C1136 1.387 . S
C1136 H1121 0.930 . S
C1136 C1131 1.390 . S
C1136 C1135 1.387 . S
H1137 C1149 0.930 . S
H1138 C1151 0.930 . S
H1139 C1152 0.930 . S
H1140 C1156 0.962 . S
H1141 C1156 0.978 . S
H1142 C1156 0.940 1_554 S
H1143 C1157 0.959 1_554 S
H1144 C1157 0.962 . S
H1145 C1157 0.959 . S
H1146 C1160 0.929 . S
H1147 C1161 0.931 . S
H1148 C1163 0.930 . S
C1149 H1137 0.930 . S
C1149 C1150 1.399 . S
C1149 C1154 1.399 . S
C1150 C1149 1.399 . S
C1150 C1151 1.376 . S
C1151 H1138 0.930 . S
C1151 C1150 1.376 . S
C1151 C1152 1.388 . S
C1152 H1139 0.930 . S
C1152 C1151 1.388 . S
C1152 C1153 1.390 . S
C1153 C1152 1.390 . S
C1153 C1154 1.394 . S
C1153 C1159 1.465 1_554 S
C1154 C1149 1.399 . S
C1154 C1153 1.394 . S
C1154 C1155 1.518 1_554 S
C1155 C1154 1.518 1_556 S
C1155 C1156 1.502 . S
C1155 C1157 1.561 . S
C1155 C1158 1.524 . S
C1156 H1140 0.962 . S
C1156 H1141 0.978 . S
C1156 H1142 0.940 1_556 S
C1156 C1155 1.502 . S
C1157 H1143 0.959 1_556 S
C1157 H1144 0.962 . S
C1157 H1145 0.959 . S
C1157 C1155 1.561 . S
C1158 C1155 1.524 . S
C1158 C1159 1.396 . S
C1158 C1163 1.390 . S
C1159 C1153 1.465 1_556 S
C1159 C1158 1.396 . S
C1159 C1160 1.399 . S
C1160 H1146 0.929 . S
C1160 C1159 1.399 . S
C1160 C1161 1.385 . S
C1161 H1147 0.931 . S
C1161 C1160 1.385 . S
C1161 C1162 1.389 . S
C1162 C1161 1.389 . S
C1162 C1163 1.387 . S
C1163 H1148 0.930 . S
C1163 C1158 1.390 . S
C1163 C1162 1.387 . S
H1164 C1176 0.930 . S
H1165 C1178 0.930 . S
H1166 C1179 0.930 . S
H1167 C1183 0.959 . S
H1168 C1183 0.959 . S
H1169 C1183 0.961 . S
H1170 C1184 0.960 . S
H1171 C1184 0.961 . S
H1172 C1184 0.959 . S
H1173 C1187 0.929 . S
H1174 C1188 0.931 . S
H1175 C1190 0.930 . S
C1176 H1164 0.930 . S
C1176 C1177 1.399 . S
C1176 C1181 1.399 . S
C1177 C1176 1.399 . S
C1177 C1178 1.376 . S
C1178 H1165 0.930 . S
C1178 C1177 1.376 . S
C1178 C1179 1.388 . S
C1179 H1166 0.930 . S
C1179 C1178 1.388 . S
C1179 C1180 1.390 . S
C1180 C1179 1.390 . S
C1180 C1181 1.394 . S
C1180 C1186 1.465 . S
C1181 C1176 1.399 . S
C1181 C1180 1.394 . S
C1181 C1182 1.516 . S
C1182 C1181 1.516 . S
C1182 C1183 1.502 . S
C1182 C1184 1.561 . S
C1182 C1185 1.526 . S
C1183 H1167 0.959 . S
C1183 H1168 0.959 . S
C1183 H1169 0.961 . S
C1183 C1182 1.502 . S
C1184 H1170 0.960 . S
C1184 H1171 0.961 . S
C1184 H1172 0.959 . S
C1184 C1182 1.561 . S
C1185 C1182 1.526 . S
C1185 C1186 1.396 . S
C1185 C1190 1.390 . S
C1186 C1180 1.465 . S
C1186 C1185 1.396 . S
C1186 C1187 1.399 . S
C1187 H1173 0.929 . S
C1187 C1186 1.399 . S
C1187 C1188 1.385 . S
C1188 H1174 0.931 . S
C1188 C1187 1.385 . S
C1188 C1189 1.389 . S
C1189 C1188 1.389 . S
C1189 C1190 1.387 . S
C1190 H1175 0.930 . S
C1190 C1185 1.390 . S
C1190 C1189 1.387 . S
H1191 C1203 0.930 . S
H1192 C1205 0.930 . S
H1193 C1206 0.930 . S
H1194 C1210 0.962 . S
H1195 C1210 0.978 . S
H1196 C1210 0.940 1_554 S
H1197 C1211 0.959 1_554 S
H1198 C1211 0.962 . S
H1199 C1211 0.959 . S
H1200 C1214 0.929 . S
H1201 C1215 0.931 . S
H1202 C1217 0.930 . S
C1203 H1191 0.930 . S
C1203 C1204 1.399 . S
C1203 C1208 1.399 . S
C1204 C1203 1.399 . S
C1204 C1205 1.376 . S
C1205 H1192 0.930 . S
C1205 C1204 1.376 . S
C1205 C1206 1.388 . S
C1206 H1193 0.930 . S
C1206 C1205 1.388 . S
C1206 C1207 1.390 . S
C1207 C1206 1.390 . S
C1207 C1208 1.394 . S
C1207 C1213 1.465 1_554 S
C1208 C1203 1.399 . S
C1208 C1207 1.394 . S
C1208 C1209 1.518 1_554 S
C1209 C1208 1.518 1_556 S
C1209 C1210 1.502 . S
C1209 C1211 1.561 . S
C1209 C1212 1.524 . S
C1210 H1194 0.962 . S
C1210 H1195 0.978 . S
C1210 H1196 0.940 1_556 S
C1210 C1209 1.502 . S
C1211 H1197 0.959 1_556 S
C1211 H1198 0.962 . S
C1211 H1199 0.959 . S
C1211 C1209 1.561 . S
C1212 C1209 1.524 . S
C1212 C1213 1.396 . S
C1212 C1217 1.390 . S
C1213 C1207 1.465 1_556 S
C1213 C1212 1.396 . S
C1213 C1214 1.399 . S
C1214 H1200 0.929 . S
C1214 C1213 1.399 . S
C1214 C1215 1.385 . S
C1215 H1201 0.931 . S
C1215 C1214 1.385 . S
C1215 C1216 1.389 . S
C1216 C1215 1.389 . S
C1216 C1217 1.387 . S
C1217 H1202 0.930 . S
C1217 C1212 1.390 . S
C1217 C1216 1.387 . S
H1218 C1230 0.930 . S
H1219 C1232 0.930 . S
H1220 C1233 0.930 . S
H1221 C1237 0.959 . S
H1222 C1237 0.959 . S
H1223 C1237 0.961 . S
H1224 C1238 0.960 . S
H1225 C1238 0.961 . S
H1226 C1238 0.959 . S
H1227 C1241 0.929 . S
H1228 C1242 0.931 . S
H1229 C1244 0.930 . S
C1230 H1218 0.930 . S
C1230 C1231 1.399 . S
C1230 C1235 1.399 . S
C1231 C1230 1.399 . S
C1231 C1232 1.376 . S
C1232 H1219 0.930 . S
C1232 C1231 1.376 . S
C1232 C1233 1.388 . S
C1233 H1220 0.930 . S
C1233 C1232 1.388 . S
C1233 C1234 1.390 . S
C1234 C1233 1.390 . S
C1234 C1235 1.394 . S
C1234 C1240 1.465 . S
C1235 C1230 1.399 . S
C1235 C1234 1.394 . S
C1235 C1236 1.516 . S
C1236 C1235 1.516 . S
C1236 C1237 1.502 . S
C1236 C1238 1.561 . S
C1236 C1239 1.526 . S
C1237 H1221 0.959 . S
C1237 H1222 0.959 . S
C1237 H1223 0.961 . S
C1237 C1236 1.502 . S
C1238 H1224 0.960 . S
C1238 H1225 0.961 . S
C1238 H1226 0.959 . S
C1238 C1236 1.561 . S
C1239 C1236 1.526 . S
C1239 C1240 1.396 . S
C1239 C1244 1.390 . S
C1240 C1234 1.465 . S
C1240 C1239 1.396 . S
C1240 C1241 1.399 . S
C1241 H1227 0.929 . S
C1241 C1240 1.399 . S
C1241 C1242 1.385 . S
C1242 H1228 0.931 . S
C1242 C1241 1.385 . S
C1242 C1243 1.389 . S
C1243 C1242 1.389 . S
C1243 C1244 1.387 . S
C1244 H1229 0.930 . S
C1244 C1239 1.390 . S
C1244 C1243 1.387 . S
H1245 C1257 0.930 . S
H1246 C1259 0.930 . S
H1247 C1260 0.930 . S
H1248 C1264 0.959 . S
H1249 C1264 0.959 . S
H1250 C1264 0.961 . S
H1251 C1265 0.960 . S
H1252 C1265 0.961 . S
H1253 C1265 0.959 . S
H1254 C1268 0.929 . S
H1255 C1269 0.931 . S
H1256 C1271 0.930 . S
C1257 H1245 0.930 . S
C1257 C1258 1.399 . S
C1257 C1262 1.399 . S
C1258 C1257 1.399 . S
C1258 C1259 1.376 . S
C1259 H1246 0.930 . S
C1259 C1258 1.376 . S
C1259 C1260 1.388 . S
C1260 H1247 0.930 . S
C1260 C1259 1.388 . S
C1260 C1261 1.390 . S
C1261 C1260 1.390 . S
C1261 C1262 1.394 . S
C1261 C1267 1.465 . S
C1262 C1257 1.399 . S
C1262 C1261 1.394 . S
C1262 C1263 1.516 . S
C1263 C1262 1.516 . S
C1263 C1264 1.502 . S
C1263 C1265 1.561 . S
C1263 C1266 1.526 . S
C1264 H1248 0.959 . S
C1264 H1249 0.959 . S
C1264 H1250 0.961 . S
C1264 C1263 1.502 . S
C1265 H1251 0.960 . S
C1265 H1252 0.961 . S
C1265 H1253 0.959 . S
C1265 C1263 1.561 . S
C1266 C1263 1.526 . S
C1266 C1267 1.396 . S
C1266 C1271 1.390 . S
C1267 C1261 1.465 . S
C1267 C1266 1.396 . S
C1267 C1268 1.399 . S
C1268 H1254 0.929 . S
C1268 C1267 1.399 . S
C1268 C1269 1.385 . S
C1269 H1255 0.931 . S
C1269 C1268 1.385 . S
C1269 C1270 1.389 . S
C1270 C1269 1.389 . S
C1270 C1271 1.387 . S
C1271 H1256 0.930 . S
C1271 C1266 1.390 . S
C1271 C1270 1.387 . S
H1272 C1284 0.930 . S
H1273 C1286 0.930 . S
H1274 C1287 0.930 . S
H1275 C1291 0.959 . S
H1276 C1291 0.959 . S
H1277 C1291 0.961 . S
H1278 C1292 0.960 . S
H1279 C1292 0.961 . S
H1280 C1292 0.959 . S
H1281 C1295 0.929 . S
H1282 C1296 0.931 . S
H1283 C1298 0.930 . S
C1284 H1272 0.930 . S
C1284 C1285 1.399 . S
C1284 C1289 1.399 . S
C1285 C1284 1.399 . S
C1285 C1286 1.376 . S
C1286 H1273 0.930 . S
C1286 C1285 1.376 . S
C1286 C1287 1.388 . S
C1287 H1274 0.930 . S
C1287 C1286 1.388 . S
C1287 C1288 1.390 . S
C1288 C1287 1.390 . S
C1288 C1289 1.394 . S
C1288 C1294 1.465 . S
C1289 C1284 1.399 . S
C1289 C1288 1.394 . S
C1289 C1290 1.516 . S
C1290 C1289 1.516 . S
C1290 C1291 1.502 . S
C1290 C1292 1.561 . S
C1290 C1293 1.526 . S
C1291 H1275 0.959 . S
C1291 H1276 0.959 . S
C1291 H1277 0.961 . S
C1291 C1290 1.502 . S
C1292 H1278 0.960 . S
C1292 H1279 0.961 . S
C1292 H1280 0.959 . S
C1292 C1290 1.561 . S
C1293 C1290 1.526 . S
C1293 C1294 1.396 . S
C1293 C1298 1.390 . S
C1294 C1288 1.465 . S
C1294 C1293 1.396 . S
C1294 C1295 1.399 . S
C1295 H1281 0.929 . S
C1295 C1294 1.399 . S
C1295 C1296 1.385 . S
C1296 H1282 0.931 . S
C1296 C1295 1.385 . S
C1296 C1297 1.389 . S
C1297 C1296 1.389 . S
C1297 C1298 1.387 . S
C1298 H1283 0.930 . S
C1298 C1293 1.390 . S
C1298 C1297 1.387 . S
H1299 C1311 0.930 . S
H1300 C1313 0.930 . S
H1301 C1314 0.930 . S
H1302 C1318 0.959 . S
H1303 C1318 0.959 . S
H1304 C1318 0.961 . S
H1305 C1319 0.960 . S
H1306 C1319 0.961 . S
H1307 C1319 0.959 . S
H1308 C1322 0.929 . S
H1309 C1323 0.931 . S
H1310 C1325 0.930 . S
C1311 H1299 0.930 . S
C1311 C1312 1.399 . S
C1311 C1316 1.399 . S
C1312 C1311 1.399 . S
C1312 C1313 1.376 . S
C1313 H1300 0.930 . S
C1313 C1312 1.376 . S
C1313 C1314 1.388 . S
C1314 H1301 0.930 . S
C1314 C1313 1.388 . S
C1314 C1315 1.390 . S
C1315 C1314 1.390 . S
C1315 C1316 1.394 . S
C1315 C1321 1.465 . S
C1316 C1311 1.399 . S
C1316 C1315 1.394 . S
C1316 C1317 1.516 . S
C1317 C1316 1.516 . S
C1317 C1318 1.502 . S
C1317 C1319 1.561 . S
C1317 C1320 1.526 . S
C1318 H1302 0.959 . S
C1318 H1303 0.959 . S
C1318 H1304 0.961 . S
C1318 C1317 1.502 . S
C1319 H1305 0.960 . S
C1319 H1306 0.961 . S
C1319 H1307 0.959 . S
C1319 C1317 1.561 . S
C1320 C1317 1.526 . S
C1320 C1321 1.396 . S
C1320 C1325 1.390 . S
C1321 C1315 1.465 . S
C1321 C1320 1.396 . S
C1321 C1322 1.399 . S
C1322 H1308 0.929 . S
C1322 C1321 1.399 . S
C1322 C1323 1.385 . S
C1323 H1309 0.931 . S
C1323 C1322 1.385 . S
C1323 C1324 1.389 . S
C1324 C1323 1.389 . S
C1324 C1325 1.387 . S
C1325 H1310 0.930 . S
C1325 C1320 1.390 . S
C1325 C1324 1.387 . S
H1326 C1338 0.930 . S
H1327 C1340 0.930 . S
H1328 C1341 0.930 . S
H1329 C1345 0.959 . S
H1330 C1345 0.959 . S
H1331 C1345 0.961 . S
H1332 C1346 0.960 . S
H1333 C1346 0.961 . S
H1334 C1346 0.959 . S
H1335 C1349 0.929 . S
H1336 C1350 0.931 . S
H1337 C1352 0.930 . S
C1338 H1326 0.930 . S
C1338 C1339 1.399 . S
C1338 C1343 1.399 . S
C1339 C1338 1.399 . S
C1339 C1340 1.376 . S
C1340 H1327 0.930 . S
C1340 C1339 1.376 . S
C1340 C1341 1.388 . S
C1341 H1328 0.930 . S
C1341 C1340 1.388 . S
C1341 C1342 1.390 . S
C1342 C1341 1.390 . S
C1342 C1343 1.394 . S
C1342 C1348 1.465 . S
C1343 C1338 1.399 . S
C1343 C1342 1.394 . S
C1343 C1344 1.516 . S
C1344 C1343 1.516 . S
C1344 C1345 1.502 . S
C1344 C1346 1.561 . S
C1344 C1347 1.526 . S
C1345 H1329 0.959 . S
C1345 H1330 0.959 . S
C1345 H1331 0.961 . S
C1345 C1344 1.502 . S
C1346 H1332 0.960 . S
C1346 H1333 0.961 . S
C1346 H1334 0.959 . S
C1346 C1344 1.561 . S
C1347 C1344 1.526 . S
C1347 C1348 1.396 . S
C1347 C1352 1.390 . S
C1348 C1342 1.465 . S
C1348 C1347 1.396 . S
C1348 C1349 1.399 . S
C1349 H1335 0.929 . S
C1349 C1348 1.399 . S
C1349 C1350 1.385 . S
C1350 H1336 0.931 . S
C1350 C1349 1.385 . S
C1350 C1351 1.389 . S
C1351 C1350 1.389 . S
C1351 C1352 1.387 . S
C1352 H1337 0.930 . S
C1352 C1347 1.390 . S
C1352 C1351 1.387 . S
H1353 C1365 0.930 . S
H1354 C1367 0.930 . S
H1355 C1368 0.930 . S
H1356 C1372 0.959 . S
H1357 C1372 0.959 . S
H1358 C1372 0.961 . S
H1359 C1373 0.960 . S
H1360 C1373 0.961 . S
H1361 C1373 0.959 . S
H1362 C1376 0.929 . S
H1363 C1377 0.931 . S
H1364 C1379 0.930 . S
C1365 H1353 0.930 . S
C1365 C1366 1.399 . S
C1365 C1370 1.399 . S
C1366 C1365 1.399 . S
C1366 C1367 1.376 . S
C1367 H1354 0.930 . S
C1367 C1366 1.376 . S
C1367 C1368 1.388 . S
C1368 H1355 0.930 . S
C1368 C1367 1.388 . S
C1368 C1369 1.390 . S
C1369 C1368 1.390 . S
C1369 C1370 1.394 . S
C1369 C1375 1.465 . S
C1370 C1365 1.399 . S
C1370 C1369 1.394 . S
C1370 C1371 1.516 . S
C1371 C1370 1.516 . S
C1371 C1372 1.502 . S
C1371 C1373 1.561 . S
C1371 C1374 1.526 . S
C1372 H1356 0.959 . S
C1372 H1357 0.959 . S
C1372 H1358 0.961 . S
C1372 C1371 1.502 . S
C1373 H1359 0.960 . S
C1373 H1360 0.961 . S
C1373 H1361 0.959 . S
C1373 C1371 1.561 . S
C1374 C1371 1.526 . S
C1374 C1375 1.396 . S
C1374 C1379 1.390 . S
C1375 C1369 1.465 . S
C1375 C1374 1.396 . S
C1375 C1376 1.399 . S
C1376 H1362 0.929 . S
C1376 C1375 1.399 . S
C1376 C1377 1.385 . S
C1377 H1363 0.931 . S
C1377 C1376 1.385 . S
C1377 C1378 1.389 . S
C1378 C1377 1.389 . S
C1378 C1379 1.387 . S
C1379 H1364 0.930 . S
C1379 C1374 1.390 . S
C1379 C1378 1.387 . S
H1380 C1392 0.930 . S
H1381 C1394 0.930 . S
H1382 C1395 0.930 . S
H1383 C1399 0.959 . S
H1384 C1399 0.959 . S
H1385 C1399 0.961 . S
H1386 C1400 0.960 . S
H1387 C1400 0.961 . S
H1388 C1400 0.959 . S
H1389 C1403 0.929 . S
H1390 C1404 0.931 . S
H1391 C1406 0.930 . S
C1392 H1380 0.930 . S
C1392 C1393 1.399 . S
C1392 C1397 1.399 . S
C1393 C1392 1.399 . S
C1393 C1394 1.376 . S
C1394 H1381 0.930 . S
C1394 C1393 1.376 . S
C1394 C1395 1.388 . S
C1395 H1382 0.930 . S
C1395 C1394 1.388 . S
C1395 C1396 1.390 . S
C1396 C1395 1.390 . S
C1396 C1397 1.394 . S
C1396 C1402 1.465 . S
C1397 C1392 1.399 . S
C1397 C1396 1.394 . S
C1397 C1398 1.516 . S
C1398 C1397 1.516 . S
C1398 C1399 1.502 . S
C1398 C1400 1.561 . S
C1398 C1401 1.526 . S
C1399 H1383 0.959 . S
C1399 H1384 0.959 . S
C1399 H1385 0.961 . S
C1399 C1398 1.502 . S
C1400 H1386 0.960 . S
C1400 H1387 0.961 . S
C1400 H1388 0.959 . S
C1400 C1398 1.561 . S
C1401 C1398 1.526 . S
C1401 C1402 1.396 . S
C1401 C1406 1.390 . S
C1402 C1396 1.465 . S
C1402 C1401 1.396 . S
C1402 C1403 1.399 . S
C1403 H1389 0.929 . S
C1403 C1402 1.399 . S
C1403 C1404 1.385 . S
C1404 H1390 0.931 . S
C1404 C1403 1.385 . S
C1404 C1405 1.389 . S
C1405 C1404 1.389 . S
C1405 C1406 1.387 . S
C1406 H1391 0.930 . S
C1406 C1401 1.390 . S
C1406 C1405 1.387 . S
H1407 C1419 0.930 . S
H1408 C1421 0.930 . S
H1409 C1422 0.930 . S
H1410 C1426 0.959 . S
H1411 C1426 0.959 . S
H1412 C1426 0.961 . S
H1413 C1427 0.960 . S
H1414 C1427 0.961 . S
H1415 C1427 0.959 . S
H1416 C1430 0.929 . S
H1417 C1431 0.931 . S
H1418 C1433 0.930 . S
C1419 H1407 0.930 . S
C1419 C1420 1.399 . S
C1419 C1424 1.399 . S
C1420 C1419 1.399 . S
C1420 C1421 1.376 . S
C1421 H1408 0.930 . S
C1421 C1420 1.376 . S
C1421 C1422 1.388 . S
C1422 H1409 0.930 . S
C1422 C1421 1.388 . S
C1422 C1423 1.390 . S
C1423 C1422 1.390 . S
C1423 C1424 1.394 . S
C1423 C1429 1.465 . S
C1424 C1419 1.399 . S
C1424 C1423 1.394 . S
C1424 C1425 1.516 . S
C1425 C1424 1.516 . S
C1425 C1426 1.502 . S
C1425 C1427 1.561 . S
C1425 C1428 1.526 . S
C1426 H1410 0.959 . S
C1426 H1411 0.959 . S
C1426 H1412 0.961 . S
C1426 C1425 1.502 . S
C1427 H1413 0.960 . S
C1427 H1414 0.961 . S
C1427 H1415 0.959 . S
C1427 C1425 1.561 . S
C1428 C1425 1.526 . S
C1428 C1429 1.396 . S
C1428 C1433 1.390 . S
C1429 C1423 1.465 . S
C1429 C1428 1.396 . S
C1429 C1430 1.399 . S
C1430 H1416 0.929 . S
C1430 C1429 1.399 . S
C1430 C1431 1.385 . S
C1431 H1417 0.931 . S
C1431 C1430 1.385 . S
C1431 C1432 1.389 . S
C1432 C1431 1.389 . S
C1432 C1433 1.387 . S
C1433 H1418 0.930 . S
C1433 C1428 1.390 . S
C1433 C1432 1.387 . S
H1434 C1446 0.930 . S
H1435 C1448 0.930 . S
H1436 C1449 0.930 . S
H1437 C1453 0.959 . S
H1438 C1453 0.959 . S
H1439 C1453 0.961 . S
H1440 C1454 0.960 . S
H1441 C1454 0.961 . S
H1442 C1454 0.959 . S
H1443 C1457 0.929 . S
H1444 C1458 0.931 . S
H1445 C1460 0.930 . S
C1446 H1434 0.930 . S
C1446 C1447 1.399 . S
C1446 C1451 1.399 . S
C1447 C1446 1.399 . S
C1447 C1448 1.376 . S
C1448 H1435 0.930 . S
C1448 C1447 1.376 . S
C1448 C1449 1.388 . S
C1449 H1436 0.930 . S
C1449 C1448 1.388 . S
C1449 C1450 1.390 . S
C1450 C1449 1.390 . S
C1450 C1451 1.394 . S
C1450 C1456 1.465 . S
C1451 C1446 1.399 . S
C1451 C1450 1.394 . S
C1451 C1452 1.516 . S
C1452 C1451 1.516 . S
C1452 C1453 1.502 . S
C1452 C1454 1.561 . S
C1452 C1455 1.526 . S
C1453 H1437 0.959 . S
C1453 H1438 0.959 . S
C1453 H1439 0.961 . S
C1453 C1452 1.502 . S
C1454 H1440 0.960 . S
C1454 H1441 0.961 . S
C1454 H1442 0.959 . S
C1454 C1452 1.561 . S
C1455 C1452 1.526 . S
C1455 C1456 1.396 . S
C1455 C1460 1.390 . S
C1456 C1450 1.465 . S
C1456 C1455 1.396 . S
C1456 C1457 1.399 . S
C1457 H1443 0.929 . S
C1457 C1456 1.399 . S
C1457 C1458 1.385 . S
C1458 H1444 0.931 . S
C1458 C1457 1.385 . S
C1458 C1459 1.389 . S
C1459 C1458 1.389 . S
C1459 C1460 1.387 . S
C1460 H1445 0.930 . S
C1460 C1455 1.390 . S
C1460 C1459 1.387 . S
H1461 C1473 0.930 . S
H1462 C1475 0.930 . S
H1463 C1476 0.930 . S
H1464 C1480 0.959 . S
H1465 C1480 0.959 . S
H1466 C1480 0.961 . S
H1467 C1481 0.960 . S
H1468 C1481 0.961 . S
H1469 C1481 0.959 . S
H1470 C1484 0.929 . S
H1471 C1485 0.931 . S
H1472 C1487 0.930 . S
C1473 H1461 0.930 . S
C1473 C1474 1.399 . S
C1473 C1478 1.399 . S
C1474 C1473 1.399 . S
C1474 C1475 1.376 . S
C1475 H1462 0.930 . S
C1475 C1474 1.376 . S
C1475 C1476 1.388 . S
C1476 H1463 0.930 . S
C1476 C1475 1.388 . S
C1476 C1477 1.390 . S
C1477 C1476 1.390 . S
C1477 C1478 1.394 . S
C1477 C1483 1.465 . S
C1478 C1473 1.399 . S
C1478 C1477 1.394 . S
C1478 C1479 1.516 . S
C1479 C1478 1.516 . S
C1479 C1480 1.502 . S
C1479 C1481 1.561 . S
C1479 C1482 1.526 . S
C1480 H1464 0.959 . S
C1480 H1465 0.959 . S
C1480 H1466 0.961 . S
C1480 C1479 1.502 . S
C1481 H1467 0.960 . S
C1481 H1468 0.961 . S
C1481 H1469 0.959 . S
C1481 C1479 1.561 . S
C1482 C1479 1.526 . S
C1482 C1483 1.396 . S
C1482 C1487 1.390 . S
C1483 C1477 1.465 . S
C1483 C1482 1.396 . S
C1483 C1484 1.399 . S
C1484 H1470 0.929 . S
C1484 C1483 1.399 . S
C1484 C1485 1.385 . S
C1485 H1471 0.931 . S
C1485 C1484 1.385 . S
C1485 C1486 1.389 . S
C1486 C1485 1.389 . S
C1486 C1487 1.387 . S
C1487 H1472 0.930 . S
C1487 C1482 1.390 . S
C1487 C1486 1.387 . S
H1488 C1500 0.930 . S
H1489 C1502 0.930 . S
H1490 C1503 0.930 . S
H1491 C1507 0.959 . S
H1492 C1507 0.959 . S
H1493 C1507 0.961 . S
H1494 C1508 0.960 . S
H1495 C1508 0.961 . S
H1496 C1508 0.959 . S
H1497 C1511 0.929 . S
H1498 C1512 0.931 . S
H1499 C1514 0.930 . S
C1500 H1488 0.930 . S
C1500 C1501 1.399 . S
C1500 C1505 1.399 . S
C1501 C1500 1.399 . S
C1501 C1502 1.376 . S
C1502 H1489 0.930 . S
C1502 C1501 1.376 . S
C1502 C1503 1.388 . S
C1503 H1490 0.930 . S
C1503 C1502 1.388 . S
C1503 C1504 1.390 . S
C1504 C1503 1.390 . S
C1504 C1505 1.394 . S
C1504 C1510 1.465 . S
C1505 C1500 1.399 . S
C1505 C1504 1.394 . S
C1505 C1506 1.516 . S
C1506 C1505 1.516 . S
C1506 C1507 1.502 . S
C1506 C1508 1.561 . S
C1506 C1509 1.526 . S
C1507 H1491 0.959 . S
C1507 H1492 0.959 . S
C1507 H1493 0.961 . S
C1507 C1506 1.502 . S
C1508 H1494 0.960 . S
C1508 H1495 0.961 . S
C1508 H1496 0.959 . S
C1508 C1506 1.561 . S
C1509 C1506 1.526 . S
C1509 C1510 1.396 . S
C1509 C1514 1.390 . S
C1510 C1504 1.465 . S
C1510 C1509 1.396 . S
C1510 C1511 1.399 . S
C1511 H1497 0.929 . S
C1511 C1510 1.399 . S
C1511 C1512 1.385 . S
C1512 H1498 0.931 . S
C1512 C1511 1.385 . S
C1512 C1513 1.389 . S
C1513 C1512 1.389 . S
C1513 C1514 1.387 . S
C1514 H1499 0.930 . S
C1514 C1509 1.390 . S
C1514 C1513 1.387 . S
H1515 C1527 0.930 . S
H1516 C1529 0.930 . S
H1517 C1530 0.930 . S
H1518 C1534 0.959 . S
H1519 C1534 0.959 . S
H1520 C1534 0.961 . S
H1521 C1535 0.960 . S
H1522 C1535 0.961 . S
H1523 C1535 0.959 . S
H1524 C1538 0.929 . S
H1525 C1539 0.931 . S
H1526 C1541 0.930 . S
C1527 H1515 0.930 . S
C1527 C1528 1.399 . S
C1527 C1532 1.399 . S
C1528 C1527 1.399 . S
C1528 C1529 1.376 . S
C1529 H1516 0.930 . S
C1529 C1528 1.376 . S
C1529 C1530 1.388 . S
C1530 H1517 0.930 . S
C1530 C1529 1.388 . S
C1530 C1531 1.390 . S
C1531 C1530 1.390 . S
C1531 C1532 1.394 . S
C1531 C1537 1.465 . S
C1532 C1527 1.399 . S
C1532 C1531 1.394 . S
C1532 C1533 1.516 . S
C1533 C1532 1.516 . S
C1533 C1534 1.502 . S
C1533 C1535 1.561 . S
C1533 C1536 1.526 . S
C1534 H1518 0.959 . S
C1534 H1519 0.959 . S
C1534 H1520 0.961 . S
C1534 C1533 1.502 . S
C1535 H1521 0.960 . S
C1535 H1522 0.961 . S
C1535 H1523 0.959 . S
C1535 C1533 1.561 . S
C1536 C1533 1.526 . S
C1536 C1537 1.396 . S
C1536 C1541 1.390 . S
C1537 C1531 1.465 . S
C1537 C1536 1.396 . S
C1537 C1538 1.399 . S
C1538 H1524 0.929 . S
C1538 C1537 1.399 . S
C1538 C1539 1.385 . S
C1539 H1525 0.931 . S
C1539 C1538 1.385 . S
C1539 C1540 1.389 . S
C1540 C1539 1.389 . S
C1540 C1541 1.387 . S
C1541 H1526 0.930 . S
C1541 C1536 1.390 . S
C1541 C1540 1.387 . S
H1542 C1554 0.930 . S
H1543 C1556 0.930 . S
H1544 C1557 0.930 . S
H1545 C1561 0.959 . S
H1546 C1561 0.959 . S
H1547 C1561 0.961 . S
H1548 C1562 0.960 . S
H1549 C1562 0.961 . S
H1550 C1562 0.959 . S
H1551 C1565 0.929 . S
H1552 C1566 0.931 . S
H1553 C1568 0.930 . S
C1554 H1542 0.930 . S
C1554 C1555 1.399 . S
C1554 C1559 1.399 . S
C1555 C1554 1.399 . S
C1555 C1556 1.376 . S
C1556 H1543 0.930 . S
C1556 C1555 1.376 . S
C1556 C1557 1.388 . S
C1557 H1544 0.930 . S
C1557 C1556 1.388 . S
C1557 C1558 1.390 . S
C1558 C1557 1.390 . S
C1558 C1559 1.394 . S
C1558 C1564 1.465 . S
C1559 C1554 1.399 . S
C1559 C1558 1.394 . S
C1559 C1560 1.516 . S
C1560 C1559 1.516 . S
C1560 C1561 1.502 . S
C1560 C1562 1.561 . S
C1560 C1563 1.526 . S
C1561 H1545 0.959 . S
C1561 H1546 0.959 . S
C1561 H1547 0.961 . S
C1561 C1560 1.502 . S
C1562 H1548 0.960 . S
C1562 H1549 0.961 . S
C1562 H1550 0.959 . S
C1562 C1560 1.561 . S
C1563 C1560 1.526 . S
C1563 C1564 1.396 . S
C1563 C1568 1.390 . S
C1564 C1558 1.465 . S
C1564 C1563 1.396 . S
C1564 C1565 1.399 . S
C1565 H1551 0.929 . S
C1565 C1564 1.399 . S
C1565 C1566 1.385 . S
C1566 H1552 0.931 . S
C1566 C1565 1.385 . S
C1566 C1567 1.389 . S
C1567 C1566 1.389 . S
C1567 C1568 1.387 . S
C1568 H1553 0.930 . S
C1568 C1563 1.390 . S
C1568 C1567 1.387 . S
H1569 C1581 0.930 . S
H1570 C1583 0.930 . S
H1571 C1584 0.930 . S
H1572 C1588 0.959 . S
H1573 C1588 0.959 . S
H1574 C1588 0.961 . S
H1575 C1589 0.960 . S
H1576 C1589 0.961 . S
H1577 C1589 0.959 . S
H1578 C1592 0.929 . S
H1579 C1593 0.931 . S
H1580 C1595 0.930 . S
C1581 H1569 0.930 . S
C1581 C1582 1.399 . S
C1581 C1586 1.399 . S
C1582 C1581 1.399 . S
C1582 C1583 1.376 . S
C1583 H1570 0.930 . S
C1583 C1582 1.376 . S
C1583 C1584 1.388 . S
C1584 H1571 0.930 . S
C1584 C1583 1.388 . S
C1584 C1585 1.390 . S
C1585 C1584 1.390 . S
C1585 C1586 1.394 . S
C1585 C1591 1.465 . S
C1586 C1581 1.399 . S
C1586 C1585 1.394 . S
C1586 C1587 1.516 . S
C1587 C1586 1.516 . S
C1587 C1588 1.502 . S
C1587 C1589 1.561 . S
C1587 C1590 1.526 . S
C1588 H1572 0.959 . S
C1588 H1573 0.959 . S
C1588 H1574 0.961 . S
C1588 C1587 1.502 . S
C1589 H1575 0.960 . S
C1589 H1576 0.961 . S
C1589 H1577 0.959 . S
C1589 C1587 1.561 . S
C1590 C1587 1.526 . S
C1590 C1591 1.396 . S
C1590 C1595 1.390 . S
C1591 C1585 1.465 . S
C1591 C1590 1.396 . S
C1591 C1592 1.399 . S
C1592 H1578 0.929 . S
C1592 C1591 1.399 . S
C1592 C1593 1.385 . S
C1593 H1579 0.931 . S
C1593 C1592 1.385 . S
C1593 C1594 1.389 . S
C1594 C1593 1.389 . S
C1594 C1595 1.387 . S
C1595 H1580 0.930 . S
C1595 C1590 1.390 . S
C1595 C1594 1.387 . S
H1596 C1608 0.930 . S
H1597 C1610 0.930 . S
H1598 C1611 0.930 . S
H1599 C1615 0.959 . S
H1600 C1615 0.959 . S
H1601 C1615 0.961 . S
H1602 C1616 0.960 . S
H1603 C1616 0.961 . S
H1604 C1616 0.959 . S
H1605 C1619 0.929 . S
H1606 C1620 0.931 . S
H1607 C1622 0.930 . S
C1608 H1596 0.930 . S
C1608 C1609 1.399 . S
C1608 C1613 1.399 . S
C1609 C1608 1.399 . S
C1609 C1610 1.376 . S
C1610 H1597 0.930 . S
C1610 C1609 1.376 . S
C1610 C1611 1.388 . S
C1611 H1598 0.930 . S
C1611 C1610 1.388 . S
C1611 C1612 1.390 . S
C1612 C1611 1.390 . S
C1612 C1613 1.394 . S
C1612 C1618 1.465 . S
C1613 C1608 1.399 . S
C1613 C1612 1.394 . S
C1613 C1614 1.516 . S
C1614 C1613 1.516 . S
C1614 C1615 1.502 . S
C1614 C1616 1.561 . S
C1614 C1617 1.526 . S
C1615 H1599 0.959 . S
C1615 H1600 0.959 . S
C1615 H1601 0.961 . S
C1615 C1614 1.502 . S
C1616 H1602 0.960 . S
C1616 H1603 0.961 . S
C1616 H1604 0.959 . S
C1616 C1614 1.561 . S
C1617 C1614 1.526 . S
C1617 C1618 1.396 . S
C1617 C1622 1.390 . S
C1618 C1612 1.465 . S
C1618 C1617 1.396 . S
C1618 C1619 1.399 . S
C1619 H1605 0.929 . S
C1619 C1618 1.399 . S
C1619 C1620 1.385 . S
C1620 H1606 0.931 . S
C1620 C1619 1.385 . S
C1620 C1621 1.389 . S
C1621 C1620 1.389 . S
C1621 C1622 1.387 . S
C1622 H1607 0.930 . S
C1622 C1617 1.390 . S
C1622 C1621 1.387 . S
H1623 C1635 0.930 . S
H1624 C1637 0.930 . S
H1625 C1638 0.930 . S
H1626 C1642 0.959 . S
H1627 C1642 0.959 . S
H1628 C1642 0.961 . S
H1629 C1643 0.960 . S
H1630 C1643 0.961 . S
H1631 C1643 0.959 . S
H1632 C1646 0.929 . S
H1633 C1647 0.931 . S
H1634 C1649 0.930 . S
C1635 H1623 0.930 . S
C1635 C1636 1.399 . S
C1635 C1640 1.399 . S
C1636 C1635 1.399 . S
C1636 C1637 1.376 . S
C1637 H1624 0.930 . S
C1637 C1636 1.376 . S
C1637 C1638 1.388 . S
C1638 H1625 0.930 . S
C1638 C1637 1.388 . S
C1638 C1639 1.390 . S
C1639 C1638 1.390 . S
C1639 C1640 1.394 . S
C1639 C1645 1.465 . S
C1640 C1635 1.399 . S
C1640 C1639 1.394 . S
C1640 C1641 1.516 . S
C1641 C1640 1.516 . S
C1641 C1642 1.502 . S
C1641 C1643 1.561 . S
C1641 C1644 1.526 . S
C1642 H1626 0.959 . S
C1642 H1627 0.959 . S
C1642 H1628 0.961 . S
C1642 C1641 1.502 . S
C1643 H1629 0.960 . S
C1643 H1630 0.961 . S
C1643 H1631 0.959 . S
C1643 C1641 1.561 . S
C1644 C1641 1.526 . S
C1644 C1645 1.396 . S
C1644 C1649 1.390 . S
C1645 C1639 1.465 . S
C1645 C1644 1.396 . S
C1645 C1646 1.399 . S
C1646 H1632 0.929 . S
C1646 C1645 1.399 . S
C1646 C1647 1.385 . S
C1647 H1633 0.931 . S
C1647 C1646 1.385 . S
C1647 C1648 1.389 . S
C1648 C1647 1.389 . S
C1648 C1649 1.387 . S
C1649 H1634 0.930 . S
C1649 C1644 1.390 . S
C1649 C1648 1.387 . S
H1650 C1662 0.930 . S
H1651 C1664 0.930 . S
H1652 C1665 0.930 . S
H1653 C1669 0.959 . S
H1654 C1669 0.959 . S
H1655 C1669 0.961 . S
H1656 C1670 0.960 . S
H1657 C1670 0.961 . S
H1658 C1670 0.959 . S
H1659 C1673 0.929 . S
H1660 C1674 0.931 . S
H1661 C1676 0.930 . S
C1662 H1650 0.930 . S
C1662 C1663 1.399 . S
C1662 C1667 1.399 . S
C1663 C1662 1.399 . S
C1663 C1664 1.376 . S
C1664 H1651 0.930 . S
C1664 C1663 1.376 . S
C1664 C1665 1.388 . S
C1665 H1652 0.930 . S
C1665 C1664 1.388 . S
C1665 C1666 1.390 . S
C1666 C1665 1.390 . S
C1666 C1667 1.394 . S
C1666 C1672 1.465 . S
C1667 C1662 1.399 . S
C1667 C1666 1.394 . S
C1667 C1668 1.516 . S
C1668 C1667 1.516 . S
C1668 C1669 1.502 . S
C1668 C1670 1.561 . S
C1668 C1671 1.526 . S
C1669 H1653 0.959 . S
C1669 H1654 0.959 . S
C1669 H1655 0.961 . S
C1669 C1668 1.502 . S
C1670 H1656 0.960 . S
C1670 H1657 0.961 . S
C1670 H1658 0.959 . S
C1670 C1668 1.561 . S
C1671 C1668 1.526 . S
C1671 C1672 1.396 . S
C1671 C1676 1.390 . S
C1672 C1666 1.465 . S
C1672 C1671 1.396 . S
C1672 C1673 1.399 . S
C1673 H1659 0.929 . S
C1673 C1672 1.399 . S
C1673 C1674 1.385 . S
C1674 H1660 0.931 . S
C1674 C1673 1.385 . S
C1674 C1675 1.389 . S
C1675 C1674 1.389 . S
C1675 C1676 1.387 . S
C1676 H1661 0.930 . S
C1676 C1671 1.390 . S
C1676 C1675 1.387 . S
H1677 C1689 0.930 . S
H1678 C1691 0.930 . S
H1679 C1692 0.930 . S
H1680 C1696 0.959 . S
H1681 C1696 0.959 . S
H1682 C1696 0.961 . S
H1683 C1697 0.960 . S
H1684 C1697 0.961 . S
H1685 C1697 0.959 . S
H1686 C1700 0.929 . S
H1687 C1701 0.931 . S
H1688 C1703 0.930 . S
C1689 H1677 0.930 . S
C1689 C1690 1.399 . S
C1689 C1694 1.399 . S
C1690 C1689 1.399 . S
C1690 C1691 1.376 . S
C1691 H1678 0.930 . S
C1691 C1690 1.376 . S
C1691 C1692 1.388 . S
C1692 H1679 0.930 . S
C1692 C1691 1.388 . S
C1692 C1693 1.390 . S
C1693 C1692 1.390 . S
C1693 C1694 1.394 . S
C1693 C1699 1.465 . S
C1694 C1689 1.399 . S
C1694 C1693 1.394 . S
C1694 C1695 1.516 . S
C1695 C1694 1.516 . S
C1695 C1696 1.502 . S
C1695 C1697 1.561 . S
C1695 C1698 1.526 . S
C1696 H1680 0.959 . S
C1696 H1681 0.959 . S
C1696 H1682 0.961 . S
C1696 C1695 1.502 . S
C1697 H1683 0.960 . S
C1697 H1684 0.961 . S
C1697 H1685 0.959 . S
C1697 C1695 1.561 . S
C1698 C1695 1.526 . S
C1698 C1699 1.396 . S
C1698 C1703 1.390 . S
C1699 C1693 1.465 . S
C1699 C1698 1.396 . S
C1699 C1700 1.399 . S
C1700 H1686 0.929 . S
C1700 C1699 1.399 . S
C1700 C1701 1.385 . S
C1701 H1687 0.931 . S
C1701 C1700 1.385 . S
C1701 C1702 1.389 . S
C1702 C1701 1.389 . S
C1702 C1703 1.387 . S
C1703 H1688 0.930 . S
C1703 C1698 1.390 . S
C1703 C1702 1.387 . S
H1704 C1716 0.930 . S
H1705 C1718 0.930 . S
H1706 C1719 0.930 . S
H1707 C1723 0.959 . S
H1708 C1723 0.959 . S
H1709 C1723 0.961 . S
H1710 C1724 0.960 . S
H1711 C1724 0.961 . S
H1712 C1724 0.959 . S
H1713 C1727 0.929 . S
H1714 C1728 0.931 . S
H1715 C1730 0.930 . S
C1716 H1704 0.930 . S
C1716 C1717 1.399 . S
C1716 C1721 1.399 . S
C1717 C1716 1.399 . S
C1717 C1718 1.376 . S
C1718 H1705 0.930 . S
C1718 C1717 1.376 . S
C1718 C1719 1.388 . S
C1719 H1706 0.930 . S
C1719 C1718 1.388 . S
C1719 C1720 1.390 . S
C1720 C1719 1.390 . S
C1720 C1721 1.394 . S
C1720 C1726 1.465 . S
C1721 C1716 1.399 . S
C1721 C1720 1.394 . S
C1721 C1722 1.516 . S
C1722 C1721 1.516 . S
C1722 C1723 1.502 . S
C1722 C1724 1.561 . S
C1722 C1725 1.526 . S
C1723 H1707 0.959 . S
C1723 H1708 0.959 . S
C1723 H1709 0.961 . S
C1723 C1722 1.502 . S
C1724 H1710 0.960 . S
C1724 H1711 0.961 . S
C1724 H1712 0.959 . S
C1724 C1722 1.561 . S
C1725 C1722 1.526 . S
C1725 C1726 1.396 . S
C1725 C1730 1.390 . S
C1726 C1720 1.465 . S
C1726 C1725 1.396 . S
C1726 C1727 1.399 . S
C1727 H1713 0.929 . S
C1727 C1726 1.399 . S
C1727 C1728 1.385 . S
C1728 H1714 0.931 . S
C1728 C1727 1.385 . S
C1728 C1729 1.389 . S
C1729 C1728 1.389 . S
C1729 C1730 1.387 . S
C1730 H1715 0.930 . S
C1730 C1725 1.390 . S
C1730 C1729 1.387 . S
H1731 C1743 0.930 . S
H1732 C1745 0.930 . S
H1733 C1746 0.930 . S
H1734 C1750 0.959 . S
H1735 C1750 0.959 . S
H1736 C1750 0.961 . S
H1737 C1751 0.960 . S
H1738 C1751 0.961 . S
H1739 C1751 0.959 . S
H1740 C1754 0.929 . S
H1741 C1755 0.931 . S
H1742 C1757 0.930 . S
C1743 H1731 0.930 . S
C1743 C1744 1.399 . S
C1743 C1748 1.399 . S
C1744 C1743 1.399 . S
C1744 C1745 1.376 . S
C1745 H1732 0.930 . S
C1745 C1744 1.376 . S
C1745 C1746 1.388 . S
C1746 H1733 0.930 . S
C1746 C1745 1.388 . S
C1746 C1747 1.390 . S
C1747 C1746 1.390 . S
C1747 C1748 1.394 . S
C1747 C1753 1.465 . S
C1748 C1743 1.399 . S
C1748 C1747 1.394 . S
C1748 C1749 1.516 . S
C1749 C1748 1.516 . S
C1749 C1750 1.502 . S
C1749 C1751 1.561 . S
C1749 C1752 1.526 . S
C1750 H1734 0.959 . S
C1750 H1735 0.959 . S
C1750 H1736 0.961 . S
C1750 C1749 1.502 . S
C1751 H1737 0.960 . S
C1751 H1738 0.961 . S
C1751 H1739 0.959 . S
C1751 C1749 1.561 . S
C1752 C1749 1.526 . S
C1752 C1753 1.396 . S
C1752 C1757 1.390 . S
C1753 C1747 1.465 . S
C1753 C1752 1.396 . S
C1753 C1754 1.399 . S
C1754 H1740 0.929 . S
C1754 C1753 1.399 . S
C1754 C1755 1.385 . S
C1755 H1741 0.931 . S
C1755 C1754 1.385 . S
C1755 C1756 1.389 . S
C1756 C1755 1.389 . S
C1756 C1757 1.387 . S
C1757 H1742 0.930 . S
C1757 C1752 1.390 . S
C1757 C1756 1.387 . S
H1758 C1770 0.930 . S
H1759 C1772 0.930 . S
H1760 C1773 0.930 . S
H1761 C1777 0.959 . S
H1762 C1777 0.959 . S
H1763 C1777 0.961 . S
H1764 C1778 0.960 . S
H1765 C1778 0.961 . S
H1766 C1778 0.959 . S
H1767 C1781 0.929 . S
H1768 C1782 0.931 . S
H1769 C1784 0.930 . S
C1770 H1758 0.930 . S
C1770 C1771 1.399 . S
C1770 C1775 1.399 . S
C1771 C1770 1.399 . S
C1771 C1772 1.376 . S
C1772 H1759 0.930 . S
C1772 C1771 1.376 . S
C1772 C1773 1.388 . S
C1773 H1760 0.930 . S
C1773 C1772 1.388 . S
C1773 C1774 1.390 . S
C1774 C1773 1.390 . S
C1774 C1775 1.394 . S
C1774 C1780 1.465 . S
C1775 C1770 1.399 . S
C1775 C1774 1.394 . S
C1775 C1776 1.516 . S
C1776 C1775 1.516 . S
C1776 C1777 1.502 . S
C1776 C1778 1.561 . S
C1776 C1779 1.526 . S
C1777 H1761 0.959 . S
C1777 H1762 0.959 . S
C1777 H1763 0.961 . S
C1777 C1776 1.502 . S
C1778 H1764 0.960 . S
C1778 H1765 0.961 . S
C1778 H1766 0.959 . S
C1778 C1776 1.561 . S
C1779 C1776 1.526 . S
C1779 C1780 1.396 . S
C1779 C1784 1.390 . S
C1780 C1774 1.465 . S
C1780 C1779 1.396 . S
C1780 C1781 1.399 . S
C1781 H1767 0.929 . S
C1781 C1780 1.399 . S
C1781 C1782 1.385 . S
C1782 H1768 0.931 . S
C1782 C1781 1.385 . S
C1782 C1783 1.389 . S
C1783 C1782 1.389 . S
C1783 C1784 1.387 . S
C1784 H1769 0.930 . S
C1784 C1779 1.390 . S
C1784 C1783 1.387 . S
H1785 C1797 0.930 . S
H1786 C1799 0.930 . S
H1787 C1800 0.930 . S
H1788 C1804 0.959 . S
H1789 C1804 0.959 . S
H1790 C1804 0.961 . S
H1791 C1805 0.960 . S
H1792 C1805 0.961 . S
H1793 C1805 0.959 . S
H1794 C1808 0.929 . S
H1795 C1809 0.931 . S
H1796 C1811 0.930 . S
C1797 H1785 0.930 . S
C1797 C1798 1.399 . S
C1797 C1802 1.399 . S
C1798 C1797 1.399 . S
C1798 C1799 1.376 . S
C1799 H1786 0.930 . S
C1799 C1798 1.376 . S
C1799 C1800 1.388 . S
C1800 H1787 0.930 . S
C1800 C1799 1.388 . S
C1800 C1801 1.390 . S
C1801 C1800 1.390 . S
C1801 C1802 1.394 . S
C1801 C1807 1.465 . S
C1802 C1797 1.399 . S
C1802 C1801 1.394 . S
C1802 C1803 1.516 . S
C1803 C1802 1.516 . S
C1803 C1804 1.502 . S
C1803 C1805 1.561 . S
C1803 C1806 1.526 . S
C1804 H1788 0.959 . S
C1804 H1789 0.959 . S
C1804 H1790 0.961 . S
C1804 C1803 1.502 . S
C1805 H1791 0.960 . S
C1805 H1792 0.961 . S
C1805 H1793 0.959 . S
C1805 C1803 1.561 . S
C1806 C1803 1.526 . S
C1806 C1807 1.396 . S
C1806 C1811 1.390 . S
C1807 C1801 1.465 . S
C1807 C1806 1.396 . S
C1807 C1808 1.399 . S
C1808 H1794 0.929 . S
C1808 C1807 1.399 . S
C1808 C1809 1.385 . S
C1809 H1795 0.931 . S
C1809 C1808 1.385 . S
C1809 C1810 1.389 . S
C1810 C1809 1.389 . S
C1810 C1811 1.387 . S
C1811 H1796 0.930 . S
C1811 C1806 1.390 . S
C1811 C1810 1.387 . S
H1812 C1824 0.930 . S
H1813 C1826 0.930 . S
H1814 C1827 0.930 . S
H1815 C1831 0.959 . S
H1816 C1831 0.959 . S
H1817 C1831 0.961 . S
H1818 C1832 0.960 . S
H1819 C1832 0.961 . S
H1820 C1832 0.959 . S
H1821 C1835 0.929 . S
H1822 C1836 0.931 . S
H1823 C1838 0.930 . S
C1824 H1812 0.930 . S
C1824 C1825 1.399 . S
C1824 C1829 1.399 . S
C1825 C1824 1.399 . S
C1825 C1826 1.376 . S
C1826 H1813 0.930 . S
C1826 C1825 1.376 . S
C1826 C1827 1.388 . S
C1827 H1814 0.930 . S
C1827 C1826 1.388 . S
C1827 C1828 1.390 . S
C1828 C1827 1.390 . S
C1828 C1829 1.394 . S
C1828 C1834 1.465 . S
C1829 C1824 1.399 . S
C1829 C1828 1.394 . S
C1829 C1830 1.516 . S
C1830 C1829 1.516 . S
C1830 C1831 1.502 . S
C1830 C1832 1.561 . S
C1830 C1833 1.526 . S
C1831 H1815 0.959 . S
C1831 H1816 0.959 . S
C1831 H1817 0.961 . S
C1831 C1830 1.502 . S
C1832 H1818 0.960 . S
C1832 H1819 0.961 . S
C1832 H1820 0.959 . S
C1832 C1830 1.561 . S
C1833 C1830 1.526 . S
C1833 C1834 1.396 . S
C1833 C1838 1.390 . S
C1834 C1828 1.465 . S
C1834 C1833 1.396 . S
C1834 C1835 1.399 . S
C1835 H1821 0.929 . S
C1835 C1834 1.399 . S
C1835 C1836 1.385 . S
C1836 H1822 0.931 . S
C1836 C1835 1.385 . S
C1836 C1837 1.389 . S
C1837 C1836 1.389 . S
C1837 C1838 1.387 . S
C1838 H1823 0.930 . S
C1838 C1833 1.390 . S
C1838 C1837 1.387 . S
H1839 C1851 0.930 . S
H1840 C1853 0.930 . S
H1841 C1854 0.930 . S
H1842 C1858 0.959 . S
H1843 C1858 0.959 . S
H1844 C1858 0.961 . S
H1845 C1859 0.960 . S
H1846 C1859 0.961 . S
H1847 C1859 0.959 . S
H1848 C1862 0.929 . S
H1849 C1863 0.931 . S
H1850 C1865 0.930 . S
C1851 H1839 0.930 . S
C1851 C1852 1.399 . S
C1851 C1856 1.399 . S
C1852 C1851 1.399 . S
C1852 C1853 1.376 . S
C1853 H1840 0.930 . S
C1853 C1852 1.376 . S
C1853 C1854 1.388 . S
C1854 H1841 0.930 . S
C1854 C1853 1.388 . S
C1854 C1855 1.390 . S
C1855 C1854 1.390 . S
C1855 C1856 1.394 . S
C1855 C1861 1.465 . S
C1856 C1851 1.399 . S
C1856 C1855 1.394 . S
C1856 C1857 1.516 . S
C1857 C1856 1.516 . S
C1857 C1858 1.502 . S
C1857 C1859 1.561 . S
C1857 C1860 1.526 . S
C1858 H1842 0.959 . S
C1858 H1843 0.959 . S
C1858 H1844 0.961 . S
C1858 C1857 1.502 . S
C1859 H1845 0.960 . S
C1859 H1846 0.961 . S
C1859 H1847 0.959 . S
C1859 C1857 1.561 . S
C1860 C1857 1.526 . S
C1860 C1861 1.396 . S
C1860 C1865 1.390 . S
C1861 C1855 1.465 . S
C1861 C1860 1.396 . S
C1861 C1862 1.399 . S
C1862 H1848 0.929 . S
C1862 C1861 1.399 . S
C1862 C1863 1.385 . S
C1863 H1849 0.931 . S
C1863 C1862 1.385 . S
C1863 C1864 1.389 . S
C1864 C1863 1.389 . S
C1864 C1865 1.387 . S
C1865 H1850 0.930 . S
C1865 C1860 1.390 . S
C1865 C1864 1.387 . S
H1866 C1878 0.930 . S
H1867 C1880 0.930 . S
H1868 C1881 0.930 . S
H1869 C1885 0.959 . S
H1870 C1885 0.959 . S
H1871 C1885 0.961 . S
H1872 C1886 0.960 . S
H1873 C1886 0.961 . S
H1874 C1886 0.959 . S
H1875 C1889 0.929 . S
H1876 C1890 0.931 . S
H1877 C1892 0.930 . S
C1878 H1866 0.930 . S
C1878 C1879 1.399 . S
C1878 C1883 1.399 . S
C1879 C1878 1.399 . S
C1879 C1880 1.376 . S
C1880 H1867 0.930 . S
C1880 C1879 1.376 . S
C1880 C1881 1.388 . S
C1881 H1868 0.930 . S
C1881 C1880 1.388 . S
C1881 C1882 1.390 . S
C1882 C1881 1.390 . S
C1882 C1883 1.394 . S
C1882 C1888 1.465 . S
C1883 C1878 1.399 . S
C1883 C1882 1.394 . S
C1883 C1884 1.516 . S
C1884 C1883 1.516 . S
C1884 C1885 1.502 . S
C1884 C1886 1.561 . S
C1884 C1887 1.526 . S
C1885 H1869 0.959 . S
C1885 H1870 0.959 . S
C1885 H1871 0.961 . S
C1885 C1884 1.502 . S
C1886 H1872 0.960 . S
C1886 H1873 0.961 . S
C1886 H1874 0.959 . S
C1886 C1884 1.561 . S
C1887 C1884 1.526 . S
C1887 C1888 1.396 . S
C1887 C1892 1.390 . S
C1888 C1882 1.465 . S
C1888 C1887 1.396 . S
C1888 C1889 1.399 . S
C1889 H1875 0.929 . S
C1889 C1888 1.399 . S
C1889 C1890 1.385 . S
C1890 H1876 0.931 . S
C1890 C1889 1.385 . S
C1890 C1891 1.389 . S
C1891 C1890 1.389 . S
C1891 C1892 1.387 . S
C1892 H1877 0.930 . S
C1892 C1887 1.390 . S
C1892 C1891 1.387 . S
H1893 C1905 0.930 . S
H1894 C1907 0.930 . S
H1895 C1908 0.930 . S
H1896 C1912 0.959 . S
H1897 C1912 0.959 . S
H1898 C1912 0.961 . S
H1899 C1913 0.960 . S
H1900 C1913 0.961 . S
H1901 C1913 0.959 . S
H1902 C1916 0.929 . S
H1903 C1917 0.931 . S
H1904 C1919 0.930 . S
C1905 H1893 0.930 . S
C1905 C1906 1.399 . S
C1905 C1910 1.399 . S
C1906 C1905 1.399 . S
C1906 C1907 1.376 . S
C1907 H1894 0.930 . S
C1907 C1906 1.376 . S
C1907 C1908 1.388 . S
C1908 H1895 0.930 . S
C1908 C1907 1.388 . S
C1908 C1909 1.390 . S
C1909 C1908 1.390 . S
C1909 C1910 1.394 . S
C1909 C1915 1.465 . S
C1910 C1905 1.399 . S
C1910 C1909 1.394 . S
C1910 C1911 1.516 . S
C1911 C1910 1.516 . S
C1911 C1912 1.502 . S
C1911 C1913 1.561 . S
C1911 C1914 1.526 . S
C1912 H1896 0.959 . S
C1912 H1897 0.959 . S
C1912 H1898 0.961 . S
C1912 C1911 1.502 . S
C1913 H1899 0.960 . S
C1913 H1900 0.961 . S
C1913 H1901 0.959 . S
C1913 C1911 1.561 . S
C1914 C1911 1.526 . S
C1914 C1915 1.396 . S
C1914 C1919 1.390 . S
C1915 C1909 1.465 . S
C1915 C1914 1.396 . S
C1915 C1916 1.399 . S
C1916 H1902 0.929 . S
C1916 C1915 1.399 . S
C1916 C1917 1.385 . S
C1917 H1903 0.931 . S
C1917 C1916 1.385 . S
C1917 C1918 1.389 . S
C1918 C1917 1.389 . S
C1918 C1919 1.387 . S
C1919 H1904 0.930 . S
C1919 C1914 1.390 . S
C1919 C1918 1.387 . S
H1920 C1932 0.930 . S
H1921 C1934 0.930 . S
H1922 C1935 0.930 . S
H1923 C1939 0.959 . S
H1924 C1939 0.959 . S
H1925 C1939 0.961 . S
H1926 C1940 0.960 . S
H1927 C1940 0.961 . S
H1928 C1940 0.959 . S
H1929 C1943 0.929 . S
H1930 C1944 0.931 . S
H1931 C1946 0.930 . S
C1932 H1920 0.930 . S
C1932 C1933 1.399 . S
C1932 C1937 1.399 . S
C1933 C1932 1.399 . S
C1933 C1934 1.376 . S
C1934 H1921 0.930 . S
C1934 C1933 1.376 . S
C1934 C1935 1.388 . S
C1935 H1922 0.930 . S
C1935 C1934 1.388 . S
C1935 C1936 1.390 . S
C1936 C1935 1.390 . S
C1936 C1937 1.394 . S
C1936 C1942 1.465 . S
C1937 C1932 1.399 . S
C1937 C1936 1.394 . S
C1937 C1938 1.516 . S
C1938 C1937 1.516 . S
C1938 C1939 1.502 . S
C1938 C1940 1.561 . S
C1938 C1941 1.526 . S
C1939 H1923 0.959 . S
C1939 H1924 0.959 . S
C1939 H1925 0.961 . S
C1939 C1938 1.502 . S
C1940 H1926 0.960 . S
C1940 H1927 0.961 . S
C1940 H1928 0.959 . S
C1940 C1938 1.561 . S
C1941 C1938 1.526 . S
C1941 C1942 1.396 . S
C1941 C1946 1.390 . S
C1942 C1936 1.465 . S
C1942 C1941 1.396 . S
C1942 C1943 1.399 . S
C1943 H1929 0.929 . S
C1943 C1942 1.399 . S
C1943 C1944 1.385 . S
C1944 H1930 0.931 . S
C1944 C1943 1.385 . S
C1944 C1945 1.389 . S
C1945 C1944 1.389 . S
C1945 C1946 1.387 . S
C1946 H1931 0.930 . S
C1946 C1941 1.390 . S
C1946 C1945 1.387 . S
H1947 C1959 0.930 . S
H1948 C1961 0.930 . S
H1949 C1962 0.930 . S
H1950 C1966 0.959 . S
H1951 C1966 0.959 . S
H1952 C1966 0.961 . S
H1953 C1967 0.960 . S
H1954 C1967 0.961 . S
H1955 C1967 0.959 . S
H1956 C1970 0.929 . S
H1957 C1971 0.931 . S
H1958 C1973 0.930 . S
C1959 H1947 0.930 . S
C1959 C1960 1.399 . S
C1959 C1964 1.399 . S
C1960 C1959 1.399 . S
C1960 C1961 1.376 . S
C1961 H1948 0.930 . S
C1961 C1960 1.376 . S
C1961 C1962 1.388 . S
C1962 H1949 0.930 . S
C1962 C1961 1.388 . S
C1962 C1963 1.390 . S
C1963 C1962 1.390 . S
C1963 C1964 1.394 . S
C1963 C1969 1.465 . S
C1964 C1959 1.399 . S
C1964 C1963 1.394 . S
C1964 C1965 1.516 . S
C1965 C1964 1.516 . S
C1965 C1966 1.502 . S
C1965 C1967 1.561 . S
C1965 C1968 1.526 . S
C1966 H1950 0.959 . S
C1966 H1951 0.959 . S
C1966 H1952 0.961 . S
C1966 C1965 1.502 . S
C1967 H1953 0.960 . S
C1967 H1954 0.961 . S
C1967 H1955 0.959 . S
C1967 C1965 1.561 . S
C1968 C1965 1.526 . S
C1968 C1969 1.396 . S
C1968 C1973 1.390 . S
C1969 C1963 1.465 . S
C1969 C1968 1.396 . S
C1969 C1970 1.399 . S
C1970 H1956 0.929 . S
C1970 C1969 1.399 . S
C1970 C1971 1.385 . S
C1971 H1957 0.931 . S
C1971 C1970 1.385 . S
C1971 C1972 1.389 . S
C1972 C1971 1.389 . S
C1972 C1973 1.387 . S
C1973 H1958 0.930 . S
C1973 C1968 1.390 . S
C1973 C1972 1.387 . S
H1974 C1986 0.930 . S
H1975 C1988 0.930 . S
H1976 C1989 0.930 . S
H1977 C1993 0.959 . S
H1978 C1993 0.959 . S
H1979 C1993 0.961 . S
H1980 C1994 0.960 . S
H1981 C1994 0.961 . S
H1982 C1994 0.959 . S
H1983 C1997 0.929 . S
H1984 C1998 0.931 . S
H1985 C2000 0.930 . S
C1986 H1974 0.930 . S
C1986 C1987 1.399 . S
C1986 C1991 1.399 . S
C1987 C1986 1.399 . S
C1987 C1988 1.376 . S
C1988 H1975 0.930 . S
C1988 C1987 1.376 . S
C1988 C1989 1.388 . S
C1989 H1976 0.930 . S
C1989 C1988 1.388 . S
C1989 C1990 1.390 . S
C1990 C1989 1.390 . S
C1990 C1991 1.394 . S
C1990 C1996 1.465 . S
C1991 C1986 1.399 . S
C1991 C1990 1.394 . S
C1991 C1992 1.516 . S
C1992 C1991 1.516 . S
C1992 C1993 1.502 . S
C1992 C1994 1.561 . S
C1992 C1995 1.526 . S
C1993 H1977 0.959 . S
C1993 H1978 0.959 . S
C1993 H1979 0.961 . S
C1993 C1992 1.502 . S
C1994 H1980 0.960 . S
C1994 H1981 0.961 . S
C1994 H1982 0.959 . S
C1994 C1992 1.561 . S
C1995 C1992 1.526 . S
C1995 C1996 1.396 . S
C1995 C2000 1.390 . S
C1996 C1990 1.465 . S
C1996 C1995 1.396 . S
C1996 C1997 1.399 . S
C1997 H1983 0.929 . S
C1997 C1996 1.399 . S
C1997 C1998 1.385 . S
C1998 H1984 0.931 . S
C1998 C1997 1.385 . S
C1998 C1999 1.389 . S
C1999 C1998 1.389 . S
C1999 C2000 1.387 . S
C2000 H1985 0.930 . S
C2000 C1995 1.390 . S
C2000 C1999 1.387 . S
H2001 C2013 0.930 . S
H2002 C2015 0.930 . S
H2003 C2016 0.930 . S
H2004 C2020 0.959 . S
H2005 C2020 0.959 . S
H2006 C2020 0.961 . S
H2007 C2021 0.960 . S
H2008 C2021 0.961 . S
H2009 C2021 0.959 . S
H2010 C2024 0.929 . S
H2011 C2025 0.931 . S
H2012 C2027 0.930 . S
C2013 H2001 0.930 . S
C2013 C2014 1.399 . S
C2013 C2018 1.399 . S
C2014 C2013 1.399 . S
C2014 C2015 1.376 . S
C2015 H2002 0.930 . S
C2015 C2014 1.376 . S
C2015 C2016 1.388 . S
C2016 H2003 0.930 . S
C2016 C2015 1.388 . S
C2016 C2017 1.390 . S
C2017 C2016 1.390 . S
C2017 C2018 1.394 . S
C2017 C2023 1.465 . S
C2018 C2013 1.399 . S
C2018 C2017 1.394 . S
C2018 C2019 1.516 . S
C2019 C2018 1.516 . S
C2019 C2020 1.502 . S
C2019 C2021 1.561 . S
C2019 C2022 1.526 . S
C2020 H2004 0.959 . S
C2020 H2005 0.959 . S
C2020 H2006 0.961 . S
C2020 C2019 1.502 . S
C2021 H2007 0.960 . S
C2021 H2008 0.961 . S
C2021 H2009 0.959 . S
C2021 C2019 1.561 . S
C2022 C2019 1.526 . S
C2022 C2023 1.396 . S
C2022 C2027 1.390 . S
C2023 C2017 1.465 . S
C2023 C2022 1.396 . S
C2023 C2024 1.399 . S
C2024 H2010 0.929 . S
C2024 C2023 1.399 . S
C2024 C2025 1.385 . S
C2025 H2011 0.931 . S
C2025 C2024 1.385 . S
C2025 C2026 1.389 . S
C2026 C2025 1.389 . S
C2026 C2027 1.387 . S
C2027 H2012 0.930 . S
C2027 C2022 1.390 . S
C2027 C2026 1.387 . S
H2028 C2040 0.930 . S
H2029 C2042 0.930 . S
H2030 C2043 0.930 . S
H2031 C2047 0.959 . S
H2032 C2047 0.959 . S
H2033 C2047 0.961 . S
H2034 C2048 0.960 . S
H2035 C2048 0.961 . S
H2036 C2048 0.959 . S
H2037 C2051 0.929 . S
H2038 C2052 0.931 . S
H2039 C2054 0.930 . S
C2040 H2028 0.930 . S
C2040 C2041 1.399 . S
C2040 C2045 1.399 . S
C2041 C2040 1.399 . S
C2041 C2042 1.376 . S
C2042 H2029 0.930 . S
C2042 C2041 1.376 . S
C2042 C2043 1.388 . S
C2043 H2030 0.930 . S
C2043 C2042 1.388 . S
C2043 C2044 1.390 . S
C2044 C2043 1.390 . S
C2044 C2045 1.394 . S
C2044 C2050 1.465 . S
C2045 C2040 1.399 . S
C2045 C2044 1.394 . S
C2045 C2046 1.516 . S
C2046 C2045 1.516 . S
C2046 C2047 1.502 . S
C2046 C2048 1.561 . S
C2046 C2049 1.526 . S
C2047 H2031 0.959 . S
C2047 H2032 0.959 . S
C2047 H2033 0.961 . S
C2047 C2046 1.502 . S
C2048 H2034 0.960 . S
C2048 H2035 0.961 . S
C2048 H2036 0.959 . S
C2048 C2046 1.561 . S
C2049 C2046 1.526 . S
C2049 C2050 1.396 . S
C2049 C2054 1.390 . S
C2050 C2044 1.465 . S
C2050 C2049 1.396 . S
C2050 C2051 1.399 . S
C2051 H2037 0.929 . S
C2051 C2050 1.399 . S
C2051 C2052 1.385 . S
C2052 H2038 0.931 . S
C2052 C2051 1.385 . S
C2052 C2053 1.389 . S
C2053 C2052 1.389 . S
C2053 C2054 1.387 . S
C2054 H2039 0.930 . S
C2054 C2049 1.390 . S
C2054 C2053 1.387 . S
H2055 C2067 0.930 . S
H2056 C2069 0.930 . S
H2057 C2070 0.930 . S
H2058 C2074 0.959 . S
H2059 C2074 0.959 . S
H2060 C2074 0.961 . S
H2061 C2075 0.960 . S
H2062 C2075 0.961 . S
H2063 C2075 0.959 . S
H2064 C2078 0.929 . S
H2065 C2079 0.931 . S
H2066 C2081 0.930 . S
C2067 H2055 0.930 . S
C2067 C2068 1.399 . S
C2067 C2072 1.399 . S
C2068 C2067 1.399 . S
C2068 C2069 1.376 . S
C2069 H2056 0.930 . S
C2069 C2068 1.376 . S
C2069 C2070 1.388 . S
C2070 H2057 0.930 . S
C2070 C2069 1.388 . S
C2070 C2071 1.390 . S
C2071 C2070 1.390 . S
C2071 C2072 1.394 . S
C2071 C2077 1.465 . S
C2072 C2067 1.399 . S
C2072 C2071 1.394 . S
C2072 C2073 1.516 . S
C2073 C2072 1.516 . S
C2073 C2074 1.502 . S
C2073 C2075 1.561 . S
C2073 C2076 1.526 . S
C2074 H2058 0.959 . S
C2074 H2059 0.959 . S
C2074 H2060 0.961 . S
C2074 C2073 1.502 . S
C2075 H2061 0.960 . S
C2075 H2062 0.961 . S
C2075 H2063 0.959 . S
C2075 C2073 1.561 . S
C2076 C2073 1.526 . S
C2076 C2077 1.396 . S
C2076 C2081 1.390 . S
C2077 C2071 1.465 . S
C2077 C2076 1.396 . S
C2077 C2078 1.399 . S
C2078 H2064 0.929 . S
C2078 C2077 1.399 . S
C2078 C2079 1.385 . S
C2079 H2065 0.931 . S
C2079 C2078 1.385 . S
C2079 C2080 1.389 . S
C2080 C2079 1.389 . S
C2080 C2081 1.387 . S
C2081 H2066 0.930 . S
C2081 C2076 1.390 . S
C2081 C2080 1.387 . S
H2082 C2094 0.930 . S
H2083 C2096 0.930 . S
H2084 C2097 0.930 . S
H2085 C2101 0.959 . S
H2086 C2101 0.959 . S
H2087 C2101 0.961 . S
H2088 C2102 0.960 . S
H2089 C2102 0.961 . S
H2090 C2102 0.959 . S
H2091 C2105 0.929 . S
H2092 C2106 0.931 . S
H2093 C2108 0.930 . S
C2094 H2082 0.930 . S
C2094 C2095 1.399 . S
C2094 C2099 1.399 . S
C2095 C2094 1.399 . S
C2095 C2096 1.376 . S
C2096 H2083 0.930 . S
C2096 C2095 1.376 . S
C2096 C2097 1.388 . S
C2097 H2084 0.930 . S
C2097 C2096 1.388 . S
C2097 C2098 1.390 . S
C2098 C2097 1.390 . S
C2098 C2099 1.394 . S
C2098 C2104 1.465 . S
C2099 C2094 1.399 . S
C2099 C2098 1.394 . S
C2099 C2100 1.516 . S
C2100 C2099 1.516 . S
C2100 C2101 1.502 . S
C2100 C2102 1.561 . S
C2100 C2103 1.526 . S
C2101 H2085 0.959 . S
C2101 H2086 0.959 . S
C2101 H2087 0.961 . S
C2101 C2100 1.502 . S
C2102 H2088 0.960 . S
C2102 H2089 0.961 . S
C2102 H2090 0.959 . S
C2102 C2100 1.561 . S
C2103 C2100 1.526 . S
C2103 C2104 1.396 . S
C2103 C2108 1.390 . S
C2104 C2098 1.465 . S
C2104 C2103 1.396 . S
C2104 C2105 1.399 . S
C2105 H2091 0.929 . S
C2105 C2104 1.399 . S
C2105 C2106 1.385 . S
C2106 H2092 0.931 . S
C2106 C2105 1.385 . S
C2106 C2107 1.389 . S
C2107 C2106 1.389 . S
C2107 C2108 1.387 . S
C2108 H2093 0.930 . S
C2108 C2103 1.390 . S
C2108 C2107 1.387 . S
H2109 C2121 0.930 . S
H2110 C2123 0.930 . S
H2111 C2124 0.930 . S
H2112 C2128 0.959 . S
H2113 C2128 0.959 . S
H2114 C2128 0.961 . S
H2115 C2129 0.960 . S
H2116 C2129 0.961 . S
H2117 C2129 0.959 . S
H2118 C2132 0.929 . S
H2119 C2133 0.931 . S
H2120 C2135 0.930 . S
C2121 H2109 0.930 . S
C2121 C2122 1.399 . S
C2121 C2126 1.399 . S
C2122 C2121 1.399 . S
C2122 C2123 1.376 . S
C2123 H2110 0.930 . S
C2123 C2122 1.376 . S
C2123 C2124 1.388 . S
C2124 H2111 0.930 . S
C2124 C2123 1.388 . S
C2124 C2125 1.390 . S
C2125 C2124 1.390 . S
C2125 C2126 1.394 . S
C2125 C2131 1.465 . S
C2126 C2121 1.399 . S
C2126 C2125 1.394 . S
C2126 C2127 1.516 . S
C2127 C2126 1.516 . S
C2127 C2128 1.502 . S
C2127 C2129 1.561 . S
C2127 C2130 1.526 . S
C2128 H2112 0.959 . S
C2128 H2113 0.959 . S
C2128 H2114 0.961 . S
C2128 C2127 1.502 . S
C2129 H2115 0.960 . S
C2129 H2116 0.961 . S
C2129 H2117 0.959 . S
C2129 C2127 1.561 . S
C2130 C2127 1.526 . S
C2130 C2131 1.396 . S
C2130 C2135 1.390 . S
C2131 C2125 1.465 . S
C2131 C2130 1.396 . S
C2131 C2132 1.399 . S
C2132 H2118 0.929 . S
C2132 C2131 1.399 . S
C2132 C2133 1.385 . S
C2133 H2119 0.931 . S
C2133 C2132 1.385 . S
C2133 C2134 1.389 . S
C2134 C2133 1.389 . S
C2134 C2135 1.387 . S
C2135 H2120 0.930 . S
C2135 C2130 1.390 . S
C2135 C2134 1.387 . S
H2136 C2148 0.930 . S
H2137 C2150 0.930 . S
H2138 C2151 0.930 . S
H2139 C2155 0.959 . S
H2140 C2155 0.959 . S
H2141 C2155 0.961 . S
H2142 C2156 0.960 . S
H2143 C2156 0.961 . S
H2144 C2156 0.959 . S
H2145 C2159 0.929 . S
H2146 C2160 0.931 . S
H2147 C2162 0.930 . S
C2148 H2136 0.930 . S
C2148 C2149 1.399 . S
C2148 C2153 1.399 . S
C2149 C2148 1.399 . S
C2149 C2150 1.376 . S
C2150 H2137 0.930 . S
C2150 C2149 1.376 . S
C2150 C2151 1.388 . S
C2151 H2138 0.930 . S
C2151 C2150 1.388 . S
C2151 C2152 1.390 . S
C2152 C2151 1.390 . S
C2152 C2153 1.394 . S
C2152 C2158 1.465 . S
C2153 C2148 1.399 . S
C2153 C2152 1.394 . S
C2153 C2154 1.516 . S
C2154 C2153 1.516 . S
C2154 C2155 1.502 . S
C2154 C2156 1.561 . S
C2154 C2157 1.526 . S
C2155 H2139 0.959 . S
C2155 H2140 0.959 . S
C2155 H2141 0.961 . S
C2155 C2154 1.502 . S
C2156 H2142 0.960 . S
C2156 H2143 0.961 . S
C2156 H2144 0.959 . S
C2156 C2154 1.561 . S
C2157 C2154 1.526 . S
C2157 C2158 1.396 . S
C2157 C2162 1.390 . S
C2158 C2152 1.465 . S
C2158 C2157 1.396 . S
C2158 C2159 1.399 . S
C2159 H2145 0.929 . S
C2159 C2158 1.399 . S
C2159 C2160 1.385 . S
C2160 H2146 0.931 . S
C2160 C2159 1.385 . S
C2160 C2161 1.389 . S
C2161 C2160 1.389 . S
C2161 C2162 1.387 . S
C2162 H2147 0.930 . S
C2162 C2157 1.390 . S
C2162 C2161 1.387 . S
H2163 C2175 0.930 . S
H2164 C2177 0.930 . S
H2165 C2178 0.930 . S
H2166 C2182 0.959 . S
H2167 C2182 0.959 . S
H2168 C2182 0.961 . S
H2169 C2183 0.960 . S
H2170 C2183 0.961 . S
H2171 C2183 0.959 . S
H2172 C2186 0.929 . S
H2173 C2187 0.931 . S
H2174 C2189 0.930 . S
C2175 H2163 0.930 . S
C2175 C2176 1.399 . S
C2175 C2180 1.399 . S
C2176 C2175 1.399 . S
C2176 C2177 1.376 . S
C2177 H2164 0.930 . S
C2177 C2176 1.376 . S
C2177 C2178 1.388 . S
C2178 H2165 0.930 . S
C2178 C2177 1.388 . S
C2178 C2179 1.390 . S
C2179 C2178 1.390 . S
C2179 C2180 1.394 . S
C2179 C2185 1.465 . S
C2180 C2175 1.399 . S
C2180 C2179 1.394 . S
C2180 C2181 1.516 . S
C2181 C2180 1.516 . S
C2181 C2182 1.502 . S
C2181 C2183 1.561 . S
C2181 C2184 1.526 . S
C2182 H2166 0.959 . S
C2182 H2167 0.959 . S
C2182 H2168 0.961 . S
C2182 C2181 1.502 . S
C2183 H2169 0.960 . S
C2183 H2170 0.961 . S
C2183 H2171 0.959 . S
C2183 C2181 1.561 . S
C2184 C2181 1.526 . S
C2184 C2185 1.396 . S
C2184 C2189 1.390 . S
C2185 C2179 1.465 . S
C2185 C2184 1.396 . S
C2185 C2186 1.399 . S
C2186 H2172 0.929 . S
C2186 C2185 1.399 . S
C2186 C2187 1.385 . S
C2187 H2173 0.931 . S
C2187 C2186 1.385 . S
C2187 C2188 1.389 . S
C2188 C2187 1.389 . S
C2188 C2189 1.387 . S
C2189 H2174 0.930 . S
C2189 C2184 1.390 . S
C2189 C2188 1.387 . S
H2190 C2202 0.930 . S
H2191 C2204 0.930 . S
H2192 C2205 0.930 . S
H2193 C2209 0.959 . S
H2194 C2209 0.959 . S
H2195 C2209 0.961 . S
H2196 C2210 0.960 . S
H2197 C2210 0.961 . S
H2198 C2210 0.959 . S
H2199 C2213 0.929 . S
H2200 C2214 0.931 . S
H2201 C2216 0.930 . S
C2202 H2190 0.930 . S
C2202 C2203 1.399 . S
C2202 C2207 1.399 . S
C2203 C2202 1.399 . S
C2203 C2204 1.376 . S
C2204 H2191 0.930 . S
C2204 C2203 1.376 . S
C2204 C2205 1.388 . S
C2205 H2192 0.930 . S
C2205 C2204 1.388 . S
C2205 C2206 1.390 . S
C2206 C2205 1.390 . S
C2206 C2207 1.394 . S
C2206 C2212 1.465 . S
C2207 C2202 1.399 . S
C2207 C2206 1.394 . S
C2207 C2208 1.516 . S
C2208 C2207 1.516 . S
C2208 C2209 1.502 . S
C2208 C2210 1.561 . S
C2208 C2211 1.526 . S
C2209 H2193 0.959 . S
C2209 H2194 0.959 . S
C2209 H2195 0.961 . S
C2209 C2208 1.502 . S
C2210 H2196 0.960 . S
C2210 H2197 0.961 . S
C2210 H2198 0.959 . S
C2210 C2208 1.561 . S
C2211 C2208 1.526 . S
C2211 C2212 1.396 . S
C2211 C2216 1.390 . S
C2212 C2206 1.465 . S
C2212 C2211 1.396 . S
C2212 C2213 1.399 . S
C2213 H2199 0.929 . S
C2213 C2212 1.399 . S
C2213 C2214 1.385 . S
C2214 H2200 0.931 . S
C2214 C2213 1.385 . S
C2214 C2215 1.389 . S
C2215 C2214 1.389 . S
C2215 C2216 1.387 . S
C2216 H2201 0.930 . S
C2216 C2211 1.390 . S
C2216 C2215 1.387 . S
H2217 C2229 0.930 . S
H2218 C2231 0.930 . S
H2219 C2232 0.930 . S
H2220 C2236 0.959 . S
H2221 C2236 0.959 . S
H2222 C2236 0.961 . S
H2223 C2237 0.960 . S
H2224 C2237 0.961 . S
H2225 C2237 0.959 . S
H2226 C2240 0.929 . S
H2227 C2241 0.931 . S
H2228 C2243 0.930 . S
C2229 H2217 0.930 . S
C2229 C2230 1.399 . S
C2229 C2234 1.399 . S
C2230 C2229 1.399 . S
C2230 C2231 1.376 . S
C2231 H2218 0.930 . S
C2231 C2230 1.376 . S
C2231 C2232 1.388 . S
C2232 H2219 0.930 . S
C2232 C2231 1.388 . S
C2232 C2233 1.390 . S
C2233 C2232 1.390 . S
C2233 C2234 1.394 . S
C2233 C2239 1.465 . S
C2234 C2229 1.399 . S
C2234 C2233 1.394 . S
C2234 C2235 1.516 . S
C2235 C2234 1.516 . S
C2235 C2236 1.502 . S
C2235 C2237 1.561 . S
C2235 C2238 1.526 . S
C2236 H2220 0.959 . S
C2236 H2221 0.959 . S
C2236 H2222 0.961 . S
C2236 C2235 1.502 . S
C2237 H2223 0.960 . S
C2237 H2224 0.961 . S
C2237 H2225 0.959 . S
C2237 C2235 1.561 . S
C2238 C2235 1.526 . S
C2238 C2239 1.396 . S
C2238 C2243 1.390 . S
C2239 C2233 1.465 . S
C2239 C2238 1.396 . S
C2239 C2240 1.399 . S
C2240 H2226 0.929 . S
C2240 C2239 1.399 . S
C2240 C2241 1.385 . S
C2241 H2227 0.931 . S
C2241 C2240 1.385 . S
C2241 C2242 1.389 . S
C2242 C2241 1.389 . S
C2242 C2243 1.387 . S
C2243 H2228 0.930 . S
C2243 C2238 1.390 . S
C2243 C2242 1.387 . S
H2244 C2256 0.930 . S
H2245 C2258 0.930 . S
H2246 C2259 0.930 . S
H2247 C2263 0.959 . S
H2248 C2263 0.959 . S
H2249 C2263 0.961 . S
H2250 C2264 0.960 . S
H2251 C2264 0.961 . S
H2252 C2264 0.959 . S
H2253 C2267 0.929 . S
H2254 C2268 0.931 . S
H2255 C2270 0.930 . S
C2256 H2244 0.930 . S
C2256 C2257 1.399 . S
C2256 C2261 1.399 . S
C2257 C2256 1.399 . S
C2257 C2258 1.376 . S
C2258 H2245 0.930 . S
C2258 C2257 1.376 . S
C2258 C2259 1.388 . S
C2259 H2246 0.930 . S
C2259 C2258 1.388 . S
C2259 C2260 1.390 . S
C2260 C2259 1.390 . S
C2260 C2261 1.394 . S
C2260 C2266 1.465 . S
C2261 C2256 1.399 . S
C2261 C2260 1.394 . S
C2261 C2262 1.516 . S
C2262 C2261 1.516 . S
C2262 C2263 1.502 . S
C2262 C2264 1.561 . S
C2262 C2265 1.526 . S
C2263 H2247 0.959 . S
C2263 H2248 0.959 . S
C2263 H2249 0.961 . S
C2263 C2262 1.502 . S
C2264 H2250 0.960 . S
C2264 H2251 0.961 . S
C2264 H2252 0.959 . S
C2264 C2262 1.561 . S
C2265 C2262 1.526 . S
C2265 C2266 1.396 . S
C2265 C2270 1.390 . S
C2266 C2260 1.465 . S
C2266 C2265 1.396 . S
C2266 C2267 1.399 . S
C2267 H2253 0.929 . S
C2267 C2266 1.399 . S
C2267 C2268 1.385 . S
C2268 H2254 0.931 . S
C2268 C2267 1.385 . S
C2268 C2269 1.389 . S
C2269 C2268 1.389 . S
C2269 C2270 1.387 . S
C2270 H2255 0.930 . S
C2270 C2265 1.390 . S
C2270 C2269 1.387 . S
H2271 C2283 0.930 . S
H2272 C2285 0.930 . S
H2273 C2286 0.930 . S
H2274 C2290 0.959 . S
H2275 C2290 0.959 . S
H2276 C2290 0.961 . S
H2277 C2291 0.960 . S
H2278 C2291 0.961 . S
H2279 C2291 0.959 . S
H2280 C2294 0.929 . S
H2281 C2295 0.931 . S
H2282 C2297 0.930 . S
C2283 H2271 0.930 . S
C2283 C2284 1.399 . S
C2283 C2288 1.399 . S
C2284 C2283 1.399 . S
C2284 C2285 1.376 . S
C2285 H2272 0.930 . S
C2285 C2284 1.376 . S
C2285 C2286 1.388 . S
C2286 H2273 0.930 . S
C2286 C2285 1.388 . S
C2286 C2287 1.390 . S
C2287 C2286 1.390 . S
C2287 C2288 1.394 . S
C2287 C2293 1.465 . S
C2288 C2283 1.399 . S
C2288 C2287 1.394 . S
C2288 C2289 1.516 . S
C2289 C2288 1.516 . S
C2289 C2290 1.502 . S
C2289 C2291 1.561 . S
C2289 C2292 1.526 . S
C2290 H2274 0.959 . S
C2290 H2275 0.959 . S
C2290 H2276 0.961 . S
C2290 C2289 1.502 . S
C2291 H2277 0.960 . S
C2291 H2278 0.961 . S
C2291 H2279 0.959 . S
C2291 C2289 1.561 . S
C2292 C2289 1.526 . S
C2292 C2293 1.396 . S
C2292 C2297 1.390 . S
C2293 C2287 1.465 . S
C2293 C2292 1.396 . S
C2293 C2294 1.399 . S
C2294 H2280 0.929 . S
C2294 C2293 1.399 . S
C2294 C2295 1.385 . S
C2295 H2281 0.931 . S
C2295 C2294 1.385 . S
C2295 C2296 1.389 . S
C2296 C2295 1.389 . S
C2296 C2297 1.387 . S
C2297 H2282 0.930 . S
C2297 C2292 1.390 . S
C2297 C2296 1.387 . S
H2298 C2310 0.930 . S
H2299 C2312 0.930 . S
H2300 C2313 0.930 . S
H2301 C2317 0.959 . S
H2302 C2317 0.959 . S
H2303 C2317 0.961 . S
H2304 C2318 0.960 . S
H2305 C2318 0.961 . S
H2306 C2318 0.959 . S
H2307 C2321 0.929 . S
H2308 C2322 0.931 . S
H2309 C2324 0.930 . S
C2310 H2298 0.930 . S
C2310 C2311 1.399 . S
C2310 C2315 1.399 . S
C2311 C2310 1.399 . S
C2311 C2312 1.376 . S
C2312 H2299 0.930 . S
C2312 C2311 1.376 . S
C2312 C2313 1.388 . S
C2313 H2300 0.930 . S
C2313 C2312 1.388 . S
C2313 C2314 1.390 . S
C2314 C2313 1.390 . S
C2314 C2315 1.394 . S
C2314 C2320 1.465 . S
C2315 C2310 1.399 . S
C2315 C2314 1.394 . S
C2315 C2316 1.516 . S
C2316 C2315 1.516 . S
C2316 C2317 1.502 . S
C2316 C2318 1.561 . S
C2316 C2319 1.526 . S
C2317 H2301 0.959 . S
C2317 H2302 0.959 . S
C2317 H2303 0.961 . S
C2317 C2316 1.502 . S
C2318 H2304 0.960 . S
C2318 H2305 0.961 . S
C2318 H2306 0.959 . S
C2318 C2316 1.561 . S
C2319 C2316 1.526 . S
C2319 C2320 1.396 . S
C2319 C2324 1.390 . S
C2320 C2314 1.465 . S
C2320 C2319 1.396 . S
C2320 C2321 1.399 . S
C2321 H2307 0.929 . S
C2321 C2320 1.399 . S
C2321 C2322 1.385 . S
C2322 H2308 0.931 . S
C2322 C2321 1.385 . S
C2322 C2323 1.389 . S
C2323 C2322 1.389 . S
C2323 C2324 1.387 . S
C2324 H2309 0.930 . S
C2324 C2319 1.390 . S
C2324 C2323 1.387 . S
H2325 C2337 0.930 . S
H2326 C2339 0.930 . S
H2327 C2340 0.930 . S
H2328 C2344 0.959 . S
H2329 C2344 0.959 . S
H2330 C2344 0.961 . S
H2331 C2345 0.960 . S
H2332 C2345 0.961 . S
H2333 C2345 0.959 . S
H2334 C2348 0.929 . S
H2335 C2349 0.931 . S
H2336 C2351 0.930 . S
C2337 H2325 0.930 . S
C2337 C2338 1.399 . S
C2337 C2342 1.399 . S
C2338 C2337 1.399 . S
C2338 C2339 1.376 . S
C2339 H2326 0.930 . S
C2339 C2338 1.376 . S
C2339 C2340 1.388 . S
C2340 H2327 0.930 . S
C2340 C2339 1.388 . S
C2340 C2341 1.390 . S
C2341 C2340 1.390 . S
C2341 C2342 1.394 . S
C2341 C2347 1.465 . S
C2342 C2337 1.399 . S
C2342 C2341 1.394 . S
C2342 C2343 1.516 . S
C2343 C2342 1.516 . S
C2343 C2344 1.502 . S
C2343 C2345 1.561 . S
C2343 C2346 1.526 . S
C2344 H2328 0.959 . S
C2344 H2329 0.959 . S
C2344 H2330 0.961 . S
C2344 C2343 1.502 . S
C2345 H2331 0.960 . S
C2345 H2332 0.961 . S
C2345 H2333 0.959 . S
C2345 C2343 1.561 . S
C2346 C2343 1.526 . S
C2346 C2347 1.396 . S
C2346 C2351 1.390 . S
C2347 C2341 1.465 . S
C2347 C2346 1.396 . S
C2347 C2348 1.399 . S
C2348 H2334 0.929 . S
C2348 C2347 1.399 . S
C2348 C2349 1.385 . S
C2349 H2335 0.931 . S
C2349 C2348 1.385 . S
C2349 C2350 1.389 . S
C2350 C2349 1.389 . S
C2350 C2351 1.387 . S
C2351 H2336 0.930 . S
C2351 C2346 1.390 . S
C2351 C2350 1.387 . S
H2352 C2364 0.930 . S
H2353 C2366 0.930 . S
H2354 C2367 0.930 . S
H2355 C2371 0.959 . S
H2356 C2371 0.959 . S
H2357 C2371 0.961 . S
H2358 C2372 0.960 . S
H2359 C2372 0.961 . S
H2360 C2372 0.959 . S
H2361 C2375 0.929 . S
H2362 C2376 0.931 . S
H2363 C2378 0.930 . S
C2364 H2352 0.930 . S
C2364 C2365 1.399 . S
C2364 C2369 1.399 . S
C2365 C2364 1.399 . S
C2365 C2366 1.376 . S
C2366 H2353 0.930 . S
C2366 C2365 1.376 . S
C2366 C2367 1.388 . S
C2367 H2354 0.930 . S
C2367 C2366 1.388 . S
C2367 C2368 1.390 . S
C2368 C2367 1.390 . S
C2368 C2369 1.394 . S
C2368 C2374 1.465 . S
C2369 C2364 1.399 . S
C2369 C2368 1.394 . S
C2369 C2370 1.516 . S
C2370 C2369 1.516 . S
C2370 C2371 1.502 . S
C2370 C2372 1.561 . S
C2370 C2373 1.526 . S
C2371 H2355 0.959 . S
C2371 H2356 0.959 . S
C2371 H2357 0.961 . S
C2371 C2370 1.502 . S
C2372 H2358 0.960 . S
C2372 H2359 0.961 . S
C2372 H2360 0.959 . S
C2372 C2370 1.561 . S
C2373 C2370 1.526 . S
C2373 C2374 1.396 . S
C2373 C2378 1.390 . S
C2374 C2368 1.465 . S
C2374 C2373 1.396 . S
C2374 C2375 1.399 . S
C2375 H2361 0.929 . S
C2375 C2374 1.399 . S
C2375 C2376 1.385 . S
C2376 H2362 0.931 . S
C2376 C2375 1.385 . S
C2376 C2377 1.389 . S
C2377 C2376 1.389 . S
C2377 C2378 1.387 . S
C2378 H2363 0.930 . S
C2378 C2373 1.390 . S
C2378 C2377 1.387 . S
H2379 C2391 0.930 . S
H2380 C2393 0.930 . S
H2381 C2394 0.930 . S
H2382 C2398 0.959 . S
H2383 C2398 0.959 . S
H2384 C2398 0.961 . S
H2385 C2399 0.960 . S
H2386 C2399 0.961 . S
H2387 C2399 0.959 . S
H2388 C2402 0.929 . S
H2389 C2403 0.931 . S
H2390 C2405 0.930 . S
C2391 H2379 0.930 . S
C2391 C2392 1.399 . S
C2391 C2396 1.399 . S
C2392 C2391 1.399 . S
C2392 C2393 1.376 . S
C2393 H2380 0.930 . S
C2393 C2392 1.376 . S
C2393 C2394 1.388 . S
C2394 H2381 0.930 . S
C2394 C2393 1.388 . S
C2394 C2395 1.390 . S
C2395 C2394 1.390 . S
C2395 C2396 1.394 . S
C2395 C2401 1.465 . S
C2396 C2391 1.399 . S
C2396 C2395 1.394 . S
C2396 C2397 1.516 . S
C2397 C2396 1.516 . S
C2397 C2398 1.502 . S
C2397 C2399 1.561 . S
C2397 C2400 1.526 . S
C2398 H2382 0.959 . S
C2398 H2383 0.959 . S
C2398 H2384 0.961 . S
C2398 C2397 1.502 . S
C2399 H2385 0.960 . S
C2399 H2386 0.961 . S
C2399 H2387 0.959 . S
C2399 C2397 1.561 . S
C2400 C2397 1.526 . S
C2400 C2401 1.396 . S
C2400 C2405 1.390 . S
C2401 C2395 1.465 . S
C2401 C2400 1.396 . S
C2401 C2402 1.399 . S
C2402 H2388 0.929 . S
C2402 C2401 1.399 . S
C2402 C2403 1.385 . S
C2403 H2389 0.931 . S
C2403 C2402 1.385 . S
C2403 C2404 1.389 . S
C2404 C2403 1.389 . S
C2404 C2405 1.387 . S
C2405 H2390 0.930 . S
C2405 C2400 1.390 . S
C2405 C2404 1.387 . S
H2406 C2418 0.930 . S
H2407 C2420 0.930 . S
H2408 C2421 0.930 . S
H2409 C2425 0.959 . S
H2410 C2425 0.959 . S
H2411 C2425 0.961 . S
H2412 C2426 0.960 . S
H2413 C2426 0.961 . S
H2414 C2426 0.959 . S
H2415 C2429 0.929 . S
H2416 C2430 0.931 . S
H2417 C2432 0.930 . S
C2418 H2406 0.930 . S
C2418 C2419 1.399 . S
C2418 C2423 1.399 . S
C2419 C2418 1.399 . S
C2419 C2420 1.376 . S
C2420 H2407 0.930 . S
C2420 C2419 1.376 . S
C2420 C2421 1.388 . S
C2421 H2408 0.930 . S
C2421 C2420 1.388 . S
C2421 C2422 1.390 . S
C2422 C2421 1.390 . S
C2422 C2423 1.394 . S
C2422 C2428 1.465 . S
C2423 C2418 1.399 . S
C2423 C2422 1.394 . S
C2423 C2424 1.516 . S
C2424 C2423 1.516 . S
C2424 C2425 1.502 . S
C2424 C2426 1.561 . S
C2424 C2427 1.526 . S
C2425 H2409 0.959 . S
C2425 H2410 0.959 . S
C2425 H2411 0.961 . S
C2425 C2424 1.502 . S
C2426 H2412 0.960 . S
C2426 H2413 0.961 . S
C2426 H2414 0.959 . S
C2426 C2424 1.561 . S
C2427 C2424 1.526 . S
C2427 C2428 1.396 . S
C2427 C2432 1.390 . S
C2428 C2422 1.465 . S
C2428 C2427 1.396 . S
C2428 C2429 1.399 . S
C2429 H2415 0.929 . S
C2429 C2428 1.399 . S
C2429 C2430 1.385 . S
C2430 H2416 0.931 . S
C2430 C2429 1.385 . S
C2430 C2431 1.389 . S
C2431 C2430 1.389 . S
C2431 C2432 1.387 . S
C2432 H2417 0.930 . S
C2432 C2427 1.390 . S
C2432 C2431 1.387 . S
H2433 C2445 0.930 . S
H2434 C2447 0.930 . S
H2435 C2448 0.930 . S
H2436 C2452 0.959 . S
H2437 C2452 0.959 . S
H2438 C2452 0.961 . S
H2439 C2453 0.960 . S
H2440 C2453 0.961 . S
H2441 C2453 0.959 . S
H2442 C2456 0.929 . S
H2443 C2457 0.931 . S
H2444 C2459 0.930 . S
C2445 H2433 0.930 . S
C2445 C2446 1.399 . S
C2445 C2450 1.399 . S
C2446 C2445 1.399 . S
C2446 C2447 1.376 . S
C2447 H2434 0.930 . S
C2447 C2446 1.376 . S
C2447 C2448 1.388 . S
C2448 H2435 0.930 . S
C2448 C2447 1.388 . S
C2448 C2449 1.390 . S
C2449 C2448 1.390 . S
C2449 C2450 1.394 . S
C2449 C2455 1.465 . S
C2450 C2445 1.399 . S
C2450 C2449 1.394 . S
C2450 C2451 1.516 . S
C2451 C2450 1.516 . S
C2451 C2452 1.502 . S
C2451 C2453 1.561 . S
C2451 C2454 1.526 . S
C2452 H2436 0.959 . S
C2452 H2437 0.959 . S
C2452 H2438 0.961 . S
C2452 C2451 1.502 . S
C2453 H2439 0.960 . S
C2453 H2440 0.961 . S
C2453 H2441 0.959 . S
C2453 C2451 1.561 . S
C2454 C2451 1.526 . S
C2454 C2455 1.396 . S
C2454 C2459 1.390 . S
C2455 C2449 1.465 . S
C2455 C2454 1.396 . S
C2455 C2456 1.399 . S
C2456 H2442 0.929 . S
C2456 C2455 1.399 . S
C2456 C2457 1.385 . S
C2457 H2443 0.931 . S
C2457 C2456 1.385 . S
C2457 C2458 1.389 . S
C2458 C2457 1.389 . S
C2458 C2459 1.387 . S
C2459 H2444 0.930 . S
C2459 C2454 1.390 . S
C2459 C2458 1.387 . S
H2460 C2472 0.930 . S
H2461 C2474 0.930 . S
H2462 C2475 0.930 . S
H2463 C2479 0.959 . S
H2464 C2479 0.959 . S
H2465 C2479 0.961 . S
H2466 C2480 0.960 . S
H2467 C2480 0.961 . S
H2468 C2480 0.959 . S
H2469 C2483 0.929 . S
H2470 C2484 0.931 . S
H2471 C2486 0.930 . S
C2472 H2460 0.930 . S
C2472 C2473 1.399 . S
C2472 C2477 1.399 . S
C2473 C2472 1.399 . S
C2473 C2474 1.376 . S
C2474 H2461 0.930 . S
C2474 C2473 1.376 . S
C2474 C2475 1.388 . S
C2475 H2462 0.930 . S
C2475 C2474 1.388 . S
C2475 C2476 1.390 . S
C2476 C2475 1.390 . S
C2476 C2477 1.394 . S
C2476 C2482 1.465 . S
C2477 C2472 1.399 . S
C2477 C2476 1.394 . S
C2477 C2478 1.516 . S
C2478 C2477 1.516 . S
C2478 C2479 1.502 . S
C2478 C2480 1.561 . S
C2478 C2481 1.526 . S
C2479 H2463 0.959 . S
C2479 H2464 0.959 . S
C2479 H2465 0.961 . S
C2479 C2478 1.502 . S
C2480 H2466 0.960 . S
C2480 H2467 0.961 . S
C2480 H2468 0.959 . S
C2480 C2478 1.561 . S
C2481 C2478 1.526 . S
C2481 C2482 1.396 . S
C2481 C2486 1.390 . S
C2482 C2476 1.465 . S
C2482 C2481 1.396 . S
C2482 C2483 1.399 . S
C2483 H2469 0.929 . S
C2483 C2482 1.399 . S
C2483 C2484 1.385 . S
C2484 H2470 0.931 . S
C2484 C2483 1.385 . S
C2484 C2485 1.389 . S
C2485 C2484 1.389 . S
C2485 C2486 1.387 . S
C2486 H2471 0.930 . S
C2486 C2481 1.390 . S
C2486 C2485 1.387 . S
H2487 C2499 0.930 . S
H2488 C2501 0.930 . S
H2489 C2502 0.930 . S
H2490 C2506 0.959 . S
H2491 C2506 0.959 . S
H2492 C2506 0.961 . S
H2493 C2507 0.960 . S
H2494 C2507 0.961 . S
H2495 C2507 0.959 . S
H2496 C2510 0.929 . S
H2497 C2511 0.931 . S
H2498 C2513 0.930 . S
C2499 H2487 0.930 . S
C2499 C2500 1.399 . S
C2499 C2504 1.399 . S
C2500 C2499 1.399 . S
C2500 C2501 1.376 . S
C2501 H2488 0.930 . S
C2501 C2500 1.376 . S
C2501 C2502 1.388 . S
C2502 H2489 0.930 . S
C2502 C2501 1.388 . S
C2502 C2503 1.390 . S
C2503 C2502 1.390 . S
C2503 C2504 1.394 . S
C2503 C2509 1.465 . S
C2504 C2499 1.399 . S
C2504 C2503 1.394 . S
C2504 C2505 1.516 . S
C2505 C2504 1.516 . S
C2505 C2506 1.502 . S
C2505 C2507 1.561 . S
C2505 C2508 1.526 . S
C2506 H2490 0.959 . S
C2506 H2491 0.959 . S
C2506 H2492 0.961 . S
C2506 C2505 1.502 . S
C2507 H2493 0.960 . S
C2507 H2494 0.961 . S
C2507 H2495 0.959 . S
C2507 C2505 1.561 . S
C2508 C2505 1.526 . S
C2508 C2509 1.396 . S
C2508 C2513 1.390 . S
C2509 C2503 1.465 . S
C2509 C2508 1.396 . S
C2509 C2510 1.399 . S
C2510 H2496 0.929 . S
C2510 C2509 1.399 . S
C2510 C2511 1.385 . S
C2511 H2497 0.931 . S
C2511 C2510 1.385 . S
C2511 C2512 1.389 . S
C2512 C2511 1.389 . S
C2512 C2513 1.387 . S
C2513 H2498 0.930 . S
C2513 C2508 1.390 . S
C2513 C2512 1.387 . S
H2514 C2526 0.930 . S
H2515 C2528 0.930 . S
H2516 C2529 0.930 . S
H2517 C2533 0.959 . S
H2518 C2533 0.959 . S
H2519 C2533 0.961 . S
H2520 C2534 0.960 . S
H2521 C2534 0.961 . S
H2522 C2534 0.959 . S
H2523 C2537 0.929 . S
H2524 C2538 0.931 . S
H2525 C2540 0.930 . S
C2526 H2514 0.930 . S
C2526 C2527 1.399 . S
C2526 C2531 1.399 . S
C2527 C2526 1.399 . S
C2527 C2528 1.376 . S
C2528 H2515 0.930 . S
C2528 C2527 1.376 . S
C2528 C2529 1.388 . S
C2529 H2516 0.930 . S
C2529 C2528 1.388 . S
C2529 C2530 1.390 . S
C2530 C2529 1.390 . S
C2530 C2531 1.394 . S
C2530 C2536 1.465 . S
C2531 C2526 1.399 . S
C2531 C2530 1.394 . S
C2531 C2532 1.516 . S
C2532 C2531 1.516 . S
C2532 C2533 1.502 . S
C2532 C2534 1.561 . S
C2532 C2535 1.526 . S
C2533 H2517 0.959 . S
C2533 H2518 0.959 . S
C2533 H2519 0.961 . S
C2533 C2532 1.502 . S
C2534 H2520 0.960 . S
C2534 H2521 0.961 . S
C2534 H2522 0.959 . S
C2534 C2532 1.561 . S
C2535 C2532 1.526 . S
C2535 C2536 1.396 . S
C2535 C2540 1.390 . S
C2536 C2530 1.465 . S
C2536 C2535 1.396 . S
C2536 C2537 1.399 . S
C2537 H2523 0.929 . S
C2537 C2536 1.399 . S
C2537 C2538 1.385 . S
C2538 H2524 0.931 . S
C2538 C2537 1.385 . S
C2538 C2539 1.389 . S
C2539 C2538 1.389 . S
C2539 C2540 1.387 . S
C2540 H2525 0.930 . S
C2540 C2535 1.390 . S
C2540 C2539 1.387 . S
H2541 C2553 0.930 . S
H2542 C2555 0.930 . S
H2543 C2556 0.930 . S
H2544 C2560 0.959 . S
H2545 C2560 0.959 . S
H2546 C2560 0.961 . S
H2547 C2561 0.960 . S
H2548 C2561 0.961 . S
H2549 C2561 0.959 . S
H2550 C2564 0.929 . S
H2551 C2565 0.931 . S
H2552 C2567 0.930 . S
C2553 H2541 0.930 . S
C2553 C2554 1.399 . S
C2553 C2558 1.399 . S
C2554 C2553 1.399 . S
C2554 C2555 1.376 . S
C2555 H2542 0.930 . S
C2555 C2554 1.376 . S
C2555 C2556 1.388 . S
C2556 H2543 0.930 . S
C2556 C2555 1.388 . S
C2556 C2557 1.390 . S
C2557 C2556 1.390 . S
C2557 C2558 1.394 . S
C2557 C2563 1.465 . S
C2558 C2553 1.399 . S
C2558 C2557 1.394 . S
C2558 C2559 1.516 . S
C2559 C2558 1.516 . S
C2559 C2560 1.502 . S
C2559 C2561 1.561 . S
C2559 C2562 1.526 . S
C2560 H2544 0.959 . S
C2560 H2545 0.959 . S
C2560 H2546 0.961 . S
C2560 C2559 1.502 . S
C2561 H2547 0.960 . S
C2561 H2548 0.961 . S
C2561 H2549 0.959 . S
C2561 C2559 1.561 . S
C2562 C2559 1.526 . S
C2562 C2563 1.396 . S
C2562 C2567 1.390 . S
C2563 C2557 1.465 . S
C2563 C2562 1.396 . S
C2563 C2564 1.399 . S
C2564 H2550 0.929 . S
C2564 C2563 1.399 . S
C2564 C2565 1.385 . S
C2565 H2551 0.931 . S
C2565 C2564 1.385 . S
C2565 C2566 1.389 . S
C2566 C2565 1.389 . S
C2566 C2567 1.387 . S
C2567 H2552 0.930 . S
C2567 C2562 1.390 . S
C2567 C2566 1.387 . S
H2568 C2580 0.930 . S
H2569 C2582 0.930 . S
H2570 C2583 0.930 . S
H2571 C2587 0.959 . S
H2572 C2587 0.959 . S
H2573 C2587 0.961 . S
H2574 C2588 0.960 . S
H2575 C2588 0.961 . S
H2576 C2588 0.959 . S
H2577 C2591 0.929 . S
H2578 C2592 0.931 . S
H2579 C2594 0.930 . S
C2580 H2568 0.930 . S
C2580 C2581 1.399 . S
C2580 C2585 1.399 . S
C2581 C2580 1.399 . S
C2581 C2582 1.376 . S
C2582 H2569 0.930 . S
C2582 C2581 1.376 . S
C2582 C2583 1.388 . S
C2583 H2570 0.930 . S
C2583 C2582 1.388 . S
C2583 C2584 1.390 . S
C2584 C2583 1.390 . S
C2584 C2585 1.394 . S
C2584 C2590 1.465 . S
C2585 C2580 1.399 . S
C2585 C2584 1.394 . S
C2585 C2586 1.516 . S
C2586 C2585 1.516 . S
C2586 C2587 1.502 . S
C2586 C2588 1.561 . S
C2586 C2589 1.526 . S
C2587 H2571 0.959 . S
C2587 H2572 0.959 . S
C2587 H2573 0.961 . S
C2587 C2586 1.502 . S
C2588 H2574 0.960 . S
C2588 H2575 0.961 . S
C2588 H2576 0.959 . S
C2588 C2586 1.561 . S
C2589 C2586 1.526 . S
C2589 C2590 1.396 . S
C2589 C2594 1.390 . S
C2590 C2584 1.465 . S
C2590 C2589 1.396 . S
C2590 C2591 1.399 . S
C2591 H2577 0.929 . S
C2591 C2590 1.399 . S
C2591 C2592 1.385 . S
C2592 H2578 0.931 . S
C2592 C2591 1.385 . S
C2592 C2593 1.389 . S
C2593 C2592 1.389 . S
C2593 C2594 1.387 . S
C2594 H2579 0.930 . S
C2594 C2589 1.390 . S
C2594 C2593 1.387 . S
H2595 C2607 0.930 . S
H2596 C2609 0.930 . S
H2597 C2610 0.930 . S
H2598 C2614 0.959 . S
H2599 C2614 0.959 . S
H2600 C2614 0.961 . S
H2601 C2615 0.960 . S
H2602 C2615 0.961 . S
H2603 C2615 0.959 . S
H2604 C2618 0.929 . S
H2605 C2619 0.931 . S
H2606 C2621 0.930 . S
C2607 H2595 0.930 . S
C2607 C2608 1.399 . S
C2607 C2612 1.399 . S
C2608 C2607 1.399 . S
C2608 C2609 1.376 . S
C2609 H2596 0.930 . S
C2609 C2608 1.376 . S
C2609 C2610 1.388 . S
C2610 H2597 0.930 . S
C2610 C2609 1.388 . S
C2610 C2611 1.390 . S
C2611 C2610 1.390 . S
C2611 C2612 1.394 . S
C2611 C2617 1.465 . S
C2612 C2607 1.399 . S
C2612 C2611 1.394 . S
C2612 C2613 1.516 . S
C2613 C2612 1.516 . S
C2613 C2614 1.502 . S
C2613 C2615 1.561 . S
C2613 C2616 1.526 . S
C2614 H2598 0.959 . S
C2614 H2599 0.959 . S
C2614 H2600 0.961 . S
C2614 C2613 1.502 . S
C2615 H2601 0.960 . S
C2615 H2602 0.961 . S
C2615 H2603 0.959 . S
C2615 C2613 1.561 . S
C2616 C2613 1.526 . S
C2616 C2617 1.396 . S
C2616 C2621 1.390 . S
C2617 C2611 1.465 . S
C2617 C2616 1.396 . S
C2617 C2618 1.399 . S
C2618 H2604 0.929 . S
C2618 C2617 1.399 . S
C2618 C2619 1.385 . S
C2619 H2605 0.931 . S
C2619 C2618 1.385 . S
C2619 C2620 1.389 . S
C2620 C2619 1.389 . S
C2620 C2621 1.387 . S
C2621 H2606 0.930 . S
C2621 C2616 1.390 . S
C2621 C2620 1.387 . S
H2622 C2634 0.930 . S
H2623 C2636 0.930 . S
H2624 C2637 0.930 . S
H2625 C2641 0.959 . S
H2626 C2641 0.959 . S
H2627 C2641 0.961 . S
H2628 C2642 0.960 . S
H2629 C2642 0.961 . S
H2630 C2642 0.959 . S
H2631 C2645 0.929 . S
H2632 C2646 0.931 . S
H2633 C2648 0.930 . S
C2634 H2622 0.930 . S
C2634 C2635 1.399 . S
C2634 C2639 1.399 . S
C2635 C2634 1.399 . S
C2635 C2636 1.376 . S
C2636 H2623 0.930 . S
C2636 C2635 1.376 . S
C2636 C2637 1.388 . S
C2637 H2624 0.930 . S
C2637 C2636 1.388 . S
C2637 C2638 1.390 . S
C2638 C2637 1.390 . S
C2638 C2639 1.394 . S
C2638 C2644 1.465 . S
C2639 C2634 1.399 . S
C2639 C2638 1.394 . S
C2639 C2640 1.516 . S
C2640 C2639 1.516 . S
C2640 C2641 1.502 . S
C2640 C2642 1.561 . S
C2640 C2643 1.526 . S
C2641 H2625 0.959 . S
C2641 H2626 0.959 . S
C2641 H2627 0.961 . S
C2641 C2640 1.502 . S
C2642 H2628 0.960 . S
C2642 H2629 0.961 . S
C2642 H2630 0.959 . S
C2642 C2640 1.561 . S
C2643 C2640 1.526 . S
C2643 C2644 1.396 . S
C2643 C2648 1.390 . S
C2644 C2638 1.465 . S
C2644 C2643 1.396 . S
C2644 C2645 1.399 . S
C2645 H2631 0.929 . S
C2645 C2644 1.399 . S
C2645 C2646 1.385 . S
C2646 H2632 0.931 . S
C2646 C2645 1.385 . S
C2646 C2647 1.389 . S
C2647 C2646 1.389 . S
C2647 C2648 1.387 . S
C2648 H2633 0.930 . S
C2648 C2643 1.390 . S
C2648 C2647 1.387 . S
H2649 C2661 0.930 . S
H2650 C2663 0.930 . S
H2651 C2664 0.930 . S
H2652 C2668 0.959 . S
H2653 C2668 0.959 . S
H2654 C2668 0.961 . S
H2655 C2669 0.960 . S
H2656 C2669 0.961 . S
H2657 C2669 0.959 . S
H2658 C2672 0.929 . S
H2659 C2673 0.931 . S
H2660 C2675 0.930 . S
C2661 H2649 0.930 . S
C2661 C2662 1.399 . S
C2661 C2666 1.399 . S
C2662 C2661 1.399 . S
C2662 C2663 1.376 . S
C2663 H2650 0.930 . S
C2663 C2662 1.376 . S
C2663 C2664 1.388 . S
C2664 H2651 0.930 . S
C2664 C2663 1.388 . S
C2664 C2665 1.390 . S
C2665 C2664 1.390 . S
C2665 C2666 1.394 . S
C2665 C2671 1.465 . S
C2666 C2661 1.399 . S
C2666 C2665 1.394 . S
C2666 C2667 1.516 . S
C2667 C2666 1.516 . S
C2667 C2668 1.502 . S
C2667 C2669 1.561 . S
C2667 C2670 1.526 . S
C2668 H2652 0.959 . S
C2668 H2653 0.959 . S
C2668 H2654 0.961 . S
C2668 C2667 1.502 . S
C2669 H2655 0.960 . S
C2669 H2656 0.961 . S
C2669 H2657 0.959 . S
C2669 C2667 1.561 . S
C2670 C2667 1.526 . S
C2670 C2671 1.396 . S
C2670 C2675 1.390 . S
C2671 C2665 1.465 . S
C2671 C2670 1.396 . S
C2671 C2672 1.399 . S
C2672 H2658 0.929 . S
C2672 C2671 1.399 . S
C2672 C2673 1.385 . S
C2673 H2659 0.931 . S
C2673 C2672 1.385 . S
C2673 C2674 1.389 . S
C2674 C2673 1.389 . S
C2674 C2675 1.387 . S
C2675 H2660 0.930 . S
C2675 C2670 1.390 . S
C2675 C2674 1.387 . S
H2676 C2688 0.930 . S
H2677 C2690 0.930 . S
H2678 C2691 0.930 . S
H2679 C2695 0.959 . S
H2680 C2695 0.959 . S
H2681 C2695 0.961 . S
H2682 C2696 0.960 . S
H2683 C2696 0.961 . S
H2684 C2696 0.959 . S
H2685 C2699 0.929 . S
H2686 C2700 0.931 . S
H2687 C2702 0.930 . S
C2688 H2676 0.930 . S
C2688 C2689 1.399 . S
C2688 C2693 1.399 . S
C2689 C2688 1.399 . S
C2689 C2690 1.376 . S
C2690 H2677 0.930 . S
C2690 C2689 1.376 . S
C2690 C2691 1.388 . S
C2691 H2678 0.930 . S
C2691 C2690 1.388 . S
C2691 C2692 1.390 . S
C2692 C2691 1.390 . S
C2692 C2693 1.394 . S
C2692 C2698 1.465 . S
C2693 C2688 1.399 . S
C2693 C2692 1.394 . S
C2693 C2694 1.516 . S
C2694 C2693 1.516 . S
C2694 C2695 1.502 . S
C2694 C2696 1.561 . S
C2694 C2697 1.526 . S
C2695 H2679 0.959 . S
C2695 H2680 0.959 . S
C2695 H2681 0.961 . S
C2695 C2694 1.502 . S
C2696 H2682 0.960 . S
C2696 H2683 0.961 . S
C2696 H2684 0.959 . S
C2696 C2694 1.561 . S
C2697 C2694 1.526 . S
C2697 C2698 1.396 . S
C2697 C2702 1.390 . S
C2698 C2692 1.465 . S
C2698 C2697 1.396 . S
C2698 C2699 1.399 . S
C2699 H2685 0.929 . S
C2699 C2698 1.399 . S
C2699 C2700 1.385 . S
C2700 H2686 0.931 . S
C2700 C2699 1.385 . S
C2700 C2701 1.389 . S
C2701 C2700 1.389 . S
C2701 C2702 1.387 . S
C2702 H2687 0.930 . S
C2702 C2697 1.390 . S
C2702 C2701 1.387 . S
H2703 C2715 0.930 . S
H2704 C2717 0.930 . S
H2705 C2718 0.930 . S
H2706 C2722 0.959 . S
H2707 C2722 0.959 . S
H2708 C2722 0.961 . S
H2709 C2723 0.960 . S
H2710 C2723 0.961 . S
H2711 C2723 0.959 . S
H2712 C2726 0.929 . S
H2713 C2727 0.931 . S
H2714 C2729 0.930 . S
C2715 H2703 0.930 . S
C2715 C2716 1.399 . S
C2715 C2720 1.399 . S
C2716 C2715 1.399 . S
C2716 C2717 1.376 . S
C2717 H2704 0.930 . S
C2717 C2716 1.376 . S
C2717 C2718 1.388 . S
C2718 H2705 0.930 . S
C2718 C2717 1.388 . S
C2718 C2719 1.390 . S
C2719 C2718 1.390 . S
C2719 C2720 1.394 . S
C2719 C2725 1.465 . S
C2720 C2715 1.399 . S
C2720 C2719 1.394 . S
C2720 C2721 1.516 . S
C2721 C2720 1.516 . S
C2721 C2722 1.502 . S
C2721 C2723 1.561 . S
C2721 C2724 1.526 . S
C2722 H2706 0.959 . S
C2722 H2707 0.959 . S
C2722 H2708 0.961 . S
C2722 C2721 1.502 . S
C2723 H2709 0.960 . S
C2723 H2710 0.961 . S
C2723 H2711 0.959 . S
C2723 C2721 1.561 . S
C2724 C2721 1.526 . S
C2724 C2725 1.396 . S
C2724 C2729 1.390 . S
C2725 C2719 1.465 . S
C2725 C2724 1.396 . S
C2725 C2726 1.399 . S
C2726 H2712 0.929 . S
C2726 C2725 1.399 . S
C2726 C2727 1.385 . S
C2727 H2713 0.931 . S
C2727 C2726 1.385 . S
C2727 C2728 1.389 . S
C2728 C2727 1.389 . S
C2728 C2729 1.387 . S
C2729 H2714 0.930 . S
C2729 C2724 1.390 . S
C2729 C2728 1.387 . S
H2730 C2742 0.930 . S
H2731 C2744 0.930 . S
H2732 C2745 0.930 . S
H2733 C2749 0.959 . S
H2734 C2749 0.959 . S
H2735 C2749 0.961 . S
H2736 C2750 0.960 . S
H2737 C2750 0.961 . S
H2738 C2750 0.959 . S
H2739 C2753 0.929 . S
H2740 C2754 0.931 . S
H2741 C2756 0.930 . S
C2742 H2730 0.930 . S
C2742 C2743 1.399 . S
C2742 C2747 1.399 . S
C2743 C2742 1.399 . S
C2743 C2744 1.376 . S
C2744 H2731 0.930 . S
C2744 C2743 1.376 . S
C2744 C2745 1.388 . S
C2745 H2732 0.930 . S
C2745 C2744 1.388 . S
C2745 C2746 1.390 . S
C2746 C2745 1.390 . S
C2746 C2747 1.394 . S
C2746 C2752 1.465 . S
C2747 C2742 1.399 . S
C2747 C2746 1.394 . S
C2747 C2748 1.516 . S
C2748 C2747 1.516 . S
C2748 C2749 1.502 . S
C2748 C2750 1.561 . S
C2748 C2751 1.526 . S
C2749 H2733 0.959 . S
C2749 H2734 0.959 . S
C2749 H2735 0.961 . S
C2749 C2748 1.502 . S
C2750 H2736 0.960 . S
C2750 H2737 0.961 . S
C2750 H2738 0.959 . S
C2750 C2748 1.561 . S
C2751 C2748 1.526 . S
C2751 C2752 1.396 . S
C2751 C2756 1.390 . S
C2752 C2746 1.465 . S
C2752 C2751 1.396 . S
C2752 C2753 1.399 . S
C2753 H2739 0.929 . S
C2753 C2752 1.399 . S
C2753 C2754 1.385 . S
C2754 H2740 0.931 . S
C2754 C2753 1.385 . S
C2754 C2755 1.389 . S
C2755 C2754 1.389 . S
C2755 C2756 1.387 . S
C2756 H2741 0.930 . S
C2756 C2751 1.390 . S
C2756 C2755 1.387 . S
H2757 C2769 0.930 . S
H2758 C2771 0.930 . S
H2759 C2772 0.930 . S
H2760 C2776 0.959 . S
H2761 C2776 0.959 . S
H2762 C2776 0.961 . S
H2763 C2777 0.960 . S
H2764 C2777 0.961 . S
H2765 C2777 0.959 . S
H2766 C2780 0.929 . S
H2767 C2781 0.931 . S
H2768 C2783 0.930 . S
C2769 H2757 0.930 . S
C2769 C2770 1.399 . S
C2769 C2774 1.399 . S
C2770 C2769 1.399 . S
C2770 C2771 1.376 . S
C2771 H2758 0.930 . S
C2771 C2770 1.376 . S
C2771 C2772 1.388 . S
C2772 H2759 0.930 . S
C2772 C2771 1.388 . S
C2772 C2773 1.390 . S
C2773 C2772 1.390 . S
C2773 C2774 1.394 . S
C2773 C2779 1.465 . S
C2774 C2769 1.399 . S
C2774 C2773 1.394 . S
C2774 C2775 1.516 . S
C2775 C2774 1.516 . S
C2775 C2776 1.502 . S
C2775 C2777 1.561 . S
C2775 C2778 1.526 . S
C2776 H2760 0.959 . S
C2776 H2761 0.959 . S
C2776 H2762 0.961 . S
C2776 C2775 1.502 . S
C2777 H2763 0.960 . S
C2777 H2764 0.961 . S
C2777 H2765 0.959 . S
C2777 C2775 1.561 . S
C2778 C2775 1.526 . S
C2778 C2779 1.396 . S
C2778 C2783 1.390 . S
C2779 C2773 1.465 . S
C2779 C2778 1.396 . S
C2779 C2780 1.399 . S
C2780 H2766 0.929 . S
C2780 C2779 1.399 . S
C2780 C2781 1.385 . S
C2781 H2767 0.931 . S
C2781 C2780 1.385 . S
C2781 C2782 1.389 . S
C2782 C2781 1.389 . S
C2782 C2783 1.387 . S
C2783 H2768 0.930 . S
C2783 C2778 1.390 . S
C2783 C2782 1.387 . S
H2784 C2796 0.930 . S
H2785 C2798 0.930 . S
H2786 C2799 0.930 . S
H2787 C2803 0.959 . S
H2788 C2803 0.959 . S
H2789 C2803 0.961 . S
H2790 C2804 0.960 . S
H2791 C2804 0.961 . S
H2792 C2804 0.959 . S
H2793 C2807 0.929 . S
H2794 C2808 0.931 . S
H2795 C2810 0.930 . S
C2796 H2784 0.930 . S
C2796 C2797 1.399 . S
C2796 C2801 1.399 . S
C2797 C2796 1.399 . S
C2797 C2798 1.376 . S
C2798 H2785 0.930 . S
C2798 C2797 1.376 . S
C2798 C2799 1.388 . S
C2799 H2786 0.930 . S
C2799 C2798 1.388 . S
C2799 C2800 1.390 . S
C2800 C2799 1.390 . S
C2800 C2801 1.394 . S
C2800 C2806 1.465 . S
C2801 C2796 1.399 . S
C2801 C2800 1.394 . S
C2801 C2802 1.516 . S
C2802 C2801 1.516 . S
C2802 C2803 1.502 . S
C2802 C2804 1.561 . S
C2802 C2805 1.526 . S
C2803 H2787 0.959 . S
C2803 H2788 0.959 . S
C2803 H2789 0.961 . S
C2803 C2802 1.502 . S
C2804 H2790 0.960 . S
C2804 H2791 0.961 . S
C2804 H2792 0.959 . S
C2804 C2802 1.561 . S
C2805 C2802 1.526 . S
C2805 C2806 1.396 . S
C2805 C2810 1.390 . S
C2806 C2800 1.465 . S
C2806 C2805 1.396 . S
C2806 C2807 1.399 . S
C2807 H2793 0.929 . S
C2807 C2806 1.399 . S
C2807 C2808 1.385 . S
C2808 H2794 0.931 . S
C2808 C2807 1.385 . S
C2808 C2809 1.389 . S
C2809 C2808 1.389 . S
C2809 C2810 1.387 . S
C2810 H2795 0.930 . S
C2810 C2805 1.390 . S
C2810 C2809 1.387 . S
H2811 C2823 0.930 . S
H2812 C2825 0.930 . S
H2813 C2826 0.930 . S
H2814 C2830 0.959 . S
H2815 C2830 0.959 . S
H2816 C2830 0.961 . S
H2817 C2831 0.960 . S
H2818 C2831 0.961 . S
H2819 C2831 0.959 . S
H2820 C2834 0.929 . S
H2821 C2835 0.931 . S
H2822 C2837 0.930 . S
C2823 H2811 0.930 . S
C2823 C2824 1.399 . S
C2823 C2828 1.399 . S
C2824 C2823 1.399 . S
C2824 C2825 1.376 . S
C2825 H2812 0.930 . S
C2825 C2824 1.376 . S
C2825 C2826 1.388 . S
C2826 H2813 0.930 . S
C2826 C2825 1.388 . S
C2826 C2827 1.390 . S
C2827 C2826 1.390 . S
C2827 C2828 1.394 . S
C2827 C2833 1.465 . S
C2828 C2823 1.399 . S
C2828 C2827 1.394 . S
C2828 C2829 1.516 . S
C2829 C2828 1.516 . S
C2829 C2830 1.502 . S
C2829 C2831 1.561 . S
C2829 C2832 1.526 . S
C2830 H2814 0.959 . S
C2830 H2815 0.959 . S
C2830 H2816 0.961 . S
C2830 C2829 1.502 . S
C2831 H2817 0.960 . S
C2831 H2818 0.961 . S
C2831 H2819 0.959 . S
C2831 C2829 1.561 . S
C2832 C2829 1.526 . S
C2832 C2833 1.396 . S
C2832 C2837 1.390 . S
C2833 C2827 1.465 . S
C2833 C2832 1.396 . S
C2833 C2834 1.399 . S
C2834 H2820 0.929 . S
C2834 C2833 1.399 . S
C2834 C2835 1.385 . S
C2835 H2821 0.931 . S
C2835 C2834 1.385 . S
C2835 C2836 1.389 . S
C2836 C2835 1.389 . S
C2836 C2837 1.387 . S
C2837 H2822 0.930 . S
C2837 C2832 1.390 . S
C2837 C2836 1.387 . S
H2838 C2850 0.930 . S
H2839 C2852 0.930 . S
H2840 C2853 0.930 . S
H2841 C2857 0.959 . S
H2842 C2857 0.959 . S
H2843 C2857 0.961 . S
H2844 C2858 0.960 . S
H2845 C2858 0.961 . S
H2846 C2858 0.959 . S
H2847 C2861 0.929 . S
H2848 C2862 0.931 . S
H2849 C2864 0.930 . S
C2850 H2838 0.930 . S
C2850 C2851 1.399 . S
C2850 C2855 1.399 . S
C2851 C2850 1.399 . S
C2851 C2852 1.376 . S
C2852 H2839 0.930 . S
C2852 C2851 1.376 . S
C2852 C2853 1.388 . S
C2853 H2840 0.930 . S
C2853 C2852 1.388 . S
C2853 C2854 1.390 . S
C2854 C2853 1.390 . S
C2854 C2855 1.394 . S
C2854 C2860 1.465 . S
C2855 C2850 1.399 . S
C2855 C2854 1.394 . S
C2855 C2856 1.516 . S
C2856 C2855 1.516 . S
C2856 C2857 1.502 . S
C2856 C2858 1.561 . S
C2856 C2859 1.526 . S
C2857 H2841 0.959 . S
C2857 H2842 0.959 . S
C2857 H2843 0.961 . S
C2857 C2856 1.502 . S
C2858 H2844 0.960 . S
C2858 H2845 0.961 . S
C2858 H2846 0.959 . S
C2858 C2856 1.561 . S
C2859 C2856 1.526 . S
C2859 C2860 1.396 . S
C2859 C2864 1.390 . S
C2860 C2854 1.465 . S
C2860 C2859 1.396 . S
C2860 C2861 1.399 . S
C2861 H2847 0.929 . S
C2861 C2860 1.399 . S
C2861 C2862 1.385 . S
C2862 H2848 0.931 . S
C2862 C2861 1.385 . S
C2862 C2863 1.389 . S
C2863 C2862 1.389 . S
C2863 C2864 1.387 . S
C2864 H2849 0.930 . S
C2864 C2859 1.390 . S
C2864 C2863 1.387 . S
H2865 C2877 0.930 . S
H2866 C2879 0.930 . S
H2867 C2880 0.930 . S
H2868 C2884 0.959 . S
H2869 C2884 0.959 . S
H2870 C2884 0.961 . S
H2871 C2885 0.960 . S
H2872 C2885 0.961 . S
H2873 C2885 0.959 . S
H2874 C2888 0.929 . S
H2875 C2889 0.931 . S
H2876 C2891 0.930 . S
C2877 H2865 0.930 . S
C2877 C2878 1.399 . S
C2877 C2882 1.399 . S
C2878 C2877 1.399 . S
C2878 C2879 1.376 . S
C2879 H2866 0.930 . S
C2879 C2878 1.376 . S
C2879 C2880 1.388 . S
C2880 H2867 0.930 . S
C2880 C2879 1.388 . S
C2880 C2881 1.390 . S
C2881 C2880 1.390 . S
C2881 C2882 1.394 . S
C2881 C2887 1.465 . S
C2882 C2877 1.399 . S
C2882 C2881 1.394 . S
C2882 C2883 1.516 . S
C2883 C2882 1.516 . S
C2883 C2884 1.502 . S
C2883 C2885 1.561 . S
C2883 C2886 1.526 . S
C2884 H2868 0.959 . S
C2884 H2869 0.959 . S
C2884 H2870 0.961 . S
C2884 C2883 1.502 . S
C2885 H2871 0.960 . S
C2885 H2872 0.961 . S
C2885 H2873 0.959 . S
C2885 C2883 1.561 . S
C2886 C2883 1.526 . S
C2886 C2887 1.396 . S
C2886 C2891 1.390 . S
C2887 C2881 1.465 . S
C2887 C2886 1.396 . S
C2887 C2888 1.399 . S
C2888 H2874 0.929 . S
C2888 C2887 1.399 . S
C2888 C2889 1.385 . S
C2889 H2875 0.931 . S
C2889 C2888 1.385 . S
C2889 C2890 1.389 . S
C2890 C2889 1.389 . S
C2890 C2891 1.387 . S
C2891 H2876 0.930 . S
C2891 C2886 1.390 . S
C2891 C2890 1.387 . S
H2892 C2904 0.930 . S
H2893 C2906 0.930 . S
H2894 C2907 0.930 . S
H2895 C2911 0.959 . S
H2896 C2911 0.959 . S
H2897 C2911 0.961 . S
H2898 C2912 0.960 . S
H2899 C2912 0.961 . S
H2900 C2912 0.959 . S
H2901 C2915 0.929 . S
H2902 C2916 0.931 . S
H2903 C2918 0.930 . S
C2904 H2892 0.930 . S
C2904 C2905 1.399 . S
C2904 C2909 1.399 . S
C2905 C2904 1.399 . S
C2905 C2906 1.376 . S
C2906 H2893 0.930 . S
C2906 C2905 1.376 . S
C2906 C2907 1.388 . S
C2907 H2894 0.930 . S
C2907 C2906 1.388 . S
C2907 C2908 1.390 . S
C2908 C2907 1.390 . S
C2908 C2909 1.394 . S
C2908 C2914 1.465 . S
C2909 C2904 1.399 . S
C2909 C2908 1.394 . S
C2909 C2910 1.516 . S
C2910 C2909 1.516 . S
C2910 C2911 1.502 . S
C2910 C2912 1.561 . S
C2910 C2913 1.526 . S
C2911 H2895 0.959 . S
C2911 H2896 0.959 . S
C2911 H2897 0.961 . S
C2911 C2910 1.502 . S
C2912 H2898 0.960 . S
C2912 H2899 0.961 . S
C2912 H2900 0.959 . S
C2912 C2910 1.561 . S
C2913 C2910 1.526 . S
C2913 C2914 1.396 . S
C2913 C2918 1.390 . S
C2914 C2908 1.465 . S
C2914 C2913 1.396 . S
C2914 C2915 1.399 . S
C2915 H2901 0.929 . S
C2915 C2914 1.399 . S
C2915 C2916 1.385 . S
C2916 H2902 0.931 . S
C2916 C2915 1.385 . S
C2916 C2917 1.389 . S
C2917 C2916 1.389 . S
C2917 C2918 1.387 . S
C2918 H2903 0.930 . S
C2918 C2913 1.390 . S
C2918 C2917 1.387 . S
H2919 C2931 0.930 . S
H2920 C2933 0.930 . S
H2921 C2934 0.930 . S
H2922 C2938 0.959 . S
H2923 C2938 0.959 . S
H2924 C2938 0.961 . S
H2925 C2939 0.960 . S
H2926 C2939 0.961 . S
H2927 C2939 0.959 . S
H2928 C2942 0.929 . S
H2929 C2943 0.931 . S
H2930 C2945 0.930 . S
C2931 H2919 0.930 . S
C2931 C2932 1.399 . S
C2931 C2936 1.399 . S
C2932 C2931 1.399 . S
C2932 C2933 1.376 . S
C2933 H2920 0.930 . S
C2933 C2932 1.376 . S
C2933 C2934 1.388 . S
C2934 H2921 0.930 . S
C2934 C2933 1.388 . S
C2934 C2935 1.390 . S
C2935 C2934 1.390 . S
C2935 C2936 1.394 . S
C2935 C2941 1.465 . S
C2936 C2931 1.399 . S
C2936 C2935 1.394 . S
C2936 C2937 1.516 . S
C2937 C2936 1.516 . S
C2937 C2938 1.502 . S
C2937 C2939 1.561 . S
C2937 C2940 1.526 . S
C2938 H2922 0.959 . S
C2938 H2923 0.959 . S
C2938 H2924 0.961 . S
C2938 C2937 1.502 . S
C2939 H2925 0.960 . S
C2939 H2926 0.961 . S
C2939 H2927 0.959 . S
C2939 C2937 1.561 . S
C2940 C2937 1.526 . S
C2940 C2941 1.396 . S
C2940 C2945 1.390 . S
C2941 C2935 1.465 . S
C2941 C2940 1.396 . S
C2941 C2942 1.399 . S
C2942 H2928 0.929 . S
C2942 C2941 1.399 . S
C2942 C2943 1.385 . S
C2943 H2929 0.931 . S
C2943 C2942 1.385 . S
C2943 C2944 1.389 . S
C2944 C2943 1.389 . S
C2944 C2945 1.387 . S
C2945 H2930 0.930 . S
C2945 C2940 1.390 . S
C2945 C2944 1.387 . S
H2946 C2958 0.930 . S
H2947 C2960 0.930 . S
H2948 C2961 0.930 . S
H2949 C2965 0.959 . S
H2950 C2965 0.959 . S
H2951 C2965 0.961 . S
H2952 C2966 0.960 . S
H2953 C2966 0.961 . S
H2954 C2966 0.959 . S
H2955 C2969 0.929 . S
H2956 C2970 0.931 . S
H2957 C2972 0.930 . S
C2958 H2946 0.930 . S
C2958 C2959 1.399 . S
C2958 C2963 1.399 . S
C2959 C2958 1.399 . S
C2959 C2960 1.376 . S
C2960 H2947 0.930 . S
C2960 C2959 1.376 . S
C2960 C2961 1.388 . S
C2961 H2948 0.930 . S
C2961 C2960 1.388 . S
C2961 C2962 1.390 . S
C2962 C2961 1.390 . S
C2962 C2963 1.394 . S
C2962 C2968 1.465 . S
C2963 C2958 1.399 . S
C2963 C2962 1.394 . S
C2963 C2964 1.516 . S
C2964 C2963 1.516 . S
C2964 C2965 1.502 . S
C2964 C2966 1.561 . S
C2964 C2967 1.526 . S
C2965 H2949 0.959 . S
C2965 H2950 0.959 . S
C2965 H2951 0.961 . S
C2965 C2964 1.502 . S
C2966 H2952 0.960 . S
C2966 H2953 0.961 . S
C2966 H2954 0.959 . S
C2966 C2964 1.561 . S
C2967 C2964 1.526 . S
C2967 C2968 1.396 . S
C2967 C2972 1.390 . S
C2968 C2962 1.465 . S
C2968 C2967 1.396 . S
C2968 C2969 1.399 . S
C2969 H2955 0.929 . S
C2969 C2968 1.399 . S
C2969 C2970 1.385 . S
C2970 H2956 0.931 . S
C2970 C2969 1.385 . S
C2970 C2971 1.389 . S
C2971 C2970 1.389 . S
C2971 C2972 1.387 . S
C2972 H2957 0.930 . S
C2972 C2967 1.390 . S
C2972 C2971 1.387 . S
H2973 C2985 0.930 . S
H2974 C2987 0.930 . S
H2975 C2988 0.930 . S
H2976 C2992 0.959 . S
H2977 C2992 0.959 . S
H2978 C2992 0.961 . S
H2979 C2993 0.960 . S
H2980 C2993 0.961 . S
H2981 C2993 0.959 . S
H2982 C2996 0.929 . S
H2983 C2997 0.931 . S
H2984 C2999 0.930 . S
C2985 H2973 0.930 . S
C2985 C2986 1.399 . S
C2985 C2990 1.399 . S
C2986 C2985 1.399 . S
C2986 C2987 1.376 . S
C2987 H2974 0.930 . S
C2987 C2986 1.376 . S
C2987 C2988 1.388 . S
C2988 H2975 0.930 . S
C2988 C2987 1.388 . S
C2988 C2989 1.390 . S
C2989 C2988 1.390 . S
C2989 C2990 1.394 . S
C2989 C2995 1.465 . S
C2990 C2985 1.399 . S
C2990 C2989 1.394 . S
C2990 C2991 1.516 . S
C2991 C2990 1.516 . S
C2991 C2992 1.502 . S
C2991 C2993 1.561 . S
C2991 C2994 1.526 . S
C2992 H2976 0.959 . S
C2992 H2977 0.959 . S
C2992 H2978 0.961 . S
C2992 C2991 1.502 . S
C2993 H2979 0.960 . S
C2993 H2980 0.961 . S
C2993 H2981 0.959 . S
C2993 C2991 1.561 . S
C2994 C2991 1.526 . S
C2994 C2995 1.396 . S
C2994 C2999 1.390 . S
C2995 C2989 1.465 . S
C2995 C2994 1.396 . S
C2995 C2996 1.399 . S
C2996 H2982 0.929 . S
C2996 C2995 1.399 . S
C2996 C2997 1.385 . S
C2997 H2983 0.931 . S
C2997 C2996 1.385 . S
C2997 C2998 1.389 . S
C2998 C2997 1.389 . S
C2998 C2999 1.387 . S
C2999 H2984 0.930 . S
C2999 C2994 1.390 . S
C2999 C2998 1.387 . S
H3000 C3012 0.930 . S
H3001 C3014 0.930 . S
H3002 C3015 0.930 . S
H3003 C3019 0.959 . S
H3004 C3019 0.959 . S
H3005 C3019 0.961 . S
H3006 C3020 0.960 . S
H3007 C3020 0.961 . S
H3008 C3020 0.959 . S
H3009 C3023 0.929 . S
H3010 C3024 0.931 . S
H3011 C3026 0.930 . S
C3012 H3000 0.930 . S
C3012 C3013 1.399 . S
C3012 C3017 1.399 . S
C3013 C3012 1.399 . S
C3013 C3014 1.376 . S
C3014 H3001 0.930 . S
C3014 C3013 1.376 . S
C3014 C3015 1.388 . S
C3015 H3002 0.930 . S
C3015 C3014 1.388 . S
C3015 C3016 1.390 . S
C3016 C3015 1.390 . S
C3016 C3017 1.394 . S
C3016 C3022 1.465 . S
C3017 C3012 1.399 . S
C3017 C3016 1.394 . S
C3017 C3018 1.516 . S
C3018 C3017 1.516 . S
C3018 C3019 1.502 . S
C3018 C3020 1.561 . S
C3018 C3021 1.526 . S
C3019 H3003 0.959 . S
C3019 H3004 0.959 . S
C3019 H3005 0.961 . S
C3019 C3018 1.502 . S
C3020 H3006 0.960 . S
C3020 H3007 0.961 . S
C3020 H3008 0.959 . S
C3020 C3018 1.561 . S
C3021 C3018 1.526 . S
C3021 C3022 1.396 . S
C3021 C3026 1.390 . S
C3022 C3016 1.465 . S
C3022 C3021 1.396 . S
C3022 C3023 1.399 . S
C3023 H3009 0.929 . S
C3023 C3022 1.399 . S
C3023 C3024 1.385 . S
C3024 H3010 0.931 . S
C3024 C3023 1.385 . S
C3024 C3025 1.389 . S
C3025 C3024 1.389 . S
C3025 C3026 1.387 . S
C3026 H3011 0.930 . S
C3026 C3021 1.390 . S
C3026 C3025 1.387 . S
H3027 C3039 0.930 . S
H3028 C3041 0.930 . S
H3029 C3042 0.930 . S
H3030 C3046 0.959 . S
H3031 C3046 0.959 . S
H3032 C3046 0.961 . S
H3033 C3047 0.960 . S
H3034 C3047 0.961 . S
H3035 C3047 0.959 . S
H3036 C3050 0.929 . S
H3037 C3051 0.931 . S
H3038 C3053 0.930 . S
C3039 H3027 0.930 . S
C3039 C3040 1.399 . S
C3039 C3044 1.399 . S
C3040 C3039 1.399 . S
C3040 C3041 1.376 . S
C3041 H3028 0.930 . S
C3041 C3040 1.376 . S
C3041 C3042 1.388 . S
C3042 H3029 0.930 . S
C3042 C3041 1.388 . S
C3042 C3043 1.390 . S
C3043 C3042 1.390 . S
C3043 C3044 1.394 . S
C3043 C3049 1.465 . S
C3044 C3039 1.399 . S
C3044 C3043 1.394 . S
C3044 C3045 1.516 . S
C3045 C3044 1.516 . S
C3045 C3046 1.502 . S
C3045 C3047 1.561 . S
C3045 C3048 1.526 . S
C3046 H3030 0.959 . S
C3046 H3031 0.959 . S
C3046 H3032 0.961 . S
C3046 C3045 1.502 . S
C3047 H3033 0.960 . S
C3047 H3034 0.961 . S
C3047 H3035 0.959 . S
C3047 C3045 1.561 . S
C3048 C3045 1.526 . S
C3048 C3049 1.396 . S
C3048 C3053 1.390 . S
C3049 C3043 1.465 . S
C3049 C3048 1.396 . S
C3049 C3050 1.399 . S
C3050 H3036 0.929 . S
C3050 C3049 1.399 . S
C3050 C3051 1.385 . S
C3051 H3037 0.931 . S
C3051 C3050 1.385 . S
C3051 C3052 1.389 . S
C3052 C3051 1.389 . S
C3052 C3053 1.387 . S
C3053 H3038 0.930 . S
C3053 C3048 1.390 . S
C3053 C3052 1.387 . S
H3054 C3066 0.930 . S
H3055 C3068 0.930 . S
H3056 C3069 0.930 . S
H3057 C3073 0.959 . S
H3058 C3073 0.959 . S
H3059 C3073 0.961 . S
H3060 C3074 0.960 . S
H3061 C3074 0.961 . S
H3062 C3074 0.959 . S
H3063 C3077 0.929 . S
H3064 C3078 0.931 . S
H3065 C3080 0.930 . S
C3066 H3054 0.930 . S
C3066 C3067 1.399 . S
C3066 C3071 1.399 . S
C3067 C3066 1.399 . S
C3067 C3068 1.376 . S
C3068 H3055 0.930 . S
C3068 C3067 1.376 . S
C3068 C3069 1.388 . S
C3069 H3056 0.930 . S
C3069 C3068 1.388 . S
C3069 C3070 1.390 . S
C3070 C3069 1.390 . S
C3070 C3071 1.394 . S
C3070 C3076 1.465 . S
C3071 C3066 1.399 . S
C3071 C3070 1.394 . S
C3071 C3072 1.516 . S
C3072 C3071 1.516 . S
C3072 C3073 1.502 . S
C3072 C3074 1.561 . S
C3072 C3075 1.526 . S
C3073 H3057 0.959 . S
C3073 H3058 0.959 . S
C3073 H3059 0.961 . S
C3073 C3072 1.502 . S
C3074 H3060 0.960 . S
C3074 H3061 0.961 . S
C3074 H3062 0.959 . S
C3074 C3072 1.561 . S
C3075 C3072 1.526 . S
C3075 C3076 1.396 . S
C3075 C3080 1.390 . S
C3076 C3070 1.465 . S
C3076 C3075 1.396 . S
C3076 C3077 1.399 . S
C3077 H3063 0.929 . S
C3077 C3076 1.399 . S
C3077 C3078 1.385 . S
C3078 H3064 0.931 . S
C3078 C3077 1.385 . S
C3078 C3079 1.389 . S
C3079 C3078 1.389 . S
C3079 C3080 1.387 . S
C3080 H3065 0.930 . S
C3080 C3075 1.390 . S
C3080 C3079 1.387 . S
H3081 C3093 0.930 . S
H3082 C3095 0.930 . S
H3083 C3096 0.930 . S
H3084 C3100 0.959 . S
H3085 C3100 0.959 . S
H3086 C3100 0.961 . S
H3087 C3101 0.960 . S
H3088 C3101 0.961 . S
H3089 C3101 0.959 . S
H3090 C3104 0.929 . S
H3091 C3105 0.931 . S
H3092 C3107 0.930 . S
C3093 H3081 0.930 . S
C3093 C3094 1.399 . S
C3093 C3098 1.399 . S
C3094 C3093 1.399 . S
C3094 C3095 1.376 . S
C3095 H3082 0.930 . S
C3095 C3094 1.376 . S
C3095 C3096 1.388 . S
C3096 H3083 0.930 . S
C3096 C3095 1.388 . S
C3096 C3097 1.390 . S
C3097 C3096 1.390 . S
C3097 C3098 1.394 . S
C3097 C3103 1.465 . S
C3098 C3093 1.399 . S
C3098 C3097 1.394 . S
C3098 C3099 1.516 . S
C3099 C3098 1.516 . S
C3099 C3100 1.502 . S
C3099 C3101 1.561 . S
C3099 C3102 1.526 . S
C3100 H3084 0.959 . S
C3100 H3085 0.959 . S
C3100 H3086 0.961 . S
C3100 C3099 1.502 . S
C3101 H3087 0.960 . S
C3101 H3088 0.961 . S
C3101 H3089 0.959 . S
C3101 C3099 1.561 . S
C3102 C3099 1.526 . S
C3102 C3103 1.396 . S
C3102 C3107 1.390 . S
C3103 C3097 1.465 . S
C3103 C3102 1.396 . S
C3103 C3104 1.399 . S
C3104 H3090 0.929 . S
C3104 C3103 1.399 . S
C3104 C3105 1.385 . S
C3105 H3091 0.931 . S
C3105 C3104 1.385 . S
C3105 C3106 1.389 . S
C3106 C3105 1.389 . S
C3106 C3107 1.387 . S
C3107 H3092 0.930 . S
C3107 C3102 1.390 . S
C3107 C3106 1.387 . S
H3108 C3120 0.930 . S
H3109 C3122 0.930 . S
H3110 C3123 0.930 . S
H3111 C3127 0.959 . S
H3112 C3127 0.959 . S
H3113 C3127 0.961 . S
H3114 C3128 0.960 . S
H3115 C3128 0.961 . S
H3116 C3128 0.959 . S
H3117 C3131 0.929 . S
H3118 C3132 0.931 . S
H3119 C3134 0.930 . S
C3120 H3108 0.930 . S
C3120 C3121 1.399 . S
C3120 C3125 1.399 . S
C3121 C3120 1.399 . S
C3121 C3122 1.376 . S
C3122 H3109 0.930 . S
C3122 C3121 1.376 . S
C3122 C3123 1.388 . S
C3123 H3110 0.930 . S
C3123 C3122 1.388 . S
C3123 C3124 1.390 . S
C3124 C3123 1.390 . S
C3124 C3125 1.394 . S
C3124 C3130 1.465 . S
C3125 C3120 1.399 . S
C3125 C3124 1.394 . S
C3125 C3126 1.516 . S
C3126 C3125 1.516 . S
C3126 C3127 1.502 . S
C3126 C3128 1.561 . S
C3126 C3129 1.526 . S
C3127 H3111 0.959 . S
C3127 H3112 0.959 . S
C3127 H3113 0.961 . S
C3127 C3126 1.502 . S
C3128 H3114 0.960 . S
C3128 H3115 0.961 . S
C3128 H3116 0.959 . S
C3128 C3126 1.561 . S
C3129 C3126 1.526 . S
C3129 C3130 1.396 . S
C3129 C3134 1.390 . S
C3130 C3124 1.465 . S
C3130 C3129 1.396 . S
C3130 C3131 1.399 . S
C3131 H3117 0.929 . S
C3131 C3130 1.399 . S
C3131 C3132 1.385 . S
C3132 H3118 0.931 . S
C3132 C3131 1.385 . S
C3132 C3133 1.389 . S
C3133 C3132 1.389 . S
C3133 C3134 1.387 . S
C3134 H3119 0.930 . S
C3134 C3129 1.390 . S
C3134 C3133 1.387 . S
H3135 C3147 0.930 . S
H3136 C3149 0.930 . S
H3137 C3150 0.930 . S
H3138 C3154 0.959 . S
H3139 C3154 0.959 . S
H3140 C3154 0.961 . S
H3141 C3155 0.960 . S
H3142 C3155 0.961 . S
H3143 C3155 0.959 . S
H3144 C3158 0.929 . S
H3145 C3159 0.931 . S
H3146 C3161 0.930 . S
C3147 H3135 0.930 . S
C3147 C3148 1.399 . S
C3147 C3152 1.399 . S
C3148 C3147 1.399 . S
C3148 C3149 1.376 . S
C3149 H3136 0.930 . S
C3149 C3148 1.376 . S
C3149 C3150 1.388 . S
C3150 H3137 0.930 . S
C3150 C3149 1.388 . S
C3150 C3151 1.390 . S
C3151 C3150 1.390 . S
C3151 C3152 1.394 . S
C3151 C3157 1.465 . S
C3152 C3147 1.399 . S
C3152 C3151 1.394 . S
C3152 C3153 1.516 . S
C3153 C3152 1.516 . S
C3153 C3154 1.502 . S
C3153 C3155 1.561 . S
C3153 C3156 1.526 . S
C3154 H3138 0.959 . S
C3154 H3139 0.959 . S
C3154 H3140 0.961 . S
C3154 C3153 1.502 . S
C3155 H3141 0.960 . S
C3155 H3142 0.961 . S
C3155 H3143 0.959 . S
C3155 C3153 1.561 . S
C3156 C3153 1.526 . S
C3156 C3157 1.396 . S
C3156 C3161 1.390 . S
C3157 C3151 1.465 . S
C3157 C3156 1.396 . S
C3157 C3158 1.399 . S
C3158 H3144 0.929 . S
C3158 C3157 1.399 . S
C3158 C3159 1.385 . S
C3159 H3145 0.931 . S
C3159 C3158 1.385 . S
C3159 C3160 1.389 . S
C3160 C3159 1.389 . S
C3160 C3161 1.387 . S
C3161 H3146 0.930 . S
C3161 C3156 1.390 . S
C3161 C3160 1.387 . S
H3162 C3174 0.930 . S
H3163 C3176 0.930 . S
H3164 C3177 0.930 . S
H3165 C3181 0.959 . S
H3166 C3181 0.959 . S
H3167 C3181 0.961 . S
H3168 C3182 0.960 . S
H3169 C3182 0.961 . S
H3170 C3182 0.959 . S
H3171 C3185 0.929 . S
H3172 C3186 0.931 . S
H3173 C3188 0.930 . S
C3174 H3162 0.930 . S
C3174 C3175 1.399 . S
C3174 C3179 1.399 . S
C3175 C3174 1.399 . S
C3175 C3176 1.376 . S
C3176 H3163 0.930 . S
C3176 C3175 1.376 . S
C3176 C3177 1.388 . S
C3177 H3164 0.930 . S
C3177 C3176 1.388 . S
C3177 C3178 1.390 . S
C3178 C3177 1.390 . S
C3178 C3179 1.394 . S
C3178 C3184 1.465 . S
C3179 C3174 1.399 . S
C3179 C3178 1.394 . S
C3179 C3180 1.516 . S
C3180 C3179 1.516 . S
C3180 C3181 1.502 . S
C3180 C3182 1.561 . S
C3180 C3183 1.526 . S
C3181 H3165 0.959 . S
C3181 H3166 0.959 . S
C3181 H3167 0.961 . S
C3181 C3180 1.502 . S
C3182 H3168 0.960 . S
C3182 H3169 0.961 . S
C3182 H3170 0.959 . S
C3182 C3180 1.561 . S
C3183 C3180 1.526 . S
C3183 C3184 1.396 . S
C3183 C3188 1.390 . S
C3184 C3178 1.465 . S
C3184 C3183 1.396 . S
C3184 C3185 1.399 . S
C3185 H3171 0.929 . S
C3185 C3184 1.399 . S
C3185 C3186 1.385 . S
C3186 H3172 0.931 . S
C3186 C3185 1.385 . S
C3186 C3187 1.389 . S
C3187 C3186 1.389 . S
C3187 C3188 1.387 . S
C3188 H3173 0.930 . S
C3188 C3183 1.390 . S
C3188 C3187 1.387 . S
H3189 C3201 0.930 . S
H3190 C3203 0.930 . S
H3191 C3204 0.930 . S
H3192 C3208 0.959 . S
H3193 C3208 0.959 . S
H3194 C3208 0.961 . S
H3195 C3209 0.960 . S
H3196 C3209 0.961 . S
H3197 C3209 0.959 . S
H3198 C3212 0.929 . S
H3199 C3213 0.931 . S
H3200 C3215 0.930 . S
C3201 H3189 0.930 . S
C3201 C3202 1.399 . S
C3201 C3206 1.399 . S
C3202 C3201 1.399 . S
C3202 C3203 1.376 . S
C3203 H3190 0.930 . S
C3203 C3202 1.376 . S
C3203 C3204 1.388 . S
C3204 H3191 0.930 . S
C3204 C3203 1.388 . S
C3204 C3205 1.390 . S
C3205 C3204 1.390 . S
C3205 C3206 1.394 . S
C3205 C3211 1.465 . S
C3206 C3201 1.399 . S
C3206 C3205 1.394 . S
C3206 C3207 1.516 . S
C3207 C3206 1.516 . S
C3207 C3208 1.502 . S
C3207 C3209 1.561 . S
C3207 C3210 1.526 . S
C3208 H3192 0.959 . S
C3208 H3193 0.959 . S
C3208 H3194 0.961 . S
C3208 C3207 1.502 . S
C3209 H3195 0.960 . S
C3209 H3196 0.961 . S
C3209 H3197 0.959 . S
C3209 C3207 1.561 . S
C3210 C3207 1.526 . S
C3210 C3211 1.396 . S
C3210 C3215 1.390 . S
C3211 C3205 1.465 . S
C3211 C3210 1.396 . S
C3211 C3212 1.399 . S
C3212 H3198 0.929 . S
C3212 C3211 1.399 . S
C3212 C3213 1.385 . S
C3213 H3199 0.931 . S
C3213 C3212 1.385 . S
C3213 C3214 1.389 . S
C3214 C3213 1.389 . S
C3214 C3215 1.387 . S
C3215 H3200 0.930 . S
C3215 C3210 1.390 . S
C3215 C3214 1.387 . S
C637 C364 1.094 . S
C649 C0 1.102 . S
C664 C13 1.106 . S
C676 C377 1.098 . S
C691 C390 1.064 . S
C703 C26 1.080 . S
C718 C39 0.989 . S
C730 C403 1.001 . S
C745 C312 0.994 . S
C757 C52 0.987 . S
C772 C65 1.019 . S
C784 C325 1.038 . S
C799 C338 1.104 . S
C811 C78 1.095 . S
C826 C91 1.032 . S
C838 C351 1.015 . S
C853 C494 1.105 . S
C865 C104 1.106 . S
C880 C507 1.026 . S
C892 C117 1.045 . S
C907 C468 1.102 . S
C919 C130 1.106 . S
C934 C143 1.063 . S
C946 C481 1.079 . S
C961 C442 0.984 . S
C973 C156 0.987 . S
C988 C455 1.009 . S
C1000 C169 0.996 . S
C1015 C182 1.042 . S
C1027 C416 1.024 . S
C1042 C429 1.048 . S
C1054 C195 1.030 . S
C1069 C208 0.986 . S
C1081 C585 0.996 . S
C1096 C559 1.021 . S
C1108 C221 1.040 . S
C1123 C572 1.098 . S
C1135 C234 1.104 . S
C1150 C533 1.039 . S
C1162 C247 1.058 . S
C1177 C546 0.986 . S
C1189 C260 0.985 . S
C1204 C273 1.107 . S
C1216 C520 1.103 . S
C1231 C286 1.061 . S
C1243 C611 1.078 . S
C1258 C598 1.106 . S
C1270 C299 1.105 . S
C1285 C99 1.305 . S
C1297 C8 1.319 . S
C1312 C60 1.375 . S
C1324 C21 1.336 . S
C1339 C73 1.308 . S
C1351 C34 1.341 . S
C1366 C86 1.380 . S
C1378 C47 1.392 . S
C1393 C268 1.317 . S
C1405 C112 1.306 . S
C1420 C229 1.393 . S
C1432 C125 1.381 . S
C1447 C242 1.331 . S
C1459 C138 1.371 . S
C1474 C255 1.308 . S
C1486 C151 1.341 . S
C1501 C307 1.362 . S
C1513 C164 1.323 . S
C1528 C281 1.393 . S
C1540 C177 1.373 . S
C1555 C190 1.314 . S
C1567 C294 1.307 . S
C1582 C216 1.309 . S
C1594 C203 1.311 . S
C1609 C411 1.381 . S
C1621 C320 1.370 . S
C1636 C372 1.310 . S
C1648 C333 1.306 . S
C1663 C346 1.305 . S
C1675 C385 1.306 . S
C1690 C359 1.310 . S
C1702 C398 1.306 . S
C1717 C424 1.327 . S
C1729 C580 1.340 . S
C1744 C437 1.392 . S
C1756 C541 1.393 . S
C1771 C554 1.321 . S
C1783 C450 1.313 . S
C1798 C567 1.392 . S
C1810 C463 1.393 . S
C1825 C619 1.305 . S
C1837 C476 1.306 . S
C1852 C593 1.315 . S
C1864 C489 1.309 . S
C1879 C606 1.347 . S
C1891 C502 1.361 . S
C1906 C515 1.386 . S
C1918 C528 1.391 . S
C1933 C10 1.017 . S
C1945 C109 0.973 . S
C1960 C122 0.869 . S
C1972 C23 1.017 . S
C1987 C135 0.838 . S
C1999 C36 1.044 . S
C2014 C148 0.947 . S
C2026 C49 1.079 . S
C2041 C62 1.011 . S
C2053 C161 0.912 . S
C2068 C174 0.837 . S
C2080 C75 1.043 . S
C2095 C88 1.066 . S
C2107 C187 1.034 . S
C2122 C200 1.039 . S
C2134 C101 1.062 . S
C2149 C213 0.911 . S
C2161 C114 1.012 . S
C2176 C304 1.039 . S
C2188 C127 1.051 . S
C2203 C140 1.030 . S
C2215 C278 1.013 . S
C2230 C153 1.011 . S
C2242 C291 0.918 . S
C2257 C166 1.058 . S
C2269 C226 1.038 . S
C2284 C179 1.017 . S
C2296 C239 0.974 . S
C2311 C192 1.047 . S
C2323 C252 0.842 . S
C2338 C205 1.011 . S
C2350 C265 0.912 . S
C2365 C218 1.064 . S
C2377 C5 1.036 . S
C2392 C231 1.060 . S
C2404 C57 0.863 . S
C2419 C244 1.033 . S
C2431 C70 0.839 . S
C2446 C257 1.020 . S
C2458 C83 0.985 . S
C2473 C270 1.047 . S
C2485 C96 0.843 . S
C2500 C283 1.053 . S
C2512 C31 0.850 . S
C2527 C44 0.889 . S
C2539 C296 1.069 . S
C2554 C18 0.924 . S
C2566 C309 1.076 . S
C2581 C421 0.896 . S
C2593 C322 1.015 . S
C2608 C434 1.008 . S
C2620 C335 1.048 . S
C2635 C447 0.903 . S
C2647 C348 1.016 . S
C2662 C460 0.878 . S
C2674 C361 1.047 . S
C2689 C473 1.034 . S
C2701 C374 1.079 . S
C2716 C387 1.080 . S
C2728 C486 1.006 . S
C2743 C499 0.845 . S
C2755 C400 1.013 . S
C2770 C413 1.049 . S
C2782 C512 1.010 . S
C2797 C525 1.036 . S
C2809 C426 1.065 . S
C2824 C439 1.036 . S
C2836 C616 0.978 . S
C2851 C452 1.021 . S
C2863 C590 0.931 . S
C2878 C603 1.038 . S
C2890 C465 1.077 . S
C2905 C538 0.836 . S
C2917 C478 1.019 . S
C2932 C491 1.045 . S
C2944 C551 0.876 . S
C2959 C504 1.080 . S
C2971 C564 1.005 . S
C2986 C577 0.879 . S
C2998 C517 1.013 . S
C3013 C317 0.871 . S
C3025 C530 1.044 . S
C3040 C369 0.907 . S
C3052 C543 1.057 . S
C3067 C382 0.983 . S
C3079 C556 1.076 . S
C3094 C569 1.013 . S
C3106 C395 0.844 . S
C3121 C408 0.850 . S
C3133 C582 1.033 . S
C3148 C343 1.023 . S
C3160 C595 1.080 . S
C3175 C608 1.080 . S
C3187 C356 1.007 . S
C3202 C330 1.039 . S
C3214 C621 1.069 . S
