# Generated by pormake.
# Topology uom, (4)-cn, num edge types: 1
# Building blocks:
#     Node 0, Type 0, BuildingBlock: NAWXER_clean_sbu_0, # of connection points: 4
#     Node 1, Type 0, BuildingBlock: NAWXER_clean_sbu_0, # of connection points: 4
#     Node 2, Type 0, BuildingBlock: NAWXER_clean_sbu_0, # of connection points: 4
#     Node 3, Type 0, BuildingBlock: NAWXER_clean_sbu_0, # of connection points: 4
#     Node 4, Type 0, BuildingBlock: NAWXER_clean_sbu_0, # of connection points: 4
#     Node 5, Type 0, BuildingBlock: NAWXER_clean_sbu_0, # of connection points: 4
#     Edge 6, Type (0, 0), BuildingBlock: CIFDUS_clean_linker_0, # of connection points: 2
#     Edge 7, Type (0, 0), BuildingBlock: CIFDUS_clean_linker_0, # of connection points: 2
#     Edge 8, Type (0, 0), BuildingBlock: CIFDUS_clean_linker_0, # of connection points: 2
#     Edge 9, Type (0, 0), BuildingBlock: CIFDUS_clean_linker_0, # of connection points: 2
#     Edge 10, Type (0, 0), BuildingBlock: CIFDUS_clean_linker_0, # of connection points: 2
#     Edge 11, Type (0, 0), BuildingBlock: CIFDUS_clean_linker_0, # of connection points: 2
#     Edge 12, Type (0, 0), BuildingBlock: CIFDUS_clean_linker_0, # of connection points: 2
#     Edge 13, Type (0, 0), BuildingBlock: CIFDUS_clean_linker_0, # of connection points: 2
#     Edge 14, Type (0, 0), BuildingBlock: CIFDUS_clean_linker_0, # of connection points: 2
#     Edge 15, Type (0, 0), BuildingBlock: CIFDUS_clean_linker_0, # of connection points: 2
#     Edge 16, Type (0, 0), BuildingBlock: CIFDUS_clean_linker_0, # of connection points: 2
#     Edge 17, Type (0, 0), BuildingBlock: CIFDUS_clean_linker_0, # of connection points: 2
# Relax obj value: 0.104
# Max RMSD: 0.115
# Mean RMSD: 0.115
data_MOF--net-uom--node1-NAWXER_clean_sbu_0--edge1-CIFDUS_clean_linker_0
_symmetry_space_group_name_H-M    P1
_symmetry_Int_Tables_number       1
_symmetry_cell_setting            triclinic
loop_
_symmetry_equiv_pos_as_xyz
'x, y, z'
_cell_length_a     25.551617
_cell_length_b     25.607145
_cell_length_c     32.545447
_cell_angle_alpha  90.135139
_cell_angle_beta   89.870186
_cell_angle_gamma 120.07553
loop_
_atom_site_label
_atom_site_type_symbol
_atom_site_fract_x
_atom_site_fract_y
_atom_site_fract_z
_atom_type_partial_charge
C0 C 0.21915 0.91816 1.01933 0.0
C1 C 0.28443 0.02477 0.15154 0.0
O2 O 0.25185 0.97564 1.01583 0.0
Zn3 Zn 0.29618 0.05373 0.05513 0.0
O4 O 0.20769 0.89383 0.05473 0.0
Zn5 Zn 0.25239 0.96876 0.08556 0.0
O6 O 0.19634 0.00675 0.07206 0.0
O7 O 0.25275 0.09528 1.04233 0.0
O8 O 0.25377 0.96805 0.14579 0.0
O9 O 0.30206 0.05992 0.12036 0.0
O10 O 0.37924 0.09033 1.03903 0.0
O11 O 0.34531 0.001 0.06793 0.0
C12 C 0.20152 0.05435 0.05531 0.0
C13 C 0.38827 0.04822 0.05073 0.0
C14 C 0.37479 0.39848 0.37271 0.0
C15 C 0.18259 0.20915 0.37505 0.0
O16 O 0.3776 0.3568 0.39267 0.0
Zn17 Zn 0.31756 0.26534 0.41105 0.0
O18 O 0.32495 0.38795 0.35697 0.0
Zn19 Zn 0.27701 0.30476 0.3736 0.0
O20 O 0.26749 0.3115 0.4377 0.0
O21 O 0.31344 0.27141 0.47138 0.0
O22 O 0.19276 0.25786 0.35767 0.0
O23 O 0.22465 0.20746 0.39529 0.0
O24 O 0.35109 0.21972 0.38472 0.0
O25 O 0.31493 0.25929 0.34054 0.0
C26 C 0.28232 0.29768 0.47177 0.0
C27 C 0.34031 0.22799 0.34784 0.0
C28 C 0.17094 0.34042 0.6923 0.0
C29 C 0.06612 0.31111 0.82448 0.0
O30 O 0.11326 0.31529 0.68923 0.0
Zn31 Zn 0.03586 0.28686 0.72839 0.0
O32 O 0.19584 0.35808 0.72732 0.0
Zn33 Zn 0.12125 0.33049 0.7586 0.0
O34 O 0.08172 0.23495 0.74917 0.0
O35 O -0.00698 0.20086 0.71905 0.0
O36 O 0.12295 0.33692 0.81867 0.0
O37 O 0.03063 0.29145 0.79346 0.0
O38 O -0.00026 0.3325 0.70976 0.0
O39 O 0.0886 0.38968 0.73901 0.0
C40 C 0.03352 0.19123 0.73365 0.0
C41 C 0.04137 0.38428 0.72111 0.0
C42 C 0.6881 0.02649 1.03978 0.0
C43 C 0.8766 0.02243 1.04167 0.0
O44 O 0.72956 0.06993 0.06082 0.0
Zn45 Zn 0.82067 0.10009 0.07987 0.0
O46 O 0.69864 0.9878 1.02306 0.0
Zn47 Zn 0.78135 0.02191 1.04062 0.0
O48 O 0.7724 0.0028 0.10433 0.0
O49 O 0.81301 0.08748 0.13983 0.0
O50 O 0.82789 0.98481 1.02366 0.0
O51 O 0.87846 0.06544 0.06301 0.0
O52 O 0.86732 0.18042 0.05565 0.0
O53 O 0.82818 0.10684 1.00961 0.0
C54 C 0.78565 0.03007 0.139 0.0
C55 C 0.85966 0.16312 1.01833 0.0
C56 C 0.89048 0.88402 0.3918 0.0
C57 C 0.69638 0.69868 0.3839 0.0
O58 O 0.8479 0.88859 0.40923 0.0
Zn59 Zn 0.75297 0.83221 0.42203 0.0
O60 O 0.88011 0.83348 0.37747 0.0
Zn61 Zn 0.79485 0.79026 0.38993 0.0
O62 O 0.76399 0.83866 0.35254 0.0
O63 O 0.72386 0.87907 0.39276 0.0
O64 O 0.74773 0.70825 0.37185 0.0
O65 O 0.69209 0.74073 0.4024 0.0
O66 O 0.75005 0.82775 0.48221 0.0
O67 O 0.79541 0.78222 0.45489 0.0
C68 C 0.73937 0.87139 0.35704 0.0
C69 C 0.77733 0.79808 0.48677 0.0
C70 C 0.05402 0.70165 0.7172 0.0
C71 C 0.05812 0.89346 0.72707 0.0
O72 O 0.00589 0.69605 0.73393 0.0
Zn73 Zn 0.97122 0.7543 0.7517 0.0
O74 O 0.09575 0.75339 0.70583 0.0
Zn75 Zn 0.05762 0.79844 0.7223 0.0
O76 O 0.06073 0.79519 0.78754 0.0
O77 O 0.96776 0.74837 0.81182 0.0
O78 O 0.09922 0.88447 0.7126 0.0
O79 O 0.00996 0.84933 0.74224 0.0
O80 O 0.89773 0.72557 0.71926 0.0
O81 O 0.98135 0.7668 0.68189 0.0
C82 C 0.02451 0.77549 0.81823 0.0
C83 C 0.92359 0.7412 0.68437 0.0
H84 H 0.35807 0.1422 0.17165 0.0
H85 H 0.24157 0.96778 0.22593 0.0
H86 H 0.2568 0.01499 0.29378 0.0
H87 H 0.29443 0.10774 0.33625 0.0
H88 H 0.40488 0.28134 0.27967 0.0
H89 H 0.40193 0.23265 0.21435 0.0
C90 C 0.33634 0.1142 0.1983 0.0
C91 C 0.2981 0.0515 0.19351 0.0
C92 C 0.34461 0.14171 0.23695 0.0
C93 C 0.27097 0.01614 0.22861 0.0
C94 C 0.27963 0.04317 0.26745 0.0
C95 C 0.31947 0.13453 0.30989 0.0
C96 C 0.35081 0.19793 0.31274 0.0
C97 C 0.31532 0.10612 0.27186 0.0
C98 C 0.38139 0.23249 0.27818 0.0
C99 C 0.37916 0.20467 0.24078 0.0
H100 H 0.32677 0.31275 0.55106 0.0
H101 H 0.18292 0.30803 0.47868 0.0
H102 H 0.13923 0.32545 0.53968 0.0
H103 H 0.13847 0.33814 0.6135 0.0
H104 H 0.2811 0.34542 0.68813 0.0
H105 H 0.32919 0.33237 0.62655 0.0
C106 C 0.28594 0.31559 0.54882 0.0
C107 C 0.25819 0.30886 0.51025 0.0
C108 C 0.26097 0.32662 0.58437 0.0
C109 C 0.20556 0.31328 0.5078 0.0
C110 C 0.18032 0.32323 0.54273 0.0
C111 C 0.18047 0.33753 0.61635 0.0
C112 C 0.20599 0.34251 0.65533 0.0
C113 C 0.20735 0.32962 0.5811 0.0
C114 C 0.2607 0.34212 0.65839 0.0
C115 C 0.28789 0.33406 0.62322 0.0
H116 H 0.98052 0.23688 1.00818 0.0
H117 H 0.80797 0.17849 0.95096 0.0
H118 H 0.85822 0.22611 0.88646 0.0
H119 H 0.94933 0.27175 0.84429 0.0
H120 H 0.12254 0.32443 0.899 0.0
H121 H 0.07428 0.29223 0.96655 0.0
C122 C 0.95435 0.23667 0.98191 0.0
C123 C 0.89078 0.20528 0.98427 0.0
C124 C 0.98361 0.26192 0.94432 0.0
C125 C 0.85696 0.2033 0.94983 0.0
C126 C 0.88566 0.22996 0.9129 0.0
C127 C 0.97686 0.27693 0.87101 0.0
C128 C 0.03944 0.29976 0.8664 0.0
C129 C 0.94871 0.25738 0.90941 0.0
C130 C 0.07427 0.30674 0.90156 0.0
C131 C 0.04663 0.28818 0.9402 0.0
H132 H 0.77357 0.05951 0.21893 0.0
H133 H 0.76642 0.91671 0.14382 0.0
H134 H 0.74573 0.85362 0.20392 0.0
H135 H 0.73478 0.83978 0.27779 0.0
H136 H 0.74002 0.97918 0.35508 0.0
H137 H 0.7547 0.04188 0.29435 0.0
C138 C 0.76734 0.01457 0.21587 0.0
C139 C 0.7719 -0.00681 0.17683 0.0
C140 C 0.75455 0.97754 0.2509 0.0
C141 C 0.76305 0.9345 0.17333 0.0
C142 C 0.75119 0.89816 0.20774 0.0
C143 C 0.7383 0.88357 0.28137 0.0
C144 C 0.73653 0.90485 0.32084 0.0
C145 C 0.74736 0.91931 0.24662 0.0
C146 C 0.74073 0.96152 0.32494 0.0
C147 C 0.74979 -0.00236 0.29025 0.0
H148 H 0.83823 0.77359 0.67215 0.0
H149 H 0.93592 0.69877 0.61131 0.0
H150 H 0.89479 0.70525 0.54507 0.0
H151 H 0.8395 0.74082 0.50395 0.0
H152 H 0.74714 0.82314 0.56278 0.0
H153 H 0.77758 0.80516 0.63027 0.0
C154 C 0.84905 0.75732 0.64443 0.0
C155 C 0.88935 0.73498 0.64648 0.0
C156 C 0.82709 0.76355 0.6061 0.0
C157 C 0.90455 0.71557 0.61037 0.0
C158 C 0.88137 0.71965 0.57252 0.0
C159 C 0.82541 0.75448 0.53145 0.0
C160 C 0.79131 0.78369 0.52815 0.0
C161 C 0.84396 0.74503 0.5699 0.0
C162 C 0.77359 0.80083 0.56432 0.0
C163 C 0.79101 0.79054 0.60295 0.0
H164 H 0.10043 0.83742 1.00508 0.0
H165 H 0.27706 0.92311 0.94897 0.0
H166 H 0.23192 0.88112 0.88218 0.0
H167 H 0.14278 0.82964 0.83888 0.0
H168 H 0.96451 0.74957 0.89258 0.0
H169 H 0.00953 0.77945 0.96119 0.0
C170 C 0.12884 0.84527 0.97833 0.0
C171 C 0.19197 0.8825 0.9818 0.0
C172 C 0.10224 0.82296 0.93959 0.0
C173 C 0.22845 0.89403 0.94691 0.0
C174 C 0.20263 0.87041 0.90874 0.0
C175 C 0.11346 0.81808 0.86552 0.0
C176 C 0.05023 0.7878 0.86042 0.0
C177 C 0.13959 0.83635 0.90454 0.0
C178 C 0.01328 0.77305 0.89551 0.0
C179 C 0.03905 0.79021 0.93476 0.0
H180 H 0.0874 0.96298 1.04444 0.0
H181 H 0.19404 0.15697 0.05315 0.0
H182 H 0.10211 0.16396 0.04786 0.0
H183 H -0.00854 0.11436 1.04432 0.0
H184 H 0.88502 0.92077 1.03227 0.0
H185 H 0.97733 0.91397 1.03481 0.0
C186 C 0.09041 0.00677 1.04519 0.0
C187 C 0.14705 0.05941 0.04989 0.0
C188 C 0.03769 0.01037 1.04145 0.0
C189 C 0.15078 0.11595 0.0498 0.0
C190 C 0.09833 0.11989 0.04685 0.0
C191 C -0.01144 0.07069 1.04207 0.0
C192 C 0.93173 0.01799 1.03868 0.0
C193 C 0.04157 0.06734 1.04321 0.0
C194 C 0.9284 0.96183 1.03494 0.0
C195 C 0.98104 0.95798 1.03661 0.0
H196 H 0.9124 -0.00226 0.38232 0.0
H197 H 0.00114 0.89229 0.3881 0.0
H198 H 0.09984 0.98438 0.38155 0.0
H199 H 0.16034 0.09477 0.37727 0.0
H200 H 0.07165 0.19997 0.36808 0.0
H201 H 0.97273 0.10756 0.37233 0.0
C202 C 0.95344 -0.00497 0.38225 0.0
C203 C 0.94993 0.93868 0.38641 0.0
C204 C 0.00958 0.04782 0.37769 0.0
C205 C 0.00303 0.93534 0.3852 0.0
C206 C 0.05928 0.98787 0.38149 0.0
C207 C 0.11928 0.09738 0.37601 0.0
C208 C 0.12296 0.15391 0.37288 0.0
C209 C 0.06301 0.04431 0.37816 0.0
C210 C 0.06969 0.15684 0.37047 0.0
C211 C 0.01332 0.10414 0.37315 0.0
H212 H 0.12395 0.16573 0.73116 0.0
H213 H 0.92943 0.08184 0.73002 0.0
H214 H 0.92026 0.98197 0.72763 0.0
H215 H 0.9677 0.91906 0.72726 0.0
H216 H 0.16222 0.00304 0.72467 0.0
H217 H 0.17139 0.10291 0.72688 0.0
C218 C 0.07953 0.12553 0.73055 0.0
C219 C 0.02735 0.13089 0.73132 0.0
C220 C 0.07473 0.06862 0.72842 0.0
C221 C 0.97014 0.07867 0.72961 0.0
C222 C 0.96494 0.0217 0.72829 0.0
C223 C 0.01213 0.95926 0.72722 0.0
C224 C 0.06429 0.95388 0.72626 0.0
C225 C 0.01693 0.01622 0.72793 0.0
C226 C 0.1215 0.00618 0.72544 0.0
C227 C 0.12671 0.06316 0.72684 0.0
H228 H 0.66165 0.11627 1.04301 0.0
H229 H 0.57934 0.92323 1.03047 0.0
H230 H 0.47871 0.91272 1.03249 0.0
H231 H 0.41428 0.95837 1.04107 0.0
H232 H 0.49714 0.15197 0.0493 0.0
H233 H 0.59752 0.16244 1.04562 0.0
C234 C 0.62162 0.07196 1.04047 0.0
C235 C 0.62772 0.02055 1.03695 0.0
C236 C 0.56415 0.0664 1.04106 0.0
C237 C 0.57568 0.96346 1.0331 0.0
C238 C 0.51819 0.95742 1.03447 0.0
C239 C 0.4544 0.0028 1.04191 0.0
C240 C 0.4485 0.0543 1.04585 0.0
C241 C 0.5119 0.00852 1.03898 0.0
C242 C 0.50064 0.11169 1.04626 0.0
C243 C 0.558 0.11769 1.04428 0.0
H244 H 0.57976 0.67227 0.3763 0.0
H245 H 0.69187 0.59051 0.37893 0.0
H246 H 0.60212 0.49023 0.3746 0.0
H247 H 0.4916 0.42568 0.37326 0.0
H248 H 0.37931 0.5069 0.3663 0.0
H249 H 0.46926 0.60759 0.36873 0.0
C250 C 0.58441 0.63243 0.37574 0.0
C251 C 0.64219 0.63863 0.37832 0.0
C252 C 0.53266 0.57495 0.37246 0.0
C253 C 0.64782 0.58683 0.37695 0.0
C254 C 0.59654 0.5295 0.3746 0.0
C255 C 0.48693 0.46549 0.37201 0.0
C256 C 0.42904 0.45904 0.36998 0.0
C257 C 0.53875 0.52302 0.37282 0.0
C258 C 0.4235 0.51084 0.36778 0.0
C259 C 0.47485 0.56834 0.36938 0.0
H260 H 0.96616 0.58396 0.71295 0.0
H261 H 0.15995 0.7003 0.71332 0.0
H262 H 0.17339 0.61224 0.71361 0.0
H263 H 0.12985 0.50207 0.71737 0.0
H264 H 0.9361 0.38591 0.71339 0.0
H265 H 0.92285 0.47392 0.71066 0.0
C266 C 0.01132 0.58997 0.71284 0.0
C267 C 0.06196 0.64848 0.71348 0.0
C268 C 0.0187 0.53919 0.71248 0.0
C269 C 0.12022 0.65568 0.71277 0.0
C270 C 0.12795 0.60537 0.71311 0.0
C271 C 0.08478 0.4961 0.71567 0.0
C272 C 0.03403 0.43762 0.71595 0.0
C273 C 0.0775 0.54691 0.71354 0.0
C274 C 0.97591 0.43047 0.71317 0.0
C275 C 0.96827 0.48077 0.71177 0.0
loop_
_geom_bond_atom_site_label_1
_geom_bond_atom_site_label_2
_geom_bond_distance
_geom_bond_site_symmetry_2
_ccdc_geom_bond_type
C0 O2 1.247 . S
C0 O4 1.258 . S
C1 O8 1.247 . S
C1 O9 1.258 . S
O2 C0 1.247 . S
O2 Zn3 2.028 1_556 S
Zn3 O2 2.028 1_554 S
Zn3 O7 2.035 . S
Zn3 O9 2.035 . S
Zn3 O10 2.028 . S
O4 C0 1.258 . S
O4 Zn5 2.035 1_556 S
Zn5 O4 2.035 1_554 S
Zn5 O6 2.028 . S
Zn5 O8 2.028 . S
Zn5 O11 2.035 . S
O6 Zn5 2.028 . S
O6 C12 1.247 . S
O7 Zn3 2.035 . S
O7 C12 1.258 . S
O8 C1 1.247 . S
O8 Zn5 2.028 . S
O9 C1 1.258 . S
O9 Zn3 2.035 . S
O10 Zn3 2.028 . S
O10 C13 1.247 . S
O11 Zn5 2.035 . S
O11 C13 1.258 . S
C12 O6 1.247 . S
C12 O7 1.258 . S
C13 O10 1.247 . S
C13 O11 1.258 . S
C14 O16 1.247 . S
C14 O18 1.258 . S
C15 O22 1.247 . S
C15 O23 1.258 . S
O16 C14 1.247 . S
O16 Zn17 2.028 . S
Zn17 O16 2.028 . S
Zn17 O21 2.035 . S
Zn17 O23 2.035 . S
Zn17 O24 2.028 . S
O18 C14 1.258 . S
O18 Zn19 2.035 . S
Zn19 O18 2.035 . S
Zn19 O20 2.028 . S
Zn19 O22 2.028 . S
Zn19 O25 2.035 . S
O20 Zn19 2.028 . S
O20 C26 1.247 . S
O21 Zn17 2.035 . S
O21 C26 1.258 . S
O22 C15 1.247 . S
O22 Zn19 2.028 . S
O23 C15 1.258 . S
O23 Zn17 2.035 . S
O24 Zn17 2.028 . S
O24 C27 1.247 . S
O25 Zn19 2.035 . S
O25 C27 1.258 . S
C26 O20 1.247 . S
C26 O21 1.258 . S
C27 O24 1.247 . S
C27 O25 1.258 . S
C28 O30 1.247 1_455 S
C28 O32 1.258 . S
C29 O36 1.247 1_655 S
C29 O37 1.258 . S
O30 C28 1.247 1_655 S
O30 Zn31 2.028 . S
Zn31 O30 2.028 . S
Zn31 O35 2.035 . S
Zn31 O37 2.035 . S
Zn31 O38 2.028 . S
O32 C28 1.258 . S
O32 Zn33 2.035 . S
Zn33 O32 2.035 . S
Zn33 O34 2.028 . S
Zn33 O36 2.028 . S
Zn33 O39 2.035 . S
O34 Zn33 2.028 . S
O34 C40 1.247 . S
O35 Zn31 2.035 . S
O35 C40 1.258 1_655 S
O36 C29 1.247 1_455 S
O36 Zn33 2.028 . S
O37 C29 1.258 . S
O37 Zn31 2.035 . S
O38 Zn31 2.028 . S
O38 C41 1.247 1_655 S
O39 Zn33 2.035 . S
O39 C41 1.258 . S
C40 O34 1.247 . S
C40 O35 1.258 1_455 S
C41 O38 1.247 1_455 S
C41 O39 1.258 . S
C42 O44 1.247 . S
C42 O46 1.258 1_545 S
C43 O50 1.247 1_545 S
C43 O51 1.258 . S
O44 C42 1.247 . S
O44 Zn45 2.028 . S
Zn45 O44 2.028 . S
Zn45 O49 2.035 . S
Zn45 O51 2.035 . S
Zn45 O52 2.028 1_554 S
O46 C42 1.258 1_565 S
O46 Zn47 2.035 . S
Zn47 O46 2.035 . S
Zn47 O48 2.028 . S
Zn47 O50 2.028 . S
Zn47 O53 2.035 1_554 S
O48 Zn47 2.028 . S
O48 C54 1.247 . S
O49 Zn45 2.035 . S
O49 C54 1.258 1_545 S
O50 C43 1.247 1_565 S
O50 Zn47 2.028 . S
O51 C43 1.258 . S
O51 Zn45 2.035 . S
O52 Zn45 2.028 1_556 S
O52 C55 1.247 . S
O53 Zn47 2.035 1_556 S
O53 C55 1.258 1_565 S
C54 O48 1.247 . S
C54 O49 1.258 1_565 S
C55 O52 1.247 . S
C55 O53 1.258 1_545 S
C56 O58 1.247 . S
C56 O60 1.258 . S
C57 O64 1.247 . S
C57 O65 1.258 . S
O58 C56 1.247 . S
O58 Zn59 2.028 . S
Zn59 O58 2.028 . S
Zn59 O63 2.035 . S
Zn59 O65 2.035 . S
Zn59 O66 2.028 . S
O60 C56 1.258 . S
O60 Zn61 2.035 . S
Zn61 O60 2.035 . S
Zn61 O62 2.028 . S
Zn61 O64 2.028 . S
Zn61 O67 2.035 . S
O62 Zn61 2.028 . S
O62 C68 1.247 . S
O63 Zn59 2.035 . S
O63 C68 1.258 . S
O64 C57 1.247 . S
O64 Zn61 2.028 . S
O65 C57 1.258 . S
O65 Zn59 2.035 . S
O66 Zn59 2.028 . S
O66 C69 1.247 . S
O67 Zn61 2.035 . S
O67 C69 1.258 . S
C68 O62 1.247 . S
C68 O63 1.258 . S
C69 O66 1.247 . S
C69 O67 1.258 . S
C70 O72 1.247 . S
C70 O74 1.258 . S
C71 O78 1.247 . S
C71 O79 1.258 . S
O72 C70 1.247 . S
O72 Zn73 2.028 . S
Zn73 O72 2.028 . S
Zn73 O77 2.035 . S
Zn73 O79 2.035 . S
Zn73 O80 2.028 . S
O74 C70 1.258 . S
O74 Zn75 2.035 . S
Zn75 O74 2.035 . S
Zn75 O76 2.028 . S
Zn75 O78 2.028 . S
Zn75 O81 2.035 . S
O76 Zn75 2.028 . S
O76 C82 1.247 . S
O77 Zn73 2.035 . S
O77 C82 1.258 . S
O78 C71 1.247 . S
O78 Zn75 2.028 . S
O79 C71 1.258 . S
O79 Zn73 2.035 . S
O80 Zn73 2.028 . S
O80 C83 1.247 . S
O81 Zn75 2.035 . S
O81 C83 1.258 . S
C82 O76 1.247 . S
C82 O77 1.258 . S
C83 O80 1.247 . S
C83 O81 1.258 . S
H84 C90 0.930 . S
H85 C93 0.930 . S
H86 C94 0.930 . S
H87 C95 0.930 . S
H88 C98 0.930 . S
H89 C99 0.930 . S
C90 H84 0.930 . S
C90 C91 1.355 . S
C90 C92 1.415 . S
C91 C90 1.355 . S
C91 C93 1.419 . S
C92 C90 1.415 . S
C92 C97 1.425 . S
C92 C99 1.409 . S
C93 H85 0.930 . S
C93 C91 1.419 . S
C93 C94 1.362 . S
C94 H86 0.930 . S
C94 C93 1.362 . S
C94 C97 1.409 . S
C95 H87 0.930 . S
C95 C96 1.355 . S
C95 C97 1.415 . S
C96 C95 1.355 . S
C96 C98 1.419 . S
C97 C92 1.425 . S
C97 C94 1.409 . S
C97 C95 1.415 . S
C98 H88 0.930 . S
C98 C96 1.419 . S
C98 C99 1.362 . S
C99 H89 0.930 . S
C99 C92 1.409 . S
C99 C98 1.362 . S
H100 C106 0.930 . S
H101 C109 0.930 . S
H102 C110 0.930 . S
H103 C111 0.930 . S
H104 C114 0.930 . S
H105 C115 0.930 . S
C106 H100 0.930 . S
C106 C107 1.355 . S
C106 C108 1.415 . S
C107 C106 1.355 . S
C107 C109 1.419 . S
C108 C106 1.415 . S
C108 C113 1.425 . S
C108 C115 1.409 . S
C109 H101 0.930 . S
C109 C107 1.419 . S
C109 C110 1.362 . S
C110 H102 0.930 . S
C110 C109 1.362 . S
C110 C113 1.409 . S
C111 H103 0.930 . S
C111 C112 1.355 . S
C111 C113 1.415 . S
C112 C111 1.355 . S
C112 C114 1.419 . S
C113 C108 1.425 . S
C113 C110 1.409 . S
C113 C111 1.415 . S
C114 H104 0.930 . S
C114 C112 1.419 . S
C114 C115 1.362 . S
C115 H105 0.930 . S
C115 C108 1.409 . S
C115 C114 1.362 . S
H116 C122 0.930 . S
H117 C125 0.930 . S
H118 C126 0.930 . S
H119 C127 0.930 . S
H120 C130 0.930 1_455 S
H121 C131 0.930 . S
C122 H116 0.930 . S
C122 C123 1.355 . S
C122 C124 1.415 . S
C123 C122 1.355 . S
C123 C125 1.419 . S
C124 C122 1.415 . S
C124 C129 1.425 . S
C124 C131 1.409 . S
C125 H117 0.930 . S
C125 C123 1.419 . S
C125 C126 1.362 . S
C126 H118 0.930 . S
C126 C125 1.362 . S
C126 C129 1.409 . S
C127 H119 0.930 . S
C127 C128 1.355 . S
C127 C129 1.415 . S
C128 C127 1.355 . S
C128 C130 1.419 . S
C129 C124 1.425 . S
C129 C126 1.409 . S
C129 C127 1.415 . S
C130 H120 0.930 1_655 S
C130 C128 1.419 . S
C130 C131 1.362 . S
C131 H121 0.930 . S
C131 C124 1.409 . S
C131 C130 1.362 . S
H132 C138 0.930 . S
H133 C141 0.930 . S
H134 C142 0.930 . S
H135 C143 0.930 . S
H136 C146 0.930 . S
H137 C147 0.930 . S
C138 H132 0.930 . S
C138 C139 1.355 . S
C138 C140 1.415 . S
C139 C138 1.355 . S
C139 C141 1.419 . S
C140 C138 1.415 . S
C140 C145 1.425 . S
C140 C147 1.409 . S
C141 H133 0.930 . S
C141 C139 1.419 . S
C141 C142 1.362 . S
C142 H134 0.930 . S
C142 C141 1.362 . S
C142 C145 1.409 . S
C143 H135 0.930 . S
C143 C144 1.355 . S
C143 C145 1.415 . S
C144 C143 1.355 . S
C144 C146 1.419 . S
C145 C140 1.425 . S
C145 C142 1.409 . S
C145 C143 1.415 . S
C146 H136 0.930 . S
C146 C144 1.419 . S
C146 C147 1.362 . S
C147 H137 0.930 . S
C147 C140 1.409 . S
C147 C146 1.362 . S
H148 C154 0.930 . S
H149 C157 0.930 . S
H150 C158 0.930 . S
H151 C159 0.930 . S
H152 C162 0.930 . S
H153 C163 0.930 . S
C154 H148 0.930 . S
C154 C155 1.355 . S
C154 C156 1.415 1_455 S
C155 C154 1.355 . S
C155 C157 1.419 1_455 S
C156 C154 1.415 1_655 S
C156 C161 1.425 . S
C156 C163 1.409 . S
C157 H149 0.930 . S
C157 C155 1.419 1_655 S
C157 C158 1.362 . S
C158 H150 0.930 . S
C158 C157 1.362 . S
C158 C161 1.409 . S
C159 H151 0.930 . S
C159 C160 1.355 . S
C159 C161 1.415 . S
C160 C159 1.355 . S
C160 C162 1.419 . S
C161 C156 1.425 . S
C161 C158 1.409 . S
C161 C159 1.415 . S
C162 H152 0.930 . S
C162 C160 1.419 . S
C162 C163 1.362 . S
C163 H153 0.930 . S
C163 C156 1.409 . S
C163 C162 1.362 . S
H164 C170 0.930 . S
H165 C173 0.930 . S
H166 C174 0.930 . S
H167 C175 0.930 . S
H168 C178 0.930 . S
H169 C179 0.930 . S
C170 H164 0.930 . S
C170 C171 1.355 1_565 S
C170 C172 1.415 . S
C171 C170 1.355 1_545 S
C171 C173 1.419 . S
C172 C170 1.415 . S
C172 C177 1.425 . S
C172 C179 1.409 . S
C173 H165 0.930 . S
C173 C171 1.419 . S
C173 C174 1.362 . S
C174 H166 0.930 . S
C174 C173 1.362 . S
C174 C177 1.409 1_545 S
C175 H167 0.930 . S
C175 C176 1.355 . S
C175 C177 1.415 . S
C176 C175 1.355 . S
C176 C178 1.419 . S
C177 C172 1.425 . S
C177 C174 1.409 1_565 S
C177 C175 1.415 . S
C178 H168 0.930 . S
C178 C176 1.419 . S
C178 C179 1.362 . S
C179 H169 0.930 . S
C179 C172 1.409 . S
C179 C178 1.362 . S
H180 C186 0.930 . S
H181 C189 0.930 . S
H182 C190 0.930 . S
H183 C191 0.930 . S
H184 C194 0.930 . S
H185 C195 0.930 . S
C186 H180 0.930 . S
C186 C187 1.355 . S
C186 C188 1.415 . S
C187 C186 1.355 . S
C187 C189 1.419 . S
C188 C186 1.415 . S
C188 C193 1.425 . S
C188 C195 1.409 1_545 S
C189 H181 0.930 . S
C189 C187 1.419 . S
C189 C190 1.362 . S
C190 H182 0.930 . S
C190 C189 1.362 . S
C190 C193 1.409 . S
C191 H183 0.930 . S
C191 C192 1.355 . S
C191 C193 1.415 1_655 S
C192 C191 1.355 . S
C192 C194 1.419 1_545 S
C193 C188 1.425 . S
C193 C190 1.409 . S
C193 C191 1.415 1_455 S
C194 H184 0.930 . S
C194 C192 1.419 1_565 S
C194 C195 1.362 1_655 S
C195 H185 0.930 . S
C195 C188 1.409 1_565 S
C195 C194 1.362 1_455 S
H196 C202 0.930 . S
H197 C205 0.930 . S
H198 C206 0.930 . S
H199 C207 0.930 . S
H200 C210 0.930 . S
H201 C211 0.930 . S
C202 H196 0.930 . S
C202 C203 1.355 1_455 S
C202 C204 1.415 1_565 S
C203 C202 1.355 1_655 S
C203 C205 1.419 . S
C204 C202 1.415 1_545 S
C204 C209 1.425 . S
C204 C211 1.409 . S
C205 H197 0.930 . S
C205 C203 1.419 . S
C205 C206 1.362 1_565 S
C206 H198 0.930 . S
C206 C205 1.362 1_545 S
C206 C209 1.409 1_655 S
C207 H199 0.930 . S
C207 C208 1.355 . S
C207 C209 1.415 . S
C208 C207 1.355 . S
C208 C210 1.419 . S
C209 C204 1.425 . S
C209 C206 1.409 1_455 S
C209 C207 1.415 . S
C210 H200 0.930 . S
C210 C208 1.419 . S
C210 C211 1.362 . S
C211 H201 0.930 . S
C211 C204 1.409 . S
C211 C210 1.362 . S
H212 C218 0.930 . S
H213 C221 0.930 . S
H214 C222 0.930 1_565 S
H215 C223 0.930 . S
H216 C226 0.930 . S
H217 C227 0.930 . S
C218 H212 0.930 . S
C218 C219 1.355 . S
C218 C220 1.415 . S
C219 C218 1.355 . S
C219 C221 1.419 1_455 S
C220 C218 1.415 . S
C220 C225 1.425 . S
C220 C227 1.409 . S
C221 H213 0.930 . S
C221 C219 1.419 1_655 S
C221 C222 1.362 . S
C222 H214 0.930 1_545 S
C222 C221 1.362 . S
C222 C225 1.409 1_655 S
C223 H215 0.930 . S
C223 C224 1.355 . S
C223 C225 1.415 1_565 S
C224 C223 1.355 . S
C224 C226 1.419 1_565 S
C225 C220 1.425 . S
C225 C222 1.409 1_455 S
C225 C223 1.415 1_545 S
C226 H216 0.930 . S
C226 C224 1.419 1_545 S
C226 C227 1.362 . S
C227 H217 0.930 . S
C227 C220 1.409 . S
C227 C226 1.362 . S
H228 C234 0.930 . S
H229 C237 0.930 . S
H230 C238 0.930 . S
H231 C239 0.930 . S
H232 C242 0.930 . S
H233 C243 0.930 . S
C234 H228 0.930 . S
C234 C235 1.355 . S
C234 C236 1.415 . S
C235 C234 1.355 . S
C235 C237 1.419 1_554 S
C236 C234 1.415 . S
C236 C241 1.425 1_554 S
C236 C243 1.409 . S
C237 H229 0.930 . S
C237 C235 1.419 1_556 S
C237 C238 1.362 . S
C238 H230 0.930 . S
C238 C237 1.362 . S
C238 C241 1.409 . S
C239 H231 0.930 . S
C239 C240 1.355 1_556 S
C239 C241 1.415 . S
C240 C239 1.355 1_554 S
C240 C242 1.419 . S
C241 C236 1.425 1_556 S
C241 C238 1.409 . S
C241 C239 1.415 . S
C242 H232 0.930 . S
C242 C240 1.419 . S
C242 C243 1.362 . S
C243 H233 0.930 . S
C243 C236 1.409 . S
C243 C242 1.362 . S
H244 C250 0.930 . S
H245 C253 0.930 . S
H246 C254 0.930 . S
H247 C255 0.930 . S
H248 C258 0.930 . S
H249 C259 0.930 . S
C250 H244 0.930 . S
C250 C251 1.355 . S
C250 C252 1.415 . S
C251 C250 1.355 . S
C251 C253 1.419 . S
C252 C250 1.415 . S
C252 C257 1.425 . S
C252 C259 1.409 . S
C253 H245 0.930 . S
C253 C251 1.419 . S
C253 C254 1.362 . S
C254 H246 0.930 . S
C254 C253 1.362 . S
C254 C257 1.409 . S
C255 H247 0.930 . S
C255 C256 1.355 . S
C255 C257 1.415 . S
C256 C255 1.355 . S
C256 C258 1.419 . S
C257 C252 1.425 . S
C257 C254 1.409 . S
C257 C255 1.415 . S
C258 H248 0.930 . S
C258 C256 1.419 . S
C258 C259 1.362 . S
C259 H249 0.930 . S
C259 C252 1.409 . S
C259 C258 1.362 . S
H260 C266 0.930 . S
H261 C269 0.930 . S
H262 C270 0.930 . S
H263 C271 0.930 . S
H264 C274 0.930 . S
H265 C275 0.930 . S
C266 H260 0.930 . S
C266 C267 1.355 . S
C266 C268 1.415 . S
C267 C266 1.355 . S
C267 C269 1.419 . S
C268 C266 1.415 . S
C268 C273 1.425 . S
C268 C275 1.409 . S
C269 H261 0.930 . S
C269 C267 1.419 . S
C269 C270 1.362 . S
C270 H262 0.930 . S
C270 C269 1.362 . S
C270 C273 1.409 . S
C271 H263 0.930 . S
C271 C272 1.355 . S
C271 C273 1.415 . S
C272 C271 1.355 . S
C272 C274 1.419 . S
C273 C268 1.425 . S
C273 C270 1.409 . S
C273 C271 1.415 . S
C274 H264 0.930 . S
C274 C272 1.419 . S
C274 C275 1.362 . S
C275 H265 0.930 . S
C275 C268 1.409 . S
C275 C274 1.362 . S
C91 C1 1.711 . S
C96 C27 1.703 . S
C107 C26 1.707 . S
C112 C28 1.669 . S
C123 C55 1.707 . S
C128 C29 1.719 . S
C139 C54 1.708 . S
C144 C68 1.667 . S
C155 C83 1.701 . S
C160 C69 1.710 . S
C171 C0 1.680 . S
C176 C82 1.725 . S
C187 C12 1.211 . S
C192 C43 1.215 . S
C203 C56 1.145 . S
C208 C15 1.145 . S
C219 C40 1.210 . S
C224 C71 1.215 . S
C235 C42 1.570 . S
C240 C13 1.557 . S
C251 C57 1.571 . S
C256 C14 1.555 . S
C267 C70 1.545 . S
C272 C41 1.561 . S
