# Generated by pormake.
# Topology wjm, (5)-cn, num edge types: 1
# Building blocks:
#     Node 0, Type 0, BuildingBlock: XOMCOT_clean_sbu_1, # of connection points: 5
#     Node 1, Type 0, BuildingBlock: XOMCOT_clean_sbu_1, # of connection points: 5
#     Node 2, Type 0, BuildingBlock: XOMCOT_clean_sbu_1, # of connection points: 5
#     Node 3, Type 0, BuildingBlock: XOMCOT_clean_sbu_1, # of connection points: 5
#     Node 4, Type 0, BuildingBlock: XOMCOT_clean_sbu_1, # of connection points: 5
#     Node 5, Type 0, BuildingBlock: XOMCOT_clean_sbu_1, # of connection points: 5
#     Node 6, Type 0, BuildingBlock: XOMCOT_clean_sbu_1, # of connection points: 5
#     Node 7, Type 0, BuildingBlock: XOMCOT_clean_sbu_1, # of connection points: 5
#     Node 8, Type 0, BuildingBlock: XOMCOT_clean_sbu_1, # of connection points: 5
#     Node 9, Type 0, BuildingBlock: XOMCOT_clean_sbu_1, # of connection points: 5
#     Node 10, Type 0, BuildingBlock: XOMCOT_clean_sbu_1, # of connection points: 5
#     Node 11, Type 0, BuildingBlock: XOMCOT_clean_sbu_1, # of connection points: 5
#     Edge 12, Type (0, 0), BuildingBlock: OJICUG_clean_linker_0, # of connection points: 2
#     Edge 13, Type (0, 0), BuildingBlock: OJICUG_clean_linker_0, # of connection points: 2
#     Edge 14, Type (0, 0), BuildingBlock: OJICUG_clean_linker_0, # of connection points: 2
#     Edge 15, Type (0, 0), BuildingBlock: OJICUG_clean_linker_0, # of connection points: 2
#     Edge 16, Type (0, 0), BuildingBlock: OJICUG_clean_linker_0, # of connection points: 2
#     Edge 17, Type (0, 0), BuildingBlock: OJICUG_clean_linker_0, # of connection points: 2
#     Edge 18, Type (0, 0), BuildingBlock: OJICUG_clean_linker_0, # of connection points: 2
#     Edge 19, Type (0, 0), BuildingBlock: OJICUG_clean_linker_0, # of connection points: 2
#     Edge 20, Type (0, 0), BuildingBlock: OJICUG_clean_linker_0, # of connection points: 2
#     Edge 21, Type (0, 0), BuildingBlock: OJICUG_clean_linker_0, # of connection points: 2
#     Edge 22, Type (0, 0), BuildingBlock: OJICUG_clean_linker_0, # of connection points: 2
#     Edge 23, Type (0, 0), BuildingBlock: OJICUG_clean_linker_0, # of connection points: 2
#     Edge 24, Type (0, 0), BuildingBlock: OJICUG_clean_linker_0, # of connection points: 2
#     Edge 25, Type (0, 0), BuildingBlock: OJICUG_clean_linker_0, # of connection points: 2
#     Edge 26, Type (0, 0), BuildingBlock: OJICUG_clean_linker_0, # of connection points: 2
#     Edge 27, Type (0, 0), BuildingBlock: OJICUG_clean_linker_0, # of connection points: 2
#     Edge 28, Type (0, 0), BuildingBlock: OJICUG_clean_linker_0, # of connection points: 2
#     Edge 29, Type (0, 0), BuildingBlock: OJICUG_clean_linker_0, # of connection points: 2
#     Edge 30, Type (0, 0), BuildingBlock: OJICUG_clean_linker_0, # of connection points: 2
#     Edge 31, Type (0, 0), BuildingBlock: OJICUG_clean_linker_0, # of connection points: 2
#     Edge 32, Type (0, 0), BuildingBlock: OJICUG_clean_linker_0, # of connection points: 2
#     Edge 33, Type (0, 0), BuildingBlock: OJICUG_clean_linker_0, # of connection points: 2
#     Edge 34, Type (0, 0), BuildingBlock: OJICUG_clean_linker_0, # of connection points: 2
#     Edge 35, Type (0, 0), BuildingBlock: OJICUG_clean_linker_0, # of connection points: 2
#     Edge 36, Type (0, 0), BuildingBlock: OJICUG_clean_linker_0, # of connection points: 2
#     Edge 37, Type (0, 0), BuildingBlock: OJICUG_clean_linker_0, # of connection points: 2
#     Edge 38, Type (0, 0), BuildingBlock: OJICUG_clean_linker_0, # of connection points: 2
#     Edge 39, Type (0, 0), BuildingBlock: OJICUG_clean_linker_0, # of connection points: 2
#     Edge 40, Type (0, 0), BuildingBlock: OJICUG_clean_linker_0, # of connection points: 2
#     Edge 41, Type (0, 0), BuildingBlock: OJICUG_clean_linker_0, # of connection points: 2
# Relax obj value: 0.704
# Max RMSD: 0.271
# Mean RMSD: 0.271
data_MOF--net-wjm--node1-XOMCOT_clean_sbu_1--edge1-OJICUG_clean_linker_0
_symmetry_space_group_name_H-M    P1
_symmetry_Int_Tables_number       1
_symmetry_cell_setting            triclinic
loop_
_symmetry_equiv_pos_as_xyz
'x, y, z'
_cell_length_a     23.066708
_cell_length_b     22.926211
_cell_length_c     29.915324
_cell_angle_alpha  89.542288
_cell_angle_beta   89.746772
_cell_angle_gamma 119.6572
loop_
_atom_site_label
_atom_site_type_symbol
_atom_site_fract_x
_atom_site_fract_y
_atom_site_fract_z
_atom_type_partial_charge
C0 C 0.24036 0.51851 0.30325 0.0
C1 C 0.25094 0.55858 0.33926 0.0
N2 N 0.26983 0.53415 0.37388 0.0
N3 N 0.25037 0.46731 0.31477 0.0
C4 C 0.26868 0.47832 0.35817 0.0
H5 H 0.23309 0.53053 0.26965 0.0
Co6 Co 0.25285 0.40907 0.27246 0.0
C7 C 0.32958 0.34781 0.32165 0.0
O8 O 0.36729 0.36047 0.28583 0.0
N9 N 0.25438 0.34976 0.22805 0.0
C10 C 0.22654 0.25521 0.19097 0.0
C11 C 0.22104 0.28203 0.23097 0.0
C12 C 0.28035 0.36238 0.18585 0.0
N13 N 0.26407 0.30608 0.16251 0.0
O14 O 0.16059 0.34866 0.28441 0.0
H15 H 0.1926 0.25365 0.25997 0.0
H16 H 0.30851 0.41165 0.17109 0.0
O17 O 0.28326 0.36425 0.32095 0.0
C18 C 0.11085 0.35773 0.27573 0.0
O19 O 0.05461 0.3189 0.29679 0.0
N20 N 0.33782 0.47566 0.25755 0.0
C21 C 0.4302 0.60901 0.23982 0.0
C22 C 0.43829 0.57544 0.27681 0.0
C23 C 0.39076 0.50818 0.28544 0.0
C24 C 0.3303 0.50841 0.22175 0.0
C25 C 0.3763 0.57438 0.21172 0.0
H26 H 0.39337 0.48487 0.31629 0.0
H27 H 0.285 0.48509 0.20288 0.0
H28 H 0.28629 0.44953 0.3767 0.0
H29 H 0.25275 0.60668 0.33822 0.0
H30 H 0.20372 0.20238 0.18331 0.0
H31 H 0.47995 0.60136 0.29924 0.0
H32 H 0.36806 0.59906 0.18338 0.0
C33 C 0.98503 0.38848 0.58522 0.0
C34 C 0.96839 0.42527 0.61315 0.0
N35 N 0.93827 0.38778 0.65 0.0
N36 N 0.96642 0.32844 0.60461 0.0
C37 C 0.93843 0.3295 0.64398 0.0
H38 H 1.00561 0.40284 0.55177 0.0
Co39 Co 0.96128 0.2543 0.57665 0.0
C40 C 0.04969 0.23247 0.64482 0.0
O41 O 0.08247 0.22589 0.61108 0.0
N42 N 0.95124 0.17937 0.54417 0.0
C43 C 0.96896 0.11336 0.49826 0.0
C44 C 0.97891 0.13952 0.54106 0.0
C45 C 0.92099 0.17208 0.5043 0.0
N46 N 0.93294 0.13482 0.47511 0.0
O47 O 0.86231 0.20371 0.5907 0.0
H48 H 1.00933 0.13402 0.56605 0.0
H49 H 0.90035 0.20313 0.49399 0.0
O50 O 0.9941 0.23229 0.63662 0.0
C51 C 0.83019 0.22203 0.56383 0.0
O52 O 0.86579 0.2716 0.53575 0.0
N53 N 0.05271 0.30653 0.55758 0.0
C54 C 0.17061 0.41108 0.52237 0.0
C55 C 0.15946 0.40412 0.56885 0.0
C56 C 0.09892 0.35333 0.5854 0.0
C57 C 0.06989 0.30528 0.51385 0.0
C58 C 0.13022 0.35552 0.49606 0.0
H59 H 0.08675 0.35619 0.61993 0.0
H60 H 1.03499 0.27033 0.49062 0.0
H61 H 0.91522 0.2866 0.66641 0.0
H62 H 0.97398 0.47394 0.60527 0.0
H63 H 0.99086 0.08517 0.48433 0.0
H64 H 0.19039 0.44387 0.59157 0.0
H65 H 0.13838 0.35728 0.46025 0.0
C66 C 0.57448 0.88389 0.88933 0.0
C67 C 0.51964 0.8616 0.9169 0.0
N68 N 0.53801 0.85681 0.95892 0.0
N69 N 0.62762 0.89448 0.9138 0.0
C70 C 0.60385 0.87702 0.95594 0.0
H71 H 0.57539 0.89013 0.85354 0.0
Co72 Co 0.71147 0.91571 0.89149 0.0
C73 C 0.79019 1.03053 0.95898 0.0
O74 O 0.81374 0.07246 0.92487 0.0
N75 N 0.79556 0.93341 0.86679 0.0
C76 C 0.89191 0.9974 0.83113 0.0
C77 C 0.8574 0.98671 0.87096 0.0
C78 C 0.79754 0.90812 0.82634 0.0
N79 N 0.85279 0.94934 0.8022 0.0
O80 O 0.69202 0.82517 0.91185 0.0
H81 H 0.87457 1.02056 0.89865 0.0
H82 H 0.75325 0.86956 0.81063 0.0
O83 O 0.75381 0.96654 0.95121 0.0
C84 C 0.65502 0.78572 0.88059 0.0
O85 O 0.64468 0.8139 0.84541 0.0
N86 N 0.71969 0.9952 0.8637 0.0
C87 C 0.66281 0.05215 0.81018 0.0
C88 C 0.66397 0.05966 0.85671 0.0
C89 C 0.69243 1.0301 0.88313 0.0
C90 C 0.72903 0.99947 0.81826 0.0
C91 C 0.70277 1.02957 0.79097 0.0
H92 H 0.6825 1.02593 0.91871 0.0
H93 H 0.74549 0.97001 0.80097 0.0
H94 H 0.63374 0.87602 0.98338 0.0
H95 H 0.47 0.84904 0.90645 0.0
H96 H 0.93847 0.04194 0.8224 0.0
H97 H 0.63296 0.07685 0.87273 0.0
H98 H 0.70236 1.0227 0.75512 0.0
C99 C 0.69075 0.60385 0.26936 0.0
C100 C 0.65832 0.5588 0.3036 0.0
N101 N 0.70229 0.57213 0.33676 0.0
N102 N 0.75411 0.64594 0.28172 0.0
C103 C 0.76007 0.62471 0.32259 0.0
H104 H 0.66985 0.60593 0.23748 0.0
Co105 Co 0.81955 0.7135 0.24765 0.0
C106 C 0.85594 0.8286 0.31287 0.0
O107 O 0.8637 0.86747 0.27826 0.0
N108 N 0.88537 0.77674 0.20901 0.0
C109 C 0.9573 0.85839 0.16337 0.0
C110 C 0.93706 0.84038 0.2076 0.0
C111 C 0.87903 0.75625 0.16618 0.0
N112 N 0.92017 0.80482 0.1377 0.0
O113 O 0.87345 0.66608 0.25333 0.0
H114 H 0.95749 0.87265 0.2361 0.0
H115 H 0.83913 0.70842 0.15516 0.0
O116 O 0.853 0.77123 0.30552 0.0
C117 C 0.85408 0.61691 0.22563 0.0
O118 O 0.80325 0.60444 0.19998 0.0
N119 N 0.76347 0.75328 0.23871 0.0
C120 C 0.67107 0.79813 0.22785 0.0
C121 C 0.68 0.7754 0.26957 0.0
C122 C 0.72463 0.75197 0.27387 0.0
C123 C 0.7596 0.78102 0.19887 0.0
C124 C 0.71529 0.80536 0.19318 0.0
H125 H 0.72658 0.73129 0.306 0.0
H126 H 0.78769 0.78212 0.17 0.0
H127 H 0.80594 0.647 0.34141 0.0
H128 H 0.60715 0.51818 0.30367 0.0
H129 H 0.99438 0.90742 0.151 0.0
H130 H 0.64815 0.76859 0.29809 0.0
H131 H 0.71135 0.82358 0.16046 0.0
C132 C 0.23036 0.81319 0.67824 0.0
C133 C 0.26911 0.79752 0.7047 0.0
N134 N 0.2836 0.75598 0.68187 0.0
N135 N 0.21919 0.78066 0.63905 0.0
C136 C 0.25429 0.74782 0.64178 0.0
H137 H 0.21281 0.8475 0.68693 0.0
Co138 Co 0.17829 0.7959 0.59007 0.0
C139 C 0.05357 0.77785 0.63781 0.0
O140 O 1.02095 0.74652 0.60188 0.0
N141 N 0.14331 0.81817 0.53907 0.0
C142 C 0.08979 0.84856 0.49045 0.0
C143 C 0.10705 0.84944 0.53482 0.0
C144 C 0.15107 0.80311 0.49647 0.0
N145 N 0.11648 0.81794 0.46647 0.0
O146 O 0.26006 0.88624 0.58667 0.0
H147 H 0.09216 0.86973 0.56224 0.0
H148 H 0.17786 0.77703 0.48811 0.0
O149 O 0.1185 0.81186 0.6356 0.0
C150 C 0.29964 0.87621 0.56085 0.0
O151 O 0.27467 0.81721 0.54196 0.0
N152 N 0.10699 0.70211 0.58864 0.0
C153 C 0.12743 0.60702 0.54909 0.0
C154 C 0.1294 0.61205 0.59595 0.0
C155 C 0.11431 0.65806 0.61564 0.0
C156 C 0.07873 0.67812 0.54803 0.0
C157 C 0.0938 0.63421 0.52564 0.0
H158 H 0.12093 0.66627 0.65125 0.0
H159 H 0.05264 0.69924 0.53034 0.0
H160 H 0.25784 0.7181 0.61511 0.0
H161 H 0.28359 0.81351 0.73878 0.0
H162 H 0.05751 0.86625 0.47735 0.0
H163 H 0.14664 0.5847 0.6165 0.0
H164 H 0.08301 0.62541 0.49041 0.0
C165 C 0.50166 0.14047 0.89482 0.0
C166 C 0.55456 0.16138 0.92337 0.0
N167 N 0.53575 0.17205 0.96393 0.0
N168 N 0.44903 0.13623 0.91733 0.0
C169 C 0.47128 0.15608 0.95912 0.0
H170 H 0.50224 0.13163 0.85952 0.0
Co171 Co 0.36925 0.12387 0.89366 0.0
C172 C 0.27908 1.00517 0.95769 0.0
O173 O 0.25434 0.96831 0.922 0.0
N174 N 0.28976 0.11592 0.86807 0.0
C175 C 0.19502 0.0639 0.83004 0.0
C176 C 0.22542 0.06655 0.87024 0.0
C177 C 0.29399 0.1474 0.82865 0.0
N178 N 0.23928 0.11356 0.80315 0.0
O179 O 0.39644 0.21703 0.91407 0.0
H180 H 0.20328 1.02985 0.89667 0.0
H181 H 0.34114 0.18448 0.81433 0.0
O182 O 0.32004 0.06951 0.95248 0.0
C183 C 0.43811 0.25529 0.88325 0.0
O184 O 0.44834 0.22519 0.84942 0.0
N185 N 0.35484 0.0429 0.86517 0.0
C186 C 0.40309 0.9797 0.81034 0.0
C187 C 0.40137 0.97032 0.85683 0.0
C188 C 0.37728 1.00311 0.88394 0.0
C189 C 0.34408 0.03951 0.82001 0.0
C190 C 0.36551 1.00587 0.79211 0.0
H191 H 0.38686 1.00517 0.91941 0.0
H192 H 0.32997 0.07137 0.8032 0.0
H193 H 0.44155 0.16257 0.98452 0.0
H194 H 0.6035 0.16984 0.91413 0.0
H195 H 0.14721 1.02341 0.81948 0.0
H196 H 0.42972 0.94947 0.87217 0.0
H197 H 0.36563 1.01346 0.75626 0.0
C198 C 0.54496 0.84709 0.45625 0.0
C199 C 0.4858 0.7985 0.43905 0.0
N200 N 0.45819 0.74742 0.4687 0.0
N201 N 0.55433 0.82695 0.49678 0.0
C202 C 0.50056 0.76529 0.50325 0.0
H203 H 0.57938 0.89419 0.4401 0.0
Co204 Co 0.62792 0.87963 0.53199 0.0
C205 C 0.74409 0.88702 0.47587 0.0
O206 O 0.77167 0.88554 0.51386 0.0
N207 N 0.70472 0.93494 0.56809 0.0
C208 C 0.79599 1.02209 0.59619 0.0
C209 C 0.74951 1.00076 0.56218 0.0
C210 C 0.72609 0.91793 0.60573 0.0
N211 N 0.78111 0.96941 0.62353 0.0
O212 O 0.61087 0.95468 0.51898 0.0
H213 H 0.74815 1.03165 0.53513 0.0
H214 H 0.70161 0.86901 0.62109 0.0
O215 O 0.68938 0.89026 0.47725 0.0
C216 C 0.58125 0.96373 0.55298 0.0
O217 O 0.59736 0.95218 0.59283 0.0
N218 N 0.62751 0.80349 0.55188 0.0
C219 C 0.59575 0.68494 0.59581 0.0
C220 C 0.62845 0.70009 0.55406 0.0
C221 C 0.64229 0.75926 0.53181 0.0
C222 C 0.59262 0.78738 0.59124 0.0
C223 C 0.57744 0.72901 0.61435 0.0
H224 H 0.66079 0.76681 0.49795 0.0
H225 H 0.57674 0.82091 0.60473 0.0
H226 H 0.4926 0.7335 0.53214 0.0
H227 H 0.46576 0.79925 0.40651 0.0
H228 H 0.83723 0.07242 0.60044 0.0
H229 H 0.63933 0.6646 0.53763 0.0
H230 H 0.55014 0.71759 0.64573 0.0
C231 C 0.72977 0.44479 0.83672 0.0
C232 C 0.74309 0.40768 0.80652 0.0
N233 N 0.79944 0.44964 0.78375 0.0
N234 N 0.77705 0.50983 0.83261 0.0
C235 C 0.81875 0.51091 0.80051 0.0
H236 H 0.68939 0.42526 0.86089 0.0
Co237 Co 0.78994 0.58328 0.866 0.0
C238 C 0.88892 0.70296 0.8049 0.0
O239 O 0.91431 0.74066 0.84023 0.0
N240 N 0.80433 0.65857 0.9009 0.0
C241 C 0.8084 0.75084 0.9284 0.0
C242 C 0.78729 0.70623 0.89312 0.0
C243 C 0.83473 0.6751 0.94119 0.0
N244 N 0.83898 0.73124 0.95846 0.0
O245 O 0.69708 0.55998 0.85172 0.0
H246 H 0.76135 0.70855 0.86371 0.0
H247 H 0.85228 0.64568 0.95865 0.0
O248 O 0.83713 0.64381 0.81036 0.0
C249 C 0.65921 0.53007 0.88616 0.0
O250 O 0.68799 0.54253 0.9254 0.0
N251 N 0.86798 0.58957 0.88693 0.0
C252 C 0.95213 0.55078 0.92603 0.0
C253 C 0.97596 0.59999 0.89202 0.0
C254 C 0.93249 0.61834 0.87225 0.0
C255 C 0.84549 0.54377 0.92113 0.0
C256 C 0.88688 0.52436 0.94165 0.0
H257 H 0.94985 0.65088 0.84342 0.0
H258 H 0.79366 0.5202 0.93134 0.0
H259 H 0.86433 0.55572 0.7911 0.0
H260 H 0.71376 0.35396 0.80223 0.0
H261 H 0.80207 0.79437 0.93141 0.0
H262 H 1.02581 0.61965 0.87829 0.0
H263 H 0.86682 0.48577 0.96748 0.0
C264 C 0.33529 0.73569 0.18409 0.0
C265 C 0.3866 0.74833 0.15511 0.0
N266 N 0.37021 0.75987 0.11416 0.0
N267 N 0.28675 0.73969 0.16163 0.0
C268 C 0.30913 0.75364 0.11892 0.0
H269 H 0.33514 0.72796 0.2198 0.0
Co270 Co 0.21396 0.73957 0.18915 0.0
C271 C 0.20502 0.84523 0.12725 0.0
O272 O 0.2016 0.87589 0.16326 0.0
N273 N 0.13994 0.73817 0.21956 0.0
C274 C 0.06601 0.76517 0.24666 0.0
C275 C 0.09676 0.75955 0.20838 0.0
C276 C 0.12839 0.72427 0.26385 0.0
N277 N 0.08737 0.74417 0.28187 0.0
O278 O 0.15621 0.64533 0.17084 0.0
H279 H 0.09004 0.77359 0.1751 0.0
H280 H 0.15292 0.70348 0.28354 0.0
O281 O 0.20327 0.78779 0.13207 0.0
C282 C 0.16637 0.6125 0.20238 0.0
O283 O 0.20654 0.64713 0.23479 0.0
N284 N 0.27332 0.82186 0.21466 0.0
C285 C 0.37672 0.92395 0.26137 0.0
C286 C 0.36952 0.93142 0.21555 0.0
C287 C 0.3189 0.8785 0.19239 0.0
C288 C 0.28171 0.81414 0.25904 0.0
C289 C 0.33165 0.86513 0.28338 0.0
H290 H 0.32066 0.88106 0.15639 0.0
H291 H 0.25563 0.76567 0.27475 0.0
H292 H 0.28332 0.76335 0.09234 0.0
H293 H 0.43338 0.75137 0.16388 0.0
H294 H 1.03311 0.78615 0.24856 0.0
H295 H 0.40705 0.97451 0.19696 0.0
H296 H 0.33926 0.85596 0.31789 0.0
C297 C 0.6354 0.32407 0.53596 0.0
C298 C 0.67742 0.38062 0.51119 0.0
N299 N 0.63955 0.39525 0.48428 0.0
N300 N 0.57183 0.30287 0.52382 0.0
C301 C 0.5762 0.34751 0.49271 0.0
H302 H 0.65011 0.30114 0.56194 0.0
Co303 Co 0.49355 0.23428 0.5481 0.0
C304 C 0.38544 0.21962 0.47799 0.0
O305 O 0.33748 0.1895 0.50787 0.0
N306 N 0.41356 0.16502 0.57511 0.0
C307 C 0.31954 0.07206 0.59542 0.0
C308 C 0.37043 0.10106 0.56356 0.0
C309 C 0.38835 0.17249 0.61431 0.0
N310 N 0.33083 0.11809 0.62698 0.0
O311 O 0.52385 0.1713 0.52919 0.0
H312 H 0.37536 0.07711 0.5339 0.0
H313 H 0.41237 0.21656 0.63461 0.0
O314 O 0.44522 0.23321 0.48883 0.0
C315 C 0.55121 0.1579 0.56245 0.0
O316 O 0.53244 0.16398 0.60285 0.0
N317 N 0.47789 0.29886 0.5728 0.0
C318 C 0.49398 0.41104 0.61725 0.0
C319 C 0.44995 0.38534 0.58115 0.0
C320 C 0.44289 0.32911 0.55898 0.0
C321 C 0.51727 0.32077 0.60966 0.0
C322 C 0.525 0.376 0.63302 0.0
H323 H 0.41329 0.31414 0.52942 0.0
H324 H 0.54464 0.29599 0.61997 0.0
H325 H 0.53349 0.34569 0.47673 0.0
H326 H 0.73121 0.40937 0.51351 0.0
H327 H 0.27754 1.0215 0.59512 0.0
H328 H 0.42634 0.41212 0.56732 0.0
H329 H 0.55935 0.39445 0.66074 0.0
C330 C 0.32331 0.56968 0.872 0.0
C331 C 0.33485 0.62165 0.84383 0.0
N332 N 0.33272 0.60121 0.8015 0.0
N333 N 0.31394 0.51658 0.84768 0.0
C334 C 0.3196 0.53696 0.80461 0.0
H335 H 0.32211 0.57042 0.90812 0.0
Co336 Co 0.3059 0.44101 0.87565 0.0
C337 C 0.20631 0.33018 0.8127 0.0
O338 O 0.17268 0.29886 0.84902 0.0
N339 N 0.30156 0.36667 0.9084 0.0
C340 C 0.27897 0.26903 0.94054 0.0
C341 C 0.28069 0.30119 0.90059 0.0
C342 C 0.31726 0.37326 0.95237 0.0
N343 N 0.30188 0.31503 0.97317 0.0
O344 O 0.40124 0.47553 0.86048 0.0
H345 H 0.26574 0.27727 0.86849 0.0
H346 H 0.33556 0.41959 0.97024 0.0
O347 O 0.26425 0.38428 0.81726 0.0
C348 C 0.43484 0.51694 0.89186 0.0
O349 O 0.40139 0.51827 0.92702 0.0
N350 N 0.21993 0.4202 0.89552 0.0
C351 C 0.11253 0.43105 0.9275 0.0
C352 C 0.11967 0.42433 0.8818 0.0
C353 C 0.17501 0.42156 0.86637 0.0
C354 C 0.21203 0.4252 0.9404 0.0
C355 C 0.15835 0.43018 0.95717 0.0
H356 H 0.18463 0.427 0.83084 0.0
H357 H 0.25073 0.43364 0.96337 0.0
H358 H 0.31506 0.50594 0.77629 0.0
H359 H 0.34228 0.67021 0.85368 0.0
H360 H 0.26078 0.21587 0.94529 0.0
H361 H 0.08685 0.42874 0.85786 0.0
H362 H 0.15581 0.43898 0.99248 0.0
C363 C 0.73825 0.30867 0.18584 0.0
C364 C 0.69252 0.30461 0.15467 0.0
N365 N 0.69893 0.27389 0.11834 0.0
N366 N 0.7724 0.27988 0.16924 0.0
C367 C 0.74752 0.25966 0.12798 0.0
H368 H 0.74453 0.32898 0.21911 0.0
Co369 Co 0.83213 0.26312 0.20039 0.0
C370 C 0.84182 0.16038 0.13677 0.0
O371 O 0.83871 0.12367 0.17164 0.0
N372 N 0.89237 0.24473 0.23403 0.0
C373 C 0.95696 0.20221 0.25516 0.0
C374 C 0.93979 0.23051 0.22015 0.0
C375 C 0.88588 0.22927 0.27837 0.0
N376 N 0.92253 0.20132 0.29194 0.0
O377 O 0.90118 0.35623 0.18583 0.0
H378 H 0.95809 0.23646 0.18614 0.0
H379 H 0.85458 0.23809 0.30089 0.0
O380 O 0.84464 0.21771 0.14349 0.0
C381 C 0.9094 0.39428 0.21974 0.0
O382 O 0.89561 0.36584 0.25954 0.0
N383 N 0.76088 0.18421 0.22118 0.0
C384 C 0.64571 0.0928 0.26556 0.0
C385 C 0.66197 0.0772 0.22374 0.0
C386 C 0.71897 0.12493 0.20116 0.0
C387 C 0.74363 0.20042 0.26089 0.0
C388 C 0.68724 0.15494 0.28433 0.0
H389 H 0.72537 0.11588 0.16678 0.0
H390 H 0.77248 0.2509 0.27335 0.0
H391 H 0.76157 0.2315 0.10601 0.0
H392 H 0.65659 0.32158 0.15869 0.0
H393 H 0.99153 0.18324 0.25346 0.0
H394 H 0.62772 1.03127 0.20692 0.0
H395 H 0.67377 0.16983 0.31522 0.0
C396 C 0.56406 0.78749 0.25407 0.0
C397 C 0.60453 0.79042 0.21772 0.0
H398 H 0.47758 0.72013 0.2929 0.0
C399 C 0.57225 0.75104 0.18029 0.0
H400 H 0.58551 0.8217 0.28172 0.0
C401 C 0.51083 0.69322 0.18636 0.0
C402 C 0.47999 0.67858 0.2286 0.0
H403 H 0.59916 0.75551 0.14957 0.0
H404 H 0.49178 0.65664 0.15985 0.0
C405 C 0.50309 0.72884 0.26098 0.0
C406 C 0.15044 0.4875 0.47604 0.0
C407 C 0.19623 0.47951 0.50289 0.0
H408 H 0.08589 0.5292 0.47364 0.0
C409 C 0.23979 0.53441 0.529 0.0
H410 H 0.12008 0.45009 0.45179 0.0
C411 C 0.21978 0.5801 0.54217 0.0
C412 C 0.15991 0.57403 0.52581 0.0
H413 H 0.27984 0.53328 0.54706 0.0
H414 H 0.24747 0.61572 0.56807 0.0
C415 C 0.12978 0.53256 0.48906 0.0
C416 C 0.51325 0.06415 0.7819 0.0
C417 C 0.46548 0.9956 0.78722 0.0
H418 H 0.61687 0.13757 0.78709 0.0
C419 C 0.48545 0.94741 0.78426 0.0
H420 H 0.49856 0.10226 0.7833 0.0
C421 C 0.5532 0.96803 0.78258 0.0
C422 C 0.60075 0.03645 0.78738 0.0
H423 H 0.44952 0.89457 0.78833 0.0
H424 H 0.56799 0.93003 0.78416 0.0
C425 C 0.58095 0.08473 0.7837 0.0
C426 C 0.61569 0.59302 0.61989 0.0
C427 C 0.57225 0.61885 0.61635 0.0
H428 H 0.62411 0.50503 0.62443 0.0
C429 C 0.5039 0.57744 0.62546 0.0
H430 H 0.66869 0.6247 0.61359 0.0
C431 C 0.4781 0.50882 0.63196 0.0
C432 C 0.52063 0.48158 0.62939 0.0
H433 H 0.46962 0.59679 0.62307 0.0
H434 H 0.42452 0.47646 0.63449 0.0
C435 C 0.59005 0.52465 0.62666 0.0
C436 C 0.99971 0.41718 0.93358 0.0
C437 C 0.06809 0.45585 0.94148 0.0
H438 H 0.90874 0.41795 0.92311 0.0
C439 C 0.09621 0.5241 0.9519 0.0
H440 H 0.9778 0.36474 0.92481 0.0
C441 C 0.05734 0.55501 0.94996 0.0
C442 C 0.98999 0.51741 0.93846 0.0
H443 H 0.14938 0.55471 0.95731 0.0
H444 H 0.08059 0.60872 0.95472 0.0
C445 C 0.96062 0.44774 0.93248 0.0
C446 C 0.46686 0.03684 0.28104 0.0
C447 C 0.44123 0.9674 0.28151 0.0
H448 H 0.55503 0.13259 0.27711 0.0
C449 C 0.4835 0.9406 0.28922 0.0
H450 H 0.4346 0.05786 0.2749 0.0
C451 C 0.55213 0.9829 0.28944 0.0
C452 C 0.57811 0.05189 0.28302 0.0
H453 H 0.4642 0.88682 0.28929 0.0
H454 H 0.58471 0.96139 0.28997 0.0
C455 C 0.53544 0.07922 0.28231 0.0
C456 C 0.3351 0.35592 0.09489 0.0
C457 C 0.27858 0.30263 0.11557 0.0
H458 H 0.38788 0.40043 1.03375 0.0
C459 C 0.23455 0.24849 0.08874 0.0
H460 H 0.37107 0.39761 0.1144 0.0
C461 C 0.24453 0.25 1.04215 0.0
C462 C 0.29875 0.30564 1.02132 0.0
H463 H 0.19044 0.2066 0.10334 0.0
H464 H 0.20764 0.20962 1.02218 0.0
C465 C 0.34501 0.35736 1.04858 0.0
C466 C 0.97835 0.17271 0.35301 0.0
C467 C 0.92252 0.17537 0.3365 0.0
H468 H 1.02538 0.15701 0.41034 0.0
C469 C 0.86704 0.15478 0.36526 0.0
H470 H 1.02189 0.18788 0.33197 0.0
C471 C 0.86901 0.13682 0.40984 0.0
C472 C 0.92617 0.13821 0.42716 0.0
H473 H 0.82226 0.1539 0.35368 0.0
H474 H 0.82661 0.12434 0.43152 0.0
C475 C 0.98019 0.15443 0.39788 0.0
C476 C 0.82202 0.90152 0.72658 0.0
C477 C 0.85095 0.95794 0.75423 0.0
H478 H 0.77943 0.8611 0.66317 0.0
C479 C 0.86489 1.02044 0.73573 0.0
H480 H 0.81064 0.85284 0.7398 0.0
C481 C 0.84552 1.02519 0.69195 0.0
C482 C 0.81184 0.96758 0.66548 0.0
H483 H 0.88603 0.06487 0.75621 0.0
H484 H 0.85317 0.07319 0.68 0.0
C485 C 0.80321 0.90631 0.6828 0.0
C486 C 0.93777 0.7677 0.06472 0.0
C487 C 0.91218 0.80115 0.08993 0.0
H488 H 0.93665 0.72142 1.00276 0.0
C489 C 0.86678 0.81722 0.06983 0.0
H490 H 0.97178 0.75372 0.07987 0.0
C491 C 0.84504 0.7974 1.02585 0.0
C492 C 0.86791 0.76049 1.00125 0.0
H493 H 0.84512 0.84149 0.0892 0.0
H494 H 0.80758 0.80761 1.01215 0.0
C495 C 0.9165 0.74821 1.02081 0.0
C496 C 0.08829 0.83226 0.3882 0.0
C497 C 0.1036 0.79672 0.42025 0.0
H498 H 0.07076 0.84346 0.31904 0.0
C499 C 0.10572 0.73927 0.40637 0.0
H500 H 0.08591 0.87651 0.39764 0.0
C501 C 0.09591 0.71965 0.36161 0.0
C502 C 0.08432 0.75715 0.329 0.0
H503 H 0.1153 0.70928 0.43005 0.0
H504 H 0.09906 0.67576 0.35236 0.0
C505 C 0.07896 0.81286 0.3431 0.0
C506 C 0.23377 0.05071 0.73465 0.0
C507 C 0.24417 0.11043 0.75507 0.0
H508 H 0.25406 1.00624 0.67791 0.0
C509 C 0.27412 0.16998 0.72968 0.0
H510 H 0.21188 1.00411 0.75362 0.0
C511 C 0.29786 0.17109 0.68637 0.0
C512 C 0.29355 0.11286 0.66746 0.0
H513 H 0.2829 0.21657 0.74454 0.0
H514 H 0.32273 0.21861 0.6685 0.0
C515 C 0.2584 0.05194 0.69133 0.0
C516 C 0.41826 0.28346 0.40213 0.0
C517 C 0.37144 0.25121 0.43699 0.0
H518 H 0.44209 0.33787 0.33954 0.0
C519 C 0.31059 0.25244 0.43364 0.0
H520 H 0.46584 0.28481 0.40303 0.0
C521 C 0.29722 0.28432 0.39739 0.0
C522 C 0.34361 0.31567 0.36224 0.0
H523 H 0.27289 0.22923 0.4596 0.0
H524 H 0.24993 0.28361 0.39671 0.0
C525 C 0.40439 0.31434 0.36547 0.0
C526 C 0.15956 0.28899 0.68785 0.0
C527 C 0.08866 0.25838 0.6883 0.0
H528 H 0.25202 0.33663 0.72471 0.0
C529 C 0.05841 0.25472 0.72991 0.0
H530 H 0.18584 0.2941 0.65671 0.0
C531 C 0.09706 0.2785 0.76929 0.0
C532 C 0.16785 0.3087 0.76884 0.0
H533 H 1.0047 0.2324 0.73228 0.0
H534 H 0.07097 0.27336 0.80054 0.0
C535 C 0.19831 0.31427 0.72705 0.0
C536 C 0.82414 0.1314 1.00918 0.0
C537 C 0.80249 0.06184 1.00518 0.0
H538 H 0.85269 0.2165 1.05206 0.0
C539 C 0.79415 1.02575 1.04516 0.0
H540 H 0.83083 0.16168 0.97959 0.0
C541 C 0.80804 0.05819 0.08712 0.0
C542 C 0.82972 0.1278 0.09101 0.0
H543 H 0.77759 0.97258 1.04408 0.0
H544 H 0.80093 1.02801 0.11683 0.0
C545 C 0.83691 0.1635 1.05107 0.0
C546 C 0.76928 0.89718 0.39124 0.0
C547 C 0.77065 0.87095 0.43358 0.0
H548 H 0.79582 0.90624 0.32167 0.0
C549 C 0.80053 0.82962 0.43591 0.0
H550 H 0.74725 0.92909 0.38751 0.0
C551 C 0.82753 0.81487 0.39763 0.0
C552 C 0.8279 0.8427 0.35545 0.0
H553 H 0.80248 0.80772 0.46769 0.0
H554 H 0.8489 0.78237 0.40125 0.0
C555 C 0.79805 0.88416 0.35328 0.0
C556 C 0.99645 0.77939 0.76042 0.0
C557 C 0.92988 0.72462 0.76149 0.0
H558 H 0.08777 0.83901 0.72241 0.0
C559 C 0.90557 0.68961 0.72137 0.0
H560 H 1.0181 0.80777 0.79045 0.0
C561 C 0.94552 0.70851 0.68209 0.0
C562 C 1.01238 0.76262 0.68095 0.0
H563 H 0.8555 0.64704 0.72026 0.0
H564 H 0.92377 0.67908 0.65244 0.0
C565 C 1.03706 0.7976 0.72116 0.0
C566 C 0.22345 0.85745 1.0419 0.0
C567 C 0.22402 0.88563 0.08351 0.0
H568 H 0.23974 0.87208 0.97107 0.0
C569 C 0.24557 0.95558 0.08356 0.0
H570 H 0.20821 0.80466 1.03984 0.0
C571 C 0.26521 0.99537 1.04383 0.0
C572 C 0.26296 0.96667 1.00209 0.0
H573 H 0.24786 0.9803 0.11472 0.0
H574 H 0.28086 0.04827 1.04579 0.0
C575 C 0.24185 0.89687 1.00217 0.0
C576 C 0.36372 0.57433 0.42656 0.0
C577 C 0.3058 0.57402 0.41163 0.0
H578 H 0.45888 0.63183 0.4579 0.0
C579 C 0.29239 0.6241 0.42686 0.0
H580 H 0.37568 0.53665 0.41556 0.0
C581 C 0.34057 0.67888 0.45024 0.0
C582 C 0.40184 0.68324 0.45994 0.0
H583 H 0.24737 0.62419 0.41688 0.0
H584 H 0.33247 0.72055 0.45741 0.0
C585 C 0.41147 0.62876 0.45075 0.0
C586 C 0.91959 0.46972 0.69168 0.0
C587 C 0.90455 0.40318 0.68481 0.0
H588 H 0.89711 0.53644 0.72655 0.0
C589 C 0.85412 0.35194 0.71126 0.0
H590 H 0.95839 0.5107 0.67243 0.0
C591 C 0.81969 0.36695 0.74359 0.0
C592 C 0.83433 0.43352 0.75011 0.0
H593 H 0.84013 0.2999 0.7067 0.0
H594 H 0.78181 0.32618 0.76346 0.0
C595 C 0.88463 0.4846 0.72347 0.0
C596 C 0.38479 0.7689 1.0321 0.0
C597 C 0.41252 0.78282 0.075 0.0
H598 H 0.40249 0.7799 0.96171 0.0
C599 C 0.48218 0.8211 0.07912 0.0
H600 H 0.33135 0.73891 1.0279 0.0
C601 C 0.52316 0.84549 1.04121 0.0
C602 C 0.49557 0.83171 0.99815 0.0
H603 H 0.5051 0.83372 0.11171 0.0
H604 H 0.57638 0.87609 1.04585 0.0
C605 C 0.42578 0.79276 0.99413 0.0
C606 C 0.63028 0.51172 0.40057 0.0
C607 C 0.69065 0.53474 0.37746 0.0
H608 H 0.56819 0.45221 0.45446 0.0
C609 C 0.73772 0.5177 0.39306 0.0
H610 H 0.59408 0.52562 0.38947 0.0
C611 C 0.72248 0.47424 0.42972 0.0
C612 C 0.66027 0.44801 0.45139 0.0
H613 H 0.78465 0.53512 0.37546 0.0
H614 H 0.75784 0.45857 0.43954 0.0
C615 C 0.61555 0.46948 0.43755 0.0
C616 C 0.37489 0.70923 0.76245 0.0
C617 C 0.33513 0.63901 0.7624 0.0
H618 H 0.38997 0.80235 0.73518 0.0
C619 C 0.28933 0.60823 0.72775 0.0
H620 H 0.41161 0.73399 0.78826 0.0
C621 C 0.27738 0.64754 0.69721 0.0
C622 C 0.31106 0.71772 0.70126 0.0
H623 H 0.2582 0.55417 0.727 0.0
H624 H 0.23717 0.62298 0.67361 0.0
C625 C 0.36282 0.74827 0.73214 0.0
C626 C 0.64676 0.2265 1.0 0.0
C627 C 0.57719 0.19997 1.00287 0.0
H628 H 0.73981 0.27146 1.03447 0.0
C629 C 0.54913 0.20163 1.04451 0.0
H630 H 0.67111 0.22758 0.96884 0.0
C631 C 0.58933 0.22827 0.08208 0.0
C632 C 0.65827 0.25291 0.07907 0.0
H633 H 0.496 0.18132 1.04866 0.0
H634 H 0.56622 0.22734 0.11385 0.0
C635 C 0.6866 0.25221 1.03765 0.0
C636 C 0.16124 0.50115 0.18911 0.0
C637 C 0.13303 0.5378 0.20809 0.0
H638 H 0.17438 0.41399 0.19435 0.0
C639 C 0.09165 0.5097 0.24597 0.0
H640 H 0.19505 0.5219 0.16078 0.0
C641 C 0.08268 0.45019 0.26621 0.0
C642 C 0.11594 0.41695 0.24992 0.0
H643 H 0.07101 0.53729 0.26254 0.0
H644 H 0.05311 0.43274 0.29665 0.0
C645 C 0.15165 0.44068 0.20933 0.0
C646 C 0.64434 0.14357 0.59687 0.0
C647 C 0.61703 0.1583 0.55877 0.0
H648 H 0.73153 0.15066 0.62888 0.0
C649 C 0.65877 0.18512 0.52108 0.0
H650 H 0.61409 0.12268 0.62676 0.0
C651 C 0.72635 0.20165 0.52264 0.0
C652 C 0.75506 0.19162 0.56175 0.0
H653 H 0.64063 0.19772 0.49126 0.0
H654 H 0.75711 0.22524 0.49331 0.0
C655 C 0.71208 0.15965 0.59831 0.0
C656 C 0.53918 0.60909 0.92638 0.0
C657 C 0.50479 0.57508 0.88728 0.0
H658 H 0.61369 0.70169 0.95564 0.0
C659 C 0.53062 0.60711 0.84604 0.0
H660 H 0.52103 0.58598 0.95894 0.0
C661 C 0.58438 0.67353 0.84433 0.0
C662 C 0.6138 0.71029 0.88371 0.0
H663 H 0.50571 0.58338 0.81533 0.0
H664 H 0.59964 0.69794 0.81187 0.0
C665 C 0.59274 0.67573 0.92469 0.0
C666 C 0.87079 0.5316 0.18238 0.0
C667 C 0.88283 0.57023 0.22161 0.0
H668 H 0.87105 0.448 0.15003 0.0
C669 C 0.91425 0.55665 0.25711 0.0
H670 H 0.8471 0.5404 0.15395 0.0
C671 C 0.92793 0.50292 0.25467 0.0
C672 C 0.91184 0.46151 0.21644 0.0
H673 H 0.92438 0.58461 0.28783 0.0
H674 H 0.94797 0.49141 0.28399 0.0
C675 C 0.88524 0.47857 0.17973 0.0
C676 C 0.47386 0.93862 0.51232 0.0
C677 C 0.51451 0.96194 0.55024 0.0
H678 H 0.3748 0.89521 0.4859 0.0
C679 C 0.48501 0.9709 0.58954 0.0
H680 H 0.49367 0.9312 0.4814 0.0
C681 C 0.41623 0.95082 0.59215 0.0
C682 C 0.37433 0.921 0.55546 0.0
H683 H 0.5142 0.98911 0.61967 0.0
H684 H 0.39499 0.95307 0.62402 0.0
C685 C 0.40515 0.91819 0.51501 0.0
C686 C 0.56678 0.43238 0.84348 0.0
C687 C 0.59119 0.46732 0.88351 0.0
H688 H 0.49888 0.33979 0.81227 0.0
C689 C 0.55559 0.43493 0.92343 0.0
H690 H 0.59199 0.45463 0.81212 0.0
C691 C 0.50196 0.36792 0.92383 0.0
C692 C 0.48178 0.33102 0.88418 0.0
H693 H 0.57197 0.45996 0.95519 0.0
H694 H 0.47959 0.34383 0.95547 0.0
C695 C 0.51318 0.36572 0.84386 0.0
loop_
_geom_bond_atom_site_label_1
_geom_bond_atom_site_label_2
_geom_bond_distance
_geom_bond_site_symmetry_2
_ccdc_geom_bond_type
C0 C1 1.351 . S
C0 N3 1.368 . S
C0 H5 0.931 . S
C1 C0 1.351 . S
C1 N2 1.373 . S
C1 H29 0.930 . S
N2 C1 1.373 . S
N2 C4 1.340 . S
N3 C0 1.368 . S
N3 C4 1.321 . S
N3 Co6 2.135 . S
C4 N2 1.340 . S
C4 N3 1.321 . S
C4 H28 0.930 . S
H5 C0 0.931 . S
Co6 N3 2.135 . S
Co6 N9 2.121 . S
Co6 O14 2.055 . S
Co6 O17 2.039 . S
Co6 N20 2.140 . S
C7 O8 1.227 . S
C7 O17 1.265 . S
O8 C7 1.227 . S
N9 Co6 2.121 . S
N9 C11 1.375 . S
N9 C12 1.313 . S
C10 C11 1.338 . S
C10 N13 1.377 . S
C10 H30 0.930 . S
C11 N9 1.375 . S
C11 C10 1.338 . S
C11 H15 0.931 . S
C12 N9 1.313 . S
C12 N13 1.344 . S
C12 H16 0.930 . S
N13 C10 1.377 . S
N13 C12 1.344 . S
O14 Co6 2.055 . S
O14 C18 1.253 . S
H15 C11 0.931 . S
H16 C12 0.930 . S
O17 Co6 2.039 . S
O17 C7 1.265 . S
C18 O14 1.253 . S
C18 O19 1.227 . S
O19 C18 1.227 . S
N20 Co6 2.140 . S
N20 C23 1.346 . S
N20 C24 1.345 . S
C21 C22 1.387 . S
C21 C25 1.391 . S
C22 C21 1.387 . S
C22 C23 1.369 . S
C22 H31 0.929 . S
C23 N20 1.346 . S
C23 C22 1.369 . S
C23 H26 0.928 . S
C24 N20 1.345 . S
C24 C25 1.371 . S
C24 H27 0.931 . S
C25 C21 1.391 . S
C25 C24 1.371 . S
C25 H32 0.930 . S
H26 C23 0.928 . S
H27 C24 0.931 . S
H28 C4 0.930 . S
H29 C1 0.930 . S
H30 C10 0.930 . S
H31 C22 0.929 . S
H32 C25 0.930 . S
C33 C34 1.351 . S
C33 N36 1.368 . S
C33 H38 0.931 . S
C34 C33 1.351 . S
C34 N35 1.373 . S
C34 H62 0.930 . S
N35 C34 1.373 . S
N35 C37 1.340 . S
N36 C33 1.368 . S
N36 C37 1.321 . S
N36 Co39 2.135 . S
C37 N35 1.340 . S
C37 N36 1.321 . S
C37 H61 0.930 . S
H38 C33 0.931 . S
Co39 N36 2.135 . S
Co39 N42 2.121 . S
Co39 O47 2.055 . S
Co39 O50 2.039 . S
Co39 N53 2.140 . S
C40 O41 1.227 . S
C40 O50 1.265 . S
O41 C40 1.227 . S
N42 Co39 2.121 . S
N42 C44 1.375 . S
N42 C45 1.313 . S
C43 C44 1.338 . S
C43 N46 1.377 . S
C43 H63 0.930 . S
C44 N42 1.375 . S
C44 C43 1.338 . S
C44 H48 0.931 . S
C45 N42 1.313 . S
C45 N46 1.344 . S
C45 H49 0.930 . S
N46 C43 1.377 . S
N46 C45 1.344 . S
O47 Co39 2.055 . S
O47 C51 1.253 . S
H48 C44 0.931 . S
H49 C45 0.930 . S
O50 Co39 2.039 . S
O50 C40 1.265 . S
C51 O47 1.253 . S
C51 O52 1.227 . S
O52 C51 1.227 . S
N53 Co39 2.140 . S
N53 C56 1.346 . S
N53 C57 1.345 . S
C54 C55 1.387 . S
C54 C58 1.391 . S
C55 C54 1.387 . S
C55 C56 1.369 . S
C55 H64 0.929 . S
C56 N53 1.346 . S
C56 C55 1.369 . S
C56 H59 0.928 . S
C57 N53 1.345 . S
C57 C58 1.371 . S
C57 H60 0.931 . S
C58 C54 1.391 . S
C58 C57 1.371 . S
C58 H65 0.930 . S
H59 C56 0.928 . S
H60 C57 0.931 . S
H61 C37 0.930 . S
H62 C34 0.930 . S
H63 C43 0.930 . S
H64 C55 0.929 . S
H65 C58 0.930 . S
C66 C67 1.351 . S
C66 N69 1.368 . S
C66 H71 0.931 . S
C67 C66 1.351 . S
C67 N68 1.373 . S
C67 H95 0.930 . S
N68 C67 1.373 . S
N68 C70 1.340 . S
N69 C66 1.368 . S
N69 C70 1.321 . S
N69 Co72 2.135 . S
C70 N68 1.340 . S
C70 N69 1.321 . S
C70 H94 0.930 . S
H71 C66 0.931 . S
Co72 N69 2.135 . S
Co72 N75 2.121 . S
Co72 O80 2.055 . S
Co72 O83 2.039 . S
Co72 N86 2.140 . S
C73 O74 1.227 . S
C73 O83 1.265 . S
O74 C73 1.227 . S
N75 Co72 2.121 . S
N75 C77 1.375 . S
N75 C78 1.313 . S
C76 C77 1.338 . S
C76 N79 1.377 . S
C76 H96 0.930 . S
C77 N75 1.375 . S
C77 C76 1.338 . S
C77 H81 0.931 . S
C78 N75 1.313 . S
C78 N79 1.344 . S
C78 H82 0.930 . S
N79 C76 1.377 . S
N79 C78 1.344 . S
O80 Co72 2.055 . S
O80 C84 1.253 . S
H81 C77 0.931 . S
H82 C78 0.930 . S
O83 Co72 2.039 . S
O83 C73 1.265 . S
C84 O80 1.253 . S
C84 O85 1.227 . S
O85 C84 1.227 . S
N86 Co72 2.140 . S
N86 C89 1.346 . S
N86 C90 1.345 . S
C87 C88 1.387 . S
C87 C91 1.391 . S
C88 C87 1.387 . S
C88 C89 1.369 . S
C88 H97 0.929 . S
C89 N86 1.346 . S
C89 C88 1.369 . S
C89 H92 0.928 . S
C90 N86 1.345 . S
C90 C91 1.371 . S
C90 H93 0.931 . S
C91 C87 1.391 . S
C91 C90 1.371 . S
C91 H98 0.930 . S
H92 C89 0.928 . S
H93 C90 0.931 . S
H94 C70 0.930 . S
H95 C67 0.930 . S
H96 C76 0.930 . S
H97 C88 0.929 . S
H98 C91 0.930 . S
C99 C100 1.351 . S
C99 N102 1.368 . S
C99 H104 0.931 . S
C100 C99 1.351 . S
C100 N101 1.373 . S
C100 H128 0.930 . S
N101 C100 1.373 . S
N101 C103 1.340 . S
N102 C99 1.368 . S
N102 C103 1.321 . S
N102 Co105 2.135 . S
C103 N101 1.340 . S
C103 N102 1.321 . S
C103 H127 0.930 . S
H104 C99 0.931 . S
Co105 N102 2.135 . S
Co105 N108 2.121 . S
Co105 O113 2.055 . S
Co105 O116 2.039 . S
Co105 N119 2.140 . S
C106 O107 1.227 . S
C106 O116 1.265 . S
O107 C106 1.227 . S
N108 Co105 2.121 . S
N108 C110 1.375 . S
N108 C111 1.313 . S
C109 C110 1.338 . S
C109 N112 1.377 . S
C109 H129 0.930 . S
C110 N108 1.375 . S
C110 C109 1.338 . S
C110 H114 0.931 . S
C111 N108 1.313 . S
C111 N112 1.344 . S
C111 H115 0.930 . S
N112 C109 1.377 . S
N112 C111 1.344 . S
O113 Co105 2.055 . S
O113 C117 1.253 . S
H114 C110 0.931 . S
H115 C111 0.930 . S
O116 Co105 2.039 . S
O116 C106 1.265 . S
C117 O113 1.253 . S
C117 O118 1.227 . S
O118 C117 1.227 . S
N119 Co105 2.140 . S
N119 C122 1.346 . S
N119 C123 1.345 . S
C120 C121 1.387 . S
C120 C124 1.391 . S
C121 C120 1.387 . S
C121 C122 1.369 . S
C121 H130 0.929 . S
C122 N119 1.346 . S
C122 C121 1.369 . S
C122 H125 0.928 . S
C123 N119 1.345 . S
C123 C124 1.371 . S
C123 H126 0.931 . S
C124 C120 1.391 . S
C124 C123 1.371 . S
C124 H131 0.930 . S
H125 C122 0.928 . S
H126 C123 0.931 . S
H127 C103 0.930 . S
H128 C100 0.930 . S
H129 C109 0.930 . S
H130 C121 0.929 . S
H131 C124 0.930 . S
C132 C133 1.351 . S
C132 N135 1.368 . S
C132 H137 0.931 . S
C133 C132 1.351 . S
C133 N134 1.373 . S
C133 H161 0.930 . S
N134 C133 1.373 . S
N134 C136 1.340 . S
N135 C132 1.368 . S
N135 C136 1.321 . S
N135 Co138 2.135 . S
C136 N134 1.340 . S
C136 N135 1.321 . S
C136 H160 0.930 . S
H137 C132 0.931 . S
Co138 N135 2.135 . S
Co138 N141 2.121 . S
Co138 O146 2.055 . S
Co138 O149 2.039 . S
Co138 N152 2.140 . S
C139 O140 1.227 . S
C139 O149 1.265 . S
O140 C139 1.227 . S
N141 Co138 2.121 . S
N141 C143 1.375 . S
N141 C144 1.313 . S
C142 C143 1.338 . S
C142 N145 1.377 . S
C142 H162 0.930 . S
C143 N141 1.375 . S
C143 C142 1.338 . S
C143 H147 0.931 . S
C144 N141 1.313 . S
C144 N145 1.344 . S
C144 H148 0.930 . S
N145 C142 1.377 . S
N145 C144 1.344 . S
O146 Co138 2.055 . S
O146 C150 1.253 . S
H147 C143 0.931 . S
H148 C144 0.930 . S
O149 Co138 2.039 . S
O149 C139 1.265 . S
C150 O146 1.253 . S
C150 O151 1.227 . S
O151 C150 1.227 . S
N152 Co138 2.140 . S
N152 C155 1.346 . S
N152 C156 1.345 . S
C153 C154 1.387 . S
C153 C157 1.391 . S
C154 C153 1.387 . S
C154 C155 1.369 . S
C154 H163 0.929 . S
C155 N152 1.346 . S
C155 C154 1.369 . S
C155 H158 0.928 . S
C156 N152 1.345 . S
C156 C157 1.371 . S
C156 H159 0.931 . S
C157 C153 1.391 . S
C157 C156 1.371 . S
C157 H164 0.930 . S
H158 C155 0.928 . S
H159 C156 0.931 . S
H160 C136 0.930 . S
H161 C133 0.930 . S
H162 C142 0.930 . S
H163 C154 0.929 . S
H164 C157 0.930 . S
C165 C166 1.351 . S
C165 N168 1.368 . S
C165 H170 0.931 . S
C166 C165 1.351 . S
C166 N167 1.373 . S
C166 H194 0.930 . S
N167 C166 1.373 . S
N167 C169 1.340 . S
N168 C165 1.368 . S
N168 C169 1.321 . S
N168 Co171 2.135 . S
C169 N167 1.340 . S
C169 N168 1.321 . S
C169 H193 0.930 . S
H170 C165 0.931 . S
Co171 N168 2.135 . S
Co171 N174 2.121 . S
Co171 O179 2.055 . S
Co171 O182 2.039 . S
Co171 N185 2.140 . S
C172 O173 1.227 . S
C172 O182 1.265 . S
O173 C172 1.227 . S
N174 Co171 2.121 . S
N174 C176 1.375 . S
N174 C177 1.313 . S
C175 C176 1.338 . S
C175 N178 1.377 . S
C175 H195 0.930 . S
C176 N174 1.375 . S
C176 C175 1.338 . S
C176 H180 0.931 . S
C177 N174 1.313 . S
C177 N178 1.344 . S
C177 H181 0.930 . S
N178 C175 1.377 . S
N178 C177 1.344 . S
O179 Co171 2.055 . S
O179 C183 1.253 . S
H180 C176 0.931 . S
H181 C177 0.930 . S
O182 Co171 2.039 . S
O182 C172 1.265 . S
C183 O179 1.253 . S
C183 O184 1.227 . S
O184 C183 1.227 . S
N185 Co171 2.140 . S
N185 C188 1.346 . S
N185 C189 1.345 . S
C186 C187 1.387 . S
C186 C190 1.391 . S
C187 C186 1.387 . S
C187 C188 1.369 . S
C187 H196 0.929 . S
C188 N185 1.346 . S
C188 C187 1.369 . S
C188 H191 0.928 . S
C189 N185 1.345 . S
C189 C190 1.371 . S
C189 H192 0.931 . S
C190 C186 1.391 . S
C190 C189 1.371 . S
C190 H197 0.930 . S
H191 C188 0.928 . S
H192 C189 0.931 . S
H193 C169 0.930 . S
H194 C166 0.930 . S
H195 C175 0.930 . S
H196 C187 0.929 . S
H197 C190 0.930 . S
C198 C199 1.351 . S
C198 N201 1.368 . S
C198 H203 0.931 . S
C199 C198 1.351 . S
C199 N200 1.373 . S
C199 H227 0.930 . S
N200 C199 1.373 . S
N200 C202 1.340 . S
N201 C198 1.368 . S
N201 C202 1.321 . S
N201 Co204 2.135 . S
C202 N200 1.340 . S
C202 N201 1.321 . S
C202 H226 0.930 . S
H203 C198 0.931 . S
Co204 N201 2.135 . S
Co204 N207 2.121 . S
Co204 O212 2.055 . S
Co204 O215 2.039 . S
Co204 N218 2.140 . S
C205 O206 1.227 . S
C205 O215 1.265 . S
O206 C205 1.227 . S
N207 Co204 2.121 . S
N207 C209 1.375 . S
N207 C210 1.313 . S
C208 C209 1.338 . S
C208 N211 1.377 . S
C208 H228 0.930 . S
C209 N207 1.375 . S
C209 C208 1.338 . S
C209 H213 0.931 . S
C210 N207 1.313 . S
C210 N211 1.344 . S
C210 H214 0.930 . S
N211 C208 1.377 . S
N211 C210 1.344 . S
O212 Co204 2.055 . S
O212 C216 1.253 . S
H213 C209 0.931 . S
H214 C210 0.930 . S
O215 Co204 2.039 . S
O215 C205 1.265 . S
C216 O212 1.253 . S
C216 O217 1.227 . S
O217 C216 1.227 . S
N218 Co204 2.140 . S
N218 C221 1.346 . S
N218 C222 1.345 . S
C219 C220 1.387 . S
C219 C223 1.391 . S
C220 C219 1.387 . S
C220 C221 1.369 . S
C220 H229 0.929 . S
C221 N218 1.346 . S
C221 C220 1.369 . S
C221 H224 0.928 . S
C222 N218 1.345 . S
C222 C223 1.371 . S
C222 H225 0.931 . S
C223 C219 1.391 . S
C223 C222 1.371 . S
C223 H230 0.930 . S
H224 C221 0.928 . S
H225 C222 0.931 . S
H226 C202 0.930 . S
H227 C199 0.930 . S
H228 C208 0.930 . S
H229 C220 0.929 . S
H230 C223 0.930 . S
C231 C232 1.351 . S
C231 N234 1.368 . S
C231 H236 0.931 . S
C232 C231 1.351 . S
C232 N233 1.373 . S
C232 H260 0.930 . S
N233 C232 1.373 . S
N233 C235 1.340 . S
N234 C231 1.368 . S
N234 C235 1.321 . S
N234 Co237 2.135 . S
C235 N233 1.340 . S
C235 N234 1.321 . S
C235 H259 0.930 . S
H236 C231 0.931 . S
Co237 N234 2.135 . S
Co237 N240 2.121 . S
Co237 O245 2.055 . S
Co237 O248 2.039 . S
Co237 N251 2.140 . S
C238 O239 1.227 . S
C238 O248 1.265 . S
O239 C238 1.227 . S
N240 Co237 2.121 . S
N240 C242 1.375 . S
N240 C243 1.313 . S
C241 C242 1.338 . S
C241 N244 1.377 . S
C241 H261 0.930 . S
C242 N240 1.375 . S
C242 C241 1.338 . S
C242 H246 0.931 . S
C243 N240 1.313 . S
C243 N244 1.344 . S
C243 H247 0.930 . S
N244 C241 1.377 . S
N244 C243 1.344 . S
O245 Co237 2.055 . S
O245 C249 1.253 . S
H246 C242 0.931 . S
H247 C243 0.930 . S
O248 Co237 2.039 . S
O248 C238 1.265 . S
C249 O245 1.253 . S
C249 O250 1.227 . S
O250 C249 1.227 . S
N251 Co237 2.140 . S
N251 C254 1.346 . S
N251 C255 1.345 . S
C252 C253 1.387 . S
C252 C256 1.391 . S
C253 C252 1.387 . S
C253 C254 1.369 . S
C253 H262 0.929 . S
C254 N251 1.346 . S
C254 C253 1.369 . S
C254 H257 0.928 . S
C255 N251 1.345 . S
C255 C256 1.371 . S
C255 H258 0.931 . S
C256 C252 1.391 . S
C256 C255 1.371 . S
C256 H263 0.930 . S
H257 C254 0.928 . S
H258 C255 0.931 . S
H259 C235 0.930 . S
H260 C232 0.930 . S
H261 C241 0.930 . S
H262 C253 0.929 . S
H263 C256 0.930 . S
C264 C265 1.351 . S
C264 N267 1.368 . S
C264 H269 0.931 . S
C265 C264 1.351 . S
C265 N266 1.373 . S
C265 H293 0.930 . S
N266 C265 1.373 . S
N266 C268 1.340 . S
N267 C264 1.368 . S
N267 C268 1.321 . S
N267 Co270 2.135 . S
C268 N266 1.340 . S
C268 N267 1.321 . S
C268 H292 0.930 . S
H269 C264 0.931 . S
Co270 N267 2.135 . S
Co270 N273 2.121 . S
Co270 O278 2.055 . S
Co270 O281 2.039 . S
Co270 N284 2.140 . S
C271 O272 1.227 . S
C271 O281 1.265 . S
O272 C271 1.227 . S
N273 Co270 2.121 . S
N273 C275 1.375 . S
N273 C276 1.313 . S
C274 C275 1.338 . S
C274 N277 1.377 . S
C274 H294 0.930 . S
C275 N273 1.375 . S
C275 C274 1.338 . S
C275 H279 0.931 . S
C276 N273 1.313 . S
C276 N277 1.344 . S
C276 H280 0.930 . S
N277 C274 1.377 . S
N277 C276 1.344 . S
O278 Co270 2.055 . S
O278 C282 1.253 . S
H279 C275 0.931 . S
H280 C276 0.930 . S
O281 Co270 2.039 . S
O281 C271 1.265 . S
C282 O278 1.253 . S
C282 O283 1.227 . S
O283 C282 1.227 . S
N284 Co270 2.140 . S
N284 C287 1.346 . S
N284 C288 1.345 . S
C285 C286 1.387 . S
C285 C289 1.391 . S
C286 C285 1.387 . S
C286 C287 1.369 . S
C286 H295 0.929 . S
C287 N284 1.346 . S
C287 C286 1.369 . S
C287 H290 0.928 . S
C288 N284 1.345 . S
C288 C289 1.371 . S
C288 H291 0.931 . S
C289 C285 1.391 . S
C289 C288 1.371 . S
C289 H296 0.930 . S
H290 C287 0.928 . S
H291 C288 0.931 . S
H292 C268 0.930 . S
H293 C265 0.930 . S
H294 C274 0.930 . S
H295 C286 0.929 . S
H296 C289 0.930 . S
C297 C298 1.351 . S
C297 N300 1.368 . S
C297 H302 0.931 . S
C298 C297 1.351 . S
C298 N299 1.373 . S
C298 H326 0.930 . S
N299 C298 1.373 . S
N299 C301 1.340 . S
N300 C297 1.368 . S
N300 C301 1.321 . S
N300 Co303 2.135 . S
C301 N299 1.340 . S
C301 N300 1.321 . S
C301 H325 0.930 . S
H302 C297 0.931 . S
Co303 N300 2.135 . S
Co303 N306 2.121 . S
Co303 O311 2.055 . S
Co303 O314 2.039 . S
Co303 N317 2.140 . S
C304 O305 1.227 . S
C304 O314 1.265 . S
O305 C304 1.227 . S
N306 Co303 2.121 . S
N306 C308 1.375 . S
N306 C309 1.313 . S
C307 C308 1.338 . S
C307 N310 1.377 . S
C307 H327 0.930 . S
C308 N306 1.375 . S
C308 C307 1.338 . S
C308 H312 0.931 . S
C309 N306 1.313 . S
C309 N310 1.344 . S
C309 H313 0.930 . S
N310 C307 1.377 . S
N310 C309 1.344 . S
O311 Co303 2.055 . S
O311 C315 1.253 . S
H312 C308 0.931 . S
H313 C309 0.930 . S
O314 Co303 2.039 . S
O314 C304 1.265 . S
C315 O311 1.253 . S
C315 O316 1.227 . S
O316 C315 1.227 . S
N317 Co303 2.140 . S
N317 C320 1.346 . S
N317 C321 1.345 . S
C318 C319 1.387 . S
C318 C322 1.391 . S
C319 C318 1.387 . S
C319 C320 1.369 . S
C319 H328 0.929 . S
C320 N317 1.346 . S
C320 C319 1.369 . S
C320 H323 0.928 . S
C321 N317 1.345 . S
C321 C322 1.371 . S
C321 H324 0.931 . S
C322 C318 1.391 . S
C322 C321 1.371 . S
C322 H329 0.930 . S
H323 C320 0.928 . S
H324 C321 0.931 . S
H325 C301 0.930 . S
H326 C298 0.930 . S
H327 C307 0.930 . S
H328 C319 0.929 . S
H329 C322 0.930 . S
C330 C331 1.351 . S
C330 N333 1.368 . S
C330 H335 0.931 . S
C331 C330 1.351 . S
C331 N332 1.373 . S
C331 H359 0.930 . S
N332 C331 1.373 . S
N332 C334 1.340 . S
N333 C330 1.368 . S
N333 C334 1.321 . S
N333 Co336 2.135 . S
C334 N332 1.340 . S
C334 N333 1.321 . S
C334 H358 0.930 . S
H335 C330 0.931 . S
Co336 N333 2.135 . S
Co336 N339 2.121 . S
Co336 O344 2.055 . S
Co336 O347 2.039 . S
Co336 N350 2.140 . S
C337 O338 1.227 . S
C337 O347 1.265 . S
O338 C337 1.227 . S
N339 Co336 2.121 . S
N339 C341 1.375 . S
N339 C342 1.313 . S
C340 C341 1.338 . S
C340 N343 1.377 . S
C340 H360 0.930 . S
C341 N339 1.375 . S
C341 C340 1.338 . S
C341 H345 0.931 . S
C342 N339 1.313 . S
C342 N343 1.344 . S
C342 H346 0.930 . S
N343 C340 1.377 . S
N343 C342 1.344 . S
O344 Co336 2.055 . S
O344 C348 1.253 . S
H345 C341 0.931 . S
H346 C342 0.930 . S
O347 Co336 2.039 . S
O347 C337 1.265 . S
C348 O344 1.253 . S
C348 O349 1.227 . S
O349 C348 1.227 . S
N350 Co336 2.140 . S
N350 C353 1.346 . S
N350 C354 1.345 . S
C351 C352 1.387 . S
C351 C355 1.391 . S
C352 C351 1.387 . S
C352 C353 1.369 . S
C352 H361 0.929 . S
C353 N350 1.346 . S
C353 C352 1.369 . S
C353 H356 0.928 . S
C354 N350 1.345 . S
C354 C355 1.371 . S
C354 H357 0.931 . S
C355 C351 1.391 . S
C355 C354 1.371 . S
C355 H362 0.930 . S
H356 C353 0.928 . S
H357 C354 0.931 . S
H358 C334 0.930 . S
H359 C331 0.930 . S
H360 C340 0.930 . S
H361 C352 0.929 . S
H362 C355 0.930 . S
C363 C364 1.351 . S
C363 N366 1.368 . S
C363 H368 0.931 . S
C364 C363 1.351 . S
C364 N365 1.373 . S
C364 H392 0.930 . S
N365 C364 1.373 . S
N365 C367 1.340 . S
N366 C363 1.368 . S
N366 C367 1.321 . S
N366 Co369 2.135 . S
C367 N365 1.340 . S
C367 N366 1.321 . S
C367 H391 0.930 . S
H368 C363 0.931 . S
Co369 N366 2.135 . S
Co369 N372 2.121 . S
Co369 O377 2.055 . S
Co369 O380 2.039 . S
Co369 N383 2.140 . S
C370 O371 1.227 . S
C370 O380 1.265 . S
O371 C370 1.227 . S
N372 Co369 2.121 . S
N372 C374 1.375 . S
N372 C375 1.313 . S
C373 C374 1.338 . S
C373 N376 1.377 . S
C373 H393 0.930 . S
C374 N372 1.375 . S
C374 C373 1.338 . S
C374 H378 0.931 . S
C375 N372 1.313 . S
C375 N376 1.344 . S
C375 H379 0.930 . S
N376 C373 1.377 . S
N376 C375 1.344 . S
O377 Co369 2.055 . S
O377 C381 1.253 . S
H378 C374 0.931 . S
H379 C375 0.930 . S
O380 Co369 2.039 . S
O380 C370 1.265 . S
C381 O377 1.253 . S
C381 O382 1.227 . S
O382 C381 1.227 . S
N383 Co369 2.140 . S
N383 C386 1.346 . S
N383 C387 1.345 . S
C384 C385 1.387 . S
C384 C388 1.391 . S
C385 C384 1.387 . S
C385 C386 1.369 . S
C385 H394 0.929 . S
C386 N383 1.346 . S
C386 C385 1.369 . S
C386 H389 0.928 . S
C387 N383 1.345 . S
C387 C388 1.371 . S
C387 H390 0.931 . S
C388 C384 1.391 . S
C388 C387 1.371 . S
C388 H395 0.930 . S
H389 C386 0.928 . S
H390 C387 0.931 . S
H391 C367 0.930 . S
H392 C364 0.930 . S
H393 C373 0.930 . S
H394 C385 0.929 . S
H395 C388 0.930 . S
C396 C397 1.387 . S
C396 H400 0.950 . S
C396 C405 1.390 . S
C397 C396 1.387 . S
C397 C399 1.387 . S
H398 C405 0.950 . S
C399 C397 1.387 . S
C399 C401 1.390 . S
C399 H403 0.950 . S
H400 C396 0.950 . S
C401 C399 1.390 . S
C401 C402 1.387 . S
C401 H404 0.950 . S
C402 C401 1.387 . S
C402 C405 1.387 . S
H403 C399 0.950 . S
H404 C401 0.950 . S
C405 C396 1.390 . S
C405 H398 0.950 . S
C405 C402 1.387 . S
C406 C407 1.387 . S
C406 H410 0.950 . S
C406 C415 1.390 1_655 S
C407 C406 1.387 . S
C407 C409 1.387 . S
H408 C415 0.950 . S
C409 C407 1.387 . S
C409 C411 1.390 1_655 S
C409 H413 0.950 . S
H410 C406 0.950 . S
C411 C409 1.390 1_455 S
C411 C412 1.387 . S
C411 H414 0.950 . S
C412 C411 1.387 . S
C412 C415 1.387 . S
H413 C409 0.950 . S
H414 C411 0.950 . S
C415 C406 1.390 1_455 S
C415 H408 0.950 . S
C415 C412 1.387 . S
C416 C417 1.387 . S
C416 H420 0.950 . S
C416 C425 1.390 1_545 S
C417 C416 1.387 . S
C417 C419 1.387 . S
H418 C425 0.950 . S
C419 C417 1.387 . S
C419 C421 1.390 1_545 S
C419 H423 0.950 . S
H420 C416 0.950 . S
C421 C419 1.390 1_565 S
C421 C422 1.387 . S
C421 H424 0.950 . S
C422 C421 1.387 . S
C422 C425 1.387 . S
H423 C419 0.950 . S
H424 C421 0.950 . S
C425 C416 1.390 1_565 S
C425 H418 0.950 . S
C425 C422 1.387 . S
C426 C427 1.387 . S
C426 H430 0.950 . S
C426 C435 1.390 . S
C427 C426 1.387 . S
C427 C429 1.387 . S
H428 C435 0.950 . S
C429 C427 1.387 . S
C429 C431 1.390 . S
C429 H433 0.950 . S
H430 C426 0.950 . S
C431 C429 1.390 . S
C431 C432 1.387 . S
C431 H434 0.950 . S
C432 C431 1.387 . S
C432 C435 1.387 . S
H433 C429 0.950 . S
H434 C431 0.950 . S
C435 C426 1.390 . S
C435 H428 0.950 . S
C435 C432 1.387 . S
C436 C437 1.387 . S
C436 H440 0.950 . S
C436 C445 1.390 1_455 S
C437 C436 1.387 . S
C437 C439 1.387 . S
H438 C445 0.950 . S
C439 C437 1.387 . S
C439 C441 1.390 1_455 S
C439 H443 0.950 . S
H440 C436 0.950 . S
C441 C439 1.390 1_655 S
C441 C442 1.387 . S
C441 H444 0.950 . S
C442 C441 1.387 . S
C442 C445 1.387 . S
H443 C439 0.950 . S
H444 C441 0.950 . S
C445 C436 1.390 1_655 S
C445 H438 0.950 . S
C445 C442 1.387 . S
C446 C447 1.387 . S
C446 H450 0.950 . S
C446 C455 1.390 1_565 S
C447 C446 1.387 . S
C447 C449 1.387 . S
H448 C455 0.950 . S
C449 C447 1.387 . S
C449 C451 1.390 1_565 S
C449 H453 0.950 . S
H450 C446 0.950 . S
C451 C449 1.390 1_545 S
C451 C452 1.387 . S
C451 H454 0.950 . S
C452 C451 1.387 . S
C452 C455 1.387 . S
H453 C449 0.950 . S
H454 C451 0.950 . S
C455 C446 1.390 1_545 S
C455 H448 0.950 . S
C455 C452 1.387 . S
C456 C457 1.387 . S
C456 H460 0.950 . S
C456 C465 1.390 1_554 S
C457 C456 1.387 . S
C457 C459 1.387 . S
H458 C465 0.950 . S
C459 C457 1.387 . S
C459 C461 1.390 1_554 S
C459 H463 0.950 . S
H460 C456 0.950 . S
C461 C459 1.390 1_556 S
C461 C462 1.387 . S
C461 H464 0.950 . S
C462 C461 1.387 . S
C462 C465 1.387 . S
H463 C459 0.950 . S
H464 C461 0.950 . S
C465 C456 1.390 1_556 S
C465 H458 0.950 . S
C465 C462 1.387 . S
C466 C467 1.387 . S
C466 H470 0.950 . S
C466 C475 1.390 . S
C467 C466 1.387 . S
C467 C469 1.387 . S
H468 C475 0.950 . S
C469 C467 1.387 . S
C469 C471 1.390 . S
C469 H473 0.950 . S
H470 C466 0.950 . S
C471 C469 1.390 . S
C471 C472 1.387 . S
C471 H474 0.950 . S
C472 C471 1.387 . S
C472 C475 1.387 . S
H473 C469 0.950 . S
H474 C471 0.950 . S
C475 C466 1.390 . S
C475 H468 0.950 . S
C475 C472 1.387 . S
C476 C477 1.387 . S
C476 H480 0.950 . S
C476 C485 1.390 . S
C477 C476 1.387 . S
C477 C479 1.387 . S
H478 C485 0.950 . S
C479 C477 1.387 . S
C479 C481 1.390 . S
C479 H483 0.950 . S
H480 C476 0.950 . S
C481 C479 1.390 . S
C481 C482 1.387 . S
C481 H484 0.950 . S
C482 C481 1.387 . S
C482 C485 1.387 . S
H483 C479 0.950 . S
H484 C481 0.950 . S
C485 C476 1.390 . S
C485 H478 0.950 . S
C485 C482 1.387 . S
C486 C487 1.387 . S
C486 H490 0.950 . S
C486 C495 1.390 1_554 S
C487 C486 1.387 . S
C487 C489 1.387 . S
H488 C495 0.950 . S
C489 C487 1.387 . S
C489 C491 1.390 1_554 S
C489 H493 0.950 . S
H490 C486 0.950 . S
C491 C489 1.390 1_556 S
C491 C492 1.387 . S
C491 H494 0.950 . S
C492 C491 1.387 . S
C492 C495 1.387 . S
H493 C489 0.950 . S
H494 C491 0.950 . S
C495 C486 1.390 1_556 S
C495 H488 0.950 . S
C495 C492 1.387 . S
C496 C497 1.387 . S
C496 H500 0.950 . S
C496 C505 1.390 . S
C497 C496 1.387 . S
C497 C499 1.387 . S
H498 C505 0.950 . S
C499 C497 1.387 . S
C499 C501 1.390 . S
C499 H503 0.950 . S
H500 C496 0.950 . S
C501 C499 1.390 . S
C501 C502 1.387 . S
C501 H504 0.950 . S
C502 C501 1.387 . S
C502 C505 1.387 . S
H503 C499 0.950 . S
H504 C501 0.950 . S
C505 C496 1.390 . S
C505 H498 0.950 . S
C505 C502 1.387 . S
C506 C507 1.387 . S
C506 H510 0.950 . S
C506 C515 1.390 . S
C507 C506 1.387 . S
C507 C509 1.387 . S
H508 C515 0.950 . S
C509 C507 1.387 . S
C509 C511 1.390 . S
C509 H513 0.950 . S
H510 C506 0.950 . S
C511 C509 1.390 . S
C511 C512 1.387 . S
C511 H514 0.950 . S
C512 C511 1.387 . S
C512 C515 1.387 . S
H513 C509 0.950 . S
H514 C511 0.950 . S
C515 C506 1.390 . S
C515 H508 0.950 . S
C515 C512 1.387 . S
C516 C517 1.387 . S
C516 H520 0.950 . S
C516 C525 1.390 . S
C517 C516 1.387 . S
C517 C519 1.387 . S
H518 C525 0.950 . S
C519 C517 1.387 . S
C519 C521 1.390 . S
C519 H523 0.950 . S
H520 C516 0.950 . S
C521 C519 1.390 . S
C521 C522 1.387 . S
C521 H524 0.950 . S
C522 C521 1.387 . S
C522 C525 1.387 . S
H523 C519 0.950 . S
H524 C521 0.950 . S
C525 C516 1.390 . S
C525 H518 0.950 . S
C525 C522 1.387 . S
C526 C527 1.387 1_455 S
C526 H530 0.950 . S
C526 C535 1.390 . S
C527 C526 1.387 1_655 S
C527 C529 1.387 . S
H528 C535 0.950 . S
C529 C527 1.387 . S
C529 C531 1.390 . S
C529 H533 0.950 . S
H530 C526 0.950 . S
C531 C529 1.390 . S
C531 C532 1.387 1_655 S
C531 H534 0.950 . S
C532 C531 1.387 1_455 S
C532 C535 1.387 . S
H533 C529 0.950 . S
H534 C531 0.950 . S
C535 C526 1.390 . S
C535 H528 0.950 . S
C535 C532 1.387 . S
C536 C537 1.387 . S
C536 H540 0.950 . S
C536 C545 1.390 1_566 S
C537 C536 1.387 . S
C537 C539 1.387 . S
H538 C545 0.950 . S
C539 C537 1.387 . S
C539 C541 1.390 1_566 S
C539 H543 0.950 . S
H540 C536 0.950 . S
C541 C539 1.390 1_544 S
C541 C542 1.387 . S
C541 H544 0.950 . S
C542 C541 1.387 . S
C542 C545 1.387 . S
H543 C539 0.950 . S
H544 C541 0.950 . S
C545 C536 1.390 1_544 S
C545 H538 0.950 . S
C545 C542 1.387 . S
C546 C547 1.387 . S
C546 H550 0.950 . S
C546 C555 1.390 . S
C547 C546 1.387 . S
C547 C549 1.387 . S
H548 C555 0.950 . S
C549 C547 1.387 . S
C549 C551 1.390 . S
C549 H553 0.950 . S
H550 C546 0.950 . S
C551 C549 1.390 . S
C551 C552 1.387 . S
C551 H554 0.950 . S
C552 C551 1.387 . S
C552 C555 1.387 . S
H553 C549 0.950 . S
H554 C551 0.950 . S
C555 C546 1.390 . S
C555 H548 0.950 . S
C555 C552 1.387 . S
C556 C557 1.387 . S
C556 H560 0.950 . S
C556 C565 1.390 1_655 S
C557 C556 1.387 . S
C557 C559 1.387 . S
H558 C565 0.950 . S
C559 C557 1.387 . S
C559 C561 1.390 1_655 S
C559 H563 0.950 . S
H560 C556 0.950 . S
C561 C559 1.390 1_455 S
C561 C562 1.387 . S
C561 H564 0.950 . S
C562 C561 1.387 . S
C562 C565 1.387 . S
H563 C559 0.950 . S
H564 C561 0.950 . S
C565 C556 1.390 1_455 S
C565 H558 0.950 . S
C565 C562 1.387 . S
C566 C567 1.387 . S
C566 H570 0.950 . S
C566 C575 1.390 1_564 S
C567 C566 1.387 . S
C567 C569 1.387 . S
H568 C575 0.950 . S
C569 C567 1.387 . S
C569 C571 1.390 1_564 S
C569 H573 0.950 . S
H570 C566 0.950 . S
C571 C569 1.390 1_546 S
C571 C572 1.387 . S
C571 H574 0.950 . S
C572 C571 1.387 . S
C572 C575 1.387 . S
H573 C569 0.950 . S
H574 C571 0.950 . S
C575 C566 1.390 1_546 S
C575 H568 0.950 . S
C575 C572 1.387 . S
C576 C577 1.387 . S
C576 H580 0.950 . S
C576 C585 1.390 . S
C577 C576 1.387 . S
C577 C579 1.387 . S
H578 C585 0.950 . S
C579 C577 1.387 . S
C579 C581 1.390 . S
C579 H583 0.950 . S
H580 C576 0.950 . S
C581 C579 1.390 . S
C581 C582 1.387 . S
C581 H584 0.950 . S
C582 C581 1.387 . S
C582 C585 1.387 . S
H583 C579 0.950 . S
H584 C581 0.950 . S
C585 C576 1.390 . S
C585 H578 0.950 . S
C585 C582 1.387 . S
C586 C587 1.387 . S
C586 H590 0.950 . S
C586 C595 1.390 . S
C587 C586 1.387 . S
C587 C589 1.387 . S
H588 C595 0.950 . S
C589 C587 1.387 . S
C589 C591 1.390 . S
C589 H593 0.950 . S
H590 C586 0.950 . S
C591 C589 1.390 . S
C591 C592 1.387 . S
C591 H594 0.950 . S
C592 C591 1.387 . S
C592 C595 1.387 . S
H593 C589 0.950 . S
H594 C591 0.950 . S
C595 C586 1.390 . S
C595 H588 0.950 . S
C595 C592 1.387 . S
C596 C597 1.387 . S
C596 H600 0.950 . S
C596 C605 1.390 1_556 S
C597 C596 1.387 . S
C597 C599 1.387 . S
H598 C605 0.950 . S
C599 C597 1.387 . S
C599 C601 1.390 1_556 S
C599 H603 0.950 . S
H600 C596 0.950 . S
C601 C599 1.390 1_554 S
C601 C602 1.387 . S
C601 H604 0.950 . S
C602 C601 1.387 . S
C602 C605 1.387 . S
H603 C599 0.950 . S
H604 C601 0.950 . S
C605 C596 1.390 1_554 S
C605 H598 0.950 . S
C605 C602 1.387 . S
C606 C607 1.387 . S
C606 H610 0.950 . S
C606 C615 1.390 . S
C607 C606 1.387 . S
C607 C609 1.387 . S
H608 C615 0.950 . S
C609 C607 1.387 . S
C609 C611 1.390 . S
C609 H613 0.950 . S
H610 C606 0.950 . S
C611 C609 1.390 . S
C611 C612 1.387 . S
C611 H614 0.950 . S
C612 C611 1.387 . S
C612 C615 1.387 . S
H613 C609 0.950 . S
H614 C611 0.950 . S
C615 C606 1.390 . S
C615 H608 0.950 . S
C615 C612 1.387 . S
C616 C617 1.387 . S
C616 H620 0.950 . S
C616 C625 1.390 . S
C617 C616 1.387 . S
C617 C619 1.387 . S
H618 C625 0.950 . S
C619 C617 1.387 . S
C619 C621 1.390 . S
C619 H623 0.950 . S
H620 C616 0.950 . S
C621 C619 1.390 . S
C621 C622 1.387 . S
C621 H624 0.950 . S
C622 C621 1.387 . S
C622 C625 1.387 . S
H623 C619 0.950 . S
H624 C621 0.950 . S
C625 C616 1.390 . S
C625 H618 0.950 . S
C625 C622 1.387 . S
C626 C627 1.387 . S
C626 H630 0.950 . S
C626 C635 1.390 1_554 S
C627 C626 1.387 . S
C627 C629 1.387 . S
H628 C635 0.950 . S
C629 C627 1.387 . S
C629 C631 1.390 1_554 S
C629 H633 0.950 . S
H630 C626 0.950 . S
C631 C629 1.390 1_556 S
C631 C632 1.387 . S
C631 H634 0.950 . S
C632 C631 1.387 . S
C632 C635 1.387 . S
H633 C629 0.950 . S
H634 C631 0.950 . S
C635 C626 1.390 1_556 S
C635 H628 0.950 . S
C635 C632 1.387 . S
C636 C637 1.387 . S
C636 H640 0.950 . S
C636 C645 1.390 . S
C637 C636 1.387 . S
C637 C639 1.387 . S
H638 C645 0.950 . S
C639 C637 1.387 . S
C639 C641 1.390 . S
C639 H643 0.950 . S
H640 C636 0.950 . S
C641 C639 1.390 . S
C641 C642 1.387 . S
C641 H644 0.950 . S
C642 C641 1.387 . S
C642 C645 1.387 . S
H643 C639 0.950 . S
H644 C641 0.950 . S
C645 C636 1.390 . S
C645 H638 0.950 . S
C645 C642 1.387 . S
C646 C647 1.387 . S
C646 H650 0.950 . S
C646 C655 1.390 . S
C647 C646 1.387 . S
C647 C649 1.387 . S
H648 C655 0.950 . S
C649 C647 1.387 . S
C649 C651 1.390 . S
C649 H653 0.950 . S
H650 C646 0.950 . S
C651 C649 1.390 . S
C651 C652 1.387 . S
C651 H654 0.950 . S
C652 C651 1.387 . S
C652 C655 1.387 . S
H653 C649 0.950 . S
H654 C651 0.950 . S
C655 C646 1.390 . S
C655 H648 0.950 . S
C655 C652 1.387 . S
C656 C657 1.387 . S
C656 H660 0.950 . S
C656 C665 1.390 . S
C657 C656 1.387 . S
C657 C659 1.387 . S
H658 C665 0.950 . S
C659 C657 1.387 . S
C659 C661 1.390 . S
C659 H663 0.950 . S
H660 C656 0.950 . S
C661 C659 1.390 . S
C661 C662 1.387 . S
C661 H664 0.950 . S
C662 C661 1.387 . S
C662 C665 1.387 . S
H663 C659 0.950 . S
H664 C661 0.950 . S
C665 C656 1.390 . S
C665 H658 0.950 . S
C665 C662 1.387 . S
C666 C667 1.387 . S
C666 H670 0.950 . S
C666 C675 1.390 . S
C667 C666 1.387 . S
C667 C669 1.387 . S
H668 C675 0.950 . S
C669 C667 1.387 . S
C669 C671 1.390 . S
C669 H673 0.950 . S
H670 C666 0.950 . S
C671 C669 1.390 . S
C671 C672 1.387 . S
C671 H674 0.950 . S
C672 C671 1.387 . S
C672 C675 1.387 . S
H673 C669 0.950 . S
H674 C671 0.950 . S
C675 C666 1.390 . S
C675 H668 0.950 . S
C675 C672 1.387 . S
C676 C677 1.387 . S
C676 H680 0.950 . S
C676 C685 1.390 . S
C677 C676 1.387 . S
C677 C679 1.387 . S
H678 C685 0.950 . S
C679 C677 1.387 . S
C679 C681 1.390 . S
C679 H683 0.950 . S
H680 C676 0.950 . S
C681 C679 1.390 . S
C681 C682 1.387 . S
C681 H684 0.950 . S
C682 C681 1.387 . S
C682 C685 1.387 . S
H683 C679 0.950 . S
H684 C681 0.950 . S
C685 C676 1.390 . S
C685 H678 0.950 . S
C685 C682 1.387 . S
C686 C687 1.387 . S
C686 H690 0.950 . S
C686 C695 1.390 . S
C687 C686 1.387 . S
C687 C689 1.387 . S
H688 C695 0.950 . S
C689 C687 1.387 . S
C689 C691 1.390 . S
C689 H693 0.950 . S
H690 C686 0.950 . S
C691 C689 1.390 . S
C691 C692 1.387 . S
C691 H694 0.950 . S
C692 C691 1.387 . S
C692 C695 1.387 . S
H693 C689 0.950 . S
H694 C691 0.950 . S
C695 C686 1.390 . S
C695 H688 0.950 . S
C695 C692 1.387 . S
C397 C120 0.640 . S
C402 C21 0.640 . S
C407 C54 0.649 . S
C412 C153 0.649 . S
C417 C186 0.640 . S
C422 C87 0.640 . S
C427 C219 0.640 . S
C432 C318 0.640 . S
C437 C351 0.640 . S
C442 C252 0.640 . S
C447 C285 0.649 . S
C452 C384 0.649 . S
C457 N13 2.154 . S
C462 N343 2.154 . S
C467 N376 2.152 . S
C472 N46 2.152 . S
C477 N79 2.154 . S
C482 N211 2.154 . S
C487 N112 2.154 . S
C492 N244 2.154 . S
C497 N145 2.152 . S
C502 N277 2.152 . S
C507 N178 2.152 . S
C512 N310 2.152 . S
C517 C304 2.067 . S
C522 C7 2.070 . S
C527 C40 2.069 . S
C532 C337 2.067 . S
C537 C73 2.068 . S
C542 C370 2.068 . S
C547 C205 2.067 . S
C552 C106 2.069 . S
C557 C238 2.069 . S
C562 C139 2.067 . S
C567 C271 2.068 . S
C572 C172 2.068 . S
C577 N2 1.485 . S
C582 N200 1.483 . S
C587 N35 1.486 . S
C592 N233 1.484 . S
C597 N266 1.481 1_556 S
C602 N68 1.481 1_554 S
C607 N101 1.484 . S
C612 N299 1.483 . S
C617 N332 1.482 . S
C622 N134 1.484 . S
C627 N167 1.481 1_554 S
C632 N365 1.481 1_556 S
C637 C282 1.495 . S
C642 C18 1.493 . S
C647 C315 1.494 . S
C652 C51 1.494 . S
C657 C348 1.492 . S
C662 C84 1.495 . S
C667 C117 1.493 . S
C672 C381 1.495 . S
C677 C216 1.494 . S
C682 C150 1.494 . S
C687 C249 1.495 . S
C692 C183 1.492 . S
